# Generated by pormake.
# Topology gar, (4,6)-cn, num edge types: 1
# Building blocks:
#     Node 0, Type 0, BuildingBlock: KUFVIS_clean_sbu_0, # of connection points: 4
#     Node 1, Type 0, BuildingBlock: KUFVIS_clean_sbu_0, # of connection points: 4
#     Node 2, Type 0, BuildingBlock: KUFVIS_clean_sbu_0, # of connection points: 4
#     Node 3, Type 0, BuildingBlock: KUFVIS_clean_sbu_0, # of connection points: 4
#     Node 4, Type 0, BuildingBlock: KUFVIS_clean_sbu_0, # of connection points: 4
#     Node 5, Type 0, BuildingBlock: KUFVIS_clean_sbu_0, # of connection points: 4
#     Node 6, Type 0, BuildingBlock: KUFVIS_clean_sbu_0, # of connection points: 4
#     Node 7, Type 0, BuildingBlock: KUFVIS_clean_sbu_0, # of connection points: 4
#     Node 8, Type 0, BuildingBlock: KUFVIS_clean_sbu_0, # of connection points: 4
#     Node 9, Type 0, BuildingBlock: KUFVIS_clean_sbu_0, # of connection points: 4
#     Node 10, Type 0, BuildingBlock: KUFVIS_clean_sbu_0, # of connection points: 4
#     Node 11, Type 0, BuildingBlock: KUFVIS_clean_sbu_0, # of connection points: 4
#     Node 12, Type 0, BuildingBlock: KUFVIS_clean_sbu_0, # of connection points: 4
#     Node 13, Type 0, BuildingBlock: KUFVIS_clean_sbu_0, # of connection points: 4
#     Node 14, Type 0, BuildingBlock: KUFVIS_clean_sbu_0, # of connection points: 4
#     Node 15, Type 0, BuildingBlock: KUFVIS_clean_sbu_0, # of connection points: 4
#     Node 16, Type 0, BuildingBlock: KUFVIS_clean_sbu_0, # of connection points: 4
#     Node 17, Type 0, BuildingBlock: KUFVIS_clean_sbu_0, # of connection points: 4
#     Node 18, Type 0, BuildingBlock: KUFVIS_clean_sbu_0, # of connection points: 4
#     Node 19, Type 0, BuildingBlock: KUFVIS_clean_sbu_0, # of connection points: 4
#     Node 20, Type 0, BuildingBlock: KUFVIS_clean_sbu_0, # of connection points: 4
#     Node 21, Type 0, BuildingBlock: KUFVIS_clean_sbu_0, # of connection points: 4
#     Node 22, Type 0, BuildingBlock: KUFVIS_clean_sbu_0, # of connection points: 4
#     Node 23, Type 0, BuildingBlock: KUFVIS_clean_sbu_0, # of connection points: 4
#     Node 24, Type 1, BuildingBlock: BETFEN_clean_sbu_0, # of connection points: 6
#     Node 25, Type 1, BuildingBlock: BETFEN_clean_sbu_0, # of connection points: 6
#     Node 26, Type 1, BuildingBlock: BETFEN_clean_sbu_0, # of connection points: 6
#     Node 27, Type 1, BuildingBlock: BETFEN_clean_sbu_0, # of connection points: 6
#     Node 28, Type 1, BuildingBlock: BETFEN_clean_sbu_0, # of connection points: 6
#     Node 29, Type 1, BuildingBlock: BETFEN_clean_sbu_0, # of connection points: 6
#     Node 30, Type 1, BuildingBlock: BETFEN_clean_sbu_0, # of connection points: 6
#     Node 31, Type 1, BuildingBlock: BETFEN_clean_sbu_0, # of connection points: 6
#     Node 32, Type 1, BuildingBlock: BETFEN_clean_sbu_0, # of connection points: 6
#     Node 33, Type 1, BuildingBlock: BETFEN_clean_sbu_0, # of connection points: 6
#     Node 34, Type 1, BuildingBlock: BETFEN_clean_sbu_0, # of connection points: 6
#     Node 35, Type 1, BuildingBlock: BETFEN_clean_sbu_0, # of connection points: 6
#     Node 36, Type 1, BuildingBlock: BETFEN_clean_sbu_0, # of connection points: 6
#     Node 37, Type 1, BuildingBlock: BETFEN_clean_sbu_0, # of connection points: 6
#     Node 38, Type 1, BuildingBlock: BETFEN_clean_sbu_0, # of connection points: 6
#     Node 39, Type 1, BuildingBlock: BETFEN_clean_sbu_0, # of connection points: 6
#     Edge 40, Type (0, 1), BuildingBlock: XIVTED_clean_linker_0, # of connection points: 2
#     Edge 41, Type (0, 1), BuildingBlock: XIVTED_clean_linker_0, # of connection points: 2
#     Edge 42, Type (0, 1), BuildingBlock: XIVTED_clean_linker_0, # of connection points: 2
#     Edge 43, Type (0, 1), BuildingBlock: XIVTED_clean_linker_0, # of connection points: 2
#     Edge 44, Type (0, 1), BuildingBlock: XIVTED_clean_linker_0, # of connection points: 2
#     Edge 45, Type (0, 1), BuildingBlock: XIVTED_clean_linker_0, # of connection points: 2
#     Edge 46, Type (0, 1), BuildingBlock: XIVTED_clean_linker_0, # of connection points: 2
#     Edge 47, Type (0, 1), BuildingBlock: XIVTED_clean_linker_0, # of connection points: 2
#     Edge 48, Type (0, 1), BuildingBlock: XIVTED_clean_linker_0, # of connection points: 2
#     Edge 49, Type (0, 1), BuildingBlock: XIVTED_clean_linker_0, # of connection points: 2
#     Edge 50, Type (0, 1), BuildingBlock: XIVTED_clean_linker_0, # of connection points: 2
#     Edge 51, Type (0, 1), BuildingBlock: XIVTED_clean_linker_0, # of connection points: 2
#     Edge 52, Type (0, 1), BuildingBlock: XIVTED_clean_linker_0, # of connection points: 2
#     Edge 53, Type (0, 1), BuildingBlock: XIVTED_clean_linker_0, # of connection points: 2
#     Edge 54, Type (0, 1), BuildingBlock: XIVTED_clean_linker_0, # of connection points: 2
#     Edge 55, Type (0, 1), BuildingBlock: XIVTED_clean_linker_0, # of connection points: 2
#     Edge 56, Type (0, 1), BuildingBlock: XIVTED_clean_linker_0, # of connection points: 2
#     Edge 57, Type (0, 1), BuildingBlock: XIVTED_clean_linker_0, # of connection points: 2
#     Edge 58, Type (0, 1), BuildingBlock: XIVTED_clean_linker_0, # of connection points: 2
#     Edge 59, Type (0, 1), BuildingBlock: XIVTED_clean_linker_0, # of connection points: 2
#     Edge 60, Type (0, 1), BuildingBlock: XIVTED_clean_linker_0, # of connection points: 2
#     Edge 61, Type (0, 1), BuildingBlock: XIVTED_clean_linker_0, # of connection points: 2
#     Edge 62, Type (0, 1), BuildingBlock: XIVTED_clean_linker_0, # of connection points: 2
#     Edge 63, Type (0, 1), BuildingBlock: XIVTED_clean_linker_0, # of connection points: 2
#     Edge 64, Type (0, 1), BuildingBlock: XIVTED_clean_linker_0, # of connection points: 2
#     Edge 65, Type (0, 1), BuildingBlock: XIVTED_clean_linker_0, # of connection points: 2
#     Edge 66, Type (0, 1), BuildingBlock: XIVTED_clean_linker_0, # of connection points: 2
#     Edge 67, Type (0, 1), BuildingBlock: XIVTED_clean_linker_0, # of connection points: 2
#     Edge 68, Type (0, 1), BuildingBlock: XIVTED_clean_linker_0, # of connection points: 2
#     Edge 69, Type (0, 1), BuildingBlock: XIVTED_clean_linker_0, # of connection points: 2
#     Edge 70, Type (0, 1), BuildingBlock: XIVTED_clean_linker_0, # of connection points: 2
#     Edge 71, Type (0, 1), BuildingBlock: XIVTED_clean_linker_0, # of connection points: 2
#     Edge 72, Type (0, 1), BuildingBlock: XIVTED_clean_linker_0, # of connection points: 2
#     Edge 73, Type (0, 1), BuildingBlock: XIVTED_clean_linker_0, # of connection points: 2
#     Edge 74, Type (0, 1), BuildingBlock: XIVTED_clean_linker_0, # of connection points: 2
#     Edge 75, Type (0, 1), BuildingBlock: XIVTED_clean_linker_0, # of connection points: 2
#     Edge 76, Type (0, 1), BuildingBlock: XIVTED_clean_linker_0, # of connection points: 2
#     Edge 77, Type (0, 1), BuildingBlock: XIVTED_clean_linker_0, # of connection points: 2
#     Edge 78, Type (0, 1), BuildingBlock: XIVTED_clean_linker_0, # of connection points: 2
#     Edge 79, Type (0, 1), BuildingBlock: XIVTED_clean_linker_0, # of connection points: 2
#     Edge 80, Type (0, 1), BuildingBlock: XIVTED_clean_linker_0, # of connection points: 2
#     Edge 81, Type (0, 1), BuildingBlock: XIVTED_clean_linker_0, # of connection points: 2
#     Edge 82, Type (0, 1), BuildingBlock: XIVTED_clean_linker_0, # of connection points: 2
#     Edge 83, Type (0, 1), BuildingBlock: XIVTED_clean_linker_0, # of connection points: 2
#     Edge 84, Type (0, 1), BuildingBlock: XIVTED_clean_linker_0, # of connection points: 2
#     Edge 85, Type (0, 1), BuildingBlock: XIVTED_clean_linker_0, # of connection points: 2
#     Edge 86, Type (0, 1), BuildingBlock: XIVTED_clean_linker_0, # of connection points: 2
#     Edge 87, Type (0, 1), BuildingBlock: XIVTED_clean_linker_0, # of connection points: 2
#     Edge 88, Type (0, 1), BuildingBlock: XIVTED_clean_linker_0, # of connection points: 2
#     Edge 89, Type (0, 1), BuildingBlock: XIVTED_clean_linker_0, # of connection points: 2
#     Edge 90, Type (0, 1), BuildingBlock: XIVTED_clean_linker_0, # of connection points: 2
#     Edge 91, Type (0, 1), BuildingBlock: XIVTED_clean_linker_0, # of connection points: 2
#     Edge 92, Type (0, 1), BuildingBlock: XIVTED_clean_linker_0, # of connection points: 2
#     Edge 93, Type (0, 1), BuildingBlock: XIVTED_clean_linker_0, # of connection points: 2
#     Edge 94, Type (0, 1), BuildingBlock: XIVTED_clean_linker_0, # of connection points: 2
#     Edge 95, Type (0, 1), BuildingBlock: XIVTED_clean_linker_0, # of connection points: 2
#     Edge 96, Type (0, 1), BuildingBlock: XIVTED_clean_linker_0, # of connection points: 2
#     Edge 97, Type (0, 1), BuildingBlock: XIVTED_clean_linker_0, # of connection points: 2
#     Edge 98, Type (0, 1), BuildingBlock: XIVTED_clean_linker_0, # of connection points: 2
#     Edge 99, Type (0, 1), BuildingBlock: XIVTED_clean_linker_0, # of connection points: 2
#     Edge 100, Type (0, 1), BuildingBlock: XIVTED_clean_linker_0, # of connection points: 2
#     Edge 101, Type (0, 1), BuildingBlock: XIVTED_clean_linker_0, # of connection points: 2
#     Edge 102, Type (0, 1), BuildingBlock: XIVTED_clean_linker_0, # of connection points: 2
#     Edge 103, Type (0, 1), BuildingBlock: XIVTED_clean_linker_0, # of connection points: 2
#     Edge 104, Type (0, 1), BuildingBlock: XIVTED_clean_linker_0, # of connection points: 2
#     Edge 105, Type (0, 1), BuildingBlock: XIVTED_clean_linker_0, # of connection points: 2
#     Edge 106, Type (0, 1), BuildingBlock: XIVTED_clean_linker_0, # of connection points: 2
#     Edge 107, Type (0, 1), BuildingBlock: XIVTED_clean_linker_0, # of connection points: 2
#     Edge 108, Type (0, 1), BuildingBlock: XIVTED_clean_linker_0, # of connection points: 2
#     Edge 109, Type (0, 1), BuildingBlock: XIVTED_clean_linker_0, # of connection points: 2
#     Edge 110, Type (0, 1), BuildingBlock: XIVTED_clean_linker_0, # of connection points: 2
#     Edge 111, Type (0, 1), BuildingBlock: XIVTED_clean_linker_0, # of connection points: 2
#     Edge 112, Type (0, 1), BuildingBlock: XIVTED_clean_linker_0, # of connection points: 2
#     Edge 113, Type (0, 1), BuildingBlock: XIVTED_clean_linker_0, # of connection points: 2
#     Edge 114, Type (0, 1), BuildingBlock: XIVTED_clean_linker_0, # of connection points: 2
#     Edge 115, Type (0, 1), BuildingBlock: XIVTED_clean_linker_0, # of connection points: 2
#     Edge 116, Type (0, 1), BuildingBlock: XIVTED_clean_linker_0, # of connection points: 2
#     Edge 117, Type (0, 1), BuildingBlock: XIVTED_clean_linker_0, # of connection points: 2
#     Edge 118, Type (0, 1), BuildingBlock: XIVTED_clean_linker_0, # of connection points: 2
#     Edge 119, Type (0, 1), BuildingBlock: XIVTED_clean_linker_0, # of connection points: 2
#     Edge 120, Type (0, 1), BuildingBlock: XIVTED_clean_linker_0, # of connection points: 2
#     Edge 121, Type (0, 1), BuildingBlock: XIVTED_clean_linker_0, # of connection points: 2
#     Edge 122, Type (0, 1), BuildingBlock: XIVTED_clean_linker_0, # of connection points: 2
#     Edge 123, Type (0, 1), BuildingBlock: XIVTED_clean_linker_0, # of connection points: 2
#     Edge 124, Type (0, 1), BuildingBlock: XIVTED_clean_linker_0, # of connection points: 2
#     Edge 125, Type (0, 1), BuildingBlock: XIVTED_clean_linker_0, # of connection points: 2
#     Edge 126, Type (0, 1), BuildingBlock: XIVTED_clean_linker_0, # of connection points: 2
#     Edge 127, Type (0, 1), BuildingBlock: XIVTED_clean_linker_0, # of connection points: 2
#     Edge 128, Type (0, 1), BuildingBlock: XIVTED_clean_linker_0, # of connection points: 2
#     Edge 129, Type (0, 1), BuildingBlock: XIVTED_clean_linker_0, # of connection points: 2
#     Edge 130, Type (0, 1), BuildingBlock: XIVTED_clean_linker_0, # of connection points: 2
#     Edge 131, Type (0, 1), BuildingBlock: XIVTED_clean_linker_0, # of connection points: 2
#     Edge 132, Type (0, 1), BuildingBlock: XIVTED_clean_linker_0, # of connection points: 2
#     Edge 133, Type (0, 1), BuildingBlock: XIVTED_clean_linker_0, # of connection points: 2
#     Edge 134, Type (0, 1), BuildingBlock: XIVTED_clean_linker_0, # of connection points: 2
#     Edge 135, Type (0, 1), BuildingBlock: XIVTED_clean_linker_0, # of connection points: 2
# Relax obj value: 0.191
# Max RMSD: 0.311
# Mean RMSD: 0.160
data_MOF--net-gar--node1-KUFVIS_clean_sbu_0--node2-BETFEN_clean_sbu_0--edge1-XIVTED_clean_linker_0
_symmetry_space_group_name_H-M    P1
_symmetry_Int_Tables_number       1
_symmetry_cell_setting            triclinic
loop_
_symmetry_equiv_pos_as_xyz
'x, y, z'
_cell_length_a     63.428222
_cell_length_b     56.692329
_cell_length_c     58.112128
_cell_angle_alpha  94.501667
_cell_angle_beta   98.805082
_cell_angle_gamma 102.64057
loop_
_atom_site_label
_atom_site_type_symbol
_atom_site_fract_x
_atom_site_fract_y
_atom_site_fract_z
_atom_type_partial_charge
Mn0 Mn 0.02258 0.31013 0.41831 0.0
Mn1 Mn 0.01728 0.34684 0.37505 0.0
C2 C 0.98777 0.3125 0.39947 0.0
C3 C 0.02593 0.27214 0.43227 0.0
C4 C 0.03205 0.36651 0.42688 0.0
O5 O 0.05243 0.3156 0.40707 0.0
O6 O 0.04515 0.33596 0.37581 0.0
C7 C 0.01391 0.31442 0.33138 0.0
N8 N 1.00539 0.3297 0.34451 0.0
C9 C 0.97723 0.3306 0.31186 0.0
C10 C 0.98571 0.31482 0.29804 0.0
C11 C 1.00408 0.30662 0.30787 0.0
C12 C 0.98774 0.33775 0.33515 0.0
H13 H 0.02827 0.30853 0.3387 0.0
C14 C 0.0573 0.32484 0.38851 0.0
O15 O 0.03253 0.29278 0.44546 0.0
O16 O 0.01779 0.2734 0.4106 0.0
N17 N 0.99071 0.35803 0.37224 0.0
C18 C 0.98311 0.37092 0.38859 0.0
C19 C 0.96434 0.37978 0.38191 0.0
C20 C 0.95354 0.37523 0.35848 0.0
C21 C 0.96127 0.36127 0.3421 0.0
C22 C 0.98001 0.35285 0.34984 0.0
H23 H 0.99095 0.37383 0.40671 0.0
O24 O 0.99043 0.30559 0.42031 0.0
O25 O 1.00538 0.31819 0.3904 0.0
O26 O 0.02975 0.34589 0.435 0.0
O27 O 0.02911 0.36816 0.40494 0.0
C28 C 0.95074 0.35476 0.31858 0.0
C29 C 0.95871 0.33943 0.30346 0.0
H30 H 0.97823 0.30885 0.27988 0.0
H31 H 0.01079 0.29455 0.29727 0.0
H32 H 0.95811 0.3899 0.39482 0.0
H33 H 0.93897 0.38193 0.3534 0.0
H34 H 0.93624 0.36103 0.31206 0.0
H35 H 0.95031 0.3343 0.28549 0.0
Mn36 Mn 0.08558 0.8378 0.64924 0.0
Mn37 Mn 0.10183 0.88417 0.69401 0.0
C38 C 0.12208 0.85008 0.6687 0.0
C39 C 0.07513 0.79559 0.63272 0.0
C40 C 0.08945 0.89274 0.64332 0.0
O41 O 0.05679 0.83832 0.66166 0.0
O42 O 0.07006 0.86933 0.69126 0.0
C43 C 0.09487 0.85986 0.73638 0.0
N44 N 0.10863 0.87343 0.72402 0.0
C45 C 0.13833 0.88189 0.75699 0.0
C46 C 0.1245 0.86786 0.77 0.0
C47 C 0.1027 0.85677 0.75963 0.0
C48 C 0.1296 0.88439 0.73393 0.0
H49 H 0.07799 0.8517 0.72864 0.0
C50 C 0.05456 0.85239 0.67922 0.0
O51 O 0.07141 0.81315 0.62088 0.0
O52 O 0.08353 0.80222 0.65471 0.0
N53 N 0.13248 0.89927 0.69812 0.0
C54 C 0.14388 0.91147 0.68288 0.0
C55 C 0.16616 0.92292 0.69024 0.0
C56 C 0.17645 0.92189 0.71321 0.0
C57 C 0.1644 0.90911 0.72852 0.0
C58 C 0.14229 0.89787 0.72013 0.0
H59 H 0.13602 0.91244 0.66526 0.0
O60 O 0.11741 0.84051 0.64694 0.0
O61 O 0.10559 0.85396 0.6778 0.0
O62 O 0.08488 0.87042 0.63439 0.0
O63 O 0.09588 0.89904 0.66515 0.0
C64 C 0.17346 0.90704 0.75175 0.0
C65 C 0.16042 0.89351 0.76601 0.0
H66 H 0.13044 0.8655 0.78796 0.0
H67 H 0.0919 0.84605 0.76962 0.0
H68 H 0.17536 0.93266 0.67828 0.0
H69 H 0.19361 0.93087 0.71887 0.0
H70 H 0.19046 0.9157 0.75881 0.0
H71 H 0.16758 0.89202 0.78384 0.0
Mn72 Mn 0.52261 0.81232 0.91922 0.0
Mn73 Mn 0.51995 0.84848 0.87526 0.0
C74 C 0.48847 0.8164 0.89964 0.0
C75 C 0.52516 0.77393 0.93356 0.0
C76 C 0.53452 0.86878 0.9268 0.0
O77 O 0.55293 0.81681 0.90865 0.0
O78 O 0.54616 0.83481 0.8757 0.0
C79 C 0.51296 0.8133 0.83273 0.0
N80 N 0.50631 0.83065 0.84543 0.0
C81 C 0.47705 0.83113 0.81385 0.0
C82 C 0.48362 0.81329 0.80043 0.0
C83 C 0.50158 0.80426 0.80996 0.0
C84 C 0.48891 0.83931 0.8365 0.0
H85 H 0.52693 0.80659 0.83985 0.0
C86 C 0.55791 0.82415 0.88933 0.0
O87 O 0.53168 0.79462 0.94669 0.0
O88 O 0.51732 0.77534 0.91183 0.0
N89 N 0.49497 0.8626 0.8727 0.0
C90 C 0.49021 0.87921 0.88817 0.0
C91 C 0.47242 0.88967 0.8815 0.0
C92 C 0.45989 0.88328 0.85888 0.0
C93 C 0.46514 0.86628 0.84321 0.0
C94 C 0.48299 0.85633 0.85089 0.0
H95 H 0.49987 0.88456 0.90546 0.0
O96 O 0.49022 0.80882 0.92023 0.0
O97 O 0.50644 0.8211 0.89115 0.0
O98 O 0.52972 0.84839 0.93523 0.0
O99 O 0.53386 0.86988 0.90485 0.0
C100 C 0.45325 0.85868 0.82032 0.0
C101 C 0.45914 0.84104 0.80569 0.0
H102 H 0.47497 0.80637 0.78282 0.0
H103 H 0.50677 0.79051 0.79969 0.0
H104 H 0.46847 0.90276 0.89372 0.0
H105 H 0.44624 0.89147 0.85377 0.0
H106 H 0.43938 0.86606 0.8139 0.0
H107 H 0.44971 0.83514 0.78822 0.0
Mn108 Mn 0.58629 0.33751 0.15326 0.0
Mn109 Mn 0.54178 0.32324 0.1108 0.0
C110 C 0.57283 0.29666 0.13574 0.0
C111 C 0.62367 0.34774 0.16892 0.0
C112 C 0.53967 0.33517 0.16205 0.0
O113 O 0.58513 0.37141 0.14146 0.0
O114 O 0.55619 0.35851 0.11203 0.0
C115 C 0.56151 0.33058 0.06829 0.0
N116 N 0.54898 0.31576 0.08087 0.0
C117 C 0.54038 0.28266 0.04991 0.0
C118 C 0.55305 0.29761 0.03652 0.0
C119 C 0.56368 0.32167 0.04577 0.0
C120 C 0.53852 0.29267 0.07207 0.0
H121 H 0.56973 0.34906 0.07538 0.0
C122 C 0.57177 0.3755 0.12395 0.0
O123 O 0.60914 0.35238 0.18084 0.0
O124 O 0.61679 0.33918 0.14697 0.0
N125 N 0.5268 0.28975 0.10797 0.0
C126 C 0.51704 0.27718 0.12409 0.0
C127 C 0.50687 0.25237 0.11827 0.0
C128 C 0.50677 0.24082 0.09595 0.0
C129 C 0.517 0.25416 0.07971 0.0
C130 C 0.52688 0.27883 0.0865 0.0
H131 H 0.51727 0.28593 0.14134 0.0
O132 O 0.58389 0.3018 0.15693 0.0
O133 O 0.56926 0.31562 0.12573 0.0
O134 O 0.55994 0.33764 0.16965 0.0
O135 O 0.53139 0.33036 0.14037 0.0
C136 C 0.51836 0.24378 0.05731 0.0
C137 C 0.52995 0.25805 0.04238 0.0
H138 H 0.55493 0.29074 0.01921 0.0
H139 H 0.57356 0.33329 0.03558 0.0
H140 H 0.49924 0.24215 0.13099 0.0
H141 H 0.49908 0.22162 0.09159 0.0
H142 H 0.51088 0.22475 0.05154 0.0
H143 H 0.53112 0.24979 0.02531 0.0
Mn144 Mn 0.08781 0.83805 0.14652 0.0
Mn145 Mn 0.04505 0.81769 0.10105 0.0
C146 C 0.07619 0.79711 0.13151 0.0
C147 C 0.12556 0.84892 0.16487 0.0
C148 C 0.03907 0.83132 0.15044 0.0
O149 O 0.08557 0.87006 0.13137 0.0
O150 O 0.05739 0.85277 0.10189 0.0
C151 C 0.06632 0.82553 0.05957 0.0
N152 N 0.05452 0.81017 0.07232 0.0
C153 C 0.04642 0.77729 0.0411 0.0
C154 C 0.05862 0.79272 0.02769 0.0
C155 C 0.06866 0.81692 0.037 0.0
C156 C 0.04476 0.78685 0.06351 0.0
H157 H 0.07357 0.84431 0.06644 0.0
C158 C 0.07167 0.87132 0.11296 0.0
O159 O 0.11011 0.85435 0.175 0.0
O160 O 0.11954 0.84002 0.14295 0.0
N161 N 0.03164 0.78371 0.09863 0.0
C162 C 0.01999 0.77139 0.11362 0.0
C163 C 0.00922 0.74682 0.10714 0.0
C164 C 0.01017 0.73532 0.08514 0.0
C165 C 0.02202 0.74848 0.0699 0.0
C166 C 0.0327 0.77282 0.07748 0.0
H167 H 0.01889 0.78023 0.1304 0.0
O168 O 0.08616 0.80355 0.15301 0.0
O169 O 0.07273 0.81449 0.11938 0.0
O170 O 0.0593 0.83764 0.15987 0.0
O171 O 0.03258 0.8241 0.12879 0.0
C172 C 0.02347 0.73849 0.0474 0.0
C173 C 0.03559 0.7529 0.03297 0.0
H174 H 0.06026 0.78624 0.01017 0.0
H175 H 0.07791 0.82899 0.02666 0.0
H176 H 1.00003 0.73684 0.11897 0.0
H177 H 1.00165 0.71644 0.08009 0.0
H178 H 0.01523 0.71978 0.04096 0.0
H179 H 0.03645 0.74506 0.01563 0.0
Mn180 Mn 0.52008 0.80835 0.42701 0.0
Mn181 Mn 0.51793 0.84598 0.38453 0.0
C182 C 0.48581 0.80959 0.4049 0.0
C183 C 0.52658 0.77182 0.44147 0.0
C184 C 0.52904 0.86327 0.43646 0.0
O185 O 0.55158 0.81782 0.42 0.0
O186 O 0.54572 0.8355 0.38664 0.0
C187 C 0.51703 0.81672 0.33992 0.0
N188 N 0.50745 0.83064 0.35326 0.0
C189 C 0.48137 0.83435 0.31978 0.0
C190 C 0.49087 0.81991 0.30568 0.0
C191 C 0.50873 0.811 0.31581 0.0
C192 C 0.49037 0.83947 0.34365 0.0
H193 H 0.53117 0.81049 0.34756 0.0
C194 C 0.55789 0.82721 0.40209 0.0
O195 O 0.53017 0.7921 0.45484 0.0
O196 O 0.51886 0.77231 0.41948 0.0
N197 N 0.49173 0.85775 0.38123 0.0
C198 C 0.48415 0.87087 0.39745 0.0
C199 C 0.46575 0.88024 0.39045 0.0
C200 C 0.45563 0.87643 0.36679 0.0
C201 C 0.46381 0.86296 0.35042 0.0
C202 C 0.48196 0.85371 0.35852 0.0
H203 H 0.49198 0.87415 0.41559 0.0
O204 O 0.48701 0.80109 0.42511 0.0
O205 O 0.50449 0.81645 0.39793 0.0
O206 O 0.5234 0.84275 0.44403 0.0
O207 O 0.52917 0.86534 0.41491 0.0
C208 C 0.4546 0.85819 0.32641 0.0
C209 C 0.46344 0.84401 0.31108 0.0
H210 H 0.48464 0.81562 0.28705 0.0
H211 H 0.51629 0.80007 0.30498 0.0
H212 H 0.45951 0.89053 0.40322 0.0
H213 H 0.44151 0.88381 0.36141 0.0
H214 H 0.44064 0.86524 0.31958 0.0
H215 H 0.45621 0.84048 0.29266 0.0
Mn216 Mn 0.58824 0.33791 0.64651 0.0
Mn217 Mn 0.5446 0.31814 0.60201 0.0
C218 C 0.57673 0.29712 0.63075 0.0
C219 C 0.62593 0.34929 0.66405 0.0
C220 C 0.54001 0.33073 0.65208 0.0
O221 O 0.58536 0.37019 0.63238 0.0
O222 O 0.55686 0.3534 0.60302 0.0
C223 C 0.56607 0.32638 0.56064 0.0
N224 N 0.55366 0.31107 0.57292 0.0
C225 C 0.54574 0.27847 0.54146 0.0
C226 C 0.55826 0.29397 0.52838 0.0
C227 C 0.56859 0.31798 0.53808 0.0
C228 C 0.54389 0.28784 0.56387 0.0
H229 H 0.57385 0.3449 0.56796 0.0
C230 C 0.57141 0.37175 0.61415 0.0
O231 O 0.61057 0.3536 0.67491 0.0
O232 O 0.61981 0.34103 0.64197 0.0
N233 N 0.53133 0.28407 0.59925 0.0
C234 C 0.52007 0.27137 0.6143 0.0
C235 C 0.50937 0.24681 0.60761 0.0
C236 C 0.51004 0.23567 0.58536 0.0
C237 C 0.52155 0.24918 0.57009 0.0
C238 C 0.53207 0.27353 0.57782 0.0
H239 H 0.51919 0.27991 0.63127 0.0
O240 O 0.58722 0.30325 0.65208 0.0
O241 O 0.57272 0.31475 0.61925 0.0
O242 O 0.56035 0.33671 0.66076 0.0
O243 O 0.53255 0.32402 0.63048 0.0
C244 C 0.52293 0.23947 0.54745 0.0
C245 C 0.53499 0.25411 0.53314 0.0
H246 H 0.56012 0.28761 0.5109 0.0
H247 H 0.57832 0.33003 0.5281 0.0
H248 H 0.50046 0.23656 0.61948 0.0
H249 H 0.50163 0.21677 0.58018 0.0
H250 H 0.51481 0.22075 0.5409 0.0
H251 H 0.53597 0.24642 0.51578 0.0
Mn252 Mn 0.01961 0.30772 0.9263 0.0
Mn253 Mn 0.01514 0.34677 0.8851 0.0
C254 C 0.98486 0.30862 0.90493 0.0
C255 C 0.02638 0.2713 0.94087 0.0
C256 C 0.02548 0.36242 0.93719 0.0
O257 O 0.05124 0.31797 0.91882 0.0
O258 O 0.04352 0.33824 0.8879 0.0
C259 C 0.01593 0.31648 0.84158 0.0
N260 N 1.00581 0.33065 0.85397 0.0
C261 C 0.97899 0.33093 0.81998 0.0
C262 C 0.98912 0.31633 0.80681 0.0
C263 C 1.0076 0.30898 0.81769 0.0
C264 C 0.98792 0.33765 0.84374 0.0
H265 H 0.03036 0.31118 0.84983 0.0
C266 C 0.05658 0.3288 0.90118 0.0
O267 O 0.02981 0.2917 0.95397 0.0
O268 O 0.01899 0.27173 0.91873 0.0
N269 N 0.98811 0.35685 0.88066 0.0
C270 C 0.9804 0.37107 0.89582 0.0
C271 C 0.96185 0.37979 0.88781 0.0
C272 C 0.9517 0.37427 0.86419 0.0
C273 C 0.96019 0.36001 0.8488 0.0
C274 C 0.97863 0.35167 0.85785 0.0
H275 H 0.98839 0.37587 0.91383 0.0
O276 O 0.98649 0.29961 0.92486 0.0
O277 O 1.00328 0.3163 0.89786 0.0
O278 O 0.02221 0.34133 0.94385 0.0
O279 O 0.02478 0.36628 0.91589 0.0
C280 C 0.95108 0.35371 0.82485 0.0
C281 C 0.96044 0.33914 0.81046 0.0
H282 H 0.98286 0.31069 0.78833 0.0
H283 H 0.01555 0.29779 0.80762 0.0
H284 H 0.95553 0.39095 0.89978 0.0
H285 H 0.93742 0.38109 0.85804 0.0
H286 H 0.93679 0.35986 0.81736 0.0
H287 H 0.95321 0.33433 0.7921 0.0
Mn288 Mn 0.45907 0.16074 0.31607 0.0
Mn289 Mn 0.42401 0.14806 0.35379 0.0
C290 C 0.44429 0.12133 0.32123 0.0
C291 C 0.46755 0.16257 0.27901 0.0
C292 C 0.47301 0.16578 0.36898 0.0
O293 O 0.44739 0.19147 0.31834 0.0
O294 O 0.42459 0.18093 0.34417 0.0
C295 C 0.38178 0.14733 0.3233 0.0
N296 N 0.39461 0.13583 0.33725 0.0
C297 C 0.36546 0.09963 0.33226 0.0
C298 C 0.35192 0.1112 0.31804 0.0
C299 C 0.36015 0.13512 0.31349 0.0
C300 C 0.38683 0.11278 0.34174 0.0
H301 H 0.38797 0.16565 0.3196 0.0
C302 C 0.43256 0.19523 0.32996 0.0
O303 O 0.48171 0.17349 0.29738 0.0
O304 O 0.44756 0.15406 0.28198 0.0
N305 N 0.42174 0.11602 0.36303 0.0
C306 C 0.43736 0.10679 0.37567 0.0
C307 C 0.43209 0.08262 0.38072 0.0
C308 C 0.41081 0.06817 0.3728 0.0
C309 C 0.39504 0.078 0.35973 0.0
C310 C 0.40124 0.10223 0.35524 0.0
H311 H 0.45376 0.11772 0.38178 0.0
O312 O 0.4634 0.12699 0.31508 0.0
O313 O 0.43535 0.13921 0.32587 0.0
O314 O 0.47767 0.1685 0.34872 0.0
O315 O 0.45349 0.1594 0.37289 0.0
C316 C 0.37349 0.06458 0.35072 0.0
C317 C 0.3587 0.0754 0.33704 0.0
H318 H 0.33524 0.1018 0.31035 0.0
H319 H 0.34984 0.14413 0.30241 0.0
H320 H 0.44441 0.07513 0.39069 0.0
H321 H 0.40681 0.04951 0.37669 0.0
H322 H 0.3682 0.04584 0.354 0.0
H323 H 0.34225 0.06482 0.33 0.0
Mn324 Mn 0.27833 0.22905 0.52159 0.0
Mn325 Mn 0.27113 0.18164 0.48054 0.0
C326 C 0.24271 0.20366 0.50928 0.0
C327 C 0.28552 0.24569 0.56143 0.0
C328 C 0.28278 0.23471 0.47025 0.0
O329 O 0.30949 0.22266 0.52299 0.0
O330 O 0.30094 0.18656 0.49995 0.0
C331 C 0.27265 0.13849 0.50567 0.0
N332 N 0.2613 0.15054 0.49077 0.0
C333 C 0.23037 0.11605 0.48196 0.0
C334 C 0.24166 0.1034 0.49744 0.0
C335 C 0.26294 0.11465 0.50929 0.0
C336 C 0.24106 0.13962 0.47877 0.0
H337 H 0.28907 0.14688 0.51451 0.0
C338 C 0.31442 0.20326 0.51468 0.0
O339 O 0.28884 0.25929 0.54479 0.0
O340 O 0.27883 0.22249 0.55516 0.0
N341 N 0.24247 0.17571 0.46196 0.0
C342 C 0.2333 0.191 0.44888 0.0
C343 C 0.2116 0.18304 0.43688 0.0
C344 C 0.19958 0.15945 0.43842 0.0
C345 C 0.2093 0.14412 0.45215 0.0
C346 C 0.23094 0.15312 0.46384 0.0
H347 H 0.24234 0.20921 0.44776 0.0
O348 O 0.24563 0.22615 0.51802 0.0
O349 O 0.26088 0.19718 0.50691 0.0
O350 O 0.27982 0.24418 0.48988 0.0
O351 O 0.28135 0.21194 0.4662 0.0
C352 C 0.19823 0.12043 0.45507 0.0
C353 C 0.20882 0.10634 0.46982 0.0
H354 H 0.23415 0.08505 0.50037 0.0
H355 H 0.27186 0.10494 0.52111 0.0
H356 H 0.20414 0.19509 0.42654 0.0
H357 H 0.18281 0.15339 0.42919 0.0
H358 H 0.18151 0.11294 0.44618 0.0
H359 H 0.20011 0.08817 0.47197 0.0
Mn360 Mn 0.18558 0.10887 0.85314 0.0
Mn361 Mn 0.22921 0.12085 0.89568 0.0
C362 C 0.20543 0.14832 0.86269 0.0
C363 C 0.16945 0.09621 0.81524 0.0
C364 C 0.18237 0.10507 0.90302 0.0
O365 O 0.19339 0.07622 0.85627 0.0
O366 O 0.22704 0.08842 0.87868 0.0
C367 C 0.26728 0.12335 0.87145 0.0
N368 N 0.25594 0.13448 0.88527 0.0
C369 C 0.28341 0.17208 0.89026 0.0
C370 C 0.29534 0.16104 0.87603 0.0
C371 C 0.28725 0.13656 0.86662 0.0
C372 C 0.26374 0.15792 0.8947 0.0
H373 H 0.26114 0.10455 0.86414 0.0
C374 C 0.21221 0.07271 0.86432 0.0
O375 O 0.15821 0.09323 0.83208 0.0
O376 O 0.19024 0.10674 0.82044 0.0
N377 N 0.23229 0.15266 0.91161 0.0
C378 C 0.21829 0.161 0.92402 0.0
C379 C 0.22356 0.18543 0.93382 0.0
C380 C 0.24317 0.20106 0.93081 0.0
C381 C 0.25727 0.19213 0.91787 0.0
C382 C 0.25111 0.16762 0.90843 0.0
H383 H 0.20316 0.14919 0.92638 0.0
O384 O 0.18501 0.14383 0.8525 0.0
O385 O 0.21295 0.12941 0.86742 0.0
O386 O 0.1738 0.10852 0.88293 0.0
O387 O 0.20286 0.10694 0.9093 0.0
C388 C 0.27705 0.2067 0.91371 0.0
C389 C 0.29016 0.19665 0.9 0.0
H390 H 0.3107 0.17121 0.87216 0.0
H391 H 0.29637 0.1279 0.85564 0.0
H392 H 0.21251 0.19222 0.94364 0.0
H393 H 0.24716 0.21991 0.93837 0.0
H394 H 0.28227 0.22569 0.92087 0.0
H395 H 0.3053 0.20804 0.89687 0.0
Mn396 Mn 0.32865 0.93167 0.04645 0.0
Mn397 Mn 0.335 0.97873 0.01366 0.0
C398 C 0.36373 0.95305 0.04285 0.0
C399 C 0.32598 0.91637 0.0831 0.0
C400 C 0.32047 0.92562 0.99177 0.0
O401 O 0.29899 0.94169 0.0446 0.0
O402 O 0.3062 0.97428 0.02454 0.0
C403 C 0.33718 0.02009 0.04919 0.0
N404 N 0.34628 0.00929 0.03274 0.0
C405 C 0.37642 0.04442 0.03667 0.0
C406 C 0.3673 0.05595 0.05356 0.0
C407 C 0.34764 0.0437 0.05991 0.0
C408 C 0.36523 0.02092 0.02654 0.0
H409 H 0.32199 0.0108 0.054 0.0
C410 C 0.29393 0.96033 0.03601 0.0
O411 O 0.31881 0.90254 0.06332 0.0
O412 O 0.334 0.93917 0.08165 0.0
N413 N 0.36231 0.98519 1.00246 0.0
C414 C 0.37002 0.97068 0.98759 0.0
C415 C 0.38998 0.97981 0.9802 0.0
C416 C 0.40176 1.0038 0.98809 0.0
C417 C 0.39365 0.0183 1.00364 0.0
C418 C 0.37365 0.00819 0.0104 0.0
H419 H 0.36125 0.95212 0.98174 0.0
O420 O 0.3605 0.9309 0.04822 0.0
O421 O 0.34639 0.96179 0.03925 0.0
O422 O 0.32137 0.91593 0.01108 0.0
O423 O 0.32408 0.94863 0.99153 0.0
C424 C 0.40495 0.04212 0.01323 0.0
C425 C 0.39634 0.05517 0.02973 0.0
H426 H 0.37532 0.07415 0.06189 0.0
H427 H 0.34053 0.05248 0.07297 0.0
H428 H 0.39633 0.96834 0.96857 0.0
H429 H 0.41722 0.01074 0.98247 0.0
H430 H 0.42049 0.05039 0.00838 0.0
H431 H 0.40535 0.07334 0.03724 0.0
Mn432 Mn 0.32751 0.42675 0.05087 0.0
Mn433 Mn 0.33155 0.46817 0.01104 0.0
C434 C 0.36245 0.45074 0.04691 0.0
C435 C 0.32161 0.41228 0.0881 0.0
C436 C 0.32114 0.41379 0.99731 0.0
O437 O 0.29609 0.43275 0.04341 0.0
O438 O 0.30243 0.46314 0.02041 0.0
C439 C 0.32896 0.51366 0.03787 0.0
N440 N 0.34003 0.5012 0.02493 0.0
C441 C 0.36632 0.53798 0.02179 0.0
C442 C 0.35527 0.55121 0.0352 0.0
C443 C 0.33654 0.53898 0.04332 0.0
C444 C 0.35797 0.51282 0.01688 0.0
H445 H 0.31426 0.50436 0.04365 0.0
C446 C 0.28998 0.44909 0.03153 0.0
O447 O 0.31774 0.39818 0.06862 0.0
O448 O 0.32873 0.43531 0.08626 0.0
N449 N 0.35895 0.47454 1.00022 0.0
C450 C 0.36803 0.45893 0.98815 0.0
C451 C 0.38735 0.46804 0.97956 0.0
C452 C 0.39689 0.49315 0.98311 0.0
C453 C 0.38711 0.50886 0.99542 0.0
C454 C 0.36801 0.49867 1.00381 0.0
H455 H 0.36064 0.43969 0.98516 0.0
O456 O 0.36053 0.43026 0.05594 0.0
O457 O 0.34398 0.45691 0.04062 0.0
O458 O 0.3239 0.40747 0.01795 0.0
O459 O 0.32266 0.43569 0.9933 0.0
C460 C 0.3957 0.5342 0.99997 0.0
C461 C 0.38527 0.54876 0.01306 0.0
H462 H 0.361 0.57076 0.03934 0.0
H463 H 0.32784 0.54911 0.05352 0.0
H464 H 0.39479 0.45577 0.97012 0.0
H465 H 0.41178 0.50013 0.97642 0.0
H466 H 0.41041 0.54264 0.99362 0.0
H467 H 0.39205 0.56821 0.01647 0.0
Mn468 Mn 0.784 0.22073 0.02452 0.0
Mn469 Mn 0.76489 0.17492 0.97939 0.0
C470 C 0.74628 0.20155 0.01366 0.0
C471 C 0.79473 0.23608 0.06591 0.0
C472 C 0.78117 0.22773 0.97172 0.0
O473 O 0.81197 0.2078 0.02075 0.0
O474 O 0.79574 0.17653 0.99237 0.0
C475 C 0.7667 0.13025 1.00178 0.0
N476 N 0.75475 0.14388 0.98957 0.0
C477 C 0.72347 0.1098 0.97933 0.0
C478 C 0.73538 0.09548 0.99201 0.0
C479 C 0.75704 0.10578 1.00338 0.0
C480 C 0.73381 0.13419 0.97872 0.0
H481 H 0.78363 0.13784 0.00973 0.0
C482 C 0.81255 0.18917 1.00667 0.0
O483 O 0.7999 0.24918 0.04938 0.0
O484 O 0.78497 0.21356 0.05861 0.0
N485 N 0.73499 0.17187 0.96518 0.0
C486 C 0.72627 0.18764 0.95231 0.0
C487 C 0.70482 0.18008 0.93956 0.0
C488 C 0.69268 0.15624 0.9398 0.0
C489 C 0.70205 0.14028 0.95303 0.0
C490 C 0.72336 0.14901 0.96578 0.0
H491 H 0.73561 0.20586 0.95171 0.0
O492 O 0.75263 0.22352 0.02439 0.0
O493 O 0.7619 0.19183 0.00892 0.0
O494 O 0.78555 0.23717 0.99324 0.0
O495 O 0.77417 0.20499 0.96587 0.0
C496 C 0.69131 0.11584 0.95352 0.0
C497 C 0.70203 0.1006 0.96662 0.0
H498 H 0.72818 0.07646 0.99285 0.0
H499 H 0.76643 0.09473 0.0129 0.0
H500 H 0.69777 0.19249 0.92931 0.0
H501 H 0.67628 0.15032 0.9296 0.0
H502 H 0.67493 0.1085 0.94362 0.0
H503 H 0.69373 0.08174 0.96655 0.0
Mn504 Mn 0.14698 0.49781 0.24434 0.0
Mn505 Mn 0.18733 0.51244 0.29203 0.0
C506 C 0.16218 0.53761 0.25955 0.0
C507 C 0.13492 0.49399 0.20429 0.0
C508 C 0.13939 0.49452 0.29449 0.0
O509 O 0.1587 0.46685 0.24526 0.0
O510 O 0.18592 0.47972 0.27682 0.0
C511 C 0.2263 0.51464 0.26919 0.0
N512 N 0.21497 0.52557 0.28315 0.0
C513 C 0.24459 0.56143 0.29249 0.0
C514 C 0.25654 0.55053 0.27818 0.0
C515 C 0.24732 0.52707 0.26642 0.0
C516 C 0.22363 0.54825 0.29438 0.0
H517 H 0.21942 0.49652 0.26037 0.0
C518 C 0.17513 0.46402 0.25971 0.0
O519 O 0.12218 0.48378 0.218 0.0
O520 O 0.15531 0.50332 0.21343 0.0
N521 N 0.19059 0.54427 0.3081 0.0
C522 C 0.1767 0.55262 0.32068 0.0
C523 C 0.18335 0.57598 0.33321 0.0
C524 C 0.20435 0.59039 0.33304 0.0
C525 C 0.21844 0.58137 0.32015 0.0
C526 C 0.21079 0.55807 0.30773 0.0
H527 H 0.16064 0.54166 0.32111 0.0
O528 O 0.14266 0.53182 0.24704 0.0
O529 O 0.17181 0.52006 0.26308 0.0
O530 O 0.1319 0.49137 0.27256 0.0
O531 O 0.15979 0.50028 0.30317 0.0
C532 C 0.23971 0.59467 0.31899 0.0
C533 C 0.2527 0.5848 0.30501 0.0
H534 H 0.27282 0.56 0.27613 0.0
H535 H 0.25647 0.5185 0.2554 0.0
H536 H 0.17234 0.5828 0.34308 0.0
H537 H 0.20945 0.60838 0.34276 0.0
H538 H 0.24611 0.61267 0.32851 0.0
H539 H 0.26889 0.59538 0.30395 0.0
Mn540 Mn 0.82764 0.92656 0.55031 0.0
Mn541 Mn 0.83082 0.97051 0.51379 0.0
C542 C 0.86264 0.94982 0.54538 0.0
C543 C 0.82217 0.91164 0.58752 0.0
C544 C 0.81683 0.91658 0.49715 0.0
O545 O 0.79631 0.93352 0.54397 0.0
O546 O 0.80485 0.96924 0.5287 0.0
C547 C 0.83788 0.0163 0.54497 0.0
N548 N 0.84478 1.00245 0.5288 0.0
C549 C 0.87343 0.0363 0.52382 0.0
C550 C 0.8666 0.05095 0.54041 0.0
C551 C 0.84883 0.04086 0.55113 0.0
C552 C 0.86207 0.01187 0.51863 0.0
H553 H 0.82394 0.00873 0.55284 0.0
C554 C 0.79163 0.95316 0.53716 0.0
O555 O 0.81756 0.89774 0.5678 0.0
O556 O 0.82987 0.93459 0.58587 0.0
N557 N 0.85543 0.97342 0.49788 0.0
C558 C 0.85902 0.95743 0.48094 0.0
C559 C 0.87605 0.96476 0.46836 0.0
C560 C 0.88892 0.98866 0.47284 0.0
C561 C 0.88467 1.00499 0.48995 0.0
C562 C 0.86764 0.99655 0.50218 0.0
H563 H 0.84893 0.93926 0.47676 0.0
O564 O 0.86075 0.92928 0.55428 0.0
O565 O 0.84434 0.95648 0.54054 0.0
O566 O 0.82325 0.90906 0.51656 0.0
O567 O 0.8162 0.93871 0.49557 0.0
C568 C 0.89634 0.02949 0.49493 0.0
C569 C 0.89073 0.04513 0.51186 0.0
H570 H 0.87477 0.07 0.54492 0.0
H571 H 0.84338 0.05209 0.56384 0.0
H572 H 0.879 0.95211 0.45496 0.0
H573 H 0.90186 0.99436 0.46286 0.0
H574 H 0.90951 0.03655 0.48566 0.0
H575 H 0.89968 0.064 0.51536 0.0
Mn576 Mn 0.9215 0.03873 0.20507 0.0
Mn577 Mn 0.88343 0.03193 0.23918 0.0
C578 C 0.90144 0.99985 0.20681 0.0
C579 C 0.93492 0.05093 0.17212 0.0
C580 C 0.93215 0.04693 0.25572 0.0
O581 O 0.91739 0.07308 0.21536 0.0
O582 O 0.8832 0.06042 0.22216 0.0
C583 C 0.84006 0.02449 0.20896 0.0
N584 N 0.85392 0.01649 0.22515 0.0
C585 C 0.82414 0.98614 0.23394 0.0
C586 C 0.80958 0.99392 0.2172 0.0
C587 C 0.8176 0.01308 0.20456 0.0
C588 C 0.84639 0.99797 0.23733 0.0
H589 H 0.84606 0.03982 0.19987 0.0
C590 C 0.89995 0.0774 0.22158 0.0
O591 O 0.94749 0.05291 0.19219 0.0
O592 O 0.91396 0.04186 0.17079 0.0
N593 N 0.88262 1.00401 0.25594 0.0
C594 C 0.89884 0.99828 0.2712 0.0
C595 C 0.89365 0.979 0.28464 0.0
C596 C 0.87176 0.96618 0.28279 0.0
C597 C 0.85533 0.97242 0.26709 0.0
C598 C 0.86159 0.99134 0.2536 0.0
H599 H 0.91563 0.00829 0.27332 0.0
O600 O 0.91941 1.0029 0.19807 0.0
O601 O 0.89494 0.01929 0.21237 0.0
O602 O 0.93708 0.03773 0.23742 0.0
O603 O 0.91273 0.04851 0.25727 0.0
C604 C 0.83298 0.96058 0.26427 0.0
C605 C 0.8174 0.96741 0.24769 0.0
H606 H 0.79219 0.98544 0.21403 0.0
H607 H 0.80641 0.01936 0.19181 0.0
H608 H 0.90646 0.97427 0.29667 0.0
H609 H 0.86776 0.95152 0.29343 0.0
H610 H 0.82763 0.94603 0.2746 0.0
H611 H 0.80027 0.95809 0.24562 0.0
Mn612 Mn 0.28355 0.71912 0.52553 0.0
Mn613 Mn 0.26664 0.67357 0.47985 0.0
C614 C 0.24637 0.69808 0.51497 0.0
C615 C 0.29385 0.73472 0.56699 0.0
C616 C 0.28142 0.72698 0.4732 0.0
O617 O 0.31221 0.70783 0.52171 0.0
O618 O 0.29756 0.67513 0.49405 0.0
C619 C 0.26787 0.6271 0.4993 0.0
N620 N 0.25638 0.64132 0.48743 0.0
C621 C 0.22594 0.60693 0.47332 0.0
C622 C 0.23753 0.59196 0.48541 0.0
C623 C 0.25853 0.60213 0.49859 0.0
C624 C 0.23609 0.63168 0.47475 0.0
H625 H 0.2841 0.63475 0.50896 0.0
C626 C 0.31368 0.68886 0.50868 0.0
O627 O 0.29808 0.74802 0.55033 0.0
O628 O 0.28534 0.71187 0.55979 0.0
N629 N 0.23688 0.6708 0.46518 0.0
C630 C 0.22753 0.688 0.45548 0.0
C631 C 0.20608 0.68113 0.44263 0.0
C632 C 0.19455 0.65663 0.43972 0.0
C633 C 0.20439 0.63935 0.45022 0.0
C634 C 0.22566 0.64739 0.4632 0.0
H635 H 0.23639 0.7068 0.45747 0.0
O636 O 0.25196 0.72021 0.52539 0.0
O637 O 0.26246 0.68916 0.50987 0.0
O638 O 0.28438 0.73625 0.49461 0.0
O639 O 0.27598 0.70422 0.46737 0.0
C640 C 0.19399 0.61446 0.44828 0.0
C641 C 0.20481 0.59823 0.45972 0.0
H642 H 0.23049 0.57265 0.48469 0.0
H643 H 0.26762 0.59066 0.50789 0.0
H644 H 0.19855 0.69463 0.43475 0.0
H645 H 0.17812 0.65132 0.42952 0.0
H646 H 0.17768 0.60761 0.43805 0.0
H647 H 0.19667 0.57912 0.45806 0.0
Mn648 Mn 0.42233 0.53766 0.70754 0.0
Mn649 Mn 0.38333 0.53082 0.74081 0.0
C650 C 0.40266 0.49897 0.70969 0.0
C651 C 0.43591 0.54892 0.67437 0.0
C652 C 0.43195 0.54699 0.75863 0.0
O653 O 0.41723 0.5716 0.71597 0.0
O654 O 0.38353 0.56052 0.72551 0.0
C655 C 0.34098 0.52383 0.70875 0.0
N656 N 0.35421 0.51555 0.72537 0.0
C657 C 0.32412 0.48382 0.7313 0.0
C658 C 0.31019 0.49188 0.7141 0.0
C659 C 0.31869 0.51189 0.7027 0.0
C660 C 0.34624 0.49622 0.73634 0.0
H661 H 0.34735 0.53969 0.70053 0.0
C662 C 0.39977 0.57649 0.72152 0.0
O663 O 0.44839 0.55183 0.69463 0.0
O664 O 0.41504 0.5394 0.67299 0.0
N665 N 0.38189 0.50233 0.75671 0.0
C666 C 0.39753 0.49673 0.7728 0.0
C667 C 0.39181 0.47694 0.78551 0.0
C668 C 0.36995 0.46353 0.78206 0.0
C669 C 0.35411 0.4697 0.76554 0.0
C670 C 0.36089 0.48927 0.753 0.0
H671 H 0.41422 0.50732 0.77612 0.0
O672 O 0.42107 0.50207 0.7018 0.0
O673 O 0.3957 0.51834 0.71451 0.0
O674 O 0.43761 0.53837 0.74048 0.0
O675 O 0.41214 0.54715 0.75985 0.0
C676 C 0.33185 0.4572 0.76102 0.0
C677 C 0.31688 0.46419 0.74385 0.0
H678 H 0.29292 0.48295 0.70963 0.0
H679 H 0.30798 0.51836 0.68958 0.0
H680 H 0.40415 0.4723 0.79822 0.0
H681 H 0.36554 0.44849 0.79216 0.0
H682 H 0.3261 0.44206 0.77052 0.0
H683 H 0.29983 0.45435 0.74045 0.0
Mn684 Mn 0.64772 0.99534 0.74256 0.0
Mn685 Mn 0.68475 0.01169 0.79304 0.0
C686 C 0.66381 0.03515 0.75556 0.0
C687 C 0.63601 0.98959 0.70232 0.0
C688 C 0.63615 0.99779 0.79142 0.0
O689 O 0.65837 0.96407 0.74659 0.0
O690 O 0.68053 0.977 0.78184 0.0
C691 C 0.72499 1.00454 0.7762 0.0
N692 N 0.71408 0.01924 0.78681 0.0
C693 C 0.74694 0.05132 0.79735 0.0
C694 C 0.75849 0.0365 0.78654 0.0
C695 C 0.74744 0.01307 0.77581 0.0
C696 C 0.72455 0.04193 0.797 0.0
H697 H 0.7167 0.98636 0.76831 0.0
C698 C 0.6716 0.96078 0.76444 0.0
O699 O 0.62323 0.98059 0.71647 0.0
O700 O 0.65658 0.99844 0.71127 0.0
N701 N 0.69058 0.04526 0.80549 0.0
C702 C 0.67693 0.05765 0.81443 0.0
C703 C 0.68525 0.08175 0.8249 0.0
C704 C 0.70763 0.0927 0.82658 0.0
C705 C 0.72142 0.07951 0.81755 0.0
C706 C 0.7121 0.0557 0.8069 0.0
H707 H 0.65981 0.04923 0.81359 0.0
O708 O 0.64444 0.0294 0.74269 0.0
O709 O 0.67286 0.01764 0.76143 0.0
O710 O 0.63066 0.99118 0.76955 0.0
O711 O 0.65584 0.00546 0.8019 0.0
C712 C 0.74405 0.08905 0.8187 0.0
C713 C 0.75679 0.07499 0.80855 0.0
H714 H 0.77585 0.04293 0.78636 0.0
H715 H 0.75626 1.0015 0.76748 0.0
H716 H 0.67449 0.09178 0.83187 0.0
H717 H 0.71403 0.11124 0.83482 0.0
H718 H 0.75176 0.10732 0.82702 0.0
H719 H 0.77413 0.08265 0.80929 0.0
Mn720 Mn 0.77953 0.72888 0.02251 0.0
Mn721 Mn 0.77037 0.68221 0.9798 0.0
C722 C 0.74344 0.70464 0.00968 0.0
C723 C 0.78653 0.7444 0.06284 0.0
C724 C 0.78221 0.73556 0.97036 0.0
O725 O 0.80997 0.72122 0.02412 0.0
O726 O 0.80126 0.68785 0.99727 0.0
C727 C 0.77477 0.63961 1.00494 0.0
N728 N 0.76233 0.65094 0.99038 0.0
C729 C 0.73269 0.61508 0.98213 0.0
C730 C 0.74515 0.60312 0.99718 0.0
C731 C 0.76629 0.61544 0.00862 0.0
C732 C 0.74214 0.63905 0.97889 0.0
H733 H 0.79111 0.64882 0.01343 0.0
C734 C 0.81481 0.70304 0.01335 0.0
O735 O 0.79109 0.75834 0.04671 0.0
O736 O 0.77875 0.72148 0.05567 0.0
N737 N 0.74096 0.67518 0.96298 0.0
C738 C 0.73018 0.69029 0.95145 0.0
C739 C 0.70835 0.68133 0.94015 0.0
C740 C 0.69776 0.657 0.94105 0.0
C741 C 0.70897 0.64203 0.95368 0.0
C742 C 0.73071 0.65202 0.96461 0.0
H743 H 0.73802 0.70916 0.95138 0.0
O744 O 0.74694 0.7272 0.01854 0.0
O745 O 0.76125 0.69754 1.00706 0.0
O746 O 0.78272 0.74493 0.99132 0.0
O747 O 0.77812 0.7126 0.96495 0.0
C748 C 0.69923 0.61782 0.95641 0.0
C749 C 0.71114 0.6043 0.9705 0.0
H750 H 0.73861 0.58451 1.00015 0.0
H751 H 0.77607 0.60629 0.02015 0.0
H752 H 0.69966 0.69319 0.93096 0.0
H753 H 0.68087 0.65018 0.93242 0.0
H754 H 0.68249 0.60954 0.94803 0.0
H755 H 0.70341 0.58577 0.97264 0.0
Mn756 Mn 0.95857 0.65939 0.81516 0.0
Mn757 Mn 0.92367 0.64745 0.85305 0.0
C758 C 0.94431 0.62026 0.82149 0.0
C759 C 0.9666 0.65947 0.77789 0.0
C760 C 0.9726 0.66574 0.86805 0.0
O761 O 0.94642 0.6898 0.81622 0.0
O762 O 0.92471 0.68036 0.84327 0.0
C763 C 0.88175 0.64708 0.8221 0.0
N764 N 0.89432 0.63546 0.83623 0.0
C765 C 0.8651 0.59924 0.83046 0.0
C766 C 0.85183 0.61094 0.81605 0.0
C767 C 0.86022 0.63494 0.81182 0.0
C768 C 0.88638 0.61234 0.84043 0.0
H769 H 0.88805 0.66543 0.8186 0.0
C770 C 0.93222 0.69417 0.82845 0.0
O771 O 0.98089 0.67151 0.7957 0.0
O772 O 0.94681 0.65093 0.78137 0.0
N773 N 0.92094 0.61544 0.8625 0.0
C774 C 0.93623 0.6062 0.87565 0.0
C775 C 0.93074 0.58199 0.88058 0.0
C776 C 0.90957 0.56755 0.87202 0.0
C777 C 0.89411 0.57743 0.85852 0.0
C778 C 0.90051 0.6017 0.8542 0.0
H779 H 0.95253 0.61714 0.88227 0.0
O780 O 0.96353 0.62596 0.8156 0.0
O781 O 0.93512 0.63807 0.82549 0.0
O782 O 0.97712 0.66883 0.84778 0.0
O783 O 0.95319 0.6585 0.87204 0.0
C784 C 0.87268 0.56404 0.84894 0.0
C785 C 0.85817 0.57496 0.83497 0.0
H786 H 0.83525 0.60159 0.80798 0.0
H787 H 0.85012 0.64405 0.80061 0.0
H788 H 0.9428 0.57449 0.89095 0.0
H789 H 0.90541 0.54886 0.87581 0.0
H790 H 0.86725 0.54526 0.85204 0.0
H791 H 0.8418 0.5644 0.82753 0.0
Mn792 Mn 0.82862 0.43168 0.54587 0.0
Mn793 Mn 0.83552 0.47896 0.51343 0.0
C794 C 0.86387 0.45238 0.54197 0.0
C795 C 0.82572 0.41646 0.58241 0.0
C796 C 0.8202 0.426 0.49116 0.0
O797 O 0.7992 0.44233 0.54441 0.0
O798 O 0.80706 0.47504 0.52477 0.0
C799 C 0.83882 0.51993 0.54983 0.0
N800 N 0.84748 0.50917 0.53293 0.0
C801 C 0.8784 0.54353 0.53753 0.0
C802 C 0.86974 0.55503 0.55487 0.0
C803 C 0.84991 0.54314 0.5611 0.0
C804 C 0.8666 0.52043 0.52687 0.0
H805 H 0.82353 0.51092 0.5546 0.0
C806 C 0.79455 0.46132 0.53617 0.0
O807 O 0.81812 0.40267 0.56268 0.0
O808 O 0.83442 0.43908 0.58105 0.0
N809 N 0.86262 0.48506 0.50181 0.0
C810 C 0.86954 0.4708 0.48595 0.0
C811 C 0.88946 0.47969 0.4784 0.0
C812 C 0.90198 0.50322 0.48706 0.0
C813 C 0.89455 0.51755 0.50339 0.0
C814 C 0.87454 0.50772 0.51027 0.0
H815 H 0.86009 0.45268 0.47927 0.0
O816 O 0.86033 0.43022 0.54733 0.0
O817 O 0.84676 0.4615 0.53861 0.0
O818 O 0.82109 0.4162 0.51042 0.0
O819 O 0.82392 0.44905 0.49102 0.0
C820 C 0.90647 0.54098 0.51353 0.0
C821 C 0.89843 0.55394 0.53062 0.0
H822 H 0.87825 0.57291 0.56362 0.0
H823 H 0.84315 0.55188 0.57451 0.0
H824 H 0.8952 0.4684 0.46601 0.0
H825 H 0.91745 0.50994 0.48135 0.0
H826 H 0.92203 0.54903 0.50862 0.0
H827 H 0.9079 0.57179 0.53854 0.0
Mn828 Mn 0.68593 0.60784 0.34968 0.0
Mn829 Mn 0.7273 0.61964 0.39475 0.0
C830 C 0.70504 0.64755 0.35977 0.0
C831 C 0.67223 0.59565 0.31117 0.0
C832 C 0.67932 0.60364 0.39847 0.0
O833 O 0.69311 0.57517 0.3542 0.0
O834 O 0.72651 0.58784 0.37701 0.0
C835 C 0.76872 0.6228 0.37636 0.0
N836 N 0.75555 0.63375 0.38779 0.0
C837 C 0.78377 0.67081 0.39743 0.0
C838 C 0.79731 0.66015 0.38509 0.0
C839 C 0.78977 0.63599 0.37459 0.0
C840 C 0.76293 0.65675 0.3986 0.0
H841 H 0.76339 0.60403 0.369 0.0
C842 C 0.71193 0.57201 0.36252 0.0
O843 O 0.65973 0.59221 0.32686 0.0
O844 O 0.69293 0.60589 0.31776 0.0
N845 N 0.72922 0.65098 0.41117 0.0
C846 C 0.714 0.65895 0.42192 0.0
C847 C 0.71891 0.68291 0.43296 0.0
C848 C 0.73944 0.69845 0.43295 0.0
C849 C 0.75479 0.68996 0.42164 0.0
C850 C 0.74889 0.66597 0.4107 0.0
H851 H 0.69819 0.64722 0.42209 0.0
O852 O 0.68503 0.64238 0.3483 0.0
O853 O 0.7129 0.62898 0.36549 0.0
O854 O 0.67195 0.60765 0.37814 0.0
O855 O 0.69958 0.605 0.40576 0.0
C856 C 0.77568 0.70443 0.42068 0.0
C857 C 0.7902 0.69483 0.40868 0.0
H858 H 0.81359 0.67024 0.38376 0.0
H859 H 0.80025 0.62745 0.36539 0.0
H860 H 0.7069 0.68938 0.44151 0.0
H861 H 0.7432 0.71689 0.44157 0.0
H862 H 0.78074 0.72299 0.42912 0.0
H863 H 0.80624 0.7061 0.40812 0.0
Pr864 Pr 0.02796 0.063 0.01733 0.0
Pr865 Pr 0.07916 0.0849 0.04324 0.0
C866 C 0.98454 0.06109 0.00773 0.0
C867 C 0.96995 0.07855 1.00556 0.0
C868 C 0.95708 0.07986 0.98394 0.0
C869 C 0.94215 0.09498 0.98235 0.0
C870 C 0.93958 0.1091 1.00242 0.0
C871 C 0.95285 0.10804 0.0239 0.0
C872 C 0.96781 0.09313 0.02544 0.0
C873 C 0.05986 0.06255 0.99033 0.0
C874 C 0.0536 0.12381 0.01874 0.0
C875 C 0.12251 0.08577 0.0533 0.0
C876 C 0.1371 0.0683 0.05645 0.0
C877 C 0.15617 0.07407 0.07372 0.0
C878 C 0.17162 0.05951 0.07467 0.0
C879 C 0.16846 0.03882 0.05825 0.0
C880 C 0.14864 0.0323 0.04193 0.0
C881 C 0.13323 0.04678 0.04104 0.0
C882 C 0.04689 0.08417 0.07057 0.0
C883 C 0.05437 0.02427 0.04048 0.0
O884 O 0.99527 0.06055 0.02873 0.0
O885 O 0.99608 0.05843 0.99119 0.0
O886 O 0.05974 0.07883 1.0062 0.0
O887 O 0.04158 0.04557 0.98607 0.0
O888 O 0.07317 0.12084 0.02825 0.0
O889 O 0.03551 0.10593 0.01542 0.0
O890 O 0.11184 0.08552 0.03206 0.0
O891 O 0.11094 0.08929 0.0696 0.0
O892 O 0.04725 0.06847 0.05432 0.0
O893 O 0.06513 0.1012 0.07499 0.0
O894 O 0.03449 0.02714 0.03202 0.0
O895 O 0.07223 0.04215 0.04273 0.0
H896 H 0.9583 0.0689 0.96829 0.0
H897 H 0.93255 0.09546 0.96538 0.0
H898 H 0.95124 0.11813 0.03988 0.0
H899 H 0.97734 0.09266 0.04247 0.0
H900 H 0.15957 0.09043 0.08594 0.0
H901 H 0.18656 0.06519 0.08754 0.0
H902 H 0.14521 0.0162 0.02938 0.0
H903 H 0.11858 0.0415 0.02772 0.0
Pr904 Pr 0.31085 0.85172 0.2943 0.0
Pr905 Pr 0.30377 0.80306 0.26824 0.0
C906 C 0.33205 0.89597 0.31476 0.0
C907 C 0.34032 0.91823 0.30482 0.0
C908 C 0.32592 0.92964 0.29157 0.0
C909 C 0.33419 0.94961 0.2805 0.0
C910 C 0.35694 0.95839 0.28257 0.0
C911 C 0.37128 0.94639 0.29521 0.0
C912 C 0.36303 0.92655 0.30634 0.0
C913 C 0.26799 0.83742 0.26819 0.0
C914 C 0.32027 0.8488 0.23874 0.0
C915 C 0.28401 0.75914 0.24635 0.0
C916 C 0.27865 0.73619 0.25664 0.0
C917 C 0.29311 0.72056 0.25854 0.0
C918 C 0.28785 0.69925 0.26908 0.0
C919 C 0.26806 0.69333 0.27771 0.0
C920 C 0.25437 0.70972 0.27696 0.0
C921 C 0.2595 0.73074 0.2664 0.0
C922 C 0.34522 0.81056 0.2967 0.0
C923 C 0.29612 0.80658 0.32425 0.0
O924 O 0.342 0.87869 0.31035 0.0
O925 O 0.31071 0.88832 0.31261 0.0
O926 O 0.2852 0.83377 0.26115 0.0
O927 O 0.27286 0.84836 0.28959 0.0
O928 O 0.31505 0.82489 0.23797 0.0
O929 O 0.32025 0.8629 0.25802 0.0
O930 O 0.27315 0.77527 0.25203 0.0
O931 O 0.30486 0.76852 0.24655 0.0
O932 O 0.3329 0.82529 0.29583 0.0
O933 O 0.33718 0.79214 0.28082 0.0
O934 O 0.30526 0.82987 0.32582 0.0
O935 O 0.29105 0.79305 0.30364 0.0
H936 H 0.3083 0.9232 0.28973 0.0
H937 H 0.32284 0.95861 0.27089 0.0
H938 H 0.38892 0.95305 0.29757 0.0
H939 H 0.37441 0.91769 0.31615 0.0
H940 H 0.30822 0.72457 0.25156 0.0
H941 H 0.29866 0.68685 0.26945 0.0
H942 H 0.23874 0.70556 0.2829 0.0
H943 H 0.24809 0.74246 0.26551 0.0
Pr944 Pr 0.57907 0.08146 0.53279 0.0
Pr945 Pr 0.53075 0.07763 0.5376 0.0
C946 C 0.61931 0.07496 0.52855 0.0
C947 C 0.63206 0.05658 0.52429 0.0
C948 C 0.64692 0.06069 0.50866 0.0
C949 C 0.66104 0.04526 0.50604 0.0
C950 C 0.66067 0.0253 0.51906 0.0
C951 C 0.64488 0.02038 0.53373 0.0
C952 C 0.6307 0.03589 0.53635 0.0
C953 C 0.5555 0.10206 0.49894 0.0
C954 C 0.54167 0.02884 0.51584 0.0
C955 C 0.49012 0.08506 0.53851 0.0
C956 C 0.47729 0.10373 0.542 0.0
C957 C 0.46508 0.10275 0.56027 0.0
C958 C 0.45045 0.11781 0.56208 0.0
C959 C 0.44737 0.13414 0.54548 0.0
C960 C 0.46053 0.13603 0.52791 0.0
C961 C 0.4753 0.12103 0.52619 0.0
C962 C 0.55475 0.05819 0.57254 0.0
C963 C 0.56817 0.12946 0.55755 0.0
O964 O 0.61269 0.077 0.54875 0.0
O965 O 0.60517 0.07815 0.5109 0.0
O966 O 0.54827 0.08173 0.50585 0.0
O967 O 0.57546 0.11212 0.50915 0.0
O968 O 0.5258 0.04053 0.51495 0.0
O969 O 0.56228 0.03962 0.52472 0.0
O970 O 0.49848 0.08372 0.51932 0.0
O971 O 0.5026 0.08036 0.55684 0.0
O972 O 0.56184 0.07794 0.56457 0.0
O973 O 0.53436 0.0485 0.56337 0.0
O974 O 0.58441 0.11858 0.55604 0.0
O975 O 0.54751 0.11859 0.54927 0.0
H976 H 0.64814 0.0764 0.49901 0.0
H977 H 0.67276 0.04939 0.49433 0.0
H978 H 0.64424 0.00528 0.54412 0.0
H979 H 0.61923 0.03217 0.54837 0.0
H980 H 0.4663 0.08969 0.57277 0.0
H981 H 0.44114 0.11616 0.57625 0.0
H982 H 0.45869 0.14822 0.51471 0.0
H983 H 0.48452 0.12238 0.51194 0.0
Pr984 Pr 0.27581 0.32648 0.77773 0.0
Pr985 Pr 0.32436 0.3225 0.78491 0.0
C986 C 0.23417 0.32641 0.78216 0.0
C987 C 0.2215 0.33182 0.8005 0.0
C988 C 0.21294 0.35266 0.80034 0.0
C989 C 0.19923 0.357 0.81602 0.0
C990 C 0.19334 0.34034 0.832 0.0
C991 C 0.20286 0.32014 0.83299 0.0
C992 C 0.21682 0.31594 0.81743 0.0
C993 C 0.30427 0.36453 0.76367 0.0
C994 C 0.30796 0.34292 0.83135 0.0
C995 C 0.36617 0.32163 0.78207 0.0
C996 C 0.38051 0.31858 0.7649 0.0
C997 C 0.39529 0.30366 0.76922 0.0
C998 C 0.41083 0.30249 0.75479 0.0
C999 C 0.41189 0.31628 0.73573 0.0
C1000 C 0.39609 0.33001 0.73058 0.0
C1001 C 0.38054 0.33118 0.74505 0.0
C1002 C 0.29532 0.28461 0.79843 0.0
C1003 C 0.29282 0.30628 0.73131 0.0
O1004 O 0.24193 0.30681 0.78264 0.0
O1005 O 0.24756 0.34496 0.7761 0.0
O1006 O 0.30857 0.35492 0.78219 0.0
O1007 O 0.28433 0.3556 0.75268 0.0
O1008 O 0.32565 0.34278 0.82195 0.0
O1009 O 0.288 0.3356 0.81868 0.0
O1010 O 0.3592 0.34172 0.7833 0.0
O1011 O 0.35146 0.30235 0.78458 0.0
O1012 O 0.29151 0.29412 0.77985 0.0
O1013 O 0.315 0.29346 0.81005 0.0
O1014 O 0.27493 0.30628 0.74048 0.0
O1015 O 0.31269 0.3141 0.74406 0.0
H1016 H 0.21638 0.36532 0.78761 0.0
H1017 H 0.1927 0.37309 0.81508 0.0
H1018 H 0.19865 0.30682 0.8449 0.0
H1019 H 0.22329 0.2998 0.81817 0.0
H1020 H 0.39536 0.29359 0.78432 0.0
H1021 H 0.42272 0.29177 0.75934 0.0
H1022 H 0.39609 0.34037 0.7157 0.0
H1023 H 0.36901 0.34247 0.74109 0.0
Pr1024 Pr 0.05301 0.06499 0.51276 0.0
Pr1025 Pr 0.05276 0.08996 0.55196 0.0
C1026 C 0.0414 0.04248 0.46933 0.0
C1027 C 0.03624 0.05274 0.44748 0.0
C1028 C 0.05225 0.05852 0.43336 0.0
C1029 C 0.04765 0.06923 0.41307 0.0
C1030 C 0.0269 0.07396 0.40655 0.0
C1031 C 0.01122 0.06918 0.4212 0.0
C1032 C 0.01583 0.05861 0.44149 0.0
C1033 C 0.09594 0.09444 0.52694 0.0
C1034 C 0.04081 0.11939 0.50858 0.0
C1035 C 0.06085 0.11198 0.59573 0.0
C1036 C 0.06985 0.10302 0.61687 0.0
C1037 C 0.06077 0.10515 0.6372 0.0
C1038 C 0.06941 0.09615 0.65725 0.0
C1039 C 0.08702 0.08495 0.65681 0.0
C1040 C 0.095 0.08138 0.63602 0.0
C1041 C 0.08659 0.0905 0.6162 0.0
C1042 C 0.01022 0.05997 0.53606 0.0
C1043 C 0.06561 0.036 0.5557 0.0
O1044 O 0.02746 0.04278 0.48364 0.0
O1045 O 0.06189 0.04882 0.47985 0.0
O1046 O 0.07834 0.10162 0.5275 0.0
O1047 O 0.09149 0.07104 0.52106 0.0
O1048 O 0.04623 0.12204 0.53143 0.0
O1049 O 0.04032 0.09826 0.49695 0.0
O1050 O 0.07431 0.11722 0.581 0.0
O1051 O 0.04138 0.09959 0.58572 0.0
O1052 O 0.02809 0.05329 0.53732 0.0
O1053 O 0.01418 0.08332 0.54172 0.0
O1054 O 0.05739 0.03242 0.53336 0.0
O1055 O 0.06867 0.05807 0.56677 0.0
H1056 H 0.06822 0.05455 0.43786 0.0
H1057 H 0.05994 0.07283 0.40195 0.0
H1058 H 0.99493 0.07221 0.41631 0.0
H1059 H 1.00321 0.0547 0.4522 0.0
H1060 H 0.04745 0.11421 0.63767 0.0
H1061 H 0.06324 0.09915 0.67335 0.0
H1062 H 0.10858 0.07269 0.63551 0.0
H1063 H 0.09361 0.08825 0.60056 0.0
Pr1064 Pr 0.29563 0.79818 0.7884 0.0
Pr1065 Pr 0.30912 0.8504 0.77544 0.0
C1066 C 0.29207 0.75051 0.79137 0.0
C1067 C 0.30744 0.73545 0.78751 0.0
C1068 C 0.30629 0.71349 0.7973 0.0
C1069 C 0.32135 0.69947 0.79369 0.0
C1070 C 0.33761 0.70745 0.78029 0.0
C1071 C 0.33945 0.73014 0.77174 0.0
C1072 C 0.32447 0.74403 0.77531 0.0
C1073 C 0.2956 0.82932 0.82905 0.0
C1074 C 0.34859 0.82671 0.79842 0.0
C1075 C 0.31275 0.89835 0.77329 0.0
C1076 C 0.29849 0.91505 0.77658 0.0
C1077 C 0.30177 0.93685 0.7664 0.0
C1078 C 0.28854 0.95311 0.76959 0.0
C1079 C 0.27169 0.94762 0.7828 0.0
C1080 C 0.26764 0.92517 0.79194 0.0
C1081 C 0.281 0.90897 0.78888 0.0
C1082 C 0.30857 0.81908 0.73429 0.0
C1083 C 0.25649 0.82218 0.76586 0.0
O1084 O 0.28301 0.75875 0.77284 0.0
O1085 O 0.29919 0.76707 0.80938 0.0
O1086 O 0.30029 0.83639 0.80978 0.0
O1087 O 0.2883 0.80596 0.82631 0.0
O1088 O 0.34327 0.84752 0.79502 0.0
O1089 O 0.33401 0.80574 0.79312 0.0
O1090 O 0.32099 0.88964 0.79193 0.0
O1091 O 0.30563 0.88202 0.75509 0.0
O1092 O 0.30405 0.81193 0.75365 0.0
O1093 O 0.31527 0.84254 0.73702 0.0
O1094 O 0.26184 0.80125 0.76824 0.0
O1095 O 0.27093 0.84314 0.7717 0.0
H1096 H 0.29356 0.70703 0.80733 0.0
H1097 H 0.31967 0.68196 0.80037 0.0
H1098 H 0.35205 0.73669 0.76157 0.0
H1099 H 0.32594 0.76129 0.76817 0.0
H1100 H 0.31486 0.9415 0.75638 0.0
H1101 H 0.2919 0.97034 0.7624 0.0
H1102 H 0.25491 0.92074 0.80244 0.0
H1103 H 0.27799 0.89197 0.7965 0.0
Pr1104 Pr 0.56203 0.07352 0.05951 0.0
Pr1105 Pr 0.54859 0.08891 0.00999 0.0
C1106 C 0.56675 0.07017 0.10572 0.0
C1107 C 0.55253 0.0731 0.12279 0.0
C1108 C 0.55305 0.06012 0.1423 0.0
C1109 C 0.53924 0.06255 0.15844 0.0
C1110 C 0.52474 0.07804 0.15523 0.0
C1111 C 0.52352 0.09003 0.13495 0.0
C1112 C 0.53725 0.0875 0.11881 0.0
C1113 C 0.55847 0.03248 0.02655 0.0
C1114 C 0.50913 0.06256 0.03603 0.0
C1115 C 0.54331 0.09334 0.96392 0.0
C1116 C 0.55714 0.09243 0.94613 0.0
C1117 C 0.55219 0.10201 0.92502 0.0
C1118 C 0.56383 0.09885 0.90696 0.0
C1119 C 0.58053 0.08621 0.91004 0.0
C1120 C 0.58683 0.07865 0.93193 0.0
C1121 C 0.57518 0.08177 0.94996 0.0
C1122 C 0.55095 0.1297 0.04269 0.0
C1123 C 0.60184 0.09757 0.0324 0.0
O1124 O 0.57571 0.08984 0.09707 0.0
O1125 O 0.55887 0.0514 0.08992 0.0
O1126 O 0.55531 0.05307 0.02171 0.0
O1127 O 0.56498 0.03355 0.0489 0.0
O1128 O 0.51447 0.06697 0.01547 0.0
O1129 O 0.52376 0.068 0.05556 0.0
O1130 O 0.53602 0.07285 0.9722 0.0
O1131 O 0.55035 0.11186 0.98007 0.0
O1132 O 0.55469 0.10942 0.04801 0.0
O1133 O 0.54395 0.12795 0.0204 0.0
O1134 O 0.597 0.09256 0.05307 0.0
O1135 O 0.58657 0.09423 0.01353 0.0
H1136 H 0.5643 0.04831 0.14517 0.0
H1137 H 0.54028 0.05278 0.1737 0.0
H1138 H 0.51271 0.10229 0.13205 0.0
H1139 H 0.53619 0.09712 0.10343 0.0
H1140 H 0.53859 0.11075 0.9221 0.0
H1141 H 0.55863 0.10445 0.89002 0.0
H1142 H 0.59951 0.06855 0.93439 0.0
H1143 H 0.57947 0.0747 0.96639 0.0
Pr1144 Pr 0.27754 0.30702 0.27294 0.0
Pr1145 Pr 0.32773 0.34531 0.28888 0.0
C1146 C 0.23511 0.28605 0.27369 0.0
C1147 C 0.2171 0.29077 0.2857 0.0
C1148 C 0.1963 0.28912 0.27234 0.0
C1149 C 0.17903 0.29388 0.28298 0.0
C1150 C 0.18203 0.30036 0.30738 0.0
C1151 C 0.20305 0.30233 0.32068 0.0
C1152 C 0.22038 0.29769 0.30997 0.0
C1153 C 0.29341 0.32995 0.2345 0.0
C1154 C 0.28375 0.36509 0.28992 0.0
C1155 C 0.36918 0.36846 0.28646 0.0
C1156 C 0.38802 0.36219 0.27695 0.0
C1157 C 0.40878 0.36661 0.29136 0.0
C1158 C 0.42704 0.36226 0.28224 0.0
C1159 C 0.42485 0.35361 0.25848 0.0
C1160 C 0.40394 0.3482 0.24436 0.0
C1161 C 0.38569 0.35225 0.2535 0.0
C1162 C 0.31218 0.3235 0.32779 0.0
C1163 C 0.32123 0.28527 0.27339 0.0
O1164 O 0.25155 0.27925 0.28582 0.0
O1165 O 0.24129 0.3013 0.25892 0.0
O1166 O 0.30254 0.33184 0.25565 0.0
O1167 O 0.27488 0.31395 0.23224 0.0
O1168 O 0.30417 0.37204 0.28617 0.0
O1169 O 0.27565 0.34275 0.29431 0.0
O1170 O 0.35205 0.37011 0.27142 0.0
O1171 O 0.3639 0.35819 0.30479 0.0
O1172 O 0.30255 0.32092 0.30666 0.0
O1173 O 0.33081 0.33927 0.32944 0.0
O1174 O 0.30008 0.27938 0.27494 0.0
O1175 O 0.3324 0.30788 0.27306 0.0
H1176 H 0.19341 0.2842 0.25353 0.0
H1177 H 0.16334 0.29266 0.27196 0.0
H1178 H 0.20608 0.30701 0.3395 0.0
H1179 H 0.23629 0.29943 0.32071 0.0
H1180 H 0.41099 0.37404 0.30955 0.0
H1181 H 0.443 0.3667 0.29345 0.0
H1182 H 0.40185 0.3414 0.226 0.0
H1183 H 0.36989 0.34817 0.24201 0.0
Pr1184 Pr 0.55356 0.56517 0.0125 0.0
Pr1185 Pr 0.55411 0.58977 0.0517 0.0
C1186 C 0.54168 0.54182 0.96921 0.0
C1187 C 0.53663 0.55083 0.94663 0.0
C1188 C 0.55345 0.56079 0.9346 0.0
C1189 C 0.54858 0.57152 0.91435 0.0
C1190 C 0.5269 0.57251 0.90606 0.0
C1191 C 0.51011 0.5625 0.91804 0.0
C1192 C 0.5149 0.5516 0.93805 0.0
C1193 C 0.59657 0.59471 0.02593 0.0
C1194 C 0.54178 0.61994 0.00873 0.0
C1195 C 0.56386 0.61137 0.09557 0.0
C1196 C 0.56965 0.6007 0.11701 0.0
C1197 C 0.55535 0.59784 0.13325 0.0
C1198 C 0.56053 0.58705 0.15338 0.0
C1199 C 0.58022 0.57937 0.15759 0.0
C1200 C 0.59384 0.58093 0.14064 0.0
C1201 C 0.58859 0.59147 0.12049 0.0
C1202 C 0.51136 0.55988 0.03748 0.0
C1203 C 0.56589 0.53522 0.05555 0.0
O1204 O 0.52777 0.54354 0.9833 0.0
O1205 O 0.56213 0.54804 0.97982 0.0
O1206 O 0.579 0.60181 0.02674 0.0
O1207 O 0.59212 0.57132 0.02009 0.0
O1208 O 0.54788 0.62241 0.03153 0.0
O1209 O 0.54068 0.59866 0.99693 0.0
O1210 O 0.57815 0.61344 0.08144 0.0
O1211 O 0.54363 0.6033 0.08476 0.0
O1212 O 0.52912 0.55306 0.03763 0.0
O1213 O 0.51548 0.58333 0.04264 0.0
O1214 O 0.55859 0.53257 0.03297 0.0
O1215 O 0.56838 0.55691 0.06721 0.0
H1216 H 0.57036 0.56047 0.94089 0.0
H1217 H 0.56165 0.57884 0.90505 0.0
H1218 H 0.49313 0.56236 0.91151 0.0
H1219 H 0.50158 0.54398 0.94692 0.0
H1220 H 0.54037 0.60424 0.13052 0.0
H1221 H 0.54975 0.58586 0.16622 0.0
H1222 H 0.60931 0.57553 0.14359 0.0
H1223 H 0.59968 0.59281 0.10795 0.0
Pr1224 Pr 0.79939 0.30069 0.28664 0.0
Pr1225 Pr 0.81331 0.353 0.27404 0.0
C1226 C 0.7965 0.25313 0.28898 0.0
C1227 C 0.81214 0.23795 0.28617 0.0
C1228 C 0.81714 0.22358 0.3038 0.0
C1229 C 0.83316 0.21041 0.3025 0.0
C1230 C 0.84424 0.21101 0.28325 0.0
C1231 C 0.83958 0.22601 0.2659 0.0
C1232 C 0.82383 0.23955 0.26747 0.0
C1233 C 0.80022 0.33186 0.3278 0.0
C1234 C 0.85209 0.32883 0.29679 0.0
C1235 C 0.8163 0.40068 0.27137 0.0
C1236 C 0.8025 0.41725 0.27691 0.0
C1237 C 0.80103 0.4364 0.2634 0.0
C1238 C 0.78686 0.45139 0.26735 0.0
C1239 C 0.77396 0.4475 0.28498 0.0
C1240 C 0.77508 0.42782 0.29807 0.0
C1241 C 0.78914 0.41273 0.29397 0.0
C1242 C 0.81319 0.3217 0.23307 0.0
C1243 C 0.76039 0.32516 0.26567 0.0
O1244 O 0.78782 0.26143 0.27026 0.0
O1245 O 0.80251 0.26934 0.30737 0.0
O1246 O 0.80475 0.33892 0.30845 0.0
O1247 O 0.79313 0.30846 0.32508 0.0
O1248 O 0.84685 0.3499 0.29482 0.0
O1249 O 0.83758 0.30802 0.29009 0.0
O1250 O 0.82703 0.39256 0.28896 0.0
O1251 O 0.80713 0.38389 0.25391 0.0
O1252 O 0.80841 0.31473 0.25235 0.0
O1253 O 0.82053 0.34507 0.23594 0.0
O1254 O 0.76543 0.304 0.26749 0.0
O1255 O 0.77524 0.34583 0.2717 0.0
H1256 H 0.8088 0.22275 0.31876 0.0
H1257 H 0.83672 0.19963 0.31654 0.0
H1258 H 0.84758 0.22682 0.25072 0.0
H1259 H 0.82076 0.25117 0.25401 0.0
H1260 H 0.81075 0.43967 0.24968 0.0
H1261 H 0.78609 0.46608 0.25665 0.0
H1262 H 0.76556 0.42444 0.31193 0.0
H1263 H 0.78961 0.39757 0.30415 0.0
Pr1264 Pr 0.06185 0.56987 0.55866 0.0
Pr1265 Pr 0.05132 0.58547 0.51505 0.0
C1266 C 0.06377 0.55861 0.60309 0.0
C1267 C 0.05065 0.56317 0.62086 0.0
C1268 C 0.05349 0.55393 0.64251 0.0
C1269 C 0.04205 0.56022 0.65995 0.0
C1270 C 0.0278 0.57579 0.65571 0.0
C1271 C 0.02409 0.58377 0.63355 0.0
C1272 C 0.0355 0.5776 0.6163 0.0
C1273 C 0.06135 0.53251 0.52307 0.0
C1274 C 0.00982 0.56197 0.5372 0.0
C1275 C 0.04918 0.59624 0.47048 0.0
C1276 C 0.06192 0.59214 0.4522 0.0
C1277 C 0.05997 0.60384 0.43191 0.0
C1278 C 0.07145 0.59903 0.41406 0.0
C1279 C 0.08504 0.5825 0.41639 0.0
C1280 C 0.0876 0.57163 0.43727 0.0
C1281 C 0.07612 0.5764 0.45501 0.0
C1282 C 0.05145 0.62285 0.55075 0.0
C1283 C 0.10305 0.59298 0.5358 0.0
O1284 O 0.07629 0.57795 0.59735 0.0
O1285 O 0.05315 0.54346 0.58491 0.0
O1286 O 0.04732 0.54538 0.52303 0.0
O1287 O 0.07687 0.53979 0.5412 0.0
O1288 O 0.01623 0.56334 0.51685 0.0
O1289 O 0.02438 0.56967 0.55645 0.0
O1290 O 0.037 0.57676 0.47639 0.0
O1291 O 0.05988 0.61156 0.48852 0.0
O1292 O 0.06554 0.61002 0.551 0.0
O1293 O 0.03659 0.61599 0.53201 0.0
O1294 O 0.0968 0.59248 0.5563 0.0
O1295 O 0.08839 0.58467 0.51677 0.0
H1296 H 0.06505 0.54262 0.64618 0.0
H1297 H 0.04518 0.55404 0.67705 0.0
H1298 H 0.01311 0.59576 0.62998 0.0
H1299 H 0.03314 0.58497 0.59974 0.0
H1300 H 0.04926 0.61628 0.42969 0.0
H1301 H 0.06933 0.6078 0.39824 0.0
H1302 H 0.09763 0.55849 0.43948 0.0
H1303 H 0.07786 0.56726 0.47063 0.0
Pr1304 Pr 0.77658 0.82734 0.27861 0.0
Pr1305 Pr 0.82484 0.82392 0.28485 0.0
C1306 C 0.73483 0.82716 0.28284 0.0
C1307 C 0.72185 0.83297 0.30069 0.0
C1308 C 0.70999 0.85109 0.29763 0.0
C1309 C 0.69518 0.85447 0.31246 0.0
C1310 C 0.69194 0.8396 0.33039 0.0
C1311 C 0.70481 0.82261 0.33439 0.0
C1312 C 0.71972 0.81938 0.31977 0.0
C1313 C 0.80407 0.86555 0.26356 0.0
C1314 C 0.8093 0.84559 0.33146 0.0
C1315 C 0.86636 0.82146 0.28213 0.0
C1316 C 0.88126 0.81789 0.26576 0.0
C1317 C 0.89492 0.80185 0.27055 0.0
C1318 C 0.91055 0.79939 0.2566 0.0
C1319 C 0.9128 0.81295 0.23754 0.0
C1320 C 0.89837 0.8282 0.2321 0.0
C1321 C 0.88272 0.83067 0.24611 0.0
C1322 C 0.79682 0.78624 0.30026 0.0
C1323 C 0.79284 0.8072 0.23207 0.0
O1324 O 0.74307 0.80798 0.28453 0.0
O1325 O 0.7479 0.84543 0.27602 0.0
O1326 O 0.80905 0.85638 0.28218 0.0
O1327 O 0.7842 0.85581 0.25279 0.0
O1328 O 0.82685 0.84429 0.32218 0.0
O1329 O 0.78925 0.83866 0.31906 0.0
O1330 O 0.86014 0.84202 0.28348 0.0
O1331 O 0.85092 0.80254 0.28381 0.0
O1332 O 0.7923 0.79492 0.28129 0.0
O1333 O 0.81645 0.79635 0.31133 0.0
O1334 O 0.77538 0.80517 0.24232 0.0
O1335 O 0.81279 0.81703 0.24387 0.0
H1336 H 0.71142 0.86188 0.28312 0.0
H1337 H 0.68528 0.86756 0.30899 0.0
H1338 H 0.70253 0.81099 0.3482 0.0
H1339 H 0.72881 0.80549 0.32281 0.0
H1340 H 0.89385 0.7916 0.28548 0.0
H1341 H 0.92114 0.78718 0.26097 0.0
H1342 H 0.89976 0.83898 0.21758 0.0
H1343 H 0.87218 0.84298 0.24192 0.0
Pr1344 Pr 0.81154 0.35144 0.7924 0.0
Pr1345 Pr 0.8072 0.30559 0.76943 0.0
C1346 C 0.83472 0.39446 0.81361 0.0
C1347 C 0.84148 0.41765 0.80466 0.0
C1348 C 0.82627 0.42797 0.7912 0.0
C1349 C 0.83362 0.44859 0.78043 0.0
C1350 C 0.8562 0.45874 0.78274 0.0
C1351 C 0.87129 0.44795 0.79582 0.0
C1352 C 0.86396 0.42766 0.80676 0.0
C1353 C 0.77028 0.3448 0.7643 0.0
C1354 C 0.82038 0.34858 0.7374 0.0
C1355 C 0.79585 0.259 0.75147 0.0
C1356 C 0.78773 0.23743 0.76222 0.0
C1357 C 0.79445 0.21616 0.75669 0.0
C1358 C 0.7845 0.1947 0.76453 0.0
C1359 C 0.76778 0.19461 0.77787 0.0
C1360 C 0.76314 0.21655 0.78581 0.0
C1361 C 0.77295 0.2379 0.77784 0.0
C1362 C 0.84916 0.32242 0.79592 0.0
C1363 C 0.79435 0.30876 0.82353 0.0
O1364 O 0.84374 0.37769 0.80533 0.0
O1365 O 0.81383 0.38672 0.81461 0.0
O1366 O 0.78175 0.32899 0.76356 0.0
O1367 O 0.77915 0.36311 0.78016 0.0
O1368 O 0.81249 0.32512 0.73631 0.0
O1369 O 0.82371 0.36252 0.7574 0.0
O1370 O 0.78258 0.27359 0.74853 0.0
O1371 O 0.81616 0.27018 0.7596 0.0
O1372 O 0.83134 0.32321 0.8028 0.0
O1373 O 0.84568 0.31494 0.77365 0.0
O1374 O 0.80051 0.33246 0.82405 0.0
O1375 O 0.79383 0.2945 0.8042 0.0
H1376 H 0.80881 0.42006 0.78882 0.0
H1377 H 0.82173 0.45675 0.77057 0.0
H1378 H 0.88879 0.45571 0.79843 0.0
H1379 H 0.8759 0.41954 0.81664 0.0
H1380 H 0.80636 0.21586 0.74521 0.0
H1381 H 0.78837 0.17792 0.75826 0.0
H1382 H 0.75052 0.21681 0.79642 0.0
H1383 H 0.76794 0.25438 0.78273 0.0
Pr1384 Pr 0.77962 0.81021 0.77503 0.0
Pr1385 Pr 0.82974 0.84815 0.79017 0.0
C1386 C 0.73775 0.78793 0.7771 0.0
C1387 C 0.7195 0.79326 0.78841 0.0
C1388 C 0.69827 0.78891 0.77517 0.0
C1389 C 0.68074 0.79365 0.78542 0.0
C1390 C 0.68396 0.80287 0.80926 0.0
C1391 C 0.7054 0.8076 0.82236 0.0
C1392 C 0.72294 0.80294 0.81206 0.0
C1393 C 0.79539 0.83111 0.73572 0.0
C1394 C 0.78641 0.87013 0.7893 0.0
C1395 C 0.87132 0.87074 0.78767 0.0
C1396 C 0.89032 0.86405 0.77898 0.0
C1397 C 0.91123 0.87073 0.79315 0.0
C1398 C 0.92964 0.86604 0.78464 0.0
C1399 C 0.92739 0.85447 0.76185 0.0
C1400 C 0.9064 0.84688 0.74802 0.0
C1401 C 0.888 0.85149 0.75652 0.0
C1402 C 0.81476 0.8274 0.82989 0.0
C1403 C 0.82319 0.78818 0.77522 0.0
O1404 O 0.75479 0.78365 0.79049 0.0
O1405 O 0.74312 0.80101 0.76043 0.0
O1406 O 0.80427 0.83461 0.75709 0.0
O1407 O 0.77766 0.81387 0.73377 0.0
O1408 O 0.80738 0.87576 0.7873 0.0
O1409 O 0.77523 0.8478 0.79052 0.0
O1410 O 0.85434 0.87172 0.77209 0.0
O1411 O 0.86581 0.86132 0.80633 0.0
O1412 O 0.80485 0.82399 0.80876 0.0
O1413 O 0.8329 0.8438 0.831 0.0
O1414 O 0.80215 0.78256 0.77717 0.0
O1415 O 0.83447 0.81068 0.77484 0.0
H1416 H 0.69521 0.78176 0.75682 0.0
H1417 H 0.66467 0.79019 0.77455 0.0
H1418 H 0.70863 0.81442 0.84079 0.0
H1419 H 0.73915 0.80676 0.82269 0.0
H1420 H 0.91342 0.88018 0.8106 0.0
H1421 H 0.94571 0.87222 0.79553 0.0
H1422 H 0.90437 0.8381 0.73031 0.0
H1423 H 0.87208 0.84578 0.74529 0.0
Pr1424 Pr 0.52772 0.56349 0.5181 0.0
Pr1425 Pr 0.57875 0.58516 0.54386 0.0
C1426 C 0.48442 0.56188 0.50729 0.0
C1427 C 0.4699 0.5791 0.50281 0.0
C1428 C 0.45215 0.57327 0.48401 0.0
C1429 C 0.43675 0.58774 0.48126 0.0
C1430 C 0.43888 0.60856 0.49713 0.0
C1431 C 0.45726 0.61507 0.51525 0.0
C1432 C 0.47254 0.6005 0.51811 0.0
C1433 C 0.5597 0.56325 0.49098 0.0
C1434 C 0.553 0.62437 0.52024 0.0
C1435 C 0.62198 0.58533 0.55318 0.0
C1436 C 0.63649 0.56773 0.55637 0.0
C1437 C 0.65351 0.57133 0.57591 0.0
C1438 C 0.6693 0.55713 0.57708 0.0
C1439 C 0.66855 0.53918 0.55858 0.0
C1440 C 0.65072 0.53462 0.53983 0.0
C1441 C 0.63492 0.54856 0.53876 0.0
C1442 C 0.54654 0.58442 0.57126 0.0
C1443 C 0.55325 0.52456 0.54218 0.0
O1444 O 0.49497 0.56332 0.52877 0.0
O1445 O 0.49607 0.55744 0.49135 0.0
O1446 O 0.55949 0.57955 0.50677 0.0
O1447 O 0.54154 0.54618 0.4869 0.0
O1448 O 0.57282 0.62104 0.52832 0.0
O1449 O 0.53498 0.6066 0.5183 0.0
O1450 O 0.61093 0.58472 0.53206 0.0
O1451 O 0.61094 0.58976 0.56974 0.0
O1452 O 0.54692 0.5687 0.55504 0.0
O1453 O 0.56471 0.60159 0.57558 0.0
O1454 O 0.53358 0.52749 0.53302 0.0
O1455 O 0.57125 0.5424 0.54495 0.0
H1456 H 0.44977 0.55703 0.47185 0.0
H1457 H 0.42289 0.58235 0.467 0.0
H1458 H 0.45929 0.63084 0.52789 0.0
H1459 H 0.48606 0.60562 0.53276 0.0
H1460 H 0.65517 0.58584 0.58982 0.0
H1461 H 0.68278 0.56116 0.59178 0.0
H1462 H 0.6494 0.52071 0.52545 0.0
H1463 H 0.62196 0.5449 0.52357 0.0
Pr1464 Pr 0.08053 0.58381 0.03179 0.0
Pr1465 Pr 0.03155 0.57776 0.03576 0.0
C1466 C 0.12112 0.57795 0.02835 0.0
C1467 C 0.13394 0.55921 0.02589 0.0
C1468 C 0.14751 0.56039 0.00886 0.0
C1469 C 0.16146 0.54445 1.0076 0.0
C1470 C 0.16217 0.52691 0.0234 0.0
C1471 C 0.14772 0.52503 0.0397 0.0
C1472 C 0.13378 0.541 0.04096 0.0
C1473 C 0.05674 0.60444 0.99823 0.0
C1474 C 0.04459 0.53002 0.01411 0.0
C1475 C 0.99054 0.58401 0.03664 0.0
C1476 C 0.9774 0.60245 0.0399 0.0
C1477 C 0.96572 0.60202 0.05862 0.0
C1478 C 0.95099 0.617 0.0604 0.0
C1479 C 0.9473 0.6327 0.04333 0.0
C1480 C 0.95986 0.63393 0.02522 0.0
C1481 C 0.97471 0.61904 0.02354 0.0
C1482 C 0.05575 0.55828 0.07023 0.0
C1483 C 0.06813 0.63033 0.05698 0.0
O1484 O 0.11473 0.58189 0.04843 0.0
O1485 O 0.10663 0.57933 0.01021 0.0
O1486 O 0.04978 0.58381 1.00471 0.0
O1487 O 0.07669 0.61459 0.00844 0.0
O1488 O 0.0279 0.54051 0.0136 0.0
O1489 O 0.06489 0.54206 0.02286 0.0
O1490 O 0.99879 0.5825 0.01737 0.0
O1491 O 1.00334 0.57995 0.05505 0.0
O1492 O 0.06244 0.57852 0.06293 0.0
O1493 O 0.03563 0.54794 0.06056 0.0
O1494 O 0.08484 0.62039 0.05508 0.0
O1495 O 0.04757 0.61878 0.04887 0.0
H1496 H 0.14783 0.57417 0.99693 0.0
H1497 H 0.17234 0.54662 0.99486 0.0
H1498 H 0.14736 0.51139 0.05177 0.0
H1499 H 0.12324 0.53939 0.05404 0.0
H1500 H 0.96747 0.58951 0.07156 0.0
H1501 H 0.94215 0.61584 0.07496 0.0
H1502 H 0.95753 0.64555 0.01161 0.0
H1503 H 0.98348 0.61995 0.00893 0.0
H1504 H 0.02474 0.22523 0.91897 0.0
H1505 H 0.05886 0.17059 0.0401 0.0
H1506 H 0.03809 0.26653 0.98726 0.0
H1507 H 0.04345 0.12818 0.9724 0.0
H1508 H 0.05243 0.20631 0.02095 0.0
H1509 H 0.03246 0.18984 0.93782 0.0
C1510 C 0.02924 0.22691 0.93787 0.0
C1511 C 0.03074 0.24906 0.95143 0.0
C1512 C 0.05065 0.18927 0.01021 0.0
C1513 C 0.03965 0.20845 0.97328 0.0
C1514 C 0.05445 0.16892 0.02119 0.0
C1515 C 0.05179 0.14643 0.00782 0.0
C1516 C 0.04435 0.18723 0.98562 0.0
C1517 C 0.04568 0.1452 0.98336 0.0
C1518 C 0.03369 0.20667 0.94867 0.0
C1519 C 0.03674 0.24998 0.97594 0.0
N1520 N 0.04223 0.1652 0.97309 0.0
N1521 N 0.04092 0.23013 0.98597 0.0
H1522 H 0.14227 0.86753 0.21072 0.0
H1523 H 0.25218 0.81596 0.22214 0.0
H1524 H 0.15914 0.8292 0.1518 0.0
H1525 H 0.23613 0.86122 0.27679 0.0
H1526 H 0.21825 0.81878 0.19628 0.0
H1527 H 0.17626 0.86398 0.2349 0.0
C1528 C 0.15325 0.85866 0.20268 0.0
C1529 C 0.14774 0.84906 0.1789 0.0
C1530 C 0.22218 0.82813 0.21392 0.0
C1531 C 0.1872 0.84447 0.20707 0.0
C1532 C 0.24159 0.82647 0.22876 0.0
C1533 C 0.24716 0.83819 0.25192 0.0
C1534 C 0.20817 0.84182 0.22211 0.0
C1535 C 0.23262 0.85158 0.2593 0.0
C1536 C 0.17275 0.8565 0.21664 0.0
C1537 C 0.16272 0.83731 0.16987 0.0
N1538 N 0.21406 0.85302 0.24458 0.0
N1539 N 0.18161 0.8353 0.18389 0.0
H1540 H 0.5483 0.908 0.42657 0.0
H1541 H 0.54578 0.99038 0.54002 0.0
H1542 H 0.51986 0.87214 0.48133 0.0
H1543 H 0.52761 0.00936 0.47061 0.0
H1544 H 0.5427 0.94816 0.52306 0.0
H1545 H 0.54937 0.94707 0.44732 0.0
C1546 C 0.54245 0.90825 0.44314 0.0
C1547 C 0.53353 0.88655 0.45195 0.0
C1548 C 0.53908 0.96153 0.51168 0.0
C1549 C 0.53499 0.93175 0.47594 0.0
C1550 C 0.54081 0.98546 0.52126 0.0
C1551 C 0.53676 1.00306 0.50656 0.0
C1552 C 0.53408 0.95567 0.48727 0.0
C1553 C 0.53061 0.99614 0.48244 0.0
C1554 C 0.54299 0.93067 0.45488 0.0
C1555 C 0.52673 0.88836 0.47382 0.0
N1556 N 0.52982 0.97305 0.47348 0.0
N1557 N 0.52753 0.91069 0.48513 0.0
H1558 H 0.5239 0.29289 0.67507 0.0
H1559 H 0.43475 0.35684 0.72028 0.0
H1560 H 0.51835 0.36534 0.66264 0.0
H1561 H 0.43221 0.2803 0.72227 0.0
H1562 H 0.46678 0.36072 0.70137 0.0
H1563 H 0.49231 0.28859 0.69547 0.0
C1564 C 0.51625 0.30806 0.67715 0.0
C1565 C 0.5238 0.32966 0.66766 0.0
C1566 C 0.45918 0.34302 0.70581 0.0
C1567 C 0.48763 0.32483 0.6904 0.0
C1568 C 0.4407 0.34072 0.71643 0.0
C1569 C 0.43057 0.31816 0.72276 0.0
C1570 C 0.46784 0.32267 0.70154 0.0
C1571 C 0.43955 0.2981 0.71789 0.0
C1572 C 0.49815 0.30554 0.68855 0.0
C1573 C 0.51316 0.34861 0.67016 0.0
N1574 N 0.45769 0.30084 0.70759 0.0
N1575 N 0.4956 0.34576 0.68132 0.0
H1576 H 0.10954 0.94099 0.65447 0.0
H1577 H 0.05067 0.98738 0.54007 0.0
H1578 H 0.06448 0.89187 0.59897 0.0
H1579 H 0.09003 0.03561 0.59967 0.0
H1580 H 0.05681 0.95244 0.56007 0.0
H1581 H 0.10429 0.97521 0.63333 0.0
C1582 C 0.09855 0.93726 0.63772 0.0
C1583 C 0.08742 0.91317 0.62864 0.0
C1584 C 0.0642 0.97062 0.56878 0.0
C1585 C 0.08117 0.9531 0.60409 0.0
C1586 C 0.06078 0.99072 0.55733 0.0
C1587 C 0.06992 0.01473 0.56807 0.0
C1588 C 0.07712 0.97426 0.59123 0.0
C1589 C 0.08261 0.0176 0.59062 0.0
C1590 C 0.09553 0.95702 0.62565 0.0
C1591 C 0.07356 0.90992 0.6067 0.0
N1592 N 0.08588 0.9977 0.60133 0.0
N1593 N 0.07076 0.9296 0.59528 0.0
H1594 H 0.47036 0.79029 0.85734 0.0
H1595 H 0.37702 0.86258 0.82975 0.0
H1596 H 0.45764 0.84098 0.90965 0.0
H1597 H 0.37008 0.78989 0.79647 0.0
H1598 H 0.41041 0.85883 0.85537 0.0
H1599 H 0.43643 0.79256 0.83173 0.0
C1600 C 0.46027 0.80176 0.86346 0.0
C1601 C 0.46693 0.81588 0.88537 0.0
C1602 C 0.40163 0.84381 0.84232 0.0
C1603 C 0.4284 0.81883 0.85615 0.0
C1604 C 0.38276 0.84604 0.8275 0.0
C1605 C 0.37073 0.82649 0.81097 0.0
C1606 C 0.40879 0.8221 0.84026 0.0
C1607 C 0.37881 0.80537 0.80902 0.0
C1608 C 0.44095 0.80302 0.84889 0.0
C1609 C 0.45316 0.8301 0.89272 0.0
N1610 N 0.39737 0.80376 0.82343 0.0
N1611 N 0.43473 0.83161 0.87794 0.0
H1612 H 0.5615 0.2519 0.15199 0.0
H1613 H 0.55311 0.17425 0.02809 0.0
H1614 H 0.57896 0.28393 0.09084 0.0
H1615 H 0.55889 0.14077 0.09212 0.0
H1616 H 0.55903 0.21378 0.05081 0.0
H1617 H 0.55755 0.21113 0.13105 0.0
C1618 C 0.56415 0.25039 0.13402 0.0
C1619 C 0.56945 0.27155 0.12282 0.0
C1620 C 0.55908 0.19792 0.06005 0.0
C1621 C 0.56524 0.2246 0.09868 0.0
C1622 C 0.55558 0.17509 0.04702 0.0
C1623 C 0.55529 0.15373 0.058 0.0
C1624 C 0.5621 0.19997 0.08463 0.0
C1625 C 0.55886 0.15652 0.08273 0.0
C1626 C 0.562 0.22705 0.1221 0.0
C1627 C 0.5736 0.26828 0.09982 0.0
N1628 N 0.56191 0.17909 0.09515 0.0
N1629 N 0.57111 0.24547 0.08851 0.0
H1630 H 0.10075 0.34833 0.40188 0.0
H1631 H 0.13807 0.27713 0.29566 0.0
H1632 H 0.05708 0.29132 0.35255 0.0
H1633 H 0.18283 0.33321 0.34552 0.0
H1634 H 0.10811 0.28318 0.31548 0.0
H1635 H 0.13118 0.34321 0.38168 0.0
C1636 C 0.09768 0.33452 0.38701 0.0
C1637 C 0.07649 0.32009 0.37897 0.0
C1638 C 0.1245 0.29414 0.32214 0.0
C1639 C 0.11091 0.31449 0.35538 0.0
C1640 C 0.14169 0.29085 0.31066 0.0
C1641 C 0.16329 0.30451 0.31892 0.0
C1642 C 0.12875 0.31118 0.3422 0.0
C1643 C 0.16668 0.3218 0.33871 0.0
C1644 C 0.11495 0.33174 0.37533 0.0
C1645 C 0.0732 0.30283 0.35929 0.0
N1646 N 0.14969 0.32456 0.34965 0.0
N1647 N 0.09016 0.30054 0.34816 0.0
H1648 H 0.93453 0.02256 0.13192 0.0
H1649 H 0.03955 0.11652 0.10451 0.0
H1650 H 0.96055 0.09453 0.16872 0.0
H1651 H 0.01353 0.04437 0.06773 0.0
H1652 H 0.009 0.10995 0.12643 0.0
H1653 H 0.96096 0.03164 0.10519 0.0
C1654 C 0.94519 0.04061 0.13366 0.0
C1655 C 0.94518 0.05807 0.15206 0.0
C1656 C 0.00988 0.09566 0.11337 0.0
C1657 C 0.97581 0.06835 0.12239 0.0
C1658 C 0.02735 0.09941 0.10098 0.0
C1659 C 0.02889 0.08112 0.08417 0.0
C1660 C 0.99396 0.07344 0.10886 0.0
C1661 C 0.01277 0.05915 0.08032 0.0
C1662 C 0.9605 0.04569 0.11872 0.0
C1663 C 0.95991 0.08082 0.15439 0.0
N1664 N 0.99599 0.05593 0.09254 0.0
N1665 N 0.97474 0.08527 0.13983 0.0
H1666 H 0.30407 0.77534 0.47115 0.0
H1667 H 0.275 0.75976 0.32966 0.0
H1668 H 0.26163 0.71221 0.42802 0.0
H1669 H 0.30998 0.82816 0.36973 0.0
H1670 H 0.27101 0.74225 0.36639 0.0
H1671 H 0.30727 0.79571 0.43518 0.0
C1672 C 0.29526 0.76586 0.45436 0.0
C1673 C 0.28269 0.74187 0.45289 0.0
C1674 C 0.27949 0.76116 0.36721 0.0
C1675 C 0.28638 0.76492 0.41166 0.0
C1676 C 0.28174 0.77117 0.34613 0.0
C1677 C 0.29268 0.79557 0.34641 0.0
C1678 C 0.28838 0.77549 0.38894 0.0
C1679 C 0.30122 0.80932 0.36851 0.0
C1680 C 0.29716 0.77743 0.43379 0.0
C1681 C 0.27175 0.73055 0.43039 0.0
N1682 N 0.29897 0.79912 0.38879 0.0
N1683 N 0.27393 0.74202 0.41097 0.0
H1684 H 0.65481 0.02399 0.67622 0.0
H1685 H 0.54017 0.01789 0.59309 0.0
H1686 H 0.59446 0.97179 0.67785 0.0
H1687 H 0.59825 0.07423 0.5933 0.0
H1688 H 0.56081 0.9998 0.62282 0.0
H1689 H 0.63568 0.04102 0.64402 0.0
C1690 C 0.63772 0.01559 0.66934 0.0
C1691 C 0.62631 0.99612 0.67954 0.0
C1692 C 0.56915 0.01608 0.61639 0.0
C1693 C 0.60421 0.01595 0.64306 0.0
C1694 C 0.55733 0.02645 0.59941 0.0
C1695 C 0.56751 0.04757 0.59073 0.0
C1696 C 0.59146 0.02675 0.62476 0.0
C1697 C 0.5898 0.05789 0.59955 0.0
C1698 C 0.62674 0.02558 0.65116 0.0
C1699 C 0.60401 0.98655 0.67036 0.0
N1700 N 0.60107 0.04736 0.61611 0.0
N1701 N 0.59372 0.99661 0.65277 0.0
H1702 H 0.28319 0.39609 0.96623 0.0
H1703 H 0.34569 0.36054 0.86434 0.0
H1704 H 0.35121 0.39339 0.97943 0.0
H1705 H 0.27507 0.3432 0.85697 0.0
H1706 H 0.34829 0.37344 0.9062 0.0
H1707 H 0.27969 0.37631 0.92629 0.0
C1708 C 0.2972 0.39056 0.96092 0.0
C1709 C 0.31738 0.39583 0.97632 0.0
C1710 C 0.33224 0.36664 0.89543 0.0
C1711 C 0.31389 0.37442 0.93016 0.0
C1712 C 0.33073 0.35936 0.87146 0.0
C1713 C 0.31013 0.35085 0.85692 0.0
C1714 C 0.31302 0.36555 0.90501 0.0
C1715 C 0.29134 0.34978 0.86731 0.0
C1716 C 0.29529 0.37954 0.93803 0.0
C1717 C 0.33524 0.38911 0.96827 0.0
N1718 N 0.29325 0.35714 0.89057 0.0
N1719 N 0.33318 0.37908 0.94568 0.0
H1720 H 0.96868 0.03005 0.26656 0.0
H1721 H 1.00253 0.10612 0.39207 0.0
H1722 H 0.93476 0.08294 0.29056 0.0
H1723 H 0.03429 0.05162 0.36689 0.0
H1724 H 0.98232 0.10436 0.35236 0.0
H1725 H 0.99704 0.04329 0.30106 0.0
C1726 C 0.9674 0.04468 0.27906 0.0
C1727 C 0.94942 0.05533 0.27605 0.0
C1728 C 0.99416 0.09329 0.35547 0.0
C1729 C 0.98171 0.07069 0.31534 0.0
C1730 C 1.00571 0.09438 0.37801 0.0
C1731 C 0.01989 0.07887 0.38262 0.0
C1732 C 0.99688 0.0765 0.33774 0.0
C1733 C 0.02364 0.06405 0.36401 0.0
C1734 C 0.98359 0.05229 0.2987 0.0
C1735 C 0.9483 0.07406 0.29266 0.0
N1736 N 0.01187 0.06292 0.3424 0.0
N1737 N 0.96427 0.08111 0.31181 0.0
H1738 H 0.29305 0.71177 0.60789 0.0
H1739 H 0.30423 0.83626 0.69197 0.0
H1740 H 0.29984 0.78286 0.58462 0.0
H1741 H 0.3044 0.76859 0.72081 0.0
H1742 H 0.30034 0.81549 0.65276 0.0
H1743 H 0.29568 0.73038 0.6485 0.0
C1744 C 0.29518 0.73128 0.61121 0.0
C1745 C 0.29647 0.74563 0.59242 0.0
C1746 C 0.30131 0.80498 0.6675 0.0
C1747 C 0.29906 0.76726 0.63942 0.0
C1748 C 0.30356 0.81694 0.69018 0.0
C1749 C 0.30497 0.80448 0.71024 0.0
C1750 C 0.30055 0.77996 0.6641 0.0
C1751 C 0.30349 0.7792 0.70615 0.0
C1752 C 0.29664 0.74193 0.63453 0.0
C1753 C 0.29907 0.77086 0.59822 0.0
N1754 N 0.30152 0.76789 0.68371 0.0
N1755 N 0.30016 0.78065 0.62084 0.0
H1756 H 0.62193 0.98093 0.83026 0.0
H1757 H 0.6129 0.10374 0.88482 0.0
H1758 H 0.61718 0.03432 0.78204 0.0
H1759 H 0.56092 0.0418 0.88918 0.0
H1760 H 0.62245 0.08039 0.85164 0.0
H1761 H 0.60581 1.00412 0.85759 0.0
C1762 C 0.61662 0.99695 0.82511 0.0
C1763 C 0.62004 0.00539 0.80374 0.0
C1764 C 0.60876 0.07226 0.85977 0.0
C1765 C 0.60357 0.03263 0.83518 0.0
C1766 C 0.60343 0.08541 0.87854 0.0
C1767 C 0.58623 0.07437 0.88942 0.0
C1768 C 0.59693 0.04811 0.85257 0.0
C1769 C 0.57438 0.05062 0.88108 0.0
C1770 C 0.60785 0.01031 0.84072 0.0
C1771 C 0.61394 0.0269 0.79811 0.0
N1772 N 0.58016 0.03806 0.86329 0.0
N1773 N 0.60646 0.04024 0.81406 0.0
H1774 H 0.32629 0.36766 0.0997 0.0
H1775 H 0.28127 0.37138 0.22154 0.0
H1776 H 0.31002 0.43225 0.12875 0.0
H1777 H 0.32004 0.3218 0.20282 0.0
H1778 H 0.28867 0.39257 0.18705 0.0
H1779 H 0.3211 0.34937 0.13585 0.0
C1780 C 0.32161 0.37809 0.11368 0.0
C1781 C 0.3188 0.40176 0.11095 0.0
C1782 C 0.29586 0.37731 0.19063 0.0
C1783 C 0.31228 0.38034 0.15292 0.0
C1784 C 0.29172 0.36524 0.21045 0.0
C1785 C 0.30045 0.34503 0.21553 0.0
C1786 C 0.30847 0.36889 0.17523 0.0
C1787 C 0.3133 0.33752 0.19997 0.0
C1788 C 0.31869 0.36757 0.13447 0.0
C1789 C 0.31267 0.41413 0.12997 0.0
N1790 N 0.31677 0.34925 0.18063 0.0
N1791 N 0.30942 0.40325 0.1499 0.0
H1792 H 0.26494 0.97429 1.00383 0.0
H1793 H 0.19786 0.02701 0.09405 0.0
H1794 H 0.27697 0.96462 0.07706 0.0
H1795 H 0.18041 0.01996 0.01868 0.0
H1796 H 0.22741 0.00585 0.08977 0.0
H1797 H 0.23438 0.99207 0.01028 0.0
C1798 C 0.26087 0.97554 0.02126 0.0
C1799 C 0.2733 0.96747 0.03977 0.0
C1800 C 0.21695 0.00879 0.07423 0.0
C1801 C 0.23837 0.98878 0.04764 0.0
C1802 C 0.20011 0.02101 0.07662 0.0
C1803 C 0.18627 0.02522 0.05668 0.0
C1804 C 0.22022 1.00097 0.05171 0.0
C1805 C 0.19014 0.01685 0.03464 0.0
C1806 C 0.24342 0.98586 0.02501 0.0
C1807 C 0.26748 0.97004 0.06214 0.0
N1808 N 0.20663 0.00536 0.03282 0.0
N1809 N 0.25056 0.98068 0.06551 0.0
H1810 H 0.73547 0.65755 0.02143 0.0
H1811 H 0.60795 0.64508 0.02835 0.0
H1812 H 0.70195 0.7133 1.00258 0.0
H1813 H 0.6354 0.58246 0.02003 0.0
H1814 H 0.64319 0.6713 0.02374 0.0
H1815 H 0.70024 0.6306 0.02447 0.0
C1816 C 0.72062 0.66386 0.01705 0.0
C1817 C 0.72173 0.68732 0.01019 0.0
C1818 C 0.64152 0.65182 0.02289 0.0
C1819 C 0.68109 0.65713 0.01599 0.0
C1820 C 0.62136 0.63678 0.02566 0.0
C1821 C 0.61845 0.61133 0.02456 0.0
C1822 C 0.65924 0.64157 0.01922 0.0
C1823 C 0.63668 0.60188 0.02104 0.0
C1824 C 0.70046 0.6486 0.01934 0.0
C1825 C 0.70196 0.69513 1.00707 0.0
N1826 N 0.65613 0.61687 0.01859 0.0
N1827 N 0.68263 0.68023 0.01004 0.0
H1828 H 0.74387 0.57915 0.33688 0.0
H1829 H 0.73319 0.43832 0.29809 0.0
H1830 H 0.69468 0.5225 0.35608 0.0
H1831 H 0.78511 0.49696 0.28609 0.0
H1832 H 0.71525 0.46845 0.31413 0.0
H1833 H 0.75582 0.54891 0.31344 0.0
C1834 C 0.73612 0.56014 0.33679 0.0
C1835 C 0.71929 0.55302 0.34959 0.0
C1836 C 0.73044 0.47463 0.30772 0.0
C1837 C 0.73209 0.51823 0.32182 0.0
C1838 C 0.74073 0.45748 0.29865 0.0
C1839 C 0.76093 0.46509 0.29112 0.0
C1840 C 0.74046 0.49949 0.30927 0.0
C1841 C 0.7696 0.49014 0.29162 0.0
C1842 C 0.74259 0.54289 0.32297 0.0
C1843 C 0.70836 0.52844 0.34716 0.0
N1844 N 0.75944 0.50638 0.30078 0.0
N1845 N 0.71517 0.51174 0.33376 0.0
H1846 H 0.89703 0.4421 0.52106 0.0
H1847 H 0.98727 0.56352 0.57398 0.0
H1848 H 0.88226 0.49602 0.56849 0.0
H1849 H 0.98183 0.52793 0.5042 0.0
H1850 H 0.95229 0.53606 0.57753 0.0
H1851 H 0.93305 0.46936 0.52135 0.0
C1852 C 0.9015 0.45961 0.53166 0.0
C1853 C 0.88643 0.46736 0.54392 0.0
C1854 C 0.95878 0.53442 0.56145 0.0
C1855 C 0.92756 0.49829 0.54482 0.0
C1856 C 0.97863 0.55013 0.55934 0.0
C1857 C 0.98743 0.54811 0.53869 0.0
C1858 C 0.9481 0.5161 0.54308 0.0
C1859 C 0.9756 0.53032 0.52034 0.0
C1860 C 0.92195 0.47516 0.53178 0.0
C1861 C 0.8932 0.48986 0.55806 0.0
N1862 N 0.95674 0.51484 0.52309 0.0
N1863 N 0.91324 0.50469 0.558 0.0
H1864 H 0.4036 0.21194 0.35332 0.0
H1865 H 0.35629 0.28229 0.25259 0.0
H1866 H 0.43091 0.2181 0.28976 0.0
H1867 H 0.31803 0.24906 0.30181 0.0
H1868 H 0.38503 0.26148 0.26628 0.0
H1869 H 0.37458 0.23049 0.33647 0.0
C1870 C 0.4039 0.21781 0.33605 0.0
C1871 C 0.4198 0.21332 0.32296 0.0
C1872 C 0.37014 0.2583 0.2737 0.0
C1873 C 0.38622 0.23438 0.30342 0.0
C1874 C 0.35364 0.26994 0.26574 0.0
C1875 C 0.33467 0.26717 0.27594 0.0
C1876 C 0.36786 0.24426 0.29236 0.0
C1877 C 0.33221 0.25135 0.29321 0.0
C1878 C 0.38706 0.22804 0.3263 0.0
C1879 C 0.41917 0.22132 0.30062 0.0
N1880 N 0.34882 0.24081 0.30119 0.0
N1881 N 0.40254 0.23136 0.29149 0.0
H1882 H 0.35674 0.22829 0.51234 0.0
H1883 H 0.40672 0.11835 0.55739 0.0
H1884 H 0.32073 0.16567 0.53865 0.0
H1885 H 0.44616 0.18023 0.53278 0.0
H1886 H 0.37639 0.13823 0.55422 0.0
H1887 H 0.39074 0.21411 0.52322 0.0
C1888 C 0.35603 0.21175 0.52063 0.0
C1889 C 0.33579 0.19784 0.52415 0.0
C1890 C 0.39169 0.14763 0.54963 0.0
C1891 C 0.37438 0.1814 0.53639 0.0
C1892 C 0.40925 0.13631 0.55166 0.0
C1893 C 0.42928 0.14744 0.5453 0.0
C1894 C 0.3938 0.17033 0.54092 0.0
C1895 C 0.43101 0.17062 0.53749 0.0
C1896 C 0.37538 0.20357 0.52671 0.0
C1897 C 0.3358 0.17657 0.53495 0.0
N1898 N 0.4135 0.18118 0.53535 0.0
N1899 N 0.35463 0.16896 0.54048 0.0
H1900 H 0.74659 0.65405 0.35121 0.0
H1901 H 0.75332 0.76464 0.283 0.0
H1902 H 0.69439 0.69107 0.35395 0.0
H1903 H 0.80716 0.76383 0.33806 0.0
H1904 H 0.72971 0.73248 0.30012 0.0
H1905 H 0.76859 0.68978 0.33869 0.0
C1906 C 0.74027 0.6702 0.35061 0.0
C1907 C 0.71945 0.67036 0.35573 0.0
C1908 C 0.74666 0.73972 0.30843 0.0
C1909 C 0.74319 0.70991 0.33795 0.0
C1910 C 0.76007 0.75784 0.2987 0.0
C1911 C 0.7821 0.76689 0.3093 0.0
C1912 C 0.75571 0.73045 0.32834 0.0
C1913 C 0.79026 0.75734 0.32939 0.0
C1914 C 0.75249 0.69023 0.34256 0.0
C1915 C 0.71085 0.69073 0.35129 0.0
N1916 N 0.77712 0.7394 0.33811 0.0
N1917 N 0.72269 0.70973 0.34231 0.0
H1918 H 0.95512 0.57627 0.82099 0.0
H1919 H 0.83968 0.49871 0.78822 0.0
H1920 H 0.90306 0.61123 0.79743 0.0
H1921 H 0.89177 0.4734 0.76162 0.0
H1922 H 0.86117 0.54031 0.79129 0.0
H1923 H 0.93182 0.53731 0.80099 0.0
C1924 C 0.93868 0.57558 0.81202 0.0
C1925 C 0.93038 0.59647 0.81198 0.0
C1926 C 0.86754 0.52568 0.78401 0.0
C1927 C 0.90434 0.55295 0.78876 0.0
C1928 C 0.8552 0.50196 0.782 0.0
C1929 C 0.86433 0.48268 0.7753 0.0
C1930 C 0.88911 0.52977 0.77972 0.0
C1931 C 0.88458 0.48791 0.76759 0.0
C1932 C 0.92563 0.55365 0.80032 0.0
C1933 C 0.90943 0.59514 0.79922 0.0
N1934 N 0.89679 0.51106 0.77086 0.0
N1935 N 0.89687 0.57358 0.78848 0.0
H1936 H 0.04422 0.87691 0.07388 0.0
H1937 H 0.08943 0.01865 0.07143 0.0
H1938 H 0.09589 0.91946 0.1282 0.0
H1939 H 0.026 0.97844 0.03405 0.0
H1940 H 0.09421 0.98262 0.09 0.0
H1941 H 0.04008 0.91342 0.05714 0.0
C1942 C 0.05485 0.89392 0.08252 0.0
C1943 C 0.07051 0.89473 0.10288 0.0
C1944 C 0.07928 0.98164 0.07773 0.0
C1945 C 0.06556 0.93747 0.08297 0.0
C1946 C 0.07652 1.00218 0.06687 0.0
C1947 C 0.05729 1.00164 0.05081 0.0
C1948 C 0.06288 0.96007 0.07235 0.0
C1949 C 0.04111 0.97978 0.04613 0.0
C1950 C 0.05229 0.91494 0.07275 0.0
C1951 C 0.08363 0.91772 0.11262 0.0
N1952 N 0.04436 0.95986 0.0567 0.0
N1953 N 0.08091 0.93818 0.10253 0.0
H1954 H 0.97021 0.28758 0.85997 0.0
H1955 H 0.86467 0.34515 0.84073 0.0
H1956 H 0.95061 0.32728 0.916 0.0
H1957 H 0.87907 0.29549 0.78862 0.0
H1958 H 0.89664 0.34024 0.86816 0.0
H1959 H 0.9368 0.29006 0.83375 0.0
C1960 C 0.9587 0.29663 0.86679 0.0
C1961 C 0.96335 0.30765 0.89004 0.0
C1962 C 0.89274 0.3303 0.85077 0.0
C1963 C 0.92503 0.31081 0.86004 0.0
C1964 C 0.87457 0.33323 0.83507 0.0
C1965 C 0.86926 0.32087 0.81227 0.0
C1966 C 0.90555 0.31456 0.84381 0.0
C1967 C 0.88269 0.30567 0.80587 0.0
C1968 C 0.9396 0.29806 0.85181 0.0
C1969 C 0.94771 0.31876 0.89811 0.0
N1970 N 0.90009 0.30289 0.82153 0.0
N1971 N 0.92944 0.32043 0.88305 0.0
H1972 H 0.58763 0.28506 0.58866 0.0
H1973 H 0.54772 0.14248 0.59176 0.0
H1974 H 0.56208 0.25384 0.64687 0.0
H1975 H 0.59603 0.17189 0.55046 0.0
H1976 H 0.54918 0.18357 0.60896 0.0
H1977 H 0.58651 0.24404 0.57061 0.0
C1978 C 0.58152 0.26947 0.59745 0.0
C1979 C 0.57454 0.27258 0.61902 0.0
C1980 C 0.5597 0.1811 0.59638 0.0
C1981 C 0.57384 0.22602 0.59897 0.0
C1982 C 0.55894 0.1577 0.58665 0.0
C1983 C 0.57206 0.15394 0.57005 0.0
C1984 C 0.57339 0.20101 0.58914 0.0
C1985 C 0.58604 0.17415 0.56362 0.0
C1986 C 0.58115 0.24619 0.58731 0.0
C1987 C 0.56739 0.25205 0.63011 0.0
N1988 N 0.58622 0.19701 0.57307 0.0
N1989 N 0.56708 0.22958 0.61988 0.0
H1990 H 0.59183 0.86701 0.40923 0.0
H1991 H 0.65752 0.8016 0.32732 0.0
H1992 H 0.57336 0.79093 0.38282 0.0
H1993 H 0.68296 0.87543 0.35982 0.0
H1994 H 0.62617 0.79838 0.34734 0.0
H1995 H 0.62571 0.87114 0.39266 0.0
C1996 C 0.59535 0.85103 0.40058 0.0
C1997 C 0.58027 0.82843 0.39789 0.0
C1998 C 0.63862 0.81527 0.35037 0.0
C1999 C 0.61817 0.83317 0.37802 0.0
C2000 C 0.65649 0.81708 0.33891 0.0
C2001 C 0.67287 0.83863 0.34228 0.0
C2002 C 0.6371 0.83513 0.36551 0.0
C2003 C 0.67063 0.85844 0.35697 0.0
C2004 C 0.61448 0.85345 0.3909 0.0
C2005 C 0.58497 0.80845 0.38583 0.0
N2006 N 0.65304 0.8562 0.36821 0.0
N2007 N 0.60343 0.81133 0.37619 0.0
H2008 H 0.02542 0.22704 0.40906 0.0
H2009 H 0.03396 0.16221 0.52786 0.0
H2010 H 0.02875 0.26308 0.47806 0.0
H2011 H 0.03836 0.12591 0.46133 0.0
H2012 H 0.02946 0.19808 0.5088 0.0
H2013 H 0.028 0.18924 0.42658 0.0
C2014 C 0.02659 0.22704 0.42785 0.0
C2015 C 0.02702 0.24851 0.44206 0.0
C2016 C 0.03138 0.18234 0.49825 0.0
C2017 C 0.0297 0.20502 0.4623 0.0
C2018 C 0.03392 0.16168 0.50918 0.0
C2019 C 0.03656 0.14076 0.4963 0.0
C2020 C 0.03156 0.18252 0.47408 0.0
C2021 C 0.03626 0.14145 0.47204 0.0
C2022 C 0.0281 0.20541 0.43786 0.0
C2023 C 0.02861 0.24722 0.46634 0.0
N2024 N 0.03391 0.16193 0.46179 0.0
N2025 N 0.0298 0.22603 0.47555 0.0
H2026 H 0.64643 0.37589 0.20891 0.0
H2027 H 0.73115 0.29133 0.23311 0.0
H2028 H 0.64996 0.31755 0.15844 0.0
H2029 H 0.74007 0.36235 0.27105 0.0
H2030 H 0.6982 0.29763 0.20858 0.0
H2031 H 0.67881 0.3693 0.23397 0.0
C2032 C 0.65433 0.36203 0.20289 0.0
C2033 C 0.64571 0.34748 0.18143 0.0
C2034 C 0.70729 0.31172 0.22242 0.0
C2035 C 0.68221 0.33918 0.21042 0.0
C2036 C 0.72589 0.308 0.23662 0.0
C2037 C 0.73835 0.32639 0.25407 0.0
C2038 C 0.70103 0.33385 0.22594 0.0
C2039 C 0.73098 0.34776 0.25769 0.0
C2040 C 0.67268 0.35813 0.21728 0.0
C2041 C 0.65635 0.3295 0.17464 0.0
N2042 N 0.71284 0.35093 0.24371 0.0
N2043 N 0.67392 0.32565 0.18922 0.0
H2044 H 0.5514 0.91473 0.91587 0.0
H2045 H 0.54406 0.98696 0.03819 0.0
H2046 H 0.52755 0.87863 0.97263 0.0
H2047 H 0.56048 0.02338 0.97879 0.0
H2048 H 0.53792 0.94761 0.01458 0.0
H2049 H 0.55563 0.95408 0.9387 0.0
C2050 C 0.5472 0.91493 0.93325 0.0
C2051 C 0.53926 0.89287 0.94222 0.0
C2052 C 0.54286 0.9641 1.00658 0.0
C2053 C 0.54392 0.9388 0.96874 0.0
C2054 C 0.54639 0.98673 0.0201 0.0
C2055 C 0.55299 0.00878 0.01065 0.0
C2056 C 0.54631 0.96304 0.98324 0.0
C2057 C 0.5554 0.00703 0.98693 0.0
C2058 C 0.54953 0.93762 0.94627 0.0
C2059 C 0.53404 0.89485 0.96492 0.0
N2060 N 0.55231 0.98467 0.97421 0.0
N2061 N 0.53644 0.91723 0.97726 0.0
H2062 H 0.03007 0.88558 0.67969 0.0
H2063 H 0.95063 0.81861 0.76214 0.0
H2064 H 0.03265 0.8146 0.69967 0.0
H2065 H 0.94824 0.88766 0.73719 0.0
H2066 H 0.9813 0.81653 0.74104 0.0
H2067 H 0.99993 0.88598 0.70111 0.0
C2068 C 0.02374 0.86972 0.68803 0.0
C2069 C 0.03325 0.84967 0.68719 0.0
C2070 C 0.97407 0.83213 0.74023 0.0
C2071 C 0.99927 0.85033 0.71281 0.0
C2072 C 0.9567 0.83335 0.75232 0.0
C2073 C 0.94696 0.8533 0.7512 0.0
C2074 C 0.98155 0.85097 0.72692 0.0
C2075 C 0.95531 0.87197 0.73837 0.0
C2076 C 1.00673 0.87005 0.70057 0.0
C2077 C 0.02512 0.82999 0.69917 0.0
N2078 N 0.97202 0.87031 0.72671 0.0
N2079 N 1.00862 0.83083 0.71159 0.0
H2080 H 0.17447 0.06476 0.92608 0.0
H2081 H 0.07612 0.10526 0.97601 0.0
H2082 H 0.15501 0.13178 0.91489 0.0
H2083 H 0.08121 0.03047 0.97127 0.0
H2084 H 0.10716 0.11562 0.95615 0.0
H2085 H 0.14306 0.05237 0.94637 0.0
C2086 C 0.16394 0.07709 0.92859 0.0
C2087 C 0.16735 0.09947 0.91945 0.0
C2088 C 0.10146 0.09685 0.95913 0.0
C2089 C 0.13157 0.08537 0.9416 0.0
C2090 C 0.08368 0.09091 0.97039 0.0
C2091 C 0.07615 0.06697 0.97502 0.0
C2092 C 0.11207 0.07876 0.95269 0.0
C2093 C 0.0865 0.04906 0.96761 0.0
C2094 C 0.1459 0.06989 0.93969 0.0
C2095 C 0.153 0.11456 0.92216 0.0
N2096 N 0.10424 0.05538 0.95688 0.0
N2097 N 0.13572 0.10723 0.93299 0.0
H2098 H 0.7939 0.41447 0.60945 0.0
H2099 H 0.85298 0.34967 0.711 0.0
H2100 H 0.85642 0.39706 0.60778 0.0
H2101 H 0.7927 0.37203 0.71364 0.0
H2102 H 0.85504 0.36688 0.67349 0.0
H2103 H 0.79332 0.39882 0.64765 0.0
C2104 C 0.80747 0.40726 0.61716 0.0
C2105 C 0.82511 0.40682 0.60541 0.0
C2106 C 0.84138 0.36809 0.68228 0.0
C2107 C 0.82474 0.38894 0.64925 0.0
C2108 C 0.84025 0.35831 0.70368 0.0
C2109 C 0.82275 0.35971 0.71543 0.0
C2110 C 0.82466 0.37896 0.67241 0.0
C2111 C 0.80659 0.3709 0.70521 0.0
C2112 C 0.8072 0.39837 0.63899 0.0
C2113 C 0.84241 0.3975 0.61623 0.0
N2114 N 0.80787 0.37997 0.68431 0.0
N2115 N 0.84179 0.38888 0.63748 0.0
H2116 H 0.49771 0.13346 0.36479 0.0
H2117 H 0.55951 0.14997 0.49491 0.0
H2118 H 0.4852 0.18694 0.41461 0.0
H2119 H 0.52515 0.07862 0.46079 0.0
H2120 H 0.54151 0.16819 0.46272 0.0
H2121 H 0.51816 0.11773 0.39701 0.0
C2122 C 0.50013 0.14257 0.38244 0.0
C2123 C 0.49023 0.16185 0.38715 0.0
C2124 C 0.53795 0.14857 0.4624 0.0
C2125 C 0.51329 0.14388 0.42377 0.0
C2126 C 0.54813 0.13819 0.48062 0.0
C2127 C 0.54366 0.11283 0.48039 0.0
C2128 C 0.5238 0.13342 0.44355 0.0
C2129 C 0.52885 0.09827 0.46159 0.0
C2130 C 0.5114 0.1333 0.40074 0.0
C2131 C 0.49297 0.17235 0.41035 0.0
N2132 N 0.51961 0.1088 0.44365 0.0
N2133 N 0.50444 0.16331 0.42791 0.0
H2134 H 0.80603 0.79079 0.0847 0.0
H2135 H 0.76404 0.76707 0.20626 0.0
H2136 H 0.77123 0.72039 0.0983 0.0
H2137 H 0.81665 0.82765 0.20031 0.0
H2138 H 0.76291 0.75176 0.16516 0.0
H2139 H 0.80708 0.80656 0.12559 0.0
C2140 C 0.79868 0.77861 0.09626 0.0
C2141 C 0.78854 0.75417 0.08794 0.0
C2142 C 0.77462 0.76848 0.17282 0.0
C2143 C 0.78936 0.77227 0.13478 0.0
C2144 C 0.77515 0.7773 0.19621 0.0
C2145 C 0.7905 0.7986 0.20674 0.0
C2146 C 0.78922 0.78134 0.15965 0.0
C2147 C 0.80467 0.81102 0.19294 0.0
C2148 C 0.79928 0.78764 0.11962 0.0
C2149 C 0.77928 0.73931 0.10385 0.0
N2150 N 0.80362 0.80231 0.17014 0.0
N2151 N 0.77977 0.7486 0.12634 0.0
H2152 H 0.12834 0.06824 0.79979 0.0
H2153 H 0.12991 0.10401 0.6713 0.0
H2154 H 0.18581 0.10779 0.77602 0.0
H2155 H 0.0731 0.05913 0.69167 0.0
H2156 H 0.15151 0.10187 0.70888 0.0
H2157 H 0.10872 0.06056 0.75951 0.0
C2158 C 0.13687 0.07506 0.78601 0.0
C2159 C 0.15856 0.08892 0.79106 0.0
C2160 C 0.13445 0.09206 0.7051 0.0
C2161 C 0.13635 0.08031 0.74534 0.0
C2162 C 0.12218 0.09323 0.68366 0.0
C2163 C 0.09992 0.0815 0.67862 0.0
C2164 C 0.12429 0.07922 0.72162 0.0
C2165 C 0.09032 0.06834 0.6952 0.0
C2166 C 0.1257 0.07062 0.76308 0.0
C2167 C 0.16903 0.09712 0.77275 0.0
N2168 N 0.10264 0.06763 0.71623 0.0
N2169 N 0.15769 0.09291 0.75062 0.0
H2170 H 0.80921 0.37515 0.47902 0.0
H2171 H 0.81597 0.38226 0.34103 0.0
H2172 H 0.82327 0.44241 0.44822 0.0
H2173 H 0.79218 0.31543 0.36929 0.0
H2174 H 0.82097 0.40441 0.3806 0.0
H2175 H 0.80487 0.35271 0.43973 0.0
C2176 C 0.8113 0.38528 0.46416 0.0
C2177 C 0.81643 0.41094 0.46737 0.0
C2178 C 0.81457 0.38488 0.37812 0.0
C2179 C 0.8118 0.38512 0.42188 0.0
C2180 C 0.81167 0.37222 0.3554 0.0
C2181 C 0.80334 0.34683 0.35144 0.0
C2182 C 0.80928 0.3722 0.39729 0.0
C2183 C 0.79842 0.33496 0.37116 0.0
C2184 C 0.80886 0.37241 0.44161 0.0
C2185 C 0.8191 0.42275 0.44704 0.0
N2186 N 0.80144 0.34759 0.39294 0.0
N2187 N 0.81685 0.4099 0.42553 0.0
H2188 H 0.44279 0.14108 0.23668 0.0
H2189 H 0.54078 0.08631 0.20213 0.0
H2190 H 0.50909 0.15955 0.27536 0.0
H2191 H 0.48278 0.08503 0.15177 0.0
H2192 H 0.52533 0.10571 0.23214 0.0
H2193 H 0.45443 0.11582 0.20707 0.0
C2194 C 0.45988 0.14033 0.23863 0.0
C2195 C 0.47507 0.15278 0.25831 0.0
C2196 C 0.5159 0.10102 0.21456 0.0
C2197 C 0.48816 0.12316 0.22525 0.0
C2198 C 0.52456 0.08959 0.19746 0.0
C2199 C 0.51325 0.0845 0.17427 0.0
C2200 C 0.49583 0.1075 0.20844 0.0
C2201 C 0.4923 0.08928 0.16932 0.0
C2202 C 0.46642 0.12567 0.22194 0.0
C2203 C 0.4969 0.15072 0.26026 0.0
N2204 N 0.48434 0.10084 0.18623 0.0
N2205 N 0.50272 0.13599 0.24408 0.0
H2206 H 0.75889 0.72786 0.92556 0.0
H2207 H 0.83876 0.8335 0.874 0.0
H2208 H 0.81401 0.77816 0.96903 0.0
H2209 H 0.77738 0.79154 0.83394 0.0
H2210 H 0.83067 0.81285 0.90816 0.0
H2211 H 0.76558 0.75038 0.89222 0.0
C2212 C 0.77232 0.74382 0.92828 0.0
C2213 C 0.78559 0.75116 0.95059 0.0
C2214 C 0.81882 0.8082 0.89202 0.0
C2215 C 0.79403 0.77694 0.91144 0.0
C2216 C 0.82341 0.82004 0.87232 0.0
C2217 C 0.80869 0.81457 0.85075 0.0
C2218 C 0.79925 0.79037 0.89055 0.0
C2219 C 0.78925 0.79661 0.84998 0.0
C2220 C 0.77621 0.75668 0.90901 0.0
C2221 C 0.80298 0.77194 0.95248 0.0
N2222 N 0.78516 0.78523 0.86944 0.0
N2223 N 0.80679 0.78384 0.93324 0.0
H2224 H 0.81925 0.15742 0.97246 0.0
H2225 H 0.94118 0.15284 0.02838 0.0
H2226 H 0.85322 0.20121 0.03722 0.0
H2227 H 0.89865 0.09946 0.97428 0.0
H2228 H 0.9117 0.17425 0.02929 0.0
H2229 H 0.85057 0.14033 0.97042 0.0
C2230 C 0.83331 0.1636 0.98642 0.0
C2231 C 0.8332 0.18075 1.00536 0.0
C2232 C 0.9089 0.1579 0.01719 0.0
C2233 C 0.86988 0.16079 1.00276 0.0
C2234 C 0.92571 0.1455 0.01669 0.0
C2235 C 0.92252 0.1239 1.00145 0.0
C2236 C 0.8887 0.14893 1.00217 0.0
C2237 C 0.90219 0.11599 0.98625 0.0
C2238 C 0.85134 0.15367 0.98511 0.0
C2239 C 0.85237 0.18803 0.02239 0.0
N2240 N 0.88616 0.1284 0.98708 0.0
N2241 N 0.86991 0.17791 0.02075 0.0
H2242 H 0.37737 0.50002 0.0601 0.0
H2243 H 0.50015 0.50948 0.03419 0.0
H2244 H 0.39875 0.43783 0.03371 0.0
H2245 H 0.47227 0.57178 0.0425 0.0
H2246 H 0.46451 0.48285 0.0369 0.0
H2247 H 0.41305 0.52626 0.05715 0.0
C2248 C 0.38952 0.49189 0.05346 0.0
C2249 C 0.38461 0.46676 0.0462 0.0
C2250 C 0.46614 0.50234 0.03802 0.0
C2251 C 0.42621 0.49673 0.04369 0.0
C2252 C 0.48655 0.51761 0.03643 0.0
C2253 C 0.48941 0.54308 0.03804 0.0
C2254 C 0.44827 0.51243 0.04146 0.0
C2255 C 0.47102 0.55236 0.04115 0.0
C2256 C 0.41 0.50689 0.05193 0.0
C2257 C 0.40153 0.45716 0.03896 0.0
N2258 N 0.45144 0.53717 0.04283 0.0
N2259 N 0.4214 0.47208 0.03775 0.0
H2260 H 0.41423 0.60046 0.76462 0.0
H2261 H 0.34005 0.69458 0.73553 0.0
H2262 H 0.38204 0.60714 0.69543 0.0
H2263 H 0.36373 0.68256 0.80623 0.0
H2264 H 0.36041 0.66687 0.72076 0.0
H2265 H 0.40186 0.63551 0.78027 0.0
C2266 C 0.40538 0.61012 0.75262 0.0
C2267 C 0.39945 0.60151 0.72869 0.0
C2268 C 0.36143 0.67039 0.73953 0.0
C2269 C 0.38471 0.6407 0.74637 0.0
C2270 C 0.34985 0.68625 0.74794 0.0
C2271 C 0.35048 0.69093 0.77206 0.0
C2272 C 0.37377 0.65904 0.75533 0.0
C2273 C 0.36294 0.67931 0.78747 0.0
C2274 C 0.39805 0.62979 0.76158 0.0
C2275 C 0.3873 0.61374 0.71387 0.0
N2276 N 0.37418 0.66379 0.77881 0.0
N2277 N 0.38017 0.63268 0.72301 0.0
H2278 H 0.20708 0.71101 0.51499 0.0
H2279 H 0.12743 0.58353 0.50269 0.0
H2280 H 0.23678 0.64989 0.5208 0.0
H2281 H 0.12853 0.63367 0.56289 0.0
H2282 H 0.16249 0.60915 0.49662 0.0
H2283 H 0.17216 0.68471 0.52072 0.0
C2284 C 0.20609 0.69191 0.51659 0.0
C2285 C 0.22457 0.68223 0.51583 0.0
C2286 C 0.155 0.61434 0.51119 0.0
C2287 C 0.18492 0.65229 0.52212 0.0
C2288 C 0.13517 0.59976 0.51474 0.0
C2289 C 0.12531 0.60633 0.53354 0.0
C2290 C 0.16445 0.63607 0.52595 0.0
C2291 C 0.13582 0.62775 0.54845 0.0
C2292 C 0.18628 0.67703 0.51995 0.0
C2293 C 0.2226 0.6576 0.51911 0.0
N2294 N 0.15469 0.64209 0.54414 0.0
N2295 N 0.20307 0.64334 0.52168 0.0
H2296 H 0.68795 0.94124 0.72862 0.0
H2297 H 0.76856 0.89141 0.82238 0.0
H2298 H 0.6802 0.93504 0.80045 0.0
H2299 H 0.77212 0.88631 0.74883 0.0
H2300 H 0.73743 0.91037 0.81452 0.0
H2301 H 0.7181 0.9204 0.73451 0.0
C2302 C 0.69186 0.9344 0.74526 0.0
C2303 C 0.68148 0.93964 0.76403 0.0
C2304 C 0.74516 0.90543 0.80009 0.0
C2305 C 0.71657 0.91716 0.77128 0.0
C2306 C 0.76317 0.89511 0.8047 0.0
C2307 C 0.77315 0.88809 0.78632 0.0
C2308 C 0.73679 0.90813 0.77683 0.0
C2309 C 0.76519 0.89232 0.76352 0.0
C2310 C 0.70943 0.92308 0.7488 0.0
C2311 C 0.68768 0.93112 0.78548 0.0
N2312 N 0.7473 0.90192 0.75934 0.0
N2313 N 0.70506 0.92072 0.78864 0.0
H2314 H 0.7862 0.99555 0.55625 0.0
H2315 H 0.6574 0.97561 0.51831 0.0
H2316 H 0.74904 0.92592 0.52068 0.0
H2317 H 0.70439 0.04397 0.5212 0.0
H2318 H 0.68801 0.95496 0.52348 0.0
H2319 H 0.75343 0.01132 0.55 0.0
C2320 C 0.77093 0.98334 0.54765 0.0
C2321 C 0.77039 0.95932 0.53918 0.0
C2322 C 0.69146 0.97443 0.52273 0.0
C2323 C 0.7325 0.97753 0.53149 0.0
C2324 C 0.67408 0.98624 0.51987 0.0
C2325 C 0.67831 0.01163 0.51945 0.0
C2326 C 0.71317 0.98824 0.52576 0.0
C2327 C 0.70021 0.02442 0.52126 0.0
C2328 C 0.75224 0.99246 0.5438 0.0
C2329 C 0.75008 0.94441 0.52791 0.0
N2330 N 0.71671 0.01267 0.52461 0.0
N2331 N 0.73185 0.9538 0.52427 0.0
H2332 H 0.36079 0.47828 0.68957 0.0
H2333 H 0.34794 0.38321 0.78132 0.0
H2334 H 0.41636 0.46516 0.73498 0.0
H2335 H 0.29684 0.38487 0.72361 0.0
H2336 H 0.37419 0.41089 0.76313 0.0
H2337 H 0.33791 0.44106 0.6991 0.0
C2338 C 0.36816 0.46719 0.70127 0.0
C2339 C 0.39012 0.47479 0.71209 0.0
C2340 C 0.35729 0.40488 0.7543 0.0
C2341 C 0.36431 0.43265 0.72334 0.0
C2342 C 0.34234 0.38922 0.76473 0.0
C2343 C 0.32032 0.3817 0.75382 0.0
C2344 C 0.34991 0.41342 0.73319 0.0
C2345 C 0.31371 0.39027 0.73258 0.0
C2346 C 0.3552 0.44595 0.70667 0.0
C2347 C 0.39927 0.45983 0.7267 0.0
N2348 N 0.32841 0.40584 0.72306 0.0
N2349 N 0.38614 0.43964 0.73244 0.0
H2350 H 0.19573 0.54853 0.23718 0.0
H2351 H 0.24373 0.67785 0.3113 0.0
H2352 H 0.15935 0.5806 0.28272 0.0
H2353 H 0.26988 0.65177 0.2524 0.0
H2354 H 0.21526 0.63998 0.30511 0.0
H2355 H 0.22413 0.58587 0.244 0.0
C2356 C 0.19368 0.56381 0.24836 0.0
C2357 C 0.17581 0.56169 0.26004 0.0
C2358 C 0.22745 0.64256 0.29379 0.0
C2359 C 0.20813 0.60408 0.26823 0.0
C2360 C 0.2439 0.66385 0.29757 0.0
C2361 C 0.25864 0.66826 0.28179 0.0
C2362 C 0.2264 0.62548 0.27464 0.0
C2363 C 0.25869 0.64935 0.26481 0.0
C2364 C 0.20987 0.58503 0.25234 0.0
C2365 C 0.17332 0.58178 0.27388 0.0
N2366 N 0.24248 0.6289 0.26141 0.0
N2367 N 0.18971 0.60231 0.27803 0.0
H2368 H 0.56662 0.76247 0.45737 0.0
H2369 H 0.51485 0.63924 0.50888 0.0
H2370 H 0.49734 0.73105 0.4493 0.0
H2371 H 0.58428 0.66251 0.50872 0.0
H2372 H 0.50896 0.67425 0.4893 0.0
H2373 H 0.57407 0.72747 0.47715 0.0
C2374 C 0.55297 0.74806 0.45957 0.0
C2375 C 0.53131 0.74952 0.45131 0.0
C2376 C 0.52554 0.67187 0.49355 0.0
C2377 C 0.53969 0.70965 0.47471 0.0
C2378 C 0.52899 0.65179 0.50493 0.0
C2379 C 0.55017 0.64766 0.51067 0.0
C2380 C 0.54333 0.68836 0.48762 0.0
C2381 C 0.56768 0.66489 0.50492 0.0
C2382 C 0.55724 0.72812 0.47097 0.0
C2383 C 0.51428 0.73049 0.45496 0.0
N2384 N 0.56387 0.68436 0.49371 0.0
N2385 N 0.51882 0.71155 0.46644 0.0
H2386 H 0.63329 0.32561 0.70218 0.0
H2387 H 0.76171 0.37944 0.73668 0.0
H2388 H 0.6681 0.3696 0.65657 0.0
H2389 H 0.73195 0.30865 0.7537 0.0
H2390 H 0.72737 0.37954 0.71048 0.0
H2391 H 0.66847 0.32246 0.72461 0.0
C2392 C 0.64839 0.33483 0.69701 0.0
C2393 C 0.6477 0.34815 0.67759 0.0
C2394 C 0.72835 0.36393 0.71983 0.0
C2395 C 0.68827 0.34487 0.70357 0.0
C2396 C 0.74794 0.36387 0.73484 0.0
C2397 C 0.74976 0.34398 0.74737 0.0
C2398 C 0.71001 0.34433 0.7179 0.0
C2399 C 0.73134 0.32429 0.74429 0.0
C2400 C 0.66847 0.33284 0.70974 0.0
C2401 C 0.66782 0.35928 0.67147 0.0
N2402 N 0.71217 0.32513 0.73021 0.0
N2403 N 0.68725 0.35774 0.68462 0.0
H2404 H 0.99444 0.37732 0.95808 0.0
H2405 H 0.07532 0.50307 0.01654 0.0
H2406 H 0.06308 0.39666 0.95337 0.0
H2407 H 1.00611 0.49705 0.99312 0.0
H2408 H 0.0705 0.46063 1.00185 0.0
H2409 H 0.99819 0.41773 0.97938 0.0
C2410 C 0.01042 0.38988 0.96219 0.0
C2411 C 0.02857 0.3838 0.95432 0.0
C2412 C 0.05636 0.46857 0.99993 0.0
C2413 C 0.03292 0.42965 0.97831 0.0
C2414 C 0.05904 0.49288 0.00829 0.0
C2415 C 0.04111 0.50386 1.00577 0.0
C2416 C 0.03558 0.45489 0.98906 0.0
C2417 C 0.02041 0.48941 0.99526 0.0
C2418 C 0.01248 0.41291 0.97405 0.0
C2419 C 0.04881 0.4007 0.95947 0.0
N2420 N 0.01821 0.46561 0.98717 0.0
N2421 N 0.05047 0.4229 0.9712 0.0
H2422 H 0.04171 0.82891 0.19816 0.0
H2423 H 0.91161 0.81125 0.19009 0.0
H2424 H 0.99617 0.83007 0.13512 0.0
H2425 H 0.95562 0.81385 0.25518 0.0
H2426 H 0.94268 0.8151 0.16942 0.0
H2427 H 0.01074 0.82173 0.21961 0.0
C2428 C 0.02533 0.82805 0.18893 0.0
C2429 C 0.02159 0.83023 0.16484 0.0
C2430 C 0.94559 0.81476 0.18823 0.0
C2431 C 0.98619 0.82158 0.18902 0.0
C2432 C 0.92782 0.81259 0.20002 0.0
C2433 C 0.93106 0.81256 0.22441 0.0
C2434 C 0.96683 0.81712 0.20092 0.0
C2435 C 0.95238 0.81377 0.23634 0.0
C2436 C 1.00765 0.82369 0.20109 0.0
C2437 C 0.99993 0.8285 0.15367 0.0
N2438 N 0.9695 0.81623 0.22451 0.0
N2439 N 0.98315 0.82425 0.1658 0.0
H2440 H 0.59606 0.42196 0.14607 0.0
H2441 H 0.55471 0.4881 0.03562 0.0
H2442 H 0.55147 0.38699 0.08293 0.0
H2443 H 0.58418 0.53078 0.10206 0.0
H2444 H 0.55793 0.45141 0.05312 0.0
H2445 H 0.59626 0.46188 0.13111 0.0
C2446 C 0.58641 0.4225 0.12914 0.0
C2447 C 0.57367 0.40064 0.11593 0.0
C2448 C 0.56383 0.46869 0.06406 0.0
C2449 C 0.57392 0.44647 0.09862 0.0
C2450 C 0.56207 0.48993 0.05395 0.0
C2451 C 0.56919 0.51298 0.06718 0.0
C2452 C 0.57298 0.46986 0.08787 0.0
C2453 C 0.57843 0.51356 0.09103 0.0
C2454 C 0.58646 0.44537 0.12065 0.0
C2455 C 0.56153 0.40291 0.09408 0.0
N2456 N 0.5801 0.4924 0.10058 0.0
N2457 N 0.56203 0.42502 0.08631 0.0
H2458 H 0.95376 0.32913 0.41331 0.0
H2459 H 0.87801 0.29853 0.28615 0.0
H2460 H 0.97147 0.29091 0.35493 0.0
H2461 H 0.87391 0.35536 0.33788 0.0
H2462 H 0.90971 0.29126 0.31213 0.0
H2463 H 0.91998 0.3322 0.38781 0.0
C2464 C 0.95034 0.32112 0.39519 0.0
C2465 C 0.96577 0.31083 0.3858 0.0
C2466 C 0.90194 0.30538 0.31776 0.0
C2467 C 0.92736 0.31399 0.35674 0.0
C2468 C 0.88406 0.30971 0.30285 0.0
C2469 C 0.8736 0.32775 0.30984 0.0
C2470 C 0.90891 0.31867 0.3401 0.0
C2471 C 0.88182 0.34158 0.33172 0.0
C2472 C 0.9312 0.323 0.38063 0.0
C2473 C 0.96034 0.29997 0.36248 0.0
N2474 N 0.89884 0.33655 0.34622 0.0
N2475 N 0.9417 0.3021 0.34861 0.0
H2476 H 0.06736 0.77955 0.58564 0.0
H2477 H 0.06417 0.63769 0.59845 0.0
H2478 H 0.07582 0.75257 0.65289 0.0
H2479 H 0.04966 0.66583 0.53268 0.0
H2480 H 0.07033 0.67917 0.61894 0.0
H2481 H 0.06302 0.73836 0.56645 0.0
C2482 C 0.06806 0.76495 0.59646 0.0
C2483 C 0.07168 0.76983 0.62107 0.0
C2484 C 0.06591 0.67633 0.60001 0.0
C2485 C 0.06669 0.72178 0.59883 0.0
C2486 C 0.06243 0.65259 0.58829 0.0
C2487 C 0.05614 0.64807 0.56375 0.0
C2488 C 0.06353 0.69599 0.58714 0.0
C2489 C 0.05412 0.66822 0.5516 0.0
C2490 C 0.06565 0.74127 0.5854 0.0
C2491 C 0.0729 0.74989 0.63392 0.0
N2492 N 0.05785 0.69107 0.56331 0.0
N2493 N 0.07034 0.7269 0.62273 0.0
H2494 H 0.55716 0.78946 0.85427 0.0
H2495 H 0.68352 0.83914 0.84374 0.0
H2496 H 0.60145 0.84726 0.90217 0.0
H2497 H 0.64095 0.77599 0.80078 0.0
H2498 H 0.65333 0.84355 0.86399 0.0
H2499 H 0.58725 0.78502 0.83366 0.0
C2500 C 0.57341 0.80086 0.86075 0.0
C2501 C 0.57699 0.81836 0.8803 0.0
C2502 C 0.65059 0.82872 0.85014 0.0
C2503 C 0.61152 0.81382 0.85645 0.0
C2504 C 0.6679 0.82609 0.83857 0.0
C2505 C 0.66509 0.8069 0.82064 0.0
C2506 C 0.63011 0.81211 0.84382 0.0
C2507 C 0.64409 0.79113 0.81438 0.0
C2508 C 0.59055 0.79845 0.84888 0.0
C2509 C 0.59818 0.8331 0.8876 0.0
N2510 N 0.62752 0.79402 0.82598 0.0
N2511 N 0.61464 0.83053 0.87566 0.0
H2512 H 0.43794 0.5191 0.63618 0.0
H2513 H 0.53801 0.61693 0.60434 0.0
H2514 H 0.45892 0.59326 0.66864 0.0
H2515 H 0.51446 0.5437 0.56945 0.0
H2516 H 0.50772 0.60946 0.62664 0.0
H2517 H 0.46396 0.52863 0.60913 0.0
C2518 C 0.4474 0.53763 0.63689 0.0
C2519 C 0.44609 0.55562 0.65415 0.0
C2520 C 0.50915 0.5951 0.61397 0.0
C2521 C 0.47625 0.56654 0.62407 0.0
C2522 C 0.52647 0.59937 0.60138 0.0
C2523 C 0.52868 0.58099 0.58506 0.0
C2524 C 0.49413 0.57224 0.61023 0.0
C2525 C 0.51328 0.55848 0.58178 0.0
C2526 C 0.46248 0.54302 0.62174 0.0
C2527 C 0.45932 0.57908 0.6552 0.0
N2528 N 0.49673 0.55473 0.59429 0.0
N2529 N 0.47396 0.58387 0.64045 0.0
H2530 H 0.8029 0.27657 0.97023 0.0
H2531 H 0.77341 0.2622 0.82889 0.0
H2532 H 0.7634 0.21248 0.92598 0.0
H2533 H 0.80794 0.33069 0.86898 0.0
H2534 H 0.77014 0.24434 0.86543 0.0
H2535 H 0.80571 0.29763 0.93461 0.0
C2536 C 0.79471 0.26698 0.95328 0.0
C2537 C 0.78295 0.24258 0.95143 0.0
C2538 C 0.77837 0.26334 0.86636 0.0
C2539 C 0.78608 0.26648 0.91064 0.0
C2540 C 0.78018 0.27355 0.84538 0.0
C2541 C 0.79074 0.29806 0.84572 0.0
C2542 C 0.78745 0.27754 0.88811 0.0
C2543 C 0.79933 0.31179 0.86781 0.0
C2544 C 0.79635 0.27897 0.93292 0.0
C2545 C 0.77279 0.23116 0.92874 0.0
N2546 N 0.79762 0.30135 0.88806 0.0
N2547 N 0.77464 0.24309 0.90957 0.0
H2548 H 0.14769 0.53731 0.1883 0.0
H2549 H 0.04836 0.51137 0.07972 0.0
H2550 H 0.09982 0.46884 0.17105 0.0
H2551 H 0.09224 0.58182 0.10199 0.0
H2552 H 0.06874 0.4945 0.11099 0.0
H2553 H 0.12917 0.55298 0.15504 0.0
C2554 C 0.13365 0.52528 0.177 0.0
C2555 C 0.12556 0.5015 0.18203 0.0
C2556 C 0.07391 0.51365 0.1091 0.0
C2557 C 0.10409 0.51947 0.14399 0.0
C2558 C 0.06228 0.52328 0.09129 0.0
C2559 C 0.06858 0.54801 0.08847 0.0
C2560 C 0.0919 0.52892 0.12429 0.0
C2561 C 0.0869 0.56262 0.10362 0.0
C2562 C 0.12292 0.53436 0.15817 0.0
C2563 C 0.10673 0.48712 0.1675 0.0
N2564 N 0.09786 0.55288 0.12101 0.0
N2565 N 0.09667 0.4963 0.14903 0.0
H2566 H 0.83438 0.87752 0.4849 0.0
H2567 H 0.78815 0.87781 0.34811 0.0
H2568 H 0.79005 0.92026 0.45708 0.0
H2569 H 0.83441 0.83549 0.37124 0.0
H2570 H 0.78822 0.89194 0.38877 0.0
H2571 H 0.83292 0.85887 0.44466 0.0
C2572 C 0.82392 0.88253 0.47048 0.0
C2573 C 0.81237 0.90058 0.47445 0.0
C2574 C 0.7984 0.87955 0.38517 0.0
C2575 C 0.81108 0.87984 0.4284 0.0
C2576 C 0.79842 0.87157 0.36187 0.0
C2577 C 0.81139 0.85562 0.35629 0.0
C2578 C 0.81121 0.87129 0.40337 0.0
C2579 C 0.82442 0.8481 0.37483 0.0
C2580 C 0.82334 0.87213 0.44748 0.0
C2581 C 0.79935 0.90657 0.45498 0.0
N2582 N 0.82392 0.8559 0.3976 0.0
N2583 N 0.79922 0.89644 0.43298 0.0
H2584 H 0.42815 0.57398 0.7981 0.0
H2585 H 0.53941 0.55921 0.86549 0.0
H2586 H 0.47486 0.54469 0.76477 0.0
H2587 H 0.49999 0.60284 0.89481 0.0
H2588 H 0.5199 0.56089 0.82654 0.0
H2589 H 0.45675 0.59031 0.83203 0.0
C2590 C 0.44444 0.57106 0.7979 0.0
C2591 C 0.44907 0.55755 0.77887 0.0
C2592 C 0.51593 0.57078 0.84137 0.0
C2593 C 0.48183 0.57638 0.81734 0.0
C2594 C 0.52724 0.57002 0.86358 0.0
C2595 C 0.52089 0.58053 0.8832 0.0
C2596 C 0.49805 0.5818 0.83904 0.0
C2597 C 0.50492 0.5941 0.87995 0.0
C2598 C 0.46082 0.58064 0.81713 0.0
C2599 C 0.47052 0.55471 0.77926 0.0
N2600 N 0.49358 0.59384 0.85821 0.0
N2601 N 0.48607 0.56378 0.79839 0.0
H2602 H 0.77501 0.21746 0.10239 0.0
H2603 H 0.83389 0.33491 0.19681 0.0
H2604 H 0.82122 0.28003 0.08801 0.0
H2605 H 0.78748 0.2746 0.21476 0.0
H2606 H 0.82954 0.31386 0.15755 0.0
H2607 H 0.77903 0.23656 0.14299 0.0
C2608 C 0.78625 0.23506 0.10775 0.0
C2609 C 0.79797 0.24687 0.09143 0.0
C2610 C 0.82029 0.305 0.16993 0.0
C2611 C 0.80268 0.26914 0.13853 0.0
C2612 C 0.82283 0.31707 0.19263 0.0
C2613 C 0.81128 0.30664 0.20963 0.0
C2614 C 0.8058 0.282 0.16341 0.0
C2615 C 0.79708 0.28339 0.20261 0.0
C2616 C 0.78846 0.24605 0.13105 0.0
C2617 C 0.81188 0.26996 0.09967 0.0
N2618 N 0.7947 0.27198 0.18016 0.0
N2619 N 0.81384 0.28011 0.12235 0.0
H2620 H 0.10361 0.51365 0.28472 0.0
H2621 H 0.12583 0.57351 0.41675 0.0
H2622 H 0.14403 0.49066 0.34131 0.0
H2623 H 0.06533 0.57187 0.37033 0.0
H2624 H 0.13694 0.54998 0.38561 0.0
H2625 H 0.09126 0.53899 0.31341 0.0
C2626 C 0.10911 0.51299 0.3032 0.0
C2627 C 0.1249 0.49997 0.31066 0.0
C2628 C 0.12128 0.55492 0.38226 0.0
C2629 C 0.11167 0.52978 0.34327 0.0
C2630 C 0.11501 0.56844 0.39992 0.0
C2631 C 0.09436 0.57402 0.39631 0.0
C2632 C 0.10684 0.54704 0.36087 0.0
C2633 C 0.0813 0.56775 0.37393 0.0
C2634 C 0.10242 0.52792 0.3195 0.0
C2635 C 0.13183 0.50036 0.33483 0.0
N2636 N 0.08764 0.55428 0.35706 0.0
N2637 N 0.12553 0.51548 0.35025 0.0
H2638 H 0.82083 0.93514 0.63136 0.0
H2639 H 0.79885 0.81057 0.69272 0.0
H2640 H 0.81636 0.86392 0.59638 0.0
H2641 H 0.80731 0.88073 0.73161 0.0
H2642 H 0.80593 0.83052 0.6578 0.0
H2643 H 0.81573 0.91667 0.66789 0.0
C2644 C 0.81894 0.91568 0.63129 0.0
C2645 C 0.81916 0.90123 0.61046 0.0
C2646 C 0.80638 0.84172 0.67392 0.0
C2647 C 0.81341 0.87976 0.6527 0.0
C2648 C 0.80247 0.83025 0.69402 0.0
C2649 C 0.80287 0.84386 0.71545 0.0
C2650 C 0.81021 0.86725 0.67467 0.0
C2651 C 0.80734 0.86942 0.71573 0.0
C2652 C 0.816 0.9051 0.65226 0.0
C2653 C 0.8163 0.876 0.61173 0.0
N2654 N 0.81062 0.88019 0.69574 0.0
N2655 N 0.81365 0.86626 0.63223 0.0
H2656 H 0.77179 0.45536 0.57378 0.0
H2657 H 0.68949 0.53559 0.52164 0.0
H2658 H 0.77196 0.48726 0.50882 0.0
H2659 H 0.69077 0.51587 0.59188 0.0
H2660 H 0.71904 0.51568 0.51736 0.0
H2661 H 0.74145 0.47436 0.58132 0.0
C2662 C 0.76524 0.4659 0.56091 0.0
C2663 C 0.77437 0.46941 0.54043 0.0
C2664 C 0.71297 0.51549 0.53378 0.0
C2665 C 0.73995 0.49145 0.54911 0.0
C2666 C 0.6959 0.52685 0.53618 0.0
C2667 C 0.68729 0.52719 0.557 0.0
C2668 C 0.72176 0.50394 0.55224 0.0
C2669 C 0.69682 0.51599 0.57545 0.0
C2670 C 0.74809 0.47697 0.56537 0.0
C2671 C 0.76553 0.48382 0.52476 0.0
N2672 N 0.71344 0.50464 0.57259 0.0
N2673 N 0.74901 0.49413 0.52942 0.0
H2674 H 0.23514 0.15709 0.52263 0.0
H2675 H 0.10724 0.1447 0.5276 0.0
H2676 H 0.20106 0.2113 0.50023 0.0
H2677 H 0.13497 0.082 0.52227 0.0
H2678 H 0.14248 0.17053 0.52247 0.0
H2679 H 0.19994 0.13024 0.52611 0.0
C2680 C 0.22019 0.16304 0.51756 0.0
C2681 C 0.22113 0.18602 0.50961 0.0
C2682 C 0.14088 0.15111 0.52242 0.0
C2683 C 0.18053 0.15606 0.51588 0.0
C2684 C 0.12071 0.13631 0.52549 0.0
C2685 C 0.11786 0.11094 0.52539 0.0
C2686 C 0.1587 0.14073 0.51944 0.0
C2687 C 0.13619 0.10136 0.52253 0.0
C2688 C 0.20005 0.14786 0.52009 0.0
C2689 C 0.20121 0.19346 0.50556 0.0
N2690 N 0.15565 0.11614 0.51977 0.0
N2691 N 0.18192 0.1787 0.50881 0.0
H2692 H 0.25114 0.05963 0.87482 0.0
H2693 H 0.22753 0.94613 0.77856 0.0
H2694 H 0.18868 0.03846 0.82778 0.0
H2695 H 0.29182 0.99216 0.80499 0.0
H2696 H 0.21117 0.97659 0.79741 0.0
H2697 H 0.26454 0.03025 0.85195 0.0
C2698 C 0.24007 0.04854 0.85992 0.0
C2699 C 0.21872 0.0516 0.85331 0.0
C2700 C 0.22883 0.98004 0.79879 0.0
C2701 C 0.23417 0.01793 0.82681 0.0
C2702 C 0.2381 0.96277 0.78808 0.0
C2703 C 0.261 0.96675 0.79042 0.0
C2704 C 0.24269 1.00081 0.81239 0.0
C2705 C 0.2741 0.98852 0.80274 0.0
C2706 C 0.24785 0.03194 0.84669 0.0
C2707 C 0.20522 0.03662 0.83368 0.0
N2708 N 0.26478 1.00456 0.81357 0.0
N2709 N 0.21319 0.02038 0.82105 0.0
H2710 H 0.38104 0.99745 0.06831 0.0
H2711 H 0.48417 0.02534 1.00442 0.0
H2712 H 0.39774 0.94286 0.02336 0.0
H2713 H 0.4843 0.06578 0.07048 0.0
H2714 H 0.45002 0.99739 0.00868 0.0
H2715 H 0.4171 0.02453 0.06838 0.0
C2716 C 0.39238 0.99119 0.0585 0.0
C2717 C 0.38618 0.96838 0.04496 0.0
C2718 C 0.45742 0.01248 0.02217 0.0
C2719 C 0.42726 0.99904 0.04502 0.0
C2720 C 0.47673 0.02863 0.01959 0.0
C2721 C 0.48696 0.04799 0.03704 0.0
C2722 C 0.44791 0.01599 0.04208 0.0
C2723 C 0.47687 0.05108 0.05661 0.0
C2724 C 0.41295 0.00655 0.05868 0.0
C2725 C 0.40171 0.96064 0.0334 0.0
N2726 N 0.45777 0.03535 0.05852 0.0
N2727 N 0.42136 0.97616 0.03323 0.0
H2728 H 0.90353 0.71087 0.85225 0.0
H2729 H 0.85853 0.78581 0.75471 0.0
H2730 H 0.93099 0.718 0.78883 0.0
H2731 H 0.81904 0.75051 0.80199 0.0
H2732 H 0.88666 0.76393 0.76752 0.0
H2733 H 0.87507 0.73049 0.83609 0.0
C2734 C 0.90398 0.71712 0.83515 0.0
C2735 C 0.91973 0.71258 0.82186 0.0
C2736 C 0.87163 0.76056 0.77468 0.0
C2737 C 0.88683 0.73495 0.80317 0.0
C2738 C 0.85549 0.77283 0.76724 0.0
C2739 C 0.83638 0.76981 0.77721 0.0
C2740 C 0.86884 0.74558 0.79257 0.0
C2741 C 0.83338 0.7531 0.79363 0.0
C2742 C 0.88745 0.72798 0.8258 0.0
C2743 C 0.91931 0.72118 0.79979 0.0
N2744 N 0.84966 0.74191 0.80113 0.0
N2745 N 0.90302 0.73187 0.79107 0.0
H2746 H 0.85625 0.72447 1.00561 0.0
H2747 H 0.90738 0.61831 0.05763 0.0
H2748 H 0.82173 0.66778 0.04049 0.0
H2749 H 0.94563 0.67791 0.02879 0.0
H2750 H 0.87706 0.63834 0.05421 0.0
H2751 H 0.89007 0.71007 0.01635 0.0
C2752 C 0.85585 0.70912 0.01566 0.0
C2753 C 0.83609 0.69697 0.02178 0.0
C2754 C 0.89211 0.64717 0.04873 0.0
C2755 C 0.8745 0.68024 0.03392 0.0
C2756 C 0.90966 0.63579 0.05088 0.0
C2757 C 0.92931 0.64617 0.04332 0.0
C2758 C 0.89387 0.66913 0.03868 0.0
C2759 C 0.93075 0.66877 0.03435 0.0
C2760 C 0.8751 0.70085 0.02173 0.0
C2761 C 0.83646 0.67725 0.03487 0.0
N2762 N 0.91326 0.67933 0.03209 0.0
N2763 N 0.85521 0.66941 0.04031 0.0
H2764 H 0.20116 0.19538 0.8675 0.0
H2765 H 0.29582 0.23728 0.79248 0.0
H2766 H 0.24144 0.14989 0.8433 0.0
H2767 H 0.2616 0.28711 0.82129 0.0
H2768 H 0.27401 0.20436 0.80958 0.0
H2769 H 0.22215 0.22952 0.85056 0.0
C2770 C 0.21487 0.19287 0.85931 0.0
C2771 C 0.22024 0.1702 0.8576 0.0
C2772 C 0.27109 0.22242 0.81209 0.0
C2773 C 0.24355 0.20838 0.83756 0.0
C2774 C 0.28339 0.24105 0.80217 0.0
C2775 C 0.28015 0.26453 0.80547 0.0
C2776 C 0.25571 0.22756 0.82563 0.0
C2777 C 0.26417 0.26894 0.81826 0.0
C2778 C 0.22667 0.21217 0.84948 0.0
C2779 C 0.23751 0.16741 0.84605 0.0
N2780 N 0.25251 0.25055 0.82807 0.0
N2781 N 0.24852 0.18624 0.83646 0.0
H2782 H 0.40258 0.11226 0.29845 0.0
H2783 H 0.39336 0.97271 0.26252 0.0
H2784 H 0.45514 0.0773 0.31994 0.0
H2785 H 0.34148 0.999 0.28866 0.0
H2786 H 0.41526 0.01472 0.26722 0.0
H2787 H 0.37933 0.07311 0.28064 0.0
C2788 C 0.409 0.09617 0.3 0.0
C2789 C 0.43021 0.09753 0.31204 0.0
C2790 C 0.3988 0.01112 0.2712 0.0
C2791 C 0.40464 0.05352 0.28955 0.0
C2792 C 0.38631 0.98736 0.26843 0.0
C2793 C 0.36595 0.98245 0.27592 0.0
C2794 C 0.39043 0.02975 0.28085 0.0
C2795 C 0.35717 1.00197 0.28283 0.0
C2796 C 0.39596 0.07409 0.28924 0.0
C2797 C 0.4385 0.07663 0.31162 0.0
N2798 N 0.36971 0.02488 0.28558 0.0
N2799 N 0.42556 0.05521 0.30057 0.0
H2800 H 0.55305 0.377 0.56999 0.0
H2801 H 0.57975 0.52204 0.58281 0.0
H2802 H 0.58821 0.42026 0.63453 0.0
H2803 H 0.53201 0.47629 0.52725 0.0
H2804 H 0.58502 0.48588 0.60117 0.0
H2805 H 0.54826 0.41355 0.55335 0.0
C2806 C 0.55994 0.39422 0.58082 0.0
C2807 C 0.57104 0.39523 0.604 0.0
C2808 C 0.57343 0.48368 0.58497 0.0
C2809 C 0.56529 0.43792 0.58445 0.0
C2810 C 0.57045 0.50431 0.57435 0.0
C2811 C 0.55558 0.50221 0.55323 0.0
C2812 C 0.56177 0.46053 0.57425 0.0
C2813 C 0.54366 0.47881 0.54344 0.0
C2814 C 0.55702 0.41522 0.57114 0.0
C2815 C 0.57963 0.41841 0.61666 0.0
N2816 N 0.5472 0.45891 0.55388 0.0
N2817 N 0.57652 0.43884 0.60674 0.0
H2818 H 0.45044 0.82479 0.41772 0.0
H2819 H 0.38402 0.80493 0.2853 0.0
H2820 H 0.47177 0.79266 0.3585 0.0
H2821 H 0.35507 0.82342 0.34454 0.0
H2822 H 0.41803 0.80529 0.31198 0.0
H2823 H 0.41643 0.82705 0.39188 0.0
C2824 C 0.44794 0.81819 0.39928 0.0
C2825 C 0.46433 0.80937 0.39007 0.0
C2826 C 0.40427 0.80922 0.31925 0.0
C2827 C 0.42546 0.81185 0.36034 0.0
C2828 C 0.38488 0.80914 0.30398 0.0
C2829 C 0.36666 0.81401 0.3127 0.0
C2830 C 0.40546 0.81372 0.34363 0.0
C2831 C 0.36879 0.8197 0.33707 0.0
C2832 C 0.42857 0.81957 0.38451 0.0
C2833 C 0.45997 0.80047 0.36617 0.0
N2834 N 0.38773 0.81914 0.3517 0.0
N2835 N 0.44118 0.80221 0.35215 0.0
H2836 H 0.06021 0.7543 0.14781 0.0
H2837 H 0.09544 0.67238 0.04898 0.0
H2838 H 0.08829 0.78434 0.09045 0.0
H2839 H 0.04777 0.64378 0.09129 0.0
H2840 H 0.09685 0.71383 0.06658 0.0
H2841 H 0.05879 0.71332 0.12966 0.0
C2842 C 0.06596 0.75214 0.13133 0.0
C2843 C 0.074 0.77242 0.12032 0.0
C2844 C 0.08625 0.69842 0.07211 0.0
C2845 C 0.07306 0.72606 0.09984 0.0
C2846 C 0.08567 0.67489 0.06231 0.0
C2847 C 0.07167 0.65489 0.06903 0.0
C2848 C 0.07304 0.70164 0.08894 0.0
C2849 C 0.05885 0.65887 0.08586 0.0
C2850 C 0.06514 0.72887 0.12096 0.0
C2851 C 0.08155 0.76894 0.09914 0.0
N2852 N 0.05991 0.68179 0.09534 0.0
N2853 N 0.08097 0.74614 0.08956 0.0
H2854 H 0.09547 0.3196 0.92512 0.0
H2855 H 0.15654 0.35657 0.81765 0.0
H2856 H 0.06791 0.34328 0.86062 0.0
H2857 H 0.18882 0.32847 0.87679 0.0
H2858 H 0.12564 0.35615 0.83717 0.0
H2859 H 0.13104 0.3253 0.91103 0.0
C2860 C 0.09678 0.32589 0.90816 0.0
C2861 C 0.0785 0.33094 0.89419 0.0
C2862 C 0.13946 0.35014 0.8461 0.0
C2863 C 0.11882 0.33767 0.87821 0.0
C2864 C 0.1574 0.35069 0.83498 0.0
C2865 C 0.17548 0.34248 0.84545 0.0
C2866 C 0.13914 0.34092 0.86785 0.0
C2867 C 0.17507 0.33453 0.86781 0.0
C2868 C 0.11704 0.32924 0.90019 0.0
C2869 C 0.08127 0.33919 0.87236 0.0
N2870 N 0.15708 0.33372 0.87821 0.0
N2871 N 0.10083 0.34224 0.86523 0.0
H2872 H 0.5218 0.72799 0.91001 0.0
H2873 H 0.53804 0.66398 0.02897 0.0
H2874 H 0.53144 0.76521 0.97968 0.0
H2875 H 0.53601 0.62615 0.96108 0.0
H2876 H 0.53322 0.70005 0.01037 0.0
H2877 H 0.52486 0.69013 0.92723 0.0
C2878 C 0.52447 0.72827 0.9289 0.0
C2879 C 0.52647 0.75015 0.94332 0.0
C2880 C 0.53379 0.68393 0.99941 0.0
C2881 C 0.52979 0.70643 0.9633 0.0
C2882 C 0.53652 0.66312 0.01009 0.0
C2883 C 0.53747 0.64165 0.99674 0.0
C2884 C 0.53202 0.68377 0.97495 0.0
C2885 C 0.53529 0.64207 0.97223 0.0
C2886 C 0.52625 0.70657 0.93875 0.0
C2887 C 0.52995 0.74908 0.96772 0.0
N2888 N 0.53275 0.66268 0.96221 0.0
N2889 N 0.53142 0.72782 0.97679 0.0
H2890 H 0.12572 0.83701 0.7128 0.0
H2891 H 0.24161 0.80761 0.71988 0.0
H2892 H 0.16353 0.85414 0.65822 0.0
H2893 H 0.22388 0.83994 0.78151 0.0
H2894 H 0.2091 0.81582 0.69594 0.0
H2895 H 0.15824 0.83099 0.73776 0.0
C2896 C 0.14109 0.84041 0.70637 0.0
C2897 C 0.14226 0.84764 0.68394 0.0
C2898 C 0.21222 0.82082 0.71474 0.0
C2899 C 0.17896 0.83813 0.71152 0.0
C2900 C 0.23048 0.81582 0.72839 0.0
C2901 C 0.23501 0.82274 0.75263 0.0
C2902 C 0.19826 0.83235 0.72556 0.0
C2903 C 0.22061 0.83403 0.76287 0.0
C2904 C 0.15951 0.83643 0.72046 0.0
C2905 C 0.16212 0.84935 0.67567 0.0
N2906 N 0.20267 0.83831 0.74928 0.0
N2907 N 0.17971 0.84443 0.68942 0.0
H2908 H 0.05613 0.37962 0.47248 0.0
H2909 H 0.0269 0.51077 0.48746 0.0
H2910 H 0.01873 0.40809 0.41755 0.0
H2911 H 0.08526 0.49723 0.52739 0.0
H2912 H 0.01955 0.47005 0.46567 0.0
H2913 H 0.06348 0.41954 0.49656 0.0
C2914 C 0.04917 0.39397 0.46557 0.0
C2915 C 0.03655 0.39007 0.44287 0.0
C2916 C 0.03403 0.47599 0.47915 0.0
C2917 C 0.04446 0.43575 0.47063 0.0
C2918 C 0.03826 0.49933 0.49161 0.0
C2919 C 0.0569 0.50777 0.50921 0.0
C2920 C 0.04834 0.46054 0.48436 0.0
C2921 C 0.07078 0.49172 0.5139 0.0
C2922 C 0.05344 0.41682 0.47931 0.0
C2923 C 0.02828 0.40974 0.43491 0.0
N2924 N 0.06622 0.469 0.50167 0.0
N2925 N 0.03214 0.43134 0.44872 0.0
H2926 H 0.54036 0.32218 0.20702 0.0
H2927 H 0.43842 0.37989 0.22459 0.0
H2928 H 0.50563 0.35695 0.15526 0.0
H2929 H 0.45575 0.32609 0.26753 0.0
H2930 H 0.46853 0.37724 0.20376 0.0
H2931 H 0.51429 0.32788 0.23336 0.0
C2932 C 0.52737 0.33115 0.2013 0.0
C2933 C 0.52498 0.33894 0.17884 0.0
C2934 C 0.46583 0.36592 0.21769 0.0
C2935 C 0.49558 0.34588 0.20886 0.0
C2936 C 0.44864 0.36747 0.22958 0.0
C2937 C 0.4444 0.35292 0.24748 0.0
C2938 C 0.47891 0.34948 0.22346 0.0
C2939 C 0.45844 0.3375 0.25366 0.0
C2940 C 0.51251 0.33431 0.21627 0.0
C2941 C 0.5079 0.35038 0.17225 0.0
N2942 N 0.47501 0.33596 0.24148 0.0
N2943 N 0.494 0.35357 0.18717 0.0
H2944 H 0.64843 0.62796 0.40471 0.0
H2945 H 0.58017 0.53016 0.47222 0.0
H2946 H 0.67363 0.56705 0.42669 0.0
H2947 H 0.57745 0.60571 0.47681 0.0
H2948 H 0.6111 0.53989 0.45061 0.0
H2949 H 0.61874 0.61688 0.42676 0.0
C2950 C 0.64776 0.61237 0.41448 0.0
C2951 C 0.66344 0.59847 0.41421 0.0
C2952 C 0.60357 0.55419 0.45634 0.0
C2953 C 0.62936 0.58533 0.43894 0.0
C2954 C 0.58587 0.5486 0.46831 0.0
C2955 C 0.57632 0.56716 0.47595 0.0
C2956 C 0.61115 0.5783 0.45181 0.0
C2957 C 0.58441 0.59091 0.47107 0.0
C2958 C 0.63085 0.60602 0.42698 0.0
C2959 C 0.66191 0.57834 0.42691 0.0
N2960 N 0.60128 0.59577 0.45919 0.0
N2961 N 0.64491 0.57214 0.43868 0.0
H2962 H 0.32692 0.87006 0.09298 0.0
H2963 H 0.32113 0.89593 0.22971 0.0
H2964 H 0.32554 0.94032 0.12605 0.0
H2965 H 0.32624 0.82688 0.19703 0.0
H2966 H 0.32335 0.91273 0.19235 0.0
H2967 H 0.32747 0.85426 0.1311 0.0
C2968 C 0.32649 0.88211 0.10822 0.0
C2969 C 0.32591 0.9065 0.10619 0.0
C2970 C 0.3242 0.89397 0.19338 0.0
C2971 C 0.32643 0.88845 0.15012 0.0
C2972 C 0.32304 0.88436 0.21481 0.0
C2973 C 0.32362 0.85992 0.2167 0.0
C2974 C 0.326 0.87912 0.17355 0.0
C2975 C 0.32575 0.8458 0.19653 0.0
C2976 C 0.32691 0.87311 0.13005 0.0
C2977 C 0.3259 0.92139 0.12673 0.0
N2978 N 0.32682 0.85556 0.17591 0.0
N2979 N 0.32597 0.91211 0.14772 0.0
H2980 H 0.99381 0.63028 0.8645 0.0
H2981 H 0.06404 0.65188 0.9908 0.0
H2982 H 0.98872 0.69011 0.91222 0.0
H2983 H 0.02293 0.58105 0.96322 0.0
H2984 H 0.04569 0.66943 0.95835 0.0
H2985 H 0.0148 0.61533 0.89684 0.0
C2986 C 0.99798 0.64082 0.88164 0.0
C2987 C 0.99003 0.6617 0.8858 0.0
C2988 C 0.04072 0.65009 0.95955 0.0
C2989 C 0.01372 0.6447 0.92253 0.0
C2990 C 0.05112 0.64007 0.97791 0.0
C2991 C 0.0449 0.61503 0.97955 0.0
C2992 C 0.02449 0.63482 0.9425 0.0
C2993 C 0.0281 0.60046 0.96252 0.0
C2994 C 0.00956 0.63206 0.90004 0.0
C2995 C 0.99497 0.6742 0.90841 0.0
N2996 N 0.0186 0.61055 0.94442 0.0
N2997 N 1.00672 0.66557 0.92606 0.0
H2998 H 0.26162 0.27545 0.57839 0.0
H2999 H 0.32443 0.29169 0.71074 0.0
H3000 H 0.31274 0.23892 0.60051 0.0
H3001 H 0.25814 0.30056 0.6942 0.0
H3002 H 0.3229 0.27776 0.66961 0.0
H3003 H 0.26255 0.29011 0.61968 0.0
C3004 C 0.27325 0.27082 0.59196 0.0
C3005 C 0.28723 0.2561 0.58609 0.0
C3006 C 0.30864 0.28266 0.67494 0.0
C3007 C 0.28852 0.27292 0.63325 0.0
C3008 C 0.30948 0.29072 0.69848 0.0
C3009 C 0.29132 0.29726 0.70612 0.0
C3010 C 0.28963 0.28143 0.65854 0.0
C3011 C 0.27247 0.29555 0.68922 0.0
C3012 C 0.27365 0.27902 0.61549 0.0
C3013 C 0.30173 0.25027 0.60431 0.0
N3014 N 0.27216 0.28797 0.66621 0.0
N3015 N 0.30215 0.25886 0.62702 0.0
H3016 H 0.65833 0.62937 0.28798 0.0
H3017 H 0.60249 0.54476 0.17071 0.0
H3018 H 0.66194 0.55418 0.2809 0.0
H3019 H 0.57946 0.6058 0.19796 0.0
H3020 H 0.62677 0.54751 0.2085 0.0
H3021 H 0.63337 0.62214 0.25049 0.0
C3022 C 0.65425 0.61149 0.27802 0.0
C3023 C 0.66213 0.59234 0.28688 0.0
C3024 C 0.61594 0.55982 0.20622 0.0
C3025 C 0.63334 0.58368 0.24492 0.0
C3026 C 0.60207 0.5582 0.18486 0.0
C3027 C 0.58915 0.57521 0.18128 0.0
C3028 C 0.61682 0.57869 0.22367 0.0
C3029 C 0.58902 0.59222 0.20002 0.0
C3030 C 0.63981 0.60725 0.25696 0.0
C3031 C 0.65618 0.5693 0.27406 0.0
N3032 N 0.603 0.5938 0.22033 0.0
N3033 N 0.64196 0.56549 0.25345 0.0
H3034 H 0.32961 0.94159 0.95028 0.0
H3035 H 0.28185 0.81403 0.86878 0.0
H3036 H 0.30317 0.87527 0.97817 0.0
H3037 H 0.31717 0.87824 0.8441 0.0
H3038 H 0.28823 0.83608 0.90804 0.0
H3039 H 0.32449 0.91889 0.91182 0.0
C3040 C 0.32261 0.92219 0.94848 0.0
C3041 C 0.31679 0.9106 0.96804 0.0
C3042 C 0.29459 0.84547 0.89414 0.0
C3043 C 0.31041 0.88406 0.92272 0.0
C3044 C 0.29086 0.83289 0.87149 0.0
C3045 C 0.29872 0.84421 0.85266 0.0
C3046 C 0.30636 0.86987 0.8985 0.0
C3047 C 0.31046 0.86869 0.85773 0.0
C3048 C 0.31971 0.90917 0.92622 0.0
C3049 C 0.30793 0.88524 0.96393 0.0
N3050 N 0.31386 0.8806 0.88 0.0
N3051 N 0.30487 0.87296 0.94183 0.0
H3052 H 1.00044 0.67972 0.75626 0.0
H3053 H 1.00013 0.55343 0.68377 0.0
H3054 H 0.95088 0.61388 0.7555 0.0
H3055 H 0.03642 0.62339 0.67095 0.0
H3056 H 0.98451 0.57409 0.71367 0.0
H3057 H 0.01613 0.65838 0.7273 0.0
C3058 C 0.99265 0.66095 0.7496 0.0
C3059 C 0.97405 0.64876 0.75767 0.0
C3060 C 0.99593 0.58485 0.7043 0.0
C3061 C 0.99232 0.62392 0.72555 0.0
C3062 C 1.00488 0.57308 0.68745 0.0
C3063 C 0.01931 0.5869 0.67493 0.0
C3064 C 1.00181 0.61044 0.70862 0.0
C3065 C 0.0251 0.61225 0.68015 0.0
C3066 C 1.00166 0.64869 0.73329 0.0
C3067 C 0.96484 0.62418 0.74907 0.0
N3068 N 0.01633 0.62321 0.69658 0.0
N3069 N 0.97418 0.61248 0.73359 0.0
H3070 H 0.26583 0.27366 0.45559 0.0
H3071 H 0.3371 0.29799 0.3531 0.0
H3072 H 0.31028 0.22989 0.43906 0.0
H3073 H 0.27441 0.31649 0.3482 0.0
H3074 H 0.33015 0.27751 0.38778 0.0
H3075 H 0.27154 0.29447 0.42035 0.0
C3076 C 0.27702 0.26864 0.44483 0.0
C3077 C 0.28759 0.2499 0.45053 0.0
C3078 C 0.31778 0.28587 0.37912 0.0
C3079 C 0.2943 0.27384 0.40998 0.0
C3080 C 0.32171 0.29753 0.35918 0.0
C3081 C 0.30619 0.3087 0.34731 0.0
C3082 C 0.29838 0.28583 0.38809 0.0
C3083 C 0.28668 0.30775 0.35641 0.0
C3084 C 0.2801 0.28038 0.42453 0.0
C3085 C 0.30169 0.24411 0.43552 0.0
N3086 N 0.28345 0.2968 0.37631 0.0
N3087 N 0.30471 0.25603 0.41628 0.0
H3088 H 0.31975 0.64572 0.52141 0.0
H3089 H 0.44222 0.65818 0.49925 0.0
H3090 H 0.35433 0.71168 0.49905 0.0
H3091 H 0.39485 0.58975 0.49348 0.0
H3092 H 0.41266 0.67967 0.50201 0.0
H3093 H 0.34956 0.62669 0.51551 0.0
C3094 C 0.33376 0.65635 0.51548 0.0
C3095 C 0.33441 0.68035 0.51074 0.0
C3096 C 0.40877 0.65996 0.49997 0.0
C3097 C 0.36922 0.65857 0.5041 0.0
C3098 C 0.4256 0.64769 0.49843 0.0
C3099 C 0.42104 0.62209 0.49626 0.0
C3100 C 0.38732 0.64656 0.49998 0.0
C3101 C 0.39917 0.60945 0.49506 0.0
C3102 C 0.35085 0.6454 0.51203 0.0
C3103 C 0.35332 0.69329 0.50339 0.0
N3104 N 0.38328 0.62176 0.49725 0.0
N3105 N 0.37004 0.68225 0.50032 0.0
H3106 H 0.89074 0.94261 0.51517 0.0
H3107 H 0.9946 0.04543 0.57542 0.0
H3108 H 0.88477 0.99261 0.57213 0.0
H3109 H 0.97683 0.03629 0.5002 0.0
H3110 H 0.95874 0.01873 0.57776 0.0
H3111 H 0.92621 0.96965 0.51206 0.0
C3112 C 0.89694 0.9592 0.52709 0.0
C3113 C 0.88453 0.96557 0.54362 0.0
C3114 C 0.96267 0.02266 0.56076 0.0
C3115 C 0.92576 0.99594 0.54104 0.0
C3116 C 0.98314 0.03782 0.5594 0.0
C3117 C 0.98874 0.04319 0.53757 0.0
C3118 C 0.94769 0.01236 0.54013 0.0
C3119 C 0.97327 0.03258 0.51737 0.0
C3120 C 0.91718 0.97461 0.52531 0.0
C3121 C 0.8936 0.98717 0.55888 0.0
N3122 N 0.95358 0.01761 0.51911 0.0
N3123 N 0.9137 1.00137 0.55743 0.0
H3124 H 0.9121 0.12435 0.20996 0.0
H3125 H 0.8402 0.16498 0.29582 0.0
H3126 H 0.88938 0.08276 0.26412 0.0
H3127 H 0.88172 0.21864 0.26324 0.0
H3128 H 0.86102 0.13591 0.28621 0.0
H3129 H 0.90473 0.16072 0.23056 0.0
C3130 C 0.90608 0.12307 0.22639 0.0
C3131 C 0.90069 0.1006 0.23508 0.0
C3132 C 0.8659 0.15416 0.28145 0.0
C3133 C 0.89229 0.14138 0.25839 0.0
C3134 C 0.85403 0.17095 0.28713 0.0
C3135 C 0.85899 0.19438 0.28017 0.0
C3136 C 0.88259 0.16048 0.26819 0.0
C3137 C 0.87688 0.20058 0.26838 0.0
C3138 C 0.90189 0.14369 0.23812 0.0
C3139 C 0.89319 0.09971 0.25654 0.0
N3140 N 0.8878 0.18356 0.26232 0.0
N3141 N 0.88889 0.11968 0.26724 0.0
H3142 H 0.70499 0.19976 0.98937 0.0
H3143 H 0.6384 0.11444 0.06713 0.0
H3144 H 0.73961 0.16809 0.04382 0.0
H3145 H 0.61729 0.10833 0.99216 0.0
H3146 H 0.6743 0.13893 0.06238 0.0
H3147 H 0.6706 0.17129 0.99314 0.0
C3148 C 0.70529 0.18684 1.0021 0.0
C3149 C 0.72506 0.18583 0.01599 0.0
C3150 C 0.66179 0.13191 0.04703 0.0
C3151 C 0.68596 0.15439 0.02134 0.0
C3152 C 0.64135 0.11788 0.04969 0.0
C3153 C 0.62467 0.10937 0.03005 0.0
C3154 C 0.66537 0.1378 0.02468 0.0
C3155 C 0.62948 0.11464 0.00788 0.0
C3156 C 0.68576 0.17067 1.00429 0.0
C3157 C 0.72461 0.16912 0.03262 0.0
N3158 N 0.64922 0.12877 1.00585 0.0
N3159 N 0.70533 0.15423 0.03507 0.0
H3160 H 0.20434 0.45959 0.23142 0.0
H3161 H 0.2435 0.35748 0.30236 0.0
H3162 H 0.17024 0.42385 0.28235 0.0
H3163 H 0.28714 0.40721 0.26828 0.0
H3164 H 0.21453 0.3778 0.29036 0.0
H3165 H 0.23206 0.43562 0.23875 0.0
C3166 C 0.20212 0.44576 0.24326 0.0
C3167 C 0.18477 0.44317 0.25593 0.0
C3168 C 0.23049 0.38455 0.28574 0.0
C3169 C 0.21662 0.41647 0.26498 0.0
C3170 C 0.2472 0.37305 0.29273 0.0
C3171 C 0.26798 0.38078 0.28653 0.0
C3172 C 0.23438 0.40406 0.27241 0.0
C3173 C 0.2715 0.40087 0.27374 0.0
C3174 C 0.21817 0.43253 0.24781 0.0
C3175 C 0.18305 0.42582 0.27178 0.0
N3176 N 0.25479 0.41181 0.267 0.0
N3177 N 0.19887 0.41322 0.27598 0.0
H3178 H 0.2679 0.45607 0.0678 0.0
H3179 H 0.17744 0.50674 0.98619 0.0
H3180 H 0.26251 0.45456 0.99286 0.0
H3181 H 0.18523 0.51259 0.06169 0.0
H3182 H 0.20644 0.48439 0.98796 0.0
H3183 H 0.23516 0.47298 0.06565 0.0
C3184 C 0.25938 0.45851 0.05084 0.0
C3185 C 0.26768 0.45351 0.03045 0.0
C3186 C 0.20171 0.49044 1.00414 0.0
C3187 C 0.23062 0.47342 0.02783 0.0
C3188 C 0.18518 0.50335 1.00315 0.0
C3189 C 0.17878 0.51172 0.02383 0.0
C3190 C 0.21205 0.48584 0.02597 0.0
C3191 C 0.18928 0.50629 0.04523 0.0
C3192 C 0.24089 0.46849 0.04961 0.0
C3193 C 0.25648 0.45791 0.00898 0.0
N3194 N 0.2054 0.49385 0.04574 0.0
N3195 N 0.23866 0.46767 0.00824 0.0
H3196 H 0.91612 0.96607 0.23147 0.0
H3197 H 0.79355 0.89023 0.22736 0.0
H3198 H 0.85891 0.97964 0.18933 0.0
H3199 H 0.8485 0.88282 0.27775 0.0
H3200 H 0.81839 0.91892 0.2092 0.0
H3201 H 0.89293 0.92992 0.24324 0.0
C3202 C 0.89875 0.96097 0.22427 0.0
C3203 C 0.88909 0.97583 0.20998 0.0
C3204 C 0.82513 0.91079 0.22401 0.0
C3205 C 0.86276 0.93511 0.22314 0.0
C3206 C 0.81094 0.89455 0.23449 0.0
C3207 C 0.81911 0.88397 0.25384 0.0
C3208 C 0.8477 0.9165 0.23294 0.0
C3209 C 0.84168 0.89042 0.26265 0.0
C3210 C 0.88554 0.94055 0.23107 0.0
C3211 C 0.8667 0.96871 0.20084 0.0
N3212 N 0.85529 0.90633 0.25207 0.0
N3213 N 0.85418 0.94894 0.20781 0.0
H3214 H 0.65239 0.07827 0.76375 0.0
H3215 H 0.77613 0.15093 0.7874 0.0
H3216 H 0.7053 0.0465 0.74841 0.0
H3217 H 0.72365 0.18657 0.76699 0.0
H3218 H 0.74957 0.11177 0.77851 0.0
H3219 H 0.67761 0.11878 0.76918 0.0
C3220 C 0.66929 0.07998 0.76154 0.0
C3221 C 0.67735 0.05943 0.75689 0.0
C3222 C 0.74387 0.12826 0.77662 0.0
C3223 C 0.70569 0.10456 0.76297 0.0
C3224 C 0.75895 0.15047 0.78171 0.0
C3225 C 0.75194 0.17181 0.77819 0.0
C3226 C 0.72172 0.12765 0.7687 0.0
C3227 C 0.72956 0.17047 0.7706 0.0
C3228 C 0.68356 0.10283 0.76461 0.0
C3229 C 0.69898 0.06211 0.75324 0.0
N3230 N 0.71512 0.14862 0.7661 0.0
N3231 N 0.71264 0.08437 0.75681 0.0
loop_
_geom_bond_atom_site_label_1
_geom_bond_atom_site_label_2
_geom_bond_distance
_geom_bond_site_symmetry_2
_ccdc_geom_bond_type
Mn0 O5 2.095 . S
Mn0 O15 2.162 . S
Mn0 O16 2.297 . S
Mn0 O24 2.385 1_455 S
Mn0 O25 2.209 1_455 S
Mn0 O26 2.094 . S
Mn1 O6 2.121 . S
Mn1 N8 2.257 1_455 S
Mn1 N17 2.282 1_455 S
Mn1 O25 2.215 1_455 S
Mn1 O27 2.117 . S
C2 O24 1.234 . S
C2 O25 1.283 . S
C3 O15 1.281 . S
C3 O16 1.236 . S
C4 O26 1.240 . S
C4 O27 1.264 . S
O5 Mn0 2.095 . S
O5 C14 1.250 . S
O6 Mn1 2.121 . S
O6 C14 1.258 . S
C7 N8 1.326 1_455 S
C7 C11 1.460 1_455 S
C7 H13 0.929 . S
N8 Mn1 2.257 1_655 S
N8 C7 1.326 1_655 S
N8 C12 1.362 . S
C9 C10 1.258 . S
C9 C12 1.431 . S
C9 C29 1.449 . S
C10 C9 1.258 . S
C10 C11 1.477 . S
C10 H30 0.931 . S
C11 C7 1.460 1_655 S
C11 C10 1.477 . S
C11 H31 0.930 . S
C12 N8 1.362 . S
C12 C9 1.431 . S
C12 C22 1.476 . S
H13 C7 0.929 . S
C14 O5 1.250 . S
C14 O6 1.258 . S
O15 Mn0 2.162 . S
O15 C3 1.281 . S
O16 Mn0 2.297 . S
O16 C3 1.236 . S
N17 Mn1 2.282 1_655 S
N17 C18 1.328 . S
N17 C22 1.318 . S
C18 N17 1.328 . S
C18 C19 1.457 . S
C18 H23 0.929 . S
C19 C18 1.457 . S
C19 C20 1.291 . S
C19 H32 0.931 . S
C20 C19 1.291 . S
C20 C21 1.373 . S
C20 H33 0.929 . S
C21 C20 1.373 . S
C21 C22 1.396 . S
C21 C28 1.403 . S
C22 C12 1.476 . S
C22 N17 1.318 . S
C22 C21 1.396 . S
H23 C18 0.929 . S
O24 Mn0 2.385 1_655 S
O24 C2 1.234 . S
O25 Mn0 2.209 1_655 S
O25 Mn1 2.215 1_655 S
O25 C2 1.283 . S
O26 Mn0 2.094 . S
O26 C4 1.240 . S
O27 Mn1 2.117 . S
O27 C4 1.264 . S
C28 C21 1.403 . S
C28 C29 1.399 . S
C28 H34 0.929 . S
C29 C9 1.449 . S
C29 C28 1.399 . S
C29 H35 0.930 . S
H30 C10 0.931 . S
H31 C11 0.930 . S
H32 C19 0.931 . S
H33 C20 0.929 . S
H34 C28 0.929 . S
H35 C29 0.930 . S
Mn36 O41 2.095 . S
Mn36 O51 2.162 . S
Mn36 O52 2.297 . S
Mn36 O60 2.385 . S
Mn36 O61 2.209 . S
Mn36 O62 2.094 . S
Mn37 O42 2.121 . S
Mn37 N44 2.257 . S
Mn37 N53 2.282 . S
Mn37 O61 2.215 . S
Mn37 O63 2.117 . S
C38 O60 1.234 . S
C38 O61 1.283 . S
C39 O51 1.281 . S
C39 O52 1.236 . S
C40 O62 1.240 . S
C40 O63 1.264 . S
O41 Mn36 2.095 . S
O41 C50 1.250 . S
O42 Mn37 2.121 . S
O42 C50 1.258 . S
C43 N44 1.326 . S
C43 C47 1.460 . S
C43 H49 0.929 . S
N44 Mn37 2.257 . S
N44 C43 1.326 . S
N44 C48 1.362 . S
C45 C46 1.258 . S
C45 C48 1.431 . S
C45 C65 1.449 . S
C46 C45 1.258 . S
C46 C47 1.477 . S
C46 H66 0.931 . S
C47 C43 1.460 . S
C47 C46 1.477 . S
C47 H67 0.930 . S
C48 N44 1.362 . S
C48 C45 1.431 . S
C48 C58 1.476 . S
H49 C43 0.929 . S
C50 O41 1.250 . S
C50 O42 1.258 . S
O51 Mn36 2.162 . S
O51 C39 1.281 . S
O52 Mn36 2.297 . S
O52 C39 1.236 . S
N53 Mn37 2.282 . S
N53 C54 1.328 . S
N53 C58 1.318 . S
C54 N53 1.328 . S
C54 C55 1.457 . S
C54 H59 0.929 . S
C55 C54 1.457 . S
C55 C56 1.291 . S
C55 H68 0.931 . S
C56 C55 1.291 . S
C56 C57 1.373 . S
C56 H69 0.929 . S
C57 C56 1.373 . S
C57 C58 1.396 . S
C57 C64 1.403 . S
C58 C48 1.476 . S
C58 N53 1.318 . S
C58 C57 1.396 . S
H59 C54 0.929 . S
O60 Mn36 2.385 . S
O60 C38 1.234 . S
O61 Mn36 2.209 . S
O61 Mn37 2.215 . S
O61 C38 1.283 . S
O62 Mn36 2.094 . S
O62 C40 1.240 . S
O63 Mn37 2.117 . S
O63 C40 1.264 . S
C64 C57 1.403 . S
C64 C65 1.399 . S
C64 H70 0.929 . S
C65 C45 1.449 . S
C65 C64 1.399 . S
C65 H71 0.930 . S
H66 C46 0.931 . S
H67 C47 0.930 . S
H68 C55 0.931 . S
H69 C56 0.929 . S
H70 C64 0.929 . S
H71 C65 0.930 . S
Mn72 O77 2.095 . S
Mn72 O87 2.162 . S
Mn72 O88 2.297 . S
Mn72 O96 2.385 . S
Mn72 O97 2.209 . S
Mn72 O98 2.094 . S
Mn73 O78 2.121 . S
Mn73 N80 2.257 . S
Mn73 N89 2.282 . S
Mn73 O97 2.215 . S
Mn73 O99 2.117 . S
C74 O96 1.234 . S
C74 O97 1.283 . S
C75 O87 1.281 . S
C75 O88 1.236 . S
C76 O98 1.240 . S
C76 O99 1.264 . S
O77 Mn72 2.095 . S
O77 C86 1.250 . S
O78 Mn73 2.121 . S
O78 C86 1.258 . S
C79 N80 1.326 . S
C79 C83 1.460 . S
C79 H85 0.929 . S
N80 Mn73 2.257 . S
N80 C79 1.326 . S
N80 C84 1.362 . S
C81 C82 1.258 . S
C81 C84 1.431 . S
C81 C101 1.449 . S
C82 C81 1.258 . S
C82 C83 1.477 . S
C82 H102 0.931 . S
C83 C79 1.460 . S
C83 C82 1.477 . S
C83 H103 0.930 . S
C84 N80 1.362 . S
C84 C81 1.431 . S
C84 C94 1.476 . S
H85 C79 0.929 . S
C86 O77 1.250 . S
C86 O78 1.258 . S
O87 Mn72 2.162 . S
O87 C75 1.281 . S
O88 Mn72 2.297 . S
O88 C75 1.236 . S
N89 Mn73 2.282 . S
N89 C90 1.328 . S
N89 C94 1.318 . S
C90 N89 1.328 . S
C90 C91 1.457 . S
C90 H95 0.929 . S
C91 C90 1.457 . S
C91 C92 1.291 . S
C91 H104 0.931 . S
C92 C91 1.291 . S
C92 C93 1.373 . S
C92 H105 0.929 . S
C93 C92 1.373 . S
C93 C94 1.396 . S
C93 C100 1.403 . S
C94 C84 1.476 . S
C94 N89 1.318 . S
C94 C93 1.396 . S
H95 C90 0.929 . S
O96 Mn72 2.385 . S
O96 C74 1.234 . S
O97 Mn72 2.209 . S
O97 Mn73 2.215 . S
O97 C74 1.283 . S
O98 Mn72 2.094 . S
O98 C76 1.240 . S
O99 Mn73 2.117 . S
O99 C76 1.264 . S
C100 C93 1.403 . S
C100 C101 1.399 . S
C100 H106 0.929 . S
C101 C81 1.449 . S
C101 C100 1.399 . S
C101 H107 0.930 . S
H102 C82 0.931 . S
H103 C83 0.930 . S
H104 C91 0.931 . S
H105 C92 0.929 . S
H106 C100 0.929 . S
H107 C101 0.930 . S
Mn108 O113 2.095 . S
Mn108 O123 2.162 . S
Mn108 O124 2.297 . S
Mn108 O132 2.385 . S
Mn108 O133 2.209 . S
Mn108 O134 2.094 . S
Mn109 O114 2.121 . S
Mn109 N116 2.257 . S
Mn109 N125 2.282 . S
Mn109 O133 2.215 . S
Mn109 O135 2.117 . S
C110 O132 1.234 . S
C110 O133 1.283 . S
C111 O123 1.281 . S
C111 O124 1.236 . S
C112 O134 1.240 . S
C112 O135 1.264 . S
O113 Mn108 2.095 . S
O113 C122 1.250 . S
O114 Mn109 2.121 . S
O114 C122 1.258 . S
C115 N116 1.326 . S
C115 C119 1.460 . S
C115 H121 0.929 . S
N116 Mn109 2.257 . S
N116 C115 1.326 . S
N116 C120 1.362 . S
C117 C118 1.258 . S
C117 C120 1.431 . S
C117 C137 1.449 . S
C118 C117 1.258 . S
C118 C119 1.477 . S
C118 H138 0.931 . S
C119 C115 1.460 . S
C119 C118 1.477 . S
C119 H139 0.930 . S
C120 N116 1.362 . S
C120 C117 1.431 . S
C120 C130 1.476 . S
H121 C115 0.929 . S
C122 O113 1.250 . S
C122 O114 1.258 . S
O123 Mn108 2.162 . S
O123 C111 1.281 . S
O124 Mn108 2.297 . S
O124 C111 1.236 . S
N125 Mn109 2.282 . S
N125 C126 1.328 . S
N125 C130 1.318 . S
C126 N125 1.328 . S
C126 C127 1.457 . S
C126 H131 0.929 . S
C127 C126 1.457 . S
C127 C128 1.291 . S
C127 H140 0.931 . S
C128 C127 1.291 . S
C128 C129 1.373 . S
C128 H141 0.929 . S
C129 C128 1.373 . S
C129 C130 1.396 . S
C129 C136 1.403 . S
C130 C120 1.476 . S
C130 N125 1.318 . S
C130 C129 1.396 . S
H131 C126 0.929 . S
O132 Mn108 2.385 . S
O132 C110 1.234 . S
O133 Mn108 2.209 . S
O133 Mn109 2.215 . S
O133 C110 1.283 . S
O134 Mn108 2.094 . S
O134 C112 1.240 . S
O135 Mn109 2.117 . S
O135 C112 1.264 . S
C136 C129 1.403 . S
C136 C137 1.399 . S
C136 H142 0.929 . S
C137 C117 1.449 . S
C137 C136 1.399 . S
C137 H143 0.930 . S
H138 C118 0.931 . S
H139 C119 0.930 . S
H140 C127 0.931 . S
H141 C128 0.929 . S
H142 C136 0.929 . S
H143 C137 0.930 . S
Mn144 O149 2.095 . S
Mn144 O159 2.162 . S
Mn144 O160 2.297 . S
Mn144 O168 2.385 . S
Mn144 O169 2.209 . S
Mn144 O170 2.094 . S
Mn145 O150 2.121 . S
Mn145 N152 2.257 . S
Mn145 N161 2.282 . S
Mn145 O169 2.215 . S
Mn145 O171 2.117 . S
C146 O168 1.234 . S
C146 O169 1.283 . S
C147 O159 1.281 . S
C147 O160 1.236 . S
C148 O170 1.240 . S
C148 O171 1.264 . S
O149 Mn144 2.095 . S
O149 C158 1.250 . S
O150 Mn145 2.121 . S
O150 C158 1.258 . S
C151 N152 1.326 . S
C151 C155 1.460 . S
C151 H157 0.929 . S
N152 Mn145 2.257 . S
N152 C151 1.326 . S
N152 C156 1.362 . S
C153 C154 1.258 . S
C153 C156 1.431 . S
C153 C173 1.449 . S
C154 C153 1.258 . S
C154 C155 1.477 . S
C154 H174 0.931 1_554 S
C155 C151 1.460 . S
C155 C154 1.477 . S
C155 H175 0.930 . S
C156 N152 1.362 . S
C156 C153 1.431 . S
C156 C166 1.476 . S
H157 C151 0.929 . S
C158 O149 1.250 . S
C158 O150 1.258 . S
O159 Mn144 2.162 . S
O159 C147 1.281 . S
O160 Mn144 2.297 . S
O160 C147 1.236 . S
N161 Mn145 2.282 . S
N161 C162 1.328 . S
N161 C166 1.318 . S
C162 N161 1.328 . S
C162 C163 1.457 1_455 S
C162 H167 0.929 . S
C163 C162 1.457 1_655 S
C163 C164 1.291 . S
C163 H176 0.931 . S
C164 C163 1.291 . S
C164 C165 1.355 1_655 S
C164 H177 0.929 . S
C165 C164 1.355 1_455 S
C165 C166 1.411 . S
C165 C172 1.411 1_455 S
C166 C156 1.476 . S
C166 N161 1.318 . S
C166 C165 1.411 . S
H167 C162 0.929 . S
O168 Mn144 2.385 . S
O168 C146 1.234 . S
O169 Mn144 2.209 . S
O169 Mn145 2.215 . S
O169 C146 1.283 . S
O170 Mn144 2.094 . S
O170 C148 1.240 . S
O171 Mn145 2.117 . S
O171 C148 1.264 . S
C172 C165 1.411 1_655 S
C172 C173 1.399 1_655 S
C172 H178 0.929 . S
C173 C153 1.449 . S
C173 C172 1.399 1_455 S
C173 H179 0.930 . S
H174 C154 0.931 1_556 S
H175 C155 0.930 . S
H176 C163 0.931 . S
H177 C164 0.929 . S
H178 C172 0.929 . S
H179 C173 0.930 . S
Mn180 O185 2.095 . S
Mn180 O195 2.162 . S
Mn180 O196 2.297 . S
Mn180 O204 2.385 . S
Mn180 O205 2.209 . S
Mn180 O206 2.094 . S
Mn181 O186 2.121 . S
Mn181 N188 2.257 . S
Mn181 N197 2.282 . S
Mn181 O205 2.215 . S
Mn181 O207 2.117 . S
C182 O204 1.234 . S
C182 O205 1.283 . S
C183 O195 1.281 . S
C183 O196 1.236 . S
C184 O206 1.240 . S
C184 O207 1.264 . S
O185 Mn180 2.095 . S
O185 C194 1.250 . S
O186 Mn181 2.121 . S
O186 C194 1.258 . S
C187 N188 1.326 . S
C187 C191 1.460 . S
C187 H193 0.929 . S
N188 Mn181 2.257 . S
N188 C187 1.326 . S
N188 C192 1.362 . S
C189 C190 1.258 . S
C189 C192 1.431 . S
C189 C209 1.449 . S
C190 C189 1.258 . S
C190 C191 1.477 . S
C190 H210 0.931 . S
C191 C187 1.460 . S
C191 C190 1.477 . S
C191 H211 0.930 . S
C192 N188 1.362 . S
C192 C189 1.431 . S
C192 C202 1.476 . S
H193 C187 0.929 . S
C194 O185 1.250 . S
C194 O186 1.258 . S
O195 Mn180 2.162 . S
O195 C183 1.281 . S
O196 Mn180 2.297 . S
O196 C183 1.236 . S
N197 Mn181 2.282 . S
N197 C198 1.328 . S
N197 C202 1.318 . S
C198 N197 1.328 . S
C198 C199 1.457 . S
C198 H203 0.929 . S
C199 C198 1.457 . S
C199 C200 1.291 . S
C199 H212 0.931 . S
C200 C199 1.291 . S
C200 C201 1.373 . S
C200 H213 0.929 . S
C201 C200 1.373 . S
C201 C202 1.396 . S
C201 C208 1.403 . S
C202 C192 1.476 . S
C202 N197 1.318 . S
C202 C201 1.396 . S
H203 C198 0.929 . S
O204 Mn180 2.385 . S
O204 C182 1.234 . S
O205 Mn180 2.209 . S
O205 Mn181 2.215 . S
O205 C182 1.283 . S
O206 Mn180 2.094 . S
O206 C184 1.240 . S
O207 Mn181 2.117 . S
O207 C184 1.264 . S
C208 C201 1.403 . S
C208 C209 1.399 . S
C208 H214 0.929 . S
C209 C189 1.449 . S
C209 C208 1.399 . S
C209 H215 0.930 . S
H210 C190 0.931 . S
H211 C191 0.930 . S
H212 C199 0.931 . S
H213 C200 0.929 . S
H214 C208 0.929 . S
H215 C209 0.930 . S
Mn216 O221 2.095 . S
Mn216 O231 2.162 . S
Mn216 O232 2.297 . S
Mn216 O240 2.385 . S
Mn216 O241 2.209 . S
Mn216 O242 2.094 . S
Mn217 O222 2.121 . S
Mn217 N224 2.257 . S
Mn217 N233 2.282 . S
Mn217 O241 2.215 . S
Mn217 O243 2.117 . S
C218 O240 1.234 . S
C218 O241 1.283 . S
C219 O231 1.281 . S
C219 O232 1.236 . S
C220 O242 1.240 . S
C220 O243 1.264 . S
O221 Mn216 2.095 . S
O221 C230 1.250 . S
O222 Mn217 2.121 . S
O222 C230 1.258 . S
C223 N224 1.326 . S
C223 C227 1.460 . S
C223 H229 0.929 . S
N224 Mn217 2.257 . S
N224 C223 1.326 . S
N224 C228 1.362 . S
C225 C226 1.258 . S
C225 C228 1.431 . S
C225 C245 1.449 . S
C226 C225 1.258 . S
C226 C227 1.477 . S
C226 H246 0.931 . S
C227 C223 1.460 . S
C227 C226 1.477 . S
C227 H247 0.930 . S
C228 N224 1.362 . S
C228 C225 1.431 . S
C228 C238 1.476 . S
H229 C223 0.929 . S
C230 O221 1.250 . S
C230 O222 1.258 . S
O231 Mn216 2.162 . S
O231 C219 1.281 . S
O232 Mn216 2.297 . S
O232 C219 1.236 . S
N233 Mn217 2.282 . S
N233 C234 1.328 . S
N233 C238 1.318 . S
C234 N233 1.328 . S
C234 C235 1.457 . S
C234 H239 0.929 . S
C235 C234 1.457 . S
C235 C236 1.291 . S
C235 H248 0.931 . S
C236 C235 1.291 . S
C236 C237 1.373 . S
C236 H249 0.929 . S
C237 C236 1.373 . S
C237 C238 1.396 . S
C237 C244 1.403 . S
C238 C228 1.476 . S
C238 N233 1.318 . S
C238 C237 1.396 . S
H239 C234 0.929 . S
O240 Mn216 2.385 . S
O240 C218 1.234 . S
O241 Mn216 2.209 . S
O241 Mn217 2.215 . S
O241 C218 1.283 . S
O242 Mn216 2.094 . S
O242 C220 1.240 . S
O243 Mn217 2.117 . S
O243 C220 1.264 . S
C244 C237 1.403 . S
C244 C245 1.399 . S
C244 H250 0.929 . S
C245 C225 1.449 . S
C245 C244 1.399 . S
C245 H251 0.930 . S
H246 C226 0.931 . S
H247 C227 0.930 . S
H248 C235 0.931 . S
H249 C236 0.929 . S
H250 C244 0.929 . S
H251 C245 0.930 . S
Mn252 O257 2.095 . S
Mn252 O267 2.162 . S
Mn252 O268 2.297 . S
Mn252 O276 2.385 1_455 S
Mn252 O277 2.195 1_455 S
Mn252 O278 2.094 . S
Mn253 O258 2.121 . S
Mn253 N260 2.257 . S
Mn253 N269 2.282 1_455 S
Mn253 O277 2.204 1_455 S
Mn253 O279 2.117 . S
C254 O276 1.234 . S
C254 O277 1.314 . S
C255 O267 1.281 . S
C255 O268 1.236 . S
C256 O278 1.240 . S
C256 O279 1.264 . S
O257 Mn252 2.095 . S
O257 C266 1.250 . S
O258 Mn253 2.121 . S
O258 C266 1.258 . S
C259 N260 1.326 . S
C259 C263 1.460 . S
C259 H265 0.929 . S
N260 Mn253 2.257 . S
N260 C259 1.326 . S
N260 C264 1.362 1_455 S
C261 C262 1.258 . S
C261 C264 1.431 . S
C261 C281 1.449 . S
C262 C261 1.258 . S
C262 C263 1.477 1_655 S
C262 H282 0.931 . S
C263 C259 1.460 . S
C263 C262 1.477 1_455 S
C263 H283 0.930 . S
C264 N260 1.362 1_655 S
C264 C261 1.431 . S
C264 C274 1.476 . S
H265 C259 0.929 . S
C266 O257 1.250 . S
C266 O258 1.258 . S
O267 Mn252 2.162 . S
O267 C255 1.281 . S
O268 Mn252 2.297 . S
O268 C255 1.236 . S
N269 Mn253 2.282 1_655 S
N269 C270 1.328 . S
N269 C274 1.318 . S
C270 N269 1.328 . S
C270 C271 1.457 . S
C270 H275 0.929 . S
C271 C270 1.457 . S
C271 C272 1.291 . S
C271 H284 0.931 . S
C272 C271 1.291 . S
C272 C273 1.373 . S
C272 H285 0.929 . S
C273 C272 1.373 . S
C273 C274 1.396 . S
C273 C280 1.403 . S
C274 C264 1.476 . S
C274 N269 1.318 . S
C274 C273 1.396 . S
H275 C270 0.929 . S
O276 Mn252 2.385 1_655 S
O276 C254 1.234 . S
O277 Mn252 2.195 1_655 S
O277 Mn253 2.204 1_655 S
O277 C254 1.314 . S
O278 Mn252 2.094 . S
O278 C256 1.240 . S
O279 Mn253 2.117 . S
O279 C256 1.264 . S
C280 C273 1.403 . S
C280 C281 1.399 . S
C280 H286 0.929 . S
C281 C261 1.449 . S
C281 C280 1.399 . S
C281 H287 0.930 . S
H282 C262 0.931 . S
H283 C263 0.930 . S
H284 C271 0.931 . S
H285 C272 0.929 . S
H286 C280 0.929 . S
H287 C281 0.930 . S
Mn288 O293 2.095 . S
Mn288 O303 2.162 . S
Mn288 O304 2.297 . S
Mn288 O312 2.385 . S
Mn288 O313 2.209 . S
Mn288 O314 2.094 . S
Mn289 O294 2.121 . S
Mn289 N296 2.257 . S
Mn289 N305 2.282 . S
Mn289 O313 2.215 . S
Mn289 O315 2.117 . S
C290 O312 1.234 . S
C290 O313 1.283 . S
C291 O303 1.281 . S
C291 O304 1.236 . S
C292 O314 1.240 . S
C292 O315 1.264 . S
O293 Mn288 2.095 . S
O293 C302 1.250 . S
O294 Mn289 2.121 . S
O294 C302 1.258 . S
C295 N296 1.326 . S
C295 C299 1.460 . S
C295 H301 0.929 . S
N296 Mn289 2.257 . S
N296 C295 1.326 . S
N296 C300 1.362 . S
C297 C298 1.258 . S
C297 C300 1.431 . S
C297 C317 1.449 . S
C298 C297 1.258 . S
C298 C299 1.477 . S
C298 H318 0.931 . S
C299 C295 1.460 . S
C299 C298 1.477 . S
C299 H319 0.930 . S
C300 N296 1.362 . S
C300 C297 1.431 . S
C300 C310 1.476 . S
H301 C295 0.929 . S
C302 O293 1.250 . S
C302 O294 1.258 . S
O303 Mn288 2.162 . S
O303 C291 1.281 . S
O304 Mn288 2.297 . S
O304 C291 1.236 . S
N305 Mn289 2.282 . S
N305 C306 1.328 . S
N305 C310 1.318 . S
C306 N305 1.328 . S
C306 C307 1.457 . S
C306 H311 0.929 . S
C307 C306 1.457 . S
C307 C308 1.291 . S
C307 H320 0.931 . S
C308 C307 1.291 . S
C308 C309 1.373 . S
C308 H321 0.929 . S
C309 C308 1.373 . S
C309 C310 1.396 . S
C309 C316 1.403 . S
C310 C300 1.476 . S
C310 N305 1.318 . S
C310 C309 1.396 . S
H311 C306 0.929 . S
O312 Mn288 2.385 . S
O312 C290 1.234 . S
O313 Mn288 2.209 . S
O313 Mn289 2.215 . S
O313 C290 1.283 . S
O314 Mn288 2.094 . S
O314 C292 1.240 . S
O315 Mn289 2.117 . S
O315 C292 1.264 . S
C316 C309 1.403 . S
C316 C317 1.399 . S
C316 H322 0.929 . S
C317 C297 1.449 . S
C317 C316 1.399 . S
C317 H323 0.930 . S
H318 C298 0.931 . S
H319 C299 0.930 . S
H320 C307 0.931 . S
H321 C308 0.929 . S
H322 C316 0.929 . S
H323 C317 0.930 . S
Mn324 O329 2.095 . S
Mn324 O339 2.162 . S
Mn324 O340 2.297 . S
Mn324 O348 2.385 . S
Mn324 O349 2.209 . S
Mn324 O350 2.094 . S
Mn325 O330 2.121 . S
Mn325 N332 2.257 . S
Mn325 N341 2.282 . S
Mn325 O349 2.215 . S
Mn325 O351 2.117 . S
C326 O348 1.234 . S
C326 O349 1.283 . S
C327 O339 1.281 . S
C327 O340 1.236 . S
C328 O350 1.240 . S
C328 O351 1.264 . S
O329 Mn324 2.095 . S
O329 C338 1.250 . S
O330 Mn325 2.121 . S
O330 C338 1.258 . S
C331 N332 1.326 . S
C331 C335 1.460 . S
C331 H337 0.929 . S
N332 Mn325 2.257 . S
N332 C331 1.326 . S
N332 C336 1.362 . S
C333 C334 1.258 . S
C333 C336 1.431 . S
C333 C353 1.449 . S
C334 C333 1.258 . S
C334 C335 1.477 . S
C334 H354 0.931 . S
C335 C331 1.460 . S
C335 C334 1.477 . S
C335 H355 0.930 . S
C336 N332 1.362 . S
C336 C333 1.431 . S
C336 C346 1.476 . S
H337 C331 0.929 . S
C338 O329 1.250 . S
C338 O330 1.258 . S
O339 Mn324 2.162 . S
O339 C327 1.281 . S
O340 Mn324 2.297 . S
O340 C327 1.236 . S
N341 Mn325 2.282 . S
N341 C342 1.328 . S
N341 C346 1.318 . S
C342 N341 1.328 . S
C342 C343 1.457 . S
C342 H347 0.929 . S
C343 C342 1.457 . S
C343 C344 1.291 . S
C343 H356 0.931 . S
C344 C343 1.291 . S
C344 C345 1.373 . S
C344 H357 0.929 . S
C345 C344 1.373 . S
C345 C346 1.396 . S
C345 C352 1.403 . S
C346 C336 1.476 . S
C346 N341 1.318 . S
C346 C345 1.396 . S
H347 C342 0.929 . S
O348 Mn324 2.385 . S
O348 C326 1.234 . S
O349 Mn324 2.209 . S
O349 Mn325 2.215 . S
O349 C326 1.283 . S
O350 Mn324 2.094 . S
O350 C328 1.240 . S
O351 Mn325 2.117 . S
O351 C328 1.264 . S
C352 C345 1.403 . S
C352 C353 1.399 . S
C352 H358 0.929 . S
C353 C333 1.449 . S
C353 C352 1.399 . S
C353 H359 0.930 . S
H354 C334 0.931 . S
H355 C335 0.930 . S
H356 C343 0.931 . S
H357 C344 0.929 . S
H358 C352 0.929 . S
H359 C353 0.930 . S
Mn360 O365 2.095 . S
Mn360 O375 2.162 . S
Mn360 O376 2.297 . S
Mn360 O384 2.385 . S
Mn360 O385 2.209 . S
Mn360 O386 2.094 . S
Mn361 O366 2.121 . S
Mn361 N368 2.257 . S
Mn361 N377 2.282 . S
Mn361 O385 2.215 . S
Mn361 O387 2.117 . S
C362 O384 1.234 . S
C362 O385 1.283 . S
C363 O375 1.281 . S
C363 O376 1.236 . S
C364 O386 1.240 . S
C364 O387 1.264 . S
O365 Mn360 2.095 . S
O365 C374 1.250 . S
O366 Mn361 2.121 . S
O366 C374 1.258 . S
C367 N368 1.326 . S
C367 C371 1.460 . S
C367 H373 0.929 . S
N368 Mn361 2.257 . S
N368 C367 1.326 . S
N368 C372 1.362 . S
C369 C370 1.258 . S
C369 C372 1.431 . S
C369 C389 1.449 . S
C370 C369 1.258 . S
C370 C371 1.477 . S
C370 H390 0.931 . S
C371 C367 1.460 . S
C371 C370 1.477 . S
C371 H391 0.930 . S
C372 N368 1.362 . S
C372 C369 1.431 . S
C372 C382 1.476 . S
H373 C367 0.929 . S
C374 O365 1.250 . S
C374 O366 1.258 . S
O375 Mn360 2.162 . S
O375 C363 1.281 . S
O376 Mn360 2.297 . S
O376 C363 1.236 . S
N377 Mn361 2.282 . S
N377 C378 1.328 . S
N377 C382 1.318 . S
C378 N377 1.328 . S
C378 C379 1.457 . S
C378 H383 0.929 . S
C379 C378 1.457 . S
C379 C380 1.291 . S
C379 H392 0.931 . S
C380 C379 1.291 . S
C380 C381 1.373 . S
C380 H393 0.929 . S
C381 C380 1.373 . S
C381 C382 1.396 . S
C381 C388 1.403 . S
C382 C372 1.476 . S
C382 N377 1.318 . S
C382 C381 1.396 . S
H383 C378 0.929 . S
O384 Mn360 2.385 . S
O384 C362 1.234 . S
O385 Mn360 2.209 . S
O385 Mn361 2.215 . S
O385 C362 1.283 . S
O386 Mn360 2.094 . S
O386 C364 1.240 . S
O387 Mn361 2.117 . S
O387 C364 1.264 . S
C388 C381 1.403 . S
C388 C389 1.399 . S
C388 H394 0.929 . S
C389 C369 1.449 . S
C389 C388 1.399 . S
C389 H395 0.930 . S
H390 C370 0.931 . S
H391 C371 0.930 . S
H392 C379 0.931 . S
H393 C380 0.929 . S
H394 C388 0.929 . S
H395 C389 0.930 . S
Mn396 O401 2.095 . S
Mn396 O411 2.162 . S
Mn396 O412 2.297 . S
Mn396 O420 2.385 . S
Mn396 O421 2.209 . S
Mn396 O422 2.094 . S
Mn397 O402 2.121 . S
Mn397 N404 2.257 1_565 S
Mn397 N413 2.282 . S
Mn397 O421 2.215 . S
Mn397 O423 2.117 . S
C398 O420 1.234 . S
C398 O421 1.283 . S
C399 O411 1.281 . S
C399 O412 1.236 . S
C400 O422 1.240 . S
C400 O423 1.264 . S
O401 Mn396 2.095 . S
O401 C410 1.250 . S
O402 Mn397 2.121 . S
O402 C410 1.258 . S
C403 N404 1.326 . S
C403 C407 1.460 . S
C403 H409 0.929 . S
N404 Mn397 2.257 1_545 S
N404 C403 1.326 . S
N404 C408 1.362 . S
C405 C406 1.258 . S
C405 C408 1.431 . S
C405 C425 1.449 . S
C406 C405 1.258 . S
C406 C407 1.477 . S
C406 H426 0.931 . S
C407 C403 1.460 . S
C407 C406 1.477 . S
C407 H427 0.930 . S
C408 N404 1.362 . S
C408 C405 1.431 . S
C408 C418 1.476 . S
H409 C403 0.929 . S
C410 O401 1.250 . S
C410 O402 1.258 . S
O411 Mn396 2.162 . S
O411 C399 1.281 . S
O412 Mn396 2.297 . S
O412 C399 1.236 . S
N413 Mn397 2.282 . S
N413 C414 1.328 1_554 S
N413 C418 1.318 1_565 S
C414 N413 1.328 1_556 S
C414 C415 1.457 . S
C414 H419 0.929 . S
C415 C414 1.457 . S
C415 C416 1.291 . S
C415 H428 0.931 . S
C416 C415 1.291 . S
C416 C417 1.373 1_566 S
C416 H429 0.929 . S
C417 C416 1.373 1_544 S
C417 C418 1.396 . S
C417 C424 1.403 . S
C418 C408 1.476 . S
C418 N413 1.318 1_545 S
C418 C417 1.396 . S
H419 C414 0.929 . S
O420 Mn396 2.385 . S
O420 C398 1.234 . S
O421 Mn396 2.209 . S
O421 Mn397 2.215 . S
O421 C398 1.283 . S
O422 Mn396 2.094 . S
O422 C400 1.240 . S
O423 Mn397 2.117 . S
O423 C400 1.264 . S
C424 C417 1.403 . S
C424 C425 1.399 . S
C424 H430 0.929 . S
C425 C405 1.449 . S
C425 C424 1.399 . S
C425 H431 0.930 . S
H426 C406 0.931 . S
H427 C407 0.930 . S
H428 C415 0.931 . S
H429 C416 0.929 . S
H430 C424 0.929 . S
H431 C425 0.930 . S
Mn432 O437 2.095 . S
Mn432 O447 2.162 . S
Mn432 O448 2.297 . S
Mn432 O456 2.385 . S
Mn432 O457 2.209 . S
Mn432 O458 2.112 . S
Mn433 O438 2.121 1_556 S
Mn433 N440 2.257 1_556 S
Mn433 N449 2.282 . S
Mn433 O457 2.215 1_556 S
Mn433 O459 2.117 . S
C434 O456 1.234 . S
C434 O457 1.283 . S
C435 O447 1.281 . S
C435 O448 1.236 . S
C436 O458 1.220 1_556 S
C436 O459 1.264 . S
O437 Mn432 2.095 . S
O437 C446 1.250 . S
O438 Mn433 2.121 1_554 S
O438 C446 1.258 . S
C439 N440 1.326 . S
C439 C443 1.460 . S
C439 H445 0.929 . S
N440 Mn433 2.257 1_554 S
N440 C439 1.326 . S
N440 C444 1.342 1_554 S
C441 C442 1.258 . S
C441 C444 1.432 1_554 S
C441 C461 1.449 1_554 S
C442 C441 1.258 . S
C442 C443 1.477 . S
C442 H462 0.931 . S
C443 C439 1.460 . S
C443 C442 1.477 . S
C443 H463 0.930 . S
C444 N440 1.342 1_556 S
C444 C441 1.432 1_556 S
C444 C454 1.495 . S
H445 C439 0.929 . S
C446 O437 1.250 . S
C446 O438 1.258 . S
O447 Mn432 2.162 . S
O447 C435 1.281 . S
O448 Mn432 2.297 . S
O448 C435 1.236 . S
N449 Mn433 2.282 . S
N449 C450 1.328 . S
N449 C454 1.318 . S
C450 N449 1.328 . S
C450 C451 1.457 . S
C450 H455 0.929 . S
C451 C450 1.457 . S
C451 C452 1.291 . S
C451 H464 0.931 . S
C452 C451 1.291 . S
C452 C453 1.373 . S
C452 H465 0.929 . S
C453 C452 1.373 . S
C453 C454 1.396 . S
C453 C460 1.403 . S
C454 C444 1.495 . S
C454 N449 1.318 . S
C454 C453 1.396 . S
H455 C450 0.929 . S
O456 Mn432 2.385 . S
O456 C434 1.234 . S
O457 Mn432 2.209 . S
O457 Mn433 2.215 1_554 S
O457 C434 1.283 . S
O458 Mn432 2.112 . S
O458 C436 1.220 1_554 S
O459 Mn433 2.117 . S
O459 C436 1.264 . S
C460 C453 1.403 . S
C460 C461 1.399 . S
C460 H466 0.929 . S
C461 C441 1.449 1_556 S
C461 C460 1.399 . S
C461 H467 0.930 . S
H462 C442 0.931 . S
H463 C443 0.930 . S
H464 C451 0.931 . S
H465 C452 0.929 . S
H466 C460 0.929 . S
H467 C461 0.930 . S
Mn468 O473 2.095 1_554 S
Mn468 O483 2.162 . S
Mn468 O484 2.297 . S
Mn468 O492 2.383 . S
Mn468 O493 2.209 1_554 S
Mn468 O494 2.094 1_554 S
Mn469 O474 2.121 . S
Mn469 N476 2.257 . S
Mn469 N485 2.282 . S
Mn469 O493 2.215 . S
Mn469 O495 2.117 . S
C470 O492 1.231 1_556 S
C470 O493 1.283 . S
C471 O483 1.281 . S
C471 O484 1.236 . S
C472 O494 1.240 . S
C472 O495 1.264 . S
O473 Mn468 2.095 1_556 S
O473 C482 1.250 . S
O474 Mn469 2.121 . S
O474 C482 1.258 . S
C475 N476 1.326 . S
C475 C479 1.460 . S
C475 H481 0.929 . S
N476 Mn469 2.257 . S
N476 C475 1.326 . S
N476 C480 1.362 . S
C477 C478 1.258 . S
C477 C480 1.431 . S
C477 C497 1.449 . S
C478 C477 1.258 . S
C478 C479 1.477 . S
C478 H498 0.931 . S
C479 C475 1.460 . S
C479 C478 1.477 . S
C479 H499 0.930 . S
C480 N476 1.362 . S
C480 C477 1.431 . S
C480 C490 1.476 . S
H481 C475 0.929 . S
C482 O473 1.250 . S
C482 O474 1.258 . S
O483 Mn468 2.162 . S
O483 C471 1.281 . S
O484 Mn468 2.297 . S
O484 C471 1.236 . S
N485 Mn469 2.282 . S
N485 C486 1.328 . S
N485 C490 1.318 . S
C486 N485 1.328 . S
C486 C487 1.457 . S
C486 H491 0.929 . S
C487 C486 1.457 . S
C487 C488 1.291 . S
C487 H500 0.931 . S
C488 C487 1.291 . S
C488 C489 1.373 . S
C488 H501 0.929 . S
C489 C488 1.373 . S
C489 C490 1.396 . S
C489 C496 1.403 . S
C490 C480 1.476 . S
C490 N485 1.318 . S
C490 C489 1.396 . S
H491 C486 0.929 . S
O492 Mn468 2.383 . S
O492 C470 1.231 1_554 S
O493 Mn468 2.209 1_556 S
O493 Mn469 2.215 . S
O493 C470 1.283 . S
O494 Mn468 2.094 1_556 S
O494 C472 1.240 . S
O495 Mn469 2.117 . S
O495 C472 1.264 . S
C496 C489 1.403 . S
C496 C497 1.399 . S
C496 H502 0.929 . S
C497 C477 1.449 . S
C497 C496 1.399 . S
C497 H503 0.930 . S
H498 C478 0.931 . S
H499 C479 0.930 . S
H500 C487 0.931 . S
H501 C488 0.929 . S
H502 C496 0.929 . S
H503 C497 0.930 . S
Mn504 O509 2.095 . S
Mn504 O519 2.162 . S
Mn504 O520 2.297 . S
Mn504 O528 2.385 . S
Mn504 O529 2.209 . S
Mn504 O530 2.094 . S
Mn505 O510 2.121 . S
Mn505 N512 2.257 . S
Mn505 N521 2.282 . S
Mn505 O529 2.215 . S
Mn505 O531 2.117 . S
C506 O528 1.234 . S
C506 O529 1.283 . S
C507 O519 1.281 . S
C507 O520 1.236 . S
C508 O530 1.240 . S
C508 O531 1.264 . S
O509 Mn504 2.095 . S
O509 C518 1.250 . S
O510 Mn505 2.121 . S
O510 C518 1.258 . S
C511 N512 1.326 . S
C511 C515 1.460 . S
C511 H517 0.929 . S
N512 Mn505 2.257 . S
N512 C511 1.326 . S
N512 C516 1.362 . S
C513 C514 1.258 . S
C513 C516 1.431 . S
C513 C533 1.449 . S
C514 C513 1.258 . S
C514 C515 1.477 . S
C514 H534 0.931 . S
C515 C511 1.460 . S
C515 C514 1.477 . S
C515 H535 0.930 . S
C516 N512 1.362 . S
C516 C513 1.431 . S
C516 C526 1.476 . S
H517 C511 0.929 . S
C518 O509 1.250 . S
C518 O510 1.258 . S
O519 Mn504 2.162 . S
O519 C507 1.281 . S
O520 Mn504 2.297 . S
O520 C507 1.236 . S
N521 Mn505 2.282 . S
N521 C522 1.328 . S
N521 C526 1.318 . S
C522 N521 1.328 . S
C522 C523 1.457 . S
C522 H527 0.929 . S
C523 C522 1.457 . S
C523 C524 1.291 . S
C523 H536 0.931 . S
C524 C523 1.291 . S
C524 C525 1.373 . S
C524 H537 0.929 . S
C525 C524 1.373 . S
C525 C526 1.396 . S
C525 C532 1.403 . S
C526 C516 1.476 . S
C526 N521 1.318 . S
C526 C525 1.396 . S
H527 C522 0.929 . S
O528 Mn504 2.385 . S
O528 C506 1.234 . S
O529 Mn504 2.209 . S
O529 Mn505 2.215 . S
O529 C506 1.283 . S
O530 Mn504 2.094 . S
O530 C508 1.240 . S
O531 Mn505 2.117 . S
O531 C508 1.264 . S
C532 C525 1.403 . S
C532 C533 1.399 . S
C532 H538 0.929 . S
C533 C513 1.449 . S
C533 C532 1.399 . S
C533 H539 0.930 . S
H534 C514 0.931 . S
H535 C515 0.930 . S
H536 C523 0.931 . S
H537 C524 0.929 . S
H538 C532 0.929 . S
H539 C533 0.930 . S
Mn540 O545 2.095 . S
Mn540 O555 2.162 . S
Mn540 O556 2.297 . S
Mn540 O564 2.385 . S
Mn540 O565 2.209 . S
Mn540 O566 2.094 . S
Mn541 O546 2.121 . S
Mn541 N548 2.250 1_565 S
Mn541 N557 2.282 . S
Mn541 O565 2.215 . S
Mn541 O567 2.117 . S
C542 O564 1.234 . S
C542 O565 1.283 . S
C543 O555 1.281 . S
C543 O556 1.236 . S
C544 O566 1.240 . S
C544 O567 1.264 . S
O545 Mn540 2.095 . S
O545 C554 1.250 . S
O546 Mn541 2.121 . S
O546 C554 1.258 . S
C547 N548 1.332 . S
C547 C551 1.460 . S
C547 H553 0.929 . S
N548 Mn541 2.250 1_545 S
N548 C547 1.332 . S
N548 C552 1.364 . S
C549 C550 1.258 . S
C549 C552 1.431 . S
C549 C569 1.449 . S
C550 C549 1.258 . S
C550 C551 1.477 . S
C550 H570 0.931 . S
C551 C547 1.460 . S
C551 C550 1.477 . S
C551 H571 0.930 . S
C552 N548 1.364 . S
C552 C549 1.431 . S
C552 C562 1.476 1_545 S
H553 C547 0.929 . S
C554 O545 1.250 . S
C554 O546 1.258 . S
O555 Mn540 2.162 . S
O555 C543 1.281 . S
O556 Mn540 2.297 . S
O556 C543 1.236 . S
N557 Mn541 2.282 . S
N557 C558 1.328 . S
N557 C562 1.318 . S
C558 N557 1.328 . S
C558 C559 1.457 . S
C558 H563 0.929 . S
C559 C558 1.457 . S
C559 C560 1.291 . S
C559 H572 0.931 . S
C560 C559 1.291 . S
C560 C561 1.373 . S
C560 H573 0.929 . S
C561 C560 1.373 . S
C561 C562 1.396 . S
C561 C568 1.403 1_565 S
C562 C552 1.476 1_565 S
C562 N557 1.318 . S
C562 C561 1.396 . S
H563 C558 0.929 . S
O564 Mn540 2.385 . S
O564 C542 1.234 . S
O565 Mn540 2.209 . S
O565 Mn541 2.215 . S
O565 C542 1.283 . S
O566 Mn540 2.094 . S
O566 C544 1.240 . S
O567 Mn541 2.117 . S
O567 C544 1.264 . S
C568 C561 1.403 1_545 S
C568 C569 1.399 . S
C568 H574 0.929 . S
C569 C549 1.449 . S
C569 C568 1.399 . S
C569 H575 0.930 . S
H570 C550 0.931 . S
H571 C551 0.930 . S
H572 C559 0.931 . S
H573 C560 0.929 . S
H574 C568 0.929 . S
H575 C569 0.930 . S
Mn576 O581 2.095 . S
Mn576 O591 2.162 . S
Mn576 O592 2.297 . S
Mn576 O600 2.385 1_545 S
Mn576 O601 2.209 . S
Mn576 O602 2.094 . S
Mn577 O582 2.121 . S
Mn577 N584 2.257 . S
Mn577 N593 2.282 1_545 S
Mn577 O601 2.215 . S
Mn577 O603 2.117 . S
C578 O600 1.234 . S
C578 O601 1.283 1_565 S
C579 O591 1.281 . S
C579 O592 1.236 . S
C580 O602 1.240 . S
C580 O603 1.264 . S
O581 Mn576 2.095 . S
O581 C590 1.250 . S
O582 Mn577 2.121 . S
O582 C590 1.258 . S
C583 N584 1.326 . S
C583 C587 1.460 . S
C583 H589 0.929 . S
N584 Mn577 2.257 . S
N584 C583 1.326 . S
N584 C588 1.362 1_545 S
C585 C586 1.258 . S
C585 C588 1.431 . S
C585 C605 1.449 . S
C586 C585 1.258 . S
C586 C587 1.477 1_565 S
C586 H606 0.931 . S
C587 C583 1.460 . S
C587 C586 1.477 1_545 S
C587 H607 0.930 . S
C588 N584 1.362 1_565 S
C588 C585 1.431 . S
C588 C598 1.476 . S
H589 C583 0.929 . S
C590 O581 1.250 . S
C590 O582 1.258 . S
O591 Mn576 2.162 . S
O591 C579 1.281 . S
O592 Mn576 2.297 . S
O592 C579 1.236 . S
N593 Mn577 2.282 1_565 S
N593 C594 1.328 . S
N593 C598 1.318 . S
C594 N593 1.328 . S
C594 C595 1.457 . S
C594 H599 0.929 . S
C595 C594 1.457 . S
C595 C596 1.291 . S
C595 H608 0.931 . S
C596 C595 1.291 . S
C596 C597 1.373 . S
C596 H609 0.929 . S
C597 C596 1.373 . S
C597 C598 1.396 . S
C597 C604 1.403 . S
C598 C588 1.476 . S
C598 N593 1.318 . S
C598 C597 1.396 . S
H599 C594 0.929 . S
O600 Mn576 2.385 1_565 S
O600 C578 1.234 . S
O601 Mn576 2.209 . S
O601 Mn577 2.215 . S
O601 C578 1.283 1_545 S
O602 Mn576 2.094 . S
O602 C580 1.240 . S
O603 Mn577 2.117 . S
O603 C580 1.264 . S
C604 C597 1.403 . S
C604 C605 1.399 . S
C604 H610 0.929 . S
C605 C585 1.449 . S
C605 C604 1.399 . S
C605 H611 0.930 . S
H606 C586 0.931 . S
H607 C587 0.930 . S
H608 C595 0.931 . S
H609 C596 0.929 . S
H610 C604 0.929 . S
H611 C605 0.930 . S
Mn612 O617 2.095 . S
Mn612 O627 2.162 . S
Mn612 O628 2.297 . S
Mn612 O636 2.385 . S
Mn612 O637 2.209 . S
Mn612 O638 2.094 . S
Mn613 O618 2.121 . S
Mn613 N620 2.257 . S
Mn613 N629 2.282 . S
Mn613 O637 2.215 . S
Mn613 O639 2.117 . S
C614 O636 1.234 . S
C614 O637 1.283 . S
C615 O627 1.281 . S
C615 O628 1.236 . S
C616 O638 1.240 . S
C616 O639 1.264 . S
O617 Mn612 2.095 . S
O617 C626 1.250 . S
O618 Mn613 2.121 . S
O618 C626 1.258 . S
C619 N620 1.326 . S
C619 C623 1.460 . S
C619 H625 0.929 . S
N620 Mn613 2.257 . S
N620 C619 1.326 . S
N620 C624 1.362 . S
C621 C622 1.258 . S
C621 C624 1.431 . S
C621 C641 1.449 . S
C622 C621 1.258 . S
C622 C623 1.477 . S
C622 H642 0.931 . S
C623 C619 1.460 . S
C623 C622 1.477 . S
C623 H643 0.930 . S
C624 N620 1.362 . S
C624 C621 1.431 . S
C624 C634 1.476 . S
H625 C619 0.929 . S
C626 O617 1.250 . S
C626 O618 1.258 . S
O627 Mn612 2.162 . S
O627 C615 1.281 . S
O628 Mn612 2.297 . S
O628 C615 1.236 . S
N629 Mn613 2.282 . S
N629 C630 1.328 . S
N629 C634 1.318 . S
C630 N629 1.328 . S
C630 C631 1.457 . S
C630 H635 0.929 . S
C631 C630 1.457 . S
C631 C632 1.291 . S
C631 H644 0.931 . S
C632 C631 1.291 . S
C632 C633 1.373 . S
C632 H645 0.929 . S
C633 C632 1.373 . S
C633 C634 1.396 . S
C633 C640 1.403 . S
C634 C624 1.476 . S
C634 N629 1.318 . S
C634 C633 1.396 . S
H635 C630 0.929 . S
O636 Mn612 2.385 . S
O636 C614 1.234 . S
O637 Mn612 2.209 . S
O637 Mn613 2.215 . S
O637 C614 1.283 . S
O638 Mn612 2.094 . S
O638 C616 1.240 . S
O639 Mn613 2.117 . S
O639 C616 1.264 . S
C640 C633 1.403 . S
C640 C641 1.399 . S
C640 H646 0.929 . S
C641 C621 1.449 . S
C641 C640 1.399 . S
C641 H647 0.930 . S
H642 C622 0.931 . S
H643 C623 0.930 . S
H644 C631 0.931 . S
H645 C632 0.929 . S
H646 C640 0.929 . S
H647 C641 0.930 . S
Mn648 O653 2.095 . S
Mn648 O663 2.162 . S
Mn648 O664 2.297 . S
Mn648 O672 2.385 . S
Mn648 O673 2.209 . S
Mn648 O674 2.094 . S
Mn649 O654 2.121 . S
Mn649 N656 2.257 . S
Mn649 N665 2.282 . S
Mn649 O673 2.215 . S
Mn649 O675 2.117 . S
C650 O672 1.234 . S
C650 O673 1.283 . S
C651 O663 1.281 . S
C651 O664 1.236 . S
C652 O674 1.240 . S
C652 O675 1.264 . S
O653 Mn648 2.095 . S
O653 C662 1.250 . S
O654 Mn649 2.121 . S
O654 C662 1.258 . S
C655 N656 1.326 . S
C655 C659 1.460 . S
C655 H661 0.929 . S
N656 Mn649 2.257 . S
N656 C655 1.326 . S
N656 C660 1.362 . S
C657 C658 1.258 . S
C657 C660 1.431 . S
C657 C677 1.449 . S
C658 C657 1.258 . S
C658 C659 1.477 . S
C658 H678 0.931 . S
C659 C655 1.460 . S
C659 C658 1.477 . S
C659 H679 0.930 . S
C660 N656 1.362 . S
C660 C657 1.431 . S
C660 C670 1.476 . S
H661 C655 0.929 . S
C662 O653 1.250 . S
C662 O654 1.258 . S
O663 Mn648 2.162 . S
O663 C651 1.281 . S
O664 Mn648 2.297 . S
O664 C651 1.236 . S
N665 Mn649 2.282 . S
N665 C666 1.328 . S
N665 C670 1.318 . S
C666 N665 1.328 . S
C666 C667 1.457 . S
C666 H671 0.929 . S
C667 C666 1.457 . S
C667 C668 1.291 . S
C667 H680 0.931 . S
C668 C667 1.291 . S
C668 C669 1.373 . S
C668 H681 0.929 . S
C669 C668 1.373 . S
C669 C670 1.396 . S
C669 C676 1.403 . S
C670 C660 1.476 . S
C670 N665 1.318 . S
C670 C669 1.396 . S
H671 C666 0.929 . S
O672 Mn648 2.385 . S
O672 C650 1.234 . S
O673 Mn648 2.209 . S
O673 Mn649 2.215 . S
O673 C650 1.283 . S
O674 Mn648 2.094 . S
O674 C652 1.240 . S
O675 Mn649 2.117 . S
O675 C652 1.264 . S
C676 C669 1.403 . S
C676 C677 1.399 . S
C676 H682 0.929 . S
C677 C657 1.449 . S
C677 C676 1.399 . S
C677 H683 0.930 . S
H678 C658 0.931 . S
H679 C659 0.930 . S
H680 C667 0.931 . S
H681 C668 0.929 . S
H682 C676 0.929 . S
H683 C677 0.930 . S
Mn684 O689 2.093 . S
Mn684 O699 2.162 . S
Mn684 O700 2.299 . S
Mn684 O708 2.387 1_565 S
Mn684 O709 2.209 1_565 S
Mn684 O710 2.094 . S
Mn685 O690 2.121 1_545 S
Mn685 N692 2.257 . S
Mn685 N701 2.282 . S
Mn685 O709 2.215 . S
Mn685 O711 2.117 . S
C686 O708 1.234 . S
C686 O709 1.283 . S
C687 O699 1.281 . S
C687 O700 1.233 . S
C688 O710 1.240 1_545 S
C688 O711 1.264 . S
O689 Mn684 2.093 . S
O689 C698 1.250 . S
O690 Mn685 2.121 1_565 S
O690 C698 1.258 . S
C691 N692 1.326 . S
C691 C695 1.460 . S
C691 H697 0.929 1_545 S
N692 Mn685 2.257 . S
N692 C691 1.326 . S
N692 C696 1.362 . S
C693 C694 1.258 . S
C693 C696 1.431 . S
C693 C713 1.449 . S
C694 C693 1.258 . S
C694 C695 1.477 . S
C694 H714 0.931 . S
C695 C691 1.460 . S
C695 C694 1.477 . S
C695 H715 0.930 . S
C696 N692 1.362 . S
C696 C693 1.431 . S
C696 C706 1.476 . S
H697 C691 0.929 1_565 S
C698 O689 1.250 . S
C698 O690 1.258 . S
O699 Mn684 2.162 . S
O699 C687 1.281 . S
O700 Mn684 2.299 . S
O700 C687 1.233 . S
N701 Mn685 2.282 . S
N701 C702 1.328 . S
N701 C706 1.318 . S
C702 N701 1.328 . S
C702 C703 1.457 . S
C702 H707 0.929 . S
C703 C702 1.457 . S
C703 C704 1.291 . S
C703 H716 0.931 . S
C704 C703 1.291 . S
C704 C705 1.373 . S
C704 H717 0.929 . S
C705 C704 1.373 . S
C705 C706 1.396 . S
C705 C712 1.403 . S
C706 C696 1.476 . S
C706 N701 1.318 . S
C706 C705 1.396 . S
H707 C702 0.929 . S
O708 Mn684 2.387 1_545 S
O708 C686 1.234 . S
O709 Mn684 2.209 1_545 S
O709 Mn685 2.215 . S
O709 C686 1.283 . S
O710 Mn684 2.094 . S
O710 C688 1.240 1_565 S
O711 Mn685 2.117 . S
O711 C688 1.264 . S
C712 C705 1.403 . S
C712 C713 1.399 . S
C712 H718 0.929 . S
C713 C693 1.449 . S
C713 C712 1.399 . S
C713 H719 0.930 . S
H714 C694 0.931 . S
H715 C695 0.930 . S
H716 C703 0.931 . S
H717 C704 0.929 . S
H718 C712 0.929 . S
H719 C713 0.930 . S
Mn720 O725 2.095 . S
Mn720 O735 2.162 . S
Mn720 O736 2.297 . S
Mn720 O744 2.385 . S
Mn720 O745 2.209 . S
Mn720 O746 2.094 1_554 S
Mn721 O726 2.121 1_556 S
Mn721 N728 2.257 . S
Mn721 N737 2.282 . S
Mn721 O745 2.215 1_556 S
Mn721 O747 2.117 . S
C722 O744 1.234 . S
C722 O745 1.283 . S
C723 O735 1.281 . S
C723 O736 1.236 . S
C724 O746 1.240 . S
C724 O747 1.264 . S
O725 Mn720 2.095 . S
O725 C734 1.250 . S
O726 Mn721 2.121 1_554 S
O726 C734 1.258 . S
C727 N728 1.326 . S
C727 C731 1.460 . S
C727 H733 0.913 1_556 S
N728 Mn721 2.257 . S
N728 C727 1.326 . S
N728 C732 1.362 . S
C729 C730 1.258 . S
C729 C732 1.431 . S
C729 C749 1.449 . S
C730 C729 1.258 . S
C730 C731 1.477 . S
C730 H750 0.931 . S
C731 C727 1.460 . S
C731 C730 1.477 . S
C731 H751 0.930 . S
C732 N728 1.362 . S
C732 C729 1.431 . S
C732 C742 1.476 . S
H733 C727 0.913 1_554 S
C734 O725 1.250 . S
C734 O726 1.258 . S
O735 Mn720 2.162 . S
O735 C723 1.281 . S
O736 Mn720 2.297 . S
O736 C723 1.236 . S
N737 Mn721 2.282 . S
N737 C738 1.328 . S
N737 C742 1.318 . S
C738 N737 1.328 . S
C738 C739 1.457 . S
C738 H743 0.929 . S
C739 C738 1.457 . S
C739 C740 1.291 . S
C739 H752 0.931 . S
C740 C739 1.291 . S
C740 C741 1.373 . S
C740 H753 0.929 . S
C741 C740 1.373 . S
C741 C742 1.396 . S
C741 C748 1.403 . S
C742 C732 1.476 . S
C742 N737 1.318 . S
C742 C741 1.396 . S
H743 C738 0.929 . S
O744 Mn720 2.385 . S
O744 C722 1.234 . S
O745 Mn720 2.209 . S
O745 Mn721 2.215 1_554 S
O745 C722 1.283 . S
O746 Mn720 2.094 1_556 S
O746 C724 1.240 . S
O747 Mn721 2.117 . S
O747 C724 1.264 . S
C748 C741 1.403 . S
C748 C749 1.399 . S
C748 H754 0.929 . S
C749 C729 1.449 . S
C749 C748 1.399 . S
C749 H755 0.930 . S
H750 C730 0.931 . S
H751 C731 0.930 . S
H752 C739 0.931 . S
H753 C740 0.929 . S
H754 C748 0.929 . S
H755 C749 0.930 . S
Mn756 O761 2.095 . S
Mn756 O771 2.162 . S
Mn756 O772 2.297 . S
Mn756 O780 2.385 . S
Mn756 O781 2.209 . S
Mn756 O782 2.094 . S
Mn757 O762 2.121 . S
Mn757 N764 2.257 . S
Mn757 N773 2.282 . S
Mn757 O781 2.215 . S
Mn757 O783 2.117 . S
C758 O780 1.234 . S
C758 O781 1.283 . S
C759 O771 1.281 . S
C759 O772 1.236 . S
C760 O782 1.240 . S
C760 O783 1.264 . S
O761 Mn756 2.095 . S
O761 C770 1.250 . S
O762 Mn757 2.121 . S
O762 C770 1.258 . S
C763 N764 1.326 . S
C763 C767 1.460 . S
C763 H769 0.929 . S
N764 Mn757 2.257 . S
N764 C763 1.326 . S
N764 C768 1.362 . S
C765 C766 1.258 . S
C765 C768 1.431 . S
C765 C785 1.449 . S
C766 C765 1.258 . S
C766 C767 1.477 . S
C766 H786 0.931 . S
C767 C763 1.460 . S
C767 C766 1.477 . S
C767 H787 0.930 . S
C768 N764 1.362 . S
C768 C765 1.431 . S
C768 C778 1.476 . S
H769 C763 0.929 . S
C770 O761 1.250 . S
C770 O762 1.258 . S
O771 Mn756 2.162 . S
O771 C759 1.281 . S
O772 Mn756 2.297 . S
O772 C759 1.236 . S
N773 Mn757 2.282 . S
N773 C774 1.328 . S
N773 C778 1.318 . S
C774 N773 1.328 . S
C774 C775 1.457 . S
C774 H779 0.929 . S
C775 C774 1.457 . S
C775 C776 1.291 . S
C775 H788 0.931 . S
C776 C775 1.291 . S
C776 C777 1.373 . S
C776 H789 0.929 . S
C777 C776 1.373 . S
C777 C778 1.396 . S
C777 C784 1.403 . S
C778 C768 1.476 . S
C778 N773 1.318 . S
C778 C777 1.396 . S
H779 C774 0.929 . S
O780 Mn756 2.385 . S
O780 C758 1.234 . S
O781 Mn756 2.209 . S
O781 Mn757 2.215 . S
O781 C758 1.283 . S
O782 Mn756 2.094 . S
O782 C760 1.240 . S
O783 Mn757 2.117 . S
O783 C760 1.264 . S
C784 C777 1.403 . S
C784 C785 1.399 . S
C784 H790 0.929 . S
C785 C765 1.449 . S
C785 C784 1.399 . S
C785 H791 0.930 . S
H786 C766 0.931 . S
H787 C767 0.930 . S
H788 C775 0.931 . S
H789 C776 0.929 . S
H790 C784 0.929 . S
H791 C785 0.930 . S
Mn792 O797 2.095 . S
Mn792 O807 2.162 . S
Mn792 O808 2.297 . S
Mn792 O816 2.385 . S
Mn792 O817 2.209 . S
Mn792 O818 2.094 . S
Mn793 O798 2.121 . S
Mn793 N800 2.257 . S
Mn793 N809 2.282 . S
Mn793 O817 2.215 . S
Mn793 O819 2.117 . S
C794 O816 1.234 . S
C794 O817 1.283 . S
C795 O807 1.281 . S
C795 O808 1.236 . S
C796 O818 1.240 . S
C796 O819 1.264 . S
O797 Mn792 2.095 . S
O797 C806 1.250 . S
O798 Mn793 2.121 . S
O798 C806 1.258 . S
C799 N800 1.326 . S
C799 C803 1.460 . S
C799 H805 0.929 . S
N800 Mn793 2.257 . S
N800 C799 1.326 . S
N800 C804 1.362 . S
C801 C802 1.258 . S
C801 C804 1.431 . S
C801 C821 1.449 . S
C802 C801 1.258 . S
C802 C803 1.477 . S
C802 H822 0.931 . S
C803 C799 1.460 . S
C803 C802 1.477 . S
C803 H823 0.930 . S
C804 N800 1.362 . S
C804 C801 1.431 . S
C804 C814 1.476 . S
H805 C799 0.929 . S
C806 O797 1.250 . S
C806 O798 1.258 . S
O807 Mn792 2.162 . S
O807 C795 1.281 . S
O808 Mn792 2.297 . S
O808 C795 1.236 . S
N809 Mn793 2.282 . S
N809 C810 1.328 . S
N809 C814 1.318 . S
C810 N809 1.328 . S
C810 C811 1.457 . S
C810 H815 0.929 . S
C811 C810 1.457 . S
C811 C812 1.291 . S
C811 H824 0.931 . S
C812 C811 1.291 . S
C812 C813 1.373 . S
C812 H825 0.929 . S
C813 C812 1.373 . S
C813 C814 1.396 . S
C813 C820 1.403 . S
C814 C804 1.476 . S
C814 N809 1.318 . S
C814 C813 1.396 . S
H815 C810 0.929 . S
O816 Mn792 2.385 . S
O816 C794 1.234 . S
O817 Mn792 2.209 . S
O817 Mn793 2.215 . S
O817 C794 1.283 . S
O818 Mn792 2.094 . S
O818 C796 1.240 . S
O819 Mn793 2.117 . S
O819 C796 1.264 . S
C820 C813 1.403 . S
C820 C821 1.399 . S
C820 H826 0.929 . S
C821 C801 1.449 . S
C821 C820 1.399 . S
C821 H827 0.930 . S
H822 C802 0.931 . S
H823 C803 0.930 . S
H824 C811 0.931 . S
H825 C812 0.929 . S
H826 C820 0.929 . S
H827 C821 0.930 . S
Mn828 O833 2.095 . S
Mn828 O843 2.162 . S
Mn828 O844 2.297 . S
Mn828 O852 2.385 . S
Mn828 O853 2.209 . S
Mn828 O854 2.094 . S
Mn829 O834 2.121 . S
Mn829 N836 2.257 . S
Mn829 N845 2.282 . S
Mn829 O853 2.215 . S
Mn829 O855 2.117 . S
C830 O852 1.234 . S
C830 O853 1.283 . S
C831 O843 1.281 . S
C831 O844 1.236 . S
C832 O854 1.240 . S
C832 O855 1.264 . S
O833 Mn828 2.095 . S
O833 C842 1.250 . S
O834 Mn829 2.121 . S
O834 C842 1.258 . S
C835 N836 1.326 . S
C835 C839 1.460 . S
C835 H841 0.929 . S
N836 Mn829 2.257 . S
N836 C835 1.326 . S
N836 C840 1.362 . S
C837 C838 1.258 . S
C837 C840 1.431 . S
C837 C857 1.449 . S
C838 C837 1.258 . S
C838 C839 1.477 . S
C838 H858 0.931 . S
C839 C835 1.460 . S
C839 C838 1.477 . S
C839 H859 0.930 . S
C840 N836 1.362 . S
C840 C837 1.431 . S
C840 C850 1.476 . S
H841 C835 0.929 . S
C842 O833 1.250 . S
C842 O834 1.258 . S
O843 Mn828 2.162 . S
O843 C831 1.281 . S
O844 Mn828 2.297 . S
O844 C831 1.236 . S
N845 Mn829 2.282 . S
N845 C846 1.328 . S
N845 C850 1.318 . S
C846 N845 1.328 . S
C846 C847 1.457 . S
C846 H851 0.929 . S
C847 C846 1.457 . S
C847 C848 1.291 . S
C847 H860 0.931 . S
C848 C847 1.291 . S
C848 C849 1.373 . S
C848 H861 0.929 . S
C849 C848 1.373 . S
C849 C850 1.396 . S
C849 C856 1.403 . S
C850 C840 1.476 . S
C850 N845 1.318 . S
C850 C849 1.396 . S
H851 C846 0.929 . S
O852 Mn828 2.385 . S
O852 C830 1.234 . S
O853 Mn828 2.209 . S
O853 Mn829 2.215 . S
O853 C830 1.283 . S
O854 Mn828 2.094 . S
O854 C832 1.240 . S
O855 Mn829 2.117 . S
O855 C832 1.264 . S
C856 C849 1.403 . S
C856 C857 1.399 . S
C856 H862 0.929 . S
C857 C837 1.449 . S
C857 C856 1.399 . S
C857 H863 0.930 . S
H858 C838 0.931 . S
H859 C839 0.930 . S
H860 C847 0.931 . S
H861 C848 0.929 . S
H862 C856 0.929 . S
H863 C857 0.930 . S
Pr864 C866 2.880 1_454 S
Pr864 O884 2.562 1_455 S
Pr864 O885 2.490 1_454 S
Pr864 O886 2.695 . S
Pr864 O887 2.512 1_554 S
Pr864 O889 2.437 . S
Pr864 O892 2.436 . S
Pr864 O894 2.438 . S
Pr865 C875 2.880 . S
Pr865 O886 2.436 . S
Pr865 O888 2.438 . S
Pr865 O890 2.562 . S
Pr865 O891 2.490 . S
Pr865 O892 2.695 . S
Pr865 O893 2.512 . S
Pr865 O895 2.437 . S
C866 Pr864 2.880 1_656 S
C866 C867 1.491 . S
C866 O884 1.254 1_556 S
C866 O885 1.225 . S
C867 C866 1.491 . S
C867 C868 1.392 . S
C867 C872 1.356 . S
C868 C867 1.392 . S
C868 C869 1.368 . S
C868 H896 0.929 . S
C869 C868 1.368 . S
C869 C870 1.386 . S
C869 H897 0.929 . S
C870 C869 1.386 . S
C870 C871 1.373 . S
C871 C870 1.373 . S
C871 C872 1.409 . S
C871 H898 0.931 . S
C872 C867 1.356 . S
C872 C871 1.409 . S
C872 H899 0.930 1_556 S
C873 O886 1.270 1_556 S
C873 O887 1.248 . S
C874 O888 1.267 . S
C874 O889 1.278 . S
C875 Pr865 2.880 . S
C875 C876 1.491 . S
C875 O890 1.254 . S
C875 O891 1.225 . S
C876 C875 1.491 . S
C876 C877 1.392 . S
C876 C881 1.356 . S
C877 C876 1.392 . S
C877 C878 1.368 . S
C877 H900 0.929 . S
C878 C877 1.368 . S
C878 C879 1.386 . S
C878 H901 0.929 . S
C879 C878 1.386 . S
C879 C880 1.373 . S
C880 C879 1.373 . S
C880 C881 1.409 . S
C880 H902 0.931 . S
C881 C876 1.356 . S
C881 C880 1.409 . S
C881 H903 0.930 . S
C882 O892 1.270 . S
C882 O893 1.248 . S
C883 O894 1.267 . S
C883 O895 1.278 . S
O884 Pr864 2.562 1_655 S
O884 C866 1.254 1_554 S
O885 Pr864 2.490 1_656 S
O885 C866 1.225 . S
O886 Pr864 2.695 . S
O886 Pr865 2.436 . S
O886 C873 1.270 1_554 S
O887 Pr864 2.512 1_556 S
O887 C873 1.248 . S
O888 Pr865 2.438 . S
O888 C874 1.267 . S
O889 Pr864 2.437 . S
O889 C874 1.278 . S
O890 Pr865 2.562 . S
O890 C875 1.254 . S
O891 Pr865 2.490 . S
O891 C875 1.225 . S
O892 Pr864 2.436 . S
O892 Pr865 2.695 . S
O892 C882 1.270 . S
O893 Pr865 2.512 . S
O893 C882 1.248 . S
O894 Pr864 2.438 . S
O894 C883 1.267 . S
O895 Pr865 2.437 . S
O895 C883 1.278 . S
H896 C868 0.929 . S
H897 C869 0.929 . S
H898 C871 0.931 . S
H899 C872 0.930 1_554 S
H900 C877 0.929 . S
H901 C878 0.929 . S
H902 C880 0.931 . S
H903 C881 0.930 . S
Pr904 C906 2.880 . S
Pr904 O924 2.562 . S
Pr904 O925 2.490 . S
Pr904 O926 2.695 . S
Pr904 O927 2.512 . S
Pr904 O929 2.437 . S
Pr904 O932 2.436 . S
Pr904 O934 2.438 . S
Pr905 C915 2.880 . S
Pr905 O926 2.436 . S
Pr905 O928 2.438 . S
Pr905 O930 2.562 . S
Pr905 O931 2.490 . S
Pr905 O932 2.695 . S
Pr905 O933 2.512 . S
Pr905 O935 2.437 . S
C906 Pr904 2.880 . S
C906 C907 1.491 . S
C906 O924 1.254 . S
C906 O925 1.225 . S
C907 C906 1.491 . S
C907 C908 1.392 . S
C907 C912 1.356 . S
C908 C907 1.392 . S
C908 C909 1.368 . S
C908 H936 0.929 . S
C909 C908 1.368 . S
C909 C910 1.386 . S
C909 H937 0.929 . S
C910 C909 1.386 . S
C910 C911 1.373 . S
C911 C910 1.373 . S
C911 C912 1.409 . S
C911 H938 0.931 . S
C912 C907 1.356 . S
C912 C911 1.409 . S
C912 H939 0.930 . S
C913 O926 1.270 . S
C913 O927 1.248 . S
C914 O928 1.267 . S
C914 O929 1.278 . S
C915 Pr905 2.880 . S
C915 C916 1.491 . S
C915 O930 1.254 . S
C915 O931 1.225 . S
C916 C915 1.491 . S
C916 C917 1.392 . S
C916 C921 1.356 . S
C917 C916 1.392 . S
C917 C918 1.368 . S
C917 H940 0.929 . S
C918 C917 1.368 . S
C918 C919 1.386 . S
C918 H941 0.929 . S
C919 C918 1.386 . S
C919 C920 1.373 . S
C920 C919 1.373 . S
C920 C921 1.409 . S
C920 H942 0.931 . S
C921 C916 1.356 . S
C921 C920 1.409 . S
C921 H943 0.930 . S
C922 O932 1.270 . S
C922 O933 1.248 . S
C923 O934 1.267 . S
C923 O935 1.278 . S
O924 Pr904 2.562 . S
O924 C906 1.254 . S
O925 Pr904 2.490 . S
O925 C906 1.225 . S
O926 Pr904 2.695 . S
O926 Pr905 2.436 . S
O926 C913 1.270 . S
O927 Pr904 2.512 . S
O927 C913 1.248 . S
O928 Pr905 2.438 . S
O928 C914 1.267 . S
O929 Pr904 2.437 . S
O929 C914 1.278 . S
O930 Pr905 2.562 . S
O930 C915 1.254 . S
O931 Pr905 2.490 . S
O931 C915 1.225 . S
O932 Pr904 2.436 . S
O932 Pr905 2.695 . S
O932 C922 1.270 . S
O933 Pr905 2.512 . S
O933 C922 1.248 . S
O934 Pr904 2.438 . S
O934 C923 1.267 . S
O935 Pr905 2.437 . S
O935 C923 1.278 . S
H936 C908 0.929 . S
H937 C909 0.929 . S
H938 C911 0.931 . S
H939 C912 0.930 . S
H940 C917 0.929 . S
H941 C918 0.929 . S
H942 C920 0.931 . S
H943 C921 0.930 . S
Pr944 C946 2.880 . S
Pr944 O964 2.562 . S
Pr944 O965 2.490 . S
Pr944 O966 2.695 . S
Pr944 O967 2.512 . S
Pr944 O969 2.437 . S
Pr944 O972 2.436 . S
Pr944 O974 2.438 . S
Pr945 C955 2.880 . S
Pr945 O966 2.436 . S
Pr945 O968 2.438 . S
Pr945 O970 2.562 . S
Pr945 O971 2.490 . S
Pr945 O972 2.695 . S
Pr945 O973 2.512 . S
Pr945 O975 2.437 . S
C946 Pr944 2.880 . S
C946 C947 1.491 . S
C946 O964 1.254 . S
C946 O965 1.225 . S
C947 C946 1.491 . S
C947 C948 1.392 . S
C947 C952 1.356 . S
C948 C947 1.392 . S
C948 C949 1.368 . S
C948 H976 0.929 . S
C949 C948 1.368 . S
C949 C950 1.386 . S
C949 H977 0.929 . S
C950 C949 1.386 . S
C950 C951 1.373 . S
C951 C950 1.373 . S
C951 C952 1.409 . S
C951 H978 0.931 . S
C952 C947 1.356 . S
C952 C951 1.409 . S
C952 H979 0.930 . S
C953 O966 1.270 . S
C953 O967 1.248 . S
C954 O968 1.267 . S
C954 O969 1.278 . S
C955 Pr945 2.880 . S
C955 C956 1.491 . S
C955 O970 1.254 . S
C955 O971 1.225 . S
C956 C955 1.491 . S
C956 C957 1.392 . S
C956 C961 1.356 . S
C957 C956 1.392 . S
C957 C958 1.368 . S
C957 H980 0.929 . S
C958 C957 1.368 . S
C958 C959 1.386 . S
C958 H981 0.929 . S
C959 C958 1.386 . S
C959 C960 1.373 . S
C960 C959 1.373 . S
C960 C961 1.409 . S
C960 H982 0.931 . S
C961 C956 1.356 . S
C961 C960 1.409 . S
C961 H983 0.930 . S
C962 O972 1.270 . S
C962 O973 1.248 . S
C963 O974 1.267 . S
C963 O975 1.278 . S
O964 Pr944 2.562 . S
O964 C946 1.254 . S
O965 Pr944 2.490 . S
O965 C946 1.225 . S
O966 Pr944 2.695 . S
O966 Pr945 2.436 . S
O966 C953 1.270 . S
O967 Pr944 2.512 . S
O967 C953 1.248 . S
O968 Pr945 2.438 . S
O968 C954 1.267 . S
O969 Pr944 2.437 . S
O969 C954 1.278 . S
O970 Pr945 2.562 . S
O970 C955 1.254 . S
O971 Pr945 2.490 . S
O971 C955 1.225 . S
O972 Pr944 2.436 . S
O972 Pr945 2.695 . S
O972 C962 1.270 . S
O973 Pr945 2.512 . S
O973 C962 1.248 . S
O974 Pr944 2.438 . S
O974 C963 1.267 . S
O975 Pr945 2.437 . S
O975 C963 1.278 . S
H976 C948 0.929 . S
H977 C949 0.929 . S
H978 C951 0.931 . S
H979 C952 0.930 . S
H980 C957 0.929 . S
H981 C958 0.929 . S
H982 C960 0.931 . S
H983 C961 0.930 . S
Pr984 C986 2.880 . S
Pr984 O1004 2.562 . S
Pr984 O1005 2.490 . S
Pr984 O1006 2.695 . S
Pr984 O1007 2.512 . S
Pr984 O1009 2.437 . S
Pr984 O1012 2.436 . S
Pr984 O1014 2.438 . S
Pr985 C995 2.880 . S
Pr985 O1006 2.436 . S
Pr985 O1008 2.438 . S
Pr985 O1010 2.562 . S
Pr985 O1011 2.490 . S
Pr985 O1012 2.695 . S
Pr985 O1013 2.512 . S
Pr985 O1015 2.437 . S
C986 Pr984 2.880 . S
C986 C987 1.491 . S
C986 O1004 1.254 . S
C986 O1005 1.225 . S
C987 C986 1.491 . S
C987 C988 1.392 . S
C987 C992 1.356 . S
C988 C987 1.392 . S
C988 C989 1.368 . S
C988 H1016 0.929 . S
C989 C988 1.368 . S
C989 C990 1.386 . S
C989 H1017 0.929 . S
C990 C989 1.386 . S
C990 C991 1.373 . S
C991 C990 1.373 . S
C991 C992 1.409 . S
C991 H1018 0.931 . S
C992 C987 1.356 . S
C992 C991 1.409 . S
C992 H1019 0.930 . S
C993 O1006 1.270 . S
C993 O1007 1.248 . S
C994 O1008 1.267 . S
C994 O1009 1.278 . S
C995 Pr985 2.880 . S
C995 C996 1.491 . S
C995 O1010 1.254 . S
C995 O1011 1.225 . S
C996 C995 1.491 . S
C996 C997 1.392 . S
C996 C1001 1.356 . S
C997 C996 1.392 . S
C997 C998 1.368 . S
C997 H1020 0.929 . S
C998 C997 1.368 . S
C998 C999 1.386 . S
C998 H1021 0.929 . S
C999 C998 1.386 . S
C999 C1000 1.373 . S
C1000 C999 1.373 . S
C1000 C1001 1.409 . S
C1000 H1022 0.931 . S
C1001 C996 1.356 . S
C1001 C1000 1.409 . S
C1001 H1023 0.930 . S
C1002 O1012 1.270 . S
C1002 O1013 1.248 . S
C1003 O1014 1.267 . S
C1003 O1015 1.278 . S
O1004 Pr984 2.562 . S
O1004 C986 1.254 . S
O1005 Pr984 2.490 . S
O1005 C986 1.225 . S
O1006 Pr984 2.695 . S
O1006 Pr985 2.436 . S
O1006 C993 1.270 . S
O1007 Pr984 2.512 . S
O1007 C993 1.248 . S
O1008 Pr985 2.438 . S
O1008 C994 1.267 . S
O1009 Pr984 2.437 . S
O1009 C994 1.278 . S
O1010 Pr985 2.562 . S
O1010 C995 1.254 . S
O1011 Pr985 2.490 . S
O1011 C995 1.225 . S
O1012 Pr984 2.436 . S
O1012 Pr985 2.695 . S
O1012 C1002 1.270 . S
O1013 Pr985 2.512 . S
O1013 C1002 1.248 . S
O1014 Pr984 2.438 . S
O1014 C1003 1.267 . S
O1015 Pr985 2.437 . S
O1015 C1003 1.278 . S
H1016 C988 0.929 . S
H1017 C989 0.929 . S
H1018 C991 0.931 . S
H1019 C992 0.930 . S
H1020 C997 0.929 . S
H1021 C998 0.929 . S
H1022 C1000 0.931 . S
H1023 C1001 0.930 . S
Pr1024 C1026 2.880 . S
Pr1024 O1044 2.562 . S
Pr1024 O1045 2.490 . S
Pr1024 O1046 2.695 . S
Pr1024 O1047 2.512 . S
Pr1024 O1049 2.437 . S
Pr1024 O1052 2.436 . S
Pr1024 O1054 2.438 . S
Pr1025 C1035 2.880 . S
Pr1025 O1046 2.436 . S
Pr1025 O1048 2.438 . S
Pr1025 O1050 2.562 . S
Pr1025 O1051 2.490 . S
Pr1025 O1052 2.695 . S
Pr1025 O1053 2.512 . S
Pr1025 O1055 2.437 . S
C1026 Pr1024 2.880 . S
C1026 C1027 1.491 . S
C1026 O1044 1.254 . S
C1026 O1045 1.225 . S
C1027 C1026 1.491 . S
C1027 C1028 1.392 . S
C1027 C1032 1.356 1_455 S
C1028 C1027 1.392 . S
C1028 C1029 1.368 . S
C1028 H1056 0.929 . S
C1029 C1028 1.368 . S
C1029 C1030 1.386 1_455 S
C1029 H1057 0.929 . S
C1030 C1029 1.386 1_655 S
C1030 C1031 1.373 . S
C1031 C1030 1.373 . S
C1031 C1032 1.409 . S
C1031 H1058 0.931 . S
C1032 C1027 1.356 1_655 S
C1032 C1031 1.409 . S
C1032 H1059 0.930 . S
C1033 O1046 1.270 . S
C1033 O1047 1.248 . S
C1034 O1048 1.267 . S
C1034 O1049 1.278 . S
C1035 Pr1025 2.880 . S
C1035 C1036 1.491 . S
C1035 O1050 1.254 . S
C1035 O1051 1.225 . S
C1036 C1035 1.491 . S
C1036 C1037 1.392 . S
C1036 C1041 1.356 . S
C1037 C1036 1.392 . S
C1037 C1038 1.368 . S
C1037 H1060 0.929 . S
C1038 C1037 1.368 . S
C1038 C1039 1.386 . S
C1038 H1061 0.929 . S
C1039 C1038 1.386 . S
C1039 C1040 1.373 . S
C1040 C1039 1.373 . S
C1040 C1041 1.409 . S
C1040 H1062 0.931 . S
C1041 C1036 1.356 . S
C1041 C1040 1.409 . S
C1041 H1063 0.930 . S
C1042 O1052 1.270 . S
C1042 O1053 1.248 . S
C1043 O1054 1.267 . S
C1043 O1055 1.278 . S
O1044 Pr1024 2.562 . S
O1044 C1026 1.254 . S
O1045 Pr1024 2.490 . S
O1045 C1026 1.225 . S
O1046 Pr1024 2.695 . S
O1046 Pr1025 2.436 . S
O1046 C1033 1.270 . S
O1047 Pr1024 2.512 . S
O1047 C1033 1.248 . S
O1048 Pr1025 2.438 . S
O1048 C1034 1.267 . S
O1049 Pr1024 2.437 . S
O1049 C1034 1.278 . S
O1050 Pr1025 2.562 . S
O1050 C1035 1.254 . S
O1051 Pr1025 2.490 . S
O1051 C1035 1.225 . S
O1052 Pr1024 2.436 . S
O1052 Pr1025 2.695 . S
O1052 C1042 1.270 . S
O1053 Pr1025 2.512 . S
O1053 C1042 1.248 . S
O1054 Pr1024 2.438 . S
O1054 C1043 1.267 . S
O1055 Pr1025 2.437 . S
O1055 C1043 1.278 . S
H1056 C1028 0.929 . S
H1057 C1029 0.929 . S
H1058 C1031 0.931 . S
H1059 C1032 0.930 . S
H1060 C1037 0.929 . S
H1061 C1038 0.929 . S
H1062 C1040 0.931 . S
H1063 C1041 0.930 . S
Pr1064 C1066 2.880 . S
Pr1064 O1084 2.562 . S
Pr1064 O1085 2.490 . S
Pr1064 O1086 2.695 . S
Pr1064 O1087 2.512 . S
Pr1064 O1089 2.437 . S
Pr1064 O1092 2.436 . S
Pr1064 O1094 2.438 . S
Pr1065 C1075 2.880 . S
Pr1065 O1086 2.436 . S
Pr1065 O1088 2.438 . S
Pr1065 O1090 2.562 . S
Pr1065 O1091 2.490 . S
Pr1065 O1092 2.695 . S
Pr1065 O1093 2.512 . S
Pr1065 O1095 2.437 . S
C1066 Pr1064 2.880 . S
C1066 C1067 1.491 . S
C1066 O1084 1.254 . S
C1066 O1085 1.225 . S
C1067 C1066 1.491 . S
C1067 C1068 1.392 . S
C1067 C1072 1.356 . S
C1068 C1067 1.392 . S
C1068 C1069 1.368 . S
C1068 H1096 0.929 . S
C1069 C1068 1.368 . S
C1069 C1070 1.386 . S
C1069 H1097 0.929 . S
C1070 C1069 1.386 . S
C1070 C1071 1.373 . S
C1071 C1070 1.373 . S
C1071 C1072 1.409 . S
C1071 H1098 0.931 . S
C1072 C1067 1.356 . S
C1072 C1071 1.409 . S
C1072 H1099 0.930 . S
C1073 O1086 1.270 . S
C1073 O1087 1.248 . S
C1074 O1088 1.267 . S
C1074 O1089 1.278 . S
C1075 Pr1065 2.880 . S
C1075 C1076 1.491 . S
C1075 O1090 1.254 . S
C1075 O1091 1.225 . S
C1076 C1075 1.491 . S
C1076 C1077 1.392 . S
C1076 C1081 1.356 . S
C1077 C1076 1.392 . S
C1077 C1078 1.368 . S
C1077 H1100 0.929 . S
C1078 C1077 1.368 . S
C1078 C1079 1.386 . S
C1078 H1101 0.929 . S
C1079 C1078 1.386 . S
C1079 C1080 1.373 . S
C1080 C1079 1.373 . S
C1080 C1081 1.409 . S
C1080 H1102 0.931 . S
C1081 C1076 1.356 . S
C1081 C1080 1.409 . S
C1081 H1103 0.930 . S
C1082 O1092 1.270 . S
C1082 O1093 1.248 . S
C1083 O1094 1.267 . S
C1083 O1095 1.278 . S
O1084 Pr1064 2.562 . S
O1084 C1066 1.254 . S
O1085 Pr1064 2.490 . S
O1085 C1066 1.225 . S
O1086 Pr1064 2.695 . S
O1086 Pr1065 2.436 . S
O1086 C1073 1.270 . S
O1087 Pr1064 2.512 . S
O1087 C1073 1.248 . S
O1088 Pr1065 2.438 . S
O1088 C1074 1.267 . S
O1089 Pr1064 2.437 . S
O1089 C1074 1.278 . S
O1090 Pr1065 2.562 . S
O1090 C1075 1.254 . S
O1091 Pr1065 2.490 . S
O1091 C1075 1.225 . S
O1092 Pr1064 2.436 . S
O1092 Pr1065 2.695 . S
O1092 C1082 1.270 . S
O1093 Pr1065 2.512 . S
O1093 C1082 1.248 . S
O1094 Pr1064 2.438 . S
O1094 C1083 1.267 . S
O1095 Pr1065 2.437 . S
O1095 C1083 1.278 . S
H1096 C1068 0.929 . S
H1097 C1069 0.929 . S
H1098 C1071 0.931 . S
H1099 C1072 0.930 . S
H1100 C1077 0.929 . S
H1101 C1078 0.929 . S
H1102 C1080 0.931 . S
H1103 C1081 0.930 . S
Pr1104 C1106 2.880 . S
Pr1104 O1124 2.562 . S
Pr1104 O1125 2.490 . S
Pr1104 O1126 2.695 . S
Pr1104 O1127 2.512 . S
Pr1104 O1129 2.437 . S
Pr1104 O1132 2.436 . S
Pr1104 O1134 2.438 . S
Pr1105 C1115 2.880 . S
Pr1105 O1126 2.436 1_556 S
Pr1105 O1128 2.438 1_556 S
Pr1105 O1130 2.562 . S
Pr1105 O1131 2.490 . S
Pr1105 O1132 2.695 1_556 S
Pr1105 O1133 2.512 1_556 S
Pr1105 O1135 2.437 1_556 S
C1106 Pr1104 2.880 . S
C1106 C1107 1.491 . S
C1106 O1124 1.254 . S
C1106 O1125 1.225 . S
C1107 C1106 1.491 . S
C1107 C1108 1.392 . S
C1107 C1112 1.356 . S
C1108 C1107 1.392 . S
C1108 C1109 1.368 . S
C1108 H1136 0.929 . S
C1109 C1108 1.368 . S
C1109 C1110 1.386 . S
C1109 H1137 0.929 . S
C1110 C1109 1.386 . S
C1110 C1111 1.373 . S
C1111 C1110 1.373 . S
C1111 C1112 1.409 . S
C1111 H1138 0.931 . S
C1112 C1107 1.356 . S
C1112 C1111 1.409 . S
C1112 H1139 0.930 . S
C1113 O1126 1.270 . S
C1113 O1127 1.248 . S
C1114 O1128 1.267 . S
C1114 O1129 1.278 . S
C1115 Pr1105 2.880 . S
C1115 C1116 1.491 . S
C1115 O1130 1.254 . S
C1115 O1131 1.225 . S
C1116 C1115 1.491 . S
C1116 C1117 1.392 . S
C1116 C1121 1.356 . S
C1117 C1116 1.392 . S
C1117 C1118 1.368 . S
C1117 H1140 0.929 . S
C1118 C1117 1.368 . S
C1118 C1119 1.386 . S
C1118 H1141 0.929 . S
C1119 C1118 1.386 . S
C1119 C1120 1.373 . S
C1120 C1119 1.373 . S
C1120 C1121 1.409 . S
C1120 H1142 0.931 . S
C1121 C1116 1.356 . S
C1121 C1120 1.409 . S
C1121 H1143 0.930 . S
C1122 O1132 1.270 . S
C1122 O1133 1.248 . S
C1123 O1134 1.267 . S
C1123 O1135 1.278 . S
O1124 Pr1104 2.562 . S
O1124 C1106 1.254 . S
O1125 Pr1104 2.490 . S
O1125 C1106 1.225 . S
O1126 Pr1104 2.695 . S
O1126 Pr1105 2.436 1_554 S
O1126 C1113 1.270 . S
O1127 Pr1104 2.512 . S
O1127 C1113 1.248 . S
O1128 Pr1105 2.438 1_554 S
O1128 C1114 1.267 . S
O1129 Pr1104 2.437 . S
O1129 C1114 1.278 . S
O1130 Pr1105 2.562 . S
O1130 C1115 1.254 . S
O1131 Pr1105 2.490 . S
O1131 C1115 1.225 . S
O1132 Pr1104 2.436 . S
O1132 Pr1105 2.695 1_554 S
O1132 C1122 1.270 . S
O1133 Pr1105 2.512 1_554 S
O1133 C1122 1.248 . S
O1134 Pr1104 2.438 . S
O1134 C1123 1.267 . S
O1135 Pr1105 2.437 1_554 S
O1135 C1123 1.278 . S
H1136 C1108 0.929 . S
H1137 C1109 0.929 . S
H1138 C1111 0.931 . S
H1139 C1112 0.930 . S
H1140 C1117 0.929 . S
H1141 C1118 0.929 . S
H1142 C1120 0.931 . S
H1143 C1121 0.930 . S
Pr1144 C1146 2.880 . S
Pr1144 O1164 2.562 . S
Pr1144 O1165 2.490 . S
Pr1144 O1166 2.695 . S
Pr1144 O1167 2.512 . S
Pr1144 O1169 2.437 . S
Pr1144 O1172 2.436 . S
Pr1144 O1174 2.438 . S
Pr1145 C1155 2.880 . S
Pr1145 O1166 2.436 . S
Pr1145 O1168 2.438 . S
Pr1145 O1170 2.562 . S
Pr1145 O1171 2.490 . S
Pr1145 O1172 2.695 . S
Pr1145 O1173 2.512 . S
Pr1145 O1175 2.437 . S
C1146 Pr1144 2.880 . S
C1146 C1147 1.491 . S
C1146 O1164 1.254 . S
C1146 O1165 1.225 . S
C1147 C1146 1.491 . S
C1147 C1148 1.392 . S
C1147 C1152 1.356 . S
C1148 C1147 1.392 . S
C1148 C1149 1.368 . S
C1148 H1176 0.929 . S
C1149 C1148 1.368 . S
C1149 C1150 1.386 . S
C1149 H1177 0.929 . S
C1150 C1149 1.386 . S
C1150 C1151 1.373 . S
C1151 C1150 1.373 . S
C1151 C1152 1.409 . S
C1151 H1178 0.931 . S
C1152 C1147 1.356 . S
C1152 C1151 1.409 . S
C1152 H1179 0.930 . S
C1153 O1166 1.270 . S
C1153 O1167 1.248 . S
C1154 O1168 1.267 . S
C1154 O1169 1.278 . S
C1155 Pr1145 2.880 . S
C1155 C1156 1.491 . S
C1155 O1170 1.254 . S
C1155 O1171 1.225 . S
C1156 C1155 1.491 . S
C1156 C1157 1.392 . S
C1156 C1161 1.356 . S
C1157 C1156 1.392 . S
C1157 C1158 1.368 . S
C1157 H1180 0.929 . S
C1158 C1157 1.368 . S
C1158 C1159 1.386 . S
C1158 H1181 0.929 . S
C1159 C1158 1.386 . S
C1159 C1160 1.373 . S
C1160 C1159 1.373 . S
C1160 C1161 1.409 . S
C1160 H1182 0.931 . S
C1161 C1156 1.356 . S
C1161 C1160 1.409 . S
C1161 H1183 0.930 . S
C1162 O1172 1.270 . S
C1162 O1173 1.248 . S
C1163 O1174 1.267 . S
C1163 O1175 1.278 . S
O1164 Pr1144 2.562 . S
O1164 C1146 1.254 . S
O1165 Pr1144 2.490 . S
O1165 C1146 1.225 . S
O1166 Pr1144 2.695 . S
O1166 Pr1145 2.436 . S
O1166 C1153 1.270 . S
O1167 Pr1144 2.512 . S
O1167 C1153 1.248 . S
O1168 Pr1145 2.438 . S
O1168 C1154 1.267 . S
O1169 Pr1144 2.437 . S
O1169 C1154 1.278 . S
O1170 Pr1145 2.562 . S
O1170 C1155 1.254 . S
O1171 Pr1145 2.490 . S
O1171 C1155 1.225 . S
O1172 Pr1144 2.436 . S
O1172 Pr1145 2.695 . S
O1172 C1162 1.270 . S
O1173 Pr1145 2.512 . S
O1173 C1162 1.248 . S
O1174 Pr1144 2.438 . S
O1174 C1163 1.267 . S
O1175 Pr1145 2.437 . S
O1175 C1163 1.278 . S
H1176 C1148 0.929 . S
H1177 C1149 0.929 . S
H1178 C1151 0.931 . S
H1179 C1152 0.930 . S
H1180 C1157 0.929 . S
H1181 C1158 0.929 . S
H1182 C1160 0.931 . S
H1183 C1161 0.930 . S
Pr1184 C1186 2.880 . S
Pr1184 O1204 2.562 . S
Pr1184 O1205 2.490 . S
Pr1184 O1206 2.695 1_556 S
Pr1184 O1207 2.512 . S
Pr1184 O1209 2.437 . S
Pr1184 O1212 2.436 1_556 S
Pr1184 O1214 2.438 1_556 S
Pr1185 C1195 2.880 . S
Pr1185 O1206 2.436 . S
Pr1185 O1208 2.438 . S
Pr1185 O1210 2.562 . S
Pr1185 O1211 2.490 . S
Pr1185 O1212 2.695 . S
Pr1185 O1213 2.512 . S
Pr1185 O1215 2.437 . S
C1186 Pr1184 2.880 . S
C1186 C1187 1.491 . S
C1186 O1204 1.254 . S
C1186 O1205 1.225 . S
C1187 C1186 1.491 . S
C1187 C1188 1.392 . S
C1187 C1192 1.356 . S
C1188 C1187 1.392 . S
C1188 C1189 1.368 . S
C1188 H1216 0.929 . S
C1189 C1188 1.368 . S
C1189 C1190 1.386 . S
C1189 H1217 0.929 . S
C1190 C1189 1.386 . S
C1190 C1191 1.373 . S
C1191 C1190 1.373 . S
C1191 C1192 1.409 . S
C1191 H1218 0.931 . S
C1192 C1187 1.356 . S
C1192 C1191 1.409 . S
C1192 H1219 0.930 . S
C1193 O1206 1.270 . S
C1193 O1207 1.248 1_554 S
C1194 O1208 1.267 . S
C1194 O1209 1.278 1_554 S
C1195 Pr1185 2.880 . S
C1195 C1196 1.491 . S
C1195 O1210 1.254 . S
C1195 O1211 1.225 . S
C1196 C1195 1.491 . S
C1196 C1197 1.392 . S
C1196 C1201 1.356 . S
C1197 C1196 1.392 . S
C1197 C1198 1.368 . S
C1197 H1220 0.929 . S
C1198 C1197 1.368 . S
C1198 C1199 1.386 . S
C1198 H1221 0.929 . S
C1199 C1198 1.386 . S
C1199 C1200 1.373 . S
C1200 C1199 1.373 . S
C1200 C1201 1.409 . S
C1200 H1222 0.931 . S
C1201 C1196 1.356 . S
C1201 C1200 1.409 . S
C1201 H1223 0.930 . S
C1202 O1212 1.270 . S
C1202 O1213 1.248 . S
C1203 O1214 1.267 . S
C1203 O1215 1.278 . S
O1204 Pr1184 2.562 . S
O1204 C1186 1.254 . S
O1205 Pr1184 2.490 . S
O1205 C1186 1.225 . S
O1206 Pr1184 2.695 1_554 S
O1206 Pr1185 2.436 . S
O1206 C1193 1.270 . S
O1207 Pr1184 2.512 . S
O1207 C1193 1.248 1_556 S
O1208 Pr1185 2.438 . S
O1208 C1194 1.267 . S
O1209 Pr1184 2.437 . S
O1209 C1194 1.278 1_556 S
O1210 Pr1185 2.562 . S
O1210 C1195 1.254 . S
O1211 Pr1185 2.490 . S
O1211 C1195 1.225 . S
O1212 Pr1184 2.436 1_554 S
O1212 Pr1185 2.695 . S
O1212 C1202 1.270 . S
O1213 Pr1185 2.512 . S
O1213 C1202 1.248 . S
O1214 Pr1184 2.438 1_554 S
O1214 C1203 1.267 . S
O1215 Pr1185 2.437 . S
O1215 C1203 1.278 . S
H1216 C1188 0.929 . S
H1217 C1189 0.929 . S
H1218 C1191 0.931 . S
H1219 C1192 0.930 . S
H1220 C1197 0.929 . S
H1221 C1198 0.929 . S
H1222 C1200 0.931 . S
H1223 C1201 0.930 . S
Pr1224 C1226 2.880 . S
Pr1224 O1244 2.562 . S
Pr1224 O1245 2.490 . S
Pr1224 O1246 2.695 . S
Pr1224 O1247 2.512 . S
Pr1224 O1249 2.437 . S
Pr1224 O1252 2.436 . S
Pr1224 O1254 2.438 . S
Pr1225 C1235 2.880 . S
Pr1225 O1246 2.436 . S
Pr1225 O1248 2.438 . S
Pr1225 O1250 2.562 . S
Pr1225 O1251 2.490 . S
Pr1225 O1252 2.695 . S
Pr1225 O1253 2.512 . S
Pr1225 O1255 2.437 . S
C1226 Pr1224 2.880 . S
C1226 C1227 1.491 . S
C1226 O1244 1.254 . S
C1226 O1245 1.225 . S
C1227 C1226 1.491 . S
C1227 C1228 1.392 . S
C1227 C1232 1.356 . S
C1228 C1227 1.392 . S
C1228 C1229 1.368 . S
C1228 H1256 0.929 . S
C1229 C1228 1.368 . S
C1229 C1230 1.386 . S
C1229 H1257 0.929 . S
C1230 C1229 1.386 . S
C1230 C1231 1.373 . S
C1231 C1230 1.373 . S
C1231 C1232 1.409 . S
C1231 H1258 0.931 . S
C1232 C1227 1.356 . S
C1232 C1231 1.409 . S
C1232 H1259 0.930 . S
C1233 O1246 1.270 . S
C1233 O1247 1.248 . S
C1234 O1248 1.267 . S
C1234 O1249 1.278 . S
C1235 Pr1225 2.880 . S
C1235 C1236 1.491 . S
C1235 O1250 1.254 . S
C1235 O1251 1.225 . S
C1236 C1235 1.491 . S
C1236 C1237 1.392 . S
C1236 C1241 1.356 . S
C1237 C1236 1.392 . S
C1237 C1238 1.368 . S
C1237 H1260 0.929 . S
C1238 C1237 1.368 . S
C1238 C1239 1.386 . S
C1238 H1261 0.929 . S
C1239 C1238 1.386 . S
C1239 C1240 1.373 . S
C1240 C1239 1.373 . S
C1240 C1241 1.409 . S
C1240 H1262 0.931 . S
C1241 C1236 1.356 . S
C1241 C1240 1.409 . S
C1241 H1263 0.930 . S
C1242 O1252 1.270 . S
C1242 O1253 1.248 . S
C1243 O1254 1.267 . S
C1243 O1255 1.278 . S
O1244 Pr1224 2.562 . S
O1244 C1226 1.254 . S
O1245 Pr1224 2.490 . S
O1245 C1226 1.225 . S
O1246 Pr1224 2.695 . S
O1246 Pr1225 2.436 . S
O1246 C1233 1.270 . S
O1247 Pr1224 2.512 . S
O1247 C1233 1.248 . S
O1248 Pr1225 2.438 . S
O1248 C1234 1.267 . S
O1249 Pr1224 2.437 . S
O1249 C1234 1.278 . S
O1250 Pr1225 2.562 . S
O1250 C1235 1.254 . S
O1251 Pr1225 2.490 . S
O1251 C1235 1.225 . S
O1252 Pr1224 2.436 . S
O1252 Pr1225 2.695 . S
O1252 C1242 1.270 . S
O1253 Pr1225 2.512 . S
O1253 C1242 1.248 . S
O1254 Pr1224 2.438 . S
O1254 C1243 1.267 . S
O1255 Pr1225 2.437 . S
O1255 C1243 1.278 . S
H1256 C1228 0.929 . S
H1257 C1229 0.929 . S
H1258 C1231 0.931 . S
H1259 C1232 0.930 . S
H1260 C1237 0.929 . S
H1261 C1238 0.929 . S
H1262 C1240 0.931 . S
H1263 C1241 0.930 . S
Pr1264 C1266 2.880 . S
Pr1264 O1284 2.562 . S
Pr1264 O1285 2.490 . S
Pr1264 O1286 2.695 . S
Pr1264 O1287 2.512 . S
Pr1264 O1289 2.437 . S
Pr1264 O1292 2.436 . S
Pr1264 O1294 2.438 . S
Pr1265 C1275 2.880 . S
Pr1265 O1286 2.436 . S
Pr1265 O1288 2.438 . S
Pr1265 O1290 2.562 . S
Pr1265 O1291 2.490 . S
Pr1265 O1292 2.695 . S
Pr1265 O1293 2.512 . S
Pr1265 O1295 2.437 . S
C1266 Pr1264 2.880 . S
C1266 C1267 1.491 . S
C1266 O1284 1.254 . S
C1266 O1285 1.225 . S
C1267 C1266 1.491 . S
C1267 C1268 1.392 . S
C1267 C1272 1.356 . S
C1268 C1267 1.392 . S
C1268 C1269 1.368 . S
C1268 H1296 0.929 . S
C1269 C1268 1.368 . S
C1269 C1270 1.386 . S
C1269 H1297 0.929 . S
C1270 C1269 1.386 . S
C1270 C1271 1.373 . S
C1271 C1270 1.373 . S
C1271 C1272 1.409 . S
C1271 H1298 0.931 1_455 S
C1272 C1267 1.356 . S
C1272 C1271 1.409 . S
C1272 H1299 0.930 . S
C1273 O1286 1.270 . S
C1273 O1287 1.248 . S
C1274 O1288 1.267 . S
C1274 O1289 1.278 . S
C1275 Pr1265 2.880 . S
C1275 C1276 1.491 . S
C1275 O1290 1.254 . S
C1275 O1291 1.225 . S
C1276 C1275 1.491 . S
C1276 C1277 1.392 . S
C1276 C1281 1.356 . S
C1277 C1276 1.392 . S
C1277 C1278 1.368 . S
C1277 H1300 0.929 . S
C1278 C1277 1.368 . S
C1278 C1279 1.386 . S
C1278 H1301 0.929 . S
C1279 C1278 1.386 . S
C1279 C1280 1.373 . S
C1280 C1279 1.373 . S
C1280 C1281 1.409 . S
C1280 H1302 0.931 . S
C1281 C1276 1.356 . S
C1281 C1280 1.409 . S
C1281 H1303 0.930 . S
C1282 O1292 1.270 . S
C1282 O1293 1.248 . S
C1283 O1294 1.267 . S
C1283 O1295 1.278 . S
O1284 Pr1264 2.562 . S
O1284 C1266 1.254 . S
O1285 Pr1264 2.490 . S
O1285 C1266 1.225 . S
O1286 Pr1264 2.695 . S
O1286 Pr1265 2.436 . S
O1286 C1273 1.270 . S
O1287 Pr1264 2.512 . S
O1287 C1273 1.248 . S
O1288 Pr1265 2.438 . S
O1288 C1274 1.267 . S
O1289 Pr1264 2.437 . S
O1289 C1274 1.278 . S
O1290 Pr1265 2.562 . S
O1290 C1275 1.254 . S
O1291 Pr1265 2.490 . S
O1291 C1275 1.225 . S
O1292 Pr1264 2.436 . S
O1292 Pr1265 2.695 . S
O1292 C1282 1.270 . S
O1293 Pr1265 2.512 . S
O1293 C1282 1.248 . S
O1294 Pr1264 2.438 . S
O1294 C1283 1.267 . S
O1295 Pr1265 2.437 . S
O1295 C1283 1.278 . S
H1296 C1268 0.929 . S
H1297 C1269 0.929 . S
H1298 C1271 0.931 1_655 S
H1299 C1272 0.930 . S
H1300 C1277 0.929 . S
H1301 C1278 0.929 . S
H1302 C1280 0.931 . S
H1303 C1281 0.930 . S
Pr1304 C1306 2.880 . S
Pr1304 O1324 2.562 . S
Pr1304 O1325 2.490 . S
Pr1304 O1326 2.695 . S
Pr1304 O1327 2.512 . S
Pr1304 O1329 2.437 . S
Pr1304 O1332 2.436 . S
Pr1304 O1334 2.438 . S
Pr1305 C1315 2.880 . S
Pr1305 O1326 2.436 . S
Pr1305 O1328 2.438 . S
Pr1305 O1330 2.562 . S
Pr1305 O1331 2.490 . S
Pr1305 O1332 2.695 . S
Pr1305 O1333 2.512 . S
Pr1305 O1335 2.437 . S
C1306 Pr1304 2.880 . S
C1306 C1307 1.491 . S
C1306 O1324 1.254 . S
C1306 O1325 1.225 . S
C1307 C1306 1.491 . S
C1307 C1308 1.392 . S
C1307 C1312 1.356 . S
C1308 C1307 1.392 . S
C1308 C1309 1.368 . S
C1308 H1336 0.929 . S
C1309 C1308 1.368 . S
C1309 C1310 1.386 . S
C1309 H1337 0.929 . S
C1310 C1309 1.386 . S
C1310 C1311 1.373 . S
C1311 C1310 1.373 . S
C1311 C1312 1.409 . S
C1311 H1338 0.931 . S
C1312 C1307 1.356 . S
C1312 C1311 1.409 . S
C1312 H1339 0.930 . S
C1313 O1326 1.270 . S
C1313 O1327 1.248 . S
C1314 O1328 1.267 . S
C1314 O1329 1.278 . S
C1315 Pr1305 2.880 . S
C1315 C1316 1.491 . S
C1315 O1330 1.254 . S
C1315 O1331 1.225 . S
C1316 C1315 1.491 . S
C1316 C1317 1.392 . S
C1316 C1321 1.356 . S
C1317 C1316 1.392 . S
C1317 C1318 1.368 . S
C1317 H1340 0.929 . S
C1318 C1317 1.368 . S
C1318 C1319 1.386 . S
C1318 H1341 0.929 . S
C1319 C1318 1.386 . S
C1319 C1320 1.373 . S
C1320 C1319 1.373 . S
C1320 C1321 1.409 . S
C1320 H1342 0.931 . S
C1321 C1316 1.356 . S
C1321 C1320 1.409 . S
C1321 H1343 0.930 . S
C1322 O1332 1.270 . S
C1322 O1333 1.248 . S
C1323 O1334 1.267 . S
C1323 O1335 1.278 . S
O1324 Pr1304 2.562 . S
O1324 C1306 1.254 . S
O1325 Pr1304 2.490 . S
O1325 C1306 1.225 . S
O1326 Pr1304 2.695 . S
O1326 Pr1305 2.436 . S
O1326 C1313 1.270 . S
O1327 Pr1304 2.512 . S
O1327 C1313 1.248 . S
O1328 Pr1305 2.438 . S
O1328 C1314 1.267 . S
O1329 Pr1304 2.437 . S
O1329 C1314 1.278 . S
O1330 Pr1305 2.562 . S
O1330 C1315 1.254 . S
O1331 Pr1305 2.490 . S
O1331 C1315 1.225 . S
O1332 Pr1304 2.436 . S
O1332 Pr1305 2.695 . S
O1332 C1322 1.270 . S
O1333 Pr1305 2.512 . S
O1333 C1322 1.248 . S
O1334 Pr1304 2.438 . S
O1334 C1323 1.267 . S
O1335 Pr1305 2.437 . S
O1335 C1323 1.278 . S
H1336 C1308 0.929 . S
H1337 C1309 0.929 . S
H1338 C1311 0.931 . S
H1339 C1312 0.930 . S
H1340 C1317 0.929 . S
H1341 C1318 0.929 . S
H1342 C1320 0.931 . S
H1343 C1321 0.930 . S
Pr1344 C1346 2.880 . S
Pr1344 O1364 2.562 . S
Pr1344 O1365 2.490 . S
Pr1344 O1366 2.695 . S
Pr1344 O1367 2.512 . S
Pr1344 O1369 2.437 . S
Pr1344 O1372 2.436 . S
Pr1344 O1374 2.438 . S
Pr1345 C1355 2.880 . S
Pr1345 O1366 2.436 . S
Pr1345 O1368 2.438 . S
Pr1345 O1370 2.562 . S
Pr1345 O1371 2.490 . S
Pr1345 O1372 2.695 . S
Pr1345 O1373 2.512 . S
Pr1345 O1375 2.437 . S
C1346 Pr1344 2.880 . S
C1346 C1347 1.491 . S
C1346 O1364 1.254 . S
C1346 O1365 1.225 . S
C1347 C1346 1.491 . S
C1347 C1348 1.392 . S
C1347 C1352 1.356 . S
C1348 C1347 1.392 . S
C1348 C1349 1.368 . S
C1348 H1376 0.929 . S
C1349 C1348 1.368 . S
C1349 C1350 1.386 . S
C1349 H1377 0.929 . S
C1350 C1349 1.386 . S
C1350 C1351 1.373 . S
C1351 C1350 1.373 . S
C1351 C1352 1.409 . S
C1351 H1378 0.931 . S
C1352 C1347 1.356 . S
C1352 C1351 1.409 . S
C1352 H1379 0.930 . S
C1353 O1366 1.270 . S
C1353 O1367 1.248 . S
C1354 O1368 1.267 . S
C1354 O1369 1.278 . S
C1355 Pr1345 2.880 . S
C1355 C1356 1.491 . S
C1355 O1370 1.254 . S
C1355 O1371 1.225 . S
C1356 C1355 1.491 . S
C1356 C1357 1.392 . S
C1356 C1361 1.356 . S
C1357 C1356 1.392 . S
C1357 C1358 1.368 . S
C1357 H1380 0.929 . S
C1358 C1357 1.368 . S
C1358 C1359 1.386 . S
C1358 H1381 0.929 . S
C1359 C1358 1.386 . S
C1359 C1360 1.373 . S
C1360 C1359 1.373 . S
C1360 C1361 1.409 . S
C1360 H1382 0.931 . S
C1361 C1356 1.356 . S
C1361 C1360 1.409 . S
C1361 H1383 0.930 . S
C1362 O1372 1.270 . S
C1362 O1373 1.248 . S
C1363 O1374 1.267 . S
C1363 O1375 1.278 . S
O1364 Pr1344 2.562 . S
O1364 C1346 1.254 . S
O1365 Pr1344 2.490 . S
O1365 C1346 1.225 . S
O1366 Pr1344 2.695 . S
O1366 Pr1345 2.436 . S
O1366 C1353 1.270 . S
O1367 Pr1344 2.512 . S
O1367 C1353 1.248 . S
O1368 Pr1345 2.438 . S
O1368 C1354 1.267 . S
O1369 Pr1344 2.437 . S
O1369 C1354 1.278 . S
O1370 Pr1345 2.562 . S
O1370 C1355 1.254 . S
O1371 Pr1345 2.490 . S
O1371 C1355 1.225 . S
O1372 Pr1344 2.436 . S
O1372 Pr1345 2.695 . S
O1372 C1362 1.270 . S
O1373 Pr1345 2.512 . S
O1373 C1362 1.248 . S
O1374 Pr1344 2.438 . S
O1374 C1363 1.267 . S
O1375 Pr1345 2.437 . S
O1375 C1363 1.278 . S
H1376 C1348 0.929 . S
H1377 C1349 0.929 . S
H1378 C1351 0.931 . S
H1379 C1352 0.930 . S
H1380 C1357 0.929 . S
H1381 C1358 0.929 . S
H1382 C1360 0.931 . S
H1383 C1361 0.930 . S
Pr1384 C1386 2.880 . S
Pr1384 O1404 2.562 . S
Pr1384 O1405 2.490 . S
Pr1384 O1406 2.695 . S
Pr1384 O1407 2.512 . S
Pr1384 O1409 2.437 . S
Pr1384 O1412 2.436 . S
Pr1384 O1414 2.438 . S
Pr1385 C1395 2.880 . S
Pr1385 O1406 2.436 . S
Pr1385 O1408 2.438 . S
Pr1385 O1410 2.562 . S
Pr1385 O1411 2.490 . S
Pr1385 O1412 2.695 . S
Pr1385 O1413 2.512 . S
Pr1385 O1415 2.437 . S
C1386 Pr1384 2.880 . S
C1386 C1387 1.491 . S
C1386 O1404 1.254 . S
C1386 O1405 1.225 . S
C1387 C1386 1.491 . S
C1387 C1388 1.392 . S
C1387 C1392 1.356 . S
C1388 C1387 1.392 . S
C1388 C1389 1.368 . S
C1388 H1416 0.929 . S
C1389 C1388 1.368 . S
C1389 C1390 1.386 . S
C1389 H1417 0.929 . S
C1390 C1389 1.386 . S
C1390 C1391 1.373 . S
C1391 C1390 1.373 . S
C1391 C1392 1.409 . S
C1391 H1418 0.931 . S
C1392 C1387 1.356 . S
C1392 C1391 1.409 . S
C1392 H1419 0.930 . S
C1393 O1406 1.270 . S
C1393 O1407 1.248 . S
C1394 O1408 1.267 . S
C1394 O1409 1.278 . S
C1395 Pr1385 2.880 . S
C1395 C1396 1.491 . S
C1395 O1410 1.254 . S
C1395 O1411 1.225 . S
C1396 C1395 1.491 . S
C1396 C1397 1.392 . S
C1396 C1401 1.356 . S
C1397 C1396 1.392 . S
C1397 C1398 1.368 . S
C1397 H1420 0.929 . S
C1398 C1397 1.368 . S
C1398 C1399 1.386 . S
C1398 H1421 0.929 . S
C1399 C1398 1.386 . S
C1399 C1400 1.373 . S
C1400 C1399 1.373 . S
C1400 C1401 1.409 . S
C1400 H1422 0.931 . S
C1401 C1396 1.356 . S
C1401 C1400 1.409 . S
C1401 H1423 0.930 . S
C1402 O1412 1.270 . S
C1402 O1413 1.248 . S
C1403 O1414 1.267 . S
C1403 O1415 1.278 . S
O1404 Pr1384 2.562 . S
O1404 C1386 1.254 . S
O1405 Pr1384 2.490 . S
O1405 C1386 1.225 . S
O1406 Pr1384 2.695 . S
O1406 Pr1385 2.436 . S
O1406 C1393 1.270 . S
O1407 Pr1384 2.512 . S
O1407 C1393 1.248 . S
O1408 Pr1385 2.438 . S
O1408 C1394 1.267 . S
O1409 Pr1384 2.437 . S
O1409 C1394 1.278 . S
O1410 Pr1385 2.562 . S
O1410 C1395 1.254 . S
O1411 Pr1385 2.490 . S
O1411 C1395 1.225 . S
O1412 Pr1384 2.436 . S
O1412 Pr1385 2.695 . S
O1412 C1402 1.270 . S
O1413 Pr1385 2.512 . S
O1413 C1402 1.248 . S
O1414 Pr1384 2.438 . S
O1414 C1403 1.267 . S
O1415 Pr1385 2.437 . S
O1415 C1403 1.278 . S
H1416 C1388 0.929 . S
H1417 C1389 0.929 . S
H1418 C1391 0.931 . S
H1419 C1392 0.930 . S
H1420 C1397 0.929 . S
H1421 C1398 0.929 . S
H1422 C1400 0.931 . S
H1423 C1401 0.930 . S
Pr1424 C1426 2.880 . S
Pr1424 O1444 2.562 . S
Pr1424 O1445 2.490 . S
Pr1424 O1446 2.695 . S
Pr1424 O1447 2.512 . S
Pr1424 O1449 2.437 . S
Pr1424 O1452 2.436 . S
Pr1424 O1454 2.438 . S
Pr1425 C1435 2.880 . S
Pr1425 O1446 2.436 . S
Pr1425 O1448 2.438 . S
Pr1425 O1450 2.562 . S
Pr1425 O1451 2.490 . S
Pr1425 O1452 2.695 . S
Pr1425 O1453 2.512 . S
Pr1425 O1455 2.437 . S
C1426 Pr1424 2.880 . S
C1426 C1427 1.491 . S
C1426 O1444 1.254 . S
C1426 O1445 1.225 . S
C1427 C1426 1.491 . S
C1427 C1428 1.392 . S
C1427 C1432 1.356 . S
C1428 C1427 1.392 . S
C1428 C1429 1.368 . S
C1428 H1456 0.929 . S
C1429 C1428 1.368 . S
C1429 C1430 1.386 . S
C1429 H1457 0.929 . S
C1430 C1429 1.386 . S
C1430 C1431 1.373 . S
C1431 C1430 1.373 . S
C1431 C1432 1.409 . S
C1431 H1458 0.931 . S
C1432 C1427 1.356 . S
C1432 C1431 1.409 . S
C1432 H1459 0.930 . S
C1433 O1446 1.270 . S
C1433 O1447 1.248 . S
C1434 O1448 1.267 . S
C1434 O1449 1.278 . S
C1435 Pr1425 2.880 . S
C1435 C1436 1.491 . S
C1435 O1450 1.254 . S
C1435 O1451 1.225 . S
C1436 C1435 1.491 . S
C1436 C1437 1.392 . S
C1436 C1441 1.356 . S
C1437 C1436 1.392 . S
C1437 C1438 1.368 . S
C1437 H1460 0.929 . S
C1438 C1437 1.368 . S
C1438 C1439 1.386 . S
C1438 H1461 0.929 . S
C1439 C1438 1.386 . S
C1439 C1440 1.373 . S
C1440 C1439 1.373 . S
C1440 C1441 1.409 . S
C1440 H1462 0.931 . S
C1441 C1436 1.356 . S
C1441 C1440 1.409 . S
C1441 H1463 0.930 . S
C1442 O1452 1.270 . S
C1442 O1453 1.248 . S
C1443 O1454 1.267 . S
C1443 O1455 1.278 . S
O1444 Pr1424 2.562 . S
O1444 C1426 1.254 . S
O1445 Pr1424 2.490 . S
O1445 C1426 1.225 . S
O1446 Pr1424 2.695 . S
O1446 Pr1425 2.436 . S
O1446 C1433 1.270 . S
O1447 Pr1424 2.512 . S
O1447 C1433 1.248 . S
O1448 Pr1425 2.438 . S
O1448 C1434 1.267 . S
O1449 Pr1424 2.437 . S
O1449 C1434 1.278 . S
O1450 Pr1425 2.562 . S
O1450 C1435 1.254 . S
O1451 Pr1425 2.490 . S
O1451 C1435 1.225 . S
O1452 Pr1424 2.436 . S
O1452 Pr1425 2.695 . S
O1452 C1442 1.270 . S
O1453 Pr1425 2.512 . S
O1453 C1442 1.248 . S
O1454 Pr1424 2.438 . S
O1454 C1443 1.267 . S
O1455 Pr1425 2.437 . S
O1455 C1443 1.278 . S
H1456 C1428 0.929 . S
H1457 C1429 0.929 . S
H1458 C1431 0.931 . S
H1459 C1432 0.930 . S
H1460 C1437 0.929 . S
H1461 C1438 0.929 . S
H1462 C1440 0.931 . S
H1463 C1441 0.930 . S
Pr1464 C1466 2.880 . S
Pr1464 O1484 2.562 . S
Pr1464 O1485 2.490 1_554 S
Pr1464 O1486 2.695 . S
Pr1464 O1487 2.512 1_554 S
Pr1464 O1489 2.437 . S
Pr1464 O1492 2.436 . S
Pr1464 O1494 2.438 . S
Pr1465 C1475 2.880 1_455 S
Pr1465 O1486 2.436 . S
Pr1465 O1488 2.438 . S
Pr1465 O1490 2.562 1_455 S
Pr1465 O1491 2.490 1_455 S
Pr1465 O1492 2.695 . S
Pr1465 O1493 2.512 . S
Pr1465 O1495 2.437 . S
C1466 Pr1464 2.880 . S
C1466 C1467 1.491 . S
C1466 O1484 1.254 . S
C1466 O1485 1.225 1_554 S
C1467 C1466 1.491 . S
C1467 C1468 1.392 1_554 S
C1467 C1472 1.356 . S
C1468 C1467 1.392 1_556 S
C1468 C1469 1.368 . S
C1468 H1496 0.929 . S
C1469 C1468 1.368 . S
C1469 C1470 1.386 . S
C1469 H1497 0.929 . S
C1470 C1469 1.386 . S
C1470 C1471 1.373 1_556 S
C1471 C1470 1.373 1_554 S
C1471 C1472 1.409 . S
C1471 H1498 0.931 . S
C1472 C1467 1.356 . S
C1472 C1471 1.409 . S
C1472 H1499 0.930 . S
C1473 O1486 1.270 1_556 S
C1473 O1487 1.248 . S
C1474 O1488 1.267 . S
C1474 O1489 1.278 . S
C1475 Pr1465 2.880 1_655 S
C1475 C1476 1.491 . S
C1475 O1490 1.254 . S
C1475 O1491 1.225 . S
C1476 C1475 1.491 . S
C1476 C1477 1.392 . S
C1476 C1481 1.356 . S
C1477 C1476 1.392 . S
C1477 C1478 1.368 . S
C1477 H1500 0.929 . S
C1478 C1477 1.368 . S
C1478 C1479 1.386 . S
C1478 H1501 0.929 . S
C1479 C1478 1.386 . S
C1479 C1480 1.373 . S
C1480 C1479 1.373 . S
C1480 C1481 1.409 . S
C1480 H1502 0.931 . S
C1481 C1476 1.356 . S
C1481 C1480 1.409 . S
C1481 H1503 0.930 . S
C1482 O1492 1.270 . S
C1482 O1493 1.248 . S
C1483 O1494 1.267 . S
C1483 O1495 1.278 . S
O1484 Pr1464 2.562 . S
O1484 C1466 1.254 . S
O1485 Pr1464 2.490 1_556 S
O1485 C1466 1.225 1_556 S
O1486 Pr1464 2.695 . S
O1486 Pr1465 2.436 . S
O1486 C1473 1.270 1_554 S
O1487 Pr1464 2.512 1_556 S
O1487 C1473 1.248 . S
O1488 Pr1465 2.438 . S
O1488 C1474 1.267 . S
O1489 Pr1464 2.437 . S
O1489 C1474 1.278 . S
O1490 Pr1465 2.562 1_655 S
O1490 C1475 1.254 . S
O1491 Pr1465 2.490 1_655 S
O1491 C1475 1.225 . S
O1492 Pr1464 2.436 . S
O1492 Pr1465 2.695 . S
O1492 C1482 1.270 . S
O1493 Pr1465 2.512 . S
O1493 C1482 1.248 . S
O1494 Pr1464 2.438 . S
O1494 C1483 1.267 . S
O1495 Pr1465 2.437 . S
O1495 C1483 1.278 . S
H1496 C1468 0.929 . S
H1497 C1469 0.929 . S
H1498 C1471 0.931 . S
H1499 C1472 0.930 . S
H1500 C1477 0.929 . S
H1501 C1478 0.929 . S
H1502 C1480 0.931 . S
H1503 C1481 0.930 . S
H1504 C1510 0.930 . S
H1505 C1514 0.930 . S
H1506 C1519 0.929 . S
H1507 C1517 0.929 . S
H1508 C1512 0.929 . S
H1509 C1518 0.929 . S
C1510 H1504 0.930 . S
C1510 C1511 1.367 . S
C1510 C1518 1.378 . S
C1511 C1510 1.367 . S
C1511 C1519 1.433 . S
C1512 H1508 0.929 . S
C1512 C1514 1.378 . S
C1512 C1516 1.350 1_554 S
C1513 C1516 1.463 . S
C1513 C1518 1.350 . S
C1513 N1521 1.427 . S
C1514 H1505 0.930 . S
C1514 C1512 1.378 . S
C1514 C1515 1.367 . S
C1515 C1514 1.367 . S
C1515 C1517 1.433 1_554 S
C1516 C1512 1.350 1_556 S
C1516 C1513 1.463 . S
C1516 N1520 1.427 . S
C1517 H1507 0.929 . S
C1517 C1515 1.433 1_556 S
C1517 N1520 1.384 . S
C1518 H1509 0.929 . S
C1518 C1510 1.378 . S
C1518 C1513 1.350 . S
C1519 H1506 0.929 . S
C1519 C1511 1.433 . S
C1519 N1521 1.384 . S
N1520 C1516 1.427 . S
N1520 C1517 1.384 . S
N1521 C1513 1.427 . S
N1521 C1519 1.384 . S
H1522 C1528 0.930 . S
H1523 C1532 0.930 . S
H1524 C1537 0.929 . S
H1525 C1535 0.929 . S
H1526 C1530 0.929 . S
H1527 C1536 0.929 . S
C1528 H1522 0.930 . S
C1528 C1529 1.367 . S
C1528 C1536 1.378 . S
C1529 C1528 1.367 . S
C1529 C1537 1.433 . S
C1530 H1526 0.929 . S
C1530 C1532 1.378 . S
C1530 C1534 1.350 . S
C1531 C1534 1.463 . S
C1531 C1536 1.350 . S
C1531 N1539 1.427 . S
C1532 H1523 0.930 . S
C1532 C1530 1.378 . S
C1532 C1533 1.367 . S
C1533 C1532 1.367 . S
C1533 C1535 1.433 . S
C1534 C1530 1.350 . S
C1534 C1531 1.463 . S
C1534 N1538 1.427 . S
C1535 H1525 0.929 . S
C1535 C1533 1.433 . S
C1535 N1538 1.384 . S
C1536 H1527 0.929 . S
C1536 C1528 1.378 . S
C1536 C1531 1.350 . S
C1537 H1524 0.929 . S
C1537 C1529 1.433 . S
C1537 N1539 1.384 . S
N1538 C1534 1.427 . S
N1538 C1535 1.384 . S
N1539 C1531 1.427 . S
N1539 C1537 1.384 . S
H1540 C1546 0.930 . S
H1541 C1550 0.930 . S
H1542 C1555 0.929 . S
H1543 C1553 0.929 . S
H1544 C1548 0.929 . S
H1545 C1554 0.929 . S
C1546 H1540 0.930 . S
C1546 C1547 1.367 . S
C1546 C1554 1.378 . S
C1547 C1546 1.367 . S
C1547 C1555 1.433 . S
C1548 H1544 0.929 . S
C1548 C1550 1.378 . S
C1548 C1552 1.350 . S
C1549 C1552 1.463 . S
C1549 C1554 1.350 . S
C1549 N1557 1.427 . S
C1550 H1541 0.930 . S
C1550 C1548 1.378 . S
C1550 C1551 1.367 1_565 S
C1551 C1550 1.367 1_545 S
C1551 C1553 1.433 . S
C1552 C1548 1.350 . S
C1552 C1549 1.463 . S
C1552 N1556 1.427 . S
C1553 H1543 0.929 . S
C1553 C1551 1.433 . S
C1553 N1556 1.384 1_545 S
C1554 H1545 0.929 . S
C1554 C1546 1.378 . S
C1554 C1549 1.350 . S
C1555 H1542 0.929 . S
C1555 C1547 1.433 . S
C1555 N1557 1.384 . S
N1556 C1552 1.427 . S
N1556 C1553 1.384 1_565 S
N1557 C1549 1.427 . S
N1557 C1555 1.384 . S
H1558 C1564 0.930 . S
H1559 C1568 0.930 . S
H1560 C1573 0.929 . S
H1561 C1571 0.929 . S
H1562 C1566 0.929 . S
H1563 C1572 0.929 . S
C1564 H1558 0.930 . S
C1564 C1565 1.367 . S
C1564 C1572 1.378 . S
C1565 C1564 1.367 . S
C1565 C1573 1.433 . S
C1566 H1562 0.929 . S
C1566 C1568 1.378 . S
C1566 C1570 1.350 . S
C1567 C1570 1.463 . S
C1567 C1572 1.350 . S
C1567 N1575 1.427 . S
C1568 H1559 0.930 . S
C1568 C1566 1.378 . S
C1568 C1569 1.367 . S
C1569 C1568 1.367 . S
C1569 C1571 1.433 . S
C1570 C1566 1.350 . S
C1570 C1567 1.463 . S
C1570 N1574 1.427 . S
C1571 H1561 0.929 . S
C1571 C1569 1.433 . S
C1571 N1574 1.384 . S
C1572 H1563 0.929 . S
C1572 C1564 1.378 . S
C1572 C1567 1.350 . S
C1573 H1560 0.929 . S
C1573 C1565 1.433 . S
C1573 N1575 1.384 . S
N1574 C1570 1.427 . S
N1574 C1571 1.384 . S
N1575 C1567 1.427 . S
N1575 C1573 1.384 . S
H1576 C1582 0.930 . S
H1577 C1586 0.930 . S
H1578 C1591 0.929 . S
H1579 C1589 0.929 . S
H1580 C1584 0.929 . S
H1581 C1590 0.929 . S
C1582 H1576 0.930 . S
C1582 C1583 1.367 . S
C1582 C1590 1.378 . S
C1583 C1582 1.367 . S
C1583 C1591 1.433 . S
C1584 H1580 0.929 . S
C1584 C1586 1.378 . S
C1584 C1588 1.350 . S
C1585 C1588 1.463 . S
C1585 C1590 1.350 . S
C1585 N1593 1.427 . S
C1586 H1577 0.930 . S
C1586 C1584 1.378 . S
C1586 C1587 1.367 1_565 S
C1587 C1586 1.367 1_545 S
C1587 C1589 1.433 . S
C1588 C1584 1.350 . S
C1588 C1585 1.463 . S
C1588 N1592 1.427 . S
C1589 H1579 0.929 . S
C1589 C1587 1.433 . S
C1589 N1592 1.384 1_545 S
C1590 H1581 0.929 . S
C1590 C1582 1.378 . S
C1590 C1585 1.350 . S
C1591 H1578 0.929 . S
C1591 C1583 1.433 . S
C1591 N1593 1.384 . S
N1592 C1588 1.427 . S
N1592 C1589 1.384 1_565 S
N1593 C1585 1.427 . S
N1593 C1591 1.384 . S
H1594 C1600 0.930 . S
H1595 C1604 0.930 . S
H1596 C1609 0.929 . S
H1597 C1607 0.929 . S
H1598 C1602 0.929 . S
H1599 C1608 0.929 . S
C1600 H1594 0.930 . S
C1600 C1601 1.367 . S
C1600 C1608 1.378 . S
C1601 C1600 1.367 . S
C1601 C1609 1.433 . S
C1602 H1598 0.929 . S
C1602 C1604 1.378 . S
C1602 C1606 1.350 . S
C1603 C1606 1.463 . S
C1603 C1608 1.350 . S
C1603 N1611 1.427 . S
C1604 H1595 0.930 . S
C1604 C1602 1.378 . S
C1604 C1605 1.367 . S
C1605 C1604 1.367 . S
C1605 C1607 1.433 . S
C1606 C1602 1.350 . S
C1606 C1603 1.463 . S
C1606 N1610 1.427 . S
C1607 H1597 0.929 . S
C1607 C1605 1.433 . S
C1607 N1610 1.384 . S
C1608 H1599 0.929 . S
C1608 C1600 1.378 . S
C1608 C1603 1.350 . S
C1609 H1596 0.929 . S
C1609 C1601 1.433 . S
C1609 N1611 1.384 . S
N1610 C1606 1.427 . S
N1610 C1607 1.384 . S
N1611 C1603 1.427 . S
N1611 C1609 1.384 . S
H1612 C1618 0.930 . S
H1613 C1622 0.930 . S
H1614 C1627 0.929 . S
H1615 C1625 0.929 . S
H1616 C1620 0.929 . S
H1617 C1626 0.929 . S
C1618 H1612 0.930 . S
C1618 C1619 1.367 . S
C1618 C1626 1.378 . S
C1619 C1618 1.367 . S
C1619 C1627 1.433 . S
C1620 H1616 0.929 . S
C1620 C1622 1.378 . S
C1620 C1624 1.350 . S
C1621 C1624 1.463 . S
C1621 C1626 1.350 . S
C1621 N1629 1.427 . S
C1622 H1613 0.930 . S
C1622 C1620 1.378 . S
C1622 C1623 1.367 . S
C1623 C1622 1.367 . S
C1623 C1625 1.433 . S
C1624 C1620 1.350 . S
C1624 C1621 1.463 . S
C1624 N1628 1.427 . S
C1625 H1615 0.929 . S
C1625 C1623 1.433 . S
C1625 N1628 1.384 . S
C1626 H1617 0.929 . S
C1626 C1618 1.378 . S
C1626 C1621 1.350 . S
C1627 H1614 0.929 . S
C1627 C1619 1.433 . S
C1627 N1629 1.384 . S
N1628 C1624 1.427 . S
N1628 C1625 1.384 . S
N1629 C1621 1.427 . S
N1629 C1627 1.384 . S
H1630 C1636 0.930 . S
H1631 C1640 0.930 . S
H1632 C1645 0.929 . S
H1633 C1643 0.929 . S
H1634 C1638 0.929 . S
H1635 C1644 0.929 . S
C1636 H1630 0.930 . S
C1636 C1637 1.367 . S
C1636 C1644 1.378 . S
C1637 C1636 1.367 . S
C1637 C1645 1.433 . S
C1638 H1634 0.929 . S
C1638 C1640 1.378 . S
C1638 C1642 1.350 . S
C1639 C1642 1.463 . S
C1639 C1644 1.350 . S
C1639 N1647 1.427 . S
C1640 H1631 0.930 . S
C1640 C1638 1.378 . S
C1640 C1641 1.367 . S
C1641 C1640 1.367 . S
C1641 C1643 1.433 . S
C1642 C1638 1.350 . S
C1642 C1639 1.463 . S
C1642 N1646 1.427 . S
C1643 H1633 0.929 . S
C1643 C1641 1.433 . S
C1643 N1646 1.384 . S
C1644 H1635 0.929 . S
C1644 C1636 1.378 . S
C1644 C1639 1.350 . S
C1645 H1632 0.929 . S
C1645 C1637 1.433 . S
C1645 N1647 1.384 . S
N1646 C1642 1.427 . S
N1646 C1643 1.384 . S
N1647 C1639 1.427 . S
N1647 C1645 1.384 . S
H1648 C1654 0.930 . S
H1649 C1658 0.930 . S
H1650 C1663 0.929 . S
H1651 C1661 0.929 . S
H1652 C1656 0.915 1_655 S
H1653 C1662 0.929 . S
C1654 H1648 0.930 . S
C1654 C1655 1.367 . S
C1654 C1662 1.378 . S
C1655 C1654 1.367 . S
C1655 C1663 1.433 . S
C1656 H1652 0.915 1_455 S
C1656 C1658 1.403 . S
C1656 C1660 1.339 1_455 S
C1657 C1660 1.463 . S
C1657 C1662 1.350 . S
C1657 N1665 1.427 . S
C1658 H1649 0.930 . S
C1658 C1656 1.403 . S
C1658 C1659 1.367 . S
C1659 C1658 1.367 . S
C1659 C1661 1.433 . S
C1660 C1656 1.339 1_655 S
C1660 C1657 1.463 . S
C1660 N1664 1.427 . S
C1661 H1651 0.929 . S
C1661 C1659 1.433 . S
C1661 N1664 1.384 1_455 S
C1662 H1653 0.929 . S
C1662 C1654 1.378 . S
C1662 C1657 1.350 . S
C1663 H1650 0.929 . S
C1663 C1655 1.433 . S
C1663 N1665 1.384 . S
N1664 C1660 1.427 . S
N1664 C1661 1.384 1_655 S
N1665 C1657 1.427 . S
N1665 C1663 1.384 . S
H1666 C1672 0.930 . S
H1667 C1676 0.930 . S
H1668 C1681 0.929 . S
H1669 C1679 0.929 . S
H1670 C1674 0.929 . S
H1671 C1680 0.929 . S
C1672 H1666 0.930 . S
C1672 C1673 1.367 . S
C1672 C1680 1.378 . S
C1673 C1672 1.367 . S
C1673 C1681 1.433 . S
C1674 H1670 0.929 . S
C1674 C1676 1.378 . S
C1674 C1678 1.350 . S
C1675 C1678 1.463 . S
C1675 C1680 1.350 . S
C1675 N1683 1.427 . S
C1676 H1667 0.930 . S
C1676 C1674 1.378 . S
C1676 C1677 1.367 . S
C1677 C1676 1.367 . S
C1677 C1679 1.433 . S
C1678 C1674 1.350 . S
C1678 C1675 1.463 . S
C1678 N1682 1.427 . S
C1679 H1669 0.929 . S
C1679 C1677 1.433 . S
C1679 N1682 1.384 . S
C1680 H1671 0.929 . S
C1680 C1672 1.378 . S
C1680 C1675 1.350 . S
C1681 H1668 0.929 . S
C1681 C1673 1.433 . S
C1681 N1683 1.384 . S
N1682 C1678 1.427 . S
N1682 C1679 1.384 . S
N1683 C1675 1.427 . S
N1683 C1681 1.384 . S
H1684 C1690 0.930 . S
H1685 C1694 0.930 . S
H1686 C1699 0.929 . S
H1687 C1697 0.929 . S
H1688 C1692 0.929 . S
H1689 C1698 0.929 . S
C1690 H1684 0.930 . S
C1690 C1691 1.400 . S
C1690 C1698 1.378 . S
C1691 C1690 1.400 . S
C1691 C1699 1.427 1_545 S
C1692 H1688 0.929 . S
C1692 C1694 1.378 . S
C1692 C1696 1.350 . S
C1693 C1696 1.463 . S
C1693 C1698 1.350 . S
C1693 N1701 1.427 . S
C1694 H1685 0.930 . S
C1694 C1692 1.378 . S
C1694 C1695 1.367 . S
C1695 C1694 1.367 . S
C1695 C1697 1.433 . S
C1696 C1692 1.350 . S
C1696 C1693 1.463 . S
C1696 N1700 1.427 . S
C1697 H1687 0.929 . S
C1697 C1695 1.433 . S
C1697 N1700 1.384 . S
C1698 H1689 0.929 . S
C1698 C1690 1.378 . S
C1698 C1693 1.350 . S
C1699 H1686 0.929 . S
C1699 C1691 1.427 1_565 S
C1699 N1701 1.384 1_565 S
N1700 C1696 1.427 . S
N1700 C1697 1.384 . S
N1701 C1693 1.427 . S
N1701 C1699 1.384 1_545 S
H1702 C1708 0.930 . S
H1703 C1712 0.930 . S
H1704 C1717 0.929 . S
H1705 C1715 0.929 . S
H1706 C1710 0.929 . S
H1707 C1716 0.929 . S
C1708 H1702 0.930 . S
C1708 C1709 1.367 . S
C1708 C1716 1.378 . S
C1709 C1708 1.367 . S
C1709 C1717 1.433 . S
C1710 H1706 0.929 . S
C1710 C1712 1.378 . S
C1710 C1714 1.350 . S
C1711 C1714 1.463 . S
C1711 C1716 1.350 . S
C1711 N1719 1.427 . S
C1712 H1703 0.930 . S
C1712 C1710 1.378 . S
C1712 C1713 1.367 . S
C1713 C1712 1.367 . S
C1713 C1715 1.433 . S
C1714 C1710 1.350 . S
C1714 C1711 1.463 . S
C1714 N1718 1.427 . S
C1715 H1705 0.929 . S
C1715 C1713 1.433 . S
C1715 N1718 1.384 . S
C1716 H1707 0.929 . S
C1716 C1708 1.378 . S
C1716 C1711 1.350 . S
C1717 H1704 0.929 . S
C1717 C1709 1.433 . S
C1717 N1719 1.384 . S
N1718 C1714 1.427 . S
N1718 C1715 1.384 . S
N1719 C1711 1.427 . S
N1719 C1717 1.384 . S
H1720 C1726 0.930 . S
H1721 C1730 0.930 . S
H1722 C1735 0.929 . S
H1723 C1733 0.929 1_455 S
H1724 C1728 0.929 . S
H1725 C1734 0.929 . S
C1726 H1720 0.930 . S
C1726 C1727 1.367 . S
C1726 C1734 1.378 . S
C1727 C1726 1.367 . S
C1727 C1735 1.433 . S
C1728 H1724 0.929 . S
C1728 C1730 1.378 . S
C1728 C1732 1.350 . S
C1729 C1732 1.463 . S
C1729 C1734 1.350 . S
C1729 N1737 1.427 . S
C1730 H1721 0.930 . S
C1730 C1728 1.378 . S
C1730 C1731 1.367 . S
C1731 C1730 1.367 . S
C1731 C1733 1.433 . S
C1732 C1728 1.350 . S
C1732 C1729 1.463 . S
C1732 N1736 1.427 . S
C1733 H1723 0.929 1_655 S
C1733 C1731 1.433 . S
C1733 N1736 1.384 . S
C1734 H1725 0.929 . S
C1734 C1726 1.378 . S
C1734 C1729 1.350 . S
C1735 H1722 0.929 . S
C1735 C1727 1.433 . S
C1735 N1737 1.384 . S
N1736 C1732 1.427 . S
N1736 C1733 1.384 . S
N1737 C1729 1.427 . S
N1737 C1735 1.384 . S
H1738 C1744 0.930 . S
H1739 C1748 0.930 . S
H1740 C1753 0.929 . S
H1741 C1751 0.929 . S
H1742 C1746 0.929 . S
H1743 C1752 0.929 . S
C1744 H1738 0.930 . S
C1744 C1745 1.367 . S
C1744 C1752 1.378 . S
C1745 C1744 1.367 . S
C1745 C1753 1.433 . S
C1746 H1742 0.929 . S
C1746 C1748 1.378 . S
C1746 C1750 1.350 . S
C1747 C1750 1.463 . S
C1747 C1752 1.350 . S
C1747 N1755 1.427 . S
C1748 H1739 0.930 . S
C1748 C1746 1.378 . S
C1748 C1749 1.367 . S
C1749 C1748 1.367 . S
C1749 C1751 1.433 . S
C1750 C1746 1.350 . S
C1750 C1747 1.463 . S
C1750 N1754 1.427 . S
C1751 H1741 0.929 . S
C1751 C1749 1.433 . S
C1751 N1754 1.384 . S
C1752 H1743 0.929 . S
C1752 C1744 1.378 . S
C1752 C1747 1.350 . S
C1753 H1740 0.929 . S
C1753 C1745 1.433 . S
C1753 N1755 1.384 . S
N1754 C1750 1.427 . S
N1754 C1751 1.384 . S
N1755 C1747 1.427 . S
N1755 C1753 1.384 . S
H1756 C1762 0.930 . S
H1757 C1766 0.930 . S
H1758 C1771 0.929 . S
H1759 C1769 0.929 . S
H1760 C1764 0.929 . S
H1761 C1770 0.929 . S
C1762 H1756 0.930 . S
C1762 C1763 1.367 1_565 S
C1762 C1770 1.378 1_565 S
C1763 C1762 1.367 1_545 S
C1763 C1771 1.433 . S
C1764 H1760 0.929 . S
C1764 C1766 1.378 . S
C1764 C1768 1.350 . S
C1765 C1768 1.463 . S
C1765 C1770 1.350 . S
C1765 N1773 1.427 . S
C1766 H1757 0.930 . S
C1766 C1764 1.378 . S
C1766 C1767 1.367 . S
C1767 C1766 1.367 . S
C1767 C1769 1.433 . S
C1768 C1764 1.350 . S
C1768 C1765 1.463 . S
C1768 N1772 1.427 . S
C1769 H1759 0.929 . S
C1769 C1767 1.433 . S
C1769 N1772 1.384 . S
C1770 H1761 0.929 . S
C1770 C1762 1.378 1_545 S
C1770 C1765 1.350 . S
C1771 H1758 0.929 . S
C1771 C1763 1.433 . S
C1771 N1773 1.384 . S
N1772 C1768 1.427 . S
N1772 C1769 1.384 . S
N1773 C1765 1.427 . S
N1773 C1771 1.384 . S
H1774 C1780 0.930 . S
H1775 C1784 0.930 . S
H1776 C1789 0.929 . S
H1777 C1787 0.929 . S
H1778 C1782 0.929 . S
H1779 C1788 0.929 . S
C1780 H1774 0.930 . S
C1780 C1781 1.367 . S
C1780 C1788 1.378 . S
C1781 C1780 1.367 . S
C1781 C1789 1.433 . S
C1782 H1778 0.929 . S
C1782 C1784 1.378 . S
C1782 C1786 1.350 . S
C1783 C1786 1.463 . S
C1783 C1788 1.350 . S
C1783 N1791 1.427 . S
C1784 H1775 0.930 . S
C1784 C1782 1.378 . S
C1784 C1785 1.367 . S
C1785 C1784 1.367 . S
C1785 C1787 1.433 . S
C1786 C1782 1.350 . S
C1786 C1783 1.463 . S
C1786 N1790 1.427 . S
C1787 H1777 0.929 . S
C1787 C1785 1.433 . S
C1787 N1790 1.384 . S
C1788 H1779 0.929 . S
C1788 C1780 1.378 . S
C1788 C1783 1.350 . S
C1789 H1776 0.929 . S
C1789 C1781 1.433 . S
C1789 N1791 1.384 . S
N1790 C1786 1.427 . S
N1790 C1787 1.384 . S
N1791 C1783 1.427 . S
N1791 C1789 1.384 . S
H1792 C1798 0.930 . S
H1793 C1802 0.930 . S
H1794 C1807 0.929 . S
H1795 C1805 0.929 . S
H1796 C1800 0.929 . S
H1797 C1806 0.929 . S
C1798 H1792 0.930 . S
C1798 C1799 1.367 . S
C1798 C1806 1.378 . S
C1799 C1798 1.367 . S
C1799 C1807 1.433 . S
C1800 H1796 0.929 . S
C1800 C1802 1.378 . S
C1800 C1804 1.350 1_545 S
C1801 C1804 1.463 . S
C1801 C1806 1.350 . S
C1801 N1809 1.427 . S
C1802 H1793 0.930 . S
C1802 C1800 1.378 . S
C1802 C1803 1.367 . S
C1803 C1802 1.367 . S
C1803 C1805 1.433 . S
C1804 C1800 1.350 1_565 S
C1804 C1801 1.463 . S
C1804 N1808 1.427 . S
C1805 H1795 0.929 . S
C1805 C1803 1.433 . S
C1805 N1808 1.384 1_545 S
C1806 H1797 0.929 . S
C1806 C1798 1.378 . S
C1806 C1801 1.350 . S
C1807 H1794 0.929 . S
C1807 C1799 1.433 . S
C1807 N1809 1.384 . S
N1808 C1804 1.427 . S
N1808 C1805 1.384 1_565 S
N1809 C1801 1.427 . S
N1809 C1807 1.384 . S
H1810 C1816 0.930 . S
H1811 C1820 0.930 . S
H1812 C1825 0.929 . S
H1813 C1823 0.929 . S
H1814 C1818 0.929 . S
H1815 C1824 0.929 . S
C1816 H1810 0.930 . S
C1816 C1817 1.367 . S
C1816 C1824 1.378 . S
C1817 C1816 1.367 . S
C1817 C1825 1.433 . S
C1818 H1814 0.929 . S
C1818 C1820 1.378 . S
C1818 C1822 1.350 . S
C1819 C1822 1.463 . S
C1819 C1824 1.350 . S
C1819 N1827 1.427 . S
C1820 H1811 0.930 . S
C1820 C1818 1.378 . S
C1820 C1821 1.367 . S
C1821 C1820 1.367 . S
C1821 C1823 1.433 . S
C1822 C1818 1.350 . S
C1822 C1819 1.463 . S
C1822 N1826 1.427 . S
C1823 H1813 0.929 . S
C1823 C1821 1.433 . S
C1823 N1826 1.384 . S
C1824 H1815 0.929 . S
C1824 C1816 1.378 . S
C1824 C1819 1.350 . S
C1825 H1812 0.929 . S
C1825 C1817 1.433 . S
C1825 N1827 1.384 . S
N1826 C1822 1.427 . S
N1826 C1823 1.384 . S
N1827 C1819 1.427 . S
N1827 C1825 1.384 . S
H1828 C1834 0.930 . S
H1829 C1838 0.930 . S
H1830 C1843 0.929 . S
H1831 C1841 0.929 . S
H1832 C1836 0.929 . S
H1833 C1842 0.929 . S
C1834 H1828 0.930 . S
C1834 C1835 1.367 . S
C1834 C1842 1.378 . S
C1835 C1834 1.367 . S
C1835 C1843 1.433 . S
C1836 H1832 0.929 . S
C1836 C1838 1.378 . S
C1836 C1840 1.350 . S
C1837 C1840 1.463 . S
C1837 C1842 1.350 . S
C1837 N1845 1.427 . S
C1838 H1829 0.930 . S
C1838 C1836 1.378 . S
C1838 C1839 1.367 . S
C1839 C1838 1.367 . S
C1839 C1841 1.433 . S
C1840 C1836 1.350 . S
C1840 C1837 1.463 . S
C1840 N1844 1.427 . S
C1841 H1831 0.929 . S
C1841 C1839 1.433 . S
C1841 N1844 1.384 . S
C1842 H1833 0.929 . S
C1842 C1834 1.378 . S
C1842 C1837 1.350 . S
C1843 H1830 0.929 . S
C1843 C1835 1.433 . S
C1843 N1845 1.384 . S
N1844 C1840 1.427 . S
N1844 C1841 1.384 . S
N1845 C1837 1.427 . S
N1845 C1843 1.384 . S
H1846 C1852 0.930 . S
H1847 C1856 0.930 . S
H1848 C1861 0.929 . S
H1849 C1859 0.929 . S
H1850 C1854 0.929 . S
H1851 C1860 0.929 . S
C1852 H1846 0.930 . S
C1852 C1853 1.367 . S
C1852 C1860 1.378 . S
C1853 C1852 1.367 . S
C1853 C1861 1.433 . S
C1854 H1850 0.929 . S
C1854 C1856 1.378 . S
C1854 C1858 1.350 . S
C1855 C1858 1.463 . S
C1855 C1860 1.350 . S
C1855 N1863 1.427 . S
C1856 H1847 0.930 . S
C1856 C1854 1.378 . S
C1856 C1857 1.367 . S
C1857 C1856 1.367 . S
C1857 C1859 1.433 . S
C1858 C1854 1.350 . S
C1858 C1855 1.463 . S
C1858 N1862 1.427 . S
C1859 H1849 0.929 . S
C1859 C1857 1.433 . S
C1859 N1862 1.384 . S
C1860 H1851 0.929 . S
C1860 C1852 1.378 . S
C1860 C1855 1.350 . S
C1861 H1848 0.929 . S
C1861 C1853 1.433 . S
C1861 N1863 1.384 . S
N1862 C1858 1.427 . S
N1862 C1859 1.384 . S
N1863 C1855 1.427 . S
N1863 C1861 1.384 . S
H1864 C1870 0.930 . S
H1865 C1874 0.930 . S
H1866 C1879 0.929 . S
H1867 C1877 0.929 . S
H1868 C1872 0.929 . S
H1869 C1878 0.929 . S
C1870 H1864 0.930 . S
C1870 C1871 1.367 . S
C1870 C1878 1.378 . S
C1871 C1870 1.367 . S
C1871 C1879 1.433 . S
C1872 H1868 0.929 . S
C1872 C1874 1.378 . S
C1872 C1876 1.350 . S
C1873 C1876 1.463 . S
C1873 C1878 1.350 . S
C1873 N1881 1.427 . S
C1874 H1865 0.930 . S
C1874 C1872 1.378 . S
C1874 C1875 1.367 . S
C1875 C1874 1.367 . S
C1875 C1877 1.433 . S
C1876 C1872 1.350 . S
C1876 C1873 1.463 . S
C1876 N1880 1.427 . S
C1877 H1867 0.929 . S
C1877 C1875 1.433 . S
C1877 N1880 1.384 . S
C1878 H1869 0.929 . S
C1878 C1870 1.378 . S
C1878 C1873 1.350 . S
C1879 H1866 0.929 . S
C1879 C1871 1.433 . S
C1879 N1881 1.384 . S
N1880 C1876 1.427 . S
N1880 C1877 1.384 . S
N1881 C1873 1.427 . S
N1881 C1879 1.384 . S
H1882 C1888 0.930 . S
H1883 C1892 0.930 . S
H1884 C1897 0.929 . S
H1885 C1895 0.929 . S
H1886 C1890 0.929 . S
H1887 C1896 0.929 . S
C1888 H1882 0.930 . S
C1888 C1889 1.367 . S
C1888 C1896 1.378 . S
C1889 C1888 1.367 . S
C1889 C1897 1.433 . S
C1890 H1886 0.929 . S
C1890 C1892 1.378 . S
C1890 C1894 1.350 . S
C1891 C1894 1.463 . S
C1891 C1896 1.350 . S
C1891 N1899 1.427 . S
C1892 H1883 0.930 . S
C1892 C1890 1.378 . S
C1892 C1893 1.367 . S
C1893 C1892 1.367 . S
C1893 C1895 1.433 . S
C1894 C1890 1.350 . S
C1894 C1891 1.463 . S
C1894 N1898 1.427 . S
C1895 H1885 0.929 . S
C1895 C1893 1.433 . S
C1895 N1898 1.384 . S
C1896 H1887 0.929 . S
C1896 C1888 1.378 . S
C1896 C1891 1.350 . S
C1897 H1884 0.929 . S
C1897 C1889 1.433 . S
C1897 N1899 1.384 . S
N1898 C1894 1.427 . S
N1898 C1895 1.384 . S
N1899 C1891 1.427 . S
N1899 C1897 1.384 . S
H1900 C1906 0.930 . S
H1901 C1910 0.930 . S
H1902 C1915 0.929 . S
H1903 C1913 0.929 . S
H1904 C1908 0.929 . S
H1905 C1914 0.929 . S
C1906 H1900 0.930 . S
C1906 C1907 1.367 . S
C1906 C1914 1.378 . S
C1907 C1906 1.367 . S
C1907 C1915 1.433 . S
C1908 H1904 0.929 . S
C1908 C1910 1.378 . S
C1908 C1912 1.350 . S
C1909 C1912 1.463 . S
C1909 C1914 1.350 . S
C1909 N1917 1.427 . S
C1910 H1901 0.930 . S
C1910 C1908 1.378 . S
C1910 C1911 1.367 . S
C1911 C1910 1.367 . S
C1911 C1913 1.433 . S
C1912 C1908 1.350 . S
C1912 C1909 1.463 . S
C1912 N1916 1.427 . S
C1913 H1903 0.929 . S
C1913 C1911 1.433 . S
C1913 N1916 1.384 . S
C1914 H1905 0.929 . S
C1914 C1906 1.378 . S
C1914 C1909 1.350 . S
C1915 H1902 0.929 . S
C1915 C1907 1.433 . S
C1915 N1917 1.384 . S
N1916 C1912 1.427 . S
N1916 C1913 1.384 . S
N1917 C1909 1.427 . S
N1917 C1915 1.384 . S
H1918 C1924 0.930 . S
H1919 C1928 0.930 . S
H1920 C1933 0.929 . S
H1921 C1931 0.929 . S
H1922 C1926 0.929 . S
H1923 C1932 0.929 . S
C1924 H1918 0.930 . S
C1924 C1925 1.367 . S
C1924 C1932 1.378 . S
C1925 C1924 1.367 . S
C1925 C1933 1.433 . S
C1926 H1922 0.929 . S
C1926 C1928 1.378 . S
C1926 C1930 1.350 . S
C1927 C1930 1.463 . S
C1927 C1932 1.350 . S
C1927 N1935 1.427 . S
C1928 H1919 0.930 . S
C1928 C1926 1.378 . S
C1928 C1929 1.367 . S
C1929 C1928 1.367 . S
C1929 C1931 1.433 . S
C1930 C1926 1.350 . S
C1930 C1927 1.463 . S
C1930 N1934 1.427 . S
C1931 H1921 0.929 . S
C1931 C1929 1.433 . S
C1931 N1934 1.384 . S
C1932 H1923 0.929 . S
C1932 C1924 1.378 . S
C1932 C1927 1.350 . S
C1933 H1920 0.929 . S
C1933 C1925 1.433 . S
C1933 N1935 1.384 . S
N1934 C1930 1.427 . S
N1934 C1931 1.384 . S
N1935 C1927 1.427 . S
N1935 C1933 1.384 . S
H1936 C1942 0.930 . S
H1937 C1946 0.930 1_545 S
H1938 C1951 0.929 . S
H1939 C1949 0.929 . S
H1940 C1944 0.929 . S
H1941 C1950 0.929 . S
C1942 H1936 0.930 . S
C1942 C1943 1.367 . S
C1942 C1950 1.378 . S
C1943 C1942 1.367 . S
C1943 C1951 1.433 . S
C1944 H1940 0.929 . S
C1944 C1946 1.378 . S
C1944 C1948 1.350 . S
C1945 C1948 1.463 . S
C1945 C1950 1.350 . S
C1945 N1953 1.427 . S
C1946 H1937 0.930 1_565 S
C1946 C1944 1.378 . S
C1946 C1947 1.367 . S
C1947 C1946 1.367 . S
C1947 C1949 1.433 . S
C1948 C1944 1.350 . S
C1948 C1945 1.463 . S
C1948 N1952 1.427 . S
C1949 H1939 0.929 . S
C1949 C1947 1.433 . S
C1949 N1952 1.384 . S
C1950 H1941 0.929 . S
C1950 C1942 1.378 . S
C1950 C1945 1.350 . S
C1951 H1938 0.929 . S
C1951 C1943 1.433 . S
C1951 N1953 1.384 . S
N1952 C1948 1.427 . S
N1952 C1949 1.384 . S
N1953 C1945 1.427 . S
N1953 C1951 1.384 . S
H1954 C1960 0.930 . S
H1955 C1964 0.930 . S
H1956 C1969 0.929 . S
H1957 C1967 0.929 . S
H1958 C1962 0.929 . S
H1959 C1968 0.929 . S
C1960 H1954 0.930 . S
C1960 C1961 1.367 . S
C1960 C1968 1.378 . S
C1961 C1960 1.367 . S
C1961 C1969 1.433 . S
C1962 H1958 0.929 . S
C1962 C1964 1.378 . S
C1962 C1966 1.350 . S
C1963 C1966 1.463 . S
C1963 C1968 1.350 . S
C1963 N1971 1.427 . S
C1964 H1955 0.930 . S
C1964 C1962 1.378 . S
C1964 C1965 1.367 . S
C1965 C1964 1.367 . S
C1965 C1967 1.433 . S
C1966 C1962 1.350 . S
C1966 C1963 1.463 . S
C1966 N1970 1.427 . S
C1967 H1957 0.929 . S
C1967 C1965 1.433 . S
C1967 N1970 1.384 . S
C1968 H1959 0.929 . S
C1968 C1960 1.378 . S
C1968 C1963 1.350 . S
C1969 H1956 0.929 . S
C1969 C1961 1.433 . S
C1969 N1971 1.384 . S
N1970 C1966 1.427 . S
N1970 C1967 1.384 . S
N1971 C1963 1.427 . S
N1971 C1969 1.384 . S
H1972 C1978 0.930 . S
H1973 C1982 0.930 . S
H1974 C1987 0.929 . S
H1975 C1985 0.929 . S
H1976 C1980 0.929 . S
H1977 C1986 0.929 . S
C1978 H1972 0.930 . S
C1978 C1979 1.367 . S
C1978 C1986 1.378 . S
C1979 C1978 1.367 . S
C1979 C1987 1.433 . S
C1980 H1976 0.929 . S
C1980 C1982 1.378 . S
C1980 C1984 1.350 . S
C1981 C1984 1.463 . S
C1981 C1986 1.350 . S
C1981 N1989 1.427 . S
C1982 H1973 0.930 . S
C1982 C1980 1.378 . S
C1982 C1983 1.367 . S
C1983 C1982 1.367 . S
C1983 C1985 1.433 . S
C1984 C1980 1.350 . S
C1984 C1981 1.463 . S
C1984 N1988 1.427 . S
C1985 H1975 0.929 . S
C1985 C1983 1.433 . S
C1985 N1988 1.384 . S
C1986 H1977 0.929 . S
C1986 C1978 1.378 . S
C1986 C1981 1.350 . S
C1987 H1974 0.929 . S
C1987 C1979 1.433 . S
C1987 N1989 1.384 . S
N1988 C1984 1.427 . S
N1988 C1985 1.384 . S
N1989 C1981 1.427 . S
N1989 C1987 1.384 . S
H1990 C1996 0.930 . S
H1991 C2000 0.930 . S
H1992 C2005 0.929 . S
H1993 C2003 0.929 . S
H1994 C1998 0.929 . S
H1995 C2004 0.929 . S
C1996 H1990 0.930 . S
C1996 C1997 1.367 . S
C1996 C2004 1.378 . S
C1997 C1996 1.367 . S
C1997 C2005 1.433 . S
C1998 H1994 0.929 . S
C1998 C2000 1.378 . S
C1998 C2002 1.350 . S
C1999 C2002 1.463 . S
C1999 C2004 1.350 . S
C1999 N2007 1.427 . S
C2000 H1991 0.930 . S
C2000 C1998 1.378 . S
C2000 C2001 1.367 . S
C2001 C2000 1.367 . S
C2001 C2003 1.433 . S
C2002 C1998 1.350 . S
C2002 C1999 1.463 . S
C2002 N2006 1.427 . S
C2003 H1993 0.929 . S
C2003 C2001 1.433 . S
C2003 N2006 1.384 . S
C2004 H1995 0.929 . S
C2004 C1996 1.378 . S
C2004 C1999 1.350 . S
C2005 H1992 0.929 . S
C2005 C1997 1.433 . S
C2005 N2007 1.384 . S
N2006 C2002 1.427 . S
N2006 C2003 1.384 . S
N2007 C1999 1.427 . S
N2007 C2005 1.384 . S
H2008 C2014 0.930 . S
H2009 C2018 0.930 . S
H2010 C2023 0.929 . S
H2011 C2021 0.929 . S
H2012 C2016 0.929 . S
H2013 C2022 0.929 . S
C2014 H2008 0.930 . S
C2014 C2015 1.367 . S
C2014 C2022 1.378 . S
C2015 C2014 1.367 . S
C2015 C2023 1.433 1_455 S
C2016 H2012 0.929 . S
C2016 C2018 1.378 . S
C2016 C2020 1.350 . S
C2017 C2020 1.463 . S
C2017 C2022 1.350 . S
C2017 N2025 1.427 . S
C2018 H2009 0.930 . S
C2018 C2016 1.378 . S
C2018 C2019 1.367 . S
C2019 C2018 1.367 . S
C2019 C2021 1.433 . S
C2020 C2016 1.350 . S
C2020 C2017 1.463 . S
C2020 N2024 1.427 . S
C2021 H2011 0.929 . S
C2021 C2019 1.433 . S
C2021 N2024 1.384 . S
C2022 H2013 0.929 . S
C2022 C2014 1.378 . S
C2022 C2017 1.350 . S
C2023 H2010 0.929 . S
C2023 C2015 1.433 1_655 S
C2023 N2025 1.384 1_655 S
N2024 C2020 1.427 . S
N2024 C2021 1.384 . S
N2025 C2017 1.427 . S
N2025 C2023 1.384 1_455 S
H2026 C2032 0.930 . S
H2027 C2036 0.930 . S
H2028 C2041 0.929 . S
H2029 C2039 0.929 . S
H2030 C2034 0.929 . S
H2031 C2040 0.929 . S
C2032 H2026 0.930 . S
C2032 C2033 1.367 . S
C2032 C2040 1.378 . S
C2033 C2032 1.367 . S
C2033 C2041 1.433 . S
C2034 H2030 0.929 . S
C2034 C2036 1.378 . S
C2034 C2038 1.350 . S
C2035 C2038 1.463 . S
C2035 C2040 1.350 . S
C2035 N2043 1.427 . S
C2036 H2027 0.930 . S
C2036 C2034 1.378 . S
C2036 C2037 1.367 . S
C2037 C2036 1.367 . S
C2037 C2039 1.433 . S
C2038 C2034 1.350 . S
C2038 C2035 1.463 . S
C2038 N2042 1.427 . S
C2039 H2029 0.929 . S
C2039 C2037 1.433 . S
C2039 N2042 1.384 . S
C2040 H2031 0.929 . S
C2040 C2032 1.378 . S
C2040 C2035 1.350 . S
C2041 H2028 0.929 . S
C2041 C2033 1.433 . S
C2041 N2043 1.384 . S
N2042 C2038 1.427 . S
N2042 C2039 1.384 . S
N2043 C2035 1.427 . S
N2043 C2041 1.384 . S
H2044 C2050 0.930 . S
H2045 C2054 0.930 . S
H2046 C2059 0.929 . S
H2047 C2057 0.929 1_545 S
H2048 C2052 0.929 1_554 S
H2049 C2058 0.929 . S
C2050 H2044 0.930 . S
C2050 C2051 1.367 . S
C2050 C2058 1.378 . S
C2051 C2050 1.367 . S
C2051 C2059 1.433 . S
C2052 H2048 0.929 1_556 S
C2052 C2054 1.378 1_556 S
C2052 C2056 1.350 . S
C2053 C2056 1.463 . S
C2053 C2058 1.350 . S
C2053 N2061 1.427 . S
C2054 H2045 0.930 . S
C2054 C2052 1.378 1_554 S
C2054 C2055 1.369 1_565 S
C2055 C2054 1.369 1_545 S
C2055 C2057 1.434 1_544 S
C2056 C2052 1.350 . S
C2056 C2053 1.463 . S
C2056 N2060 1.427 . S
C2057 H2047 0.929 1_565 S
C2057 C2055 1.434 1_566 S
C2057 N2060 1.384 . S
C2058 H2049 0.929 . S
C2058 C2050 1.378 . S
C2058 C2053 1.350 . S
C2059 H2046 0.929 . S
C2059 C2051 1.433 . S
C2059 N2061 1.384 . S
N2060 C2056 1.427 . S
N2060 C2057 1.384 . S
N2061 C2053 1.427 . S
N2061 C2059 1.384 . S
H2062 C2068 0.930 . S
H2063 C2072 0.930 . S
H2064 C2077 0.929 . S
H2065 C2075 0.929 . S
H2066 C2070 0.929 . S
H2067 C2076 0.899 1_655 S
C2068 H2062 0.930 . S
C2068 C2069 1.367 . S
C2068 C2076 1.378 . S
C2069 C2068 1.367 . S
C2069 C2077 1.433 . S
C2070 H2066 0.929 . S
C2070 C2072 1.378 . S
C2070 C2074 1.350 . S
C2071 C2074 1.449 1_455 S
C2071 C2076 1.353 . S
C2071 N2079 1.437 . S
C2072 H2063 0.930 . S
C2072 C2070 1.378 . S
C2072 C2073 1.367 . S
C2073 C2072 1.367 . S
C2073 C2075 1.433 . S
C2074 C2070 1.350 . S
C2074 C2071 1.449 1_655 S
C2074 N2078 1.427 . S
C2075 H2065 0.929 . S
C2075 C2073 1.433 . S
C2075 N2078 1.384 . S
C2076 H2067 0.899 1_455 S
C2076 C2068 1.378 . S
C2076 C2071 1.353 . S
C2077 H2064 0.929 . S
C2077 C2069 1.433 . S
C2077 N2079 1.384 . S
N2078 C2074 1.427 . S
N2078 C2075 1.384 . S
N2079 C2071 1.437 . S
N2079 C2077 1.384 . S
H2080 C2086 0.930 . S
H2081 C2090 0.930 . S
H2082 C2095 0.929 . S
H2083 C2093 0.929 . S
H2084 C2088 0.929 . S
H2085 C2094 0.929 . S
C2086 H2080 0.930 . S
C2086 C2087 1.367 . S
C2086 C2094 1.378 . S
C2087 C2086 1.367 . S
C2087 C2095 1.433 . S
C2088 H2084 0.929 . S
C2088 C2090 1.378 . S
C2088 C2092 1.350 . S
C2089 C2092 1.463 . S
C2089 C2094 1.350 . S
C2089 N2097 1.427 . S
C2090 H2081 0.930 . S
C2090 C2088 1.378 . S
C2090 C2091 1.367 . S
C2091 C2090 1.367 . S
C2091 C2093 1.433 . S
C2092 C2088 1.350 . S
C2092 C2089 1.463 . S
C2092 N2096 1.427 . S
C2093 H2083 0.929 . S
C2093 C2091 1.433 . S
C2093 N2096 1.384 . S
C2094 H2085 0.929 . S
C2094 C2086 1.378 . S
C2094 C2089 1.350 . S
C2095 H2082 0.929 . S
C2095 C2087 1.433 . S
C2095 N2097 1.384 . S
N2096 C2092 1.427 . S
N2096 C2093 1.384 . S
N2097 C2089 1.427 . S
N2097 C2095 1.384 . S
H2098 C2104 0.930 . S
H2099 C2108 0.930 . S
H2100 C2113 0.929 . S
H2101 C2111 0.929 . S
H2102 C2106 0.929 . S
H2103 C2112 0.929 . S
C2104 H2098 0.930 . S
C2104 C2105 1.367 . S
C2104 C2112 1.378 . S
C2105 C2104 1.367 . S
C2105 C2113 1.433 . S
C2106 H2102 0.929 . S
C2106 C2108 1.378 . S
C2106 C2110 1.350 . S
C2107 C2110 1.463 . S
C2107 C2112 1.350 . S
C2107 N2115 1.427 . S
C2108 H2099 0.930 . S
C2108 C2106 1.378 . S
C2108 C2109 1.367 . S
C2109 C2108 1.367 . S
C2109 C2111 1.433 . S
C2110 C2106 1.350 . S
C2110 C2107 1.463 . S
C2110 N2114 1.427 . S
C2111 H2101 0.929 . S
C2111 C2109 1.433 . S
C2111 N2114 1.384 . S
C2112 H2103 0.929 . S
C2112 C2104 1.378 . S
C2112 C2107 1.350 . S
C2113 H2100 0.929 . S
C2113 C2105 1.433 . S
C2113 N2115 1.384 . S
N2114 C2110 1.427 . S
N2114 C2111 1.384 . S
N2115 C2107 1.427 . S
N2115 C2113 1.384 . S
H2116 C2122 0.930 . S
H2117 C2126 0.930 . S
H2118 C2131 0.929 . S
H2119 C2129 0.929 . S
H2120 C2124 0.929 . S
H2121 C2130 0.929 . S
C2122 H2116 0.930 . S
C2122 C2123 1.367 . S
C2122 C2130 1.378 . S
C2123 C2122 1.367 . S
C2123 C2131 1.433 . S
C2124 H2120 0.929 . S
C2124 C2126 1.378 . S
C2124 C2128 1.350 . S
C2125 C2128 1.463 . S
C2125 C2130 1.350 . S
C2125 N2133 1.427 . S
C2126 H2117 0.930 . S
C2126 C2124 1.378 . S
C2126 C2127 1.367 . S
C2127 C2126 1.367 . S
C2127 C2129 1.433 . S
C2128 C2124 1.350 . S
C2128 C2125 1.463 . S
C2128 N2132 1.427 . S
C2129 H2119 0.929 . S
C2129 C2127 1.433 . S
C2129 N2132 1.384 . S
C2130 H2121 0.929 . S
C2130 C2122 1.378 . S
C2130 C2125 1.350 . S
C2131 H2118 0.929 . S
C2131 C2123 1.433 . S
C2131 N2133 1.384 . S
N2132 C2128 1.427 . S
N2132 C2129 1.384 . S
N2133 C2125 1.427 . S
N2133 C2131 1.384 . S
H2134 C2140 0.930 . S
H2135 C2144 0.930 . S
H2136 C2149 0.929 . S
H2137 C2147 0.929 . S
H2138 C2142 0.929 . S
H2139 C2148 0.929 . S
C2140 H2134 0.930 . S
C2140 C2141 1.367 . S
C2140 C2148 1.378 . S
C2141 C2140 1.367 . S
C2141 C2149 1.433 . S
C2142 H2138 0.929 . S
C2142 C2144 1.378 . S
C2142 C2146 1.350 . S
C2143 C2146 1.463 . S
C2143 C2148 1.350 . S
C2143 N2151 1.427 . S
C2144 H2135 0.930 . S
C2144 C2142 1.378 . S
C2144 C2145 1.367 . S
C2145 C2144 1.367 . S
C2145 C2147 1.433 . S
C2146 C2142 1.350 . S
C2146 C2143 1.463 . S
C2146 N2150 1.427 . S
C2147 H2137 0.929 . S
C2147 C2145 1.433 . S
C2147 N2150 1.384 . S
C2148 H2139 0.929 . S
C2148 C2140 1.378 . S
C2148 C2143 1.350 . S
C2149 H2136 0.929 . S
C2149 C2141 1.433 . S
C2149 N2151 1.384 . S
N2150 C2146 1.427 . S
N2150 C2147 1.384 . S
N2151 C2143 1.427 . S
N2151 C2149 1.384 . S
H2152 C2158 0.930 . S
H2153 C2162 0.930 . S
H2154 C2167 0.929 . S
H2155 C2165 0.929 . S
H2156 C2160 0.929 . S
H2157 C2166 0.929 . S
C2158 H2152 0.930 . S
C2158 C2159 1.367 . S
C2158 C2166 1.378 . S
C2159 C2158 1.367 . S
C2159 C2167 1.433 . S
C2160 H2156 0.929 . S
C2160 C2162 1.378 . S
C2160 C2164 1.350 . S
C2161 C2164 1.463 . S
C2161 C2166 1.350 . S
C2161 N2169 1.427 . S
C2162 H2153 0.930 . S
C2162 C2160 1.378 . S
C2162 C2163 1.367 . S
C2163 C2162 1.367 . S
C2163 C2165 1.433 . S
C2164 C2160 1.350 . S
C2164 C2161 1.463 . S
C2164 N2168 1.427 . S
C2165 H2155 0.929 . S
C2165 C2163 1.433 . S
C2165 N2168 1.384 . S
C2166 H2157 0.929 . S
C2166 C2158 1.378 . S
C2166 C2161 1.350 . S
C2167 H2154 0.929 . S
C2167 C2159 1.433 . S
C2167 N2169 1.384 . S
N2168 C2164 1.427 . S
N2168 C2165 1.384 . S
N2169 C2161 1.427 . S
N2169 C2167 1.384 . S
H2170 C2176 0.930 . S
H2171 C2180 0.930 . S
H2172 C2185 0.929 . S
H2173 C2183 0.929 . S
H2174 C2178 0.929 . S
H2175 C2184 0.929 . S
C2176 H2170 0.930 . S
C2176 C2177 1.367 . S
C2176 C2184 1.378 . S
C2177 C2176 1.367 . S
C2177 C2185 1.433 . S
C2178 H2174 0.929 . S
C2178 C2180 1.378 . S
C2178 C2182 1.350 . S
C2179 C2182 1.463 . S
C2179 C2184 1.350 . S
C2179 N2187 1.427 . S
C2180 H2171 0.930 . S
C2180 C2178 1.378 . S
C2180 C2181 1.367 . S
C2181 C2180 1.367 . S
C2181 C2183 1.433 . S
C2182 C2178 1.350 . S
C2182 C2179 1.463 . S
C2182 N2186 1.427 . S
C2183 H2173 0.929 . S
C2183 C2181 1.433 . S
C2183 N2186 1.384 . S
C2184 H2175 0.929 . S
C2184 C2176 1.378 . S
C2184 C2179 1.350 . S
C2185 H2172 0.929 . S
C2185 C2177 1.433 . S
C2185 N2187 1.384 . S
N2186 C2182 1.427 . S
N2186 C2183 1.384 . S
N2187 C2179 1.427 . S
N2187 C2185 1.384 . S
H2188 C2194 0.930 . S
H2189 C2198 0.930 . S
H2190 C2203 0.929 . S
H2191 C2201 0.929 . S
H2192 C2196 0.929 . S
H2193 C2202 0.929 . S
C2194 H2188 0.930 . S
C2194 C2195 1.367 . S
C2194 C2202 1.378 . S
C2195 C2194 1.367 . S
C2195 C2203 1.433 . S
C2196 H2192 0.929 . S
C2196 C2198 1.378 . S
C2196 C2200 1.350 . S
C2197 C2200 1.463 . S
C2197 C2202 1.350 . S
C2197 N2205 1.427 . S
C2198 H2189 0.930 . S
C2198 C2196 1.378 . S
C2198 C2199 1.367 . S
C2199 C2198 1.367 . S
C2199 C2201 1.433 . S
C2200 C2196 1.350 . S
C2200 C2197 1.463 . S
C2200 N2204 1.427 . S
C2201 H2191 0.929 . S
C2201 C2199 1.433 . S
C2201 N2204 1.384 . S
C2202 H2193 0.929 . S
C2202 C2194 1.378 . S
C2202 C2197 1.350 . S
C2203 H2190 0.929 . S
C2203 C2195 1.433 . S
C2203 N2205 1.384 . S
N2204 C2200 1.427 . S
N2204 C2201 1.384 . S
N2205 C2197 1.427 . S
N2205 C2203 1.384 . S
H2206 C2212 0.930 . S
H2207 C2216 0.930 . S
H2208 C2221 0.929 . S
H2209 C2219 0.929 . S
H2210 C2214 0.929 . S
H2211 C2220 0.929 . S
C2212 H2206 0.930 . S
C2212 C2213 1.367 . S
C2212 C2220 1.378 . S
C2213 C2212 1.367 . S
C2213 C2221 1.433 . S
C2214 H2210 0.929 . S
C2214 C2216 1.378 . S
C2214 C2218 1.350 . S
C2215 C2218 1.463 . S
C2215 C2220 1.350 . S
C2215 N2223 1.427 . S
C2216 H2207 0.930 . S
C2216 C2214 1.378 . S
C2216 C2217 1.367 . S
C2217 C2216 1.367 . S
C2217 C2219 1.433 . S
C2218 C2214 1.350 . S
C2218 C2215 1.463 . S
C2218 N2222 1.427 . S
C2219 H2209 0.929 . S
C2219 C2217 1.433 . S
C2219 N2222 1.384 . S
C2220 H2211 0.929 . S
C2220 C2212 1.378 . S
C2220 C2215 1.350 . S
C2221 H2208 0.929 . S
C2221 C2213 1.433 . S
C2221 N2223 1.384 . S
N2222 C2218 1.427 . S
N2222 C2219 1.384 . S
N2223 C2215 1.427 . S
N2223 C2221 1.384 . S
H2224 C2230 0.930 . S
H2225 C2234 0.930 . S
H2226 C2239 0.929 . S
H2227 C2237 0.929 . S
H2228 C2232 0.929 1_554 S
H2229 C2238 0.929 . S
C2230 H2224 0.930 . S
C2230 C2231 1.367 . S
C2230 C2238 1.378 . S
C2231 C2230 1.367 . S
C2231 C2239 1.433 1_556 S
C2232 H2228 0.929 1_556 S
C2232 C2234 1.378 . S
C2232 C2236 1.350 . S
C2233 C2236 1.463 . S
C2233 C2238 1.350 . S
C2233 N2241 1.427 1_556 S
C2234 H2225 0.930 . S
C2234 C2232 1.378 . S
C2234 C2235 1.367 . S
C2235 C2234 1.367 . S
C2235 C2237 1.433 . S
C2236 C2232 1.350 . S
C2236 C2233 1.463 . S
C2236 N2240 1.427 . S
C2237 H2227 0.929 . S
C2237 C2235 1.433 . S
C2237 N2240 1.384 . S
C2238 H2229 0.929 . S
C2238 C2230 1.378 . S
C2238 C2233 1.350 . S
C2239 H2226 0.929 . S
C2239 C2231 1.433 1_554 S
C2239 N2241 1.384 . S
N2240 C2236 1.427 . S
N2240 C2237 1.384 . S
N2241 C2233 1.427 1_554 S
N2241 C2239 1.384 . S
H2242 C2248 0.930 . S
H2243 C2252 0.930 . S
H2244 C2257 0.929 . S
H2245 C2255 0.929 . S
H2246 C2250 0.929 . S
H2247 C2256 0.929 . S
C2248 H2242 0.930 . S
C2248 C2249 1.367 . S
C2248 C2256 1.378 . S
C2249 C2248 1.367 . S
C2249 C2257 1.433 . S
C2250 H2246 0.929 . S
C2250 C2252 1.378 . S
C2250 C2254 1.350 . S
C2251 C2254 1.463 . S
C2251 C2256 1.350 . S
C2251 N2259 1.427 . S
C2252 H2243 0.930 . S
C2252 C2250 1.378 . S
C2252 C2253 1.367 . S
C2253 C2252 1.367 . S
C2253 C2255 1.433 . S
C2254 C2250 1.350 . S
C2254 C2251 1.463 . S
C2254 N2258 1.427 . S
C2255 H2245 0.929 . S
C2255 C2253 1.433 . S
C2255 N2258 1.384 . S
C2256 H2247 0.929 . S
C2256 C2248 1.378 . S
C2256 C2251 1.350 . S
C2257 H2244 0.929 . S
C2257 C2249 1.433 . S
C2257 N2259 1.384 . S
N2258 C2254 1.427 . S
N2258 C2255 1.384 . S
N2259 C2251 1.427 . S
N2259 C2257 1.384 . S
H2260 C2266 0.930 . S
H2261 C2270 0.930 . S
H2262 C2275 0.929 . S
H2263 C2273 0.929 . S
H2264 C2268 0.929 . S
H2265 C2274 0.929 . S
C2266 H2260 0.930 . S
C2266 C2267 1.367 . S
C2266 C2274 1.378 . S
C2267 C2266 1.367 . S
C2267 C2275 1.433 . S
C2268 H2264 0.929 . S
C2268 C2270 1.378 . S
C2268 C2272 1.350 . S
C2269 C2272 1.463 . S
C2269 C2274 1.350 . S
C2269 N2277 1.427 . S
C2270 H2261 0.930 . S
C2270 C2268 1.378 . S
C2270 C2271 1.367 . S
C2271 C2270 1.367 . S
C2271 C2273 1.433 . S
C2272 C2268 1.350 . S
C2272 C2269 1.463 . S
C2272 N2276 1.427 . S
C2273 H2263 0.929 . S
C2273 C2271 1.433 . S
C2273 N2276 1.384 . S
C2274 H2265 0.929 . S
C2274 C2266 1.378 . S
C2274 C2269 1.350 . S
C2275 H2262 0.929 . S
C2275 C2267 1.433 . S
C2275 N2277 1.384 . S
N2276 C2272 1.427 . S
N2276 C2273 1.384 . S
N2277 C2269 1.427 . S
N2277 C2275 1.384 . S
H2278 C2284 0.930 . S
H2279 C2288 0.930 . S
H2280 C2293 0.929 . S
H2281 C2291 0.929 . S
H2282 C2286 0.929 . S
H2283 C2292 0.929 . S
C2284 H2278 0.930 . S
C2284 C2285 1.367 . S
C2284 C2292 1.378 . S
C2285 C2284 1.367 . S
C2285 C2293 1.433 . S
C2286 H2282 0.929 . S
C2286 C2288 1.378 . S
C2286 C2290 1.350 . S
C2287 C2290 1.463 . S
C2287 C2292 1.350 . S
C2287 N2295 1.427 . S
C2288 H2279 0.930 . S
C2288 C2286 1.378 . S
C2288 C2289 1.367 . S
C2289 C2288 1.367 . S
C2289 C2291 1.433 . S
C2290 C2286 1.350 . S
C2290 C2287 1.463 . S
C2290 N2294 1.427 . S
C2291 H2281 0.929 . S
C2291 C2289 1.433 . S
C2291 N2294 1.384 . S
C2292 H2283 0.929 . S
C2292 C2284 1.378 . S
C2292 C2287 1.350 . S
C2293 H2280 0.929 . S
C2293 C2285 1.433 . S
C2293 N2295 1.384 . S
N2294 C2290 1.427 . S
N2294 C2291 1.384 . S
N2295 C2287 1.427 . S
N2295 C2293 1.384 . S
H2296 C2302 0.930 . S
H2297 C2306 0.930 . S
H2298 C2311 0.929 . S
H2299 C2309 0.929 . S
H2300 C2304 0.929 . S
H2301 C2310 0.929 . S
C2302 H2296 0.930 . S
C2302 C2303 1.367 . S
C2302 C2310 1.378 . S
C2303 C2302 1.367 . S
C2303 C2311 1.433 . S
C2304 H2300 0.929 . S
C2304 C2306 1.378 . S
C2304 C2308 1.350 . S
C2305 C2308 1.463 . S
C2305 C2310 1.350 . S
C2305 N2313 1.427 . S
C2306 H2297 0.930 . S
C2306 C2304 1.378 . S
C2306 C2307 1.367 . S
C2307 C2306 1.367 . S
C2307 C2309 1.433 . S
C2308 C2304 1.350 . S
C2308 C2305 1.463 . S
C2308 N2312 1.427 . S
C2309 H2299 0.929 . S
C2309 C2307 1.433 . S
C2309 N2312 1.384 . S
C2310 H2301 0.929 . S
C2310 C2302 1.378 . S
C2310 C2305 1.350 . S
C2311 H2298 0.929 . S
C2311 C2303 1.433 . S
C2311 N2313 1.384 . S
N2312 C2308 1.427 . S
N2312 C2309 1.384 . S
N2313 C2305 1.427 . S
N2313 C2311 1.384 . S
H2314 C2320 0.930 . S
H2315 C2324 0.930 . S
H2316 C2329 0.929 . S
H2317 C2327 0.929 . S
H2318 C2322 0.929 . S
H2319 C2328 0.929 1_545 S
C2320 H2314 0.930 . S
C2320 C2321 1.367 . S
C2320 C2328 1.378 . S
C2321 C2320 1.367 . S
C2321 C2329 1.433 . S
C2322 H2318 0.929 . S
C2322 C2324 1.378 . S
C2322 C2326 1.350 . S
C2323 C2326 1.463 . S
C2323 C2328 1.350 . S
C2323 N2331 1.427 . S
C2324 H2315 0.930 . S
C2324 C2322 1.378 . S
C2324 C2325 1.367 1_565 S
C2325 C2324 1.367 1_545 S
C2325 C2327 1.433 . S
C2326 C2322 1.350 . S
C2326 C2323 1.463 . S
C2326 N2330 1.427 1_565 S
C2327 H2317 0.929 . S
C2327 C2325 1.433 . S
C2327 N2330 1.384 . S
C2328 H2319 0.929 1_565 S
C2328 C2320 1.378 . S
C2328 C2323 1.350 . S
C2329 H2316 0.929 . S
C2329 C2321 1.433 . S
C2329 N2331 1.384 . S
N2330 C2326 1.427 1_545 S
N2330 C2327 1.384 . S
N2331 C2323 1.427 . S
N2331 C2329 1.384 . S
H2332 C2338 0.930 . S
H2333 C2342 0.930 . S
H2334 C2347 0.929 . S
H2335 C2345 0.929 . S
H2336 C2340 0.929 . S
H2337 C2346 0.929 . S
C2338 H2332 0.930 . S
C2338 C2339 1.367 . S
C2338 C2346 1.378 . S
C2339 C2338 1.367 . S
C2339 C2347 1.433 . S
C2340 H2336 0.929 . S
C2340 C2342 1.378 . S
C2340 C2344 1.350 . S
C2341 C2344 1.463 . S
C2341 C2346 1.350 . S
C2341 N2349 1.427 . S
C2342 H2333 0.930 . S
C2342 C2340 1.378 . S
C2342 C2343 1.367 . S
C2343 C2342 1.367 . S
C2343 C2345 1.433 . S
C2344 C2340 1.350 . S
C2344 C2341 1.463 . S
C2344 N2348 1.427 . S
C2345 H2335 0.929 . S
C2345 C2343 1.433 . S
C2345 N2348 1.384 . S
C2346 H2337 0.929 . S
C2346 C2338 1.378 . S
C2346 C2341 1.350 . S
C2347 H2334 0.929 . S
C2347 C2339 1.433 . S
C2347 N2349 1.384 . S
N2348 C2344 1.427 . S
N2348 C2345 1.384 . S
N2349 C2341 1.427 . S
N2349 C2347 1.384 . S
H2350 C2356 0.930 . S
H2351 C2360 0.930 . S
H2352 C2365 0.929 . S
H2353 C2363 0.929 . S
H2354 C2358 0.929 . S
H2355 C2364 0.929 . S
C2356 H2350 0.930 . S
C2356 C2357 1.367 . S
C2356 C2364 1.378 . S
C2357 C2356 1.367 . S
C2357 C2365 1.433 . S
C2358 H2354 0.929 . S
C2358 C2360 1.378 . S
C2358 C2362 1.350 . S
C2359 C2362 1.463 . S
C2359 C2364 1.350 . S
C2359 N2367 1.427 . S
C2360 H2351 0.930 . S
C2360 C2358 1.378 . S
C2360 C2361 1.367 . S
C2361 C2360 1.367 . S
C2361 C2363 1.433 . S
C2362 C2358 1.350 . S
C2362 C2359 1.463 . S
C2362 N2366 1.427 . S
C2363 H2353 0.929 . S
C2363 C2361 1.433 . S
C2363 N2366 1.384 . S
C2364 H2355 0.929 . S
C2364 C2356 1.378 . S
C2364 C2359 1.350 . S
C2365 H2352 0.929 . S
C2365 C2357 1.433 . S
C2365 N2367 1.384 . S
N2366 C2362 1.427 . S
N2366 C2363 1.384 . S
N2367 C2359 1.427 . S
N2367 C2365 1.384 . S
H2368 C2374 0.930 . S
H2369 C2378 0.930 . S
H2370 C2383 0.929 . S
H2371 C2381 0.929 . S
H2372 C2376 0.929 . S
H2373 C2382 0.929 . S
C2374 H2368 0.930 . S
C2374 C2375 1.367 . S
C2374 C2382 1.378 . S
C2375 C2374 1.367 . S
C2375 C2383 1.433 . S
C2376 H2372 0.929 . S
C2376 C2378 1.378 . S
C2376 C2380 1.350 . S
C2377 C2380 1.463 . S
C2377 C2382 1.350 . S
C2377 N2385 1.427 . S
C2378 H2369 0.930 . S
C2378 C2376 1.378 . S
C2378 C2379 1.367 . S
C2379 C2378 1.367 . S
C2379 C2381 1.433 . S
C2380 C2376 1.350 . S
C2380 C2377 1.463 . S
C2380 N2384 1.427 . S
C2381 H2371 0.929 . S
C2381 C2379 1.433 . S
C2381 N2384 1.384 . S
C2382 H2373 0.929 . S
C2382 C2374 1.378 . S
C2382 C2377 1.350 . S
C2383 H2370 0.929 . S
C2383 C2375 1.433 . S
C2383 N2385 1.384 . S
N2384 C2380 1.427 . S
N2384 C2381 1.384 . S
N2385 C2377 1.427 . S
N2385 C2383 1.384 . S
H2386 C2392 0.930 . S
H2387 C2396 0.930 . S
H2388 C2401 0.929 . S
H2389 C2399 0.929 . S
H2390 C2394 0.929 . S
H2391 C2400 0.929 . S
C2392 H2386 0.930 . S
C2392 C2393 1.367 . S
C2392 C2400 1.378 . S
C2393 C2392 1.367 . S
C2393 C2401 1.433 . S
C2394 H2390 0.929 . S
C2394 C2396 1.378 . S
C2394 C2398 1.350 . S
C2395 C2398 1.463 . S
C2395 C2400 1.350 . S
C2395 N2403 1.427 . S
C2396 H2387 0.930 . S
C2396 C2394 1.378 . S
C2396 C2397 1.367 . S
C2397 C2396 1.367 . S
C2397 C2399 1.433 . S
C2398 C2394 1.350 . S
C2398 C2395 1.463 . S
C2398 N2402 1.427 . S
C2399 H2389 0.929 . S
C2399 C2397 1.433 . S
C2399 N2402 1.384 . S
C2400 H2391 0.929 . S
C2400 C2392 1.378 . S
C2400 C2395 1.350 . S
C2401 H2388 0.929 . S
C2401 C2393 1.433 . S
C2401 N2403 1.384 . S
N2402 C2398 1.427 . S
N2402 C2399 1.384 . S
N2403 C2395 1.427 . S
N2403 C2401 1.384 . S
H2404 C2410 0.930 . S
H2405 C2414 0.930 . S
H2406 C2419 0.929 . S
H2407 C2417 0.929 . S
H2408 C2412 0.923 1_554 S
H2409 C2418 0.929 . S
C2410 H2404 0.930 . S
C2410 C2411 1.367 . S
C2410 C2418 1.378 . S
C2411 C2410 1.367 . S
C2411 C2419 1.433 . S
C2412 H2408 0.923 1_556 S
C2412 C2414 1.378 1_556 S
C2412 C2416 1.350 . S
C2413 C2416 1.463 . S
C2413 C2418 1.350 . S
C2413 N2421 1.427 . S
C2414 H2405 0.930 . S
C2414 C2412 1.378 1_554 S
C2414 C2415 1.356 1_554 S
C2415 C2414 1.356 1_556 S
C2415 C2417 1.461 . S
C2416 C2412 1.350 . S
C2416 C2413 1.463 . S
C2416 N2420 1.427 . S
C2417 H2407 0.929 . S
C2417 C2415 1.461 . S
C2417 N2420 1.384 . S
C2418 H2409 0.929 . S
C2418 C2410 1.378 . S
C2418 C2413 1.350 . S
C2419 H2406 0.929 . S
C2419 C2411 1.433 . S
C2419 N2421 1.384 . S
N2420 C2416 1.427 . S
N2420 C2417 1.384 . S
N2421 C2413 1.427 . S
N2421 C2419 1.384 . S
H2422 C2428 0.930 . S
H2423 C2432 0.930 . S
H2424 C2437 0.929 . S
H2425 C2435 0.929 . S
H2426 C2430 0.929 . S
H2427 C2436 0.929 . S
C2428 H2422 0.930 . S
C2428 C2429 1.367 . S
C2428 C2436 1.378 1_455 S
C2429 C2428 1.367 . S
C2429 C2437 1.433 1_455 S
C2430 H2426 0.929 . S
C2430 C2432 1.378 . S
C2430 C2434 1.350 . S
C2431 C2434 1.463 . S
C2431 C2436 1.350 . S
C2431 N2439 1.427 . S
C2432 H2423 0.930 . S
C2432 C2430 1.378 . S
C2432 C2433 1.367 . S
C2433 C2432 1.367 . S
C2433 C2435 1.433 . S
C2434 C2430 1.350 . S
C2434 C2431 1.463 . S
C2434 N2438 1.427 . S
C2435 H2425 0.929 . S
C2435 C2433 1.433 . S
C2435 N2438 1.384 . S
C2436 H2427 0.929 . S
C2436 C2428 1.378 1_655 S
C2436 C2431 1.350 . S
C2437 H2424 0.929 . S
C2437 C2429 1.433 1_655 S
C2437 N2439 1.384 . S
N2438 C2434 1.427 . S
N2438 C2435 1.384 . S
N2439 C2431 1.427 . S
N2439 C2437 1.384 . S
H2440 C2446 0.930 . S
H2441 C2450 0.930 . S
H2442 C2455 0.929 . S
H2443 C2453 0.929 . S
H2444 C2448 0.929 . S
H2445 C2454 0.929 . S
C2446 H2440 0.930 . S
C2446 C2447 1.367 . S
C2446 C2454 1.378 . S
C2447 C2446 1.367 . S
C2447 C2455 1.433 . S
C2448 H2444 0.929 . S
C2448 C2450 1.378 . S
C2448 C2452 1.350 . S
C2449 C2452 1.463 . S
C2449 C2454 1.350 . S
C2449 N2457 1.427 . S
C2450 H2441 0.930 . S
C2450 C2448 1.378 . S
C2450 C2451 1.367 . S
C2451 C2450 1.367 . S
C2451 C2453 1.433 . S
C2452 C2448 1.350 . S
C2452 C2449 1.463 . S
C2452 N2456 1.427 . S
C2453 H2443 0.929 . S
C2453 C2451 1.433 . S
C2453 N2456 1.384 . S
C2454 H2445 0.929 . S
C2454 C2446 1.378 . S
C2454 C2449 1.350 . S
C2455 H2442 0.929 . S
C2455 C2447 1.433 . S
C2455 N2457 1.384 . S
N2456 C2452 1.427 . S
N2456 C2453 1.384 . S
N2457 C2449 1.427 . S
N2457 C2455 1.384 . S
H2458 C2464 0.930 . S
H2459 C2468 0.930 . S
H2460 C2473 0.929 . S
H2461 C2471 0.929 . S
H2462 C2466 0.929 . S
H2463 C2472 0.929 . S
C2464 H2458 0.930 . S
C2464 C2465 1.367 . S
C2464 C2472 1.378 . S
C2465 C2464 1.367 . S
C2465 C2473 1.433 . S
C2466 H2462 0.929 . S
C2466 C2468 1.378 . S
C2466 C2470 1.350 . S
C2467 C2470 1.463 . S
C2467 C2472 1.350 . S
C2467 N2475 1.427 . S
C2468 H2459 0.930 . S
C2468 C2466 1.378 . S
C2468 C2469 1.367 . S
C2469 C2468 1.367 . S
C2469 C2471 1.433 . S
C2470 C2466 1.350 . S
C2470 C2467 1.463 . S
C2470 N2474 1.427 . S
C2471 H2461 0.929 . S
C2471 C2469 1.433 . S
C2471 N2474 1.384 . S
C2472 H2463 0.929 . S
C2472 C2464 1.378 . S
C2472 C2467 1.350 . S
C2473 H2460 0.929 . S
C2473 C2465 1.433 . S
C2473 N2475 1.384 . S
N2474 C2470 1.427 . S
N2474 C2471 1.384 . S
N2475 C2467 1.427 . S
N2475 C2473 1.384 . S
H2476 C2482 0.930 . S
H2477 C2486 0.930 . S
H2478 C2491 0.929 . S
H2479 C2489 0.929 . S
H2480 C2484 0.929 . S
H2481 C2490 0.929 . S
C2482 H2476 0.930 . S
C2482 C2483 1.367 . S
C2482 C2490 1.378 . S
C2483 C2482 1.367 . S
C2483 C2491 1.433 . S
C2484 H2480 0.929 . S
C2484 C2486 1.378 . S
C2484 C2488 1.350 . S
C2485 C2488 1.463 . S
C2485 C2490 1.350 . S
C2485 N2493 1.427 . S
C2486 H2477 0.930 . S
C2486 C2484 1.378 . S
C2486 C2487 1.367 . S
C2487 C2486 1.367 . S
C2487 C2489 1.433 . S
C2488 C2484 1.350 . S
C2488 C2485 1.463 . S
C2488 N2492 1.427 . S
C2489 H2479 0.929 . S
C2489 C2487 1.433 . S
C2489 N2492 1.384 . S
C2490 H2481 0.929 . S
C2490 C2482 1.378 . S
C2490 C2485 1.350 . S
C2491 H2478 0.929 . S
C2491 C2483 1.433 . S
C2491 N2493 1.384 . S
N2492 C2488 1.427 . S
N2492 C2489 1.384 . S
N2493 C2485 1.427 . S
N2493 C2491 1.384 . S
H2494 C2500 0.930 . S
H2495 C2504 0.930 . S
H2496 C2509 0.929 . S
H2497 C2507 0.929 . S
H2498 C2502 0.929 . S
H2499 C2508 0.929 . S
C2500 H2494 0.930 . S
C2500 C2501 1.367 . S
C2500 C2508 1.378 . S
C2501 C2500 1.367 . S
C2501 C2509 1.433 . S
C2502 H2498 0.929 . S
C2502 C2504 1.378 . S
C2502 C2506 1.350 . S
C2503 C2506 1.463 . S
C2503 C2508 1.350 . S
C2503 N2511 1.427 . S
C2504 H2495 0.930 . S
C2504 C2502 1.378 . S
C2504 C2505 1.367 . S
C2505 C2504 1.367 . S
C2505 C2507 1.433 . S
C2506 C2502 1.350 . S
C2506 C2503 1.463 . S
C2506 N2510 1.427 . S
C2507 H2497 0.929 . S
C2507 C2505 1.433 . S
C2507 N2510 1.384 . S
C2508 H2499 0.929 . S
C2508 C2500 1.378 . S
C2508 C2503 1.350 . S
C2509 H2496 0.929 . S
C2509 C2501 1.433 . S
C2509 N2511 1.384 . S
N2510 C2506 1.427 . S
N2510 C2507 1.384 . S
N2511 C2503 1.427 . S
N2511 C2509 1.384 . S
H2512 C2518 0.930 . S
H2513 C2522 0.930 . S
H2514 C2527 0.929 . S
H2515 C2525 0.929 . S
H2516 C2520 0.929 . S
H2517 C2526 0.929 . S
C2518 H2512 0.930 . S
C2518 C2519 1.367 . S
C2518 C2526 1.378 . S
C2519 C2518 1.367 . S
C2519 C2527 1.433 . S
C2520 H2516 0.929 . S
C2520 C2522 1.378 . S
C2520 C2524 1.350 . S
C2521 C2524 1.463 . S
C2521 C2526 1.350 . S
C2521 N2529 1.427 . S
C2522 H2513 0.930 . S
C2522 C2520 1.378 . S
C2522 C2523 1.367 . S
C2523 C2522 1.367 . S
C2523 C2525 1.433 . S
C2524 C2520 1.350 . S
C2524 C2521 1.463 . S
C2524 N2528 1.427 . S
C2525 H2515 0.929 . S
C2525 C2523 1.433 . S
C2525 N2528 1.384 . S
C2526 H2517 0.929 . S
C2526 C2518 1.378 . S
C2526 C2521 1.350 . S
C2527 H2514 0.929 . S
C2527 C2519 1.433 . S
C2527 N2529 1.384 . S
N2528 C2524 1.427 . S
N2528 C2525 1.384 . S
N2529 C2521 1.427 . S
N2529 C2527 1.384 . S
H2530 C2536 0.930 . S
H2531 C2540 0.930 . S
H2532 C2545 0.929 . S
H2533 C2543 0.929 . S
H2534 C2538 0.929 . S
H2535 C2544 0.929 . S
C2536 H2530 0.930 . S
C2536 C2537 1.367 . S
C2536 C2544 1.378 . S
C2537 C2536 1.367 . S
C2537 C2545 1.433 . S
C2538 H2534 0.929 . S
C2538 C2540 1.378 . S
C2538 C2542 1.350 . S
C2539 C2542 1.463 . S
C2539 C2544 1.350 . S
C2539 N2547 1.427 . S
C2540 H2531 0.930 . S
C2540 C2538 1.378 . S
C2540 C2541 1.367 . S
C2541 C2540 1.367 . S
C2541 C2543 1.433 . S
C2542 C2538 1.350 . S
C2542 C2539 1.463 . S
C2542 N2546 1.427 . S
C2543 H2533 0.929 . S
C2543 C2541 1.433 . S
C2543 N2546 1.384 . S
C2544 H2535 0.929 . S
C2544 C2536 1.378 . S
C2544 C2539 1.350 . S
C2545 H2532 0.929 . S
C2545 C2537 1.433 . S
C2545 N2547 1.384 . S
N2546 C2542 1.427 . S
N2546 C2543 1.384 . S
N2547 C2539 1.427 . S
N2547 C2545 1.384 . S
H2548 C2554 0.930 . S
H2549 C2558 0.930 . S
H2550 C2563 0.929 . S
H2551 C2561 0.929 . S
H2552 C2556 0.929 . S
H2553 C2562 0.929 . S
C2554 H2548 0.930 . S
C2554 C2555 1.367 . S
C2554 C2562 1.378 . S
C2555 C2554 1.367 . S
C2555 C2563 1.433 . S
C2556 H2552 0.929 . S
C2556 C2558 1.378 . S
C2556 C2560 1.350 . S
C2557 C2560 1.463 . S
C2557 C2562 1.350 . S
C2557 N2565 1.427 . S
C2558 H2549 0.930 . S
C2558 C2556 1.378 . S
C2558 C2559 1.367 . S
C2559 C2558 1.367 . S
C2559 C2561 1.433 . S
C2560 C2556 1.350 . S
C2560 C2557 1.463 . S
C2560 N2564 1.427 . S
C2561 H2551 0.929 . S
C2561 C2559 1.433 . S
C2561 N2564 1.384 . S
C2562 H2553 0.929 . S
C2562 C2554 1.378 . S
C2562 C2557 1.350 . S
C2563 H2550 0.929 . S
C2563 C2555 1.433 . S
C2563 N2565 1.384 . S
N2564 C2560 1.427 . S
N2564 C2561 1.384 . S
N2565 C2557 1.427 . S
N2565 C2563 1.384 . S
H2566 C2572 0.930 . S
H2567 C2576 0.930 . S
H2568 C2581 0.929 . S
H2569 C2579 0.929 . S
H2570 C2574 0.929 . S
H2571 C2580 0.929 . S
C2572 H2566 0.930 . S
C2572 C2573 1.367 . S
C2572 C2580 1.378 . S
C2573 C2572 1.367 . S
C2573 C2581 1.433 . S
C2574 H2570 0.929 . S
C2574 C2576 1.378 . S
C2574 C2578 1.350 . S
C2575 C2578 1.463 . S
C2575 C2580 1.350 . S
C2575 N2583 1.427 . S
C2576 H2567 0.930 . S
C2576 C2574 1.378 . S
C2576 C2577 1.367 . S
C2577 C2576 1.367 . S
C2577 C2579 1.433 . S
C2578 C2574 1.350 . S
C2578 C2575 1.463 . S
C2578 N2582 1.427 . S
C2579 H2569 0.929 . S
C2579 C2577 1.433 . S
C2579 N2582 1.384 . S
C2580 H2571 0.929 . S
C2580 C2572 1.378 . S
C2580 C2575 1.350 . S
C2581 H2568 0.929 . S
C2581 C2573 1.433 . S
C2581 N2583 1.384 . S
N2582 C2578 1.427 . S
N2582 C2579 1.384 . S
N2583 C2575 1.427 . S
N2583 C2581 1.384 . S
H2584 C2590 0.930 . S
H2585 C2594 0.930 . S
H2586 C2599 0.929 . S
H2587 C2597 0.929 . S
H2588 C2592 0.929 . S
H2589 C2598 0.929 . S
C2590 H2584 0.930 . S
C2590 C2591 1.367 . S
C2590 C2598 1.378 . S
C2591 C2590 1.367 . S
C2591 C2599 1.433 . S
C2592 H2588 0.929 . S
C2592 C2594 1.378 . S
C2592 C2596 1.350 . S
C2593 C2596 1.463 . S
C2593 C2598 1.350 . S
C2593 N2601 1.427 . S
C2594 H2585 0.930 . S
C2594 C2592 1.378 . S
C2594 C2595 1.367 . S
C2595 C2594 1.367 . S
C2595 C2597 1.433 . S
C2596 C2592 1.350 . S
C2596 C2593 1.463 . S
C2596 N2600 1.427 . S
C2597 H2587 0.929 . S
C2597 C2595 1.433 . S
C2597 N2600 1.384 . S
C2598 H2589 0.929 . S
C2598 C2590 1.378 . S
C2598 C2593 1.350 . S
C2599 H2586 0.929 . S
C2599 C2591 1.433 . S
C2599 N2601 1.384 . S
N2600 C2596 1.427 . S
N2600 C2597 1.384 . S
N2601 C2593 1.427 . S
N2601 C2599 1.384 . S
H2602 C2608 0.930 . S
H2603 C2612 0.930 . S
H2604 C2617 0.929 . S
H2605 C2615 0.929 . S
H2606 C2610 0.929 . S
H2607 C2616 0.929 . S
C2608 H2602 0.930 . S
C2608 C2609 1.367 . S
C2608 C2616 1.378 . S
C2609 C2608 1.367 . S
C2609 C2617 1.433 . S
C2610 H2606 0.929 . S
C2610 C2612 1.378 . S
C2610 C2614 1.350 . S
C2611 C2614 1.463 . S
C2611 C2616 1.350 . S
C2611 N2619 1.427 . S
C2612 H2603 0.930 . S
C2612 C2610 1.378 . S
C2612 C2613 1.367 . S
C2613 C2612 1.367 . S
C2613 C2615 1.433 . S
C2614 C2610 1.350 . S
C2614 C2611 1.463 . S
C2614 N2618 1.427 . S
C2615 H2605 0.929 . S
C2615 C2613 1.433 . S
C2615 N2618 1.384 . S
C2616 H2607 0.929 . S
C2616 C2608 1.378 . S
C2616 C2611 1.350 . S
C2617 H2604 0.929 . S
C2617 C2609 1.433 . S
C2617 N2619 1.384 . S
N2618 C2614 1.427 . S
N2618 C2615 1.384 . S
N2619 C2611 1.427 . S
N2619 C2617 1.384 . S
H2620 C2626 0.930 . S
H2621 C2630 0.930 . S
H2622 C2635 0.929 . S
H2623 C2633 0.929 . S
H2624 C2628 0.929 . S
H2625 C2634 0.929 . S
C2626 H2620 0.930 . S
C2626 C2627 1.367 . S
C2626 C2634 1.378 . S
C2627 C2626 1.367 . S
C2627 C2635 1.433 . S
C2628 H2624 0.929 . S
C2628 C2630 1.378 . S
C2628 C2632 1.350 . S
C2629 C2632 1.463 . S
C2629 C2634 1.350 . S
C2629 N2637 1.427 . S
C2630 H2621 0.930 . S
C2630 C2628 1.378 . S
C2630 C2631 1.367 . S
C2631 C2630 1.367 . S
C2631 C2633 1.433 . S
C2632 C2628 1.350 . S
C2632 C2629 1.463 . S
C2632 N2636 1.427 . S
C2633 H2623 0.929 . S
C2633 C2631 1.433 . S
C2633 N2636 1.384 . S
C2634 H2625 0.929 . S
C2634 C2626 1.378 . S
C2634 C2629 1.350 . S
C2635 H2622 0.929 . S
C2635 C2627 1.433 . S
C2635 N2637 1.384 . S
N2636 C2632 1.427 . S
N2636 C2633 1.384 . S
N2637 C2629 1.427 . S
N2637 C2635 1.384 . S
H2638 C2644 0.930 . S
H2639 C2648 0.930 . S
H2640 C2653 0.929 . S
H2641 C2651 0.929 . S
H2642 C2646 0.929 . S
H2643 C2652 0.929 . S
C2644 H2638 0.930 . S
C2644 C2645 1.367 . S
C2644 C2652 1.378 . S
C2645 C2644 1.367 . S
C2645 C2653 1.433 . S
C2646 H2642 0.929 . S
C2646 C2648 1.378 . S
C2646 C2650 1.350 . S
C2647 C2650 1.463 . S
C2647 C2652 1.350 . S
C2647 N2655 1.427 . S
C2648 H2639 0.930 . S
C2648 C2646 1.378 . S
C2648 C2649 1.367 . S
C2649 C2648 1.367 . S
C2649 C2651 1.433 . S
C2650 C2646 1.350 . S
C2650 C2647 1.463 . S
C2650 N2654 1.427 . S
C2651 H2641 0.929 . S
C2651 C2649 1.433 . S
C2651 N2654 1.384 . S
C2652 H2643 0.929 . S
C2652 C2644 1.378 . S
C2652 C2647 1.350 . S
C2653 H2640 0.929 . S
C2653 C2645 1.433 . S
C2653 N2655 1.384 . S
N2654 C2650 1.427 . S
N2654 C2651 1.384 . S
N2655 C2647 1.427 . S
N2655 C2653 1.384 . S
H2656 C2662 0.930 . S
H2657 C2666 0.930 . S
H2658 C2671 0.929 . S
H2659 C2669 0.929 . S
H2660 C2664 0.929 . S
H2661 C2670 0.929 . S
C2662 H2656 0.930 . S
C2662 C2663 1.367 . S
C2662 C2670 1.378 . S
C2663 C2662 1.367 . S
C2663 C2671 1.433 . S
C2664 H2660 0.929 . S
C2664 C2666 1.378 . S
C2664 C2668 1.350 . S
C2665 C2668 1.463 . S
C2665 C2670 1.350 . S
C2665 N2673 1.427 . S
C2666 H2657 0.930 . S
C2666 C2664 1.378 . S
C2666 C2667 1.367 . S
C2667 C2666 1.367 . S
C2667 C2669 1.433 . S
C2668 C2664 1.350 . S
C2668 C2665 1.463 . S
C2668 N2672 1.427 . S
C2669 H2659 0.929 . S
C2669 C2667 1.433 . S
C2669 N2672 1.384 . S
C2670 H2661 0.929 . S
C2670 C2662 1.378 . S
C2670 C2665 1.350 . S
C2671 H2658 0.929 . S
C2671 C2663 1.433 . S
C2671 N2673 1.384 . S
N2672 C2668 1.427 . S
N2672 C2669 1.384 . S
N2673 C2665 1.427 . S
N2673 C2671 1.384 . S
H2674 C2680 0.930 . S
H2675 C2684 0.930 . S
H2676 C2689 0.929 . S
H2677 C2687 0.929 . S
H2678 C2682 0.929 . S
H2679 C2688 0.929 . S
C2680 H2674 0.930 . S
C2680 C2681 1.367 . S
C2680 C2688 1.378 . S
C2681 C2680 1.367 . S
C2681 C2689 1.433 . S
C2682 H2678 0.929 . S
C2682 C2684 1.378 . S
C2682 C2686 1.350 . S
C2683 C2686 1.463 . S
C2683 C2688 1.350 . S
C2683 N2691 1.427 . S
C2684 H2675 0.930 . S
C2684 C2682 1.378 . S
C2684 C2685 1.367 . S
C2685 C2684 1.367 . S
C2685 C2687 1.433 . S
C2686 C2682 1.350 . S
C2686 C2683 1.463 . S
C2686 N2690 1.427 . S
C2687 H2677 0.929 . S
C2687 C2685 1.433 . S
C2687 N2690 1.384 . S
C2688 H2679 0.929 . S
C2688 C2680 1.378 . S
C2688 C2683 1.350 . S
C2689 H2676 0.929 . S
C2689 C2681 1.433 . S
C2689 N2691 1.384 . S
N2690 C2686 1.427 . S
N2690 C2687 1.384 . S
N2691 C2683 1.427 . S
N2691 C2689 1.384 . S
H2692 C2698 0.930 . S
H2693 C2702 0.930 . S
H2694 C2707 0.929 . S
H2695 C2705 0.929 . S
H2696 C2700 0.929 . S
H2697 C2706 0.929 . S
C2698 H2692 0.930 . S
C2698 C2699 1.367 . S
C2698 C2706 1.378 . S
C2699 C2698 1.367 . S
C2699 C2707 1.433 . S
C2700 H2696 0.929 . S
C2700 C2702 1.378 . S
C2700 C2704 1.341 1_565 S
C2701 C2704 1.479 . S
C2701 C2706 1.350 . S
C2701 N2709 1.427 . S
C2702 H2693 0.930 . S
C2702 C2700 1.378 . S
C2702 C2703 1.367 . S
C2703 C2702 1.367 . S
C2703 C2705 1.433 . S
C2704 C2700 1.341 1_545 S
C2704 C2701 1.479 . S
C2704 N2708 1.428 . S
C2705 H2695 0.929 . S
C2705 C2703 1.433 . S
C2705 N2708 1.365 1_565 S
C2706 H2697 0.929 . S
C2706 C2698 1.378 . S
C2706 C2701 1.350 . S
C2707 H2694 0.929 . S
C2707 C2699 1.433 . S
C2707 N2709 1.384 . S
N2708 C2704 1.428 . S
N2708 C2705 1.365 1_545 S
N2709 C2701 1.427 . S
N2709 C2707 1.384 . S
H2710 C2716 0.914 1_545 S
H2711 C2720 0.930 . S
H2712 C2725 0.929 . S
H2713 C2723 0.929 . S
H2714 C2718 0.929 1_565 S
H2715 C2724 0.929 . S
C2716 H2710 0.914 1_565 S
C2716 C2717 1.404 . S
C2716 C2724 1.359 1_565 S
C2717 C2716 1.404 . S
C2717 C2725 1.433 . S
C2718 H2714 0.929 1_545 S
C2718 C2720 1.378 . S
C2718 C2722 1.350 . S
C2719 C2722 1.463 . S
C2719 C2724 1.350 . S
C2719 N2727 1.427 1_545 S
C2720 H2711 0.930 . S
C2720 C2718 1.378 . S
C2720 C2721 1.367 . S
C2721 C2720 1.367 . S
C2721 C2723 1.433 . S
C2722 C2718 1.350 . S
C2722 C2719 1.463 . S
C2722 N2726 1.427 . S
C2723 H2713 0.929 . S
C2723 C2721 1.433 . S
C2723 N2726 1.384 . S
C2724 H2715 0.929 . S
C2724 C2716 1.359 1_545 S
C2724 C2719 1.350 . S
C2725 H2712 0.929 . S
C2725 C2717 1.433 . S
C2725 N2727 1.384 . S
N2726 C2722 1.427 . S
N2726 C2723 1.384 . S
N2727 C2719 1.427 1_565 S
N2727 C2725 1.384 . S
H2728 C2734 0.930 . S
H2729 C2738 0.930 . S
H2730 C2743 0.929 . S
H2731 C2741 0.929 . S
H2732 C2736 0.929 . S
H2733 C2742 0.929 . S
C2734 H2728 0.930 . S
C2734 C2735 1.367 . S
C2734 C2742 1.378 . S
C2735 C2734 1.367 . S
C2735 C2743 1.433 . S
C2736 H2732 0.929 . S
C2736 C2738 1.378 . S
C2736 C2740 1.350 . S
C2737 C2740 1.463 . S
C2737 C2742 1.350 . S
C2737 N2745 1.427 . S
C2738 H2729 0.930 . S
C2738 C2736 1.378 . S
C2738 C2739 1.367 . S
C2739 C2738 1.367 . S
C2739 C2741 1.433 . S
C2740 C2736 1.350 . S
C2740 C2737 1.463 . S
C2740 N2744 1.427 . S
C2741 H2731 0.929 . S
C2741 C2739 1.433 . S
C2741 N2744 1.384 . S
C2742 H2733 0.929 . S
C2742 C2734 1.378 . S
C2742 C2737 1.350 . S
C2743 H2730 0.929 . S
C2743 C2735 1.433 . S
C2743 N2745 1.384 . S
N2744 C2740 1.427 . S
N2744 C2741 1.384 . S
N2745 C2737 1.427 . S
N2745 C2743 1.384 . S
H2746 C2752 0.930 . S
H2747 C2756 0.930 . S
H2748 C2761 0.929 . S
H2749 C2759 0.929 . S
H2750 C2754 0.929 . S
H2751 C2760 0.929 . S
C2752 H2746 0.930 . S
C2752 C2753 1.367 . S
C2752 C2760 1.378 . S
C2753 C2752 1.367 . S
C2753 C2761 1.433 . S
C2754 H2750 0.929 . S
C2754 C2756 1.378 . S
C2754 C2758 1.350 . S
C2755 C2758 1.463 . S
C2755 C2760 1.350 . S
C2755 N2763 1.427 . S
C2756 H2747 0.930 . S
C2756 C2754 1.378 . S
C2756 C2757 1.367 . S
C2757 C2756 1.367 . S
C2757 C2759 1.433 . S
C2758 C2754 1.350 . S
C2758 C2755 1.463 . S
C2758 N2762 1.427 . S
C2759 H2749 0.929 . S
C2759 C2757 1.433 . S
C2759 N2762 1.384 . S
C2760 H2751 0.929 . S
C2760 C2752 1.378 . S
C2760 C2755 1.350 . S
C2761 H2748 0.929 . S
C2761 C2753 1.433 . S
C2761 N2763 1.384 . S
N2762 C2758 1.427 . S
N2762 C2759 1.384 . S
N2763 C2755 1.427 . S
N2763 C2761 1.384 . S
H2764 C2770 0.930 . S
H2765 C2774 0.930 . S
H2766 C2779 0.929 . S
H2767 C2777 0.929 . S
H2768 C2772 0.929 . S
H2769 C2778 0.929 . S
C2770 H2764 0.930 . S
C2770 C2771 1.367 . S
C2770 C2778 1.378 . S
C2771 C2770 1.367 . S
C2771 C2779 1.433 . S
C2772 H2768 0.929 . S
C2772 C2774 1.378 . S
C2772 C2776 1.350 . S
C2773 C2776 1.463 . S
C2773 C2778 1.350 . S
C2773 N2781 1.427 . S
C2774 H2765 0.930 . S
C2774 C2772 1.378 . S
C2774 C2775 1.367 . S
C2775 C2774 1.367 . S
C2775 C2777 1.433 . S
C2776 C2772 1.350 . S
C2776 C2773 1.463 . S
C2776 N2780 1.427 . S
C2777 H2767 0.929 . S
C2777 C2775 1.433 . S
C2777 N2780 1.384 . S
C2778 H2769 0.929 . S
C2778 C2770 1.378 . S
C2778 C2773 1.350 . S
C2779 H2766 0.929 . S
C2779 C2771 1.433 . S
C2779 N2781 1.384 . S
N2780 C2776 1.427 . S
N2780 C2777 1.384 . S
N2781 C2773 1.427 . S
N2781 C2779 1.384 . S
H2782 C2788 0.930 . S
H2783 C2792 0.930 . S
H2784 C2797 0.929 . S
H2785 C2795 0.929 . S
H2786 C2790 0.929 . S
H2787 C2796 0.929 . S
C2788 H2782 0.930 . S
C2788 C2789 1.367 . S
C2788 C2796 1.378 . S
C2789 C2788 1.367 . S
C2789 C2797 1.433 . S
C2790 H2786 0.929 . S
C2790 C2792 1.378 1_545 S
C2790 C2794 1.350 . S
C2791 C2794 1.463 . S
C2791 C2796 1.350 . S
C2791 N2799 1.427 . S
C2792 H2783 0.930 . S
C2792 C2790 1.378 1_565 S
C2792 C2793 1.367 . S
C2793 C2792 1.367 . S
C2793 C2795 1.433 . S
C2794 C2790 1.350 . S
C2794 C2791 1.463 . S
C2794 N2798 1.427 . S
C2795 H2785 0.929 . S
C2795 C2793 1.433 . S
C2795 N2798 1.384 1_565 S
C2796 H2787 0.929 . S
C2796 C2788 1.378 . S
C2796 C2791 1.350 . S
C2797 H2784 0.929 . S
C2797 C2789 1.433 . S
C2797 N2799 1.384 . S
N2798 C2794 1.427 . S
N2798 C2795 1.384 1_545 S
N2799 C2791 1.427 . S
N2799 C2797 1.384 . S
H2800 C2806 0.930 . S
H2801 C2810 0.930 . S
H2802 C2815 0.929 . S
H2803 C2813 0.929 . S
H2804 C2808 0.929 . S
H2805 C2814 0.929 . S
C2806 H2800 0.930 . S
C2806 C2807 1.367 . S
C2806 C2814 1.378 . S
C2807 C2806 1.367 . S
C2807 C2815 1.433 . S
C2808 H2804 0.929 . S
C2808 C2810 1.378 . S
C2808 C2812 1.350 . S
C2809 C2812 1.463 . S
C2809 C2814 1.350 . S
C2809 N2817 1.427 . S
C2810 H2801 0.930 . S
C2810 C2808 1.378 . S
C2810 C2811 1.367 . S
C2811 C2810 1.367 . S
C2811 C2813 1.433 . S
C2812 C2808 1.350 . S
C2812 C2809 1.463 . S
C2812 N2816 1.427 . S
C2813 H2803 0.929 . S
C2813 C2811 1.433 . S
C2813 N2816 1.384 . S
C2814 H2805 0.929 . S
C2814 C2806 1.378 . S
C2814 C2809 1.350 . S
C2815 H2802 0.929 . S
C2815 C2807 1.433 . S
C2815 N2817 1.384 . S
N2816 C2812 1.427 . S
N2816 C2813 1.384 . S
N2817 C2809 1.427 . S
N2817 C2815 1.384 . S
H2818 C2824 0.930 . S
H2819 C2828 0.930 . S
H2820 C2833 0.929 . S
H2821 C2831 0.929 . S
H2822 C2826 0.929 . S
H2823 C2832 0.929 . S
C2824 H2818 0.930 . S
C2824 C2825 1.367 . S
C2824 C2832 1.378 . S
C2825 C2824 1.367 . S
C2825 C2833 1.433 . S
C2826 H2822 0.929 . S
C2826 C2828 1.378 . S
C2826 C2830 1.350 . S
C2827 C2830 1.463 . S
C2827 C2832 1.350 . S
C2827 N2835 1.427 . S
C2828 H2819 0.930 . S
C2828 C2826 1.378 . S
C2828 C2829 1.367 . S
C2829 C2828 1.367 . S
C2829 C2831 1.433 . S
C2830 C2826 1.350 . S
C2830 C2827 1.463 . S
C2830 N2834 1.427 . S
C2831 H2821 0.929 . S
C2831 C2829 1.433 . S
C2831 N2834 1.384 . S
C2832 H2823 0.929 . S
C2832 C2824 1.378 . S
C2832 C2827 1.350 . S
C2833 H2820 0.929 . S
C2833 C2825 1.433 . S
C2833 N2835 1.384 . S
N2834 C2830 1.427 . S
N2834 C2831 1.384 . S
N2835 C2827 1.427 . S
N2835 C2833 1.384 . S
H2836 C2842 0.930 . S
H2837 C2846 0.930 . S
H2838 C2851 0.929 . S
H2839 C2849 0.929 . S
H2840 C2844 0.929 . S
H2841 C2850 0.929 . S
C2842 H2836 0.930 . S
C2842 C2843 1.367 . S
C2842 C2850 1.378 . S
C2843 C2842 1.367 . S
C2843 C2851 1.433 . S
C2844 H2840 0.929 . S
C2844 C2846 1.378 . S
C2844 C2848 1.350 . S
C2845 C2848 1.463 . S
C2845 C2850 1.350 . S
C2845 N2853 1.427 . S
C2846 H2837 0.930 . S
C2846 C2844 1.378 . S
C2846 C2847 1.367 . S
C2847 C2846 1.367 . S
C2847 C2849 1.433 . S
C2848 C2844 1.350 . S
C2848 C2845 1.463 . S
C2848 N2852 1.427 . S
C2849 H2839 0.929 . S
C2849 C2847 1.433 . S
C2849 N2852 1.384 . S
C2850 H2841 0.929 . S
C2850 C2842 1.378 . S
C2850 C2845 1.350 . S
C2851 H2838 0.929 . S
C2851 C2843 1.433 . S
C2851 N2853 1.384 . S
N2852 C2848 1.427 . S
N2852 C2849 1.384 . S
N2853 C2845 1.427 . S
N2853 C2851 1.384 . S
H2854 C2860 0.930 . S
H2855 C2864 0.930 . S
H2856 C2869 0.929 . S
H2857 C2867 0.929 . S
H2858 C2862 0.929 . S
H2859 C2868 0.929 . S
C2860 H2854 0.930 . S
C2860 C2861 1.367 . S
C2860 C2868 1.378 . S
C2861 C2860 1.367 . S
C2861 C2869 1.433 . S
C2862 H2858 0.929 . S
C2862 C2864 1.378 . S
C2862 C2866 1.350 . S
C2863 C2866 1.463 . S
C2863 C2868 1.350 . S
C2863 N2871 1.427 . S
C2864 H2855 0.930 . S
C2864 C2862 1.378 . S
C2864 C2865 1.367 . S
C2865 C2864 1.367 . S
C2865 C2867 1.433 . S
C2866 C2862 1.350 . S
C2866 C2863 1.463 . S
C2866 N2870 1.427 . S
C2867 H2857 0.929 . S
C2867 C2865 1.433 . S
C2867 N2870 1.384 . S
C2868 H2859 0.929 . S
C2868 C2860 1.378 . S
C2868 C2863 1.350 . S
C2869 H2856 0.929 . S
C2869 C2861 1.433 . S
C2869 N2871 1.384 . S
N2870 C2866 1.427 . S
N2870 C2867 1.384 . S
N2871 C2863 1.427 . S
N2871 C2869 1.384 . S
H2872 C2878 0.930 . S
H2873 C2882 0.918 1_554 S
H2874 C2887 0.929 . S
H2875 C2885 0.929 . S
H2876 C2880 0.929 . S
H2877 C2886 0.929 . S
C2878 H2872 0.930 . S
C2878 C2879 1.367 . S
C2878 C2886 1.378 . S
C2879 C2878 1.367 . S
C2879 C2887 1.433 . S
C2880 H2876 0.929 . S
C2880 C2882 1.384 . S
C2880 C2884 1.350 . S
C2881 C2884 1.463 . S
C2881 C2886 1.350 . S
C2881 N2889 1.427 . S
C2882 H2873 0.918 1_556 S
C2882 C2880 1.384 . S
C2882 C2883 1.373 . S
C2883 C2882 1.373 . S
C2883 C2885 1.433 . S
C2884 C2880 1.350 . S
C2884 C2881 1.463 . S
C2884 N2888 1.427 . S
C2885 H2875 0.929 . S
C2885 C2883 1.433 . S
C2885 N2888 1.384 . S
C2886 H2877 0.929 . S
C2886 C2878 1.378 . S
C2886 C2881 1.350 . S
C2887 H2874 0.929 . S
C2887 C2879 1.433 . S
C2887 N2889 1.384 . S
N2888 C2884 1.427 . S
N2888 C2885 1.384 . S
N2889 C2881 1.427 . S
N2889 C2887 1.384 . S
H2890 C2896 0.930 . S
H2891 C2900 0.930 . S
H2892 C2905 0.929 . S
H2893 C2903 0.929 . S
H2894 C2898 0.929 . S
H2895 C2904 0.929 . S
C2896 H2890 0.930 . S
C2896 C2897 1.367 . S
C2896 C2904 1.378 . S
C2897 C2896 1.367 . S
C2897 C2905 1.433 . S
C2898 H2894 0.929 . S
C2898 C2900 1.378 . S
C2898 C2902 1.350 . S
C2899 C2902 1.463 . S
C2899 C2904 1.350 . S
C2899 N2907 1.427 . S
C2900 H2891 0.930 . S
C2900 C2898 1.378 . S
C2900 C2901 1.367 . S
C2901 C2900 1.367 . S
C2901 C2903 1.433 . S
C2902 C2898 1.350 . S
C2902 C2899 1.463 . S
C2902 N2906 1.427 . S
C2903 H2893 0.929 . S
C2903 C2901 1.433 . S
C2903 N2906 1.384 . S
C2904 H2895 0.929 . S
C2904 C2896 1.378 . S
C2904 C2899 1.350 . S
C2905 H2892 0.929 . S
C2905 C2897 1.433 . S
C2905 N2907 1.384 . S
N2906 C2902 1.427 . S
N2906 C2903 1.384 . S
N2907 C2899 1.427 . S
N2907 C2905 1.384 . S
H2908 C2914 0.930 . S
H2909 C2918 0.930 . S
H2910 C2923 0.929 1_655 S
H2911 C2921 0.929 . S
H2912 C2916 0.929 . S
H2913 C2922 0.929 . S
C2914 H2908 0.930 . S
C2914 C2915 1.367 . S
C2914 C2922 1.378 . S
C2915 C2914 1.367 . S
C2915 C2923 1.433 . S
C2916 H2912 0.929 . S
C2916 C2918 1.378 . S
C2916 C2920 1.350 . S
C2917 C2920 1.463 . S
C2917 C2922 1.350 . S
C2917 N2925 1.427 . S
C2918 H2909 0.930 . S
C2918 C2916 1.378 . S
C2918 C2919 1.367 . S
C2919 C2918 1.367 . S
C2919 C2921 1.433 . S
C2920 C2916 1.350 . S
C2920 C2917 1.463 . S
C2920 N2924 1.427 . S
C2921 H2911 0.929 . S
C2921 C2919 1.433 . S
C2921 N2924 1.384 . S
C2922 H2913 0.929 . S
C2922 C2914 1.378 . S
C2922 C2917 1.350 . S
C2923 H2910 0.929 1_455 S
C2923 C2915 1.433 . S
C2923 N2925 1.384 . S
N2924 C2920 1.427 . S
N2924 C2921 1.384 . S
N2925 C2917 1.427 . S
N2925 C2923 1.384 . S
H2926 C2932 0.930 . S
H2927 C2936 0.930 . S
H2928 C2941 0.929 . S
H2929 C2939 0.929 . S
H2930 C2934 0.929 . S
H2931 C2940 0.929 . S
C2932 H2926 0.930 . S
C2932 C2933 1.367 . S
C2932 C2940 1.378 . S
C2933 C2932 1.367 . S
C2933 C2941 1.433 . S
C2934 H2930 0.929 . S
C2934 C2936 1.378 . S
C2934 C2938 1.350 . S
C2935 C2938 1.463 . S
C2935 C2940 1.350 . S
C2935 N2943 1.427 . S
C2936 H2927 0.930 . S
C2936 C2934 1.378 . S
C2936 C2937 1.367 . S
C2937 C2936 1.367 . S
C2937 C2939 1.433 . S
C2938 C2934 1.350 . S
C2938 C2935 1.463 . S
C2938 N2942 1.427 . S
C2939 H2929 0.929 . S
C2939 C2937 1.433 . S
C2939 N2942 1.384 . S
C2940 H2931 0.929 . S
C2940 C2932 1.378 . S
C2940 C2935 1.350 . S
C2941 H2928 0.929 . S
C2941 C2933 1.433 . S
C2941 N2943 1.384 . S
N2942 C2938 1.427 . S
N2942 C2939 1.384 . S
N2943 C2935 1.427 . S
N2943 C2941 1.384 . S
H2944 C2950 0.930 . S
H2945 C2954 0.930 . S
H2946 C2959 0.929 . S
H2947 C2957 0.929 . S
H2948 C2952 0.929 . S
H2949 C2958 0.929 . S
C2950 H2944 0.930 . S
C2950 C2951 1.367 . S
C2950 C2958 1.378 . S
C2951 C2950 1.367 . S
C2951 C2959 1.433 . S
C2952 H2948 0.929 . S
C2952 C2954 1.378 . S
C2952 C2956 1.350 . S
C2953 C2956 1.463 . S
C2953 C2958 1.350 . S
C2953 N2961 1.427 . S
C2954 H2945 0.930 . S
C2954 C2952 1.378 . S
C2954 C2955 1.367 . S
C2955 C2954 1.367 . S
C2955 C2957 1.433 . S
C2956 C2952 1.350 . S
C2956 C2953 1.463 . S
C2956 N2960 1.427 . S
C2957 H2947 0.929 . S
C2957 C2955 1.433 . S
C2957 N2960 1.384 . S
C2958 H2949 0.929 . S
C2958 C2950 1.378 . S
C2958 C2953 1.350 . S
C2959 H2946 0.929 . S
C2959 C2951 1.433 . S
C2959 N2961 1.384 . S
N2960 C2956 1.427 . S
N2960 C2957 1.384 . S
N2961 C2953 1.427 . S
N2961 C2959 1.384 . S
H2962 C2968 0.930 . S
H2963 C2972 0.930 . S
H2964 C2977 0.929 . S
H2965 C2975 0.929 . S
H2966 C2970 0.929 . S
H2967 C2976 0.929 . S
C2968 H2962 0.930 . S
C2968 C2969 1.367 . S
C2968 C2976 1.378 . S
C2969 C2968 1.367 . S
C2969 C2977 1.433 . S
C2970 H2966 0.929 . S
C2970 C2972 1.378 . S
C2970 C2974 1.350 . S
C2971 C2974 1.463 . S
C2971 C2976 1.350 . S
C2971 N2979 1.427 . S
C2972 H2963 0.930 . S
C2972 C2970 1.378 . S
C2972 C2973 1.367 . S
C2973 C2972 1.367 . S
C2973 C2975 1.433 . S
C2974 C2970 1.350 . S
C2974 C2971 1.463 . S
C2974 N2978 1.427 . S
C2975 H2965 0.929 . S
C2975 C2973 1.433 . S
C2975 N2978 1.384 . S
C2976 H2967 0.929 . S
C2976 C2968 1.378 . S
C2976 C2971 1.350 . S
C2977 H2964 0.929 . S
C2977 C2969 1.433 . S
C2977 N2979 1.384 . S
N2978 C2974 1.427 . S
N2978 C2975 1.384 . S
N2979 C2971 1.427 . S
N2979 C2977 1.384 . S
H2980 C2986 0.930 . S
H2981 C2990 0.930 . S
H2982 C2995 0.929 . S
H2983 C2993 0.929 . S
H2984 C2988 0.929 . S
H2985 C2994 0.929 . S
C2986 H2980 0.930 . S
C2986 C2987 1.367 . S
C2986 C2994 1.378 . S
C2987 C2986 1.367 . S
C2987 C2995 1.433 1_655 S
C2988 H2984 0.929 . S
C2988 C2990 1.378 . S
C2988 C2992 1.350 . S
C2989 C2992 1.463 . S
C2989 C2994 1.350 1_455 S
C2989 N2997 1.427 . S
C2990 H2981 0.930 . S
C2990 C2988 1.378 . S
C2990 C2991 1.367 . S
C2991 C2990 1.367 . S
C2991 C2993 1.433 . S
C2992 C2988 1.350 . S
C2992 C2989 1.463 . S
C2992 N2996 1.427 . S
C2993 H2983 0.929 . S
C2993 C2991 1.433 . S
C2993 N2996 1.384 . S
C2994 H2985 0.929 . S
C2994 C2986 1.378 . S
C2994 C2989 1.350 1_655 S
C2995 H2982 0.929 . S
C2995 C2987 1.433 1_455 S
C2995 N2997 1.384 . S
N2996 C2992 1.427 . S
N2996 C2993 1.384 . S
N2997 C2989 1.427 . S
N2997 C2995 1.384 . S
H2998 C3004 0.930 . S
H2999 C3008 0.930 . S
H3000 C3013 0.929 . S
H3001 C3011 0.929 . S
H3002 C3006 0.929 . S
H3003 C3012 0.929 . S
C3004 H2998 0.930 . S
C3004 C3005 1.367 . S
C3004 C3012 1.378 . S
C3005 C3004 1.367 . S
C3005 C3013 1.433 . S
C3006 H3002 0.929 . S
C3006 C3008 1.378 . S
C3006 C3010 1.350 . S
C3007 C3010 1.463 . S
C3007 C3012 1.350 . S
C3007 N3015 1.427 . S
C3008 H2999 0.930 . S
C3008 C3006 1.378 . S
C3008 C3009 1.367 . S
C3009 C3008 1.367 . S
C3009 C3011 1.433 . S
C3010 C3006 1.350 . S
C3010 C3007 1.463 . S
C3010 N3014 1.427 . S
C3011 H3001 0.929 . S
C3011 C3009 1.433 . S
C3011 N3014 1.384 . S
C3012 H3003 0.929 . S
C3012 C3004 1.378 . S
C3012 C3007 1.350 . S
C3013 H3000 0.929 . S
C3013 C3005 1.433 . S
C3013 N3015 1.384 . S
N3014 C3010 1.427 . S
N3014 C3011 1.384 . S
N3015 C3007 1.427 . S
N3015 C3013 1.384 . S
H3016 C3022 0.930 . S
H3017 C3026 0.930 . S
H3018 C3031 0.929 . S
H3019 C3029 0.929 . S
H3020 C3024 0.929 . S
H3021 C3030 0.929 . S
C3022 H3016 0.930 . S
C3022 C3023 1.367 . S
C3022 C3030 1.378 . S
C3023 C3022 1.367 . S
C3023 C3031 1.433 . S
C3024 H3020 0.929 . S
C3024 C3026 1.378 . S
C3024 C3028 1.350 . S
C3025 C3028 1.463 . S
C3025 C3030 1.350 . S
C3025 N3033 1.427 . S
C3026 H3017 0.930 . S
C3026 C3024 1.378 . S
C3026 C3027 1.367 . S
C3027 C3026 1.367 . S
C3027 C3029 1.433 . S
C3028 C3024 1.350 . S
C3028 C3025 1.463 . S
C3028 N3032 1.427 . S
C3029 H3019 0.929 . S
C3029 C3027 1.433 . S
C3029 N3032 1.384 . S
C3030 H3021 0.929 . S
C3030 C3022 1.378 . S
C3030 C3025 1.350 . S
C3031 H3018 0.929 . S
C3031 C3023 1.433 . S
C3031 N3033 1.384 . S
N3032 C3028 1.427 . S
N3032 C3029 1.384 . S
N3033 C3025 1.427 . S
N3033 C3031 1.384 . S
H3034 C3040 0.930 . S
H3035 C3044 0.930 . S
H3036 C3049 0.929 . S
H3037 C3047 0.929 . S
H3038 C3042 0.929 . S
H3039 C3048 0.929 . S
C3040 H3034 0.930 . S
C3040 C3041 1.367 . S
C3040 C3048 1.378 . S
C3041 C3040 1.367 . S
C3041 C3049 1.433 . S
C3042 H3038 0.929 . S
C3042 C3044 1.378 . S
C3042 C3046 1.350 . S
C3043 C3046 1.463 . S
C3043 C3048 1.350 . S
C3043 N3051 1.427 . S
C3044 H3035 0.930 . S
C3044 C3042 1.378 . S
C3044 C3045 1.367 . S
C3045 C3044 1.367 . S
C3045 C3047 1.433 . S
C3046 C3042 1.350 . S
C3046 C3043 1.463 . S
C3046 N3050 1.427 . S
C3047 H3037 0.929 . S
C3047 C3045 1.433 . S
C3047 N3050 1.384 . S
C3048 H3039 0.929 . S
C3048 C3040 1.378 . S
C3048 C3043 1.350 . S
C3049 H3036 0.929 . S
C3049 C3041 1.433 . S
C3049 N3051 1.384 . S
N3050 C3046 1.427 . S
N3050 C3047 1.384 . S
N3051 C3043 1.427 . S
N3051 C3049 1.384 . S
H3052 C3058 0.930 . S
H3053 C3062 0.930 . S
H3054 C3067 0.929 . S
H3055 C3065 0.929 . S
H3056 C3060 0.929 . S
H3057 C3066 0.929 . S
C3058 H3052 0.930 . S
C3058 C3059 1.367 . S
C3058 C3066 1.378 . S
C3059 C3058 1.367 . S
C3059 C3067 1.433 . S
C3060 H3056 0.929 . S
C3060 C3062 1.378 . S
C3060 C3064 1.350 . S
C3061 C3064 1.463 . S
C3061 C3066 1.350 . S
C3061 N3069 1.427 . S
C3062 H3053 0.930 . S
C3062 C3060 1.378 . S
C3062 C3063 1.367 1_655 S
C3063 C3062 1.367 1_455 S
C3063 C3065 1.433 . S
C3064 C3060 1.350 . S
C3064 C3061 1.463 . S
C3064 N3068 1.427 . S
C3065 H3055 0.929 . S
C3065 C3063 1.433 . S
C3065 N3068 1.384 1_455 S
C3066 H3057 0.929 . S
C3066 C3058 1.378 . S
C3066 C3061 1.350 . S
C3067 H3054 0.929 . S
C3067 C3059 1.433 . S
C3067 N3069 1.384 . S
N3068 C3064 1.427 . S
N3068 C3065 1.384 1_655 S
N3069 C3061 1.427 . S
N3069 C3067 1.384 . S
H3070 C3076 0.930 . S
H3071 C3080 0.930 . S
H3072 C3085 0.929 . S
H3073 C3083 0.929 . S
H3074 C3078 0.929 . S
H3075 C3084 0.929 . S
C3076 H3070 0.930 . S
C3076 C3077 1.367 . S
C3076 C3084 1.378 . S
C3077 C3076 1.367 . S
C3077 C3085 1.433 . S
C3078 H3074 0.929 . S
C3078 C3080 1.378 . S
C3078 C3082 1.350 . S
C3079 C3082 1.463 . S
C3079 C3084 1.350 . S
C3079 N3087 1.427 . S
C3080 H3071 0.930 . S
C3080 C3078 1.378 . S
C3080 C3081 1.367 . S
C3081 C3080 1.367 . S
C3081 C3083 1.433 . S
C3082 C3078 1.350 . S
C3082 C3079 1.463 . S
C3082 N3086 1.427 . S
C3083 H3073 0.929 . S
C3083 C3081 1.433 . S
C3083 N3086 1.384 . S
C3084 H3075 0.929 . S
C3084 C3076 1.378 . S
C3084 C3079 1.350 . S
C3085 H3072 0.929 . S
C3085 C3077 1.433 . S
C3085 N3087 1.384 . S
N3086 C3082 1.427 . S
N3086 C3083 1.384 . S
N3087 C3079 1.427 . S
N3087 C3085 1.384 . S
H3088 C3094 0.930 . S
H3089 C3098 0.930 . S
H3090 C3103 0.929 . S
H3091 C3101 0.929 . S
H3092 C3096 0.929 . S
H3093 C3102 0.929 . S
C3094 H3088 0.930 . S
C3094 C3095 1.367 . S
C3094 C3102 1.378 . S
C3095 C3094 1.367 . S
C3095 C3103 1.433 . S
C3096 H3092 0.929 . S
C3096 C3098 1.378 . S
C3096 C3100 1.350 . S
C3097 C3100 1.463 . S
C3097 C3102 1.350 . S
C3097 N3105 1.427 . S
C3098 H3089 0.930 . S
C3098 C3096 1.378 . S
C3098 C3099 1.367 . S
C3099 C3098 1.367 . S
C3099 C3101 1.433 . S
C3100 C3096 1.350 . S
C3100 C3097 1.463 . S
C3100 N3104 1.427 . S
C3101 H3091 0.929 . S
C3101 C3099 1.433 . S
C3101 N3104 1.384 . S
C3102 H3093 0.929 . S
C3102 C3094 1.378 . S
C3102 C3097 1.350 . S
C3103 H3090 0.929 . S
C3103 C3095 1.433 . S
C3103 N3105 1.384 . S
N3104 C3100 1.427 . S
N3104 C3101 1.384 . S
N3105 C3097 1.427 . S
N3105 C3103 1.384 . S
H3106 C3112 0.930 . S
H3107 C3116 0.930 . S
H3108 C3121 0.929 . S
H3109 C3119 0.929 . S
H3110 C3114 0.929 . S
H3111 C3120 0.953 . S
C3112 H3106 0.930 . S
C3112 C3113 1.367 . S
C3112 C3120 1.378 . S
C3113 C3112 1.367 . S
C3113 C3121 1.433 . S
C3114 H3110 0.929 . S
C3114 C3116 1.378 . S
C3114 C3118 1.350 . S
C3115 C3118 1.463 1_565 S
C3115 C3120 1.350 . S
C3115 N3123 1.427 . S
C3116 H3107 0.930 . S
C3116 C3114 1.378 . S
C3116 C3117 1.367 . S
C3117 C3116 1.367 . S
C3117 C3119 1.433 . S
C3118 C3114 1.350 . S
C3118 C3115 1.463 1_545 S
C3118 N3122 1.427 . S
C3119 H3109 0.929 . S
C3119 C3117 1.433 . S
C3119 N3122 1.384 . S
C3120 H3111 0.953 . S
C3120 C3112 1.378 . S
C3120 C3115 1.350 . S
C3121 H3108 0.929 . S
C3121 C3113 1.433 . S
C3121 N3123 1.384 . S
N3122 C3118 1.427 . S
N3122 C3119 1.384 . S
N3123 C3115 1.427 . S
N3123 C3121 1.384 . S
H3124 C3130 0.930 . S
H3125 C3134 0.930 . S
H3126 C3139 0.929 . S
H3127 C3137 0.929 . S
H3128 C3132 0.929 . S
H3129 C3138 0.929 . S
C3130 H3124 0.930 . S
C3130 C3131 1.367 . S
C3130 C3138 1.378 . S
C3131 C3130 1.367 . S
C3131 C3139 1.433 . S
C3132 H3128 0.929 . S
C3132 C3134 1.378 . S
C3132 C3136 1.350 . S
C3133 C3136 1.463 . S
C3133 C3138 1.350 . S
C3133 N3141 1.427 . S
C3134 H3125 0.930 . S
C3134 C3132 1.378 . S
C3134 C3135 1.367 . S
C3135 C3134 1.367 . S
C3135 C3137 1.433 . S
C3136 C3132 1.350 . S
C3136 C3133 1.463 . S
C3136 N3140 1.427 . S
C3137 H3127 0.929 . S
C3137 C3135 1.433 . S
C3137 N3140 1.384 . S
C3138 H3129 0.929 . S
C3138 C3130 1.378 . S
C3138 C3133 1.350 . S
C3139 H3126 0.929 . S
C3139 C3131 1.433 . S
C3139 N3141 1.384 . S
N3140 C3136 1.427 . S
N3140 C3137 1.384 . S
N3141 C3133 1.427 . S
N3141 C3139 1.384 . S
H3142 C3148 0.930 . S
H3143 C3152 0.930 . S
H3144 C3157 0.929 . S
H3145 C3155 0.929 . S
H3146 C3150 0.929 . S
H3147 C3156 0.929 . S
C3148 H3142 0.930 . S
C3148 C3149 1.367 . S
C3148 C3156 1.378 . S
C3149 C3148 1.367 . S
C3149 C3157 1.433 1_556 S
C3150 H3146 0.929 . S
C3150 C3152 1.378 . S
C3150 C3154 1.350 . S
C3151 C3154 1.463 . S
C3151 C3156 1.350 1_554 S
C3151 N3159 1.427 . S
C3152 H3143 0.930 . S
C3152 C3150 1.378 . S
C3152 C3153 1.367 . S
C3153 C3152 1.367 . S
C3153 C3155 1.433 1_554 S
C3154 C3150 1.350 . S
C3154 C3151 1.463 . S
C3154 N3158 1.427 1_554 S
C3155 H3145 0.929 . S
C3155 C3153 1.433 1_556 S
C3155 N3158 1.384 . S
C3156 H3147 0.929 . S
C3156 C3148 1.378 . S
C3156 C3151 1.350 1_556 S
C3157 H3144 0.929 . S
C3157 C3149 1.433 1_554 S
C3157 N3159 1.384 . S
N3158 C3154 1.427 1_556 S
N3158 C3155 1.384 . S
N3159 C3151 1.427 . S
N3159 C3157 1.384 . S
H3160 C3166 0.930 . S
H3161 C3170 0.930 . S
H3162 C3175 0.929 . S
H3163 C3173 0.929 . S
H3164 C3168 0.929 . S
H3165 C3174 0.929 . S
C3166 H3160 0.930 . S
C3166 C3167 1.367 . S
C3166 C3174 1.378 . S
C3167 C3166 1.367 . S
C3167 C3175 1.433 . S
C3168 H3164 0.929 . S
C3168 C3170 1.378 . S
C3168 C3172 1.350 . S
C3169 C3172 1.463 . S
C3169 C3174 1.350 . S
C3169 N3177 1.427 . S
C3170 H3161 0.930 . S
C3170 C3168 1.378 . S
C3170 C3171 1.367 . S
C3171 C3170 1.367 . S
C3171 C3173 1.433 . S
C3172 C3168 1.350 . S
C3172 C3169 1.463 . S
C3172 N3176 1.427 . S
C3173 H3163 0.929 . S
C3173 C3171 1.433 . S
C3173 N3176 1.384 . S
C3174 H3165 0.929 . S
C3174 C3166 1.378 . S
C3174 C3169 1.350 . S
C3175 H3162 0.929 . S
C3175 C3167 1.433 . S
C3175 N3177 1.384 . S
N3176 C3172 1.427 . S
N3176 C3173 1.384 . S
N3177 C3169 1.427 . S
N3177 C3175 1.384 . S
H3178 C3184 0.930 . S
H3179 C3188 0.930 . S
H3180 C3193 0.929 1_556 S
H3181 C3191 0.929 . S
H3182 C3186 0.929 . S
H3183 C3192 0.929 . S
C3184 H3178 0.930 . S
C3184 C3185 1.367 . S
C3184 C3192 1.378 . S
C3185 C3184 1.367 . S
C3185 C3193 1.433 . S
C3186 H3182 0.929 . S
C3186 C3188 1.378 . S
C3186 C3190 1.350 1_556 S
C3187 C3190 1.463 . S
C3187 C3192 1.350 . S
C3187 N3195 1.427 1_554 S
C3188 H3179 0.930 . S
C3188 C3186 1.378 . S
C3188 C3189 1.367 . S
C3189 C3188 1.367 . S
C3189 C3191 1.433 1_556 S
C3190 C3186 1.350 1_554 S
C3190 C3187 1.463 . S
C3190 N3194 1.427 . S
C3191 H3181 0.929 . S
C3191 C3189 1.433 1_554 S
C3191 N3194 1.384 . S
C3192 H3183 0.929 . S
C3192 C3184 1.378 . S
C3192 C3187 1.350 . S
C3193 H3180 0.929 1_554 S
C3193 C3185 1.433 . S
C3193 N3195 1.384 1_554 S
N3194 C3190 1.427 . S
N3194 C3191 1.384 . S
N3195 C3187 1.427 1_556 S
N3195 C3193 1.384 1_556 S
H3196 C3202 0.930 . S
H3197 C3206 0.930 . S
H3198 C3211 0.929 . S
H3199 C3209 0.929 . S
H3200 C3204 0.929 . S
H3201 C3210 0.929 . S
C3202 H3196 0.930 . S
C3202 C3203 1.367 . S
C3202 C3210 1.378 . S
C3203 C3202 1.367 . S
C3203 C3211 1.433 . S
C3204 H3200 0.929 . S
C3204 C3206 1.378 . S
C3204 C3208 1.350 . S
C3205 C3208 1.463 . S
C3205 C3210 1.350 . S
C3205 N3213 1.427 . S
C3206 H3197 0.930 . S
C3206 C3204 1.378 . S
C3206 C3207 1.367 . S
C3207 C3206 1.367 . S
C3207 C3209 1.433 . S
C3208 C3204 1.350 . S
C3208 C3205 1.463 . S
C3208 N3212 1.427 . S
C3209 H3199 0.929 . S
C3209 C3207 1.433 . S
C3209 N3212 1.384 . S
C3210 H3201 0.929 . S
C3210 C3202 1.378 . S
C3210 C3205 1.350 . S
C3211 H3198 0.929 . S
C3211 C3203 1.433 . S
C3211 N3213 1.384 . S
N3212 C3208 1.427 . S
N3212 C3209 1.384 . S
N3213 C3205 1.427 . S
N3213 C3211 1.384 . S
H3214 C3220 0.930 . S
H3215 C3224 0.930 . S
H3216 C3229 0.929 . S
H3217 C3227 0.929 . S
H3218 C3222 0.929 . S
H3219 C3228 0.929 . S
C3220 H3214 0.930 . S
C3220 C3221 1.367 . S
C3220 C3228 1.378 . S
C3221 C3220 1.367 . S
C3221 C3229 1.433 . S
C3222 H3218 0.929 . S
C3222 C3224 1.378 . S
C3222 C3226 1.350 . S
C3223 C3226 1.463 . S
C3223 C3228 1.350 . S
C3223 N3231 1.427 . S
C3224 H3215 0.930 . S
C3224 C3222 1.378 . S
C3224 C3225 1.367 . S
C3225 C3224 1.367 . S
C3225 C3227 1.433 . S
C3226 C3222 1.350 . S
C3226 C3223 1.463 . S
C3226 N3230 1.427 . S
C3227 H3217 0.929 . S
C3227 C3225 1.433 . S
C3227 N3230 1.384 . S
C3228 H3219 0.929 . S
C3228 C3220 1.378 . S
C3228 C3223 1.350 . S
C3229 H3216 0.929 . S
C3229 C3221 1.433 . S
C3229 N3231 1.384 . S
N3230 C3226 1.427 . S
N3230 C3227 1.384 . S
N3231 C3223 1.427 . S
N3231 C3229 1.384 . S
C1511 C255 2.094 . S
C1515 C874 2.049 . S
C1529 C147 1.769 . S
C1533 C913 1.731 . S
C1547 C184 1.376 . S
C1551 C954 1.380 . S
C1569 C999 1.410 . S
C1565 C220 1.433 . S
C1583 C40 2.028 . S
C1587 C1043 1.998 . S
C1605 C1074 1.391 . S
C1601 C74 1.436 . S
C1623 C1122 2.013 . S
C1619 C110 2.010 . S
C1637 C14 1.671 . S
C1641 C1150 1.655 . S
C1659 C882 1.531 . S
C1655 C579 1.504 . S
C1673 C616 1.564 . S
C1677 C923 1.525 . S
C1695 C962 1.493 . S
C1691 C687 1.455 1_545 S
C1713 C994 1.533 . S
C1709 C436 1.526 . S
C1727 C580 0.205 . S
C1731 C1030 0.243 . S
C1749 C1082 2.245 . S
C1745 C615 2.267 . S
C1767 C1119 1.115 . S
C1763 C688 1.122 . S
C1785 C1153 1.981 . S
C1781 C435 1.985 . S
C1803 C879 1.835 . S
C1799 C410 1.890 . S
C1817 C722 2.043 . S
C1821 C1193 2.004 . S
C1839 C1239 1.293 . S
C1835 C842 1.353 . S
C1857 C1274 1.517 1_655 S
C1853 C794 1.553 . S
C1871 C302 1.934 . S
C1875 C1163 1.926 . S
C1889 C338 1.413 . S
C1893 C959 1.392 . S
C1907 C830 1.372 . S
C1911 C1322 1.389 . S
C1929 C1350 0.477 . S
C1925 C758 0.455 . S
C1947 C883 2.024 1_565 S
C1943 C158 1.980 . S
C1965 C1362 1.738 . S
C1961 C254 1.774 . S
C1979 C218 1.372 . S
C1983 C963 1.367 . S
C1997 C194 1.355 . S
C2001 C1310 1.396 . S
C2019 C1034 1.958 . S
C2015 C3 1.966 . S
C2033 C111 1.343 . S
C2037 C1243 1.291 . S
C2055 C1113 1.912 . S
C2051 C76 1.921 . S
C2073 C1399 1.687 . S
C2069 C50 1.643 . S
C2091 C873 1.511 . S
C2087 C364 1.510 . S
C2109 C1354 1.420 . S
C2105 C795 1.461 . S
C2123 C292 1.379 . S
C2127 C953 1.434 . S
C2141 C723 1.457 . S
C2145 C1323 1.443 . S
C2159 C363 0.169 . S
C2163 C1039 0.198 . S
C2181 C1233 2.227 . S
C2177 C796 2.233 . S
C2195 C291 1.091 . S
C2199 C1110 1.060 . S
C2213 C724 1.979 . S
C2217 C1402 1.971 . S
C2231 C482 1.792 . S
C2235 C870 1.844 . S
C2249 C434 2.026 . S
C2253 C1202 1.988 . S
C2267 C662 1.133 . S
C2271 C1070 1.254 . S
C2285 C614 1.572 . S
C2289 C1283 1.530 . S
C2307 C1394 1.921 . S
C2303 C698 1.837 . S
C2321 C554 1.324 . S
C2325 C950 1.382 . S
C2343 C993 1.335 . S
C2339 C650 1.309 . S
C2361 C919 0.487 . S
C2357 C506 0.460 . S
C2375 C183 2.088 . S
C2379 C1434 2.044 . S
C2397 C1353 1.722 . S
C2393 C219 1.766 . S
C2411 C256 1.376 . S
C2415 C1474 1.373 1_556 S
C2429 C148 1.435 . S
C2433 C1319 1.414 . S
C2447 C122 1.992 . S
C2451 C1203 2.058 . S
C2469 C1234 1.321 . S
C2465 C2 1.352 . S
C2487 C1282 1.876 . S
C2483 C39 1.874 . S
C2505 C1390 1.667 . S
C2501 C86 1.687 . S
C2523 C1442 1.552 . S
C2519 C651 1.522 . S
C2537 C472 1.562 . S
C2541 C1363 1.528 . S
C2559 C1482 1.474 . S
C2555 C507 1.453 . S
C2577 C1314 1.537 . S
C2573 C544 1.527 . S
C2595 C1190 0.239 . S
C2591 C652 0.184 . S
C2609 C471 2.251 . S
C2613 C1242 2.226 . S
C2631 C1279 1.050 . S
C2627 C508 1.060 . S
C2645 C543 1.996 . S
C2649 C1393 1.993 . S
C2667 C1439 1.841 . S
C2663 C806 1.915 . S
C2681 C326 2.025 . S
C2685 C1033 1.985 . S
C2703 C1079 1.271 . S
C2699 C374 1.322 . S
C2721 C1114 1.535 . S
C2717 C398 1.596 . S
C2739 C1403 1.912 . S
C2735 C770 1.917 . S
C2753 C734 1.402 . S
C2757 C1479 1.384 . S
C2775 C1002 1.376 . S
C2771 C362 1.361 . S
C2793 C910 0.486 . S
C2789 C290 0.482 . S
C2807 C230 1.982 . S
C2811 C1443 2.021 . S
C2829 C922 1.742 . S
C2825 C182 1.777 . S
C2843 C146 1.363 . S
C2847 C1483 1.367 . S
C2861 C266 1.367 . S
C2865 C990 1.404 . S
C2879 C75 2.030 . S
C2883 C1194 2.017 1_556 S
C2901 C1083 1.390 . S
C2897 C38 1.446 . S
C2915 C4 1.871 . S
C2919 C1273 1.866 . S
C2933 C112 1.699 . S
C2937 C1159 1.621 . S
C2955 C1433 1.517 . S
C2951 C832 1.513 . S
C2969 C399 1.475 . S
C2973 C914 1.422 . S
C2991 C1473 1.425 . S
C2987 C760 1.372 . S
C3005 C327 1.450 . S
C3009 C1003 1.443 . S
C3023 C831 0.204 . S
C3027 C1199 0.237 . S
C3045 C1073 2.221 . S
C3041 C400 2.226 1_556 S
C3059 C759 1.145 . S
C3063 C1270 1.109 . S
C3081 C1162 1.969 . S
C3077 C328 1.979 . S
C3099 C1430 1.860 . S
C3095 C626 1.808 . S
C3117 C1042 1.980 1_655 S
C3113 C542 2.019 . S
C3131 C590 1.139 . S
C3135 C1230 1.244 . S
C3153 C1123 1.521 . S
C3149 C470 1.574 . S
C3167 C518 1.798 . S
C3171 C1154 1.891 . S
C3185 C446 1.327 . S
C3189 C1470 1.378 . S
C3207 C1313 1.333 . S
C3203 C578 1.309 . S
C3225 C1359 0.479 . S
C3221 C686 0.432 . S
