# Generated by pormake.
# Topology pth, (4,4)-cn, num edge types: 1
# Building blocks:
#     Node 0, Type 0, BuildingBlock: AZAVOO_clean_sbu_0, # of connection points: 4
#     Node 1, Type 0, BuildingBlock: AZAVOO_clean_sbu_0, # of connection points: 4
#     Node 2, Type 0, BuildingBlock: AZAVOO_clean_sbu_0, # of connection points: 4
#     Node 3, Type 1, BuildingBlock: NAWXER_clean_sbu_0, # of connection points: 4
#     Node 4, Type 1, BuildingBlock: NAWXER_clean_sbu_0, # of connection points: 4
#     Node 5, Type 1, BuildingBlock: NAWXER_clean_sbu_0, # of connection points: 4
#     Edge 6, Type (0, 1), BuildingBlock: UVAHIK_clean_linker_0, # of connection points: 2
#     Edge 7, Type (0, 1), BuildingBlock: UVAHIK_clean_linker_0, # of connection points: 2
#     Edge 8, Type (0, 1), BuildingBlock: UVAHIK_clean_linker_0, # of connection points: 2
#     Edge 9, Type (0, 1), BuildingBlock: UVAHIK_clean_linker_0, # of connection points: 2
#     Edge 10, Type (0, 1), BuildingBlock: UVAHIK_clean_linker_0, # of connection points: 2
#     Edge 11, Type (0, 1), BuildingBlock: UVAHIK_clean_linker_0, # of connection points: 2
#     Edge 12, Type (0, 1), BuildingBlock: UVAHIK_clean_linker_0, # of connection points: 2
#     Edge 13, Type (0, 1), BuildingBlock: UVAHIK_clean_linker_0, # of connection points: 2
#     Edge 14, Type (0, 1), BuildingBlock: UVAHIK_clean_linker_0, # of connection points: 2
#     Edge 15, Type (0, 1), BuildingBlock: UVAHIK_clean_linker_0, # of connection points: 2
#     Edge 16, Type (0, 1), BuildingBlock: UVAHIK_clean_linker_0, # of connection points: 2
#     Edge 17, Type (0, 1), BuildingBlock: UVAHIK_clean_linker_0, # of connection points: 2
# Relax obj value: 0.079
# Max RMSD: 0.219
# Mean RMSD: 0.117
data_MOF--net-pth--node1-AZAVOO_clean_sbu_0--node2-NAWXER_clean_sbu_0--edge1-UVAHIK_clean_linker_0
_symmetry_space_group_name_H-M    P1
_symmetry_Int_Tables_number       1
_symmetry_cell_setting            triclinic
loop_
_symmetry_equiv_pos_as_xyz
'x, y, z'
_cell_length_a     29.511213
_cell_length_b     30.203609
_cell_length_c     74.057441
_cell_angle_alpha  91.103275
_cell_angle_beta   92.891349
_cell_angle_gamma 121.95011
loop_
_atom_site_label
_atom_site_type_symbol
_atom_site_fract_x
_atom_site_fract_y
_atom_site_fract_z
_atom_type_partial_charge
Mg0 Mg 0.11156 0.10484 0.0593 0.0
O1 O 0.03852 0.03694 0.04368 0.0
O2 O -0.00237 0.06662 0.02623 0.0
Mg3 Mg 0.0496 0.15629 0.02941 0.0
C4 C 0.0009 0.02908 0.03229 0.0
C5 C 0.10825 0.0056 0.07277 0.0
O6 O 0.11478 0.00079 0.05558 0.0
O7 O 0.0619 0.12118 0.07762 0.0
O8 O 0.03117 0.15851 0.05907 0.0
O9 O 0.16209 0.11125 0.0366 0.0
O10 O 0.12104 0.15434 0.03872 0.0
C11 C 0.03703 0.14472 0.07479 0.0
C12 C 0.15054 0.14361 0.02979 0.0
O13 O 0.10859 0.04567 0.07855 0.0
Mg14 Mg 0.97358 0.05079 0.37744 0.0
O15 O 0.04136 0.06202 0.39724 0.0
O16 O 0.07148 0.13524 0.41423 0.0
Mg17 Mg 0.02074 0.16936 0.40619 0.0
C18 C 0.07302 0.09505 0.4098 0.0
C19 C 0.98428 0.95474 0.36584 0.0
O20 O 0.97051 0.94025 0.38231 0.0
O21 O 0.0297 0.11731 0.3603 0.0
O22 O 0.0516 0.18778 0.37786 0.0
O23 O 0.91311 0.0064 0.398 0.0
O24 O 0.95469 0.09144 0.39539 0.0
C25 C 0.05275 0.16673 0.36291 0.0
C26 C 0.92155 0.05117 0.4037 0.0
O27 O 0.98578 0.99502 0.3603 0.0
Mg28 Mg 0.01917 0.03451 0.71772 0.0
O29 O 0.0846 0.10833 0.73361 0.0
O30 O 0.0471 0.14355 0.74894 0.0
Mg31 Mg 0.95601 0.08812 0.7445 0.0
C32 C 0.08833 0.144 0.74422 0.0
C33 C 0.08104 0.04406 0.68318 0.0
O34 O 0.03722 0.03804 0.67522 0.0
O35 O -0.00068 0.08011 0.69807 0.0
O36 O 0.9549 0.10562 0.71453 0.0
O37 O 0.01371 0.98682 0.74144 0.0
O38 O 0.96529 0.0221 0.73703 0.0
C39 C 0.97199 0.10139 0.69948 0.0
C40 C 0.97809 0.99557 0.74704 0.0
O41 O 0.08428 0.04105 0.70025 0.0
C42 C 0.08968 0.65577 0.244 0.0
C43 C 0.08394 0.53744 0.19665 0.0
O44 O 0.12968 0.66152 0.23614 0.0
Zn45 Zn 0.09006 0.59932 0.21981 0.0
O46 O 0.04238 0.61787 0.23892 0.0
Zn47 Zn 0.00353 0.55402 0.21935 0.0
O48 O 0.9681 0.49418 0.2344 0.0
O49 O 0.05656 0.53773 0.23792 0.0
O50 O 0.03788 0.52683 0.20097 0.0
O51 O 0.12628 0.57612 0.20453 0.0
O52 O 0.0504 0.62068 0.20042 0.0
O53 O 0.96306 0.5732 0.20322 0.0
C54 C 0.01076 0.50046 0.24216 0.0
C55 C 0.00287 0.60862 0.19545 0.0
C56 C 0.56738 0.05264 0.57454 0.0
C57 C 0.43267 0.04205 0.5302 0.0
O58 O 0.52515 0.01059 0.56832 0.0
Zn59 Zn 0.49896 0.0436 0.55212 0.0
O60 O 0.57829 0.09671 0.56877 0.0
Zn61 Zn 0.54686 0.12748 0.54979 0.0
O62 O 0.53567 0.17308 0.56522 0.0
O63 O 0.48443 0.08925 0.57068 0.0
O64 O 0.47336 0.08817 0.53383 0.0
O65 O 0.43083 0.00334 0.53747 0.0
O66 O 0.55604 0.0691 0.53247 0.0
O67 O 0.60077 0.15501 0.53199 0.0
C68 C 0.50018 0.13718 0.5743 0.0
C69 C 0.5925 0.11134 0.52603 0.0
C70 C 0.48843 0.51164 0.90572 0.0
C71 C 0.62515 0.65581 0.87274 0.0
O72 O 0.4883 0.55226 0.90148 0.0
Zn73 Zn 0.55479 0.58532 0.88924 0.0
O74 O 0.52701 0.50658 0.90142 0.0
Zn75 Zn 0.59889 0.54618 0.88789 0.0
O76 O 0.65363 0.56173 0.90736 0.0
O77 O 0.61255 0.60438 0.911 0.0
O78 O 0.63373 0.61906 0.87554 0.0
O79 O 0.58321 0.6523 0.87823 0.0
O80 O 0.53371 0.53316 0.8664 0.0
O81 O 0.58157 0.49647 0.86737 0.0
C82 C 0.64743 0.59392 0.91662 0.0
C83 C 0.5455 0.50172 0.85942 0.0
C84 C 0.99243 0.18752 0.08796 0.0
C85 C 0.02556 0.16743 0.09047 0.0
C86 C 0.99423 0.22284 0.10086 0.0
C87 C 0.05201 0.28855 0.14679 0.0
H88 H 0.05696 0.40509 0.12368 0.0
C89 C 0.1228 0.48678 0.18515 0.0
C90 C 0.08573 0.50233 0.18305 0.0
C91 C 0.11729 0.44604 0.17393 0.0
C92 C 0.05559 0.37279 0.13032 0.0
H93 H 0.08243 0.16447 0.10937 0.0
H94 H 0.08643 0.22677 0.13164 0.0
H95 H 0.03665 0.32833 0.10534 0.0
H96 H 0.01586 0.4899 0.16716 0.0
H97 H 0.00722 0.42022 0.14734 0.0
H98 H 0.07213 0.33421 0.17179 0.0
C99 C 0.05874 0.21515 0.1198 0.0
C100 C 0.04332 0.32846 0.11986 0.0
C101 C 0.05636 0.17922 0.10699 0.0
C102 C 0.04501 0.47863 0.16902 0.0
C103 C 0.04009 0.4388 0.15767 0.0
C104 C 0.06479 0.33328 0.15727 0.0
C105 C 0.02977 0.2394 0.11643 0.0
C106 C 0.04087 0.28551 0.12794 0.0
C107 C 0.07534 0.42123 0.16027 0.0
C108 C 0.06629 0.37563 0.14912 0.0
H109 H 0.96771 0.17863 0.07547 0.0
H110 H 0.96989 0.23933 0.09814 0.0
H111 H 0.05024 0.25617 0.15348 0.0
H112 H 0.15416 0.50414 0.19601 0.0
H113 H 0.1452 0.43338 0.17609 0.0
C114 C 0.90551 0.10685 0.4244 0.0
C115 C 0.89293 0.05677 0.41857 0.0
C116 C 0.87529 0.11315 0.43684 0.0
C117 C 0.77533 0.04602 0.47055 0.0
H118 H 0.74218 0.15175 0.46014 0.0
C119 C 0.61386 0.05823 0.50618 0.0
C120 C 0.62617 0.1078 0.51262 0.0
C121 C 0.64738 0.05324 0.49488 0.0
C122 C 0.75161 0.12255 0.46334 0.0
H123 H 0.83928 0.97384 0.42169 0.0
H124 H 0.78541 0.98477 0.44334 0.0
H125 H 0.79877 0.13904 0.44058 0.0
H126 H 0.68272 0.19117 0.51176 0.0
H127 H 0.74158 0.18238 0.49175 0.0
H128 H 0.72735 0.02908 0.49318 0.0
C129 C 0.81943 0.01927 0.4384 0.0
C130 C 0.78407 0.11521 0.45216 0.0
C131 C 0.85018 0.01296 0.42597 0.0
C132 C 0.6721 0.15248 0.507 0.0
C133 C 0.70573 0.14743 0.49556 0.0
C134 C 0.74266 0.05321 0.48169 0.0
C135 C 0.83107 0.06952 0.44366 0.0
C136 C 0.79637 0.07689 0.45563 0.0
C137 C 0.69407 0.09765 0.48965 0.0
C138 C 0.73032 0.09144 0.47817 0.0
H139 H 0.93785 0.14158 0.419 0.0
H140 H 0.88617 0.15241 0.4409 0.0
H141 H 0.78461 0.01671 0.47375 0.0
H142 H 0.5786 0.02288 0.51009 0.0
H143 H 0.6367 0.01444 0.49024 0.0
C144 C 0.91119 0.98365 0.76887 0.0
C145 C 0.9509 0.97436 0.76384 0.0
C146 C 0.88053 0.95893 0.78337 0.0
C147 C 0.87027 0.88286 0.82325 0.0
H148 H 0.71748 0.81898 0.81249 0.0
C149 C 0.71362 0.70638 0.85953 0.0
C150 C 0.66488 0.70151 0.86316 0.0
C151 C 0.75091 0.7475 0.84984 0.0
C152 C 0.76003 0.8374 0.81591 0.0
H153 H 0.99097 0.93336 0.7706 0.0
H154 H 0.93673 0.88942 0.79589 0.0
H155 H 0.77976 0.87678 0.79119 0.0
H156 H 0.61781 0.73706 0.85985 0.0
H157 H 0.68349 0.80952 0.84273 0.0
H158 H 0.85028 0.84227 0.84779 0.0
C159 C 0.92984 0.91644 0.78869 0.0
C160 C 0.79581 0.8705 0.80367 0.0
C161 C 0.96076 0.9414 0.77416 0.0
C162 C 0.65488 0.73964 0.85721 0.0
C163 C 0.69238 0.78096 0.84738 0.0
C164 C 0.83446 0.84981 0.83552 0.0
C165 C 0.88851 0.92401 0.79316 0.0
C166 C 0.85127 0.89281 0.80703 0.0
C167 C 0.74062 0.78501 0.84347 0.0
C168 C 0.77886 0.82578 0.83179 0.0
H169 H 0.9023 0.00866 0.76125 0.0
H170 H 0.84964 0.96628 0.78665 0.0
H171 H 0.91279 0.90013 0.82636 0.0
H172 H 0.72289 0.6779 0.86397 0.0
H173 H 0.78714 0.74883 0.84683 0.0
C174 C 0.1011 0.92116 0.07938 0.0
C175 C 0.09512 0.96249 0.08483 0.0
C176 C 0.08617 0.87918 0.09041 0.0
C177 C -0.00097 0.80794 0.12652 0.0
H178 H 0.09891 0.76379 0.13671 0.0
C179 C 0.97416 0.66672 0.18277 0.0
C180 C -0.00375 0.636 0.18037 0.0
C181 C 0.9797 0.7021 0.16977 0.0
C182 C 0.06987 0.77467 0.13374 0.0
H183 H 0.06849 0.99204 0.10612 0.0
H184 H 0.04209 0.91846 0.12529 0.0
H185 H 0.12248 0.83467 0.11677 0.0
H186 H 0.03771 0.61469 0.16225 0.0
H187 H 0.04456 0.6737 0.13911 0.0
H188 H 0.94608 0.74754 0.14335 0.0
C189 C 0.05831 0.91863 0.11248 0.0
C190 C 0.08368 0.81562 0.12237 0.0
C191 C 0.0739 0.96095 0.10156 0.0
C192 C 0.02047 0.63824 0.16434 0.0
C193 C 0.025 0.67259 0.15122 0.0
C194 C 0.98484 0.7664 0.13775 0.0
C195 C 0.06427 0.87733 0.107 0.0
C196 C 0.0486 0.83288 0.11872 0.0
C197 C 0.00685 0.70668 0.15411 0.0
C198 C 0.0202 0.74931 0.14155 0.0
H199 H 0.11715 0.92111 0.06655 0.0
H200 H 0.09097 0.8477 0.08584 0.0
H201 H 0.97103 0.82025 0.12378 0.0
H202 H 0.95599 0.666 0.1952 0.0
H203 H 0.96546 0.72785 0.17254 0.0
C204 C 0.14459 0.11994 0.43459 0.0
C205 C 0.10942 0.08417 0.42064 0.0
C206 C 0.17477 0.1076 0.44611 0.0
C207 C 0.22736 0.02133 0.45136 0.0
H208 H 0.23889 0.06249 0.50213 0.0
C209 C 0.3513 0.98922 0.5083 0.0
C210 C 0.38793 0.03615 0.51824 0.0
C211 C 0.3111 0.98648 0.49642 0.0
C212 C 0.2358 0.05051 0.48801 0.0
H213 H 0.0801 0.00799 0.40743 0.0
H214 H 0.13296 0.98653 0.42767 0.0
H215 H 0.18217 0.0755 0.4807 0.0
H216 H 0.41018 0.11627 0.52395 0.0
H217 H 0.34041 0.11115 0.50368 0.0
H218 H 0.28219 -0.00269 0.45883 0.0
C219 C 0.13708 0.02415 0.42963 0.0
C220 C 0.20365 0.05829 0.47571 0.0
C221 C 0.10677 0.03651 0.41806 0.0
C222 C 0.38285 0.07959 0.51642 0.0
C223 C 0.34258 0.0766 0.50489 0.0
C224 C 0.25958 0.01337 0.46374 0.0
C225 C 0.17056 0.05915 0.44402 0.0
C226 C 0.20034 0.04535 0.45716 0.0
C227 C 0.30641 0.03025 0.4947 0.0
C228 C 0.2653 0.0294 0.48209 0.0
H229 H 0.14809 0.15716 0.43691 0.0
H230 H 0.20122 0.136 0.45679 0.0
H231 H 0.22558 0.01091 0.43715 0.0
H232 H 0.35443 0.95522 0.50942 0.0
H233 H 0.2836 0.95026 0.48868 0.0
C234 C 0.18408 0.1758 0.75345 0.0
C235 C 0.1418 0.18466 0.75246 0.0
C236 C 0.23282 0.21149 0.76298 0.0
C237 C 0.28836 0.31816 0.79889 0.0
H238 H 0.4256 0.34341 0.78588 0.0
C239 C 0.48241 0.48483 0.83295 0.0
C240 C 0.51299 0.46945 0.84304 0.0
C241 C 0.44288 0.45075 0.81987 0.0
C242 C 0.3874 0.33631 0.78965 0.0
H243 H 0.11865 0.23944 0.75973 0.0
H244 H 0.20419 0.30275 0.77563 0.0
H245 H 0.34441 0.28427 0.76648 0.0
H246 H 0.52915 0.40777 0.84622 0.0
H247 H 0.45958 0.34776 0.82289 0.0
H248 H 0.33155 0.37134 0.82171 0.0
C249 C 0.19919 0.26725 0.7697 0.0
C250 C 0.34087 0.30243 0.77862 0.0
C251 C 0.15019 0.23116 0.76045 0.0
C252 C 0.50621 0.42067 0.83866 0.0
C253 C 0.46647 0.38639 0.82537 0.0
C254 C 0.33472 0.35242 0.80967 0.0
C255 C 0.24071 0.25727 0.77153 0.0
C256 C 0.29073 0.29323 0.78304 0.0
C257 C 0.43321 0.4006 0.81643 0.0
C258 C 0.38464 0.3621 0.80512 0.0
H259 H 0.17883 0.14019 0.7475 0.0
H260 H 0.26348 0.20209 0.76419 0.0
H261 H 0.25055 0.31097 0.80312 0.0
H262 H 0.48714 0.52245 0.83577 0.0
H263 H 0.41818 0.46278 0.81297 0.0
C264 C 0.92721 0.14221 0.68376 0.0
C265 C 0.94952 0.11113 0.68282 0.0
C266 C 0.89313 0.14011 0.66951 0.0
C267 C 0.79326 0.0443 0.63674 0.0
H268 H 0.78748 0.16008 0.61787 0.0
C269 C 0.62078 0.01542 0.58629 0.0
C270 C 0.60616 0.05254 0.5878 0.0
C271 C 0.66503 0.02211 0.59682 0.0
C272 C 0.78804 0.12722 0.62319 0.0
H273 H 0.95688 0.05663 0.66557 0.0
H274 H 0.89684 0.05263 0.64082 0.0
H275 H 0.86542 0.17734 0.637 0.0
H276 H 0.62337 0.12346 0.60219 0.0
H277 H 0.69819 0.13364 0.62117 0.0
H278 H 0.71493 0.99415 0.62375 0.0
C279 C 0.90577 0.07849 0.65261 0.0
C280 C 0.833 0.13724 0.63399 0.0
C281 C 0.94059 0.08126 0.66672 0.0
C282 C 0.63422 0.09452 0.60069 0.0
C283 C 0.67758 0.1007 0.61138 0.0
C284 C 0.74788 0.03425 0.62615 0.0
C285 C 0.8802 0.10636 0.65418 0.0
C286 C 0.83574 0.09592 0.64104 0.0
C287 C 0.6948 0.06565 0.60918 0.0
C288 C 0.74428 0.07566 0.6195 0.0
H289 H 0.93342 0.16567 0.69597 0.0
H290 H 0.8739 0.162 0.67106 0.0
H291 H 0.7941 0.01173 0.64222 0.0
H292 H 0.60005 0.98305 0.57628 0.0
H293 H 0.67717 0.99438 0.59471 0.0
C294 C 0.97767 0.93792 0.02486 0.0
C295 C 0.96267 0.9751 0.02486 0.0
C296 C 0.94387 0.88826 0.01642 0.0
C297 C 0.80595 0.79041 0.00217 0.0
H298 H 0.85986 0.75589 0.96098 0.0
C299 C 0.66637 0.65038 0.94431 0.0
C300 C 0.68134 0.62245 0.93331 0.0
C301 C 0.7007 0.68403 0.95855 0.0
C302 C 0.84439 0.76394 0.97271 0.0
H303 H 0.89964 0.98862 0.01664 0.0
H304 H 0.83968 0.90094 0.00238 0.0
H305 H 0.92011 0.8337 0.98048 0.0
H306 H 0.74297 0.60542 0.92941 0.0
H307 H 0.80319 0.66389 0.95478 0.0
H308 H 0.73043 0.72094 -0.00535 0.0
C309 C 0.87798 0.91076 0.00875 0.0
C310 C 0.8789 0.80878 0.98379 0.0
C311 C 0.91231 0.96088 0.01682 0.0
C312 C 0.73039 0.62656 0.93761 0.0
C313 C 0.76501 0.6604 0.95204 0.0
C314 C 0.77171 0.74505 0.99135 0.0
C315 C 0.8939 0.87439 0.00822 0.0
C316 C 0.85946 0.82325 -0.00178 0.0
C317 C 0.75105 0.69056 0.96241 0.0
C318 C 0.78989 0.73232 0.97602 0.0
H319 H 0.01636 0.94775 0.03085 0.0
H320 H 0.95689 0.86079 0.01616 0.0
H321 H 0.79034 0.80049 0.0134 0.0
H322 H 0.62868 0.64792 0.9415 0.0
H323 H 0.68857 0.70697 0.9659 0.0
C324 C 0.99038 0.87698 0.35792 0.0
C325 C 0.00236 0.92736 0.35427 0.0
C326 C 0.00846 0.85183 0.34704 0.0
C327 C 0.0613 0.8575 0.30189 0.0
H328 H 0.09398 0.75935 0.32221 0.0
C329 C 0.13107 0.7459 0.25852 0.0
C330 C 0.09591 0.69165 0.25903 0.0
C331 C 0.1297 0.77958 0.27148 0.0
C332 C 0.08537 0.787 0.31641 0.0
H333 H 0.04396 0.99153 0.33665 0.0
H334 H 0.07703 0.94876 0.31817 0.0
H335 H 0.07108 0.80891 0.34212 0.0
H336 H 0.03449 0.62973 0.27394 0.0
H337 H 0.03333 0.68824 0.29679 0.0
H338 H 0.07589 0.83544 0.27618 0.0
C339 C 0.05219 0.92765 0.32901 0.0
C340 C 0.07166 0.81501 0.32776 0.0
C341 C 0.03336 0.95235 0.33967 0.0
C342 C 0.06189 0.6715 0.27324 0.0
C343 C 0.06141 0.70492 0.28636 0.0
C344 C 0.07586 0.83011 0.29061 0.0
C345 C 0.03976 0.87689 0.33244 0.0
C346 C 0.05828 0.84984 0.32061 0.0
C347 C 0.09416 0.75927 0.28533 0.0
C348 C 0.08695 0.79384 0.2977 0.0
H349 H 0.96648 0.85669 0.36905 0.0
H350 H -0.00289 0.8124 0.34994 0.0
H351 H 0.05048 0.8832 0.29576 0.0
H352 H 0.15739 0.76227 0.2476 0.0
H353 H 0.15537 0.82142 0.27044 0.0
C354 C 0.13219 0.08301 0.65599 0.0
C355 C 0.12816 0.06016 0.67264 0.0
C356 C 0.17786 0.10122 0.64641 0.0
C357 C 0.31949 0.13424 0.65137 0.0
H358 H 0.30255 0.12018 0.59891 0.0
C359 C 0.46193 0.12094 0.60423 0.0
C360 C 0.47385 0.14862 0.58837 0.0
C361 C 0.42729 0.12242 0.61601 0.0
C362 C 0.30803 0.12524 0.61355 0.0
H363 H 0.16845 0.03771 0.69221 0.0
H364 H 0.247 0.06681 0.67507 0.0
H365 H 0.22501 0.09457 0.61607 0.0
H366 H 0.461 0.20117 0.57264 0.0
H367 H 0.39864 0.20254 0.59311 0.0
H368 H 0.40225 0.16167 0.6486 0.0
C369 C 0.21583 0.07255 0.66965 0.0
C370 C 0.26356 0.11059 0.62344 0.0
C371 C 0.1705 0.05526 0.67942 0.0
C372 C 0.45282 0.18006 0.58492 0.0
C373 C 0.417 0.18053 0.59652 0.0
C374 C 0.36379 0.14794 0.64144 0.0
C375 C 0.22032 0.0961 0.65304 0.0
C376 C 0.26846 0.11429 0.64252 0.0
C377 C 0.40294 0.1506 0.61191 0.0
C378 C 0.3583 0.14308 0.62245 0.0
H379 H 0.10055 0.08806 0.65053 0.0
H380 H 0.18004 0.12003 0.63391 0.0
H381 H 0.32529 0.13889 0.66599 0.0
H382 H 0.47757 0.09625 0.60709 0.0
H383 H 0.41678 0.09869 0.6277 0.0
C384 C 0.20806 0.16174 0.00373 0.0
C385 C 0.17325 0.1707 0.01311 0.0
C386 C 0.23551 0.19318 0.98963 0.0
C387 C 0.2435 0.29421 0.95935 0.0
H388 H 0.39418 0.34169 0.96182 0.0
C389 C 0.40641 0.47565 0.92356 0.0
C390 C 0.44527 0.46965 0.91564 0.0
C391 C 0.36838 0.43622 0.93389 0.0
C392 C 0.35206 0.32842 0.9608 0.0
H393 H 0.13787 0.21794 0.01443 0.0
H394 H 0.186 0.27281 0.99016 0.0
H395 H 0.33545 0.27553 0.9818 0.0
H396 H 0.47279 0.41638 0.91155 0.0
H397 H 0.40694 0.34843 0.92929 0.0
H398 H 0.26098 0.34844 0.93853 0.0
C399 C 0.19179 0.24127 -0.00654 0.0
C400 C 0.31828 0.29021 0.9722 0.0
C401 C 0.16428 0.20981 0.00747 0.0
C402 C 0.44405 0.42283 0.91768 0.0
C403 C 0.40633 0.38376 0.92791 0.0
C404 C 0.27751 0.33274 0.94795 0.0
C405 C 0.22885 0.23432 0.9847 0.0
C406 C 0.26358 0.27259 0.97164 0.0
C407 C 0.36877 0.39034 0.93643 0.0
C408 C 0.33213 0.35012 0.94856 0.0
H409 H 0.21558 0.13173 0.00768 0.0
H410 H 0.26304 0.18614 0.9829 0.0
H411 H 0.20148 0.28124 0.95849 0.0
H412 H 0.40623 0.51118 0.92217 0.0
H413 H 0.33987 0.44233 0.94035 0.0
C414 C 0.04057 0.17869 0.33024 0.0
C415 C 0.0691 0.1997 0.34714 0.0
C416 C 0.04036 0.21157 0.31724 0.0
C417 C 0.05509 0.34025 0.31772 0.0
H418 H 0.02794 0.31351 0.26568 0.0
C419 C 0.05038 0.48441 0.26955 0.0
C420 C 0.00971 0.46455 0.25551 0.0
C421 C 0.0563 0.45079 0.2806 0.0
C422 C 0.03486 0.32093 0.28024 0.0
H423 H 0.12603 0.2714 0.36266 0.0
H424 H 0.12802 0.32882 0.33964 0.0
H425 H 0.05074 0.25998 0.28371 0.0
H426 H 0.94243 0.39419 0.24219 0.0
H427 H 0.9531 0.33463 0.26162 0.0
H428 H 0.0399 0.40149 0.31423 0.0
C429 C 0.10357 0.28697 0.33674 0.0
C430 C 0.0482 0.29052 0.29055 0.0
C431 C 0.10306 0.25413 0.34984 0.0
C432 C 0.97369 0.41034 0.25309 0.0
C433 C 0.98021 0.37643 0.26401 0.0
C434 C 0.04226 0.37076 0.30743 0.0
C435 C 0.06939 0.26601 0.32084 0.0
C436 C 0.05866 0.29996 0.30944 0.0
C437 C 0.02213 0.39647 0.27769 0.0
C438 C 0.03211 0.36152 0.2886 0.0
H439 H 0.01391 0.13686 0.32775 0.0
H440 H 0.01377 0.19396 0.30513 0.0
H441 H 0.06111 0.34768 0.33227 0.0
H442 H 0.07875 0.52612 0.27165 0.0
H443 H 0.08911 0.46731 0.29096 0.0
loop_
_geom_bond_atom_site_label_1
_geom_bond_atom_site_label_2
_geom_bond_distance
_geom_bond_site_symmetry_2
_ccdc_geom_bond_type
Mg0 O1 2.028 . S
Mg0 O7 1.986 . S
Mg0 O9 2.114 . S
Mg0 O10 2.251 . S
Mg0 O13 2.010 . S
O1 Mg0 2.028 . S
O1 C4 1.250 . S
O2 Mg3 2.028 . S
O2 C4 1.248 . S
Mg3 O2 2.028 . S
Mg3 O8 2.032 . S
Mg3 O10 2.079 . S
C4 O1 1.250 . S
C4 O2 1.248 . S
C5 O6 1.264 . S
C5 O13 1.249 . S
O6 C5 1.264 . S
O7 Mg0 1.986 . S
O7 C11 1.246 . S
O8 Mg3 2.032 . S
O8 C11 1.259 . S
O9 Mg0 2.114 . S
O9 C12 1.252 . S
O10 Mg0 2.251 . S
O10 Mg3 2.079 . S
O10 C12 1.273 . S
C11 O7 1.246 . S
C11 O8 1.259 . S
C12 O9 1.252 . S
C12 O10 1.273 . S
O13 Mg0 2.010 . S
O13 C5 1.249 . S
Mg14 O15 2.028 1_655 S
Mg14 O21 1.986 1_655 S
Mg14 O23 2.114 . S
Mg14 O24 2.251 . S
Mg14 O27 2.010 1_545 S
O15 Mg14 2.028 1_455 S
O15 C18 1.250 . S
O16 Mg17 2.028 . S
O16 C18 1.248 . S
Mg17 O16 2.028 . S
Mg17 O22 2.032 . S
Mg17 O24 2.079 1_455 S
C18 O15 1.250 . S
C18 O16 1.248 . S
C19 O20 1.264 . S
C19 O27 1.249 . S
O20 C19 1.264 . S
O21 Mg14 1.986 1_455 S
O21 C25 1.246 . S
O22 Mg17 2.032 . S
O22 C25 1.259 . S
O23 Mg14 2.114 . S
O23 C26 1.252 . S
O24 Mg14 2.251 . S
O24 Mg17 2.079 1_655 S
O24 C26 1.273 . S
C25 O21 1.246 . S
C25 O22 1.259 . S
C26 O23 1.252 . S
C26 O24 1.273 . S
O27 Mg14 2.010 1_565 S
O27 C19 1.249 . S
Mg28 O29 2.028 . S
Mg28 O35 1.986 . S
Mg28 O37 2.114 1_545 S
Mg28 O38 2.251 1_455 S
Mg28 O41 2.010 . S
O29 Mg28 2.028 . S
O29 C32 1.250 . S
O30 Mg31 2.028 1_455 S
O30 C32 1.248 . S
Mg31 O30 2.028 1_655 S
Mg31 O36 2.032 . S
Mg31 O38 2.079 . S
C32 O29 1.250 . S
C32 O30 1.248 . S
C33 O34 1.264 1_545 S
C33 O41 1.249 . S
O34 C33 1.264 1_565 S
O35 Mg28 1.986 . S
O35 C39 1.246 1_455 S
O36 Mg31 2.032 . S
O36 C39 1.259 . S
O37 Mg28 2.114 1_565 S
O37 C40 1.252 1_455 S
O38 Mg28 2.251 1_655 S
O38 Mg31 2.079 . S
O38 C40 1.273 1_545 S
C39 O35 1.246 1_655 S
C39 O36 1.259 . S
C40 O37 1.252 1_655 S
C40 O38 1.273 1_565 S
O41 Mg28 2.010 . S
O41 C33 1.249 . S
C42 O44 1.247 . S
C42 O46 1.258 . S
C43 O50 1.247 . S
C43 O51 1.258 . S
O44 C42 1.247 . S
O44 Zn45 2.028 . S
Zn45 O44 2.028 . S
Zn45 O49 2.035 . S
Zn45 O51 2.035 . S
Zn45 O52 2.028 . S
O46 C42 1.258 . S
O46 Zn47 2.035 1_455 S
Zn47 O46 2.035 1_655 S
Zn47 O48 2.028 1_655 S
Zn47 O50 2.028 1_655 S
Zn47 O53 2.035 1_655 S
O48 Zn47 2.028 1_455 S
O48 C54 1.247 . S
O49 Zn45 2.035 . S
O49 C54 1.258 . S
O50 C43 1.247 . S
O50 Zn47 2.028 1_455 S
O51 C43 1.258 . S
O51 Zn45 2.035 . S
O52 Zn45 2.028 . S
O52 C55 1.247 . S
O53 Zn47 2.035 1_455 S
O53 C55 1.258 . S
C54 O48 1.247 . S
C54 O49 1.258 . S
C55 O52 1.247 . S
C55 O53 1.258 . S
C56 O58 1.247 . S
C56 O60 1.258 . S
C57 O64 1.247 . S
C57 O65 1.258 . S
O58 C56 1.247 . S
O58 Zn59 2.028 . S
Zn59 O58 2.028 . S
Zn59 O63 2.035 . S
Zn59 O65 2.035 . S
Zn59 O66 2.028 . S
O60 C56 1.258 . S
O60 Zn61 2.035 . S
Zn61 O60 2.035 . S
Zn61 O62 2.028 . S
Zn61 O64 2.028 . S
Zn61 O67 2.035 . S
O62 Zn61 2.028 . S
O62 C68 1.247 . S
O63 Zn59 2.035 . S
O63 C68 1.258 . S
O64 C57 1.247 . S
O64 Zn61 2.028 . S
O65 C57 1.258 . S
O65 Zn59 2.035 . S
O66 Zn59 2.028 . S
O66 C69 1.247 . S
O67 Zn61 2.035 . S
O67 C69 1.258 . S
C68 O62 1.247 . S
C68 O63 1.258 . S
C69 O66 1.247 . S
C69 O67 1.258 . S
C70 O72 1.247 . S
C70 O74 1.258 . S
C71 O78 1.247 . S
C71 O79 1.258 . S
O72 C70 1.247 . S
O72 Zn73 2.028 . S
Zn73 O72 2.028 . S
Zn73 O77 2.035 . S
Zn73 O79 2.035 . S
Zn73 O80 2.028 . S
O74 C70 1.258 . S
O74 Zn75 2.035 . S
Zn75 O74 2.035 . S
Zn75 O76 2.028 . S
Zn75 O78 2.028 . S
Zn75 O81 2.035 . S
O76 Zn75 2.028 . S
O76 C82 1.247 . S
O77 Zn73 2.035 . S
O77 C82 1.258 . S
O78 C71 1.247 . S
O78 Zn75 2.028 . S
O79 C71 1.258 . S
O79 Zn73 2.035 . S
O80 Zn73 2.028 . S
O80 C83 1.247 . S
O81 Zn75 2.035 . S
O81 C83 1.258 . S
C82 O76 1.247 . S
C82 O77 1.258 . S
C83 O80 1.247 . S
C83 O81 1.258 . S
C84 C85 1.349 . S
C84 C86 1.327 . S
C84 H109 0.950 . S
C85 C84 1.349 . S
C85 C101 1.349 . S
C86 C84 1.327 . S
C86 C105 1.429 . S
C86 H110 0.950 . S
C87 C104 1.574 . S
C87 C106 1.368 . S
C87 H111 0.949 . S
H88 C92 0.949 . S
C89 C90 1.349 . S
C89 C91 1.327 . S
C89 H112 0.950 . S
C90 C89 1.349 . S
C90 C102 1.349 . S
C91 C89 1.327 . S
C91 C107 1.429 . S
C91 H113 0.950 . S
C92 H88 0.949 . S
C92 C100 1.574 . S
C92 C108 1.368 . S
H93 C101 0.950 . S
H94 C99 0.950 . S
H95 C100 0.949 . S
H96 C102 0.950 . S
H97 C103 0.950 . S
H98 C104 0.949 . S
C99 H94 0.950 . S
C99 C101 1.327 . S
C99 C105 1.429 . S
C100 C92 1.574 . S
C100 H95 0.949 . S
C100 C106 1.368 . S
C101 C85 1.349 . S
C101 H93 0.950 . S
C101 C99 1.327 . S
C102 C90 1.349 . S
C102 H96 0.950 . S
C102 C103 1.327 . S
C103 H97 0.950 . S
C103 C102 1.327 . S
C103 C107 1.429 . S
C104 C87 1.574 . S
C104 H98 0.949 . S
C104 C108 1.368 . S
C105 C86 1.429 . S
C105 C99 1.429 . S
C105 C106 1.523 . S
C106 C87 1.368 . S
C106 C100 1.368 . S
C106 C105 1.523 . S
C107 C91 1.429 . S
C107 C103 1.429 . S
C107 C108 1.523 . S
C108 C92 1.368 . S
C108 C104 1.368 . S
C108 C107 1.523 . S
H109 C84 0.950 . S
H110 C86 0.950 . S
H111 C87 0.949 . S
H112 C89 0.950 . S
H113 C91 0.950 . S
C114 C115 1.349 . S
C114 C116 1.327 . S
C114 H139 0.950 . S
C115 C114 1.349 . S
C115 C131 1.349 . S
C116 C114 1.327 . S
C116 C135 1.429 . S
C116 H140 0.950 . S
C117 C134 1.574 . S
C117 C136 1.368 . S
C117 H141 0.949 . S
H118 C122 0.949 . S
C119 C120 1.349 . S
C119 C121 1.327 . S
C119 H142 0.950 . S
C120 C119 1.349 . S
C120 C132 1.349 . S
C121 C119 1.327 . S
C121 C137 1.429 . S
C121 H143 0.950 . S
C122 H118 0.949 . S
C122 C130 1.574 . S
C122 C138 1.368 . S
H123 C131 0.950 1_565 S
H124 C129 0.960 . S
H125 C130 0.949 . S
H126 C132 0.950 . S
H127 C133 0.950 . S
H128 C134 0.949 . S
C129 H124 0.960 . S
C129 C131 1.327 . S
C129 C135 1.429 . S
C130 C122 1.574 . S
C130 H125 0.949 . S
C130 C136 1.368 . S
C131 C115 1.349 . S
C131 H123 0.950 1_545 S
C131 C129 1.327 . S
C132 C120 1.349 . S
C132 H126 0.950 . S
C132 C133 1.327 . S
C133 H127 0.950 . S
C133 C132 1.327 . S
C133 C137 1.429 . S
C134 C117 1.574 . S
C134 H128 0.949 . S
C134 C138 1.368 . S
C135 C116 1.429 . S
C135 C129 1.429 . S
C135 C136 1.523 . S
C136 C117 1.368 . S
C136 C130 1.368 . S
C136 C135 1.523 . S
C137 C121 1.429 . S
C137 C133 1.429 . S
C137 C138 1.523 . S
C138 C122 1.368 . S
C138 C134 1.368 . S
C138 C137 1.523 . S
H139 C114 0.950 . S
H140 C116 0.950 . S
H141 C117 0.949 . S
H142 C119 0.950 . S
H143 C121 0.950 . S
C144 C145 1.349 . S
C144 C146 1.327 . S
C144 H169 0.950 1_565 S
C145 C144 1.349 . S
C145 C161 1.349 . S
C146 C144 1.327 . S
C146 C165 1.429 . S
C146 H170 0.950 . S
C147 C164 1.574 . S
C147 C166 1.368 . S
C147 H171 0.949 . S
H148 C152 0.949 . S
C149 C150 1.349 . S
C149 C151 1.327 . S
C149 H172 0.950 . S
C150 C149 1.349 . S
C150 C162 1.349 . S
C151 C149 1.327 . S
C151 C167 1.429 . S
C151 H173 0.950 . S
C152 H148 0.949 . S
C152 C160 1.574 . S
C152 C168 1.368 . S
H153 C161 0.950 . S
H154 C159 0.950 . S
H155 C160 0.949 . S
H156 C162 0.950 . S
H157 C163 0.950 . S
H158 C164 0.949 . S
C159 H154 0.950 . S
C159 C161 1.327 . S
C159 C165 1.429 . S
C160 C152 1.574 . S
C160 H155 0.949 . S
C160 C166 1.368 . S
C161 C145 1.349 . S
C161 H153 0.950 . S
C161 C159 1.327 . S
C162 C150 1.349 . S
C162 H156 0.950 . S
C162 C163 1.327 . S
C163 H157 0.950 . S
C163 C162 1.327 . S
C163 C167 1.429 . S
C164 C147 1.574 . S
C164 H158 0.949 . S
C164 C168 1.368 . S
C165 C146 1.429 . S
C165 C159 1.429 . S
C165 C166 1.523 . S
C166 C147 1.368 . S
C166 C160 1.368 . S
C166 C165 1.523 . S
C167 C151 1.429 . S
C167 C163 1.429 . S
C167 C168 1.523 . S
C168 C152 1.368 . S
C168 C164 1.368 . S
C168 C167 1.523 . S
H169 C144 0.950 1_545 S
H170 C146 0.950 . S
H171 C147 0.949 . S
H172 C149 0.950 . S
H173 C151 0.950 . S
C174 C175 1.349 . S
C174 C176 1.327 . S
C174 H199 0.950 . S
C175 C174 1.349 . S
C175 C191 1.349 . S
C176 C174 1.327 . S
C176 C195 1.429 . S
C176 H200 0.950 . S
C177 C194 1.574 . S
C177 C196 1.368 . S
C177 H201 0.949 . S
H178 C182 0.949 . S
C179 C180 1.349 . S
C179 C181 1.327 . S
C179 H202 0.950 1_455 S
C180 C179 1.349 . S
C180 C192 1.349 . S
C181 C179 1.327 . S
C181 C197 1.429 . S
C181 H203 0.950 . S
C182 H178 0.949 . S
C182 C190 1.574 . S
C182 C198 1.368 . S
H183 C191 0.950 . S
H184 C189 0.950 . S
H185 C190 0.949 . S
H186 C192 0.950 . S
H187 C193 0.950 . S
H188 C194 0.949 . S
C189 H184 0.950 . S
C189 C191 1.327 . S
C189 C195 1.429 . S
C190 C182 1.574 . S
C190 H185 0.949 . S
C190 C196 1.368 . S
C191 C175 1.349 . S
C191 H183 0.950 . S
C191 C189 1.327 . S
C192 C180 1.349 . S
C192 H186 0.950 . S
C192 C193 1.327 . S
C193 H187 0.950 . S
C193 C192 1.327 . S
C193 C197 1.429 . S
C194 C177 1.574 . S
C194 H188 0.949 . S
C194 C198 1.368 . S
C195 C176 1.429 . S
C195 C189 1.429 . S
C195 C196 1.523 . S
C196 C177 1.368 . S
C196 C190 1.368 . S
C196 C195 1.523 . S
C197 C181 1.429 . S
C197 C193 1.429 . S
C197 C198 1.523 . S
C198 C182 1.368 . S
C198 C194 1.368 . S
C198 C197 1.523 . S
H199 C174 0.950 . S
H200 C176 0.950 . S
H201 C177 0.949 . S
H202 C179 0.950 1_655 S
H203 C181 0.950 . S
C204 C205 1.349 . S
C204 C206 1.327 . S
C204 H229 0.950 . S
C205 C204 1.349 . S
C205 C221 1.349 . S
C206 C204 1.327 . S
C206 C225 1.429 . S
C206 H230 0.950 . S
C207 C224 1.574 . S
C207 C226 1.368 . S
C207 H231 0.949 . S
H208 C212 0.949 . S
C209 C210 1.349 . S
C209 C211 1.327 . S
C209 H232 0.950 . S
C210 C209 1.349 . S
C210 C222 1.349 . S
C211 C209 1.327 . S
C211 C227 1.429 . S
C211 H233 0.950 . S
C212 H208 0.949 . S
C212 C220 1.574 . S
C212 C228 1.368 . S
H213 C221 0.950 . S
H214 C219 0.950 . S
H215 C220 0.949 . S
H216 C222 0.950 . S
H217 C223 0.950 . S
H218 C224 0.949 . S
C219 H214 0.950 . S
C219 C221 1.327 . S
C219 C225 1.429 . S
C220 C212 1.574 . S
C220 H215 0.949 . S
C220 C226 1.368 . S
C221 C205 1.349 . S
C221 H213 0.950 . S
C221 C219 1.327 . S
C222 C210 1.349 . S
C222 H216 0.950 . S
C222 C223 1.327 . S
C223 H217 0.950 . S
C223 C222 1.327 . S
C223 C227 1.429 . S
C224 C207 1.574 . S
C224 H218 0.949 . S
C224 C228 1.368 . S
C225 C206 1.429 . S
C225 C219 1.429 . S
C225 C226 1.523 . S
C226 C207 1.368 . S
C226 C220 1.368 . S
C226 C225 1.523 . S
C227 C211 1.429 . S
C227 C223 1.429 . S
C227 C228 1.523 . S
C228 C212 1.368 . S
C228 C224 1.368 . S
C228 C227 1.523 . S
H229 C204 0.950 . S
H230 C206 0.950 . S
H231 C207 0.949 . S
H232 C209 0.950 . S
H233 C211 0.950 . S
C234 C235 1.349 . S
C234 C236 1.327 . S
C234 H259 0.950 . S
C235 C234 1.349 . S
C235 C251 1.349 . S
C236 C234 1.327 . S
C236 C255 1.429 . S
C236 H260 0.950 . S
C237 C254 1.574 . S
C237 C256 1.368 . S
C237 H261 0.949 . S
H238 C242 0.949 . S
C239 C240 1.349 . S
C239 C241 1.327 . S
C239 H262 0.950 . S
C240 C239 1.349 . S
C240 C252 1.349 . S
C241 C239 1.327 . S
C241 C257 1.429 . S
C241 H263 0.950 . S
C242 H238 0.949 . S
C242 C250 1.574 . S
C242 C258 1.368 . S
H243 C251 0.950 . S
H244 C249 0.950 . S
H245 C250 0.949 . S
H246 C252 0.950 . S
H247 C253 0.950 . S
H248 C254 0.949 . S
C249 H244 0.950 . S
C249 C251 1.327 . S
C249 C255 1.429 . S
C250 C242 1.574 . S
C250 H245 0.949 . S
C250 C256 1.368 . S
C251 C235 1.349 . S
C251 H243 0.950 . S
C251 C249 1.327 . S
C252 C240 1.349 . S
C252 H246 0.950 . S
C252 C253 1.327 . S
C253 H247 0.950 . S
C253 C252 1.327 . S
C253 C257 1.429 . S
C254 C237 1.574 . S
C254 H248 0.949 . S
C254 C258 1.368 . S
C255 C236 1.429 . S
C255 C249 1.429 . S
C255 C256 1.523 . S
C256 C237 1.368 . S
C256 C250 1.368 . S
C256 C255 1.523 . S
C257 C241 1.429 . S
C257 C253 1.429 . S
C257 C258 1.523 . S
C258 C242 1.368 . S
C258 C254 1.368 . S
C258 C257 1.523 . S
H259 C234 0.950 . S
H260 C236 0.950 . S
H261 C237 0.949 . S
H262 C239 0.950 . S
H263 C241 0.950 . S
C264 C265 1.349 . S
C264 C266 1.327 . S
C264 H289 0.960 . S
C265 C264 1.349 . S
C265 C281 1.349 . S
C266 C264 1.327 . S
C266 C285 1.429 . S
C266 H290 0.950 . S
C267 C284 1.574 . S
C267 C286 1.368 . S
C267 H291 0.949 . S
H268 C272 0.949 . S
C269 C270 1.349 . S
C269 C271 1.327 . S
C269 H292 0.950 . S
C270 C269 1.349 . S
C270 C282 1.349 . S
C271 C269 1.327 . S
C271 C287 1.429 . S
C271 H293 0.950 . S
C272 H268 0.949 . S
C272 C280 1.574 . S
C272 C288 1.368 . S
H273 C281 0.950 . S
H274 C279 0.950 . S
H275 C280 0.949 . S
H276 C282 0.950 . S
H277 C283 0.950 . S
H278 C284 0.949 . S
C279 H274 0.950 . S
C279 C281 1.327 . S
C279 C285 1.429 . S
C280 C272 1.574 . S
C280 H275 0.949 . S
C280 C286 1.368 . S
C281 C265 1.349 . S
C281 H273 0.950 . S
C281 C279 1.327 . S
C282 C270 1.349 . S
C282 H276 0.950 . S
C282 C283 1.327 . S
C283 H277 0.950 . S
C283 C282 1.327 . S
C283 C287 1.429 . S
C284 C267 1.574 . S
C284 H278 0.949 . S
C284 C288 1.368 . S
C285 C266 1.429 . S
C285 C279 1.429 . S
C285 C286 1.523 . S
C286 C267 1.368 . S
C286 C280 1.368 . S
C286 C285 1.523 . S
C287 C271 1.429 . S
C287 C283 1.429 . S
C287 C288 1.523 . S
C288 C272 1.368 . S
C288 C284 1.368 . S
C288 C287 1.523 . S
H289 C264 0.960 . S
H290 C266 0.950 . S
H291 C267 0.949 . S
H292 C269 0.950 . S
H293 C271 0.950 . S
C294 C295 1.345 1_565 S
C294 C296 1.327 . S
C294 H319 0.950 1_665 S
C295 C294 1.345 1_545 S
C295 C311 1.349 1_545 S
C296 C294 1.327 . S
C296 C315 1.429 . S
C296 H320 0.950 1_554 S
C297 C314 1.574 . S
C297 C316 1.368 . S
C297 H321 0.949 1_556 S
H298 C302 0.949 . S
C299 C300 1.349 . S
C299 C301 1.327 . S
C299 H322 0.950 . S
C300 C299 1.349 . S
C300 C312 1.349 . S
C301 C299 1.327 . S
C301 C317 1.429 . S
C301 H323 0.950 . S
C302 H298 0.949 . S
C302 C310 1.574 . S
C302 C318 1.368 . S
H303 C311 0.950 . S
H304 C309 0.950 . S
H305 C310 0.949 . S
H306 C312 0.950 . S
H307 C313 0.950 . S
H308 C314 0.949 . S
C309 H304 0.950 . S
C309 C311 1.327 . S
C309 C315 1.429 . S
C310 C302 1.574 . S
C310 H305 0.949 . S
C310 C316 1.368 . S
C311 C295 1.349 1_565 S
C311 H303 0.950 . S
C311 C309 1.327 . S
C312 C300 1.349 . S
C312 H306 0.950 . S
C312 C313 1.327 . S
C313 H307 0.950 . S
C313 C312 1.327 . S
C313 C317 1.429 . S
C314 C297 1.574 . S
C314 H308 0.949 . S
C314 C318 1.368 . S
C315 C296 1.429 . S
C315 C309 1.429 . S
C315 C316 1.523 1_554 S
C316 C297 1.368 . S
C316 C310 1.368 . S
C316 C315 1.523 1_556 S
C317 C301 1.429 . S
C317 C313 1.429 . S
C317 C318 1.523 . S
C318 C302 1.368 . S
C318 C314 1.368 . S
C318 C317 1.523 . S
H319 C294 0.950 1_445 S
H320 C296 0.950 1_556 S
H321 C297 0.949 1_554 S
H322 C299 0.950 . S
H323 C301 0.950 . S
C324 C325 1.349 . S
C324 C326 1.327 1_655 S
C324 H349 0.950 . S
C325 C324 1.349 . S
C325 C341 1.349 . S
C326 C324 1.327 1_455 S
C326 C345 1.429 . S
C326 H350 0.950 . S
C327 C344 1.574 . S
C327 C346 1.368 . S
C327 H351 0.949 . S
H328 C332 0.949 . S
C329 C330 1.349 . S
C329 C331 1.327 . S
C329 H352 0.950 . S
C330 C329 1.349 . S
C330 C342 1.349 . S
C331 C329 1.327 . S
C331 C347 1.429 . S
C331 H353 0.950 . S
C332 H328 0.949 . S
C332 C340 1.574 . S
C332 C348 1.368 . S
H333 C341 0.961 . S
H334 C339 0.950 . S
H335 C340 0.949 . S
H336 C342 0.950 . S
H337 C343 0.950 . S
H338 C344 0.949 . S
C339 H334 0.950 . S
C339 C341 1.316 1_455 S
C339 C345 1.429 . S
C340 C332 1.574 . S
C340 H335 0.949 . S
C340 C346 1.368 . S
C341 C325 1.349 . S
C341 H333 0.961 . S
C341 C339 1.316 1_655 S
C342 C330 1.349 . S
C342 H336 0.950 . S
C342 C343 1.327 . S
C343 H337 0.950 . S
C343 C342 1.327 . S
C343 C347 1.429 . S
C344 C327 1.574 . S
C344 H338 0.949 . S
C344 C348 1.368 . S
C345 C326 1.429 . S
C345 C339 1.429 . S
C345 C346 1.523 . S
C346 C327 1.368 . S
C346 C340 1.368 . S
C346 C345 1.523 . S
C347 C331 1.429 . S
C347 C343 1.429 . S
C347 C348 1.523 . S
C348 C332 1.368 . S
C348 C344 1.368 . S
C348 C347 1.523 . S
H349 C324 0.950 . S
H350 C326 0.950 . S
H351 C327 0.949 . S
H352 C329 0.950 . S
H353 C331 0.950 . S
C354 C355 1.349 . S
C354 C356 1.327 . S
C354 H379 0.950 1_545 S
C355 C354 1.349 . S
C355 C371 1.349 . S
C356 C354 1.327 . S
C356 C375 1.429 . S
C356 H380 0.950 . S
C357 C374 1.574 . S
C357 C376 1.368 . S
C357 H381 0.949 . S
H358 C362 0.949 . S
C359 C360 1.349 . S
C359 C361 1.327 . S
C359 H382 0.950 . S
C360 C359 1.349 . S
C360 C372 1.349 . S
C361 C359 1.327 . S
C361 C377 1.429 . S
C361 H383 0.950 . S
C362 H358 0.949 . S
C362 C370 1.574 . S
C362 C378 1.368 . S
H363 C371 0.950 . S
H364 C369 0.950 . S
H365 C370 0.949 . S
H366 C372 0.950 . S
H367 C373 0.950 . S
H368 C374 0.949 . S
C369 H364 0.950 . S
C369 C371 1.327 . S
C369 C375 1.429 . S
C370 C362 1.574 . S
C370 H365 0.949 . S
C370 C376 1.368 . S
C371 C355 1.349 . S
C371 H363 0.950 . S
C371 C369 1.327 . S
C372 C360 1.349 . S
C372 H366 0.950 . S
C372 C373 1.327 . S
C373 H367 0.950 . S
C373 C372 1.327 . S
C373 C377 1.429 . S
C374 C357 1.574 . S
C374 H368 0.949 . S
C374 C378 1.368 . S
C375 C356 1.429 . S
C375 C369 1.429 . S
C375 C376 1.523 . S
C376 C357 1.368 . S
C376 C370 1.368 . S
C376 C375 1.523 . S
C377 C361 1.429 . S
C377 C373 1.429 . S
C377 C378 1.523 . S
C378 C362 1.368 . S
C378 C374 1.368 . S
C378 C377 1.523 . S
H379 C354 0.950 1_565 S
H380 C356 0.950 . S
H381 C357 0.949 . S
H382 C359 0.950 . S
H383 C361 0.950 . S
C384 C385 1.349 . S
C384 C386 1.327 . S
C384 H409 0.950 . S
C385 C384 1.349 . S
C385 C401 1.349 . S
C386 C384 1.327 . S
C386 C405 1.429 . S
C386 H410 0.950 . S
C387 C404 1.574 . S
C387 C406 1.368 . S
C387 H411 0.949 . S
H388 C392 0.949 . S
C389 C390 1.349 . S
C389 C391 1.327 . S
C389 H412 0.950 . S
C390 C389 1.349 . S
C390 C402 1.349 . S
C391 C389 1.327 . S
C391 C407 1.429 . S
C391 H413 0.950 . S
C392 H388 0.949 . S
C392 C400 1.574 . S
C392 C408 1.368 . S
H393 C401 0.950 . S
H394 C399 0.950 1_556 S
H395 C400 0.949 1_554 S
H396 C402 0.950 . S
H397 C403 0.950 . S
H398 C404 0.949 . S
C399 H394 0.950 1_554 S
C399 C401 1.327 . S
C399 C405 1.429 . S
C400 C392 1.574 . S
C400 H395 0.949 1_556 S
C400 C406 1.368 . S
C401 C385 1.349 . S
C401 H393 0.950 . S
C401 C399 1.327 . S
C402 C390 1.349 . S
C402 H396 0.950 . S
C402 C403 1.327 . S
C403 H397 0.950 . S
C403 C402 1.327 . S
C403 C407 1.429 . S
C404 C387 1.574 . S
C404 H398 0.949 . S
C404 C408 1.368 . S
C405 C386 1.429 . S
C405 C399 1.429 . S
C405 C406 1.523 1_554 S
C406 C387 1.368 . S
C406 C400 1.368 . S
C406 C405 1.523 1_556 S
C407 C391 1.429 . S
C407 C403 1.429 . S
C407 C408 1.523 . S
C408 C392 1.368 . S
C408 C404 1.368 . S
C408 C407 1.523 . S
H409 C384 0.950 . S
H410 C386 0.950 . S
H411 C387 0.949 . S
H412 C389 0.950 . S
H413 C391 0.950 . S
C414 C415 1.349 . S
C414 C416 1.327 . S
C414 H439 0.950 . S
C415 C414 1.349 . S
C415 C431 1.349 . S
C416 C414 1.327 . S
C416 C435 1.429 . S
C416 H440 0.950 . S
C417 C434 1.574 . S
C417 C436 1.368 . S
C417 H441 0.949 . S
H418 C422 0.949 . S
C419 C420 1.349 . S
C419 C421 1.327 . S
C419 H442 0.950 . S
C420 C419 1.349 . S
C420 C432 1.349 . S
C421 C419 1.327 . S
C421 C437 1.429 . S
C421 H443 0.950 . S
C422 H418 0.949 . S
C422 C430 1.574 . S
C422 C438 1.368 . S
H423 C431 0.950 . S
H424 C429 0.950 . S
H425 C430 0.949 . S
H426 C432 0.950 . S
H427 C433 0.950 . S
H428 C434 0.949 . S
C429 H424 0.950 . S
C429 C431 1.327 . S
C429 C435 1.429 . S
C430 C422 1.574 . S
C430 H425 0.949 . S
C430 C436 1.368 . S
C431 C415 1.349 . S
C431 H423 0.950 . S
C431 C429 1.327 . S
C432 C420 1.349 . S
C432 H426 0.950 . S
C432 C433 1.327 . S
C433 H427 0.950 . S
C433 C432 1.327 . S
C433 C437 1.429 . S
C434 C417 1.574 . S
C434 H428 0.949 . S
C434 C438 1.368 . S
C435 C416 1.429 . S
C435 C429 1.429 . S
C435 C436 1.523 . S
C436 C417 1.368 . S
C436 C430 1.368 . S
C436 C435 1.523 . S
C437 C421 1.429 . S
C437 C433 1.429 . S
C437 C438 1.523 . S
C438 C422 1.368 . S
C438 C434 1.368 . S
C438 C437 1.523 . S
H439 C414 0.950 . S
H440 C416 0.950 . S
H441 C417 0.949 . S
H442 C419 0.950 . S
H443 C421 0.950 . S
C90 C43 1.357 . S
C85 C11 1.344 . S
C115 C26 1.474 . S
C120 C69 1.484 . S
C145 C40 1.360 . S
C150 C71 1.367 . S
C175 C5 1.177 1_565 S
C180 C55 1.341 . S
C210 C57 1.494 . S
C205 C18 1.475 . S
C235 C32 1.349 . S
C240 C83 1.370 . S
C270 C56 1.234 . S
C265 C39 1.223 . S
C295 C4 1.365 1_655 S
C300 C82 1.380 . S
C330 C42 1.350 . S
C325 C19 1.188 . S
C360 C68 1.262 . S
C355 C33 1.105 . S
C390 C70 1.378 . S
C385 C12 1.370 . S
C415 C25 1.350 . S
C420 C54 1.365 . S
