# Generated by pormake.
# Topology nia, (6,6)-cn, num edge types: 1
# Building blocks:
#     Node 0, Type 0, BuildingBlock: BETDIP_clean_sbu_0, # of connection points: 6
#     Node 1, Type 0, BuildingBlock: BETDIP_clean_sbu_0, # of connection points: 6
#     Node 2, Type 1, BuildingBlock: MIDCAF_clean_sbu_0, # of connection points: 6
#     Node 3, Type 1, BuildingBlock: MIDCAF_clean_sbu_0, # of connection points: 6
#     Edge 4, Type (0, 1), BuildingBlock: EZIPEK_clean_linker_0, # of connection points: 2
#     Edge 5, Type (0, 1), BuildingBlock: EZIPEK_clean_linker_0, # of connection points: 2
#     Edge 6, Type (0, 1), BuildingBlock: EZIPEK_clean_linker_0, # of connection points: 2
#     Edge 7, Type (0, 1), BuildingBlock: EZIPEK_clean_linker_0, # of connection points: 2
#     Edge 8, Type (0, 1), BuildingBlock: EZIPEK_clean_linker_0, # of connection points: 2
#     Edge 9, Type (0, 1), BuildingBlock: EZIPEK_clean_linker_0, # of connection points: 2
#     Edge 10, Type (0, 1), BuildingBlock: EZIPEK_clean_linker_0, # of connection points: 2
#     Edge 11, Type (0, 1), BuildingBlock: EZIPEK_clean_linker_0, # of connection points: 2
#     Edge 12, Type (0, 1), BuildingBlock: EZIPEK_clean_linker_0, # of connection points: 2
#     Edge 13, Type (0, 1), BuildingBlock: EZIPEK_clean_linker_0, # of connection points: 2
#     Edge 14, Type (0, 1), BuildingBlock: EZIPEK_clean_linker_0, # of connection points: 2
#     Edge 15, Type (0, 1), BuildingBlock: EZIPEK_clean_linker_0, # of connection points: 2
# Relax obj value: 0.358
# Max RMSD: 0.286
# Mean RMSD: 0.259
data_MOF--net-nia--node1-BETDIP_clean_sbu_0--node2-MIDCAF_clean_sbu_0--edge1-EZIPEK_clean_linker_0
_symmetry_space_group_name_H-M    P1
_symmetry_Int_Tables_number       1
_symmetry_cell_setting            triclinic
loop_
_symmetry_equiv_pos_as_xyz
'x, y, z'
_cell_length_a     22.178816
_cell_length_b     19.411456
_cell_length_c     26.735421
_cell_angle_alpha  104.90212
_cell_angle_beta   64.799523
_cell_angle_gamma 129.96551
loop_
_atom_site_label
_atom_site_type_symbol
_atom_site_fract_x
_atom_site_fract_y
_atom_site_fract_z
_atom_type_partial_charge
Tb0 Tb 0.00913 0.08164 0.99735 0.0
Tb1 Tb 0.01455 0.97097 0.04406 0.0
C2 C 0.97977 0.17043 0.97352 0.0
C3 C 0.96241 0.22261 0.95954 0.0
C4 C 0.87924 0.19183 0.97777 0.0
C5 C 0.85887 0.22714 0.95422 0.0
C6 C 0.92137 0.29326 0.91222 0.0
C7 C 0.00545 0.32874 0.89659 0.0
C8 C 0.02601 0.29363 0.92037 0.0
C9 C 0.15225 0.09985 0.94478 0.0
C10 C 0.07488 0.15718 0.09509 0.0
C11 C 0.04944 0.88551 0.06667 0.0
C12 C 0.02146 0.80706 0.09284 0.0
C13 C 0.04365 0.75236 0.05982 0.0
C14 C 0.05712 0.70839 0.08283 0.0
C15 C 0.0496 0.72046 0.13869 0.0
C16 C 0.01403 0.76241 0.17328 0.0
C17 C -0.00096 0.8048 0.15055 0.0
C18 C 0.86817 0.94491 0.09737 0.0
C19 C 0.95759 0.90302 0.93847 0.0
O20 O 0.91994 0.091 0.99777 0.0
O21 O 0.05594 0.20171 0.96532 0.0
O22 O 0.11297 0.0924 0.99615 0.0
O23 O 0.11171 0.09985 0.92152 0.0
O24 O 0.0314 0.15491 0.07239 0.0
O25 O 0.08975 0.09806 0.08089 0.0
O26 O 0.04212 0.8786 0.01926 0.0
O27 O 0.03847 0.942 0.09944 0.0
O28 O 0.90942 0.95802 0.0459 0.0
O29 O 0.90713 0.93982 0.11904 0.0
O30 O 0.98089 0.89105 0.97172 0.0
O31 O 0.96116 0.97397 0.94195 0.0
H32 H 0.82923 0.1371 1.00792 0.0
H33 H 0.7938 0.20003 0.96689 0.0
H34 H 0.05419 0.38041 0.86441 0.0
H35 H 0.09055 0.31796 0.90554 0.0
H36 H 0.06095 0.75278 0.01533 0.0
H37 H 0.08404 0.67545 0.05576 0.0
H38 H 0.00711 0.77132 0.2166 0.0
H39 H 0.98052 0.84528 0.17733 0.0
Tb40 Tb 0.09099 0.10584 0.54256 0.0
Tb41 Tb 0.93986 0.97216 0.51368 0.0
C42 C 0.19474 0.1833 0.59017 0.0
C43 C 0.2428 0.16456 0.60006 0.0
C44 C 0.243 0.09138 0.5754 0.0
C45 C 0.29753 0.08098 0.5796 0.0
C46 C 0.35143 0.14357 0.60896 0.0
C47 C 0.34948 0.21538 0.63448 0.0
C48 C 0.29575 0.22598 0.62989 0.0
C49 C 0.10211 0.18435 0.46609 0.0
C50 C 0.0925 0.95996 0.45688 0.0
C51 C 0.83369 0.8755 0.46681 0.0
C52 C 0.78503 0.88473 0.44903 0.0
C53 C 0.79689 0.87865 0.39265 0.0
C54 C 0.74453 0.876 0.37529 0.0
C55 C 0.67921 0.87837 0.41422 0.0
C56 C 0.6706 0.89062 0.47017 0.0
C57 C 0.72352 0.89409 0.48756 0.0
C58 C 0.93448 0.91774 0.5994 0.0
C59 C 0.94603 0.12487 0.59237 0.0
O60 O 0.11314 0.13156 0.61646 0.0
O61 O 0.21556 0.19735 0.53809 0.0
O62 O 0.04394 0.10561 0.48651 0.0
O63 O 0.15712 0.22075 0.48884 0.0
O64 O 0.13357 0.02992 0.48587 0.0
O65 O 0.01664 0.92703 0.46063 0.0
O66 O 0.9148 0.92564 0.43993 0.0
O67 O 0.81441 0.87207 0.52009 0.0
O68 O -0.00309 0.96102 0.55605 0.0
O69 O 0.87499 0.91319 0.59683 0.0
O70 O 0.91661 0.07019 0.55368 0.0
O71 O 0.00547 0.13576 0.60188 0.0
H72 H 0.2029 0.04418 0.55172 0.0
H73 H 0.29854 0.02545 0.55955 0.0
H74 H 0.39101 0.26436 0.65719 0.0
H75 H 0.29708 0.28339 0.64844 0.0
H76 H 0.84411 0.87172 0.36231 0.0
H77 H 0.75102 0.86556 0.33204 0.0
H78 H 0.61962 0.89142 0.50065 0.0
H79 H 0.71358 0.89979 0.5313 0.0
Zn80 Zn 0.35834 0.65291 0.17529 0.0
Zn81 Zn 0.22809 0.63002 0.37629 0.0
Zn82 Zn 0.30426 0.65035 0.27623 0.0
C83 C 0.41031 0.74895 0.34643 0.0
C84 C 0.18519 0.46663 0.35936 0.0
O85 O 0.24684 0.68822 0.25092 0.0
O86 O 0.29418 0.67555 0.16029 0.0
C87 C 0.50563 0.75945 0.18788 0.0
O88 O 0.41313 0.73096 0.2963 0.0
O89 O 0.3408 0.7164 0.38601 0.0
O90 O 0.16708 0.50644 0.40135 0.0
O91 O 0.22952 0.50779 0.31155 0.0
O92 O 0.48073 0.74024 0.14843 0.0
O93 O 0.45059 0.73159 0.23763 0.0
O94 O 0.23994 0.50943 0.25487 0.0
O95 O 0.30906 0.52513 0.16482 0.0
C96 C 0.25182 0.475 0.20702 0.0
O97 O 0.25112 0.73232 0.30908 0.0
O98 O 0.16562 0.67774 0.39356 0.0
C99 C 0.24684 0.6868 0.20247 0.0
C100 C 0.20045 0.73417 0.3566 0.0
Zn101 Zn 0.66306 0.41595 0.86695 0.0
Zn102 Zn 0.75957 0.39284 0.63704 0.0
Zn103 Zn 0.71239 0.40934 0.76084 0.0
C104 C 0.81866 0.57716 0.67188 0.0
C105 C 0.56186 0.26383 0.71197 0.0
O106 O 0.7711 0.37278 0.78543 0.0
O107 O 0.70916 0.3638 0.87665 0.0
C108 C 0.78718 0.5928 0.82344 0.0
O109 O 0.78434 0.54665 0.72207 0.0
O110 O 0.81896 0.52628 0.63104 0.0
O111 O 0.6399 0.32546 0.70298 0.0
O112 O 0.6391 0.32573 0.70501 0.0
O113 O 0.73843 0.54738 0.86808 0.0
O114 O 0.78453 0.55432 0.77647 0.0
O115 O 0.57077 0.33097 0.80898 0.0
O116 O 0.54097 0.35177 0.89852 0.0
C117 C 0.51638 0.3158 0.85799 0.0
O118 O 0.77889 0.34495 0.72782 0.0
O119 O 0.82154 0.34921 0.63558 0.0
C120 C 0.76061 0.35871 0.83401 0.0
C121 C 0.81627 0.32827 0.67927 0.0
C122 C 0.18654 0.78102 0.14228 0.0
C123 C 0.09833 0.71169 0.15738 0.0
C124 C 0.10562 0.62969 0.20783 0.0
C125 C 0.19349 0.69941 0.19319 0.0
N126 N 0.31624 0.84712 0.15474 0.0
N127 N 0.9713 0.57673 0.20937 0.0
C128 C 0.23369 0.77636 0.16222 0.0
C129 C 0.05699 0.63807 0.19184 0.0
N130 N 0.22526 0.85138 0.10871 0.0
N131 N 0.06972 0.55372 0.23458 0.0
H132 H 0.93447 0.5788 0.19616 0.0
H133 H 0.936 0.52671 0.23921 0.0
H134 H 0.10299 0.54676 0.24841 0.0
H135 H 0.00838 0.49575 0.2407 0.0
H136 H 0.29006 0.89695 0.0898 0.0
H137 H 0.19288 0.86291 0.09734 0.0
H138 H 0.34773 0.90945 0.1379 0.0
H139 H 0.35207 0.84673 0.17014 0.0
C140 C 0.38902 0.09264 0.65899 0.0
C141 C 0.41292 0.13895 0.61328 0.0
C142 C 0.55236 0.2566 0.61757 0.0
C143 C 0.52621 0.21546 0.6674 0.0
N144 N 0.43392 0.0783 0.72145 0.0
N145 N 0.52398 0.23476 0.53417 0.0
C146 C 0.44961 0.12718 0.68273 0.0
C147 C 0.49805 0.20909 0.58674 0.0
N148 N 0.30718 0.02056 0.68218 0.0
N149 N 0.62203 0.34333 0.60267 0.0
H150 H 0.48244 0.20092 0.51261 0.0
H151 H 0.58692 0.28207 0.51088 0.0
H152 H 0.66067 0.3851 0.62562 0.0
H153 H 0.63708 0.37715 0.56968 0.0
H154 H 0.28313 0.99089 0.72002 0.0
H155 H 0.26279 0.99281 0.66396 0.0
H156 H 0.38128 0.01155 0.73191 0.0
H157 H 0.47803 0.10212 0.73904 0.0
C158 C 0.06892 0.25859 0.17527 0.0
C159 C 0.11518 0.23181 0.13184 0.0
C160 C 0.2352 0.33943 0.16303 0.0
C161 C 0.19565 0.37778 0.19803 0.0
N162 N 0.07299 0.37343 0.23995 0.0
N163 N 0.25059 0.26295 0.07764 0.0
C164 C 0.1112 0.33601 0.20596 0.0
C165 C 0.2002 0.2753 0.1244 0.0
N166 N 0.98462 0.21012 0.18769 0.0
N167 N 0.30884 0.36843 0.165 0.0
H168 H 0.23137 0.22486 0.04472 0.0
H169 H 0.31492 0.29993 0.06828 0.0
H170 H 0.33561 0.41676 0.19292 0.0
H171 H 0.33789 0.33825 0.14329 0.0
H172 H 0.94595 0.21934 0.22317 0.0
H173 H 0.95173 0.15642 0.16461 0.0
H174 H 0.01734 0.35546 0.24025 0.0
H175 H 0.09807 0.42467 0.26694 0.0
C176 C 0.96876 0.27319 0.62334 0.0
C177 C 0.91337 0.17735 0.62401 0.0
C178 C 0.79247 0.18059 0.67112 0.0
C179 C 0.8479 0.27609 0.67174 0.0
N180 N 0.98749 0.41154 0.66076 0.0
N181 N 0.77369 0.04046 0.66077 0.0
C182 C 0.93568 0.32157 0.6521 0.0
C183 C 0.82552 0.13132 0.65178 0.0
N184 N 0.05218 0.31855 0.59198 0.0
N185 N 0.70821 0.13693 0.68681 0.0
H186 H 0.79588 1.0027 0.6482 0.0
H187 H 0.71025 1.00401 0.68528 0.0
H188 H 0.68136 0.17016 0.7034 0.0
H189 H 0.66568 0.06876 0.68066 0.0
H190 H 0.09353 0.38777 0.58462 0.0
H191 H 0.07905 0.28657 0.56917 0.0
H192 H 0.05146 0.44765 0.65218 0.0
H193 H 0.96444 0.44791 0.68176 0.0
C194 C 0.73936 0.92429 0.17345 0.0
C195 C 0.77418 0.89363 0.12356 0.0
C196 C 0.62993 0.76082 0.12985 0.0
C197 C 0.5966 0.80117 0.17253 0.0
N198 N 0.62175 0.92657 0.23215 0.0
N199 N 0.74976 0.7767 0.0559 0.0
C200 C 0.65182 0.8841 0.19393 0.0
C201 C 0.71861 0.81045 0.10199 0.0
N202 N 0.78913 0.98964 0.20263 0.0
N203 N 0.5764 0.67253 0.11804 0.0
H204 H 0.81237 0.8017 0.03898 0.0
H205 H 0.71343 0.72489 0.03334 0.0
H206 H 0.51174 0.63246 0.13981 0.0
H207 H 0.59636 0.63599 0.09126 0.0
H208 H 0.76609 0.00962 0.24146 0.0
H209 H 0.85136 0.01549 0.19128 0.0
H210 H 0.6605 0.99173 0.24488 0.0
H211 H 0.55839 0.89918 0.24795 0.0
C212 C 0.93999 0.83399 0.6565 0.0
C213 C 0.91058 0.83321 0.61804 0.0
C214 C 0.81157 0.66832 0.62626 0.0
C215 C 0.84657 0.66727 0.65954 0.0
N216 N 0.95544 0.75087 0.69856 0.0
N217 N 0.84028 0.74475 0.55196 0.0
C218 C 0.91386 0.7508 0.67287 0.0
C219 C 0.85285 0.74894 0.59872 0.0
N220 N 0.99246 0.91371 0.67745 0.0
N221 N 0.73712 0.59232 0.62175 0.0
H222 H 0.87514 0.80109 0.52726 0.0
H223 H 0.80398 0.68427 0.53381 0.0
H224 H 0.70186 0.53325 0.64413 0.0
H225 H 0.70579 0.59172 0.6014 0.0
H226 H 0.00974 0.91838 0.70951 0.0
H227 H 0.01409 0.97484 0.66495 0.0
H228 H 0.00951 0.80898 0.70528 0.0
H229 H 0.93937 0.69157 0.70912 0.0
C230 C 0.14545 0.89434 0.37003 0.0
C231 C 0.12569 0.90759 0.42795 0.0
C232 C 0.18438 0.83679 0.43066 0.0
C233 C 0.19056 0.80858 0.37526 0.0
N234 N 0.19756 0.83127 0.28855 0.0
N235 N 0.11113 0.87363 0.51512 0.0
C236 C 0.17666 0.84316 0.34382 0.0
C237 C 0.14139 0.87436 0.45865 0.0
N238 N 0.13753 0.93381 0.34 0.0
N239 N 0.22378 0.83196 0.45592 0.0
H240 H 0.07642 0.89717 0.53788 0.0
H241 H 0.11309 0.84106 0.53926 0.0
H242 H 0.2622 0.81217 0.43514 0.0
H243 H 0.2275 0.85888 0.49457 0.0
H244 H 0.15521 0.93255 0.29719 0.0
H245 H 0.116 0.9721 0.35799 0.0
H246 H 0.17853 0.84133 0.26347 0.0
H247 H 0.24065 0.81826 0.268 0.0
C248 C 0.29678 0.24876 0.91458 0.0
C249 C 0.24609 0.15381 0.92048 0.0
C250 C 0.37431 0.16312 0.87765 0.0
C251 C 0.42404 0.25737 0.86947 0.0
N252 N 0.43215 0.38683 0.86942 0.0
N253 N 0.23498 0.0191 0.90626 0.0
C254 C 0.38484 0.29898 0.88456 0.0
C255 C 0.28453 0.11052 0.90136 0.0
N256 N 0.26159 0.29187 0.94045 0.0
N257 N 0.41346 0.12478 0.86463 0.0
H258 H 0.17029 0.98015 0.92746 0.0
H259 H 0.25683 0.98133 0.88797 0.0
H260 H 0.47834 0.16068 0.84485 0.0
H261 H 0.38284 0.05875 0.87479 0.0
H262 H 0.29644 0.36149 0.94283 0.0
H263 H 0.19823 0.25823 0.96466 0.0
H264 H 0.40654 0.41899 0.87399 0.0
H265 H 0.49664 0.42495 0.8471 0.0
C266 C 0.0497 0.23313 0.42388 0.0
C267 C 0.11395 0.23186 0.42193 0.0
C268 C 0.21783 0.36062 0.35515 0.0
C269 C 0.15746 0.37501 0.36814 0.0
N270 N 0.01287 0.31797 0.40805 0.0
N271 N 0.2555 0.28035 0.3758 0.0
C272 C 0.07216 0.3083 0.40003 0.0
C273 C 0.1967 0.29086 0.38381 0.0
N274 N 0.96769 0.16131 0.44653 0.0
N275 N 0.29525 0.41341 0.31563 0.0
H276 H 0.23933 0.22325 0.38997 0.0
H277 H 0.31975 0.32743 0.35581 0.0
H278 H 0.31306 0.4644 0.29369 0.0
H279 H 0.34009 0.40256 0.3008 0.0
H280 H 0.91724 0.15494 0.44679 0.0
H281 H 0.95104 0.10251 0.45824 0.0
H282 H 0.95182 0.27943 0.43636 0.0
H283 H 0.02603 0.36701 0.38689 0.0
C284 C 0.90255 0.39913 0.89731 0.0
C285 C 0.89642 0.32004 0.88249 0.0
C286 C 0.80979 0.27053 0.82848 0.0
C287 C 0.81667 0.35008 0.84266 0.0
N288 N 0.88501 0.49987 0.87896 0.0
N289 N 0.86422 0.19254 0.82331 0.0
C290 C 0.86859 0.41782 0.87313 0.0
C291 C 0.85696 0.25994 0.84418 0.0
N292 N 0.93669 0.45365 0.93658 0.0
N293 N 0.75368 0.20254 0.80385 0.0
H294 H 0.89813 0.18285 0.8344 0.0
H295 H 0.8435 0.15195 0.79134 0.0
H296 H 0.71662 0.20751 0.79304 0.0
H297 H 0.73932 0.13903 0.79787 0.0
H298 H 0.93337 0.50611 0.95416 0.0
H299 H 0.96386 0.44295 0.95438 0.0
H300 H 0.92865 0.55477 0.89612 0.0
H301 H 0.86026 0.51539 0.86214 0.0
C302 C 0.55166 0.75443 0.39147 0.0
C303 C 0.61006 0.84794 0.39785 0.0
C304 C 0.53647 0.87836 0.37093 0.0
C305 C 0.4835 0.78595 0.35965 0.0
N306 N 0.44659 0.63728 0.35115 0.0
N307 N 0.66434 1.0007 0.39011 0.0
C308 C 0.49313 0.72444 0.36733 0.0
C309 C 0.6043 0.9107 0.38664 0.0
N310 N 0.55011 0.69402 0.4105 0.0
N311 N 0.52064 0.9342 0.36771 0.0
H312 H 0.71336 0.02592 0.403 0.0
H313 H 0.66859 0.05037 0.37724 0.0
H314 H 0.47301 0.91255 0.35446 0.0
H315 H 0.55142 1.00033 0.3808 0.0
H316 H 0.50268 0.62492 0.41292 0.0
H317 H 0.59188 0.71292 0.42876 0.0
H318 H 0.45761 0.5921 0.34995 0.0
H319 H 0.40111 0.61158 0.33449 0.0
C320 C 0.96687 0.79839 0.86236 0.0
C321 C 0.92396 0.83426 0.89713 0.0
C322 C 0.81903 0.73972 0.85168 0.0
C323 C 0.84986 0.68989 0.82838 0.0
N324 N 0.95623 0.67276 0.80702 0.0
N325 N 0.80223 0.83167 0.92766 0.0
C326 C 0.92579 0.7206 0.8315 0.0
C327 C 0.8491 0.80467 0.8917 0.0
N328 N 0.04728 0.83986 0.85779 0.0
N329 N 0.75801 0.72122 0.83717 0.0
H330 H 0.81683 0.87332 0.96077 0.0
H331 H 0.74338 0.80478 0.92839 0.0
H332 H 0.7356 0.67262 0.80804 0.0
H333 H 0.73682 0.75983 0.84928 0.0
H334 H 0.08395 0.82059 0.83015 0.0
H335 H 0.08049 0.8998 0.87736 0.0
H336 H 0.0052 0.68444 0.81351 0.0
H337 H 0.92932 0.61833 0.78189 0.0
loop_
_geom_bond_atom_site_label_1
_geom_bond_atom_site_label_2
_geom_bond_distance
_geom_bond_site_symmetry_2
_ccdc_geom_bond_type
Tb0 C2 2.809 . S
Tb0 O20 2.484 . S
Tb0 O21 2.440 1_655 S
Tb0 O22 2.658 1_655 S
Tb0 O23 2.409 1_655 S
Tb0 O24 2.378 1_656 S
Tb0 O28 2.325 1_546 S
Tb0 O31 2.341 1_545 S
Tb1 C11 2.809 . S
Tb1 O22 2.325 1_564 S
Tb1 O25 2.341 1_565 S
Tb1 O26 2.484 . S
Tb1 O27 2.440 1_455 S
Tb1 O28 2.658 1_455 S
Tb1 O29 2.409 1_455 S
Tb1 O30 2.378 1_455 S
C2 Tb0 2.809 . S
C2 C3 1.514 . S
C2 O20 1.248 . S
C2 O21 1.266 1_655 S
C3 C2 1.514 . S
C3 C4 1.359 . S
C3 C8 1.348 1_655 S
C4 C3 1.359 . S
C4 C5 1.380 . S
C4 H32 0.929 1_556 S
C5 C4 1.380 . S
C5 C6 1.347 . S
C5 H33 0.931 . S
C6 C5 1.347 . S
C6 C7 1.369 1_655 S
C7 C6 1.369 1_455 S
C7 C8 1.408 . S
C7 H34 0.930 . S
C8 C3 1.348 1_455 S
C8 C7 1.408 . S
C8 H35 0.930 . S
C9 O22 1.281 . S
C9 O23 1.254 . S
C10 O24 1.236 . S
C10 O25 1.266 . S
C11 Tb1 2.809 . S
C11 C12 1.514 . S
C11 O26 1.248 . S
C11 O27 1.266 1_455 S
C12 C11 1.514 . S
C12 C13 1.359 . S
C12 C17 1.348 1_455 S
C13 C12 1.359 . S
C13 C14 1.380 . S
C13 H36 0.929 . S
C14 C13 1.380 . S
C14 C15 1.347 . S
C14 H37 0.931 . S
C15 C14 1.347 . S
C15 C16 1.369 . S
C16 C15 1.369 . S
C16 C17 1.408 1_455 S
C16 H38 0.930 1_455 S
C17 C12 1.348 1_655 S
C17 C16 1.408 1_655 S
C17 H39 0.930 . S
C18 O28 1.281 . S
C18 O29 1.254 . S
C19 O30 1.236 1_556 S
C19 O31 1.266 . S
O20 Tb0 2.484 . S
O20 C2 1.248 . S
O21 Tb0 2.440 1_455 S
O21 C2 1.266 1_455 S
O22 Tb0 2.658 1_455 S
O22 Tb1 2.325 1_546 S
O22 C9 1.281 . S
O23 Tb0 2.409 1_455 S
O23 C9 1.254 . S
O24 Tb0 2.378 1_454 S
O24 C10 1.236 . S
O25 Tb1 2.341 1_545 S
O25 C10 1.266 . S
O26 Tb1 2.484 . S
O26 C11 1.248 . S
O27 Tb1 2.440 1_655 S
O27 C11 1.266 1_655 S
O28 Tb0 2.325 1_564 S
O28 Tb1 2.658 1_655 S
O28 C18 1.281 . S
O29 Tb1 2.409 1_655 S
O29 C18 1.254 . S
O30 Tb1 2.378 1_655 S
O30 C19 1.236 1_554 S
O31 Tb0 2.341 1_565 S
O31 C19 1.266 . S
H32 C4 0.929 1_554 S
H33 C5 0.931 . S
H34 C7 0.930 . S
H35 C8 0.930 . S
H36 C13 0.929 . S
H37 C14 0.931 . S
H38 C16 0.930 1_655 S
H39 C17 0.930 . S
Tb40 C42 2.809 . S
Tb40 O60 2.484 . S
Tb40 O61 2.440 . S
Tb40 O62 2.658 . S
Tb40 O63 2.409 . S
Tb40 O64 2.378 . S
Tb40 O68 2.325 1_445 S
Tb40 O71 2.341 1_455 S
Tb41 C51 2.809 . S
Tb41 O62 2.325 1_665 S
Tb41 O65 2.341 1_655 S
Tb41 O66 2.484 . S
Tb41 O67 2.440 . S
Tb41 O68 2.658 . S
Tb41 O69 2.409 . S
Tb41 O70 2.378 . S
C42 Tb40 2.809 . S
C42 C43 1.514 . S
C42 O60 1.248 . S
C42 O61 1.266 . S
C43 C42 1.514 . S
C43 C44 1.359 . S
C43 C48 1.348 . S
C44 C43 1.359 . S
C44 C45 1.380 . S
C44 H72 0.929 . S
C45 C44 1.380 . S
C45 C46 1.347 . S
C45 H73 0.931 . S
C46 C45 1.347 . S
C46 C47 1.369 . S
C47 C46 1.369 . S
C47 C48 1.408 . S
C47 H74 0.930 . S
C48 C43 1.348 . S
C48 C47 1.408 . S
C48 H75 0.930 . S
C49 O62 1.281 . S
C49 O63 1.254 . S
C50 O64 1.236 1_565 S
C50 O65 1.266 . S
C51 Tb41 2.809 . S
C51 C52 1.514 . S
C51 O66 1.248 . S
C51 O67 1.266 . S
C52 C51 1.514 . S
C52 C53 1.359 . S
C52 C57 1.348 . S
C53 C52 1.359 . S
C53 C54 1.380 . S
C53 H76 0.931 . S
C54 C53 1.380 . S
C54 C55 1.347 . S
C54 H77 0.931 . S
C55 C54 1.347 . S
C55 C56 1.369 . S
C56 C55 1.369 . S
C56 C57 1.408 . S
C56 H78 0.930 . S
C57 C52 1.348 . S
C57 C56 1.408 . S
C57 H79 0.930 . S
C58 O68 1.281 . S
C58 O69 1.254 . S
C59 O70 1.236 1_545 S
C59 O71 1.266 . S
O60 Tb40 2.484 . S
O60 C42 1.248 . S
O61 Tb40 2.440 . S
O61 C42 1.266 . S
O62 Tb40 2.658 . S
O62 Tb41 2.325 1_445 S
O62 C49 1.281 . S
O63 Tb40 2.409 . S
O63 C49 1.254 . S
O64 Tb40 2.378 . S
O64 C50 1.236 1_545 S
O65 Tb41 2.341 1_455 S
O65 C50 1.266 . S
O66 Tb41 2.484 . S
O66 C51 1.248 . S
O67 Tb41 2.440 . S
O67 C51 1.266 . S
O68 Tb40 2.325 1_665 S
O68 Tb41 2.658 . S
O68 C58 1.281 . S
O69 Tb41 2.409 . S
O69 C58 1.254 . S
O70 Tb41 2.378 . S
O70 C59 1.236 1_565 S
O71 Tb40 2.341 1_655 S
O71 C59 1.266 . S
H72 C44 0.929 . S
H73 C45 0.931 . S
H74 C47 0.930 . S
H75 C48 0.930 . S
H76 C53 0.931 . S
H77 C54 0.931 . S
H78 C56 0.930 . S
H79 C57 0.930 . S
Zn80 O86 1.920 . S
Zn80 O92 1.898 . S
Zn80 O95 1.905 . S
Zn81 O89 1.905 . S
Zn81 O90 1.898 . S
Zn81 O98 1.920 . S
Zn82 O85 2.080 . S
Zn82 O88 2.114 . S
Zn82 O91 2.120 . S
Zn82 O93 2.120 . S
Zn82 O94 2.114 . S
Zn82 O97 2.080 . S
C83 O88 1.166 . S
C83 O89 1.182 . S
C84 O90 1.167 . S
C84 O91 1.299 . S
O85 Zn82 2.080 . S
O85 C99 1.305 . S
O86 Zn80 1.920 . S
O86 C99 1.234 . S
C87 O92 1.167 . S
C87 O93 1.299 . S
O88 Zn82 2.114 . S
O88 C83 1.166 . S
O89 Zn81 1.905 . S
O89 C83 1.182 . S
O90 Zn81 1.898 . S
O90 C84 1.167 . S
O91 Zn82 2.120 . S
O91 C84 1.299 . S
O92 Zn80 1.898 . S
O92 C87 1.167 . S
O93 Zn82 2.120 . S
O93 C87 1.299 . S
O94 Zn82 2.114 . S
O94 C96 1.166 . S
O95 Zn80 1.905 . S
O95 C96 1.182 . S
C96 O94 1.166 . S
C96 O95 1.182 . S
O97 Zn82 2.080 . S
O97 C100 1.305 . S
O98 Zn81 1.920 . S
O98 C100 1.234 . S
C99 O85 1.305 . S
C99 O86 1.234 . S
C100 O97 1.305 . S
C100 O98 1.234 . S
Zn101 O107 1.920 . S
Zn101 O113 1.898 . S
Zn101 O116 1.905 . S
Zn102 O110 1.905 . S
Zn102 O111 1.898 . S
Zn102 O119 1.920 . S
Zn103 O106 2.080 . S
Zn103 O109 2.114 . S
Zn103 O112 2.120 . S
Zn103 O114 2.120 . S
Zn103 O115 2.114 . S
Zn103 O118 2.080 . S
C104 O109 1.166 . S
C104 O110 1.182 . S
C105 O111 1.167 . S
C105 O112 1.299 . S
O106 Zn103 2.080 . S
O106 C120 1.305 . S
O107 Zn101 1.920 . S
O107 C120 1.234 . S
C108 O113 1.167 . S
C108 O114 1.299 . S
O109 Zn103 2.114 . S
O109 C104 1.166 . S
O110 Zn102 1.905 . S
O110 C104 1.182 . S
O111 Zn102 1.898 . S
O111 C105 1.167 . S
O112 Zn103 2.120 . S
O112 C105 1.299 . S
O113 Zn101 1.898 . S
O113 C108 1.167 . S
O114 Zn103 2.120 . S
O114 C108 1.299 . S
O115 Zn103 2.114 . S
O115 C117 1.166 . S
O116 Zn101 1.905 . S
O116 C117 1.182 . S
C117 O115 1.166 . S
C117 O116 1.182 . S
O118 Zn103 2.080 . S
O118 C121 1.305 . S
O119 Zn102 1.920 . S
O119 C121 1.234 . S
C120 O106 1.305 . S
C120 O107 1.234 . S
C121 O118 1.305 . S
C121 O119 1.234 . S
C122 C123 1.363 . S
C122 C128 1.379 . S
C122 N130 1.356 . S
C123 C122 1.363 . S
C123 C129 1.363 . S
C124 C125 1.363 . S
C124 C129 1.379 . S
C124 N131 1.356 . S
C125 C124 1.363 . S
C125 C128 1.363 . S
N126 C128 1.356 . S
N126 H138 0.984 . S
N126 H139 0.985 . S
N127 C129 1.356 1_655 S
N127 H132 0.984 . S
N127 H133 0.985 . S
C128 C122 1.379 . S
C128 C125 1.363 . S
C128 N126 1.356 . S
C129 C123 1.363 . S
C129 C124 1.379 . S
C129 N127 1.356 1_455 S
N130 C122 1.356 . S
N130 H136 0.984 . S
N130 H137 0.984 . S
N131 C124 1.356 . S
N131 H134 0.984 . S
N131 H135 0.985 . S
H132 N127 0.984 . S
H133 N127 0.985 . S
H134 N131 0.984 . S
H135 N131 0.985 . S
H136 N130 0.984 . S
H137 N130 0.984 . S
H138 N126 0.984 . S
H139 N126 0.985 . S
C140 C141 1.363 . S
C140 C146 1.379 . S
C140 N148 1.356 . S
C141 C140 1.363 . S
C141 C147 1.363 . S
C142 C143 1.363 . S
C142 C147 1.379 . S
C142 N149 1.356 . S
C143 C142 1.363 . S
C143 C146 1.363 . S
N144 C146 1.356 . S
N144 H156 0.984 . S
N144 H157 0.985 . S
N145 C147 1.356 . S
N145 H150 0.984 . S
N145 H151 0.985 . S
C146 C140 1.379 . S
C146 C143 1.363 . S
C146 N144 1.356 . S
C147 C141 1.363 . S
C147 C142 1.379 . S
C147 N145 1.356 . S
N148 C140 1.356 . S
N148 H154 0.984 . S
N148 H155 0.984 . S
N149 C142 1.356 . S
N149 H152 0.984 . S
N149 H153 0.985 . S
H150 N145 0.984 . S
H151 N145 0.985 . S
H152 N149 0.984 . S
H153 N149 0.985 . S
H154 N148 0.984 . S
H155 N148 0.984 . S
H156 N144 0.984 . S
H157 N144 0.985 . S
C158 C159 1.363 . S
C158 C164 1.379 . S
C158 N166 1.356 1_455 S
C159 C158 1.363 . S
C159 C165 1.363 . S
C160 C161 1.363 . S
C160 C165 1.379 . S
C160 N167 1.356 . S
C161 C160 1.363 . S
C161 C164 1.363 . S
N162 C164 1.356 . S
N162 H174 0.984 . S
N162 H175 0.985 . S
N163 C165 1.356 . S
N163 H168 0.984 . S
N163 H169 0.985 1_554 S
C164 C158 1.379 . S
C164 C161 1.363 . S
C164 N162 1.356 . S
C165 C159 1.363 . S
C165 C160 1.379 . S
C165 N163 1.356 . S
N166 C158 1.356 1_655 S
N166 H172 0.984 . S
N166 H173 0.984 . S
N167 C160 1.356 . S
N167 H170 0.984 . S
N167 H171 0.985 . S
H168 N163 0.984 . S
H169 N163 0.985 1_556 S
H170 N167 0.984 . S
H171 N167 0.985 . S
H172 N166 0.984 . S
H173 N166 0.984 . S
H174 N162 0.984 . S
H175 N162 0.985 . S
C176 C177 1.363 . S
C176 C182 1.379 . S
C176 N184 1.356 . S
C177 C176 1.363 . S
C177 C183 1.363 . S
C178 C179 1.363 . S
C178 C183 1.379 . S
C178 N185 1.356 . S
C179 C178 1.363 . S
C179 C182 1.363 . S
N180 C182 1.356 . S
N180 H192 0.984 1_655 S
N180 H193 0.985 . S
N181 C183 1.356 . S
N181 H186 0.984 . S
N181 H187 0.985 . S
C182 C176 1.379 . S
C182 C179 1.363 . S
C182 N180 1.356 . S
C183 C177 1.363 . S
C183 C178 1.379 . S
C183 N181 1.356 . S
N184 C176 1.356 . S
N184 H190 0.984 1_655 S
N184 H191 0.984 . S
N185 C178 1.356 . S
N185 H188 0.984 . S
N185 H189 0.985 . S
H186 N181 0.984 . S
H187 N181 0.985 . S
H188 N185 0.984 . S
H189 N185 0.985 . S
H190 N184 0.984 1_455 S
H191 N184 0.984 . S
H192 N180 0.984 1_455 S
H193 N180 0.985 . S
C194 C195 1.363 . S
C194 C200 1.379 . S
C194 N202 1.356 . S
C195 C194 1.363 . S
C195 C201 1.363 . S
C196 C197 1.363 . S
C196 C201 1.379 . S
C196 N203 1.356 . S
C197 C196 1.363 . S
C197 C200 1.363 . S
N198 C200 1.356 . S
N198 H210 0.984 . S
N198 H211 0.985 . S
N199 C201 1.356 . S
N199 H204 0.984 . S
N199 H205 0.985 1_554 S
C200 C194 1.379 . S
C200 C197 1.363 . S
C200 N198 1.356 . S
C201 C195 1.363 . S
C201 C196 1.379 . S
C201 N199 1.356 . S
N202 C194 1.356 . S
N202 H208 0.984 1_565 S
N202 H209 0.984 . S
N203 C196 1.356 . S
N203 H206 0.984 . S
N203 H207 0.985 . S
H204 N199 0.984 . S
H205 N199 0.985 1_556 S
H206 N203 0.984 . S
H207 N203 0.985 . S
H208 N202 0.984 1_545 S
H209 N202 0.984 . S
H210 N198 0.984 . S
H211 N198 0.985 . S
C212 C213 1.363 . S
C212 C218 1.379 . S
C212 N220 1.356 . S
C213 C212 1.363 . S
C213 C219 1.363 . S
C214 C215 1.363 . S
C214 C219 1.379 . S
C214 N221 1.356 . S
C215 C214 1.363 . S
C215 C218 1.363 . S
N216 C218 1.356 . S
N216 H228 0.984 . S
N216 H229 0.985 . S
N217 C219 1.356 . S
N217 H222 0.984 . S
N217 H223 0.985 . S
C218 C212 1.379 . S
C218 C215 1.363 . S
C218 N216 1.356 . S
C219 C213 1.363 . S
C219 C214 1.379 . S
C219 N217 1.356 . S
N220 C212 1.356 . S
N220 H226 0.984 . S
N220 H227 0.984 . S
N221 C214 1.356 . S
N221 H224 0.984 . S
N221 H225 0.985 . S
H222 N217 0.984 . S
H223 N217 0.985 . S
H224 N221 0.984 . S
H225 N221 0.985 . S
H226 N220 0.984 . S
H227 N220 0.984 . S
H228 N216 0.984 . S
H229 N216 0.985 . S
C230 C231 1.363 . S
C230 C236 1.379 . S
C230 N238 1.356 . S
C231 C230 1.363 . S
C231 C237 1.363 . S
C232 C233 1.363 . S
C232 C237 1.379 . S
C232 N239 1.356 . S
C233 C232 1.363 . S
C233 C236 1.363 . S
N234 C236 1.356 . S
N234 H246 0.984 . S
N234 H247 0.985 . S
N235 C237 1.356 . S
N235 H240 0.984 . S
N235 H241 0.985 . S
C236 C230 1.379 . S
C236 C233 1.363 . S
C236 N234 1.356 . S
C237 C231 1.363 . S
C237 C232 1.379 . S
C237 N235 1.356 . S
N238 C230 1.356 . S
N238 H244 0.984 . S
N238 H245 0.984 . S
N239 C232 1.356 . S
N239 H242 0.984 . S
N239 H243 0.985 . S
H240 N235 0.984 . S
H241 N235 0.985 . S
H242 N239 0.984 . S
H243 N239 0.985 . S
H244 N238 0.984 . S
H245 N238 0.984 . S
H246 N234 0.984 . S
H247 N234 0.985 . S
C248 C249 1.363 . S
C248 C254 1.379 . S
C248 N256 1.356 . S
C249 C248 1.363 . S
C249 C255 1.363 . S
C250 C251 1.363 . S
C250 C255 1.379 . S
C250 N257 1.356 . S
C251 C250 1.363 . S
C251 C254 1.363 . S
N252 C254 1.356 . S
N252 H264 0.984 . S
N252 H265 0.985 . S
N253 C255 1.356 . S
N253 H258 0.984 . S
N253 H259 0.985 . S
C254 C248 1.379 . S
C254 C251 1.363 . S
C254 N252 1.356 . S
C255 C249 1.363 . S
C255 C250 1.379 . S
C255 N253 1.356 . S
N256 C248 1.356 . S
N256 H262 0.984 . S
N256 H263 0.984 . S
N257 C250 1.356 . S
N257 H260 0.984 . S
N257 H261 0.985 . S
H258 N253 0.984 . S
H259 N253 0.985 . S
H260 N257 0.984 . S
H261 N257 0.985 . S
H262 N256 0.984 . S
H263 N256 0.984 . S
H264 N252 0.984 . S
H265 N252 0.985 . S
C266 C267 1.363 . S
C266 C272 1.379 . S
C266 N274 1.356 . S
C267 C266 1.363 . S
C267 C273 1.363 . S
C268 C269 1.363 . S
C268 C273 1.379 . S
C268 N275 1.356 . S
C269 C268 1.363 . S
C269 C272 1.363 . S
N270 C272 1.356 . S
N270 H282 0.984 1_455 S
N270 H283 0.985 . S
N271 C273 1.356 . S
N271 H276 0.984 . S
N271 H277 0.985 . S
C272 C266 1.379 . S
C272 C269 1.363 . S
C272 N270 1.356 . S
C273 C267 1.363 . S
C273 C268 1.379 . S
C273 N271 1.356 . S
N274 C266 1.356 . S
N274 H280 0.984 1_455 S
N274 H281 0.984 . S
N275 C268 1.356 . S
N275 H278 0.984 . S
N275 H279 0.985 . S
H276 N271 0.984 . S
H277 N271 0.985 . S
H278 N275 0.984 . S
H279 N275 0.985 . S
H280 N274 0.984 1_655 S
H281 N274 0.984 . S
H282 N270 0.984 1_655 S
H283 N270 0.985 . S
C284 C285 1.363 . S
C284 C290 1.379 . S
C284 N292 1.356 . S
C285 C284 1.363 . S
C285 C291 1.363 . S
C286 C287 1.363 . S
C286 C291 1.379 . S
C286 N293 1.356 . S
C287 C286 1.363 . S
C287 C290 1.363 . S
N288 C290 1.356 . S
N288 H300 0.984 . S
N288 H301 0.985 . S
N289 C291 1.356 . S
N289 H294 0.984 . S
N289 H295 0.985 . S
C290 C284 1.379 . S
C290 C287 1.363 . S
C290 N288 1.356 . S
C291 C285 1.363 . S
C291 C286 1.379 . S
C291 N289 1.356 . S
N292 C284 1.356 . S
N292 H298 0.984 . S
N292 H299 0.984 . S
N293 C286 1.356 . S
N293 H296 0.984 . S
N293 H297 0.985 . S
H294 N289 0.984 . S
H295 N289 0.985 . S
H296 N293 0.984 . S
H297 N293 0.985 . S
H298 N292 0.984 . S
H299 N292 0.984 . S
H300 N288 0.984 . S
H301 N288 0.985 . S
C302 C303 1.363 . S
C302 C308 1.379 . S
C302 N310 1.356 . S
C303 C302 1.363 . S
C303 C309 1.363 . S
C304 C305 1.363 . S
C304 C309 1.379 . S
C304 N311 1.356 . S
C305 C304 1.363 . S
C305 C308 1.363 . S
N306 C308 1.356 . S
N306 H318 0.984 . S
N306 H319 0.985 . S
N307 C309 1.356 . S
N307 H312 0.984 . S
N307 H313 0.985 . S
C308 C302 1.379 . S
C308 C305 1.363 . S
C308 N306 1.356 . S
C309 C303 1.363 . S
C309 C304 1.379 . S
C309 N307 1.356 . S
N310 C302 1.356 . S
N310 H316 0.984 . S
N310 H317 0.984 . S
N311 C304 1.356 . S
N311 H314 0.984 . S
N311 H315 0.985 . S
H312 N307 0.984 . S
H313 N307 0.985 . S
H314 N311 0.984 . S
H315 N311 0.985 . S
H316 N310 0.984 . S
H317 N310 0.984 . S
H318 N306 0.984 . S
H319 N306 0.985 . S
C320 C321 1.363 . S
C320 C326 1.379 . S
C320 N328 1.356 . S
C321 C320 1.363 . S
C321 C327 1.363 . S
C322 C323 1.363 . S
C322 C327 1.379 . S
C322 N329 1.356 . S
C323 C322 1.363 . S
C323 C326 1.363 . S
N324 C326 1.356 . S
N324 H336 0.984 . S
N324 H337 0.985 . S
N325 C327 1.356 . S
N325 H330 0.984 . S
N325 H331 0.985 . S
C326 C320 1.379 . S
C326 C323 1.363 . S
C326 N324 1.356 . S
C327 C321 1.363 . S
C327 C322 1.379 . S
C327 N325 1.356 . S
N328 C320 1.356 . S
N328 H334 0.984 1_655 S
N328 H335 0.984 1_655 S
N329 C322 1.356 . S
N329 H332 0.984 . S
N329 H333 0.985 . S
H330 N325 0.984 . S
H331 N325 0.985 . S
H332 N329 0.984 . S
H333 N329 0.985 . S
H334 N328 0.984 1_455 S
H335 N328 0.984 1_455 S
H336 N324 0.984 . S
H337 N324 0.985 . S
C123 C15 1.429 . S
C125 C99 1.335 . S
C141 C46 1.108 . S
C143 C105 0.987 . S
C159 C10 1.524 . S
C161 C96 1.433 . S
C177 C59 2.245 . S
C179 C121 2.133 . S
C195 C18 2.076 . S
C197 C87 2.002 . S
C215 C104 1.797 . S
C213 C58 1.881 . S
C231 C50 1.911 . S
C233 C100 1.851 . S
C251 C117 2.194 . S
C249 C9 2.247 . S
C269 C84 2.112 . S
C267 C49 2.319 . S
C287 C120 1.480 . S
C285 C6 1.645 . S
C305 C83 1.049 . S
C303 C55 1.180 . S
C323 C108 1.119 . S
C321 C19 1.216 . S
