# Generated by pormake.
# Topology sit, (3,6)-cn, num edge types: 1
# Building blocks:
#     Node 0, Type 0, BuildingBlock: WUSLED_clean_sbu_0, # of connection points: 3
#     Node 1, Type 0, BuildingBlock: WUSLED_clean_sbu_0, # of connection points: 3
#     Node 2, Type 0, BuildingBlock: WUSLED_clean_sbu_0, # of connection points: 3
#     Node 3, Type 0, BuildingBlock: WUSLED_clean_sbu_0, # of connection points: 3
#     Node 4, Type 1, BuildingBlock: MIDCAF_clean_sbu_0, # of connection points: 6
#     Node 5, Type 1, BuildingBlock: MIDCAF_clean_sbu_0, # of connection points: 6
#     Edge 6, Type (0, 1), BuildingBlock: KIFKEQ_clean_linker_1, # of connection points: 2
#     Edge 7, Type (0, 1), BuildingBlock: KIFKEQ_clean_linker_1, # of connection points: 2
#     Edge 8, Type (0, 1), BuildingBlock: KIFKEQ_clean_linker_1, # of connection points: 2
#     Edge 9, Type (0, 1), BuildingBlock: KIFKEQ_clean_linker_1, # of connection points: 2
#     Edge 10, Type (0, 1), BuildingBlock: KIFKEQ_clean_linker_1, # of connection points: 2
#     Edge 11, Type (0, 1), BuildingBlock: KIFKEQ_clean_linker_1, # of connection points: 2
#     Edge 12, Type (0, 1), BuildingBlock: KIFKEQ_clean_linker_1, # of connection points: 2
#     Edge 13, Type (0, 1), BuildingBlock: KIFKEQ_clean_linker_1, # of connection points: 2
#     Edge 14, Type (0, 1), BuildingBlock: KIFKEQ_clean_linker_1, # of connection points: 2
#     Edge 15, Type (0, 1), BuildingBlock: KIFKEQ_clean_linker_1, # of connection points: 2
#     Edge 16, Type (0, 1), BuildingBlock: KIFKEQ_clean_linker_1, # of connection points: 2
#     Edge 17, Type (0, 1), BuildingBlock: KIFKEQ_clean_linker_1, # of connection points: 2
# Relax obj value: 0.107
# Max RMSD: 0.192
# Mean RMSD: 0.104
data_MOF--net-sit--node1-WUSLED_clean_sbu_0--node2-MIDCAF_clean_sbu_0--edge1-KIFKEQ_clean_linker_1
_symmetry_space_group_name_H-M    P1
_symmetry_Int_Tables_number       1
_symmetry_cell_setting            triclinic
loop_
_symmetry_equiv_pos_as_xyz
'x, y, z'
_cell_length_a     30.577015
_cell_length_b     40.310975
_cell_length_c     47.134998
_cell_angle_alpha  90.500308
_cell_angle_beta   89.042908
_cell_angle_gamma 83.280956
loop_
_atom_site_label
_atom_site_type_symbol
_atom_site_fract_x
_atom_site_fract_y
_atom_site_fract_z
_atom_type_partial_charge
C0 C 0.96256 0.36369 0.02562 0.0
C1 C 0.97354 0.39375 0.01421 0.0
C2 C 0.89791 0.40816 -0.00086 0.0
C3 C 0.94149 0.41584 0.00119 0.0
C4 C 0.88696 0.37828 0.0112 0.0
C5 C 0.91904 0.35626 0.0243 0.0
U6 U 0.08301 0.33261 0.03173 0.0
O7 O 0.1229 0.3128 0.06748 0.0
O8 O 0.11802 0.28164 0.02954 0.0
C9 C 0.13178 0.283 0.05575 0.0
C10 C -0.00305 0.33916 0.0371 0.0
C11 C 0.12314 0.25488 0.07392 0.0
C12 C 0.07429 0.22771 0.10492 0.0
C13 C 0.08146 0.25359 0.08644 0.0
C14 C 0.15008 0.20357 0.09792 0.0
C15 C 0.10865 0.20254 0.11117 0.0
C16 C 0.15722 0.22954 0.07949 0.0
C17 C 0.16203 0.38611 0.99176 0.0
C18 C 0.21526 0.42657 0.99093 0.0
C19 C 0.2252 0.37861 0.95924 0.0
C20 C 0.18682 0.36757 0.97039 0.0
C21 C 0.23962 0.40847 0.96913 0.0
C22 C 0.17684 0.41559 0.002 0.0
C23 C 0.11863 0.37724 0.0015 0.0
O24 O 0.01873 0.31961 0.01793 0.0
O25 O 0.02266 0.35089 0.05589 0.0
O26 O 0.10935 0.38103 0.02876 0.0
O27 O 0.1051 0.35021 0.99048 0.0
H28 H 0.0071 0.39982 0.01489 0.0
H29 H 0.95099 0.43874 0.99244 0.0
H30 H 0.85396 0.37128 0.00961 0.0
H31 H 0.91011 0.33302 0.03277 0.0
H32 H 0.04216 0.22808 0.11501 0.0
H33 H 0.05471 0.27297 0.08235 0.0
H34 H 0.17711 0.18443 0.10192 0.0
H35 H 0.18957 0.23006 0.06988 0.0
H36 H 0.22572 0.4494 -0.00066 0.0
H37 H 0.24279 0.36425 0.94222 0.0
H38 H 0.17609 0.34497 0.96172 0.0
H39 H 0.15815 0.4306 0.01823 0.0
C40 C 0.90537 0.72643 0.0234 0.0
C41 C 0.92095 0.70027 0.00468 0.0
C42 C 0.84628 0.68672 -0.00193 0.0
C43 C 0.89173 0.68064 0.99212 0.0
C44 C 0.83086 0.71266 0.01726 0.0
C45 C 0.86022 0.73241 0.02977 0.0
U46 U 0.02195 0.74402 0.02761 0.0
O47 O 0.0531 0.79057 0.02534 0.0
O48 O 0.06367 0.75791 0.06225 0.0
C49 C 0.07049 0.78641 0.05056 0.0
C50 C 0.93652 0.74769 0.03542 0.0
C51 C 0.06577 0.81588 0.06953 0.0
C52 C 0.02696 0.8502 0.10682 0.0
C53 C 0.02879 0.82343 0.08747 0.0
C54 C 0.09835 0.86268 0.08981 0.0
C55 C 0.06211 0.8698 0.10855 0.0
C56 C 0.10012 0.83599 0.07053 0.0
C57 C 0.10223 0.68207 0.98249 0.0
C58 C 0.17525 0.65138 0.98708 0.0
C59 C 0.14899 0.66887 0.94075 0.0
C60 C 0.10935 0.68322 0.95305 0.0
C61 C 0.18234 0.65274 0.9576 0.0
C62 C 0.13558 0.66597 -0.00055 0.0
C63 C 0.05869 0.69551 0.99448 0.0
O64 O 0.96479 0.73263 0.05321 0.0
O65 O 0.95511 0.76577 0.01665 0.0
O66 O 0.04167 0.72466 0.98493 0.0
O67 O 0.05216 0.69211 0.02189 0.0
H68 H 0.95578 0.69524 -0.00044 0.0
H69 H 0.90477 0.66063 0.97777 0.0
H70 H 0.79599 0.71822 0.02205 0.0
H71 H 0.84763 0.75256 0.04412 0.0
H72 H -0.00126 0.85477 0.1211 0.0
H73 H 0.00189 0.80818 0.08698 0.0
H74 H 0.12566 0.87753 0.09024 0.0
H75 H 0.12884 0.83063 0.05674 0.0
H76 H 0.20053 0.63932 0.0006 0.0
H77 H 0.15325 0.66991 0.91792 0.0
H78 H 0.08392 0.69489 0.93942 0.0
H79 H 0.13098 0.66436 0.02221 0.0
C80 C 0.45485 0.86378 0.51744 0.0
C81 C 0.46005 0.87335 0.48912 0.0
C82 C 0.39186 0.91122 0.49243 0.0
C83 C 0.42879 0.89654 0.47671 0.0
C84 C 0.38715 0.90196 0.52099 0.0
C85 C 0.41831 0.8784 0.53332 0.0
U86 U 0.57417 0.83116 0.52669 0.0
O87 O 0.61244 0.81313 0.56367 0.0
O88 O 0.60865 0.77997 0.52679 0.0
C89 C 0.62184 0.78282 0.553 0.0
C90 C 0.48805 0.83942 0.53065 0.0
C91 C 0.61468 0.75507 0.57206 0.0
C92 C 0.57477 0.73157 0.61061 0.0
C93 C 0.57879 0.75721 0.59121 0.0
C94 C 0.64138 0.70074 0.59109 0.0
C95 C 0.60647 0.70325 0.61114 0.0
C96 C 0.64545 0.72642 0.57182 0.0
C97 C 0.65599 0.88151 0.48581 0.0
C98 C 0.71652 0.91535 0.49073 0.0
C99 C 0.71311 0.88034 0.44904 0.0
C100 C 0.67433 0.8694 0.45964 0.0
C101 C 0.73429 0.90385 0.46425 0.0
C102 C 0.67776 0.90441 0.50133 0.0
C103 C 0.61189 0.87354 0.49515 0.0
O104 O 0.51009 0.81771 0.51315 0.0
O105 O 0.51322 0.85199 0.5493 0.0
O106 O 0.6011 0.87903 0.52204 0.0
O107 O 0.59855 0.846 0.485 0.0
H108 H 0.4882 0.86275 0.47642 0.0
H109 H 0.43327 0.9024 0.45456 0.0
H110 H 0.35953 0.91301 0.53389 0.0
H111 H 0.41395 0.87168 0.55531 0.0
H112 H 0.54773 0.73458 0.6259 0.0
H113 H 0.5545 0.77906 0.59166 0.0
H114 H 0.66597 0.6791 0.59053 0.0
H115 H 0.6732 0.7242 0.55705 0.0
H116 H 0.73163 0.93379 0.50283 0.0
H117 H 0.72623 0.87064 0.42875 0.0
H118 H 0.65813 0.85211 0.44694 0.0
H119 H 0.66416 0.91477 0.5213 0.0
C120 C 0.39635 0.23297 0.52197 0.0
C121 C 0.4104 0.20533 0.5044 0.0
C122 C 0.33429 0.19751 0.49476 0.0
C123 C 0.3797 0.18774 0.49095 0.0
C124 C 0.32041 0.22492 0.51284 0.0
C125 C 0.35122 0.24251 0.52629 0.0
U126 U 0.51487 0.24531 0.52846 0.0
O127 O 0.54944 0.2902 0.52746 0.0
O128 O 0.55592 0.25707 0.56426 0.0
C129 C 0.56529 0.28519 0.55302 0.0
C130 C 0.42901 0.25236 0.5347 0.0
C131 C 0.56129 0.31444 0.57219 0.0
C132 C 0.51774 0.35838 0.59951 0.0
C133 C 0.52018 0.33104 0.58068 0.0
C134 C 0.59738 0.35281 0.60123 0.0
C135 C 0.55638 0.36952 0.61015 0.0
C136 C 0.59974 0.32564 0.58245 0.0
C137 C 0.59268 0.1811 0.48406 0.0
C138 C 0.66985 0.15997 0.48968 0.0
C139 C 0.63539 0.15543 0.44411 0.0
C140 C 0.59571 0.17085 0.45555 0.0
C141 C 0.6729 0.14978 0.46102 0.0
C142 C 0.63006 0.17565 0.50111 0.0
C143 C 0.54964 0.19611 0.49538 0.0
O144 O 0.45553 0.23592 0.55277 0.0
O145 O 0.44978 0.2697 0.51646 0.0
O146 O 0.53537 0.2259 0.48588 0.0
O147 O 0.54199 0.19271 0.52267 0.0
H148 H 0.44521 0.19771 0.50071 0.0
H149 H 0.39158 0.1671 0.47693 0.0
H150 H 0.28569 0.23284 0.51654 0.0
H151 H 0.33981 0.26376 0.5398 0.0
H152 H 0.48562 0.37077 0.60572 0.0
H153 H 0.4901 0.32273 0.5729 0.0
H154 H 0.62781 0.36011 0.60935 0.0
H155 H 0.63176 0.31304 0.5762 0.0
H156 H 0.69836 0.15624 0.50312 0.0
H157 H 0.63658 0.14754 0.42205 0.0
H158 H 0.56717 0.17458 0.44212 0.0
H159 H 0.6285 0.18339 0.52321 0.0
Zn160 Zn 0.03214 0.1055 0.34665 0.0
Zn161 Zn 0.0829 0.97635 0.34521 0.0
Zn162 Zn 0.05896 0.04097 0.34592 0.0
C163 C 0.0694 0.99509 0.28904 0.0
C164 C 0.00384 0.98603 0.37543 0.0
O165 O 0.1075 0.06502 0.37136 0.0
O166 O 0.07812 0.11787 0.37258 0.0
C167 C 0.05108 0.08841 0.29014 0.0
O168 O 0.0655 1.0244 0.30065 0.0
O169 O 0.07511 0.96927 0.30408 0.0
O170 O 0.03592 0.96368 0.37139 0.0
O171 O 0.00581 1.01588 0.36621 0.0
O172 O 0.03761 0.1134 0.30555 0.0
O173 O 0.06044 0.05937 0.30131 0.0
O174 O -0.00779 0.05044 0.36637 0.0
O175 O 0.97264 0.10491 0.36274 0.0
C176 C 0.96408 0.07653 0.37054 0.0
O177 O 0.12082 1.03034 0.37023 0.0
O178 O 0.14293 0.97724 0.36003 0.0
C179 C 0.10799 0.09544 0.37994 0.0
C180 C 0.14947 1.00431 0.37198 0.0
Zn181 Zn 0.54997 0.60008 0.84933 0.0
Zn182 Zn 0.58883 0.47251 0.84386 0.0
Zn183 Zn 0.56778 0.53753 0.84667 0.0
C184 C 0.57908 0.49364 0.78817 0.0
C185 C 0.5081 0.4847 0.87368 0.0
O186 O 0.6178 0.55818 0.87369 0.0
O187 O 0.58581 0.60937 0.88239 0.0
C188 C 0.57769 0.58672 0.79417 0.0
O189 O 0.57303 0.52236 0.80087 0.0
O190 O 0.58616 0.46716 0.80225 0.0
O191 O 0.53833 0.46138 0.8679 0.0
O192 O 0.51221 0.5149 0.86627 0.0
O193 O 0.5733 0.61081 0.81163 0.0
O194 O 0.57289 0.55698 0.8026 0.0
O195 O 0.50065 0.54971 0.86574 0.0
O196 O 0.48549 0.60304 0.85496 0.0
C197 C 0.47341 0.57663 0.86501 0.0
O198 O 0.62895 0.52327 0.87132 0.0
O199 O 0.64731 0.46969 0.86112 0.0
C200 C 0.61679 0.58656 0.88676 0.0
C201 C 0.65551 0.4961 0.87345 0.0
H202 H 0.03586 0.1695 0.11941 0.0
H203 H 0.1658 0.1768 0.15182 0.0
H204 H 0.02117 0.13286 0.15853 0.0
H205 H 0.15123 0.13991 0.19059 0.0
H206 H 0.11963 0.06402 0.25481 0.0
H207 H 0.1344 0.08356 0.20671 0.0
H208 H 0.00969 0.14626 0.20942 0.0
H209 H -0.00477 0.12667 0.25692 0.0
C210 C 0.06145 0.16308 0.1347 0.0
C211 C 0.10179 0.17656 0.13263 0.0
C212 C 0.0531 0.14192 0.15702 0.0
C213 C 0.08493 0.13361 0.17777 0.0
C214 C 0.1262 0.14544 0.17478 0.0
C215 C 0.13451 0.16671 0.15252 0.0
C216 C 0.09487 0.08103 0.24458 0.0
C217 C 0.05631 0.09382 0.25942 0.0
C218 C 0.10347 0.09252 0.21725 0.0
C219 C 0.07331 0.11662 0.2043 0.0
C220 C 0.03342 0.12747 0.21856 0.0
C221 C 0.02519 0.11638 0.24585 0.0
H222 H -0.00635 0.91577 0.12685 0.0
H223 H 0.13107 0.88328 0.14118 0.0
H224 H -0.00688 0.95559 0.16629 0.0
H225 H 0.13051 0.9226 0.18053 0.0
H226 H 0.12806 1.00206 0.24584 0.0
H227 H 0.12485 0.97934 0.19758 0.0
H228 H -0.00426 0.95076 0.21683 0.0
H229 H -0.00113 0.97434 0.26437 0.0
C230 C 0.02378 0.91722 0.13832 0.0
C231 C 0.06232 0.89617 0.13092 0.0
C232 C 0.02353 0.9401 0.16089 0.0
C233 C 0.06176 0.94236 0.1767 0.0
C234 C 0.10065 0.92213 0.16858 0.0
C235 C 0.10093 0.89939 0.146 0.0
C236 C 0.09836 0.99223 0.23916 0.0
C237 C 0.06341 0.99034 0.25846 0.0
C238 C 0.09669 0.97873 0.21173 0.0
C239 C 0.06023 0.9628 0.20334 0.0
C240 C 0.02411 0.96311 0.22227 0.0
C241 C 0.02583 0.9766 0.24956 0.0
H242 H 0.53405 0.67753 0.6337 0.0
H243 H 0.67556 0.67142 0.64027 0.0
H244 H 0.53139 0.64166 0.67508 0.0
H245 H 0.67294 0.63468 0.68073 0.0
H246 H 0.63629 0.62707 0.77637 0.0
H247 H 0.646 0.64831 0.72892 0.0
H248 H 0.55208 0.58551 0.69716 0.0
H249 H 0.5421 0.5644 0.74539 0.0
C250 C 0.56463 0.66818 0.64367 0.0
C251 C 0.60495 0.67777 0.6338 0.0
C252 C 0.56314 0.64722 0.66715 0.0
C253 C 0.60194 0.63549 0.68132 0.0
C254 C 0.64242 0.64357 0.67047 0.0
C255 C 0.64391 0.66446 0.64707 0.0
C256 C 0.61847 0.61721 0.75913 0.0
C257 C 0.58868 0.59395 0.76444 0.0
C258 C 0.62418 0.62925 0.73188 0.0
C259 C 0.59983 0.61863 0.7092 0.0
C260 C 0.5712 0.59425 0.71424 0.0
C261 C 0.56589 0.58182 0.74169 0.0
H262 H 0.49808 0.3826 0.65488 0.0
H263 H 0.61054 0.41911 0.61424 0.0
H264 H 0.50126 0.4228 0.69344 0.0
H265 H 0.61414 0.45891 0.65322 0.0
H266 H 0.50552 0.50522 0.75666 0.0
H267 H 0.49593 0.48285 0.70885 0.0
H268 H 0.63519 0.44894 0.70354 0.0
H269 H 0.6443 0.47109 0.75116 0.0
C270 C 0.52283 0.3997 0.65377 0.0
C271 C 0.55444 0.39719 0.63158 0.0
C272 C 0.52463 0.42283 0.67592 0.0
C273 C 0.55816 0.44392 0.6765 0.0
C274 C 0.58826 0.44271 0.65356 0.0
C275 C 0.5863 0.41975 0.63132 0.0
C276 C 0.5342 0.49419 0.74468 0.0
C277 C 0.57573 0.49021 0.75724 0.0
C278 C 0.52869 0.48105 0.71751 0.0
C279 C 0.56474 0.46388 0.70249 0.0
C280 C 0.60683 0.4623 0.71435 0.0
C281 C 0.61216 0.47504 0.74159 0.0
H282 H 0.31741 0.37227 0.95262 0.0
H283 H 0.25165 0.47315 0.95637 0.0
H284 H 0.38123 0.3924 0.93008 0.0
H285 H 0.31652 0.49355 0.93501 0.0
H286 H 0.42205 0.50946 0.86564 0.0
H287 H 0.35687 0.49281 0.89004 0.0
H288 H 0.44079 0.42374 0.94071 0.0
H289 H 0.50541 0.44042 0.91626 0.0
C290 C 0.31657 0.39876 0.94869 0.0
C291 C 0.2793 0.42103 0.95631 0.0
C292 C 0.35344 0.4104 0.93608 0.0
C293 C 0.35415 0.44465 0.93084 0.0
C294 C 0.31697 0.46699 0.93853 0.0
C295 C 0.27998 0.45532 0.95111 0.0
C296 C 0.42638 0.49133 0.88246 0.0
C297 C 0.46864 0.47657 0.88937 0.0
C298 C 0.38913 0.48162 0.89635 0.0
C299 C 0.39355 0.45673 0.91724 0.0
C300 C 0.43607 0.4425 0.9244 0.0
C301 C 0.47312 0.45217 0.91051 0.0
H302 H 0.84733 0.66729 0.9423 0.0
H303 H 0.77464 0.66099 0.02104 0.0
H304 H 0.79428 0.6372 0.91787 0.0
H305 H 0.72162 0.63055 -0.00338 0.0
H306 H 0.60716 0.6249 0.93428 0.0
H307 H 0.66459 0.64448 0.96285 0.0
H308 H 0.76348 0.58477 0.91176 0.0
H309 H 0.70541 0.56611 0.88238 0.0
C310 C 0.82042 0.65896 0.95451 0.0
C311 C 0.81507 0.66674 0.98361 0.0
C312 C 0.79006 0.64156 0.9405 0.0
C313 C 0.75359 0.63145 0.95523 0.0
C314 C 0.74897 0.63839 0.98452 0.0
C315 C 0.77927 0.6559 -0.00148 0.0
C316 C 0.64114 0.61558 0.92942 0.0
C317 C 0.65185 0.59381 0.90627 0.0
C318 C 0.67413 0.6266 0.94593 0.0
C319 C 0.71876 0.61628 0.93963 0.0
C320 C 0.72944 0.59348 0.91703 0.0
C321 C 0.69625 0.58245 0.90044 0.0
H322 H 0.81009 0.4251 0.01188 0.0
H323 H 0.91047 0.44046 0.94932 0.0
H324 H 0.75431 0.45458 0.98195 0.0
H325 H 0.85503 0.47114 0.92006 0.0
H326 H 0.73644 0.4655 0.86006 0.0
H327 H 0.79745 0.45166 0.89192 0.0
H328 H 0.72383 0.5071 0.95956 0.0
H329 H 0.66206 0.52038 0.92738 0.0
C330 C 0.82036 0.43516 0.99195 0.0
C331 C 0.86473 0.42999 0.98288 0.0
C332 C 0.78845 0.4525 0.97496 0.0
C333 C 0.80016 0.46505 0.94851 0.0
C334 C 0.84484 0.46145 0.94017 0.0
C335 C 0.87671 0.4441 0.95711 0.0
C336 C 0.73378 0.47541 0.88156 0.0
C337 C 0.69483 0.49419 0.89126 0.0
C338 C 0.76882 0.46764 0.89981 0.0
C339 C 0.76554 0.47819 0.92836 0.0
C340 C 0.72722 0.49838 0.93775 0.0
C341 C 0.6921 0.50631 0.91932 0.0
H342 H 0.22833 0.59132 0.96738 0.0
H343 H 0.23149 0.68059 0.91779 0.0
H344 H 0.29659 0.56653 0.94376 0.0
H345 H 0.29951 0.65643 0.89475 0.0
H346 H 0.39862 0.60078 0.83925 0.0
H347 H 0.3259 0.61425 0.8611 0.0
H348 H 0.37501 0.5719 0.94 0.0
H349 H 0.44762 0.55719 0.91741 0.0
C350 C 0.24381 0.6057 0.95159 0.0
C351 C 0.22443 0.63779 0.94424 0.0
C352 C 0.28281 0.59152 0.93806 0.0
C353 C 0.30321 0.60925 0.91703 0.0
C354 C 0.28407 0.64158 0.91019 0.0
C355 C 0.24515 0.65558 0.92351 0.0
C356 C 0.39343 0.59364 0.86105 0.0
C357 C 0.42841 0.5781 0.87674 0.0
C358 C 0.35198 0.60162 0.87369 0.0
C359 C 0.3449 0.595 0.90254 0.0
C360 C 0.37931 0.57738 0.91775 0.0
C361 C 0.42084 0.56897 0.9049 0.0
H362 H 0.80884 0.91711 0.49168 0.0
H363 H 0.7488 0.92154 0.40927 0.0
H364 H 0.87272 0.94025 0.47174 0.0
H365 H 0.81336 0.94333 0.38912 0.0
H366 H 0.91813 1.00904 0.36534 0.0
H367 H 0.85228 0.9923 0.38868 0.0
H368 H 0.93447 0.92296 0.44013 0.0
H369 H -3e-05 0.94128 0.41788 0.0
C370 C 0.80924 0.92304 0.46932 0.0
C371 C 0.77374 0.91732 0.45207 0.0
C372 C 0.84603 0.93604 0.45783 0.0
C373 C 0.84821 0.94366 0.42882 0.0
C374 C 0.81258 0.93815 0.41162 0.0
C375 C 0.77582 0.92515 0.42309 0.0
C376 C 0.92196 0.99118 0.38237 0.0
C377 C 0.96404 0.97717 0.39035 0.0
C378 C 0.88431 0.98102 0.39533 0.0
C379 C 0.88805 0.95623 0.4163 0.0
C380 C 0.93032 0.94245 0.4244 0.0
C381 C 0.96787 0.95274 0.41151 0.0
H382 H 0.2599 0.22551 0.46892 0.0
H383 H 0.33517 0.13008 0.48444 0.0
H384 H 0.20669 0.19771 0.44272 0.0
H385 H 0.28156 0.10208 0.45797 0.0
H386 H 0.19687 0.07381 0.37996 0.0
H387 H 0.25277 0.09598 0.40922 0.0
H388 H 0.15048 0.16169 0.45227 0.0
H389 H 0.0954 0.13981 0.42316 0.0
C390 C 0.26481 0.19853 0.46708 0.0
C391 C 0.30162 0.18006 0.47906 0.0
C392 C 0.23429 0.18254 0.45199 0.0
C393 C 0.23961 0.14759 0.44847 0.0
C394 C 0.27666 0.12903 0.46014 0.0
C395 C 0.30732 0.1451 0.47531 0.0
C396 C 0.18649 0.09242 0.39615 0.0
C397 C 0.14191 0.1051 0.39933 0.0
C398 C 0.21842 0.10523 0.41282 0.0
C399 C 0.20613 0.13104 0.43276 0.0
C400 C 0.16123 0.14245 0.43666 0.0
C401 C 0.12963 0.12979 0.42007 0.0
H402 H 0.40394 0.95861 0.45229 0.0
H403 H 0.30207 0.91757 0.50082 0.0
H404 H 0.34763 0.99093 0.42451 0.0
H405 H 0.24614 0.95101 0.47377 0.0
H406 H 0.15289 1.02572 0.42681 0.0
H407 H 0.21407 1.01165 0.45941 0.0
H408 H 0.29428 0.96704 0.38969 0.0
H409 H 0.23314 0.98041 0.35754 0.0
C410 C 0.36964 0.95669 0.4573 0.0
C411 C 0.35772 0.93488 0.47852 0.0
C412 C 0.33746 0.9755 0.44154 0.0
C413 C 0.29259 0.97343 0.44697 0.0
C414 C 0.28051 0.95343 0.46937 0.0
C415 C 0.31268 0.93422 0.48488 0.0
C416 C 0.18414 1.01388 0.41844 0.0
C417 C 0.18858 1.00414 0.38977 0.0
C418 C 0.21893 1.00565 0.43705 0.0
C419 C 0.25878 0.98812 0.42706 0.0
C420 C 0.26412 0.9808 0.39793 0.0
C421 C 0.22917 0.98839 0.37954 0.0
H422 H 0.71012 0.16408 0.41049 0.0
H423 H 0.73106 0.09995 0.48307 0.0
H424 H 0.77877 0.13859 0.38915 0.0
H425 H 0.8 0.07364 0.46136 0.0
H426 H 0.94605 0.07302 0.42688 0.0
H427 H 0.87346 0.0859 0.4497 0.0
H428 H 0.81326 0.089 0.36723 0.0
H429 H 0.88604 0.07783 0.34475 0.0
C430 C 0.72918 0.14413 0.4217 0.0
C431 C 0.71511 0.13394 0.44839 0.0
C432 C 0.76849 0.1293 0.40938 0.0
C433 C 0.79473 0.10363 0.42331 0.0
C434 C 0.78072 0.09342 0.4501 0.0
C435 C 0.74132 0.1085 0.46256 0.0
C436 C 0.917 0.07551 0.41387 0.0
C437 C 0.92116 0.07443 0.38421 0.0
C438 C 0.87544 0.08288 0.42685 0.0
C439 C 0.83753 0.08923 0.41026 0.0
C440 C 0.84182 0.0852 0.38061 0.0
C441 C 0.88332 0.07839 0.36771 0.0
loop_
_geom_bond_atom_site_label_1
_geom_bond_atom_site_label_2
_geom_bond_distance
_geom_bond_site_symmetry_2
_ccdc_geom_bond_type
C0 C1 1.264 . S
C0 C5 1.479 . S
C0 C10 1.465 1_656 S
C1 C0 1.264 . S
C1 C3 1.339 . S
C1 H28 0.931 1_655 S
C2 C3 1.395 . S
C2 C4 1.320 . S
C3 C1 1.339 . S
C3 C2 1.395 . S
C3 H29 0.929 . S
C4 C2 1.320 . S
C4 C5 1.405 . S
C4 H30 0.930 . S
C5 C0 1.479 . S
C5 C4 1.405 . S
C5 H31 0.931 1_556 S
U6 O7 2.454 . S
U6 O8 2.458 . S
U6 C9 2.984 . S
U6 C10 2.847 . S
U6 C23 2.882 . S
U6 O24 2.441 . S
U6 O25 2.420 . S
U6 O26 2.455 . S
U6 O27 2.449 . S
O7 U6 2.454 . S
O7 C9 1.353 . S
O8 U6 2.458 . S
O8 C9 1.286 . S
C9 U6 2.984 . S
C9 O7 1.353 . S
C9 O8 1.286 . S
C9 C11 1.363 . S
C10 C0 1.465 1_454 S
C10 U6 2.847 . S
C10 O24 1.249 . S
C10 O25 1.202 . S
C11 C9 1.363 . S
C11 C13 1.408 . S
C11 C16 1.342 . S
C12 C13 1.310 . S
C12 C15 1.461 . S
C12 H32 0.932 . S
C13 C11 1.408 . S
C13 C12 1.310 . S
C13 H33 0.930 . S
C14 C15 1.474 . S
C14 C16 1.285 . S
C14 H34 0.929 . S
C15 C12 1.461 . S
C15 C14 1.474 . S
C16 C11 1.342 . S
C16 C14 1.285 . S
C16 H35 0.930 . S
C17 C20 1.424 . S
C17 C22 1.245 1_556 S
C17 C23 1.428 1_556 S
C18 C21 1.260 . S
C18 C22 1.477 1_556 S
C18 H36 0.932 . S
C19 C20 1.384 . S
C19 C21 1.479 . S
C19 H37 0.929 . S
C20 C17 1.424 . S
C20 C19 1.384 . S
C20 H38 0.928 . S
C21 C18 1.260 . S
C21 C19 1.479 . S
C22 C17 1.245 1_554 S
C22 C18 1.477 1_554 S
C22 H39 0.932 . S
C23 U6 2.882 . S
C23 C17 1.428 1_554 S
C23 O26 1.301 . S
C23 O27 1.282 . S
O24 U6 2.441 . S
O24 C10 1.249 . S
O25 U6 2.420 . S
O25 C10 1.202 . S
O26 U6 2.455 . S
O26 C23 1.301 . S
O27 U6 2.449 . S
O27 C23 1.282 . S
H28 C1 0.931 1_455 S
H29 C3 0.929 . S
H30 C4 0.930 . S
H31 C5 0.931 1_554 S
H32 C12 0.932 . S
H33 C13 0.930 . S
H34 C14 0.929 . S
H35 C16 0.930 . S
H36 C18 0.932 . S
H37 C19 0.929 . S
H38 C20 0.928 . S
H39 C22 0.932 . S
C40 C41 1.264 . S
C40 C45 1.479 . S
C40 C50 1.465 . S
C41 C40 1.264 . S
C41 C43 1.339 . S
C41 H68 0.931 . S
C42 C43 1.395 . S
C42 C44 1.320 . S
C43 C41 1.339 . S
C43 C42 1.395 . S
C43 H69 0.929 . S
C44 C42 1.320 . S
C44 C45 1.405 . S
C44 H70 0.930 . S
C45 C40 1.479 . S
C45 C44 1.405 . S
C45 H71 0.931 1_556 S
U46 O47 2.454 . S
U46 O48 2.458 1_655 S
U46 C49 2.984 . S
U46 C50 2.847 1_554 S
U46 C63 2.882 1_654 S
U46 O64 2.441 . S
U46 O65 2.420 1_554 S
U46 O66 2.455 1_655 S
U46 O67 2.449 1_654 S
O47 U46 2.454 . S
O47 C49 1.353 . S
O48 U46 2.458 1_455 S
O48 C49 1.286 1_455 S
C49 U46 2.984 . S
C49 O47 1.353 . S
C49 O48 1.286 1_655 S
C49 C51 1.363 . S
C50 C40 1.465 . S
C50 U46 2.847 1_556 S
C50 O64 1.249 1_556 S
C50 O65 1.202 . S
C51 C49 1.363 . S
C51 C53 1.408 . S
C51 C56 1.342 1_655 S
C52 C53 1.310 . S
C52 C55 1.481 . S
C52 H72 0.932 . S
C53 C51 1.408 . S
C53 C52 1.310 . S
C53 H73 0.930 . S
C54 C55 1.457 1_455 S
C54 C56 1.285 . S
C54 H74 0.929 . S
C55 C52 1.481 . S
C55 C54 1.457 1_655 S
C56 C51 1.342 1_455 S
C56 C54 1.285 . S
C56 H75 0.930 . S
C57 C60 1.424 . S
C57 C62 1.245 . S
C57 C63 1.428 . S
C58 C61 1.260 . S
C58 C62 1.477 . S
C58 H76 0.932 . S
C59 C60 1.384 . S
C59 C61 1.479 . S
C59 H77 0.929 . S
C60 C57 1.424 . S
C60 C59 1.384 . S
C60 H78 0.928 . S
C61 C58 1.260 . S
C61 C59 1.479 . S
C62 C57 1.245 . S
C62 C58 1.477 . S
C62 H79 0.932 1_556 S
C63 U46 2.882 1_456 S
C63 C57 1.428 . S
C63 O66 1.301 1_556 S
C63 O67 1.282 . S
O64 U46 2.441 . S
O64 C50 1.249 1_554 S
O65 U46 2.420 1_556 S
O65 C50 1.202 . S
O66 U46 2.455 1_455 S
O66 C63 1.301 1_554 S
O67 U46 2.449 1_456 S
O67 C63 1.282 . S
H68 C41 0.931 . S
H69 C43 0.929 . S
H70 C44 0.930 . S
H71 C45 0.931 1_554 S
H72 C52 0.932 . S
H73 C53 0.930 . S
H74 C54 0.929 . S
H75 C56 0.930 . S
H76 C58 0.932 . S
H77 C59 0.929 . S
H78 C60 0.928 . S
H79 C62 0.932 1_554 S
C80 C81 1.264 . S
C80 C85 1.479 . S
C80 C90 1.465 . S
C81 C80 1.264 . S
C81 C83 1.339 . S
C81 H108 0.931 . S
C82 C83 1.395 . S
C82 C84 1.320 . S
C83 C81 1.339 . S
C83 C82 1.395 . S
C83 H109 0.929 . S
C84 C82 1.320 . S
C84 C85 1.405 . S
C84 H110 0.930 . S
C85 C80 1.479 . S
C85 C84 1.405 . S
C85 H111 0.931 . S
U86 O87 2.454 . S
U86 O88 2.458 . S
U86 C89 2.984 . S
U86 C90 2.847 . S
U86 C103 2.882 . S
U86 O104 2.441 . S
U86 O105 2.420 . S
U86 O106 2.455 . S
U86 O107 2.449 . S
O87 U86 2.454 . S
O87 C89 1.353 . S
O88 U86 2.458 . S
O88 C89 1.286 . S
C89 U86 2.984 . S
C89 O87 1.353 . S
C89 O88 1.286 . S
C89 C91 1.363 . S
C90 C80 1.465 . S
C90 U86 2.847 . S
C90 O104 1.249 . S
C90 O105 1.202 . S
C91 C89 1.363 . S
C91 C93 1.408 . S
C91 C96 1.342 . S
C92 C93 1.310 . S
C92 C95 1.461 . S
C92 H112 0.932 . S
C93 C91 1.408 . S
C93 C92 1.310 . S
C93 H113 0.930 . S
C94 C95 1.474 . S
C94 C96 1.285 . S
C94 H114 0.929 . S
C95 C92 1.461 . S
C95 C94 1.474 . S
C96 C91 1.342 . S
C96 C94 1.285 . S
C96 H115 0.930 . S
C97 C100 1.424 . S
C97 C102 1.245 . S
C97 C103 1.428 . S
C98 C101 1.260 . S
C98 C102 1.477 . S
C98 H116 0.932 . S
C99 C100 1.384 . S
C99 C101 1.479 . S
C99 H117 0.929 . S
C100 C97 1.424 . S
C100 C99 1.384 . S
C100 H118 0.928 . S
C101 C98 1.260 . S
C101 C99 1.479 . S
C102 C97 1.245 . S
C102 C98 1.477 . S
C102 H119 0.932 . S
C103 U86 2.882 . S
C103 C97 1.428 . S
C103 O106 1.301 . S
C103 O107 1.282 . S
O104 U86 2.441 . S
O104 C90 1.249 . S
O105 U86 2.420 . S
O105 C90 1.202 . S
O106 U86 2.455 . S
O106 C103 1.301 . S
O107 U86 2.449 . S
O107 C103 1.282 . S
H108 C81 0.931 . S
H109 C83 0.929 . S
H110 C84 0.930 . S
H111 C85 0.931 . S
H112 C92 0.932 . S
H113 C93 0.930 . S
H114 C94 0.929 . S
H115 C96 0.930 . S
H116 C98 0.932 . S
H117 C99 0.929 . S
H118 C100 0.928 . S
H119 C102 0.932 . S
C120 C121 1.264 . S
C120 C125 1.479 . S
C120 C130 1.465 . S
C121 C120 1.264 . S
C121 C123 1.339 . S
C121 H148 0.931 . S
C122 C123 1.395 . S
C122 C124 1.320 . S
C123 C121 1.339 . S
C123 C122 1.395 . S
C123 H149 0.929 . S
C124 C122 1.320 . S
C124 C125 1.405 . S
C124 H150 0.930 . S
C125 C120 1.479 . S
C125 C124 1.405 . S
C125 H151 0.931 . S
U126 O127 2.454 . S
U126 O128 2.458 . S
U126 C129 2.984 . S
U126 C130 2.847 . S
U126 C143 2.882 . S
U126 O144 2.441 . S
U126 O145 2.420 . S
U126 O146 2.455 . S
U126 O147 2.449 . S
O127 U126 2.454 . S
O127 C129 1.353 . S
O128 U126 2.458 . S
O128 C129 1.286 . S
C129 U126 2.984 . S
C129 O127 1.353 . S
C129 O128 1.286 . S
C129 C131 1.363 . S
C130 C120 1.465 . S
C130 U126 2.847 . S
C130 O144 1.249 . S
C130 O145 1.202 . S
C131 C129 1.363 . S
C131 C133 1.408 . S
C131 C136 1.342 . S
C132 C133 1.310 . S
C132 C135 1.461 . S
C132 H152 0.932 . S
C133 C131 1.408 . S
C133 C132 1.310 . S
C133 H153 0.930 . S
C134 C135 1.474 . S
C134 C136 1.285 . S
C134 H154 0.929 . S
C135 C132 1.461 . S
C135 C134 1.474 . S
C136 C131 1.342 . S
C136 C134 1.285 . S
C136 H155 0.930 . S
C137 C140 1.424 . S
C137 C142 1.245 . S
C137 C143 1.428 . S
C138 C141 1.260 . S
C138 C142 1.477 . S
C138 H156 0.932 . S
C139 C140 1.384 . S
C139 C141 1.479 . S
C139 H157 0.929 . S
C140 C137 1.424 . S
C140 C139 1.384 . S
C140 H158 0.928 . S
C141 C138 1.260 . S
C141 C139 1.479 . S
C142 C137 1.245 . S
C142 C138 1.477 . S
C142 H159 0.932 . S
C143 U126 2.882 . S
C143 C137 1.428 . S
C143 O146 1.301 . S
C143 O147 1.282 . S
O144 U126 2.441 . S
O144 C130 1.249 . S
O145 U126 2.420 . S
O145 C130 1.202 . S
O146 U126 2.455 . S
O146 C143 1.301 . S
O147 U126 2.449 . S
O147 C143 1.282 . S
H148 C121 0.931 . S
H149 C123 0.929 . S
H150 C124 0.930 . S
H151 C125 0.931 . S
H152 C132 0.932 . S
H153 C133 0.930 . S
H154 C134 0.929 . S
H155 C136 0.930 . S
H156 C138 0.932 . S
H157 C139 0.929 . S
H158 C140 0.928 . S
H159 C142 0.932 . S
Zn160 O166 1.920 . S
Zn160 O172 1.898 . S
Zn160 O175 1.905 1_455 S
Zn161 O169 1.905 . S
Zn161 O170 1.898 . S
Zn161 O178 1.920 . S
Zn162 O165 2.080 . S
Zn162 O168 2.114 1_545 S
Zn162 O171 2.120 1_545 S
Zn162 O173 2.120 . S
Zn162 O174 2.114 . S
Zn162 O177 2.080 1_545 S
C163 O168 1.166 . S
C163 O169 1.182 . S
C164 O170 1.167 . S
C164 O171 1.299 . S
O165 Zn162 2.080 . S
O165 C179 1.305 . S
O166 Zn160 1.920 . S
O166 C179 1.234 . S
C167 O172 1.167 . S
C167 O173 1.299 . S
O168 Zn162 2.114 1_565 S
O168 C163 1.166 . S
O169 Zn161 1.905 . S
O169 C163 1.182 . S
O170 Zn161 1.898 . S
O170 C164 1.167 . S
O171 Zn162 2.120 1_565 S
O171 C164 1.299 . S
O172 Zn160 1.898 . S
O172 C167 1.167 . S
O173 Zn162 2.120 . S
O173 C167 1.299 . S
O174 Zn162 2.114 . S
O174 C176 1.166 1_455 S
O175 Zn160 1.905 1_655 S
O175 C176 1.182 . S
C176 O174 1.166 1_655 S
C176 O175 1.182 . S
O177 Zn162 2.080 1_565 S
O177 C180 1.305 . S
O178 Zn161 1.920 . S
O178 C180 1.234 . S
C179 O165 1.305 . S
C179 O166 1.234 . S
C180 O177 1.305 . S
C180 O178 1.234 . S
Zn181 O187 1.920 . S
Zn181 O193 1.898 . S
Zn181 O196 1.905 . S
Zn182 O190 1.905 . S
Zn182 O191 1.898 . S
Zn182 O199 1.920 . S
Zn183 O186 2.080 . S
Zn183 O189 2.114 . S
Zn183 O192 2.120 . S
Zn183 O194 2.120 . S
Zn183 O195 2.114 . S
Zn183 O198 2.080 . S
C184 O189 1.166 . S
C184 O190 1.182 . S
C185 O191 1.167 . S
C185 O192 1.299 . S
O186 Zn183 2.080 . S
O186 C200 1.305 . S
O187 Zn181 1.920 . S
O187 C200 1.234 . S
C188 O193 1.167 . S
C188 O194 1.299 . S
O189 Zn183 2.114 . S
O189 C184 1.166 . S
O190 Zn182 1.905 . S
O190 C184 1.182 . S
O191 Zn182 1.898 . S
O191 C185 1.167 . S
O192 Zn183 2.120 . S
O192 C185 1.299 . S
O193 Zn181 1.898 . S
O193 C188 1.167 . S
O194 Zn183 2.120 . S
O194 C188 1.299 . S
O195 Zn183 2.114 . S
O195 C197 1.166 . S
O196 Zn181 1.905 . S
O196 C197 1.182 . S
C197 O195 1.166 . S
C197 O196 1.182 . S
O198 Zn183 2.080 . S
O198 C201 1.305 . S
O199 Zn182 1.920 . S
O199 C201 1.234 . S
C200 O186 1.305 . S
C200 O187 1.234 . S
C201 O198 1.305 . S
C201 O199 1.234 . S
H202 C210 0.950 . S
H203 C215 0.950 . S
H204 C212 0.950 . S
H205 C214 0.950 . S
H206 C216 0.950 . S
H207 C218 0.950 . S
H208 C220 0.950 . S
H209 C221 0.950 . S
C210 H202 0.950 . S
C210 C211 1.386 . S
C210 C212 1.391 . S
C211 C210 1.386 . S
C211 C215 1.393 . S
C212 H204 0.950 . S
C212 C210 1.391 . S
C212 C213 1.400 . S
C213 C212 1.400 . S
C213 C214 1.398 . S
C213 C219 1.491 . S
C214 H205 0.950 . S
C214 C213 1.398 . S
C214 C215 1.391 . S
C215 H203 0.950 . S
C215 C211 1.393 . S
C215 C214 1.391 . S
C216 H206 0.950 . S
C216 C217 1.386 . S
C216 C218 1.391 . S
C217 C216 1.386 . S
C217 C221 1.393 . S
C218 H207 0.950 . S
C218 C216 1.391 . S
C218 C219 1.400 . S
C219 C213 1.491 . S
C219 C218 1.400 . S
C219 C220 1.398 . S
C220 H208 0.950 . S
C220 C219 1.398 . S
C220 C221 1.391 . S
C221 H209 0.950 . S
C221 C217 1.393 . S
C221 C220 1.391 . S
H222 C230 0.950 . S
H223 C235 0.950 . S
H224 C232 0.950 . S
H225 C234 0.950 . S
H226 C236 0.950 . S
H227 C238 0.950 . S
H228 C240 0.950 . S
H229 C241 0.950 1_655 S
C230 H222 0.950 . S
C230 C231 1.386 1_655 S
C230 C232 1.391 . S
C231 C230 1.386 1_455 S
C231 C235 1.393 . S
C232 H224 0.950 . S
C232 C230 1.391 . S
C232 C233 1.400 1_655 S
C233 C232 1.400 1_455 S
C233 C234 1.398 . S
C233 C239 1.491 . S
C234 H225 0.950 . S
C234 C233 1.398 . S
C234 C235 1.391 . S
C235 H223 0.950 . S
C235 C231 1.393 . S
C235 C234 1.391 . S
C236 H226 0.950 . S
C236 C237 1.386 . S
C236 C238 1.391 . S
C237 C236 1.386 . S
C237 C241 1.393 . S
C238 H227 0.950 . S
C238 C236 1.391 . S
C238 C239 1.400 . S
C239 C233 1.491 . S
C239 C238 1.400 . S
C239 C240 1.398 1_455 S
C240 H228 0.950 . S
C240 C239 1.398 1_655 S
C240 C241 1.391 1_655 S
C241 H229 0.950 1_455 S
C241 C237 1.393 . S
C241 C240 1.391 1_455 S
H242 C250 0.950 . S
H243 C255 0.950 . S
H244 C252 0.950 . S
H245 C254 0.950 . S
H246 C256 0.950 . S
H247 C258 0.950 . S
H248 C260 0.950 . S
H249 C261 0.950 . S
C250 H242 0.950 . S
C250 C251 1.386 . S
C250 C252 1.391 . S
C251 C250 1.386 . S
C251 C255 1.393 . S
C252 H244 0.950 . S
C252 C250 1.391 . S
C252 C253 1.400 . S
C253 C252 1.400 . S
C253 C254 1.398 . S
C253 C259 1.491 . S
C254 H245 0.950 . S
C254 C253 1.398 . S
C254 C255 1.391 . S
C255 H243 0.950 . S
C255 C251 1.393 . S
C255 C254 1.391 . S
C256 H246 0.950 . S
C256 C257 1.386 . S
C256 C258 1.391 . S
C257 C256 1.386 . S
C257 C261 1.393 . S
C258 H247 0.950 . S
C258 C256 1.391 . S
C258 C259 1.400 . S
C259 C253 1.491 . S
C259 C258 1.400 . S
C259 C260 1.398 . S
C260 H248 0.950 . S
C260 C259 1.398 . S
C260 C261 1.391 . S
C261 H249 0.950 . S
C261 C257 1.393 . S
C261 C260 1.391 . S
H262 C270 0.950 . S
H263 C275 0.950 . S
H264 C272 0.950 . S
H265 C274 0.950 . S
H266 C276 0.950 . S
H267 C278 0.950 . S
H268 C280 0.950 . S
H269 C281 0.950 . S
C270 H262 0.950 . S
C270 C271 1.386 . S
C270 C272 1.391 . S
C271 C270 1.386 . S
C271 C275 1.393 . S
C272 H264 0.950 . S
C272 C270 1.391 . S
C272 C273 1.400 . S
C273 C272 1.400 . S
C273 C274 1.398 . S
C273 C279 1.491 . S
C274 H265 0.950 . S
C274 C273 1.398 . S
C274 C275 1.391 . S
C275 H263 0.950 . S
C275 C271 1.393 . S
C275 C274 1.391 . S
C276 H266 0.950 . S
C276 C277 1.386 . S
C276 C278 1.391 . S
C277 C276 1.386 . S
C277 C281 1.393 . S
C278 H267 0.950 . S
C278 C276 1.391 . S
C278 C279 1.400 . S
C279 C273 1.491 . S
C279 C278 1.400 . S
C279 C280 1.398 . S
C280 H268 0.950 . S
C280 C279 1.398 . S
C280 C281 1.391 . S
C281 H269 0.950 . S
C281 C277 1.393 . S
C281 C280 1.391 . S
H282 C290 0.950 . S
H283 C295 0.950 . S
H284 C292 0.950 . S
H285 C294 0.950 . S
H286 C296 0.950 . S
H287 C298 0.950 . S
H288 C300 0.950 . S
H289 C301 0.950 . S
C290 H282 0.950 . S
C290 C291 1.386 . S
C290 C292 1.391 . S
C291 C290 1.386 . S
C291 C295 1.393 . S
C292 H284 0.950 . S
C292 C290 1.391 . S
C292 C293 1.400 . S
C293 C292 1.400 . S
C293 C294 1.398 . S
C293 C299 1.491 . S
C294 H285 0.950 . S
C294 C293 1.398 . S
C294 C295 1.391 . S
C295 H283 0.950 . S
C295 C291 1.393 . S
C295 C294 1.391 . S
C296 H286 0.950 . S
C296 C297 1.386 . S
C296 C298 1.391 . S
C297 C296 1.386 . S
C297 C301 1.393 . S
C298 H287 0.950 . S
C298 C296 1.391 . S
C298 C299 1.400 . S
C299 C293 1.491 . S
C299 C298 1.400 . S
C299 C300 1.398 . S
C300 H288 0.950 . S
C300 C299 1.398 . S
C300 C301 1.391 . S
C301 H289 0.950 . S
C301 C297 1.393 . S
C301 C300 1.391 . S
H302 C310 0.950 . S
H303 C315 0.950 . S
H304 C312 0.950 . S
H305 C314 0.950 . S
H306 C316 0.950 . S
H307 C318 0.950 . S
H308 C320 0.950 . S
H309 C321 0.950 . S
C310 H302 0.950 . S
C310 C311 1.386 . S
C310 C312 1.391 . S
C311 C310 1.386 . S
C311 C315 1.393 . S
C312 H304 0.950 . S
C312 C310 1.391 . S
C312 C313 1.400 . S
C313 C312 1.400 . S
C313 C314 1.398 . S
C313 C319 1.491 . S
C314 H305 0.950 . S
C314 C313 1.398 . S
C314 C315 1.391 . S
C315 H303 0.950 . S
C315 C311 1.393 . S
C315 C314 1.391 . S
C316 H306 0.950 . S
C316 C317 1.386 . S
C316 C318 1.391 . S
C317 C316 1.386 . S
C317 C321 1.393 . S
C318 H307 0.950 . S
C318 C316 1.391 . S
C318 C319 1.400 . S
C319 C313 1.491 . S
C319 C318 1.400 . S
C319 C320 1.398 . S
C320 H308 0.950 . S
C320 C319 1.398 . S
C320 C321 1.391 . S
C321 H309 0.950 . S
C321 C317 1.393 . S
C321 C320 1.391 . S
H322 C330 0.950 . S
H323 C335 0.950 . S
H324 C332 0.950 . S
H325 C334 0.950 . S
H326 C336 0.950 . S
H327 C338 0.950 . S
H328 C340 0.950 . S
H329 C341 0.950 . S
C330 H322 0.950 . S
C330 C331 1.386 . S
C330 C332 1.391 . S
C331 C330 1.386 . S
C331 C335 1.393 . S
C332 H324 0.950 . S
C332 C330 1.391 . S
C332 C333 1.400 . S
C333 C332 1.400 . S
C333 C334 1.398 . S
C333 C339 1.491 . S
C334 H325 0.950 . S
C334 C333 1.398 . S
C334 C335 1.391 . S
C335 H323 0.950 . S
C335 C331 1.393 . S
C335 C334 1.391 . S
C336 H326 0.950 . S
C336 C337 1.386 . S
C336 C338 1.391 . S
C337 C336 1.386 . S
C337 C341 1.393 . S
C338 H327 0.950 . S
C338 C336 1.391 . S
C338 C339 1.400 . S
C339 C333 1.491 . S
C339 C338 1.400 . S
C339 C340 1.398 . S
C340 H328 0.950 . S
C340 C339 1.398 . S
C340 C341 1.391 . S
C341 H329 0.950 . S
C341 C337 1.393 . S
C341 C340 1.391 . S
H342 C350 0.950 . S
H343 C355 0.950 . S
H344 C352 0.950 . S
H345 C354 0.950 . S
H346 C356 0.950 . S
H347 C358 0.950 . S
H348 C360 0.950 . S
H349 C361 0.950 . S
C350 H342 0.950 . S
C350 C351 1.386 . S
C350 C352 1.391 . S
C351 C350 1.386 . S
C351 C355 1.393 . S
C352 H344 0.950 . S
C352 C350 1.391 . S
C352 C353 1.400 . S
C353 C352 1.400 . S
C353 C354 1.398 . S
C353 C359 1.491 . S
C354 H345 0.950 . S
C354 C353 1.398 . S
C354 C355 1.391 . S
C355 H343 0.950 . S
C355 C351 1.393 . S
C355 C354 1.391 . S
C356 H346 0.950 . S
C356 C357 1.386 . S
C356 C358 1.391 . S
C357 C356 1.386 . S
C357 C361 1.393 . S
C358 H347 0.950 . S
C358 C356 1.391 . S
C358 C359 1.400 . S
C359 C353 1.491 . S
C359 C358 1.400 . S
C359 C360 1.398 . S
C360 H348 0.950 . S
C360 C359 1.398 . S
C360 C361 1.391 . S
C361 H349 0.950 . S
C361 C357 1.393 . S
C361 C360 1.391 . S
H362 C370 0.950 . S
H363 C375 0.950 . S
H364 C372 0.950 . S
H365 C374 0.950 . S
H366 C376 0.950 . S
H367 C378 0.950 . S
H368 C380 0.950 . S
H369 C381 0.950 . S
C370 H362 0.950 . S
C370 C371 1.386 . S
C370 C372 1.391 . S
C371 C370 1.386 . S
C371 C375 1.393 . S
C372 H364 0.950 . S
C372 C370 1.391 . S
C372 C373 1.400 . S
C373 C372 1.400 . S
C373 C374 1.398 . S
C373 C379 1.491 . S
C374 H365 0.950 . S
C374 C373 1.398 . S
C374 C375 1.391 . S
C375 H363 0.950 . S
C375 C371 1.393 . S
C375 C374 1.391 . S
C376 H366 0.950 . S
C376 C377 1.386 . S
C376 C378 1.391 . S
C377 C376 1.386 . S
C377 C381 1.393 1_655 S
C378 H367 0.950 . S
C378 C376 1.391 . S
C378 C379 1.400 . S
C379 C373 1.491 . S
C379 C378 1.400 . S
C379 C380 1.398 . S
C380 H368 0.950 . S
C380 C379 1.398 . S
C380 C381 1.391 1_655 S
C381 H369 0.950 . S
C381 C377 1.393 1_455 S
C381 C380 1.391 1_455 S
H382 C390 0.950 . S
H383 C395 0.950 . S
H384 C392 0.950 . S
H385 C394 0.950 . S
H386 C396 0.950 . S
H387 C398 0.950 . S
H388 C400 0.950 . S
H389 C401 0.950 . S
C390 H382 0.950 . S
C390 C391 1.386 . S
C390 C392 1.391 . S
C391 C390 1.386 . S
C391 C395 1.393 . S
C392 H384 0.950 . S
C392 C390 1.391 . S
C392 C393 1.400 . S
C393 C392 1.400 . S
C393 C394 1.398 . S
C393 C399 1.491 . S
C394 H385 0.950 . S
C394 C393 1.398 . S
C394 C395 1.391 . S
C395 H383 0.950 . S
C395 C391 1.393 . S
C395 C394 1.391 . S
C396 H386 0.950 . S
C396 C397 1.386 . S
C396 C398 1.391 . S
C397 C396 1.386 . S
C397 C401 1.393 . S
C398 H387 0.950 . S
C398 C396 1.391 . S
C398 C399 1.400 . S
C399 C393 1.491 . S
C399 C398 1.400 . S
C399 C400 1.398 . S
C400 H388 0.950 . S
C400 C399 1.398 . S
C400 C401 1.391 . S
C401 H389 0.950 . S
C401 C397 1.393 . S
C401 C400 1.391 . S
H402 C410 0.950 . S
H403 C415 0.950 . S
H404 C412 0.950 . S
H405 C414 0.950 . S
H406 C416 0.950 . S
H407 C418 0.950 . S
H408 C420 0.950 . S
H409 C421 0.950 . S
C410 H402 0.950 . S
C410 C411 1.386 . S
C410 C412 1.391 . S
C411 C410 1.386 . S
C411 C415 1.393 . S
C412 H404 0.950 . S
C412 C410 1.391 . S
C412 C413 1.400 . S
C413 C412 1.400 . S
C413 C414 1.398 . S
C413 C419 1.491 . S
C414 H405 0.950 . S
C414 C413 1.398 . S
C414 C415 1.391 . S
C415 H403 0.950 . S
C415 C411 1.393 . S
C415 C414 1.391 . S
C416 H406 0.950 . S
C416 C417 1.386 . S
C416 C418 1.391 . S
C417 C416 1.386 . S
C417 C421 1.393 . S
C418 H407 0.950 . S
C418 C416 1.391 . S
C418 C419 1.400 . S
C419 C413 1.491 . S
C419 C418 1.400 . S
C419 C420 1.398 . S
C420 H408 0.950 . S
C420 C419 1.398 . S
C420 C421 1.391 . S
C421 H409 0.950 . S
C421 C417 1.393 . S
C421 C420 1.391 . S
H422 C430 0.950 . S
H423 C435 0.950 . S
H424 C432 0.950 . S
H425 C434 0.950 . S
H426 C436 0.950 . S
H427 C438 0.950 . S
H428 C440 0.950 . S
H429 C441 0.950 . S
C430 H422 0.950 . S
C430 C431 1.386 . S
C430 C432 1.391 . S
C431 C430 1.386 . S
C431 C435 1.393 . S
C432 H424 0.950 . S
C432 C430 1.391 . S
C432 C433 1.400 . S
C433 C432 1.400 . S
C433 C434 1.398 . S
C433 C439 1.491 . S
C434 H425 0.950 . S
C434 C433 1.398 . S
C434 C435 1.391 . S
C435 H423 0.950 . S
C435 C431 1.393 . S
C435 C434 1.391 . S
C436 H426 0.950 . S
C436 C437 1.386 . S
C436 C438 1.391 . S
C437 C436 1.386 . S
C437 C441 1.393 . S
C438 H427 0.950 . S
C438 C436 1.391 . S
C438 C439 1.400 . S
C439 C433 1.491 . S
C439 C438 1.400 . S
C439 C440 1.398 . S
C440 H428 0.950 . S
C440 C439 1.398 . S
C440 C441 1.391 . S
C441 H429 0.950 . S
C441 C437 1.393 . S
C441 C440 1.391 . S
C217 C167 1.456 . S
C211 C15 1.558 . S
C237 C163 1.481 . S
C231 C55 1.540 1_455 S
C257 C188 1.464 . S
C251 C95 1.557 . S
C271 C135 1.545 . S
C277 C184 1.462 . S
C291 C21 1.177 . S
C297 C185 1.066 . S
C317 C200 1.071 . S
C311 C42 1.249 . S
C331 C2 1.691 . S
C337 C201 1.558 . S
C357 C197 1.588 . S
C351 C61 1.750 . S
C377 C164 1.090 1_655 S
C371 C101 1.193 . S
C391 C122 1.250 . S
C397 C179 1.080 . S
C417 C180 1.584 . S
C411 C82 1.706 . S
C437 C176 1.619 . S
C431 C141 1.751 . S
