# Generated by pormake.
# Topology nia, (6,6)-cn, num edge types: 1
# Building blocks:
#     Node 0, Type 0, BuildingBlock: MIFKUJ_clean_sbu_0, # of connection points: 6
#     Node 1, Type 0, BuildingBlock: MIFKUJ_clean_sbu_0, # of connection points: 6
#     Node 2, Type 1, BuildingBlock: MIDCAF_clean_sbu_0, # of connection points: 6
#     Node 3, Type 1, BuildingBlock: MIDCAF_clean_sbu_0, # of connection points: 6
#     Edge 4, Type (0, 1), BuildingBlock: TEMPAE_clean_linker_10, # of connection points: 2
#     Edge 5, Type (0, 1), BuildingBlock: TEMPAE_clean_linker_10, # of connection points: 2
#     Edge 6, Type (0, 1), BuildingBlock: TEMPAE_clean_linker_10, # of connection points: 2
#     Edge 7, Type (0, 1), BuildingBlock: TEMPAE_clean_linker_10, # of connection points: 2
#     Edge 8, Type (0, 1), BuildingBlock: TEMPAE_clean_linker_10, # of connection points: 2
#     Edge 9, Type (0, 1), BuildingBlock: TEMPAE_clean_linker_10, # of connection points: 2
#     Edge 10, Type (0, 1), BuildingBlock: TEMPAE_clean_linker_10, # of connection points: 2
#     Edge 11, Type (0, 1), BuildingBlock: TEMPAE_clean_linker_10, # of connection points: 2
#     Edge 12, Type (0, 1), BuildingBlock: TEMPAE_clean_linker_10, # of connection points: 2
#     Edge 13, Type (0, 1), BuildingBlock: TEMPAE_clean_linker_10, # of connection points: 2
#     Edge 14, Type (0, 1), BuildingBlock: TEMPAE_clean_linker_10, # of connection points: 2
#     Edge 15, Type (0, 1), BuildingBlock: TEMPAE_clean_linker_10, # of connection points: 2
# Relax obj value: 0.172
# Max RMSD: 0.250
# Mean RMSD: 0.184
data_MOF--net-nia--node1-MIFKUJ_clean_sbu_0--node2-MIDCAF_clean_sbu_0--edge1-TEMPAE_clean_linker_10
_symmetry_space_group_name_H-M    P1
_symmetry_Int_Tables_number       1
_symmetry_cell_setting            triclinic
loop_
_symmetry_equiv_pos_as_xyz
'x, y, z'
_cell_length_a     25.385286
_cell_length_b     25.362983
_cell_length_c     31.897558
_cell_angle_alpha  88.744835
_cell_angle_beta   88.057641
_cell_angle_gamma 127.37543
loop_
_atom_site_label
_atom_site_type_symbol
_atom_site_fract_x
_atom_site_fract_y
_atom_site_fract_z
_atom_type_partial_charge
Zn0 Zn 0.04739 0.96113 0.04086 0.0
Zn1 Zn -0.00125 0.03097 0.99563 0.0
C2 C 0.93841 0.84343 0.99605 0.0
O3 O 0.90018 0.8247 0.03059 0.0
C4 C 0.0798 0.16316 0.02795 0.0
O5 O 0.07647 0.18132 0.98985 0.0
O6 O 0.08584 0.92739 0.07732 0.0
O7 O 0.12465 0.04437 1.01022 0.0
O8 O 0.06204 0.02726 0.95829 0.0
C9 C 0.05945 0.866 0.08264 0.0
O10 O 0.00542 0.82218 0.06358 0.0
O11 O -0.00211 0.89626 0.99511 0.0
C12 C 0.92743 0.08053 0.972 0.0
O13 O 0.92349 0.08441 0.01286 0.0
O14 O 0.95738 0.05866 0.95706 0.0
O15 O 0.92273 0.95105 0.03022 0.0
O16 O 0.98814 0.96785 0.08 0.0
O17 O 0.05204 0.10224 0.03703 0.0
C18 C 0.11849 0.04929 0.97123 0.0
C19 C 0.9317 0.94861 0.06897 0.0
Zn20 Zn 0.07338 0.98341 0.49396 0.0
Zn21 Zn -0.00356 0.02642 0.53933 0.0
C22 C 0.1924 0.08996 0.53527 0.0
O23 O 0.21577 0.11842 0.49738 0.0
C24 C 0.87446 0.91737 0.50054 0.0
O25 O 0.86239 0.88281 0.53566 0.0
O26 O 0.11721 0.95349 0.45878 0.0
O27 O -0.00697 0.90238 0.52375 0.0
O28 O -0.00042 0.96184 0.57546 0.0
C29 C 0.10317 0.93776 0.42098 0.0
O30 O 0.05842 0.94077 0.40425 0.0
O31 O 0.13439 0.03538 0.54012 0.0
C32 C 0.90829 0.04657 0.58402 0.0
O33 O 0.86294 -0.00256 0.56203 0.0
O34 O 0.96807 0.06715 0.57945 0.0
O35 O 0.07924 0.10367 0.50676 0.0
O36 O 0.06289 0.03993 0.45552 0.0
O37 O 0.92679 0.9772 0.49607 0.0
C38 C 0.98485 0.90753 0.56259 0.0
C39 C 0.08348 0.0964 0.46776 0.0
Zn40 Zn 0.40017 0.69175 0.18833 0.0
Zn41 Zn 0.32877 0.64039 0.34861 0.0
Zn42 Zn 0.36538 0.66403 0.26771 0.0
C43 C 0.46812 0.7207 0.34143 0.0
C44 C 0.27352 0.51792 0.31512 0.0
O45 O 0.32204 0.71072 0.24054 0.0
O46 O 0.35028 0.72453 0.17257 0.0
C47 C 0.51708 0.76081 0.22682 0.0
O48 O 0.45731 0.71398 0.30201 0.0
O49 O 0.42023 0.69434 0.36866 0.0
O50 O 0.27572 0.54282 0.34942 0.0
O51 O 0.30428 0.55525 0.28149 0.0
O52 O 0.49612 0.75795 0.19109 0.0
O53 O 0.47603 0.72722 0.25879 0.0
O54 O 0.32064 0.56817 0.23829 0.0
O55 O 0.36602 0.60087 0.17351 0.0
C56 C 0.32951 0.55465 0.20121 0.0
O57 O 0.31214 0.70669 0.28447 0.0
O58 O 0.28012 0.67755 0.35182 0.0
C59 C 0.32022 0.72902 0.20287 0.0
C60 C 0.2824 0.7063 0.3183 0.0
Zn61 Zn 0.68072 0.32859 0.84589 0.0
Zn62 Zn 0.69921 0.3426 0.69035 0.0
Zn63 Zn 0.68989 0.33773 0.76812 0.0
C64 C 0.74871 0.46874 0.71109 0.0
C65 C 0.56652 0.25424 0.70951 0.0
O66 O 0.72935 0.28509 0.79094 0.0
O67 O 0.68744 0.25581 0.85651 0.0
C68 C 0.77452 0.46113 0.82649 0.0
O69 O 0.74694 0.44361 0.74711 0.0
O70 O 0.72385 0.43236 0.68028 0.0
O71 O 0.60708 0.26684 0.67965 0.0
O72 O 0.58812 0.28046 0.74506 0.0
O73 O 0.75892 0.41988 0.85644 0.0
O74 O 0.74944 0.44019 0.79064 0.0
O75 O 0.58381 0.28425 0.78829 0.0
O76 O 0.59289 0.30895 0.85488 0.0
C77 C 0.55779 0.28435 0.82363 0.0
O78 O 0.74029 0.29431 0.74695 0.0
O79 O 0.76823 0.33048 0.68044 0.0
C80 C 0.71872 0.25318 0.82614 0.0
C81 C 0.77067 0.30085 0.71169 0.0
C82 C 0.07843 0.78305 0.10141 0.0
C83 C 0.09151 0.84435 0.10792 0.0
C84 C 0.1129 0.76424 0.12221 0.0
C85 C 0.16038 0.80707 0.15101 0.0
C86 C 0.17076 0.86721 0.15965 0.0
C87 C 0.13688 0.88558 0.13751 0.0
C88 C 0.10088 0.70008 0.11175 0.0
C89 C 0.21949 0.91415 0.19073 0.0
C90 C 0.22178 0.72818 0.21545 0.0
C91 C 0.28243 0.7543 0.19372 0.0
C92 C 0.18266 0.74736 0.20348 0.0
C93 C 0.20401 0.7921 0.16808 0.0
C94 C 0.26597 0.81953 0.14664 0.0
C95 C 0.30453 0.80062 0.15992 0.0
C96 C 0.1174 0.71674 0.22784 0.0
C97 C 0.29034 0.86668 0.10846 0.0
H98 H 0.04324 0.7509 0.07866 0.0
H99 H 0.1465 0.93266 0.14315 0.0
H100 H 0.14788 0.71055 0.0992 0.0
H101 H 0.08414 0.66733 0.14061 0.0
H102 H 0.06288 0.67283 0.08821 0.0
H103 H 0.1988 0.93501 0.20924 0.0
H104 H 0.23273 0.89002 0.21275 0.0
H105 H 0.26555 0.95643 0.17339 0.0
H106 H 0.20352 0.69076 0.24074 0.0
H107 H 0.35147 0.82083 0.14302 0.0
H108 H 0.08074 0.66494 0.21855 0.0
H109 H 0.09694 0.74427 0.22238 0.0
H110 H 0.1233 0.71427 0.26201 0.0
H111 H 0.25306 0.8432 0.08423 0.0
H112 H 0.33843 0.88138 0.09437 0.0
H113 H 0.29675 0.91227 0.11717 0.0
C114 C 0.21414 0.07966 0.60999 0.0
C115 C 0.23581 0.11613 0.57117 0.0
C116 C 0.25809 0.09853 0.64211 0.0
C117 C 0.32512 0.15504 0.63515 0.0
C118 C 0.34575 0.19497 0.59739 0.0
C119 C 0.30088 0.17494 0.56583 0.0
C120 C 0.23384 0.05533 0.68217 0.0
C121 C 0.41659 0.25645 0.58905 0.0
C122 C 0.45875 0.23718 0.71372 0.0
C123 C 0.49589 0.21572 0.70076 0.0
C124 C 0.39871 0.21302 0.69551 0.0
C125 C 0.37633 0.16709 0.66352 0.0
C126 C 0.41028 0.14025 0.65383 0.0
C127 C 0.46985 0.16519 0.67246 0.0
C128 C 0.36303 0.24143 0.7078 0.0
C129 C 0.38732 0.08986 0.62076 0.0
H130 H 0.1636 0.03453 0.6147 0.0
H131 H 0.31774 0.20399 0.53626 0.0
H132 H 0.25014 0.02348 0.68099 0.0
H133 H 0.25517 0.08595 0.70991 0.0
H134 H 0.1788 0.02253 0.68658 0.0
H135 H 0.42287 0.28578 0.56033 0.0
H136 H 0.43307 0.28871 0.61613 0.0
H137 H 0.44971 0.24187 0.58504 0.0
H138 H 0.47909 0.27663 0.73544 0.0
H139 H 0.49842 0.14821 0.66278 0.0
H140 H 0.30848 0.20404 0.70642 0.0
H141 H 0.37958 0.28377 0.68556 0.0
H142 H 0.37436 0.26003 0.73998 0.0
H143 H 0.33331 0.04918 0.62566 0.0
H144 H 0.41412 0.06788 0.62086 0.0
H145 H 0.39603 0.11422 0.58926 0.0
C146 C 0.13206 0.19898 0.09729 0.0
C147 C 0.11272 0.21266 0.06042 0.0
C148 C 0.16508 0.24681 0.12758 0.0
C149 C 0.17807 0.3092 0.121 0.0
C150 C 0.15624 0.32208 0.08461 0.0
C151 C 0.12445 0.27395 0.05463 0.0
C152 C 0.18815 0.23153 0.16574 0.0
C153 C 0.16804 0.38755 0.07671 0.0
C154 C 0.2282 0.4361 0.20267 0.0
C155 C 0.29455 0.48557 0.18902 0.0
C156 C 0.19021 0.37519 0.18313 0.0
C157 C 0.21981 0.36391 0.14958 0.0
C158 C 0.28859 0.4112 0.13888 0.0
C159 C 0.32495 0.4717 0.15848 0.0
C160 C 0.11722 0.32594 0.19583 0.0
C161 C 0.32268 0.40055 0.10415 0.0
H162 H 0.12288 0.15152 0.10199 0.0
H163 H 0.1087 0.28442 0.02655 0.0
H164 H 0.24318 0.26276 0.16372 0.0
H165 H 0.1732 0.24378 0.19478 0.0
H166 H 0.16796 0.1785 0.16855 0.0
H167 H 0.14312 0.38757 0.04874 0.0
H168 H 0.14967 0.39896 0.10445 0.0
H169 H 0.2221 0.42812 0.07172 0.0
H170 H 0.20456 0.44686 0.22619 0.0
H171 H 0.37661 0.50969 0.14834 0.0
H172 H 0.10037 0.27414 0.1951 0.0
H173 H 0.08842 0.33161 0.17327 0.0
H174 H 0.10558 0.33422 0.2278 0.0
H175 H 0.3081 0.34954 0.10708 0.0
H176 H 0.37763 0.43674 0.10421 0.0
H177 H 0.30719 0.40629 0.07333 0.0
C178 C 0.93118 0.11975 0.64353 0.0
C179 C 0.89042 0.08033 0.61156 0.0
C180 C 0.91573 0.15453 0.66816 0.0
C181 C 0.85947 0.15125 0.65964 0.0
C182 C 0.81714 0.10982 0.6283 0.0
C183 C 0.83276 0.07436 0.605 0.0
C184 C 0.9603 0.19598 0.70253 0.0
C185 C 0.75682 0.1052 0.61801 0.0
C186 C 0.77843 0.20847 0.72642 0.0
C187 C 0.80337 0.26915 0.70541 0.0
C188 C 0.80126 0.17214 0.71472 0.0
C189 C 0.84788 0.19586 0.67998 0.0
C190 C 0.87599 0.25899 0.66033 0.0
C191 C 0.85376 0.29504 0.67354 0.0
C192 C 0.77136 0.1061 0.73749 0.0
C193 C 0.92533 0.28602 0.62292 0.0
H194 H 0.97528 0.12366 0.64917 0.0
H195 H 0.80097 0.04384 0.58044 0.0
H196 H 0.98792 0.24947 0.69346 0.0
H197 H 0.93023 0.18553 0.73202 0.0
H198 H -0.00322 0.18655 0.70881 0.0
H199 H 0.72808 0.06932 0.59353 0.0
H200 H 0.72356 0.08971 0.64663 0.0
H201 H 0.77246 0.15475 0.60668 0.0
H202 H 0.73802 0.18714 0.75009 0.0
H203 H 0.87324 0.34206 0.65725 0.0
H204 H 0.80734 0.09493 0.73826 0.0
H205 H 0.72775 0.06618 0.72097 0.0
H206 H 0.75415 0.10499 0.77023 0.0
H207 H 0.96631 0.28348 0.6297 0.0
H208 H 0.94697 0.33832 0.61376 0.0
H209 H 0.90023 0.25521 0.59572 0.0
C210 C 0.88948 0.93167 0.14407 0.0
C211 C 0.877 0.92368 0.10118 0.0
C212 C 0.83808 0.90931 0.1748 0.0
C213 C 0.77277 0.87791 0.16228 0.0
C214 C 0.75987 0.86921 0.11907 0.0
C215 C 0.81216 0.89247 0.0891 0.0
C216 C 0.85376 0.92012 0.22047 0.0
C217 C 0.69067 0.83533 0.10438 0.0
C218 C 0.61202 0.75802 0.22595 0.0
C219 C 0.58858 0.79557 0.22861 0.0
C220 C 0.67615 0.78655 0.20878 0.0
C221 C 0.71697 0.8539 0.19368 0.0
C222 C 0.69635 0.89385 0.20131 0.0
C223 C 0.63181 0.86387 0.21837 0.0
C224 C 0.69642 0.74232 0.20183 0.0
C225 C 0.73891 0.96621 0.18659 0.0
H226 H 0.93964 0.95616 0.15365 0.0
H227 H 0.80209 0.88593 0.0561 0.0
H228 H 0.84502 0.95508 0.2325 0.0
H229 H 0.82036 0.87277 0.23962 0.0
H230 H 0.90606 0.94075 0.22531 0.0
H231 H 0.6889 0.83133 0.06976 0.0
H232 H 0.65631 0.7846 0.11953 0.0
H233 H 0.67198 0.86341 0.1137 0.0
H234 H 0.57789 0.70482 0.23307 0.0
H235 H 0.61305 0.89251 0.21985 0.0
H236 H 0.74964 0.76868 0.20746 0.0
H237 H 0.68921 0.72792 0.16871 0.0
H238 H 0.66622 0.69628 0.22259 0.0
H239 H 0.79182 0.99113 0.19248 0.0
H240 H 0.72251 -0.00697 0.20239 0.0
H241 H 0.73543 0.97018 0.15223 0.0
C242 C 0.93055 0.84862 0.63272 0.0
C243 C 0.95613 0.84987 0.59265 0.0
C244 C 0.89959 0.79233 0.66046 0.0
C245 C 0.89472 0.73648 0.64784 0.0
C246 C 0.92351 0.73891 0.6083 0.0
C247 C 0.95341 0.79536 0.58108 0.0
C248 C 0.8694 0.79145 0.70232 0.0
C249 C 0.92027 0.68068 0.59393 0.0
C250 C 0.84469 0.58789 0.71723 0.0
C251 C 0.78085 0.53991 0.70406 0.0
C252 C 0.88118 0.65441 0.70202 0.0
C253 C 0.85277 0.6724 0.67303 0.0
C254 C 0.78598 0.62502 0.66296 0.0
C255 C 0.75103 0.55917 0.67837 0.0
C256 C 0.95182 0.70364 0.71414 0.0
C257 C 0.75317 0.64236 0.63297 0.0
H258 H 0.93279 0.89079 0.64196 0.0
H259 H 0.97401 0.79644 0.55046 0.0
H260 H 0.81445 0.75715 0.70188 0.0
H261 H 0.8835 0.77268 0.72792 0.0
H262 H 0.8849 0.84148 0.70974 0.0
H263 H 0.9504 0.69284 0.56415 0.0
H264 H 0.93813 0.66413 0.61839 0.0
H265 H 0.86798 0.63829 0.58898 0.0
H266 H 0.8677 0.5727 0.73702 0.0
H267 H 0.70128 0.52185 0.66857 0.0
H268 H 0.96464 0.75355 0.71767 0.0
H269 H 0.98594 0.70832 0.68899 0.0
H270 H 0.96054 0.68726 0.74397 0.0
H271 H 0.76229 0.68948 0.64106 0.0
H272 H 0.6987 0.60269 0.63312 0.0
H273 H 0.77476 0.64966 0.60059 0.0
C274 C 0.11226 0.88622 0.35766 0.0
C275 C 0.13422 0.9127 0.39705 0.0
C276 C 0.1373 0.85695 0.33655 0.0
C277 C 0.18522 0.85398 0.35533 0.0
C278 C 0.21023 0.88402 0.39393 0.0
C279 C 0.18434 0.91284 0.41435 0.0
C280 C 0.10996 0.82634 0.29525 0.0
C281 C 0.2621 0.88285 0.41476 0.0
C282 C 0.19212 0.71051 0.34408 0.0
C283 C 0.25145 0.74011 0.31969 0.0
C284 C 0.16739 0.74575 0.35317 0.0
C285 C 0.20343 0.81267 0.33794 0.0
C286 C 0.26089 0.84131 0.31067 0.0
C287 C 0.28439 0.80453 0.30185 0.0
C288 C 0.10513 0.71268 0.38156 0.0
C289 C 0.30057 0.91223 0.29339 0.0
H290 H 0.07395 0.8864 0.34384 0.0
H291 H 0.20231 0.93401 0.44448 0.0
H292 H 0.15007 0.83661 0.27305 0.0
H293 H 0.0733 0.77164 0.30056 0.0
H294 H 0.08482 0.84512 0.28053 0.0
H295 H 0.28052 0.91338 0.44275 0.0
H296 H 0.24071 0.83095 0.42479 0.0
H297 H 0.30491 0.90151 0.39219 0.0
H298 H 0.16634 0.66037 0.35753 0.0
H299 H 0.33044 0.82748 0.28306 0.0
H300 H 0.07009 0.71966 0.36777 0.0
H301 H 0.11803 0.73598 0.41233 0.0
H302 H 0.07943 0.65859 0.38715 0.0
H303 H 0.26818 0.9268 0.28708 0.0
H304 H 0.32975 0.92012 0.26396 0.0
H305 H 0.33587 0.94561 0.31684 0.0
C306 C 0.2317 0.08351 0.95245 0.0
C307 C 0.17639 0.07903 0.94101 0.0
C308 C 0.28818 0.11378 0.92501 0.0
C309 C 0.28996 0.14143 0.88541 0.0
C310 C 0.23346 0.13512 0.87302 0.0
C311 C 0.17703 0.10355 0.90095 0.0
C312 C 0.347 0.11835 0.93914 0.0
C313 C 0.23372 0.1644 0.83122 0.0
C314 C 0.4674 0.28435 0.85469 0.0
C315 C 0.48676 0.25364 0.82953 0.0
C316 C 0.40131 0.25012 0.86963 0.0
C317 C 0.35383 0.18312 0.85976 0.0
C318 C 0.37194 0.15399 0.83103 0.0
C319 C 0.43865 0.18984 0.81616 0.0
C320 C 0.38384 0.28378 0.89919 0.0
C321 C 0.32267 0.08309 0.81911 0.0
H322 H 0.23105 0.06367 0.98308 0.0
H323 H 0.13423 0.10001 0.89191 0.0
H324 H 0.36386 0.10029 0.91471 0.0
H325 H 0.38896 0.17099 0.94374 0.0
H326 H 0.33537 0.08902 0.96906 0.0
H327 H 0.1831 0.14647 0.82357 0.0
H328 H 0.26572 0.21934 0.83209 0.0
H329 H 0.25475 0.15222 0.80559 0.0
H330 H 0.5048 0.3341 0.8646 0.0
H331 H 0.45385 0.16614 0.79674 0.0
H332 H 0.37715 0.26358 0.93179 0.0
H333 H 0.33644 0.27385 0.8913 0.0
H334 H 0.42324 0.3384 0.89833 0.0
H335 H 0.31742 0.0493 0.8445 0.0
H336 H 0.33935 0.07369 0.78948 0.0
H337 H 0.27299 0.07048 0.81534 0.0
C338 C 0.10123 0.14206 0.39377 0.0
C339 C 0.11143 0.15289 0.43674 0.0
C340 C 0.12537 0.19516 0.3643 0.0
C341 C 0.16104 0.26051 0.37817 0.0
C342 C 0.17307 0.2718 0.42134 0.0
C343 C 0.14774 0.21785 0.45009 0.0
C344 C 0.11085 0.18107 0.31868 0.0
C345 C 0.21168 0.34092 0.43741 0.0
C346 C 0.27553 0.42177 0.31325 0.0
C347 C 0.23871 0.44604 0.31587 0.0
C348 C 0.24841 0.35766 0.32978 0.0
C349 C 0.18298 0.31747 0.34864 0.0
C350 C 0.14311 0.33901 0.34607 0.0
C351 C 0.17191 0.40366 0.33024 0.0
C352 C 0.29246 0.33646 0.33156 0.0
C353 C 0.07246 0.29696 0.36448 0.0
H354 H 0.07303 0.09185 0.38324 0.0
H355 H 0.15635 0.22662 0.48314 0.0
H356 H 0.07478 0.18994 0.30996 0.0
H357 H 0.15658 0.21513 0.29811 0.0
H358 H 0.0897 0.12899 0.3122 0.0
H359 H 0.22007 0.34158 0.47141 0.0
H360 H 0.2606 0.37428 0.41976 0.0
H361 H 0.18432 0.36163 0.43236 0.0
H362 H 0.32746 0.45508 0.30235 0.0
H363 H 0.1437 0.42289 0.33217 0.0
H364 H 0.26443 0.28302 0.32557 0.0
H365 H 0.3113 0.34384 0.36346 0.0
H366 H 0.33577 0.36601 0.30844 0.0
H367 H 0.04566 0.24428 0.35681 0.0
H368 H 0.04478 0.31486 0.35288 0.0
H369 H 0.07265 0.2989 0.39921 0.0
C370 C 0.8871 0.14714 0.95807 0.0
C371 C 0.89955 0.10368 0.94373 0.0
C372 C 0.86022 0.16945 0.93204 0.0
C373 C 0.84399 0.14659 0.89089 0.0
C374 C 0.85698 0.10313 0.87601 0.0
C375 C 0.88533 0.08269 0.90252 0.0
C376 C 0.84822 0.21678 0.94889 0.0
C377 C 0.83964 0.07721 0.83254 0.0
C378 C 0.71016 0.15717 0.85615 0.0
C379 C 0.74774 0.2185 0.83344 0.0
C380 C 0.74017 0.12971 0.87154 0.0
C381 C 0.80971 0.16556 0.86502 0.0
C382 C 0.84697 0.22507 0.83923 0.0
C383 C 0.81533 0.25086 0.8236 0.0
C384 C 0.69825 0.06505 0.8977 0.0
C385 C 0.92112 0.26481 0.83137 0.0
H386 H 0.89877 0.16415 0.98969 0.0
H387 H 0.89494 0.04906 0.89131 0.0
H388 H 0.872 0.26123 0.92706 0.0
H389 H 0.79416 0.19227 0.95126 0.0
H390 H 0.86785 0.23336 0.98041 0.0
H391 H 0.853 0.04377 0.82569 0.0
H392 H 0.78559 0.04957 0.82915 0.0
H393 H 0.86581 0.11922 0.80863 0.0
H394 H 0.65771 0.13212 0.86348 0.0
H395 H 0.84432 0.29855 0.80616 0.0
H396 H 0.70782 0.07521 0.93135 0.0
H397 H 0.71143 0.0321 0.88901 0.0
H398 H 0.64434 0.0383 0.89398 0.0
H399 H 0.9459 0.29211 0.85975 0.0
H400 H 0.94013 0.30153 0.80434 0.0
H401 H 0.93533 0.23196 0.8253 0.0
C402 C 0.76714 0.82302 0.47329 0.0
C403 C 0.82386 0.88949 0.46872 0.0
C404 C 0.71499 0.79768 0.44645 0.0
C405 C 0.71948 0.8399 0.41431 0.0
C406 C 0.77826 0.90593 0.40789 0.0
C407 C 0.82987 0.92997 0.43517 0.0
C408 C 0.65345 0.72669 0.45407 0.0
C409 C 0.78508 0.95241 0.37391 0.0
C410 C 0.58312 0.75317 0.33697 0.0
C411 C 0.53607 0.75838 0.356 0.0
C412 C 0.64493 0.7824 0.35424 0.0
C413 C 0.65935 0.81716 0.39153 0.0
C414 C 0.61289 0.82488 0.40971 0.0
C415 C 0.55174 0.79512 0.39183 0.0
C416 C 0.69343 0.77361 0.33375 0.0
C417 C 0.62635 0.86192 0.44927 0.0
H418 H 0.76242 0.79112 0.49874 0.0
H419 H 0.87379 0.9813 0.43117 0.0
H420 H 0.61157 0.72614 0.46609 0.0
H421 H 0.63898 0.70068 0.42427 0.0
H422 H 0.66056 0.69846 0.47724 0.0
H423 H 0.83703 -0.00164 0.36888 0.0
H424 H 0.76844 0.92752 0.34379 0.0
H425 H 0.75289 0.96675 0.38285 0.0
H426 H 0.57011 0.72312 0.31005 0.0
H427 H 0.51534 0.7993 0.40652 0.0
H428 H 0.70295 0.74633 0.35593 0.0
H429 H 0.74165 0.82283 0.32584 0.0
H430 H 0.67502 0.74597 0.30461 0.0
H431 H 0.62854 0.83456 0.47593 0.0
H432 H 0.58746 0.86796 0.45744 0.0
H433 H 0.67513 0.91185 0.44564 0.0
C434 C 0.95762 0.81784 0.92411 0.0
C435 C 0.91565 0.79937 0.96034 0.0
C436 C 0.94022 0.77281 0.89264 0.0
C437 C 0.87982 0.70775 0.89777 0.0
C438 C 0.83521 0.69058 0.93272 0.0
C439 C 0.85361 0.73663 0.96351 0.0
C440 C 0.98838 0.79359 0.85536 0.0
C441 C 0.76985 0.62189 0.93916 0.0
C442 C 0.80008 0.57301 0.81935 0.0
C443 C 0.81521 0.53209 0.83547 0.0
C444 C 0.82633 0.63455 0.83647 0.0
C445 C 0.86722 0.65431 0.87097 0.0
C446 C 0.88755 0.61594 0.88443 0.0
C447 C 0.8613 0.55533 0.86646 0.0
C448 C 0.80546 0.67514 0.82001 0.0
C449 C 0.93198 0.63554 0.9206 0.0
H450 H 0.0053 0.86668 0.921 0.0
H451 H 0.82047 0.72222 0.99104 0.0
H452 H 0.01586 0.77296 0.86014 0.0
H453 H 0.96181 0.77392 0.82606 0.0
H454 H 0.02511 0.84852 0.85115 0.0
H455 H 0.73825 0.61838 0.96574 0.0
H456 H 0.74191 0.60771 0.91028 0.0
H457 H 0.7793 0.58521 0.94568 0.0
H458 H 0.76388 0.55487 0.7957 0.0
H459 H 0.8735 0.52391 0.87866 0.0
H460 H 0.84597 0.72916 0.82127 0.0
H461 H 0.76229 0.66315 0.83977 0.0
H462 H 0.79049 0.66388 0.78711 0.0
H463 H 0.97611 0.68841 0.91638 0.0
H464 H 0.94914 0.60455 0.92396 0.0
H465 H 0.90442 0.62977 0.95029 0.0
loop_
_geom_bond_atom_site_label_1
_geom_bond_atom_site_label_2
_geom_bond_distance
_geom_bond_site_symmetry_2
_ccdc_geom_bond_type
Zn0 O6 1.969 . S
Zn0 O7 1.965 1_565 S
Zn0 O11 2.024 1_554 S
Zn0 O16 1.969 1_455 S
Zn1 O8 1.969 1_554 S
Zn1 O14 1.969 1_554 S
Zn1 O15 1.965 1_445 S
Zn1 O17 2.023 . S
C2 O3 1.210 1_556 S
C2 O11 1.058 1_655 S
O3 C2 1.210 1_554 S
C4 O5 1.229 . S
C4 O17 1.058 . S
O5 C4 1.229 . S
O6 Zn0 1.969 . S
O6 C9 1.267 . S
O7 Zn0 1.965 1_545 S
O7 C18 1.260 1_554 S
O8 Zn1 1.969 1_556 S
O8 C18 1.258 . S
C9 O6 1.267 . S
C9 O10 1.228 . S
O10 C9 1.228 . S
O11 Zn0 2.024 1_556 S
O11 C2 1.058 1_455 S
C12 O13 1.228 . S
C12 O14 1.267 1_655 S
O13 C12 1.228 . S
O14 Zn1 1.969 1_556 S
O14 C12 1.267 1_455 S
O15 Zn1 1.965 1_665 S
O15 C19 1.260 . S
O16 Zn0 1.969 1_655 S
O16 C19 1.258 . S
O17 Zn1 2.023 . S
O17 C4 1.058 . S
C18 O7 1.260 1_556 S
C18 O8 1.258 . S
C19 O15 1.260 . S
C19 O16 1.258 . S
Zn20 O26 1.969 1_545 S
Zn20 O27 1.965 1_545 S
Zn20 O31 2.024 . S
Zn20 O36 1.969 . S
Zn21 O28 1.969 1_545 S
Zn21 O34 1.969 . S
Zn21 O35 1.965 1_655 S
Zn21 O37 2.024 1_545 S
C22 O23 1.229 . S
C22 O31 1.058 . S
O23 C22 1.229 . S
C24 O25 1.229 . S
C24 O37 1.058 . S
O25 C24 1.229 . S
O26 Zn20 1.969 1_565 S
O26 C29 1.267 . S
O27 Zn20 1.965 1_565 S
O27 C38 1.260 1_455 S
O28 Zn21 1.969 1_565 S
O28 C38 1.258 . S
C29 O26 1.267 . S
C29 O30 1.228 . S
O30 C29 1.228 . S
O31 Zn20 2.024 . S
O31 C22 1.058 . S
C32 O33 1.228 . S
C32 O34 1.267 . S
O33 C32 1.228 . S
O34 Zn21 1.969 . S
O34 C32 1.267 . S
O35 Zn21 1.965 1_455 S
O35 C39 1.260 . S
O36 Zn20 1.969 . S
O36 C39 1.258 . S
O37 Zn21 2.024 1_565 S
O37 C24 1.058 . S
C38 O27 1.260 1_655 S
C38 O28 1.258 . S
C39 O35 1.260 . S
C39 O36 1.258 . S
Zn40 O46 1.920 . S
Zn40 O52 1.898 . S
Zn40 O55 1.905 . S
Zn41 O49 1.905 . S
Zn41 O50 1.898 . S
Zn41 O58 1.920 . S
Zn42 O45 2.080 . S
Zn42 O48 2.114 . S
Zn42 O51 2.120 . S
Zn42 O53 2.120 . S
Zn42 O54 2.114 . S
Zn42 O57 2.080 . S
C43 O48 1.166 . S
C43 O49 1.182 . S
C44 O50 1.167 . S
C44 O51 1.299 . S
O45 Zn42 2.080 . S
O45 C59 1.305 . S
O46 Zn40 1.920 . S
O46 C59 1.234 . S
C47 O52 1.167 . S
C47 O53 1.299 . S
O48 Zn42 2.114 . S
O48 C43 1.166 . S
O49 Zn41 1.905 . S
O49 C43 1.182 . S
O50 Zn41 1.898 . S
O50 C44 1.167 . S
O51 Zn42 2.120 . S
O51 C44 1.299 . S
O52 Zn40 1.898 . S
O52 C47 1.167 . S
O53 Zn42 2.120 . S
O53 C47 1.299 . S
O54 Zn42 2.114 . S
O54 C56 1.166 . S
O55 Zn40 1.905 . S
O55 C56 1.182 . S
C56 O54 1.166 . S
C56 O55 1.182 . S
O57 Zn42 2.080 . S
O57 C60 1.305 . S
O58 Zn41 1.920 . S
O58 C60 1.234 . S
C59 O45 1.305 . S
C59 O46 1.234 . S
C60 O57 1.305 . S
C60 O58 1.234 . S
Zn61 O67 1.920 . S
Zn61 O73 1.898 . S
Zn61 O76 1.905 . S
Zn62 O70 1.905 . S
Zn62 O71 1.898 . S
Zn62 O79 1.920 . S
Zn63 O66 2.080 . S
Zn63 O69 2.114 . S
Zn63 O72 2.120 . S
Zn63 O74 2.120 . S
Zn63 O75 2.114 . S
Zn63 O78 2.080 . S
C64 O69 1.166 . S
C64 O70 1.182 . S
C65 O71 1.167 . S
C65 O72 1.299 . S
O66 Zn63 2.080 . S
O66 C80 1.305 . S
O67 Zn61 1.920 . S
O67 C80 1.234 . S
C68 O73 1.167 . S
C68 O74 1.299 . S
O69 Zn63 2.114 . S
O69 C64 1.166 . S
O70 Zn62 1.905 . S
O70 C64 1.182 . S
O71 Zn62 1.898 . S
O71 C65 1.167 . S
O72 Zn63 2.120 . S
O72 C65 1.299 . S
O73 Zn61 1.898 . S
O73 C68 1.167 . S
O74 Zn63 2.120 . S
O74 C68 1.299 . S
O75 Zn63 2.114 . S
O75 C77 1.166 . S
O76 Zn61 1.905 . S
O76 C77 1.182 . S
C77 O75 1.166 . S
C77 O76 1.182 . S
O78 Zn63 2.080 . S
O78 C81 1.305 . S
O79 Zn62 1.920 . S
O79 C81 1.234 . S
C80 O66 1.305 . S
C80 O67 1.234 . S
C81 O78 1.305 . S
C81 O79 1.234 . S
C82 C83 1.391 . S
C82 C84 1.394 . S
C82 H98 0.931 . S
C83 C82 1.391 . S
C83 C87 1.376 . S
C84 C82 1.394 . S
C84 C85 1.369 . S
C84 C88 1.531 . S
C85 C84 1.369 . S
C85 C86 1.410 . S
C85 C93 1.503 . S
C86 C85 1.410 . S
C86 C87 1.392 . S
C86 C89 1.511 . S
C87 C83 1.376 . S
C87 C86 1.392 . S
C87 H99 0.929 . S
C88 C84 1.531 . S
C88 H100 0.960 . S
C88 H101 0.962 . S
C88 H102 0.960 . S
C89 C86 1.511 . S
C89 H103 0.961 . S
C89 H104 0.961 . S
C89 H105 0.961 . S
C90 C91 1.370 . S
C90 C92 1.363 . S
C90 H106 0.931 . S
C91 C90 1.370 . S
C91 C95 1.408 . S
C92 C90 1.363 . S
C92 C93 1.370 . S
C92 C96 1.524 . S
C93 C85 1.503 . S
C93 C92 1.370 . S
C93 C94 1.403 . S
C94 C93 1.403 . S
C94 C95 1.404 . S
C94 C97 1.539 . S
C95 C91 1.408 . S
C95 C94 1.404 . S
C95 H107 0.930 . S
C96 C92 1.524 . S
C96 H108 0.956 . S
C96 H109 0.961 . S
C96 H110 0.961 . S
C97 C94 1.539 . S
C97 H111 0.958 . S
C97 H112 0.961 . S
C97 H113 0.960 . S
H98 C82 0.931 . S
H99 C87 0.929 . S
H100 C88 0.960 . S
H101 C88 0.962 . S
H102 C88 0.960 . S
H103 C89 0.961 . S
H104 C89 0.961 . S
H105 C89 0.961 . S
H106 C90 0.931 . S
H107 C95 0.930 . S
H108 C96 0.956 . S
H109 C96 0.961 . S
H110 C96 0.961 . S
H111 C97 0.958 . S
H112 C97 0.961 . S
H113 C97 0.960 . S
C114 C115 1.391 . S
C114 C116 1.394 . S
C114 H130 0.931 . S
C115 C114 1.391 . S
C115 C119 1.376 . S
C116 C114 1.394 . S
C116 C117 1.369 . S
C116 C120 1.531 . S
C117 C116 1.369 . S
C117 C118 1.410 . S
C117 C125 1.503 . S
C118 C117 1.410 . S
C118 C119 1.392 . S
C118 C121 1.511 . S
C119 C115 1.376 . S
C119 C118 1.392 . S
C119 H131 0.929 . S
C120 C116 1.531 . S
C120 H132 0.960 . S
C120 H133 0.962 . S
C120 H134 0.960 . S
C121 C118 1.511 . S
C121 H135 0.961 . S
C121 H136 0.961 . S
C121 H137 0.961 . S
C122 C123 1.370 . S
C122 C124 1.363 . S
C122 H138 0.931 . S
C123 C122 1.370 . S
C123 C127 1.408 . S
C124 C122 1.363 . S
C124 C125 1.370 . S
C124 C128 1.524 . S
C125 C117 1.503 . S
C125 C124 1.370 . S
C125 C126 1.403 . S
C126 C125 1.403 . S
C126 C127 1.404 . S
C126 C129 1.539 . S
C127 C123 1.408 . S
C127 C126 1.404 . S
C127 H139 0.930 . S
C128 C124 1.524 . S
C128 H140 0.956 . S
C128 H141 0.961 . S
C128 H142 0.961 . S
C129 C126 1.539 . S
C129 H143 0.958 . S
C129 H144 0.961 . S
C129 H145 0.960 . S
H130 C114 0.931 . S
H131 C119 0.929 . S
H132 C120 0.960 . S
H133 C120 0.962 . S
H134 C120 0.960 . S
H135 C121 0.961 . S
H136 C121 0.961 . S
H137 C121 0.961 . S
H138 C122 0.931 . S
H139 C127 0.930 . S
H140 C128 0.956 . S
H141 C128 0.961 . S
H142 C128 0.961 . S
H143 C129 0.958 . S
H144 C129 0.961 . S
H145 C129 0.960 . S
C146 C147 1.391 . S
C146 C148 1.394 . S
C146 H162 0.931 . S
C147 C146 1.391 . S
C147 C151 1.376 . S
C148 C146 1.394 . S
C148 C149 1.369 . S
C148 C152 1.531 . S
C149 C148 1.369 . S
C149 C150 1.410 . S
C149 C157 1.503 . S
C150 C149 1.410 . S
C150 C151 1.392 . S
C150 C153 1.511 . S
C151 C147 1.376 . S
C151 C150 1.392 . S
C151 H163 0.929 . S
C152 C148 1.531 . S
C152 H164 0.960 . S
C152 H165 0.962 . S
C152 H166 0.960 . S
C153 C150 1.511 . S
C153 H167 0.961 . S
C153 H168 0.961 . S
C153 H169 0.961 . S
C154 C155 1.370 . S
C154 C156 1.363 . S
C154 H170 0.931 . S
C155 C154 1.370 . S
C155 C159 1.408 . S
C156 C154 1.363 . S
C156 C157 1.370 . S
C156 C160 1.524 . S
C157 C149 1.503 . S
C157 C156 1.370 . S
C157 C158 1.403 . S
C158 C157 1.403 . S
C158 C159 1.404 . S
C158 C161 1.539 . S
C159 C155 1.408 . S
C159 C158 1.404 . S
C159 H171 0.930 . S
C160 C156 1.524 . S
C160 H172 0.956 . S
C160 H173 0.961 . S
C160 H174 0.961 . S
C161 C158 1.539 . S
C161 H175 0.958 . S
C161 H176 0.961 . S
C161 H177 0.960 . S
H162 C146 0.931 . S
H163 C151 0.929 . S
H164 C152 0.960 . S
H165 C152 0.962 . S
H166 C152 0.960 . S
H167 C153 0.961 . S
H168 C153 0.961 . S
H169 C153 0.961 . S
H170 C154 0.931 . S
H171 C159 0.930 . S
H172 C160 0.956 . S
H173 C160 0.961 . S
H174 C160 0.961 . S
H175 C161 0.958 . S
H176 C161 0.961 . S
H177 C161 0.960 . S
C178 C179 1.391 . S
C178 C180 1.394 . S
C178 H194 0.931 . S
C179 C178 1.391 . S
C179 C183 1.376 . S
C180 C178 1.394 . S
C180 C181 1.369 . S
C180 C184 1.531 . S
C181 C180 1.369 . S
C181 C182 1.410 . S
C181 C189 1.503 . S
C182 C181 1.410 . S
C182 C183 1.392 . S
C182 C185 1.511 . S
C183 C179 1.376 . S
C183 C182 1.392 . S
C183 H195 0.929 . S
C184 C180 1.531 . S
C184 H196 0.960 . S
C184 H197 0.962 . S
C184 H198 0.960 1_655 S
C185 C182 1.511 . S
C185 H199 0.961 . S
C185 H200 0.961 . S
C185 H201 0.961 . S
C186 C187 1.370 . S
C186 C188 1.363 . S
C186 H202 0.931 . S
C187 C186 1.370 . S
C187 C191 1.408 . S
C188 C186 1.363 . S
C188 C189 1.370 . S
C188 C192 1.524 . S
C189 C181 1.503 . S
C189 C188 1.370 . S
C189 C190 1.403 . S
C190 C189 1.403 . S
C190 C191 1.404 . S
C190 C193 1.539 . S
C191 C187 1.408 . S
C191 C190 1.404 . S
C191 H203 0.930 . S
C192 C188 1.524 . S
C192 H204 0.956 . S
C192 H205 0.961 . S
C192 H206 0.961 . S
C193 C190 1.539 . S
C193 H207 0.958 . S
C193 H208 0.961 . S
C193 H209 0.960 . S
H194 C178 0.931 . S
H195 C183 0.929 . S
H196 C184 0.960 . S
H197 C184 0.962 . S
H198 C184 0.960 1_455 S
H199 C185 0.961 . S
H200 C185 0.961 . S
H201 C185 0.961 . S
H202 C186 0.931 . S
H203 C191 0.930 . S
H204 C192 0.956 . S
H205 C192 0.961 . S
H206 C192 0.961 . S
H207 C193 0.958 . S
H208 C193 0.961 . S
H209 C193 0.960 . S
C210 C211 1.391 . S
C210 C212 1.394 . S
C210 H226 0.931 . S
C211 C210 1.391 . S
C211 C215 1.376 . S
C212 C210 1.394 . S
C212 C213 1.369 . S
C212 C216 1.531 . S
C213 C212 1.369 . S
C213 C214 1.410 . S
C213 C221 1.503 . S
C214 C213 1.410 . S
C214 C215 1.392 . S
C214 C217 1.511 . S
C215 C211 1.376 . S
C215 C214 1.392 . S
C215 H227 0.929 . S
C216 C212 1.531 . S
C216 H228 0.960 . S
C216 H229 0.962 . S
C216 H230 0.960 . S
C217 C214 1.511 . S
C217 H231 0.961 . S
C217 H232 0.961 . S
C217 H233 0.961 . S
C218 C219 1.370 . S
C218 C220 1.363 . S
C218 H234 0.931 . S
C219 C218 1.370 . S
C219 C223 1.408 . S
C220 C218 1.363 . S
C220 C221 1.370 . S
C220 C224 1.524 . S
C221 C213 1.503 . S
C221 C220 1.370 . S
C221 C222 1.403 . S
C222 C221 1.403 . S
C222 C223 1.404 . S
C222 C225 1.539 . S
C223 C219 1.408 . S
C223 C222 1.404 . S
C223 H235 0.930 . S
C224 C220 1.524 . S
C224 H236 0.956 . S
C224 H237 0.961 . S
C224 H238 0.961 . S
C225 C222 1.539 . S
C225 H239 0.958 . S
C225 H240 0.961 1_565 S
C225 H241 0.959 . S
H226 C210 0.931 . S
H227 C215 0.929 . S
H228 C216 0.960 . S
H229 C216 0.962 . S
H230 C216 0.960 . S
H231 C217 0.961 . S
H232 C217 0.961 . S
H233 C217 0.961 . S
H234 C218 0.931 . S
H235 C223 0.930 . S
H236 C224 0.956 . S
H237 C224 0.961 . S
H238 C224 0.961 . S
H239 C225 0.958 . S
H240 C225 0.961 1_545 S
H241 C225 0.959 . S
C242 C243 1.391 . S
C242 C244 1.394 . S
C242 H258 0.931 . S
C243 C242 1.391 . S
C243 C247 1.376 . S
C244 C242 1.394 . S
C244 C245 1.369 . S
C244 C248 1.531 . S
C245 C244 1.369 . S
C245 C246 1.410 . S
C245 C253 1.503 . S
C246 C245 1.410 . S
C246 C247 1.392 . S
C246 C249 1.511 . S
C247 C243 1.376 . S
C247 C246 1.392 . S
C247 H259 0.929 1_655 S
C248 C244 1.531 . S
C248 H260 0.960 . S
C248 H261 0.962 . S
C248 H262 0.960 . S
C249 C246 1.511 . S
C249 H263 0.960 1_655 S
C249 H264 0.961 . S
C249 H265 0.961 . S
C250 C251 1.370 . S
C250 C252 1.363 . S
C250 H266 0.931 . S
C251 C250 1.370 . S
C251 C255 1.408 . S
C252 C250 1.363 . S
C252 C253 1.370 . S
C252 C256 1.524 . S
C253 C245 1.503 . S
C253 C252 1.370 . S
C253 C254 1.403 . S
C254 C253 1.403 . S
C254 C255 1.404 . S
C254 C257 1.539 . S
C255 C251 1.408 . S
C255 C254 1.404 . S
C255 H267 0.930 . S
C256 C252 1.524 . S
C256 H268 0.956 . S
C256 H269 0.961 . S
C256 H270 0.961 . S
C257 C254 1.539 . S
C257 H271 0.958 . S
C257 H272 0.961 . S
C257 H273 0.960 . S
H258 C242 0.931 . S
H259 C247 0.929 1_455 S
H260 C248 0.960 . S
H261 C248 0.962 . S
H262 C248 0.960 . S
H263 C249 0.960 1_455 S
H264 C249 0.961 . S
H265 C249 0.961 . S
H266 C250 0.931 . S
H267 C255 0.930 . S
H268 C256 0.956 . S
H269 C256 0.961 . S
H270 C256 0.961 . S
H271 C257 0.958 . S
H272 C257 0.961 . S
H273 C257 0.960 . S
C274 C275 1.391 . S
C274 C276 1.394 . S
C274 H290 0.931 . S
C275 C274 1.391 . S
C275 C279 1.376 . S
C276 C274 1.394 . S
C276 C277 1.369 . S
C276 C280 1.531 . S
C277 C276 1.369 . S
C277 C278 1.410 . S
C277 C285 1.503 . S
C278 C277 1.410 . S
C278 C279 1.392 . S
C278 C281 1.511 . S
C279 C275 1.376 . S
C279 C278 1.392 . S
C279 H291 0.929 1_565 S
C280 C276 1.531 . S
C280 H292 0.960 . S
C280 H293 0.962 . S
C280 H294 0.960 . S
C281 C278 1.511 . S
C281 H295 0.961 1_565 S
C281 H296 0.961 . S
C281 H297 0.961 . S
C282 C283 1.370 . S
C282 C284 1.363 . S
C282 H298 0.931 . S
C283 C282 1.370 . S
C283 C287 1.408 . S
C284 C282 1.363 . S
C284 C285 1.370 . S
C284 C288 1.524 . S
C285 C277 1.503 . S
C285 C284 1.370 . S
C285 C286 1.403 . S
C286 C285 1.403 . S
C286 C287 1.404 . S
C286 C289 1.539 . S
C287 C283 1.408 . S
C287 C286 1.404 . S
C287 H299 0.930 . S
C288 C284 1.524 . S
C288 H300 0.956 . S
C288 H301 0.961 . S
C288 H302 0.961 . S
C289 C286 1.539 . S
C289 H303 0.958 . S
C289 H304 0.961 . S
C289 H305 0.960 . S
H290 C274 0.931 . S
H291 C279 0.929 1_545 S
H292 C280 0.960 . S
H293 C280 0.962 . S
H294 C280 0.960 . S
H295 C281 0.961 1_545 S
H296 C281 0.961 . S
H297 C281 0.961 . S
H298 C282 0.931 . S
H299 C287 0.930 . S
H300 C288 0.956 . S
H301 C288 0.961 . S
H302 C288 0.961 . S
H303 C289 0.958 . S
H304 C289 0.961 . S
H305 C289 0.960 . S
C306 C307 1.391 . S
C306 C308 1.394 . S
C306 H322 0.931 . S
C307 C306 1.391 . S
C307 C311 1.376 . S
C308 C306 1.394 . S
C308 C309 1.369 . S
C308 C312 1.531 . S
C309 C308 1.369 . S
C309 C310 1.410 . S
C309 C317 1.503 . S
C310 C309 1.410 . S
C310 C311 1.392 . S
C310 C313 1.511 . S
C311 C307 1.376 . S
C311 C310 1.392 . S
C311 H323 0.929 . S
C312 C308 1.531 . S
C312 H324 0.960 . S
C312 H325 0.962 . S
C312 H326 0.960 . S
C313 C310 1.511 . S
C313 H327 0.961 . S
C313 H328 0.961 . S
C313 H329 0.961 . S
C314 C315 1.370 . S
C314 C316 1.363 . S
C314 H330 0.931 . S
C315 C314 1.370 . S
C315 C319 1.408 . S
C316 C314 1.363 . S
C316 C317 1.370 . S
C316 C320 1.524 . S
C317 C309 1.503 . S
C317 C316 1.370 . S
C317 C318 1.403 . S
C318 C317 1.403 . S
C318 C319 1.404 . S
C318 C321 1.539 . S
C319 C315 1.408 . S
C319 C318 1.404 . S
C319 H331 0.930 . S
C320 C316 1.524 . S
C320 H332 0.956 . S
C320 H333 0.961 . S
C320 H334 0.961 . S
C321 C318 1.539 . S
C321 H335 0.958 . S
C321 H336 0.961 . S
C321 H337 0.960 . S
H322 C306 0.931 . S
H323 C311 0.929 . S
H324 C312 0.960 . S
H325 C312 0.962 . S
H326 C312 0.960 . S
H327 C313 0.961 . S
H328 C313 0.961 . S
H329 C313 0.961 . S
H330 C314 0.931 . S
H331 C319 0.930 . S
H332 C320 0.956 . S
H333 C320 0.961 . S
H334 C320 0.961 . S
H335 C321 0.958 . S
H336 C321 0.961 . S
H337 C321 0.960 . S
C338 C339 1.391 . S
C338 C340 1.394 . S
C338 H354 0.931 . S
C339 C338 1.391 . S
C339 C343 1.376 . S
C340 C338 1.394 . S
C340 C341 1.369 . S
C340 C344 1.531 . S
C341 C340 1.369 . S
C341 C342 1.410 . S
C341 C349 1.503 . S
C342 C341 1.410 . S
C342 C343 1.392 . S
C342 C345 1.511 . S
C343 C339 1.376 . S
C343 C342 1.392 . S
C343 H355 0.929 . S
C344 C340 1.531 . S
C344 H356 0.960 . S
C344 H357 0.962 . S
C344 H358 0.960 . S
C345 C342 1.511 . S
C345 H359 0.961 . S
C345 H360 0.961 . S
C345 H361 0.961 . S
C346 C347 1.370 . S
C346 C348 1.363 . S
C346 H362 0.931 . S
C347 C346 1.370 . S
C347 C351 1.408 . S
C348 C346 1.363 . S
C348 C349 1.370 . S
C348 C352 1.524 . S
C349 C341 1.503 . S
C349 C348 1.370 . S
C349 C350 1.403 . S
C350 C349 1.403 . S
C350 C351 1.404 . S
C350 C353 1.539 . S
C351 C347 1.408 . S
C351 C350 1.404 . S
C351 H363 0.930 . S
C352 C348 1.524 . S
C352 H364 0.956 . S
C352 H365 0.961 . S
C352 H366 0.961 . S
C353 C350 1.539 . S
C353 H367 0.958 . S
C353 H368 0.961 . S
C353 H369 0.960 . S
H354 C338 0.931 . S
H355 C343 0.929 . S
H356 C344 0.960 . S
H357 C344 0.962 . S
H358 C344 0.960 . S
H359 C345 0.961 . S
H360 C345 0.961 . S
H361 C345 0.961 . S
H362 C346 0.931 . S
H363 C351 0.930 . S
H364 C352 0.956 . S
H365 C352 0.961 . S
H366 C352 0.961 . S
H367 C353 0.958 . S
H368 C353 0.961 . S
H369 C353 0.960 . S
C370 C371 1.391 . S
C370 C372 1.394 . S
C370 H386 0.931 . S
C371 C370 1.391 . S
C371 C375 1.376 . S
C372 C370 1.394 . S
C372 C373 1.369 . S
C372 C376 1.531 . S
C373 C372 1.369 . S
C373 C374 1.410 . S
C373 C381 1.503 . S
C374 C373 1.410 . S
C374 C375 1.392 . S
C374 C377 1.511 . S
C375 C371 1.376 . S
C375 C374 1.392 . S
C375 H387 0.929 . S
C376 C372 1.531 . S
C376 H388 0.960 . S
C376 H389 0.962 . S
C376 H390 0.960 . S
C377 C374 1.511 . S
C377 H391 0.961 . S
C377 H392 0.961 . S
C377 H393 0.961 . S
C378 C379 1.370 . S
C378 C380 1.363 . S
C378 H394 0.931 . S
C379 C378 1.370 . S
C379 C383 1.408 . S
C380 C378 1.363 . S
C380 C381 1.370 . S
C380 C384 1.524 . S
C381 C373 1.503 . S
C381 C380 1.370 . S
C381 C382 1.403 . S
C382 C381 1.403 . S
C382 C383 1.404 . S
C382 C385 1.539 . S
C383 C379 1.408 . S
C383 C382 1.404 . S
C383 H395 0.930 . S
C384 C380 1.524 . S
C384 H396 0.956 . S
C384 H397 0.961 . S
C384 H398 0.961 . S
C385 C382 1.539 . S
C385 H399 0.958 . S
C385 H400 0.961 . S
C385 H401 0.960 . S
H386 C370 0.931 . S
H387 C375 0.929 . S
H388 C376 0.960 . S
H389 C376 0.962 . S
H390 C376 0.960 . S
H391 C377 0.961 . S
H392 C377 0.961 . S
H393 C377 0.961 . S
H394 C378 0.931 . S
H395 C383 0.930 . S
H396 C384 0.956 . S
H397 C384 0.961 . S
H398 C384 0.961 . S
H399 C385 0.958 . S
H400 C385 0.961 . S
H401 C385 0.960 . S
C402 C403 1.391 . S
C402 C404 1.394 . S
C402 H418 0.931 . S
C403 C402 1.391 . S
C403 C407 1.376 . S
C404 C402 1.394 . S
C404 C405 1.369 . S
C404 C408 1.531 . S
C405 C404 1.369 . S
C405 C406 1.410 . S
C405 C413 1.503 . S
C406 C405 1.410 . S
C406 C407 1.392 . S
C406 C409 1.511 . S
C407 C403 1.376 . S
C407 C406 1.392 . S
C407 H419 0.929 . S
C408 C404 1.531 . S
C408 H420 0.960 . S
C408 H421 0.962 . S
C408 H422 0.960 . S
C409 C406 1.511 . S
C409 H423 0.961 . S
C409 H424 0.961 . S
C409 H425 0.961 . S
C410 C411 1.370 . S
C410 C412 1.363 . S
C410 H426 0.931 . S
C411 C410 1.370 . S
C411 C415 1.408 . S
C412 C410 1.363 . S
C412 C413 1.370 . S
C412 C416 1.524 . S
C413 C405 1.503 . S
C413 C412 1.370 . S
C413 C414 1.403 . S
C414 C413 1.403 . S
C414 C415 1.404 . S
C414 C417 1.539 . S
C415 C411 1.408 . S
C415 C414 1.404 . S
C415 H427 0.930 . S
C416 C412 1.524 . S
C416 H428 0.956 . S
C416 H429 0.961 . S
C416 H430 0.961 . S
C417 C414 1.539 . S
C417 H431 0.958 . S
C417 H432 0.961 . S
C417 H433 0.960 . S
H418 C402 0.931 . S
H419 C407 0.929 . S
H420 C408 0.960 . S
H421 C408 0.962 . S
H422 C408 0.960 . S
H423 C409 0.961 . S
H424 C409 0.961 . S
H425 C409 0.961 . S
H426 C410 0.931 . S
H427 C415 0.930 . S
H428 C416 0.956 . S
H429 C416 0.961 . S
H430 C416 0.961 . S
H431 C417 0.958 . S
H432 C417 0.961 . S
H433 C417 0.960 . S
C434 C435 1.391 . S
C434 C436 1.394 . S
C434 H450 0.931 1_655 S
C435 C434 1.391 . S
C435 C439 1.376 . S
C436 C434 1.394 . S
C436 C437 1.369 . S
C436 C440 1.531 . S
C437 C436 1.369 . S
C437 C438 1.410 . S
C437 C445 1.503 . S
C438 C437 1.410 . S
C438 C439 1.392 . S
C438 C441 1.511 . S
C439 C435 1.376 . S
C439 C438 1.392 . S
C439 H451 0.929 . S
C440 C436 1.531 . S
C440 H452 0.960 . S
C440 H453 0.962 . S
C440 H454 0.960 1_655 S
C441 C438 1.511 . S
C441 H455 0.961 . S
C441 H456 0.961 . S
C441 H457 0.961 . S
C442 C443 1.370 . S
C442 C444 1.363 . S
C442 H458 0.931 . S
C443 C442 1.370 . S
C443 C447 1.408 . S
C444 C442 1.363 . S
C444 C445 1.370 . S
C444 C448 1.524 . S
C445 C437 1.503 . S
C445 C444 1.370 . S
C445 C446 1.403 . S
C446 C445 1.403 . S
C446 C447 1.404 . S
C446 C449 1.539 . S
C447 C443 1.408 . S
C447 C446 1.404 . S
C447 H459 0.930 . S
C448 C444 1.524 . S
C448 H460 0.956 . S
C448 H461 0.961 . S
C448 H462 0.961 . S
C449 C446 1.539 . S
C449 H463 0.958 1_655 S
C449 H464 0.961 . S
C449 H465 0.960 . S
H450 C434 0.931 1_455 S
H451 C439 0.929 . S
H452 C440 0.960 . S
H453 C440 0.962 . S
H454 C440 0.960 1_455 S
H455 C441 0.961 . S
H456 C441 0.961 . S
H457 C441 0.961 . S
H458 C442 0.931 . S
H459 C447 0.930 . S
H460 C448 0.956 . S
H461 C448 0.961 . S
H462 C448 0.961 . S
H463 C449 0.958 1_455 S
H464 C449 0.961 . S
H465 C449 0.960 . S
C83 C9 1.399 . S
C91 C59 1.306 . S
C115 C22 1.205 . S
C123 C65 1.150 . S
C147 C4 1.259 . S
C155 C56 1.171 . S
C179 C32 1.507 . S
C187 C81 1.389 . S
C211 C19 1.831 . S
C219 C47 1.683 . S
C251 C64 1.639 . S
C243 C38 1.734 . S
C275 C29 1.440 . S
C283 C60 1.345 . S
C315 C77 1.666 . S
C307 C18 1.763 . S
C347 C44 1.686 . S
C339 C39 1.832 . S
C379 C80 1.402 . S
C371 C12 1.535 . S
C411 C43 1.170 . S
C403 C24 1.254 . S
C443 C68 1.132 . S
C435 C2 1.181 . S
