# Generated by pormake.
# Topology gar, (4,6)-cn, num edge types: 1
# Building blocks:
#     Node 0, Type 0, BuildingBlock: AZAVOO_clean_sbu_0, # of connection points: 4
#     Node 1, Type 0, BuildingBlock: AZAVOO_clean_sbu_0, # of connection points: 4
#     Node 2, Type 0, BuildingBlock: AZAVOO_clean_sbu_0, # of connection points: 4
#     Node 3, Type 0, BuildingBlock: AZAVOO_clean_sbu_0, # of connection points: 4
#     Node 4, Type 0, BuildingBlock: AZAVOO_clean_sbu_0, # of connection points: 4
#     Node 5, Type 0, BuildingBlock: AZAVOO_clean_sbu_0, # of connection points: 4
#     Node 6, Type 0, BuildingBlock: AZAVOO_clean_sbu_0, # of connection points: 4
#     Node 7, Type 0, BuildingBlock: AZAVOO_clean_sbu_0, # of connection points: 4
#     Node 8, Type 0, BuildingBlock: AZAVOO_clean_sbu_0, # of connection points: 4
#     Node 9, Type 0, BuildingBlock: AZAVOO_clean_sbu_0, # of connection points: 4
#     Node 10, Type 0, BuildingBlock: AZAVOO_clean_sbu_0, # of connection points: 4
#     Node 11, Type 0, BuildingBlock: AZAVOO_clean_sbu_0, # of connection points: 4
#     Node 12, Type 0, BuildingBlock: AZAVOO_clean_sbu_0, # of connection points: 4
#     Node 13, Type 0, BuildingBlock: AZAVOO_clean_sbu_0, # of connection points: 4
#     Node 14, Type 0, BuildingBlock: AZAVOO_clean_sbu_0, # of connection points: 4
#     Node 15, Type 0, BuildingBlock: AZAVOO_clean_sbu_0, # of connection points: 4
#     Node 16, Type 0, BuildingBlock: AZAVOO_clean_sbu_0, # of connection points: 4
#     Node 17, Type 0, BuildingBlock: AZAVOO_clean_sbu_0, # of connection points: 4
#     Node 18, Type 0, BuildingBlock: AZAVOO_clean_sbu_0, # of connection points: 4
#     Node 19, Type 0, BuildingBlock: AZAVOO_clean_sbu_0, # of connection points: 4
#     Node 20, Type 0, BuildingBlock: AZAVOO_clean_sbu_0, # of connection points: 4
#     Node 21, Type 0, BuildingBlock: AZAVOO_clean_sbu_0, # of connection points: 4
#     Node 22, Type 0, BuildingBlock: AZAVOO_clean_sbu_0, # of connection points: 4
#     Node 23, Type 0, BuildingBlock: AZAVOO_clean_sbu_0, # of connection points: 4
#     Node 24, Type 1, BuildingBlock: BETDIP_clean_sbu_0, # of connection points: 6
#     Node 25, Type 1, BuildingBlock: BETDIP_clean_sbu_0, # of connection points: 6
#     Node 26, Type 1, BuildingBlock: BETDIP_clean_sbu_0, # of connection points: 6
#     Node 27, Type 1, BuildingBlock: BETDIP_clean_sbu_0, # of connection points: 6
#     Node 28, Type 1, BuildingBlock: BETDIP_clean_sbu_0, # of connection points: 6
#     Node 29, Type 1, BuildingBlock: BETDIP_clean_sbu_0, # of connection points: 6
#     Node 30, Type 1, BuildingBlock: BETDIP_clean_sbu_0, # of connection points: 6
#     Node 31, Type 1, BuildingBlock: BETDIP_clean_sbu_0, # of connection points: 6
#     Node 32, Type 1, BuildingBlock: BETDIP_clean_sbu_0, # of connection points: 6
#     Node 33, Type 1, BuildingBlock: BETDIP_clean_sbu_0, # of connection points: 6
#     Node 34, Type 1, BuildingBlock: BETDIP_clean_sbu_0, # of connection points: 6
#     Node 35, Type 1, BuildingBlock: BETDIP_clean_sbu_0, # of connection points: 6
#     Node 36, Type 1, BuildingBlock: BETDIP_clean_sbu_0, # of connection points: 6
#     Node 37, Type 1, BuildingBlock: BETDIP_clean_sbu_0, # of connection points: 6
#     Node 38, Type 1, BuildingBlock: BETDIP_clean_sbu_0, # of connection points: 6
#     Node 39, Type 1, BuildingBlock: BETDIP_clean_sbu_0, # of connection points: 6
#     Edge 40, Type (0, 1), BuildingBlock: ZUJKAS_clean_linker_0, # of connection points: 2
#     Edge 41, Type (0, 1), BuildingBlock: ZUJKAS_clean_linker_0, # of connection points: 2
#     Edge 42, Type (0, 1), BuildingBlock: ZUJKAS_clean_linker_0, # of connection points: 2
#     Edge 43, Type (0, 1), BuildingBlock: ZUJKAS_clean_linker_0, # of connection points: 2
#     Edge 44, Type (0, 1), BuildingBlock: ZUJKAS_clean_linker_0, # of connection points: 2
#     Edge 45, Type (0, 1), BuildingBlock: ZUJKAS_clean_linker_0, # of connection points: 2
#     Edge 46, Type (0, 1), BuildingBlock: ZUJKAS_clean_linker_0, # of connection points: 2
#     Edge 47, Type (0, 1), BuildingBlock: ZUJKAS_clean_linker_0, # of connection points: 2
#     Edge 48, Type (0, 1), BuildingBlock: ZUJKAS_clean_linker_0, # of connection points: 2
#     Edge 49, Type (0, 1), BuildingBlock: ZUJKAS_clean_linker_0, # of connection points: 2
#     Edge 50, Type (0, 1), BuildingBlock: ZUJKAS_clean_linker_0, # of connection points: 2
#     Edge 51, Type (0, 1), BuildingBlock: ZUJKAS_clean_linker_0, # of connection points: 2
#     Edge 52, Type (0, 1), BuildingBlock: ZUJKAS_clean_linker_0, # of connection points: 2
#     Edge 53, Type (0, 1), BuildingBlock: ZUJKAS_clean_linker_0, # of connection points: 2
#     Edge 54, Type (0, 1), BuildingBlock: ZUJKAS_clean_linker_0, # of connection points: 2
#     Edge 55, Type (0, 1), BuildingBlock: ZUJKAS_clean_linker_0, # of connection points: 2
#     Edge 56, Type (0, 1), BuildingBlock: ZUJKAS_clean_linker_0, # of connection points: 2
#     Edge 57, Type (0, 1), BuildingBlock: ZUJKAS_clean_linker_0, # of connection points: 2
#     Edge 58, Type (0, 1), BuildingBlock: ZUJKAS_clean_linker_0, # of connection points: 2
#     Edge 59, Type (0, 1), BuildingBlock: ZUJKAS_clean_linker_0, # of connection points: 2
#     Edge 60, Type (0, 1), BuildingBlock: ZUJKAS_clean_linker_0, # of connection points: 2
#     Edge 61, Type (0, 1), BuildingBlock: ZUJKAS_clean_linker_0, # of connection points: 2
#     Edge 62, Type (0, 1), BuildingBlock: ZUJKAS_clean_linker_0, # of connection points: 2
#     Edge 63, Type (0, 1), BuildingBlock: ZUJKAS_clean_linker_0, # of connection points: 2
#     Edge 64, Type (0, 1), BuildingBlock: ZUJKAS_clean_linker_0, # of connection points: 2
#     Edge 65, Type (0, 1), BuildingBlock: ZUJKAS_clean_linker_0, # of connection points: 2
#     Edge 66, Type (0, 1), BuildingBlock: ZUJKAS_clean_linker_0, # of connection points: 2
#     Edge 67, Type (0, 1), BuildingBlock: ZUJKAS_clean_linker_0, # of connection points: 2
#     Edge 68, Type (0, 1), BuildingBlock: ZUJKAS_clean_linker_0, # of connection points: 2
#     Edge 69, Type (0, 1), BuildingBlock: ZUJKAS_clean_linker_0, # of connection points: 2
#     Edge 70, Type (0, 1), BuildingBlock: ZUJKAS_clean_linker_0, # of connection points: 2
#     Edge 71, Type (0, 1), BuildingBlock: ZUJKAS_clean_linker_0, # of connection points: 2
#     Edge 72, Type (0, 1), BuildingBlock: ZUJKAS_clean_linker_0, # of connection points: 2
#     Edge 73, Type (0, 1), BuildingBlock: ZUJKAS_clean_linker_0, # of connection points: 2
#     Edge 74, Type (0, 1), BuildingBlock: ZUJKAS_clean_linker_0, # of connection points: 2
#     Edge 75, Type (0, 1), BuildingBlock: ZUJKAS_clean_linker_0, # of connection points: 2
#     Edge 76, Type (0, 1), BuildingBlock: ZUJKAS_clean_linker_0, # of connection points: 2
#     Edge 77, Type (0, 1), BuildingBlock: ZUJKAS_clean_linker_0, # of connection points: 2
#     Edge 78, Type (0, 1), BuildingBlock: ZUJKAS_clean_linker_0, # of connection points: 2
#     Edge 79, Type (0, 1), BuildingBlock: ZUJKAS_clean_linker_0, # of connection points: 2
#     Edge 80, Type (0, 1), BuildingBlock: ZUJKAS_clean_linker_0, # of connection points: 2
#     Edge 81, Type (0, 1), BuildingBlock: ZUJKAS_clean_linker_0, # of connection points: 2
#     Edge 82, Type (0, 1), BuildingBlock: ZUJKAS_clean_linker_0, # of connection points: 2
#     Edge 83, Type (0, 1), BuildingBlock: ZUJKAS_clean_linker_0, # of connection points: 2
#     Edge 84, Type (0, 1), BuildingBlock: ZUJKAS_clean_linker_0, # of connection points: 2
#     Edge 85, Type (0, 1), BuildingBlock: ZUJKAS_clean_linker_0, # of connection points: 2
#     Edge 86, Type (0, 1), BuildingBlock: ZUJKAS_clean_linker_0, # of connection points: 2
#     Edge 87, Type (0, 1), BuildingBlock: ZUJKAS_clean_linker_0, # of connection points: 2
#     Edge 88, Type (0, 1), BuildingBlock: ZUJKAS_clean_linker_0, # of connection points: 2
#     Edge 89, Type (0, 1), BuildingBlock: ZUJKAS_clean_linker_0, # of connection points: 2
#     Edge 90, Type (0, 1), BuildingBlock: ZUJKAS_clean_linker_0, # of connection points: 2
#     Edge 91, Type (0, 1), BuildingBlock: ZUJKAS_clean_linker_0, # of connection points: 2
#     Edge 92, Type (0, 1), BuildingBlock: ZUJKAS_clean_linker_0, # of connection points: 2
#     Edge 93, Type (0, 1), BuildingBlock: ZUJKAS_clean_linker_0, # of connection points: 2
#     Edge 94, Type (0, 1), BuildingBlock: ZUJKAS_clean_linker_0, # of connection points: 2
#     Edge 95, Type (0, 1), BuildingBlock: ZUJKAS_clean_linker_0, # of connection points: 2
#     Edge 96, Type (0, 1), BuildingBlock: ZUJKAS_clean_linker_0, # of connection points: 2
#     Edge 97, Type (0, 1), BuildingBlock: ZUJKAS_clean_linker_0, # of connection points: 2
#     Edge 98, Type (0, 1), BuildingBlock: ZUJKAS_clean_linker_0, # of connection points: 2
#     Edge 99, Type (0, 1), BuildingBlock: ZUJKAS_clean_linker_0, # of connection points: 2
#     Edge 100, Type (0, 1), BuildingBlock: ZUJKAS_clean_linker_0, # of connection points: 2
#     Edge 101, Type (0, 1), BuildingBlock: ZUJKAS_clean_linker_0, # of connection points: 2
#     Edge 102, Type (0, 1), BuildingBlock: ZUJKAS_clean_linker_0, # of connection points: 2
#     Edge 103, Type (0, 1), BuildingBlock: ZUJKAS_clean_linker_0, # of connection points: 2
#     Edge 104, Type (0, 1), BuildingBlock: ZUJKAS_clean_linker_0, # of connection points: 2
#     Edge 105, Type (0, 1), BuildingBlock: ZUJKAS_clean_linker_0, # of connection points: 2
#     Edge 106, Type (0, 1), BuildingBlock: ZUJKAS_clean_linker_0, # of connection points: 2
#     Edge 107, Type (0, 1), BuildingBlock: ZUJKAS_clean_linker_0, # of connection points: 2
#     Edge 108, Type (0, 1), BuildingBlock: ZUJKAS_clean_linker_0, # of connection points: 2
#     Edge 109, Type (0, 1), BuildingBlock: ZUJKAS_clean_linker_0, # of connection points: 2
#     Edge 110, Type (0, 1), BuildingBlock: ZUJKAS_clean_linker_0, # of connection points: 2
#     Edge 111, Type (0, 1), BuildingBlock: ZUJKAS_clean_linker_0, # of connection points: 2
#     Edge 112, Type (0, 1), BuildingBlock: ZUJKAS_clean_linker_0, # of connection points: 2
#     Edge 113, Type (0, 1), BuildingBlock: ZUJKAS_clean_linker_0, # of connection points: 2
#     Edge 114, Type (0, 1), BuildingBlock: ZUJKAS_clean_linker_0, # of connection points: 2
#     Edge 115, Type (0, 1), BuildingBlock: ZUJKAS_clean_linker_0, # of connection points: 2
#     Edge 116, Type (0, 1), BuildingBlock: ZUJKAS_clean_linker_0, # of connection points: 2
#     Edge 117, Type (0, 1), BuildingBlock: ZUJKAS_clean_linker_0, # of connection points: 2
#     Edge 118, Type (0, 1), BuildingBlock: ZUJKAS_clean_linker_0, # of connection points: 2
#     Edge 119, Type (0, 1), BuildingBlock: ZUJKAS_clean_linker_0, # of connection points: 2
#     Edge 120, Type (0, 1), BuildingBlock: ZUJKAS_clean_linker_0, # of connection points: 2
#     Edge 121, Type (0, 1), BuildingBlock: ZUJKAS_clean_linker_0, # of connection points: 2
#     Edge 122, Type (0, 1), BuildingBlock: ZUJKAS_clean_linker_0, # of connection points: 2
#     Edge 123, Type (0, 1), BuildingBlock: ZUJKAS_clean_linker_0, # of connection points: 2
#     Edge 124, Type (0, 1), BuildingBlock: ZUJKAS_clean_linker_0, # of connection points: 2
#     Edge 125, Type (0, 1), BuildingBlock: ZUJKAS_clean_linker_0, # of connection points: 2
#     Edge 126, Type (0, 1), BuildingBlock: ZUJKAS_clean_linker_0, # of connection points: 2
#     Edge 127, Type (0, 1), BuildingBlock: ZUJKAS_clean_linker_0, # of connection points: 2
#     Edge 128, Type (0, 1), BuildingBlock: ZUJKAS_clean_linker_0, # of connection points: 2
#     Edge 129, Type (0, 1), BuildingBlock: ZUJKAS_clean_linker_0, # of connection points: 2
#     Edge 130, Type (0, 1), BuildingBlock: ZUJKAS_clean_linker_0, # of connection points: 2
#     Edge 131, Type (0, 1), BuildingBlock: ZUJKAS_clean_linker_0, # of connection points: 2
#     Edge 132, Type (0, 1), BuildingBlock: ZUJKAS_clean_linker_0, # of connection points: 2
#     Edge 133, Type (0, 1), BuildingBlock: ZUJKAS_clean_linker_0, # of connection points: 2
#     Edge 134, Type (0, 1), BuildingBlock: ZUJKAS_clean_linker_0, # of connection points: 2
#     Edge 135, Type (0, 1), BuildingBlock: ZUJKAS_clean_linker_0, # of connection points: 2
# Relax obj value: 0.180
# Max RMSD: 0.277
# Mean RMSD: 0.179
data_MOF--net-gar--node1-AZAVOO_clean_sbu_0--node2-BETDIP_clean_sbu_0--edge1-ZUJKAS_clean_linker_0
_symmetry_space_group_name_H-M    P1
_symmetry_Int_Tables_number       1
_symmetry_cell_setting            triclinic
loop_
_symmetry_equiv_pos_as_xyz
'x, y, z'
_cell_length_a     80.705026
_cell_length_b     72.127083
_cell_length_c     71.132039
_cell_angle_alpha  99.239258
_cell_angle_beta   97.959855
_cell_angle_gamma 101.33541
loop_
_atom_site_label
_atom_site_type_symbol
_atom_site_fract_x
_atom_site_fract_y
_atom_site_fract_z
_atom_type_partial_charge
Mg0 Mg 0.01469 0.27695 0.35394 0.0
O1 O 0.01202 0.30379 0.37422 0.0
O2 O 0.9848 0.29932 0.37897 0.0
Mg3 Mg 0.97115 0.26872 0.3643 0.0
C4 C 0.99999 0.30966 0.3816 0.0
C5 C 0.0485 0.2756 0.34703 0.0
O6 O 0.03782 0.25923 0.33852 0.0
O7 O 0.01683 0.2621 0.37931 0.0
O8 O 0.98983 0.25799 0.38493 0.0
O9 O 0.00494 0.28851 0.32864 0.0
O10 O 0.98898 0.26919 0.34388 0.0
C11 C 0.00535 0.25642 0.38905 0.0
C12 C 0.98997 0.27965 0.33089 0.0
O13 O 0.04298 0.28792 0.35777 0.0
Mg14 Mg 0.04289 0.76184 0.68967 0.0
O15 O 0.04259 0.73577 0.6664 0.0
O16 O 0.01848 0.73073 0.64482 0.0
Mg17 Mg 1.0033 0.75276 0.65491 0.0
C18 C 0.03267 0.72652 0.65076 0.0
C19 C 0.07587 0.76056 0.71618 0.0
O20 O 0.06477 0.75505 0.72717 0.0
O21 O 0.04914 0.78163 0.66921 0.0
O22 O 0.02445 0.77604 0.64829 0.0
O23 O 0.0298 0.74305 0.70705 0.0
O24 O 0.01662 0.75624 0.68497 0.0
C25 C 0.04013 0.78471 0.65439 0.0
C26 C 0.01563 0.74537 0.6977 0.0
O27 O 0.07065 0.76433 0.69989 0.0
Mg28 Mg 0.50897 0.77517 0.85205 0.0
O29 O 0.50717 0.80297 0.87139 0.0
O30 O 0.48041 0.7992 0.87763 0.0
Mg31 Mg 0.46605 0.76845 0.86432 0.0
C32 C 0.49558 0.80933 0.87924 0.0
C33 C 0.54094 0.77878 0.83835 0.0
O34 O 0.52859 0.76738 0.82507 0.0
O35 O 0.51179 0.76216 0.87861 0.0
O36 O 0.48509 0.75832 0.88507 0.0
O37 O 0.49838 0.7853 0.82605 0.0
O38 O 0.48308 0.76751 0.84309 0.0
C39 C 0.5007 0.75696 0.88898 0.0
C40 C 0.4836 0.77695 0.82925 0.0
O41 O 0.5373 0.78563 0.85443 0.0
Mg42 Mg 0.54175 0.26073 0.18664 0.0
O43 O 0.53893 0.23333 0.16451 0.0
O44 O 0.51346 0.22714 0.14516 0.0
Mg45 Mg 0.50055 0.2516 0.15497 0.0
C46 C 0.52784 0.22296 0.15035 0.0
C47 C 0.57997 0.27576 0.20404 0.0
O48 O 0.57459 0.29122 0.21056 0.0
O49 O 0.54705 0.27818 0.16413 0.0
O50 O 0.52149 0.27285 0.14499 0.0
O51 O 0.52978 0.2444 0.20662 0.0
O52 O 0.51564 0.2568 0.18451 0.0
C53 C 0.53749 0.28088 0.14953 0.0
C54 C 0.51535 0.24693 0.19813 0.0
O55 O 0.56937 0.26109 0.1939 0.0
Mg56 Mg 0.05469 0.79522 0.14789 0.0
O57 O 0.04965 0.7672 0.12524 0.0
O58 O 0.02265 0.76115 0.10954 0.0
Mg59 Mg 0.01018 0.78566 0.12107 0.0
C60 C 0.03719 0.75665 0.11257 0.0
C61 C 0.08882 0.78965 0.17074 0.0
O62 O 0.07744 0.78629 0.18201 0.0
O63 O 0.05703 0.8145 0.12414 0.0
O64 O 0.02921 0.80805 0.11089 0.0
O65 O 0.04194 0.77857 0.16896 0.0
O66 O 0.0281 0.7924 0.14851 0.0
C67 C 0.04467 0.8173 0.11218 0.0
C68 C 0.0277 0.78248 0.16187 0.0
O69 O 0.08392 0.7943 0.15461 0.0
Mg70 Mg 0.50452 0.74756 0.39889 0.0
O71 O 0.50775 0.77476 0.4223 0.0
O72 O 0.48495 0.77051 0.43702 0.0
Mg73 Mg 0.46674 0.74155 0.42274 0.0
C74 C 0.49922 0.78066 0.43499 0.0
C75 C 0.5375 0.74905 0.38022 0.0
O76 O 0.52588 0.73591 0.3676 0.0
O77 O 0.51078 0.72886 0.42158 0.0
O78 O 0.4863 0.72452 0.43326 0.0
O79 O 0.4897 0.76102 0.37748 0.0
O80 O 0.47738 0.74299 0.39601 0.0
C81 C 0.50113 0.72105 0.43237 0.0
C82 C 0.4758 0.75364 0.38327 0.0
O83 O 0.53306 0.75683 0.39555 0.0
Mg84 Mg 0.55466 0.2947 0.64665 0.0
O85 O 0.55035 0.26688 0.62406 0.0
O86 O 0.52478 0.26188 0.60525 0.0
Mg87 Mg 0.51208 0.28648 0.61591 0.0
C88 C 0.53883 0.25685 0.61006 0.0
C89 C 0.59114 0.29834 0.67201 0.0
O90 O 0.583 0.3059 0.68497 0.0
O91 O 0.55911 0.31434 0.62395 0.0
O92 O 0.53231 0.3093 0.60748 0.0
O93 O 0.54062 0.27828 0.66659 0.0
O94 O 0.5279 0.29184 0.64495 0.0
C95 C 0.54815 0.31783 0.61084 0.0
C96 C 0.5266 0.28186 0.6583 0.0
O97 O 0.58336 0.29297 0.6545 0.0
Mg98 Mg 0.00494 0.24685 0.89922 0.0
O99 O 0.00841 0.27421 0.92257 0.0
O100 O 0.98566 0.27034 0.93741 0.0
Mg101 Mg 0.96758 0.2412 0.92377 0.0
C102 C 0.99993 0.28035 0.93522 0.0
C103 C 0.03657 0.25904 0.8792 0.0
O104 O 0.02351 0.25746 0.86533 0.0
O105 O 0.01136 0.22836 0.92198 0.0
O106 O 0.98752 0.22485 0.93496 0.0
O107 O 0.98992 0.26038 0.87806 0.0
O108 O 0.97788 0.24229 0.89673 0.0
C109 C 1.00226 0.2213 0.93363 0.0
C110 C 0.97615 0.25298 0.88406 0.0
O111 O 0.03348 0.25571 0.89559 0.0
Mg112 Mg 0.41291 0.04495 0.2645 0.0
O113 O 0.39213 0.01487 0.26065 0.0
O114 O 0.37946 0.01822 0.28664 0.0
Mg115 Mg 0.39139 0.04762 0.30733 0.0
C116 C 0.38126 0.00802 0.27091 0.0
C117 C 0.42961 0.02886 0.22539 0.0
O118 O 0.43565 0.01883 0.2375 0.0
O119 O 0.39259 0.0662 0.25928 0.0
O120 O 0.38252 0.06748 0.28699 0.0
O121 O 0.4324 0.03202 0.28299 0.0
O122 O 0.41579 0.04849 0.29625 0.0
C123 C 0.3834 0.0733 0.271 0.0
C124 C 0.42748 0.03884 0.29867 0.0
O125 O 0.41947 0.03956 0.23117 0.0
Mg126 Mg 0.2653 0.14815 0.4969 0.0
O127 O 0.2708 0.17124 0.52484 0.0
O128 O 0.29797 0.18762 0.52899 0.0
Mg129 Mg 0.31019 0.1758 0.50366 0.0
C130 C 0.28349 0.18432 0.53458 0.0
C131 C 0.2281 0.12351 0.49515 0.0
O132 O 0.23642 0.1106 0.48863 0.0
O133 O 0.26358 0.17101 0.4768 0.0
O134 O 0.29161 0.18445 0.48116 0.0
O135 O 0.27697 0.12769 0.51346 0.0
O136 O 0.2918 0.14811 0.49899 0.0
C137 C 0.27621 0.18261 0.47261 0.0
C138 C 0.29164 0.13505 0.50926 0.0
O139 O 0.23609 0.14119 0.49938 0.0
Mg140 Mg 0.12866 0.03434 0.79859 0.0
O141 O 0.14802 0.06273 0.80107 0.0
O142 O 0.16701 0.06702 0.82819 0.0
Mg143 Mg 0.159 0.04182 0.84336 0.0
C144 C 0.16146 0.07246 0.81277 0.0
C145 C 0.10867 0.02028 0.75778 0.0
O146 O 0.1035 1.00565 0.76605 0.0
O147 O 0.14817 0.01753 0.79049 0.0
O148 O 0.1657 0.02106 0.81872 0.0
O149 O 0.11167 0.04874 0.81466 0.0
O150 O 0.13224 0.03632 0.82813 0.0
C151 C 0.161 0.0139 0.80065 0.0
C152 C 0.11992 0.04504 0.83008 0.0
O153 O 0.11959 0.03491 0.76761 0.0
Mg154 Mg 0.25159 0.8535 0.02407 0.0
O155 O 0.24958 0.85792 0.99236 0.0
O156 O 0.27024 0.84498 1.00072 0.0
Mg157 Mg 0.28676 0.82531 0.00726 0.0
C158 C 0.26076 0.84918 0.98719 0.0
C159 C 0.22575 0.87715 0.01819 0.0
O160 O 0.2395 0.8865 0.01295 0.0
O161 O 0.2394 0.82139 0.01233 0.0
O162 O 0.25861 0.8073 1.0018 0.0
O163 O 0.27157 0.88029 0.03443 0.0
O164 O 0.27876 0.85251 0.02479 0.0
C165 C 0.25078 0.81176 0.01564 0.0
C166 C 0.28346 0.87111 0.03107 0.0
O167 O 0.22632 0.86185 0.02466 0.0
Mg168 Mg 0.29864 0.39493 0.04864 0.0
O169 O 0.29587 0.37143 0.02116 0.0
O170 O 0.31957 0.35977 0.02478 0.0
Mg171 Mg 0.33698 0.37432 0.05372 0.0
C172 C 0.30522 0.36021 0.01489 0.0
C173 C 0.26329 0.40193 0.02597 0.0
O174 O 0.27226 0.40326 0.01198 0.0
O175 O 0.29233 0.3721 0.06806 0.0
O176 O 0.31687 0.36204 0.07096 0.0
O177 O 0.31419 0.41664 0.03409 0.0
O178 O 0.32572 0.39945 0.05288 0.0
C179 C 0.30196 0.36181 0.07517 0.0
C180 C 0.32781 0.41186 0.04187 0.0
O181 O 0.27007 0.39771 0.04158 0.0
Mg182 Mg 0.82139 0.18536 0.03755 0.0
O183 O 0.83098 0.18706 0.06878 0.0
O184 O 0.84968 0.21527 0.07394 0.0
Mg185 Mg 0.86305 0.21533 0.04714 0.0
C186 C 0.8392 0.2027 0.07989 0.0
C187 C 0.78219 0.17166 0.02791 0.0
O188 O 0.7856 0.1741 0.01082 0.0
O189 O 0.82097 0.21666 0.04546 0.0
O190 O 0.84241 0.2287 0.03181 0.0
O191 O 0.82926 0.15827 0.03101 0.0
O192 O 0.84605 0.1871 0.03275 0.0
C193 C 0.82693 0.22751 0.0345 0.0
C194 C 0.84436 0.16875 0.03134 0.0
O195 O 0.79435 0.17602 0.0423 0.0
Mg196 Mg 0.15137 0.4976 0.28573 0.0
O197 O 0.17095 0.52786 0.28859 0.0
O198 O 0.18901 0.53268 0.31642 0.0
Mg199 Mg 0.18038 0.5076 0.33274 0.0
C200 C 0.18393 0.53828 0.30086 0.0
C201 C 0.12953 0.50686 0.2466 0.0
O202 O 0.12381 0.51646 0.26067 0.0
O203 O 0.17202 0.47651 0.28147 0.0
O204 O 0.18678 0.48266 0.31156 0.0
O205 O 0.13297 0.51186 0.30324 0.0
O206 O 0.15308 0.50053 0.31761 0.0
C207 C 0.18337 0.47275 0.29429 0.0
C208 C 0.14031 0.50857 0.31929 0.0
O209 O 0.14114 0.49765 0.25145 0.0
Mg210 Mg 0.80028 0.89618 0.54971 0.0
O211 O 0.79563 0.87431 0.52072 0.0
O212 O 0.81675 0.8583 0.52251 0.0
Mg213 Mg 0.83561 0.87074 0.5509 0.0
C214 C 0.80308 0.86145 0.5135 0.0
C215 C 0.76407 0.90173 0.52781 0.0
O216 O 0.77086 0.89805 0.51225 0.0
O217 O 0.79259 0.87232 0.56749 0.0
O218 O 0.81553 0.85923 0.56864 0.0
O219 O 0.81649 0.91848 0.53681 0.0
O220 O 0.82699 0.898 0.55206 0.0
C221 C 0.80105 0.86045 0.57345 0.0
C222 C 0.82963 0.91171 0.54251 0.0
O223 O 0.77252 0.90135 0.54424 0.0
Mg224 Mg 0.93759 0.00796 0.25448 0.0
O225 O 0.91698 0.98032 0.25405 0.0
O226 O 0.90668 0.98673 0.28147 0.0
Mg227 Mg 0.92051 0.01582 0.2996 0.0
C228 C 0.9067 0.97564 0.26558 0.0
C229 C 0.94789 0.01526 0.21849 0.0
O230 O 0.95197 0.03132 0.23151 0.0
O231 O 0.91708 0.02472 0.24768 0.0
O232 O 0.90864 0.02993 0.27646 0.0
O233 O 0.95826 0.99692 0.27084 0.0
O234 O 0.9416 0.0143 0.28387 0.0
C235 C 0.90797 0.03195 0.2589 0.0
C236 C 0.95377 1.00543 0.28618 0.0
O237 O 0.93984 1.00008 0.223 0.0
Mg238 Mg 0.31641 0.68702 0.52829 0.0
O239 O 0.32144 0.68784 0.56018 0.0
O240 O 0.34521 0.71138 0.56897 0.0
Mg241 Mg 0.36095 0.70961 0.5444 0.0
C242 C 0.33185 0.70092 0.57281 0.0
C243 C 0.28215 0.6697 0.53779 0.0
O244 O 0.29297 0.6619 0.54767 0.0
O245 O 0.32014 0.71924 0.53658 0.0
O246 O 0.34554 0.72756 0.52823 0.0
O247 O 0.32068 0.65771 0.52189 0.0
O248 O 0.3411 0.68445 0.52824 0.0
C249 C 0.3302 0.72967 0.52827 0.0
C250 C 0.33686 0.66592 0.52503 0.0
O251 O 0.28774 0.68169 0.52763 0.0
Mg252 Mg 0.43969 0.50571 0.75601 0.0
O253 O 0.4186 0.47919 0.75697 0.0
O254 O 0.41238 0.48533 0.78677 0.0
Mg255 Mg 0.43013 0.51275 0.80519 0.0
C256 C 0.40984 0.47475 0.76995 0.0
C257 C 0.45173 0.511 0.72111 0.0
O258 O 0.46151 0.52268 0.73645 0.0
O259 O 0.42013 0.52476 0.7547 0.0
O260 O 0.41828 0.53087 0.7862 0.0
O261 O 0.46077 0.49178 0.76722 0.0
O262 O 0.44767 0.51022 0.78508 0.0
C263 C 0.41502 0.53378 0.76898 0.0
C264 C 0.45894 0.50006 0.78409 0.0
O265 O 0.43841 0.49947 0.72349 0.0
Mg266 Mg 0.65026 0.99707 0.78513 0.0
O267 O 0.66991 0.02731 0.78792 0.0
O268 O 0.68783 0.03226 0.81588 0.0
Mg269 Mg 0.67929 0.00722 0.83225 0.0
C270 C 0.68283 0.03779 0.80025 0.0
C271 C 0.63004 0.00834 0.74576 0.0
O272 O 0.62643 0.02034 0.75975 0.0
O273 O 0.67097 0.97591 0.78102 0.0
O274 O 0.68584 0.98231 0.81109 0.0
O275 O 0.63176 0.01118 0.80268 0.0
O276 O 0.65197 1.00012 0.81716 0.0
C277 C 0.68242 0.9723 0.79385 0.0
C278 C 0.63911 0.00802 0.81879 0.0
O279 O 0.63978 0.99706 0.75073 0.0
Mg280 Mg 0.76406 0.6445 0.99598 0.0
O281 O 0.76891 0.66654 0.02484 0.0
O282 O 0.79576 0.68405 0.02927 0.0
Mg283 Mg 0.80854 0.67411 0.00383 0.0
C284 C 0.78134 0.67984 0.03484 0.0
C285 C 0.72888 0.6219 0.00476 0.0
O286 O 0.74005 0.6124 0.01126 0.0
O287 O 0.76208 0.66829 0.97729 0.0
O288 O 0.78967 0.68394 0.9824 0.0
O289 O 0.77612 0.62313 0.01073 0.0
O290 O 0.79095 0.64579 0.99872 0.0
C291 C 0.77409 0.68137 0.97406 0.0
C292 C 0.79087 0.63178 0.00777 0.0
O293 O 0.73437 0.63641 0.99727 0.0
Mg294 Mg 0.9135 0.54502 0.76461 0.0
O295 O 0.89289 0.51474 0.76049 0.0
O296 O 0.87904 0.51789 0.78553 0.0
Mg297 Mg 0.89023 0.54753 0.80603 0.0
C298 C 0.8816 0.50771 0.77019 0.0
C299 C 0.93535 0.53702 0.7287 0.0
O300 O 0.94677 0.53814 0.74416 0.0
O301 O 0.89345 0.56621 0.75881 0.0
O302 O 0.88115 0.56711 0.78512 0.0
O303 O 0.93297 0.53291 0.7837 0.0
O304 O 0.91542 0.54842 0.7963 0.0
C305 C 0.88321 0.5729 0.76932 0.0
C306 C 0.92747 0.53926 0.79915 0.0
O307 O 0.92018 0.53881 0.73143 0.0
Mg308 Mg 0.74768 0.37075 0.5211 0.0
O309 O 0.75651 0.35083 0.49896 0.0
O310 O 0.78228 0.34477 0.5087 0.0
Mg311 Mg 0.78902 0.35856 0.54068 0.0
C312 C 0.76898 0.34304 0.49596 0.0
C313 C 0.72041 0.37945 0.49233 0.0
O314 O 0.73337 0.39027 0.48709 0.0
O315 O 0.73496 0.34537 0.53369 0.0
O316 O 0.76201 0.34518 0.54034 0.0
O317 O 0.7645 0.39484 0.51262 0.0
O318 O 0.77407 0.38038 0.53562 0.0
C319 C 0.74658 0.33747 0.54018 0.0
C320 C 0.77722 0.39228 0.52428 0.0
O321 O 0.72304 0.3658 0.50065 0.0
Mg322 Mg 0.62769 0.53167 0.29794 0.0
O323 O 0.64707 0.56015 0.30017 0.0
O324 O 0.66589 0.56481 0.3275 0.0
Mg325 Mg 0.65796 0.53986 0.34296 0.0
C326 C 0.66045 0.57003 0.31191 0.0
C327 C 0.60277 0.52917 0.26079 0.0
O328 O 0.59217 0.5272 0.27316 0.0
O329 O 0.64727 0.51479 0.29034 0.0
O330 O 0.66503 0.51919 0.31861 0.0
O331 O 0.61058 0.54618 0.31392 0.0
O332 O 0.63126 0.534 0.32749 0.0
C333 C 0.66028 0.51169 0.30063 0.0
C334 C 0.61885 0.54258 0.32938 0.0
O335 O 0.61874 0.53159 0.2667 0.0
Tb336 Tb 0.01226 0.00696 0.00711 0.0
Tb337 Tb 0.04658 0.02796 0.02911 0.0
C338 C 0.98074 0.9969 0.99452 0.0
C339 C 0.96775 0.0084 0.99575 0.0
C340 C 0.96817 0.02115 0.01305 0.0
C341 C 0.95744 0.03401 0.01361 0.0
C342 C 0.94627 0.03451 0.99685 0.0
C343 C 0.94564 0.02163 0.9796 0.0
C344 C 0.9563 0.00855 0.97908 0.0
C345 C 0.03758 1.00472 0.9875 0.0
C346 C 0.02483 0.05232 0.00948 0.0
C347 C 0.07791 0.0383 0.04295 0.0
C348 C 0.09058 0.02642 0.0425 0.0
C349 C 0.08737 0.01003 0.02784 0.0
C350 C 0.09843 0.99762 0.02759 0.0
C351 C 0.11288 1.00128 0.04213 0.0
C352 C 0.11607 0.01752 0.05709 0.0
C353 C 0.10493 0.03014 0.05723 0.0
C354 C 0.02096 0.02977 0.04818 0.0
C355 C 0.03451 0.98232 0.02599 0.0
O356 O 0.98786 0.99361 0.01098 0.0
O357 O 0.99201 1.00224 0.98375 0.0
O358 O 0.03598 0.01905 0.99916 0.0
O359 O 0.02386 0.99128 0.98559 0.0
O360 O 0.01156 0.0378 0.00856 0.0
O361 O 0.04067 0.05092 0.01527 0.0
O362 O 0.07133 0.04101 0.026 0.0
O363 O 0.06618 0.03339 0.05329 0.0
O364 O 0.02303 0.01553 0.03686 0.0
O365 O 0.03414 0.04385 0.04981 0.0
O366 O 0.04749 0.99734 0.02782 0.0
O367 O 0.01861 0.98328 0.01964 0.0
H368 H 0.9772 0.02168 0.02602 0.0
H369 H 0.95833 0.04406 0.02698 0.0
H370 H 0.93707 0.02186 0.96653 0.0
H371 H 0.95603 0.99902 0.96556 0.0
H372 H 0.07607 0.00655 0.01676 0.0
H373 H 0.0955 0.98494 0.01618 0.0
H374 H 0.12716 0.02047 0.06849 0.0
H375 H 0.10735 0.04255 0.06886 0.0
Tb376 Tb 0.28486 0.76213 0.25342 0.0
Tb377 Tb 0.2808 0.77864 0.29601 0.0
C378 C 0.28165 0.75355 0.21764 0.0
C379 C 0.29115 0.76471 0.20524 0.0
C380 C 0.28924 0.78352 0.20422 0.0
C381 C 0.29931 0.79478 0.19407 0.0
C382 C 0.31162 0.78762 0.18468 0.0
C383 C 0.31371 0.76891 0.18584 0.0
C384 C 0.30355 0.75756 0.19602 0.0
C385 C 0.31282 0.76731 0.27989 0.0
C386 C 0.29856 0.80767 0.27113 0.0
C387 C 0.28412 0.78612 0.33196 0.0
C388 C 0.27482 0.77492 0.34434 0.0
C389 C 0.2839 0.76545 0.35648 0.0
C390 C 0.27513 0.75176 0.36542 0.0
C391 C 0.25709 0.74745 0.36261 0.0
C392 C 0.24796 0.75755 0.35126 0.0
C393 C 0.25676 0.77107 0.34199 0.0
C394 C 0.2527 0.77654 0.26992 0.0
C395 C 0.26669 0.73315 0.27854 0.0
O396 O 0.27091 0.76185 0.2263 0.0
O397 O 0.29085 0.7455 0.22923 0.0
O398 O 0.29736 0.76305 0.2823 0.0
O399 O 0.31266 0.76587 0.26145 0.0
O400 O 0.29402 0.7936 0.25547 0.0
O401 O 0.29596 0.80452 0.28855 0.0
O402 O 0.29421 0.77723 0.32284 0.0
O403 O 0.2752 0.79475 0.32076 0.0
O404 O 0.26734 0.77402 0.26772 0.0
O405 O 0.25369 0.78115 0.28849 0.0
O406 O 0.26995 0.74759 0.29382 0.0
O407 O 0.27063 0.7358 0.26136 0.0
H408 H 0.27997 0.78967 0.21129 0.0
H409 H 0.29695 0.80888 0.19302 0.0
H410 H 0.32304 0.76297 0.17866 0.0
H411 H 0.30547 0.74324 0.19683 0.0
H412 H 0.29778 0.76812 0.35849 0.0
H413 H 0.28249 0.74467 0.37475 0.0
H414 H 0.23409 0.75478 0.34937 0.0
H415 H 0.24939 0.77808 0.33259 0.0
Tb416 Tb 0.54731 0.023 0.51552 0.0
Tb417 Tb 0.51074 0.01995 0.52498 0.0
C418 C 0.57698 0.01921 0.51085 0.0
C419 C 0.5886 1.00566 0.5117 0.0
C420 C 0.59172 0.9969 0.52773 0.0
C421 C 0.60395 0.98549 0.52859 0.0
C422 C 0.61332 0.98257 0.51346 0.0
C423 C 0.60975 0.99096 0.49723 0.0
C424 C 0.59757 1.00234 0.4964 0.0
C425 C 0.52357 0.02851 0.48775 0.0
C426 C 0.52264 0.98199 0.51271 0.0
C427 C 0.47961 0.02203 0.51989 0.0
C428 C 0.4679 0.03508 0.5244 0.0
C429 C 0.46054 0.04314 0.50947 0.0
C430 C 0.44826 0.05404 0.51239 0.0
C431 C 0.44284 0.05723 0.53036 0.0
C432 C 0.45041 0.04944 0.54548 0.0
C433 C 0.46277 0.03846 0.54253 0.0
C434 C 0.53323 0.01986 0.55724 0.0
C435 C 0.53708 0.06076 0.53291 0.0
O436 O 0.57351 0.02764 0.52715 0.0
O437 O 0.56358 0.01418 0.49696 0.0
O438 O 0.52154 0.01639 0.49886 0.0
O439 O 0.53952 0.0377 0.492 0.0
O440 O 0.53859 0.99234 0.51585 0.0
O441 O 0.50917 0.98982 0.51333 0.0
O442 O 0.4904 0.02738 0.50861 0.0
O443 O 0.48644 0.01402 0.53347 0.0
O444 O 0.53585 0.02105 0.54026 0.0
O445 O 0.51686 0.01895 0.55633 0.0
O446 O 0.52094 0.05092 0.52945 0.0
O447 O 0.55012 0.05245 0.53072 0.0
H448 H 0.58493 0.9991 0.53972 0.0
H449 H 0.60612 0.97904 0.54119 0.0
H450 H 0.6168 0.98933 0.4854 0.0
H451 H 0.59547 0.00899 0.48392 0.0
H452 H 0.46397 0.04057 0.49522 0.0
H453 H 0.44257 0.05936 0.50023 0.0
H454 H 0.44672 0.05172 0.55959 0.0
H455 H 0.46808 0.03237 0.55433 0.0
Tb456 Tb 0.26328 0.27129 0.7698 0.0
Tb457 Tb 0.30156 0.26483 0.7759 0.0
C458 C 0.23167 0.26488 0.77082 0.0
C459 C 0.21989 0.27081 0.78383 0.0
C460 C 0.21804 0.26284 0.80045 0.0
C461 C 0.2056 0.26669 0.81148 0.0
C462 C 0.19458 0.27862 0.80624 0.0
C463 C 0.19681 0.28711 0.78997 0.0
C464 C 0.20925 0.28318 0.77888 0.0
C465 C 0.28698 0.30318 0.77154 0.0
C466 C 0.28674 0.28113 0.81215 0.0
C467 C 0.33224 0.26332 0.77436 0.0
C468 C 0.34462 0.26249 0.76077 0.0
C469 C 0.35206 0.27877 0.75379 0.0
C470 C 0.36525 0.27804 0.7429 0.0
C471 C 0.37135 0.26107 0.73884 0.0
C472 C 0.36342 0.24465 0.74527 0.0
C473 C 0.35031 0.24538 0.75614 0.0
C474 C 0.27669 0.23708 0.78 0.0
C475 C 0.27958 0.25993 0.73311 0.0
O476 O 0.24197 0.25439 0.77718 0.0
O477 O 0.23919 0.27761 0.76156 0.0
O478 O 0.28854 0.28664 0.77322 0.0
O479 O 0.27061 0.30261 0.76917 0.0
O480 O 0.27123 0.27697 0.80125 0.0
O481 O 0.30092 0.27946 0.80506 0.0
O482 O 0.32735 0.27952 0.77919 0.0
O483 O 0.31968 0.24808 0.77204 0.0
O484 O 0.27594 0.24784 0.76779 0.0
O485 O 0.2921 0.24107 0.79 0.0
O486 O 0.29475 0.26268 0.74452 0.0
O487 O 0.26512 0.26075 0.73986 0.0
H488 H 0.22587 0.25309 0.80469 0.0
H489 H 0.20418 0.25964 0.82368 0.0
H490 H 0.18878 0.2966 0.78561 0.0
H491 H 0.21026 0.28948 0.76613 0.0
H492 H 0.34808 0.29223 0.7572 0.0
H493 H 0.37111 0.29102 0.73832 0.0
H494 H 0.36753 0.23123 0.74216 0.0
H495 H 0.34492 0.23262 0.76139 0.0
Tb496 Tb 0.02635 0.0402 0.52924 0.0
Tb497 Tb 0.03214 1.00258 0.51827 0.0
C498 C 0.02387 0.0745 0.53174 0.0
C499 C 0.01783 0.08505 0.51714 0.0
C500 C 0.02832 0.09118 0.50413 0.0
C501 C 0.02233 0.10067 0.49 0.0
C502 C 0.00574 0.10422 0.48859 0.0
C503 C 0.99512 0.09778 0.50135 0.0
C504 C 1.00116 0.08836 0.51558 0.0
C505 C 1.00068 0.01258 0.53278 0.0
C506 C 0.01764 0.01947 0.48508 0.0
C507 C 0.03415 0.96809 0.5157 0.0
C508 C 0.04102 0.95742 0.52976 0.0
C509 C 0.03112 0.95047 0.54296 0.0
C510 C 0.03782 0.9407 0.55647 0.0
C511 C 0.05452 0.93764 0.55699 0.0
C512 C 0.0645 0.94476 0.54397 0.0
C513 C 0.05778 0.9545 0.53041 0.0
C514 C 0.05776 0.03037 0.51456 0.0
C515 C 0.04109 0.02291 0.56239 0.0
O516 O 0.0382 0.06896 0.53019 0.0
O517 O 0.01215 0.06103 0.53548 0.0
O518 O 0.00891 0.01243 0.51889 0.0
O519 O 0.00677 0.02856 0.54507 0.0
O520 O 0.02226 0.03611 0.49743 0.0
O521 O 0.01762 1.0032 0.49104 0.0
O522 O 0.02035 0.97416 0.51879 0.0
O523 O 0.04544 0.98115 0.51068 0.0
O524 O 0.04961 0.03042 0.52852 0.0
O525 O 0.05179 0.01425 0.50243 0.0
O526 O 0.03667 0.00651 0.54977 0.0
O527 O 0.04043 0.03935 0.55695 0.0
H528 H 0.04123 0.08883 0.50492 0.0
H529 H 0.03097 0.10589 0.48067 0.0
H530 H 0.98227 0.10031 0.50052 0.0
H531 H 0.99278 0.08368 0.5254 0.0
H532 H 0.01813 0.95243 0.5428 0.0
H533 H 0.0297 0.93499 0.56606 0.0
H534 H 0.07743 0.94262 0.54413 0.0
H535 H 0.06571 0.95972 0.52041 0.0
Tb536 Tb 0.28036 0.74996 0.77227 0.0
Tb537 Tb 0.28305 0.79332 0.77883 0.0
C538 C 0.28478 0.71629 0.76659 0.0
C539 C 0.29888 0.70624 0.76926 0.0
C540 C 0.30596 0.6996 0.75324 0.0
C541 C 0.3174 0.68758 0.75488 0.0
C542 C 0.32186 0.6819 0.77253 0.0
C543 C 0.31564 0.68944 0.78886 0.0
C544 C 0.30415 0.70148 0.78723 0.0
C545 C 0.26289 0.7637 0.7973 0.0
C546 C 0.31273 0.77942 0.79958 0.0
C547 C 0.27642 0.82588 0.7868 0.0
C548 C 0.26319 0.8357 0.77945 0.0
C549 C 0.25064 0.83916 0.79053 0.0
C550 C 0.23879 0.84966 0.78462 0.0
C551 C 0.2393 0.85705 0.76753 0.0
C552 C 0.25153 0.85309 0.75611 0.0
C553 C 0.26338 0.84252 0.76201 0.0
C554 C 0.30034 0.77994 0.75355 0.0
C555 C 0.25151 0.76382 0.74954 0.0
O556 O 0.28487 0.72689 0.75324 0.0
O557 O 0.28019 0.72432 0.78231 0.0
O558 O 0.2777 0.77134 0.79512 0.0
O559 O 0.25779 0.74702 0.78596 0.0
O560 O 0.30661 0.76249 0.78774 0.0
O561 O 0.30414 0.79321 0.80084 0.0
O562 O 0.27128 0.81171 0.79559 0.0
O563 O 0.2873 0.82206 0.77548 0.0
O564 O 0.28588 0.77192 0.75629 0.0
O565 O 0.3047 0.79749 0.76325 0.0
O566 O 0.25804 0.78135 0.76004 0.0
O567 O 0.25916 0.74935 0.75024 0.0
H568 H 0.30213 0.70305 0.73924 0.0
H569 H 0.32228 0.68211 0.74216 0.0
H570 H 0.31888 0.68519 0.80259 0.0
H571 H 0.29888 0.70634 0.79985 0.0
H572 H 0.25027 0.83417 0.80409 0.0
H573 H 0.22973 0.85274 0.79393 0.0
H574 H 0.25215 0.8585 0.74281 0.0
H575 H 0.27288 0.84007 0.7531 0.0
Tb576 Tb 0.51813 0.02182 0.00858 0.0
Tb577 Tb 0.54867 0.01755 0.0353 0.0
C578 C 0.48824 0.01507 0.98988 0.0
C579 C 0.47192 1.00502 0.99424 0.0
C580 C 0.47104 0.98804 1.00171 0.0
C581 C 0.45576 0.97881 0.00642 0.0
C582 C 0.44105 0.98647 0.00402 0.0
C583 C 0.44198 1.00358 0.99667 0.0
C584 C 0.45731 0.01276 0.9918 0.0
C585 C 0.53889 0.05429 0.02712 0.0
C586 C 0.51495 0.0168 0.05313 0.0
C587 C 0.57821 0.02392 0.05476 0.0
C588 C 0.59521 0.03052 0.05004 0.0
C589 C 0.5974 0.04319 0.03708 0.0
C590 C 0.61361 0.05004 0.03307 0.0
C591 C 0.62796 0.04429 0.04185 0.0
C592 C 0.62565 0.03113 0.05439 0.0
C593 C 0.60934 0.02429 0.05845 0.0
C594 C 0.52783 0.98501 0.0172 0.0
C595 C 0.55187 0.02259 0.99055 0.0
O596 O 0.49919 1.00433 0.98631 0.0
O597 O 0.49559 0.03156 1.0014 0.0
O598 O 0.53459 0.0391 0.03343 0.0
O599 O 0.53047 0.05199 0.00963 0.0
O600 O 0.50713 0.01526 0.03488 0.0
O601 O 0.53187 0.01907 0.05709 0.0
O602 O 0.56856 0.03658 0.05526 0.0
O603 O 0.56978 0.00672 0.04559 0.0
O604 O 0.53207 1.00006 0.0106 0.0
O605 O 0.53626 0.9876 0.03472 0.0
O606 O 0.55955 0.0225 0.00849 0.0
O607 O 0.53511 0.02178 0.98684 0.0
H608 H 0.48217 0.98185 0.00397 0.0
H609 H 0.45544 0.9655 0.01171 0.0
H610 H 0.43094 0.00998 0.99488 0.0
H611 H 0.4578 0.02599 0.9863 0.0
H612 H 0.58665 0.04818 0.03038 0.0
H613 H 0.61497 0.06044 0.02364 0.0
H614 H 0.63645 0.02632 0.06122 0.0
H615 H 0.60781 0.01435 0.06833 0.0
Tb616 Tb 0.26713 0.26019 0.27099 0.0
Tb617 Tb 0.30072 0.28573 0.27748 0.0
C618 C 0.24036 0.2373 0.27346 0.0
C619 C 0.22461 0.24228 0.27874 0.0
C620 C 0.22549 0.25577 0.29567 0.0
C621 C 0.21159 0.26386 0.29865 0.0
C622 C 0.19652 0.25867 0.28475 0.0
C623 C 0.19526 0.24445 0.26828 0.0
C624 C 0.20924 0.23631 0.26529 0.0
C625 C 0.27408 0.27421 0.24039 0.0
C626 C 0.26746 0.30466 0.27912 0.0
C627 C 0.32776 0.3092 0.27647 0.0
C628 C 0.34523 0.30627 0.27643 0.0
C629 C 0.35421 0.31255 0.26229 0.0
C630 C 0.36912 0.30638 0.25921 0.0
C631 C 0.37527 0.29392 0.27031 0.0
C632 C 0.3668 0.28851 0.2852 0.0
C633 C 0.35181 0.29453 0.28816 0.0
C634 C 0.29267 0.27204 0.30813 0.0
C635 C 0.30046 0.24115 0.26872 0.0
O636 O 0.25394 0.24235 0.28716 0.0
O637 O 0.24379 0.24161 0.25705 0.0
O638 O 0.28456 0.2685 0.2519 0.0
O639 O 0.25908 0.27096 0.24528 0.0
O640 O 0.2588 0.28732 0.28036 0.0
O641 O 0.28367 0.30678 0.27633 0.0
O642 O 0.31677 0.29983 0.261 0.0
O643 O 0.32155 0.30786 0.29238 0.0
O644 O 0.28291 0.27804 0.29622 0.0
O645 O 0.30779 0.27439 0.30348 0.0
O646 O 0.30994 0.25886 0.27073 0.0
O647 O 0.28363 0.23855 0.26861 0.0
H648 H 0.23716 0.26077 0.30628 0.0
H649 H 0.21273 0.27443 0.31171 0.0
H650 H 0.18374 0.24018 0.25736 0.0
H651 H 0.20836 0.22611 0.25203 0.0
H652 H 0.3492 0.32139 0.25295 0.0
H653 H 0.37554 0.31088 0.24775 0.0
H654 H 0.37122 0.27877 0.29383 0.0
H655 H 0.34493 0.28918 0.29894 0.0
Tb656 Tb 0.52398 0.53798 0.02815 0.0
Tb657 Tb 0.52997 0.49729 0.01773 0.0
C658 C 0.52104 0.57203 0.03073 0.0
C659 C 0.51927 0.58436 0.01666 0.0
C660 C 0.52646 0.58178 0.99983 0.0
C661 C 0.5237 0.5929 0.98592 0.0
C662 C 0.51365 0.60659 0.98871 0.0
C663 C 0.50625 0.60886 0.00544 0.0
C664 C 0.50905 0.59778 0.01934 0.0
C665 C 0.49979 0.5095 0.03308 0.0
C666 C 0.51679 0.51622 0.98415 0.0
C667 C 0.52538 0.46181 0.0155 0.0
C668 C 0.53422 0.45021 0.02682 0.0
C669 C 0.52492 0.43916 0.03798 0.0
C670 C 0.53332 0.4303 0.05113 0.0
C671 C 0.55113 0.43209 0.05313 0.0
C672 C 0.56043 0.44254 0.04151 0.0
C673 C 0.55205 0.45176 0.02854 0.0
C674 C 0.55886 0.52305 0.01797 0.0
C675 C 0.54163 0.52111 0.06073 0.0
O676 O 0.53591 0.56728 0.03401 0.0
O677 O 0.50798 0.55742 0.02849 0.0
O678 O 0.50798 0.50954 0.01921 0.0
O679 O 0.50515 0.52594 0.04484 0.0
O680 O 0.52017 0.53295 0.99643 0.0
O681 O 0.518 0.49991 0.98974 0.0
O682 O 0.51701 0.47253 0.0255 0.0
O683 O 0.53394 0.47095 0.00403 0.0
O684 O 0.54456 0.52592 0.02136 0.0
O685 O 0.55719 0.50451 0.01436 0.0
O686 O 0.53721 0.50401 0.04912 0.0
O687 O 0.53946 0.5371 0.05501 0.0
H688 H 0.53416 0.57118 0.99744 0.0
H689 H 0.52946 0.59089 0.97308 0.0
H690 H 0.49869 0.61958 0.00804 0.0
H691 H 0.50322 0.59965 0.03216 0.0
H692 H 0.5112 0.43789 0.03696 0.0
H693 H 0.52587 0.42195 0.05972 0.0
H694 H 0.57417 0.44389 0.04278 0.0
H695 H 0.55956 0.4604 0.02026 0.0
Tb696 Tb 0.78156 0.24893 0.27059 0.0
Tb697 Tb 0.78222 0.29149 0.28234 0.0
C698 C 0.78622 0.217 0.25572 0.0
C699 C 0.79855 0.20552 0.26172 0.0
C700 C 0.81466 0.20795 0.25592 0.0
C701 C 0.82617 0.19693 0.2616 0.0
C702 C 0.82177 0.18325 0.27313 0.0
C703 C 0.80588 0.18123 0.27938 0.0
C704 C 0.79435 0.19215 0.27364 0.0
C705 C 0.7797 0.26025 0.30681 0.0
C706 C 0.81714 0.2798 0.28605 0.0
C707 C 0.7774 0.32378 0.29608 0.0
C708 C 0.76596 0.33578 0.28923 0.0
C709 C 0.75408 0.34099 0.30049 0.0
C710 C 0.74316 0.35243 0.29434 0.0
C711 C 0.74401 0.35895 0.27683 0.0
C712 C 0.75574 0.35349 0.26539 0.0
C713 C 0.76658 0.34193 0.27148 0.0
C714 C 0.78177 0.27904 0.24526 0.0
C715 C 0.74693 0.26029 0.27103 0.0
O716 O 0.79244 0.23307 0.25017 0.0
O717 O 0.77485 0.219 0.26691 0.0
O718 O 0.78838 0.2696 0.29678 0.0
O719 O 0.77327 0.24288 0.29736 0.0
O720 O 0.80907 0.26272 0.27546 0.0
O721 O 0.80867 0.29232 0.29334 0.0
O722 O 0.76984 0.30775 0.30065 0.0
O723 O 0.78971 0.32148 0.28636 0.0
O724 O 0.77417 0.27039 0.25644 0.0
O725 O 0.78901 0.29637 0.25422 0.0
O726 O 0.75551 0.2772 0.28145 0.0
O727 O 0.75477 0.24832 0.26155 0.0
H728 H 0.81829 0.21815 0.24676 0.0
H729 H 0.83823 0.1986 0.2563 0.0
H730 H 0.80221 0.17093 0.28843 0.0
H731 H 0.78206 0.18996 0.27843 0.0
H732 H 0.75335 0.33636 0.31417 0.0
H733 H 0.73442 0.35667 0.3036 0.0
H734 H 0.75659 0.35825 0.25179 0.0
H735 H 0.7755 0.33794 0.26235 0.0
Tb736 Tb 0.01985 0.52379 0.50903 0.0
Tb737 Tb 0.05004 0.5192 0.53561 0.0
C738 C 0.99035 0.51713 0.48942 0.0
C739 C 0.97359 0.50878 0.49371 0.0
C740 C 0.97229 0.49559 0.50624 0.0
C741 C 0.95639 0.4876 0.51038 0.0
C742 C 0.94151 0.49267 0.50207 0.0
C743 C 0.94288 0.5061 0.48972 0.0
C744 C 0.95886 0.51412 0.48558 0.0
C745 C 0.04056 0.55627 0.52755 0.0
C746 C 0.01642 0.51891 0.55359 0.0
C747 C 0.07965 0.52507 0.5547 0.0
C748 C 0.09637 0.53087 0.54906 0.0
C749 C 0.09822 0.54299 0.53555 0.0
C750 C 0.11404 0.54873 0.53018 0.0
C751 C 0.12837 0.54253 0.53828 0.0
C752 C 0.12644 0.53002 0.55148 0.0
C753 C 0.11048 0.52416 0.55679 0.0
C754 C 0.02927 0.48677 0.51726 0.0
C755 C 0.05343 0.52434 0.49095 0.0
O756 O 1.00069 0.50529 0.48774 0.0
O757 O 0.99806 0.53404 0.49991 0.0
O758 O 0.03629 0.54113 0.53399 0.0
O759 O 0.03217 0.55386 0.51003 0.0
O760 O 0.00868 0.51819 0.5355 0.0
O761 O 0.03326 0.52045 0.55742 0.0
O762 O 0.07036 0.53807 0.55515 0.0
O763 O 0.07076 0.50787 0.54614 0.0
O764 O 0.03364 0.50185 0.51072 0.0
O765 O 0.03735 0.48939 0.53494 0.0
O766 O 0.061 0.52365 0.50873 0.0
O767 O 0.0368 0.52405 0.48736 0.0
H768 H 0.98353 0.49124 0.51265 0.0
H769 H 0.95571 0.47708 0.5197 0.0
H770 H 0.93162 0.5104 0.48328 0.0
H771 H 0.95971 0.52441 0.47601 0.0
H772 H 0.08753 0.54844 0.52943 0.0
H773 H 0.1152 0.55874 0.52034 0.0
H774 H 0.13733 0.52506 0.55792 0.0
H775 H 0.10919 0.51465 0.5671 0.0
Tb776 Tb 0.76517 0.77126 0.27019 0.0
Tb777 Tb 0.8007 0.7629 0.2754 0.0
C778 C 0.73447 0.77275 0.27232 0.0
C779 C 0.72271 0.77408 0.28662 0.0
C780 C 0.71562 0.75794 0.29403 0.0
C781 C 0.70283 0.75878 0.30542 0.0
C782 C 0.69678 0.77575 0.30969 0.0
C783 C 0.70439 0.7921 0.30293 0.0
C784 C 0.71712 0.79124 0.29147 0.0
C785 C 0.78954 0.79875 0.26444 0.0
C786 C 0.78774 0.77849 0.31253 0.0
C787 C 0.83083 0.75866 0.27353 0.0
C788 C 0.84341 0.75835 0.26015 0.0
C789 C 0.84906 0.77415 0.25154 0.0
C790 C 0.8623 0.77412 0.24065 0.0
C791 C 0.87022 0.75833 0.23814 0.0
C792 C 0.86412 0.74233 0.2463 0.0
C793 C 0.85092 0.74238 0.25717 0.0
C794 C 0.7757 0.73594 0.281 0.0
C795 C 0.77871 0.75722 0.23302 0.0
O796 O 0.73959 0.75664 0.2683 0.0
O797 O 0.74674 0.78791 0.27328 0.0
O798 O 0.79097 0.78846 0.2771 0.0
O799 O 0.77377 0.79473 0.25553 0.0
O800 O 0.77228 0.77437 0.30164 0.0
O801 O 0.8017 0.77734 0.30499 0.0
O802 O 0.82713 0.77513 0.27991 0.0
O803 O 0.81732 0.74439 0.26967 0.0
O804 O 0.77499 0.74594 0.26812 0.0
O805 O 0.79114 0.74022 0.29084 0.0
O806 O 0.79411 0.76144 0.24408 0.0
O807 O 0.76463 0.75774 0.24049 0.0
H808 H 0.71956 0.74446 0.29059 0.0
H809 H 0.69745 0.74598 0.31061 0.0
H810 H 0.69996 0.80534 0.30575 0.0
H811 H 0.72218 0.80386 0.28583 0.0
H812 H 0.84351 0.78668 0.25352 0.0
H813 H 0.86643 0.78657 0.23435 0.0
H814 H 0.86997 0.73001 0.24493 0.0
H815 H 0.8469 0.73008 0.26375 0.0
Tb816 Tb 0.78559 0.26112 0.75335 0.0
Tb817 Tb 0.77912 0.27886 0.79161 0.0
C818 C 0.78346 0.25415 0.71771 0.0
C819 C 0.7944 0.26476 0.70622 0.0
C820 C 0.78936 0.28021 0.69914 0.0
C821 C 0.80013 0.29175 0.68999 0.0
C822 C 0.81609 0.28782 0.68705 0.0
C823 C 0.82134 0.27254 0.69439 0.0
C824 C 0.81062 0.26115 0.70401 0.0
C825 C 0.81383 0.26442 0.7789 0.0
C826 C 0.80039 0.30687 0.76986 0.0
C827 C 0.7748 0.28672 0.82579 0.0
C828 C 0.76739 0.27449 0.83842 0.0
C829 C 0.77291 0.25761 0.84084 0.0
C830 C 0.76574 0.2462 0.85296 0.0
C831 C 0.75282 0.25137 0.8627 0.0
C832 C 0.74656 0.26758 0.85921 0.0
C833 C 0.75389 0.27913 0.84726 0.0
C834 C 0.75676 0.28052 0.76147 0.0
C835 C 0.76746 0.23232 0.77724 0.0
O836 O 0.77375 0.26406 0.72639 0.0
O837 O 0.79077 0.24419 0.72893 0.0
O838 O 0.80013 0.26936 0.78205 0.0
O839 O 0.81177 0.25729 0.76065 0.0
O840 O 0.79557 0.29251 0.75452 0.0
O841 O 0.79701 0.30406 0.78702 0.0
O842 O 0.78949 0.2843 0.82112 0.0
O843 O 0.76387 0.28814 0.81103 0.0
O844 O 0.76312 0.26624 0.76413 0.0
O845 O 0.76321 0.29459 0.776 0.0
O846 O 0.76897 0.24768 0.79109 0.0
O847 O 0.77275 0.23412 0.76064 0.0
H848 H 0.77701 0.28348 0.70068 0.0
H849 H 0.7954 0.30311 0.68424 0.0
H850 H 0.83346 0.26906 0.69215 0.0
H851 H 0.81498 0.2495 0.70959 0.0
H852 H 0.78303 0.25344 0.83374 0.0
H853 H 0.77103 0.23396 0.85553 0.0
H854 H 0.73647 0.27177 0.86634 0.0
H855 H 0.74918 0.29185 0.84512 0.0
Tb856 Tb 0.76709 0.75889 0.76705 0.0
Tb857 Tb 0.79962 0.78618 0.78179 0.0
C858 C 0.73693 0.74033 0.76428 0.0
C859 C 0.72169 0.74692 0.76942 0.0
C860 C 0.71929 0.7498 0.78879 0.0
C861 C 0.70624 0.7584 0.79416 0.0
C862 C 0.69522 0.76411 0.78029 0.0
C863 C 0.69712 0.76056 0.76081 0.0
C864 C 0.71027 0.75202 0.7554 0.0
C865 C 0.78218 0.77165 0.73951 0.0
C866 C 0.7672 0.80472 0.78005 0.0
C867 C 0.82972 0.8053 0.78511 0.0
C868 C 0.84516 0.79952 0.77991 0.0
C869 C 0.84386 0.78547 0.76331 0.0
C870 C 0.85835 0.7794 0.75869 0.0
C871 C 0.8744 0.78719 0.77061 0.0
C872 C 0.8757 0.80112 0.78732 0.0
C873 C 0.86113 0.80729 0.79192 0.0
C874 C 0.78419 0.77333 0.80916 0.0
C875 C 0.79942 0.74034 0.76848 0.0
O876 O 0.74914 0.74138 0.77883 0.0
O877 O 0.74297 0.74649 0.74971 0.0
O878 O 0.78151 0.7813 0.75574 0.0
O879 O 0.77379 0.75405 0.7382 0.0
O880 O 0.75833 0.7864 0.77615 0.0
O881 O 0.78419 0.80831 0.78195 0.0
O882 O 0.81756 0.80434 0.77054 0.0
O883 O 0.82381 0.79808 0.79921 0.0
O884 O 0.78515 0.7638 0.79302 0.0
O885 O 0.79269 0.79092 0.81066 0.0
O886 O 0.8083 0.75867 0.77238 0.0
O887 O 0.78245 0.73676 0.76675 0.0
H888 H 0.72774 0.74587 0.79994 0.0
H889 H 0.70474 0.76054 0.80921 0.0
H890 H 0.68869 0.76477 0.74985 0.0
H891 H 0.71177 0.74989 0.74036 0.0
H892 H 0.83161 0.77904 0.75395 0.0
H893 H 0.85697 0.76839 0.74592 0.0
H894 H 0.88798 0.80734 0.79669 0.0
H895 H 0.8623 0.81801 0.80486 0.0
Tb896 Tb 0.51176 0.50851 0.50825 0.0
Tb897 Tb 0.5462 0.52891 0.53005 0.0
C898 C 0.48024 0.49909 0.49582 0.0
C899 C 0.46793 0.51139 0.49723 0.0
C900 C 0.46929 0.52466 0.51444 0.0
C901 C 0.45965 0.53859 0.51502 0.0
C902 C 0.44862 0.53965 0.49838 0.0
C903 C 0.44688 0.5261 0.48127 0.0
C904 C 0.45655 0.51203 0.4807 0.0
C905 C 0.53663 0.50596 0.48829 0.0
C906 C 0.52471 0.55424 0.5115 0.0
C907 C 0.57767 0.53812 0.54274 0.0
C908 C 0.58946 0.52535 0.54047 0.0
C909 C 0.585 0.50974 0.52482 0.0
C910 C 0.59412 0.49538 0.52385 0.0
C911 C 0.60808 0.49646 0.53839 0.0
C912 C 0.61286 0.51235 0.5539 0.0
C913 C 0.60348 0.52672 0.55498 0.0
C914 C 0.52104 0.53119 0.54971 0.0
C915 C 0.5336 0.48327 0.52655 0.0
O916 O 0.48725 0.49567 0.51227 0.0
O917 O 0.49152 0.50383 0.48489 0.0
O918 O 0.53543 0.52041 0.50011 0.0
O919 O 0.52296 0.49251 0.48663 0.0
O920 O 0.51143 0.53938 0.50926 0.0
O921 O 0.54042 0.55289 0.51801 0.0
O922 O 0.57078 0.54223 0.5266 0.0
O923 O 0.5663 0.53299 0.55344 0.0
O924 O 0.52261 0.51686 0.53807 0.0
O925 O 0.53459 0.54484 0.55149 0.0
O926 O 0.5467 0.49813 0.52829 0.0
O927 O 0.51775 0.48455 0.52053 0.0
H928 H 0.47822 0.52472 0.52733 0.0
H929 H 0.46093 0.54864 0.52849 0.0
H930 H 0.43844 0.52673 0.46826 0.0
H931 H 0.45563 0.50213 0.46722 0.0
H932 H 0.57397 0.50812 0.51367 0.0
H933 H 0.58985 0.48313 0.51197 0.0
H934 H 0.62373 0.51361 0.56518 0.0
H935 H 0.60686 0.53855 0.56732 0.0
Tb936 Tb 0.04652 0.52238 0.01695 0.0
Tb937 Tb 0.01225 0.52056 0.02679 0.0
C938 C 0.07828 0.52478 0.01697 0.0
C939 C 0.09033 0.51151 0.016 0.0
C940 C 0.08966 0.49667 0.02673 0.0
C941 C 0.1019 0.4852 0.02649 0.0
C942 C 0.11508 0.48817 0.01544 0.0
C943 C 0.11539 0.50275 0.00436 0.0
C944 C 0.10322 0.51424 0.00468 0.0
C945 C 0.02214 0.52094 0.98641 0.0
C946 C 0.02312 0.48164 0.01096 0.0
C947 C 0.98057 0.51825 0.02729 0.0
C948 C 0.96822 0.53129 0.0275 0.0
C949 C 0.96233 0.53803 0.01085 0.0
C950 C 0.94969 0.54897 0.01093 0.0
C951 C 0.94253 0.55348 0.02762 0.0
C952 C 0.94874 0.54708 0.04437 0.0
C953 C 0.96133 0.53611 0.04427 0.0
C954 C 0.03668 0.52172 0.05722 0.0
C955 C 0.03545 0.56137 0.03186 0.0
O956 O 0.07156 0.52732 0.03264 0.0
O957 O 0.06706 0.52339 1.00141 0.0
O958 O 0.02361 0.53037 0.00349 0.0
O959 O 0.03508 0.51281 0.98612 0.0
O960 O 0.03907 0.4916 0.01404 0.0
O961 O 0.01028 0.49003 0.01406 0.0
O962 O 0.98691 0.5144 0.01151 0.0
O963 O 0.99215 0.52078 0.04279 0.0
O964 O 0.03506 0.51234 0.0401 0.0
O965 O 0.02391 0.53012 0.05758 0.0
O966 O 0.01952 0.55123 0.02819 0.0
O967 O 0.04842 0.55288 0.02985 0.0
H968 H 0.07981 0.49404 0.03548 0.0
H969 H 0.101 0.47397 0.03498 0.0
H970 H 0.12537 0.50571 0.99583 0.0
H971 H 0.10407 0.52557 0.99629 0.0
H972 H 0.96726 0.53464 0.99762 0.0
H973 H 0.94549 0.55383 0.99782 0.0
H974 H 0.94348 0.55 0.05745 0.0
H975 H 0.96542 0.53102 0.05729 0.0
H976 H 0.02546 0.19879 0.92624 0.0
H977 H 0.03034 0.17151 0.94128 0.0
H978 H 0.99649 0.18416 0.98103 0.0
H979 H 0.99133 0.21109 0.96595 0.0
H980 H 0.04194 0.16746 0.9798 0.0
H981 H 0.97387 0.12876 0.9543 0.0
H982 H 0.98332 0.14978 0.94548 0.0
H983 H 0.97693 0.15234 0.96882 0.0
C984 C 0.01928 0.19596 0.93839 0.0
C985 C 0.00781 0.20701 0.94469 0.0
C986 C 0.02202 0.18029 0.94693 0.0
C987 C 0.01339 0.17541 0.96195 0.0
C988 C 1.0029 0.18725 0.9691 0.0
H989 H 1.00016 0.07303 0.01577 0.0
H990 H 0.998 0.10371 0.00576 0.0
C991 C 1.00005 0.20275 0.96051 0.0
C992 C 0.01477 0.15758 0.96962 0.0
H993 H 0.99115 0.11409 0.974 0.0
C994 C 0.03085 0.15576 0.97852 0.0
C995 C 1.00026 0.14239 0.9682 0.0
C996 C 0.98263 0.14327 0.95855 0.0
C997 C 0.03281 0.13935 0.98624 0.0
C998 C 0.01837 0.12383 0.98431 0.0
C999 C 1.00226 0.12581 0.97553 0.0
C1000 C 0.0197 0.10525 0.9907 0.0
C1001 C 0.05032 0.13923 0.99688 0.0
C1002 C 0.03226 0.09549 0.98527 0.0
C1003 C 0.03381 0.07839 0.9915 0.0
C1004 C 0.02236 0.07009 0.00262 0.0
C1005 C 0.00919 0.07917 0.00727 0.0
C1006 C 0.00799 0.09671 1.00154 0.0
H1007 H 0.05776 0.15411 0.00332 0.0
H1008 H 0.04941 0.13083 0.00862 0.0
H1009 H 0.05768 0.1328 0.98651 0.0
H1010 H 0.04091 0.10101 0.97611 0.0
H1011 H 0.04387 0.07146 0.98736 0.0
H1012 H 0.10129 0.77908 0.20399 0.0
H1013 H 0.13011 0.77565 0.21544 0.0
H1014 H 0.14635 0.79178 0.16397 0.0
H1015 H 0.1172 0.79554 0.15235 0.0
H1016 H 0.14872 0.75142 0.19967 0.0
H1017 H 0.18347 0.82747 0.2063 0.0
H1018 H 0.16036 0.82049 0.20284 0.0
H1019 H 0.17128 0.81578 0.18285 0.0
C1020 C 0.11092 0.78202 0.19502 0.0
C1021 C 0.10679 0.78772 0.17721 0.0
C1022 C 0.12749 0.77998 0.20164 0.0
C1023 C 0.14061 0.78363 0.19078 0.0
C1024 C 0.13661 0.78921 0.17287 0.0
H1025 H 0.24975 0.7828 0.23229 0.0
H1026 H 0.22329 0.78274 0.21036 0.0
C1027 C 0.11988 0.79126 0.16616 0.0
C1028 C 0.15821 0.78118 0.19844 0.0
H1029 H 0.19974 0.80588 0.21613 0.0
C1030 C 0.15989 0.76333 0.20309 0.0
C1031 C 0.17294 0.79658 0.20283 0.0
C1032 C 0.17201 0.81623 0.19861 0.0
C1033 C 0.17557 0.76061 0.21242 0.0
C1034 C 0.19009 0.77625 0.21768 0.0
C1035 C 0.18867 0.79387 0.21222 0.0
C1036 C 0.20628 0.77504 0.23025 0.0
C1037 C 0.17636 0.74096 0.21671 0.0
C1038 C 0.20571 0.77077 0.24878 0.0
C1039 C 0.22076 0.77056 0.26115 0.0
C1040 C 0.23689 0.77454 0.25539 0.0
C1041 C 0.23753 0.77877 0.23684 0.0
C1042 C 0.22239 0.77908 0.22442 0.0
H1043 H 0.16655 0.72944 0.20648 0.0
H1044 H 0.18922 0.73788 0.21592 0.0
H1045 H 0.17371 0.74038 0.23153 0.0
H1046 H 0.19361 0.76811 0.25394 0.0
H1047 H 0.2198 0.76763 0.27547 0.0
H1048 H 0.52239 0.81078 0.42764 0.0
H1049 H 0.52802 0.8447 0.44322 0.0
H1050 H 0.49483 0.82978 0.48367 0.0
H1051 H 0.48869 0.79597 0.46778 0.0
H1052 H 0.48614 0.85752 0.46784 0.0
H1053 H 0.5565 0.87706 0.49239 0.0
H1054 H 0.55074 0.86682 0.46705 0.0
H1055 H 0.54472 0.85237 0.48449 0.0
C1056 C 0.51657 0.81465 0.44011 0.0
C1057 C 0.50499 0.80064 0.44637 0.0
C1058 C 0.51987 0.83409 0.44909 0.0
C1059 C 0.51194 0.83985 0.46474 0.0
C1060 C 0.50107 0.82573 0.4716 0.0
H1061 H 0.53768 0.95768 0.53107 0.0
H1062 H 0.53423 0.92288 0.52015 0.0
C1063 C 0.49759 0.80637 0.4625 0.0
C1064 C 0.51358 0.86063 0.47279 0.0
H1065 H 0.54244 0.90324 0.49147 0.0
C1066 C 0.49847 0.86748 0.47321 0.0
C1067 C 0.52962 0.87364 0.47995 0.0
C1068 C 0.5463 0.86707 0.48115 0.0
C1069 C 0.4989 0.88689 0.48045 0.0
C1070 C 0.51497 0.90012 0.48677 0.0
C1071 C 0.5301 0.89323 0.48651 0.0
C1072 C 0.51642 0.9211 0.4938 0.0
C1073 C 0.48205 0.89274 0.48162 0.0
C1074 C 0.50758 0.9318 0.48273 0.0
C1075 C 0.50901 0.95147 0.48939 0.0
C1076 C 0.51988 0.96098 0.50681 0.0
C1077 C 0.52909 0.95053 0.51767 0.0
C1078 C 0.52719 0.9307 0.51136 0.0
H1079 H 0.47185 0.88036 0.48277 0.0
H1080 H 0.48322 0.90448 0.49423 0.0
H1081 H 0.47779 0.89778 0.4682 0.0
H1082 H 0.49978 0.92505 0.46877 0.0
H1083 H 0.50216 0.95942 0.48055 0.0
H1084 H 0.51919 0.26061 0.68613 0.0
H1085 H 0.49191 0.25328 0.69789 0.0
H1086 H 0.46888 0.28238 0.65635 0.0
H1087 H 0.49584 0.28948 0.64443 0.0
H1088 H 0.47567 0.27923 0.71456 0.0
H1089 H 0.43187 0.23417 0.64947 0.0
H1090 H 0.45491 0.23929 0.65134 0.0
H1091 H 0.44297 0.25663 0.64486 0.0
C1092 C 0.50822 0.26511 0.67925 0.0
C1093 C 0.50973 0.27552 0.66423 0.0
C1094 C 0.49263 0.26095 0.68601 0.0
C1095 C 0.47819 0.267 0.67783 0.0
C1096 C 0.47962 0.27707 0.66259 0.0
H1097 H 0.37928 0.27785 0.70806 0.0
H1098 H 0.40498 0.2784 0.69315 0.0
C1099 C 0.49515 0.28121 0.65583 0.0
C1100 C 0.46214 0.26433 0.68626 0.0
H1101 H 0.41855 0.24757 0.67491 0.0
C1102 C 0.46322 0.27209 0.70592 0.0
C1103 C 0.44582 0.25514 0.675 0.0
C1104 C 0.44381 0.24567 0.65405 0.0
C1105 C 0.44847 0.27139 0.71449 0.0
C1106 C 0.43215 0.26244 0.70318 0.0
C1107 C 0.43104 0.25451 0.68356 0.0
C1108 C 0.41613 0.26128 0.71156 0.0
C1109 C 0.45046 0.28076 0.73547 0.0
C1110 C 0.41368 0.25118 0.72661 0.0
C1111 C 0.39909 0.25094 0.73523 0.0
C1112 C 0.3865 0.2607 0.72893 0.0
C1113 C 0.38879 0.27042 0.71349 0.0
C1114 C 0.40342 0.27062 0.70484 0.0
H1115 H 0.46309 0.291 0.74072 0.0
H1116 H 0.44015 0.28862 0.73775 0.0
H1117 H 0.44952 0.26946 0.74442 0.0
H1118 H 0.42317 0.24362 0.73186 0.0
H1119 H 0.3979 0.24347 0.74719 0.0
H1120 H 0.05406 0.82167 0.67131 0.0
H1121 H 0.0626 0.84855 0.65506 0.0
H1122 H 0.05288 0.8087 0.60043 0.0
H1123 H 0.043 0.78198 0.61655 0.0
H1124 H 0.08531 0.86016 0.63415 0.0
H1125 H 0.02042 0.84166 0.5886 0.0
H1126 H 0.02574 0.82954 0.60808 0.0
H1127 H 0.03177 0.82276 0.58491 0.0
C1128 C 0.0539 0.81874 0.65585 0.0
C1129 C 0.04762 0.80004 0.64498 0.0
C1130 C 0.05884 0.83402 0.64661 0.0
C1131 C 0.05789 0.83065 0.62647 0.0
C1132 C 0.05308 0.81166 0.61588 0.0
H1133 H 0.07095 0.90888 0.54766 0.0
H1134 H 0.0759 0.88439 0.56647 0.0
C1135 C 0.04756 0.79645 0.62504 0.0
C1136 C 0.06047 0.84716 0.61652 0.0
H1137 H 0.04045 0.86745 0.5824 0.0
C1138 C 0.07554 0.86172 0.62279 0.0
C1139 C 0.04751 0.84933 0.60195 0.0
C1140 C 0.03039 0.8351 0.59563 0.0
C1141 C 0.07797 0.87839 0.61479 0.0
C1142 C 0.06519 0.8802 0.60005 0.0
C1143 C 0.05026 0.86568 0.59364 0.0
C1144 C 0.06654 0.89731 0.59126 0.0
C1145 C 0.09394 0.89412 0.62219 0.0
C1146 C 0.06008 0.9128 0.5994 0.0
C1147 C 0.05724 0.92683 0.58873 0.0
C1148 C 0.06073 0.92535 0.56979 0.0
C1149 C 0.06833 0.9105 0.56229 0.0
C1150 C 0.07115 0.8965 0.57296 0.0
H1151 H 0.10307 0.89015 0.6332 0.0
H1152 H 0.10046 0.8974 0.60997 0.0
H1153 H 0.09033 0.90747 0.62874 0.0
H1154 H 0.05628 0.91338 0.61346 0.0
H1155 H 0.05154 0.93828 0.59489 0.0
H1156 H 0.45351 0.75132 0.81888 0.0
H1157 H 0.42538 0.75848 0.8112 0.0
H1158 H 0.4493 0.81778 0.81229 0.0
H1159 H 0.47776 0.81053 0.81988 0.0
H1160 H 0.42544 0.81027 0.83928 0.0
H1161 H 0.39787 0.77251 0.76396 0.0
H1162 H 0.40846 0.75819 0.7779 0.0
H1163 H 0.42075 0.77989 0.77279 0.0
C1164 C 0.45276 0.7657 0.81675 0.0
C1165 C 0.46761 0.78039 0.81982 0.0
C1166 C 0.43675 0.76976 0.81235 0.0
C1167 C 0.4354 0.7886 0.81106 0.0
C1168 C 0.45024 0.80313 0.81304 0.0
H1169 H 0.33437 0.8148 0.80986 0.0
H1170 H 0.36569 0.82102 0.81599 0.0
C1171 C 0.46638 0.79897 0.81721 0.0
C1172 C 0.41845 0.79313 0.81042 0.0
H1173 H 0.3777 0.77701 0.78544 0.0
C1174 C 0.41499 0.80354 0.82733 0.0
C1175 C 0.40501 0.78413 0.79485 0.0
C1176 C 0.40822 0.77319 0.77627 0.0
C1177 C 0.39808 0.80387 0.8296 0.0
C1178 C 0.3846 0.79372 0.8145 0.0
C1179 C 0.38819 0.78453 0.79709 0.0
C1180 C 0.36651 0.79131 0.81649 0.0
C1181 C 0.3946 0.81391 0.84845 0.0
C1182 C 0.35681 0.7727 0.81561 0.0
C1183 C 0.33898 0.76904 0.81183 0.0
C1184 C 0.33073 0.78401 0.80905 0.0
C1185 C 0.34046 0.80302 0.81203 0.0
C1186 C 0.35833 0.80662 0.81556 0.0
H1187 H 0.4065 0.81965 0.85941 0.0
H1188 H 0.38861 0.82608 0.84587 0.0
H1189 H 0.38541 0.80379 0.85439 0.0
H1190 H 0.36304 0.76076 0.81634 0.0
H1191 H 0.33172 0.75431 0.80976 0.0
H1192 H 0.55981 0.21691 0.14748 0.0
H1193 H 0.5671 0.1906 0.12633 0.0
H1194 H 0.51322 0.16459 0.10702 0.0
H1195 H 0.50584 0.19129 0.12744 0.0
H1196 H 0.56196 0.15323 0.12378 0.0
H1197 H 0.52841 0.16729 0.05633 0.0
H1198 H 0.53189 0.18382 0.07912 0.0
H1199 H 0.51386 0.1634 0.0729 0.0
C1200 C 0.54952 0.20555 0.13874 0.0
C1201 C 0.53223 0.20625 0.1389 0.0
C1202 C 0.55371 0.19055 0.12665 0.0
C1203 C 0.54071 0.17593 0.11467 0.0
C1204 C 0.52346 0.17611 0.11559 0.0
H1205 H 0.54001 0.06152 0.06582 0.0
H1206 H 0.54427 0.09262 0.08682 0.0
C1207 C 0.51925 0.19127 0.12738 0.0
C1208 C 0.54506 0.16044 0.10121 0.0
H1209 H 0.53427 0.13564 0.0547 0.0
C1210 C 0.55614 0.14955 0.10859 0.0
C1211 C 0.538 0.15606 0.08126 0.0
C1212 C 0.52756 0.16843 0.07191 0.0
C1213 C 0.55946 0.13363 0.09678 0.0
C1214 C 0.55091 0.12803 0.07728 0.0
C1215 C 0.54069 0.13968 0.06968 0.0
C1216 C 0.55084 0.10928 0.06503 0.0
C1217 C 0.57204 0.12304 0.10545 0.0
C1218 C 0.55274 0.10805 0.04552 0.0
C1219 C 0.54956 0.09009 0.03315 0.0
C1220 C 0.54477 0.07314 0.04024 0.0
C1221 C 0.54386 0.07436 0.05997 0.0
C1222 C 0.54651 0.09222 0.07212 0.0
H1223 H 0.58241 0.13317 0.11637 0.0
H1224 H 0.5653 0.11237 0.11305 0.0
H1225 H 0.57799 0.11543 0.09428 0.0
H1226 H 0.556 0.121 0.03967 0.0
H1227 H 0.55033 0.08946 0.01799 0.0
H1228 H 0.0723 0.30987 0.3582 0.0
H1229 H 0.09902 0.31891 0.34574 0.0
H1230 H 0.08919 0.26195 0.31066 0.0
H1231 H 0.06269 0.25282 0.32287 0.0
H1232 H 0.12699 0.30035 0.34777 0.0
H1233 H 0.0987 0.29795 0.27195 0.0
H1234 H 0.08673 0.30044 0.29156 0.0
H1235 H 0.08903 0.27702 0.28046 0.0
C1236 C 0.07591 0.29928 0.3479 0.0
C1237 C 0.06539 0.28067 0.3414 0.0
C1238 C 0.09105 0.30452 0.34071 0.0
C1239 C 0.09566 0.29127 0.32686 0.0
C1240 C 0.08547 0.27255 0.32088 0.0
H1241 H 0.16261 0.24157 0.27934 0.0
H1242 H 0.13939 0.25658 0.28785 0.0
C1243 C 0.07045 0.26729 0.32806 0.0
C1244 C 0.11175 0.29607 0.31947 0.0
H1245 H 0.12677 0.28958 0.27704 0.0
C1246 C 0.12716 0.29877 0.33237 0.0
C1247 C 0.11178 0.2942 0.2994 0.0
C1248 C 0.09566 0.29245 0.28508 0.0
C1249 C 0.14235 0.29717 0.32552 0.0
C1250 C 0.14193 0.29308 0.30531 0.0
C1251 C 0.12694 0.29259 0.29252 0.0
C1252 C 0.15555 0.28529 0.2974 0.0
C1253 C 0.15825 0.29786 0.3398 0.0
C1254 C 0.17212 0.29666 0.29947 0.0
C1255 C 0.18541 0.2881 0.29463 0.0
C1256 C 0.18221 0.26809 0.28767 0.0
C1257 C 0.16539 0.25699 0.28459 0.0
C1258 C 0.15216 0.26555 0.28944 0.0
H1259 H 0.156 0.29988 0.35499 0.0
H1260 H 0.16279 0.28432 0.33651 0.0
H1261 H 0.16865 0.30997 0.3386 0.0
H1262 H 0.17485 0.31196 0.30541 0.0
H1263 H 0.19824 0.29702 0.29674 0.0
H1264 H 0.94653 0.98394 0.19016 0.0
H1265 H 0.95845 0.98409 0.16021 0.0
H1266 H 0.97451 0.04606 0.1748 0.0
H1267 H 0.96292 0.04608 0.20461 0.0
H1268 H 0.95051 1.00281 0.12947 0.0
H1269 H 0.01861 0.02954 0.1647 0.0
H1270 H 1.00203 0.02009 0.17749 0.0
H1271 H 0.005 0.04451 0.17368 0.0
C1272 C 0.95255 0.99758 0.18691 0.0
C1273 C 0.95387 0.01499 0.19978 0.0
C1274 C 0.95939 0.99763 0.16987 0.0
C1275 C 0.96767 0.01506 0.16556 0.0
C1276 C 0.96856 0.03243 0.17813 0.0
H1277 H 0.01782 0.05781 0.07723 0.0
H1278 H 1.00364 0.05323 0.10502 0.0
C1279 C 0.9618 0.0324 0.1951 0.0
C1280 C 0.97504 0.01539 0.1477 0.0
H1281 H 0.01199 0.0316 0.13139 0.0
C1282 C 0.96398 0.0089 0.12981 0.0
C1283 C 0.99263 0.0233 0.1483 0.0
C1284 C 0.0053 0.02958 0.16707 0.0
C1285 C 0.96988 0.01096 0.11245 0.0
C1286 C 0.98737 0.01945 0.11308 0.0
C1287 C 0.99853 0.02536 0.13097 0.0
C1288 C 0.99447 0.02238 0.09541 0.0
C1289 C 0.95721 1.00465 0.09369 0.0
C1290 C 0.99376 0.00661 0.08072 0.0
C1291 C 1.00157 0.00926 0.06475 0.0
C1292 C 0.01055 0.02766 0.06343 0.0
C1293 C 0.01093 0.04351 0.0779 0.0
C1294 C 1.00293 0.04088 0.09379 0.0
H1295 H 0.94378 1.00362 0.09613 0.0
H1296 H 0.95989 0.01476 0.08368 0.0
H1297 H 0.95823 0.99017 0.08655 0.0
H1298 H 0.98768 0.99216 0.08189 0.0
H1299 H 1.00122 0.99675 0.05387 0.0
H1300 H 0.33909 0.72904 0.49285 0.0
H1301 H 0.31935 0.72781 0.46342 0.0
H1302 H 0.28201 0.74369 0.49716 0.0
H1303 H 0.30155 0.74412 0.52687 0.0
H1304 H 0.26883 0.71058 0.47009 0.0
H1305 H 0.3036 0.76738 0.43661 0.0
H1306 H 0.3162 0.75057 0.44252 0.0
H1307 H 0.30991 0.7659 0.46156 0.0
C1308 C 0.32702 0.73316 0.4941 0.0
C1309 C 0.32181 0.73671 0.51213 0.0
C1310 C 0.31568 0.73229 0.47722 0.0
C1311 C 0.29925 0.73562 0.47818 0.0
C1312 C 0.29463 0.74095 0.49621 0.0
H1313 H 0.23623 0.75513 0.38815 0.0
H1314 H 0.23775 0.74281 0.41806 0.0
C1315 C 0.30587 0.74151 0.51312 0.0
C1316 C 0.2865 0.73209 0.46036 0.0
H1317 H 0.28004 0.74453 0.41629 0.0
C1318 C 0.27114 0.71813 0.45836 0.0
C1319 C 0.28972 0.74184 0.44512 0.0
C1320 C 0.30568 0.75737 0.44661 0.0
C1321 C 0.2589 0.71363 0.44129 0.0
C1322 C 0.26227 0.72331 0.42614 0.0
C1323 C 0.27761 0.73715 0.42812 0.0
C1324 C 0.25022 0.72019 0.40789 0.0
C1325 C 0.24258 0.69863 0.43935 0.0
C1326 C 0.25442 0.70967 0.39159 0.0
C1327 C 0.25359 0.71672 0.37443 0.0
C1328 C 0.24851 0.73418 0.37378 0.0
C1329 C 0.24043 0.74179 0.38848 0.0
C1330 C 0.24119 0.73465 0.40559 0.0
H1331 H 0.242 0.69206 0.45241 0.0
H1332 H 0.23138 0.7053 0.43684 0.0
H1333 H 0.24151 0.68711 0.42657 0.0
H1334 H 0.26127 0.69834 0.3931 0.0
H1335 H 0.25954 0.71041 0.363 0.0
H1336 H 0.61081 0.03277 0.73306 0.0
H1337 H 0.5969 0.03339 0.70066 0.0
H1338 H 0.61711 0.98527 0.67755 0.0
H1339 H 0.63097 0.98434 0.71046 0.0
H1340 H 0.60684 0.0404 0.66879 0.0
H1341 H 0.56859 0.96522 0.65067 0.0
H1342 H 0.58014 0.97606 0.67473 0.0
H1343 H 0.59129 0.96701 0.65629 0.0
C1344 C 0.61238 0.02216 0.72123 0.0
C1345 C 0.62215 0.0084 0.72489 0.0
C1346 C 0.60432 0.02259 0.7024 0.0
C1347 C 0.60543 0.00923 0.6861 0.0
C1348 C 0.61543 0.99558 0.68957 0.0
H1349 H 0.56681 0.01367 0.56156 0.0
H1350 H 0.58511 0.01083 0.59146 0.0
C1351 C 0.6236 0.99514 0.70858 0.0
C1352 C 0.59624 0.01004 0.66589 0.0
H1353 H 0.56691 0.98354 0.62598 0.0
C1354 C 0.59824 0.02782 0.6595 0.0
C1355 C 0.58466 0.9939 0.65331 0.0
C1356 C 0.58086 0.97451 0.6591 0.0
C1357 C 0.58929 0.02984 0.64148 0.0
C1358 C 0.57779 0.01375 0.62899 0.0
C1359 C 0.57581 0.99595 0.6352 0.0
C1360 C 0.56684 0.01557 0.61031 0.0
C1361 C 0.59185 0.04938 0.63596 0.0
C1362 C 0.55037 0.01929 0.61047 0.0
C1363 C 0.53991 0.02086 0.59338 0.0
C1364 C 0.54544 0.01892 0.57528 0.0
C1365 C 0.56203 0.01541 0.57506 0.0
C1366 C 0.57253 0.0137 0.59227 0.0
H1367 H 0.60179 0.06039 0.64658 0.0
H1368 H 0.59565 0.04846 0.62147 0.0
H1369 H 0.57955 0.05416 0.63495 0.0
H1370 H 0.54551 0.02094 0.62395 0.0
H1371 H 0.52731 0.0236 0.59438 0.0
H1372 H 0.32277 0.33615 0.99644 0.0
H1373 H 0.31738 0.32109 0.96236 0.0
H1374 H 0.27125 0.34255 0.95334 0.0
H1375 H 0.27683 0.35829 0.9875 0.0
H1376 H 0.29205 0.29444 0.93823 0.0
H1377 H 0.29708 0.36473 0.91448 0.0
H1378 H 0.30258 0.36304 0.9395 0.0
H1379 H 0.28046 0.35948 0.92844 0.0
C1380 C 0.31138 0.33762 0.98732 0.0
C1381 C 0.30038 0.34875 0.99477 0.0
C1382 C 0.3083 0.32892 0.96776 0.0
C1383 C 0.29415 0.33106 0.95511 0.0
C1384 C 0.28254 0.34115 0.96268 0.0
H1385 H 0.26201 0.29277 0.83071 0.0
H1386 H 0.26357 0.30395 0.86528 0.0
C1387 C 0.28567 0.35001 0.98229 0.0
C1388 C 0.29211 0.32336 0.93397 0.0
H1389 H 0.29028 0.33684 0.88988 0.0
C1390 C 0.29166 0.30373 0.92768 0.0
C1391 C 0.29173 0.33548 0.92014 0.0
C1392 C 0.29315 0.35688 0.92594 0.0
C1393 C 0.29074 0.29592 0.90801 0.0
C1394 C 0.29036 0.30806 0.89429 0.0
C1395 C 0.2906 0.32759 0.90048 0.0
C1396 C 0.28952 0.30075 0.87336 0.0
C1397 C 0.29001 0.27472 0.90195 0.0
C1398 C 0.3037 0.29539 0.86639 0.0
C1399 C 0.30295 0.28912 0.8465 0.0
C1400 C 0.28794 0.288 0.83327 0.0
C1401 C 0.27378 0.29336 0.84041 0.0
C1402 C 0.27461 0.29978 0.86021 0.0
H1403 H 0.28765 0.26671 0.91377 0.0
H1404 H 0.27974 0.26829 0.88916 0.0
H1405 H 0.3024 0.27283 0.89774 0.0
H1406 H 0.3154 0.29623 0.87632 0.0
H1407 H 0.31406 0.28507 0.84154 0.0
H1408 H 0.97653 0.9839 0.2978 0.0
H1409 H 0.99012 0.98497 0.33134 0.0
H1410 H 0.96371 0.0286 0.35186 0.0
H1411 H 0.9504 0.02784 0.31899 0.0
H1412 H 0.00995 0.02252 0.36119 0.0
H1413 H 0.95089 0.98102 0.38013 0.0
H1414 H 0.95472 0.9793 0.35553 0.0
H1415 H 0.9479 0.99983 0.36707 0.0
C1416 C 0.97365 0.99365 0.30952 0.0
C1417 C 0.96215 1.00547 0.30586 0.0
C1418 C 0.98142 0.99429 0.32854 0.0
C1419 C 0.97767 0.00672 0.34385 0.0
C1420 C 0.96652 0.01877 0.34014 0.0
H1421 H 0.01131 0.04854 0.46639 0.0
H1422 H 1.00323 0.04597 0.43125 0.0
C1423 C 0.95883 0.01816 0.32134 0.0
C1424 C 0.98494 0.00721 0.36399 0.0
H1425 H 0.97303 0.99813 0.40627 0.0
C1426 C 1.00203 0.01698 0.37107 0.0
C1427 C 0.97438 1.00008 0.37665 0.0
C1428 C 0.95597 0.98934 0.3695 0.0
C1429 C 0.00875 0.02023 0.39086 0.0
C1430 C 0.99801 0.01356 0.40354 0.0
C1431 C 0.98107 1.00339 0.39636 0.0
C1432 C 0.00429 0.01594 0.42428 0.0
C1433 C 0.02718 0.03071 0.3982 0.0
C1434 C 0.00741 0.99989 0.4316 0.0
C1435 C 0.01181 1.00123 0.45139 0.0
C1436 C 0.01314 0.01867 0.46421 0.0
C1437 C 0.01033 0.03493 0.45681 0.0
C1438 C 0.00583 0.03353 0.43685 0.0
H1439 H 0.03413 0.03392 0.38626 0.0
H1440 H 0.02761 0.04448 0.40803 0.0
H1441 H 0.03394 0.02192 0.4067 0.0
H1442 H 0.00617 0.98623 0.42198 0.0
H1443 H 0.01412 0.98849 0.4566 0.0
H1444 H 0.31598 0.67641 0.59357 0.0
H1445 H 0.307 0.68543 0.62486 0.0
H1446 H 0.32586 0.74549 0.62398 0.0
H1447 H 0.33531 0.73665 0.59326 0.0
H1448 H 0.33834 0.71925 0.65758 0.0
H1449 H 0.27155 0.72904 0.64004 0.0
H1450 H 0.27952 0.71078 0.62569 0.0
H1451 H 0.28629 0.73558 0.62407 0.0
C1452 C 0.31821 0.69151 0.60019 0.0
C1453 C 0.32676 0.70589 0.59152 0.0
C1454 C 0.3129 0.69659 0.61778 0.0
C1455 C 0.31571 0.71605 0.62636 0.0
C1456 C 0.32358 0.7304 0.61732 0.0
H1457 H 0.30368 0.79507 0.72161 0.0
H1458 H 0.30817 0.77768 0.69078 0.0
C1459 C 0.32921 0.72535 0.60005 0.0
C1460 C 0.31298 0.72178 0.64609 0.0
H1461 H 0.28692 0.74313 0.67172 0.0
C1462 C 0.327 0.72413 0.6609 0.0
C1463 C 0.29819 0.72821 0.64992 0.0
C1464 C 0.28293 0.72575 0.63416 0.0
C1465 C 0.32711 0.73401 0.67947 0.0
C1466 C 0.31256 0.74112 0.68325 0.0
C1467 C 0.29811 0.73779 0.66861 0.0
C1468 C 0.3122 0.75248 0.70217 0.0
C1469 C 0.34316 0.73773 0.69449 0.0
C1470 C 0.31375 0.7443 0.71873 0.0
C1471 C 0.31168 0.75441 0.73626 0.0
C1472 C 0.30764 0.77249 0.73725 0.0
C1473 C 0.30706 0.78119 0.72103 0.0
C1474 C 0.30933 0.77118 0.70349 0.0
H1475 H 0.35454 0.73593 0.6878 0.0
H1476 H 0.34589 0.7525 0.70332 0.0
H1477 H 0.34136 0.72728 0.7043 0.0
H1478 H 0.31581 0.72983 0.71792 0.0
H1479 H 0.31243 0.74776 0.74886 0.0
H1480 H 0.64979 0.99984 0.85512 0.0
H1481 H 0.63622 1.003 0.8841 0.0
H1482 H 0.5981 0.02736 0.85443 0.0
H1483 H 0.61141 0.02398 0.82552 0.0
H1484 H 0.62941 0.03214 0.90937 0.0
H1485 H 0.56646 0.98656 0.8723 0.0
H1486 H 0.58526 0.98829 0.86105 0.0
H1487 H 0.57317 0.0068 0.86127 0.0
C1488 C 0.63857 0.00598 0.85472 0.0
C1489 C 0.63184 0.01156 0.83757 0.0
C1490 C 0.6307 0.00777 0.87147 0.0
C1491 C 0.61563 0.01502 0.87181 0.0
C1492 C 0.60928 0.02115 0.85486 0.0
H1493 H 0.54259 0.02912 0.95347 0.0
H1494 H 0.55834 0.02803 0.92641 0.0
C1495 C 0.61712 0.01939 0.83817 0.0
C1496 C 0.60662 0.01616 0.88962 0.0
H1497 H 0.56754 1.00336 0.90403 0.0
C1498 C 0.61588 0.02573 0.90811 0.0
C1499 C 0.58885 0.008 0.88857 0.0
C1500 C 0.57787 0.99667 0.86979 0.0
C1501 C 0.60804 0.02783 0.92494 0.0
C1502 C 0.59024 0.01959 0.92392 0.0
C1503 C 0.58106 0.00989 0.9054 0.0
C1504 C 0.58079 0.02095 0.94146 0.0
C1505 C 0.619 0.03969 0.94351 0.0
C1506 C 0.5876 0.01736 0.95966 0.0
C1507 C 0.57861 0.01841 0.97553 0.0
C1508 C 0.56212 0.0226 0.97389 0.0
C1509 C 0.5552 0.02591 0.95566 0.0
C1510 C 0.5643 0.02519 0.93992 0.0
H1511 H 0.62999 0.05017 0.94065 0.0
H1512 H 0.61147 0.04779 0.95232 0.0
H1513 H 0.62439 0.03 0.95206 0.0
H1514 H 0.59983 0.01328 0.96165 0.0
H1515 H 0.58448 0.01544 0.98904 0.0
H1516 H 0.27384 0.36092 0.09377 0.0
H1517 H 0.26822 0.34506 0.12118 0.0
H1518 H 0.31318 0.32172 0.11816 0.0
H1519 H 0.31879 0.33709 0.09094 0.0
H1520 H 0.26813 0.30005 0.12353 0.0
H1521 H 0.31709 0.35724 0.17568 0.0
H1522 H 0.30574 0.36194 0.15382 0.0
H1523 H 0.32227 0.34868 0.15247 0.0
C1524 C 0.28237 0.35217 0.09874 0.0
C1525 C 0.29684 0.35046 0.09011 0.0
C1526 C 0.27917 0.34317 0.11445 0.0
C1527 C 0.29042 0.3324 0.12184 0.0
C1528 C 0.30443 0.33008 0.11281 0.0
H1529 H 0.3037 0.27946 0.22436 0.0
H1530 H 0.30797 0.29317 0.19531 0.0
C1531 C 0.30758 0.33893 0.09716 0.0
C1532 C 0.28807 0.324 0.13935 0.0
H1533 H 0.30454 0.33003 0.18748 0.0
C1534 C 0.27598 0.30666 0.13754 0.0
C1535 C 0.29854 0.33246 0.15754 0.0
C1536 C 0.31163 0.35117 0.16019 0.0
C1537 C 0.27415 0.29751 0.15345 0.0
C1538 C 0.28449 0.3061 0.17176 0.0
C1539 C 0.29666 0.3234 0.17349 0.0
C1540 C 0.28221 0.29785 0.18943 0.0
C1541 C 0.26139 0.27849 0.15044 0.0
C1542 C 0.2665 0.29626 0.19601 0.0
C1543 C 0.26411 0.28862 0.21254 0.0
C1544 C 0.27739 0.2824 0.22303 0.0
C1545 C 0.29325 0.28418 0.21664 0.0
C1546 C 0.29567 0.29195 0.20002 0.0
H1547 H 0.25816 0.27127 0.13496 0.0
H1548 H 0.26642 0.26862 0.15906 0.0
H1549 H 0.24937 0.28105 0.15518 0.0
H1550 H 0.25605 0.30108 0.18841 0.0
H1551 H 0.25177 0.28764 0.21713 0.0
H1552 H 0.19847 0.86731 0.03619 0.0
H1553 H 0.17566 0.88482 0.03993 0.0
H1554 H 0.19577 0.92249 0.00309 0.0
H1555 H 0.21868 0.90532 0.99946 0.0
H1556 H 0.19475 0.94002 0.04245 0.0
H1557 H 0.13251 0.89207 0.00354 0.0
H1558 H 0.1469 0.88186 0.01833 0.0
H1559 H 0.15284 0.88936 0.9969 0.0
C1560 C 0.19777 0.87905 0.02855 0.0
C1561 C 0.21048 0.88527 0.01788 0.0
C1562 C 0.18471 0.88891 0.0306 0.0
C1563 C 0.18418 0.90484 0.02178 0.0
C1564 C 0.1961 0.91018 0.00998 0.0
H1565 H 0.12639 0.98815 0.01133 0.0
H1566 H 0.14298 0.96323 0.00861 0.0
C1567 C 0.20919 0.90045 0.00804 0.0
C1568 C 0.173 0.91778 0.02711 0.0
H1569 H 0.13159 0.92259 0.02085 0.0
C1570 C 0.18091 0.9362 0.03792 0.0
C1571 C 0.15505 0.91252 0.02113 0.0
C1572 C 0.14622 0.89292 0.00924 0.0
C1573 C 0.17129 0.94984 0.04247 0.0
C1574 C 0.15339 0.94474 0.03616 0.0
C1575 C 0.14537 0.92617 0.0258 0.0
C1576 C 0.14319 0.95933 0.03815 0.0
C1577 C 0.18029 0.96988 0.05317 0.0
C1578 C 0.13822 0.96538 0.05581 0.0
C1579 C 0.1288 0.97965 0.05744 0.0
C1580 C 0.12432 0.98782 0.04137 0.0
C1581 C 0.12964 0.9819 0.02385 0.0
C1582 C 0.13899 0.96769 0.02224 0.0
H1583 H 0.19442 0.9716 0.05668 0.0
H1584 H 0.17752 0.9806 0.04428 0.0
H1585 H 0.17535 0.97319 0.06684 0.0
H1586 H 0.14153 0.95898 0.06819 0.0
H1587 H 0.1246 0.98389 0.07099 0.0
H1588 H 0.70104 0.63811 0.99478 0.0
H1589 H 0.67097 0.62653 0.99827 0.0
H1590 H 0.68477 0.57882 0.02127 0.0
H1591 H 0.71446 0.59032 0.01823 0.0
H1592 H 0.64707 0.59282 0.98283 0.0
H1593 H 0.65975 0.59924 0.06206 0.0
H1594 H 0.67558 0.61014 0.04915 0.0
H1595 H 0.67296 0.5851 0.0509 0.0
C1596 C 0.69766 0.62521 1.00068 0.0
C1597 C 0.71035 0.61531 0.00636 0.0
C1598 C 0.68042 0.61857 0.00266 0.0
C1599 C 0.6755 0.60197 0.0105 0.0
C1600 C 0.68814 0.59195 0.01576 0.0
H1601 H 0.59068 0.51617 0.01988 0.0
H1602 H 0.6176 0.53798 0.01858 0.0
C1603 C 0.70523 0.59854 0.01385 0.0
C1604 C 0.65725 0.59457 0.01284 0.0
H1605 H 0.63334 0.57729 0.04516 0.0
C1606 C 0.64402 0.58982 0.99656 0.0
C1607 C 0.65302 0.59072 0.03077 0.0
C1608 C 0.66605 0.59677 0.04924 0.0
C1609 C 0.62714 0.5803 0.9975 0.0
C1610 C 0.62327 0.57537 0.01513 0.0
C1611 C 0.63625 0.58092 0.03158 0.0
C1612 C 0.60649 0.56262 0.01633 0.0
C1613 C 0.61369 0.57467 0.97941 0.0
C1614 C 0.59112 0.56919 0.01579 0.0
C1615 C 0.57555 0.55667 0.0168 0.0
C1616 C 0.57508 0.53731 0.01815 0.0
C1617 C 0.59053 0.53095 0.01882 0.0
C1618 C 0.60599 0.54343 0.01807 0.0
H1619 H 0.61889 0.57864 0.96657 0.0
H1620 H 0.60829 0.55889 0.97646 0.0
H1621 H 0.603 0.58195 0.98155 0.0
H1622 H 0.59115 0.58397 0.01455 0.0
H1623 H 0.56388 0.56199 0.0161 0.0
H1624 H 0.69455 0.51303 0.30624 0.0
H1625 H 0.70858 0.48723 0.29489 0.0
H1626 H 0.6593 0.45152 0.26618 0.0
H1627 H 0.64551 0.47777 0.27634 0.0
H1628 H 0.7043 0.45488 0.30569 0.0
H1629 H 0.68623 0.43847 0.22585 0.0
H1630 H 0.68276 0.45984 0.24033 0.0
H1631 H 0.66774 0.43705 0.2373 0.0
C1632 C 0.68685 0.49984 0.29705 0.0
C1633 C 0.66904 0.49733 0.29203 0.0
C1634 C 0.69482 0.48512 0.29058 0.0
C1635 C 0.68503 0.46749 0.27944 0.0
C1636 C 0.66723 0.46517 0.27414 0.0
H1637 H 0.71007 0.35699 0.27823 0.0
H1638 H 0.69465 0.38278 0.27543 0.0
C1639 C 0.65933 0.48011 0.2801 0.0
C1640 C 0.69316 0.45089 0.27554 0.0
H1641 H 0.69695 0.41428 0.24049 0.0
C1642 C 0.70285 0.44622 0.29136 0.0
C1643 C 0.69115 0.43942 0.25686 0.0
C1644 C 0.68154 0.44408 0.23911 0.0
C1645 C 0.71046 0.4304 0.28908 0.0
C1646 C 0.7081 0.41875 0.27057 0.0
C1647 C 0.69854 0.4233 0.25467 0.0
C1648 C 0.71581 0.40191 0.26787 0.0
C1649 C 0.72101 0.42613 0.30646 0.0
C1650 C 0.73253 0.4041 0.26393 0.0
C1651 C 0.74139 0.38952 0.26567 0.0
C1652 C 0.73362 0.37264 0.27144 0.0
C1653 C 0.71642 0.36999 0.27403 0.0
C1654 C 0.70756 0.38457 0.27227 0.0
H1655 H 0.72201 0.43699 0.31978 0.0
H1656 H 0.71514 0.41171 0.30905 0.0
H1657 H 0.73415 0.42578 0.30364 0.0
H1658 H 0.73907 0.41754 0.26073 0.0
H1659 H 0.75468 0.39202 0.26375 0.0
H1660 H 0.78813 0.40358 0.49276 0.0
H1661 H 0.81736 0.41818 0.48985 0.0
H1662 H 0.83541 0.41343 0.54854 0.0
H1663 H 0.80614 0.39814 0.55131 0.0
H1664 H 0.83448 0.45228 0.51225 0.0
H1665 H 0.87204 0.39634 0.52055 0.0
H1666 H 0.84886 0.39074 0.51536 0.0
H1667 H 0.86006 0.40111 0.53956 0.0
C1668 C 0.79835 0.40556 0.505 0.0
C1669 C 0.79492 0.40022 0.5224 0.0
C1670 C 0.81503 0.41372 0.50327 0.0
C1671 C 0.82849 0.41682 0.51896 0.0
C1672 C 0.82521 0.41084 0.53617 0.0
H1673 H 0.93295 0.48504 0.53635 0.0
H1674 H 0.90543 0.46697 0.54148 0.0
C1675 C 0.80851 0.40236 0.5378 0.0
C1676 C 0.84542 0.42833 0.5179 0.0
H1677 H 0.88783 0.42786 0.52055 0.0
C1678 C 0.84614 0.44691 0.51401 0.0
C1679 C 0.86057 0.4213 0.5204 0.0
C1680 C 0.86039 0.40122 0.52404 0.0
C1681 C 0.86162 0.45866 0.51236 0.0
C1682 C 0.8767 0.45156 0.51459 0.0
C1683 C 0.87613 0.43315 0.51889 0.0
C1684 C 0.89308 0.46277 0.51166 0.0
C1685 C 0.86173 0.47858 0.50828 0.0
C1686 C 0.89504 0.46631 0.4932 0.0
C1687 C 0.91068 0.47649 0.4902 0.0
C1688 C 0.92459 0.48321 0.50562 0.0
C1689 C 0.92248 0.47984 0.52417 0.0
C1690 C 0.90683 0.4696 0.52714 0.0
H1691 H 0.85005 0.4835 0.51156 0.0
H1692 H 0.87323 0.48918 0.51686 0.0
H1693 H 0.86214 0.47838 0.49272 0.0
H1694 H 0.88456 0.46088 0.48106 0.0
H1695 H 0.91203 0.47857 0.4757 0.0
H1696 H 0.38184 0.09443 0.24045 0.0
H1697 H 0.36808 0.12188 0.23771 0.0
H1698 H 0.3507 0.11769 0.2917 0.0
H1699 H 0.36402 0.09057 0.29441 0.0
H1700 H 0.32502 0.12383 0.26611 0.0
H1701 H 0.38377 0.17834 0.26565 0.0
H1702 H 0.38017 0.1562 0.24836 0.0
H1703 H 0.3845 0.15599 0.27376 0.0
C1704 C 0.37505 0.09924 0.25174 0.0
C1705 C 0.37427 0.08974 0.26766 0.0
C1706 C 0.36723 0.11527 0.25027 0.0
C1707 C 0.35831 0.12255 0.26465 0.0
C1708 C 0.35733 0.11282 0.28027 0.0
H1709 H 0.33308 0.23863 0.28532 0.0
H1710 H 0.34602 0.21046 0.28401 0.0
C1711 C 0.3651 0.09701 0.28177 0.0
C1712 C 0.34977 0.13988 0.26371 0.0
H1713 H 0.35771 0.18838 0.26219 0.0
C1714 C 0.33224 0.1379 0.26514 0.0
C1715 C 0.35888 0.15869 0.26292 0.0
C1716 C 0.3779 0.16265 0.26275 0.0
C1717 C 0.32378 0.15359 0.26573 0.0
C1718 C 0.33275 0.17241 0.26441 0.0
C1719 C 0.35037 0.17435 0.26306 0.0
C1720 C 0.32447 0.19019 0.26502 0.0
C1721 C 0.30535 0.14966 0.26866 0.0
C1722 C 0.30786 0.18926 0.2547 0.0
C1723 C 0.30014 0.20546 0.25602 0.0
C1724 C 0.3089 0.22374 0.267 0.0
C1725 C 0.32575 0.225 0.27664 0.0
C1726 C 0.33326 0.20864 0.27583 0.0
H1727 H 0.30231 0.13711 0.27582 0.0
H1728 H 0.30242 0.16229 0.2776 0.0
H1729 H 0.29677 0.14611 0.25435 0.0
H1730 H 0.30071 0.17597 0.24533 0.0
H1731 H 0.28731 0.2037 0.24807 0.0
H1732 H 0.32265 0.14515 0.49812 0.0
H1733 H 0.34853 0.13339 0.50616 0.0
H1734 H 0.32345 0.0992 0.54293 0.0
H1735 H 0.29718 0.11068 0.53454 0.0
H1736 H 0.37012 0.13525 0.53943 0.0
H1737 H 0.33885 0.05876 0.5078 0.0
H1738 H 0.32848 0.07823 0.50433 0.0
H1739 H 0.32916 0.06954 0.5267 0.0
C1740 C 0.3226 0.13525 0.50806 0.0
C1741 C 0.30772 0.12881 0.51561 0.0
C1742 C 0.33748 0.1285 0.51265 0.0
C1743 C 0.33795 0.1151 0.52489 0.0
C1744 C 0.32333 0.10916 0.53306 0.0
H1745 H 0.41647 0.04974 0.55083 0.0
H1746 H 0.39209 0.06509 0.55214 0.0
C1747 C 0.30833 0.11583 0.52836 0.0
C1748 C 0.35362 0.10712 0.52852 0.0
H1749 H 0.36791 0.06529 0.52243 0.0
C1750 C 0.36961 0.11993 0.53578 0.0
C1751 C 0.35306 0.08713 0.52376 0.0
C1752 C 0.33651 0.0726 0.51505 0.0
C1753 C 0.38495 0.11336 0.53839 0.0
C1754 C 0.38441 0.09339 0.53331 0.0
C1755 C 0.36839 0.08057 0.52641 0.0
C1756 C 0.40025 0.08547 0.53418 0.0
C1757 C 0.40155 0.12791 0.54675 0.0
C1758 C 0.41317 0.09186 0.52383 0.0
C1759 C 0.42728 0.08326 0.52326 0.0
C1760 C 0.42876 0.0678 0.53278 0.0
C1761 C 0.41598 0.06172 0.5435 0.0
C1762 C 0.4019 0.07041 0.54414 0.0
H1763 H 0.39928 0.14102 0.55561 0.0
H1764 H 0.41054 0.12175 0.55586 0.0
H1765 H 0.40779 0.13242 0.53475 0.0
H1766 H 0.41212 0.10314 0.51566 0.0
H1767 H 0.43691 0.08857 0.51505 0.0
H1768 H 0.68912 0.59514 0.33357 0.0
H1769 H 0.70641 0.62313 0.32482 0.0
H1770 H 0.67218 0.61273 0.27016 0.0
H1771 H 0.6546 0.58468 0.27883 0.0
H1772 H 0.72281 0.62251 0.29185 0.0
H1773 H 0.6766 0.67061 0.29183 0.0
H1774 H 0.6739 0.64987 0.30331 0.0
H1775 H 0.6692 0.64671 0.27744 0.0
C1776 C 0.68512 0.59884 0.31974 0.0
C1777 C 0.67041 0.58764 0.30694 0.0
C1778 C 0.69506 0.61485 0.31476 0.0
C1779 C 0.69049 0.6201 0.29694 0.0
C1780 C 0.67577 0.60911 0.28413 0.0
H1781 H 0.7456 0.71956 0.25583 0.0
H1782 H 0.72416 0.69091 0.25777 0.0
C1783 C 0.66578 0.59304 0.2891 0.0
C1784 C 0.70168 0.63667 0.29168 0.0
H1785 H 0.7039 0.68288 0.28494 0.0
C1786 C 0.71865 0.63568 0.29023 0.0
C1787 C 0.69612 0.65369 0.28924 0.0
C1788 C 0.678 0.65546 0.29062 0.0
C1789 C 0.73039 0.65143 0.28696 0.0
C1790 C 0.72513 0.66885 0.28563 0.0
C1791 C 0.70794 0.66958 0.28619 0.0
C1792 C 0.73757 0.68668 0.28473 0.0
C1793 C 0.74832 0.64924 0.28498 0.0
C1794 C 0.75191 0.69411 0.29952 0.0
C1795 C 0.76413 0.71034 0.2984 0.0
C1796 C 0.76212 0.71961 0.28261 0.0
C1797 C 0.74743 0.71266 0.26817 0.0
C1798 C 0.73522 0.6963 0.26924 0.0
H1799 H 0.74861 0.63391 0.28 0.0
H1800 H 0.75359 0.6578 0.27463 0.0
H1801 H 0.75683 0.65438 0.2993 0.0
H1802 H 0.75373 0.68725 0.31188 0.0
H1803 H 0.77524 0.71554 0.30983 0.0
H1804 H 0.85129 0.49084 0.78022 0.0
H1805 H 0.83825 0.4566 0.77697 0.0
H1806 H 0.87797 0.44165 0.74689 0.0
H1807 H 0.89107 0.47612 0.74993 0.0
H1808 H 0.82563 0.42503 0.74402 0.0
H1809 H 0.88045 0.41243 0.793 0.0
H1810 H 0.87733 0.43634 0.79173 0.0
H1811 H 0.88555 0.42328 0.77284 0.0
C1812 C 0.8572 0.48036 0.77262 0.0
C1813 C 0.87234 0.48658 0.76532 0.0
C1814 C 0.84967 0.46061 0.7708 0.0
C1815 C 0.85711 0.44619 0.76193 0.0
C1816 C 0.87195 0.45228 0.75405 0.0
H1817 H 0.80825 0.32002 0.73672 0.0
H1818 H 0.82199 0.35273 0.73365 0.0
C1819 C 0.87938 0.47213 0.75562 0.0
C1820 C 0.84957 0.42503 0.76159 0.0
H1821 H 0.85738 0.3858 0.78026 0.0
C1822 C 0.83269 0.41645 0.75181 0.0
C1823 C 0.85849 0.41357 0.77188 0.0
C1824 C 0.87641 0.42179 0.78311 0.0
C1825 C 0.82467 0.3971 0.75201 0.0
C1826 C 0.83357 0.38569 0.7624 0.0
C1827 C 0.85044 0.39427 0.77218 0.0
C1828 C 0.82534 0.36527 0.76407 0.0
C1829 C 0.80646 0.38914 0.74154 0.0
C1830 C 0.82276 0.36086 0.78219 0.0
C1831 C 0.81484 0.3421 0.78399 0.0
C1832 C 0.80932 0.32686 0.76776 0.0
C1833 C 0.81217 0.33119 0.74962 0.0
C1834 C 0.82001 0.35006 0.74782 0.0
H1835 H 0.8003 0.4006 0.73706 0.0
H1836 H 0.80641 0.37854 0.72836 0.0
H1837 H 0.79862 0.38154 0.75084 0.0
H1838 H 0.82668 0.37209 0.79504 0.0
H1839 H 0.81298 0.33958 0.79823 0.0
H1840 H 0.02039 0.82643 0.08683 0.0
H1841 H 0.02259 0.85439 0.07164 0.0
H1842 H 0.07641 0.8727 0.09602 0.0
H1843 H 0.07436 0.8445 0.11191 0.0
H1844 H 0.04065 0.89746 0.0986 0.0
H1845 H 0.06313 0.87162 0.03055 0.0
H1846 H 0.04977 0.85505 0.04174 0.0
H1847 H 0.07155 0.86557 0.05312 0.0
C1848 C 0.03286 0.83614 0.08892 0.0
C1849 C 0.04723 0.83308 0.1008 0.0
C1850 C 0.03403 0.8522 0.08014 0.0
C1851 C 0.04961 0.86563 0.08271 0.0
C1852 C 0.06423 0.86244 0.09387 0.0
H1853 H 0.06545 0.97288 0.03669 0.0
H1854 H 0.07031 0.94476 0.05021 0.0
C1855 C 0.06306 0.84629 0.10288 0.0
C1856 C 0.04997 0.88341 0.07452 0.0
H1857 H 0.05545 0.90177 0.03377 0.0
C1858 C 0.04413 0.89855 0.08456 0.0
C1859 C 0.05424 0.88464 0.05608 0.0
C1860 C 0.06003 0.86841 0.04459 0.0
C1861 C 0.04229 0.9148 0.07655 0.0
C1862 C 0.04625 0.91589 0.05793 0.0
C1863 C 0.05246 0.90094 0.04805 0.0
C1864 C 0.04337 0.93217 0.04835 0.0
C1865 C 0.03592 0.93064 0.08796 0.0
C1866 C 0.02661 0.93419 0.04236 0.0
C1867 C 0.02378 0.95012 0.0345 0.0
C1868 C 0.03766 0.9645 0.03253 0.0
C1869 C 0.05446 0.96215 0.03803 0.0
C1870 C 0.05727 0.94607 0.04575 0.0
H1871 H 0.03678 0.92957 0.10346 0.0
H1872 H 0.04338 0.94501 0.08694 0.0
H1873 H 0.02227 0.92961 0.08185 0.0
H1874 H 0.01569 0.92356 0.04408 0.0
H1875 H 0.01067 0.95141 0.03047 0.0
H1876 H 0.96872 0.27604 0.85833 0.0
H1877 H 0.94044 0.27997 0.8443 0.0
H1878 H 0.91654 0.24179 0.87848 0.0
H1879 H 0.94474 0.23766 0.89245 0.0
H1880 H 0.90178 0.23215 0.83933 0.0
H1881 H 0.90702 0.3098 0.86731 0.0
H1882 H 0.92464 0.30459 0.85607 0.0
H1883 H 0.92109 0.29618 0.87794 0.0
C1884 C 0.95748 0.26867 0.86308 0.0
C1885 C 0.95908 0.25658 0.87661 0.0
C1886 C 0.94128 0.27102 0.8551 0.0
C1887 C 0.92629 0.26139 0.8605 0.0
C1888 C 0.92788 0.24949 0.87416 0.0
H1889 H 0.82086 0.27509 0.81915 0.0
H1890 H 0.84755 0.27471 0.84074 0.0
C1891 C 0.94406 0.24718 0.88219 0.0
C1892 C 0.90894 0.26262 0.85089 0.0
H1893 H 0.88345 0.29413 0.84193 0.0
C1894 C 0.89774 0.24569 0.84008 0.0
C1895 C 0.90349 0.28023 0.85198 0.0
C1896 C 0.91459 0.29873 0.86408 0.0
C1897 C 0.8816 0.24597 0.82981 0.0
C1898 C 0.87645 0.26369 0.83016 0.0
C1899 C 0.88736 0.28055 0.84156 0.0
C1900 C 0.86046 0.26503 0.81753 0.0
C1901 C 0.87025 0.22722 0.81846 0.0
C1902 C 0.85896 0.26022 0.79738 0.0
C1903 C 0.84389 0.26043 0.7852 0.0
C1904 C 0.82983 0.26559 0.79273 0.0
C1905 C 0.83142 0.27102 0.81291 0.0
C1906 C 0.84667 0.27079 0.82522 0.0
H1907 H 0.8736 0.21464 0.82402 0.0
H1908 H 0.85651 0.22691 0.81893 0.0
H1909 H 0.87199 0.22564 0.80312 0.0
H1910 H 0.86947 0.25611 0.79103 0.0
H1911 H 0.84323 0.25633 0.76973 0.0
H1912 H 0.56683 0.24094 0.61634 0.0
H1913 H 0.57008 0.20919 0.60141 0.0
H1914 H 0.5198 0.19839 0.56648 0.0
H1915 H 0.51652 0.23019 0.58105 0.0
H1916 H 0.55032 0.17447 0.60303 0.0
H1917 H 0.54792 0.18201 0.52653 0.0
H1918 H 0.55118 0.20249 0.54602 0.0
H1919 H 0.52991 0.18816 0.53623 0.0
C1920 C 0.55654 0.23195 0.60528 0.0
C1921 C 0.54141 0.23821 0.5999 0.0
C1922 C 0.55843 0.21377 0.59678 0.0
C1923 C 0.5453 0.20149 0.58263 0.0
C1924 C 0.53028 0.20777 0.57703 0.0
H1925 H 0.5139 0.08324 0.52905 0.0
H1926 H 0.51817 0.11777 0.54086 0.0
C1927 C 0.52839 0.22596 0.58549 0.0
C1928 C 0.54676 0.18162 0.57471 0.0
H1929 H 0.54338 0.14973 0.53252 0.0
C1930 C 0.54909 0.16915 0.58764 0.0
C1931 C 0.54517 0.17468 0.55461 0.0
C1932 C 0.54358 0.18759 0.54006 0.0
C1933 C 0.54911 0.14973 0.58097 0.0
C1934 C 0.54694 0.14267 0.56086 0.0
C1935 C 0.54508 0.15523 0.54795 0.0
C1936 C 0.54503 0.12192 0.55292 0.0
C1937 C 0.55068 0.13666 0.59537 0.0
C1938 C 0.55884 0.11285 0.55552 0.0
C1939 C 0.55648 0.09299 0.54866 0.0
C1940 C 0.54022 0.08194 0.53928 0.0
C1941 C 0.52656 0.09125 0.5364 0.0
C1942 C 0.52897 0.11102 0.54306 0.0
H1943 H 0.54994 0.14374 0.61021 0.0
H1944 H 0.54039 0.1233 0.59092 0.0
H1945 H 0.5632 0.13241 0.5958 0.0
H1946 H 0.57139 0.1211 0.56298 0.0
H1947 H 0.56725 0.08625 0.55109 0.0
H1948 H 0.55083 0.73248 0.35037 0.0
H1949 H 0.57924 0.74201 0.34236 0.0
H1950 H 0.59283 0.78865 0.39186 0.0
H1951 H 0.56428 0.77885 0.4003 0.0
H1952 H 0.59391 0.77563 0.3329 0.0
H1953 H 0.63396 0.76425 0.39851 0.0
H1954 H 0.61097 0.75532 0.39315 0.0
H1955 H 0.61997 0.78048 0.40257 0.0
C1956 C 0.55984 0.7447 0.35971 0.0
C1957 C 0.55521 0.75483 0.37604 0.0
C1958 C 0.57614 0.75017 0.35506 0.0
C1959 C 0.58833 0.76596 0.36655 0.0
C1960 C 0.58382 0.77618 0.38294 0.0
H1961 H 0.69201 0.80433 0.33794 0.0
H1962 H 0.66649 0.8049 0.35317 0.0
C1963 C 0.56744 0.77062 0.3877 0.0
C1964 C 0.60543 0.77164 0.36072 0.0
H1965 H 0.64835 0.77375 0.3738 0.0
C1966 C 0.60581 0.77539 0.34196 0.0
C1967 C 0.62108 0.77161 0.37257 0.0
C1968 C 0.62158 0.76758 0.39278 0.0
C1969 C 0.62114 0.77821 0.33447 0.0
C1970 C 0.63656 0.77709 0.3459 0.0
C1971 C 0.63646 0.77446 0.36502 0.0
C1972 C 0.65241 0.77675 0.33747 0.0
C1973 C 0.62071 0.78189 0.31415 0.0
C1974 C 0.65304 0.76066 0.32381 0.0
C1975 C 0.66754 0.76024 0.31517 0.0
C1976 C 0.6818 0.77596 0.31992 0.0
C1977 C 0.68123 0.79202 0.33383 0.0
C1978 C 0.6667 0.79235 0.34262 0.0
H1979 H 0.6089 0.78659 0.30884 0.0
H1980 H 0.63209 0.79307 0.31338 0.0
H1981 H 0.62103 0.76842 0.3043 0.0
H1982 H 0.64218 0.74843 0.31968 0.0
H1983 H 0.66738 0.74776 0.30435 0.0
H1984 H 0.02838 0.23359 0.39013 0.0
H1985 H 0.02835 0.20795 0.40878 0.0
H1986 H 0.99135 0.22856 0.44013 0.0
H1987 H 0.99082 0.25381 0.42101 0.0
H1988 H 0.03281 0.2033 0.44657 0.0
H1989 H 0.96481 0.17569 0.41019 0.0
H1990 H 0.9789 0.19537 0.40363 0.0
H1991 H 0.96906 0.19944 0.42467 0.0
C1992 C 0.02063 0.23299 0.4014 0.0
C1993 C 0.00925 0.24525 0.40386 0.0
C1994 C 0.02059 0.21834 0.41198 0.0
C1995 C 0.00937 0.21607 0.42523 0.0
C1996 C 0.99966 0.22981 0.42945 0.0
H1997 H 0.98966 0.13354 0.49668 0.0
H1998 H 0.98801 0.15923 0.47853 0.0
C1999 C 0.99944 0.24423 0.41865 0.0
C2000 C 0.00638 0.1982 0.43287 0.0
H2001 H 0.97542 0.15856 0.43322 0.0
C2002 C 0.0203 0.1935 0.44365 0.0
C2003 C 0.99004 0.18535 0.42864 0.0
C2004 C 0.97488 0.18908 0.41599 0.0
C2005 C 0.01821 0.17637 0.45075 0.0
C2006 C 1.00181 0.16382 0.44688 0.0
C2007 C 0.98792 0.16838 0.43603 0.0
C2008 C 0.99889 0.14634 0.45498 0.0
C2009 C 0.03342 0.17181 0.46252 0.0
C2010 C 0.00463 0.13026 0.44696 0.0
C2011 C 0.0054 0.11542 0.45715 0.0
C2012 C 1.0006 0.11674 0.4755 0.0
C2013 C 0.99335 0.13207 0.48254 0.0
C2014 C 0.99248 0.14681 0.47228 0.0
H2015 H 0.04489 0.18395 0.46573 0.0
H2016 H 0.03015 0.16827 0.47638 0.0
H2017 H 0.03677 0.15897 0.45442 0.0
H2018 H 0.0095 0.12979 0.43348 0.0
H2019 H 0.01073 0.10355 0.45127 0.0
H2020 H 0.6046 0.29992 0.23252 0.0
H2021 H 0.63294 0.29459 0.24452 0.0
H2022 H 0.62331 0.24288 0.20092 0.0
H2023 H 0.59528 0.24813 0.1887 0.0
H2024 H 0.63696 0.2596 0.25809 0.0
H2025 H 0.67169 0.27243 0.19741 0.0
H2026 H 0.65267 0.28132 0.20076 0.0
H2027 H 0.65086 0.25642 0.19045 0.0
C2028 C 0.60869 0.28765 0.22529 0.0
C2029 C 0.59775 0.27436 0.20981 0.0
C2030 C 0.62478 0.2846 0.23218 0.0
C2031 C 0.63004 0.2684 0.22349 0.0
C2032 C 0.61943 0.25556 0.2076 0.0
H2033 H 0.72461 0.23072 0.24546 0.0
H2034 H 0.69383 0.228 0.23592 0.0
C2035 C 0.60342 0.25856 0.20074 0.0
C2036 C 0.64614 0.26406 0.23175 0.0
H2037 H 0.68513 0.25888 0.22177 0.0
C2038 C 0.64755 0.25946 0.25023 0.0
C2039 C 0.65965 0.26362 0.22118 0.0
C2040 C 0.65877 0.26885 0.20141 0.0
C2041 C 0.66239 0.25453 0.2586 0.0
C2042 C 0.67605 0.25449 0.2482 0.0
C2043 C 0.67446 0.25869 0.22954 0.0
C2044 C 0.69299 0.25275 0.25715 0.0
C2045 C 0.66338 0.2495 0.27845 0.0
C2046 C 0.70236 0.26715 0.27266 0.0
C2047 C 0.71985 0.26879 0.27808 0.0
C2048 C 0.72818 0.25617 0.26788 0.0
C2049 C 0.71851 0.24076 0.25342 0.0
C2050 C 0.70096 0.23912 0.24801 0.0
H2051 H 0.65039 0.24396 0.28155 0.0
H2052 H 0.67115 0.23855 0.27998 0.0
H2053 H 0.66953 0.26267 0.28948 0.0
H2054 H 0.69644 0.278 0.27961 0.0
H2055 H 0.72698 0.28064 0.28948 0.0
H2056 H 0.47449 0.83365 0.88669 0.0
H2057 H 0.48116 0.8637 0.91051 0.0
H2058 H 0.53319 0.85737 0.92539 0.0
H2059 H 0.52676 0.82772 0.90095 0.0
H2060 H 0.4902 0.86727 0.94844 0.0
H2061 H 0.54162 0.91293 0.92089 0.0
H2062 H 0.52864 0.89053 0.90658 0.0
H2063 H 0.54623 0.89046 0.92508 0.0
C2064 C 0.48743 0.83888 0.8948 0.0
C2065 C 0.50013 0.82846 0.89196 0.0
C2066 C 0.49122 0.85599 0.90842 0.0
C2067 C 0.5077 0.86284 0.91963 0.0
C2068 C 0.52051 0.85261 0.9166 0.0
H2069 H 0.52725 0.9496 0.02663 0.0
H2070 H 0.52246 0.91882 0.00393 0.0
C2071 C 0.51681 0.83566 0.90267 0.0
C2072 C 0.51098 0.88003 0.93524 0.0
H2073 H 0.53578 0.92541 0.95156 0.0
C2074 C 0.50016 0.88 0.94912 0.0
C2075 C 0.52403 0.89657 0.9361 0.0
C2076 C 0.5357 0.89775 0.92128 0.0
C2077 C 0.50175 0.89623 0.96357 0.0
C2078 C 0.51475 0.91273 0.9644 0.0
C2079 C 0.52584 0.91264 0.95084 0.0
C2080 C 0.51642 0.93073 0.97842 0.0
C2081 C 0.48912 0.89584 0.97737 0.0
C2082 C 0.51446 0.94746 0.97155 0.0
C2083 C 0.51726 0.96493 0.98439 0.0
C2084 C 0.52206 0.966 0.00435 0.0
C2085 C 0.52339 0.94911 0.01133 0.0
C2086 C 0.52067 0.93157 0.9984 0.0
H2087 H 0.47777 0.88364 0.97223 0.0
H2088 H 0.49552 0.89424 0.99167 0.0
H2089 H 0.48462 0.90951 0.97939 0.0
H2090 H 0.51118 0.94707 0.95618 0.0
H2091 H 0.5164 0.97774 0.97856 0.0
H2092 H 0.01083 0.73184 0.73054 0.0
H2093 H 0.98538 0.7311 0.74566 0.0
H2094 H 0.95834 0.74471 0.69482 0.0
H2095 H 0.98365 0.74557 0.67963 0.0
H2096 H 0.97442 0.76675 0.75088 0.0
H2097 H 0.92154 0.70554 0.71207 0.0
H2098 H 0.94393 0.70552 0.71188 0.0
H2099 H 0.93296 0.71835 0.69639 0.0
C2100 C 0.99924 0.7339 0.72227 0.0
C2101 C 0.99925 0.73902 0.70401 0.0
C2102 C 0.98476 0.73351 0.73096 0.0
C2103 C 0.97008 0.73782 0.72131 0.0
C2104 C 0.96951 0.74108 0.70235 0.0
H2105 H 0.88402 0.78318 0.73539 0.0
H2106 H 0.90799 0.76999 0.72602 0.0
C2107 C 0.98402 0.74164 0.69372 0.0
C2108 C 0.95665 0.7425 0.73202 0.0
H2109 H 0.91335 0.73268 0.72971 0.0
C2110 C 0.96109 0.75906 0.74667 0.0
C2111 C 0.93937 0.7325 0.72621 0.0
C2112 C 0.93415 0.71438 0.71088 0.0
C2113 C 0.94846 0.76662 0.75487 0.0
C2114 C 0.93108 0.75705 0.74846 0.0
C2115 C 0.92674 0.73994 0.73452 0.0
C2116 C 0.91709 0.76549 0.75464 0.0
C2117 C 0.95366 0.78538 0.76937 0.0
C2118 C 0.91452 0.76747 0.77388 0.0
C2119 C 0.90087 0.77507 0.77929 0.0
C2120 C 0.88961 0.78057 0.76545 0.0
C2121 C 0.89243 0.77883 0.74627 0.0
C2122 C 0.90607 0.77132 0.74091 0.0
H2123 H 0.96736 0.7925 0.77036 0.0
H2124 H 0.94559 0.79547 0.76545 0.0
H2125 H 0.9517 0.78258 0.78388 0.0
H2126 H 0.92286 0.76282 0.78459 0.0
H2127 H 0.89882 0.7761 0.79412 0.0
H2128 H 0.08988 0.05472 0.83643 0.0
H2129 H 0.07594 0.05051 0.86435 0.0
H2130 H 0.12067 0.03522 0.89274 0.0
H2131 H 0.13471 0.03927 0.86491 0.0
H2132 H 0.07144 0.01232 0.87618 0.0
H2133 H 0.10609 0.07379 0.93506 0.0
H2134 H 0.10541 0.07476 0.90973 0.0
H2135 H 0.11914 0.06153 0.9212 0.0
C2136 C 0.09698 0.05104 0.84885 0.0
C2137 C 0.11338 0.04726 0.84846 0.0
C2138 C 0.08895 0.04855 0.86472 0.0
C2139 C 0.09732 0.04258 0.8805 0.0
C2140 C 0.11411 0.04003 0.88072 0.0
H2141 H 0.07152 0.00895 0.98557 0.0
H2142 H 0.08552 0.01706 0.95866 0.0
C2143 C 0.1221 0.04237 0.86481 0.0
C2144 C 0.08792 0.03697 0.89577 0.0
H2145 H 0.08711 0.04851 0.94391 0.0
C2146 C 0.07472 0.02026 0.89099 0.0
C2147 C 0.09247 0.0473 0.91499 0.0
C2148 C 0.10647 0.06544 0.92064 0.0
C2149 C 0.06614 0.01329 0.90514 0.0
C2150 C 0.07062 0.02368 0.92445 0.0
C2151 C 0.08373 0.04054 0.92912 0.0
C2152 C 0.06195 0.01738 0.9401 0.0
C2153 C 0.05282 0.99455 0.89934 0.0
C2154 C 0.04408 0.01476 0.93857 0.0
C2155 C 0.0361 0.0097 0.95377 0.0
C2156 C 0.04591 0.00758 0.97086 0.0
C2157 C 0.06373 0.01027 0.97247 0.0
C2158 C 0.0717 0.01499 0.95713 0.0
H2159 H 0.05481 0.9856 0.88595 0.0
H2160 H 0.05301 0.986 0.91099 0.0
H2161 H 0.0399 0.9977 0.89636 0.0
H2162 H 0.03635 0.01713 0.92584 0.0
H2163 H 0.02233 0.00815 0.95249 0.0
H2164 H 0.7356 0.33642 0.57405 0.0
H2165 H 0.75133 0.32222 0.59764 0.0
H2166 H 0.76913 0.2891 0.55168 0.0
H2167 H 0.7534 0.30327 0.52814 0.0
H2168 H 0.76001 0.2859 0.60483 0.0
H2169 H 0.8101 0.33614 0.57962 0.0
H2170 H 0.78749 0.33536 0.57351 0.0
H2171 H 0.7965 0.31695 0.56139 0.0
C2172 C 0.74163 0.32488 0.56887 0.0
C2173 C 0.74353 0.321 0.54947 0.0
C2174 C 0.7509 0.31706 0.58237 0.0
C2175 C 0.76177 0.30522 0.57628 0.0
C2176 C 0.76093 0.29844 0.55654 0.0
H2177 H 0.8285 0.26969 0.65728 0.0
H2178 H 0.82169 0.27694 0.6254 0.0
C2179 C 0.75163 0.30621 0.54308 0.0
C2180 C 0.77635 0.30368 0.59025 0.0
H2181 H 0.81942 0.32195 0.60559 0.0
C2182 C 0.77305 0.29343 0.60485 0.0
C2183 C 0.79321 0.31418 0.59037 0.0
C2184 C 0.79712 0.32643 0.57551 0.0
C2185 C 0.78621 0.29338 0.61979 0.0
C2186 C 0.80313 0.30366 0.61983 0.0
C2187 C 0.80649 0.31385 0.60516 0.0
C2188 C 0.8169 0.3048 0.63607 0.0
C2189 C 0.78175 0.28318 0.63598 0.0
C2190 C 0.81909 0.31945 0.65233 0.0
C2191 C 0.8234 0.31551 0.67071 0.0
C2192 C 0.82464 0.29666 0.67252 0.0
C2193 C 0.82696 0.28411 0.65631 0.0
C2194 C 0.82298 0.28819 0.63795 0.0
H2195 H 0.76785 0.2764 0.6339 0.0
H2196 H 0.78907 0.27178 0.63707 0.0
H2197 H 0.78527 0.29365 0.64989 0.0
H2198 H 0.81478 0.33258 0.65103 0.0
H2199 H 0.82233 0.32576 0.68315 0.0
H2200 H 0.43682 0.06552 0.33283 0.0
H2201 H 0.45198 0.06258 0.36416 0.0
H2202 H 0.44988 1.00283 0.34152 0.0
H2203 H 0.4363 0.00646 0.30972 0.0
H2204 H 0.44789 0.04727 0.39176 0.0
H2205 H 0.49725 0.01249 0.36425 0.0
H2206 H 0.48255 0.02134 0.34847 0.0
H2207 H 0.47623 0.99792 0.35467 0.0
C2208 C 0.4397 0.05176 0.33449 0.0
C2209 C 0.43541 0.03632 0.31847 0.0
C2210 C 0.44844 0.05002 0.35261 0.0
C2211 C 0.45292 0.03259 0.3557 0.0
C2212 C 0.44772 0.01684 0.33985 0.0
H2213 H 0.49298 1.00274 0.4688 0.0
H2214 H 0.47534 1.00317 0.4376 0.0
C2215 C 0.43958 0.01881 0.32151 0.0
C2216 C 0.4627 0.03104 0.37539 0.0
H2217 H 0.4956 0.01339 0.39738 0.0
C2218 C 0.45833 0.03986 0.39273 0.0
C2219 C 0.47665 0.02156 0.37745 0.0
C2220 C 0.48356 0.01298 0.36023 0.0
C2221 C 0.46715 0.0394 0.41137 0.0
C2222 C 0.48068 0.02957 0.41329 0.0
C2223 C 0.48509 0.02069 0.39615 0.0
C2224 C 0.49104 0.0294 0.43285 0.0
C2225 C 0.46215 0.04976 0.42911 0.0
C2226 C 0.50582 0.04397 0.441 0.0
C2227 C 0.51593 0.04371 0.45882 0.0
C2228 C 0.51169 0.02892 0.46933 0.0
C2229 C 0.49671 0.01445 0.46135 0.0
C2230 C 0.4866 0.01466 0.44337 0.0
H2231 H 0.45096 0.05617 0.42551 0.0
H2232 H 0.45905 0.03963 0.439 0.0
H2233 H 0.47319 0.06144 0.43704 0.0
H2234 H 0.50967 0.05556 0.43344 0.0
H2235 H 0.52728 0.05515 0.46433 0.0
H2236 H 0.75159 0.68183 0.04906 0.0
H2237 H 0.74886 0.69797 0.08119 0.0
H2238 H 0.80399 0.71624 0.09636 0.0
H2239 H 0.80677 0.70091 0.06422 0.0
H2240 H 0.75932 0.69087 0.11535 0.0
H2241 H 0.79164 0.76575 0.11506 0.0
H2242 H 0.7857 0.7474 0.09335 0.0
H2243 H 0.80538 0.74959 0.10985 0.0
C2244 C 0.76311 0.68951 0.05917 0.0
C2245 C 0.77939 0.69017 0.05398 0.0
C2246 C 0.76154 0.69874 0.07754 0.0
C2247 C 0.77619 0.70872 0.09115 0.0
C2248 C 0.79244 0.70926 0.08599 0.0
H2249 H 0.80474 0.75383 0.21273 0.0
H2250 H 0.80252 0.74291 0.17799 0.0
C2251 C 0.79401 0.70031 0.06758 0.0
C2252 C 0.77466 0.7174 0.11115 0.0
H2253 H 0.78903 0.75799 0.14638 0.0
C2254 C 0.76559 0.70564 0.12202 0.0
C2255 C 0.78279 0.73673 0.11993 0.0
C2256 C 0.79176 0.75063 0.10885 0.0
C2257 C 0.7651 0.71234 0.14157 0.0
C2258 C 0.77381 0.73139 0.15052 0.0
C2259 C 0.78245 0.74335 0.13954 0.0
C2260 C 0.77491 0.73882 0.1715 0.0
C2261 C 0.75585 0.69872 0.15272 0.0
C2262 C 0.76014 0.7405 0.1794 0.0
C2263 C 0.76134 0.74671 0.19935 0.0
C2264 C 0.77736 0.75147 0.21176 0.0
C2265 C 0.79217 0.75024 0.20367 0.0
C2266 C 0.79094 0.74402 0.18378 0.0
H2267 H 0.75287 0.68351 0.14489 0.0
H2268 H 0.76363 0.69975 0.16716 0.0
H2269 H 0.74356 0.70267 0.15496 0.0
H2270 H 0.74766 0.73692 0.17015 0.0
H2271 H 0.74969 0.74762 0.20503 0.0
H2272 H 0.11705 0.04817 0.7369 0.0
H2273 H 0.10448 0.04848 0.70375 0.0
H2274 H 0.07167 0.99253 0.69978 0.0
H2275 H 0.08405 0.9921 0.73308 0.0
H2276 H 0.10373 0.02104 0.66996 0.0
H2277 H 0.03855 0.02688 0.68368 0.0
H2278 H 0.05696 0.03207 0.70285 0.0
H2279 H 0.04641 0.00754 0.69224 0.0
C2280 C 0.10715 0.03592 0.72901 0.0
C2281 C 0.10145 0.02014 0.7376 0.0
C2282 C 0.10001 0.03615 0.7101 0.0
C2283 C 0.08704 0.02067 0.69957 0.0
C2284 C 0.08149 1.00474 0.70792 0.0
H2285 H 0.04233 0.99151 0.57887 0.0
H2286 H 0.05313 0.99131 0.61266 0.0
C2287 C 0.08863 1.00449 0.72686 0.0
C2288 C 0.07959 0.02109 0.67965 0.0
H2289 H 0.04245 0.0223 0.65092 0.0
C2290 C 0.09035 0.02135 0.66577 0.0
C2291 C 0.06218 0.02165 0.67443 0.0
C2292 C 0.05034 0.02219 0.68908 0.0
C2293 C 0.08401 0.02185 0.64659 0.0
C2294 C 0.06658 0.0221 0.64137 0.0
C2295 C 0.05583 0.02201 0.6552 0.0
C2296 C 0.05935 0.02233 0.62142 0.0
C2297 C 0.09587 0.0221 0.63195 0.0
C2298 C 0.05926 0.03991 0.61552 0.0
C2299 C 0.05316 0.04013 0.59628 0.0
C2300 C 0.04711 0.02274 0.58279 0.0
C2301 C 0.047 1.00514 0.58892 0.0
C2302 C 0.05308 1.00496 0.60816 0.0
H2303 H 0.10921 0.02216 0.63846 0.0
H2304 H 0.09103 0.00927 0.62013 0.0
H2305 H 0.09603 0.03507 0.62534 0.0
H2306 H 0.06414 0.05341 0.62575 0.0
H2307 H 0.05337 0.0539 0.59197 0.0
H2308 H 0.76649 0.35872 0.46445 0.0
H2309 H 0.76357 0.34243 0.4309 0.0
H2310 H 0.76554 0.28883 0.44996 0.0
H2311 H 0.76935 0.3055 0.48379 0.0
H2312 H 0.78673 0.29614 0.42566 0.0
H2313 H 0.72336 0.30709 0.39468 0.0
H2314 H 0.73769 0.32939 0.40672 0.0
H2315 H 0.73091 0.31123 0.42044 0.0
C2316 C 0.76635 0.34346 0.46135 0.0
C2317 C 0.76831 0.33323 0.47635 0.0
C2318 C 0.76437 0.33414 0.44228 0.0
C2319 C 0.76381 0.31436 0.43802 0.0
C2320 C 0.76575 0.30409 0.45308 0.0
H2321 H 0.7551 0.24371 0.32507 0.0
H2322 H 0.74835 0.2573 0.3562 0.0
C2323 C 0.7681 0.31356 0.47226 0.0
C2324 C 0.76308 0.30497 0.41796 0.0
H2325 H 0.74171 0.29924 0.37182 0.0
C2326 C 0.77671 0.2965 0.41395 0.0
C2327 C 0.74998 0.30556 0.40277 0.0
C2328 C 0.73458 0.31365 0.40641 0.0
C2329 C 0.77797 0.28919 0.39499 0.0
C2330 C 0.76538 0.29066 0.3798 0.0
C2331 C 0.75139 0.29847 0.3837 0.0
C2332 C 0.76696 0.2842 0.35979 0.0
C2333 C 0.79294 0.2803 0.39123 0.0
C2334 C 0.77939 0.29518 0.35169 0.0
C2335 C 0.78341 0.28742 0.33419 0.0
C2336 C 0.77497 0.26868 0.32471 0.0
C2337 C 0.76192 0.2581 0.33238 0.0
C2338 C 0.7579 0.26588 0.34991 0.0
H2339 H 0.8 0.27752 0.40467 0.0
H2340 H 0.78847 0.26651 0.3806 0.0
H2341 H 0.80202 0.29023 0.38499 0.0
H2342 H 0.78649 0.30935 0.35937 0.0
H2343 H 0.79342 0.29584 0.32836 0.0
H2344 H 0.44348 1.00079 0.20682 0.0
H2345 H 0.45591 0.99938 0.17736 0.0
H2346 H 0.44282 0.05298 0.16941 0.0
H2347 H 0.43018 0.05443 0.19917 0.0
H2348 H 0.44371 0.99747 0.13896 0.0
H2349 H 0.4937 0.06486 0.16537 0.0
H2350 H 0.48119 0.05343 0.18122 0.0
H2351 H 0.47208 0.06758 0.16574 0.0
C2352 C 0.44307 0.01233 0.19886 0.0
C2353 C 0.43566 0.02777 0.2058 0.0
C2354 C 0.45028 0.01147 0.18178 0.0
C2355 C 0.45079 0.02617 0.17085 0.0
C2356 C 0.44307 0.04148 0.17746 0.0
H2357 H 0.47958 0.01236 0.05217 0.0
H2358 H 0.4638 0.01469 0.07932 0.0
C2359 C 0.43559 0.04224 0.19454 0.0
C2360 C 0.45947 0.02525 0.15287 0.0
H2361 H 0.49234 0.04895 0.13331 0.0
C2362 C 0.45426 0.00886 0.13777 0.0
C2363 C 0.47357 0.03975 0.15097 0.0
C2364 C 0.48063 0.05734 0.16671 0.0
C2365 C 0.46242 0.0067 0.12123 0.0
C2366 C 0.47637 0.02134 0.11918 0.0
C2367 C 0.48166 0.03765 0.13437 0.0
C2368 C 0.48601 0.01975 0.10197 0.0
C2369 C 0.45627 0.98829 0.10635 0.0
C2370 C 0.50404 0.02213 0.10494 0.0
C2371 C 0.51317 0.02082 0.08928 0.0
C2372 C 0.50476 0.01722 0.06979 0.0
C2373 C 0.48671 0.01495 0.06676 0.0
C2374 C 0.47756 0.01619 0.08248 0.0
H2375 H 0.44902 0.97653 0.11234 0.0
H2376 H 0.44755 0.99084 0.094 0.0
H2377 H 0.46719 0.9834 0.10077 0.0
H2378 H 0.51119 0.02494 0.11955 0.0
H2379 H 0.52698 0.02284 0.09256 0.0
H2380 H 0.75069 0.67042 0.93993 0.0
H2381 H 0.75049 0.68644 0.9119 0.0
H2382 H 0.7903 0.7338 0.9452 0.0
H2383 H 0.79093 0.71766 0.97285 0.0
H2384 H 0.74536 0.72042 0.90333 0.0
H2385 H 0.81311 0.7179 0.90062 0.0
H2386 H 0.80099 0.7054 0.91608 0.0
H2387 H 0.81065 0.73076 0.92343 0.0
C2388 C 0.75913 0.68444 0.94139 0.0
C2389 C 0.7709 0.69267 0.95863 0.0
C2390 C 0.75911 0.69355 0.92529 0.0
C2391 C 0.77079 0.7111 0.92613 0.0
C2392 C 0.78159 0.71998 0.94384 0.0
H2393 H 0.78992 0.79089 0.84734 0.0
H2394 H 0.78592 0.77566 0.87539 0.0
C2395 C 0.78178 0.71081 0.95977 0.0
C2396 C 0.77217 0.71986 0.90849 0.0
H2397 H 0.80083 0.73694 0.88054 0.0
C2398 C 0.75748 0.72391 0.89832 0.0
C2399 C 0.78795 0.72432 0.90169 0.0
C2400 C 0.80402 0.71919 0.91089 0.0
C2401 C 0.75826 0.73267 0.88199 0.0
C2402 C 0.7741 0.73758 0.87563 0.0
C2403 C 0.78873 0.73336 0.88558 0.0
C2404 C 0.77571 0.74692 0.85851 0.0
C2405 C 0.74222 0.7369 0.87168 0.0
C2406 C 0.77129 0.73584 0.83968 0.0
C2407 C 0.77369 0.74448 0.82363 0.0
C2408 C 0.78045 0.76442 0.82606 0.0
C2409 C 0.78458 0.77553 0.84493 0.0
C2410 C 0.78234 0.76685 0.86099 0.0
H2411 H 0.73109 0.73335 0.87907 0.0
H2412 H 0.7445 0.75239 0.8707 0.0
H2413 H 0.73898 0.7284 0.85668 0.0
H2414 H 0.76627 0.72043 0.83743 0.0
H2415 H 0.77055 0.73546 0.80934 0.0
H2416 H 0.87177 0.17903 0.01383 0.0
H2417 H 0.89205 0.15889 0.00566 0.0
H2418 H 0.86958 0.11805 0.03832 0.0
H2419 H 0.8491 0.13766 0.04594 0.0
H2420 H 0.9159 0.14161 0.02726 0.0
H2421 H 0.86006 0.08791 0.98209 0.0
H2422 H 0.85895 0.11233 0.99157 0.0
H2423 H 0.85729 0.09451 0.00667 0.0
C2424 C 0.87151 0.16597 0.01958 0.0
C2425 C 0.8588 0.15955 0.03012 0.0
C2426 C 0.88299 0.15452 0.0149 0.0
C2427 C 0.88184 0.13683 0.02097 0.0
C2428 C 0.87027 0.13146 0.03313 0.0
H2429 H 0.92595 0.04239 0.02294 0.0
H2430 H 0.91094 0.0688 0.02603 0.0
C2431 C 0.85866 0.14265 0.0375 0.0
C2432 C 0.89154 0.12303 0.01339 0.0
H2433 H 0.88588 0.07674 0.98953 0.0
C2434 C 0.90945 0.12756 0.01868 0.0
C2435 C 0.88294 0.10485 1.00202 0.0
C2436 C 0.86376 0.09967 0.99509 0.0
C2437 C 0.91894 0.11374 0.0139 0.0
C2438 C 0.91018 0.09522 0.00362 0.0
C2439 C 0.89241 0.09105 0.99745 0.0
C2440 C 0.91892 0.07932 1.00115 0.0
C2441 C 0.93811 0.11853 0.02064 0.0
C2442 C 0.92794 0.07653 0.98587 0.0
C2443 C 0.93641 0.06141 0.98399 0.0
C2444 C 0.93592 0.04912 0.99746 0.0
C2445 C 0.92653 0.05179 0.01247 0.0
C2446 C 0.91802 0.06678 0.01426 0.0
H2447 H 0.94301 0.13374 0.02831 0.0
H2448 H 0.94154 0.10889 0.03052 0.0
H2449 H 0.94464 0.11599 0.00803 0.0
H2450 H 0.92859 0.08615 0.97563 0.0
H2451 H 0.94376 0.05969 0.97245 0.0
H2452 H 0.35645 0.42526 0.06906 0.0
H2453 H 0.38532 0.43993 0.06489 0.0
H2454 H 0.36795 0.43026 0.00318 0.0
H2455 H 0.33861 0.41715 0.0077 0.0
H2456 H 0.40813 0.42828 0.04959 0.0
H2457 H 0.39208 0.48355 0.00871 0.0
H2458 H 0.37632 0.46916 0.01916 0.0
H2459 H 0.38169 0.45958 0.99633 0.0
C2460 C 0.35878 0.42652 0.05462 0.0
C2461 C 0.34526 0.42037 0.03875 0.0
C2462 C 0.37535 0.43484 0.0522 0.0
C2463 C 0.37901 0.43675 0.03373 0.0
C2464 C 0.36554 0.42985 0.0177 0.0
H2465 H 0.48007 0.48159 0.00302 0.0
H2466 H 0.451 0.4624 1.00197 0.0
C2467 C 0.34875 0.42215 0.02024 0.0
C2468 C 0.39698 0.44564 0.03158 0.0
H2469 H 0.4209 0.48035 0.01243 0.0
C2470 C 0.41079 0.43969 0.04146 0.0
C2471 C 0.40077 0.46056 0.02092 0.0
C2472 C 0.38694 0.46872 0.01085 0.0
C2473 C 0.428 0.44837 0.04134 0.0
C2474 C 0.43169 0.46325 0.03081 0.0
C2475 C 0.41803 0.46883 0.0204 0.0
C2476 C 0.44961 0.47407 0.03154 0.0
C2477 C 0.4422 0.44175 0.05269 0.0
C2478 C 0.45852 0.48692 0.04851 0.0
C2479 C 0.47501 0.49795 0.04909 0.0
C2480 C 0.48303 0.49631 0.03275 0.0
C2481 C 0.47428 0.48309 0.01588 0.0
C2482 C 0.45765 0.47219 0.01524 0.0
H2483 H 0.43745 0.42777 0.05695 0.0
H2484 H 0.45255 0.4403 0.04415 0.0
H2485 H 0.44787 0.45269 0.06605 0.0
H2486 H 0.45255 0.48872 0.06121 0.0
H2487 H 0.48138 0.50804 0.06227 0.0
H2488 H 0.38842 0.53463 0.74074 0.0
H2489 H 0.37271 0.5607 0.74007 0.0
H2490 H 0.4073 0.59433 0.79124 0.0
H2491 H 0.42273 0.56855 0.79209 0.0
H2492 H 0.35767 0.5752 0.77406 0.0
H2493 H 0.40451 0.63208 0.75273 0.0
H2494 H 0.40502 0.60686 0.74748 0.0
H2495 H 0.41323 0.62084 0.77141 0.0
C2496 C 0.39277 0.54777 0.75155 0.0
C2497 C 0.40663 0.54969 0.76651 0.0
C2498 C 0.38382 0.56254 0.75121 0.0
C2499 C 0.38902 0.57938 0.76554 0.0
C2500 C 0.40327 0.58152 0.77997 0.0
H2501 H 0.34983 0.68166 0.79904 0.0
H2502 H 0.36599 0.65605 0.79921 0.0
C2503 C 0.41198 0.56677 0.78048 0.0
C2504 C 0.37886 0.59421 0.76667 0.0
H2505 H 0.38117 0.6417 0.76555 0.0
C2506 C 0.36267 0.58969 0.77198 0.0
C2507 C 0.38572 0.61314 0.76441 0.0
C2508 C 0.40303 0.61856 0.75855 0.0
C2509 C 0.35312 0.60377 0.77519 0.0
C2510 C 0.3599 0.62262 0.7727 0.0
C2511 C 0.37614 0.62719 0.76754 0.0
C2512 C 0.34972 0.63741 0.7737 0.0
C2513 C 0.33598 0.59852 0.78148 0.0
C2514 C 0.33541 0.63522 0.75931 0.0
C2515 C 0.32637 0.64973 0.75909 0.0
C2516 C 0.33154 0.66667 0.77326 0.0
C2517 C 0.34569 0.66871 0.78796 0.0
C2518 C 0.35485 0.65418 0.78807 0.0
H2519 H 0.33446 0.58488 0.78711 0.0
H2520 H 0.33439 0.6102 0.79286 0.0
H2521 H 0.32556 0.59659 0.76892 0.0
H2522 H 0.33143 0.62242 0.74802 0.0
H2523 H 0.31531 0.64771 0.74782 0.0
H2524 H 0.25717 0.66351 0.50607 0.0
H2525 H 0.2282 0.64305 0.50178 0.0
H2526 H 0.23713 0.63793 0.56173 0.0
H2527 H 0.26611 0.65788 0.56599 0.0
H2528 H 0.22798 0.60281 0.51487 0.0
H2529 H 0.18541 0.647 0.546 0.0
H2530 H 0.20297 0.65697 0.5347 0.0
H2531 H 0.20727 0.65164 0.55842 0.0
C2532 C 0.25268 0.65854 0.51845 0.0
C2533 C 0.26375 0.66205 0.53632 0.0
C2534 C 0.23624 0.64686 0.51596 0.0
C2535 C 0.23071 0.63911 0.53146 0.0
C2536 C 0.24125 0.64396 0.54969 0.0
H2537 H 0.15759 0.55702 0.5648 0.0
H2538 H 0.18349 0.57856 0.56023 0.0
C2539 C 0.25774 0.65528 0.55209 0.0
C2540 C 0.21524 0.62366 0.52825 0.0
H2541 H 0.17596 0.61294 0.54119 0.0
C2542 C 0.21639 0.60498 0.52017 0.0
C2543 C 0.20044 0.62674 0.53551 0.0
C2544 C 0.19878 0.64667 0.54407 0.0
C2545 C 0.20324 0.58904 0.51997 0.0
C2546 C 0.18872 0.59207 0.52788 0.0
C2547 C 0.18727 0.61082 0.53524 0.0
C2548 C 0.1751 0.57599 0.52953 0.0
C2549 C 0.20524 0.56901 0.51229 0.0
C2550 C 0.16233 0.56689 0.51352 0.0
C2551 C 0.14759 0.55446 0.51604 0.0
C2552 C 0.14546 0.5512 0.53462 0.0
C2553 C 0.15895 0.55914 0.55031 0.0
C2554 C 0.17367 0.57155 0.54777 0.0
H2555 H 0.21768 0.56909 0.50727 0.0
H2556 H 0.20431 0.56024 0.52375 0.0
H2557 H 0.19465 0.56189 0.50002 0.0
H2558 H 0.16332 0.57029 0.49937 0.0
H2559 H 0.13742 0.54833 0.50368 0.0
H2560 H 0.67816 0.94231 0.761 0.0
H2561 H 0.69164 0.91423 0.75773 0.0
H2562 H 0.7207 0.93511 0.81526 0.0
H2563 H 0.70754 0.96278 0.8186 0.0
H2564 H 0.72559 0.90848 0.75952 0.0
H2565 H 0.6999 0.88079 0.82021 0.0
H2566 H 0.69225 0.89946 0.80986 0.0
H2567 H 0.71202 0.90525 0.82697 0.0
C2568 C 0.6875 0.94108 0.77295 0.0
C2569 C 0.69145 0.95532 0.79014 0.0
C2570 C 0.69528 0.92479 0.77109 0.0
C2571 C 0.70717 0.92178 0.78639 0.0
C2572 C 0.71139 0.93627 0.80325 0.0
H2573 H 0.78104 0.84396 0.78404 0.0
H2574 H 0.76673 0.87101 0.78504 0.0
C2575 C 0.70378 0.95247 0.80507 0.0
C2576 C 0.71516 0.90384 0.78503 0.0
H2577 H 0.72128 0.86627 0.80802 0.0
C2578 C 0.72451 0.89931 0.77016 0.0
C2579 C 0.71403 0.89128 0.79866 0.0
C2580 C 0.70389 0.89427 0.81473 0.0
C2581 C 0.7328 0.88342 0.76886 0.0
C2582 C 0.73196 0.87114 0.78273 0.0
C2583 C 0.72227 0.87539 0.79731 0.0
C2584 C 0.74095 0.85401 0.78231 0.0
C2585 C 0.74228 0.87974 0.75231 0.0
C2586 C 0.73174 0.83482 0.78093 0.0
C2587 C 0.74003 0.81902 0.78027 0.0
C2588 C 0.75803 0.82165 0.78133 0.0
C2589 C 0.76724 0.84092 0.78311 0.0
C2590 C 0.75894 0.85663 0.78355 0.0
H2591 H 0.7385 0.88724 0.74048 0.0
H2592 H 0.75627 0.88514 0.75763 0.0
H2593 H 0.73989 0.86407 0.74634 0.0
H2594 H 0.71794 0.83193 0.78004 0.0
H2595 H 0.73224 0.80465 0.77889 0.0
H2596 H 0.74119 0.90019 0.49493 0.0
H2597 H 0.71463 0.91195 0.49226 0.0
H2598 H 0.7223 0.92861 0.55432 0.0
H2599 H 0.74885 0.91681 0.55717 0.0
H2600 H 0.68391 0.90196 0.51001 0.0
H2601 H 0.7182 0.9788 0.53309 0.0
H2602 H 0.72876 0.96001 0.52463 0.0
H2603 H 0.72407 0.96301 0.54874 0.0
C2604 C 0.73721 0.90625 0.50805 0.0
C2605 C 0.74728 0.90764 0.52628 0.0
C2606 C 0.72198 0.91294 0.50648 0.0
C2607 C 0.71656 0.92139 0.52306 0.0
C2608 C 0.72633 0.92236 0.5413 0.0
H2609 H 0.63673 0.98275 0.54551 0.0
H2610 H 0.66065 0.96659 0.54744 0.0
C2611 C 0.74149 0.91552 0.54291 0.0
C2612 C 0.70098 0.92965 0.5213 0.0
H2613 H 0.68797 0.97214 0.5293 0.0
C2614 C 0.68477 0.9173 0.51418 0.0
C2615 C 0.7021 0.94968 0.52664 0.0
C2616 C 0.7192 0.96373 0.53356 0.0
C2617 C 0.66964 0.9244 0.51278 0.0
C2618 C 0.67076 0.94445 0.51829 0.0
C2619 C 0.68703 0.95677 0.5252 0.0
C2620 C 0.65533 0.95308 0.51715 0.0
C2621 C 0.65258 0.91026 0.50592 0.0
C2622 C 0.64421 0.95087 0.4995 0.0
C2623 C 0.63034 0.95995 0.49839 0.0
C2624 C 0.62732 0.97165 0.51487 0.0
C2625 C 0.6384 0.97364 0.53257 0.0
C2626 C 0.65222 0.96452 0.53367 0.0
H2627 H 0.65352 0.89542 0.50758 0.0
H2628 H 0.64265 0.91452 0.51398 0.0
H2629 H 0.64828 0.90992 0.49033 0.0
H2630 H 0.64646 0.94247 0.48644 0.0
H2631 H 0.62204 0.9579 0.48454 0.0
H2632 H 0.38274 0.46609 0.78829 0.0
H2633 H 0.36264 0.4351 0.78443 0.0
H2634 H 0.38709 0.41069 0.73937 0.0
H2635 H 0.40736 0.44191 0.74302 0.0
H2636 H 0.34051 0.41018 0.74537 0.0
H2637 H 0.38784 0.37755 0.78587 0.0
H2638 H 0.39003 0.40335 0.78962 0.0
H2639 H 0.39403 0.39072 0.7675 0.0
C2640 C 0.38381 0.4542 0.77744 0.0
C2641 C 0.39672 0.45643 0.76603 0.0
C2642 C 0.37229 0.43652 0.77525 0.0
C2643 C 0.37353 0.42064 0.76177 0.0
C2644 C 0.38605 0.42283 0.74993 0.0
H2645 H 0.31674 0.3024 0.7576 0.0
H2646 H 0.33823 0.33009 0.75369 0.0
C2647 C 0.39753 0.44066 0.75197 0.0
C2648 C 0.36185 0.40178 0.76068 0.0
H2649 H 0.35921 0.35994 0.77787 0.0
C2650 C 0.34459 0.39905 0.75224 0.0
C2651 C 0.36731 0.38732 0.76955 0.0
C2652 C 0.38579 0.38972 0.77873 0.0
C2653 C 0.3325 0.38234 0.75279 0.0
C2654 C 0.33771 0.36832 0.76269 0.0
C2655 C 0.35516 0.37074 0.77046 0.0
C2656 C 0.32516 0.35148 0.76576 0.0
C2657 C 0.31427 0.37993 0.74266 0.0
C2658 C 0.31094 0.35425 0.77436 0.0
C2659 C 0.29864 0.33847 0.7764 0.0
C2660 C 0.30061 0.31966 0.77048 0.0
C2661 C 0.31515 0.31682 0.76262 0.0
C2662 C 0.32733 0.33262 0.76025 0.0
H2663 H 0.31377 0.38792 0.73055 0.0
H2664 H 0.30808 0.36452 0.73683 0.0
H2665 H 0.30672 0.38589 0.75307 0.0
H2666 H 0.30928 0.36864 0.77938 0.0
H2667 H 0.28757 0.34098 0.78263 0.0
H2668 H 0.17437 0.55915 0.27307 0.0
H2669 H 0.18841 0.59151 0.26929 0.0
H2670 H 0.22782 0.59486 0.31793 0.0
H2671 H 0.21392 0.56267 0.32181 0.0
H2672 H 0.19589 0.62757 0.29493 0.0
H2673 H 0.25655 0.61007 0.27749 0.0
H2674 H 0.23761 0.59166 0.27675 0.0
H2675 H 0.25103 0.60352 0.29951 0.0
C2676 C 0.18611 0.56664 0.28289 0.0
C2677 C 0.19293 0.55789 0.29769 0.0
C2678 C 0.19415 0.58533 0.28076 0.0
C2679 C 0.20945 0.5959 0.29313 0.0
C2680 C 0.21628 0.58716 0.30787 0.0
H2681 H 0.25462 0.7215 0.31044 0.0
H2682 H 0.241 0.68905 0.31407 0.0
C2683 C 0.20819 0.5686 0.31013 0.0
C2684 C 0.21806 0.61603 0.29088 0.0
H2685 H 0.25568 0.64316 0.28298 0.0
C2686 C 0.20897 0.63088 0.29231 0.0
C2687 C 0.23516 0.62075 0.28733 0.0
C2688 C 0.24566 0.60566 0.285 0.0
C2689 C 0.21644 0.64997 0.29061 0.0
C2690 C 0.23361 0.65474 0.28732 0.0
C2691 C 0.24261 0.63983 0.28561 0.0
C2692 C 0.24225 0.67489 0.28524 0.0
C2693 C 0.20571 0.6649 0.29201 0.0
C2694 C 0.24805 0.67818 0.268 0.0
C2695 C 0.25586 0.69689 0.26582 0.0
C2696 C 0.25836 0.71305 0.2809 0.0
C2697 C 0.25286 0.70966 0.29833 0.0
C2698 C 0.24493 0.69096 0.30043 0.0
H2699 H 0.19182 0.65823 0.29026 0.0
H2700 H 0.20972 0.67453 0.30644 0.0
H2701 H 0.20762 0.6739 0.28086 0.0
H2702 H 0.24634 0.66624 0.25601 0.0
H2703 H 0.25995 0.69865 0.25223 0.0
H2704 H 0.4826 0.70062 0.45464 0.0
H2705 H 0.48902 0.67419 0.46947 0.0
H2706 H 0.53734 0.68052 0.44921 0.0
H2707 H 0.53093 0.7072 0.43391 0.0
H2708 H 0.51625 0.64141 0.44111 0.0
H2709 H 0.52389 0.6757 0.51838 0.0
H2710 H 0.50535 0.67883 0.50313 0.0
H2711 H 0.52643 0.68948 0.49945 0.0
C2712 C 0.49475 0.6967 0.45347 0.0
C2713 C 0.50626 0.70622 0.44302 0.0
C2714 C 0.49841 0.68153 0.46207 0.0
C2715 C 0.51373 0.67546 0.46067 0.0
C2716 C 0.52544 0.68501 0.45054 0.0
H2717 H 0.54807 0.58868 0.51925 0.0
H2718 H 0.54567 0.618 0.50711 0.0
C2719 C 0.52178 0.7003 0.44186 0.0
C2720 C 0.51684 0.6585 0.46903 0.0
H2721 H 0.51994 0.64156 0.51136 0.0
C2722 C 0.51721 0.64149 0.45648 0.0
C2723 C 0.51818 0.6586 0.48911 0.0
C2724 C 0.5186 0.67666 0.50338 0.0
C2725 C 0.51828 0.62445 0.4634 0.0
C2726 C 0.51888 0.62436 0.48337 0.0
C2727 C 0.51915 0.64154 0.49601 0.0
C2728 C 0.51977 0.60668 0.49144 0.0
C2729 C 0.51885 0.60664 0.44935 0.0
C2730 C 0.50581 0.59065 0.48709 0.0
C2731 C 0.50706 0.57378 0.49418 0.0
C2732 C 0.52236 0.57262 0.50564 0.0
C2733 C 0.5361 0.58896 0.51039 0.0
C2734 C 0.53478 0.60579 0.50346 0.0
H2735 H 0.52134 0.60992 0.43513 0.0
H2736 H 0.52896 0.59966 0.45533 0.0
H2737 H 0.50634 0.59614 0.44698 0.0
H2738 H 0.494 0.59111 0.47804 0.0
H2739 H 0.49623 0.56152 0.49024 0.0
H2740 H 0.60953 0.27597 0.65181 0.0
H2741 H 0.63745 0.26927 0.66368 0.0
H2742 H 0.64044 0.30722 0.71803 0.0
H2743 H 0.6126 0.31354 0.70654 0.0
H2744 H 0.66973 0.29168 0.67633 0.0
H2745 H 0.64835 0.25953 0.7368 0.0
H2746 H 0.63343 0.26426 0.71777 0.0
H2747 H 0.64447 0.28326 0.73783 0.0
C2748 C 0.61617 0.28292 0.66627 0.0
C2749 C 0.60867 0.29517 0.67826 0.0
C2750 C 0.63214 0.27904 0.67307 0.0
C2751 C 0.64096 0.28732 0.69199 0.0
C2752 C 0.63375 0.30011 0.70363 0.0
H2753 H 0.74215 0.31049 0.75602 0.0
H2754 H 0.71433 0.30969 0.73682 0.0
C2755 C 0.61781 0.30385 0.69695 0.0
C2756 C 0.65772 0.2829 0.69968 0.0
H2757 H 0.6789 0.26957 0.73873 0.0
C2758 C 0.67163 0.28659 0.68983 0.0
C2759 C 0.66031 0.27593 0.71718 0.0
C2760 C 0.64579 0.27032 0.72789 0.0
C2761 C 0.68812 0.28456 0.69756 0.0
C2762 C 0.69085 0.27874 0.71558 0.0
C2763 C 0.67684 0.27417 0.72497 0.0
C2764 C 0.70839 0.279 0.72574 0.0
C2765 C 0.70271 0.28904 0.68669 0.0
C2766 C 0.71446 0.262 0.72575 0.0
C2767 C 0.73054 0.26243 0.73669 0.0
C2768 C 0.74068 0.27984 0.74798 0.0
C2769 C 0.73468 0.29684 0.74751 0.0
C2770 C 0.71876 0.29642 0.73652 0.0
H2771 H 0.69823 0.29135 0.67194 0.0
H2772 H 0.71206 0.30225 0.69484 0.0
H2773 H 0.70956 0.27708 0.68551 0.0
H2774 H 0.70665 0.24838 0.71757 0.0
H2775 H 0.73477 0.24909 0.73678 0.0
H2776 H 0.98913 0.2964 0.96754 0.0
H2777 H 0.99472 0.33059 0.98221 0.0
H2778 H 0.02887 0.34425 0.94241 0.0
H2779 H 0.02344 0.31003 0.92763 0.0
H2780 H 0.02773 0.36085 0.99797 0.0
H2781 H 0.98768 0.37244 0.93241 0.0
H2782 H 0.98677 0.34883 0.93825 0.0
H2783 H 0.00466 0.36016 0.92856 0.0
C2784 C 0.99807 0.30661 0.96209 0.0
C2785 C 0.00567 0.30047 0.94623 0.0
C2786 C 1.00127 0.32614 0.97053 0.0
C2787 C 0.012 0.33991 0.96319 0.0
C2788 C 0.02042 0.3338 0.94815 0.0
H2789 H 0.04143 0.46349 0.98809 0.0
H2790 H 0.03801 0.42889 0.97704 0.0
C2791 C 0.01735 0.31423 0.93978 0.0
C2792 C 0.01316 0.36069 0.97018 0.0
H2793 H 1.00034 0.39982 0.9568 0.0
C2794 C 0.02172 0.36938 0.98902 0.0
C2795 C 0.0052 0.3717 0.95847 0.0
C2796 C 0.99544 0.36287 0.93832 0.0
C2797 C 0.02278 0.38897 0.99631 0.0
C2798 C 0.01485 0.39993 0.98457 0.0
C2799 C 0.00624 0.39124 0.96579 0.0
C2800 C 0.01636 0.42079 0.9911 0.0
C2801 C 0.03257 0.39804 0.01637 0.0
C2802 C 0.00504 0.42763 0.00238 0.0
C2803 C 0.0068 0.44752 0.00855 0.0
C2804 C 0.02008 0.46068 0.00373 0.0
C2805 C 0.0312 0.45367 0.99222 0.0
C2806 C 0.02928 0.43393 0.98587 0.0
H2807 H 0.03849 0.38772 0.0235 0.0
H2808 H 0.04284 0.41053 0.01565 0.0
H2809 H 0.02379 0.40358 0.02543 0.0
H2810 H 0.99495 0.4176 0.00648 0.0
H2811 H 0.99812 0.45256 0.01746 0.0
H2812 H 0.00857 0.74646 0.16236 0.0
H2813 H 0.98023 0.73911 0.17223 0.0
H2814 H 0.98304 0.80001 0.18911 0.0
H2815 H 0.01056 0.80719 0.17821 0.0
H2816 H 0.96861 0.74538 0.20467 0.0
H2817 H 0.93734 0.78549 0.15608 0.0
H2818 H 0.95829 0.78094 0.15423 0.0
H2819 H 0.95593 0.80124 0.17131 0.0
C2820 C 1.00305 0.75818 0.16824 0.0
C2821 C 0.01164 0.77738 0.16952 0.0
C2822 C 0.98686 0.75401 0.17381 0.0
C2823 C 0.97913 0.76901 0.1809 0.0
C2824 C 0.98825 0.78815 0.18296 0.0
H2825 H 0.89681 0.7891 0.23941 0.0
H2826 H 0.92209 0.78967 0.22399 0.0
C2827 C 1.00411 0.79227 0.17699 0.0
C2828 C 0.96179 0.76493 0.18658 0.0
H2829 H 0.92368 0.7793 0.18327 0.0
C2830 C 0.9587 0.75257 0.19974 0.0
C2831 C 0.94862 0.77403 0.17998 0.0
C2832 C 0.95015 0.78597 0.16445 0.0
C2833 C 0.94332 0.75 0.20728 0.0
C2834 C 0.9307 0.7601 0.2016 0.0
C2835 C 0.93347 0.77181 0.18788 0.0
C2836 C 0.91492 0.75951 0.21041 0.0
C2837 C 0.94096 0.73705 0.22184 0.0
C2838 C 0.90224 0.74244 0.2076 0.0
C2839 C 0.88761 0.7421 0.21626 0.0
C2840 C 0.8853 0.75885 0.22791 0.0
C2841 C 0.89793 0.77599 0.23035 0.0
C2842 C 0.9125 0.77631 0.22165 0.0
H2843 H 0.95305 0.73292 0.2272 0.0
H2844 H 0.93622 0.74423 0.23438 0.0
H2845 H 0.93122 0.72368 0.21496 0.0
H2846 H 0.90364 0.72939 0.19866 0.0
H2847 H 0.87806 0.72871 0.21374 0.0
H2848 H 0.56353 0.31222 0.16359 0.0
H2849 H 0.57245 0.33918 0.14774 0.0
H2850 H 0.53786 0.30874 0.09526 0.0
H2851 H 0.52814 0.28207 0.11144 0.0
H2852 H 0.58577 0.34655 0.11612 0.0
H2853 H 0.51848 0.35532 0.10946 0.0
H2854 H 0.52606 0.33854 0.12284 0.0
H2855 H 0.5203 0.33241 0.09686 0.0
C2856 C 0.558 0.31115 0.14858 0.0
C2857 C 0.54485 0.29532 0.13882 0.0
C2858 C 0.56318 0.32652 0.13953 0.0
C2859 C 0.55547 0.32612 0.12054 0.0
C2860 C 0.54356 0.3095 0.11015 0.0
H2861 H 0.57019 0.40572 0.04512 0.0
H2862 H 0.57614 0.38226 0.06497 0.0
C2863 C 0.53804 0.29431 0.11935 0.0
C2864 C 0.55837 0.34388 0.11254 0.0
H2865 H 0.53729 0.37573 0.09506 0.0
C2866 C 0.57521 0.35299 0.11152 0.0
C2867 C 0.54459 0.3525 0.10712 0.0
C2868 C 0.52638 0.34431 0.1093 0.0
C2869 C 0.57855 0.37033 0.10469 0.0
C2870 C 0.56466 0.3784 0.09854 0.0
C2871 C 0.54792 0.36945 0.09986 0.0
C2872 C 0.56668 0.39555 0.08959 0.0
C2873 C 0.5968 0.38001 0.1043 0.0
C2874 C 0.56011 0.41119 0.09725 0.0
C2875 C 0.55649 0.42437 0.08586 0.0
C2876 C 0.55951 0.42207 0.06676 0.0
C2877 C 0.56787 0.40774 0.05988 0.0
C2878 C 0.57134 0.39442 0.07123 0.0
H2879 H 0.60615 0.37472 0.11388 0.0
H2880 H 0.59936 0.37691 0.08932 0.0
H2881 H 0.59893 0.39589 0.10883 0.0
H2882 H 0.55639 0.41221 0.11138 0.0
H2883 H 0.55014 0.43546 0.09142 0.0
H2884 H 0.96026 0.25411 0.31679 0.0
H2885 H 0.93208 0.26154 0.31004 0.0
H2886 H 0.95583 0.32217 0.31989 0.0
H2887 H 0.98427 0.31466 0.32622 0.0
H2888 H 0.9217 0.28602 0.34018 0.0
H2889 H 0.91835 0.31217 0.27031 0.0
H2890 H 0.93304 0.29739 0.27688 0.0
H2891 H 0.93707 0.32211 0.28879 0.0
C2892 C 0.95946 0.26894 0.31677 0.0
C2893 C 0.97423 0.28385 0.3218 0.0
C2894 C 0.94344 0.27317 0.31309 0.0
C2895 C 0.94202 0.29237 0.31462 0.0
C2896 C 0.95681 0.30727 0.31848 0.0
H2897 H 0.83847 0.31501 0.29974 0.0
H2898 H 0.86964 0.32206 0.31031 0.0
C2899 C 0.97296 0.30298 0.32193 0.0
C2900 C 0.9249 0.29648 0.31385 0.0
H2901 H 0.89319 0.30732 0.2837 0.0
C2902 C 0.91551 0.29105 0.32805 0.0
C2903 C 0.9171 0.30321 0.29811 0.0
C2904 C 0.9268 0.30902 0.28255 0.0
C2905 C 0.89803 0.29085 0.32612 0.0
C2906 C 0.88996 0.29626 0.30964 0.0
C2907 C 0.89961 0.30317 0.29627 0.0
C2908 C 0.87127 0.29219 0.30454 0.0
C2909 C 0.88809 0.28391 0.34108 0.0
C2910 C 0.86218 0.27308 0.29768 0.0
C2911 C 0.84453 0.26901 0.29135 0.0
C2912 C 0.8358 0.28404 0.29201 0.0
C2913 C 0.84495 0.30318 0.2991 0.0
C2914 C 0.86266 0.30724 0.30518 0.0
H2915 H 0.89668 0.28465 0.35494 0.0
H2916 H 0.87841 0.29256 0.34387 0.0
H2917 H 0.88116 0.26868 0.33558 0.0
H2918 H 0.86881 0.26137 0.29695 0.0
H2919 H 0.83774 0.25414 0.28614 0.0
H2920 H 0.02132 0.71151 0.61245 0.0
H2921 H 0.02853 0.68397 0.59313 0.0
H2922 H 0.06265 0.67766 0.64277 0.0
H2923 H 0.05566 0.70544 0.66232 0.0
H2924 H 0.0699 0.67628 0.59415 0.0
H2925 H 0.01681 0.62629 0.61549 0.0
H2926 H 0.01482 0.65031 0.61301 0.0
H2927 H 0.02979 0.64704 0.63259 0.0
C2928 C 0.03042 0.70435 0.61927 0.0
C2929 C 0.03778 0.7105 0.63896 0.0
C2930 C 0.03461 0.68874 0.60817 0.0
C2931 C 0.04611 0.67894 0.61659 0.0
C2932 C 0.05384 0.68523 0.63608 0.0
H2933 H 0.05176 0.56331 0.56631 0.0
H2934 H 0.05671 0.59392 0.58883 0.0
C2935 C 0.04978 0.70102 0.64719 0.0
C2936 C 0.0488 0.66117 0.60525 0.0
H2937 H 0.03094 0.61313 0.59169 0.0
C2938 C 0.06156 0.66239 0.59371 0.0
C2939 C 0.03787 0.64322 0.60486 0.0
C2940 C 0.02401 0.64143 0.61712 0.0
C2941 C 0.06345 0.64595 0.58137 0.0
C2942 C 0.05208 0.62807 0.58043 0.0
C2943 C 0.03964 0.62686 0.59244 0.0
C2944 C 0.05222 0.61049 0.56659 0.0
C2945 C 0.07754 0.64782 0.56945 0.0
C2946 C 0.04849 0.60976 0.54657 0.0
C2947 C 0.0458 0.59225 0.5336 0.0
C2948 C 0.04663 0.57524 0.54053 0.0
C2949 C 0.05121 0.57621 0.56052 0.0
C2950 C 0.05395 0.59367 0.57343 0.0
H2951 H 0.08796 0.66078 0.57578 0.0
H2952 H 0.08314 0.63488 0.5682 0.0
H2953 H 0.07214 0.64925 0.55468 0.0
H2954 H 0.04673 0.6225 0.54102 0.0
H2955 H 0.04216 0.59186 0.51827 0.0
H2956 H 0.56988 0.80076 0.8627 0.0
H2957 H 0.59902 0.80802 0.85533 0.0
H2958 H 0.58037 0.77474 0.79755 0.0
H2959 H 0.55145 0.76763 0.8046 0.0
H2960 H 0.61716 0.78035 0.84425 0.0
H2961 H 0.60956 0.8239 0.78771 0.0
H2962 H 0.59447 0.82023 0.80404 0.0
H2963 H 0.59309 0.80221 0.78283 0.0
C2964 C 0.57201 0.7952 0.84837 0.0
C2965 C 0.55843 0.78365 0.83421 0.0
C2966 C 0.58859 0.79941 0.84419 0.0
C2967 C 0.59167 0.7923 0.82577 0.0
C2968 C 0.57811 0.78084 0.81166 0.0
H2969 H 0.66163 0.75541 0.76317 0.0
H2970 H 0.6382 0.76743 0.77568 0.0
C2971 C 0.56163 0.77661 0.8158 0.0
C2972 C 0.60922 0.79493 0.82161 0.0
H2973 H 0.6324 0.80641 0.78689 0.0
C2974 C 0.62077 0.78656 0.83208 0.0
C2975 C 0.61374 0.80301 0.80569 0.0
C2976 C 0.6021 0.81302 0.79456 0.0
C2977 C 0.63622 0.78461 0.82606 0.0
C2978 C 0.64022 0.79158 0.80938 0.0
C2979 C 0.6292 0.80109 0.79966 0.0
C2980 C 0.65466 0.78693 0.80054 0.0
C2981 C 0.64754 0.77388 0.8367 0.0
C2982 C 0.67159 0.79448 0.81012 0.0
C2983 C 0.68496 0.78764 0.80303 0.0
C2984 C 0.68149 0.77323 0.78626 0.0
C2985 C 0.66462 0.76658 0.77607 0.0
C2986 C 0.65127 0.77339 0.78319 0.0
H2987 H 0.64139 0.76716 0.84775 0.0
H2988 H 0.65077 0.76242 0.82637 0.0
H2989 H 0.65973 0.78403 0.84412 0.0
H2990 H 0.67437 0.80512 0.82341 0.0
H2991 H 0.69794 0.79321 0.81093 0.0
H2992 H 0.47871 0.5354 0.71297 0.0
H2993 H 0.48786 0.53632 0.68196 0.0
H2994 H 0.44598 0.48828 0.65476 0.0
H2995 H 0.43642 0.48743 0.68603 0.0
H2996 H 0.49809 0.50817 0.65858 0.0
H2997 H 0.44108 0.52815 0.62056 0.0
H2998 H 0.44512 0.5297 0.64642 0.0
H2999 H 0.43667 0.50672 0.63057 0.0
C3000 C 0.47132 0.52505 0.70043 0.0
C3001 C 0.45676 0.51138 0.70195 0.0
C3002 C 0.47663 0.52559 0.6827 0.0
C3003 C 0.46752 0.51251 0.66605 0.0
C3004 C 0.45301 0.49872 0.66742 0.0
H3005 H 0.49523 0.50112 0.55104 0.0
H3006 H 0.48113 0.49577 0.57869 0.0
C3007 C 0.44761 0.4982 0.68526 0.0
C3008 C 0.47358 0.51346 0.64746 0.0
H3009 H 0.46312 0.52392 0.60276 0.0
C3010 C 0.4904 0.51149 0.64633 0.0
C3011 C 0.46353 0.51788 0.63156 0.0
C3012 C 0.44564 0.52091 0.63228 0.0
C3013 C 0.49754 0.51413 0.62982 0.0
C3014 C 0.48759 0.51888 0.61412 0.0
C3015 C 0.47064 0.52031 0.61495 0.0
C3016 C 0.49486 0.5229 0.59692 0.0
C3017 C 0.51572 0.51204 0.6293 0.0
C3018 C 0.50679 0.54018 0.59797 0.0
C3019 C 0.51467 0.5434 0.58215 0.0
C3020 C 0.5108 0.52927 0.56515 0.0
C3021 C 0.49835 0.51229 0.56392 0.0
C3022 C 0.49036 0.50917 0.57969 0.0
H3023 H 0.52072 0.50533 0.64126 0.0
H3024 H 0.51649 0.50317 0.61529 0.0
H3025 H 0.52417 0.52649 0.63061 0.0
H3026 H 0.5103 0.55095 0.6112 0.0
H3027 H 0.52426 0.55659 0.5835 0.0
H3028 H 0.79209 0.21657 0.02955 0.0
H3029 H 0.7722 0.2137 0.99992 0.0
H3030 H 0.81251 0.2459 0.9762 0.0
H3031 H 0.83307 0.24739 0.0054 0.0
H3032 H 0.75891 0.23395 0.97968 0.0
H3033 H 0.79921 0.19842 0.93584 0.0
H3034 H 0.8041 0.2039 0.96191 0.0
H3035 H 0.81115 0.2219 0.94803 0.0
C3036 C 0.7968 0.22326 0.01816 0.0
C3037 C 0.81434 0.23163 0.01955 0.0
C3038 C 0.78533 0.22156 1.00117 0.0
C3039 C 0.79106 0.22876 0.98552 0.0
C3040 C 0.80805 0.23934 0.98778 0.0
H3041 H 0.74934 0.26927 0.89789 0.0
H3042 H 0.75172 0.25673 0.92724 0.0
C3043 C 0.81972 0.24052 0.00459 0.0
C3044 C 0.77936 0.22478 0.96673 0.0
H3045 H 0.77818 0.21212 0.91833 0.0
C3046 C 0.763 0.22881 0.96628 0.0
C3047 C 0.78421 0.21701 0.94929 0.0
C3048 C 0.80053 0.20982 0.94883 0.0
C3049 C 0.75211 0.22715 0.94871 0.0
C3050 C 0.75809 0.22223 0.93125 0.0
C3051 C 0.77366 0.21625 0.93172 0.0
C3052 C 0.75079 0.22746 0.91317 0.0
C3053 C 0.7346 0.23144 0.94905 0.0
C3054 C 0.74884 0.21506 0.89526 0.0
C3055 C 0.74763 0.22236 0.8782 0.0
C3056 C 0.74842 0.24213 0.87897 0.0
C3057 C 0.74844 0.25393 0.8967 0.0
C3058 C 0.74972 0.2467 0.91363 0.0
H3059 H 0.72887 0.22564 0.96083 0.0
H3060 H 0.73586 0.24729 0.95214 0.0
H3061 H 0.72573 0.2252 0.9351 0.0
H3062 H 0.74967 0.20017 0.8946 0.0
H3063 H 0.74738 0.2129 0.86465 0.0
H3064 H 0.10516 0.52597 0.23433 0.0
H3065 H 0.09182 0.52693 0.20183 0.0
H3066 H 0.12277 0.49001 0.17799 0.0
H3067 H 0.13611 0.48865 0.21099 0.0
H3068 H 0.1028 0.5406 0.17305 0.0
H3069 H 0.07767 0.46233 0.14536 0.0
H3070 H 0.08647 0.47202 0.17056 0.0
H3071 H 0.1005 0.46915 0.15325 0.0
C3072 C 0.10923 0.51788 0.22231 0.0
C3073 C 0.12186 0.50711 0.22575 0.0
C3074 C 0.10147 0.5185 0.20345 0.0
C3075 C 0.10582 0.50834 0.1869 0.0
C3076 C 0.11861 0.49768 0.19018 0.0
H3077 H 0.06245 0.50091 0.06145 0.0
H3078 H 0.07989 0.49772 0.09167 0.0
C3079 C 0.12645 0.49703 0.20923 0.0
C3080 C 0.09714 0.5096 0.16667 0.0
H3081 H 0.07346 0.48289 0.12326 0.0
C3082 C 0.09642 0.52787 0.16227 0.0
C3083 C 0.08873 0.49322 0.15205 0.0
C3084 C 0.0882 0.47306 0.15552 0.0
C3085 C 0.08777 0.53022 0.14428 0.0
C3086 C 0.07895 0.51386 0.12986 0.0
C3087 C 0.08001 0.49557 0.13401 0.0
C3088 C 0.06817 0.51553 0.11093 0.0
C3089 C 0.08853 0.55046 0.14086 0.0
C3090 C 0.05534 0.5263 0.11108 0.0
C3091 C 0.04549 0.52826 0.09378 0.0
C3092 C 0.04776 0.51933 0.07543 0.0
C3093 C 0.06032 0.50818 0.07515 0.0
C3094 C 0.07031 0.50629 0.09258 0.0
H3095 H 0.10015 0.56068 0.14971 0.0
H3096 H 0.08859 0.55121 0.1254 0.0
H3097 H 0.07716 0.55534 0.14517 0.0
H3098 H 0.05275 0.53315 0.12471 0.0
H3099 H 0.0359 0.5368 0.09485 0.0
H3100 H 0.79436 0.87704 0.48221 0.0
H3101 H 0.79026 0.86167 0.44813 0.0
H3102 H 0.79414 0.80754 0.46491 0.0
H3103 H 0.79949 0.82332 0.49902 0.0
H3104 H 0.81324 0.81303 0.43999 0.0
H3105 H 0.75149 0.82841 0.41038 0.0
H3106 H 0.76675 0.85023 0.42184 0.0
H3107 H 0.75934 0.83271 0.43604 0.0
C3108 C 0.7939 0.86175 0.47856 0.0
C3109 C 0.79709 0.8513 0.49319 0.0
C3110 C 0.79148 0.85291 0.45904 0.0
C3111 C 0.7916 0.83328 0.45376 0.0
C3112 C 0.79401 0.82268 0.46849 0.0
H3113 H 0.76267 0.77164 0.33416 0.0
H3114 H 0.76412 0.78376 0.36854 0.0
C3115 C 0.79694 0.83164 0.48799 0.0
C3116 C 0.79069 0.82418 0.43312 0.0
H3117 H 0.76858 0.81872 0.38727 0.0
C3118 C 0.80333 0.81412 0.42852 0.0
C3119 C 0.77773 0.82536 0.41803 0.0
C3120 C 0.76297 0.83458 0.42186 0.0
C3121 C 0.80347 0.80542 0.4094 0.0
C3122 C 0.79102 0.80745 0.39422 0.0
C3123 C 0.77827 0.81731 0.39882 0.0
C3124 C 0.79069 0.79919 0.37351 0.0
C3125 C 0.81673 0.79377 0.40581 0.0
C3126 C 0.80518 0.80363 0.36472 0.0
C3127 C 0.80448 0.79637 0.34504 0.0
C3128 C 0.78913 0.78494 0.33367 0.0
C3129 C 0.77468 0.78048 0.34249 0.0
C3130 C 0.77548 0.78744 0.36218 0.0
H3131 H 0.8214 0.78848 0.41895 0.0
H3132 H 0.81152 0.78117 0.39381 0.0
H3133 H 0.82795 0.80302 0.40193 0.0
H3134 H 0.81695 0.81308 0.37293 0.0
H3135 H 0.81576 0.80025 0.33861 0.0
H3136 H 0.45932 0.46962 0.80227 0.0
H3137 H 0.4715 0.47223 0.8366 0.0
H3138 H 0.49385 0.53249 0.84044 0.0
H3139 H 0.48164 0.52993 0.80646 0.0
H3140 H 0.50708 0.48819 0.85966 0.0
H3141 H 0.4585 0.52972 0.87866 0.0
H3142 H 0.45675 0.51529 0.85494 0.0
H3143 H 0.4713 0.5385 0.86183 0.0
C3144 C 0.46743 0.48314 0.81034 0.0
C3145 C 0.46987 0.49952 0.80194 0.0
C3146 C 0.4742 0.48469 0.82987 0.0
C3147 C 0.48329 0.50263 0.84093 0.0
C3148 C 0.48671 0.51861 0.83209 0.0
H3149 H 0.51906 0.54603 0.9643 0.0
H3150 H 0.5114 0.54337 0.92918 0.0
C3151 C 0.47992 0.51709 0.81272 0.0
C3152 C 0.48809 0.50519 0.86201 0.0
H3153 H 0.47943 0.52738 0.90444 0.0
C3154 C 0.50105 0.49669 0.8695 0.0
C3155 C 0.48016 0.51641 0.87464 0.0
C3156 C 0.4658 0.5254 0.86718 0.0
C3157 C 0.50649 0.49932 0.8895 0.0
C3158 C 0.49847 0.51041 0.90215 0.0
C3159 C 0.48557 0.51899 0.89463 0.0
C3160 C 0.50264 0.51231 0.92326 0.0
C3161 C 0.5209 0.49038 0.89689 0.0
C3162 C 0.4997 0.49582 0.9314 0.0
C3163 C 0.50407 0.49726 0.95124 0.0
C3164 C 0.51129 0.51529 0.96336 0.0
C3165 C 0.51359 0.53196 0.95529 0.0
C3166 C 0.50928 0.53046 0.93529 0.0
H3167 H 0.52883 0.48732 0.88568 0.0
H3168 H 0.52935 0.49992 0.90991 0.0
H3169 H 0.51538 0.47652 0.9009 0.0
H3170 H 0.49411 0.48177 0.92236 0.0
H3171 H 0.50183 0.48416 0.95703 0.0
H3172 H 0.84601 0.23831 0.10315 0.0
H3173 H 0.83088 0.2483 0.12913 0.0
H3174 H 0.80252 0.18973 0.12284 0.0
H3175 H 0.81772 0.17945 0.09713 0.0
H3176 H 0.79309 0.24208 0.12445 0.0
H3177 H 0.82274 0.20779 0.18142 0.0
H3178 H 0.83257 0.21225 0.1608 0.0
H3179 H 0.81415 0.19284 0.15797 0.0
C3180 C 0.83691 0.22745 0.10763 0.0
C3181 C 0.83311 0.20809 0.09812 0.0
C3182 C 0.82813 0.23323 0.12226 0.0
C3183 C 0.81559 0.21972 0.12766 0.0
C3184 C 0.81224 0.20029 0.11882 0.0
H3185 H 0.7653 0.24323 0.22611 0.0
H3186 H 0.76844 0.22738 0.19422 0.0
C3187 C 0.82101 0.19447 0.10422 0.0
C3188 C 0.80598 0.22608 0.14257 0.0
H3189 H 0.80257 0.22562 0.1896 0.0
C3190 C 0.795 0.23839 0.13868 0.0
C3191 C 0.80835 0.22088 0.16087 0.0
C3192 C 0.82015 0.2078 0.16567 0.0
C3193 C 0.78685 0.24636 0.15308 0.0
C3194 C 0.79004 0.24202 0.17168 0.0
C3195 C 0.80023 0.22886 0.17522 0.0
C3196 C 0.78485 0.25259 0.18842 0.0
C3197 C 0.77518 0.25961 0.14851 0.0
C3198 C 0.79284 0.27208 0.1954 0.0
C3199 C 0.79131 0.28109 0.21374 0.0
C3200 C 0.78179 0.27064 0.22516 0.0
C3201 C 0.77289 0.25151 0.21761 0.0
C3202 C 0.77452 0.24249 0.19937 0.0
H3203 H 0.7704 0.25736 0.13271 0.0
H3204 H 0.76402 0.25737 0.15611 0.0
H3205 H 0.78239 0.27478 0.15352 0.0
H3206 H 0.80113 0.27993 0.18721 0.0
H3207 H 0.79817 0.29589 0.21929 0.0
H3208 H 0.11442 0.5273 0.3272 0.0
H3209 H 0.10133 0.53089 0.35632 0.0
H3210 H 0.13575 0.50026 0.38318 0.0
H3211 H 0.14921 0.49722 0.35429 0.0
H3212 H 0.08329 0.50713 0.37342 0.0
H3213 H 0.14102 0.54162 0.42848 0.0
H3214 H 0.14157 0.53866 0.40294 0.0
H3215 H 0.14262 0.51887 0.41531 0.0
C3216 C 0.11947 0.52158 0.3394 0.0
C3217 C 0.13319 0.51215 0.33812 0.0
C3218 C 0.11182 0.52356 0.35622 0.0
C3219 C 0.11748 0.51622 0.37266 0.0
C3220 C 0.1312 0.50675 0.37136 0.0
H3221 H 0.08372 0.51206 0.48706 0.0
H3222 H 0.09842 0.50982 0.45901 0.0
C3223 C 0.13895 0.50488 0.35456 0.0
C3224 C 0.10854 0.51779 0.3905 0.0
H3225 H 0.11548 0.53081 0.4403 0.0
C3226 C 0.09045 0.51244 0.38799 0.0
C3227 C 0.11746 0.52452 0.40993 0.0
C3228 C 0.13672 0.53142 0.41437 0.0
C3229 C 0.08129 0.51317 0.40378 0.0
C3230 C 0.09017 0.52014 0.42324 0.0
C3231 C 0.10829 0.52546 0.42575 0.0
C3232 C 0.08108 0.5219 0.441 0.0
C3233 C 0.06209 0.50562 0.39918 0.0
C3234 C 0.06641 0.5299 0.44125 0.0
C3235 C 0.05769 0.53075 0.45727 0.0
C3236 C 0.06352 0.52433 0.47423 0.0
C3237 C 0.07865 0.51718 0.47445 0.0
C3238 C 0.08715 0.5159 0.4582 0.0
H3239 H 0.05817 0.49491 0.38538 0.0
H3240 H 0.05726 0.49869 0.41081 0.0
H3241 H 0.05579 0.51774 0.3974 0.0
H3242 H 0.06159 0.53566 0.42901 0.0
H3243 H 0.04632 0.53664 0.45638 0.0
H3244 H 0.7794 0.8677 0.59925 0.0
H3245 H 0.77478 0.85214 0.62701 0.0
H3246 H 0.80503 0.81191 0.60841 0.0
H3247 H 0.80992 0.82747 0.58102 0.0
H3248 H 0.7615 0.81425 0.63204 0.0
H3249 H 0.83099 0.83758 0.66264 0.0
H3250 H 0.82121 0.84688 0.64285 0.0
H3251 H 0.82648 0.82364 0.6385 0.0
C3252 C 0.78479 0.85531 0.60087 0.0
C3253 C 0.79522 0.84902 0.588 0.0
C3254 C 0.78221 0.84647 0.61681 0.0
C3255 C 0.78997 0.83117 0.62015 0.0
C3256 C 0.79932 0.82402 0.60652 0.0
H3257 H 0.77625 0.75344 0.70158 0.0
H3258 H 0.77769 0.76821 0.67293 0.0
C3259 C 0.802 0.83289 0.59075 0.0
C3260 C 0.78906 0.82319 0.63822 0.0
H3261 H 0.81417 0.81574 0.67802 0.0
C3262 C 0.77301 0.81463 0.64211 0.0
C3263 C 0.80406 0.82387 0.65158 0.0
C3264 C 0.82165 0.83365 0.64883 0.0
C3265 C 0.77163 0.80631 0.65863 0.0
C3266 C 0.78667 0.80648 0.67161 0.0
C3267 C 0.80266 0.81544 0.66799 0.0
C3268 C 0.78608 0.79748 0.68906 0.0
C3269 C 0.75408 0.79755 0.66227 0.0
C3270 C 0.79077 0.80896 0.70772 0.0
C3271 C 0.78996 0.80054 0.72414 0.0
C3272 C 0.78461 0.78045 0.72225 0.0
C3273 C 0.7804 0.76896 0.70356 0.0
C3274 C 0.7811 0.77739 0.68715 0.0
H3275 H 0.74368 0.80144 0.65279 0.0
H3276 H 0.75211 0.78162 0.65944 0.0
H3277 H 0.75303 0.80233 0.67761 0.0
H3278 H 0.79476 0.82448 0.70956 0.0
H3279 H 0.79322 0.80981 0.73831 0.0
H3280 H 0.70263 0.40095 0.47256 0.0
H3281 H 0.68143 0.41817 0.48447 0.0
H3282 H 0.68765 0.39637 0.53743 0.0
H3283 H 0.70831 0.3791 0.52579 0.0
H3284 H 0.64944 0.39616 0.50454 0.0
H3285 H 0.69798 0.46081 0.54686 0.0
H3286 H 0.70188 0.44702 0.52502 0.0
H3287 H 0.70207 0.43706 0.54653 0.0
C3288 C 0.69921 0.39968 0.48658 0.0
C3289 C 0.70673 0.38844 0.49806 0.0
C3290 C 0.68727 0.40949 0.49335 0.0
C3291 C 0.68321 0.40833 0.51173 0.0
C3292 C 0.69069 0.39718 0.52317 0.0
H3293 H 0.62098 0.47989 0.56761 0.0
H3294 H 0.6375 0.45468 0.56469 0.0
C3295 C 0.70233 0.38723 0.51637 0.0
C3296 C 0.67111 0.41879 0.51921 0.0
H3297 H 0.66888 0.46098 0.5468 0.0
C3298 C 0.6536 0.41026 0.51391 0.0
C3299 C 0.67686 0.43683 0.53182 0.0
C3300 C 0.69572 0.44611 0.53797 0.0
C3301 C 0.64144 0.42 0.52015 0.0
C3302 C 0.64714 0.43862 0.53171 0.0
C3303 C 0.6647 0.44658 0.53804 0.0
C3304 C 0.63554 0.45167 0.53367 0.0
C3305 C 0.62262 0.41077 0.51366 0.0
C3306 C 0.62942 0.45826 0.5172 0.0
C3307 C 0.6206 0.47289 0.51886 0.0
C3308 C 0.61754 0.48099 0.53701 0.0
C3309 C 0.6234 0.47406 0.5535 0.0
C3310 C 0.63254 0.45954 0.55185 0.0
H3311 H 0.6204 0.3948 0.51017 0.0
H3312 H 0.61509 0.41491 0.52496 0.0
H3313 H 0.61778 0.41573 0.50039 0.0
H3314 H 0.63211 0.45262 0.50315 0.0
H3315 H 0.61657 0.47818 0.50595 0.0
H3316 H 0.20835 0.14388 0.51571 0.0
H3317 H 0.17952 0.13147 0.52245 0.0
H3318 H 0.17814 0.0761 0.48799 0.0
H3319 H 0.20679 0.08812 0.48168 0.0
H3320 H 0.1479 0.11622 0.50013 0.0
H3321 H 0.16721 0.06017 0.53712 0.0
H3322 H 0.18272 0.07917 0.53142 0.0
H3323 H 0.17265 0.05788 0.5134 0.0
C3324 C 0.20187 0.12908 0.50954 0.0
C3325 C 0.21006 0.11698 0.49829 0.0
C3326 C 0.18537 0.12197 0.51343 0.0
C3327 C 0.17671 0.10262 0.50619 0.0
C3328 C 0.18464 0.09086 0.49434 0.0
H3329 H 0.07891 0.02616 0.48838 0.0
H3330 H 0.10734 0.04569 0.48855 0.0
C3331 C 0.20107 0.09785 0.49059 0.0
C3332 C 0.15941 0.09451 0.51071 0.0
H3333 H 0.1369 0.05558 0.52546 0.0
C3334 C 0.14558 0.10315 0.50599 0.0
C3335 C 0.15623 0.07755 0.51863 0.0
C3336 C 0.17054 0.06829 0.52563 0.0
C3337 C 0.12868 0.0947 0.50788 0.0
C3338 C 0.12545 0.07713 0.51461 0.0
C3339 C 0.13933 0.06896 0.52013 0.0
C3340 C 0.10766 0.06611 0.51446 0.0
C3341 C 0.1142 0.1041 0.50196 0.0
C3342 C 0.09823 0.07107 0.529 0.0
C3343 C 0.08187 0.05973 0.52905 0.0
C3344 C 0.07465 0.04329 0.5145 0.0
C3345 C 0.08404 0.03868 0.49982 0.0
C3346 C 0.10034 0.04985 0.49988 0.0
H3347 H 0.11869 0.1175 0.49653 0.0
H3348 H 0.10441 0.0939 0.49048 0.0
H3349 H 0.10786 0.10768 0.51453 0.0
H3350 H 0.10364 0.08351 0.54046 0.0
H3351 H 0.07498 0.06368 0.54055 0.0
H3352 H 0.1471 0.98451 0.76999 0.0
H3353 H 0.15904 0.95686 0.75912 0.0
H3354 H 0.20585 0.98254 0.79993 0.0
H3355 H 0.19369 0.00987 0.81149 0.0
H3356 H 0.18712 0.95052 0.74412 0.0
H3357 H 0.18992 0.93244 0.81724 0.0
H3358 H 0.17928 0.95067 0.81024 0.0
H3359 H 0.20226 0.95607 0.81752 0.0
C3360 C 0.16005 0.98441 0.77644 0.0
C3361 C 0.16939 0.99917 0.79181 0.0
C3362 C 0.16684 0.9686 0.77021 0.0
C3363 C 0.18312 0.96744 0.7791 0.0
C3364 C 0.19303 0.98292 0.79332 0.0
H3365 H 0.2485 0.89084 0.75507 0.0
H3366 H 0.23221 0.91588 0.75381 0.0
C3367 C 0.18613 0.99855 0.79983 0.0
C3368 C 0.18924 0.94951 0.77447 0.0
H3369 H 0.20328 0.91466 0.79518 0.0
C3370 C 0.19059 0.94261 0.75524 0.0
C3371 C 0.1933 0.93895 0.78893 0.0
C3372 C 0.19095 0.94478 0.80959 0.0
C3373 C 0.19656 0.92578 0.75026 0.0
C3374 C 0.20144 0.91586 0.76493 0.0
C3375 C 0.19957 0.9224 0.78399 0.0
C3376 C 0.20954 0.8993 0.76131 0.0
C3377 C 0.19757 0.91865 0.72943 0.0
C3378 C 0.20198 0.88155 0.76551 0.0
C3379 C 0.21124 0.86717 0.76619 0.0
C3380 C 0.22826 0.87044 0.7629 0.0
C3381 C 0.23536 0.88778 0.75745 0.0
C3382 C 0.22606 0.90212 0.7567 0.0
H3383 H 0.1896 0.92509 0.71941 0.0
H3384 H 0.21108 0.92263 0.72731 0.0
H3385 H 0.1933 0.9027 0.72555 0.0
H3386 H 0.18924 0.87919 0.76918 0.0
H3387 H 0.20536 0.85384 0.77015 0.0
H3388 H 0.31551 0.86617 0.04453 0.0
H3389 H 0.34316 0.88669 0.0422 0.0
H3390 H 0.31609 0.92009 0.00895 0.0
H3391 H 0.28877 0.90052 0.01229 0.0
H3392 H 0.35814 0.89418 0.01247 0.0
H3393 H 0.34582 0.96242 0.04942 0.0
H3394 H 0.33227 0.9393 0.04928 0.0
H3395 H 0.32935 0.95112 0.02897 0.0
C3396 C 0.31561 0.87801 0.0369 0.0
C3397 C 0.30019 0.88216 0.029 0.0
C3398 C 0.33132 0.88969 0.03555 0.0
C3399 C 0.33166 0.90536 0.02597 0.0
C3400 C 0.31616 0.90868 0.01715 0.0
H3401 H 0.40831 0.98136 0.98421 0.0
H3402 H 0.38187 0.96229 0.99082 0.0
C3403 C 0.30058 0.89741 0.01895 0.0
C3404 C 0.34813 0.91808 0.02471 0.0
H3405 H 0.36887 0.96539 0.03132 0.0
C3406 C 0.36057 0.90972 0.01683 0.0
C3407 C 0.35132 0.93841 0.03044 0.0
C3408 C 0.33904 0.9483 0.04018 0.0
C3409 C 0.37585 0.92117 0.01397 0.0
C3410 C 0.3787 0.94142 0.01912 0.0
C3411 C 0.36647 0.94982 0.02726 0.0
C3412 C 0.3944 0.95407 0.01607 0.0
C3413 C 0.38875 0.91165 0.00512 0.0
C3414 C 0.40998 0.95611 0.02846 0.0
C3415 C 0.42504 0.96718 0.02492 0.0
C3416 C 0.42478 0.97627 0.00881 0.0
C3417 C 0.40896 0.97469 0.99681 0.0
C3418 C 0.39388 0.96371 1.00047 0.0
H3419 H 0.38373 0.89592 0.99983 0.0
H3420 H 0.3925 0.91834 0.99287 0.0
H3421 H 0.40052 0.91388 0.01611 0.0
H3422 H 0.41051 0.94891 0.0407 0.0
H3423 H 0.43693 0.96846 0.03471 0.0
H3424 H 0.84979 0.57592 0.77097 0.0
H3425 H 0.8365 0.60337 0.76867 0.0
H3426 H 0.88412 0.63617 0.75877 0.0
H3427 H 0.89685 0.60805 0.75947 0.0
H3428 H 0.83779 0.6347 0.78724 0.0
H3429 H 0.85812 0.65709 0.7219 0.0
H3430 H 0.8614 0.63486 0.72849 0.0
H3431 H 0.87637 0.65739 0.73944 0.0
C3432 C 0.85732 0.58875 0.76761 0.0
C3433 C 0.87439 0.58914 0.76479 0.0
C3434 C 0.84969 0.60483 0.76654 0.0
C3435 C 0.85881 0.62253 0.76312 0.0
C3436 C 0.87604 0.62295 0.76051 0.0
H3437 H 0.83446 0.74023 0.77032 0.0
H3438 H 0.84851 0.71274 0.769 0.0
C3439 C 0.88351 0.60661 0.761 0.0
C3440 C 0.85053 0.64036 0.76338 0.0
H3441 H 0.84688 0.67954 0.74183 0.0
C3442 C 0.83978 0.64421 0.77702 0.0
C3443 C 0.85272 0.65356 0.75038 0.0
C3444 C 0.86262 0.65042 0.73412 0.0
C3445 C 0.83167 0.6602 0.77817 0.0
C3446 C 0.83405 0.67344 0.76537 0.0
C3447 C 0.84489 0.66982 0.75186 0.0
C3448 C 0.82525 0.69072 0.76564 0.0
C3449 C 0.8208 0.66292 0.79358 0.0
C3450 C 0.80723 0.68824 0.7638 0.0
C3451 C 0.7991 0.70407 0.76445 0.0
C3452 C 0.80849 0.72335 0.76694 0.0
C3453 C 0.82653 0.72586 0.76843 0.0
C3454 C 0.83467 0.70994 0.76766 0.0
H3455 H 0.82416 0.65545 0.80558 0.0
H3456 H 0.82225 0.67844 0.79969 0.0
H3457 H 0.80711 0.65673 0.78711 0.0
H3458 H 0.79926 0.67387 0.76172 0.0
H3459 H 0.78526 0.70111 0.76312 0.0
H3460 H 0.82237 0.6542 0.02564 0.0
H3461 H 0.84952 0.64381 0.03223 0.0
H3462 H 0.82297 0.58486 0.00915 0.0
H3463 H 0.79578 0.59515 0.00289 0.0
H3464 H 0.84988 0.59544 0.04861 0.0
H3465 H 0.87306 0.62089 0.98492 0.0
H3466 H 0.86198 0.63509 0.99987 0.0
H3467 H 0.85038 0.6127 0.98477 0.0
C3468 C 0.82232 0.63902 0.02211 0.0
C3469 C 0.80695 0.62548 0.01376 0.0
C3470 C 0.83784 0.6331 0.02589 0.0
C3471 C 0.83833 0.61356 0.02106 0.0
C3472 C 0.82291 0.59999 0.01311 0.0
H3473 H 0.91535 0.54995 0.99828 0.0
H3474 H 0.89143 0.56608 0.9982 0.0
C3475 C 0.80736 0.60587 0.0096 0.0
C3476 C 0.85492 0.60723 0.02356 0.0
H3477 H 0.88987 0.60385 1.00202 0.0
C3478 C 0.85873 0.59741 0.03856 0.0
C3479 C 0.86647 0.60984 0.01045 0.0
C3480 C 0.86291 0.62018 0.99403 0.0
C3481 C 0.87355 0.58974 0.04052 0.0
C3482 C 0.88493 0.59191 0.02709 0.0
C3483 C 0.88123 0.60211 0.01233 0.0
C3484 C 0.90009 0.58271 0.02728 0.0
C3485 C 0.8765 0.57877 0.05657 0.0
C3486 C 0.91329 0.58684 0.04352 0.0
C3487 C 0.9271 0.57759 0.0436 0.0
C3488 C 0.9282 0.56408 0.02737 0.0
C3489 C 0.91516 0.56037 0.01099 0.0
C3490 C 0.90136 0.56956 0.01095 0.0
H3491 H 0.8647 0.57454 0.0627 0.0
H3492 H 0.88099 0.56558 0.05136 0.0
H3493 H 0.88654 0.58805 0.06842 0.0
H3494 H 0.91296 0.59728 0.05614 0.0
H3495 H 0.937 0.58115 0.05637 0.0
H3496 H 0.15645 0.08618 0.77906 0.0
H3497 H 0.1742 0.11408 0.77034 0.0
H3498 H 0.20644 0.12658 0.8265 0.0
H3499 H 0.18901 0.09869 0.83529 0.0
H3500 H 0.18295 0.15379 0.78815 0.0
H3501 H 0.24023 0.12219 0.78868 0.0
H3502 H 0.21904 0.108 0.78829 0.0
H3503 H 0.23166 0.12222 0.81066 0.0
C3504 C 0.16727 0.09491 0.78961 0.0
C3505 C 0.17139 0.09008 0.80785 0.0
C3506 C 0.17739 0.11085 0.78458 0.0
C3507 C 0.19179 0.12215 0.79765 0.0
C3508 C 0.19558 0.11777 0.81606 0.0
H3509 H 0.27451 0.21881 0.81023 0.0
H3510 H 0.25241 0.19121 0.81267 0.0
C3511 C 0.18555 0.10185 0.82108 0.0
C3512 C 0.20311 0.13845 0.79216 0.0
H3513 H 0.24488 0.15596 0.78911 0.0
C3514 C 0.19646 0.15425 0.78814 0.0
C3515 C 0.22066 0.13884 0.79189 0.0
C3516 C 0.2283 0.12182 0.79491 0.0
C3517 C 0.20718 0.17097 0.78504 0.0
C3518 C 0.22491 0.17169 0.78575 0.0
C3519 C 0.23133 0.15549 0.78884 0.0
C3520 C 0.23736 0.18934 0.78448 0.0
C3521 C 0.19957 0.18797 0.78187 0.0
C3522 C 0.23617 0.19757 0.76787 0.0
C3523 C 0.24873 0.21351 0.76655 0.0
C3524 C 0.26275 0.22122 0.78172 0.0
C3525 C 0.26383 0.21309 0.79834 0.0
C3526 C 0.25122 0.19734 0.79974 0.0
H3527 H 0.18672 0.18671 0.78613 0.0
H3528 H 0.20812 0.20167 0.79018 0.0
H3529 H 0.19808 0.18873 0.76629 0.0
H3530 H 0.2258 0.1914 0.75575 0.0
H3531 H 0.24774 0.21945 0.7535 0.0
H3532 H 0.35085 0.99202 0.28125 0.0
H3533 H 0.33728 0.95796 0.27836 0.0
H3534 H 0.37648 0.94164 0.24822 0.0
H3535 H 0.39007 0.97592 0.2508 0.0
H3536 H 0.32475 0.92565 0.24419 0.0
H3537 H 0.37776 0.91372 0.29639 0.0
H3538 H 0.37446 0.93754 0.2949 0.0
H3539 H 0.38355 0.92486 0.27661 0.0
C3540 C 0.35651 0.98127 0.27368 0.0
C3541 C 0.37164 0.98704 0.26619 0.0
C3542 C 0.34868 0.96164 0.27208 0.0
C3543 C 0.35582 0.94691 0.26327 0.0
C3544 C 0.37066 0.95254 0.25526 0.0
H3545 H 0.30705 0.82103 0.23836 0.0
H3546 H 0.32084 0.85376 0.23555 0.0
C3547 C 0.37838 0.97227 0.25657 0.0
C3548 C 0.34799 0.92589 0.26318 0.0
H3549 H 0.35464 0.8872 0.28351 0.0
C3550 C 0.33139 0.91723 0.25266 0.0
C3551 C 0.35638 0.91469 0.27436 0.0
C3552 C 0.37398 0.92308 0.28635 0.0
C3553 C 0.32314 0.89798 0.25296 0.0
C3554 C 0.33151 0.88679 0.26421 0.0
C3555 C 0.34809 0.89549 0.27478 0.0
C3556 C 0.32306 0.86641 0.26577 0.0
C3557 C 0.30524 0.88991 0.24162 0.0
C3558 C 0.31978 0.86205 0.2837 0.0
C3559 C 0.31183 0.84323 0.28536 0.0
C3560 C 0.30699 0.8279 0.26917 0.0
C3561 C 0.31042 0.83225 0.25122 0.0
C3562 C 0.31831 0.85114 0.24956 0.0
H3563 H 0.29926 0.90132 0.2367 0.0
H3564 H 0.30575 0.87934 0.22865 0.0
H3565 H 0.29691 0.88227 0.25047 0.0
H3566 H 0.32323 0.87333 0.29652 0.0
H3567 H 0.30949 0.84073 0.29947 0.0
H3568 H 0.55012 0.3546 0.62728 0.0
H3569 H 0.54944 0.38183 0.61095 0.0
H3570 H 0.55473 0.34689 0.55779 0.0
H3571 H 0.55414 0.31917 0.57401 0.0
H3572 H 0.56877 0.40327 0.59448 0.0
H3573 H 0.51349 0.36375 0.53769 0.0
H3574 H 0.5211 0.35345 0.55775 0.0
H3575 H 0.53166 0.35302 0.537 0.0
C3576 C 0.55156 0.3529 0.61222 0.0
C3577 C 0.55254 0.33493 0.60199 0.0
C3578 C 0.55103 0.36845 0.6028 0.0
C3579 C 0.5516 0.36646 0.58291 0.0
C3580 C 0.55367 0.34875 0.57294 0.0
H3581 H 0.56416 0.47212 0.53367 0.0
H3582 H 0.56916 0.44338 0.54562 0.0
C3583 C 0.55374 0.333 0.58229 0.0
C3584 C 0.54965 0.38287 0.57284 0.0
H3585 H 0.52657 0.39518 0.53445 0.0
C3586 C 0.55952 0.40142 0.58134 0.0
C3587 C 0.53734 0.38074 0.55585 0.0
C3588 C 0.52517 0.36172 0.54666 0.0
C3589 C 0.55739 0.41776 0.5736 0.0
C3590 C 0.54559 0.41551 0.55621 0.0
C3591 C 0.5358 0.39696 0.54759 0.0
C3592 C 0.54255 0.4323 0.54734 0.0
C3593 C 0.56727 0.43733 0.58472 0.0
C3594 C 0.52583 0.43525 0.54319 0.0
C3595 C 0.5229 0.45144 0.53585 0.0
C3596 C 0.53664 0.46521 0.5326 0.0
C3597 C 0.55331 0.46195 0.53617 0.0
C3598 C 0.5562 0.44556 0.54321 0.0
H3599 H 0.57145 0.43708 0.60021 0.0
H3600 H 0.57896 0.44182 0.57852 0.0
H3601 H 0.55945 0.44833 0.58391 0.0
H3602 H 0.51502 0.42526 0.5461 0.0
H3603 H 0.50988 0.45344 0.53328 0.0
H3604 H 0.44465 0.74221 0.39446 0.0
H3605 H 0.41649 0.74609 0.37991 0.0
H3606 H 0.43998 0.7763 0.33938 0.0
H3607 H 0.46822 0.77274 0.354 0.0
H3608 H 0.40476 0.78256 0.37217 0.0
H3609 H 0.40233 0.72772 0.30673 0.0
H3610 H 0.41611 0.7291 0.32943 0.0
H3611 H 0.42184 0.74608 0.31425 0.0
C3612 C 0.44391 0.74991 0.38263 0.0
C3613 C 0.45879 0.75715 0.37543 0.0
C3614 C 0.42775 0.75212 0.37431 0.0
C3615 C 0.42607 0.76138 0.35846 0.0
C3616 C 0.44093 0.76901 0.35153 0.0
H3617 H 0.3455 0.77762 0.27417 0.0
H3618 H 0.37209 0.77696 0.29472 0.0
C3619 C 0.4571 0.76699 0.35995 0.0
C3620 C 0.40877 0.76228 0.3485 0.0
H3621 H 0.38048 0.74522 0.30591 0.0
C3622 C 0.39936 0.77433 0.35773 0.0
C3623 C 0.40169 0.75146 0.32971 0.0
C3624 C 0.41089 0.73772 0.31941 0.0
C3625 C 0.38337 0.77636 0.34835 0.0
C3626 C 0.37641 0.76578 0.32937 0.0
C3627 C 0.38573 0.75342 0.3204 0.0
C3628 C 0.35998 0.76784 0.31799 0.0
C3629 C 0.37436 0.79033 0.35859 0.0
C3630 C 0.34407 0.76308 0.32414 0.0
C3631 C 0.32863 0.76331 0.31219 0.0
C3632 C 0.3288 0.76849 0.29394 0.0
C3633 C 0.3448 0.77367 0.28815 0.0
C3634 C 0.3601 0.77329 0.29992 0.0
H3635 H 0.38314 0.80055 0.37098 0.0
H3636 H 0.36892 0.79871 0.34847 0.0
H3637 H 0.36363 0.78217 0.36425 0.0
H3638 H 0.34349 0.75841 0.3378 0.0
H3639 H 0.3166 0.75859 0.31689 0.0
H3640 H 0.01206 0.7258 0.09276 0.0
H3641 H 0.01545 0.69436 0.07724 0.0
H3642 H 0.07051 0.71405 0.09181 0.0
H3643 H 0.0672 0.74537 0.10806 0.0
H3644 H 0.03015 0.68286 0.0475 0.0
H3645 H 0.06429 0.66596 0.11378 0.0
H3646 H 0.05437 0.68631 0.11449 0.0
H3647 H 0.07491 0.68753 0.10703 0.0
C3648 C 0.02491 0.72349 0.09264 0.0
C3649 C 0.03935 0.73807 0.10184 0.0
C3650 C 0.02683 0.70548 0.08375 0.0
C3651 C 0.04323 0.70163 0.0837 0.0
C3652 C 0.05771 0.71642 0.09217 0.0
H3653 H 0.06604 0.58875 0.04065 0.0
H3654 H 0.06993 0.62373 0.05172 0.0
C3655 C 0.05579 0.73438 0.10133 0.0
C3656 C 0.04497 0.68208 0.07487 0.0
H3657 H 0.05991 0.64291 0.08502 0.0
C3658 C 0.03676 0.6742 0.0557 0.0
C3659 C 0.05367 0.67073 0.0855 0.0
C3660 C 0.06219 0.67796 0.10638 0.0
C3661 C 0.03665 0.65525 0.04705 0.0
C3662 C 0.04486 0.64374 0.05787 0.0
C3663 C 0.05369 0.6518 0.07674 0.0
C3664 C 0.04284 0.62278 0.05063 0.0
C3665 C 0.02749 0.64761 0.02645 0.0
C3666 C 0.02641 0.61069 0.04663 0.0
C3667 C 0.02416 0.5909 0.04034 0.0
C3668 C 0.03833 0.58259 0.03802 0.0
C3669 C 0.05487 0.59469 0.04217 0.0
C3670 C 0.0571 0.61464 0.0485 0.0
H3671 H 0.02671 0.65947 0.01838 0.0
H3672 H 0.03402 0.63738 0.01864 0.0
H3673 H 0.01418 0.63987 0.02651 0.0
H3674 H 0.01526 0.61654 0.04865 0.0
H3675 H 0.01122 0.5821 0.03751 0.0
H3676 H 0.04642 0.26563 0.84526 0.0
H3677 H 0.07532 0.27267 0.83792 0.0
H3678 H 0.09643 0.27157 0.89672 0.0
H3679 H 0.06729 0.26406 0.90416 0.0
H3680 H 0.10293 0.30267 0.85268 0.0
H3681 H 0.11898 0.23394 0.86654 0.0
H3682 H 0.09743 0.23771 0.86505 0.0
H3683 H 0.11315 0.24842 0.88647 0.0
C3684 C 0.05715 0.26684 0.85671 0.0
C3685 C 0.05444 0.26407 0.87529 0.0
C3686 C 0.07374 0.27094 0.85246 0.0
C3687 C 0.08813 0.27239 0.86663 0.0
C3688 C 0.08555 0.27012 0.88538 0.0
H3689 H 0.19443 0.28191 0.84543 0.0
H3690 H 0.17 0.28283 0.86222 0.0
C3691 C 0.06887 0.26593 0.88966 0.0
C3692 C 0.10562 0.27599 0.86137 0.0
H3693 H 0.1397 0.25525 0.85553 0.0
C3694 C 0.11102 0.29235 0.85346 0.0
C3695 C 0.11633 0.26267 0.86251 0.0
C3696 C 0.11119 0.24461 0.87046 0.0
C3697 C 0.12649 0.29546 0.84619 0.0
C3698 C 0.13676 0.28166 0.84649 0.0
C3699 C 0.13179 0.26578 0.8552 0.0
C3700 C 0.152 0.28266 0.83663 0.0
C3701 C 0.13165 0.31347 0.83819 0.0
C3702 C 0.15009 0.28227 0.81663 0.0
C3703 C 0.16399 0.28156 0.80694 0.0
C3704 C 0.18019 0.28113 0.81697 0.0
C3705 C 0.18214 0.28194 0.83712 0.0
C3706 C 0.16819 0.28259 0.8468 0.0
H3707 H 0.12576 0.32515 0.84455 0.0
H3708 H 0.14581 0.31877 0.84099 0.0
H3709 H 0.1271 0.31022 0.82231 0.0
H3710 H 0.13767 0.28185 0.80834 0.0
H3711 H 0.16181 0.28057 0.79141 0.0
H3712 H 0.53012 0.74423 0.89718 0.0
H3713 H 0.53417 0.72056 0.91737 0.0
H3714 H 0.48605 0.72322 0.93624 0.0
H3715 H 0.48177 0.74691 0.91619 0.0
H3716 H 0.52421 0.7175 0.96331 0.0
H3717 H 0.48807 0.6677 0.89527 0.0
H3718 H 0.5027 0.68982 0.89437 0.0
H3719 H 0.48289 0.69068 0.90277 0.0
C3720 C 0.52065 0.74028 0.90608 0.0
C3721 C 0.50538 0.74695 0.90467 0.0
C3722 C 0.52304 0.72684 0.91763 0.0
C3723 C 0.51027 0.72018 0.92793 0.0
C3724 C 0.49595 0.72832 0.92824 0.0
H3725 H 0.48477 0.61717 0.97374 0.0
H3726 H 0.48371 0.64435 0.95723 0.0
C3727 C 0.49351 0.74172 0.91669 0.0
C3728 C 0.51031 0.70243 0.93527 0.0
H3729 H 0.49665 0.65368 0.92154 0.0
C3730 C 0.51826 0.70352 0.95427 0.0
C3731 C 0.50231 0.68441 0.92327 0.0
C3732 C 0.49347 0.68289 0.90275 0.0
C3733 C 0.51847 0.68673 0.96166 0.0
C3734 C 0.51078 0.66868 0.94952 0.0
C3735 C 0.50264 0.66764 0.9306 0.0
C3736 C 0.51092 0.65072 0.95647 0.0
C3737 C 0.52669 0.68833 0.98243 0.0
C3738 C 0.52642 0.64502 0.96047 0.0
C3739 C 0.52707 0.62963 0.96985 0.0
C3740 C 0.51219 0.61987 0.97528 0.0
C3741 C 0.49642 0.62472 0.96989 0.0
C3742 C 0.49579 0.64011 0.96048 0.0
H3743 H 0.52911 0.70328 0.99081 0.0
H3744 H 0.51843 0.67854 0.98965 0.0
H3745 H 0.53915 0.68397 0.98279 0.0
H3746 H 0.53814 0.65306 0.95718 0.0
H3747 H 0.53939 0.6262 0.97395 0.0
H3748 H 0.09089 0.74439 0.74436 0.0
H3749 H 0.12117 0.74249 0.75072 0.0
H3750 H 0.13197 0.77591 0.70696 0.0
H3751 H 0.10199 0.77786 0.70043 0.0
H3752 H 0.13946 0.73077 0.70959 0.0
H3753 H 0.16742 0.79618 0.76701 0.0
H3754 H 0.146 0.78198 0.7656 0.0
H3755 H 0.15024 0.79692 0.7482 0.0
C3756 C 0.0998 0.75154 0.73632 0.0
C3757 C 0.09414 0.7611 0.72179 0.0
C3758 C 0.11697 0.75039 0.73992 0.0
C3759 C 0.12849 0.75898 0.72916 0.0
C3760 C 0.12306 0.76918 0.71527 0.0
H3761 H 0.23546 0.78801 0.73229 0.0
H3762 H 0.20438 0.78388 0.72365 0.0
C3763 C 0.10598 0.77024 0.71158 0.0
C3764 C 0.14616 0.75667 0.73143 0.0
H3765 H 0.18671 0.78059 0.75233 0.0
C3766 C 0.14989 0.74145 0.71907 0.0
C3767 C 0.15943 0.77082 0.74369 0.0
C3768 C 0.15571 0.78743 0.75698 0.0
C3769 C 0.16688 0.74043 0.71809 0.0
C3770 C 0.18025 0.75492 0.73004 0.0
C3771 C 0.17638 0.76971 0.74294 0.0
C3772 C 0.19845 0.75511 0.72989 0.0
C3773 C 0.17032 0.72435 0.70384 0.0
C3774 C 0.20524 0.73984 0.73506 0.0
C3775 C 0.22292 0.74198 0.73941 0.0
C3776 C 0.23389 0.75963 0.73922 0.0
C3777 C 0.22715 0.77432 0.73256 0.0
C3778 C 0.20948 0.77198 0.72771 0.0
H3779 H 0.15915 0.71818 0.69197 0.0
H3780 H 0.18177 0.7294 0.69741 0.0
H3781 H 0.17273 0.7126 0.71145 0.0
H3782 H 0.19695 0.72689 0.73722 0.0
H3783 H 0.22788 0.73053 0.74475 0.0
H3784 H 0.03061 0.3284 0.40439 0.0
H3785 H 0.03614 0.35793 0.42892 0.0
H3786 H 0.98405 0.3633 0.41232 0.0
H3787 H 0.97826 0.33338 0.38841 0.0
H3788 H 0.03519 0.39423 0.42778 0.0
H3789 H 0.98626 0.36522 0.46918 0.0
H3790 H 0.99272 0.35018 0.45 0.0
H3791 H 0.97703 0.36407 0.44449 0.0
C3792 C 0.02039 0.33597 0.40592 0.0
C3793 C 1.00395 0.32854 0.39471 0.0
C3794 C 0.02354 0.35278 0.41995 0.0
C3795 C 0.01035 0.36247 0.42281 0.0
C3796 C 0.99422 0.35565 0.41084 0.0
H3797 H 0.01946 0.47915 0.47826 0.0
H3798 H 0.01525 0.4483 0.45633 0.0
C3799 C 0.99097 0.33867 0.39709 0.0
C3800 C 0.01339 0.37972 0.4383 0.0
H3801 H 0.99705 0.39947 0.47653 0.0
C3802 C 0.02695 0.39532 0.43854 0.0
C3803 C 1.0029 0.38092 0.45265 0.0
C3804 C 0.98904 0.36411 0.45422 0.0
C3805 C 0.02983 0.41241 0.45225 0.0
C3806 C 0.01854 0.41407 0.46566 0.0
C3807 C 0.00546 0.39822 0.46597 0.0
C3808 C 0.01981 0.43234 0.4791 0.0
C3809 C 0.04496 0.42851 0.45228 0.0
C3810 C 0.0228 0.43331 0.49918 0.0
C3811 C 0.02493 0.45092 0.51181 0.0
C3812 C 0.02403 0.4677 0.50445 0.0
C3813 C 0.02015 0.46644 0.48435 0.0
C3814 C 0.01799 0.44889 0.47179 0.0
H3815 H 0.055 0.42302 0.44531 0.0
H3816 H 0.04057 0.43899 0.44403 0.0
H3817 H 0.05078 0.43625 0.46725 0.0
H3818 H 0.02404 0.42059 0.50506 0.0
H3819 H 0.02794 0.45152 0.52725 0.0
H3820 H 0.51276 0.23919 0.23388 0.0
H3821 H 0.4879 0.23982 0.2499 0.0
H3822 H 0.45766 0.244 0.19646 0.0
H3823 H 0.48248 0.24376 0.18039 0.0
H3824 H 0.47313 0.2763 0.24498 0.0
H3825 H 0.42633 0.20545 0.2262 0.0
H3826 H 0.44926 0.20759 0.22827 0.0
H3827 H 0.43743 0.21332 0.20757 0.0
C3828 C 0.50064 0.23951 0.22535 0.0
C3829 C 0.49955 0.24168 0.20595 0.0
C3830 C 0.4865 0.23988 0.23454 0.0
C3831 C 0.47108 0.24191 0.22428 0.0
C3832 C 0.46949 0.24223 0.20448 0.0
H3833 H 0.37945 0.27769 0.23462 0.0
H3834 H 0.40325 0.26362 0.22614 0.0
C3835 C 0.48368 0.24217 0.19536 0.0
C3836 C 0.45783 0.24748 0.23472 0.0
H3837 H 0.41623 0.23261 0.23974 0.0
C3838 C 0.46079 0.2667 0.24427 0.0
C3839 C 0.44182 0.23487 0.2334 0.0
C3840 C 0.43842 0.21408 0.22341 0.0
C3841 C 0.44772 0.27398 0.25178 0.0
C3842 C 0.4315 0.2615 0.25002 0.0
C3843 C 0.42876 0.24205 0.24112 0.0
C3844 C 0.41679 0.26891 0.25562 0.0
C3845 C 0.45104 0.29519 0.26044 0.0
C3846 C 0.41658 0.27636 0.27502 0.0
C3847 C 0.40306 0.28454 0.27989 0.0
C3848 C 0.38968 0.2854 0.26538 0.0
C3849 C 0.38981 0.27756 0.24602 0.0
C3850 C 0.40325 0.26934 0.24119 0.0
H3851 H 0.46333 0.3034 0.25767 0.0
H3852 H 0.44045 0.30151 0.25447 0.0
H3853 H 0.45162 0.29703 0.27632 0.0
H3854 H 0.42693 0.27601 0.28632 0.0
H3855 H 0.4032 0.29044 0.29492 0.0
H3856 H 0.58926 0.55332 0.3362 0.0
H3857 H 0.57519 0.54893 0.36407 0.0
H3858 H 0.61894 0.53112 0.39138 0.0
H3859 H 0.63314 0.53547 0.36374 0.0
H3860 H 0.58186 0.50394 0.38223 0.0
H3861 H 0.59008 0.57797 0.42511 0.0
H3862 H 0.58548 0.57393 0.39902 0.0
H3863 H 0.60581 0.57164 0.41097 0.0
C3864 C 0.59611 0.54905 0.34839 0.0
C3865 C 0.61228 0.54465 0.34775 0.0
C3866 C 0.58802 0.54647 0.36422 0.0
C3867 C 0.59606 0.53961 0.37958 0.0
C3868 C 0.6126 0.5364 0.37955 0.0
H3869 H 0.56883 0.52685 0.48994 0.0
H3870 H 0.58308 0.53331 0.46281 0.0
C3871 C 0.62071 0.53899 0.36379 0.0
C3872 C 0.58668 0.53407 0.39485 0.0
H3873 H 0.57468 0.55227 0.43671 0.0
C3874 C 0.58022 0.51442 0.39419 0.0
C3875 C 0.58472 0.54788 0.41028 0.0
C3876 C 0.59188 0.56908 0.41159 0.0
C3877 C 0.57204 0.50811 0.4089 0.0
C3878 C 0.57001 0.52195 0.42446 0.0
C3879 C 0.57628 0.54166 0.42485 0.0
C3880 C 0.56185 0.51643 0.44078 0.0
C3881 C 0.5662 0.48669 0.40783 0.0
C3882 C 0.54531 0.50454 0.43749 0.0
C3883 C 0.53752 0.50012 0.45305 0.0
C3884 C 0.54588 0.50814 0.47212 0.0
C3885 C 0.56231 0.52015 0.47541 0.0
C3886 C 0.57035 0.52402 0.45989 0.0
H3887 H 0.57334 0.47838 0.39862 0.0
H3888 H 0.56789 0.48295 0.42241 0.0
H3889 H 0.5524 0.48201 0.40124 0.0
H3890 H 0.53821 0.49909 0.42293 0.0
H3891 H 0.5246 0.49125 0.45012 0.0
H3892 H 0.24687 0.83567 0.04856 0.0
H3893 H 0.26666 0.84532 0.07933 0.0
H3894 H 0.29562 0.80408 0.05926 0.0
H3895 H 0.2773 0.7963 0.02775 0.0
H3896 H 0.27245 0.82779 0.10508 0.0
H3897 H 0.33495 0.84605 0.08267 0.0
H3898 H 0.31516 0.84267 0.06592 0.0
H3899 H 0.32453 0.82243 0.06948 0.0
C3900 C 0.25795 0.82935 0.05037 0.0
C3901 C 0.2613 0.81631 0.03518 0.0
C3902 C 0.26916 0.83473 0.06807 0.0
C3903 C 0.28329 0.82626 0.0713 0.0
C3904 C 0.28564 0.8119 0.05673 0.0
H3905 H 0.31651 0.7735 0.1485 0.0
H3906 H 0.31754 0.79161 0.12263 0.0
C3907 C 0.27493 0.80719 0.0388 0.0
C3908 C 0.29431 0.83038 0.09057 0.0
H3909 H 0.33496 0.83059 0.11181 0.0
C3910 C 0.28623 0.82926 0.1067 0.0
C3911 C 0.31237 0.83263 0.09288 0.0
C3912 C 0.3222 0.83624 0.07678 0.0
C3913 C 0.29535 0.82798 0.12445 0.0
C3914 C 0.31294 0.8276 0.12594 0.0
C3915 C 0.32143 0.83072 0.11048 0.0
C3916 C 0.32101 0.81933 0.14141 0.0
C3917 C 0.28569 0.82502 0.14088 0.0
C3918 C 0.32445 0.82926 0.16061 0.0
C3919 C 0.32404 0.81889 0.17557 0.0
C3920 C 0.3199 0.79859 0.17127 0.0
C3921 C 0.31954 0.78908 0.15232 0.0
C3922 C 0.32015 0.79946 0.13745 0.0
H3923 H 0.27195 0.82541 0.13713 0.0
H3924 H 0.28641 0.81092 0.14492 0.0
H3925 H 0.29164 0.83647 0.15376 0.0
H3926 H 0.3253 0.84465 0.16386 0.0
H3927 H 0.32492 0.82661 0.19019 0.0
H3928 H 0.95192 0.51874 0.80841 0.0
H3929 H 0.96597 0.51587 0.84026 0.0
H3930 H 0.93576 0.5517 0.86751 0.0
H3931 H 0.92133 0.55416 0.83555 0.0
H3932 H 0.9864 0.54038 0.86872 0.0
H3933 H 0.9298 0.51177 0.89978 0.0
H3934 H 0.92821 0.51332 0.87457 0.0
H3935 H 0.92896 0.53429 0.89252 0.0
C3936 C 0.94802 0.52583 0.82113 0.0
C3937 C 0.93523 0.53658 0.81906 0.0
C3938 C 0.95621 0.52423 0.83955 0.0
C3939 C 0.952 0.53327 0.85682 0.0
C3940 C 0.93916 0.54401 0.85478 0.0
H3941 H 0.99699 0.54253 0.98178 0.0
H3942 H 0.98008 0.546 0.95132 0.0
C3943 C 0.93089 0.54554 0.8363 0.0
C3944 C 0.96161 0.53206 0.87663 0.0
H3945 H 0.95653 0.52147 0.9214 0.0
C3946 C 0.97973 0.53613 0.88011 0.0
C3947 C 0.95331 0.52668 0.89201 0.0
C3948 C 0.93401 0.52108 0.88953 0.0
C3949 C 0.98953 0.53519 0.89801 0.0
C3950 C 0.98125 0.52961 0.91331 0.0
C3951 C 0.96314 0.52577 0.90999 0.0
C3952 C 0.99118 0.52712 0.93239 0.0
C3953 C 0.00884 0.54068 0.90042 0.0
C3954 C 1.00292 0.515 0.93252 0.0
C3955 C 0.01259 0.51302 0.94994 0.0
C3956 C 0.01092 0.52296 0.96813 0.0
C3957 C 0.99882 0.5347 0.96818 0.0
C3958 C 0.98907 0.53667 0.95063 0.0
H3959 H 0.01304 0.55039 0.89051 0.0
H3960 H 0.01474 0.54797 0.9155 0.0
H3961 H 0.01378 0.52748 0.89686 0.0
H3962 H 0.00465 0.50689 0.91902 0.0
H3963 H 0.02153 0.50365 0.94908 0.0
H3964 H 0.30919 0.20553 0.56377 0.0
H3965 H 0.3066 0.22037 0.59627 0.0
H3966 H 0.25144 0.20285 0.58112 0.0
H3967 H 0.25394 0.18729 0.54876 0.0
H3968 H 0.29223 0.24851 0.61063 0.0
H3969 H 0.25924 0.18013 0.62842 0.0
H3970 H 0.26862 0.18076 0.6069 0.0
H3971 H 0.24792 0.18638 0.60769 0.0
C3972 C 0.29648 0.20489 0.56728 0.0
C3973 C 0.28177 0.195 0.55367 0.0
C3974 C 0.29502 0.2134 0.58592 0.0
C3975 C 0.27884 0.21236 0.59137 0.0
C3976 C 0.26409 0.20333 0.57751 0.0
H3977 H 0.25116 0.24959 0.70421 0.0
H3978 H 0.25027 0.23968 0.66941 0.0
C3979 C 0.26554 0.19456 0.55893 0.0
C3980 C 0.27755 0.22042 0.61164 0.0
H3981 H 0.26246 0.20845 0.65174 0.0
C3982 C 0.28569 0.23974 0.61959 0.0
C3983 C 0.26904 0.209 0.62343 0.0
C3984 C 0.26085 0.18788 0.61627 0.0
C3985 C 0.28559 0.2479 0.6389 0.0
C3986 C 0.27721 0.23643 0.65066 0.0
C3987 C 0.26878 0.21726 0.64266 0.0
C3988 C 0.27779 0.24365 0.6716 0.0
C3989 C 0.29441 0.26877 0.64652 0.0
C3990 C 0.29354 0.24912 0.6844 0.0
C3991 C 0.29411 0.25474 0.70427 0.0
C3992 C 0.2789 0.25494 0.71184 0.0
C3993 C 0.26312 0.24966 0.69893 0.0
C3994 C 0.26258 0.24398 0.67902 0.0
H3995 H 0.29591 0.27688 0.63461 0.0
H3996 H 0.28717 0.27591 0.65657 0.0
H3997 H 0.30741 0.26959 0.65458 0.0
H3998 H 0.30542 0.2486 0.67908 0.0
H3999 H 0.3065 0.25866 0.71371 0.0
H4000 H 0.62102 0.52868 0.23132 0.0
H4001 H 0.61032 0.52727 0.19718 0.0
H4002 H 0.55934 0.52619 0.20952 0.0
H4003 H 0.56987 0.52745 0.2438 0.0
H4004 H 0.56237 0.49764 0.17667 0.0
H4005 H 0.59486 0.57279 0.17515 0.0
H4006 H 0.60815 0.55872 0.18608 0.0
H4007 H 0.59082 0.56487 0.19726 0.0
C4008 C 0.60754 0.52821 0.22682 0.0
C4009 C 0.59628 0.52829 0.24023 0.0
C4010 C 0.60148 0.52744 0.20734 0.0
C4011 C 0.58414 0.52686 0.20104 0.0
C4012 C 0.5728 0.52669 0.21427 0.0
H4013 H 0.53991 0.54805 0.09135 0.0
H4014 H 0.55003 0.54892 0.12553 0.0
C4015 C 0.57883 0.52743 0.23379 0.0
C4016 C 0.57787 0.52635 0.18054 0.0
H4017 H 0.58159 0.55267 0.14506 0.0
C4018 C 0.56647 0.50965 0.1697 0.0
C4019 C 0.58319 0.54219 0.17174 0.0
C4020 C 0.59482 0.56075 0.18314 0.0
C4021 C 0.56034 0.50826 0.15001 0.0
C4022 C 0.56611 0.52388 0.14102 0.0
C4023 C 0.57735 0.54068 0.15199 0.0
C4024 C 0.56029 0.52334 0.12034 0.0
C4025 C 0.54754 0.49025 0.13917 0.0
C4026 C 0.563 0.50886 0.10617 0.0
C4027 C 0.55699 0.50815 0.08668 0.0
C4028 C 0.54859 0.52222 0.08113 0.0
C4029 C 0.54643 0.53709 0.09528 0.0
C4030 C 0.55216 0.53758 0.11477 0.0
H4031 H 0.54091 0.4823 0.14915 0.0
H4032 H 0.53771 0.4937 0.12855 0.0
H4033 H 0.55437 0.4805 0.13119 0.0
H4034 H 0.56973 0.49809 0.11018 0.0
H4035 H 0.55898 0.49669 0.07597 0.0
H4036 H 0.28298 0.8294 0.97259 0.0
H4037 H 0.2798 0.81165 0.93953 0.0
H4038 H 0.23357 0.83115 0.92343 0.0
H4039 H 0.23653 0.84887 0.95648 0.0
H4040 H 0.2479 0.78205 0.91812 0.0
H4041 H 0.26777 0.84612 0.88512 0.0
H4042 H 0.27374 0.84631 0.91059 0.0
H4043 H 0.25235 0.84768 0.901 0.0
C4044 C 0.27218 0.82996 0.962 0.0
C4045 C 0.25995 0.8404 0.96702 0.0
C4046 C 0.27037 0.81979 0.94324 0.0
C4047 C 0.25643 0.82016 0.92935 0.0
C4048 C 0.24439 0.83085 0.93415 0.0
H4049 H 0.23596 0.77847 0.8059 0.0
H4050 H 0.23041 0.78883 0.83869 0.0
C4051 C 0.24617 0.84099 0.95292 0.0
C4052 C 0.25456 0.80956 0.90964 0.0
H4053 H 0.25782 0.8161 0.86397 0.0
C4054 C 0.24994 0.78939 0.90618 0.0
C4055 C 0.2574 0.8194 0.89441 0.0
C4056 C 0.26322 0.84107 0.89786 0.0
C4057 C 0.24801 0.77865 0.88751 0.0
C4058 C 0.25082 0.78853 0.87225 0.0
C4059 C 0.2553 0.80871 0.87576 0.0
C4060 C 0.25131 0.77844 0.85289 0.0
C4061 C 0.24317 0.75694 0.88423 0.0
C4062 C 0.26467 0.76903 0.85035 0.0
C4063 C 0.26786 0.76336 0.83189 0.0
C4064 C 0.25771 0.76707 0.81593 0.0
C4065 C 0.24376 0.77548 0.81825 0.0
C4066 C 0.24059 0.78127 0.8368 0.0
H4067 H 0.23693 0.75187 0.89602 0.0
H4068 H 0.23439 0.75086 0.87018 0.0
H4069 H 0.25495 0.75122 0.88387 0.0
H4070 H 0.2733 0.76723 0.86268 0.0
H4071 H 0.27874 0.7569 0.83011 0.0
H4072 H 0.9665 0.53125 0.72096 0.0
H4073 H 0.97722 0.52736 0.69064 0.0
H4074 H 0.9285 0.53138 0.66012 0.0
H4075 H 0.91767 0.53576 0.69098 0.0
H4076 H 0.97033 0.50164 0.65923 0.0
H4077 H 0.95804 0.56799 0.63574 0.0
H4078 H 0.95568 0.56345 0.65953 0.0
H4079 H 0.9391 0.55198 0.63903 0.0
C4080 C 0.95789 0.53143 0.70792 0.0
C4081 C 0.94106 0.53403 0.70892 0.0
C4082 C 0.96416 0.52911 0.6903 0.0
C4083 C 0.95404 0.52935 0.67256 0.0
C4084 C 0.93704 0.53162 0.67334 0.0
H4085 H 0.98171 0.51901 0.55343 0.0
H4086 H 0.96613 0.5207 0.58086 0.0
C4087 C 0.93069 0.53396 0.69115 0.0
C4088 C 0.96149 0.52686 0.65372 0.0
H4089 H 0.9692 0.54724 0.61414 0.0
C4090 C 0.97001 0.51173 0.64949 0.0
C4091 C 0.96127 0.5397 0.64044 0.0
C4092 C 0.95318 0.5568 0.64393 0.0
C4093 C 0.97807 0.50915 0.63296 0.0
C4094 C 0.97821 0.52224 0.61993 0.0
C4095 C 0.96936 0.53711 0.62385 0.0
C4096 C 0.98779 0.52101 0.60268 0.0
C4097 C 0.98613 0.49201 0.62945 0.0
C4098 C 0.00542 0.52077 0.60518 0.0
C4099 C 0.01441 0.51981 0.5894 0.0
C4100 C 0.00627 0.5191 0.57028 0.0
C4101 C 0.98862 0.5194 0.56773 0.0
C4102 C 0.97962 0.52046 0.58359 0.0
H4103 H 0.98029 0.48028 0.63651 0.0
H4104 H 0.98475 0.48618 0.61375 0.0
H4105 H 1.00001 0.49648 0.63573 0.0
H4106 H 0.01245 0.52164 0.61952 0.0
H4107 H 0.02794 0.5198 0.59233 0.0
H4108 H 0.24617 0.18753 0.4512 0.0
H4109 H 0.24387 0.20318 0.42275 0.0
H4110 H 0.29889 0.21592 0.42785 0.0
H4111 H 0.3014 0.20076 0.45582 0.0
H4112 H 0.27611 0.24842 0.42236 0.0
H4113 H 0.26238 0.17989 0.36823 0.0
H4114 H 0.2534 0.18127 0.39018 0.0
H4115 H 0.27585 0.18208 0.39132 0.0
C4116 C 0.25776 0.1938 0.44634 0.0
C4117 C 0.27395 0.1929 0.45604 0.0
C4118 C 0.25643 0.20272 0.43007 0.0
C4119 C 0.27125 0.21074 0.4232 0.0
C4120 C 0.28731 0.20997 0.43293 0.0
H4121 H 0.31001 0.25054 0.32807 0.0
H4122 H 0.30257 0.23601 0.35551 0.0
C4123 C 0.28866 0.20126 0.44907 0.0
C4124 C 0.27047 0.21962 0.40564 0.0
H4125 H 0.26995 0.20886 0.35689 0.0
C4126 C 0.27433 0.2398 0.40795 0.0
C4127 C 0.26854 0.20836 0.38694 0.0
C4128 C 0.26478 0.18667 0.38381 0.0
C4129 C 0.27671 0.24898 0.39214 0.0
C4130 C 0.27521 0.23771 0.37349 0.0
C4131 C 0.27097 0.21752 0.37113 0.0
C4132 C 0.27936 0.24656 0.35662 0.0
C4133 C 0.2817 0.27069 0.39559 0.0
C4134 C 0.26876 0.25732 0.34798 0.0
C4135 C 0.27297 0.26559 0.33216 0.0
C4136 C 0.28787 0.26331 0.32474 0.0
C4137 C 0.29845 0.25258 0.33345 0.0
C4138 C 0.29418 0.24421 0.34911 0.0
H4139 H 0.28427 0.27729 0.41123 0.0
H4140 H 0.29333 0.27541 0.38934 0.0
H4141 H 0.27116 0.2762 0.38825 0.0
H4142 H 0.25722 0.25928 0.35345 0.0
H4143 H 0.26473 0.274 0.3259 0.0
H4144 H 0.37127 0.67828 0.53851 0.0
H4145 H 0.39293 0.65892 0.53678 0.0
H4146 H 0.35326 0.6084 0.51018 0.0
H4147 H 0.33154 0.62745 0.51228 0.0
H4148 H 0.37788 0.60215 0.53871 0.0
H4149 H 0.40704 0.64038 0.48498 0.0
H4150 H 0.40609 0.6552 0.50749 0.0
H4151 H 0.38656 0.64286 0.49123 0.0
C4152 C 0.36719 0.66304 0.53239 0.0
C4153 C 0.34982 0.65436 0.52528 0.0
C4154 C 0.37954 0.65206 0.5314 0.0
C4155 C 0.3746 0.63243 0.52304 0.0
C4156 C 0.35722 0.6236 0.51662 0.0
H4157 H 0.4147 0.53557 0.48457 0.0
H4158 H 0.39763 0.55978 0.49036 0.0
C4159 C 0.34488 0.63449 0.51778 0.0
C4160 C 0.38746 0.62101 0.52014 0.0
H4161 H 0.4186 0.61472 0.4935 0.0
C4162 C 0.3869 0.60494 0.52896 0.0
C4163 C 0.39908 0.62485 0.50736 0.0
C4164 C 0.39972 0.64166 0.49707 0.0
C4165 C 0.39751 0.59224 0.525 0.0
C4166 C 0.40874 0.59575 0.51179 0.0
C4167 C 0.40979 0.61218 0.5035 0.0
C4168 C 0.41925 0.58218 0.50615 0.0
C4169 C 0.39653 0.57505 0.53478 0.0
C4170 C 0.43702 0.58733 0.51235 0.0
C4171 C 0.44678 0.57366 0.50891 0.0
C4172 C 0.43879 0.55476 0.49927 0.0
C4173 C 0.42111 0.55005 0.49202 0.0
C4174 C 0.41137 0.56375 0.49544 0.0
H4175 H 0.39001 0.57671 0.54752 0.0
H4176 H 0.38913 0.56194 0.52434 0.0
H4177 H 0.40956 0.5728 0.53952 0.0
H4178 H 0.44321 0.60163 0.52048 0.0
H4179 H 0.46048 0.57768 0.51431 0.0
H4180 H 0.83972 0.94273 0.52564 0.0
H4181 H 0.86876 0.95735 0.52176 0.0
H4182 H 0.88806 0.91318 0.54629 0.0
H4183 H 0.85921 0.899 0.55091 0.0
H4184 H 0.90766 0.94656 0.56235 0.0
H4185 H 0.89816 0.94359 0.48341 0.0
H4186 H 0.88375 0.95597 0.49454 0.0
H4187 H 0.88218 0.93077 0.49491 0.0
C4188 C 0.8501 0.93597 0.52999 0.0
C4189 C 0.84703 0.91958 0.5385 0.0
C4190 C 0.86675 0.94428 0.52761 0.0
C4191 C 0.88071 0.93624 0.53339 0.0
C4192 C 0.87758 0.91967 0.5416 0.0
H4193 H 0.98433 0.97833 0.508 0.0
H4194 H 0.9557 0.95855 0.50786 0.0
C4195 C 0.86099 0.91149 0.54416 0.0
C4196 C 0.89869 0.94578 0.53221 0.0
H4197 H 0.92405 0.96468 0.50199 0.0
C4198 C 0.91123 0.95033 0.54907 0.0
C4199 C 0.90361 0.95048 0.51486 0.0
C4200 C 0.89126 0.94476 0.49587 0.0
C4201 C 0.92825 0.95983 0.54923 0.0
C4202 C 0.93291 0.96564 0.5322 0.0
C4203 C 0.92054 0.96055 0.51515 0.0
C4204 C 0.95035 0.97751 0.53203 0.0
C4205 C 0.94108 0.96328 0.5677 0.0
C4206 C 0.95688 0.99491 0.54538 0.0
C4207 C 0.97327 0.00595 0.54569 0.0
C4208 C 0.98348 1.00021 0.53233 0.0
C4209 C 0.97684 0.98306 0.51858 0.0
C4210 C 0.96044 0.9718 0.51845 0.0
H4211 H 0.93733 0.95242 0.57669 0.0
H4212 H 0.95415 0.96278 0.56473 0.0
H4213 H 0.94153 0.97767 0.57634 0.0
H4214 H 0.94924 1.00008 0.55557 0.0
H4215 H 0.97785 0.01921 0.5563 0.0
H4216 H 0.9221 0.06633 0.25151 0.0
H4217 H 0.9096 0.09468 0.25576 0.0
H4218 H 0.86103 0.05848 0.25891 0.0
H4219 H 0.87391 0.03032 0.25593 0.0
H4220 H 0.88413 0.10784 0.2397 0.0
H4221 H 0.87145 0.09304 0.31095 0.0
H4222 H 0.88352 0.07962 0.29662 0.0
H4223 H 0.86038 0.07345 0.29173 0.0
C4224 C 0.90858 0.0644 0.25233 0.0
C4225 C 0.89885 0.04631 0.25331 0.0
C4226 C 0.90151 0.08059 0.255 0.0
C4227 C 0.8846 0.07872 0.25841 0.0
C4228 C 0.87431 0.06027 0.25706 0.0
H4229 H 0.81166 0.14463 0.27097 0.0
H4230 H 0.82976 0.12139 0.27156 0.0
C4231 C 0.88151 0.04417 0.25492 0.0
C4232 C 0.87808 0.09607 0.26453 0.0
H4233 H 0.85817 0.11679 0.2989 0.0
C4234 C 0.87866 0.10995 0.25277 0.0
C4235 C 0.87136 0.099 0.28189 0.0
C4236 C 0.87182 0.08559 0.29612 0.0
C4237 C 0.87165 0.12606 0.25721 0.0
C4238 C 0.86393 0.12827 0.27386 0.0
C4239 C 0.86407 0.11492 0.28612 0.0
C4240 C 0.85364 0.14281 0.27721 0.0
C4241 C 0.87181 0.14011 0.24359 0.0
C4242 C 0.8612 0.16257 0.28106 0.0
C4243 C 0.85085 0.17597 0.28081 0.0
C4244 C 0.83287 0.16971 0.27677 0.0
C4245 C 0.82545 0.14995 0.27429 0.0
C4246 C 0.83577 0.13663 0.27455 0.0
H4247 H 0.87626 0.13488 0.23003 0.0
H4248 H 0.85878 0.14278 0.23979 0.0
H4249 H 0.88057 0.15406 0.25082 0.0
H4250 H 0.87503 0.16754 0.28346 0.0
H4251 H 0.85689 0.19115 0.28312 0.0
H4252 H 0.75361 0.15817 0.99982 0.0
H4253 H 0.72698 0.13626 0.00217 0.0
H4254 H 0.74581 0.13882 0.0625 0.0
H4255 H 0.77241 0.16071 0.06041 0.0
H4256 H 0.73489 0.10024 0.03709 0.0
H4257 H 0.68667 0.14564 0.03197 0.0
H4258 H 0.70121 0.14682 0.01493 0.0
H4259 H 0.70934 0.15575 0.04023 0.0
C4260 C 0.75196 0.15436 0.01368 0.0
C4261 C 0.76516 0.16102 0.02988 0.0
C4262 C 0.73675 0.14189 0.01498 0.0
C4263 C 0.73456 0.136 0.03249 0.0
C4264 C 0.74736 0.14326 0.04888 0.0
H4265 H 0.65699 0.05713 0.06927 0.0
H4266 H 0.68412 0.07732 0.066 0.0
C4267 C 0.76251 0.15579 0.04764 0.0
C4268 C 0.71952 0.12109 0.03334 0.0
H4269 H 0.67615 0.11239 0.03073 0.0
C4270 C 0.72203 0.10285 0.03576 0.0
C4271 C 0.70287 0.12469 0.03156 0.0
C4272 C 0.69976 0.14431 0.02966 0.0
C4273 C 0.70815 0.08793 0.03623 0.0
C4274 C 0.69151 0.09152 0.03437 0.0
C4275 C 0.689 0.10976 0.03197 0.0
C4276 C 0.67646 0.07677 0.03551 0.0
C4277 C 0.71127 0.06838 0.03844 0.0
C4278 C 0.66348 0.06944 0.01929 0.0
C4279 C 0.64806 0.05772 0.02103 0.0
C4280 C 0.64532 0.05344 0.03912 0.0
C4281 C 0.65877 0.05997 0.05511 0.0
C4282 C 0.67424 0.07157 0.0533 0.0
H4283 H 0.72436 0.067 0.03619 0.0
H4284 H 0.70982 0.0661 0.05324 0.0
H4285 H 0.70168 0.05683 0.028 0.0
H4286 H 0.66507 0.07335 0.00545 0.0
H4287 H 0.63804 0.05262 0.00839 0.0
H4288 H 0.18045 0.44433 0.26052 0.0
H4289 H 0.19404 0.41637 0.25666 0.0
H4290 H 0.21998 0.43382 0.3158 0.0
H4291 H 0.20666 0.46139 0.31976 0.0
H4292 H 0.24224 0.42253 0.28952 0.0
H4293 H 0.18274 0.36563 0.27948 0.0
H4294 H 0.18217 0.38479 0.26612 0.0
H4295 H 0.18448 0.38999 0.29197 0.0
C4296 C 0.18908 0.44235 0.27273 0.0
C4297 C 0.19225 0.45569 0.29047 0.0
C4298 C 0.19685 0.42608 0.27055 0.0
C4299 C 0.20816 0.4224 0.28598 0.0
C4300 C 0.21147 0.43587 0.3035 0.0
H4301 H 0.23955 0.31138 0.29653 0.0
H4302 H 0.22623 0.33933 0.29825 0.0
C4303 C 0.20371 0.45193 0.30571 0.0
C4304 C 0.2167 0.40494 0.28416 0.0
H4305 H 0.2084 0.35532 0.27784 0.0
C4306 C 0.23475 0.40784 0.28681 0.0
C4307 C 0.20734 0.3855 0.28119 0.0
C4308 C 0.18811 0.38108 0.27963 0.0
C4309 C 0.24349 0.39236 0.28638 0.0
C4310 C 0.23413 0.37272 0.28275 0.0
C4311 C 0.216 0.36993 0.28038 0.0
C4312 C 0.24269 0.35512 0.28176 0.0
C4313 C 0.26284 0.39763 0.29069 0.0
C4314 C 0.25655 0.35359 0.27175 0.0
C4315 C 0.26459 0.33768 0.27129 0.0
C4316 C 0.25885 0.32196 0.28016 0.0
C4317 C 0.24461 0.32302 0.28956 0.0
C4318 C 0.23684 0.33923 0.29047 0.0
H4319 H 0.26772 0.41238 0.29955 0.0
H4320 H 0.26814 0.3874 0.29857 0.0
H4321 H 0.26781 0.39752 0.2769 0.0
H4322 H 0.26115 0.36463 0.26391 0.0
H4323 H 0.27519 0.33752 0.26349 0.0
H4324 H 0.24381 0.40816 0.0543 0.0
H4325 H 0.21724 0.41999 0.05183 0.0
H4326 H 0.21765 0.42027 0.99136 0.0
H4327 H 0.24412 0.40843 0.99369 0.0
H4328 H 0.21319 0.45485 0.04134 0.0
H4329 H 0.16775 0.39369 0.99072 0.0
H4330 H 0.18802 0.39134 0.00335 0.0
H4331 H 0.18731 0.4022 0.98229 0.0
C4332 C 0.23813 0.41044 0.04039 0.0
C4333 C 0.2462 0.4073 0.0242 0.0
C4334 C 0.22292 0.41728 0.03901 0.0
C4335 C 0.21524 0.42088 0.02136 0.0
C4336 C 0.22306 0.41731 0.00508 0.0
H4337 H 0.13059 0.47432 0.98552 0.0
H4338 H 0.15432 0.45771 0.98703 0.0
C4339 C 0.23831 0.41062 0.00647 0.0
C4340 C 0.1998 0.4296 0.02031 0.0
H4341 H 0.15816 0.42282 0.99751 0.0
C4342 C 0.20112 0.44774 0.03187 0.0
C4343 C 0.18404 0.42051 0.0078 0.0
C4344 C 0.18156 0.40078 0.99544 0.0
C4345 C 0.18735 0.45713 0.03106 0.0
C4346 C 0.17153 0.44801 0.01868 0.0
C4347 C 0.17019 0.42986 0.00706 0.0
C4348 C 0.15636 0.45721 0.01757 0.0
C4349 C 0.19008 0.47708 0.04308 0.0
C4350 C 0.14918 0.46213 0.0341 0.0
C4351 C 0.13563 0.47175 0.03331 0.0
C4352 C 0.1288 0.4767 0.01594 0.0
C4353 C 0.13565 0.47115 0.99926 0.0
C4354 C 0.14919 0.46148 1.00005 0.0
H4355 H 0.20393 0.48407 0.04755 0.0
H4356 H 0.18367 0.48644 0.03501 0.0
H4357 H 0.1845 0.47606 0.05639 0.0
H4358 H 0.15418 0.45869 0.04773 0.0
H4359 H 0.13085 0.47579 0.04651 0.0
H4360 H 0.87677 0.96625 0.27867 0.0
H4361 H 0.85847 0.93434 0.2754 0.0
H4362 H 0.89071 0.90976 0.23963 0.0
H4363 H 0.90926 0.94199 0.24274 0.0
H4364 H 0.85275 0.89542 0.22725 0.0
H4365 H 0.8763 0.89344 0.30381 0.0
H4366 H 0.87003 0.91536 0.3002 0.0
H4367 H 0.888 0.90914 0.29038 0.0
C4368 C 0.87996 0.95412 0.26996 0.0
C4369 C 0.8946 0.95659 0.26116 0.0
C4370 C 0.86948 0.9359 0.26815 0.0
C4371 C 0.87346 0.91971 0.25762 0.0
C4372 C 0.88753 0.92213 0.24793 0.0
H4373 H 0.82404 0.80775 0.27863 0.0
H4374 H 0.84544 0.83524 0.2747 0.0
C4375 C 0.89806 0.94051 0.24967 0.0
C4376 C 0.86313 0.90035 0.25759 0.0
H4377 H 0.85069 0.87062 0.28823 0.0
C4378 C 0.85243 0.88978 0.24047 0.0
C4379 C 0.86299 0.89295 0.27481 0.0
C4380 C 0.87505 0.90319 0.29333 0.0
C4381 C 0.841 0.87229 0.24029 0.0
C4382 C 0.83997 0.86553 0.25786 0.0
C4383 C 0.85127 0.8758 0.27479 0.0
C4384 C 0.82707 0.84815 0.25922 0.0
C4385 C 0.8303 0.8613 0.22121 0.0
C4386 C 0.80956 0.84619 0.25205 0.0
C4387 C 0.79747 0.82996 0.25351 0.0
C4388 C 0.80251 0.81574 0.26289 0.0
C4389 C 0.81987 0.81811 0.27083 0.0
C4390 C 0.83207 0.83398 0.26875 0.0
H4391 H 0.83683 0.86438 0.20892 0.0
H4392 H 0.82756 0.84551 0.22068 0.0
H4393 H 0.81795 0.86591 0.21909 0.0
H4394 H 0.80516 0.8573 0.2455 0.0
H4395 H 0.7841 0.82875 0.24762 0.0
H4396 H 0.67481 0.0574 0.77072 0.0
H4397 H 0.68873 0.08967 0.76688 0.0
H4398 H 0.72557 0.09531 0.81862 0.0
H4399 H 0.71143 0.06339 0.82281 0.0
H4400 H 0.71743 0.12802 0.8196 0.0
H4401 H 0.73049 0.10807 0.74587 0.0
H4402 H 0.70799 0.10137 0.74645 0.0
H4403 H 0.72279 0.09024 0.75958 0.0
C4404 C 0.68596 0.06538 0.78123 0.0
C4405 C 0.6919 0.05736 0.79703 0.0
C4406 C 0.69409 0.08399 0.77894 0.0
C4407 C 0.70863 0.09527 0.79221 0.0
C4408 C 0.71451 0.08725 0.808 0.0
H4409 H 0.77467 0.1972 0.76389 0.0
H4410 H 0.76118 0.16513 0.76856 0.0
C4411 C 0.70636 0.06874 0.81036 0.0
C4412 C 0.71744 0.11546 0.79005 0.0
H4413 H 0.73396 0.14162 0.75786 0.0
C4414 C 0.72109 0.13088 0.80607 0.0
C4415 C 0.72276 0.11964 0.77265 0.0
C4416 C 0.721 0.10393 0.75524 0.0
C4417 C 0.72953 0.14991 0.80518 0.0
C4418 C 0.73403 0.15434 0.78745 0.0
C4419 C 0.73052 0.13881 0.7715 0.0
C4420 C 0.74271 0.17457 0.78513 0.0
C4421 C 0.73406 0.16478 0.8237 0.0
C4422 C 0.7372 0.19126 0.79269 0.0
C4423 C 0.74547 0.20986 0.79063 0.0
C4424 C 0.75907 0.21251 0.78015 0.0
C4425 C 0.76427 0.19588 0.77206 0.0
C4426 C 0.75641 0.17735 0.77469 0.0
H4427 H 0.73545 0.15794 0.83658 0.0
H4428 H 0.74623 0.17535 0.82426 0.0
H4429 H 0.72356 0.17257 0.8248 0.0
H4430 H 0.72627 0.19001 0.80001 0.0
H4431 H 0.74083 0.22218 0.79681 0.0
loop_
_geom_bond_atom_site_label_1
_geom_bond_atom_site_label_2
_geom_bond_distance
_geom_bond_site_symmetry_2
_ccdc_geom_bond_type
Mg0 O1 2.027 1_655 S
Mg0 O7 1.981 1_655 S
Mg0 O9 2.127 . S
Mg0 O10 2.275 . S
Mg0 O13 1.989 1_655 S
O1 Mg0 2.027 1_455 S
O1 C4 1.250 . S
O2 Mg3 2.028 . S
O2 C4 1.248 1_655 S
Mg3 O2 2.028 . S
Mg3 O8 2.032 . S
Mg3 O10 2.079 . S
C4 O1 1.250 . S
C4 O2 1.248 1_455 S
C5 O6 1.264 . S
C5 O13 1.249 . S
O6 C5 1.264 . S
O7 Mg0 1.981 1_455 S
O7 C11 1.246 1_455 S
O8 Mg3 2.032 . S
O8 C11 1.259 . S
O9 Mg0 2.127 . S
O9 C12 1.252 . S
O10 Mg0 2.275 . S
O10 Mg3 2.079 . S
O10 C12 1.273 . S
C11 O7 1.246 1_655 S
C11 O8 1.259 . S
C12 O9 1.252 . S
C12 O10 1.273 . S
O13 Mg0 1.989 1_455 S
O13 C5 1.249 . S
Mg14 O15 2.028 . S
Mg14 O21 1.986 . S
Mg14 O23 2.114 . S
Mg14 O24 2.251 . S
Mg14 O27 2.010 . S
O15 Mg14 2.028 . S
O15 C18 1.250 . S
O16 Mg17 2.028 . S
O16 C18 1.248 . S
Mg17 O16 2.028 . S
Mg17 O22 2.032 . S
Mg17 O24 2.079 . S
C18 O15 1.250 . S
C18 O16 1.248 . S
C19 O20 1.264 . S
C19 O27 1.249 . S
O20 C19 1.264 . S
O21 Mg14 1.986 . S
O21 C25 1.246 . S
O22 Mg17 2.032 . S
O22 C25 1.259 . S
O23 Mg14 2.114 . S
O23 C26 1.252 . S
O24 Mg14 2.251 . S
O24 Mg17 2.079 . S
O24 C26 1.273 . S
C25 O21 1.246 . S
C25 O22 1.259 . S
C26 O23 1.252 . S
C26 O24 1.273 . S
O27 Mg14 2.010 . S
O27 C19 1.249 . S
Mg28 O29 2.028 . S
Mg28 O35 1.986 . S
Mg28 O37 2.114 . S
Mg28 O38 2.251 . S
Mg28 O41 2.010 . S
O29 Mg28 2.028 . S
O29 C32 1.250 . S
O30 Mg31 2.028 . S
O30 C32 1.248 . S
Mg31 O30 2.028 . S
Mg31 O36 2.032 . S
Mg31 O38 2.079 . S
C32 O29 1.250 . S
C32 O30 1.248 . S
C33 O34 1.264 . S
C33 O41 1.249 . S
O34 C33 1.264 . S
O35 Mg28 1.986 . S
O35 C39 1.246 . S
O36 Mg31 2.032 . S
O36 C39 1.259 . S
O37 Mg28 2.114 . S
O37 C40 1.252 . S
O38 Mg28 2.251 . S
O38 Mg31 2.079 . S
O38 C40 1.273 . S
C39 O35 1.246 . S
C39 O36 1.259 . S
C40 O37 1.252 . S
C40 O38 1.273 . S
O41 Mg28 2.010 . S
O41 C33 1.249 . S
Mg42 O43 2.028 . S
Mg42 O49 1.986 . S
Mg42 O51 2.114 . S
Mg42 O52 2.251 . S
Mg42 O55 2.010 . S
O43 Mg42 2.028 . S
O43 C46 1.250 . S
O44 Mg45 2.028 . S
O44 C46 1.248 . S
Mg45 O44 2.028 . S
Mg45 O50 2.032 . S
Mg45 O52 2.079 . S
C46 O43 1.250 . S
C46 O44 1.248 . S
C47 O48 1.264 . S
C47 O55 1.249 . S
O48 C47 1.264 . S
O49 Mg42 1.986 . S
O49 C53 1.246 . S
O50 Mg45 2.032 . S
O50 C53 1.259 . S
O51 Mg42 2.114 . S
O51 C54 1.252 . S
O52 Mg42 2.251 . S
O52 Mg45 2.079 . S
O52 C54 1.273 . S
C53 O49 1.246 . S
C53 O50 1.259 . S
C54 O51 1.252 . S
C54 O52 1.273 . S
O55 Mg42 2.010 . S
O55 C47 1.249 . S
Mg56 O57 2.028 . S
Mg56 O63 1.986 . S
Mg56 O65 2.114 . S
Mg56 O66 2.251 . S
Mg56 O69 2.010 . S
O57 Mg56 2.028 . S
O57 C60 1.250 . S
O58 Mg59 2.028 . S
O58 C60 1.248 . S
Mg59 O58 2.028 . S
Mg59 O64 2.032 . S
Mg59 O66 2.079 . S
C60 O57 1.250 . S
C60 O58 1.248 . S
C61 O62 1.264 . S
C61 O69 1.249 . S
O62 C61 1.264 . S
O63 Mg56 1.986 . S
O63 C67 1.246 . S
O64 Mg59 2.032 . S
O64 C67 1.259 . S
O65 Mg56 2.114 . S
O65 C68 1.252 . S
O66 Mg56 2.251 . S
O66 Mg59 2.079 . S
O66 C68 1.273 . S
C67 O63 1.246 . S
C67 O64 1.259 . S
C68 O65 1.252 . S
C68 O66 1.273 . S
O69 Mg56 2.010 . S
O69 C61 1.249 . S
Mg70 O71 2.028 . S
Mg70 O77 1.986 . S
Mg70 O79 2.114 . S
Mg70 O80 2.251 . S
Mg70 O83 2.010 . S
O71 Mg70 2.028 . S
O71 C74 1.250 . S
O72 Mg73 2.028 . S
O72 C74 1.248 . S
Mg73 O72 2.028 . S
Mg73 O78 2.032 . S
Mg73 O80 2.079 . S
C74 O71 1.250 . S
C74 O72 1.248 . S
C75 O76 1.264 . S
C75 O83 1.249 . S
O76 C75 1.264 . S
O77 Mg70 1.986 . S
O77 C81 1.246 . S
O78 Mg73 2.032 . S
O78 C81 1.259 . S
O79 Mg70 2.114 . S
O79 C82 1.252 . S
O80 Mg70 2.251 . S
O80 Mg73 2.079 . S
O80 C82 1.273 . S
C81 O77 1.246 . S
C81 O78 1.259 . S
C82 O79 1.252 . S
C82 O80 1.273 . S
O83 Mg70 2.010 . S
O83 C75 1.249 . S
Mg84 O85 2.028 . S
Mg84 O91 1.986 . S
Mg84 O93 2.114 . S
Mg84 O94 2.251 . S
Mg84 O97 2.010 . S
O85 Mg84 2.028 . S
O85 C88 1.250 . S
O86 Mg87 2.028 . S
O86 C88 1.248 . S
Mg87 O86 2.028 . S
Mg87 O92 2.032 . S
Mg87 O94 2.079 . S
C88 O85 1.250 . S
C88 O86 1.248 . S
C89 O90 1.264 . S
C89 O97 1.249 . S
O90 C89 1.264 . S
O91 Mg84 1.986 . S
O91 C95 1.246 . S
O92 Mg87 2.032 . S
O92 C95 1.259 . S
O93 Mg84 2.114 . S
O93 C96 1.252 . S
O94 Mg84 2.251 . S
O94 Mg87 2.079 . S
O94 C96 1.273 . S
C95 O91 1.246 . S
C95 O92 1.259 . S
C96 O93 1.252 . S
C96 O94 1.273 . S
O97 Mg84 2.010 . S
O97 C89 1.249 . S
Mg98 O99 2.028 . S
Mg98 O105 1.986 . S
Mg98 O107 2.114 1_455 S
Mg98 O108 2.251 1_455 S
Mg98 O111 2.010 . S
O99 Mg98 2.028 . S
O99 C102 1.250 . S
O100 Mg101 2.051 . S
O100 C102 1.212 1_655 S
Mg101 O100 2.051 . S
Mg101 O106 2.032 . S
Mg101 O108 2.079 . S
C102 O99 1.250 . S
C102 O100 1.212 1_455 S
C103 O104 1.264 . S
C103 O111 1.249 . S
O104 C103 1.264 . S
O105 Mg98 1.986 . S
O105 C109 1.246 . S
O106 Mg101 2.032 . S
O106 C109 1.259 1_655 S
O107 Mg98 2.114 1_655 S
O107 C110 1.252 . S
O108 Mg98 2.251 1_655 S
O108 Mg101 2.079 . S
O108 C110 1.273 . S
C109 O105 1.246 . S
C109 O106 1.259 1_455 S
C110 O107 1.252 . S
C110 O108 1.273 . S
O111 Mg98 2.010 . S
O111 C103 1.249 . S
Mg112 O113 2.005 1_545 S
Mg112 O119 1.986 . S
Mg112 O121 2.114 . S
Mg112 O122 2.251 . S
Mg112 O125 2.010 . S
O113 Mg112 2.005 1_565 S
O113 C116 1.265 . S
O114 Mg115 2.028 1_565 S
O114 C116 1.248 . S
Mg115 O114 2.028 1_545 S
Mg115 O120 2.032 . S
Mg115 O122 2.079 . S
C116 O113 1.265 . S
C116 O114 1.248 . S
C117 O118 1.264 . S
C117 O125 1.249 . S
O118 C117 1.264 . S
O119 Mg112 1.986 . S
O119 C123 1.246 . S
O120 Mg115 2.032 . S
O120 C123 1.259 . S
O121 Mg112 2.114 . S
O121 C124 1.252 . S
O122 Mg112 2.251 . S
O122 Mg115 2.079 . S
O122 C124 1.273 . S
C123 O119 1.246 . S
C123 O120 1.259 . S
C124 O121 1.252 . S
C124 O122 1.273 . S
O125 Mg112 2.010 . S
O125 C117 1.249 . S
Mg126 O127 2.028 . S
Mg126 O133 1.986 . S
Mg126 O135 2.114 . S
Mg126 O136 2.251 . S
Mg126 O139 2.010 . S
O127 Mg126 2.028 . S
O127 C130 1.250 . S
O128 Mg129 2.028 . S
O128 C130 1.248 . S
Mg129 O128 2.028 . S
Mg129 O134 2.032 . S
Mg129 O136 2.079 . S
C130 O127 1.250 . S
C130 O128 1.248 . S
C131 O132 1.264 . S
C131 O139 1.249 . S
O132 C131 1.264 . S
O133 Mg126 1.986 . S
O133 C137 1.246 . S
O134 Mg129 2.032 . S
O134 C137 1.259 . S
O135 Mg126 2.114 . S
O135 C138 1.252 . S
O136 Mg126 2.251 . S
O136 Mg129 2.079 . S
O136 C138 1.273 . S
C137 O133 1.246 . S
C137 O134 1.259 . S
C138 O135 1.252 . S
C138 O136 1.273 . S
O139 Mg126 2.010 . S
O139 C131 1.249 . S
Mg140 O141 2.028 . S
Mg140 O147 1.977 1_545 S
Mg140 O149 2.114 . S
Mg140 O150 2.251 . S
Mg140 O153 2.010 . S
O141 Mg140 2.028 . S
O141 C144 1.250 . S
O142 Mg143 2.028 . S
O142 C144 1.248 . S
Mg143 O142 2.028 . S
Mg143 O148 2.032 . S
Mg143 O150 2.079 . S
C144 O141 1.250 . S
C144 O142 1.248 . S
C145 O146 1.264 1_545 S
C145 O153 1.249 . S
O146 C145 1.264 1_565 S
O147 Mg140 1.977 1_565 S
O147 C151 1.252 . S
O148 Mg143 2.032 . S
O148 C151 1.259 1_545 S
O149 Mg140 2.114 . S
O149 C152 1.252 . S
O150 Mg140 2.251 . S
O150 Mg143 2.079 . S
O150 C152 1.273 . S
C151 O147 1.252 . S
C151 O148 1.259 1_565 S
C152 O149 1.252 . S
C152 O150 1.273 . S
O153 Mg140 2.010 . S
O153 C145 1.249 . S
Mg154 O155 2.028 1_554 S
Mg154 O161 1.986 . S
Mg154 O163 2.114 1_554 S
Mg154 O164 2.251 . S
Mg154 O167 2.010 . S
O155 Mg154 2.028 1_556 S
O155 C158 1.250 . S
O156 Mg157 2.028 1_556 S
O156 C158 1.248 . S
Mg157 O156 2.028 1_554 S
Mg157 O162 2.032 . S
Mg157 O164 2.079 . S
C158 O155 1.250 . S
C158 O156 1.248 . S
C159 O160 1.264 . S
C159 O167 1.249 . S
O160 C159 1.264 . S
O161 Mg154 1.986 . S
O161 C165 1.246 . S
O162 Mg157 2.032 . S
O162 C165 1.259 . S
O163 Mg154 2.114 1_556 S
O163 C166 1.252 1_556 S
O164 Mg154 2.251 . S
O164 Mg157 2.079 . S
O164 C166 1.273 . S
C165 O161 1.246 . S
C165 O162 1.259 . S
C166 O163 1.252 1_554 S
C166 O164 1.273 . S
O167 Mg154 2.010 . S
O167 C159 1.249 . S
Mg168 O169 2.028 . S
Mg168 O175 1.986 . S
Mg168 O177 2.114 . S
Mg168 O178 2.251 . S
Mg168 O181 2.010 . S
O169 Mg168 2.028 . S
O169 C172 1.250 1_554 S
O170 Mg171 2.041 . S
O170 C172 1.243 1_554 S
Mg171 O170 2.041 . S
Mg171 O176 2.032 . S
Mg171 O178 2.079 . S
C172 O169 1.250 1_556 S
C172 O170 1.243 1_556 S
C173 O174 1.264 . S
C173 O181 1.249 . S
O174 C173 1.264 . S
O175 Mg168 1.986 . S
O175 C179 1.246 . S
O176 Mg171 2.032 . S
O176 C179 1.259 . S
O177 Mg168 2.114 . S
O177 C180 1.252 . S
O178 Mg168 2.251 . S
O178 Mg171 2.079 . S
O178 C180 1.273 . S
C179 O175 1.246 . S
C179 O176 1.259 . S
C180 O177 1.252 . S
C180 O178 1.273 . S
O181 Mg168 2.010 . S
O181 C173 1.249 . S
Mg182 O183 2.028 . S
Mg182 O189 1.986 . S
Mg182 O191 2.114 . S
Mg182 O192 2.251 . S
Mg182 O195 2.010 . S
O183 Mg182 2.028 . S
O183 C186 1.250 . S
O184 Mg185 2.028 . S
O184 C186 1.248 . S
Mg185 O184 2.028 . S
Mg185 O190 2.032 . S
Mg185 O192 2.079 . S
C186 O183 1.250 . S
C186 O184 1.248 . S
C187 O188 1.264 . S
C187 O195 1.249 . S
O188 C187 1.264 . S
O189 Mg182 1.986 . S
O189 C193 1.246 . S
O190 Mg185 2.032 . S
O190 C193 1.259 . S
O191 Mg182 2.114 . S
O191 C194 1.252 . S
O192 Mg182 2.251 . S
O192 Mg185 2.079 . S
O192 C194 1.273 . S
C193 O189 1.246 . S
C193 O190 1.259 . S
C194 O191 1.252 . S
C194 O192 1.273 . S
O195 Mg182 2.010 . S
O195 C187 1.249 . S
Mg196 O197 2.028 . S
Mg196 O203 1.986 . S
Mg196 O205 2.114 . S
Mg196 O206 2.251 . S
Mg196 O209 2.010 . S
O197 Mg196 2.028 . S
O197 C200 1.250 . S
O198 Mg199 2.028 . S
O198 C200 1.248 . S
Mg199 O198 2.028 . S
Mg199 O204 2.032 . S
Mg199 O206 2.079 . S
C200 O197 1.250 . S
C200 O198 1.248 . S
C201 O202 1.264 . S
C201 O209 1.249 . S
O202 C201 1.264 . S
O203 Mg196 1.986 . S
O203 C207 1.246 . S
O204 Mg199 2.032 . S
O204 C207 1.259 . S
O205 Mg196 2.114 . S
O205 C208 1.252 . S
O206 Mg196 2.251 . S
O206 Mg199 2.079 . S
O206 C208 1.273 . S
C207 O203 1.246 . S
C207 O204 1.259 . S
C208 O205 1.252 . S
C208 O206 1.273 . S
O209 Mg196 2.010 . S
O209 C201 1.249 . S
Mg210 O211 2.028 . S
Mg210 O217 1.986 . S
Mg210 O219 2.114 . S
Mg210 O220 2.251 . S
Mg210 O223 2.010 . S
O211 Mg210 2.028 . S
O211 C214 1.250 . S
O212 Mg213 2.028 . S
O212 C214 1.248 . S
Mg213 O212 2.028 . S
Mg213 O218 2.032 . S
Mg213 O220 2.079 . S
C214 O211 1.250 . S
C214 O212 1.248 . S
C215 O216 1.264 . S
C215 O223 1.249 . S
O216 C215 1.264 . S
O217 Mg210 1.986 . S
O217 C221 1.246 . S
O218 Mg213 2.032 . S
O218 C221 1.259 . S
O219 Mg210 2.114 . S
O219 C222 1.252 . S
O220 Mg210 2.251 . S
O220 Mg213 2.079 . S
O220 C222 1.273 . S
C221 O217 1.246 . S
C221 O218 1.259 . S
C222 O219 1.252 . S
C222 O220 1.273 . S
O223 Mg210 2.010 . S
O223 C215 1.249 . S
Mg224 O225 2.028 1_545 S
Mg224 O231 1.986 . S
Mg224 O233 2.114 . S
Mg224 O234 2.251 . S
Mg224 O237 2.010 . S
O225 Mg224 2.028 1_565 S
O225 C228 1.250 . S
O226 Mg227 2.028 1_565 S
O226 C228 1.248 . S
Mg227 O226 2.028 1_545 S
Mg227 O232 2.032 . S
Mg227 O234 2.079 . S
C228 O225 1.250 . S
C228 O226 1.248 . S
C229 O230 1.264 . S
C229 O237 1.249 . S
O230 C229 1.264 . S
O231 Mg224 1.986 . S
O231 C235 1.246 . S
O232 Mg227 2.032 . S
O232 C235 1.259 . S
O233 Mg224 2.114 . S
O233 C236 1.252 . S
O234 Mg224 2.251 . S
O234 Mg227 2.079 . S
O234 C236 1.273 . S
C235 O231 1.246 . S
C235 O232 1.259 . S
C236 O233 1.252 . S
C236 O234 1.273 . S
O237 Mg224 2.010 . S
O237 C229 1.249 . S
Mg238 O239 2.028 . S
Mg238 O245 1.986 . S
Mg238 O247 2.114 . S
Mg238 O248 2.251 . S
Mg238 O251 2.010 . S
O239 Mg238 2.028 . S
O239 C242 1.250 . S
O240 Mg241 2.028 . S
O240 C242 1.248 . S
Mg241 O240 2.028 . S
Mg241 O246 2.032 . S
Mg241 O248 2.079 . S
C242 O239 1.250 . S
C242 O240 1.248 . S
C243 O244 1.264 . S
C243 O251 1.249 . S
O244 C243 1.264 . S
O245 Mg238 1.986 . S
O245 C249 1.246 . S
O246 Mg241 2.032 . S
O246 C249 1.259 . S
O247 Mg238 2.114 . S
O247 C250 1.252 . S
O248 Mg238 2.251 . S
O248 Mg241 2.079 . S
O248 C250 1.273 . S
C249 O245 1.246 . S
C249 O246 1.259 . S
C250 O247 1.252 . S
C250 O248 1.273 . S
O251 Mg238 2.010 . S
O251 C243 1.249 . S
Mg252 O253 2.028 . S
Mg252 O259 1.986 . S
Mg252 O261 2.114 . S
Mg252 O262 2.251 . S
Mg252 O265 2.010 . S
O253 Mg252 2.028 . S
O253 C256 1.250 . S
O254 Mg255 2.028 . S
O254 C256 1.248 . S
Mg255 O254 2.028 . S
Mg255 O260 2.032 . S
Mg255 O262 2.079 . S
C256 O253 1.250 . S
C256 O254 1.248 . S
C257 O258 1.264 . S
C257 O265 1.249 . S
O258 C257 1.264 . S
O259 Mg252 1.986 . S
O259 C263 1.246 . S
O260 Mg255 2.032 . S
O260 C263 1.259 . S
O261 Mg252 2.114 . S
O261 C264 1.252 . S
O262 Mg252 2.251 . S
O262 Mg255 2.079 . S
O262 C264 1.273 . S
C263 O259 1.246 . S
C263 O260 1.259 . S
C264 O261 1.252 . S
C264 O262 1.273 . S
O265 Mg252 2.010 . S
O265 C257 1.249 . S
Mg266 O267 2.028 . S
Mg266 O273 1.986 1_545 S
Mg266 O275 2.114 . S
Mg266 O276 2.251 . S
Mg266 O279 2.011 1_545 S
O267 Mg266 2.028 . S
O267 C270 1.250 . S
O268 Mg269 2.028 . S
O268 C270 1.248 . S
Mg269 O268 2.028 . S
Mg269 O274 2.032 1_545 S
Mg269 O276 2.079 . S
C270 O267 1.250 . S
C270 O268 1.248 . S
C271 O272 1.247 1_545 S
C271 O279 1.233 1_545 S
O272 C271 1.247 1_565 S
O273 Mg266 1.986 1_565 S
O273 C277 1.246 . S
O274 Mg269 2.032 1_565 S
O274 C277 1.259 . S
O275 Mg266 2.114 . S
O275 C278 1.252 . S
O276 Mg266 2.251 . S
O276 Mg269 2.079 . S
O276 C278 1.273 . S
C277 O273 1.246 . S
C277 O274 1.259 . S
C278 O275 1.252 . S
C278 O276 1.273 . S
O279 Mg266 2.011 1_565 S
O279 C271 1.233 1_565 S
Mg280 O281 2.028 . S
Mg280 O287 1.986 1_554 S
Mg280 O289 2.114 . S
Mg280 O290 2.251 . S
Mg280 O293 2.010 . S
O281 Mg280 2.028 . S
O281 C284 1.250 . S
O282 Mg283 2.028 . S
O282 C284 1.248 . S
Mg283 O282 2.028 . S
Mg283 O288 2.032 . S
Mg283 O290 2.079 . S
C284 O281 1.250 . S
C284 O282 1.248 . S
C285 O286 1.264 1_554 S
C285 O293 1.249 . S
O286 C285 1.264 1_556 S
O287 Mg280 1.986 1_556 S
O287 C291 1.246 . S
O288 Mg283 2.032 . S
O288 C291 1.259 1_554 S
O289 Mg280 2.114 . S
O289 C292 1.252 . S
O290 Mg280 2.251 . S
O290 Mg283 2.079 . S
O290 C292 1.273 . S
C291 O287 1.246 . S
C291 O288 1.259 1_556 S
C292 O289 1.252 . S
C292 O290 1.273 . S
O293 Mg280 2.010 . S
O293 C285 1.249 . S
Mg294 O295 2.028 . S
Mg294 O301 1.986 . S
Mg294 O303 2.114 . S
Mg294 O304 2.251 . S
Mg294 O307 2.010 . S
O295 Mg294 2.028 . S
O295 C298 1.250 . S
O296 Mg297 2.028 . S
O296 C298 1.248 . S
Mg297 O296 2.028 . S
Mg297 O302 2.032 . S
Mg297 O304 2.079 . S
C298 O295 1.250 . S
C298 O296 1.248 . S
C299 O300 1.264 . S
C299 O307 1.249 . S
O300 C299 1.264 . S
O301 Mg294 1.986 . S
O301 C305 1.246 . S
O302 Mg297 2.032 . S
O302 C305 1.259 . S
O303 Mg294 2.114 . S
O303 C306 1.252 . S
O304 Mg294 2.251 . S
O304 Mg297 2.079 . S
O304 C306 1.273 . S
C305 O301 1.246 . S
C305 O302 1.259 . S
C306 O303 1.252 . S
C306 O304 1.273 . S
O307 Mg294 2.010 . S
O307 C299 1.249 . S
Mg308 O309 2.028 . S
Mg308 O315 1.986 . S
Mg308 O317 2.114 . S
Mg308 O318 2.251 . S
Mg308 O321 2.010 . S
O309 Mg308 2.028 . S
O309 C312 1.250 . S
O310 Mg311 2.028 . S
O310 C312 1.248 . S
Mg311 O310 2.028 . S
Mg311 O316 2.032 . S
Mg311 O318 2.079 . S
C312 O309 1.250 . S
C312 O310 1.248 . S
C313 O314 1.264 . S
C313 O321 1.249 . S
O314 C313 1.264 . S
O315 Mg308 1.986 . S
O315 C319 1.246 . S
O316 Mg311 2.032 . S
O316 C319 1.259 . S
O317 Mg308 2.114 . S
O317 C320 1.252 . S
O318 Mg308 2.251 . S
O318 Mg311 2.079 . S
O318 C320 1.273 . S
C319 O315 1.246 . S
C319 O316 1.259 . S
C320 O317 1.252 . S
C320 O318 1.273 . S
O321 Mg308 2.010 . S
O321 C313 1.249 . S
Mg322 O323 2.028 . S
Mg322 O329 1.986 . S
Mg322 O331 2.114 . S
Mg322 O332 2.251 . S
Mg322 O335 2.010 . S
O323 Mg322 2.028 . S
O323 C326 1.250 . S
O324 Mg325 2.028 . S
O324 C326 1.248 . S
Mg325 O324 2.028 . S
Mg325 O330 2.032 . S
Mg325 O332 2.079 . S
C326 O323 1.250 . S
C326 O324 1.248 . S
C327 O328 1.264 . S
C327 O335 1.249 . S
O328 C327 1.264 . S
O329 Mg322 1.986 . S
O329 C333 1.246 . S
O330 Mg325 2.032 . S
O330 C333 1.259 . S
O331 Mg322 2.114 . S
O331 C334 1.252 . S
O332 Mg322 2.251 . S
O332 Mg325 2.079 . S
O332 C334 1.273 . S
C333 O329 1.246 . S
C333 O330 1.259 . S
C334 O331 1.252 . S
C334 O332 1.273 . S
O335 Mg322 2.010 . S
O335 C327 1.249 . S
Tb336 C338 2.807 1_554 S
Tb336 O356 2.484 . S
Tb336 O357 2.440 1_554 S
Tb336 O358 2.658 1_654 S
Tb336 O359 2.409 1_654 S
Tb336 O360 2.378 1_655 S
Tb336 O364 2.325 1_655 S
Tb336 O367 2.341 1_645 S
Tb337 C347 2.809 1_545 S
Tb337 O358 2.325 1_554 S
Tb337 O361 2.341 . S
Tb337 O362 2.484 1_545 S
Tb337 O363 2.440 . S
Tb337 O364 2.658 . S
Tb337 O365 2.409 . S
Tb337 O366 2.378 1_545 S
C338 Tb336 2.807 1_556 S
C338 C339 1.515 . S
C338 O356 1.237 1_556 S
C338 O357 1.275 . S
C339 C338 1.515 . S
C339 C340 1.359 1_556 S
C339 C344 1.348 . S
C340 C339 1.359 1_554 S
C340 C341 1.380 . S
C340 H368 0.929 . S
C341 C340 1.380 . S
C341 C342 1.347 1_554 S
C341 H369 0.931 . S
C342 C341 1.347 1_556 S
C342 C343 1.369 . S
C343 C342 1.369 . S
C343 C344 1.408 . S
C343 H370 0.930 . S
C344 C339 1.348 . S
C344 C343 1.408 . S
C344 H371 0.930 . S
C345 O358 1.281 . S
C345 O359 1.254 . S
C346 O360 1.236 . S
C346 O361 1.266 . S
C347 Tb337 2.809 1_565 S
C347 C348 1.514 . S
C347 O362 1.248 . S
C347 O363 1.266 1_565 S
C348 C347 1.514 . S
C348 C349 1.359 . S
C348 C353 1.348 . S
C349 C348 1.359 . S
C349 C350 1.380 . S
C349 H372 0.929 . S
C350 C349 1.380 . S
C350 C351 1.347 . S
C350 H373 0.931 . S
C351 C350 1.347 . S
C351 C352 1.369 . S
C352 C351 1.369 . S
C352 C353 1.408 . S
C352 H374 0.930 . S
C353 C348 1.348 . S
C353 C352 1.408 . S
C353 H375 0.930 . S
C354 O364 1.281 . S
C354 O365 1.254 . S
C355 O366 1.236 . S
C355 O367 1.266 . S
O356 Tb336 2.484 . S
O356 C338 1.237 1_554 S
O357 Tb336 2.440 1_556 S
O357 C338 1.275 . S
O358 Tb336 2.658 1_456 S
O358 Tb337 2.325 1_556 S
O358 C345 1.281 . S
O359 Tb336 2.409 1_456 S
O359 C345 1.254 . S
O360 Tb336 2.378 1_455 S
O360 C346 1.236 . S
O361 Tb337 2.341 . S
O361 C346 1.266 . S
O362 Tb337 2.484 1_565 S
O362 C347 1.248 . S
O363 Tb337 2.440 . S
O363 C347 1.266 1_545 S
O364 Tb336 2.325 1_455 S
O364 Tb337 2.658 . S
O364 C354 1.281 . S
O365 Tb337 2.409 . S
O365 C354 1.254 . S
O366 Tb337 2.378 1_565 S
O366 C355 1.236 . S
O367 Tb336 2.341 1_465 S
O367 C355 1.266 . S
H368 C340 0.929 . S
H369 C341 0.931 . S
H370 C343 0.930 . S
H371 C344 0.930 . S
H372 C349 0.929 . S
H373 C350 0.931 . S
H374 C352 0.930 . S
H375 C353 0.930 . S
Tb376 C378 2.809 . S
Tb376 O396 2.484 . S
Tb376 O397 2.440 . S
Tb376 O398 2.658 . S
Tb376 O399 2.409 . S
Tb376 O400 2.378 . S
Tb376 O404 2.325 . S
Tb376 O407 2.341 . S
Tb377 C387 2.809 . S
Tb377 O398 2.325 . S
Tb377 O401 2.341 . S
Tb377 O402 2.484 . S
Tb377 O403 2.440 . S
Tb377 O404 2.658 . S
Tb377 O405 2.409 . S
Tb377 O406 2.378 . S
C378 Tb376 2.809 . S
C378 C379 1.514 . S
C378 O396 1.248 . S
C378 O397 1.266 . S
C379 C378 1.514 . S
C379 C380 1.359 . S
C379 C384 1.348 . S
C380 C379 1.359 . S
C380 C381 1.380 . S
C380 H408 0.929 . S
C381 C380 1.380 . S
C381 C382 1.347 . S
C381 H409 0.931 . S
C382 C381 1.347 . S
C382 C383 1.369 . S
C383 C382 1.369 . S
C383 C384 1.408 . S
C383 H410 0.930 . S
C384 C379 1.348 . S
C384 C383 1.408 . S
C384 H411 0.930 . S
C385 O398 1.281 . S
C385 O399 1.254 . S
C386 O400 1.236 . S
C386 O401 1.266 . S
C387 Tb377 2.809 . S
C387 C388 1.514 . S
C387 O402 1.248 . S
C387 O403 1.266 . S
C388 C387 1.514 . S
C388 C389 1.359 . S
C388 C393 1.348 . S
C389 C388 1.359 . S
C389 C390 1.380 . S
C389 H412 0.929 . S
C390 C389 1.380 . S
C390 C391 1.347 . S
C390 H413 0.931 . S
C391 C390 1.347 . S
C391 C392 1.369 . S
C392 C391 1.369 . S
C392 C393 1.408 . S
C392 H414 0.930 . S
C393 C388 1.348 . S
C393 C392 1.408 . S
C393 H415 0.930 . S
C394 O404 1.281 . S
C394 O405 1.254 . S
C395 O406 1.236 . S
C395 O407 1.266 . S
O396 Tb376 2.484 . S
O396 C378 1.248 . S
O397 Tb376 2.440 . S
O397 C378 1.266 . S
O398 Tb376 2.658 . S
O398 Tb377 2.325 . S
O398 C385 1.281 . S
O399 Tb376 2.409 . S
O399 C385 1.254 . S
O400 Tb376 2.378 . S
O400 C386 1.236 . S
O401 Tb377 2.341 . S
O401 C386 1.266 . S
O402 Tb377 2.484 . S
O402 C387 1.248 . S
O403 Tb377 2.440 . S
O403 C387 1.266 . S
O404 Tb376 2.325 . S
O404 Tb377 2.658 . S
O404 C394 1.281 . S
O405 Tb377 2.409 . S
O405 C394 1.254 . S
O406 Tb377 2.378 . S
O406 C395 1.236 . S
O407 Tb376 2.341 . S
O407 C395 1.266 . S
H408 C380 0.929 . S
H409 C381 0.931 . S
H410 C383 0.930 . S
H411 C384 0.930 . S
H412 C389 0.929 . S
H413 C390 0.931 . S
H414 C392 0.930 . S
H415 C393 0.930 . S
Tb416 C418 2.809 1_545 S
Tb416 O436 2.440 1_545 S
Tb416 O437 2.440 . S
Tb416 O438 2.658 . S
Tb416 O439 2.409 . S
Tb416 O440 2.378 1_545 S
Tb416 O444 2.325 . S
Tb416 O447 2.341 . S
Tb417 C427 2.809 . S
Tb417 O438 2.325 . S
Tb417 O441 2.341 1_545 S
Tb417 O442 2.484 . S
Tb417 O443 2.440 . S
Tb417 O444 2.658 . S
Tb417 O445 2.409 . S
Tb417 O446 2.378 . S
C418 Tb416 2.809 1_565 S
C418 C419 1.514 . S
C418 O436 1.248 . S
C418 O437 1.266 1_565 S
C419 C418 1.514 . S
C419 C420 1.359 . S
C419 C424 1.348 . S
C420 C419 1.359 . S
C420 C421 1.380 . S
C420 H448 0.929 . S
C421 C420 1.380 . S
C421 C422 1.347 . S
C421 H449 0.931 . S
C422 C421 1.347 . S
C422 C423 1.369 . S
C423 C422 1.369 . S
C423 C424 1.408 . S
C423 H450 0.930 . S
C424 C419 1.348 . S
C424 C423 1.408 . S
C424 H451 0.930 . S
C425 O438 1.281 . S
C425 O439 1.254 . S
C426 O440 1.236 . S
C426 O441 1.266 . S
C427 Tb417 2.809 . S
C427 C428 1.514 . S
C427 O442 1.248 . S
C427 O443 1.266 . S
C428 C427 1.514 . S
C428 C429 1.359 . S
C428 C433 1.348 . S
C429 C428 1.359 . S
C429 C430 1.380 . S
C429 H452 0.929 . S
C430 C429 1.380 . S
C430 C431 1.347 . S
C430 H453 0.931 . S
C431 C430 1.347 . S
C431 C432 1.369 . S
C432 C431 1.369 . S
C432 C433 1.408 . S
C432 H454 0.930 . S
C433 C428 1.348 . S
C433 C432 1.408 . S
C433 H455 0.930 . S
C434 O444 1.281 . S
C434 O445 1.254 . S
C435 O446 1.236 . S
C435 O447 1.266 . S
O436 Tb416 2.440 1_565 S
O436 C418 1.248 . S
O437 Tb416 2.440 . S
O437 C418 1.266 1_545 S
O438 Tb416 2.658 . S
O438 Tb417 2.325 . S
O438 C425 1.281 . S
O439 Tb416 2.409 . S
O439 C425 1.254 . S
O440 Tb416 2.378 1_565 S
O440 C426 1.236 . S
O441 Tb417 2.341 1_565 S
O441 C426 1.266 . S
O442 Tb417 2.484 . S
O442 C427 1.248 . S
O443 Tb417 2.440 . S
O443 C427 1.266 . S
O444 Tb416 2.325 . S
O444 Tb417 2.658 . S
O444 C434 1.281 . S
O445 Tb417 2.409 . S
O445 C434 1.254 . S
O446 Tb417 2.378 . S
O446 C435 1.236 . S
O447 Tb416 2.341 . S
O447 C435 1.266 . S
H448 C420 0.929 . S
H449 C421 0.931 . S
H450 C423 0.930 . S
H451 C424 0.930 . S
H452 C429 0.929 . S
H453 C430 0.931 . S
H454 C432 0.930 . S
H455 C433 0.930 . S
Tb456 C458 2.809 . S
Tb456 O476 2.484 . S
Tb456 O477 2.440 . S
Tb456 O478 2.658 . S
Tb456 O479 2.409 . S
Tb456 O480 2.378 . S
Tb456 O484 2.325 . S
Tb456 O487 2.341 . S
Tb457 C467 2.809 . S
Tb457 O478 2.325 . S
Tb457 O481 2.341 . S
Tb457 O482 2.484 . S
Tb457 O483 2.440 . S
Tb457 O484 2.658 . S
Tb457 O485 2.409 . S
Tb457 O486 2.378 . S
C458 Tb456 2.809 . S
C458 C459 1.514 . S
C458 O476 1.248 . S
C458 O477 1.266 . S
C459 C458 1.514 . S
C459 C460 1.359 . S
C459 C464 1.348 . S
C460 C459 1.359 . S
C460 C461 1.380 . S
C460 H488 0.929 . S
C461 C460 1.380 . S
C461 C462 1.347 . S
C461 H489 0.931 . S
C462 C461 1.347 . S
C462 C463 1.369 . S
C463 C462 1.369 . S
C463 C464 1.408 . S
C463 H490 0.930 . S
C464 C459 1.348 . S
C464 C463 1.408 . S
C464 H491 0.930 . S
C465 O478 1.281 . S
C465 O479 1.254 . S
C466 O480 1.236 . S
C466 O481 1.266 . S
C467 Tb457 2.809 . S
C467 C468 1.514 . S
C467 O482 1.248 . S
C467 O483 1.266 . S
C468 C467 1.514 . S
C468 C469 1.359 . S
C468 C473 1.348 . S
C469 C468 1.359 . S
C469 C470 1.380 . S
C469 H492 0.929 . S
C470 C469 1.380 . S
C470 C471 1.347 . S
C470 H493 0.931 . S
C471 C470 1.347 . S
C471 C472 1.369 . S
C472 C471 1.369 . S
C472 C473 1.408 . S
C472 H494 0.930 . S
C473 C468 1.348 . S
C473 C472 1.408 . S
C473 H495 0.930 . S
C474 O484 1.281 . S
C474 O485 1.254 . S
C475 O486 1.236 . S
C475 O487 1.266 . S
O476 Tb456 2.484 . S
O476 C458 1.248 . S
O477 Tb456 2.440 . S
O477 C458 1.266 . S
O478 Tb456 2.658 . S
O478 Tb457 2.325 . S
O478 C465 1.281 . S
O479 Tb456 2.409 . S
O479 C465 1.254 . S
O480 Tb456 2.378 . S
O480 C466 1.236 . S
O481 Tb457 2.341 . S
O481 C466 1.266 . S
O482 Tb457 2.484 . S
O482 C467 1.248 . S
O483 Tb457 2.440 . S
O483 C467 1.266 . S
O484 Tb456 2.325 . S
O484 Tb457 2.658 . S
O484 C474 1.281 . S
O485 Tb457 2.409 . S
O485 C474 1.254 . S
O486 Tb457 2.378 . S
O486 C475 1.236 . S
O487 Tb456 2.341 . S
O487 C475 1.266 . S
H488 C460 0.929 . S
H489 C461 0.931 . S
H490 C463 0.930 . S
H491 C464 0.930 . S
H492 C469 0.929 . S
H493 C470 0.931 . S
H494 C472 0.930 . S
H495 C473 0.930 . S
Tb496 C498 2.809 . S
Tb496 O516 2.484 . S
Tb496 O517 2.440 1_455 S
Tb496 O518 2.658 . S
Tb496 O519 2.409 1_455 S
Tb496 O520 2.378 . S
Tb496 O524 2.325 . S
Tb496 O527 2.341 . S
Tb497 C507 2.809 . S
Tb497 O518 2.325 1_565 S
Tb497 O521 2.341 . S
Tb497 O522 2.484 . S
Tb497 O523 2.440 . S
Tb497 O524 2.658 1_565 S
Tb497 O525 2.409 1_565 S
Tb497 O526 2.378 1_565 S
C498 Tb496 2.809 . S
C498 C499 1.514 . S
C498 O516 1.248 . S
C498 O517 1.266 1_455 S
C499 C498 1.514 . S
C499 C500 1.359 . S
C499 C504 1.348 1_455 S
C500 C499 1.359 . S
C500 C501 1.380 . S
C500 H528 0.929 . S
C501 C500 1.380 . S
C501 C502 1.347 1_455 S
C501 H529 0.931 . S
C502 C501 1.347 1_655 S
C502 C503 1.369 . S
C503 C502 1.369 . S
C503 C504 1.408 . S
C503 H530 0.930 . S
C504 C499 1.348 1_655 S
C504 C503 1.408 . S
C504 H531 0.930 . S
C505 O518 1.281 1_655 S
C505 O519 1.254 . S
C506 O520 1.236 . S
C506 O521 1.266 1_545 S
C507 Tb497 2.809 . S
C507 C508 1.514 . S
C507 O522 1.248 . S
C507 O523 1.266 . S
C508 C507 1.514 . S
C508 C509 1.359 . S
C508 C513 1.348 . S
C509 C508 1.359 . S
C509 C510 1.380 . S
C509 H532 0.929 . S
C510 C509 1.380 . S
C510 C511 1.347 . S
C510 H533 0.931 . S
C511 C510 1.347 . S
C511 C512 1.369 . S
C512 C511 1.369 . S
C512 C513 1.408 . S
C512 H534 0.930 . S
C513 C508 1.348 . S
C513 C512 1.408 . S
C513 H535 0.930 . S
C514 O524 1.281 . S
C514 O525 1.254 . S
C515 O526 1.236 . S
C515 O527 1.266 . S
O516 Tb496 2.484 . S
O516 C498 1.248 . S
O517 Tb496 2.440 1_655 S
O517 C498 1.266 1_655 S
O518 Tb496 2.658 . S
O518 Tb497 2.325 1_545 S
O518 C505 1.281 1_455 S
O519 Tb496 2.409 1_655 S
O519 C505 1.254 . S
O520 Tb496 2.378 . S
O520 C506 1.236 . S
O521 Tb497 2.341 . S
O521 C506 1.266 1_565 S
O522 Tb497 2.484 . S
O522 C507 1.248 . S
O523 Tb497 2.440 . S
O523 C507 1.266 . S
O524 Tb496 2.325 . S
O524 Tb497 2.658 1_545 S
O524 C514 1.281 . S
O525 Tb497 2.409 1_545 S
O525 C514 1.254 . S
O526 Tb497 2.378 1_545 S
O526 C515 1.236 . S
O527 Tb496 2.341 . S
O527 C515 1.266 . S
H528 C500 0.929 . S
H529 C501 0.931 . S
H530 C503 0.930 . S
H531 C504 0.930 . S
H532 C509 0.929 . S
H533 C510 0.931 . S
H534 C512 0.930 . S
H535 C513 0.930 . S
Tb536 C538 2.809 . S
Tb536 O556 2.484 . S
Tb536 O557 2.440 . S
Tb536 O558 2.658 . S
Tb536 O559 2.409 . S
Tb536 O560 2.378 . S
Tb536 O564 2.325 . S
Tb536 O567 2.341 . S
Tb537 C547 2.809 . S
Tb537 O558 2.325 . S
Tb537 O561 2.341 . S
Tb537 O562 2.484 . S
Tb537 O563 2.440 . S
Tb537 O564 2.658 . S
Tb537 O565 2.409 . S
Tb537 O566 2.378 . S
C538 Tb536 2.809 . S
C538 C539 1.514 . S
C538 O556 1.248 . S
C538 O557 1.266 . S
C539 C538 1.514 . S
C539 C540 1.359 . S
C539 C544 1.348 . S
C540 C539 1.359 . S
C540 C541 1.380 . S
C540 H568 0.929 . S
C541 C540 1.380 . S
C541 C542 1.347 . S
C541 H569 0.931 . S
C542 C541 1.347 . S
C542 C543 1.369 . S
C543 C542 1.369 . S
C543 C544 1.408 . S
C543 H570 0.930 . S
C544 C539 1.348 . S
C544 C543 1.408 . S
C544 H571 0.930 . S
C545 O558 1.281 . S
C545 O559 1.254 . S
C546 O560 1.236 . S
C546 O561 1.266 . S
C547 Tb537 2.809 . S
C547 C548 1.514 . S
C547 O562 1.248 . S
C547 O563 1.266 . S
C548 C547 1.514 . S
C548 C549 1.359 . S
C548 C553 1.348 . S
C549 C548 1.359 . S
C549 C550 1.380 . S
C549 H572 0.929 . S
C550 C549 1.380 . S
C550 C551 1.347 . S
C550 H573 0.931 . S
C551 C550 1.347 . S
C551 C552 1.369 . S
C552 C551 1.369 . S
C552 C553 1.408 . S
C552 H574 0.930 . S
C553 C548 1.348 . S
C553 C552 1.408 . S
C553 H575 0.930 . S
C554 O564 1.281 . S
C554 O565 1.254 . S
C555 O566 1.236 . S
C555 O567 1.266 . S
O556 Tb536 2.484 . S
O556 C538 1.248 . S
O557 Tb536 2.440 . S
O557 C538 1.266 . S
O558 Tb536 2.658 . S
O558 Tb537 2.325 . S
O558 C545 1.281 . S
O559 Tb536 2.409 . S
O559 C545 1.254 . S
O560 Tb536 2.378 . S
O560 C546 1.236 . S
O561 Tb537 2.341 . S
O561 C546 1.266 . S
O562 Tb537 2.484 . S
O562 C547 1.248 . S
O563 Tb537 2.440 . S
O563 C547 1.266 . S
O564 Tb536 2.325 . S
O564 Tb537 2.658 . S
O564 C554 1.281 . S
O565 Tb537 2.409 . S
O565 C554 1.254 . S
O566 Tb537 2.378 . S
O566 C555 1.236 . S
O567 Tb536 2.341 . S
O567 C555 1.266 . S
H568 C540 0.929 . S
H569 C541 0.931 . S
H570 C543 0.930 . S
H571 C544 0.930 . S
H572 C549 0.929 . S
H573 C550 0.931 . S
H574 C552 0.930 . S
H575 C553 0.930 . S
Tb576 C578 2.809 1_545 S
Tb576 O596 2.484 1_545 S
Tb576 O597 2.440 . S
Tb576 O598 2.658 . S
Tb576 O599 2.409 . S
Tb576 O600 2.378 . S
Tb576 O604 2.325 1_545 S
Tb576 O607 2.341 1_554 S
Tb577 C587 2.809 . S
Tb577 O598 2.325 . S
Tb577 O601 2.341 . S
Tb577 O602 2.484 . S
Tb577 O603 2.440 . S
Tb577 O604 2.658 1_545 S
Tb577 O605 2.409 1_545 S
Tb577 O606 2.378 . S
C578 Tb576 2.809 1_565 S
C578 C579 1.514 . S
C578 O596 1.248 . S
C578 O597 1.266 1_565 S
C579 C578 1.514 . S
C579 C580 1.359 . S
C579 C584 1.348 1_565 S
C580 C579 1.359 . S
C580 C581 1.380 . S
C580 H608 0.929 . S
C581 C580 1.380 . S
C581 C582 1.347 . S
C581 H609 0.931 . S
C582 C581 1.347 . S
C582 C583 1.369 . S
C583 C582 1.369 . S
C583 C584 1.408 1_565 S
C583 H610 0.930 1_565 S
C584 C579 1.348 1_545 S
C584 C583 1.408 1_545 S
C584 H611 0.930 . S
C585 O598 1.281 . S
C585 O599 1.254 . S
C586 O600 1.236 . S
C586 O601 1.266 . S
C587 Tb577 2.809 . S
C587 C588 1.514 . S
C587 O602 1.248 . S
C587 O603 1.266 . S
C588 C587 1.514 . S
C588 C589 1.359 . S
C588 C593 1.348 . S
C589 C588 1.359 . S
C589 C590 1.380 . S
C589 H612 0.929 . S
C590 C589 1.380 . S
C590 C591 1.347 . S
C590 H613 0.931 . S
C591 C590 1.347 . S
C591 C592 1.369 . S
C592 C591 1.369 . S
C592 C593 1.408 . S
C592 H614 0.930 . S
C593 C588 1.348 . S
C593 C592 1.408 . S
C593 H615 0.930 . S
C594 O604 1.281 . S
C594 O605 1.254 . S
C595 O606 1.236 1_556 S
C595 O607 1.266 . S
O596 Tb576 2.484 1_565 S
O596 C578 1.248 . S
O597 Tb576 2.440 . S
O597 C578 1.266 1_545 S
O598 Tb576 2.658 . S
O598 Tb577 2.325 . S
O598 C585 1.281 . S
O599 Tb576 2.409 . S
O599 C585 1.254 . S
O600 Tb576 2.378 . S
O600 C586 1.236 . S
O601 Tb577 2.341 . S
O601 C586 1.266 . S
O602 Tb577 2.484 . S
O602 C587 1.248 . S
O603 Tb577 2.440 . S
O603 C587 1.266 . S
O604 Tb576 2.325 1_565 S
O604 Tb577 2.658 1_565 S
O604 C594 1.281 . S
O605 Tb577 2.409 1_565 S
O605 C594 1.254 . S
O606 Tb577 2.378 . S
O606 C595 1.236 1_554 S
O607 Tb576 2.341 1_556 S
O607 C595 1.266 . S
H608 C580 0.929 . S
H609 C581 0.931 . S
H610 C583 0.930 1_545 S
H611 C584 0.930 . S
H612 C589 0.929 . S
H613 C590 0.931 . S
H614 C592 0.930 . S
H615 C593 0.930 . S
Tb616 C618 2.809 . S
Tb616 O636 2.484 . S
Tb616 O637 2.440 . S
Tb616 O638 2.658 . S
Tb616 O639 2.409 . S
Tb616 O640 2.378 . S
Tb616 O644 2.325 . S
Tb616 O647 2.341 . S
Tb617 C627 2.809 . S
Tb617 O638 2.325 . S
Tb617 O641 2.341 . S
Tb617 O642 2.484 . S
Tb617 O643 2.440 . S
Tb617 O644 2.658 . S
Tb617 O645 2.409 . S
Tb617 O646 2.378 . S
C618 Tb616 2.809 . S
C618 C619 1.514 . S
C618 O636 1.248 . S
C618 O637 1.266 . S
C619 C618 1.514 . S
C619 C620 1.359 . S
C619 C624 1.348 . S
C620 C619 1.359 . S
C620 C621 1.380 . S
C620 H648 0.929 . S
C621 C620 1.380 . S
C621 C622 1.347 . S
C621 H649 0.931 . S
C622 C621 1.347 . S
C622 C623 1.369 . S
C623 C622 1.369 . S
C623 C624 1.408 . S
C623 H650 0.930 . S
C624 C619 1.348 . S
C624 C623 1.408 . S
C624 H651 0.930 . S
C625 O638 1.281 . S
C625 O639 1.254 . S
C626 O640 1.236 . S
C626 O641 1.266 . S
C627 Tb617 2.809 . S
C627 C628 1.514 . S
C627 O642 1.248 . S
C627 O643 1.266 . S
C628 C627 1.514 . S
C628 C629 1.359 . S
C628 C633 1.348 . S
C629 C628 1.359 . S
C629 C630 1.380 . S
C629 H652 0.929 . S
C630 C629 1.380 . S
C630 C631 1.347 . S
C630 H653 0.931 . S
C631 C630 1.347 . S
C631 C632 1.369 . S
C632 C631 1.369 . S
C632 C633 1.408 . S
C632 H654 0.930 . S
C633 C628 1.348 . S
C633 C632 1.408 . S
C633 H655 0.930 . S
C634 O644 1.281 . S
C634 O645 1.254 . S
C635 O646 1.236 . S
C635 O647 1.266 . S
O636 Tb616 2.484 . S
O636 C618 1.248 . S
O637 Tb616 2.440 . S
O637 C618 1.266 . S
O638 Tb616 2.658 . S
O638 Tb617 2.325 . S
O638 C625 1.281 . S
O639 Tb616 2.409 . S
O639 C625 1.254 . S
O640 Tb616 2.378 . S
O640 C626 1.236 . S
O641 Tb617 2.341 . S
O641 C626 1.266 . S
O642 Tb617 2.484 . S
O642 C627 1.248 . S
O643 Tb617 2.440 . S
O643 C627 1.266 . S
O644 Tb616 2.325 . S
O644 Tb617 2.658 . S
O644 C634 1.281 . S
O645 Tb617 2.409 . S
O645 C634 1.254 . S
O646 Tb617 2.378 . S
O646 C635 1.236 . S
O647 Tb616 2.341 . S
O647 C635 1.266 . S
H648 C620 0.929 . S
H649 C621 0.931 . S
H650 C623 0.930 . S
H651 C624 0.930 . S
H652 C629 0.929 . S
H653 C630 0.931 . S
H654 C632 0.930 . S
H655 C633 0.930 . S
Tb656 C658 2.809 . S
Tb656 O676 2.484 . S
Tb656 O677 2.440 . S
Tb656 O678 2.658 . S
Tb656 O679 2.409 . S
Tb656 O680 2.378 1_554 S
Tb656 O684 2.325 . S
Tb656 O687 2.341 . S
Tb657 C667 2.809 . S
Tb657 O678 2.325 . S
Tb657 O681 2.341 1_554 S
Tb657 O682 2.484 . S
Tb657 O683 2.440 . S
Tb657 O684 2.658 . S
Tb657 O685 2.409 . S
Tb657 O686 2.378 . S
C658 Tb656 2.809 . S
C658 C659 1.514 1_554 S
C658 O676 1.248 . S
C658 O677 1.266 . S
C659 C658 1.514 1_556 S
C659 C660 1.359 . S
C659 C664 1.348 . S
C660 C659 1.359 . S
C660 C661 1.380 . S
C660 H688 0.929 . S
C661 C660 1.380 . S
C661 C662 1.347 . S
C661 H689 0.931 . S
C662 C661 1.347 . S
C662 C663 1.369 . S
C663 C662 1.369 . S
C663 C664 1.408 . S
C663 H690 0.930 . S
C664 C659 1.348 . S
C664 C663 1.408 . S
C664 H691 0.930 . S
C665 O678 1.281 . S
C665 O679 1.254 . S
C666 O680 1.236 . S
C666 O681 1.266 . S
C667 Tb657 2.809 . S
C667 C668 1.514 . S
C667 O682 1.248 . S
C667 O683 1.266 . S
C668 C667 1.514 . S
C668 C669 1.359 . S
C668 C673 1.348 . S
C669 C668 1.359 . S
C669 C670 1.380 . S
C669 H692 0.929 . S
C670 C669 1.380 . S
C670 C671 1.347 . S
C670 H693 0.931 . S
C671 C670 1.347 . S
C671 C672 1.369 . S
C672 C671 1.369 . S
C672 C673 1.408 . S
C672 H694 0.930 . S
C673 C668 1.348 . S
C673 C672 1.408 . S
C673 H695 0.930 . S
C674 O684 1.281 . S
C674 O685 1.254 . S
C675 O686 1.236 . S
C675 O687 1.266 . S
O676 Tb656 2.484 . S
O676 C658 1.248 . S
O677 Tb656 2.440 . S
O677 C658 1.266 . S
O678 Tb656 2.658 . S
O678 Tb657 2.325 . S
O678 C665 1.281 . S
O679 Tb656 2.409 . S
O679 C665 1.254 . S
O680 Tb656 2.378 1_556 S
O680 C666 1.236 . S
O681 Tb657 2.341 1_556 S
O681 C666 1.266 . S
O682 Tb657 2.484 . S
O682 C667 1.248 . S
O683 Tb657 2.440 . S
O683 C667 1.266 . S
O684 Tb656 2.325 . S
O684 Tb657 2.658 . S
O684 C674 1.281 . S
O685 Tb657 2.409 . S
O685 C674 1.254 . S
O686 Tb657 2.378 . S
O686 C675 1.236 . S
O687 Tb656 2.341 . S
O687 C675 1.266 . S
H688 C660 0.929 . S
H689 C661 0.931 . S
H690 C663 0.930 . S
H691 C664 0.930 . S
H692 C669 0.929 . S
H693 C670 0.931 . S
H694 C672 0.930 . S
H695 C673 0.930 . S
Tb696 C698 2.809 . S
Tb696 O716 2.484 . S
Tb696 O717 2.440 . S
Tb696 O718 2.658 . S
Tb696 O719 2.409 . S
Tb696 O720 2.378 . S
Tb696 O724 2.325 . S
Tb696 O727 2.341 . S
Tb697 C707 2.809 . S
Tb697 O718 2.325 . S
Tb697 O721 2.341 . S
Tb697 O722 2.484 . S
Tb697 O723 2.440 . S
Tb697 O724 2.658 . S
Tb697 O725 2.409 . S
Tb697 O726 2.378 . S
C698 Tb696 2.809 . S
C698 C699 1.514 . S
C698 O716 1.248 . S
C698 O717 1.266 . S
C699 C698 1.514 . S
C699 C700 1.359 . S
C699 C704 1.348 . S
C700 C699 1.359 . S
C700 C701 1.380 . S
C700 H728 0.929 . S
C701 C700 1.380 . S
C701 C702 1.347 . S
C701 H729 0.931 . S
C702 C701 1.347 . S
C702 C703 1.369 . S
C703 C702 1.369 . S
C703 C704 1.408 . S
C703 H730 0.930 . S
C704 C699 1.348 . S
C704 C703 1.408 . S
C704 H731 0.930 . S
C705 O718 1.281 . S
C705 O719 1.254 . S
C706 O720 1.236 . S
C706 O721 1.266 . S
C707 Tb697 2.809 . S
C707 C708 1.514 . S
C707 O722 1.248 . S
C707 O723 1.266 . S
C708 C707 1.514 . S
C708 C709 1.359 . S
C708 C713 1.348 . S
C709 C708 1.359 . S
C709 C710 1.380 . S
C709 H732 0.929 . S
C710 C709 1.380 . S
C710 C711 1.347 . S
C710 H733 0.931 . S
C711 C710 1.347 . S
C711 C712 1.369 . S
C712 C711 1.369 . S
C712 C713 1.408 . S
C712 H734 0.930 . S
C713 C708 1.348 . S
C713 C712 1.408 . S
C713 H735 0.930 . S
C714 O724 1.281 . S
C714 O725 1.254 . S
C715 O726 1.236 . S
C715 O727 1.266 . S
O716 Tb696 2.484 . S
O716 C698 1.248 . S
O717 Tb696 2.440 . S
O717 C698 1.266 . S
O718 Tb696 2.658 . S
O718 Tb697 2.325 . S
O718 C705 1.281 . S
O719 Tb696 2.409 . S
O719 C705 1.254 . S
O720 Tb696 2.378 . S
O720 C706 1.236 . S
O721 Tb697 2.341 . S
O721 C706 1.266 . S
O722 Tb697 2.484 . S
O722 C707 1.248 . S
O723 Tb697 2.440 . S
O723 C707 1.266 . S
O724 Tb696 2.325 . S
O724 Tb697 2.658 . S
O724 C714 1.281 . S
O725 Tb697 2.409 . S
O725 C714 1.254 . S
O726 Tb697 2.378 . S
O726 C715 1.236 . S
O727 Tb696 2.341 . S
O727 C715 1.266 . S
H728 C700 0.929 . S
H729 C701 0.931 . S
H730 C703 0.930 . S
H731 C704 0.930 . S
H732 C709 0.929 . S
H733 C710 0.931 . S
H734 C712 0.930 . S
H735 C713 0.930 . S
Tb736 C738 2.809 1_455 S
Tb736 O756 2.484 1_455 S
Tb736 O757 2.440 1_455 S
Tb736 O758 2.658 . S
Tb736 O759 2.409 . S
Tb736 O760 2.378 . S
Tb736 O764 2.325 . S
Tb736 O767 2.341 . S
Tb737 C747 2.809 . S
Tb737 O758 2.325 . S
Tb737 O761 2.341 . S
Tb737 O762 2.484 . S
Tb737 O763 2.440 . S
Tb737 O764 2.658 . S
Tb737 O765 2.409 . S
Tb737 O766 2.378 . S
C738 Tb736 2.809 1_655 S
C738 C739 1.514 . S
C738 O756 1.248 . S
C738 O757 1.266 . S
C739 C738 1.514 . S
C739 C740 1.359 . S
C739 C744 1.348 . S
C740 C739 1.359 . S
C740 C741 1.380 . S
C740 H768 0.929 . S
C741 C740 1.380 . S
C741 C742 1.347 . S
C741 H769 0.931 . S
C742 C741 1.347 . S
C742 C743 1.369 . S
C743 C742 1.369 . S
C743 C744 1.408 . S
C743 H770 0.930 . S
C744 C739 1.348 . S
C744 C743 1.408 . S
C744 H771 0.930 . S
C745 O758 1.281 . S
C745 O759 1.254 . S
C746 O760 1.236 . S
C746 O761 1.266 . S
C747 Tb737 2.809 . S
C747 C748 1.514 . S
C747 O762 1.248 . S
C747 O763 1.266 . S
C748 C747 1.514 . S
C748 C749 1.359 . S
C748 C753 1.348 . S
C749 C748 1.359 . S
C749 C750 1.380 . S
C749 H772 0.929 . S
C750 C749 1.380 . S
C750 C751 1.347 . S
C750 H773 0.931 . S
C751 C750 1.347 . S
C751 C752 1.369 . S
C752 C751 1.369 . S
C752 C753 1.408 . S
C752 H774 0.930 . S
C753 C748 1.348 . S
C753 C752 1.408 . S
C753 H775 0.930 . S
C754 O764 1.281 . S
C754 O765 1.254 . S
C755 O766 1.236 . S
C755 O767 1.266 . S
O756 Tb736 2.484 1_655 S
O756 C738 1.248 . S
O757 Tb736 2.440 1_655 S
O757 C738 1.266 . S
O758 Tb736 2.658 . S
O758 Tb737 2.325 . S
O758 C745 1.281 . S
O759 Tb736 2.409 . S
O759 C745 1.254 . S
O760 Tb736 2.378 . S
O760 C746 1.236 . S
O761 Tb737 2.341 . S
O761 C746 1.266 . S
O762 Tb737 2.484 . S
O762 C747 1.248 . S
O763 Tb737 2.440 . S
O763 C747 1.266 . S
O764 Tb736 2.325 . S
O764 Tb737 2.658 . S
O764 C754 1.281 . S
O765 Tb737 2.409 . S
O765 C754 1.254 . S
O766 Tb737 2.378 . S
O766 C755 1.236 . S
O767 Tb736 2.341 . S
O767 C755 1.266 . S
H768 C740 0.929 . S
H769 C741 0.931 . S
H770 C743 0.930 . S
H771 C744 0.930 . S
H772 C749 0.929 . S
H773 C750 0.931 . S
H774 C752 0.930 . S
H775 C753 0.930 . S
Tb776 C778 2.809 . S
Tb776 O796 2.484 . S
Tb776 O797 2.440 . S
Tb776 O798 2.658 . S
Tb776 O799 2.409 . S
Tb776 O800 2.378 . S
Tb776 O804 2.325 . S
Tb776 O807 2.341 . S
Tb777 C787 2.809 . S
Tb777 O798 2.325 . S
Tb777 O801 2.341 . S
Tb777 O802 2.484 . S
Tb777 O803 2.440 . S
Tb777 O804 2.658 . S
Tb777 O805 2.409 . S
Tb777 O806 2.378 . S
C778 Tb776 2.809 . S
C778 C779 1.514 . S
C778 O796 1.248 . S
C778 O797 1.266 . S
C779 C778 1.514 . S
C779 C780 1.359 . S
C779 C784 1.348 . S
C780 C779 1.359 . S
C780 C781 1.380 . S
C780 H808 0.929 . S
C781 C780 1.380 . S
C781 C782 1.347 . S
C781 H809 0.931 . S
C782 C781 1.347 . S
C782 C783 1.369 . S
C783 C782 1.369 . S
C783 C784 1.408 . S
C783 H810 0.930 . S
C784 C779 1.348 . S
C784 C783 1.408 . S
C784 H811 0.930 . S
C785 O798 1.281 . S
C785 O799 1.254 . S
C786 O800 1.236 . S
C786 O801 1.266 . S
C787 Tb777 2.809 . S
C787 C788 1.514 . S
C787 O802 1.248 . S
C787 O803 1.266 . S
C788 C787 1.514 . S
C788 C789 1.359 . S
C788 C793 1.348 . S
C789 C788 1.359 . S
C789 C790 1.380 . S
C789 H812 0.929 . S
C790 C789 1.380 . S
C790 C791 1.347 . S
C790 H813 0.931 . S
C791 C790 1.347 . S
C791 C792 1.369 . S
C792 C791 1.369 . S
C792 C793 1.408 . S
C792 H814 0.930 . S
C793 C788 1.348 . S
C793 C792 1.408 . S
C793 H815 0.930 . S
C794 O804 1.281 . S
C794 O805 1.254 . S
C795 O806 1.236 . S
C795 O807 1.266 . S
O796 Tb776 2.484 . S
O796 C778 1.248 . S
O797 Tb776 2.440 . S
O797 C778 1.266 . S
O798 Tb776 2.658 . S
O798 Tb777 2.325 . S
O798 C785 1.281 . S
O799 Tb776 2.409 . S
O799 C785 1.254 . S
O800 Tb776 2.378 . S
O800 C786 1.236 . S
O801 Tb777 2.341 . S
O801 C786 1.266 . S
O802 Tb777 2.484 . S
O802 C787 1.248 . S
O803 Tb777 2.440 . S
O803 C787 1.266 . S
O804 Tb776 2.325 . S
O804 Tb777 2.658 . S
O804 C794 1.281 . S
O805 Tb777 2.409 . S
O805 C794 1.254 . S
O806 Tb777 2.378 . S
O806 C795 1.236 . S
O807 Tb776 2.341 . S
O807 C795 1.266 . S
H808 C780 0.929 . S
H809 C781 0.931 . S
H810 C783 0.930 . S
H811 C784 0.930 . S
H812 C789 0.929 . S
H813 C790 0.931 . S
H814 C792 0.930 . S
H815 C793 0.930 . S
Tb816 C818 2.809 . S
Tb816 O836 2.484 . S
Tb816 O837 2.440 . S
Tb816 O838 2.658 . S
Tb816 O839 2.409 . S
Tb816 O840 2.378 . S
Tb816 O844 2.325 . S
Tb816 O847 2.341 . S
Tb817 C827 2.809 . S
Tb817 O838 2.325 . S
Tb817 O841 2.341 . S
Tb817 O842 2.484 . S
Tb817 O843 2.440 . S
Tb817 O844 2.658 . S
Tb817 O845 2.409 . S
Tb817 O846 2.378 . S
C818 Tb816 2.809 . S
C818 C819 1.514 . S
C818 O836 1.248 . S
C818 O837 1.266 . S
C819 C818 1.514 . S
C819 C820 1.359 . S
C819 C824 1.348 . S
C820 C819 1.359 . S
C820 C821 1.380 . S
C820 H848 0.929 . S
C821 C820 1.380 . S
C821 C822 1.347 . S
C821 H849 0.931 . S
C822 C821 1.347 . S
C822 C823 1.369 . S
C823 C822 1.369 . S
C823 C824 1.408 . S
C823 H850 0.930 . S
C824 C819 1.348 . S
C824 C823 1.408 . S
C824 H851 0.930 . S
C825 O838 1.281 . S
C825 O839 1.254 . S
C826 O840 1.236 . S
C826 O841 1.266 . S
C827 Tb817 2.809 . S
C827 C828 1.514 . S
C827 O842 1.248 . S
C827 O843 1.266 . S
C828 C827 1.514 . S
C828 C829 1.359 . S
C828 C833 1.348 . S
C829 C828 1.359 . S
C829 C830 1.380 . S
C829 H852 0.929 . S
C830 C829 1.380 . S
C830 C831 1.347 . S
C830 H853 0.931 . S
C831 C830 1.347 . S
C831 C832 1.369 . S
C832 C831 1.369 . S
C832 C833 1.408 . S
C832 H854 0.930 . S
C833 C828 1.348 . S
C833 C832 1.408 . S
C833 H855 0.930 . S
C834 O844 1.281 . S
C834 O845 1.254 . S
C835 O846 1.236 . S
C835 O847 1.266 . S
O836 Tb816 2.484 . S
O836 C818 1.248 . S
O837 Tb816 2.440 . S
O837 C818 1.266 . S
O838 Tb816 2.658 . S
O838 Tb817 2.325 . S
O838 C825 1.281 . S
O839 Tb816 2.409 . S
O839 C825 1.254 . S
O840 Tb816 2.378 . S
O840 C826 1.236 . S
O841 Tb817 2.341 . S
O841 C826 1.266 . S
O842 Tb817 2.484 . S
O842 C827 1.248 . S
O843 Tb817 2.440 . S
O843 C827 1.266 . S
O844 Tb816 2.325 . S
O844 Tb817 2.658 . S
O844 C834 1.281 . S
O845 Tb817 2.409 . S
O845 C834 1.254 . S
O846 Tb817 2.378 . S
O846 C835 1.236 . S
O847 Tb816 2.341 . S
O847 C835 1.266 . S
H848 C820 0.929 . S
H849 C821 0.931 . S
H850 C823 0.930 . S
H851 C824 0.930 . S
H852 C829 0.929 . S
H853 C830 0.931 . S
H854 C832 0.930 . S
H855 C833 0.930 . S
Tb856 C858 2.809 . S
Tb856 O876 2.484 . S
Tb856 O877 2.440 . S
Tb856 O878 2.658 . S
Tb856 O879 2.409 . S
Tb856 O880 2.378 . S
Tb856 O884 2.325 . S
Tb856 O887 2.341 . S
Tb857 C867 2.809 . S
Tb857 O878 2.325 . S
Tb857 O881 2.341 . S
Tb857 O882 2.484 . S
Tb857 O883 2.440 . S
Tb857 O884 2.658 . S
Tb857 O885 2.409 . S
Tb857 O886 2.378 . S
C858 Tb856 2.809 . S
C858 C859 1.514 . S
C858 O876 1.248 . S
C858 O877 1.266 . S
C859 C858 1.514 . S
C859 C860 1.359 . S
C859 C864 1.348 . S
C860 C859 1.359 . S
C860 C861 1.380 . S
C860 H888 0.929 . S
C861 C860 1.380 . S
C861 C862 1.347 . S
C861 H889 0.931 . S
C862 C861 1.347 . S
C862 C863 1.369 . S
C863 C862 1.369 . S
C863 C864 1.408 . S
C863 H890 0.930 . S
C864 C859 1.348 . S
C864 C863 1.408 . S
C864 H891 0.930 . S
C865 O878 1.281 . S
C865 O879 1.254 . S
C866 O880 1.236 . S
C866 O881 1.266 . S
C867 Tb857 2.809 . S
C867 C868 1.514 . S
C867 O882 1.248 . S
C867 O883 1.266 . S
C868 C867 1.514 . S
C868 C869 1.359 . S
C868 C873 1.348 . S
C869 C868 1.359 . S
C869 C870 1.380 . S
C869 H892 0.929 . S
C870 C869 1.380 . S
C870 C871 1.347 . S
C870 H893 0.931 . S
C871 C870 1.347 . S
C871 C872 1.369 . S
C872 C871 1.369 . S
C872 C873 1.408 . S
C872 H894 0.930 . S
C873 C868 1.348 . S
C873 C872 1.408 . S
C873 H895 0.930 . S
C874 O884 1.281 . S
C874 O885 1.254 . S
C875 O886 1.236 . S
C875 O887 1.266 . S
O876 Tb856 2.484 . S
O876 C858 1.248 . S
O877 Tb856 2.440 . S
O877 C858 1.266 . S
O878 Tb856 2.658 . S
O878 Tb857 2.325 . S
O878 C865 1.281 . S
O879 Tb856 2.409 . S
O879 C865 1.254 . S
O880 Tb856 2.378 . S
O880 C866 1.236 . S
O881 Tb857 2.341 . S
O881 C866 1.266 . S
O882 Tb857 2.484 . S
O882 C867 1.248 . S
O883 Tb857 2.440 . S
O883 C867 1.266 . S
O884 Tb856 2.325 . S
O884 Tb857 2.658 . S
O884 C874 1.281 . S
O885 Tb857 2.409 . S
O885 C874 1.254 . S
O886 Tb857 2.378 . S
O886 C875 1.236 . S
O887 Tb856 2.341 . S
O887 C875 1.266 . S
H888 C860 0.929 . S
H889 C861 0.931 . S
H890 C863 0.930 . S
H891 C864 0.930 . S
H892 C869 0.929 . S
H893 C870 0.931 . S
H894 C872 0.930 . S
H895 C873 0.930 . S
Tb896 C898 2.809 . S
Tb896 O916 2.484 . S
Tb896 O917 2.440 . S
Tb896 O918 2.658 . S
Tb896 O919 2.409 . S
Tb896 O920 2.378 . S
Tb896 O924 2.325 . S
Tb896 O927 2.341 . S
Tb897 C907 2.809 . S
Tb897 O918 2.325 . S
Tb897 O921 2.341 . S
Tb897 O922 2.484 . S
Tb897 O923 2.440 . S
Tb897 O924 2.658 . S
Tb897 O925 2.409 . S
Tb897 O926 2.378 . S
C898 Tb896 2.809 . S
C898 C899 1.514 . S
C898 O916 1.248 . S
C898 O917 1.266 . S
C899 C898 1.514 . S
C899 C900 1.359 . S
C899 C904 1.348 . S
C900 C899 1.359 . S
C900 C901 1.380 . S
C900 H928 0.929 . S
C901 C900 1.380 . S
C901 C902 1.347 . S
C901 H929 0.931 . S
C902 C901 1.347 . S
C902 C903 1.369 . S
C903 C902 1.369 . S
C903 C904 1.408 . S
C903 H930 0.930 . S
C904 C899 1.348 . S
C904 C903 1.408 . S
C904 H931 0.930 . S
C905 O918 1.281 . S
C905 O919 1.254 . S
C906 O920 1.236 . S
C906 O921 1.266 . S
C907 Tb897 2.809 . S
C907 C908 1.514 . S
C907 O922 1.248 . S
C907 O923 1.266 . S
C908 C907 1.514 . S
C908 C909 1.359 . S
C908 C913 1.348 . S
C909 C908 1.359 . S
C909 C910 1.380 . S
C909 H932 0.929 . S
C910 C909 1.380 . S
C910 C911 1.347 . S
C910 H933 0.931 . S
C911 C910 1.347 . S
C911 C912 1.369 . S
C912 C911 1.369 . S
C912 C913 1.408 . S
C912 H934 0.930 . S
C913 C908 1.348 . S
C913 C912 1.408 . S
C913 H935 0.930 . S
C914 O924 1.281 . S
C914 O925 1.254 . S
C915 O926 1.236 . S
C915 O927 1.266 . S
O916 Tb896 2.484 . S
O916 C898 1.248 . S
O917 Tb896 2.440 . S
O917 C898 1.266 . S
O918 Tb896 2.658 . S
O918 Tb897 2.325 . S
O918 C905 1.281 . S
O919 Tb896 2.409 . S
O919 C905 1.254 . S
O920 Tb896 2.378 . S
O920 C906 1.236 . S
O921 Tb897 2.341 . S
O921 C906 1.266 . S
O922 Tb897 2.484 . S
O922 C907 1.248 . S
O923 Tb897 2.440 . S
O923 C907 1.266 . S
O924 Tb896 2.325 . S
O924 Tb897 2.658 . S
O924 C914 1.281 . S
O925 Tb897 2.409 . S
O925 C914 1.254 . S
O926 Tb897 2.378 . S
O926 C915 1.236 . S
O927 Tb896 2.341 . S
O927 C915 1.266 . S
H928 C900 0.929 . S
H929 C901 0.931 . S
H930 C903 0.930 . S
H931 C904 0.930 . S
H932 C909 0.929 . S
H933 C910 0.931 . S
H934 C912 0.930 . S
H935 C913 0.930 . S
Tb936 C938 2.809 . S
Tb936 O956 2.484 . S
Tb936 O957 2.440 1_554 S
Tb936 O958 2.658 . S
Tb936 O959 2.409 1_554 S
Tb936 O960 2.378 . S
Tb936 O964 2.325 . S
Tb936 O967 2.341 . S
Tb937 C947 2.809 1_455 S
Tb937 O958 2.325 . S
Tb937 O961 2.341 . S
Tb937 O962 2.484 1_455 S
Tb937 O963 2.440 1_455 S
Tb937 O964 2.658 . S
Tb937 O965 2.409 . S
Tb937 O966 2.378 . S
C938 Tb936 2.809 . S
C938 C939 1.514 . S
C938 O956 1.248 . S
C938 O957 1.266 1_554 S
C939 C938 1.514 . S
C939 C940 1.359 . S
C939 C944 1.348 1_554 S
C940 C939 1.359 . S
C940 C941 1.380 . S
C940 H968 0.929 . S
C941 C940 1.380 . S
C941 C942 1.347 1_554 S
C941 H969 0.931 . S
C942 C941 1.347 1_556 S
C942 C943 1.369 . S
C943 C942 1.369 . S
C943 C944 1.408 . S
C943 H970 0.930 . S
C944 C939 1.348 1_556 S
C944 C943 1.408 . S
C944 H971 0.930 . S
C945 O958 1.281 1_556 S
C945 O959 1.254 . S
C946 O960 1.236 . S
C946 O961 1.266 . S
C947 Tb937 2.809 1_655 S
C947 C948 1.514 . S
C947 O962 1.248 . S
C947 O963 1.266 . S
C948 C947 1.514 . S
C948 C949 1.359 . S
C948 C953 1.348 . S
C949 C948 1.359 . S
C949 C950 1.380 . S
C949 H972 0.929 . S
C950 C949 1.380 . S
C950 C951 1.347 . S
C950 H973 0.931 . S
C951 C950 1.347 . S
C951 C952 1.369 . S
C952 C951 1.369 . S
C952 C953 1.408 . S
C952 H974 0.930 . S
C953 C948 1.348 . S
C953 C952 1.408 . S
C953 H975 0.930 . S
C954 O964 1.281 . S
C954 O965 1.254 . S
C955 O966 1.236 . S
C955 O967 1.266 . S
O956 Tb936 2.484 . S
O956 C938 1.248 . S
O957 Tb936 2.440 1_556 S
O957 C938 1.266 1_556 S
O958 Tb936 2.658 . S
O958 Tb937 2.325 . S
O958 C945 1.281 1_554 S
O959 Tb936 2.409 1_556 S
O959 C945 1.254 . S
O960 Tb936 2.378 . S
O960 C946 1.236 . S
O961 Tb937 2.341 . S
O961 C946 1.266 . S
O962 Tb937 2.484 1_655 S
O962 C947 1.248 . S
O963 Tb937 2.440 1_655 S
O963 C947 1.266 . S
O964 Tb936 2.325 . S
O964 Tb937 2.658 . S
O964 C954 1.281 . S
O965 Tb937 2.409 . S
O965 C954 1.254 . S
O966 Tb937 2.378 . S
O966 C955 1.236 . S
O967 Tb936 2.341 . S
O967 C955 1.266 . S
H968 C940 0.929 . S
H969 C941 0.931 . S
H970 C943 0.930 . S
H971 C944 0.930 . S
H972 C949 0.929 . S
H973 C950 0.931 . S
H974 C952 0.930 . S
H975 C953 0.930 . S
H976 C984 0.929 . S
H977 C986 0.930 . S
H978 C988 0.930 . S
H979 C991 0.929 . S
H980 C994 0.930 . S
H981 C996 0.960 . S
H982 C996 0.960 . S
H983 C996 0.960 . S
C984 H976 0.929 . S
C984 C985 1.377 . S
C984 C986 1.384 . S
C985 C984 1.377 . S
C985 C991 1.390 . S
C986 H977 0.930 . S
C986 C984 1.384 . S
C986 C987 1.372 . S
C987 C986 1.372 . S
C987 C988 1.400 . S
C987 C992 1.490 . S
C988 H978 0.930 . S
C988 C987 1.400 . S
C988 C991 1.386 . S
H989 C1005 0.930 . S
H990 C1006 0.931 . S
C991 H979 0.929 . S
C991 C985 1.390 . S
C991 C988 1.386 . S
C992 C987 1.490 . S
C992 C994 1.395 . S
C992 C995 1.403 . S
H993 C999 0.930 1_655 S
C994 H980 0.930 . S
C994 C992 1.395 . S
C994 C997 1.403 . S
C995 C992 1.403 . S
C995 C996 1.524 1_455 S
C995 C999 1.400 . S
C996 H981 0.960 . S
C996 H982 0.960 . S
C996 H983 0.960 . S
C996 C995 1.524 1_655 S
C997 C994 1.403 . S
C997 C998 1.392 . S
C997 C1001 1.495 . S
C998 C997 1.392 . S
C998 C999 1.385 . S
C998 C1000 1.478 . S
C999 H993 0.930 1_455 S
C999 C995 1.400 . S
C999 C998 1.385 . S
C1000 C998 1.478 . S
C1000 C1002 1.381 . S
C1000 C1006 1.383 1_556 S
C1001 C997 1.495 . S
C1001 H1007 0.959 . S
C1001 H1008 1.021 . S
C1001 H1009 0.960 . S
C1002 C1000 1.381 . S
C1002 C1003 1.394 . S
C1002 H1010 0.930 . S
C1003 C1002 1.394 . S
C1003 C1004 1.383 1_556 S
C1003 H1011 0.929 . S
C1004 C1003 1.383 1_554 S
C1004 C1005 1.377 . S
C1005 H989 0.930 . S
C1005 C1004 1.377 . S
C1005 C1006 1.379 . S
C1006 H990 0.931 . S
C1006 C1000 1.383 1_554 S
C1006 C1005 1.379 . S
H1007 C1001 0.959 . S
H1008 C1001 1.021 . S
H1009 C1001 0.960 . S
H1010 C1002 0.930 . S
H1011 C1003 0.929 . S
H1012 C1020 0.929 . S
H1013 C1022 0.930 . S
H1014 C1024 0.930 . S
H1015 C1027 0.929 . S
H1016 C1030 0.930 . S
H1017 C1032 0.960 . S
H1018 C1032 0.960 . S
H1019 C1032 0.960 . S
C1020 H1012 0.929 . S
C1020 C1021 1.377 . S
C1020 C1022 1.384 . S
C1021 C1020 1.377 . S
C1021 C1027 1.390 . S
C1022 H1013 0.930 . S
C1022 C1020 1.384 . S
C1022 C1023 1.372 . S
C1023 C1022 1.372 . S
C1023 C1024 1.400 . S
C1023 C1028 1.490 . S
C1024 H1014 0.930 . S
C1024 C1023 1.400 . S
C1024 C1027 1.386 . S
H1025 C1041 0.930 . S
H1026 C1042 0.931 . S
C1027 H1015 0.929 . S
C1027 C1021 1.390 . S
C1027 C1024 1.386 . S
C1028 C1023 1.490 . S
C1028 C1030 1.395 . S
C1028 C1031 1.403 . S
H1029 C1035 0.930 . S
C1030 H1016 0.930 . S
C1030 C1028 1.395 . S
C1030 C1033 1.403 . S
C1031 C1028 1.403 . S
C1031 C1032 1.524 . S
C1031 C1035 1.400 . S
C1032 H1017 0.960 . S
C1032 H1018 0.960 . S
C1032 H1019 0.960 . S
C1032 C1031 1.524 . S
C1033 C1030 1.403 . S
C1033 C1034 1.392 . S
C1033 C1037 1.495 . S
C1034 C1033 1.392 . S
C1034 C1035 1.385 . S
C1034 C1036 1.478 . S
C1035 H1029 0.930 . S
C1035 C1031 1.400 . S
C1035 C1034 1.385 . S
C1036 C1034 1.478 . S
C1036 C1038 1.381 . S
C1036 C1042 1.383 . S
C1037 C1033 1.495 . S
C1037 H1043 0.959 . S
C1037 H1044 0.961 . S
C1037 H1045 0.960 . S
C1038 C1036 1.381 . S
C1038 C1039 1.394 . S
C1038 H1046 0.930 . S
C1039 C1038 1.394 . S
C1039 C1040 1.383 . S
C1039 H1047 0.929 . S
C1040 C1039 1.383 . S
C1040 C1041 1.377 . S
C1041 H1025 0.930 . S
C1041 C1040 1.377 . S
C1041 C1042 1.379 . S
C1042 H1026 0.931 . S
C1042 C1036 1.383 . S
C1042 C1041 1.379 . S
H1043 C1037 0.959 . S
H1044 C1037 0.961 . S
H1045 C1037 0.960 . S
H1046 C1038 0.930 . S
H1047 C1039 0.929 . S
H1048 C1056 0.929 . S
H1049 C1058 0.930 . S
H1050 C1060 0.930 . S
H1051 C1063 0.929 . S
H1052 C1066 0.930 . S
H1053 C1068 0.960 . S
H1054 C1068 0.960 . S
H1055 C1068 0.960 . S
C1056 H1048 0.929 . S
C1056 C1057 1.377 . S
C1056 C1058 1.384 . S
C1057 C1056 1.377 . S
C1057 C1063 1.390 . S
C1058 H1049 0.930 . S
C1058 C1056 1.384 . S
C1058 C1059 1.372 . S
C1059 C1058 1.372 . S
C1059 C1060 1.400 . S
C1059 C1064 1.490 . S
C1060 H1050 0.930 . S
C1060 C1059 1.400 . S
C1060 C1063 1.386 . S
H1061 C1077 0.930 . S
H1062 C1078 0.931 . S
C1063 H1051 0.929 . S
C1063 C1057 1.390 . S
C1063 C1060 1.386 . S
C1064 C1059 1.490 . S
C1064 C1066 1.395 . S
C1064 C1067 1.403 . S
H1065 C1071 0.930 . S
C1066 H1052 0.930 . S
C1066 C1064 1.395 . S
C1066 C1069 1.403 . S
C1067 C1064 1.403 . S
C1067 C1068 1.524 . S
C1067 C1071 1.400 . S
C1068 H1053 0.960 . S
C1068 H1054 0.960 . S
C1068 H1055 0.960 . S
C1068 C1067 1.524 . S
C1069 C1066 1.403 . S
C1069 C1070 1.392 . S
C1069 C1073 1.495 . S
C1070 C1069 1.392 . S
C1070 C1071 1.385 . S
C1070 C1072 1.478 . S
C1071 H1065 0.930 . S
C1071 C1067 1.400 . S
C1071 C1070 1.385 . S
C1072 C1070 1.478 . S
C1072 C1074 1.381 . S
C1072 C1078 1.383 . S
C1073 C1069 1.495 . S
C1073 H1079 0.959 . S
C1073 H1080 0.961 . S
C1073 H1081 0.960 . S
C1074 C1072 1.381 . S
C1074 C1075 1.394 . S
C1074 H1082 0.930 . S
C1075 C1074 1.394 . S
C1075 C1076 1.383 . S
C1075 H1083 0.929 . S
C1076 C1075 1.383 . S
C1076 C1077 1.377 . S
C1077 H1061 0.930 . S
C1077 C1076 1.377 . S
C1077 C1078 1.379 . S
C1078 H1062 0.931 . S
C1078 C1072 1.383 . S
C1078 C1077 1.379 . S
H1079 C1073 0.959 . S
H1080 C1073 0.961 . S
H1081 C1073 0.960 . S
H1082 C1074 0.930 . S
H1083 C1075 0.929 . S
H1084 C1092 0.929 . S
H1085 C1094 0.930 . S
H1086 C1096 0.930 . S
H1087 C1099 0.929 . S
H1088 C1102 0.930 . S
H1089 C1104 0.960 . S
H1090 C1104 0.960 . S
H1091 C1104 0.960 . S
C1092 H1084 0.929 . S
C1092 C1093 1.377 . S
C1092 C1094 1.384 . S
C1093 C1092 1.377 . S
C1093 C1099 1.390 . S
C1094 H1085 0.930 . S
C1094 C1092 1.384 . S
C1094 C1095 1.372 . S
C1095 C1094 1.372 . S
C1095 C1096 1.400 . S
C1095 C1100 1.490 . S
C1096 H1086 0.930 . S
C1096 C1095 1.400 . S
C1096 C1099 1.386 . S
H1097 C1113 0.930 . S
H1098 C1114 0.931 . S
C1099 H1087 0.929 . S
C1099 C1093 1.390 . S
C1099 C1096 1.386 . S
C1100 C1095 1.490 . S
C1100 C1102 1.395 . S
C1100 C1103 1.403 . S
H1101 C1107 0.930 . S
C1102 H1088 0.930 . S
C1102 C1100 1.395 . S
C1102 C1105 1.403 . S
C1103 C1100 1.403 . S
C1103 C1104 1.524 . S
C1103 C1107 1.400 . S
C1104 H1089 0.960 . S
C1104 H1090 0.960 . S
C1104 H1091 0.960 . S
C1104 C1103 1.524 . S
C1105 C1102 1.403 . S
C1105 C1106 1.392 . S
C1105 C1109 1.495 . S
C1106 C1105 1.392 . S
C1106 C1107 1.385 . S
C1106 C1108 1.478 . S
C1107 H1101 0.930 . S
C1107 C1103 1.400 . S
C1107 C1106 1.385 . S
C1108 C1106 1.478 . S
C1108 C1110 1.381 . S
C1108 C1114 1.383 . S
C1109 C1105 1.495 . S
C1109 H1115 0.959 . S
C1109 H1116 0.961 . S
C1109 H1117 0.960 . S
C1110 C1108 1.381 . S
C1110 C1111 1.394 . S
C1110 H1118 0.930 . S
C1111 C1110 1.394 . S
C1111 C1112 1.383 . S
C1111 H1119 0.929 . S
C1112 C1111 1.383 . S
C1112 C1113 1.377 . S
C1113 H1097 0.930 . S
C1113 C1112 1.377 . S
C1113 C1114 1.379 . S
C1114 H1098 0.931 . S
C1114 C1108 1.383 . S
C1114 C1113 1.379 . S
H1115 C1109 0.959 . S
H1116 C1109 0.961 . S
H1117 C1109 0.960 . S
H1118 C1110 0.930 . S
H1119 C1111 0.929 . S
H1120 C1128 0.929 . S
H1121 C1130 0.930 . S
H1122 C1132 0.930 . S
H1123 C1135 0.929 . S
H1124 C1138 0.930 . S
H1125 C1140 0.960 . S
H1126 C1140 0.960 . S
H1127 C1140 0.960 . S
C1128 H1120 0.929 . S
C1128 C1129 1.377 . S
C1128 C1130 1.384 . S
C1129 C1128 1.377 . S
C1129 C1135 1.390 . S
C1130 H1121 0.930 . S
C1130 C1128 1.384 . S
C1130 C1131 1.372 . S
C1131 C1130 1.372 . S
C1131 C1132 1.400 . S
C1131 C1136 1.490 . S
C1132 H1122 0.930 . S
C1132 C1131 1.400 . S
C1132 C1135 1.386 . S
H1133 C1149 0.930 . S
H1134 C1150 0.931 . S
C1135 H1123 0.929 . S
C1135 C1129 1.390 . S
C1135 C1132 1.386 . S
C1136 C1131 1.490 . S
C1136 C1138 1.395 . S
C1136 C1139 1.403 . S
H1137 C1143 0.930 . S
C1138 H1124 0.930 . S
C1138 C1136 1.395 . S
C1138 C1141 1.403 . S
C1139 C1136 1.403 . S
C1139 C1140 1.524 . S
C1139 C1143 1.400 . S
C1140 H1125 0.960 . S
C1140 H1126 0.960 . S
C1140 H1127 0.960 . S
C1140 C1139 1.524 . S
C1141 C1138 1.403 . S
C1141 C1142 1.392 . S
C1141 C1145 1.495 . S
C1142 C1141 1.392 . S
C1142 C1143 1.385 . S
C1142 C1144 1.478 . S
C1143 H1137 0.930 . S
C1143 C1139 1.400 . S
C1143 C1142 1.385 . S
C1144 C1142 1.478 . S
C1144 C1146 1.381 . S
C1144 C1150 1.383 . S
C1145 C1141 1.495 . S
C1145 H1151 0.959 . S
C1145 H1152 0.961 . S
C1145 H1153 0.960 . S
C1146 C1144 1.381 . S
C1146 C1147 1.394 . S
C1146 H1154 0.930 . S
C1147 C1146 1.394 . S
C1147 C1148 1.383 . S
C1147 H1155 0.929 . S
C1148 C1147 1.383 . S
C1148 C1149 1.377 . S
C1149 H1133 0.930 . S
C1149 C1148 1.377 . S
C1149 C1150 1.379 . S
C1150 H1134 0.931 . S
C1150 C1144 1.383 . S
C1150 C1149 1.379 . S
H1151 C1145 0.959 . S
H1152 C1145 0.961 . S
H1153 C1145 0.960 . S
H1154 C1146 0.930 . S
H1155 C1147 0.929 . S
H1156 C1164 0.929 . S
H1157 C1166 0.930 . S
H1158 C1168 0.930 . S
H1159 C1171 0.929 . S
H1160 C1174 0.930 . S
H1161 C1176 0.960 . S
H1162 C1176 0.960 . S
H1163 C1176 0.960 . S
C1164 H1156 0.929 . S
C1164 C1165 1.377 . S
C1164 C1166 1.384 . S
C1165 C1164 1.377 . S
C1165 C1171 1.390 . S
C1166 H1157 0.930 . S
C1166 C1164 1.384 . S
C1166 C1167 1.372 . S
C1167 C1166 1.372 . S
C1167 C1168 1.400 . S
C1167 C1172 1.490 . S
C1168 H1158 0.930 . S
C1168 C1167 1.400 . S
C1168 C1171 1.386 . S
H1169 C1185 0.930 . S
H1170 C1186 0.931 . S
C1171 H1159 0.929 . S
C1171 C1165 1.390 . S
C1171 C1168 1.386 . S
C1172 C1167 1.490 . S
C1172 C1174 1.395 . S
C1172 C1175 1.403 . S
H1173 C1179 0.930 . S
C1174 H1160 0.930 . S
C1174 C1172 1.395 . S
C1174 C1177 1.403 . S
C1175 C1172 1.403 . S
C1175 C1176 1.524 . S
C1175 C1179 1.400 . S
C1176 H1161 0.960 . S
C1176 H1162 0.960 . S
C1176 H1163 0.960 . S
C1176 C1175 1.524 . S
C1177 C1174 1.403 . S
C1177 C1178 1.392 . S
C1177 C1181 1.495 . S
C1178 C1177 1.392 . S
C1178 C1179 1.385 . S
C1178 C1180 1.478 . S
C1179 H1173 0.930 . S
C1179 C1175 1.400 . S
C1179 C1178 1.385 . S
C1180 C1178 1.478 . S
C1180 C1182 1.381 . S
C1180 C1186 1.383 . S
C1181 C1177 1.495 . S
C1181 H1187 0.959 . S
C1181 H1188 0.961 . S
C1181 H1189 0.960 . S
C1182 C1180 1.381 . S
C1182 C1183 1.394 . S
C1182 H1190 0.930 . S
C1183 C1182 1.394 . S
C1183 C1184 1.383 . S
C1183 H1191 0.929 . S
C1184 C1183 1.383 . S
C1184 C1185 1.377 . S
C1185 H1169 0.930 . S
C1185 C1184 1.377 . S
C1185 C1186 1.379 . S
C1186 H1170 0.931 . S
C1186 C1180 1.383 . S
C1186 C1185 1.379 . S
H1187 C1181 0.959 . S
H1188 C1181 0.961 . S
H1189 C1181 0.960 . S
H1190 C1182 0.930 . S
H1191 C1183 0.929 . S
H1192 C1200 0.929 . S
H1193 C1202 0.930 . S
H1194 C1204 0.930 . S
H1195 C1207 0.929 . S
H1196 C1210 0.930 . S
H1197 C1212 0.960 . S
H1198 C1212 0.960 . S
H1199 C1212 0.960 . S
C1200 H1192 0.929 . S
C1200 C1201 1.377 . S
C1200 C1202 1.384 . S
C1201 C1200 1.377 . S
C1201 C1207 1.390 . S
C1202 H1193 0.930 . S
C1202 C1200 1.384 . S
C1202 C1203 1.372 . S
C1203 C1202 1.372 . S
C1203 C1204 1.400 . S
C1203 C1208 1.490 . S
C1204 H1194 0.930 . S
C1204 C1203 1.400 . S
C1204 C1207 1.386 . S
H1205 C1221 0.930 . S
H1206 C1222 0.931 . S
C1207 H1195 0.929 . S
C1207 C1201 1.390 . S
C1207 C1204 1.386 . S
C1208 C1203 1.490 . S
C1208 C1210 1.395 . S
C1208 C1211 1.403 . S
H1209 C1215 0.930 . S
C1210 H1196 0.930 . S
C1210 C1208 1.395 . S
C1210 C1213 1.403 . S
C1211 C1208 1.403 . S
C1211 C1212 1.524 . S
C1211 C1215 1.400 . S
C1212 H1197 0.960 . S
C1212 H1198 0.960 . S
C1212 H1199 0.960 . S
C1212 C1211 1.524 . S
C1213 C1210 1.403 . S
C1213 C1214 1.392 . S
C1213 C1217 1.495 . S
C1214 C1213 1.392 . S
C1214 C1215 1.385 . S
C1214 C1216 1.478 . S
C1215 H1209 0.930 . S
C1215 C1211 1.400 . S
C1215 C1214 1.385 . S
C1216 C1214 1.478 . S
C1216 C1218 1.381 . S
C1216 C1222 1.383 . S
C1217 C1213 1.495 . S
C1217 H1223 0.959 . S
C1217 H1224 0.961 . S
C1217 H1225 0.960 . S
C1218 C1216 1.381 . S
C1218 C1219 1.394 . S
C1218 H1226 0.930 . S
C1219 C1218 1.394 . S
C1219 C1220 1.383 . S
C1219 H1227 0.929 . S
C1220 C1219 1.383 . S
C1220 C1221 1.377 . S
C1221 H1205 0.930 . S
C1221 C1220 1.377 . S
C1221 C1222 1.379 . S
C1222 H1206 0.931 . S
C1222 C1216 1.383 . S
C1222 C1221 1.379 . S
H1223 C1217 0.959 . S
H1224 C1217 0.961 . S
H1225 C1217 0.960 . S
H1226 C1218 0.930 . S
H1227 C1219 0.929 . S
H1228 C1236 0.929 . S
H1229 C1238 0.930 . S
H1230 C1240 0.930 . S
H1231 C1243 0.929 . S
H1232 C1246 0.930 . S
H1233 C1248 0.960 . S
H1234 C1248 0.960 . S
H1235 C1248 0.960 . S
C1236 H1228 0.929 . S
C1236 C1237 1.377 . S
C1236 C1238 1.384 . S
C1237 C1236 1.377 . S
C1237 C1243 1.390 . S
C1238 H1229 0.930 . S
C1238 C1236 1.384 . S
C1238 C1239 1.372 . S
C1239 C1238 1.372 . S
C1239 C1240 1.400 . S
C1239 C1244 1.490 . S
C1240 H1230 0.930 . S
C1240 C1239 1.400 . S
C1240 C1243 1.386 . S
H1241 C1257 0.930 . S
H1242 C1258 0.931 . S
C1243 H1231 0.929 . S
C1243 C1237 1.390 . S
C1243 C1240 1.386 . S
C1244 C1239 1.490 . S
C1244 C1246 1.395 . S
C1244 C1247 1.403 . S
H1245 C1251 0.930 . S
C1246 H1232 0.930 . S
C1246 C1244 1.395 . S
C1246 C1249 1.403 . S
C1247 C1244 1.403 . S
C1247 C1248 1.524 . S
C1247 C1251 1.400 . S
C1248 H1233 0.960 . S
C1248 H1234 0.960 . S
C1248 H1235 0.960 . S
C1248 C1247 1.524 . S
C1249 C1246 1.403 . S
C1249 C1250 1.392 . S
C1249 C1253 1.495 . S
C1250 C1249 1.392 . S
C1250 C1251 1.385 . S
C1250 C1252 1.478 . S
C1251 H1245 0.930 . S
C1251 C1247 1.400 . S
C1251 C1250 1.385 . S
C1252 C1250 1.478 . S
C1252 C1254 1.381 . S
C1252 C1258 1.383 . S
C1253 C1249 1.495 . S
C1253 H1259 0.959 . S
C1253 H1260 0.961 . S
C1253 H1261 0.960 . S
C1254 C1252 1.381 . S
C1254 C1255 1.394 . S
C1254 H1262 0.930 . S
C1255 C1254 1.394 . S
C1255 C1256 1.383 . S
C1255 H1263 0.929 . S
C1256 C1255 1.383 . S
C1256 C1257 1.377 . S
C1257 H1241 0.930 . S
C1257 C1256 1.377 . S
C1257 C1258 1.379 . S
C1258 H1242 0.931 . S
C1258 C1252 1.383 . S
C1258 C1257 1.379 . S
H1259 C1253 0.959 . S
H1260 C1253 0.961 . S
H1261 C1253 0.960 . S
H1262 C1254 0.930 . S
H1263 C1255 0.929 . S
H1264 C1272 0.929 . S
H1265 C1274 0.930 . S
H1266 C1276 0.930 . S
H1267 C1279 0.929 . S
H1268 C1282 0.930 . S
H1269 C1284 0.960 . S
H1270 C1284 0.960 . S
H1271 C1284 0.976 . S
C1272 H1264 0.929 . S
C1272 C1273 1.377 1_565 S
C1272 C1274 1.384 . S
C1273 C1272 1.377 1_545 S
C1273 C1279 1.390 . S
C1274 H1265 0.930 . S
C1274 C1272 1.384 . S
C1274 C1275 1.372 1_565 S
C1275 C1274 1.372 1_545 S
C1275 C1276 1.400 . S
C1275 C1280 1.490 . S
C1276 H1266 0.930 . S
C1276 C1275 1.400 . S
C1276 C1279 1.386 . S
H1277 C1293 0.930 . S
H1278 C1294 0.931 . S
C1279 H1267 0.929 . S
C1279 C1273 1.390 . S
C1279 C1276 1.386 . S
C1280 C1275 1.490 . S
C1280 C1282 1.395 1_545 S
C1280 C1283 1.403 . S
H1281 C1287 0.930 1_455 S
C1282 H1268 0.930 . S
C1282 C1280 1.395 1_565 S
C1282 C1285 1.403 . S
C1283 C1280 1.403 . S
C1283 C1284 1.524 1_655 S
C1283 C1287 1.400 . S
C1284 H1269 0.960 . S
C1284 H1270 0.960 . S
C1284 H1271 0.976 . S
C1284 C1283 1.524 1_455 S
C1285 C1282 1.403 . S
C1285 C1286 1.392 1_565 S
C1285 C1289 1.495 . S
C1286 C1285 1.392 1_545 S
C1286 C1287 1.385 . S
C1286 C1288 1.478 . S
C1287 H1281 0.930 1_655 S
C1287 C1283 1.400 . S
C1287 C1286 1.385 . S
C1288 C1286 1.478 . S
C1288 C1290 1.398 1_545 S
C1288 C1294 1.383 . S
C1289 C1285 1.495 . S
C1289 H1295 0.959 . S
C1289 H1296 0.961 . S
C1289 H1297 0.960 . S
C1290 C1288 1.398 1_565 S
C1290 C1291 1.387 1_655 S
C1290 H1298 0.932 . S
C1291 C1290 1.387 1_455 S
C1291 C1292 1.335 1_565 S
C1291 H1299 0.968 . S
C1292 C1291 1.335 1_545 S
C1292 C1293 1.377 . S
C1293 H1277 0.930 . S
C1293 C1292 1.377 . S
C1293 C1294 1.379 1_455 S
C1294 H1278 0.931 . S
C1294 C1288 1.383 . S
C1294 C1293 1.379 1_655 S
H1295 C1289 0.959 . S
H1296 C1289 0.961 . S
H1297 C1289 0.960 . S
H1298 C1290 0.932 . S
H1299 C1291 0.968 . S
H1300 C1308 0.929 . S
H1301 C1310 0.930 . S
H1302 C1312 0.930 . S
H1303 C1315 0.929 . S
H1304 C1318 0.930 . S
H1305 C1320 0.960 . S
H1306 C1320 0.960 . S
H1307 C1320 0.960 . S
C1308 H1300 0.929 . S
C1308 C1309 1.377 . S
C1308 C1310 1.384 . S
C1309 C1308 1.377 . S
C1309 C1315 1.390 . S
C1310 H1301 0.930 . S
C1310 C1308 1.384 . S
C1310 C1311 1.372 . S
C1311 C1310 1.372 . S
C1311 C1312 1.400 . S
C1311 C1316 1.490 . S
C1312 H1302 0.930 . S
C1312 C1311 1.400 . S
C1312 C1315 1.386 . S
H1313 C1329 0.930 . S
H1314 C1330 0.931 . S
C1315 H1303 0.929 . S
C1315 C1309 1.390 . S
C1315 C1312 1.386 . S
C1316 C1311 1.490 . S
C1316 C1318 1.395 . S
C1316 C1319 1.403 . S
H1317 C1323 0.930 . S
C1318 H1304 0.930 . S
C1318 C1316 1.395 . S
C1318 C1321 1.403 . S
C1319 C1316 1.403 . S
C1319 C1320 1.524 . S
C1319 C1323 1.400 . S
C1320 H1305 0.960 . S
C1320 H1306 0.960 . S
C1320 H1307 0.960 . S
C1320 C1319 1.524 . S
C1321 C1318 1.403 . S
C1321 C1322 1.392 . S
C1321 C1325 1.495 . S
C1322 C1321 1.392 . S
C1322 C1323 1.385 . S
C1322 C1324 1.478 . S
C1323 H1317 0.930 . S
C1323 C1319 1.400 . S
C1323 C1322 1.385 . S
C1324 C1322 1.478 . S
C1324 C1326 1.381 . S
C1324 C1330 1.383 . S
C1325 C1321 1.495 . S
C1325 H1331 0.959 . S
C1325 H1332 0.961 . S
C1325 H1333 0.960 . S
C1326 C1324 1.381 . S
C1326 C1327 1.394 . S
C1326 H1334 0.930 . S
C1327 C1326 1.394 . S
C1327 C1328 1.383 . S
C1327 H1335 0.929 . S
C1328 C1327 1.383 . S
C1328 C1329 1.377 . S
C1329 H1313 0.930 . S
C1329 C1328 1.377 . S
C1329 C1330 1.379 . S
C1330 H1314 0.931 . S
C1330 C1324 1.383 . S
C1330 C1329 1.379 . S
H1331 C1325 0.959 . S
H1332 C1325 0.961 . S
H1333 C1325 0.960 . S
H1334 C1326 0.930 . S
H1335 C1327 0.929 . S
H1336 C1344 0.929 . S
H1337 C1346 0.930 . S
H1338 C1348 0.930 . S
H1339 C1351 0.929 . S
H1340 C1354 0.930 . S
H1341 C1356 0.960 . S
H1342 C1356 0.960 . S
H1343 C1356 0.960 . S
C1344 H1336 0.929 . S
C1344 C1345 1.377 . S
C1344 C1346 1.384 . S
C1345 C1344 1.377 . S
C1345 C1351 1.390 1_545 S
C1346 H1337 0.930 . S
C1346 C1344 1.384 . S
C1346 C1347 1.372 . S
C1347 C1346 1.372 . S
C1347 C1348 1.400 1_545 S
C1347 C1352 1.490 . S
C1348 H1338 0.930 . S
C1348 C1347 1.400 1_565 S
C1348 C1351 1.386 . S
H1349 C1365 0.930 1_565 S
H1350 C1366 0.931 1_565 S
C1351 H1339 0.929 . S
C1351 C1345 1.390 1_565 S
C1351 C1348 1.386 . S
C1352 C1347 1.490 . S
C1352 C1354 1.395 . S
C1352 C1355 1.403 1_545 S
H1353 C1359 0.960 . S
C1354 H1340 0.930 . S
C1354 C1352 1.395 . S
C1354 C1357 1.403 . S
C1355 C1352 1.403 1_565 S
C1355 C1356 1.524 . S
C1355 C1359 1.420 . S
C1356 H1341 0.960 . S
C1356 H1342 0.960 . S
C1356 H1343 0.960 . S
C1356 C1355 1.524 . S
C1357 C1354 1.403 . S
C1357 C1358 1.392 . S
C1357 C1361 1.495 . S
C1358 C1357 1.392 . S
C1358 C1359 1.339 1_545 S
C1358 C1360 1.478 . S
C1359 H1353 0.960 . S
C1359 C1355 1.420 . S
C1359 C1358 1.339 1_565 S
C1360 C1358 1.478 . S
C1360 C1362 1.381 . S
C1360 C1366 1.383 . S
C1361 C1357 1.495 . S
C1361 H1367 0.959 . S
C1361 H1368 0.961 . S
C1361 H1369 0.960 . S
C1362 C1360 1.381 . S
C1362 C1363 1.394 . S
C1362 H1370 0.930 . S
C1363 C1362 1.394 . S
C1363 C1364 1.383 . S
C1363 H1371 0.929 . S
C1364 C1363 1.383 . S
C1364 C1365 1.377 . S
C1365 H1349 0.930 1_545 S
C1365 C1364 1.377 . S
C1365 C1366 1.379 . S
C1366 H1350 0.931 1_545 S
C1366 C1360 1.383 . S
C1366 C1365 1.379 . S
H1367 C1361 0.959 . S
H1368 C1361 0.961 . S
H1369 C1361 0.960 . S
H1370 C1362 0.930 . S
H1371 C1363 0.929 . S
H1372 C1380 0.929 . S
H1373 C1382 0.930 . S
H1374 C1384 0.930 . S
H1375 C1387 0.929 . S
H1376 C1390 0.930 . S
H1377 C1392 0.960 . S
H1378 C1392 0.960 . S
H1379 C1392 0.960 . S
C1380 H1372 0.929 . S
C1380 C1381 1.377 . S
C1380 C1382 1.384 . S
C1381 C1380 1.377 . S
C1381 C1387 1.390 . S
C1382 H1373 0.930 . S
C1382 C1380 1.384 . S
C1382 C1383 1.372 . S
C1383 C1382 1.372 . S
C1383 C1384 1.400 . S
C1383 C1388 1.490 . S
C1384 H1374 0.930 . S
C1384 C1383 1.400 . S
C1384 C1387 1.386 . S
H1385 C1401 0.930 . S
H1386 C1402 0.931 . S
C1387 H1375 0.929 . S
C1387 C1381 1.390 . S
C1387 C1384 1.386 . S
C1388 C1383 1.490 . S
C1388 C1390 1.395 . S
C1388 C1391 1.403 . S
H1389 C1395 0.930 . S
C1390 H1376 0.930 . S
C1390 C1388 1.395 . S
C1390 C1393 1.403 . S
C1391 C1388 1.403 . S
C1391 C1392 1.524 . S
C1391 C1395 1.400 . S
C1392 H1377 0.960 . S
C1392 H1378 0.960 . S
C1392 H1379 0.960 . S
C1392 C1391 1.524 . S
C1393 C1390 1.403 . S
C1393 C1394 1.392 . S
C1393 C1397 1.495 . S
C1394 C1393 1.392 . S
C1394 C1395 1.385 . S
C1394 C1396 1.478 . S
C1395 H1389 0.930 . S
C1395 C1391 1.400 . S
C1395 C1394 1.385 . S
C1396 C1394 1.478 . S
C1396 C1398 1.381 . S
C1396 C1402 1.383 . S
C1397 C1393 1.495 . S
C1397 H1403 0.959 . S
C1397 H1404 0.961 . S
C1397 H1405 0.960 . S
C1398 C1396 1.381 . S
C1398 C1399 1.394 . S
C1398 H1406 0.930 . S
C1399 C1398 1.394 . S
C1399 C1400 1.383 . S
C1399 H1407 0.929 . S
C1400 C1399 1.383 . S
C1400 C1401 1.377 . S
C1401 H1385 0.930 . S
C1401 C1400 1.377 . S
C1401 C1402 1.379 . S
C1402 H1386 0.931 . S
C1402 C1396 1.383 . S
C1402 C1401 1.379 . S
H1403 C1397 0.959 . S
H1404 C1397 0.961 . S
H1405 C1397 0.960 . S
H1406 C1398 0.930 . S
H1407 C1399 0.929 . S
H1408 C1416 0.901 1_565 S
H1409 C1418 0.930 1_565 S
H1410 C1420 0.930 . S
H1411 C1423 0.929 . S
H1412 C1426 0.904 1_455 S
H1413 C1428 0.960 . S
H1414 C1428 0.960 . S
H1415 C1428 0.960 1_545 S
C1416 H1408 0.901 1_545 S
C1416 C1417 1.422 . S
C1416 C1418 1.371 . S
C1417 C1416 1.422 . S
C1417 C1423 1.390 . S
C1418 H1409 0.930 1_545 S
C1418 C1416 1.371 . S
C1418 C1419 1.372 . S
C1419 C1418 1.372 . S
C1419 C1420 1.400 . S
C1419 C1424 1.490 . S
C1420 H1410 0.930 . S
C1420 C1419 1.400 . S
C1420 C1423 1.386 . S
H1421 C1437 0.930 . S
H1422 C1438 0.931 . S
C1423 H1411 0.929 . S
C1423 C1417 1.390 . S
C1423 C1420 1.386 . S
C1424 C1419 1.490 . S
C1424 C1426 1.395 . S
C1424 C1427 1.403 . S
H1425 C1431 0.955 . S
C1426 H1412 0.904 1_655 S
C1426 C1424 1.395 . S
C1426 C1429 1.403 1_655 S
C1427 C1424 1.403 . S
C1427 C1428 1.524 1_545 S
C1427 C1431 1.400 . S
C1428 H1413 0.960 . S
C1428 H1414 0.960 . S
C1428 H1415 0.960 1_565 S
C1428 C1427 1.524 1_565 S
C1429 C1426 1.403 1_455 S
C1429 C1430 1.392 1_455 S
C1429 C1433 1.495 . S
C1430 C1429 1.392 1_655 S
C1430 C1431 1.385 . S
C1430 C1432 1.478 . S
C1431 H1425 0.955 . S
C1431 C1427 1.400 . S
C1431 C1430 1.385 . S
C1432 C1430 1.478 . S
C1432 C1434 1.381 1_655 S
C1432 C1438 1.383 . S
C1433 C1429 1.495 . S
C1433 H1439 0.959 . S
C1433 H1440 0.961 . S
C1433 H1441 0.960 . S
C1434 C1432 1.381 1_455 S
C1434 C1435 1.394 . S
C1434 H1442 0.930 1_545 S
C1435 C1434 1.394 . S
C1435 C1436 1.383 . S
C1435 H1443 0.929 1_545 S
C1436 C1435 1.383 . S
C1436 C1437 1.377 1_455 S
C1437 H1421 0.930 . S
C1437 C1436 1.377 1_655 S
C1437 C1438 1.379 . S
C1438 H1422 0.931 . S
C1438 C1432 1.383 . S
C1438 C1437 1.379 . S
H1439 C1433 0.959 . S
H1440 C1433 0.961 . S
H1441 C1433 0.960 . S
H1442 C1434 0.930 1_565 S
H1443 C1435 0.929 1_565 S
H1444 C1452 0.929 . S
H1445 C1454 0.930 . S
H1446 C1456 0.930 . S
H1447 C1459 0.929 . S
H1448 C1462 0.930 . S
H1449 C1464 0.960 . S
H1450 C1464 0.960 . S
H1451 C1464 0.960 . S
C1452 H1444 0.929 . S
C1452 C1453 1.377 . S
C1452 C1454 1.384 . S
C1453 C1452 1.377 . S
C1453 C1459 1.390 . S
C1454 H1445 0.930 . S
C1454 C1452 1.384 . S
C1454 C1455 1.372 . S
C1455 C1454 1.372 . S
C1455 C1456 1.400 . S
C1455 C1460 1.490 . S
C1456 H1446 0.930 . S
C1456 C1455 1.400 . S
C1456 C1459 1.386 . S
H1457 C1473 0.930 . S
H1458 C1474 0.931 . S
C1459 H1447 0.929 . S
C1459 C1453 1.390 . S
C1459 C1456 1.386 . S
C1460 C1455 1.490 . S
C1460 C1462 1.395 . S
C1460 C1463 1.403 . S
H1461 C1467 0.930 . S
C1462 H1448 0.930 . S
C1462 C1460 1.395 . S
C1462 C1465 1.403 . S
C1463 C1460 1.403 . S
C1463 C1464 1.524 . S
C1463 C1467 1.400 . S
C1464 H1449 0.960 . S
C1464 H1450 0.960 . S
C1464 H1451 0.960 . S
C1464 C1463 1.524 . S
C1465 C1462 1.403 . S
C1465 C1466 1.392 . S
C1465 C1469 1.495 . S
C1466 C1465 1.392 . S
C1466 C1467 1.385 . S
C1466 C1468 1.478 . S
C1467 H1461 0.930 . S
C1467 C1463 1.400 . S
C1467 C1466 1.385 . S
C1468 C1466 1.478 . S
C1468 C1470 1.381 . S
C1468 C1474 1.383 . S
C1469 C1465 1.495 . S
C1469 H1475 0.959 . S
C1469 H1476 0.961 . S
C1469 H1477 0.960 . S
C1470 C1468 1.381 . S
C1470 C1471 1.394 . S
C1470 H1478 0.930 . S
C1471 C1470 1.394 . S
C1471 C1472 1.383 . S
C1471 H1479 0.929 . S
C1472 C1471 1.383 . S
C1472 C1473 1.377 . S
C1473 H1457 0.930 . S
C1473 C1472 1.377 . S
C1473 C1474 1.379 . S
C1474 H1458 0.931 . S
C1474 C1468 1.383 . S
C1474 C1473 1.379 . S
H1475 C1469 0.959 . S
H1476 C1469 0.961 . S
H1477 C1469 0.960 . S
H1478 C1470 0.930 . S
H1479 C1471 0.929 . S
H1480 C1488 0.929 1_565 S
H1481 C1490 0.920 1_565 S
H1482 C1492 0.930 . S
H1483 C1495 0.929 . S
H1484 C1498 0.930 . S
H1485 C1500 0.960 . S
H1486 C1500 0.960 1_565 S
H1487 C1500 0.960 . S
C1488 H1480 0.929 1_545 S
C1488 C1489 1.377 . S
C1488 C1490 1.384 . S
C1489 C1488 1.377 . S
C1489 C1495 1.390 . S
C1490 H1481 0.920 1_545 S
C1490 C1488 1.384 . S
C1490 C1491 1.372 . S
C1491 C1490 1.372 . S
C1491 C1492 1.400 . S
C1491 C1496 1.490 . S
C1492 H1482 0.930 . S
C1492 C1491 1.400 . S
C1492 C1495 1.386 . S
H1493 C1509 0.930 . S
H1494 C1510 0.931 . S
C1495 H1483 0.929 . S
C1495 C1489 1.390 . S
C1495 C1492 1.386 . S
C1496 C1491 1.490 . S
C1496 C1498 1.395 . S
C1496 C1499 1.403 . S
H1497 C1503 0.930 . S
C1498 H1484 0.930 . S
C1498 C1496 1.395 . S
C1498 C1501 1.403 . S
C1499 C1496 1.403 . S
C1499 C1500 1.524 . S
C1499 C1503 1.400 . S
C1500 H1485 0.960 . S
C1500 H1486 0.960 1_545 S
C1500 H1487 0.960 . S
C1500 C1499 1.524 . S
C1501 C1498 1.403 . S
C1501 C1502 1.392 . S
C1501 C1505 1.495 . S
C1502 C1501 1.392 . S
C1502 C1503 1.385 . S
C1502 C1504 1.478 . S
C1503 H1497 0.930 . S
C1503 C1499 1.400 . S
C1503 C1502 1.385 . S
C1504 C1502 1.478 . S
C1504 C1506 1.381 . S
C1504 C1510 1.383 . S
C1505 C1501 1.495 . S
C1505 H1511 0.959 . S
C1505 H1512 0.961 . S
C1505 H1513 0.960 . S
C1506 C1504 1.381 . S
C1506 C1507 1.394 . S
C1506 H1514 0.930 . S
C1507 C1506 1.394 . S
C1507 C1508 1.383 . S
C1507 H1515 0.929 . S
C1508 C1507 1.383 . S
C1508 C1509 1.377 . S
C1509 H1493 0.930 . S
C1509 C1508 1.377 . S
C1509 C1510 1.379 . S
C1510 H1494 0.931 . S
C1510 C1504 1.383 . S
C1510 C1509 1.379 . S
H1511 C1505 0.959 . S
H1512 C1505 0.961 . S
H1513 C1505 0.960 . S
H1514 C1506 0.930 . S
H1515 C1507 0.929 . S
H1516 C1524 0.929 . S
H1517 C1526 0.930 . S
H1518 C1528 0.930 . S
H1519 C1531 0.929 . S
H1520 C1534 0.930 . S
H1521 C1536 0.960 . S
H1522 C1536 0.960 . S
H1523 C1536 0.960 . S
C1524 H1516 0.929 . S
C1524 C1525 1.377 . S
C1524 C1526 1.384 . S
C1525 C1524 1.377 . S
C1525 C1531 1.390 . S
C1526 H1517 0.930 . S
C1526 C1524 1.384 . S
C1526 C1527 1.372 . S
C1527 C1526 1.372 . S
C1527 C1528 1.400 . S
C1527 C1532 1.490 . S
C1528 H1518 0.930 . S
C1528 C1527 1.400 . S
C1528 C1531 1.386 . S
H1529 C1545 0.930 . S
H1530 C1546 0.931 . S
C1531 H1519 0.929 . S
C1531 C1525 1.390 . S
C1531 C1528 1.386 . S
C1532 C1527 1.490 . S
C1532 C1534 1.395 . S
C1532 C1535 1.403 . S
H1533 C1539 0.930 . S
C1534 H1520 0.930 . S
C1534 C1532 1.395 . S
C1534 C1537 1.403 . S
C1535 C1532 1.403 . S
C1535 C1536 1.524 . S
C1535 C1539 1.400 . S
C1536 H1521 0.960 . S
C1536 H1522 0.960 . S
C1536 H1523 0.960 . S
C1536 C1535 1.524 . S
C1537 C1534 1.403 . S
C1537 C1538 1.392 . S
C1537 C1541 1.495 . S
C1538 C1537 1.392 . S
C1538 C1539 1.385 . S
C1538 C1540 1.478 . S
C1539 H1533 0.930 . S
C1539 C1535 1.400 . S
C1539 C1538 1.385 . S
C1540 C1538 1.478 . S
C1540 C1542 1.381 . S
C1540 C1546 1.383 . S
C1541 C1537 1.495 . S
C1541 H1547 0.959 . S
C1541 H1548 0.961 . S
C1541 H1549 0.960 . S
C1542 C1540 1.381 . S
C1542 C1543 1.394 . S
C1542 H1550 0.930 . S
C1543 C1542 1.394 . S
C1543 C1544 1.383 . S
C1543 H1551 0.929 . S
C1544 C1543 1.383 . S
C1544 C1545 1.377 . S
C1545 H1529 0.930 . S
C1545 C1544 1.377 . S
C1545 C1546 1.379 . S
C1546 H1530 0.931 . S
C1546 C1540 1.383 . S
C1546 C1545 1.379 . S
H1547 C1541 0.959 . S
H1548 C1541 0.961 . S
H1549 C1541 0.960 . S
H1550 C1542 0.930 . S
H1551 C1543 0.929 . S
H1552 C1560 0.929 . S
H1553 C1562 0.930 . S
H1554 C1564 0.930 . S
H1555 C1567 0.929 . S
H1556 C1570 0.930 . S
H1557 C1572 0.960 . S
H1558 C1572 0.943 1_554 S
H1559 C1572 0.987 . S
C1560 H1552 0.929 . S
C1560 C1561 1.377 1_554 S
C1560 C1562 1.384 . S
C1561 C1560 1.377 1_556 S
C1561 C1567 1.390 . S
C1562 H1553 0.930 . S
C1562 C1560 1.384 . S
C1562 C1563 1.372 . S
C1563 C1562 1.372 . S
C1563 C1564 1.400 1_554 S
C1563 C1568 1.490 . S
C1564 H1554 0.930 . S
C1564 C1563 1.400 1_556 S
C1564 C1567 1.386 . S
H1565 C1581 0.930 . S
H1566 C1582 0.931 . S
C1567 H1555 0.929 . S
C1567 C1561 1.390 . S
C1567 C1564 1.386 . S
C1568 C1563 1.490 . S
C1568 C1570 1.395 . S
C1568 C1571 1.403 . S
H1569 C1575 0.930 . S
C1570 H1556 0.930 . S
C1570 C1568 1.395 . S
C1570 C1573 1.403 . S
C1571 C1568 1.403 . S
C1571 C1572 1.515 1_554 S
C1571 C1575 1.400 . S
C1572 H1557 0.960 . S
C1572 H1558 0.943 1_556 S
C1572 H1559 0.987 . S
C1572 C1571 1.515 1_556 S
C1573 C1570 1.403 . S
C1573 C1574 1.392 . S
C1573 C1577 1.495 . S
C1574 C1573 1.392 . S
C1574 C1575 1.385 . S
C1574 C1576 1.478 . S
C1575 H1569 0.930 . S
C1575 C1571 1.400 . S
C1575 C1574 1.385 . S
C1576 C1574 1.478 . S
C1576 C1578 1.381 . S
C1576 C1582 1.383 . S
C1577 C1573 1.495 . S
C1577 H1583 0.959 . S
C1577 H1584 0.961 . S
C1577 H1585 0.960 . S
C1578 C1576 1.381 . S
C1578 C1579 1.394 . S
C1578 H1586 0.930 . S
C1579 C1578 1.394 . S
C1579 C1580 1.383 . S
C1579 H1587 0.929 . S
C1580 C1579 1.383 . S
C1580 C1581 1.377 . S
C1581 H1565 0.930 . S
C1581 C1580 1.377 . S
C1581 C1582 1.379 . S
C1582 H1566 0.931 . S
C1582 C1576 1.383 . S
C1582 C1581 1.379 . S
H1583 C1577 0.959 . S
H1584 C1577 0.961 . S
H1585 C1577 0.960 . S
H1586 C1578 0.930 . S
H1587 C1579 0.929 . S
H1588 C1596 0.929 . S
H1589 C1598 0.930 . S
H1590 C1600 0.930 . S
H1591 C1603 0.929 . S
H1592 C1606 0.930 . S
H1593 C1608 0.960 . S
H1594 C1608 0.960 . S
H1595 C1608 0.960 . S
C1596 H1588 0.929 . S
C1596 C1597 1.377 . S
C1596 C1598 1.384 . S
C1597 C1596 1.377 . S
C1597 C1603 1.390 . S
C1598 H1589 0.930 . S
C1598 C1596 1.384 . S
C1598 C1599 1.372 . S
C1599 C1598 1.372 . S
C1599 C1600 1.400 . S
C1599 C1604 1.490 . S
C1600 H1590 0.930 . S
C1600 C1599 1.400 . S
C1600 C1603 1.386 . S
H1601 C1617 0.930 . S
H1602 C1618 0.931 . S
C1603 H1591 0.929 . S
C1603 C1597 1.390 . S
C1603 C1600 1.386 . S
C1604 C1599 1.490 . S
C1604 C1606 1.395 1_554 S
C1604 C1607 1.403 . S
H1605 C1611 0.930 . S
C1606 H1592 0.930 . S
C1606 C1604 1.395 1_556 S
C1606 C1609 1.403 . S
C1607 C1604 1.403 . S
C1607 C1608 1.524 . S
C1607 C1611 1.400 . S
C1608 H1593 0.960 . S
C1608 H1594 0.960 . S
C1608 H1595 0.960 . S
C1608 C1607 1.524 . S
C1609 C1606 1.403 . S
C1609 C1610 1.392 1_556 S
C1609 C1613 1.495 . S
C1610 C1609 1.392 1_554 S
C1610 C1611 1.385 . S
C1610 C1612 1.478 . S
C1611 H1605 0.930 . S
C1611 C1607 1.400 . S
C1611 C1610 1.385 . S
C1612 C1610 1.478 . S
C1612 C1614 1.381 . S
C1612 C1618 1.383 . S
C1613 C1609 1.495 . S
C1613 H1619 0.959 . S
C1613 H1620 0.961 . S
C1613 H1621 0.960 . S
C1614 C1612 1.381 . S
C1614 C1615 1.394 . S
C1614 H1622 0.930 . S
C1615 C1614 1.394 . S
C1615 C1616 1.383 . S
C1615 H1623 0.929 . S
C1616 C1615 1.383 . S
C1616 C1617 1.377 . S
C1617 H1601 0.930 . S
C1617 C1616 1.377 . S
C1617 C1618 1.379 . S
C1618 H1602 0.931 . S
C1618 C1612 1.383 . S
C1618 C1617 1.379 . S
H1619 C1613 0.959 . S
H1620 C1613 0.961 . S
H1621 C1613 0.960 . S
H1622 C1614 0.930 . S
H1623 C1615 0.929 . S
H1624 C1632 0.929 . S
H1625 C1634 0.930 . S
H1626 C1636 0.930 . S
H1627 C1639 0.929 . S
H1628 C1642 0.930 . S
H1629 C1644 0.960 . S
H1630 C1644 0.960 . S
H1631 C1644 0.960 . S
C1632 H1624 0.929 . S
C1632 C1633 1.377 . S
C1632 C1634 1.384 . S
C1633 C1632 1.377 . S
C1633 C1639 1.390 . S
C1634 H1625 0.930 . S
C1634 C1632 1.384 . S
C1634 C1635 1.372 . S
C1635 C1634 1.372 . S
C1635 C1636 1.400 . S
C1635 C1640 1.490 . S
C1636 H1626 0.930 . S
C1636 C1635 1.400 . S
C1636 C1639 1.386 . S
H1637 C1653 0.930 . S
H1638 C1654 0.931 . S
C1639 H1627 0.929 . S
C1639 C1633 1.390 . S
C1639 C1636 1.386 . S
C1640 C1635 1.490 . S
C1640 C1642 1.395 . S
C1640 C1643 1.403 . S
H1641 C1647 0.930 . S
C1642 H1628 0.930 . S
C1642 C1640 1.395 . S
C1642 C1645 1.403 . S
C1643 C1640 1.403 . S
C1643 C1644 1.524 . S
C1643 C1647 1.400 . S
C1644 H1629 0.960 . S
C1644 H1630 0.960 . S
C1644 H1631 0.960 . S
C1644 C1643 1.524 . S
C1645 C1642 1.403 . S
C1645 C1646 1.392 . S
C1645 C1649 1.495 . S
C1646 C1645 1.392 . S
C1646 C1647 1.385 . S
C1646 C1648 1.478 . S
C1647 H1641 0.930 . S
C1647 C1643 1.400 . S
C1647 C1646 1.385 . S
C1648 C1646 1.478 . S
C1648 C1650 1.381 . S
C1648 C1654 1.383 . S
C1649 C1645 1.495 . S
C1649 H1655 0.959 . S
C1649 H1656 0.961 . S
C1649 H1657 0.960 . S
C1650 C1648 1.381 . S
C1650 C1651 1.394 . S
C1650 H1658 0.930 . S
C1651 C1650 1.394 . S
C1651 C1652 1.383 . S
C1651 H1659 0.929 . S
C1652 C1651 1.383 . S
C1652 C1653 1.377 . S
C1653 H1637 0.930 . S
C1653 C1652 1.377 . S
C1653 C1654 1.379 . S
C1654 H1638 0.931 . S
C1654 C1648 1.383 . S
C1654 C1653 1.379 . S
H1655 C1649 0.959 . S
H1656 C1649 0.961 . S
H1657 C1649 0.960 . S
H1658 C1650 0.930 . S
H1659 C1651 0.929 . S
H1660 C1668 0.929 . S
H1661 C1670 0.930 . S
H1662 C1672 0.930 . S
H1663 C1675 0.929 . S
H1664 C1678 0.930 . S
H1665 C1680 0.960 . S
H1666 C1680 0.960 . S
H1667 C1680 0.960 . S
C1668 H1660 0.929 . S
C1668 C1669 1.377 . S
C1668 C1670 1.384 . S
C1669 C1668 1.377 . S
C1669 C1675 1.390 . S
C1670 H1661 0.930 . S
C1670 C1668 1.384 . S
C1670 C1671 1.372 . S
C1671 C1670 1.372 . S
C1671 C1672 1.400 . S
C1671 C1676 1.490 . S
C1672 H1662 0.930 . S
C1672 C1671 1.400 . S
C1672 C1675 1.386 . S
H1673 C1689 0.930 . S
H1674 C1690 0.931 . S
C1675 H1663 0.929 . S
C1675 C1669 1.390 . S
C1675 C1672 1.386 . S
C1676 C1671 1.490 . S
C1676 C1678 1.395 . S
C1676 C1679 1.403 . S
H1677 C1683 0.930 . S
C1678 H1664 0.930 . S
C1678 C1676 1.395 . S
C1678 C1681 1.403 . S
C1679 C1676 1.403 . S
C1679 C1680 1.524 . S
C1679 C1683 1.400 . S
C1680 H1665 0.960 . S
C1680 H1666 0.960 . S
C1680 H1667 0.960 . S
C1680 C1679 1.524 . S
C1681 C1678 1.403 . S
C1681 C1682 1.392 . S
C1681 C1685 1.495 . S
C1682 C1681 1.392 . S
C1682 C1683 1.385 . S
C1682 C1684 1.478 . S
C1683 H1677 0.930 . S
C1683 C1679 1.400 . S
C1683 C1682 1.385 . S
C1684 C1682 1.478 . S
C1684 C1686 1.381 . S
C1684 C1690 1.383 . S
C1685 C1681 1.495 . S
C1685 H1691 0.959 . S
C1685 H1692 0.961 . S
C1685 H1693 0.960 . S
C1686 C1684 1.381 . S
C1686 C1687 1.394 . S
C1686 H1694 0.930 . S
C1687 C1686 1.394 . S
C1687 C1688 1.383 . S
C1687 H1695 0.929 . S
C1688 C1687 1.383 . S
C1688 C1689 1.377 . S
C1689 H1673 0.930 . S
C1689 C1688 1.377 . S
C1689 C1690 1.379 . S
C1690 H1674 0.931 . S
C1690 C1684 1.383 . S
C1690 C1689 1.379 . S
H1691 C1685 0.959 . S
H1692 C1685 0.961 . S
H1693 C1685 0.960 . S
H1694 C1686 0.930 . S
H1695 C1687 0.929 . S
H1696 C1704 0.929 . S
H1697 C1706 0.930 . S
H1698 C1708 0.930 . S
H1699 C1711 0.929 . S
H1700 C1714 0.930 . S
H1701 C1716 0.960 . S
H1702 C1716 0.960 . S
H1703 C1716 0.960 . S
C1704 H1696 0.929 . S
C1704 C1705 1.377 . S
C1704 C1706 1.384 . S
C1705 C1704 1.377 . S
C1705 C1711 1.390 . S
C1706 H1697 0.930 . S
C1706 C1704 1.384 . S
C1706 C1707 1.372 . S
C1707 C1706 1.372 . S
C1707 C1708 1.400 . S
C1707 C1712 1.490 . S
C1708 H1698 0.930 . S
C1708 C1707 1.400 . S
C1708 C1711 1.386 . S
H1709 C1725 0.930 . S
H1710 C1726 0.931 . S
C1711 H1699 0.929 . S
C1711 C1705 1.390 . S
C1711 C1708 1.386 . S
C1712 C1707 1.490 . S
C1712 C1714 1.395 . S
C1712 C1715 1.403 . S
H1713 C1719 0.930 . S
C1714 H1700 0.930 . S
C1714 C1712 1.395 . S
C1714 C1717 1.403 . S
C1715 C1712 1.403 . S
C1715 C1716 1.524 . S
C1715 C1719 1.400 . S
C1716 H1701 0.960 . S
C1716 H1702 0.960 . S
C1716 H1703 0.960 . S
C1716 C1715 1.524 . S
C1717 C1714 1.403 . S
C1717 C1718 1.392 . S
C1717 C1721 1.495 . S
C1718 C1717 1.392 . S
C1718 C1719 1.385 . S
C1718 C1720 1.478 . S
C1719 H1713 0.930 . S
C1719 C1715 1.400 . S
C1719 C1718 1.385 . S
C1720 C1718 1.478 . S
C1720 C1722 1.381 . S
C1720 C1726 1.383 . S
C1721 C1717 1.495 . S
C1721 H1727 0.959 . S
C1721 H1728 0.961 . S
C1721 H1729 0.960 . S
C1722 C1720 1.381 . S
C1722 C1723 1.394 . S
C1722 H1730 0.930 . S
C1723 C1722 1.394 . S
C1723 C1724 1.383 . S
C1723 H1731 0.929 . S
C1724 C1723 1.383 . S
C1724 C1725 1.377 . S
C1725 H1709 0.930 . S
C1725 C1724 1.377 . S
C1725 C1726 1.379 . S
C1726 H1710 0.931 . S
C1726 C1720 1.383 . S
C1726 C1725 1.379 . S
H1727 C1721 0.959 . S
H1728 C1721 0.961 . S
H1729 C1721 0.960 . S
H1730 C1722 0.930 . S
H1731 C1723 0.929 . S
H1732 C1740 0.929 . S
H1733 C1742 0.930 . S
H1734 C1744 0.930 . S
H1735 C1747 0.929 . S
H1736 C1750 0.930 . S
H1737 C1752 0.960 . S
H1738 C1752 0.960 . S
H1739 C1752 0.960 . S
C1740 H1732 0.929 . S
C1740 C1741 1.377 . S
C1740 C1742 1.384 . S
C1741 C1740 1.377 . S
C1741 C1747 1.390 . S
C1742 H1733 0.930 . S
C1742 C1740 1.384 . S
C1742 C1743 1.372 . S
C1743 C1742 1.372 . S
C1743 C1744 1.400 . S
C1743 C1748 1.490 . S
C1744 H1734 0.930 . S
C1744 C1743 1.400 . S
C1744 C1747 1.386 . S
H1745 C1761 0.930 . S
H1746 C1762 0.931 . S
C1747 H1735 0.929 . S
C1747 C1741 1.390 . S
C1747 C1744 1.386 . S
C1748 C1743 1.490 . S
C1748 C1750 1.395 . S
C1748 C1751 1.403 . S
H1749 C1755 0.930 . S
C1750 H1736 0.930 . S
C1750 C1748 1.395 . S
C1750 C1753 1.403 . S
C1751 C1748 1.403 . S
C1751 C1752 1.524 . S
C1751 C1755 1.400 . S
C1752 H1737 0.960 . S
C1752 H1738 0.960 . S
C1752 H1739 0.960 . S
C1752 C1751 1.524 . S
C1753 C1750 1.403 . S
C1753 C1754 1.392 . S
C1753 C1757 1.495 . S
C1754 C1753 1.392 . S
C1754 C1755 1.385 . S
C1754 C1756 1.478 . S
C1755 H1749 0.930 . S
C1755 C1751 1.400 . S
C1755 C1754 1.385 . S
C1756 C1754 1.478 . S
C1756 C1758 1.381 . S
C1756 C1762 1.383 . S
C1757 C1753 1.495 . S
C1757 H1763 0.959 . S
C1757 H1764 0.961 . S
C1757 H1765 0.960 . S
C1758 C1756 1.381 . S
C1758 C1759 1.394 . S
C1758 H1766 0.930 . S
C1759 C1758 1.394 . S
C1759 C1760 1.383 . S
C1759 H1767 0.929 . S
C1760 C1759 1.383 . S
C1760 C1761 1.377 . S
C1761 H1745 0.930 . S
C1761 C1760 1.377 . S
C1761 C1762 1.379 . S
C1762 H1746 0.931 . S
C1762 C1756 1.383 . S
C1762 C1761 1.379 . S
H1763 C1757 0.959 . S
H1764 C1757 0.961 . S
H1765 C1757 0.960 . S
H1766 C1758 0.930 . S
H1767 C1759 0.929 . S
H1768 C1776 0.929 . S
H1769 C1778 0.930 . S
H1770 C1780 0.930 . S
H1771 C1783 0.929 . S
H1772 C1786 0.930 . S
H1773 C1788 0.960 . S
H1774 C1788 0.960 . S
H1775 C1788 0.960 . S
C1776 H1768 0.929 . S
C1776 C1777 1.377 . S
C1776 C1778 1.384 . S
C1777 C1776 1.377 . S
C1777 C1783 1.390 . S
C1778 H1769 0.930 . S
C1778 C1776 1.384 . S
C1778 C1779 1.372 . S
C1779 C1778 1.372 . S
C1779 C1780 1.400 . S
C1779 C1784 1.490 . S
C1780 H1770 0.930 . S
C1780 C1779 1.400 . S
C1780 C1783 1.386 . S
H1781 C1797 0.930 . S
H1782 C1798 0.931 . S
C1783 H1771 0.929 . S
C1783 C1777 1.390 . S
C1783 C1780 1.386 . S
C1784 C1779 1.490 . S
C1784 C1786 1.395 . S
C1784 C1787 1.403 . S
H1785 C1791 0.930 . S
C1786 H1772 0.930 . S
C1786 C1784 1.395 . S
C1786 C1789 1.403 . S
C1787 C1784 1.403 . S
C1787 C1788 1.524 . S
C1787 C1791 1.400 . S
C1788 H1773 0.960 . S
C1788 H1774 0.960 . S
C1788 H1775 0.960 . S
C1788 C1787 1.524 . S
C1789 C1786 1.403 . S
C1789 C1790 1.392 . S
C1789 C1793 1.495 . S
C1790 C1789 1.392 . S
C1790 C1791 1.385 . S
C1790 C1792 1.478 . S
C1791 H1785 0.930 . S
C1791 C1787 1.400 . S
C1791 C1790 1.385 . S
C1792 C1790 1.478 . S
C1792 C1794 1.381 . S
C1792 C1798 1.383 . S
C1793 C1789 1.495 . S
C1793 H1799 0.959 . S
C1793 H1800 0.961 . S
C1793 H1801 0.960 . S
C1794 C1792 1.381 . S
C1794 C1795 1.394 . S
C1794 H1802 0.930 . S
C1795 C1794 1.394 . S
C1795 C1796 1.383 . S
C1795 H1803 0.929 . S
C1796 C1795 1.383 . S
C1796 C1797 1.377 . S
C1797 H1781 0.930 . S
C1797 C1796 1.377 . S
C1797 C1798 1.379 . S
C1798 H1782 0.931 . S
C1798 C1792 1.383 . S
C1798 C1797 1.379 . S
H1799 C1793 0.959 . S
H1800 C1793 0.961 . S
H1801 C1793 0.960 . S
H1802 C1794 0.930 . S
H1803 C1795 0.929 . S
H1804 C1812 0.929 . S
H1805 C1814 0.930 . S
H1806 C1816 0.930 . S
H1807 C1819 0.929 . S
H1808 C1822 0.930 . S
H1809 C1824 0.960 . S
H1810 C1824 0.960 . S
H1811 C1824 0.960 . S
C1812 H1804 0.929 . S
C1812 C1813 1.377 . S
C1812 C1814 1.384 . S
C1813 C1812 1.377 . S
C1813 C1819 1.390 . S
C1814 H1805 0.930 . S
C1814 C1812 1.384 . S
C1814 C1815 1.372 . S
C1815 C1814 1.372 . S
C1815 C1816 1.400 . S
C1815 C1820 1.490 . S
C1816 H1806 0.930 . S
C1816 C1815 1.400 . S
C1816 C1819 1.386 . S
H1817 C1833 0.930 . S
H1818 C1834 0.931 . S
C1819 H1807 0.929 . S
C1819 C1813 1.390 . S
C1819 C1816 1.386 . S
C1820 C1815 1.490 . S
C1820 C1822 1.395 . S
C1820 C1823 1.403 . S
H1821 C1827 0.930 . S
C1822 H1808 0.930 . S
C1822 C1820 1.395 . S
C1822 C1825 1.403 . S
C1823 C1820 1.403 . S
C1823 C1824 1.524 . S
C1823 C1827 1.400 . S
C1824 H1809 0.960 . S
C1824 H1810 0.960 . S
C1824 H1811 0.960 . S
C1824 C1823 1.524 . S
C1825 C1822 1.403 . S
C1825 C1826 1.392 . S
C1825 C1829 1.495 . S
C1826 C1825 1.392 . S
C1826 C1827 1.385 . S
C1826 C1828 1.478 . S
C1827 H1821 0.930 . S
C1827 C1823 1.400 . S
C1827 C1826 1.385 . S
C1828 C1826 1.478 . S
C1828 C1830 1.381 . S
C1828 C1834 1.383 . S
C1829 C1825 1.495 . S
C1829 H1835 0.959 . S
C1829 H1836 0.961 . S
C1829 H1837 0.960 . S
C1830 C1828 1.381 . S
C1830 C1831 1.394 . S
C1830 H1838 0.930 . S
C1831 C1830 1.394 . S
C1831 C1832 1.383 . S
C1831 H1839 0.929 . S
C1832 C1831 1.383 . S
C1832 C1833 1.377 . S
C1833 H1817 0.930 . S
C1833 C1832 1.377 . S
C1833 C1834 1.379 . S
C1834 H1818 0.931 . S
C1834 C1828 1.383 . S
C1834 C1833 1.379 . S
H1835 C1829 0.959 . S
H1836 C1829 0.961 . S
H1837 C1829 0.960 . S
H1838 C1830 0.930 . S
H1839 C1831 0.929 . S
H1840 C1848 0.929 . S
H1841 C1850 0.930 . S
H1842 C1852 0.930 . S
H1843 C1855 0.929 . S
H1844 C1858 0.930 . S
H1845 C1860 0.960 . S
H1846 C1860 0.960 . S
H1847 C1860 0.960 . S
C1848 H1840 0.929 . S
C1848 C1849 1.377 . S
C1848 C1850 1.384 . S
C1849 C1848 1.377 . S
C1849 C1855 1.390 . S
C1850 H1841 0.930 . S
C1850 C1848 1.384 . S
C1850 C1851 1.372 . S
C1851 C1850 1.372 . S
C1851 C1852 1.400 . S
C1851 C1856 1.490 . S
C1852 H1842 0.930 . S
C1852 C1851 1.400 . S
C1852 C1855 1.386 . S
H1853 C1869 0.930 . S
H1854 C1870 0.931 . S
C1855 H1843 0.929 . S
C1855 C1849 1.390 . S
C1855 C1852 1.386 . S
C1856 C1851 1.490 . S
C1856 C1858 1.395 . S
C1856 C1859 1.403 . S
H1857 C1863 0.930 . S
C1858 H1844 0.930 . S
C1858 C1856 1.395 . S
C1858 C1861 1.403 . S
C1859 C1856 1.403 . S
C1859 C1860 1.524 . S
C1859 C1863 1.400 . S
C1860 H1845 0.960 . S
C1860 H1846 0.960 . S
C1860 H1847 0.960 . S
C1860 C1859 1.524 . S
C1861 C1858 1.403 . S
C1861 C1862 1.392 . S
C1861 C1865 1.495 . S
C1862 C1861 1.392 . S
C1862 C1863 1.385 . S
C1862 C1864 1.478 . S
C1863 H1857 0.930 . S
C1863 C1859 1.400 . S
C1863 C1862 1.385 . S
C1864 C1862 1.478 . S
C1864 C1866 1.381 . S
C1864 C1870 1.383 . S
C1865 C1861 1.495 . S
C1865 H1871 0.959 . S
C1865 H1872 0.961 . S
C1865 H1873 0.960 . S
C1866 C1864 1.381 . S
C1866 C1867 1.394 . S
C1866 H1874 0.930 . S
C1867 C1866 1.394 . S
C1867 C1868 1.383 . S
C1867 H1875 0.929 . S
C1868 C1867 1.383 . S
C1868 C1869 1.377 . S
C1869 H1853 0.930 . S
C1869 C1868 1.377 . S
C1869 C1870 1.379 . S
C1870 H1854 0.931 . S
C1870 C1864 1.383 . S
C1870 C1869 1.379 . S
H1871 C1865 0.959 . S
H1872 C1865 0.961 . S
H1873 C1865 0.960 . S
H1874 C1866 0.930 . S
H1875 C1867 0.929 . S
H1876 C1884 0.929 . S
H1877 C1886 0.930 . S
H1878 C1888 0.930 . S
H1879 C1891 0.929 . S
H1880 C1894 0.930 . S
H1881 C1896 0.960 . S
H1882 C1896 0.960 . S
H1883 C1896 0.960 . S
C1884 H1876 0.929 . S
C1884 C1885 1.377 . S
C1884 C1886 1.384 . S
C1885 C1884 1.377 . S
C1885 C1891 1.390 . S
C1886 H1877 0.930 . S
C1886 C1884 1.384 . S
C1886 C1887 1.372 . S
C1887 C1886 1.372 . S
C1887 C1888 1.400 . S
C1887 C1892 1.490 . S
C1888 H1878 0.930 . S
C1888 C1887 1.400 . S
C1888 C1891 1.386 . S
H1889 C1905 0.930 . S
H1890 C1906 0.931 . S
C1891 H1879 0.929 . S
C1891 C1885 1.390 . S
C1891 C1888 1.386 . S
C1892 C1887 1.490 . S
C1892 C1894 1.395 . S
C1892 C1895 1.403 . S
H1893 C1899 0.930 . S
C1894 H1880 0.930 . S
C1894 C1892 1.395 . S
C1894 C1897 1.403 . S
C1895 C1892 1.403 . S
C1895 C1896 1.524 . S
C1895 C1899 1.400 . S
C1896 H1881 0.960 . S
C1896 H1882 0.960 . S
C1896 H1883 0.960 . S
C1896 C1895 1.524 . S
C1897 C1894 1.403 . S
C1897 C1898 1.392 . S
C1897 C1901 1.495 . S
C1898 C1897 1.392 . S
C1898 C1899 1.385 . S
C1898 C1900 1.478 . S
C1899 H1893 0.930 . S
C1899 C1895 1.400 . S
C1899 C1898 1.385 . S
C1900 C1898 1.478 . S
C1900 C1902 1.381 . S
C1900 C1906 1.383 . S
C1901 C1897 1.495 . S
C1901 H1907 0.959 . S
C1901 H1908 0.961 . S
C1901 H1909 0.960 . S
C1902 C1900 1.381 . S
C1902 C1903 1.394 . S
C1902 H1910 0.930 . S
C1903 C1902 1.394 . S
C1903 C1904 1.383 . S
C1903 H1911 0.929 . S
C1904 C1903 1.383 . S
C1904 C1905 1.377 . S
C1905 H1889 0.930 . S
C1905 C1904 1.377 . S
C1905 C1906 1.379 . S
C1906 H1890 0.931 . S
C1906 C1900 1.383 . S
C1906 C1905 1.379 . S
H1907 C1901 0.959 . S
H1908 C1901 0.961 . S
H1909 C1901 0.960 . S
H1910 C1902 0.930 . S
H1911 C1903 0.929 . S
H1912 C1920 0.929 . S
H1913 C1922 0.930 . S
H1914 C1924 0.930 . S
H1915 C1927 0.929 . S
H1916 C1930 0.930 . S
H1917 C1932 0.960 . S
H1918 C1932 0.960 . S
H1919 C1932 0.960 . S
C1920 H1912 0.929 . S
C1920 C1921 1.377 . S
C1920 C1922 1.384 . S
C1921 C1920 1.377 . S
C1921 C1927 1.390 . S
C1922 H1913 0.930 . S
C1922 C1920 1.384 . S
C1922 C1923 1.372 . S
C1923 C1922 1.372 . S
C1923 C1924 1.400 . S
C1923 C1928 1.490 . S
C1924 H1914 0.930 . S
C1924 C1923 1.400 . S
C1924 C1927 1.386 . S
H1925 C1941 0.930 . S
H1926 C1942 0.931 . S
C1927 H1915 0.929 . S
C1927 C1921 1.390 . S
C1927 C1924 1.386 . S
C1928 C1923 1.490 . S
C1928 C1930 1.395 . S
C1928 C1931 1.403 . S
H1929 C1935 0.930 . S
C1930 H1916 0.930 . S
C1930 C1928 1.395 . S
C1930 C1933 1.403 . S
C1931 C1928 1.403 . S
C1931 C1932 1.524 . S
C1931 C1935 1.400 . S
C1932 H1917 0.960 . S
C1932 H1918 0.960 . S
C1932 H1919 0.960 . S
C1932 C1931 1.524 . S
C1933 C1930 1.403 . S
C1933 C1934 1.392 . S
C1933 C1937 1.495 . S
C1934 C1933 1.392 . S
C1934 C1935 1.385 . S
C1934 C1936 1.478 . S
C1935 H1929 0.930 . S
C1935 C1931 1.400 . S
C1935 C1934 1.385 . S
C1936 C1934 1.478 . S
C1936 C1938 1.381 . S
C1936 C1942 1.383 . S
C1937 C1933 1.495 . S
C1937 H1943 0.959 . S
C1937 H1944 0.961 . S
C1937 H1945 0.960 . S
C1938 C1936 1.381 . S
C1938 C1939 1.394 . S
C1938 H1946 0.930 . S
C1939 C1938 1.394 . S
C1939 C1940 1.383 . S
C1939 H1947 0.929 . S
C1940 C1939 1.383 . S
C1940 C1941 1.377 . S
C1941 H1925 0.930 . S
C1941 C1940 1.377 . S
C1941 C1942 1.379 . S
C1942 H1926 0.931 . S
C1942 C1936 1.383 . S
C1942 C1941 1.379 . S
H1943 C1937 0.959 . S
H1944 C1937 0.961 . S
H1945 C1937 0.960 . S
H1946 C1938 0.930 . S
H1947 C1939 0.929 . S
H1948 C1956 0.929 . S
H1949 C1958 0.930 . S
H1950 C1960 0.930 . S
H1951 C1963 0.929 . S
H1952 C1966 0.930 . S
H1953 C1968 0.960 . S
H1954 C1968 0.960 . S
H1955 C1968 0.960 . S
C1956 H1948 0.929 . S
C1956 C1957 1.377 . S
C1956 C1958 1.384 . S
C1957 C1956 1.377 . S
C1957 C1963 1.390 . S
C1958 H1949 0.930 . S
C1958 C1956 1.384 . S
C1958 C1959 1.372 . S
C1959 C1958 1.372 . S
C1959 C1960 1.400 . S
C1959 C1964 1.490 . S
C1960 H1950 0.930 . S
C1960 C1959 1.400 . S
C1960 C1963 1.386 . S
H1961 C1977 0.930 . S
H1962 C1978 0.931 . S
C1963 H1951 0.929 . S
C1963 C1957 1.390 . S
C1963 C1960 1.386 . S
C1964 C1959 1.490 . S
C1964 C1966 1.395 . S
C1964 C1967 1.403 . S
H1965 C1971 0.930 . S
C1966 H1952 0.930 . S
C1966 C1964 1.395 . S
C1966 C1969 1.403 . S
C1967 C1964 1.403 . S
C1967 C1968 1.524 . S
C1967 C1971 1.400 . S
C1968 H1953 0.960 . S
C1968 H1954 0.960 . S
C1968 H1955 0.960 . S
C1968 C1967 1.524 . S
C1969 C1966 1.403 . S
C1969 C1970 1.392 . S
C1969 C1973 1.495 . S
C1970 C1969 1.392 . S
C1970 C1971 1.385 . S
C1970 C1972 1.478 . S
C1971 H1965 0.930 . S
C1971 C1967 1.400 . S
C1971 C1970 1.385 . S
C1972 C1970 1.478 . S
C1972 C1974 1.381 . S
C1972 C1978 1.383 . S
C1973 C1969 1.495 . S
C1973 H1979 0.959 . S
C1973 H1980 0.961 . S
C1973 H1981 0.960 . S
C1974 C1972 1.381 . S
C1974 C1975 1.394 . S
C1974 H1982 0.930 . S
C1975 C1974 1.394 . S
C1975 C1976 1.383 . S
C1975 H1983 0.929 . S
C1976 C1975 1.383 . S
C1976 C1977 1.377 . S
C1977 H1961 0.930 . S
C1977 C1976 1.377 . S
C1977 C1978 1.379 . S
C1978 H1962 0.931 . S
C1978 C1972 1.383 . S
C1978 C1977 1.379 . S
H1979 C1973 0.959 . S
H1980 C1973 0.961 . S
H1981 C1973 0.960 . S
H1982 C1974 0.930 . S
H1983 C1975 0.929 . S
H1984 C1992 0.929 . S
H1985 C1994 0.930 . S
H1986 C1996 0.930 . S
H1987 C1999 0.929 . S
H1988 C2002 0.930 . S
H1989 C2004 0.960 . S
H1990 C2004 0.960 . S
H1991 C2004 0.960 . S
C1992 H1984 0.929 . S
C1992 C1993 1.377 1_455 S
C1992 C1994 1.384 . S
C1993 C1992 1.377 1_655 S
C1993 C1999 1.390 . S
C1994 H1985 0.930 . S
C1994 C1992 1.384 . S
C1994 C1995 1.372 1_455 S
C1995 C1994 1.372 1_655 S
C1995 C1996 1.400 . S
C1995 C2000 1.490 . S
C1996 H1986 0.930 . S
C1996 C1995 1.400 . S
C1996 C1999 1.386 . S
H1997 C2013 0.930 . S
H1998 C2014 0.931 . S
C1999 H1987 0.929 . S
C1999 C1993 1.390 . S
C1999 C1996 1.386 . S
C2000 C1995 1.490 . S
C2000 C2002 1.395 1_655 S
C2000 C2003 1.403 . S
H2001 C2007 0.930 . S
C2002 H1988 0.930 . S
C2002 C2000 1.395 1_455 S
C2002 C2005 1.403 . S
C2003 C2000 1.403 . S
C2003 C2004 1.524 . S
C2003 C2007 1.400 . S
C2004 H1989 0.960 . S
C2004 H1990 0.960 . S
C2004 H1991 0.960 . S
C2004 C2003 1.524 . S
C2005 C2002 1.403 . S
C2005 C2006 1.430 . S
C2005 C2009 1.495 . S
C2006 C2005 1.430 . S
C2006 C2007 1.341 1_455 S
C2006 C2008 1.479 . S
C2007 H2001 0.930 . S
C2007 C2003 1.400 . S
C2007 C2006 1.341 1_655 S
C2008 C2006 1.479 . S
C2008 C2010 1.400 . S
C2008 C2014 1.366 1_455 S
C2009 C2005 1.495 . S
C2009 H2015 0.959 . S
C2009 H2016 0.961 . S
C2009 H2017 0.960 . S
C2010 C2008 1.400 . S
C2010 C2011 1.394 . S
C2010 H2018 0.930 . S
C2011 C2010 1.394 . S
C2011 C2012 1.383 1_455 S
C2011 H2019 0.929 . S
C2012 C2011 1.383 1_655 S
C2012 C2013 1.377 . S
C2013 H1997 0.930 . S
C2013 C2012 1.377 . S
C2013 C2014 1.379 . S
C2014 H1998 0.931 . S
C2014 C2008 1.366 1_655 S
C2014 C2013 1.379 . S
H2015 C2009 0.959 . S
H2016 C2009 0.961 . S
H2017 C2009 0.960 . S
H2018 C2010 0.930 . S
H2019 C2011 0.929 . S
H2020 C2028 0.929 . S
H2021 C2030 0.930 . S
H2022 C2032 0.930 . S
H2023 C2035 0.929 . S
H2024 C2038 0.930 . S
H2025 C2040 0.960 . S
H2026 C2040 0.960 . S
H2027 C2040 0.960 . S
C2028 H2020 0.929 . S
C2028 C2029 1.377 . S
C2028 C2030 1.384 . S
C2029 C2028 1.377 . S
C2029 C2035 1.390 . S
C2030 H2021 0.930 . S
C2030 C2028 1.384 . S
C2030 C2031 1.372 . S
C2031 C2030 1.372 . S
C2031 C2032 1.400 . S
C2031 C2036 1.490 . S
C2032 H2022 0.930 . S
C2032 C2031 1.400 . S
C2032 C2035 1.386 . S
H2033 C2049 0.930 . S
H2034 C2050 0.931 . S
C2035 H2023 0.929 . S
C2035 C2029 1.390 . S
C2035 C2032 1.386 . S
C2036 C2031 1.490 . S
C2036 C2038 1.395 . S
C2036 C2039 1.403 . S
H2037 C2043 0.930 . S
C2038 H2024 0.930 . S
C2038 C2036 1.395 . S
C2038 C2041 1.403 . S
C2039 C2036 1.403 . S
C2039 C2040 1.524 . S
C2039 C2043 1.400 . S
C2040 H2025 0.960 . S
C2040 H2026 0.960 . S
C2040 H2027 0.960 . S
C2040 C2039 1.524 . S
C2041 C2038 1.403 . S
C2041 C2042 1.392 . S
C2041 C2045 1.495 . S
C2042 C2041 1.392 . S
C2042 C2043 1.385 . S
C2042 C2044 1.478 . S
C2043 H2037 0.930 . S
C2043 C2039 1.400 . S
C2043 C2042 1.385 . S
C2044 C2042 1.478 . S
C2044 C2046 1.381 . S
C2044 C2050 1.383 . S
C2045 C2041 1.495 . S
C2045 H2051 0.959 . S
C2045 H2052 0.961 . S
C2045 H2053 0.960 . S
C2046 C2044 1.381 . S
C2046 C2047 1.394 . S
C2046 H2054 0.930 . S
C2047 C2046 1.394 . S
C2047 C2048 1.383 . S
C2047 H2055 0.929 . S
C2048 C2047 1.383 . S
C2048 C2049 1.377 . S
C2049 H2033 0.930 . S
C2049 C2048 1.377 . S
C2049 C2050 1.379 . S
C2050 H2034 0.931 . S
C2050 C2044 1.383 . S
C2050 C2049 1.379 . S
H2051 C2045 0.959 . S
H2052 C2045 0.961 . S
H2053 C2045 0.960 . S
H2054 C2046 0.930 . S
H2055 C2047 0.929 . S
H2056 C2064 0.929 . S
H2057 C2066 0.930 . S
H2058 C2068 0.930 . S
H2059 C2071 0.929 . S
H2060 C2074 0.930 . S
H2061 C2076 0.960 . S
H2062 C2076 0.960 . S
H2063 C2076 0.960 . S
C2064 H2056 0.929 . S
C2064 C2065 1.377 . S
C2064 C2066 1.384 . S
C2065 C2064 1.377 . S
C2065 C2071 1.390 . S
C2066 H2057 0.930 . S
C2066 C2064 1.384 . S
C2066 C2067 1.372 . S
C2067 C2066 1.372 . S
C2067 C2068 1.400 . S
C2067 C2072 1.490 . S
C2068 H2058 0.930 . S
C2068 C2067 1.400 . S
C2068 C2071 1.386 . S
H2069 C2085 0.930 . S
H2070 C2086 0.931 . S
C2071 H2059 0.929 . S
C2071 C2065 1.390 . S
C2071 C2068 1.386 . S
C2072 C2067 1.490 . S
C2072 C2074 1.395 . S
C2072 C2075 1.403 . S
H2073 C2079 0.930 . S
C2074 H2060 0.930 . S
C2074 C2072 1.395 . S
C2074 C2077 1.403 . S
C2075 C2072 1.403 . S
C2075 C2076 1.524 . S
C2075 C2079 1.400 . S
C2076 H2061 0.960 . S
C2076 H2062 0.960 . S
C2076 H2063 0.960 . S
C2076 C2075 1.524 . S
C2077 C2074 1.403 . S
C2077 C2078 1.392 . S
C2077 C2081 1.495 . S
C2078 C2077 1.392 . S
C2078 C2079 1.385 . S
C2078 C2080 1.478 . S
C2079 H2073 0.930 . S
C2079 C2075 1.400 . S
C2079 C2078 1.385 . S
C2080 C2078 1.478 . S
C2080 C2082 1.381 . S
C2080 C2086 1.383 . S
C2081 C2077 1.495 . S
C2081 H2087 0.959 . S
C2081 H2088 0.961 . S
C2081 H2089 0.960 . S
C2082 C2080 1.381 . S
C2082 C2083 1.394 . S
C2082 H2090 0.930 . S
C2083 C2082 1.394 . S
C2083 C2084 1.383 1_556 S
C2083 H2091 0.929 . S
C2084 C2083 1.383 1_554 S
C2084 C2085 1.377 . S
C2085 H2069 0.930 . S
C2085 C2084 1.377 . S
C2085 C2086 1.379 1_554 S
C2086 H2070 0.931 . S
C2086 C2080 1.383 . S
C2086 C2085 1.379 1_556 S
H2087 C2081 0.959 . S
H2088 C2081 0.961 . S
H2089 C2081 0.960 . S
H2090 C2082 0.930 . S
H2091 C2083 0.929 . S
H2092 C2100 0.929 . S
H2093 C2102 0.930 . S
H2094 C2104 0.930 . S
H2095 C2107 0.929 . S
H2096 C2110 0.930 . S
H2097 C2112 0.960 . S
H2098 C2112 0.960 . S
H2099 C2112 0.960 . S
C2100 H2092 0.929 . S
C2100 C2101 1.377 . S
C2100 C2102 1.384 . S
C2101 C2100 1.377 . S
C2101 C2107 1.390 . S
C2102 H2093 0.930 . S
C2102 C2100 1.384 . S
C2102 C2103 1.372 1_455 S
C2103 C2102 1.372 1_655 S
C2103 C2104 1.400 . S
C2103 C2108 1.490 . S
C2104 H2094 0.930 . S
C2104 C2103 1.400 . S
C2104 C2107 1.386 1_655 S
H2105 C2121 0.930 . S
H2106 C2122 0.931 . S
C2107 H2095 0.929 . S
C2107 C2101 1.390 . S
C2107 C2104 1.386 1_455 S
C2108 C2103 1.490 . S
C2108 C2110 1.395 . S
C2108 C2111 1.403 . S
H2109 C2115 0.930 . S
C2110 H2096 0.930 . S
C2110 C2108 1.395 . S
C2110 C2113 1.403 . S
C2111 C2108 1.403 . S
C2111 C2112 1.524 . S
C2111 C2115 1.400 . S
C2112 H2097 0.960 . S
C2112 H2098 0.960 . S
C2112 H2099 0.960 . S
C2112 C2111 1.524 . S
C2113 C2110 1.403 . S
C2113 C2114 1.392 . S
C2113 C2117 1.495 . S
C2114 C2113 1.392 . S
C2114 C2115 1.385 . S
C2114 C2116 1.478 . S
C2115 H2109 0.930 . S
C2115 C2111 1.400 . S
C2115 C2114 1.385 . S
C2116 C2114 1.478 . S
C2116 C2118 1.381 . S
C2116 C2122 1.383 . S
C2117 C2113 1.495 . S
C2117 H2123 0.959 . S
C2117 H2124 0.961 . S
C2117 H2125 0.960 . S
C2118 C2116 1.381 . S
C2118 C2119 1.394 . S
C2118 H2126 0.930 . S
C2119 C2118 1.394 . S
C2119 C2120 1.383 . S
C2119 H2127 0.929 . S
C2120 C2119 1.383 . S
C2120 C2121 1.377 . S
C2121 H2105 0.930 . S
C2121 C2120 1.377 . S
C2121 C2122 1.379 . S
C2122 H2106 0.931 . S
C2122 C2116 1.383 . S
C2122 C2121 1.379 . S
H2123 C2117 0.959 . S
H2124 C2117 0.961 . S
H2125 C2117 0.960 . S
H2126 C2118 0.930 . S
H2127 C2119 0.929 . S
H2128 C2136 0.929 . S
H2129 C2138 0.930 . S
H2130 C2140 0.930 . S
H2131 C2143 0.929 . S
H2132 C2146 0.930 1_565 S
H2133 C2148 0.960 . S
H2134 C2148 0.960 . S
H2135 C2148 0.960 . S
C2136 H2128 0.929 . S
C2136 C2137 1.377 . S
C2136 C2138 1.384 . S
C2137 C2136 1.377 . S
C2137 C2143 1.390 . S
C2138 H2129 0.930 . S
C2138 C2136 1.384 . S
C2138 C2139 1.372 . S
C2139 C2138 1.372 . S
C2139 C2140 1.400 . S
C2139 C2144 1.490 . S
C2140 H2130 0.930 . S
C2140 C2139 1.400 . S
C2140 C2143 1.386 . S
H2141 C2157 0.930 1_565 S
H2142 C2158 0.926 1_565 S
C2143 H2131 0.929 . S
C2143 C2137 1.390 . S
C2143 C2140 1.386 . S
C2144 C2139 1.490 . S
C2144 C2146 1.395 . S
C2144 C2147 1.403 . S
H2145 C2151 0.930 . S
C2146 H2132 0.930 1_545 S
C2146 C2144 1.395 . S
C2146 C2149 1.396 1_545 S
C2147 C2144 1.403 . S
C2147 C2148 1.524 . S
C2147 C2151 1.400 . S
C2148 H2133 0.960 . S
C2148 H2134 0.960 . S
C2148 H2135 0.960 . S
C2148 C2147 1.524 . S
C2149 C2146 1.396 1_565 S
C2149 C2150 1.379 1_565 S
C2149 C2153 1.517 . S
C2150 C2149 1.379 1_545 S
C2150 C2151 1.385 . S
C2150 C2152 1.478 . S
C2151 H2145 0.930 . S
C2151 C2147 1.400 . S
C2151 C2150 1.385 . S
C2152 C2150 1.478 . S
C2152 C2154 1.381 . S
C2152 C2158 1.383 . S
C2153 C2149 1.517 . S
C2153 H2159 0.959 . S
C2153 H2160 0.961 . S
C2153 H2161 0.960 . S
C2154 C2152 1.381 . S
C2154 C2155 1.394 . S
C2154 H2162 0.930 . S
C2155 C2154 1.394 . S
C2155 C2156 1.383 . S
C2155 H2163 0.929 . S
C2156 C2155 1.383 . S
C2156 C2157 1.377 . S
C2157 H2141 0.930 1_545 S
C2157 C2156 1.377 . S
C2157 C2158 1.379 . S
C2158 H2142 0.926 1_545 S
C2158 C2152 1.383 . S
C2158 C2157 1.379 . S
H2159 C2153 0.959 . S
H2160 C2153 0.961 . S
H2161 C2153 0.960 . S
H2162 C2154 0.930 . S
H2163 C2155 0.929 . S
H2164 C2172 0.929 . S
H2165 C2174 0.930 . S
H2166 C2176 0.930 . S
H2167 C2179 0.929 . S
H2168 C2182 0.930 . S
H2169 C2184 0.960 . S
H2170 C2184 0.960 . S
H2171 C2184 0.960 . S
C2172 H2164 0.929 . S
C2172 C2173 1.377 . S
C2172 C2174 1.384 . S
C2173 C2172 1.377 . S
C2173 C2179 1.390 . S
C2174 H2165 0.930 . S
C2174 C2172 1.384 . S
C2174 C2175 1.372 . S
C2175 C2174 1.372 . S
C2175 C2176 1.400 . S
C2175 C2180 1.490 . S
C2176 H2166 0.930 . S
C2176 C2175 1.400 . S
C2176 C2179 1.386 . S
H2177 C2193 0.930 . S
H2178 C2194 0.931 . S
C2179 H2167 0.929 . S
C2179 C2173 1.390 . S
C2179 C2176 1.386 . S
C2180 C2175 1.490 . S
C2180 C2182 1.395 . S
C2180 C2183 1.403 . S
H2181 C2187 0.930 . S
C2182 H2168 0.930 . S
C2182 C2180 1.395 . S
C2182 C2185 1.403 . S
C2183 C2180 1.403 . S
C2183 C2184 1.524 . S
C2183 C2187 1.400 . S
C2184 H2169 0.960 . S
C2184 H2170 0.960 . S
C2184 H2171 0.960 . S
C2184 C2183 1.524 . S
C2185 C2182 1.403 . S
C2185 C2186 1.392 . S
C2185 C2189 1.495 . S
C2186 C2185 1.392 . S
C2186 C2187 1.385 . S
C2186 C2188 1.478 . S
C2187 H2181 0.930 . S
C2187 C2183 1.400 . S
C2187 C2186 1.385 . S
C2188 C2186 1.478 . S
C2188 C2190 1.381 . S
C2188 C2194 1.383 . S
C2189 C2185 1.495 . S
C2189 H2195 0.959 . S
C2189 H2196 0.961 . S
C2189 H2197 0.960 . S
C2190 C2188 1.381 . S
C2190 C2191 1.394 . S
C2190 H2198 0.930 . S
C2191 C2190 1.394 . S
C2191 C2192 1.383 . S
C2191 H2199 0.929 . S
C2192 C2191 1.383 . S
C2192 C2193 1.377 . S
C2193 H2177 0.930 . S
C2193 C2192 1.377 . S
C2193 C2194 1.379 . S
C2194 H2178 0.931 . S
C2194 C2188 1.383 . S
C2194 C2193 1.379 . S
H2195 C2189 0.959 . S
H2196 C2189 0.961 . S
H2197 C2189 0.960 . S
H2198 C2190 0.930 . S
H2199 C2191 0.929 . S
H2200 C2208 0.929 . S
H2201 C2210 0.930 . S
H2202 C2212 0.930 1_565 S
H2203 C2215 0.929 1_565 S
H2204 C2218 0.930 . S
H2205 C2220 0.960 . S
H2206 C2220 0.960 1_545 S
H2207 C2220 0.960 . S
C2208 H2200 0.929 . S
C2208 C2209 1.377 . S
C2208 C2210 1.384 . S
C2209 C2208 1.377 . S
C2209 C2215 1.390 . S
C2210 H2201 0.930 . S
C2210 C2208 1.384 . S
C2210 C2211 1.372 . S
C2211 C2210 1.372 . S
C2211 C2212 1.400 . S
C2211 C2216 1.490 . S
C2212 H2202 0.930 1_545 S
C2212 C2211 1.400 . S
C2212 C2215 1.386 . S
H2213 C2229 0.930 1_565 S
H2214 C2230 0.931 1_565 S
C2215 H2203 0.929 1_545 S
C2215 C2209 1.390 . S
C2215 C2212 1.386 . S
C2216 C2211 1.490 . S
C2216 C2218 1.395 . S
C2216 C2219 1.403 . S
H2217 C2223 0.930 . S
C2218 H2204 0.930 . S
C2218 C2216 1.395 . S
C2218 C2221 1.403 . S
C2219 C2216 1.403 . S
C2219 C2220 1.524 1_545 S
C2219 C2223 1.400 . S
C2220 H2205 0.960 . S
C2220 H2206 0.960 1_565 S
C2220 H2207 0.960 . S
C2220 C2219 1.524 1_565 S
C2221 C2218 1.403 . S
C2221 C2222 1.392 . S
C2221 C2225 1.495 . S
C2222 C2221 1.392 . S
C2222 C2223 1.385 . S
C2222 C2224 1.478 . S
C2223 H2217 0.930 . S
C2223 C2219 1.400 . S
C2223 C2222 1.385 . S
C2224 C2222 1.478 . S
C2224 C2226 1.381 . S
C2224 C2230 1.383 . S
C2225 C2221 1.495 . S
C2225 H2231 0.959 . S
C2225 H2232 0.961 . S
C2225 H2233 0.960 . S
C2226 C2224 1.381 . S
C2226 C2227 1.394 . S
C2226 H2234 0.930 . S
C2227 C2226 1.394 . S
C2227 C2228 1.383 . S
C2227 H2235 0.929 . S
C2228 C2227 1.383 . S
C2228 C2229 1.377 . S
C2229 H2213 0.930 1_545 S
C2229 C2228 1.377 . S
C2229 C2230 1.379 . S
C2230 H2214 0.931 1_545 S
C2230 C2224 1.383 . S
C2230 C2229 1.379 . S
H2231 C2225 0.959 . S
H2232 C2225 0.961 . S
H2233 C2225 0.960 . S
H2234 C2226 0.930 . S
H2235 C2227 0.929 . S
H2236 C2244 0.929 . S
H2237 C2246 0.930 . S
H2238 C2248 0.930 . S
H2239 C2251 0.929 . S
H2240 C2254 0.930 . S
H2241 C2256 0.960 . S
H2242 C2256 0.960 . S
H2243 C2256 0.960 . S
C2244 H2236 0.929 . S
C2244 C2245 1.377 . S
C2244 C2246 1.384 . S
C2245 C2244 1.377 . S
C2245 C2251 1.390 . S
C2246 H2237 0.930 . S
C2246 C2244 1.384 . S
C2246 C2247 1.372 . S
C2247 C2246 1.372 . S
C2247 C2248 1.400 . S
C2247 C2252 1.490 . S
C2248 H2238 0.930 . S
C2248 C2247 1.400 . S
C2248 C2251 1.386 . S
H2249 C2265 0.930 . S
H2250 C2266 0.931 . S
C2251 H2239 0.929 . S
C2251 C2245 1.390 . S
C2251 C2248 1.386 . S
C2252 C2247 1.490 . S
C2252 C2254 1.395 . S
C2252 C2255 1.403 . S
H2253 C2259 0.930 . S
C2254 H2240 0.930 . S
C2254 C2252 1.395 . S
C2254 C2257 1.403 . S
C2255 C2252 1.403 . S
C2255 C2256 1.524 . S
C2255 C2259 1.400 . S
C2256 H2241 0.960 . S
C2256 H2242 0.960 . S
C2256 H2243 0.960 . S
C2256 C2255 1.524 . S
C2257 C2254 1.403 . S
C2257 C2258 1.392 . S
C2257 C2261 1.495 . S
C2258 C2257 1.392 . S
C2258 C2259 1.385 . S
C2258 C2260 1.478 . S
C2259 H2253 0.930 . S
C2259 C2255 1.400 . S
C2259 C2258 1.385 . S
C2260 C2258 1.478 . S
C2260 C2262 1.381 . S
C2260 C2266 1.383 . S
C2261 C2257 1.495 . S
C2261 H2267 0.959 . S
C2261 H2268 0.961 . S
C2261 H2269 0.960 . S
C2262 C2260 1.381 . S
C2262 C2263 1.394 . S
C2262 H2270 0.930 . S
C2263 C2262 1.394 . S
C2263 C2264 1.383 . S
C2263 H2271 0.929 . S
C2264 C2263 1.383 . S
C2264 C2265 1.377 . S
C2265 H2249 0.930 . S
C2265 C2264 1.377 . S
C2265 C2266 1.379 . S
C2266 H2250 0.931 . S
C2266 C2260 1.383 . S
C2266 C2265 1.379 . S
H2267 C2261 0.959 . S
H2268 C2261 0.961 . S
H2269 C2261 0.960 . S
H2270 C2262 0.930 . S
H2271 C2263 0.929 . S
H2272 C2280 0.929 . S
H2273 C2282 0.930 . S
H2274 C2284 0.930 1_565 S
H2275 C2287 0.929 1_565 S
H2276 C2290 0.930 . S
H2277 C2292 0.960 . S
H2278 C2292 0.960 . S
H2279 C2292 0.960 . S
C2280 H2272 0.929 . S
C2280 C2281 1.377 . S
C2280 C2282 1.384 . S
C2281 C2280 1.377 . S
C2281 C2287 1.390 . S
C2282 H2273 0.930 . S
C2282 C2280 1.384 . S
C2282 C2283 1.372 . S
C2283 C2282 1.372 . S
C2283 C2284 1.400 . S
C2283 C2288 1.490 . S
C2284 H2274 0.930 1_545 S
C2284 C2283 1.400 . S
C2284 C2287 1.386 . S
H2285 C2301 0.905 1_565 S
H2286 C2302 0.931 1_565 S
C2287 H2275 0.929 1_545 S
C2287 C2281 1.390 . S
C2287 C2284 1.386 . S
C2288 C2283 1.490 . S
C2288 C2290 1.395 . S
C2288 C2291 1.403 . S
H2289 C2295 0.930 . S
C2290 H2276 0.930 . S
C2290 C2288 1.395 . S
C2290 C2293 1.403 . S
C2291 C2288 1.403 . S
C2291 C2292 1.524 . S
C2291 C2295 1.400 . S
C2292 H2277 0.960 . S
C2292 H2278 0.960 . S
C2292 H2279 0.960 . S
C2292 C2291 1.524 . S
C2293 C2290 1.403 . S
C2293 C2294 1.392 . S
C2293 C2297 1.495 . S
C2294 C2293 1.392 . S
C2294 C2295 1.385 . S
C2294 C2296 1.478 . S
C2295 H2289 0.930 . S
C2295 C2291 1.400 . S
C2295 C2294 1.385 . S
C2296 C2294 1.478 . S
C2296 C2298 1.381 . S
C2296 C2302 1.383 . S
C2297 C2293 1.495 . S
C2297 H2303 0.959 . S
C2297 H2304 0.961 . S
C2297 H2305 0.960 . S
C2298 C2296 1.381 . S
C2298 C2299 1.394 . S
C2298 H2306 0.930 . S
C2299 C2298 1.394 . S
C2299 C2300 1.383 . S
C2299 H2307 0.929 . S
C2300 C2299 1.383 . S
C2300 C2301 1.411 . S
C2301 H2285 0.905 1_545 S
C2301 C2300 1.411 . S
C2301 C2302 1.371 . S
C2302 H2286 0.931 1_545 S
C2302 C2296 1.383 . S
C2302 C2301 1.371 . S
H2303 C2297 0.959 . S
H2304 C2297 0.961 . S
H2305 C2297 0.960 . S
H2306 C2298 0.930 . S
H2307 C2299 0.929 . S
H2308 C2316 0.929 . S
H2309 C2318 0.930 . S
H2310 C2320 0.930 . S
H2311 C2323 0.929 . S
H2312 C2326 0.930 . S
H2313 C2328 0.960 . S
H2314 C2328 0.960 . S
H2315 C2328 0.960 . S
C2316 H2308 0.929 . S
C2316 C2317 1.377 . S
C2316 C2318 1.384 . S
C2317 C2316 1.377 . S
C2317 C2323 1.390 . S
C2318 H2309 0.930 . S
C2318 C2316 1.384 . S
C2318 C2319 1.372 . S
C2319 C2318 1.372 . S
C2319 C2320 1.400 . S
C2319 C2324 1.490 . S
C2320 H2310 0.930 . S
C2320 C2319 1.400 . S
C2320 C2323 1.386 . S
H2321 C2337 0.930 . S
H2322 C2338 0.931 . S
C2323 H2311 0.929 . S
C2323 C2317 1.390 . S
C2323 C2320 1.386 . S
C2324 C2319 1.490 . S
C2324 C2326 1.395 . S
C2324 C2327 1.403 . S
H2325 C2331 0.930 . S
C2326 H2312 0.930 . S
C2326 C2324 1.395 . S
C2326 C2329 1.403 . S
C2327 C2324 1.403 . S
C2327 C2328 1.524 . S
C2327 C2331 1.400 . S
C2328 H2313 0.960 . S
C2328 H2314 0.960 . S
C2328 H2315 0.960 . S
C2328 C2327 1.524 . S
C2329 C2326 1.403 . S
C2329 C2330 1.392 . S
C2329 C2333 1.495 . S
C2330 C2329 1.392 . S
C2330 C2331 1.385 . S
C2330 C2332 1.478 . S
C2331 H2325 0.930 . S
C2331 C2327 1.400 . S
C2331 C2330 1.385 . S
C2332 C2330 1.478 . S
C2332 C2334 1.381 . S
C2332 C2338 1.383 . S
C2333 C2329 1.495 . S
C2333 H2339 0.959 . S
C2333 H2340 0.961 . S
C2333 H2341 0.960 . S
C2334 C2332 1.381 . S
C2334 C2335 1.394 . S
C2334 H2342 0.930 . S
C2335 C2334 1.394 . S
C2335 C2336 1.383 . S
C2335 H2343 0.929 . S
C2336 C2335 1.383 . S
C2336 C2337 1.377 . S
C2337 H2321 0.930 . S
C2337 C2336 1.377 . S
C2337 C2338 1.379 . S
C2338 H2322 0.931 . S
C2338 C2332 1.383 . S
C2338 C2337 1.379 . S
H2339 C2333 0.959 . S
H2340 C2333 0.961 . S
H2341 C2333 0.960 . S
H2342 C2334 0.930 . S
H2343 C2335 0.929 . S
H2344 C2352 0.929 . S
H2345 C2354 0.930 . S
H2346 C2356 0.930 . S
H2347 C2359 0.929 . S
H2348 C2362 0.930 . S
H2349 C2364 0.960 . S
H2350 C2364 0.960 . S
H2351 C2364 0.960 . S
C2352 H2344 0.929 . S
C2352 C2353 1.377 1_565 S
C2352 C2354 1.384 . S
C2353 C2352 1.377 1_545 S
C2353 C2359 1.390 . S
C2354 H2345 0.930 . S
C2354 C2352 1.384 . S
C2354 C2355 1.372 1_565 S
C2355 C2354 1.372 1_545 S
C2355 C2356 1.400 . S
C2355 C2360 1.490 . S
C2356 H2346 0.930 . S
C2356 C2355 1.400 . S
C2356 C2359 1.386 . S
H2357 C2373 0.930 . S
H2358 C2374 0.931 . S
C2359 H2347 0.929 . S
C2359 C2353 1.390 . S
C2359 C2356 1.386 . S
C2360 C2355 1.490 . S
C2360 C2362 1.395 1_545 S
C2360 C2363 1.403 . S
H2361 C2367 0.930 . S
C2362 H2348 0.930 . S
C2362 C2360 1.395 1_565 S
C2362 C2365 1.403 . S
C2363 C2360 1.403 . S
C2363 C2364 1.524 . S
C2363 C2367 1.400 . S
C2364 H2349 0.960 . S
C2364 H2350 0.960 . S
C2364 H2351 0.960 . S
C2364 C2363 1.524 . S
C2365 C2362 1.403 . S
C2365 C2366 1.392 1_565 S
C2365 C2369 1.495 . S
C2366 C2365 1.392 1_545 S
C2366 C2367 1.385 . S
C2366 C2368 1.478 . S
C2367 H2361 0.930 . S
C2367 C2363 1.400 . S
C2367 C2366 1.385 . S
C2368 C2366 1.478 . S
C2368 C2370 1.368 1_545 S
C2368 C2374 1.395 . S
C2369 C2365 1.495 . S
C2369 H2375 0.959 . S
C2369 H2376 0.961 . S
C2369 H2377 0.960 . S
C2370 C2368 1.368 1_565 S
C2370 C2371 1.394 . S
C2370 H2378 0.930 . S
C2371 C2370 1.394 . S
C2371 C2372 1.398 . S
C2371 H2379 0.929 . S
C2372 C2371 1.398 . S
C2372 C2373 1.363 1_565 S
C2373 H2357 0.930 . S
C2373 C2372 1.363 1_545 S
C2373 C2374 1.379 . S
C2374 H2358 0.931 . S
C2374 C2368 1.395 . S
C2374 C2373 1.379 . S
H2375 C2369 0.959 . S
H2376 C2369 0.961 . S
H2377 C2369 0.960 . S
H2378 C2370 0.930 . S
H2379 C2371 0.929 . S
H2380 C2388 0.929 . S
H2381 C2390 0.930 . S
H2382 C2392 0.930 . S
H2383 C2395 0.929 . S
H2384 C2398 0.930 . S
H2385 C2400 0.960 . S
H2386 C2400 0.960 . S
H2387 C2400 0.960 . S
C2388 H2380 0.929 . S
C2388 C2389 1.377 . S
C2388 C2390 1.384 . S
C2389 C2388 1.377 . S
C2389 C2395 1.390 . S
C2390 H2381 0.930 . S
C2390 C2388 1.384 . S
C2390 C2391 1.372 . S
C2391 C2390 1.372 . S
C2391 C2392 1.400 . S
C2391 C2396 1.490 . S
C2392 H2382 0.930 . S
C2392 C2391 1.400 . S
C2392 C2395 1.386 . S
H2393 C2409 0.930 . S
H2394 C2410 0.931 . S
C2395 H2383 0.929 . S
C2395 C2389 1.390 . S
C2395 C2392 1.386 . S
C2396 C2391 1.490 . S
C2396 C2398 1.395 . S
C2396 C2399 1.403 . S
H2397 C2403 0.930 . S
C2398 H2384 0.930 . S
C2398 C2396 1.395 . S
C2398 C2401 1.403 . S
C2399 C2396 1.403 . S
C2399 C2400 1.524 . S
C2399 C2403 1.400 . S
C2400 H2385 0.960 . S
C2400 H2386 0.960 . S
C2400 H2387 0.960 . S
C2400 C2399 1.524 . S
C2401 C2398 1.403 . S
C2401 C2402 1.392 . S
C2401 C2405 1.495 . S
C2402 C2401 1.392 . S
C2402 C2403 1.385 . S
C2402 C2404 1.478 . S
C2403 H2397 0.930 . S
C2403 C2399 1.400 . S
C2403 C2402 1.385 . S
C2404 C2402 1.478 . S
C2404 C2406 1.381 . S
C2404 C2410 1.383 . S
C2405 C2401 1.495 . S
C2405 H2411 0.959 . S
C2405 H2412 0.961 . S
C2405 H2413 0.960 . S
C2406 C2404 1.381 . S
C2406 C2407 1.394 . S
C2406 H2414 0.930 . S
C2407 C2406 1.394 . S
C2407 C2408 1.383 . S
C2407 H2415 0.929 . S
C2408 C2407 1.383 . S
C2408 C2409 1.377 . S
C2409 H2393 0.930 . S
C2409 C2408 1.377 . S
C2409 C2410 1.379 . S
C2410 H2394 0.931 . S
C2410 C2404 1.383 . S
C2410 C2409 1.379 . S
H2411 C2405 0.959 . S
H2412 C2405 0.961 . S
H2413 C2405 0.960 . S
H2414 C2406 0.930 . S
H2415 C2407 0.929 . S
H2416 C2424 0.929 . S
H2417 C2426 0.930 . S
H2418 C2428 0.930 . S
H2419 C2431 0.929 . S
H2420 C2434 0.930 . S
H2421 C2436 0.960 . S
H2422 C2436 0.960 . S
H2423 C2436 0.960 . S
C2424 H2416 0.929 . S
C2424 C2425 1.377 . S
C2424 C2426 1.384 . S
C2425 C2424 1.377 . S
C2425 C2431 1.390 . S
C2426 H2417 0.930 . S
C2426 C2424 1.384 . S
C2426 C2427 1.372 . S
C2427 C2426 1.372 . S
C2427 C2428 1.400 . S
C2427 C2432 1.490 . S
C2428 H2418 0.930 . S
C2428 C2427 1.400 . S
C2428 C2431 1.386 . S
H2429 C2445 0.930 . S
H2430 C2446 0.931 . S
C2431 H2419 0.929 . S
C2431 C2425 1.390 . S
C2431 C2428 1.386 . S
C2432 C2427 1.490 . S
C2432 C2434 1.395 . S
C2432 C2435 1.403 . S
H2433 C2439 0.930 . S
C2434 H2420 0.930 . S
C2434 C2432 1.395 . S
C2434 C2437 1.403 . S
C2435 C2432 1.403 . S
C2435 C2436 1.524 . S
C2435 C2439 1.400 . S
C2436 H2421 0.960 . S
C2436 H2422 0.960 . S
C2436 H2423 0.960 . S
C2436 C2435 1.524 . S
C2437 C2434 1.403 . S
C2437 C2438 1.392 . S
C2437 C2441 1.495 . S
C2438 C2437 1.392 . S
C2438 C2439 1.385 . S
C2438 C2440 1.478 . S
C2439 H2433 0.930 . S
C2439 C2435 1.400 . S
C2439 C2438 1.385 . S
C2440 C2438 1.478 . S
C2440 C2442 1.381 1_554 S
C2440 C2446 1.383 . S
C2441 C2437 1.495 . S
C2441 H2447 0.959 . S
C2441 H2448 0.961 . S
C2441 H2449 0.960 . S
C2442 C2440 1.381 1_556 S
C2442 C2443 1.394 . S
C2442 H2450 0.930 . S
C2443 C2442 1.394 . S
C2443 C2444 1.383 . S
C2443 H2451 0.929 . S
C2444 C2443 1.383 . S
C2444 C2445 1.377 1_556 S
C2445 H2429 0.930 . S
C2445 C2444 1.377 1_554 S
C2445 C2446 1.379 . S
C2446 H2430 0.931 . S
C2446 C2440 1.383 . S
C2446 C2445 1.379 . S
H2447 C2441 0.959 . S
H2448 C2441 0.961 . S
H2449 C2441 0.960 . S
H2450 C2442 0.930 . S
H2451 C2443 0.929 . S
H2452 C2460 0.929 . S
H2453 C2462 0.930 . S
H2454 C2464 0.887 1_556 S
H2455 C2467 0.891 1_556 S
H2456 C2470 0.930 . S
H2457 C2472 0.978 . S
H2458 C2472 0.947 1_554 S
H2459 C2472 0.970 . S
C2460 H2452 0.929 . S
C2460 C2461 1.377 . S
C2460 C2462 1.384 . S
C2461 C2460 1.377 . S
C2461 C2467 1.390 . S
C2462 H2453 0.930 . S
C2462 C2460 1.384 . S
C2462 C2463 1.372 . S
C2463 C2462 1.372 . S
C2463 C2464 1.400 . S
C2463 C2468 1.490 . S
C2464 H2454 0.887 1_554 S
C2464 C2463 1.400 . S
C2464 C2467 1.386 . S
H2465 C2481 0.929 1_556 S
H2466 C2482 0.931 . S
C2467 H2455 0.891 1_554 S
C2467 C2461 1.390 . S
C2467 C2464 1.386 . S
C2468 C2463 1.490 . S
C2468 C2470 1.395 . S
C2468 C2471 1.403 . S
H2469 C2475 0.930 . S
C2470 H2456 0.930 . S
C2470 C2468 1.395 . S
C2470 C2473 1.403 . S
C2471 C2468 1.403 . S
C2471 C2472 1.509 1_554 S
C2471 C2475 1.400 . S
C2472 H2457 0.978 . S
C2472 H2458 0.947 1_556 S
C2472 H2459 0.970 . S
C2472 C2471 1.509 1_556 S
C2473 C2470 1.403 . S
C2473 C2474 1.392 . S
C2473 C2477 1.495 . S
C2474 C2473 1.392 . S
C2474 C2475 1.385 . S
C2474 C2476 1.478 . S
C2475 H2469 0.930 . S
C2475 C2471 1.400 . S
C2475 C2474 1.385 . S
C2476 C2474 1.478 . S
C2476 C2478 1.381 . S
C2476 C2482 1.383 . S
C2477 C2473 1.495 . S
C2477 H2483 0.959 . S
C2477 H2484 0.961 . S
C2477 H2485 0.960 . S
C2478 C2476 1.381 . S
C2478 C2479 1.394 . S
C2478 H2486 0.930 . S
C2479 C2478 1.394 . S
C2479 C2480 1.383 . S
C2479 H2487 0.929 . S
C2480 C2479 1.383 . S
C2480 C2481 1.377 . S
C2481 H2465 0.929 1_554 S
C2481 C2480 1.377 . S
C2481 C2482 1.379 . S
C2482 H2466 0.931 . S
C2482 C2476 1.383 . S
C2482 C2481 1.379 . S
H2483 C2477 0.959 . S
H2484 C2477 0.961 . S
H2485 C2477 0.960 . S
H2486 C2478 0.930 . S
H2487 C2479 0.929 . S
H2488 C2496 0.929 . S
H2489 C2498 0.930 . S
H2490 C2500 0.930 . S
H2491 C2503 0.929 . S
H2492 C2506 0.930 . S
H2493 C2508 0.960 . S
H2494 C2508 0.960 . S
H2495 C2508 0.960 . S
C2496 H2488 0.929 . S
C2496 C2497 1.377 . S
C2496 C2498 1.384 . S
C2497 C2496 1.377 . S
C2497 C2503 1.390 . S
C2498 H2489 0.930 . S
C2498 C2496 1.384 . S
C2498 C2499 1.372 . S
C2499 C2498 1.372 . S
C2499 C2500 1.400 . S
C2499 C2504 1.490 . S
C2500 H2490 0.930 . S
C2500 C2499 1.400 . S
C2500 C2503 1.386 . S
H2501 C2517 0.930 . S
H2502 C2518 0.931 . S
C2503 H2491 0.929 . S
C2503 C2497 1.390 . S
C2503 C2500 1.386 . S
C2504 C2499 1.490 . S
C2504 C2506 1.395 . S
C2504 C2507 1.403 . S
H2505 C2511 0.930 . S
C2506 H2492 0.930 . S
C2506 C2504 1.395 . S
C2506 C2509 1.403 . S
C2507 C2504 1.403 . S
C2507 C2508 1.524 . S
C2507 C2511 1.400 . S
C2508 H2493 0.960 . S
C2508 H2494 0.960 . S
C2508 H2495 0.960 . S
C2508 C2507 1.524 . S
C2509 C2506 1.403 . S
C2509 C2510 1.392 . S
C2509 C2513 1.495 . S
C2510 C2509 1.392 . S
C2510 C2511 1.385 . S
C2510 C2512 1.478 . S
C2511 H2505 0.930 . S
C2511 C2507 1.400 . S
C2511 C2510 1.385 . S
C2512 C2510 1.478 . S
C2512 C2514 1.381 . S
C2512 C2518 1.383 . S
C2513 C2509 1.495 . S
C2513 H2519 0.959 . S
C2513 H2520 0.961 . S
C2513 H2521 0.960 . S
C2514 C2512 1.381 . S
C2514 C2515 1.394 . S
C2514 H2522 0.930 . S
C2515 C2514 1.394 . S
C2515 C2516 1.383 . S
C2515 H2523 0.929 . S
C2516 C2515 1.383 . S
C2516 C2517 1.377 . S
C2517 H2501 0.930 . S
C2517 C2516 1.377 . S
C2517 C2518 1.379 . S
C2518 H2502 0.931 . S
C2518 C2512 1.383 . S
C2518 C2517 1.379 . S
H2519 C2513 0.959 . S
H2520 C2513 0.961 . S
H2521 C2513 0.960 . S
H2522 C2514 0.930 . S
H2523 C2515 0.929 . S
H2524 C2532 0.929 . S
H2525 C2534 0.930 . S
H2526 C2536 0.930 . S
H2527 C2539 0.929 . S
H2528 C2542 0.930 . S
H2529 C2544 0.960 . S
H2530 C2544 0.960 . S
H2531 C2544 0.960 . S
C2532 H2524 0.929 . S
C2532 C2533 1.377 . S
C2532 C2534 1.384 . S
C2533 C2532 1.377 . S
C2533 C2539 1.390 . S
C2534 H2525 0.930 . S
C2534 C2532 1.384 . S
C2534 C2535 1.372 . S
C2535 C2534 1.372 . S
C2535 C2536 1.400 . S
C2535 C2540 1.490 . S
C2536 H2526 0.930 . S
C2536 C2535 1.400 . S
C2536 C2539 1.386 . S
H2537 C2553 0.930 . S
H2538 C2554 0.931 . S
C2539 H2527 0.929 . S
C2539 C2533 1.390 . S
C2539 C2536 1.386 . S
C2540 C2535 1.490 . S
C2540 C2542 1.395 . S
C2540 C2543 1.403 . S
H2541 C2547 0.930 . S
C2542 H2528 0.930 . S
C2542 C2540 1.395 . S
C2542 C2545 1.403 . S
C2543 C2540 1.403 . S
C2543 C2544 1.524 . S
C2543 C2547 1.400 . S
C2544 H2529 0.960 . S
C2544 H2530 0.960 . S
C2544 H2531 0.960 . S
C2544 C2543 1.524 . S
C2545 C2542 1.403 . S
C2545 C2546 1.392 . S
C2545 C2549 1.495 . S
C2546 C2545 1.392 . S
C2546 C2547 1.385 . S
C2546 C2548 1.478 . S
C2547 H2541 0.930 . S
C2547 C2543 1.400 . S
C2547 C2546 1.385 . S
C2548 C2546 1.478 . S
C2548 C2550 1.381 . S
C2548 C2554 1.383 . S
C2549 C2545 1.495 . S
C2549 H2555 0.959 . S
C2549 H2556 0.961 . S
C2549 H2557 0.960 . S
C2550 C2548 1.381 . S
C2550 C2551 1.394 . S
C2550 H2558 0.930 . S
C2551 C2550 1.394 . S
C2551 C2552 1.383 . S
C2551 H2559 0.929 . S
C2552 C2551 1.383 . S
C2552 C2553 1.377 . S
C2553 H2537 0.930 . S
C2553 C2552 1.377 . S
C2553 C2554 1.379 . S
C2554 H2538 0.931 . S
C2554 C2548 1.383 . S
C2554 C2553 1.379 . S
H2555 C2549 0.959 . S
H2556 C2549 0.961 . S
H2557 C2549 0.960 . S
H2558 C2550 0.930 . S
H2559 C2551 0.929 . S
H2560 C2568 0.929 . S
H2561 C2570 0.930 . S
H2562 C2572 0.930 . S
H2563 C2575 0.929 . S
H2564 C2578 0.930 . S
H2565 C2580 0.960 . S
H2566 C2580 0.960 . S
H2567 C2580 0.960 . S
C2568 H2560 0.929 . S
C2568 C2569 1.377 . S
C2568 C2570 1.384 . S
C2569 C2568 1.377 . S
C2569 C2575 1.390 . S
C2570 H2561 0.930 . S
C2570 C2568 1.384 . S
C2570 C2571 1.372 . S
C2571 C2570 1.372 . S
C2571 C2572 1.400 . S
C2571 C2576 1.490 . S
C2572 H2562 0.930 . S
C2572 C2571 1.400 . S
C2572 C2575 1.386 . S
H2573 C2589 0.930 . S
H2574 C2590 0.931 . S
C2575 H2563 0.929 . S
C2575 C2569 1.390 . S
C2575 C2572 1.386 . S
C2576 C2571 1.490 . S
C2576 C2578 1.395 . S
C2576 C2579 1.403 . S
H2577 C2583 0.930 . S
C2578 H2564 0.930 . S
C2578 C2576 1.395 . S
C2578 C2581 1.403 . S
C2579 C2576 1.403 . S
C2579 C2580 1.524 . S
C2579 C2583 1.400 . S
C2580 H2565 0.960 . S
C2580 H2566 0.960 . S
C2580 H2567 0.960 . S
C2580 C2579 1.524 . S
C2581 C2578 1.403 . S
C2581 C2582 1.392 . S
C2581 C2585 1.495 . S
C2582 C2581 1.392 . S
C2582 C2583 1.385 . S
C2582 C2584 1.478 . S
C2583 H2577 0.930 . S
C2583 C2579 1.400 . S
C2583 C2582 1.385 . S
C2584 C2582 1.478 . S
C2584 C2586 1.381 . S
C2584 C2590 1.383 . S
C2585 C2581 1.495 . S
C2585 H2591 0.959 . S
C2585 H2592 0.961 . S
C2585 H2593 0.960 . S
C2586 C2584 1.381 . S
C2586 C2587 1.394 . S
C2586 H2594 0.930 . S
C2587 C2586 1.394 . S
C2587 C2588 1.383 . S
C2587 H2595 0.929 . S
C2588 C2587 1.383 . S
C2588 C2589 1.377 . S
C2589 H2573 0.930 . S
C2589 C2588 1.377 . S
C2589 C2590 1.379 . S
C2590 H2574 0.931 . S
C2590 C2584 1.383 . S
C2590 C2589 1.379 . S
H2591 C2585 0.959 . S
H2592 C2585 0.961 . S
H2593 C2585 0.960 . S
H2594 C2586 0.930 . S
H2595 C2587 0.929 . S
H2596 C2604 0.929 . S
H2597 C2606 0.930 . S
H2598 C2608 0.930 . S
H2599 C2611 0.929 . S
H2600 C2614 0.930 . S
H2601 C2616 0.960 . S
H2602 C2616 0.960 . S
H2603 C2616 0.960 . S
C2604 H2596 0.929 . S
C2604 C2605 1.377 . S
C2604 C2606 1.384 . S
C2605 C2604 1.377 . S
C2605 C2611 1.390 . S
C2606 H2597 0.930 . S
C2606 C2604 1.384 . S
C2606 C2607 1.372 . S
C2607 C2606 1.372 . S
C2607 C2608 1.400 . S
C2607 C2612 1.490 . S
C2608 H2598 0.930 . S
C2608 C2607 1.400 . S
C2608 C2611 1.386 . S
H2609 C2625 0.930 . S
H2610 C2626 0.931 . S
C2611 H2599 0.929 . S
C2611 C2605 1.390 . S
C2611 C2608 1.386 . S
C2612 C2607 1.490 . S
C2612 C2614 1.395 . S
C2612 C2615 1.403 . S
H2613 C2619 0.930 . S
C2614 H2600 0.930 . S
C2614 C2612 1.395 . S
C2614 C2617 1.403 . S
C2615 C2612 1.403 . S
C2615 C2616 1.524 . S
C2615 C2619 1.400 . S
C2616 H2601 0.960 . S
C2616 H2602 0.960 . S
C2616 H2603 0.960 . S
C2616 C2615 1.524 . S
C2617 C2614 1.403 . S
C2617 C2618 1.392 . S
C2617 C2621 1.495 . S
C2618 C2617 1.392 . S
C2618 C2619 1.385 . S
C2618 C2620 1.478 . S
C2619 H2613 0.930 . S
C2619 C2615 1.400 . S
C2619 C2618 1.385 . S
C2620 C2618 1.478 . S
C2620 C2622 1.381 . S
C2620 C2626 1.383 . S
C2621 C2617 1.495 . S
C2621 H2627 0.959 . S
C2621 H2628 0.961 . S
C2621 H2629 0.960 . S
C2622 C2620 1.381 . S
C2622 C2623 1.394 . S
C2622 H2630 0.930 . S
C2623 C2622 1.394 . S
C2623 C2624 1.383 . S
C2623 H2631 0.929 . S
C2624 C2623 1.383 . S
C2624 C2625 1.377 . S
C2625 H2609 0.930 . S
C2625 C2624 1.377 . S
C2625 C2626 1.379 . S
C2626 H2610 0.931 . S
C2626 C2620 1.383 . S
C2626 C2625 1.379 . S
H2627 C2621 0.959 . S
H2628 C2621 0.961 . S
H2629 C2621 0.960 . S
H2630 C2622 0.930 . S
H2631 C2623 0.929 . S
H2632 C2640 0.929 . S
H2633 C2642 0.930 . S
H2634 C2644 0.930 . S
H2635 C2647 0.929 . S
H2636 C2650 0.930 . S
H2637 C2652 0.960 . S
H2638 C2652 0.960 . S
H2639 C2652 0.960 . S
C2640 H2632 0.929 . S
C2640 C2641 1.377 . S
C2640 C2642 1.384 . S
C2641 C2640 1.377 . S
C2641 C2647 1.390 . S
C2642 H2633 0.930 . S
C2642 C2640 1.384 . S
C2642 C2643 1.372 . S
C2643 C2642 1.372 . S
C2643 C2644 1.400 . S
C2643 C2648 1.490 . S
C2644 H2634 0.930 . S
C2644 C2643 1.400 . S
C2644 C2647 1.386 . S
H2645 C2661 0.930 . S
H2646 C2662 0.931 . S
C2647 H2635 0.929 . S
C2647 C2641 1.390 . S
C2647 C2644 1.386 . S
C2648 C2643 1.490 . S
C2648 C2650 1.395 . S
C2648 C2651 1.403 . S
H2649 C2655 0.930 . S
C2650 H2636 0.930 . S
C2650 C2648 1.395 . S
C2650 C2653 1.403 . S
C2651 C2648 1.403 . S
C2651 C2652 1.524 . S
C2651 C2655 1.400 . S
C2652 H2637 0.960 . S
C2652 H2638 0.960 . S
C2652 H2639 0.960 . S
C2652 C2651 1.524 . S
C2653 C2650 1.403 . S
C2653 C2654 1.392 . S
C2653 C2657 1.495 . S
C2654 C2653 1.392 . S
C2654 C2655 1.385 . S
C2654 C2656 1.478 . S
C2655 H2649 0.930 . S
C2655 C2651 1.400 . S
C2655 C2654 1.385 . S
C2656 C2654 1.478 . S
C2656 C2658 1.381 . S
C2656 C2662 1.383 . S
C2657 C2653 1.495 . S
C2657 H2663 0.959 . S
C2657 H2664 0.961 . S
C2657 H2665 0.960 . S
C2658 C2656 1.381 . S
C2658 C2659 1.394 . S
C2658 H2666 0.930 . S
C2659 C2658 1.394 . S
C2659 C2660 1.383 . S
C2659 H2667 0.929 . S
C2660 C2659 1.383 . S
C2660 C2661 1.377 . S
C2661 H2645 0.930 . S
C2661 C2660 1.377 . S
C2661 C2662 1.379 . S
C2662 H2646 0.931 . S
C2662 C2656 1.383 . S
C2662 C2661 1.379 . S
H2663 C2657 0.959 . S
H2664 C2657 0.961 . S
H2665 C2657 0.960 . S
H2666 C2658 0.930 . S
H2667 C2659 0.929 . S
H2668 C2676 0.929 . S
H2669 C2678 0.930 . S
H2670 C2680 0.930 . S
H2671 C2683 0.929 . S
H2672 C2686 0.930 . S
H2673 C2688 0.960 . S
H2674 C2688 0.960 . S
H2675 C2688 0.960 . S
C2676 H2668 0.929 . S
C2676 C2677 1.377 . S
C2676 C2678 1.384 . S
C2677 C2676 1.377 . S
C2677 C2683 1.390 . S
C2678 H2669 0.930 . S
C2678 C2676 1.384 . S
C2678 C2679 1.372 . S
C2679 C2678 1.372 . S
C2679 C2680 1.400 . S
C2679 C2684 1.490 . S
C2680 H2670 0.930 . S
C2680 C2679 1.400 . S
C2680 C2683 1.386 . S
H2681 C2697 0.930 . S
H2682 C2698 0.931 . S
C2683 H2671 0.929 . S
C2683 C2677 1.390 . S
C2683 C2680 1.386 . S
C2684 C2679 1.490 . S
C2684 C2686 1.395 . S
C2684 C2687 1.403 . S
H2685 C2691 0.930 . S
C2686 H2672 0.930 . S
C2686 C2684 1.395 . S
C2686 C2689 1.403 . S
C2687 C2684 1.403 . S
C2687 C2688 1.524 . S
C2687 C2691 1.400 . S
C2688 H2673 0.960 . S
C2688 H2674 0.960 . S
C2688 H2675 0.960 . S
C2688 C2687 1.524 . S
C2689 C2686 1.403 . S
C2689 C2690 1.392 . S
C2689 C2693 1.495 . S
C2690 C2689 1.392 . S
C2690 C2691 1.385 . S
C2690 C2692 1.478 . S
C2691 H2685 0.930 . S
C2691 C2687 1.400 . S
C2691 C2690 1.385 . S
C2692 C2690 1.478 . S
C2692 C2694 1.381 . S
C2692 C2698 1.383 . S
C2693 C2689 1.495 . S
C2693 H2699 0.959 . S
C2693 H2700 0.961 . S
C2693 H2701 0.960 . S
C2694 C2692 1.381 . S
C2694 C2695 1.394 . S
C2694 H2702 0.930 . S
C2695 C2694 1.394 . S
C2695 C2696 1.383 . S
C2695 H2703 0.929 . S
C2696 C2695 1.383 . S
C2696 C2697 1.377 . S
C2697 H2681 0.930 . S
C2697 C2696 1.377 . S
C2697 C2698 1.379 . S
C2698 H2682 0.931 . S
C2698 C2692 1.383 . S
C2698 C2697 1.379 . S
H2699 C2693 0.959 . S
H2700 C2693 0.961 . S
H2701 C2693 0.960 . S
H2702 C2694 0.930 . S
H2703 C2695 0.929 . S
H2704 C2712 0.929 . S
H2705 C2714 0.930 . S
H2706 C2716 0.930 . S
H2707 C2719 0.929 . S
H2708 C2722 0.930 . S
H2709 C2724 0.960 . S
H2710 C2724 0.960 . S
H2711 C2724 0.960 . S
C2712 H2704 0.929 . S
C2712 C2713 1.377 . S
C2712 C2714 1.384 . S
C2713 C2712 1.377 . S
C2713 C2719 1.390 . S
C2714 H2705 0.930 . S
C2714 C2712 1.384 . S
C2714 C2715 1.372 . S
C2715 C2714 1.372 . S
C2715 C2716 1.400 . S
C2715 C2720 1.490 . S
C2716 H2706 0.930 . S
C2716 C2715 1.400 . S
C2716 C2719 1.386 . S
H2717 C2733 0.930 . S
H2718 C2734 0.931 . S
C2719 H2707 0.929 . S
C2719 C2713 1.390 . S
C2719 C2716 1.386 . S
C2720 C2715 1.490 . S
C2720 C2722 1.395 . S
C2720 C2723 1.403 . S
H2721 C2727 0.930 . S
C2722 H2708 0.930 . S
C2722 C2720 1.395 . S
C2722 C2725 1.403 . S
C2723 C2720 1.403 . S
C2723 C2724 1.524 . S
C2723 C2727 1.400 . S
C2724 H2709 0.960 . S
C2724 H2710 0.960 . S
C2724 H2711 0.960 . S
C2724 C2723 1.524 . S
C2725 C2722 1.403 . S
C2725 C2726 1.392 . S
C2725 C2729 1.495 . S
C2726 C2725 1.392 . S
C2726 C2727 1.385 . S
C2726 C2728 1.478 . S
C2727 H2721 0.930 . S
C2727 C2723 1.400 . S
C2727 C2726 1.385 . S
C2728 C2726 1.478 . S
C2728 C2730 1.381 . S
C2728 C2734 1.383 . S
C2729 C2725 1.495 . S
C2729 H2735 0.959 . S
C2729 H2736 0.961 . S
C2729 H2737 0.960 . S
C2730 C2728 1.381 . S
C2730 C2731 1.394 . S
C2730 H2738 0.930 . S
C2731 C2730 1.394 . S
C2731 C2732 1.383 . S
C2731 H2739 0.929 . S
C2732 C2731 1.383 . S
C2732 C2733 1.377 . S
C2733 H2717 0.930 . S
C2733 C2732 1.377 . S
C2733 C2734 1.379 . S
C2734 H2718 0.931 . S
C2734 C2728 1.383 . S
C2734 C2733 1.379 . S
H2735 C2729 0.959 . S
H2736 C2729 0.961 . S
H2737 C2729 0.960 . S
H2738 C2730 0.930 . S
H2739 C2731 0.929 . S
H2740 C2748 0.929 . S
H2741 C2750 0.930 . S
H2742 C2752 0.930 . S
H2743 C2755 0.929 . S
H2744 C2758 0.930 . S
H2745 C2760 0.960 . S
H2746 C2760 0.960 . S
H2747 C2760 0.960 . S
C2748 H2740 0.929 . S
C2748 C2749 1.377 . S
C2748 C2750 1.384 . S
C2749 C2748 1.377 . S
C2749 C2755 1.390 . S
C2750 H2741 0.930 . S
C2750 C2748 1.384 . S
C2750 C2751 1.372 . S
C2751 C2750 1.372 . S
C2751 C2752 1.400 . S
C2751 C2756 1.490 . S
C2752 H2742 0.930 . S
C2752 C2751 1.400 . S
C2752 C2755 1.386 . S
H2753 C2769 0.930 . S
H2754 C2770 0.931 . S
C2755 H2743 0.929 . S
C2755 C2749 1.390 . S
C2755 C2752 1.386 . S
C2756 C2751 1.490 . S
C2756 C2758 1.395 . S
C2756 C2759 1.403 . S
H2757 C2763 0.930 . S
C2758 H2744 0.930 . S
C2758 C2756 1.395 . S
C2758 C2761 1.403 . S
C2759 C2756 1.403 . S
C2759 C2760 1.524 . S
C2759 C2763 1.400 . S
C2760 H2745 0.960 . S
C2760 H2746 0.960 . S
C2760 H2747 0.960 . S
C2760 C2759 1.524 . S
C2761 C2758 1.403 . S
C2761 C2762 1.392 . S
C2761 C2765 1.495 . S
C2762 C2761 1.392 . S
C2762 C2763 1.385 . S
C2762 C2764 1.478 . S
C2763 H2757 0.930 . S
C2763 C2759 1.400 . S
C2763 C2762 1.385 . S
C2764 C2762 1.478 . S
C2764 C2766 1.381 . S
C2764 C2770 1.383 . S
C2765 C2761 1.495 . S
C2765 H2771 0.959 . S
C2765 H2772 0.961 . S
C2765 H2773 0.960 . S
C2766 C2764 1.381 . S
C2766 C2767 1.394 . S
C2766 H2774 0.930 . S
C2767 C2766 1.394 . S
C2767 C2768 1.383 . S
C2767 H2775 0.929 . S
C2768 C2767 1.383 . S
C2768 C2769 1.377 . S
C2769 H2753 0.930 . S
C2769 C2768 1.377 . S
C2769 C2770 1.379 . S
C2770 H2754 0.931 . S
C2770 C2764 1.383 . S
C2770 C2769 1.379 . S
H2771 C2765 0.959 . S
H2772 C2765 0.961 . S
H2773 C2765 0.960 . S
H2774 C2766 0.930 . S
H2775 C2767 0.929 . S
H2776 C2784 0.929 . S
H2777 C2786 0.930 . S
H2778 C2788 0.930 . S
H2779 C2791 0.929 . S
H2780 C2794 0.930 . S
H2781 C2796 0.960 . S
H2782 C2796 0.960 . S
H2783 C2796 0.960 1_455 S
C2784 H2776 0.929 . S
C2784 C2785 1.377 . S
C2784 C2786 1.384 . S
C2785 C2784 1.377 . S
C2785 C2791 1.390 . S
C2786 H2777 0.930 . S
C2786 C2784 1.384 . S
C2786 C2787 1.372 . S
C2787 C2786 1.372 . S
C2787 C2788 1.400 . S
C2787 C2792 1.490 . S
C2788 H2778 0.930 . S
C2788 C2787 1.400 . S
C2788 C2791 1.386 . S
H2789 C2805 0.930 . S
H2790 C2806 0.931 . S
C2791 H2779 0.929 . S
C2791 C2785 1.390 . S
C2791 C2788 1.386 . S
C2792 C2787 1.490 . S
C2792 C2794 1.395 . S
C2792 C2795 1.403 . S
H2793 C2799 0.930 . S
C2794 H2780 0.930 . S
C2794 C2792 1.395 . S
C2794 C2797 1.403 . S
C2795 C2792 1.403 . S
C2795 C2796 1.524 1_455 S
C2795 C2799 1.400 . S
C2796 H2781 0.960 . S
C2796 H2782 0.960 . S
C2796 H2783 0.960 1_655 S
C2796 C2795 1.524 1_655 S
C2797 C2794 1.403 . S
C2797 C2798 1.392 . S
C2797 C2801 1.495 1_556 S
C2798 C2797 1.392 . S
C2798 C2799 1.385 . S
C2798 C2800 1.478 . S
C2799 H2793 0.930 . S
C2799 C2795 1.400 . S
C2799 C2798 1.385 . S
C2800 C2798 1.478 . S
C2800 C2802 1.381 1_556 S
C2800 C2806 1.383 . S
C2801 C2797 1.495 1_554 S
C2801 H2807 0.959 . S
C2801 H2808 0.961 . S
C2801 H2809 0.960 . S
C2802 C2800 1.381 1_554 S
C2802 C2803 1.394 . S
C2802 H2810 0.930 . S
C2803 C2802 1.394 . S
C2803 C2804 1.383 . S
C2803 H2811 0.929 . S
C2804 C2803 1.383 . S
C2804 C2805 1.377 1_554 S
C2805 H2789 0.930 . S
C2805 C2804 1.377 1_556 S
C2805 C2806 1.379 . S
C2806 H2790 0.931 . S
C2806 C2800 1.383 . S
C2806 C2805 1.379 . S
H2807 C2801 0.959 . S
H2808 C2801 0.961 . S
H2809 C2801 0.960 . S
H2810 C2802 0.930 . S
H2811 C2803 0.929 . S
H2812 C2820 0.929 . S
H2813 C2822 0.930 . S
H2814 C2824 0.930 . S
H2815 C2827 0.929 1_455 S
H2816 C2830 0.930 . S
H2817 C2832 0.960 . S
H2818 C2832 0.960 . S
H2819 C2832 0.960 . S
C2820 H2812 0.929 . S
C2820 C2821 1.377 1_655 S
C2820 C2822 1.384 . S
C2821 C2820 1.377 1_455 S
C2821 C2827 1.390 1_455 S
C2822 H2813 0.930 . S
C2822 C2820 1.384 . S
C2822 C2823 1.372 . S
C2823 C2822 1.372 . S
C2823 C2824 1.400 . S
C2823 C2828 1.490 . S
C2824 H2814 0.930 . S
C2824 C2823 1.400 . S
C2824 C2827 1.386 . S
H2825 C2841 0.930 . S
H2826 C2842 0.931 . S
C2827 H2815 0.929 1_655 S
C2827 C2821 1.390 1_655 S
C2827 C2824 1.386 . S
C2828 C2823 1.490 . S
C2828 C2830 1.395 . S
C2828 C2831 1.403 . S
H2829 C2835 0.930 . S
C2830 H2816 0.930 . S
C2830 C2828 1.395 . S
C2830 C2833 1.403 . S
C2831 C2828 1.403 . S
C2831 C2832 1.524 . S
C2831 C2835 1.400 . S
C2832 H2817 0.960 . S
C2832 H2818 0.960 . S
C2832 H2819 0.960 . S
C2832 C2831 1.524 . S
C2833 C2830 1.403 . S
C2833 C2834 1.392 . S
C2833 C2837 1.495 . S
C2834 C2833 1.392 . S
C2834 C2835 1.385 . S
C2834 C2836 1.478 . S
C2835 H2829 0.930 . S
C2835 C2831 1.400 . S
C2835 C2834 1.385 . S
C2836 C2834 1.478 . S
C2836 C2838 1.381 . S
C2836 C2842 1.383 . S
C2837 C2833 1.495 . S
C2837 H2843 0.959 . S
C2837 H2844 0.961 . S
C2837 H2845 0.960 . S
C2838 C2836 1.381 . S
C2838 C2839 1.394 . S
C2838 H2846 0.930 . S
C2839 C2838 1.394 . S
C2839 C2840 1.383 . S
C2839 H2847 0.929 . S
C2840 C2839 1.383 . S
C2840 C2841 1.377 . S
C2841 H2825 0.930 . S
C2841 C2840 1.377 . S
C2841 C2842 1.379 . S
C2842 H2826 0.931 . S
C2842 C2836 1.383 . S
C2842 C2841 1.379 . S
H2843 C2837 0.959 . S
H2844 C2837 0.961 . S
H2845 C2837 0.960 . S
H2846 C2838 0.930 . S
H2847 C2839 0.929 . S
H2848 C2856 0.929 . S
H2849 C2858 0.930 . S
H2850 C2860 0.930 . S
H2851 C2863 0.929 . S
H2852 C2866 0.930 . S
H2853 C2868 0.960 . S
H2854 C2868 0.960 . S
H2855 C2868 0.960 . S
C2856 H2848 0.929 . S
C2856 C2857 1.377 . S
C2856 C2858 1.384 . S
C2857 C2856 1.377 . S
C2857 C2863 1.390 . S
C2858 H2849 0.930 . S
C2858 C2856 1.384 . S
C2858 C2859 1.372 . S
C2859 C2858 1.372 . S
C2859 C2860 1.400 . S
C2859 C2864 1.490 . S
C2860 H2850 0.930 . S
C2860 C2859 1.400 . S
C2860 C2863 1.386 . S
H2861 C2877 0.930 . S
H2862 C2878 0.931 . S
C2863 H2851 0.929 . S
C2863 C2857 1.390 . S
C2863 C2860 1.386 . S
C2864 C2859 1.490 . S
C2864 C2866 1.395 . S
C2864 C2867 1.403 . S
H2865 C2871 0.930 . S
C2866 H2852 0.930 . S
C2866 C2864 1.395 . S
C2866 C2869 1.403 . S
C2867 C2864 1.403 . S
C2867 C2868 1.524 . S
C2867 C2871 1.400 . S
C2868 H2853 0.960 . S
C2868 H2854 0.960 . S
C2868 H2855 0.960 . S
C2868 C2867 1.524 . S
C2869 C2866 1.403 . S
C2869 C2870 1.392 . S
C2869 C2873 1.495 . S
C2870 C2869 1.392 . S
C2870 C2871 1.385 . S
C2870 C2872 1.478 . S
C2871 H2865 0.930 . S
C2871 C2867 1.400 . S
C2871 C2870 1.385 . S
C2872 C2870 1.478 . S
C2872 C2874 1.381 . S
C2872 C2878 1.383 . S
C2873 C2869 1.495 . S
C2873 H2879 0.959 . S
C2873 H2880 0.961 . S
C2873 H2881 0.960 . S
C2874 C2872 1.381 . S
C2874 C2875 1.394 . S
C2874 H2882 0.930 . S
C2875 C2874 1.394 . S
C2875 C2876 1.383 . S
C2875 H2883 0.929 . S
C2876 C2875 1.383 . S
C2876 C2877 1.377 . S
C2877 H2861 0.930 . S
C2877 C2876 1.377 . S
C2877 C2878 1.379 . S
C2878 H2862 0.931 . S
C2878 C2872 1.383 . S
C2878 C2877 1.379 . S
H2879 C2873 0.959 . S
H2880 C2873 0.961 . S
H2881 C2873 0.960 . S
H2882 C2874 0.930 . S
H2883 C2875 0.929 . S
H2884 C2892 0.929 . S
H2885 C2894 0.930 . S
H2886 C2896 0.930 . S
H2887 C2899 0.929 . S
H2888 C2902 0.930 . S
H2889 C2904 0.960 . S
H2890 C2904 0.960 . S
H2891 C2904 0.960 . S
C2892 H2884 0.929 . S
C2892 C2893 1.377 . S
C2892 C2894 1.384 . S
C2893 C2892 1.377 . S
C2893 C2899 1.390 . S
C2894 H2885 0.930 . S
C2894 C2892 1.384 . S
C2894 C2895 1.372 . S
C2895 C2894 1.372 . S
C2895 C2896 1.400 . S
C2895 C2900 1.490 . S
C2896 H2886 0.930 . S
C2896 C2895 1.400 . S
C2896 C2899 1.386 . S
H2897 C2913 0.930 . S
H2898 C2914 0.931 . S
C2899 H2887 0.929 . S
C2899 C2893 1.390 . S
C2899 C2896 1.386 . S
C2900 C2895 1.490 . S
C2900 C2902 1.395 . S
C2900 C2903 1.403 . S
H2901 C2907 0.930 . S
C2902 H2888 0.930 . S
C2902 C2900 1.395 . S
C2902 C2905 1.403 . S
C2903 C2900 1.403 . S
C2903 C2904 1.524 . S
C2903 C2907 1.400 . S
C2904 H2889 0.960 . S
C2904 H2890 0.960 . S
C2904 H2891 0.960 . S
C2904 C2903 1.524 . S
C2905 C2902 1.403 . S
C2905 C2906 1.392 . S
C2905 C2909 1.495 . S
C2906 C2905 1.392 . S
C2906 C2907 1.385 . S
C2906 C2908 1.478 . S
C2907 H2901 0.930 . S
C2907 C2903 1.400 . S
C2907 C2906 1.385 . S
C2908 C2906 1.478 . S
C2908 C2910 1.381 . S
C2908 C2914 1.383 . S
C2909 C2905 1.495 . S
C2909 H2915 0.959 . S
C2909 H2916 0.961 . S
C2909 H2917 0.960 . S
C2910 C2908 1.381 . S
C2910 C2911 1.394 . S
C2910 H2918 0.930 . S
C2911 C2910 1.394 . S
C2911 C2912 1.383 . S
C2911 H2919 0.929 . S
C2912 C2911 1.383 . S
C2912 C2913 1.377 . S
C2913 H2897 0.930 . S
C2913 C2912 1.377 . S
C2913 C2914 1.379 . S
C2914 H2898 0.931 . S
C2914 C2908 1.383 . S
C2914 C2913 1.379 . S
H2915 C2909 0.959 . S
H2916 C2909 0.961 . S
H2917 C2909 0.960 . S
H2918 C2910 0.930 . S
H2919 C2911 0.929 . S
H2920 C2928 0.929 . S
H2921 C2930 0.930 . S
H2922 C2932 0.930 . S
H2923 C2935 0.929 . S
H2924 C2938 0.930 . S
H2925 C2940 0.960 . S
H2926 C2940 0.960 . S
H2927 C2940 0.960 . S
C2928 H2920 0.929 . S
C2928 C2929 1.377 . S
C2928 C2930 1.384 . S
C2929 C2928 1.377 . S
C2929 C2935 1.390 . S
C2930 H2921 0.930 . S
C2930 C2928 1.384 . S
C2930 C2931 1.372 . S
C2931 C2930 1.372 . S
C2931 C2932 1.400 . S
C2931 C2936 1.490 . S
C2932 H2922 0.930 . S
C2932 C2931 1.400 . S
C2932 C2935 1.386 . S
H2933 C2949 0.930 . S
H2934 C2950 0.931 . S
C2935 H2923 0.929 . S
C2935 C2929 1.390 . S
C2935 C2932 1.386 . S
C2936 C2931 1.490 . S
C2936 C2938 1.395 . S
C2936 C2939 1.403 . S
H2937 C2943 0.930 . S
C2938 H2924 0.930 . S
C2938 C2936 1.395 . S
C2938 C2941 1.403 . S
C2939 C2936 1.403 . S
C2939 C2940 1.524 . S
C2939 C2943 1.400 . S
C2940 H2925 0.960 . S
C2940 H2926 0.960 . S
C2940 H2927 0.960 . S
C2940 C2939 1.524 . S
C2941 C2938 1.403 . S
C2941 C2942 1.392 . S
C2941 C2945 1.495 . S
C2942 C2941 1.392 . S
C2942 C2943 1.385 . S
C2942 C2944 1.478 . S
C2943 H2937 0.930 . S
C2943 C2939 1.400 . S
C2943 C2942 1.385 . S
C2944 C2942 1.478 . S
C2944 C2946 1.381 . S
C2944 C2950 1.383 . S
C2945 C2941 1.495 . S
C2945 H2951 0.959 . S
C2945 H2952 0.961 . S
C2945 H2953 0.960 . S
C2946 C2944 1.381 . S
C2946 C2947 1.394 . S
C2946 H2954 0.930 . S
C2947 C2946 1.394 . S
C2947 C2948 1.383 . S
C2947 H2955 0.929 . S
C2948 C2947 1.383 . S
C2948 C2949 1.377 . S
C2949 H2933 0.930 . S
C2949 C2948 1.377 . S
C2949 C2950 1.379 . S
C2950 H2934 0.931 . S
C2950 C2944 1.383 . S
C2950 C2949 1.379 . S
H2951 C2945 0.959 . S
H2952 C2945 0.961 . S
H2953 C2945 0.960 . S
H2954 C2946 0.930 . S
H2955 C2947 0.929 . S
H2956 C2964 0.929 . S
H2957 C2966 0.930 . S
H2958 C2968 0.930 . S
H2959 C2971 0.929 . S
H2960 C2974 0.930 . S
H2961 C2976 0.960 . S
H2962 C2976 0.960 . S
H2963 C2976 0.960 . S
C2964 H2956 0.929 . S
C2964 C2965 1.377 . S
C2964 C2966 1.384 . S
C2965 C2964 1.377 . S
C2965 C2971 1.390 . S
C2966 H2957 0.930 . S
C2966 C2964 1.384 . S
C2966 C2967 1.372 . S
C2967 C2966 1.372 . S
C2967 C2968 1.400 . S
C2967 C2972 1.490 . S
C2968 H2958 0.930 . S
C2968 C2967 1.400 . S
C2968 C2971 1.386 . S
H2969 C2985 0.930 . S
H2970 C2986 0.931 . S
C2971 H2959 0.929 . S
C2971 C2965 1.390 . S
C2971 C2968 1.386 . S
C2972 C2967 1.490 . S
C2972 C2974 1.395 . S
C2972 C2975 1.403 . S
H2973 C2979 0.930 . S
C2974 H2960 0.930 . S
C2974 C2972 1.395 . S
C2974 C2977 1.403 . S
C2975 C2972 1.403 . S
C2975 C2976 1.524 . S
C2975 C2979 1.400 . S
C2976 H2961 0.960 . S
C2976 H2962 0.960 . S
C2976 H2963 0.960 . S
C2976 C2975 1.524 . S
C2977 C2974 1.403 . S
C2977 C2978 1.392 . S
C2977 C2981 1.495 . S
C2978 C2977 1.392 . S
C2978 C2979 1.385 . S
C2978 C2980 1.478 . S
C2979 H2973 0.930 . S
C2979 C2975 1.400 . S
C2979 C2978 1.385 . S
C2980 C2978 1.478 . S
C2980 C2982 1.381 . S
C2980 C2986 1.383 . S
C2981 C2977 1.495 . S
C2981 H2987 0.959 . S
C2981 H2988 0.961 . S
C2981 H2989 0.960 . S
C2982 C2980 1.381 . S
C2982 C2983 1.394 . S
C2982 H2990 0.930 . S
C2983 C2982 1.394 . S
C2983 C2984 1.383 . S
C2983 H2991 0.929 . S
C2984 C2983 1.383 . S
C2984 C2985 1.377 . S
C2985 H2969 0.930 . S
C2985 C2984 1.377 . S
C2985 C2986 1.379 . S
C2986 H2970 0.931 . S
C2986 C2980 1.383 . S
C2986 C2985 1.379 . S
H2987 C2981 0.959 . S
H2988 C2981 0.961 . S
H2989 C2981 0.960 . S
H2990 C2982 0.930 . S
H2991 C2983 0.929 . S
H2992 C3000 0.929 . S
H2993 C3002 0.930 . S
H2994 C3004 0.930 . S
H2995 C3007 0.929 . S
H2996 C3010 0.930 . S
H2997 C3012 0.960 . S
H2998 C3012 0.960 . S
H2999 C3012 0.960 . S
C3000 H2992 0.929 . S
C3000 C3001 1.377 . S
C3000 C3002 1.384 . S
C3001 C3000 1.377 . S
C3001 C3007 1.390 . S
C3002 H2993 0.930 . S
C3002 C3000 1.384 . S
C3002 C3003 1.372 . S
C3003 C3002 1.372 . S
C3003 C3004 1.400 . S
C3003 C3008 1.490 . S
C3004 H2994 0.930 . S
C3004 C3003 1.400 . S
C3004 C3007 1.386 . S
H3005 C3021 0.930 . S
H3006 C3022 0.931 . S
C3007 H2995 0.929 . S
C3007 C3001 1.390 . S
C3007 C3004 1.386 . S
C3008 C3003 1.490 . S
C3008 C3010 1.395 . S
C3008 C3011 1.403 . S
H3009 C3015 0.930 . S
C3010 H2996 0.930 . S
C3010 C3008 1.395 . S
C3010 C3013 1.403 . S
C3011 C3008 1.403 . S
C3011 C3012 1.524 . S
C3011 C3015 1.400 . S
C3012 H2997 0.960 . S
C3012 H2998 0.960 . S
C3012 H2999 0.960 . S
C3012 C3011 1.524 . S
C3013 C3010 1.403 . S
C3013 C3014 1.392 . S
C3013 C3017 1.495 . S
C3014 C3013 1.392 . S
C3014 C3015 1.385 . S
C3014 C3016 1.478 . S
C3015 H3009 0.930 . S
C3015 C3011 1.400 . S
C3015 C3014 1.385 . S
C3016 C3014 1.478 . S
C3016 C3018 1.381 . S
C3016 C3022 1.383 . S
C3017 C3013 1.495 . S
C3017 H3023 0.959 . S
C3017 H3024 0.961 . S
C3017 H3025 0.960 . S
C3018 C3016 1.381 . S
C3018 C3019 1.394 . S
C3018 H3026 0.930 . S
C3019 C3018 1.394 . S
C3019 C3020 1.383 . S
C3019 H3027 0.929 . S
C3020 C3019 1.383 . S
C3020 C3021 1.377 . S
C3021 H3005 0.930 . S
C3021 C3020 1.377 . S
C3021 C3022 1.379 . S
C3022 H3006 0.931 . S
C3022 C3016 1.383 . S
C3022 C3021 1.379 . S
H3023 C3017 0.959 . S
H3024 C3017 0.961 . S
H3025 C3017 0.960 . S
H3026 C3018 0.930 . S
H3027 C3019 0.929 . S
H3028 C3036 0.929 . S
H3029 C3038 0.930 . S
H3030 C3040 0.930 . S
H3031 C3043 0.929 . S
H3032 C3046 0.930 . S
H3033 C3048 0.960 . S
H3034 C3048 0.960 . S
H3035 C3048 0.960 . S
C3036 H3028 0.929 . S
C3036 C3037 1.377 . S
C3036 C3038 1.384 1_554 S
C3037 C3036 1.377 . S
C3037 C3043 1.390 . S
C3038 H3029 0.930 . S
C3038 C3036 1.384 1_556 S
C3038 C3039 1.372 . S
C3039 C3038 1.372 . S
C3039 C3040 1.400 . S
C3039 C3044 1.490 . S
C3040 H3030 0.930 . S
C3040 C3039 1.400 . S
C3040 C3043 1.386 1_556 S
H3041 C3057 0.930 . S
H3042 C3058 0.931 . S
C3043 H3031 0.929 . S
C3043 C3037 1.390 . S
C3043 C3040 1.386 1_554 S
C3044 C3039 1.490 . S
C3044 C3046 1.395 . S
C3044 C3047 1.403 . S
H3045 C3051 0.930 . S
C3046 H3032 0.930 . S
C3046 C3044 1.395 . S
C3046 C3049 1.403 . S
C3047 C3044 1.403 . S
C3047 C3048 1.524 . S
C3047 C3051 1.400 . S
C3048 H3033 0.960 . S
C3048 H3034 0.960 . S
C3048 H3035 0.960 . S
C3048 C3047 1.524 . S
C3049 C3046 1.403 . S
C3049 C3050 1.392 . S
C3049 C3053 1.495 . S
C3050 C3049 1.392 . S
C3050 C3051 1.385 . S
C3050 C3052 1.478 . S
C3051 H3045 0.930 . S
C3051 C3047 1.400 . S
C3051 C3050 1.385 . S
C3052 C3050 1.478 . S
C3052 C3054 1.381 . S
C3052 C3058 1.383 . S
C3053 C3049 1.495 . S
C3053 H3059 0.959 . S
C3053 H3060 0.961 . S
C3053 H3061 0.960 . S
C3054 C3052 1.381 . S
C3054 C3055 1.394 . S
C3054 H3062 0.930 . S
C3055 C3054 1.394 . S
C3055 C3056 1.383 . S
C3055 H3063 0.929 . S
C3056 C3055 1.383 . S
C3056 C3057 1.377 . S
C3057 H3041 0.930 . S
C3057 C3056 1.377 . S
C3057 C3058 1.379 . S
C3058 H3042 0.931 . S
C3058 C3052 1.383 . S
C3058 C3057 1.379 . S
H3059 C3053 0.959 . S
H3060 C3053 0.961 . S
H3061 C3053 0.960 . S
H3062 C3054 0.930 . S
H3063 C3055 0.929 . S
H3064 C3072 0.929 . S
H3065 C3074 0.930 . S
H3066 C3076 0.930 . S
H3067 C3079 0.929 . S
H3068 C3082 0.930 . S
H3069 C3084 0.960 . S
H3070 C3084 0.960 . S
H3071 C3084 0.960 . S
C3072 H3064 0.929 . S
C3072 C3073 1.377 . S
C3072 C3074 1.384 . S
C3073 C3072 1.377 . S
C3073 C3079 1.390 . S
C3074 H3065 0.930 . S
C3074 C3072 1.384 . S
C3074 C3075 1.372 . S
C3075 C3074 1.372 . S
C3075 C3076 1.400 . S
C3075 C3080 1.490 . S
C3076 H3066 0.930 . S
C3076 C3075 1.400 . S
C3076 C3079 1.386 . S
H3077 C3093 0.930 . S
H3078 C3094 0.931 . S
C3079 H3067 0.929 . S
C3079 C3073 1.390 . S
C3079 C3076 1.386 . S
C3080 C3075 1.490 . S
C3080 C3082 1.395 . S
C3080 C3083 1.403 . S
H3081 C3087 0.930 . S
C3082 H3068 0.930 . S
C3082 C3080 1.395 . S
C3082 C3085 1.403 . S
C3083 C3080 1.403 . S
C3083 C3084 1.524 . S
C3083 C3087 1.400 . S
C3084 H3069 0.960 . S
C3084 H3070 0.960 . S
C3084 H3071 0.960 . S
C3084 C3083 1.524 . S
C3085 C3082 1.403 . S
C3085 C3086 1.392 . S
C3085 C3089 1.495 . S
C3086 C3085 1.392 . S
C3086 C3087 1.385 . S
C3086 C3088 1.478 . S
C3087 H3081 0.930 . S
C3087 C3083 1.400 . S
C3087 C3086 1.385 . S
C3088 C3086 1.478 . S
C3088 C3090 1.381 . S
C3088 C3094 1.383 . S
C3089 C3085 1.495 . S
C3089 H3095 0.959 . S
C3089 H3096 0.961 . S
C3089 H3097 0.960 . S
C3090 C3088 1.381 . S
C3090 C3091 1.394 . S
C3090 H3098 0.930 . S
C3091 C3090 1.394 . S
C3091 C3092 1.383 . S
C3091 H3099 0.929 . S
C3092 C3091 1.383 . S
C3092 C3093 1.377 . S
C3093 H3077 0.930 . S
C3093 C3092 1.377 . S
C3093 C3094 1.379 . S
C3094 H3078 0.931 . S
C3094 C3088 1.383 . S
C3094 C3093 1.379 . S
H3095 C3089 0.959 . S
H3096 C3089 0.961 . S
H3097 C3089 0.960 . S
H3098 C3090 0.930 . S
H3099 C3091 0.929 . S
H3100 C3108 0.929 . S
H3101 C3110 0.930 . S
H3102 C3112 0.930 . S
H3103 C3115 0.929 . S
H3104 C3118 0.930 . S
H3105 C3120 0.960 . S
H3106 C3120 0.960 . S
H3107 C3120 0.960 . S
C3108 H3100 0.929 . S
C3108 C3109 1.377 . S
C3108 C3110 1.384 . S
C3109 C3108 1.377 . S
C3109 C3115 1.390 . S
C3110 H3101 0.930 . S
C3110 C3108 1.384 . S
C3110 C3111 1.372 . S
C3111 C3110 1.372 . S
C3111 C3112 1.400 . S
C3111 C3116 1.490 . S
C3112 H3102 0.930 . S
C3112 C3111 1.400 . S
C3112 C3115 1.386 . S
H3113 C3129 0.930 . S
H3114 C3130 0.931 . S
C3115 H3103 0.929 . S
C3115 C3109 1.390 . S
C3115 C3112 1.386 . S
C3116 C3111 1.490 . S
C3116 C3118 1.395 . S
C3116 C3119 1.403 . S
H3117 C3123 0.930 . S
C3118 H3104 0.930 . S
C3118 C3116 1.395 . S
C3118 C3121 1.403 . S
C3119 C3116 1.403 . S
C3119 C3120 1.524 . S
C3119 C3123 1.400 . S
C3120 H3105 0.960 . S
C3120 H3106 0.960 . S
C3120 H3107 0.960 . S
C3120 C3119 1.524 . S
C3121 C3118 1.403 . S
C3121 C3122 1.392 . S
C3121 C3125 1.495 . S
C3122 C3121 1.392 . S
C3122 C3123 1.385 . S
C3122 C3124 1.478 . S
C3123 H3117 0.930 . S
C3123 C3119 1.400 . S
C3123 C3122 1.385 . S
C3124 C3122 1.478 . S
C3124 C3126 1.381 . S
C3124 C3130 1.383 . S
C3125 C3121 1.495 . S
C3125 H3131 0.959 . S
C3125 H3132 0.961 . S
C3125 H3133 0.960 . S
C3126 C3124 1.381 . S
C3126 C3127 1.394 . S
C3126 H3134 0.930 . S
C3127 C3126 1.394 . S
C3127 C3128 1.383 . S
C3127 H3135 0.929 . S
C3128 C3127 1.383 . S
C3128 C3129 1.377 . S
C3129 H3113 0.930 . S
C3129 C3128 1.377 . S
C3129 C3130 1.379 . S
C3130 H3114 0.931 . S
C3130 C3124 1.383 . S
C3130 C3129 1.379 . S
H3131 C3125 0.959 . S
H3132 C3125 0.961 . S
H3133 C3125 0.960 . S
H3134 C3126 0.930 . S
H3135 C3127 0.929 . S
H3136 C3144 0.929 . S
H3137 C3146 0.930 . S
H3138 C3148 0.930 . S
H3139 C3151 0.929 . S
H3140 C3154 0.930 . S
H3141 C3156 0.960 . S
H3142 C3156 0.960 . S
H3143 C3156 0.960 . S
C3144 H3136 0.929 . S
C3144 C3145 1.377 . S
C3144 C3146 1.384 . S
C3145 C3144 1.377 . S
C3145 C3151 1.390 . S
C3146 H3137 0.930 . S
C3146 C3144 1.384 . S
C3146 C3147 1.372 . S
C3147 C3146 1.372 . S
C3147 C3148 1.400 . S
C3147 C3152 1.490 . S
C3148 H3138 0.930 . S
C3148 C3147 1.400 . S
C3148 C3151 1.386 . S
H3149 C3165 0.930 . S
H3150 C3166 0.931 . S
C3151 H3139 0.929 . S
C3151 C3145 1.390 . S
C3151 C3148 1.386 . S
C3152 C3147 1.490 . S
C3152 C3154 1.395 . S
C3152 C3155 1.403 . S
H3153 C3159 0.930 . S
C3154 H3140 0.930 . S
C3154 C3152 1.395 . S
C3154 C3157 1.403 . S
C3155 C3152 1.403 . S
C3155 C3156 1.524 . S
C3155 C3159 1.400 . S
C3156 H3141 0.960 . S
C3156 H3142 0.960 . S
C3156 H3143 0.960 . S
C3156 C3155 1.524 . S
C3157 C3154 1.403 . S
C3157 C3158 1.392 . S
C3157 C3161 1.495 . S
C3158 C3157 1.392 . S
C3158 C3159 1.385 . S
C3158 C3160 1.478 . S
C3159 H3153 0.930 . S
C3159 C3155 1.400 . S
C3159 C3158 1.385 . S
C3160 C3158 1.478 . S
C3160 C3162 1.381 . S
C3160 C3166 1.383 . S
C3161 C3157 1.495 . S
C3161 H3167 0.959 . S
C3161 H3168 0.961 . S
C3161 H3169 0.960 . S
C3162 C3160 1.381 . S
C3162 C3163 1.394 . S
C3162 H3170 0.930 . S
C3163 C3162 1.394 . S
C3163 C3164 1.383 . S
C3163 H3171 0.929 . S
C3164 C3163 1.383 . S
C3164 C3165 1.377 . S
C3165 H3149 0.930 . S
C3165 C3164 1.377 . S
C3165 C3166 1.379 . S
C3166 H3150 0.931 . S
C3166 C3160 1.383 . S
C3166 C3165 1.379 . S
H3167 C3161 0.959 . S
H3168 C3161 0.961 . S
H3169 C3161 0.960 . S
H3170 C3162 0.930 . S
H3171 C3163 0.929 . S
H3172 C3180 0.929 . S
H3173 C3182 0.930 . S
H3174 C3184 0.930 . S
H3175 C3187 0.929 . S
H3176 C3190 0.930 . S
H3177 C3192 0.960 . S
H3178 C3192 0.960 . S
H3179 C3192 0.960 . S
C3180 H3172 0.929 . S
C3180 C3181 1.377 . S
C3180 C3182 1.384 . S
C3181 C3180 1.377 . S
C3181 C3187 1.390 . S
C3182 H3173 0.930 . S
C3182 C3180 1.384 . S
C3182 C3183 1.372 . S
C3183 C3182 1.372 . S
C3183 C3184 1.400 . S
C3183 C3188 1.490 . S
C3184 H3174 0.930 . S
C3184 C3183 1.400 . S
C3184 C3187 1.386 . S
H3185 C3201 0.930 . S
H3186 C3202 0.931 . S
C3187 H3175 0.929 . S
C3187 C3181 1.390 . S
C3187 C3184 1.386 . S
C3188 C3183 1.490 . S
C3188 C3190 1.395 . S
C3188 C3191 1.403 . S
H3189 C3195 0.930 . S
C3190 H3176 0.930 . S
C3190 C3188 1.395 . S
C3190 C3193 1.403 . S
C3191 C3188 1.403 . S
C3191 C3192 1.524 . S
C3191 C3195 1.400 . S
C3192 H3177 0.960 . S
C3192 H3178 0.960 . S
C3192 H3179 0.960 . S
C3192 C3191 1.524 . S
C3193 C3190 1.403 . S
C3193 C3194 1.392 . S
C3193 C3197 1.495 . S
C3194 C3193 1.392 . S
C3194 C3195 1.385 . S
C3194 C3196 1.478 . S
C3195 H3189 0.930 . S
C3195 C3191 1.400 . S
C3195 C3194 1.385 . S
C3196 C3194 1.478 . S
C3196 C3198 1.381 . S
C3196 C3202 1.383 . S
C3197 C3193 1.495 . S
C3197 H3203 0.959 . S
C3197 H3204 0.961 . S
C3197 H3205 0.960 . S
C3198 C3196 1.381 . S
C3198 C3199 1.394 . S
C3198 H3206 0.930 . S
C3199 C3198 1.394 . S
C3199 C3200 1.383 . S
C3199 H3207 0.929 . S
C3200 C3199 1.383 . S
C3200 C3201 1.377 . S
C3201 H3185 0.930 . S
C3201 C3200 1.377 . S
C3201 C3202 1.379 . S
C3202 H3186 0.931 . S
C3202 C3196 1.383 . S
C3202 C3201 1.379 . S
H3203 C3197 0.959 . S
H3204 C3197 0.961 . S
H3205 C3197 0.960 . S
H3206 C3198 0.930 . S
H3207 C3199 0.929 . S
H3208 C3216 0.929 . S
H3209 C3218 0.930 . S
H3210 C3220 0.930 . S
H3211 C3223 0.929 . S
H3212 C3226 0.930 . S
H3213 C3228 0.960 . S
H3214 C3228 0.960 . S
H3215 C3228 0.960 . S
C3216 H3208 0.929 . S
C3216 C3217 1.377 . S
C3216 C3218 1.384 . S
C3217 C3216 1.377 . S
C3217 C3223 1.390 . S
C3218 H3209 0.930 . S
C3218 C3216 1.384 . S
C3218 C3219 1.372 . S
C3219 C3218 1.372 . S
C3219 C3220 1.400 . S
C3219 C3224 1.490 . S
C3220 H3210 0.930 . S
C3220 C3219 1.400 . S
C3220 C3223 1.386 . S
H3221 C3237 0.930 . S
H3222 C3238 0.931 . S
C3223 H3211 0.929 . S
C3223 C3217 1.390 . S
C3223 C3220 1.386 . S
C3224 C3219 1.490 . S
C3224 C3226 1.395 . S
C3224 C3227 1.403 . S
H3225 C3231 0.930 . S
C3226 H3212 0.930 . S
C3226 C3224 1.395 . S
C3226 C3229 1.403 . S
C3227 C3224 1.403 . S
C3227 C3228 1.524 . S
C3227 C3231 1.400 . S
C3228 H3213 0.960 . S
C3228 H3214 0.960 . S
C3228 H3215 0.960 . S
C3228 C3227 1.524 . S
C3229 C3226 1.403 . S
C3229 C3230 1.392 . S
C3229 C3233 1.495 . S
C3230 C3229 1.392 . S
C3230 C3231 1.385 . S
C3230 C3232 1.478 . S
C3231 H3225 0.930 . S
C3231 C3227 1.400 . S
C3231 C3230 1.385 . S
C3232 C3230 1.478 . S
C3232 C3234 1.381 . S
C3232 C3238 1.383 . S
C3233 C3229 1.495 . S
C3233 H3239 0.959 . S
C3233 H3240 0.961 . S
C3233 H3241 0.960 . S
C3234 C3232 1.381 . S
C3234 C3235 1.394 . S
C3234 H3242 0.930 . S
C3235 C3234 1.394 . S
C3235 C3236 1.383 . S
C3235 H3243 0.929 . S
C3236 C3235 1.383 . S
C3236 C3237 1.377 . S
C3237 H3221 0.930 . S
C3237 C3236 1.377 . S
C3237 C3238 1.379 . S
C3238 H3222 0.931 . S
C3238 C3232 1.383 . S
C3238 C3237 1.379 . S
H3239 C3233 0.959 . S
H3240 C3233 0.961 . S
H3241 C3233 0.960 . S
H3242 C3234 0.930 . S
H3243 C3235 0.929 . S
H3244 C3252 0.929 . S
H3245 C3254 0.930 . S
H3246 C3256 0.930 . S
H3247 C3259 0.929 . S
H3248 C3262 0.930 . S
H3249 C3264 0.960 . S
H3250 C3264 0.960 . S
H3251 C3264 0.960 . S
C3252 H3244 0.929 . S
C3252 C3253 1.377 . S
C3252 C3254 1.384 . S
C3253 C3252 1.377 . S
C3253 C3259 1.390 . S
C3254 H3245 0.930 . S
C3254 C3252 1.384 . S
C3254 C3255 1.372 . S
C3255 C3254 1.372 . S
C3255 C3256 1.400 . S
C3255 C3260 1.490 . S
C3256 H3246 0.930 . S
C3256 C3255 1.400 . S
C3256 C3259 1.386 . S
H3257 C3273 0.930 . S
H3258 C3274 0.931 . S
C3259 H3247 0.929 . S
C3259 C3253 1.390 . S
C3259 C3256 1.386 . S
C3260 C3255 1.490 . S
C3260 C3262 1.395 . S
C3260 C3263 1.403 . S
H3261 C3267 0.930 . S
C3262 H3248 0.930 . S
C3262 C3260 1.395 . S
C3262 C3265 1.403 . S
C3263 C3260 1.403 . S
C3263 C3264 1.524 . S
C3263 C3267 1.400 . S
C3264 H3249 0.960 . S
C3264 H3250 0.960 . S
C3264 H3251 0.960 . S
C3264 C3263 1.524 . S
C3265 C3262 1.403 . S
C3265 C3266 1.392 . S
C3265 C3269 1.495 . S
C3266 C3265 1.392 . S
C3266 C3267 1.385 . S
C3266 C3268 1.478 . S
C3267 H3261 0.930 . S
C3267 C3263 1.400 . S
C3267 C3266 1.385 . S
C3268 C3266 1.478 . S
C3268 C3270 1.381 . S
C3268 C3274 1.383 . S
C3269 C3265 1.495 . S
C3269 H3275 0.959 . S
C3269 H3276 0.961 . S
C3269 H3277 0.960 . S
C3270 C3268 1.381 . S
C3270 C3271 1.394 . S
C3270 H3278 0.930 . S
C3271 C3270 1.394 . S
C3271 C3272 1.383 . S
C3271 H3279 0.929 . S
C3272 C3271 1.383 . S
C3272 C3273 1.377 . S
C3273 H3257 0.930 . S
C3273 C3272 1.377 . S
C3273 C3274 1.379 . S
C3274 H3258 0.931 . S
C3274 C3268 1.383 . S
C3274 C3273 1.379 . S
H3275 C3269 0.959 . S
H3276 C3269 0.961 . S
H3277 C3269 0.960 . S
H3278 C3270 0.930 . S
H3279 C3271 0.929 . S
H3280 C3288 0.929 . S
H3281 C3290 0.930 . S
H3282 C3292 0.930 . S
H3283 C3295 0.929 . S
H3284 C3298 0.930 . S
H3285 C3300 0.960 . S
H3286 C3300 0.960 . S
H3287 C3300 0.960 . S
C3288 H3280 0.929 . S
C3288 C3289 1.377 . S
C3288 C3290 1.384 . S
C3289 C3288 1.377 . S
C3289 C3295 1.390 . S
C3290 H3281 0.930 . S
C3290 C3288 1.384 . S
C3290 C3291 1.372 . S
C3291 C3290 1.372 . S
C3291 C3292 1.400 . S
C3291 C3296 1.490 . S
C3292 H3282 0.930 . S
C3292 C3291 1.400 . S
C3292 C3295 1.386 . S
H3293 C3309 0.930 . S
H3294 C3310 0.931 . S
C3295 H3283 0.929 . S
C3295 C3289 1.390 . S
C3295 C3292 1.386 . S
C3296 C3291 1.490 . S
C3296 C3298 1.395 . S
C3296 C3299 1.403 . S
H3297 C3303 0.930 . S
C3298 H3284 0.930 . S
C3298 C3296 1.395 . S
C3298 C3301 1.403 . S
C3299 C3296 1.403 . S
C3299 C3300 1.524 . S
C3299 C3303 1.400 . S
C3300 H3285 0.960 . S
C3300 H3286 0.960 . S
C3300 H3287 0.960 . S
C3300 C3299 1.524 . S
C3301 C3298 1.403 . S
C3301 C3302 1.392 . S
C3301 C3305 1.495 . S
C3302 C3301 1.392 . S
C3302 C3303 1.385 . S
C3302 C3304 1.478 . S
C3303 H3297 0.930 . S
C3303 C3299 1.400 . S
C3303 C3302 1.385 . S
C3304 C3302 1.478 . S
C3304 C3306 1.381 . S
C3304 C3310 1.383 . S
C3305 C3301 1.495 . S
C3305 H3311 0.959 . S
C3305 H3312 0.961 . S
C3305 H3313 0.960 . S
C3306 C3304 1.381 . S
C3306 C3307 1.394 . S
C3306 H3314 0.930 . S
C3307 C3306 1.394 . S
C3307 C3308 1.383 . S
C3307 H3315 0.929 . S
C3308 C3307 1.383 . S
C3308 C3309 1.377 . S
C3309 H3293 0.930 . S
C3309 C3308 1.377 . S
C3309 C3310 1.379 . S
C3310 H3294 0.931 . S
C3310 C3304 1.383 . S
C3310 C3309 1.379 . S
H3311 C3305 0.959 . S
H3312 C3305 0.961 . S
H3313 C3305 0.960 . S
H3314 C3306 0.930 . S
H3315 C3307 0.929 . S
H3316 C3324 0.929 . S
H3317 C3326 0.930 . S
H3318 C3328 0.930 . S
H3319 C3331 0.929 . S
H3320 C3334 0.930 . S
H3321 C3336 0.960 . S
H3322 C3336 0.960 . S
H3323 C3336 0.960 . S
C3324 H3316 0.929 . S
C3324 C3325 1.377 . S
C3324 C3326 1.384 . S
C3325 C3324 1.377 . S
C3325 C3331 1.390 . S
C3326 H3317 0.930 . S
C3326 C3324 1.384 . S
C3326 C3327 1.372 . S
C3327 C3326 1.372 . S
C3327 C3328 1.400 . S
C3327 C3332 1.490 . S
C3328 H3318 0.930 . S
C3328 C3327 1.400 . S
C3328 C3331 1.386 . S
H3329 C3345 0.930 . S
H3330 C3346 0.931 . S
C3331 H3319 0.929 . S
C3331 C3325 1.390 . S
C3331 C3328 1.386 . S
C3332 C3327 1.490 . S
C3332 C3334 1.395 . S
C3332 C3335 1.403 . S
H3333 C3339 0.930 . S
C3334 H3320 0.930 . S
C3334 C3332 1.395 . S
C3334 C3337 1.403 . S
C3335 C3332 1.403 . S
C3335 C3336 1.524 . S
C3335 C3339 1.400 . S
C3336 H3321 0.960 . S
C3336 H3322 0.960 . S
C3336 H3323 0.960 . S
C3336 C3335 1.524 . S
C3337 C3334 1.403 . S
C3337 C3338 1.392 . S
C3337 C3341 1.495 . S
C3338 C3337 1.392 . S
C3338 C3339 1.385 . S
C3338 C3340 1.478 . S
C3339 H3333 0.930 . S
C3339 C3335 1.400 . S
C3339 C3338 1.385 . S
C3340 C3338 1.478 . S
C3340 C3342 1.381 . S
C3340 C3346 1.383 . S
C3341 C3337 1.495 . S
C3341 H3347 0.959 . S
C3341 H3348 0.961 . S
C3341 H3349 0.960 . S
C3342 C3340 1.381 . S
C3342 C3343 1.394 . S
C3342 H3350 0.930 . S
C3343 C3342 1.394 . S
C3343 C3344 1.383 . S
C3343 H3351 0.929 . S
C3344 C3343 1.383 . S
C3344 C3345 1.377 . S
C3345 H3329 0.930 . S
C3345 C3344 1.377 . S
C3345 C3346 1.379 . S
C3346 H3330 0.931 . S
C3346 C3340 1.383 . S
C3346 C3345 1.379 . S
H3347 C3341 0.959 . S
H3348 C3341 0.961 . S
H3349 C3341 0.960 . S
H3350 C3342 0.930 . S
H3351 C3343 0.929 . S
H3352 C3360 0.929 . S
H3353 C3362 0.930 . S
H3354 C3364 0.930 . S
H3355 C3367 0.929 1_545 S
H3356 C3370 0.930 . S
H3357 C3372 0.960 . S
H3358 C3372 0.960 . S
H3359 C3372 0.960 . S
C3360 H3352 0.929 . S
C3360 C3361 1.377 . S
C3360 C3362 1.384 . S
C3361 C3360 1.377 . S
C3361 C3367 1.390 . S
C3362 H3353 0.930 . S
C3362 C3360 1.384 . S
C3362 C3363 1.372 . S
C3363 C3362 1.372 . S
C3363 C3364 1.400 . S
C3363 C3368 1.490 . S
C3364 H3354 0.930 . S
C3364 C3363 1.400 . S
C3364 C3367 1.386 . S
H3365 C3381 0.930 . S
H3366 C3382 0.931 . S
C3367 H3355 0.929 1_565 S
C3367 C3361 1.390 . S
C3367 C3364 1.386 . S
C3368 C3363 1.490 . S
C3368 C3370 1.395 . S
C3368 C3371 1.403 . S
H3369 C3375 0.930 . S
C3370 H3356 0.930 . S
C3370 C3368 1.395 . S
C3370 C3373 1.403 . S
C3371 C3368 1.403 . S
C3371 C3372 1.524 . S
C3371 C3375 1.400 . S
C3372 H3357 0.960 . S
C3372 H3358 0.960 . S
C3372 H3359 0.960 . S
C3372 C3371 1.524 . S
C3373 C3370 1.403 . S
C3373 C3374 1.392 . S
C3373 C3377 1.495 . S
C3374 C3373 1.392 . S
C3374 C3375 1.385 . S
C3374 C3376 1.478 . S
C3375 H3369 0.930 . S
C3375 C3371 1.400 . S
C3375 C3374 1.385 . S
C3376 C3374 1.478 . S
C3376 C3378 1.381 . S
C3376 C3382 1.383 . S
C3377 C3373 1.495 . S
C3377 H3383 0.959 . S
C3377 H3384 0.961 . S
C3377 H3385 0.960 . S
C3378 C3376 1.381 . S
C3378 C3379 1.394 . S
C3378 H3386 0.930 . S
C3379 C3378 1.394 . S
C3379 C3380 1.383 . S
C3379 H3387 0.929 . S
C3380 C3379 1.383 . S
C3380 C3381 1.377 . S
C3381 H3365 0.930 . S
C3381 C3380 1.377 . S
C3381 C3382 1.379 . S
C3382 H3366 0.931 . S
C3382 C3376 1.383 . S
C3382 C3381 1.379 . S
H3383 C3377 0.959 . S
H3384 C3377 0.961 . S
H3385 C3377 0.960 . S
H3386 C3378 0.930 . S
H3387 C3379 0.929 . S
H3388 C3396 0.929 . S
H3389 C3398 0.930 . S
H3390 C3400 0.930 . S
H3391 C3403 0.929 . S
H3392 C3406 0.930 1_556 S
H3393 C3408 0.960 . S
H3394 C3408 0.960 . S
H3395 C3408 0.960 . S
C3396 H3388 0.929 . S
C3396 C3397 1.377 . S
C3396 C3398 1.384 . S
C3397 C3396 1.377 . S
C3397 C3403 1.390 1_554 S
C3398 H3389 0.930 . S
C3398 C3396 1.384 . S
C3398 C3399 1.372 . S
C3399 C3398 1.372 . S
C3399 C3400 1.400 1_554 S
C3399 C3404 1.490 . S
C3400 H3390 0.930 . S
C3400 C3399 1.400 1_556 S
C3400 C3403 1.386 . S
H3401 C3417 0.923 1_556 S
H3402 C3418 0.931 . S
C3403 H3391 0.929 . S
C3403 C3397 1.390 1_556 S
C3403 C3400 1.386 . S
C3404 C3399 1.490 . S
C3404 C3406 1.395 . S
C3404 C3407 1.403 . S
H3405 C3411 0.930 . S
C3406 H3392 0.930 1_554 S
C3406 C3404 1.395 . S
C3406 C3409 1.403 . S
C3407 C3404 1.403 . S
C3407 C3408 1.524 . S
C3407 C3411 1.400 . S
C3408 H3393 0.960 . S
C3408 H3394 0.960 . S
C3408 H3395 0.960 . S
C3408 C3407 1.524 . S
C3409 C3406 1.403 . S
C3409 C3410 1.392 . S
C3409 C3413 1.495 1_554 S
C3410 C3409 1.392 . S
C3410 C3411 1.385 . S
C3410 C3412 1.478 . S
C3411 H3405 0.930 . S
C3411 C3407 1.400 . S
C3411 C3410 1.385 . S
C3412 C3410 1.478 . S
C3412 C3414 1.381 . S
C3412 C3418 1.383 1_554 S
C3413 C3409 1.495 1_556 S
C3413 H3419 0.959 . S
C3413 H3420 0.961 . S
C3413 H3421 0.960 1_556 S
C3414 C3412 1.381 . S
C3414 C3415 1.394 . S
C3414 H3422 0.930 . S
C3415 C3414 1.394 . S
C3415 C3416 1.383 . S
C3415 H3423 0.929 . S
C3416 C3415 1.383 . S
C3416 C3417 1.382 . S
C3417 H3401 0.923 1_554 S
C3417 C3416 1.382 . S
C3417 C3418 1.381 1_554 S
C3418 H3402 0.931 . S
C3418 C3412 1.383 1_556 S
C3418 C3417 1.381 1_556 S
H3419 C3413 0.959 . S
H3420 C3413 0.961 . S
H3421 C3413 0.960 1_554 S
H3422 C3414 0.930 . S
H3423 C3415 0.929 . S
H3424 C3432 0.929 . S
H3425 C3434 0.930 . S
H3426 C3436 0.930 . S
H3427 C3439 0.929 . S
H3428 C3442 0.930 . S
H3429 C3444 0.960 . S
H3430 C3444 0.960 . S
H3431 C3444 0.960 . S
C3432 H3424 0.929 . S
C3432 C3433 1.377 . S
C3432 C3434 1.384 . S
C3433 C3432 1.377 . S
C3433 C3439 1.390 . S
C3434 H3425 0.930 . S
C3434 C3432 1.384 . S
C3434 C3435 1.372 . S
C3435 C3434 1.372 . S
C3435 C3436 1.400 . S
C3435 C3440 1.490 . S
C3436 H3426 0.930 . S
C3436 C3435 1.400 . S
C3436 C3439 1.386 . S
H3437 C3453 0.930 . S
H3438 C3454 0.931 . S
C3439 H3427 0.929 . S
C3439 C3433 1.390 . S
C3439 C3436 1.386 . S
C3440 C3435 1.490 . S
C3440 C3442 1.395 . S
C3440 C3443 1.403 . S
H3441 C3447 0.930 . S
C3442 H3428 0.930 . S
C3442 C3440 1.395 . S
C3442 C3445 1.403 . S
C3443 C3440 1.403 . S
C3443 C3444 1.524 . S
C3443 C3447 1.400 . S
C3444 H3429 0.960 . S
C3444 H3430 0.960 . S
C3444 H3431 0.960 . S
C3444 C3443 1.524 . S
C3445 C3442 1.403 . S
C3445 C3446 1.392 . S
C3445 C3449 1.495 . S
C3446 C3445 1.392 . S
C3446 C3447 1.385 . S
C3446 C3448 1.478 . S
C3447 H3441 0.930 . S
C3447 C3443 1.400 . S
C3447 C3446 1.385 . S
C3448 C3446 1.478 . S
C3448 C3450 1.381 . S
C3448 C3454 1.383 . S
C3449 C3445 1.495 . S
C3449 H3455 0.959 . S
C3449 H3456 0.961 . S
C3449 H3457 0.960 . S
C3450 C3448 1.381 . S
C3450 C3451 1.394 . S
C3450 H3458 0.930 . S
C3451 C3450 1.394 . S
C3451 C3452 1.383 . S
C3451 H3459 0.929 . S
C3452 C3451 1.383 . S
C3452 C3453 1.377 . S
C3453 H3437 0.930 . S
C3453 C3452 1.377 . S
C3453 C3454 1.379 . S
C3454 H3438 0.931 . S
C3454 C3448 1.383 . S
C3454 C3453 1.379 . S
H3455 C3449 0.959 . S
H3456 C3449 0.961 . S
H3457 C3449 0.960 . S
H3458 C3450 0.930 . S
H3459 C3451 0.929 . S
H3460 C3468 0.929 . S
H3461 C3470 0.930 . S
H3462 C3472 0.930 . S
H3463 C3475 0.929 1_556 S
H3464 C3478 0.930 . S
H3465 C3480 0.960 1_556 S
H3466 C3480 0.960 . S
H3467 C3480 0.960 1_556 S
C3468 H3460 0.929 . S
C3468 C3469 1.377 . S
C3468 C3470 1.384 . S
C3469 C3468 1.377 . S
C3469 C3475 1.390 . S
C3470 H3461 0.930 . S
C3470 C3468 1.384 . S
C3470 C3471 1.372 . S
C3471 C3470 1.372 . S
C3471 C3472 1.400 . S
C3471 C3476 1.490 . S
C3472 H3462 0.930 . S
C3472 C3471 1.400 . S
C3472 C3475 1.386 . S
H3473 C3489 0.930 . S
H3474 C3490 0.931 . S
C3475 H3463 0.929 1_554 S
C3475 C3469 1.390 . S
C3475 C3472 1.386 . S
C3476 C3471 1.490 . S
C3476 C3478 1.395 . S
C3476 C3479 1.403 . S
H3477 C3483 0.930 . S
C3478 H3464 0.930 . S
C3478 C3476 1.395 . S
C3478 C3481 1.403 . S
C3479 C3476 1.403 . S
C3479 C3480 1.524 . S
C3479 C3483 1.400 . S
C3480 H3465 0.960 1_554 S
C3480 H3466 0.960 . S
C3480 H3467 0.960 1_554 S
C3480 C3479 1.524 . S
C3481 C3478 1.403 . S
C3481 C3482 1.392 . S
C3481 C3485 1.495 . S
C3482 C3481 1.392 . S
C3482 C3483 1.385 . S
C3482 C3484 1.478 . S
C3483 H3477 0.930 . S
C3483 C3479 1.400 . S
C3483 C3482 1.385 . S
C3484 C3482 1.478 . S
C3484 C3486 1.381 . S
C3484 C3490 1.383 . S
C3485 C3481 1.495 . S
C3485 H3491 0.959 . S
C3485 H3492 0.961 . S
C3485 H3493 0.960 . S
C3486 C3484 1.381 . S
C3486 C3487 1.394 . S
C3486 H3494 0.930 . S
C3487 C3486 1.394 . S
C3487 C3488 1.383 . S
C3487 H3495 0.929 . S
C3488 C3487 1.383 . S
C3488 C3489 1.377 . S
C3489 H3473 0.930 . S
C3489 C3488 1.377 . S
C3489 C3490 1.379 . S
C3490 H3474 0.931 . S
C3490 C3484 1.383 . S
C3490 C3489 1.379 . S
H3491 C3485 0.959 . S
H3492 C3485 0.961 . S
H3493 C3485 0.960 . S
H3494 C3486 0.930 . S
H3495 C3487 0.929 . S
H3496 C3504 0.929 . S
H3497 C3506 0.930 . S
H3498 C3508 0.930 . S
H3499 C3511 0.929 . S
H3500 C3514 0.930 . S
H3501 C3516 0.960 . S
H3502 C3516 0.960 . S
H3503 C3516 0.960 . S
C3504 H3496 0.929 . S
C3504 C3505 1.377 . S
C3504 C3506 1.384 . S
C3505 C3504 1.377 . S
C3505 C3511 1.390 . S
C3506 H3497 0.930 . S
C3506 C3504 1.384 . S
C3506 C3507 1.372 . S
C3507 C3506 1.372 . S
C3507 C3508 1.400 . S
C3507 C3512 1.490 . S
C3508 H3498 0.930 . S
C3508 C3507 1.400 . S
C3508 C3511 1.386 . S
H3509 C3525 0.930 . S
H3510 C3526 0.931 . S
C3511 H3499 0.929 . S
C3511 C3505 1.390 . S
C3511 C3508 1.386 . S
C3512 C3507 1.490 . S
C3512 C3514 1.395 . S
C3512 C3515 1.403 . S
H3513 C3519 0.930 . S
C3514 H3500 0.930 . S
C3514 C3512 1.395 . S
C3514 C3517 1.403 . S
C3515 C3512 1.403 . S
C3515 C3516 1.524 . S
C3515 C3519 1.400 . S
C3516 H3501 0.960 . S
C3516 H3502 0.960 . S
C3516 H3503 0.960 . S
C3516 C3515 1.524 . S
C3517 C3514 1.403 . S
C3517 C3518 1.392 . S
C3517 C3521 1.495 . S
C3518 C3517 1.392 . S
C3518 C3519 1.385 . S
C3518 C3520 1.478 . S
C3519 H3513 0.930 . S
C3519 C3515 1.400 . S
C3519 C3518 1.385 . S
C3520 C3518 1.478 . S
C3520 C3522 1.381 . S
C3520 C3526 1.383 . S
C3521 C3517 1.495 . S
C3521 H3527 0.959 . S
C3521 H3528 0.961 . S
C3521 H3529 0.960 . S
C3522 C3520 1.381 . S
C3522 C3523 1.394 . S
C3522 H3530 0.930 . S
C3523 C3522 1.394 . S
C3523 C3524 1.383 . S
C3523 H3531 0.929 . S
C3524 C3523 1.383 . S
C3524 C3525 1.377 . S
C3525 H3509 0.930 . S
C3525 C3524 1.377 . S
C3525 C3526 1.379 . S
C3526 H3510 0.931 . S
C3526 C3520 1.383 . S
C3526 C3525 1.379 . S
H3527 C3521 0.959 . S
H3528 C3521 0.961 . S
H3529 C3521 0.960 . S
H3530 C3522 0.930 . S
H3531 C3523 0.929 . S
H3532 C3540 0.929 . S
H3533 C3542 0.930 . S
H3534 C3544 0.930 . S
H3535 C3547 0.929 . S
H3536 C3550 0.930 . S
H3537 C3552 0.960 . S
H3538 C3552 0.960 . S
H3539 C3552 0.960 . S
C3540 H3532 0.929 . S
C3540 C3541 1.377 . S
C3540 C3542 1.384 . S
C3541 C3540 1.377 . S
C3541 C3547 1.390 . S
C3542 H3533 0.930 . S
C3542 C3540 1.384 . S
C3542 C3543 1.372 . S
C3543 C3542 1.372 . S
C3543 C3544 1.400 . S
C3543 C3548 1.490 . S
C3544 H3534 0.930 . S
C3544 C3543 1.400 . S
C3544 C3547 1.386 . S
H3545 C3561 0.930 . S
H3546 C3562 0.931 . S
C3547 H3535 0.929 . S
C3547 C3541 1.390 . S
C3547 C3544 1.386 . S
C3548 C3543 1.490 . S
C3548 C3550 1.395 . S
C3548 C3551 1.403 . S
H3549 C3555 0.930 . S
C3550 H3536 0.930 . S
C3550 C3548 1.395 . S
C3550 C3553 1.403 . S
C3551 C3548 1.403 . S
C3551 C3552 1.524 . S
C3551 C3555 1.400 . S
C3552 H3537 0.960 . S
C3552 H3538 0.960 . S
C3552 H3539 0.960 . S
C3552 C3551 1.524 . S
C3553 C3550 1.403 . S
C3553 C3554 1.392 . S
C3553 C3557 1.495 . S
C3554 C3553 1.392 . S
C3554 C3555 1.385 . S
C3554 C3556 1.478 . S
C3555 H3549 0.930 . S
C3555 C3551 1.400 . S
C3555 C3554 1.385 . S
C3556 C3554 1.478 . S
C3556 C3558 1.381 . S
C3556 C3562 1.383 . S
C3557 C3553 1.495 . S
C3557 H3563 0.959 . S
C3557 H3564 0.961 . S
C3557 H3565 0.960 . S
C3558 C3556 1.381 . S
C3558 C3559 1.394 . S
C3558 H3566 0.930 . S
C3559 C3558 1.394 . S
C3559 C3560 1.383 . S
C3559 H3567 0.929 . S
C3560 C3559 1.383 . S
C3560 C3561 1.377 . S
C3561 H3545 0.930 . S
C3561 C3560 1.377 . S
C3561 C3562 1.379 . S
C3562 H3546 0.931 . S
C3562 C3556 1.383 . S
C3562 C3561 1.379 . S
H3563 C3557 0.959 . S
H3564 C3557 0.961 . S
H3565 C3557 0.960 . S
H3566 C3558 0.930 . S
H3567 C3559 0.929 . S
H3568 C3576 0.929 . S
H3569 C3578 0.930 . S
H3570 C3580 0.930 . S
H3571 C3583 0.929 . S
H3572 C3586 0.930 . S
H3573 C3588 0.960 . S
H3574 C3588 0.960 . S
H3575 C3588 0.960 . S
C3576 H3568 0.929 . S
C3576 C3577 1.377 . S
C3576 C3578 1.384 . S
C3577 C3576 1.377 . S
C3577 C3583 1.390 . S
C3578 H3569 0.930 . S
C3578 C3576 1.384 . S
C3578 C3579 1.372 . S
C3579 C3578 1.372 . S
C3579 C3580 1.400 . S
C3579 C3584 1.490 . S
C3580 H3570 0.930 . S
C3580 C3579 1.400 . S
C3580 C3583 1.386 . S
H3581 C3597 0.930 . S
H3582 C3598 0.931 . S
C3583 H3571 0.929 . S
C3583 C3577 1.390 . S
C3583 C3580 1.386 . S
C3584 C3579 1.490 . S
C3584 C3586 1.395 . S
C3584 C3587 1.403 . S
H3585 C3591 0.930 . S
C3586 H3572 0.930 . S
C3586 C3584 1.395 . S
C3586 C3589 1.403 . S
C3587 C3584 1.403 . S
C3587 C3588 1.524 . S
C3587 C3591 1.400 . S
C3588 H3573 0.960 . S
C3588 H3574 0.960 . S
C3588 H3575 0.960 . S
C3588 C3587 1.524 . S
C3589 C3586 1.403 . S
C3589 C3590 1.392 . S
C3589 C3593 1.495 . S
C3590 C3589 1.392 . S
C3590 C3591 1.385 . S
C3590 C3592 1.478 . S
C3591 H3585 0.930 . S
C3591 C3587 1.400 . S
C3591 C3590 1.385 . S
C3592 C3590 1.478 . S
C3592 C3594 1.381 . S
C3592 C3598 1.383 . S
C3593 C3589 1.495 . S
C3593 H3599 0.959 . S
C3593 H3600 0.961 . S
C3593 H3601 0.960 . S
C3594 C3592 1.381 . S
C3594 C3595 1.394 . S
C3594 H3602 0.930 . S
C3595 C3594 1.394 . S
C3595 C3596 1.383 . S
C3595 H3603 0.929 . S
C3596 C3595 1.383 . S
C3596 C3597 1.377 . S
C3597 H3581 0.930 . S
C3597 C3596 1.377 . S
C3597 C3598 1.379 . S
C3598 H3582 0.931 . S
C3598 C3592 1.383 . S
C3598 C3597 1.379 . S
H3599 C3593 0.959 . S
H3600 C3593 0.961 . S
H3601 C3593 0.960 . S
H3602 C3594 0.930 . S
H3603 C3595 0.929 . S
H3604 C3612 0.929 . S
H3605 C3614 0.930 . S
H3606 C3616 0.930 . S
H3607 C3619 0.929 . S
H3608 C3622 0.930 . S
H3609 C3624 0.960 . S
H3610 C3624 0.960 . S
H3611 C3624 0.960 . S
C3612 H3604 0.929 . S
C3612 C3613 1.377 . S
C3612 C3614 1.384 . S
C3613 C3612 1.377 . S
C3613 C3619 1.390 . S
C3614 H3605 0.930 . S
C3614 C3612 1.384 . S
C3614 C3615 1.372 . S
C3615 C3614 1.372 . S
C3615 C3616 1.400 . S
C3615 C3620 1.490 . S
C3616 H3606 0.930 . S
C3616 C3615 1.400 . S
C3616 C3619 1.386 . S
H3617 C3633 0.930 . S
H3618 C3634 0.931 . S
C3619 H3607 0.929 . S
C3619 C3613 1.390 . S
C3619 C3616 1.386 . S
C3620 C3615 1.490 . S
C3620 C3622 1.395 . S
C3620 C3623 1.403 . S
H3621 C3627 0.930 . S
C3622 H3608 0.930 . S
C3622 C3620 1.395 . S
C3622 C3625 1.403 . S
C3623 C3620 1.403 . S
C3623 C3624 1.524 . S
C3623 C3627 1.400 . S
C3624 H3609 0.960 . S
C3624 H3610 0.960 . S
C3624 H3611 0.960 . S
C3624 C3623 1.524 . S
C3625 C3622 1.403 . S
C3625 C3626 1.392 . S
C3625 C3629 1.495 . S
C3626 C3625 1.392 . S
C3626 C3627 1.385 . S
C3626 C3628 1.478 . S
C3627 H3621 0.930 . S
C3627 C3623 1.400 . S
C3627 C3626 1.385 . S
C3628 C3626 1.478 . S
C3628 C3630 1.381 . S
C3628 C3634 1.383 . S
C3629 C3625 1.495 . S
C3629 H3635 0.959 . S
C3629 H3636 0.961 . S
C3629 H3637 0.960 . S
C3630 C3628 1.381 . S
C3630 C3631 1.394 . S
C3630 H3638 0.930 . S
C3631 C3630 1.394 . S
C3631 C3632 1.383 . S
C3631 H3639 0.929 . S
C3632 C3631 1.383 . S
C3632 C3633 1.377 . S
C3633 H3617 0.930 . S
C3633 C3632 1.377 . S
C3633 C3634 1.379 . S
C3634 H3618 0.931 . S
C3634 C3628 1.383 . S
C3634 C3633 1.379 . S
H3635 C3629 0.959 . S
H3636 C3629 0.961 . S
H3637 C3629 0.960 . S
H3638 C3630 0.930 . S
H3639 C3631 0.929 . S
H3640 C3648 0.929 . S
H3641 C3650 0.930 . S
H3642 C3652 0.930 . S
H3643 C3655 0.929 . S
H3644 C3658 0.930 . S
H3645 C3660 0.960 . S
H3646 C3660 0.960 . S
H3647 C3660 0.960 . S
C3648 H3640 0.929 . S
C3648 C3649 1.377 . S
C3648 C3650 1.384 . S
C3649 C3648 1.377 . S
C3649 C3655 1.390 . S
C3650 H3641 0.930 . S
C3650 C3648 1.384 . S
C3650 C3651 1.372 . S
C3651 C3650 1.372 . S
C3651 C3652 1.400 . S
C3651 C3656 1.490 . S
C3652 H3642 0.930 . S
C3652 C3651 1.400 . S
C3652 C3655 1.386 . S
H3653 C3669 0.930 . S
H3654 C3670 0.931 . S
C3655 H3643 0.929 . S
C3655 C3649 1.390 . S
C3655 C3652 1.386 . S
C3656 C3651 1.490 . S
C3656 C3658 1.395 . S
C3656 C3659 1.403 . S
H3657 C3663 0.930 . S
C3658 H3644 0.930 . S
C3658 C3656 1.395 . S
C3658 C3661 1.403 . S
C3659 C3656 1.403 . S
C3659 C3660 1.524 . S
C3659 C3663 1.400 . S
C3660 H3645 0.960 . S
C3660 H3646 0.960 . S
C3660 H3647 0.960 . S
C3660 C3659 1.524 . S
C3661 C3658 1.403 . S
C3661 C3662 1.392 . S
C3661 C3665 1.495 . S
C3662 C3661 1.392 . S
C3662 C3663 1.385 . S
C3662 C3664 1.478 . S
C3663 H3657 0.930 . S
C3663 C3659 1.400 . S
C3663 C3662 1.385 . S
C3664 C3662 1.478 . S
C3664 C3666 1.381 . S
C3664 C3670 1.383 . S
C3665 C3661 1.495 . S
C3665 H3671 0.959 . S
C3665 H3672 0.961 . S
C3665 H3673 0.960 1_455 S
C3666 C3664 1.381 . S
C3666 C3667 1.394 . S
C3666 H3674 0.930 . S
C3667 C3666 1.394 . S
C3667 C3668 1.383 . S
C3667 H3675 0.929 . S
C3668 C3667 1.383 . S
C3668 C3669 1.377 . S
C3669 H3653 0.930 . S
C3669 C3668 1.377 . S
C3669 C3670 1.379 . S
C3670 H3654 0.931 . S
C3670 C3664 1.383 . S
C3670 C3669 1.379 . S
H3671 C3665 0.959 . S
H3672 C3665 0.961 . S
H3673 C3665 0.960 1_655 S
H3674 C3666 0.930 . S
H3675 C3667 0.929 . S
H3676 C3684 0.929 . S
H3677 C3686 0.930 . S
H3678 C3688 0.930 . S
H3679 C3691 0.929 . S
H3680 C3694 0.930 . S
H3681 C3696 0.960 . S
H3682 C3696 0.960 . S
H3683 C3696 0.960 . S
C3684 H3676 0.929 . S
C3684 C3685 1.377 . S
C3684 C3686 1.384 . S
C3685 C3684 1.377 . S
C3685 C3691 1.390 . S
C3686 H3677 0.930 . S
C3686 C3684 1.384 . S
C3686 C3687 1.372 . S
C3687 C3686 1.372 . S
C3687 C3688 1.400 . S
C3687 C3692 1.490 . S
C3688 H3678 0.930 . S
C3688 C3687 1.400 . S
C3688 C3691 1.386 . S
H3689 C3705 0.930 . S
H3690 C3706 0.931 . S
C3691 H3679 0.929 . S
C3691 C3685 1.390 . S
C3691 C3688 1.386 . S
C3692 C3687 1.490 . S
C3692 C3694 1.395 . S
C3692 C3695 1.403 . S
H3693 C3699 0.930 . S
C3694 H3680 0.930 . S
C3694 C3692 1.395 . S
C3694 C3697 1.403 . S
C3695 C3692 1.403 . S
C3695 C3696 1.524 . S
C3695 C3699 1.400 . S
C3696 H3681 0.960 . S
C3696 H3682 0.960 . S
C3696 H3683 0.960 . S
C3696 C3695 1.524 . S
C3697 C3694 1.403 . S
C3697 C3698 1.392 . S
C3697 C3701 1.495 . S
C3698 C3697 1.392 . S
C3698 C3699 1.385 . S
C3698 C3700 1.478 . S
C3699 H3693 0.930 . S
C3699 C3695 1.400 . S
C3699 C3698 1.385 . S
C3700 C3698 1.478 . S
C3700 C3702 1.381 . S
C3700 C3706 1.383 . S
C3701 C3697 1.495 . S
C3701 H3707 0.959 . S
C3701 H3708 0.961 . S
C3701 H3709 0.960 . S
C3702 C3700 1.381 . S
C3702 C3703 1.394 . S
C3702 H3710 0.930 . S
C3703 C3702 1.394 . S
C3703 C3704 1.383 . S
C3703 H3711 0.929 . S
C3704 C3703 1.383 . S
C3704 C3705 1.377 . S
C3705 H3689 0.930 . S
C3705 C3704 1.377 . S
C3705 C3706 1.379 . S
C3706 H3690 0.931 . S
C3706 C3700 1.383 . S
C3706 C3705 1.379 . S
H3707 C3701 0.959 . S
H3708 C3701 0.961 . S
H3709 C3701 0.960 . S
H3710 C3702 0.930 . S
H3711 C3703 0.929 . S
H3712 C3720 0.929 . S
H3713 C3722 0.930 . S
H3714 C3724 0.930 . S
H3715 C3727 0.929 . S
H3716 C3730 0.930 . S
H3717 C3732 0.960 . S
H3718 C3732 0.960 . S
H3719 C3732 0.960 . S
C3720 H3712 0.929 . S
C3720 C3721 1.377 . S
C3720 C3722 1.384 . S
C3721 C3720 1.377 . S
C3721 C3727 1.390 . S
C3722 H3713 0.930 . S
C3722 C3720 1.384 . S
C3722 C3723 1.372 . S
C3723 C3722 1.372 . S
C3723 C3724 1.400 . S
C3723 C3728 1.490 . S
C3724 H3714 0.930 . S
C3724 C3723 1.400 . S
C3724 C3727 1.386 . S
H3725 C3741 0.930 . S
H3726 C3742 0.931 . S
C3727 H3715 0.929 . S
C3727 C3721 1.390 . S
C3727 C3724 1.386 . S
C3728 C3723 1.490 . S
C3728 C3730 1.395 . S
C3728 C3731 1.403 . S
H3729 C3735 0.930 . S
C3730 H3716 0.930 . S
C3730 C3728 1.395 . S
C3730 C3733 1.403 . S
C3731 C3728 1.403 . S
C3731 C3732 1.524 . S
C3731 C3735 1.400 . S
C3732 H3717 0.960 . S
C3732 H3718 0.960 . S
C3732 H3719 0.960 . S
C3732 C3731 1.524 . S
C3733 C3730 1.403 . S
C3733 C3734 1.392 . S
C3733 C3737 1.495 . S
C3734 C3733 1.392 . S
C3734 C3735 1.385 . S
C3734 C3736 1.478 . S
C3735 H3729 0.930 . S
C3735 C3731 1.400 . S
C3735 C3734 1.385 . S
C3736 C3734 1.478 . S
C3736 C3738 1.381 . S
C3736 C3742 1.383 . S
C3737 C3733 1.495 . S
C3737 H3743 0.959 . S
C3737 H3744 0.961 . S
C3737 H3745 0.960 . S
C3738 C3736 1.381 . S
C3738 C3739 1.394 . S
C3738 H3746 0.930 . S
C3739 C3738 1.394 . S
C3739 C3740 1.383 . S
C3739 H3747 0.929 . S
C3740 C3739 1.383 . S
C3740 C3741 1.377 . S
C3741 H3725 0.930 . S
C3741 C3740 1.377 . S
C3741 C3742 1.379 . S
C3742 H3726 0.931 . S
C3742 C3736 1.383 . S
C3742 C3741 1.379 . S
H3743 C3737 0.959 . S
H3744 C3737 0.961 . S
H3745 C3737 0.960 . S
H3746 C3738 0.930 . S
H3747 C3739 0.929 . S
H3748 C3756 0.929 . S
H3749 C3758 0.930 . S
H3750 C3760 0.930 . S
H3751 C3763 0.929 . S
H3752 C3766 0.930 . S
H3753 C3768 0.960 . S
H3754 C3768 0.960 . S
H3755 C3768 0.960 . S
C3756 H3748 0.929 . S
C3756 C3757 1.377 . S
C3756 C3758 1.384 . S
C3757 C3756 1.377 . S
C3757 C3763 1.390 . S
C3758 H3749 0.930 . S
C3758 C3756 1.384 . S
C3758 C3759 1.372 . S
C3759 C3758 1.372 . S
C3759 C3760 1.400 . S
C3759 C3764 1.490 . S
C3760 H3750 0.930 . S
C3760 C3759 1.400 . S
C3760 C3763 1.386 . S
H3761 C3777 0.930 . S
H3762 C3778 0.931 . S
C3763 H3751 0.929 . S
C3763 C3757 1.390 . S
C3763 C3760 1.386 . S
C3764 C3759 1.490 . S
C3764 C3766 1.395 . S
C3764 C3767 1.403 . S
H3765 C3771 0.930 . S
C3766 H3752 0.930 . S
C3766 C3764 1.395 . S
C3766 C3769 1.403 . S
C3767 C3764 1.403 . S
C3767 C3768 1.524 . S
C3767 C3771 1.400 . S
C3768 H3753 0.960 . S
C3768 H3754 0.960 . S
C3768 H3755 0.960 . S
C3768 C3767 1.524 . S
C3769 C3766 1.403 . S
C3769 C3770 1.392 . S
C3769 C3773 1.495 . S
C3770 C3769 1.392 . S
C3770 C3771 1.385 . S
C3770 C3772 1.478 . S
C3771 H3765 0.930 . S
C3771 C3767 1.400 . S
C3771 C3770 1.385 . S
C3772 C3770 1.478 . S
C3772 C3774 1.381 . S
C3772 C3778 1.383 . S
C3773 C3769 1.495 . S
C3773 H3779 0.959 . S
C3773 H3780 0.961 . S
C3773 H3781 0.960 . S
C3774 C3772 1.381 . S
C3774 C3775 1.394 . S
C3774 H3782 0.930 . S
C3775 C3774 1.394 . S
C3775 C3776 1.383 . S
C3775 H3783 0.929 . S
C3776 C3775 1.383 . S
C3776 C3777 1.377 . S
C3777 H3761 0.930 . S
C3777 C3776 1.377 . S
C3777 C3778 1.379 . S
C3778 H3762 0.931 . S
C3778 C3772 1.383 . S
C3778 C3777 1.379 . S
H3779 C3773 0.959 . S
H3780 C3773 0.961 . S
H3781 C3773 0.960 . S
H3782 C3774 0.930 . S
H3783 C3775 0.929 . S
H3784 C3792 0.929 . S
H3785 C3794 0.930 . S
H3786 C3796 0.960 . S
H3787 C3799 0.929 . S
H3788 C3802 0.930 . S
H3789 C3804 0.960 . S
H3790 C3804 0.960 . S
H3791 C3804 0.960 . S
C3792 H3784 0.929 . S
C3792 C3793 1.377 . S
C3792 C3794 1.384 . S
C3793 C3792 1.377 . S
C3793 C3799 1.390 1_455 S
C3794 H3785 0.930 . S
C3794 C3792 1.384 . S
C3794 C3795 1.372 . S
C3795 C3794 1.372 . S
C3795 C3796 1.377 1_455 S
C3795 C3800 1.490 . S
C3796 H3786 0.960 . S
C3796 C3795 1.377 1_655 S
C3796 C3799 1.381 . S
H3797 C3813 0.930 . S
H3798 C3814 0.931 . S
C3799 H3787 0.929 . S
C3799 C3793 1.390 1_655 S
C3799 C3796 1.381 . S
C3800 C3795 1.490 . S
C3800 C3802 1.395 . S
C3800 C3803 1.403 . S
H3801 C3807 0.930 1_655 S
C3802 H3788 0.930 . S
C3802 C3800 1.395 . S
C3802 C3805 1.403 . S
C3803 C3800 1.403 . S
C3803 C3804 1.524 1_455 S
C3803 C3807 1.400 . S
C3804 H3789 0.960 . S
C3804 H3790 0.960 . S
C3804 H3791 0.960 . S
C3804 C3803 1.524 1_655 S
C3805 C3802 1.403 . S
C3805 C3806 1.392 . S
C3805 C3809 1.495 . S
C3806 C3805 1.392 . S
C3806 C3807 1.385 . S
C3806 C3808 1.478 . S
C3807 H3801 0.930 1_455 S
C3807 C3803 1.400 . S
C3807 C3806 1.385 . S
C3808 C3806 1.478 . S
C3808 C3810 1.381 . S
C3808 C3814 1.383 . S
C3809 C3805 1.495 . S
C3809 H3815 0.959 . S
C3809 H3816 0.961 . S
C3809 H3817 0.960 . S
C3810 C3808 1.381 . S
C3810 C3811 1.394 . S
C3810 H3818 0.930 . S
C3811 C3810 1.394 . S
C3811 C3812 1.383 . S
C3811 H3819 0.929 . S
C3812 C3811 1.383 . S
C3812 C3813 1.377 . S
C3813 H3797 0.930 . S
C3813 C3812 1.377 . S
C3813 C3814 1.379 . S
C3814 H3798 0.931 . S
C3814 C3808 1.383 . S
C3814 C3813 1.379 . S
H3815 C3809 0.959 . S
H3816 C3809 0.961 . S
H3817 C3809 0.960 . S
H3818 C3810 0.930 . S
H3819 C3811 0.929 . S
H3820 C3828 0.929 . S
H3821 C3830 0.930 . S
H3822 C3832 0.930 . S
H3823 C3835 0.929 . S
H3824 C3838 0.930 . S
H3825 C3840 0.960 . S
H3826 C3840 0.960 . S
H3827 C3840 0.960 . S
C3828 H3820 0.929 . S
C3828 C3829 1.377 . S
C3828 C3830 1.384 . S
C3829 C3828 1.377 . S
C3829 C3835 1.390 . S
C3830 H3821 0.930 . S
C3830 C3828 1.384 . S
C3830 C3831 1.372 . S
C3831 C3830 1.372 . S
C3831 C3832 1.400 . S
C3831 C3836 1.490 . S
C3832 H3822 0.930 . S
C3832 C3831 1.400 . S
C3832 C3835 1.386 . S
H3833 C3849 0.930 . S
H3834 C3850 0.931 . S
C3835 H3823 0.929 . S
C3835 C3829 1.390 . S
C3835 C3832 1.386 . S
C3836 C3831 1.490 . S
C3836 C3838 1.395 . S
C3836 C3839 1.403 . S
H3837 C3843 0.930 . S
C3838 H3824 0.930 . S
C3838 C3836 1.395 . S
C3838 C3841 1.403 . S
C3839 C3836 1.403 . S
C3839 C3840 1.524 . S
C3839 C3843 1.400 . S
C3840 H3825 0.960 . S
C3840 H3826 0.960 . S
C3840 H3827 0.960 . S
C3840 C3839 1.524 . S
C3841 C3838 1.403 . S
C3841 C3842 1.392 . S
C3841 C3845 1.495 . S
C3842 C3841 1.392 . S
C3842 C3843 1.385 . S
C3842 C3844 1.478 . S
C3843 H3837 0.930 . S
C3843 C3839 1.400 . S
C3843 C3842 1.385 . S
C3844 C3842 1.478 . S
C3844 C3846 1.381 . S
C3844 C3850 1.383 . S
C3845 C3841 1.495 . S
C3845 H3851 0.959 . S
C3845 H3852 0.961 . S
C3845 H3853 0.960 . S
C3846 C3844 1.381 . S
C3846 C3847 1.394 . S
C3846 H3854 0.930 . S
C3847 C3846 1.394 . S
C3847 C3848 1.383 . S
C3847 H3855 0.929 . S
C3848 C3847 1.383 . S
C3848 C3849 1.377 . S
C3849 H3833 0.930 . S
C3849 C3848 1.377 . S
C3849 C3850 1.379 . S
C3850 H3834 0.931 . S
C3850 C3844 1.383 . S
C3850 C3849 1.379 . S
H3851 C3845 0.959 . S
H3852 C3845 0.961 . S
H3853 C3845 0.960 . S
H3854 C3846 0.930 . S
H3855 C3847 0.929 . S
H3856 C3864 0.929 . S
H3857 C3866 0.930 . S
H3858 C3868 0.930 . S
H3859 C3871 0.929 . S
H3860 C3874 0.930 . S
H3861 C3876 0.960 . S
H3862 C3876 0.960 . S
H3863 C3876 0.960 . S
C3864 H3856 0.929 . S
C3864 C3865 1.377 . S
C3864 C3866 1.384 . S
C3865 C3864 1.377 . S
C3865 C3871 1.390 . S
C3866 H3857 0.930 . S
C3866 C3864 1.384 . S
C3866 C3867 1.372 . S
C3867 C3866 1.372 . S
C3867 C3868 1.400 . S
C3867 C3872 1.490 . S
C3868 H3858 0.930 . S
C3868 C3867 1.400 . S
C3868 C3871 1.386 . S
H3869 C3885 0.930 . S
H3870 C3886 0.931 . S
C3871 H3859 0.929 . S
C3871 C3865 1.390 . S
C3871 C3868 1.386 . S
C3872 C3867 1.490 . S
C3872 C3874 1.395 . S
C3872 C3875 1.403 . S
H3873 C3879 0.930 . S
C3874 H3860 0.930 . S
C3874 C3872 1.395 . S
C3874 C3877 1.403 . S
C3875 C3872 1.403 . S
C3875 C3876 1.524 . S
C3875 C3879 1.400 . S
C3876 H3861 0.960 . S
C3876 H3862 0.960 . S
C3876 H3863 0.960 . S
C3876 C3875 1.524 . S
C3877 C3874 1.403 . S
C3877 C3878 1.392 . S
C3877 C3881 1.495 . S
C3878 C3877 1.392 . S
C3878 C3879 1.385 . S
C3878 C3880 1.478 . S
C3879 H3873 0.930 . S
C3879 C3875 1.400 . S
C3879 C3878 1.385 . S
C3880 C3878 1.478 . S
C3880 C3882 1.381 . S
C3880 C3886 1.383 . S
C3881 C3877 1.495 . S
C3881 H3887 0.959 . S
C3881 H3888 0.961 . S
C3881 H3889 0.960 . S
C3882 C3880 1.381 . S
C3882 C3883 1.394 . S
C3882 H3890 0.930 . S
C3883 C3882 1.394 . S
C3883 C3884 1.383 . S
C3883 H3891 0.929 . S
C3884 C3883 1.383 . S
C3884 C3885 1.377 . S
C3885 H3869 0.930 . S
C3885 C3884 1.377 . S
C3885 C3886 1.379 . S
C3886 H3870 0.931 . S
C3886 C3880 1.383 . S
C3886 C3885 1.379 . S
H3887 C3881 0.959 . S
H3888 C3881 0.961 . S
H3889 C3881 0.960 . S
H3890 C3882 0.930 . S
H3891 C3883 0.929 . S
H3892 C3900 0.929 . S
H3893 C3902 0.930 . S
H3894 C3904 0.930 . S
H3895 C3907 0.929 . S
H3896 C3910 0.930 . S
H3897 C3912 0.960 . S
H3898 C3912 0.960 . S
H3899 C3912 0.960 . S
C3900 H3892 0.929 . S
C3900 C3901 1.377 . S
C3900 C3902 1.384 . S
C3901 C3900 1.377 . S
C3901 C3907 1.390 . S
C3902 H3893 0.930 . S
C3902 C3900 1.384 . S
C3902 C3903 1.372 . S
C3903 C3902 1.372 . S
C3903 C3904 1.400 . S
C3903 C3908 1.490 . S
C3904 H3894 0.930 . S
C3904 C3903 1.400 . S
C3904 C3907 1.386 . S
H3905 C3921 0.930 . S
H3906 C3922 0.931 . S
C3907 H3895 0.929 . S
C3907 C3901 1.390 . S
C3907 C3904 1.386 . S
C3908 C3903 1.490 . S
C3908 C3910 1.395 . S
C3908 C3911 1.403 . S
H3909 C3915 0.930 . S
C3910 H3896 0.930 . S
C3910 C3908 1.395 . S
C3910 C3913 1.403 . S
C3911 C3908 1.403 . S
C3911 C3912 1.524 . S
C3911 C3915 1.400 . S
C3912 H3897 0.960 . S
C3912 H3898 0.960 . S
C3912 H3899 0.960 . S
C3912 C3911 1.524 . S
C3913 C3910 1.403 . S
C3913 C3914 1.392 . S
C3913 C3917 1.495 . S
C3914 C3913 1.392 . S
C3914 C3915 1.385 . S
C3914 C3916 1.478 . S
C3915 H3909 0.930 . S
C3915 C3911 1.400 . S
C3915 C3914 1.385 . S
C3916 C3914 1.478 . S
C3916 C3918 1.381 . S
C3916 C3922 1.383 . S
C3917 C3913 1.495 . S
C3917 H3923 0.959 . S
C3917 H3924 0.961 . S
C3917 H3925 0.960 . S
C3918 C3916 1.381 . S
C3918 C3919 1.394 . S
C3918 H3926 0.930 . S
C3919 C3918 1.394 . S
C3919 C3920 1.383 . S
C3919 H3927 0.929 . S
C3920 C3919 1.383 . S
C3920 C3921 1.377 . S
C3921 H3905 0.930 . S
C3921 C3920 1.377 . S
C3921 C3922 1.379 . S
C3922 H3906 0.931 . S
C3922 C3916 1.383 . S
C3922 C3921 1.379 . S
H3923 C3917 0.959 . S
H3924 C3917 0.961 . S
H3925 C3917 0.960 . S
H3926 C3918 0.930 . S
H3927 C3919 0.929 . S
H3928 C3936 0.929 . S
H3929 C3938 0.930 . S
H3930 C3940 0.930 . S
H3931 C3943 0.929 . S
H3932 C3946 0.930 . S
H3933 C3948 0.960 . S
H3934 C3948 0.960 . S
H3935 C3948 0.960 . S
C3936 H3928 0.929 . S
C3936 C3937 1.377 . S
C3936 C3938 1.384 . S
C3937 C3936 1.377 . S
C3937 C3943 1.390 . S
C3938 H3929 0.930 . S
C3938 C3936 1.384 . S
C3938 C3939 1.372 . S
C3939 C3938 1.372 . S
C3939 C3940 1.400 . S
C3939 C3944 1.490 . S
C3940 H3930 0.930 . S
C3940 C3939 1.400 . S
C3940 C3943 1.386 . S
H3941 C3957 0.930 . S
H3942 C3958 0.931 . S
C3943 H3931 0.929 . S
C3943 C3937 1.390 . S
C3943 C3940 1.386 . S
C3944 C3939 1.490 . S
C3944 C3946 1.395 . S
C3944 C3947 1.403 . S
H3945 C3951 0.930 . S
C3946 H3932 0.930 . S
C3946 C3944 1.395 . S
C3946 C3949 1.403 . S
C3947 C3944 1.403 . S
C3947 C3948 1.524 . S
C3947 C3951 1.400 . S
C3948 H3933 0.960 . S
C3948 H3934 0.960 . S
C3948 H3935 0.960 . S
C3948 C3947 1.524 . S
C3949 C3946 1.403 . S
C3949 C3950 1.392 . S
C3949 C3953 1.495 1_655 S
C3950 C3949 1.392 . S
C3950 C3951 1.385 . S
C3950 C3952 1.478 . S
C3951 H3945 0.930 . S
C3951 C3947 1.400 . S
C3951 C3950 1.385 . S
C3952 C3950 1.478 . S
C3952 C3954 1.381 . S
C3952 C3958 1.383 . S
C3953 C3949 1.495 1_455 S
C3953 H3959 0.959 . S
C3953 H3960 0.961 . S
C3953 H3961 0.960 . S
C3954 C3952 1.381 . S
C3954 C3955 1.394 1_655 S
C3954 H3962 0.930 . S
C3955 C3954 1.394 1_455 S
C3955 C3956 1.383 . S
C3955 H3963 0.929 . S
C3956 C3955 1.383 . S
C3956 C3957 1.377 1_455 S
C3957 H3941 0.930 . S
C3957 C3956 1.377 1_655 S
C3957 C3958 1.379 . S
C3958 H3942 0.931 . S
C3958 C3952 1.383 . S
C3958 C3957 1.379 . S
H3959 C3953 0.959 . S
H3960 C3953 0.961 . S
H3961 C3953 0.960 . S
H3962 C3954 0.930 . S
H3963 C3955 0.929 . S
H3964 C3972 0.929 . S
H3965 C3974 0.930 . S
H3966 C3976 0.930 . S
H3967 C3979 0.929 . S
H3968 C3982 0.930 . S
H3969 C3984 0.960 . S
H3970 C3984 0.960 . S
H3971 C3984 0.960 . S
C3972 H3964 0.929 . S
C3972 C3973 1.377 . S
C3972 C3974 1.384 . S
C3973 C3972 1.377 . S
C3973 C3979 1.390 . S
C3974 H3965 0.930 . S
C3974 C3972 1.384 . S
C3974 C3975 1.372 . S
C3975 C3974 1.372 . S
C3975 C3976 1.400 . S
C3975 C3980 1.490 . S
C3976 H3966 0.930 . S
C3976 C3975 1.400 . S
C3976 C3979 1.386 . S
H3977 C3993 0.930 . S
H3978 C3994 0.931 . S
C3979 H3967 0.929 . S
C3979 C3973 1.390 . S
C3979 C3976 1.386 . S
C3980 C3975 1.490 . S
C3980 C3982 1.395 . S
C3980 C3983 1.403 . S
H3981 C3987 0.930 . S
C3982 H3968 0.930 . S
C3982 C3980 1.395 . S
C3982 C3985 1.403 . S
C3983 C3980 1.403 . S
C3983 C3984 1.524 . S
C3983 C3987 1.400 . S
C3984 H3969 0.960 . S
C3984 H3970 0.960 . S
C3984 H3971 0.960 . S
C3984 C3983 1.524 . S
C3985 C3982 1.403 . S
C3985 C3986 1.392 . S
C3985 C3989 1.495 . S
C3986 C3985 1.392 . S
C3986 C3987 1.385 . S
C3986 C3988 1.478 . S
C3987 H3981 0.930 . S
C3987 C3983 1.400 . S
C3987 C3986 1.385 . S
C3988 C3986 1.478 . S
C3988 C3990 1.381 . S
C3988 C3994 1.383 . S
C3989 C3985 1.495 . S
C3989 H3995 0.959 . S
C3989 H3996 0.961 . S
C3989 H3997 0.960 . S
C3990 C3988 1.381 . S
C3990 C3991 1.394 . S
C3990 H3998 0.930 . S
C3991 C3990 1.394 . S
C3991 C3992 1.383 . S
C3991 H3999 0.929 . S
C3992 C3991 1.383 . S
C3992 C3993 1.377 . S
C3993 H3977 0.930 . S
C3993 C3992 1.377 . S
C3993 C3994 1.379 . S
C3994 H3978 0.931 . S
C3994 C3988 1.383 . S
C3994 C3993 1.379 . S
H3995 C3989 0.959 . S
H3996 C3989 0.961 . S
H3997 C3989 0.960 . S
H3998 C3990 0.930 . S
H3999 C3991 0.929 . S
H4000 C4008 0.929 . S
H4001 C4010 0.930 . S
H4002 C4012 0.930 . S
H4003 C4015 0.929 . S
H4004 C4018 0.930 . S
H4005 C4020 0.960 . S
H4006 C4020 0.960 . S
H4007 C4020 0.960 . S
C4008 H4000 0.929 . S
C4008 C4009 1.377 . S
C4008 C4010 1.384 . S
C4009 C4008 1.377 . S
C4009 C4015 1.390 . S
C4010 H4001 0.930 . S
C4010 C4008 1.384 . S
C4010 C4011 1.372 . S
C4011 C4010 1.372 . S
C4011 C4012 1.400 . S
C4011 C4016 1.490 . S
C4012 H4002 0.930 . S
C4012 C4011 1.400 . S
C4012 C4015 1.386 . S
H4013 C4029 0.930 . S
H4014 C4030 0.931 . S
C4015 H4003 0.929 . S
C4015 C4009 1.390 . S
C4015 C4012 1.386 . S
C4016 C4011 1.490 . S
C4016 C4018 1.395 . S
C4016 C4019 1.403 . S
H4017 C4023 0.930 . S
C4018 H4004 0.930 . S
C4018 C4016 1.395 . S
C4018 C4021 1.403 . S
C4019 C4016 1.403 . S
C4019 C4020 1.524 . S
C4019 C4023 1.400 . S
C4020 H4005 0.960 . S
C4020 H4006 0.960 . S
C4020 H4007 0.960 . S
C4020 C4019 1.524 . S
C4021 C4018 1.403 . S
C4021 C4022 1.392 . S
C4021 C4025 1.495 . S
C4022 C4021 1.392 . S
C4022 C4023 1.385 . S
C4022 C4024 1.478 . S
C4023 H4017 0.930 . S
C4023 C4019 1.400 . S
C4023 C4022 1.385 . S
C4024 C4022 1.478 . S
C4024 C4026 1.381 . S
C4024 C4030 1.383 . S
C4025 C4021 1.495 . S
C4025 H4031 0.959 . S
C4025 H4032 0.961 . S
C4025 H4033 0.960 . S
C4026 C4024 1.381 . S
C4026 C4027 1.394 . S
C4026 H4034 0.930 . S
C4027 C4026 1.394 . S
C4027 C4028 1.383 . S
C4027 H4035 0.929 . S
C4028 C4027 1.383 . S
C4028 C4029 1.377 . S
C4029 H4013 0.930 . S
C4029 C4028 1.377 . S
C4029 C4030 1.379 . S
C4030 H4014 0.931 . S
C4030 C4024 1.383 . S
C4030 C4029 1.379 . S
H4031 C4025 0.959 . S
H4032 C4025 0.961 . S
H4033 C4025 0.960 . S
H4034 C4026 0.930 . S
H4035 C4027 0.929 . S
H4036 C4044 0.929 . S
H4037 C4046 0.930 . S
H4038 C4048 0.930 . S
H4039 C4051 0.929 . S
H4040 C4054 0.930 . S
H4041 C4056 0.960 . S
H4042 C4056 0.960 . S
H4043 C4056 0.960 . S
C4044 H4036 0.929 . S
C4044 C4045 1.377 . S
C4044 C4046 1.384 . S
C4045 C4044 1.377 . S
C4045 C4051 1.390 . S
C4046 H4037 0.930 . S
C4046 C4044 1.384 . S
C4046 C4047 1.372 . S
C4047 C4046 1.372 . S
C4047 C4048 1.400 . S
C4047 C4052 1.490 . S
C4048 H4038 0.930 . S
C4048 C4047 1.400 . S
C4048 C4051 1.386 . S
H4049 C4065 0.930 . S
H4050 C4066 0.931 . S
C4051 H4039 0.929 . S
C4051 C4045 1.390 . S
C4051 C4048 1.386 . S
C4052 C4047 1.490 . S
C4052 C4054 1.395 . S
C4052 C4055 1.403 . S
H4053 C4059 0.930 . S
C4054 H4040 0.930 . S
C4054 C4052 1.395 . S
C4054 C4057 1.403 . S
C4055 C4052 1.403 . S
C4055 C4056 1.524 . S
C4055 C4059 1.400 . S
C4056 H4041 0.960 . S
C4056 H4042 0.960 . S
C4056 H4043 0.960 . S
C4056 C4055 1.524 . S
C4057 C4054 1.403 . S
C4057 C4058 1.392 . S
C4057 C4061 1.495 . S
C4058 C4057 1.392 . S
C4058 C4059 1.385 . S
C4058 C4060 1.478 . S
C4059 H4053 0.930 . S
C4059 C4055 1.400 . S
C4059 C4058 1.385 . S
C4060 C4058 1.478 . S
C4060 C4062 1.381 . S
C4060 C4066 1.383 . S
C4061 C4057 1.495 . S
C4061 H4067 0.959 . S
C4061 H4068 0.961 . S
C4061 H4069 0.960 . S
C4062 C4060 1.381 . S
C4062 C4063 1.394 . S
C4062 H4070 0.930 . S
C4063 C4062 1.394 . S
C4063 C4064 1.383 . S
C4063 H4071 0.929 . S
C4064 C4063 1.383 . S
C4064 C4065 1.377 . S
C4065 H4049 0.930 . S
C4065 C4064 1.377 . S
C4065 C4066 1.379 . S
C4066 H4050 0.931 . S
C4066 C4060 1.383 . S
C4066 C4065 1.379 . S
H4067 C4061 0.959 . S
H4068 C4061 0.961 . S
H4069 C4061 0.960 . S
H4070 C4062 0.930 . S
H4071 C4063 0.929 . S
H4072 C4080 0.929 . S
H4073 C4082 0.930 . S
H4074 C4084 0.930 . S
H4075 C4087 0.929 . S
H4076 C4090 0.930 . S
H4077 C4092 0.960 . S
H4078 C4092 0.960 . S
H4079 C4092 0.960 . S
C4080 H4072 0.929 . S
C4080 C4081 1.377 . S
C4080 C4082 1.384 . S
C4081 C4080 1.377 . S
C4081 C4087 1.390 . S
C4082 H4073 0.930 . S
C4082 C4080 1.384 . S
C4082 C4083 1.372 . S
C4083 C4082 1.372 . S
C4083 C4084 1.400 . S
C4083 C4088 1.490 . S
C4084 H4074 0.930 . S
C4084 C4083 1.400 . S
C4084 C4087 1.386 . S
H4085 C4101 0.930 . S
H4086 C4102 0.931 . S
C4087 H4075 0.929 . S
C4087 C4081 1.390 . S
C4087 C4084 1.386 . S
C4088 C4083 1.490 . S
C4088 C4090 1.395 . S
C4088 C4091 1.403 . S
H4089 C4095 0.930 . S
C4090 H4076 0.930 . S
C4090 C4088 1.395 . S
C4090 C4093 1.403 . S
C4091 C4088 1.403 . S
C4091 C4092 1.524 . S
C4091 C4095 1.400 . S
C4092 H4077 0.960 . S
C4092 H4078 0.960 . S
C4092 H4079 0.960 . S
C4092 C4091 1.524 . S
C4093 C4090 1.403 . S
C4093 C4094 1.392 . S
C4093 C4097 1.495 . S
C4094 C4093 1.392 . S
C4094 C4095 1.385 . S
C4094 C4096 1.478 . S
C4095 H4089 0.930 . S
C4095 C4091 1.400 . S
C4095 C4094 1.385 . S
C4096 C4094 1.478 . S
C4096 C4098 1.381 1_655 S
C4096 C4102 1.383 . S
C4097 C4093 1.495 . S
C4097 H4103 0.959 . S
C4097 H4104 0.961 . S
C4097 H4105 0.960 . S
C4098 C4096 1.381 1_455 S
C4098 C4099 1.394 . S
C4098 H4106 0.930 . S
C4099 C4098 1.394 . S
C4099 C4100 1.383 . S
C4099 H4107 0.929 . S
C4100 C4099 1.383 . S
C4100 C4101 1.377 1_455 S
C4101 H4085 0.930 . S
C4101 C4100 1.377 1_655 S
C4101 C4102 1.379 . S
C4102 H4086 0.931 . S
C4102 C4096 1.383 . S
C4102 C4101 1.379 . S
H4103 C4097 0.959 . S
H4104 C4097 0.961 . S
H4105 C4097 0.960 . S
H4106 C4098 0.930 . S
H4107 C4099 0.929 . S
H4108 C4116 0.929 . S
H4109 C4118 0.930 . S
H4110 C4120 0.930 . S
H4111 C4123 0.929 . S
H4112 C4126 0.930 . S
H4113 C4128 0.960 . S
H4114 C4128 0.960 . S
H4115 C4128 0.960 . S
C4116 H4108 0.929 . S
C4116 C4117 1.377 . S
C4116 C4118 1.384 . S
C4117 C4116 1.377 . S
C4117 C4123 1.390 . S
C4118 H4109 0.930 . S
C4118 C4116 1.384 . S
C4118 C4119 1.372 . S
C4119 C4118 1.372 . S
C4119 C4120 1.400 . S
C4119 C4124 1.490 . S
C4120 H4110 0.930 . S
C4120 C4119 1.400 . S
C4120 C4123 1.386 . S
H4121 C4137 0.930 . S
H4122 C4138 0.931 . S
C4123 H4111 0.929 . S
C4123 C4117 1.390 . S
C4123 C4120 1.386 . S
C4124 C4119 1.490 . S
C4124 C4126 1.395 . S
C4124 C4127 1.403 . S
H4125 C4131 0.930 . S
C4126 H4112 0.930 . S
C4126 C4124 1.395 . S
C4126 C4129 1.403 . S
C4127 C4124 1.403 . S
C4127 C4128 1.524 . S
C4127 C4131 1.400 . S
C4128 H4113 0.960 . S
C4128 H4114 0.960 . S
C4128 H4115 0.960 . S
C4128 C4127 1.524 . S
C4129 C4126 1.403 . S
C4129 C4130 1.392 . S
C4129 C4133 1.495 . S
C4130 C4129 1.392 . S
C4130 C4131 1.385 . S
C4130 C4132 1.478 . S
C4131 H4125 0.930 . S
C4131 C4127 1.400 . S
C4131 C4130 1.385 . S
C4132 C4130 1.478 . S
C4132 C4134 1.381 . S
C4132 C4138 1.383 . S
C4133 C4129 1.495 . S
C4133 H4139 0.959 . S
C4133 H4140 0.961 . S
C4133 H4141 0.960 . S
C4134 C4132 1.381 . S
C4134 C4135 1.394 . S
C4134 H4142 0.930 . S
C4135 C4134 1.394 . S
C4135 C4136 1.383 . S
C4135 H4143 0.929 . S
C4136 C4135 1.383 . S
C4136 C4137 1.377 . S
C4137 H4121 0.930 . S
C4137 C4136 1.377 . S
C4137 C4138 1.379 . S
C4138 H4122 0.931 . S
C4138 C4132 1.383 . S
C4138 C4137 1.379 . S
H4139 C4133 0.959 . S
H4140 C4133 0.961 . S
H4141 C4133 0.960 . S
H4142 C4134 0.930 . S
H4143 C4135 0.929 . S
H4144 C4152 0.929 . S
H4145 C4154 0.930 . S
H4146 C4156 0.930 . S
H4147 C4159 0.929 . S
H4148 C4162 0.930 . S
H4149 C4164 0.960 . S
H4150 C4164 0.960 . S
H4151 C4164 0.960 . S
C4152 H4144 0.929 . S
C4152 C4153 1.377 . S
C4152 C4154 1.384 . S
C4153 C4152 1.377 . S
C4153 C4159 1.390 . S
C4154 H4145 0.930 . S
C4154 C4152 1.384 . S
C4154 C4155 1.372 . S
C4155 C4154 1.372 . S
C4155 C4156 1.400 . S
C4155 C4160 1.490 . S
C4156 H4146 0.930 . S
C4156 C4155 1.400 . S
C4156 C4159 1.386 . S
H4157 C4173 0.930 . S
H4158 C4174 0.931 . S
C4159 H4147 0.929 . S
C4159 C4153 1.390 . S
C4159 C4156 1.386 . S
C4160 C4155 1.490 . S
C4160 C4162 1.395 . S
C4160 C4163 1.403 . S
H4161 C4167 0.930 . S
C4162 H4148 0.930 . S
C4162 C4160 1.395 . S
C4162 C4165 1.403 . S
C4163 C4160 1.403 . S
C4163 C4164 1.524 . S
C4163 C4167 1.400 . S
C4164 H4149 0.960 . S
C4164 H4150 0.960 . S
C4164 H4151 0.960 . S
C4164 C4163 1.524 . S
C4165 C4162 1.403 . S
C4165 C4166 1.392 . S
C4165 C4169 1.495 . S
C4166 C4165 1.392 . S
C4166 C4167 1.385 . S
C4166 C4168 1.478 . S
C4167 H4161 0.930 . S
C4167 C4163 1.400 . S
C4167 C4166 1.385 . S
C4168 C4166 1.478 . S
C4168 C4170 1.381 . S
C4168 C4174 1.383 . S
C4169 C4165 1.495 . S
C4169 H4175 0.959 . S
C4169 H4176 0.961 . S
C4169 H4177 0.960 . S
C4170 C4168 1.381 . S
C4170 C4171 1.394 . S
C4170 H4178 0.930 . S
C4171 C4170 1.394 . S
C4171 C4172 1.383 . S
C4171 H4179 0.929 . S
C4172 C4171 1.383 . S
C4172 C4173 1.377 . S
C4173 H4157 0.930 . S
C4173 C4172 1.377 . S
C4173 C4174 1.379 . S
C4174 H4158 0.931 . S
C4174 C4168 1.383 . S
C4174 C4173 1.379 . S
H4175 C4169 0.959 . S
H4176 C4169 0.961 . S
H4177 C4169 0.960 . S
H4178 C4170 0.930 . S
H4179 C4171 0.929 . S
H4180 C4188 0.929 . S
H4181 C4190 0.930 . S
H4182 C4192 0.930 . S
H4183 C4195 0.929 . S
H4184 C4198 0.930 . S
H4185 C4200 0.960 . S
H4186 C4200 0.960 . S
H4187 C4200 0.960 . S
C4188 H4180 0.929 . S
C4188 C4189 1.377 . S
C4188 C4190 1.384 . S
C4189 C4188 1.377 . S
C4189 C4195 1.390 . S
C4190 H4181 0.930 . S
C4190 C4188 1.384 . S
C4190 C4191 1.372 . S
C4191 C4190 1.372 . S
C4191 C4192 1.400 . S
C4191 C4196 1.490 . S
C4192 H4182 0.930 . S
C4192 C4191 1.400 . S
C4192 C4195 1.386 . S
H4193 C4209 0.930 . S
H4194 C4210 0.931 . S
C4195 H4183 0.929 . S
C4195 C4189 1.390 . S
C4195 C4192 1.386 . S
C4196 C4191 1.490 . S
C4196 C4198 1.395 . S
C4196 C4199 1.403 . S
H4197 C4203 0.930 . S
C4198 H4184 0.930 . S
C4198 C4196 1.395 . S
C4198 C4201 1.403 . S
C4199 C4196 1.403 . S
C4199 C4200 1.524 . S
C4199 C4203 1.400 . S
C4200 H4185 0.960 . S
C4200 H4186 0.960 . S
C4200 H4187 0.960 . S
C4200 C4199 1.524 . S
C4201 C4198 1.403 . S
C4201 C4202 1.392 . S
C4201 C4205 1.495 . S
C4202 C4201 1.392 . S
C4202 C4203 1.385 . S
C4202 C4204 1.478 . S
C4203 H4197 0.930 . S
C4203 C4199 1.400 . S
C4203 C4202 1.385 . S
C4204 C4202 1.478 . S
C4204 C4206 1.381 . S
C4204 C4210 1.383 . S
C4205 C4201 1.495 . S
C4205 H4211 0.959 . S
C4205 H4212 0.961 . S
C4205 H4213 0.960 . S
C4206 C4204 1.381 . S
C4206 C4207 1.394 . S
C4206 H4214 0.930 . S
C4207 C4206 1.394 . S
C4207 C4208 1.383 . S
C4207 H4215 0.929 1_565 S
C4208 C4207 1.383 . S
C4208 C4209 1.377 . S
C4209 H4193 0.930 . S
C4209 C4208 1.377 . S
C4209 C4210 1.379 . S
C4210 H4194 0.931 . S
C4210 C4204 1.383 . S
C4210 C4209 1.379 . S
H4211 C4205 0.959 . S
H4212 C4205 0.961 . S
H4213 C4205 0.960 . S
H4214 C4206 0.930 . S
H4215 C4207 0.929 1_545 S
H4216 C4224 0.929 . S
H4217 C4226 0.930 . S
H4218 C4228 0.930 . S
H4219 C4231 0.929 . S
H4220 C4234 0.930 . S
H4221 C4236 0.960 . S
H4222 C4236 0.960 . S
H4223 C4236 0.960 . S
C4224 H4216 0.929 . S
C4224 C4225 1.377 . S
C4224 C4226 1.384 . S
C4225 C4224 1.377 . S
C4225 C4231 1.390 . S
C4226 H4217 0.930 . S
C4226 C4224 1.384 . S
C4226 C4227 1.372 . S
C4227 C4226 1.372 . S
C4227 C4228 1.400 . S
C4227 C4232 1.490 . S
C4228 H4218 0.930 . S
C4228 C4227 1.400 . S
C4228 C4231 1.386 . S
H4229 C4245 0.930 . S
H4230 C4246 0.931 . S
C4231 H4219 0.929 . S
C4231 C4225 1.390 . S
C4231 C4228 1.386 . S
C4232 C4227 1.490 . S
C4232 C4234 1.395 . S
C4232 C4235 1.403 . S
H4233 C4239 0.930 . S
C4234 H4220 0.930 . S
C4234 C4232 1.395 . S
C4234 C4237 1.403 . S
C4235 C4232 1.403 . S
C4235 C4236 1.524 . S
C4235 C4239 1.400 . S
C4236 H4221 0.960 . S
C4236 H4222 0.960 . S
C4236 H4223 0.960 . S
C4236 C4235 1.524 . S
C4237 C4234 1.403 . S
C4237 C4238 1.392 . S
C4237 C4241 1.495 . S
C4238 C4237 1.392 . S
C4238 C4239 1.385 . S
C4238 C4240 1.478 . S
C4239 H4233 0.930 . S
C4239 C4235 1.400 . S
C4239 C4238 1.385 . S
C4240 C4238 1.478 . S
C4240 C4242 1.381 . S
C4240 C4246 1.383 . S
C4241 C4237 1.495 . S
C4241 H4247 0.959 . S
C4241 H4248 0.961 . S
C4241 H4249 0.960 . S
C4242 C4240 1.381 . S
C4242 C4243 1.394 . S
C4242 H4250 0.930 . S
C4243 C4242 1.394 . S
C4243 C4244 1.383 . S
C4243 H4251 0.929 . S
C4244 C4243 1.383 . S
C4244 C4245 1.377 . S
C4245 H4229 0.930 . S
C4245 C4244 1.377 . S
C4245 C4246 1.379 . S
C4246 H4230 0.931 . S
C4246 C4240 1.383 . S
C4246 C4245 1.379 . S
H4247 C4241 0.959 . S
H4248 C4241 0.961 . S
H4249 C4241 0.960 . S
H4250 C4242 0.930 . S
H4251 C4243 0.929 . S
H4252 C4260 0.929 . S
H4253 C4262 0.930 . S
H4254 C4264 0.930 . S
H4255 C4267 0.929 . S
H4256 C4270 0.930 . S
H4257 C4272 0.960 . S
H4258 C4272 0.960 . S
H4259 C4272 0.960 . S
C4260 H4252 0.929 . S
C4260 C4261 1.377 . S
C4260 C4262 1.384 . S
C4261 C4260 1.377 . S
C4261 C4267 1.390 . S
C4262 H4253 0.930 . S
C4262 C4260 1.384 . S
C4262 C4263 1.372 . S
C4263 C4262 1.372 . S
C4263 C4264 1.400 . S
C4263 C4268 1.490 . S
C4264 H4254 0.930 . S
C4264 C4263 1.400 . S
C4264 C4267 1.386 . S
H4265 C4281 0.930 . S
H4266 C4282 0.931 . S
C4267 H4255 0.929 . S
C4267 C4261 1.390 . S
C4267 C4264 1.386 . S
C4268 C4263 1.490 . S
C4268 C4270 1.395 . S
C4268 C4271 1.403 . S
H4269 C4275 0.930 . S
C4270 H4256 0.930 . S
C4270 C4268 1.395 . S
C4270 C4273 1.403 . S
C4271 C4268 1.403 . S
C4271 C4272 1.524 . S
C4271 C4275 1.400 . S
C4272 H4257 0.960 . S
C4272 H4258 0.960 . S
C4272 H4259 0.960 . S
C4272 C4271 1.524 . S
C4273 C4270 1.403 . S
C4273 C4274 1.392 . S
C4273 C4277 1.495 . S
C4274 C4273 1.392 . S
C4274 C4275 1.385 . S
C4274 C4276 1.478 . S
C4275 H4269 0.930 . S
C4275 C4271 1.400 . S
C4275 C4274 1.385 . S
C4276 C4274 1.478 . S
C4276 C4278 1.381 . S
C4276 C4282 1.383 . S
C4277 C4273 1.495 . S
C4277 H4283 0.959 . S
C4277 H4284 0.961 . S
C4277 H4285 0.960 . S
C4278 C4276 1.381 . S
C4278 C4279 1.394 . S
C4278 H4286 0.930 . S
C4279 C4278 1.394 . S
C4279 C4280 1.383 . S
C4279 H4287 0.929 . S
C4280 C4279 1.383 . S
C4280 C4281 1.377 . S
C4281 H4265 0.930 . S
C4281 C4280 1.377 . S
C4281 C4282 1.379 . S
C4282 H4266 0.931 . S
C4282 C4276 1.383 . S
C4282 C4281 1.379 . S
H4283 C4277 0.959 . S
H4284 C4277 0.961 . S
H4285 C4277 0.960 . S
H4286 C4278 0.930 . S
H4287 C4279 0.929 . S
H4288 C4296 0.929 . S
H4289 C4298 0.930 . S
H4290 C4300 0.930 . S
H4291 C4303 0.929 . S
H4292 C4306 0.930 . S
H4293 C4308 0.960 . S
H4294 C4308 0.960 . S
H4295 C4308 0.960 . S
C4296 H4288 0.929 . S
C4296 C4297 1.377 . S
C4296 C4298 1.384 . S
C4297 C4296 1.377 . S
C4297 C4303 1.390 . S
C4298 H4289 0.930 . S
C4298 C4296 1.384 . S
C4298 C4299 1.372 . S
C4299 C4298 1.372 . S
C4299 C4300 1.400 . S
C4299 C4304 1.490 . S
C4300 H4290 0.930 . S
C4300 C4299 1.400 . S
C4300 C4303 1.386 . S
H4301 C4317 0.930 . S
H4302 C4318 0.931 . S
C4303 H4291 0.929 . S
C4303 C4297 1.390 . S
C4303 C4300 1.386 . S
C4304 C4299 1.490 . S
C4304 C4306 1.395 . S
C4304 C4307 1.403 . S
H4305 C4311 0.930 . S
C4306 H4292 0.930 . S
C4306 C4304 1.395 . S
C4306 C4309 1.403 . S
C4307 C4304 1.403 . S
C4307 C4308 1.524 . S
C4307 C4311 1.400 . S
C4308 H4293 0.960 . S
C4308 H4294 0.960 . S
C4308 H4295 0.960 . S
C4308 C4307 1.524 . S
C4309 C4306 1.403 . S
C4309 C4310 1.392 . S
C4309 C4313 1.495 . S
C4310 C4309 1.392 . S
C4310 C4311 1.385 . S
C4310 C4312 1.478 . S
C4311 H4305 0.930 . S
C4311 C4307 1.400 . S
C4311 C4310 1.385 . S
C4312 C4310 1.478 . S
C4312 C4314 1.381 . S
C4312 C4318 1.383 . S
C4313 C4309 1.495 . S
C4313 H4319 0.959 . S
C4313 H4320 0.961 . S
C4313 H4321 0.960 . S
C4314 C4312 1.381 . S
C4314 C4315 1.394 . S
C4314 H4322 0.930 . S
C4315 C4314 1.394 . S
C4315 C4316 1.383 . S
C4315 H4323 0.929 . S
C4316 C4315 1.383 . S
C4316 C4317 1.377 . S
C4317 H4301 0.930 . S
C4317 C4316 1.377 . S
C4317 C4318 1.379 . S
C4318 H4302 0.931 . S
C4318 C4312 1.383 . S
C4318 C4317 1.379 . S
H4319 C4313 0.959 . S
H4320 C4313 0.961 . S
H4321 C4313 0.960 . S
H4322 C4314 0.930 . S
H4323 C4315 0.929 . S
H4324 C4332 0.929 . S
H4325 C4334 0.930 . S
H4326 C4336 0.930 . S
H4327 C4339 0.929 . S
H4328 C4342 0.930 . S
H4329 C4344 0.960 . S
H4330 C4344 0.960 . S
H4331 C4344 0.960 . S
C4332 H4324 0.929 . S
C4332 C4333 1.377 . S
C4332 C4334 1.384 . S
C4333 C4332 1.377 . S
C4333 C4339 1.390 1_554 S
C4334 H4325 0.930 . S
C4334 C4332 1.384 . S
C4334 C4335 1.372 . S
C4335 C4334 1.372 . S
C4335 C4336 1.400 1_554 S
C4335 C4340 1.490 . S
C4336 H4326 0.930 . S
C4336 C4335 1.400 1_556 S
C4336 C4339 1.386 . S
H4337 C4353 0.930 . S
H4338 C4354 0.931 . S
C4339 H4327 0.929 . S
C4339 C4333 1.390 1_556 S
C4339 C4336 1.386 . S
C4340 C4335 1.490 . S
C4340 C4342 1.395 . S
C4340 C4343 1.403 1_554 S
H4341 C4347 0.930 . S
C4342 H4328 0.930 . S
C4342 C4340 1.395 . S
C4342 C4345 1.403 . S
C4343 C4340 1.403 1_556 S
C4343 C4344 1.524 . S
C4343 C4347 1.400 . S
C4344 H4329 0.960 . S
C4344 H4330 0.960 . S
C4344 H4331 0.960 . S
C4344 C4343 1.524 . S
C4345 C4342 1.403 . S
C4345 C4346 1.392 . S
C4345 C4349 1.495 . S
C4346 C4345 1.392 . S
C4346 C4347 1.385 1_554 S
C4346 C4348 1.478 . S
C4347 H4341 0.930 . S
C4347 C4343 1.400 . S
C4347 C4346 1.385 1_556 S
C4348 C4346 1.478 . S
C4348 C4350 1.381 . S
C4348 C4354 1.383 1_554 S
C4349 C4345 1.495 . S
C4349 H4355 0.959 . S
C4349 H4356 0.961 . S
C4349 H4357 0.960 . S
C4350 C4348 1.381 . S
C4350 C4351 1.394 . S
C4350 H4358 0.930 . S
C4351 C4350 1.394 . S
C4351 C4352 1.383 1_554 S
C4351 H4359 0.929 . S
C4352 C4351 1.383 1_556 S
C4352 C4353 1.377 . S
C4353 H4337 0.930 . S
C4353 C4352 1.377 . S
C4353 C4354 1.379 . S
C4354 H4338 0.931 . S
C4354 C4348 1.383 1_556 S
C4354 C4353 1.379 . S
H4355 C4349 0.959 . S
H4356 C4349 0.961 . S
H4357 C4349 0.960 . S
H4358 C4350 0.930 . S
H4359 C4351 0.929 . S
H4360 C4368 0.929 . S
H4361 C4370 0.930 . S
H4362 C4372 0.930 . S
H4363 C4375 0.929 . S
H4364 C4378 0.930 . S
H4365 C4380 0.960 . S
H4366 C4380 0.960 . S
H4367 C4380 0.960 . S
C4368 H4360 0.929 . S
C4368 C4369 1.377 . S
C4368 C4370 1.384 . S
C4369 C4368 1.377 . S
C4369 C4375 1.390 . S
C4370 H4361 0.930 . S
C4370 C4368 1.384 . S
C4370 C4371 1.372 . S
C4371 C4370 1.372 . S
C4371 C4372 1.400 . S
C4371 C4376 1.490 . S
C4372 H4362 0.930 . S
C4372 C4371 1.400 . S
C4372 C4375 1.386 . S
H4373 C4389 0.930 . S
H4374 C4390 0.931 . S
C4375 H4363 0.929 . S
C4375 C4369 1.390 . S
C4375 C4372 1.386 . S
C4376 C4371 1.490 . S
C4376 C4378 1.395 . S
C4376 C4379 1.403 . S
H4377 C4383 0.930 . S
C4378 H4364 0.930 . S
C4378 C4376 1.395 . S
C4378 C4381 1.403 . S
C4379 C4376 1.403 . S
C4379 C4380 1.524 . S
C4379 C4383 1.400 . S
C4380 H4365 0.960 . S
C4380 H4366 0.960 . S
C4380 H4367 0.960 . S
C4380 C4379 1.524 . S
C4381 C4378 1.403 . S
C4381 C4382 1.392 . S
C4381 C4385 1.495 . S
C4382 C4381 1.392 . S
C4382 C4383 1.385 . S
C4382 C4384 1.478 . S
C4383 H4377 0.930 . S
C4383 C4379 1.400 . S
C4383 C4382 1.385 . S
C4384 C4382 1.478 . S
C4384 C4386 1.381 . S
C4384 C4390 1.383 . S
C4385 C4381 1.495 . S
C4385 H4391 0.959 . S
C4385 H4392 0.961 . S
C4385 H4393 0.960 . S
C4386 C4384 1.381 . S
C4386 C4387 1.394 . S
C4386 H4394 0.930 . S
C4387 C4386 1.394 . S
C4387 C4388 1.383 . S
C4387 H4395 0.929 . S
C4388 C4387 1.383 . S
C4388 C4389 1.377 . S
C4389 H4373 0.930 . S
C4389 C4388 1.377 . S
C4389 C4390 1.379 . S
C4390 H4374 0.931 . S
C4390 C4384 1.383 . S
C4390 C4389 1.379 . S
H4391 C4385 0.959 . S
H4392 C4385 0.961 . S
H4393 C4385 0.960 . S
H4394 C4386 0.930 . S
H4395 C4387 0.929 . S
H4396 C4404 0.929 . S
H4397 C4406 0.930 . S
H4398 C4408 0.930 . S
H4399 C4411 0.929 . S
H4400 C4414 0.930 . S
H4401 C4416 0.960 . S
H4402 C4416 0.960 . S
H4403 C4416 0.960 . S
C4404 H4396 0.929 . S
C4404 C4405 1.377 . S
C4404 C4406 1.384 . S
C4405 C4404 1.377 . S
C4405 C4411 1.390 . S
C4406 H4397 0.930 . S
C4406 C4404 1.384 . S
C4406 C4407 1.372 . S
C4407 C4406 1.372 . S
C4407 C4408 1.400 . S
C4407 C4412 1.490 . S
C4408 H4398 0.930 . S
C4408 C4407 1.400 . S
C4408 C4411 1.386 . S
H4409 C4425 0.930 . S
H4410 C4426 0.931 . S
C4411 H4399 0.929 . S
C4411 C4405 1.390 . S
C4411 C4408 1.386 . S
C4412 C4407 1.490 . S
C4412 C4414 1.395 . S
C4412 C4415 1.403 . S
H4413 C4419 0.930 . S
C4414 H4400 0.930 . S
C4414 C4412 1.395 . S
C4414 C4417 1.403 . S
C4415 C4412 1.403 . S
C4415 C4416 1.524 . S
C4415 C4419 1.400 . S
C4416 H4401 0.960 . S
C4416 H4402 0.960 . S
C4416 H4403 0.960 . S
C4416 C4415 1.524 . S
C4417 C4414 1.403 . S
C4417 C4418 1.392 . S
C4417 C4421 1.495 . S
C4418 C4417 1.392 . S
C4418 C4419 1.385 . S
C4418 C4420 1.478 . S
C4419 H4413 0.930 . S
C4419 C4415 1.400 . S
C4419 C4418 1.385 . S
C4420 C4418 1.478 . S
C4420 C4422 1.381 . S
C4420 C4426 1.383 . S
C4421 C4417 1.495 . S
C4421 H4427 0.959 . S
C4421 H4428 0.961 . S
C4421 H4429 0.960 . S
C4422 C4420 1.381 . S
C4422 C4423 1.394 . S
C4422 H4430 0.930 . S
C4423 C4422 1.394 . S
C4423 C4424 1.383 . S
C4423 H4431 0.929 . S
C4424 C4423 1.383 . S
C4424 C4425 1.377 . S
C4425 H4409 0.930 . S
C4425 C4424 1.377 . S
C4425 C4426 1.379 . S
C4426 H4410 0.931 . S
C4426 C4420 1.383 . S
C4426 C4425 1.379 . S
H4427 C4421 0.959 . S
H4428 C4421 0.961 . S
H4429 C4421 0.960 . S
H4430 C4422 0.930 . S
H4431 C4423 0.929 . S
C985 C109 2.122 . S
C1004 C346 2.064 . S
C1021 C61 1.754 . S
C1040 C394 1.976 . S
C1057 C74 1.073 . S
C1076 C426 1.077 . S
C1112 C471 1.558 . S
C1093 C96 1.600 . S
C1129 C25 0.790 . S
C1148 C511 0.812 . S
C1184 C546 0.695 . S
C1165 C40 0.720 . S
C1220 C585 1.204 . S
C1201 C46 1.181 . S
C1237 C5 0.945 . S
C1256 C622 1.096 . S
C1292 C354 1.832 . S
C1273 C229 1.523 . S
C1309 C249 0.326 . S
C1328 C391 0.599 . S
C1364 C434 2.314 . S
C1345 C271 2.115 . S
C1400 C466 1.058 . S
C1381 C172 1.011 . S
C1417 C236 1.047 . S
C1436 C506 1.064 . S
C1472 C554 0.665 . S
C1453 C242 0.666 . S
C1508 C595 1.763 . S
C1489 C278 1.826 . S
C1544 C625 1.910 . S
C1525 C179 1.946 . S
C1580 C351 1.014 . S
C1561 C159 0.822 1_556 S
C1597 C285 1.882 . S
C1616 C674 2.070 . S
C1652 C711 0.981 . S
C1633 C333 0.998 . S
C1688 C742 0.357 . S
C1669 C320 0.157 . S
C1705 C123 2.701 . S
C1724 C635 2.663 . S
C1741 C138 1.429 . S
C1760 C431 1.415 . S
C1777 C326 1.835 . S
C1796 C794 1.825 . S
C1832 C826 1.754 . S
C1813 C298 1.667 . S
C1868 C355 2.038 . S
C1849 C67 2.080 . S
C1904 C825 1.862 . S
C1885 C110 1.888 . S
C1921 C88 1.085 . S
C1940 C435 1.059 . S
C1957 C75 1.287 . S
C1976 C782 1.466 . S
C2012 C502 0.715 . S
C1993 C11 0.738 . S
C2029 C47 0.716 . S
C2048 C715 0.737 . S
C2084 C594 1.127 . S
C2065 C32 1.100 . S
C2120 C871 1.153 . S
C2101 C26 1.148 . S
C2156 C345 1.931 . S
C2137 C152 1.950 . S
C2192 C822 0.478 . S
C2173 C319 0.601 . S
C2209 C124 2.318 . S
C2228 C425 2.290 . S
C2245 C284 1.061 . S
C2264 C795 1.034 . S
C2281 C145 0.900 . S
C2300 C515 0.935 . S
C2336 C705 0.522 . S
C2317 C312 0.568 . S
C2353 C117 1.341 . S
C2372 C586 1.548 1_565 S
C2389 C291 1.864 . S
C2408 C874 1.876 . S
C2425 C194 1.124 . S
C2444 C342 1.096 . S
C2461 C180 2.033 . S
C2480 C665 2.003 . S
C2497 C263 0.919 . S
C2516 C542 0.926 . S
C2533 C243 0.813 . S
C2552 C751 0.371 . S
C2588 C866 2.661 . S
C2569 C277 2.715 . S
C2605 C215 1.192 . S
C2624 C422 1.358 . S
C2660 C465 1.695 . S
C2641 C256 1.643 . S
C2696 C395 1.782 . S
C2677 C200 1.827 . S
C2713 C81 2.122 . S
C2732 C906 2.050 . S
C2768 C834 1.978 . S
C2749 C89 1.766 . S
C2785 C102 1.063 . S
C2804 C946 1.105 . S
C2821 C68 1.600 . S
C2840 C791 1.581 . S
C2857 C53 0.791 . S
C2876 C671 0.814 . S
C2912 C706 0.698 . S
C2893 C12 0.724 . S
C2948 C745 1.205 . S
C2929 C18 1.177 . S
C2984 C862 1.099 . S
C2965 C33 0.952 . S
C3020 C914 1.809 . S
C3001 C257 1.513 . S
C3037 C193 0.320 . S
C3056 C831 0.591 . S
C3092 C954 2.312 . S
C3073 C201 2.094 . S
C3128 C786 1.041 . S
C3109 C214 1.017 . S
C3164 C666 1.051 . S
C3145 C264 1.044 . S
C3181 C186 0.665 . S
C3200 C714 0.668 . S
C3236 C755 1.756 . S
C3217 C208 1.826 . S
C3253 C221 1.944 . S
C3272 C865 1.907 . S
C3308 C911 0.985 . S
C3289 C313 0.829 . S
C3325 C131 1.882 . S
C3344 C514 2.084 . S
C3380 C551 1.013 . S
C3361 C151 0.997 . S
C3416 C582 0.183 . S
C3397 C166 0.153 . S
C3452 C875 2.653 . S
C3433 C305 2.701 . S
C3469 C292 1.428 . S
C3488 C951 1.421 . S
C3524 C474 1.846 . S
C3505 C144 1.835 . S
C3560 C386 1.753 . S
C3541 C116 1.667 . S
C3577 C95 2.079 . S
C3596 C915 2.042 . S
C3632 C385 1.881 . S
C3613 C82 1.890 . S
C3649 C60 1.077 . S
C3668 C955 1.101 . S
C3685 C103 1.284 . S
C3704 C462 1.481 . S
C3721 C39 0.742 . S
C3740 C662 0.726 . S
C3776 C555 0.691 . S
C3757 C19 0.722 . S
C3793 C4 1.093 . S
C3812 C754 1.088 . S
C3829 C54 1.148 . S
C3848 C631 1.148 . S
C3884 C905 1.935 . S
C3865 C334 1.950 . S
C3901 C165 0.592 . S
C3920 C382 0.516 . S
C3956 C945 2.273 . S
C3937 C306 2.317 . S
C3973 C130 1.054 . S
C3992 C475 1.076 . S
C4009 C327 0.899 . S
C4028 C675 0.975 . S
C4064 C545 0.462 . S
C4045 C158 0.556 . S
C4081 C299 1.334 . S
C4100 C746 1.559 . S
C4136 C634 1.857 . S
C4117 C137 1.868 . S
C4172 C902 1.094 . S
C4153 C250 1.132 . S
C4208 C505 1.994 1_565 S
C4189 C222 2.032 . S
C4225 C235 0.906 . S
C4244 C702 0.902 . S
C4280 C591 0.370 . S
C4261 C187 0.809 . S
C4297 C207 2.716 . S
C4316 C626 2.669 . S
C4333 C173 1.185 . S
C4352 C942 1.344 . S
C4388 C785 1.697 . S
C4369 C228 1.643 . S
C4424 C835 1.791 . S
C4405 C270 1.827 . S
