# Generated by pormake.
# Topology ctn, (3,4)-cn, num edge types: 1
# Building blocks:
#     Node 0, Type 0, BuildingBlock: WUSLED_clean_sbu_0, # of connection points: 3
#     Node 1, Type 0, BuildingBlock: WUSLED_clean_sbu_0, # of connection points: 3
#     Node 2, Type 0, BuildingBlock: WUSLED_clean_sbu_0, # of connection points: 3
#     Node 3, Type 0, BuildingBlock: WUSLED_clean_sbu_0, # of connection points: 3
#     Node 4, Type 0, BuildingBlock: WUSLED_clean_sbu_0, # of connection points: 3
#     Node 5, Type 0, BuildingBlock: WUSLED_clean_sbu_0, # of connection points: 3
#     Node 6, Type 0, BuildingBlock: WUSLED_clean_sbu_0, # of connection points: 3
#     Node 7, Type 0, BuildingBlock: WUSLED_clean_sbu_0, # of connection points: 3
#     Node 8, Type 0, BuildingBlock: WUSLED_clean_sbu_0, # of connection points: 3
#     Node 9, Type 0, BuildingBlock: WUSLED_clean_sbu_0, # of connection points: 3
#     Node 10, Type 0, BuildingBlock: WUSLED_clean_sbu_0, # of connection points: 3
#     Node 11, Type 0, BuildingBlock: WUSLED_clean_sbu_0, # of connection points: 3
#     Node 12, Type 0, BuildingBlock: WUSLED_clean_sbu_0, # of connection points: 3
#     Node 13, Type 0, BuildingBlock: WUSLED_clean_sbu_0, # of connection points: 3
#     Node 14, Type 0, BuildingBlock: WUSLED_clean_sbu_0, # of connection points: 3
#     Node 15, Type 0, BuildingBlock: WUSLED_clean_sbu_0, # of connection points: 3
#     Node 16, Type 1, BuildingBlock: TATPOV_clean_sbu_0, # of connection points: 4
#     Node 17, Type 1, BuildingBlock: TATPOV_clean_sbu_0, # of connection points: 4
#     Node 18, Type 1, BuildingBlock: TATPOV_clean_sbu_0, # of connection points: 4
#     Node 19, Type 1, BuildingBlock: TATPOV_clean_sbu_0, # of connection points: 4
#     Node 20, Type 1, BuildingBlock: TATPOV_clean_sbu_0, # of connection points: 4
#     Node 21, Type 1, BuildingBlock: TATPOV_clean_sbu_0, # of connection points: 4
#     Node 22, Type 1, BuildingBlock: TATPOV_clean_sbu_0, # of connection points: 4
#     Node 23, Type 1, BuildingBlock: TATPOV_clean_sbu_0, # of connection points: 4
#     Node 24, Type 1, BuildingBlock: TATPOV_clean_sbu_0, # of connection points: 4
#     Node 25, Type 1, BuildingBlock: TATPOV_clean_sbu_0, # of connection points: 4
#     Node 26, Type 1, BuildingBlock: TATPOV_clean_sbu_0, # of connection points: 4
#     Node 27, Type 1, BuildingBlock: TATPOV_clean_sbu_0, # of connection points: 4
#     Edge 28, Type (0, 1), None
#     Edge 29, Type (0, 1), None
#     Edge 30, Type (0, 1), None
#     Edge 31, Type (0, 1), None
#     Edge 32, Type (0, 1), None
#     Edge 33, Type (0, 1), None
#     Edge 34, Type (0, 1), None
#     Edge 35, Type (0, 1), None
#     Edge 36, Type (0, 1), None
#     Edge 37, Type (0, 1), None
#     Edge 38, Type (0, 1), None
#     Edge 39, Type (0, 1), None
#     Edge 40, Type (0, 1), None
#     Edge 41, Type (0, 1), None
#     Edge 42, Type (0, 1), None
#     Edge 43, Type (0, 1), None
#     Edge 44, Type (0, 1), None
#     Edge 45, Type (0, 1), None
#     Edge 46, Type (0, 1), None
#     Edge 47, Type (0, 1), None
#     Edge 48, Type (0, 1), None
#     Edge 49, Type (0, 1), None
#     Edge 50, Type (0, 1), None
#     Edge 51, Type (0, 1), None
#     Edge 52, Type (0, 1), None
#     Edge 53, Type (0, 1), None
#     Edge 54, Type (0, 1), None
#     Edge 55, Type (0, 1), None
#     Edge 56, Type (0, 1), None
#     Edge 57, Type (0, 1), None
#     Edge 58, Type (0, 1), None
#     Edge 59, Type (0, 1), None
#     Edge 60, Type (0, 1), None
#     Edge 61, Type (0, 1), None
#     Edge 62, Type (0, 1), None
#     Edge 63, Type (0, 1), None
#     Edge 64, Type (0, 1), None
#     Edge 65, Type (0, 1), None
#     Edge 66, Type (0, 1), None
#     Edge 67, Type (0, 1), None
#     Edge 68, Type (0, 1), None
#     Edge 69, Type (0, 1), None
#     Edge 70, Type (0, 1), None
#     Edge 71, Type (0, 1), None
#     Edge 72, Type (0, 1), None
#     Edge 73, Type (0, 1), None
#     Edge 74, Type (0, 1), None
#     Edge 75, Type (0, 1), None
# Relax obj value: 0.005
# Max RMSD: 0.046
# Mean RMSD: 0.022
data_MOF--net-ctn--node1-WUSLED_clean_sbu_0--node2-TATPOV_clean_sbu_0--edge1-none
_symmetry_space_group_name_H-M    P1
_symmetry_Int_Tables_number       1
_symmetry_cell_setting            triclinic
loop_
_symmetry_equiv_pos_as_xyz
'x, y, z'
_cell_length_a     39.967245
_cell_length_b     40.10351
_cell_length_c     40.168348
_cell_angle_alpha  91.214067
_cell_angle_beta   90.701952
_cell_angle_gamma 90.458719
loop_
_atom_site_label
_atom_site_type_symbol
_atom_site_fract_x
_atom_site_fract_y
_atom_site_fract_z
_atom_type_partial_charge
C0 C 0.98471 0.05884 0.12281 0.0
C1 C 0.96264 0.07879 0.14123 0.0
C2 C 0.95127 0.03303 0.17876 0.0
C3 C 0.94612 0.06609 0.16888 0.0
C4 C 0.97377 1.01317 0.1604 0.0
C5 C 0.99034 0.02595 0.13272 0.0
U6 U 0.05178 0.05984 0.05397 0.0
O7 O 0.04581 0.07118 1.00072 0.0
O8 O 0.07822 0.10274 0.03278 0.0
C9 C 0.06477 0.09808 1.003 0.0
C10 C 1.00076 0.07273 0.09304 0.0
C11 C 0.05206 0.12811 0.98634 0.0
C12 C 0.05492 0.16565 0.93949 0.0
C13 C 0.06562 0.13694 0.95567 0.0
C14 C 0.01655 0.17718 0.98436 0.0
C15 C 0.03035 0.1863 0.95365 0.0
C16 C 0.0273 0.14835 1.00054 0.0
C17 C 0.11983 0.99106 0.05296 0.0
C18 C 0.15976 0.94571 0.05716 0.0
C19 C 0.16513 0.9857 1.0132 0.0
C20 C 0.1368 1.00256 0.02499 0.0
C21 C 0.17699 0.95703 0.02916 0.0
C22 C 0.13154 0.96255 0.06888 0.0
C23 C 0.09003 1.00814 0.06624 0.0
O24 O 0.03063 0.0861 0.09763 0.0
O25 O 0.99829 0.05461 0.06544 0.0
O26 O 0.06274 1.0063 0.04769 0.0
O27 O 0.09508 0.03792 0.07974 0.0
H28 H 0.95792 0.10423 0.13405 0.0
H29 H 0.92909 0.08217 0.18234 0.0
H30 H 0.97844 0.98764 0.16726 0.0
H31 H 1.00732 1.0101 0.1189 0.0
H32 H 0.06615 0.17177 0.91597 0.0
H33 H 0.08478 0.12169 0.94427 0.0
H34 H 0.99757 0.19241 0.99603 0.0
H35 H 0.01647 0.14199 0.0242 0.0
H36 H 0.16807 0.92381 0.07013 0.0
H37 H 0.17772 0.99516 0.99158 0.0
H38 H 0.12817 0.02454 1.01234 0.0
H39 H 0.11882 0.95327 0.09052 0.0
C40 C 0.26706 0.76525 0.15138 0.0
C41 C 0.29912 0.77134 0.13888 0.0
C42 C 0.27591 0.80888 0.09782 0.0
C43 C 0.30343 0.79268 0.11226 0.0
C44 C 0.24403 0.80416 0.11141 0.0
C45 C 0.23963 0.78229 0.13787 0.0
U46 U 0.29419 0.72368 0.23192 0.0
O47 O 0.2639 0.70416 0.27287 0.0
O48 O 0.29702 0.67084 0.24459 0.0
C49 C 0.2733 0.67328 0.26689 0.0
C50 C 0.26193 0.74031 0.17745 0.0
C51 C 0.24634 0.64798 0.26415 0.0
C52 C 0.21367 0.6069 0.23189 0.0
C53 C 0.23728 0.6329 0.23338 0.0
C54 C 0.20675 0.61181 0.29161 0.0
C55 C 0.1985 0.59572 0.26108 0.0
C56 C 0.23051 0.63757 0.2931 0.0
C57 C 0.37403 0.76165 0.27605 0.0
C58 C 0.40795 0.79953 0.31045 0.0
C59 C 0.42327 0.74135 0.3058 0.0
C60 C 0.39534 0.73531 0.28478 0.0
C61 C 0.43039 0.77384 0.31788 0.0
C62 C 0.38016 0.79349 0.28988 0.0
C63 C 0.34767 0.75832 0.24999 0.0
O64 O 0.284 0.71618 0.17845 0.0
O65 O 0.25428 0.75217 0.20711 0.0
O66 O 0.3172 0.76667 0.25868 0.0
O67 O 0.34858 0.73224 0.22961 0.0
H68 H 0.32082 0.75898 0.14912 0.0
H69 H 0.32839 0.7961 0.10261 0.0
H70 H 0.22239 0.81626 0.10076 0.0
H71 H 0.2147 0.77809 0.1473 0.0
H72 H 0.20776 0.59519 0.20797 0.0
H73 H 0.24896 0.6407 0.2106 0.0
H74 H 0.19555 0.60391 0.31459 0.0
H75 H 0.23709 0.64891 0.31705 0.0
H76 H 0.41255 0.82479 0.3196 0.0
H77 H 0.44022 0.72112 0.31102 0.0
H78 H 0.3912 0.71045 0.27441 0.0
H79 H 0.3642 0.8142 0.28354 0.0
C80 C 0.99676 0.41103 0.99182 0.0
C81 C 0.0187 0.41856 0.96597 0.0
C82 C 0.01611 0.36106 0.94533 0.0
C83 C 0.0283 0.39391 0.9431 0.0
C84 C 0.99599 0.35283 0.97244 0.0
C85 C 0.9862 0.37768 0.99539 0.0
U86 U 0.9888 0.47047 0.06906 0.0
O87 O 0.97938 0.52439 0.07048 0.0
O88 O 0.94286 0.49007 0.09179 0.0
C89 C 0.94934 0.5208 0.08293 0.0
C90 C 0.98174 0.4387 1.01152 0.0
C91 C 0.92241 0.53721 0.06432 0.0
C92 C 0.89176 0.54555 1.01261 0.0
C93 C 0.91698 0.52954 0.03045 0.0
C94 C 0.87677 0.57687 0.06241 0.0
C95 C 0.87134 0.56944 0.02835 0.0
C96 C 0.90215 0.5609 0.08021 0.0
C97 C 0.04684 0.46132 0.14593 0.0
C98 C 0.05159 0.44721 0.20434 0.0
C99 C 0.08162 0.49521 0.18411 0.0
C100 C 0.0684 0.48878 0.15208 0.0
C101 C 0.07367 0.4742 0.21052 0.0
C102 C 0.03851 0.44079 0.1725 0.0
C103 C 0.03485 0.45205 0.11188 0.0
O104 O 0.96474 0.43089 0.03812 0.0
O105 O 1.00001 0.46593 0.01576 0.0
O106 O 0.04068 0.4733 0.08807 0.0
O107 O 1.00492 0.43824 0.10966 0.0
H108 H 0.02714 0.44394 0.96228 0.0
H109 H 0.04399 0.40103 0.92258 0.0
H110 H 0.98602 0.32779 0.97465 0.0
H111 H 0.96905 0.37103 0.01488 0.0
H112 H 0.88826 0.53909 0.98648 0.0
H113 H 0.93235 0.51123 0.01778 0.0
H114 H 0.86152 0.5951 0.07531 0.0
H115 H 0.90602 0.5671 0.10637 0.0
H116 H 0.04484 0.43046 0.22402 0.0
H117 H 0.09863 0.51613 0.18798 0.0
H118 H 0.07563 0.50493 0.13209 0.0
H119 H 0.02233 0.41923 0.16855 0.0
C120 C 0.74186 0.72571 0.15305 0.0
C121 C 0.72661 0.69714 0.13891 0.0
C122 C 0.76772 0.696 0.09464 0.0
C123 C 0.73939 0.68238 0.10995 0.0
C124 C 0.78293 0.72476 0.10896 0.0
C125 C 0.77008 0.73951 0.13794 0.0
U126 U 0.74146 0.7934 0.22147 0.0
O127 O 0.69993 0.82022 0.24458 0.0
O128 O 0.7313 0.78793 0.27516 0.0
C129 C 0.70406 0.80602 0.27352 0.0
C130 C 0.72812 0.74069 0.18358 0.0
C131 C 0.67336 0.79219 0.28853 0.0
C132 C 0.61401 0.77895 0.28362 0.0
C133 C 0.64487 0.78483 0.26878 0.0
C134 C 0.64007 0.78376 0.33823 0.0
C135 C 0.61107 0.77958 0.31845 0.0
C136 C 0.67099 0.79027 0.32334 0.0
C137 C 0.80313 0.86621 0.22026 0.0
C138 C 0.80156 0.90929 0.26341 0.0
C139 C 0.83881 0.91559 0.21677 0.0
C140 C 0.8274 0.88479 0.20354 0.0
C141 C 0.82601 0.92816 0.24695 0.0
C142 C 0.79024 0.87873 0.2502 0.0
C143 C 0.79037 0.83438 0.20606 0.0
O144 O 0.74784 0.74 0.20998 0.0
O145 O 0.71321 0.7695 0.17998 0.0
O146 O 0.76015 0.83577 0.19297 0.0
O147 O 0.79467 0.80812 0.22468 0.0
H148 H 0.70479 0.68619 0.1503 0.0
H149 H 0.72704 0.6603 0.09961 0.0
H150 H 0.80474 0.73591 0.09779 0.0
H151 H 0.78214 0.76163 0.14859 0.0
H152 H 0.59195 0.77601 0.26784 0.0
H153 H 0.64592 0.78574 0.24188 0.0
H154 H 0.63835 0.78493 0.36513 0.0
H155 H 0.69261 0.79583 0.33909 0.0
H156 H 0.79101 0.91808 0.28667 0.0
H157 H 0.85764 0.92941 0.20351 0.0
H158 H 0.83746 0.87552 0.18022 0.0
H159 H 0.77131 0.86488 0.26333 0.0
C160 C 0.98391 0.99054 0.40899 0.0
C161 C 0.99235 0.98832 0.37506 0.0
C162 C 0.93719 1.00872 0.35929 0.0
C163 C 0.96917 0.9975 0.35037 0.0
C164 C 0.92963 1.01237 0.39328 0.0
C165 C 0.95264 1.00334 0.41774 0.0
U166 U 0.06457 0.98514 0.46365 0.0
O167 O 0.06822 0.9794 0.51787 0.0
O168 O 0.08789 0.94046 0.48456 0.0
C169 C 0.08024 0.94906 0.51528 0.0
C170 C 1.00529 0.97693 0.4357 0.0
C171 C 0.06184 0.92367 0.5338 0.0
C172 C 1.00984 0.89486 0.54579 0.0
C173 C 0.02743 0.91885 0.52817 0.0
C174 C 0.0609 0.87993 0.5748 0.0
C175 C 0.02633 0.87504 0.5693 0.0
C176 C 0.07848 0.90411 0.5572 0.0
C177 C 0.14089 0.042 0.44948 0.0
C178 C 0.19803 0.05211 0.43191 0.0
C179 C 0.18026 0.07209 0.48614 0.0
C180 C 0.14834 0.05854 0.47995 0.0
C181 C 0.20539 0.06928 0.46205 0.0
C182 C 0.16611 0.03879 0.42567 0.0
C183 C 0.10681 0.02947 0.44122 0.0
O184 O 0.03158 0.95947 0.42686 0.0
O185 O 1.01091 0.99669 0.46173 0.0
O186 O 0.08309 0.03681 0.46251 0.0
O187 O 0.10473 0.99871 0.42928 0.0
H188 H 0.01632 0.97849 0.36753 0.0
H189 H 0.97569 0.99434 0.32441 0.0
H190 H 0.90535 0.0212 0.40111 0.0
H191 H 0.94545 1.00523 0.44364 0.0
H192 H 0.9833 0.89175 0.54077 0.0
H193 H 1.01418 0.93367 0.5101 0.0
H194 H 0.07438 0.86509 0.59267 0.0
H195 H 0.10507 0.90751 0.56182 0.0
H196 H 0.21673 0.04952 0.41276 0.0
H197 H 0.18508 0.0851 0.50963 0.0
H198 H 0.12945 0.06148 0.49887 0.0
H199 H 0.16098 0.02635 0.40192 0.0
C200 C 0.22215 0.80622 0.86002 0.0
C201 C 0.25209 0.79351 0.87277 0.0
C202 C 0.24748 0.82935 0.92232 0.0
C203 C 0.26466 0.80499 0.90354 0.0
C204 C 0.21741 0.84205 0.90941 0.0
C205 C 0.20485 0.83053 0.87846 0.0
U206 U 0.22307 0.7431 0.78786 0.0
O207 O 0.18095 0.71553 0.76427 0.0
O208 O 0.212 0.74867 0.7345 0.0
C209 C 0.18488 0.72996 0.73549 0.0
C210 C 0.20824 0.79314 0.82825 0.0
C211 C 0.15453 0.74469 0.72119 0.0
C212 C 0.10984 0.74289 0.67968 0.0
C213 C 0.13887 0.72932 0.69345 0.0
C214 C 0.11186 0.78753 0.72131 0.0
C215 C 0.09596 0.77215 0.69347 0.0
C216 C 0.1409 0.77388 0.73507 0.0
C217 C 0.28919 0.67344 0.78817 0.0
C218 C 0.28387 0.61389 0.77652 0.0
C219 C 0.33891 0.63948 0.77965 0.0
C220 C 0.32414 0.67065 0.78576 0.0
C221 C 0.31886 0.61065 0.77643 0.0
C222 C 0.26916 0.64497 0.782 0.0
C223 C 0.27436 0.70478 0.80121 0.0
O224 O 0.22749 0.79632 0.80214 0.0
O225 O 0.19435 0.76345 0.82984 0.0
O226 O 0.24495 0.70177 0.81521 0.0
O227 O 0.27682 0.7313 0.78268 0.0
H228 H 0.26564 0.77453 0.85899 0.0
H229 H 0.28788 0.79457 0.91262 0.0
H230 H 0.2036 0.86081 0.92317 0.0
H231 H 0.18153 0.84043 0.86903 0.0
H232 H 0.09826 0.73039 0.65828 0.0
H233 H 0.14908 0.70674 0.68246 0.0
H234 H 0.10184 0.81004 0.73256 0.0
H235 H 0.15269 0.78604 0.75657 0.0
H236 H 0.26785 0.59202 0.77407 0.0
H237 H 0.36593 0.6376 0.78008 0.0
H238 H 0.3401 0.69225 0.79043 0.0
H239 H 0.24215 0.6463 0.78331 0.0
C240 C 0.94622 0.64392 0.5475 0.0
C241 C 0.92138 0.66837 0.54593 0.0
C242 C 0.95865 0.70896 0.57342 0.0
C243 C 0.92755 0.70058 0.5586 0.0
C244 C 0.98366 0.68454 0.57468 0.0
C245 C 0.97757 0.65237 0.56175 0.0
U246 U 0.96355 0.56865 0.49035 0.0
O247 O 0.96347 0.515 0.50073 0.0
O248 O 0.92876 0.53477 0.46322 0.0
C249 C 0.93843 0.50864 0.47999 0.0
C250 C 0.93857 0.60977 0.53492 0.0
C251 C 0.91224 0.48584 0.49186 0.0
C252 C 0.85396 0.47116 0.50185 0.0
C253 C 0.87842 0.49503 0.49416 0.0
C254 C 0.89707 0.42929 0.50613 0.0
C255 C 0.86302 0.43783 0.50713 0.0
C256 C 0.92131 0.453 0.49854 0.0
C257 C 0.03427 0.56766 0.42967 0.0
C258 C 0.0455 0.51583 0.39973 0.0
C259 C 0.07531 0.56636 0.38558 0.0
C260 C 0.05795 0.58402 0.41029 0.0
C261 C 0.06922 0.53205 0.38 0.0
C262 C 0.02815 0.53349 0.42424 0.0
C263 C 0.01545 0.58606 0.4552 0.0
O264 O 0.92715 0.60736 0.5041 0.0
O265 O 0.96039 0.58657 0.54224 0.0
O266 O 0.01802 0.57415 0.48535 0.0
O267 O 0.98452 0.59322 0.44667 0.0
H268 H 0.89702 0.66245 0.53515 0.0
H269 H 0.90768 0.71874 0.55728 0.0
H270 H 1.00791 0.69018 0.58585 0.0
H271 H 0.99733 0.63412 0.56323 0.0
H272 H 0.82796 0.47852 0.50246 0.0
H273 H 0.87078 0.5203 0.48915 0.0
H274 H 0.90505 0.40396 0.51033 0.0
H275 H 0.9472 0.44535 0.49689 0.0
H276 H 0.04007 0.48949 0.39608 0.0
H277 H 0.09338 0.57961 0.37082 0.0
H278 H 0.06289 0.61043 0.41414 0.0
H279 H 1.00979 0.52049 0.43891 0.0
C280 C 0.80261 0.76889 0.8992 0.0
C281 C 0.81977 0.74175 0.88513 0.0
C282 C 0.80621 0.70803 0.93297 0.0
C283 C 0.82146 0.71155 0.90181 0.0
C284 C 0.79045 0.73584 0.94765 0.0
C285 C 0.78856 0.76597 0.9308 0.0
U286 U 0.82511 0.82726 0.82886 0.0
O287 O 0.79261 0.8496 0.79118 0.0
O288 O 0.82122 0.882 0.82606 0.0
C289 C 0.79791 0.88014 0.80268 0.0
C290 C 0.79711 0.79934 0.88018 0.0
C291 C 0.76748 0.89962 0.80879 0.0
C292 C 0.71003 0.90294 0.82762 0.0
C293 C 0.74009 0.88551 0.82507 0.0
C294 C 0.73497 0.94951 0.79921 0.0
C295 C 0.70692 0.9349 0.81415 0.0
C296 C 0.76495 0.93193 0.79645 0.0
C297 C 0.89807 0.80699 0.77189 0.0
C298 C 0.90182 0.82817 0.71585 0.0
C299 C 0.94689 0.79505 0.73833 0.0
C300 C 0.92956 0.79234 0.76825 0.0
C301 C 0.93276 0.81223 0.71146 0.0
C302 C 0.88469 0.82566 0.74583 0.0
C303 C 0.87825 0.80053 0.80173 0.0
O304 O 0.82032 0.82268 0.88327 0.0
O305 O 0.78688 0.79424 0.84926 0.0
O306 O 0.84758 0.78983 0.79563 0.0
O307 O 0.88005 0.82335 0.82569 0.0
H308 H 0.83094 0.7436 0.86079 0.0
H309 H 0.83398 0.69073 0.88988 0.0
H310 H 0.77848 0.73401 0.9716 0.0
H311 H 0.77524 0.78669 0.94202 0.0
H312 H 0.68901 0.89101 0.83943 0.0
H313 H 0.74164 0.86062 0.83494 0.0
H314 H 0.73346 0.97405 0.78856 0.0
H315 H 0.78587 0.94321 0.78385 0.0
H316 H 0.89031 0.84176 0.69576 0.0
H317 H 0.97064 0.78248 0.7358 0.0
H318 H 0.94026 0.77786 0.78815 0.0
H319 H 0.86044 0.83731 0.74826 0.0
C320 C 0.3028 0.26952 0.40054 0.0
C321 C 0.32072 0.24277 0.38673 0.0
C322 C 0.30659 0.20855 0.434 0.0
C323 C 0.3225 0.2125 0.40325 0.0
C324 C 0.29001 0.23599 0.44846 0.0
C325 C 0.28802 0.26619 0.43175 0.0
U326 U 0.32614 0.32726 0.33034 0.0
O327 O 0.29436 0.34931 0.29191 0.0
O328 O 0.32261 0.38196 0.32685 0.0
C329 C 0.29965 0.37993 0.30314 0.0
C330 C 0.29738 0.29997 0.38154 0.0
C331 C 0.26922 0.39952 0.30864 0.0
C332 C 0.2117 0.40315 0.3271 0.0
C333 C 0.24175 0.3857 0.32503 0.0
C334 C 0.23677 0.44918 0.29794 0.0
C335 C 0.20867 0.43485 0.31305 0.0
C336 C 0.26676 0.43156 0.29565 0.0
C337 C 0.39902 0.30653 0.27413 0.0
C338 C 0.4026 0.32885 0.21856 0.0
C339 C 0.44711 0.29417 0.23975 0.0
C340 C 0.43008 0.2912 0.2698 0.0
C341 C 0.43308 0.31229 0.21347 0.0
C342 C 0.38579 0.32609 0.24868 0.0
C343 C 0.37936 0.30001 0.304 0.0
O344 O 0.32066 0.32323 0.38472 0.0
O345 O 0.28736 0.29478 0.35057 0.0
O346 O 0.34872 0.28925 0.29787 0.0
O347 O 0.38107 0.32299 0.32782 0.0
H348 H 0.33246 0.24496 0.36269 0.0
H349 H 0.33565 0.19197 0.39152 0.0
H350 H 0.27752 0.23381 0.4721 0.0
H351 H 0.27412 0.28662 0.44276 0.0
H352 H 0.19062 0.39147 0.33907 0.0
H353 H 0.24327 0.36101 0.33538 0.0
H354 H 0.2353 0.47352 0.28686 0.0
H355 H 0.28775 0.4426 0.28295 0.0
H356 H 0.39121 0.34318 0.19894 0.0
H357 H 0.47053 0.28112 0.23664 0.0
H358 H 0.44065 0.27603 0.28924 0.0
H359 H 0.36187 0.33826 0.25167 0.0
C360 C 0.49748 0.9153 0.48934 0.0
C361 C 0.51683 0.92364 0.46178 0.0
C362 C 0.51616 0.86579 0.44206 0.0
C363 C 0.52613 0.89923 0.43852 0.0
C364 C 0.49844 0.85697 0.47062 0.0
C365 C 0.48901 0.88155 0.49398 0.0
U366 U 0.49033 0.97226 0.56858 0.0
O367 O 0.48114 0.0262 0.57161 0.0
O368 O 0.44452 0.99136 0.59194 0.0
C369 C 0.45103 0.0223 0.58381 0.0
C370 C 0.48296 0.94247 0.51006 0.0
C371 C 0.42419 0.0389 0.56527 0.0
C372 C 0.39376 0.04739 0.51351 0.0
C373 C 0.41905 0.03153 0.53131 0.0
C374 C 0.3781 0.07803 0.56352 0.0
C375 C 0.37294 0.07085 0.52937 0.0
C376 C 0.40359 0.06219 0.5813 0.0
C377 C 0.54786 0.9609 0.64521 0.0
C378 C 0.5532 0.9451 0.70311 0.0
C379 C 0.58037 0.9955 0.68469 0.0
C380 C 0.56772 0.98939 0.65241 0.0
C381 C 0.5735 0.97321 0.71034 0.0
C382 C 0.54071 0.93897 0.67097 0.0
C383 C 0.53612 0.95236 0.61092 0.0
O384 O 0.4659 0.93396 0.5364 0.0
O385 O 0.50168 0.96926 0.51518 0.0
O386 O 0.54218 0.97413 0.58766 0.0
O387 O 0.50613 0.93873 0.60825 0.0
H388 H 0.52353 0.94938 0.4573 0.0
H389 H 0.53998 0.9069 0.41692 0.0
H390 H 0.49028 0.83146 0.47399 0.0
H391 H 0.47389 0.87426 0.51484 0.0
H392 H 0.39047 0.04113 0.48731 0.0
H393 H 0.43467 1.0135 0.51856 0.0
H394 H 0.36253 0.09593 0.57649 0.0
H395 H 0.40722 0.06812 0.60754 0.0
H396 H 0.54737 0.92732 0.72216 0.0
H397 H 0.596 1.01733 0.68938 0.0
H398 H 0.57395 1.00669 0.63306 0.0
H399 H 0.52583 0.91664 0.66616 0.0
C400 C 0.24108 0.22905 0.65104 0.0
C401 C 0.22608 0.19996 0.63771 0.0
C402 C 0.26784 0.19733 0.5941 0.0
C403 C 0.23931 0.18422 0.60948 0.0
C404 C 0.28287 0.22652 0.60768 0.0
C405 C 0.26957 0.24227 0.63594 0.0
U406 U 0.23985 0.29844 0.71785 0.0
O407 O 0.19801 0.3269 0.73829 0.0
O408 O 0.22707 0.29469 0.77111 0.0
C409 C 0.20036 0.31332 0.76772 0.0
C410 C 0.22663 0.24526 0.6806 0.0
C411 C 0.16869 0.30066 0.78186 0.0
C412 C 0.10824 0.29379 0.77777 0.0
C413 C 0.13896 0.29984 0.76277 0.0
C414 C 0.13634 0.28611 0.83073 0.0
C415 C 0.10648 0.28792 0.81206 0.0
C416 C 0.1672 0.29273 0.81577 0.0
C417 C 0.30323 0.3695 0.71882 0.0
C418 C 0.29991 0.41329 0.76116 0.0
C419 C 0.34076 0.41761 0.71735 0.0
C420 C 0.32931 0.38702 0.7037 0.0
C421 C 0.3262 0.43106 0.74633 0.0
C422 C 0.28855 0.38291 0.74754 0.0
C423 C 0.29059 0.3378 0.70424 0.0
O424 O 0.24519 0.24463 0.70781 0.0
O425 O 0.21284 0.27441 0.67566 0.0
O426 O 0.26117 0.33967 0.68951 0.0
O427 O 0.29327 0.3117 0.72337 0.0
H428 H 0.20406 0.18945 0.64911 0.0
H429 H 0.22711 0.16181 0.5997 0.0
H430 H 0.30482 0.23731 0.59644 0.0
H431 H 0.28144 0.26477 0.64597 0.0
H432 H 0.0856 0.29521 0.76276 0.0
H433 H 0.13911 0.3055 0.73652 0.0
H434 H 0.13567 0.28197 0.85728 0.0
H435 H 0.18973 0.29324 0.83106 0.0
H436 H 0.288 0.42279 0.78346 0.0
H437 H 0.36104 0.43057 0.70535 0.0
H438 H 0.34078 0.37707 0.68135 0.0
H439 H 0.26822 0.36986 0.75941 0.0
C440 C 0.76284 0.27437 0.65776 0.0
C441 C 0.79536 0.28325 0.64842 0.0
C442 C 0.77303 0.31841 0.6048 0.0
C443 C 0.80037 0.30479 0.62207 0.0
C444 C 0.74048 0.31136 0.61559 0.0
C445 C 0.73543 0.28926 0.64178 0.0
U446 U 0.78996 0.22711 0.73517 0.0
O447 O 0.7597 0.2057 0.77521 0.0
O448 O 0.79149 0.17342 0.74429 0.0
C449 C 0.76847 0.17502 0.76736 0.0
C450 C 0.75743 0.24809 0.68241 0.0
C451 C 0.74126 0.14999 0.76451 0.0
C452 C 0.7085 0.10893 0.7323 0.0
C453 C 0.73188 0.13516 0.73372 0.0
C454 C 0.70248 0.11309 0.79217 0.0
C455 C 0.69398 0.09721 0.76161 0.0
C456 C 0.72595 0.13911 0.79357 0.0
C457 C 0.87079 0.259 0.78177 0.0
C458 C 0.9013 0.29182 0.82381 0.0
C459 C 0.92356 0.23883 0.80502 0.0
C460 C 0.89561 0.23427 0.7837 0.0
C461 C 0.9272 0.26834 0.82425 0.0
C462 C 0.87348 0.28719 0.80291 0.0
C463 C 0.8446 0.25878 0.75525 0.0
O464 O 0.77896 0.22346 0.68154 0.0
O465 O 0.75066 0.25836 0.71286 0.0
O466 O 0.8144 0.26765 0.76433 0.0
O467 O 0.8446 0.2343 0.73292 0.0
H468 H 0.81693 0.27249 0.66063 0.0
H469 H 0.82578 0.30998 0.61447 0.0
H470 H 0.71899 0.32134 0.6026 0.0
H471 H 0.71012 0.28286 0.64875 0.0
H472 H 0.70239 0.09739 0.70835 0.0
H473 H 0.74321 0.14324 0.71087 0.0
H474 H 0.69175 0.10481 0.81524 0.0
H475 H 0.73282 0.15019 0.81756 0.0
H476 H 0.90345 0.31481 0.83838 0.0
H477 H 0.94335 0.22054 0.8046 0.0
H478 H 0.89434 0.21227 0.76762 0.0
H479 H 0.85495 0.30673 0.8019 0.0
C480 C 0.50075 0.53779 0.62997 0.0
C481 C 0.5059 0.5286 0.66315 0.0
C482 C 0.44743 0.53957 0.67595 0.0
C483 C 0.47962 0.52951 0.68589 0.0
C484 C 0.44248 0.54948 0.64279 0.0
C485 C 0.46888 0.54861 0.62002 0.0
U486 U 0.55495 0.5622 0.55394 0.0
O487 O 0.55061 0.61686 0.55386 0.0
O488 O 0.51866 0.58627 0.52035 0.0
C489 C 0.52851 0.61654 0.52933 0.0
C490 C 0.52858 0.53388 0.6062 0.0
C491 C 0.53404 0.64045 0.50217 0.0
C492 C 0.51027 0.67719 0.46055 0.0
C493 C 0.50632 0.65255 0.48448 0.0
C494 C 0.57001 0.67773 0.47105 0.0
C495 C 0.54212 0.69048 0.45383 0.0
C496 C 0.56603 0.65297 0.49491 0.0
C497 C 0.63091 0.50706 0.53088 0.0
C498 C 0.68653 0.48338 0.52486 0.0
C499 C 0.64068 0.44848 0.54258 0.0
C500 C 0.61903 0.47582 0.54099 0.0
C501 C 0.67466 0.45182 0.53417 0.0
C502 C 0.66488 0.51061 0.5232 0.0
C503 C 0.60835 0.53583 0.52647 0.0
O504 O 0.55278 0.55623 0.60839 0.0
O505 O 0.52057 0.52545 0.57528 0.0
O506 O 0.6099 0.55945 0.54963 0.0
O507 O 0.57759 0.52898 0.51637 0.0
H508 H 0.53024 0.52009 0.67139 0.0
H509 H 0.48446 0.52178 0.71115 0.0
H510 H 0.41809 0.55748 0.63425 0.0
H511 H 0.46423 0.55588 0.59457 0.0
H512 H 0.48823 0.6863 0.44782 0.0
H513 H 0.48138 0.64339 0.48966 0.0
H514 H 0.59494 0.68722 0.46648 0.0
H515 H 0.58791 0.64409 0.50808 0.0
H516 H 0.71249 0.487 0.51828 0.0
H517 H 0.63066 0.42462 0.54996 0.0
H518 H 0.59294 0.47241 0.54717 0.0
H519 H 0.67462 0.53444 0.51532 0.0
C520 C 0.48007 0.49127 0.91508 0.0
C521 C 0.4903 0.49352 0.8818 0.0
C522 C 0.43362 0.50832 0.86473 0.0
C523 C 0.46724 0.50205 0.85681 0.0
C524 C 0.424 0.50726 0.89827 0.0
C525 C 0.44693 0.49879 0.92307 0.0
U526 U 0.56221 0.48794 0.96766 0.0
O527 O 0.5674 0.48283 0.02187 0.0
O528 O 0.58653 0.44373 0.98841 0.0
C529 C 0.57942 0.45248 0.01922 0.0
C530 C 0.50217 0.47879 0.9417 0.0
C531 C 0.56123 0.42714 0.03795 0.0
C532 C 0.50929 0.39838 0.05015 0.0
C533 C 0.52671 0.4227 0.03286 0.0
C534 C 0.56075 0.38236 0.07782 0.0
C535 C 0.52608 0.3778 0.07277 0.0
C536 C 0.57817 0.4069 0.06054 0.0
C537 C 0.63815 0.54412 0.95073 0.0
C538 C 0.67871 0.57327 0.98682 0.0
C539 C 0.69498 0.55377 0.93194 0.0
C540 C 0.66275 0.54092 0.92628 0.0
C541 C 0.70325 0.57042 0.96214 0.0
C542 C 0.64651 0.56019 0.98122 0.0
C543 C 0.60382 0.53177 0.94331 0.0
O544 O 0.5283 0.46125 0.93257 0.0
O545 O 0.50845 0.49949 0.96685 0.0
O546 O 0.60129 0.50088 0.93184 0.0
O547 O 0.58066 0.53954 0.96508 0.0
H548 H 0.5158 0.4879 0.87497 0.0
H549 H 0.47547 0.50269 0.83124 0.0
H550 H 0.39842 0.51213 0.9054 0.0
H551 H 0.43846 0.49718 0.94852 0.0
H552 H 0.48266 0.39555 0.0455 0.0
H553 H 0.51323 0.438 0.01536 0.0
H554 H 0.57444 0.36693 0.09501 0.0
H555 H 0.60487 0.40996 0.06467 0.0
H556 H 0.68424 0.58588 1.01038 0.0
H557 H 0.7132 0.55118 0.91234 0.0
H558 H 0.65691 0.5288 0.90252 0.0
H559 H 0.62814 0.56306 1.00065 0.0
C560 C 0.71979 0.30548 0.36622 0.0
C561 C 0.74818 0.29035 0.37975 0.0
C562 C 0.74693 0.32851 0.42782 0.0
C563 C 0.76164 0.30176 0.41019 0.0
C564 C 0.71831 0.34353 0.41419 0.0
C565 C 0.70485 0.33205 0.3836 0.0
U566 U 0.71804 0.24151 0.29513 0.0
O567 O 0.67521 0.21527 0.27138 0.0
O568 O 0.70807 0.24654 0.2415 0.0
C569 C 0.68031 0.22879 0.24234 0.0
C570 C 0.70518 0.29282 0.33459 0.0
C571 C 0.65083 0.24404 0.22687 0.0
C572 C 0.60865 0.24363 0.18284 0.0
C573 C 0.63697 0.22972 0.19769 0.0
C574 C 0.60789 0.28656 0.22621 0.0
C575 C 0.59372 0.27218 0.19698 0.0
C576 C 0.63622 0.27259 0.24104 0.0
C577 C 0.78122 0.16923 0.29738 0.0
C578 C 0.77624 0.10898 0.29065 0.0
C579 C 0.82998 0.13582 0.28302 0.0
C580 C 0.81536 0.16696 0.28957 0.0
C581 C 0.81073 0.10646 0.28478 0.0
C582 C 0.76159 0.13997 0.29664 0.0
C583 C 0.76736 0.20128 0.30984 0.0
O584 O 0.72462 0.29475 0.30849 0.0
O585 O 0.68979 0.26387 0.33646 0.0
O586 O 0.73766 0.19973 0.32345 0.0
O587 O 0.7713 0.22749 0.2911 0.0
H588 H 0.7599 0.26964 0.36678 0.0
H589 H 0.78367 0.28953 0.41985 0.0
H590 H 0.7064 0.36417 0.42704 0.0
H591 H 0.68275 0.34387 0.37355 0.0
H592 H 0.59841 0.23192 0.16037 0.0
H593 H 0.64798 0.20766 0.18644 0.0
H594 H 0.59702 0.30851 0.23777 0.0
H595 H 0.64666 0.28394 0.26363 0.0
H596 H 0.76076 0.08675 0.29196 0.0
H597 H 0.85666 0.13457 0.27881 0.0
H598 H 0.83106 0.18911 0.29005 0.0
H599 H 0.73517 0.14072 0.30223 0.0
C600 C 0.44357 0.14749 0.04611 0.0
C601 C 0.41956 0.17272 0.04445 0.0
C602 C 0.45757 0.21182 0.07308 0.0
C603 C 0.4265 0.20457 0.05763 0.0
C604 C 0.48183 0.18665 0.07431 0.0
C605 C 0.47495 0.15481 0.06088 0.0
U606 U 0.4575 0.07117 0.98885 0.0
O607 O 0.4554 1.01776 0.99967 0.0
O608 O 0.42062 0.03851 0.96285 0.0
C609 C 0.42939 1.01227 0.97991 0.0
C610 C 0.43477 0.11362 0.03347 0.0
C611 C 0.40252 0.99089 0.99318 0.0
C612 C 0.34386 0.97386 0.99643 0.0
C613 C 0.36828 0.99761 0.98819 0.0
C614 C 0.38751 0.93735 0.01601 0.0
C615 C 0.35345 0.94301 1.00934 0.0
C616 C 0.41169 0.96093 1.00799 0.0
C617 C 0.52881 0.06751 0.92795 0.0
C618 C 0.54062 1.01552 0.89846 0.0
C619 C 0.57104 0.06588 0.88496 0.0
C620 C 0.55309 0.08368 0.90912 0.0
C621 C 0.56501 0.03156 0.87936 0.0
C622 C 0.52265 0.03335 0.92245 0.0
C623 C 0.50997 0.08619 0.95331 0.0
O624 O 0.42306 0.1116 1.00274 0.0
O625 O 0.45578 0.08965 0.04065 0.0
O626 O 0.51208 0.07432 0.9835 0.0
O627 O 0.47927 0.09408 0.94461 0.0
H628 H 0.39516 0.16766 0.03331 0.0
H629 H 0.40719 0.22331 0.05628 0.0
H630 H 0.50603 0.19141 0.08596 0.0
H631 H 0.49406 0.13591 0.06248 0.0
H632 H 0.3178 0.9788 0.99087 0.0
H633 H 0.36042 0.02049 0.97671 0.0
H634 H 0.39571 0.91393 0.02618 0.0
H635 H 0.43782 0.955 1.01199 0.0
H636 H 0.5352 0.98919 0.89476 0.0
H637 H 0.5896 0.07902 0.87069 0.0
H638 H 0.55814 0.11006 0.91306 0.0
H639 H 0.50389 0.02048 0.93674 0.0
Zn640 Zn 0.31009 0.84658 1.0075 0.0
Zn641 Zn 0.25838 0.88497 0.01914 0.0
O642 O 0.26092 0.85162 0.05899 0.0
O643 O 0.30515 0.82085 0.04881 0.0
O644 O 0.21751 0.91312 0.03152 0.0
O645 O 0.34087 0.88567 1.0082 0.0
O646 O 0.29817 0.91925 0.01591 0.0
C647 C 0.28083 0.82828 0.06725 0.0
C648 C 0.26152 0.84126 0.9549 0.0
O649 O 0.24612 0.86253 0.97313 0.0
O650 O 0.28953 0.83018 0.9644 0.0
C651 C 0.20711 0.93905 0.01688 0.0
O652 O 0.22336 0.9498 0.99092 0.0
C653 C 0.32953 0.91484 1.01185 0.0
Zn654 Zn 0.1049 0.45806 0.31206 0.0
Zn655 Zn 0.13561 0.51472 0.29377 0.0
O656 O 0.10665 0.52819 0.33399 0.0
O657 O 0.08167 0.48218 0.34969 0.0
O658 O 0.1616 0.55733 0.28679 0.0
O659 O 0.14958 0.43578 0.31946 0.0
O660 O 0.17372 0.48155 0.30194 0.0
C661 C 0.08685 0.51322 0.35344 0.0
C662 C 0.08931 0.47885 0.24402 0.0
O663 O 0.10882 0.50354 0.25065 0.0
O664 O 0.08396 0.45707 0.26581 0.0
C665 C 0.1757 0.56633 0.26021 0.0
O666 O 0.17229 0.54771 0.23306 0.0
C667 C 0.17585 0.45175 0.31211 0.0
Zn668 Zn 0.80513 0.60315 0.95138 0.0
Zn669 Zn 0.78336 0.63276 1.00838 0.0
O670 O 0.82433 0.60595 0.02387 0.0
O671 O 0.84155 0.58055 0.97816 0.0
O672 O 0.76688 0.65478 0.05072 0.0
O673 O 0.81287 0.64909 0.93227 0.0
O674 O 0.79285 0.67226 0.97794 0.0
C675 C 0.84453 0.58621 1.00922 0.0
C676 C 0.73688 0.58574 0.96725 0.0
O677 O 0.74289 0.60443 0.99272 0.0
O678 O 0.75929 0.58116 0.94561 0.0
C679 C 0.78117 0.68035 0.06388 0.0
O680 O 0.80783 0.69283 0.04974 0.0
C681 C 0.8046 0.67497 0.94876 0.0
Zn682 Zn 0.84234 1.01165 0.31081 0.0
Zn683 Zn 0.88329 0.02396 0.26332 0.0
O684 O 0.85321 0.0667 0.2694 0.0
O685 O 0.81461 0.05193 0.3049 0.0
O686 O 0.91244 0.03746 0.22389 0.0
O687 O 0.88023 1.0123 0.34381 0.0
O688 O 0.91643 1.01674 0.30323 0.0
C689 C 0.82666 0.0733 0.28566 0.0
C690 C 0.83798 0.96025 0.26222 0.0
O691 O 0.85905 0.97918 0.24778 0.0
O692 O 0.82712 0.96857 0.29059 0.0
C693 C 0.93293 0.01933 0.20767 0.0
O694 O 0.93717 0.98822 0.21631 0.0
C695 C 0.91023 1.01344 0.33415 0.0
Zn696 Zn 0.30675 0.10382 0.4522 0.0
Zn697 Zn 0.28412 0.13285 0.50906 0.0
O698 O 0.32536 0.10663 0.52486 0.0
O699 O 0.3433 0.0818 0.47912 0.0
O700 O 0.26725 0.15509 0.55112 0.0
O701 O 0.31404 0.14974 0.43307 0.0
O702 O 0.29326 0.1724 0.47864 0.0
C703 C 0.34598 0.08733 0.51022 0.0
C704 C 0.23867 0.0852 0.46761 0.0
O705 O 0.24411 0.10392 0.49319 0.0
O706 O 0.26136 0.08112 0.44616 0.0
C707 C 0.28157 0.18084 0.5639 0.0
O708 O 0.30834 0.19296 0.54966 0.0
C709 C 0.30524 0.17541 0.44959 0.0
Zn710 Zn 0.34217 0.51483 0.81033 0.0
Zn711 Zn 0.3876 0.52373 0.76479 0.0
O712 O 0.36059 0.5687 0.76521 0.0
O713 O 0.31945 0.55733 0.79933 0.0
O714 O 0.42374 0.52911 0.72948 0.0
O715 O 0.37734 0.5136 0.84642 0.0
O716 O 0.41588 0.51671 0.80797 0.0
C717 C 0.33348 0.5771 0.77966 0.0
C718 C 0.33839 0.46284 0.76204 0.0
O719 O 0.36156 0.48031 0.74902 0.0
O720 O 0.32584 0.47224 0.78937 0.0
C721 C 0.41912 0.53881 0.69976 0.0
O722 O 0.3888 0.54691 0.69002 0.0
C723 C 0.40788 0.51372 0.83845 0.0
Zn724 Zn 0.81165 0.34574 0.51149 0.0
Zn725 Zn 0.76317 0.38934 0.52075 0.0
O726 O 0.76049 0.35955 0.56331 0.0
O727 O 0.80323 0.32589 0.55567 0.0
O728 O 0.72797 0.42588 0.52612 0.0
O729 O 0.84652 0.38114 0.50819 0.0
O730 O 0.80683 0.418 0.51627 0.0
C731 C 0.77916 0.33587 0.57331 0.0
C732 C 0.76217 0.34077 0.45973 0.0
O733 O 0.74915 0.3647 0.47649 0.0
O734 O 0.789 0.32765 0.46993 0.0
C735 C 0.69737 0.42249 0.53405 0.0
O736 O 0.6858 0.39263 0.54065 0.0
C737 C 0.83756 0.41119 0.51125 0.0
Zn738 Zn 0.60288 0.95743 0.81258 0.0
Zn739 Zn 0.63342 1.0144 0.79462 0.0
O740 O 0.6036 0.02763 0.8343 0.0
O741 O 0.57855 0.98154 0.84967 0.0
O742 O 0.65903 0.0573 0.78773 0.0
O743 O 0.64779 0.93562 0.82066 0.0
O744 O 0.67172 0.98149 0.80314 0.0
C745 C 0.58343 1.01264 0.85338 0.0
C746 C 0.58836 0.97796 0.74417 0.0
O747 O 0.60736 1.00292 0.75122 0.0
O748 O 0.58289 0.95607 0.76583 0.0
C749 C 0.67162 0.06746 0.76082 0.0
O750 O 0.667 0.04982 0.73319 0.0
C751 C 0.674 0.95172 0.81339 0.0
Zn752 Zn 0.01587 0.31917 0.8495 0.0
Zn753 Zn 0.02306 0.26811 0.88288 0.0
O754 O 0.06715 0.27311 0.85467 0.0
O755 O 0.05259 0.31019 0.8178 0.0
O756 O 0.03243 0.22549 0.90909 0.0
O757 O 0.02384 0.35009 0.88819 0.0
O758 O 0.01711 0.30612 0.91925 0.0
C759 C 0.07362 0.28958 0.82855 0.0
C760 C 0.95964 0.27835 0.83973 0.0
O761 O 0.97859 0.25794 0.855 0.0
O762 O 0.96908 0.30819 0.83628 0.0
C763 C 0.01968 0.21737 0.93677 0.0
O764 O 0.99763 0.23718 0.95071 0.0
C765 C 0.02024 0.33773 0.91661 0.0
Zn766 Zn 0.52037 0.82073 0.34746 0.0
Zn767 Zn 0.52153 0.77002 0.38357 0.0
O768 O 0.56801 0.76884 0.35879 0.0
O769 O 0.55953 0.80672 0.32076 0.0
O770 O 0.52092 0.7295 0.41414 0.0
O771 O 0.52623 0.85313 0.3854 0.0
O772 O 0.51664 0.81036 0.41732 0.0
C773 C 0.57764 0.7843 0.33299 0.0
C774 C 0.46256 0.78274 0.3347 0.0
O775 O 0.47864 0.76231 0.35285 0.0
O776 O 0.47448 0.81152 0.3301 0.0
C777 C 0.54612 0.71824 0.42998 0.0
O778 O 0.57549 0.73254 0.42628 0.0
C779 C 0.52082 0.84175 0.41396 0.0
Zn780 Zn 0.94968 0.8109 0.6065 0.0
Zn781 Zn 1.00736 0.78892 0.63407 0.0
O782 O 0.02259 0.82923 0.60664 0.0
O783 O 0.9761 0.84645 0.58287 0.0
O784 O 0.05031 0.77187 0.65438 0.0
O785 O 0.93159 0.81938 0.65287 0.0
O786 O 0.97765 0.79882 0.67464 0.0
C787 C 1.00745 0.84915 0.58733 0.0
C788 C 0.96443 0.74261 0.58849 0.0
O789 O 0.99057 0.74855 0.60619 0.0
O790 O 0.94271 0.76511 0.58474 0.0
C791 C 0.06497 0.78633 0.67905 0.0
O792 O 0.05207 0.8137 0.69182 0.0
C793 C 0.94847 0.81093 0.6782 0.0
Zn794 Zn 0.44953 0.31303 0.10871 0.0
Zn795 Zn 0.50715 0.29005 0.13535 0.0
O796 O 0.52254 0.33094 0.10884 0.0
O797 O 0.47593 0.34902 0.08598 0.0
O798 O 0.54986 0.27273 0.15589 0.0
O799 O 0.43143 0.32066 0.1551 0.0
O800 O 0.47745 0.29924 0.17602 0.0
C801 C 0.50732 0.35146 0.09025 0.0
C802 C 0.46392 0.24503 0.08892 0.0
O803 O 0.49021 0.25026 0.10661 0.0
O804 O 0.4424 0.26784 0.0859 0.0
C805 C 0.56328 0.28651 0.18161 0.0
O806 O 0.54937 0.31316 0.19484 0.0
C807 C 0.44842 0.31149 0.18007 0.0
loop_
_geom_bond_atom_site_label_1
_geom_bond_atom_site_label_2
_geom_bond_distance
_geom_bond_site_symmetry_2
_ccdc_geom_bond_type
C0 C1 1.264 1_545 S
C0 C5 1.479 . S
C0 C10 1.465 . S
C1 C0 1.264 1_565 S
C1 C3 1.339 . S
C1 H28 0.931 . S
C2 C3 1.395 1_545 S
C2 C4 1.320 . S
C3 C1 1.339 . S
C3 C2 1.395 1_565 S
C3 H29 0.929 . S
C4 C2 1.320 . S
C4 C5 1.405 . S
C4 H30 0.930 . S
C5 C0 1.479 . S
C5 C4 1.405 . S
C5 H31 0.931 . S
U6 O7 2.454 . S
U6 O8 2.458 1_554 S
U6 C9 2.984 1_554 S
U6 C10 2.847 1_455 S
U6 C23 2.882 1_545 S
U6 O24 2.441 1_455 S
U6 O25 2.420 . S
U6 O26 2.455 1_554 S
U6 O27 2.449 1_545 S
O7 U6 2.454 . S
O7 C9 1.353 1_554 S
O8 U6 2.458 1_556 S
O8 C9 1.286 . S
C9 U6 2.984 1_556 S
C9 O7 1.353 1_556 S
C9 O8 1.286 . S
C9 C11 1.363 . S
C10 C0 1.465 . S
C10 U6 2.847 1_655 S
C10 O24 1.249 . S
C10 O25 1.202 1_655 S
C11 C9 1.363 . S
C11 C13 1.408 1_455 S
C11 C16 1.342 . S
C12 C13 1.310 . S
C12 C15 1.461 1_655 S
C12 H32 0.932 . S
C13 C11 1.408 1_655 S
C13 C12 1.310 . S
C13 H33 0.930 . S
C14 C15 1.474 . S
C14 C16 1.285 . S
C14 H34 0.929 . S
C15 C12 1.461 1_455 S
C15 C14 1.474 . S
C16 C11 1.342 . S
C16 C14 1.285 . S
C16 H35 0.930 . S
C17 C20 1.424 . S
C17 C22 1.245 1_554 S
C17 C23 1.428 . S
C18 C21 1.260 1_556 S
C18 C22 1.477 . S
C18 H36 0.932 . S
C19 C20 1.384 . S
C19 C21 1.479 . S
C19 H37 0.929 . S
C20 C17 1.424 . S
C20 C19 1.384 . S
C20 H38 0.928 . S
C21 C18 1.260 1_554 S
C21 C19 1.479 . S
C22 C17 1.245 1_556 S
C22 C18 1.477 . S
C22 H39 0.932 . S
C23 U6 2.882 1_565 S
C23 C17 1.428 . S
C23 O26 1.301 1_564 S
C23 O27 1.282 . S
O24 U6 2.441 1_655 S
O24 C10 1.249 . S
O25 U6 2.420 . S
O25 C10 1.202 1_455 S
O26 U6 2.455 1_556 S
O26 C23 1.301 1_546 S
O27 U6 2.449 1_565 S
O27 C23 1.282 . S
H28 C1 0.931 . S
H29 C3 0.929 . S
H30 C4 0.930 . S
H31 C5 0.931 . S
H32 C12 0.932 . S
H33 C13 0.930 . S
H34 C14 0.929 . S
H35 C16 0.930 . S
H36 C18 0.932 . S
H37 C19 0.929 . S
H38 C20 0.928 . S
H39 C22 0.932 . S
C40 C41 1.264 . S
C40 C45 1.479 . S
C40 C50 1.465 . S
C41 C40 1.264 . S
C41 C43 1.339 . S
C41 H68 0.931 . S
C42 C43 1.395 . S
C42 C44 1.320 . S
C43 C41 1.339 . S
C43 C42 1.395 . S
C43 H69 0.929 . S
C44 C42 1.320 . S
C44 C45 1.405 . S
C44 H70 0.930 . S
C45 C40 1.479 . S
C45 C44 1.405 . S
C45 H71 0.931 . S
U46 O47 2.454 . S
U46 O48 2.458 . S
U46 C49 2.984 . S
U46 C50 2.847 . S
U46 C63 2.882 . S
U46 O64 2.441 . S
U46 O65 2.420 . S
U46 O66 2.455 . S
U46 O67 2.449 . S
O47 U46 2.454 . S
O47 C49 1.353 . S
O48 U46 2.458 . S
O48 C49 1.286 . S
C49 U46 2.984 . S
C49 O47 1.353 . S
C49 O48 1.286 . S
C49 C51 1.363 . S
C50 C40 1.465 . S
C50 U46 2.847 . S
C50 O64 1.249 . S
C50 O65 1.202 . S
C51 C49 1.363 . S
C51 C53 1.408 . S
C51 C56 1.342 . S
C52 C53 1.310 . S
C52 C55 1.461 . S
C52 H72 0.932 . S
C53 C51 1.408 . S
C53 C52 1.310 . S
C53 H73 0.930 . S
C54 C55 1.474 . S
C54 C56 1.285 . S
C54 H74 0.929 . S
C55 C52 1.461 . S
C55 C54 1.474 . S
C56 C51 1.342 . S
C56 C54 1.285 . S
C56 H75 0.930 . S
C57 C60 1.424 . S
C57 C62 1.245 . S
C57 C63 1.428 . S
C58 C61 1.260 . S
C58 C62 1.477 . S
C58 H76 0.932 . S
C59 C60 1.384 . S
C59 C61 1.479 . S
C59 H77 0.929 . S
C60 C57 1.424 . S
C60 C59 1.384 . S
C60 H78 0.928 . S
C61 C58 1.260 . S
C61 C59 1.479 . S
C62 C57 1.245 . S
C62 C58 1.477 . S
C62 H79 0.932 . S
C63 U46 2.882 . S
C63 C57 1.428 . S
C63 O66 1.301 . S
C63 O67 1.282 . S
O64 U46 2.441 . S
O64 C50 1.249 . S
O65 U46 2.420 . S
O65 C50 1.202 . S
O66 U46 2.455 . S
O66 C63 1.301 . S
O67 U46 2.449 . S
O67 C63 1.282 . S
H68 C41 0.931 . S
H69 C43 0.929 . S
H70 C44 0.930 . S
H71 C45 0.931 . S
H72 C52 0.932 . S
H73 C53 0.930 . S
H74 C54 0.929 . S
H75 C56 0.930 . S
H76 C58 0.932 . S
H77 C59 0.929 . S
H78 C60 0.928 . S
H79 C62 0.932 . S
C80 C81 1.237 1_655 S
C80 C85 1.479 . S
C80 C90 1.465 . S
C81 C80 1.237 1_455 S
C81 C83 1.344 . S
C81 H108 0.954 1_556 S
C82 C83 1.395 1_655 S
C82 C84 1.320 . S
C83 C81 1.344 . S
C83 C82 1.395 1_455 S
C83 H109 0.929 . S
C84 C82 1.320 . S
C84 C85 1.405 . S
C84 H110 0.930 . S
C85 C80 1.479 . S
C85 C84 1.405 . S
C85 H111 0.931 . S
U86 O87 2.454 . S
U86 O88 2.458 . S
U86 C89 2.984 . S
U86 C90 2.847 1_554 S
U86 C103 2.882 1_655 S
U86 O104 2.441 1_554 S
U86 O105 2.420 . S
U86 O106 2.455 . S
U86 O107 2.449 1_655 S
O87 U86 2.454 . S
O87 C89 1.353 . S
O88 U86 2.458 . S
O88 C89 1.286 . S
C89 U86 2.984 . S
C89 O87 1.353 . S
C89 O88 1.286 . S
C89 C91 1.363 . S
C90 C80 1.465 . S
C90 U86 2.847 1_556 S
C90 O104 1.249 . S
C90 O105 1.202 1_556 S
C91 C89 1.363 . S
C91 C93 1.408 . S
C91 C96 1.342 . S
C92 C93 1.310 . S
C92 C95 1.461 . S
C92 H112 0.932 1_554 S
C93 C91 1.408 . S
C93 C92 1.310 . S
C93 H113 0.930 1_554 S
C94 C95 1.474 . S
C94 C96 1.285 . S
C94 H114 0.929 . S
C95 C92 1.461 . S
C95 C94 1.474 . S
C96 C91 1.342 . S
C96 C94 1.285 . S
C96 H115 0.930 . S
C97 C100 1.424 . S
C97 C102 1.245 . S
C97 C103 1.428 . S
C98 C101 1.260 . S
C98 C102 1.477 . S
C98 H116 0.932 . S
C99 C100 1.384 . S
C99 C101 1.479 . S
C99 H117 0.929 . S
C100 C97 1.424 . S
C100 C99 1.384 . S
C100 H118 0.928 . S
C101 C98 1.260 . S
C101 C99 1.479 . S
C102 C97 1.245 . S
C102 C98 1.477 . S
C102 H119 0.954 . S
C103 U86 2.882 1_455 S
C103 C97 1.428 . S
C103 O106 1.301 1_455 S
C103 O107 1.282 . S
O104 U86 2.441 1_556 S
O104 C90 1.249 . S
O105 U86 2.420 . S
O105 C90 1.202 1_554 S
O106 U86 2.455 . S
O106 C103 1.301 1_655 S
O107 U86 2.449 1_455 S
O107 C103 1.282 . S
H108 C81 0.954 1_554 S
H109 C83 0.929 . S
H110 C84 0.930 . S
H111 C85 0.931 . S
H112 C92 0.932 1_556 S
H113 C93 0.930 1_556 S
H114 C94 0.929 . S
H115 C96 0.930 . S
H116 C98 0.932 . S
H117 C99 0.929 . S
H118 C100 0.928 . S
H119 C102 0.954 . S
C120 C121 1.264 . S
C120 C125 1.479 . S
C120 C130 1.465 . S
C121 C120 1.264 . S
C121 C123 1.339 . S
C121 H148 0.931 . S
C122 C123 1.395 . S
C122 C124 1.320 . S
C123 C121 1.339 . S
C123 C122 1.395 . S
C123 H149 0.929 . S
C124 C122 1.320 . S
C124 C125 1.405 . S
C124 H150 0.930 . S
C125 C120 1.479 . S
C125 C124 1.405 . S
C125 H151 0.931 . S
U126 O127 2.454 . S
U126 O128 2.458 . S
U126 C129 2.984 . S
U126 C130 2.847 . S
U126 C143 2.882 . S
U126 O144 2.441 . S
U126 O145 2.420 . S
U126 O146 2.455 . S
U126 O147 2.449 . S
O127 U126 2.454 . S
O127 C129 1.353 . S
O128 U126 2.458 . S
O128 C129 1.286 . S
C129 U126 2.984 . S
C129 O127 1.353 . S
C129 O128 1.286 . S
C129 C131 1.363 . S
C130 C120 1.465 . S
C130 U126 2.847 . S
C130 O144 1.249 . S
C130 O145 1.202 . S
C131 C129 1.363 . S
C131 C133 1.408 . S
C131 C136 1.342 . S
C132 C133 1.310 . S
C132 C135 1.461 . S
C132 H152 0.932 . S
C133 C131 1.408 . S
C133 C132 1.310 . S
C133 H153 0.930 . S
C134 C135 1.474 . S
C134 C136 1.285 . S
C134 H154 0.929 . S
C135 C132 1.461 . S
C135 C134 1.474 . S
C136 C131 1.342 . S
C136 C134 1.285 . S
C136 H155 0.930 . S
C137 C140 1.424 . S
C137 C142 1.245 . S
C137 C143 1.428 . S
C138 C141 1.260 . S
C138 C142 1.477 . S
C138 H156 0.932 . S
C139 C140 1.384 . S
C139 C141 1.479 . S
C139 H157 0.929 . S
C140 C137 1.424 . S
C140 C139 1.384 . S
C140 H158 0.928 . S
C141 C138 1.260 . S
C141 C139 1.479 . S
C142 C137 1.245 . S
C142 C138 1.477 . S
C142 H159 0.932 . S
C143 U126 2.882 . S
C143 C137 1.428 . S
C143 O146 1.301 . S
C143 O147 1.282 . S
O144 U126 2.441 . S
O144 C130 1.249 . S
O145 U126 2.420 . S
O145 C130 1.202 . S
O146 U126 2.455 . S
O146 C143 1.301 . S
O147 U126 2.449 . S
O147 C143 1.282 . S
H148 C121 0.931 . S
H149 C123 0.929 . S
H150 C124 0.930 . S
H151 C125 0.931 . S
H152 C132 0.932 . S
H153 C133 0.930 . S
H154 C134 0.929 . S
H155 C136 0.930 . S
H156 C138 0.932 . S
H157 C139 0.929 . S
H158 C140 0.928 . S
H159 C142 0.932 . S
C160 C161 1.281 . S
C160 C165 1.479 . S
C160 C170 1.462 1_655 S
C161 C160 1.281 . S
C161 C163 1.336 1_565 S
C161 H188 0.917 1_665 S
C162 C163 1.395 1_565 S
C162 C164 1.320 . S
C163 C161 1.336 1_545 S
C163 C162 1.395 1_545 S
C163 H189 0.929 . S
C164 C162 1.320 . S
C164 C165 1.405 . S
C164 H190 0.930 . S
C165 C160 1.479 . S
C165 C164 1.405 . S
C165 H191 0.931 . S
U166 O167 2.454 . S
U166 O168 2.458 . S
U166 C169 2.984 . S
U166 C170 2.851 . S
U166 C183 2.882 1_565 S
U166 O184 2.441 1_455 S
U166 O185 2.420 . S
U166 O186 2.455 . S
U166 O187 2.449 1_565 S
O167 U166 2.454 . S
O167 C169 1.353 . S
O168 U166 2.458 . S
O168 C169 1.286 . S
C169 U166 2.984 . S
C169 O167 1.353 . S
C169 O168 1.286 . S
C169 C171 1.363 . S
C170 C160 1.462 1_455 S
C170 U166 2.851 . S
C170 O184 1.249 1_455 S
C170 O185 1.206 . S
C171 C169 1.363 . S
C171 C173 1.408 . S
C171 C176 1.342 . S
C172 C173 1.310 . S
C172 C175 1.461 . S
C172 H192 0.932 1_455 S
C173 C171 1.408 . S
C173 C172 1.310 . S
C173 H193 0.930 1_455 S
C174 C175 1.474 . S
C174 C176 1.285 . S
C174 H194 0.929 . S
C175 C172 1.461 . S
C175 C174 1.474 . S
C176 C171 1.342 . S
C176 C174 1.285 . S
C176 H195 0.930 . S
C177 C180 1.424 . S
C177 C182 1.245 . S
C177 C183 1.428 . S
C178 C181 1.260 . S
C178 C182 1.477 . S
C178 H196 0.932 . S
C179 C180 1.384 . S
C179 C181 1.479 . S
C179 H197 0.929 . S
C180 C177 1.424 . S
C180 C179 1.384 . S
C180 H198 0.928 . S
C181 C178 1.260 . S
C181 C179 1.479 . S
C182 C177 1.245 . S
C182 C178 1.477 . S
C182 H199 0.932 . S
C183 U166 2.882 1_545 S
C183 C177 1.428 . S
C183 O186 1.301 1_545 S
C183 O187 1.282 . S
O184 U166 2.441 1_655 S
O184 C170 1.249 1_655 S
O185 U166 2.420 . S
O185 C170 1.206 . S
O186 U166 2.455 . S
O186 C183 1.301 1_565 S
O187 U166 2.449 1_545 S
O187 C183 1.282 . S
H188 C161 0.917 1_445 S
H189 C163 0.929 . S
H190 C164 0.930 . S
H191 C165 0.931 . S
H192 C172 0.932 1_655 S
H193 C173 0.930 1_655 S
H194 C174 0.929 . S
H195 C176 0.930 . S
H196 C178 0.932 . S
H197 C179 0.929 . S
H198 C180 0.928 . S
H199 C182 0.932 . S
C200 C201 1.264 . S
C200 C205 1.479 . S
C200 C210 1.465 . S
C201 C200 1.264 . S
C201 C203 1.339 . S
C201 H228 0.931 . S
C202 C203 1.395 . S
C202 C204 1.320 . S
C203 C201 1.339 . S
C203 C202 1.395 . S
C203 H229 0.929 . S
C204 C202 1.320 . S
C204 C205 1.405 . S
C204 H230 0.930 . S
C205 C200 1.479 . S
C205 C204 1.405 . S
C205 H231 0.931 . S
U206 O207 2.454 . S
U206 O208 2.458 . S
U206 C209 2.984 . S
U206 C210 2.847 . S
U206 C223 2.882 . S
U206 O224 2.441 . S
U206 O225 2.420 . S
U206 O226 2.455 . S
U206 O227 2.449 . S
O207 U206 2.454 . S
O207 C209 1.353 . S
O208 U206 2.458 . S
O208 C209 1.286 . S
C209 U206 2.984 . S
C209 O207 1.353 . S
C209 O208 1.286 . S
C209 C211 1.363 . S
C210 C200 1.465 . S
C210 U206 2.847 . S
C210 O224 1.249 . S
C210 O225 1.202 . S
C211 C209 1.363 . S
C211 C213 1.408 . S
C211 C216 1.342 . S
C212 C213 1.310 . S
C212 C215 1.461 . S
C212 H232 0.932 . S
C213 C211 1.408 . S
C213 C212 1.310 . S
C213 H233 0.930 . S
C214 C215 1.474 . S
C214 C216 1.285 . S
C214 H234 0.929 . S
C215 C212 1.461 . S
C215 C214 1.474 . S
C216 C211 1.342 . S
C216 C214 1.285 . S
C216 H235 0.930 . S
C217 C220 1.424 . S
C217 C222 1.245 . S
C217 C223 1.428 . S
C218 C221 1.260 . S
C218 C222 1.477 . S
C218 H236 0.932 . S
C219 C220 1.384 . S
C219 C221 1.479 . S
C219 H237 0.929 . S
C220 C217 1.424 . S
C220 C219 1.384 . S
C220 H238 0.928 . S
C221 C218 1.260 . S
C221 C219 1.479 . S
C222 C217 1.245 . S
C222 C218 1.477 . S
C222 H239 0.932 . S
C223 U206 2.882 . S
C223 C217 1.428 . S
C223 O226 1.301 . S
C223 O227 1.282 . S
O224 U206 2.441 . S
O224 C210 1.249 . S
O225 U206 2.420 . S
O225 C210 1.202 . S
O226 U206 2.455 . S
O226 C223 1.301 . S
O227 U206 2.449 . S
O227 C223 1.282 . S
H228 C201 0.931 . S
H229 C203 0.929 . S
H230 C204 0.930 . S
H231 C205 0.931 . S
H232 C212 0.932 . S
H233 C213 0.930 . S
H234 C214 0.929 . S
H235 C216 0.930 . S
H236 C218 0.932 . S
H237 C219 0.929 . S
H238 C220 0.928 . S
H239 C222 0.932 . S
C240 C241 1.264 1_655 S
C240 C245 1.479 . S
C240 C250 1.465 . S
C241 C240 1.264 1_455 S
C241 C243 1.339 . S
C241 H268 0.931 . S
C242 C243 1.395 1_655 S
C242 C244 1.320 . S
C243 C241 1.339 . S
C243 C242 1.395 1_455 S
C243 H269 0.929 . S
C244 C242 1.320 . S
C244 C245 1.405 . S
C244 H270 0.930 . S
C245 C240 1.479 . S
C245 C244 1.405 . S
C245 H271 0.931 . S
U246 O247 2.454 . S
U246 O248 2.458 . S
U246 C249 2.984 . S
U246 C250 2.847 . S
U246 C263 2.882 1_655 S
U246 O264 2.441 . S
U246 O265 2.420 1_655 S
U246 O266 2.455 . S
U246 O267 2.449 1_655 S
O247 U246 2.454 . S
O247 C249 1.353 . S
O248 U246 2.458 . S
O248 C249 1.286 . S
C249 U246 2.984 . S
C249 O247 1.353 . S
C249 O248 1.286 . S
C249 C251 1.363 . S
C250 C240 1.465 . S
C250 U246 2.847 . S
C250 O264 1.249 . S
C250 O265 1.202 1_655 S
C251 C249 1.363 . S
C251 C253 1.408 . S
C251 C256 1.342 . S
C252 C253 1.310 . S
C252 C255 1.461 . S
C252 H272 0.932 . S
C253 C251 1.408 . S
C253 C252 1.310 . S
C253 H273 0.930 . S
C254 C255 1.474 . S
C254 C256 1.285 . S
C254 H274 0.929 . S
C255 C252 1.461 . S
C255 C254 1.474 . S
C256 C251 1.342 . S
C256 C254 1.285 . S
C256 H275 0.930 . S
C257 C260 1.424 . S
C257 C262 1.245 . S
C257 C263 1.428 . S
C258 C261 1.260 . S
C258 C262 1.477 . S
C258 H276 0.932 . S
C259 C260 1.384 . S
C259 C261 1.479 . S
C259 H277 0.929 . S
C260 C257 1.424 . S
C260 C259 1.384 . S
C260 H278 0.928 . S
C261 C258 1.260 . S
C261 C259 1.479 . S
C262 C257 1.245 . S
C262 C258 1.477 . S
C262 H279 0.932 . S
C263 U246 2.882 1_455 S
C263 C257 1.428 . S
C263 O266 1.301 1_455 S
C263 O267 1.282 . S
O264 U246 2.441 . S
O264 C250 1.249 . S
O265 U246 2.420 1_455 S
O265 C250 1.202 1_455 S
O266 U246 2.455 . S
O266 C263 1.301 1_655 S
O267 U246 2.449 1_455 S
O267 C263 1.282 . S
H268 C241 0.931 . S
H269 C243 0.929 . S
H270 C244 0.930 . S
H271 C245 0.931 . S
H272 C252 0.932 . S
H273 C253 0.930 . S
H274 C254 0.929 . S
H275 C256 0.930 . S
H276 C258 0.932 . S
H277 C259 0.929 . S
H278 C260 0.928 . S
H279 C262 0.932 . S
C280 C281 1.264 . S
C280 C285 1.479 . S
C280 C290 1.465 . S
C281 C280 1.264 . S
C281 C283 1.339 . S
C281 H308 0.931 . S
C282 C283 1.395 . S
C282 C284 1.320 . S
C283 C281 1.339 . S
C283 C282 1.395 . S
C283 H309 0.929 . S
C284 C282 1.320 . S
C284 C285 1.405 . S
C284 H310 0.930 . S
C285 C280 1.479 . S
C285 C284 1.405 . S
C285 H311 0.931 . S
U286 O287 2.454 . S
U286 O288 2.458 . S
U286 C289 2.984 . S
U286 C290 2.847 . S
U286 C303 2.882 . S
U286 O304 2.441 . S
U286 O305 2.420 . S
U286 O306 2.455 . S
U286 O307 2.449 . S
O287 U286 2.454 . S
O287 C289 1.353 . S
O288 U286 2.458 . S
O288 C289 1.286 . S
C289 U286 2.984 . S
C289 O287 1.353 . S
C289 O288 1.286 . S
C289 C291 1.363 . S
C290 C280 1.465 . S
C290 U286 2.847 . S
C290 O304 1.249 . S
C290 O305 1.202 . S
C291 C289 1.363 . S
C291 C293 1.408 . S
C291 C296 1.342 . S
C292 C293 1.310 . S
C292 C295 1.461 . S
C292 H312 0.932 . S
C293 C291 1.408 . S
C293 C292 1.310 . S
C293 H313 0.930 . S
C294 C295 1.474 . S
C294 C296 1.285 . S
C294 H314 0.929 . S
C295 C292 1.461 . S
C295 C294 1.474 . S
C296 C291 1.342 . S
C296 C294 1.285 . S
C296 H315 0.930 . S
C297 C300 1.424 . S
C297 C302 1.245 . S
C297 C303 1.428 . S
C298 C301 1.260 . S
C298 C302 1.477 . S
C298 H316 0.932 . S
C299 C300 1.384 . S
C299 C301 1.479 . S
C299 H317 0.929 . S
C300 C297 1.424 . S
C300 C299 1.384 . S
C300 H318 0.928 . S
C301 C298 1.260 . S
C301 C299 1.479 . S
C302 C297 1.245 . S
C302 C298 1.477 . S
C302 H319 0.932 . S
C303 U286 2.882 . S
C303 C297 1.428 . S
C303 O306 1.301 . S
C303 O307 1.282 . S
O304 U286 2.441 . S
O304 C290 1.249 . S
O305 U286 2.420 . S
O305 C290 1.202 . S
O306 U286 2.455 . S
O306 C303 1.301 . S
O307 U286 2.449 . S
O307 C303 1.282 . S
H308 C281 0.931 . S
H309 C283 0.929 . S
H310 C284 0.930 . S
H311 C285 0.931 . S
H312 C292 0.932 . S
H313 C293 0.930 . S
H314 C294 0.929 . S
H315 C296 0.930 . S
H316 C298 0.932 . S
H317 C299 0.929 . S
H318 C300 0.928 . S
H319 C302 0.932 . S
C320 C321 1.264 . S
C320 C325 1.479 . S
C320 C330 1.465 . S
C321 C320 1.264 . S
C321 C323 1.339 . S
C321 H348 0.931 . S
C322 C323 1.395 . S
C322 C324 1.320 . S
C323 C321 1.339 . S
C323 C322 1.395 . S
C323 H349 0.929 . S
C324 C322 1.320 . S
C324 C325 1.405 . S
C324 H350 0.930 . S
C325 C320 1.479 . S
C325 C324 1.405 . S
C325 H351 0.931 . S
U326 O327 2.454 . S
U326 O328 2.458 . S
U326 C329 2.984 . S
U326 C330 2.847 . S
U326 C343 2.882 . S
U326 O344 2.441 . S
U326 O345 2.420 . S
U326 O346 2.455 . S
U326 O347 2.449 . S
O327 U326 2.454 . S
O327 C329 1.353 . S
O328 U326 2.458 . S
O328 C329 1.286 . S
C329 U326 2.984 . S
C329 O327 1.353 . S
C329 O328 1.286 . S
C329 C331 1.363 . S
C330 C320 1.465 . S
C330 U326 2.847 . S
C330 O344 1.249 . S
C330 O345 1.202 . S
C331 C329 1.363 . S
C331 C333 1.408 . S
C331 C336 1.342 . S
C332 C333 1.310 . S
C332 C335 1.461 . S
C332 H352 0.932 . S
C333 C331 1.408 . S
C333 C332 1.310 . S
C333 H353 0.930 . S
C334 C335 1.474 . S
C334 C336 1.285 . S
C334 H354 0.929 . S
C335 C332 1.461 . S
C335 C334 1.474 . S
C336 C331 1.342 . S
C336 C334 1.285 . S
C336 H355 0.930 . S
C337 C340 1.424 . S
C337 C342 1.245 . S
C337 C343 1.428 . S
C338 C341 1.260 . S
C338 C342 1.477 . S
C338 H356 0.932 . S
C339 C340 1.384 . S
C339 C341 1.479 . S
C339 H357 0.929 . S
C340 C337 1.424 . S
C340 C339 1.384 . S
C340 H358 0.928 . S
C341 C338 1.260 . S
C341 C339 1.479 . S
C342 C337 1.245 . S
C342 C338 1.477 . S
C342 H359 0.932 . S
C343 U326 2.882 . S
C343 C337 1.428 . S
C343 O346 1.301 . S
C343 O347 1.282 . S
O344 U326 2.441 . S
O344 C330 1.249 . S
O345 U326 2.420 . S
O345 C330 1.202 . S
O346 U326 2.455 . S
O346 C343 1.301 . S
O347 U326 2.449 . S
O347 C343 1.282 . S
H348 C321 0.931 . S
H349 C323 0.929 . S
H350 C324 0.930 . S
H351 C325 0.931 . S
H352 C332 0.932 . S
H353 C333 0.930 . S
H354 C334 0.929 . S
H355 C336 0.930 . S
H356 C338 0.932 . S
H357 C339 0.929 . S
H358 C340 0.928 . S
H359 C342 0.932 . S
C360 C361 1.264 . S
C360 C365 1.479 . S
C360 C370 1.465 . S
C361 C360 1.264 . S
C361 C363 1.339 . S
C361 H388 0.931 . S
C362 C363 1.395 . S
C362 C364 1.320 . S
C363 C361 1.339 . S
C363 C362 1.395 . S
C363 H389 0.929 . S
C364 C362 1.320 . S
C364 C365 1.405 . S
C364 H390 0.930 . S
C365 C360 1.479 . S
C365 C364 1.405 . S
C365 H391 0.931 . S
U366 O367 2.454 . S
U366 O368 2.458 1_565 S
U366 C369 2.984 1_565 S
U366 C370 2.847 . S
U366 C383 2.882 . S
U366 O384 2.441 . S
U366 O385 2.420 . S
U366 O386 2.455 1_565 S
U366 O387 2.449 . S
O367 U366 2.454 . S
O367 C369 1.353 1_565 S
O368 U366 2.458 1_545 S
O368 C369 1.286 . S
C369 U366 2.984 1_545 S
C369 O367 1.353 1_545 S
C369 O368 1.286 . S
C369 C371 1.363 . S
C370 C360 1.465 . S
C370 U366 2.847 . S
C370 O384 1.249 . S
C370 O385 1.202 . S
C371 C369 1.363 . S
C371 C373 1.408 . S
C371 C376 1.342 . S
C372 C373 1.310 . S
C372 C375 1.461 . S
C372 H392 0.932 . S
C373 C371 1.408 . S
C373 C372 1.310 . S
C373 H393 0.930 . S
C374 C375 1.474 . S
C374 C376 1.285 . S
C374 H394 0.929 . S
C375 C372 1.461 . S
C375 C374 1.474 . S
C376 C371 1.342 . S
C376 C374 1.285 . S
C376 H395 0.930 . S
C377 C380 1.424 . S
C377 C382 1.245 1_565 S
C377 C383 1.428 . S
C378 C381 1.260 1_545 S
C378 C382 1.477 . S
C378 H396 0.932 . S
C379 C380 1.384 . S
C379 C381 1.479 . S
C379 H397 0.929 . S
C380 C377 1.424 . S
C380 C379 1.384 . S
C380 H398 0.928 . S
C381 C378 1.260 1_565 S
C381 C379 1.479 . S
C382 C377 1.245 1_545 S
C382 C378 1.477 . S
C382 H399 0.932 . S
C383 U366 2.882 . S
C383 C377 1.428 . S
C383 O386 1.301 1_565 S
C383 O387 1.282 . S
O384 U366 2.441 . S
O384 C370 1.249 . S
O385 U366 2.420 . S
O385 C370 1.202 . S
O386 U366 2.455 1_545 S
O386 C383 1.301 1_545 S
O387 U366 2.449 . S
O387 C383 1.282 . S
H388 C361 0.931 . S
H389 C363 0.929 . S
H390 C364 0.930 . S
H391 C365 0.931 . S
H392 C372 0.932 . S
H393 C373 0.930 . S
H394 C374 0.929 . S
H395 C376 0.930 . S
H396 C378 0.932 . S
H397 C379 0.929 . S
H398 C380 0.928 . S
H399 C382 0.932 . S
C400 C401 1.264 . S
C400 C405 1.479 . S
C400 C410 1.465 . S
C401 C400 1.264 . S
C401 C403 1.339 . S
C401 H428 0.931 . S
C402 C403 1.395 . S
C402 C404 1.320 . S
C403 C401 1.339 . S
C403 C402 1.395 . S
C403 H429 0.929 . S
C404 C402 1.320 . S
C404 C405 1.405 . S
C404 H430 0.930 . S
C405 C400 1.479 . S
C405 C404 1.405 . S
C405 H431 0.931 . S
U406 O407 2.454 . S
U406 O408 2.458 . S
U406 C409 2.984 . S
U406 C410 2.847 . S
U406 C423 2.882 . S
U406 O424 2.441 . S
U406 O425 2.420 . S
U406 O426 2.455 . S
U406 O427 2.449 . S
O407 U406 2.454 . S
O407 C409 1.353 . S
O408 U406 2.458 . S
O408 C409 1.286 . S
C409 U406 2.984 . S
C409 O407 1.353 . S
C409 O408 1.286 . S
C409 C411 1.363 . S
C410 C400 1.465 . S
C410 U406 2.847 . S
C410 O424 1.249 . S
C410 O425 1.202 . S
C411 C409 1.363 . S
C411 C413 1.408 . S
C411 C416 1.342 . S
C412 C413 1.310 . S
C412 C415 1.461 . S
C412 H432 0.932 . S
C413 C411 1.408 . S
C413 C412 1.310 . S
C413 H433 0.930 . S
C414 C415 1.474 . S
C414 C416 1.285 . S
C414 H434 0.929 . S
C415 C412 1.461 . S
C415 C414 1.474 . S
C416 C411 1.342 . S
C416 C414 1.285 . S
C416 H435 0.930 . S
C417 C420 1.424 . S
C417 C422 1.245 . S
C417 C423 1.428 . S
C418 C421 1.260 . S
C418 C422 1.477 . S
C418 H436 0.932 . S
C419 C420 1.384 . S
C419 C421 1.479 . S
C419 H437 0.929 . S
C420 C417 1.424 . S
C420 C419 1.384 . S
C420 H438 0.928 . S
C421 C418 1.260 . S
C421 C419 1.479 . S
C422 C417 1.245 . S
C422 C418 1.477 . S
C422 H439 0.932 . S
C423 U406 2.882 . S
C423 C417 1.428 . S
C423 O426 1.301 . S
C423 O427 1.282 . S
O424 U406 2.441 . S
O424 C410 1.249 . S
O425 U406 2.420 . S
O425 C410 1.202 . S
O426 U406 2.455 . S
O426 C423 1.301 . S
O427 U406 2.449 . S
O427 C423 1.282 . S
H428 C401 0.931 . S
H429 C403 0.929 . S
H430 C404 0.930 . S
H431 C405 0.931 . S
H432 C412 0.932 . S
H433 C413 0.930 . S
H434 C414 0.929 . S
H435 C416 0.930 . S
H436 C418 0.932 . S
H437 C419 0.929 . S
H438 C420 0.928 . S
H439 C422 0.932 . S
C440 C441 1.264 . S
C440 C445 1.479 . S
C440 C450 1.465 . S
C441 C440 1.264 . S
C441 C443 1.339 . S
C441 H468 0.931 . S
C442 C443 1.395 . S
C442 C444 1.320 . S
C443 C441 1.339 . S
C443 C442 1.395 . S
C443 H469 0.929 . S
C444 C442 1.320 . S
C444 C445 1.405 . S
C444 H470 0.930 . S
C445 C440 1.479 . S
C445 C444 1.405 . S
C445 H471 0.931 . S
U446 O447 2.454 . S
U446 O448 2.458 . S
U446 C449 2.984 . S
U446 C450 2.847 . S
U446 C463 2.882 . S
U446 O464 2.441 . S
U446 O465 2.420 . S
U446 O466 2.455 . S
U446 O467 2.449 . S
O447 U446 2.454 . S
O447 C449 1.353 . S
O448 U446 2.458 . S
O448 C449 1.286 . S
C449 U446 2.984 . S
C449 O447 1.353 . S
C449 O448 1.286 . S
C449 C451 1.363 . S
C450 C440 1.465 . S
C450 U446 2.847 . S
C450 O464 1.249 . S
C450 O465 1.202 . S
C451 C449 1.363 . S
C451 C453 1.408 . S
C451 C456 1.342 . S
C452 C453 1.310 . S
C452 C455 1.461 . S
C452 H472 0.932 . S
C453 C451 1.408 . S
C453 C452 1.310 . S
C453 H473 0.930 . S
C454 C455 1.474 . S
C454 C456 1.285 . S
C454 H474 0.929 . S
C455 C452 1.461 . S
C455 C454 1.474 . S
C456 C451 1.342 . S
C456 C454 1.285 . S
C456 H475 0.930 . S
C457 C460 1.424 . S
C457 C462 1.245 . S
C457 C463 1.428 . S
C458 C461 1.260 . S
C458 C462 1.477 . S
C458 H476 0.932 . S
C459 C460 1.384 . S
C459 C461 1.479 . S
C459 H477 0.929 . S
C460 C457 1.424 . S
C460 C459 1.384 . S
C460 H478 0.928 . S
C461 C458 1.260 . S
C461 C459 1.479 . S
C462 C457 1.245 . S
C462 C458 1.477 . S
C462 H479 0.932 . S
C463 U446 2.882 . S
C463 C457 1.428 . S
C463 O466 1.301 . S
C463 O467 1.282 . S
O464 U446 2.441 . S
O464 C450 1.249 . S
O465 U446 2.420 . S
O465 C450 1.202 . S
O466 U446 2.455 . S
O466 C463 1.301 . S
O467 U446 2.449 . S
O467 C463 1.282 . S
H468 C441 0.931 . S
H469 C443 0.929 . S
H470 C444 0.930 . S
H471 C445 0.931 . S
H472 C452 0.932 . S
H473 C453 0.930 . S
H474 C454 0.929 . S
H475 C456 0.930 . S
H476 C458 0.932 . S
H477 C459 0.929 . S
H478 C460 0.928 . S
H479 C462 0.932 . S
C480 C481 1.264 . S
C480 C485 1.479 . S
C480 C490 1.465 . S
C481 C480 1.264 . S
C481 C483 1.339 . S
C481 H508 0.931 . S
C482 C483 1.395 . S
C482 C484 1.320 . S
C483 C481 1.339 . S
C483 C482 1.395 . S
C483 H509 0.929 . S
C484 C482 1.320 . S
C484 C485 1.405 . S
C484 H510 0.930 . S
C485 C480 1.479 . S
C485 C484 1.405 . S
C485 H511 0.931 . S
U486 O487 2.454 . S
U486 O488 2.458 . S
U486 C489 2.984 . S
U486 C490 2.847 . S
U486 C503 2.882 . S
U486 O504 2.441 . S
U486 O505 2.420 . S
U486 O506 2.455 . S
U486 O507 2.449 . S
O487 U486 2.454 . S
O487 C489 1.353 . S
O488 U486 2.458 . S
O488 C489 1.286 . S
C489 U486 2.984 . S
C489 O487 1.353 . S
C489 O488 1.286 . S
C489 C491 1.363 . S
C490 C480 1.465 . S
C490 U486 2.847 . S
C490 O504 1.249 . S
C490 O505 1.202 . S
C491 C489 1.363 . S
C491 C493 1.408 . S
C491 C496 1.342 . S
C492 C493 1.310 . S
C492 C495 1.461 . S
C492 H512 0.932 . S
C493 C491 1.408 . S
C493 C492 1.310 . S
C493 H513 0.930 . S
C494 C495 1.474 . S
C494 C496 1.285 . S
C494 H514 0.929 . S
C495 C492 1.461 . S
C495 C494 1.474 . S
C496 C491 1.342 . S
C496 C494 1.285 . S
C496 H515 0.930 . S
C497 C500 1.424 . S
C497 C502 1.245 . S
C497 C503 1.428 . S
C498 C501 1.260 . S
C498 C502 1.477 . S
C498 H516 0.932 . S
C499 C500 1.384 . S
C499 C501 1.479 . S
C499 H517 0.929 . S
C500 C497 1.424 . S
C500 C499 1.384 . S
C500 H518 0.928 . S
C501 C498 1.260 . S
C501 C499 1.479 . S
C502 C497 1.245 . S
C502 C498 1.477 . S
C502 H519 0.932 . S
C503 U486 2.882 . S
C503 C497 1.428 . S
C503 O506 1.301 . S
C503 O507 1.282 . S
O504 U486 2.441 . S
O504 C490 1.249 . S
O505 U486 2.420 . S
O505 C490 1.202 . S
O506 U486 2.455 . S
O506 C503 1.301 . S
O507 U486 2.449 . S
O507 C503 1.282 . S
H508 C481 0.931 . S
H509 C483 0.929 . S
H510 C484 0.930 . S
H511 C485 0.931 . S
H512 C492 0.932 . S
H513 C493 0.930 . S
H514 C494 0.929 . S
H515 C496 0.930 . S
H516 C498 0.932 . S
H517 C499 0.929 . S
H518 C500 0.928 . S
H519 C502 0.932 . S
C520 C521 1.264 . S
C520 C525 1.479 . S
C520 C530 1.465 . S
C521 C520 1.264 . S
C521 C523 1.339 . S
C521 H548 0.931 . S
C522 C523 1.395 . S
C522 C524 1.320 . S
C523 C521 1.339 . S
C523 C522 1.395 . S
C523 H549 0.929 . S
C524 C522 1.320 . S
C524 C525 1.405 . S
C524 H550 0.930 . S
C525 C520 1.479 . S
C525 C524 1.405 . S
C525 H551 0.931 . S
U526 O527 2.454 . S
U526 O528 2.458 1_556 S
U526 C529 2.984 1_556 S
U526 C530 2.847 . S
U526 C543 2.882 . S
U526 O544 2.441 . S
U526 O545 2.420 . S
U526 O546 2.455 1_556 S
U526 O547 2.449 . S
O527 U526 2.454 . S
O527 C529 1.353 1_556 S
O528 U526 2.458 1_554 S
O528 C529 1.286 . S
C529 U526 2.984 1_554 S
C529 O527 1.353 1_554 S
C529 O528 1.286 . S
C529 C531 1.363 . S
C530 C520 1.465 . S
C530 U526 2.847 . S
C530 O544 1.249 . S
C530 O545 1.202 . S
C531 C529 1.363 . S
C531 C533 1.408 . S
C531 C536 1.342 . S
C532 C533 1.310 . S
C532 C535 1.461 . S
C532 H552 0.932 . S
C533 C531 1.408 . S
C533 C532 1.310 . S
C533 H553 0.930 . S
C534 C535 1.474 . S
C534 C536 1.285 . S
C534 H554 0.929 . S
C535 C532 1.461 . S
C535 C534 1.474 . S
C536 C531 1.342 . S
C536 C534 1.285 . S
C536 H555 0.930 . S
C537 C540 1.424 . S
C537 C542 1.245 1_556 S
C537 C543 1.428 . S
C538 C541 1.260 1_554 S
C538 C542 1.477 . S
C538 H556 0.932 . S
C539 C540 1.384 . S
C539 C541 1.479 . S
C539 H557 0.929 . S
C540 C537 1.424 . S
C540 C539 1.384 . S
C540 H558 0.928 . S
C541 C538 1.260 1_556 S
C541 C539 1.479 . S
C542 C537 1.245 1_554 S
C542 C538 1.477 . S
C542 H559 0.932 . S
C543 U526 2.882 . S
C543 C537 1.428 . S
C543 O546 1.301 1_556 S
C543 O547 1.282 . S
O544 U526 2.441 . S
O544 C530 1.249 . S
O545 U526 2.420 . S
O545 C530 1.202 . S
O546 U526 2.455 1_554 S
O546 C543 1.301 1_554 S
O547 U526 2.449 . S
O547 C543 1.282 . S
H548 C521 0.931 . S
H549 C523 0.929 . S
H550 C524 0.930 . S
H551 C525 0.931 . S
H552 C532 0.932 . S
H553 C533 0.930 . S
H554 C534 0.929 . S
H555 C536 0.930 . S
H556 C538 0.932 . S
H557 C539 0.929 . S
H558 C540 0.928 . S
H559 C542 0.932 . S
C560 C561 1.264 . S
C560 C565 1.479 . S
C560 C570 1.465 . S
C561 C560 1.264 . S
C561 C563 1.339 . S
C561 H588 0.931 . S
C562 C563 1.395 . S
C562 C564 1.320 . S
C563 C561 1.339 . S
C563 C562 1.395 . S
C563 H589 0.929 . S
C564 C562 1.320 . S
C564 C565 1.405 . S
C564 H590 0.930 . S
C565 C560 1.479 . S
C565 C564 1.405 . S
C565 H591 0.931 . S
U566 O567 2.454 . S
U566 O568 2.458 . S
U566 C569 2.984 . S
U566 C570 2.847 . S
U566 C583 2.882 . S
U566 O584 2.441 . S
U566 O585 2.420 . S
U566 O586 2.455 . S
U566 O587 2.449 . S
O567 U566 2.454 . S
O567 C569 1.353 . S
O568 U566 2.458 . S
O568 C569 1.286 . S
C569 U566 2.984 . S
C569 O567 1.353 . S
C569 O568 1.286 . S
C569 C571 1.363 . S
C570 C560 1.465 . S
C570 U566 2.847 . S
C570 O584 1.249 . S
C570 O585 1.202 . S
C571 C569 1.363 . S
C571 C573 1.408 . S
C571 C576 1.342 . S
C572 C573 1.310 . S
C572 C575 1.461 . S
C572 H592 0.932 . S
C573 C571 1.408 . S
C573 C572 1.310 . S
C573 H593 0.930 . S
C574 C575 1.474 . S
C574 C576 1.285 . S
C574 H594 0.929 . S
C575 C572 1.461 . S
C575 C574 1.474 . S
C576 C571 1.342 . S
C576 C574 1.285 . S
C576 H595 0.930 . S
C577 C580 1.424 . S
C577 C582 1.245 . S
C577 C583 1.428 . S
C578 C581 1.260 . S
C578 C582 1.477 . S
C578 H596 0.932 . S
C579 C580 1.384 . S
C579 C581 1.479 . S
C579 H597 0.929 . S
C580 C577 1.424 . S
C580 C579 1.384 . S
C580 H598 0.928 . S
C581 C578 1.260 . S
C581 C579 1.479 . S
C582 C577 1.245 . S
C582 C578 1.477 . S
C582 H599 0.932 . S
C583 U566 2.882 . S
C583 C577 1.428 . S
C583 O586 1.301 . S
C583 O587 1.282 . S
O584 U566 2.441 . S
O584 C570 1.249 . S
O585 U566 2.420 . S
O585 C570 1.202 . S
O586 U566 2.455 . S
O586 C583 1.301 . S
O587 U566 2.449 . S
O587 C583 1.282 . S
H588 C561 0.931 . S
H589 C563 0.929 . S
H590 C564 0.930 . S
H591 C565 0.931 . S
H592 C572 0.932 . S
H593 C573 0.930 . S
H594 C574 0.929 . S
H595 C576 0.930 . S
H596 C578 0.932 . S
H597 C579 0.929 . S
H598 C580 0.928 . S
H599 C582 0.932 . S
C600 C601 1.264 . S
C600 C605 1.479 . S
C600 C610 1.465 . S
C601 C600 1.264 . S
C601 C603 1.339 . S
C601 H628 0.931 . S
C602 C603 1.395 . S
C602 C604 1.320 . S
C603 C601 1.339 . S
C603 C602 1.395 . S
C603 H629 0.929 . S
C604 C602 1.320 . S
C604 C605 1.405 . S
C604 H630 0.930 . S
C605 C600 1.479 . S
C605 C604 1.405 . S
C605 H631 0.931 . S
U606 O607 2.454 . S
U606 O608 2.458 . S
U606 C609 2.984 . S
U606 C610 2.847 1_556 S
U606 C623 2.882 . S
U606 O624 2.441 1_556 S
U606 O625 2.420 . S
U606 O626 2.455 . S
U606 O627 2.449 . S
O607 U606 2.454 . S
O607 C609 1.353 . S
O608 U606 2.458 . S
O608 C609 1.286 . S
C609 U606 2.984 . S
C609 O607 1.353 . S
C609 O608 1.286 . S
C609 C611 1.363 1_545 S
C610 C600 1.465 . S
C610 U606 2.847 1_554 S
C610 O624 1.249 . S
C610 O625 1.202 1_554 S
C611 C609 1.363 1_565 S
C611 C613 1.408 . S
C611 C616 1.342 . S
C612 C613 1.310 . S
C612 C615 1.461 . S
C612 H632 0.932 1_556 S
C613 C611 1.408 . S
C613 C612 1.310 . S
C613 H633 0.930 1_566 S
C614 C615 1.474 . S
C614 C616 1.285 . S
C614 H634 0.929 . S
C615 C612 1.461 . S
C615 C614 1.474 . S
C616 C611 1.342 . S
C616 C614 1.285 . S
C616 H635 0.930 . S
C617 C620 1.424 . S
C617 C622 1.245 . S
C617 C623 1.428 . S
C618 C621 1.260 . S
C618 C622 1.477 . S
C618 H636 0.932 1_545 S
C619 C620 1.384 . S
C619 C621 1.479 . S
C619 H637 0.929 . S
C620 C617 1.424 . S
C620 C619 1.384 . S
C620 H638 0.928 . S
C621 C618 1.260 . S
C621 C619 1.479 . S
C622 C617 1.245 . S
C622 C618 1.477 . S
C622 H639 0.932 1_545 S
C623 U606 2.882 . S
C623 C617 1.428 . S
C623 O626 1.301 . S
C623 O627 1.282 . S
O624 U606 2.441 1_554 S
O624 C610 1.249 . S
O625 U606 2.420 . S
O625 C610 1.202 1_556 S
O626 U606 2.455 . S
O626 C623 1.301 . S
O627 U606 2.449 . S
O627 C623 1.282 . S
H628 C601 0.931 . S
H629 C603 0.929 . S
H630 C604 0.930 . S
H631 C605 0.931 . S
H632 C612 0.932 1_554 S
H633 C613 0.930 1_544 S
H634 C614 0.929 . S
H635 C616 0.930 . S
H636 C618 0.932 1_565 S
H637 C619 0.929 . S
H638 C620 0.928 . S
H639 C622 0.932 1_565 S
Zn640 O643 2.031 . S
Zn640 O645 2.049 1_554 S
Zn640 O650 2.067 1_554 S
Zn641 O642 1.962 . S
Zn641 O644 1.986 . S
Zn641 O646 1.996 . S
Zn641 O649 1.943 1_554 S
O642 Zn641 1.962 . S
O642 C647 1.254 . S
O643 Zn640 2.031 . S
O643 C647 1.269 . S
O644 Zn641 1.986 . S
O644 C651 1.262 . S
O645 Zn640 2.049 1_556 S
O645 C653 1.260 . S
O646 Zn641 1.996 . S
O646 C653 1.257 1_554 S
C647 O642 1.254 . S
C647 O643 1.269 . S
C648 O649 1.249 . S
C648 O650 1.270 . S
O649 Zn641 1.943 1_556 S
O649 C648 1.249 . S
O650 Zn640 2.067 1_556 S
O650 C648 1.270 . S
C651 O644 1.262 . S
C651 O652 1.232 . S
O652 C651 1.232 . S
C653 O645 1.260 . S
C653 O646 1.257 1_556 S
Zn654 O657 2.031 . S
Zn654 O659 2.049 . S
Zn654 O664 2.067 . S
Zn655 O656 1.962 . S
Zn655 O658 1.986 . S
Zn655 O660 1.996 . S
Zn655 O663 1.943 . S
O656 Zn655 1.962 . S
O656 C661 1.254 . S
O657 Zn654 2.031 . S
O657 C661 1.269 . S
O658 Zn655 1.986 . S
O658 C665 1.262 . S
O659 Zn654 2.049 . S
O659 C667 1.260 . S
O660 Zn655 1.996 . S
O660 C667 1.257 . S
C661 O656 1.254 . S
C661 O657 1.269 . S
C662 O663 1.249 . S
C662 O664 1.270 . S
O663 Zn655 1.943 . S
O663 C662 1.249 . S
O664 Zn654 2.067 . S
O664 C662 1.270 . S
C665 O658 1.262 . S
C665 O666 1.232 . S
O666 C665 1.232 . S
C667 O659 1.260 . S
C667 O660 1.257 . S
Zn668 O671 2.031 . S
Zn668 O673 2.049 . S
Zn668 O678 2.067 . S
Zn669 O670 1.962 . S
Zn669 O672 1.986 . S
Zn669 O674 1.996 1_554 S
Zn669 O677 1.943 . S
O670 Zn669 1.962 . S
O670 C675 1.254 . S
O671 Zn668 2.031 . S
O671 C675 1.269 1_556 S
O672 Zn669 1.986 . S
O672 C679 1.262 . S
O673 Zn668 2.049 . S
O673 C681 1.260 . S
O674 Zn669 1.996 1_556 S
O674 C681 1.257 . S
C675 O670 1.254 . S
C675 O671 1.269 1_554 S
C676 O677 1.249 1_556 S
C676 O678 1.270 . S
O677 Zn669 1.943 . S
O677 C676 1.249 1_554 S
O678 Zn668 2.067 . S
O678 C676 1.270 . S
C679 O672 1.262 . S
C679 O680 1.232 . S
O680 C679 1.232 . S
C681 O673 1.260 . S
C681 O674 1.257 . S
Zn682 O685 2.028 1_565 S
Zn682 O687 2.052 . S
Zn682 O692 2.072 . S
Zn683 O684 1.962 . S
Zn683 O686 1.986 . S
Zn683 O688 1.996 . S
Zn683 O691 1.943 1_545 S
O684 Zn683 1.962 . S
O684 C689 1.254 . S
O685 Zn682 2.028 1_545 S
O685 C689 1.269 . S
O686 Zn683 1.986 . S
O686 C693 1.262 . S
O687 Zn682 2.052 . S
O687 C695 1.260 . S
O688 Zn683 1.996 . S
O688 C695 1.257 1_545 S
C689 O684 1.254 . S
C689 O685 1.269 . S
C690 O691 1.249 . S
C690 O692 1.270 . S
O691 Zn683 1.943 1_565 S
O691 C690 1.249 . S
O692 Zn682 2.072 . S
O692 C690 1.270 . S
C693 O686 1.262 . S
C693 O694 1.232 . S
O694 C693 1.232 . S
C695 O687 1.260 . S
C695 O688 1.257 1_565 S
Zn696 O699 2.031 . S
Zn696 O701 2.049 . S
Zn696 O706 2.067 . S
Zn697 O698 1.962 . S
Zn697 O700 1.986 . S
Zn697 O702 1.996 . S
Zn697 O705 1.943 . S
O698 Zn697 1.962 . S
O698 C703 1.254 . S
O699 Zn696 2.031 . S
O699 C703 1.269 . S
O700 Zn697 1.986 . S
O700 C707 1.262 . S
O701 Zn696 2.049 . S
O701 C709 1.260 . S
O702 Zn697 1.996 . S
O702 C709 1.257 . S
C703 O698 1.254 . S
C703 O699 1.269 . S
C704 O705 1.249 . S
C704 O706 1.270 . S
O705 Zn697 1.943 . S
O705 C704 1.249 . S
O706 Zn696 2.067 . S
O706 C704 1.270 . S
C707 O700 1.262 . S
C707 O708 1.232 . S
O708 C707 1.232 . S
C709 O701 1.260 . S
C709 O702 1.257 . S
Zn710 O713 2.031 . S
Zn710 O715 2.049 . S
Zn710 O720 2.067 . S
Zn711 O712 1.962 . S
Zn711 O714 1.986 . S
Zn711 O716 1.996 . S
Zn711 O719 1.943 . S
O712 Zn711 1.962 . S
O712 C717 1.254 . S
O713 Zn710 2.031 . S
O713 C717 1.269 . S
O714 Zn711 1.986 . S
O714 C721 1.262 . S
O715 Zn710 2.049 . S
O715 C723 1.260 . S
O716 Zn711 1.996 . S
O716 C723 1.257 . S
C717 O712 1.254 . S
C717 O713 1.269 . S
C718 O719 1.249 . S
C718 O720 1.270 . S
O719 Zn711 1.943 . S
O719 C718 1.249 . S
O720 Zn710 2.067 . S
O720 C718 1.270 . S
C721 O714 1.262 . S
C721 O722 1.232 . S
O722 C721 1.232 . S
C723 O715 1.260 . S
C723 O716 1.257 . S
Zn724 O727 2.031 . S
Zn724 O729 2.049 . S
Zn724 O734 2.067 . S
Zn725 O726 1.962 . S
Zn725 O728 1.986 . S
Zn725 O730 1.996 . S
Zn725 O733 1.943 . S
O726 Zn725 1.962 . S
O726 C731 1.254 . S
O727 Zn724 2.031 . S
O727 C731 1.269 . S
O728 Zn725 1.986 . S
O728 C735 1.262 . S
O729 Zn724 2.049 . S
O729 C737 1.260 . S
O730 Zn725 1.996 . S
O730 C737 1.257 . S
C731 O726 1.254 . S
C731 O727 1.269 . S
C732 O733 1.249 . S
C732 O734 1.270 . S
O733 Zn725 1.943 . S
O733 C732 1.249 . S
O734 Zn724 2.067 . S
O734 C732 1.270 . S
C735 O728 1.262 . S
C735 O736 1.232 . S
O736 C735 1.232 . S
C737 O729 1.260 . S
C737 O730 1.257 . S
Zn738 O741 2.031 . S
Zn738 O743 2.049 . S
Zn738 O748 2.067 . S
Zn739 O740 1.962 . S
Zn739 O742 1.986 . S
Zn739 O744 1.996 1_545 S
Zn739 O747 1.943 . S
O740 Zn739 1.962 . S
O740 C745 1.254 . S
O741 Zn738 2.031 . S
O741 C745 1.269 1_565 S
O742 Zn739 1.986 . S
O742 C749 1.262 . S
O743 Zn738 2.049 . S
O743 C751 1.260 . S
O744 Zn739 1.996 1_565 S
O744 C751 1.257 . S
C745 O740 1.254 . S
C745 O741 1.269 1_545 S
C746 O747 1.249 1_565 S
C746 O748 1.270 . S
O747 Zn739 1.943 . S
O747 C746 1.249 1_545 S
O748 Zn738 2.067 . S
O748 C746 1.270 . S
C749 O742 1.262 . S
C749 O750 1.232 . S
O750 C749 1.232 . S
C751 O743 1.260 . S
C751 O744 1.257 . S
Zn752 O755 2.031 . S
Zn752 O757 2.049 1_455 S
Zn752 O762 2.067 1_455 S
Zn753 O754 1.962 . S
Zn753 O756 1.986 . S
Zn753 O758 1.996 . S
Zn753 O761 1.943 1_455 S
O754 Zn753 1.962 . S
O754 C759 1.254 . S
O755 Zn752 2.031 . S
O755 C759 1.269 . S
O756 Zn753 1.986 . S
O756 C763 1.262 . S
O757 Zn752 2.049 1_655 S
O757 C765 1.260 . S
O758 Zn753 1.996 . S
O758 C765 1.257 1_455 S
C759 O754 1.254 . S
C759 O755 1.269 . S
C760 O761 1.249 . S
C760 O762 1.270 . S
O761 Zn753 1.943 1_655 S
O761 C760 1.249 . S
O762 Zn752 2.067 1_655 S
O762 C760 1.270 . S
C763 O756 1.262 . S
C763 O764 1.232 . S
O764 C763 1.232 . S
C765 O757 1.260 . S
C765 O758 1.257 1_655 S
Zn766 O769 2.031 . S
Zn766 O771 2.049 . S
Zn766 O776 2.067 . S
Zn767 O768 1.962 . S
Zn767 O770 1.986 . S
Zn767 O772 1.996 . S
Zn767 O775 1.943 . S
O768 Zn767 1.962 . S
O768 C773 1.254 . S
O769 Zn766 2.031 . S
O769 C773 1.269 . S
O770 Zn767 1.986 . S
O770 C777 1.262 . S
O771 Zn766 2.049 . S
O771 C779 1.260 . S
O772 Zn767 1.996 . S
O772 C779 1.257 . S
C773 O768 1.254 . S
C773 O769 1.269 . S
C774 O775 1.249 . S
C774 O776 1.270 . S
O775 Zn767 1.943 . S
O775 C774 1.249 . S
O776 Zn766 2.067 . S
O776 C774 1.270 . S
C777 O770 1.262 . S
C777 O778 1.232 . S
O778 C777 1.232 . S
C779 O771 1.260 . S
C779 O772 1.257 . S
Zn780 O783 2.031 . S
Zn780 O785 2.049 . S
Zn780 O790 2.067 . S
Zn781 O782 1.962 . S
Zn781 O784 1.986 . S
Zn781 O786 1.996 1_455 S
Zn781 O789 1.943 . S
O782 Zn781 1.962 . S
O782 C787 1.254 . S
O783 Zn780 2.031 . S
O783 C787 1.269 1_655 S
O784 Zn781 1.986 . S
O784 C791 1.262 . S
O785 Zn780 2.049 . S
O785 C793 1.260 . S
O786 Zn781 1.996 1_655 S
O786 C793 1.257 . S
C787 O782 1.254 . S
C787 O783 1.269 1_455 S
C788 O789 1.249 1_655 S
C788 O790 1.270 . S
O789 Zn781 1.943 . S
O789 C788 1.249 1_455 S
O790 Zn780 2.067 . S
O790 C788 1.270 . S
C791 O784 1.262 . S
C791 O792 1.232 . S
O792 C791 1.232 . S
C793 O785 1.260 . S
C793 O786 1.257 . S
Zn794 O797 2.031 . S
Zn794 O799 2.049 . S
Zn794 O804 2.067 . S
Zn795 O796 1.962 . S
Zn795 O798 1.986 . S
Zn795 O800 1.996 . S
Zn795 O803 1.943 . S
O796 Zn795 1.962 . S
O796 C801 1.254 . S
O797 Zn794 2.031 . S
O797 C801 1.269 . S
O798 Zn795 1.986 . S
O798 C805 1.262 . S
O799 Zn794 2.049 . S
O799 C807 1.260 . S
O800 Zn795 1.996 . S
O800 C807 1.257 . S
C801 O796 1.254 . S
C801 O797 1.269 . S
C802 O803 1.249 . S
C802 O804 1.270 . S
O803 Zn795 1.943 . S
O803 C802 1.249 . S
O804 Zn794 2.067 . S
O804 C802 1.270 . S
C805 O798 1.262 . S
C805 O806 1.232 . S
O806 C805 1.232 . S
C807 O799 1.260 . S
C807 O800 1.257 . S
C648 C202 1.538 . S
C661 C261 1.518 . S
C282 C681 1.736 . S
C695 C162 1.414 . S
C707 C402 1.515 . S
C721 C482 1.488 . S
C442 C731 1.472 . S
C746 C381 1.563 . S
C461 C760 1.517 . S
C779 C362 1.404 . S
C415 C759 1.414 . S
C777 C495 1.469 . S
C301 C793 1.840 . S
C175 C787 1.589 . S
C215 C791 1.503 . S
C242 C788 1.555 . S
C141 C690 1.633 . S
C581 C689 1.515 . S
C653 C615 1.516 . S
C667 C335 1.696 . S
C181 C704 1.651 . S
C749 C455 1.494 . S
C703 C375 1.536 . S
C735 C501 1.561 . S
C732 C562 1.538 . S
C621 C745 1.518 . S
C322 C709 1.736 . S
C723 C522 1.414 . S
C122 C679 1.515 . S
C693 C2 1.488 . S
C647 C42 1.472 . S
C662 C101 1.563 . S
C61 C774 1.517 . S
C82 C765 1.404 . S
C135 C773 1.414 . S
C15 C763 1.469 . S
C807 C341 1.840 . S
C801 C535 1.589 . S
C805 C575 1.504 . S
C602 C802 1.555 . S
C421 C718 1.633 . S
C717 C221 1.515 . S
C737 C255 1.516 . S
C751 C295 1.696 . S
C541 C676 1.651 . S
C665 C55 1.494 . S
C95 C675 1.535 . S
C651 C21 1.561 . S
