# Generated by pormake.
# Topology gar, (4,6)-cn, num edge types: 1
# Building blocks:
#     Node 0, Type 0, BuildingBlock: TATPOV_clean_sbu_0, # of connection points: 4
#     Node 1, Type 0, BuildingBlock: TATPOV_clean_sbu_0, # of connection points: 4
#     Node 2, Type 0, BuildingBlock: TATPOV_clean_sbu_0, # of connection points: 4
#     Node 3, Type 0, BuildingBlock: TATPOV_clean_sbu_0, # of connection points: 4
#     Node 4, Type 0, BuildingBlock: TATPOV_clean_sbu_0, # of connection points: 4
#     Node 5, Type 0, BuildingBlock: TATPOV_clean_sbu_0, # of connection points: 4
#     Node 6, Type 0, BuildingBlock: TATPOV_clean_sbu_0, # of connection points: 4
#     Node 7, Type 0, BuildingBlock: TATPOV_clean_sbu_0, # of connection points: 4
#     Node 8, Type 0, BuildingBlock: TATPOV_clean_sbu_0, # of connection points: 4
#     Node 9, Type 0, BuildingBlock: TATPOV_clean_sbu_0, # of connection points: 4
#     Node 10, Type 0, BuildingBlock: TATPOV_clean_sbu_0, # of connection points: 4
#     Node 11, Type 0, BuildingBlock: TATPOV_clean_sbu_0, # of connection points: 4
#     Node 12, Type 0, BuildingBlock: TATPOV_clean_sbu_0, # of connection points: 4
#     Node 13, Type 0, BuildingBlock: TATPOV_clean_sbu_0, # of connection points: 4
#     Node 14, Type 0, BuildingBlock: TATPOV_clean_sbu_0, # of connection points: 4
#     Node 15, Type 0, BuildingBlock: TATPOV_clean_sbu_0, # of connection points: 4
#     Node 16, Type 0, BuildingBlock: TATPOV_clean_sbu_0, # of connection points: 4
#     Node 17, Type 0, BuildingBlock: TATPOV_clean_sbu_0, # of connection points: 4
#     Node 18, Type 0, BuildingBlock: TATPOV_clean_sbu_0, # of connection points: 4
#     Node 19, Type 0, BuildingBlock: TATPOV_clean_sbu_0, # of connection points: 4
#     Node 20, Type 0, BuildingBlock: TATPOV_clean_sbu_0, # of connection points: 4
#     Node 21, Type 0, BuildingBlock: TATPOV_clean_sbu_0, # of connection points: 4
#     Node 22, Type 0, BuildingBlock: TATPOV_clean_sbu_0, # of connection points: 4
#     Node 23, Type 0, BuildingBlock: TATPOV_clean_sbu_0, # of connection points: 4
#     Node 24, Type 1, BuildingBlock: BETGAK_clean_sbu_0, # of connection points: 6
#     Node 25, Type 1, BuildingBlock: BETGAK_clean_sbu_0, # of connection points: 6
#     Node 26, Type 1, BuildingBlock: BETGAK_clean_sbu_0, # of connection points: 6
#     Node 27, Type 1, BuildingBlock: BETGAK_clean_sbu_0, # of connection points: 6
#     Node 28, Type 1, BuildingBlock: BETGAK_clean_sbu_0, # of connection points: 6
#     Node 29, Type 1, BuildingBlock: BETGAK_clean_sbu_0, # of connection points: 6
#     Node 30, Type 1, BuildingBlock: BETGAK_clean_sbu_0, # of connection points: 6
#     Node 31, Type 1, BuildingBlock: BETGAK_clean_sbu_0, # of connection points: 6
#     Node 32, Type 1, BuildingBlock: BETGAK_clean_sbu_0, # of connection points: 6
#     Node 33, Type 1, BuildingBlock: BETGAK_clean_sbu_0, # of connection points: 6
#     Node 34, Type 1, BuildingBlock: BETGAK_clean_sbu_0, # of connection points: 6
#     Node 35, Type 1, BuildingBlock: BETGAK_clean_sbu_0, # of connection points: 6
#     Node 36, Type 1, BuildingBlock: BETGAK_clean_sbu_0, # of connection points: 6
#     Node 37, Type 1, BuildingBlock: BETGAK_clean_sbu_0, # of connection points: 6
#     Node 38, Type 1, BuildingBlock: BETGAK_clean_sbu_0, # of connection points: 6
#     Node 39, Type 1, BuildingBlock: BETGAK_clean_sbu_0, # of connection points: 6
#     Edge 40, Type (0, 1), BuildingBlock: TEMPAE_clean_linker_10, # of connection points: 2
#     Edge 41, Type (0, 1), BuildingBlock: TEMPAE_clean_linker_10, # of connection points: 2
#     Edge 42, Type (0, 1), BuildingBlock: TEMPAE_clean_linker_10, # of connection points: 2
#     Edge 43, Type (0, 1), BuildingBlock: TEMPAE_clean_linker_10, # of connection points: 2
#     Edge 44, Type (0, 1), BuildingBlock: TEMPAE_clean_linker_10, # of connection points: 2
#     Edge 45, Type (0, 1), BuildingBlock: TEMPAE_clean_linker_10, # of connection points: 2
#     Edge 46, Type (0, 1), BuildingBlock: TEMPAE_clean_linker_10, # of connection points: 2
#     Edge 47, Type (0, 1), BuildingBlock: TEMPAE_clean_linker_10, # of connection points: 2
#     Edge 48, Type (0, 1), BuildingBlock: TEMPAE_clean_linker_10, # of connection points: 2
#     Edge 49, Type (0, 1), BuildingBlock: TEMPAE_clean_linker_10, # of connection points: 2
#     Edge 50, Type (0, 1), BuildingBlock: TEMPAE_clean_linker_10, # of connection points: 2
#     Edge 51, Type (0, 1), BuildingBlock: TEMPAE_clean_linker_10, # of connection points: 2
#     Edge 52, Type (0, 1), BuildingBlock: TEMPAE_clean_linker_10, # of connection points: 2
#     Edge 53, Type (0, 1), BuildingBlock: TEMPAE_clean_linker_10, # of connection points: 2
#     Edge 54, Type (0, 1), BuildingBlock: TEMPAE_clean_linker_10, # of connection points: 2
#     Edge 55, Type (0, 1), BuildingBlock: TEMPAE_clean_linker_10, # of connection points: 2
#     Edge 56, Type (0, 1), BuildingBlock: TEMPAE_clean_linker_10, # of connection points: 2
#     Edge 57, Type (0, 1), BuildingBlock: TEMPAE_clean_linker_10, # of connection points: 2
#     Edge 58, Type (0, 1), BuildingBlock: TEMPAE_clean_linker_10, # of connection points: 2
#     Edge 59, Type (0, 1), BuildingBlock: TEMPAE_clean_linker_10, # of connection points: 2
#     Edge 60, Type (0, 1), BuildingBlock: TEMPAE_clean_linker_10, # of connection points: 2
#     Edge 61, Type (0, 1), BuildingBlock: TEMPAE_clean_linker_10, # of connection points: 2
#     Edge 62, Type (0, 1), BuildingBlock: TEMPAE_clean_linker_10, # of connection points: 2
#     Edge 63, Type (0, 1), BuildingBlock: TEMPAE_clean_linker_10, # of connection points: 2
#     Edge 64, Type (0, 1), BuildingBlock: TEMPAE_clean_linker_10, # of connection points: 2
#     Edge 65, Type (0, 1), BuildingBlock: TEMPAE_clean_linker_10, # of connection points: 2
#     Edge 66, Type (0, 1), BuildingBlock: TEMPAE_clean_linker_10, # of connection points: 2
#     Edge 67, Type (0, 1), BuildingBlock: TEMPAE_clean_linker_10, # of connection points: 2
#     Edge 68, Type (0, 1), BuildingBlock: TEMPAE_clean_linker_10, # of connection points: 2
#     Edge 69, Type (0, 1), BuildingBlock: TEMPAE_clean_linker_10, # of connection points: 2
#     Edge 70, Type (0, 1), BuildingBlock: TEMPAE_clean_linker_10, # of connection points: 2
#     Edge 71, Type (0, 1), BuildingBlock: TEMPAE_clean_linker_10, # of connection points: 2
#     Edge 72, Type (0, 1), BuildingBlock: TEMPAE_clean_linker_10, # of connection points: 2
#     Edge 73, Type (0, 1), BuildingBlock: TEMPAE_clean_linker_10, # of connection points: 2
#     Edge 74, Type (0, 1), BuildingBlock: TEMPAE_clean_linker_10, # of connection points: 2
#     Edge 75, Type (0, 1), BuildingBlock: TEMPAE_clean_linker_10, # of connection points: 2
#     Edge 76, Type (0, 1), BuildingBlock: TEMPAE_clean_linker_10, # of connection points: 2
#     Edge 77, Type (0, 1), BuildingBlock: TEMPAE_clean_linker_10, # of connection points: 2
#     Edge 78, Type (0, 1), BuildingBlock: TEMPAE_clean_linker_10, # of connection points: 2
#     Edge 79, Type (0, 1), BuildingBlock: TEMPAE_clean_linker_10, # of connection points: 2
#     Edge 80, Type (0, 1), BuildingBlock: TEMPAE_clean_linker_10, # of connection points: 2
#     Edge 81, Type (0, 1), BuildingBlock: TEMPAE_clean_linker_10, # of connection points: 2
#     Edge 82, Type (0, 1), BuildingBlock: TEMPAE_clean_linker_10, # of connection points: 2
#     Edge 83, Type (0, 1), BuildingBlock: TEMPAE_clean_linker_10, # of connection points: 2
#     Edge 84, Type (0, 1), BuildingBlock: TEMPAE_clean_linker_10, # of connection points: 2
#     Edge 85, Type (0, 1), BuildingBlock: TEMPAE_clean_linker_10, # of connection points: 2
#     Edge 86, Type (0, 1), BuildingBlock: TEMPAE_clean_linker_10, # of connection points: 2
#     Edge 87, Type (0, 1), BuildingBlock: TEMPAE_clean_linker_10, # of connection points: 2
#     Edge 88, Type (0, 1), BuildingBlock: TEMPAE_clean_linker_10, # of connection points: 2
#     Edge 89, Type (0, 1), BuildingBlock: TEMPAE_clean_linker_10, # of connection points: 2
#     Edge 90, Type (0, 1), BuildingBlock: TEMPAE_clean_linker_10, # of connection points: 2
#     Edge 91, Type (0, 1), BuildingBlock: TEMPAE_clean_linker_10, # of connection points: 2
#     Edge 92, Type (0, 1), BuildingBlock: TEMPAE_clean_linker_10, # of connection points: 2
#     Edge 93, Type (0, 1), BuildingBlock: TEMPAE_clean_linker_10, # of connection points: 2
#     Edge 94, Type (0, 1), BuildingBlock: TEMPAE_clean_linker_10, # of connection points: 2
#     Edge 95, Type (0, 1), BuildingBlock: TEMPAE_clean_linker_10, # of connection points: 2
#     Edge 96, Type (0, 1), BuildingBlock: TEMPAE_clean_linker_10, # of connection points: 2
#     Edge 97, Type (0, 1), BuildingBlock: TEMPAE_clean_linker_10, # of connection points: 2
#     Edge 98, Type (0, 1), BuildingBlock: TEMPAE_clean_linker_10, # of connection points: 2
#     Edge 99, Type (0, 1), BuildingBlock: TEMPAE_clean_linker_10, # of connection points: 2
#     Edge 100, Type (0, 1), BuildingBlock: TEMPAE_clean_linker_10, # of connection points: 2
#     Edge 101, Type (0, 1), BuildingBlock: TEMPAE_clean_linker_10, # of connection points: 2
#     Edge 102, Type (0, 1), BuildingBlock: TEMPAE_clean_linker_10, # of connection points: 2
#     Edge 103, Type (0, 1), BuildingBlock: TEMPAE_clean_linker_10, # of connection points: 2
#     Edge 104, Type (0, 1), BuildingBlock: TEMPAE_clean_linker_10, # of connection points: 2
#     Edge 105, Type (0, 1), BuildingBlock: TEMPAE_clean_linker_10, # of connection points: 2
#     Edge 106, Type (0, 1), BuildingBlock: TEMPAE_clean_linker_10, # of connection points: 2
#     Edge 107, Type (0, 1), BuildingBlock: TEMPAE_clean_linker_10, # of connection points: 2
#     Edge 108, Type (0, 1), BuildingBlock: TEMPAE_clean_linker_10, # of connection points: 2
#     Edge 109, Type (0, 1), BuildingBlock: TEMPAE_clean_linker_10, # of connection points: 2
#     Edge 110, Type (0, 1), BuildingBlock: TEMPAE_clean_linker_10, # of connection points: 2
#     Edge 111, Type (0, 1), BuildingBlock: TEMPAE_clean_linker_10, # of connection points: 2
#     Edge 112, Type (0, 1), BuildingBlock: TEMPAE_clean_linker_10, # of connection points: 2
#     Edge 113, Type (0, 1), BuildingBlock: TEMPAE_clean_linker_10, # of connection points: 2
#     Edge 114, Type (0, 1), BuildingBlock: TEMPAE_clean_linker_10, # of connection points: 2
#     Edge 115, Type (0, 1), BuildingBlock: TEMPAE_clean_linker_10, # of connection points: 2
#     Edge 116, Type (0, 1), BuildingBlock: TEMPAE_clean_linker_10, # of connection points: 2
#     Edge 117, Type (0, 1), BuildingBlock: TEMPAE_clean_linker_10, # of connection points: 2
#     Edge 118, Type (0, 1), BuildingBlock: TEMPAE_clean_linker_10, # of connection points: 2
#     Edge 119, Type (0, 1), BuildingBlock: TEMPAE_clean_linker_10, # of connection points: 2
#     Edge 120, Type (0, 1), BuildingBlock: TEMPAE_clean_linker_10, # of connection points: 2
#     Edge 121, Type (0, 1), BuildingBlock: TEMPAE_clean_linker_10, # of connection points: 2
#     Edge 122, Type (0, 1), BuildingBlock: TEMPAE_clean_linker_10, # of connection points: 2
#     Edge 123, Type (0, 1), BuildingBlock: TEMPAE_clean_linker_10, # of connection points: 2
#     Edge 124, Type (0, 1), BuildingBlock: TEMPAE_clean_linker_10, # of connection points: 2
#     Edge 125, Type (0, 1), BuildingBlock: TEMPAE_clean_linker_10, # of connection points: 2
#     Edge 126, Type (0, 1), BuildingBlock: TEMPAE_clean_linker_10, # of connection points: 2
#     Edge 127, Type (0, 1), BuildingBlock: TEMPAE_clean_linker_10, # of connection points: 2
#     Edge 128, Type (0, 1), BuildingBlock: TEMPAE_clean_linker_10, # of connection points: 2
#     Edge 129, Type (0, 1), BuildingBlock: TEMPAE_clean_linker_10, # of connection points: 2
#     Edge 130, Type (0, 1), BuildingBlock: TEMPAE_clean_linker_10, # of connection points: 2
#     Edge 131, Type (0, 1), BuildingBlock: TEMPAE_clean_linker_10, # of connection points: 2
#     Edge 132, Type (0, 1), BuildingBlock: TEMPAE_clean_linker_10, # of connection points: 2
#     Edge 133, Type (0, 1), BuildingBlock: TEMPAE_clean_linker_10, # of connection points: 2
#     Edge 134, Type (0, 1), BuildingBlock: TEMPAE_clean_linker_10, # of connection points: 2
#     Edge 135, Type (0, 1), BuildingBlock: TEMPAE_clean_linker_10, # of connection points: 2
# Relax obj value: 0.215
# Max RMSD: 0.316
# Mean RMSD: 0.177
data_MOF--net-gar--node1-TATPOV_clean_sbu_0--node2-BETGAK_clean_sbu_0--edge1-TEMPAE_clean_linker_10
_symmetry_space_group_name_H-M    P1
_symmetry_Int_Tables_number       1
_symmetry_cell_setting            triclinic
loop_
_symmetry_equiv_pos_as_xyz
'x, y, z'
_cell_length_a     63.038625
_cell_length_b     57.721582
_cell_length_c     58.141169
_cell_angle_alpha  99.305025
_cell_angle_beta   95.986302
_cell_angle_gamma 104.92565
loop_
_atom_site_label
_atom_site_type_symbol
_atom_site_fract_x
_atom_site_fract_y
_atom_site_fract_z
_atom_type_partial_charge
Zn0 Zn 0.10729 0.3522 0.4419 0.0
Zn1 Zn 0.12825 0.34813 0.40606 0.0
O2 O 0.13366 0.38541 0.4175 0.0
O3 O 0.11913 0.38853 0.45021 0.0
O4 O 0.14927 0.34633 0.38268 0.0
O5 O 0.12057 0.331 0.45923 0.0
O6 O 0.13573 0.3247 0.4273 0.0
C7 C 0.12925 0.39858 0.43516 0.0
C8 C 0.07893 0.3312 0.39576 0.0
O9 O 0.09717 0.33397 0.38753 0.0
O10 O 0.0791 0.33726 0.41778 0.0
C11 C 0.14909 0.35452 0.36366 0.0
O12 O 0.13371 0.36499 0.35768 0.0
C13 C 0.13202 0.31997 0.44743 0.0
Zn14 Zn 1.00622 0.71221 0.6975 0.0
Zn15 Zn 1.00142 0.74298 0.6671 0.0
O16 O 0.97336 0.73862 0.68267 0.0
O17 O 0.97629 0.71283 0.70617 0.0
O18 O 1.00004 0.7663 0.64484 0.0
O19 O 0.03401 0.73774 0.71482 0.0
O20 O 0.03075 0.76057 0.68855 0.0
C21 C 0.96554 0.72594 0.69749 0.0
C22 C 1.00709 0.69241 0.6489 0.0
O23 O 1.00348 0.71241 0.64555 0.0
O24 O 0.0091 0.6879 0.66951 0.0
C25 C 0.99098 0.78365 0.64761 0.0
O26 O 0.98036 0.78658 0.66566 0.0
C27 C 0.04154 0.75675 0.70662 0.0
Zn28 Zn 0.58042 0.83397 0.94416 0.0
Zn29 Zn 0.63825 0.85267 0.90369 0.0
O30 O 0.6396 0.88256 0.92944 0.0
O31 O 0.61072 0.85622 0.93638 0.0
O32 O 0.66361 0.85996 0.88541 0.0
O33 O 0.60987 0.82916 0.93098 0.0
O34 O 0.63919 0.82226 0.91825 0.0
C35 C 0.6237 0.87803 0.94132 0.0
C36 C 0.59181 0.8396 0.89155 0.0
O37 O 0.60865 0.84504 0.88115 0.0
O38 O 0.59568 0.83889 0.91345 0.0
C39 C 0.66216 0.86744 0.86606 0.0
O40 O 0.64365 0.87186 0.85798 0.0
C41 C 0.62326 0.81579 0.92967 0.0
Zn42 Zn 0.48834 0.19652 0.17718 0.0
Zn43 Zn 0.49248 0.23566 0.15657 0.0
O44 O 0.46266 0.23139 0.16963 0.0
O45 O 0.45852 0.19826 0.18494 0.0
O46 O 0.49661 0.26511 0.14092 0.0
O47 O 0.51544 0.21477 0.20057 0.0
O48 O 0.52002 0.24572 0.18213 0.0
C49 C 0.4515 0.21593 0.18038 0.0
C50 C 0.49558 0.18698 0.12896 0.0
O51 O 0.49471 0.20886 0.12956 0.0
O52 O 0.49305 0.17736 0.14694 0.0
C53 C 0.48411 0.27918 0.13996 0.0
O54 O 0.46616 0.27513 0.15005 0.0
C55 C 0.52671 0.23564 0.19834 0.0
Zn56 Zn 0.13246 0.8238 0.09697 0.0
Zn57 Zn 0.10576 0.82298 0.12939 0.0
O58 O 0.10271 0.85217 0.11196 0.0
O59 O 0.12459 0.85217 0.08495 0.0
O60 O 0.08171 0.82063 0.15153 0.0
O61 O 0.11663 0.78876 0.08093 0.0
O62 O 0.09573 0.78737 0.10894 0.0
C63 C 0.11083 0.86121 0.09498 0.0
C64 C 0.15607 0.82938 0.14454 0.0
O65 O 0.13683 0.82807 0.15055 0.0
O66 O 0.1584 0.82882 0.12305 0.0
C67 C 0.0683 0.8339 0.15242 0.0
O68 O 0.07059 0.85116 0.13992 0.0
C69 C 0.10155 0.77667 0.09061 0.0
Zn70 Zn 0.49042 0.76338 0.43815 0.0
Zn71 Zn 0.52115 0.7666 0.40984 0.0
O72 O 0.53056 0.80129 0.4312 0.0
O73 O 0.50546 0.79881 0.45495 0.0
O74 O 0.5455 0.768 0.38874 0.0
O75 O 0.49823 0.73479 0.45043 0.0
O76 O 0.523 0.73656 0.42639 0.0
C77 C 0.52231 0.81134 0.44792 0.0
C78 C 0.47187 0.76134 0.38983 0.0
O79 O 0.49218 0.76419 0.38696 0.0
O80 O 0.4663 0.75864 0.4098 0.0
C81 C 0.5656 0.77998 0.39693 0.0
O82 O 0.57041 0.79144 0.41907 0.0
C83 C 0.51325 0.7266 0.44207 0.0
Zn84 Zn 0.63019 0.3235 0.60197 0.0
Zn85 Zn 0.60047 0.32107 0.6311 0.0
O86 O 0.59785 0.35022 0.61363 0.0
O87 O 0.62171 0.35092 0.58861 0.0
O88 O 0.57576 0.31934 0.65182 0.0
O89 O 0.61598 0.28784 0.58621 0.0
O90 O 0.59152 0.2857 0.61069 0.0
C91 C 0.60701 0.35944 0.59725 0.0
C92 C 0.6503 0.32949 0.65062 0.0
O93 O 0.63012 0.32617 0.65423 0.0
O94 O 0.65484 0.33045 0.62998 0.0
C95 C 0.55574 0.31452 0.6417 0.0
O96 O 0.55192 0.31104 0.61857 0.0
C97 C 0.59956 0.27537 0.59391 0.0
Zn98 Zn 0.99019 0.26534 0.94059 0.0
Zn99 Zn 0.01729 0.26523 0.90896 0.0
O100 O 0.02793 0.30085 0.92941 0.0
O101 O 1.00713 0.29977 0.95751 0.0
O102 O 0.04145 0.26474 0.88754 0.0
O103 O 0.99607 0.23561 0.95205 0.0
O104 O 0.01911 0.23561 0.92624 0.0
C105 C 0.02231 0.31166 0.94781 0.0
C106 C 0.96824 0.26255 0.89273 0.0
O107 O 0.98721 0.26187 0.88698 0.0
O108 O 0.96535 0.26326 0.91409 0.0
C109 C 0.05398 0.28387 0.88256 0.0
O110 O 0.0505 0.30511 0.88999 0.0
C111 C 0.01001 0.22633 0.94263 0.0
Zn112 Zn 0.47663 0.06352 0.32053 0.0
Zn113 Zn 0.44732 0.08776 0.32926 0.0
O114 O 0.47149 0.10304 0.3584 0.0
O115 O 0.49723 0.08544 0.34852 0.0
O116 O 0.42472 0.10628 0.33245 0.0
O117 O 0.4786 0.07233 0.28895 0.0
O118 O 0.45547 0.09415 0.29691 0.0
C119 C 0.49091 0.10047 0.36264 0.0
C120 C 0.43512 0.03252 0.32708 0.0
O121 O 0.4297 0.05245 0.32903 0.0
O122 O 0.45466 0.03238 0.32385 0.0
C123 C 0.40754 0.10063 0.34228 0.0
O124 O 0.40457 0.08222 0.35339 0.0
C125 C 0.46769 0.08657 0.28307 0.0
Zn126 Zn 0.26229 0.21399 0.49695 0.0
Zn127 Zn 0.28765 0.18452 0.4955 0.0
O128 O 0.29148 0.20126 0.46523 0.0
O129 O 0.27188 0.22775 0.46874 0.0
O130 O 0.31251 0.16697 0.4964 0.0
O131 O 0.27511 0.23218 0.53028 0.0
O132 O 0.29477 0.20581 0.53026 0.0
C133 C 0.2844 0.2179 0.45739 0.0
C134 C 0.23751 0.16214 0.49087 0.0
O135 O 0.25672 0.15838 0.49173 0.0
O136 O 0.2359 0.18377 0.49225 0.0
C137 C 0.31356 0.14803 0.48232 0.0
O138 O 0.29699 0.13717 0.46512 0.0
C139 C 0.28872 0.22353 0.54126 0.0
Zn140 Zn 0.15599 0.04306 0.78258 0.0
Zn141 Zn 0.18129 0.01419 0.78087 0.0
O142 O 0.16312 0.01358 0.81531 0.0
O143 O 0.14179 0.03781 0.81162 0.0
O144 O 0.20166 0.98447 0.77753 0.0
O145 O 0.13789 0.03204 0.74985 0.0
O146 O 0.1606 1.00924 0.74387 0.0
C147 C 0.14863 0.02418 0.82386 0.0
C148 C 0.20126 0.07295 0.78523 0.0
O149 O 0.20522 0.05174 0.78358 0.0
O150 O 0.18145 0.07375 0.78599 0.0
C151 C 0.20144 0.96521 0.78702 0.0
O152 O 0.18732 0.96068 0.80192 0.0
C153 C 0.14487 0.01793 0.73541 0.0
Zn154 Zn 0.29633 0.86908 0.00972 0.0
Zn155 Zn 0.28325 0.90409 0.99291 0.0
O156 O 0.27359 0.87494 0.96461 0.0
O157 O 0.28499 0.84634 0.97876 0.0
O158 O 0.27137 0.9306 0.98276 0.0
O159 O 0.27712 0.86979 0.03498 0.0
O160 O 0.26951 0.90143 0.02326 0.0
C161 C 0.27596 0.8534 0.96176 0.0
C162 C 0.33245 0.91153 0.0091 0.0
O163 O 0.31693 0.91893 0.99962 0.0
O164 O 0.32797 0.89106 0.0155 0.0
C165 C 0.2784 0.95137 0.99654 0.0
O166 O 0.294 0.95436 0.01449 0.0
C167 C 0.26793 0.8869 0.03767 0.0
Zn168 Zn 0.34867 0.36054 0.03962 0.0
Zn169 Zn 0.32549 0.39254 0.04049 0.0
O170 O 0.31783 0.37233 1.0054 0.0
O171 O 0.33569 0.34427 1.00573 0.0
O172 O 0.30426 0.41464 0.04094 0.0
O173 O 0.33638 0.34687 0.06691 0.0
O174 O 0.318 0.37454 0.06928 0.0
C175 C 0.3232 0.35404 0.99452 0.0
C176 C 0.37668 0.4108 0.04699 0.0
O177 O 0.35802 0.41588 0.04561 0.0
O178 O 0.37699 0.38872 0.04555 0.0
C179 C 0.28357 0.40502 0.03339 0.0
O180 O 0.27654 0.3813 0.02538 0.0
C181 C 0.32345 0.35705 0.07721 0.0
Zn182 Zn 0.75028 0.16137 0.02229 0.0
Zn183 Zn 0.79318 0.12674 0.04635 0.0
O184 O 0.80144 0.12976 0.01308 0.0
O185 O 0.77332 0.14327 0.01668 0.0
O186 O 0.81869 0.11658 0.06183 0.0
O187 O 0.76787 0.18327 0.05319 0.0
O188 O 0.79096 0.16148 0.06469 0.0
C189 C 0.78817 0.14025 1.00443 0.0
C190 C 0.74861 0.10983 0.0361 0.0
O191 O 0.76297 0.10015 0.04408 0.0
O192 O 0.7564 0.13058 0.03105 0.0
C193 C 0.8169 0.09448 0.0635 0.0
O194 O 0.79718 0.07855 0.05821 0.0
C195 C 0.78334 0.18041 0.06779 0.0
Zn196 Zn 0.17819 0.5823 0.20105 0.0
Zn197 Zn 0.20189 0.5546 0.20898 0.0
O198 O 0.19261 0.56424 0.24131 0.0
O199 O 0.18034 0.59545 0.23542 0.0
O200 O 0.22188 0.534 0.2161 0.0
O201 O 0.15293 0.55345 0.18506 0.0
O202 O 0.17674 0.53152 0.18341 0.0
C203 C 0.18601 0.58262 0.24929 0.0
C204 C 0.21928 0.60027 0.18829 0.0
O205 O 0.22274 0.58382 0.19918 0.0
O206 O 0.19962 0.60143 0.18322 0.0
C207 C 0.23638 0.54145 0.23455 0.0
O208 O 0.23814 0.56264 0.24806 0.0
C209 C 0.15733 0.53359 0.17786 0.0
Zn210 Zn 0.85118 0.86154 0.54082 0.0
Zn211 Zn 0.82801 0.89326 0.5416 0.0
O212 O 0.82095 0.87317 0.50631 0.0
O213 O 0.83883 0.84515 0.50694 0.0
O214 O 0.80627 0.91488 0.54213 0.0
O215 O 0.83936 0.84756 0.56805 0.0
O216 O 0.82134 0.87556 0.5708 0.0
C217 C 0.82659 0.85501 0.49551 0.0
C218 C 0.87895 0.9119 0.54829 0.0
O219 O 0.86028 0.91695 0.54677 0.0
O220 O 0.87931 0.88985 0.54689 0.0
C221 C 0.7854 0.90476 0.53983 0.0
O222 O 0.77848 0.88082 0.53701 0.0
C223 C 0.82686 0.85809 0.57871 0.0
Zn224 Zn 0.96246 0.03037 0.25664 0.0
Zn225 Zn 0.93872 0.06164 0.25988 0.0
O226 O 0.95929 0.06593 0.29675 0.0
O227 O 0.98003 0.04091 0.28998 0.0
O228 O 0.92036 0.09276 0.25987 0.0
O229 O 0.97693 0.03652 0.2276 0.0
O230 O 0.95668 0.06205 0.22573 0.0
C231 C 0.97415 0.05581 0.30477 0.0
C232 C 0.91648 1.00302 0.25467 0.0
O233 O 0.91388 0.02491 0.25742 0.0
O234 O 0.93563 1.00061 0.25254 0.0
C235 C 0.91169 0.10491 0.27565 0.0
O236 O 0.91282 0.09915 0.29661 0.0
C237 C 0.97058 0.0512 0.21636 0.0
Zn238 Zn 0.25948 0.69483 0.53423 0.0
Zn239 Zn 0.30593 0.65937 0.54423 0.0
O240 O 0.30384 0.65947 0.5083 0.0
O241 O 0.27959 0.67566 0.52137 0.0
O242 O 0.33195 0.64634 0.5521 0.0
O243 O 0.2842 0.71728 0.55976 0.0
O244 O 0.30886 0.6952 0.56452 0.0
C245 C 0.28844 0.66913 0.50388 0.0
C246 C 0.26263 0.64414 0.54719 0.0
O247 O 0.27796 0.63394 0.54986 0.0
O248 O 0.26836 0.66505 0.54193 0.0
C249 C 0.32988 0.62614 0.53827 0.0
O250 O 0.31192 0.6169 0.52243 0.0
C251 C 0.30232 0.71467 0.56994 0.0
Zn252 Zn 0.4645 0.53434 0.75664 0.0
Zn253 Zn 0.43993 0.56412 0.75881 0.0
O254 O 0.45984 0.56811 0.79613 0.0
O255 O 0.48203 0.54469 0.78986 0.0
O256 O 0.42229 0.59588 0.75891 0.0
O257 O 0.47919 0.5397 0.72764 0.0
O258 O 0.45829 0.56444 0.72483 0.0
C259 C 0.47514 0.55873 0.8045 0.0
C260 C 0.41828 0.50577 0.75341 0.0
O261 O 0.41486 0.52726 0.75544 0.0
O262 O 0.43795 0.50443 0.75263 0.0
C263 C 0.41048 0.60542 0.77306 0.0
O264 O 0.40693 0.59576 0.79176 0.0
C265 C 0.47251 0.5538 0.71588 0.0
Zn266 Zn 0.63687 0.04278 0.73529 0.0
Zn267 Zn 0.66841 0.01971 0.73243 0.0
O268 O 0.65413 1.00979 0.76094 0.0
O269 O 0.62979 0.0309 0.76476 0.0
O270 O 0.69332 1.0041 0.73329 0.0
O271 O 0.62166 0.02111 0.70426 0.0
O272 O 0.64904 1.00422 0.70017 0.0
C273 C 0.6393 0.01596 0.77182 0.0
C274 C 0.67928 0.07585 0.73727 0.0
O275 O 0.68482 0.05603 0.73586 0.0
O276 O 0.65908 0.07543 0.73693 0.0
C277 C 0.71067 0.01471 0.7483 0.0
O278 O 0.71175 0.03549 0.76215 0.0
C279 C 0.63017 1.00644 0.69239 0.0
Zn280 Zn 0.76265 0.71605 0.99914 0.0
Zn281 Zn 0.7866 0.68476 0.99636 0.0
O282 O 0.79179 0.70256 0.96707 0.0
O283 O 0.77303 0.72984 0.97117 0.0
O284 O 0.80849 0.66349 0.99484 0.0
O285 O 0.77705 0.73263 0.03257 0.0
O286 O 0.79577 0.70527 0.03129 0.0
C287 C 0.78545 0.71986 0.95975 0.0
C288 C 0.73571 0.66536 0.99249 0.0
O289 O 0.75455 0.66074 0.99279 0.0
O290 O 0.73489 0.6873 0.99437 0.0
C291 C 0.82927 0.67406 0.9971 0.0
O292 O 0.83574 0.69802 1.00009 0.0
C293 C 0.79056 0.72333 0.04283 0.0
Zn294 Zn 0.9799 0.53593 0.80052 0.0
Zn295 Zn 0.95109 0.56154 0.80033 0.0
O296 O 0.97263 0.57872 0.83133 0.0
O297 O 0.99873 0.55984 0.82831 0.0
O298 O 0.92887 0.5809 0.79848 0.0
O299 O 0.98539 0.53984 0.76824 0.0
O300 O 0.96325 0.56371 0.7688 0.0
C301 C 0.99139 0.5762 0.83919 0.0
C302 C 0.93661 0.50728 0.80334 0.0
O303 O 0.9319 0.52713 0.80136 0.0
O304 O 0.95655 0.50646 0.80446 0.0
C305 C 0.91159 0.57203 0.78302 0.0
O306 O 0.9089 0.55064 0.76942 0.0
C307 C 0.97614 0.55339 0.75829 0.0
Zn308 Zn 0.85879 0.42298 0.49222 0.0
Zn309 Zn 0.82429 0.43781 0.49047 0.0
O310 O 0.81335 0.40435 0.4676 0.0
O311 O 0.84115 0.38922 0.4762 0.0
O312 O 0.79767 0.45096 0.49164 0.0
O313 O 0.8664 0.43124 0.52741 0.0
O314 O 0.83261 0.43528 0.52525 0.0
C315 C 0.82207 0.38662 0.46507 0.0
C316 C 0.86357 0.4623 0.4683 0.0
O317 O 0.84585 0.46349 0.47648 0.0
O318 O 0.87229 0.4455 0.47172 0.0
C319 C 0.80134 0.47385 0.49884 0.0
O320 O 0.82197 0.48753 0.50515 0.0
C321 C 0.85009 0.43384 0.53745 0.0
Zn322 Zn 0.65702 0.54255 0.28187 0.0
Zn323 Zn 0.68124 0.51245 0.27951 0.0
O324 O 0.66343 0.51218 0.31411 0.0
O325 O 0.64303 0.53745 0.31109 0.0
O326 O 0.70012 0.48139 0.27547 0.0
O327 O 0.63853 0.5322 0.2493 0.0
O328 O 0.66027 0.50833 0.24276 0.0
C329 C 0.64945 0.52333 0.323 0.0
C330 C 0.70281 0.57107 0.28439 0.0
O331 O 0.7061 0.54951 0.28243 0.0
O332 O 0.68321 0.57256 0.28535 0.0
C333 C 0.7036 0.46563 0.28843 0.0
O334 O 0.69532 0.46659 0.30826 0.0
C335 C 0.64487 0.51769 0.23461 0.0
La336 La 0.03706 0.02628 1.00647 0.0
La337 La 0.08039 0.05992 0.03299 0.0
C338 C 0.99607 1.0049 0.99886 0.0
C339 C 0.97783 0.01185 0.00933 0.0
C340 C 0.95583 0.9975 1.00209 0.0
C341 C 0.93853 1.00479 0.01162 0.0
C342 C 0.94304 0.02646 0.02866 0.0
C343 C 0.9652 0.04049 0.03619 0.0
C344 C 0.98241 0.03335 0.02645 0.0
C345 C 0.06755 0.02626 0.97585 0.0
C346 C 0.04809 0.08361 1.00604 0.0
C347 C 0.12122 0.08204 0.04269 0.0
C348 C 0.14133 0.07512 0.03682 0.0
C349 C 0.15393 0.06719 0.05366 0.0
C350 C 0.17095 0.0572 0.04746 0.0
C351 C 0.17571 0.05484 0.02424 0.0
C352 C 0.16412 0.0643 0.00779 0.0
C353 C 0.14721 0.07454 0.01409 0.0
C354 C 0.04969 0.05856 0.06364 0.0
C355 C 0.06982 1.00289 0.03316 0.0
O356 O 1.00593 0.01956 0.98584 0.0
O357 O 0.01038 0.99931 0.01341 0.0
O358 O 0.04691 0.01339 0.97216 0.0
O359 O 0.07051 0.03797 0.99738 0.0
O360 O 0.03286 0.06222 1.00248 0.0
O361 O 0.06837 0.08676 0.01695 0.0
O362 O 0.11013 0.06951 0.05659 0.0
O363 O 0.10796 0.08524 0.0253 0.0
O364 O 0.07014 0.07187 0.06745 0.0
O365 O 0.04707 0.04756 0.04199 0.0
O366 O 0.08517 0.02409 0.03597 0.0
O367 O 0.04925 0.99989 0.02314 0.0
H368 H 0.95202 0.98085 0.98889 0.0
H369 H 0.92161 0.99356 1.00559 0.0
H370 H 0.96918 0.0574 0.04906 0.0
H371 H 0.99931 0.04478 0.03208 0.0
H372 H 0.15013 0.06791 0.07147 0.0
H373 H 0.18003 0.05076 0.06075 0.0
H374 H 0.16744 0.06288 0.98979 0.0
H375 H 0.13831 0.08128 1.00095 0.0
La376 La 0.33409 0.81976 0.24726 0.0
La377 La 0.3149 0.80935 0.28969 0.0
C378 C 0.34212 0.83618 0.21104 0.0
C379 C 0.33337 0.85483 0.20185 0.0
C380 C 0.34771 0.87721 0.19981 0.0
C381 C 0.33913 0.89485 0.19134 0.0
C382 C 0.31607 0.89033 0.1848 0.0
C383 C 0.30181 0.86834 0.18785 0.0
C384 C 0.3103 0.85087 0.1963 0.0
C385 C 0.35973 0.80407 0.27682 0.0
C386 C 0.33611 0.86432 0.28726 0.0
C387 C 0.30649 0.80353 0.32995 0.0
C388 C 0.29313 0.78481 0.34092 0.0
C389 C 0.28284 0.79224 0.35987 0.0
C390 C 0.27387 0.77567 0.37368 0.0
C391 C 0.27535 0.75151 0.36889 0.0
C392 C 0.28383 0.74356 0.34857 0.0
C393 C 0.29262 0.76011 0.33461 0.0
C394 C 0.28515 0.80935 0.2535 0.0
C395 C 0.31139 0.766 0.24895 0.0
O396 O 0.35592 0.84384 0.23096 0.0
O397 O 0.32731 0.81541 0.21065 0.0
O398 O 0.35857 0.79966 0.25415 0.0
O399 O 0.3482 0.81845 0.2822 0.0
O400 O 0.33728 0.85671 0.26498 0.0
O401 O 0.32917 0.84883 0.30105 0.0
O402 O 0.29575 0.81437 0.31666 0.0
O403 O 0.32332 0.7983 0.32098 0.0
O404 O 0.28183 0.7944 0.26799 0.0
O405 O 0.30434 0.82387 0.25999 0.0
O406 O 0.3141 0.77278 0.27213 0.0
O407 O 0.31439 0.78218 0.23513 0.0
H408 H 0.36552 0.88088 0.20444 0.0
H409 H 0.35053 0.91165 0.18915 0.0
H410 H 0.28407 0.86391 0.18238 0.0
H411 H 0.29866 0.834 0.19795 0.0
H412 H 0.28287 0.81117 0.36481 0.0
H413 H 0.26703 0.78215 0.38899 0.0
H414 H 0.28524 0.72508 0.34446 0.0
H415 H 0.30024 0.75391 0.31981 0.0
La416 La 0.5865 0.04801 0.52789 0.0
La417 La 0.53564 0.03843 0.51451 0.0
C418 C 0.62509 0.04604 0.54286 0.0
C419 C 0.63877 0.02863 0.54389 0.0
C420 C 0.63589 1.00828 0.52573 0.0
C421 C 0.65088 0.99395 0.52584 0.0
C422 C 0.66909 0.9996 0.54411 0.0
C423 C 0.67132 0.01949 0.56267 0.0
C424 C 0.65639 0.03379 0.56252 0.0
C425 C 0.57323 0.0635 0.49046 0.0
C426 C 0.55544 0.995 0.50015 0.0
C427 C 0.49647 0.03943 0.50053 0.0
C428 C 0.48147 0.05561 0.49965 0.0
C429 C 0.47536 0.06692 0.52026 0.0
C430 C 0.45866 0.07896 0.5189 0.0
C431 C 0.44768 0.08014 0.49692 0.0
C432 C 0.45438 0.06957 0.47635 0.0
C433 C 0.47092 0.05732 0.47772 0.0
C434 C 0.54968 0.02415 0.55247 0.0
C435 C 0.56666 0.09163 0.54193 0.0
O436 O 0.61918 0.05035 0.52204 0.0
O437 O 0.60911 0.04453 0.55576 0.0
O438 O 0.59182 0.07422 0.50444 0.0
O439 O 0.56378 0.04398 0.4967 0.0
O440 O 0.57415 1.00829 0.51405 0.0
O441 O 0.5388 1.00432 0.49483 0.0
O442 O 0.50301 0.03502 0.52111 0.0
O443 O 0.51221 0.04168 0.48729 0.0
O444 O 0.53145 0.01224 0.53836 0.0
O445 O 0.55846 0.04337 0.54562 0.0
O446 O 0.54783 0.07823 0.52823 0.0
O447 O 0.5834 0.08238 0.5472 0.0
H448 H 0.62238 1.00378 0.51118 0.0
H449 H 0.64829 0.97854 0.51146 0.0
H450 H 0.68512 0.02463 0.57697 0.0
H451 H 0.65903 0.04941 0.57669 0.0
H452 H 0.48299 0.06589 0.53749 0.0
H453 H 0.45415 0.08712 0.53511 0.0
H454 H 0.44624 0.06993 0.45911 0.0
H455 H 0.47501 0.04852 0.46152 0.0
La456 La 0.28631 0.29264 0.76401 0.0
La457 La 0.32974 0.28686 0.77214 0.0
C458 C 0.24578 0.29189 0.76368 0.0
C459 C 0.22753 0.28808 0.77819 0.0
C460 C 0.22911 0.30295 0.80037 0.0
C461 C 0.21062 0.30066 0.81229 0.0
C462 C 0.19009 0.2835 0.80233 0.0
C463 C 0.18888 0.26811 0.78052 0.0
C464 C 0.2073 0.27044 0.76861 0.0
C465 C 0.31781 0.33224 0.75804 0.0
C466 C 0.31045 0.30286 0.8168 0.0
C467 C 0.3703 0.28767 0.77276 0.0
C468 C 0.38795 0.28985 0.75762 0.0
C469 C 0.40456 0.27821 0.76169 0.0
C470 C 0.42225 0.28086 0.74872 0.0
C471 C 0.42382 0.29531 0.7313 0.0
C472 C 0.40695 0.30678 0.72704 0.0
C473 C 0.38917 0.30405 0.74004 0.0
C474 C 0.29837 0.24737 0.77844 0.0
C475 C 0.30528 0.27633 0.71925 0.0
O476 O 0.26244 0.3116 0.77036 0.0
O477 O 0.25239 0.27291 0.75559 0.0
O478 O 0.29848 0.32259 0.7452 0.0
O479 O 0.31891 0.31967 0.77402 0.0
O480 O 0.2913 0.29512 0.80246 0.0
O481 O 0.32917 0.30396 0.80826 0.0
O482 O 0.35384 0.26772 0.76753 0.0
O483 O 0.36346 0.30694 0.77899 0.0
O484 O 0.31768 0.25723 0.79127 0.0
O485 O 0.29717 0.25975 0.76228 0.0
O486 O 0.3245 0.28363 0.7335 0.0
O487 O 0.28667 0.2757 0.72786 0.0
H488 H 0.24444 0.31677 0.80826 0.0
H489 H 0.21224 0.31297 0.82895 0.0
H490 H 0.17357 0.25435 0.77245 0.0
H491 H 0.20556 0.25875 0.75155 0.0
H492 H 0.40405 0.26729 0.77524 0.0
H493 H 0.435 0.27201 0.75275 0.0
H494 H 0.40745 0.3178 0.71359 0.0
H495 H 0.37651 0.31318 0.73651 0.0
La496 La 0.06229 0.06102 0.53044 0.0
La497 La 0.0563 1.00894 0.50917 0.0
C498 C 0.07413 0.10703 0.53981 0.0
C499 C 0.0812 0.12656 0.52658 0.0
C500 C 0.0773 0.14921 0.53391 0.0
C501 C 0.08502 0.16849 0.52245 0.0
C502 C 0.09691 0.1654 0.50358 0.0
C503 C 0.10042 0.14255 0.49591 0.0
C504 C 0.09256 0.12319 0.50729 0.0
C505 C 0.02606 0.03028 0.53835 0.0
C506 C 0.04178 0.04112 0.47405 0.0
C507 C 0.04347 0.96283 0.50136 0.0
C508 C 0.03707 0.94484 0.51647 0.0
C509 C 0.03441 0.92002 0.50777 0.0
C510 C 0.02784 0.90275 0.52186 0.0
C511 C 0.02398 0.9101 0.54496 0.0
C512 C 0.02662 0.93502 0.5536 0.0
C513 C 0.03296 0.95223 0.53942 0.0
C514 C 0.09273 0.03959 0.50143 0.0
C515 C 0.07746 0.0293 0.56543 0.0
O516 O 0.05333 0.094 0.53458 0.0
O517 O 0.08768 0.09354 0.54229 0.0
O518 O 0.03724 0.04999 0.55323 0.0
O519 O 0.03441 0.02958 0.51962 0.0
O520 O 0.05202 0.06013 0.49164 0.0
O521 O 0.04011 0.01848 0.47754 0.0
O522 O 0.06441 0.97545 0.50494 0.0
O523 O 0.03022 0.97667 0.49907 0.0
O524 O 0.08165 0.01973 0.48657 0.0
O525 O 0.0842 0.04034 0.52007 0.0
O526 O 0.06744 0.01023 0.54787 0.0
O527 O 0.07882 0.05182 0.56194 0.0
H528 H 0.06857 0.15211 0.54875 0.0
H529 H 0.08218 0.186 0.52867 0.0
H530 H 0.10916 0.1397 0.4811 0.0
H531 H 0.09559 0.10573 0.50123 0.0
H532 H 0.03738 0.91398 0.49006 0.0
H533 H 0.02608 0.88368 0.51482 0.0
H534 H 0.0235 0.94116 0.57121 0.0
H535 H 0.03448 0.97125 0.54632 0.0
La536 La 0.33408 0.80935 0.7808 0.0
La537 La 0.29276 0.77261 0.75521 0.0
C538 C 0.3674 0.83256 0.81103 0.0
C539 C 0.3906 0.83203 0.81649 0.0
C540 C 0.40775 0.85351 0.81811 0.0
C541 C 0.42989 0.8537 0.82355 0.0
C542 C 0.43533 0.83243 0.8277 0.0
C543 C 0.41809 0.81082 0.82579 0.0
C544 C 0.39593 0.8106 0.82018 0.0
C545 C 0.3317 0.79968 0.73463 0.0
C546 C 0.33391 0.75076 0.76841 0.0
C547 C 0.25952 0.75267 0.72428 0.0
C548 C 0.23813 0.75829 0.72205 0.0
C549 C 0.23149 0.76994 0.74202 0.0
C550 C 0.21181 0.77668 0.74003 0.0
C551 C 0.19846 0.77205 0.71798 0.0
C552 C 0.20539 0.76076 0.6979 0.0
C553 C 0.22513 0.75394 0.69994 0.0
C554 C 0.29463 0.78081 0.80115 0.0
C555 C 0.29217 0.83079 0.76902 0.0
O556 O 0.3623 0.83949 0.79131 0.0
O557 O 0.35186 0.81397 0.81452 0.0
O558 O 0.3421 0.82092 0.74751 0.0
O559 O 0.32516 0.7852 0.74786 0.0
O560 O 0.34386 0.77367 0.78061 0.0
O561 O 0.31394 0.74651 0.75538 0.0
O562 O 0.26409 0.74346 0.74279 0.0
O563 O 0.27626 0.77026 0.72132 0.0
O564 O 0.28419 0.76006 0.78736 0.0
O565 O 0.30158 0.79622 0.78871 0.0
O566 O 0.28248 0.80804 0.75653 0.0
O567 O 0.31232 0.83505 0.78164 0.0
H568 H 0.404 0.8702 0.81521 0.0
H569 H 0.44275 0.87054 0.82449 0.0
H570 H 0.42167 0.79419 0.82914 0.0
H571 H 0.38303 0.79373 0.81899 0.0
H572 H 0.24156 0.77385 0.75923 0.0
H573 H 0.20683 0.78501 0.75587 0.0
H574 H 0.19557 0.75724 0.68062 0.0
H575 H 0.23031 0.74545 0.6843 0.0
La576 La 0.54122 0.03274 0.04873 0.0
La577 La 0.53528 0.02042 0.99481 0.0
C578 C 0.54105 0.05332 0.09001 0.0
C579 C 0.52601 0.06347 0.10333 0.0
C580 C 0.5347 0.0788 0.12527 0.0
C581 C 0.52109 0.0895 0.13815 0.0
C582 C 0.49845 0.08493 0.12935 0.0
C583 C 0.48974 0.06954 0.10722 0.0
C584 C 0.50353 0.05908 0.09412 0.0
C585 C 0.55728 0.99674 0.03204 0.0
C586 C 0.49331 1.00383 0.02046 0.0
C587 C 0.5285 0.9988 0.95233 0.0
C588 C 0.54313 0.98972 0.93747 0.0
C589 C 0.53542 0.97939 0.91366 0.0
C590 C 0.54997 0.97275 0.89901 0.0
C591 C 0.57247 0.97643 0.90803 0.0
C592 C 0.57977 0.98573 0.93224 0.0
C593 C 0.56522 0.99229 0.94684 0.0
C594 C 0.53199 0.06386 0.0142 0.0
C595 C 0.5822 0.04686 0.02226 0.0
O596 O 0.53542 0.02943 0.08304 0.0
O597 O 0.54843 0.06515 0.07367 0.0
O598 O 0.56453 0.01073 0.05264 0.0
O599 O 0.54046 1.00185 0.02292 0.0
O600 O 0.50601 0.0126 0.04134 0.0
O601 O 0.50102 1.00615 1.00033 0.0
O602 O 0.53362 0.02257 0.95898 0.0
O603 O 0.52406 0.98768 0.9698 0.0
O604 O 0.54003 0.05994 0.99478 0.0
O605 O 0.52533 0.04399 0.02057 0.0
O606 O 0.57102 0.03029 1.00365 0.0
O607 O 0.57224 0.05434 0.03987 0.0
H608 H 0.55207 0.0825 0.13248 0.0
H609 H 0.52817 0.10068 0.15543 0.0
H610 H 0.47231 0.06552 0.10017 0.0
H611 H 0.49669 0.04754 0.07696 0.0
H612 H 0.51838 0.97725 0.90621 0.0
H613 H 0.54384 0.9661 0.88038 0.0
H614 H 0.59692 0.98882 0.93973 0.0
H615 H 0.57139 1.00001 0.96529 0.0
La616 La 0.31304 0.31072 0.27539 0.0
La617 La 0.27984 0.2631 0.25596 0.0
C618 C 0.33435 0.3553 0.28434 0.0
C619 C 0.32727 0.37689 0.28072 0.0
C620 C 0.33913 0.40018 0.29353 0.0
C621 C 0.33146 0.42045 0.29089 0.0
C622 C 0.31167 0.41743 0.2757 0.0
C623 C 0.30006 0.39411 0.26269 0.0
C624 C 0.30788 0.37405 0.26504 0.0
C625 C 0.30853 0.27994 0.30518 0.0
C626 C 0.2613 0.30581 0.27386 0.0
C627 C 0.25925 0.21858 0.25009 0.0
C628 C 0.26614 0.19897 0.25972 0.0
C629 C 0.27819 0.18529 0.24712 0.0
C630 C 0.28887 0.17071 0.25815 0.0
C631 C 0.28771 0.16957 0.28197 0.0
C632 C 0.27434 0.18177 0.29404 0.0
C633 C 0.26347 0.19613 0.28295 0.0
C634 C 0.28518 0.2933 0.22552 0.0
C635 C 0.33126 0.26819 0.2561 0.0
O636 O 0.32501 0.34387 0.29994 0.0
O637 O 0.33446 0.34016 0.26505 0.0
O638 O 0.32695 0.29567 0.30379 0.0
O639 O 0.29322 0.28295 0.2911 0.0
O640 O 0.28139 0.32017 0.27398 0.0
O641 O 0.25703 0.28187 0.26938 0.0
O642 O 0.27071 0.22792 0.2346 0.0
O643 O 0.2557 0.23561 0.26571 0.0
O644 O 0.26679 0.27699 0.22602 0.0
O645 O 0.29996 0.29057 0.24039 0.0
O646 O 0.31151 0.25379 0.25726 0.0
O647 O 0.33549 0.29217 0.26046 0.0
H648 H 0.35411 0.40264 0.30572 0.0
H649 H 0.34065 0.43833 0.30104 0.0
H650 H 0.28495 0.39144 0.2506 0.0
H651 H 0.29868 0.35628 0.25469 0.0
H652 H 0.28044 0.18694 0.22917 0.0
H653 H 0.29917 0.16156 0.24847 0.0
H654 H 0.27297 0.18092 0.31233 0.0
H655 H 0.25399 0.20606 0.29305 0.0
La656 La 0.55987 0.5623 0.03109 0.0
La657 La 0.55477 0.51063 0.00925 0.0
C658 C 0.57113 0.60835 0.04111 0.0
C659 C 0.57719 0.62828 0.02813 0.0
C660 C 0.57699 0.65183 0.03849 0.0
C661 C 0.58369 0.67129 0.02695 0.0
C662 C 0.59072 0.6675 1.0048 0.0
C663 C 0.59068 0.64374 0.99433 0.0
C664 C 0.58399 0.62426 1.00593 0.0
C665 C 0.52384 0.53068 0.03844 0.0
C666 C 0.53992 0.5429 0.97446 0.0
C667 C 0.54293 0.46457 1.00108 0.0
C668 C 0.5366 0.44653 0.01616 0.0
C669 C 0.53735 0.42246 0.00885 0.0
C670 C 0.5309 0.40509 0.02286 0.0
C671 C 0.52361 0.41152 0.04445 0.0
C672 C 0.52298 0.43576 0.05175 0.0
C673 C 0.5294 0.4531 0.03772 0.0
C674 C 0.59087 0.54213 1.00205 0.0
C675 C 0.57557 0.53042 0.06564 0.0
O676 O 0.55042 0.59495 0.03652 0.0
O677 O 0.58505 0.59512 0.04232 0.0
O678 O 0.5348 0.55029 0.0536 0.0
O679 O 0.53231 0.53049 0.01978 0.0
O680 O 0.54958 0.56178 0.99237 0.0
O681 O 0.53866 0.52025 0.97762 0.0
O682 O 0.56374 0.47764 1.00508 0.0
O683 O 0.52932 0.47793 0.99831 0.0
O684 O 0.5801 0.52236 0.98692 0.0
O685 O 0.58227 0.54235 0.02064 0.0
O686 O 0.56562 0.51147 0.04793 0.0
O687 O 0.57671 0.55298 0.06237 0.0
H688 H 0.5718 0.65521 0.05561 0.0
H689 H 0.5832 0.6893 0.03528 0.0
H690 H 0.59617 0.6403 0.97738 0.0
H691 H 0.5844 0.60617 0.99773 0.0
H692 H 0.54288 0.41709 0.99229 0.0
H693 H 0.53185 0.38666 0.0169 0.0
H694 H 0.51721 0.44123 0.06813 0.0
H695 H 0.52856 0.47158 0.04362 0.0
La696 La 0.83064 0.30456 0.27453 0.0
La697 La 0.78729 0.26659 0.26228 0.0
C698 C 0.86785 0.33088 0.2961 0.0
C699 C 0.89052 0.32868 0.29932 0.0
C700 C 0.89621 0.30916 0.28615 0.0
C701 C 0.91764 0.3066 0.29061 0.0
C702 C 0.93363 0.3236 0.30824 0.0
C703 C 0.92778 0.34325 0.32112 0.0
C704 C 0.90642 0.34575 0.31667 0.0
C705 C 0.8181 0.28642 0.22914 0.0
C706 C 0.83043 0.24623 0.26954 0.0
C707 C 0.74968 0.24111 0.24111 0.0
C708 C 0.72758 0.24497 0.23994 0.0
C709 C 0.72447 0.26617 0.25302 0.0
C710 C 0.7037 0.2706 0.25072 0.0
C711 C 0.6855 0.25353 0.23576 0.0
C712 C 0.68862 0.23185 0.22335 0.0
C713 C 0.70955 0.22775 0.22525 0.0
C714 C 0.79971 0.28321 0.30763 0.0
C715 C 0.78783 0.32535 0.26812 0.0
O716 O 0.85976 0.33222 0.27482 0.0
O717 O 0.85357 0.31605 0.30569 0.0
O718 O 0.82984 0.30883 0.23744 0.0
O719 O 0.81564 0.27531 0.24586 0.0
O720 O 0.84156 0.27004 0.27698 0.0
O721 O 0.80871 0.24062 0.26108 0.0
O722 O 0.75834 0.23861 0.26171 0.0
O723 O 0.76391 0.25593 0.23144 0.0
O724 O 0.78807 0.26097 0.29852 0.0
O725 O 0.80228 0.29535 0.2915 0.0
O726 O 0.77667 0.30156 0.26062 0.0
O727 O 0.8096 0.33083 0.27604 0.0
H728 H 0.88403 0.29579 0.27267 0.0
H729 H 0.92167 0.29133 0.28037 0.0
H730 H 0.93953 0.35635 0.33517 0.0
H731 H 0.90218 0.36077 0.32711 0.0
H732 H 0.73811 0.2794 0.2649 0.0
H733 H 0.70205 0.28754 0.26044 0.0
H734 H 0.67488 0.21792 0.21221 0.0
H735 H 0.71165 0.21117 0.21523 0.0
La736 La 0.05096 0.54513 0.50317 0.0
La737 La 0.05802 0.5777 0.46924 0.0
C738 C 0.04874 0.52804 0.54024 0.0
C739 C 0.03663 0.53163 0.56007 0.0
C740 C 0.04754 0.53412 0.58292 0.0
C741 C 0.03776 0.54097 0.60233 0.0
C742 C 0.01684 0.5454 0.5992 0.0
C743 C 1.00553 0.54201 0.57626 0.0
C744 C 0.01548 0.53546 0.55678 0.0
C745 C 0.05904 0.52403 0.46195 0.0
C746 C 0.00895 0.54757 0.47252 0.0
C747 C 0.06177 0.59562 0.43278 0.0
C748 C 0.07959 0.59988 0.41849 0.0
C749 C 0.07781 0.61187 0.39964 0.0
C750 C 0.09389 0.61409 0.38476 0.0
C751 C 0.11191 0.60427 0.38858 0.0
C752 C 0.11413 0.59321 0.40815 0.0
C753 C 0.09802 0.59099 0.42299 0.0
C754 C 0.05252 0.59862 0.51119 0.0
C755 C 0.09946 0.57753 0.50242 0.0
O756 O 0.03698 0.51635 0.51983 0.0
O757 O 0.06389 0.5476 0.53839 0.0
O758 O 0.04583 0.51331 0.47498 0.0
O759 O 0.06778 0.54555 0.47289 0.0
O760 O 0.01702 0.54509 0.49352 0.0
O761 O 0.02231 0.55817 0.45882 0.0
O762 O 0.06643 0.60882 0.45412 0.0
O763 O 0.05206 0.57256 0.43243 0.0
O764 O 0.06516 0.60981 0.49793 0.0
O765 O 0.04232 0.57763 0.50002 0.0
O766 O 0.09241 0.57973 0.48092 0.0
O767 O 0.08533 0.56721 0.51548 0.0
H768 H 0.06394 0.53142 0.58574 0.0
H769 H 0.04661 0.54289 0.61985 0.0
H770 H 0.98931 0.5451 0.57343 0.0
H771 H 1.00692 0.534 0.53923 0.0
H772 H 0.06371 0.61893 0.39607 0.0
H773 H 0.09197 0.62292 0.36989 0.0
H774 H 0.1277 0.58527 0.41135 0.0
H775 H 0.09958 0.58163 0.43749 0.0
La776 La 0.78826 0.78703 0.26558 0.0
La777 La 0.8358 0.78368 0.27358 0.0
C778 C 0.74663 0.77473 0.26477 0.0
C779 C 0.72948 0.78023 0.27871 0.0
C780 C 0.70927 0.78148 0.26702 0.0
C781 C 0.69163 0.78317 0.27944 0.0
C782 C 0.69375 0.78345 0.30384 0.0
C783 C 0.71429 0.78307 0.31565 0.0
C784 C 0.73194 0.78152 0.30325 0.0
C785 C 0.81654 0.83168 0.26569 0.0
C786 C 0.8156 0.80273 0.31775 0.0
C787 C 0.8766 0.78605 0.27414 0.0
C788 C 0.89556 0.79149 0.26093 0.0
C789 C 0.91628 0.7903 0.2712 0.0
C790 C 0.93471 0.79499 0.2594 0.0
C791 C 0.93295 0.80104 0.23691 0.0
C792 C 0.91203 0.80214 0.22654 0.0
C793 C 0.89351 0.79745 0.23847 0.0
C794 C 0.8044 0.74399 0.2794 0.0
C795 C 0.80996 0.77387 0.22095 0.0
O796 O 0.75683 0.79121 0.25352 0.0
O797 O 0.76021 0.76408 0.27453 0.0
O798 O 0.79498 0.82613 0.26252 0.0
O799 O 0.82097 0.81196 0.26865 0.0
O800 O 0.796 0.79554 0.30411 0.0
O801 O 0.83415 0.80215 0.3091 0.0
O802 O 0.86035 0.76629 0.26541 0.0
O803 O 0.86933 0.80433 0.28308 0.0
O804 O 0.82399 0.75314 0.29184 0.0
O805 O 0.80327 0.75708 0.26387 0.0
O806 O 0.82939 0.78072 0.23504 0.0
O807 O 0.79107 0.77255 0.2294 0.0
H808 H 0.70686 0.78028 0.24809 0.0
H809 H 0.67603 0.78327 0.26975 0.0
H810 H 0.71664 0.78365 0.33448 0.0
H811 H 0.74728 0.78056 0.31279 0.0
H812 H 0.91822 0.78559 0.28845 0.0
H813 H 0.95033 0.7935 0.26783 0.0
H814 H 0.91003 0.80694 0.20936 0.0
H815 H 0.87767 0.7985 0.2302 0.0
La816 La 0.8126 0.29054 0.74848 0.0
La817 La 0.80084 0.29643 0.79671 0.0
C818 C 0.81318 0.28552 0.7048 0.0
C819 C 0.82311 0.30224 0.68992 0.0
C820 C 0.83906 0.32448 0.69998 0.0
C821 C 0.84583 0.34205 0.68627 0.0
C822 C 0.83662 0.33765 0.66233 0.0
C823 C 0.82104 0.31502 0.6523 0.0
C824 C 0.81437 0.29749 0.66599 0.0
C825 C 0.84495 0.29175 0.78241 0.0
C826 C 0.82766 0.3422 0.78 0.0
C827 C 0.79766 0.29495 0.83914 0.0
C828 C 0.79943 0.27704 0.85383 0.0
C829 C 0.79539 0.28115 0.87711 0.0
C830 C 0.7977 0.26455 0.89149 0.0
C831 C 0.80414 0.24361 0.88278 0.0
C832 C 0.80811 0.23951 0.85933 0.0
C833 C 0.80579 0.25616 0.84496 0.0
C834 C 0.77472 0.30966 0.76544 0.0
C835 C 0.78626 0.24333 0.76485 0.0
O836 O 0.82683 0.2788 0.71917 0.0
O837 O 0.79752 0.29185 0.71515 0.0
O838 O 0.84798 0.30173 0.76412 0.0
O839 O 0.82453 0.28126 0.78084 0.0
O840 O 0.82026 0.33001 0.75821 0.0
O841 O 0.82514 0.33123 0.79814 0.0
O842 O 0.78048 0.28829 0.82234 0.0
O843 O 0.81615 0.30522 0.83187 0.0
O844 O 0.78034 0.32023 0.78744 0.0
O845 O 0.78273 0.29174 0.76225 0.0
O846 O 0.78734 0.25697 0.78575 0.0
O847 O 0.79499 0.25256 0.74748 0.0
H848 H 0.84575 0.32855 0.71858 0.0
H849 H 0.85798 0.35918 0.69448 0.0
H850 H 0.81329 0.31119 0.63406 0.0
H851 H 0.80172 0.28061 0.6581 0.0
H852 H 0.79049 0.29721 0.88417 0.0
H853 H 0.79414 0.26794 0.90936 0.0
H854 H 0.8132 0.22362 0.8522 0.0
H855 H 0.80909 0.25284 0.827 0.0
La856 La 0.82151 0.81509 0.77983 0.0
La857 La 0.78783 0.76821 0.76052 0.0
C858 C 0.84352 0.85936 0.78885 0.0
C859 C 0.83755 0.88141 0.78435 0.0
C860 C 0.84001 0.90094 0.80315 0.0
C861 C 0.83127 0.92029 0.79991 0.0
C862 C 0.82011 0.92044 0.77774 0.0
C863 C 0.81866 0.90149 0.75866 0.0
C864 C 0.82719 0.88207 0.76195 0.0
C865 C 0.81552 0.78494 0.81014 0.0
C866 C 0.77018 0.8117 0.77754 0.0
C867 C 0.76771 0.72344 0.75218 0.0
C868 C 0.77676 0.70274 0.75535 0.0
C869 C 0.77889 0.68654 0.73551 0.0
C870 C 0.79116 0.66983 0.73796 0.0
C871 C 0.80139 0.6689 0.76034 0.0
C872 C 0.79824 0.68421 0.7803 0.0
C873 C 0.78609 0.70097 0.77785 0.0
C874 C 0.79397 0.79815 0.73006 0.0
C875 C 0.8392 0.77193 0.76218 0.0
O876 O 0.83297 0.84846 0.80409 0.0
O877 O 0.84457 0.84378 0.77027 0.0
O878 O 0.83429 0.80009 0.80888 0.0
O879 O 0.80068 0.7882 0.79565 0.0
O880 O 0.79031 0.82537 0.77663 0.0
O881 O 0.7655 0.78768 0.77419 0.0
O882 O 0.77519 0.73516 0.7359 0.0
O883 O 0.76723 0.73849 0.77142 0.0
O884 O 0.77509 0.78309 0.73136 0.0
O885 O 0.80876 0.79495 0.74468 0.0
O886 O 0.81902 0.75802 0.76225 0.0
O887 O 0.84399 0.79591 0.76637 0.0
H888 H 0.84787 0.90071 0.82057 0.0
H889 H 0.83264 0.93477 0.81486 0.0
H890 H 0.80984 0.90097 0.74148 0.0
H891 H 0.82481 0.86713 0.74715 0.0
H892 H 0.7719 0.68754 0.71799 0.0
H893 H 0.79307 0.65802 0.7223 0.0
H894 H 0.80608 0.68408 0.79775 0.0
H895 H 0.78492 0.71325 0.79355 0.0
La896 La 0.53894 0.52641 0.50606 0.0
La897 La 0.58266 0.55912 0.53262 0.0
C898 C 0.4977 0.50698 0.49893 0.0
C899 C 0.48067 0.51725 0.50837 0.0
C900 C 0.45801 0.50521 0.50154 0.0
C901 C 0.44211 0.51647 0.50924 0.0
C902 C 0.44877 0.53996 0.52363 0.0
C903 C 0.47149 0.5515 0.53106 0.0
C904 C 0.48727 0.54023 0.52353 0.0
C905 C 0.56934 0.52574 0.4755 0.0
C906 C 0.55124 0.58386 0.50569 0.0
C907 C 0.62375 0.5797 0.54183 0.0
C908 C 0.64259 0.57138 0.53465 0.0
C909 C 0.66408 0.58278 0.54683 0.0
C910 C 0.68167 0.57334 0.54141 0.0
C911 C 0.67798 0.55245 0.52362 0.0
C912 C 0.65648 0.54144 0.51108 0.0
C913 C 0.63889 0.5507 0.51671 0.0
C914 C 0.55214 0.5588 0.56327 0.0
C915 C 0.57055 0.50173 0.53252 0.0
O916 O 0.50828 0.51898 0.48435 0.0
O917 O 0.51135 0.50196 0.51468 0.0
O918 O 0.54861 0.51313 0.47178 0.0
O919 O 0.57243 0.53736 0.49705 0.0
O920 O 0.53579 0.56261 0.50173 0.0
O921 O 0.57134 0.58665 0.51692 0.0
O922 O 0.61263 0.56702 0.55559 0.0
O923 O 0.61061 0.58377 0.5249 0.0
O924 O 0.57278 0.5716 0.56709 0.0
O925 O 0.54932 0.54772 0.5416 0.0
O926 O 0.58617 0.52282 0.53596 0.0
O927 O 0.55028 0.49907 0.52185 0.0
H928 H 0.45266 0.48749 0.48983 0.0
H929 H 0.42466 0.5073 0.50316 0.0
H930 H 0.47703 0.56948 0.54233 0.0
H931 H 0.50471 0.54973 0.52912 0.0
H932 H 0.66715 0.59862 0.56087 0.0
H933 H 0.69813 0.58222 0.55125 0.0
H934 H 0.65311 0.52515 0.49751 0.0
H935 H 0.62228 0.54134 0.50751 0.0
La936 La 0.08577 0.54953 0.02089 0.0
La937 La 0.03471 0.53896 0.01276 0.0
C938 C 0.12562 0.54905 0.03172 0.0
C939 C 0.14026 0.53255 0.03079 0.0
C940 C 0.16163 0.54109 0.02512 0.0
C941 C 0.17649 0.52676 0.02512 0.0
C942 C 0.17044 0.50343 0.0309 0.0
C943 C 0.14887 0.49473 0.03638 0.0
C944 C 0.1339 0.50909 0.03624 0.0
C945 C 0.06813 0.56201 0.98369 0.0
C946 C 0.05417 0.49538 0.9973 0.0
C947 C 0.995 0.53962 1.00124 0.0
C948 C 0.98015 0.55603 1.00198 0.0
C949 C 0.9634 0.55282 0.01631 0.0
C950 C 0.94773 0.56617 0.0158 0.0
C951 C 0.94822 0.58312 1.00082 0.0
C952 C 0.96517 0.58656 0.98661 0.0
C953 C 0.98093 0.57318 0.98716 0.0
C954 C 0.05258 0.52736 0.05052 0.0
C955 C 0.06648 0.593 0.03712 0.0
O956 O 0.11773 0.55336 0.01161 0.0
O957 O 0.11092 0.54665 0.04618 0.0
O958 O 0.08732 0.57418 0.99586 0.0
O959 O 0.06033 0.54307 0.99156 0.0
O960 O 0.07367 0.50946 0.00905 0.0
O961 O 0.03683 0.5041 0.9936 0.0
O962 O 1.00252 0.53491 0.02132 0.0
O963 O 0.00997 0.54209 0.98707 0.0
O964 O 0.03338 0.5148 0.03854 0.0
O965 O 0.0601 0.54585 0.04196 0.0
O966 O 0.04691 0.57911 0.02522 0.0
O967 O 0.08372 0.58409 0.04065 0.0
H968 H 0.16699 0.55914 0.02097 0.0
H969 H 0.19297 0.53423 0.02108 0.0
H970 H 0.14355 0.47676 0.04068 0.0
H971 H 0.11749 0.50199 0.04064 0.0
H972 H 0.96205 0.53945 0.02759 0.0
H973 H 0.9348 0.56262 0.0267 0.0
H974 H 0.96628 0.5996 0.97501 0.0
H975 H 0.99347 0.57602 0.97572 0.0
C976 C 1.00861 0.1983 0.97201 0.0
C977 C 0.01583 0.20517 0.95133 0.0
C978 C 0.01392 0.17876 0.98086 0.0
C979 C 0.0266 0.1652 0.96874 0.0
C980 C 0.03385 0.17188 0.94777 0.0
C981 C 0.02854 0.19178 0.93944 0.0
C982 C 1.006 0.17273 1.00339 0.0
C983 C 0.04716 0.15789 0.93403 0.0
C984 C 0.05697 0.12837 1.00302 0.0
C985 C 0.04237 0.10459 0.9969 0.0
C986 C 0.05211 0.14809 0.99401 0.0
C987 C 0.03226 0.14415 0.97812 0.0
C988 C 0.0175 0.12018 0.97179 0.0
C989 C 0.02263 0.10085 0.9813 0.0
C990 C 0.06824 0.17326 1.00165 0.0
C991 C 0.99625 0.11487 0.95482 0.0
H992 H 0.9989 0.20842 0.98155 0.0
H993 H 0.03421 0.19673 0.92347 0.0
H994 H 0.9952 0.15366 1.00006 0.0
H995 H 0.02042 0.17399 0.0167 0.0
H996 H 0.99656 0.18515 0.01095 0.0
H997 H 0.05129 0.16499 0.9179 0.0
H998 H 0.06285 0.15894 0.94527 0.0
H999 H 0.03771 0.13829 0.92879 0.0
H1000 H 0.07227 0.13168 0.01501 0.0
H1001 H 0.01122 0.08266 0.97621 0.0
H1002 H 0.0598 0.18615 0.01034 0.0
H1003 H 0.07405 0.18018 0.98603 0.0
H1004 H 0.08294 0.17342 0.01407 0.0
H1005 H 0.98549 0.12575 0.96216 0.0
H1006 H 0.98682 0.09521 0.95107 0.0
H1007 H 1.00003 0.1204 0.93794 0.0
C1008 C 0.19502 0.82603 0.15332 0.0
C1009 C 0.17563 0.82936 0.16173 0.0
C1010 C 0.21305 0.82372 0.16838 0.0
C1011 C 0.21217 0.82523 0.19281 0.0
C1012 C 0.19302 0.82947 0.20164 0.0
C1013 C 0.17493 0.83122 0.18602 0.0
C1014 C 0.23288 0.81906 0.15795 0.0
C1015 C 0.19154 0.83186 0.2276 0.0
C1016 C 0.24804 0.79413 0.22753 0.0
C1017 C 0.26693 0.81351 0.23754 0.0
C1018 C 0.23026 0.79768 0.21296 0.0
C1019 C 0.23094 0.82139 0.20875 0.0
C1020 C 0.24994 0.84112 0.21905 0.0
C1021 C 0.26777 0.83689 0.23305 0.0
C1022 C 0.21081 0.77591 0.20182 0.0
C1023 C 0.25123 0.86682 0.21577 0.0
H1024 H 0.19596 0.82453 0.13466 0.0
H1025 H 0.16019 0.83386 0.19284 0.0
H1026 H 0.24801 0.83406 0.16594 0.0
H1027 H 0.23571 0.80186 0.16201 0.0
H1028 H 0.23079 0.81765 0.13852 0.0
H1029 H 0.17637 0.8369 0.23201 0.0
H1030 H 0.19139 0.81431 0.23312 0.0
H1031 H 0.20635 0.84595 0.23802 0.0
H1032 H 0.24728 0.77601 0.23089 0.0
H1033 H 0.28219 0.85205 0.24094 0.0
H1034 H 0.20873 0.77385 0.18234 0.0
H1035 H 0.19528 0.7788 0.20752 0.0
H1036 H 0.21291 0.75863 0.20649 0.0
H1037 H 0.24766 0.86732 0.19679 0.0
H1038 H 0.26776 0.87979 0.22326 0.0
H1039 H 0.2384 0.87322 0.22457 0.0
C1040 C 0.54526 0.85359 0.44594 0.0
C1041 C 0.53067 0.83824 0.45741 0.0
C1042 C 0.55085 0.87926 0.45282 0.0
C1043 C 0.54181 0.88995 0.47176 0.0
C1044 C 0.52785 0.87454 0.48404 0.0
C1045 C 0.5224 0.84898 0.47668 0.0
C1046 C 0.5658 0.89495 0.43925 0.0
C1047 C 0.51807 0.88507 0.50452 0.0
C1048 C 0.5675 0.95693 0.50169 0.0
C1049 C 0.55267 0.9684 0.49173 0.0
C1050 C 0.56437 0.93156 0.49517 0.0
C1051 C 0.54606 0.91717 0.47811 0.0
C1052 C 0.5313 0.92872 0.46764 0.0
C1053 C 0.5347 0.9541 0.47465 0.0
C1054 C 0.58039 0.92009 0.50702 0.0
C1055 C 0.51164 0.91416 0.44928 0.0
H1056 H 0.55171 0.8456 0.43099 0.0
H1057 H 0.51119 0.83738 0.48576 0.0
H1058 H 0.55639 0.90552 0.43012 0.0
H1059 H 0.5799 0.90835 0.45149 0.0
H1060 H 0.57252 0.88394 0.42589 0.0
H1061 H 0.50874 0.87071 0.51321 0.0
H1062 H 0.5314 0.89827 0.51785 0.0
H1063 H 0.50661 0.89523 0.49826 0.0
H1064 H 0.58134 0.96767 0.51508 0.0
H1065 H 0.52315 0.9627 0.46682 0.0
H1066 H 0.58718 0.90929 0.49359 0.0
H1067 H 0.57152 0.90728 0.51746 0.0
H1068 H 0.59445 0.93394 0.51898 0.0
H1069 H 0.51729 0.9038 0.43448 0.0
H1070 H 0.50226 0.92594 0.4421 0.0
H1071 H 0.50019 0.90061 0.45708 0.0
C1072 C 0.51493 0.30675 0.64352 0.0
C1073 C 0.53678 0.3125 0.65539 0.0
C1074 C 0.49667 0.3044 0.65584 0.0
C1075 C 0.50017 0.30789 0.68076 0.0
C1076 C 0.52218 0.31387 0.69292 0.0
C1077 C 0.54019 0.31608 0.68012 0.0
C1078 C 0.47356 0.29797 0.6421 0.0
C1079 C 0.52668 0.31778 0.71947 0.0
C1080 C 0.45372 0.32151 0.71332 0.0
C1081 C 0.44317 0.29854 0.71799 0.0
C1082 C 0.47236 0.32488 0.70147 0.0
C1083 C 0.48072 0.3048 0.69397 0.0
C1084 C 0.4701 0.28156 0.69853 0.0
C1085 C 0.45154 0.27873 0.71044 0.0
C1086 C 0.48315 0.34998 0.69703 0.0
C1087 C 0.47827 0.25959 0.69069 0.0
H1088 H 0.512 0.30394 0.62444 0.0
H1089 H 0.55695 0.32055 0.6895 0.0
H1090 H 0.46336 0.28047 0.64554 0.0
H1091 H 0.46531 0.31223 0.64799 0.0
H1092 H 0.47362 0.29615 0.6228 0.0
H1093 H 0.54472 0.3228 0.72635 0.0
H1094 H 0.51974 0.33247 0.72741 0.0
H1095 H 0.51828 0.30087 0.72537 0.0
H1096 H 0.44763 0.33703 0.71932 0.0
H1097 H 0.44339 0.26082 0.71363 0.0
H1098 H 0.48271 0.34932 0.67781 0.0
H1099 H 0.50088 0.3561 0.70521 0.0
H1100 H 0.47484 0.36377 0.70419 0.0
H1101 H 0.47735 0.25599 0.67123 0.0
H1102 H 0.46844 0.24287 0.69593 0.0
H1103 H 0.49594 0.26326 0.69841 0.0
C1104 C 0.00908 0.80127 0.61554 0.0
C1105 C 0.99394 0.80147 0.63161 0.0
C1106 C 0.01316 0.81888 0.60127 0.0
C1107 C 1.00166 0.83702 0.60286 0.0
C1108 C 0.98597 0.837 0.61861 0.0
C1109 C 0.98239 0.81931 0.6329 0.0
C1110 C 0.03016 0.81838 0.58484 0.0
C1111 C 0.97316 0.85585 0.62058 0.0
C1112 C 0.02862 0.89601 0.58322 0.0
C1113 C 0.01756 0.89183 0.5601 0.0
C1114 C 0.02341 0.87847 0.59744 0.0
C1115 C 1.00653 0.85633 0.5884 0.0
C1116 C 0.99492 0.85228 0.56525 0.0
C1117 C 1.00069 0.87002 0.55132 0.0
C1118 C 0.03636 0.88337 0.62191 0.0
C1119 C 0.9766 0.8291 0.5551 0.0
H1120 H 0.01815 0.78763 0.61444 0.0
H1121 H 0.97061 0.81956 0.64518 0.0
H1122 H 0.02244 0.81696 0.56644 0.0
H1123 H 0.04377 0.83569 0.5896 0.0
H1124 H 0.03746 0.80286 0.58546 0.0
H1125 H 0.96082 0.85266 0.63286 0.0
H1126 H 0.98481 0.87438 0.62692 0.0
H1127 H 0.96434 0.85567 0.60298 0.0
H1128 H 0.0418 0.91278 0.58999 0.0
H1129 H 0.99193 0.86688 0.53354 0.0
H1130 H 0.04541 0.86938 0.62324 0.0
H1131 H 0.02487 0.88196 0.63515 0.0
H1132 H 0.04858 0.90175 0.62652 0.0
H1133 H 0.98344 0.81313 0.55386 0.0
H1134 H 0.96845 0.8293 0.53728 0.0
H1135 H 0.96383 0.82642 0.56693 0.0
C1136 C 0.55081 0.82594 0.89024 0.0
C1137 C 0.56906 0.83616 0.87969 0.0
C1138 C 0.52913 0.82422 0.88023 0.0
C1139 C 0.52567 0.83313 0.85927 0.0
C1140 C 0.54398 0.84288 0.84817 0.0
C1141 C 0.56551 0.84415 0.85847 0.0
C1142 C 0.50999 0.81349 0.89247 0.0
C1143 C 0.54093 0.85278 0.82592 0.0
C1144 C 0.46681 0.81327 0.82606 0.0
C1145 C 0.45883 0.83302 0.83475 0.0
C1146 C 0.48871 0.81324 0.83349 0.0
C1147 C 0.50298 0.83351 0.84985 0.0
C1148 C 0.49522 0.85376 0.85823 0.0
C1149 C 0.47322 0.8532 0.85068 0.0
C1150 C 0.49644 0.79133 0.82421 0.0
C1151 C 0.50999 0.87576 0.87565 0.0
H1152 H 0.55348 0.8195 0.90651 0.0
H1153 H 0.5796 0.85213 0.85029 0.0
H1154 H 0.5019 0.82778 0.89875 0.0
H1155 H 0.49727 0.79864 0.87993 0.0
H1156 H 0.51539 0.80602 0.90782 0.0
H1157 H 0.55666 0.85809 0.81857 0.0
H1158 H 0.52833 0.83898 0.81231 0.0
H1159 H 0.53469 0.86909 0.82971 0.0
H1160 H 0.45591 0.79778 0.81347 0.0
H1161 H 0.46712 0.86838 0.85777 0.0
H1162 H 0.50084 0.78261 0.839 0.0
H1163 H 0.51164 0.79715 0.81613 0.0
H1164 H 0.48357 0.77746 0.81088 0.0
H1165 H 0.5146 0.87029 0.89249 0.0
H1166 H 0.50181 0.89057 0.87939 0.0
H1167 H 0.52562 0.88317 0.86881 0.0
C1168 C 0.51674 0.15936 0.11245 0.0
C1169 C 0.50226 0.17354 0.10846 0.0
C1170 C 0.52303 0.14559 0.09367 0.0
C1171 C 0.51414 0.14541 0.07024 0.0
C1172 C 0.50042 0.16073 0.06602 0.0
C1173 C 0.49479 0.17489 0.08529 0.0
C1174 C 0.53841 0.1303 0.09895 0.0
C1175 C 0.49089 0.16133 0.04131 0.0
C1176 C 0.53987 0.10939 0.02605 0.0
C1177 C 0.52583 0.08585 0.02427 0.0
C1178 C 0.5354 0.12972 0.0395 0.0
C1179 C 0.51639 0.12616 0.05105 0.0
C1180 C 0.50126 0.10259 0.04745 0.0
C1181 C 0.5063 0.08273 0.03434 0.0
C1182 C 0.5518 0.15458 0.04266 0.0
C1183 C 0.4804 0.09806 0.05873 0.0
H1184 H 0.52316 0.159 0.13039 0.0
H1185 H 0.48388 0.18621 0.08224 0.0
H1186 H 0.52991 0.11074 0.09172 0.0
H1187 H 0.55328 0.13534 0.09019 0.0
H1188 H 0.54399 0.13262 0.11815 0.0
H1189 H 0.48485 0.17772 0.04074 0.0
H1190 H 0.50343 0.16113 0.02928 0.0
H1191 H 0.47668 0.14483 0.03455 0.0
H1192 H 0.55496 0.11174 0.01819 0.0
H1193 H 0.49523 0.0645 0.0326 0.0
H1194 H 0.56315 0.15829 0.05957 0.0
H1195 H 0.54322 0.16917 0.04335 0.0
H1196 H 0.56203 0.15559 0.02821 0.0
H1197 H 0.48467 0.10402 0.07816 0.0
H1198 H 0.47067 0.07849 0.05463 0.0
H1199 H 0.46971 0.10902 0.05248 0.0
C1200 C 0.18366 0.34302 0.35648 0.0
C1201 C 0.16596 0.35162 0.34834 0.0
C1202 C 0.19916 0.33866 0.34198 0.0
C1203 C 0.19691 0.3429 0.31866 0.0
C1204 C 0.17959 0.35244 0.31055 0.0
C1205 C 0.16428 0.35671 0.32553 0.0
C1206 C 0.21749 0.32863 0.3514 0.0
C1207 C 0.17672 0.35723 0.28581 0.0
C1208 C 0.24853 0.34164 0.29108 0.0
C1209 C 0.24358 0.31672 0.28097 0.0
C1210 C 0.23278 0.35108 0.30186 0.0
C1211 C 0.21167 0.33518 0.30248 0.0
C1212 C 0.20598 0.31054 0.29048 0.0
C1213 C 0.22201 0.30161 0.27988 0.0
C1214 C 0.23936 0.37757 0.31414 0.0
C1215 C 0.18357 0.29303 0.29046 0.0
H1216 H 0.18527 0.33929 0.37416 0.0
H1217 H 0.15069 0.36346 0.31914 0.0
H1218 H 0.2153 0.3099 0.34132 0.0
H1219 H 0.23389 0.34011 0.34909 0.0
H1220 H 0.21773 0.32779 0.37037 0.0
H1221 H 0.1643 0.36754 0.28323 0.0
H1222 H 0.19278 0.36765 0.28162 0.0
H1223 H 0.17114 0.33957 0.27303 0.0
H1224 H 0.26509 0.35354 0.29176 0.0
H1225 H 0.21788 0.28242 0.27173 0.0
H1226 H 0.24268 0.37874 0.33348 0.0
H1227 H 0.22572 0.386 0.31061 0.0
H1228 H 0.25456 0.38836 0.30854 0.0
H1229 H 0.18248 0.28889 0.30837 0.0
H1230 H 0.18071 0.27554 0.27777 0.0
H1231 H 0.17005 0.30136 0.286 0.0
C1232 C 0.97327 0.06682 0.17552 0.0
C1233 C 0.97986 0.05384 0.19245 0.0
C1234 C 0.98222 0.06754 0.15352 0.0
C1235 C 0.99852 0.0551 0.14738 0.0
C1236 C 1.00501 0.042 0.16436 0.0
C1237 C 0.9959 0.04157 0.18595 0.0
C1238 C 0.97419 0.08184 0.1367 0.0
C1239 C 0.022 0.02825 0.1598 0.0
C1240 C 0.01422 0.03962 0.08288 0.0
C1241 C 0.03447 0.05764 0.08337 0.0
C1242 C 1.00202 0.03908 0.1027 0.0
C1243 C 0.00988 0.0567 0.12444 0.0
C1244 C 0.03007 0.07501 0.12469 0.0
C1245 C 0.04174 0.0752 0.10476 0.0
C1246 C 0.98074 0.01909 0.10047 0.0
C1247 C 0.03987 0.09446 0.14654 0.0
H1248 H 0.96098 0.07642 0.17933 0.0
H1249 H 1.00164 0.03124 0.19802 0.0
H1250 H 0.98809 0.09765 0.13538 0.0
H1251 H 0.96862 0.07028 0.11879 0.0
H1252 H 0.96029 0.08873 0.14242 0.0
H1253 H 0.025 0.01815 0.17397 0.0
H1254 H 0.01641 0.01502 0.14278 0.0
H1255 H 0.03799 0.0412 0.15836 0.0
H1256 H 1.00809 0.02544 0.06722 0.0
H1257 H 0.05718 0.08936 0.10618 0.0
H1258 H 0.96743 0.02688 0.10644 0.0
H1259 H 0.98326 1.00619 0.11201 0.0
H1260 H 0.97508 1.00874 0.08205 0.0
H1261 H 0.02731 0.10377 0.15195 0.0
H1262 H 0.05476 0.10842 0.1439 0.0
H1263 H 0.04467 0.0859 0.16129 0.0
C1264 C 0.26235 0.68064 0.47583 0.0
C1265 C 0.2823 0.6746 0.48067 0.0
C1266 C 0.25738 0.68897 0.45517 0.0
C1267 C 0.27291 0.69165 0.43924 0.0
C1268 C 0.29225 0.68376 0.44316 0.0
C1269 C 0.29668 0.67517 0.46386 0.0
C1270 C 0.23637 0.69673 0.45138 0.0
C1271 C 0.30919 0.6863 0.42651 0.0
C1272 C 0.26139 0.71096 0.38081 0.0
C1273 C 0.2718 0.73618 0.387 0.0
C1274 C 0.26079 0.69611 0.3978 0.0
C1275 C 0.27116 0.70682 0.42127 0.0
C1276 C 0.28098 0.73237 0.4277 0.0
C1277 C 0.28115 0.7467 0.4105 0.0
C1278 C 0.24978 0.66898 0.39048 0.0
C1279 C 0.29219 0.74454 0.45257 0.0
H1280 H 0.25092 0.67963 0.48857 0.0
H1281 H 0.31198 0.67021 0.46747 0.0
H1282 H 0.24052 0.71698 0.45564 0.0
H1283 H 0.22835 0.69069 0.43269 0.0
H1284 H 0.22425 0.68927 0.46276 0.0
H1285 H 0.32164 0.67631 0.43027 0.0
H1286 H 0.30093 0.67939 0.40796 0.0
H1287 H 0.31807 0.70593 0.42824 0.0
H1288 H 0.25407 0.70281 0.36265 0.0
H1289 H 0.28963 0.76608 0.41531 0.0
H1290 H 0.23861 0.66256 0.40307 0.0
H1291 H 0.26264 0.659 0.39072 0.0
H1292 H 0.24001 0.66407 0.37247 0.0
H1293 H 0.28043 0.74031 0.46524 0.0
H1294 H 0.29843 0.76472 0.45476 0.0
H1295 H 0.30643 0.73735 0.45735 0.0
C1296 C 0.63016 0.99414 0.64928 0.0
C1297 C 0.6186 0.99411 0.66858 0.0
C1298 C 0.61877 0.99112 0.62641 0.0
C1299 C 0.59559 0.98829 0.62326 0.0
C1300 C 0.58362 0.98412 0.64216 0.0
C1301 C 0.59535 0.98724 0.66472 0.0
C1302 C 0.63187 0.99427 0.60629 0.0
C1303 C 0.5588 0.98014 0.63938 0.0
C1304 C 0.57511 0.03068 0.58938 0.0
C1305 C 0.5613 0.01438 0.57 0.0
C1306 C 0.58695 0.02234 0.60634 0.0
C1307 C 0.58526 0.99701 0.60351 0.0
C1308 C 0.57205 0.98054 0.58328 0.0
C1309 C 0.5598 0.98941 0.5669 0.0
C1310 C 0.60075 0.04067 0.62765 0.0
C1311 C 0.5704 0.95361 0.57898 0.0
H1312 H 0.64817 0.99909 0.65225 0.0
H1313 H 0.58642 0.98663 0.67969 0.0
H1314 H 0.62222 0.98252 0.58949 0.0
H1315 H 0.63555 0.01356 0.60403 0.0
H1316 H 0.64791 0.98986 0.60975 0.0
H1317 H 0.55168 0.97342 0.65456 0.0
H1318 H 0.55502 0.99769 0.63811 0.0
H1319 H 0.55048 0.9668 0.62296 0.0
H1320 H 0.57635 0.05003 0.59145 0.0
H1321 H 0.54943 0.97692 0.55149 0.0
H1322 H 0.61833 0.0403 0.6289 0.0
H1323 H 0.59467 0.03588 0.64399 0.0
H1324 H 0.6002 0.05964 0.62701 0.0
H1325 H 0.58558 0.94998 0.58727 0.0
H1326 H 0.56754 0.94581 0.55978 0.0
H1327 H 0.55603 0.94386 0.58654 0.0
C1328 C 0.31211 0.36112 0.95374 0.0
C1329 C 0.31702 0.34549 0.96839 0.0
C1330 C 0.30968 0.35441 0.92893 0.0
C1331 C 0.31186 0.33134 0.91838 0.0
C1332 C 0.31573 0.31505 0.93308 0.0
C1333 C 0.31843 0.32237 0.95777 0.0
C1334 C 0.30577 0.37248 0.91404 0.0
C1335 C 0.31774 0.29011 0.92275 0.0
C1336 C 0.29095 0.30561 0.85252 0.0
C1337 C 0.31076 0.31027 0.84276 0.0
C1338 C 0.291 0.31249 0.87696 0.0
C1339 C 0.3113 0.32464 0.89215 0.0
C1340 C 0.33129 0.32968 0.88233 0.0
C1341 C 0.3308 0.32233 0.85789 0.0
C1342 C 0.26931 0.30642 0.88656 0.0
C1343 C 0.35331 0.34281 0.89771 0.0
H1344 H 0.31117 0.37909 0.96169 0.0
H1345 H 0.32213 0.31006 0.96884 0.0
H1346 H 0.32033 0.3783 0.90499 0.0
H1347 H 0.29113 0.36379 0.90016 0.0
H1348 H 0.30307 0.38898 0.92469 0.0
H1349 H 0.319 0.27886 0.93637 0.0
H1350 H 0.30318 0.28013 0.90912 0.0
H1351 H 0.33275 0.29213 0.91398 0.0
H1352 H 0.27534 0.29633 0.84109 0.0
H1353 H 0.34619 0.32622 0.85062 0.0
H1354 H 0.26664 0.32325 0.89651 0.0
H1355 H 0.26992 0.29391 0.89908 0.0
H1356 H 0.25487 0.2976 0.8724 0.0
H1357 H 0.35251 0.36055 0.90775 0.0
H1358 H 0.36722 0.34631 0.88732 0.0
H1359 H 0.357 0.33178 0.91075 0.0
C1360 C 0.97282 0.06194 0.35043 0.0
C1361 C 0.9844 0.05899 0.33105 0.0
C1362 C 0.98153 0.06025 0.3739 0.0
C1363 C 1.00268 0.05567 0.37901 0.0
C1364 C 0.01462 0.05352 0.35964 0.0
C1365 C 1.00546 0.05494 0.33648 0.0
C1366 C 0.96761 0.06255 0.39323 0.0
C1367 C 0.03717 0.04905 0.36319 0.0
C1368 C 0.03512 0.06855 0.44392 0.0
C1369 C 0.03167 0.04514 0.44987 0.0
C1370 C 0.0258 0.07224 0.42157 0.0
C1371 C 0.01208 0.05226 0.40395 0.0
C1372 C 1.00836 0.02866 0.41001 0.0
C1373 C 0.01807 0.02544 0.43233 0.0
C1374 C 0.03095 0.09781 0.41672 0.0
C1375 C 0.99398 1.00645 0.39269 0.0
H1376 H 0.95643 0.06451 0.34712 0.0
H1377 H 0.01492 0.05237 0.32221 0.0
H1378 H 0.9629 0.045 0.39945 0.0
H1379 H 0.97737 0.07674 0.40853 0.0
H1380 H 0.95224 0.06733 0.38727 0.0
H1381 H 0.04521 0.04938 0.34709 0.0
H1382 H 0.04824 0.0631 0.37785 0.0
H1383 H 0.03554 0.031 0.36821 0.0
H1384 H 0.04541 0.08422 0.45675 0.0
H1385 H 0.01482 1.00718 0.43607 0.0
H1386 H 0.01529 0.10267 0.41236 0.0
H1387 H 0.03974 0.09874 0.40117 0.0
H1388 H 0.04142 0.1116 0.43196 0.0
H1389 H 0.97749 1.00911 0.38738 0.0
H1390 H 0.99155 0.98951 0.40005 0.0
H1391 H 1.00168 1.00391 0.3765 0.0
C1392 C 0.33284 0.73135 0.60485 0.0
C1393 C 0.31442 0.73383 0.59071 0.0
C1394 C 0.34097 0.74656 0.62716 0.0
C1395 C 0.33 0.76403 0.63565 0.0
C1396 C 0.31308 0.76837 0.62043 0.0
C1397 C 0.30571 0.75344 0.59805 0.0
C1398 C 0.35998 0.74247 0.64246 0.0
C1399 C 0.30094 0.78681 0.6287 0.0
C1400 C 0.31955 0.76757 0.69863 0.0
C1401 C 0.33213 0.79131 0.70941 0.0
C1402 C 0.31903 0.75856 0.67477 0.0
C1403 C 0.33225 0.77328 0.66141 0.0
C1404 C 0.34588 0.79695 0.67241 0.0
C1405 C 0.34532 0.80593 0.6963 0.0
C1406 C 0.30378 0.73343 0.66378 0.0
C1407 C 0.36077 0.81297 0.65907 0.0
H1408 H 0.34011 0.71672 0.59914 0.0
H1409 H 0.29188 0.75607 0.58707 0.0
H1410 H 0.37113 0.76016 0.6526 0.0
H1411 H 0.35337 0.7313 0.65531 0.0
H1412 H 0.36983 0.7327 0.63183 0.0
H1413 H 0.28991 0.78987 0.61398 0.0
H1414 H 0.29061 0.78019 0.64193 0.0
H1415 H 0.31288 0.80457 0.63736 0.0
H1416 H 0.30978 0.75596 0.70884 0.0
H1417 H 0.35538 0.82417 0.70473 0.0
H1418 H 0.31361 0.72124 0.65676 0.0
H1419 H 0.29198 0.73466 0.64877 0.0
H1420 H 0.29404 0.72479 0.67655 0.0
H1421 H 0.36696 0.80199 0.6452 0.0
H1422 H 0.37524 0.82605 0.67115 0.0
H1423 H 0.35131 0.8238 0.65043 0.0
C1424 C 0.61462 0.01063 0.80233 0.0
C1425 C 0.63265 1.00552 0.79245 0.0
C1426 C 0.6079 1.0014 0.82197 0.0
C1427 C 0.61952 0.98665 0.83215 0.0
C1428 C 0.6375 0.98095 0.82208 0.0
C1429 C 0.64392 0.99053 0.8023 0.0
C1430 C 0.58851 1.00786 0.83203 0.0
C1431 C 0.65035 0.96537 0.83246 0.0
C1432 C 0.60863 0.99271 0.89436 0.0
C1433 C 0.58865 0.97412 0.89159 0.0
C1434 C 0.621 0.99502 0.87579 0.0
C1435 C 0.613 0.97853 0.85397 0.0
C1436 C 0.59472 0.95774 0.85226 0.0
C1437 C 0.5827 0.95577 0.87118 0.0
C1438 C 0.64084 0.01704 0.87857 0.0
C1439 C 0.58617 0.93924 0.82954 0.0
H1440 H 0.60569 0.02201 0.79476 0.0
H1441 H 0.65787 0.98649 0.79473 0.0
H1442 H 0.57549 0.99097 0.83264 0.0
H1443 H 0.59408 0.0184 0.85036 0.0
H1444 H 0.58091 0.01895 0.82154 0.0
H1445 H 0.6599 0.9578 0.81962 0.0
H1446 H 0.66229 0.97672 0.84807 0.0
H1447 H 0.63916 0.95004 0.83845 0.0
H1448 H 0.61356 1.00692 0.91011 0.0
H1449 H 0.56771 0.94085 0.86927 0.0
H1450 H 0.63579 0.03127 0.87038 0.0
H1451 H 0.6542 0.0122 0.86953 0.0
H1452 H 0.64762 0.025 0.89744 0.0
H1453 H 0.576 0.94658 0.81738 0.0
H1454 H 0.57559 0.9217 0.83257 0.0
H1455 H 0.60008 0.93562 0.82069 0.0
C1456 C 0.31754 0.3262 0.10361 0.0
C1457 C 0.31565 0.34878 0.09885 0.0
C1458 C 0.31183 0.31839 0.12445 0.0
C1459 C 0.30423 0.33357 0.14145 0.0
C1460 C 0.30204 0.35631 0.13672 0.0
C1461 C 0.30759 0.36355 0.11545 0.0
C1462 C 0.31415 0.29386 0.12836 0.0
C1463 C 0.29426 0.37324 0.15437 0.0
C1464 C 0.27278 0.30171 0.18587 0.0
C1465 C 0.28966 0.30553 0.20501 0.0
C1466 C 0.27709 0.31133 0.16545 0.0
C1467 C 0.2988 0.32548 0.16409 0.0
C1468 C 0.3157 0.33019 0.18379 0.0
C1469 C 0.31099 0.32004 0.20386 0.0
C1470 C 0.25856 0.30552 0.14494 0.0
C1471 C 0.33901 0.34537 0.18342 0.0
H1472 H 0.32362 0.31449 0.09098 0.0
H1473 H 0.3062 0.38108 0.11214 0.0
H1474 H 0.32646 0.29639 0.1443 0.0
H1475 H 0.29806 0.28238 0.13148 0.0
H1476 H 0.31955 0.28382 0.11314 0.0
H1477 H 0.29308 0.39008 0.14803 0.0
H1478 H 0.27775 0.36371 0.15823 0.0
H1479 H 0.30594 0.37856 0.17122 0.0
H1480 H 0.25623 0.29056 0.18654 0.0
H1481 H 0.32417 0.32308 0.21847 0.0
H1482 H 0.26249 0.29401 0.12966 0.0
H1483 H 0.25696 0.32257 0.13938 0.0
H1484 H 0.24232 0.29565 0.14924 0.0
H1485 H 0.3467 0.33548 0.17019 0.0
H1486 H 0.34967 0.34941 0.20085 0.0
H1487 H 0.33868 0.3629 0.17808 0.0
C1488 C 0.27268 0.99171 0.01255 0.0
C1489 C 0.26646 0.97022 0.99525 0.0
C1490 C 0.25918 1.00757 0.01459 0.0
C1491 C 0.23906 1.00188 0.99883 0.0
C1492 C 0.23365 0.98137 0.98008 0.0
C1493 C 0.24741 0.9657 0.97853 0.0
C1494 C 0.26558 0.02929 0.03481 0.0
C1495 C 0.21249 0.97491 0.96271 0.0
C1496 C 0.19181 0.01972 0.02525 0.0
C1497 C 0.19179 0.04127 0.01705 0.0
C1498 C 0.20692 1.00665 0.01914 0.0
C1499 C 0.22231 0.01515 1.0042 0.0
C1500 C 0.22207 0.03654 0.99533 0.0
C1501 C 0.20682 0.04942 1.00192 0.0
C1502 C 0.20659 0.98388 0.02896 0.0
C1503 C 0.23812 0.04598 0.97922 0.0
H1504 H 0.28751 0.99552 0.02539 0.0
H1505 H 0.2426 0.94928 0.96494 0.0
H1506 H 0.26358 0.04591 0.02863 0.0
H1507 H 0.25443 0.02573 0.04818 0.0
H1508 H 0.283 0.03303 0.04351 0.0
H1509 H 0.21252 0.96102 0.94708 0.0
H1510 H 0.19812 0.96744 0.97146 0.0
H1511 H 0.20998 0.99141 0.95664 0.0
H1512 H 0.17986 0.01294 0.03642 0.0
H1513 H 0.20693 0.06608 0.99557 0.0
H1514 H 0.22285 0.98621 0.03977 0.0
H1515 H 0.20393 0.96799 0.01435 0.0
H1516 H 0.19335 0.97959 0.04009 0.0
H1517 H 0.25537 0.05156 0.98879 0.0
H1518 H 0.2348 0.0619 0.97258 0.0
H1519 H 0.23717 0.03131 0.96392 0.0
C1520 C 0.71473 0.62223 0.99477 0.0
C1521 C 0.71461 0.64568 0.99122 0.0
C1522 C 0.69483 0.60448 0.99567 0.0
C1523 C 0.67423 0.61019 0.99278 0.0
C1524 C 0.67396 0.63358 0.98849 0.0
C1525 C 0.69405 0.65096 0.98783 0.0
C1526 C 0.6959 0.57984 1.0004 0.0
C1527 C 0.65245 0.6405 0.98514 0.0
C1528 C 0.6196 0.55898 0.97764 0.0
C1529 C 0.61218 0.55935 0.99958 0.0
C1530 C 0.6398 0.57524 0.97516 0.0
C1531 C 0.65303 0.59218 0.99514 0.0
C1532 C 0.64562 0.59247 0.01737 0.0
C1533 C 0.62533 0.57612 0.01929 0.0
C1534 C 0.64686 0.57447 0.9511 0.0
C1535 C 0.65911 0.61013 0.03916 0.0
H1536 H 0.73045 0.61793 0.99751 0.0
H1537 H 0.69362 0.66893 0.98495 0.0
H1538 H 0.68998 0.57724 0.01738 0.0
H1539 H 0.68476 0.56506 0.98641 0.0
H1540 H 0.713 0.57781 1.00127 0.0
H1541 H 0.65489 0.65896 0.98078 0.0
H1542 H 0.64044 0.62697 0.9708 0.0
H1543 H 0.6448 0.64024 1.00147 0.0
H1544 H 0.60949 0.54609 0.96233 0.0
H1545 H 0.61984 0.57633 0.03636 0.0
H1546 H 0.66349 0.57125 0.95165 0.0
H1547 H 0.64827 0.59237 0.9458 0.0
H1548 H 0.63496 0.55995 0.93741 0.0
H1549 H 0.67608 0.60784 0.04195 0.0
H1550 H 0.65142 0.60754 0.05524 0.0
H1551 H 0.66088 0.6292 0.03682 0.0
C1552 C 0.71976 0.43109 0.29988 0.0
C1553 C 0.71658 0.44567 0.28292 0.0
C1554 C 0.73097 0.41225 0.29667 0.0
C1555 C 0.73998 0.40646 0.27565 0.0
C1556 C 0.73695 0.42099 0.25828 0.0
C1557 C 0.72559 0.43999 0.262 0.0
C1558 C 0.73318 0.39836 0.31623 0.0
C1559 C 0.74576 0.41636 0.2354 0.0
C1560 C 0.78677 0.3712 0.27832 0.0
C1561 C 0.77557 0.34613 0.26913 0.0
C1562 C 0.77582 0.39045 0.28 0.0
C1563 C 0.75245 0.38565 0.27238 0.0
C1564 C 0.74106 0.3604 0.26293 0.0
C1565 C 0.75244 0.34148 0.26146 0.0
C1566 C 0.78949 0.41628 0.29041 0.0
C1567 C 0.71643 0.35312 0.25443 0.0
H1568 H 0.71334 0.43439 0.3163 0.0
H1569 H 0.72373 0.45032 0.24832 0.0
H1570 H 0.72515 0.37855 0.30958 0.0
H1571 H 0.75099 0.40054 0.3223 0.0
H1572 H 0.72555 0.40461 0.33159 0.0
H1573 H 0.74228 0.42854 0.22342 0.0
H1574 H 0.76397 0.41918 0.23898 0.0
H1575 H 0.73819 0.39706 0.22631 0.0
H1576 H 0.80444 0.37596 0.28455 0.0
H1577 H 0.74293 0.32273 0.25427 0.0
H1578 H 0.78349 0.42306 0.30677 0.0
H1579 H 0.78747 0.42845 0.2779 0.0
H1580 H 0.80743 0.41774 0.2947 0.0
H1581 H 0.70757 0.35729 0.26941 0.0
H1582 H 0.70981 0.33335 0.24646 0.0
H1583 H 0.71268 0.36393 0.24119 0.0
C1584 C 0.88073 0.506 0.46761 0.0
C1585 C 0.87563 0.48135 0.45675 0.0
C1586 C 0.8997 0.52281 0.46335 0.0
C1587 C 0.91355 0.5143 0.44834 0.0
C1588 C 0.90557 0.49085 0.43367 0.0
C1589 C 0.88669 0.47443 0.43828 0.0
C1590 C 0.90695 0.54833 0.47798 0.0
C1591 C 0.91917 0.48147 0.41644 0.0
C1592 C 0.97393 0.54846 0.4479 0.0
C1593 C 0.98463 0.53988 0.46573 0.0
C1594 C 0.95059 0.54102 0.44227 0.0
C1595 C 0.93797 0.52462 0.45472 0.0
C1596 C 0.94889 0.51616 0.47286 0.0
C1597 C 0.97196 0.52394 0.47809 0.0
C1598 C 0.93961 0.55121 0.42349 0.0
C1599 C 0.93635 0.49844 0.48665 0.0
H1600 H 0.87178 0.51148 0.48151 0.0
H1601 H 0.88218 0.45544 0.42935 0.0
H1602 H 0.9183 0.54876 0.49408 0.0
H1603 H 0.91607 0.56152 0.46802 0.0
H1604 H 0.8925 0.5542 0.48354 0.0
H1605 H 0.90868 0.46579 0.40281 0.0
H1606 H 0.9277 0.49608 0.40759 0.0
H1607 H 0.93206 0.47516 0.42612 0.0
H1608 H 0.98371 0.56114 0.43859 0.0
H1609 H 0.98014 0.51717 0.49184 0.0
H1610 H 0.9344 0.567 0.43212 0.0
H1611 H 0.92454 0.53753 0.4131 0.0
H1612 H 0.9512 0.55773 0.41126 0.0
H1613 H 0.92459 0.50643 0.49587 0.0
H1614 H 0.94755 0.49375 0.50008 0.0
H1615 H 0.92661 0.48122 0.47453 0.0
C1616 C 0.3699 0.10582 0.34739 0.0
C1617 C 0.38967 0.1124 0.33791 0.0
C1618 C 0.35198 0.11497 0.34102 0.0
C1619 C 0.35389 0.13076 0.32462 0.0
C1620 C 0.3741 0.1382 0.31574 0.0
C1621 C 0.39176 0.12905 0.32259 0.0
C1622 C 0.33087 0.10734 0.35135 0.0
C1623 C 0.3769 0.15541 0.29854 0.0
C1624 C 0.30431 0.13498 0.2846 0.0
C1625 C 0.30229 0.15787 0.29471 0.0
C1626 C 0.32028 0.12528 0.29499 0.0
C1627 C 0.33465 0.13895 0.31584 0.0
C1628 C 0.33213 0.16169 0.32661 0.0
C1629 C 0.3158 0.17077 0.316 0.0
C1630 C 0.32259 0.10104 0.28291 0.0
C1631 C 0.34705 0.17684 0.34889 0.0
H1632 H 0.36823 0.09313 0.35938 0.0
H1633 H 0.40701 0.1344 0.31528 0.0
H1634 H 0.32647 0.12377 0.35981 0.0
H1635 H 0.31697 0.09696 0.33709 0.0
H1636 H 0.33236 0.09579 0.36463 0.0
H1637 H 0.39385 0.15976 0.29365 0.0
H1638 H 0.3647 0.14714 0.28222 0.0
H1639 H 0.37357 0.17275 0.30631 0.0
H1640 H 0.29377 0.12495 0.26822 0.0
H1641 H 0.31439 0.18861 0.3237 0.0
H1642 H 0.32281 0.08874 0.2957 0.0
H1643 H 0.33861 0.10398 0.27595 0.0
H1644 H 0.30892 0.09175 0.26804 0.0
H1645 H 0.34123 0.16933 0.36424 0.0
H1646 H 0.34687 0.19626 0.35144 0.0
H1647 H 0.36451 0.1763 0.3488 0.0
C1648 C 0.33368 0.1164 0.47081 0.0
C1649 C 0.33352 0.13855 0.4849 0.0
C1650 C 0.35236 0.10725 0.47282 0.0
C1651 C 0.3716 0.12059 0.48919 0.0
C1652 C 0.3716 0.14303 0.50338 0.0
C1653 C 0.35261 0.15166 0.50116 0.0
C1654 C 0.35143 0.08317 0.45746 0.0
C1655 C 0.39175 0.15801 0.52091 0.0
C1656 C 0.41215 0.0862 0.50986 0.0
C1657 C 0.42864 0.09128 0.49543 0.0
C1658 C 0.39366 0.09565 0.50809 0.0
C1659 C 0.39155 0.11088 0.49163 0.0
C1660 C 0.4083 0.11638 0.47724 0.0
C1661 C 0.4265 0.10642 0.47919 0.0
C1662 C 0.37615 0.08897 0.52358 0.0
C1663 C 0.40695 0.13273 0.45966 0.0
H1664 H 0.31911 0.10604 0.4582 0.0
H1665 H 0.3528 0.16882 0.51209 0.0
H1666 H 0.36484 0.0858 0.44639 0.0
H1667 H 0.35427 0.07007 0.46865 0.0
H1668 H 0.33524 0.0749 0.44572 0.0
H1669 H 0.38933 0.17527 0.53033 0.0
H1670 H 0.3956 0.14723 0.53412 0.0
H1671 H 0.40641 0.16259 0.51174 0.0
H1672 H 0.41341 0.07425 0.52222 0.0
H1673 H 0.4392 0.11067 0.46809 0.0
H1674 H 0.35991 0.07917 0.51245 0.0
H1675 H 0.37408 0.10576 0.53428 0.0
H1676 H 0.38031 0.07718 0.53566 0.0
H1677 H 0.39178 0.12442 0.44639 0.0
H1678 H 0.42163 0.13592 0.45031 0.0
H1679 H 0.40565 0.15065 0.46875 0.0
C1680 C 0.73916 0.59744 0.27318 0.0
C1681 C 0.72054 0.59527 0.28508 0.0
C1682 C 0.75318 0.62084 0.27142 0.0
C1683 C 0.74893 0.6431 0.28184 0.0
C1684 C 0.73053 0.64086 0.29433 0.0
C1685 C 0.71682 0.61747 0.29566 0.0
C1686 C 0.77237 0.62174 0.25784 0.0
C1687 C 0.725 0.66337 0.30618 0.0
C1688 C 0.79485 0.7056 0.2972 0.0
C1689 C 0.78975 0.71823 0.27945 0.0
C1690 C 0.78222 0.68144 0.29787 0.0
C1691 C 0.76361 0.66868 0.28027 0.0
C1692 C 0.75838 0.68128 0.26218 0.0
C1693 C 0.77131 0.70562 0.26199 0.0
C1694 C 0.78874 0.66962 0.31778 0.0
C1695 C 0.73892 0.66902 0.24291 0.0
H1696 H 0.74234 0.58087 0.26451 0.0
H1697 H 0.70269 0.61661 0.30495 0.0
H1698 H 0.77008 0.63077 0.24267 0.0
H1699 H 0.7881 0.63286 0.26922 0.0
H1700 H 0.77401 0.60324 0.25114 0.0
H1701 H 0.71049 0.65885 0.3156 0.0
H1702 H 0.73948 0.67527 0.31902 0.0
H1703 H 0.72133 0.67413 0.29286 0.0
H1704 H 0.80892 0.71475 0.31089 0.0
H1705 H 0.76699 0.71473 0.24805 0.0
H1706 H 0.79165 0.65188 0.31061 0.0
H1707 H 0.775 0.66574 0.32832 0.0
H1708 H 0.80397 0.68133 0.3297 0.0
H1709 H 0.7406 0.65119 0.23406 0.0
H1710 H 0.73745 0.68041 0.22946 0.0
H1711 H 0.72331 0.66523 0.25064 0.0
C1712 C 0.92429 0.46273 0.80365 0.0
C1713 C 0.91881 0.48464 0.80265 0.0
C1714 C 0.90778 0.44057 0.80076 0.0
C1715 C 0.88518 0.44031 0.79696 0.0
C1716 C 0.87944 0.46243 0.79676 0.0
C1717 C 0.89636 0.48439 0.79955 0.0
C1718 C 0.91455 0.41732 0.80107 0.0
C1719 C 0.85548 0.46278 0.79301 0.0
C1720 C 0.84711 0.37896 0.76513 0.0
C1721 C 0.84016 0.36829 0.78407 0.0
C1722 C 0.86094 0.40294 0.76899 0.0
C1723 C 0.86777 0.41658 0.79232 0.0
C1724 C 0.85978 0.4064 0.81138 0.0
C1725 C 0.84615 0.38228 0.80704 0.0
C1726 C 0.86921 0.41314 0.7482 0.0
C1727 C 0.86651 0.42053 0.83646 0.0
H1728 H 0.94157 0.46273 0.80612 0.0
H1729 H 0.89199 0.50126 0.7988 0.0
H1730 H 0.90696 0.40783 0.8146 0.0
H1731 H 0.90838 0.40471 0.78375 0.0
H1732 H 0.93286 0.42079 0.80485 0.0
H1733 H 0.85381 0.48168 0.79506 0.0
H1734 H 0.84744 0.45266 0.77503 0.0
H1735 H 0.84627 0.45341 0.8057 0.0
H1736 H 0.84247 0.36831 0.74732 0.0
H1737 H 0.84061 0.37424 0.82173 0.0
H1738 H 0.88734 0.41536 0.74936 0.0
H1739 H 0.86664 0.43147 0.74848 0.0
H1740 H 0.86078 0.40106 0.73107 0.0
H1741 H 0.88435 0.42266 0.84227 0.0
H1742 H 0.85673 0.41121 0.84885 0.0
H1743 H 0.86435 0.43914 0.83766 0.0
C1744 C 0.11011 0.88828 0.06506 0.0
C1745 C 0.10427 0.882 0.08643 0.0
C1746 C 0.10432 0.90767 0.05645 0.0
C1747 C 0.09256 0.92166 0.06954 0.0
C1748 C 0.08664 0.91553 0.09118 0.0
C1749 C 0.0924 0.89576 0.09925 0.0
C1750 C 0.11079 0.91313 0.03319 0.0
C1751 C 0.07436 0.93003 0.10592 0.0
C1752 C 0.09618 0.98566 0.05655 0.0
C1753 C 0.07578 0.982 0.04212 0.0
C1754 C 0.10165 0.96642 0.06586 0.0
C1755 C 0.08655 0.94263 0.0605 0.0
C1756 C 0.06601 0.93877 0.04582 0.0
C1757 C 0.06084 0.95841 0.03698 0.0
C1758 C 0.12366 0.9716 0.08152 0.0
C1759 C 0.04949 0.91377 0.03924 0.0
H1760 H 0.11915 0.87784 0.05481 0.0
H1761 H 0.08783 0.89127 0.11579 0.0
H1762 H 0.09577 0.91204 0.02081 0.0
H1763 H 0.12183 0.93203 0.03583 0.0
H1764 H 0.11949 0.90029 0.02486 0.0
H1765 H 0.07106 0.92317 0.12236 0.0
H1766 H 0.08417 0.94953 0.11072 0.0
H1767 H 0.05828 0.92925 0.09559 0.0
H1768 H 0.10787 1.00373 0.06086 0.0
H1769 H 0.04504 0.95519 0.02589 0.0
H1770 H 0.1338 0.96037 0.07336 0.0
H1771 H 0.12092 0.96643 0.09876 0.0
H1772 H 0.13329 0.99117 0.08468 0.0
H1773 H 0.05721 0.90052 0.02986 0.0
H1774 H 0.03423 0.91369 0.02777 0.0
H1775 H 0.0447 0.90723 0.05539 0.0
C1776 C 0.94771 0.25668 0.85115 0.0
C1777 C 0.95007 0.26542 0.87553 0.0
C1778 C 0.93051 0.25995 0.83535 0.0
C1779 C 0.91574 0.27304 0.84395 0.0
C1780 C 0.91835 0.28218 0.86851 0.0
C1781 C 0.93513 0.27796 0.88389 0.0
C1782 C 0.928 0.24923 0.80945 0.0
C1783 C 0.90363 0.29688 0.87859 0.0
C1784 C 0.88474 0.30252 0.80191 0.0
C1785 C 0.86298 0.28711 0.79826 0.0
C1786 C 0.90201 0.29815 0.81661 0.0
C1787 C 0.89766 0.27743 0.82749 0.0
C1788 C 0.8757 0.26162 0.82353 0.0
C1789 C 0.85865 0.26681 0.80926 0.0
C1790 C 0.92485 0.31604 0.82089 0.0
C1791 C 0.87018 0.2391 0.83431 0.0
H1792 H 0.95909 0.24697 0.84447 0.0
H1793 H 0.93691 0.28515 0.90262 0.0
H1794 H 0.91092 0.23703 0.80323 0.0
H1795 H 0.93042 0.26404 0.79915 0.0
H1796 H 0.94008 0.23864 0.80562 0.0
H1797 H 0.90825 0.30345 0.89796 0.0
H1798 H 0.9047 0.31295 0.87009 0.0
H1799 H 0.88605 0.28566 0.87481 0.0
H1800 H 0.8882 0.31827 0.79352 0.0
H1801 H 0.84195 0.25463 0.80631 0.0
H1802 H 0.93719 0.30654 0.8152 0.0
H1803 H 0.92991 0.32374 0.84005 0.0
H1804 H 0.92554 0.33135 0.81136 0.0
H1805 H 0.8815 0.22776 0.82977 0.0
H1806 H 0.85274 0.22778 0.82825 0.0
H1807 H 0.8727 0.24448 0.8538 0.0
C1808 C 0.57686 0.23309 0.59639 0.0
C1809 C 0.59136 0.24838 0.5848 0.0
C1810 C 0.57125 0.2074 0.58956 0.0
C1811 C 0.58024 0.19665 0.5706 0.0
C1812 C 0.59418 0.212 0.55827 0.0
C1813 C 0.59958 0.23756 0.56552 0.0
C1814 C 0.55628 0.19175 0.60313 0.0
C1815 C 0.60396 0.20142 0.5378 0.0
C1816 C 0.5873 0.13247 0.56758 0.0
C1817 C 0.56941 0.11822 0.55037 0.0
C1818 C 0.59067 0.15784 0.57469 0.0
C1819 C 0.57595 0.16942 0.56422 0.0
C1820 C 0.55773 0.15509 0.54701 0.0
C1821 C 0.55464 0.12974 0.54039 0.0
C1822 C 0.61028 0.17234 0.59314 0.0
C1823 C 0.54178 0.16661 0.53514 0.0
H1824 H 0.57044 0.24115 0.61133 0.0
H1825 H 0.61072 0.24909 0.55632 0.0
H1826 H 0.54214 0.17842 0.59089 0.0
H1827 H 0.56563 0.18111 0.61222 0.0
H1828 H 0.54962 0.2028 0.61652 0.0
H1829 H 0.61348 0.21576 0.52922 0.0
H1830 H 0.61523 0.19104 0.54404 0.0
H1831 H 0.5906 0.18839 0.52438 0.0
H1832 H 0.59882 0.12384 0.57543 0.0
H1833 H 0.54088 0.11903 0.52689 0.0
H1834 H 0.60459 0.18266 0.60793 0.0
H1835 H 0.62178 0.18592 0.5854 0.0
H1836 H 0.61963 0.16053 0.60031 0.0
H1837 H 0.5346 0.17692 0.54856 0.0
H1838 H 0.528 0.15285 0.52272 0.0
H1839 H 0.55079 0.17988 0.52519 0.0
C1840 C 0.60493 0.79684 0.39058 0.0
C1841 C 0.58362 0.78088 0.38209 0.0
C1842 C 0.62243 0.79765 0.3773 0.0
C1843 C 0.61871 0.78197 0.35499 0.0
C1844 C 0.5972 0.76596 0.34618 0.0
C1845 C 0.5799 0.76568 0.35977 0.0
C1846 C 0.645 0.81515 0.38732 0.0
C1847 C 0.59255 0.74882 0.32256 0.0
C1848 C 0.66044 0.79793 0.31281 0.0
C1849 C 0.67439 0.78307 0.31675 0.0
C1850 C 0.64218 0.79763 0.32493 0.0
C1851 C 0.63756 0.78191 0.34127 0.0
C1852 C 0.65142 0.76666 0.34509 0.0
C1853 C 0.66965 0.76749 0.3329 0.0
C1854 C 0.628 0.81438 0.3205 0.0
C1855 C 0.64703 0.74947 0.36217 0.0
H1856 H 0.60801 0.80878 0.40772 0.0
H1857 H 0.56354 0.75326 0.35305 0.0
H1858 H 0.65735 0.80478 0.38985 0.0
H1859 H 0.65062 0.82719 0.37478 0.0
H1860 H 0.64498 0.82679 0.40452 0.0
H1861 H 0.57486 0.73789 0.31795 0.0
H1862 H 0.5969 0.75934 0.30852 0.0
H1863 H 0.60309 0.73611 0.32273 0.0
H1864 H 0.66405 0.81015 0.30051 0.0
H1865 H 0.68008 0.75562 0.33578 0.0
H1866 H 0.62866 0.82728 0.3371 0.0
H1867 H 0.6104 0.80359 0.31471 0.0
H1868 H 0.63347 0.82511 0.30688 0.0
H1869 H 0.64821 0.76006 0.3802 0.0
H1870 H 0.65894 0.73826 0.36263 0.0
H1871 H 0.62992 0.73703 0.35725 0.0
C1872 C 0.13602 0.27775 0.43842 0.0
C1873 C 0.13706 0.29859 0.45518 0.0
C1874 C 0.13365 0.25497 0.44502 0.0
C1875 C 0.13269 0.25324 0.46892 0.0
C1876 C 0.13652 0.27477 0.48621 0.0
C1877 C 0.13843 0.29719 0.47909 0.0
C1878 C 0.12976 0.23247 0.42606 0.0
C1879 C 0.13632 0.27383 0.51199 0.0
C1880 C 0.09191 0.19945 0.48426 0.0
C1881 C 0.10593 0.18629 0.49236 0.0
C1882 C 0.1004 0.22064 0.47554 0.0
C1883 C 0.12357 0.22909 0.47531 0.0
C1884 C 0.13774 0.21537 0.48272 0.0
C1885 C 0.12869 0.19399 0.4911 0.0
C1886 C 0.08462 0.23446 0.46738 0.0
C1887 C 0.1625 0.22384 0.48296 0.0
H1888 H 0.13495 0.27875 0.41989 0.0
H1889 H 0.13952 0.31335 0.49212 0.0
H1890 H 0.13863 0.21967 0.43193 0.0
H1891 H 0.11175 0.22275 0.42233 0.0
H1892 H 0.13519 0.23717 0.40941 0.0
H1893 H 0.14323 0.29224 0.52345 0.0
H1894 H 0.11898 0.26635 0.51495 0.0
H1895 H 0.14602 0.26157 0.51745 0.0
H1896 H 0.07428 0.19329 0.48507 0.0
H1897 H 0.13953 0.18387 0.49761 0.0
H1898 H 0.08693 0.23792 0.44945 0.0
H1899 H 0.08824 0.25248 0.47938 0.0
H1900 H 0.06696 0.22442 0.46699 0.0
H1901 H 0.16637 0.23028 0.46651 0.0
H1902 H 0.17053 0.20912 0.48511 0.0
H1903 H 0.16994 0.23949 0.49787 0.0
C1904 C 0.56284 0.26859 0.20915 0.0
C1905 C 0.54931 0.24606 0.2119 0.0
C1906 C 0.58579 0.27554 0.21716 0.0
C1907 C 0.59529 0.25925 0.2275 0.0
C1908 C 0.5814 0.23776 0.23251 0.0
C1909 C 0.55852 0.2316 0.22492 0.0
C1910 C 0.60002 0.29928 0.21278 0.0
C1911 C 0.59085 0.21987 0.24353 0.0
C1912 C 0.6493 0.24996 0.21136 0.0
C1913 C 0.66328 0.25805 0.23316 0.0
C1914 C 0.62739 0.25135 0.20909 0.0
C1915 C 0.61944 0.26191 0.22893 0.0
C1916 C 0.63396 0.27204 0.25049 0.0
C1917 C 0.65562 0.2696 0.25249 0.0
C1918 C 0.6124 0.24017 0.18574 0.0
C1919 C 0.62639 0.28431 0.27179 0.0
H1920 H 0.55576 0.28013 0.19956 0.0
H1921 H 0.54815 0.21436 0.22753 0.0
H1922 H 0.61365 0.30812 0.22776 0.0
H1923 H 0.60769 0.29561 0.19675 0.0
H1924 H 0.59008 0.31222 0.21002 0.0
H1925 H 0.57772 0.20523 0.24822 0.0
H1926 H 0.59994 0.21118 0.23095 0.0
H1927 H 0.60286 0.22944 0.25967 0.0
H1928 H 0.65529 0.24189 0.19609 0.0
H1929 H 0.66621 0.27596 0.26946 0.0
H1930 H 0.60493 0.25385 0.17942 0.0
H1931 H 0.59858 0.22473 0.18801 0.0
H1932 H 0.62137 0.23322 0.17191 0.0
H1933 H 0.61452 0.29449 0.26664 0.0
H1934 H 0.64069 0.29716 0.28429 0.0
H1935 H 0.61786 0.27025 0.28122 0.0
C1936 C 0.60477 0.89088 0.97451 0.0
C1937 C 0.61853 0.89732 0.95782 0.0
C1938 C 0.59727 0.90843 0.98837 0.0
C1939 C 0.60314 0.93286 0.98492 0.0
C1940 C 0.61806 0.93975 0.96898 0.0
C1941 C 0.62577 0.92187 0.95577 0.0
C1942 C 0.58253 0.90064 1.00623 0.0
C1943 C 0.62584 0.96569 0.96521 0.0
C1944 C 0.55902 0.96455 0.99868 0.0
C1945 C 0.56906 0.98052 0.02 0.0
C1946 C 0.57044 0.9499 0.98649 0.0
C1947 C 0.59201 0.9503 0.99656 0.0
C1948 C 0.60225 0.96637 0.01818 0.0
C1949 C 0.5907 0.98148 0.02957 0.0
C1950 C 0.55941 0.934 0.96282 0.0
C1951 C 0.62535 0.96757 0.02922 0.0
H1952 H 0.59953 0.87198 0.97649 0.0
H1953 H 0.63664 0.92698 0.94304 0.0
H1954 H 0.58846 0.91357 0.02342 0.0
H1955 H 0.56535 0.90095 1.00017 0.0
H1956 H 0.58202 0.88191 0.00899 0.0
H1957 H 0.62485 0.96583 0.94604 0.0
H1958 H 0.61635 0.97781 0.97314 0.0
H1959 H 0.64359 0.97351 0.97312 0.0
H1960 H 0.54216 0.96333 0.99161 0.0
H1961 H 0.5986 0.99403 0.04599 0.0
H1962 H 0.54395 0.93821 0.95611 0.0
H1963 H 0.55518 0.91448 0.96429 0.0
H1964 H 0.57096 0.93652 0.94968 0.0
H1965 H 0.6263 0.94903 0.03117 0.0
H1966 H 0.63042 0.97994 0.04679 0.0
H1967 H 0.6374 0.97426 0.01751 0.0
C1968 C 0.93737 0.71626 0.7243 0.0
C1969 C 0.94444 0.72747 0.70564 0.0
C1970 C 0.91867 0.71972 0.73391 0.0
C1971 C 0.90683 0.73467 0.72457 0.0
C1972 C 0.91306 0.74479 0.70483 0.0
C1973 C 0.93187 0.74115 0.69565 0.0
C1974 C 0.91248 0.70861 0.75494 0.0
C1975 C 0.90052 0.7605 0.69414 0.0
C1976 C 0.85062 0.73767 0.74005 0.0
C1977 C 0.85646 0.7604 0.75548 0.0
C1978 C 0.86695 0.72846 0.73036 0.0
C1979 C 0.88952 0.74208 0.73685 0.0
C1980 C 0.89553 0.76416 0.75376 0.0
C1981 C 0.87887 0.77322 0.76267 0.0
C1982 C 0.85998 0.705 0.71218 0.0
C1983 C 0.91951 0.77888 0.76154 0.0
H1984 H 0.94689 0.70549 0.73202 0.0
H1985 H 0.93707 0.7496 0.68105 0.0
H1986 H 0.91725 0.72318 0.77105 0.0
H1987 H 0.89428 0.70031 0.75295 0.0
H1988 H 0.92099 0.69441 0.75763 0.0
H1989 H 0.90597 0.7647 0.67734 0.0
H1990 H 0.88242 0.75126 0.69073 0.0
H1991 H 0.90318 0.778 0.70671 0.0
H1992 H 0.83323 0.72775 0.73447 0.0
H1993 H 0.88336 0.79066 0.77485 0.0
H1994 H 0.86917 0.69212 0.71714 0.0
H1995 H 0.86422 0.7089 0.69488 0.0
H1996 H 0.84187 0.69596 0.71002 0.0
H1997 H 0.92967 0.76703 0.76696 0.0
H1998 H 0.92146 0.79433 0.77647 0.0
H1999 H 0.92627 0.78642 0.74659 0.0
C2000 C 0.14528 0.01056 0.86573 0.0
C2001 C 0.13907 0.02269 0.84783 0.0
C2002 C 0.13588 0.01096 0.88757 0.0
C2003 C 0.11961 0.02383 0.89262 0.0
C2004 C 0.1135 0.03604 0.87467 0.0
C2005 C 0.12296 0.03529 0.85326 0.0
C2006 C 0.14346 0.99745 0.90543 0.0
C2007 C 0.09656 0.05013 0.87799 0.0
C2008 C 0.07558 1.00721 0.93547 0.0
C2009 C 0.0829 0.02564 0.95625 0.0
C2010 C 0.0875 1.00598 0.91574 0.0
C2011 C 0.10795 0.02371 0.91551 0.0
C2012 C 0.11574 0.0423 0.93658 0.0
C2013 C 0.1034 0.04302 0.95629 0.0
C2014 C 0.07769 0.98562 0.89459 0.0
C2015 C 0.13719 0.06187 0.93821 0.0
H2016 H 0.15758 1.00075 0.86281 0.0
H2017 H 0.11744 0.04502 0.84045 0.0
H2018 H 0.15054 0.01033 0.92247 0.0
H2019 H 0.12904 0.98332 0.90867 0.0
H2020 H 0.15615 0.9885 0.89962 0.0
H2021 H 0.0939 0.05952 0.86315 0.0
H2022 H 0.08043 0.03754 0.87957 0.0
H2023 H 0.10197 0.06402 0.89459 0.0
H2024 H 0.05995 0.99345 0.93439 0.0
H2025 H 0.10957 0.0577 0.9715 0.0
H2026 H 0.09019 0.97593 0.8899 0.0
H2027 H 0.07303 0.99338 0.87919 0.0
H2028 H 0.06271 0.97213 0.89771 0.0
H2029 H 0.13624 0.07172 0.92341 0.0
H2030 H 0.151 0.05336 0.93656 0.0
H2031 H 0.14116 0.07533 0.95512 0.0
C2032 C 0.86983 0.43143 0.57611 0.0
C2033 C 0.84993 0.43022 0.56204 0.0
C2034 C 0.86959 0.42134 0.5965 0.0
C2035 C 0.84899 0.40946 0.60263 0.0
C2036 C 0.82896 0.41063 0.58999 0.0
C2037 C 0.82969 0.42121 0.5699 0.0
C2038 C 0.89134 0.4213 0.61005 0.0
C2039 C 0.80664 0.39832 0.59605 0.0
C2040 C 0.84459 0.35027 0.62427 0.0
C2041 C 0.84228 0.35681 0.64796 0.0
C2042 C 0.84731 0.36744 0.60958 0.0
C2043 C 0.84816 0.39197 0.61889 0.0
C2044 C 0.84708 0.39907 0.6431 0.0
C2045 C 0.84396 0.38134 0.65734 0.0
C2046 C 0.84851 0.35908 0.58385 0.0
C2047 C 0.84835 0.42512 0.65378 0.0
H2048 H 0.88557 0.4388 0.57036 0.0
H2049 H 0.81425 0.42039 0.55922 0.0
H2050 H 0.89091 0.42454 0.62932 0.0
H2051 H 0.89429 0.40315 0.60495 0.0
H2052 H 0.90554 0.43541 0.60631 0.0
H2053 H 0.79297 0.40395 0.5869 0.0
H2054 H 0.80321 0.3782 0.59072 0.0
H2055 H 0.80658 0.40257 0.61533 0.0
H2056 H 0.84384 0.3315 0.61704 0.0
H2057 H 0.84204 0.38656 0.6756 0.0
H2058 H 0.86411 0.36999 0.57915 0.0
H2059 H 0.83446 0.36205 0.57266 0.0
H2060 H 0.84788 0.33943 0.57951 0.0
H2061 H 0.86167 0.43818 0.64754 0.0
H2062 H 0.85148 0.42859 0.67337 0.0
H2063 H 0.83242 0.42892 0.64821 0.0
C2064 C 0.4956 0.1126 0.40634 0.0
C2065 C 0.50509 0.11132 0.38559 0.0
C2066 C 0.50806 0.11261 0.42783 0.0
C2067 C 0.53012 0.11103 0.42813 0.0
C2068 C 0.5407 0.11418 0.40812 0.0
C2069 C 0.52799 0.11431 0.38699 0.0
C2070 C 0.49677 0.11089 0.44935 0.0
C2071 C 0.56449 0.11362 0.40797 0.0
C2072 C 0.56666 0.10146 0.47985 0.0
C2073 C 0.56188 0.0759 0.4752 0.0
C2074 C 0.55543 0.11338 0.46564 0.0
C2075 C 0.53971 0.09932 0.44594 0.0
C2076 C 0.53455 0.0734 0.44159 0.0
C2077 C 0.54566 0.06204 0.4564 0.0
C2078 C 0.56093 0.1409 0.47154 0.0
C2079 C 0.51776 0.05759 0.42086 0.0
H2080 H 0.47796 0.11075 0.40538 0.0
H2081 H 0.53545 0.11403 0.37099 0.0
H2082 H 0.48151 0.11712 0.44779 0.0
H2083 H 0.49206 0.0916 0.4515 0.0
H2084 H 0.50823 0.12187 0.46547 0.0
H2085 H 0.57121 0.12019 0.39253 0.0
H2086 H 0.5752 0.12505 0.42432 0.0
H2087 H 0.56541 0.09456 0.40721 0.0
H2088 H 0.579 0.11215 0.49475 0.0
H2089 H 0.54195 0.04226 0.45303 0.0
H2090 H 0.54665 0.14755 0.46566 0.0
H2091 H 0.57499 0.14885 0.46259 0.0
H2092 H 0.56616 0.14782 0.49082 0.0
H2093 H 0.50141 0.06124 0.42178 0.0
H2094 H 0.51555 0.03776 0.42026 0.0
H2095 H 0.52313 0.06203 0.40412 0.0
C2096 C 0.80456 0.71681 0.08296 0.0
C2097 C 0.79821 0.73213 0.06876 0.0
C2098 C 0.80833 0.72364 0.10783 0.0
C2099 C 0.80607 0.74651 0.11885 0.0
C2100 C 0.80086 0.76255 0.10452 0.0
C2101 C 0.79683 0.75512 0.0798 0.0
C2102 C 0.81364 0.70583 0.12231 0.0
C2103 C 0.79865 0.78726 0.11533 0.0
C2104 C 0.78899 0.75427 0.18023 0.0
C2105 C 0.80922 0.7668 0.19487 0.0
C2106 C 0.78788 0.74717 0.15568 0.0
C2107 C 0.80743 0.75297 0.1452 0.0
C2108 C 0.82793 0.7656 0.15987 0.0
C2109 C 0.82861 0.7722 0.18447 0.0
C2110 C 0.76568 0.73351 0.14091 0.0
C2111 C 0.84914 0.77249 0.14953 0.0
H2112 H 0.80552 0.69896 0.0747 0.0
H2113 H 0.79206 0.76719 0.06906 0.0
H2114 H 0.82855 0.71495 0.13575 0.0
H2115 H 0.79961 0.69933 0.13188 0.0
H2116 H 0.81661 0.68971 0.11126 0.0
H2117 H 0.79663 0.79852 0.1019 0.0
H2118 H 0.784 0.78485 0.12468 0.0
H2119 H 0.81348 0.79744 0.12856 0.0
H2120 H 0.7739 0.74976 0.18797 0.0
H2121 H 0.84434 0.78189 0.19551 0.0
H2122 H 0.7667 0.71602 0.13053 0.0
H2123 H 0.76113 0.74445 0.12816 0.0
H2124 H 0.7522 0.72945 0.15178 0.0
H2125 H 0.85206 0.75595 0.13926 0.0
H2126 H 0.86382 0.7817 0.1633 0.0
H2127 H 0.84763 0.78492 0.13714 0.0
C2128 C 0.11342 0.01707 0.70315 0.0
C2129 C 0.13484 0.01408 0.70902 0.0
C2130 C 0.1043 0.01791 0.67983 0.0
C2131 C 0.1166 0.0161 0.66074 0.0
C2132 C 0.13807 0.01247 0.66627 0.0
C2133 C 0.14679 0.01144 0.68992 0.0
C2134 C 0.08141 0.02147 0.6758 0.0
C2135 C 0.1523 0.01049 0.64719 0.0
C2136 C 0.08461 1.00221 0.59564 0.0
C2137 C 0.08766 0.02554 0.58961 0.0
C2138 C 0.09396 0.99884 0.61809 0.0
C2139 C 0.10726 0.0191 0.63569 0.0
C2140 C 0.11057 0.04262 0.62954 0.0
C2141 C 0.10085 0.04549 0.60712 0.0
C2142 C 0.08931 0.97333 0.62307 0.0
C2143 C 0.12441 0.06509 0.6469 0.0
H2144 H 0.10366 0.01933 0.71721 0.0
H2145 H 0.16343 1.00962 0.69359 0.0
H2146 H 0.08256 0.03935 0.67055 0.0
H2147 H 0.07076 1.00707 0.66115 0.0
H2148 H 0.07318 0.02097 0.69177 0.0
H2149 H 0.16786 1.00622 0.65345 0.0
H2150 H 0.14291 0.99606 0.6319 0.0
H2151 H 0.1567 0.02799 0.64084 0.0
H2152 H 0.07461 0.98637 0.58282 0.0
H2153 H 0.10375 0.06371 0.60329 0.0
H2154 H 0.08051 0.97221 0.63859 0.0
H2155 H 0.10517 0.9689 0.6275 0.0
H2156 H 0.07903 0.95933 0.60785 0.0
H2157 H 0.11648 0.06738 0.66296 0.0
H2158 H 0.1265 0.08196 0.63947 0.0
H2159 H 0.14107 0.06296 0.65244 0.0
C2160 C 0.82373 0.34689 0.4424 0.0
C2161 C 0.81234 0.36479 0.44616 0.0
C2162 C 0.81905 0.33003 0.42108 0.0
C2163 C 0.80222 0.33074 0.40336 0.0
C2164 C 0.78883 0.3467 0.40818 0.0
C2165 C 0.79415 0.36373 0.42955 0.0
C2166 C 0.83382 0.31342 0.41664 0.0
C2167 C 0.77022 0.34737 0.38995 0.0
C2168 C 0.81358 0.31897 0.34058 0.0
C2169 C 0.80109 0.29464 0.33244 0.0
C2170 C 0.81415 0.33079 0.36371 0.0
C2171 C 0.80138 0.31813 0.37883 0.0
C2172 C 0.78857 0.29356 0.37065 0.0
C2173 C 0.7888 0.28196 0.34755 0.0
C2174 C 0.82843 0.35688 0.37192 0.0
C2175 C 0.77434 0.27976 0.38611 0.0
H2176 H 0.83756 0.34724 0.45533 0.0
H2177 H 0.78505 0.37725 0.43246 0.0
H2178 H 0.8239 0.29467 0.40785 0.0
H2179 H 0.84546 0.32049 0.40469 0.0
H2180 H 0.84374 0.31239 0.43321 0.0
H2181 H 0.75875 0.35691 0.39791 0.0
H2182 H 0.77732 0.35721 0.3764 0.0
H2183 H 0.76058 0.3286 0.38087 0.0
H2184 H 0.82284 0.32886 0.3288 0.0
H2185 H 0.77888 0.2632 0.34113 0.0
H2186 H 0.84037 0.35826 0.38785 0.0
H2187 H 0.81787 0.36902 0.37684 0.0
H2188 H 0.83792 0.36375 0.35817 0.0
H2189 H 0.78468 0.27937 0.40261 0.0
H2190 H 0.76553 0.26066 0.37715 0.0
H2191 H 0.76184 0.28928 0.39125 0.0
C2192 C 0.45337 0.10435 0.24991 0.0
C2193 C 0.46867 0.09335 0.25967 0.0
C2194 C 0.45312 0.10833 0.22664 0.0
C2195 C 0.46869 0.10136 0.21312 0.0
C2196 C 0.48481 0.09136 0.2234 0.0
C2197 C 0.48456 0.0875 0.24646 0.0
C2198 C 0.43621 0.11984 0.21662 0.0
C2199 C 0.50201 0.08388 0.20984 0.0
C2200 C 0.46539 0.07643 0.14976 0.0
C2201 C 0.48388 0.09349 0.14512 0.0
C2202 C 0.45709 0.08077 0.171 0.0
C2203 C 0.46777 0.10249 0.18773 0.0
C2204 C 0.48331 0.12161 0.18094 0.0
C2205 C 0.49132 0.11683 0.15958 0.0
C2206 C 0.43962 0.06037 0.17712 0.0
C2207 C 0.49402 0.1456 0.19777 0.0
H2208 H 0.4412 0.10919 0.26018 0.0
H2209 H 0.49667 0.07938 0.254 0.0
H2210 H 0.4444 0.13938 0.21694 0.0
H2211 H 0.42926 0.11096 0.19802 0.0
H2212 H 0.42233 0.1189 0.22707 0.0
H2213 H 0.51361 0.0769 0.22071 0.0
H2214 H 0.49368 0.06931 0.19425 0.0
H2215 H 0.51193 0.09968 0.20338 0.0
H2216 H 0.45924 0.05852 0.13839 0.0
H2217 H 0.5051 0.13038 0.15552 0.0
H2218 H 0.4284 0.06771 0.18785 0.0
H2219 H 0.44788 0.04984 0.18767 0.0
H2220 H 0.42954 0.0476 0.16102 0.0
H2221 H 0.48131 0.15238 0.20641 0.0
H2222 H 0.50313 0.15973 0.1887 0.0
H2223 H 0.50601 0.14292 0.21179 0.0
C2224 C 0.79806 0.71315 0.91969 0.0
C2225 C 0.7916 0.72815 0.93757 0.0
C2226 C 0.80199 0.72044 0.89803 0.0
C2227 C 0.79983 0.74349 0.89423 0.0
C2228 C 0.79381 0.75887 0.91246 0.0
C2229 C 0.78963 0.75098 0.93366 0.0
C2230 C 0.80807 0.7033 0.87904 0.0
C2231 C 0.7917 0.78376 0.90957 0.0
C2232 C 0.82916 0.7753 0.84864 0.0
C2233 C 0.81152 0.77251 0.83059 0.0
C2234 C 0.82571 0.7654 0.86903 0.0
C2235 C 0.8041 0.75192 0.87147 0.0
C2236 C 0.78636 0.74822 0.85284 0.0
C2237 C 0.79023 0.75873 0.83278 0.0
C2238 C 0.84512 0.77019 0.88841 0.0
C2239 C 0.76313 0.73369 0.85436 0.0
H2240 H 0.79945 0.69541 0.92235 0.0
H2241 H 0.78476 0.76284 0.9473 0.0
H2242 H 0.79562 0.6989 0.86285 0.0
H2243 H 0.82438 0.71226 0.87434 0.0
H2244 H 0.80893 0.68597 0.88455 0.0
H2245 H 0.7874 0.79379 0.92558 0.0
H2246 H 0.80754 0.79496 0.90563 0.0
H2247 H 0.77866 0.78181 0.89446 0.0
H2248 H 0.8457 0.78587 0.84715 0.0
H2249 H 0.7765 0.75644 0.81897 0.0
H2250 H 0.84664 0.75274 0.89308 0.0
H2251 H 0.84227 0.78152 0.90448 0.0
H2252 H 0.86107 0.77983 0.88334 0.0
H2253 H 0.7633 0.71583 0.85902 0.0
H2254 H 0.75167 0.73034 0.83755 0.0
H2255 H 0.75649 0.74371 0.86853 0.0
C2256 C 0.85774 0.10082 0.06363 0.0
C2257 C 0.83706 0.08577 0.06608 0.0
C2258 C 0.87594 0.09133 0.061 0.0
C2259 C 0.87348 0.06627 0.06114 0.0
C2260 C 0.85324 0.05153 0.06567 0.0
C2261 C 0.83522 0.06141 0.06794 0.0
C2262 C 0.89723 0.1077 0.05625 0.0
C2263 C 0.85013 0.02489 0.06654 0.0
C2264 C 0.90655 0.03555 0.02147 0.0
C2265 C 0.92466 0.03527 0.03747 0.0
C2266 C 0.88972 0.04532 0.02908 0.0
C2267 C 0.89087 0.05484 0.05336 0.0
C2268 C 0.90883 0.05404 0.06973 0.0
C2269 C 0.92564 0.04445 0.06155 0.0
C2270 C 0.87097 0.046 0.01098 0.0
C2271 C 0.91056 0.06372 0.09578 0.0
H2272 H 0.8594 0.1197 0.06228 0.0
H2273 H 0.81938 0.04972 0.07012 0.0
H2274 H 0.91174 0.10586 0.06759 0.0
H2275 H 0.89933 0.10207 0.03764 0.0
H2276 H 0.89735 0.12724 0.0593 0.0
H2277 H 0.83476 0.01694 0.07363 0.0
H2278 H 0.84907 0.01439 0.0485 0.0
H2279 H 0.86456 0.02252 0.07761 0.0
H2280 H 0.90589 0.0288 1.00281 0.0
H2281 H 0.93958 0.04412 0.074 0.0
H2282 H 0.87081 0.06522 0.01122 0.0
H2283 H 0.85478 0.03618 0.01536 0.0
H2284 H 0.8724 0.03759 0.99283 0.0
H2285 H 0.91482 0.08397 0.09914 0.0
H2286 H 0.92351 0.05834 0.10644 0.0
H2287 H 0.89441 0.057 0.10193 0.0
C2288 C 0.39881 0.45356 0.04487 0.0
C2289 C 0.3982 0.43002 0.04873 0.0
C2290 C 0.41911 0.47078 0.0442 0.0
C2291 C 0.43938 0.46445 0.0476 0.0
C2292 C 0.43891 0.44101 0.05225 0.0
C2293 C 0.41844 0.42416 0.05271 0.0
C2294 C 0.41882 0.49554 0.03914 0.0
C2295 C 0.46004 0.43343 0.05614 0.0
C2296 C 0.48911 0.497 0.02124 0.0
C2297 C 0.50234 0.51378 0.04091 0.0
C2298 C 0.46858 0.48107 0.02315 0.0
C2299 C 0.46097 0.48184 0.0453 0.0
C2300 C 0.47431 0.49876 0.06524 0.0
C2301 C 0.49477 0.51455 0.06279 0.0
C2302 C 0.45503 0.46336 1.00142 0.0
C2303 C 0.46702 0.50007 0.08922 0.0
H2304 H 0.38336 0.45832 0.04168 0.0
H2305 H 0.41831 0.40612 0.05583 0.0
H2306 H 0.43013 0.51022 0.05309 0.0
H2307 H 0.42497 0.4977 0.02219 0.0
H2308 H 0.40191 0.49814 0.03803 0.0
H2309 H 0.45703 0.41505 0.06077 0.0
H2310 H 0.46791 0.43317 0.03993 0.0
H2311 H 0.47212 0.44688 0.07047 0.0
H2312 H 0.4947 0.49648 1.00422 0.0
H2313 H 0.50492 0.52745 0.07807 0.0
H2314 H 0.43831 0.46621 0.99825 0.0
H2315 H 0.45265 0.44431 1.0041 0.0
H2316 H 0.46303 0.46537 0.98543 0.0
H2317 H 0.45061 0.50387 0.08841 0.0
H2318 H 0.47907 0.51444 0.10289 0.0
H2319 H 0.46502 0.48219 0.09471 0.0
C2320 C 0.40291 0.64136 0.75223 0.0
C2321 C 0.4001 0.62719 0.7701 0.0
C2322 C 0.39302 0.66139 0.75103 0.0
C2323 C 0.37952 0.66831 0.76794 0.0
C2324 C 0.37666 0.654 0.78583 0.0
C2325 C 0.38668 0.63433 0.78666 0.0
C2326 C 0.39715 0.67535 0.73144 0.0
C2327 C 0.36276 0.65946 0.80449 0.0
C2328 C 0.36766 0.73359 0.78009 0.0
C2329 C 0.34585 0.72982 0.76811 0.0
C2330 C 0.3787 0.71446 0.77976 0.0
C2331 C 0.36827 0.68992 0.76718 0.0
C2332 C 0.34631 0.68606 0.75496 0.0
C2333 C 0.3357 0.70553 0.75551 0.0
C2334 C 0.40183 0.72066 0.79321 0.0
C2335 C 0.33369 0.66095 0.74125 0.0
H2336 H 0.41297 0.63694 0.73909 0.0
H2337 H 0.38381 0.6243 0.80078 0.0
H2338 H 0.3811 0.67405 0.72073 0.0
H2339 H 0.40514 0.695 0.73899 0.0
H2340 H 0.4079 0.66843 0.71969 0.0
H2341 H 0.3618 0.64701 0.81729 0.0
H2342 H 0.36981 0.67857 0.81429 0.0
H2343 H 0.34565 0.65775 0.79608 0.0
H2344 H 0.37634 0.75177 0.78993 0.0
H2345 H 0.31907 0.7015 0.74594 0.0
H2346 H 0.41323 0.7155 0.78131 0.0
H2347 H 0.40184 0.70997 0.80745 0.0
H2348 H 0.40842 0.74043 0.80122 0.0
H2349 H 0.3435 0.65457 0.72805 0.0
H2350 H 0.31724 0.66055 0.73198 0.0
H2351 H 0.33114 0.6478 0.75336 0.0
C2352 C 0.23096 0.60643 0.54147 0.0
C2353 C 0.23911 0.63195 0.54715 0.0
C2354 C 0.20799 0.59513 0.53654 0.0
C2355 C 0.19313 0.60983 0.53757 0.0
C2356 C 0.20137 0.63547 0.54518 0.0
C2357 C 0.2243 0.64622 0.5498 0.0
C2358 C 0.19972 0.56772 0.52859 0.0
C2359 C 0.18603 0.65174 0.5468 0.0
C2360 C 0.13882 0.59121 0.49602 0.0
C2361 C 0.12345 0.58458 0.5112 0.0
C2362 C 0.16166 0.5984 0.50421 0.0
C2363 C 0.16924 0.59906 0.52817 0.0
C2364 C 0.15385 0.59164 0.54341 0.0
C2365 C 0.13107 0.58446 0.53472 0.0
C2366 C 0.17764 0.60607 0.48738 0.0
C2367 C 0.1614 0.59212 0.56904 0.0
H2368 H 0.24246 0.59541 0.53941 0.0
H2369 H 0.23065 0.66597 0.5545 0.0
H2370 H 0.18556 0.55999 0.53751 0.0
H2371 H 0.19363 0.56318 0.50935 0.0
H2372 H 0.21298 0.55871 0.53213 0.0
H2373 H 0.19497 0.67092 0.5554 0.0
H2374 H 0.17813 0.6517 0.52881 0.0
H2375 H 0.17254 0.64475 0.55684 0.0
H2376 H 0.13303 0.59099 0.47774 0.0
H2377 H 0.11925 0.5792 0.54651 0.0
H2378 H 0.19041 0.59598 0.48772 0.0
H2379 H 0.18641 0.62584 0.49299 0.0
H2380 H 0.16911 0.60278 0.46895 0.0
H2381 H 0.17459 0.5827 0.57074 0.0
H2382 H 0.14753 0.58333 0.57786 0.0
H2383 H 0.16863 0.61134 0.5785 0.0
C2384 C 0.72529 0.9783 0.7417 0.0
C2385 C 0.7288 1.0031 0.75134 0.0
C2386 C 0.74177 0.96657 0.74603 0.0
C2387 C 0.76233 0.9801 0.76002 0.0
C2388 C 0.76627 1.00534 0.76909 0.0
C2389 C 0.74937 0.01652 0.76477 0.0
C2390 C 0.73692 0.93954 0.73626 0.0
C2391 C 0.78811 0.02037 0.78381 0.0
C2392 C 0.79326 0.94283 0.79074 0.0
C2393 C 0.8078 0.93864 0.77493 0.0
C2394 C 0.77878 0.95692 0.78644 0.0
C2395 C 0.7792 0.96744 0.76607 0.0
C2396 C 0.79472 0.96441 0.75073 0.0
C2397 C 0.80875 0.94983 0.75525 0.0
C2398 C 0.76221 0.9594 0.80301 0.0
C2399 C 0.79587 0.9757 0.72905 0.0
H2400 H 0.70941 0.96783 0.73136 0.0
H2401 H 0.75222 0.03576 0.7721 0.0
H2402 H 0.74974 0.93611 0.72552 0.0
H2403 H 0.73754 0.92953 0.75097 0.0
H2404 H 0.72034 0.93185 0.72514 0.0
H2405 H 0.7891 0.04012 0.78811 0.0
H2406 H 0.79036 0.01377 0.80055 0.0
H2407 H 0.80211 0.01818 0.77438 0.0
H2408 H 0.79238 0.93398 0.80585 0.0
H2409 H 0.82013 0.94671 0.74312 0.0
H2410 H 0.74514 0.94991 0.79366 0.0
H2411 H 0.76303 0.97892 0.80885 0.0
H2412 H 0.76505 0.95145 0.81885 0.0
H2413 H 0.78047 0.96682 0.7162 0.0
H2414 H 0.81032 0.97368 0.72031 0.0
H2415 H 0.79696 0.99543 0.73371 0.0
C2416 C 0.74599 0.90729 0.53758 0.0
C2417 C 0.76882 0.91931 0.54044 0.0
C2418 C 0.72992 0.92032 0.53817 0.0
C2419 C 0.73664 0.94618 0.54173 0.0
C2420 C 0.75965 0.95849 0.54462 0.0
C2421 C 0.77543 0.94496 0.54393 0.0
C2422 C 0.70566 0.90633 0.53498 0.0
C2423 C 0.76761 0.98601 0.54847 0.0
C2424 C 0.69333 0.97787 0.52217 0.0
C2425 C 0.68614 0.98552 0.54347 0.0
C2426 C 0.70981 0.96534 0.52139 0.0
C2427 C 0.71953 0.9602 0.54241 0.0
C2428 C 0.71234 0.96782 0.56397 0.0
C2429 C 0.69581 0.9803 0.56423 0.0
C2430 C 0.71686 0.9576 0.498 0.0
C2431 C 0.72205 0.96266 0.5868 0.0
H2432 H 0.74055 0.88751 0.53486 0.0
H2433 H 0.79295 0.9545 0.54617 0.0
H2434 H 0.69828 0.91219 0.55064 0.0
H2435 H 0.69646 0.91039 0.5195 0.0
H2436 H 0.7031 0.88625 0.53238 0.0
H2437 H 0.78599 0.9929 0.55038 0.0
H2438 H 0.76017 0.99244 0.53344 0.0
H2439 H 0.76209 0.9942 0.56457 0.0
H2440 H 0.68635 0.98207 0.50604 0.0
H2441 H 0.69028 0.98576 0.58077 0.0
H2442 H 0.7137 0.93744 0.49397 0.0
H2443 H 0.73497 0.96575 0.49888 0.0
H2444 H 0.70793 0.96315 0.48327 0.0
H2445 H 0.71868 0.94263 0.58562 0.0
H2446 H 0.71512 0.97026 0.60216 0.0
H2447 H 0.74035 0.97057 0.59 0.0
C2448 C 0.38181 0.47916 0.76414 0.0
C2449 C 0.40062 0.48147 0.75255 0.0
C2450 C 0.36783 0.4557 0.76581 0.0
C2451 C 0.37234 0.43352 0.75561 0.0
C2452 C 0.39094 0.43589 0.74342 0.0
C2453 C 0.40459 0.45934 0.74216 0.0
C2454 C 0.34842 0.45466 0.77906 0.0
C2455 C 0.39676 0.41346 0.73183 0.0
C2456 C 0.35025 0.37111 0.77567 0.0
C2457 C 0.33205 0.35819 0.75804 0.0
C2458 C 0.36298 0.39551 0.77548 0.0
C2459 C 0.35779 0.40789 0.75719 0.0
C2460 C 0.33939 0.39485 0.73942 0.0
C2461 C 0.32695 0.3706 0.7401 0.0
C2462 C 0.38222 0.40806 0.79493 0.0
C2463 C 0.33293 0.40643 0.71931 0.0
H2464 H 0.37842 0.49567 0.77267 0.0
H2465 H 0.41888 0.4603 0.73311 0.0
H2466 H 0.33284 0.44333 0.76755 0.0
H2467 H 0.35063 0.4458 0.79437 0.0
H2468 H 0.34654 0.47311 0.78554 0.0
H2469 H 0.41139 0.41809 0.72258 0.0
H2470 H 0.4004 0.40284 0.74528 0.0
H2471 H 0.38244 0.40141 0.71889 0.0
H2472 H 0.35458 0.36215 0.78975 0.0
H2473 H 0.31308 0.36122 0.72626 0.0
H2474 H 0.38032 0.42588 0.80352 0.0
H2475 H 0.39794 0.41193 0.78741 0.0
H2476 H 0.38362 0.39685 0.80855 0.0
H2477 H 0.32985 0.42414 0.72626 0.0
H2478 H 0.31782 0.39456 0.70731 0.0
H2479 H 0.34677 0.41035 0.70891 0.0
C2480 C 0.25963 0.62297 0.19728 0.0
C2481 C 0.23797 0.62146 0.18721 0.0
C2482 C 0.27579 0.64565 0.204 0.0
C2483 C 0.26992 0.66711 0.20084 0.0
C2484 C 0.24904 0.66527 0.18796 0.0
C2485 C 0.2334 0.64236 0.18097 0.0
C2486 C 0.29832 0.64682 0.2166 0.0
C2487 C 0.24214 0.68771 0.18406 0.0
C2488 C 0.28978 0.72349 0.24919 0.0
C2489 C 0.30338 0.7399 0.23799 0.0
C2490 C 0.27953 0.69932 0.23757 0.0
C2491 C 0.28354 0.6913 0.21446 0.0
C2492 C 0.29859 0.70734 0.2038 0.0
C2493 C 0.30807 0.73164 0.21556 0.0
C2494 C 0.26338 0.68283 0.24949 0.0
C2495 C 0.30393 0.69924 0.1796 0.0
H2496 H 0.26347 0.60681 0.20171 0.0
H2497 H 0.21685 0.6413 0.17272 0.0
H2498 H 0.31158 0.66097 0.21151 0.0
H2499 H 0.29869 0.65184 0.23591 0.0
H2500 H 0.30207 0.62893 0.21277 0.0
H2501 H 0.22646 0.68304 0.17145 0.0
H2502 H 0.23962 0.69761 0.20113 0.0
H2503 H 0.25531 0.7004 0.17728 0.0
H2504 H 0.28616 0.7299 0.26653 0.0
H2505 H 0.31889 0.7443 0.20703 0.0
H2506 H 0.26804 0.66565 0.2501 0.0
H2507 H 0.24645 0.6778 0.23919 0.0
H2508 H 0.26276 0.69164 0.26778 0.0
H2509 H 0.30543 0.6803 0.17723 0.0
H2510 H 0.31959 0.71156 0.17641 0.0
H2511 H 0.2903 0.69948 0.16601 0.0
C2512 C 0.5327 0.69282 0.43962 0.0
C2513 C 0.51944 0.70577 0.4511 0.0
C2514 C 0.53814 0.67304 0.44807 0.0
C2515 C 0.53052 0.66607 0.4688 0.0
C2516 C 0.51738 0.67928 0.48058 0.0
C2517 C 0.51191 0.69867 0.47156 0.0
C2518 C 0.55189 0.65939 0.43464 0.0
C2519 C 0.50908 0.67297 0.50285 0.0
C2520 C 0.52632 0.60148 0.48074 0.0
C2521 C 0.54585 0.60505 0.49663 0.0
C2522 C 0.52136 0.62094 0.47134 0.0
C2523 C 0.53605 0.64492 0.47811 0.0
C2524 C 0.55569 0.6487 0.4943 0.0
C2525 C 0.56041 0.62883 0.50316 0.0
C2526 C 0.50035 0.61576 0.45403 0.0
C2527 C 0.5717 0.67388 0.50245 0.0
H2528 H 0.53861 0.69795 0.42381 0.0
H2529 H 0.50179 0.70847 0.48079 0.0
H2530 H 0.56736 0.66037 0.44624 0.0
H2531 H 0.54255 0.63978 0.42902 0.0
H2532 H 0.55643 0.6668 0.41879 0.0
H2533 H 0.4996 0.68538 0.51036 0.0
H2534 H 0.49818 0.65393 0.4992 0.0
H2535 H 0.52329 0.67399 0.51632 0.0
H2536 H 0.51492 0.5833 0.47534 0.0
H2537 H 0.57553 0.63201 0.51539 0.0
H2538 H 0.50442 0.62166 0.43739 0.0
H2539 H 0.48937 0.62639 0.4613 0.0
H2540 H 0.49102 0.59606 0.44987 0.0
H2541 H 0.57784 0.68108 0.48709 0.0
H2542 H 0.58619 0.67393 0.51511 0.0
H2543 H 0.56304 0.68661 0.51103 0.0
C2544 C 0.69081 0.33864 0.66685 0.0
C2545 C 0.66844 0.32989 0.66964 0.0
C2546 C 0.70824 0.33654 0.68293 0.0
C2547 C 0.70335 0.32504 0.70227 0.0
C2548 C 0.68083 0.31672 0.70556 0.0
C2549 C 0.6637 0.31939 0.68935 0.0
C2550 C 0.73191 0.34612 0.67885 0.0
C2551 C 0.67477 0.30417 0.72577 0.0
C2552 C 0.74661 0.29653 0.72835 0.0
C2553 C 0.75691 0.31381 0.74895 0.0
C2554 C 0.72909 0.29983 0.71321 0.0
C2555 C 0.72175 0.3211 0.71854 0.0
C2556 C 0.73233 0.33875 0.7392 0.0
C2557 C 0.74963 0.33482 0.75418 0.0
C2558 C 0.71829 0.28042 0.69153 0.0
C2559 C 0.72542 0.36187 0.74546 0.0
H2560 H 0.69476 0.34685 0.65176 0.0
H2561 H 0.64653 0.31235 0.69162 0.0
H2562 H 0.74205 0.35874 0.69496 0.0
H2563 H 0.73935 0.33072 0.67508 0.0
H2564 H 0.73307 0.35594 0.66389 0.0
H2565 H 0.65665 0.29954 0.72647 0.0
H2566 H 0.67996 0.28708 0.72398 0.0
H2567 H 0.68375 0.31603 0.74276 0.0
H2568 H 0.75203 0.28017 0.72424 0.0
H2569 H 0.75753 0.3483 0.77003 0.0
H2570 H 0.72022 0.28836 0.67547 0.0
H2571 H 0.70022 0.27355 0.6919 0.0
H2572 H 0.72554 0.26472 0.6901 0.0
H2573 H 0.7273 0.37222 0.73094 0.0
H2574 H 0.73538 0.3739 0.76199 0.0
H2575 H 0.70763 0.35726 0.7476 0.0
C2576 C 0.04281 0.35365 0.94222 0.0
C2577 C 0.03129 0.33869 0.9563 0.0
C2578 C 0.0483 0.37938 0.94851 0.0
C2579 C 0.04226 0.39051 0.96948 0.0
C2580 C 0.03158 0.37551 0.98429 0.0
C2581 C 0.02619 0.3499 0.97752 0.0
C2582 C 0.05974 0.39462 0.93222 0.0
C2583 C 0.02505 0.3865 0.00693 0.0
C2584 C 0.06842 0.45833 0.99615 0.0
C2585 C 0.05162 0.46879 0.989 0.0
C2586 C 0.06583 0.43305 0.98959 0.0
C2587 C 0.04599 0.4177 0.9754 0.0
C2588 C 0.02917 0.42821 0.96771 0.0
C2589 C 0.03215 0.45353 0.97465 0.0
C2590 C 0.08414 0.42271 0.99836 0.0
C2591 C 1.00779 0.41262 0.95249 0.0
H2592 H 0.04676 0.34529 0.92575 0.0
H2593 H 0.01738 0.33862 0.98864 0.0
H2594 H 0.04839 0.4042 0.92459 0.0
H2595 H 0.07469 0.40884 0.94217 0.0
H2596 H 0.06481 0.38339 0.91755 0.0
H2597 H 0.01824 0.37249 0.0173 0.0
H2598 H 0.03961 0.40036 0.01805 0.0
H2599 H 0.01229 0.39597 1.00285 0.0
H2600 H 0.08352 0.46981 0.00734 0.0
H2601 H 0.01907 0.46133 0.96894 0.0
H2602 H 0.08915 0.41196 0.98334 0.0
H2603 H 0.07802 0.41006 0.01022 0.0
H2604 H 0.09903 0.43721 0.00814 0.0
H2605 H 0.01143 0.40205 0.93641 0.0
H2606 H 0.99678 0.42366 0.94707 0.0
H2607 H 0.99867 0.39922 0.96225 0.0
C2608 C 0.04358 0.80827 0.176 0.0
C2609 C 0.04928 0.82923 0.16605 0.0
C2610 C 0.0248 0.80324 0.18761 0.0
C2611 C 0.01139 0.8196 0.1895 0.0
C2612 C 0.01729 0.84095 0.1798 0.0
C2613 C 0.03602 0.84544 0.1682 0.0
C2614 C 0.01914 0.78026 0.19764 0.0
C2615 C 1.00368 0.85903 0.18151 0.0
C2616 C 0.95121 0.79735 0.20022 0.0
C2617 C 0.95294 0.80608 0.22455 0.0
C2618 C 0.97006 0.80139 0.18867 0.0
C2619 C 0.99125 0.81456 0.20164 0.0
C2620 C 0.99308 0.82351 0.22615 0.0
C2621 C 0.974 0.81921 0.23724 0.0
C2622 C 0.96728 0.7915 0.16254 0.0
C2623 C 0.01523 0.83782 0.24068 0.0
H2624 H 0.05359 0.79554 0.17438 0.0
H2625 H 0.04021 0.86173 0.16068 0.0
H2626 H 0.01876 0.78498 0.21683 0.0
H2627 H 1.00233 0.76862 0.18928 0.0
H2628 H 0.03124 0.76946 0.19487 0.0
H2629 H 0.01061 0.87493 0.17336 0.0
H2630 H 0.98639 0.84989 0.17263 0.0
H2631 H 1.00287 0.86587 0.20027 0.0
H2632 H 0.93515 0.78695 0.19024 0.0
H2633 H 0.97558 0.82642 0.25593 0.0
H2634 H 0.97787 0.77904 0.1591 0.0
H2635 H 0.97285 0.80673 0.15313 0.0
H2636 H 0.94979 0.78139 0.15499 0.0
H2637 H 0.02727 0.82681 0.2392 0.0
H2638 H 0.01398 0.84314 0.25962 0.0
H2639 H 0.02209 0.85463 0.23386 0.0
C2640 C 0.50923 0.30424 0.11697 0.0
C2641 C 0.48968 0.29966 0.12711 0.0
C2642 C 0.51455 0.32311 0.10425 0.0
C2643 C 0.49996 0.3378 0.10152 0.0
C2644 C 0.48034 0.33351 0.11194 0.0
C2645 C 0.47544 0.31451 0.12464 0.0
C2646 C 0.53567 0.32712 0.09345 0.0
C2647 C 0.46438 0.3488 0.10942 0.0
C2648 C 0.52368 0.3988 0.08377 0.0
C2649 C 0.51676 0.39299 0.05929 0.0
C2650 C 0.51798 0.38117 0.09783 0.0
C2651 C 0.50502 0.35716 0.08716 0.0
C2652 C 0.49762 0.35133 0.06253 0.0
C2653 C 0.50359 0.36929 0.04891 0.0
C2654 C 0.52625 0.38809 0.12401 0.0
C2655 C 0.48368 0.32599 0.05049 0.0
H2656 H 0.5204 0.29296 0.11882 0.0
H2657 H 0.46032 0.31115 0.13242 0.0
H2658 H 0.53159 0.32428 0.07399 0.0
H2659 H 0.54612 0.34624 0.09977 0.0
H2660 H 0.54555 0.31458 0.09777 0.0
H2661 H 0.45017 0.3436 0.11914 0.0
H2662 H 0.47317 0.36843 0.11607 0.0
H2663 H 0.4578 0.3467 0.09052 0.0
H2664 H 0.53403 0.41701 0.09188 0.0
H2665 H 0.49788 0.36479 0.03006 0.0
H2666 H 0.53753 0.37714 0.12882 0.0
H2667 H 0.51211 0.38387 0.13397 0.0
H2668 H 0.53533 0.4078 0.12972 0.0
H2669 H 0.49316 0.31255 0.05271 0.0
H2670 H 0.4786 0.32465 0.03133 0.0
H2671 H 0.46852 0.32068 0.05876 0.0
C2672 C 0.03779 0.32318 0.38891 0.0
C2673 C 0.05748 0.32321 0.37968 0.0
C2674 C 0.01779 0.31953 0.37407 0.0
C2675 C 0.01736 0.31548 0.34933 0.0
C2676 C 0.03675 0.31362 0.33981 0.0
C2677 C 0.05669 0.31769 0.35513 0.0
C2678 C 0.99746 0.3217 0.38497 0.0
C2679 C 0.03677 0.30871 0.31353 0.0
C2680 C 0.9586 0.29747 0.31665 0.0
C2681 C 0.95603 0.32046 0.31432 0.0
C2682 C 0.97914 0.29512 0.32628 0.0
C2683 C 0.99732 0.31631 0.334 0.0
C2684 C 0.99522 0.33922 0.33001 0.0
C2685 C 0.97465 0.34097 0.32005 0.0
C2686 C 0.9809 0.27028 0.3297 0.0
C2687 C 0.01422 0.36228 0.33795 0.0
H2688 H 0.03816 0.32718 0.40784 0.0
H2689 H 0.07178 0.31742 0.34784 0.0
H2690 H 0.99295 0.33819 0.38112 0.0
H2691 H 0.98311 0.30563 0.37721 0.0
H2692 H 1.00017 0.32317 0.4044 0.0
H2693 H 0.05172 0.30327 0.30897 0.0
H2694 H 0.02171 0.29409 0.30443 0.0
H2695 H 0.03655 0.32548 0.30662 0.0
H2696 H 0.94429 0.28151 0.31224 0.0
H2697 H 0.97287 0.35866 0.31768 0.0
H2698 H 0.98035 0.26897 0.34847 0.0
H2699 H 0.9969 0.26752 0.32534 0.0
H2700 H 0.96705 0.25531 0.31869 0.0
H2701 H 0.01772 0.36672 0.35751 0.0
H2702 H 0.0105 0.37818 0.33162 0.0
H2703 H 0.02953 0.35961 0.33151 0.0
C2704 C 1.005 0.67776 0.60573 0.0
C2705 C 0.01114 0.67557 0.62898 0.0
C2706 C 0.01099 0.66384 0.58676 0.0
C2707 C 0.02372 0.64768 0.59123 0.0
C2708 C 0.02938 0.64481 0.61457 0.0
C2709 C 0.02284 0.65865 0.6332 0.0
C2710 C 1.0042 0.66689 0.56198 0.0
C2711 C 0.04321 0.62799 0.61996 0.0
C2712 C 0.02635 0.59909 0.54027 0.0
C2713 C 0.04597 0.61057 0.53249 0.0
C2714 C 0.01891 0.61093 0.55946 0.0
C2715 C 0.03177 0.63447 0.57149 0.0
C2716 C 0.05204 0.64574 0.56422 0.0
C2717 C 0.0588 0.63371 0.54458 0.0
C2718 C 0.99708 0.59853 0.56653 0.0
C2719 C 0.06637 0.67067 0.57695 0.0
H2720 H 0.9958 0.69067 0.60238 0.0
H2721 H 0.02774 0.65696 0.65115 0.0
H2722 H 0.01919 0.67482 0.55433 0.0
H2723 H 0.99554 0.64882 0.5506 0.0
H2724 H 0.99308 0.67898 0.56141 0.0
H2725 H 0.0449 0.62659 0.63885 0.0
H2726 H 0.03577 0.60944 0.60902 0.0
H2727 H 0.06006 0.63489 0.61542 0.0
H2728 H 0.01643 0.58113 0.53093 0.0
H2729 H 0.07406 0.64244 0.53862 0.0
H2730 H 0.98606 0.61075 0.56717 0.0
H2731 H 1.00002 0.59464 0.58448 0.0
H2732 H 0.98825 0.58111 0.55413 0.0
H2733 H 0.05724 0.68452 0.5753 0.0
H2734 H 0.08222 0.67626 0.56989 0.0
H2735 H 0.07023 0.67076 0.59604 0.0
C2736 C 0.67593 0.86803 0.82719 0.0
C2737 C 0.67984 0.86728 0.85124 0.0
C2738 C 0.691 0.86324 0.81216 0.0
C2739 C 0.71027 0.85757 0.82146 0.0
C2740 C 0.71526 0.85908 0.84606 0.0
C2741 C 0.69995 0.86387 0.86064 0.0
C2742 C 0.68561 0.86266 0.78613 0.0
C2743 C 0.73602 0.8539 0.85676 0.0
C2744 C 0.73261 0.80961 0.78835 0.0
C2745 C 0.7531 0.82372 0.78445 0.0
C2746 C 0.71776 0.82065 0.7989 0.0
C2747 C 0.72347 0.84645 0.80556 0.0
C2748 C 0.74322 0.86089 0.79974 0.0
C2749 C 0.75792 0.84933 0.78938 0.0
C2750 C 0.69671 0.80455 0.8045 0.0
C2751 C 0.74977 0.88846 0.80577 0.0
H2752 H 0.66056 0.87102 0.81985 0.0
H2753 H 0.70332 0.8638 0.8793 0.0
H2754 H 0.70051 0.87244 0.77936 0.0
H2755 H 0.68046 0.84342 0.7764 0.0
H2756 H 0.67196 0.87103 0.78224 0.0
H2757 H 0.73848 0.85809 0.87635 0.0
H2758 H 0.73494 0.8343 0.85086 0.0
H2759 H 0.75083 0.86483 0.8507 0.0
H2760 H 0.72859 0.78983 0.78432 0.0
H2761 H 0.77359 0.86045 0.7861 0.0
H2762 H 0.68217 0.81075 0.79855 0.0
H2763 H 0.6979 0.80587 0.82388 0.0
H2764 H 0.69364 0.78505 0.79608 0.0
H2765 H 0.73521 0.89577 0.80706 0.0
H2766 H 0.75907 0.89629 0.79232 0.0
H2767 H 0.7609 0.89478 0.823 0.0
C2768 C 0.49666 0.54224 0.68488 0.0
C2769 C 0.48173 0.55591 0.69185 0.0
C2770 C 0.50589 0.54242 0.66335 0.0
C2771 C 0.5007 0.55672 0.64691 0.0
C2772 C 0.48555 0.57058 0.65352 0.0
C2773 C 0.47638 0.57002 0.67541 0.0
C2774 C 0.52163 0.52714 0.65829 0.0
C2775 C 0.47901 0.58629 0.63733 0.0
C2776 C 0.545 0.57505 0.60487 0.0
C2777 C 0.53697 0.55829 0.58306 0.0
C2778 C 0.5333 0.57518 0.62479 0.0
C2779 C 0.51229 0.55804 0.62408 0.0
C2780 C 0.50372 0.54123 0.60193 0.0
C2781 C 0.51592 0.54146 0.5821 0.0
C2782 C 0.54393 0.59369 0.6471 0.0
C2783 C 0.48163 0.5224 0.59926 0.0
H2784 H 0.50141 0.53097 0.69654 0.0
H2785 H 0.46501 0.58075 0.6796 0.0
H2786 H 0.51555 0.51452 0.64096 0.0
H2787 H 0.53821 0.53915 0.65724 0.0
H2788 H 0.52358 0.51618 0.672 0.0
H2789 H 0.46656 0.59522 0.64388 0.0
H2790 H 0.49393 0.60065 0.63549 0.0
H2791 H 0.47204 0.57504 0.61948 0.0
H2792 H 0.56105 0.58831 0.60665 0.0
H2793 H 0.50908 0.52802 0.56601 0.0
H2794 H 0.54784 0.58414 0.6614 0.0
H2795 H 0.53221 0.60403 0.65293 0.0
H2796 H 0.55949 0.60688 0.64483 0.0
H2797 H 0.48314 0.50879 0.61034 0.0
H2798 H 0.47567 0.51266 0.58068 0.0
H2799 H 0.46899 0.53116 0.60553 0.0
C2800 C 0.81032 0.15179 0.97261 0.0
C2801 C 0.79141 0.15133 0.98346 0.0
C2802 C 0.81434 0.1644 0.95406 0.0
C2803 C 0.79911 0.17683 0.94641 0.0
C2804 C 0.77953 0.17548 0.95664 0.0
C2805 C 0.7759 0.16267 0.97497 0.0
C2806 C 0.83524 0.16522 0.94331 0.0
C2807 C 0.76285 0.18847 0.94894 0.0
C2808 C 0.81597 0.23424 0.92171 0.0
C2809 C 0.80601 0.22586 0.89809 0.0
C2810 C 0.81515 0.21809 0.93735 0.0
C2811 C 0.8042 0.19295 0.9291 0.0
C2812 C 0.79553 0.1841 0.9049 0.0
C2813 C 0.79649 0.20072 0.88964 0.0
C2814 C 0.82469 0.22823 0.96303 0.0
C2815 C 0.78395 0.15737 0.89543 0.0
H2816 H 0.82229 0.14289 0.97903 0.0
H2817 H 0.76109 0.16208 0.98305 0.0
H2818 H 0.83136 0.16095 0.92378 0.0
H2819 H 0.84677 0.18394 0.94846 0.0
H2820 H 0.84391 0.15221 0.94916 0.0
H2821 H 0.74794 0.18453 0.95787 0.0
H2822 H 0.7707 0.20852 0.95297 0.0
H2823 H 0.75741 0.18298 0.92961 0.0
H2824 H 0.82379 0.25361 0.92815 0.0
H2825 H 0.78875 0.19417 0.87138 0.0
H2826 H 0.83533 0.21734 0.96957 0.0
H2827 H 0.81096 0.22698 0.97368 0.0
H2828 H 0.83468 0.24765 0.96608 0.0
H2829 H 0.79357 0.14573 0.90241 0.0
H2830 H 0.78145 0.15289 0.87585 0.0
H2831 H 0.76744 0.15264 0.9013 0.0
C2832 C 0.14582 0.50737 0.13807 0.0
C2833 C 0.14055 0.51494 0.16032 0.0
C2834 C 0.12919 0.49977 0.11821 0.0
C2835 C 0.10718 0.49992 0.12108 0.0
C2836 C 0.10134 0.5027 0.14399 0.0
C2837 C 0.11825 0.51055 0.16347 0.0
C2838 C 0.13592 0.49579 0.09409 0.0
C2839 C 0.07786 0.5017 0.14785 0.0
C2840 C 0.08247 0.53739 0.08427 0.0
C2841 C 0.06563 0.51958 0.06862 0.0
C2842 C 0.09629 0.53098 0.10097 0.0
C2843 C 0.09315 0.50597 0.1021 0.0
C2844 C 0.07621 0.48776 0.08611 0.0
C2845 C 0.0624 0.49485 0.06962 0.0
C2846 C 0.11419 0.55118 0.11749 0.0
C2847 C 0.07238 0.46094 0.08648 0.0
H2848 H 0.1631 0.51049 0.1357 0.0
H2849 H 0.11421 0.51596 0.18086 0.0
H2850 H 0.12225 0.48262 0.0811 0.0
H2851 H 0.14 0.51348 0.08805 0.0
H2852 H 0.15089 0.48899 0.09449 0.0
H2853 H 0.07516 0.49888 0.1659 0.0
H2854 H 0.07454 0.51924 0.14559 0.0
H2855 H 0.06575 0.4868 0.13478 0.0
H2856 H 0.08488 0.55651 0.08338 0.0
H2857 H 0.04944 0.48106 0.05725 0.0
H2858 H 0.13074 0.54831 0.11583 0.0
H2859 H 0.11149 0.55102 0.13602 0.0
H2860 H 0.11453 0.56958 0.11388 0.0
H2861 H 0.08807 0.4566 0.09198 0.0
H2862 H 0.06454 0.44946 0.0689 0.0
H2863 H 0.06095 0.45585 0.09926 0.0
C2864 C 0.81707 0.86274 0.45458 0.0
C2865 C 0.82124 0.84683 0.46926 0.0
C2866 C 0.8155 0.85634 0.42981 0.0
C2867 C 0.81781 0.83331 0.41931 0.0
C2868 C 0.82108 0.81681 0.43402 0.0
C2869 C 0.82293 0.82381 0.45868 0.0
C2870 C 0.81215 0.8746 0.41491 0.0
C2871 C 0.82318 0.79189 0.42376 0.0
C2872 C 0.79665 0.80712 0.35367 0.0
C2873 C 0.81636 0.81122 0.34368 0.0
C2874 C 0.79684 0.81444 0.37804 0.0
C2875 C 0.81722 0.82649 0.39307 0.0
C2876 C 0.83716 0.83106 0.38309 0.0
C2877 C 0.83652 0.82326 0.35863 0.0
C2878 C 0.77519 0.80879 0.38776 0.0
C2879 C 0.85927 0.84407 0.39831 0.0
H2880 H 0.81599 0.88066 0.4625 0.0
H2881 H 0.82611 0.81131 0.46977 0.0
H2882 H 0.82679 0.88 0.40586 0.0
H2883 H 0.79747 0.86622 0.40102 0.0
H2884 H 0.80981 0.89132 0.42554 0.0
H2885 H 0.82446 0.78067 0.43739 0.0
H2886 H 0.80861 0.78186 0.41014 0.0
H2887 H 0.83817 0.79391 0.41497 0.0
H2888 H 0.78095 0.79776 0.34247 0.0
H2889 H 0.85185 0.82669 0.35122 0.0
H2890 H 0.77274 0.82579 0.39761 0.0
H2891 H 0.77567 0.79636 0.40039 0.0
H2892 H 0.76066 0.80003 0.37369 0.0
H2893 H 0.85864 0.86189 0.40834 0.0
H2894 H 0.87311 0.84737 0.3878 0.0
H2895 H 0.86292 0.83304 0.41137 0.0
C2896 C 0.50605 0.55841 0.83695 0.0
C2897 C 0.48478 0.56174 0.83096 0.0
C2898 C 0.51479 0.55684 0.86022 0.0
C2899 C 0.50221 0.55814 0.87913 0.0
C2900 C 0.48084 0.56202 0.87347 0.0
C2901 C 0.47254 0.56384 0.8499 0.0
C2902 C 0.5376 0.55313 0.86437 0.0
C2903 C 0.46627 0.56344 0.89229 0.0
C2904 C 0.51718 0.52744 0.93224 0.0
C2905 C 0.53009 0.54711 0.95023 0.0
C2906 C 0.50781 0.5308 0.90983 0.0
C2907 C 0.51119 0.55454 0.90415 0.0
C2908 C 0.52422 0.5745 0.92224 0.0
C2909 C 0.53321 0.57064 0.94465 0.0
C2910 C 0.49419 0.50859 0.892 0.0
C2911 C 0.52898 0.60022 0.91782 0.0
H2912 H 0.51602 0.5565 0.82304 0.0
H2913 H 0.45598 0.56585 0.84615 0.0
H2914 H 0.54811 0.5672 0.87936 0.0
H2915 H 0.53627 0.53503 0.86916 0.0
H2916 H 0.54609 0.55405 0.84859 0.0
H2917 H 0.45077 0.56779 0.88597 0.0
H2918 H 0.46177 0.5457 0.89819 0.0
H2919 H 0.47544 0.57757 0.9079 0.0
H2920 H 0.51422 0.50907 0.93568 0.0
H2921 H 0.54299 0.5863 0.95782 0.0
H2922 H 0.5024 0.50669 0.87611 0.0
H2923 H 0.47759 0.5108 0.8863 0.0
H2924 H 0.49194 0.4915 0.89908 0.0
H2925 H 0.5381 0.60176 0.90256 0.0
H2926 H 0.53899 0.61395 0.93336 0.0
H2927 H 0.51315 0.60467 0.91322 0.0
C2928 C 0.81072 0.19995 0.10489 0.0
C2929 C 0.79155 0.19915 0.08982 0.0
C2930 C 0.81738 0.21657 0.12659 0.0
C2931 C 0.80431 0.23236 0.13351 0.0
C2932 C 0.78546 0.23226 0.11798 0.0
C2933 C 0.77943 0.21584 0.0963 0.0
C2934 C 0.83784 0.21649 0.14254 0.0
C2935 C 0.77081 0.24842 0.12486 0.0
C2936 C 0.80191 0.24887 0.19865 0.0
C2937 C 0.81437 0.27347 0.20439 0.0
C2938 C 0.7986 0.23539 0.17568 0.0
C2939 C 0.80849 0.24661 0.15804 0.0
C2940 C 0.82139 0.2714 0.16374 0.0
C2941 C 0.824 0.28469 0.1869 0.0
C2942 C 0.78434 0.20916 0.17032 0.0
C2943 C 0.83251 0.28377 0.14544 0.0
H2944 H 0.82033 0.18735 0.09993 0.0
H2945 H 0.76459 0.21544 0.08484 0.0
H2946 H 0.84843 0.23546 0.14947 0.0
H2947 H 0.83286 0.20842 0.1579 0.0
H2948 H 0.84785 0.20576 0.13332 0.0
H2949 H 0.75791 0.24772 0.11 0.0
H2950 H 0.76238 0.2425 0.13961 0.0
H2951 H 0.7809 0.26768 0.13115 0.0
H2952 H 0.79473 0.23999 0.2122 0.0
H2953 H 0.83389 0.30363 0.1914 0.0
H2954 H 0.79419 0.1968 0.16377 0.0
H2955 H 0.77024 0.20677 0.1562 0.0
H2956 H 0.77755 0.20336 0.18602 0.0
H2957 H 0.84345 0.27332 0.13773 0.0
H2958 H 0.8426 0.30287 0.15288 0.0
H2959 H 0.81982 0.284 0.13081 0.0
C2960 C 0.17971 0.56985 0.28761 0.0
C2961 C 0.18329 0.58823 0.27424 0.0
C2962 C 0.17247 0.57385 0.30954 0.0
C2963 C 0.16902 0.59678 0.31814 0.0
C2964 C 0.17506 0.61616 0.3059 0.0
C2965 C 0.182 0.61159 0.28397 0.0
C2966 C 0.16636 0.5528 0.32223 0.0
C2967 C 0.17203 0.64101 0.31472 0.0
C2968 C 0.11796 0.59529 0.34702 0.0
C2969 C 0.127 0.60333 0.37089 0.0
C2970 C 0.13157 0.59297 0.32982 0.0
C2971 C 0.15485 0.59891 0.33668 0.0
C2972 C 0.16418 0.6072 0.36076 0.0
C2973 C 0.15007 0.60917 0.37769 0.0
C2974 C 0.12093 0.58405 0.30428 0.0
C2975 C 0.18896 0.61388 0.36858 0.0
H2976 H 0.18096 0.55185 0.28023 0.0
H2977 H 0.18531 0.62603 0.27388 0.0
H2978 H 0.17177 0.55903 0.34152 0.0
H2979 H 0.14802 0.5451 0.31923 0.0
H2980 H 0.17383 0.53797 0.31582 0.0
H2981 H 0.18133 0.65512 0.30575 0.0
H2982 H 0.15413 0.64002 0.31129 0.0
H2983 H 0.17757 0.6469 0.33401 0.0
H2984 H 0.1001 0.59028 0.34181 0.0
H2985 H 0.15703 0.6154 0.3962 0.0
H2986 H 0.12531 0.56726 0.29678 0.0
H2987 H 0.12731 0.5981 0.29383 0.0
H2988 H 0.10254 0.5799 0.30204 0.0
H2989 H 0.19503 0.59755 0.36407 0.0
H2990 H 0.19362 0.62112 0.38787 0.0
H2991 H 0.19768 0.62783 0.35913 0.0
C2992 C 0.81339 0.86611 0.61817 0.0
C2993 C 0.81993 0.85047 0.60091 0.0
C2994 C 0.80897 0.85957 0.64 0.0
C2995 C 0.81076 0.83666 0.64466 0.0
C2996 C 0.81681 0.82063 0.62704 0.0
C2997 C 0.82144 0.82776 0.60563 0.0
C2998 C 0.80283 0.87737 0.65831 0.0
C2999 C 0.81857 0.79588 0.63085 0.0
C3000 C 0.81957 0.82348 0.70707 0.0
C3001 C 0.79818 0.80999 0.70929 0.0
C3002 C 0.82372 0.83324 0.68666 0.0
C3003 C 0.80616 0.82911 0.66773 0.0
C3004 C 0.78444 0.81601 0.6702 0.0
C3005 C 0.78071 0.80682 0.69092 0.0
C3006 C 0.84708 0.84738 0.68509 0.0
C3007 C 0.7652 0.81085 0.65055 0.0
H3008 H 0.81235 0.88377 0.61489 0.0
H3009 H 0.82638 0.81542 0.5925 0.0
H3010 H 0.78647 0.86876 0.66311 0.0
H3011 H 0.81521 0.8823 0.67461 0.0
H3012 H 0.80206 0.89439 0.65207 0.0
H3013 H 0.82289 0.78525 0.61522 0.0
H3014 H 0.83146 0.79813 0.64621 0.0
H3015 H 0.80259 0.78511 0.63491 0.0
H3016 H 0.83317 0.8261 0.72115 0.0
H3017 H 0.7641 0.79648 0.69243 0.0
H3018 H 0.84711 0.86501 0.67978 0.0
H3019 H 0.85376 0.83683 0.67136 0.0
H3020 H 0.85838 0.85116 0.70208 0.0
H3021 H 0.76396 0.82808 0.64516 0.0
H3022 H 0.74912 0.80172 0.6557 0.0
H3023 H 0.76805 0.79889 0.6349 0.0
C3024 C 0.76103 0.47055 0.4996 0.0
C3025 C 0.78281 0.48507 0.50058 0.0
C3026 C 0.74357 0.48123 0.5024 0.0
C3027 C 0.748 0.50699 0.50595 0.0
C3028 C 0.76984 0.52167 0.5063 0.0
C3029 C 0.78701 0.51054 0.50378 0.0
C3030 C 0.72052 0.46502 0.50218 0.0
C3031 C 0.77516 0.54917 0.50974 0.0
C3032 C 0.69973 0.53412 0.49582 0.0
C3033 C 0.69622 0.54135 0.51898 0.0
C3034 C 0.71659 0.52297 0.49126 0.0
C3035 C 0.73001 0.51871 0.51033 0.0
C3036 C 0.72644 0.52588 0.53374 0.0
C3037 C 0.70966 0.53725 0.53778 0.0
C3038 C 0.72011 0.51585 0.46609 0.0
C3039 C 0.74024 0.52139 0.55452 0.0
H3040 H 0.75769 0.45086 0.49718 0.0
H3041 H 0.80378 0.52186 0.50435 0.0
H3042 H 0.71508 0.46942 0.51951 0.0
H3043 H 0.70853 0.46843 0.48866 0.0
H3044 H 0.7197 0.44529 0.49848 0.0
H3045 H 0.79274 0.55783 0.50826 0.0
H3046 H 0.76423 0.55436 0.49645 0.0
H3047 H 0.77192 0.55674 0.52739 0.0
H3048 H 0.68941 0.53742 0.48127 0.0
H3049 H 0.70672 0.54248 0.55568 0.0
H3050 H 0.71826 0.49594 0.46169 0.0
H3051 H 0.73726 0.5254 0.46396 0.0
H3052 H 0.70821 0.5204 0.45328 0.0
H3053 H 0.7388 0.50157 0.55256 0.0
H3054 H 0.73509 0.52773 0.57158 0.0
H3055 H 0.75802 0.53098 0.55511 0.0
C3056 C 0.19597 0.14643 0.48493 0.0
C3057 C 0.21676 0.14195 0.48949 0.0
C3058 C 0.17607 0.12886 0.48566 0.0
C3059 C 0.17671 0.10605 0.49126 0.0
C3060 C 0.19756 0.10104 0.49522 0.0
C3061 C 0.21732 0.11899 0.4942 0.0
C3062 C 0.1544 0.13518 0.48133 0.0
C3063 C 0.19903 0.07699 0.50125 0.0
C3064 C 0.12738 0.07354 0.51819 0.0
C3065 C 0.11435 0.05618 0.4988 0.0
C3066 C 0.14784 0.08947 0.51608 0.0
C3067 C 0.15561 0.08809 0.49401 0.0
C3068 C 0.14258 0.07042 0.47439 0.0
C3069 C 0.12215 0.05467 0.47703 0.0
C3070 C 0.16102 0.10802 0.53747 0.0
C3071 C 0.15001 0.06848 0.45048 0.0
H3072 H 0.1952 0.164 0.48116 0.0
H3073 H 0.23322 0.11531 0.49783 0.0
H3074 H 0.14189 0.12008 0.46884 0.0
H3075 H 0.14773 0.13777 0.49819 0.0
H3076 H 0.15638 0.1522 0.47417 0.0
H3077 H 0.21625 0.07531 0.50254 0.0
H3078 H 0.1931 0.07519 0.51836 0.0
H3079 H 0.18808 0.06158 0.48773 0.0
H3080 H 0.12163 0.07462 0.53515 0.0
H3081 H 0.11217 0.04131 0.46196 0.0
H3082 H 0.16243 0.12677 0.53429 0.0
H3083 H 0.17812 0.10621 0.5407 0.0
H3084 H 0.15326 0.10598 0.5536 0.0
H3085 H 0.15102 0.08577 0.44406 0.0
H3086 H 0.13852 0.05314 0.43724 0.0
H3087 H 0.16687 0.06582 0.4518 0.0
C3088 C 0.23119 0.94677 0.76597 0.0
C3089 C 0.21617 0.94686 0.78258 0.0
C3090 C 0.24373 0.92882 0.76271 0.0
C3091 C 0.24192 0.90976 0.77624 0.0
C3092 C 0.22688 0.90994 0.79295 0.0
C3093 C 0.21461 0.92784 0.79576 0.0
C3094 C 0.25901 0.93022 0.74443 0.0
C3095 C 0.22359 0.8909 0.80821 0.0
C3096 C 0.25846 0.84784 0.75672 0.0
C3097 C 0.27958 0.85129 0.77019 0.0
C3098 C 0.24666 0.86638 0.75796 0.0
C3099 C 0.25541 0.88987 0.77332 0.0
C3100 C 0.27673 0.89344 0.78693 0.0
C3101 C 0.28827 0.87469 0.78517 0.0
C3102 C 0.22438 0.86052 0.74276 0.0
C3103 C 0.28744 0.91731 0.80388 0.0
H3104 H 0.23314 0.96067 0.75526 0.0
H3105 H 0.20347 0.92675 0.80876 0.0
H3106 H 0.27626 0.93273 0.75294 0.0
H3107 H 0.25409 0.91276 0.73135 0.0
H3108 H 0.2588 0.94546 0.73502 0.0
H3109 H 0.21189 0.89335 0.82081 0.0
H3110 H 0.21705 0.87239 0.79694 0.0
H3111 H 0.23976 0.89165 0.81834 0.0
H3112 H 0.25088 0.83034 0.745 0.0
H3113 H 0.30428 0.87843 0.79599 0.0
H3114 H 0.22085 0.84324 0.72958 0.0
H3115 H 0.22356 0.8756 0.73334 0.0
H3116 H 0.21116 0.85873 0.75408 0.0
H3117 H 0.28897 0.93274 0.79442 0.0
H3118 H 0.30418 0.91812 0.81273 0.0
H3119 H 0.27679 0.91992 0.81757 0.0
C3120 C 0.36097 0.95059 0.00838 0.0
C3121 C 0.35582 0.92651 0.0122 0.0
C3122 C 0.38313 0.96464 0.01062 0.0
C3123 C 0.40048 0.95425 0.01659 0.0
C3124 C 0.39539 0.93009 0.02077 0.0
C3125 C 0.37313 0.91656 0.01863 0.0
C3126 C 0.38797 0.99044 1.00625 0.0
C3127 C 0.41347 0.91832 0.02697 0.0
C3128 C 0.45659 0.97823 0.99808 0.0
C3129 C 0.4694 0.99189 0.01948 0.0
C3130 C 0.43404 0.96625 0.99684 0.0
C3131 C 0.424 0.96814 0.01746 0.0
C3132 C 0.43668 0.98235 0.03902 0.0
C3133 C 0.4593 0.99395 0.03981 0.0
C3134 C 0.42107 0.95111 0.97355 0.0
C3135 C 0.42644 0.98499 0.0613 0.0
H3136 H 0.34768 0.95846 1.00355 0.0
H3137 H 0.36931 0.89796 0.02159 0.0
H3138 H 0.39917 1.00336 0.02158 0.0
H3139 H 0.3967 0.99186 0.99071 0.0
H3140 H 0.37263 0.99627 1.00305 0.0
H3141 H 0.40672 0.89959 0.03027 0.0
H3142 H 0.42342 0.91726 0.01237 0.0
H3143 H 0.42494 0.92962 0.04292 0.0
H3144 H 0.46428 0.9765 0.98229 0.0
H3145 H 0.46905 1.00466 0.05637 0.0
H3146 H 0.40627 0.95735 0.96873 0.0
H3147 H 0.41502 0.93169 0.97514 0.0
H3148 H 0.43119 0.95215 0.95901 0.0
H3149 H 0.41147 0.99149 0.05825 0.0
H3150 H 0.43821 0.99796 0.07624 0.0
H3151 H 0.421 0.96693 0.06642 0.0
C3152 C 0.87464 0.57448 0.76511 0.0
C3153 C 0.89499 0.58575 0.7799 0.0
C3154 C 0.85884 0.58731 0.76161 0.0
C3155 C 0.8636 0.61205 0.77303 0.0
C3156 C 0.88412 0.62357 0.78794 0.0
C3157 C 0.89954 0.61024 0.79129 0.0
C3158 C 0.83715 0.57446 0.74554 0.0
C3159 C 0.88985 0.65004 0.80019 0.0
C3160 C 0.83227 0.65247 0.74764 0.0
C3161 C 0.81647 0.65321 0.76283 0.0
C3162 C 0.84758 0.63897 0.75061 0.0
C3163 C 0.84711 0.62594 0.76927 0.0
C3164 C 0.83102 0.62633 0.78448 0.0
C3165 C 0.81589 0.63999 0.78109 0.0
C3166 C 0.8646 0.63918 0.73412 0.0
C3167 C 0.82995 0.61255 0.8045 0.0
H3168 H 0.87098 0.55555 0.75627 0.0
H3169 H 0.91529 0.61911 0.80264 0.0
H3170 H 0.82301 0.57505 0.75529 0.0
H3171 H 0.8354 0.58402 0.73066 0.0
H3172 H 0.83588 0.55505 0.73824 0.0
H3173 H 0.90638 0.65618 0.81149 0.0
H3174 H 0.88985 0.66184 0.7869 0.0
H3175 H 0.87711 0.65282 0.81132 0.0
H3176 H 0.83303 0.66299 0.73376 0.0
H3177 H 0.80359 0.64035 0.79275 0.0
H3178 H 0.8654 0.62034 0.72748 0.0
H3179 H 0.88127 0.6498 0.74382 0.0
H3180 H 0.86091 0.64749 0.71877 0.0
H3181 H 0.82767 0.59285 0.79757 0.0
H3182 H 0.81619 0.6144 0.81449 0.0
H3183 H 0.84584 0.61941 0.81688 0.0
C3184 C 0.8401 0.63444 0.9941 0.0
C3185 C 0.84622 0.66003 0.99676 0.0
C3186 C 0.85625 0.62142 0.99418 0.0
C3187 C 0.87914 0.6342 0.99701 0.0
C3188 C 0.88536 0.65998 0.99953 0.0
C3189 C 0.86892 0.6725 0.99937 0.0
C3190 C 0.84884 0.59396 0.99143 0.0
C3191 C 0.90948 0.67444 1.0026 0.0
C3192 C 0.92294 0.60509 0.0204 0.0
C3193 C 0.93078 0.59661 0.99979 0.0
C3194 C 0.90608 0.61705 0.0197 0.0
C3195 C 0.89667 0.6208 0.99785 0.0
C3196 C 0.90454 0.6124 0.97699 0.0
C3197 C 0.92144 0.60047 0.9782 0.0
C3198 C 0.89841 0.62582 0.04243 0.0
C3199 C 0.89506 0.61598 0.95332 0.0
H3200 H 0.82267 0.62457 0.99205 0.0
H3201 H 0.87396 0.69223 1.00142 0.0
H3202 H 0.8551 0.58532 0.9761 0.0
H3203 H 0.85597 0.58851 0.00728 0.0
H3204 H 0.83047 0.58663 0.9889 0.0
H3205 H 0.9116 0.69435 1.00396 0.0
H3206 H 0.91866 0.6716 0.01877 0.0
H3207 H 0.91723 0.66789 0.98749 0.0
H3208 H 0.93017 0.6026 0.03725 0.0
H3209 H 0.92706 0.59376 0.9621 0.0
H3210 H 0.88026 0.61769 0.04121 0.0
H3211 H 0.90149 0.64597 0.04549 0.0
H3212 H 0.90701 0.62105 0.0579 0.0
H3213 H 0.87687 0.6072 0.94969 0.0
H3214 H 0.90276 0.60821 0.9387 0.0
H3215 H 0.89764 0.63576 0.95348 0.0
C3216 C 0.23725 0.1001 0.77411 0.0
C3217 C 0.2184 0.09749 0.78566 0.0
C3218 C 0.25073 0.12367 0.77207 0.0
C3219 C 0.24566 0.14566 0.78185 0.0
C3220 C 0.22702 0.14299 0.79399 0.0
C3221 C 0.21388 0.11944 0.79562 0.0
C3222 C 0.27023 0.12503 0.75891 0.0
C3223 C 0.22064 0.16521 0.80515 0.0
C3224 C 0.28989 0.20933 0.79684 0.0
C3225 C 0.28452 0.2213 0.77863 0.0
C3226 C 0.27792 0.18499 0.79775 0.0
C3227 C 0.25973 0.1714 0.77998 0.0
C3228 C 0.25425 0.18333 0.76142 0.0
C3229 C 0.26652 0.20784 0.76098 0.0
C3230 C 0.28467 0.1739 0.81814 0.0
C3231 C 0.23519 0.17016 0.74195 0.0
H3232 H 0.24105 0.08372 0.76592 0.0
H3233 H 0.19955 0.11824 0.80464 0.0
H3234 H 0.26779 0.13358 0.74343 0.0
H3235 H 0.28567 0.13679 0.77039 0.0
H3236 H 0.27252 0.10672 0.75271 0.0
H3237 H 0.20599 0.16037 0.81434 0.0
H3238 H 0.23476 0.17769 0.81807 0.0
H3239 H 0.21676 0.17546 0.79145 0.0
H3240 H 0.30363 0.21913 0.8107 0.0
H3241 H 0.262 0.21645 0.7467 0.0
H3242 H 0.28817 0.15635 0.81147 0.0
H3243 H 0.27082 0.16979 0.8285 0.0
H3244 H 0.29961 0.18619 0.8301 0.0
H3245 H 0.23751 0.15247 0.73363 0.0
H3246 H 0.23353 0.18109 0.72814 0.0
H3247 H 0.21943 0.16599 0.74939 0.0
C3248 C 0.42434 0.98722 0.32329 0.0
C3249 C 0.4184 1.00918 0.32702 0.0
C3250 C 0.40836 0.96464 0.32026 0.0
C3251 C 0.38585 0.96395 0.32118 0.0
C3252 C 0.37992 0.98604 0.32648 0.0
C3253 C 0.39628 1.00846 0.32923 0.0
C3254 C 0.4154 0.94149 0.31463 0.0
C3255 C 0.35617 0.98601 0.32805 0.0
C3256 C 0.34833 0.90707 0.28121 0.0
C3257 C 0.34442 0.89086 0.29684 0.0
C3258 C 0.36036 0.93158 0.28924 0.0
C3259 C 0.36856 0.94014 0.31357 0.0
C3260 C 0.36288 0.92448 0.32973 0.0
C3261 C 0.35087 0.89988 0.32114 0.0
C3262 C 0.36592 0.94766 0.27138 0.0
C3263 C 0.37091 0.93313 0.35585 0.0
H3264 H 0.44141 0.98757 0.32181 0.0
H3265 H 0.39158 0.02536 0.33236 0.0
H3266 H 0.40925 0.92895 0.32656 0.0
H3267 H 0.40801 0.93186 0.29631 0.0
H3268 H 0.43374 0.94518 0.31627 0.0
H3269 H 0.35495 1.00423 0.33646 0.0
H3270 H 0.34645 0.98095 0.31005 0.0
H3271 H 0.34838 0.97225 0.3382 0.0
H3272 H 0.34299 0.90034 0.26242 0.0
H3273 H 0.34773 0.88748 0.33334 0.0
H3274 H 0.38389 0.95139 0.27008 0.0
H3275 H 0.36257 0.9655 0.277 0.0
H3276 H 0.35632 0.93903 0.25356 0.0
H3277 H 0.38871 0.93383 0.35961 0.0
H3278 H 0.36147 0.92069 0.36628 0.0
H3279 H 0.36948 0.95184 0.36184 0.0
C3280 C 0.6078 0.38636 0.56705 0.0
C3281 C 0.60076 0.38002 0.58796 0.0
C3282 C 0.60258 0.40576 0.55793 0.0
C3283 C 0.59018 0.41969 0.57004 0.0
C3284 C 0.58298 0.41343 0.59116 0.0
C3285 C 0.58818 0.39363 0.59975 0.0
C3286 C 0.61039 0.41136 0.53523 0.0
C3287 C 0.56996 0.42786 0.60487 0.0
C3288 C 0.59551 0.48399 0.55714 0.0
C3289 C 0.5758 0.48059 0.54163 0.0
C3290 C 0.60018 0.46455 0.56676 0.0
C3291 C 0.58498 0.44084 0.5606 0.0
C3292 C 0.56516 0.43723 0.5448 0.0
C3293 C 0.56076 0.45707 0.53568 0.0
C3294 C 0.62143 0.46946 0.58364 0.0
C3295 C 0.5486 0.4123 0.53735 0.0
H3296 H 0.6174 0.37601 0.5576 0.0
H3297 H 0.58267 0.38906 0.61591 0.0
H3298 H 0.59599 0.41048 0.52206 0.0
H3299 H 0.62163 0.43021 0.5384 0.0
H3300 H 0.61936 0.39846 0.52756 0.0
H3301 H 0.56559 0.42083 0.62095 0.0
H3302 H 0.57979 0.44733 0.61017 0.0
H3303 H 0.55443 0.42725 0.59359 0.0
H3304 H 0.60724 0.50201 0.56209 0.0
H3305 H 0.54548 0.45406 0.52376 0.0
H3306 H 0.63188 0.45819 0.57628 0.0
H3307 H 0.61759 0.46414 0.60058 0.0
H3308 H 0.63121 0.489 0.58728 0.0
H3309 H 0.55669 0.39904 0.52865 0.0
H3310 H 0.53396 0.41242 0.52499 0.0
H3311 H 0.54273 0.40564 0.55306 0.0
C3312 C 0.43228 0.75481 0.37116 0.0
C3313 C 0.45515 0.76438 0.3711 0.0
C3314 C 0.41625 0.76005 0.35552 0.0
C3315 C 0.42312 0.77589 0.33975 0.0
C3316 C 0.4462 0.78533 0.33938 0.0
C3317 C 0.46186 0.77923 0.35478 0.0
C3318 C 0.39192 0.74891 0.35614 0.0
C3319 C 0.4544 0.80262 0.32328 0.0
C3320 C 0.3832 0.77656 0.28557 0.0
C3321 C 0.37517 0.79652 0.29342 0.0
C3322 C 0.39833 0.76934 0.30054 0.0
C3323 C 0.40623 0.78279 0.32388 0.0
C3324 C 0.39811 0.80299 0.33191 0.0
C3325 C 0.38248 0.80938 0.31672 0.0
C3326 C 0.40587 0.74728 0.29133 0.0
C3327 C 0.4063 0.81818 0.35643 0.0
H3328 H 0.42686 0.74335 0.38368 0.0
H3329 H 0.47945 0.78706 0.35477 0.0
H3330 H 0.38407 0.76352 0.36205 0.0
H3331 H 0.38326 0.73939 0.33818 0.0
H3332 H 0.38924 0.73567 0.36818 0.0
H3333 H 0.47282 0.80834 0.32498 0.0
H3334 H 0.44744 0.79388 0.30466 0.0
H3335 H 0.44858 0.81919 0.32742 0.0
H3336 H 0.37749 0.7664 0.26764 0.0
H3337 H 0.37641 0.82487 0.3229 0.0
H3338 H 0.40263 0.73393 0.30319 0.0
H3339 H 0.42404 0.75283 0.29112 0.0
H3340 H 0.39736 0.73804 0.27322 0.0
H3341 H 0.40248 0.80656 0.36973 0.0
H3342 H 0.39869 0.8335 0.35992 0.0
H3343 H 0.42462 0.82582 0.3589 0.0
C3344 C 0.0978 0.73869 0.06058 0.0
C3345 C 0.09247 0.7497 0.08177 0.0
C3346 C 0.09183 0.71312 0.05323 0.0
C3347 C 0.08028 0.69792 0.06738 0.0
C3348 C 0.07409 0.70887 0.08833 0.0
C3349 C 0.08019 0.73458 0.09524 0.0
C3350 C 0.09861 0.70235 0.03065 0.0
C3351 C 0.06174 0.6934 0.10393 0.0
C3352 C 0.05308 0.63071 0.03881 0.0
C3353 C 0.06931 0.61955 0.04603 0.0
C3354 C 0.05616 0.65603 0.04598 0.0
C3355 C 0.07591 0.67068 0.06086 0.0
C3356 C 0.09212 0.65941 0.06862 0.0
C3357 C 0.08867 0.6341 0.06108 0.0
C3358 C 0.0385 0.66721 0.03713 0.0
C3359 C 0.11339 0.67421 0.08453 0.0
H3360 H 0.10717 0.75009 0.04992 0.0
H3361 H 0.07601 0.74279 0.11165 0.0
H3362 H 0.11083 0.69221 0.03474 0.0
H3363 H 0.08401 0.68909 0.01902 0.0
H3364 H 0.10617 0.71657 0.02083 0.0
H3365 H 0.0567 0.70456 0.11868 0.0
H3366 H 0.04667 0.67979 0.09345 0.0
H3367 H 0.07244 0.68307 0.11145 0.0
H3368 H 0.0381 0.61976 0.02708 0.0
H3369 H 0.10131 0.62576 0.06686 0.0
H3370 H 0.04528 0.68003 0.02565 0.0
H3371 H 0.03348 0.67796 0.05214 0.0
H3372 H 0.02351 0.65319 0.0269 0.0
H3373 H 0.12317 0.68773 0.07533 0.0
H3374 H 0.12385 0.66261 0.08994 0.0
H3375 H 0.1096 0.68461 0.10062 0.0
C3376 C 0.08717 0.30414 0.86523 0.0
C3377 C 0.07326 0.28269 0.86991 0.0
C3378 C 0.10601 0.30377 0.85429 0.0
C3379 C 0.11124 0.2814 0.84775 0.0
C3380 C 0.0972 0.25963 0.85222 0.0
C3381 C 0.07842 0.26052 0.86323 0.0
C3382 C 0.12043 0.32744 0.84986 0.0
C3383 C 0.10208 0.23537 0.8455 0.0
C3384 C 0.14891 0.27843 0.80059 0.0
C3385 C 0.16981 0.28221 0.81407 0.0
C3386 C 0.12975 0.27768 0.81125 0.0
C3387 C 0.13134 0.28091 0.83611 0.0
C3388 C 0.15231 0.28454 0.84985 0.0
C3389 C 0.17122 0.28514 0.83871 0.0
C3390 C 0.10782 0.27384 0.79588 0.0
C3391 C 0.15482 0.28805 0.87639 0.0
H3392 H 0.08346 0.3214 0.87029 0.0
H3393 H 0.06788 0.24383 0.86678 0.0
H3394 H 0.1376 0.33108 0.85913 0.0
H3395 H 0.12136 0.32598 0.83075 0.0
H3396 H 0.11408 0.34329 0.8559 0.0
H3397 H 0.08953 0.22008 0.85004 0.0
H3398 H 0.10253 0.23133 0.82627 0.0
H3399 H 0.1187 0.23622 0.85464 0.0
H3400 H 0.14756 0.27657 0.78161 0.0
H3401 H 0.18714 0.28776 0.84934 0.0
H3402 H 0.10163 0.29013 0.80014 0.0
H3403 H 0.09523 0.25799 0.79942 0.0
H3404 H 0.10914 0.27061 0.77679 0.0
H3405 H 0.14998 0.3046 0.88369 0.0
H3406 H 0.1721 0.29006 0.88453 0.0
H3407 H 0.14353 0.27225 0.88161 0.0
C3408 C 0.60128 0.78664 0.95156 0.0
C3409 C 0.61983 0.79371 0.94027 0.0
C3410 C 0.59746 0.7656 0.96141 0.0
C3411 C 0.61259 0.75125 0.96 0.0
C3412 C 0.63137 0.75825 0.94864 0.0
C3413 C 0.63477 0.77942 0.93887 0.0
C3414 C 0.57721 0.75874 0.97337 0.0
C3415 C 0.64788 0.74342 0.94686 0.0
C3416 C 0.61154 0.71091 1.00552 0.0
C3417 C 0.59784 0.68835 0.99274 0.0
C3418 C 0.61712 0.73133 0.99485 0.0
C3419 C 0.60877 0.72915 0.9708 0.0
C3420 C 0.59557 0.70622 0.95757 0.0
C3421 C 0.59028 0.68607 0.9687 0.0
C3422 C 0.63137 0.75542 0.00952 0.0
C3423 C 0.58634 0.70319 0.9319 0.0
H3424 H 0.58962 0.7975 0.95266 0.0
H3425 H 0.64912 0.78476 0.93014 0.0
H3426 H 0.56675 0.74011 0.96484 0.0
H3427 H 0.58238 0.75836 0.99211 0.0
H3428 H 0.56693 0.77169 0.97271 0.0
H3429 H 0.66155 0.75124 0.93732 0.0
H3430 H 0.65519 0.74248 0.96477 0.0
H3431 H 0.63935 0.7244 0.93756 0.0
H3432 H 0.61775 0.71264 0.02401 0.0
H3433 H 0.57957 0.66871 0.95878 0.0
H3434 H 0.62155 0.76887 0.01112 0.0
H3435 H 0.64571 0.76294 1.00076 0.0
H3436 H 0.63772 0.75367 0.02752 0.0
H3437 H 0.57435 0.71415 0.93022 0.0
H3438 H 0.57773 0.68381 0.92368 0.0
H3439 H 0.59986 0.71014 0.92187 0.0
C3440 C 0.07717 0.76625 0.73388 0.0
C3441 C 0.06483 0.77144 0.71487 0.0
C3442 C 0.10041 0.77323 0.73692 0.0
C3443 C 0.11139 0.78565 0.72054 0.0
C3444 C 0.09915 0.79415 0.70361 0.0
C3445 C 0.07589 0.78696 0.70097 0.0
C3446 C 0.11297 0.76453 0.75574 0.0
C3447 C 0.11037 0.80823 0.68641 0.0
C3448 C 0.17413 0.79877 0.72987 0.0
C3449 C 0.17667 0.77744 0.71637 0.0
C3450 C 0.15306 0.80253 0.73056 0.0
C3451 C 0.13416 0.78436 0.71764 0.0
C3452 C 0.13676 0.76336 0.7031 0.0
C3453 C 0.15797 0.76018 0.70267 0.0
C3454 C 0.15109 0.82531 0.74601 0.0
C3455 C 0.11701 0.74355 0.68889 0.0
H3456 H 0.06872 0.75484 0.74513 0.0
H3457 H 0.06648 0.79157 0.68654 0.0
H3458 H 0.11814 0.74854 0.74749 0.0
H3459 H 0.12822 0.77903 0.7645 0.0
H3460 H 0.10266 0.75895 0.76935 0.0
H3461 H 0.09959 0.81812 0.67821 0.0
H3462 H 0.12631 0.82159 0.6952 0.0
H3463 H 0.11414 0.79531 0.67215 0.0
H3464 H 0.18857 0.8123 0.74034 0.0
H3465 H 0.15976 0.74353 0.69245 0.0
H3466 H 0.14712 0.8211 0.76329 0.0
H3467 H 0.13757 0.83196 0.73807 0.0
H3468 H 0.16688 0.84022 0.7493 0.0
H3469 H 0.10637 0.73488 0.70096 0.0
H3470 H 0.12203 0.72909 0.67754 0.0
H3471 H 0.10677 0.75152 0.67749 0.0
C3472 C 0.12702 0.43249 0.41417 0.0
C3473 C 0.13066 0.42458 0.43546 0.0
C3474 C 0.11941 0.45328 0.41365 0.0
C3475 C 0.11547 0.46621 0.43486 0.0
C3476 C 0.12239 0.46038 0.45665 0.0
C3477 C 0.12989 0.43956 0.45667 0.0
C3478 C 0.11323 0.45962 0.39016 0.0
C3479 C 0.11923 0.47421 0.47982 0.0
C3480 C 0.09361 0.52153 0.44544 0.0
C3481 C 0.0716 0.51028 0.44785 0.0
C3482 C 0.10791 0.50745 0.43873 0.0
C3483 C 0.09988 0.48164 0.43437 0.0
C3484 C 0.07696 0.47042 0.43393 0.0
C3485 C 0.06309 0.48493 0.44067 0.0
C3486 C 0.13197 0.5203 0.43864 0.0
C3487 C 0.0675 0.44294 0.42882 0.0
H3488 H 0.12781 0.42111 0.39769 0.0
H3489 H 0.13312 0.43373 0.47319 0.0
H3490 H 0.09525 0.45096 0.38384 0.0
H3491 H 0.11637 0.47967 0.39169 0.0
H3492 H 0.12263 0.4528 0.37672 0.0
H3493 H 0.12805 0.46947 0.49517 0.0
H3494 H 0.12531 0.4942 0.48078 0.0
H3495 H 0.10125 0.46976 0.48123 0.0
H3496 H 0.10023 0.54121 0.45062 0.0
H3497 H 0.04597 0.47625 0.44211 0.0
H3498 H 0.13953 0.50949 0.42605 0.0
H3499 H 0.14141 0.52305 0.45654 0.0
H3500 H 0.1338 0.53861 0.43407 0.0
H3501 H 0.07271 0.43468 0.41255 0.0
H3502 H 0.04906 0.43727 0.42665 0.0
H3503 H 0.07395 0.43538 0.44358 0.0
C3504 C 0.42025 0.2353 0.18117 0.0
C3505 C 0.43166 0.21997 0.18999 0.0
C3506 C 0.40273 0.24096 0.19179 0.0
C3507 C 0.39694 0.23157 0.21205 0.0
C3508 C 0.40805 0.21562 0.22068 0.0
C3509 C 0.4251 0.20978 0.20937 0.0
C3510 C 0.39081 0.25753 0.18173 0.0
C3511 C 0.4027 0.20567 0.24254 0.0
C3512 C 0.37077 0.2704 0.25279 0.0
C3513 C 0.34828 0.25726 0.2473 0.0
C3514 C 0.38688 0.26169 0.24211 0.0
C3515 C 0.38022 0.23968 0.22505 0.0
C3516 C 0.35759 0.22598 0.21993 0.0
C3517 C 0.34189 0.2348 0.23137 0.0
C3518 C 0.41097 0.27642 0.2486 0.0
C3519 C 0.34981 0.20265 0.20155 0.0
H3520 H 0.42518 0.24309 0.16613 0.0
H3521 H 0.43397 0.19805 0.21641 0.0
H3522 H 0.37258 0.2491 0.17893 0.0
H3523 H 0.39439 0.27512 0.19441 0.0
H3524 H 0.39591 0.26145 0.16471 0.0
H3525 H 0.41196 0.19233 0.24612 0.0
H3526 H 0.40699 0.22097 0.25802 0.0
H3527 H 0.38466 0.19663 0.24081 0.0
H3528 H 0.37573 0.2877 0.26521 0.0
H3529 H 0.32446 0.22471 0.22692 0.0
H3530 H 0.41691 0.28371 0.2332 0.0
H3531 H 0.42138 0.26459 0.25345 0.0
H3532 H 0.41356 0.29201 0.26356 0.0
H3533 H 0.35269 0.20684 0.18398 0.0
H3534 H 0.33187 0.19341 0.20069 0.0
H3535 H 0.35947 0.18976 0.20528 0.0
C3536 C 0.64585 0.50909 0.36454 0.0
C3537 C 0.64007 0.52191 0.34706 0.0
C3538 C 0.63664 0.50952 0.38648 0.0
C3539 C 0.62102 0.52312 0.39206 0.0
C3540 C 0.61536 0.53605 0.37455 0.0
C3541 C 0.62463 0.53526 0.35302 0.0
C3542 C 0.64372 0.49526 0.40388 0.0
C3543 C 0.59911 0.55092 0.37844 0.0
C3544 C 0.57689 0.50702 0.43483 0.0
C3545 C 0.58463 0.52504 0.45587 0.0
C3546 C 0.58868 0.50575 0.41502 0.0
C3547 C 0.60947 0.52298 0.415 0.0
C3548 C 0.61775 0.54108 0.43636 0.0
C3549 C 0.60548 0.54196 0.45612 0.0
C3550 C 0.57837 0.48592 0.39357 0.0
C3551 C 0.63959 0.56013 0.43823 0.0
H3552 H 0.65764 0.49869 0.36119 0.0
H3553 H 0.61948 0.54554 0.34055 0.0
H3554 H 0.651 0.50767 0.42113 0.0
H3555 H 0.62902 0.48129 0.40683 0.0
H3556 H 0.65611 0.48598 0.39779 0.0
H3557 H 0.59676 0.56079 0.3639 0.0
H3558 H 0.58274 0.53879 0.37999 0.0
H3559 H 0.60496 0.5645 0.39523 0.0
H3560 H 0.561 0.49364 0.4336 0.0
H3561 H 0.61207 0.5564 0.47153 0.0
H3562 H 0.59043 0.47573 0.38853 0.0
H3563 H 0.57406 0.49425 0.37845 0.0
H3564 H 0.56308 0.47275 0.39649 0.0
H3565 H 0.65252 0.55132 0.43297 0.0
H3566 H 0.64531 0.57116 0.45638 0.0
H3567 H 0.63783 0.57258 0.42593 0.0
C3568 C 0.26267 0.91752 0.07048 0.0
C3569 C 0.26023 0.893 0.06038 0.0
C3570 C 0.26555 0.92497 0.0951 0.0
C3571 C 0.26645 0.90753 0.1094 0.0
C3572 C 0.25921 0.88229 0.09903 0.0
C3573 C 0.25615 0.87531 0.07447 0.0
C3574 C 0.2706 0.95177 0.10563 0.0
C3575 C 0.25822 0.86277 0.11368 0.0
C3576 C 0.3167 0.91162 0.15107 0.0
C3577 C 0.30683 0.90556 0.17056 0.0
C3578 C 0.30429 0.9162 0.13182 0.0
C3579 C 0.28152 0.91482 0.13231 0.0
C3580 C 0.27287 0.91336 0.15367 0.0
C3581 C 0.28566 0.90861 0.17265 0.0
C3582 C 0.31473 0.91872 0.10975 0.0
C3583 C 0.24939 0.91398 0.15585 0.0
H3584 H 0.26498 0.93128 0.05958 0.0
H3585 H 0.25324 0.85621 0.06653 0.0
H3586 H 0.26703 0.95469 0.12402 0.0
H3587 H 0.2884 0.9609 0.10574 0.0
H3588 H 0.2607 0.96066 0.09483 0.0
H3589 H 0.25051 0.84409 0.103 0.0
H3590 H 0.27526 0.86374 0.12176 0.0
H3591 H 0.24848 0.86566 0.12815 0.0
H3592 H 0.33319 0.90975 0.14948 0.0
H3593 H 0.27828 0.90496 0.18818 0.0
H3594 H 0.31176 0.93454 0.10276 0.0
H3595 H 0.30715 0.90205 0.09595 0.0
H3596 H 0.33295 0.92129 0.11297 0.0
H3597 H 0.24196 0.92118 0.14137 0.0
H3598 H 0.24908 0.92552 0.17299 0.0
H3599 H 0.23895 0.89527 0.15578 0.0
C3600 C 0.02641 0.59253 0.86707 0.0
C3601 C 1.00345 0.58918 0.86269 0.0
C3602 C 0.03727 0.59532 0.88998 0.0
C3603 C 0.02477 0.59486 0.90883 0.0
C3604 C 1.00243 0.5956 0.90494 0.0
C3605 C 0.99187 0.5926 0.88169 0.0
C3606 C 0.06132 0.59519 0.89342 0.0
C3607 C 0.98899 0.5966 0.92489 0.0
C3608 C 0.04004 0.55401 0.9483 0.0
C3609 C 0.05571 0.57087 0.96595 0.0
C3610 C 0.02895 0.56181 0.93026 0.0
C3611 C 0.03331 0.58719 0.93027 0.0
C3612 C 0.04799 0.60439 0.9491 0.0
C3613 C 0.05941 0.59597 0.96655 0.0
C3614 C 0.01348 0.54274 0.91051 0.0
C3615 C 0.05238 0.63157 0.9505 0.0
H3616 H 0.03545 0.59044 0.85234 0.0
H3617 H 0.97413 0.59035 0.87836 0.0
H3618 H 0.07085 0.60925 0.90888 0.0
H3619 H 0.06236 0.57711 0.89683 0.0
H3620 H 0.06931 0.59864 0.87768 0.0
H3621 H 0.97456 0.60364 0.92045 0.0
H3622 H 0.98256 0.57793 0.92841 0.0
H3623 H 0.99937 0.60834 0.94133 0.0
H3624 H 0.03711 0.53461 0.94811 0.0
H3625 H 0.07122 0.60901 0.98063 0.0
H3626 H 0.01993 0.54416 0.89359 0.0
H3627 H 0.99681 0.54586 0.90857 0.0
H3628 H 0.01159 0.52384 0.91352 0.0
H3629 H 0.06681 0.63823 0.94153 0.0
H3630 H 0.05656 0.64151 0.96915 0.0
H3631 H 0.0379 0.63621 0.94187 0.0
C3632 C 0.30183 0.21769 0.58198 0.0
C3633 C 0.2955 0.23261 0.5673 0.0
C3634 C 0.30495 0.22474 0.60682 0.0
C3635 C 0.30206 0.24748 0.61736 0.0
C3636 C 0.29676 0.2631 0.60257 0.0
C3637 C 0.29336 0.25542 0.57787 0.0
C3638 C 0.31033 0.20734 0.62177 0.0
C3639 C 0.29394 0.28768 0.61285 0.0
C3640 C 0.28452 0.25591 0.67857 0.0
C3641 C 0.30464 0.26881 0.69324 0.0
C3642 C 0.28359 0.24847 0.65407 0.0
C3643 C 0.30319 0.25435 0.64367 0.0
C3644 C 0.32357 0.2674 0.65838 0.0
C3645 C 0.32408 0.27428 0.68293 0.0
C3646 C 0.26153 0.23432 0.63927 0.0
C3647 C 0.34481 0.27445 0.64815 0.0
H3648 H 0.30335 0.19996 0.57409 0.0
H3649 H 0.28856 0.26718 0.56677 0.0
H3650 H 0.32516 0.21679 0.63522 0.0
H3651 H 0.29628 0.20096 0.63135 0.0
H3652 H 0.31347 0.19113 0.61108 0.0
H3653 H 0.29175 0.29857 0.59914 0.0
H3654 H 0.27919 0.28506 0.62205 0.0
H3655 H 0.30859 0.29833 0.62612 0.0
H3656 H 0.26941 0.25137 0.68628 0.0
H3657 H 0.33973 0.28427 0.69401 0.0
H3658 H 0.26285 0.21682 0.62921 0.0
H3659 H 0.25685 0.24491 0.62625 0.0
H3660 H 0.24801 0.23023 0.65009 0.0
H3661 H 0.3481 0.25791 0.63832 0.0
H3662 H 0.35937 0.28417 0.66193 0.0
H3663 H 0.34311 0.28646 0.63538 0.0
C3664 C 0.61314 0.51744 0.20293 0.0
C3665 C 0.63447 0.51405 0.20834 0.0
C3666 C 0.60374 0.51848 0.17976 0.0
C3667 C 0.61566 0.51652 0.16037 0.0
C3668 C 0.63705 0.51253 0.16544 0.0
C3669 C 0.64604 0.51127 0.18894 0.0
C3670 C 0.58095 0.52238 0.17623 0.0
C3671 C 0.65092 0.51041 0.14605 0.0
C3672 C 0.58286 0.50311 0.09562 0.0
C3673 C 0.58597 0.52649 0.08968 0.0
C3674 C 0.59242 0.49957 0.11792 0.0
C3675 C 0.60603 0.51971 0.13546 0.0
C3676 C 0.60939 0.54327 0.12941 0.0
C3677 C 0.59944 0.54632 0.10715 0.0
C3678 C 0.58764 0.47402 0.1228 0.0
C3679 C 0.62357 0.56563 0.14669 0.0
H3680 H 0.60368 0.51984 0.21722 0.0
H3681 H 0.66261 0.50916 0.19225 0.0
H3682 H 0.58219 0.54034 0.17113 0.0
H3683 H 0.57002 0.50813 0.16164 0.0
H3684 H 0.57298 0.52192 0.19237 0.0
H3685 H 0.66647 0.50595 0.15198 0.0
H3686 H 0.64126 0.49606 0.13083 0.0
H3687 H 0.65532 0.52792 0.13971 0.0
H3688 H 0.57265 0.48735 0.08283 0.0
H3689 H 0.6024 0.56457 0.1034 0.0
H3690 H 0.57912 0.47299 0.13853 0.0
H3691 H 0.60345 0.46936 0.12688 0.0
H3692 H 0.57706 0.46014 0.10768 0.0
H3693 H 0.61591 0.568 0.16292 0.0
H3694 H 0.6257 0.58254 0.13932 0.0
H3695 H 0.64021 0.56327 0.15192 0.0
C3696 C 0.26211 0.84499 0.91835 0.0
C3697 C 0.27164 0.83787 0.93796 0.0
C3698 C 0.2623 0.83301 0.89537 0.0
C3699 C 0.27272 0.81397 0.89209 0.0
C3700 C 0.28085 0.80556 0.91179 0.0
C3701 C 0.27991 0.81739 0.93447 0.0
C3702 C 0.25272 0.84185 0.87466 0.0
C3703 C 0.29244 0.78561 0.90909 0.0
C3704 C 0.27021 0.77513 0.83206 0.0
C3705 C 0.28955 0.78818 0.82485 0.0
C3706 C 0.26406 0.78366 0.85366 0.0
C3707 C 0.27802 0.80521 0.86857 0.0
C3708 C 0.29779 0.81813 0.86149 0.0
C3709 C 0.30306 0.80968 0.83948 0.0
C3710 C 0.24249 0.76995 0.86032 0.0
C3711 C 0.31344 0.84085 0.87717 0.0
H3712 H 0.25544 0.86059 0.9209 0.0
H3713 H 0.28716 0.81157 0.94949 0.0
H3714 H 0.26642 0.8529 0.86712 0.0
H3715 H 0.24317 0.82617 0.86055 0.0
H3716 H 0.2417 0.85337 0.87989 0.0
H3717 H 0.29569 0.77945 0.92592 0.0
H3718 H 0.28245 0.76958 0.89562 0.0
H3719 H 0.30858 0.79252 0.90298 0.0
H3720 H 0.25949 0.75874 0.82047 0.0
H3721 H 0.31776 0.81997 0.83368 0.0
H3722 H 0.23172 0.7823 0.86324 0.0
H3723 H 0.2457 0.76377 0.8771 0.0
H3724 H 0.23331 0.75376 0.84652 0.0
H3725 H 0.30487 0.85534 0.88034 0.0
H3726 H 0.32856 0.84811 0.86937 0.0
H3727 H 0.31865 0.8368 0.89456 0.0
C3728 C 0.99066 0.54083 0.72164 0.0
C3729 C 0.97973 0.55596 0.73401 0.0
C3730 C 0.99409 0.54222 0.69853 0.0
C3731 C 0.9866 0.55936 0.68745 0.0
C3732 C 0.97547 0.57471 0.69968 0.0
C3733 C 0.97205 0.57275 0.72291 0.0
C3734 C 1.00596 0.52538 0.68606 0.0
C3735 C 0.96742 0.59327 0.68836 0.0
C3736 C 0.02025 0.57092 0.63899 0.0
C3737 C 1.00698 0.55314 0.62008 0.0
C3738 C 0.01265 0.57538 0.66057 0.0
C3739 C 0.99143 0.56134 0.66334 0.0
C3740 C 0.97714 0.5451 0.64364 0.0
C3741 C 0.9851 0.54123 0.62211 0.0
C3742 C 0.02826 0.59316 0.68104 0.0
C3743 C 0.95437 0.52984 0.64589 0.0
H3744 H 0.99648 0.52763 0.72997 0.0
H3745 H 0.96355 0.58445 0.73238 0.0
H3746 H 0.99548 0.51446 0.66936 0.0
H3747 H 0.02162 0.5363 0.68149 0.0
H3748 H 0.01009 0.51258 0.697 0.0
H3749 H 0.95807 0.60295 0.6998 0.0
H3750 H 0.9818 0.60699 0.68447 0.0
H3751 H 0.95658 0.58422 0.6713 0.0
H3752 H 0.03707 0.58042 0.6373 0.0
H3753 H 0.97478 0.52753 0.60746 0.0
H3754 H 0.03519 0.58284 0.69298 0.0
H3755 H 0.01933 0.60436 0.6914 0.0
H3756 H 0.04233 0.60557 0.67511 0.0
H3757 H 0.9561 0.51436 0.65433 0.0
H3758 H 0.94378 0.52222 0.62841 0.0
H3759 H 0.94584 0.54072 0.65719 0.0
C3760 C 0.28775 0.2482 0.43047 0.0
C3761 C 0.28967 0.22544 0.43464 0.0
C3762 C 0.2909 0.25534 0.40873 0.0
C3763 C 0.29578 0.23927 0.3902 0.0
C3764 C 0.29782 0.21625 0.39426 0.0
C3765 C 0.29493 0.20969 0.41642 0.0
C3766 C 0.2889 0.2802 0.40558 0.0
C3767 C 0.30251 0.19826 0.375 0.0
C3768 C 0.28417 0.25374 0.32865 0.0
C3769 C 0.30527 0.26732 0.32564 0.0
C3770 C 0.28098 0.24346 0.34896 0.0
C3771 C 0.29924 0.24709 0.36698 0.0
C3772 C 0.32069 0.26007 0.36355 0.0
C3773 C 0.32343 0.26986 0.34298 0.0
C3774 C 0.25793 0.22922 0.35143 0.0
C3775 C 0.3407 0.26438 0.38204 0.0
H3776 H 0.28373 0.26059 0.44433 0.0
H3777 H 0.29613 0.19193 0.41923 0.0
H3778 H 0.30457 0.29098 0.40089 0.0
H3779 H 0.27544 0.27815 0.39085 0.0
H3780 H 0.28528 0.29071 0.42174 0.0
H3781 H 0.30677 0.1828 0.38169 0.0
H3782 H 0.28765 0.19078 0.36119 0.0
H3783 H 0.31634 0.20754 0.36649 0.0
H3784 H 0.27005 0.25154 0.31534 0.0
H3785 H 0.33985 0.28014 0.34081 0.0
H3786 H 0.25232 0.23877 0.36677 0.0
H3787 H 0.25809 0.21089 0.35483 0.0
H3788 H 0.2457 0.22687 0.33543 0.0
H3789 H 0.33865 0.27567 0.39856 0.0
H3790 H 0.35639 0.27382 0.37632 0.0
H3791 H 0.3422 0.24672 0.38621 0.0
C3792 C 0.34795 0.59629 0.51898 0.0
C3793 C 0.34761 0.61366 0.53872 0.0
C3794 C 0.36476 0.58451 0.51842 0.0
C3795 C 0.38147 0.58985 0.53827 0.0
C3796 C 0.38102 0.607 0.55849 0.0
C3797 C 0.36418 0.61894 0.55839 0.0
C3798 C 0.36489 0.56671 0.49633 0.0
C3799 C 0.39837 0.61279 0.58012 0.0
C3800 C 0.41337 0.54236 0.53854 0.0
C3801 C 0.43228 0.55331 0.52934 0.0
C3802 C 0.39718 0.55464 0.5428 0.0
C3803 C 0.39983 0.57812 0.53721 0.0
C3804 C 0.41917 0.58943 0.5284 0.0
C3805 C 0.43523 0.57694 0.52473 0.0
C3806 C 0.37695 0.5422 0.5526 0.0
C3807 C 0.42242 0.61422 0.52177 0.0
H3808 H 0.33527 0.59223 0.50366 0.0
H3809 H 0.36388 0.63224 0.57373 0.0
H3810 H 0.3805 0.57309 0.48908 0.0
H3811 H 0.36435 0.54851 0.50052 0.0
H3812 H 0.35062 0.56454 0.48244 0.0
H3813 H 0.39498 0.62553 0.59485 0.0
H3814 H 0.39909 0.59571 0.58619 0.0
H3815 H 0.41498 0.62118 0.57575 0.0
H3816 H 0.41122 0.52417 0.54229 0.0
H3817 H 0.44977 0.58531 0.5174 0.0
H3818 H 0.36205 0.53739 0.53892 0.0
H3819 H 0.37409 0.55476 0.56778 0.0
H3820 H 0.37855 0.52523 0.55841 0.0
H3821 H 0.40951 0.61306 0.50677 0.0
H3822 H 0.43902 0.62111 0.51658 0.0
H3823 H 0.42047 0.62772 0.5367 0.0
C3824 C 0.90104 0.95463 0.54617 0.0
C3825 C 0.90044 0.93111 0.55007 0.0
C3826 C 0.92134 0.97178 0.5454 0.0
C3827 C 0.94156 0.96536 0.54873 0.0
C3828 C 0.94111 0.94196 0.55347 0.0
C3829 C 0.92065 0.9252 0.55406 0.0
C3830 C 0.92107 0.99651 0.54026 0.0
C3831 C 0.96221 0.93431 0.55725 0.0
C3832 C 0.99099 0.99706 0.52161 0.0
C3833 C 1.0045 0.01381 0.54112 0.0
C3834 C 0.97043 0.98144 0.52382 0.0
C3835 C 0.96309 0.98254 0.5461 0.0
C3836 C 0.97668 0.99948 0.56587 0.0
C3837 C 0.99718 0.01494 0.56313 0.0
C3838 C 0.95658 0.96368 0.50226 0.0
C3839 C 0.96964 1.00111 0.58997 0.0
H3840 H 0.8856 0.9594 0.54299 0.0
H3841 H 0.92051 0.90717 0.55723 0.0
H3842 H 0.93261 0.01122 0.55402 0.0
H3843 H 0.92695 0.99848 0.52316 0.0
H3844 H 0.90422 0.99926 0.53943 0.0
H3845 H 0.95921 0.916 0.56205 0.0
H3846 H 0.9699 0.93381 0.54092 0.0
H3847 H 0.97444 0.94783 0.5714 0.0
H3848 H 0.99639 0.99631 0.50449 0.0
H3849 H 1.00757 0.02784 0.57828 0.0
H3850 H 0.9399 0.96667 0.49928 0.0
H3851 H 0.95414 0.94466 0.50504 0.0
H3852 H 0.96437 0.9655 0.48611 0.0
H3853 H 0.95326 1.00497 0.58928 0.0
H3854 H 0.98182 0.01558 0.60346 0.0
H3855 H 0.96769 0.98333 0.59566 0.0
C3856 C 0.89046 0.13595 0.29103 0.0
C3857 C 0.90007 0.12563 0.27222 0.0
C3858 C 0.87975 0.15503 0.28994 0.0
C3859 C 0.87794 0.16544 0.26942 0.0
C3860 C 0.88756 0.15527 0.25019 0.0
C3861 C 0.89824 0.13591 0.25173 0.0
C3862 C 0.8702 0.16414 0.3112 0.0
C3863 C 0.88663 0.16501 0.22772 0.0
C3864 C 0.83156 0.2004 0.26128 0.0
C3865 C 0.84276 0.22563 0.26925 0.0
C3866 C 0.84256 0.18126 0.26083 0.0
C3867 C 0.86596 0.18642 0.2684 0.0
C3868 C 0.87741 0.21189 0.27628 0.0
C3869 C 0.86598 0.23068 0.27663 0.0
C3870 C 0.82882 0.15511 0.25231 0.0
C3871 C 0.90209 0.2195 0.28463 0.0
H3872 H 0.89123 0.12897 0.30722 0.0
H3873 H 0.90525 0.12894 0.23677 0.0
H3874 H 0.87812 0.18401 0.31757 0.0
H3875 H 0.85215 0.16161 0.30629 0.0
H3876 H 0.87263 0.15453 0.32592 0.0
H3877 H 0.89473 0.15587 0.21433 0.0
H3878 H 0.86907 0.16239 0.22018 0.0
H3879 H 0.89492 0.18496 0.23153 0.0
H3880 H 0.81382 0.19538 0.25535 0.0
H3881 H 0.87547 0.24962 0.28282 0.0
H3882 H 0.82963 0.14476 0.26673 0.0
H3883 H 0.83568 0.14626 0.23757 0.0
H3884 H 0.81113 0.15361 0.24623 0.0
H3885 H 0.90565 0.21198 0.30054 0.0
H3886 H 0.90914 0.2397 0.28899 0.0
H3887 H 0.91069 0.21185 0.27084 0.0
C3888 C 0.71558 0.07852 0.04373 0.0
C3889 C 0.72438 0.09884 0.03383 0.0
C3890 C 0.69246 0.06884 0.04215 0.0
C3891 C 0.67796 0.07968 0.03024 0.0
C3892 C 0.68682 0.09988 0.01984 0.0
C3893 C 0.70988 0.10923 0.02182 0.0
C3894 C 0.68355 0.04732 0.05351 0.0
C3895 C 0.67192 0.11177 0.00674 0.0
C3896 C 0.61766 0.04493 0.00747 0.0
C3897 C 0.60669 0.05543 0.02434 0.0
C3898 C 0.64089 0.05217 0.00948 0.0
C3899 C 0.65349 0.07034 0.02886 0.0
C3900 C 0.64257 0.08076 0.04613 0.0
C3901 C 0.61929 0.0732 0.04366 0.0
C3902 C 0.6519 0.04059 0.9907 0.0
C3903 C 0.65548 0.10015 0.06708 0.0
H3904 H 0.72673 0.07044 0.05302 0.0
H3905 H 0.71655 0.12477 0.01389 0.0
H3906 H 0.67396 0.05261 0.06743 0.0
H3907 H 0.67198 0.03209 0.04028 0.0
H3908 H 0.697 0.04058 0.06155 0.0
H3909 H 0.68147 0.12699 0.9992 0.0
H3910 H 0.6604 0.09802 0.99219 0.0
H3911 H 0.66163 0.11905 0.01882 0.0
H3912 H 0.60812 0.03092 0.99264 0.0
H3913 H 0.61099 0.08126 0.05687 0.0
H3914 H 0.66378 0.0319 0.9988 0.0
H3915 H 0.66154 0.05484 0.98215 0.0
H3916 H 0.6397 0.02652 0.97688 0.0
H3917 H 0.66818 0.09352 0.07665 0.0
H3918 H 0.64459 0.10543 0.0796 0.0
H3919 H 0.6644 0.1167 0.06096 0.0
C3920 C 0.2614 0.53044 0.26457 0.0
C3921 C 0.25007 0.52574 0.24149 0.0
C3922 C 0.27309 0.51459 0.27186 0.0
C3923 C 0.27365 0.49379 0.25557 0.0
C3924 C 0.26291 0.48945 0.23203 0.0
C3925 C 0.25112 0.50541 0.22531 0.0
C3926 C 0.28415 0.51961 0.29718 0.0
C3927 C 0.26338 0.46759 0.21408 0.0
C3928 C 0.31603 0.4591 0.26674 0.0
C3929 C 0.30288 0.43836 0.27318 0.0
C3930 C 0.30693 0.47779 0.26162 0.0
C3931 C 0.28429 0.47567 0.26335 0.0
C3932 C 0.27128 0.45528 0.27099 0.0
C3933 C 0.28072 0.43676 0.27566 0.0
C3934 C 0.32121 0.49918 0.25332 0.0
C3935 C 0.24718 0.45255 0.2734 0.0
H3936 H 0.26059 0.54611 0.27718 0.0
H3937 H 0.24254 0.50181 0.20739 0.0
H3938 H 0.27594 0.50482 0.30602 0.0
H3939 H 0.30183 0.51971 0.29793 0.0
H3940 H 0.28334 0.53736 0.30724 0.0
H3941 H 0.25547 0.46775 0.19613 0.0
H3942 H 0.28077 0.46708 0.2133 0.0
H3943 H 0.25452 0.45051 0.21941 0.0
H3944 H 0.33314 0.46018 0.26472 0.0
H3945 H 0.27067 0.42075 0.28087 0.0
H3946 H 0.32026 0.51667 0.26373 0.0
H3947 H 0.31493 0.49863 0.23462 0.0
H3948 H 0.33889 0.49906 0.25473 0.0
H3949 H 0.24538 0.46933 0.2844 0.0
H3950 H 0.23998 0.43665 0.28144 0.0
H3951 H 0.23735 0.4501 0.25577 0.0
C3952 C 0.2736 0.44481 0.04421 0.0
C3953 C 0.26732 0.41993 0.03351 0.0
C3954 C 0.25808 0.45865 0.04445 0.0
C3955 C 0.23571 0.44747 0.0336 0.0
C3956 C 0.22934 0.42239 0.02275 0.0
C3957 C 0.24511 0.40899 0.02292 0.0
C3958 C 0.26561 0.48527 0.05634 0.0
C3959 C 0.20581 0.40968 0.01079 0.0
C3960 C 0.18953 0.47623 0.04996 0.0
C3961 C 0.18678 0.4886 0.03143 0.0
C3962 C 0.20552 0.46309 0.05107 0.0
C3963 C 0.21904 0.46199 0.03311 0.0
C3964 C 0.21618 0.47424 0.01425 0.0
C3965 C 0.20022 0.4874 0.01369 0.0
C3966 C 0.20803 0.45048 0.07158 0.0
C3967 C 0.22992 0.47333 0.99452 0.0
H3968 H 0.29064 0.45348 0.05251 0.0
H3969 H 0.23996 0.38982 0.01454 0.0
H3970 H 0.26314 0.4968 0.04333 0.0
H3971 H 0.25541 0.48868 0.07028 0.0
H3972 H 0.28338 0.49117 0.06442 0.0
H3973 H 0.20344 0.39008 1.00322 0.0
H3974 H 0.19407 0.41094 0.02358 0.0
H3975 H 0.20135 0.41887 0.99641 0.0
H3976 H 0.17946 0.47725 0.06391 0.0
H3977 H 0.1981 0.49661 0.99914 0.0
H3978 H 0.22536 0.45731 0.08098 0.0
H3979 H 0.2047 0.43053 0.06506 0.0
H3980 H 0.19659 0.45342 0.08434 0.0
H3981 H 0.24785 0.48067 1.00178 0.0
H3982 H 0.22585 0.48397 0.98123 0.0
H3983 H 0.22715 0.45409 0.98552 0.0
C3984 C 0.89609 0.95839 0.2376 0.0
C3985 C 0.89836 0.97955 0.25477 0.0
C3986 C 0.88296 0.93477 0.23928 0.0
C3987 C 0.872 0.93124 0.25917 0.0
C3988 C 0.87407 0.95257 0.27657 0.0
C3989 C 0.88693 0.9762 0.27413 0.0
C3990 C 0.88115 0.91338 0.21973 0.0
C3991 C 0.86334 0.95029 0.29839 0.0
C3992 C 0.82221 0.87337 0.25435 0.0
C3993 C 0.83164 0.85667 0.26399 0.0
C3994 C 0.83495 0.89713 0.25266 0.0
C3995 C 0.8581 0.90551 0.2613 0.0
C3996 C 0.8678 0.8888 0.27126 0.0
C3997 C 0.85466 0.86476 0.27226 0.0
C3998 C 0.82348 0.91327 0.24126 0.0
C3999 C 0.89217 0.89645 0.28115 0.0
H4000 H 0.90509 0.96025 0.22279 0.0
H4001 H 0.88897 0.9919 0.28806 0.0
H4002 H 0.88882 0.90012 0.22663 0.0
H4003 H 0.86341 0.90369 0.21299 0.0
H4004 H 0.88943 0.91908 0.20479 0.0
H4005 H 0.86625 0.96825 0.31034 0.0
H4006 H 0.84517 0.94184 0.29343 0.0
H4007 H 0.87001 0.93805 0.30815 0.0
H4008 H 0.80456 0.86773 0.24779 0.0
H4009 H 0.86239 0.85248 0.27992 0.0
H4010 H 0.83153 0.91848 0.22604 0.0
H4011 H 0.82513 0.9304 0.25398 0.0
H4012 H 0.80554 0.90418 0.23497 0.0
H4013 H 0.9022 0.9005 0.26696 0.0
H4014 H 0.89721 0.88214 0.28922 0.0
H4015 H 0.89615 0.9135 0.29469 0.0
C4016 C 0.71913 0.10049 0.74291 0.0
C4017 C 0.69649 0.09945 0.74 0.0
C4018 C 0.73557 0.12293 0.74655 0.0
C4019 C 0.72918 0.14476 0.7472 0.0
C4020 C 0.70638 0.14379 0.74385 0.0
C4021 C 0.69032 0.12116 0.74033 0.0
C4022 C 0.75974 0.12331 0.75007 0.0
C4023 C 0.69894 0.16672 0.74433 0.0
C4024 C 0.76691 0.20625 0.77938 0.0
C4025 C 0.77398 0.21712 0.76057 0.0
C4026 C 0.75315 0.18223 0.77535 0.0
C4027 C 0.7462 0.16882 0.75194 0.0
C4028 C 0.75412 0.17926 0.73298 0.0
C4029 C 0.76798 0.2033 0.73752 0.0
C4030 C 0.74524 0.17161 0.79607 0.0
C4031 C 0.74708 0.16549 0.70778 0.0
H4032 H 0.72405 0.0838 0.74269 0.0
H4033 H 0.67288 0.12053 0.73801 0.0
H4034 H 0.76846 0.13255 0.737 0.0
H4035 H 0.76792 0.13396 0.76784 0.0
H4036 H 0.76194 0.10465 0.74833 0.0
H4037 H 0.68057 0.16274 0.7408 0.0
H4038 H 0.70506 0.17901 0.76183 0.0
H4039 H 0.70613 0.17679 0.73097 0.0
H4040 H 0.77168 0.21671 0.79727 0.0
H4041 H 0.7734 0.21154 0.72289 0.0
H4042 H 0.74794 0.15329 0.79538 0.0
H4043 H 0.72712 0.16926 0.79524 0.0
H4044 H 0.75384 0.18348 0.81324 0.0
H4045 H 0.74967 0.14703 0.7061 0.0
H4046 H 0.75634 0.17525 0.69532 0.0
H4047 H 0.72908 0.16296 0.70248 0.0
loop_
_geom_bond_atom_site_label_1
_geom_bond_atom_site_label_2
_geom_bond_distance
_geom_bond_site_symmetry_2
_ccdc_geom_bond_type
Zn0 O3 2.031 . S
Zn0 O5 2.049 . S
Zn0 O10 2.067 . S
Zn1 O2 1.962 . S
Zn1 O4 1.986 . S
Zn1 O6 1.996 . S
Zn1 O9 1.943 . S
O2 Zn1 1.962 . S
O2 C7 1.254 . S
O3 Zn0 2.031 . S
O3 C7 1.269 . S
O4 Zn1 1.986 . S
O4 C11 1.262 . S
O5 Zn0 2.049 . S
O5 C13 1.260 . S
O6 Zn1 1.996 . S
O6 C13 1.257 . S
C7 O2 1.254 . S
C7 O3 1.269 . S
C8 O9 1.249 . S
C8 O10 1.270 . S
O9 Zn1 1.943 . S
O9 C8 1.249 . S
O10 Zn0 2.067 . S
O10 C8 1.270 . S
C11 O4 1.262 . S
C11 O12 1.232 . S
O12 C11 1.232 . S
C13 O5 1.260 . S
C13 O6 1.257 . S
Zn14 O17 2.031 1_455 S
Zn14 O19 2.049 . S
Zn14 O24 2.067 . S
Zn15 O16 1.944 1_455 S
Zn15 O18 1.993 . S
Zn15 O20 2.010 . S
Zn15 O23 1.947 1_455 S
O16 Zn15 1.944 1_655 S
O16 C21 1.254 . S
O17 Zn14 2.031 1_655 S
O17 C21 1.269 . S
O18 Zn15 1.993 . S
O18 C25 1.262 . S
O19 Zn14 2.049 . S
O19 C27 1.260 . S
O20 Zn15 2.010 . S
O20 C27 1.257 . S
C21 O16 1.254 . S
C21 O17 1.269 . S
C22 O23 1.249 . S
C22 O24 1.270 1_655 S
O23 Zn15 1.947 1_655 S
O23 C22 1.249 . S
O24 Zn14 2.067 . S
O24 C22 1.270 1_455 S
C25 O18 1.262 . S
C25 O26 1.232 1_455 S
O26 C25 1.232 1_655 S
C27 O19 1.260 . S
C27 O20 1.257 . S
Zn28 O31 2.031 . S
Zn28 O33 2.049 . S
Zn28 O38 2.067 . S
Zn29 O30 1.962 . S
Zn29 O32 1.986 . S
Zn29 O34 1.996 . S
Zn29 O37 1.943 . S
O30 Zn29 1.962 . S
O30 C35 1.254 . S
O31 Zn28 2.031 . S
O31 C35 1.269 . S
O32 Zn29 1.986 . S
O32 C39 1.262 . S
O33 Zn28 2.049 . S
O33 C41 1.260 . S
O34 Zn29 1.996 . S
O34 C41 1.257 . S
C35 O30 1.254 . S
C35 O31 1.269 . S
C36 O37 1.249 . S
C36 O38 1.270 . S
O37 Zn29 1.943 . S
O37 C36 1.249 . S
O38 Zn28 2.067 . S
O38 C36 1.270 . S
C39 O32 1.262 . S
C39 O40 1.232 . S
O40 C39 1.232 . S
C41 O33 1.260 . S
C41 O34 1.257 . S
Zn42 O45 2.031 . S
Zn42 O47 2.049 . S
Zn42 O52 2.067 . S
Zn43 O44 1.962 . S
Zn43 O46 1.986 . S
Zn43 O48 1.996 . S
Zn43 O51 1.943 . S
O44 Zn43 1.962 . S
O44 C49 1.254 . S
O45 Zn42 2.031 . S
O45 C49 1.269 . S
O46 Zn43 1.986 . S
O46 C53 1.262 . S
O47 Zn42 2.049 . S
O47 C55 1.260 . S
O48 Zn43 1.996 . S
O48 C55 1.257 . S
C49 O44 1.254 . S
C49 O45 1.269 . S
C50 O51 1.249 . S
C50 O52 1.270 . S
O51 Zn43 1.943 . S
O51 C50 1.249 . S
O52 Zn42 2.067 . S
O52 C50 1.270 . S
C53 O46 1.262 . S
C53 O54 1.232 . S
O54 C53 1.232 . S
C55 O47 1.260 . S
C55 O48 1.257 . S
Zn56 O59 2.031 . S
Zn56 O61 2.049 . S
Zn56 O66 2.067 . S
Zn57 O58 1.962 . S
Zn57 O60 1.986 . S
Zn57 O62 1.996 . S
Zn57 O65 1.943 . S
O58 Zn57 1.962 . S
O58 C63 1.254 . S
O59 Zn56 2.031 . S
O59 C63 1.269 . S
O60 Zn57 1.986 . S
O60 C67 1.262 . S
O61 Zn56 2.049 . S
O61 C69 1.260 . S
O62 Zn57 1.996 . S
O62 C69 1.257 . S
C63 O58 1.254 . S
C63 O59 1.269 . S
C64 O65 1.249 . S
C64 O66 1.270 . S
O65 Zn57 1.943 . S
O65 C64 1.249 . S
O66 Zn56 2.067 . S
O66 C64 1.270 . S
C67 O60 1.262 . S
C67 O68 1.232 . S
O68 C67 1.232 . S
C69 O61 1.260 . S
C69 O62 1.257 . S
Zn70 O73 2.031 . S
Zn70 O75 2.049 . S
Zn70 O80 2.067 . S
Zn71 O72 1.962 . S
Zn71 O74 1.986 . S
Zn71 O76 1.996 . S
Zn71 O79 1.943 . S
O72 Zn71 1.962 . S
O72 C77 1.254 . S
O73 Zn70 2.031 . S
O73 C77 1.269 . S
O74 Zn71 1.986 . S
O74 C81 1.262 . S
O75 Zn70 2.049 . S
O75 C83 1.260 . S
O76 Zn71 1.996 . S
O76 C83 1.257 . S
C77 O72 1.254 . S
C77 O73 1.269 . S
C78 O79 1.249 . S
C78 O80 1.270 . S
O79 Zn71 1.943 . S
O79 C78 1.249 . S
O80 Zn70 2.067 . S
O80 C78 1.270 . S
C81 O74 1.262 . S
C81 O82 1.232 . S
O82 C81 1.232 . S
C83 O75 1.260 . S
C83 O76 1.257 . S
Zn84 O87 2.031 . S
Zn84 O89 2.049 . S
Zn84 O94 2.067 . S
Zn85 O86 1.962 . S
Zn85 O88 1.986 . S
Zn85 O90 1.996 . S
Zn85 O93 1.943 . S
O86 Zn85 1.962 . S
O86 C91 1.254 . S
O87 Zn84 2.031 . S
O87 C91 1.269 . S
O88 Zn85 1.986 . S
O88 C95 1.262 . S
O89 Zn84 2.049 . S
O89 C97 1.260 . S
O90 Zn85 1.996 . S
O90 C97 1.257 . S
C91 O86 1.254 . S
C91 O87 1.269 . S
C92 O93 1.249 . S
C92 O94 1.270 . S
O93 Zn85 1.943 . S
O93 C92 1.249 . S
O94 Zn84 2.067 . S
O94 C92 1.270 . S
C95 O88 1.262 . S
C95 O96 1.232 . S
O96 C95 1.232 . S
C97 O89 1.260 . S
C97 O90 1.257 . S
Zn98 O101 2.031 1_655 S
Zn98 O103 2.049 . S
Zn98 O108 2.067 . S
Zn99 O100 1.962 . S
Zn99 O102 1.986 . S
Zn99 O104 1.996 . S
Zn99 O107 1.943 . S
O100 Zn99 1.962 . S
O100 C105 1.254 . S
O101 Zn98 2.031 1_455 S
O101 C105 1.269 . S
O102 Zn99 1.986 . S
O102 C109 1.262 . S
O103 Zn98 2.049 . S
O103 C111 1.260 1_655 S
O104 Zn99 1.996 . S
O104 C111 1.257 . S
C105 O100 1.254 . S
C105 O101 1.269 . S
C106 O107 1.249 1_655 S
C106 O108 1.270 . S
O107 Zn99 1.943 . S
O107 C106 1.249 1_455 S
O108 Zn98 2.067 . S
O108 C106 1.270 . S
C109 O102 1.262 . S
C109 O110 1.232 . S
O110 C109 1.232 . S
C111 O103 1.260 1_455 S
C111 O104 1.257 . S
Zn112 O115 2.031 . S
Zn112 O117 2.049 . S
Zn112 O122 2.067 . S
Zn113 O114 1.962 . S
Zn113 O116 1.986 . S
Zn113 O118 1.996 . S
Zn113 O121 1.943 1_545 S
O114 Zn113 1.962 . S
O114 C119 1.254 . S
O115 Zn112 2.031 . S
O115 C119 1.269 1_565 S
O116 Zn113 1.986 . S
O116 C123 1.262 . S
O117 Zn112 2.049 . S
O117 C125 1.260 . S
O118 Zn113 1.996 . S
O118 C125 1.257 1_545 S
C119 O114 1.254 . S
C119 O115 1.269 1_545 S
C120 O121 1.249 . S
C120 O122 1.270 . S
O121 Zn113 1.943 1_565 S
O121 C120 1.249 . S
O122 Zn112 2.067 . S
O122 C120 1.270 . S
C123 O116 1.262 . S
C123 O124 1.232 . S
O124 C123 1.232 . S
C125 O117 1.260 . S
C125 O118 1.257 1_565 S
Zn126 O129 2.031 . S
Zn126 O131 2.049 . S
Zn126 O136 2.067 . S
Zn127 O128 1.962 . S
Zn127 O130 1.986 . S
Zn127 O132 1.996 . S
Zn127 O135 1.943 . S
O128 Zn127 1.962 . S
O128 C133 1.254 . S
O129 Zn126 2.031 . S
O129 C133 1.269 . S
O130 Zn127 1.986 . S
O130 C137 1.262 . S
O131 Zn126 2.049 . S
O131 C139 1.260 . S
O132 Zn127 1.996 . S
O132 C139 1.257 . S
C133 O128 1.254 . S
C133 O129 1.269 . S
C134 O135 1.249 . S
C134 O136 1.270 . S
O135 Zn127 1.943 . S
O135 C134 1.249 . S
O136 Zn126 2.067 . S
O136 C134 1.270 . S
C137 O130 1.262 . S
C137 O138 1.232 . S
O138 C137 1.232 . S
C139 O131 1.260 . S
C139 O132 1.257 . S
Zn140 O143 2.031 . S
Zn140 O145 2.049 . S
Zn140 O150 2.067 . S
Zn141 O142 1.962 . S
Zn141 O144 1.986 . S
Zn141 O146 1.996 . S
Zn141 O149 1.943 1_565 S
O142 Zn141 1.962 . S
O142 C147 1.254 1_565 S
O143 Zn140 2.031 . S
O143 C147 1.269 . S
O144 Zn141 1.986 . S
O144 C151 1.262 . S
O145 Zn140 2.049 . S
O145 C153 1.260 . S
O146 Zn141 1.996 . S
O146 C153 1.257 1_565 S
C147 O142 1.254 1_545 S
C147 O143 1.269 . S
C148 O149 1.249 . S
C148 O150 1.270 . S
O149 Zn141 1.943 1_545 S
O149 C148 1.249 . S
O150 Zn140 2.067 . S
O150 C148 1.270 . S
C151 O144 1.262 . S
C151 O152 1.232 . S
O152 C151 1.232 . S
C153 O145 1.260 . S
C153 O146 1.257 1_545 S
Zn154 O157 2.031 1_554 S
Zn154 O159 2.049 . S
Zn154 O164 2.067 . S
Zn155 O156 1.962 1_554 S
Zn155 O158 1.986 . S
Zn155 O160 1.996 . S
Zn155 O163 1.943 . S
O156 Zn155 1.962 1_556 S
O156 C161 1.254 . S
O157 Zn154 2.031 1_556 S
O157 C161 1.269 . S
O158 Zn155 1.986 . S
O158 C165 1.262 . S
O159 Zn154 2.049 . S
O159 C167 1.260 . S
O160 Zn155 1.996 . S
O160 C167 1.257 . S
C161 O156 1.254 . S
C161 O157 1.269 . S
C162 O163 1.249 . S
C162 O164 1.270 . S
O163 Zn155 1.943 . S
O163 C162 1.249 . S
O164 Zn154 2.067 . S
O164 C162 1.270 . S
C165 O158 1.262 . S
C165 O166 1.232 1_554 S
O166 C165 1.232 1_556 S
C167 O159 1.260 . S
C167 O160 1.257 . S
Zn168 O171 2.031 1_554 S
Zn168 O173 2.049 . S
Zn168 O178 2.067 . S
Zn169 O170 1.962 1_554 S
Zn169 O172 1.986 . S
Zn169 O174 1.996 . S
Zn169 O177 1.943 . S
O170 Zn169 1.962 1_556 S
O170 C175 1.254 . S
O171 Zn168 2.031 1_556 S
O171 C175 1.269 . S
O172 Zn169 1.986 . S
O172 C179 1.262 . S
O173 Zn168 2.049 . S
O173 C181 1.260 . S
O174 Zn169 1.996 . S
O174 C181 1.257 . S
C175 O170 1.254 . S
C175 O171 1.269 . S
C176 O177 1.249 . S
C176 O178 1.270 . S
O177 Zn169 1.943 . S
O177 C176 1.249 . S
O178 Zn168 2.067 . S
O178 C176 1.270 . S
C179 O172 1.262 . S
C179 O180 1.256 . S
O180 C179 1.256 . S
C181 O173 1.260 . S
C181 O174 1.257 . S
Zn182 O185 2.031 1_554 S
Zn182 O187 2.049 . S
Zn182 O192 2.067 . S
Zn183 O184 1.962 1_554 S
Zn183 O186 1.986 . S
Zn183 O188 1.996 . S
Zn183 O191 1.943 . S
O184 Zn183 1.962 1_556 S
O184 C189 1.254 . S
O185 Zn182 2.031 1_556 S
O185 C189 1.269 . S
O186 Zn183 1.986 . S
O186 C193 1.262 . S
O187 Zn182 2.049 . S
O187 C195 1.260 . S
O188 Zn183 1.996 . S
O188 C195 1.257 . S
C189 O184 1.254 . S
C189 O185 1.269 . S
C190 O191 1.249 . S
C190 O192 1.270 . S
O191 Zn183 1.943 . S
O191 C190 1.249 . S
O192 Zn182 2.067 . S
O192 C190 1.270 . S
C193 O186 1.262 . S
C193 O194 1.222 1_554 S
O194 C193 1.222 1_556 S
C195 O187 1.260 . S
C195 O188 1.257 . S
Zn196 O199 2.031 . S
Zn196 O201 2.049 . S
Zn196 O206 2.067 . S
Zn197 O198 1.962 . S
Zn197 O200 1.986 . S
Zn197 O202 1.996 . S
Zn197 O205 1.943 . S
O198 Zn197 1.962 . S
O198 C203 1.254 . S
O199 Zn196 2.031 . S
O199 C203 1.269 . S
O200 Zn197 1.986 . S
O200 C207 1.262 . S
O201 Zn196 2.049 . S
O201 C209 1.260 . S
O202 Zn197 1.996 . S
O202 C209 1.257 . S
C203 O198 1.254 . S
C203 O199 1.269 . S
C204 O205 1.249 . S
C204 O206 1.270 . S
O205 Zn197 1.943 . S
O205 C204 1.249 . S
O206 Zn196 2.067 . S
O206 C204 1.270 . S
C207 O200 1.262 . S
C207 O208 1.232 . S
O208 C207 1.232 . S
C209 O201 1.260 . S
C209 O202 1.257 . S
Zn210 O213 2.031 . S
Zn210 O215 2.049 . S
Zn210 O220 2.067 . S
Zn211 O212 1.962 . S
Zn211 O214 1.986 . S
Zn211 O216 1.996 . S
Zn211 O219 1.943 . S
O212 Zn211 1.962 . S
O212 C217 1.254 . S
O213 Zn210 2.031 . S
O213 C217 1.269 . S
O214 Zn211 1.986 . S
O214 C221 1.262 . S
O215 Zn210 2.049 . S
O215 C223 1.260 . S
O216 Zn211 1.996 . S
O216 C223 1.257 . S
C217 O212 1.254 . S
C217 O213 1.269 . S
C218 O219 1.249 . S
C218 O220 1.270 . S
O219 Zn211 1.943 . S
O219 C218 1.249 . S
O220 Zn210 2.067 . S
O220 C218 1.270 . S
C221 O214 1.262 . S
C221 O222 1.232 . S
O222 C221 1.232 . S
C223 O215 1.260 . S
C223 O216 1.257 . S
Zn224 O227 2.031 . S
Zn224 O229 2.049 . S
Zn224 O234 2.067 . S
Zn225 O226 1.962 . S
Zn225 O228 1.986 . S
Zn225 O230 1.996 . S
Zn225 O233 1.943 . S
O226 Zn225 1.962 . S
O226 C231 1.254 . S
O227 Zn224 2.031 . S
O227 C231 1.269 . S
O228 Zn225 1.986 . S
O228 C235 1.262 . S
O229 Zn224 2.049 . S
O229 C237 1.260 . S
O230 Zn225 1.996 . S
O230 C237 1.257 . S
C231 O226 1.254 . S
C231 O227 1.269 . S
C232 O233 1.249 . S
C232 O234 1.270 . S
O233 Zn225 1.943 . S
O233 C232 1.249 . S
O234 Zn224 2.067 . S
O234 C232 1.270 . S
C235 O228 1.262 . S
C235 O236 1.232 . S
O236 C235 1.232 . S
C237 O229 1.260 . S
C237 O230 1.257 . S
Zn238 O241 2.031 . S
Zn238 O243 2.049 . S
Zn238 O248 2.067 . S
Zn239 O240 1.962 . S
Zn239 O242 1.986 . S
Zn239 O244 1.996 . S
Zn239 O247 1.943 . S
O240 Zn239 1.962 . S
O240 C245 1.254 . S
O241 Zn238 2.031 . S
O241 C245 1.269 . S
O242 Zn239 1.986 . S
O242 C249 1.262 . S
O243 Zn238 2.049 . S
O243 C251 1.260 . S
O244 Zn239 1.996 . S
O244 C251 1.257 . S
C245 O240 1.254 . S
C245 O241 1.269 . S
C246 O247 1.249 . S
C246 O248 1.270 . S
O247 Zn239 1.943 . S
O247 C246 1.249 . S
O248 Zn238 2.067 . S
O248 C246 1.270 . S
C249 O242 1.262 . S
C249 O250 1.232 . S
O250 C249 1.232 . S
C251 O243 1.260 . S
C251 O244 1.257 . S
Zn252 O255 2.031 . S
Zn252 O257 2.049 . S
Zn252 O262 2.067 . S
Zn253 O254 1.962 . S
Zn253 O256 1.986 . S
Zn253 O258 1.996 . S
Zn253 O261 1.943 . S
O254 Zn253 1.962 . S
O254 C259 1.254 . S
O255 Zn252 2.031 . S
O255 C259 1.269 . S
O256 Zn253 1.986 . S
O256 C263 1.262 . S
O257 Zn252 2.049 . S
O257 C265 1.260 . S
O258 Zn253 1.996 . S
O258 C265 1.257 . S
C259 O254 1.254 . S
C259 O255 1.269 . S
C260 O261 1.249 . S
C260 O262 1.270 . S
O261 Zn253 1.943 . S
O261 C260 1.249 . S
O262 Zn252 2.067 . S
O262 C260 1.270 . S
C263 O256 1.262 . S
C263 O264 1.232 . S
O264 C263 1.232 . S
C265 O257 1.260 . S
C265 O258 1.257 . S
Zn266 O269 2.031 . S
Zn266 O271 2.049 . S
Zn266 O276 2.067 . S
Zn267 O268 1.962 . S
Zn267 O270 1.986 . S
Zn267 O272 1.996 . S
Zn267 O275 1.943 . S
O268 Zn267 1.962 . S
O268 C273 1.254 . S
O269 Zn266 2.031 . S
O269 C273 1.269 . S
O270 Zn267 1.986 . S
O270 C277 1.262 . S
O271 Zn266 2.049 . S
O271 C279 1.260 . S
O272 Zn267 1.996 . S
O272 C279 1.257 . S
C273 O268 1.254 . S
C273 O269 1.269 . S
C274 O275 1.249 . S
C274 O276 1.270 . S
O275 Zn267 1.943 . S
O275 C274 1.249 . S
O276 Zn266 2.067 . S
O276 C274 1.270 . S
C277 O270 1.262 . S
C277 O278 1.232 . S
O278 C277 1.232 . S
C279 O271 1.260 . S
C279 O272 1.257 . S
Zn280 O283 2.031 1_554 S
Zn280 O285 2.049 . S
Zn280 O290 2.067 . S
Zn281 O282 1.962 1_554 S
Zn281 O284 1.986 . S
Zn281 O286 1.996 . S
Zn281 O289 1.943 . S
O282 Zn281 1.962 1_556 S
O282 C287 1.254 . S
O283 Zn280 2.031 1_556 S
O283 C287 1.269 . S
O284 Zn281 1.986 . S
O284 C291 1.262 . S
O285 Zn280 2.049 . S
O285 C293 1.260 . S
O286 Zn281 1.996 . S
O286 C293 1.257 . S
C287 O282 1.254 . S
C287 O283 1.269 . S
C288 O289 1.249 . S
C288 O290 1.270 . S
O289 Zn281 1.943 . S
O289 C288 1.249 . S
O290 Zn280 2.067 . S
O290 C288 1.270 . S
C291 O284 1.262 . S
C291 O292 1.232 1_554 S
O292 C291 1.232 1_556 S
C293 O285 1.260 . S
C293 O286 1.257 . S
Zn294 O297 2.031 . S
Zn294 O299 2.049 . S
Zn294 O304 2.067 . S
Zn295 O296 1.962 . S
Zn295 O298 1.986 . S
Zn295 O300 1.996 . S
Zn295 O303 1.943 . S
O296 Zn295 1.962 . S
O296 C301 1.254 . S
O297 Zn294 2.031 . S
O297 C301 1.269 . S
O298 Zn295 1.986 . S
O298 C305 1.262 . S
O299 Zn294 2.049 . S
O299 C307 1.260 . S
O300 Zn295 1.996 . S
O300 C307 1.257 . S
C301 O296 1.254 . S
C301 O297 1.269 . S
C302 O303 1.249 . S
C302 O304 1.270 . S
O303 Zn295 1.943 . S
O303 C302 1.249 . S
O304 Zn294 2.067 . S
O304 C302 1.270 . S
C305 O298 1.262 . S
C305 O306 1.232 . S
O306 C305 1.232 . S
C307 O299 1.260 . S
C307 O300 1.257 . S
Zn308 O311 2.031 . S
Zn308 O313 2.049 . S
Zn308 O318 2.067 . S
Zn309 O310 1.962 . S
Zn309 O312 1.986 . S
Zn309 O314 1.996 . S
Zn309 O317 1.943 . S
O310 Zn309 1.962 . S
O310 C315 1.254 . S
O311 Zn308 2.031 . S
O311 C315 1.269 . S
O312 Zn309 1.986 . S
O312 C319 1.262 . S
O313 Zn308 2.049 . S
O313 C321 1.260 . S
O314 Zn309 1.996 . S
O314 C321 1.257 . S
C315 O310 1.254 . S
C315 O311 1.269 . S
C316 O317 1.249 . S
C316 O318 1.270 . S
O317 Zn309 1.943 . S
O317 C316 1.249 . S
O318 Zn308 2.067 . S
O318 C316 1.270 . S
C319 O312 1.262 . S
C319 O320 1.232 . S
O320 C319 1.232 . S
C321 O313 1.260 . S
C321 O314 1.257 . S
Zn322 O325 2.031 . S
Zn322 O327 2.049 . S
Zn322 O332 2.067 . S
Zn323 O324 1.962 . S
Zn323 O326 1.986 . S
Zn323 O328 1.996 . S
Zn323 O331 1.943 . S
O324 Zn323 1.962 . S
O324 C329 1.254 . S
O325 Zn322 2.031 . S
O325 C329 1.269 . S
O326 Zn323 1.986 . S
O326 C333 1.262 . S
O327 Zn322 2.049 . S
O327 C335 1.260 . S
O328 Zn323 1.996 . S
O328 C335 1.257 . S
C329 O324 1.254 . S
C329 O325 1.269 . S
C330 O331 1.249 . S
C330 O332 1.270 . S
O331 Zn323 1.943 . S
O331 C330 1.249 . S
O332 Zn322 2.067 . S
O332 C330 1.270 . S
C333 O326 1.262 . S
C333 O334 1.232 . S
O334 C333 1.232 . S
C335 O327 1.260 . S
C335 O328 1.257 . S
La336 C338 2.928 1_454 S
La336 O356 2.521 1_454 S
La336 O357 2.628 1_455 S
La336 O358 2.554 1_554 S
La336 O359 2.757 1_554 S
La336 O360 2.470 1_554 S
La336 O365 2.482 . S
La336 O367 2.503 1_545 S
La337 C347 2.928 . S
La337 O359 2.482 1_554 S
La337 O361 2.503 . S
La337 O362 2.521 . S
La337 O363 2.628 . S
La337 O364 2.554 . S
La337 O365 2.757 . S
La337 O366 2.470 . S
C338 La336 2.928 1_656 S
C338 C339 1.503 . S
C338 O356 1.261 . S
C338 O357 1.243 1_556 S
C339 C338 1.503 . S
C339 C340 1.394 . S
C339 C344 1.373 1_556 S
C340 C339 1.394 . S
C340 C341 1.380 . S
C340 H368 0.930 . S
C341 C340 1.380 . S
C341 C342 1.376 . S
C341 H369 0.930 . S
C342 C341 1.376 . S
C342 C343 1.370 . S
C343 C342 1.370 . S
C343 C344 1.396 1_556 S
C343 H370 0.929 1_556 S
C344 C339 1.373 1_554 S
C344 C343 1.396 1_554 S
C344 H371 0.929 . S
C345 O358 1.240 . S
C345 O359 1.289 . S
C346 O360 1.258 1_554 S
C346 O361 1.256 . S
C347 La337 2.928 . S
C347 C348 1.503 . S
C347 O362 1.261 . S
C347 O363 1.243 . S
C348 C347 1.503 . S
C348 C349 1.394 . S
C348 C353 1.373 . S
C349 C348 1.394 . S
C349 C350 1.380 . S
C349 H372 0.930 . S
C350 C349 1.380 . S
C350 C351 1.376 . S
C350 H373 0.930 . S
C351 C350 1.376 . S
C351 C352 1.370 1_545 S
C352 C351 1.370 1_565 S
C352 C353 1.396 1_565 S
C352 H374 0.929 . S
C353 C348 1.373 . S
C353 C352 1.396 1_545 S
C353 H375 0.929 . S
C354 O364 1.240 . S
C354 O365 1.289 . S
C355 O366 1.258 1_565 S
C355 O367 1.256 . S
O356 La336 2.521 1_656 S
O356 C338 1.261 . S
O357 La336 2.628 1_655 S
O357 C338 1.243 1_554 S
O358 La336 2.554 1_556 S
O358 C345 1.240 . S
O359 La336 2.757 1_556 S
O359 La337 2.482 1_556 S
O359 C345 1.289 . S
O360 La336 2.470 1_556 S
O360 C346 1.258 1_556 S
O361 La337 2.503 . S
O361 C346 1.256 . S
O362 La337 2.521 . S
O362 C347 1.261 . S
O363 La337 2.628 . S
O363 C347 1.243 . S
O364 La337 2.554 . S
O364 C354 1.240 . S
O365 La336 2.482 . S
O365 La337 2.757 . S
O365 C354 1.289 . S
O366 La337 2.470 . S
O366 C355 1.258 1_545 S
O367 La336 2.503 1_565 S
O367 C355 1.256 . S
H368 C340 0.930 . S
H369 C341 0.930 . S
H370 C343 0.929 1_554 S
H371 C344 0.929 . S
H372 C349 0.930 . S
H373 C350 0.930 . S
H374 C352 0.929 . S
H375 C353 0.929 . S
La376 C378 2.928 . S
La376 O396 2.521 . S
La376 O397 2.628 . S
La376 O398 2.554 . S
La376 O399 2.757 . S
La376 O400 2.470 . S
La376 O405 2.482 . S
La376 O407 2.503 . S
La377 C387 2.928 . S
La377 O399 2.482 . S
La377 O401 2.503 . S
La377 O402 2.521 . S
La377 O403 2.628 . S
La377 O404 2.554 . S
La377 O405 2.757 . S
La377 O406 2.470 . S
C378 La376 2.928 . S
C378 C379 1.503 . S
C378 O396 1.261 . S
C378 O397 1.243 . S
C379 C378 1.503 . S
C379 C380 1.394 . S
C379 C384 1.373 . S
C380 C379 1.394 . S
C380 C381 1.380 . S
C380 H408 0.930 . S
C381 C380 1.380 . S
C381 C382 1.376 . S
C381 H409 0.930 . S
C382 C381 1.376 . S
C382 C383 1.370 . S
C383 C382 1.370 . S
C383 C384 1.396 . S
C383 H410 0.929 . S
C384 C379 1.373 . S
C384 C383 1.396 . S
C384 H411 0.929 . S
C385 O398 1.240 . S
C385 O399 1.289 . S
C386 O400 1.258 . S
C386 O401 1.256 . S
C387 La377 2.928 . S
C387 C388 1.503 . S
C387 O402 1.261 . S
C387 O403 1.243 . S
C388 C387 1.503 . S
C388 C389 1.394 . S
C388 C393 1.373 . S
C389 C388 1.394 . S
C389 C390 1.380 . S
C389 H412 0.930 . S
C390 C389 1.380 . S
C390 C391 1.376 . S
C390 H413 0.930 . S
C391 C390 1.376 . S
C391 C392 1.370 . S
C392 C391 1.370 . S
C392 C393 1.396 . S
C392 H414 0.929 . S
C393 C388 1.373 . S
C393 C392 1.396 . S
C393 H415 0.929 . S
C394 O404 1.240 . S
C394 O405 1.289 . S
C395 O406 1.258 . S
C395 O407 1.256 . S
O396 La376 2.521 . S
O396 C378 1.261 . S
O397 La376 2.628 . S
O397 C378 1.243 . S
O398 La376 2.554 . S
O398 C385 1.240 . S
O399 La376 2.757 . S
O399 La377 2.482 . S
O399 C385 1.289 . S
O400 La376 2.470 . S
O400 C386 1.258 . S
O401 La377 2.503 . S
O401 C386 1.256 . S
O402 La377 2.521 . S
O402 C387 1.261 . S
O403 La377 2.628 . S
O403 C387 1.243 . S
O404 La377 2.554 . S
O404 C394 1.240 . S
O405 La376 2.482 . S
O405 La377 2.757 . S
O405 C394 1.289 . S
O406 La377 2.470 . S
O406 C395 1.258 . S
O407 La376 2.503 . S
O407 C395 1.256 . S
H408 C380 0.930 . S
H409 C381 0.930 . S
H410 C383 0.929 . S
H411 C384 0.929 . S
H412 C389 0.930 . S
H413 C390 0.930 . S
H414 C392 0.929 . S
H415 C393 0.929 . S
La416 C418 2.928 . S
La416 O436 2.521 . S
La416 O437 2.628 . S
La416 O438 2.554 . S
La416 O439 2.757 . S
La416 O440 2.470 1_545 S
La416 O445 2.482 . S
La416 O447 2.503 . S
La417 C427 2.928 . S
La417 O439 2.482 . S
La417 O441 2.503 1_545 S
La417 O442 2.521 . S
La417 O443 2.628 . S
La417 O444 2.554 . S
La417 O445 2.757 . S
La417 O446 2.470 . S
C418 La416 2.928 . S
C418 C419 1.503 1_545 S
C418 O436 1.261 . S
C418 O437 1.243 . S
C419 C418 1.503 1_565 S
C419 C420 1.394 . S
C419 C424 1.373 . S
C420 C419 1.394 . S
C420 C421 1.380 . S
C420 H448 0.918 1_565 S
C421 C420 1.380 . S
C421 C422 1.376 . S
C421 H449 0.930 . S
C422 C421 1.376 . S
C422 C423 1.370 . S
C423 C422 1.370 . S
C423 C424 1.396 . S
C423 H450 0.929 . S
C424 C419 1.373 . S
C424 C423 1.396 . S
C424 H451 0.929 . S
C425 O438 1.240 . S
C425 O439 1.289 . S
C426 O440 1.258 . S
C426 O441 1.256 . S
C427 La417 2.928 . S
C427 C428 1.503 . S
C427 O442 1.261 . S
C427 O443 1.243 . S
C428 C427 1.503 . S
C428 C429 1.394 . S
C428 C433 1.373 . S
C429 C428 1.394 . S
C429 C430 1.380 . S
C429 H452 0.930 . S
C430 C429 1.380 . S
C430 C431 1.376 . S
C430 H453 0.930 . S
C431 C430 1.376 . S
C431 C432 1.370 . S
C432 C431 1.370 . S
C432 C433 1.396 . S
C432 H454 0.929 . S
C433 C428 1.373 . S
C433 C432 1.396 . S
C433 H455 0.929 . S
C434 O444 1.240 . S
C434 O445 1.289 . S
C435 O446 1.258 . S
C435 O447 1.256 . S
O436 La416 2.521 . S
O436 C418 1.261 . S
O437 La416 2.628 . S
O437 C418 1.243 . S
O438 La416 2.554 . S
O438 C425 1.240 . S
O439 La416 2.757 . S
O439 La417 2.482 . S
O439 C425 1.289 . S
O440 La416 2.470 1_565 S
O440 C426 1.258 . S
O441 La417 2.503 1_565 S
O441 C426 1.256 . S
O442 La417 2.521 . S
O442 C427 1.261 . S
O443 La417 2.628 . S
O443 C427 1.243 . S
O444 La417 2.554 . S
O444 C434 1.240 . S
O445 La416 2.482 . S
O445 La417 2.757 . S
O445 C434 1.289 . S
O446 La417 2.470 . S
O446 C435 1.258 . S
O447 La416 2.503 . S
O447 C435 1.256 . S
H448 C420 0.918 1_545 S
H449 C421 0.930 . S
H450 C423 0.929 . S
H451 C424 0.929 . S
H452 C429 0.930 . S
H453 C430 0.930 . S
H454 C432 0.929 . S
H455 C433 0.929 . S
La456 C458 2.928 . S
La456 O476 2.521 . S
La456 O477 2.628 . S
La456 O478 2.554 . S
La456 O479 2.757 . S
La456 O480 2.470 . S
La456 O485 2.482 . S
La456 O487 2.503 . S
La457 C467 2.928 . S
La457 O479 2.482 . S
La457 O481 2.503 . S
La457 O482 2.521 . S
La457 O483 2.628 . S
La457 O484 2.554 . S
La457 O485 2.757 . S
La457 O486 2.470 . S
C458 La456 2.928 . S
C458 C459 1.503 . S
C458 O476 1.261 . S
C458 O477 1.243 . S
C459 C458 1.503 . S
C459 C460 1.394 . S
C459 C464 1.373 . S
C460 C459 1.394 . S
C460 C461 1.380 . S
C460 H488 0.930 . S
C461 C460 1.380 . S
C461 C462 1.376 . S
C461 H489 0.930 . S
C462 C461 1.376 . S
C462 C463 1.370 . S
C463 C462 1.370 . S
C463 C464 1.396 . S
C463 H490 0.929 . S
C464 C459 1.373 . S
C464 C463 1.396 . S
C464 H491 0.929 . S
C465 O478 1.240 . S
C465 O479 1.289 . S
C466 O480 1.258 . S
C466 O481 1.256 . S
C467 La457 2.928 . S
C467 C468 1.503 . S
C467 O482 1.261 . S
C467 O483 1.243 . S
C468 C467 1.503 . S
C468 C469 1.394 . S
C468 C473 1.373 . S
C469 C468 1.394 . S
C469 C470 1.380 . S
C469 H492 0.930 . S
C470 C469 1.380 . S
C470 C471 1.376 . S
C470 H493 0.930 . S
C471 C470 1.376 . S
C471 C472 1.370 . S
C472 C471 1.370 . S
C472 C473 1.396 . S
C472 H494 0.929 . S
C473 C468 1.373 . S
C473 C472 1.396 . S
C473 H495 0.929 . S
C474 O484 1.240 . S
C474 O485 1.289 . S
C475 O486 1.258 . S
C475 O487 1.256 . S
O476 La456 2.521 . S
O476 C458 1.261 . S
O477 La456 2.628 . S
O477 C458 1.243 . S
O478 La456 2.554 . S
O478 C465 1.240 . S
O479 La456 2.757 . S
O479 La457 2.482 . S
O479 C465 1.289 . S
O480 La456 2.470 . S
O480 C466 1.258 . S
O481 La457 2.503 . S
O481 C466 1.256 . S
O482 La457 2.521 . S
O482 C467 1.261 . S
O483 La457 2.628 . S
O483 C467 1.243 . S
O484 La457 2.554 . S
O484 C474 1.240 . S
O485 La456 2.482 . S
O485 La457 2.757 . S
O485 C474 1.289 . S
O486 La457 2.470 . S
O486 C475 1.258 . S
O487 La456 2.503 . S
O487 C475 1.256 . S
H488 C460 0.930 . S
H489 C461 0.930 . S
H490 C463 0.929 . S
H491 C464 0.929 . S
H492 C469 0.930 . S
H493 C470 0.930 . S
H494 C472 0.929 . S
H495 C473 0.929 . S
La496 C498 2.928 . S
La496 O516 2.521 . S
La496 O517 2.628 . S
La496 O518 2.554 . S
La496 O519 2.757 . S
La496 O520 2.470 . S
La496 O525 2.482 . S
La496 O527 2.503 . S
La497 C507 2.928 . S
La497 O519 2.482 1_565 S
La497 O521 2.503 1_565 S
La497 O522 2.521 . S
La497 O523 2.628 . S
La497 O524 2.554 1_565 S
La497 O525 2.757 1_565 S
La497 O526 2.470 1_565 S
C498 La496 2.928 . S
C498 C499 1.503 . S
C498 O516 1.261 . S
C498 O517 1.243 . S
C499 C498 1.503 . S
C499 C500 1.394 . S
C499 C504 1.373 . S
C500 C499 1.394 . S
C500 C501 1.380 . S
C500 H528 0.930 . S
C501 C500 1.380 . S
C501 C502 1.376 . S
C501 H529 0.930 . S
C502 C501 1.376 . S
C502 C503 1.370 . S
C503 C502 1.370 . S
C503 C504 1.396 . S
C503 H530 0.929 . S
C504 C499 1.373 . S
C504 C503 1.396 . S
C504 H531 0.929 . S
C505 O518 1.240 . S
C505 O519 1.289 . S
C506 O520 1.258 . S
C506 O521 1.256 . S
C507 La497 2.928 . S
C507 C508 1.503 . S
C507 O522 1.261 . S
C507 O523 1.243 . S
C508 C507 1.503 . S
C508 C509 1.394 . S
C508 C513 1.373 . S
C509 C508 1.394 . S
C509 C510 1.380 . S
C509 H532 0.930 . S
C510 C509 1.380 . S
C510 C511 1.376 . S
C510 H533 0.930 . S
C511 C510 1.376 . S
C511 C512 1.370 . S
C512 C511 1.370 . S
C512 C513 1.396 . S
C512 H534 0.929 . S
C513 C508 1.373 . S
C513 C512 1.396 . S
C513 H535 0.929 . S
C514 O524 1.240 . S
C514 O525 1.289 . S
C515 O526 1.258 . S
C515 O527 1.256 . S
O516 La496 2.521 . S
O516 C498 1.261 . S
O517 La496 2.628 . S
O517 C498 1.243 . S
O518 La496 2.554 . S
O518 C505 1.240 . S
O519 La496 2.757 . S
O519 La497 2.482 1_545 S
O519 C505 1.289 . S
O520 La496 2.470 . S
O520 C506 1.258 . S
O521 La497 2.503 1_545 S
O521 C506 1.256 . S
O522 La497 2.521 . S
O522 C507 1.261 . S
O523 La497 2.628 . S
O523 C507 1.243 . S
O524 La497 2.554 1_545 S
O524 C514 1.240 . S
O525 La496 2.482 . S
O525 La497 2.757 1_545 S
O525 C514 1.289 . S
O526 La497 2.470 1_545 S
O526 C515 1.258 . S
O527 La496 2.503 . S
O527 C515 1.256 . S
H528 C500 0.930 . S
H529 C501 0.930 . S
H530 C503 0.929 . S
H531 C504 0.929 . S
H532 C509 0.930 . S
H533 C510 0.930 . S
H534 C512 0.929 . S
H535 C513 0.929 . S
La536 C538 2.928 . S
La536 O556 2.521 . S
La536 O557 2.628 . S
La536 O558 2.554 . S
La536 O559 2.757 . S
La536 O560 2.470 . S
La536 O565 2.482 . S
La536 O567 2.503 . S
La537 C547 2.928 . S
La537 O559 2.482 . S
La537 O561 2.503 . S
La537 O562 2.521 . S
La537 O563 2.628 . S
La537 O564 2.554 . S
La537 O565 2.757 . S
La537 O566 2.470 . S
C538 La536 2.928 . S
C538 C539 1.503 . S
C538 O556 1.261 . S
C538 O557 1.243 . S
C539 C538 1.503 . S
C539 C540 1.394 . S
C539 C544 1.373 . S
C540 C539 1.394 . S
C540 C541 1.380 . S
C540 H568 0.930 . S
C541 C540 1.380 . S
C541 C542 1.376 . S
C541 H569 0.930 . S
C542 C541 1.376 . S
C542 C543 1.370 . S
C543 C542 1.370 . S
C543 C544 1.396 . S
C543 H570 0.929 . S
C544 C539 1.373 . S
C544 C543 1.396 . S
C544 H571 0.929 . S
C545 O558 1.240 . S
C545 O559 1.289 . S
C546 O560 1.258 . S
C546 O561 1.256 . S
C547 La537 2.928 . S
C547 C548 1.503 . S
C547 O562 1.261 . S
C547 O563 1.243 . S
C548 C547 1.503 . S
C548 C549 1.394 . S
C548 C553 1.373 . S
C549 C548 1.394 . S
C549 C550 1.380 . S
C549 H572 0.930 . S
C550 C549 1.380 . S
C550 C551 1.376 . S
C550 H573 0.930 . S
C551 C550 1.376 . S
C551 C552 1.370 . S
C552 C551 1.370 . S
C552 C553 1.396 . S
C552 H574 0.929 . S
C553 C548 1.373 . S
C553 C552 1.396 . S
C553 H575 0.929 . S
C554 O564 1.240 . S
C554 O565 1.289 . S
C555 O566 1.258 . S
C555 O567 1.256 . S
O556 La536 2.521 . S
O556 C538 1.261 . S
O557 La536 2.628 . S
O557 C538 1.243 . S
O558 La536 2.554 . S
O558 C545 1.240 . S
O559 La536 2.757 . S
O559 La537 2.482 . S
O559 C545 1.289 . S
O560 La536 2.470 . S
O560 C546 1.258 . S
O561 La537 2.503 . S
O561 C546 1.256 . S
O562 La537 2.521 . S
O562 C547 1.261 . S
O563 La537 2.628 . S
O563 C547 1.243 . S
O564 La537 2.554 . S
O564 C554 1.240 . S
O565 La536 2.482 . S
O565 La537 2.757 . S
O565 C554 1.289 . S
O566 La537 2.470 . S
O566 C555 1.258 . S
O567 La536 2.503 . S
O567 C555 1.256 . S
H568 C540 0.930 . S
H569 C541 0.930 . S
H570 C543 0.929 . S
H571 C544 0.929 . S
H572 C549 0.930 . S
H573 C550 0.930 . S
H574 C552 0.929 . S
H575 C553 0.929 . S
La576 C578 2.928 . S
La576 O596 2.521 . S
La576 O597 2.628 . S
La576 O598 2.554 1_545 S
La576 O599 2.757 1_554 S
La576 O600 2.470 . S
La576 O605 2.482 . S
La576 O607 2.503 . S
La577 C587 2.928 . S
La577 O599 2.482 . S
La577 O601 2.503 . S
La577 O602 2.521 . S
La577 O603 2.628 . S
La577 O604 2.554 . S
La577 O605 2.757 1_556 S
La577 O606 2.470 . S
C578 La576 2.928 . S
C578 C579 1.503 . S
C578 O596 1.261 . S
C578 O597 1.243 . S
C579 C578 1.503 . S
C579 C580 1.394 1_545 S
C579 C584 1.373 . S
C580 C579 1.394 1_565 S
C580 C581 1.380 . S
C580 H608 0.930 . S
C581 C580 1.380 . S
C581 C582 1.376 . S
C581 H609 0.930 . S
C582 C581 1.376 . S
C582 C583 1.370 1_565 S
C583 C582 1.370 1_545 S
C583 C584 1.396 . S
C583 H610 0.929 . S
C584 C579 1.373 . S
C584 C583 1.396 . S
C584 H611 0.929 . S
C585 O598 1.240 1_556 S
C585 O599 1.289 1_565 S
C586 O600 1.258 . S
C586 O601 1.256 1_554 S
C587 La577 2.928 . S
C587 C588 1.503 . S
C587 O602 1.261 . S
C587 O603 1.243 . S
C588 C587 1.503 . S
C588 C589 1.394 . S
C588 C593 1.373 . S
C589 C588 1.394 . S
C589 C590 1.380 . S
C589 H612 0.930 . S
C590 C589 1.380 . S
C590 C591 1.376 . S
C590 H613 0.930 . S
C591 C590 1.376 . S
C591 C592 1.370 . S
C592 C591 1.370 . S
C592 C593 1.396 . S
C592 H614 0.929 . S
C593 C588 1.373 . S
C593 C592 1.396 . S
C593 H615 0.929 . S
C594 O604 1.240 1_554 S
C594 O605 1.289 . S
C595 O606 1.258 1_554 S
C595 O607 1.256 . S
O596 La576 2.521 . S
O596 C578 1.261 . S
O597 La576 2.628 . S
O597 C578 1.243 . S
O598 La576 2.554 1_565 S
O598 C585 1.240 1_554 S
O599 La576 2.757 1_556 S
O599 La577 2.482 . S
O599 C585 1.289 1_545 S
O600 La576 2.470 . S
O600 C586 1.258 . S
O601 La577 2.503 . S
O601 C586 1.256 1_556 S
O602 La577 2.521 . S
O602 C587 1.261 . S
O603 La577 2.628 . S
O603 C587 1.243 . S
O604 La577 2.554 . S
O604 C594 1.240 1_556 S
O605 La576 2.482 . S
O605 La577 2.757 1_554 S
O605 C594 1.289 . S
O606 La577 2.470 . S
O606 C595 1.258 1_556 S
O607 La576 2.503 . S
O607 C595 1.256 . S
H608 C580 0.930 . S
H609 C581 0.930 . S
H610 C583 0.929 . S
H611 C584 0.929 . S
H612 C589 0.930 . S
H613 C590 0.930 . S
H614 C592 0.929 . S
H615 C593 0.929 . S
La616 C618 2.928 . S
La616 O636 2.521 . S
La616 O637 2.628 . S
La616 O638 2.554 . S
La616 O639 2.757 . S
La616 O640 2.470 . S
La616 O645 2.482 . S
La616 O647 2.503 . S
La617 C627 2.928 . S
La617 O639 2.482 . S
La617 O641 2.503 . S
La617 O642 2.521 . S
La617 O643 2.628 . S
La617 O644 2.554 . S
La617 O645 2.757 . S
La617 O646 2.470 . S
C618 La616 2.928 . S
C618 C619 1.503 . S
C618 O636 1.261 . S
C618 O637 1.243 . S
C619 C618 1.503 . S
C619 C620 1.394 . S
C619 C624 1.373 . S
C620 C619 1.394 . S
C620 C621 1.380 . S
C620 H648 0.930 . S
C621 C620 1.380 . S
C621 C622 1.376 . S
C621 H649 0.930 . S
C622 C621 1.376 . S
C622 C623 1.370 . S
C623 C622 1.370 . S
C623 C624 1.396 . S
C623 H650 0.929 . S
C624 C619 1.373 . S
C624 C623 1.396 . S
C624 H651 0.929 . S
C625 O638 1.240 . S
C625 O639 1.289 . S
C626 O640 1.258 . S
C626 O641 1.256 . S
C627 La617 2.928 . S
C627 C628 1.503 . S
C627 O642 1.261 . S
C627 O643 1.243 . S
C628 C627 1.503 . S
C628 C629 1.394 . S
C628 C633 1.373 . S
C629 C628 1.394 . S
C629 C630 1.380 . S
C629 H652 0.930 . S
C630 C629 1.380 . S
C630 C631 1.376 . S
C630 H653 0.930 . S
C631 C630 1.376 . S
C631 C632 1.370 . S
C632 C631 1.370 . S
C632 C633 1.396 . S
C632 H654 0.929 . S
C633 C628 1.373 . S
C633 C632 1.396 . S
C633 H655 0.929 . S
C634 O644 1.240 . S
C634 O645 1.289 . S
C635 O646 1.258 . S
C635 O647 1.256 . S
O636 La616 2.521 . S
O636 C618 1.261 . S
O637 La616 2.628 . S
O637 C618 1.243 . S
O638 La616 2.554 . S
O638 C625 1.240 . S
O639 La616 2.757 . S
O639 La617 2.482 . S
O639 C625 1.289 . S
O640 La616 2.470 . S
O640 C626 1.258 . S
O641 La617 2.503 . S
O641 C626 1.256 . S
O642 La617 2.521 . S
O642 C627 1.261 . S
O643 La617 2.628 . S
O643 C627 1.243 . S
O644 La617 2.554 . S
O644 C634 1.240 . S
O645 La616 2.482 . S
O645 La617 2.757 . S
O645 C634 1.289 . S
O646 La617 2.470 . S
O646 C635 1.258 . S
O647 La616 2.503 . S
O647 C635 1.256 . S
H648 C620 0.930 . S
H649 C621 0.930 . S
H650 C623 0.929 . S
H651 C624 0.929 . S
H652 C629 0.930 . S
H653 C630 0.930 . S
H654 C632 0.929 . S
H655 C633 0.929 . S
La656 C658 2.928 1_554 S
La656 O676 2.521 . S
La656 O677 2.628 1_554 S
La656 O678 2.554 . S
La656 O679 2.757 . S
La656 O680 2.470 1_554 S
La656 O685 2.482 . S
La656 O687 2.503 . S
La657 C667 2.928 1_556 S
La657 O679 2.482 1_556 S
La657 O681 2.503 . S
La657 O682 2.521 1_556 S
La657 O683 2.628 1_556 S
La657 O684 2.554 . S
La657 O685 2.757 1_556 S
La657 O686 2.470 1_556 S
C658 La656 2.928 1_556 S
C658 C659 1.503 . S
C658 O676 1.261 1_556 S
C658 O677 1.243 . S
C659 C658 1.503 . S
C659 C660 1.394 . S
C659 C664 1.373 . S
C660 C659 1.394 . S
C660 C661 1.380 . S
C660 H688 0.930 1_556 S
C661 C660 1.380 . S
C661 C662 1.376 . S
C661 H689 0.930 . S
C662 C661 1.376 . S
C662 C663 1.370 . S
C663 C662 1.370 . S
C663 C664 1.396 . S
C663 H690 0.929 . S
C664 C659 1.373 . S
C664 C663 1.396 . S
C664 H691 0.929 . S
C665 O678 1.240 . S
C665 O679 1.289 . S
C666 O680 1.258 . S
C666 O681 1.256 . S
C667 La657 2.928 1_554 S
C667 C668 1.503 . S
C667 O682 1.261 . S
C667 O683 1.243 . S
C668 C667 1.503 . S
C668 C669 1.394 . S
C668 C673 1.373 . S
C669 C668 1.394 . S
C669 C670 1.380 . S
C669 H692 0.930 . S
C670 C669 1.380 . S
C670 C671 1.376 . S
C670 H693 0.930 . S
C671 C670 1.376 . S
C671 C672 1.370 . S
C672 C671 1.370 . S
C672 C673 1.396 . S
C672 H694 0.929 . S
C673 C668 1.373 . S
C673 C672 1.396 . S
C673 H695 0.929 . S
C674 O684 1.240 1_554 S
C674 O685 1.289 . S
C675 O686 1.258 . S
C675 O687 1.256 . S
O676 La656 2.521 . S
O676 C658 1.261 1_554 S
O677 La656 2.628 1_556 S
O677 C658 1.243 . S
O678 La656 2.554 . S
O678 C665 1.240 . S
O679 La656 2.757 . S
O679 La657 2.482 1_554 S
O679 C665 1.289 . S
O680 La656 2.470 1_556 S
O680 C666 1.258 . S
O681 La657 2.503 . S
O681 C666 1.256 . S
O682 La657 2.521 1_554 S
O682 C667 1.261 . S
O683 La657 2.628 1_554 S
O683 C667 1.243 . S
O684 La657 2.554 . S
O684 C674 1.240 1_556 S
O685 La656 2.482 . S
O685 La657 2.757 1_554 S
O685 C674 1.289 . S
O686 La657 2.470 1_554 S
O686 C675 1.258 . S
O687 La656 2.503 . S
O687 C675 1.256 . S
H688 C660 0.930 1_554 S
H689 C661 0.930 . S
H690 C663 0.929 . S
H691 C664 0.929 . S
H692 C669 0.930 . S
H693 C670 0.930 . S
H694 C672 0.929 . S
H695 C673 0.929 . S
La696 C698 2.928 . S
La696 O716 2.521 . S
La696 O717 2.628 . S
La696 O718 2.554 . S
La696 O719 2.757 . S
La696 O720 2.470 . S
La696 O725 2.482 . S
La696 O727 2.503 . S
La697 C707 2.928 . S
La697 O719 2.482 . S
La697 O721 2.503 . S
La697 O722 2.521 . S
La697 O723 2.628 . S
La697 O724 2.554 . S
La697 O725 2.757 . S
La697 O726 2.470 . S
C698 La696 2.928 . S
C698 C699 1.503 . S
C698 O716 1.261 . S
C698 O717 1.243 . S
C699 C698 1.503 . S
C699 C700 1.394 . S
C699 C704 1.373 . S
C700 C699 1.394 . S
C700 C701 1.380 . S
C700 H728 0.930 . S
C701 C700 1.380 . S
C701 C702 1.376 . S
C701 H729 0.930 . S
C702 C701 1.376 . S
C702 C703 1.370 . S
C703 C702 1.370 . S
C703 C704 1.396 . S
C703 H730 0.929 . S
C704 C699 1.373 . S
C704 C703 1.396 . S
C704 H731 0.929 . S
C705 O718 1.240 . S
C705 O719 1.289 . S
C706 O720 1.258 . S
C706 O721 1.256 . S
C707 La697 2.928 . S
C707 C708 1.503 . S
C707 O722 1.261 . S
C707 O723 1.243 . S
C708 C707 1.503 . S
C708 C709 1.394 . S
C708 C713 1.373 . S
C709 C708 1.394 . S
C709 C710 1.380 . S
C709 H732 0.930 . S
C710 C709 1.380 . S
C710 C711 1.376 . S
C710 H733 0.930 . S
C711 C710 1.376 . S
C711 C712 1.370 . S
C712 C711 1.370 . S
C712 C713 1.396 . S
C712 H734 0.929 . S
C713 C708 1.373 . S
C713 C712 1.396 . S
C713 H735 0.929 . S
C714 O724 1.240 . S
C714 O725 1.289 . S
C715 O726 1.258 . S
C715 O727 1.256 . S
O716 La696 2.521 . S
O716 C698 1.261 . S
O717 La696 2.628 . S
O717 C698 1.243 . S
O718 La696 2.554 . S
O718 C705 1.240 . S
O719 La696 2.757 . S
O719 La697 2.482 . S
O719 C705 1.289 . S
O720 La696 2.470 . S
O720 C706 1.258 . S
O721 La697 2.503 . S
O721 C706 1.256 . S
O722 La697 2.521 . S
O722 C707 1.261 . S
O723 La697 2.628 . S
O723 C707 1.243 . S
O724 La697 2.554 . S
O724 C714 1.240 . S
O725 La696 2.482 . S
O725 La697 2.757 . S
O725 C714 1.289 . S
O726 La697 2.470 . S
O726 C715 1.258 . S
O727 La696 2.503 . S
O727 C715 1.256 . S
H728 C700 0.930 . S
H729 C701 0.930 . S
H730 C703 0.929 . S
H731 C704 0.929 . S
H732 C709 0.930 . S
H733 C710 0.930 . S
H734 C712 0.929 . S
H735 C713 0.929 . S
La736 C738 2.928 . S
La736 O756 2.521 . S
La736 O757 2.628 . S
La736 O758 2.554 . S
La736 O759 2.757 . S
La736 O760 2.470 . S
La736 O765 2.482 . S
La736 O767 2.503 . S
La737 C747 2.928 . S
La737 O759 2.482 . S
La737 O761 2.503 . S
La737 O762 2.521 . S
La737 O763 2.628 . S
La737 O764 2.554 . S
La737 O765 2.757 . S
La737 O766 2.470 . S
C738 La736 2.928 . S
C738 C739 1.503 . S
C738 O756 1.261 . S
C738 O757 1.243 . S
C739 C738 1.503 . S
C739 C740 1.394 . S
C739 C744 1.373 1_455 S
C740 C739 1.394 . S
C740 C741 1.380 . S
C740 H768 0.930 . S
C741 C740 1.380 . S
C741 C742 1.376 1_455 S
C741 H769 0.930 . S
C742 C741 1.376 1_655 S
C742 C743 1.370 . S
C743 C742 1.370 . S
C743 C744 1.396 . S
C743 H770 0.929 . S
C744 C739 1.373 1_655 S
C744 C743 1.396 . S
C744 H771 0.929 . S
C745 O758 1.240 . S
C745 O759 1.289 . S
C746 O760 1.235 1_655 S
C746 O761 1.250 1_655 S
C747 La737 2.928 . S
C747 C748 1.503 . S
C747 O762 1.261 . S
C747 O763 1.243 . S
C748 C747 1.503 . S
C748 C749 1.394 . S
C748 C753 1.373 . S
C749 C748 1.394 . S
C749 C750 1.380 . S
C749 H772 0.930 . S
C750 C749 1.380 . S
C750 C751 1.376 . S
C750 H773 0.930 . S
C751 C750 1.376 . S
C751 C752 1.370 . S
C752 C751 1.370 . S
C752 C753 1.396 . S
C752 H774 0.929 . S
C753 C748 1.373 . S
C753 C752 1.396 . S
C753 H775 0.929 . S
C754 O764 1.240 . S
C754 O765 1.289 . S
C755 O766 1.258 . S
C755 O767 1.256 . S
O756 La736 2.521 . S
O756 C738 1.261 . S
O757 La736 2.628 . S
O757 C738 1.243 . S
O758 La736 2.554 . S
O758 C745 1.240 . S
O759 La736 2.757 . S
O759 La737 2.482 . S
O759 C745 1.289 . S
O760 La736 2.470 . S
O760 C746 1.235 1_455 S
O761 La737 2.503 . S
O761 C746 1.250 1_455 S
O762 La737 2.521 . S
O762 C747 1.261 . S
O763 La737 2.628 . S
O763 C747 1.243 . S
O764 La737 2.554 . S
O764 C754 1.240 . S
O765 La736 2.482 . S
O765 La737 2.757 . S
O765 C754 1.289 . S
O766 La737 2.470 . S
O766 C755 1.258 . S
O767 La736 2.503 . S
O767 C755 1.256 . S
H768 C740 0.930 . S
H769 C741 0.930 . S
H770 C743 0.929 . S
H771 C744 0.929 . S
H772 C749 0.930 . S
H773 C750 0.930 . S
H774 C752 0.929 . S
H775 C753 0.929 . S
La776 C778 2.928 . S
La776 O796 2.521 . S
La776 O797 2.628 . S
La776 O798 2.554 . S
La776 O799 2.757 . S
La776 O800 2.470 . S
La776 O805 2.482 . S
La776 O807 2.503 . S
La777 C787 2.928 . S
La777 O799 2.482 . S
La777 O801 2.503 . S
La777 O802 2.521 . S
La777 O803 2.628 . S
La777 O804 2.554 . S
La777 O805 2.757 . S
La777 O806 2.470 . S
C778 La776 2.928 . S
C778 C779 1.503 . S
C778 O796 1.261 . S
C778 O797 1.243 . S
C779 C778 1.503 . S
C779 C780 1.394 . S
C779 C784 1.373 . S
C780 C779 1.394 . S
C780 C781 1.380 . S
C780 H808 0.930 . S
C781 C780 1.380 . S
C781 C782 1.376 . S
C781 H809 0.930 . S
C782 C781 1.376 . S
C782 C783 1.370 . S
C783 C782 1.370 . S
C783 C784 1.396 . S
C783 H810 0.929 . S
C784 C779 1.373 . S
C784 C783 1.396 . S
C784 H811 0.929 . S
C785 O798 1.240 . S
C785 O799 1.289 . S
C786 O800 1.258 . S
C786 O801 1.256 . S
C787 La777 2.928 . S
C787 C788 1.503 . S
C787 O802 1.261 . S
C787 O803 1.243 . S
C788 C787 1.503 . S
C788 C789 1.394 . S
C788 C793 1.373 . S
C789 C788 1.394 . S
C789 C790 1.380 . S
C789 H812 0.930 . S
C790 C789 1.380 . S
C790 C791 1.376 . S
C790 H813 0.930 . S
C791 C790 1.376 . S
C791 C792 1.370 . S
C792 C791 1.370 . S
C792 C793 1.396 . S
C792 H814 0.929 . S
C793 C788 1.373 . S
C793 C792 1.396 . S
C793 H815 0.929 . S
C794 O804 1.240 . S
C794 O805 1.289 . S
C795 O806 1.258 . S
C795 O807 1.256 . S
O796 La776 2.521 . S
O796 C778 1.261 . S
O797 La776 2.628 . S
O797 C778 1.243 . S
O798 La776 2.554 . S
O798 C785 1.240 . S
O799 La776 2.757 . S
O799 La777 2.482 . S
O799 C785 1.289 . S
O800 La776 2.470 . S
O800 C786 1.258 . S
O801 La777 2.503 . S
O801 C786 1.256 . S
O802 La777 2.521 . S
O802 C787 1.261 . S
O803 La777 2.628 . S
O803 C787 1.243 . S
O804 La777 2.554 . S
O804 C794 1.240 . S
O805 La776 2.482 . S
O805 La777 2.757 . S
O805 C794 1.289 . S
O806 La777 2.470 . S
O806 C795 1.258 . S
O807 La776 2.503 . S
O807 C795 1.256 . S
H808 C780 0.930 . S
H809 C781 0.930 . S
H810 C783 0.929 . S
H811 C784 0.929 . S
H812 C789 0.930 . S
H813 C790 0.930 . S
H814 C792 0.929 . S
H815 C793 0.929 . S
La816 C818 2.928 . S
La816 O836 2.521 . S
La816 O837 2.628 . S
La816 O838 2.554 . S
La816 O839 2.757 . S
La816 O840 2.470 . S
La816 O845 2.482 . S
La816 O847 2.503 . S
La817 C827 2.928 . S
La817 O839 2.482 . S
La817 O841 2.503 . S
La817 O842 2.521 . S
La817 O843 2.628 . S
La817 O844 2.554 . S
La817 O845 2.757 . S
La817 O846 2.470 . S
C818 La816 2.928 . S
C818 C819 1.503 . S
C818 O836 1.261 . S
C818 O837 1.243 . S
C819 C818 1.503 . S
C819 C820 1.394 . S
C819 C824 1.373 . S
C820 C819 1.394 . S
C820 C821 1.380 . S
C820 H848 0.930 . S
C821 C820 1.380 . S
C821 C822 1.376 . S
C821 H849 0.930 . S
C822 C821 1.376 . S
C822 C823 1.370 . S
C823 C822 1.370 . S
C823 C824 1.396 . S
C823 H850 0.929 . S
C824 C819 1.373 . S
C824 C823 1.396 . S
C824 H851 0.929 . S
C825 O838 1.240 . S
C825 O839 1.289 . S
C826 O840 1.258 . S
C826 O841 1.256 . S
C827 La817 2.928 . S
C827 C828 1.503 . S
C827 O842 1.261 . S
C827 O843 1.243 . S
C828 C827 1.503 . S
C828 C829 1.394 . S
C828 C833 1.373 . S
C829 C828 1.394 . S
C829 C830 1.380 . S
C829 H852 0.930 . S
C830 C829 1.380 . S
C830 C831 1.376 . S
C830 H853 0.930 . S
C831 C830 1.376 . S
C831 C832 1.370 . S
C832 C831 1.370 . S
C832 C833 1.396 . S
C832 H854 0.929 . S
C833 C828 1.373 . S
C833 C832 1.396 . S
C833 H855 0.929 . S
C834 O844 1.240 . S
C834 O845 1.289 . S
C835 O846 1.258 . S
C835 O847 1.256 . S
O836 La816 2.521 . S
O836 C818 1.261 . S
O837 La816 2.628 . S
O837 C818 1.243 . S
O838 La816 2.554 . S
O838 C825 1.240 . S
O839 La816 2.757 . S
O839 La817 2.482 . S
O839 C825 1.289 . S
O840 La816 2.470 . S
O840 C826 1.258 . S
O841 La817 2.503 . S
O841 C826 1.256 . S
O842 La817 2.521 . S
O842 C827 1.261 . S
O843 La817 2.628 . S
O843 C827 1.243 . S
O844 La817 2.554 . S
O844 C834 1.240 . S
O845 La816 2.482 . S
O845 La817 2.757 . S
O845 C834 1.289 . S
O846 La817 2.470 . S
O846 C835 1.258 . S
O847 La816 2.503 . S
O847 C835 1.256 . S
H848 C820 0.930 . S
H849 C821 0.930 . S
H850 C823 0.929 . S
H851 C824 0.929 . S
H852 C829 0.930 . S
H853 C830 0.930 . S
H854 C832 0.929 . S
H855 C833 0.929 . S
La856 C858 2.928 . S
La856 O876 2.521 . S
La856 O877 2.628 . S
La856 O878 2.554 . S
La856 O879 2.757 . S
La856 O880 2.470 . S
La856 O885 2.482 . S
La856 O887 2.503 . S
La857 C867 2.928 . S
La857 O879 2.482 . S
La857 O881 2.503 . S
La857 O882 2.521 . S
La857 O883 2.628 . S
La857 O884 2.554 . S
La857 O885 2.757 . S
La857 O886 2.470 . S
C858 La856 2.928 . S
C858 C859 1.503 . S
C858 O876 1.261 . S
C858 O877 1.243 . S
C859 C858 1.503 . S
C859 C860 1.394 . S
C859 C864 1.373 . S
C860 C859 1.394 . S
C860 C861 1.380 . S
C860 H888 0.930 . S
C861 C860 1.380 . S
C861 C862 1.376 . S
C861 H889 0.930 . S
C862 C861 1.376 . S
C862 C863 1.370 . S
C863 C862 1.370 . S
C863 C864 1.396 . S
C863 H890 0.929 . S
C864 C859 1.373 . S
C864 C863 1.396 . S
C864 H891 0.929 . S
C865 O878 1.240 . S
C865 O879 1.289 . S
C866 O880 1.258 . S
C866 O881 1.256 . S
C867 La857 2.928 . S
C867 C868 1.503 . S
C867 O882 1.261 . S
C867 O883 1.243 . S
C868 C867 1.503 . S
C868 C869 1.394 . S
C868 C873 1.373 . S
C869 C868 1.394 . S
C869 C870 1.380 . S
C869 H892 0.930 . S
C870 C869 1.380 . S
C870 C871 1.376 . S
C870 H893 0.930 . S
C871 C870 1.376 . S
C871 C872 1.370 . S
C872 C871 1.370 . S
C872 C873 1.396 . S
C872 H894 0.929 . S
C873 C868 1.373 . S
C873 C872 1.396 . S
C873 H895 0.929 . S
C874 O884 1.240 . S
C874 O885 1.289 . S
C875 O886 1.258 . S
C875 O887 1.256 . S
O876 La856 2.521 . S
O876 C858 1.261 . S
O877 La856 2.628 . S
O877 C858 1.243 . S
O878 La856 2.554 . S
O878 C865 1.240 . S
O879 La856 2.757 . S
O879 La857 2.482 . S
O879 C865 1.289 . S
O880 La856 2.470 . S
O880 C866 1.258 . S
O881 La857 2.503 . S
O881 C866 1.256 . S
O882 La857 2.521 . S
O882 C867 1.261 . S
O883 La857 2.628 . S
O883 C867 1.243 . S
O884 La857 2.554 . S
O884 C874 1.240 . S
O885 La856 2.482 . S
O885 La857 2.757 . S
O885 C874 1.289 . S
O886 La857 2.470 . S
O886 C875 1.258 . S
O887 La856 2.503 . S
O887 C875 1.256 . S
H888 C860 0.930 . S
H889 C861 0.930 . S
H890 C863 0.929 . S
H891 C864 0.929 . S
H892 C869 0.930 . S
H893 C870 0.930 . S
H894 C872 0.929 . S
H895 C873 0.929 . S
La896 C898 2.928 . S
La896 O916 2.521 . S
La896 O917 2.628 . S
La896 O918 2.554 . S
La896 O919 2.757 . S
La896 O920 2.470 . S
La896 O925 2.482 . S
La896 O927 2.503 . S
La897 C907 2.928 . S
La897 O919 2.482 . S
La897 O921 2.503 . S
La897 O922 2.521 . S
La897 O923 2.628 . S
La897 O924 2.554 . S
La897 O925 2.757 . S
La897 O926 2.470 . S
C898 La896 2.928 . S
C898 C899 1.503 . S
C898 O916 1.261 . S
C898 O917 1.243 . S
C899 C898 1.503 . S
C899 C900 1.394 . S
C899 C904 1.373 . S
C900 C899 1.394 . S
C900 C901 1.380 . S
C900 H928 0.930 . S
C901 C900 1.380 . S
C901 C902 1.376 . S
C901 H929 0.930 . S
C902 C901 1.376 . S
C902 C903 1.370 . S
C903 C902 1.370 . S
C903 C904 1.396 . S
C903 H930 0.929 . S
C904 C899 1.373 . S
C904 C903 1.396 . S
C904 H931 0.929 . S
C905 O918 1.240 . S
C905 O919 1.289 . S
C906 O920 1.258 . S
C906 O921 1.256 . S
C907 La897 2.928 . S
C907 C908 1.503 . S
C907 O922 1.261 . S
C907 O923 1.243 . S
C908 C907 1.503 . S
C908 C909 1.394 . S
C908 C913 1.373 . S
C909 C908 1.394 . S
C909 C910 1.380 . S
C909 H932 0.930 . S
C910 C909 1.380 . S
C910 C911 1.376 . S
C910 H933 0.930 . S
C911 C910 1.376 . S
C911 C912 1.370 . S
C912 C911 1.370 . S
C912 C913 1.396 . S
C912 H934 0.929 . S
C913 C908 1.373 . S
C913 C912 1.396 . S
C913 H935 0.929 . S
C914 O924 1.240 . S
C914 O925 1.289 . S
C915 O926 1.258 . S
C915 O927 1.256 . S
O916 La896 2.521 . S
O916 C898 1.261 . S
O917 La896 2.628 . S
O917 C898 1.243 . S
O918 La896 2.554 . S
O918 C905 1.240 . S
O919 La896 2.757 . S
O919 La897 2.482 . S
O919 C905 1.289 . S
O920 La896 2.470 . S
O920 C906 1.258 . S
O921 La897 2.503 . S
O921 C906 1.256 . S
O922 La897 2.521 . S
O922 C907 1.261 . S
O923 La897 2.628 . S
O923 C907 1.243 . S
O924 La897 2.554 . S
O924 C914 1.240 . S
O925 La896 2.482 . S
O925 La897 2.757 . S
O925 C914 1.289 . S
O926 La897 2.470 . S
O926 C915 1.258 . S
O927 La896 2.503 . S
O927 C915 1.256 . S
H928 C900 0.930 . S
H929 C901 0.930 . S
H930 C903 0.929 . S
H931 C904 0.929 . S
H932 C909 0.930 . S
H933 C910 0.930 . S
H934 C912 0.929 . S
H935 C913 0.929 . S
La936 C938 2.928 1_554 S
La936 O956 2.521 1_554 S
La936 O957 2.628 . S
La936 O958 2.554 1_554 S
La936 O959 2.757 1_554 S
La936 O960 2.470 1_554 S
La936 O965 2.482 . S
La936 O967 2.503 . S
La937 C947 2.928 1_455 S
La937 O959 2.482 1_554 S
La937 O961 2.503 . S
La937 O962 2.521 1_455 S
La937 O963 2.628 1_455 S
La937 O964 2.554 . S
La937 O965 2.757 . S
La937 O966 2.470 . S
C938 La936 2.928 1_556 S
C938 C939 1.503 . S
C938 O956 1.261 . S
C938 O957 1.243 1_556 S
C939 C938 1.503 . S
C939 C940 1.394 . S
C939 C944 1.373 1_556 S
C940 C939 1.394 . S
C940 C941 1.380 . S
C940 H968 0.930 . S
C941 C940 1.380 . S
C941 C942 1.376 . S
C941 H969 0.930 . S
C942 C941 1.376 . S
C942 C943 1.370 1_556 S
C943 C942 1.370 1_554 S
C943 C944 1.396 . S
C943 H970 0.929 . S
C944 C939 1.373 1_554 S
C944 C943 1.396 . S
C944 H971 0.929 . S
C945 O958 1.240 . S
C945 O959 1.289 . S
C946 O960 1.258 1_554 S
C946 O961 1.256 . S
C947 La937 2.928 1_655 S
C947 C948 1.503 . S
C947 O962 1.261 . S
C947 O963 1.243 . S
C948 C947 1.503 . S
C948 C949 1.394 . S
C948 C953 1.373 . S
C949 C948 1.394 . S
C949 C950 1.380 . S
C949 H972 0.930 . S
C950 C949 1.380 . S
C950 C951 1.376 . S
C950 H973 0.930 . S
C951 C950 1.376 . S
C951 C952 1.370 . S
C952 C951 1.370 . S
C952 C953 1.396 . S
C952 H974 0.929 . S
C953 C948 1.373 . S
C953 C952 1.396 . S
C953 H975 0.929 . S
C954 O964 1.240 . S
C954 O965 1.289 . S
C955 O966 1.258 . S
C955 O967 1.256 . S
O956 La936 2.521 1_556 S
O956 C938 1.261 . S
O957 La936 2.628 . S
O957 C938 1.243 1_554 S
O958 La936 2.554 1_556 S
O958 C945 1.240 . S
O959 La936 2.757 1_556 S
O959 La937 2.482 1_556 S
O959 C945 1.289 . S
O960 La936 2.470 1_556 S
O960 C946 1.258 1_556 S
O961 La937 2.503 . S
O961 C946 1.256 . S
O962 La937 2.521 1_655 S
O962 C947 1.261 . S
O963 La937 2.628 1_655 S
O963 C947 1.243 . S
O964 La937 2.554 . S
O964 C954 1.240 . S
O965 La936 2.482 . S
O965 La937 2.757 . S
O965 C954 1.289 . S
O966 La937 2.470 . S
O966 C955 1.258 . S
O967 La936 2.503 . S
O967 C955 1.256 . S
H968 C940 0.930 . S
H969 C941 0.930 . S
H970 C943 0.929 . S
H971 C944 0.929 . S
H972 C949 0.930 . S
H973 C950 0.930 . S
H974 C952 0.929 . S
H975 C953 0.929 . S
C976 C977 1.391 . S
C976 C978 1.394 . S
C976 H992 0.931 1_455 S
C977 C976 1.391 . S
C977 C981 1.376 . S
C978 C976 1.394 . S
C978 C979 1.369 . S
C978 C982 1.531 1_455 S
C979 C978 1.369 . S
C979 C980 1.410 . S
C979 C987 1.503 . S
C980 C979 1.410 . S
C980 C981 1.392 . S
C980 C983 1.511 . S
C981 C977 1.376 . S
C981 C980 1.392 . S
C981 H993 0.929 . S
C982 C978 1.531 1_655 S
C982 H994 0.960 . S
C982 H995 0.962 . S
C982 H996 0.960 . S
C983 C980 1.511 . S
C983 H997 0.961 . S
C983 H998 0.961 . S
C983 H999 0.961 . S
C984 C985 1.370 1_554 S
C984 C986 1.363 . S
C984 H1000 0.931 . S
C985 C984 1.370 1_556 S
C985 C989 1.408 . S
C986 C984 1.363 . S
C986 C987 1.370 1_554 S
C986 C990 1.524 . S
C987 C979 1.503 . S
C987 C986 1.370 1_556 S
C987 C988 1.403 . S
C988 C987 1.403 . S
C988 C989 1.404 . S
C988 C991 1.539 . S
C989 C985 1.408 . S
C989 C988 1.404 . S
C989 H1001 0.930 . S
C990 C986 1.524 . S
C990 H1002 0.956 . S
C990 H1003 0.961 . S
C990 H1004 0.961 . S
C991 C988 1.539 . S
C991 H1005 0.958 . S
C991 H1006 0.961 . S
C991 H1007 0.960 . S
H992 C976 0.931 1_655 S
H993 C981 0.929 . S
H994 C982 0.960 . S
H995 C982 0.962 . S
H996 C982 0.960 . S
H997 C983 0.961 . S
H998 C983 0.961 . S
H999 C983 0.961 . S
H1000 C984 0.931 . S
H1001 C989 0.930 . S
H1002 C990 0.956 . S
H1003 C990 0.961 . S
H1004 C990 0.961 . S
H1005 C991 0.958 . S
H1006 C991 0.961 . S
H1007 C991 0.960 . S
C1008 C1009 1.391 . S
C1008 C1010 1.394 . S
C1008 H1024 0.931 . S
C1009 C1008 1.391 . S
C1009 C1013 1.376 . S
C1010 C1008 1.394 . S
C1010 C1011 1.369 . S
C1010 C1014 1.531 . S
C1011 C1010 1.369 . S
C1011 C1012 1.410 . S
C1011 C1019 1.503 . S
C1012 C1011 1.410 . S
C1012 C1013 1.392 . S
C1012 C1015 1.511 . S
C1013 C1009 1.376 . S
C1013 C1012 1.392 . S
C1013 H1025 0.929 . S
C1014 C1010 1.531 . S
C1014 H1026 0.960 . S
C1014 H1027 0.962 . S
C1014 H1028 0.960 . S
C1015 C1012 1.511 . S
C1015 H1029 0.961 . S
C1015 H1030 0.961 . S
C1015 H1031 0.961 . S
C1016 C1017 1.370 . S
C1016 C1018 1.363 . S
C1016 H1032 0.931 . S
C1017 C1016 1.370 . S
C1017 C1021 1.408 . S
C1018 C1016 1.363 . S
C1018 C1019 1.370 . S
C1018 C1022 1.524 . S
C1019 C1011 1.503 . S
C1019 C1018 1.370 . S
C1019 C1020 1.403 . S
C1020 C1019 1.403 . S
C1020 C1021 1.404 . S
C1020 C1023 1.539 . S
C1021 C1017 1.408 . S
C1021 C1020 1.404 . S
C1021 H1033 0.930 . S
C1022 C1018 1.524 . S
C1022 H1034 0.956 . S
C1022 H1035 0.961 . S
C1022 H1036 0.961 . S
C1023 C1020 1.539 . S
C1023 H1037 0.958 . S
C1023 H1038 0.961 . S
C1023 H1039 0.960 . S
H1024 C1008 0.931 . S
H1025 C1013 0.929 . S
H1026 C1014 0.960 . S
H1027 C1014 0.962 . S
H1028 C1014 0.960 . S
H1029 C1015 0.961 . S
H1030 C1015 0.961 . S
H1031 C1015 0.961 . S
H1032 C1016 0.931 . S
H1033 C1021 0.930 . S
H1034 C1022 0.956 . S
H1035 C1022 0.961 . S
H1036 C1022 0.961 . S
H1037 C1023 0.958 . S
H1038 C1023 0.961 . S
H1039 C1023 0.960 . S
C1040 C1041 1.391 . S
C1040 C1042 1.394 . S
C1040 H1056 0.931 . S
C1041 C1040 1.391 . S
C1041 C1045 1.376 . S
C1042 C1040 1.394 . S
C1042 C1043 1.369 . S
C1042 C1046 1.531 . S
C1043 C1042 1.369 . S
C1043 C1044 1.410 . S
C1043 C1051 1.503 . S
C1044 C1043 1.410 . S
C1044 C1045 1.392 . S
C1044 C1047 1.511 . S
C1045 C1041 1.376 . S
C1045 C1044 1.392 . S
C1045 H1057 0.929 . S
C1046 C1042 1.531 . S
C1046 H1058 0.960 . S
C1046 H1059 0.962 . S
C1046 H1060 0.960 . S
C1047 C1044 1.511 . S
C1047 H1061 0.961 . S
C1047 H1062 0.961 . S
C1047 H1063 0.961 . S
C1048 C1049 1.370 . S
C1048 C1050 1.363 . S
C1048 H1064 0.931 . S
C1049 C1048 1.370 . S
C1049 C1053 1.408 . S
C1050 C1048 1.363 . S
C1050 C1051 1.370 . S
C1050 C1054 1.524 . S
C1051 C1043 1.503 . S
C1051 C1050 1.370 . S
C1051 C1052 1.403 . S
C1052 C1051 1.403 . S
C1052 C1053 1.404 . S
C1052 C1055 1.539 . S
C1053 C1049 1.408 . S
C1053 C1052 1.404 . S
C1053 H1065 0.930 . S
C1054 C1050 1.524 . S
C1054 H1066 0.956 . S
C1054 H1067 0.961 . S
C1054 H1068 0.961 . S
C1055 C1052 1.539 . S
C1055 H1069 0.958 . S
C1055 H1070 0.961 . S
C1055 H1071 0.960 . S
H1056 C1040 0.931 . S
H1057 C1045 0.929 . S
H1058 C1046 0.960 . S
H1059 C1046 0.962 . S
H1060 C1046 0.960 . S
H1061 C1047 0.961 . S
H1062 C1047 0.961 . S
H1063 C1047 0.961 . S
H1064 C1048 0.931 . S
H1065 C1053 0.930 . S
H1066 C1054 0.956 . S
H1067 C1054 0.961 . S
H1068 C1054 0.961 . S
H1069 C1055 0.958 . S
H1070 C1055 0.961 . S
H1071 C1055 0.960 . S
C1072 C1073 1.391 . S
C1072 C1074 1.394 . S
C1072 H1088 0.931 . S
C1073 C1072 1.391 . S
C1073 C1077 1.376 . S
C1074 C1072 1.394 . S
C1074 C1075 1.369 . S
C1074 C1078 1.531 . S
C1075 C1074 1.369 . S
C1075 C1076 1.410 . S
C1075 C1083 1.503 . S
C1076 C1075 1.410 . S
C1076 C1077 1.392 . S
C1076 C1079 1.511 . S
C1077 C1073 1.376 . S
C1077 C1076 1.392 . S
C1077 H1089 0.929 . S
C1078 C1074 1.531 . S
C1078 H1090 0.960 . S
C1078 H1091 0.962 . S
C1078 H1092 0.960 . S
C1079 C1076 1.511 . S
C1079 H1093 0.961 . S
C1079 H1094 0.961 . S
C1079 H1095 0.961 . S
C1080 C1081 1.370 . S
C1080 C1082 1.363 . S
C1080 H1096 0.931 . S
C1081 C1080 1.370 . S
C1081 C1085 1.408 . S
C1082 C1080 1.363 . S
C1082 C1083 1.370 . S
C1082 C1086 1.524 . S
C1083 C1075 1.503 . S
C1083 C1082 1.370 . S
C1083 C1084 1.403 . S
C1084 C1083 1.403 . S
C1084 C1085 1.404 . S
C1084 C1087 1.539 . S
C1085 C1081 1.408 . S
C1085 C1084 1.404 . S
C1085 H1097 0.930 . S
C1086 C1082 1.524 . S
C1086 H1098 0.956 . S
C1086 H1099 0.961 . S
C1086 H1100 0.961 . S
C1087 C1084 1.539 . S
C1087 H1101 0.958 . S
C1087 H1102 0.961 . S
C1087 H1103 0.960 . S
H1088 C1072 0.931 . S
H1089 C1077 0.929 . S
H1090 C1078 0.960 . S
H1091 C1078 0.962 . S
H1092 C1078 0.960 . S
H1093 C1079 0.961 . S
H1094 C1079 0.961 . S
H1095 C1079 0.961 . S
H1096 C1080 0.931 . S
H1097 C1085 0.930 . S
H1098 C1086 0.956 . S
H1099 C1086 0.961 . S
H1100 C1086 0.961 . S
H1101 C1087 0.958 . S
H1102 C1087 0.961 . S
H1103 C1087 0.960 . S
C1104 C1105 1.391 . S
C1104 C1106 1.394 . S
C1104 H1120 0.931 . S
C1105 C1104 1.391 . S
C1105 C1109 1.397 . S
C1106 C1104 1.394 . S
C1106 C1107 1.369 . S
C1106 C1110 1.531 . S
C1107 C1106 1.369 . S
C1107 C1108 1.410 . S
C1107 C1115 1.503 . S
C1108 C1107 1.410 . S
C1108 C1109 1.403 . S
C1108 C1111 1.511 . S
C1109 C1105 1.397 . S
C1109 C1108 1.403 . S
C1109 H1121 0.898 1_455 S
C1110 C1106 1.531 . S
C1110 H1122 0.960 . S
C1110 H1123 0.962 . S
C1110 H1124 0.960 . S
C1111 C1108 1.511 . S
C1111 H1125 0.961 1_455 S
C1111 H1126 0.961 . S
C1111 H1127 0.961 1_455 S
C1112 C1113 1.370 . S
C1112 C1114 1.363 . S
C1112 H1128 0.931 . S
C1113 C1112 1.370 . S
C1113 C1117 1.408 . S
C1114 C1112 1.363 . S
C1114 C1115 1.370 . S
C1114 C1118 1.524 . S
C1115 C1107 1.503 . S
C1115 C1114 1.370 . S
C1115 C1116 1.403 . S
C1116 C1115 1.403 . S
C1116 C1117 1.404 . S
C1116 C1119 1.539 . S
C1117 C1113 1.408 . S
C1117 C1116 1.404 . S
C1117 H1129 0.930 . S
C1118 C1114 1.524 . S
C1118 H1130 0.956 . S
C1118 H1131 0.961 . S
C1118 H1132 0.961 . S
C1119 C1116 1.539 . S
C1119 H1133 0.958 . S
C1119 H1134 0.961 . S
C1119 H1135 0.960 . S
H1120 C1104 0.931 . S
H1121 C1109 0.898 1_655 S
H1122 C1110 0.960 . S
H1123 C1110 0.962 . S
H1124 C1110 0.960 . S
H1125 C1111 0.961 1_655 S
H1126 C1111 0.961 . S
H1127 C1111 0.961 1_655 S
H1128 C1112 0.931 . S
H1129 C1117 0.930 . S
H1130 C1118 0.956 . S
H1131 C1118 0.961 . S
H1132 C1118 0.961 . S
H1133 C1119 0.958 . S
H1134 C1119 0.961 . S
H1135 C1119 0.960 . S
C1136 C1137 1.391 . S
C1136 C1138 1.394 . S
C1136 H1152 0.931 . S
C1137 C1136 1.391 . S
C1137 C1141 1.376 . S
C1138 C1136 1.394 . S
C1138 C1139 1.369 . S
C1138 C1142 1.531 . S
C1139 C1138 1.369 . S
C1139 C1140 1.410 . S
C1139 C1147 1.503 . S
C1140 C1139 1.410 . S
C1140 C1141 1.392 . S
C1140 C1143 1.511 . S
C1141 C1137 1.376 . S
C1141 C1140 1.392 . S
C1141 H1153 0.929 . S
C1142 C1138 1.531 . S
C1142 H1154 0.960 . S
C1142 H1155 0.962 . S
C1142 H1156 0.960 . S
C1143 C1140 1.511 . S
C1143 H1157 0.961 . S
C1143 H1158 0.961 . S
C1143 H1159 0.961 . S
C1144 C1145 1.370 . S
C1144 C1146 1.363 . S
C1144 H1160 0.931 . S
C1145 C1144 1.370 . S
C1145 C1149 1.408 . S
C1146 C1144 1.363 . S
C1146 C1147 1.370 . S
C1146 C1150 1.524 . S
C1147 C1139 1.503 . S
C1147 C1146 1.370 . S
C1147 C1148 1.403 . S
C1148 C1147 1.403 . S
C1148 C1149 1.404 . S
C1148 C1151 1.539 . S
C1149 C1145 1.408 . S
C1149 C1148 1.404 . S
C1149 H1161 0.930 . S
C1150 C1146 1.524 . S
C1150 H1162 0.956 . S
C1150 H1163 0.961 . S
C1150 H1164 0.961 . S
C1151 C1148 1.539 . S
C1151 H1165 0.958 . S
C1151 H1166 0.961 . S
C1151 H1167 0.960 . S
H1152 C1136 0.931 . S
H1153 C1141 0.929 . S
H1154 C1142 0.960 . S
H1155 C1142 0.962 . S
H1156 C1142 0.960 . S
H1157 C1143 0.961 . S
H1158 C1143 0.961 . S
H1159 C1143 0.961 . S
H1160 C1144 0.931 . S
H1161 C1149 0.930 . S
H1162 C1150 0.956 . S
H1163 C1150 0.961 . S
H1164 C1150 0.961 . S
H1165 C1151 0.958 . S
H1166 C1151 0.961 . S
H1167 C1151 0.960 . S
C1168 C1169 1.391 . S
C1168 C1170 1.394 . S
C1168 H1184 0.931 . S
C1169 C1168 1.391 . S
C1169 C1173 1.376 . S
C1170 C1168 1.394 . S
C1170 C1171 1.369 . S
C1170 C1174 1.531 . S
C1171 C1170 1.369 . S
C1171 C1172 1.410 . S
C1171 C1179 1.503 . S
C1172 C1171 1.410 . S
C1172 C1173 1.392 . S
C1172 C1175 1.511 . S
C1173 C1169 1.376 . S
C1173 C1172 1.392 . S
C1173 H1185 0.929 . S
C1174 C1170 1.531 . S
C1174 H1186 0.960 . S
C1174 H1187 0.962 . S
C1174 H1188 0.960 . S
C1175 C1172 1.511 . S
C1175 H1189 0.961 . S
C1175 H1190 0.961 . S
C1175 H1191 0.961 . S
C1176 C1177 1.370 . S
C1176 C1178 1.363 . S
C1176 H1192 0.931 . S
C1177 C1176 1.370 . S
C1177 C1181 1.408 . S
C1178 C1176 1.363 . S
C1178 C1179 1.370 . S
C1178 C1182 1.524 . S
C1179 C1171 1.503 . S
C1179 C1178 1.370 . S
C1179 C1180 1.403 . S
C1180 C1179 1.403 . S
C1180 C1181 1.404 . S
C1180 C1183 1.539 . S
C1181 C1177 1.408 . S
C1181 C1180 1.404 . S
C1181 H1193 0.930 . S
C1182 C1178 1.524 . S
C1182 H1194 0.956 . S
C1182 H1195 0.961 . S
C1182 H1196 0.961 . S
C1183 C1180 1.539 . S
C1183 H1197 0.958 . S
C1183 H1198 0.961 . S
C1183 H1199 0.960 . S
H1184 C1168 0.931 . S
H1185 C1173 0.929 . S
H1186 C1174 0.960 . S
H1187 C1174 0.962 . S
H1188 C1174 0.960 . S
H1189 C1175 0.961 . S
H1190 C1175 0.961 . S
H1191 C1175 0.961 . S
H1192 C1176 0.931 . S
H1193 C1181 0.930 . S
H1194 C1182 0.956 . S
H1195 C1182 0.961 . S
H1196 C1182 0.961 . S
H1197 C1183 0.958 . S
H1198 C1183 0.961 . S
H1199 C1183 0.960 . S
C1200 C1201 1.391 . S
C1200 C1202 1.394 . S
C1200 H1216 0.931 . S
C1201 C1200 1.391 . S
C1201 C1205 1.376 . S
C1202 C1200 1.394 . S
C1202 C1203 1.369 . S
C1202 C1206 1.531 . S
C1203 C1202 1.369 . S
C1203 C1204 1.410 . S
C1203 C1211 1.503 . S
C1204 C1203 1.410 . S
C1204 C1205 1.392 . S
C1204 C1207 1.511 . S
C1205 C1201 1.376 . S
C1205 C1204 1.392 . S
C1205 H1217 0.929 . S
C1206 C1202 1.531 . S
C1206 H1218 0.960 . S
C1206 H1219 0.962 . S
C1206 H1220 0.960 . S
C1207 C1204 1.511 . S
C1207 H1221 0.961 . S
C1207 H1222 0.961 . S
C1207 H1223 0.961 . S
C1208 C1209 1.370 . S
C1208 C1210 1.363 . S
C1208 H1224 0.931 . S
C1209 C1208 1.370 . S
C1209 C1213 1.408 . S
C1210 C1208 1.363 . S
C1210 C1211 1.370 . S
C1210 C1214 1.524 . S
C1211 C1203 1.503 . S
C1211 C1210 1.370 . S
C1211 C1212 1.403 . S
C1212 C1211 1.403 . S
C1212 C1213 1.404 . S
C1212 C1215 1.539 . S
C1213 C1209 1.408 . S
C1213 C1212 1.404 . S
C1213 H1225 0.930 . S
C1214 C1210 1.524 . S
C1214 H1226 0.956 . S
C1214 H1227 0.961 . S
C1214 H1228 0.961 . S
C1215 C1212 1.539 . S
C1215 H1229 0.958 . S
C1215 H1230 0.961 . S
C1215 H1231 0.960 . S
H1216 C1200 0.931 . S
H1217 C1205 0.929 . S
H1218 C1206 0.960 . S
H1219 C1206 0.962 . S
H1220 C1206 0.960 . S
H1221 C1207 0.961 . S
H1222 C1207 0.961 . S
H1223 C1207 0.961 . S
H1224 C1208 0.931 . S
H1225 C1213 0.930 . S
H1226 C1214 0.956 . S
H1227 C1214 0.961 . S
H1228 C1214 0.961 . S
H1229 C1215 0.958 . S
H1230 C1215 0.961 . S
H1231 C1215 0.960 . S
C1232 C1233 1.391 . S
C1232 C1234 1.394 . S
C1232 H1248 0.931 . S
C1233 C1232 1.391 . S
C1233 C1237 1.376 1_655 S
C1234 C1232 1.394 . S
C1234 C1235 1.369 1_655 S
C1234 C1238 1.531 . S
C1235 C1234 1.369 1_455 S
C1235 C1236 1.410 . S
C1235 C1243 1.503 . S
C1236 C1235 1.410 . S
C1236 C1237 1.392 . S
C1236 C1239 1.511 . S
C1237 C1233 1.376 1_455 S
C1237 C1236 1.392 . S
C1237 H1249 0.929 . S
C1238 C1234 1.531 . S
C1238 H1250 0.960 . S
C1238 H1251 0.962 . S
C1238 H1252 0.960 . S
C1239 C1236 1.511 . S
C1239 H1253 0.961 . S
C1239 H1254 0.961 . S
C1239 H1255 0.961 . S
C1240 C1241 1.370 . S
C1240 C1242 1.363 . S
C1240 H1256 0.931 . S
C1241 C1240 1.370 . S
C1241 C1245 1.408 . S
C1242 C1240 1.363 . S
C1242 C1243 1.370 . S
C1242 C1246 1.524 . S
C1243 C1235 1.503 . S
C1243 C1242 1.370 . S
C1243 C1244 1.403 . S
C1244 C1243 1.403 . S
C1244 C1245 1.404 . S
C1244 C1247 1.539 . S
C1245 C1241 1.408 . S
C1245 C1244 1.404 . S
C1245 H1257 0.930 . S
C1246 C1242 1.524 . S
C1246 H1258 0.956 1_455 S
C1246 H1259 0.961 . S
C1246 H1260 0.961 . S
C1247 C1244 1.539 . S
C1247 H1261 0.958 1_455 S
C1247 H1262 0.961 . S
C1247 H1263 0.960 . S
H1248 C1232 0.931 . S
H1249 C1237 0.929 . S
H1250 C1238 0.960 . S
H1251 C1238 0.962 . S
H1252 C1238 0.960 . S
H1253 C1239 0.961 . S
H1254 C1239 0.961 . S
H1255 C1239 0.961 . S
H1256 C1240 0.931 . S
H1257 C1245 0.930 . S
H1258 C1246 0.956 1_655 S
H1259 C1246 0.961 . S
H1260 C1246 0.961 . S
H1261 C1247 0.958 1_655 S
H1262 C1247 0.961 . S
H1263 C1247 0.960 . S
C1264 C1265 1.391 . S
C1264 C1266 1.394 . S
C1264 H1280 0.931 . S
C1265 C1264 1.391 . S
C1265 C1269 1.376 . S
C1266 C1264 1.394 . S
C1266 C1267 1.369 . S
C1266 C1270 1.531 . S
C1267 C1266 1.369 . S
C1267 C1268 1.410 . S
C1267 C1275 1.503 . S
C1268 C1267 1.410 . S
C1268 C1269 1.392 . S
C1268 C1271 1.511 . S
C1269 C1265 1.376 . S
C1269 C1268 1.392 . S
C1269 H1281 0.929 . S
C1270 C1266 1.531 . S
C1270 H1282 0.960 . S
C1270 H1283 0.962 . S
C1270 H1284 0.960 . S
C1271 C1268 1.511 . S
C1271 H1285 0.961 . S
C1271 H1286 0.961 . S
C1271 H1287 0.961 . S
C1272 C1273 1.370 . S
C1272 C1274 1.363 . S
C1272 H1288 0.931 . S
C1273 C1272 1.370 . S
C1273 C1277 1.408 . S
C1274 C1272 1.363 . S
C1274 C1275 1.370 . S
C1274 C1278 1.524 . S
C1275 C1267 1.503 . S
C1275 C1274 1.370 . S
C1275 C1276 1.403 . S
C1276 C1275 1.403 . S
C1276 C1277 1.404 . S
C1276 C1279 1.539 . S
C1277 C1273 1.408 . S
C1277 C1276 1.404 . S
C1277 H1289 0.930 . S
C1278 C1274 1.524 . S
C1278 H1290 0.956 . S
C1278 H1291 0.961 . S
C1278 H1292 0.961 . S
C1279 C1276 1.539 . S
C1279 H1293 0.958 . S
C1279 H1294 0.961 . S
C1279 H1295 0.960 . S
H1280 C1264 0.931 . S
H1281 C1269 0.929 . S
H1282 C1270 0.960 . S
H1283 C1270 0.962 . S
H1284 C1270 0.960 . S
H1285 C1271 0.961 . S
H1286 C1271 0.961 . S
H1287 C1271 0.961 . S
H1288 C1272 0.931 . S
H1289 C1277 0.930 . S
H1290 C1278 0.956 . S
H1291 C1278 0.961 . S
H1292 C1278 0.961 . S
H1293 C1279 0.958 . S
H1294 C1279 0.961 . S
H1295 C1279 0.960 . S
C1296 C1297 1.391 . S
C1296 C1298 1.394 . S
C1296 H1312 0.931 . S
C1297 C1296 1.391 . S
C1297 C1301 1.376 . S
C1298 C1296 1.394 . S
C1298 C1299 1.369 . S
C1298 C1302 1.531 . S
C1299 C1298 1.369 . S
C1299 C1300 1.410 . S
C1299 C1307 1.503 . S
C1300 C1299 1.410 . S
C1300 C1301 1.392 . S
C1300 C1303 1.511 . S
C1301 C1297 1.376 . S
C1301 C1300 1.392 . S
C1301 H1313 0.929 . S
C1302 C1298 1.531 . S
C1302 H1314 0.960 . S
C1302 H1315 0.962 . S
C1302 H1316 0.960 . S
C1303 C1300 1.511 . S
C1303 H1317 0.961 . S
C1303 H1318 0.961 . S
C1303 H1319 0.961 . S
C1304 C1305 1.370 . S
C1304 C1306 1.363 . S
C1304 H1320 0.931 . S
C1305 C1304 1.370 . S
C1305 C1309 1.408 . S
C1306 C1304 1.363 . S
C1306 C1307 1.370 . S
C1306 C1310 1.524 . S
C1307 C1299 1.503 . S
C1307 C1306 1.370 . S
C1307 C1308 1.403 . S
C1308 C1307 1.403 . S
C1308 C1309 1.404 . S
C1308 C1311 1.539 1_545 S
C1309 C1305 1.408 . S
C1309 C1308 1.404 . S
C1309 H1321 0.930 1_545 S
C1310 C1306 1.524 . S
C1310 H1322 0.956 . S
C1310 H1323 0.961 . S
C1310 H1324 0.961 . S
C1311 C1308 1.539 1_565 S
C1311 H1325 0.958 . S
C1311 H1326 0.961 . S
C1311 H1327 0.960 1_565 S
H1312 C1296 0.931 . S
H1313 C1301 0.929 . S
H1314 C1302 0.960 . S
H1315 C1302 0.962 . S
H1316 C1302 0.960 . S
H1317 C1303 0.961 . S
H1318 C1303 0.961 . S
H1319 C1303 0.961 . S
H1320 C1304 0.931 . S
H1321 C1309 0.930 1_565 S
H1322 C1310 0.956 . S
H1323 C1310 0.961 . S
H1324 C1310 0.961 . S
H1325 C1311 0.958 . S
H1326 C1311 0.961 . S
H1327 C1311 0.960 1_545 S
C1328 C1329 1.391 . S
C1328 C1330 1.394 . S
C1328 H1344 0.931 . S
C1329 C1328 1.391 . S
C1329 C1333 1.376 . S
C1330 C1328 1.394 . S
C1330 C1331 1.369 . S
C1330 C1334 1.531 . S
C1331 C1330 1.369 . S
C1331 C1332 1.410 . S
C1331 C1339 1.503 . S
C1332 C1331 1.410 . S
C1332 C1333 1.392 . S
C1332 C1335 1.511 . S
C1333 C1329 1.376 . S
C1333 C1332 1.392 . S
C1333 H1345 0.929 . S
C1334 C1330 1.531 . S
C1334 H1346 0.960 . S
C1334 H1347 0.962 . S
C1334 H1348 0.960 . S
C1335 C1332 1.511 . S
C1335 H1349 0.961 . S
C1335 H1350 0.961 . S
C1335 H1351 0.961 . S
C1336 C1337 1.370 . S
C1336 C1338 1.363 . S
C1336 H1352 0.931 . S
C1337 C1336 1.370 . S
C1337 C1341 1.408 . S
C1338 C1336 1.363 . S
C1338 C1339 1.370 . S
C1338 C1342 1.524 . S
C1339 C1331 1.503 . S
C1339 C1338 1.370 . S
C1339 C1340 1.403 . S
C1340 C1339 1.403 . S
C1340 C1341 1.404 . S
C1340 C1343 1.539 . S
C1341 C1337 1.408 . S
C1341 C1340 1.404 . S
C1341 H1353 0.930 . S
C1342 C1338 1.524 . S
C1342 H1354 0.956 . S
C1342 H1355 0.961 . S
C1342 H1356 0.961 . S
C1343 C1340 1.539 . S
C1343 H1357 0.958 . S
C1343 H1358 0.961 . S
C1343 H1359 0.960 . S
H1344 C1328 0.931 . S
H1345 C1333 0.929 . S
H1346 C1334 0.960 . S
H1347 C1334 0.962 . S
H1348 C1334 0.960 . S
H1349 C1335 0.961 . S
H1350 C1335 0.961 . S
H1351 C1335 0.961 . S
H1352 C1336 0.931 . S
H1353 C1341 0.930 . S
H1354 C1342 0.956 . S
H1355 C1342 0.961 . S
H1356 C1342 0.961 . S
H1357 C1343 0.958 . S
H1358 C1343 0.961 . S
H1359 C1343 0.960 . S
C1360 C1361 1.391 . S
C1360 C1362 1.394 . S
C1360 H1376 0.931 . S
C1361 C1360 1.391 . S
C1361 C1365 1.376 1_655 S
C1362 C1360 1.394 . S
C1362 C1363 1.392 . S
C1362 C1366 1.531 . S
C1363 C1362 1.392 . S
C1363 C1364 1.396 1_655 S
C1363 C1371 1.494 1_655 S
C1364 C1363 1.396 1_455 S
C1364 C1365 1.392 . S
C1364 C1367 1.511 . S
C1365 C1361 1.376 1_455 S
C1365 C1364 1.392 . S
C1365 H1377 0.929 . S
C1366 C1362 1.531 . S
C1366 H1378 0.960 . S
C1366 H1379 0.962 . S
C1366 H1380 0.960 . S
C1367 C1364 1.511 . S
C1367 H1381 0.961 . S
C1367 H1382 0.961 . S
C1367 H1383 0.961 . S
C1368 C1369 1.370 . S
C1368 C1370 1.363 . S
C1368 H1384 0.931 . S
C1369 C1368 1.370 . S
C1369 C1373 1.408 . S
C1370 C1368 1.363 . S
C1370 C1371 1.370 . S
C1370 C1374 1.524 . S
C1371 C1363 1.494 1_455 S
C1371 C1370 1.370 . S
C1371 C1372 1.403 . S
C1372 C1371 1.403 . S
C1372 C1373 1.404 . S
C1372 C1375 1.539 . S
C1373 C1369 1.408 . S
C1373 C1372 1.404 . S
C1373 H1385 0.930 . S
C1374 C1370 1.524 . S
C1374 H1386 0.956 1_455 S
C1374 H1387 0.961 . S
C1374 H1388 0.961 . S
C1375 C1372 1.539 . S
C1375 H1389 0.958 1_445 S
C1375 H1390 0.961 1_545 S
C1375 H1391 0.960 . S
H1376 C1360 0.931 . S
H1377 C1365 0.929 . S
H1378 C1366 0.960 . S
H1379 C1366 0.962 . S
H1380 C1366 0.960 . S
H1381 C1367 0.961 . S
H1382 C1367 0.961 . S
H1383 C1367 0.961 . S
H1384 C1368 0.931 . S
H1385 C1373 0.930 . S
H1386 C1374 0.956 1_655 S
H1387 C1374 0.961 . S
H1388 C1374 0.961 . S
H1389 C1375 0.958 1_665 S
H1390 C1375 0.961 1_565 S
H1391 C1375 0.960 . S
C1392 C1393 1.391 . S
C1392 C1394 1.394 . S
C1392 H1408 0.931 . S
C1393 C1392 1.391 . S
C1393 C1397 1.376 . S
C1394 C1392 1.394 . S
C1394 C1395 1.369 . S
C1394 C1398 1.531 . S
C1395 C1394 1.369 . S
C1395 C1396 1.410 . S
C1395 C1403 1.503 . S
C1396 C1395 1.410 . S
C1396 C1397 1.392 . S
C1396 C1399 1.511 . S
C1397 C1393 1.376 . S
C1397 C1396 1.392 . S
C1397 H1409 0.929 . S
C1398 C1394 1.531 . S
C1398 H1410 0.960 . S
C1398 H1411 0.962 . S
C1398 H1412 0.960 . S
C1399 C1396 1.511 . S
C1399 H1413 0.961 . S
C1399 H1414 0.961 . S
C1399 H1415 0.961 . S
C1400 C1401 1.370 . S
C1400 C1402 1.363 . S
C1400 H1416 0.931 . S
C1401 C1400 1.370 . S
C1401 C1405 1.408 . S
C1402 C1400 1.363 . S
C1402 C1403 1.370 . S
C1402 C1406 1.524 . S
C1403 C1395 1.503 . S
C1403 C1402 1.370 . S
C1403 C1404 1.403 . S
C1404 C1403 1.403 . S
C1404 C1405 1.404 . S
C1404 C1407 1.539 . S
C1405 C1401 1.408 . S
C1405 C1404 1.404 . S
C1405 H1417 0.930 . S
C1406 C1402 1.524 . S
C1406 H1418 0.956 . S
C1406 H1419 0.961 . S
C1406 H1420 0.961 . S
C1407 C1404 1.539 . S
C1407 H1421 0.958 . S
C1407 H1422 0.961 . S
C1407 H1423 0.960 . S
H1408 C1392 0.931 . S
H1409 C1397 0.929 . S
H1410 C1398 0.960 . S
H1411 C1398 0.962 . S
H1412 C1398 0.960 . S
H1413 C1399 0.961 . S
H1414 C1399 0.961 . S
H1415 C1399 0.961 . S
H1416 C1400 0.931 . S
H1417 C1405 0.930 . S
H1418 C1406 0.956 . S
H1419 C1406 0.961 . S
H1420 C1406 0.961 . S
H1421 C1407 0.958 . S
H1422 C1407 0.961 . S
H1423 C1407 0.960 . S
C1424 C1425 1.391 . S
C1424 C1426 1.394 . S
C1424 H1440 0.931 . S
C1425 C1424 1.391 . S
C1425 C1429 1.376 . S
C1426 C1424 1.394 . S
C1426 C1427 1.369 . S
C1426 C1430 1.531 . S
C1427 C1426 1.369 . S
C1427 C1428 1.410 . S
C1427 C1435 1.503 . S
C1428 C1427 1.410 . S
C1428 C1429 1.392 . S
C1428 C1431 1.511 . S
C1429 C1425 1.376 . S
C1429 C1428 1.392 . S
C1429 H1441 0.929 . S
C1430 C1426 1.531 . S
C1430 H1442 0.960 . S
C1430 H1443 0.962 . S
C1430 H1444 0.960 . S
C1431 C1428 1.511 . S
C1431 H1445 0.961 . S
C1431 H1446 0.961 . S
C1431 H1447 0.961 . S
C1432 C1433 1.370 . S
C1432 C1434 1.363 . S
C1432 H1448 0.931 . S
C1433 C1432 1.370 . S
C1433 C1437 1.408 . S
C1434 C1432 1.363 . S
C1434 C1435 1.370 . S
C1434 C1438 1.524 . S
C1435 C1427 1.503 . S
C1435 C1434 1.370 . S
C1435 C1436 1.403 . S
C1436 C1435 1.403 . S
C1436 C1437 1.404 . S
C1436 C1439 1.539 . S
C1437 C1433 1.408 . S
C1437 C1436 1.404 . S
C1437 H1449 0.930 . S
C1438 C1434 1.524 . S
C1438 H1450 0.956 . S
C1438 H1451 0.961 . S
C1438 H1452 0.961 . S
C1439 C1436 1.539 . S
C1439 H1453 0.958 . S
C1439 H1454 0.961 . S
C1439 H1455 0.960 . S
H1440 C1424 0.931 . S
H1441 C1429 0.929 . S
H1442 C1430 0.960 . S
H1443 C1430 0.962 . S
H1444 C1430 0.960 . S
H1445 C1431 0.961 . S
H1446 C1431 0.961 . S
H1447 C1431 0.961 . S
H1448 C1432 0.931 . S
H1449 C1437 0.930 . S
H1450 C1438 0.956 . S
H1451 C1438 0.961 . S
H1452 C1438 0.961 . S
H1453 C1439 0.958 . S
H1454 C1439 0.961 . S
H1455 C1439 0.960 . S
C1456 C1457 1.391 . S
C1456 C1458 1.394 . S
C1456 H1472 0.931 . S
C1457 C1456 1.391 . S
C1457 C1461 1.376 . S
C1458 C1456 1.394 . S
C1458 C1459 1.369 . S
C1458 C1462 1.531 . S
C1459 C1458 1.369 . S
C1459 C1460 1.410 . S
C1459 C1467 1.503 . S
C1460 C1459 1.410 . S
C1460 C1461 1.392 . S
C1460 C1463 1.511 . S
C1461 C1457 1.376 . S
C1461 C1460 1.392 . S
C1461 H1473 0.929 . S
C1462 C1458 1.531 . S
C1462 H1474 0.960 . S
C1462 H1475 0.962 . S
C1462 H1476 0.960 . S
C1463 C1460 1.511 . S
C1463 H1477 0.961 . S
C1463 H1478 0.961 . S
C1463 H1479 0.961 . S
C1464 C1465 1.370 . S
C1464 C1466 1.363 . S
C1464 H1480 0.931 . S
C1465 C1464 1.370 . S
C1465 C1469 1.408 . S
C1466 C1464 1.363 . S
C1466 C1467 1.370 . S
C1466 C1470 1.524 . S
C1467 C1459 1.503 . S
C1467 C1466 1.370 . S
C1467 C1468 1.403 . S
C1468 C1467 1.403 . S
C1468 C1469 1.404 . S
C1468 C1471 1.539 . S
C1469 C1465 1.408 . S
C1469 C1468 1.404 . S
C1469 H1481 0.930 . S
C1470 C1466 1.524 . S
C1470 H1482 0.956 . S
C1470 H1483 0.961 . S
C1470 H1484 0.961 . S
C1471 C1468 1.539 . S
C1471 H1485 0.958 . S
C1471 H1486 0.961 . S
C1471 H1487 0.960 . S
H1472 C1456 0.931 . S
H1473 C1461 0.929 . S
H1474 C1462 0.960 . S
H1475 C1462 0.962 . S
H1476 C1462 0.960 . S
H1477 C1463 0.961 . S
H1478 C1463 0.961 . S
H1479 C1463 0.961 . S
H1480 C1464 0.931 . S
H1481 C1469 0.930 . S
H1482 C1470 0.956 . S
H1483 C1470 0.961 . S
H1484 C1470 0.961 . S
H1485 C1471 0.958 . S
H1486 C1471 0.961 . S
H1487 C1471 0.960 . S
C1488 C1489 1.391 . S
C1488 C1490 1.394 . S
C1488 H1504 0.931 . S
C1489 C1488 1.391 . S
C1489 C1493 1.376 . S
C1490 C1488 1.394 . S
C1490 C1491 1.369 . S
C1490 C1494 1.531 1_565 S
C1491 C1490 1.369 . S
C1491 C1492 1.410 . S
C1491 C1499 1.503 . S
C1492 C1491 1.410 . S
C1492 C1493 1.392 . S
C1492 C1495 1.511 . S
C1493 C1489 1.376 . S
C1493 C1492 1.392 . S
C1493 H1505 0.929 . S
C1494 C1490 1.531 1_545 S
C1494 H1506 0.960 . S
C1494 H1507 0.962 . S
C1494 H1508 0.960 . S
C1495 C1492 1.511 . S
C1495 H1509 0.961 . S
C1495 H1510 0.961 . S
C1495 H1511 0.990 . S
C1496 C1497 1.367 . S
C1496 C1498 1.363 . S
C1496 H1512 0.931 . S
C1497 C1496 1.367 . S
C1497 C1501 1.409 . S
C1498 C1496 1.363 . S
C1498 C1499 1.370 . S
C1498 C1502 1.524 . S
C1499 C1491 1.503 . S
C1499 C1498 1.370 . S
C1499 C1500 1.403 . S
C1500 C1499 1.403 . S
C1500 C1501 1.404 . S
C1500 C1503 1.539 1_554 S
C1501 C1497 1.409 . S
C1501 C1500 1.404 . S
C1501 H1513 0.930 1_565 S
C1502 C1498 1.524 . S
C1502 H1514 0.956 . S
C1502 H1515 0.961 . S
C1502 H1516 0.961 . S
C1503 C1500 1.539 1_556 S
C1503 H1517 0.958 1_565 S
C1503 H1518 0.961 . S
C1503 H1519 0.960 . S
H1504 C1488 0.931 . S
H1505 C1493 0.929 . S
H1506 C1494 0.960 . S
H1507 C1494 0.962 . S
H1508 C1494 0.960 . S
H1509 C1495 0.961 . S
H1510 C1495 0.961 . S
H1511 C1495 0.990 . S
H1512 C1496 0.931 . S
H1513 C1501 0.930 1_545 S
H1514 C1502 0.956 . S
H1515 C1502 0.961 . S
H1516 C1502 0.961 . S
H1517 C1503 0.958 1_545 S
H1518 C1503 0.961 . S
H1519 C1503 0.960 . S
C1520 C1521 1.391 1_554 S
C1520 C1522 1.394 . S
C1520 H1536 0.931 . S
C1521 C1520 1.391 1_556 S
C1521 C1525 1.376 . S
C1522 C1520 1.394 . S
C1522 C1523 1.369 . S
C1522 C1526 1.531 . S
C1523 C1522 1.369 . S
C1523 C1524 1.410 1_554 S
C1523 C1531 1.503 . S
C1524 C1523 1.410 1_556 S
C1524 C1525 1.392 . S
C1524 C1527 1.511 . S
C1525 C1521 1.376 . S
C1525 C1524 1.392 . S
C1525 H1537 0.929 . S
C1526 C1522 1.531 . S
C1526 H1538 0.960 . S
C1526 H1539 0.962 . S
C1526 H1540 0.960 . S
C1527 C1524 1.511 . S
C1527 H1541 0.961 . S
C1527 H1542 0.961 . S
C1527 H1543 0.961 . S
C1528 C1529 1.370 1_556 S
C1528 C1530 1.363 . S
C1528 H1544 0.931 . S
C1529 C1528 1.370 1_554 S
C1529 C1533 1.408 . S
C1530 C1528 1.363 . S
C1530 C1531 1.370 1_556 S
C1530 C1534 1.524 . S
C1531 C1523 1.503 . S
C1531 C1530 1.370 1_554 S
C1531 C1532 1.403 . S
C1532 C1531 1.403 . S
C1532 C1533 1.404 . S
C1532 C1535 1.539 . S
C1533 C1529 1.408 . S
C1533 C1532 1.404 . S
C1533 H1545 0.930 . S
C1534 C1530 1.524 . S
C1534 H1546 0.956 . S
C1534 H1547 0.961 . S
C1534 H1548 0.961 . S
C1535 C1532 1.539 . S
C1535 H1549 0.958 . S
C1535 H1550 0.961 . S
C1535 H1551 0.960 . S
H1536 C1520 0.931 . S
H1537 C1525 0.929 . S
H1538 C1526 0.960 . S
H1539 C1526 0.962 . S
H1540 C1526 0.960 . S
H1541 C1527 0.961 . S
H1542 C1527 0.961 . S
H1543 C1527 0.961 . S
H1544 C1528 0.931 . S
H1545 C1533 0.930 . S
H1546 C1534 0.956 . S
H1547 C1534 0.961 . S
H1548 C1534 0.961 . S
H1549 C1535 0.958 . S
H1550 C1535 0.961 . S
H1551 C1535 0.960 . S
C1552 C1553 1.391 . S
C1552 C1554 1.394 . S
C1552 H1568 0.931 . S
C1553 C1552 1.391 . S
C1553 C1557 1.376 . S
C1554 C1552 1.394 . S
C1554 C1555 1.369 . S
C1554 C1558 1.531 . S
C1555 C1554 1.369 . S
C1555 C1556 1.410 . S
C1555 C1563 1.503 . S
C1556 C1555 1.410 . S
C1556 C1557 1.392 . S
C1556 C1559 1.511 . S
C1557 C1553 1.376 . S
C1557 C1556 1.392 . S
C1557 H1569 0.929 . S
C1558 C1554 1.531 . S
C1558 H1570 0.960 . S
C1558 H1571 0.962 . S
C1558 H1572 0.960 . S
C1559 C1556 1.511 . S
C1559 H1573 0.961 . S
C1559 H1574 0.961 . S
C1559 H1575 0.961 . S
C1560 C1561 1.370 . S
C1560 C1562 1.363 . S
C1560 H1576 0.931 . S
C1561 C1560 1.370 . S
C1561 C1565 1.408 . S
C1562 C1560 1.363 . S
C1562 C1563 1.370 . S
C1562 C1566 1.524 . S
C1563 C1555 1.503 . S
C1563 C1562 1.370 . S
C1563 C1564 1.403 . S
C1564 C1563 1.403 . S
C1564 C1565 1.404 . S
C1564 C1567 1.539 . S
C1565 C1561 1.408 . S
C1565 C1564 1.404 . S
C1565 H1577 0.930 . S
C1566 C1562 1.524 . S
C1566 H1578 0.956 . S
C1566 H1579 0.961 . S
C1566 H1580 0.961 . S
C1567 C1564 1.539 . S
C1567 H1581 0.958 . S
C1567 H1582 0.961 . S
C1567 H1583 0.960 . S
H1568 C1552 0.931 . S
H1569 C1557 0.929 . S
H1570 C1558 0.960 . S
H1571 C1558 0.962 . S
H1572 C1558 0.960 . S
H1573 C1559 0.961 . S
H1574 C1559 0.961 . S
H1575 C1559 0.961 . S
H1576 C1560 0.931 . S
H1577 C1565 0.930 . S
H1578 C1566 0.956 . S
H1579 C1566 0.961 . S
H1580 C1566 0.961 . S
H1581 C1567 0.958 . S
H1582 C1567 0.961 . S
H1583 C1567 0.960 . S
C1584 C1585 1.391 . S
C1584 C1586 1.394 . S
C1584 H1600 0.931 . S
C1585 C1584 1.391 . S
C1585 C1589 1.376 . S
C1586 C1584 1.394 . S
C1586 C1587 1.369 . S
C1586 C1590 1.531 . S
C1587 C1586 1.369 . S
C1587 C1588 1.410 . S
C1587 C1595 1.503 . S
C1588 C1587 1.410 . S
C1588 C1589 1.392 . S
C1588 C1591 1.511 . S
C1589 C1585 1.376 . S
C1589 C1588 1.392 . S
C1589 H1601 0.929 . S
C1590 C1586 1.531 . S
C1590 H1602 0.960 . S
C1590 H1603 0.962 . S
C1590 H1604 0.960 . S
C1591 C1588 1.511 . S
C1591 H1605 0.961 . S
C1591 H1606 0.961 . S
C1591 H1607 0.961 . S
C1592 C1593 1.370 . S
C1592 C1594 1.363 . S
C1592 H1608 0.931 . S
C1593 C1592 1.370 . S
C1593 C1597 1.408 . S
C1594 C1592 1.363 . S
C1594 C1595 1.370 . S
C1594 C1598 1.524 . S
C1595 C1587 1.503 . S
C1595 C1594 1.370 . S
C1595 C1596 1.403 . S
C1596 C1595 1.403 . S
C1596 C1597 1.404 . S
C1596 C1599 1.539 . S
C1597 C1593 1.408 . S
C1597 C1596 1.404 . S
C1597 H1609 0.967 . S
C1598 C1594 1.524 . S
C1598 H1610 0.956 . S
C1598 H1611 0.961 . S
C1598 H1612 0.961 . S
C1599 C1596 1.539 . S
C1599 H1613 0.958 . S
C1599 H1614 0.961 . S
C1599 H1615 0.960 . S
H1600 C1584 0.931 . S
H1601 C1589 0.929 . S
H1602 C1590 0.960 . S
H1603 C1590 0.962 . S
H1604 C1590 0.960 . S
H1605 C1591 0.961 . S
H1606 C1591 0.961 . S
H1607 C1591 0.961 . S
H1608 C1592 0.931 . S
H1609 C1597 0.967 . S
H1610 C1598 0.956 . S
H1611 C1598 0.961 . S
H1612 C1598 0.961 . S
H1613 C1599 0.958 . S
H1614 C1599 0.961 . S
H1615 C1599 0.960 . S
C1616 C1617 1.391 . S
C1616 C1618 1.394 . S
C1616 H1632 0.931 . S
C1617 C1616 1.391 . S
C1617 C1621 1.376 . S
C1618 C1616 1.394 . S
C1618 C1619 1.369 . S
C1618 C1622 1.531 . S
C1619 C1618 1.369 . S
C1619 C1620 1.410 . S
C1619 C1627 1.503 . S
C1620 C1619 1.410 . S
C1620 C1621 1.392 . S
C1620 C1623 1.511 . S
C1621 C1617 1.376 . S
C1621 C1620 1.392 . S
C1621 H1633 0.929 . S
C1622 C1618 1.531 . S
C1622 H1634 0.960 . S
C1622 H1635 0.962 . S
C1622 H1636 0.960 . S
C1623 C1620 1.511 . S
C1623 H1637 0.961 . S
C1623 H1638 0.961 . S
C1623 H1639 0.961 . S
C1624 C1625 1.370 . S
C1624 C1626 1.363 . S
C1624 H1640 0.931 . S
C1625 C1624 1.370 . S
C1625 C1629 1.408 . S
C1626 C1624 1.363 . S
C1626 C1627 1.370 . S
C1626 C1630 1.524 . S
C1627 C1619 1.503 . S
C1627 C1626 1.370 . S
C1627 C1628 1.403 . S
C1628 C1627 1.403 . S
C1628 C1629 1.404 . S
C1628 C1631 1.539 . S
C1629 C1625 1.408 . S
C1629 C1628 1.404 . S
C1629 H1641 0.930 . S
C1630 C1626 1.524 . S
C1630 H1642 0.956 . S
C1630 H1643 0.961 . S
C1630 H1644 0.961 . S
C1631 C1628 1.539 . S
C1631 H1645 0.958 . S
C1631 H1646 0.961 . S
C1631 H1647 0.960 . S
H1632 C1616 0.931 . S
H1633 C1621 0.929 . S
H1634 C1622 0.960 . S
H1635 C1622 0.962 . S
H1636 C1622 0.960 . S
H1637 C1623 0.961 . S
H1638 C1623 0.961 . S
H1639 C1623 0.961 . S
H1640 C1624 0.931 . S
H1641 C1629 0.930 . S
H1642 C1630 0.956 . S
H1643 C1630 0.961 . S
H1644 C1630 0.961 . S
H1645 C1631 0.958 . S
H1646 C1631 0.961 . S
H1647 C1631 0.960 . S
C1648 C1649 1.391 . S
C1648 C1650 1.394 . S
C1648 H1664 0.931 . S
C1649 C1648 1.391 . S
C1649 C1653 1.376 . S
C1650 C1648 1.394 . S
C1650 C1651 1.369 . S
C1650 C1654 1.531 . S
C1651 C1650 1.369 . S
C1651 C1652 1.410 . S
C1651 C1659 1.503 . S
C1652 C1651 1.410 . S
C1652 C1653 1.392 . S
C1652 C1655 1.511 . S
C1653 C1649 1.376 . S
C1653 C1652 1.392 . S
C1653 H1665 0.929 . S
C1654 C1650 1.531 . S
C1654 H1666 0.960 . S
C1654 H1667 0.962 . S
C1654 H1668 0.960 . S
C1655 C1652 1.511 . S
C1655 H1669 0.961 . S
C1655 H1670 0.961 . S
C1655 H1671 0.961 . S
C1656 C1657 1.370 . S
C1656 C1658 1.363 . S
C1656 H1672 0.931 . S
C1657 C1656 1.370 . S
C1657 C1661 1.408 . S
C1658 C1656 1.363 . S
C1658 C1659 1.370 . S
C1658 C1662 1.524 . S
C1659 C1651 1.503 . S
C1659 C1658 1.370 . S
C1659 C1660 1.403 . S
C1660 C1659 1.403 . S
C1660 C1661 1.404 . S
C1660 C1663 1.539 . S
C1661 C1657 1.408 . S
C1661 C1660 1.404 . S
C1661 H1673 0.930 . S
C1662 C1658 1.524 . S
C1662 H1674 0.956 . S
C1662 H1675 0.961 . S
C1662 H1676 0.961 . S
C1663 C1660 1.539 . S
C1663 H1677 0.958 . S
C1663 H1678 0.961 . S
C1663 H1679 0.960 . S
H1664 C1648 0.931 . S
H1665 C1653 0.929 . S
H1666 C1654 0.960 . S
H1667 C1654 0.962 . S
H1668 C1654 0.960 . S
H1669 C1655 0.961 . S
H1670 C1655 0.961 . S
H1671 C1655 0.961 . S
H1672 C1656 0.931 . S
H1673 C1661 0.930 . S
H1674 C1662 0.956 . S
H1675 C1662 0.961 . S
H1676 C1662 0.961 . S
H1677 C1663 0.958 . S
H1678 C1663 0.961 . S
H1679 C1663 0.960 . S
C1680 C1681 1.391 . S
C1680 C1682 1.394 . S
C1680 H1696 0.931 . S
C1681 C1680 1.391 . S
C1681 C1685 1.376 . S
C1682 C1680 1.394 . S
C1682 C1683 1.369 . S
C1682 C1686 1.531 . S
C1683 C1682 1.369 . S
C1683 C1684 1.410 . S
C1683 C1691 1.503 . S
C1684 C1683 1.410 . S
C1684 C1685 1.392 . S
C1684 C1687 1.511 . S
C1685 C1681 1.376 . S
C1685 C1684 1.392 . S
C1685 H1697 0.929 . S
C1686 C1682 1.531 . S
C1686 H1698 0.960 . S
C1686 H1699 0.962 . S
C1686 H1700 0.960 . S
C1687 C1684 1.511 . S
C1687 H1701 0.961 . S
C1687 H1702 0.961 . S
C1687 H1703 0.961 . S
C1688 C1689 1.370 . S
C1688 C1690 1.363 . S
C1688 H1704 0.931 . S
C1689 C1688 1.370 . S
C1689 C1693 1.408 . S
C1690 C1688 1.363 . S
C1690 C1691 1.370 . S
C1690 C1694 1.524 . S
C1691 C1683 1.503 . S
C1691 C1690 1.370 . S
C1691 C1692 1.403 . S
C1692 C1691 1.403 . S
C1692 C1693 1.404 . S
C1692 C1695 1.539 . S
C1693 C1689 1.408 . S
C1693 C1692 1.404 . S
C1693 H1705 0.930 . S
C1694 C1690 1.524 . S
C1694 H1706 0.956 . S
C1694 H1707 0.961 . S
C1694 H1708 0.961 . S
C1695 C1692 1.539 . S
C1695 H1709 0.958 . S
C1695 H1710 0.961 . S
C1695 H1711 0.960 . S
H1696 C1680 0.931 . S
H1697 C1685 0.929 . S
H1698 C1686 0.960 . S
H1699 C1686 0.962 . S
H1700 C1686 0.960 . S
H1701 C1687 0.961 . S
H1702 C1687 0.961 . S
H1703 C1687 0.961 . S
H1704 C1688 0.931 . S
H1705 C1693 0.930 . S
H1706 C1694 0.956 . S
H1707 C1694 0.961 . S
H1708 C1694 0.961 . S
H1709 C1695 0.958 . S
H1710 C1695 0.961 . S
H1711 C1695 0.960 . S
C1712 C1713 1.391 . S
C1712 C1714 1.394 . S
C1712 H1728 0.931 . S
C1713 C1712 1.391 . S
C1713 C1717 1.376 . S
C1714 C1712 1.394 . S
C1714 C1715 1.369 . S
C1714 C1718 1.531 . S
C1715 C1714 1.369 . S
C1715 C1716 1.410 . S
C1715 C1723 1.503 . S
C1716 C1715 1.410 . S
C1716 C1717 1.392 . S
C1716 C1719 1.511 . S
C1717 C1713 1.376 . S
C1717 C1716 1.392 . S
C1717 H1729 0.929 . S
C1718 C1714 1.531 . S
C1718 H1730 0.960 . S
C1718 H1731 0.962 . S
C1718 H1732 0.960 . S
C1719 C1716 1.511 . S
C1719 H1733 0.961 . S
C1719 H1734 0.961 . S
C1719 H1735 0.961 . S
C1720 C1721 1.370 . S
C1720 C1722 1.363 . S
C1720 H1736 0.931 . S
C1721 C1720 1.370 . S
C1721 C1725 1.408 . S
C1722 C1720 1.363 . S
C1722 C1723 1.370 . S
C1722 C1726 1.524 . S
C1723 C1715 1.503 . S
C1723 C1722 1.370 . S
C1723 C1724 1.403 . S
C1724 C1723 1.403 . S
C1724 C1725 1.404 . S
C1724 C1727 1.539 . S
C1725 C1721 1.408 . S
C1725 C1724 1.404 . S
C1725 H1737 0.930 . S
C1726 C1722 1.524 . S
C1726 H1738 0.956 . S
C1726 H1739 0.961 . S
C1726 H1740 0.961 . S
C1727 C1724 1.539 . S
C1727 H1741 0.958 . S
C1727 H1742 0.961 . S
C1727 H1743 0.960 . S
H1728 C1712 0.931 . S
H1729 C1717 0.929 . S
H1730 C1718 0.960 . S
H1731 C1718 0.962 . S
H1732 C1718 0.960 . S
H1733 C1719 0.961 . S
H1734 C1719 0.961 . S
H1735 C1719 0.961 . S
H1736 C1720 0.931 . S
H1737 C1725 0.930 . S
H1738 C1726 0.956 . S
H1739 C1726 0.961 . S
H1740 C1726 0.961 . S
H1741 C1727 0.958 . S
H1742 C1727 0.961 . S
H1743 C1727 0.960 . S
C1744 C1745 1.391 . S
C1744 C1746 1.394 . S
C1744 H1760 0.931 . S
C1745 C1744 1.391 . S
C1745 C1749 1.376 . S
C1746 C1744 1.394 . S
C1746 C1747 1.369 . S
C1746 C1750 1.531 . S
C1747 C1746 1.369 . S
C1747 C1748 1.410 . S
C1747 C1755 1.503 . S
C1748 C1747 1.410 . S
C1748 C1749 1.392 . S
C1748 C1751 1.511 . S
C1749 C1745 1.376 . S
C1749 C1748 1.392 . S
C1749 H1761 0.929 . S
C1750 C1746 1.531 . S
C1750 H1762 0.960 . S
C1750 H1763 0.962 . S
C1750 H1764 0.960 . S
C1751 C1748 1.511 . S
C1751 H1765 0.961 . S
C1751 H1766 0.961 . S
C1751 H1767 0.961 . S
C1752 C1753 1.370 . S
C1752 C1754 1.363 . S
C1752 H1768 0.931 . S
C1753 C1752 1.370 . S
C1753 C1757 1.408 . S
C1754 C1752 1.363 . S
C1754 C1755 1.370 . S
C1754 C1758 1.524 . S
C1755 C1747 1.503 . S
C1755 C1754 1.370 . S
C1755 C1756 1.403 . S
C1756 C1755 1.403 . S
C1756 C1757 1.404 . S
C1756 C1759 1.539 . S
C1757 C1753 1.408 . S
C1757 C1756 1.404 . S
C1757 H1769 0.930 . S
C1758 C1754 1.524 . S
C1758 H1770 0.956 . S
C1758 H1771 0.961 . S
C1758 H1772 0.961 . S
C1759 C1756 1.539 . S
C1759 H1773 0.958 . S
C1759 H1774 0.961 . S
C1759 H1775 0.960 . S
H1760 C1744 0.931 . S
H1761 C1749 0.929 . S
H1762 C1750 0.960 . S
H1763 C1750 0.962 . S
H1764 C1750 0.960 . S
H1765 C1751 0.961 . S
H1766 C1751 0.961 . S
H1767 C1751 0.961 . S
H1768 C1752 0.931 . S
H1769 C1757 0.930 . S
H1770 C1758 0.956 . S
H1771 C1758 0.961 . S
H1772 C1758 0.961 . S
H1773 C1759 0.958 . S
H1774 C1759 0.961 . S
H1775 C1759 0.960 . S
C1776 C1777 1.391 . S
C1776 C1778 1.394 . S
C1776 H1792 0.931 . S
C1777 C1776 1.391 . S
C1777 C1781 1.376 . S
C1778 C1776 1.394 . S
C1778 C1779 1.369 . S
C1778 C1782 1.531 . S
C1779 C1778 1.369 . S
C1779 C1780 1.410 . S
C1779 C1787 1.503 . S
C1780 C1779 1.410 . S
C1780 C1781 1.392 . S
C1780 C1783 1.511 . S
C1781 C1777 1.376 . S
C1781 C1780 1.392 . S
C1781 H1793 0.929 . S
C1782 C1778 1.531 . S
C1782 H1794 0.960 . S
C1782 H1795 0.962 . S
C1782 H1796 0.960 . S
C1783 C1780 1.511 . S
C1783 H1797 0.961 . S
C1783 H1798 0.961 . S
C1783 H1799 0.961 . S
C1784 C1785 1.370 . S
C1784 C1786 1.363 . S
C1784 H1800 0.931 . S
C1785 C1784 1.370 . S
C1785 C1789 1.408 . S
C1786 C1784 1.363 . S
C1786 C1787 1.370 . S
C1786 C1790 1.524 . S
C1787 C1779 1.503 . S
C1787 C1786 1.370 . S
C1787 C1788 1.403 . S
C1788 C1787 1.403 . S
C1788 C1789 1.404 . S
C1788 C1791 1.539 . S
C1789 C1785 1.408 . S
C1789 C1788 1.404 . S
C1789 H1801 0.930 . S
C1790 C1786 1.524 . S
C1790 H1802 0.956 . S
C1790 H1803 0.961 . S
C1790 H1804 0.961 . S
C1791 C1788 1.539 . S
C1791 H1805 0.958 . S
C1791 H1806 0.961 . S
C1791 H1807 0.960 . S
H1792 C1776 0.931 . S
H1793 C1781 0.929 . S
H1794 C1782 0.960 . S
H1795 C1782 0.962 . S
H1796 C1782 0.960 . S
H1797 C1783 0.961 . S
H1798 C1783 0.961 . S
H1799 C1783 0.961 . S
H1800 C1784 0.931 . S
H1801 C1789 0.930 . S
H1802 C1790 0.956 . S
H1803 C1790 0.961 . S
H1804 C1790 0.961 . S
H1805 C1791 0.958 . S
H1806 C1791 0.961 . S
H1807 C1791 0.960 . S
C1808 C1809 1.391 . S
C1808 C1810 1.394 . S
C1808 H1824 0.931 . S
C1809 C1808 1.391 . S
C1809 C1813 1.376 . S
C1810 C1808 1.394 . S
C1810 C1811 1.369 . S
C1810 C1814 1.531 . S
C1811 C1810 1.369 . S
C1811 C1812 1.410 . S
C1811 C1819 1.503 . S
C1812 C1811 1.410 . S
C1812 C1813 1.392 . S
C1812 C1815 1.511 . S
C1813 C1809 1.376 . S
C1813 C1812 1.392 . S
C1813 H1825 0.929 . S
C1814 C1810 1.531 . S
C1814 H1826 0.960 . S
C1814 H1827 0.962 . S
C1814 H1828 0.960 . S
C1815 C1812 1.511 . S
C1815 H1829 0.961 . S
C1815 H1830 0.961 . S
C1815 H1831 0.961 . S
C1816 C1817 1.370 . S
C1816 C1818 1.363 . S
C1816 H1832 0.931 . S
C1817 C1816 1.370 . S
C1817 C1821 1.408 . S
C1818 C1816 1.363 . S
C1818 C1819 1.370 . S
C1818 C1822 1.524 . S
C1819 C1811 1.503 . S
C1819 C1818 1.370 . S
C1819 C1820 1.403 . S
C1820 C1819 1.403 . S
C1820 C1821 1.404 . S
C1820 C1823 1.539 . S
C1821 C1817 1.408 . S
C1821 C1820 1.404 . S
C1821 H1833 0.930 . S
C1822 C1818 1.524 . S
C1822 H1834 0.956 . S
C1822 H1835 0.961 . S
C1822 H1836 0.961 . S
C1823 C1820 1.539 . S
C1823 H1837 0.958 . S
C1823 H1838 0.961 . S
C1823 H1839 0.960 . S
H1824 C1808 0.931 . S
H1825 C1813 0.929 . S
H1826 C1814 0.960 . S
H1827 C1814 0.962 . S
H1828 C1814 0.960 . S
H1829 C1815 0.961 . S
H1830 C1815 0.961 . S
H1831 C1815 0.961 . S
H1832 C1816 0.931 . S
H1833 C1821 0.930 . S
H1834 C1822 0.956 . S
H1835 C1822 0.961 . S
H1836 C1822 0.961 . S
H1837 C1823 0.958 . S
H1838 C1823 0.961 . S
H1839 C1823 0.960 . S
C1840 C1841 1.391 . S
C1840 C1842 1.394 . S
C1840 H1856 0.931 . S
C1841 C1840 1.391 . S
C1841 C1845 1.376 . S
C1842 C1840 1.394 . S
C1842 C1843 1.369 . S
C1842 C1846 1.531 . S
C1843 C1842 1.369 . S
C1843 C1844 1.410 . S
C1843 C1851 1.503 . S
C1844 C1843 1.410 . S
C1844 C1845 1.392 . S
C1844 C1847 1.511 . S
C1845 C1841 1.376 . S
C1845 C1844 1.392 . S
C1845 H1857 0.929 . S
C1846 C1842 1.531 . S
C1846 H1858 0.960 . S
C1846 H1859 0.962 . S
C1846 H1860 0.960 . S
C1847 C1844 1.511 . S
C1847 H1861 0.961 . S
C1847 H1862 0.961 . S
C1847 H1863 0.961 . S
C1848 C1849 1.370 . S
C1848 C1850 1.363 . S
C1848 H1864 0.931 . S
C1849 C1848 1.370 . S
C1849 C1853 1.408 . S
C1850 C1848 1.363 . S
C1850 C1851 1.370 . S
C1850 C1854 1.524 . S
C1851 C1843 1.503 . S
C1851 C1850 1.370 . S
C1851 C1852 1.403 . S
C1852 C1851 1.403 . S
C1852 C1853 1.404 . S
C1852 C1855 1.539 . S
C1853 C1849 1.408 . S
C1853 C1852 1.404 . S
C1853 H1865 0.930 . S
C1854 C1850 1.524 . S
C1854 H1866 0.956 . S
C1854 H1867 0.961 . S
C1854 H1868 0.961 . S
C1855 C1852 1.539 . S
C1855 H1869 0.958 . S
C1855 H1870 0.961 . S
C1855 H1871 0.960 . S
H1856 C1840 0.931 . S
H1857 C1845 0.929 . S
H1858 C1846 0.960 . S
H1859 C1846 0.962 . S
H1860 C1846 0.960 . S
H1861 C1847 0.961 . S
H1862 C1847 0.961 . S
H1863 C1847 0.961 . S
H1864 C1848 0.931 . S
H1865 C1853 0.930 . S
H1866 C1854 0.956 . S
H1867 C1854 0.961 . S
H1868 C1854 0.961 . S
H1869 C1855 0.958 . S
H1870 C1855 0.961 . S
H1871 C1855 0.960 . S
C1872 C1873 1.391 . S
C1872 C1874 1.394 . S
C1872 H1888 0.931 . S
C1873 C1872 1.391 . S
C1873 C1877 1.376 . S
C1874 C1872 1.394 . S
C1874 C1875 1.369 . S
C1874 C1878 1.531 . S
C1875 C1874 1.369 . S
C1875 C1876 1.410 . S
C1875 C1883 1.503 . S
C1876 C1875 1.410 . S
C1876 C1877 1.392 . S
C1876 C1879 1.511 . S
C1877 C1873 1.376 . S
C1877 C1876 1.392 . S
C1877 H1889 0.929 . S
C1878 C1874 1.531 . S
C1878 H1890 0.960 . S
C1878 H1891 0.962 . S
C1878 H1892 0.960 . S
C1879 C1876 1.511 . S
C1879 H1893 0.961 . S
C1879 H1894 0.961 . S
C1879 H1895 0.961 . S
C1880 C1881 1.370 . S
C1880 C1882 1.363 . S
C1880 H1896 0.931 . S
C1881 C1880 1.370 . S
C1881 C1885 1.408 . S
C1882 C1880 1.363 . S
C1882 C1883 1.370 . S
C1882 C1886 1.524 . S
C1883 C1875 1.503 . S
C1883 C1882 1.370 . S
C1883 C1884 1.403 . S
C1884 C1883 1.403 . S
C1884 C1885 1.404 . S
C1884 C1887 1.539 . S
C1885 C1881 1.408 . S
C1885 C1884 1.404 . S
C1885 H1897 0.930 . S
C1886 C1882 1.524 . S
C1886 H1898 0.956 . S
C1886 H1899 0.961 . S
C1886 H1900 0.961 . S
C1887 C1884 1.539 . S
C1887 H1901 0.958 . S
C1887 H1902 0.961 . S
C1887 H1903 0.960 . S
H1888 C1872 0.931 . S
H1889 C1877 0.929 . S
H1890 C1878 0.960 . S
H1891 C1878 0.962 . S
H1892 C1878 0.960 . S
H1893 C1879 0.961 . S
H1894 C1879 0.961 . S
H1895 C1879 0.961 . S
H1896 C1880 0.931 . S
H1897 C1885 0.930 . S
H1898 C1886 0.956 . S
H1899 C1886 0.961 . S
H1900 C1886 0.961 . S
H1901 C1887 0.958 . S
H1902 C1887 0.961 . S
H1903 C1887 0.960 . S
C1904 C1905 1.391 . S
C1904 C1906 1.394 . S
C1904 H1920 0.931 . S
C1905 C1904 1.391 . S
C1905 C1909 1.376 . S
C1906 C1904 1.394 . S
C1906 C1907 1.369 . S
C1906 C1910 1.531 . S
C1907 C1906 1.369 . S
C1907 C1908 1.410 . S
C1907 C1915 1.503 . S
C1908 C1907 1.410 . S
C1908 C1909 1.392 . S
C1908 C1911 1.511 . S
C1909 C1905 1.376 . S
C1909 C1908 1.392 . S
C1909 H1921 0.929 . S
C1910 C1906 1.531 . S
C1910 H1922 0.960 . S
C1910 H1923 0.962 . S
C1910 H1924 0.960 . S
C1911 C1908 1.511 . S
C1911 H1925 0.961 . S
C1911 H1926 0.961 . S
C1911 H1927 0.961 . S
C1912 C1913 1.370 . S
C1912 C1914 1.363 . S
C1912 H1928 0.931 . S
C1913 C1912 1.370 . S
C1913 C1917 1.408 . S
C1914 C1912 1.363 . S
C1914 C1915 1.370 . S
C1914 C1918 1.524 . S
C1915 C1907 1.503 . S
C1915 C1914 1.370 . S
C1915 C1916 1.403 . S
C1916 C1915 1.403 . S
C1916 C1917 1.404 . S
C1916 C1919 1.539 . S
C1917 C1913 1.408 . S
C1917 C1916 1.404 . S
C1917 H1929 0.930 . S
C1918 C1914 1.524 . S
C1918 H1930 0.956 . S
C1918 H1931 0.961 . S
C1918 H1932 0.961 . S
C1919 C1916 1.539 . S
C1919 H1933 0.958 . S
C1919 H1934 0.961 . S
C1919 H1935 0.960 . S
H1920 C1904 0.931 . S
H1921 C1909 0.929 . S
H1922 C1910 0.960 . S
H1923 C1910 0.962 . S
H1924 C1910 0.960 . S
H1925 C1911 0.961 . S
H1926 C1911 0.961 . S
H1927 C1911 0.961 . S
H1928 C1912 0.931 . S
H1929 C1917 0.930 . S
H1930 C1918 0.956 . S
H1931 C1918 0.961 . S
H1932 C1918 0.961 . S
H1933 C1919 0.958 . S
H1934 C1919 0.961 . S
H1935 C1919 0.960 . S
C1936 C1937 1.391 . S
C1936 C1938 1.394 . S
C1936 H1952 0.931 . S
C1937 C1936 1.391 . S
C1937 C1941 1.376 . S
C1938 C1936 1.394 . S
C1938 C1939 1.369 . S
C1938 C1942 1.531 . S
C1939 C1938 1.369 . S
C1939 C1940 1.410 . S
C1939 C1947 1.503 . S
C1940 C1939 1.410 . S
C1940 C1941 1.392 . S
C1940 C1943 1.511 . S
C1941 C1937 1.376 . S
C1941 C1940 1.392 . S
C1941 H1953 0.929 . S
C1942 C1938 1.531 . S
C1942 H1954 0.960 . S
C1942 H1955 0.962 . S
C1942 H1956 0.960 . S
C1943 C1940 1.511 . S
C1943 H1957 0.961 . S
C1943 H1958 0.961 . S
C1943 H1959 0.961 . S
C1944 C1945 1.370 . S
C1944 C1946 1.363 . S
C1944 H1960 0.931 . S
C1945 C1944 1.370 . S
C1945 C1949 1.408 . S
C1946 C1944 1.363 . S
C1946 C1947 1.370 . S
C1946 C1950 1.524 . S
C1947 C1939 1.503 . S
C1947 C1946 1.370 . S
C1947 C1948 1.403 . S
C1948 C1947 1.403 . S
C1948 C1949 1.404 . S
C1948 C1951 1.539 . S
C1949 C1945 1.408 . S
C1949 C1948 1.404 . S
C1949 H1961 0.930 1_556 S
C1950 C1946 1.524 . S
C1950 H1962 0.956 . S
C1950 H1963 0.961 . S
C1950 H1964 0.961 . S
C1951 C1948 1.539 . S
C1951 H1965 0.958 . S
C1951 H1966 0.961 1_556 S
C1951 H1967 0.960 . S
H1952 C1936 0.931 . S
H1953 C1941 0.929 . S
H1954 C1942 0.960 . S
H1955 C1942 0.962 . S
H1956 C1942 0.960 . S
H1957 C1943 0.961 . S
H1958 C1943 0.961 . S
H1959 C1943 0.961 . S
H1960 C1944 0.931 . S
H1961 C1949 0.930 1_554 S
H1962 C1950 0.956 . S
H1963 C1950 0.961 . S
H1964 C1950 0.961 . S
H1965 C1951 0.958 . S
H1966 C1951 0.961 1_554 S
H1967 C1951 0.960 . S
C1968 C1969 1.391 . S
C1968 C1970 1.394 . S
C1968 H1984 0.931 . S
C1969 C1968 1.391 . S
C1969 C1973 1.376 . S
C1970 C1968 1.394 . S
C1970 C1971 1.369 . S
C1970 C1974 1.531 . S
C1971 C1970 1.369 . S
C1971 C1972 1.410 . S
C1971 C1979 1.503 . S
C1972 C1971 1.410 . S
C1972 C1973 1.392 . S
C1972 C1975 1.511 . S
C1973 C1969 1.376 . S
C1973 C1972 1.392 . S
C1973 H1985 0.929 . S
C1974 C1970 1.531 . S
C1974 H1986 0.960 . S
C1974 H1987 0.962 . S
C1974 H1988 0.960 . S
C1975 C1972 1.511 . S
C1975 H1989 0.961 . S
C1975 H1990 0.961 . S
C1975 H1991 0.961 . S
C1976 C1977 1.370 . S
C1976 C1978 1.363 . S
C1976 H1992 0.931 . S
C1977 C1976 1.370 . S
C1977 C1981 1.408 . S
C1978 C1976 1.363 . S
C1978 C1979 1.370 . S
C1978 C1982 1.524 . S
C1979 C1971 1.503 . S
C1979 C1978 1.370 . S
C1979 C1980 1.403 . S
C1980 C1979 1.403 . S
C1980 C1981 1.404 . S
C1980 C1983 1.539 . S
C1981 C1977 1.408 . S
C1981 C1980 1.404 . S
C1981 H1993 0.930 . S
C1982 C1978 1.524 . S
C1982 H1994 0.956 . S
C1982 H1995 0.961 . S
C1982 H1996 0.961 . S
C1983 C1980 1.539 . S
C1983 H1997 0.958 . S
C1983 H1998 0.961 . S
C1983 H1999 0.960 . S
H1984 C1968 0.931 . S
H1985 C1973 0.929 . S
H1986 C1974 0.960 . S
H1987 C1974 0.962 . S
H1988 C1974 0.960 . S
H1989 C1975 0.961 . S
H1990 C1975 0.961 . S
H1991 C1975 0.961 . S
H1992 C1976 0.931 . S
H1993 C1981 0.930 . S
H1994 C1982 0.956 . S
H1995 C1982 0.961 . S
H1996 C1982 0.961 . S
H1997 C1983 0.958 . S
H1998 C1983 0.961 . S
H1999 C1983 0.960 . S
C2000 C2001 1.391 1_565 S
C2000 C2002 1.394 . S
C2000 H2016 0.931 . S
C2001 C2000 1.391 1_545 S
C2001 C2005 1.376 . S
C2002 C2000 1.394 . S
C2002 C2003 1.369 1_565 S
C2002 C2006 1.531 . S
C2003 C2002 1.369 1_545 S
C2003 C2004 1.410 . S
C2003 C2011 1.503 . S
C2004 C2003 1.410 . S
C2004 C2005 1.392 . S
C2004 C2007 1.511 . S
C2005 C2001 1.376 . S
C2005 C2004 1.392 . S
C2005 H2017 0.929 . S
C2006 C2002 1.531 . S
C2006 H2018 0.960 . S
C2006 H2019 0.962 . S
C2006 H2020 0.960 . S
C2007 C2004 1.511 . S
C2007 H2021 0.961 . S
C2007 H2022 0.961 . S
C2007 H2023 0.961 . S
C2008 C2009 1.370 . S
C2008 C2010 1.363 . S
C2008 H2024 0.931 . S
C2009 C2008 1.370 . S
C2009 C2013 1.408 . S
C2010 C2008 1.363 . S
C2010 C2011 1.370 . S
C2010 C2014 1.524 . S
C2011 C2003 1.503 . S
C2011 C2010 1.370 . S
C2011 C2012 1.403 1_545 S
C2012 C2011 1.403 1_565 S
C2012 C2013 1.404 1_565 S
C2012 C2015 1.539 . S
C2013 C2009 1.408 . S
C2013 C2012 1.404 1_545 S
C2013 H2025 0.930 1_545 S
C2014 C2010 1.524 . S
C2014 H2026 0.956 . S
C2014 H2027 0.961 . S
C2014 H2028 0.961 . S
C2015 C2012 1.539 . S
C2015 H2029 0.958 . S
C2015 H2030 0.961 . S
C2015 H2031 0.960 . S
H2016 C2000 0.931 . S
H2017 C2005 0.929 . S
H2018 C2006 0.960 . S
H2019 C2006 0.962 . S
H2020 C2006 0.960 . S
H2021 C2007 0.961 . S
H2022 C2007 0.961 . S
H2023 C2007 0.961 . S
H2024 C2008 0.931 . S
H2025 C2013 0.930 1_565 S
H2026 C2014 0.956 . S
H2027 C2014 0.961 . S
H2028 C2014 0.961 . S
H2029 C2015 0.958 . S
H2030 C2015 0.961 . S
H2031 C2015 0.960 . S
C2032 C2033 1.391 . S
C2032 C2034 1.394 . S
C2032 H2048 0.931 . S
C2033 C2032 1.391 . S
C2033 C2037 1.376 . S
C2034 C2032 1.394 . S
C2034 C2035 1.369 . S
C2034 C2038 1.531 . S
C2035 C2034 1.369 . S
C2035 C2036 1.410 . S
C2035 C2043 1.503 . S
C2036 C2035 1.410 . S
C2036 C2037 1.392 . S
C2036 C2039 1.511 . S
C2037 C2033 1.376 . S
C2037 C2036 1.392 . S
C2037 H2049 0.929 . S
C2038 C2034 1.531 . S
C2038 H2050 0.960 . S
C2038 H2051 0.962 . S
C2038 H2052 0.960 . S
C2039 C2036 1.511 . S
C2039 H2053 0.961 . S
C2039 H2054 0.961 . S
C2039 H2055 0.961 . S
C2040 C2041 1.370 . S
C2040 C2042 1.363 . S
C2040 H2056 0.931 . S
C2041 C2040 1.370 . S
C2041 C2045 1.408 . S
C2042 C2040 1.363 . S
C2042 C2043 1.370 . S
C2042 C2046 1.524 . S
C2043 C2035 1.503 . S
C2043 C2042 1.370 . S
C2043 C2044 1.403 . S
C2044 C2043 1.403 . S
C2044 C2045 1.404 . S
C2044 C2047 1.539 . S
C2045 C2041 1.408 . S
C2045 C2044 1.404 . S
C2045 H2057 0.930 . S
C2046 C2042 1.524 . S
C2046 H2058 0.956 . S
C2046 H2059 0.961 . S
C2046 H2060 0.961 . S
C2047 C2044 1.539 . S
C2047 H2061 0.958 . S
C2047 H2062 0.961 . S
C2047 H2063 0.960 . S
H2048 C2032 0.931 . S
H2049 C2037 0.929 . S
H2050 C2038 0.960 . S
H2051 C2038 0.962 . S
H2052 C2038 0.960 . S
H2053 C2039 0.961 . S
H2054 C2039 0.961 . S
H2055 C2039 0.961 . S
H2056 C2040 0.931 . S
H2057 C2045 0.930 . S
H2058 C2046 0.956 . S
H2059 C2046 0.961 . S
H2060 C2046 0.961 . S
H2061 C2047 0.958 . S
H2062 C2047 0.961 . S
H2063 C2047 0.960 . S
C2064 C2065 1.398 . S
C2064 C2066 1.388 . S
C2064 H2080 0.931 1_545 S
C2065 C2064 1.398 . S
C2065 C2069 1.376 . S
C2066 C2064 1.388 . S
C2066 C2067 1.369 . S
C2066 C2070 1.531 1_545 S
C2067 C2066 1.369 . S
C2067 C2068 1.410 . S
C2067 C2075 1.503 . S
C2068 C2067 1.410 . S
C2068 C2069 1.392 . S
C2068 C2071 1.511 . S
C2069 C2065 1.376 . S
C2069 C2068 1.392 . S
C2069 H2081 0.929 . S
C2070 C2066 1.531 1_565 S
C2070 H2082 0.960 . S
C2070 H2083 0.962 1_565 S
C2070 H2084 0.960 . S
C2071 C2068 1.511 . S
C2071 H2085 0.961 . S
C2071 H2086 0.961 . S
C2071 H2087 0.961 . S
C2072 C2073 1.370 . S
C2072 C2074 1.363 . S
C2072 H2088 0.931 . S
C2073 C2072 1.370 . S
C2073 C2077 1.408 . S
C2074 C2072 1.363 . S
C2074 C2075 1.370 . S
C2074 C2078 1.524 . S
C2075 C2067 1.503 . S
C2075 C2074 1.370 . S
C2075 C2076 1.403 1_545 S
C2076 C2075 1.403 1_565 S
C2076 C2077 1.404 1_565 S
C2076 C2079 1.539 . S
C2077 C2073 1.408 . S
C2077 C2076 1.404 1_545 S
C2077 H2089 0.930 1_545 S
C2078 C2074 1.524 . S
C2078 H2090 0.956 . S
C2078 H2091 0.961 . S
C2078 H2092 0.961 . S
C2079 C2076 1.539 . S
C2079 H2093 0.958 . S
C2079 H2094 0.961 . S
C2079 H2095 0.960 . S
H2080 C2064 0.931 1_565 S
H2081 C2069 0.929 . S
H2082 C2070 0.960 . S
H2083 C2070 0.962 1_545 S
H2084 C2070 0.960 . S
H2085 C2071 0.961 . S
H2086 C2071 0.961 . S
H2087 C2071 0.961 . S
H2088 C2072 0.931 . S
H2089 C2077 0.930 1_565 S
H2090 C2078 0.956 . S
H2091 C2078 0.961 . S
H2092 C2078 0.961 . S
H2093 C2079 0.958 . S
H2094 C2079 0.961 . S
H2095 C2079 0.960 . S
C2096 C2097 1.391 . S
C2096 C2098 1.394 . S
C2096 H2112 0.931 . S
C2097 C2096 1.391 . S
C2097 C2101 1.376 . S
C2098 C2096 1.394 . S
C2098 C2099 1.369 . S
C2098 C2102 1.531 . S
C2099 C2098 1.369 . S
C2099 C2100 1.410 . S
C2099 C2107 1.503 . S
C2100 C2099 1.410 . S
C2100 C2101 1.392 . S
C2100 C2103 1.511 . S
C2101 C2097 1.376 . S
C2101 C2100 1.392 . S
C2101 H2113 0.929 . S
C2102 C2098 1.531 . S
C2102 H2114 0.960 . S
C2102 H2115 0.962 . S
C2102 H2116 0.960 . S
C2103 C2100 1.511 . S
C2103 H2117 0.961 . S
C2103 H2118 0.961 . S
C2103 H2119 0.961 . S
C2104 C2105 1.370 . S
C2104 C2106 1.363 . S
C2104 H2120 0.931 . S
C2105 C2104 1.370 . S
C2105 C2109 1.408 . S
C2106 C2104 1.363 . S
C2106 C2107 1.370 . S
C2106 C2110 1.524 . S
C2107 C2099 1.503 . S
C2107 C2106 1.370 . S
C2107 C2108 1.403 . S
C2108 C2107 1.403 . S
C2108 C2109 1.404 . S
C2108 C2111 1.539 . S
C2109 C2105 1.408 . S
C2109 C2108 1.404 . S
C2109 H2121 0.930 . S
C2110 C2106 1.524 . S
C2110 H2122 0.956 . S
C2110 H2123 0.961 . S
C2110 H2124 0.961 . S
C2111 C2108 1.539 . S
C2111 H2125 0.958 . S
C2111 H2126 0.961 . S
C2111 H2127 0.960 . S
H2112 C2096 0.931 . S
H2113 C2101 0.929 . S
H2114 C2102 0.960 . S
H2115 C2102 0.962 . S
H2116 C2102 0.960 . S
H2117 C2103 0.961 . S
H2118 C2103 0.961 . S
H2119 C2103 0.961 . S
H2120 C2104 0.931 . S
H2121 C2109 0.930 . S
H2122 C2110 0.956 . S
H2123 C2110 0.961 . S
H2124 C2110 0.961 . S
H2125 C2111 0.958 . S
H2126 C2111 0.961 . S
H2127 C2111 0.960 . S
C2128 C2129 1.393 1_565 S
C2128 C2130 1.394 1_565 S
C2128 H2144 0.931 . S
C2129 C2128 1.393 1_545 S
C2129 C2133 1.383 . S
C2130 C2128 1.394 1_545 S
C2130 C2131 1.369 . S
C2130 C2134 1.531 1_545 S
C2131 C2130 1.369 . S
C2131 C2132 1.410 . S
C2131 C2139 1.503 . S
C2132 C2131 1.410 . S
C2132 C2133 1.392 . S
C2132 C2135 1.511 . S
C2133 C2129 1.383 . S
C2133 C2132 1.392 . S
C2133 H2145 0.929 . S
C2134 C2130 1.531 1_565 S
C2134 H2146 0.960 1_565 S
C2134 H2147 0.962 . S
C2134 H2148 0.960 . S
C2135 C2132 1.511 . S
C2135 H2149 0.961 . S
C2135 H2150 0.961 . S
C2135 H2151 0.961 . S
C2136 C2137 1.370 . S
C2136 C2138 1.363 1_545 S
C2136 H2152 0.931 1_545 S
C2137 C2136 1.370 . S
C2137 C2141 1.408 . S
C2138 C2136 1.363 1_565 S
C2138 C2139 1.370 1_565 S
C2138 C2142 1.524 . S
C2139 C2131 1.503 . S
C2139 C2138 1.370 1_545 S
C2139 C2140 1.403 . S
C2140 C2139 1.403 . S
C2140 C2141 1.404 . S
C2140 C2143 1.539 . S
C2141 C2137 1.408 . S
C2141 C2140 1.404 . S
C2141 H2153 0.930 . S
C2142 C2138 1.524 . S
C2142 H2154 0.956 . S
C2142 H2155 0.961 . S
C2142 H2156 0.961 . S
C2143 C2140 1.539 . S
C2143 H2157 0.958 . S
C2143 H2158 0.961 . S
C2143 H2159 0.960 . S
H2144 C2128 0.931 . S
H2145 C2133 0.929 . S
H2146 C2134 0.960 1_545 S
H2147 C2134 0.962 . S
H2148 C2134 0.960 . S
H2149 C2135 0.961 . S
H2150 C2135 0.961 . S
H2151 C2135 0.961 . S
H2152 C2136 0.931 1_565 S
H2153 C2141 0.930 . S
H2154 C2142 0.956 . S
H2155 C2142 0.961 . S
H2156 C2142 0.961 . S
H2157 C2143 0.958 . S
H2158 C2143 0.961 . S
H2159 C2143 0.960 . S
C2160 C2161 1.391 . S
C2160 C2162 1.394 . S
C2160 H2176 0.931 . S
C2161 C2160 1.391 . S
C2161 C2165 1.376 . S
C2162 C2160 1.394 . S
C2162 C2163 1.369 . S
C2162 C2166 1.531 . S
C2163 C2162 1.369 . S
C2163 C2164 1.410 . S
C2163 C2171 1.503 . S
C2164 C2163 1.410 . S
C2164 C2165 1.392 . S
C2164 C2167 1.511 . S
C2165 C2161 1.376 . S
C2165 C2164 1.392 . S
C2165 H2177 0.929 . S
C2166 C2162 1.531 . S
C2166 H2178 0.960 . S
C2166 H2179 0.962 . S
C2166 H2180 0.960 . S
C2167 C2164 1.511 . S
C2167 H2181 0.961 . S
C2167 H2182 0.961 . S
C2167 H2183 0.961 . S
C2168 C2169 1.370 . S
C2168 C2170 1.363 . S
C2168 H2184 0.931 . S
C2169 C2168 1.370 . S
C2169 C2173 1.408 . S
C2170 C2168 1.363 . S
C2170 C2171 1.370 . S
C2170 C2174 1.524 . S
C2171 C2163 1.503 . S
C2171 C2170 1.370 . S
C2171 C2172 1.403 . S
C2172 C2171 1.403 . S
C2172 C2173 1.404 . S
C2172 C2175 1.539 . S
C2173 C2169 1.408 . S
C2173 C2172 1.404 . S
C2173 H2185 0.930 . S
C2174 C2170 1.524 . S
C2174 H2186 0.956 . S
C2174 H2187 0.961 . S
C2174 H2188 0.961 . S
C2175 C2172 1.539 . S
C2175 H2189 0.958 . S
C2175 H2190 0.961 . S
C2175 H2191 0.960 . S
H2176 C2160 0.931 . S
H2177 C2165 0.929 . S
H2178 C2166 0.960 . S
H2179 C2166 0.962 . S
H2180 C2166 0.960 . S
H2181 C2167 0.961 . S
H2182 C2167 0.961 . S
H2183 C2167 0.961 . S
H2184 C2168 0.931 . S
H2185 C2173 0.930 . S
H2186 C2174 0.956 . S
H2187 C2174 0.961 . S
H2188 C2174 0.961 . S
H2189 C2175 0.958 . S
H2190 C2175 0.961 . S
H2191 C2175 0.960 . S
C2192 C2193 1.391 1_565 S
C2192 C2194 1.394 . S
C2192 H2208 0.931 . S
C2193 C2192 1.391 1_545 S
C2193 C2197 1.376 . S
C2194 C2192 1.394 . S
C2194 C2195 1.373 1_565 S
C2194 C2198 1.531 . S
C2195 C2194 1.373 1_545 S
C2195 C2196 1.406 . S
C2195 C2203 1.501 1_545 S
C2196 C2195 1.406 . S
C2196 C2197 1.392 . S
C2196 C2199 1.511 . S
C2197 C2193 1.376 . S
C2197 C2196 1.392 . S
C2197 H2209 0.929 . S
C2198 C2194 1.531 . S
C2198 H2210 0.957 . S
C2198 H2211 0.962 . S
C2198 H2212 0.960 . S
C2199 C2196 1.511 . S
C2199 H2213 0.961 . S
C2199 H2214 0.974 . S
C2199 H2215 0.961 . S
C2200 C2201 1.370 . S
C2200 C2202 1.363 . S
C2200 H2216 0.931 . S
C2201 C2200 1.370 . S
C2201 C2205 1.408 1_565 S
C2202 C2200 1.363 . S
C2202 C2203 1.370 . S
C2202 C2206 1.524 . S
C2203 C2195 1.501 1_565 S
C2203 C2202 1.370 . S
C2203 C2204 1.403 1_565 S
C2204 C2203 1.403 1_545 S
C2204 C2205 1.404 . S
C2204 C2207 1.539 . S
C2205 C2201 1.408 1_545 S
C2205 C2204 1.404 . S
C2205 H2217 0.930 . S
C2206 C2202 1.524 . S
C2206 H2218 0.956 . S
C2206 H2219 0.961 . S
C2206 H2220 0.961 . S
C2207 C2204 1.539 . S
C2207 H2221 0.958 . S
C2207 H2222 0.961 . S
C2207 H2223 0.960 . S
H2208 C2192 0.931 . S
H2209 C2197 0.929 . S
H2210 C2198 0.957 . S
H2211 C2198 0.962 . S
H2212 C2198 0.960 . S
H2213 C2199 0.961 . S
H2214 C2199 0.974 . S
H2215 C2199 0.961 . S
H2216 C2200 0.931 . S
H2217 C2205 0.930 . S
H2218 C2206 0.956 . S
H2219 C2206 0.961 . S
H2220 C2206 0.961 . S
H2221 C2207 0.958 . S
H2222 C2207 0.961 . S
H2223 C2207 0.960 . S
C2224 C2225 1.391 . S
C2224 C2226 1.394 . S
C2224 H2240 0.931 . S
C2225 C2224 1.391 . S
C2225 C2229 1.376 . S
C2226 C2224 1.394 . S
C2226 C2227 1.369 . S
C2226 C2230 1.531 . S
C2227 C2226 1.369 . S
C2227 C2228 1.410 . S
C2227 C2235 1.503 . S
C2228 C2227 1.410 . S
C2228 C2229 1.392 . S
C2228 C2231 1.511 . S
C2229 C2225 1.376 . S
C2229 C2228 1.392 . S
C2229 H2241 0.929 . S
C2230 C2226 1.531 . S
C2230 H2242 0.960 . S
C2230 H2243 0.962 . S
C2230 H2244 0.960 . S
C2231 C2228 1.511 . S
C2231 H2245 0.961 . S
C2231 H2246 0.961 . S
C2231 H2247 0.961 . S
C2232 C2233 1.370 . S
C2232 C2234 1.363 . S
C2232 H2248 0.931 . S
C2233 C2232 1.370 . S
C2233 C2237 1.408 . S
C2234 C2232 1.363 . S
C2234 C2235 1.370 . S
C2234 C2238 1.524 . S
C2235 C2227 1.503 . S
C2235 C2234 1.370 . S
C2235 C2236 1.403 . S
C2236 C2235 1.403 . S
C2236 C2237 1.404 . S
C2236 C2239 1.539 . S
C2237 C2233 1.408 . S
C2237 C2236 1.404 . S
C2237 H2249 0.930 . S
C2238 C2234 1.524 . S
C2238 H2250 0.956 . S
C2238 H2251 0.961 . S
C2238 H2252 0.961 . S
C2239 C2236 1.539 . S
C2239 H2253 0.958 . S
C2239 H2254 0.961 . S
C2239 H2255 0.960 . S
H2240 C2224 0.931 . S
H2241 C2229 0.929 . S
H2242 C2230 0.960 . S
H2243 C2230 0.962 . S
H2244 C2230 0.960 . S
H2245 C2231 0.961 . S
H2246 C2231 0.961 . S
H2247 C2231 0.961 . S
H2248 C2232 0.931 . S
H2249 C2237 0.930 . S
H2250 C2238 0.956 . S
H2251 C2238 0.961 . S
H2252 C2238 0.961 . S
H2253 C2239 0.958 . S
H2254 C2239 0.961 . S
H2255 C2239 0.960 . S
C2256 C2257 1.391 . S
C2256 C2258 1.394 . S
C2256 H2272 0.931 . S
C2257 C2256 1.391 . S
C2257 C2261 1.397 . S
C2258 C2256 1.394 . S
C2258 C2259 1.369 . S
C2258 C2262 1.531 . S
C2259 C2258 1.369 . S
C2259 C2260 1.410 1_554 S
C2259 C2267 1.503 1_554 S
C2260 C2259 1.410 1_556 S
C2260 C2261 1.380 1_556 S
C2260 C2263 1.511 . S
C2261 C2257 1.397 . S
C2261 C2260 1.380 1_554 S
C2261 H2273 0.920 1_554 S
C2262 C2258 1.531 . S
C2262 H2274 0.960 . S
C2262 H2275 0.962 . S
C2262 H2276 0.960 . S
C2263 C2260 1.511 . S
C2263 H2277 0.961 . S
C2263 H2278 0.961 . S
C2263 H2279 0.961 . S
C2264 C2265 1.370 . S
C2264 C2266 1.363 . S
C2264 H2280 0.931 . S
C2265 C2264 1.370 . S
C2265 C2269 1.408 . S
C2266 C2264 1.363 . S
C2266 C2267 1.370 . S
C2266 C2270 1.524 . S
C2267 C2259 1.503 1_556 S
C2267 C2266 1.370 . S
C2267 C2268 1.403 1_556 S
C2268 C2267 1.403 1_554 S
C2268 C2269 1.404 1_554 S
C2268 C2271 1.539 . S
C2269 C2265 1.408 . S
C2269 C2268 1.404 1_556 S
C2269 H2281 0.919 1_556 S
C2270 C2266 1.524 . S
C2270 H2282 0.956 . S
C2270 H2283 0.961 . S
C2270 H2284 0.961 . S
C2271 C2268 1.539 . S
C2271 H2285 0.958 . S
C2271 H2286 0.961 . S
C2271 H2287 0.960 . S
H2272 C2256 0.931 . S
H2273 C2261 0.920 1_556 S
H2274 C2262 0.960 . S
H2275 C2262 0.962 . S
H2276 C2262 0.960 . S
H2277 C2263 0.961 . S
H2278 C2263 0.961 . S
H2279 C2263 0.961 . S
H2280 C2264 0.931 . S
H2281 C2269 0.919 1_554 S
H2282 C2270 0.956 . S
H2283 C2270 0.961 . S
H2284 C2270 0.961 . S
H2285 C2271 0.958 . S
H2286 C2271 0.961 . S
H2287 C2271 0.960 . S
C2288 C2289 1.391 . S
C2288 C2290 1.390 1_554 S
C2288 H2304 0.931 1_554 S
C2289 C2288 1.391 . S
C2289 C2293 1.376 . S
C2290 C2288 1.390 1_556 S
C2290 C2291 1.362 1_556 S
C2290 C2294 1.541 . S
C2291 C2290 1.362 1_554 S
C2291 C2292 1.410 . S
C2291 C2299 1.503 . S
C2292 C2291 1.410 . S
C2292 C2293 1.392 . S
C2292 C2295 1.511 . S
C2293 C2289 1.376 . S
C2293 C2292 1.392 . S
C2293 H2305 0.929 . S
C2294 C2290 1.541 . S
C2294 H2306 0.960 . S
C2294 H2307 0.962 . S
C2294 H2308 0.960 . S
C2295 C2292 1.511 . S
C2295 H2309 0.961 . S
C2295 H2310 0.961 . S
C2295 H2311 0.961 . S
C2296 C2297 1.370 . S
C2296 C2298 1.363 . S
C2296 H2312 0.931 . S
C2297 C2296 1.370 . S
C2297 C2301 1.408 . S
C2298 C2296 1.363 . S
C2298 C2299 1.370 . S
C2298 C2302 1.524 . S
C2299 C2291 1.503 . S
C2299 C2298 1.370 . S
C2299 C2300 1.403 . S
C2300 C2299 1.403 . S
C2300 C2301 1.404 . S
C2300 C2303 1.539 1_554 S
C2301 C2297 1.408 . S
C2301 C2300 1.404 . S
C2301 H2313 0.930 1_554 S
C2302 C2298 1.524 . S
C2302 H2314 0.956 . S
C2302 H2315 0.961 . S
C2302 H2316 0.961 . S
C2303 C2300 1.539 1_556 S
C2303 H2317 0.958 . S
C2303 H2318 0.961 . S
C2303 H2319 0.960 1_556 S
H2304 C2288 0.931 1_556 S
H2305 C2293 0.929 . S
H2306 C2294 0.960 . S
H2307 C2294 0.962 . S
H2308 C2294 0.960 . S
H2309 C2295 0.961 . S
H2310 C2295 0.961 . S
H2311 C2295 0.961 . S
H2312 C2296 0.931 . S
H2313 C2301 0.930 1_556 S
H2314 C2302 0.956 . S
H2315 C2302 0.961 . S
H2316 C2302 0.961 . S
H2317 C2303 0.958 . S
H2318 C2303 0.961 . S
H2319 C2303 0.960 1_554 S
C2320 C2321 1.391 . S
C2320 C2322 1.394 . S
C2320 H2336 0.931 . S
C2321 C2320 1.391 . S
C2321 C2325 1.376 . S
C2322 C2320 1.394 . S
C2322 C2323 1.369 . S
C2322 C2326 1.531 . S
C2323 C2322 1.369 . S
C2323 C2324 1.410 . S
C2323 C2331 1.503 . S
C2324 C2323 1.410 . S
C2324 C2325 1.392 . S
C2324 C2327 1.511 . S
C2325 C2321 1.376 . S
C2325 C2324 1.392 . S
C2325 H2337 0.929 . S
C2326 C2322 1.531 . S
C2326 H2338 0.960 . S
C2326 H2339 0.962 . S
C2326 H2340 0.960 . S
C2327 C2324 1.511 . S
C2327 H2341 0.961 . S
C2327 H2342 0.961 . S
C2327 H2343 0.961 . S
C2328 C2329 1.370 . S
C2328 C2330 1.363 . S
C2328 H2344 0.931 . S
C2329 C2328 1.370 . S
C2329 C2333 1.408 . S
C2330 C2328 1.363 . S
C2330 C2331 1.370 . S
C2330 C2334 1.524 . S
C2331 C2323 1.503 . S
C2331 C2330 1.370 . S
C2331 C2332 1.403 . S
C2332 C2331 1.403 . S
C2332 C2333 1.404 . S
C2332 C2335 1.539 . S
C2333 C2329 1.408 . S
C2333 C2332 1.404 . S
C2333 H2345 0.930 . S
C2334 C2330 1.524 . S
C2334 H2346 0.956 . S
C2334 H2347 0.961 . S
C2334 H2348 0.961 . S
C2335 C2332 1.539 . S
C2335 H2349 0.958 . S
C2335 H2350 0.961 . S
C2335 H2351 0.960 . S
H2336 C2320 0.931 . S
H2337 C2325 0.929 . S
H2338 C2326 0.960 . S
H2339 C2326 0.962 . S
H2340 C2326 0.960 . S
H2341 C2327 0.961 . S
H2342 C2327 0.961 . S
H2343 C2327 0.961 . S
H2344 C2328 0.931 . S
H2345 C2333 0.930 . S
H2346 C2334 0.956 . S
H2347 C2334 0.961 . S
H2348 C2334 0.961 . S
H2349 C2335 0.958 . S
H2350 C2335 0.961 . S
H2351 C2335 0.960 . S
C2352 C2353 1.391 . S
C2352 C2354 1.394 . S
C2352 H2368 0.931 . S
C2353 C2352 1.391 . S
C2353 C2357 1.376 . S
C2354 C2352 1.394 . S
C2354 C2355 1.369 . S
C2354 C2358 1.531 . S
C2355 C2354 1.369 . S
C2355 C2356 1.410 . S
C2355 C2363 1.503 . S
C2356 C2355 1.410 . S
C2356 C2357 1.392 . S
C2356 C2359 1.511 . S
C2357 C2353 1.376 . S
C2357 C2356 1.392 . S
C2357 H2369 0.929 . S
C2358 C2354 1.531 . S
C2358 H2370 0.960 . S
C2358 H2371 0.962 . S
C2358 H2372 0.960 . S
C2359 C2356 1.511 . S
C2359 H2373 0.961 . S
C2359 H2374 0.961 . S
C2359 H2375 0.961 . S
C2360 C2361 1.370 . S
C2360 C2362 1.363 . S
C2360 H2376 0.931 . S
C2361 C2360 1.370 . S
C2361 C2365 1.408 . S
C2362 C2360 1.363 . S
C2362 C2363 1.370 . S
C2362 C2366 1.524 . S
C2363 C2355 1.503 . S
C2363 C2362 1.370 . S
C2363 C2364 1.403 . S
C2364 C2363 1.403 . S
C2364 C2365 1.404 . S
C2364 C2367 1.539 . S
C2365 C2361 1.408 . S
C2365 C2364 1.404 . S
C2365 H2377 0.930 . S
C2366 C2362 1.524 . S
C2366 H2378 0.956 . S
C2366 H2379 0.961 . S
C2366 H2380 0.961 . S
C2367 C2364 1.539 . S
C2367 H2381 0.958 . S
C2367 H2382 0.961 . S
C2367 H2383 0.960 . S
H2368 C2352 0.931 . S
H2369 C2357 0.929 . S
H2370 C2358 0.960 . S
H2371 C2358 0.962 . S
H2372 C2358 0.960 . S
H2373 C2359 0.961 . S
H2374 C2359 0.961 . S
H2375 C2359 0.961 . S
H2376 C2360 0.931 . S
H2377 C2365 0.930 . S
H2378 C2366 0.956 . S
H2379 C2366 0.961 . S
H2380 C2366 0.961 . S
H2381 C2367 0.958 . S
H2382 C2367 0.961 . S
H2383 C2367 0.960 . S
C2384 C2385 1.391 1_565 S
C2384 C2386 1.394 . S
C2384 H2400 0.931 . S
C2385 C2384 1.391 1_545 S
C2385 C2389 1.376 . S
C2386 C2384 1.394 . S
C2386 C2387 1.369 . S
C2386 C2390 1.531 . S
C2387 C2386 1.369 . S
C2387 C2388 1.410 1_565 S
C2387 C2395 1.503 . S
C2388 C2387 1.410 1_545 S
C2388 C2389 1.392 . S
C2388 C2391 1.511 . S
C2389 C2385 1.376 . S
C2389 C2388 1.392 . S
C2389 H2401 0.929 . S
C2390 C2386 1.531 . S
C2390 H2402 0.960 . S
C2390 H2403 0.962 . S
C2390 H2404 0.960 . S
C2391 C2388 1.511 . S
C2391 H2405 0.961 . S
C2391 H2406 0.961 . S
C2391 H2407 0.961 . S
C2392 C2393 1.370 . S
C2392 C2394 1.363 . S
C2392 H2408 0.931 . S
C2393 C2392 1.370 . S
C2393 C2397 1.408 . S
C2394 C2392 1.363 . S
C2394 C2395 1.370 . S
C2394 C2398 1.524 . S
C2395 C2387 1.503 . S
C2395 C2394 1.370 . S
C2395 C2396 1.403 . S
C2396 C2395 1.403 . S
C2396 C2397 1.404 . S
C2396 C2399 1.539 . S
C2397 C2393 1.408 . S
C2397 C2396 1.404 . S
C2397 H2409 0.930 . S
C2398 C2394 1.524 . S
C2398 H2410 0.956 . S
C2398 H2411 0.961 . S
C2398 H2412 0.961 . S
C2399 C2396 1.539 . S
C2399 H2413 0.958 . S
C2399 H2414 0.961 . S
C2399 H2415 0.960 . S
H2400 C2384 0.931 . S
H2401 C2389 0.929 . S
H2402 C2390 0.960 . S
H2403 C2390 0.962 . S
H2404 C2390 0.960 . S
H2405 C2391 0.961 . S
H2406 C2391 0.961 . S
H2407 C2391 0.961 . S
H2408 C2392 0.931 . S
H2409 C2397 0.930 . S
H2410 C2398 0.956 . S
H2411 C2398 0.961 . S
H2412 C2398 0.961 . S
H2413 C2399 0.958 . S
H2414 C2399 0.961 . S
H2415 C2399 0.960 . S
C2416 C2417 1.391 . S
C2416 C2418 1.394 . S
C2416 H2432 0.931 . S
C2417 C2416 1.391 . S
C2417 C2421 1.376 . S
C2418 C2416 1.394 . S
C2418 C2419 1.369 . S
C2418 C2422 1.531 . S
C2419 C2418 1.369 . S
C2419 C2420 1.410 . S
C2419 C2427 1.503 . S
C2420 C2419 1.410 . S
C2420 C2421 1.392 . S
C2420 C2423 1.511 . S
C2421 C2417 1.376 . S
C2421 C2420 1.392 . S
C2421 H2433 0.929 . S
C2422 C2418 1.531 . S
C2422 H2434 0.960 . S
C2422 H2435 0.962 . S
C2422 H2436 0.960 . S
C2423 C2420 1.511 . S
C2423 H2437 0.961 . S
C2423 H2438 0.961 . S
C2423 H2439 0.961 . S
C2424 C2425 1.370 . S
C2424 C2426 1.363 . S
C2424 H2440 0.931 . S
C2425 C2424 1.370 . S
C2425 C2429 1.408 . S
C2426 C2424 1.363 . S
C2426 C2427 1.370 . S
C2426 C2430 1.524 . S
C2427 C2419 1.503 . S
C2427 C2426 1.370 . S
C2427 C2428 1.403 . S
C2428 C2427 1.403 . S
C2428 C2429 1.404 . S
C2428 C2431 1.539 . S
C2429 C2425 1.408 . S
C2429 C2428 1.404 . S
C2429 H2441 0.930 . S
C2430 C2426 1.524 . S
C2430 H2442 0.956 . S
C2430 H2443 0.961 . S
C2430 H2444 0.961 . S
C2431 C2428 1.539 . S
C2431 H2445 0.958 . S
C2431 H2446 0.961 . S
C2431 H2447 0.960 . S
H2432 C2416 0.931 . S
H2433 C2421 0.929 . S
H2434 C2422 0.960 . S
H2435 C2422 0.962 . S
H2436 C2422 0.960 . S
H2437 C2423 0.961 . S
H2438 C2423 0.961 . S
H2439 C2423 0.961 . S
H2440 C2424 0.931 . S
H2441 C2429 0.930 . S
H2442 C2430 0.956 . S
H2443 C2430 0.961 . S
H2444 C2430 0.961 . S
H2445 C2431 0.958 . S
H2446 C2431 0.961 . S
H2447 C2431 0.960 . S
C2448 C2449 1.391 . S
C2448 C2450 1.394 . S
C2448 H2464 0.931 . S
C2449 C2448 1.391 . S
C2449 C2453 1.376 . S
C2450 C2448 1.394 . S
C2450 C2451 1.369 . S
C2450 C2454 1.531 . S
C2451 C2450 1.369 . S
C2451 C2452 1.410 . S
C2451 C2459 1.503 . S
C2452 C2451 1.410 . S
C2452 C2453 1.392 . S
C2452 C2455 1.511 . S
C2453 C2449 1.376 . S
C2453 C2452 1.392 . S
C2453 H2465 0.929 . S
C2454 C2450 1.531 . S
C2454 H2466 0.960 . S
C2454 H2467 0.962 . S
C2454 H2468 0.960 . S
C2455 C2452 1.511 . S
C2455 H2469 0.961 . S
C2455 H2470 0.961 . S
C2455 H2471 0.961 . S
C2456 C2457 1.370 . S
C2456 C2458 1.363 . S
C2456 H2472 0.931 . S
C2457 C2456 1.370 . S
C2457 C2461 1.408 . S
C2458 C2456 1.363 . S
C2458 C2459 1.370 . S
C2458 C2462 1.524 . S
C2459 C2451 1.503 . S
C2459 C2458 1.370 . S
C2459 C2460 1.403 . S
C2460 C2459 1.403 . S
C2460 C2461 1.404 . S
C2460 C2463 1.539 . S
C2461 C2457 1.408 . S
C2461 C2460 1.404 . S
C2461 H2473 0.930 . S
C2462 C2458 1.524 . S
C2462 H2474 0.956 . S
C2462 H2475 0.961 . S
C2462 H2476 0.961 . S
C2463 C2460 1.539 . S
C2463 H2477 0.958 . S
C2463 H2478 0.961 . S
C2463 H2479 0.960 . S
H2464 C2448 0.931 . S
H2465 C2453 0.929 . S
H2466 C2454 0.960 . S
H2467 C2454 0.962 . S
H2468 C2454 0.960 . S
H2469 C2455 0.961 . S
H2470 C2455 0.961 . S
H2471 C2455 0.961 . S
H2472 C2456 0.931 . S
H2473 C2461 0.930 . S
H2474 C2462 0.956 . S
H2475 C2462 0.961 . S
H2476 C2462 0.961 . S
H2477 C2463 0.958 . S
H2478 C2463 0.961 . S
H2479 C2463 0.960 . S
C2480 C2481 1.391 . S
C2480 C2482 1.394 . S
C2480 H2496 0.931 . S
C2481 C2480 1.391 . S
C2481 C2485 1.376 . S
C2482 C2480 1.394 . S
C2482 C2483 1.369 . S
C2482 C2486 1.531 . S
C2483 C2482 1.369 . S
C2483 C2484 1.410 . S
C2483 C2491 1.503 . S
C2484 C2483 1.410 . S
C2484 C2485 1.392 . S
C2484 C2487 1.511 . S
C2485 C2481 1.376 . S
C2485 C2484 1.392 . S
C2485 H2497 0.929 . S
C2486 C2482 1.531 . S
C2486 H2498 0.960 . S
C2486 H2499 0.962 . S
C2486 H2500 0.960 . S
C2487 C2484 1.511 . S
C2487 H2501 0.961 . S
C2487 H2502 0.961 . S
C2487 H2503 0.961 . S
C2488 C2489 1.370 . S
C2488 C2490 1.363 . S
C2488 H2504 0.931 . S
C2489 C2488 1.370 . S
C2489 C2493 1.408 . S
C2490 C2488 1.363 . S
C2490 C2491 1.370 . S
C2490 C2494 1.524 . S
C2491 C2483 1.503 . S
C2491 C2490 1.370 . S
C2491 C2492 1.403 . S
C2492 C2491 1.403 . S
C2492 C2493 1.404 . S
C2492 C2495 1.539 . S
C2493 C2489 1.408 . S
C2493 C2492 1.404 . S
C2493 H2505 0.930 . S
C2494 C2490 1.524 . S
C2494 H2506 0.956 . S
C2494 H2507 0.961 . S
C2494 H2508 0.961 . S
C2495 C2492 1.539 . S
C2495 H2509 0.958 . S
C2495 H2510 0.961 . S
C2495 H2511 0.960 . S
H2496 C2480 0.931 . S
H2497 C2485 0.929 . S
H2498 C2486 0.960 . S
H2499 C2486 0.962 . S
H2500 C2486 0.960 . S
H2501 C2487 0.961 . S
H2502 C2487 0.961 . S
H2503 C2487 0.961 . S
H2504 C2488 0.931 . S
H2505 C2493 0.930 . S
H2506 C2494 0.956 . S
H2507 C2494 0.961 . S
H2508 C2494 0.961 . S
H2509 C2495 0.958 . S
H2510 C2495 0.961 . S
H2511 C2495 0.960 . S
C2512 C2513 1.391 . S
C2512 C2514 1.394 . S
C2512 H2528 0.931 . S
C2513 C2512 1.391 . S
C2513 C2517 1.376 . S
C2514 C2512 1.394 . S
C2514 C2515 1.369 . S
C2514 C2518 1.531 . S
C2515 C2514 1.369 . S
C2515 C2516 1.410 . S
C2515 C2523 1.503 . S
C2516 C2515 1.410 . S
C2516 C2517 1.392 . S
C2516 C2519 1.511 . S
C2517 C2513 1.376 . S
C2517 C2516 1.392 . S
C2517 H2529 0.929 . S
C2518 C2514 1.531 . S
C2518 H2530 0.960 . S
C2518 H2531 0.962 . S
C2518 H2532 0.960 . S
C2519 C2516 1.511 . S
C2519 H2533 0.961 . S
C2519 H2534 0.961 . S
C2519 H2535 0.961 . S
C2520 C2521 1.370 . S
C2520 C2522 1.363 . S
C2520 H2536 0.931 . S
C2521 C2520 1.370 . S
C2521 C2525 1.408 . S
C2522 C2520 1.363 . S
C2522 C2523 1.370 . S
C2522 C2526 1.524 . S
C2523 C2515 1.503 . S
C2523 C2522 1.370 . S
C2523 C2524 1.403 . S
C2524 C2523 1.403 . S
C2524 C2525 1.404 . S
C2524 C2527 1.539 . S
C2525 C2521 1.408 . S
C2525 C2524 1.404 . S
C2525 H2537 0.930 . S
C2526 C2522 1.524 . S
C2526 H2538 0.956 . S
C2526 H2539 0.961 . S
C2526 H2540 0.961 . S
C2527 C2524 1.539 . S
C2527 H2541 0.958 . S
C2527 H2542 0.961 . S
C2527 H2543 0.960 . S
H2528 C2512 0.931 . S
H2529 C2517 0.929 . S
H2530 C2518 0.960 . S
H2531 C2518 0.962 . S
H2532 C2518 0.960 . S
H2533 C2519 0.961 . S
H2534 C2519 0.961 . S
H2535 C2519 0.961 . S
H2536 C2520 0.931 . S
H2537 C2525 0.930 . S
H2538 C2526 0.956 . S
H2539 C2526 0.961 . S
H2540 C2526 0.961 . S
H2541 C2527 0.958 . S
H2542 C2527 0.961 . S
H2543 C2527 0.960 . S
C2544 C2545 1.391 . S
C2544 C2546 1.394 . S
C2544 H2560 0.931 . S
C2545 C2544 1.391 . S
C2545 C2549 1.376 . S
C2546 C2544 1.394 . S
C2546 C2547 1.369 . S
C2546 C2550 1.531 . S
C2547 C2546 1.369 . S
C2547 C2548 1.410 . S
C2547 C2555 1.503 . S
C2548 C2547 1.410 . S
C2548 C2549 1.392 . S
C2548 C2551 1.511 . S
C2549 C2545 1.376 . S
C2549 C2548 1.392 . S
C2549 H2561 0.929 . S
C2550 C2546 1.531 . S
C2550 H2562 0.960 . S
C2550 H2563 0.962 . S
C2550 H2564 0.960 . S
C2551 C2548 1.511 . S
C2551 H2565 0.961 . S
C2551 H2566 0.961 . S
C2551 H2567 0.961 . S
C2552 C2553 1.370 . S
C2552 C2554 1.363 . S
C2552 H2568 0.931 . S
C2553 C2552 1.370 . S
C2553 C2557 1.408 . S
C2554 C2552 1.363 . S
C2554 C2555 1.370 . S
C2554 C2558 1.524 . S
C2555 C2547 1.503 . S
C2555 C2554 1.370 . S
C2555 C2556 1.403 . S
C2556 C2555 1.403 . S
C2556 C2557 1.404 . S
C2556 C2559 1.539 . S
C2557 C2553 1.408 . S
C2557 C2556 1.404 . S
C2557 H2569 0.930 . S
C2558 C2554 1.524 . S
C2558 H2570 0.956 . S
C2558 H2571 0.961 . S
C2558 H2572 0.961 . S
C2559 C2556 1.539 . S
C2559 H2573 0.958 . S
C2559 H2574 0.961 . S
C2559 H2575 0.960 . S
H2560 C2544 0.931 . S
H2561 C2549 0.929 . S
H2562 C2550 0.960 . S
H2563 C2550 0.962 . S
H2564 C2550 0.960 . S
H2565 C2551 0.961 . S
H2566 C2551 0.961 . S
H2567 C2551 0.961 . S
H2568 C2552 0.931 . S
H2569 C2557 0.930 . S
H2570 C2558 0.956 . S
H2571 C2558 0.961 . S
H2572 C2558 0.961 . S
H2573 C2559 0.958 . S
H2574 C2559 0.961 . S
H2575 C2559 0.960 . S
C2576 C2577 1.391 . S
C2576 C2578 1.394 . S
C2576 H2592 0.931 1_455 S
C2577 C2576 1.391 . S
C2577 C2581 1.376 . S
C2578 C2576 1.394 . S
C2578 C2579 1.369 . S
C2578 C2582 1.531 1_455 S
C2579 C2578 1.369 . S
C2579 C2580 1.410 . S
C2579 C2587 1.503 . S
C2580 C2579 1.410 . S
C2580 C2581 1.392 . S
C2580 C2583 1.511 1_556 S
C2581 C2577 1.376 . S
C2581 C2580 1.392 . S
C2581 H2593 0.929 . S
C2582 C2578 1.531 1_655 S
C2582 H2594 0.960 . S
C2582 H2595 0.962 1_655 S
C2582 H2596 0.960 . S
C2583 C2580 1.511 1_554 S
C2583 H2597 0.961 . S
C2583 H2598 0.961 . S
C2583 H2599 0.961 . S
C2584 C2585 1.333 1_556 S
C2584 C2586 1.363 . S
C2584 H2600 0.931 . S
C2585 C2584 1.333 1_554 S
C2585 C2589 1.441 . S
C2586 C2584 1.363 . S
C2586 C2587 1.370 . S
C2586 C2590 1.524 . S
C2587 C2579 1.503 . S
C2587 C2586 1.370 . S
C2587 C2588 1.403 1_556 S
C2588 C2587 1.403 1_554 S
C2588 C2589 1.404 . S
C2588 C2591 1.539 . S
C2589 C2585 1.441 . S
C2589 C2588 1.404 . S
C2589 H2601 0.930 . S
C2590 C2586 1.524 . S
C2590 H2602 0.956 . S
C2590 H2603 0.961 . S
C2590 H2604 0.961 . S
C2591 C2588 1.539 . S
C2591 H2605 0.958 1_455 S
C2591 H2606 0.961 . S
C2591 H2607 0.960 . S
H2592 C2576 0.931 1_655 S
H2593 C2581 0.929 . S
H2594 C2582 0.960 . S
H2595 C2582 0.962 1_455 S
H2596 C2582 0.960 . S
H2597 C2583 0.961 . S
H2598 C2583 0.961 . S
H2599 C2583 0.961 . S
H2600 C2584 0.931 . S
H2601 C2589 0.930 . S
H2602 C2590 0.956 . S
H2603 C2590 0.961 . S
H2604 C2590 0.961 . S
H2605 C2591 0.958 1_655 S
H2606 C2591 0.961 . S
H2607 C2591 0.960 . S
C2608 C2609 1.391 . S
C2608 C2610 1.425 . S
C2608 H2624 0.931 . S
C2609 C2608 1.391 . S
C2609 C2613 1.376 . S
C2610 C2608 1.425 . S
C2610 C2611 1.345 1_455 S
C2610 C2614 1.525 1_455 S
C2611 C2610 1.345 1_655 S
C2611 C2612 1.410 1_655 S
C2611 C2619 1.503 . S
C2612 C2611 1.410 1_455 S
C2612 C2613 1.392 . S
C2612 C2615 1.511 1_455 S
C2613 C2609 1.376 . S
C2613 C2612 1.392 . S
C2613 H2625 0.929 . S
C2614 C2610 1.525 1_655 S
C2614 H2626 0.960 . S
C2614 H2627 0.962 . S
C2614 H2628 0.960 1_655 S
C2615 C2612 1.511 1_655 S
C2615 H2629 0.961 . S
C2615 H2630 0.961 . S
C2615 H2631 0.966 . S
C2616 C2617 1.370 . S
C2616 C2618 1.363 . S
C2616 H2632 0.931 . S
C2617 C2616 1.370 . S
C2617 C2621 1.408 . S
C2618 C2616 1.363 . S
C2618 C2619 1.370 . S
C2618 C2622 1.524 . S
C2619 C2611 1.503 . S
C2619 C2618 1.370 . S
C2619 C2620 1.403 . S
C2620 C2619 1.403 . S
C2620 C2621 1.404 . S
C2620 C2623 1.539 . S
C2621 C2617 1.408 . S
C2621 C2620 1.404 . S
C2621 H2633 0.930 . S
C2622 C2618 1.524 . S
C2622 H2634 0.956 . S
C2622 H2635 0.961 . S
C2622 H2636 0.961 . S
C2623 C2620 1.539 . S
C2623 H2637 0.958 . S
C2623 H2638 0.961 . S
C2623 H2639 0.960 1_655 S
H2624 C2608 0.931 . S
H2625 C2613 0.929 . S
H2626 C2614 0.960 . S
H2627 C2614 0.962 . S
H2628 C2614 0.960 1_455 S
H2629 C2615 0.961 . S
H2630 C2615 0.961 . S
H2631 C2615 0.966 . S
H2632 C2616 0.931 . S
H2633 C2621 0.930 . S
H2634 C2622 0.956 . S
H2635 C2622 0.961 . S
H2636 C2622 0.961 . S
H2637 C2623 0.958 . S
H2638 C2623 0.961 . S
H2639 C2623 0.960 1_455 S
C2640 C2641 1.391 . S
C2640 C2642 1.394 . S
C2640 H2656 0.931 . S
C2641 C2640 1.391 . S
C2641 C2645 1.376 . S
C2642 C2640 1.394 . S
C2642 C2643 1.369 . S
C2642 C2646 1.531 . S
C2643 C2642 1.369 . S
C2643 C2644 1.410 . S
C2643 C2651 1.503 . S
C2644 C2643 1.410 . S
C2644 C2645 1.392 . S
C2644 C2647 1.511 . S
C2645 C2641 1.376 . S
C2645 C2644 1.392 . S
C2645 H2657 0.929 . S
C2646 C2642 1.531 . S
C2646 H2658 0.960 . S
C2646 H2659 0.962 . S
C2646 H2660 0.960 . S
C2647 C2644 1.511 . S
C2647 H2661 0.961 . S
C2647 H2662 0.961 . S
C2647 H2663 0.961 . S
C2648 C2649 1.370 . S
C2648 C2650 1.363 . S
C2648 H2664 0.931 . S
C2649 C2648 1.370 . S
C2649 C2653 1.408 . S
C2650 C2648 1.363 . S
C2650 C2651 1.370 . S
C2650 C2654 1.524 . S
C2651 C2643 1.503 . S
C2651 C2650 1.370 . S
C2651 C2652 1.403 . S
C2652 C2651 1.403 . S
C2652 C2653 1.404 . S
C2652 C2655 1.539 . S
C2653 C2649 1.408 . S
C2653 C2652 1.404 . S
C2653 H2665 0.930 . S
C2654 C2650 1.524 . S
C2654 H2666 0.956 . S
C2654 H2667 0.961 . S
C2654 H2668 0.961 . S
C2655 C2652 1.539 . S
C2655 H2669 0.958 . S
C2655 H2670 0.961 . S
C2655 H2671 0.960 . S
H2656 C2640 0.931 . S
H2657 C2645 0.929 . S
H2658 C2646 0.960 . S
H2659 C2646 0.962 . S
H2660 C2646 0.960 . S
H2661 C2647 0.961 . S
H2662 C2647 0.961 . S
H2663 C2647 0.961 . S
H2664 C2648 0.931 . S
H2665 C2653 0.930 . S
H2666 C2654 0.956 . S
H2667 C2654 0.961 . S
H2668 C2654 0.961 . S
H2669 C2655 0.958 . S
H2670 C2655 0.961 . S
H2671 C2655 0.960 . S
C2672 C2673 1.391 . S
C2672 C2674 1.394 . S
C2672 H2688 0.931 . S
C2673 C2672 1.391 . S
C2673 C2677 1.376 . S
C2674 C2672 1.394 . S
C2674 C2675 1.369 . S
C2674 C2678 1.531 . S
C2675 C2674 1.369 . S
C2675 C2676 1.410 . S
C2675 C2683 1.503 1_455 S
C2676 C2675 1.410 . S
C2676 C2677 1.392 . S
C2676 C2679 1.511 . S
C2677 C2673 1.376 . S
C2677 C2676 1.392 . S
C2677 H2689 0.929 . S
C2678 C2674 1.531 . S
C2678 H2690 0.960 1_455 S
C2678 H2691 0.962 1_455 S
C2678 H2692 0.960 . S
C2679 C2676 1.511 . S
C2679 H2693 0.961 . S
C2679 H2694 0.961 . S
C2679 H2695 0.961 . S
C2680 C2681 1.370 . S
C2680 C2682 1.363 . S
C2680 H2696 0.931 . S
C2681 C2680 1.370 . S
C2681 C2685 1.408 . S
C2682 C2680 1.363 . S
C2682 C2683 1.370 . S
C2682 C2686 1.524 . S
C2683 C2675 1.503 1_655 S
C2683 C2682 1.370 . S
C2683 C2684 1.403 . S
C2684 C2683 1.403 . S
C2684 C2685 1.404 . S
C2684 C2687 1.538 1_655 S
C2685 C2681 1.408 . S
C2685 C2684 1.404 . S
C2685 H2697 0.930 . S
C2686 C2682 1.524 . S
C2686 H2698 0.961 . S
C2686 H2699 0.961 1_655 S
C2686 H2700 0.961 . S
C2687 C2684 1.538 1_455 S
C2687 H2701 0.956 1_455 S
C2687 H2702 0.959 1_455 S
C2687 H2703 0.965 . S
H2688 C2672 0.931 . S
H2689 C2677 0.929 . S
H2690 C2678 0.960 1_655 S
H2691 C2678 0.962 1_655 S
H2692 C2678 0.960 . S
H2693 C2679 0.961 . S
H2694 C2679 0.961 . S
H2695 C2679 0.961 . S
H2696 C2680 0.931 . S
H2697 C2685 0.930 . S
H2698 C2686 0.961 . S
H2699 C2686 0.961 1_455 S
H2700 C2686 0.961 . S
H2701 C2687 0.956 1_655 S
H2702 C2687 0.959 1_655 S
H2703 C2687 0.965 . S
C2704 C2705 1.391 . S
C2704 C2706 1.394 . S
C2704 H2720 0.931 . S
C2705 C2704 1.391 . S
C2705 C2709 1.376 1_655 S
C2706 C2704 1.394 . S
C2706 C2707 1.369 1_655 S
C2706 C2710 1.531 . S
C2707 C2706 1.369 1_455 S
C2707 C2708 1.410 . S
C2707 C2715 1.503 . S
C2708 C2707 1.410 . S
C2708 C2709 1.392 . S
C2708 C2711 1.511 . S
C2709 C2705 1.376 1_455 S
C2709 C2708 1.392 . S
C2709 H2721 0.929 . S
C2710 C2706 1.531 . S
C2710 H2722 0.960 . S
C2710 H2723 0.962 . S
C2710 H2724 0.960 . S
C2711 C2708 1.511 . S
C2711 H2725 0.961 . S
C2711 H2726 0.961 . S
C2711 H2727 0.961 . S
C2712 C2713 1.370 . S
C2712 C2714 1.363 . S
C2712 H2728 0.931 . S
C2713 C2712 1.370 . S
C2713 C2717 1.408 . S
C2714 C2712 1.363 . S
C2714 C2715 1.370 . S
C2714 C2718 1.524 1_455 S
C2715 C2707 1.503 . S
C2715 C2714 1.370 . S
C2715 C2716 1.403 . S
C2716 C2715 1.403 . S
C2716 C2717 1.404 . S
C2716 C2719 1.539 . S
C2717 C2713 1.408 . S
C2717 C2716 1.404 . S
C2717 H2729 0.930 . S
C2718 C2714 1.524 1_655 S
C2718 H2730 0.956 . S
C2718 H2731 0.961 . S
C2718 H2732 0.961 . S
C2719 C2716 1.539 . S
C2719 H2733 0.958 . S
C2719 H2734 0.961 . S
C2719 H2735 0.960 . S
H2720 C2704 0.931 . S
H2721 C2709 0.929 . S
H2722 C2710 0.960 . S
H2723 C2710 0.962 . S
H2724 C2710 0.960 . S
H2725 C2711 0.961 . S
H2726 C2711 0.961 . S
H2727 C2711 0.961 . S
H2728 C2712 0.931 . S
H2729 C2717 0.930 . S
H2730 C2718 0.956 . S
H2731 C2718 0.961 . S
H2732 C2718 0.961 . S
H2733 C2719 0.958 . S
H2734 C2719 0.961 . S
H2735 C2719 0.960 . S
C2736 C2737 1.391 . S
C2736 C2738 1.394 . S
C2736 H2752 0.931 . S
C2737 C2736 1.391 . S
C2737 C2741 1.376 . S
C2738 C2736 1.394 . S
C2738 C2739 1.369 . S
C2738 C2742 1.531 . S
C2739 C2738 1.369 . S
C2739 C2740 1.410 . S
C2739 C2747 1.503 . S
C2740 C2739 1.410 . S
C2740 C2741 1.392 . S
C2740 C2743 1.511 . S
C2741 C2737 1.376 . S
C2741 C2740 1.392 . S
C2741 H2753 0.929 . S
C2742 C2738 1.531 . S
C2742 H2754 0.960 . S
C2742 H2755 0.962 . S
C2742 H2756 0.960 . S
C2743 C2740 1.511 . S
C2743 H2757 0.961 . S
C2743 H2758 0.961 . S
C2743 H2759 0.961 . S
C2744 C2745 1.370 . S
C2744 C2746 1.363 . S
C2744 H2760 0.931 . S
C2745 C2744 1.370 . S
C2745 C2749 1.408 . S
C2746 C2744 1.363 . S
C2746 C2747 1.370 . S
C2746 C2750 1.524 . S
C2747 C2739 1.503 . S
C2747 C2746 1.370 . S
C2747 C2748 1.403 . S
C2748 C2747 1.403 . S
C2748 C2749 1.404 . S
C2748 C2751 1.539 . S
C2749 C2745 1.408 . S
C2749 C2748 1.404 . S
C2749 H2761 0.930 . S
C2750 C2746 1.524 . S
C2750 H2762 0.956 . S
C2750 H2763 0.961 . S
C2750 H2764 0.961 . S
C2751 C2748 1.539 . S
C2751 H2765 0.958 . S
C2751 H2766 0.961 . S
C2751 H2767 0.960 . S
H2752 C2736 0.931 . S
H2753 C2741 0.929 . S
H2754 C2742 0.960 . S
H2755 C2742 0.962 . S
H2756 C2742 0.960 . S
H2757 C2743 0.961 . S
H2758 C2743 0.961 . S
H2759 C2743 0.961 . S
H2760 C2744 0.931 . S
H2761 C2749 0.930 . S
H2762 C2750 0.956 . S
H2763 C2750 0.961 . S
H2764 C2750 0.961 . S
H2765 C2751 0.958 . S
H2766 C2751 0.961 . S
H2767 C2751 0.960 . S
C2768 C2769 1.391 . S
C2768 C2770 1.394 . S
C2768 H2784 0.931 . S
C2769 C2768 1.391 . S
C2769 C2773 1.376 . S
C2770 C2768 1.394 . S
C2770 C2771 1.369 . S
C2770 C2774 1.531 . S
C2771 C2770 1.369 . S
C2771 C2772 1.410 . S
C2771 C2779 1.503 . S
C2772 C2771 1.410 . S
C2772 C2773 1.392 . S
C2772 C2775 1.511 . S
C2773 C2769 1.376 . S
C2773 C2772 1.392 . S
C2773 H2785 0.929 . S
C2774 C2770 1.531 . S
C2774 H2786 0.960 . S
C2774 H2787 0.962 . S
C2774 H2788 0.960 . S
C2775 C2772 1.511 . S
C2775 H2789 0.961 . S
C2775 H2790 0.961 . S
C2775 H2791 0.961 . S
C2776 C2777 1.370 . S
C2776 C2778 1.363 . S
C2776 H2792 0.931 . S
C2777 C2776 1.370 . S
C2777 C2781 1.408 . S
C2778 C2776 1.363 . S
C2778 C2779 1.370 . S
C2778 C2782 1.524 . S
C2779 C2771 1.503 . S
C2779 C2778 1.370 . S
C2779 C2780 1.403 . S
C2780 C2779 1.403 . S
C2780 C2781 1.404 . S
C2780 C2783 1.539 . S
C2781 C2777 1.408 . S
C2781 C2780 1.404 . S
C2781 H2793 0.930 . S
C2782 C2778 1.524 . S
C2782 H2794 0.956 . S
C2782 H2795 0.961 . S
C2782 H2796 0.961 . S
C2783 C2780 1.539 . S
C2783 H2797 0.958 . S
C2783 H2798 0.961 . S
C2783 H2799 0.960 . S
H2784 C2768 0.931 . S
H2785 C2773 0.929 . S
H2786 C2774 0.960 . S
H2787 C2774 0.962 . S
H2788 C2774 0.960 . S
H2789 C2775 0.961 . S
H2790 C2775 0.961 . S
H2791 C2775 0.961 . S
H2792 C2776 0.931 . S
H2793 C2781 0.930 . S
H2794 C2782 0.956 . S
H2795 C2782 0.961 . S
H2796 C2782 0.961 . S
H2797 C2783 0.958 . S
H2798 C2783 0.961 . S
H2799 C2783 0.960 . S
C2800 C2801 1.391 . S
C2800 C2802 1.394 . S
C2800 H2816 0.931 . S
C2801 C2800 1.391 . S
C2801 C2805 1.376 . S
C2802 C2800 1.394 . S
C2802 C2803 1.369 . S
C2802 C2806 1.531 . S
C2803 C2802 1.369 . S
C2803 C2804 1.410 . S
C2803 C2811 1.503 . S
C2804 C2803 1.410 . S
C2804 C2805 1.392 . S
C2804 C2807 1.511 . S
C2805 C2801 1.376 . S
C2805 C2804 1.392 . S
C2805 H2817 0.929 . S
C2806 C2802 1.531 . S
C2806 H2818 0.960 . S
C2806 H2819 0.962 . S
C2806 H2820 0.960 . S
C2807 C2804 1.511 . S
C2807 H2821 0.961 . S
C2807 H2822 0.961 . S
C2807 H2823 0.961 . S
C2808 C2809 1.370 . S
C2808 C2810 1.363 . S
C2808 H2824 0.931 . S
C2809 C2808 1.370 . S
C2809 C2813 1.408 . S
C2810 C2808 1.363 . S
C2810 C2811 1.370 . S
C2810 C2814 1.524 . S
C2811 C2803 1.503 . S
C2811 C2810 1.370 . S
C2811 C2812 1.403 . S
C2812 C2811 1.403 . S
C2812 C2813 1.404 . S
C2812 C2815 1.539 . S
C2813 C2809 1.408 . S
C2813 C2812 1.404 . S
C2813 H2825 0.930 . S
C2814 C2810 1.524 . S
C2814 H2826 0.956 . S
C2814 H2827 0.961 . S
C2814 H2828 0.961 . S
C2815 C2812 1.539 . S
C2815 H2829 0.958 . S
C2815 H2830 0.961 . S
C2815 H2831 0.960 . S
H2816 C2800 0.931 . S
H2817 C2805 0.929 . S
H2818 C2806 0.960 . S
H2819 C2806 0.962 . S
H2820 C2806 0.960 . S
H2821 C2807 0.961 . S
H2822 C2807 0.961 . S
H2823 C2807 0.961 . S
H2824 C2808 0.931 . S
H2825 C2813 0.930 . S
H2826 C2814 0.956 . S
H2827 C2814 0.961 . S
H2828 C2814 0.961 . S
H2829 C2815 0.958 . S
H2830 C2815 0.961 . S
H2831 C2815 0.960 . S
C2832 C2833 1.391 . S
C2832 C2834 1.394 . S
C2832 H2848 0.931 . S
C2833 C2832 1.391 . S
C2833 C2837 1.376 . S
C2834 C2832 1.394 . S
C2834 C2835 1.369 . S
C2834 C2838 1.531 . S
C2835 C2834 1.369 . S
C2835 C2836 1.410 . S
C2835 C2843 1.503 . S
C2836 C2835 1.410 . S
C2836 C2837 1.392 . S
C2836 C2839 1.511 . S
C2837 C2833 1.376 . S
C2837 C2836 1.392 . S
C2837 H2849 0.929 . S
C2838 C2834 1.531 . S
C2838 H2850 0.960 . S
C2838 H2851 0.962 . S
C2838 H2852 0.960 . S
C2839 C2836 1.511 . S
C2839 H2853 0.961 . S
C2839 H2854 0.961 . S
C2839 H2855 0.961 . S
C2840 C2841 1.370 . S
C2840 C2842 1.363 . S
C2840 H2856 0.931 . S
C2841 C2840 1.370 . S
C2841 C2845 1.408 . S
C2842 C2840 1.363 . S
C2842 C2843 1.370 . S
C2842 C2846 1.524 . S
C2843 C2835 1.503 . S
C2843 C2842 1.370 . S
C2843 C2844 1.403 . S
C2844 C2843 1.403 . S
C2844 C2845 1.404 . S
C2844 C2847 1.539 . S
C2845 C2841 1.408 . S
C2845 C2844 1.404 . S
C2845 H2857 0.930 . S
C2846 C2842 1.524 . S
C2846 H2858 0.956 . S
C2846 H2859 0.961 . S
C2846 H2860 0.961 . S
C2847 C2844 1.539 . S
C2847 H2861 0.958 . S
C2847 H2862 0.961 . S
C2847 H2863 0.960 . S
H2848 C2832 0.931 . S
H2849 C2837 0.929 . S
H2850 C2838 0.960 . S
H2851 C2838 0.962 . S
H2852 C2838 0.960 . S
H2853 C2839 0.961 . S
H2854 C2839 0.961 . S
H2855 C2839 0.961 . S
H2856 C2840 0.931 . S
H2857 C2845 0.930 . S
H2858 C2846 0.956 . S
H2859 C2846 0.961 . S
H2860 C2846 0.961 . S
H2861 C2847 0.958 . S
H2862 C2847 0.961 . S
H2863 C2847 0.960 . S
C2864 C2865 1.391 . S
C2864 C2866 1.394 . S
C2864 H2880 0.931 . S
C2865 C2864 1.391 . S
C2865 C2869 1.376 . S
C2866 C2864 1.394 . S
C2866 C2867 1.369 . S
C2866 C2870 1.531 . S
C2867 C2866 1.369 . S
C2867 C2868 1.410 . S
C2867 C2875 1.503 . S
C2868 C2867 1.410 . S
C2868 C2869 1.392 . S
C2868 C2871 1.511 . S
C2869 C2865 1.376 . S
C2869 C2868 1.392 . S
C2869 H2881 0.929 . S
C2870 C2866 1.531 . S
C2870 H2882 0.960 . S
C2870 H2883 0.962 . S
C2870 H2884 0.960 . S
C2871 C2868 1.511 . S
C2871 H2885 0.961 . S
C2871 H2886 0.961 . S
C2871 H2887 0.961 . S
C2872 C2873 1.370 . S
C2872 C2874 1.363 . S
C2872 H2888 0.931 . S
C2873 C2872 1.370 . S
C2873 C2877 1.408 . S
C2874 C2872 1.363 . S
C2874 C2875 1.370 . S
C2874 C2878 1.524 . S
C2875 C2867 1.503 . S
C2875 C2874 1.370 . S
C2875 C2876 1.403 . S
C2876 C2875 1.403 . S
C2876 C2877 1.404 . S
C2876 C2879 1.539 . S
C2877 C2873 1.408 . S
C2877 C2876 1.404 . S
C2877 H2889 0.930 . S
C2878 C2874 1.524 . S
C2878 H2890 0.956 . S
C2878 H2891 0.961 . S
C2878 H2892 0.961 . S
C2879 C2876 1.539 . S
C2879 H2893 0.958 . S
C2879 H2894 0.961 . S
C2879 H2895 0.960 . S
H2880 C2864 0.931 . S
H2881 C2869 0.929 . S
H2882 C2870 0.960 . S
H2883 C2870 0.962 . S
H2884 C2870 0.960 . S
H2885 C2871 0.961 . S
H2886 C2871 0.961 . S
H2887 C2871 0.961 . S
H2888 C2872 0.931 . S
H2889 C2877 0.930 . S
H2890 C2878 0.956 . S
H2891 C2878 0.961 . S
H2892 C2878 0.961 . S
H2893 C2879 0.958 . S
H2894 C2879 0.961 . S
H2895 C2879 0.960 . S
C2896 C2897 1.391 . S
C2896 C2898 1.394 . S
C2896 H2912 0.931 . S
C2897 C2896 1.391 . S
C2897 C2901 1.376 . S
C2898 C2896 1.394 . S
C2898 C2899 1.369 . S
C2898 C2902 1.531 . S
C2899 C2898 1.369 . S
C2899 C2900 1.410 . S
C2899 C2907 1.503 . S
C2900 C2899 1.410 . S
C2900 C2901 1.392 . S
C2900 C2903 1.511 . S
C2901 C2897 1.376 . S
C2901 C2900 1.392 . S
C2901 H2913 0.929 . S
C2902 C2898 1.531 . S
C2902 H2914 0.960 . S
C2902 H2915 0.962 . S
C2902 H2916 0.960 . S
C2903 C2900 1.511 . S
C2903 H2917 0.961 . S
C2903 H2918 0.961 . S
C2903 H2919 0.961 . S
C2904 C2905 1.370 . S
C2904 C2906 1.363 . S
C2904 H2920 0.931 . S
C2905 C2904 1.370 . S
C2905 C2909 1.408 . S
C2906 C2904 1.363 . S
C2906 C2907 1.370 . S
C2906 C2910 1.524 . S
C2907 C2899 1.503 . S
C2907 C2906 1.370 . S
C2907 C2908 1.403 . S
C2908 C2907 1.403 . S
C2908 C2909 1.404 . S
C2908 C2911 1.539 . S
C2909 C2905 1.408 . S
C2909 C2908 1.404 . S
C2909 H2921 0.930 . S
C2910 C2906 1.524 . S
C2910 H2922 0.956 . S
C2910 H2923 0.961 . S
C2910 H2924 0.961 . S
C2911 C2908 1.539 . S
C2911 H2925 0.958 . S
C2911 H2926 0.961 . S
C2911 H2927 0.960 . S
H2912 C2896 0.931 . S
H2913 C2901 0.929 . S
H2914 C2902 0.960 . S
H2915 C2902 0.962 . S
H2916 C2902 0.960 . S
H2917 C2903 0.961 . S
H2918 C2903 0.961 . S
H2919 C2903 0.961 . S
H2920 C2904 0.931 . S
H2921 C2909 0.930 . S
H2922 C2910 0.956 . S
H2923 C2910 0.961 . S
H2924 C2910 0.961 . S
H2925 C2911 0.958 . S
H2926 C2911 0.961 . S
H2927 C2911 0.960 . S
C2928 C2929 1.391 . S
C2928 C2930 1.394 . S
C2928 H2944 0.931 . S
C2929 C2928 1.391 . S
C2929 C2933 1.376 . S
C2930 C2928 1.394 . S
C2930 C2931 1.369 . S
C2930 C2934 1.531 . S
C2931 C2930 1.369 . S
C2931 C2932 1.410 . S
C2931 C2939 1.503 . S
C2932 C2931 1.410 . S
C2932 C2933 1.392 . S
C2932 C2935 1.511 . S
C2933 C2929 1.376 . S
C2933 C2932 1.392 . S
C2933 H2945 0.929 . S
C2934 C2930 1.531 . S
C2934 H2946 0.960 . S
C2934 H2947 0.962 . S
C2934 H2948 0.960 . S
C2935 C2932 1.511 . S
C2935 H2949 0.961 . S
C2935 H2950 0.961 . S
C2935 H2951 0.961 . S
C2936 C2937 1.370 . S
C2936 C2938 1.363 . S
C2936 H2952 0.931 . S
C2937 C2936 1.370 . S
C2937 C2941 1.408 . S
C2938 C2936 1.363 . S
C2938 C2939 1.370 . S
C2938 C2942 1.524 . S
C2939 C2931 1.503 . S
C2939 C2938 1.370 . S
C2939 C2940 1.403 . S
C2940 C2939 1.403 . S
C2940 C2941 1.404 . S
C2940 C2943 1.539 . S
C2941 C2937 1.408 . S
C2941 C2940 1.404 . S
C2941 H2953 0.930 . S
C2942 C2938 1.524 . S
C2942 H2954 0.956 . S
C2942 H2955 0.961 . S
C2942 H2956 0.961 . S
C2943 C2940 1.539 . S
C2943 H2957 0.958 . S
C2943 H2958 0.961 . S
C2943 H2959 0.960 . S
H2944 C2928 0.931 . S
H2945 C2933 0.929 . S
H2946 C2934 0.960 . S
H2947 C2934 0.962 . S
H2948 C2934 0.960 . S
H2949 C2935 0.961 . S
H2950 C2935 0.961 . S
H2951 C2935 0.961 . S
H2952 C2936 0.931 . S
H2953 C2941 0.930 . S
H2954 C2942 0.956 . S
H2955 C2942 0.961 . S
H2956 C2942 0.961 . S
H2957 C2943 0.958 . S
H2958 C2943 0.961 . S
H2959 C2943 0.960 . S
C2960 C2961 1.391 . S
C2960 C2962 1.394 . S
C2960 H2976 0.931 . S
C2961 C2960 1.391 . S
C2961 C2965 1.376 . S
C2962 C2960 1.394 . S
C2962 C2963 1.369 . S
C2962 C2966 1.531 . S
C2963 C2962 1.369 . S
C2963 C2964 1.410 . S
C2963 C2971 1.503 . S
C2964 C2963 1.410 . S
C2964 C2965 1.392 . S
C2964 C2967 1.511 . S
C2965 C2961 1.376 . S
C2965 C2964 1.392 . S
C2965 H2977 0.929 . S
C2966 C2962 1.531 . S
C2966 H2978 0.960 . S
C2966 H2979 0.962 . S
C2966 H2980 0.960 . S
C2967 C2964 1.511 . S
C2967 H2981 0.961 . S
C2967 H2982 0.961 . S
C2967 H2983 0.961 . S
C2968 C2969 1.370 . S
C2968 C2970 1.363 . S
C2968 H2984 0.931 . S
C2969 C2968 1.370 . S
C2969 C2973 1.408 . S
C2970 C2968 1.363 . S
C2970 C2971 1.370 . S
C2970 C2974 1.524 . S
C2971 C2963 1.503 . S
C2971 C2970 1.370 . S
C2971 C2972 1.403 . S
C2972 C2971 1.403 . S
C2972 C2973 1.404 . S
C2972 C2975 1.539 . S
C2973 C2969 1.408 . S
C2973 C2972 1.404 . S
C2973 H2985 0.930 . S
C2974 C2970 1.524 . S
C2974 H2986 0.956 . S
C2974 H2987 0.961 . S
C2974 H2988 0.961 . S
C2975 C2972 1.539 . S
C2975 H2989 0.958 . S
C2975 H2990 0.961 . S
C2975 H2991 0.960 . S
H2976 C2960 0.931 . S
H2977 C2965 0.929 . S
H2978 C2966 0.960 . S
H2979 C2966 0.962 . S
H2980 C2966 0.960 . S
H2981 C2967 0.961 . S
H2982 C2967 0.961 . S
H2983 C2967 0.961 . S
H2984 C2968 0.931 . S
H2985 C2973 0.930 . S
H2986 C2974 0.956 . S
H2987 C2974 0.961 . S
H2988 C2974 0.961 . S
H2989 C2975 0.958 . S
H2990 C2975 0.961 . S
H2991 C2975 0.960 . S
C2992 C2993 1.391 . S
C2992 C2994 1.394 . S
C2992 H3008 0.931 . S
C2993 C2992 1.391 . S
C2993 C2997 1.376 . S
C2994 C2992 1.394 . S
C2994 C2995 1.369 . S
C2994 C2998 1.531 . S
C2995 C2994 1.369 . S
C2995 C2996 1.410 . S
C2995 C3003 1.503 . S
C2996 C2995 1.410 . S
C2996 C2997 1.392 . S
C2996 C2999 1.511 . S
C2997 C2993 1.376 . S
C2997 C2996 1.392 . S
C2997 H3009 0.929 . S
C2998 C2994 1.531 . S
C2998 H3010 0.960 . S
C2998 H3011 0.962 . S
C2998 H3012 0.960 . S
C2999 C2996 1.511 . S
C2999 H3013 0.961 . S
C2999 H3014 0.961 . S
C2999 H3015 0.961 . S
C3000 C3001 1.370 . S
C3000 C3002 1.363 . S
C3000 H3016 0.931 . S
C3001 C3000 1.370 . S
C3001 C3005 1.408 . S
C3002 C3000 1.363 . S
C3002 C3003 1.370 . S
C3002 C3006 1.524 . S
C3003 C2995 1.503 . S
C3003 C3002 1.370 . S
C3003 C3004 1.403 . S
C3004 C3003 1.403 . S
C3004 C3005 1.404 . S
C3004 C3007 1.539 . S
C3005 C3001 1.408 . S
C3005 C3004 1.404 . S
C3005 H3017 0.930 . S
C3006 C3002 1.524 . S
C3006 H3018 0.956 . S
C3006 H3019 0.961 . S
C3006 H3020 0.961 . S
C3007 C3004 1.539 . S
C3007 H3021 0.958 . S
C3007 H3022 0.961 . S
C3007 H3023 0.960 . S
H3008 C2992 0.931 . S
H3009 C2997 0.929 . S
H3010 C2998 0.960 . S
H3011 C2998 0.962 . S
H3012 C2998 0.960 . S
H3013 C2999 0.961 . S
H3014 C2999 0.961 . S
H3015 C2999 0.961 . S
H3016 C3000 0.931 . S
H3017 C3005 0.930 . S
H3018 C3006 0.956 . S
H3019 C3006 0.961 . S
H3020 C3006 0.961 . S
H3021 C3007 0.958 . S
H3022 C3007 0.961 . S
H3023 C3007 0.960 . S
C3024 C3025 1.391 . S
C3024 C3026 1.394 . S
C3024 H3040 0.931 . S
C3025 C3024 1.391 . S
C3025 C3029 1.376 . S
C3026 C3024 1.394 . S
C3026 C3027 1.369 . S
C3026 C3030 1.531 . S
C3027 C3026 1.369 . S
C3027 C3028 1.410 . S
C3027 C3035 1.503 . S
C3028 C3027 1.410 . S
C3028 C3029 1.392 . S
C3028 C3031 1.511 . S
C3029 C3025 1.376 . S
C3029 C3028 1.392 . S
C3029 H3041 0.929 . S
C3030 C3026 1.531 . S
C3030 H3042 0.960 . S
C3030 H3043 0.962 . S
C3030 H3044 0.960 . S
C3031 C3028 1.511 . S
C3031 H3045 0.961 . S
C3031 H3046 0.961 . S
C3031 H3047 0.961 . S
C3032 C3033 1.370 . S
C3032 C3034 1.363 . S
C3032 H3048 0.931 . S
C3033 C3032 1.370 . S
C3033 C3037 1.408 . S
C3034 C3032 1.363 . S
C3034 C3035 1.370 . S
C3034 C3038 1.524 . S
C3035 C3027 1.503 . S
C3035 C3034 1.370 . S
C3035 C3036 1.403 . S
C3036 C3035 1.403 . S
C3036 C3037 1.404 . S
C3036 C3039 1.539 . S
C3037 C3033 1.408 . S
C3037 C3036 1.404 . S
C3037 H3049 0.930 . S
C3038 C3034 1.524 . S
C3038 H3050 0.956 . S
C3038 H3051 0.961 . S
C3038 H3052 0.961 . S
C3039 C3036 1.539 . S
C3039 H3053 0.958 . S
C3039 H3054 0.961 . S
C3039 H3055 0.960 . S
H3040 C3024 0.931 . S
H3041 C3029 0.929 . S
H3042 C3030 0.960 . S
H3043 C3030 0.962 . S
H3044 C3030 0.960 . S
H3045 C3031 0.961 . S
H3046 C3031 0.961 . S
H3047 C3031 0.961 . S
H3048 C3032 0.931 . S
H3049 C3037 0.930 . S
H3050 C3038 0.956 . S
H3051 C3038 0.961 . S
H3052 C3038 0.961 . S
H3053 C3039 0.958 . S
H3054 C3039 0.961 . S
H3055 C3039 0.960 . S
C3056 C3057 1.391 . S
C3056 C3058 1.394 . S
C3056 H3072 0.931 . S
C3057 C3056 1.391 . S
C3057 C3061 1.376 . S
C3058 C3056 1.394 . S
C3058 C3059 1.369 . S
C3058 C3062 1.531 . S
C3059 C3058 1.369 . S
C3059 C3060 1.410 . S
C3059 C3067 1.503 . S
C3060 C3059 1.410 . S
C3060 C3061 1.392 . S
C3060 C3063 1.511 . S
C3061 C3057 1.376 . S
C3061 C3060 1.392 . S
C3061 H3073 0.929 . S
C3062 C3058 1.531 . S
C3062 H3074 0.960 . S
C3062 H3075 0.962 . S
C3062 H3076 0.960 . S
C3063 C3060 1.511 . S
C3063 H3077 0.961 . S
C3063 H3078 0.961 . S
C3063 H3079 0.961 . S
C3064 C3065 1.370 . S
C3064 C3066 1.363 . S
C3064 H3080 0.931 . S
C3065 C3064 1.370 . S
C3065 C3069 1.408 . S
C3066 C3064 1.363 . S
C3066 C3067 1.370 . S
C3066 C3070 1.524 . S
C3067 C3059 1.503 . S
C3067 C3066 1.370 . S
C3067 C3068 1.403 . S
C3068 C3067 1.403 . S
C3068 C3069 1.404 . S
C3068 C3071 1.539 . S
C3069 C3065 1.408 . S
C3069 C3068 1.404 . S
C3069 H3081 0.930 . S
C3070 C3066 1.524 . S
C3070 H3082 0.956 . S
C3070 H3083 0.961 . S
C3070 H3084 0.961 . S
C3071 C3068 1.539 . S
C3071 H3085 0.958 . S
C3071 H3086 0.961 . S
C3071 H3087 0.960 . S
H3072 C3056 0.931 . S
H3073 C3061 0.929 . S
H3074 C3062 0.960 . S
H3075 C3062 0.962 . S
H3076 C3062 0.960 . S
H3077 C3063 0.961 . S
H3078 C3063 0.961 . S
H3079 C3063 0.961 . S
H3080 C3064 0.931 . S
H3081 C3069 0.930 . S
H3082 C3070 0.956 . S
H3083 C3070 0.961 . S
H3084 C3070 0.961 . S
H3085 C3071 0.958 . S
H3086 C3071 0.961 . S
H3087 C3071 0.960 . S
C3088 C3089 1.391 . S
C3088 C3090 1.394 . S
C3088 H3104 0.931 . S
C3089 C3088 1.391 . S
C3089 C3093 1.376 . S
C3090 C3088 1.394 . S
C3090 C3091 1.369 . S
C3090 C3094 1.531 . S
C3091 C3090 1.369 . S
C3091 C3092 1.410 . S
C3091 C3099 1.503 . S
C3092 C3091 1.410 . S
C3092 C3093 1.392 . S
C3092 C3095 1.511 . S
C3093 C3089 1.376 . S
C3093 C3092 1.392 . S
C3093 H3105 0.929 . S
C3094 C3090 1.531 . S
C3094 H3106 0.960 . S
C3094 H3107 0.962 . S
C3094 H3108 0.960 . S
C3095 C3092 1.511 . S
C3095 H3109 0.961 . S
C3095 H3110 0.961 . S
C3095 H3111 0.961 . S
C3096 C3097 1.370 . S
C3096 C3098 1.363 . S
C3096 H3112 0.931 . S
C3097 C3096 1.370 . S
C3097 C3101 1.408 . S
C3098 C3096 1.363 . S
C3098 C3099 1.370 . S
C3098 C3102 1.524 . S
C3099 C3091 1.503 . S
C3099 C3098 1.370 . S
C3099 C3100 1.403 . S
C3100 C3099 1.403 . S
C3100 C3101 1.404 . S
C3100 C3103 1.539 . S
C3101 C3097 1.408 . S
C3101 C3100 1.404 . S
C3101 H3113 0.930 . S
C3102 C3098 1.524 . S
C3102 H3114 0.956 . S
C3102 H3115 0.961 . S
C3102 H3116 0.961 . S
C3103 C3100 1.539 . S
C3103 H3117 0.958 . S
C3103 H3118 0.961 . S
C3103 H3119 0.960 . S
H3104 C3088 0.931 . S
H3105 C3093 0.929 . S
H3106 C3094 0.960 . S
H3107 C3094 0.962 . S
H3108 C3094 0.960 . S
H3109 C3095 0.961 . S
H3110 C3095 0.961 . S
H3111 C3095 0.961 . S
H3112 C3096 0.931 . S
H3113 C3101 0.930 . S
H3114 C3102 0.956 . S
H3115 C3102 0.961 . S
H3116 C3102 0.961 . S
H3117 C3103 0.958 . S
H3118 C3103 0.961 . S
H3119 C3103 0.960 . S
C3120 C3121 1.391 . S
C3120 C3122 1.394 . S
C3120 H3136 0.931 . S
C3121 C3120 1.391 . S
C3121 C3125 1.376 . S
C3122 C3120 1.394 . S
C3122 C3123 1.369 . S
C3122 C3126 1.531 1_565 S
C3123 C3122 1.369 . S
C3123 C3124 1.410 . S
C3123 C3131 1.503 . S
C3124 C3123 1.410 . S
C3124 C3125 1.392 . S
C3124 C3127 1.524 . S
C3125 C3121 1.376 . S
C3125 C3124 1.392 . S
C3125 H3137 0.929 . S
C3126 C3122 1.531 1_545 S
C3126 H3138 0.960 . S
C3126 H3139 0.962 . S
C3126 H3140 0.960 . S
C3127 C3124 1.524 . S
C3127 H3141 0.939 1_554 S
C3127 H3142 0.931 1_554 S
C3127 H3143 1.002 . S
C3128 C3129 1.370 1_556 S
C3128 C3130 1.363 1_545 S
C3128 H3144 0.931 . S
C3129 C3128 1.370 1_554 S
C3129 C3133 1.408 . S
C3130 C3128 1.363 1_565 S
C3130 C3131 1.370 1_556 S
C3130 C3134 1.524 . S
C3131 C3123 1.503 . S
C3131 C3130 1.370 1_554 S
C3131 C3132 1.403 . S
C3132 C3131 1.403 . S
C3132 C3133 1.404 1_565 S
C3132 C3135 1.539 . S
C3133 C3129 1.408 . S
C3133 C3132 1.404 1_545 S
C3133 H3145 0.930 . S
C3134 C3130 1.524 . S
C3134 H3146 0.956 1_565 S
C3134 H3147 0.961 . S
C3134 H3148 0.961 . S
C3135 C3132 1.539 . S
C3135 H3149 0.955 . S
C3135 H3150 0.961 . S
C3135 H3151 0.960 . S
H3136 C3120 0.931 . S
H3137 C3125 0.929 . S
H3138 C3126 0.960 . S
H3139 C3126 0.962 . S
H3140 C3126 0.960 . S
H3141 C3127 0.939 1_556 S
H3142 C3127 0.931 1_556 S
H3143 C3127 1.002 . S
H3144 C3128 0.931 . S
H3145 C3133 0.930 . S
H3146 C3134 0.956 1_545 S
H3147 C3134 0.961 . S
H3148 C3134 0.961 . S
H3149 C3135 0.955 . S
H3150 C3135 0.961 . S
H3151 C3135 0.960 . S
C3152 C3153 1.391 . S
C3152 C3154 1.394 . S
C3152 H3168 0.931 . S
C3153 C3152 1.391 . S
C3153 C3157 1.376 . S
C3154 C3152 1.394 . S
C3154 C3155 1.369 . S
C3154 C3158 1.531 . S
C3155 C3154 1.369 . S
C3155 C3156 1.410 . S
C3155 C3163 1.503 . S
C3156 C3155 1.410 . S
C3156 C3157 1.392 . S
C3156 C3159 1.511 . S
C3157 C3153 1.376 . S
C3157 C3156 1.392 . S
C3157 H3169 0.929 . S
C3158 C3154 1.531 . S
C3158 H3170 0.960 . S
C3158 H3171 0.962 . S
C3158 H3172 0.960 . S
C3159 C3156 1.511 . S
C3159 H3173 0.961 . S
C3159 H3174 0.961 . S
C3159 H3175 0.961 . S
C3160 C3161 1.370 . S
C3160 C3162 1.363 . S
C3160 H3176 0.931 . S
C3161 C3160 1.370 . S
C3161 C3165 1.408 . S
C3162 C3160 1.363 . S
C3162 C3163 1.370 . S
C3162 C3166 1.524 . S
C3163 C3155 1.503 . S
C3163 C3162 1.370 . S
C3163 C3164 1.403 . S
C3164 C3163 1.403 . S
C3164 C3165 1.404 . S
C3164 C3167 1.539 . S
C3165 C3161 1.408 . S
C3165 C3164 1.404 . S
C3165 H3177 0.930 . S
C3166 C3162 1.524 . S
C3166 H3178 0.956 . S
C3166 H3179 0.961 . S
C3166 H3180 0.961 . S
C3167 C3164 1.539 . S
C3167 H3181 0.958 . S
C3167 H3182 0.961 . S
C3167 H3183 0.960 . S
H3168 C3152 0.931 . S
H3169 C3157 0.929 . S
H3170 C3158 0.960 . S
H3171 C3158 0.962 . S
H3172 C3158 0.960 . S
H3173 C3159 0.961 . S
H3174 C3159 0.961 . S
H3175 C3159 0.961 . S
H3176 C3160 0.931 . S
H3177 C3165 0.930 . S
H3178 C3166 0.956 . S
H3179 C3166 0.961 . S
H3180 C3166 0.961 . S
H3181 C3167 0.958 . S
H3182 C3167 0.961 . S
H3183 C3167 0.960 . S
C3184 C3185 1.391 . S
C3184 C3186 1.394 . S
C3184 H3200 0.931 . S
C3185 C3184 1.391 . S
C3185 C3189 1.376 . S
C3186 C3184 1.394 . S
C3186 C3187 1.369 . S
C3186 C3190 1.531 . S
C3187 C3186 1.369 . S
C3187 C3188 1.410 . S
C3187 C3195 1.503 . S
C3188 C3187 1.410 . S
C3188 C3189 1.392 . S
C3188 C3191 1.511 . S
C3189 C3185 1.376 . S
C3189 C3188 1.392 . S
C3189 H3201 0.929 1_554 S
C3190 C3186 1.531 . S
C3190 H3202 0.960 . S
C3190 H3203 0.962 . S
C3190 H3204 0.960 . S
C3191 C3188 1.511 . S
C3191 H3205 0.961 . S
C3191 H3206 0.961 . S
C3191 H3207 0.961 1_554 S
C3192 C3193 1.370 . S
C3192 C3194 1.363 . S
C3192 H3208 0.931 . S
C3193 C3192 1.370 . S
C3193 C3197 1.408 . S
C3194 C3192 1.363 . S
C3194 C3195 1.370 . S
C3194 C3198 1.524 . S
C3195 C3187 1.503 . S
C3195 C3194 1.370 . S
C3195 C3196 1.403 . S
C3196 C3195 1.403 . S
C3196 C3197 1.404 . S
C3196 C3199 1.539 1_554 S
C3197 C3193 1.408 . S
C3197 C3196 1.404 . S
C3197 H3209 0.930 . S
C3198 C3194 1.524 . S
C3198 H3210 0.956 . S
C3198 H3211 0.961 . S
C3198 H3212 0.961 . S
C3199 C3196 1.539 1_556 S
C3199 H3213 0.958 . S
C3199 H3214 0.961 . S
C3199 H3215 0.960 . S
H3200 C3184 0.931 . S
H3201 C3189 0.929 1_556 S
H3202 C3190 0.960 . S
H3203 C3190 0.962 . S
H3204 C3190 0.960 . S
H3205 C3191 0.961 . S
H3206 C3191 0.961 . S
H3207 C3191 0.961 1_556 S
H3208 C3192 0.931 . S
H3209 C3197 0.930 . S
H3210 C3198 0.956 . S
H3211 C3198 0.961 . S
H3212 C3198 0.961 . S
H3213 C3199 0.958 . S
H3214 C3199 0.961 . S
H3215 C3199 0.960 . S
C3216 C3217 1.391 . S
C3216 C3218 1.394 . S
C3216 H3232 0.931 . S
C3217 C3216 1.391 . S
C3217 C3221 1.376 . S
C3218 C3216 1.394 . S
C3218 C3219 1.369 . S
C3218 C3222 1.531 . S
C3219 C3218 1.369 . S
C3219 C3220 1.410 . S
C3219 C3227 1.503 . S
C3220 C3219 1.410 . S
C3220 C3221 1.392 . S
C3220 C3223 1.511 . S
C3221 C3217 1.376 . S
C3221 C3220 1.392 . S
C3221 H3233 0.929 . S
C3222 C3218 1.531 . S
C3222 H3234 0.960 . S
C3222 H3235 0.962 . S
C3222 H3236 0.960 . S
C3223 C3220 1.511 . S
C3223 H3237 0.961 . S
C3223 H3238 0.961 . S
C3223 H3239 0.961 . S
C3224 C3225 1.370 . S
C3224 C3226 1.363 . S
C3224 H3240 0.931 . S
C3225 C3224 1.370 . S
C3225 C3229 1.408 . S
C3226 C3224 1.363 . S
C3226 C3227 1.370 . S
C3226 C3230 1.524 . S
C3227 C3219 1.503 . S
C3227 C3226 1.370 . S
C3227 C3228 1.403 . S
C3228 C3227 1.403 . S
C3228 C3229 1.404 . S
C3228 C3231 1.539 . S
C3229 C3225 1.408 . S
C3229 C3228 1.404 . S
C3229 H3241 0.930 . S
C3230 C3226 1.524 . S
C3230 H3242 0.956 . S
C3230 H3243 0.961 . S
C3230 H3244 0.961 . S
C3231 C3228 1.539 . S
C3231 H3245 0.958 . S
C3231 H3246 0.961 . S
C3231 H3247 0.960 . S
H3232 C3216 0.931 . S
H3233 C3221 0.929 . S
H3234 C3222 0.960 . S
H3235 C3222 0.962 . S
H3236 C3222 0.960 . S
H3237 C3223 0.961 . S
H3238 C3223 0.961 . S
H3239 C3223 0.961 . S
H3240 C3224 0.931 . S
H3241 C3229 0.930 . S
H3242 C3230 0.956 . S
H3243 C3230 0.961 . S
H3244 C3230 0.961 . S
H3245 C3231 0.958 . S
H3246 C3231 0.961 . S
H3247 C3231 0.960 . S
C3248 C3249 1.391 . S
C3248 C3250 1.394 . S
C3248 H3264 0.931 . S
C3249 C3248 1.391 . S
C3249 C3253 1.376 . S
C3250 C3248 1.394 . S
C3250 C3251 1.369 . S
C3250 C3254 1.531 . S
C3251 C3250 1.369 . S
C3251 C3252 1.410 . S
C3251 C3259 1.503 . S
C3252 C3251 1.410 . S
C3252 C3253 1.392 . S
C3252 C3255 1.511 . S
C3253 C3249 1.376 . S
C3253 C3252 1.392 . S
C3253 H3265 0.929 . S
C3254 C3250 1.531 . S
C3254 H3266 0.960 . S
C3254 H3267 0.962 . S
C3254 H3268 0.960 . S
C3255 C3252 1.511 . S
C3255 H3269 0.961 . S
C3255 H3270 0.961 . S
C3255 H3271 0.961 . S
C3256 C3257 1.370 . S
C3256 C3258 1.363 . S
C3256 H3272 0.931 . S
C3257 C3256 1.370 . S
C3257 C3261 1.408 . S
C3258 C3256 1.363 . S
C3258 C3259 1.370 . S
C3258 C3262 1.524 . S
C3259 C3251 1.503 . S
C3259 C3258 1.370 . S
C3259 C3260 1.403 . S
C3260 C3259 1.403 . S
C3260 C3261 1.404 . S
C3260 C3263 1.539 . S
C3261 C3257 1.408 . S
C3261 C3260 1.404 . S
C3261 H3273 0.930 . S
C3262 C3258 1.524 . S
C3262 H3274 0.956 . S
C3262 H3275 0.961 . S
C3262 H3276 0.961 . S
C3263 C3260 1.539 . S
C3263 H3277 0.958 . S
C3263 H3278 0.961 . S
C3263 H3279 0.960 . S
H3264 C3248 0.931 . S
H3265 C3253 0.929 . S
H3266 C3254 0.960 . S
H3267 C3254 0.962 . S
H3268 C3254 0.960 . S
H3269 C3255 0.961 . S
H3270 C3255 0.961 . S
H3271 C3255 0.961 . S
H3272 C3256 0.931 . S
H3273 C3261 0.930 . S
H3274 C3262 0.956 . S
H3275 C3262 0.961 . S
H3276 C3262 0.961 . S
H3277 C3263 0.958 . S
H3278 C3263 0.961 . S
H3279 C3263 0.960 . S
C3280 C3281 1.391 . S
C3280 C3282 1.394 . S
C3280 H3296 0.931 . S
C3281 C3280 1.391 . S
C3281 C3285 1.376 . S
C3282 C3280 1.394 . S
C3282 C3283 1.369 . S
C3282 C3286 1.531 . S
C3283 C3282 1.369 . S
C3283 C3284 1.410 . S
C3283 C3291 1.503 . S
C3284 C3283 1.410 . S
C3284 C3285 1.392 . S
C3284 C3287 1.511 . S
C3285 C3281 1.376 . S
C3285 C3284 1.392 . S
C3285 H3297 0.929 . S
C3286 C3282 1.531 . S
C3286 H3298 0.960 . S
C3286 H3299 0.962 . S
C3286 H3300 0.960 . S
C3287 C3284 1.511 . S
C3287 H3301 0.961 . S
C3287 H3302 0.961 . S
C3287 H3303 0.961 . S
C3288 C3289 1.370 . S
C3288 C3290 1.363 . S
C3288 H3304 0.931 . S
C3289 C3288 1.370 . S
C3289 C3293 1.408 . S
C3290 C3288 1.363 . S
C3290 C3291 1.370 . S
C3290 C3294 1.524 . S
C3291 C3283 1.503 . S
C3291 C3290 1.370 . S
C3291 C3292 1.403 . S
C3292 C3291 1.403 . S
C3292 C3293 1.404 . S
C3292 C3295 1.539 . S
C3293 C3289 1.408 . S
C3293 C3292 1.404 . S
C3293 H3305 0.930 . S
C3294 C3290 1.524 . S
C3294 H3306 0.956 . S
C3294 H3307 0.961 . S
C3294 H3308 0.961 . S
C3295 C3292 1.539 . S
C3295 H3309 0.958 . S
C3295 H3310 0.961 . S
C3295 H3311 0.960 . S
H3296 C3280 0.931 . S
H3297 C3285 0.929 . S
H3298 C3286 0.960 . S
H3299 C3286 0.962 . S
H3300 C3286 0.960 . S
H3301 C3287 0.961 . S
H3302 C3287 0.961 . S
H3303 C3287 0.961 . S
H3304 C3288 0.931 . S
H3305 C3293 0.930 . S
H3306 C3294 0.956 . S
H3307 C3294 0.961 . S
H3308 C3294 0.961 . S
H3309 C3295 0.958 . S
H3310 C3295 0.961 . S
H3311 C3295 0.960 . S
C3312 C3313 1.391 . S
C3312 C3314 1.394 . S
C3312 H3328 0.931 . S
C3313 C3312 1.391 . S
C3313 C3317 1.376 . S
C3314 C3312 1.394 . S
C3314 C3315 1.369 . S
C3314 C3318 1.531 . S
C3315 C3314 1.369 . S
C3315 C3316 1.410 . S
C3315 C3323 1.503 . S
C3316 C3315 1.410 . S
C3316 C3317 1.392 . S
C3316 C3319 1.511 . S
C3317 C3313 1.376 . S
C3317 C3316 1.392 . S
C3317 H3329 0.929 . S
C3318 C3314 1.531 . S
C3318 H3330 0.960 . S
C3318 H3331 0.962 . S
C3318 H3332 0.960 . S
C3319 C3316 1.511 . S
C3319 H3333 0.961 . S
C3319 H3334 0.961 . S
C3319 H3335 0.961 . S
C3320 C3321 1.370 . S
C3320 C3322 1.363 . S
C3320 H3336 0.931 . S
C3321 C3320 1.370 . S
C3321 C3325 1.408 . S
C3322 C3320 1.363 . S
C3322 C3323 1.370 . S
C3322 C3326 1.524 . S
C3323 C3315 1.503 . S
C3323 C3322 1.370 . S
C3323 C3324 1.403 . S
C3324 C3323 1.403 . S
C3324 C3325 1.404 . S
C3324 C3327 1.539 . S
C3325 C3321 1.408 . S
C3325 C3324 1.404 . S
C3325 H3337 0.930 . S
C3326 C3322 1.524 . S
C3326 H3338 0.956 . S
C3326 H3339 0.961 . S
C3326 H3340 0.961 . S
C3327 C3324 1.539 . S
C3327 H3341 0.958 . S
C3327 H3342 0.961 . S
C3327 H3343 0.960 . S
H3328 C3312 0.931 . S
H3329 C3317 0.929 . S
H3330 C3318 0.960 . S
H3331 C3318 0.962 . S
H3332 C3318 0.960 . S
H3333 C3319 0.961 . S
H3334 C3319 0.961 . S
H3335 C3319 0.961 . S
H3336 C3320 0.931 . S
H3337 C3325 0.930 . S
H3338 C3326 0.956 . S
H3339 C3326 0.961 . S
H3340 C3326 0.961 . S
H3341 C3327 0.958 . S
H3342 C3327 0.961 . S
H3343 C3327 0.960 . S
C3344 C3345 1.391 . S
C3344 C3346 1.394 . S
C3344 H3360 0.931 . S
C3345 C3344 1.391 . S
C3345 C3349 1.376 . S
C3346 C3344 1.394 . S
C3346 C3347 1.369 . S
C3346 C3350 1.531 . S
C3347 C3346 1.369 . S
C3347 C3348 1.410 . S
C3347 C3355 1.503 . S
C3348 C3347 1.410 . S
C3348 C3349 1.392 . S
C3348 C3351 1.511 . S
C3349 C3345 1.376 . S
C3349 C3348 1.392 . S
C3349 H3361 0.929 . S
C3350 C3346 1.531 . S
C3350 H3362 0.960 . S
C3350 H3363 0.962 . S
C3350 H3364 0.960 . S
C3351 C3348 1.511 . S
C3351 H3365 0.961 . S
C3351 H3366 0.961 . S
C3351 H3367 0.961 . S
C3352 C3353 1.370 . S
C3352 C3354 1.363 . S
C3352 H3368 0.931 . S
C3353 C3352 1.370 . S
C3353 C3357 1.408 . S
C3354 C3352 1.363 . S
C3354 C3355 1.370 . S
C3354 C3358 1.524 . S
C3355 C3347 1.503 . S
C3355 C3354 1.370 . S
C3355 C3356 1.403 . S
C3356 C3355 1.403 . S
C3356 C3357 1.404 . S
C3356 C3359 1.539 . S
C3357 C3353 1.408 . S
C3357 C3356 1.404 . S
C3357 H3369 0.931 . S
C3358 C3354 1.524 . S
C3358 H3370 0.956 . S
C3358 H3371 0.961 . S
C3358 H3372 0.961 . S
C3359 C3356 1.539 . S
C3359 H3373 0.958 1_554 S
C3359 H3374 0.968 . S
C3359 H3375 0.960 . S
H3360 C3344 0.931 . S
H3361 C3349 0.929 . S
H3362 C3350 0.960 . S
H3363 C3350 0.962 . S
H3364 C3350 0.960 . S
H3365 C3351 0.961 . S
H3366 C3351 0.961 . S
H3367 C3351 0.961 . S
H3368 C3352 0.931 . S
H3369 C3357 0.931 . S
H3370 C3358 0.956 . S
H3371 C3358 0.961 . S
H3372 C3358 0.961 . S
H3373 C3359 0.958 1_556 S
H3374 C3359 0.968 . S
H3375 C3359 0.960 . S
C3376 C3377 1.391 . S
C3376 C3378 1.394 . S
C3376 H3392 0.931 . S
C3377 C3376 1.391 . S
C3377 C3381 1.376 . S
C3378 C3376 1.394 . S
C3378 C3379 1.369 . S
C3378 C3382 1.531 . S
C3379 C3378 1.369 . S
C3379 C3380 1.410 . S
C3379 C3387 1.503 . S
C3380 C3379 1.410 . S
C3380 C3381 1.392 . S
C3380 C3383 1.511 . S
C3381 C3377 1.376 . S
C3381 C3380 1.392 . S
C3381 H3393 0.929 . S
C3382 C3378 1.531 . S
C3382 H3394 0.960 . S
C3382 H3395 0.962 . S
C3382 H3396 0.960 . S
C3383 C3380 1.511 . S
C3383 H3397 0.961 . S
C3383 H3398 0.961 . S
C3383 H3399 0.961 . S
C3384 C3385 1.370 . S
C3384 C3386 1.363 . S
C3384 H3400 0.931 . S
C3385 C3384 1.370 . S
C3385 C3389 1.408 . S
C3386 C3384 1.363 . S
C3386 C3387 1.370 . S
C3386 C3390 1.524 . S
C3387 C3379 1.503 . S
C3387 C3386 1.370 . S
C3387 C3388 1.403 . S
C3388 C3387 1.403 . S
C3388 C3389 1.404 . S
C3388 C3391 1.539 . S
C3389 C3385 1.408 . S
C3389 C3388 1.404 . S
C3389 H3401 0.930 . S
C3390 C3386 1.524 . S
C3390 H3402 0.956 . S
C3390 H3403 0.961 . S
C3390 H3404 0.961 . S
C3391 C3388 1.539 . S
C3391 H3405 0.958 . S
C3391 H3406 0.961 . S
C3391 H3407 0.960 . S
H3392 C3376 0.931 . S
H3393 C3381 0.929 . S
H3394 C3382 0.960 . S
H3395 C3382 0.962 . S
H3396 C3382 0.960 . S
H3397 C3383 0.961 . S
H3398 C3383 0.961 . S
H3399 C3383 0.961 . S
H3400 C3384 0.931 . S
H3401 C3389 0.930 . S
H3402 C3390 0.956 . S
H3403 C3390 0.961 . S
H3404 C3390 0.961 . S
H3405 C3391 0.958 . S
H3406 C3391 0.961 . S
H3407 C3391 0.960 . S
C3408 C3409 1.391 . S
C3408 C3410 1.394 . S
C3408 H3424 0.931 . S
C3409 C3408 1.391 . S
C3409 C3413 1.376 . S
C3410 C3408 1.394 . S
C3410 C3411 1.369 . S
C3410 C3414 1.531 . S
C3411 C3410 1.369 . S
C3411 C3412 1.410 . S
C3411 C3419 1.503 . S
C3412 C3411 1.410 . S
C3412 C3413 1.392 . S
C3412 C3415 1.511 . S
C3413 C3409 1.376 . S
C3413 C3412 1.392 . S
C3413 H3425 0.929 . S
C3414 C3410 1.531 . S
C3414 H3426 0.960 . S
C3414 H3427 0.962 . S
C3414 H3428 0.960 . S
C3415 C3412 1.511 . S
C3415 H3429 0.961 . S
C3415 H3430 0.961 . S
C3415 H3431 0.961 . S
C3416 C3417 1.370 . S
C3416 C3418 1.363 . S
C3416 H3432 0.931 . S
C3417 C3416 1.370 . S
C3417 C3421 1.408 . S
C3418 C3416 1.363 . S
C3418 C3419 1.370 . S
C3418 C3422 1.524 . S
C3419 C3411 1.503 . S
C3419 C3418 1.370 . S
C3419 C3420 1.403 . S
C3420 C3419 1.403 . S
C3420 C3421 1.404 . S
C3420 C3423 1.539 . S
C3421 C3417 1.408 . S
C3421 C3420 1.404 . S
C3421 H3433 0.930 . S
C3422 C3418 1.524 . S
C3422 H3434 0.956 . S
C3422 H3435 0.961 . S
C3422 H3436 0.961 . S
C3423 C3420 1.539 . S
C3423 H3437 0.958 . S
C3423 H3438 0.961 . S
C3423 H3439 0.960 . S
H3424 C3408 0.931 . S
H3425 C3413 0.929 . S
H3426 C3414 0.960 . S
H3427 C3414 0.962 . S
H3428 C3414 0.960 . S
H3429 C3415 0.961 . S
H3430 C3415 0.961 . S
H3431 C3415 0.961 . S
H3432 C3416 0.931 . S
H3433 C3421 0.930 . S
H3434 C3422 0.956 . S
H3435 C3422 0.961 . S
H3436 C3422 0.961 . S
H3437 C3423 0.958 . S
H3438 C3423 0.961 . S
H3439 C3423 0.960 . S
C3440 C3441 1.391 . S
C3440 C3442 1.394 . S
C3440 H3456 0.931 . S
C3441 C3440 1.391 . S
C3441 C3445 1.376 . S
C3442 C3440 1.394 . S
C3442 C3443 1.369 . S
C3442 C3446 1.531 . S
C3443 C3442 1.369 . S
C3443 C3444 1.410 . S
C3443 C3451 1.503 . S
C3444 C3443 1.410 . S
C3444 C3445 1.392 . S
C3444 C3447 1.511 . S
C3445 C3441 1.376 . S
C3445 C3444 1.392 . S
C3445 H3457 0.929 . S
C3446 C3442 1.531 . S
C3446 H3458 0.960 . S
C3446 H3459 0.962 . S
C3446 H3460 0.960 . S
C3447 C3444 1.511 . S
C3447 H3461 0.961 . S
C3447 H3462 0.961 . S
C3447 H3463 0.961 . S
C3448 C3449 1.370 . S
C3448 C3450 1.363 . S
C3448 H3464 0.931 . S
C3449 C3448 1.370 . S
C3449 C3453 1.408 . S
C3450 C3448 1.363 . S
C3450 C3451 1.370 . S
C3450 C3454 1.524 . S
C3451 C3443 1.503 . S
C3451 C3450 1.370 . S
C3451 C3452 1.403 . S
C3452 C3451 1.403 . S
C3452 C3453 1.404 . S
C3452 C3455 1.539 . S
C3453 C3449 1.408 . S
C3453 C3452 1.404 . S
C3453 H3465 0.930 . S
C3454 C3450 1.524 . S
C3454 H3466 0.956 . S
C3454 H3467 0.961 . S
C3454 H3468 0.961 . S
C3455 C3452 1.539 . S
C3455 H3469 0.958 . S
C3455 H3470 0.961 . S
C3455 H3471 0.960 . S
H3456 C3440 0.931 . S
H3457 C3445 0.929 . S
H3458 C3446 0.960 . S
H3459 C3446 0.962 . S
H3460 C3446 0.960 . S
H3461 C3447 0.961 . S
H3462 C3447 0.961 . S
H3463 C3447 0.961 . S
H3464 C3448 0.931 . S
H3465 C3453 0.930 . S
H3466 C3454 0.956 . S
H3467 C3454 0.961 . S
H3468 C3454 0.961 . S
H3469 C3455 0.958 . S
H3470 C3455 0.961 . S
H3471 C3455 0.960 . S
C3472 C3473 1.391 . S
C3472 C3474 1.394 . S
C3472 H3488 0.931 . S
C3473 C3472 1.391 . S
C3473 C3477 1.376 . S
C3474 C3472 1.394 . S
C3474 C3475 1.369 . S
C3474 C3478 1.531 . S
C3475 C3474 1.369 . S
C3475 C3476 1.410 . S
C3475 C3483 1.503 . S
C3476 C3475 1.410 . S
C3476 C3477 1.392 . S
C3476 C3479 1.511 . S
C3477 C3473 1.376 . S
C3477 C3476 1.392 . S
C3477 H3489 0.929 . S
C3478 C3474 1.531 . S
C3478 H3490 0.960 . S
C3478 H3491 0.962 . S
C3478 H3492 0.960 . S
C3479 C3476 1.511 . S
C3479 H3493 0.961 . S
C3479 H3494 0.961 . S
C3479 H3495 0.961 . S
C3480 C3481 1.370 . S
C3480 C3482 1.363 . S
C3480 H3496 0.931 . S
C3481 C3480 1.370 . S
C3481 C3485 1.408 . S
C3482 C3480 1.363 . S
C3482 C3483 1.370 . S
C3482 C3486 1.524 . S
C3483 C3475 1.503 . S
C3483 C3482 1.370 . S
C3483 C3484 1.403 . S
C3484 C3483 1.403 . S
C3484 C3485 1.404 . S
C3484 C3487 1.539 . S
C3485 C3481 1.408 . S
C3485 C3484 1.404 . S
C3485 H3497 0.930 . S
C3486 C3482 1.524 . S
C3486 H3498 0.956 . S
C3486 H3499 0.961 . S
C3486 H3500 0.961 . S
C3487 C3484 1.539 . S
C3487 H3501 0.958 . S
C3487 H3502 0.961 . S
C3487 H3503 0.960 . S
H3488 C3472 0.931 . S
H3489 C3477 0.929 . S
H3490 C3478 0.960 . S
H3491 C3478 0.962 . S
H3492 C3478 0.960 . S
H3493 C3479 0.961 . S
H3494 C3479 0.961 . S
H3495 C3479 0.961 . S
H3496 C3480 0.931 . S
H3497 C3485 0.930 . S
H3498 C3486 0.956 . S
H3499 C3486 0.961 . S
H3500 C3486 0.961 . S
H3501 C3487 0.958 . S
H3502 C3487 0.961 . S
H3503 C3487 0.960 . S
C3504 C3505 1.391 . S
C3504 C3506 1.394 . S
C3504 H3520 0.931 . S
C3505 C3504 1.391 . S
C3505 C3509 1.376 . S
C3506 C3504 1.394 . S
C3506 C3507 1.369 . S
C3506 C3510 1.531 . S
C3507 C3506 1.369 . S
C3507 C3508 1.410 . S
C3507 C3515 1.503 . S
C3508 C3507 1.410 . S
C3508 C3509 1.392 . S
C3508 C3511 1.511 . S
C3509 C3505 1.376 . S
C3509 C3508 1.392 . S
C3509 H3521 0.929 . S
C3510 C3506 1.531 . S
C3510 H3522 0.960 . S
C3510 H3523 0.962 . S
C3510 H3524 0.960 . S
C3511 C3508 1.511 . S
C3511 H3525 0.961 . S
C3511 H3526 0.961 . S
C3511 H3527 0.961 . S
C3512 C3513 1.370 . S
C3512 C3514 1.363 . S
C3512 H3528 0.931 . S
C3513 C3512 1.370 . S
C3513 C3517 1.408 . S
C3514 C3512 1.363 . S
C3514 C3515 1.370 . S
C3514 C3518 1.524 . S
C3515 C3507 1.503 . S
C3515 C3514 1.370 . S
C3515 C3516 1.403 . S
C3516 C3515 1.403 . S
C3516 C3517 1.404 . S
C3516 C3519 1.539 . S
C3517 C3513 1.408 . S
C3517 C3516 1.404 . S
C3517 H3529 0.930 . S
C3518 C3514 1.524 . S
C3518 H3530 0.956 . S
C3518 H3531 0.961 . S
C3518 H3532 0.961 . S
C3519 C3516 1.539 . S
C3519 H3533 0.958 . S
C3519 H3534 0.961 . S
C3519 H3535 0.960 . S
H3520 C3504 0.931 . S
H3521 C3509 0.929 . S
H3522 C3510 0.960 . S
H3523 C3510 0.962 . S
H3524 C3510 0.960 . S
H3525 C3511 0.961 . S
H3526 C3511 0.961 . S
H3527 C3511 0.961 . S
H3528 C3512 0.931 . S
H3529 C3517 0.930 . S
H3530 C3518 0.956 . S
H3531 C3518 0.961 . S
H3532 C3518 0.961 . S
H3533 C3519 0.958 . S
H3534 C3519 0.961 . S
H3535 C3519 0.960 . S
C3536 C3537 1.391 . S
C3536 C3538 1.394 . S
C3536 H3552 0.931 . S
C3537 C3536 1.391 . S
C3537 C3541 1.376 . S
C3538 C3536 1.394 . S
C3538 C3539 1.369 . S
C3538 C3542 1.531 . S
C3539 C3538 1.369 . S
C3539 C3540 1.410 . S
C3539 C3547 1.503 . S
C3540 C3539 1.410 . S
C3540 C3541 1.392 . S
C3540 C3543 1.511 . S
C3541 C3537 1.376 . S
C3541 C3540 1.392 . S
C3541 H3553 0.929 . S
C3542 C3538 1.531 . S
C3542 H3554 0.960 . S
C3542 H3555 0.962 . S
C3542 H3556 0.960 . S
C3543 C3540 1.511 . S
C3543 H3557 0.961 . S
C3543 H3558 0.961 . S
C3543 H3559 0.961 . S
C3544 C3545 1.370 . S
C3544 C3546 1.363 . S
C3544 H3560 0.931 . S
C3545 C3544 1.370 . S
C3545 C3549 1.408 . S
C3546 C3544 1.363 . S
C3546 C3547 1.370 . S
C3546 C3550 1.524 . S
C3547 C3539 1.503 . S
C3547 C3546 1.370 . S
C3547 C3548 1.403 . S
C3548 C3547 1.403 . S
C3548 C3549 1.404 . S
C3548 C3551 1.539 . S
C3549 C3545 1.408 . S
C3549 C3548 1.404 . S
C3549 H3561 0.930 . S
C3550 C3546 1.524 . S
C3550 H3562 0.956 . S
C3550 H3563 0.961 . S
C3550 H3564 0.961 . S
C3551 C3548 1.539 . S
C3551 H3565 0.958 . S
C3551 H3566 0.961 . S
C3551 H3567 0.960 . S
H3552 C3536 0.931 . S
H3553 C3541 0.929 . S
H3554 C3542 0.960 . S
H3555 C3542 0.962 . S
H3556 C3542 0.960 . S
H3557 C3543 0.961 . S
H3558 C3543 0.961 . S
H3559 C3543 0.961 . S
H3560 C3544 0.931 . S
H3561 C3549 0.930 . S
H3562 C3550 0.956 . S
H3563 C3550 0.961 . S
H3564 C3550 0.961 . S
H3565 C3551 0.958 . S
H3566 C3551 0.961 . S
H3567 C3551 0.960 . S
C3568 C3569 1.391 . S
C3568 C3570 1.394 . S
C3568 H3584 0.931 . S
C3569 C3568 1.391 . S
C3569 C3573 1.376 . S
C3570 C3568 1.394 . S
C3570 C3571 1.369 . S
C3570 C3574 1.531 . S
C3571 C3570 1.369 . S
C3571 C3572 1.410 . S
C3571 C3579 1.503 . S
C3572 C3571 1.410 . S
C3572 C3573 1.392 . S
C3572 C3575 1.511 . S
C3573 C3569 1.376 . S
C3573 C3572 1.392 . S
C3573 H3585 0.929 . S
C3574 C3570 1.531 . S
C3574 H3586 0.960 . S
C3574 H3587 0.962 . S
C3574 H3588 0.960 . S
C3575 C3572 1.511 . S
C3575 H3589 0.961 . S
C3575 H3590 0.961 . S
C3575 H3591 0.961 . S
C3576 C3577 1.370 . S
C3576 C3578 1.363 . S
C3576 H3592 0.931 . S
C3577 C3576 1.370 . S
C3577 C3581 1.408 . S
C3578 C3576 1.363 . S
C3578 C3579 1.370 . S
C3578 C3582 1.524 . S
C3579 C3571 1.503 . S
C3579 C3578 1.370 . S
C3579 C3580 1.403 . S
C3580 C3579 1.403 . S
C3580 C3581 1.404 . S
C3580 C3583 1.539 . S
C3581 C3577 1.408 . S
C3581 C3580 1.404 . S
C3581 H3593 0.930 . S
C3582 C3578 1.524 . S
C3582 H3594 0.956 . S
C3582 H3595 0.961 . S
C3582 H3596 0.961 . S
C3583 C3580 1.539 . S
C3583 H3597 0.958 . S
C3583 H3598 0.961 . S
C3583 H3599 0.960 . S
H3584 C3568 0.931 . S
H3585 C3573 0.929 . S
H3586 C3574 0.960 . S
H3587 C3574 0.962 . S
H3588 C3574 0.960 . S
H3589 C3575 0.961 . S
H3590 C3575 0.961 . S
H3591 C3575 0.961 . S
H3592 C3576 0.931 . S
H3593 C3581 0.930 . S
H3594 C3582 0.956 . S
H3595 C3582 0.961 . S
H3596 C3582 0.961 . S
H3597 C3583 0.958 . S
H3598 C3583 0.961 . S
H3599 C3583 0.960 . S
C3600 C3601 1.391 . S
C3600 C3602 1.394 . S
C3600 H3616 0.931 . S
C3601 C3600 1.391 . S
C3601 C3605 1.376 . S
C3602 C3600 1.394 . S
C3602 C3603 1.369 . S
C3602 C3606 1.531 1_655 S
C3603 C3602 1.369 . S
C3603 C3604 1.410 . S
C3603 C3611 1.509 . S
C3604 C3603 1.410 . S
C3604 C3605 1.392 . S
C3604 C3607 1.511 . S
C3605 C3601 1.376 . S
C3605 C3604 1.392 . S
C3605 H3617 0.929 . S
C3606 C3602 1.531 1_455 S
C3606 H3618 0.960 . S
C3606 H3619 0.962 . S
C3606 H3620 0.960 . S
C3607 C3604 1.511 . S
C3607 H3621 0.961 . S
C3607 H3622 0.961 . S
C3607 H3623 0.961 . S
C3608 C3609 1.370 . S
C3608 C3610 1.363 . S
C3608 H3624 0.931 . S
C3609 C3608 1.370 . S
C3609 C3613 1.408 . S
C3610 C3608 1.363 . S
C3610 C3611 1.361 1_455 S
C3610 C3614 1.524 . S
C3611 C3603 1.509 . S
C3611 C3610 1.361 1_655 S
C3611 C3612 1.407 . S
C3612 C3611 1.407 . S
C3612 C3613 1.404 1_655 S
C3612 C3615 1.539 . S
C3613 C3609 1.408 . S
C3613 C3612 1.404 1_455 S
C3613 H3625 0.930 . S
C3614 C3610 1.524 . S
C3614 H3626 0.956 . S
C3614 H3627 0.986 . S
C3614 H3628 0.961 . S
C3615 C3612 1.539 . S
C3615 H3629 0.958 . S
C3615 H3630 0.961 . S
C3615 H3631 0.960 . S
H3616 C3600 0.931 . S
H3617 C3605 0.929 . S
H3618 C3606 0.960 . S
H3619 C3606 0.962 . S
H3620 C3606 0.960 . S
H3621 C3607 0.961 . S
H3622 C3607 0.961 . S
H3623 C3607 0.961 . S
H3624 C3608 0.931 . S
H3625 C3613 0.930 . S
H3626 C3614 0.956 . S
H3627 C3614 0.986 . S
H3628 C3614 0.961 . S
H3629 C3615 0.958 . S
H3630 C3615 0.961 . S
H3631 C3615 0.960 . S
C3632 C3633 1.391 . S
C3632 C3634 1.394 . S
C3632 H3648 0.931 . S
C3633 C3632 1.391 . S
C3633 C3637 1.376 . S
C3634 C3632 1.394 . S
C3634 C3635 1.369 . S
C3634 C3638 1.531 . S
C3635 C3634 1.369 . S
C3635 C3636 1.410 . S
C3635 C3643 1.503 . S
C3636 C3635 1.410 . S
C3636 C3637 1.392 . S
C3636 C3639 1.511 . S
C3637 C3633 1.376 . S
C3637 C3636 1.392 . S
C3637 H3649 0.929 . S
C3638 C3634 1.531 . S
C3638 H3650 0.960 . S
C3638 H3651 0.962 . S
C3638 H3652 0.960 . S
C3639 C3636 1.511 . S
C3639 H3653 0.961 . S
C3639 H3654 0.961 . S
C3639 H3655 0.961 . S
C3640 C3641 1.370 . S
C3640 C3642 1.363 . S
C3640 H3656 0.931 . S
C3641 C3640 1.370 . S
C3641 C3645 1.408 . S
C3642 C3640 1.363 . S
C3642 C3643 1.370 . S
C3642 C3646 1.524 . S
C3643 C3635 1.503 . S
C3643 C3642 1.370 . S
C3643 C3644 1.403 . S
C3644 C3643 1.403 . S
C3644 C3645 1.404 . S
C3644 C3647 1.539 . S
C3645 C3641 1.408 . S
C3645 C3644 1.404 . S
C3645 H3657 0.930 . S
C3646 C3642 1.524 . S
C3646 H3658 0.956 . S
C3646 H3659 0.961 . S
C3646 H3660 0.961 . S
C3647 C3644 1.539 . S
C3647 H3661 0.958 . S
C3647 H3662 0.961 . S
C3647 H3663 0.960 . S
H3648 C3632 0.931 . S
H3649 C3637 0.929 . S
H3650 C3638 0.960 . S
H3651 C3638 0.962 . S
H3652 C3638 0.960 . S
H3653 C3639 0.961 . S
H3654 C3639 0.961 . S
H3655 C3639 0.961 . S
H3656 C3640 0.931 . S
H3657 C3645 0.930 . S
H3658 C3646 0.956 . S
H3659 C3646 0.961 . S
H3660 C3646 0.961 . S
H3661 C3647 0.958 . S
H3662 C3647 0.961 . S
H3663 C3647 0.960 . S
C3664 C3665 1.391 . S
C3664 C3666 1.394 . S
C3664 H3680 0.931 . S
C3665 C3664 1.391 . S
C3665 C3669 1.376 . S
C3666 C3664 1.394 . S
C3666 C3667 1.369 . S
C3666 C3670 1.531 . S
C3667 C3666 1.369 . S
C3667 C3668 1.410 . S
C3667 C3675 1.503 . S
C3668 C3667 1.410 . S
C3668 C3669 1.392 . S
C3668 C3671 1.511 . S
C3669 C3665 1.376 . S
C3669 C3668 1.392 . S
C3669 H3681 0.929 . S
C3670 C3666 1.531 . S
C3670 H3682 0.960 . S
C3670 H3683 0.962 . S
C3670 H3684 0.960 . S
C3671 C3668 1.511 . S
C3671 H3685 0.961 . S
C3671 H3686 0.961 . S
C3671 H3687 0.961 . S
C3672 C3673 1.370 . S
C3672 C3674 1.363 . S
C3672 H3688 0.931 . S
C3673 C3672 1.370 . S
C3673 C3677 1.408 . S
C3674 C3672 1.363 . S
C3674 C3675 1.370 . S
C3674 C3678 1.524 . S
C3675 C3667 1.503 . S
C3675 C3674 1.370 . S
C3675 C3676 1.403 . S
C3676 C3675 1.403 . S
C3676 C3677 1.404 . S
C3676 C3679 1.539 . S
C3677 C3673 1.408 . S
C3677 C3676 1.404 . S
C3677 H3689 0.930 . S
C3678 C3674 1.524 . S
C3678 H3690 0.956 . S
C3678 H3691 0.961 . S
C3678 H3692 0.961 . S
C3679 C3676 1.539 . S
C3679 H3693 0.958 . S
C3679 H3694 0.961 . S
C3679 H3695 0.960 . S
H3680 C3664 0.931 . S
H3681 C3669 0.929 . S
H3682 C3670 0.960 . S
H3683 C3670 0.962 . S
H3684 C3670 0.960 . S
H3685 C3671 0.961 . S
H3686 C3671 0.961 . S
H3687 C3671 0.961 . S
H3688 C3672 0.931 . S
H3689 C3677 0.930 . S
H3690 C3678 0.956 . S
H3691 C3678 0.961 . S
H3692 C3678 0.961 . S
H3693 C3679 0.958 . S
H3694 C3679 0.961 . S
H3695 C3679 0.960 . S
C3696 C3697 1.391 . S
C3696 C3698 1.394 . S
C3696 H3712 0.931 . S
C3697 C3696 1.391 . S
C3697 C3701 1.376 . S
C3698 C3696 1.394 . S
C3698 C3699 1.369 . S
C3698 C3702 1.531 . S
C3699 C3698 1.369 . S
C3699 C3700 1.410 . S
C3699 C3707 1.503 . S
C3700 C3699 1.410 . S
C3700 C3701 1.392 . S
C3700 C3703 1.511 . S
C3701 C3697 1.376 . S
C3701 C3700 1.392 . S
C3701 H3713 0.929 . S
C3702 C3698 1.531 . S
C3702 H3714 0.960 . S
C3702 H3715 0.962 . S
C3702 H3716 0.960 . S
C3703 C3700 1.511 . S
C3703 H3717 0.961 . S
C3703 H3718 0.961 . S
C3703 H3719 0.961 . S
C3704 C3705 1.370 . S
C3704 C3706 1.363 . S
C3704 H3720 0.931 . S
C3705 C3704 1.370 . S
C3705 C3709 1.408 . S
C3706 C3704 1.363 . S
C3706 C3707 1.370 . S
C3706 C3710 1.524 . S
C3707 C3699 1.503 . S
C3707 C3706 1.370 . S
C3707 C3708 1.403 . S
C3708 C3707 1.403 . S
C3708 C3709 1.404 . S
C3708 C3711 1.539 . S
C3709 C3705 1.408 . S
C3709 C3708 1.404 . S
C3709 H3721 0.930 . S
C3710 C3706 1.524 . S
C3710 H3722 0.956 . S
C3710 H3723 0.961 . S
C3710 H3724 0.961 . S
C3711 C3708 1.539 . S
C3711 H3725 0.958 . S
C3711 H3726 0.961 . S
C3711 H3727 0.960 . S
H3712 C3696 0.931 . S
H3713 C3701 0.929 . S
H3714 C3702 0.960 . S
H3715 C3702 0.962 . S
H3716 C3702 0.960 . S
H3717 C3703 0.961 . S
H3718 C3703 0.961 . S
H3719 C3703 0.961 . S
H3720 C3704 0.931 . S
H3721 C3709 0.930 . S
H3722 C3710 0.956 . S
H3723 C3710 0.961 . S
H3724 C3710 0.961 . S
H3725 C3711 0.958 . S
H3726 C3711 0.961 . S
H3727 C3711 0.960 . S
C3728 C3729 1.391 . S
C3728 C3730 1.394 . S
C3728 H3744 0.931 . S
C3729 C3728 1.391 . S
C3729 C3733 1.376 . S
C3730 C3728 1.394 . S
C3730 C3731 1.369 . S
C3730 C3734 1.531 . S
C3731 C3730 1.369 . S
C3731 C3732 1.410 . S
C3731 C3739 1.503 . S
C3732 C3731 1.410 . S
C3732 C3733 1.392 . S
C3732 C3735 1.511 . S
C3733 C3729 1.376 . S
C3733 C3732 1.392 . S
C3733 H3745 0.929 . S
C3734 C3730 1.531 . S
C3734 H3746 0.960 . S
C3734 H3747 0.962 1_655 S
C3734 H3748 0.960 . S
C3735 C3732 1.511 . S
C3735 H3749 0.961 . S
C3735 H3750 0.961 . S
C3735 H3751 0.961 . S
C3736 C3737 1.370 . S
C3736 C3738 1.363 . S
C3736 H3752 0.931 1_655 S
C3737 C3736 1.370 . S
C3737 C3741 1.408 . S
C3738 C3736 1.363 . S
C3738 C3739 1.370 . S
C3738 C3742 1.535 . S
C3739 C3731 1.503 . S
C3739 C3738 1.370 . S
C3739 C3740 1.403 . S
C3740 C3739 1.403 . S
C3740 C3741 1.404 . S
C3740 C3743 1.539 . S
C3741 C3737 1.408 . S
C3741 C3740 1.404 . S
C3741 H3753 0.930 . S
C3742 C3738 1.535 . S
C3742 H3754 0.932 1_655 S
C3742 H3755 1.005 . S
C3742 H3756 0.933 1_655 S
C3743 C3740 1.539 . S
C3743 H3757 0.958 . S
C3743 H3758 0.961 . S
C3743 H3759 0.960 . S
H3744 C3728 0.931 . S
H3745 C3733 0.929 . S
H3746 C3734 0.960 . S
H3747 C3734 0.962 1_455 S
H3748 C3734 0.960 . S
H3749 C3735 0.961 . S
H3750 C3735 0.961 . S
H3751 C3735 0.961 . S
H3752 C3736 0.931 1_455 S
H3753 C3741 0.930 . S
H3754 C3742 0.932 1_455 S
H3755 C3742 1.005 . S
H3756 C3742 0.933 1_455 S
H3757 C3743 0.958 . S
H3758 C3743 0.961 . S
H3759 C3743 0.960 . S
C3760 C3761 1.391 . S
C3760 C3762 1.394 . S
C3760 H3776 0.931 . S
C3761 C3760 1.391 . S
C3761 C3765 1.376 . S
C3762 C3760 1.394 . S
C3762 C3763 1.369 . S
C3762 C3766 1.531 . S
C3763 C3762 1.369 . S
C3763 C3764 1.410 . S
C3763 C3771 1.503 . S
C3764 C3763 1.410 . S
C3764 C3765 1.392 . S
C3764 C3767 1.511 . S
C3765 C3761 1.376 . S
C3765 C3764 1.392 . S
C3765 H3777 0.929 . S
C3766 C3762 1.531 . S
C3766 H3778 0.960 . S
C3766 H3779 0.962 . S
C3766 H3780 0.960 . S
C3767 C3764 1.511 . S
C3767 H3781 0.961 . S
C3767 H3782 0.961 . S
C3767 H3783 0.961 . S
C3768 C3769 1.370 . S
C3768 C3770 1.363 . S
C3768 H3784 0.931 . S
C3769 C3768 1.370 . S
C3769 C3773 1.408 . S
C3770 C3768 1.363 . S
C3770 C3771 1.370 . S
C3770 C3774 1.524 . S
C3771 C3763 1.503 . S
C3771 C3770 1.370 . S
C3771 C3772 1.403 . S
C3772 C3771 1.403 . S
C3772 C3773 1.404 . S
C3772 C3775 1.539 . S
C3773 C3769 1.408 . S
C3773 C3772 1.404 . S
C3773 H3785 0.930 . S
C3774 C3770 1.524 . S
C3774 H3786 0.956 . S
C3774 H3787 0.961 . S
C3774 H3788 0.961 . S
C3775 C3772 1.539 . S
C3775 H3789 0.958 . S
C3775 H3790 0.961 . S
C3775 H3791 0.960 . S
H3776 C3760 0.931 . S
H3777 C3765 0.929 . S
H3778 C3766 0.960 . S
H3779 C3766 0.962 . S
H3780 C3766 0.960 . S
H3781 C3767 0.961 . S
H3782 C3767 0.961 . S
H3783 C3767 0.961 . S
H3784 C3768 0.931 . S
H3785 C3773 0.930 . S
H3786 C3774 0.956 . S
H3787 C3774 0.961 . S
H3788 C3774 0.961 . S
H3789 C3775 0.958 . S
H3790 C3775 0.961 . S
H3791 C3775 0.960 . S
C3792 C3793 1.391 . S
C3792 C3794 1.394 . S
C3792 H3808 0.931 . S
C3793 C3792 1.391 . S
C3793 C3797 1.376 . S
C3794 C3792 1.394 . S
C3794 C3795 1.369 . S
C3794 C3798 1.531 . S
C3795 C3794 1.369 . S
C3795 C3796 1.410 . S
C3795 C3803 1.503 . S
C3796 C3795 1.410 . S
C3796 C3797 1.392 . S
C3796 C3799 1.511 . S
C3797 C3793 1.376 . S
C3797 C3796 1.392 . S
C3797 H3809 0.929 . S
C3798 C3794 1.531 . S
C3798 H3810 0.960 . S
C3798 H3811 0.962 . S
C3798 H3812 0.960 . S
C3799 C3796 1.511 . S
C3799 H3813 0.961 . S
C3799 H3814 0.961 . S
C3799 H3815 0.961 . S
C3800 C3801 1.370 . S
C3800 C3802 1.363 . S
C3800 H3816 0.931 . S
C3801 C3800 1.370 . S
C3801 C3805 1.408 . S
C3802 C3800 1.363 . S
C3802 C3803 1.370 . S
C3802 C3806 1.524 . S
C3803 C3795 1.503 . S
C3803 C3802 1.370 . S
C3803 C3804 1.403 . S
C3804 C3803 1.403 . S
C3804 C3805 1.404 . S
C3804 C3807 1.539 . S
C3805 C3801 1.408 . S
C3805 C3804 1.404 . S
C3805 H3817 0.930 . S
C3806 C3802 1.524 . S
C3806 H3818 0.956 . S
C3806 H3819 0.961 . S
C3806 H3820 0.961 . S
C3807 C3804 1.539 . S
C3807 H3821 0.958 . S
C3807 H3822 0.961 . S
C3807 H3823 0.960 . S
H3808 C3792 0.931 . S
H3809 C3797 0.929 . S
H3810 C3798 0.960 . S
H3811 C3798 0.962 . S
H3812 C3798 0.960 . S
H3813 C3799 0.961 . S
H3814 C3799 0.961 . S
H3815 C3799 0.961 . S
H3816 C3800 0.931 . S
H3817 C3805 0.930 . S
H3818 C3806 0.956 . S
H3819 C3806 0.961 . S
H3820 C3806 0.961 . S
H3821 C3807 0.958 . S
H3822 C3807 0.961 . S
H3823 C3807 0.960 . S
C3824 C3825 1.391 . S
C3824 C3826 1.394 . S
C3824 H3840 0.931 . S
C3825 C3824 1.391 . S
C3825 C3829 1.376 . S
C3826 C3824 1.394 . S
C3826 C3827 1.369 . S
C3826 C3830 1.531 . S
C3827 C3826 1.369 . S
C3827 C3828 1.410 . S
C3827 C3835 1.503 . S
C3828 C3827 1.410 . S
C3828 C3829 1.392 . S
C3828 C3831 1.511 . S
C3829 C3825 1.376 . S
C3829 C3828 1.392 . S
C3829 H3841 0.929 . S
C3830 C3826 1.531 . S
C3830 H3842 0.960 . S
C3830 H3843 0.962 . S
C3830 H3844 0.960 . S
C3831 C3828 1.511 . S
C3831 H3845 0.961 . S
C3831 H3846 0.961 . S
C3831 H3847 0.961 . S
C3832 C3833 1.370 . S
C3832 C3834 1.363 . S
C3832 H3848 0.931 . S
C3833 C3832 1.370 . S
C3833 C3837 1.408 1_565 S
C3834 C3832 1.363 . S
C3834 C3835 1.370 . S
C3834 C3838 1.524 . S
C3835 C3827 1.503 . S
C3835 C3834 1.370 . S
C3835 C3836 1.403 . S
C3836 C3835 1.403 . S
C3836 C3837 1.404 1_565 S
C3836 C3839 1.539 1_565 S
C3837 C3833 1.408 1_545 S
C3837 C3836 1.404 1_545 S
C3837 H3849 0.930 . S
C3838 C3834 1.524 . S
C3838 H3850 0.956 . S
C3838 H3851 0.961 . S
C3838 H3852 0.961 . S
C3839 C3836 1.539 1_545 S
C3839 H3853 0.958 . S
C3839 H3854 0.961 . S
C3839 H3855 0.960 1_545 S
H3840 C3824 0.931 . S
H3841 C3829 0.929 . S
H3842 C3830 0.960 . S
H3843 C3830 0.962 . S
H3844 C3830 0.960 . S
H3845 C3831 0.961 . S
H3846 C3831 0.961 . S
H3847 C3831 0.961 . S
H3848 C3832 0.931 . S
H3849 C3837 0.930 . S
H3850 C3838 0.956 . S
H3851 C3838 0.961 . S
H3852 C3838 0.961 . S
H3853 C3839 0.958 . S
H3854 C3839 0.961 . S
H3855 C3839 0.960 1_565 S
C3856 C3857 1.391 . S
C3856 C3858 1.394 . S
C3856 H3872 0.931 . S
C3857 C3856 1.391 . S
C3857 C3861 1.376 . S
C3858 C3856 1.394 . S
C3858 C3859 1.369 . S
C3858 C3862 1.531 . S
C3859 C3858 1.369 . S
C3859 C3860 1.410 . S
C3859 C3867 1.503 . S
C3860 C3859 1.410 . S
C3860 C3861 1.392 . S
C3860 C3863 1.511 . S
C3861 C3857 1.376 . S
C3861 C3860 1.392 . S
C3861 H3873 0.929 . S
C3862 C3858 1.531 . S
C3862 H3874 0.960 . S
C3862 H3875 0.962 . S
C3862 H3876 0.960 . S
C3863 C3860 1.511 . S
C3863 H3877 0.961 . S
C3863 H3878 0.961 . S
C3863 H3879 0.961 . S
C3864 C3865 1.370 . S
C3864 C3866 1.363 . S
C3864 H3880 0.931 . S
C3865 C3864 1.370 . S
C3865 C3869 1.408 . S
C3866 C3864 1.363 . S
C3866 C3867 1.370 . S
C3866 C3870 1.524 . S
C3867 C3859 1.503 . S
C3867 C3866 1.370 . S
C3867 C3868 1.403 . S
C3868 C3867 1.403 . S
C3868 C3869 1.404 . S
C3868 C3871 1.539 . S
C3869 C3865 1.408 . S
C3869 C3868 1.404 . S
C3869 H3881 0.930 . S
C3870 C3866 1.524 . S
C3870 H3882 0.956 . S
C3870 H3883 0.961 . S
C3870 H3884 0.961 . S
C3871 C3868 1.539 . S
C3871 H3885 0.958 . S
C3871 H3886 0.961 . S
C3871 H3887 0.960 . S
H3872 C3856 0.931 . S
H3873 C3861 0.929 . S
H3874 C3862 0.960 . S
H3875 C3862 0.962 . S
H3876 C3862 0.960 . S
H3877 C3863 0.961 . S
H3878 C3863 0.961 . S
H3879 C3863 0.961 . S
H3880 C3864 0.931 . S
H3881 C3869 0.930 . S
H3882 C3870 0.956 . S
H3883 C3870 0.961 . S
H3884 C3870 0.961 . S
H3885 C3871 0.958 . S
H3886 C3871 0.961 . S
H3887 C3871 0.960 . S
C3888 C3889 1.391 . S
C3888 C3890 1.394 . S
C3888 H3904 0.931 . S
C3889 C3888 1.391 . S
C3889 C3893 1.376 . S
C3890 C3888 1.394 . S
C3890 C3891 1.369 . S
C3890 C3894 1.531 . S
C3891 C3890 1.369 . S
C3891 C3892 1.410 . S
C3891 C3899 1.503 . S
C3892 C3891 1.410 . S
C3892 C3893 1.392 . S
C3892 C3895 1.511 . S
C3893 C3889 1.376 . S
C3893 C3892 1.392 . S
C3893 H3905 0.929 . S
C3894 C3890 1.531 . S
C3894 H3906 0.960 . S
C3894 H3907 0.962 . S
C3894 H3908 0.960 . S
C3895 C3892 1.511 . S
C3895 H3909 0.961 . S
C3895 H3910 0.961 . S
C3895 H3911 0.961 . S
C3896 C3897 1.370 1_556 S
C3896 C3898 1.363 . S
C3896 H3912 0.931 . S
C3897 C3896 1.370 1_554 S
C3897 C3901 1.408 . S
C3898 C3896 1.363 . S
C3898 C3899 1.370 1_556 S
C3898 C3902 1.524 . S
C3899 C3891 1.503 . S
C3899 C3898 1.370 1_554 S
C3899 C3900 1.403 . S
C3900 C3899 1.403 . S
C3900 C3901 1.404 . S
C3900 C3903 1.539 . S
C3901 C3897 1.408 . S
C3901 C3900 1.404 . S
C3901 H3913 0.930 . S
C3902 C3898 1.524 . S
C3902 H3914 0.956 . S
C3902 H3915 0.961 . S
C3902 H3916 0.961 . S
C3903 C3900 1.539 . S
C3903 H3917 0.958 . S
C3903 H3918 0.961 . S
C3903 H3919 0.960 . S
H3904 C3888 0.931 . S
H3905 C3893 0.929 . S
H3906 C3894 0.960 . S
H3907 C3894 0.962 . S
H3908 C3894 0.960 . S
H3909 C3895 0.961 . S
H3910 C3895 0.961 . S
H3911 C3895 0.961 . S
H3912 C3896 0.931 . S
H3913 C3901 0.930 . S
H3914 C3902 0.956 . S
H3915 C3902 0.961 . S
H3916 C3902 0.961 . S
H3917 C3903 0.958 . S
H3918 C3903 0.961 . S
H3919 C3903 0.960 . S
C3920 C3921 1.391 . S
C3920 C3922 1.394 . S
C3920 H3936 0.931 . S
C3921 C3920 1.391 . S
C3921 C3925 1.376 . S
C3922 C3920 1.394 . S
C3922 C3923 1.369 . S
C3922 C3926 1.531 . S
C3923 C3922 1.369 . S
C3923 C3924 1.410 . S
C3923 C3931 1.503 . S
C3924 C3923 1.410 . S
C3924 C3925 1.392 . S
C3924 C3927 1.511 . S
C3925 C3921 1.376 . S
C3925 C3924 1.392 . S
C3925 H3937 0.929 . S
C3926 C3922 1.531 . S
C3926 H3938 0.960 . S
C3926 H3939 0.962 . S
C3926 H3940 0.960 . S
C3927 C3924 1.511 . S
C3927 H3941 0.961 . S
C3927 H3942 0.961 . S
C3927 H3943 0.961 . S
C3928 C3929 1.370 . S
C3928 C3930 1.363 . S
C3928 H3944 0.931 . S
C3929 C3928 1.370 . S
C3929 C3933 1.408 . S
C3930 C3928 1.363 . S
C3930 C3931 1.370 . S
C3930 C3934 1.524 . S
C3931 C3923 1.503 . S
C3931 C3930 1.370 . S
C3931 C3932 1.403 . S
C3932 C3931 1.403 . S
C3932 C3933 1.404 . S
C3932 C3935 1.539 . S
C3933 C3929 1.408 . S
C3933 C3932 1.404 . S
C3933 H3945 0.930 . S
C3934 C3930 1.524 . S
C3934 H3946 0.956 . S
C3934 H3947 0.961 . S
C3934 H3948 0.961 . S
C3935 C3932 1.539 . S
C3935 H3949 0.958 . S
C3935 H3950 0.961 . S
C3935 H3951 0.960 . S
H3936 C3920 0.931 . S
H3937 C3925 0.929 . S
H3938 C3926 0.960 . S
H3939 C3926 0.962 . S
H3940 C3926 0.960 . S
H3941 C3927 0.961 . S
H3942 C3927 0.961 . S
H3943 C3927 0.961 . S
H3944 C3928 0.931 . S
H3945 C3933 0.930 . S
H3946 C3934 0.956 . S
H3947 C3934 0.961 . S
H3948 C3934 0.961 . S
H3949 C3935 0.958 . S
H3950 C3935 0.961 . S
H3951 C3935 0.960 . S
C3952 C3953 1.391 . S
C3952 C3954 1.394 . S
C3952 H3968 0.931 . S
C3953 C3952 1.391 . S
C3953 C3957 1.395 . S
C3954 C3952 1.394 . S
C3954 C3955 1.353 1_554 S
C3954 C3958 1.531 . S
C3955 C3954 1.353 1_556 S
C3955 C3956 1.414 . S
C3955 C3963 1.513 . S
C3956 C3955 1.414 . S
C3956 C3957 1.377 1_556 S
C3956 C3959 1.511 . S
C3957 C3953 1.395 . S
C3957 C3956 1.377 1_554 S
C3957 H3969 0.927 1_554 S
C3958 C3954 1.531 . S
C3958 H3970 0.960 . S
C3958 H3971 0.962 . S
C3958 H3972 0.960 . S
C3959 C3956 1.511 . S
C3959 H3973 0.961 . S
C3959 H3974 0.961 . S
C3959 H3975 0.961 . S
C3960 C3961 1.370 1_554 S
C3960 C3962 1.363 . S
C3960 H3976 0.931 . S
C3961 C3960 1.370 1_556 S
C3961 C3965 1.408 . S
C3962 C3960 1.363 . S
C3962 C3963 1.370 1_554 S
C3962 C3966 1.524 . S
C3963 C3955 1.513 . S
C3963 C3962 1.370 1_556 S
C3963 C3964 1.403 . S
C3964 C3963 1.403 . S
C3964 C3965 1.404 . S
C3964 C3967 1.539 . S
C3965 C3961 1.408 . S
C3965 C3964 1.404 . S
C3965 H3977 0.930 . S
C3966 C3962 1.524 . S
C3966 H3978 0.956 . S
C3966 H3979 0.961 . S
C3966 H3980 0.961 . S
C3967 C3964 1.539 . S
C3967 H3981 0.958 . S
C3967 H3982 0.961 . S
C3967 H3983 0.960 . S
H3968 C3952 0.931 . S
H3969 C3957 0.927 1_556 S
H3970 C3958 0.960 . S
H3971 C3958 0.962 . S
H3972 C3958 0.960 . S
H3973 C3959 0.961 . S
H3974 C3959 0.961 . S
H3975 C3959 0.961 . S
H3976 C3960 0.931 . S
H3977 C3965 0.930 . S
H3978 C3966 0.956 . S
H3979 C3966 0.961 . S
H3980 C3966 0.961 . S
H3981 C3967 0.958 . S
H3982 C3967 0.961 . S
H3983 C3967 0.960 . S
C3984 C3985 1.391 . S
C3984 C3986 1.394 . S
C3984 H4000 0.931 . S
C3985 C3984 1.391 . S
C3985 C3989 1.376 . S
C3986 C3984 1.394 . S
C3986 C3987 1.369 . S
C3986 C3990 1.531 . S
C3987 C3986 1.369 . S
C3987 C3988 1.410 . S
C3987 C3995 1.503 . S
C3988 C3987 1.410 . S
C3988 C3989 1.392 . S
C3988 C3991 1.511 . S
C3989 C3985 1.376 . S
C3989 C3988 1.392 . S
C3989 H4001 0.929 . S
C3990 C3986 1.531 . S
C3990 H4002 0.960 . S
C3990 H4003 0.962 . S
C3990 H4004 0.960 . S
C3991 C3988 1.511 . S
C3991 H4005 0.961 . S
C3991 H4006 0.961 . S
C3991 H4007 0.961 . S
C3992 C3993 1.370 . S
C3992 C3994 1.363 . S
C3992 H4008 0.931 . S
C3993 C3992 1.370 . S
C3993 C3997 1.408 . S
C3994 C3992 1.363 . S
C3994 C3995 1.370 . S
C3994 C3998 1.524 . S
C3995 C3987 1.503 . S
C3995 C3994 1.370 . S
C3995 C3996 1.403 . S
C3996 C3995 1.403 . S
C3996 C3997 1.404 . S
C3996 C3999 1.539 . S
C3997 C3993 1.408 . S
C3997 C3996 1.404 . S
C3997 H4009 0.930 . S
C3998 C3994 1.524 . S
C3998 H4010 0.956 . S
C3998 H4011 0.961 . S
C3998 H4012 0.961 . S
C3999 C3996 1.539 . S
C3999 H4013 0.958 . S
C3999 H4014 0.961 . S
C3999 H4015 0.960 . S
H4000 C3984 0.931 . S
H4001 C3989 0.929 . S
H4002 C3990 0.960 . S
H4003 C3990 0.962 . S
H4004 C3990 0.960 . S
H4005 C3991 0.961 . S
H4006 C3991 0.961 . S
H4007 C3991 0.961 . S
H4008 C3992 0.931 . S
H4009 C3997 0.930 . S
H4010 C3998 0.956 . S
H4011 C3998 0.961 . S
H4012 C3998 0.961 . S
H4013 C3999 0.958 . S
H4014 C3999 0.961 . S
H4015 C3999 0.960 . S
C4016 C4017 1.391 . S
C4016 C4018 1.394 . S
C4016 H4032 0.931 . S
C4017 C4016 1.391 . S
C4017 C4021 1.376 . S
C4018 C4016 1.394 . S
C4018 C4019 1.369 . S
C4018 C4022 1.531 . S
C4019 C4018 1.369 . S
C4019 C4020 1.410 . S
C4019 C4027 1.503 . S
C4020 C4019 1.410 . S
C4020 C4021 1.392 . S
C4020 C4023 1.511 . S
C4021 C4017 1.376 . S
C4021 C4020 1.392 . S
C4021 H4033 0.929 . S
C4022 C4018 1.531 . S
C4022 H4034 0.960 . S
C4022 H4035 0.962 . S
C4022 H4036 0.960 . S
C4023 C4020 1.511 . S
C4023 H4037 0.961 . S
C4023 H4038 0.961 . S
C4023 H4039 0.961 . S
C4024 C4025 1.370 . S
C4024 C4026 1.363 . S
C4024 H4040 0.931 . S
C4025 C4024 1.370 . S
C4025 C4029 1.408 . S
C4026 C4024 1.363 . S
C4026 C4027 1.370 . S
C4026 C4030 1.524 . S
C4027 C4019 1.503 . S
C4027 C4026 1.370 . S
C4027 C4028 1.403 . S
C4028 C4027 1.403 . S
C4028 C4029 1.404 . S
C4028 C4031 1.539 . S
C4029 C4025 1.408 . S
C4029 C4028 1.404 . S
C4029 H4041 0.930 . S
C4030 C4026 1.524 . S
C4030 H4042 0.956 . S
C4030 H4043 0.961 . S
C4030 H4044 0.961 . S
C4031 C4028 1.539 . S
C4031 H4045 0.958 . S
C4031 H4046 0.961 . S
C4031 H4047 0.960 . S
H4032 C4016 0.931 . S
H4033 C4021 0.929 . S
H4034 C4022 0.960 . S
H4035 C4022 0.962 . S
H4036 C4022 0.960 . S
H4037 C4023 0.961 . S
H4038 C4023 0.961 . S
H4039 C4023 0.961 . S
H4040 C4024 0.931 . S
H4041 C4029 0.930 . S
H4042 C4030 0.956 . S
H4043 C4030 0.961 . S
H4044 C4030 0.961 . S
H4045 C4031 0.958 . S
H4046 C4031 0.961 . S
H4047 C4031 0.960 . S
C977 C111 2.230 . S
C985 C346 2.197 1_556 S
C1009 C64 2.114 . S
C1017 C394 2.171 . S
C1041 C77 1.114 . S
C1049 C426 1.086 . S
C1081 C471 1.192 . S
C1073 C95 1.188 . S
C1105 C25 1.174 . S
C1113 C511 1.105 . S
C1145 C542 0.496 . S
C1137 C36 0.546 . S
C1177 C594 1.319 . S
C1169 C50 1.269 . S
C1201 C11 1.764 . S
C1209 C626 1.681 . S
C1241 C354 2.425 . S
C1233 C237 2.327 . S
C1265 C245 0.508 . S
C1273 C391 0.504 . S
C1305 C434 1.142 . S
C1297 C279 1.101 . S
C1337 C466 1.263 . S
C1329 C175 1.273 . S
C1361 C231 1.734 . S
C1369 C506 1.751 . S
C1401 C545 1.355 . S
C1393 C251 1.245 . S
C1433 C591 0.372 . S
C1425 C273 0.398 . S
C1465 C634 2.050 . S
C1457 C181 2.014 . S
C1497 C351 1.375 1_565 S
C1489 C165 1.440 . S
C1521 C288 1.857 1_556 S
C1529 C674 1.945 . S
C1561 C715 2.560 . S
C1553 C333 2.629 . S
C1593 C746 0.589 . S
C1585 C316 0.541 . S
C1617 C123 1.458 . S
C1625 C631 1.364 . S
C1649 C137 1.477 . S
C1657 C431 1.430 . S
C1681 C330 2.145 . S
C1689 C794 2.237 . S
C1721 C826 0.563 . S
C1713 C302 0.536 . S
C1753 C355 2.314 . S
C1745 C63 2.339 . S
C1785 C825 2.198 . S
C1777 C106 2.184 . S
C1809 C97 1.228 . S
C1817 C435 1.209 . S
C1841 C81 1.265 . S
C1849 C782 1.246 . S
C1881 C502 1.195 . S
C1873 C13 1.180 . S
C1905 C55 0.467 . S
C1913 C711 0.506 . S
C1945 C585 1.338 . S
C1937 C35 1.275 . S
C1977 C875 1.856 . S
C1969 C21 1.899 . S
C2009 C345 2.535 . S
C2001 C147 2.544 . S
C2041 C822 0.460 . S
C2033 C321 0.683 . S
C2065 C119 1.224 . S
C2073 C425 1.214 . S
C2097 C293 1.398 . S
C2105 C795 1.415 . S
C2129 C153 1.743 . S
C2137 C515 1.946 . S
C2169 C714 1.383 . S
C2161 C315 1.391 . S
C2193 C125 0.567 1_545 S
C2201 C582 0.324 . S
C2225 C287 2.175 . S
C2233 C865 2.139 . S
C2257 C193 1.470 . S
C2265 C342 1.431 . S
C2289 C176 1.961 . S
C2297 C665 1.960 . S
C2321 C263 2.592 . S
C2329 C546 2.506 . S
C2353 C246 0.810 . S
C2361 C755 0.799 . S
C2393 C862 1.387 . S
C2385 C277 1.439 . S
C2417 C221 1.459 . S
C2425 C422 1.458 . S
C2457 C465 2.279 . S
C2449 C260 2.276 . S
C2489 C395 0.614 . S
C2481 C204 0.576 . S
C2513 C83 2.222 . S
C2521 C906 2.204 . S
C2553 C834 2.171 . S
C2545 C92 2.117 . S
C2577 C105 1.123 . S
C2585 C946 1.102 . S
C2609 C67 1.203 . S
C2617 C791 1.178 . S
C2641 C53 1.175 . S
C2649 C671 1.103 . S
C2681 C702 0.496 . S
C2673 C8 0.547 . S
C2713 C754 1.332 . S
C2705 C22 1.193 . S
C2745 C866 1.673 . S
C2737 C39 1.773 . S
C2777 C914 2.427 . S
C2769 C265 2.294 . S
C2801 C189 0.523 . S
C2809 C831 0.540 . S
C2841 C954 1.148 . S
C2833 C209 1.131 . S
C2873 C786 1.262 . S
C2865 C217 1.274 . S
C2905 C666 1.757 . S
C2897 C259 1.753 . S
C2929 C195 1.243 . S
C2937 C705 1.356 . S
C2969 C751 0.407 . S
C2961 C203 0.380 . S
C2993 C223 2.031 . S
C3001 C874 2.052 . S
C3033 C911 1.401 . S
C3025 C319 1.421 . S
C3057 C134 1.900 . S
C3065 C514 1.937 . S
C3097 C555 2.573 . S
C3089 C151 2.639 . S
C3129 C586 0.557 . S
C3121 C162 0.539 . S
C3161 C871 1.361 . S
C3153 C305 1.463 . S
C3185 C291 1.483 . S
C3193 C951 1.428 . S
C3225 C474 2.233 . S
C3217 C148 2.153 . S
C3257 C386 0.526 . S
C3249 C120 0.515 . S
C3281 C91 2.339 . S
C3289 C915 2.315 . S
C3321 C385 2.199 . S
C3313 C78 2.187 . S
C3345 C69 1.161 . S
C3353 C955 1.216 . S
C3377 C109 1.224 . S
C3385 C462 1.264 . S
C3409 C41 1.114 . S
C3417 C662 1.216 . S
C3449 C551 0.476 . S
C3441 C27 0.538 . S
C3473 C7 1.261 . S
C3481 C745 1.344 . S
C3505 C49 1.919 . S
C3513 C635 1.858 . S
C3545 C905 2.532 . S
C3537 C329 2.536 . S
C3569 C167 0.685 . S
C3577 C382 0.452 . S
C3609 C945 1.228 . S
C3601 C301 1.239 . S
C3633 C139 1.394 . S
C3641 C475 1.426 . S
C3665 C335 1.753 . S
C3673 C675 1.943 . S
C3705 C554 1.389 . S
C3697 C161 1.408 . S
C3729 C307 0.437 . S
C3737 C742 0.402 . S
C3769 C625 2.145 . S
C3761 C133 2.169 . S
C3801 C902 1.431 . S
C3793 C249 1.435 . S
C3833 C505 1.959 1_665 S
C3825 C218 1.953 . S
C3857 C235 2.582 . S
C3865 C706 2.515 . S
C3897 C595 0.792 . S
C3889 C190 0.742 . S
C3921 C207 1.380 . S
C3929 C622 1.400 . S
C3953 C179 1.434 . S
C3961 C942 1.474 . S
C3993 C785 2.288 . S
C3985 C232 2.249 1_565 S
C4025 C835 0.616 . S
C4017 C274 0.590 . S
