# Generated by pormake.
# Topology pth, (4,4)-cn, num edge types: 1
# Building blocks:
#     Node 0, Type 0, BuildingBlock: UXUYUI_clean_sbu_0, # of connection points: 4
#     Node 1, Type 0, BuildingBlock: UXUYUI_clean_sbu_0, # of connection points: 4
#     Node 2, Type 0, BuildingBlock: UXUYUI_clean_sbu_0, # of connection points: 4
#     Node 3, Type 1, BuildingBlock: NAWXER_clean_sbu_0, # of connection points: 4
#     Node 4, Type 1, BuildingBlock: NAWXER_clean_sbu_0, # of connection points: 4
#     Node 5, Type 1, BuildingBlock: NAWXER_clean_sbu_0, # of connection points: 4
#     Edge 6, Type (0, 1), BuildingBlock: ZUJKAS_clean_linker_0, # of connection points: 2
#     Edge 7, Type (0, 1), BuildingBlock: ZUJKAS_clean_linker_0, # of connection points: 2
#     Edge 8, Type (0, 1), BuildingBlock: ZUJKAS_clean_linker_0, # of connection points: 2
#     Edge 9, Type (0, 1), BuildingBlock: ZUJKAS_clean_linker_0, # of connection points: 2
#     Edge 10, Type (0, 1), BuildingBlock: ZUJKAS_clean_linker_0, # of connection points: 2
#     Edge 11, Type (0, 1), BuildingBlock: ZUJKAS_clean_linker_0, # of connection points: 2
#     Edge 12, Type (0, 1), BuildingBlock: ZUJKAS_clean_linker_0, # of connection points: 2
#     Edge 13, Type (0, 1), BuildingBlock: ZUJKAS_clean_linker_0, # of connection points: 2
#     Edge 14, Type (0, 1), BuildingBlock: ZUJKAS_clean_linker_0, # of connection points: 2
#     Edge 15, Type (0, 1), BuildingBlock: ZUJKAS_clean_linker_0, # of connection points: 2
#     Edge 16, Type (0, 1), BuildingBlock: ZUJKAS_clean_linker_0, # of connection points: 2
#     Edge 17, Type (0, 1), BuildingBlock: ZUJKAS_clean_linker_0, # of connection points: 2
# Relax obj value: 0.086
# Max RMSD: 0.218
# Mean RMSD: 0.120
data_MOF--net-pth--node1-UXUYUI_clean_sbu_0--node2-NAWXER_clean_sbu_0--edge1-ZUJKAS_clean_linker_0
_symmetry_space_group_name_H-M    P1
_symmetry_Int_Tables_number       1
_symmetry_cell_setting            triclinic
loop_
_symmetry_equiv_pos_as_xyz
'x, y, z'
_cell_length_a     35.042665
_cell_length_b     35.02841
_cell_length_c     87.767021
_cell_angle_alpha  89.975205
_cell_angle_beta   90.019489
_cell_angle_gamma 119.96279
loop_
_atom_site_label
_atom_site_type_symbol
_atom_site_fract_x
_atom_site_fract_y
_atom_site_fract_z
_atom_type_partial_charge
Li0 Li 0.03721 0.03181 0.07018 0.0
Li1 Li 0.98419 0.02179 0.09081 0.0
Li2 Li 0.02015 0.9775 0.09059 0.0
Li3 Li 0.963 0.96245 0.07268 0.0
C4 C 0.07743 0.05089 0.10358 0.0
N5 N 0.13503 0.06269 0.12697 0.0
C6 C 0.06524 0.05155 0.11869 0.0
C7 C 0.11894 0.05645 0.10034 0.0
C8 C 0.09484 0.05753 0.13036 0.0
C9 C 0.14758 0.06231 0.11233 0.0
C10 C 0.96011 0.05142 0.06688 0.0
C11 C 0.89915 0.06506 0.06767 0.0
N12 N 0.92738 0.10851 0.0649 0.0
C13 C 0.98846 0.09613 0.0639 0.0
C14 C 0.91504 0.03566 0.06867 0.0
C15 C 0.9713 0.12449 0.06299 0.0
C16 C 0.07208 0.06845 0.04137 0.0
N17 N 0.07822 0.07493 0.05664 0.0
C18 C 0.13812 0.14799 0.05281 0.0
C19 C 0.11062 0.11349 0.0625 0.0
C20 C 0.1321 0.14274 0.03695 0.0
C21 C 0.09893 0.10206 0.03125 0.0
H22 H 0.04553 0.03761 0.03709 0.0
H23 H 0.11428 0.11785 0.07471 0.0
C24 C 0.93445 0.03993 0.11308 0.0
N25 N 0.96884 0.05675 0.10316 0.0
C26 C 0.92774 0.06811 0.1226 0.0
C27 C 0.99167 0.13005 0.11137 0.0
C28 C 0.99721 0.1008 0.10217 0.0
C29 C 0.95695 0.11386 0.12194 0.0
H30 H 0.91298 0.0047 0.11392 0.0
H31 H 0.02474 0.11316 0.09437 0.0
C32 C 0.05026 0.95484 0.06435 0.0
N33 N 0.10771 0.92585 0.05618 0.0
C34 C 0.03504 0.90977 0.06278 0.0
C35 C 0.09468 0.98518 0.06165 0.0
C36 C 0.06462 0.89577 0.05869 0.0
C37 C 0.1232 0.96986 0.05754 0.0
C38 C 0.91759 0.92223 0.09733 0.0
C39 C 0.91412 0.88209 0.10151 0.0
C40 C 0.87941 0.92466 0.09503 0.0
C41 C 0.8724 0.84493 0.1032 0.0
C42 C 0.83831 0.88678 0.09682 0.0
N43 N 0.83568 0.84802 0.10082 0.0
C44 C 0.02239 0.93975 0.11816 0.0
C45 C 0.07356 0.93929 0.10066 0.0
C46 C 0.0319 0.91588 0.12872 0.0
N47 N 0.04227 0.94998 0.10427 0.0
C48 C 0.08366 0.91484 0.11081 0.0
C49 C 0.06211 0.90219 0.12494 0.0
H50 H 0.9981 0.94913 0.12088 0.0
H51 H 0.09033 0.94897 0.08988 0.0
C52 C 0.89578 0.92543 0.05 0.0
N53 N 0.91757 0.91637 0.06094 0.0
C54 C 0.86592 0.89194 0.04038 0.0
C55 C 0.88098 0.84048 0.05369 0.0
C56 C 0.9106 0.8749 0.06296 0.0
C57 C 0.85866 0.84885 0.04203 0.0
H58 H 0.90261 0.95887 0.04841 0.0
H59 H 0.9288 0.86869 0.07158 0.0
O60 O 0.04841 0.04367 0.09204 0.0
O61 O 0.9764 0.02327 0.0681 0.0
O62 O 0.02166 0.96918 0.06813 0.0
O63 O 0.95814 0.9589 0.09546 0.0
H64 H 0.03308 0.04698 0.12138 0.0
H65 H 0.12875 0.05582 0.08869 0.0
H66 H 0.08579 0.05788 0.14212 0.0
H67 H 0.17974 0.06642 0.11001 0.0
H68 H 0.86436 0.05334 0.0691 0.0
H69 H 0.02342 0.10895 0.06249 0.0
H70 H 0.89255 0.00109 0.07078 0.0
H71 H 0.99292 0.15922 0.0608 0.0
H72 H 0.16362 0.17856 0.05769 0.0
H73 H 0.09281 0.09674 0.01913 0.0
H74 H 0.90089 0.05415 0.13072 0.0
H75 H 0.01464 0.16502 0.11029 0.0
H76 H 1.00083 0.88581 0.06477 0.0
H77 H 0.10718 0.02013 0.06283 0.0
H78 H 0.0533 0.86099 0.05751 0.0
H79 H 0.15766 0.99296 0.05548 0.0
H80 H 0.94327 0.87942 0.1032 0.0
H81 H 0.88148 0.95544 0.09185 0.0
H82 H 0.86923 0.81361 0.10633 0.0
H83 H 0.80849 0.88818 0.09502 0.0
H84 H 0.01444 0.9067 0.13948 0.0
H85 H 0.10776 0.90555 0.10759 0.0
H86 H 0.84994 0.90008 0.03142 0.0
H87 H 0.87603 0.80774 0.05553 0.0
Li88 Li 0.98213 0.95804 0.40111 0.0
Li89 Li 0.03838 0.00276 0.41999 0.0
Li90 Li 0.96426 0.99858 0.4205 0.0
Li91 Li 0.01839 0.04115 0.40108 0.0
C92 C 0.95191 0.90999 0.42949 0.0
N93 N 0.89731 0.82712 0.44147 0.0
C94 C 0.96985 0.88651 0.4364 0.0
C95 C 0.9062 0.89162 0.42895 0.0
C96 C 0.94171 0.84457 0.4423 0.0
C97 C 0.87915 0.84962 0.435 0.0
C98 C 0.08447 0.00649 0.39426 0.0
C99 C 0.1635 0.04957 0.39187 0.0
N100 N 0.16464 0.01246 0.38815 0.0
C101 C 0.08636 0.96887 0.39022 0.0
C102 C 0.12327 0.04726 0.39492 0.0
C103 C 0.12722 0.97253 0.38726 0.0
C104 C 0.9519 0.90822 0.37391 0.0
N105 N 0.96308 0.90705 0.38866 0.0
C106 C 0.95733 0.83683 0.3848 0.0
C107 C 0.96561 0.87218 0.39423 0.0
C108 C 0.94705 0.8376 0.36936 0.0
C109 C 0.94358 0.87361 0.36401 0.0
H110 H 0.95101 0.93679 0.36969 0.0
H111 H 0.97593 0.87257 0.40583 0.0
C112 C 0.10124 0.02977 0.44411 0.0
N113 N 0.08247 0.00135 0.43229 0.0
C114 C 0.1302 0.02537 0.45396 0.0
C115 C 0.12012 0.96276 0.4392 0.0
C116 C 0.09134 0.96831 0.4297 0.0
C117 C 0.13961 0.99115 0.45166 0.0
H118 H 0.09269 0.055 0.44619 0.0
H119 H 0.07487 0.94527 0.42053 0.0
C120 C 0.91243 0.98081 0.39381 0.0
N121 N 0.82613 0.95006 0.38503 0.0
C122 C 0.89926 0.01014 0.38855 0.0
C123 C 0.88188 0.93572 0.39426 0.0
C124 C 0.85544 0.994 0.38427 0.0
C125 C 0.83837 0.92085 0.38986 0.0
C126 C 0.04756 0.09473 0.42575 0.0
C127 C 0.02604 0.11757 0.43003 0.0
C128 C 0.09322 0.11771 0.42376 0.0
C129 C 0.05049 0.16325 0.43192 0.0
C130 C 0.11652 0.16337 0.42577 0.0
N131 N 0.09484 0.18502 0.42975 0.0
C132 C 0.91177 0.98091 0.44716 0.0
C133 C 0.90441 0.02626 0.42873 0.0
C134 C 0.88364 0.98629 0.4571 0.0
N135 N 0.9214 1.00069 0.43326 0.0
C136 C 0.87633 0.03268 0.43831 0.0
C137 C 0.86587 0.01286 0.45277 0.0
H138 H 0.9269 0.96198 0.45071 0.0
H139 H 0.91394 0.04302 0.41789 0.0
C140 C 0.06478 0.10381 0.37707 0.0
N141 N 0.03548 0.09187 0.38874 0.0
C142 C 0.07232 0.139 0.36754 0.0
C143 C 0.01993 0.14902 0.3824 0.0
C144 C 0.0134 0.1138 0.39156 0.0
C145 C 0.04911 0.16161 0.37001 0.0
H146 H 0.08125 0.08523 0.37487 0.0
H147 H 0.98968 0.10307 0.40073 0.0
O148 O 0.9791 0.9512 0.4237 0.0
O149 O 0.04474 0.0035 0.39725 0.0
O150 O 0.95535 0.99607 0.39795 0.0
O151 O 0.02411 0.05006 0.42368 0.0
H152 H 0.00512 0.90037 0.43712 0.0
H153 H 0.89169 0.90984 0.42416 0.0
H154 H 0.95518 0.82592 0.44757 0.0
H155 H 0.84371 0.83503 0.43463 0.0
H156 H 0.1938 0.0809 0.3924 0.0
H157 H 0.05664 0.93712 0.3895 0.0
H158 H 0.12235 0.07685 0.39765 0.0
H159 H 0.12919 0.94362 0.38424 0.0
H160 H 0.95995 0.80964 0.38949 0.0
H161 H 0.93641 0.876 0.35216 0.0
H162 H 0.14382 0.04756 0.46356 0.0
H163 H 0.12661 0.93617 0.43689 0.0
H164 H 0.92255 0.04505 0.38785 0.0
H165 H 0.89165 0.91233 0.39781 0.0
H166 H 0.84476 0.01641 0.38031 0.0
H167 H 0.81439 0.88604 0.39023 0.0
H168 H 0.99079 0.10029 0.43177 0.0
H169 H 0.11051 0.10044 0.42081 0.0
H170 H 0.0342 0.18138 0.43511 0.0
H171 H 0.15186 0.18157 0.42421 0.0
H172 H 0.87711 0.97105 0.46825 0.0
H173 H 0.86329 0.05331 0.43448 0.0
H174 H 0.09474 0.14728 0.35801 0.0
H175 H 0.00176 0.16582 0.38487 0.0
Li176 Li 0.03138 0.9907 0.7365 0.0
Li177 Li 0.02988 0.03859 0.75624 0.0
Li178 Li 0.97101 0.95869 0.75529 0.0
Li179 Li 0.97044 0.00952 0.73673 0.0
C180 C 0.06139 0.96753 0.76212 0.0
N181 N 0.11476 0.93219 0.76835 0.0
C182 C 0.10434 0.99453 0.76742 0.0
C183 C 0.04534 0.92243 0.76027 0.0
C184 C 0.13089 0.9761 0.77042 0.0
C185 C 0.07288 0.90521 0.7634 0.0
C186 C 0.05674 0.09207 0.72947 0.0
C187 C 0.05779 0.16048 0.72476 0.0
N188 N 0.10057 0.17924 0.72028 0.0
C189 C 0.10047 0.11185 0.72455 0.0
C190 C 0.03502 0.1164 0.72935 0.0
C191 C 0.12216 0.15602 0.72006 0.0
C192 C 0.0625 0.96449 0.71054 0.0
N193 N 0.07355 0.98669 0.724 0.0
C194 C 0.15018 0.01729 0.71862 0.0
C195 C 0.11633 0.0125 0.72818 0.0
C196 C 0.14001 0.99572 0.70448 0.0
C197 C 0.09543 0.9683 0.70059 0.0
H198 H 0.02826 0.94536 0.70725 0.0
H199 H 0.12423 0.03118 0.73864 0.0
C200 C 0.05768 0.08952 0.7835 0.0
N201 N 0.06998 0.08459 0.76928 0.0
C202 C 0.08925 0.11837 0.79387 0.0
C203 C 0.14528 0.13677 0.77469 0.0
C204 C 0.11272 0.10758 0.76474 0.0
C205 C 0.13386 0.14195 0.78957 0.0
H206 H 0.02365 0.06983 0.78698 0.0
H207 H 0.12196 0.10137 0.75368 0.0
C208 C 0.94175 0.90832 0.72941 0.0
N209 N 0.88978 0.81966 0.7229 0.0
C210 C 0.8969 0.89057 0.72633 0.0
C211 C 0.96033 0.88114 0.72885 0.0
C212 C 0.87112 0.84563 0.72317 0.0
C213 C 0.93348 0.83637 0.72562 0.0
C214 C 0.94531 0.035 0.76363 0.0
C215 C 0.90198 0.0132 0.76903 0.0
C216 C 0.96868 0.08102 0.76312 0.0
C217 C 0.88237 0.03777 0.77341 0.0
C218 C 0.94797 0.10444 0.76762 0.0
N219 N 0.90557 0.08251 0.7726 0.0
C220 C 0.94062 0.89223 0.77888 0.0
C221 C 0.88686 0.89795 0.76426 0.0
C222 C 0.90782 0.8607 0.78834 0.0
N223 N 0.92953 0.91015 0.76715 0.0
C224 C 0.85318 0.86685 0.77341 0.0
C225 C 0.86338 0.84808 0.78578 0.0
H226 H 0.97488 0.90343 0.78125 0.0
H227 H 0.87913 0.9139 0.75521 0.0
C228 C 0.94086 0.03469 0.71028 0.0
N229 N 0.92942 0.0158 0.72431 0.0
C230 C 0.90845 0.03178 0.70026 0.0
C231 C 0.85341 0.99051 0.71938 0.0
C232 C 0.88679 0.99438 0.72902 0.0
C233 C 0.86392 0.00854 0.70466 0.0
H234 H 0.97483 0.05025 0.70662 0.0
H235 H 0.87838 0.97815 0.73996 0.0
O236 O 0.03497 0.98507 0.75907 0.0
O237 O 0.03485 0.04865 0.73374 0.0
O238 O 0.96752 0.95227 0.73258 0.0
O239 O 0.96507 0.01139 0.75936 0.0
H240 H 0.11715 0.02941 0.76912 0.0
H241 H 0.01184 0.90084 0.75661 0.0
H242 H 0.1643 0.99669 0.77441 0.0
H243 H 0.06088 0.87036 0.76197 0.0
H244 H 0.04139 0.17969 0.72469 0.0
H245 H 0.11762 0.09339 0.72426 0.0
H246 H 1.00077 0.10135 0.73259 0.0
H247 H 0.15612 0.1718 0.71637 0.0
H248 H 0.18402 0.03849 0.72213 0.0
H249 H 0.0861 0.9516 0.6897 0.0
H250 H 0.07897 0.12152 0.80521 0.0
H251 H 0.17931 0.15341 0.77099 0.0
H252 H 0.88206 0.91121 0.72645 0.0
H253 H 0.99519 0.8945 0.73075 0.0
H254 H 0.83629 0.83141 0.72089 0.0
H255 H 0.94743 0.81493 0.72522 0.0
H256 H 0.88356 0.97765 0.76978 0.0
H257 H 0.00263 0.09856 0.75946 0.0
H258 H 0.84875 0.02127 0.77748 0.0
H259 H 0.96569 0.14007 0.76721 0.0
H260 H 0.91726 0.84696 0.79768 0.0
H261 H 0.81968 0.85913 0.77118 0.0
H262 H 0.91793 0.04563 0.68893 0.0
H263 H 0.81957 0.97254 0.72327 0.0
C264 C 0.96803 0.53399 0.26477 0.0
C265 C 0.96936 0.43579 0.22569 0.0
O266 O 0.00733 0.54394 0.261 0.0
Zn267 Zn 0.0382 0.51954 0.24556 0.0
O268 O 0.9355 0.50109 0.25855 0.0
Zn269 Zn 0.96886 0.48466 0.24535 0.0
O270 O 0.99885 0.45992 0.26106 0.0
O271 O 0.07078 0.50254 0.25892 0.0
O272 O 0.93642 0.43532 0.23192 0.0
O273 O 0.00842 0.46518 0.22969 0.0
O274 O 0.07147 0.56971 0.23257 0.0
O275 O 0.99959 0.53999 0.22983 0.0
C276 C 0.03797 0.46974 0.26504 0.0
C277 C 0.0389 0.56965 0.2262 0.0
C278 C 0.53705 0.9712 0.59805 0.0
C279 C 0.43724 0.96803 0.55824 0.0
O280 O 0.50526 0.93688 0.59211 0.0
Zn281 Zn 0.48574 0.96719 0.57824 0.0
O282 O 0.54455 0.00934 0.59381 0.0
Zn283 Zn 0.51936 0.03822 0.5783 0.0
O284 O 0.49868 0.06816 0.59187 0.0
O285 O 0.45943 0.99568 0.59338 0.0
O286 O 0.46614 0.00684 0.56256 0.0
O287 O 0.43658 0.93468 0.5643 0.0
O288 O 0.5405 0.99898 0.5631 0.0
O289 O 0.56959 0.07111 0.56483 0.0
C290 C 0.46655 0.0337 0.5976 0.0
C291 C 0.5697 0.0379 0.55898 0.0
C292 C 0.43236 0.46714 0.93278 0.0
C293 C 0.53797 0.56339 0.89421 0.0
O294 O 0.43239 0.49959 0.92624 0.0
Zn295 Zn 0.48384 0.51645 0.91338 0.0
O296 O 0.46181 0.45719 0.92927 0.0
Zn297 Zn 0.51692 0.47847 0.91448 0.0
O298 O 0.56521 0.49554 0.92883 0.0
O299 O 0.53582 0.53847 0.92966 0.0
O300 O 0.54454 0.53251 0.89893 0.0
O301 O 0.50576 0.56643 0.8995 0.0
O302 O 0.46014 0.4625 0.898 0.0
O303 O 0.49736 0.42753 0.90108 0.0
C304 C 0.5642 0.52845 0.93452 0.0
C305 C 0.46725 0.43123 0.89431 0.0
H306 H 0.02286 0.18509 0.13661 0.0
H307 H 0.01655 0.23725 0.15335 0.0
H308 H 0.87529 0.16458 0.1484 0.0
H309 H 0.88128 0.11232 0.13134 0.0
H310 H 0.97604 0.28929 0.14578 0.0
H311 H 0.89717 0.17792 0.19537 0.0
H312 H 0.92564 0.16587 0.18066 0.0
H313 H 0.872 0.1585 0.17701 0.0
C314 C 0.9904 0.18028 0.13895 0.0
C315 C 0.95257 0.14464 0.13253 0.0
C316 C 0.98687 0.21001 0.14859 0.0
C317 C 0.94549 0.20461 0.15217 0.0
C318 C 0.90752 0.16895 0.14593 0.0
H319 H 0.89162 0.36725 0.21497 0.0
H320 H 0.8821 0.31124 0.19625 0.0
C321 C 0.91101 0.13912 0.13621 0.0
C322 C 0.94273 0.23719 0.16217 0.0
H323 H 0.9126 0.25121 0.19781 0.0
C324 C 0.96189 0.28095 0.15712 0.0
C325 C 0.92397 0.22606 0.1769 0.0
C326 C 0.90371 0.17964 0.18293 0.0
C327 C 0.96355 0.31413 0.16651 0.0
C328 C 0.94641 0.3034 0.18147 0.0
C329 C 0.92584 0.25934 0.18635 0.0
C330 C 0.95188 0.33781 0.19252 0.0
C331 C 0.98374 0.36042 0.16034 0.0
C332 C 0.99425 0.37099 0.19673 0.0
C333 C 0.99982 0.40299 0.20738 0.0
C334 C 0.96309 0.4023 0.21413 0.0
C335 C 0.92061 0.36885 0.20994 0.0
C336 C 0.91508 0.33679 0.19927 0.0
H337 H 0.98276 0.36062 0.14768 0.0
H338 H 0.96651 0.37745 0.16478 0.0
H339 H 0.01877 0.37943 0.16389 0.0
H340 H 0.02312 0.37184 0.19192 0.0
H341 H 0.03299 0.42804 0.2104 0.0
H342 H 0.80037 0.95351 0.47138 0.0
H343 H 0.75525 0.9675 0.48928 0.0
H344 H 0.8231 0.10464 0.4764 0.0
H345 H 0.86842 0.09096 0.45848 0.0
H346 H 0.78353 0.02525 0.51404 0.0
H347 H 0.69334 0.06974 0.47197 0.0
H348 H 0.72374 0.0428 0.46652 0.0
H349 H 0.75238 0.10074 0.47069 0.0
C350 C 0.80575 0.98666 0.47237 0.0
C351 C 0.83783 0.02106 0.46344 0.0
C352 C 0.77985 0.99458 0.48256 0.0
C353 C 0.78542 0.03698 0.48402 0.0
C354 C 0.81757 0.07148 0.47521 0.0
H355 H 0.6364 0.11415 0.54613 0.0
H356 H 0.69311 0.12021 0.52814 0.0
C357 C 0.84342 0.06357 0.46497 0.0
C358 C 0.75825 0.04499 0.4951 0.0
H359 H 0.67805 0.07304 0.49797 0.0
C360 C 0.7607 0.036 0.51053 0.0
C361 C 0.72875 0.05939 0.4905 0.0
C362 C 0.72397 0.06845 0.47401 0.0
C363 C 0.73366 0.03992 0.52145 0.0
C364 C 0.70307 0.05272 0.51679 0.0
C365 C 0.70174 0.06342 0.50147 0.0
C366 C 0.66894 0.05008 0.52735 0.0
C367 C 0.73736 0.02948 0.53788 0.0
C368 C 0.63638 0.0087 0.53255 0.0
C369 C 0.60415 0.00512 0.54266 0.0
C370 C 0.60364 0.0429 0.54782 0.0
C371 C 0.63597 0.08447 0.54241 0.0
C372 C 0.66831 0.08799 0.53215 0.0
H373 H 0.76952 0.03163 0.54026 0.0
H374 H 0.73336 0.05224 0.54567 0.0
H375 H 0.71088 0.99538 0.54046 0.0
H376 H 0.63598 0.97904 0.52879 0.0
H377 H 0.57978 0.97252 0.54651 0.0
H378 H 0.77907 0.78399 0.77867 0.0
H379 H 0.71931 0.73842 0.7962 0.0
H380 H 0.80778 0.79574 0.83429 0.0
H381 H 0.86714 0.84316 0.81692 0.0
H382 H 0.71002 0.67668 0.81579 0.0
H383 H 0.70625 0.81094 0.84769 0.0
H384 H 0.73671 0.82052 0.83018 0.0
H385 H 0.7598 0.8161 0.84798 0.0
C386 C 0.78576 0.78735 0.79079 0.0
C387 C 0.82794 0.81762 0.79636 0.0
C388 C 0.75156 0.76107 0.8008 0.0
C389 C 0.75874 0.76438 0.81659 0.0
C390 C 0.8011 0.79348 0.82218 0.0
H391 H 0.61587 0.57232 0.88486 0.0
H392 H 0.66575 0.62147 0.86549 0.0
C393 C 0.83527 0.82004 0.81219 0.0
C394 C 0.72232 0.73624 0.82717 0.0
H395 H 0.66787 0.73905 0.85907 0.0
C396 C 0.70054 0.69039 0.82515 0.0
C397 C 0.70918 0.7541 0.8392 0.0
C398 C 0.72888 0.80313 0.84131 0.0
C399 C 0.66735 0.66187 0.8352 0.0
C400 C 0.65638 0.6796 0.84784 0.0
C401 C 0.67672 0.72549 0.84949 0.0
C402 C 0.62598 0.65091 0.85992 0.0
C403 C 0.64442 0.61294 0.83216 0.0
C404 C 0.58776 0.65237 0.86372 0.0
C405 C 0.55909 0.62442 0.87502 0.0
C406 C 0.56836 0.59469 0.88267 0.0
C407 C 0.60728 0.5943 0.87906 0.0
C408 C 0.63584 0.62226 0.8679 0.0
H409 H 0.6458 0.60595 0.81989 0.0
H410 H 0.6612 0.59833 0.83864 0.0
H411 H 0.60938 0.59642 0.83577 0.0
H412 H 0.57982 0.67464 0.85779 0.0
H413 H 0.52949 0.62562 0.87759 0.0
H414 H 0.07615 0.91065 0.15571 0.0
H415 H 0.08069 0.85831 0.17308 0.0
H416 H 0.06523 0.77373 0.13504 0.0
H417 H 0.06193 0.82649 0.11764 0.0
H418 H 0.0192 0.77715 0.17891 0.0
H419 H 0.16447 0.77218 0.15691 0.0
H420 H 0.15157 0.81389 0.15113 0.0
H421 H 0.12448 0.76037 0.14225 0.0
C422 C 0.07438 0.88116 0.15106 0.0
C423 C 0.06892 0.87272 0.13533 0.0
C424 C 0.07701 0.85131 0.16098 0.0
C425 C 0.07397 0.81231 0.15537 0.0
C426 C 0.069 0.80412 0.13962 0.0
H427 H 0.97842 0.57128 0.20699 0.0
H428 H 0.9887 0.63058 0.18983 0.0
C429 C 0.06694 0.83423 0.12968 0.0
C430 C 0.07237 0.77866 0.16608 0.0
H431 H 0.1161 0.71245 0.17328 0.0
C432 C 0.04073 0.76337 0.17775 0.0
C433 C 0.1008 0.76099 0.16475 0.0
C434 C 0.13753 0.77806 0.15318 0.0
C435 C 0.03597 0.73022 0.18786 0.0
C436 C 0.06265 0.71074 0.18596 0.0
C437 C 0.09516 0.72686 0.17458 0.0
C438 C 0.05723 0.67365 0.19568 0.0
C439 C 0.00276 0.7169 0.20059 0.0
C440 C 0.09288 0.67718 0.20414 0.0
C441 C 0.0873 0.64293 0.21378 0.0
C442 C 0.04589 0.60457 0.21517 0.0
C443 C 0.01061 0.60061 0.20633 0.0
C444 C 0.01635 0.63463 0.19659 0.0
H445 H 0.99543 0.74355 0.20333 0.0
H446 H 0.97148 0.68756 0.19701 0.0
H447 H 0.01461 0.70846 0.2111 0.0
H448 H 0.12482 0.70686 0.20353 0.0
H449 H 0.11516 0.64699 0.22041 0.0
H450 H 0.12843 0.91265 0.46239 0.0
H451 H 0.17473 0.90117 0.48055 0.0
H452 H 0.26117 0.04165 0.48382 0.0
H453 H 0.21553 0.05352 0.46549 0.0
H454 H 0.2664 0.9289 0.47895 0.0
H455 H 0.22679 0.00137 0.52842 0.0
H456 H 0.19429 0.98502 0.51119 0.0
H457 H 0.2453 0.03652 0.51196 0.0
C458 C 0.15756 0.94115 0.46683 0.0
C459 C 0.16819 0.98408 0.46249 0.0
C460 C 0.18382 0.93447 0.47727 0.0
C461 C 0.22096 0.97055 0.48368 0.0
C462 C 0.2321 0.01337 0.47922 0.0
H463 H 0.43498 0.03387 0.54264 0.0
H464 H 0.37979 0.02831 0.52462 0.0
C465 C 0.20594 0.0201 0.46876 0.0
C466 C 0.24831 0.96362 0.49499 0.0
H467 H 0.28783 0.98964 0.5313 0.0
C468 C 0.27073 0.94164 0.49046 0.0
C469 C 0.25348 0.97993 0.51003 0.0
C470 C 0.22838 0.00166 0.51578 0.0
C471 C 0.30008 0.93762 0.50038 0.0
C472 C 0.30657 0.95557 0.5152 0.0
C473 C 0.28284 0.97602 0.51989 0.0
C474 C 0.34069 0.95726 0.5256 0.0
C475 C 0.32541 0.91605 0.49474 0.0
C476 C 0.33716 0.91894 0.53208 0.0
C477 C 0.36894 0.92194 0.5425 0.0
C478 C 0.40451 0.96334 0.54659 0.0
C479 C 0.40803 0.00141 0.53983 0.0
C480 C 0.37647 0.99837 0.5295 0.0
H481 H 0.32125 0.9095 0.48229 0.0
H482 H 0.36105 0.93718 0.49727 0.0
H483 H 0.31364 0.88423 0.50075 0.0
H484 H 0.30944 0.8869 0.52933 0.0
H485 H 0.36521 0.89204 0.54754 0.0
H486 H 0.14012 0.12365 0.81949 0.0
H487 H 0.19895 0.16821 0.83755 0.0
H488 H 0.26581 0.26694 0.80291 0.0
H489 H 0.20702 0.22269 0.78478 0.0
H490 H 0.32169 0.24486 0.81939 0.0
H491 H 0.21828 0.28231 0.85769 0.0
H492 H 0.19753 0.22477 0.85409 0.0
H493 H 0.20088 0.26033 0.83876 0.0
C494 C 0.16701 0.15515 0.81577 0.0
C495 C 0.16869 0.16979 0.80072 0.0
C496 C 0.20069 0.18045 0.82609 0.0
C497 C 0.23653 0.22101 0.8216 0.0
C498 C 0.23847 0.23565 0.80659 0.0
H499 H 0.41566 0.4425 0.87392 0.0
H500 H 0.36253 0.3888 0.85625 0.0
C501 C 0.20486 0.21034 0.79625 0.0
C502 C 0.27183 0.24857 0.83257 0.0
H503 H 0.29158 0.30792 0.86534 0.0
C504 C 0.31519 0.25853 0.82949 0.0
C505 C 0.26316 0.26647 0.84567 0.0
C506 C 0.21755 0.25833 0.84925 0.0
C507 C 0.35027 0.28646 0.83909 0.0
C508 C 0.34154 0.30442 0.85215 0.0
C509 C 0.29808 0.29382 0.85535 0.0
C510 C 0.37713 0.3374 0.86199 0.0
C511 C 0.39652 0.2978 0.83493 0.0
C512 C 0.40373 0.32659 0.87091 0.0
C513 C 0.4346 0.35756 0.88107 0.0
C514 C 0.43883 0.39949 0.88252 0.0
C515 C 0.41301 0.41039 0.8732 0.0
C516 C 0.38257 0.37972 0.86307 0.0
H517 H 0.39853 0.28733 0.82315 0.0
H518 H 0.4194 0.33383 0.83596 0.0
H519 H 0.40785 0.28094 0.84291 0.0
H520 H 0.39965 0.29387 0.87036 0.0
H521 H 0.45389 0.34817 0.88815 0.0
H522 H 0.7867 0.93184 0.6997 0.0
H523 H 0.72875 0.91824 0.68135 0.0
H524 H 0.80259 0.05353 0.66649 0.0
H525 H 0.86089 0.06733 0.68478 0.0
H526 H 0.6769 0.95554 0.67871 0.0
H527 H 0.77717 0.98738 0.62651 0.0
H528 H 0.79552 0.98028 0.64497 0.0
H529 H 0.80127 0.03256 0.63967 0.0
C530 C 0.79049 0.9588 0.6926 0.0
C531 C 0.82842 1.00071 0.69369 0.0
C532 C 0.75743 0.95088 0.68206 0.0
C533 C 0.76167 0.98462 0.67236 0.0
C534 C 0.79915 0.02668 0.67359 0.0
H535 H 0.61024 0.0394 0.61064 0.0
H536 H 0.66144 0.03648 0.62865 0.0
C537 C 0.83237 0.03459 0.68407 0.0
C538 C 0.72644 0.97613 0.66121 0.0
H539 H 0.7082 0.98528 0.62352 0.0
C540 C 0.68356 0.96142 0.66661 0.0
C541 C 0.73509 0.98338 0.64541 0.0
C542 C 0.77965 0.99632 0.63876 0.0
C543 C 0.64965 0.9559 0.6567 0.0
C544 C 0.65892 0.96512 0.64104 0.0
C545 C 0.70132 0.97834 0.63557 0.0
C546 C 0.62638 0.96546 0.63039 0.0
C547 C 0.60463 0.94211 0.66307 0.0
C548 C 0.58952 0.92627 0.62541 0.0
C549 C 0.55992 0.9277 0.61496 0.0
C550 C 0.56683 0.9684 0.60944 0.0
C551 C 0.6037 0.00743 0.61464 0.0
C552 C 0.63317 0.00592 0.62493 0.0
H553 H 0.60379 0.93981 0.67571 0.0
H554 H 0.59415 0.96597 0.65958 0.0
H555 H 0.58035 0.90944 0.65837 0.0
H556 H 0.58399 0.89468 0.62945 0.0
H557 H 0.53193 0.89709 0.61117 0.0
H558 H 0.87179 0.78453 0.02961 0.0
H559 H 0.82465 0.72695 0.01157 0.0
H560 H 0.73297 0.77512 0.01184 0.0
H561 H 0.77951 0.83246 0.03009 0.0
H562 H 0.73384 0.65983 0.01427 0.0
H563 H 0.76326 0.77455 0.96628 0.0
H564 H 0.79787 0.79056 0.983 0.0
H565 H 0.74553 0.78837 0.98358 0.0
C566 C 0.84133 0.78262 0.026 0.0
C567 C 0.82948 0.81324 0.0313 0.0
C568 C 0.81458 0.7498 0.01562 0.0
C569 C 0.77569 0.74717 0.01024 0.0
C570 C 0.76333 0.77714 0.01566 0.0
H571 H 0.5624 0.59364 0.95067 0.0
H572 H 0.61576 0.64342 0.96913 0.0
C573 C 0.79 0.80993 0.02606 0.0
C574 C 0.74803 0.71322 0.9989 0.0
H575 H 0.70553 0.70055 0.96308 0.0
C576 C 0.7279 0.66857 0.00301 0.0
C577 C 0.74077 0.72485 0.9842 0.0
C578 C 0.76329 0.77215 0.9789 0.0
C579 C 0.69897 0.63525 0.99302 0.0
C580 C 0.69064 0.64705 0.9785 0.0
C581 C 0.71191 0.69163 0.97424 0.0
C582 C 0.65745 0.6143 0.96794 0.0
C583 C 0.67618 0.58793 0.99826 0.0
C584 C 0.66298 0.58098 0.9612 0.0
C585 C 0.63222 0.55208 0.95056 0.0
C586 C 0.59575 0.5564 0.94645 0.0
C587 C 0.59017 0.58941 0.95347 0.0
C588 C 0.62067 0.61799 0.96405 0.0
H589 H 0.68022 0.58512 0.0107 0.0
H590 H 0.64046 0.57131 0.99558 0.0
H591 H 0.69034 0.57014 0.99215 0.0
H592 H 0.69153 0.57798 0.96391 0.0
H593 H 0.63752 0.52713 0.94532 0.0
H594 H 0.99626 0.79676 0.36899 0.0
H595 H 0.99149 0.74109 0.35119 0.0
H596 H 0.88514 0.74402 0.32755 0.0
H597 H 0.88894 0.7993 0.34557 0.0
H598 H 0.91623 0.65536 0.34372 0.0
H599 H 0.98131 0.77065 0.29443 0.0
H600 H 0.98762 0.78976 0.31387 0.0
H601 H 0.93531 0.76795 0.30451 0.0
C602 C 0.97127 0.78512 0.36019 0.0
C603 C 0.94288 0.80252 0.35876 0.0
C604 C 0.9688 0.75344 0.34997 0.0
C605 C 0.93821 0.73873 0.33802 0.0
C606 C 0.90935 0.7554 0.33662 0.0
H607 H 0.88991 0.52048 0.2768 0.0
H608 H 0.87909 0.56823 0.29459 0.0
C609 C 0.91167 0.78706 0.34689 0.0
C610 C 0.93758 0.70668 0.32687 0.0
H611 H 0.96398 0.69738 0.29014 0.0
C612 C 0.92623 0.66431 0.33196 0.0
C613 C 0.9511 0.71876 0.3116 0.0
C614 C 0.96486 0.76431 0.30571 0.0
C615 C 0.92851 0.63376 0.32219 0.0
C616 C 0.94234 0.64597 0.30696 0.0
C617 C 0.95316 0.68814 0.30182 0.0
C618 C 0.9484 0.61643 0.29641 0.0
C619 C 0.9176 0.5892 0.32832 0.0
C620 C 0.99087 0.62795 0.2915 0.0
C621 C 0.9972 0.60081 0.2814 0.0
C622 C 0.96106 0.56173 0.2759 0.0
C623 C 0.91844 0.55027 0.28085 0.0
C624 C 0.91219 0.57741 0.29104 0.0
H625 H 0.91421 0.58746 0.34093 0.0
H626 H 0.88602 0.56358 0.32331 0.0
H627 H 0.9435 0.5813 0.32505 0.0
H628 H 0.01921 0.658 0.29552 0.0
H629 H 0.03044 0.61076 0.2778 0.0
H630 H 0.14665 0.93582 0.68619 0.0
H631 H 0.20543 0.94989 0.66807 0.0
H632 H 0.27234 0.08786 0.67978 0.0
H633 H 0.21381 0.07417 0.69785 0.0
H634 H 0.23345 0.00616 0.64282 0.0
H635 H 0.36931 0.05613 0.68471 0.0
H636 H 0.31208 0.0284 0.69027 0.0
H637 H 0.34026 0.0862 0.68584 0.0
C638 C 0.17385 0.96915 0.68489 0.0
C639 C 0.17573 0.00378 0.69357 0.0
C640 C 0.20746 0.97712 0.67458 0.0
C641 C 0.2436 0.0198 0.67277 0.0
C642 C 0.24534 0.05451 0.68127 0.0
H643 H 0.47124 0.10738 0.61091 0.0
H644 H 0.41832 0.10919 0.62893 0.0
C645 C 0.21183 0.04657 0.6916 0.0
C646 C 0.27881 0.02803 0.66168 0.0
H647 H 0.38823 0.06097 0.65865 0.0
C648 C 0.26731 0.01829 0.64628 0.0
C649 C 0.32307 0.04426 0.66621 0.0
C650 C 0.33704 0.05406 0.68267 0.0
C651 C 0.29871 0.02364 0.63531 0.0
C652 C 0.34262 0.03862 0.6399 0.0
C653 C 0.35454 0.04971 0.6552 0.0
C654 C 0.37526 0.03847 0.62924 0.0
C655 C 0.28461 0.01272 0.6189 0.0
C656 C 0.36884 0.99817 0.62375 0.0
C657 C 0.39881 0.99699 0.61363 0.0
C658 C 0.43605 0.03617 0.60873 0.0
C659 C 0.44285 0.07667 0.61441 0.0
C660 C 0.41272 0.07777 0.62469 0.0
H661 H 0.25359 0.01305 0.61659 0.0
H662 H 0.31064 0.03635 0.61108 0.0
H663 H 0.27879 0.97922 0.6163 0.0
H664 H 0.34049 0.96747 0.62732 0.0
H665 H 0.39246 0.96516 0.60956 0.0
H666 H 0.16837 0.13941 0.00968 0.0
H667 H 0.21445 0.20079 0.99267 0.0
H668 H 0.20377 0.29112 0.02335 0.0
H669 H 0.15753 0.22994 0.0404 0.0
H670 H 0.19733 0.26273 0.97797 0.0
H671 H 0.33736 0.3429 0.01867 0.0
H672 H 0.29287 0.28708 0.02116 0.0
H673 H 0.28498 0.33262 0.02578 0.0
C674 C 0.17554 0.17228 0.01276 0.0
C675 C 0.15961 0.17982 0.02647 0.0
C676 C 0.20192 0.20731 0.00304 0.0
C677 C 0.21294 0.25054 0.00685 0.0
C678 C 0.19633 0.25812 0.02034 0.0
H679 H 0.35749 0.46925 0.94124 0.0
H680 H 0.30133 0.42073 0.95975 0.0
C681 C 0.17004 0.22313 0.03009 0.0
C682 C 0.24266 0.28764 0.99681 0.0
H683 H 0.34554 0.37816 0.9951 0.0
C684 C 0.22958 0.28827 0.98173 0.0
C685 C 0.28475 0.32075 0.00176 0.0
C686 C 0.30116 0.32085 0.01768 0.0
C687 C 0.25797 0.32056 0.97134 0.0
C688 C 0.30029 0.35323 0.97625 0.0
C689 C 0.31286 0.35329 0.99144 0.0
C690 C 0.33406 0.38403 0.9654 0.0
C691 C 0.24338 0.3183 0.95503 0.0
C692 C 0.37127 0.37999 0.96272 0.0
C693 C 0.40313 0.40743 0.95228 0.0
C694 C 0.39871 0.43985 0.94428 0.0
C695 C 0.36179 0.44456 0.94719 0.0
C696 C 0.32962 0.41676 0.95768 0.0
H697 H 0.21208 0.2874 0.95259 0.0
H698 H 0.23832 0.34659 0.95267 0.0
H699 H 0.26914 0.3206 0.94711 0.0
H700 H 0.37536 0.355 0.96857 0.0
H701 H 0.43117 0.4029 0.95043 0.0
H702 H 0.12422 0.22778 0.35668 0.0
H703 H 0.13015 0.28595 0.33953 0.0
H704 H 0.98963 0.23226 0.34214 0.0
H705 H 0.98334 0.17421 0.35907 0.0
H706 H 0.08935 0.27849 0.31108 0.0
H707 H 0.03842 0.36198 0.35327 0.0
H708 H 0.05533 0.32291 0.35871 0.0
H709 H 1.0003 0.30393 0.35189 0.0
C710 C 0.0946 0.22834 0.35354 0.0
C711 C 0.05338 0.1967 0.35941 0.0
C712 C 0.09808 0.26166 0.34381 0.0
C713 C 0.06045 0.26396 0.33985 0.0
C714 C 0.01924 0.23184 0.3454 0.0
H715 H 0.97478 0.40024 0.28122 0.0
H716 H 0.98502 0.35347 0.29947 0.0
C717 C 0.01574 0.19868 0.35509 0.0
C718 C 0.06358 0.29909 0.32961 0.0
H719 H 0.03609 0.37968 0.32705 0.0
C720 C 0.07838 0.30111 0.31461 0.0
C721 C 0.04934 0.32862 0.33427 0.0
C722 C 0.03536 0.32964 0.35046 0.0
C723 C 0.07722 0.33044 0.30393 0.0
C724 C 0.06137 0.35875 0.30847 0.0
C725 C 0.048 0.35774 0.3236 0.0
C726 C 0.05602 0.38792 0.2975 0.0
C727 C 0.09113 0.32963 0.28772 0.0
C728 C 0.09266 0.42319 0.29049 0.0
C729 C 0.08696 0.45015 0.28004 0.0
C730 C 0.04447 0.44227 0.27645 0.0
C731 C 0.00794 0.40721 0.28367 0.0
C732 C 0.0137 0.38043 0.29413 0.0
H733 H 0.09492 0.3005 0.28544 0.0
H734 H 0.06673 0.3294 0.27959 0.0
H735 H 0.12325 0.35975 0.28552 0.0
H736 H 0.12565 0.4299 0.29313 0.0
H737 H 0.1158 0.47693 0.27472 0.0
loop_
_geom_bond_atom_site_label_1
_geom_bond_atom_site_label_2
_geom_bond_distance
_geom_bond_site_symmetry_2
_ccdc_geom_bond_type
Li0 N17 1.990 . S
Li0 O60 1.956 . S
Li0 O61 1.970 1_455 S
Li0 O62 1.961 1_545 S
Li1 N25 1.990 . S
Li1 O60 1.970 1_655 S
Li1 O61 1.956 . S
Li1 O63 1.961 1_545 S
Li2 N47 1.990 . S
Li2 O60 1.961 1_565 S
Li2 O62 1.956 . S
Li2 O63 1.970 1_455 S
Li3 N53 1.990 . S
Li3 O61 1.961 1_565 S
Li3 O62 1.970 1_655 S
Li3 O63 1.956 . S
C4 C6 1.348 . S
C4 C7 1.356 . S
C4 O60 1.325 . S
N5 C8 1.314 . S
N5 C9 1.279 . S
C6 C4 1.348 . S
C6 C8 1.353 . S
C6 H64 0.929 . S
C7 C4 1.356 . S
C7 C9 1.358 . S
C7 H65 0.930 . S
C8 N5 1.314 . S
C8 C6 1.353 . S
C8 H66 0.930 . S
C9 N5 1.279 . S
C9 C7 1.358 . S
C9 H67 0.930 . S
C10 C13 1.348 1_655 S
C10 C14 1.356 . S
C10 O61 1.325 . S
C11 N12 1.279 . S
C11 C14 1.358 . S
C11 H68 0.930 . S
N12 C11 1.279 . S
N12 C15 1.314 . S
C13 C10 1.348 1_455 S
C13 C15 1.353 1_455 S
C13 H69 0.929 . S
C14 C10 1.356 . S
C14 C11 1.358 . S
C14 H70 0.930 . S
C15 N12 1.314 . S
C15 C13 1.353 1_655 S
C15 H71 0.930 1_655 S
C16 N17 1.314 . S
C16 C21 1.353 . S
C16 H22 0.930 . S
N17 Li0 1.990 . S
N17 C16 1.314 . S
N17 C19 1.279 . S
C18 C19 1.358 . S
C18 C20 1.356 . S
C18 H72 0.930 . S
C19 N17 1.279 . S
C19 C18 1.358 . S
C19 H23 0.930 . S
C20 C18 1.356 . S
C20 C21 1.348 . S
C21 C16 1.353 . S
C21 C20 1.348 . S
C21 H73 0.929 . S
H22 C16 0.930 . S
H23 C19 0.930 . S
C24 N25 1.314 . S
C24 C26 1.353 . S
C24 H30 0.930 . S
N25 Li1 1.990 . S
N25 C24 1.314 . S
N25 C28 1.279 . S
C26 C24 1.353 . S
C26 C29 1.348 . S
C26 H74 0.929 . S
C27 C28 1.358 . S
C27 C29 1.356 . S
C27 H75 0.930 . S
C28 N25 1.279 . S
C28 C27 1.358 . S
C28 H31 0.930 . S
C29 C26 1.348 . S
C29 C27 1.356 . S
H30 C24 0.930 . S
H31 C28 0.930 . S
C32 C34 1.348 1_455 S
C32 C35 1.356 . S
C32 O62 1.325 . S
N33 C36 1.314 . S
N33 C37 1.279 . S
C34 C32 1.348 1_655 S
C34 C36 1.353 1_655 S
C34 H76 0.929 . S
C35 C32 1.356 . S
C35 C37 1.358 . S
C35 H77 0.930 . S
C36 N33 1.314 . S
C36 C34 1.353 1_455 S
C36 H78 0.930 1_455 S
C37 N33 1.279 . S
C37 C35 1.358 . S
C37 H79 0.930 . S
C38 C39 1.348 . S
C38 C40 1.356 . S
C38 O63 1.325 . S
C39 C38 1.348 . S
C39 C41 1.353 . S
C39 H80 0.929 . S
C40 C38 1.356 . S
C40 C42 1.358 . S
C40 H81 0.930 . S
C41 C39 1.353 . S
C41 N43 1.314 . S
C41 H82 0.930 . S
C42 C40 1.358 . S
C42 N43 1.279 . S
C42 H83 0.930 . S
N43 C41 1.314 . S
N43 C42 1.279 . S
C44 C46 1.353 . S
C44 N47 1.314 . S
C44 H50 0.930 . S
C45 N47 1.279 . S
C45 C48 1.358 . S
C45 H51 0.930 . S
C46 C44 1.353 . S
C46 C49 1.348 . S
C46 H84 0.929 . S
N47 Li2 1.990 . S
N47 C44 1.314 . S
N47 C45 1.279 . S
C48 C45 1.358 . S
C48 C49 1.356 . S
C48 H85 0.930 . S
C49 C46 1.348 . S
C49 C48 1.356 . S
H50 C44 0.930 . S
H51 C45 0.930 . S
C52 N53 1.314 . S
C52 C54 1.353 . S
C52 H58 0.930 . S
N53 Li3 1.990 . S
N53 C52 1.314 . S
N53 C56 1.279 . S
C54 C52 1.353 . S
C54 C57 1.348 . S
C54 H86 0.929 . S
C55 C56 1.358 . S
C55 C57 1.356 . S
C55 H87 0.930 . S
C56 N53 1.279 . S
C56 C55 1.358 . S
C56 H59 0.930 . S
C57 C54 1.348 . S
C57 C55 1.356 . S
H58 C52 0.930 . S
H59 C56 0.930 . S
O60 Li0 1.956 . S
O60 Li1 1.970 1_455 S
O60 Li2 1.961 1_545 S
O60 C4 1.325 . S
O61 Li0 1.970 1_655 S
O61 Li1 1.956 . S
O61 Li3 1.961 1_545 S
O61 C10 1.325 . S
O62 Li0 1.961 1_565 S
O62 Li2 1.956 . S
O62 Li3 1.970 1_455 S
O62 C32 1.325 . S
O63 Li1 1.961 1_565 S
O63 Li2 1.970 1_655 S
O63 Li3 1.956 . S
O63 C38 1.325 . S
H64 C6 0.929 . S
H65 C7 0.930 . S
H66 C8 0.930 . S
H67 C9 0.930 . S
H68 C11 0.930 . S
H69 C13 0.929 . S
H70 C14 0.930 . S
H71 C15 0.930 1_455 S
H72 C18 0.930 . S
H73 C21 0.929 . S
H74 C26 0.929 . S
H75 C27 0.930 . S
H76 C34 0.929 . S
H77 C35 0.930 . S
H78 C36 0.930 1_655 S
H79 C37 0.930 . S
H80 C39 0.929 . S
H81 C40 0.930 . S
H82 C41 0.930 . S
H83 C42 0.930 . S
H84 C46 0.929 . S
H85 C48 0.930 . S
H86 C54 0.929 . S
H87 C55 0.930 . S
Li88 N105 1.990 . S
Li88 O148 1.956 . S
Li88 O149 1.970 1_665 S
Li88 O150 1.961 . S
Li89 N113 1.990 . S
Li89 O148 1.970 1_445 S
Li89 O149 1.956 . S
Li89 O151 1.961 . S
Li90 N135 1.990 . S
Li90 O148 1.961 . S
Li90 O150 1.956 . S
Li90 O151 1.970 1_665 S
Li91 N141 1.990 . S
Li91 O149 1.961 . S
Li91 O150 1.970 1_445 S
Li91 O151 1.956 . S
C92 C94 1.348 1_655 S
C92 C95 1.356 . S
C92 O148 1.325 . S
N93 C96 1.314 . S
N93 C97 1.279 . S
C94 C92 1.348 1_455 S
C94 C96 1.353 1_455 S
C94 H152 0.929 . S
C95 C92 1.356 . S
C95 C97 1.358 . S
C95 H153 0.930 . S
C96 N93 1.314 . S
C96 C94 1.353 1_655 S
C96 H154 0.930 1_655 S
C97 N93 1.279 . S
C97 C95 1.358 . S
C97 H155 0.930 . S
C98 C101 1.348 1_545 S
C98 C102 1.356 . S
C98 O149 1.325 . S
C99 N100 1.279 . S
C99 C102 1.358 . S
C99 H156 0.930 . S
N100 C99 1.279 . S
N100 C103 1.314 . S
C101 C98 1.348 1_565 S
C101 C103 1.353 1_565 S
C101 H157 0.929 . S
C102 C98 1.356 . S
C102 C99 1.358 . S
C102 H158 0.930 . S
C103 N100 1.314 . S
C103 C101 1.353 1_545 S
C103 H159 0.930 1_545 S
C104 N105 1.314 . S
C104 C109 1.353 . S
C104 H110 0.930 . S
N105 Li88 1.990 . S
N105 C104 1.314 . S
N105 C107 1.279 . S
C106 C107 1.358 . S
C106 C108 1.356 . S
C106 H160 0.930 . S
C107 N105 1.279 . S
C107 C106 1.358 . S
C107 H111 0.930 . S
C108 C106 1.356 . S
C108 C109 1.348 . S
C109 C104 1.353 . S
C109 C108 1.348 . S
C109 H161 0.929 . S
H110 C104 0.930 . S
H111 C107 0.930 . S
C112 N113 1.314 . S
C112 C114 1.353 . S
C112 H118 0.930 . S
N113 Li89 1.990 . S
N113 C112 1.314 . S
N113 C116 1.279 . S
C114 C112 1.353 . S
C114 C117 1.348 . S
C114 H162 0.929 . S
C115 C116 1.358 . S
C115 C117 1.356 . S
C115 H163 0.930 . S
C116 N113 1.279 . S
C116 C115 1.358 . S
C116 H119 0.930 . S
C117 C114 1.348 . S
C117 C115 1.356 . S
H118 C112 0.930 . S
H119 C116 0.930 . S
C120 C122 1.348 1_565 S
C120 C123 1.356 . S
C120 O150 1.325 . S
N121 C124 1.314 . S
N121 C125 1.279 . S
C122 C120 1.348 1_545 S
C122 C124 1.353 1_545 S
C122 H164 0.929 . S
C123 C120 1.356 . S
C123 C125 1.358 . S
C123 H165 0.930 . S
C124 N121 1.314 . S
C124 C122 1.353 1_565 S
C124 H166 0.930 1_565 S
C125 N121 1.279 . S
C125 C123 1.358 . S
C125 H167 0.930 . S
C126 C127 1.348 1_455 S
C126 C128 1.356 . S
C126 O151 1.325 . S
C127 C126 1.348 1_655 S
C127 C129 1.353 1_655 S
C127 H168 0.929 . S
C128 C126 1.356 . S
C128 C130 1.358 . S
C128 H169 0.930 . S
C129 C127 1.353 1_455 S
C129 N131 1.314 . S
C129 H170 0.930 1_455 S
C130 C128 1.358 . S
C130 N131 1.279 . S
C130 H171 0.930 . S
N131 C129 1.314 . S
N131 C130 1.279 . S
C132 C134 1.353 . S
C132 N135 1.314 . S
C132 H138 0.930 . S
C133 N135 1.279 . S
C133 C136 1.358 . S
C133 H139 0.930 . S
C134 C132 1.353 . S
C134 C137 1.348 . S
C134 H172 0.929 . S
N135 Li90 1.990 . S
N135 C132 1.314 . S
N135 C133 1.279 . S
C136 C133 1.358 . S
C136 C137 1.356 . S
C136 H173 0.930 . S
C137 C134 1.348 . S
C137 C136 1.356 . S
H138 C132 0.930 . S
H139 C133 0.930 . S
C140 N141 1.314 . S
C140 C142 1.353 . S
C140 H146 0.930 . S
N141 Li91 1.990 . S
N141 C140 1.314 . S
N141 C144 1.279 . S
C142 C140 1.353 . S
C142 C145 1.348 . S
C142 H174 0.929 . S
C143 C144 1.358 . S
C143 C145 1.356 . S
C143 H175 0.930 . S
C144 N141 1.279 . S
C144 C143 1.358 . S
C144 H147 0.930 . S
C145 C142 1.348 . S
C145 C143 1.356 . S
H146 C140 0.930 . S
H147 C144 0.930 . S
O148 Li88 1.956 . S
O148 Li89 1.970 1_665 S
O148 Li90 1.961 . S
O148 C92 1.325 . S
O149 Li88 1.970 1_445 S
O149 Li89 1.956 . S
O149 Li91 1.961 . S
O149 C98 1.325 . S
O150 Li88 1.961 . S
O150 Li90 1.956 . S
O150 Li91 1.970 1_665 S
O150 C120 1.325 . S
O151 Li89 1.961 . S
O151 Li90 1.970 1_445 S
O151 Li91 1.956 . S
O151 C126 1.325 . S
H152 C94 0.929 . S
H153 C95 0.930 . S
H154 C96 0.930 1_455 S
H155 C97 0.930 . S
H156 C99 0.930 . S
H157 C101 0.929 . S
H158 C102 0.930 . S
H159 C103 0.930 1_565 S
H160 C106 0.930 . S
H161 C109 0.929 . S
H162 C114 0.929 . S
H163 C115 0.930 . S
H164 C122 0.929 . S
H165 C123 0.930 . S
H166 C124 0.930 1_545 S
H167 C125 0.930 . S
H168 C127 0.929 . S
H169 C128 0.930 . S
H170 C129 0.930 1_655 S
H171 C130 0.930 . S
H172 C134 0.929 . S
H173 C136 0.930 . S
H174 C142 0.929 . S
H175 C143 0.930 . S
Li176 N193 1.990 . S
Li176 O236 1.956 . S
Li176 O237 1.970 1_565 S
Li176 O238 1.961 1_455 S
Li177 N201 1.990 . S
Li177 O236 1.970 1_545 S
Li177 O237 1.956 . S
Li177 O239 1.961 1_455 S
Li178 N223 1.990 . S
Li178 O236 1.961 1_655 S
Li178 O238 1.956 . S
Li178 O239 1.970 1_565 S
Li179 N229 1.990 . S
Li179 O237 1.961 1_655 S
Li179 O238 1.970 1_545 S
Li179 O239 1.956 . S
C180 C182 1.348 1_565 S
C180 C183 1.356 . S
C180 O236 1.325 . S
N181 C184 1.314 . S
N181 C185 1.279 . S
C182 C180 1.348 1_545 S
C182 C184 1.353 1_545 S
C182 H240 0.929 . S
C183 C180 1.356 . S
C183 C185 1.358 . S
C183 H241 0.930 . S
C184 N181 1.314 . S
C184 C182 1.353 1_565 S
C184 H242 0.930 1_565 S
C185 N181 1.279 . S
C185 C183 1.358 . S
C185 H243 0.930 . S
C186 C189 1.348 . S
C186 C190 1.356 . S
C186 O237 1.325 . S
C187 N188 1.279 . S
C187 C190 1.358 . S
C187 H244 0.930 . S
N188 C187 1.279 . S
N188 C191 1.314 . S
C189 C186 1.348 . S
C189 C191 1.353 . S
C189 H245 0.929 . S
C190 C186 1.356 . S
C190 C187 1.358 . S
C190 H246 0.930 . S
C191 N188 1.314 . S
C191 C189 1.353 . S
C191 H247 0.930 . S
C192 N193 1.314 . S
C192 C197 1.353 . S
C192 H198 0.930 . S
N193 Li176 1.990 . S
N193 C192 1.314 . S
N193 C195 1.279 . S
C194 C195 1.358 . S
C194 C196 1.356 . S
C194 H248 0.930 . S
C195 N193 1.279 . S
C195 C194 1.358 . S
C195 H199 0.930 . S
C196 C194 1.356 . S
C196 C197 1.348 . S
C197 C192 1.353 . S
C197 C196 1.348 . S
C197 H249 0.929 . S
H198 C192 0.930 . S
H199 C195 0.930 . S
C200 N201 1.314 . S
C200 C202 1.353 . S
C200 H206 0.930 . S
N201 Li177 1.990 . S
N201 C200 1.314 . S
N201 C204 1.279 . S
C202 C200 1.353 . S
C202 C205 1.348 . S
C202 H250 0.929 . S
C203 C204 1.358 . S
C203 C205 1.356 . S
C203 H251 0.930 . S
C204 N201 1.279 . S
C204 C203 1.358 . S
C204 H207 0.930 . S
C205 C202 1.348 . S
C205 C203 1.356 . S
H206 C200 0.930 . S
H207 C204 0.930 . S
C208 C210 1.348 . S
C208 C211 1.356 . S
C208 O238 1.325 . S
N209 C212 1.314 . S
N209 C213 1.279 . S
C210 C208 1.348 . S
C210 C212 1.353 . S
C210 H252 0.929 . S
C211 C208 1.356 . S
C211 C213 1.358 . S
C211 H253 0.930 . S
C212 N209 1.314 . S
C212 C210 1.353 . S
C212 H254 0.930 . S
C213 N209 1.279 . S
C213 C211 1.358 . S
C213 H255 0.930 . S
C214 C215 1.348 1_545 S
C214 C216 1.356 . S
C214 O239 1.325 . S
C215 C214 1.348 1_565 S
C215 C217 1.353 1_565 S
C215 H256 0.929 . S
C216 C214 1.356 . S
C216 C218 1.358 . S
C216 H257 0.930 . S
C217 C215 1.353 1_545 S
C217 N219 1.314 . S
C217 H258 0.930 1_545 S
C218 C216 1.358 . S
C218 N219 1.279 . S
C218 H259 0.930 . S
N219 C217 1.314 . S
N219 C218 1.279 . S
C220 C222 1.353 . S
C220 N223 1.314 . S
C220 H226 0.930 . S
C221 N223 1.279 . S
C221 C224 1.358 . S
C221 H227 0.930 . S
C222 C220 1.353 . S
C222 C225 1.348 . S
C222 H260 0.929 . S
N223 Li178 1.990 . S
N223 C220 1.314 . S
N223 C221 1.279 . S
C224 C221 1.358 . S
C224 C225 1.356 . S
C224 H261 0.930 . S
C225 C222 1.348 . S
C225 C224 1.356 . S
H226 C220 0.930 . S
H227 C221 0.930 . S
C228 N229 1.314 . S
C228 C230 1.353 . S
C228 H234 0.930 . S
N229 Li179 1.990 . S
N229 C228 1.314 . S
N229 C232 1.279 . S
C230 C228 1.353 . S
C230 C233 1.348 . S
C230 H262 0.929 . S
C231 C232 1.358 . S
C231 C233 1.356 . S
C231 H263 0.930 . S
C232 N229 1.279 . S
C232 C231 1.358 . S
C232 H235 0.930 . S
C233 C230 1.348 . S
C233 C231 1.356 . S
H234 C228 0.930 . S
H235 C232 0.930 . S
O236 Li176 1.956 . S
O236 Li177 1.970 1_565 S
O236 Li178 1.961 1_455 S
O236 C180 1.325 . S
O237 Li176 1.970 1_545 S
O237 Li177 1.956 . S
O237 Li179 1.961 1_455 S
O237 C186 1.325 . S
O238 Li176 1.961 1_655 S
O238 Li178 1.956 . S
O238 Li179 1.970 1_565 S
O238 C208 1.325 . S
O239 Li177 1.961 1_655 S
O239 Li178 1.970 1_545 S
O239 Li179 1.956 . S
O239 C214 1.325 . S
H240 C182 0.929 . S
H241 C183 0.930 . S
H242 C184 0.930 1_545 S
H243 C185 0.930 . S
H244 C187 0.930 . S
H245 C189 0.929 . S
H246 C190 0.930 . S
H247 C191 0.930 . S
H248 C194 0.930 . S
H249 C197 0.929 . S
H250 C202 0.929 . S
H251 C203 0.930 . S
H252 C210 0.929 . S
H253 C211 0.930 . S
H254 C212 0.930 . S
H255 C213 0.930 . S
H256 C215 0.929 . S
H257 C216 0.930 . S
H258 C217 0.930 1_565 S
H259 C218 0.930 . S
H260 C222 0.929 . S
H261 C224 0.930 . S
H262 C230 0.929 . S
H263 C231 0.930 . S
C264 O266 1.252 . S
C264 O268 1.255 1_455 S
C265 O272 1.245 . S
C265 O273 1.259 1_655 S
O266 C264 1.252 . S
O266 Zn267 2.028 . S
Zn267 O266 2.028 . S
Zn267 O271 2.035 . S
Zn267 O273 2.035 . S
Zn267 O274 2.028 . S
O268 C264 1.255 1_655 S
O268 Zn269 2.035 . S
Zn269 O268 2.035 . S
Zn269 O270 2.028 . S
Zn269 O272 2.028 . S
Zn269 O275 2.035 . S
O270 Zn269 2.028 . S
O270 C276 1.245 . S
O271 Zn267 2.035 . S
O271 C276 1.259 1_455 S
O272 C265 1.245 . S
O272 Zn269 2.028 . S
O273 C265 1.259 1_455 S
O273 Zn267 2.035 . S
O274 Zn267 2.028 . S
O274 C277 1.252 . S
O275 Zn269 2.035 . S
O275 C277 1.255 1_655 S
C276 O270 1.245 . S
C276 O271 1.259 1_655 S
C277 O274 1.252 . S
C277 O275 1.255 1_455 S
C278 O280 1.246 . S
C278 O282 1.260 1_565 S
C279 O286 1.250 . S
C279 O287 1.253 1_545 S
O280 C278 1.246 . S
O280 Zn281 2.028 . S
Zn281 O280 2.028 . S
Zn281 O285 2.035 . S
Zn281 O287 2.035 . S
Zn281 O288 2.028 . S
O282 C278 1.260 1_545 S
O282 Zn283 2.035 . S
Zn283 O282 2.035 . S
Zn283 O284 2.028 . S
Zn283 O286 2.028 . S
Zn283 O289 2.035 . S
O284 Zn283 2.028 . S
O284 C290 1.250 . S
O285 Zn281 2.035 . S
O285 C290 1.253 1_565 S
O286 C279 1.250 . S
O286 Zn283 2.028 . S
O287 C279 1.253 1_565 S
O287 Zn281 2.035 . S
O288 Zn281 2.028 . S
O288 C291 1.246 . S
O289 Zn283 2.035 . S
O289 C291 1.260 1_545 S
C290 O284 1.250 . S
C290 O285 1.253 1_545 S
C291 O288 1.246 . S
C291 O289 1.260 1_565 S
C292 O294 1.247 . S
C292 O296 1.258 . S
C293 O300 1.247 . S
C293 O301 1.258 . S
O294 C292 1.247 . S
O294 Zn295 2.028 . S
Zn295 O294 2.028 . S
Zn295 O299 2.035 . S
Zn295 O301 2.035 . S
Zn295 O302 2.028 . S
O296 C292 1.258 . S
O296 Zn297 2.035 . S
Zn297 O296 2.035 . S
Zn297 O298 2.028 . S
Zn297 O300 2.028 . S
Zn297 O303 2.035 . S
O298 Zn297 2.028 . S
O298 C304 1.247 . S
O299 Zn295 2.035 . S
O299 C304 1.258 . S
O300 C293 1.247 . S
O300 Zn297 2.028 . S
O301 C293 1.258 . S
O301 Zn295 2.035 . S
O302 Zn295 2.028 . S
O302 C305 1.247 . S
O303 Zn297 2.035 . S
O303 C305 1.258 . S
C304 O298 1.247 . S
C304 O299 1.258 . S
C305 O302 1.247 . S
C305 O303 1.258 . S
H306 C314 0.929 . S
H307 C316 0.930 1_455 S
H308 C318 0.930 . S
H309 C321 0.929 . S
H310 C324 0.930 . S
H311 C326 0.960 . S
H312 C326 0.960 . S
H313 C326 0.960 1_655 S
C314 H306 0.929 . S
C314 C315 1.377 . S
C314 C316 1.384 . S
C315 C314 1.377 . S
C315 C321 1.390 . S
C316 H307 0.930 1_655 S
C316 C314 1.384 . S
C316 C317 1.372 . S
C317 C316 1.372 . S
C317 C318 1.400 . S
C317 C322 1.490 . S
C318 H308 0.930 . S
C318 C317 1.400 . S
C318 C321 1.386 . S
H319 C335 0.930 . S
H320 C336 0.931 . S
C321 H309 0.929 . S
C321 C315 1.390 . S
C321 C318 1.386 . S
C322 C317 1.490 . S
C322 C324 1.395 . S
C322 C325 1.403 . S
H323 C329 0.923 1_455 S
C324 H310 0.930 . S
C324 C322 1.395 . S
C324 C327 1.403 . S
C325 C322 1.403 . S
C325 C326 1.524 1_655 S
C325 C329 1.400 . S
C326 H311 0.960 . S
C326 H312 0.960 . S
C326 H313 0.960 1_455 S
C326 C325 1.524 1_455 S
C327 C324 1.403 . S
C327 C328 1.392 . S
C327 C331 1.495 . S
C328 C327 1.392 . S
C328 C329 1.385 . S
C328 C330 1.478 . S
C329 H323 0.923 1_655 S
C329 C325 1.400 . S
C329 C328 1.385 . S
C330 C328 1.478 . S
C330 C332 1.381 1_655 S
C330 C336 1.383 . S
C331 C327 1.495 . S
C331 H337 0.959 . S
C331 H338 0.961 . S
C331 H339 0.960 . S
C332 C330 1.381 1_455 S
C332 C333 1.394 . S
C332 H340 0.930 . S
C333 C332 1.394 . S
C333 C334 1.383 1_455 S
C333 H341 0.929 . S
C334 C333 1.383 1_655 S
C334 C335 1.377 . S
C335 H319 0.930 . S
C335 C334 1.377 . S
C335 C336 1.379 . S
C336 H320 0.931 . S
C336 C330 1.383 . S
C336 C335 1.379 . S
H337 C331 0.959 . S
H338 C331 0.961 . S
H339 C331 0.960 . S
H340 C332 0.930 . S
H341 C333 0.929 . S
H342 C350 0.929 . S
H343 C352 0.930 . S
H344 C354 0.930 1_545 S
H345 C357 0.929 1_545 S
H346 C360 0.930 . S
H347 C362 0.960 . S
H348 C362 0.960 1_565 S
H349 C362 0.960 . S
C350 H342 0.929 . S
C350 C351 1.377 . S
C350 C352 1.384 . S
C351 C350 1.377 . S
C351 C357 1.390 . S
C352 H343 0.930 . S
C352 C350 1.384 . S
C352 C353 1.372 . S
C353 C352 1.372 . S
C353 C354 1.400 . S
C353 C358 1.490 . S
C354 H344 0.930 1_565 S
C354 C353 1.400 . S
C354 C357 1.386 . S
H355 C371 0.930 . S
H356 C372 0.931 . S
C357 H345 0.929 1_565 S
C357 C351 1.390 . S
C357 C354 1.386 . S
C358 C353 1.490 . S
C358 C360 1.395 . S
C358 C361 1.403 . S
H359 C365 0.930 1_545 S
C360 H346 0.930 . S
C360 C358 1.395 . S
C360 C363 1.403 . S
C361 C358 1.403 . S
C361 C362 1.524 1_565 S
C361 C365 1.400 . S
C362 H347 0.960 . S
C362 H348 0.960 1_545 S
C362 H349 0.960 . S
C362 C361 1.524 1_545 S
C363 C360 1.403 . S
C363 C364 1.392 . S
C363 C367 1.495 . S
C364 C363 1.392 . S
C364 C365 1.385 . S
C364 C366 1.478 . S
C365 H359 0.930 1_565 S
C365 C361 1.400 . S
C365 C364 1.385 . S
C366 C364 1.478 . S
C366 C368 1.381 . S
C366 C372 1.383 1_565 S
C367 C363 1.495 . S
C367 H373 0.959 . S
C367 H374 0.961 . S
C367 H375 0.960 . S
C368 C366 1.381 . S
C368 C369 1.394 . S
C368 H376 0.930 . S
C369 C368 1.394 . S
C369 C370 1.383 . S
C369 H377 0.929 . S
C370 C369 1.383 . S
C370 C371 1.377 1_565 S
C371 H355 0.930 . S
C371 C370 1.377 1_545 S
C371 C372 1.379 . S
C372 H356 0.931 . S
C372 C366 1.383 1_545 S
C372 C371 1.379 . S
H373 C367 0.959 . S
H374 C367 0.961 . S
H375 C367 0.960 . S
H376 C368 0.930 . S
H377 C369 0.929 . S
H378 C386 0.929 . S
H379 C388 0.930 . S
H380 C390 0.930 . S
H381 C393 0.929 . S
H382 C396 0.930 . S
H383 C398 0.960 . S
H384 C398 0.960 . S
H385 C398 0.960 . S
C386 H378 0.929 . S
C386 C387 1.377 . S
C386 C388 1.384 . S
C387 C386 1.377 . S
C387 C393 1.390 . S
C388 H379 0.930 . S
C388 C386 1.384 . S
C388 C389 1.372 . S
C389 C388 1.372 . S
C389 C390 1.400 . S
C389 C394 1.490 . S
C390 H380 0.930 . S
C390 C389 1.400 . S
C390 C393 1.386 . S
H391 C407 0.930 . S
H392 C408 0.931 . S
C393 H381 0.929 . S
C393 C387 1.390 . S
C393 C390 1.386 . S
C394 C389 1.490 . S
C394 C396 1.395 . S
C394 C397 1.403 . S
H395 C401 0.930 . S
C396 H382 0.930 . S
C396 C394 1.395 . S
C396 C399 1.403 . S
C397 C394 1.403 . S
C397 C398 1.524 . S
C397 C401 1.400 . S
C398 H383 0.960 . S
C398 H384 0.960 . S
C398 H385 0.960 . S
C398 C397 1.524 . S
C399 C396 1.403 . S
C399 C400 1.392 . S
C399 C403 1.495 . S
C400 C399 1.392 . S
C400 C401 1.385 . S
C400 C402 1.478 . S
C401 H395 0.930 . S
C401 C397 1.400 . S
C401 C400 1.385 . S
C402 C400 1.478 . S
C402 C404 1.381 . S
C402 C408 1.383 . S
C403 C399 1.495 . S
C403 H409 0.959 . S
C403 H410 0.961 . S
C403 H411 0.960 . S
C404 C402 1.381 . S
C404 C405 1.394 . S
C404 H412 0.930 . S
C405 C404 1.394 . S
C405 C406 1.383 . S
C405 H413 0.929 . S
C406 C405 1.383 . S
C406 C407 1.377 . S
C407 H391 0.930 . S
C407 C406 1.377 . S
C407 C408 1.379 . S
C408 H392 0.931 . S
C408 C402 1.383 . S
C408 C407 1.379 . S
H409 C403 0.959 . S
H410 C403 0.961 . S
H411 C403 0.960 . S
H412 C404 0.930 . S
H413 C405 0.929 . S
H414 C422 0.929 . S
H415 C424 0.930 . S
H416 C426 0.930 . S
H417 C429 0.929 . S
H418 C432 0.950 . S
H419 C434 0.960 . S
H420 C434 0.960 . S
H421 C434 0.960 . S
C422 H414 0.929 . S
C422 C423 1.377 . S
C422 C424 1.384 . S
C423 C422 1.377 . S
C423 C429 1.390 . S
C424 H415 0.930 . S
C424 C422 1.384 . S
C424 C425 1.372 . S
C425 C424 1.372 . S
C425 C426 1.400 . S
C425 C430 1.490 . S
C426 H416 0.930 . S
C426 C425 1.400 . S
C426 C429 1.386 . S
H427 C443 0.930 . S
H428 C444 0.931 . S
C429 H417 0.929 . S
C429 C423 1.390 . S
C429 C426 1.386 . S
C430 C425 1.490 . S
C430 C432 1.379 1_455 S
C430 C433 1.403 . S
H431 C437 0.930 . S
C432 H418 0.950 . S
C432 C430 1.379 1_655 S
C432 C435 1.399 . S
C433 C430 1.403 . S
C433 C434 1.524 . S
C433 C437 1.400 . S
C434 H419 0.960 . S
C434 H420 0.960 . S
C434 H421 0.960 . S
C434 C433 1.524 . S
C435 C432 1.399 . S
C435 C436 1.392 1_655 S
C435 C439 1.495 . S
C436 C435 1.392 1_455 S
C436 C437 1.385 . S
C436 C438 1.478 . S
C437 H431 0.930 . S
C437 C433 1.400 . S
C437 C436 1.385 . S
C438 C436 1.478 . S
C438 C440 1.381 . S
C438 C444 1.383 1_455 S
C439 C435 1.495 . S
C439 H445 0.959 . S
C439 H446 0.961 . S
C439 H447 0.960 . S
C440 C438 1.381 . S
C440 C441 1.394 . S
C440 H448 0.930 . S
C441 C440 1.394 . S
C441 C442 1.383 . S
C441 H449 0.929 . S
C442 C441 1.383 . S
C442 C443 1.377 1_455 S
C443 H427 0.930 . S
C443 C442 1.377 1_655 S
C443 C444 1.379 . S
C444 H428 0.931 . S
C444 C438 1.383 1_655 S
C444 C443 1.379 . S
H445 C439 0.959 . S
H446 C439 0.961 . S
H447 C439 0.960 . S
H448 C440 0.930 . S
H449 C441 0.929 . S
H450 C458 0.929 1_565 S
H451 C460 0.930 1_565 S
H452 C462 0.930 . S
H453 C465 0.929 . S
H454 C468 0.930 . S
H455 C470 0.960 . S
H456 C470 0.960 1_565 S
H457 C470 0.960 . S
C458 H450 0.929 1_545 S
C458 C459 1.377 . S
C458 C460 1.384 . S
C459 C458 1.377 . S
C459 C465 1.390 . S
C460 H451 0.930 1_545 S
C460 C458 1.384 . S
C460 C461 1.372 . S
C461 C460 1.372 . S
C461 C462 1.400 . S
C461 C466 1.490 . S
C462 H452 0.930 . S
C462 C461 1.400 . S
C462 C465 1.386 . S
H463 C479 0.930 . S
H464 C480 0.931 . S
C465 H453 0.929 . S
C465 C459 1.390 . S
C465 C462 1.386 . S
C466 C461 1.490 . S
C466 C468 1.395 . S
C466 C469 1.403 . S
H467 C473 0.930 . S
C468 H454 0.930 . S
C468 C466 1.395 . S
C468 C471 1.403 . S
C469 C466 1.403 . S
C469 C470 1.524 . S
C469 C473 1.400 . S
C470 H455 0.960 . S
C470 H456 0.960 1_545 S
C470 H457 0.960 . S
C470 C469 1.524 . S
C471 C468 1.403 . S
C471 C472 1.392 . S
C471 C475 1.495 . S
C472 C471 1.392 . S
C472 C473 1.385 . S
C472 C474 1.478 . S
C473 H467 0.930 . S
C473 C469 1.400 . S
C473 C472 1.385 . S
C474 C472 1.478 . S
C474 C476 1.381 1_545 S
C474 C480 1.383 . S
C475 C471 1.495 . S
C475 H481 0.959 . S
C475 H482 0.961 . S
C475 H483 0.960 1_545 S
C476 C474 1.381 1_565 S
C476 C477 1.394 . S
C476 H484 0.930 . S
C477 C476 1.394 . S
C477 C478 1.383 1_565 S
C477 H485 0.929 . S
C478 C477 1.383 1_545 S
C478 C479 1.377 . S
C479 H463 0.930 . S
C479 C478 1.377 . S
C479 C480 1.379 . S
C480 H464 0.931 . S
C480 C474 1.383 . S
C480 C479 1.379 . S
H481 C475 0.959 . S
H482 C475 0.961 . S
H483 C475 0.960 1_565 S
H484 C476 0.930 . S
H485 C477 0.929 . S
H486 C494 0.929 . S
H487 C496 0.930 . S
H488 C498 0.930 . S
H489 C501 0.929 . S
H490 C504 0.930 . S
H491 C506 0.960 . S
H492 C506 0.960 . S
H493 C506 0.960 . S
C494 H486 0.929 . S
C494 C495 1.377 . S
C494 C496 1.384 . S
C495 C494 1.377 . S
C495 C501 1.390 . S
C496 H487 0.930 . S
C496 C494 1.384 . S
C496 C497 1.372 . S
C497 C496 1.372 . S
C497 C498 1.400 . S
C497 C502 1.490 . S
C498 H488 0.930 . S
C498 C497 1.400 . S
C498 C501 1.386 . S
H499 C515 0.930 . S
H500 C516 0.931 . S
C501 H489 0.929 . S
C501 C495 1.390 . S
C501 C498 1.386 . S
C502 C497 1.490 . S
C502 C504 1.395 . S
C502 C505 1.403 . S
H503 C509 0.930 . S
C504 H490 0.930 . S
C504 C502 1.395 . S
C504 C507 1.403 . S
C505 C502 1.403 . S
C505 C506 1.524 . S
C505 C509 1.400 . S
C506 H491 0.960 . S
C506 H492 0.960 . S
C506 H493 0.960 . S
C506 C505 1.524 . S
C507 C504 1.403 . S
C507 C508 1.392 . S
C507 C511 1.495 . S
C508 C507 1.392 . S
C508 C509 1.385 . S
C508 C510 1.478 . S
C509 H503 0.930 . S
C509 C505 1.400 . S
C509 C508 1.385 . S
C510 C508 1.478 . S
C510 C512 1.381 . S
C510 C516 1.383 . S
C511 C507 1.495 . S
C511 H517 0.959 . S
C511 H518 0.961 . S
C511 H519 0.960 . S
C512 C510 1.381 . S
C512 C513 1.394 . S
C512 H520 0.930 . S
C513 C512 1.394 . S
C513 C514 1.383 . S
C513 H521 0.929 . S
C514 C513 1.383 . S
C514 C515 1.377 . S
C515 H499 0.930 . S
C515 C514 1.377 . S
C515 C516 1.379 . S
C516 H500 0.931 . S
C516 C510 1.383 . S
C516 C515 1.379 . S
H517 C511 0.959 . S
H518 C511 0.961 . S
H519 C511 0.960 . S
H520 C512 0.930 . S
H521 C513 0.929 . S
H522 C530 0.929 1_565 S
H523 C532 0.942 . S
H524 C534 0.930 . S
H525 C537 0.929 . S
H526 C540 0.930 . S
H527 C542 0.960 . S
H528 C542 0.960 . S
H529 C542 0.960 . S
C530 H522 0.929 1_545 S
C530 C531 1.377 . S
C530 C532 1.389 1_545 S
C531 C530 1.377 . S
C531 C537 1.390 . S
C532 H523 0.942 . S
C532 C530 1.389 1_565 S
C532 C533 1.355 1_565 S
C533 C532 1.355 1_545 S
C533 C534 1.400 . S
C533 C538 1.490 . S
C534 H524 0.930 . S
C534 C533 1.400 . S
C534 C537 1.386 . S
H535 C551 0.930 . S
H536 C552 0.931 . S
C537 H525 0.929 . S
C537 C531 1.390 . S
C537 C534 1.386 . S
C538 C533 1.490 . S
C538 C540 1.395 . S
C538 C541 1.403 . S
H539 C545 0.930 . S
C540 H526 0.930 . S
C540 C538 1.395 . S
C540 C543 1.403 . S
C541 C538 1.403 . S
C541 C542 1.524 . S
C541 C545 1.400 . S
C542 H527 0.960 . S
C542 H528 0.960 . S
C542 H529 0.960 . S
C542 C541 1.524 . S
C543 C540 1.403 . S
C543 C544 1.392 . S
C543 C547 1.495 1_545 S
C544 C543 1.392 . S
C544 C545 1.385 . S
C544 C546 1.478 . S
C545 H539 0.930 . S
C545 C541 1.400 . S
C545 C544 1.385 . S
C546 C544 1.478 . S
C546 C548 1.381 1_545 S
C546 C552 1.383 . S
C547 C543 1.495 1_565 S
C547 H553 0.959 . S
C547 H554 0.961 1_565 S
C547 H555 0.960 . S
C548 C546 1.381 1_565 S
C548 C549 1.394 . S
C548 H556 0.930 . S
C549 C548 1.394 . S
C549 C550 1.383 1_565 S
C549 H557 0.929 . S
C550 C549 1.383 1_545 S
C550 C551 1.377 . S
C551 H535 0.930 . S
C551 C550 1.377 . S
C551 C552 1.379 . S
C552 H536 0.931 . S
C552 C546 1.383 . S
C552 C551 1.379 . S
H553 C547 0.959 . S
H554 C547 0.961 1_545 S
H555 C547 0.960 . S
H556 C548 0.930 . S
H557 C549 0.929 . S
H558 C566 0.929 . S
H559 C568 0.930 . S
H560 C570 0.930 . S
H561 C573 0.929 . S
H562 C576 0.921 1_554 S
H563 C578 0.960 . S
H564 C578 0.960 . S
H565 C578 0.960 . S
C566 H558 0.929 . S
C566 C567 1.377 . S
C566 C568 1.384 . S
C567 C566 1.377 . S
C567 C573 1.390 . S
C568 H559 0.930 . S
C568 C566 1.384 . S
C568 C569 1.372 . S
C569 C568 1.372 . S
C569 C570 1.400 . S
C569 C574 1.490 1_554 S
C570 H560 0.930 . S
C570 C569 1.400 . S
C570 C573 1.386 . S
H571 C587 0.930 . S
H572 C588 0.931 . S
C573 H561 0.929 . S
C573 C567 1.390 . S
C573 C570 1.386 . S
C574 C569 1.490 1_556 S
C574 C576 1.398 . S
C574 C577 1.403 . S
H575 C581 0.930 . S
C576 H562 0.921 1_556 S
C576 C574 1.398 . S
C576 C579 1.409 . S
C577 C574 1.403 . S
C577 C578 1.524 . S
C577 C581 1.400 . S
C578 H563 0.960 . S
C578 H564 0.960 . S
C578 H565 0.960 . S
C578 C577 1.524 . S
C579 C576 1.409 . S
C579 C580 1.392 . S
C579 C583 1.495 . S
C580 C579 1.392 . S
C580 C581 1.385 . S
C580 C582 1.478 . S
C581 H575 0.930 . S
C581 C577 1.400 . S
C581 C580 1.385 . S
C582 C580 1.478 . S
C582 C584 1.381 . S
C582 C588 1.383 . S
C583 C579 1.495 . S
C583 H589 0.959 1_556 S
C583 H590 0.961 . S
C583 H591 0.960 . S
C584 C582 1.381 . S
C584 C585 1.394 . S
C584 H592 0.930 . S
C585 C584 1.394 . S
C585 C586 1.383 . S
C585 H593 0.929 . S
C586 C585 1.383 . S
C586 C587 1.377 . S
C587 H571 0.930 . S
C587 C586 1.377 . S
C587 C588 1.379 . S
C588 H572 0.931 . S
C588 C582 1.383 . S
C588 C587 1.379 . S
H589 C583 0.959 1_554 S
H590 C583 0.961 . S
H591 C583 0.960 . S
H592 C584 0.930 . S
H593 C585 0.929 . S
H594 C602 0.929 . S
H595 C604 0.930 . S
H596 C606 0.930 . S
H597 C609 0.929 . S
H598 C612 0.930 . S
H599 C614 0.960 . S
H600 C614 0.960 . S
H601 C614 0.960 . S
C602 H594 0.929 . S
C602 C603 1.377 . S
C602 C604 1.384 . S
C603 C602 1.377 . S
C603 C609 1.390 . S
C604 H595 0.930 . S
C604 C602 1.384 . S
C604 C605 1.372 . S
C605 C604 1.372 . S
C605 C606 1.400 . S
C605 C610 1.490 . S
C606 H596 0.930 . S
C606 C605 1.400 . S
C606 C609 1.386 . S
H607 C623 0.930 . S
H608 C624 0.931 . S
C609 H597 0.929 . S
C609 C603 1.390 . S
C609 C606 1.386 . S
C610 C605 1.490 . S
C610 C612 1.395 . S
C610 C613 1.403 . S
H611 C617 0.930 1_455 S
C612 H598 0.930 . S
C612 C610 1.395 . S
C612 C615 1.403 . S
C613 C610 1.403 . S
C613 C614 1.524 1_655 S
C613 C617 1.400 . S
C614 H599 0.960 . S
C614 H600 0.960 . S
C614 H601 0.960 . S
C614 C613 1.524 1_455 S
C615 C612 1.403 . S
C615 C616 1.392 . S
C615 C619 1.495 . S
C616 C615 1.392 . S
C616 C617 1.385 . S
C616 C618 1.478 . S
C617 H611 0.930 1_655 S
C617 C613 1.400 . S
C617 C616 1.385 . S
C618 C616 1.478 . S
C618 C620 1.381 1_655 S
C618 C624 1.383 . S
C619 C615 1.495 . S
C619 H625 0.959 . S
C619 H626 0.961 . S
C619 H627 0.960 . S
C620 C618 1.381 1_455 S
C620 C621 1.394 . S
C620 H628 0.930 . S
C621 C620 1.394 . S
C621 C622 1.383 1_455 S
C621 H629 0.929 . S
C622 C621 1.383 1_655 S
C622 C623 1.377 . S
C623 H607 0.930 . S
C623 C622 1.377 . S
C623 C624 1.379 . S
C624 H608 0.931 . S
C624 C618 1.383 . S
C624 C623 1.379 . S
H625 C619 0.959 . S
H626 C619 0.961 . S
H627 C619 0.960 . S
H628 C620 0.930 . S
H629 C621 0.929 . S
H630 C638 0.929 . S
H631 C640 0.930 . S
H632 C642 0.930 1_545 S
H633 C645 0.929 1_545 S
H634 C648 0.930 . S
H635 C650 0.960 . S
H636 C650 0.960 . S
H637 C650 0.960 . S
C638 H630 0.929 . S
C638 C639 1.377 . S
C638 C640 1.384 . S
C639 C638 1.377 . S
C639 C645 1.390 . S
C640 H631 0.930 . S
C640 C638 1.384 . S
C640 C641 1.372 . S
C641 C640 1.372 . S
C641 C642 1.400 . S
C641 C646 1.490 . S
C642 H632 0.930 1_565 S
C642 C641 1.400 . S
C642 C645 1.386 . S
H643 C659 0.930 . S
H644 C660 0.931 . S
C645 H633 0.929 1_565 S
C645 C639 1.390 . S
C645 C642 1.386 . S
C646 C641 1.490 . S
C646 C648 1.395 . S
C646 C649 1.403 . S
H647 C653 0.930 . S
C648 H634 0.930 . S
C648 C646 1.395 . S
C648 C651 1.403 . S
C649 C646 1.403 . S
C649 C650 1.524 . S
C649 C653 1.400 . S
C650 H635 0.960 . S
C650 H636 0.960 . S
C650 H637 0.960 . S
C650 C649 1.524 . S
C651 C648 1.403 . S
C651 C652 1.392 . S
C651 C655 1.495 . S
C652 C651 1.392 . S
C652 C653 1.385 . S
C652 C654 1.478 . S
C653 H647 0.930 . S
C653 C649 1.400 . S
C653 C652 1.385 . S
C654 C652 1.478 . S
C654 C656 1.381 . S
C654 C660 1.383 1_565 S
C655 C651 1.495 . S
C655 H661 0.959 . S
C655 H662 0.961 1_565 S
C655 H663 0.960 . S
C656 C654 1.381 . S
C656 C657 1.394 . S
C656 H664 0.930 . S
C657 C656 1.394 . S
C657 C658 1.383 . S
C657 H665 0.929 . S
C658 C657 1.383 . S
C658 C659 1.377 1_565 S
C659 H643 0.930 . S
C659 C658 1.377 1_545 S
C659 C660 1.379 . S
C660 H644 0.931 . S
C660 C654 1.383 1_545 S
C660 C659 1.379 . S
H661 C655 0.959 . S
H662 C655 0.961 1_545 S
H663 C655 0.960 . S
H664 C656 0.930 . S
H665 C657 0.929 . S
H666 C674 0.929 . S
H667 C676 0.930 1_556 S
H668 C678 0.930 . S
H669 C681 0.929 . S
H670 C684 0.930 . S
H671 C686 0.960 . S
H672 C686 0.960 . S
H673 C686 0.960 . S
C674 H666 0.929 . S
C674 C675 1.377 . S
C674 C676 1.384 . S
C675 C674 1.377 . S
C675 C681 1.390 . S
C676 H667 0.930 1_554 S
C676 C674 1.384 . S
C676 C677 1.372 . S
C677 C676 1.372 . S
C677 C678 1.400 . S
C677 C682 1.490 1_554 S
C678 H668 0.930 . S
C678 C677 1.400 . S
C678 C681 1.386 . S
H679 C695 0.930 . S
H680 C696 0.931 . S
C681 H669 0.929 . S
C681 C675 1.390 . S
C681 C678 1.386 . S
C682 C677 1.490 1_556 S
C682 C684 1.395 . S
C682 C685 1.403 . S
H683 C689 0.930 . S
C684 H670 0.930 . S
C684 C682 1.395 . S
C684 C687 1.403 . S
C685 C682 1.403 . S
C685 C686 1.524 1_556 S
C685 C689 1.400 . S
C686 H671 0.960 . S
C686 H672 0.960 . S
C686 H673 0.960 . S
C686 C685 1.524 1_554 S
C687 C684 1.403 . S
C687 C688 1.392 . S
C687 C691 1.495 . S
C688 C687 1.392 . S
C688 C689 1.385 . S
C688 C690 1.478 . S
C689 H683 0.930 . S
C689 C685 1.400 . S
C689 C688 1.385 . S
C690 C688 1.478 . S
C690 C692 1.381 . S
C690 C696 1.383 . S
C691 C687 1.495 . S
C691 H697 0.959 . S
C691 H698 0.961 . S
C691 H699 0.960 . S
C692 C690 1.381 . S
C692 C693 1.394 . S
C692 H700 0.930 . S
C693 C692 1.394 . S
C693 C694 1.383 . S
C693 H701 0.929 . S
C694 C693 1.383 . S
C694 C695 1.377 . S
C695 H679 0.930 . S
C695 C694 1.377 . S
C695 C696 1.379 . S
C696 H680 0.931 . S
C696 C690 1.383 . S
C696 C695 1.379 . S
H697 C691 0.959 . S
H698 C691 0.961 . S
H699 C691 0.960 . S
H700 C692 0.930 . S
H701 C693 0.929 . S
H702 C710 0.929 . S
H703 C712 0.930 . S
H704 C714 0.930 1_655 S
H705 C717 0.929 1_655 S
H706 C720 0.930 . S
H707 C722 0.960 . S
H708 C722 0.960 . S
H709 C722 0.960 . S
C710 H702 0.929 . S
C710 C711 1.377 . S
C710 C712 1.384 . S
C711 C710 1.377 . S
C711 C717 1.390 . S
C712 H703 0.930 . S
C712 C710 1.384 . S
C712 C713 1.372 . S
C713 C712 1.372 . S
C713 C714 1.400 . S
C713 C718 1.490 . S
C714 H704 0.930 1_455 S
C714 C713 1.400 . S
C714 C717 1.386 . S
H715 C731 0.930 . S
H716 C732 0.931 . S
C717 H705 0.929 1_455 S
C717 C711 1.390 . S
C717 C714 1.386 . S
C718 C713 1.490 . S
C718 C720 1.395 . S
C718 C721 1.403 . S
H719 C725 0.930 . S
C720 H706 0.930 . S
C720 C718 1.395 . S
C720 C723 1.403 . S
C721 C718 1.403 . S
C721 C722 1.524 . S
C721 C725 1.400 . S
C722 H707 0.960 . S
C722 H708 0.960 . S
C722 H709 0.960 . S
C722 C721 1.524 . S
C723 C720 1.403 . S
C723 C724 1.392 . S
C723 C727 1.495 . S
C724 C723 1.392 . S
C724 C725 1.385 . S
C724 C726 1.478 . S
C725 H719 0.930 . S
C725 C721 1.400 . S
C725 C724 1.385 . S
C726 C724 1.478 . S
C726 C728 1.381 . S
C726 C732 1.383 1_455 S
C727 C723 1.495 . S
C727 H733 0.959 . S
C727 H734 0.961 1_455 S
C727 H735 0.960 . S
C728 C726 1.381 . S
C728 C729 1.394 . S
C728 H736 0.930 . S
C729 C728 1.394 . S
C729 C730 1.383 . S
C729 H737 0.929 . S
C730 C729 1.383 . S
C730 C731 1.377 1_455 S
C731 H715 0.930 . S
C731 C730 1.377 1_655 S
C731 C732 1.379 . S
C732 H716 0.931 . S
C732 C726 1.383 1_655 S
C732 C731 1.379 . S
H733 C727 0.959 . S
H734 C727 0.961 1_655 S
H735 C727 0.960 . S
H736 C728 0.930 . S
H737 C729 0.929 . S
C334 C265 1.385 . S
C315 C29 1.377 . S
C351 C137 1.386 . S
C370 C291 1.397 . S
C387 C225 1.381 . S
C406 C293 1.387 . S
C423 C49 1.386 . S
C442 C277 1.401 . S
C478 C279 1.388 . S
C459 C117 1.377 . S
C495 C205 1.385 . S
C514 C305 1.397 . S
C550 C278 1.388 1_545 S
C531 C233 1.383 . S
C567 C57 1.380 . S
C586 C304 1.393 . S
C622 C264 1.382 1_655 S
C603 C108 1.383 . S
C658 C290 1.401 1_565 S
C639 C196 1.384 . S
C694 C292 1.401 . S
C675 C20 1.384 . S
C711 C145 1.387 . S
C730 C276 1.396 1_455 S
