# Generated by pormake.
# Topology ocu, (6,8)-cn, num edge types: 1
# Building blocks:
#     Node 0, Type 0, BuildingBlock: KUMBUR_clean_sbu_0, # of connection points: 6
#     Node 1, Type 0, BuildingBlock: KUMBUR_clean_sbu_0, # of connection points: 6
#     Node 2, Type 0, BuildingBlock: KUMBUR_clean_sbu_0, # of connection points: 6
#     Node 3, Type 0, BuildingBlock: KUMBUR_clean_sbu_0, # of connection points: 6
#     Node 4, Type 0, BuildingBlock: KUMBUR_clean_sbu_0, # of connection points: 6
#     Node 5, Type 0, BuildingBlock: KUMBUR_clean_sbu_0, # of connection points: 6
#     Node 6, Type 0, BuildingBlock: KUMBUR_clean_sbu_0, # of connection points: 6
#     Node 7, Type 0, BuildingBlock: KUMBUR_clean_sbu_0, # of connection points: 6
#     Node 8, Type 1, BuildingBlock: TAGTUT_clean_sbu_1, # of connection points: 8
#     Node 9, Type 1, BuildingBlock: TAGTUT_clean_sbu_1, # of connection points: 8
#     Node 10, Type 1, BuildingBlock: TAGTUT_clean_sbu_1, # of connection points: 8
#     Node 11, Type 1, BuildingBlock: TAGTUT_clean_sbu_1, # of connection points: 8
#     Node 12, Type 1, BuildingBlock: TAGTUT_clean_sbu_1, # of connection points: 8
#     Node 13, Type 1, BuildingBlock: TAGTUT_clean_sbu_1, # of connection points: 8
#     Edge 14, Type (0, 1), BuildingBlock: ZUJKAS_clean_linker_0, # of connection points: 2
#     Edge 15, Type (0, 1), BuildingBlock: ZUJKAS_clean_linker_0, # of connection points: 2
#     Edge 16, Type (0, 1), BuildingBlock: ZUJKAS_clean_linker_0, # of connection points: 2
#     Edge 17, Type (0, 1), BuildingBlock: ZUJKAS_clean_linker_0, # of connection points: 2
#     Edge 18, Type (0, 1), BuildingBlock: ZUJKAS_clean_linker_0, # of connection points: 2
#     Edge 19, Type (0, 1), BuildingBlock: ZUJKAS_clean_linker_0, # of connection points: 2
#     Edge 20, Type (0, 1), BuildingBlock: ZUJKAS_clean_linker_0, # of connection points: 2
#     Edge 21, Type (0, 1), BuildingBlock: ZUJKAS_clean_linker_0, # of connection points: 2
#     Edge 22, Type (0, 1), BuildingBlock: ZUJKAS_clean_linker_0, # of connection points: 2
#     Edge 23, Type (0, 1), BuildingBlock: ZUJKAS_clean_linker_0, # of connection points: 2
#     Edge 24, Type (0, 1), BuildingBlock: ZUJKAS_clean_linker_0, # of connection points: 2
#     Edge 25, Type (0, 1), BuildingBlock: ZUJKAS_clean_linker_0, # of connection points: 2
#     Edge 26, Type (0, 1), BuildingBlock: ZUJKAS_clean_linker_0, # of connection points: 2
#     Edge 27, Type (0, 1), BuildingBlock: ZUJKAS_clean_linker_0, # of connection points: 2
#     Edge 28, Type (0, 1), BuildingBlock: ZUJKAS_clean_linker_0, # of connection points: 2
#     Edge 29, Type (0, 1), BuildingBlock: ZUJKAS_clean_linker_0, # of connection points: 2
#     Edge 30, Type (0, 1), BuildingBlock: ZUJKAS_clean_linker_0, # of connection points: 2
#     Edge 31, Type (0, 1), BuildingBlock: ZUJKAS_clean_linker_0, # of connection points: 2
#     Edge 32, Type (0, 1), BuildingBlock: ZUJKAS_clean_linker_0, # of connection points: 2
#     Edge 33, Type (0, 1), BuildingBlock: ZUJKAS_clean_linker_0, # of connection points: 2
#     Edge 34, Type (0, 1), BuildingBlock: ZUJKAS_clean_linker_0, # of connection points: 2
#     Edge 35, Type (0, 1), BuildingBlock: ZUJKAS_clean_linker_0, # of connection points: 2
#     Edge 36, Type (0, 1), BuildingBlock: ZUJKAS_clean_linker_0, # of connection points: 2
#     Edge 37, Type (0, 1), BuildingBlock: ZUJKAS_clean_linker_0, # of connection points: 2
#     Edge 38, Type (0, 1), BuildingBlock: ZUJKAS_clean_linker_0, # of connection points: 2
#     Edge 39, Type (0, 1), BuildingBlock: ZUJKAS_clean_linker_0, # of connection points: 2
#     Edge 40, Type (0, 1), BuildingBlock: ZUJKAS_clean_linker_0, # of connection points: 2
#     Edge 41, Type (0, 1), BuildingBlock: ZUJKAS_clean_linker_0, # of connection points: 2
#     Edge 42, Type (0, 1), BuildingBlock: ZUJKAS_clean_linker_0, # of connection points: 2
#     Edge 43, Type (0, 1), BuildingBlock: ZUJKAS_clean_linker_0, # of connection points: 2
#     Edge 44, Type (0, 1), BuildingBlock: ZUJKAS_clean_linker_0, # of connection points: 2
#     Edge 45, Type (0, 1), BuildingBlock: ZUJKAS_clean_linker_0, # of connection points: 2
#     Edge 46, Type (0, 1), BuildingBlock: ZUJKAS_clean_linker_0, # of connection points: 2
#     Edge 47, Type (0, 1), BuildingBlock: ZUJKAS_clean_linker_0, # of connection points: 2
#     Edge 48, Type (0, 1), BuildingBlock: ZUJKAS_clean_linker_0, # of connection points: 2
#     Edge 49, Type (0, 1), BuildingBlock: ZUJKAS_clean_linker_0, # of connection points: 2
#     Edge 50, Type (0, 1), BuildingBlock: ZUJKAS_clean_linker_0, # of connection points: 2
#     Edge 51, Type (0, 1), BuildingBlock: ZUJKAS_clean_linker_0, # of connection points: 2
#     Edge 52, Type (0, 1), BuildingBlock: ZUJKAS_clean_linker_0, # of connection points: 2
#     Edge 53, Type (0, 1), BuildingBlock: ZUJKAS_clean_linker_0, # of connection points: 2
#     Edge 54, Type (0, 1), BuildingBlock: ZUJKAS_clean_linker_0, # of connection points: 2
#     Edge 55, Type (0, 1), BuildingBlock: ZUJKAS_clean_linker_0, # of connection points: 2
#     Edge 56, Type (0, 1), BuildingBlock: ZUJKAS_clean_linker_0, # of connection points: 2
#     Edge 57, Type (0, 1), BuildingBlock: ZUJKAS_clean_linker_0, # of connection points: 2
#     Edge 58, Type (0, 1), BuildingBlock: ZUJKAS_clean_linker_0, # of connection points: 2
#     Edge 59, Type (0, 1), BuildingBlock: ZUJKAS_clean_linker_0, # of connection points: 2
#     Edge 60, Type (0, 1), BuildingBlock: ZUJKAS_clean_linker_0, # of connection points: 2
#     Edge 61, Type (0, 1), BuildingBlock: ZUJKAS_clean_linker_0, # of connection points: 2
# Relax obj value: 0.093
# Max RMSD: 0.267
# Mean RMSD: 0.152
data_MOF--net-ocu--node1-KUMBUR_clean_sbu_0--node2-TAGTUT_clean_sbu_1--edge1-ZUJKAS_clean_linker_0
_symmetry_space_group_name_H-M    P1
_symmetry_Int_Tables_number       1
_symmetry_cell_setting            triclinic
loop_
_symmetry_equiv_pos_as_xyz
'x, y, z'
_cell_length_a     49.517469
_cell_length_b     46.900282
_cell_length_c     53.822792
_cell_angle_alpha  81.160296
_cell_angle_beta   100.52942
_cell_angle_gamma 111.11056
loop_
_atom_site_label
_atom_site_type_symbol
_atom_site_fract_x
_atom_site_fract_y
_atom_site_fract_z
_atom_type_partial_charge
Tb0 Tb 0.25864 0.2278 0.23363 0.0
C1 C 0.35967 0.30654 0.30484 0.0
C2 C 0.36492 0.27129 0.34161 0.0
C3 C 0.40725 0.31455 0.33027 0.0
C4 C 0.3476 0.28051 0.32034 0.0
C5 C 0.38943 0.32449 0.31 0.0
C6 C 0.395 0.28793 0.34606 0.0
C7 C 0.38073 0.36245 0.27686 0.0
N8 N 0.34156 0.31557 0.28584 0.0
C9 C 0.35129 0.34393 0.27272 0.0
C10 C 0.40002 0.35245 0.2953 0.0
Tb11 Tb 0.2939 0.28335 0.27957 0.0
N12 N 0.31843 0.26541 0.31548 0.0
C13 C 0.30481 0.24225 0.33262 0.0
C14 C 0.35132 0.24631 0.35821 0.0
C15 C 0.32105 0.23208 0.35392 0.0
H16 H 0.33649 0.35192 0.25854 0.0
H17 H 0.31017 0.21316 0.36694 0.0
H18 H 0.40875 0.28098 0.36211 0.0
H19 H 0.38848 0.38445 0.26589 0.0
H20 H 0.28149 0.23072 0.3297 0.0
H21 H 0.24315 0.29691 0.14539 0.0
H22 H 0.36383 0.23841 0.37473 0.0
H23 H 0.21624 0.15934 0.25483 0.0
H24 H 0.27134 0.28053 0.18346 0.0
H25 H 0.16479 0.12575 0.2464 0.0
H26 H 0.43026 0.3278 0.33439 0.0
H27 H 0.18973 0.27055 0.13657 0.0
H28 H 0.1449 0.22755 0.14866 0.0
H29 H 0.42276 0.36694 0.29864 0.0
H30 H 0.12335 0.18078 0.17639 0.0
N31 N 0.23438 0.2453 0.19726 0.0
C32 C 0.24813 0.26852 0.18021 0.0
C33 C 0.20203 0.2632 0.15352 0.0
C34 C 0.18832 0.23829 0.17011 0.0
C35 C 0.23216 0.27805 0.1584 0.0
C36 C 0.20538 0.22967 0.1919 0.0
H37 H 0.13076 0.14223 0.21265 0.0
N38 N 0.21123 0.19516 0.22687 0.0
C39 C 0.17244 0.14774 0.23539 0.0
C40 C 0.1933 0.20366 0.20739 0.0
C41 C 0.20162 0.16686 0.24009 0.0
C42 C 0.15328 0.15716 0.2164 0.0
C43 C 0.16379 0.18514 0.20171 0.0
O44 O 0.26366 0.18616 0.22925 0.0
O45 O 0.29132 0.24069 0.26676 0.0
O46 O 0.32725 0.28723 0.25645 0.0
O47 O 0.29716 0.26447 0.22088 0.0
O48 O 0.26706 0.19544 0.26562 0.0
O49 O 0.27894 0.22605 0.20305 0.0
O50 O 0.28875 0.32496 0.28384 0.0
O51 O 0.26125 0.2704 0.24646 0.0
O52 O 0.22499 0.22447 0.25642 0.0
O53 O 0.25507 0.24695 0.29212 0.0
O54 O 0.28494 0.31577 0.2478 0.0
O55 O 0.27528 0.28572 0.31101 0.0
C56 C 0.28826 0.21448 0.27879 0.0
C57 C 0.26422 0.17796 0.18704 0.0
C58 C 0.27406 0.15422 0.15383 0.0
C59 C 0.28408 0.17227 0.17453 0.0
C60 C 0.24377 0.14202 0.1459 0.0
C61 C 0.23417 0.16559 0.17874 0.0
C62 C 0.22406 0.14774 0.15827 0.0
C63 C 0.32269 0.28109 0.23256 0.0
C64 C 0.27538 0.19705 0.20849 0.0
C65 C 0.14618 0.19449 0.18092 0.0
C66 C 0.15845 0.22108 0.16513 0.0
C67 C 0.26395 0.29661 0.23454 0.0
C68 C 0.29 0.33439 0.32605 0.0
C69 C 0.27087 0.34261 0.33753 0.0
C70 C 0.28166 0.36177 0.3575 0.0
C71 C 0.31193 0.37235 0.36585 0.0
C72 C 0.32005 0.34521 0.33472 0.0
C73 C 0.33091 0.36408 0.35452 0.0
C74 C 0.22936 0.23092 0.28027 0.0
C75 C 0.27813 0.3145 0.30515 0.0
H76 H 0.30733 0.18222 0.18077 0.0
H77 H 0.23524 0.12764 0.13035 0.0
H78 H 0.21852 0.16959 0.18805 0.0
H79 H 0.20081 0.13816 0.15204 0.0
H80 H 0.24766 0.33441 0.33066 0.0
H81 H 0.32094 0.38671 0.3814 0.0
H82 H 0.33512 0.33916 0.32625 0.0
H83 H 0.35413 0.37228 0.36116 0.0
Tb84 Tb 0.79994 0.2217 0.25462 0.0
C85 C 0.75496 0.2942 0.31251 0.0
C86 C 0.70333 0.26584 0.31311 0.0
C87 C 0.73127 0.29691 0.34748 0.0
C88 C 0.72885 0.27433 0.30155 0.0
C89 C 0.75635 0.30611 0.33542 0.0
C90 C 0.70481 0.27681 0.33634 0.0
C91 C 0.80666 0.33689 0.33198 0.0
N92 N 0.7788 0.30247 0.30033 0.0
C93 C 0.80423 0.32456 0.30929 0.0
C94 C 0.78272 0.32741 0.34525 0.0
Tb95 Tb 0.77182 0.28027 0.26329 0.0
N96 N 0.7283 0.26392 0.27922 0.0
C97 C 0.70234 0.24649 0.2666 0.0
C98 C 0.67702 0.24689 0.30082 0.0
C99 C 0.67648 0.23751 0.27731 0.0
H100 H 0.82311 0.33237 0.29952 0.0
H101 H 0.65616 0.22323 0.26745 0.0
H102 H 0.68551 0.2703 0.34564 0.0
H103 H 0.82703 0.35379 0.33919 0.0
H104 H 0.70137 0.23896 0.24843 0.0
H105 H 0.84503 0.16707 0.3401 0.0
H106 H 0.65698 0.23976 0.30912 0.0
H107 H 0.82747 0.25029 0.20071 0.0
H108 H 0.8062 0.17909 0.31001 0.0
H109 H 0.87448 0.26574 0.18501 0.0
H110 H 0.73199 0.30564 0.36519 0.0
H111 H 0.89596 0.1877 0.33079 0.0
H112 H 0.93138 0.21703 0.29976 0.0
H113 H 0.78466 0.33713 0.36277 0.0
H114 H 0.93935 0.24345 0.25714 0.0
N115 N 0.83457 0.20715 0.28345 0.0
C116 C 0.82812 0.18818 0.30527 0.0
C117 C 0.87893 0.193 0.31727 0.0
C118 C 0.88512 0.21059 0.29424 0.0
C119 C 0.8502 0.18131 0.3226 0.0
C120 C 0.86214 0.21711 0.27755 0.0
H121 H 0.91809 0.26092 0.2139 0.0
N122 N 0.84351 0.23685 0.23855 0.0
C123 C 0.87287 0.2569 0.20466 0.0
C124 C 0.86676 0.23256 0.25411 0.0
C125 C 0.84606 0.24801 0.21374 0.0
C126 C 0.89734 0.25414 0.22099 0.0
C127 C 0.8944 0.24148 0.24602 0.0
O128 O 0.77564 0.17447 0.25359 0.0
O129 O 0.76386 0.23222 0.26393 0.0
O130 O 0.79195 0.26537 0.30001 0.0
O131 O 0.82425 0.24428 0.28907 0.0
O132 O 0.76985 0.1926 0.28107 0.0
O133 O 0.79275 0.20127 0.22068 0.0
O134 O 0.78516 0.32079 0.2384 0.0
O135 O 0.80335 0.26904 0.24726 0.0
O136 O 0.78455 0.24516 0.21943 0.0
O137 O 0.74613 0.25264 0.2319 0.0
O138 O 0.81798 0.30952 0.26253 0.0
O139 O 0.742 0.30305 0.24838 0.0
C140 C 0.75442 0.20961 0.28003 0.0
C141 C 0.78908 0.14969 0.22576 0.0
C142 C 0.82494 0.12384 0.23484 0.0
C143 C 0.81593 0.14796 0.23818 0.0
C144 C 0.80698 0.10159 0.2186 0.0
C145 C 0.77147 0.12767 0.20928 0.0
C146 C 0.78048 0.10374 0.20567 0.0
C147 C 0.81464 0.25574 0.30539 0.0
C148 C 0.77907 0.17398 0.23038 0.0
C149 C 0.91783 0.23639 0.26286 0.0
C150 C 0.91324 0.22118 0.28706 0.0
C151 C 0.82608 0.29224 0.25126 0.0
C152 C 0.74706 0.32427 0.20605 0.0
C153 C 0.71799 0.30674 0.19759 0.0
C154 C 0.70531 0.31125 0.17236 0.0
C155 C 0.72323 0.33219 0.15522 0.0
C156 C 0.76437 0.34476 0.1886 0.0
C157 C 0.75257 0.3483 0.16324 0.0
C158 C 0.7582 0.24719 0.21405 0.0
C159 C 0.75911 0.32219 0.23314 0.0
H160 H 0.82934 0.16474 0.25113 0.0
H161 H 0.81343 0.08261 0.21601 0.0
H162 H 0.75069 0.12882 0.19945 0.0
H163 H 0.76673 0.08662 0.19309 0.0
H164 H 0.70509 0.29007 0.21092 0.0
H165 H 0.71458 0.33729 0.13578 0.0
H166 H 0.7869 0.35829 0.19465 0.0
H167 H 0.76596 0.36441 0.14991 0.0
Tb168 Tb 0.75119 0.73849 0.27552 0.0
C169 C 0.82103 0.84446 0.20467 0.0
C170 C 0.78689 0.84862 0.16717 0.0
C171 C 0.82782 0.8938 0.17981 0.0
C172 C 0.79619 0.83109 0.18844 0.0
C173 C 0.83751 0.87586 0.20039 0.0
C174 C 0.80252 0.88019 0.16322 0.0
C175 C 0.87283 0.86885 0.23596 0.0
N176 N 0.82967 0.82626 0.22416 0.0
C177 C 0.85582 0.83777 0.23928 0.0
C178 C 0.86351 0.88808 0.21657 0.0
Tb179 Tb 0.79981 0.77582 0.22876 0.0
N180 N 0.78184 0.80056 0.19294 0.0
C181 C 0.75904 0.7857 0.17565 0.0
C182 C 0.76259 0.83377 0.15023 0.0
C183 C 0.74886 0.80208 0.15433 0.0
H184 H 0.86328 0.82327 0.25441 0.0
H185 H 0.73031 0.79024 0.14114 0.0
H186 H 0.79557 0.89411 0.14713 0.0
H187 H 0.89314 0.87795 0.24835 0.0
H188 H 0.74791 0.76129 0.17846 0.0
H189 H 0.82078 0.72614 0.36353 0.0
H190 H 0.75465 0.8464 0.13372 0.0
H191 H 0.68833 0.69009 0.25012 0.0
H192 H 0.80248 0.75443 0.32605 0.0
H193 H 0.65946 0.63499 0.25626 0.0
H194 H 0.84004 0.91803 0.17629 0.0
H195 H 0.79796 0.66974 0.37081 0.0
H196 H 0.75826 0.62127 0.3572 0.0
H197 H 0.8768 0.91211 0.21396 0.0
H198 H 0.71422 0.59638 0.32797 0.0
N199 N 0.7698 0.71449 0.31138 0.0
C200 C 0.79208 0.72987 0.3288 0.0
C201 C 0.78975 0.68206 0.35423 0.0
C202 C 0.76589 0.66665 0.33715 0.0
C203 C 0.80263 0.71389 0.35021 0.0
C204 C 0.75621 0.68379 0.3158 0.0
H205 H 0.67694 0.6014 0.29043 0.0
N206 N 0.72235 0.68774 0.28012 0.0
C207 C 0.67977 0.64449 0.26854 0.0
C208 C 0.7316 0.66986 0.29952 0.0
C209 C 0.69617 0.67576 0.26517 0.0
C210 C 0.68975 0.62558 0.28779 0.0
C211 C 0.71574 0.63829 0.30385 0.0
O212 O 0.7111 0.74047 0.28152 0.0
O213 O 0.75973 0.77105 0.24218 0.0
O214 O 0.80012 0.81144 0.25069 0.0
O215 O 0.78597 0.78088 0.28782 0.0
O216 O 0.71743 0.74524 0.24455 0.0
O217 O 0.75079 0.76098 0.30631 0.0
O218 O 0.83919 0.77171 0.2233 0.0
O219 O 0.7913 0.74335 0.26223 0.0
O220 O 0.75121 0.70319 0.25315 0.0
O221 O 0.76408 0.7344 0.21625 0.0
O222 O 0.83352 0.76934 0.25991 0.0
O223 O 0.79961 0.75353 0.19765 0.0
C224 C 0.73405 0.76696 0.23083 0.0
C225 C 0.70696 0.74313 0.32414 0.0
C226 C 0.68475 0.75317 0.35735 0.0
C227 C 0.6998 0.76358 0.33606 0.0
C228 C 0.67729 0.72196 0.36664 0.0
C229 C 0.6992 0.71213 0.33364 0.0
C230 C 0.6845 0.70166 0.35484 0.0
C231 C 0.79759 0.80788 0.27509 0.0
C232 C 0.72262 0.7547 0.30193 0.0
C233 C 0.72593 0.62074 0.32442 0.0
C234 C 0.75099 0.6349 0.34106 0.0
C235 C 0.81696 0.74773 0.27374 0.0
C236 C 0.84401 0.76876 0.18097 0.0
C237 C 0.84932 0.7471 0.169 0.0
C238 C 0.86566 0.75637 0.14852 0.0
C239 C 0.87631 0.78785 0.14007 0.0
C240 C 0.8547 0.79994 0.17222 0.0
C241 C 0.87073 0.80938 0.15181 0.0
C242 C 0.7529 0.70698 0.22853 0.0
C243 C 0.82748 0.75809 0.20264 0.0
H244 H 0.70554 0.78747 0.32846 0.0
H245 H 0.66611 0.71326 0.3832 0.0
H246 H 0.7044 0.69604 0.32472 0.0
H247 H 0.67866 0.67771 0.36215 0.0
H248 H 0.84052 0.72298 0.17565 0.0
H249 H 0.8894 0.79598 0.12469 0.0
H250 H 0.85086 0.81694 0.1812 0.0
H251 H 0.87911 0.83351 0.1452 0.0
Tb252 Tb 0.29447 0.73547 0.26652 0.0
C253 C 0.24603 0.81856 0.18309 0.0
C254 C 0.28551 0.86717 0.1802 0.0
C255 C 0.24882 0.85172 0.14352 0.0
C256 C 0.27134 0.83926 0.19402 0.0
C257 C 0.23411 0.82467 0.15784 0.0
C258 C 0.27447 0.873 0.15471 0.0
C259 C 0.19284 0.77826 0.1636 0.0
N260 N 0.23231 0.79305 0.19773 0.0
C261 C 0.20547 0.77339 0.18862 0.0
C262 C 0.20736 0.80385 0.14803 0.0
Tb263 Tb 0.25459 0.78676 0.23843 0.0
N264 N 0.28113 0.83278 0.21867 0.0
C265 C 0.30428 0.85431 0.2311 0.0
C266 C 0.30977 0.88875 0.19265 0.0
C267 C 0.31911 0.88232 0.21825 0.0
H268 H 0.19402 0.75346 0.20038 0.0
H269 H 0.33768 0.89897 0.22815 0.0
H270 H 0.28523 0.89416 0.14369 0.0
H271 H 0.1719 0.76227 0.15635 0.0
H272 H 0.31191 0.85002 0.2509 0.0
H273 H 0.21147 0.62368 0.27944 0.0
H274 H 0.32112 0.9106 0.18281 0.0
H275 H 0.35517 0.77032 0.30387 0.0
H276 H 0.23792 0.67132 0.25524 0.0
H277 H 0.37742 0.7632 0.34816 0.0
H278 H 0.24015 0.85675 0.12401 0.0
H279 H 0.22749 0.61439 0.32533 0.0
H280 H 0.26398 0.63203 0.36386 0.0
H281 H 0.19746 0.80767 0.12871 0.0
H282 H 0.30933 0.66997 0.38258 0.0
N283 N 0.26844 0.6899 0.28714 0.0
C284 C 0.24535 0.66785 0.27521 0.0
C285 C 0.23922 0.63552 0.31479 0.0
C286 C 0.26381 0.65735 0.3266 0.0
C287 C 0.23017 0.64065 0.28889 0.0
C288 C 0.27822 0.68447 0.312 0.0
H289 H 0.35205 0.7188 0.37677 0.0
N290 N 0.31713 0.73062 0.30729 0.0
C291 C 0.35656 0.74686 0.3412 0.0
C292 C 0.30354 0.70561 0.32247 0.0
C293 C 0.34387 0.75076 0.31604 0.0
C294 C 0.34215 0.72181 0.35731 0.0
C295 C 0.31545 0.70056 0.34792 0.0
O296 O 0.33505 0.735 0.26025 0.0
O297 O 0.29306 0.77491 0.24064 0.0
O298 O 0.25626 0.76172 0.20793 0.0
O299 O 0.26358 0.71891 0.23256 0.0
O300 O 0.33266 0.7768 0.26001 0.0
O301 O 0.29481 0.69998 0.24722 0.0
O302 O 0.214 0.78605 0.24564 0.0
O303 O 0.25566 0.74699 0.2641 0.0
O304 O 0.29182 0.75978 0.29702 0.0
O305 O 0.28555 0.80298 0.2725 0.0
O306 O 0.21637 0.74539 0.24385 0.0
O307 O 0.25387 0.82197 0.25798 0.0
C308 C 0.31962 0.79153 0.24295 0.0
C309 C 0.3373 0.6866 0.25544 0.0
C310 C 0.35976 0.65434 0.24137 0.0
C311 C 0.34583 0.67641 0.23593 0.0
C312 C 0.36488 0.64251 0.26675 0.0
C313 C 0.34241 0.67446 0.2806 0.0
C314 C 0.35616 0.65248 0.28617 0.0
C315 C 0.25668 0.73328 0.21041 0.0
C316 C 0.32316 0.70992 0.24884 0.0
C317 C 0.30068 0.67418 0.36292 0.0
C318 C 0.27486 0.6526 0.35226 0.0
C319 C 0.22903 0.73043 0.26105 0.0
C320 C 0.21023 0.83335 0.25144 0.0
C321 C 0.20302 0.84341 0.27177 0.0
C322 C 0.18639 0.86301 0.26746 0.0
C323 C 0.17779 0.87292 0.24215 0.0
C324 C 0.20171 0.84368 0.22647 0.0
C325 C 0.18564 0.86351 0.22191 0.0
C326 C 0.29181 0.78831 0.29467 0.0
C327 C 0.22559 0.81108 0.25708 0.0
H328 H 0.34204 0.68611 0.21654 0.0
H329 H 0.37532 0.6253 0.27157 0.0
H330 H 0.33589 0.68199 0.29584 0.0
H331 H 0.36009 0.64313 0.30562 0.0
H332 H 0.2104 0.83572 0.29097 0.0
H333 H 0.16447 0.88743 0.23784 0.0
H334 H 0.20716 0.83618 0.21059 0.0
H335 H 0.17882 0.87125 0.20258 0.0
Tb336 Tb 0.30017 0.73192 0.7628 0.0
C337 C 0.22213 0.79843 0.78494 0.0
C338 C 0.17447 0.7595 0.78739 0.0
C339 C 0.19026 0.80319 0.81228 0.0
C340 C 0.20147 0.77106 0.77786 0.0
C341 C 0.21673 0.81501 0.80206 0.0
C342 C 0.16914 0.77549 0.80492 0.0
C343 C 0.26347 0.85427 0.79684 0.0
N344 N 0.24751 0.80892 0.7748 0.0
C345 C 0.26776 0.83705 0.77982 0.0
C346 C 0.23797 0.84309 0.80819 0.0
Tb347 Tb 0.25302 0.77787 0.74844 0.0
N348 N 0.2076 0.75613 0.76113 0.0
C349 C 0.18665 0.73052 0.7517 0.0
C350 C 0.15351 0.73248 0.77873 0.0
C351 C 0.1595 0.71817 0.76054 0.0
H352 H 0.28773 0.84588 0.77145 0.0
H353 H 0.1433 0.69749 0.75344 0.0
H354 H 0.14863 0.76685 0.81264 0.0
H355 H 0.2799 0.87611 0.80125 0.0
H356 H 0.19107 0.71908 0.73777 0.0
H357 H 0.41005 0.81138 0.75662 0.0
H358 H 0.13252 0.72278 0.78564 0.0
H359 H 0.26523 0.66274 0.74137 0.0
H360 H 0.36223 0.791 0.77209 0.0
H361 H 0.27318 0.63105 0.71309 0.0
H362 H 0.18575 0.81549 0.82559 0.0
H363 H 0.42081 0.78431 0.72572 0.0
H364 H 0.40458 0.73911 0.70004 0.0
H365 H 0.23472 0.85648 0.82136 0.0
H366 H 0.3674 0.68999 0.6883 0.0
N367 N 0.34552 0.75287 0.74985 0.0
C368 C 0.36655 0.77883 0.75866 0.0
C369 C 0.39974 0.7752 0.73249 0.0
C370 C 0.37869 0.74794 0.72441 0.0
C371 C 0.39377 0.7905 0.74994 0.0
C372 C 0.35162 0.73705 0.73383 0.0
H373 H 0.31846 0.64941 0.69323 0.0
N374 N 0.30562 0.69945 0.73767 0.0
C375 C 0.28961 0.65307 0.71697 0.0
C376 C 0.33097 0.70937 0.72751 0.0
C377 C 0.28528 0.67119 0.73317 0.0
C378 C 0.31517 0.66353 0.70576 0.0
C379 C 0.33639 0.69185 0.71117 0.0
O380 O 0.29495 0.69516 0.79173 0.0
O381 O 0.26064 0.73769 0.76845 0.0
O382 O 0.27053 0.77922 0.78833 0.0
O383 O 0.31349 0.77054 0.78652 0.0
O384 O 0.25924 0.69395 0.76909 0.0
O385 O 0.33519 0.73363 0.79169 0.0
O386 O 0.25782 0.8167 0.72173 0.0
O387 O 0.29233 0.77196 0.74242 0.0
O388 O 0.2826 0.72969 0.72289 0.0
O389 O 0.24022 0.74056 0.72329 0.0
O390 O 0.29388 0.81582 0.74174 0.0
O391 O 0.21838 0.77691 0.71944 0.0
C392 C 0.24399 0.71019 0.77164 0.0
C393 C 0.31887 0.71548 0.83103 0.0
C394 C 0.34623 0.73732 0.87017 0.0
C395 C 0.34545 0.72897 0.84605 0.0
C396 C 0.3199 0.73191 0.87938 0.0
C397 C 0.29261 0.71021 0.84039 0.0
C398 C 0.29319 0.71851 0.86443 0.0
C399 C 0.29708 0.77965 0.79824 0.0
C400 C 0.31956 0.70989 0.80498 0.0
C401 C 0.36289 0.70302 0.70101 0.0
C402 C 0.38403 0.731 0.70766 0.0
C403 C 0.30887 0.79946 0.73886 0.0
C404 C 0.23461 0.80063 0.68103 0.0
C405 C 0.20811 0.79041 0.66517 0.0
C406 C 0.2073 0.78624 0.63981 0.0
C407 C 0.23363 0.79297 0.63014 0.0
C408 C 0.26087 0.80655 0.67146 0.0
C409 C 0.2603 0.80272 0.64606 0.0
C410 C 0.25654 0.73043 0.71225 0.0
C411 C 0.23353 0.80253 0.70779 0.0
H412 H 0.36572 0.73256 0.83901 0.0
H413 H 0.32004 0.73777 0.89811 0.0
H414 H 0.27174 0.7 0.82913 0.0
H415 H 0.27289 0.71447 0.8715 0.0
H416 H 0.18791 0.78614 0.67261 0.0
H417 H 0.23356 0.7908 0.61039 0.0
H418 H 0.28167 0.81404 0.68348 0.0
H419 H 0.28057 0.80752 0.63868 0.0
Tb420 Tb 0.25102 0.23871 0.77516 0.0
C421 C 0.32799 0.34789 0.71054 0.0
C422 C 0.29791 0.35557 0.67118 0.0
C423 C 0.33936 0.39845 0.68707 0.0
C424 C 0.30415 0.33648 0.6927 0.0
C425 C 0.34617 0.37892 0.70785 0.0
C426 C 0.31531 0.38675 0.6687 0.0
C427 C 0.37765 0.3684 0.74523 0.0
N428 N 0.33412 0.3281 0.72998 0.0
C429 C 0.35914 0.33775 0.74689 0.0
C430 C 0.37102 0.38917 0.72574 0.0
Tb431 Tb 0.30245 0.27821 0.73111 0.0
N432 N 0.28801 0.30623 0.69576 0.0
C433 C 0.26607 0.29329 0.67708 0.0
C434 C 0.275 0.34255 0.65243 0.0
C435 C 0.25904 0.31124 0.65537 0.0
H436 H 0.3646 0.32215 0.76218 0.0
H437 H 0.2414 0.30086 0.64085 0.0
H438 H 0.31069 0.40184 0.65241 0.0
H439 H 0.39703 0.37598 0.75899 0.0
H440 H 0.25349 0.26914 0.67885 0.0
H441 H 0.31486 0.22009 0.86501 0.0
H442 H 0.26993 0.35632 0.63538 0.0
H443 H 0.18812 0.19318 0.74709 0.0
H444 H 0.29963 0.25066 0.82771 0.0
H445 H 0.15759 0.13847 0.75092 0.0
H446 H 0.35295 0.42241 0.68472 0.0
H447 H 0.29078 0.16365 0.86983 0.0
H448 H 0.25115 0.11667 0.85347 0.0
H449 H 0.3855 0.41285 0.72439 0.0
H450 H 0.20813 0.09437 0.82233 0.0
N451 N 0.26724 0.21217 0.81068 0.0
C452 C 0.28865 0.22617 0.82932 0.0
C453 C 0.2839 0.17702 0.85329 0.0
C454 C 0.2609 0.16299 0.83494 0.0
C455 C 0.2975 0.20884 0.85065 0.0
C456 C 0.25283 0.1815 0.81378 0.0
H457 H 0.17273 0.10243 0.78423 0.0
N458 N 0.22083 0.18829 0.77755 0.0
C459 C 0.17762 0.14674 0.76384 0.0
C460 C 0.22875 0.16905 0.7965 0.0
C461 C 0.19499 0.17781 0.76179 0.0
C462 C 0.18629 0.12645 0.78259 0.0
C463 C 0.21189 0.13761 0.79952 0.0
O464 O 0.21092 0.24128 0.78062 0.0
O465 O 0.26147 0.27309 0.74311 0.0
O466 O 0.30157 0.3124 0.75418 0.0
O467 O 0.28656 0.2793 0.78972 0.0
O468 O 0.21873 0.24755 0.74379 0.0
O469 O 0.25019 0.26055 0.80618 0.0
O470 O 0.34182 0.27348 0.7263 0.0
O471 O 0.29178 0.24354 0.76303 0.0
O472 O 0.25061 0.20495 0.75085 0.0
O473 O 0.26654 0.23861 0.7158 0.0
O474 O 0.3345 0.26919 0.7626 0.0
O475 O 0.30305 0.25757 0.69927 0.0
C476 C 0.23616 0.2697 0.73106 0.0
C477 C 0.20596 0.24316 0.82321 0.0
C478 C 0.18419 0.25322 0.85676 0.0
C479 C 0.19943 0.26371 0.83557 0.0
C480 C 0.17586 0.22178 0.86545 0.0
C481 C 0.19736 0.21196 0.83214 0.0
C482 C 0.18242 0.20138 0.8532 0.0
C483 C 0.29858 0.30728 0.77859 0.0
C484 C 0.22216 0.25491 0.80133 0.0
C485 C 0.22062 0.11865 0.81978 0.0
C486 C 0.24511 0.13134 0.8375 0.0
C487 C 0.31703 0.24698 0.7752 0.0
C488 C 0.34829 0.27241 0.68402 0.0
C489 C 0.35374 0.25113 0.67168 0.0
C490 C 0.37093 0.26101 0.65174 0.0
C491 C 0.38231 0.2927 0.64427 0.0
C492 C 0.35978 0.30381 0.67624 0.0
C493 C 0.37666 0.31385 0.65641 0.0
C494 C 0.25353 0.21063 0.7264 0.0
C495 C 0.33068 0.26113 0.705 0.0
H496 H 0.20589 0.28777 0.82843 0.0
H497 H 0.16454 0.21297 0.88192 0.0
H498 H 0.20214 0.19581 0.8229 0.0
H499 H 0.17593 0.17728 0.86008 0.0
H500 H 0.34439 0.22684 0.67757 0.0
H501 H 0.39603 0.30127 0.62934 0.0
H502 H 0.35589 0.32053 0.68555 0.0
H503 H 0.38563 0.33815 0.65056 0.0
Tb504 Tb 0.79035 0.23151 0.76399 0.0
C505 C 0.74783 0.31853 0.68114 0.0
C506 C 0.79003 0.36447 0.67692 0.0
C507 C 0.75264 0.34957 0.64057 0.0
C508 C 0.7741 0.33825 0.69159 0.0
C509 C 0.73645 0.32412 0.65562 0.0
C510 C 0.77943 0.36972 0.65121 0.0
C511 C 0.69337 0.27999 0.66227 0.0
N512 N 0.73302 0.29422 0.69631 0.0
C513 C 0.7056 0.27548 0.68749 0.0
C514 C 0.70899 0.30424 0.64617 0.0
Tb515 Tb 0.75541 0.28775 0.73698 0.0
N516 N 0.78349 0.33227 0.71645 0.0
C517 C 0.80777 0.35308 0.72833 0.0
C518 C 0.81577 0.38489 0.68868 0.0
C519 C 0.82444 0.37939 0.7146 0.0
H520 H 0.69339 0.25649 0.69962 0.0
H521 H 0.84405 0.3953 0.72401 0.0
H522 H 0.79149 0.38957 0.63955 0.0
H523 H 0.67194 0.26471 0.65524 0.0
H524 H 0.81503 0.3492 0.74829 0.0
H525 H 0.70068 0.12442 0.77513 0.0
H526 H 0.82875 0.40524 0.67808 0.0
H527 H 0.85241 0.26055 0.80174 0.0
H528 H 0.73063 0.17056 0.75154 0.0
H529 H 0.87327 0.25123 0.84618 0.0
H530 H 0.74442 0.35416 0.62085 0.0
H531 H 0.71472 0.11394 0.82122 0.0
H532 H 0.75127 0.12885 0.86033 0.0
H533 H 0.69946 0.3077 0.62665 0.0
H534 H 0.79855 0.16326 0.87968 0.0
N535 N 0.76144 0.18699 0.78392 0.0
C536 C 0.73735 0.16644 0.77157 0.0
C537 C 0.7281 0.1343 0.81092 0.0
C538 C 0.75372 0.15439 0.82315 0.0
C539 C 0.72016 0.14011 0.78491 0.0
C540 C 0.7702 0.18064 0.80885 0.0
H541 H 0.84452 0.20871 0.87441 0.0
N542 N 0.81198 0.22393 0.80473 0.0
C543 C 0.85158 0.23663 0.83899 0.0
C544 C 0.79652 0.19982 0.81967 0.0
C545 C 0.8397 0.24177 0.81375 0.0
C546 C 0.83526 0.21267 0.85489 0.0
C547 C 0.80749 0.19363 0.8452 0.0
O548 O 0.8294 0.22734 0.7576 0.0
O549 O 0.79194 0.2725 0.73921 0.0
O550 O 0.75594 0.26291 0.70618 0.0
O551 O 0.75852 0.21765 0.72971 0.0
O552 O 0.83073 0.27021 0.7577 0.0
O553 O 0.78741 0.19576 0.74331 0.0
O554 O 0.71641 0.29032 0.74495 0.0
O555 O 0.75414 0.24704 0.76211 0.0
O556 O 0.79115 0.25754 0.79471 0.0
O557 O 0.78764 0.30222 0.77067 0.0
O558 O 0.71529 0.24865 0.74333 0.0
O559 O 0.75797 0.32486 0.75594 0.0
C560 C 0.81905 0.28692 0.74139 0.0
C561 C 0.82717 0.17787 0.75085 0.0
C562 C 0.84801 0.14504 0.73546 0.0
C563 C 0.83665 0.16917 0.73114 0.0
C564 C 0.8494 0.12953 0.75998 0.0
C565 C 0.82868 0.16222 0.77513 0.0
C566 C 0.83975 0.1381 0.77962 0.0
C567 C 0.75372 0.23372 0.70784 0.0
C568 C 0.81564 0.20323 0.74523 0.0
C569 C 0.79067 0.16828 0.85994 0.0
C570 C 0.76377 0.1487 0.84893 0.0
C571 C 0.72711 0.23232 0.75993 0.0
C572 C 0.71591 0.33911 0.7503 0.0
C573 C 0.70856 0.34886 0.77067 0.0
C574 C 0.69283 0.36931 0.76652 0.0
C575 C 0.68547 0.38057 0.74132 0.0
C576 C 0.70858 0.35066 0.72542 0.0
C577 C 0.69354 0.37147 0.72102 0.0
C578 C 0.79312 0.28675 0.79264 0.0
C579 C 0.72982 0.31562 0.75581 0.0
H580 H 0.83484 0.18108 0.71232 0.0
H581 H 0.85832 0.1111 0.7641 0.0
H582 H 0.82135 0.16862 0.79051 0.0
H583 H 0.841 0.12608 0.79841 0.0
H584 H 0.71503 0.34017 0.78981 0.0
H585 H 0.67294 0.39587 0.73714 0.0
H586 H 0.71413 0.34332 0.7095 0.0
H587 H 0.68764 0.38019 0.70177 0.0
Tb588 Tb 0.75991 0.7275 0.73349 0.0
C589 C 0.85955 0.81014 0.80406 0.0
C590 C 0.86519 0.77758 0.84257 0.0
C591 C 0.90672 0.82148 0.83072 0.0
C592 C 0.84795 0.78459 0.82022 0.0
C593 C 0.88887 0.82941 0.80939 0.0
C594 C 0.89485 0.79564 0.84737 0.0
C595 C 0.8794 0.86505 0.77446 0.0
N596 N 0.84127 0.81756 0.78429 0.0
C597 C 0.85036 0.84545 0.77033 0.0
C598 C 0.8989 0.85677 0.79384 0.0
Tb599 Tb 0.79409 0.78407 0.77855 0.0
N600 N 0.81914 0.76801 0.81503 0.0
C601 C 0.80586 0.74499 0.83241 0.0
C602 C 0.85181 0.75354 0.85996 0.0
C603 C 0.822 0.7372 0.85488 0.0
H604 H 0.83535 0.8523 0.75557 0.0
H605 H 0.81136 0.71876 0.86836 0.0
H606 H 0.90852 0.79036 0.86428 0.0
H607 H 0.88664 0.88665 0.76284 0.0
H608 H 0.78282 0.73211 0.8291 0.0
H609 H 0.74296 0.79567 0.64504 0.0
H610 H 0.86409 0.7481 0.8777 0.0
H611 H 0.71797 0.65884 0.75503 0.0
H612 H 0.77187 0.77915 0.68261 0.0
H613 H 0.66624 0.62557 0.74774 0.0
H614 H 0.92938 0.83581 0.83504 0.0
H615 H 0.6894 0.76979 0.63731 0.0
H616 H 0.64476 0.72702 0.65024 0.0
H617 H 0.92128 0.8722 0.79726 0.0
H618 H 0.62367 0.68052 0.67842 0.0
N619 N 0.73514 0.74442 0.69716 0.0
C620 C 0.74859 0.76733 0.67977 0.0
C621 C 0.70201 0.76234 0.65399 0.0
C622 C 0.6886 0.73758 0.67085 0.0
C623 C 0.73223 0.77692 0.65826 0.0
C624 C 0.70604 0.72896 0.69234 0.0
H625 H 0.63165 0.6421 0.71464 0.0
N626 N 0.71251 0.69458 0.72721 0.0
C627 C 0.67375 0.64745 0.73655 0.0
C628 C 0.69422 0.7031 0.70808 0.0
C629 C 0.70307 0.66637 0.74062 0.0
C630 C 0.65428 0.6569 0.71792 0.0
C631 C 0.66457 0.68473 0.70298 0.0
O632 O 0.76489 0.6858 0.72915 0.0
O633 O 0.79245 0.74126 0.76663 0.0
O634 O 0.82791 0.78749 0.75613 0.0
O635 O 0.79826 0.76438 0.72056 0.0
O636 O 0.76901 0.69581 0.76581 0.0
O637 O 0.78038 0.72567 0.70306 0.0
O638 O 0.78816 0.8255 0.78206 0.0
O639 O 0.76142 0.77011 0.74559 0.0
O640 O 0.72627 0.7235 0.75642 0.0
O641 O 0.75589 0.74731 0.79172 0.0
O642 O 0.78485 0.81559 0.74616 0.0
O643 O 0.77469 0.78653 0.8095 0.0
C644 C 0.78981 0.71525 0.77897 0.0
C645 C 0.76543 0.67765 0.68692 0.0
C646 C 0.77453 0.65159 0.65488 0.0
C647 C 0.78481 0.66945 0.67573 0.0
C648 C 0.74453 0.64236 0.64538 0.0
C649 C 0.73567 0.66804 0.67714 0.0
C650 C 0.72532 0.65052 0.65648 0.0
C651 C 0.82366 0.78118 0.7323 0.0
C652 C 0.77673 0.69665 0.70845 0.0
C653 C 0.6466 0.6941 0.68251 0.0
C654 C 0.65861 0.72054 0.66645 0.0
C655 C 0.76394 0.79605 0.7332 0.0
C656 C 0.7889 0.83544 0.82403 0.0
C657 C 0.76935 0.8418 0.83644 0.0
C658 C 0.7798 0.86106 0.85636 0.0
C659 C 0.81018 0.87376 0.86361 0.0
C660 C 0.81904 0.84838 0.83163 0.0
C661 C 0.82958 0.86738 0.85133 0.0
C662 C 0.73054 0.73016 0.78016 0.0
C663 C 0.77737 0.81523 0.80331 0.0
H664 H 0.80779 0.67671 0.68345 0.0
H665 H 0.7359 0.62915 0.62911 0.0
H666 H 0.72042 0.67408 0.68537 0.0
H667 H 0.70232 0.64334 0.64896 0.0
H668 H 0.74603 0.83149 0.83073 0.0
H669 H 0.81904 0.88905 0.87852 0.0
H670 H 0.83447 0.844 0.82234 0.0
H671 H 0.8529 0.87738 0.857 0.0
C672 C 0.9612 0.06842 0.53654 0.0
C673 C 0.9865 0.08158 0.46028 0.0
C674 C 0.9569 0.96571 0.46196 0.0
Mg675 Mg 1.01702 0.07309 0.51416 0.0
O676 O 0.99698 0.03063 0.51563 0.0
Mg677 Mg 0.95596 0.01694 0.49673 0.0
Mg678 Mg 1.01396 0.00633 0.49976 0.0
O679 O 0.03063 0.98245 0.48341 0.0
Mg680 Mg 1.01001 0.9412 0.47888 0.0
Mg681 Mg 0.07064 0.99341 0.50328 0.0
C682 C 0.07044 0.04794 0.53537 0.0
C683 C 0.06349 0.05243 0.46594 0.0
O684 O 0.94606 0.0454 0.52372 0.0
O685 O 0.98862 0.08241 0.53559 0.0
O686 O 0.96523 0.05791 0.4665 0.0
O687 O 1.01074 0.0907 0.47481 0.0
O688 O 0.05963 0.06972 0.53158 0.0
O689 O 0.05599 0.0212 0.52767 0.0
C690 C 0.96601 0.95949 0.53475 0.0
O691 O 0.99108 0.96619 0.52755 0.0
O692 O 0.94931 0.97528 0.52604 0.0
O693 O 0.08161 0.96629 0.4752 0.0
O694 O 0.03889 0.935 0.45662 0.0
O695 O 0.05721 0.94896 0.531 0.0
C696 C 0.06683 0.94681 0.45899 0.0
O697 O 1.01368 0.91702 0.51535 0.0
O698 O 0.96776 0.94454 0.4624 0.0
C699 C 0.03551 0.92379 0.53279 0.0
O700 O 0.97138 0.99069 0.47238 0.0
O701 O 0.03807 0.0467 0.47221 0.0
O702 O 0.07936 0.03589 0.47512 0.0
C703 C 0.4572 0.06637 0.02273 0.0
C704 C 0.47344 0.06962 0.94788 0.0
C705 C 0.47769 0.94962 0.98429 0.0
Mg706 Mg 0.51399 0.07747 1.00024 0.0
O707 O 0.50345 0.03515 0.00827 0.0
Mg708 Mg 0.46311 0.00922 0.99461 0.0
Mg709 Mg 0.52789 0.0104 0.00405 0.0
O710 O 0.55215 0.98559 0.99973 0.0
Mg711 Mg 0.5413 0.94316 0.00742 0.0
Mg712 Mg 0.59254 0.01136 0.0133 0.0
C713 C 0.57764 0.0712 0.0245 0.0
C714 C 0.57074 0.04858 0.96149 0.0
O715 O 0.44592 0.04058 0.01283 0.0
O716 O 0.48392 0.08358 0.0217 0.0
O717 O 0.46064 0.04156 0.95624 0.0
O718 O 0.49626 0.08686 0.96082 0.0
O719 O 0.56073 0.08693 0.01528 0.0
O720 O 0.56877 0.04162 0.02627 0.0
C721 C 0.48495 0.9723 0.04652 0.0
O722 O 0.51079 0.98001 0.04056 0.0
O723 O 0.4649 0.98053 0.03225 0.0
O724 O 0.60934 0.97984 0.99483 0.0
O725 O 0.57117 0.93702 0.98577 0.0
O726 O 0.59496 0.97855 0.05151 0.0
C727 C 0.59794 0.95411 0.98484 0.0
O728 O 0.55915 0.9334 0.04668 0.0
O729 O 0.49428 0.93351 0.9933 0.0
C730 C 0.58205 0.95041 0.05967 0.0
O731 O 0.4871 0.97918 0.98204 0.0
O732 O 0.54493 0.04076 0.96754 0.0
O733 O 0.59086 0.04038 0.97567 0.0
C734 C 0.96836 0.57324 0.02408 0.0
C735 C 0.97628 0.56714 0.94894 0.0
C736 C 0.97023 0.4453 0.98788 0.0
Mg737 Mg 1.02066 0.57442 0.99888 0.0
O738 O 1.00628 0.53268 0.01032 0.0
Mg739 Mg 0.96414 0.50972 0.99853 0.0
Mg740 Mg 0.02606 0.50359 0.0056 0.0
O741 O 0.04564 0.47431 1.00082 0.0
Mg742 Mg 0.03117 0.43249 0.01195 0.0
Mg743 Mg 0.08778 0.49707 0.01218 0.0
C744 C 0.08191 0.56197 0.02248 0.0
C745 C 0.06771 0.53574 0.96049 0.0
O746 O 0.95359 0.54631 0.01681 0.0
O747 O 0.995 0.58746 0.02032 0.0
O748 O 0.96195 0.5409 0.95965 0.0
O749 O 1.0015 0.58314 0.95951 0.0
O750 O 0.06715 0.57985 0.01286 0.0
O751 O 0.07004 0.53249 0.02532 0.0
C752 C 0.98358 0.46996 0.05001 0.0
O753 O 1.009 0.47565 0.04362 0.0
O754 O 0.96489 0.48065 0.03609 0.0
O755 O 0.09824 0.4601 0.99424 0.0
O756 O 0.05666 0.41926 0.99042 0.0
O757 O 0.08998 0.46649 0.05118 0.0
C758 C 0.08338 0.43327 0.98683 0.0
O759 O 0.05051 0.42409 0.05139 0.0
O760 O 0.98475 0.42719 0.99753 0.0
C761 C 0.07568 0.44028 0.06195 0.0
O762 O 0.98229 0.47475 0.98554 0.0
O763 O 0.04305 0.53157 0.96772 0.0
O764 O 0.08637 0.52479 0.97407 0.0
C765 C 0.47617 0.56768 0.05013 0.0
C766 C 0.5099 0.5952 0.97776 0.0
C767 C 0.46822 0.47417 0.965 0.0
Mg768 Mg 0.53267 0.57127 0.0304 0.0
O769 O 0.50979 0.53117 0.02354 0.0
Mg770 Mg 0.47046 0.52434 1.00272 0.0
Mg771 Mg 0.52511 0.50764 0.0054 0.0
O772 O 0.54045 0.4839 0.98741 0.0
Mg773 Mg 0.51774 0.44337 0.98145 0.0
Mg774 Mg 0.57988 0.4911 0.00826 0.0
C775 C 0.58192 0.5405 0.04643 0.0
C776 C 0.57761 0.55473 0.97508 0.0
O777 O 0.46089 0.54953 0.03306 0.0
O778 O 0.5042 0.57813 0.05287 0.0
O779 O 0.48705 0.571 0.97829 0.0
O780 O 0.53167 0.59914 0.99527 0.0
O781 O 0.57305 0.56302 0.04675 0.0
O782 O 0.56623 0.51663 0.03486 0.0
C783 C 0.47264 0.46059 0.03571 0.0
O784 O 0.49817 0.46606 0.02985 0.0
O785 O 0.45812 0.47877 0.02751 0.0
O786 O 0.58946 0.46553 0.97829 0.0
O787 O 0.54601 0.43691 0.95862 0.0
O788 O 0.56357 0.4454 0.03341 0.0
C789 C 0.57402 0.44747 0.96123 0.0
O790 O 0.51923 0.41599 0.01703 0.0
O791 O 0.47729 0.45162 0.96531 0.0
C792 C 0.54102 0.42104 0.03458 0.0
O793 O 0.48393 0.49861 0.97589 0.0
O794 O 0.55209 0.5493 0.98096 0.0
O795 O 0.59205 0.53646 0.9832 0.0
C796 C 0.95599 0.56359 0.52168 0.0
C797 C 0.97309 0.56897 0.44691 0.0
C798 C 0.9778 0.4474 0.48272 0.0
Mg799 Mg 1.0133 0.57557 0.49969 0.0
O800 O 1.00245 0.53301 0.50629 0.0
Mg801 Mg 0.96215 0.50717 0.49254 0.0
Mg802 Mg 0.02708 0.50822 0.50281 0.0
O803 O 0.05192 0.48335 0.49971 0.0
Mg804 Mg 0.04131 0.44107 0.50798 0.0
Mg805 Mg 0.09173 0.50903 0.51475 0.0
C806 C 0.07654 0.56851 0.52411 0.0
C807 C 0.07239 0.54631 0.46193 0.0
O808 O 0.94486 0.53818 0.51119 0.0
O809 O 0.98281 0.5808 0.52122 0.0
O810 O 0.96032 0.54059 0.45456 0.0
O811 O 0.99565 0.58591 0.46036 0.0
O812 O 0.06027 0.58492 0.51477 0.0
O813 O 0.06696 0.53898 0.526 0.0
C814 C 0.98296 0.46964 0.54444 0.0
O815 O 1.00903 0.47787 0.53893 0.0
O816 O 0.96297 0.47767 0.52992 0.0
O817 O 0.10989 0.47795 0.4972 0.0
O818 O 0.07231 0.43485 0.48769 0.0
O819 O 0.0929 0.47651 0.553 0.0
C820 C 0.09909 0.45218 0.48726 0.0
O821 O 0.05749 0.43128 0.54774 0.0
O822 O 0.9949 0.43205 0.49245 0.0
C823 C 0.07989 0.44843 0.56112 0.0
O824 O 0.98649 0.477 0.48003 0.0
O825 O 0.04591 0.53869 0.46646 0.0
O826 O 0.09147 0.538 0.4776 0.0
C827 C 0.47146 0.07735 0.52483 0.0
C828 C 0.47647 0.06895 0.4494 0.0
C829 C 0.46943 0.94731 0.48846 0.0
Mg830 Mg 0.52221 0.0766 0.49848 0.0
O831 O 0.50761 0.03506 0.51056 0.0
Mg832 Mg 0.46513 0.01273 0.49974 0.0
Mg833 Mg 0.52631 1.00513 0.50533 0.0
O834 O 0.54496 0.97522 0.49999 0.0
Mg835 Mg 0.53026 0.93344 0.51124 0.0
Mg836 Mg 0.58743 0.99754 0.51058 0.0
C837 C 0.58319 0.06292 0.52063 0.0
C838 C 0.56672 0.03655 0.45937 0.0
O839 O 0.45611 0.05038 0.51793 0.0
O840 O 0.49799 0.09101 0.52052 0.0
O841 O 0.46215 0.04306 0.46059 0.0
O842 O 0.50207 0.0848 0.45937 0.0
O843 O 0.56872 0.08111 0.51109 0.0
O844 O 0.57099 0.03356 0.52432 0.0
C845 C 0.48559 0.97375 0.5511 0.0
O846 O 0.50994 0.97748 0.54348 0.0
O847 O 0.46704 0.98509 0.53784 0.0
O848 O 0.59664 0.96017 0.49232 0.0
O849 O 0.55475 0.91965 0.489 0.0
O850 O 0.59027 0.96694 0.54962 0.0
C851 C 0.58139 0.93339 0.48503 0.0
O852 O 0.55053 0.92486 0.55036 0.0
O853 O 0.48378 0.9289 0.49763 0.0
C854 C 0.57602 0.94081 0.56055 0.0
O855 O 0.48181 0.97674 0.48622 0.0
O856 O 0.54251 0.03279 0.46723 0.0
O857 O 0.58543 0.02524 0.47235 0.0
H858 H 0.21614 0.26255 0.31155 0.0
H859 H 0.18056 0.2421 0.34164 0.0
H860 H 0.15279 0.15304 0.31384 0.0
H861 H 0.18818 0.17347 0.28381 0.0
H862 H 0.10639 0.16808 0.32518 0.0
H863 H 0.19924 0.18748 0.40416 0.0
H864 H 0.1975 0.22082 0.3834 0.0
H865 H 0.20453 0.19082 0.37143 0.0
C866 C 0.20212 0.23871 0.31164 0.0
C867 C 0.20488 0.21953 0.29531 0.0
C868 C 0.18185 0.22709 0.32883 0.0
C869 C 0.16441 0.19595 0.33024 0.0
C870 C 0.16601 0.17719 0.31299 0.0
H871 H 0.0853 0.04705 0.42549 0.0
H872 H 0.10565 0.08714 0.39249 0.0
C873 C 0.18612 0.18891 0.29565 0.0
C874 C 0.14647 0.18201 0.35105 0.0
H875 H 0.15228 0.16087 0.41488 0.0
C876 C 0.11631 0.16695 0.34485 0.0
C877 C 0.15952 0.18067 0.37673 0.0
C878 C 0.19198 0.19558 0.38445 0.0
C879 C 0.09912 0.14936 0.36355 0.0
C880 C 0.11248 0.1468 0.3889 0.0
C881 C 0.14219 0.16326 0.39537 0.0
C882 C 0.09753 0.12284 0.40782 0.0
C883 C 0.06701 0.1326 0.35615 0.0
C884 C 0.08633 0.12986 0.42734 0.0
C885 C 0.07449 0.10683 0.44623 0.0
C886 C 0.07413 0.07683 0.44578 0.0
C887 C 0.0853 0.07004 0.42616 0.0
C888 C 0.09675 0.0928 0.40727 0.0
H889 H 0.05915 0.13975 0.33633 0.0
H890 H 0.06277 0.10751 0.358 0.0
H891 H 0.0543 0.13695 0.36923 0.0
H892 H 0.08712 0.15309 0.42812 0.0
H893 H 0.06629 0.11256 0.46141 0.0
H894 H 0.87965 0.16665 0.23791 0.0
H895 H 0.92233 0.16484 0.26849 0.0
H896 H 0.87203 0.07412 0.29864 0.0
H897 H 0.83022 0.07525 0.26711 0.0
H898 H 0.92576 0.16509 0.31513 0.0
H899 H 0.94679 0.0609 0.3045 0.0
H900 H 0.92348 0.0759 0.28047 0.0
H901 H 0.90885 0.0501 0.30716 0.0
C902 C 0.87823 0.14594 0.25051 0.0
C903 C 0.8519 0.12094 0.2501 0.0
C904 C 0.90253 0.14491 0.26799 0.0
C905 C 0.9007 0.11913 0.2857 0.0
C906 C 0.87455 0.09379 0.28465 0.0
H907 H 0.94433 0.10539 0.44046 0.0
H908 H 0.93146 0.12093 0.39576 0.0
C909 C 0.85051 0.09452 0.26676 0.0
C910 C 0.92394 0.12054 0.30773 0.0
H911 H 0.95678 0.07561 0.34839 0.0
C912 C 0.93316 0.14589 0.32198 0.0
C913 C 0.9344 0.09589 0.31657 0.0
C914 C 0.92806 0.0694 0.30112 0.0
C915 C 0.9501 0.146 0.34583 0.0
C916 C 0.95736 0.11968 0.35602 0.0
C917 C 0.95066 0.09557 0.34081 0.0
C918 C 0.9681 0.11486 0.38329 0.0
C919 C 0.95901 0.17386 0.36026 0.0
C920 C 0.99285 0.10609 0.39116 0.0
C921 C 1.00024 0.09732 0.41678 0.0
C922 C 0.9828 0.09694 0.43473 0.0
C923 C 0.95846 0.10631 0.42696 0.0
C924 C 0.95121 0.11529 0.40146 0.0
H925 H 0.9622 0.19511 0.34702 0.0
H926 H 0.94134 0.17169 0.37124 0.0
H927 H 0.97949 0.17633 0.37361 0.0
H928 H 1.00561 0.10472 0.37736 0.0
H929 H 1.01822 0.08873 0.42223 0.0
H930 H 0.7663 0.84085 0.28462 0.0
H931 H 0.78335 0.88349 0.31163 0.0
H932 H 0.86956 0.87654 0.32521 0.0
H933 H 0.85261 0.83468 0.29778 0.0
H934 H 0.80163 0.8816 0.36005 0.0
H935 H 0.89102 0.96756 0.3139 0.0
H936 H 0.86459 0.93581 0.29775 0.0
H937 H 0.89671 0.93146 0.31763 0.0
C938 C 0.78904 0.84912 0.29298 0.0
C939 C 0.80839 0.83509 0.28908 0.0
C940 C 0.79875 0.87336 0.30836 0.0
C941 C 0.82793 0.88377 0.32003 0.0
C942 C 0.84725 0.86975 0.31575 0.0
H943 H 0.91155 0.91251 0.45843 0.0
H944 H 0.87177 0.90079 0.42372 0.0
C945 C 0.83758 0.8457 0.30028 0.0
C946 C 0.83765 0.90659 0.33902 0.0
H947 H 0.8979 0.96501 0.36074 0.0
C948 C 0.82228 0.90044 0.35986 0.0
C949 C 0.86391 0.93204 0.33852 0.0
C950 C 0.87973 0.94228 0.31554 0.0
C951 C 0.83431 0.91662 0.38142 0.0
C952 C 0.86278 0.93875 0.38245 0.0
C953 C 0.87637 0.94754 0.36038 0.0
C954 C 0.88119 0.94785 0.40699 0.0
C955 C 0.81698 0.90865 0.40335 0.0
C956 C 0.89947 0.97844 0.40986 0.0
C957 C 0.92263 0.98517 0.42988 0.0
C958 C 0.92791 0.9613 0.44697 0.0
C959 C 0.90792 0.93131 0.44549 0.0
C960 C 0.8849 0.92463 0.42568 0.0
H961 H 0.79342 0.90405 0.39628 0.0
H962 H 0.81895 0.88731 0.41442 0.0
H963 H 0.82467 0.9273 0.41614 0.0
H964 H 0.89716 0.99673 0.39562 0.0
H965 H 0.93793 0.00847 0.4305 0.0
H966 H 0.17363 0.8297 0.31337 0.0
H967 H 0.15852 0.84459 0.34842 0.0
H968 H 0.16078 0.93089 0.30568 0.0
H969 H 0.17864 0.91749 0.27137 0.0
H970 H 0.18072 0.93999 0.35316 0.0
H971 H 0.07777 0.84022 0.35083 0.0
H972 H 0.10935 0.82872 0.35705 0.0
H973 H 0.10157 0.84916 0.32698 0.0
C974 C 0.17159 0.85217 0.31146 0.0
C975 C 0.17731 0.87225 0.28919 0.0
C976 C 0.16234 0.86042 0.33148 0.0
C977 C 0.15762 0.8885 0.3295 0.0
C978 C 0.16392 0.90892 0.30762 0.0
H979 H 0.04396 0.9266 0.41247 0.0
H980 H 0.06811 0.91374 0.38253 0.0
C981 C 0.17379 0.90099 0.28779 0.0
C982 C 0.14578 0.89651 0.34999 0.0
H983 H 0.08921 0.87066 0.38507 0.0
C984 C 0.16065 0.92487 0.36009 0.0
C985 C 0.1194 0.87697 0.35891 0.0
C986 C 0.10095 0.84724 0.3477 0.0
C987 C 0.14977 0.93435 0.37856 0.0
C988 C 0.1238 0.91443 0.38794 0.0
C989 C 0.10923 0.88589 0.3781 0.0
C990 C 0.10996 0.92334 0.40648 0.0
C991 C 0.16565 0.9661 0.38704 0.0
C992 C 0.12534 0.93314 0.43011 0.0
C993 C 0.11161 0.94118 0.44721 0.0
C994 C 0.08204 0.93873 0.44126 0.0
C995 C 0.06669 0.92851 0.41778 0.0
C996 C 0.08051 0.92113 0.40059 0.0
H997 H 0.17991 0.98127 0.37311 0.0
H998 H 0.15005 0.97705 0.38977 0.0
H999 H 0.17976 0.96444 0.40536 0.0
H1000 H 0.14782 0.93425 0.43548 0.0
H1001 H 0.12394 0.94875 0.46524 0.0
H1002 H 0.19293 0.81635 0.59508 0.0
H1003 H 0.14375 0.81622 0.5782 0.0
H1004 H 0.10773 0.73866 0.63144 0.0
H1005 H 0.15719 0.73902 0.64868 0.0
H1006 H 0.08602 0.7777 0.56096 0.0
H1007 H 0.09778 0.81105 0.65867 0.0
H1008 H 0.12803 0.80725 0.64695 0.0
H1009 H 0.09798 0.77365 0.65509 0.0
C1010 C 0.17448 0.79835 0.60234 0.0
C1011 C 0.17873 0.77825 0.62355 0.0
C1012 C 0.14634 0.79829 0.59274 0.0
C1013 C 0.12228 0.77804 0.60419 0.0
C1014 C 0.12613 0.75491 0.6228 0.0
H1015 H 0.99418 0.86745 0.54261 0.0
H1016 H 1.00397 0.8225 0.56616 0.0
C1017 C 0.15431 0.75511 0.63255 0.0
C1018 C 0.09543 0.78596 0.60031 0.0
H1019 H 0.06677 0.82812 0.62709 0.0
C1020 C 0.08084 0.78771 0.57556 0.0
C1021 C 0.08882 0.79891 0.61957 0.0
C1022 C 0.10393 0.79782 0.64657 0.0
C1023 C 0.06237 0.80517 0.56885 0.0
C1024 C 0.05829 0.82085 0.58757 0.0
C1025 C 0.07008 0.81604 0.6129 0.0
C1026 C 0.04882 0.84778 0.58015 0.0
C1027 C 0.05007 0.80948 0.54128 0.0
C1028 C 0.07005 0.87709 0.58213 0.0
C1029 C 0.06461 0.90281 0.5688 0.0
C1030 C 0.03787 0.89946 0.55317 0.0
C1031 C 1.01532 0.87064 0.55397 0.0
C1032 C 1.02081 0.84489 0.56739 0.0
H1033 H 0.05674 0.79692 0.52897 0.0
H1034 H 0.02585 0.80101 0.53926 0.0
H1035 H 0.0575 0.83424 0.5343 0.0
H1036 H 0.09178 0.87978 0.59215 0.0
H1037 H 0.08227 0.92472 0.56897 0.0
H1038 H 0.22836 0.14839 0.73937 0.0
H1039 H 0.20444 0.10804 0.71038 0.0
H1040 H 0.22518 0.17579 0.64638 0.0
H1041 H 0.24887 0.21573 0.67478 0.0
H1042 H 0.15732 0.10352 0.67423 0.0
H1043 H 0.2496 0.10988 0.62736 0.0
H1044 H 0.25488 0.12685 0.65661 0.0
H1045 H 0.24749 0.14737 0.62645 0.0
C1046 C 0.22787 0.15463 0.71913 0.0
C1047 C 0.2403 0.18544 0.70949 0.0
C1048 C 0.21438 0.13151 0.70259 0.0
C1049 C 0.21354 0.13875 0.67618 0.0
C1050 C 0.22628 0.1694 0.66665 0.0
H1051 H 0.11643 0.10116 0.53796 0.0
H1052 H 0.15494 0.11532 0.57392 0.0
C1053 C 0.23962 0.19238 0.68304 0.0
C1054 C 0.19709 0.11527 0.65813 0.0
H1055 H 0.20124 0.09229 0.6021 0.0
C1056 C 0.16705 0.10025 0.65888 0.0
C1057 C 0.20983 0.11082 0.63816 0.0
C1058 C 0.2423 0.12436 0.63727 0.0
C1059 C 0.14899 0.08326 0.63902 0.0
C1060 C 0.16139 0.08103 0.61799 0.0
C1061 C 0.19175 0.09411 0.61817 0.0
C1062 C 0.14267 0.06995 0.59412 0.0
C1063 C 0.11644 0.06988 0.6397 0.0
C1064 C 0.12409 0.03927 0.59284 0.0
C1065 C 0.10215 0.031 0.57203 0.0
C1066 C 0.09843 0.05344 0.55247 0.0
C1067 C 0.11877 0.08343 0.5528 0.0
C1068 C 0.14077 0.09156 0.57337 0.0
H1069 H 0.11006 0.0761 0.65631 0.0
H1070 H 0.10458 0.07799 0.6221 0.0
H1071 H 0.10925 0.04447 0.64067 0.0
H1072 H 0.1254 0.02219 0.60859 0.0
H1073 H 0.08663 0.00776 0.57234 0.0
H1074 H 0.84132 0.08722 0.72477 0.0
H1075 H 0.85859 0.07337 0.69006 0.0
H1076 H 0.8949 0.16906 0.66346 0.0
H1077 H 0.87838 0.18322 0.69834 0.0
H1078 H 0.86014 0.12841 0.62466 0.0
H1079 H 0.94606 0.08856 0.68505 0.0
H1080 H 0.91008 0.07234 0.69435 0.0
H1081 H 0.93009 0.11255 0.69608 0.0
C1082 C 0.85328 0.10536 0.71173 0.0
C1083 C 0.85847 0.13636 0.71443 0.0
C1084 C 0.86301 0.09738 0.69185 0.0
C1085 C 0.87814 0.12021 0.6743 0.0
C1086 C 0.88317 0.1511 0.67677 0.0
H1087 H 0.98678 0.11342 0.56893 0.0
H1088 H 0.96497 0.12586 0.60109 0.0
C1089 C 0.87358 0.15912 0.69668 0.0
C1090 C 0.88895 0.11205 0.65341 0.0
H1091 H 0.93869 0.08288 0.64126 0.0
C1092 C 0.87724 0.11835 0.62824 0.0
C1093 C 0.91143 0.0992 0.65819 0.0
C1094 C 0.92539 0.09292 0.68484 0.0
C1095 C 0.8874 0.11204 0.60768 0.0
C1096 C 0.90974 0.099 0.61249 0.0
C1097 C 0.92146 0.09275 0.63766 0.0
C1098 C 0.92204 0.09254 0.59171 0.0
C1099 C 0.87469 0.12 0.58098 0.0
C1100 C 0.90502 0.06979 0.5756 0.0
C1101 C 0.91743 0.06252 0.55712 0.0
C1102 C 0.94713 0.07785 0.55446 0.0
C1103 C 0.96386 0.10112 0.57033 0.0
C1104 C 0.95146 0.10825 0.58881 0.0
H1105 H 0.86184 0.13528 0.58043 0.0
H1106 H 0.89228 0.13143 0.56889 0.0
H1107 H 0.85997 0.09859 0.57266 0.0
H1108 H 0.88234 0.05713 0.57774 0.0
H1109 H 0.9039 0.04442 0.54533 0.0
H1110 H 0.84539 0.75029 0.70734 0.0
H1111 H 0.88047 0.77221 0.67676 0.0
H1112 H 0.88861 0.86336 0.69069 0.0
H1113 H 0.85416 0.84147 0.72129 0.0
H1114 H 0.87165 0.8037 0.63428 0.0
H1115 H 0.97206 0.87696 0.68757 0.0
H1116 H 0.94341 0.8482 0.70334 0.0
H1117 H 0.9416 0.88603 0.69305 0.0
C1118 C 0.8555 0.775 0.70437 0.0
C1119 C 0.84785 0.7943 0.71715 0.0
C1120 C 0.87546 0.78749 0.68693 0.0
C1121 C 0.88778 0.81948 0.68182 0.0
C1122 C 0.88044 0.83868 0.69503 0.0
H1123 H 0.91135 0.93231 0.54814 0.0
H1124 H 0.89605 0.89302 0.58284 0.0
C1125 C 0.86076 0.82618 0.71264 0.0
C1126 C 0.9048 0.83291 0.66028 0.0
H1127 H 0.96281 0.89405 0.64235 0.0
C1128 C 0.892 0.82295 0.63619 0.0
C1129 C 0.93173 0.85755 0.66265 0.0
C1130 C 0.9481 0.86751 0.68814 0.0
C1131 C 0.90401 0.83868 0.61426 0.0
C1132 C 0.92897 0.86552 0.61643 0.0
C1133 C 0.94329 0.87382 0.64064 0.0
C1134 C 0.93823 0.88732 0.59404 0.0
C1135 C 0.88922 0.82696 0.58891 0.0
C1136 C 0.96725 0.89768 0.58905 0.0
C1137 C 0.97622 0.92062 0.56933 0.0
C1138 C 0.95634 0.93361 0.55436 0.0
C1139 C 0.92723 0.92277 0.55921 0.0
C1140 C 0.91834 0.90001 0.57891 0.0
H1141 H 0.87851 0.80159 0.5909 0.0
H1142 H 0.87195 0.83709 0.58123 0.0
H1143 H 0.90496 0.83318 0.57502 0.0
H1144 H 0.98305 0.88845 0.60071 0.0
H1145 H 0.9989 0.92888 0.56639 0.0
H1146 H 0.32346 0.14082 0.17497 0.0
H1147 H 0.35664 0.12853 0.15322 0.0
H1148 H 0.3044 0.13922 0.08134 0.0
H1149 H 0.2718 0.15263 0.10276 0.0
H1150 H 0.34405 0.08054 0.12473 0.0
H1151 H 0.38621 0.19095 0.06622 0.0
H1152 H 0.36662 0.18696 0.09246 0.0
H1153 H 0.34703 0.17499 0.06209 0.0
C1154 C 0.31933 0.14113 0.15448 0.0
C1155 C 0.29495 0.14778 0.14063 0.0
C1156 C 0.3382 0.13386 0.1421 0.0
C1157 C 0.33324 0.13331 0.11561 0.0
C1158 C 0.30901 0.14005 0.10173 0.0
H1159 H 0.39887 0.03837 0.02718 0.0
H1160 H 0.36932 0.05464 0.04997 0.0
C1161 C 0.29017 0.14734 0.11407 0.0
C1162 C 0.35263 0.12442 0.10259 0.0
H1163 H 0.39588 0.14842 0.05541 0.0
C1164 C 0.35552 0.09545 0.10967 0.0
C1165 C 0.3679 0.14402 0.08316 0.0
C1166 C 0.36707 0.17608 0.07568 0.0
C1167 C 0.37274 0.0853 0.0975 0.0
C1168 C 0.387 0.10438 0.07732 0.0
C1169 C 0.38464 0.13363 0.07064 0.0
C1170 C 0.40479 0.09463 0.06314 0.0
C1171 C 0.37583 0.05441 0.10664 0.0
C1172 C 0.43437 0.11218 0.06226 0.0
C1173 C 0.45128 0.10312 0.04902 0.0
C1174 C 0.43897 0.07631 0.03628 0.0
C1175 C 0.40919 0.059 0.0369 0.0
C1176 C 0.39227 0.06816 0.05009 0.0
H1177 H 0.3706 0.04673 0.12632 0.0
H1178 H 0.3604 0.03709 0.09411 0.0
H1179 H 0.39833 0.055 0.10607 0.0
H1180 H 0.44448 0.13277 0.07207 0.0
H1181 H 0.4741 0.11708 0.04897 0.0
H1182 H 0.81479 0.30451 0.2003 0.0
H1183 H 0.84956 0.33367 0.17078 0.0
H1184 H 0.92068 0.34531 0.23235 0.0
H1185 H 0.88571 0.31524 0.26195 0.0
H1186 H 0.88778 0.39616 0.17761 0.0
H1187 H 0.95595 0.32429 0.17755 0.0
H1188 H 0.91707 0.30516 0.17451 0.0
H1189 H 0.93656 0.32069 0.20374 0.0
C1190 C 0.83792 0.31247 0.2074 0.0
C1191 C 0.84768 0.30673 0.23325 0.0
C1192 C 0.85781 0.32928 0.19054 0.0
C1193 C 0.88793 0.34117 0.19912 0.0
C1194 C 0.89772 0.33565 0.22505 0.0
H1195 H 1.01669 0.45706 0.09526 0.0
H1196 H 0.99776 0.42756 0.1344 0.0
C1197 C 0.87775 0.31861 0.24198 0.0
C1198 C 0.90813 0.36192 0.1812 0.0
H1199 H 0.96043 0.36585 0.14569 0.0
C1200 C 0.90394 0.38965 0.17093 0.0
C1201 C 0.9298 0.35398 0.17278 0.0
C1202 C 0.93534 0.32451 0.18279 0.0
C1203 C 0.91966 0.40881 0.15181 0.0
C1204 C 0.93965 0.39971 0.14196 0.0
C1205 C 0.94512 0.37287 0.15316 0.0
C1206 C 0.95216 0.41593 0.11828 0.0
C1207 C 0.91424 0.43848 0.14201 0.0
C1208 C 0.93305 0.41815 0.09599 0.0
C1209 C 0.94368 0.4349 0.07397 0.0
C1210 C 0.97388 0.44975 0.0733 0.0
C1211 C 0.99333 0.44611 0.09517 0.0
C1212 C 0.98251 0.42933 0.11753 0.0
H1213 H 0.90694 0.44718 0.15672 0.0
H1214 H 0.93418 0.45648 0.13578 0.0
H1215 H 0.89664 0.43438 0.12554 0.0
H1216 H 0.90964 0.40723 0.09571 0.0
H1217 H 0.92797 0.43649 0.0574 0.0
H1218 H 0.75618 0.83095 0.224 0.0
H1219 H 0.73273 0.86532 0.19684 0.0
H1220 H 0.66056 0.78662 0.1712 0.0
H1221 H 0.68398 0.7525 0.1979 0.0
H1222 H 0.71215 0.87029 0.14232 0.0
H1223 H 0.62044 0.83625 0.19864 0.0
H1224 H 0.65383 0.82832 0.2104 0.0
H1225 H 0.62625 0.80448 0.1884 0.0
C1226 C 0.73562 0.82101 0.21217 0.0
C1227 C 0.72229 0.78885 0.21278 0.0
C1228 C 0.72205 0.84071 0.19675 0.0
C1229 C 0.6945 0.82876 0.18206 0.0
C1230 C 0.6815 0.79666 0.1825 0.0
H1231 H 0.56364 0.89017 0.08044 0.0
H1232 H 0.59179 0.86329 0.1105 0.0
C1233 C 0.69505 0.77709 0.19772 0.0
C1234 C 0.67885 0.84938 0.1666 0.0
H1235 H 0.61504 0.86499 0.15882 0.0
C1236 C 0.69106 0.86937 0.14611 0.0
C1237 C 0.65119 0.84832 0.17128 0.0
C1238 C 0.6372 0.82842 0.1935 0.0
C1239 C 0.67604 0.88724 0.12976 0.0
C1240 C 0.64813 0.88591 0.13425 0.0
C1241 C 0.63626 0.86629 0.15509 0.0
C1242 C 0.63032 0.90344 0.11704 0.0
C1243 C 0.68977 0.90634 0.10715 0.0
C1244 C 0.6417 0.93552 0.1111 0.0
C1245 C 0.62547 0.95115 0.09375 0.0
C1246 C 0.59714 0.93529 0.08191 0.0
C1247 C 0.58523 0.90346 0.08901 0.0
C1248 C 0.60149 0.88789 0.10625 0.0
H1249 H 0.70666 0.8984 0.10239 0.0
H1250 H 0.67307 0.90563 0.09018 0.0
H1251 H 0.70057 0.93054 0.11157 0.0
H1252 H 0.66341 0.94855 0.1196 0.0
H1253 H 0.63561 0.97557 0.08894 0.0
H1254 H 0.23892 0.75189 0.16106 0.0
H1255 H 0.2205 0.72044 0.12516 0.0
H1256 H 0.23913 0.64493 0.17241 0.0
H1257 H 0.25604 0.67524 0.20847 0.0
H1258 H 0.24416 0.68582 0.10036 0.0
H1259 H 0.15055 0.61181 0.15063 0.0
H1260 H 0.17456 0.64855 0.16064 0.0
H1261 H 0.18595 0.61555 0.16819 0.0
C1262 C 0.23892 0.72855 0.16386 0.0
C1263 C 0.24808 0.71584 0.18789 0.0
C1264 C 0.22877 0.71077 0.14325 0.0
C1265 C 0.22804 0.68025 0.14635 0.0
C1266 C 0.23905 0.66827 0.16981 0.0
H1267 H 0.11746 0.53494 0.05459 0.0
H1268 H 0.162 0.56173 0.08172 0.0
C1269 C 0.24871 0.68575 0.19043 0.0
C1270 C 0.21319 0.65991 0.12596 0.0
H1271 H 0.15298 0.59772 0.11147 0.0
C1272 C 0.22433 0.66639 0.10276 0.0
C1273 C 0.18742 0.63456 0.12928 0.0
C1274 C 0.17371 0.62726 0.15342 0.0
C1275 C 0.20999 0.6483 0.08255 0.0
C1276 C 0.1838 0.62346 0.0857 0.0
C1277 C 0.17332 0.61648 0.10921 0.0
C1278 C 0.16421 0.60714 0.06427 0.0
C1279 C 0.22276 0.65615 0.05798 0.0
C1280 C 0.15174 0.62369 0.04452 0.0
C1281 C 0.12633 0.60848 0.02902 0.0
C1282 C 0.11278 0.57649 0.03322 0.0
C1283 C 0.12717 0.55963 0.05104 0.0
C1284 C 0.15269 0.5749 0.06653 0.0
H1285 H 0.24689 0.6673 0.06135 0.0
H1286 H 0.21736 0.63542 0.0479 0.0
H1287 H 0.21367 0.67261 0.04547 0.0
H1288 H 0.15992 0.64855 0.04262 0.0
H1289 H 0.11604 0.62211 0.01516 0.0
H1290 H 0.26649 0.78169 0.83461 0.0
H1291 H 0.28609 0.8033 0.87529 0.0
H1292 H 0.37375 0.82785 0.85766 0.0
H1293 H 0.35434 0.80462 0.81765 0.0
H1294 H 0.37049 0.80562 0.90561 0.0
H1295 H 0.29189 0.85421 0.88281 0.0
H1296 H 0.31601 0.86933 0.85905 0.0
H1297 H 0.31601 0.89339 0.88212 0.0
C1298 C 0.28996 0.79161 0.83949 0.0
C1299 C 0.30898 0.7919 0.82292 0.0
C1300 C 0.30107 0.80406 0.86266 0.0
C1301 C 0.3313 0.8178 0.86919 0.0
C1302 C 0.35031 0.8174 0.85291 0.0
H1303 H 0.44668 0.96473 0.94077 0.0
H1304 H 0.40327 0.92951 0.91806 0.0
C1305 C 0.33924 0.80429 0.83003 0.0
C1306 C 0.34357 0.83355 0.89254 0.0
H1307 H 0.34826 0.89628 0.92009 0.0
C1308 C 0.36547 0.82526 0.90903 0.0
C1309 C 0.33669 0.85901 0.89686 0.0
C1310 C 0.31405 0.86974 0.87921 0.0
C1311 C 0.38254 0.84326 0.92847 0.0
C1312 C 0.37636 0.86942 0.93234 0.0
C1313 C 0.3528 0.87618 0.91713 0.0
C1314 C 0.39713 0.8928 0.94868 0.0
C1315 C 0.4085 0.83543 0.94306 0.0
C1316 C 0.40677 0.88473 0.97404 0.0
C1317 C 0.43215 0.90451 0.98671 0.0
C1318 C 0.44731 0.933 0.97446 0.0
C1319 C 0.43533 0.94277 0.95049 0.0
C1320 C 0.41052 0.92263 0.93754 0.0
H1321 H 0.41325 0.81821 0.93414 0.0
H1322 H 0.4284 0.85626 0.94435 0.0
H1323 H 0.40393 0.82561 0.96258 0.0
H1324 H 0.39604 0.8623 0.98333 0.0
H1325 H 0.44088 0.89685 0.00545 0.0
H1326 H 0.13314 0.24354 0.87488 0.0
H1327 H 0.12133 0.2781 0.89728 0.0
H1328 H 0.2063 0.34635 0.89043 0.0
H1329 H 0.21846 0.31174 0.86811 0.0
H1330 H 0.15116 0.30303 0.943 0.0
H1331 H 0.15027 0.39475 0.86417 0.0
H1332 H 0.14872 0.35708 0.85881 0.0
H1333 H 0.18272 0.38452 0.87112 0.0
C1334 C 0.14941 0.26584 0.87821 0.0
C1335 C 0.17679 0.2748 0.86972 0.0
C1336 C 0.14256 0.28564 0.89092 0.0
C1337 C 0.1628 0.31492 0.89532 0.0
C1338 C 0.19012 0.32409 0.88682 0.0
H1339 H 0.13874 0.45504 0.97293 0.0
H1340 H 0.16106 0.42804 0.95177 0.0
C1341 C 0.19703 0.30426 0.87407 0.0
C1342 C 0.15535 0.3352 0.90956 0.0
H1343 H 0.14105 0.4022 0.90375 0.0
C1344 C 0.14911 0.32479 0.93445 0.0
C1345 C 0.15294 0.36373 0.89848 0.0
C1346 C 0.15879 0.37572 0.87162 0.0
C1347 C 0.13997 0.34179 0.94838 0.0
C1348 C 0.13647 0.36973 0.93697 0.0
C1349 C 0.14371 0.38074 0.91242 0.0
C1350 C 0.12323 0.3865 0.94957 0.0
C1351 C 0.13398 0.32959 0.97518 0.0
C1352 C 0.09445 0.37231 0.95494 0.0
C1353 C 0.08167 0.38758 0.96693 0.0
C1354 C 0.09731 0.41755 0.97379 0.0
C1355 C 0.12609 0.43195 0.96805 0.0
C1356 C 0.13887 0.41659 0.95593 0.0
H1357 H 0.14566 0.31336 0.98357 0.0
H1358 H 0.14059 0.34856 0.98754 0.0
H1359 H 0.1102 0.31704 0.97504 0.0
H1360 H 0.08178 0.34934 0.94975 0.0
H1361 H 0.05945 0.37572 0.97085 0.0
H1362 H 0.67341 0.1889 0.7535 0.0
H1363 H 0.64407 0.15725 0.78633 0.0
H1364 H 0.71365 0.19955 0.84437 0.0
H1365 H 0.74303 0.23073 0.81165 0.0
H1366 H 0.69129 0.13908 0.85625 0.0
H1367 H 0.60048 0.18511 0.82826 0.0
H1368 H 0.60699 0.16884 0.80285 0.0
H1369 H 0.63465 0.20227 0.81553 0.0
C1370 C 0.68245 0.1912 0.7733 0.0
C1371 C 0.71075 0.21176 0.78 0.0
C1372 C 0.66558 0.17336 0.79205 0.0
C1373 C 0.67636 0.17638 0.81789 0.0
C1374 C 0.70477 0.19681 0.82459 0.0
H1375 H 0.57591 0.1085 0.94608 0.0
H1376 H 0.60054 0.1401 0.91029 0.0
C1377 C 0.7217 0.21449 0.80584 0.0
C1378 C 0.65825 0.1581 0.83798 0.0
H1379 H 0.59232 0.1412 0.85865 0.0
C1380 C 0.66969 0.13964 0.85679 0.0
C1381 C 0.63025 0.15922 0.83904 0.0
C1382 C 0.61747 0.18017 0.8205 0.0
C1383 C 0.6538 0.12193 0.87631 0.0
C1384 C 0.6252 0.12187 0.87668 0.0
C1385 C 0.61399 0.14082 0.85818 0.0
C1386 C 0.60685 0.10239 0.89625 0.0
C1387 C 0.66819 0.10397 0.89666 0.0
C1388 C 0.60085 0.07052 0.89949 0.0
C1389 C 0.58705 0.05268 0.91988 0.0
C1390 C 0.57815 0.06613 0.93702 0.0
C1391 C 0.58212 0.09757 0.93281 0.0
C1392 C 0.59638 0.11561 0.91251 0.0
H1393 H 0.6924 0.11365 0.89801 0.0
H1394 H 0.66198 0.10371 0.91552 0.0
H1395 H 0.66116 0.07993 0.89191 0.0
H1396 H 0.6079 0.05959 0.88682 0.0
H1397 H 0.58443 0.02849 0.92292 0.0
H1398 H 0.77953 0.66363 0.81138 0.0
H1399 H 0.81427 0.64141 0.83762 0.0
H1400 H 0.8859 0.71941 0.81333 0.0
H1401 H 0.85087 0.74157 0.78647 0.0
H1402 H 0.85967 0.62654 0.81922 0.0
H1403 H 0.90771 0.70928 0.89269 0.0
H1404 H 0.87012 0.70009 0.87814 0.0
H1405 H 0.89903 0.7233 0.86021 0.0
C1406 C 0.80269 0.67637 0.81186 0.0
C1407 C 0.81222 0.70484 0.79716 0.0
C1408 C 0.82263 0.66351 0.82688 0.0
C1409 C 0.85296 0.67861 0.82788 0.0
C1410 C 0.86271 0.7073 0.81338 0.0
H1411 H 0.99657 0.62495 0.92308 0.0
H1412 H 0.96855 0.6515 0.89217 0.0
C1413 C 0.84262 0.72014 0.79807 0.0
C1414 C 0.87386 0.66339 0.84319 0.0
H1415 H 0.92379 0.66736 0.89715 0.0
C1416 C 0.87382 0.63565 0.83616 0.0
C1417 C 0.89257 0.67495 0.86537 0.0
C1418 C 0.89258 0.70354 0.87478 0.0
C1419 C 0.89171 0.61943 0.85047 0.0
C1420 C 0.90984 0.63054 0.87313 0.0
C1421 C 0.91022 0.65859 0.87988 0.0
C1422 C 0.92779 0.61316 0.89048 0.0
C1423 C 0.89125 0.59074 0.84077 0.0
C1424 C 0.91482 0.58233 0.9 0.0
C1425 C 0.931 0.56688 0.91757 0.0
C1426 C 0.96075 0.58174 0.92659 0.0
C1427 C 0.97391 0.61238 0.91658 0.0
C1428 C 0.95771 0.6278 0.89893 0.0
H1429 H 0.88485 0.59119 0.81986 0.0
H1430 H 0.91291 0.58774 0.84549 0.0
H1431 H 0.87488 0.57051 0.84958 0.0
H1432 H 0.89175 0.57039 0.89461 0.0
H1433 H 0.9197 0.54356 0.92492 0.0
H1434 H 0.20295 0.27092 0.22708 0.0
H1435 H 0.1683 0.29208 0.19847 0.0
H1436 H 0.2406 0.36996 0.17491 0.0
H1437 H 0.27482 0.34821 0.20223 0.0
H1438 H 0.15521 0.34242 0.1962 0.0
H1439 H 0.19798 0.3504 0.10683 0.0
H1440 H 0.20974 0.33031 0.13559 0.0
H1441 H 0.22645 0.37134 0.12969 0.0
C1442 C 0.21139 0.2921 0.21522 0.0
C1443 C 0.24181 0.30722 0.21629 0.0
C1444 C 0.19152 0.30447 0.19902 0.0
C1445 C 0.20151 0.33247 0.18366 0.0
C1446 C 0.23192 0.34785 0.1855 0.0
H1447 H 0.13284 0.4635 0.08451 0.0
H1448 H 0.16102 0.43666 0.11468 0.0
C1449 C 0.25162 0.33543 0.2014 0.0
C1450 C 0.18059 0.34643 0.16652 0.0
H1451 H 0.16821 0.38113 0.10658 0.0
C1452 C 0.15792 0.35048 0.17653 0.0
C1453 C 0.18359 0.35713 0.14061 0.0
C1454 C 0.20556 0.35177 0.1275 0.0
C1455 C 0.13931 0.3657 0.16189 0.0
C1456 C 0.14309 0.37729 0.13633 0.0
C1457 C 0.16531 0.37271 0.12619 0.0
C1458 C 0.12468 0.39452 0.11977 0.0
C1459 C 0.11625 0.37015 0.17415 0.0
C1460 C 0.09442 0.38029 0.11259 0.0
C1461 C 0.07805 0.39569 0.0951 0.0
C1462 C 0.09138 0.42591 0.08428 0.0
C1463 C 0.12146 0.44046 0.09238 0.0
C1464 C 0.13781 0.42497 0.10963 0.0
H1465 H 0.11991 0.36575 0.19515 0.0
H1466 H 0.11575 0.39384 0.16912 0.0
H1467 H 0.0945 0.35396 0.16707 0.0
H1468 H 0.0836 0.35674 0.1197 0.0
H1469 H 0.05513 0.38339 0.0893 0.0
H1470 H 0.23628 0.73522 0.81186 0.0
H1471 H 0.20018 0.71138 0.84108 0.0
H1472 H 0.16381 0.63151 0.79929 0.0
H1473 H 0.19951 0.65586 0.76948 0.0
H1474 H 0.12052 0.64815 0.81603 0.0
H1475 H 0.20964 0.64175 0.89391 0.0
H1476 H 0.21303 0.67958 0.87887 0.0
H1477 H 0.21555 0.65139 0.86112 0.0
C1478 C 0.22012 0.71305 0.8084 0.0
C1479 C 0.22037 0.69775 0.78797 0.0
C1480 C 0.19964 0.6992 0.82536 0.0
C1481 C 0.17935 0.66949 0.82256 0.0
C1482 C 0.17911 0.65449 0.8018 0.0
H1483 H 0.10051 0.52586 0.93011 0.0
H1484 H 0.12402 0.56031 0.89564 0.0
C1485 C 0.19957 0.66836 0.78484 0.0
C1486 C 0.15999 0.65292 0.84224 0.0
H1487 H 0.16168 0.62138 0.90389 0.0
C1488 C 0.12946 0.64253 0.83533 0.0
C1489 C 0.17168 0.64541 0.8674 0.0
C1490 C 0.20424 0.65484 0.87583 0.0
C1491 C 0.11042 0.62439 0.85276 0.0
C1492 C 0.12219 0.61651 0.87774 0.0
C1493 C 0.15265 0.62757 0.88478 0.0
C1494 C 0.10397 0.59418 0.89622 0.0
C1495 C 0.07796 0.61267 0.84413 0.0
C1496 C 0.08391 0.60115 0.9076 0.0
C1497 C 0.07007 0.58112 0.92746 0.0
C1498 C 0.07641 0.55407 0.93632 0.0
C1499 C 0.09526 0.54658 0.92387 0.0
C1500 C 0.10881 0.56632 0.90415 0.0
H1501 H 0.07252 0.61784 0.82336 0.0
H1502 H 0.06888 0.58746 0.84898 0.0
H1503 H 0.06708 0.62353 0.85419 0.0
H1504 H 0.08 0.62266 0.90196 0.0
H1505 H 0.05592 0.58768 0.93684 0.0
H1506 H 0.29623 0.18281 0.78121 0.0
H1507 H 0.31941 0.14908 0.80982 0.0
H1508 H 0.38858 0.22884 0.83761 0.0
H1509 H 0.36507 0.26205 0.81006 0.0
H1510 H 0.37159 0.14192 0.81273 0.0
H1511 H 0.37075 0.18132 0.90392 0.0
H1512 H 0.34974 0.19082 0.87491 0.0
H1513 H 0.38788 0.21308 0.8823 0.0
C1514 C 0.3159 0.19302 0.79401 0.0
C1515 C 0.32819 0.2252 0.79396 0.0
C1516 C 0.32941 0.17372 0.8102 0.0
C1517 C 0.35564 0.18611 0.82662 0.0
C1518 C 0.36797 0.21829 0.82606 0.0
H1519 H 0.4897 0.13039 0.9285 0.0
H1520 H 0.46061 0.1561 0.89824 0.0
C1521 C 0.35451 0.2374 0.81009 0.0
C1522 C 0.37106 0.16602 0.8435 0.0
H1523 H 0.4045 0.15525 0.90423 0.0
C1524 C 0.37839 0.1446 0.8328 0.0
C1525 C 0.38016 0.16909 0.86988 0.0
C1526 C 0.37146 0.18959 0.88348 0.0
C1527 C 0.39532 0.12743 0.84731 0.0
C1528 C 0.40526 0.13143 0.87342 0.0
C1529 C 0.39736 0.15227 0.88422 0.0
C1530 C 0.42415 0.11474 0.88992 0.0
C1531 C 0.4033 0.10586 0.83436 0.0
C1532 C 0.41393 0.08256 0.89528 0.0
C1533 C 0.43066 0.06759 0.91279 0.0
C1534 C 0.45821 0.08433 0.92547 0.0
C1535 C 0.46883 0.11642 0.91918 0.0
C1536 C 0.45203 0.13133 0.90187 0.0
H1537 H 0.39945 0.11009 0.81335 0.0
H1538 H 0.42661 0.10812 0.84035 0.0
H1539 H 0.38975 0.08186 0.83988 0.0
H1540 H 0.39242 0.06904 0.88674 0.0
H1541 H 0.42137 0.04299 0.91718 0.0
H1542 H 0.80602 0.26465 0.842 0.0
H1543 H 0.82429 0.29387 0.87912 0.0
H1544 H 0.81725 0.37511 0.83261 0.0
H1545 H 0.8004 0.34671 0.79539 0.0
H1546 H 0.87052 0.38431 0.85845 0.0
H1547 H 0.78834 0.32837 0.92412 0.0
H1548 H 0.8009 0.30174 0.9131 0.0
H1549 H 0.78096 0.32231 0.89084 0.0
C1550 C 0.80837 0.28872 0.83967 0.0
C1551 C 0.80232 0.30343 0.8156 0.0
C1552 C 0.81828 0.30525 0.861 0.0
C1553 C 0.82169 0.33656 0.85866 0.0
C1554 C 0.81457 0.35093 0.83484 0.0
H1555 H 0.93384 0.47413 0.95929 0.0
H1556 H 0.88974 0.44983 0.93058 0.0
C1557 C 0.80505 0.33459 0.81354 0.0
C1558 C 0.83642 0.35536 0.8801 0.0
H1559 H 0.83572 0.36053 0.94254 0.0
C1560 C 0.8626 0.37955 0.87669 0.0
C1561 C 0.82602 0.34895 0.90384 0.0
C1562 C 0.79735 0.32411 0.90817 0.0
C1563 C 0.87954 0.39654 0.89671 0.0
C1564 C 0.86968 0.38954 0.92074 0.0
C1565 C 0.84298 0.36602 0.924 0.0
C1566 C 0.88912 0.40354 0.94317 0.0
C1567 C 0.90874 0.42056 0.8923 0.0
C1568 C 0.90163 0.38533 0.96119 0.0
C1569 C 0.92663 0.39906 0.97775 0.0
C1570 C 0.93957 0.43124 0.97636 0.0
C1571 C 0.92475 0.44931 0.96054 0.0
C1572 C 0.89955 0.43547 0.94409 0.0
H1573 H 0.91514 0.41932 0.87386 0.0
H1574 H 0.90756 0.44375 0.89222 0.0
H1575 H 0.92619 0.41789 0.90769 0.0
H1576 H 0.89369 0.3606 0.96092 0.0
H1577 H 0.93709 0.38441 0.99012 0.0
H1578 H 0.72984 0.87339 0.8352 0.0
H1579 H 0.69765 0.88762 0.85665 0.0
H1580 H 0.75164 0.88047 0.92824 0.0
H1581 H 0.78329 0.86515 0.90715 0.0
H1582 H 0.69297 0.8541 0.93201 0.0
H1583 H 0.71753 0.97141 0.88201 0.0
H1584 H 0.70416 0.94125 0.86129 0.0
H1585 H 0.73884 0.94755 0.88106 0.0
C1586 C 0.73468 0.87448 0.85556 0.0
C1587 C 0.75933 0.86837 0.86941 0.0
C1588 C 0.71644 0.88299 0.86774 0.0
C1589 C 0.72257 0.88573 0.89397 0.0
C1590 C 0.74664 0.87879 0.90794 0.0
H1591 H 0.65629 0.98193 0.98045 0.0
H1592 H 0.68613 0.96465 0.95878 0.0
C1593 C 0.76484 0.87025 0.89581 0.0
C1594 C 0.70402 0.89584 0.90697 0.0
H1595 H 0.68039 0.95552 0.90852 0.0
C1596 C 0.6902 0.87627 0.92688 0.0
C1597 C 0.70079 0.92497 0.90051 0.0
C1598 C 0.71631 0.94768 0.88022 0.0
C1599 C 0.67303 0.8849 0.94034 0.0
C1600 C 0.66914 0.91368 0.93342 0.0
C1601 C 0.68319 0.93337 0.91367 0.0
C1602 C 0.65089 0.92397 0.94662 0.0
C1603 C 0.65977 0.86338 0.96223 0.0
C1604 C 0.62105 0.90707 0.94674 0.0
C1605 C 0.60394 0.91679 0.95919 0.0
C1606 C 0.61622 0.94385 0.97163 0.0
C1607 C 0.64607 0.96096 0.97116 0.0
C1608 C 0.66318 0.95114 0.95875 0.0
H1609 H 0.67115 0.84658 0.96939 0.0
H1610 H 0.66055 0.87627 0.97817 0.0
H1611 H 0.63654 0.85031 0.95577 0.0
H1612 H 0.61092 0.88642 0.93702 0.0
H1613 H 0.58101 0.90312 0.95894 0.0
H1614 H 0.86802 0.75555 0.09801 0.0
H1615 H 0.88123 0.71957 0.07861 0.0
H1616 H 0.88973 0.66833 0.15157 0.0
H1617 H 0.87824 0.70521 0.17141 0.0
H1618 H 0.93495 0.6778 0.12836 0.0
H1619 H 0.83489 0.63413 0.06026 0.0
H1620 H 0.85034 0.6752 0.05612 0.0
H1621 H 0.83668 0.65647 0.08538 0.0
C1622 C 0.87281 0.73673 0.11 0.0
C1623 C 0.87205 0.73341 0.13634 0.0
C1624 C 0.87988 0.71582 0.09877 0.0
C1625 C 0.88589 0.69081 0.1135 0.0
C1626 C 0.88489 0.68725 0.13974 0.0
H1627 H 0.91568 0.549 0.0429 0.0
H1628 H 0.89438 0.57494 0.06611 0.0
C1629 C 0.87808 0.70828 0.15104 0.0
C1630 C 0.89526 0.66972 0.10187 0.0
H1631 H 0.87761 0.6256 0.05237 0.0
C1632 C 0.9222 0.66611 0.11193 0.0
C1633 C 0.87845 0.65391 0.08072 0.0
C1634 C 0.84834 0.65484 0.07017 0.0
C1635 C 0.93334 0.64827 0.10081 0.0
C1636 C 0.91751 0.6343 0.07858 0.0
C1637 C 0.88996 0.63671 0.06917 0.0
C1638 C 0.92991 0.61844 0.06422 0.0
C1639 C 0.96201 0.6446 0.11305 0.0
C1640 C 0.95658 0.63444 0.05497 0.0
C1641 C 0.96884 0.61972 0.0419 0.0
C1642 C 0.95453 0.58869 0.03743 0.0
C1643 C 0.92735 0.57287 0.04608 0.0
C1644 C 0.91514 0.58765 0.05935 0.0
H1645 H 0.96623 0.64775 0.13362 0.0
H1646 H 0.96244 0.62164 0.11079 0.0
H1647 H 0.98008 0.66235 0.10395 0.0
H1648 H 0.96798 0.65843 0.05784 0.0
H1649 H 0.98959 0.63282 0.03526 0.0
H1650 H 0.37149 0.83763 0.24923 0.0
H1651 H 0.40133 0.86853 0.21655 0.0
H1652 H 0.33476 0.8211 0.15865 0.0
H1653 H 0.3046 0.79115 0.19119 0.0
H1654 H 0.42555 0.85115 0.18486 0.0
H1655 H 0.34975 0.90667 0.12752 0.0
H1656 H 0.34315 0.88578 0.15804 0.0
H1657 H 0.33428 0.86556 0.13021 0.0
C1658 C 0.36299 0.83439 0.22945 0.0
C1659 C 0.3354 0.81256 0.22274 0.0
C1660 C 0.38012 0.85188 0.21078 0.0
C1661 C 0.37027 0.84756 0.18497 0.0
C1662 C 0.34262 0.82565 0.17827 0.0
H1663 H 0.48274 0.91343 0.06369 0.0
H1664 H 0.45708 0.88147 0.09883 0.0
C1665 C 0.32529 0.80848 0.19694 0.0
C1666 C 0.38954 0.86506 0.16538 0.0
H1667 H 0.39227 0.91238 0.11018 0.0
C1668 C 0.41827 0.86463 0.16858 0.0
C1669 C 0.38018 0.88268 0.14403 0.0
C1670 C 0.35025 0.88548 0.13979 0.0
C1671 C 0.43785 0.88149 0.15127 0.0
C1672 C 0.42835 0.89888 0.12992 0.0
C1673 C 0.39957 0.899 0.12654 0.0
C1674 C 0.44798 0.91845 0.11132 0.0
C1675 C 0.46873 0.88119 0.15633 0.0
C1676 C 0.45194 0.94989 0.10695 0.0
C1677 C 0.46629 0.96789 0.08694 0.0
C1678 C 0.47735 0.955 0.07101 0.0
C1679 C 0.47503 0.924 0.07616 0.0
C1680 C 0.46029 0.90577 0.09615 0.0
H1681 H 0.47451 0.87269 0.17631 0.0
H1682 H 0.47097 0.86576 0.14374 0.0
H1683 H 0.4846 0.90451 0.15224 0.0
H1684 H 0.44269 0.96023 0.11834 0.0
H1685 H 0.46744 0.99165 0.08308 0.0
H1686 H 0.69908 0.2219 0.20184 0.0
H1687 H 0.67362 0.1969 0.16323 0.0
H1688 H 0.75467 0.22971 0.13157 0.0
H1689 H 0.78028 0.25388 0.1703 0.0
H1690 H 0.66612 0.21284 0.11207 0.0
H1691 H 0.73318 0.13705 0.13599 0.0
H1692 H 0.73295 0.16284 0.15751 0.0
H1693 H 0.75421 0.17717 0.13165 0.0
C1694 C 0.71125 0.22431 0.18639 0.0
C1695 C 0.74165 0.23903 0.18915 0.0
C1696 C 0.69677 0.21 0.16442 0.0
C1697 C 0.71256 0.21062 0.14502 0.0
C1698 C 0.74236 0.22814 0.14672 0.0
H1699 H 0.61394 0.12699 0.00782 0.0
H1700 H 0.65333 0.16228 0.03452 0.0
C1701 C 0.75687 0.24203 0.16875 0.0
C1702 C 0.69838 0.19097 0.12409 0.0
H1703 H 0.70021 0.12996 0.09787 0.0
C1704 C 0.67364 0.19486 0.10879 0.0
C1705 C 0.70806 0.16717 0.12031 0.0
C1706 C 0.73336 0.16052 0.13736 0.0
C1707 C 0.65795 0.1753 0.08992 0.0
C1708 C 0.66799 0.15192 0.08571 0.0
C1709 C 0.69297 0.14828 0.10083 0.0
C1710 C 0.65098 0.12912 0.06752 0.0
C1711 C 0.62997 0.17897 0.0756 0.0
C1712 C 0.639 0.09806 0.07647 0.0
C1713 C 0.61718 0.07764 0.06101 0.0
C1714 C 0.60691 0.08831 0.03664 0.0
C1715 C 0.62135 0.11844 0.02673 0.0
C1716 C 0.64358 0.13864 0.042 0.0
H1717 H 0.62192 0.19299 0.08531 0.0
H1718 H 0.63395 0.19075 0.05642 0.0
H1719 H 0.6125 0.15629 0.07338 0.0
H1720 H 0.64473 0.09018 0.09605 0.0
H1721 H 0.60632 0.0545 0.06905 0.0
H1722 H 0.69681 0.67025 0.78918 0.0
H1723 H 0.66259 0.64895 0.82013 0.0
H1724 H 0.67684 0.74042 0.8378 0.0
H1725 H 0.71165 0.76166 0.80704 0.0
H1726 H 0.68452 0.7063 0.8791 0.0
H1727 H 0.58063 0.64066 0.82477 0.0
H1728 H 0.60963 0.62953 0.81866 0.0
H1729 H 0.61023 0.66837 0.80942 0.0
C1730 C 0.69169 0.68582 0.79884 0.0
C1731 C 0.70634 0.71755 0.7954 0.0
C1732 C 0.67213 0.67365 0.81662 0.0
C1733 C 0.66662 0.69309 0.831 0.0
C1734 C 0.68052 0.72497 0.82681 0.0
H1735 H 0.55013 0.59194 0.94498 0.0
H1736 H 0.56977 0.63193 0.91144 0.0
C1737 C 0.70035 0.73707 0.80927 0.0
C1738 C 0.6496 0.67988 0.8526 0.0
H1739 H 0.58828 0.62279 0.86969 0.0
C1740 C 0.66315 0.68854 0.87692 0.0
C1741 C 0.62146 0.65716 0.84988 0.0
C1742 C 0.60455 0.64869 0.8242 0.0
C1743 C 0.65035 0.6735 0.89866 0.0
C1744 C 0.62367 0.64862 0.89609 0.0
C1745 C 0.609 0.64155 0.8717 0.0
C1746 C 0.61256 0.62741 0.91825 0.0
C1747 C 0.66597 0.68388 0.92424 0.0
C1748 C 0.63016 0.61186 0.93333 0.0
C1749 C 0.61913 0.58928 0.95253 0.0
C1750 C 0.59009 0.58144 0.95693 0.0
C1751 C 0.57268 0.59764 0.94228 0.0
C1752 C 0.5838 0.62037 0.92301 0.0
H1753 H 0.67901 0.70879 0.92264 0.0
H1754 H 0.65039 0.67942 0.93801 0.0
H1755 H 0.68133 0.67127 0.93184 0.0
H1756 H 0.65217 0.61634 0.92963 0.0
H1757 H 0.63317 0.57729 0.96339 0.0
H1758 H 0.39593 0.78414 0.85907 0.0
H1759 H 0.44555 0.78601 0.87733 0.0
H1760 H 0.41015 0.71344 0.93462 0.0
H1761 H 0.36096 0.71238 0.91707 0.0
H1762 H 0.46692 0.74922 0.95035 0.0
H1763 H 0.45584 0.71312 0.85373 0.0
H1764 H 0.45702 0.75129 0.85626 0.0
H1765 H 0.42591 0.71883 0.86436 0.0
C1766 C 0.39899 0.76976 0.87636 0.0
C1767 C 0.37474 0.74757 0.88638 0.0
C1768 C 0.42729 0.77067 0.88663 0.0
C1769 C 0.43137 0.74895 0.90661 0.0
C1770 C 0.40748 0.73018 0.91897 0.0
H1771 H 0.46517 0.5985 0.94067 0.0
H1772 H 0.45822 0.64525 0.91893 0.0
C1773 C 0.37928 0.72959 0.90897 0.0
C1774 C 0.45796 0.74032 0.91116 0.0
H1775 H 0.4856 0.69577 0.88611 0.0
C1776 C 0.47195 0.73848 0.93616 0.0
C1777 C 0.4645 0.72644 0.89245 0.0
C1778 C 0.45006 0.72731 0.8652 0.0
C1779 C 0.4893 0.71987 0.9437 0.0
C1780 C 0.49315 0.70331 0.9255 0.0
C1781 C 0.48239 0.70843 0.89992 0.0
C1782 C 0.5011 0.67542 0.93346 0.0
C1783 C 0.50053 0.71537 0.97152 0.0
C1784 C 0.52825 0.67668 0.94744 0.0
C1785 C 0.53225 0.64983 0.96009 0.0
C1786 C 0.50911 0.62147 0.95888 0.0
C1787 C 0.48326 0.61997 0.94239 0.0
C1788 C 0.47928 0.64674 0.92987 0.0
H1789 H 0.49387 0.72847 0.98335 0.0
H1790 H 0.49225 0.69066 0.97854 0.0
H1791 H 0.52475 0.7231 0.97421 0.0
H1792 H 0.54561 0.69854 0.94989 0.0
H1793 H 0.55271 0.65169 0.97223 0.0
H1794 H 0.30039 0.30466 0.82986 0.0
H1795 H 0.32063 0.34661 0.85672 0.0
H1796 H 0.34291 0.41129 0.79115 0.0
H1797 H 0.32239 0.36909 0.76379 0.0
H1798 H 0.38868 0.41802 0.82967 0.0
H1799 H 0.29164 0.41306 0.86905 0.0
H1800 H 0.29498 0.37583 0.87214 0.0
H1801 H 0.28892 0.39486 0.84099 0.0
C1802 C 0.30924 0.32776 0.82094 0.0
C1803 C 0.30996 0.33336 0.79459 0.0
C1804 C 0.32058 0.35185 0.8364 0.0
C1805 C 0.33274 0.38222 0.82594 0.0
C1806 C 0.33331 0.38806 0.79961 0.0
H1807 H 0.45655 0.51611 0.92743 0.0
H1808 H 0.41832 0.50276 0.89068 0.0
C1809 C 0.32179 0.36387 0.78402 0.0
C1810 C 0.34745 0.40697 0.84312 0.0
H1811 H 0.33855 0.43366 0.89557 0.0
C1812 C 0.37763 0.42224 0.84362 0.0
C1813 C 0.33295 0.41256 0.86122 0.0
C1814 C 0.30027 0.39842 0.86066 0.0
C1815 C 0.39415 0.44058 0.86317 0.0
C1816 C 0.37996 0.44422 0.88248 0.0
C1817 C 0.34942 0.43091 0.8808 0.0
C1818 C 0.39695 0.45639 0.90665 0.0
C1819 C 0.42698 0.45366 0.86418 0.0
C1820 C 0.39594 0.43579 0.92859 0.0
C1821 C 0.41744 0.44347 0.94954 0.0
C1822 C 0.4402 0.47195 0.94897 0.0
C1823 C 0.43907 0.49409 0.9284 0.0
C1824 C 0.41749 0.48632 0.90727 0.0
H1825 H 0.43472 0.44545 0.84945 0.0
H1826 H 0.43407 0.47908 0.8611 0.0
H1827 H 0.43781 0.44736 0.88308 0.0
H1828 H 0.38022 0.41266 0.92865 0.0
H1829 H 0.41792 0.426 0.96517 0.0
H1830 H 0.68654 0.42415 0.77188 0.0
H1831 H 0.66912 0.43689 0.80676 0.0
H1832 H 0.66249 0.34799 0.84653 0.0
H1833 H 0.67707 0.3339 0.81082 0.0
H1834 H 0.61714 0.35895 0.85008 0.0
H1835 H 0.71023 0.46375 0.87373 0.0
H1836 H 0.69433 0.46762 0.84126 0.0
H1837 H 0.71129 0.43886 0.85178 0.0
C1838 C 0.6811 0.4071 0.78787 0.0
C1839 C 0.68347 0.37797 0.78835 0.0
C1840 C 0.67169 0.41472 0.80814 0.0
C1841 C 0.66518 0.39376 0.8297 0.0
C1842 C 0.66765 0.36476 0.83029 0.0
H1843 H 0.63062 0.44816 0.96692 0.0
H1844 H 0.65375 0.43363 0.93657 0.0
C1845 C 0.67641 0.35687 0.80984 0.0
C1846 C 0.65404 0.40114 0.85096 0.0
H1847 H 0.66614 0.45615 0.89062 0.0
C1848 C 0.62812 0.38008 0.8591 0.0
C1849 C 0.66853 0.42837 0.86325 0.0
C1850 C 0.6978 0.45073 0.85724 0.0
C1851 C 0.6159 0.38581 0.87855 0.0
C1852 C 0.62919 0.41408 0.88948 0.0
C1853 C 0.65562 0.43472 0.88198 0.0
C1854 C 0.61546 0.42298 0.90804 0.0
C1855 C 0.58908 0.36117 0.88735 0.0
C1856 C 0.58649 0.42242 0.90198 0.0
C1857 C 0.57314 0.43008 0.9194 0.0
C1858 C 0.58869 0.43935 0.94309 0.0
C1859 C 0.61804 0.44097 0.94888 0.0
C1860 C 0.63127 0.43271 0.93154 0.0
H1861 H 0.5882 0.33799 0.88413 0.0
H1862 H 0.58848 0.36142 0.90784 0.0
H1863 H 0.56924 0.36496 0.87629 0.0
H1864 H 0.57413 0.41615 0.88366 0.0
H1865 H 0.55069 0.42917 0.9141 0.0
H1866 H 0.66096 0.29253 0.20256 0.0
H1867 H 0.60944 0.28122 0.18872 0.0
H1868 H 0.62458 0.29131 0.11081 0.0
H1869 H 0.67516 0.29732 0.12472 0.0
H1870 H 0.59124 0.3204 0.17005 0.0
H1871 H 0.54429 0.24107 0.09805 0.0
H1872 H 0.57719 0.24035 0.11874 0.0
H1873 H 0.57897 0.26305 0.0882 0.0
C1874 C 0.65339 0.29058 0.18255 0.0
C1875 C 0.67302 0.2972 0.16472 0.0
C1876 C 0.62354 0.28438 0.17459 0.0
C1877 C 0.61269 0.28598 0.14861 0.0
C1878 C 0.63172 0.28939 0.13102 0.0
H1879 H 0.58284 0.42464 0.07565 0.0
H1880 H 0.5864 0.38423 0.10847 0.0
C1881 C 0.66128 0.29402 0.13904 0.0
C1882 C 0.58469 0.29195 0.13974 0.0
H1883 H 0.54034 0.29534 0.08387 0.0
C1884 C 0.57927 0.31368 0.15169 0.0
C1885 C 0.5672 0.28245 0.11654 0.0
C1886 C 0.5671 0.2551 0.10498 0.0
C1887 C 0.56135 0.33004 0.13886 0.0
C1888 C 0.54987 0.32562 0.11319 0.0
C1889 C 0.55053 0.30001 0.10312 0.0
C1890 C 0.54448 0.351 0.09535 0.0
C1891 C 0.55719 0.35394 0.15214 0.0
C1892 C 0.51989 0.34586 0.07666 0.0
C1893 C 0.51806 0.36904 0.05734 0.0
C1894 C 0.54095 0.39758 0.05635 0.0
C1895 C 0.56486 0.40297 0.07572 0.0
C1896 C 0.56671 0.3799 0.09483 0.0
H1897 H 0.55391 0.34515 0.17214 0.0
H1898 H 0.57721 0.37466 0.15263 0.0
H1899 H 0.53819 0.36058 0.14253 0.0
H1900 H 0.50262 0.32367 0.07655 0.0
H1901 H 0.49922 0.36425 0.04275 0.0
H1902 H 0.74563 0.70722 0.17709 0.0
H1903 H 0.72461 0.66367 0.15196 0.0
H1904 H 0.71262 0.60167 0.22029 0.0
H1905 H 0.73365 0.64557 0.24591 0.0
H1906 H 0.74065 0.61229 0.15085 0.0
H1907 H 0.63021 0.57911 0.18035 0.0
H1908 H 0.65824 0.61545 0.18676 0.0
H1909 H 0.66061 0.58073 0.20484 0.0
C1910 C 0.73864 0.68442 0.18695 0.0
C1911 C 0.7409 0.68 0.21359 0.0
C1912 C 0.72673 0.65946 0.17247 0.0
C1913 C 0.7168 0.62943 0.18419 0.0
C1914 C 0.71974 0.6247 0.21082 0.0
H1915 H 0.59201 0.49801 0.08395 0.0
H1916 H 0.63098 0.50976 0.12028 0.0
C1917 C 0.73168 0.64982 0.22543 0.0
C1918 C 0.70202 0.60379 0.16794 0.0
H1919 H 0.63382 0.55723 0.1456 0.0
C1920 C 0.7174 0.59963 0.15007 0.0
C1921 C 0.67178 0.587 0.16711 0.0
C1922 C 0.65406 0.59074 0.18564 0.0
C1923 C 0.70291 0.58105 0.13022 0.0
C1924 C 0.67225 0.56657 0.12803 0.0
C1925 C 0.65735 0.56836 0.14727 0.0
C1926 C 0.65448 0.5552 0.10388 0.0
C1927 C 0.72035 0.57838 0.11102 0.0
C1928 C 0.65556 0.57619 0.08215 0.0
C1929 C 0.63334 0.5696 0.06161 0.0
C1930 C 0.60976 0.54182 0.06235 0.0
C1931 C 0.61026 0.51939 0.0828 0.0
C1932 C 0.63238 0.52618 0.10362 0.0
H1933 H 0.74281 0.57978 0.12 0.0
H1934 H 0.70968 0.5565 0.10205 0.0
H1935 H 0.72236 0.59776 0.09595 0.0
H1936 H 0.67195 0.59894 0.08202 0.0
H1937 H 0.63317 0.58736 0.04616 0.0
H1938 H 0.41156 0.64567 0.24138 0.0
H1939 H 0.4275 0.62974 0.20703 0.0
H1940 H 0.3453 0.62331 0.16025 0.0
H1941 H 0.32933 0.63955 0.19447 0.0
H1942 H 0.40464 0.57722 0.18339 0.0
H1943 H 0.40302 0.67701 0.11339 0.0
H1944 H 0.40018 0.67634 0.14643 0.0
H1945 H 0.36883 0.65642 0.12511 0.0
C1946 C 0.39682 0.64073 0.22383 0.0
C1947 C 0.36923 0.64404 0.22063 0.0
C1948 C 0.406 0.63173 0.20416 0.0
C1949 C 0.38782 0.62581 0.18087 0.0
C1950 C 0.36003 0.62852 0.17778 0.0
H1951 H 0.41704 0.55307 0.05039 0.0
H1952 H 0.3933 0.56611 0.08116 0.0
C1953 C 0.3509 0.63773 0.19739 0.0
C1954 C 0.39795 0.61641 0.16007 0.0
H1955 H 0.41323 0.63717 0.09902 0.0
C1956 C 0.4064 0.5903 0.16494 0.0
C1957 C 0.40032 0.63351 0.13595 0.0
C1958 C 0.39287 0.66254 0.1299 0.0
C1959 C 0.41732 0.58098 0.14645 0.0
C1960 C 0.41983 0.59816 0.1225 0.0
C1961 C 0.41097 0.62393 0.11739 0.0
C1962 C 0.43379 0.59095 0.10334 0.0
C1963 C 0.42658 0.5531 0.15264 0.0
C1964 C 0.46432 0.60091 0.10558 0.0
C1965 C 0.47793 0.59369 0.08809 0.0
C1966 C 0.46127 0.5762 0.06796 0.0
C1967 C 0.43056 0.56652 0.06563 0.0
C1968 C 0.41694 0.57395 0.08315 0.0
H1969 H 0.42024 0.54023 0.17101 0.0
H1970 H 0.41668 0.53748 0.13734 0.0
H1971 H 0.45069 0.56038 0.15369 0.0
H1972 H 0.47764 0.61412 0.12103 0.0
H1973 H 0.50158 0.60157 0.09059 0.0
H1974 H 0.35333 0.34151 0.22214 0.0
H1975 H 0.38629 0.36383 0.19016 0.0
H1976 H 0.37769 0.27295 0.17512 0.0
H1977 H 0.34401 0.25061 0.20683 0.0
H1978 H 0.43772 0.36163 0.18099 0.0
H1979 H 0.347 0.30676 0.10694 0.0
H1980 H 0.34137 0.30634 0.13914 0.0
H1981 H 0.35754 0.28066 0.13142 0.0
C1982 C 0.3593 0.32638 0.21268 0.0
C1983 C 0.34656 0.29446 0.21709 0.0
C1984 C 0.37793 0.33909 0.19423 0.0
C1985 C 0.38405 0.32004 0.17994 0.0
C1986 C 0.37277 0.28807 0.18553 0.0
H1987 H 0.50024 0.42343 0.06542 0.0
H1988 H 0.48118 0.38343 0.09905 0.0
C1989 C 0.35378 0.27536 0.20373 0.0
C1990 C 0.40003 0.33389 0.15785 0.0
H1991 H 0.39073 0.3399 0.09307 0.0
C1992 C 0.42768 0.35665 0.16175 0.0
C1993 C 0.38671 0.32737 0.13277 0.0
C1994 C 0.35644 0.30416 0.12718 0.0
C1995 C 0.44177 0.37421 0.14124 0.0
C1996 C 0.42807 0.36823 0.11615 0.0
C1997 C 0.40119 0.34431 0.11232 0.0
C1998 C 0.43897 0.38921 0.09379 0.0
C1999 C 0.47022 0.40022 0.14664 0.0
C2000 C 0.42107 0.40445 0.07874 0.0
C2001 C 0.43161 0.42659 0.0591 0.0
C2002 C 0.46039 0.43413 0.05415 0.0
C2003 C 0.4779 0.41789 0.06853 0.0
C2004 C 0.46718 0.39537 0.08804 0.0
H2005 H 0.47481 0.4054 0.16676 0.0
H2006 H 0.48844 0.39386 0.14269 0.0
H2007 H 0.46998 0.42142 0.1343 0.0
H2008 H 0.39918 0.4 0.08276 0.0
H2009 H 0.41744 0.4385 0.04836 0.0
H2010 H 0.76484 0.59641 0.63735 0.0
H2011 H 0.79676 0.58261 0.61539 0.0
H2012 H 0.86207 0.67233 0.62312 0.0
H2013 H 0.83006 0.68657 0.64483 0.0
H2014 H 0.81913 0.61267 0.56976 0.0
H2015 H 0.90811 0.6132 0.64954 0.0
H2016 H 0.87248 0.6117 0.65441 0.0
H2017 H 0.89852 0.64736 0.64351 0.0
C2018 C 0.78595 0.61331 0.63434 0.0
C2019 C 0.7948 0.64268 0.64282 0.0
C2020 C 0.80423 0.6053 0.62188 0.0
C2021 C 0.8319 0.62632 0.6178 0.0
C2022 C 0.84102 0.65554 0.62646 0.0
H2023 H 0.97013 0.61744 0.54311 0.0
H2024 H 0.93981 0.63291 0.56561 0.0
C2025 C 0.82269 0.66363 0.6389 0.0
C2026 C 0.85059 0.61791 0.60362 0.0
H2027 H 0.9157 0.60612 0.60911 0.0
C2028 C 0.84022 0.61116 0.57837 0.0
C2029 C 0.87815 0.61611 0.61484 0.0
C2030 C 0.88999 0.62222 0.64213 0.0
C2031 C 0.85679 0.60297 0.56393 0.0
C2032 C 0.88421 0.60078 0.57524 0.0
C2033 C 0.89467 0.60775 0.60046 0.0
C2034 C 0.90238 0.59127 0.56125 0.0
C2035 C 0.84501 0.59741 0.53653 0.0
C2036 C 0.89157 0.56254 0.55148 0.0
C2037 C 0.90882 0.55363 0.53846 0.0
C2038 C 0.9374 0.57315 0.53515 0.0
C2039 C 0.94824 0.60179 0.54521 0.0
C2040 C 0.93093 0.6107 0.55814 0.0
H2041 H 0.82829 0.60835 0.52889 0.0
H2042 H 0.8628 0.60635 0.52446 0.0
H2043 H 0.83449 0.57235 0.53508 0.0
H2044 H 0.86986 0.54683 0.55415 0.0
H2045 H 0.8998 0.53131 0.53121 0.0
H2046 H 0.31714 0.7742 0.69901 0.0
H2047 H 0.35415 0.79768 0.6705 0.0
H2048 H 0.38931 0.87802 0.71179 0.0
H2049 H 0.35292 0.854 0.74087 0.0
H2050 H 0.3602 0.84808 0.6391 0.0
H2051 H 0.44078 0.88319 0.71452 0.0
H2052 H 0.46394 0.86692 0.70403 0.0
H2053 H 0.42922 0.8423 0.71346 0.0
C2054 C 0.33335 0.79635 0.70257 0.0
C2055 C 0.3327 0.8118 0.72276 0.0
C2056 C 0.35441 0.80996 0.68607 0.0
C2057 C 0.37514 0.83944 0.68924 0.0
C2058 C 0.37434 0.8549 0.70936 0.0
H2059 H 0.45209 0.98252 0.58151 0.0
H2060 H 0.42858 0.94726 0.61565 0.0
C2061 C 0.35335 0.84126 0.72586 0.0
C2062 C 0.39553 0.85535 0.67011 0.0
H2063 H 0.46683 0.89833 0.66371 0.0
C2064 C 0.38358 0.85851 0.6445 0.0
C2065 C 0.42618 0.86891 0.67691 0.0
C2066 C 0.44082 0.86489 0.7037 0.0
C2067 C 0.40102 0.87608 0.62591 0.0
C2068 C 0.43128 0.89124 0.63301 0.0
C2069 C 0.44361 0.88687 0.6583 0.0
C2070 C 0.44932 0.91411 0.61477 0.0
C2071 C 0.38678 0.87915 0.59882 0.0
C2072 C 0.46997 0.90788 0.60363 0.0
C2073 C 0.48376 0.92831 0.58394 0.0
C2074 C 0.47693 0.9551 0.57517 0.0
C2075 C 0.45767 0.96198 0.58762 0.0
C2076 C 0.44412 0.9418 0.60715 0.0
H2077 H 0.36524 0.8607 0.59528 0.0
H2078 H 0.38327 0.90158 0.59482 0.0
H2079 H 0.40103 0.87848 0.58536 0.0
H2080 H 0.47437 0.88663 0.60932 0.0
H2081 H 0.49832 0.92228 0.57463 0.0
H2082 H 0.18715 0.25527 0.69713 0.0
H2083 H 0.16334 0.28923 0.67081 0.0
H2084 H 0.23446 0.36804 0.69767 0.0
H2085 H 0.25833 0.33379 0.72447 0.0
H2086 H 0.14531 0.33313 0.68929 0.0
H2087 H 0.22299 0.39032 0.6192 0.0
H2088 H 0.21884 0.35218 0.6344 0.0
H2089 H 0.23765 0.38492 0.65206 0.0
C2090 C 0.19806 0.27987 0.69712 0.0
C2091 C 0.22505 0.29169 0.71253 0.0
C2092 C 0.18429 0.29933 0.68208 0.0
C2093 C 0.19699 0.33141 0.68187 0.0
C2094 C 0.22426 0.34346 0.697 0.0
H2095 H 0.13289 0.47418 0.59071 0.0
H2096 H 0.1608 0.44766 0.62176 0.0
C2097 C 0.23805 0.32384 0.71229 0.0
C2098 C 0.18064 0.35161 0.66685 0.0
H2099 H 0.18127 0.40415 0.61481 0.0
C2100 C 0.15333 0.34879 0.6731 0.0
C2101 C 0.19082 0.37224 0.64568 0.0
C2102 C 0.21913 0.37525 0.63719 0.0
C2103 C 0.13613 0.36575 0.65892 0.0
C2104 C 0.14593 0.38579 0.63727 0.0
C2105 C 0.17353 0.38904 0.63134 0.0
C2106 C 0.12758 0.4026 0.62001 0.0
C2107 C 0.10773 0.36226 0.66762 0.0
C2108 C 0.09914 0.38659 0.60865 0.0
C2109 C 0.08292 0.40182 0.59098 0.0
C2110 C 0.09463 0.43364 0.58379 0.0
C2111 C 0.12277 0.44982 0.59579 0.0
C2112 C 0.13898 0.43454 0.6135 0.0
H2113 H 0.1081 0.35496 0.68829 0.0
H2114 H 0.10296 0.38404 0.66364 0.0
H2115 H 0.08965 0.34429 0.65744 0.0
H2116 H 0.0898 0.36194 0.61264 0.0
H2117 H 0.06162 0.38826 0.58207 0.0
H2118 H 0.73909 0.17252 0.70347 0.0
H2119 H 0.72384 0.14688 0.6646 0.0
H2120 H 0.73521 0.2341 0.62009 0.0
H2121 H 0.75019 0.26003 0.65893 0.0
H2122 H 0.68192 0.19258 0.60909 0.0
H2123 H 0.76461 0.13901 0.60852 0.0
H2124 H 0.75039 0.13013 0.6382 0.0
H2125 H 0.77078 0.1693 0.62821 0.0
C2126 C 0.7387 0.18635 0.68543 0.0
C2127 C 0.74552 0.21828 0.68431 0.0
C2128 C 0.73036 0.17167 0.6632 0.0
C2129 C 0.72901 0.18866 0.63945 0.0
C2130 C 0.73645 0.22063 0.63824 0.0
H2131 H 0.62179 0.1161 0.50177 0.0
H2132 H 0.66626 0.14817 0.52602 0.0
C2133 C 0.74471 0.23535 0.66047 0.0
C2134 C 0.71579 0.17256 0.61633 0.0
H2135 H 0.7174 0.1164 0.58364 0.0
C2136 C 0.69006 0.17648 0.6031 0.0
C2137 C 0.72642 0.15146 0.60874 0.0
C2138 C 0.75474 0.14744 0.62153 0.0
C2139 C 0.67357 0.15851 0.5835 0.0
C2140 C 0.68355 0.13649 0.57649 0.0
C2141 C 0.70997 0.13343 0.58897 0.0
C2142 C 0.66472 0.11431 0.55842 0.0
C2143 C 0.64463 0.1619 0.57164 0.0
C2144 C 0.65106 0.0837 0.56765 0.0
C2145 C 0.62597 0.06513 0.55364 0.0
C2146 C 0.61421 0.07729 0.53049 0.0
C2147 C 0.6302 0.10647 0.51982 0.0
C2148 C 0.65557 0.12478 0.53362 0.0
H2149 H 0.6378 0.17585 0.58252 0.0
H2150 H 0.6465 0.1735 0.55213 0.0
H2151 H 0.62714 0.13908 0.57038 0.0
H2152 H 0.65799 0.07517 0.58671 0.0
H2153 H 0.61414 0.04262 0.56219 0.0
H2154 H 0.87181 0.29016 0.3146 0.0
H2155 H 0.89513 0.31662 0.35292 0.0
H2156 H 0.81896 0.26511 0.38947 0.0
H2157 H 0.79585 0.23882 0.35139 0.0
H2158 H 0.83171 0.32784 0.38555 0.0
H2159 H 0.93012 0.29742 0.426 0.0
H2160 H 0.92769 0.30797 0.39236 0.0
H2161 H 0.90061 0.27407 0.40473 0.0
C2162 C 0.86074 0.28349 0.33129 0.0
C2163 C 0.83205 0.2627 0.33014 0.0
C2164 C 0.87395 0.29868 0.3531 0.0
C2165 C 0.85865 0.29282 0.37395 0.0
C2166 C 0.83104 0.26998 0.37353 0.0
H2167 H 0.9432 0.39375 0.50383 0.0
H2168 H 0.90539 0.35421 0.47986 0.0
C2169 C 0.81786 0.25498 0.35178 0.0
C2170 C 0.86942 0.31351 0.39435 0.0
H2171 H 0.92815 0.34363 0.43816 0.0
C2172 C 0.85266 0.33113 0.39724 0.0
C2173 C 0.89649 0.31729 0.40981 0.0
C2174 C 0.91467 0.29798 0.40829 0.0
C2175 C 0.86304 0.3537 0.4143 0.0
C2176 C 0.89072 0.35847 0.42885 0.0
C2177 C 0.90686 0.33986 0.42686 0.0
C2178 C 0.90471 0.38397 0.44501 0.0
C2179 C 0.84469 0.37262 0.41634 0.0
C2180 C 0.91512 0.41424 0.43373 0.0
C2181 C 0.93666 0.43697 0.44745 0.0
C2182 C 0.94805 0.42927 0.47235 0.0
C2183 C 0.93481 0.40003 0.48452 0.0
C2184 C 0.91329 0.37745 0.47088 0.0
H2185 H 0.82144 0.36154 0.40839 0.0
H2186 H 0.84584 0.37639 0.43643 0.0
H2187 H 0.85323 0.39541 0.40555 0.0
H2188 H 0.90889 0.41957 0.41367 0.0
H2189 H 0.94671 0.45933 0.43768 0.0
H2190 H 0.63324 0.74255 0.37498 0.0
H2191 H 0.62019 0.77688 0.3966 0.0
H2192 H 0.7044 0.84658 0.3896 0.0
H2193 H 0.71775 0.81222 0.368 0.0
H2194 H 0.64883 0.80261 0.44193 0.0
H2195 H 0.64735 0.89325 0.36232 0.0
H2196 H 0.64691 0.85584 0.35744 0.0
H2197 H 0.68034 0.88407 0.36979 0.0
C2198 C 0.64907 0.76513 0.37809 0.0
C2199 C 0.67658 0.77459 0.36979 0.0
C2200 C 0.6415 0.78479 0.39035 0.0
C2201 C 0.66118 0.8144 0.39449 0.0
C2202 C 0.68864 0.82405 0.38616 0.0
H2203 H 0.63651 0.95463 0.47086 0.0
H2204 H 0.6584 0.92725 0.44971 0.0
C2205 C 0.69624 0.80437 0.37383 0.0
C2206 C 0.65305 0.83452 0.40832 0.0
H2207 H 0.63805 0.90118 0.40175 0.0
C2208 C 0.64659 0.82422 0.43317 0.0
C2209 C 0.65038 0.86284 0.39694 0.0
C2210 C 0.65637 0.87467 0.37009 0.0
C2211 C 0.63707 0.84119 0.4468 0.0
C2212 C 0.63345 0.86898 0.43514 0.0
C2213 C 0.6408 0.87983 0.4106 0.0
C2214 C 0.62032 0.88596 0.44758 0.0
C2215 C 0.63091 0.82917 0.47359 0.0
C2216 C 0.59152 0.87202 0.45295 0.0
C2217 C 0.57896 0.88752 0.46495 0.0
C2218 C 0.59488 0.91744 0.47179 0.0
C2219 C 0.62364 0.93159 0.46599 0.0
C2220 C 0.63619 0.91601 0.45388 0.0
H2221 H 0.64242 0.81283 0.48213 0.0
H2222 H 0.63759 0.84824 0.48585 0.0
H2223 H 0.60709 0.81681 0.47338 0.0
H2224 H 0.57869 0.84907 0.44782 0.0
H2225 H 0.55673 0.87588 0.46894 0.0
H2226 H 0.24341 0.72552 0.31314 0.0
H2227 H 0.21222 0.69263 0.34424 0.0
H2228 H 0.14396 0.65603 0.28336 0.0
H2229 H 0.17559 0.68783 0.2523 0.0
H2230 H 0.15969 0.6926 0.35249 0.0
H2231 H 0.14636 0.57835 0.32556 0.0
H2232 H 0.17313 0.61317 0.31392 0.0
H2233 H 0.13554 0.60268 0.29961 0.0
C2234 C 0.22215 0.70977 0.3064 0.0
C2235 C 0.21227 0.70852 0.28027 0.0
C2236 C 0.20414 0.69125 0.32419 0.0
C2237 C 0.1758 0.67147 0.31619 0.0
C2238 C 0.16593 0.67044 0.29007 0.0
H2239 H 0.04836 0.58428 0.42711 0.0
H2240 H 0.06898 0.61525 0.38912 0.0
C2241 C 0.18399 0.68869 0.27233 0.0
C2242 C 0.1562 0.65279 0.33511 0.0
H2243 H 0.11665 0.57917 0.35508 0.0
C2244 C 0.15021 0.66779 0.35303 0.0
C2245 C 0.14373 0.62041 0.33577 0.0
C2246 C 0.15019 0.60265 0.31785 0.0
C2247 C 0.13268 0.65128 0.37192 0.0
C2248 C 0.12037 0.61891 0.37265 0.0
C2249 C 0.12573 0.60402 0.35429 0.0
C2250 C 0.10608 0.59968 0.39451 0.0
C2251 C 0.12857 0.66844 0.39164 0.0
C2252 C 0.11952 0.58015 0.40963 0.0
C2253 C 0.10787 0.56261 0.4309 0.0
C2254 C 0.08229 0.56395 0.43787 0.0
C2255 C 0.06811 0.58281 0.42233 0.0
C2256 C 0.08 0.60065 0.40077 0.0
H2257 H 0.14301 0.6929 0.39057 0.0
H2258 H 0.10556 0.66766 0.38873 0.0
H2259 H 0.1331 0.65749 0.41101 0.0
H2260 H 0.13953 0.57887 0.40523 0.0
H2261 H 0.11929 0.54807 0.44207 0.0
H2262 H 0.34924 0.23937 0.28455 0.0
H2263 H 0.38424 0.21719 0.31149 0.0
H2264 H 0.3125 0.14118 0.33815 0.0
H2265 H 0.27782 0.16339 0.3118 0.0
H2266 H 0.39149 0.19841 0.36703 0.0
H2267 H 0.36046 0.09955 0.31024 0.0
H2268 H 0.35184 0.13387 0.29828 0.0
H2269 H 0.33022 0.10553 0.31996 0.0
C2270 C 0.341 0.21825 0.29653 0.0
C2271 C 0.31063 0.20355 0.29638 0.0
C2272 C 0.36105 0.20541 0.31183 0.0
C2273 C 0.3512 0.17716 0.32682 0.0
C2274 C 0.32089 0.1627 0.32668 0.0
H2275 H 0.41888 0.04641 0.42749 0.0
H2276 H 0.3909 0.07359 0.39754 0.0
C2277 C 0.301 0.17556 0.31163 0.0
C2278 C 0.37214 0.16225 0.34236 0.0
H2279 H 0.38988 0.0968 0.35 0.0
C2280 C 0.39137 0.17636 0.36313 0.0
C2281 C 0.37206 0.13329 0.33759 0.0
C2282 C 0.35275 0.1172 0.3152 0.0
C2283 C 0.40952 0.16194 0.37962 0.0
C2284 C 0.40931 0.13276 0.37498 0.0
C2285 C 0.39037 0.11901 0.35387 0.0
C2286 C 0.42747 0.11555 0.39223 0.0
C2287 C 0.42774 0.17766 0.40256 0.0
C2288 C 0.45795 0.12915 0.39887 0.0
C2289 C 0.47419 0.1135 0.41622 0.0
C2290 C 0.46062 0.0835 0.42729 0.0
C2291 C 0.43041 0.06934 0.4195 0.0
C2292 C 0.41419 0.08505 0.40231 0.0
H2293 H 0.41924 0.19472 0.40744 0.0
H2294 H 0.42838 0.16078 0.41936 0.0
H2295 H 0.45043 0.1901 0.39844 0.0
H2296 H 0.46926 0.15214 0.39091 0.0
H2297 H 0.49731 0.12538 0.42154 0.0
H2298 H 0.77395 0.84638 0.69942 0.0
H2299 H 0.73913 0.86766 0.67234 0.0
H2300 H 0.6677 0.79107 0.69902 0.0
H2301 H 0.70292 0.77037 0.72712 0.0
H2302 H 0.69961 0.85008 0.63355 0.0
H2303 H 0.64106 0.8585 0.70907 0.0
H2304 H 0.67409 0.84914 0.71617 0.0
H2305 H 0.63957 0.82017 0.70689 0.0
C2306 C 0.75079 0.83395 0.69949 0.0
C2307 C 0.74138 0.80628 0.71516 0.0
C2308 C 0.73075 0.84619 0.68389 0.0
C2309 C 0.70039 0.83152 0.68356 0.0
C2310 C 0.69083 0.80357 0.6991 0.0
H2311 H 0.55547 0.88408 0.58825 0.0
H2312 H 0.58403 0.85715 0.61836 0.0
C2313 C 0.71104 0.79133 0.71492 0.0
C2314 C 0.67942 0.84576 0.66677 0.0
H2315 H 0.62289 0.87209 0.6668 0.0
C2316 C 0.68292 0.85484 0.641 0.0
C2317 C 0.65728 0.85221 0.67603 0.0
C2318 C 0.65287 0.84479 0.70359 0.0
C2319 C 0.66542 0.86999 0.62459 0.0
C2320 C 0.6436 0.87675 0.6339 0.0
C2321 C 0.63954 0.86711 0.65947 0.0
C2322 C 0.6254 0.8943 0.61739 0.0
C2323 C 0.67034 0.87847 0.59718 0.0
C2324 C 0.63857 0.92478 0.60731 0.0
C2325 C 0.62219 0.94046 0.5903 0.0
C2326 C 0.59196 0.92621 0.58259 0.0
C2327 C 0.57855 0.8961 0.59363 0.0
C2328 C 0.59497 0.88051 0.61087 0.0
H2329 H 0.68272 0.86551 0.59147 0.0
H2330 H 0.64921 0.87407 0.58443 0.0
H2331 H 0.68312 0.90333 0.59439 0.0
H2332 H 0.66183 0.93634 0.6122 0.0
H2333 H 0.63361 0.96345 0.58236 0.0
H2334 H 0.75351 0.22592 0.32626 0.0
H2335 H 0.71581 0.20176 0.35401 0.0
H2336 H 0.66199 0.14512 0.29518 0.0
H2337 H 0.69983 0.16997 0.26725 0.0
H2338 H 0.62909 0.16436 0.3236 0.0
H2339 H 0.70676 0.11467 0.38607 0.0
H2340 H 0.72 0.15583 0.38115 0.0
H2341 H 0.71345 0.1336 0.35488 0.0
C2342 C 0.73343 0.20892 0.31907 0.0
C2343 C 0.72936 0.2005 0.2944 0.0
C2344 C 0.71187 0.19493 0.33498 0.0
C2345 C 0.6861 0.17128 0.32686 0.0
C2346 C 0.68155 0.16341 0.30188 0.0
H2347 H 0.58907 0.02103 0.42359 0.0
H2348 H 0.61414 0.05478 0.38945 0.0
C2349 C 0.70312 0.17766 0.28591 0.0
C2350 C 0.66547 0.15276 0.34513 0.0
H2351 H 0.66148 0.10447 0.39982 0.0
C2352 C 0.63612 0.15128 0.34031 0.0
C2353 C 0.67455 0.13542 0.36681 0.0
C2354 C 0.70531 0.13464 0.37251 0.0
C2355 C 0.61568 0.1329 0.35658 0.0
C2356 C 0.6249 0.11578 0.37836 0.0
C2357 C 0.65432 0.11759 0.38319 0.0
C2358 C 0.60457 0.09437 0.39587 0.0
C2359 C 0.58427 0.13127 0.34997 0.0
C2360 C 0.58957 0.10483 0.41031 0.0
C2361 C 0.57461 0.08516 0.42973 0.0
C2362 C 0.57483 0.05493 0.43517 0.0
C2363 C 0.58841 0.04416 0.41974 0.0
C2364 C 0.60291 0.06352 0.40029 0.0
H2365 H 0.57936 0.14011 0.32992 0.0
H2366 H 0.56921 0.1073 0.35314 0.0
H2367 H 0.57986 0.14544 0.36239 0.0
H2368 H 0.59087 0.12862 0.40763 0.0
H2369 H 0.56482 0.09424 0.44165 0.0
H2370 H 0.86645 0.76306 0.30733 0.0
H2371 H 0.89022 0.72975 0.33471 0.0
H2372 H 0.81937 0.65007 0.30879 0.0
H2373 H 0.79603 0.68369 0.28056 0.0
H2374 H 0.87624 0.68889 0.37397 0.0
H2375 H 0.88666 0.62741 0.29807 0.0
H2376 H 0.87543 0.66068 0.29117 0.0
H2377 H 0.8497 0.62364 0.29996 0.0
C2378 C 0.85581 0.73841 0.30754 0.0
C2379 C 0.82896 0.72619 0.29207 0.0
C2380 C 0.86949 0.71926 0.32328 0.0
C2381 C 0.85711 0.68706 0.32385 0.0
C2382 C 0.83002 0.67469 0.30852 0.0
H2383 H 0.92045 0.54368 0.41635 0.0
H2384 H 0.89215 0.57086 0.38627 0.0
C2385 C 0.8163 0.69398 0.29263 0.0
C2386 C 0.87282 0.66708 0.34059 0.0
H2387 H 0.90231 0.611 0.34029 0.0
C2388 C 0.88189 0.67192 0.36645 0.0
C2389 C 0.88041 0.64462 0.3312 0.0
C2390 C 0.87282 0.63889 0.30355 0.0
C2391 C 0.89806 0.65535 0.38288 0.0
C2392 C 0.90602 0.63327 0.37343 0.0
C2393 C 0.89646 0.62788 0.34773 0.0
C2394 C 0.92456 0.6161 0.38993 0.0
C2395 C 0.90618 0.66143 0.41046 0.0
C2396 C 0.95295 0.63196 0.40144 0.0
C2397 C 0.96939 0.6164 0.4185 0.0
C2398 C 0.95807 0.58432 0.42473 0.0
C2399 C 0.9302 0.56826 0.41214 0.0
C2400 C 0.9138 0.58389 0.39493 0.0
H2401 H 0.89222 0.67259 0.41618 0.0
H2402 H 0.90425 0.63981 0.42294 0.0
H2403 H 0.92921 0.67705 0.41362 0.0
H2404 H 0.96225 0.65665 0.39766 0.0
H2405 H 0.99063 0.62985 0.4276 0.0
H2406 H 0.3056 0.76746 0.34418 0.0
H2407 H 0.32339 0.79741 0.38084 0.0
H2408 H 0.31299 0.8769 0.33364 0.0
H2409 H 0.29647 0.84771 0.29681 0.0
H2410 H 0.3669 0.88824 0.35883 0.0
H2411 H 0.28698 0.83087 0.42615 0.0
H2412 H 0.29998 0.80459 0.41513 0.0
H2413 H 0.27911 0.82426 0.39296 0.0
C2414 C 0.30705 0.79128 0.3416 0.0
C2415 C 0.30021 0.80531 0.31742 0.0
C2416 C 0.3167 0.80823 0.36268 0.0
C2417 C 0.3191 0.83927 0.36002 0.0
C2418 C 0.3111 0.85291 0.33613 0.0
H2419 H 0.4332 0.97683 0.46057 0.0
H2420 H 0.38874 0.95318 0.43195 0.0
C2421 C 0.30178 0.83615 0.31505 0.0
C2422 C 0.33379 0.85861 0.38117 0.0
H2423 H 0.33467 0.86335 0.44399 0.0
C2424 C 0.3595 0.88327 0.3773 0.0
C2425 C 0.32408 0.85195 0.40522 0.0
C2426 C 0.29585 0.82665 0.41007 0.0
C2427 C 0.37681 0.90034 0.39719 0.0
C2428 C 0.36777 0.89295 0.42156 0.0
C2429 C 0.34137 0.86911 0.42523 0.0
C2430 C 0.38781 0.90667 0.44387 0.0
C2431 C 0.40563 0.92474 0.39225 0.0
C2432 C 0.4003 0.88813 0.46156 0.0
C2433 C 0.42546 0.90148 0.4781 0.0
C2434 C 0.43864 0.93362 0.47704 0.0
C2435 C 0.42393 0.95202 0.46155 0.0
C2436 C 0.39854 0.93857 0.44513 0.0
H2437 H 0.41147 0.92385 0.37348 0.0
H2438 H 0.40424 0.94776 0.39259 0.0
H2439 H 0.42357 0.9222 0.40716 0.0
H2440 H 0.39215 0.86343 0.46107 0.0
H2441 H 0.43583 0.88657 0.4902 0.0
H2442 H 0.28996 0.41818 0.37188 0.0
H2443 H 0.25826 0.43236 0.39385 0.0
H2444 H 0.19583 0.34037 0.3921 0.0
H2445 H 0.22785 0.32571 0.37075 0.0
H2446 H 0.20093 0.43079 0.37891 0.0
H2447 H 0.20966 0.35422 0.46732 0.0
H2448 H 0.23402 0.36282 0.44389 0.0
H2449 H 0.19783 0.33509 0.43877 0.0
C2450 C 0.26962 0.40085 0.37637 0.0
C2451 C 0.26161 0.37071 0.36976 0.0
C2452 C 0.25143 0.40907 0.38879 0.0
C2453 C 0.2249 0.38732 0.39501 0.0
C2454 C 0.21646 0.35739 0.38793 0.0
H2455 H 0.08672 0.39661 0.46925 0.0
H2456 H 0.11711 0.3812 0.4467 0.0
C2457 C 0.23465 0.34914 0.37546 0.0
C2458 C 0.2061 0.39614 0.40877 0.0
H2459 H 0.17598 0.38043 0.46379 0.0
C2460 C 0.19554 0.41984 0.3975 0.0
C2461 C 0.19912 0.38186 0.43304 0.0
C2462 C 0.21092 0.35727 0.44663 0.0
C2463 C 0.17789 0.42937 0.4097 0.0
C2464 C 0.17094 0.41509 0.43395 0.0
C2465 C 0.18135 0.39131 0.44518 0.0
C2466 C 0.15283 0.42454 0.44795 0.0
C2467 C 0.16639 0.45429 0.39639 0.0
C2468 C 0.16305 0.45389 0.45649 0.0
C2469 C 0.14581 0.46278 0.46953 0.0
C2470 C 0.11794 0.44247 0.47424 0.0
C2471 C 0.10798 0.41292 0.46589 0.0
C2472 C 0.12532 0.40402 0.45301 0.0
H2473 H 0.16843 0.45823 0.37582 0.0
H2474 H 0.14307 0.44841 0.39859 0.0
H2475 H 0.17904 0.47607 0.40503 0.0
H2476 H 0.18441 0.46992 0.4531 0.0
H2477 H 0.15422 0.48568 0.47567 0.0
H2478 H 0.37463 0.26214 0.60124 0.0
H2479 H 0.38805 0.22688 0.58112 0.0
H2480 H 0.39429 0.17282 0.65298 0.0
H2481 H 0.3824 0.20888 0.67356 0.0
H2482 H 0.44046 0.18322 0.63001 0.0
H2483 H 0.34092 0.14223 0.56067 0.0
H2484 H 0.35685 0.1833 0.55768 0.0
H2485 H 0.34255 0.16355 0.58644 0.0
C2486 C 0.37895 0.24283 0.61284 0.0
C2487 C 0.37742 0.23847 0.63909 0.0
C2488 C 0.38618 0.22237 0.60119 0.0
C2489 C 0.39164 0.1968 0.6154 0.0
C2490 C 0.38991 0.19221 0.64155 0.0
H2491 H 0.41882 0.0546 0.54367 0.0
H2492 H 0.39853 0.08145 0.56692 0.0
C2493 C 0.38287 0.21277 0.65326 0.0
C2494 C 0.40101 0.17604 0.60332 0.0
H2495 H 0.38327 0.13293 0.55314 0.0
C2496 C 0.42777 0.17198 0.61336 0.0
C2497 C 0.38428 0.16087 0.58185 0.0
C2498 C 0.35441 0.16242 0.5712 0.0
C2499 C 0.43875 0.15417 0.60201 0.0
C2500 C 0.42293 0.14065 0.57958 0.0
C2501 C 0.39562 0.14366 0.5701 0.0
C2502 C 0.4349 0.12427 0.56526 0.0
C2503 C 0.46719 0.14996 0.61426 0.0
C2504 C 0.46177 0.13956 0.55617 0.0
C2505 C 0.47348 0.12431 0.54305 0.0
C2506 C 0.4584 0.09343 0.53839 0.0
C2507 C 0.43108 0.07833 0.54697 0.0
C2508 C 0.41944 0.09364 0.56026 0.0
H2509 H 0.47148 0.15306 0.63484 0.0
H2510 H 0.46722 0.12685 0.61195 0.0
H2511 H 0.48543 0.16746 0.60519 0.0
H2512 H 0.47374 0.16344 0.55916 0.0
H2513 H 0.49438 0.13686 0.53649 0.0
H2514 H 0.80379 0.29051 0.68952 0.0
H2515 H 0.8342 0.32212 0.65759 0.0
H2516 H 0.9032 0.36169 0.71699 0.0
H2517 H 0.87274 0.32986 0.74903 0.0
H2518 H 0.85953 0.38408 0.6474 0.0
H2519 H 0.94504 0.33034 0.67508 0.0
H2520 H 0.91008 0.31445 0.68658 0.0
H2521 H 0.93857 0.34621 0.70079 0.0
C2522 C 0.82514 0.30636 0.6958 0.0
C2523 C 0.83566 0.30821 0.7218 0.0
C2524 C 0.84267 0.32425 0.6775 0.0
C2525 C 0.87123 0.34392 0.68484 0.0
C2526 C 0.88151 0.34622 0.71082 0.0
H2527 H 0.97321 0.4906 0.58456 0.0
H2528 H 0.94803 0.45982 0.61998 0.0
C2529 C 0.86402 0.32826 0.7291 0.0
C2530 C 0.89025 0.36183 0.66532 0.0
H2531 H 0.95581 0.37474 0.64537 0.0
C2532 C 0.88056 0.38199 0.64695 0.0
C2533 C 0.91748 0.35871 0.66441 0.0
C2534 C 0.92833 0.33604 0.6826 0.0
C2535 C 0.89751 0.39951 0.62802 0.0
C2536 C 0.92531 0.39737 0.62775 0.0
C2537 C 0.93474 0.37673 0.64579 0.0
C2538 C 0.94459 0.41618 0.60864 0.0
C2539 C 0.88516 0.41969 0.60817 0.0
C2540 C 0.95287 0.40209 0.59147 0.0
C2541 C 0.96794 0.4198 0.57152 0.0
C2542 C 0.97506 0.45181 0.56865 0.0
C2543 C 0.96831 0.46597 0.58667 0.0
C2544 C 0.95354 0.44836 0.60666 0.0
H2545 H 0.86098 0.41224 0.60673 0.0
H2546 H 0.89433 0.44363 0.61344 0.0
H2547 H 0.89095 0.41958 0.58921 0.0
H2548 H 0.94634 0.37731 0.59269 0.0
H2549 H 0.97235 0.40839 0.55748 0.0
H2550 H 0.28767 0.72195 0.67894 0.0
H2551 H 0.26916 0.7019 0.63765 0.0
H2552 H 0.18166 0.69244 0.64759 0.0
H2553 H 0.20023 0.71377 0.68841 0.0
H2554 H 0.23518 0.6486 0.62665 0.0
H2555 H 0.18222 0.72985 0.57675 0.0
H2556 H 0.20526 0.73683 0.60681 0.0
H2557 H 0.16682 0.71436 0.60555 0.0
C2558 C 0.2645 0.71586 0.67223 0.0
C2559 C 0.24531 0.71917 0.687 0.0
C2560 C 0.25399 0.70448 0.64857 0.0
C2561 C 0.2241 0.69606 0.63929 0.0
C2562 C 0.20495 0.69961 0.65397 0.0
H2563 H 0.10752 0.55123 0.56669 0.0
H2564 H 0.15256 0.58385 0.58919 0.0
C2565 C 0.21552 0.71146 0.67746 0.0
C2566 C 0.21242 0.68111 0.61539 0.0
H2567 H 0.16037 0.67736 0.564 0.0
C2568 C 0.21934 0.65533 0.61257 0.0
C2569 C 0.19267 0.6904 0.59638 0.0
C2570 C 0.18665 0.71965 0.59644 0.0
C2571 C 0.20486 0.63699 0.5926 0.0
C2572 C 0.18215 0.64399 0.5757 0.0
C2573 C 0.17738 0.67143 0.57712 0.0
C2574 C 0.16004 0.62145 0.55928 0.0
C2575 C 0.21362 0.60996 0.59032 0.0
C2576 C 0.14926 0.63128 0.53473 0.0
C2577 C 0.1227 0.61311 0.52237 0.0
C2578 C 0.10707 0.58451 0.53408 0.0
C2579 C 0.11934 0.57322 0.5573 0.0
C2580 C 0.14537 0.59178 0.57004 0.0
H2581 H 0.23766 0.61579 0.59533 0.0
H2582 H 0.20322 0.59052 0.60399 0.0
H2583 H 0.20709 0.60247 0.57086 0.0
H2584 H 0.16022 0.65399 0.52597 0.0
H2585 H 0.11369 0.62204 0.50427 0.0
loop_
_geom_bond_atom_site_label_1
_geom_bond_atom_site_label_2
_geom_bond_distance
_geom_bond_site_symmetry_2
_ccdc_geom_bond_type
Tb0 N31 2.660 . S
Tb0 N38 2.600 . S
Tb0 O44 2.546 . S
Tb0 O45 2.610 . S
Tb0 O47 2.320 . S
Tb0 O48 2.552 . S
Tb0 O49 2.413 . S
Tb0 O51 2.362 . S
Tb0 O52 2.421 . S
Tb0 C64 2.833 . S
C1 C4 1.432 . S
C1 C5 1.414 . S
C1 N8 1.359 . S
C2 C4 1.417 . S
C2 C6 1.432 . S
C2 C14 1.410 . S
C3 C5 1.444 . S
C3 C6 1.317 . S
C3 H26 0.929 . S
C4 C1 1.432 . S
C4 C2 1.417 . S
C4 N12 1.360 . S
C5 C1 1.414 . S
C5 C3 1.444 . S
C5 C10 1.385 . S
C6 C2 1.432 . S
C6 C3 1.317 . S
C6 H18 0.930 . S
C7 C9 1.392 . S
C7 C10 1.370 . S
C7 H19 0.931 . S
N8 C1 1.359 . S
N8 C9 1.327 . S
N8 Tb11 2.600 . S
C9 C7 1.392 . S
C9 N8 1.327 . S
C9 H16 0.930 . S
C10 C5 1.385 . S
C10 C7 1.370 . S
C10 H29 0.930 . S
Tb11 N8 2.600 . S
Tb11 N12 2.660 . S
Tb11 O45 2.362 . S
Tb11 O46 2.421 . S
Tb11 O50 2.546 . S
Tb11 O51 2.610 . S
Tb11 O53 2.320 . S
Tb11 O54 2.552 . S
Tb11 O55 2.413 . S
Tb11 C75 2.833 . S
N12 C4 1.360 . S
N12 Tb11 2.660 . S
N12 C13 1.305 . S
C13 N12 1.305 . S
C13 C15 1.407 . S
C13 H20 0.930 . S
C14 C2 1.410 . S
C14 C15 1.345 . S
C14 H22 0.930 . S
C15 C13 1.407 . S
C15 C14 1.345 . S
C15 H17 0.930 . S
H16 C9 0.930 . S
H17 C15 0.930 . S
H18 C6 0.930 . S
H19 C7 0.931 . S
H20 C13 0.930 . S
H21 C35 0.930 . S
H22 C14 0.930 . S
H23 C41 0.930 . S
H24 C32 0.930 . S
H25 C39 0.931 . S
H26 C3 0.929 . S
H27 C33 0.930 . S
H28 C66 0.930 . S
H29 C10 0.930 . S
H30 C65 0.929 . S
N31 Tb0 2.660 . S
N31 C32 1.305 . S
N31 C36 1.360 . S
C32 H24 0.930 . S
C32 N31 1.305 . S
C32 C35 1.407 . S
C33 H27 0.930 . S
C33 C34 1.410 . S
C33 C35 1.345 . S
C34 C33 1.410 . S
C34 C36 1.417 . S
C34 C66 1.432 . S
C35 H21 0.930 . S
C35 C32 1.407 . S
C35 C33 1.345 . S
C36 N31 1.360 . S
C36 C34 1.417 . S
C36 C40 1.432 . S
H37 C42 0.930 . S
N38 Tb0 2.600 . S
N38 C40 1.359 . S
N38 C41 1.327 . S
C39 H25 0.931 . S
C39 C41 1.392 . S
C39 C42 1.370 . S
C40 C36 1.432 . S
C40 N38 1.359 . S
C40 C43 1.414 . S
C41 H23 0.930 . S
C41 N38 1.327 . S
C41 C39 1.392 . S
C42 H37 0.930 . S
C42 C39 1.370 . S
C42 C43 1.385 . S
C43 C40 1.414 . S
C43 C42 1.385 . S
C43 C65 1.444 . S
O44 Tb0 2.546 . S
O44 C64 1.251 . S
O45 Tb0 2.610 . S
O45 Tb11 2.362 . S
O45 C56 1.283 . S
O46 Tb11 2.421 . S
O46 C63 1.262 . S
O47 Tb0 2.320 . S
O47 C63 1.260 . S
O48 Tb0 2.552 . S
O48 C56 1.243 . S
O49 Tb0 2.413 . S
O49 C64 1.256 . S
O50 Tb11 2.546 . S
O50 C75 1.251 . S
O51 Tb0 2.362 . S
O51 Tb11 2.610 . S
O51 C67 1.283 . S
O52 Tb0 2.421 . S
O52 C74 1.262 . S
O53 Tb11 2.320 . S
O53 C74 1.260 . S
O54 Tb11 2.552 . S
O54 C67 1.243 . S
O55 Tb11 2.413 . S
O55 C75 1.256 . S
C56 O45 1.283 . S
C56 O48 1.243 . S
C57 C59 1.382 . S
C57 C61 1.393 . S
C57 C64 1.500 . S
C58 C59 1.400 . S
C58 C60 1.384 . S
C59 C57 1.382 . S
C59 C58 1.400 . S
C59 H76 0.930 . S
C60 C58 1.384 . S
C60 C62 1.392 . S
C60 H77 0.931 . S
C61 C57 1.393 . S
C61 C62 1.401 . S
C61 H78 0.930 . S
C62 C60 1.392 . S
C62 C61 1.401 . S
C62 H79 0.930 . S
C63 O46 1.262 . S
C63 O47 1.260 . S
C64 Tb0 2.833 . S
C64 O44 1.251 . S
C64 O49 1.256 . S
C64 C57 1.500 . S
C65 H30 0.929 . S
C65 C43 1.444 . S
C65 C66 1.317 . S
C66 H28 0.930 . S
C66 C34 1.432 . S
C66 C65 1.317 . S
C67 O51 1.283 . S
C67 O54 1.243 . S
C68 C69 1.382 . S
C68 C72 1.393 . S
C68 C75 1.500 . S
C69 C68 1.382 . S
C69 C70 1.400 . S
C69 H80 0.930 . S
C70 C69 1.400 . S
C70 C71 1.384 . S
C71 C70 1.384 . S
C71 C73 1.392 . S
C71 H81 0.931 . S
C72 C68 1.393 . S
C72 C73 1.401 . S
C72 H82 0.930 . S
C73 C71 1.392 . S
C73 C72 1.401 . S
C73 H83 0.930 . S
C74 O52 1.262 . S
C74 O53 1.260 . S
C75 Tb11 2.833 . S
C75 O50 1.251 . S
C75 O55 1.256 . S
C75 C68 1.500 . S
H76 C59 0.930 . S
H77 C60 0.931 . S
H78 C61 0.930 . S
H79 C62 0.930 . S
H80 C69 0.930 . S
H81 C71 0.931 . S
H82 C72 0.930 . S
H83 C73 0.930 . S
Tb84 N115 2.660 . S
Tb84 N122 2.600 . S
Tb84 O128 2.546 . S
Tb84 O129 2.610 . S
Tb84 O131 2.320 . S
Tb84 O132 2.552 . S
Tb84 O133 2.413 . S
Tb84 O135 2.362 . S
Tb84 O136 2.421 . S
Tb84 C148 2.833 . S
C85 C88 1.432 . S
C85 C89 1.414 . S
C85 N92 1.359 . S
C86 C88 1.417 . S
C86 C90 1.432 . S
C86 C98 1.410 . S
C87 C89 1.444 . S
C87 C90 1.317 . S
C87 H110 0.929 . S
C88 C85 1.432 . S
C88 C86 1.417 . S
C88 N96 1.360 . S
C89 C85 1.414 . S
C89 C87 1.444 . S
C89 C94 1.385 . S
C90 C86 1.432 . S
C90 C87 1.317 . S
C90 H102 0.930 . S
C91 C93 1.392 . S
C91 C94 1.370 . S
C91 H103 0.931 . S
N92 C85 1.359 . S
N92 C93 1.327 . S
N92 Tb95 2.600 . S
C93 C91 1.392 . S
C93 N92 1.327 . S
C93 H100 0.930 . S
C94 C89 1.385 . S
C94 C91 1.370 . S
C94 H113 0.930 . S
Tb95 N92 2.600 . S
Tb95 N96 2.660 . S
Tb95 O129 2.362 . S
Tb95 O130 2.421 . S
Tb95 O134 2.546 . S
Tb95 O135 2.610 . S
Tb95 O137 2.320 . S
Tb95 O138 2.552 . S
Tb95 O139 2.413 . S
Tb95 C159 2.833 . S
N96 C88 1.360 . S
N96 Tb95 2.660 . S
N96 C97 1.305 . S
C97 N96 1.305 . S
C97 C99 1.407 . S
C97 H104 0.930 . S
C98 C86 1.410 . S
C98 C99 1.345 . S
C98 H106 0.930 . S
C99 C97 1.407 . S
C99 C98 1.345 . S
C99 H101 0.930 . S
H100 C93 0.930 . S
H101 C99 0.930 . S
H102 C90 0.930 . S
H103 C91 0.931 . S
H104 C97 0.930 . S
H105 C119 0.930 . S
H106 C98 0.930 . S
H107 C125 0.930 . S
H108 C116 0.930 . S
H109 C123 0.931 . S
H110 C87 0.929 . S
H111 C117 0.930 . S
H112 C150 0.930 . S
H113 C94 0.930 . S
H114 C149 0.929 . S
N115 Tb84 2.660 . S
N115 C116 1.305 . S
N115 C120 1.360 . S
C116 H108 0.930 . S
C116 N115 1.305 . S
C116 C119 1.407 . S
C117 H111 0.930 . S
C117 C118 1.410 . S
C117 C119 1.345 . S
C118 C117 1.410 . S
C118 C120 1.417 . S
C118 C150 1.432 . S
C119 H105 0.930 . S
C119 C116 1.407 . S
C119 C117 1.345 . S
C120 N115 1.360 . S
C120 C118 1.417 . S
C120 C124 1.432 . S
H121 C126 0.930 . S
N122 Tb84 2.600 . S
N122 C124 1.359 . S
N122 C125 1.327 . S
C123 H109 0.931 . S
C123 C125 1.392 . S
C123 C126 1.370 . S
C124 C120 1.432 . S
C124 N122 1.359 . S
C124 C127 1.414 . S
C125 H107 0.930 . S
C125 N122 1.327 . S
C125 C123 1.392 . S
C126 H121 0.930 . S
C126 C123 1.370 . S
C126 C127 1.385 . S
C127 C124 1.414 . S
C127 C126 1.385 . S
C127 C149 1.444 . S
O128 Tb84 2.546 . S
O128 C148 1.251 . S
O129 Tb84 2.610 . S
O129 Tb95 2.362 . S
O129 C140 1.283 . S
O130 Tb95 2.421 . S
O130 C147 1.262 . S
O131 Tb84 2.320 . S
O131 C147 1.260 . S
O132 Tb84 2.552 . S
O132 C140 1.243 . S
O133 Tb84 2.413 . S
O133 C148 1.256 . S
O134 Tb95 2.546 . S
O134 C159 1.251 . S
O135 Tb84 2.362 . S
O135 Tb95 2.610 . S
O135 C151 1.283 . S
O136 Tb84 2.421 . S
O136 C158 1.262 . S
O137 Tb95 2.320 . S
O137 C158 1.260 . S
O138 Tb95 2.552 . S
O138 C151 1.243 . S
O139 Tb95 2.413 . S
O139 C159 1.256 . S
C140 O129 1.283 . S
C140 O132 1.243 . S
C141 C143 1.382 . S
C141 C145 1.393 . S
C141 C148 1.500 . S
C142 C143 1.400 . S
C142 C144 1.384 . S
C143 C141 1.382 . S
C143 C142 1.400 . S
C143 H160 0.930 . S
C144 C142 1.384 . S
C144 C146 1.392 . S
C144 H161 0.931 . S
C145 C141 1.393 . S
C145 C146 1.401 . S
C145 H162 0.930 . S
C146 C144 1.392 . S
C146 C145 1.401 . S
C146 H163 0.930 . S
C147 O130 1.262 . S
C147 O131 1.260 . S
C148 Tb84 2.833 . S
C148 O128 1.251 . S
C148 O133 1.256 . S
C148 C141 1.500 . S
C149 H114 0.929 . S
C149 C127 1.444 . S
C149 C150 1.317 . S
C150 H112 0.930 . S
C150 C118 1.432 . S
C150 C149 1.317 . S
C151 O135 1.283 . S
C151 O138 1.243 . S
C152 C153 1.382 . S
C152 C156 1.393 . S
C152 C159 1.500 . S
C153 C152 1.382 . S
C153 C154 1.400 . S
C153 H164 0.930 . S
C154 C153 1.400 . S
C154 C155 1.384 . S
C155 C154 1.384 . S
C155 C157 1.392 . S
C155 H165 0.931 . S
C156 C152 1.393 . S
C156 C157 1.401 . S
C156 H166 0.930 . S
C157 C155 1.392 . S
C157 C156 1.401 . S
C157 H167 0.930 . S
C158 O136 1.262 . S
C158 O137 1.260 . S
C159 Tb95 2.833 . S
C159 O134 1.251 . S
C159 O139 1.256 . S
C159 C152 1.500 . S
H160 C143 0.930 . S
H161 C144 0.931 . S
H162 C145 0.930 . S
H163 C146 0.930 . S
H164 C153 0.930 . S
H165 C155 0.931 . S
H166 C156 0.930 . S
H167 C157 0.930 . S
Tb168 N199 2.660 . S
Tb168 N206 2.600 . S
Tb168 O212 2.546 . S
Tb168 O213 2.610 . S
Tb168 O215 2.320 . S
Tb168 O216 2.552 . S
Tb168 O217 2.413 . S
Tb168 O219 2.362 . S
Tb168 O220 2.421 . S
Tb168 C232 2.833 . S
C169 C172 1.432 . S
C169 C173 1.414 . S
C169 N176 1.359 . S
C170 C172 1.417 . S
C170 C174 1.432 . S
C170 C182 1.410 . S
C171 C173 1.444 . S
C171 C174 1.317 . S
C171 H194 0.929 . S
C172 C169 1.432 . S
C172 C170 1.417 . S
C172 N180 1.360 . S
C173 C169 1.414 . S
C173 C171 1.444 . S
C173 C178 1.385 . S
C174 C170 1.432 . S
C174 C171 1.317 . S
C174 H186 0.930 . S
C175 C177 1.392 . S
C175 C178 1.370 . S
C175 H187 0.931 . S
N176 C169 1.359 . S
N176 C177 1.327 . S
N176 Tb179 2.600 . S
C177 C175 1.392 . S
C177 N176 1.327 . S
C177 H184 0.930 . S
C178 C173 1.385 . S
C178 C175 1.370 . S
C178 H197 0.930 . S
Tb179 N176 2.600 . S
Tb179 N180 2.660 . S
Tb179 O213 2.362 . S
Tb179 O214 2.421 . S
Tb179 O218 2.546 . S
Tb179 O219 2.610 . S
Tb179 O221 2.320 . S
Tb179 O222 2.552 . S
Tb179 O223 2.413 . S
Tb179 C243 2.833 . S
N180 C172 1.360 . S
N180 Tb179 2.660 . S
N180 C181 1.305 . S
C181 N180 1.305 . S
C181 C183 1.407 . S
C181 H188 0.930 . S
C182 C170 1.410 . S
C182 C183 1.345 . S
C182 H190 0.930 . S
C183 C181 1.407 . S
C183 C182 1.345 . S
C183 H185 0.930 . S
H184 C177 0.930 . S
H185 C183 0.930 . S
H186 C174 0.930 . S
H187 C175 0.931 . S
H188 C181 0.930 . S
H189 C203 0.930 . S
H190 C182 0.930 . S
H191 C209 0.930 . S
H192 C200 0.930 . S
H193 C207 0.931 . S
H194 C171 0.929 . S
H195 C201 0.930 . S
H196 C234 0.930 . S
H197 C178 0.930 . S
H198 C233 0.929 . S
N199 Tb168 2.660 . S
N199 C200 1.305 . S
N199 C204 1.360 . S
C200 H192 0.930 . S
C200 N199 1.305 . S
C200 C203 1.407 . S
C201 H195 0.930 . S
C201 C202 1.410 . S
C201 C203 1.345 . S
C202 C201 1.410 . S
C202 C204 1.417 . S
C202 C234 1.432 . S
C203 H189 0.930 . S
C203 C200 1.407 . S
C203 C201 1.345 . S
C204 N199 1.360 . S
C204 C202 1.417 . S
C204 C208 1.432 . S
H205 C210 0.930 . S
N206 Tb168 2.600 . S
N206 C208 1.359 . S
N206 C209 1.327 . S
C207 H193 0.931 . S
C207 C209 1.392 . S
C207 C210 1.370 . S
C208 C204 1.432 . S
C208 N206 1.359 . S
C208 C211 1.414 . S
C209 H191 0.930 . S
C209 N206 1.327 . S
C209 C207 1.392 . S
C210 H205 0.930 . S
C210 C207 1.370 . S
C210 C211 1.385 . S
C211 C208 1.414 . S
C211 C210 1.385 . S
C211 C233 1.444 . S
O212 Tb168 2.546 . S
O212 C232 1.251 . S
O213 Tb168 2.610 . S
O213 Tb179 2.362 . S
O213 C224 1.283 . S
O214 Tb179 2.421 . S
O214 C231 1.262 . S
O215 Tb168 2.320 . S
O215 C231 1.260 . S
O216 Tb168 2.552 . S
O216 C224 1.243 . S
O217 Tb168 2.413 . S
O217 C232 1.256 . S
O218 Tb179 2.546 . S
O218 C243 1.251 . S
O219 Tb168 2.362 . S
O219 Tb179 2.610 . S
O219 C235 1.283 . S
O220 Tb168 2.421 . S
O220 C242 1.262 . S
O221 Tb179 2.320 . S
O221 C242 1.260 . S
O222 Tb179 2.552 . S
O222 C235 1.243 . S
O223 Tb179 2.413 . S
O223 C243 1.256 . S
C224 O213 1.283 . S
C224 O216 1.243 . S
C225 C227 1.382 . S
C225 C229 1.393 . S
C225 C232 1.500 . S
C226 C227 1.400 . S
C226 C228 1.384 . S
C227 C225 1.382 . S
C227 C226 1.400 . S
C227 H244 0.930 . S
C228 C226 1.384 . S
C228 C230 1.392 . S
C228 H245 0.931 . S
C229 C225 1.393 . S
C229 C230 1.401 . S
C229 H246 0.930 . S
C230 C228 1.392 . S
C230 C229 1.401 . S
C230 H247 0.930 . S
C231 O214 1.262 . S
C231 O215 1.260 . S
C232 Tb168 2.833 . S
C232 O212 1.251 . S
C232 O217 1.256 . S
C232 C225 1.500 . S
C233 H198 0.929 . S
C233 C211 1.444 . S
C233 C234 1.317 . S
C234 H196 0.930 . S
C234 C202 1.432 . S
C234 C233 1.317 . S
C235 O219 1.283 . S
C235 O222 1.243 . S
C236 C237 1.382 . S
C236 C240 1.393 . S
C236 C243 1.500 . S
C237 C236 1.382 . S
C237 C238 1.400 . S
C237 H248 0.930 . S
C238 C237 1.400 . S
C238 C239 1.384 . S
C239 C238 1.384 . S
C239 C241 1.392 . S
C239 H249 0.931 . S
C240 C236 1.393 . S
C240 C241 1.401 . S
C240 H250 0.930 . S
C241 C239 1.392 . S
C241 C240 1.401 . S
C241 H251 0.930 . S
C242 O220 1.262 . S
C242 O221 1.260 . S
C243 Tb179 2.833 . S
C243 O218 1.251 . S
C243 O223 1.256 . S
C243 C236 1.500 . S
H244 C227 0.930 . S
H245 C228 0.931 . S
H246 C229 0.930 . S
H247 C230 0.930 . S
H248 C237 0.930 . S
H249 C239 0.931 . S
H250 C240 0.930 . S
H251 C241 0.930 . S
Tb252 N283 2.660 . S
Tb252 N290 2.600 . S
Tb252 O296 2.546 . S
Tb252 O297 2.610 . S
Tb252 O299 2.320 . S
Tb252 O300 2.552 . S
Tb252 O301 2.413 . S
Tb252 O303 2.362 . S
Tb252 O304 2.421 . S
Tb252 C316 2.833 . S
C253 C256 1.432 . S
C253 C257 1.414 . S
C253 N260 1.359 . S
C254 C256 1.417 . S
C254 C258 1.432 . S
C254 C266 1.410 . S
C255 C257 1.444 . S
C255 C258 1.317 . S
C255 H278 0.929 . S
C256 C253 1.432 . S
C256 C254 1.417 . S
C256 N264 1.360 . S
C257 C253 1.414 . S
C257 C255 1.444 . S
C257 C262 1.385 . S
C258 C254 1.432 . S
C258 C255 1.317 . S
C258 H270 0.930 . S
C259 C261 1.392 . S
C259 C262 1.370 . S
C259 H271 0.931 . S
N260 C253 1.359 . S
N260 C261 1.327 . S
N260 Tb263 2.600 . S
C261 C259 1.392 . S
C261 N260 1.327 . S
C261 H268 0.930 . S
C262 C257 1.385 . S
C262 C259 1.370 . S
C262 H281 0.930 . S
Tb263 N260 2.600 . S
Tb263 N264 2.660 . S
Tb263 O297 2.362 . S
Tb263 O298 2.421 . S
Tb263 O302 2.546 . S
Tb263 O303 2.610 . S
Tb263 O305 2.320 . S
Tb263 O306 2.552 . S
Tb263 O307 2.413 . S
Tb263 C327 2.833 . S
N264 C256 1.360 . S
N264 Tb263 2.660 . S
N264 C265 1.305 . S
C265 N264 1.305 . S
C265 C267 1.407 . S
C265 H272 0.930 . S
C266 C254 1.410 . S
C266 C267 1.345 . S
C266 H274 0.930 . S
C267 C265 1.407 . S
C267 C266 1.345 . S
C267 H269 0.930 . S
H268 C261 0.930 . S
H269 C267 0.930 . S
H270 C258 0.930 . S
H271 C259 0.931 . S
H272 C265 0.930 . S
H273 C287 0.930 . S
H274 C266 0.930 . S
H275 C293 0.930 . S
H276 C284 0.930 . S
H277 C291 0.931 . S
H278 C255 0.929 . S
H279 C285 0.930 . S
H280 C318 0.930 . S
H281 C262 0.930 . S
H282 C317 0.929 . S
N283 Tb252 2.660 . S
N283 C284 1.305 . S
N283 C288 1.360 . S
C284 H276 0.930 . S
C284 N283 1.305 . S
C284 C287 1.407 . S
C285 H279 0.930 . S
C285 C286 1.410 . S
C285 C287 1.345 . S
C286 C285 1.410 . S
C286 C288 1.417 . S
C286 C318 1.432 . S
C287 H273 0.930 . S
C287 C284 1.407 . S
C287 C285 1.345 . S
C288 N283 1.360 . S
C288 C286 1.417 . S
C288 C292 1.432 . S
H289 C294 0.930 . S
N290 Tb252 2.600 . S
N290 C292 1.359 . S
N290 C293 1.327 . S
C291 H277 0.931 . S
C291 C293 1.392 . S
C291 C294 1.370 . S
C292 C288 1.432 . S
C292 N290 1.359 . S
C292 C295 1.414 . S
C293 H275 0.930 . S
C293 N290 1.327 . S
C293 C291 1.392 . S
C294 H289 0.930 . S
C294 C291 1.370 . S
C294 C295 1.385 . S
C295 C292 1.414 . S
C295 C294 1.385 . S
C295 C317 1.444 . S
O296 Tb252 2.546 . S
O296 C316 1.251 . S
O297 Tb252 2.610 . S
O297 Tb263 2.362 . S
O297 C308 1.283 . S
O298 Tb263 2.421 . S
O298 C315 1.262 . S
O299 Tb252 2.320 . S
O299 C315 1.260 . S
O300 Tb252 2.552 . S
O300 C308 1.243 . S
O301 Tb252 2.413 . S
O301 C316 1.256 . S
O302 Tb263 2.546 . S
O302 C327 1.251 . S
O303 Tb252 2.362 . S
O303 Tb263 2.610 . S
O303 C319 1.283 . S
O304 Tb252 2.421 . S
O304 C326 1.262 . S
O305 Tb263 2.320 . S
O305 C326 1.260 . S
O306 Tb263 2.552 . S
O306 C319 1.243 . S
O307 Tb263 2.413 . S
O307 C327 1.256 . S
C308 O297 1.283 . S
C308 O300 1.243 . S
C309 C311 1.382 . S
C309 C313 1.393 . S
C309 C316 1.500 . S
C310 C311 1.400 . S
C310 C312 1.384 . S
C311 C309 1.382 . S
C311 C310 1.400 . S
C311 H328 0.930 . S
C312 C310 1.384 . S
C312 C314 1.392 . S
C312 H329 0.931 . S
C313 C309 1.393 . S
C313 C314 1.401 . S
C313 H330 0.930 . S
C314 C312 1.392 . S
C314 C313 1.401 . S
C314 H331 0.930 . S
C315 O298 1.262 . S
C315 O299 1.260 . S
C316 Tb252 2.833 . S
C316 O296 1.251 . S
C316 O301 1.256 . S
C316 C309 1.500 . S
C317 H282 0.929 . S
C317 C295 1.444 . S
C317 C318 1.317 . S
C318 H280 0.930 . S
C318 C286 1.432 . S
C318 C317 1.317 . S
C319 O303 1.283 . S
C319 O306 1.243 . S
C320 C321 1.382 . S
C320 C324 1.393 . S
C320 C327 1.500 . S
C321 C320 1.382 . S
C321 C322 1.400 . S
C321 H332 0.930 . S
C322 C321 1.400 . S
C322 C323 1.384 . S
C323 C322 1.384 . S
C323 C325 1.392 . S
C323 H333 0.931 . S
C324 C320 1.393 . S
C324 C325 1.401 . S
C324 H334 0.930 . S
C325 C323 1.392 . S
C325 C324 1.401 . S
C325 H335 0.930 . S
C326 O304 1.262 . S
C326 O305 1.260 . S
C327 Tb263 2.833 . S
C327 O302 1.251 . S
C327 O307 1.256 . S
C327 C320 1.500 . S
H328 C311 0.930 . S
H329 C312 0.931 . S
H330 C313 0.930 . S
H331 C314 0.930 . S
H332 C321 0.930 . S
H333 C323 0.931 . S
H334 C324 0.930 . S
H335 C325 0.930 . S
Tb336 N367 2.660 . S
Tb336 N374 2.600 . S
Tb336 O380 2.546 . S
Tb336 O381 2.610 . S
Tb336 O383 2.320 . S
Tb336 O384 2.552 . S
Tb336 O385 2.413 . S
Tb336 O387 2.362 . S
Tb336 O388 2.421 . S
Tb336 C400 2.833 . S
C337 C340 1.432 . S
C337 C341 1.414 . S
C337 N344 1.359 . S
C338 C340 1.417 . S
C338 C342 1.432 . S
C338 C350 1.410 . S
C339 C341 1.444 . S
C339 C342 1.317 . S
C339 H362 0.929 . S
C340 C337 1.432 . S
C340 C338 1.417 . S
C340 N348 1.360 . S
C341 C337 1.414 . S
C341 C339 1.444 . S
C341 C346 1.385 . S
C342 C338 1.432 . S
C342 C339 1.317 . S
C342 H354 0.930 . S
C343 C345 1.392 . S
C343 C346 1.370 . S
C343 H355 0.931 . S
N344 C337 1.359 . S
N344 C345 1.327 . S
N344 Tb347 2.600 . S
C345 C343 1.392 . S
C345 N344 1.327 . S
C345 H352 0.930 . S
C346 C341 1.385 . S
C346 C343 1.370 . S
C346 H365 0.930 . S
Tb347 N344 2.600 . S
Tb347 N348 2.660 . S
Tb347 O381 2.362 . S
Tb347 O382 2.421 . S
Tb347 O386 2.546 . S
Tb347 O387 2.610 . S
Tb347 O389 2.320 . S
Tb347 O390 2.552 . S
Tb347 O391 2.413 . S
Tb347 C411 2.833 . S
N348 C340 1.360 . S
N348 Tb347 2.660 . S
N348 C349 1.305 . S
C349 N348 1.305 . S
C349 C351 1.407 . S
C349 H356 0.930 . S
C350 C338 1.410 . S
C350 C351 1.345 . S
C350 H358 0.930 . S
C351 C349 1.407 . S
C351 C350 1.345 . S
C351 H353 0.930 . S
H352 C345 0.930 . S
H353 C351 0.930 . S
H354 C342 0.930 . S
H355 C343 0.931 . S
H356 C349 0.930 . S
H357 C371 0.930 . S
H358 C350 0.930 . S
H359 C377 0.930 . S
H360 C368 0.930 . S
H361 C375 0.931 . S
H362 C339 0.929 . S
H363 C369 0.930 . S
H364 C402 0.930 . S
H365 C346 0.930 . S
H366 C401 0.929 . S
N367 Tb336 2.660 . S
N367 C368 1.305 . S
N367 C372 1.360 . S
C368 H360 0.930 . S
C368 N367 1.305 . S
C368 C371 1.407 . S
C369 H363 0.930 . S
C369 C370 1.410 . S
C369 C371 1.345 . S
C370 C369 1.410 . S
C370 C372 1.417 . S
C370 C402 1.432 . S
C371 H357 0.930 . S
C371 C368 1.407 . S
C371 C369 1.345 . S
C372 N367 1.360 . S
C372 C370 1.417 . S
C372 C376 1.432 . S
H373 C378 0.930 . S
N374 Tb336 2.600 . S
N374 C376 1.359 . S
N374 C377 1.327 . S
C375 H361 0.931 . S
C375 C377 1.392 . S
C375 C378 1.370 . S
C376 C372 1.432 . S
C376 N374 1.359 . S
C376 C379 1.414 . S
C377 H359 0.930 . S
C377 N374 1.327 . S
C377 C375 1.392 . S
C378 H373 0.930 . S
C378 C375 1.370 . S
C378 C379 1.385 . S
C379 C376 1.414 . S
C379 C378 1.385 . S
C379 C401 1.444 . S
O380 Tb336 2.546 . S
O380 C400 1.251 . S
O381 Tb336 2.610 . S
O381 Tb347 2.362 . S
O381 C392 1.283 . S
O382 Tb347 2.421 . S
O382 C399 1.262 . S
O383 Tb336 2.320 . S
O383 C399 1.260 . S
O384 Tb336 2.552 . S
O384 C392 1.243 . S
O385 Tb336 2.413 . S
O385 C400 1.256 . S
O386 Tb347 2.546 . S
O386 C411 1.251 . S
O387 Tb336 2.362 . S
O387 Tb347 2.610 . S
O387 C403 1.283 . S
O388 Tb336 2.421 . S
O388 C410 1.262 . S
O389 Tb347 2.320 . S
O389 C410 1.260 . S
O390 Tb347 2.552 . S
O390 C403 1.243 . S
O391 Tb347 2.413 . S
O391 C411 1.256 . S
C392 O381 1.283 . S
C392 O384 1.243 . S
C393 C395 1.382 . S
C393 C397 1.393 . S
C393 C400 1.500 . S
C394 C395 1.400 . S
C394 C396 1.384 . S
C395 C393 1.382 . S
C395 C394 1.400 . S
C395 H412 0.930 . S
C396 C394 1.384 . S
C396 C398 1.392 . S
C396 H413 0.931 . S
C397 C393 1.393 . S
C397 C398 1.401 . S
C397 H414 0.930 . S
C398 C396 1.392 . S
C398 C397 1.401 . S
C398 H415 0.930 . S
C399 O382 1.262 . S
C399 O383 1.260 . S
C400 Tb336 2.833 . S
C400 O380 1.251 . S
C400 O385 1.256 . S
C400 C393 1.500 . S
C401 H366 0.929 . S
C401 C379 1.444 . S
C401 C402 1.317 . S
C402 H364 0.930 . S
C402 C370 1.432 . S
C402 C401 1.317 . S
C403 O387 1.283 . S
C403 O390 1.243 . S
C404 C405 1.382 . S
C404 C408 1.393 . S
C404 C411 1.500 . S
C405 C404 1.382 . S
C405 C406 1.400 . S
C405 H416 0.930 . S
C406 C405 1.400 . S
C406 C407 1.384 . S
C407 C406 1.384 . S
C407 C409 1.392 . S
C407 H417 0.931 . S
C408 C404 1.393 . S
C408 C409 1.401 . S
C408 H418 0.930 . S
C409 C407 1.392 . S
C409 C408 1.401 . S
C409 H419 0.930 . S
C410 O388 1.262 . S
C410 O389 1.260 . S
C411 Tb347 2.833 . S
C411 O386 1.251 . S
C411 O391 1.256 . S
C411 C404 1.500 . S
H412 C395 0.930 . S
H413 C396 0.931 . S
H414 C397 0.930 . S
H415 C398 0.930 . S
H416 C405 0.930 . S
H417 C407 0.931 . S
H418 C408 0.930 . S
H419 C409 0.930 . S
Tb420 N451 2.660 . S
Tb420 N458 2.600 . S
Tb420 O464 2.546 . S
Tb420 O465 2.610 . S
Tb420 O467 2.320 . S
Tb420 O468 2.552 . S
Tb420 O469 2.413 . S
Tb420 O471 2.362 . S
Tb420 O472 2.421 . S
Tb420 C484 2.833 . S
C421 C424 1.432 . S
C421 C425 1.414 . S
C421 N428 1.359 . S
C422 C424 1.417 . S
C422 C426 1.432 . S
C422 C434 1.410 . S
C423 C425 1.444 . S
C423 C426 1.317 . S
C423 H446 0.929 . S
C424 C421 1.432 . S
C424 C422 1.417 . S
C424 N432 1.360 . S
C425 C421 1.414 . S
C425 C423 1.444 . S
C425 C430 1.385 . S
C426 C422 1.432 . S
C426 C423 1.317 . S
C426 H438 0.930 . S
C427 C429 1.392 . S
C427 C430 1.370 . S
C427 H439 0.931 . S
N428 C421 1.359 . S
N428 C429 1.327 . S
N428 Tb431 2.600 . S
C429 C427 1.392 . S
C429 N428 1.327 . S
C429 H436 0.930 . S
C430 C425 1.385 . S
C430 C427 1.370 . S
C430 H449 0.930 . S
Tb431 N428 2.600 . S
Tb431 N432 2.660 . S
Tb431 O465 2.362 . S
Tb431 O466 2.421 . S
Tb431 O470 2.546 . S
Tb431 O471 2.610 . S
Tb431 O473 2.320 . S
Tb431 O474 2.552 . S
Tb431 O475 2.413 . S
Tb431 C495 2.833 . S
N432 C424 1.360 . S
N432 Tb431 2.660 . S
N432 C433 1.305 . S
C433 N432 1.305 . S
C433 C435 1.407 . S
C433 H440 0.930 . S
C434 C422 1.410 . S
C434 C435 1.345 . S
C434 H442 0.930 . S
C435 C433 1.407 . S
C435 C434 1.345 . S
C435 H437 0.930 . S
H436 C429 0.930 . S
H437 C435 0.930 . S
H438 C426 0.930 . S
H439 C427 0.931 . S
H440 C433 0.930 . S
H441 C455 0.930 . S
H442 C434 0.930 . S
H443 C461 0.930 . S
H444 C452 0.930 . S
H445 C459 0.931 . S
H446 C423 0.929 . S
H447 C453 0.930 . S
H448 C486 0.930 . S
H449 C430 0.930 . S
H450 C485 0.929 . S
N451 Tb420 2.660 . S
N451 C452 1.305 . S
N451 C456 1.360 . S
C452 H444 0.930 . S
C452 N451 1.305 . S
C452 C455 1.407 . S
C453 H447 0.930 . S
C453 C454 1.410 . S
C453 C455 1.345 . S
C454 C453 1.410 . S
C454 C456 1.417 . S
C454 C486 1.432 . S
C455 H441 0.930 . S
C455 C452 1.407 . S
C455 C453 1.345 . S
C456 N451 1.360 . S
C456 C454 1.417 . S
C456 C460 1.432 . S
H457 C462 0.930 . S
N458 Tb420 2.600 . S
N458 C460 1.359 . S
N458 C461 1.327 . S
C459 H445 0.931 . S
C459 C461 1.392 . S
C459 C462 1.370 . S
C460 C456 1.432 . S
C460 N458 1.359 . S
C460 C463 1.414 . S
C461 H443 0.930 . S
C461 N458 1.327 . S
C461 C459 1.392 . S
C462 H457 0.930 . S
C462 C459 1.370 . S
C462 C463 1.385 . S
C463 C460 1.414 . S
C463 C462 1.385 . S
C463 C485 1.444 . S
O464 Tb420 2.546 . S
O464 C484 1.251 . S
O465 Tb420 2.610 . S
O465 Tb431 2.362 . S
O465 C476 1.283 . S
O466 Tb431 2.421 . S
O466 C483 1.262 . S
O467 Tb420 2.320 . S
O467 C483 1.260 . S
O468 Tb420 2.552 . S
O468 C476 1.243 . S
O469 Tb420 2.413 . S
O469 C484 1.256 . S
O470 Tb431 2.546 . S
O470 C495 1.251 . S
O471 Tb420 2.362 . S
O471 Tb431 2.610 . S
O471 C487 1.283 . S
O472 Tb420 2.421 . S
O472 C494 1.262 . S
O473 Tb431 2.320 . S
O473 C494 1.260 . S
O474 Tb431 2.552 . S
O474 C487 1.243 . S
O475 Tb431 2.413 . S
O475 C495 1.256 . S
C476 O465 1.283 . S
C476 O468 1.243 . S
C477 C479 1.382 . S
C477 C481 1.393 . S
C477 C484 1.500 . S
C478 C479 1.400 . S
C478 C480 1.384 . S
C479 C477 1.382 . S
C479 C478 1.400 . S
C479 H496 0.930 . S
C480 C478 1.384 . S
C480 C482 1.392 . S
C480 H497 0.931 . S
C481 C477 1.393 . S
C481 C482 1.401 . S
C481 H498 0.930 . S
C482 C480 1.392 . S
C482 C481 1.401 . S
C482 H499 0.930 . S
C483 O466 1.262 . S
C483 O467 1.260 . S
C484 Tb420 2.833 . S
C484 O464 1.251 . S
C484 O469 1.256 . S
C484 C477 1.500 . S
C485 H450 0.929 . S
C485 C463 1.444 . S
C485 C486 1.317 . S
C486 H448 0.930 . S
C486 C454 1.432 . S
C486 C485 1.317 . S
C487 O471 1.283 . S
C487 O474 1.243 . S
C488 C489 1.382 . S
C488 C492 1.393 . S
C488 C495 1.500 . S
C489 C488 1.382 . S
C489 C490 1.400 . S
C489 H500 0.930 . S
C490 C489 1.400 . S
C490 C491 1.384 . S
C491 C490 1.384 . S
C491 C493 1.392 . S
C491 H501 0.931 . S
C492 C488 1.393 . S
C492 C493 1.401 . S
C492 H502 0.930 . S
C493 C491 1.392 . S
C493 C492 1.401 . S
C493 H503 0.930 . S
C494 O472 1.262 . S
C494 O473 1.260 . S
C495 Tb431 2.833 . S
C495 O470 1.251 . S
C495 O475 1.256 . S
C495 C488 1.500 . S
H496 C479 0.930 . S
H497 C480 0.931 . S
H498 C481 0.930 . S
H499 C482 0.930 . S
H500 C489 0.930 . S
H501 C491 0.931 . S
H502 C492 0.930 . S
H503 C493 0.930 . S
Tb504 N535 2.660 . S
Tb504 N542 2.600 . S
Tb504 O548 2.546 . S
Tb504 O549 2.610 . S
Tb504 O551 2.320 . S
Tb504 O552 2.552 . S
Tb504 O553 2.413 . S
Tb504 O555 2.362 . S
Tb504 O556 2.421 . S
Tb504 C568 2.833 . S
C505 C508 1.432 . S
C505 C509 1.414 . S
C505 N512 1.359 . S
C506 C508 1.417 . S
C506 C510 1.432 . S
C506 C518 1.410 . S
C507 C509 1.444 . S
C507 C510 1.317 . S
C507 H530 0.929 . S
C508 C505 1.432 . S
C508 C506 1.417 . S
C508 N516 1.360 . S
C509 C505 1.414 . S
C509 C507 1.444 . S
C509 C514 1.385 . S
C510 C506 1.432 . S
C510 C507 1.317 . S
C510 H522 0.930 . S
C511 C513 1.392 . S
C511 C514 1.370 . S
C511 H523 0.931 . S
N512 C505 1.359 . S
N512 C513 1.327 . S
N512 Tb515 2.600 . S
C513 C511 1.392 . S
C513 N512 1.327 . S
C513 H520 0.930 . S
C514 C509 1.385 . S
C514 C511 1.370 . S
C514 H533 0.930 . S
Tb515 N512 2.600 . S
Tb515 N516 2.660 . S
Tb515 O549 2.362 . S
Tb515 O550 2.421 . S
Tb515 O554 2.546 . S
Tb515 O555 2.610 . S
Tb515 O557 2.320 . S
Tb515 O558 2.552 . S
Tb515 O559 2.413 . S
Tb515 C579 2.833 . S
N516 C508 1.360 . S
N516 Tb515 2.660 . S
N516 C517 1.305 . S
C517 N516 1.305 . S
C517 C519 1.407 . S
C517 H524 0.930 . S
C518 C506 1.410 . S
C518 C519 1.345 . S
C518 H526 0.930 . S
C519 C517 1.407 . S
C519 C518 1.345 . S
C519 H521 0.930 . S
H520 C513 0.930 . S
H521 C519 0.930 . S
H522 C510 0.930 . S
H523 C511 0.931 . S
H524 C517 0.930 . S
H525 C539 0.930 . S
H526 C518 0.930 . S
H527 C545 0.930 . S
H528 C536 0.930 . S
H529 C543 0.931 . S
H530 C507 0.929 . S
H531 C537 0.930 . S
H532 C570 0.930 . S
H533 C514 0.930 . S
H534 C569 0.929 . S
N535 Tb504 2.660 . S
N535 C536 1.305 . S
N535 C540 1.360 . S
C536 H528 0.930 . S
C536 N535 1.305 . S
C536 C539 1.407 . S
C537 H531 0.930 . S
C537 C538 1.410 . S
C537 C539 1.345 . S
C538 C537 1.410 . S
C538 C540 1.417 . S
C538 C570 1.432 . S
C539 H525 0.930 . S
C539 C536 1.407 . S
C539 C537 1.345 . S
C540 N535 1.360 . S
C540 C538 1.417 . S
C540 C544 1.432 . S
H541 C546 0.930 . S
N542 Tb504 2.600 . S
N542 C544 1.359 . S
N542 C545 1.327 . S
C543 H529 0.931 . S
C543 C545 1.392 . S
C543 C546 1.370 . S
C544 C540 1.432 . S
C544 N542 1.359 . S
C544 C547 1.414 . S
C545 H527 0.930 . S
C545 N542 1.327 . S
C545 C543 1.392 . S
C546 H541 0.930 . S
C546 C543 1.370 . S
C546 C547 1.385 . S
C547 C544 1.414 . S
C547 C546 1.385 . S
C547 C569 1.444 . S
O548 Tb504 2.546 . S
O548 C568 1.251 . S
O549 Tb504 2.610 . S
O549 Tb515 2.362 . S
O549 C560 1.283 . S
O550 Tb515 2.421 . S
O550 C567 1.262 . S
O551 Tb504 2.320 . S
O551 C567 1.260 . S
O552 Tb504 2.552 . S
O552 C560 1.243 . S
O553 Tb504 2.413 . S
O553 C568 1.256 . S
O554 Tb515 2.546 . S
O554 C579 1.251 . S
O555 Tb504 2.362 . S
O555 Tb515 2.610 . S
O555 C571 1.283 . S
O556 Tb504 2.421 . S
O556 C578 1.262 . S
O557 Tb515 2.320 . S
O557 C578 1.260 . S
O558 Tb515 2.552 . S
O558 C571 1.243 . S
O559 Tb515 2.413 . S
O559 C579 1.256 . S
C560 O549 1.283 . S
C560 O552 1.243 . S
C561 C563 1.382 . S
C561 C565 1.393 . S
C561 C568 1.500 . S
C562 C563 1.400 . S
C562 C564 1.384 . S
C563 C561 1.382 . S
C563 C562 1.400 . S
C563 H580 0.930 . S
C564 C562 1.384 . S
C564 C566 1.392 . S
C564 H581 0.931 . S
C565 C561 1.393 . S
C565 C566 1.401 . S
C565 H582 0.930 . S
C566 C564 1.392 . S
C566 C565 1.401 . S
C566 H583 0.930 . S
C567 O550 1.262 . S
C567 O551 1.260 . S
C568 Tb504 2.833 . S
C568 O548 1.251 . S
C568 O553 1.256 . S
C568 C561 1.500 . S
C569 H534 0.929 . S
C569 C547 1.444 . S
C569 C570 1.317 . S
C570 H532 0.930 . S
C570 C538 1.432 . S
C570 C569 1.317 . S
C571 O555 1.283 . S
C571 O558 1.243 . S
C572 C573 1.382 . S
C572 C576 1.393 . S
C572 C579 1.500 . S
C573 C572 1.382 . S
C573 C574 1.400 . S
C573 H584 0.930 . S
C574 C573 1.400 . S
C574 C575 1.384 . S
C575 C574 1.384 . S
C575 C577 1.392 . S
C575 H585 0.931 . S
C576 C572 1.393 . S
C576 C577 1.401 . S
C576 H586 0.930 . S
C577 C575 1.392 . S
C577 C576 1.401 . S
C577 H587 0.930 . S
C578 O556 1.262 . S
C578 O557 1.260 . S
C579 Tb515 2.833 . S
C579 O554 1.251 . S
C579 O559 1.256 . S
C579 C572 1.500 . S
H580 C563 0.930 . S
H581 C564 0.931 . S
H582 C565 0.930 . S
H583 C566 0.930 . S
H584 C573 0.930 . S
H585 C575 0.931 . S
H586 C576 0.930 . S
H587 C577 0.930 . S
Tb588 N619 2.660 . S
Tb588 N626 2.600 . S
Tb588 O632 2.546 . S
Tb588 O633 2.610 . S
Tb588 O635 2.320 . S
Tb588 O636 2.552 . S
Tb588 O637 2.413 . S
Tb588 O639 2.362 . S
Tb588 O640 2.421 . S
Tb588 C652 2.833 . S
C589 C592 1.432 . S
C589 C593 1.414 . S
C589 N596 1.359 . S
C590 C592 1.417 . S
C590 C594 1.432 . S
C590 C602 1.410 . S
C591 C593 1.444 . S
C591 C594 1.317 . S
C591 H614 0.929 . S
C592 C589 1.432 . S
C592 C590 1.417 . S
C592 N600 1.360 . S
C593 C589 1.414 . S
C593 C591 1.444 . S
C593 C598 1.385 . S
C594 C590 1.432 . S
C594 C591 1.317 . S
C594 H606 0.930 . S
C595 C597 1.392 . S
C595 C598 1.370 . S
C595 H607 0.931 . S
N596 C589 1.359 . S
N596 C597 1.327 . S
N596 Tb599 2.600 . S
C597 C595 1.392 . S
C597 N596 1.327 . S
C597 H604 0.930 . S
C598 C593 1.385 . S
C598 C595 1.370 . S
C598 H617 0.930 . S
Tb599 N596 2.600 . S
Tb599 N600 2.660 . S
Tb599 O633 2.362 . S
Tb599 O634 2.421 . S
Tb599 O638 2.546 . S
Tb599 O639 2.610 . S
Tb599 O641 2.320 . S
Tb599 O642 2.552 . S
Tb599 O643 2.413 . S
Tb599 C663 2.833 . S
N600 C592 1.360 . S
N600 Tb599 2.660 . S
N600 C601 1.305 . S
C601 N600 1.305 . S
C601 C603 1.407 . S
C601 H608 0.930 . S
C602 C590 1.410 . S
C602 C603 1.345 . S
C602 H610 0.930 . S
C603 C601 1.407 . S
C603 C602 1.345 . S
C603 H605 0.930 . S
H604 C597 0.930 . S
H605 C603 0.930 . S
H606 C594 0.930 . S
H607 C595 0.931 . S
H608 C601 0.930 . S
H609 C623 0.930 . S
H610 C602 0.930 . S
H611 C629 0.930 . S
H612 C620 0.930 . S
H613 C627 0.931 . S
H614 C591 0.929 . S
H615 C621 0.930 . S
H616 C654 0.930 . S
H617 C598 0.930 . S
H618 C653 0.929 . S
N619 Tb588 2.660 . S
N619 C620 1.305 . S
N619 C624 1.360 . S
C620 H612 0.930 . S
C620 N619 1.305 . S
C620 C623 1.407 . S
C621 H615 0.930 . S
C621 C622 1.410 . S
C621 C623 1.345 . S
C622 C621 1.410 . S
C622 C624 1.417 . S
C622 C654 1.432 . S
C623 H609 0.930 . S
C623 C620 1.407 . S
C623 C621 1.345 . S
C624 N619 1.360 . S
C624 C622 1.417 . S
C624 C628 1.432 . S
H625 C630 0.930 . S
N626 Tb588 2.600 . S
N626 C628 1.359 . S
N626 C629 1.327 . S
C627 H613 0.931 . S
C627 C629 1.392 . S
C627 C630 1.370 . S
C628 C624 1.432 . S
C628 N626 1.359 . S
C628 C631 1.414 . S
C629 H611 0.930 . S
C629 N626 1.327 . S
C629 C627 1.392 . S
C630 H625 0.930 . S
C630 C627 1.370 . S
C630 C631 1.385 . S
C631 C628 1.414 . S
C631 C630 1.385 . S
C631 C653 1.444 . S
O632 Tb588 2.546 . S
O632 C652 1.251 . S
O633 Tb588 2.610 . S
O633 Tb599 2.362 . S
O633 C644 1.283 . S
O634 Tb599 2.421 . S
O634 C651 1.262 . S
O635 Tb588 2.320 . S
O635 C651 1.260 . S
O636 Tb588 2.552 . S
O636 C644 1.243 . S
O637 Tb588 2.413 . S
O637 C652 1.256 . S
O638 Tb599 2.546 . S
O638 C663 1.251 . S
O639 Tb588 2.362 . S
O639 Tb599 2.610 . S
O639 C655 1.283 . S
O640 Tb588 2.421 . S
O640 C662 1.262 . S
O641 Tb599 2.320 . S
O641 C662 1.260 . S
O642 Tb599 2.552 . S
O642 C655 1.243 . S
O643 Tb599 2.413 . S
O643 C663 1.256 . S
C644 O633 1.283 . S
C644 O636 1.243 . S
C645 C647 1.382 . S
C645 C649 1.393 . S
C645 C652 1.500 . S
C646 C647 1.400 . S
C646 C648 1.384 . S
C647 C645 1.382 . S
C647 C646 1.400 . S
C647 H664 0.930 . S
C648 C646 1.384 . S
C648 C650 1.392 . S
C648 H665 0.931 . S
C649 C645 1.393 . S
C649 C650 1.401 . S
C649 H666 0.930 . S
C650 C648 1.392 . S
C650 C649 1.401 . S
C650 H667 0.930 . S
C651 O634 1.262 . S
C651 O635 1.260 . S
C652 Tb588 2.833 . S
C652 O632 1.251 . S
C652 O637 1.256 . S
C652 C645 1.500 . S
C653 H618 0.929 . S
C653 C631 1.444 . S
C653 C654 1.317 . S
C654 H616 0.930 . S
C654 C622 1.432 . S
C654 C653 1.317 . S
C655 O639 1.283 . S
C655 O642 1.243 . S
C656 C657 1.382 . S
C656 C660 1.393 . S
C656 C663 1.500 . S
C657 C656 1.382 . S
C657 C658 1.400 . S
C657 H668 0.930 . S
C658 C657 1.400 . S
C658 C659 1.384 . S
C659 C658 1.384 . S
C659 C661 1.392 . S
C659 H669 0.931 . S
C660 C656 1.393 . S
C660 C661 1.401 . S
C660 H670 0.930 . S
C661 C659 1.392 . S
C661 C660 1.401 . S
C661 H671 0.930 . S
C662 O640 1.262 . S
C662 O641 1.260 . S
C663 Tb599 2.833 . S
C663 O638 1.251 . S
C663 O643 1.256 . S
C663 C656 1.500 . S
H664 C647 0.930 . S
H665 C648 0.931 . S
H666 C649 0.930 . S
H667 C650 0.930 . S
H668 C657 0.930 . S
H669 C659 0.931 . S
H670 C660 0.930 . S
H671 C661 0.930 . S
C672 O684 1.241 . S
C672 O685 1.280 . S
C673 O686 1.277 . S
C673 O687 1.245 . S
C674 O698 1.247 . S
C674 O700 1.289 . S
Mg675 O676 1.926 . S
Mg675 O685 1.984 . S
Mg675 O687 1.988 . S
Mg675 O688 2.061 1_655 S
O676 Mg675 1.926 . S
O676 Mg677 1.986 1_545 S
O676 Mg678 1.910 1_655 S
Mg677 O676 1.986 1_565 S
Mg677 O684 2.042 1_565 S
Mg677 O686 2.041 1_565 S
Mg677 O692 2.038 . S
Mg677 O700 2.238 . S
Mg678 O676 1.910 1_455 S
Mg678 O679 1.924 1_545 S
Mg678 O689 2.112 . S
Mg678 O691 2.077 1_445 S
Mg678 O700 2.101 1_445 S
Mg678 O701 2.081 . S
O679 Mg678 1.924 1_565 S
O679 Mg680 1.926 . S
O679 Mg681 1.986 1_565 S
Mg680 O679 1.926 . S
Mg680 O694 1.984 . S
Mg680 O697 1.988 . S
Mg680 O698 2.061 1_455 S
Mg681 O679 1.986 1_545 S
Mg681 O689 2.238 . S
Mg681 O693 2.042 1_545 S
Mg681 O695 2.041 1_545 S
Mg681 O702 2.038 . S
C682 O688 1.247 . S
C682 O689 1.289 . S
C683 O701 1.245 . S
C683 O702 1.274 . S
O684 C672 1.241 . S
O684 Mg677 2.042 1_545 S
O685 C672 1.280 . S
O685 Mg675 1.984 . S
O686 C673 1.277 . S
O686 Mg677 2.041 1_545 S
O687 C673 1.245 . S
O687 Mg675 1.988 . S
O688 Mg675 2.061 1_455 S
O688 C682 1.247 . S
O689 Mg678 2.112 . S
O689 Mg681 2.238 . S
O689 C682 1.289 . S
C690 O691 1.245 . S
C690 O692 1.274 . S
O691 Mg678 2.077 1_665 S
O691 C690 1.245 . S
O692 Mg677 2.038 . S
O692 C690 1.274 . S
O693 Mg681 2.042 1_565 S
O693 C696 1.241 . S
O694 Mg680 1.984 . S
O694 C696 1.280 . S
O695 Mg681 2.041 1_565 S
O695 C699 1.277 . S
C696 O693 1.241 . S
C696 O694 1.280 . S
O697 Mg680 1.988 . S
O697 C699 1.245 . S
O698 C674 1.247 . S
O698 Mg680 2.061 1_655 S
C699 O695 1.277 . S
C699 O697 1.245 . S
O700 C674 1.289 . S
O700 Mg677 2.238 . S
O700 Mg678 2.101 1_665 S
O701 Mg678 2.081 . S
O701 C683 1.245 . S
O702 Mg681 2.038 . S
O702 C683 1.274 . S
C703 O715 1.241 . S
C703 O716 1.280 . S
C704 O717 1.277 . S
C704 O718 1.245 . S
C705 O729 1.247 . S
C705 O731 1.289 . S
Mg706 O707 1.926 . S
Mg706 O716 1.984 . S
Mg706 O718 1.988 1_554 S
Mg706 O719 2.061 . S
O707 Mg706 1.926 . S
O707 Mg708 1.986 1_544 S
O707 Mg709 1.917 . S
Mg708 O707 1.986 1_566 S
Mg708 O715 2.042 1_566 S
Mg708 O717 2.041 1_565 S
Mg708 O723 2.038 1_556 S
Mg708 O731 2.238 . S
Mg709 O707 1.917 . S
Mg709 O710 1.917 1_544 S
Mg709 O720 2.106 . S
Mg709 O722 2.079 1_545 S
Mg709 O731 2.106 1_544 S
Mg709 O732 2.079 1_554 S
O710 Mg709 1.917 1_566 S
O710 Mg711 1.926 . S
O710 Mg712 1.986 1_566 S
Mg711 O710 1.926 . S
Mg711 O725 1.984 . S
Mg711 O728 1.988 1_556 S
Mg711 O729 2.061 . S
Mg712 O710 1.986 1_544 S
Mg712 O720 2.238 . S
Mg712 O724 2.042 1_544 S
Mg712 O726 2.041 1_545 S
Mg712 O733 2.038 1_554 S
C713 O719 1.247 . S
C713 O720 1.289 . S
C714 O732 1.245 . S
C714 O733 1.274 . S
O715 C703 1.241 . S
O715 Mg708 2.042 1_544 S
O716 C703 1.280 . S
O716 Mg706 1.984 . S
O717 C704 1.277 . S
O717 Mg708 2.041 1_545 S
O718 C704 1.245 . S
O718 Mg706 1.988 1_556 S
O719 Mg706 2.061 . S
O719 C713 1.247 . S
O720 Mg709 2.106 . S
O720 Mg712 2.238 . S
O720 C713 1.289 . S
C721 O722 1.245 . S
C721 O723 1.274 . S
O722 Mg709 2.079 1_565 S
O722 C721 1.245 . S
O723 Mg708 2.038 1_554 S
O723 C721 1.274 . S
O724 Mg712 2.042 1_566 S
O724 C727 1.241 . S
O725 Mg711 1.984 . S
O725 C727 1.280 . S
O726 Mg712 2.041 1_565 S
O726 C730 1.277 . S
C727 O724 1.241 . S
C727 O725 1.280 . S
O728 Mg711 1.988 1_554 S
O728 C730 1.245 . S
O729 C705 1.247 . S
O729 Mg711 2.061 . S
C730 O726 1.277 . S
C730 O728 1.245 . S
O731 C705 1.289 . S
O731 Mg708 2.238 . S
O731 Mg709 2.106 1_566 S
O732 Mg709 2.079 1_556 S
O732 C714 1.245 . S
O733 Mg712 2.038 1_556 S
O733 C714 1.274 . S
C734 O746 1.241 . S
C734 O747 1.280 . S
C735 O748 1.277 . S
C735 O749 1.245 . S
C736 O760 1.247 . S
C736 O762 1.289 . S
Mg737 O738 1.926 . S
Mg737 O747 1.984 . S
Mg737 O749 1.988 1_554 S
Mg737 O750 2.061 1_655 S
O738 Mg737 1.926 . S
O738 Mg739 1.986 1_554 S
O738 Mg740 1.910 1_655 S
Mg739 O738 1.986 1_556 S
Mg739 O746 2.042 1_556 S
Mg739 O748 2.041 . S
Mg739 O754 2.038 1_556 S
Mg739 O762 2.238 . S
Mg740 O738 1.910 1_455 S
Mg740 O741 1.923 1_554 S
Mg740 O751 2.112 . S
Mg740 O753 2.077 1_455 S
Mg740 O762 2.101 1_454 S
Mg740 O763 2.081 1_554 S
O741 Mg740 1.923 1_556 S
O741 Mg742 1.926 . S
O741 Mg743 1.986 1_556 S
Mg742 O741 1.926 . S
Mg742 O756 1.984 . S
Mg742 O759 1.988 1_556 S
Mg742 O760 2.061 1_455 S
Mg743 O741 1.986 1_554 S
Mg743 O751 2.238 . S
Mg743 O755 2.042 1_554 S
Mg743 O757 2.041 . S
Mg743 O764 2.038 1_554 S
C744 O750 1.247 . S
C744 O751 1.289 . S
C745 O763 1.245 . S
C745 O764 1.274 . S
O746 C734 1.241 . S
O746 Mg739 2.042 1_554 S
O747 C734 1.280 . S
O747 Mg737 1.984 . S
O748 C735 1.277 . S
O748 Mg739 2.041 . S
O749 C735 1.245 . S
O749 Mg737 1.988 1_556 S
O750 Mg737 2.061 1_455 S
O750 C744 1.247 . S
O751 Mg740 2.112 . S
O751 Mg743 2.238 . S
O751 C744 1.289 . S
C752 O753 1.245 . S
C752 O754 1.274 . S
O753 Mg740 2.077 1_655 S
O753 C752 1.245 . S
O754 Mg739 2.038 1_554 S
O754 C752 1.274 . S
O755 Mg743 2.042 1_556 S
O755 C758 1.241 . S
O756 Mg742 1.984 . S
O756 C758 1.280 . S
O757 Mg743 2.041 . S
O757 C761 1.277 . S
C758 O755 1.241 . S
C758 O756 1.280 . S
O759 Mg742 1.988 1_554 S
O759 C761 1.245 . S
O760 C736 1.247 . S
O760 Mg742 2.061 1_655 S
C761 O757 1.277 . S
C761 O759 1.245 . S
O762 C736 1.289 . S
O762 Mg739 2.238 . S
O762 Mg740 2.101 1_656 S
O763 Mg740 2.081 1_556 S
O763 C745 1.245 . S
O764 Mg743 2.038 1_556 S
O764 C745 1.274 . S
C765 O777 1.241 . S
C765 O778 1.280 . S
C766 O779 1.277 . S
C766 O780 1.245 . S
C767 O791 1.247 . S
C767 O793 1.289 . S
Mg768 O769 1.926 . S
Mg768 O778 1.984 . S
Mg768 O780 1.988 1_554 S
Mg768 O781 2.061 . S
O769 Mg768 1.926 . S
O769 Mg770 1.986 1_554 S
O769 Mg771 1.917 . S
Mg770 O769 1.986 1_556 S
Mg770 O777 2.042 1_556 S
Mg770 O779 2.041 . S
Mg770 O785 2.038 1_556 S
Mg770 O793 2.238 . S
Mg771 O769 1.917 . S
Mg771 O772 1.917 1_554 S
Mg771 O782 2.106 . S
Mg771 O784 2.079 . S
Mg771 O793 2.106 1_554 S
Mg771 O794 2.079 1_554 S
O772 Mg771 1.917 1_556 S
O772 Mg773 1.926 . S
O772 Mg774 1.986 1_556 S
Mg773 O772 1.926 . S
Mg773 O787 1.984 . S
Mg773 O790 1.988 1_556 S
Mg773 O791 2.061 . S
Mg774 O772 1.986 1_554 S
Mg774 O782 2.238 . S
Mg774 O786 2.042 1_554 S
Mg774 O788 2.041 . S
Mg774 O795 2.038 1_554 S
C775 O781 1.247 . S
C775 O782 1.289 . S
C776 O794 1.245 . S
C776 O795 1.274 . S
O777 C765 1.241 . S
O777 Mg770 2.042 1_554 S
O778 C765 1.280 . S
O778 Mg768 1.984 . S
O779 C766 1.277 . S
O779 Mg770 2.041 . S
O780 C766 1.245 . S
O780 Mg768 1.988 1_556 S
O781 Mg768 2.061 . S
O781 C775 1.247 . S
O782 Mg771 2.106 . S
O782 Mg774 2.238 . S
O782 C775 1.289 . S
C783 O784 1.245 . S
C783 O785 1.274 . S
O784 Mg771 2.079 . S
O784 C783 1.245 . S
O785 Mg770 2.038 1_554 S
O785 C783 1.274 . S
O786 Mg774 2.042 1_556 S
O786 C789 1.241 . S
O787 Mg773 1.984 . S
O787 C789 1.280 . S
O788 Mg774 2.041 . S
O788 C792 1.277 . S
C789 O786 1.241 . S
C789 O787 1.280 . S
O790 Mg773 1.988 1_554 S
O790 C792 1.245 . S
O791 C767 1.247 . S
O791 Mg773 2.061 . S
C792 O788 1.277 . S
C792 O790 1.245 . S
O793 C767 1.289 . S
O793 Mg770 2.238 . S
O793 Mg771 2.106 1_556 S
O794 Mg771 2.079 1_556 S
O794 C776 1.245 . S
O795 Mg774 2.038 1_556 S
O795 C776 1.274 . S
C796 O808 1.241 . S
C796 O809 1.280 . S
C797 O810 1.277 . S
C797 O811 1.245 . S
C798 O822 1.247 . S
C798 O824 1.289 . S
Mg799 O800 1.926 . S
Mg799 O809 1.984 . S
Mg799 O811 1.988 . S
Mg799 O812 2.061 1_655 S
O800 Mg799 1.926 . S
O800 Mg801 1.986 . S
O800 Mg802 1.910 1_655 S
Mg801 O800 1.986 . S
Mg801 O808 2.042 . S
Mg801 O810 2.041 . S
Mg801 O816 2.038 . S
Mg801 O824 2.238 . S
Mg802 O800 1.910 1_455 S
Mg802 O803 1.923 . S
Mg802 O813 2.112 . S
Mg802 O815 2.077 1_455 S
Mg802 O824 2.101 1_455 S
Mg802 O825 2.081 . S
O803 Mg802 1.923 . S
O803 Mg804 1.926 . S
O803 Mg805 1.986 . S
Mg804 O803 1.926 . S
Mg804 O818 1.984 . S
Mg804 O821 1.988 . S
Mg804 O822 2.061 1_455 S
Mg805 O803 1.986 . S
Mg805 O813 2.238 . S
Mg805 O817 2.042 . S
Mg805 O819 2.041 . S
Mg805 O826 2.038 . S
C806 O812 1.247 . S
C806 O813 1.289 . S
C807 O825 1.245 . S
C807 O826 1.274 . S
O808 C796 1.241 . S
O808 Mg801 2.042 . S
O809 C796 1.280 . S
O809 Mg799 1.984 . S
O810 C797 1.277 . S
O810 Mg801 2.041 . S
O811 C797 1.245 . S
O811 Mg799 1.988 . S
O812 Mg799 2.061 1_455 S
O812 C806 1.247 . S
O813 Mg802 2.112 . S
O813 Mg805 2.238 . S
O813 C806 1.289 . S
C814 O815 1.245 . S
C814 O816 1.274 . S
O815 Mg802 2.077 1_655 S
O815 C814 1.245 . S
O816 Mg801 2.038 . S
O816 C814 1.274 . S
O817 Mg805 2.042 . S
O817 C820 1.241 . S
O818 Mg804 1.984 . S
O818 C820 1.280 . S
O819 Mg805 2.041 . S
O819 C823 1.277 . S
C820 O817 1.241 . S
C820 O818 1.280 . S
O821 Mg804 1.988 . S
O821 C823 1.245 . S
O822 C798 1.247 . S
O822 Mg804 2.061 1_655 S
C823 O819 1.277 . S
C823 O821 1.245 . S
O824 C798 1.289 . S
O824 Mg801 2.238 . S
O824 Mg802 2.101 1_655 S
O825 Mg802 2.081 . S
O825 C807 1.245 . S
O826 Mg805 2.038 . S
O826 C807 1.274 . S
C827 O839 1.241 . S
C827 O840 1.280 . S
C828 O841 1.277 . S
C828 O842 1.245 . S
C829 O853 1.247 . S
C829 O855 1.289 . S
Mg830 O831 1.926 . S
Mg830 O840 1.984 . S
Mg830 O842 1.988 . S
Mg830 O843 2.061 . S
O831 Mg830 1.926 . S
O831 Mg832 1.986 1_545 S
O831 Mg833 1.917 . S
Mg832 O831 1.986 1_565 S
Mg832 O839 2.042 1_565 S
Mg832 O841 2.041 1_565 S
Mg832 O847 2.038 . S
Mg832 O855 2.238 . S
Mg833 O831 1.917 . S
Mg833 O834 1.917 1_545 S
Mg833 O844 2.106 . S
Mg833 O846 2.079 1_545 S
Mg833 O855 2.106 1_545 S
Mg833 O856 2.079 . S
O834 Mg833 1.917 1_565 S
O834 Mg835 1.926 . S
O834 Mg836 1.986 1_565 S
Mg835 O834 1.926 . S
Mg835 O849 1.984 . S
Mg835 O852 1.988 . S
Mg835 O853 2.061 . S
Mg836 O834 1.986 1_545 S
Mg836 O844 2.238 . S
Mg836 O848 2.042 1_545 S
Mg836 O850 2.041 1_545 S
Mg836 O857 2.038 . S
C837 O843 1.247 . S
C837 O844 1.289 . S
C838 O856 1.245 . S
C838 O857 1.274 . S
O839 C827 1.241 . S
O839 Mg832 2.042 1_545 S
O840 C827 1.280 . S
O840 Mg830 1.984 . S
O841 C828 1.277 . S
O841 Mg832 2.041 1_545 S
O842 C828 1.245 . S
O842 Mg830 1.988 . S
O843 Mg830 2.061 . S
O843 C837 1.247 . S
O844 Mg833 2.106 . S
O844 Mg836 2.238 . S
O844 C837 1.289 . S
C845 O846 1.245 . S
C845 O847 1.274 . S
O846 Mg833 2.079 1_565 S
O846 C845 1.245 . S
O847 Mg832 2.038 . S
O847 C845 1.274 . S
O848 Mg836 2.042 1_565 S
O848 C851 1.241 . S
O849 Mg835 1.984 . S
O849 C851 1.280 . S
O850 Mg836 2.041 1_565 S
O850 C854 1.277 . S
C851 O848 1.241 . S
C851 O849 1.280 . S
O852 Mg835 1.988 . S
O852 C854 1.245 . S
O853 C829 1.247 . S
O853 Mg835 2.061 . S
C854 O850 1.277 . S
C854 O852 1.245 . S
O855 C829 1.289 . S
O855 Mg832 2.238 . S
O855 Mg833 2.106 1_565 S
O856 Mg833 2.079 . S
O856 C838 1.245 . S
O857 Mg836 2.038 . S
O857 C838 1.274 . S
H858 C866 0.929 . S
H859 C868 0.930 . S
H860 C870 0.930 . S
H861 C873 0.929 . S
H862 C876 0.930 . S
H863 C878 0.960 . S
H864 C878 0.960 . S
H865 C878 0.960 . S
C866 H858 0.929 . S
C866 C867 1.377 . S
C866 C868 1.384 . S
C867 C866 1.377 . S
C867 C873 1.390 . S
C868 H859 0.930 . S
C868 C866 1.384 . S
C868 C869 1.372 . S
C869 C868 1.372 . S
C869 C870 1.400 . S
C869 C874 1.490 . S
C870 H860 0.930 . S
C870 C869 1.400 . S
C870 C873 1.386 . S
H871 C887 0.930 . S
H872 C888 0.931 . S
C873 H861 0.929 . S
C873 C867 1.390 . S
C873 C870 1.386 . S
C874 C869 1.490 . S
C874 C876 1.395 . S
C874 C877 1.403 . S
H875 C881 0.930 . S
C876 H862 0.930 . S
C876 C874 1.395 . S
C876 C879 1.403 . S
C877 C874 1.403 . S
C877 C878 1.524 . S
C877 C881 1.400 . S
C878 H863 0.960 . S
C878 H864 0.960 . S
C878 H865 0.960 . S
C878 C877 1.524 . S
C879 C876 1.403 . S
C879 C880 1.392 . S
C879 C883 1.495 . S
C880 C879 1.392 . S
C880 C881 1.385 . S
C880 C882 1.478 . S
C881 H875 0.930 . S
C881 C877 1.400 . S
C881 C880 1.385 . S
C882 C880 1.478 . S
C882 C884 1.381 . S
C882 C888 1.383 . S
C883 C879 1.495 . S
C883 H889 0.959 . S
C883 H890 0.961 . S
C883 H891 0.960 . S
C884 C882 1.381 . S
C884 C885 1.394 . S
C884 H892 0.930 . S
C885 C884 1.394 . S
C885 C886 1.383 . S
C885 H893 0.929 . S
C886 C885 1.383 . S
C886 C887 1.377 . S
C887 H871 0.930 . S
C887 C886 1.377 . S
C887 C888 1.379 . S
C888 H872 0.931 . S
C888 C882 1.383 . S
C888 C887 1.379 . S
H889 C883 0.959 . S
H890 C883 0.961 . S
H891 C883 0.960 . S
H892 C884 0.930 . S
H893 C885 0.929 . S
H894 C902 0.929 . S
H895 C904 0.930 . S
H896 C906 0.930 . S
H897 C909 0.929 . S
H898 C912 0.930 . S
H899 C914 0.960 . S
H900 C914 0.960 . S
H901 C914 0.960 . S
C902 H894 0.929 . S
C902 C903 1.377 . S
C902 C904 1.384 . S
C903 C902 1.377 . S
C903 C909 1.390 . S
C904 H895 0.930 . S
C904 C902 1.384 . S
C904 C905 1.372 . S
C905 C904 1.372 . S
C905 C906 1.400 . S
C905 C910 1.490 . S
C906 H896 0.930 . S
C906 C905 1.400 . S
C906 C909 1.386 . S
H907 C923 0.930 . S
H908 C924 0.931 . S
C909 H897 0.929 . S
C909 C903 1.390 . S
C909 C906 1.386 . S
C910 C905 1.490 . S
C910 C912 1.395 . S
C910 C913 1.403 . S
H911 C917 0.930 . S
C912 H898 0.930 . S
C912 C910 1.395 . S
C912 C915 1.403 . S
C913 C910 1.403 . S
C913 C914 1.524 . S
C913 C917 1.400 . S
C914 H899 0.960 . S
C914 H900 0.960 . S
C914 H901 0.960 . S
C914 C913 1.524 . S
C915 C912 1.403 . S
C915 C916 1.392 . S
C915 C919 1.495 . S
C916 C915 1.392 . S
C916 C917 1.385 . S
C916 C918 1.478 . S
C917 H911 0.930 . S
C917 C913 1.400 . S
C917 C916 1.385 . S
C918 C916 1.478 . S
C918 C920 1.381 . S
C918 C924 1.383 . S
C919 C915 1.495 . S
C919 H925 0.959 . S
C919 H926 0.961 . S
C919 H927 0.960 . S
C920 C918 1.381 . S
C920 C921 1.394 . S
C920 H928 0.930 . S
C921 C920 1.394 . S
C921 C922 1.383 . S
C921 H929 0.929 . S
C922 C921 1.383 . S
C922 C923 1.377 . S
C923 H907 0.930 . S
C923 C922 1.377 . S
C923 C924 1.379 . S
C924 H908 0.931 . S
C924 C918 1.383 . S
C924 C923 1.379 . S
H925 C919 0.959 . S
H926 C919 0.961 . S
H927 C919 0.960 . S
H928 C920 0.930 . S
H929 C921 0.929 . S
H930 C938 0.929 . S
H931 C940 0.930 . S
H932 C942 0.930 . S
H933 C945 0.929 . S
H934 C948 0.930 . S
H935 C950 0.960 . S
H936 C950 0.960 . S
H937 C950 0.960 . S
C938 H930 0.929 . S
C938 C939 1.377 . S
C938 C940 1.384 . S
C939 C938 1.377 . S
C939 C945 1.390 . S
C940 H931 0.930 . S
C940 C938 1.384 . S
C940 C941 1.372 . S
C941 C940 1.372 . S
C941 C942 1.400 . S
C941 C946 1.490 . S
C942 H932 0.930 . S
C942 C941 1.400 . S
C942 C945 1.386 . S
H943 C959 0.930 . S
H944 C960 0.931 . S
C945 H933 0.929 . S
C945 C939 1.390 . S
C945 C942 1.386 . S
C946 C941 1.490 . S
C946 C948 1.395 . S
C946 C949 1.403 . S
H947 C953 0.930 . S
C948 H934 0.930 . S
C948 C946 1.395 . S
C948 C951 1.403 . S
C949 C946 1.403 . S
C949 C950 1.524 . S
C949 C953 1.400 . S
C950 H935 0.960 . S
C950 H936 0.960 . S
C950 H937 0.960 . S
C950 C949 1.524 . S
C951 C948 1.403 . S
C951 C952 1.392 . S
C951 C955 1.495 . S
C952 C951 1.392 . S
C952 C953 1.385 . S
C952 C954 1.478 . S
C953 H947 0.930 . S
C953 C949 1.400 . S
C953 C952 1.385 . S
C954 C952 1.478 . S
C954 C956 1.381 . S
C954 C960 1.383 . S
C955 C951 1.495 . S
C955 H961 0.959 . S
C955 H962 0.961 . S
C955 H963 0.960 . S
C956 C954 1.381 . S
C956 C957 1.394 . S
C956 H964 0.930 . S
C957 C956 1.394 . S
C957 C958 1.383 . S
C957 H965 0.929 . S
C958 C957 1.383 . S
C958 C959 1.377 . S
C959 H943 0.930 . S
C959 C958 1.377 . S
C959 C960 1.379 . S
C960 H944 0.931 . S
C960 C954 1.383 . S
C960 C959 1.379 . S
H961 C955 0.959 . S
H962 C955 0.961 . S
H963 C955 0.960 . S
H964 C956 0.930 . S
H965 C957 0.929 . S
H966 C974 0.929 . S
H967 C976 0.930 . S
H968 C978 0.930 . S
H969 C981 0.929 . S
H970 C984 0.930 . S
H971 C986 0.960 . S
H972 C986 0.960 . S
H973 C986 0.960 . S
C974 H966 0.929 . S
C974 C975 1.377 . S
C974 C976 1.384 . S
C975 C974 1.377 . S
C975 C981 1.390 . S
C976 H967 0.930 . S
C976 C974 1.384 . S
C976 C977 1.372 . S
C977 C976 1.372 . S
C977 C978 1.400 . S
C977 C982 1.490 . S
C978 H968 0.930 . S
C978 C977 1.400 . S
C978 C981 1.386 . S
H979 C995 0.930 . S
H980 C996 0.931 . S
C981 H969 0.929 . S
C981 C975 1.390 . S
C981 C978 1.386 . S
C982 C977 1.490 . S
C982 C984 1.395 . S
C982 C985 1.403 . S
H983 C989 0.930 . S
C984 H970 0.930 . S
C984 C982 1.395 . S
C984 C987 1.403 . S
C985 C982 1.403 . S
C985 C986 1.524 . S
C985 C989 1.400 . S
C986 H971 0.960 . S
C986 H972 0.960 . S
C986 H973 0.960 . S
C986 C985 1.524 . S
C987 C984 1.403 . S
C987 C988 1.392 . S
C987 C991 1.495 . S
C988 C987 1.392 . S
C988 C989 1.385 . S
C988 C990 1.478 . S
C989 H983 0.930 . S
C989 C985 1.400 . S
C989 C988 1.385 . S
C990 C988 1.478 . S
C990 C992 1.381 . S
C990 C996 1.383 . S
C991 C987 1.495 . S
C991 H997 0.959 . S
C991 H998 0.961 . S
C991 H999 0.960 . S
C992 C990 1.381 . S
C992 C993 1.394 . S
C992 H1000 0.930 . S
C993 C992 1.394 . S
C993 C994 1.383 . S
C993 H1001 0.929 . S
C994 C993 1.383 . S
C994 C995 1.377 . S
C995 H979 0.930 . S
C995 C994 1.377 . S
C995 C996 1.379 . S
C996 H980 0.931 . S
C996 C990 1.383 . S
C996 C995 1.379 . S
H997 C991 0.959 . S
H998 C991 0.961 . S
H999 C991 0.960 . S
H1000 C992 0.930 . S
H1001 C993 0.929 . S
H1002 C1010 0.929 . S
H1003 C1012 0.930 . S
H1004 C1014 0.930 . S
H1005 C1017 0.929 . S
H1006 C1020 0.930 . S
H1007 C1022 0.960 . S
H1008 C1022 0.960 . S
H1009 C1022 0.960 . S
C1010 H1002 0.929 . S
C1010 C1011 1.377 . S
C1010 C1012 1.384 . S
C1011 C1010 1.377 . S
C1011 C1017 1.390 . S
C1012 H1003 0.930 . S
C1012 C1010 1.384 . S
C1012 C1013 1.372 . S
C1013 C1012 1.372 . S
C1013 C1014 1.400 . S
C1013 C1018 1.490 . S
C1014 H1004 0.930 . S
C1014 C1013 1.400 . S
C1014 C1017 1.386 . S
H1015 C1031 0.930 . S
H1016 C1032 0.931 . S
C1017 H1005 0.929 . S
C1017 C1011 1.390 . S
C1017 C1014 1.386 . S
C1018 C1013 1.490 . S
C1018 C1020 1.395 . S
C1018 C1021 1.403 . S
H1019 C1025 0.930 . S
C1020 H1006 0.930 . S
C1020 C1018 1.395 . S
C1020 C1023 1.403 . S
C1021 C1018 1.403 . S
C1021 C1022 1.524 . S
C1021 C1025 1.400 . S
C1022 H1007 0.960 . S
C1022 H1008 0.960 . S
C1022 H1009 0.960 . S
C1022 C1021 1.524 . S
C1023 C1020 1.403 . S
C1023 C1024 1.392 . S
C1023 C1027 1.495 . S
C1024 C1023 1.392 . S
C1024 C1025 1.385 . S
C1024 C1026 1.478 . S
C1025 H1019 0.930 . S
C1025 C1021 1.400 . S
C1025 C1024 1.385 . S
C1026 C1024 1.478 . S
C1026 C1028 1.381 . S
C1026 C1032 1.383 . S
C1027 C1023 1.495 . S
C1027 H1033 0.959 . S
C1027 H1034 0.961 . S
C1027 H1035 0.960 . S
C1028 C1026 1.381 . S
C1028 C1029 1.394 . S
C1028 H1036 0.930 . S
C1029 C1028 1.394 . S
C1029 C1030 1.383 . S
C1029 H1037 0.929 . S
C1030 C1029 1.383 . S
C1030 C1031 1.377 . S
C1031 H1015 0.930 . S
C1031 C1030 1.377 . S
C1031 C1032 1.379 . S
C1032 H1016 0.931 . S
C1032 C1026 1.383 . S
C1032 C1031 1.379 . S
H1033 C1027 0.959 . S
H1034 C1027 0.961 . S
H1035 C1027 0.960 . S
H1036 C1028 0.930 . S
H1037 C1029 0.929 . S
H1038 C1046 0.929 . S
H1039 C1048 0.930 . S
H1040 C1050 0.930 . S
H1041 C1053 0.929 . S
H1042 C1056 0.930 . S
H1043 C1058 0.960 . S
H1044 C1058 0.960 . S
H1045 C1058 0.960 . S
C1046 H1038 0.929 . S
C1046 C1047 1.377 . S
C1046 C1048 1.384 . S
C1047 C1046 1.377 . S
C1047 C1053 1.390 . S
C1048 H1039 0.930 . S
C1048 C1046 1.384 . S
C1048 C1049 1.372 . S
C1049 C1048 1.372 . S
C1049 C1050 1.400 . S
C1049 C1054 1.490 . S
C1050 H1040 0.930 . S
C1050 C1049 1.400 . S
C1050 C1053 1.386 . S
H1051 C1067 0.930 . S
H1052 C1068 0.931 . S
C1053 H1041 0.929 . S
C1053 C1047 1.390 . S
C1053 C1050 1.386 . S
C1054 C1049 1.490 . S
C1054 C1056 1.395 . S
C1054 C1057 1.403 . S
H1055 C1061 0.930 . S
C1056 H1042 0.930 . S
C1056 C1054 1.395 . S
C1056 C1059 1.403 . S
C1057 C1054 1.403 . S
C1057 C1058 1.524 . S
C1057 C1061 1.400 . S
C1058 H1043 0.960 . S
C1058 H1044 0.960 . S
C1058 H1045 0.960 . S
C1058 C1057 1.524 . S
C1059 C1056 1.403 . S
C1059 C1060 1.392 . S
C1059 C1063 1.495 . S
C1060 C1059 1.392 . S
C1060 C1061 1.385 . S
C1060 C1062 1.478 . S
C1061 H1055 0.930 . S
C1061 C1057 1.400 . S
C1061 C1060 1.385 . S
C1062 C1060 1.478 . S
C1062 C1064 1.381 . S
C1062 C1068 1.383 . S
C1063 C1059 1.495 . S
C1063 H1069 0.959 . S
C1063 H1070 0.961 . S
C1063 H1071 0.960 . S
C1064 C1062 1.381 . S
C1064 C1065 1.394 . S
C1064 H1072 0.930 . S
C1065 C1064 1.394 . S
C1065 C1066 1.383 . S
C1065 H1073 0.929 . S
C1066 C1065 1.383 . S
C1066 C1067 1.377 . S
C1067 H1051 0.930 . S
C1067 C1066 1.377 . S
C1067 C1068 1.379 . S
C1068 H1052 0.931 . S
C1068 C1062 1.383 . S
C1068 C1067 1.379 . S
H1069 C1063 0.959 . S
H1070 C1063 0.961 . S
H1071 C1063 0.960 . S
H1072 C1064 0.930 . S
H1073 C1065 0.929 . S
H1074 C1082 0.929 . S
H1075 C1084 0.930 . S
H1076 C1086 0.930 . S
H1077 C1089 0.929 . S
H1078 C1092 0.930 . S
H1079 C1094 0.960 . S
H1080 C1094 0.960 . S
H1081 C1094 0.960 . S
C1082 H1074 0.929 . S
C1082 C1083 1.377 . S
C1082 C1084 1.384 . S
C1083 C1082 1.377 . S
C1083 C1089 1.390 . S
C1084 H1075 0.930 . S
C1084 C1082 1.384 . S
C1084 C1085 1.372 . S
C1085 C1084 1.372 . S
C1085 C1086 1.400 . S
C1085 C1090 1.490 . S
C1086 H1076 0.930 . S
C1086 C1085 1.400 . S
C1086 C1089 1.386 . S
H1087 C1103 0.930 . S
H1088 C1104 0.931 . S
C1089 H1077 0.929 . S
C1089 C1083 1.390 . S
C1089 C1086 1.386 . S
C1090 C1085 1.490 . S
C1090 C1092 1.395 . S
C1090 C1093 1.403 . S
H1091 C1097 0.930 . S
C1092 H1078 0.930 . S
C1092 C1090 1.395 . S
C1092 C1095 1.403 . S
C1093 C1090 1.403 . S
C1093 C1094 1.524 . S
C1093 C1097 1.400 . S
C1094 H1079 0.960 . S
C1094 H1080 0.960 . S
C1094 H1081 0.960 . S
C1094 C1093 1.524 . S
C1095 C1092 1.403 . S
C1095 C1096 1.392 . S
C1095 C1099 1.495 . S
C1096 C1095 1.392 . S
C1096 C1097 1.385 . S
C1096 C1098 1.478 . S
C1097 H1091 0.930 . S
C1097 C1093 1.400 . S
C1097 C1096 1.385 . S
C1098 C1096 1.478 . S
C1098 C1100 1.381 . S
C1098 C1104 1.383 . S
C1099 C1095 1.495 . S
C1099 H1105 0.959 . S
C1099 H1106 0.961 . S
C1099 H1107 0.960 . S
C1100 C1098 1.381 . S
C1100 C1101 1.394 . S
C1100 H1108 0.930 . S
C1101 C1100 1.394 . S
C1101 C1102 1.383 . S
C1101 H1109 0.929 . S
C1102 C1101 1.383 . S
C1102 C1103 1.377 . S
C1103 H1087 0.930 . S
C1103 C1102 1.377 . S
C1103 C1104 1.379 . S
C1104 H1088 0.931 . S
C1104 C1098 1.383 . S
C1104 C1103 1.379 . S
H1105 C1099 0.959 . S
H1106 C1099 0.961 . S
H1107 C1099 0.960 . S
H1108 C1100 0.930 . S
H1109 C1101 0.929 . S
H1110 C1118 0.929 . S
H1111 C1120 0.930 . S
H1112 C1122 0.930 . S
H1113 C1125 0.929 . S
H1114 C1128 0.930 . S
H1115 C1130 0.960 . S
H1116 C1130 0.960 . S
H1117 C1130 0.960 . S
C1118 H1110 0.929 . S
C1118 C1119 1.377 . S
C1118 C1120 1.384 . S
C1119 C1118 1.377 . S
C1119 C1125 1.390 . S
C1120 H1111 0.930 . S
C1120 C1118 1.384 . S
C1120 C1121 1.372 . S
C1121 C1120 1.372 . S
C1121 C1122 1.400 . S
C1121 C1126 1.490 . S
C1122 H1112 0.930 . S
C1122 C1121 1.400 . S
C1122 C1125 1.386 . S
H1123 C1139 0.930 . S
H1124 C1140 0.931 . S
C1125 H1113 0.929 . S
C1125 C1119 1.390 . S
C1125 C1122 1.386 . S
C1126 C1121 1.490 . S
C1126 C1128 1.395 . S
C1126 C1129 1.403 . S
H1127 C1133 0.930 . S
C1128 H1114 0.930 . S
C1128 C1126 1.395 . S
C1128 C1131 1.403 . S
C1129 C1126 1.403 . S
C1129 C1130 1.524 . S
C1129 C1133 1.400 . S
C1130 H1115 0.960 . S
C1130 H1116 0.960 . S
C1130 H1117 0.960 . S
C1130 C1129 1.524 . S
C1131 C1128 1.403 . S
C1131 C1132 1.392 . S
C1131 C1135 1.495 . S
C1132 C1131 1.392 . S
C1132 C1133 1.385 . S
C1132 C1134 1.478 . S
C1133 H1127 0.930 . S
C1133 C1129 1.400 . S
C1133 C1132 1.385 . S
C1134 C1132 1.478 . S
C1134 C1136 1.381 . S
C1134 C1140 1.383 . S
C1135 C1131 1.495 . S
C1135 H1141 0.959 . S
C1135 H1142 0.961 . S
C1135 H1143 0.960 . S
C1136 C1134 1.381 . S
C1136 C1137 1.394 . S
C1136 H1144 0.930 . S
C1137 C1136 1.394 . S
C1137 C1138 1.383 . S
C1137 H1145 0.929 . S
C1138 C1137 1.383 . S
C1138 C1139 1.377 . S
C1139 H1123 0.930 . S
C1139 C1138 1.377 . S
C1139 C1140 1.379 . S
C1140 H1124 0.931 . S
C1140 C1134 1.383 . S
C1140 C1139 1.379 . S
H1141 C1135 0.959 . S
H1142 C1135 0.961 . S
H1143 C1135 0.960 . S
H1144 C1136 0.930 . S
H1145 C1137 0.929 . S
H1146 C1154 0.929 . S
H1147 C1156 0.930 . S
H1148 C1158 0.930 . S
H1149 C1161 0.929 . S
H1150 C1164 0.930 . S
H1151 C1166 0.960 . S
H1152 C1166 0.960 . S
H1153 C1166 0.960 . S
C1154 H1146 0.929 . S
C1154 C1155 1.377 . S
C1154 C1156 1.384 . S
C1155 C1154 1.377 . S
C1155 C1161 1.390 . S
C1156 H1147 0.930 . S
C1156 C1154 1.384 . S
C1156 C1157 1.372 . S
C1157 C1156 1.372 . S
C1157 C1158 1.400 . S
C1157 C1162 1.490 . S
C1158 H1148 0.930 . S
C1158 C1157 1.400 . S
C1158 C1161 1.386 . S
H1159 C1175 0.930 . S
H1160 C1176 0.931 . S
C1161 H1149 0.929 . S
C1161 C1155 1.390 . S
C1161 C1158 1.386 . S
C1162 C1157 1.490 . S
C1162 C1164 1.395 . S
C1162 C1165 1.403 . S
H1163 C1169 0.930 . S
C1164 H1150 0.930 . S
C1164 C1162 1.395 . S
C1164 C1167 1.403 . S
C1165 C1162 1.403 . S
C1165 C1166 1.524 . S
C1165 C1169 1.400 . S
C1166 H1151 0.960 . S
C1166 H1152 0.960 . S
C1166 H1153 0.960 . S
C1166 C1165 1.524 . S
C1167 C1164 1.403 . S
C1167 C1168 1.392 . S
C1167 C1171 1.495 . S
C1168 C1167 1.392 . S
C1168 C1169 1.385 . S
C1168 C1170 1.478 . S
C1169 H1163 0.930 . S
C1169 C1165 1.400 . S
C1169 C1168 1.385 . S
C1170 C1168 1.478 . S
C1170 C1172 1.381 . S
C1170 C1176 1.383 . S
C1171 C1167 1.495 . S
C1171 H1177 0.959 . S
C1171 H1178 0.961 . S
C1171 H1179 0.960 . S
C1172 C1170 1.381 . S
C1172 C1173 1.394 . S
C1172 H1180 0.930 . S
C1173 C1172 1.394 . S
C1173 C1174 1.383 . S
C1173 H1181 0.929 . S
C1174 C1173 1.383 . S
C1174 C1175 1.377 . S
C1175 H1159 0.930 . S
C1175 C1174 1.377 . S
C1175 C1176 1.379 . S
C1176 H1160 0.931 . S
C1176 C1170 1.383 . S
C1176 C1175 1.379 . S
H1177 C1171 0.959 . S
H1178 C1171 0.961 . S
H1179 C1171 0.960 . S
H1180 C1172 0.930 . S
H1181 C1173 0.929 . S
H1182 C1190 0.929 . S
H1183 C1192 0.930 . S
H1184 C1194 0.930 . S
H1185 C1197 0.929 . S
H1186 C1200 0.930 . S
H1187 C1202 0.960 . S
H1188 C1202 0.960 . S
H1189 C1202 0.960 . S
C1190 H1182 0.929 . S
C1190 C1191 1.377 . S
C1190 C1192 1.384 . S
C1191 C1190 1.377 . S
C1191 C1197 1.390 . S
C1192 H1183 0.930 . S
C1192 C1190 1.384 . S
C1192 C1193 1.372 . S
C1193 C1192 1.372 . S
C1193 C1194 1.400 . S
C1193 C1198 1.490 . S
C1194 H1184 0.930 . S
C1194 C1193 1.400 . S
C1194 C1197 1.386 . S
H1195 C1211 0.930 . S
H1196 C1212 0.931 . S
C1197 H1185 0.929 . S
C1197 C1191 1.390 . S
C1197 C1194 1.386 . S
C1198 C1193 1.490 . S
C1198 C1200 1.395 . S
C1198 C1201 1.403 . S
H1199 C1205 0.930 . S
C1200 H1186 0.930 . S
C1200 C1198 1.395 . S
C1200 C1203 1.403 . S
C1201 C1198 1.403 . S
C1201 C1202 1.524 . S
C1201 C1205 1.400 . S
C1202 H1187 0.960 . S
C1202 H1188 0.960 . S
C1202 H1189 0.960 . S
C1202 C1201 1.524 . S
C1203 C1200 1.403 . S
C1203 C1204 1.392 . S
C1203 C1207 1.495 . S
C1204 C1203 1.392 . S
C1204 C1205 1.385 . S
C1204 C1206 1.478 . S
C1205 H1199 0.930 . S
C1205 C1201 1.400 . S
C1205 C1204 1.385 . S
C1206 C1204 1.478 . S
C1206 C1208 1.381 . S
C1206 C1212 1.383 . S
C1207 C1203 1.495 . S
C1207 H1213 0.959 . S
C1207 H1214 0.961 . S
C1207 H1215 0.960 . S
C1208 C1206 1.381 . S
C1208 C1209 1.394 . S
C1208 H1216 0.930 . S
C1209 C1208 1.394 . S
C1209 C1210 1.383 . S
C1209 H1217 0.929 . S
C1210 C1209 1.383 . S
C1210 C1211 1.377 . S
C1211 H1195 0.930 . S
C1211 C1210 1.377 . S
C1211 C1212 1.379 . S
C1212 H1196 0.931 . S
C1212 C1206 1.383 . S
C1212 C1211 1.379 . S
H1213 C1207 0.959 . S
H1214 C1207 0.961 . S
H1215 C1207 0.960 . S
H1216 C1208 0.930 . S
H1217 C1209 0.929 . S
H1218 C1226 0.929 . S
H1219 C1228 0.930 . S
H1220 C1230 0.930 . S
H1221 C1233 0.929 . S
H1222 C1236 0.930 . S
H1223 C1238 0.960 . S
H1224 C1238 0.960 . S
H1225 C1238 0.960 . S
C1226 H1218 0.929 . S
C1226 C1227 1.377 . S
C1226 C1228 1.384 . S
C1227 C1226 1.377 . S
C1227 C1233 1.390 . S
C1228 H1219 0.930 . S
C1228 C1226 1.384 . S
C1228 C1229 1.372 . S
C1229 C1228 1.372 . S
C1229 C1230 1.400 . S
C1229 C1234 1.490 . S
C1230 H1220 0.930 . S
C1230 C1229 1.400 . S
C1230 C1233 1.386 . S
H1231 C1247 0.930 . S
H1232 C1248 0.931 . S
C1233 H1221 0.929 . S
C1233 C1227 1.390 . S
C1233 C1230 1.386 . S
C1234 C1229 1.490 . S
C1234 C1236 1.395 . S
C1234 C1237 1.403 . S
H1235 C1241 0.930 . S
C1236 H1222 0.930 . S
C1236 C1234 1.395 . S
C1236 C1239 1.403 . S
C1237 C1234 1.403 . S
C1237 C1238 1.524 . S
C1237 C1241 1.400 . S
C1238 H1223 0.960 . S
C1238 H1224 0.960 . S
C1238 H1225 0.960 . S
C1238 C1237 1.524 . S
C1239 C1236 1.403 . S
C1239 C1240 1.392 . S
C1239 C1243 1.495 . S
C1240 C1239 1.392 . S
C1240 C1241 1.385 . S
C1240 C1242 1.478 . S
C1241 H1235 0.930 . S
C1241 C1237 1.400 . S
C1241 C1240 1.385 . S
C1242 C1240 1.478 . S
C1242 C1244 1.381 . S
C1242 C1248 1.383 . S
C1243 C1239 1.495 . S
C1243 H1249 0.959 . S
C1243 H1250 0.961 . S
C1243 H1251 0.960 . S
C1244 C1242 1.381 . S
C1244 C1245 1.394 . S
C1244 H1252 0.930 . S
C1245 C1244 1.394 . S
C1245 C1246 1.383 . S
C1245 H1253 0.929 . S
C1246 C1245 1.383 . S
C1246 C1247 1.377 . S
C1247 H1231 0.930 . S
C1247 C1246 1.377 . S
C1247 C1248 1.379 . S
C1248 H1232 0.931 . S
C1248 C1242 1.383 . S
C1248 C1247 1.379 . S
H1249 C1243 0.959 . S
H1250 C1243 0.961 . S
H1251 C1243 0.960 . S
H1252 C1244 0.930 . S
H1253 C1245 0.929 . S
H1254 C1262 0.929 . S
H1255 C1264 0.930 . S
H1256 C1266 0.930 . S
H1257 C1269 0.929 . S
H1258 C1272 0.930 . S
H1259 C1274 0.960 . S
H1260 C1274 0.960 . S
H1261 C1274 0.960 . S
C1262 H1254 0.929 . S
C1262 C1263 1.377 . S
C1262 C1264 1.384 . S
C1263 C1262 1.377 . S
C1263 C1269 1.390 . S
C1264 H1255 0.930 . S
C1264 C1262 1.384 . S
C1264 C1265 1.372 . S
C1265 C1264 1.372 . S
C1265 C1266 1.400 . S
C1265 C1270 1.490 . S
C1266 H1256 0.930 . S
C1266 C1265 1.400 . S
C1266 C1269 1.386 . S
H1267 C1283 0.930 . S
H1268 C1284 0.931 . S
C1269 H1257 0.929 . S
C1269 C1263 1.390 . S
C1269 C1266 1.386 . S
C1270 C1265 1.490 . S
C1270 C1272 1.395 . S
C1270 C1273 1.403 . S
H1271 C1277 0.930 . S
C1272 H1258 0.930 . S
C1272 C1270 1.395 . S
C1272 C1275 1.403 . S
C1273 C1270 1.403 . S
C1273 C1274 1.524 . S
C1273 C1277 1.400 . S
C1274 H1259 0.960 . S
C1274 H1260 0.960 . S
C1274 H1261 0.960 . S
C1274 C1273 1.524 . S
C1275 C1272 1.403 . S
C1275 C1276 1.392 . S
C1275 C1279 1.495 . S
C1276 C1275 1.392 . S
C1276 C1277 1.385 . S
C1276 C1278 1.478 . S
C1277 H1271 0.930 . S
C1277 C1273 1.400 . S
C1277 C1276 1.385 . S
C1278 C1276 1.478 . S
C1278 C1280 1.381 . S
C1278 C1284 1.383 . S
C1279 C1275 1.495 . S
C1279 H1285 0.959 . S
C1279 H1286 0.961 . S
C1279 H1287 0.960 . S
C1280 C1278 1.381 . S
C1280 C1281 1.394 . S
C1280 H1288 0.930 . S
C1281 C1280 1.394 . S
C1281 C1282 1.383 . S
C1281 H1289 0.929 . S
C1282 C1281 1.383 . S
C1282 C1283 1.377 . S
C1283 H1267 0.930 . S
C1283 C1282 1.377 . S
C1283 C1284 1.379 . S
C1284 H1268 0.931 . S
C1284 C1278 1.383 . S
C1284 C1283 1.379 . S
H1285 C1279 0.959 . S
H1286 C1279 0.961 . S
H1287 C1279 0.960 . S
H1288 C1280 0.930 . S
H1289 C1281 0.929 . S
H1290 C1298 0.929 . S
H1291 C1300 0.930 . S
H1292 C1302 0.930 . S
H1293 C1305 0.929 . S
H1294 C1308 0.930 . S
H1295 C1310 0.960 . S
H1296 C1310 0.960 . S
H1297 C1310 0.960 . S
C1298 H1290 0.929 . S
C1298 C1299 1.377 . S
C1298 C1300 1.384 . S
C1299 C1298 1.377 . S
C1299 C1305 1.390 . S
C1300 H1291 0.930 . S
C1300 C1298 1.384 . S
C1300 C1301 1.372 . S
C1301 C1300 1.372 . S
C1301 C1302 1.400 . S
C1301 C1306 1.490 . S
C1302 H1292 0.930 . S
C1302 C1301 1.400 . S
C1302 C1305 1.386 . S
H1303 C1319 0.930 . S
H1304 C1320 0.931 . S
C1305 H1293 0.929 . S
C1305 C1299 1.390 . S
C1305 C1302 1.386 . S
C1306 C1301 1.490 . S
C1306 C1308 1.395 . S
C1306 C1309 1.403 . S
H1307 C1313 0.930 . S
C1308 H1294 0.930 . S
C1308 C1306 1.395 . S
C1308 C1311 1.403 . S
C1309 C1306 1.403 . S
C1309 C1310 1.524 . S
C1309 C1313 1.400 . S
C1310 H1295 0.960 . S
C1310 H1296 0.960 . S
C1310 H1297 0.960 . S
C1310 C1309 1.524 . S
C1311 C1308 1.403 . S
C1311 C1312 1.392 . S
C1311 C1315 1.495 . S
C1312 C1311 1.392 . S
C1312 C1313 1.385 . S
C1312 C1314 1.478 . S
C1313 H1307 0.930 . S
C1313 C1309 1.400 . S
C1313 C1312 1.385 . S
C1314 C1312 1.478 . S
C1314 C1316 1.381 . S
C1314 C1320 1.383 . S
C1315 C1311 1.495 . S
C1315 H1321 0.959 . S
C1315 H1322 0.961 . S
C1315 H1323 0.960 . S
C1316 C1314 1.381 . S
C1316 C1317 1.394 . S
C1316 H1324 0.930 . S
C1317 C1316 1.394 . S
C1317 C1318 1.383 . S
C1317 H1325 0.929 . S
C1318 C1317 1.383 . S
C1318 C1319 1.377 . S
C1319 H1303 0.930 . S
C1319 C1318 1.377 . S
C1319 C1320 1.379 . S
C1320 H1304 0.931 . S
C1320 C1314 1.383 . S
C1320 C1319 1.379 . S
H1321 C1315 0.959 . S
H1322 C1315 0.961 . S
H1323 C1315 0.960 . S
H1324 C1316 0.930 . S
H1325 C1317 0.929 . S
H1326 C1334 0.929 . S
H1327 C1336 0.930 . S
H1328 C1338 0.930 . S
H1329 C1341 0.929 . S
H1330 C1344 0.930 . S
H1331 C1346 0.960 . S
H1332 C1346 0.960 . S
H1333 C1346 0.960 . S
C1334 H1326 0.929 . S
C1334 C1335 1.377 . S
C1334 C1336 1.384 . S
C1335 C1334 1.377 . S
C1335 C1341 1.390 . S
C1336 H1327 0.930 . S
C1336 C1334 1.384 . S
C1336 C1337 1.372 . S
C1337 C1336 1.372 . S
C1337 C1338 1.400 . S
C1337 C1342 1.490 . S
C1338 H1328 0.930 . S
C1338 C1337 1.400 . S
C1338 C1341 1.386 . S
H1339 C1355 0.930 . S
H1340 C1356 0.931 . S
C1341 H1329 0.929 . S
C1341 C1335 1.390 . S
C1341 C1338 1.386 . S
C1342 C1337 1.490 . S
C1342 C1344 1.395 . S
C1342 C1345 1.403 . S
H1343 C1349 0.930 . S
C1344 H1330 0.930 . S
C1344 C1342 1.395 . S
C1344 C1347 1.403 . S
C1345 C1342 1.403 . S
C1345 C1346 1.524 . S
C1345 C1349 1.400 . S
C1346 H1331 0.960 . S
C1346 H1332 0.960 . S
C1346 H1333 0.960 . S
C1346 C1345 1.524 . S
C1347 C1344 1.403 . S
C1347 C1348 1.392 . S
C1347 C1351 1.495 . S
C1348 C1347 1.392 . S
C1348 C1349 1.385 . S
C1348 C1350 1.478 . S
C1349 H1343 0.930 . S
C1349 C1345 1.400 . S
C1349 C1348 1.385 . S
C1350 C1348 1.478 . S
C1350 C1352 1.381 . S
C1350 C1356 1.383 . S
C1351 C1347 1.495 . S
C1351 H1357 0.959 . S
C1351 H1358 0.961 . S
C1351 H1359 0.960 . S
C1352 C1350 1.381 . S
C1352 C1353 1.394 . S
C1352 H1360 0.930 . S
C1353 C1352 1.394 . S
C1353 C1354 1.383 . S
C1353 H1361 0.929 . S
C1354 C1353 1.383 . S
C1354 C1355 1.377 . S
C1355 H1339 0.930 . S
C1355 C1354 1.377 . S
C1355 C1356 1.379 . S
C1356 H1340 0.931 . S
C1356 C1350 1.383 . S
C1356 C1355 1.379 . S
H1357 C1351 0.959 . S
H1358 C1351 0.961 . S
H1359 C1351 0.960 . S
H1360 C1352 0.930 . S
H1361 C1353 0.929 . S
H1362 C1370 0.929 . S
H1363 C1372 0.930 . S
H1364 C1374 0.930 . S
H1365 C1377 0.929 . S
H1366 C1380 0.930 . S
H1367 C1382 0.960 . S
H1368 C1382 0.960 . S
H1369 C1382 0.960 . S
C1370 H1362 0.929 . S
C1370 C1371 1.377 . S
C1370 C1372 1.384 . S
C1371 C1370 1.377 . S
C1371 C1377 1.390 . S
C1372 H1363 0.930 . S
C1372 C1370 1.384 . S
C1372 C1373 1.372 . S
C1373 C1372 1.372 . S
C1373 C1374 1.400 . S
C1373 C1378 1.490 . S
C1374 H1364 0.930 . S
C1374 C1373 1.400 . S
C1374 C1377 1.386 . S
H1375 C1391 0.930 . S
H1376 C1392 0.931 . S
C1377 H1365 0.929 . S
C1377 C1371 1.390 . S
C1377 C1374 1.386 . S
C1378 C1373 1.490 . S
C1378 C1380 1.395 . S
C1378 C1381 1.403 . S
H1379 C1385 0.930 . S
C1380 H1366 0.930 . S
C1380 C1378 1.395 . S
C1380 C1383 1.403 . S
C1381 C1378 1.403 . S
C1381 C1382 1.524 . S
C1381 C1385 1.400 . S
C1382 H1367 0.960 . S
C1382 H1368 0.960 . S
C1382 H1369 0.960 . S
C1382 C1381 1.524 . S
C1383 C1380 1.403 . S
C1383 C1384 1.392 . S
C1383 C1387 1.495 . S
C1384 C1383 1.392 . S
C1384 C1385 1.385 . S
C1384 C1386 1.478 . S
C1385 H1379 0.930 . S
C1385 C1381 1.400 . S
C1385 C1384 1.385 . S
C1386 C1384 1.478 . S
C1386 C1388 1.381 . S
C1386 C1392 1.383 . S
C1387 C1383 1.495 . S
C1387 H1393 0.959 . S
C1387 H1394 0.961 . S
C1387 H1395 0.960 . S
C1388 C1386 1.381 . S
C1388 C1389 1.394 . S
C1388 H1396 0.930 . S
C1389 C1388 1.394 . S
C1389 C1390 1.383 . S
C1389 H1397 0.929 . S
C1390 C1389 1.383 . S
C1390 C1391 1.377 . S
C1391 H1375 0.930 . S
C1391 C1390 1.377 . S
C1391 C1392 1.379 . S
C1392 H1376 0.931 . S
C1392 C1386 1.383 . S
C1392 C1391 1.379 . S
H1393 C1387 0.959 . S
H1394 C1387 0.961 . S
H1395 C1387 0.960 . S
H1396 C1388 0.930 . S
H1397 C1389 0.929 . S
H1398 C1406 0.929 . S
H1399 C1408 0.930 . S
H1400 C1410 0.930 . S
H1401 C1413 0.929 . S
H1402 C1416 0.930 . S
H1403 C1418 0.960 . S
H1404 C1418 0.960 . S
H1405 C1418 0.960 . S
C1406 H1398 0.929 . S
C1406 C1407 1.377 . S
C1406 C1408 1.384 . S
C1407 C1406 1.377 . S
C1407 C1413 1.390 . S
C1408 H1399 0.930 . S
C1408 C1406 1.384 . S
C1408 C1409 1.372 . S
C1409 C1408 1.372 . S
C1409 C1410 1.400 . S
C1409 C1414 1.490 . S
C1410 H1400 0.930 . S
C1410 C1409 1.400 . S
C1410 C1413 1.386 . S
H1411 C1427 0.930 . S
H1412 C1428 0.931 . S
C1413 H1401 0.929 . S
C1413 C1407 1.390 . S
C1413 C1410 1.386 . S
C1414 C1409 1.490 . S
C1414 C1416 1.395 . S
C1414 C1417 1.403 . S
H1415 C1421 0.930 . S
C1416 H1402 0.930 . S
C1416 C1414 1.395 . S
C1416 C1419 1.403 . S
C1417 C1414 1.403 . S
C1417 C1418 1.524 . S
C1417 C1421 1.400 . S
C1418 H1403 0.960 . S
C1418 H1404 0.960 . S
C1418 H1405 0.960 . S
C1418 C1417 1.524 . S
C1419 C1416 1.403 . S
C1419 C1420 1.392 . S
C1419 C1423 1.495 . S
C1420 C1419 1.392 . S
C1420 C1421 1.385 . S
C1420 C1422 1.478 . S
C1421 H1415 0.930 . S
C1421 C1417 1.400 . S
C1421 C1420 1.385 . S
C1422 C1420 1.478 . S
C1422 C1424 1.381 . S
C1422 C1428 1.383 . S
C1423 C1419 1.495 . S
C1423 H1429 0.959 . S
C1423 H1430 0.961 . S
C1423 H1431 0.960 . S
C1424 C1422 1.381 . S
C1424 C1425 1.394 . S
C1424 H1432 0.930 . S
C1425 C1424 1.394 . S
C1425 C1426 1.383 . S
C1425 H1433 0.929 . S
C1426 C1425 1.383 . S
C1426 C1427 1.377 . S
C1427 H1411 0.930 . S
C1427 C1426 1.377 . S
C1427 C1428 1.379 . S
C1428 H1412 0.931 . S
C1428 C1422 1.383 . S
C1428 C1427 1.379 . S
H1429 C1423 0.959 . S
H1430 C1423 0.961 . S
H1431 C1423 0.960 . S
H1432 C1424 0.930 . S
H1433 C1425 0.929 . S
H1434 C1442 0.929 . S
H1435 C1444 0.930 . S
H1436 C1446 0.930 . S
H1437 C1449 0.929 . S
H1438 C1452 0.930 . S
H1439 C1454 0.960 . S
H1440 C1454 0.960 . S
H1441 C1454 0.960 . S
C1442 H1434 0.929 . S
C1442 C1443 1.377 . S
C1442 C1444 1.384 . S
C1443 C1442 1.377 . S
C1443 C1449 1.390 . S
C1444 H1435 0.930 . S
C1444 C1442 1.384 . S
C1444 C1445 1.372 . S
C1445 C1444 1.372 . S
C1445 C1446 1.400 . S
C1445 C1450 1.490 . S
C1446 H1436 0.930 . S
C1446 C1445 1.400 . S
C1446 C1449 1.386 . S
H1447 C1463 0.930 . S
H1448 C1464 0.931 . S
C1449 H1437 0.929 . S
C1449 C1443 1.390 . S
C1449 C1446 1.386 . S
C1450 C1445 1.490 . S
C1450 C1452 1.395 . S
C1450 C1453 1.403 . S
H1451 C1457 0.930 . S
C1452 H1438 0.930 . S
C1452 C1450 1.395 . S
C1452 C1455 1.403 . S
C1453 C1450 1.403 . S
C1453 C1454 1.524 . S
C1453 C1457 1.400 . S
C1454 H1439 0.960 . S
C1454 H1440 0.960 . S
C1454 H1441 0.960 . S
C1454 C1453 1.524 . S
C1455 C1452 1.403 . S
C1455 C1456 1.392 . S
C1455 C1459 1.495 . S
C1456 C1455 1.392 . S
C1456 C1457 1.385 . S
C1456 C1458 1.478 . S
C1457 H1451 0.930 . S
C1457 C1453 1.400 . S
C1457 C1456 1.385 . S
C1458 C1456 1.478 . S
C1458 C1460 1.381 . S
C1458 C1464 1.383 . S
C1459 C1455 1.495 . S
C1459 H1465 0.959 . S
C1459 H1466 0.961 . S
C1459 H1467 0.960 . S
C1460 C1458 1.381 . S
C1460 C1461 1.394 . S
C1460 H1468 0.930 . S
C1461 C1460 1.394 . S
C1461 C1462 1.383 . S
C1461 H1469 0.929 . S
C1462 C1461 1.383 . S
C1462 C1463 1.377 . S
C1463 H1447 0.930 . S
C1463 C1462 1.377 . S
C1463 C1464 1.379 . S
C1464 H1448 0.931 . S
C1464 C1458 1.383 . S
C1464 C1463 1.379 . S
H1465 C1459 0.959 . S
H1466 C1459 0.961 . S
H1467 C1459 0.960 . S
H1468 C1460 0.930 . S
H1469 C1461 0.929 . S
H1470 C1478 0.929 . S
H1471 C1480 0.930 . S
H1472 C1482 0.930 . S
H1473 C1485 0.929 . S
H1474 C1488 0.930 . S
H1475 C1490 0.960 . S
H1476 C1490 0.960 . S
H1477 C1490 0.960 . S
C1478 H1470 0.929 . S
C1478 C1479 1.377 . S
C1478 C1480 1.384 . S
C1479 C1478 1.377 . S
C1479 C1485 1.390 . S
C1480 H1471 0.930 . S
C1480 C1478 1.384 . S
C1480 C1481 1.372 . S
C1481 C1480 1.372 . S
C1481 C1482 1.400 . S
C1481 C1486 1.490 . S
C1482 H1472 0.930 . S
C1482 C1481 1.400 . S
C1482 C1485 1.386 . S
H1483 C1499 0.930 . S
H1484 C1500 0.931 . S
C1485 H1473 0.929 . S
C1485 C1479 1.390 . S
C1485 C1482 1.386 . S
C1486 C1481 1.490 . S
C1486 C1488 1.395 . S
C1486 C1489 1.403 . S
H1487 C1493 0.930 . S
C1488 H1474 0.930 . S
C1488 C1486 1.395 . S
C1488 C1491 1.403 . S
C1489 C1486 1.403 . S
C1489 C1490 1.524 . S
C1489 C1493 1.400 . S
C1490 H1475 0.960 . S
C1490 H1476 0.960 . S
C1490 H1477 0.960 . S
C1490 C1489 1.524 . S
C1491 C1488 1.403 . S
C1491 C1492 1.392 . S
C1491 C1495 1.495 . S
C1492 C1491 1.392 . S
C1492 C1493 1.385 . S
C1492 C1494 1.478 . S
C1493 H1487 0.930 . S
C1493 C1489 1.400 . S
C1493 C1492 1.385 . S
C1494 C1492 1.478 . S
C1494 C1496 1.381 . S
C1494 C1500 1.383 . S
C1495 C1491 1.495 . S
C1495 H1501 0.959 . S
C1495 H1502 0.961 . S
C1495 H1503 0.960 . S
C1496 C1494 1.381 . S
C1496 C1497 1.394 . S
C1496 H1504 0.930 . S
C1497 C1496 1.394 . S
C1497 C1498 1.383 . S
C1497 H1505 0.929 . S
C1498 C1497 1.383 . S
C1498 C1499 1.377 . S
C1499 H1483 0.930 . S
C1499 C1498 1.377 . S
C1499 C1500 1.379 . S
C1500 H1484 0.931 . S
C1500 C1494 1.383 . S
C1500 C1499 1.379 . S
H1501 C1495 0.959 . S
H1502 C1495 0.961 . S
H1503 C1495 0.960 . S
H1504 C1496 0.930 . S
H1505 C1497 0.929 . S
H1506 C1514 0.929 . S
H1507 C1516 0.930 . S
H1508 C1518 0.930 . S
H1509 C1521 0.929 . S
H1510 C1524 0.930 . S
H1511 C1526 0.960 . S
H1512 C1526 0.960 . S
H1513 C1526 0.960 . S
C1514 H1506 0.929 . S
C1514 C1515 1.377 . S
C1514 C1516 1.384 . S
C1515 C1514 1.377 . S
C1515 C1521 1.390 . S
C1516 H1507 0.930 . S
C1516 C1514 1.384 . S
C1516 C1517 1.372 . S
C1517 C1516 1.372 . S
C1517 C1518 1.400 . S
C1517 C1522 1.490 . S
C1518 H1508 0.930 . S
C1518 C1517 1.400 . S
C1518 C1521 1.386 . S
H1519 C1535 0.930 . S
H1520 C1536 0.931 . S
C1521 H1509 0.929 . S
C1521 C1515 1.390 . S
C1521 C1518 1.386 . S
C1522 C1517 1.490 . S
C1522 C1524 1.395 . S
C1522 C1525 1.403 . S
H1523 C1529 0.930 . S
C1524 H1510 0.930 . S
C1524 C1522 1.395 . S
C1524 C1527 1.403 . S
C1525 C1522 1.403 . S
C1525 C1526 1.524 . S
C1525 C1529 1.400 . S
C1526 H1511 0.960 . S
C1526 H1512 0.960 . S
C1526 H1513 0.960 . S
C1526 C1525 1.524 . S
C1527 C1524 1.403 . S
C1527 C1528 1.392 . S
C1527 C1531 1.495 . S
C1528 C1527 1.392 . S
C1528 C1529 1.385 . S
C1528 C1530 1.478 . S
C1529 H1523 0.930 . S
C1529 C1525 1.400 . S
C1529 C1528 1.385 . S
C1530 C1528 1.478 . S
C1530 C1532 1.381 . S
C1530 C1536 1.383 . S
C1531 C1527 1.495 . S
C1531 H1537 0.959 . S
C1531 H1538 0.961 . S
C1531 H1539 0.960 . S
C1532 C1530 1.381 . S
C1532 C1533 1.394 . S
C1532 H1540 0.930 . S
C1533 C1532 1.394 . S
C1533 C1534 1.383 . S
C1533 H1541 0.929 . S
C1534 C1533 1.383 . S
C1534 C1535 1.377 . S
C1535 H1519 0.930 . S
C1535 C1534 1.377 . S
C1535 C1536 1.379 . S
C1536 H1520 0.931 . S
C1536 C1530 1.383 . S
C1536 C1535 1.379 . S
H1537 C1531 0.959 . S
H1538 C1531 0.961 . S
H1539 C1531 0.960 . S
H1540 C1532 0.930 . S
H1541 C1533 0.929 . S
H1542 C1550 0.929 . S
H1543 C1552 0.930 . S
H1544 C1554 0.930 . S
H1545 C1557 0.929 . S
H1546 C1560 0.930 . S
H1547 C1562 0.960 . S
H1548 C1562 0.960 . S
H1549 C1562 0.960 . S
C1550 H1542 0.929 . S
C1550 C1551 1.377 . S
C1550 C1552 1.384 . S
C1551 C1550 1.377 . S
C1551 C1557 1.390 . S
C1552 H1543 0.930 . S
C1552 C1550 1.384 . S
C1552 C1553 1.372 . S
C1553 C1552 1.372 . S
C1553 C1554 1.400 . S
C1553 C1558 1.490 . S
C1554 H1544 0.930 . S
C1554 C1553 1.400 . S
C1554 C1557 1.386 . S
H1555 C1571 0.930 . S
H1556 C1572 0.931 . S
C1557 H1545 0.929 . S
C1557 C1551 1.390 . S
C1557 C1554 1.386 . S
C1558 C1553 1.490 . S
C1558 C1560 1.395 . S
C1558 C1561 1.403 . S
H1559 C1565 0.930 . S
C1560 H1546 0.930 . S
C1560 C1558 1.395 . S
C1560 C1563 1.403 . S
C1561 C1558 1.403 . S
C1561 C1562 1.524 . S
C1561 C1565 1.400 . S
C1562 H1547 0.960 . S
C1562 H1548 0.960 . S
C1562 H1549 0.960 . S
C1562 C1561 1.524 . S
C1563 C1560 1.403 . S
C1563 C1564 1.392 . S
C1563 C1567 1.495 . S
C1564 C1563 1.392 . S
C1564 C1565 1.385 . S
C1564 C1566 1.478 . S
C1565 H1559 0.930 . S
C1565 C1561 1.400 . S
C1565 C1564 1.385 . S
C1566 C1564 1.478 . S
C1566 C1568 1.381 . S
C1566 C1572 1.383 . S
C1567 C1563 1.495 . S
C1567 H1573 0.959 . S
C1567 H1574 0.961 . S
C1567 H1575 0.960 . S
C1568 C1566 1.381 . S
C1568 C1569 1.394 . S
C1568 H1576 0.930 . S
C1569 C1568 1.394 . S
C1569 C1570 1.383 . S
C1569 H1577 0.929 . S
C1570 C1569 1.383 . S
C1570 C1571 1.377 . S
C1571 H1555 0.930 . S
C1571 C1570 1.377 . S
C1571 C1572 1.379 . S
C1572 H1556 0.931 . S
C1572 C1566 1.383 . S
C1572 C1571 1.379 . S
H1573 C1567 0.959 . S
H1574 C1567 0.961 . S
H1575 C1567 0.960 . S
H1576 C1568 0.930 . S
H1577 C1569 0.929 . S
H1578 C1586 0.929 . S
H1579 C1588 0.930 . S
H1580 C1590 0.930 . S
H1581 C1593 0.929 . S
H1582 C1596 0.930 . S
H1583 C1598 0.960 . S
H1584 C1598 0.960 . S
H1585 C1598 0.960 . S
C1586 H1578 0.929 . S
C1586 C1587 1.377 . S
C1586 C1588 1.384 . S
C1587 C1586 1.377 . S
C1587 C1593 1.390 . S
C1588 H1579 0.930 . S
C1588 C1586 1.384 . S
C1588 C1589 1.372 . S
C1589 C1588 1.372 . S
C1589 C1590 1.400 . S
C1589 C1594 1.490 . S
C1590 H1580 0.930 . S
C1590 C1589 1.400 . S
C1590 C1593 1.386 . S
H1591 C1607 0.930 . S
H1592 C1608 0.931 . S
C1593 H1581 0.929 . S
C1593 C1587 1.390 . S
C1593 C1590 1.386 . S
C1594 C1589 1.490 . S
C1594 C1596 1.395 . S
C1594 C1597 1.403 . S
H1595 C1601 0.930 . S
C1596 H1582 0.930 . S
C1596 C1594 1.395 . S
C1596 C1599 1.403 . S
C1597 C1594 1.403 . S
C1597 C1598 1.524 . S
C1597 C1601 1.400 . S
C1598 H1583 0.960 . S
C1598 H1584 0.960 . S
C1598 H1585 0.960 . S
C1598 C1597 1.524 . S
C1599 C1596 1.403 . S
C1599 C1600 1.392 . S
C1599 C1603 1.495 . S
C1600 C1599 1.392 . S
C1600 C1601 1.385 . S
C1600 C1602 1.478 . S
C1601 H1595 0.930 . S
C1601 C1597 1.400 . S
C1601 C1600 1.385 . S
C1602 C1600 1.478 . S
C1602 C1604 1.381 . S
C1602 C1608 1.383 . S
C1603 C1599 1.495 . S
C1603 H1609 0.959 . S
C1603 H1610 0.961 . S
C1603 H1611 0.960 . S
C1604 C1602 1.381 . S
C1604 C1605 1.394 . S
C1604 H1612 0.930 . S
C1605 C1604 1.394 . S
C1605 C1606 1.383 . S
C1605 H1613 0.929 . S
C1606 C1605 1.383 . S
C1606 C1607 1.377 . S
C1607 H1591 0.930 . S
C1607 C1606 1.377 . S
C1607 C1608 1.379 . S
C1608 H1592 0.931 . S
C1608 C1602 1.383 . S
C1608 C1607 1.379 . S
H1609 C1603 0.959 . S
H1610 C1603 0.961 . S
H1611 C1603 0.960 . S
H1612 C1604 0.930 . S
H1613 C1605 0.929 . S
H1614 C1622 0.929 . S
H1615 C1624 0.930 . S
H1616 C1626 0.930 . S
H1617 C1629 0.929 . S
H1618 C1632 0.930 . S
H1619 C1634 0.960 . S
H1620 C1634 0.960 . S
H1621 C1634 0.960 . S
C1622 H1614 0.929 . S
C1622 C1623 1.377 . S
C1622 C1624 1.384 . S
C1623 C1622 1.377 . S
C1623 C1629 1.390 . S
C1624 H1615 0.930 . S
C1624 C1622 1.384 . S
C1624 C1625 1.372 . S
C1625 C1624 1.372 . S
C1625 C1626 1.400 . S
C1625 C1630 1.490 . S
C1626 H1616 0.930 . S
C1626 C1625 1.400 . S
C1626 C1629 1.386 . S
H1627 C1643 0.930 . S
H1628 C1644 0.931 . S
C1629 H1617 0.929 . S
C1629 C1623 1.390 . S
C1629 C1626 1.386 . S
C1630 C1625 1.490 . S
C1630 C1632 1.395 . S
C1630 C1633 1.403 . S
H1631 C1637 0.930 . S
C1632 H1618 0.930 . S
C1632 C1630 1.395 . S
C1632 C1635 1.403 . S
C1633 C1630 1.403 . S
C1633 C1634 1.524 . S
C1633 C1637 1.400 . S
C1634 H1619 0.960 . S
C1634 H1620 0.960 . S
C1634 H1621 0.960 . S
C1634 C1633 1.524 . S
C1635 C1632 1.403 . S
C1635 C1636 1.392 . S
C1635 C1639 1.495 . S
C1636 C1635 1.392 . S
C1636 C1637 1.385 . S
C1636 C1638 1.478 . S
C1637 H1631 0.930 . S
C1637 C1633 1.400 . S
C1637 C1636 1.385 . S
C1638 C1636 1.478 . S
C1638 C1640 1.381 . S
C1638 C1644 1.383 . S
C1639 C1635 1.495 . S
C1639 H1645 0.959 . S
C1639 H1646 0.961 . S
C1639 H1647 0.960 . S
C1640 C1638 1.381 . S
C1640 C1641 1.394 . S
C1640 H1648 0.930 . S
C1641 C1640 1.394 . S
C1641 C1642 1.383 . S
C1641 H1649 0.929 . S
C1642 C1641 1.383 . S
C1642 C1643 1.377 . S
C1643 H1627 0.930 . S
C1643 C1642 1.377 . S
C1643 C1644 1.379 . S
C1644 H1628 0.931 . S
C1644 C1638 1.383 . S
C1644 C1643 1.379 . S
H1645 C1639 0.959 . S
H1646 C1639 0.961 . S
H1647 C1639 0.960 . S
H1648 C1640 0.930 . S
H1649 C1641 0.929 . S
H1650 C1658 0.929 . S
H1651 C1660 0.930 . S
H1652 C1662 0.930 . S
H1653 C1665 0.929 . S
H1654 C1668 0.930 . S
H1655 C1670 0.960 . S
H1656 C1670 0.960 . S
H1657 C1670 0.960 . S
C1658 H1650 0.929 . S
C1658 C1659 1.377 . S
C1658 C1660 1.384 . S
C1659 C1658 1.377 . S
C1659 C1665 1.390 . S
C1660 H1651 0.930 . S
C1660 C1658 1.384 . S
C1660 C1661 1.372 . S
C1661 C1660 1.372 . S
C1661 C1662 1.400 . S
C1661 C1666 1.490 . S
C1662 H1652 0.930 . S
C1662 C1661 1.400 . S
C1662 C1665 1.386 . S
H1663 C1679 0.930 . S
H1664 C1680 0.931 . S
C1665 H1653 0.929 . S
C1665 C1659 1.390 . S
C1665 C1662 1.386 . S
C1666 C1661 1.490 . S
C1666 C1668 1.395 . S
C1666 C1669 1.403 . S
H1667 C1673 0.930 . S
C1668 H1654 0.930 . S
C1668 C1666 1.395 . S
C1668 C1671 1.403 . S
C1669 C1666 1.403 . S
C1669 C1670 1.524 . S
C1669 C1673 1.400 . S
C1670 H1655 0.960 . S
C1670 H1656 0.960 . S
C1670 H1657 0.960 . S
C1670 C1669 1.524 . S
C1671 C1668 1.403 . S
C1671 C1672 1.392 . S
C1671 C1675 1.495 . S
C1672 C1671 1.392 . S
C1672 C1673 1.385 . S
C1672 C1674 1.478 . S
C1673 H1667 0.930 . S
C1673 C1669 1.400 . S
C1673 C1672 1.385 . S
C1674 C1672 1.478 . S
C1674 C1676 1.381 . S
C1674 C1680 1.383 . S
C1675 C1671 1.495 . S
C1675 H1681 0.959 . S
C1675 H1682 0.961 . S
C1675 H1683 0.960 . S
C1676 C1674 1.381 . S
C1676 C1677 1.394 . S
C1676 H1684 0.930 . S
C1677 C1676 1.394 . S
C1677 C1678 1.383 . S
C1677 H1685 0.929 . S
C1678 C1677 1.383 . S
C1678 C1679 1.377 . S
C1679 H1663 0.930 . S
C1679 C1678 1.377 . S
C1679 C1680 1.379 . S
C1680 H1664 0.931 . S
C1680 C1674 1.383 . S
C1680 C1679 1.379 . S
H1681 C1675 0.959 . S
H1682 C1675 0.961 . S
H1683 C1675 0.960 . S
H1684 C1676 0.930 . S
H1685 C1677 0.929 . S
H1686 C1694 0.929 . S
H1687 C1696 0.930 . S
H1688 C1698 0.930 . S
H1689 C1701 0.929 . S
H1690 C1704 0.930 . S
H1691 C1706 0.960 . S
H1692 C1706 0.960 . S
H1693 C1706 0.960 . S
C1694 H1686 0.929 . S
C1694 C1695 1.377 . S
C1694 C1696 1.384 . S
C1695 C1694 1.377 . S
C1695 C1701 1.390 . S
C1696 H1687 0.930 . S
C1696 C1694 1.384 . S
C1696 C1697 1.372 . S
C1697 C1696 1.372 . S
C1697 C1698 1.400 . S
C1697 C1702 1.490 . S
C1698 H1688 0.930 . S
C1698 C1697 1.400 . S
C1698 C1701 1.386 . S
H1699 C1715 0.930 . S
H1700 C1716 0.931 . S
C1701 H1689 0.929 . S
C1701 C1695 1.390 . S
C1701 C1698 1.386 . S
C1702 C1697 1.490 . S
C1702 C1704 1.395 . S
C1702 C1705 1.403 . S
H1703 C1709 0.930 . S
C1704 H1690 0.930 . S
C1704 C1702 1.395 . S
C1704 C1707 1.403 . S
C1705 C1702 1.403 . S
C1705 C1706 1.524 . S
C1705 C1709 1.400 . S
C1706 H1691 0.960 . S
C1706 H1692 0.960 . S
C1706 H1693 0.960 . S
C1706 C1705 1.524 . S
C1707 C1704 1.403 . S
C1707 C1708 1.392 . S
C1707 C1711 1.495 . S
C1708 C1707 1.392 . S
C1708 C1709 1.385 . S
C1708 C1710 1.478 . S
C1709 H1703 0.930 . S
C1709 C1705 1.400 . S
C1709 C1708 1.385 . S
C1710 C1708 1.478 . S
C1710 C1712 1.381 . S
C1710 C1716 1.383 . S
C1711 C1707 1.495 . S
C1711 H1717 0.959 . S
C1711 H1718 0.961 . S
C1711 H1719 0.960 . S
C1712 C1710 1.381 . S
C1712 C1713 1.394 . S
C1712 H1720 0.930 . S
C1713 C1712 1.394 . S
C1713 C1714 1.383 . S
C1713 H1721 0.929 . S
C1714 C1713 1.383 . S
C1714 C1715 1.377 . S
C1715 H1699 0.930 . S
C1715 C1714 1.377 . S
C1715 C1716 1.379 . S
C1716 H1700 0.931 . S
C1716 C1710 1.383 . S
C1716 C1715 1.379 . S
H1717 C1711 0.959 . S
H1718 C1711 0.961 . S
H1719 C1711 0.960 . S
H1720 C1712 0.930 . S
H1721 C1713 0.929 . S
H1722 C1730 0.929 . S
H1723 C1732 0.930 . S
H1724 C1734 0.930 . S
H1725 C1737 0.929 . S
H1726 C1740 0.930 . S
H1727 C1742 0.960 . S
H1728 C1742 0.960 . S
H1729 C1742 0.960 . S
C1730 H1722 0.929 . S
C1730 C1731 1.377 . S
C1730 C1732 1.384 . S
C1731 C1730 1.377 . S
C1731 C1737 1.390 . S
C1732 H1723 0.930 . S
C1732 C1730 1.384 . S
C1732 C1733 1.372 . S
C1733 C1732 1.372 . S
C1733 C1734 1.400 . S
C1733 C1738 1.490 . S
C1734 H1724 0.930 . S
C1734 C1733 1.400 . S
C1734 C1737 1.386 . S
H1735 C1751 0.930 . S
H1736 C1752 0.931 . S
C1737 H1725 0.929 . S
C1737 C1731 1.390 . S
C1737 C1734 1.386 . S
C1738 C1733 1.490 . S
C1738 C1740 1.395 . S
C1738 C1741 1.403 . S
H1739 C1745 0.930 . S
C1740 H1726 0.930 . S
C1740 C1738 1.395 . S
C1740 C1743 1.403 . S
C1741 C1738 1.403 . S
C1741 C1742 1.524 . S
C1741 C1745 1.400 . S
C1742 H1727 0.960 . S
C1742 H1728 0.960 . S
C1742 H1729 0.960 . S
C1742 C1741 1.524 . S
C1743 C1740 1.403 . S
C1743 C1744 1.392 . S
C1743 C1747 1.495 . S
C1744 C1743 1.392 . S
C1744 C1745 1.385 . S
C1744 C1746 1.478 . S
C1745 H1739 0.930 . S
C1745 C1741 1.400 . S
C1745 C1744 1.385 . S
C1746 C1744 1.478 . S
C1746 C1748 1.381 . S
C1746 C1752 1.383 . S
C1747 C1743 1.495 . S
C1747 H1753 0.959 . S
C1747 H1754 0.961 . S
C1747 H1755 0.960 . S
C1748 C1746 1.381 . S
C1748 C1749 1.394 . S
C1748 H1756 0.930 . S
C1749 C1748 1.394 . S
C1749 C1750 1.383 . S
C1749 H1757 0.929 . S
C1750 C1749 1.383 . S
C1750 C1751 1.377 . S
C1751 H1735 0.930 . S
C1751 C1750 1.377 . S
C1751 C1752 1.379 . S
C1752 H1736 0.931 . S
C1752 C1746 1.383 . S
C1752 C1751 1.379 . S
H1753 C1747 0.959 . S
H1754 C1747 0.961 . S
H1755 C1747 0.960 . S
H1756 C1748 0.930 . S
H1757 C1749 0.929 . S
H1758 C1766 0.929 . S
H1759 C1768 0.930 . S
H1760 C1770 0.930 . S
H1761 C1773 0.929 . S
H1762 C1776 0.930 . S
H1763 C1778 0.960 . S
H1764 C1778 0.960 . S
H1765 C1778 0.960 . S
C1766 H1758 0.929 . S
C1766 C1767 1.377 . S
C1766 C1768 1.384 . S
C1767 C1766 1.377 . S
C1767 C1773 1.390 . S
C1768 H1759 0.930 . S
C1768 C1766 1.384 . S
C1768 C1769 1.372 . S
C1769 C1768 1.372 . S
C1769 C1770 1.400 . S
C1769 C1774 1.490 . S
C1770 H1760 0.930 . S
C1770 C1769 1.400 . S
C1770 C1773 1.386 . S
H1771 C1787 0.930 . S
H1772 C1788 0.931 . S
C1773 H1761 0.929 . S
C1773 C1767 1.390 . S
C1773 C1770 1.386 . S
C1774 C1769 1.490 . S
C1774 C1776 1.395 . S
C1774 C1777 1.403 . S
H1775 C1781 0.930 . S
C1776 H1762 0.930 . S
C1776 C1774 1.395 . S
C1776 C1779 1.403 . S
C1777 C1774 1.403 . S
C1777 C1778 1.524 . S
C1777 C1781 1.400 . S
C1778 H1763 0.960 . S
C1778 H1764 0.960 . S
C1778 H1765 0.960 . S
C1778 C1777 1.524 . S
C1779 C1776 1.403 . S
C1779 C1780 1.392 . S
C1779 C1783 1.495 . S
C1780 C1779 1.392 . S
C1780 C1781 1.385 . S
C1780 C1782 1.478 . S
C1781 H1775 0.930 . S
C1781 C1777 1.400 . S
C1781 C1780 1.385 . S
C1782 C1780 1.478 . S
C1782 C1784 1.381 . S
C1782 C1788 1.383 . S
C1783 C1779 1.495 . S
C1783 H1789 0.959 . S
C1783 H1790 0.961 . S
C1783 H1791 0.960 . S
C1784 C1782 1.381 . S
C1784 C1785 1.394 . S
C1784 H1792 0.930 . S
C1785 C1784 1.394 . S
C1785 C1786 1.383 . S
C1785 H1793 0.929 . S
C1786 C1785 1.383 . S
C1786 C1787 1.377 . S
C1787 H1771 0.930 . S
C1787 C1786 1.377 . S
C1787 C1788 1.379 . S
C1788 H1772 0.931 . S
C1788 C1782 1.383 . S
C1788 C1787 1.379 . S
H1789 C1783 0.959 . S
H1790 C1783 0.961 . S
H1791 C1783 0.960 . S
H1792 C1784 0.930 . S
H1793 C1785 0.929 . S
H1794 C1802 0.929 . S
H1795 C1804 0.930 . S
H1796 C1806 0.930 . S
H1797 C1809 0.929 . S
H1798 C1812 0.930 . S
H1799 C1814 0.960 . S
H1800 C1814 0.960 . S
H1801 C1814 0.960 . S
C1802 H1794 0.929 . S
C1802 C1803 1.377 . S
C1802 C1804 1.384 . S
C1803 C1802 1.377 . S
C1803 C1809 1.390 . S
C1804 H1795 0.930 . S
C1804 C1802 1.384 . S
C1804 C1805 1.372 . S
C1805 C1804 1.372 . S
C1805 C1806 1.400 . S
C1805 C1810 1.490 . S
C1806 H1796 0.930 . S
C1806 C1805 1.400 . S
C1806 C1809 1.386 . S
H1807 C1823 0.930 . S
H1808 C1824 0.931 . S
C1809 H1797 0.929 . S
C1809 C1803 1.390 . S
C1809 C1806 1.386 . S
C1810 C1805 1.490 . S
C1810 C1812 1.395 . S
C1810 C1813 1.403 . S
H1811 C1817 0.930 . S
C1812 H1798 0.930 . S
C1812 C1810 1.395 . S
C1812 C1815 1.403 . S
C1813 C1810 1.403 . S
C1813 C1814 1.524 . S
C1813 C1817 1.400 . S
C1814 H1799 0.960 . S
C1814 H1800 0.960 . S
C1814 H1801 0.960 . S
C1814 C1813 1.524 . S
C1815 C1812 1.403 . S
C1815 C1816 1.392 . S
C1815 C1819 1.495 . S
C1816 C1815 1.392 . S
C1816 C1817 1.385 . S
C1816 C1818 1.478 . S
C1817 H1811 0.930 . S
C1817 C1813 1.400 . S
C1817 C1816 1.385 . S
C1818 C1816 1.478 . S
C1818 C1820 1.381 . S
C1818 C1824 1.383 . S
C1819 C1815 1.495 . S
C1819 H1825 0.959 . S
C1819 H1826 0.961 . S
C1819 H1827 0.960 . S
C1820 C1818 1.381 . S
C1820 C1821 1.394 . S
C1820 H1828 0.930 . S
C1821 C1820 1.394 . S
C1821 C1822 1.383 . S
C1821 H1829 0.929 . S
C1822 C1821 1.383 . S
C1822 C1823 1.377 . S
C1823 H1807 0.930 . S
C1823 C1822 1.377 . S
C1823 C1824 1.379 . S
C1824 H1808 0.931 . S
C1824 C1818 1.383 . S
C1824 C1823 1.379 . S
H1825 C1819 0.959 . S
H1826 C1819 0.961 . S
H1827 C1819 0.960 . S
H1828 C1820 0.930 . S
H1829 C1821 0.929 . S
H1830 C1838 0.929 . S
H1831 C1840 0.930 . S
H1832 C1842 0.930 . S
H1833 C1845 0.929 . S
H1834 C1848 0.930 . S
H1835 C1850 0.960 . S
H1836 C1850 0.960 . S
H1837 C1850 0.960 . S
C1838 H1830 0.929 . S
C1838 C1839 1.377 . S
C1838 C1840 1.384 . S
C1839 C1838 1.377 . S
C1839 C1845 1.390 . S
C1840 H1831 0.930 . S
C1840 C1838 1.384 . S
C1840 C1841 1.372 . S
C1841 C1840 1.372 . S
C1841 C1842 1.400 . S
C1841 C1846 1.490 . S
C1842 H1832 0.930 . S
C1842 C1841 1.400 . S
C1842 C1845 1.386 . S
H1843 C1859 0.930 . S
H1844 C1860 0.931 . S
C1845 H1833 0.929 . S
C1845 C1839 1.390 . S
C1845 C1842 1.386 . S
C1846 C1841 1.490 . S
C1846 C1848 1.395 . S
C1846 C1849 1.403 . S
H1847 C1853 0.930 . S
C1848 H1834 0.930 . S
C1848 C1846 1.395 . S
C1848 C1851 1.403 . S
C1849 C1846 1.403 . S
C1849 C1850 1.524 . S
C1849 C1853 1.400 . S
C1850 H1835 0.960 . S
C1850 H1836 0.960 . S
C1850 H1837 0.960 . S
C1850 C1849 1.524 . S
C1851 C1848 1.403 . S
C1851 C1852 1.392 . S
C1851 C1855 1.495 . S
C1852 C1851 1.392 . S
C1852 C1853 1.385 . S
C1852 C1854 1.478 . S
C1853 H1847 0.930 . S
C1853 C1849 1.400 . S
C1853 C1852 1.385 . S
C1854 C1852 1.478 . S
C1854 C1856 1.381 . S
C1854 C1860 1.383 . S
C1855 C1851 1.495 . S
C1855 H1861 0.959 . S
C1855 H1862 0.961 . S
C1855 H1863 0.960 . S
C1856 C1854 1.381 . S
C1856 C1857 1.394 . S
C1856 H1864 0.930 . S
C1857 C1856 1.394 . S
C1857 C1858 1.383 . S
C1857 H1865 0.929 . S
C1858 C1857 1.383 . S
C1858 C1859 1.377 . S
C1859 H1843 0.930 . S
C1859 C1858 1.377 . S
C1859 C1860 1.379 . S
C1860 H1844 0.931 . S
C1860 C1854 1.383 . S
C1860 C1859 1.379 . S
H1861 C1855 0.959 . S
H1862 C1855 0.961 . S
H1863 C1855 0.960 . S
H1864 C1856 0.930 . S
H1865 C1857 0.929 . S
H1866 C1874 0.929 . S
H1867 C1876 0.930 . S
H1868 C1878 0.930 . S
H1869 C1881 0.929 . S
H1870 C1884 0.930 . S
H1871 C1886 0.960 . S
H1872 C1886 0.960 . S
H1873 C1886 0.960 . S
C1874 H1866 0.929 . S
C1874 C1875 1.377 . S
C1874 C1876 1.384 . S
C1875 C1874 1.377 . S
C1875 C1881 1.390 . S
C1876 H1867 0.930 . S
C1876 C1874 1.384 . S
C1876 C1877 1.372 . S
C1877 C1876 1.372 . S
C1877 C1878 1.400 . S
C1877 C1882 1.490 . S
C1878 H1868 0.930 . S
C1878 C1877 1.400 . S
C1878 C1881 1.386 . S
H1879 C1895 0.930 . S
H1880 C1896 0.931 . S
C1881 H1869 0.929 . S
C1881 C1875 1.390 . S
C1881 C1878 1.386 . S
C1882 C1877 1.490 . S
C1882 C1884 1.395 . S
C1882 C1885 1.403 . S
H1883 C1889 0.930 . S
C1884 H1870 0.930 . S
C1884 C1882 1.395 . S
C1884 C1887 1.403 . S
C1885 C1882 1.403 . S
C1885 C1886 1.524 . S
C1885 C1889 1.400 . S
C1886 H1871 0.960 . S
C1886 H1872 0.960 . S
C1886 H1873 0.960 . S
C1886 C1885 1.524 . S
C1887 C1884 1.403 . S
C1887 C1888 1.392 . S
C1887 C1891 1.495 . S
C1888 C1887 1.392 . S
C1888 C1889 1.385 . S
C1888 C1890 1.478 . S
C1889 H1883 0.930 . S
C1889 C1885 1.400 . S
C1889 C1888 1.385 . S
C1890 C1888 1.478 . S
C1890 C1892 1.381 . S
C1890 C1896 1.383 . S
C1891 C1887 1.495 . S
C1891 H1897 0.959 . S
C1891 H1898 0.961 . S
C1891 H1899 0.960 . S
C1892 C1890 1.381 . S
C1892 C1893 1.394 . S
C1892 H1900 0.930 . S
C1893 C1892 1.394 . S
C1893 C1894 1.383 . S
C1893 H1901 0.929 . S
C1894 C1893 1.383 . S
C1894 C1895 1.377 . S
C1895 H1879 0.930 . S
C1895 C1894 1.377 . S
C1895 C1896 1.379 . S
C1896 H1880 0.931 . S
C1896 C1890 1.383 . S
C1896 C1895 1.379 . S
H1897 C1891 0.959 . S
H1898 C1891 0.961 . S
H1899 C1891 0.960 . S
H1900 C1892 0.930 . S
H1901 C1893 0.929 . S
H1902 C1910 0.929 . S
H1903 C1912 0.930 . S
H1904 C1914 0.930 . S
H1905 C1917 0.929 . S
H1906 C1920 0.930 . S
H1907 C1922 0.960 . S
H1908 C1922 0.960 . S
H1909 C1922 0.960 . S
C1910 H1902 0.929 . S
C1910 C1911 1.377 . S
C1910 C1912 1.384 . S
C1911 C1910 1.377 . S
C1911 C1917 1.390 . S
C1912 H1903 0.930 . S
C1912 C1910 1.384 . S
C1912 C1913 1.372 . S
C1913 C1912 1.372 . S
C1913 C1914 1.400 . S
C1913 C1918 1.490 . S
C1914 H1904 0.930 . S
C1914 C1913 1.400 . S
C1914 C1917 1.386 . S
H1915 C1931 0.930 . S
H1916 C1932 0.931 . S
C1917 H1905 0.929 . S
C1917 C1911 1.390 . S
C1917 C1914 1.386 . S
C1918 C1913 1.490 . S
C1918 C1920 1.395 . S
C1918 C1921 1.403 . S
H1919 C1925 0.930 . S
C1920 H1906 0.930 . S
C1920 C1918 1.395 . S
C1920 C1923 1.403 . S
C1921 C1918 1.403 . S
C1921 C1922 1.524 . S
C1921 C1925 1.400 . S
C1922 H1907 0.960 . S
C1922 H1908 0.960 . S
C1922 H1909 0.960 . S
C1922 C1921 1.524 . S
C1923 C1920 1.403 . S
C1923 C1924 1.392 . S
C1923 C1927 1.495 . S
C1924 C1923 1.392 . S
C1924 C1925 1.385 . S
C1924 C1926 1.478 . S
C1925 H1919 0.930 . S
C1925 C1921 1.400 . S
C1925 C1924 1.385 . S
C1926 C1924 1.478 . S
C1926 C1928 1.381 . S
C1926 C1932 1.383 . S
C1927 C1923 1.495 . S
C1927 H1933 0.959 . S
C1927 H1934 0.961 . S
C1927 H1935 0.960 . S
C1928 C1926 1.381 . S
C1928 C1929 1.394 . S
C1928 H1936 0.930 . S
C1929 C1928 1.394 . S
C1929 C1930 1.383 . S
C1929 H1937 0.929 . S
C1930 C1929 1.383 . S
C1930 C1931 1.377 . S
C1931 H1915 0.930 . S
C1931 C1930 1.377 . S
C1931 C1932 1.379 . S
C1932 H1916 0.931 . S
C1932 C1926 1.383 . S
C1932 C1931 1.379 . S
H1933 C1927 0.959 . S
H1934 C1927 0.961 . S
H1935 C1927 0.960 . S
H1936 C1928 0.930 . S
H1937 C1929 0.929 . S
H1938 C1946 0.929 . S
H1939 C1948 0.930 . S
H1940 C1950 0.930 . S
H1941 C1953 0.929 . S
H1942 C1956 0.930 . S
H1943 C1958 0.960 . S
H1944 C1958 0.960 . S
H1945 C1958 0.960 . S
C1946 H1938 0.929 . S
C1946 C1947 1.377 . S
C1946 C1948 1.384 . S
C1947 C1946 1.377 . S
C1947 C1953 1.390 . S
C1948 H1939 0.930 . S
C1948 C1946 1.384 . S
C1948 C1949 1.372 . S
C1949 C1948 1.372 . S
C1949 C1950 1.400 . S
C1949 C1954 1.490 . S
C1950 H1940 0.930 . S
C1950 C1949 1.400 . S
C1950 C1953 1.386 . S
H1951 C1967 0.930 . S
H1952 C1968 0.931 . S
C1953 H1941 0.929 . S
C1953 C1947 1.390 . S
C1953 C1950 1.386 . S
C1954 C1949 1.490 . S
C1954 C1956 1.395 . S
C1954 C1957 1.403 . S
H1955 C1961 0.930 . S
C1956 H1942 0.930 . S
C1956 C1954 1.395 . S
C1956 C1959 1.403 . S
C1957 C1954 1.403 . S
C1957 C1958 1.524 . S
C1957 C1961 1.400 . S
C1958 H1943 0.960 . S
C1958 H1944 0.960 . S
C1958 H1945 0.960 . S
C1958 C1957 1.524 . S
C1959 C1956 1.403 . S
C1959 C1960 1.392 . S
C1959 C1963 1.495 . S
C1960 C1959 1.392 . S
C1960 C1961 1.385 . S
C1960 C1962 1.478 . S
C1961 H1955 0.930 . S
C1961 C1957 1.400 . S
C1961 C1960 1.385 . S
C1962 C1960 1.478 . S
C1962 C1964 1.381 . S
C1962 C1968 1.383 . S
C1963 C1959 1.495 . S
C1963 H1969 0.959 . S
C1963 H1970 0.961 . S
C1963 H1971 0.960 . S
C1964 C1962 1.381 . S
C1964 C1965 1.394 . S
C1964 H1972 0.930 . S
C1965 C1964 1.394 . S
C1965 C1966 1.383 . S
C1965 H1973 0.929 . S
C1966 C1965 1.383 . S
C1966 C1967 1.377 . S
C1967 H1951 0.930 . S
C1967 C1966 1.377 . S
C1967 C1968 1.379 . S
C1968 H1952 0.931 . S
C1968 C1962 1.383 . S
C1968 C1967 1.379 . S
H1969 C1963 0.959 . S
H1970 C1963 0.961 . S
H1971 C1963 0.960 . S
H1972 C1964 0.930 . S
H1973 C1965 0.929 . S
H1974 C1982 0.929 . S
H1975 C1984 0.930 . S
H1976 C1986 0.930 . S
H1977 C1989 0.929 . S
H1978 C1992 0.930 . S
H1979 C1994 0.960 . S
H1980 C1994 0.960 . S
H1981 C1994 0.960 . S
C1982 H1974 0.929 . S
C1982 C1983 1.377 . S
C1982 C1984 1.384 . S
C1983 C1982 1.377 . S
C1983 C1989 1.390 . S
C1984 H1975 0.930 . S
C1984 C1982 1.384 . S
C1984 C1985 1.372 . S
C1985 C1984 1.372 . S
C1985 C1986 1.400 . S
C1985 C1990 1.490 . S
C1986 H1976 0.930 . S
C1986 C1985 1.400 . S
C1986 C1989 1.386 . S
H1987 C2003 0.930 . S
H1988 C2004 0.931 . S
C1989 H1977 0.929 . S
C1989 C1983 1.390 . S
C1989 C1986 1.386 . S
C1990 C1985 1.490 . S
C1990 C1992 1.395 . S
C1990 C1993 1.403 . S
H1991 C1997 0.930 . S
C1992 H1978 0.930 . S
C1992 C1990 1.395 . S
C1992 C1995 1.403 . S
C1993 C1990 1.403 . S
C1993 C1994 1.524 . S
C1993 C1997 1.400 . S
C1994 H1979 0.960 . S
C1994 H1980 0.960 . S
C1994 H1981 0.960 . S
C1994 C1993 1.524 . S
C1995 C1992 1.403 . S
C1995 C1996 1.392 . S
C1995 C1999 1.495 . S
C1996 C1995 1.392 . S
C1996 C1997 1.385 . S
C1996 C1998 1.478 . S
C1997 H1991 0.930 . S
C1997 C1993 1.400 . S
C1997 C1996 1.385 . S
C1998 C1996 1.478 . S
C1998 C2000 1.381 . S
C1998 C2004 1.383 . S
C1999 C1995 1.495 . S
C1999 H2005 0.959 . S
C1999 H2006 0.961 . S
C1999 H2007 0.960 . S
C2000 C1998 1.381 . S
C2000 C2001 1.394 . S
C2000 H2008 0.930 . S
C2001 C2000 1.394 . S
C2001 C2002 1.383 . S
C2001 H2009 0.929 . S
C2002 C2001 1.383 . S
C2002 C2003 1.377 . S
C2003 H1987 0.930 . S
C2003 C2002 1.377 . S
C2003 C2004 1.379 . S
C2004 H1988 0.931 . S
C2004 C1998 1.383 . S
C2004 C2003 1.379 . S
H2005 C1999 0.959 . S
H2006 C1999 0.961 . S
H2007 C1999 0.960 . S
H2008 C2000 0.930 . S
H2009 C2001 0.929 . S
H2010 C2018 0.929 . S
H2011 C2020 0.930 . S
H2012 C2022 0.930 . S
H2013 C2025 0.929 . S
H2014 C2028 0.930 . S
H2015 C2030 0.960 . S
H2016 C2030 0.960 . S
H2017 C2030 0.960 . S
C2018 H2010 0.929 . S
C2018 C2019 1.377 . S
C2018 C2020 1.384 . S
C2019 C2018 1.377 . S
C2019 C2025 1.390 . S
C2020 H2011 0.930 . S
C2020 C2018 1.384 . S
C2020 C2021 1.372 . S
C2021 C2020 1.372 . S
C2021 C2022 1.400 . S
C2021 C2026 1.490 . S
C2022 H2012 0.930 . S
C2022 C2021 1.400 . S
C2022 C2025 1.386 . S
H2023 C2039 0.930 . S
H2024 C2040 0.931 . S
C2025 H2013 0.929 . S
C2025 C2019 1.390 . S
C2025 C2022 1.386 . S
C2026 C2021 1.490 . S
C2026 C2028 1.395 . S
C2026 C2029 1.403 . S
H2027 C2033 0.930 . S
C2028 H2014 0.930 . S
C2028 C2026 1.395 . S
C2028 C2031 1.403 . S
C2029 C2026 1.403 . S
C2029 C2030 1.524 . S
C2029 C2033 1.400 . S
C2030 H2015 0.960 . S
C2030 H2016 0.960 . S
C2030 H2017 0.960 . S
C2030 C2029 1.524 . S
C2031 C2028 1.403 . S
C2031 C2032 1.392 . S
C2031 C2035 1.495 . S
C2032 C2031 1.392 . S
C2032 C2033 1.385 . S
C2032 C2034 1.478 . S
C2033 H2027 0.930 . S
C2033 C2029 1.400 . S
C2033 C2032 1.385 . S
C2034 C2032 1.478 . S
C2034 C2036 1.381 . S
C2034 C2040 1.383 . S
C2035 C2031 1.495 . S
C2035 H2041 0.959 . S
C2035 H2042 0.961 . S
C2035 H2043 0.960 . S
C2036 C2034 1.381 . S
C2036 C2037 1.394 . S
C2036 H2044 0.930 . S
C2037 C2036 1.394 . S
C2037 C2038 1.383 . S
C2037 H2045 0.929 . S
C2038 C2037 1.383 . S
C2038 C2039 1.377 . S
C2039 H2023 0.930 . S
C2039 C2038 1.377 . S
C2039 C2040 1.379 . S
C2040 H2024 0.931 . S
C2040 C2034 1.383 . S
C2040 C2039 1.379 . S
H2041 C2035 0.959 . S
H2042 C2035 0.961 . S
H2043 C2035 0.960 . S
H2044 C2036 0.930 . S
H2045 C2037 0.929 . S
H2046 C2054 0.929 . S
H2047 C2056 0.930 . S
H2048 C2058 0.930 . S
H2049 C2061 0.929 . S
H2050 C2064 0.930 . S
H2051 C2066 0.960 . S
H2052 C2066 0.960 . S
H2053 C2066 0.960 . S
C2054 H2046 0.929 . S
C2054 C2055 1.377 . S
C2054 C2056 1.384 . S
C2055 C2054 1.377 . S
C2055 C2061 1.390 . S
C2056 H2047 0.930 . S
C2056 C2054 1.384 . S
C2056 C2057 1.372 . S
C2057 C2056 1.372 . S
C2057 C2058 1.400 . S
C2057 C2062 1.490 . S
C2058 H2048 0.930 . S
C2058 C2057 1.400 . S
C2058 C2061 1.386 . S
H2059 C2075 0.930 . S
H2060 C2076 0.931 . S
C2061 H2049 0.929 . S
C2061 C2055 1.390 . S
C2061 C2058 1.386 . S
C2062 C2057 1.490 . S
C2062 C2064 1.395 . S
C2062 C2065 1.403 . S
H2063 C2069 0.930 . S
C2064 H2050 0.930 . S
C2064 C2062 1.395 . S
C2064 C2067 1.403 . S
C2065 C2062 1.403 . S
C2065 C2066 1.524 . S
C2065 C2069 1.400 . S
C2066 H2051 0.960 . S
C2066 H2052 0.960 . S
C2066 H2053 0.960 . S
C2066 C2065 1.524 . S
C2067 C2064 1.403 . S
C2067 C2068 1.392 . S
C2067 C2071 1.495 . S
C2068 C2067 1.392 . S
C2068 C2069 1.385 . S
C2068 C2070 1.478 . S
C2069 H2063 0.930 . S
C2069 C2065 1.400 . S
C2069 C2068 1.385 . S
C2070 C2068 1.478 . S
C2070 C2072 1.381 . S
C2070 C2076 1.383 . S
C2071 C2067 1.495 . S
C2071 H2077 0.959 . S
C2071 H2078 0.961 . S
C2071 H2079 0.960 . S
C2072 C2070 1.381 . S
C2072 C2073 1.394 . S
C2072 H2080 0.930 . S
C2073 C2072 1.394 . S
C2073 C2074 1.383 . S
C2073 H2081 0.929 . S
C2074 C2073 1.383 . S
C2074 C2075 1.377 . S
C2075 H2059 0.930 . S
C2075 C2074 1.377 . S
C2075 C2076 1.379 . S
C2076 H2060 0.931 . S
C2076 C2070 1.383 . S
C2076 C2075 1.379 . S
H2077 C2071 0.959 . S
H2078 C2071 0.961 . S
H2079 C2071 0.960 . S
H2080 C2072 0.930 . S
H2081 C2073 0.929 . S
H2082 C2090 0.929 . S
H2083 C2092 0.930 . S
H2084 C2094 0.930 . S
H2085 C2097 0.929 . S
H2086 C2100 0.930 . S
H2087 C2102 0.960 . S
H2088 C2102 0.960 . S
H2089 C2102 0.960 . S
C2090 H2082 0.929 . S
C2090 C2091 1.377 . S
C2090 C2092 1.384 . S
C2091 C2090 1.377 . S
C2091 C2097 1.390 . S
C2092 H2083 0.930 . S
C2092 C2090 1.384 . S
C2092 C2093 1.372 . S
C2093 C2092 1.372 . S
C2093 C2094 1.400 . S
C2093 C2098 1.490 . S
C2094 H2084 0.930 . S
C2094 C2093 1.400 . S
C2094 C2097 1.386 . S
H2095 C2111 0.930 . S
H2096 C2112 0.931 . S
C2097 H2085 0.929 . S
C2097 C2091 1.390 . S
C2097 C2094 1.386 . S
C2098 C2093 1.490 . S
C2098 C2100 1.395 . S
C2098 C2101 1.403 . S
H2099 C2105 0.930 . S
C2100 H2086 0.930 . S
C2100 C2098 1.395 . S
C2100 C2103 1.403 . S
C2101 C2098 1.403 . S
C2101 C2102 1.524 . S
C2101 C2105 1.400 . S
C2102 H2087 0.960 . S
C2102 H2088 0.960 . S
C2102 H2089 0.960 . S
C2102 C2101 1.524 . S
C2103 C2100 1.403 . S
C2103 C2104 1.392 . S
C2103 C2107 1.495 . S
C2104 C2103 1.392 . S
C2104 C2105 1.385 . S
C2104 C2106 1.478 . S
C2105 H2099 0.930 . S
C2105 C2101 1.400 . S
C2105 C2104 1.385 . S
C2106 C2104 1.478 . S
C2106 C2108 1.381 . S
C2106 C2112 1.383 . S
C2107 C2103 1.495 . S
C2107 H2113 0.959 . S
C2107 H2114 0.961 . S
C2107 H2115 0.960 . S
C2108 C2106 1.381 . S
C2108 C2109 1.394 . S
C2108 H2116 0.930 . S
C2109 C2108 1.394 . S
C2109 C2110 1.383 . S
C2109 H2117 0.929 . S
C2110 C2109 1.383 . S
C2110 C2111 1.377 . S
C2111 H2095 0.930 . S
C2111 C2110 1.377 . S
C2111 C2112 1.379 . S
C2112 H2096 0.931 . S
C2112 C2106 1.383 . S
C2112 C2111 1.379 . S
H2113 C2107 0.959 . S
H2114 C2107 0.961 . S
H2115 C2107 0.960 . S
H2116 C2108 0.930 . S
H2117 C2109 0.929 . S
H2118 C2126 0.929 . S
H2119 C2128 0.930 . S
H2120 C2130 0.930 . S
H2121 C2133 0.929 . S
H2122 C2136 0.930 . S
H2123 C2138 0.960 . S
H2124 C2138 0.960 . S
H2125 C2138 0.960 . S
C2126 H2118 0.929 . S
C2126 C2127 1.377 . S
C2126 C2128 1.384 . S
C2127 C2126 1.377 . S
C2127 C2133 1.390 . S
C2128 H2119 0.930 . S
C2128 C2126 1.384 . S
C2128 C2129 1.372 . S
C2129 C2128 1.372 . S
C2129 C2130 1.400 . S
C2129 C2134 1.490 . S
C2130 H2120 0.930 . S
C2130 C2129 1.400 . S
C2130 C2133 1.386 . S
H2131 C2147 0.930 . S
H2132 C2148 0.931 . S
C2133 H2121 0.929 . S
C2133 C2127 1.390 . S
C2133 C2130 1.386 . S
C2134 C2129 1.490 . S
C2134 C2136 1.395 . S
C2134 C2137 1.403 . S
H2135 C2141 0.930 . S
C2136 H2122 0.930 . S
C2136 C2134 1.395 . S
C2136 C2139 1.403 . S
C2137 C2134 1.403 . S
C2137 C2138 1.524 . S
C2137 C2141 1.400 . S
C2138 H2123 0.960 . S
C2138 H2124 0.960 . S
C2138 H2125 0.960 . S
C2138 C2137 1.524 . S
C2139 C2136 1.403 . S
C2139 C2140 1.392 . S
C2139 C2143 1.495 . S
C2140 C2139 1.392 . S
C2140 C2141 1.385 . S
C2140 C2142 1.478 . S
C2141 H2135 0.930 . S
C2141 C2137 1.400 . S
C2141 C2140 1.385 . S
C2142 C2140 1.478 . S
C2142 C2144 1.381 . S
C2142 C2148 1.383 . S
C2143 C2139 1.495 . S
C2143 H2149 0.959 . S
C2143 H2150 0.961 . S
C2143 H2151 0.960 . S
C2144 C2142 1.381 . S
C2144 C2145 1.394 . S
C2144 H2152 0.930 . S
C2145 C2144 1.394 . S
C2145 C2146 1.383 . S
C2145 H2153 0.929 . S
C2146 C2145 1.383 . S
C2146 C2147 1.377 . S
C2147 H2131 0.930 . S
C2147 C2146 1.377 . S
C2147 C2148 1.379 . S
C2148 H2132 0.931 . S
C2148 C2142 1.383 . S
C2148 C2147 1.379 . S
H2149 C2143 0.959 . S
H2150 C2143 0.961 . S
H2151 C2143 0.960 . S
H2152 C2144 0.930 . S
H2153 C2145 0.929 . S
H2154 C2162 0.929 . S
H2155 C2164 0.930 . S
H2156 C2166 0.930 . S
H2157 C2169 0.929 . S
H2158 C2172 0.930 . S
H2159 C2174 0.960 . S
H2160 C2174 0.960 . S
H2161 C2174 0.960 . S
C2162 H2154 0.929 . S
C2162 C2163 1.377 . S
C2162 C2164 1.384 . S
C2163 C2162 1.377 . S
C2163 C2169 1.390 . S
C2164 H2155 0.930 . S
C2164 C2162 1.384 . S
C2164 C2165 1.372 . S
C2165 C2164 1.372 . S
C2165 C2166 1.400 . S
C2165 C2170 1.490 . S
C2166 H2156 0.930 . S
C2166 C2165 1.400 . S
C2166 C2169 1.386 . S
H2167 C2183 0.930 . S
H2168 C2184 0.931 . S
C2169 H2157 0.929 . S
C2169 C2163 1.390 . S
C2169 C2166 1.386 . S
C2170 C2165 1.490 . S
C2170 C2172 1.395 . S
C2170 C2173 1.403 . S
H2171 C2177 0.930 . S
C2172 H2158 0.930 . S
C2172 C2170 1.395 . S
C2172 C2175 1.403 . S
C2173 C2170 1.403 . S
C2173 C2174 1.524 . S
C2173 C2177 1.400 . S
C2174 H2159 0.960 . S
C2174 H2160 0.960 . S
C2174 H2161 0.960 . S
C2174 C2173 1.524 . S
C2175 C2172 1.403 . S
C2175 C2176 1.392 . S
C2175 C2179 1.495 . S
C2176 C2175 1.392 . S
C2176 C2177 1.385 . S
C2176 C2178 1.478 . S
C2177 H2171 0.930 . S
C2177 C2173 1.400 . S
C2177 C2176 1.385 . S
C2178 C2176 1.478 . S
C2178 C2180 1.381 . S
C2178 C2184 1.383 . S
C2179 C2175 1.495 . S
C2179 H2185 0.959 . S
C2179 H2186 0.961 . S
C2179 H2187 0.960 . S
C2180 C2178 1.381 . S
C2180 C2181 1.394 . S
C2180 H2188 0.930 . S
C2181 C2180 1.394 . S
C2181 C2182 1.383 . S
C2181 H2189 0.929 . S
C2182 C2181 1.383 . S
C2182 C2183 1.377 . S
C2183 H2167 0.930 . S
C2183 C2182 1.377 . S
C2183 C2184 1.379 . S
C2184 H2168 0.931 . S
C2184 C2178 1.383 . S
C2184 C2183 1.379 . S
H2185 C2179 0.959 . S
H2186 C2179 0.961 . S
H2187 C2179 0.960 . S
H2188 C2180 0.930 . S
H2189 C2181 0.929 . S
H2190 C2198 0.929 . S
H2191 C2200 0.930 . S
H2192 C2202 0.930 . S
H2193 C2205 0.929 . S
H2194 C2208 0.930 . S
H2195 C2210 0.960 . S
H2196 C2210 0.960 . S
H2197 C2210 0.960 . S
C2198 H2190 0.929 . S
C2198 C2199 1.377 . S
C2198 C2200 1.384 . S
C2199 C2198 1.377 . S
C2199 C2205 1.390 . S
C2200 H2191 0.930 . S
C2200 C2198 1.384 . S
C2200 C2201 1.372 . S
C2201 C2200 1.372 . S
C2201 C2202 1.400 . S
C2201 C2206 1.490 . S
C2202 H2192 0.930 . S
C2202 C2201 1.400 . S
C2202 C2205 1.386 . S
H2203 C2219 0.930 . S
H2204 C2220 0.931 . S
C2205 H2193 0.929 . S
C2205 C2199 1.390 . S
C2205 C2202 1.386 . S
C2206 C2201 1.490 . S
C2206 C2208 1.395 . S
C2206 C2209 1.403 . S
H2207 C2213 0.930 . S
C2208 H2194 0.930 . S
C2208 C2206 1.395 . S
C2208 C2211 1.403 . S
C2209 C2206 1.403 . S
C2209 C2210 1.524 . S
C2209 C2213 1.400 . S
C2210 H2195 0.960 . S
C2210 H2196 0.960 . S
C2210 H2197 0.960 . S
C2210 C2209 1.524 . S
C2211 C2208 1.403 . S
C2211 C2212 1.392 . S
C2211 C2215 1.495 . S
C2212 C2211 1.392 . S
C2212 C2213 1.385 . S
C2212 C2214 1.478 . S
C2213 H2207 0.930 . S
C2213 C2209 1.400 . S
C2213 C2212 1.385 . S
C2214 C2212 1.478 . S
C2214 C2216 1.381 . S
C2214 C2220 1.383 . S
C2215 C2211 1.495 . S
C2215 H2221 0.959 . S
C2215 H2222 0.961 . S
C2215 H2223 0.960 . S
C2216 C2214 1.381 . S
C2216 C2217 1.394 . S
C2216 H2224 0.930 . S
C2217 C2216 1.394 . S
C2217 C2218 1.383 . S
C2217 H2225 0.929 . S
C2218 C2217 1.383 . S
C2218 C2219 1.377 . S
C2219 H2203 0.930 . S
C2219 C2218 1.377 . S
C2219 C2220 1.379 . S
C2220 H2204 0.931 . S
C2220 C2214 1.383 . S
C2220 C2219 1.379 . S
H2221 C2215 0.959 . S
H2222 C2215 0.961 . S
H2223 C2215 0.960 . S
H2224 C2216 0.930 . S
H2225 C2217 0.929 . S
H2226 C2234 0.929 . S
H2227 C2236 0.930 . S
H2228 C2238 0.930 . S
H2229 C2241 0.929 . S
H2230 C2244 0.930 . S
H2231 C2246 0.960 . S
H2232 C2246 0.960 . S
H2233 C2246 0.960 . S
C2234 H2226 0.929 . S
C2234 C2235 1.377 . S
C2234 C2236 1.384 . S
C2235 C2234 1.377 . S
C2235 C2241 1.390 . S
C2236 H2227 0.930 . S
C2236 C2234 1.384 . S
C2236 C2237 1.372 . S
C2237 C2236 1.372 . S
C2237 C2238 1.400 . S
C2237 C2242 1.490 . S
C2238 H2228 0.930 . S
C2238 C2237 1.400 . S
C2238 C2241 1.386 . S
H2239 C2255 0.930 . S
H2240 C2256 0.931 . S
C2241 H2229 0.929 . S
C2241 C2235 1.390 . S
C2241 C2238 1.386 . S
C2242 C2237 1.490 . S
C2242 C2244 1.395 . S
C2242 C2245 1.403 . S
H2243 C2249 0.930 . S
C2244 H2230 0.930 . S
C2244 C2242 1.395 . S
C2244 C2247 1.403 . S
C2245 C2242 1.403 . S
C2245 C2246 1.524 . S
C2245 C2249 1.400 . S
C2246 H2231 0.960 . S
C2246 H2232 0.960 . S
C2246 H2233 0.960 . S
C2246 C2245 1.524 . S
C2247 C2244 1.403 . S
C2247 C2248 1.392 . S
C2247 C2251 1.495 . S
C2248 C2247 1.392 . S
C2248 C2249 1.385 . S
C2248 C2250 1.478 . S
C2249 H2243 0.930 . S
C2249 C2245 1.400 . S
C2249 C2248 1.385 . S
C2250 C2248 1.478 . S
C2250 C2252 1.381 . S
C2250 C2256 1.383 . S
C2251 C2247 1.495 . S
C2251 H2257 0.959 . S
C2251 H2258 0.961 . S
C2251 H2259 0.960 . S
C2252 C2250 1.381 . S
C2252 C2253 1.394 . S
C2252 H2260 0.930 . S
C2253 C2252 1.394 . S
C2253 C2254 1.383 . S
C2253 H2261 0.929 . S
C2254 C2253 1.383 . S
C2254 C2255 1.377 . S
C2255 H2239 0.930 . S
C2255 C2254 1.377 . S
C2255 C2256 1.379 . S
C2256 H2240 0.931 . S
C2256 C2250 1.383 . S
C2256 C2255 1.379 . S
H2257 C2251 0.959 . S
H2258 C2251 0.961 . S
H2259 C2251 0.960 . S
H2260 C2252 0.930 . S
H2261 C2253 0.929 . S
H2262 C2270 0.929 . S
H2263 C2272 0.930 . S
H2264 C2274 0.930 . S
H2265 C2277 0.929 . S
H2266 C2280 0.930 . S
H2267 C2282 0.960 . S
H2268 C2282 0.960 . S
H2269 C2282 0.960 . S
C2270 H2262 0.929 . S
C2270 C2271 1.377 . S
C2270 C2272 1.384 . S
C2271 C2270 1.377 . S
C2271 C2277 1.390 . S
C2272 H2263 0.930 . S
C2272 C2270 1.384 . S
C2272 C2273 1.372 . S
C2273 C2272 1.372 . S
C2273 C2274 1.400 . S
C2273 C2278 1.490 . S
C2274 H2264 0.930 . S
C2274 C2273 1.400 . S
C2274 C2277 1.386 . S
H2275 C2291 0.930 . S
H2276 C2292 0.931 . S
C2277 H2265 0.929 . S
C2277 C2271 1.390 . S
C2277 C2274 1.386 . S
C2278 C2273 1.490 . S
C2278 C2280 1.395 . S
C2278 C2281 1.403 . S
H2279 C2285 0.930 . S
C2280 H2266 0.930 . S
C2280 C2278 1.395 . S
C2280 C2283 1.403 . S
C2281 C2278 1.403 . S
C2281 C2282 1.524 . S
C2281 C2285 1.400 . S
C2282 H2267 0.960 . S
C2282 H2268 0.960 . S
C2282 H2269 0.960 . S
C2282 C2281 1.524 . S
C2283 C2280 1.403 . S
C2283 C2284 1.392 . S
C2283 C2287 1.495 . S
C2284 C2283 1.392 . S
C2284 C2285 1.385 . S
C2284 C2286 1.478 . S
C2285 H2279 0.930 . S
C2285 C2281 1.400 . S
C2285 C2284 1.385 . S
C2286 C2284 1.478 . S
C2286 C2288 1.381 . S
C2286 C2292 1.383 . S
C2287 C2283 1.495 . S
C2287 H2293 0.959 . S
C2287 H2294 0.961 . S
C2287 H2295 0.960 . S
C2288 C2286 1.381 . S
C2288 C2289 1.394 . S
C2288 H2296 0.930 . S
C2289 C2288 1.394 . S
C2289 C2290 1.383 . S
C2289 H2297 0.929 . S
C2290 C2289 1.383 . S
C2290 C2291 1.377 . S
C2291 H2275 0.930 . S
C2291 C2290 1.377 . S
C2291 C2292 1.379 . S
C2292 H2276 0.931 . S
C2292 C2286 1.383 . S
C2292 C2291 1.379 . S
H2293 C2287 0.959 . S
H2294 C2287 0.961 . S
H2295 C2287 0.960 . S
H2296 C2288 0.930 . S
H2297 C2289 0.929 . S
H2298 C2306 0.929 . S
H2299 C2308 0.930 . S
H2300 C2310 0.930 . S
H2301 C2313 0.929 . S
H2302 C2316 0.930 . S
H2303 C2318 0.960 . S
H2304 C2318 0.960 . S
H2305 C2318 0.960 . S
C2306 H2298 0.929 . S
C2306 C2307 1.377 . S
C2306 C2308 1.384 . S
C2307 C2306 1.377 . S
C2307 C2313 1.390 . S
C2308 H2299 0.930 . S
C2308 C2306 1.384 . S
C2308 C2309 1.372 . S
C2309 C2308 1.372 . S
C2309 C2310 1.400 . S
C2309 C2314 1.490 . S
C2310 H2300 0.930 . S
C2310 C2309 1.400 . S
C2310 C2313 1.386 . S
H2311 C2327 0.930 . S
H2312 C2328 0.931 . S
C2313 H2301 0.929 . S
C2313 C2307 1.390 . S
C2313 C2310 1.386 . S
C2314 C2309 1.490 . S
C2314 C2316 1.395 . S
C2314 C2317 1.403 . S
H2315 C2321 0.930 . S
C2316 H2302 0.930 . S
C2316 C2314 1.395 . S
C2316 C2319 1.403 . S
C2317 C2314 1.403 . S
C2317 C2318 1.524 . S
C2317 C2321 1.400 . S
C2318 H2303 0.960 . S
C2318 H2304 0.960 . S
C2318 H2305 0.960 . S
C2318 C2317 1.524 . S
C2319 C2316 1.403 . S
C2319 C2320 1.392 . S
C2319 C2323 1.495 . S
C2320 C2319 1.392 . S
C2320 C2321 1.385 . S
C2320 C2322 1.478 . S
C2321 H2315 0.930 . S
C2321 C2317 1.400 . S
C2321 C2320 1.385 . S
C2322 C2320 1.478 . S
C2322 C2324 1.381 . S
C2322 C2328 1.383 . S
C2323 C2319 1.495 . S
C2323 H2329 0.959 . S
C2323 H2330 0.961 . S
C2323 H2331 0.960 . S
C2324 C2322 1.381 . S
C2324 C2325 1.394 . S
C2324 H2332 0.930 . S
C2325 C2324 1.394 . S
C2325 C2326 1.383 . S
C2325 H2333 0.929 . S
C2326 C2325 1.383 . S
C2326 C2327 1.377 . S
C2327 H2311 0.930 . S
C2327 C2326 1.377 . S
C2327 C2328 1.379 . S
C2328 H2312 0.931 . S
C2328 C2322 1.383 . S
C2328 C2327 1.379 . S
H2329 C2323 0.959 . S
H2330 C2323 0.961 . S
H2331 C2323 0.960 . S
H2332 C2324 0.930 . S
H2333 C2325 0.929 . S
H2334 C2342 0.929 . S
H2335 C2344 0.930 . S
H2336 C2346 0.930 . S
H2337 C2349 0.929 . S
H2338 C2352 0.930 . S
H2339 C2354 0.960 . S
H2340 C2354 0.960 . S
H2341 C2354 0.960 . S
C2342 H2334 0.929 . S
C2342 C2343 1.377 . S
C2342 C2344 1.384 . S
C2343 C2342 1.377 . S
C2343 C2349 1.390 . S
C2344 H2335 0.930 . S
C2344 C2342 1.384 . S
C2344 C2345 1.372 . S
C2345 C2344 1.372 . S
C2345 C2346 1.400 . S
C2345 C2350 1.490 . S
C2346 H2336 0.930 . S
C2346 C2345 1.400 . S
C2346 C2349 1.386 . S
H2347 C2363 0.930 . S
H2348 C2364 0.931 . S
C2349 H2337 0.929 . S
C2349 C2343 1.390 . S
C2349 C2346 1.386 . S
C2350 C2345 1.490 . S
C2350 C2352 1.395 . S
C2350 C2353 1.403 . S
H2351 C2357 0.930 . S
C2352 H2338 0.930 . S
C2352 C2350 1.395 . S
C2352 C2355 1.403 . S
C2353 C2350 1.403 . S
C2353 C2354 1.524 . S
C2353 C2357 1.400 . S
C2354 H2339 0.960 . S
C2354 H2340 0.960 . S
C2354 H2341 0.960 . S
C2354 C2353 1.524 . S
C2355 C2352 1.403 . S
C2355 C2356 1.392 . S
C2355 C2359 1.495 . S
C2356 C2355 1.392 . S
C2356 C2357 1.385 . S
C2356 C2358 1.478 . S
C2357 H2351 0.930 . S
C2357 C2353 1.400 . S
C2357 C2356 1.385 . S
C2358 C2356 1.478 . S
C2358 C2360 1.381 . S
C2358 C2364 1.383 . S
C2359 C2355 1.495 . S
C2359 H2365 0.959 . S
C2359 H2366 0.961 . S
C2359 H2367 0.960 . S
C2360 C2358 1.381 . S
C2360 C2361 1.394 . S
C2360 H2368 0.930 . S
C2361 C2360 1.394 . S
C2361 C2362 1.383 . S
C2361 H2369 0.929 . S
C2362 C2361 1.383 . S
C2362 C2363 1.377 . S
C2363 H2347 0.930 . S
C2363 C2362 1.377 . S
C2363 C2364 1.379 . S
C2364 H2348 0.931 . S
C2364 C2358 1.383 . S
C2364 C2363 1.379 . S
H2365 C2359 0.959 . S
H2366 C2359 0.961 . S
H2367 C2359 0.960 . S
H2368 C2360 0.930 . S
H2369 C2361 0.929 . S
H2370 C2378 0.929 . S
H2371 C2380 0.930 . S
H2372 C2382 0.930 . S
H2373 C2385 0.929 . S
H2374 C2388 0.930 . S
H2375 C2390 0.960 . S
H2376 C2390 0.960 . S
H2377 C2390 0.960 . S
C2378 H2370 0.929 . S
C2378 C2379 1.377 . S
C2378 C2380 1.384 . S
C2379 C2378 1.377 . S
C2379 C2385 1.390 . S
C2380 H2371 0.930 . S
C2380 C2378 1.384 . S
C2380 C2381 1.372 . S
C2381 C2380 1.372 . S
C2381 C2382 1.400 . S
C2381 C2386 1.490 . S
C2382 H2372 0.930 . S
C2382 C2381 1.400 . S
C2382 C2385 1.386 . S
H2383 C2399 0.930 . S
H2384 C2400 0.931 . S
C2385 H2373 0.929 . S
C2385 C2379 1.390 . S
C2385 C2382 1.386 . S
C2386 C2381 1.490 . S
C2386 C2388 1.395 . S
C2386 C2389 1.403 . S
H2387 C2393 0.930 . S
C2388 H2374 0.930 . S
C2388 C2386 1.395 . S
C2388 C2391 1.403 . S
C2389 C2386 1.403 . S
C2389 C2390 1.524 . S
C2389 C2393 1.400 . S
C2390 H2375 0.960 . S
C2390 H2376 0.960 . S
C2390 H2377 0.960 . S
C2390 C2389 1.524 . S
C2391 C2388 1.403 . S
C2391 C2392 1.392 . S
C2391 C2395 1.495 . S
C2392 C2391 1.392 . S
C2392 C2393 1.385 . S
C2392 C2394 1.478 . S
C2393 H2387 0.930 . S
C2393 C2389 1.400 . S
C2393 C2392 1.385 . S
C2394 C2392 1.478 . S
C2394 C2396 1.381 . S
C2394 C2400 1.383 . S
C2395 C2391 1.495 . S
C2395 H2401 0.959 . S
C2395 H2402 0.961 . S
C2395 H2403 0.960 . S
C2396 C2394 1.381 . S
C2396 C2397 1.394 . S
C2396 H2404 0.930 . S
C2397 C2396 1.394 . S
C2397 C2398 1.383 . S
C2397 H2405 0.929 . S
C2398 C2397 1.383 . S
C2398 C2399 1.377 . S
C2399 H2383 0.930 . S
C2399 C2398 1.377 . S
C2399 C2400 1.379 . S
C2400 H2384 0.931 . S
C2400 C2394 1.383 . S
C2400 C2399 1.379 . S
H2401 C2395 0.959 . S
H2402 C2395 0.961 . S
H2403 C2395 0.960 . S
H2404 C2396 0.930 . S
H2405 C2397 0.929 . S
H2406 C2414 0.929 . S
H2407 C2416 0.930 . S
H2408 C2418 0.930 . S
H2409 C2421 0.929 . S
H2410 C2424 0.930 . S
H2411 C2426 0.960 . S
H2412 C2426 0.960 . S
H2413 C2426 0.960 . S
C2414 H2406 0.929 . S
C2414 C2415 1.377 . S
C2414 C2416 1.384 . S
C2415 C2414 1.377 . S
C2415 C2421 1.390 . S
C2416 H2407 0.930 . S
C2416 C2414 1.384 . S
C2416 C2417 1.372 . S
C2417 C2416 1.372 . S
C2417 C2418 1.400 . S
C2417 C2422 1.490 . S
C2418 H2408 0.930 . S
C2418 C2417 1.400 . S
C2418 C2421 1.386 . S
H2419 C2435 0.930 . S
H2420 C2436 0.931 . S
C2421 H2409 0.929 . S
C2421 C2415 1.390 . S
C2421 C2418 1.386 . S
C2422 C2417 1.490 . S
C2422 C2424 1.395 . S
C2422 C2425 1.403 . S
H2423 C2429 0.930 . S
C2424 H2410 0.930 . S
C2424 C2422 1.395 . S
C2424 C2427 1.403 . S
C2425 C2422 1.403 . S
C2425 C2426 1.524 . S
C2425 C2429 1.400 . S
C2426 H2411 0.960 . S
C2426 H2412 0.960 . S
C2426 H2413 0.960 . S
C2426 C2425 1.524 . S
C2427 C2424 1.403 . S
C2427 C2428 1.392 . S
C2427 C2431 1.495 . S
C2428 C2427 1.392 . S
C2428 C2429 1.385 . S
C2428 C2430 1.478 . S
C2429 H2423 0.930 . S
C2429 C2425 1.400 . S
C2429 C2428 1.385 . S
C2430 C2428 1.478 . S
C2430 C2432 1.381 . S
C2430 C2436 1.383 . S
C2431 C2427 1.495 . S
C2431 H2437 0.959 . S
C2431 H2438 0.961 . S
C2431 H2439 0.960 . S
C2432 C2430 1.381 . S
C2432 C2433 1.394 . S
C2432 H2440 0.930 . S
C2433 C2432 1.394 . S
C2433 C2434 1.383 . S
C2433 H2441 0.929 . S
C2434 C2433 1.383 . S
C2434 C2435 1.377 . S
C2435 H2419 0.930 . S
C2435 C2434 1.377 . S
C2435 C2436 1.379 . S
C2436 H2420 0.931 . S
C2436 C2430 1.383 . S
C2436 C2435 1.379 . S
H2437 C2431 0.959 . S
H2438 C2431 0.961 . S
H2439 C2431 0.960 . S
H2440 C2432 0.930 . S
H2441 C2433 0.929 . S
H2442 C2450 0.929 . S
H2443 C2452 0.930 . S
H2444 C2454 0.930 . S
H2445 C2457 0.929 . S
H2446 C2460 0.930 . S
H2447 C2462 0.960 . S
H2448 C2462 0.960 . S
H2449 C2462 0.960 . S
C2450 H2442 0.929 . S
C2450 C2451 1.377 . S
C2450 C2452 1.384 . S
C2451 C2450 1.377 . S
C2451 C2457 1.390 . S
C2452 H2443 0.930 . S
C2452 C2450 1.384 . S
C2452 C2453 1.372 . S
C2453 C2452 1.372 . S
C2453 C2454 1.400 . S
C2453 C2458 1.490 . S
C2454 H2444 0.930 . S
C2454 C2453 1.400 . S
C2454 C2457 1.386 . S
H2455 C2471 0.930 . S
H2456 C2472 0.931 . S
C2457 H2445 0.929 . S
C2457 C2451 1.390 . S
C2457 C2454 1.386 . S
C2458 C2453 1.490 . S
C2458 C2460 1.395 . S
C2458 C2461 1.403 . S
H2459 C2465 0.930 . S
C2460 H2446 0.930 . S
C2460 C2458 1.395 . S
C2460 C2463 1.403 . S
C2461 C2458 1.403 . S
C2461 C2462 1.524 . S
C2461 C2465 1.400 . S
C2462 H2447 0.960 . S
C2462 H2448 0.960 . S
C2462 H2449 0.960 . S
C2462 C2461 1.524 . S
C2463 C2460 1.403 . S
C2463 C2464 1.392 . S
C2463 C2467 1.495 . S
C2464 C2463 1.392 . S
C2464 C2465 1.385 . S
C2464 C2466 1.478 . S
C2465 H2459 0.930 . S
C2465 C2461 1.400 . S
C2465 C2464 1.385 . S
C2466 C2464 1.478 . S
C2466 C2468 1.381 . S
C2466 C2472 1.383 . S
C2467 C2463 1.495 . S
C2467 H2473 0.959 . S
C2467 H2474 0.961 . S
C2467 H2475 0.960 . S
C2468 C2466 1.381 . S
C2468 C2469 1.394 . S
C2468 H2476 0.930 . S
C2469 C2468 1.394 . S
C2469 C2470 1.383 . S
C2469 H2477 0.929 . S
C2470 C2469 1.383 . S
C2470 C2471 1.377 . S
C2471 H2455 0.930 . S
C2471 C2470 1.377 . S
C2471 C2472 1.379 . S
C2472 H2456 0.931 . S
C2472 C2466 1.383 . S
C2472 C2471 1.379 . S
H2473 C2467 0.959 . S
H2474 C2467 0.961 . S
H2475 C2467 0.960 . S
H2476 C2468 0.930 . S
H2477 C2469 0.929 . S
H2478 C2486 0.929 . S
H2479 C2488 0.930 . S
H2480 C2490 0.930 . S
H2481 C2493 0.929 . S
H2482 C2496 0.930 . S
H2483 C2498 0.960 . S
H2484 C2498 0.960 . S
H2485 C2498 0.960 . S
C2486 H2478 0.929 . S
C2486 C2487 1.377 . S
C2486 C2488 1.384 . S
C2487 C2486 1.377 . S
C2487 C2493 1.390 . S
C2488 H2479 0.930 . S
C2488 C2486 1.384 . S
C2488 C2489 1.372 . S
C2489 C2488 1.372 . S
C2489 C2490 1.400 . S
C2489 C2494 1.490 . S
C2490 H2480 0.930 . S
C2490 C2489 1.400 . S
C2490 C2493 1.386 . S
H2491 C2507 0.930 . S
H2492 C2508 0.931 . S
C2493 H2481 0.929 . S
C2493 C2487 1.390 . S
C2493 C2490 1.386 . S
C2494 C2489 1.490 . S
C2494 C2496 1.395 . S
C2494 C2497 1.403 . S
H2495 C2501 0.930 . S
C2496 H2482 0.930 . S
C2496 C2494 1.395 . S
C2496 C2499 1.403 . S
C2497 C2494 1.403 . S
C2497 C2498 1.524 . S
C2497 C2501 1.400 . S
C2498 H2483 0.960 . S
C2498 H2484 0.960 . S
C2498 H2485 0.960 . S
C2498 C2497 1.524 . S
C2499 C2496 1.403 . S
C2499 C2500 1.392 . S
C2499 C2503 1.495 . S
C2500 C2499 1.392 . S
C2500 C2501 1.385 . S
C2500 C2502 1.478 . S
C2501 H2495 0.930 . S
C2501 C2497 1.400 . S
C2501 C2500 1.385 . S
C2502 C2500 1.478 . S
C2502 C2504 1.381 . S
C2502 C2508 1.383 . S
C2503 C2499 1.495 . S
C2503 H2509 0.959 . S
C2503 H2510 0.961 . S
C2503 H2511 0.960 . S
C2504 C2502 1.381 . S
C2504 C2505 1.394 . S
C2504 H2512 0.930 . S
C2505 C2504 1.394 . S
C2505 C2506 1.383 . S
C2505 H2513 0.929 . S
C2506 C2505 1.383 . S
C2506 C2507 1.377 . S
C2507 H2491 0.930 . S
C2507 C2506 1.377 . S
C2507 C2508 1.379 . S
C2508 H2492 0.931 . S
C2508 C2502 1.383 . S
C2508 C2507 1.379 . S
H2509 C2503 0.959 . S
H2510 C2503 0.961 . S
H2511 C2503 0.960 . S
H2512 C2504 0.930 . S
H2513 C2505 0.929 . S
H2514 C2522 0.929 . S
H2515 C2524 0.930 . S
H2516 C2526 0.930 . S
H2517 C2529 0.929 . S
H2518 C2532 0.930 . S
H2519 C2534 0.960 . S
H2520 C2534 0.960 . S
H2521 C2534 0.960 . S
C2522 H2514 0.929 . S
C2522 C2523 1.377 . S
C2522 C2524 1.384 . S
C2523 C2522 1.377 . S
C2523 C2529 1.390 . S
C2524 H2515 0.930 . S
C2524 C2522 1.384 . S
C2524 C2525 1.372 . S
C2525 C2524 1.372 . S
C2525 C2526 1.400 . S
C2525 C2530 1.490 . S
C2526 H2516 0.930 . S
C2526 C2525 1.400 . S
C2526 C2529 1.386 . S
H2527 C2543 0.930 . S
H2528 C2544 0.931 . S
C2529 H2517 0.929 . S
C2529 C2523 1.390 . S
C2529 C2526 1.386 . S
C2530 C2525 1.490 . S
C2530 C2532 1.395 . S
C2530 C2533 1.403 . S
H2531 C2537 0.930 . S
C2532 H2518 0.930 . S
C2532 C2530 1.395 . S
C2532 C2535 1.403 . S
C2533 C2530 1.403 . S
C2533 C2534 1.524 . S
C2533 C2537 1.400 . S
C2534 H2519 0.960 . S
C2534 H2520 0.960 . S
C2534 H2521 0.960 . S
C2534 C2533 1.524 . S
C2535 C2532 1.403 . S
C2535 C2536 1.392 . S
C2535 C2539 1.495 . S
C2536 C2535 1.392 . S
C2536 C2537 1.385 . S
C2536 C2538 1.478 . S
C2537 H2531 0.930 . S
C2537 C2533 1.400 . S
C2537 C2536 1.385 . S
C2538 C2536 1.478 . S
C2538 C2540 1.381 . S
C2538 C2544 1.383 . S
C2539 C2535 1.495 . S
C2539 H2545 0.959 . S
C2539 H2546 0.961 . S
C2539 H2547 0.960 . S
C2540 C2538 1.381 . S
C2540 C2541 1.394 . S
C2540 H2548 0.930 . S
C2541 C2540 1.394 . S
C2541 C2542 1.383 . S
C2541 H2549 0.929 . S
C2542 C2541 1.383 . S
C2542 C2543 1.377 . S
C2543 H2527 0.930 . S
C2543 C2542 1.377 . S
C2543 C2544 1.379 . S
C2544 H2528 0.931 . S
C2544 C2538 1.383 . S
C2544 C2543 1.379 . S
H2545 C2539 0.959 . S
H2546 C2539 0.961 . S
H2547 C2539 0.960 . S
H2548 C2540 0.930 . S
H2549 C2541 0.929 . S
H2550 C2558 0.929 . S
H2551 C2560 0.930 . S
H2552 C2562 0.930 . S
H2553 C2565 0.929 . S
H2554 C2568 0.930 . S
H2555 C2570 0.960 . S
H2556 C2570 0.960 . S
H2557 C2570 0.960 . S
C2558 H2550 0.929 . S
C2558 C2559 1.377 . S
C2558 C2560 1.384 . S
C2559 C2558 1.377 . S
C2559 C2565 1.390 . S
C2560 H2551 0.930 . S
C2560 C2558 1.384 . S
C2560 C2561 1.372 . S
C2561 C2560 1.372 . S
C2561 C2562 1.400 . S
C2561 C2566 1.490 . S
C2562 H2552 0.930 . S
C2562 C2561 1.400 . S
C2562 C2565 1.386 . S
H2563 C2579 0.930 . S
H2564 C2580 0.931 . S
C2565 H2553 0.929 . S
C2565 C2559 1.390 . S
C2565 C2562 1.386 . S
C2566 C2561 1.490 . S
C2566 C2568 1.395 . S
C2566 C2569 1.403 . S
H2567 C2573 0.930 . S
C2568 H2554 0.930 . S
C2568 C2566 1.395 . S
C2568 C2571 1.403 . S
C2569 C2566 1.403 . S
C2569 C2570 1.524 . S
C2569 C2573 1.400 . S
C2570 H2555 0.960 . S
C2570 H2556 0.960 . S
C2570 H2557 0.960 . S
C2570 C2569 1.524 . S
C2571 C2568 1.403 . S
C2571 C2572 1.392 . S
C2571 C2575 1.495 . S
C2572 C2571 1.392 . S
C2572 C2573 1.385 . S
C2572 C2574 1.478 . S
C2573 H2567 0.930 . S
C2573 C2569 1.400 . S
C2573 C2572 1.385 . S
C2574 C2572 1.478 . S
C2574 C2576 1.381 . S
C2574 C2580 1.383 . S
C2575 C2571 1.495 . S
C2575 H2581 0.959 . S
C2575 H2582 0.961 . S
C2575 H2583 0.960 . S
C2576 C2574 1.381 . S
C2576 C2577 1.394 . S
C2576 H2584 0.930 . S
C2577 C2576 1.394 . S
C2577 C2578 1.383 . S
C2577 H2585 0.929 . S
C2578 C2577 1.383 . S
C2578 C2579 1.377 . S
C2579 H2563 0.930 . S
C2579 C2578 1.377 . S
C2579 C2580 1.379 . S
C2580 H2564 0.931 . S
C2580 C2574 1.383 . S
C2580 C2579 1.379 . S
H2581 C2575 0.959 . S
H2582 C2575 0.961 . S
H2583 C2575 0.960 . S
H2584 C2576 0.930 . S
H2585 C2577 0.929 . S
C886 C683 1.416 . S
C867 C74 1.343 . S
C922 C673 0.539 . S
C903 C142 0.782 . S
C958 C674 0.922 . S
C939 C231 0.918 . S
C975 C322 1.440 . S
C994 C696 1.550 . S
C1011 C406 0.780 . S
C1030 C699 0.439 . S
C1066 C682 0.902 . S
C1047 C494 0.912 . S
C1083 C562 1.426 . S
C1102 C672 1.549 . S
C1119 C651 1.352 . S
C1138 C690 1.373 . S
C1174 C703 1.589 . S
C1155 C58 1.492 . S
C1191 C151 1.440 . S
C1210 C752 1.396 . S
C1246 C730 2.640 . S
C1227 C224 2.549 . S
C1282 C744 0.831 . S
C1263 C315 0.847 . S
C1299 C399 0.858 . S
C1318 C705 0.810 . S
C1354 C758 1.541 . S
C1335 C478 1.502 . S
C1371 C571 1.388 . S
C1390 C714 1.389 . S
C1407 C644 2.547 . S
C1426 C735 2.627 . S
C1443 C67 2.548 . S
C1462 C761 2.635 . S
C1479 C392 1.440 . S
C1498 C745 1.455 . S
C1534 C704 2.640 . S
C1515 C487 2.551 . S
C1570 C736 0.849 . S
C1551 C578 0.868 . S
C1587 C658 1.491 . S
C1606 C727 1.551 . S
C1623 C238 1.501 . S
C1642 C734 1.546 . S
C1678 C721 1.434 . S
C1659 C308 1.396 . S
C1695 C158 0.847 . S
C1714 C713 0.808 . S
C1731 C662 1.342 . S
C1750 C776 1.375 . S
C1767 C394 0.787 . S
C1786 C766 0.397 . S
C1822 C767 0.902 . S
C1803 C483 0.916 . S
C1858 C789 1.530 . S
C1839 C574 1.432 . S
C1875 C154 0.810 . S
C1894 C792 0.568 . S
C1930 C775 0.938 . S
C1911 C242 0.894 . S
C1947 C310 1.438 . S
C1966 C765 1.556 . S
C1983 C63 1.338 . S
C2002 C783 1.411 . S
C2019 C646 1.488 . S
C2038 C796 1.568 . S
C2074 C845 1.395 . S
C2055 C403 1.440 . S
C2091 C476 2.552 . S
C2110 C823 2.663 . S
C2127 C567 0.847 . S
C2146 C837 0.813 . S
C2182 C798 0.899 . S
C2163 C147 0.850 . S
C2199 C226 1.497 . S
C2218 C851 1.538 . S
C2254 C807 1.391 . S
C2235 C319 1.394 . S
C2290 C828 2.625 . S
C2271 C56 2.541 . S
C2326 C854 2.611 . S
C2307 C655 2.541 . S
C2343 C140 1.439 . S
C2362 C838 1.453 . S
C2379 C235 2.548 . S
C2398 C797 2.635 . S
C2434 C829 0.867 . S
C2415 C326 0.863 . S
C2451 C70 1.479 . S
C2470 C820 1.587 . S
C2487 C490 1.500 . S
C2506 C827 1.552 . S
C2542 C814 1.387 . S
C2523 C560 1.384 . S
C2578 C806 0.892 . S
C2559 C410 0.859 . S
