# Generated by pormake.
# Topology anh, (6,3)-cn, num edge types: 1
# Building blocks:
#     Node 0, Type 0, BuildingBlock: BETDIP_clean_sbu_0, # of connection points: 6
#     Node 1, Type 0, BuildingBlock: BETDIP_clean_sbu_0, # of connection points: 6
#     Node 2, Type 0, BuildingBlock: BETDIP_clean_sbu_0, # of connection points: 6
#     Node 3, Type 1, BuildingBlock: WUSLED_clean_sbu_0, # of connection points: 3
#     Node 4, Type 1, BuildingBlock: WUSLED_clean_sbu_0, # of connection points: 3
#     Node 5, Type 1, BuildingBlock: WUSLED_clean_sbu_0, # of connection points: 3
#     Node 6, Type 1, BuildingBlock: WUSLED_clean_sbu_0, # of connection points: 3
#     Node 7, Type 1, BuildingBlock: WUSLED_clean_sbu_0, # of connection points: 3
#     Node 8, Type 1, BuildingBlock: WUSLED_clean_sbu_0, # of connection points: 3
#     Edge 9, Type (0, 1), BuildingBlock: CIFDUS_clean_linker_0, # of connection points: 2
#     Edge 10, Type (0, 1), BuildingBlock: CIFDUS_clean_linker_0, # of connection points: 2
#     Edge 11, Type (0, 1), BuildingBlock: CIFDUS_clean_linker_0, # of connection points: 2
#     Edge 12, Type (0, 1), BuildingBlock: CIFDUS_clean_linker_0, # of connection points: 2
#     Edge 13, Type (0, 1), BuildingBlock: CIFDUS_clean_linker_0, # of connection points: 2
#     Edge 14, Type (0, 1), BuildingBlock: CIFDUS_clean_linker_0, # of connection points: 2
#     Edge 15, Type (0, 1), BuildingBlock: CIFDUS_clean_linker_0, # of connection points: 2
#     Edge 16, Type (0, 1), BuildingBlock: CIFDUS_clean_linker_0, # of connection points: 2
#     Edge 17, Type (0, 1), BuildingBlock: CIFDUS_clean_linker_0, # of connection points: 2
#     Edge 18, Type (0, 1), BuildingBlock: CIFDUS_clean_linker_0, # of connection points: 2
#     Edge 19, Type (0, 1), BuildingBlock: CIFDUS_clean_linker_0, # of connection points: 2
#     Edge 20, Type (0, 1), BuildingBlock: CIFDUS_clean_linker_0, # of connection points: 2
#     Edge 21, Type (0, 1), BuildingBlock: CIFDUS_clean_linker_0, # of connection points: 2
#     Edge 22, Type (0, 1), BuildingBlock: CIFDUS_clean_linker_0, # of connection points: 2
#     Edge 23, Type (0, 1), BuildingBlock: CIFDUS_clean_linker_0, # of connection points: 2
#     Edge 24, Type (0, 1), BuildingBlock: CIFDUS_clean_linker_0, # of connection points: 2
#     Edge 25, Type (0, 1), BuildingBlock: CIFDUS_clean_linker_0, # of connection points: 2
#     Edge 26, Type (0, 1), BuildingBlock: CIFDUS_clean_linker_0, # of connection points: 2
# Relax obj value: 0.242
# Max RMSD: 0.180
# Mean RMSD: 0.151
data_MOF--net-anh--node1-BETDIP_clean_sbu_0--node2-WUSLED_clean_sbu_0--edge1-CIFDUS_clean_linker_0
_symmetry_space_group_name_H-M    P1
_symmetry_Int_Tables_number       1
_symmetry_cell_setting            triclinic
loop_
_symmetry_equiv_pos_as_xyz
'x, y, z'
_cell_length_a     37.23927
_cell_length_b     37.132519
_cell_length_c     63.515021
_cell_angle_alpha  89.90248
_cell_angle_beta   89.83449
_cell_angle_gamma 120.32688
loop_
_atom_site_label
_atom_site_type_symbol
_atom_site_fract_x
_atom_site_fract_y
_atom_site_fract_z
_atom_type_partial_charge
Tb0 Tb 0.114 0.60599 0.17294 0.0
Tb1 Tb 0.07306 0.51927 0.16797 0.0
C2 C 0.16358 0.67713 0.18621 0.0
C3 C 0.20851 0.70334 0.18226 0.0
C4 C 0.23638 0.71235 0.19887 0.0
C5 C 0.27896 0.73772 0.1955 0.0
C6 C 0.2944 0.75496 0.17548 0.0
C7 C 0.26673 0.74404 0.15857 0.0
C8 C 0.2241 0.71826 0.1619 0.0
C9 C 0.09836 0.58431 0.13359 0.0
C10 C 0.17352 0.56321 0.16448 0.0
C11 C 1.0245 0.44539 0.15679 0.0
C12 C 0.97942 0.42066 0.15945 0.0
C13 C 0.9551 0.38653 0.1464 0.0
C14 C 0.91171 0.36522 0.14826 0.0
C15 C 0.89245 0.37822 0.16308 0.0
C16 C 0.9172 0.41294 0.1758 0.0
C17 C 0.96022 0.43368 0.17413 0.0
C18 C 0.0868 0.54244 0.20859 0.0
C19 C 1.01511 0.56508 0.16744 0.0
O20 O 0.1523 0.64335 0.19739 0.0
O21 O 0.13934 0.67039 0.17004 0.0
O22 O 0.11086 0.56822 0.14709 0.0
O23 O 0.09744 0.61583 0.14159 0.0
O24 O 0.1706 0.59673 0.16992 0.0
O25 O 0.13728 0.52785 0.16131 0.0
O26 O 1.03697 0.47744 0.14427 0.0
O27 O 1.04589 0.45528 0.17422 0.0
O28 O 0.07429 0.55742 0.1943 0.0
O29 O 0.09098 0.51306 0.2002 0.0
O30 O 1.01798 0.53104 0.16322 0.0
O31 O 1.04998 0.59852 0.17429 0.0
H32 H 0.22514 0.70073 0.21461 0.0
H33 H 0.29949 0.74635 0.20895 0.0
H34 H 0.27791 0.75728 0.14307 0.0
H35 H 0.2034 0.71109 0.14863 0.0
H36 H 0.96961 0.37656 0.13479 0.0
H37 H 0.89332 0.3384 0.13835 0.0
H38 H 0.9033 0.42429 0.18703 0.0
H39 H 0.97852 0.46027 0.1842 0.0
Tb40 Tb 0.62115 1.03911 0.50925 0.0
Tb41 Tb 0.57183 0.07608 0.50296 0.0
C42 C 0.64309 0.99173 0.52503 0.0
C43 C 0.62286 0.94633 0.5228 0.0
C44 C 0.61818 0.92138 0.54031 0.0
C45 C 0.59624 0.87798 0.53848 0.0
C46 C 0.57886 0.85911 0.51908 0.0
C47 C 0.58315 0.88416 0.50165 0.0
C48 C 0.6047 0.92742 0.50352 0.0
C49 C 0.61554 0.05336 0.46974 0.0
C50 C 0.51819 0.97626 0.49981 0.0
C51 C 0.54766 0.12443 0.49084 0.0
C52 C 0.57099 0.17002 0.49256 0.0
C53 C 0.57363 0.19512 0.47541 0.0
C54 C 0.6017 0.23816 0.47586 0.0
C55 C 0.62772 0.25629 0.49336 0.0
C56 C 0.62422 0.23104 0.51061 0.0
C57 C 0.59633 0.1884 0.51019 0.0
C58 C 0.58222 0.0647 0.54381 0.0
C59 C 0.67573 0.13787 0.50154 0.0
O60 O 0.62128 1.00462 0.53542 0.0
O61 O 0.65976 1.01337 0.50785 0.0
O62 O 0.5864 1.03982 0.4831 0.0
O63 O 0.64841 0.05571 0.47801 0.0
O64 O 0.55525 0.98081 0.50559 0.0
O65 O 0.51764 1.01149 0.49644 0.0
O66 O 0.56484 0.10962 0.47828 0.0
O67 O 0.53559 0.10377 0.50861 0.0
O68 O 0.60971 0.07833 0.52942 0.0
O69 O 0.54762 0.05739 0.53533 0.0
O70 O 0.63761 0.13212 0.49781 0.0
O71 O 0.67718 0.10474 0.50881 0.0
H72 H 0.63135 0.93545 0.55537 0.0
H73 H 0.59382 0.8592 0.55208 0.0
H74 H 0.5699 0.87024 0.48657 0.0
H75 H 0.60694 0.94605 0.48989 0.0
H76 H 0.55498 0.18128 0.46148 0.0
H77 H 0.60371 0.25707 0.46241 0.0
H78 H 0.6431 0.24425 0.52453 0.0
H79 H 0.59561 0.16965 0.52345 0.0
Tb80 Tb 0.55951 0.54682 0.83899 0.0
Tb81 Tb 0.6464 0.59439 0.83882 0.0
C82 C 0.48544 0.52051 0.84919 0.0
C83 C 0.45844 0.53879 0.84735 0.0
C84 C 0.45399 0.56003 0.86449 0.0
C85 C 0.42782 0.57654 0.86311 0.0
C86 C 0.40523 0.57187 0.84462 0.0
C87 C 0.41072 0.55188 0.82721 0.0
C88 C 0.43704 0.53541 0.82856 0.0
C89 C 0.59073 0.56107 0.80107 0.0
C90 C 0.60335 0.65101 0.8337 0.0
C91 C 0.72162 0.62209 0.83015 0.0
C92 C 0.74635 0.60144 0.83039 0.0
C93 C 0.77282 0.60696 0.81343 0.0
C94 C 0.79291 0.58381 0.81236 0.0
C95 C 0.78679 0.55485 0.82828 0.0
C96 C 0.76063 0.54993 0.84539 0.0
C97 C 0.74036 0.57275 0.84635 0.0
C98 C 0.61561 0.58064 0.87789 0.0
C99 C 0.60264 0.49073 0.83439 0.0
O100 O 0.51643 0.53874 0.86245 0.0
O101 O 0.49638 0.51055 0.83156 0.0
O102 O 0.60239 0.58676 0.81595 0.0
O103 O 0.55867 0.52609 0.80683 0.0
O104 O 0.5683 0.61364 0.83668 0.0
O105 O 0.63887 0.65021 0.833 0.0
O106 O 0.69228 0.60778 0.816 0.0
O107 O 0.70871 0.62743 0.84841 0.0
O108 O 0.60334 0.55411 0.86299 0.0
O109 O 0.64602 0.61554 0.87086 0.0
O110 O 0.63682 0.52892 0.8334 0.0
O111 O 0.56675 0.48952 0.83853 0.0
H112 H 0.46998 0.56307 0.87918 0.0
H113 H 0.4235 0.59088 0.87699 0.0
H114 H 0.39356 0.54773 0.8128 0.0
H115 H 0.43993 0.51934 0.81503 0.0
H116 H 0.77718 0.62844 0.80079 0.0
H117 H 0.81262 0.58808 0.79891 0.0
H118 H 0.75591 0.52856 0.85814 0.0
H119 H 0.71949 0.5674 0.85944 0.0
C120 C 0.57946 0.19291 0.21569 0.0
C121 C 0.59943 0.2313 0.22616 0.0
C122 C 0.65628 0.25725 0.20088 0.0
C123 C 0.63739 0.2635 0.21863 0.0
C124 C 0.634 0.22021 0.18929 0.0
C125 C 0.59574 0.18832 0.19664 0.0
U126 U 0.53537 0.12917 0.26558 0.0
O127 O 0.47176 0.07936 0.2735 0.0
O128 O 0.52247 0.0655 0.27132 0.0
C129 C 0.48213 0.05044 0.27166 0.0
C130 C 0.54798 0.15527 0.22645 0.0
C131 C 0.46081 1.01992 0.25504 0.0
C132 C 0.44849 1.00678 0.21761 0.0
C133 C 0.46166 1.03432 0.23449 0.0
C134 C 0.43262 0.94988 0.24174 0.0
C135 C 0.43423 0.96434 0.22102 0.0
C136 C 0.44612 0.97759 0.25864 0.0
C137 C 0.58335 0.16662 0.31897 0.0
C138 C 0.55395 0.14965 0.35433 0.0
C139 C 0.61384 0.14328 0.34563 0.0
C140 C 0.61402 0.15749 0.32529 0.0
C141 C 0.58346 0.13861 0.36034 0.0
C142 C 0.55385 0.16347 0.33385 0.0
C143 C 0.58072 0.1762 0.29659 0.0
O144 O 0.56337 0.13354 0.23471 0.0
O145 O 0.52188 0.15894 0.23906 0.0
O146 O 0.54601 0.17445 0.29062 0.0
O147 O 0.59394 0.15858 0.2831 0.0
H148 H 0.58742 0.23533 0.24098 0.0
H149 H 0.6534 0.29211 0.2276 0.0
H150 H 0.64767 0.21419 0.17565 0.0
H151 H 0.58077 0.15868 0.18847 0.0
H152 H 0.4502 1.01884 0.20186 0.0
H153 H 0.47388 0.06719 0.2314 0.0
H154 H 0.42078 0.9171 0.24491 0.0
H155 H 0.44606 0.96621 0.27436 0.0
H156 H 0.53064 0.14725 0.36539 0.0
H157 H 0.63676 0.13462 0.34955 0.0
H158 H 0.63741 0.1599 0.31427 0.0
H159 H 0.53006 0.17073 0.32959 0.0
C160 C 0.60455 0.60245 0.53225 0.0
C161 C 0.59065 0.6223 0.54597 0.0
C162 C 0.56817 0.647 0.51614 0.0
C163 C 0.57281 0.64451 0.53801 0.0
C164 C 0.57926 0.6242 0.50256 0.0
C165 C 0.59763 0.60225 0.51059 0.0
U166 U 0.65162 0.58016 0.57901 0.0
O167 O 0.65708 0.5256 0.58706 0.0
O168 O 0.71341 0.58704 0.58315 0.0
C169 C 0.69764 0.54642 0.58434 0.0
C170 C 0.62946 0.58548 0.54057 0.0
C171 C 0.71176 0.52858 0.56803 0.0
C172 C 0.71368 0.51596 0.53068 0.0
C173 C 0.7124 0.54041 0.54694 0.0
C174 C 0.71738 0.46965 0.55642 0.0
C175 C 0.71417 0.47927 0.53529 0.0
C176 C 0.716 0.49411 0.57271 0.0
C177 C 0.62849 0.60176 0.6337 0.0
C178 C 0.63811 0.56654 0.66346 0.0
C179 C 0.61458 0.61595 0.66908 0.0
C180 C 0.61637 0.62322 0.6474 0.0
C181 C 0.62445 0.58676 0.67721 0.0
C182 C 0.64036 0.57418 0.64187 0.0
C183 C 0.62519 0.60507 0.61091 0.0
O184 O 0.66494 0.61364 0.5489 0.0
O185 O 0.60891 0.55195 0.55233 0.0
O186 O 0.60247 0.56897 0.60156 0.0
O187 O 0.66015 0.6299 0.6009 0.0
H188 H 0.59582 0.62262 0.56277 0.0
H189 H 0.56561 0.6622 0.54904 0.0
H190 H 0.57561 0.62497 0.48569 0.0
H191 H 0.60802 0.58669 0.49986 0.0
H192 H 0.71133 0.5241 0.51455 0.0
H193 H 0.70862 0.56671 0.54301 0.0
H194 H 0.71718 0.44119 0.56046 0.0
H195 H 0.71492 0.48425 0.58888 0.0
H196 H 0.64623 0.54422 0.6694 0.0
H197 H 0.60372 0.63172 0.67939 0.0
H198 H 0.607 0.64449 0.64129 0.0
H199 H 0.64991 0.55744 0.63144 0.0
C200 C 0.95383 0.42151 0.87859 0.0
C201 C 0.91823 0.41377 0.88988 0.0
C202 C 0.88681 0.4192 0.85746 0.0
C203 C 0.88474 0.41244 0.87934 0.0
C204 C 0.92068 0.42241 0.84604 0.0
C205 C 0.95407 0.42365 0.85658 0.0
U206 U 1.02117 0.45042 0.92814 0.0
O207 O 0.07856 0.44871 0.93367 0.0
O208 O 0.08009 0.50861 0.93339 0.0
C209 C 0.10176 0.48963 0.93294 0.0
C210 C 0.99331 0.4361 0.88942 0.0
C211 C 0.13425 0.50569 0.91682 0.0
C212 C 0.15362 0.51359 0.87988 0.0
C213 C 0.12305 0.49945 0.89549 0.0
C214 C 0.20687 0.54161 0.90684 0.0
C215 C 0.19582 0.53424 0.88542 0.0
C216 C 0.17621 0.52739 0.92245 0.0
C217 C 0.98515 0.43973 0.98353 0.0
C218 C 1.03697 0.45611 0.01065 0.0
C219 C 0.9748 0.45914 0.0185 0.0
C220 C 0.96084 0.44688 0.99789 0.0
C221 C 1.01325 0.46433 0.02498 0.0
C222 C 1.02318 0.44419 0.99008 0.0
C223 C 0.97326 0.43178 0.96127 0.0
O224 O 1.0071 0.47202 0.89898 0.0
O225 O 0.99733 0.40857 0.90066 0.0
O226 O 0.98108 0.40475 0.95202 0.0
O227 O 0.98486 0.46566 0.94999 0.0
H228 H 0.91784 0.41239 0.90693 0.0
H229 H 0.8592 0.4103 0.88855 0.0
H230 H 0.92283 0.42743 0.82916 0.0
H231 H 0.98149 0.42978 0.84769 0.0
H232 H 0.14428 0.50762 0.86353 0.0
H233 H 0.09061 0.48301 0.89093 0.0
H234 H 0.23917 0.55676 0.91159 0.0
H235 H 0.18521 0.5326 0.93886 0.0
H236 H 0.067 0.46052 0.01508 0.0
H237 H 0.95583 0.46511 0.02928 0.0
H238 H 0.93166 0.44405 0.99303 0.0
H239 H 1.04284 0.43962 0.9791 0.0
C240 C 0.98821 0.44606 0.46986 0.0
C241 C 0.94795 0.44166 0.4726 0.0
C242 C 0.90898 0.36291 0.47818 0.0
C243 C 0.91001 0.40189 0.47641 0.0
C244 C 0.94936 0.36761 0.47515 0.0
C245 C 0.98701 0.40714 0.47129 0.0
U246 U 0.09708 0.5566 0.44902 0.0
O247 O 0.12782 0.62121 0.46319 0.0
O248 O 0.16165 0.58829 0.46338 0.0
C249 C 0.16341 0.62372 0.46807 0.0
C250 C 1.03089 0.49004 0.4688 0.0
C251 C 0.2063 0.66756 0.4688 0.0
C252 C 0.28413 0.7117 0.47618 0.0
C253 C 0.24611 0.6718 0.4729 0.0
C254 C 0.24568 0.74638 0.47183 0.0
C255 C 0.28585 0.75115 0.47584 0.0
C256 C 0.20796 0.70674 0.46854 0.0
C257 C 0.09774 0.55421 0.3832 0.0
C258 C 0.12274 0.53939 0.35022 0.0
C259 C 0.07293 0.56245 0.3484 0.0
C260 C 0.07314 0.565 0.37074 0.0
C261 C 0.09736 0.54902 0.3376 0.0
C262 C 0.12273 0.5417 0.37242 0.0
C263 C 0.09718 0.55521 0.40715 0.0
O264 O 0.0667 0.49268 0.46419 0.0
O265 O 1.03241 0.52514 0.4635 0.0
O266 O 0.07968 0.57235 0.41809 0.0
O267 O 0.11465 0.53909 0.41885 0.0
H268 H 0.94562 0.46955 0.47228 0.0
H269 H 0.88131 0.40214 0.47855 0.0
H270 H 0.95254 0.34027 0.47573 0.0
H271 H 1.01594 0.40706 0.46981 0.0
H272 H 0.31249 0.71124 0.47912 0.0
H273 H 0.24802 0.64372 0.47397 0.0
H274 H 0.24226 0.77354 0.47161 0.0
H275 H 0.17931 0.70698 0.46618 0.0
H276 H 0.14308 0.53004 0.34297 0.0
H277 H 1.05268 0.57002 0.33967 0.0
H278 H 1.05341 0.57484 0.37827 0.0
H279 H 0.14252 0.53353 0.38119 0.0
C280 C 0.59299 0.95607 0.80408 0.0
C281 C 0.55548 0.91663 0.80307 0.0
C282 C 0.58872 0.87255 0.81138 0.0
C283 C 0.55348 0.87697 0.80639 0.0
C284 C 0.62644 0.91219 0.81219 0.0
C285 C 0.6284 0.952 0.80883 0.0
U286 U 0.59415 0.06659 0.78419 0.0
O287 O 0.56218 0.09794 0.79948 0.0
O288 O 0.62909 0.13192 0.798 0.0
C289 C 0.59596 0.13388 0.80358 0.0
C290 C 0.59422 0.99997 0.80338 0.0
C291 C 0.59537 0.17687 0.80436 0.0
C292 C 0.55665 0.21677 0.80608 0.0
C293 C 0.5583 0.17899 0.8027 0.0
C294 C 0.62916 0.25436 0.81319 0.0
C295 C 0.59182 0.25639 0.81178 0.0
C296 C 0.63078 0.21636 0.80977 0.0
C297 C 0.58801 0.06452 0.7185 0.0
C298 C 0.5492 0.05915 0.68621 0.0
C299 C 0.61691 0.06623 0.68316 0.0
C300 C 0.62041 0.06796 0.70546 0.0
C301 C 0.58098 0.06142 0.67294 0.0
C302 C 0.55247 0.06024 0.70839 0.0
C303 C 0.59078 0.06533 0.74237 0.0
O304 O 0.62779 1.03529 0.798 0.0
O305 O 0.56086 1.00245 0.79918 0.0
O306 O 0.55761 0.04942 0.75455 0.0
O307 O 0.62602 0.08195 0.75279 0.0
H308 H 0.52668 0.91614 0.79996 0.0
H309 H 0.52314 0.84941 0.805 0.0
H310 H 0.65512 0.91293 0.81592 0.0
H311 H 0.65833 0.9802 0.81044 0.0
H312 H 0.52664 0.21417 0.80411 0.0
H313 H 0.52953 0.1507 0.79902 0.0
H314 H 0.65773 0.28229 0.81748 0.0
H315 H 0.66037 0.21794 0.81188 0.0
H316 H 0.52143 0.05686 0.67957 0.0
H317 H 0.64223 0.06784 0.674 0.0
H318 H 0.64837 0.07131 0.71251 0.0
H319 H 0.527 0.05807 0.71767 0.0
C320 C 0.7018 0.55857 0.13763 0.0
C321 C 0.70343 0.52109 0.13611 0.0
C322 C 0.78105 0.55416 0.14428 0.0
C323 C 0.74098 0.51901 0.13918 0.0
C324 C 0.77933 0.59181 0.14588 0.0
C325 C 0.74154 0.59385 0.14279 0.0
U326 U 0.59339 0.56097 0.1178 0.0
O327 O 0.52829 0.52655 0.13151 0.0
O328 O 0.56181 0.59361 0.1326 0.0
C329 C 0.52589 0.55966 0.13669 0.0
C330 C 0.65899 0.55949 0.13708 0.0
C331 C 0.48226 0.55896 0.13692 0.0
C332 C 0.40325 0.51961 0.13769 0.0
C333 C 0.44294 0.52164 0.13492 0.0
C334 C 0.43801 0.59219 0.14495 0.0
C335 C 0.39841 0.55465 0.14295 0.0
C336 C 0.47794 0.59418 0.14216 0.0
C337 C 0.5971 0.56731 0.05213 0.0
C338 C 0.61108 0.60892 0.01977 0.0
C339 C 0.59061 0.53639 0.0169 0.0
C340 C 0.58768 0.53272 0.03919 0.0
C341 C 0.60298 0.57482 0.00667 0.0
C342 C 0.60847 0.60531 0.04192 0.0
C343 C 0.59558 0.56443 0.076 0.0
O344 O 0.65752 0.59351 0.1328 0.0
O345 O 0.6233 0.52644 0.13183 0.0
O346 O 0.57807 0.52902 0.08654 0.0
O347 O 0.61184 0.59768 0.08806 0.0
H348 H 0.67487 0.49227 0.13286 0.0
H349 H 0.73752 0.48846 0.13784 0.0
H350 H 0.80755 0.62048 0.14971 0.0
H351 H 0.74357 0.62375 0.14488 0.0
H352 H 0.37607 0.48915 0.13588 0.0
H353 H 0.44253 0.49289 0.13151 0.0
H354 H 0.4386 0.62078 0.14895 0.0
H355 H 0.50596 0.62396 0.14457 0.0
H356 H 0.61952 0.63891 0.01295 0.0
H357 H 0.5842 0.50925 0.00774 0.0
H358 H 0.57868 0.5028 0.04631 0.0
H359 H 0.61545 0.63263 0.0511 0.0
H360 H 0.19906 0.50335 0.15178 0.0
H361 H 0.25343 0.6324 0.16939 0.0
H362 H 0.32307 0.64199 0.16483 0.0
H363 H 0.37233 0.61488 0.15575 0.0
H364 H 0.31646 0.48544 0.13783 0.0
H365 H 0.24813 0.47658 0.14257 0.0
C366 C 0.22579 0.53386 0.15472 0.0
C367 C 0.21823 0.56695 0.16119 0.0
C368 C 0.26773 0.53969 0.15195 0.0
C369 C 0.25563 0.60562 0.16455 0.0
C370 C 0.29657 0.61132 0.16187 0.0
C371 C 0.34572 0.58436 0.15276 0.0
C372 C 0.35334 0.55111 0.14626 0.0
C373 C 0.30375 0.57874 0.15554 0.0
C374 C 0.31547 0.51264 0.14285 0.0
C375 C 0.27473 0.50717 0.14558 0.0
H376 H 0.76524 0.16963 0.50618 0.0
H377 H 0.68162 0.2103 0.48502 0.0
H378 H 0.74098 0.27887 0.47631 0.0
H379 H 0.81903 0.33112 0.47437 0.0
H380 H 0.90233 0.28989 0.49567 0.0
H381 H 0.84321 0.22177 0.50412 0.0
C382 C 0.75937 0.1932 0.49978 0.0
C383 C 0.71645 0.18225 0.49672 0.0
C384 C 0.79508 0.23452 0.49455 0.0
C385 C 0.71244 0.21545 0.48808 0.0
C386 C 0.74724 0.25572 0.48295 0.0
C387 C 0.82501 0.3077 0.48087 0.0
C388 C 0.86807 0.3186 0.48371 0.0
C389 C 0.78921 0.26636 0.48609 0.0
C390 C 0.87181 0.28517 0.49238 0.0
C391 C 0.83698 0.24501 0.49756 0.0
H392 H 0.53884 0.67526 0.83044 0.0
H393 H 0.67198 0.72971 0.82745 0.0
H394 H 0.68005 0.79809 0.82082 0.0
H395 H 0.65105 0.84637 0.81531 0.0
H396 H 0.51784 0.79237 0.81866 0.0
H397 H 0.50971 0.72424 0.82517 0.0
C398 C 0.56992 0.70176 0.82841 0.0
C399 C 0.60474 0.69455 0.82975 0.0
C400 C 0.57492 0.74323 0.82435 0.0
C401 C 0.64394 0.73161 0.82678 0.0
C402 C 0.64881 0.77188 0.82286 0.0
C403 C 0.61985 0.82022 0.81744 0.0
C404 C 0.58532 0.82789 0.81591 0.0
C405 C 0.61475 0.7788 0.82153 0.0
C406 C 0.54598 0.79077 0.81902 0.0
C407 C 0.54098 0.75037 0.82302 0.0
H408 H 0.93054 0.50496 0.15237 0.0
H409 H 1.00158 0.63126 0.17491 0.0
H410 H 0.94121 0.63986 0.17029 0.0
H411 H 0.86578 0.61305 0.15971 0.0
H412 H 0.79521 0.48674 0.13673 0.0
H413 H 0.85491 0.47819 0.14173 0.0
C414 C 0.93343 0.53463 0.15641 0.0
C415 C 0.9733 0.56733 0.16428 0.0
C416 C 0.897 0.53993 0.15359 0.0
C417 C 0.97333 0.60484 0.16898 0.0
C418 C 0.93788 0.61 0.16626 0.0
C419 C 0.8626 0.5833 0.15564 0.0
C420 C 0.82253 0.55072 0.14774 0.0
C421 C 0.89901 0.57798 0.15851 0.0
C422 C 0.82278 0.51321 0.143 0.0
C423 C 0.85818 0.50801 0.14582 0.0
H424 H 0.43453 0.95035 0.48537 0.0
H425 H 0.50712 0.89629 0.50591 0.0
H426 H 0.44687 0.82625 0.50082 0.0
H427 H 0.3708 0.77683 0.4905 0.0
H428 H 0.29998 0.83286 0.46922 0.0
H429 H 0.35957 0.90143 0.47471 0.0
C430 C 0.43778 0.92358 0.48885 0.0
C431 C 0.47777 0.93119 0.49628 0.0
C432 C 0.40168 0.88163 0.48575 0.0
C433 C 0.47858 0.89388 0.50029 0.0
C434 C 0.44324 0.8528 0.49732 0.0
C435 C 0.36761 0.80357 0.48692 0.0
C436 C 0.32745 0.79611 0.47945 0.0
C437 C 0.40405 0.84558 0.49002 0.0
C438 C 0.32755 0.83396 0.47528 0.0
C439 C 0.36287 0.87473 0.47834 0.0
H440 H 0.54052 0.40134 0.83169 0.0
H441 H 0.67311 0.48389 0.82752 0.0
H442 H 0.68238 0.42422 0.82079 0.0
H443 H 0.65406 0.34616 0.81542 0.0
H444 H 0.52113 0.26404 0.81994 0.0
H445 H 0.51239 0.32341 0.82662 0.0
C446 C 0.57175 0.40692 0.8294 0.0
C447 C 0.60598 0.44969 0.83045 0.0
C448 C 0.57735 0.37101 0.82524 0.0
C449 C 0.6455 0.45324 0.82711 0.0
C450 C 0.65101 0.41823 0.82313 0.0
C451 C 0.62281 0.34041 0.81783 0.0
C452 C 0.58846 0.29754 0.8165 0.0
C453 C 0.61734 0.37644 0.82205 0.0
C454 C 0.54906 0.29433 0.82003 0.0
C455 C 0.54372 0.32934 0.82416 0.0
H456 H 0.59743 0.81963 0.48932 0.0
H457 H 0.51914 0.79741 0.54363 0.0
H458 H 0.49926 0.72369 0.54368 0.0
H459 H 0.51479 0.67005 0.53233 0.0
H460 H 0.60206 0.69696 0.48142 0.0
H461 H 0.60539 0.76302 0.47499 0.0
C462 C 0.57505 0.79831 0.50076 0.0
C463 C 0.56011 0.81368 0.51662 0.0
C464 C 0.56529 0.75667 0.50121 0.0
C465 C 0.53141 0.78607 0.53149 0.0
C466 C 0.52006 0.74406 0.53149 0.0
C467 C 0.53412 0.69013 0.51964 0.0
C468 C 0.5591 0.67899 0.50787 0.0
C469 C 0.5385 0.7296 0.51707 0.0
C470 C 0.58255 0.70452 0.49087 0.0
C471 C 0.58505 0.7428 0.48737 0.0
H472 H 0.7559 0.47344 0.8391 0.0
H473 H 0.86696 0.58241 0.81609 0.0
H474 H 0.90571 0.54598 0.8195 0.0
H475 H 0.91058 0.48778 0.83395 0.0
H476 H 0.80186 0.38131 0.8603 0.0
H477 H 0.75948 0.41224 0.85075 0.0
C478 C 0.78856 0.48917 0.83477 0.0
C479 C 0.80864 0.5308 0.82764 0.0
C480 C 0.81106 0.46859 0.83752 0.0
C481 C 0.85066 0.55035 0.82154 0.0
C482 C 0.87296 0.52965 0.82364 0.0
C483 C 0.87734 0.47068 0.83699 0.0
C484 C 0.85922 0.43229 0.84773 0.0
C485 C 0.85379 0.48934 0.83224 0.0
C486 C 0.81634 0.41093 0.85203 0.0
C487 C 0.79227 0.42869 0.84668 0.0
H488 H 0.31449 0.82962 0.15964 0.0
H489 H 0.3678 0.76292 0.18919 0.0
H490 H 0.4255 0.82853 0.20232 0.0
H491 H 0.44715 0.89967 0.21385 0.0
H492 H 0.38606 0.96256 0.1883 0.0
H493 H 0.34588 0.90432 0.16473 0.0
C494 C 0.33985 0.82966 0.16804 0.0
C495 C 0.33654 0.79171 0.17404 0.0
C496 C 0.37085 0.86688 0.17683 0.0
C497 C 0.36959 0.79198 0.18477 0.0
C498 C 0.40217 0.82938 0.19251 0.0
C499 C 0.42554 0.90083 0.20284 0.0
C500 C 0.41845 0.93457 0.20332 0.0
C501 C 0.40096 0.86631 0.19012 0.0
C502 C 0.3917 0.93666 0.18844 0.0
C503 C 0.3685 0.90323 0.17502 0.0
H504 H 0.61244 0.31823 0.4834 0.0
H505 H 0.70809 0.29585 0.50678 0.0
H506 H 0.74911 0.36822 0.51808 0.0
H507 H 0.75014 0.43253 0.52796 0.0
H508 H 0.65203 0.45303 0.50657 0.0
H509 H 0.62045 0.38756 0.48727 0.0
C510 C 0.64292 0.32962 0.49028 0.0
C511 C 0.65689 0.3017 0.49466 0.0
C512 C 0.6657 0.37092 0.49735 0.0
C513 C 0.69644 0.31676 0.50359 0.0
C514 C 0.71983 0.35806 0.51013 0.0
C515 C 0.72249 0.42309 0.51858 0.0
C516 C 0.70309 0.44709 0.51896 0.0
C517 C 0.70362 0.38467 0.50816 0.0
C518 C 0.66764 0.43508 0.50651 0.0
C519 C 0.64924 0.39737 0.49564 0.0
H520 H 0.32684 0.52242 0.83087 0.0
H521 H 0.40659 0.64123 0.86031 0.0
H522 H 0.34567 0.64409 0.87235 0.0
H523 H 0.27116 0.6049 0.88124 0.0
H524 H 0.19284 0.48366 0.85373 0.0
H525 H 0.25157 0.49034 0.83355 0.0
C526 C 0.331 0.5498 0.83914 0.0
C527 C 0.37098 0.58105 0.8452 0.0
C528 C 0.29598 0.55041 0.84666 0.0
C529 C 0.3759 0.61634 0.85591 0.0
C530 C 0.34113 0.61788 0.86287 0.0
C531 C 0.2669 0.58042 0.87045 0.0
C532 C 0.22812 0.54347 0.86934 0.0
C533 C 0.30115 0.58377 0.8595 0.0
C534 C 0.22249 0.51236 0.85494 0.0
C535 C 0.25615 0.51598 0.84352 0.0
H536 H 0.85113 0.35794 0.19998 0.0
H537 H 0.83165 0.34687 0.13283 0.0
H538 H 0.75618 0.31065 0.13846 0.0
H539 H 0.69606 0.28216 0.16276 0.0
H540 H 0.71781 0.29357 0.22988 0.0
H541 H 0.79233 0.33184 0.22385 0.0
C542 C 0.83045 0.34818 0.18653 0.0
C543 C 0.84684 0.35528 0.16604 0.0
C544 C 0.78759 0.32821 0.18987 0.0
C545 C 0.81964 0.34141 0.14878 0.0
C546 C 0.7766 0.32108 0.15199 0.0
C547 C 0.71715 0.29325 0.17604 0.0
C548 C 0.70122 0.28532 0.19672 0.0
C549 C 0.76025 0.31435 0.17251 0.0
C550 C 0.72899 0.3001 0.21378 0.0
C551 C 0.77172 0.32148 0.21038 0.0
H552 H 0.09852 0.51918 0.11417 0.0
H553 H 1.06202 0.61165 0.10606 0.0
H554 H 1.03152 0.58202 0.07198 0.0
H555 H 1.01482 0.52971 0.04458 0.0
H556 H 1.05023 0.43643 0.05252 0.0
H557 H 0.08128 0.46623 0.08664 0.0
C558 C 0.08385 0.53272 0.1049 0.0
C559 C 0.08232 0.56735 0.11258 0.0
C560 C 0.06597 0.51525 0.08539 0.0
C561 C 0.06359 0.58496 0.10042 0.0
C562 C 1.04599 0.56795 0.08098 0.0
C563 C 1.02883 0.51557 0.05392 0.0
C564 C 1.03001 0.48081 0.04615 0.0
C565 C 1.04676 0.53296 0.07338 0.0
C566 C 1.04909 0.46333 0.05818 0.0
C567 C 0.06681 0.48032 0.07767 0.0
H568 H 0.54891 1.04215 0.44708 0.0
H569 H 0.68308 0.10754 0.44715 0.0
H570 H 0.68499 0.14164 0.41398 0.0
H571 H 0.64883 0.15281 0.38504 0.0
H572 H 0.51455 0.08421 0.38334 0.0
H573 H 0.51239 0.05246 0.41735 0.0
C574 C 0.57844 0.0638 0.43973 0.0
C575 C 0.61575 0.07226 0.44938 0.0
C576 C 0.57933 0.08307 0.42054 0.0
C577 C 0.65394 0.10028 0.43984 0.0
C578 C 0.65508 0.11996 0.42095 0.0
C579 C 0.61903 0.13059 0.39195 0.0
C580 C 0.58196 0.12094 0.38156 0.0
C581 C 0.61799 0.11148 0.41114 0.0
C582 C 0.54364 0.09279 0.39109 0.0
C583 C 0.54234 0.07425 0.41046 0.0
H584 H 0.57036 0.50906 0.76797 0.0
H585 H 0.64087 0.63898 0.78516 0.0
H586 H 0.65862 0.65862 0.74819 0.0
H587 H 0.65136 0.63883 0.71079 0.0
H588 H 0.58201 0.50875 0.69384 0.0
H589 H 0.5667 0.48905 0.73091 0.0
C590 C 0.58977 0.54162 0.76358 0.0
C591 C 0.60396 0.57258 0.77909 0.0
C592 C 0.59997 0.55261 0.74238 0.0
C593 C 0.62948 0.61465 0.77337 0.0
C594 C 0.63955 0.62589 0.75227 0.0
C595 C 0.63303 0.60623 0.7153 0.0
C596 C 0.61771 0.57527 0.69973 0.0
C597 C 0.62451 0.59516 0.73662 0.0
C598 C 0.59436 0.53306 0.70565 0.0
C599 C 0.58544 0.5218 0.72679 0.0
H600 H 0.52445 1.03201 0.57583 0.0
H601 H 0.65683 0.10159 0.56528 0.0
H602 H 0.66863 0.10711 0.60347 0.0
H603 H 0.64117 0.09358 0.64041 0.0
H604 H 0.50819 1.01928 0.65004 0.0
H605 H 0.49742 1.01502 0.61233 0.0
C606 C 0.55598 0.04834 0.58183 0.0
C607 C 0.58965 0.06654 0.56737 0.0
C608 C 0.5626 0.051 0.60399 0.0
C609 C 0.63018 0.08724 0.57575 0.0
C610 C 0.63694 0.09047 0.59774 0.0
C611 C 0.60973 0.07607 0.63444 0.0
C612 C 0.57566 0.05775 0.6489 0.0
C613 C 0.60338 0.07262 0.61214 0.0
C614 C 0.53541 1.03532 0.64006 0.0
C615 C 0.52901 1.03232 0.61817 0.0
H616 H 0.65457 0.63322 0.91085 0.0
H617 H 0.55686 0.50767 0.89796 0.0
H618 H 0.54406 0.49422 0.93601 0.0
H619 H 0.56077 0.51864 0.97354 0.0
H620 H 0.66121 0.64418 0.98505 0.0
H621 H 0.67213 0.65665 0.94749 0.0
C622 C 0.63036 0.60279 0.91626 0.0
C623 C 0.60674 0.57157 0.90123 0.0
C624 C 0.62342 0.59519 0.93824 0.0
C625 C 0.57565 0.53243 0.9089 0.0
C626 C 0.56834 0.52474 0.93079 0.0
C627 C 0.58525 0.54871 0.96793 0.0
C628 C 0.60945 0.58057 0.98279 0.0
C629 C 0.59209 0.55589 0.94574 0.0
C630 C 0.64091 0.61916 0.9746 0.0
C631 C 0.64761 0.62638 0.95286 0.0
H632 H 0.09906 0.50016 0.24071 0.0
H633 H 0.07544 0.6009 0.23004 0.0
H634 H 0.07625 0.61206 0.26824 0.0
H635 H 0.08429 0.59339 0.30527 0.0
H636 H 0.10538 0.49033 0.31488 0.0
H637 H 0.10523 0.4806 0.27712 0.0
C638 C 0.09406 0.52464 0.24665 0.0
C639 C 0.08721 0.54961 0.23216 0.0
C640 C 0.09432 0.53075 0.26879 0.0
C641 C 0.08076 0.58105 0.24054 0.0
C642 C 0.08124 0.58745 0.26252 0.0
C643 C 0.08862 0.56858 0.29923 0.0
C644 C 0.09565 0.54326 0.31362 0.0
C645 C 0.08798 0.56248 0.27694 0.0
C646 C 0.10118 0.51145 0.30482 0.0
C647 C 0.1007 0.50544 0.28296 0.0
loop_
_geom_bond_atom_site_label_1
_geom_bond_atom_site_label_2
_geom_bond_distance
_geom_bond_site_symmetry_2
_ccdc_geom_bond_type
Tb0 C2 2.809 . S
Tb0 O20 2.484 . S
Tb0 O21 2.440 . S
Tb0 O22 2.658 . S
Tb0 O23 2.409 . S
Tb0 O24 2.378 . S
Tb0 O28 2.325 . S
Tb0 O31 2.341 1_455 S
Tb1 C11 2.809 . S
Tb1 O22 2.325 1_655 S
Tb1 O25 2.341 1_655 S
Tb1 O26 2.484 . S
Tb1 O27 2.440 . S
Tb1 O28 2.658 1_655 S
Tb1 O29 2.409 1_655 S
Tb1 O30 2.378 . S
C2 Tb0 2.809 . S
C2 C3 1.514 . S
C2 O20 1.248 . S
C2 O21 1.266 . S
C3 C2 1.514 . S
C3 C4 1.359 . S
C3 C8 1.348 . S
C4 C3 1.359 . S
C4 C5 1.380 . S
C4 H32 0.929 . S
C5 C4 1.380 . S
C5 C6 1.347 . S
C5 H33 0.931 . S
C6 C5 1.347 . S
C6 C7 1.369 . S
C7 C6 1.369 . S
C7 C8 1.408 . S
C7 H34 0.930 . S
C8 C3 1.348 . S
C8 C7 1.408 . S
C8 H35 0.930 . S
C9 O22 1.281 . S
C9 O23 1.254 . S
C10 O24 1.236 . S
C10 O25 1.266 . S
C11 Tb1 2.809 . S
C11 C12 1.514 . S
C11 O26 1.248 . S
C11 O27 1.266 . S
C12 C11 1.514 . S
C12 C13 1.359 . S
C12 C17 1.348 . S
C13 C12 1.359 . S
C13 C14 1.380 . S
C13 H36 0.929 . S
C14 C13 1.380 . S
C14 C15 1.347 . S
C14 H37 0.931 . S
C15 C14 1.347 . S
C15 C16 1.369 . S
C16 C15 1.369 . S
C16 C17 1.408 . S
C16 H38 0.930 . S
C17 C12 1.348 . S
C17 C16 1.408 . S
C17 H39 0.930 . S
C18 O28 1.281 . S
C18 O29 1.254 . S
C19 O30 1.236 . S
C19 O31 1.266 . S
O20 Tb0 2.484 . S
O20 C2 1.248 . S
O21 Tb0 2.440 . S
O21 C2 1.266 . S
O22 Tb0 2.658 . S
O22 Tb1 2.325 1_455 S
O22 C9 1.281 . S
O23 Tb0 2.409 . S
O23 C9 1.254 . S
O24 Tb0 2.378 . S
O24 C10 1.236 . S
O25 Tb1 2.341 1_455 S
O25 C10 1.266 . S
O26 Tb1 2.484 . S
O26 C11 1.248 . S
O27 Tb1 2.440 . S
O27 C11 1.266 . S
O28 Tb0 2.325 . S
O28 Tb1 2.658 1_455 S
O28 C18 1.281 . S
O29 Tb1 2.409 1_455 S
O29 C18 1.254 . S
O30 Tb1 2.378 . S
O30 C19 1.236 . S
O31 Tb0 2.341 1_655 S
O31 C19 1.266 . S
H32 C4 0.929 . S
H33 C5 0.931 . S
H34 C7 0.930 . S
H35 C8 0.930 . S
H36 C13 0.929 . S
H37 C14 0.931 . S
H38 C16 0.930 . S
H39 C17 0.930 . S
Tb40 C42 2.809 . S
Tb40 O60 2.484 . S
Tb40 O61 2.440 . S
Tb40 O62 2.658 1_565 S
Tb40 O63 2.409 1_565 S
Tb40 O64 2.378 . S
Tb40 O68 2.325 1_565 S
Tb40 O71 2.341 1_565 S
Tb41 C51 2.809 . S
Tb41 O62 2.325 . S
Tb41 O65 2.341 1_545 S
Tb41 O66 2.484 . S
Tb41 O67 2.440 . S
Tb41 O68 2.658 . S
Tb41 O69 2.409 . S
Tb41 O70 2.378 . S
C42 Tb40 2.809 . S
C42 C43 1.514 . S
C42 O60 1.248 . S
C42 O61 1.266 . S
C43 C42 1.514 . S
C43 C44 1.359 . S
C43 C48 1.348 . S
C44 C43 1.359 . S
C44 C45 1.380 . S
C44 H72 0.929 . S
C45 C44 1.380 . S
C45 C46 1.347 . S
C45 H73 0.931 . S
C46 C45 1.347 . S
C46 C47 1.369 . S
C47 C46 1.369 . S
C47 C48 1.408 . S
C47 H74 0.930 . S
C48 C43 1.348 . S
C48 C47 1.408 . S
C48 H75 0.930 . S
C49 O62 1.281 . S
C49 O63 1.254 . S
C50 O64 1.236 . S
C50 O65 1.266 . S
C51 Tb41 2.809 . S
C51 C52 1.514 . S
C51 O66 1.248 . S
C51 O67 1.266 . S
C52 C51 1.514 . S
C52 C53 1.359 . S
C52 C57 1.348 . S
C53 C52 1.359 . S
C53 C54 1.380 . S
C53 H76 0.929 . S
C54 C53 1.380 . S
C54 C55 1.347 . S
C54 H77 0.931 . S
C55 C54 1.347 . S
C55 C56 1.369 . S
C56 C55 1.369 . S
C56 C57 1.408 . S
C56 H78 0.930 . S
C57 C52 1.348 . S
C57 C56 1.408 . S
C57 H79 0.930 . S
C58 O68 1.281 . S
C58 O69 1.254 . S
C59 O70 1.236 . S
C59 O71 1.266 . S
O60 Tb40 2.484 . S
O60 C42 1.248 . S
O61 Tb40 2.440 . S
O61 C42 1.266 . S
O62 Tb40 2.658 1_545 S
O62 Tb41 2.325 . S
O62 C49 1.281 . S
O63 Tb40 2.409 1_545 S
O63 C49 1.254 . S
O64 Tb40 2.378 . S
O64 C50 1.236 . S
O65 Tb41 2.341 1_565 S
O65 C50 1.266 . S
O66 Tb41 2.484 . S
O66 C51 1.248 . S
O67 Tb41 2.440 . S
O67 C51 1.266 . S
O68 Tb40 2.325 1_545 S
O68 Tb41 2.658 . S
O68 C58 1.281 . S
O69 Tb41 2.409 . S
O69 C58 1.254 . S
O70 Tb41 2.378 . S
O70 C59 1.236 . S
O71 Tb40 2.341 1_545 S
O71 C59 1.266 . S
H72 C44 0.929 . S
H73 C45 0.931 . S
H74 C47 0.930 . S
H75 C48 0.930 . S
H76 C53 0.929 . S
H77 C54 0.931 . S
H78 C56 0.930 . S
H79 C57 0.930 . S
Tb80 C82 2.809 . S
Tb80 O100 2.484 . S
Tb80 O101 2.440 . S
Tb80 O102 2.658 . S
Tb80 O103 2.409 . S
Tb80 O104 2.378 . S
Tb80 O108 2.325 . S
Tb80 O111 2.341 . S
Tb81 C91 2.809 . S
Tb81 O102 2.325 . S
Tb81 O105 2.341 . S
Tb81 O106 2.484 . S
Tb81 O107 2.440 . S
Tb81 O108 2.658 . S
Tb81 O109 2.409 . S
Tb81 O110 2.378 . S
C82 Tb80 2.809 . S
C82 C83 1.514 . S
C82 O100 1.248 . S
C82 O101 1.266 . S
C83 C82 1.514 . S
C83 C84 1.359 . S
C83 C88 1.348 . S
C84 C83 1.359 . S
C84 C85 1.380 . S
C84 H112 0.929 . S
C85 C84 1.380 . S
C85 C86 1.347 . S
C85 H113 0.931 . S
C86 C85 1.347 . S
C86 C87 1.369 . S
C87 C86 1.369 . S
C87 C88 1.408 . S
C87 H114 0.930 . S
C88 C83 1.348 . S
C88 C87 1.408 . S
C88 H115 0.930 . S
C89 O102 1.281 . S
C89 O103 1.254 . S
C90 O104 1.236 . S
C90 O105 1.266 . S
C91 Tb81 2.809 . S
C91 C92 1.514 . S
C91 O106 1.248 . S
C91 O107 1.266 . S
C92 C91 1.514 . S
C92 C93 1.359 . S
C92 C97 1.348 . S
C93 C92 1.359 . S
C93 C94 1.380 . S
C93 H116 0.929 . S
C94 C93 1.380 . S
C94 C95 1.347 . S
C94 H117 0.931 . S
C95 C94 1.347 . S
C95 C96 1.369 . S
C96 C95 1.369 . S
C96 C97 1.408 . S
C96 H118 0.930 . S
C97 C92 1.348 . S
C97 C96 1.408 . S
C97 H119 0.930 . S
C98 O108 1.281 . S
C98 O109 1.254 . S
C99 O110 1.236 . S
C99 O111 1.266 . S
O100 Tb80 2.484 . S
O100 C82 1.248 . S
O101 Tb80 2.440 . S
O101 C82 1.266 . S
O102 Tb80 2.658 . S
O102 Tb81 2.325 . S
O102 C89 1.281 . S
O103 Tb80 2.409 . S
O103 C89 1.254 . S
O104 Tb80 2.378 . S
O104 C90 1.236 . S
O105 Tb81 2.341 . S
O105 C90 1.266 . S
O106 Tb81 2.484 . S
O106 C91 1.248 . S
O107 Tb81 2.440 . S
O107 C91 1.266 . S
O108 Tb80 2.325 . S
O108 Tb81 2.658 . S
O108 C98 1.281 . S
O109 Tb81 2.409 . S
O109 C98 1.254 . S
O110 Tb81 2.378 . S
O110 C99 1.236 . S
O111 Tb80 2.341 . S
O111 C99 1.266 . S
H112 C84 0.929 . S
H113 C85 0.931 . S
H114 C87 0.930 . S
H115 C88 0.930 . S
H116 C93 0.929 . S
H117 C94 0.931 . S
H118 C96 0.930 . S
H119 C97 0.930 . S
C120 C121 1.264 . S
C120 C125 1.479 . S
C120 C130 1.465 . S
C121 C120 1.264 . S
C121 C123 1.339 . S
C121 H148 0.931 . S
C122 C123 1.395 . S
C122 C124 1.320 . S
C123 C121 1.339 . S
C123 C122 1.395 . S
C123 H149 0.929 . S
C124 C122 1.320 . S
C124 C125 1.405 . S
C124 H150 0.930 . S
C125 C120 1.479 . S
C125 C124 1.405 . S
C125 H151 0.931 . S
U126 O127 2.454 . S
U126 O128 2.458 1_545 S
U126 C129 2.984 1_545 S
U126 C130 2.847 . S
U126 C143 2.882 . S
U126 O144 2.441 . S
U126 O145 2.420 . S
U126 O146 2.455 . S
U126 O147 2.449 . S
O127 U126 2.454 . S
O127 C129 1.353 1_545 S
O128 U126 2.458 1_565 S
O128 C129 1.286 . S
C129 U126 2.984 1_565 S
C129 O127 1.353 1_565 S
C129 O128 1.286 . S
C129 C131 1.363 . S
C130 C120 1.465 . S
C130 U126 2.847 . S
C130 O144 1.249 . S
C130 O145 1.202 . S
C131 C129 1.363 . S
C131 C133 1.408 . S
C131 C136 1.342 . S
C132 C133 1.310 . S
C132 C135 1.461 . S
C132 H152 0.932 . S
C133 C131 1.408 . S
C133 C132 1.310 . S
C133 H153 0.930 . S
C134 C135 1.474 . S
C134 C136 1.285 . S
C134 H154 0.929 . S
C135 C132 1.461 . S
C135 C134 1.474 . S
C136 C131 1.342 . S
C136 C134 1.285 . S
C136 H155 0.930 . S
C137 C140 1.424 . S
C137 C142 1.245 . S
C137 C143 1.428 . S
C138 C141 1.260 . S
C138 C142 1.477 . S
C138 H156 0.932 . S
C139 C140 1.384 . S
C139 C141 1.479 . S
C139 H157 0.929 . S
C140 C137 1.424 . S
C140 C139 1.384 . S
C140 H158 0.928 . S
C141 C138 1.260 . S
C141 C139 1.479 . S
C142 C137 1.245 . S
C142 C138 1.477 . S
C142 H159 0.932 1_545 S
C143 U126 2.882 . S
C143 C137 1.428 . S
C143 O146 1.301 . S
C143 O147 1.282 . S
O144 U126 2.441 . S
O144 C130 1.249 . S
O145 U126 2.420 . S
O145 C130 1.202 . S
O146 U126 2.455 . S
O146 C143 1.301 . S
O147 U126 2.449 . S
O147 C143 1.282 . S
H148 C121 0.931 . S
H149 C123 0.929 . S
H150 C124 0.930 . S
H151 C125 0.931 . S
H152 C132 0.932 . S
H153 C133 0.930 . S
H154 C134 0.929 . S
H155 C136 0.930 . S
H156 C138 0.932 . S
H157 C139 0.929 . S
H158 C140 0.928 . S
H159 C142 0.932 1_565 S
C160 C161 1.264 . S
C160 C165 1.479 . S
C160 C170 1.465 . S
C161 C160 1.264 . S
C161 C163 1.339 . S
C161 H188 0.931 . S
C162 C163 1.395 . S
C162 C164 1.320 . S
C163 C161 1.339 . S
C163 C162 1.395 . S
C163 H189 0.929 . S
C164 C162 1.320 . S
C164 C165 1.405 . S
C164 H190 0.930 . S
C165 C160 1.479 . S
C165 C164 1.405 . S
C165 H191 0.931 . S
U166 O167 2.454 . S
U166 O168 2.458 . S
U166 C169 2.984 . S
U166 C170 2.847 . S
U166 C183 2.882 . S
U166 O184 2.441 . S
U166 O185 2.420 . S
U166 O186 2.455 . S
U166 O187 2.449 . S
O167 U166 2.454 . S
O167 C169 1.353 . S
O168 U166 2.458 . S
O168 C169 1.286 . S
C169 U166 2.984 . S
C169 O167 1.353 . S
C169 O168 1.286 . S
C169 C171 1.363 . S
C170 C160 1.465 . S
C170 U166 2.847 . S
C170 O184 1.249 . S
C170 O185 1.202 . S
C171 C169 1.363 . S
C171 C173 1.408 . S
C171 C176 1.342 . S
C172 C173 1.310 . S
C172 C175 1.461 . S
C172 H192 0.932 . S
C173 C171 1.408 . S
C173 C172 1.310 . S
C173 H193 0.930 . S
C174 C175 1.474 . S
C174 C176 1.285 . S
C174 H194 0.929 . S
C175 C172 1.461 . S
C175 C174 1.474 . S
C176 C171 1.342 . S
C176 C174 1.285 . S
C176 H195 0.930 . S
C177 C180 1.424 . S
C177 C182 1.245 . S
C177 C183 1.428 . S
C178 C181 1.260 . S
C178 C182 1.477 . S
C178 H196 0.932 . S
C179 C180 1.384 . S
C179 C181 1.479 . S
C179 H197 0.929 . S
C180 C177 1.424 . S
C180 C179 1.384 . S
C180 H198 0.928 . S
C181 C178 1.260 . S
C181 C179 1.479 . S
C182 C177 1.245 . S
C182 C178 1.477 . S
C182 H199 0.932 . S
C183 U166 2.882 . S
C183 C177 1.428 . S
C183 O186 1.301 . S
C183 O187 1.282 . S
O184 U166 2.441 . S
O184 C170 1.249 . S
O185 U166 2.420 . S
O185 C170 1.202 . S
O186 U166 2.455 . S
O186 C183 1.301 . S
O187 U166 2.449 . S
O187 C183 1.282 . S
H188 C161 0.931 . S
H189 C163 0.929 . S
H190 C164 0.930 . S
H191 C165 0.931 . S
H192 C172 0.932 . S
H193 C173 0.930 . S
H194 C174 0.929 . S
H195 C176 0.930 . S
H196 C178 0.932 . S
H197 C179 0.929 . S
H198 C180 0.928 . S
H199 C182 0.932 . S
C200 C201 1.264 . S
C200 C205 1.479 . S
C200 C210 1.465 . S
C201 C200 1.264 . S
C201 C203 1.339 . S
C201 H228 0.931 . S
C202 C203 1.395 . S
C202 C204 1.320 . S
C203 C201 1.339 . S
C203 C202 1.395 . S
C203 H229 0.929 . S
C204 C202 1.320 . S
C204 C205 1.405 . S
C204 H230 0.930 . S
C205 C200 1.479 . S
C205 C204 1.405 . S
C205 H231 0.931 . S
U206 O207 2.454 1_655 S
U206 O208 2.458 1_655 S
U206 C209 2.984 1_655 S
U206 C210 2.847 . S
U206 C223 2.882 . S
U206 O224 2.441 . S
U206 O225 2.420 . S
U206 O226 2.455 1_655 S
U206 O227 2.449 . S
O207 U206 2.454 1_455 S
O207 C209 1.353 . S
O208 U206 2.458 1_455 S
O208 C209 1.286 . S
C209 U206 2.984 1_455 S
C209 O207 1.353 . S
C209 O208 1.286 . S
C209 C211 1.363 . S
C210 C200 1.465 . S
C210 U206 2.847 . S
C210 O224 1.249 . S
C210 O225 1.202 . S
C211 C209 1.363 . S
C211 C213 1.408 . S
C211 C216 1.342 . S
C212 C213 1.310 . S
C212 C215 1.461 . S
C212 H232 0.932 . S
C213 C211 1.408 . S
C213 C212 1.310 . S
C213 H233 0.930 . S
C214 C215 1.474 . S
C214 C216 1.285 . S
C214 H234 0.929 . S
C215 C212 1.461 . S
C215 C214 1.474 . S
C216 C211 1.342 . S
C216 C214 1.285 . S
C216 H235 0.930 . S
C217 C220 1.424 . S
C217 C222 1.245 1_655 S
C217 C223 1.428 . S
C218 C221 1.260 . S
C218 C222 1.477 1_554 S
C218 H236 0.932 . S
C219 C220 1.384 1_554 S
C219 C221 1.479 1_655 S
C219 H237 0.929 . S
C220 C217 1.424 . S
C220 C219 1.384 1_556 S
C220 H238 0.928 . S
C221 C218 1.260 . S
C221 C219 1.479 1_455 S
C222 C217 1.245 1_455 S
C222 C218 1.477 1_556 S
C222 H239 0.932 . S
C223 U206 2.882 . S
C223 C217 1.428 . S
C223 O226 1.301 1_655 S
C223 O227 1.282 . S
O224 U206 2.441 . S
O224 C210 1.249 . S
O225 U206 2.420 . S
O225 C210 1.202 . S
O226 U206 2.455 1_455 S
O226 C223 1.301 1_455 S
O227 U206 2.449 . S
O227 C223 1.282 . S
H228 C201 0.931 . S
H229 C203 0.929 . S
H230 C204 0.930 . S
H231 C205 0.931 . S
H232 C212 0.932 . S
H233 C213 0.930 . S
H234 C214 0.929 . S
H235 C216 0.930 . S
H236 C218 0.932 . S
H237 C219 0.929 . S
H238 C220 0.928 . S
H239 C222 0.932 . S
C240 C241 1.264 . S
C240 C245 1.479 . S
C240 C250 1.465 . S
C241 C240 1.264 . S
C241 C243 1.339 . S
C241 H268 0.931 . S
C242 C243 1.395 . S
C242 C244 1.320 . S
C243 C241 1.339 . S
C243 C242 1.395 . S
C243 H269 0.929 . S
C244 C242 1.320 . S
C244 C245 1.405 . S
C244 H270 0.930 . S
C245 C240 1.479 . S
C245 C244 1.405 . S
C245 H271 0.931 . S
U246 O247 2.454 . S
U246 O248 2.458 . S
U246 C249 2.984 . S
U246 C250 2.847 1_455 S
U246 C263 2.882 . S
U246 O264 2.441 . S
U246 O265 2.420 1_455 S
U246 O266 2.455 . S
U246 O267 2.449 . S
O247 U246 2.454 . S
O247 C249 1.353 . S
O248 U246 2.458 . S
O248 C249 1.286 . S
C249 U246 2.984 . S
C249 O247 1.353 . S
C249 O248 1.286 . S
C249 C251 1.363 . S
C250 C240 1.465 . S
C250 U246 2.847 1_655 S
C250 O264 1.249 1_655 S
C250 O265 1.202 . S
C251 C249 1.363 . S
C251 C253 1.408 . S
C251 C256 1.342 . S
C252 C253 1.310 . S
C252 C255 1.461 . S
C252 H272 0.932 . S
C253 C251 1.408 . S
C253 C252 1.310 . S
C253 H273 0.930 . S
C254 C255 1.474 . S
C254 C256 1.285 . S
C254 H274 0.929 . S
C255 C252 1.461 . S
C255 C254 1.474 . S
C256 C251 1.342 . S
C256 C254 1.285 . S
C256 H275 0.930 . S
C257 C260 1.424 . S
C257 C262 1.245 . S
C257 C263 1.428 . S
C258 C261 1.260 . S
C258 C262 1.477 . S
C258 H276 0.932 . S
C259 C260 1.384 . S
C259 C261 1.479 . S
C259 H277 0.929 1_455 S
C260 C257 1.424 . S
C260 C259 1.384 . S
C260 H278 0.928 1_455 S
C261 C258 1.260 . S
C261 C259 1.479 . S
C262 C257 1.245 . S
C262 C258 1.477 . S
C262 H279 0.932 . S
C263 U246 2.882 . S
C263 C257 1.428 . S
C263 O266 1.301 . S
C263 O267 1.282 . S
O264 U246 2.441 . S
O264 C250 1.249 1_455 S
O265 U246 2.420 1_655 S
O265 C250 1.202 . S
O266 U246 2.455 . S
O266 C263 1.301 . S
O267 U246 2.449 . S
O267 C263 1.282 . S
H268 C241 0.931 . S
H269 C243 0.929 . S
H270 C244 0.930 . S
H271 C245 0.931 . S
H272 C252 0.932 . S
H273 C253 0.930 . S
H274 C254 0.929 . S
H275 C256 0.930 . S
H276 C258 0.932 . S
H277 C259 0.929 1_655 S
H278 C260 0.928 1_655 S
H279 C262 0.932 . S
C280 C281 1.264 . S
C280 C285 1.479 . S
C280 C290 1.465 . S
C281 C280 1.264 . S
C281 C283 1.339 . S
C281 H308 0.931 . S
C282 C283 1.395 . S
C282 C284 1.320 . S
C283 C281 1.339 . S
C283 C282 1.395 . S
C283 H309 0.929 . S
C284 C282 1.320 . S
C284 C285 1.405 . S
C284 H310 0.930 . S
C285 C280 1.479 . S
C285 C284 1.405 . S
C285 H311 0.931 . S
U286 O287 2.454 1_565 S
U286 O288 2.458 1_565 S
U286 C289 2.984 1_565 S
U286 C290 2.847 . S
U286 C303 2.882 . S
U286 O304 2.441 . S
U286 O305 2.420 . S
U286 O306 2.455 1_565 S
U286 O307 2.449 . S
O287 U286 2.454 1_545 S
O287 C289 1.353 . S
O288 U286 2.458 1_545 S
O288 C289 1.286 . S
C289 U286 2.984 1_545 S
C289 O287 1.353 . S
C289 O288 1.286 . S
C289 C291 1.363 . S
C290 C280 1.465 . S
C290 U286 2.847 . S
C290 O304 1.249 . S
C290 O305 1.202 . S
C291 C289 1.363 . S
C291 C293 1.408 . S
C291 C296 1.342 . S
C292 C293 1.310 . S
C292 C295 1.461 . S
C292 H312 0.932 . S
C293 C291 1.408 . S
C293 C292 1.310 . S
C293 H313 0.930 . S
C294 C295 1.474 . S
C294 C296 1.285 . S
C294 H314 0.929 . S
C295 C292 1.461 . S
C295 C294 1.474 . S
C296 C291 1.342 . S
C296 C294 1.285 . S
C296 H315 0.930 . S
C297 C300 1.424 . S
C297 C302 1.245 1_565 S
C297 C303 1.428 . S
C298 C301 1.260 . S
C298 C302 1.477 . S
C298 H316 0.932 . S
C299 C300 1.384 . S
C299 C301 1.479 1_565 S
C299 H317 0.929 . S
C300 C297 1.424 . S
C300 C299 1.384 . S
C300 H318 0.928 . S
C301 C298 1.260 . S
C301 C299 1.479 1_545 S
C302 C297 1.245 1_545 S
C302 C298 1.477 . S
C302 H319 0.932 . S
C303 U286 2.882 . S
C303 C297 1.428 . S
C303 O306 1.301 1_565 S
C303 O307 1.282 . S
O304 U286 2.441 . S
O304 C290 1.249 . S
O305 U286 2.420 . S
O305 C290 1.202 . S
O306 U286 2.455 1_545 S
O306 C303 1.301 1_545 S
O307 U286 2.449 . S
O307 C303 1.282 . S
H308 C281 0.931 . S
H309 C283 0.929 . S
H310 C284 0.930 . S
H311 C285 0.931 . S
H312 C292 0.932 . S
H313 C293 0.930 . S
H314 C294 0.929 . S
H315 C296 0.930 . S
H316 C298 0.932 . S
H317 C299 0.929 . S
H318 C300 0.928 . S
H319 C302 0.932 . S
C320 C321 1.264 . S
C320 C325 1.479 . S
C320 C330 1.465 . S
C321 C320 1.264 . S
C321 C323 1.339 . S
C321 H348 0.931 . S
C322 C323 1.395 . S
C322 C324 1.320 . S
C323 C321 1.339 . S
C323 C322 1.395 . S
C323 H349 0.929 . S
C324 C322 1.320 . S
C324 C325 1.405 . S
C324 H350 0.930 . S
C325 C320 1.479 . S
C325 C324 1.405 . S
C325 H351 0.931 . S
U326 O327 2.454 . S
U326 O328 2.458 . S
U326 C329 2.984 . S
U326 C330 2.847 . S
U326 C343 2.882 . S
U326 O344 2.441 . S
U326 O345 2.420 . S
U326 O346 2.455 . S
U326 O347 2.449 . S
O327 U326 2.454 . S
O327 C329 1.353 . S
O328 U326 2.458 . S
O328 C329 1.286 . S
C329 U326 2.984 . S
C329 O327 1.353 . S
C329 O328 1.286 . S
C329 C331 1.363 . S
C330 C320 1.465 . S
C330 U326 2.847 . S
C330 O344 1.249 . S
C330 O345 1.202 . S
C331 C329 1.363 . S
C331 C333 1.408 . S
C331 C336 1.342 . S
C332 C333 1.310 . S
C332 C335 1.461 . S
C332 H352 0.932 . S
C333 C331 1.408 . S
C333 C332 1.310 . S
C333 H353 0.930 . S
C334 C335 1.474 . S
C334 C336 1.285 . S
C334 H354 0.929 . S
C335 C332 1.461 . S
C335 C334 1.474 . S
C336 C331 1.342 . S
C336 C334 1.285 . S
C336 H355 0.930 . S
C337 C340 1.424 . S
C337 C342 1.245 . S
C337 C343 1.428 . S
C338 C341 1.260 . S
C338 C342 1.477 . S
C338 H356 0.932 . S
C339 C340 1.384 . S
C339 C341 1.479 . S
C339 H357 0.929 . S
C340 C337 1.424 . S
C340 C339 1.384 . S
C340 H358 0.928 . S
C341 C338 1.260 . S
C341 C339 1.479 . S
C342 C337 1.245 . S
C342 C338 1.477 . S
C342 H359 0.932 . S
C343 U326 2.882 . S
C343 C337 1.428 . S
C343 O346 1.301 . S
C343 O347 1.282 . S
O344 U326 2.441 . S
O344 C330 1.249 . S
O345 U326 2.420 . S
O345 C330 1.202 . S
O346 U326 2.455 . S
O346 C343 1.301 . S
O347 U326 2.449 . S
O347 C343 1.282 . S
H348 C321 0.931 . S
H349 C323 0.929 . S
H350 C324 0.930 . S
H351 C325 0.931 . S
H352 C332 0.932 . S
H353 C333 0.930 . S
H354 C334 0.929 . S
H355 C336 0.930 . S
H356 C338 0.932 . S
H357 C339 0.929 . S
H358 C340 0.928 . S
H359 C342 0.932 . S
H360 C366 0.930 . S
H361 C369 0.930 . S
H362 C370 0.930 . S
H363 C371 0.930 . S
H364 C374 0.930 . S
H365 C375 0.930 . S
C366 H360 0.930 . S
C366 C367 1.355 . S
C366 C368 1.415 . S
C367 C366 1.355 . S
C367 C369 1.419 . S
C368 C366 1.415 . S
C368 C373 1.425 . S
C368 C375 1.409 . S
C369 H361 0.930 . S
C369 C367 1.419 . S
C369 C370 1.362 . S
C370 H362 0.930 . S
C370 C369 1.362 . S
C370 C373 1.409 . S
C371 H363 0.930 . S
C371 C372 1.355 . S
C371 C373 1.415 . S
C372 C371 1.355 . S
C372 C374 1.419 . S
C373 C368 1.425 . S
C373 C370 1.409 . S
C373 C371 1.415 . S
C374 H364 0.930 . S
C374 C372 1.419 . S
C374 C375 1.362 . S
C375 H365 0.930 . S
C375 C368 1.409 . S
C375 C374 1.362 . S
H376 C382 0.930 . S
H377 C385 0.930 . S
H378 C386 0.930 . S
H379 C387 0.930 . S
H380 C390 0.930 . S
H381 C391 0.930 . S
C382 H376 0.930 . S
C382 C383 1.355 . S
C382 C384 1.415 . S
C383 C382 1.355 . S
C383 C385 1.419 . S
C384 C382 1.415 . S
C384 C389 1.425 . S
C384 C391 1.409 . S
C385 H377 0.930 . S
C385 C383 1.419 . S
C385 C386 1.362 . S
C386 H378 0.930 . S
C386 C385 1.362 . S
C386 C389 1.409 . S
C387 H379 0.930 . S
C387 C388 1.355 . S
C387 C389 1.415 . S
C388 C387 1.355 . S
C388 C390 1.419 . S
C389 C384 1.425 . S
C389 C386 1.409 . S
C389 C387 1.415 . S
C390 H380 0.930 . S
C390 C388 1.419 . S
C390 C391 1.362 . S
C391 H381 0.930 . S
C391 C384 1.409 . S
C391 C390 1.362 . S
H392 C398 0.930 . S
H393 C401 0.930 . S
H394 C402 0.930 . S
H395 C403 0.930 . S
H396 C406 0.930 . S
H397 C407 0.930 . S
C398 H392 0.930 . S
C398 C399 1.355 . S
C398 C400 1.415 . S
C399 C398 1.355 . S
C399 C401 1.419 . S
C400 C398 1.415 . S
C400 C405 1.425 . S
C400 C407 1.409 . S
C401 H393 0.930 . S
C401 C399 1.419 . S
C401 C402 1.362 . S
C402 H394 0.930 . S
C402 C401 1.362 . S
C402 C405 1.409 . S
C403 H395 0.930 . S
C403 C404 1.355 . S
C403 C405 1.415 . S
C404 C403 1.355 . S
C404 C406 1.419 . S
C405 C400 1.425 . S
C405 C402 1.409 . S
C405 C403 1.415 . S
C406 H396 0.930 . S
C406 C404 1.419 . S
C406 C407 1.362 . S
C407 H397 0.930 . S
C407 C400 1.409 . S
C407 C406 1.362 . S
H408 C414 0.930 . S
H409 C417 0.930 . S
H410 C418 0.930 . S
H411 C419 0.930 . S
H412 C422 0.930 . S
H413 C423 0.930 . S
C414 H408 0.930 . S
C414 C415 1.355 . S
C414 C416 1.415 . S
C415 C414 1.355 . S
C415 C417 1.419 . S
C416 C414 1.415 . S
C416 C421 1.425 . S
C416 C423 1.409 . S
C417 H409 0.930 . S
C417 C415 1.419 . S
C417 C418 1.362 . S
C418 H410 0.930 . S
C418 C417 1.362 . S
C418 C421 1.409 . S
C419 H411 0.930 . S
C419 C420 1.355 . S
C419 C421 1.415 . S
C420 C419 1.355 . S
C420 C422 1.419 . S
C421 C416 1.425 . S
C421 C418 1.409 . S
C421 C419 1.415 . S
C422 H412 0.930 . S
C422 C420 1.419 . S
C422 C423 1.362 . S
C423 H413 0.930 . S
C423 C416 1.409 . S
C423 C422 1.362 . S
H424 C430 0.930 . S
H425 C433 0.930 . S
H426 C434 0.930 . S
H427 C435 0.930 . S
H428 C438 0.930 . S
H429 C439 0.930 . S
C430 H424 0.930 . S
C430 C431 1.355 . S
C430 C432 1.415 . S
C431 C430 1.355 . S
C431 C433 1.419 . S
C432 C430 1.415 . S
C432 C437 1.425 . S
C432 C439 1.409 . S
C433 H425 0.930 . S
C433 C431 1.419 . S
C433 C434 1.362 . S
C434 H426 0.930 . S
C434 C433 1.362 . S
C434 C437 1.409 . S
C435 H427 0.930 . S
C435 C436 1.355 . S
C435 C437 1.415 . S
C436 C435 1.355 . S
C436 C438 1.419 . S
C437 C432 1.425 . S
C437 C434 1.409 . S
C437 C435 1.415 . S
C438 H428 0.930 . S
C438 C436 1.419 . S
C438 C439 1.362 . S
C439 H429 0.930 . S
C439 C432 1.409 . S
C439 C438 1.362 . S
H440 C446 0.930 . S
H441 C449 0.930 . S
H442 C450 0.930 . S
H443 C451 0.930 . S
H444 C454 0.930 . S
H445 C455 0.930 . S
C446 H440 0.930 . S
C446 C447 1.355 . S
C446 C448 1.415 . S
C447 C446 1.355 . S
C447 C449 1.419 . S
C448 C446 1.415 . S
C448 C453 1.425 . S
C448 C455 1.409 . S
C449 H441 0.930 . S
C449 C447 1.419 . S
C449 C450 1.362 . S
C450 H442 0.930 . S
C450 C449 1.362 . S
C450 C453 1.409 . S
C451 H443 0.930 . S
C451 C452 1.355 . S
C451 C453 1.415 . S
C452 C451 1.355 . S
C452 C454 1.419 . S
C453 C448 1.425 . S
C453 C450 1.409 . S
C453 C451 1.415 . S
C454 H444 0.930 . S
C454 C452 1.419 . S
C454 C455 1.362 . S
C455 H445 0.930 . S
C455 C448 1.409 . S
C455 C454 1.362 . S
H456 C462 0.930 . S
H457 C465 0.930 . S
H458 C466 0.930 . S
H459 C467 0.930 . S
H460 C470 0.930 . S
H461 C471 0.930 . S
C462 H456 0.930 . S
C462 C463 1.355 . S
C462 C464 1.415 . S
C463 C462 1.355 . S
C463 C465 1.419 . S
C464 C462 1.415 . S
C464 C469 1.425 . S
C464 C471 1.409 . S
C465 H457 0.930 . S
C465 C463 1.419 . S
C465 C466 1.362 . S
C466 H458 0.930 . S
C466 C465 1.362 . S
C466 C469 1.409 . S
C467 H459 0.930 . S
C467 C468 1.355 . S
C467 C469 1.415 . S
C468 C467 1.355 . S
C468 C470 1.419 . S
C469 C464 1.425 . S
C469 C466 1.409 . S
C469 C467 1.415 . S
C470 H460 0.930 . S
C470 C468 1.419 . S
C470 C471 1.362 . S
C471 H461 0.930 . S
C471 C464 1.409 . S
C471 C470 1.362 . S
H472 C478 0.930 . S
H473 C481 0.930 . S
H474 C482 0.930 . S
H475 C483 0.930 . S
H476 C486 0.930 . S
H477 C487 0.930 . S
C478 H472 0.930 . S
C478 C479 1.355 . S
C478 C480 1.415 . S
C479 C478 1.355 . S
C479 C481 1.419 . S
C480 C478 1.415 . S
C480 C485 1.425 . S
C480 C487 1.409 . S
C481 H473 0.930 . S
C481 C479 1.419 . S
C481 C482 1.362 . S
C482 H474 0.930 . S
C482 C481 1.362 . S
C482 C485 1.409 . S
C483 H475 0.930 . S
C483 C484 1.355 . S
C483 C485 1.415 . S
C484 C483 1.355 . S
C484 C486 1.419 . S
C485 C480 1.425 . S
C485 C482 1.409 . S
C485 C483 1.415 . S
C486 H476 0.930 . S
C486 C484 1.419 . S
C486 C487 1.362 . S
C487 H477 0.930 . S
C487 C480 1.409 . S
C487 C486 1.362 . S
H488 C494 0.930 . S
H489 C497 0.930 . S
H490 C498 0.930 . S
H491 C499 0.930 . S
H492 C502 0.930 . S
H493 C503 0.930 . S
C494 H488 0.930 . S
C494 C495 1.355 . S
C494 C496 1.415 . S
C495 C494 1.355 . S
C495 C497 1.419 . S
C496 C494 1.415 . S
C496 C501 1.425 . S
C496 C503 1.409 . S
C497 H489 0.930 . S
C497 C495 1.419 . S
C497 C498 1.362 . S
C498 H490 0.930 . S
C498 C497 1.362 . S
C498 C501 1.409 . S
C499 H491 0.930 . S
C499 C500 1.355 . S
C499 C501 1.415 . S
C500 C499 1.355 . S
C500 C502 1.419 . S
C501 C496 1.425 . S
C501 C498 1.409 . S
C501 C499 1.415 . S
C502 H492 0.930 . S
C502 C500 1.419 . S
C502 C503 1.362 . S
C503 H493 0.930 . S
C503 C496 1.409 . S
C503 C502 1.362 . S
H504 C510 0.930 . S
H505 C513 0.930 . S
H506 C514 0.930 . S
H507 C515 0.930 . S
H508 C518 0.930 . S
H509 C519 0.930 . S
C510 H504 0.930 . S
C510 C511 1.355 . S
C510 C512 1.415 . S
C511 C510 1.355 . S
C511 C513 1.419 . S
C512 C510 1.415 . S
C512 C517 1.425 . S
C512 C519 1.409 . S
C513 H505 0.930 . S
C513 C511 1.419 . S
C513 C514 1.362 . S
C514 H506 0.930 . S
C514 C513 1.362 . S
C514 C517 1.409 . S
C515 H507 0.930 . S
C515 C516 1.355 . S
C515 C517 1.415 . S
C516 C515 1.355 . S
C516 C518 1.419 . S
C517 C512 1.425 . S
C517 C514 1.409 . S
C517 C515 1.415 . S
C518 H508 0.930 . S
C518 C516 1.419 . S
C518 C519 1.362 . S
C519 H509 0.930 . S
C519 C512 1.409 . S
C519 C518 1.362 . S
H520 C526 0.930 . S
H521 C529 0.930 . S
H522 C530 0.930 . S
H523 C531 0.930 . S
H524 C534 0.930 . S
H525 C535 0.930 . S
C526 H520 0.930 . S
C526 C527 1.355 . S
C526 C528 1.415 . S
C527 C526 1.355 . S
C527 C529 1.419 . S
C528 C526 1.415 . S
C528 C533 1.425 . S
C528 C535 1.409 . S
C529 H521 0.930 . S
C529 C527 1.419 . S
C529 C530 1.362 . S
C530 H522 0.930 . S
C530 C529 1.362 . S
C530 C533 1.409 . S
C531 H523 0.930 . S
C531 C532 1.355 . S
C531 C533 1.415 . S
C532 C531 1.355 . S
C532 C534 1.419 . S
C533 C528 1.425 . S
C533 C530 1.409 . S
C533 C531 1.415 . S
C534 H524 0.930 . S
C534 C532 1.419 . S
C534 C535 1.362 . S
C535 H525 0.930 . S
C535 C528 1.409 . S
C535 C534 1.362 . S
H536 C542 0.930 . S
H537 C545 0.930 . S
H538 C546 0.930 . S
H539 C547 0.930 . S
H540 C550 0.930 . S
H541 C551 0.930 . S
C542 H536 0.930 . S
C542 C543 1.355 . S
C542 C544 1.415 . S
C543 C542 1.355 . S
C543 C545 1.419 . S
C544 C542 1.415 . S
C544 C549 1.425 . S
C544 C551 1.409 . S
C545 H537 0.930 . S
C545 C543 1.419 . S
C545 C546 1.362 . S
C546 H538 0.930 . S
C546 C545 1.362 . S
C546 C549 1.409 . S
C547 H539 0.930 . S
C547 C548 1.355 . S
C547 C549 1.415 . S
C548 C547 1.355 . S
C548 C550 1.419 . S
C549 C544 1.425 . S
C549 C546 1.409 . S
C549 C547 1.415 . S
C550 H540 0.930 . S
C550 C548 1.419 . S
C550 C551 1.362 . S
C551 H541 0.930 . S
C551 C544 1.409 . S
C551 C550 1.362 . S
H552 C558 0.930 . S
H553 C561 0.930 . S
H554 C562 0.930 . S
H555 C563 0.930 . S
H556 C566 0.930 . S
H557 C567 0.930 . S
C558 H552 0.930 . S
C558 C559 1.355 . S
C558 C560 1.415 . S
C559 C558 1.355 . S
C559 C561 1.419 1_455 S
C560 C558 1.415 . S
C560 C565 1.414 1_455 S
C560 C567 1.409 . S
C561 H553 0.930 . S
C561 C559 1.419 1_655 S
C561 C562 1.362 . S
C562 H554 0.930 . S
C562 C561 1.362 . S
C562 C565 1.418 . S
C563 H555 0.930 . S
C563 C564 1.355 1_655 S
C563 C565 1.416 . S
C564 C563 1.355 1_455 S
C564 C566 1.419 . S
C565 C560 1.414 1_655 S
C565 C562 1.418 . S
C565 C563 1.416 . S
C566 H556 0.930 . S
C566 C564 1.419 . S
C566 C567 1.362 . S
C567 H557 0.930 . S
C567 C560 1.409 . S
C567 C566 1.362 . S
H568 C574 0.930 1_565 S
H569 C577 0.930 . S
H570 C578 0.930 . S
H571 C579 0.930 . S
H572 C582 0.930 1_565 S
H573 C583 0.930 . S
C574 H568 0.930 1_545 S
C574 C575 1.355 . S
C574 C576 1.415 . S
C575 C574 1.355 . S
C575 C577 1.419 . S
C576 C574 1.415 . S
C576 C581 1.425 . S
C576 C583 1.409 1_545 S
C577 H569 0.930 . S
C577 C575 1.419 . S
C577 C578 1.362 . S
C578 H570 0.930 . S
C578 C577 1.362 . S
C578 C581 1.409 . S
C579 H571 0.930 . S
C579 C580 1.355 . S
C579 C581 1.415 . S
C580 C579 1.355 . S
C580 C582 1.419 . S
C581 C576 1.425 . S
C581 C578 1.409 . S
C581 C579 1.415 . S
C582 H572 0.930 1_545 S
C582 C580 1.419 . S
C582 C583 1.362 1_545 S
C583 H573 0.930 . S
C583 C576 1.409 1_565 S
C583 C582 1.362 1_565 S
H584 C590 0.930 . S
H585 C593 0.930 . S
H586 C594 0.930 . S
H587 C595 0.930 . S
H588 C598 0.930 . S
H589 C599 0.930 . S
C590 H584 0.930 . S
C590 C591 1.355 . S
C590 C592 1.415 . S
C591 C590 1.355 . S
C591 C593 1.419 . S
C592 C590 1.415 . S
C592 C597 1.425 . S
C592 C599 1.409 . S
C593 H585 0.930 . S
C593 C591 1.419 . S
C593 C594 1.362 . S
C594 H586 0.930 . S
C594 C593 1.362 . S
C594 C597 1.409 . S
C595 H587 0.930 . S
C595 C596 1.355 . S
C595 C597 1.415 . S
C596 C595 1.355 . S
C596 C598 1.419 . S
C597 C592 1.425 . S
C597 C594 1.409 . S
C597 C595 1.415 . S
C598 H588 0.930 . S
C598 C596 1.419 . S
C598 C599 1.362 . S
C599 H589 0.930 . S
C599 C592 1.409 . S
C599 C598 1.362 . S
H600 C606 0.930 . S
H601 C609 0.930 . S
H602 C610 0.930 . S
H603 C611 0.930 . S
H604 C614 0.930 . S
H605 C615 0.930 . S
C606 H600 0.930 . S
C606 C607 1.355 . S
C606 C608 1.415 . S
C607 C606 1.355 . S
C607 C609 1.419 1_545 S
C608 C606 1.415 . S
C608 C613 1.425 . S
C608 C615 1.409 . S
C609 H601 0.930 . S
C609 C607 1.419 1_565 S
C609 C610 1.362 . S
C610 H602 0.930 . S
C610 C609 1.362 . S
C610 C613 1.409 1_565 S
C611 H603 0.930 . S
C611 C612 1.355 1_565 S
C611 C613 1.415 1_565 S
C612 C611 1.355 1_545 S
C612 C614 1.419 . S
C613 C608 1.425 . S
C613 C610 1.409 1_545 S
C613 C611 1.415 1_545 S
C614 H604 0.930 . S
C614 C612 1.419 . S
C614 C615 1.362 . S
C615 H605 0.930 . S
C615 C608 1.409 . S
C615 C614 1.362 . S
H616 C622 0.930 . S
H617 C625 0.930 . S
H618 C626 0.930 . S
H619 C627 0.930 . S
H620 C630 0.930 . S
H621 C631 0.930 . S
C622 H616 0.930 . S
C622 C623 1.355 . S
C622 C624 1.415 . S
C623 C622 1.355 . S
C623 C625 1.419 . S
C624 C622 1.415 . S
C624 C629 1.425 . S
C624 C631 1.409 . S
C625 H617 0.930 . S
C625 C623 1.419 . S
C625 C626 1.362 . S
C626 H618 0.930 . S
C626 C625 1.362 . S
C626 C629 1.409 . S
C627 H619 0.930 . S
C627 C628 1.355 . S
C627 C629 1.415 . S
C628 C627 1.355 . S
C628 C630 1.419 . S
C629 C624 1.425 . S
C629 C626 1.409 . S
C629 C627 1.415 . S
C630 H620 0.930 . S
C630 C628 1.419 . S
C630 C631 1.362 . S
C631 H621 0.930 . S
C631 C624 1.409 . S
C631 C630 1.362 . S
H632 C638 0.930 . S
H633 C641 0.930 . S
H634 C642 0.930 . S
H635 C643 0.930 1_655 S
H636 C646 0.930 . S
H637 C647 0.930 . S
C638 H632 0.930 . S
C638 C639 1.355 . S
C638 C640 1.415 . S
C639 C638 1.355 . S
C639 C641 1.419 1_455 S
C640 C638 1.415 . S
C640 C645 1.425 . S
C640 C647 1.409 . S
C641 H633 0.930 . S
C641 C639 1.419 1_655 S
C641 C642 1.362 . S
C642 H634 0.930 . S
C642 C641 1.362 . S
C642 C645 1.409 1_655 S
C643 H635 0.930 1_455 S
C643 C644 1.355 . S
C643 C645 1.415 . S
C644 C643 1.355 . S
C644 C646 1.419 . S
C645 C640 1.425 . S
C645 C642 1.409 1_455 S
C645 C643 1.415 . S
C646 H636 0.930 . S
C646 C644 1.419 . S
C646 C647 1.362 . S
C647 H637 0.930 . S
C647 C640 1.409 . S
C647 C646 1.362 . S
C367 C10 3.126 . S
C372 C335 3.076 . S
C383 C59 3.176 . S
C388 C242 3.136 . S
C399 C90 3.106 . S
C404 C282 3.057 . S
C415 C19 3.169 . S
C420 C322 3.122 . S
C436 C255 3.055 . S
C431 C50 3.137 . S
C452 C295 3.144 . S
C447 C99 3.202 . S
C463 C46 0.520 . S
C468 C162 0.594 . S
C479 C95 0.443 . S
C484 C202 0.290 . S
C495 C6 0.580 . S
C500 C135 0.491 . S
C516 C175 0.320 . S
C511 C55 0.450 . S
C532 C215 0.575 . S
C527 C86 0.598 . S
C543 C15 0.488 . S
C548 C122 0.347 . S
C564 C221 1.078 . S
C559 C9 1.037 . S
C575 C49 1.051 . S
C580 C141 1.083 . S
C591 C89 1.086 . S
C596 C181 1.039 . S
C612 C301 1.770 . S
C607 C58 1.740 . S
C628 C341 1.774 1_556 S
C623 C98 1.682 . S
C639 C18 1.686 . S
C644 C261 1.778 . S
