# Generated by pormake.
# Topology zzz, (3,6)-cn, num edge types: 1
# Building blocks:
#     Node 0, Type 0, BuildingBlock: WUSLED_clean_sbu_0, # of connection points: 3
#     Node 1, Type 0, BuildingBlock: WUSLED_clean_sbu_0, # of connection points: 3
#     Node 2, Type 0, BuildingBlock: WUSLED_clean_sbu_0, # of connection points: 3
#     Node 3, Type 0, BuildingBlock: WUSLED_clean_sbu_0, # of connection points: 3
#     Node 4, Type 0, BuildingBlock: WUSLED_clean_sbu_0, # of connection points: 3
#     Node 5, Type 0, BuildingBlock: WUSLED_clean_sbu_0, # of connection points: 3
#     Node 6, Type 0, BuildingBlock: WUSLED_clean_sbu_0, # of connection points: 3
#     Node 7, Type 0, BuildingBlock: WUSLED_clean_sbu_0, # of connection points: 3
#     Node 8, Type 1, BuildingBlock: NUHQIS_clean_sbu_0, # of connection points: 6
#     Node 9, Type 1, BuildingBlock: NUHQIS_clean_sbu_0, # of connection points: 6
#     Node 10, Type 1, BuildingBlock: NUHQIS_clean_sbu_0, # of connection points: 6
#     Node 11, Type 1, BuildingBlock: NUHQIS_clean_sbu_0, # of connection points: 6
#     Edge 12, Type (0, 1), BuildingBlock: KIFKEQ_clean_linker_1, # of connection points: 2
#     Edge 13, Type (0, 1), BuildingBlock: KIFKEQ_clean_linker_1, # of connection points: 2
#     Edge 14, Type (0, 1), BuildingBlock: KIFKEQ_clean_linker_1, # of connection points: 2
#     Edge 15, Type (0, 1), BuildingBlock: KIFKEQ_clean_linker_1, # of connection points: 2
#     Edge 16, Type (0, 1), BuildingBlock: KIFKEQ_clean_linker_1, # of connection points: 2
#     Edge 17, Type (0, 1), BuildingBlock: KIFKEQ_clean_linker_1, # of connection points: 2
#     Edge 18, Type (0, 1), BuildingBlock: KIFKEQ_clean_linker_1, # of connection points: 2
#     Edge 19, Type (0, 1), BuildingBlock: KIFKEQ_clean_linker_1, # of connection points: 2
#     Edge 20, Type (0, 1), BuildingBlock: KIFKEQ_clean_linker_1, # of connection points: 2
#     Edge 21, Type (0, 1), BuildingBlock: KIFKEQ_clean_linker_1, # of connection points: 2
#     Edge 22, Type (0, 1), BuildingBlock: KIFKEQ_clean_linker_1, # of connection points: 2
#     Edge 23, Type (0, 1), BuildingBlock: KIFKEQ_clean_linker_1, # of connection points: 2
#     Edge 24, Type (0, 1), BuildingBlock: KIFKEQ_clean_linker_1, # of connection points: 2
#     Edge 25, Type (0, 1), BuildingBlock: KIFKEQ_clean_linker_1, # of connection points: 2
#     Edge 26, Type (0, 1), BuildingBlock: KIFKEQ_clean_linker_1, # of connection points: 2
#     Edge 27, Type (0, 1), BuildingBlock: KIFKEQ_clean_linker_1, # of connection points: 2
#     Edge 28, Type (0, 1), BuildingBlock: KIFKEQ_clean_linker_1, # of connection points: 2
#     Edge 29, Type (0, 1), BuildingBlock: KIFKEQ_clean_linker_1, # of connection points: 2
#     Edge 30, Type (0, 1), BuildingBlock: KIFKEQ_clean_linker_1, # of connection points: 2
#     Edge 31, Type (0, 1), BuildingBlock: KIFKEQ_clean_linker_1, # of connection points: 2
#     Edge 32, Type (0, 1), BuildingBlock: KIFKEQ_clean_linker_1, # of connection points: 2
#     Edge 33, Type (0, 1), BuildingBlock: KIFKEQ_clean_linker_1, # of connection points: 2
#     Edge 34, Type (0, 1), BuildingBlock: KIFKEQ_clean_linker_1, # of connection points: 2
#     Edge 35, Type (0, 1), BuildingBlock: KIFKEQ_clean_linker_1, # of connection points: 2
# Relax obj value: 0.389
# Max RMSD: 0.249
# Mean RMSD: 0.226
data_MOF--net-zzz--node1-WUSLED_clean_sbu_0--node2-NUHQIS_clean_sbu_0--edge1-KIFKEQ_clean_linker_1
_symmetry_space_group_name_H-M    P1
_symmetry_Int_Tables_number       1
_symmetry_cell_setting            triclinic
loop_
_symmetry_equiv_pos_as_xyz
'x, y, z'
_cell_length_a     64.620643
_cell_length_b     64.623339
_cell_length_c     20.415421
_cell_angle_alpha  89.906668
_cell_angle_beta   89.906027
_cell_angle_gamma 89.997153
loop_
_atom_site_label
_atom_site_type_symbol
_atom_site_fract_x
_atom_site_fract_y
_atom_site_fract_z
_atom_type_partial_charge
C0 C 0.78779 0.53338 0.42755 0.0
C1 C 0.79564 0.5134 0.43943 0.0
C2 C 0.82868 0.52783 0.47623 0.0
C3 C 0.81585 0.51067 0.46334 0.0
C4 C 0.82069 0.54777 0.46424 0.0
C5 C 0.80056 0.55047 0.44028 0.0
U6 U 0.74187 0.52441 0.30876 0.0
O7 O 0.70826 0.52236 0.32741 0.0
O8 O 0.72071 0.54779 0.26822 0.0
C9 C 0.70403 0.53829 0.28956 0.0
C10 C 0.76629 0.537 0.40397 0.0
C11 C 0.68753 0.53527 0.24033 0.0
C12 C 0.65273 0.54306 0.20172 0.0
C13 C 0.66825 0.54484 0.24926 0.0
C14 C 0.67548 0.52188 0.13559 0.0
C15 C 0.65614 0.53167 0.14391 0.0
C16 C 0.691 0.52366 0.18329 0.0
C17 C 0.7785 0.48804 0.22389 0.0
C18 C 0.80303 0.46586 0.16803 0.0
C19 C 0.81454 0.48791 0.25681 0.0
C20 C 0.79436 0.49512 0.26493 0.0
C21 C 0.81919 0.47359 0.20714 0.0
C22 C 0.78281 0.47307 0.17635 0.0
C23 C 0.75789 0.49735 0.22791 0.0
O24 O 0.76451 0.54678 0.34774 0.0
O25 O 0.75295 0.52176 0.41053 0.0
O26 O 0.74692 0.49202 0.27949 0.0
O27 O 0.75753 0.51734 0.21605 0.0
H28 H 0.78622 0.49987 0.43006 0.0
H29 H 0.82148 0.49508 0.47107 0.0
H30 H 0.82987 0.5614 0.47446 0.0
H31 H 0.79488 0.56604 0.43219 0.0
H32 H 0.6382 0.55103 0.20965 0.0
H33 H 0.66529 0.55397 0.29273 0.0
H34 H 0.67862 0.51274 0.0923 0.0
H35 H 0.70578 0.51613 0.17541 0.0
H36 H 0.80617 0.45502 0.12883 0.0
H37 H 0.82662 0.494 0.28807 0.0
H38 H 0.79123 0.50677 0.30163 0.0
H39 H 0.7707 0.46752 0.14421 0.0
C40 C 0.99471 0.78162 0.43951 0.0
C41 C 0.01417 0.79139 0.44134 0.0
C42 C 0.9988 0.82251 0.4895 0.0
C43 C 0.01618 0.8116 0.46598 0.0
C44 C 0.9794 0.81258 0.48768 0.0
C45 C 0.97741 0.79245 0.46303 0.0
U46 U 1.00395 0.73763 0.31413 0.0
O47 O 1.00871 0.70405 0.3285 0.0
O48 O 0.98124 0.71529 0.2766 0.0
C49 C 0.99238 0.69912 0.29348 0.0
C50 C 0.99193 0.76017 0.4147 0.0
C51 C 0.99541 0.68321 0.24204 0.0
C52 C 0.9964 0.64682 0.21088 0.0
C53 C 0.99481 0.66218 0.25908 0.0
C54 C 0.99952 0.67328 0.12751 0.0
C55 C 0.99857 0.65211 0.14421 0.0
C56 C 0.99801 0.68864 0.17584 0.0
C57 C 0.03615 0.77742 0.22591 0.0
C58 C 0.05838 0.80283 0.17414 0.0
C59 C 0.03408 0.81346 0.25827 0.0
C60 C 0.02756 0.793 0.26523 0.0
C61 C 0.04924 0.81866 0.21162 0.0
C62 C 0.05185 0.78234 0.18127 0.0
C63 C 0.02812 0.75627 0.22961 0.0
O64 O 0.98105 0.75827 0.36069 0.0
O65 O 1.00813 0.74785 0.41624 0.0
O66 O 0.03524 0.7451 0.27847 0.0
O67 O 1.00798 0.75473 0.22209 0.0
H68 H 0.02782 0.78348 0.42341 0.0
H69 H 0.03133 0.81876 0.46572 0.0
H70 H 0.96569 0.82025 0.50619 0.0
H71 H 0.96227 0.78526 0.46267 0.0
H72 H 0.996 0.63077 0.22606 0.0
H73 H 0.99288 0.65761 0.3098 0.0
H74 H 1.00095 0.67806 0.07685 0.0
H75 H 0.99853 0.70476 0.16132 0.0
H76 H 0.0699 0.8064 0.13721 0.0
H77 H 0.0269 0.82528 0.28825 0.0
H78 H 0.01538 0.78939 0.2999 0.0
H79 H 0.05862 0.77045 0.15062 0.0
C80 C 0.74146 0.99058 0.43387 0.0
C81 C 0.72967 1.00838 0.42062 0.0
C82 C 0.70038 0.99443 0.48332 0.0
C83 C 0.70933 1.01021 0.44453 0.0
C84 C 0.71254 0.97685 0.49734 0.0
C85 C 0.7327 0.97493 0.47262 0.0
U86 U 0.78517 0.99862 0.30571 0.0
O87 O 0.81868 1.00393 0.3195 0.0
O88 O 0.80781 0.97567 0.27127 0.0
C89 C 0.82383 0.98724 0.28649 0.0
C90 C 0.76285 0.98784 0.40853 0.0
C91 C 0.83966 0.98992 0.23445 0.0
C92 C 0.87601 0.9917 0.20275 0.0
C93 C 0.8607 0.99018 0.25129 0.0
C94 C 0.84948 0.99288 0.11935 0.0
C95 C 0.87064 0.9929 0.136 0.0
C96 C 0.83417 0.99148 0.16801 0.0
C97 C 0.74547 0.02955 0.2122 0.0
C98 C 0.72113 0.0536 0.16369 0.0
C99 C 0.70911 0.02775 0.24111 0.0
C100 C 0.72929 0.02041 0.24771 0.0
C101 C 0.70473 0.04415 0.19796 0.0
C102 C 0.74138 0.04637 0.17096 0.0
C103 C 0.76655 0.02141 0.21756 0.0
O104 O 0.76477 0.97626 0.35601 0.0
O105 O 0.77479 1.00432 0.40707 0.0
O106 O 0.77763 0.0293 0.26529 0.0
O107 O 0.76806 1.00117 0.21332 0.0
H108 H 0.73613 0.02083 0.39152 0.0
H109 H 0.70056 0.0239 0.43175 0.0
H110 H 0.70664 0.96456 0.52818 0.0
H111 H 0.74153 0.96115 0.48416 0.0
H112 H 0.8921 0.99145 0.21751 0.0
H113 H 0.86533 0.98893 0.30213 0.0
H114 H 0.84473 0.99407 0.06864 0.0
H115 H 0.81804 0.99144 0.15365 0.0
H116 H 0.71825 0.06606 0.12934 0.0
H117 H 0.6969 0.0203 0.26886 0.0
H118 H 0.73222 1.00732 0.27953 0.0
H119 H 0.75375 0.05359 0.14328 0.0
C120 C 0.53383 0.73935 0.42736 0.0
C121 C 0.51691 0.72696 0.40932 0.0
C122 C 0.52931 0.6987 0.47956 0.0
C123 C 0.51473 0.70681 0.43483 0.0
C124 C 0.54595 0.7115 0.49819 0.0
C125 C 0.54821 0.73143 0.47216 0.0
U126 U 0.52543 0.78533 0.30517 0.0
O127 O 0.52403 0.81881 0.326 0.0
O128 O 0.54953 0.8063 0.26754 0.0
C129 C 0.54017 0.82302 0.28901 0.0
C130 C 0.53707 0.76054 0.40116 0.0
C131 C 0.53744 0.83972 0.24003 0.0
C132 C 0.54578 0.87445 0.20142 0.0
C133 C 0.54761 0.8587 0.24843 0.0
C134 C 0.52341 0.85249 0.13685 0.0
C135 C 0.53369 0.87158 0.14475 0.0
C136 C 0.52527 0.83674 0.18393 0.0
C137 C 0.48745 0.75208 0.20774 0.0
C138 C 0.45964 0.73396 0.15263 0.0
C139 C 0.4855 0.71464 0.21318 0.0
C140 C 0.49529 0.73312 0.23015 0.0
C141 C 0.46786 0.71487 0.17296 0.0
C142 C 0.46936 0.75244 0.17009 0.0
C143 C 0.49858 0.77144 0.21977 0.0
O144 O 0.54692 0.76198 0.34498 0.0
O145 O 0.52155 0.77363 0.40605 0.0
O146 O 0.49314 0.78163 0.27272 0.0
O147 O 0.51872 0.7706 0.21092 0.0
H148 H 0.50542 0.73283 0.37557 0.0
H149 H 0.50177 0.69753 0.41867 0.0
H150 H 0.55725 0.70625 0.5336 0.0
H151 H 0.56128 0.74076 0.48741 0.0
H152 H 0.55369 0.88897 0.20987 0.0
H153 H 0.55709 0.86133 0.29136 0.0
H154 H 0.5142 0.84953 0.09361 0.0
H155 H 0.51737 0.82216 0.17625 0.0
H156 H 0.446 0.73455 0.1219 0.0
H157 H 0.49236 0.70015 0.22873 0.0
H158 H 0.5094 0.73256 0.25862 0.0
H159 H 0.4631 0.76698 0.15251 0.0
C160 C 0.24114 0.49039 0.97402 0.0
C161 C 0.22805 0.50604 0.99779 0.0
C162 C 0.20011 0.4946 0.92542 0.0
C163 C 0.20774 0.50802 0.97426 0.0
C164 C 0.2135 0.47915 0.90124 0.0
C165 C 0.23367 0.47702 0.92553 0.0
U166 U 0.28248 0.49671 0.10765 0.0
O167 O 0.3069 0.47518 0.13927 0.0
O168 O 0.31538 0.50555 0.09932 0.0
C169 C 0.32187 0.4885 0.12787 0.0
C170 C 0.26253 0.48775 0.99891 0.0
C171 C 0.3375 0.49106 0.18034 0.0
C172 C 0.37367 0.49516 0.21116 0.0
C173 C 0.35836 0.49346 0.16297 0.0
C174 C 0.34749 0.49218 0.29551 0.0
C175 C 0.3685 0.49447 0.27818 0.0
C176 C 0.33214 0.49056 0.2471 0.0
C177 C 0.238 0.52071 0.19772 0.0
C178 C 0.2111 0.54549 0.22446 0.0
C179 C 0.20252 0.51442 0.16395 0.0
C180 C 0.2232 0.50829 0.16635 0.0
C181 C 0.19622 0.53305 0.19323 0.0
C182 C 0.23184 0.53937 0.22654 0.0
C183 C 0.25998 0.51487 0.19721 0.0
O184 O 0.27335 0.50478 1.0069 0.0
O185 O 0.26478 0.47457 0.0475 0.0
O186 O 0.26372 0.49486 0.19724 0.0
O187 O 0.27147 0.52521 0.15527 0.0
H188 H 0.23353 0.51673 0.03466 0.0
H189 H 0.19798 0.51994 0.99504 0.0
H190 H 0.20855 0.46878 0.86275 0.0
H191 H 0.24352 0.46493 0.90601 0.0
H192 H 0.38965 0.49661 0.19576 0.0
H193 H 0.36289 0.4938 0.11185 0.0
H194 H 0.34287 0.49182 0.34651 0.0
H195 H 0.31612 0.4888 0.26182 0.0
H196 H 0.20667 0.55976 0.24845 0.0
H197 H 0.19149 0.50462 0.13888 0.0
H198 H 0.22766 0.49393 0.14287 0.0
H199 H 0.24306 0.54921 0.25062 0.0
C200 C 0.03712 0.23433 0.99344 0.0
C201 C 0.0535 0.22009 0.99021 0.0
C202 C 0.0312 0.19427 0.93866 0.0
C203 C 0.05059 0.20035 0.96347 0.0
C204 C 0.01461 0.20838 0.94354 0.0
C205 C 0.01753 0.22818 0.97054 0.0
U206 U 0.02804 0.2833 0.10149 0.0
O207 O 0.05215 0.30275 0.14576 0.0
O208 O 0.03033 0.31648 0.07618 0.0
C209 C 0.04513 0.31986 0.11901 0.0
C210 C 0.04146 0.25574 0.01639 0.0
C211 C 0.0418 0.33722 0.16504 0.0
C212 C 0.05008 0.37224 0.20053 0.0
C213 C 0.05209 0.35608 0.15514 0.0
C214 C 0.02722 0.35096 0.26614 0.0
C215 C 0.03779 0.36984 0.2571 0.0
C216 C 0.02918 0.33485 0.2206 0.0
C217 C 0.98414 0.25424 0.18604 0.0
C218 C 0.95736 0.23666 0.24782 0.0
C219 C 0.97949 0.21721 0.17421 0.0
C220 C 0.98968 0.23545 0.15656 0.0
C221 C 0.96366 0.21754 0.22164 0.0
C222 C 0.96759 0.25486 0.23024 0.0
C223 C 0.99671 0.27283 0.17618 0.0
O224 O 0.02792 0.27025 1.0018 0.0
O225 O 0.04902 0.2576 0.07583 0.0
O226 O 0.01613 0.27093 0.19417 0.0
O227 O 0.99444 0.28231 0.11966 0.0
H228 H 0.06876 0.22438 1.00744 0.0
H229 H 0.06366 0.18987 0.96207 0.0
H230 H 0.99948 0.20439 0.92471 0.0
H231 H 1.00456 0.23878 0.97224 0.0
H232 H 0.05861 0.38643 0.19213 0.0
H233 H 0.06198 0.35821 0.11275 0.0
H234 H 0.01736 0.34862 0.30847 0.0
H235 H 0.02105 0.32043 0.22917 0.0
H236 H 0.94503 0.23743 0.28372 0.0
H237 H 0.98483 0.20272 0.1536 0.0
H238 H 1.00249 0.23477 0.12228 0.0
H239 H 0.96311 0.2693 0.25318 0.0
C240 C 0.28478 0.03187 0.96587 0.0
C241 C 0.30243 0.03419 1.00553 0.0
C242 C 0.32517 0.02604 0.91311 0.0
C243 C 0.32233 0.03128 0.97951 0.0
C244 C 0.30746 0.02331 0.87394 0.0
C245 C 0.28756 0.02625 0.89996 0.0
U246 U 0.23869 0.02431 0.08564 0.0
O247 O 0.21852 0.0482 0.12828 0.0
O248 O 0.20505 0.02387 0.06708 0.0
C249 C 0.20147 0.0396 0.1063 0.0
C250 C 0.26357 0.03646 0.99066 0.0
C251 C 0.18482 0.03676 0.15536 0.0
C252 C 0.15023 0.04532 0.19448 0.0
C253 C 0.16594 0.04714 0.14735 0.0
C254 C 0.17203 0.02251 0.25835 0.0
C255 C 0.15306 0.03306 0.2509 0.0
C256 C 0.18774 0.02435 0.21111 0.0
C257 C 0.27346 0.9854 0.16804 0.0
C258 C 0.29779 0.96441 0.22909 0.0
C259 C 0.30892 0.98213 0.13031 0.0
C260 C 0.28893 0.98986 0.12189 0.0
C261 C 0.31366 0.9697 0.18486 0.0
C262 C 0.27783 0.97229 0.22083 0.0
C263 C 0.25341 0.99586 0.16437 0.0
O264 O 0.24958 0.02187 0.98322 0.0
O265 O 0.26215 0.0459 0.04751 0.0
O266 O 0.25413 0.01575 0.17742 0.0
O267 O 0.2422 0.9915 0.11253 0.0
H268 H 0.30092 0.03844 0.0566 0.0
H269 H 0.33554 0.03318 1.01154 0.0
H270 H 0.30897 0.0195 0.82252 0.0
H271 H 0.2743 0.02453 0.86806 0.0
H272 H 0.13579 0.05342 0.18637 0.0
H273 H 0.16336 0.05678 0.10467 0.0
H274 H 0.17493 0.01314 0.30136 0.0
H275 H 0.20225 0.01628 0.21843 0.0
H276 H 0.30104 0.95508 0.27199 0.0
H277 H 0.32081 0.98633 0.09525 0.0
H278 H 0.28569 0.9999 0.08068 0.0
H279 H 0.26603 0.96879 0.25696 0.0
C280 C 0.50135 0.28064 0.95041 0.0
C281 C 0.49913 0.29742 0.99363 0.0
C282 C 0.50534 0.32203 0.90433 0.0
C283 C 0.50108 0.31786 0.97086 0.0
C284 C 0.50791 0.30511 0.86161 0.0
C285 C 0.50591 0.28471 0.8844 0.0
U286 U 0.50423 0.23769 0.08115 0.0
O287 O 0.48182 0.2131 0.10446 0.0
O288 O 0.51319 0.20482 0.0729 0.0
C289 C 0.49544 0.19819 0.09651 0.0
C290 C 0.49839 0.25891 0.97244 0.0
C291 C 0.49669 0.1827 0.15 0.0
C292 C 0.4977 0.14656 0.18403 0.0
C293 C 0.49714 0.16158 0.13446 0.0
C294 C 0.49758 0.17356 0.26597 0.0
C295 C 0.49778 0.15228 0.25063 0.0
C296 C 0.49706 0.18859 0.21621 0.0
C297 C 0.5256 0.28081 0.18381 0.0
C298 C 0.52561 0.3126 0.24641 0.0
C299 C 0.53859 0.31258 0.13487 0.0
C300 C 0.53421 0.29147 0.1302 0.0
C301 C 0.53412 0.32334 0.19283 0.0
C302 C 0.52143 0.29148 0.24194 0.0
C303 C 0.51957 0.259 0.17826 0.0
O304 O 0.51531 0.24823 0.9842 0.0
O305 O 0.48384 0.25577 0.01646 0.0
O306 O 0.49961 0.25591 0.17087 0.0
O307 O 0.53105 0.24766 0.13898 0.0
H308 H 0.49571 0.29475 0.04491 0.0
H309 H 0.49932 0.33041 1.00551 0.0
H310 H 0.51096 0.30763 0.81005 0.0
H311 H 0.50765 0.27206 0.85007 0.0
H312 H 0.49825 0.13042 0.16999 0.0
H313 H 0.49697 0.15666 0.08375 0.0
H314 H 0.49743 0.17863 0.31648 0.0
H315 H 0.49675 0.20482 0.22946 0.0
H316 H 0.52227 0.32054 0.29191 0.0
H317 H 0.54501 0.32059 0.09283 0.0
H318 H 0.53724 0.28358 0.0844 0.0
H319 H 0.51467 0.28353 0.28356 0.0
Tb320 Tb 0.03006 1.00495 0.74504 0.0
Eu321 Eu 0.99375 0.01788 0.64153 0.0
C322 C 0.04149 0.01978 0.60149 0.0
C323 C 0.01615 0.05143 0.73244 0.0
C324 C 0.06005 0.98168 0.88215 0.0
C325 C 0.08178 0.96091 0.95322 0.0
C326 C 0.07972 0.97528 0.90248 0.0
C327 C 0.0424 0.97399 0.91398 0.0
C328 C 0.04444 0.95973 0.96499 0.0
C329 C 0.06414 0.95283 0.98445 0.0
C330 C 0.05812 0.99571 0.82614 0.0
O331 O 1.00178 1.00664 0.80375 0.0
O332 O 0.9777 1.00089 0.72369 0.0
O333 O 1.00315 0.98525 0.61719 0.0
O334 O 0.01615 0.9753 0.71669 0.0
C335 C 0.98279 1.00201 0.78582 0.0
O336 O 0.96269 0.02939 0.62196 0.0
O337 O 0.98208 0.01949 0.54125 0.0
O338 O 0.02366 0.02949 0.59693 0.0
O339 O 0.04513 1.00674 0.64957 0.0
O340 O 0.03193 0.0386 0.73502 0.0
O341 O 0.99843 0.04559 0.70711 0.0
C342 C 1.00918 0.9707 0.65784 0.0
O343 O 0.05596 0.98686 0.76934 0.0
O344 O 0.04537 1.01114 0.83336 0.0
C345 C 0.95891 0.04685 0.52081 0.0
C346 C 0.94906 0.08197 0.44543 0.0
C347 C 0.94797 0.06211 0.41777 0.0
C348 C 0.95277 0.04468 0.45533 0.0
C349 C 0.95986 0.06666 0.54874 0.0
C350 C 0.95486 0.08406 0.51143 0.0
C351 C 0.96481 0.02839 0.5585 0.0
H352 H 0.09712 0.95591 0.96746 0.0
H353 H 0.09348 0.98111 0.87827 0.0
H354 H 0.02707 0.97868 0.8985 0.0
H355 H 0.03057 0.95351 0.98745 0.0
H356 H 0.94351 0.0601 0.36706 0.0
H357 H 0.95198 0.0295 0.43301 0.0
H358 H 0.96476 0.06874 0.59902 0.0
H359 H 0.95617 0.09922 0.53364 0.0
Tb360 Tb 0.51794 0.02777 0.74363 0.0
Eu361 Eu 0.50506 0.99142 0.63968 0.0
C362 C 0.50483 0.03953 0.59924 0.0
C363 C 0.47127 0.01373 0.7276 0.0
C364 C 0.54168 0.05861 0.87783 0.0
C365 C 0.56308 0.08116 0.9442 0.0
C366 C 0.54842 0.0785 0.89467 0.0
C367 C 0.5495 0.04137 0.91145 0.0
C368 C 0.56399 0.04402 0.96124 0.0
C369 C 0.57103 0.06392 0.97779 0.0
C370 C 0.52665 0.05598 0.82482 0.0
O371 O 0.52872 0.99941 0.79156 0.0
O372 O 0.50727 0.9765 0.73929 0.0
O373 O 0.53974 0.9894 0.64852 0.0
O374 O 0.54628 0.02205 0.68739 0.0
C375 C 0.51962 0.9812 0.7881 0.0
O376 O 0.4864 0.96431 0.61591 0.0
O377 O 0.50963 0.97515 0.54739 0.0
O378 O 0.5085 0.02053 0.57978 0.0
O379 O 0.50338 0.04411 0.66186 0.0
O380 O 0.48651 0.01802 0.76781 0.0
O381 O 0.4751 1.00723 0.66788 0.0
C382 C 0.55251 1.00484 0.6591 0.0
O383 O 0.53424 0.05507 0.76582 0.0
O384 O 0.51257 0.04191 0.83433 0.0
C385 C 0.47954 0.95977 0.504 0.0
C386 C 0.44885 0.9548 0.40782 0.0
C387 C 0.45597 0.93767 0.44382 0.0
C388 C 0.47124 0.94015 0.49146 0.0
C389 C 0.4728 0.97686 0.46731 0.0
C390 C 0.45764 0.97436 0.4193 0.0
C391 C 0.49438 0.96231 0.55759 0.0
H392 H 0.56827 0.09664 0.95604 0.0
H393 H 0.5425 0.09195 0.86908 0.0
H394 H 0.54458 0.02587 0.89877 0.0
H395 H 0.57016 0.03042 0.98542 0.0
H396 H 0.44951 0.92242 0.43572 0.0
H397 H 0.47628 0.92682 0.5195 0.0
H398 H 0.47891 0.99218 0.47678 0.0
H399 H 0.45221 0.98788 0.39299 0.0
Tb400 Tb 0.49834 0.51724 0.75304 0.0
Eu401 Eu 0.53359 0.50533 0.64477 0.0
C402 C 0.48524 0.5037 0.61124 0.0
C403 C 0.51249 0.47056 0.73426 0.0
C404 C 0.46499 0.54482 0.87437 0.0
C405 C 0.45469 0.5597 0.97852 0.0
C406 C 0.45965 0.54244 0.94054 0.0
C407 C 0.46502 0.56466 0.84622 0.0
C408 C 0.45984 0.58188 0.88397 0.0
C409 C 0.45481 0.57958 0.95059 0.0
C410 C 0.47081 0.5265 0.83604 0.0
O411 O 0.52749 0.52806 0.796 0.0
O412 O 0.54979 0.50638 0.74207 0.0
O413 O 0.53545 0.53984 0.65855 0.0
O414 O 0.50238 0.54547 0.69452 0.0
C415 C 0.54554 0.51867 0.79143 0.0
O416 O 0.55891 0.48601 0.60907 0.0
O417 O 0.5497 0.51316 0.55429 0.0
O418 O 0.50367 0.5087 0.58944 0.0
O419 O 0.4818 0.50138 0.67431 0.0
O420 O 0.50736 0.48541 0.77516 0.0
O421 O 0.51906 0.47483 0.67472 0.0
C422 C 0.51956 0.55221 0.66706 0.0
O423 O 0.46828 0.52768 0.77286 0.0
O424 O 0.4884 0.51794 0.85119 0.0
C425 C 0.56045 0.48427 0.49457 0.0
C426 C 0.55953 0.45882 0.38313 0.0
C427 C 0.57827 0.46764 0.40429 0.0
C428 C 0.57871 0.4803 0.45974 0.0
C429 C 0.54166 0.47605 0.4726 0.0
C430 C 0.54118 0.46345 0.41732 0.0
C431 C 0.561 0.49647 0.55478 0.0
H432 H 0.45084 0.55755 0.02974 0.0
H433 H 0.45955 0.52724 0.96301 0.0
H434 H 0.46927 0.56691 0.79535 0.0
H435 H 0.46038 0.59708 0.86157 0.0
H436 H 0.59261 0.46442 0.37874 0.0
H437 H 0.59332 0.48666 0.47613 0.0
H438 H 0.52742 0.47898 0.49919 0.0
H439 H 0.52657 0.45659 0.40319 0.0
Tb440 Tb 1.00821 0.49419 0.74606 0.0
Eu441 Eu 0.02194 0.53069 0.64384 0.0
C442 C 0.02331 0.4829 0.60115 0.0
C443 C 0.05425 0.50868 0.739 0.0
C444 C 0.98333 0.4636 0.87973 0.0
C445 C 0.96123 0.44154 0.94576 0.0
C446 C 0.97604 0.44388 0.89646 0.0
C447 C 0.97606 0.48099 0.91375 0.0
C448 C 0.96135 0.47865 0.96337 0.0
C449 C 0.95357 0.45893 0.97918 0.0
C450 C 0.9978 0.46584 0.82493 0.0
O451 O 1.00946 0.52199 0.80705 0.0
O452 O 1.00723 0.54743 0.72859 0.0
O453 O 0.99085 0.51834 0.61291 0.0
O454 O 0.97944 0.50911 0.71442 0.0
C455 C 1.00676 0.54149 0.79015 0.0
O456 O 0.04513 0.55108 0.60146 0.0
O457 O 0.01325 0.55388 0.57066 0.0
O458 O 0.03195 0.50119 0.5937 0.0
O459 O 1.01133 0.47865 0.65164 0.0
O460 O 0.04186 0.49258 0.73813 0.0
O461 O 0.04794 0.52662 0.7165 0.0
C462 C 0.97558 0.51418 0.65319 0.0
O463 O 0.98938 0.46858 0.76767 0.0
O464 O 0.01339 0.47828 0.83416 0.0
C465 C 0.03934 0.56052 0.49263 0.0
C466 C 0.06058 0.56211 0.37249 0.0
C467 C 0.05398 0.58045 0.40324 0.0
C468 C 0.04353 0.57964 0.46316 0.0
C469 C 0.04424 0.54218 0.45956 0.0
C470 C 0.0548 0.54296 0.39995 0.0
C471 C 0.03228 0.55977 0.56074 0.0
H472 H 0.95555 0.42618 0.9572 0.0
H473 H 0.98153 0.43032 0.87051 0.0
H474 H 0.98143 0.49636 0.90103 0.0
H475 H 0.95548 0.49235 0.98762 0.0
H476 H 0.05792 0.59543 0.38285 0.0
H477 H 0.0397 0.59393 0.48808 0.0
H478 H 0.04106 0.52728 0.48179 0.0
H479 H 0.05979 0.52852 0.37819 0.0
H480 H 0.14109 0.99875 0.32119 0.0
H481 H 0.12705 0.06362 0.29621 0.0
H482 H 0.11418 0.99611 0.40448 0.0
H483 H 0.1001 0.06097 0.37961 0.0
H484 H 0.03974 0.04316 0.48835 0.0
H485 H 0.06624 0.04648 0.40324 0.0
H486 H 0.10678 1.00666 0.51459 0.0
H487 H 0.08034 1.00304 0.59851 0.0
C488 C 0.1324 0.01252 0.33377 0.0
C489 C 0.13638 0.03141 0.30176 0.0
C490 C 0.11691 1.01101 0.38169 0.0
C491 C 0.10491 0.02834 0.39924 0.0
C492 C 0.10877 0.04721 0.36691 0.0
C493 C 0.12428 0.04872 0.31894 0.0
C494 C 0.05433 0.03516 0.49475 0.0
C495 C 0.05778 0.02277 0.55041 0.0
C496 C 0.06959 0.03713 0.44599 0.0
C497 C 0.08869 0.02673 0.45157 0.0
C498 C 0.09217 0.01459 0.50774 0.0
C499 C 0.07698 0.01263 0.55631 0.0
H500 H 0.51839 0.15282 0.36885 0.0
H501 H 0.47746 0.11488 0.25283 0.0
H502 H 0.51914 0.12608 0.45335 0.0
H503 H 0.47837 0.08815 0.33696 0.0
H504 H 0.50392 0.03559 0.4655 0.0
H505 H 0.5018 0.06287 0.38332 0.0
H506 H 0.49822 0.10874 0.53646 0.0
H507 H 0.50066 0.08143 0.61894 0.0
C508 C 0.50938 0.1389 0.36148 0.0
C509 C 0.49796 0.13609 0.30345 0.0
C510 C 0.50982 0.12352 0.4101 0.0
C511 C 0.49889 0.10483 0.40211 0.0
C512 C 0.48729 0.10213 0.34446 0.0
C513 C 0.48681 0.11751 0.29599 0.0
C514 C 0.50261 0.05147 0.48186 0.0
C515 C 0.50248 0.05622 0.54913 0.0
C516 C 0.50127 0.06716 0.43454 0.0
C517 C 0.49985 0.0881 0.45298 0.0
C518 C 0.49955 0.09285 0.52028 0.0
C519 C 0.5008 0.07713 0.56769 0.0
H520 H 0.37194 0.47264 0.39365 0.0
H521 H 0.40269 0.51966 0.27884 0.0
H522 H 0.39975 0.47412 0.47437 0.0
H523 H 0.43036 0.52124 0.3594 0.0
H524 H 0.48734 0.50425 0.47721 0.0
H525 H 0.45912 0.50165 0.39894 0.0
H526 H 0.41552 0.49509 0.55822 0.0
H527 H 0.44391 0.49725 0.63675 0.0
C528 C 0.3845 0.48347 0.38591 0.0
C529 C 0.38505 0.49594 0.32929 0.0
C530 C 0.4005 0.48431 0.43229 0.0
C531 C 0.4175 0.49768 0.42345 0.0
C532 C 0.41783 0.5104 0.36737 0.0
C533 C 0.40188 0.50952 0.32105 0.0
C534 C 0.47176 0.50217 0.49574 0.0
C535 C 0.46798 0.50103 0.56355 0.0
C536 C 0.45549 0.50083 0.45068 0.0
C537 C 0.4349 0.49835 0.47194 0.0
C538 C 0.43115 0.49681 0.53979 0.0
C539 C 0.44746 0.49813 0.58496 0.0
H540 H 0.03788 0.36614 0.39094 0.0
H541 H 0.03466 0.41189 0.23695 0.0
H542 H 0.03538 0.39339 0.47273 0.0
H543 H 0.03198 0.43924 0.31897 0.0
H544 H 0.046 0.4849 0.48656 0.0
H545 H 0.05024 0.45793 0.40366 0.0
H546 H 1.01105 0.4172 0.51702 0.0
H547 H 1.00724 0.44375 0.60001 0.0
C548 C 0.03642 0.38201 0.37442 0.0
C549 C 0.03634 0.38672 0.30711 0.0
C550 C 0.03499 0.3977 0.42147 0.0
C551 C 0.03335 0.41863 0.40279 0.0
C552 C 0.03349 0.42338 0.33543 0.0
C553 C 0.03498 0.40766 0.28828 0.0
C554 C 0.03837 0.47015 0.49392 0.0
C555 C 0.02633 0.46657 0.55036 0.0
C556 C 0.04069 0.4547 0.44608 0.0
C557 C 0.03106 0.43525 0.45345 0.0
C558 C 0.01904 0.43177 0.50992 0.0
C559 C 0.01673 0.44714 0.55757 0.0
H560 H 0.8717 0.97287 0.01737 0.0
H561 H 0.90689 0.01513 0.13694 0.0
H562 H 0.89869 0.97398 0.93383 0.0
H563 H 0.93376 0.01651 0.05316 0.0
H564 H 0.98762 1.00019 0.91933 0.0
H565 H 0.96084 0.99731 1.00302 0.0
H566 H 0.91407 0.99523 0.85218 0.0
H567 H 0.9409 0.99752 0.76856 0.0
C568 C 0.88509 0.98259 0.0256 0.0
C569 C 0.88705 0.9939 0.08414 0.0
C570 C 0.90063 0.98324 0.97753 0.0
C571 C 0.91856 0.99531 0.98637 0.0
C572 C 0.92044 1.0067 0.04485 0.0
C573 C 0.90495 1.00597 0.09302 0.0
C574 C 0.97164 0.99899 0.90391 0.0
C575 C 0.9665 0.99911 0.83695 0.0
C576 C 0.9562 0.9975 0.95209 0.0
C577 C 0.93514 0.99617 0.9348 0.0
C578 C 0.93006 0.99596 0.86771 0.0
C579 C 0.94551 0.99737 0.81954 0.0
H580 H 0.4994 0.88302 0.0739 0.0
H581 H 0.56389 0.89833 0.10044 0.0
H582 H 0.49658 0.90967 0.98997 0.0
H583 H 0.56104 0.92508 0.01637 0.0
H584 H 0.54235 0.98446 0.90232 0.0
H585 H 0.54588 0.95867 0.98966 0.0
H586 H 0.50767 0.91635 0.87979 0.0
H587 H 0.50386 0.94199 0.79378 0.0
C588 C 0.51305 0.89194 0.06157 0.0
C589 C 0.53191 0.88833 0.09406 0.0
C590 C 0.51143 0.9073 0.01329 0.0
C591 C 0.52861 0.91955 0.9958 0.0
C592 C 0.5474 0.91617 0.0289 0.0
C593 C 0.54903 0.90077 0.07726 0.0
C594 C 0.53474 0.96964 0.89677 0.0
C595 C 0.52274 0.96545 0.84084 0.0
C596 C 0.53683 0.95479 0.94681 0.0
C597 C 0.52692 0.9354 0.94229 0.0
C598 C 0.5152 0.93119 0.88589 0.0
C599 C 0.51314 0.94594 0.83608 0.0
H600 H 0.614 0.52752 0.16001 0.0
H601 H 0.66096 0.53293 1.0102 0.0
H602 H 0.58738 0.52543 0.07563 0.0
H603 H 0.63439 0.53084 0.926 0.0
H604 H 0.58481 0.5029 0.79378 0.0
H605 H 0.61091 0.50642 0.87837 0.0
H606 H 0.56943 0.54491 0.99091 0.0
H607 H 0.54294 0.54104 0.90622 0.0
C608 C 0.61867 0.52845 0.10913 0.0
C609 C 0.63974 0.53031 0.09221 0.0
C610 C 0.60335 0.52728 0.06062 0.0
C611 C 0.60864 0.52791 0.99372 0.0
C612 C 0.62969 0.52992 0.97687 0.0
C613 C 0.64499 0.53109 0.02531 0.0
C614 C 0.58117 0.5122 0.83635 0.0
C615 C 0.56166 0.5217 0.84286 0.0
C616 C 0.59628 0.51432 0.88491 0.0
C617 C 0.59241 0.52601 0.94169 0.0
C618 C 0.57292 0.5356 0.94824 0.0
C619 C 0.55775 0.53351 0.8994 0.0
H620 H 0.02201 0.65151 0.03132 0.0
H621 H 0.97723 0.61525 0.13905 0.0
H622 H 0.02318 0.62497 0.94674 0.0
H623 H 0.97863 0.58861 0.05478 0.0
H624 H 1.00351 0.5358 0.9234 0.0
H625 H 1.00143 0.56223 1.00853 0.0
H626 H 1.00211 0.60995 0.86028 0.0
H627 H 1.00445 0.58364 0.77533 0.0
C628 C 0.01227 0.63799 0.03691 0.0
C629 C 0.99952 0.63567 0.09244 0.0
C630 C 0.01297 0.6227 0.98825 0.0
C631 C 1.00098 0.60458 0.99366 0.0
C632 C 0.9883 0.60219 0.04927 0.0
C633 C 0.98754 0.61751 0.09781 0.0
C634 C 1.00312 0.55192 0.90884 0.0
C635 C 1.0042 0.55749 0.84222 0.0
C636 C 1.00184 0.56711 0.95778 0.0
C637 C 1.00172 0.5883 0.94151 0.0
C638 C 1.0025 0.59384 0.87485 0.0
C639 C 1.00368 0.57867 0.82596 0.0
H640 H 0.95696 0.20852 0.35001 0.0
H641 H 0.95274 0.18205 0.1563 0.0
H642 H 0.9486 0.17527 0.39801 0.0
H643 H 0.94405 0.1485 0.20465 0.0
H644 H 0.9647 0.09022 0.32424 0.0
H645 H 0.9633 0.12287 0.26476 0.0
H646 H 0.92382 0.14845 0.41543 0.0
H647 H 0.92571 0.11584 0.47568 0.0
C648 C 0.95363 0.19572 0.31752 0.0
C649 C 0.95556 0.19792 0.24932 0.0
C650 C 0.94879 0.17659 0.34512 0.0
C651 C 0.9457 0.15916 0.30522 0.0
C652 C 0.94664 0.16156 0.23677 0.0
C653 C 0.95158 0.18075 0.20908 0.0
C654 C 0.95535 0.10269 0.34385 0.0
C655 C 0.94552 0.10063 0.40489 0.0
C656 C 0.95448 0.12139 0.30966 0.0
C657 C 0.94362 0.13837 0.33566 0.0
C658 C 0.93267 0.13581 0.39473 0.0
C659 C 0.93371 0.11717 0.42918 0.0
H660 H 0.32893 0.93228 0.22532 0.0
H661 H 0.34725 0.99495 0.17996 0.0
H662 H 0.36371 0.92508 0.26628 0.0
H663 H 0.38165 0.98805 0.22216 0.0
H664 H 0.44499 0.97068 0.28414 0.0
H665 H 0.41403 0.97079 0.2156 0.0
H666 H 0.38167 0.935 0.36275 0.0
H667 H 0.41266 0.93447 0.42981 0.0
C668 C 0.34048 0.94442 0.22345 0.0
C669 C 0.33538 0.9642 0.1999 0.0
C670 C 0.36036 0.94034 0.24706 0.0
C671 C 0.37544 0.95605 0.24825 0.0
C672 C 0.37058 0.97548 0.22122 0.0
C673 C 0.3508 0.97948 0.19711 0.0
C674 C 0.4313 0.96261 0.30115 0.0
C675 C 0.43115 0.95269 0.36239 0.0
C676 C 0.41357 0.96269 0.26206 0.0
C677 C 0.39527 0.95306 0.28384 0.0
C678 C 0.39552 0.9423 0.34379 0.0
C679 C 0.41329 0.94206 0.38248 0.0
H680 H 0.56982 0.34384 0.16233 0.0
H681 H 0.50783 0.35311 0.23575 0.0
H682 H 0.57804 0.3801 0.18605 0.0
H683 H 0.51598 0.38906 0.25995 0.0
H684 H 0.53106 0.4543 0.28492 0.0
H685 H 0.52598 0.42366 0.21694 0.0
H686 H 0.58202 0.39701 0.29537 0.0
H687 H 0.587 0.42739 0.3635 0.0
C688 C 0.55786 0.35378 0.18221 0.0
C689 C 0.5383 0.34573 0.19819 0.0
C690 C 0.56256 0.37444 0.1959 0.0
C691 C 0.54767 0.38737 0.22495 0.0
C692 C 0.52771 0.37957 0.23684 0.0
C693 C 0.5231 0.35894 0.2238 0.0
C694 C 0.5425 0.44206 0.28655 0.0
C695 C 0.55919 0.44305 0.33053 0.0
C696 C 0.53963 0.42458 0.24754 0.0
C697 C 0.55343 0.40784 0.25168 0.0
C698 C 0.5712 0.40973 0.29078 0.0
C699 C 0.57404 0.42716 0.32993 0.0
H700 H 0.17913 0.57146 0.17482 0.0
H701 H 0.16315 0.50782 0.21576 0.0
H702 H 0.14318 0.58161 0.19372 0.0
H703 H 0.12748 0.51788 0.23457 0.0
H704 H 0.0637 0.53716 0.26381 0.0
H705 H 0.09466 0.53215 0.19679 0.0
H706 H 0.12424 0.58312 0.29632 0.0
H707 H 0.09369 0.58802 0.36285 0.0
C708 C 0.1679 0.55962 0.18706 0.0
C709 C 0.17403 0.53889 0.19481 0.0
C710 C 0.14732 0.56541 0.19751 0.0
C711 C 0.1325 0.55059 0.21604 0.0
C712 C 0.1384 0.52967 0.21937 0.0
C713 C 0.15892 0.52389 0.20889 0.0
C714 C 0.07665 0.54759 0.27013 0.0
C715 C 0.07635 0.56272 0.31956 0.0
C716 C 0.09436 0.54473 0.23177 0.0
C717 C 0.11204 0.55698 0.24212 0.0
C718 C 0.11088 0.57348 0.28666 0.0
C719 C 0.09325 0.57632 0.32499 0.0
H720 H 0.02186 0.85039 0.19969 0.0
H721 H 0.08715 0.83642 0.18923 0.0
H722 H 0.02852 0.88504 0.15918 0.0
H723 H 0.09396 0.87144 0.14926 0.0
H724 H 0.08825 0.91843 0.976 0.0
H725 H 0.08732 0.88806 0.04619 0.0
H726 H 0.0434 0.91863 0.17342 0.0
H727 H 0.04407 0.94897 0.10192 0.0
C728 C 0.03774 0.85495 0.1906 0.0
C729 C 0.05397 0.84063 0.19711 0.0
C730 C 0.04159 0.87488 0.16747 0.0
C731 C 0.06178 0.881 0.1505 0.0
C732 C 0.07819 0.86708 0.16082 0.0
C733 C 0.07431 0.84705 0.18371 0.0
C734 C 0.0788 0.91887 0.01986 0.0
C735 C 0.06605 0.93595 0.03315 0.0
C736 C 0.07831 0.90146 0.06032 0.0
C737 C 0.06513 0.90082 0.11516 0.0
C738 C 0.05342 0.91849 0.13084 0.0
C739 C 0.0538 0.93585 0.09003 0.0
H740 H 0.67165 0.01845 0.18394 0.0
H741 H 0.68871 0.08311 0.17892 0.0
H742 H 0.63721 0.02717 0.14673 0.0
H743 H 0.65393 0.09189 0.14085 0.0
H744 H 0.60593 0.08728 0.96672 0.0
H745 H 0.63647 0.08583 0.03623 0.0
H746 H 0.60452 0.04435 0.16834 0.0
H747 H 0.57402 0.04561 0.098 0.0
C748 C 0.66789 0.03462 0.17672 0.0
C749 C 0.683 0.05007 0.18403 0.0
C750 C 0.64806 0.03964 0.1554 0.0
C751 C 0.64284 0.06023 0.1407 0.0
C752 C 0.6576 0.07586 0.15111 0.0
C753 C 0.6775 0.07082 0.17268 0.0
C754 C 0.60524 0.07834 1.0116 0.0
C755 C 0.58778 0.06628 0.02648 0.0
C756 C 0.62272 0.07755 0.05159 0.0
C757 C 0.623 0.06473 0.10728 0.0
C758 C 0.60489 0.05403 0.125 0.0
C759 C 0.58746 0.05475 0.08483 0.0
H760 H 0.45786 0.70647 0.04665 0.0
H761 H 0.45975 0.6789 0.23934 0.0
H762 H 0.44985 0.67305 0.99923 0.0
H763 H 0.45112 0.64527 0.19207 0.0
H764 H 0.47194 0.58848 0.06872 0.0
H765 H 0.47 0.62094 0.12844 0.0
H766 H 0.42699 0.6448 0.98481 0.0
H767 H 0.42957 0.61239 0.92396 0.0
C768 C 0.45591 0.69334 0.07912 0.0
C769 C 0.45957 0.69524 0.1466 0.0
C770 C 0.45124 0.67413 0.05195 0.0
C771 C 0.44998 0.65639 0.09174 0.0
C772 C 0.45238 0.65855 0.15988 0.0
C773 C 0.45725 0.67778 0.18701 0.0
C774 C 0.46175 0.60052 0.05074 0.0
C775 C 0.45109 0.59807 0.99145 0.0
C776 C 0.46053 0.61913 0.08511 0.0
C777 C 0.44846 0.6356 0.06117 0.0
C778 C 0.43677 0.63259 1.00389 0.0
C779 C 0.43818 0.61406 0.96913 0.0
H780 H 0.83575 0.43574 0.17629 0.0
H781 H 0.85173 0.50018 0.20051 0.0
H782 H 0.87056 0.42876 0.1348 0.0
H783 H 0.88615 0.49338 0.15851 0.0
H784 H 0.94979 0.47696 0.0997 0.0
H785 H 0.9192 0.47724 0.17016 0.0
H786 H 0.88769 0.43703 0.03376 0.0
H787 H 0.91832 0.43643 0.96462 0.0
C788 C 0.84677 0.44834 0.17344 0.0
C789 C 0.84098 0.46852 0.19128 0.0
C790 C 0.86668 0.44437 0.14966 0.0
C791 C 0.88111 0.46053 0.14288 0.0
C792 C 0.87559 0.48047 0.16403 0.0
C793 C 0.85578 0.48441 0.18805 0.0
C794 C 0.93639 0.46796 0.08551 0.0
C795 C 0.93633 0.45683 0.0265 0.0
C796 C 0.91888 0.46813 0.12571 0.0
C797 C 0.90091 0.45734 0.10728 0.0
C798 C 0.90132 0.44529 0.05001 0.0
C799 C 0.91887 0.44499 1.01016 0.0
H800 H 0.99774 0.1677 0.94439 0.0
H801 H 0.05866 0.17367 0.8591 0.0
H802 H 0.99396 0.13382 0.89292 0.0
H803 H 0.05494 0.13986 0.8083 0.0
H804 H 0.05054 0.06929 0.78725 0.0
H805 H 0.05375 0.10354 0.83592 0.0
H806 H 0.99001 0.1165 0.78779 0.0
H807 H 0.98669 0.08208 0.73981 0.0
C808 C 1.01028 0.16193 0.91432 0.0
C809 C 0.02858 0.17353 0.90656 0.0
C810 C 1.00811 0.14243 0.88471 0.0
C811 C 0.02418 0.13393 0.84653 0.0
C812 C 0.04237 0.14563 0.83829 0.0
C813 C 0.04452 0.1651 0.86768 0.0
C814 C 0.0372 0.07944 0.78665 0.0
C815 C 0.01836 0.07281 0.75935 0.0
C816 C 0.03908 0.09919 0.81444 0.0
C817 C 0.02215 0.11292 0.816 0.0
C818 C 1.00332 0.10633 0.78834 0.0
C819 C 1.00146 0.08658 0.7603 0.0
H820 H 0.35914 0.05036 0.93653 0.0
H821 H 0.33954 0.99743 0.82382 0.0
H822 H 0.39367 0.04757 0.88978 0.0
H823 H 0.37427 0.99447 0.77729 0.0
H824 H 0.43457 1.00694 0.66149 0.0
H825 H 0.39928 1.00998 0.70433 0.0
H826 H 0.42375 0.02675 0.89373 0.0
H827 H 0.45866 0.02427 0.85086 0.0
C828 C 0.36224 0.03795 0.90233 0.0
C829 C 0.34646 0.02406 0.88445 0.0
C830 C 0.38213 0.03633 0.87534 0.0
C831 C 0.38697 0.02071 0.82975 0.0
C832 C 0.37115 1.00688 0.81148 0.0
C833 C 0.35119 1.00855 0.83836 0.0
C834 C 0.43239 1.01134 0.7122 0.0
C835 C 0.44957 0.01544 0.75243 0.0
C836 C 0.41212 0.01296 0.73698 0.0
C837 C 0.4085 0.01873 0.80264 0.0
C838 C 0.42575 0.02268 0.84268 0.0
C839 C 0.44591 0.02111 0.818 0.0
H840 H 0.53256 0.33837 0.81398 0.0
H841 H 0.48089 0.35525 0.93703 0.0
H842 H 0.53425 0.37372 0.77213 0.0
H843 H 0.48235 0.39046 0.89471 0.0
H844 H 0.50301 0.45665 0.85741 0.0
H845 H 0.50176 0.4213 0.89752 0.0
H846 H 0.51769 0.39893 0.70462 0.0
H847 H 0.51955 0.43459 0.66476 0.0
C848 C 0.52143 0.34956 0.8318 0.0
C849 C 0.50662 0.34384 0.87921 0.0
C850 C 0.52236 0.3699 0.80757 0.0
C851 C 0.50846 0.38516 0.82979 0.0
C852 C 0.49361 0.37938 0.87709 0.0
C853 C 0.49275 0.35908 0.90151 0.0
C854 C 0.50623 0.44425 0.82325 0.0
C855 C 0.51136 0.44863 0.75759 0.0
C856 C 0.50538 0.42384 0.84633 0.0
C857 C 0.50951 0.40703 0.80453 0.0
C858 C 0.51464 0.41138 0.73872 0.0
C859 C 0.51558 0.43189 0.71561 0.0
H860 H 0.17703 0.53019 0.90777 0.0
H861 H 0.17361 0.46386 0.88372 0.0
H862 H 0.14201 0.5335 0.86589 0.0
H863 H 0.13927 0.46732 0.83725 0.0
H864 H 0.0701 0.47689 0.81244 0.0
H865 H 0.10458 0.4738 0.85929 0.0
H866 H 0.1216 0.53234 0.77169 0.0
H867 H 0.08678 0.53577 0.72738 0.0
C868 C 0.16889 0.51626 0.89368 0.0
C869 C 0.17844 0.49673 0.89941 0.0
C870 C 0.14878 0.5182 0.86845 0.0
C871 C 0.13758 0.50071 0.84751 0.0
C872 C 0.14712 0.4812 0.85342 0.0
C873 C 0.16711 0.47923 0.87926 0.0
C874 C 0.08121 0.4891 0.80308 0.0
C875 C 0.07559 0.50657 0.766 0.0
C876 C 0.10112 0.48729 0.82975 0.0
C877 C 0.11616 0.50278 0.8195 0.0
C878 C 0.1105 0.52021 0.78194 0.0
C879 C 0.09049 0.52213 0.75595 0.0
H880 H 0.97203 0.85507 0.47246 0.0
H881 H 0.02985 0.83922 0.56568 0.0
H882 H 0.97444 0.88994 0.51619 0.0
H883 H 0.03268 0.87455 0.60753 0.0
H884 H 0.02016 0.935 0.72438 0.0
H885 H 0.01791 0.8992 0.68544 0.0
H886 H 0.99373 0.92101 0.50075 0.0
H887 H 0.99556 0.95638 0.53965 0.0
C888 C 0.98527 0.85897 0.50243 0.0
C889 C 1.00071 0.84415 0.51546 0.0
C890 C 0.98679 0.87914 0.527 0.0
C891 C 1.00381 0.88525 0.56537 0.0
C892 C 0.01924 0.87044 0.57872 0.0
C893 C 0.01774 0.8502 0.55395 0.0
C894 C 0.0143 0.93213 0.67556 0.0
C895 C 1.00794 0.9487 0.63551 0.0
C896 C 0.01313 0.91158 0.65301 0.0
C897 C 1.00551 0.90708 0.5899 0.0
C898 C 0.99931 0.92371 0.54999 0.0
C899 C 1.00049 0.94413 0.57237 0.0
H900 H 0.67899 0.02949 0.52203 0.0
H901 H 0.67187 0.96328 0.50347 0.0
H902 H 0.64372 0.03206 0.56293 0.0
H903 H 0.63736 0.96565 0.54916 0.0
H904 H 0.56856 0.97692 0.572 0.0
H905 H 0.60355 0.97496 0.5289 0.0
H906 H 0.62143 0.02648 0.65118 0.0
H907 H 0.586 0.02901 0.69189 0.0
C908 C 0.67 0.01543 0.52658 0.0
C909 C 0.67859 0.99616 0.50911 0.0
C910 C 0.64974 0.01687 0.55127 0.0
C911 C 0.6374 0.99907 0.55992 0.0
C912 C 0.64604 0.97982 0.54258 0.0
C913 C 0.66616 0.97841 0.51721 0.0
C914 C 0.57995 0.9878 0.59 0.0
C915 C 0.57436 1.0031 0.63566 0.0
C916 C 0.60019 0.98661 0.56541 0.0
C917 C 0.61565 1.0005 0.58635 0.0
C918 C 0.61005 0.01569 0.63267 0.0
C919 C 0.58969 0.01706 0.65661 0.0
H920 H 0.56054 0.67142 0.51073 0.0
H921 H 0.49388 0.67649 0.5102 0.0
H922 H 0.55797 0.63732 0.55914 0.0
H923 H 0.49126 0.64152 0.55439 0.0
H924 H 0.49329 0.58501 0.69114 0.0
H925 H 0.49536 0.62014 0.64706 0.0
H926 H 0.55018 0.60312 0.53816 0.0
H927 H 0.54857 0.56856 0.58429 0.0
C928 C 0.54526 0.66534 0.52086 0.0
C929 C 0.52744 0.67708 0.50668 0.0
C930 C 0.54377 0.64544 0.54784 0.0
C931 C 0.52438 0.63632 0.56082 0.0
C932 C 0.50651 0.64795 0.54612 0.0
C933 C 0.50801 0.66801 0.51964 0.0
C934 C 0.50586 0.58885 0.65813 0.0
C935 C 0.52085 0.5739 0.64186 0.0
C936 C 0.50697 0.60901 0.63226 0.0
C937 C 0.52299 0.61477 0.58882 0.0
C938 C 0.53786 0.59967 0.57245 0.0
C939 C 0.53688 0.57966 0.59882 0.0
H940 H 0.86361 0.54993 0.44428 0.0
H941 H 0.84284 0.49961 0.56735 0.0
H942 H 0.89832 0.54653 0.48877 0.0
H943 H 0.87793 0.4956 0.60997 0.0
H944 H 0.93901 0.50876 0.72129 0.0
H945 H 0.90366 0.51164 0.67933 0.0
H946 H 0.92778 0.52459 0.48614 0.0
H947 H 0.96283 0.52222 0.52809 0.0
C948 C 0.8664 0.53811 0.4809 0.0
C949 C 0.85024 0.52512 0.50219 0.0
C950 C 0.88647 0.53598 0.50595 0.0
C951 C 0.89111 0.52073 0.55306 0.0
C952 C 0.87498 0.50767 0.57432 0.0
C953 C 0.85486 0.5098 0.54916 0.0
C954 C 0.93675 0.51223 0.66987 0.0
C955 C 0.95387 0.51537 0.62834 0.0
C956 C 0.91644 0.51376 0.64563 0.0
C957 C 0.91271 0.51849 0.57921 0.0
C958 C 0.9299 0.52134 0.53775 0.0
C959 C 0.95012 0.51985 0.56189 0.0
loop_
_geom_bond_atom_site_label_1
_geom_bond_atom_site_label_2
_geom_bond_distance
_geom_bond_site_symmetry_2
_ccdc_geom_bond_type
C0 C1 1.264 . S
C0 C5 1.479 . S
C0 C10 1.465 . S
C1 C0 1.264 . S
C1 C3 1.339 . S
C1 H28 0.931 . S
C2 C3 1.395 . S
C2 C4 1.320 . S
C3 C1 1.339 . S
C3 C2 1.395 . S
C3 H29 0.929 . S
C4 C2 1.320 . S
C4 C5 1.405 . S
C4 H30 0.930 . S
C5 C0 1.479 . S
C5 C4 1.405 . S
C5 H31 0.931 . S
U6 O7 2.454 . S
U6 O8 2.458 . S
U6 C9 2.984 . S
U6 C10 2.847 . S
U6 C23 2.882 . S
U6 O24 2.441 . S
U6 O25 2.420 . S
U6 O26 2.455 . S
U6 O27 2.449 . S
O7 U6 2.454 . S
O7 C9 1.353 . S
O8 U6 2.458 . S
O8 C9 1.286 . S
C9 U6 2.984 . S
C9 O7 1.353 . S
C9 O8 1.286 . S
C9 C11 1.363 . S
C10 C0 1.465 . S
C10 U6 2.847 . S
C10 O24 1.249 . S
C10 O25 1.202 . S
C11 C9 1.363 . S
C11 C13 1.408 . S
C11 C16 1.342 . S
C12 C13 1.310 . S
C12 C15 1.461 . S
C12 H32 0.932 . S
C13 C11 1.408 . S
C13 C12 1.310 . S
C13 H33 0.930 . S
C14 C15 1.474 . S
C14 C16 1.285 . S
C14 H34 0.929 . S
C15 C12 1.461 . S
C15 C14 1.474 . S
C16 C11 1.342 . S
C16 C14 1.285 . S
C16 H35 0.930 . S
C17 C20 1.424 . S
C17 C22 1.245 . S
C17 C23 1.428 . S
C18 C21 1.260 . S
C18 C22 1.477 . S
C18 H36 0.932 . S
C19 C20 1.384 . S
C19 C21 1.479 . S
C19 H37 0.929 . S
C20 C17 1.424 . S
C20 C19 1.384 . S
C20 H38 0.928 . S
C21 C18 1.260 . S
C21 C19 1.479 . S
C22 C17 1.245 . S
C22 C18 1.477 . S
C22 H39 0.932 . S
C23 U6 2.882 . S
C23 C17 1.428 . S
C23 O26 1.301 . S
C23 O27 1.282 . S
O24 U6 2.441 . S
O24 C10 1.249 . S
O25 U6 2.420 . S
O25 C10 1.202 . S
O26 U6 2.455 . S
O26 C23 1.301 . S
O27 U6 2.449 . S
O27 C23 1.282 . S
H28 C1 0.931 . S
H29 C3 0.929 . S
H30 C4 0.930 . S
H31 C5 0.931 . S
H32 C12 0.932 . S
H33 C13 0.930 . S
H34 C14 0.929 . S
H35 C16 0.930 . S
H36 C18 0.932 . S
H37 C19 0.929 . S
H38 C20 0.928 . S
H39 C22 0.932 . S
C40 C41 1.264 . S
C40 C45 1.479 . S
C40 C50 1.465 . S
C41 C40 1.264 . S
C41 C43 1.339 . S
C41 H68 0.931 . S
C42 C43 1.395 . S
C42 C44 1.320 . S
C43 C41 1.339 . S
C43 C42 1.395 . S
C43 H69 0.929 . S
C44 C42 1.320 . S
C44 C45 1.405 . S
C44 H70 0.921 1_455 S
C45 C40 1.479 . S
C45 C44 1.405 . S
C45 H71 0.931 . S
U46 O47 2.454 . S
U46 O48 2.458 . S
U46 C49 2.984 . S
U46 C50 2.847 . S
U46 C63 2.882 . S
U46 O64 2.441 . S
U46 O65 2.420 . S
U46 O66 2.455 . S
U46 O67 2.449 . S
O47 U46 2.454 . S
O47 C49 1.353 . S
O48 U46 2.458 . S
O48 C49 1.286 . S
C49 U46 2.984 . S
C49 O47 1.353 . S
C49 O48 1.286 . S
C49 C51 1.363 . S
C50 C40 1.465 . S
C50 U46 2.847 . S
C50 O64 1.249 . S
C50 O65 1.202 . S
C51 C49 1.363 . S
C51 C53 1.408 . S
C51 C56 1.342 . S
C52 C53 1.310 . S
C52 C55 1.461 . S
C52 H72 0.932 . S
C53 C51 1.408 . S
C53 C52 1.310 . S
C53 H73 0.930 . S
C54 C55 1.474 1_655 S
C54 C56 1.285 1_655 S
C54 H74 0.930 . S
C55 C52 1.461 . S
C55 C54 1.474 1_455 S
C56 C51 1.342 . S
C56 C54 1.285 1_455 S
C56 H75 0.932 . S
C57 C60 1.424 . S
C57 C62 1.245 . S
C57 C63 1.428 . S
C58 C61 1.260 . S
C58 C62 1.477 . S
C58 H76 0.932 . S
C59 C60 1.384 . S
C59 C61 1.479 . S
C59 H77 0.929 . S
C60 C57 1.424 . S
C60 C59 1.384 . S
C60 H78 0.928 . S
C61 C58 1.260 . S
C61 C59 1.479 . S
C62 C57 1.245 . S
C62 C58 1.477 . S
C62 H79 0.932 . S
C63 U46 2.882 . S
C63 C57 1.428 . S
C63 O66 1.301 . S
C63 O67 1.282 . S
O64 U46 2.441 . S
O64 C50 1.249 . S
O65 U46 2.420 . S
O65 C50 1.202 . S
O66 U46 2.455 . S
O66 C63 1.301 . S
O67 U46 2.449 . S
O67 C63 1.282 . S
H68 C41 0.931 . S
H69 C43 0.929 . S
H70 C44 0.921 1_655 S
H71 C45 0.931 . S
H72 C52 0.932 . S
H73 C53 0.930 . S
H74 C54 0.930 . S
H75 C56 0.932 . S
H76 C58 0.932 . S
H77 C59 0.929 . S
H78 C60 0.928 . S
H79 C62 0.932 . S
C80 C81 1.264 . S
C80 C85 1.479 . S
C80 C90 1.465 . S
C81 C80 1.264 . S
C81 C83 1.339 . S
C81 H108 0.931 . S
C82 C83 1.395 . S
C82 C84 1.320 . S
C83 C81 1.339 . S
C83 C82 1.395 . S
C83 H109 0.929 . S
C84 C82 1.320 . S
C84 C85 1.405 . S
C84 H110 0.921 1_545 S
C85 C80 1.479 . S
C85 C84 1.405 . S
C85 H111 0.931 . S
U86 O87 2.454 . S
U86 O88 2.458 . S
U86 C89 2.984 . S
U86 C90 2.847 . S
U86 C103 2.882 . S
U86 O104 2.441 . S
U86 O105 2.420 . S
U86 O106 2.455 . S
U86 O107 2.449 . S
O87 U86 2.454 . S
O87 C89 1.353 . S
O88 U86 2.458 . S
O88 C89 1.286 . S
C89 U86 2.984 . S
C89 O87 1.353 . S
C89 O88 1.286 . S
C89 C91 1.363 . S
C90 C80 1.465 . S
C90 U86 2.847 . S
C90 O104 1.249 . S
C90 O105 1.202 . S
C91 C89 1.363 . S
C91 C93 1.408 . S
C91 C96 1.342 . S
C92 C93 1.310 . S
C92 C95 1.461 . S
C92 H112 0.932 . S
C93 C91 1.408 . S
C93 C92 1.310 . S
C93 H113 0.930 . S
C94 C95 1.474 1_565 S
C94 C96 1.285 1_565 S
C94 H114 0.930 . S
C95 C92 1.461 . S
C95 C94 1.474 1_545 S
C96 C91 1.342 . S
C96 C94 1.285 1_545 S
C96 H115 0.932 . S
C97 C100 1.424 . S
C97 C102 1.245 . S
C97 C103 1.428 . S
C98 C101 1.260 . S
C98 C102 1.477 . S
C98 H116 0.932 . S
C99 C100 1.384 . S
C99 C101 1.479 . S
C99 H117 0.929 . S
C100 C97 1.424 . S
C100 C99 1.384 . S
C100 H118 0.928 . S
C101 C98 1.260 . S
C101 C99 1.479 . S
C102 C97 1.245 . S
C102 C98 1.477 . S
C102 H119 0.932 . S
C103 U86 2.882 . S
C103 C97 1.428 . S
C103 O106 1.301 . S
C103 O107 1.282 . S
O104 U86 2.441 . S
O104 C90 1.249 . S
O105 U86 2.420 . S
O105 C90 1.202 . S
O106 U86 2.455 . S
O106 C103 1.301 . S
O107 U86 2.449 . S
O107 C103 1.282 . S
H108 C81 0.931 . S
H109 C83 0.929 . S
H110 C84 0.921 1_565 S
H111 C85 0.931 . S
H112 C92 0.932 . S
H113 C93 0.930 . S
H114 C94 0.930 . S
H115 C96 0.932 . S
H116 C98 0.932 . S
H117 C99 0.929 . S
H118 C100 0.928 . S
H119 C102 0.932 . S
C120 C121 1.264 . S
C120 C125 1.479 . S
C120 C130 1.465 . S
C121 C120 1.264 . S
C121 C123 1.339 . S
C121 H148 0.931 . S
C122 C123 1.395 . S
C122 C124 1.320 . S
C123 C121 1.339 . S
C123 C122 1.395 . S
C123 H149 0.929 . S
C124 C122 1.320 . S
C124 C125 1.405 . S
C124 H150 0.930 . S
C125 C120 1.479 . S
C125 C124 1.405 . S
C125 H151 0.931 . S
U126 O127 2.454 . S
U126 O128 2.458 . S
U126 C129 2.984 . S
U126 C130 2.847 . S
U126 C143 2.882 . S
U126 O144 2.441 . S
U126 O145 2.420 . S
U126 O146 2.455 . S
U126 O147 2.449 . S
O127 U126 2.454 . S
O127 C129 1.353 . S
O128 U126 2.458 . S
O128 C129 1.286 . S
C129 U126 2.984 . S
C129 O127 1.353 . S
C129 O128 1.286 . S
C129 C131 1.363 . S
C130 C120 1.465 . S
C130 U126 2.847 . S
C130 O144 1.249 . S
C130 O145 1.202 . S
C131 C129 1.363 . S
C131 C133 1.408 . S
C131 C136 1.342 . S
C132 C133 1.310 . S
C132 C135 1.461 . S
C132 H152 0.932 . S
C133 C131 1.408 . S
C133 C132 1.310 . S
C133 H153 0.930 . S
C134 C135 1.474 . S
C134 C136 1.285 . S
C134 H154 0.929 . S
C135 C132 1.461 . S
C135 C134 1.474 . S
C136 C131 1.342 . S
C136 C134 1.285 . S
C136 H155 0.930 . S
C137 C140 1.424 . S
C137 C142 1.245 . S
C137 C143 1.428 . S
C138 C141 1.260 . S
C138 C142 1.477 . S
C138 H156 0.932 . S
C139 C140 1.384 . S
C139 C141 1.479 . S
C139 H157 0.929 . S
C140 C137 1.424 . S
C140 C139 1.384 . S
C140 H158 0.928 . S
C141 C138 1.260 . S
C141 C139 1.479 . S
C142 C137 1.245 . S
C142 C138 1.477 . S
C142 H159 0.932 . S
C143 U126 2.882 . S
C143 C137 1.428 . S
C143 O146 1.301 . S
C143 O147 1.282 . S
O144 U126 2.441 . S
O144 C130 1.249 . S
O145 U126 2.420 . S
O145 C130 1.202 . S
O146 U126 2.455 . S
O146 C143 1.301 . S
O147 U126 2.449 . S
O147 C143 1.282 . S
H148 C121 0.931 . S
H149 C123 0.929 . S
H150 C124 0.930 . S
H151 C125 0.931 . S
H152 C132 0.932 . S
H153 C133 0.930 . S
H154 C134 0.929 . S
H155 C136 0.930 . S
H156 C138 0.932 . S
H157 C139 0.929 . S
H158 C140 0.928 . S
H159 C142 0.932 . S
C160 C161 1.264 . S
C160 C165 1.479 . S
C160 C170 1.465 . S
C161 C160 1.264 . S
C161 C163 1.339 . S
C161 H188 0.931 . S
C162 C163 1.395 . S
C162 C164 1.320 . S
C163 C161 1.339 . S
C163 C162 1.395 . S
C163 H189 0.929 . S
C164 C162 1.320 . S
C164 C165 1.405 . S
C164 H190 0.930 . S
C165 C160 1.479 . S
C165 C164 1.405 . S
C165 H191 0.931 . S
U166 O167 2.454 . S
U166 O168 2.458 . S
U166 C169 2.984 . S
U166 C170 2.847 1_554 S
U166 C183 2.882 . S
U166 O184 2.441 1_554 S
U166 O185 2.420 1_554 S
U166 O186 2.455 . S
U166 O187 2.449 . S
O167 U166 2.454 . S
O167 C169 1.353 . S
O168 U166 2.458 . S
O168 C169 1.286 . S
C169 U166 2.984 . S
C169 O167 1.353 . S
C169 O168 1.286 . S
C169 C171 1.363 . S
C170 C160 1.465 . S
C170 U166 2.847 1_556 S
C170 O184 1.249 . S
C170 O185 1.202 . S
C171 C169 1.363 . S
C171 C173 1.408 . S
C171 C176 1.342 . S
C172 C173 1.310 . S
C172 C175 1.461 . S
C172 H192 0.932 . S
C173 C171 1.408 . S
C173 C172 1.310 . S
C173 H193 0.930 . S
C174 C175 1.474 . S
C174 C176 1.285 . S
C174 H194 0.929 . S
C175 C172 1.461 . S
C175 C174 1.474 . S
C176 C171 1.342 . S
C176 C174 1.285 . S
C176 H195 0.930 . S
C177 C180 1.424 . S
C177 C182 1.245 . S
C177 C183 1.428 . S
C178 C181 1.260 . S
C178 C182 1.477 . S
C178 H196 0.932 . S
C179 C180 1.384 . S
C179 C181 1.479 . S
C179 H197 0.929 . S
C180 C177 1.424 . S
C180 C179 1.384 . S
C180 H198 0.928 . S
C181 C178 1.260 . S
C181 C179 1.479 . S
C182 C177 1.245 . S
C182 C178 1.477 . S
C182 H199 0.932 . S
C183 U166 2.882 . S
C183 C177 1.428 . S
C183 O186 1.301 . S
C183 O187 1.282 . S
O184 U166 2.441 1_556 S
O184 C170 1.249 . S
O185 U166 2.420 1_556 S
O185 C170 1.202 . S
O186 U166 2.455 . S
O186 C183 1.301 . S
O187 U166 2.449 . S
O187 C183 1.282 . S
H188 C161 0.931 . S
H189 C163 0.929 . S
H190 C164 0.930 . S
H191 C165 0.931 . S
H192 C172 0.932 . S
H193 C173 0.930 . S
H194 C174 0.929 . S
H195 C176 0.930 . S
H196 C178 0.932 . S
H197 C179 0.929 . S
H198 C180 0.928 . S
H199 C182 0.932 . S
C200 C201 1.264 . S
C200 C205 1.479 . S
C200 C210 1.465 . S
C201 C200 1.264 . S
C201 C203 1.339 . S
C201 H228 0.931 . S
C202 C203 1.395 . S
C202 C204 1.320 . S
C203 C201 1.339 . S
C203 C202 1.395 . S
C203 H229 0.929 . S
C204 C202 1.320 . S
C204 C205 1.405 . S
C204 H230 0.923 1_455 S
C205 C200 1.479 . S
C205 C204 1.405 . S
C205 H231 0.931 . S
U206 O207 2.454 . S
U206 O208 2.458 . S
U206 C209 2.984 . S
U206 C210 2.847 1_554 S
U206 C223 2.882 . S
U206 O224 2.441 1_554 S
U206 O225 2.420 1_554 S
U206 O226 2.455 . S
U206 O227 2.449 . S
O207 U206 2.454 . S
O207 C209 1.353 . S
O208 U206 2.458 . S
O208 C209 1.286 . S
C209 U206 2.984 . S
C209 O207 1.353 . S
C209 O208 1.286 . S
C209 C211 1.363 . S
C210 C200 1.465 . S
C210 U206 2.847 1_556 S
C210 O224 1.249 . S
C210 O225 1.202 . S
C211 C209 1.363 . S
C211 C213 1.408 . S
C211 C216 1.342 . S
C212 C213 1.310 . S
C212 C215 1.462 . S
C212 H232 0.932 . S
C213 C211 1.408 . S
C213 C212 1.310 . S
C213 H233 0.930 . S
C214 C215 1.474 1_655 S
C214 C216 1.286 1_655 S
C214 H234 0.929 . S
C215 C212 1.462 . S
C215 C214 1.474 1_455 S
C216 C211 1.342 . S
C216 C214 1.286 1_455 S
C216 H235 0.934 . S
C217 C220 1.424 . S
C217 C222 1.245 . S
C217 C223 1.428 . S
C218 C221 1.260 . S
C218 C222 1.477 . S
C218 H236 0.932 . S
C219 C220 1.384 . S
C219 C221 1.479 . S
C219 H237 0.929 . S
C220 C217 1.424 . S
C220 C219 1.384 . S
C220 H238 0.928 . S
C221 C218 1.260 . S
C221 C219 1.479 . S
C222 C217 1.245 . S
C222 C218 1.477 . S
C222 H239 0.932 . S
C223 U206 2.882 . S
C223 C217 1.428 . S
C223 O226 1.301 . S
C223 O227 1.282 . S
O224 U206 2.441 1_556 S
O224 C210 1.249 . S
O225 U206 2.420 1_556 S
O225 C210 1.202 . S
O226 U206 2.455 . S
O226 C223 1.301 . S
O227 U206 2.449 . S
O227 C223 1.282 . S
H228 C201 0.931 . S
H229 C203 0.929 . S
H230 C204 0.923 1_655 S
H231 C205 0.931 . S
H232 C212 0.932 . S
H233 C213 0.930 . S
H234 C214 0.929 . S
H235 C216 0.934 . S
H236 C218 0.932 . S
H237 C219 0.929 . S
H238 C220 0.928 . S
H239 C222 0.932 . S
C240 C241 1.264 . S
C240 C245 1.479 . S
C240 C250 1.465 . S
C241 C240 1.264 . S
C241 C243 1.339 . S
C241 H268 0.931 . S
C242 C243 1.395 . S
C242 C244 1.320 . S
C243 C241 1.339 . S
C243 C242 1.395 . S
C243 H269 0.929 . S
C244 C242 1.320 . S
C244 C245 1.405 . S
C244 H270 0.923 1_545 S
C245 C240 1.479 . S
C245 C244 1.405 . S
C245 H271 0.931 . S
U246 O247 2.454 . S
U246 O248 2.458 . S
U246 C249 2.984 . S
U246 C250 2.847 1_554 S
U246 C263 2.882 . S
U246 O264 2.441 1_554 S
U246 O265 2.420 1_554 S
U246 O266 2.455 . S
U246 O267 2.449 . S
O247 U246 2.454 . S
O247 C249 1.353 . S
O248 U246 2.458 . S
O248 C249 1.286 . S
C249 U246 2.984 . S
C249 O247 1.353 . S
C249 O248 1.286 . S
C249 C251 1.363 . S
C250 C240 1.465 . S
C250 U246 2.847 1_556 S
C250 O264 1.249 . S
C250 O265 1.202 . S
C251 C249 1.363 . S
C251 C253 1.408 . S
C251 C256 1.342 . S
C252 C253 1.310 . S
C252 C255 1.462 . S
C252 H272 0.932 . S
C253 C251 1.408 . S
C253 C252 1.310 . S
C253 H273 0.930 . S
C254 C255 1.474 1_565 S
C254 C256 1.286 1_565 S
C254 H274 0.929 . S
C255 C252 1.462 . S
C255 C254 1.474 1_545 S
C256 C251 1.342 . S
C256 C254 1.286 1_545 S
C256 H275 0.933 . S
C257 C260 1.424 . S
C257 C262 1.245 . S
C257 C263 1.428 . S
C258 C261 1.260 . S
C258 C262 1.477 . S
C258 H276 0.932 . S
C259 C260 1.384 . S
C259 C261 1.479 . S
C259 H277 0.929 . S
C260 C257 1.424 . S
C260 C259 1.384 . S
C260 H278 0.928 . S
C261 C258 1.260 . S
C261 C259 1.479 . S
C262 C257 1.245 . S
C262 C258 1.477 . S
C262 H279 0.932 . S
C263 U246 2.882 . S
C263 C257 1.428 . S
C263 O266 1.301 . S
C263 O267 1.282 . S
O264 U246 2.441 1_556 S
O264 C250 1.249 . S
O265 U246 2.420 1_556 S
O265 C250 1.202 . S
O266 U246 2.455 . S
O266 C263 1.301 . S
O267 U246 2.449 . S
O267 C263 1.282 . S
H268 C241 0.931 . S
H269 C243 0.929 . S
H270 C244 0.923 1_565 S
H271 C245 0.931 . S
H272 C252 0.932 . S
H273 C253 0.930 . S
H274 C254 0.929 . S
H275 C256 0.933 . S
H276 C258 0.932 . S
H277 C259 0.929 . S
H278 C260 0.928 . S
H279 C262 0.932 . S
C280 C281 1.264 . S
C280 C285 1.479 . S
C280 C290 1.465 . S
C281 C280 1.264 . S
C281 C283 1.339 . S
C281 H308 0.931 . S
C282 C283 1.395 . S
C282 C284 1.320 . S
C283 C281 1.339 . S
C283 C282 1.395 . S
C283 H309 0.929 . S
C284 C282 1.320 . S
C284 C285 1.405 . S
C284 H310 0.930 . S
C285 C280 1.479 . S
C285 C284 1.405 . S
C285 H311 0.931 . S
U286 O287 2.454 . S
U286 O288 2.458 . S
U286 C289 2.984 . S
U286 C290 2.847 1_554 S
U286 C303 2.882 . S
U286 O304 2.441 1_554 S
U286 O305 2.420 1_554 S
U286 O306 2.455 . S
U286 O307 2.449 . S
O287 U286 2.454 . S
O287 C289 1.353 . S
O288 U286 2.458 . S
O288 C289 1.286 . S
C289 U286 2.984 . S
C289 O287 1.353 . S
C289 O288 1.286 . S
C289 C291 1.363 . S
C290 C280 1.465 . S
C290 U286 2.847 1_556 S
C290 O304 1.249 . S
C290 O305 1.202 . S
C291 C289 1.363 . S
C291 C293 1.408 . S
C291 C296 1.342 . S
C292 C293 1.310 . S
C292 C295 1.461 . S
C292 H312 0.932 . S
C293 C291 1.408 . S
C293 C292 1.310 . S
C293 H313 0.930 . S
C294 C295 1.474 . S
C294 C296 1.285 . S
C294 H314 0.929 . S
C295 C292 1.461 . S
C295 C294 1.474 . S
C296 C291 1.342 . S
C296 C294 1.285 . S
C296 H315 0.930 . S
C297 C300 1.424 . S
C297 C302 1.245 . S
C297 C303 1.428 . S
C298 C301 1.260 . S
C298 C302 1.477 . S
C298 H316 0.932 . S
C299 C300 1.384 . S
C299 C301 1.479 . S
C299 H317 0.929 . S
C300 C297 1.424 . S
C300 C299 1.384 . S
C300 H318 0.928 . S
C301 C298 1.260 . S
C301 C299 1.479 . S
C302 C297 1.245 . S
C302 C298 1.477 . S
C302 H319 0.932 . S
C303 U286 2.882 . S
C303 C297 1.428 . S
C303 O306 1.301 . S
C303 O307 1.282 . S
O304 U286 2.441 1_556 S
O304 C290 1.249 . S
O305 U286 2.420 1_556 S
O305 C290 1.202 . S
O306 U286 2.455 . S
O306 C303 1.301 . S
O307 U286 2.449 . S
O307 C303 1.282 . S
H308 C281 0.931 . S
H309 C283 0.929 . S
H310 C284 0.930 . S
H311 C285 0.931 . S
H312 C292 0.932 . S
H313 C293 0.930 . S
H314 C294 0.929 . S
H315 C296 0.930 . S
H316 C298 0.932 . S
H317 C299 0.929 . S
H318 C300 0.928 . S
H319 C302 0.932 . S
Tb320 C330 2.825 . S
Tb320 O331 2.347 1_455 S
Tb320 O334 2.366 . S
Tb320 O339 2.418 . S
Tb320 O340 2.384 1_565 S
Tb320 O343 2.479 . S
Tb320 O344 2.471 . S
Eu321 O332 2.418 . S
Eu321 O333 2.384 1_545 S
Eu321 O336 2.479 . S
Eu321 O337 2.471 . S
Eu321 O338 2.347 1_655 S
Eu321 O341 2.366 . S
Eu321 C351 2.825 . S
C322 O338 1.259 1_565 S
C322 O339 1.265 . S
C323 O340 1.255 . S
C323 O341 1.265 1_455 S
C324 C326 1.380 . S
C324 C327 1.374 . S
C324 C330 1.507 . S
C325 C326 1.384 . S
C325 C329 1.387 . S
C325 H352 0.930 . S
C326 C324 1.380 . S
C326 C325 1.384 . S
C326 H353 0.931 . S
C327 C324 1.374 . S
C327 C328 1.390 . S
C327 H354 0.930 1_455 S
C328 C327 1.390 . S
C328 C329 1.391 . S
C328 H355 0.930 1_455 S
C329 C325 1.387 . S
C329 C328 1.391 . S
C330 Tb320 2.825 . S
C330 C324 1.507 . S
C330 O343 1.238 . S
C330 O344 1.247 . S
O331 Tb320 2.347 1_655 S
O331 C335 1.259 1_565 S
O332 Eu321 2.418 . S
O332 C335 1.265 . S
O333 Eu321 2.384 1_565 S
O333 C342 1.255 . S
O334 Tb320 2.366 . S
O334 C342 1.265 1_455 S
C335 O331 1.259 1_545 S
C335 O332 1.265 . S
O336 Eu321 2.479 . S
O336 C351 1.238 . S
O337 Eu321 2.471 . S
O337 C351 1.247 . S
O338 Eu321 2.347 1_455 S
O338 C322 1.259 1_545 S
O339 Tb320 2.418 . S
O339 C322 1.265 . S
O340 Tb320 2.384 1_545 S
O340 C323 1.255 . S
O341 Eu321 2.366 . S
O341 C323 1.265 1_655 S
C342 O333 1.255 . S
C342 O334 1.265 1_655 S
O343 Tb320 2.479 . S
O343 C330 1.238 . S
O344 Tb320 2.471 . S
O344 C330 1.247 . S
C345 C348 1.380 . S
C345 C349 1.374 . S
C345 C351 1.507 . S
C346 C347 1.387 . S
C346 C350 1.391 . S
C347 C346 1.387 . S
C347 C348 1.384 . S
C347 H356 0.930 . S
C348 C345 1.380 . S
C348 C347 1.384 . S
C348 H357 0.931 . S
C349 C345 1.374 . S
C349 C350 1.390 . S
C349 H358 0.930 1_655 S
C350 C346 1.391 . S
C350 C349 1.390 . S
C350 H359 0.930 1_655 S
C351 Eu321 2.825 . S
C351 O336 1.238 . S
C351 O337 1.247 . S
C351 C345 1.507 . S
H352 C325 0.930 . S
H353 C326 0.931 . S
H354 C327 0.930 1_655 S
H355 C328 0.930 1_655 S
H356 C347 0.930 . S
H357 C348 0.931 . S
H358 C349 0.930 1_455 S
H359 C350 0.930 1_455 S
Tb360 C370 2.825 . S
Tb360 O371 2.347 1_545 S
Tb360 O374 2.366 . S
Tb360 O379 2.418 . S
Tb360 O380 2.384 . S
Tb360 O383 2.479 . S
Tb360 O384 2.471 . S
Eu361 O372 2.418 . S
Eu361 O373 2.384 . S
Eu361 O376 2.479 . S
Eu361 O377 2.471 . S
Eu361 O378 2.347 1_565 S
Eu361 O381 2.366 . S
Eu361 C391 2.825 . S
C362 O378 1.259 . S
C362 O379 1.265 . S
C363 O380 1.255 . S
C363 O381 1.265 1_545 S
C364 C366 1.380 . S
C364 C367 1.374 . S
C364 C370 1.507 . S
C365 C366 1.384 . S
C365 C369 1.387 . S
C365 H392 0.930 . S
C366 C364 1.380 . S
C366 C365 1.384 . S
C366 H393 0.931 . S
C367 C364 1.374 . S
C367 C368 1.390 . S
C367 H394 0.930 1_545 S
C368 C367 1.390 . S
C368 C369 1.391 . S
C368 H395 0.930 1_545 S
C369 C365 1.387 . S
C369 C368 1.391 . S
C370 Tb360 2.825 . S
C370 C364 1.507 . S
C370 O383 1.238 . S
C370 O384 1.247 . S
O371 Tb360 2.347 1_565 S
O371 C375 1.259 . S
O372 Eu361 2.418 . S
O372 C375 1.265 . S
O373 Eu361 2.384 . S
O373 C382 1.255 . S
O374 Tb360 2.366 . S
O374 C382 1.265 1_545 S
C375 O371 1.259 . S
C375 O372 1.265 . S
O376 Eu361 2.479 . S
O376 C391 1.238 . S
O377 Eu361 2.471 . S
O377 C391 1.247 . S
O378 Eu361 2.347 1_545 S
O378 C362 1.259 . S
O379 Tb360 2.418 . S
O379 C362 1.265 . S
O380 Tb360 2.384 . S
O380 C363 1.255 . S
O381 Eu361 2.366 . S
O381 C363 1.265 1_565 S
C382 O373 1.255 . S
C382 O374 1.265 1_565 S
O383 Tb360 2.479 . S
O383 C370 1.238 . S
O384 Tb360 2.471 . S
O384 C370 1.247 . S
C385 C388 1.380 . S
C385 C389 1.374 . S
C385 C391 1.507 . S
C386 C387 1.387 . S
C386 C390 1.391 . S
C387 C386 1.387 . S
C387 C388 1.384 . S
C387 H396 0.930 . S
C388 C385 1.380 . S
C388 C387 1.384 . S
C388 H397 0.931 . S
C389 C385 1.374 . S
C389 C390 1.390 . S
C389 H398 0.930 1_565 S
C390 C386 1.391 . S
C390 C389 1.390 . S
C390 H399 0.930 1_565 S
C391 Eu361 2.825 . S
C391 O376 1.238 . S
C391 O377 1.247 . S
C391 C385 1.507 . S
H392 C365 0.930 . S
H393 C366 0.931 . S
H394 C367 0.930 1_565 S
H395 C368 0.930 1_565 S
H396 C387 0.930 . S
H397 C388 0.931 . S
H398 C389 0.930 1_545 S
H399 C390 0.930 1_545 S
Tb400 C410 2.825 . S
Tb400 O411 2.347 . S
Tb400 O414 2.366 . S
Tb400 O419 2.418 . S
Tb400 O420 2.384 . S
Tb400 O423 2.479 . S
Tb400 O424 2.471 . S
Eu401 O412 2.418 . S
Eu401 O413 2.384 . S
Eu401 O416 2.479 . S
Eu401 O417 2.471 . S
Eu401 O418 2.347 . S
Eu401 O421 2.366 . S
Eu401 C431 2.825 . S
C402 O418 1.259 . S
C402 O419 1.265 . S
C403 O420 1.255 . S
C403 O421 1.265 . S
C404 C406 1.380 . S
C404 C407 1.374 . S
C404 C410 1.507 . S
C405 C406 1.384 . S
C405 C409 1.387 . S
C405 H432 0.930 . S
C406 C404 1.380 . S
C406 C405 1.384 . S
C406 H433 0.931 . S
C407 C404 1.374 . S
C407 C408 1.390 . S
C407 H434 0.930 . S
C408 C407 1.390 . S
C408 C409 1.391 . S
C408 H435 0.930 . S
C409 C405 1.387 . S
C409 C408 1.391 . S
C410 Tb400 2.825 . S
C410 C404 1.507 . S
C410 O423 1.238 . S
C410 O424 1.247 . S
O411 Tb400 2.347 . S
O411 C415 1.259 . S
O412 Eu401 2.418 . S
O412 C415 1.265 . S
O413 Eu401 2.384 . S
O413 C422 1.255 . S
O414 Tb400 2.366 . S
O414 C422 1.265 . S
C415 O411 1.259 . S
C415 O412 1.265 . S
O416 Eu401 2.479 . S
O416 C431 1.238 . S
O417 Eu401 2.471 . S
O417 C431 1.247 . S
O418 Eu401 2.347 . S
O418 C402 1.259 . S
O419 Tb400 2.418 . S
O419 C402 1.265 . S
O420 Tb400 2.384 . S
O420 C403 1.255 . S
O421 Eu401 2.366 . S
O421 C403 1.265 . S
C422 O413 1.255 . S
C422 O414 1.265 . S
O423 Tb400 2.479 . S
O423 C410 1.238 . S
O424 Tb400 2.471 . S
O424 C410 1.247 . S
C425 C428 1.380 . S
C425 C429 1.374 . S
C425 C431 1.507 . S
C426 C427 1.387 . S
C426 C430 1.391 . S
C427 C426 1.387 . S
C427 C428 1.384 . S
C427 H436 0.930 . S
C428 C425 1.380 . S
C428 C427 1.384 . S
C428 H437 0.931 . S
C429 C425 1.374 . S
C429 C430 1.390 . S
C429 H438 0.930 . S
C430 C426 1.391 . S
C430 C429 1.390 . S
C430 H439 0.930 . S
C431 Eu401 2.825 . S
C431 O416 1.238 . S
C431 O417 1.247 . S
C431 C425 1.507 . S
H432 C405 0.930 . S
H433 C406 0.931 . S
H434 C407 0.930 . S
H435 C408 0.930 . S
H436 C427 0.930 . S
H437 C428 0.931 . S
H438 C429 0.930 . S
H439 C430 0.930 . S
Tb440 C450 2.825 . S
Tb440 O451 2.347 . S
Tb440 O454 2.366 . S
Tb440 O459 2.418 . S
Tb440 O460 2.384 1_655 S
Tb440 O463 2.479 . S
Tb440 O464 2.471 . S
Eu441 O452 2.418 . S
Eu441 O453 2.384 1_455 S
Eu441 O456 2.479 . S
Eu441 O457 2.471 . S
Eu441 O458 2.347 . S
Eu441 O461 2.366 . S
Eu441 C471 2.825 . S
C442 O458 1.259 1_655 S
C442 O459 1.265 . S
C443 O460 1.255 . S
C443 O461 1.265 . S
C444 C446 1.380 . S
C444 C447 1.374 . S
C444 C450 1.507 . S
C445 C446 1.384 . S
C445 C449 1.387 . S
C445 H472 0.930 . S
C446 C444 1.380 . S
C446 C445 1.384 . S
C446 H473 0.931 . S
C447 C444 1.374 . S
C447 C448 1.390 . S
C447 H474 0.930 . S
C448 C447 1.390 . S
C448 C449 1.391 . S
C448 H475 0.930 . S
C449 C445 1.387 . S
C449 C448 1.391 . S
C450 Tb440 2.825 . S
C450 C444 1.507 . S
C450 O463 1.238 . S
C450 O464 1.247 . S
O451 Tb440 2.347 . S
O451 C455 1.259 1_655 S
O452 Eu441 2.418 . S
O452 C455 1.265 . S
O453 Eu441 2.384 1_655 S
O453 C462 1.255 . S
O454 Tb440 2.366 . S
O454 C462 1.265 . S
C455 O451 1.259 1_455 S
C455 O452 1.265 . S
O456 Eu441 2.479 . S
O456 C471 1.238 . S
O457 Eu441 2.471 . S
O457 C471 1.247 . S
O458 Eu441 2.347 . S
O458 C442 1.259 1_455 S
O459 Tb440 2.418 . S
O459 C442 1.265 . S
O460 Tb440 2.384 1_455 S
O460 C443 1.255 . S
O461 Eu441 2.366 . S
O461 C443 1.265 . S
C462 O453 1.255 . S
C462 O454 1.265 . S
O463 Tb440 2.479 . S
O463 C450 1.238 . S
O464 Tb440 2.471 . S
O464 C450 1.247 . S
C465 C468 1.380 . S
C465 C469 1.374 . S
C465 C471 1.507 . S
C466 C467 1.387 . S
C466 C470 1.391 . S
C467 C466 1.387 . S
C467 C468 1.384 . S
C467 H476 0.930 . S
C468 C465 1.380 . S
C468 C467 1.384 . S
C468 H477 0.931 . S
C469 C465 1.374 . S
C469 C470 1.390 . S
C469 H478 0.930 . S
C470 C466 1.391 . S
C470 C469 1.390 . S
C470 H479 0.930 . S
C471 Eu441 2.825 . S
C471 O456 1.238 . S
C471 O457 1.247 . S
C471 C465 1.507 . S
H472 C445 0.930 . S
H473 C446 0.931 . S
H474 C447 0.930 . S
H475 C448 0.930 . S
H476 C467 0.930 . S
H477 C468 0.931 . S
H478 C469 0.930 . S
H479 C470 0.930 . S
H480 C488 0.950 . S
H481 C493 0.950 . S
H482 C490 0.950 . S
H483 C492 0.950 . S
H484 C494 0.950 . S
H485 C496 0.950 . S
H486 C498 0.950 . S
H487 C499 0.950 . S
C488 H480 0.950 . S
C488 C489 1.366 1_565 S
C488 C490 1.391 . S
C489 C488 1.366 1_545 S
C489 C493 1.415 . S
C490 H482 0.950 . S
C490 C488 1.391 . S
C490 C491 1.385 1_565 S
C491 C490 1.385 1_545 S
C491 C492 1.416 . S
C491 C497 1.490 . S
C492 H483 0.950 . S
C492 C491 1.416 . S
C492 C493 1.391 . S
C493 H481 0.950 . S
C493 C489 1.415 . S
C493 C492 1.391 . S
C494 H484 0.950 . S
C494 C495 1.386 1_545 S
C494 C496 1.391 . S
C495 C494 1.386 1_565 S
C495 C499 1.393 . S
C496 H485 0.950 . S
C496 C494 1.391 . S
C496 C497 1.400 . S
C497 C491 1.490 . S
C497 C496 1.400 . S
C497 C498 1.399 1_545 S
C498 H486 0.950 . S
C498 C497 1.399 1_565 S
C498 C499 1.391 . S
C499 H487 0.950 . S
C499 C495 1.393 . S
C499 C498 1.391 . S
H500 C508 0.950 . S
H501 C513 0.950 . S
H502 C510 0.950 . S
H503 C512 0.950 . S
H504 C514 0.950 . S
H505 C516 0.950 . S
H506 C518 0.950 . S
H507 C519 0.950 . S
C508 H500 0.950 . S
C508 C509 1.386 . S
C508 C510 1.391 . S
C509 C508 1.386 . S
C509 C513 1.393 . S
C510 H502 0.950 . S
C510 C508 1.391 . S
C510 C511 1.400 . S
C511 C510 1.400 . S
C511 C512 1.398 . S
C511 C517 1.491 . S
C512 H503 0.950 . S
C512 C511 1.398 . S
C512 C513 1.391 . S
C513 H501 0.950 . S
C513 C509 1.393 . S
C513 C512 1.391 . S
C514 H504 0.950 . S
C514 C515 1.386 . S
C514 C516 1.391 . S
C515 C514 1.386 . S
C515 C519 1.393 . S
C516 H505 0.950 . S
C516 C514 1.391 . S
C516 C517 1.400 . S
C517 C511 1.491 . S
C517 C516 1.400 . S
C517 C518 1.398 . S
C518 H506 0.950 . S
C518 C517 1.398 . S
C518 C519 1.391 . S
C519 H507 0.950 . S
C519 C515 1.393 . S
C519 C518 1.391 . S
H520 C528 0.950 . S
H521 C533 0.950 . S
H522 C530 0.950 . S
H523 C532 0.950 . S
H524 C534 0.950 . S
H525 C536 0.950 . S
H526 C538 0.950 . S
H527 C539 0.950 . S
C528 H520 0.950 . S
C528 C529 1.386 . S
C528 C530 1.391 . S
C529 C528 1.386 . S
C529 C533 1.393 . S
C530 H522 0.950 . S
C530 C528 1.391 . S
C530 C531 1.400 . S
C531 C530 1.400 . S
C531 C532 1.398 . S
C531 C537 1.491 . S
C532 H523 0.950 . S
C532 C531 1.398 . S
C532 C533 1.391 . S
C533 H521 0.950 . S
C533 C529 1.393 . S
C533 C532 1.391 . S
C534 H524 0.950 . S
C534 C535 1.386 . S
C534 C536 1.391 . S
C535 C534 1.386 . S
C535 C539 1.393 . S
C536 H525 0.950 . S
C536 C534 1.391 . S
C536 C537 1.400 . S
C537 C531 1.491 . S
C537 C536 1.400 . S
C537 C538 1.398 . S
C538 H526 0.950 . S
C538 C537 1.398 . S
C538 C539 1.391 . S
C539 H527 0.950 . S
C539 C535 1.393 . S
C539 C538 1.391 . S
H540 C548 0.950 . S
H541 C553 0.950 . S
H542 C550 0.950 . S
H543 C552 0.950 . S
H544 C554 0.950 . S
H545 C556 0.950 . S
H546 C558 0.950 . S
H547 C559 0.950 . S
C548 H540 0.950 . S
C548 C549 1.407 . S
C548 C550 1.391 . S
C549 C548 1.407 . S
C549 C553 1.374 1_455 S
C550 H542 0.950 . S
C550 C548 1.391 . S
C550 C551 1.420 . S
C551 C550 1.420 . S
C551 C552 1.381 1_455 S
C551 C557 1.490 . S
C552 H543 0.950 . S
C552 C551 1.381 1_655 S
C552 C553 1.391 . S
C553 H541 0.950 . S
C553 C549 1.374 1_655 S
C553 C552 1.391 . S
C554 H544 0.950 . S
C554 C555 1.381 1_655 S
C554 C556 1.391 . S
C555 C554 1.381 1_455 S
C555 C559 1.397 . S
C556 H545 0.950 . S
C556 C554 1.391 . S
C556 C557 1.395 1_655 S
C557 C551 1.490 . S
C557 C556 1.395 1_455 S
C557 C558 1.403 . S
C558 H546 0.950 . S
C558 C557 1.403 . S
C558 C559 1.391 . S
C559 H547 0.950 . S
C559 C555 1.397 . S
C559 C558 1.391 . S
H560 C568 0.950 . S
H561 C573 0.950 . S
H562 C570 0.950 . S
H563 C572 0.950 . S
H564 C574 0.950 . S
H565 C576 0.950 . S
H566 C578 0.950 . S
H567 C579 0.950 . S
C568 H560 0.950 . S
C568 C569 1.376 1_565 S
C568 C570 1.391 . S
C569 C568 1.376 1_545 S
C569 C573 1.402 . S
C570 H562 0.950 . S
C570 C568 1.391 . S
C570 C571 1.396 . S
C571 C570 1.396 . S
C571 C572 1.402 1_565 S
C571 C577 1.490 1_554 S
C572 H563 0.950 . S
C572 C571 1.402 1_545 S
C572 C573 1.391 . S
C573 H561 0.950 . S
C573 C569 1.402 . S
C573 C572 1.391 . S
C574 H564 0.950 . S
C574 C575 1.354 1_545 S
C574 C576 1.391 . S
C575 C574 1.354 1_565 S
C575 C579 1.425 . S
C576 H565 0.950 . S
C576 C574 1.391 . S
C576 C577 1.385 1_545 S
C577 C571 1.490 1_556 S
C577 C576 1.385 1_565 S
C577 C578 1.414 . S
C578 H566 0.950 . S
C578 C577 1.414 . S
C578 C579 1.391 . S
C579 H567 0.950 . S
C579 C575 1.425 . S
C579 C578 1.391 . S
H580 C588 0.950 . S
H581 C593 0.950 . S
H582 C590 0.950 . S
H583 C592 0.950 . S
H584 C594 0.950 . S
H585 C596 0.950 . S
H586 C598 0.950 . S
H587 C599 0.950 . S
C588 H580 0.950 . S
C588 C589 1.386 . S
C588 C590 1.391 . S
C589 C588 1.386 . S
C589 C593 1.393 . S
C590 H582 0.950 . S
C590 C588 1.391 . S
C590 C591 1.400 . S
C591 C590 1.400 . S
C591 C592 1.398 . S
C591 C597 1.491 1_554 S
C592 H583 0.950 . S
C592 C591 1.398 . S
C592 C593 1.391 . S
C593 H581 0.950 . S
C593 C589 1.393 . S
C593 C592 1.391 . S
C594 H584 0.950 . S
C594 C595 1.386 . S
C594 C596 1.391 . S
C595 C594 1.386 . S
C595 C599 1.393 . S
C596 H585 0.950 . S
C596 C594 1.391 . S
C596 C597 1.400 . S
C597 C591 1.491 1_556 S
C597 C596 1.400 . S
C597 C598 1.398 . S
C598 H586 0.950 . S
C598 C597 1.398 . S
C598 C599 1.391 . S
C599 H587 0.950 . S
C599 C595 1.393 . S
C599 C598 1.391 . S
H600 C608 0.950 . S
H601 C613 0.950 . S
H602 C610 0.950 . S
H603 C612 0.950 . S
H604 C614 0.950 . S
H605 C616 0.950 . S
H606 C618 0.950 . S
H607 C619 0.950 . S
C608 H600 0.950 . S
C608 C609 1.386 . S
C608 C610 1.391 . S
C609 C608 1.386 . S
C609 C613 1.393 . S
C610 H602 0.950 . S
C610 C608 1.391 . S
C610 C611 1.400 . S
C611 C610 1.400 . S
C611 C612 1.398 . S
C611 C617 1.491 1_554 S
C612 H603 0.950 . S
C612 C611 1.398 . S
C612 C613 1.391 . S
C613 H601 0.950 . S
C613 C609 1.393 . S
C613 C612 1.391 . S
C614 H604 0.950 . S
C614 C615 1.386 . S
C614 C616 1.391 . S
C615 C614 1.386 . S
C615 C619 1.393 . S
C616 H605 0.950 . S
C616 C614 1.391 . S
C616 C617 1.400 . S
C617 C611 1.491 1_556 S
C617 C616 1.400 . S
C617 C618 1.398 . S
C618 H606 0.950 . S
C618 C617 1.398 . S
C618 C619 1.391 . S
C619 H607 0.950 . S
C619 C615 1.393 . S
C619 C618 1.391 . S
H620 C628 0.950 . S
H621 C633 0.950 . S
H622 C630 0.950 . S
H623 C632 0.950 . S
H624 C634 0.948 1_455 S
H625 C636 0.951 . S
H626 C638 0.950 . S
H627 C639 0.950 . S
C628 H620 0.950 . S
C628 C629 1.384 1_655 S
C628 C630 1.391 . S
C629 C628 1.384 1_455 S
C629 C633 1.395 . S
C630 H622 0.950 . S
C630 C628 1.391 . S
C630 C631 1.400 . S
C631 C630 1.400 . S
C631 C632 1.398 1_655 S
C631 C637 1.489 1_554 S
C632 H623 0.950 . S
C632 C631 1.398 1_455 S
C632 C633 1.391 . S
C633 H621 0.950 . S
C633 C629 1.395 . S
C633 C632 1.391 . S
C634 H624 0.948 1_655 S
C634 C635 1.386 . S
C634 C636 1.391 1_655 S
C635 C634 1.386 . S
C635 C639 1.393 . S
C636 H625 0.951 . S
C636 C634 1.391 1_455 S
C636 C637 1.398 1_455 S
C637 C631 1.489 1_556 S
C637 C636 1.398 1_655 S
C637 C638 1.406 . S
C638 H626 0.950 . S
C638 C637 1.406 . S
C638 C639 1.391 . S
C639 H627 0.950 . S
C639 C635 1.393 . S
C639 C638 1.391 . S
H640 C648 0.950 . S
H641 C653 0.950 . S
H642 C650 0.950 1_455 S
H643 C652 0.950 . S
H644 C654 0.950 . S
H645 C656 0.950 . S
H646 C658 0.950 . S
H647 C659 0.950 . S
C648 H640 0.950 . S
C648 C649 1.386 . S
C648 C650 1.391 1_455 S
C649 C648 1.386 . S
C649 C653 1.393 1_455 S
C650 H642 0.950 1_655 S
C650 C648 1.391 1_655 S
C650 C651 1.401 . S
C651 C650 1.401 . S
C651 C652 1.398 . S
C651 C657 1.491 . S
C652 H643 0.950 . S
C652 C651 1.398 . S
C652 C653 1.391 . S
C653 H641 0.950 . S
C653 C649 1.393 1_655 S
C653 C652 1.391 . S
C654 H644 0.950 . S
C654 C655 1.386 . S
C654 C656 1.391 . S
C655 C654 1.386 . S
C655 C659 1.393 . S
C656 H645 0.950 . S
C656 C654 1.391 . S
C656 C657 1.400 . S
C657 C651 1.491 . S
C657 C656 1.400 . S
C657 C658 1.398 . S
C658 H646 0.950 . S
C658 C657 1.398 . S
C658 C659 1.391 . S
C659 H647 0.950 . S
C659 C655 1.393 . S
C659 C658 1.391 . S
H660 C668 0.950 . S
H661 C673 0.950 . S
H662 C670 0.950 . S
H663 C672 0.950 . S
H664 C674 0.950 . S
H665 C676 0.950 . S
H666 C678 0.950 . S
H667 C679 0.950 . S
C668 H660 0.950 . S
C668 C669 1.386 1_565 S
C668 C670 1.391 . S
C669 C668 1.386 1_545 S
C669 C673 1.393 . S
C670 H662 0.950 . S
C670 C668 1.391 . S
C670 C671 1.400 . S
C671 C670 1.400 . S
C671 C672 1.398 . S
C671 C677 1.491 . S
C672 H663 0.950 . S
C672 C671 1.398 . S
C672 C673 1.391 1_565 S
C673 H661 0.950 . S
C673 C669 1.393 . S
C673 C672 1.391 1_545 S
C674 H664 0.950 . S
C674 C675 1.386 . S
C674 C676 1.391 . S
C675 C674 1.386 . S
C675 C679 1.393 . S
C676 H665 0.950 . S
C676 C674 1.391 . S
C676 C677 1.400 . S
C677 C671 1.491 . S
C677 C676 1.400 . S
C677 C678 1.398 . S
C678 H666 0.950 . S
C678 C677 1.398 . S
C678 C679 1.391 . S
C679 H667 0.950 . S
C679 C675 1.393 . S
C679 C678 1.391 . S
H680 C688 0.950 . S
H681 C693 0.950 . S
H682 C690 0.950 . S
H683 C692 0.950 . S
H684 C694 0.950 . S
H685 C696 0.950 . S
H686 C698 0.950 . S
H687 C699 0.950 . S
C688 H680 0.950 . S
C688 C689 1.386 . S
C688 C690 1.391 . S
C689 C688 1.386 . S
C689 C693 1.393 . S
C690 H682 0.950 . S
C690 C688 1.391 . S
C690 C691 1.400 . S
C691 C690 1.400 . S
C691 C692 1.398 . S
C691 C697 1.491 . S
C692 H683 0.950 . S
C692 C691 1.398 . S
C692 C693 1.391 . S
C693 H681 0.950 . S
C693 C689 1.393 . S
C693 C692 1.391 . S
C694 H684 0.950 . S
C694 C695 1.386 . S
C694 C696 1.391 . S
C695 C694 1.386 . S
C695 C699 1.393 . S
C696 H685 0.950 . S
C696 C694 1.391 . S
C696 C697 1.400 . S
C697 C691 1.491 . S
C697 C696 1.400 . S
C697 C698 1.398 . S
C698 H686 0.950 . S
C698 C697 1.398 . S
C698 C699 1.391 . S
C699 H687 0.950 . S
C699 C695 1.393 . S
C699 C698 1.391 . S
H700 C708 0.950 . S
H701 C713 0.950 . S
H702 C710 0.950 . S
H703 C712 0.950 . S
H704 C714 0.950 . S
H705 C716 0.950 . S
H706 C718 0.950 . S
H707 C719 0.950 . S
C708 H700 0.950 . S
C708 C709 1.386 . S
C708 C710 1.391 . S
C709 C708 1.386 . S
C709 C713 1.393 . S
C710 H702 0.950 . S
C710 C708 1.391 . S
C710 C711 1.400 . S
C711 C710 1.400 . S
C711 C712 1.398 . S
C711 C717 1.491 . S
C712 H703 0.950 . S
C712 C711 1.398 . S
C712 C713 1.391 . S
C713 H701 0.950 . S
C713 C709 1.393 . S
C713 C712 1.391 . S
C714 H704 0.950 . S
C714 C715 1.386 . S
C714 C716 1.391 . S
C715 C714 1.386 . S
C715 C719 1.393 . S
C716 H705 0.950 . S
C716 C714 1.391 . S
C716 C717 1.400 . S
C717 C711 1.491 . S
C717 C716 1.400 . S
C717 C718 1.398 . S
C718 H706 0.950 . S
C718 C717 1.398 . S
C718 C719 1.391 . S
C719 H707 0.950 . S
C719 C715 1.393 . S
C719 C718 1.391 . S
H720 C728 0.950 . S
H721 C733 0.950 1_556 S
H722 C730 0.950 . S
H723 C732 0.950 . S
H724 C734 0.950 . S
H725 C736 0.950 . S
H726 C738 0.950 1_654 S
H727 C739 0.950 . S
C728 H720 0.950 . S
C728 C729 1.386 . S
C728 C730 1.391 . S
C729 C728 1.386 . S
C729 C733 1.393 1_655 S
C730 H722 0.950 . S
C730 C728 1.391 . S
C730 C731 1.400 1_655 S
C731 C730 1.400 1_455 S
C731 C732 1.398 1_554 S
C731 C737 1.491 1_554 S
C732 H723 0.950 . S
C732 C731 1.398 1_556 S
C732 C733 1.391 1_556 S
C733 H721 0.950 1_554 S
C733 C729 1.393 1_455 S
C733 C732 1.391 1_554 S
C734 H724 0.950 . S
C734 C735 1.386 . S
C734 C736 1.391 . S
C735 C734 1.386 . S
C735 C739 1.393 . S
C736 H725 0.950 . S
C736 C734 1.391 . S
C736 C737 1.400 . S
C737 C731 1.491 1_556 S
C737 C736 1.400 . S
C737 C738 1.398 . S
C738 H726 0.950 1_456 S
C738 C737 1.398 . S
C738 C739 1.391 . S
C739 H727 0.950 . S
C739 C735 1.393 . S
C739 C738 1.391 . S
H740 C748 0.950 . S
H741 C753 0.950 . S
H742 C750 0.950 . S
H743 C752 0.950 1_556 S
H744 C754 0.950 . S
H745 C756 0.950 . S
H746 C758 0.950 1_565 S
H747 C759 0.950 1_565 S
C748 H740 0.950 . S
C748 C749 1.386 . S
C748 C750 1.391 . S
C749 C748 1.386 . S
C749 C753 1.393 1_565 S
C750 H742 0.950 . S
C750 C748 1.391 . S
C750 C751 1.400 1_565 S
C751 C750 1.400 1_545 S
C751 C752 1.398 . S
C751 C757 1.491 1_554 S
C752 H743 0.950 1_554 S
C752 C751 1.398 . S
C752 C753 1.391 . S
C753 H741 0.950 . S
C753 C749 1.393 1_545 S
C753 C752 1.391 . S
C754 H744 0.950 . S
C754 C755 1.386 . S
C754 C756 1.391 . S
C755 C754 1.386 . S
C755 C759 1.393 . S
C756 H745 0.950 . S
C756 C754 1.391 . S
C756 C757 1.400 . S
C757 C751 1.491 1_556 S
C757 C756 1.400 . S
C757 C758 1.398 . S
C758 H746 0.950 1_545 S
C758 C757 1.398 . S
C758 C759 1.391 . S
C759 H747 0.950 1_545 S
C759 C755 1.393 . S
C759 C758 1.391 . S
H760 C768 0.950 1_556 S
H761 C773 0.950 . S
H762 C770 0.950 . S
H763 C772 0.950 . S
H764 C774 0.950 . S
H765 C776 0.949 1_554 S
H766 C778 0.950 . S
H767 C779 0.950 . S
C768 H760 0.950 1_554 S
C768 C769 1.386 . S
C768 C770 1.391 1_554 S
C769 C768 1.386 . S
C769 C773 1.393 . S
C770 H762 0.950 . S
C770 C768 1.391 1_556 S
C770 C771 1.400 1_556 S
C771 C770 1.400 1_554 S
C771 C772 1.398 . S
C771 C777 1.491 1_554 S
C772 H763 0.950 . S
C772 C771 1.398 . S
C772 C773 1.391 . S
C773 H761 0.950 . S
C773 C769 1.393 . S
C773 C772 1.391 . S
C774 H764 0.950 . S
C774 C775 1.386 . S
C774 C776 1.392 . S
C775 C774 1.386 . S
C775 C779 1.393 . S
C776 H765 0.949 1_556 S
C776 C774 1.392 . S
C776 C777 1.401 . S
C777 C771 1.491 1_556 S
C777 C776 1.401 . S
C777 C778 1.398 . S
C778 H766 0.950 . S
C778 C777 1.398 . S
C778 C779 1.391 . S
C779 H767 0.950 . S
C779 C775 1.393 . S
C779 C778 1.391 . S
H780 C788 0.948 1_556 S
H781 C793 0.950 . S
H782 C790 0.950 . S
H783 C792 0.950 . S
H784 C794 0.950 . S
H785 C796 0.950 . S
H786 C798 0.950 . S
H787 C799 0.950 . S
C788 H780 0.948 1_554 S
C788 C789 1.388 . S
C788 C790 1.390 1_554 S
C789 C788 1.388 . S
C789 C793 1.393 . S
C790 H782 0.950 . S
C790 C788 1.390 1_556 S
C790 C791 1.400 1_556 S
C791 C790 1.400 1_554 S
C791 C792 1.398 . S
C791 C797 1.491 1_554 S
C792 H783 0.950 . S
C792 C791 1.398 . S
C792 C793 1.391 . S
C793 H781 0.950 . S
C793 C789 1.393 . S
C793 C792 1.391 . S
C794 H784 0.950 . S
C794 C795 1.386 . S
C794 C796 1.391 1_556 S
C795 C794 1.386 . S
C795 C799 1.393 . S
C796 H785 0.950 . S
C796 C794 1.391 1_554 S
C796 C797 1.400 1_554 S
C797 C791 1.491 1_556 S
C797 C796 1.400 1_556 S
C797 C798 1.398 . S
C798 H786 0.950 . S
C798 C797 1.398 . S
C798 C799 1.391 . S
C799 H787 0.950 . S
C799 C795 1.393 . S
C799 C798 1.391 . S
H800 C808 0.950 . S
H801 C813 0.950 . S
H802 C810 0.950 . S
H803 C812 0.950 . S
H804 C814 0.950 . S
H805 C816 0.950 . S
H806 C818 0.950 . S
H807 C819 0.950 . S
C808 H800 0.950 . S
C808 C809 1.386 1_655 S
C808 C810 1.391 . S
C809 C808 1.386 1_455 S
C809 C813 1.393 . S
C810 H802 0.950 . S
C810 C808 1.391 . S
C810 C811 1.400 1_655 S
C811 C810 1.400 1_455 S
C811 C812 1.398 . S
C811 C817 1.491 . S
C812 H803 0.950 . S
C812 C811 1.398 . S
C812 C813 1.391 . S
C813 H801 0.950 . S
C813 C809 1.393 . S
C813 C812 1.391 . S
C814 H804 0.950 . S
C814 C815 1.386 . S
C814 C816 1.391 . S
C815 C814 1.386 . S
C815 C819 1.393 1_455 S
C816 H805 0.950 . S
C816 C814 1.391 . S
C816 C817 1.400 . S
C817 C811 1.491 . S
C817 C816 1.400 . S
C817 C818 1.398 1_455 S
C818 H806 0.950 . S
C818 C817 1.398 1_655 S
C818 C819 1.391 . S
C819 H807 0.950 . S
C819 C815 1.393 1_655 S
C819 C818 1.391 . S
H820 C828 0.950 . S
H821 C833 0.950 . S
H822 C830 0.950 . S
H823 C832 0.950 . S
H824 C834 0.950 . S
H825 C836 0.950 . S
H826 C838 0.950 . S
H827 C839 0.950 . S
C828 H820 0.950 . S
C828 C829 1.386 . S
C828 C830 1.391 . S
C829 C828 1.386 . S
C829 C833 1.393 1_545 S
C830 H822 0.950 . S
C830 C828 1.391 . S
C830 C831 1.400 . S
C831 C830 1.400 . S
C831 C832 1.398 1_545 S
C831 C837 1.491 . S
C832 H823 0.950 . S
C832 C831 1.398 1_565 S
C832 C833 1.391 . S
C833 H821 0.950 . S
C833 C829 1.393 1_565 S
C833 C832 1.391 . S
C834 H824 0.950 . S
C834 C835 1.386 1_565 S
C834 C836 1.391 . S
C835 C834 1.386 1_545 S
C835 C839 1.393 . S
C836 H825 0.950 . S
C836 C834 1.391 . S
C836 C837 1.400 1_565 S
C837 C831 1.491 . S
C837 C836 1.400 1_545 S
C837 C838 1.398 . S
C838 H826 0.950 . S
C838 C837 1.398 . S
C838 C839 1.391 . S
C839 H827 0.950 . S
C839 C835 1.393 . S
C839 C838 1.391 . S
H840 C848 0.950 . S
H841 C853 0.950 . S
H842 C850 0.950 . S
H843 C852 0.950 . S
H844 C854 0.950 . S
H845 C856 0.950 . S
H846 C858 0.950 . S
H847 C859 0.950 . S
C848 H840 0.950 . S
C848 C849 1.386 . S
C848 C850 1.391 . S
C849 C848 1.386 . S
C849 C853 1.393 . S
C850 H842 0.950 . S
C850 C848 1.391 . S
C850 C851 1.400 . S
C851 C850 1.400 . S
C851 C852 1.398 . S
C851 C857 1.491 . S
C852 H843 0.950 . S
C852 C851 1.398 . S
C852 C853 1.391 . S
C853 H841 0.950 . S
C853 C849 1.393 . S
C853 C852 1.391 . S
C854 H844 0.950 . S
C854 C855 1.386 . S
C854 C856 1.391 . S
C855 C854 1.386 . S
C855 C859 1.393 . S
C856 H845 0.950 . S
C856 C854 1.391 . S
C856 C857 1.400 . S
C857 C851 1.491 . S
C857 C856 1.400 . S
C857 C858 1.398 . S
C858 H846 0.950 . S
C858 C857 1.398 . S
C858 C859 1.391 . S
C859 H847 0.950 . S
C859 C855 1.393 . S
C859 C858 1.391 . S
H860 C868 0.950 . S
H861 C873 0.950 . S
H862 C870 0.950 . S
H863 C872 0.950 . S
H864 C874 0.950 . S
H865 C876 0.950 . S
H866 C878 0.950 . S
H867 C879 0.950 . S
C868 H860 0.950 . S
C868 C869 1.386 . S
C868 C870 1.391 . S
C869 C868 1.386 . S
C869 C873 1.393 . S
C870 H862 0.950 . S
C870 C868 1.391 . S
C870 C871 1.400 . S
C871 C870 1.400 . S
C871 C872 1.398 . S
C871 C877 1.491 . S
C872 H863 0.950 . S
C872 C871 1.398 . S
C872 C873 1.391 . S
C873 H861 0.950 . S
C873 C869 1.393 . S
C873 C872 1.391 . S
C874 H864 0.950 . S
C874 C875 1.386 . S
C874 C876 1.391 . S
C875 C874 1.386 . S
C875 C879 1.393 . S
C876 H865 0.950 . S
C876 C874 1.391 . S
C876 C877 1.400 . S
C877 C871 1.491 . S
C877 C876 1.400 . S
C877 C878 1.398 . S
C878 H866 0.950 . S
C878 C877 1.398 . S
C878 C879 1.391 . S
C879 H867 0.950 . S
C879 C875 1.393 . S
C879 C878 1.391 . S
H880 C888 0.950 . S
H881 C893 0.950 . S
H882 C890 0.950 . S
H883 C892 0.950 . S
H884 C894 0.950 . S
H885 C896 0.950 . S
H886 C898 0.950 . S
H887 C899 0.950 . S
C888 H880 0.950 . S
C888 C889 1.386 . S
C888 C890 1.391 . S
C889 C888 1.386 . S
C889 C893 1.393 1_655 S
C890 H882 0.950 . S
C890 C888 1.391 . S
C890 C891 1.400 . S
C891 C890 1.400 . S
C891 C892 1.398 1_655 S
C891 C897 1.491 . S
C892 H883 0.950 . S
C892 C891 1.398 1_455 S
C892 C893 1.391 . S
C893 H881 0.950 . S
C893 C889 1.393 1_455 S
C893 C892 1.391 . S
C894 H884 0.950 . S
C894 C895 1.386 1_455 S
C894 C896 1.391 . S
C895 C894 1.386 1_655 S
C895 C899 1.393 . S
C896 H885 0.950 . S
C896 C894 1.391 . S
C896 C897 1.400 1_455 S
C897 C891 1.491 . S
C897 C896 1.400 1_655 S
C897 C898 1.398 . S
C898 H886 0.950 . S
C898 C897 1.398 . S
C898 C899 1.391 . S
C899 H887 0.950 . S
C899 C895 1.393 . S
C899 C898 1.391 . S
H900 C908 0.950 . S
H901 C913 0.950 . S
H902 C910 0.950 . S
H903 C912 0.950 . S
H904 C914 0.950 . S
H905 C916 0.950 . S
H906 C918 0.950 . S
H907 C919 0.950 . S
C908 H900 0.950 . S
C908 C909 1.386 1_545 S
C908 C910 1.391 . S
C909 C908 1.386 1_565 S
C909 C913 1.393 . S
C910 H902 0.950 . S
C910 C908 1.391 . S
C910 C911 1.400 1_545 S
C911 C910 1.400 1_565 S
C911 C912 1.398 . S
C911 C917 1.491 . S
C912 H903 0.950 . S
C912 C911 1.398 . S
C912 C913 1.391 . S
C913 H901 0.950 . S
C913 C909 1.393 . S
C913 C912 1.391 . S
C914 H904 0.950 . S
C914 C915 1.386 . S
C914 C916 1.391 . S
C915 C914 1.386 . S
C915 C919 1.393 1_565 S
C916 H905 0.950 . S
C916 C914 1.391 . S
C916 C917 1.400 . S
C917 C911 1.491 . S
C917 C916 1.400 . S
C917 C918 1.398 1_565 S
C918 H906 0.950 . S
C918 C917 1.398 1_545 S
C918 C919 1.391 . S
C919 H907 0.950 . S
C919 C915 1.393 1_545 S
C919 C918 1.391 . S
H920 C928 0.950 . S
H921 C933 0.950 . S
H922 C930 0.950 . S
H923 C932 0.950 . S
H924 C934 0.950 . S
H925 C936 0.950 . S
H926 C938 0.950 . S
H927 C939 0.950 . S
C928 H920 0.950 . S
C928 C929 1.386 . S
C928 C930 1.391 . S
C929 C928 1.386 . S
C929 C933 1.393 . S
C930 H922 0.950 . S
C930 C928 1.391 . S
C930 C931 1.400 . S
C931 C930 1.400 . S
C931 C932 1.398 . S
C931 C937 1.491 . S
C932 H923 0.950 . S
C932 C931 1.398 . S
C932 C933 1.391 . S
C933 H921 0.950 . S
C933 C929 1.393 . S
C933 C932 1.391 . S
C934 H924 0.950 . S
C934 C935 1.386 . S
C934 C936 1.391 . S
C935 C934 1.386 . S
C935 C939 1.393 . S
C936 H925 0.950 . S
C936 C934 1.391 . S
C936 C937 1.400 . S
C937 C931 1.491 . S
C937 C936 1.400 . S
C937 C938 1.398 . S
C938 H926 0.950 . S
C938 C937 1.398 . S
C938 C939 1.391 . S
C939 H927 0.950 . S
C939 C935 1.393 . S
C939 C938 1.391 . S
H940 C948 0.950 . S
H941 C953 0.950 . S
H942 C950 0.950 . S
H943 C952 0.950 . S
H944 C954 0.950 . S
H945 C956 0.950 . S
H946 C958 0.950 . S
H947 C959 0.950 . S
C948 H940 0.950 . S
C948 C949 1.386 . S
C948 C950 1.391 . S
C949 C948 1.386 . S
C949 C953 1.393 . S
C950 H942 0.950 . S
C950 C948 1.391 . S
C950 C951 1.400 . S
C951 C950 1.400 . S
C951 C952 1.398 . S
C951 C957 1.491 . S
C952 H943 0.950 . S
C952 C951 1.398 . S
C952 C953 1.391 . S
C953 H941 0.950 . S
C953 C949 1.393 . S
C953 C952 1.391 . S
C954 H944 0.950 . S
C954 C955 1.386 . S
C954 C956 1.391 . S
C955 C954 1.386 . S
C955 C959 1.393 . S
C956 H945 0.950 . S
C956 C954 1.391 . S
C956 C957 1.400 . S
C957 C951 1.491 . S
C957 C956 1.400 . S
C957 C958 1.398 . S
C958 H946 0.950 . S
C958 C957 1.398 . S
C958 C959 1.391 . S
C959 H947 0.950 . S
C959 C955 1.393 . S
C959 C958 1.391 . S
C489 C255 2.252 . S
C495 C322 2.447 . S
C515 C362 2.458 . S
C509 C295 2.260 . S
C535 C402 2.459 . S
C529 C175 2.269 . S
C555 C442 2.455 1_455 S
C549 C215 2.267 . S
C575 C335 2.450 1_565 S
C569 C95 2.249 . S
C589 C135 2.278 . S
C595 C375 2.467 . S
C609 C15 2.268 . S
C615 C415 2.459 . S
C629 C55 2.259 . S
C635 C455 2.459 1_655 S
C655 C346 0.328 . S
C649 C221 0.386 . S
C675 C386 0.337 . S
C669 C261 0.368 . S
C695 C426 0.363 . S
C689 C301 0.346 . S
C709 C181 0.354 . S
C715 C466 0.330 . S
C729 C61 0.431 1_655 S
C735 C329 0.337 . S
C755 C369 0.353 . S
C749 C101 0.428 1_565 S
C775 C409 0.384 . S
C769 C141 0.477 . S
C789 C21 0.510 . S
C795 C449 0.390 . S
C809 C202 3.123 . S
C815 C323 3.454 . S
C829 C242 3.087 . S
C835 C363 3.439 . S
C855 C403 3.441 . S
C849 C282 3.100 . S
C875 C443 3.455 . S
C869 C162 3.108 . S
C889 C42 3.133 1_655 S
C895 C342 3.468 . S
C915 C382 3.440 . S
C909 C82 3.101 1_565 S
C935 C422 3.440 . S
C929 C122 3.118 . S
C949 C2 3.131 . S
C955 C462 3.461 . S
