# Generated by pormake.
# Topology ocu, (6,8)-cn, num edge types: 1
# Building blocks:
#     Node 0, Type 0, BuildingBlock: PAMTOO_clean_sbu_0, # of connection points: 6
#     Node 1, Type 0, BuildingBlock: PAMTOO_clean_sbu_0, # of connection points: 6
#     Node 2, Type 0, BuildingBlock: PAMTOO_clean_sbu_0, # of connection points: 6
#     Node 3, Type 0, BuildingBlock: PAMTOO_clean_sbu_0, # of connection points: 6
#     Node 4, Type 0, BuildingBlock: PAMTOO_clean_sbu_0, # of connection points: 6
#     Node 5, Type 0, BuildingBlock: PAMTOO_clean_sbu_0, # of connection points: 6
#     Node 6, Type 0, BuildingBlock: PAMTOO_clean_sbu_0, # of connection points: 6
#     Node 7, Type 0, BuildingBlock: PAMTOO_clean_sbu_0, # of connection points: 6
#     Node 8, Type 1, BuildingBlock: VETTIZ_charged_sbu_0, # of connection points: 8
#     Node 9, Type 1, BuildingBlock: VETTIZ_charged_sbu_0, # of connection points: 8
#     Node 10, Type 1, BuildingBlock: VETTIZ_charged_sbu_0, # of connection points: 8
#     Node 11, Type 1, BuildingBlock: VETTIZ_charged_sbu_0, # of connection points: 8
#     Node 12, Type 1, BuildingBlock: VETTIZ_charged_sbu_0, # of connection points: 8
#     Node 13, Type 1, BuildingBlock: VETTIZ_charged_sbu_0, # of connection points: 8
#     Edge 14, Type (0, 1), BuildingBlock: OJICUG_clean_linker_0, # of connection points: 2
#     Edge 15, Type (0, 1), BuildingBlock: OJICUG_clean_linker_0, # of connection points: 2
#     Edge 16, Type (0, 1), BuildingBlock: OJICUG_clean_linker_0, # of connection points: 2
#     Edge 17, Type (0, 1), BuildingBlock: OJICUG_clean_linker_0, # of connection points: 2
#     Edge 18, Type (0, 1), BuildingBlock: OJICUG_clean_linker_0, # of connection points: 2
#     Edge 19, Type (0, 1), BuildingBlock: OJICUG_clean_linker_0, # of connection points: 2
#     Edge 20, Type (0, 1), BuildingBlock: OJICUG_clean_linker_0, # of connection points: 2
#     Edge 21, Type (0, 1), BuildingBlock: OJICUG_clean_linker_0, # of connection points: 2
#     Edge 22, Type (0, 1), BuildingBlock: OJICUG_clean_linker_0, # of connection points: 2
#     Edge 23, Type (0, 1), BuildingBlock: OJICUG_clean_linker_0, # of connection points: 2
#     Edge 24, Type (0, 1), BuildingBlock: OJICUG_clean_linker_0, # of connection points: 2
#     Edge 25, Type (0, 1), BuildingBlock: OJICUG_clean_linker_0, # of connection points: 2
#     Edge 26, Type (0, 1), BuildingBlock: OJICUG_clean_linker_0, # of connection points: 2
#     Edge 27, Type (0, 1), BuildingBlock: OJICUG_clean_linker_0, # of connection points: 2
#     Edge 28, Type (0, 1), BuildingBlock: OJICUG_clean_linker_0, # of connection points: 2
#     Edge 29, Type (0, 1), BuildingBlock: OJICUG_clean_linker_0, # of connection points: 2
#     Edge 30, Type (0, 1), BuildingBlock: OJICUG_clean_linker_0, # of connection points: 2
#     Edge 31, Type (0, 1), BuildingBlock: OJICUG_clean_linker_0, # of connection points: 2
#     Edge 32, Type (0, 1), BuildingBlock: OJICUG_clean_linker_0, # of connection points: 2
#     Edge 33, Type (0, 1), BuildingBlock: OJICUG_clean_linker_0, # of connection points: 2
#     Edge 34, Type (0, 1), BuildingBlock: OJICUG_clean_linker_0, # of connection points: 2
#     Edge 35, Type (0, 1), BuildingBlock: OJICUG_clean_linker_0, # of connection points: 2
#     Edge 36, Type (0, 1), BuildingBlock: OJICUG_clean_linker_0, # of connection points: 2
#     Edge 37, Type (0, 1), BuildingBlock: OJICUG_clean_linker_0, # of connection points: 2
#     Edge 38, Type (0, 1), BuildingBlock: OJICUG_clean_linker_0, # of connection points: 2
#     Edge 39, Type (0, 1), BuildingBlock: OJICUG_clean_linker_0, # of connection points: 2
#     Edge 40, Type (0, 1), BuildingBlock: OJICUG_clean_linker_0, # of connection points: 2
#     Edge 41, Type (0, 1), BuildingBlock: OJICUG_clean_linker_0, # of connection points: 2
#     Edge 42, Type (0, 1), BuildingBlock: OJICUG_clean_linker_0, # of connection points: 2
#     Edge 43, Type (0, 1), BuildingBlock: OJICUG_clean_linker_0, # of connection points: 2
#     Edge 44, Type (0, 1), BuildingBlock: OJICUG_clean_linker_0, # of connection points: 2
#     Edge 45, Type (0, 1), BuildingBlock: OJICUG_clean_linker_0, # of connection points: 2
#     Edge 46, Type (0, 1), BuildingBlock: OJICUG_clean_linker_0, # of connection points: 2
#     Edge 47, Type (0, 1), BuildingBlock: OJICUG_clean_linker_0, # of connection points: 2
#     Edge 48, Type (0, 1), BuildingBlock: OJICUG_clean_linker_0, # of connection points: 2
#     Edge 49, Type (0, 1), BuildingBlock: OJICUG_clean_linker_0, # of connection points: 2
#     Edge 50, Type (0, 1), BuildingBlock: OJICUG_clean_linker_0, # of connection points: 2
#     Edge 51, Type (0, 1), BuildingBlock: OJICUG_clean_linker_0, # of connection points: 2
#     Edge 52, Type (0, 1), BuildingBlock: OJICUG_clean_linker_0, # of connection points: 2
#     Edge 53, Type (0, 1), BuildingBlock: OJICUG_clean_linker_0, # of connection points: 2
#     Edge 54, Type (0, 1), BuildingBlock: OJICUG_clean_linker_0, # of connection points: 2
#     Edge 55, Type (0, 1), BuildingBlock: OJICUG_clean_linker_0, # of connection points: 2
#     Edge 56, Type (0, 1), BuildingBlock: OJICUG_clean_linker_0, # of connection points: 2
#     Edge 57, Type (0, 1), BuildingBlock: OJICUG_clean_linker_0, # of connection points: 2
#     Edge 58, Type (0, 1), BuildingBlock: OJICUG_clean_linker_0, # of connection points: 2
#     Edge 59, Type (0, 1), BuildingBlock: OJICUG_clean_linker_0, # of connection points: 2
#     Edge 60, Type (0, 1), BuildingBlock: OJICUG_clean_linker_0, # of connection points: 2
#     Edge 61, Type (0, 1), BuildingBlock: OJICUG_clean_linker_0, # of connection points: 2
# Relax obj value: 0.293
# Max RMSD: 0.274
# Mean RMSD: 0.145
data_MOF--net-ocu--node1-PAMTOO_clean_sbu_0--node2-VETTIZ_charged_sbu_0--edge1-OJICUG_clean_linker_0
_symmetry_space_group_name_H-M    P1
_symmetry_Int_Tables_number       1
_symmetry_cell_setting            triclinic
loop_
_symmetry_equiv_pos_as_xyz
'x, y, z'
_cell_length_a     28.205811
_cell_length_b     31.059048
_cell_length_c     29.030321
_cell_angle_alpha  91.665921
_cell_angle_beta   92.939102
_cell_angle_gamma 96.93325
loop_
_atom_site_label
_atom_site_type_symbol
_atom_site_fract_x
_atom_site_fract_y
_atom_site_fract_z
_atom_type_partial_charge
Dy0 Dy 0.38861 0.33743 0.3672 0.0
Dy1 Dy 0.30142 0.31962 0.29861 0.0
C2 C 0.39795 0.27807 0.2722 0.0
O3 O 0.39684 0.39465 0.32218 0.0
O4 O 0.35117 0.36603 0.2598 0.0
O5 O 0.4572 0.32579 0.39538 0.0
O6 O 0.42708 0.38421 0.41614 0.0
O7 O 0.276 0.36918 0.34965 0.0
O8 O 0.33065 0.36325 0.40879 0.0
O9 O 0.2771 0.28217 0.35973 0.0
O10 O 0.3489 0.2772 0.3976 0.0
O11 O 0.24955 0.34176 0.25095 0.0
O12 O 0.2488 0.27166 0.26441 0.0
C13 C 0.38487 0.39506 0.2782 0.0
O14 O 0.42051 0.30372 0.30573 0.0
O15 O 0.3508 0.27422 0.26883 0.0
C16 C 0.47611 0.35344 0.46989 0.0
C17 C 0.53071 0.30853 0.52791 0.0
C18 C 0.48144 0.29444 0.52053 0.0
C19 C 0.45396 0.31712 0.49117 0.0
C20 C 0.5208 0.37341 0.48699 0.0
C21 C 0.54781 0.35136 0.51763 0.0
C22 C 0.46167 0.36055 0.42253 0.0
C23 C 0.29039 0.37702 0.39366 0.0
C24 C 0.30216 0.26577 0.39264 0.0
C25 C 0.18946 0.29167 0.2095 0.0
C26 C 0.10335 0.31652 0.17846 0.0
C27 C 0.14454 0.3287 0.15428 0.0
C28 C 0.1879 0.31636 0.17014 0.0
C29 C 0.1472 0.27108 0.22618 0.0
C30 C 0.10368 0.28358 0.21046 0.0
C31 C 0.23011 0.30181 0.24188 0.0
H32 H 0.46612 0.26231 0.52943 0.0
H33 H 0.41867 0.30214 0.4789 0.0
H34 H 0.53761 0.40232 0.47154 0.0
H35 H 0.58498 0.36397 0.52533 0.0
H36 H 0.14525 0.35364 0.12889 0.0
H37 H 0.22058 0.33196 0.15671 0.0
H38 H 0.14819 0.25148 0.25643 0.0
H39 H 0.0719 0.27305 0.22856 0.0
Dy40 Dy 0.8809 0.32296 0.28967 0.0
Dy41 Dy 0.80438 0.33252 0.36354 0.0
C42 C 0.91213 0.38752 0.37879 0.0
O43 O 0.91594 0.29187 0.35071 0.0
O44 O 0.84888 0.27863 0.39142 0.0
O45 O 0.93263 0.34375 0.24017 0.0
O46 O 0.90932 0.27535 0.24648 0.0
O47 O 0.76094 0.29401 0.3039 0.0
O48 O 0.82493 0.26506 0.27905 0.0
O49 O 0.78069 0.38044 0.31204 0.0
O50 O 0.82917 0.36719 0.2539 0.0
O51 O 0.74756 0.30818 0.40647 0.0
O52 O 0.77565 0.37623 0.41111 0.0
C53 C 0.89435 0.27257 0.38516 0.0
O54 O 0.92447 0.37239 0.33876 0.0
O55 O 0.86893 0.37678 0.3928 0.0
C56 C 0.90957 0.30328 0.17248 0.0
C57 C 0.87377 0.36 0.11246 0.0
C58 C 0.9208 0.35018 0.10838 0.0
C59 C 0.93873 0.32121 0.13883 0.0
C60 C 0.85981 0.30259 0.1655 0.0
C61 C 0.84162 0.32986 0.13359 0.0
C62 C 0.92906 0.30506 0.22038 0.0
C63 C 0.77863 0.26618 0.2765 0.0
C64 C 0.79303 0.38671 0.26937 0.0
C65 C 0.76733 0.33938 0.47997 0.0
C66 C 0.7991 0.27516 0.53243 0.0
C67 C 0.83286 0.30735 0.51675 0.0
C68 C 0.81673 0.3398 0.4901 0.0
C69 C 0.73547 0.31642 0.50844 0.0
C70 C 0.75209 0.28516 0.53678 0.0
C71 C 0.75194 0.34429 0.43154 0.0
H72 H 0.94586 0.37122 0.08957 0.0
H73 H 0.97637 0.31846 0.14137 0.0
H74 H 0.83597 0.28811 0.19022 0.0
H75 H 0.80431 0.33472 0.13465 0.0
H76 H 0.86994 0.30171 0.51525 0.0
H77 H 0.84247 0.35896 0.47055 0.0
H78 H 0.6974 0.31707 0.50285 0.0
H79 H 0.72574 0.26188 0.55139 0.0
Dy80 Dy 0.80121 0.77124 0.39325 0.0
Dy81 Dy 0.83924 0.83743 0.31551 0.0
C82 C 0.8728 0.85547 0.4197 0.0
O83 O 0.76189 0.82621 0.40171 0.0
O84 O 0.76763 0.85567 0.33058 0.0
O85 O 0.78742 0.75702 0.46407 0.0
O86 O 0.76257 0.70999 0.40884 0.0
O87 O 0.8066 0.77644 0.27845 0.0
O88 O 0.75065 0.75978 0.3308 0.0
O89 O 0.89784 0.79909 0.33422 0.0
O90 O 0.85241 0.73794 0.35444 0.0
O91 O 0.83507 0.86281 0.24741 0.0
O92 O 0.89322 0.88797 0.29649 0.0
C93 C 0.74967 0.8533 0.37126 0.0
O94 O 0.86694 0.81318 0.42502 0.0
O95 O 0.85205 0.87168 0.38392 0.0
C96 C 0.80434 0.68545 0.47056 0.0
C97 C 0.87442 0.63046 0.46266 0.0
C98 C 0.88723 0.67368 0.4779 0.0
C99 C 0.85244 0.70096 0.48222 0.0
C100 C 0.79116 0.64106 0.45993 0.0
C101 C 0.82631 0.61346 0.45611 0.0
C102 C 0.77365 0.71624 0.45284 0.0
C103 C 0.76604 0.75495 0.28927 0.0
C104 C 0.89031 0.75694 0.33584 0.0
C105 C 0.85274 0.93708 0.256 0.0
C106 C 0.79779 1.00462 0.24135 0.0
C107 C 0.79693 0.98415 0.28356 0.0
C108 C 0.82454 0.95061 0.29097 0.0
C109 C 0.85674 0.95977 0.21542 0.0
C110 C 0.82955 0.99366 0.20817 0.0
C111 C 0.86881 0.89452 0.25854 0.0
H112 H 0.92441 0.68671 0.48504 0.0
H113 H 0.86395 0.73503 0.49031 0.0
H114 H 0.75431 0.62876 0.45019 0.0
H115 H 0.81628 0.57964 0.44591 0.0
H116 H 0.77242 0.99193 0.30922 0.0
H117 H 0.82092 0.93301 0.3225 0.0
H118 H 0.87777 0.94915 0.18801 0.0
H119 H 0.83001 1.00838 0.17478 0.0
Dy120 Dy 0.29559 0.85327 0.31207 0.0
Dy121 Dy 0.37686 0.79647 0.33213 0.0
C122 C 0.38501 0.88864 0.37866 0.0
O123 O 0.34269 0.87896 0.25639 0.0
O124 O 0.40637 0.84262 0.27536 0.0
O125 O 0.26182 0.91203 0.31675 0.0
O126 O 0.22353 0.8538 0.28323 0.0
O127 O 0.31496 0.74904 0.30332 0.0
O128 O 0.28395 0.79868 0.25995 0.0
O129 O 0.324 0.76396 0.37946 0.0
O130 O 0.27181 0.81448 0.37635 0.0
O131 O 0.42344 0.75024 0.31232 0.0
O132 O 0.43304 0.78274 0.38044 0.0
C133 C 0.38723 0.87216 0.25046 0.0
O134 O 0.35616 0.89945 0.34544 0.0
O135 O 0.38462 0.84782 0.38767 0.0
C136 C 0.18861 0.88429 0.34402 0.0
C137 C 0.13279 0.86646 0.41969 0.0
C138 C 0.183 0.87198 0.42526 0.0
C139 C 0.21015 0.88263 0.38836 0.0
C140 C 0.13944 0.87155 0.33661 0.0
C141 C 0.11151 0.86235 0.3744 0.0
C142 C 0.22013 0.88989 0.30601 0.0
C143 C 0.2826 0.75859 0.27262 0.0
C144 C 0.28548 0.7787 0.39417 0.0
C145 C 0.50147 0.7729 0.34205 0.0
C146 C 0.58841 0.76714 0.30577 0.0
C147 C 0.55898 0.79632 0.28668 0.0
C148 C 0.51389 0.79726 0.3036 0.0
C149 C 0.53745 0.75734 0.3695 0.0
C150 C 0.58294 0.7576 0.35248 0.0
C151 C 0.45138 0.75931 0.34971 0.0
H152 H 0.20189 0.8735 0.45878 0.0
H153 H 0.24849 0.88992 0.39501 0.0
H154 H 0.12271 0.86979 0.30208 0.0
H155 H 0.073 0.85643 0.36865 0.0
H156 H 0.56475 0.80922 0.25289 0.0
H157 H 0.48738 0.81225 0.28355 0.0
H158 H 0.52919 0.74085 0.40102 0.0
H159 H 0.60811 0.73932 0.3704 0.0
Dy160 Dy 0.38008 0.82874 0.79027 0.0
Dy161 Dy 0.3057 0.83536 0.86287 0.0
C162 C 0.39373 0.90479 0.86116 0.0
O163 O 0.40401 0.78033 0.84277 0.0
O164 O 0.36021 0.79778 0.90276 0.0
O165 O 0.4361 0.85154 0.74654 0.0
O166 O 0.40639 0.78312 0.74368 0.0
O167 O 0.29138 0.76786 0.83332 0.0
O168 O 0.31177 0.79289 0.76468 0.0
O169 O 0.26692 0.86129 0.80024 0.0
O170 O 0.33317 0.87924 0.75974 0.0
O171 O 0.23355 0.82902 0.884 0.0
O172 O 0.29181 0.86088 0.9299 0.0
C173 C 0.39398 0.77598 0.88659 0.0
O174 O 0.41684 0.87454 0.8444 0.0
O175 O 0.34728 0.89987 0.85708 0.0
C176 C 0.42152 0.81619 0.6741 0.0
C177 C 0.43645 0.84856 0.58855 0.0
C178 C 0.39868 0.86172 0.61313 0.0
C179 C 0.39264 0.84666 0.65735 0.0
C180 C 0.44596 0.79294 0.64306 0.0
C181 C 0.4505 0.80759 0.59826 0.0
C182 C 0.43192 0.81416 0.72356 0.0
C183 C 0.29082 0.7624 0.78863 0.0
C184 C 0.28692 0.882 0.76567 0.0
C185 C 0.23514 0.80971 0.95967 0.0
C186 C 0.20915 0.73046 0.99914 0.0
C187 C 0.17389 0.75573 0.98369 0.0
C188 C 0.18688 0.79537 0.96422 0.0
C189 C 0.27048 0.78528 0.97699 0.0
C190 C 0.25752 0.74578 0.99658 0.0
C191 C 0.24763 0.84218 0.92618 0.0
H192 H 0.38275 0.8906 0.60416 0.0
H193 H 0.3707 0.86294 0.68009 0.0
H194 H 0.46609 0.76735 0.65478 0.0
H195 H 0.47601 0.79407 0.57714 0.0
H196 H 0.13636 0.74426 0.98577 0.0
H197 H 0.15951 0.81335 0.94975 0.0
H198 H 0.30806 0.79544 0.97316 0.0
H199 H 0.28513 0.72663 1.00839 0.0
Dy200 Dy 0.37582 0.34 0.79878 0.0
Dy201 Dy 0.29668 0.32209 0.86928 0.0
C202 C 0.28449 0.27216 0.7735 0.0
O203 O 0.32861 0.38946 0.77576 0.0
O204 O 0.26771 0.37256 0.82392 0.0
O205 O 0.39823 0.3348 0.72953 0.0
O206 O 0.44866 0.36234 0.78484 0.0
O207 O 0.34961 0.37559 0.90441 0.0
O208 O 0.39282 0.39883 0.84355 0.0
O209 O 0.34586 0.27818 0.89831 0.0
O210 O 0.40301 0.28729 0.84539 0.0
O211 O 0.27004 0.32055 0.93727 0.0
O212 O 0.22354 0.29636 0.87786 0.0
C213 C 0.28577 0.39446 0.78921 0.0
O214 O 0.31362 0.3036 0.75817 0.0
O215 O 0.28445 0.26614 0.81783 0.0
C216 C 0.47327 0.31237 0.73444 0.0
C217 C 0.53123 0.24787 0.72031 0.0
C218 C 0.48356 0.23652 0.73087 0.0
C219 C 0.45486 0.26869 0.7385 0.0
C220 C 0.52136 0.32401 0.7266 0.0
C221 C 0.55052 0.29177 0.71999 0.0
C222 C 0.44296 0.34544 0.74309 0.0
C223 C 0.38291 0.40279 0.88663 0.0
C224 C 0.38654 0.26923 0.88335 0.0
C225 C 0.19216 0.33612 0.93567 0.0
C226 C 0.14747 0.40472 0.96772 0.0
C227 C 0.16267 0.37478 0.99874 0.0
C228 C 0.18493 0.34043 0.98269 0.0
C229 C 0.1742 0.36465 0.90425 0.0
C230 C 0.15151 0.3989 0.92036 0.0
C231 C 0.22634 0.30793 0.92148 0.0
H232 H 0.4677 0.20297 0.73097 0.0
H233 H 0.41799 0.25937 0.74655 0.0
H234 H 0.53612 0.3578 0.72534 0.0
H235 H 0.58764 0.30108 0.71297 0.0
H236 H 0.15897 0.37904 1.03554 0.0
H237 H 0.19924 0.31898 1.00719 0.0
H238 H 0.18003 0.362 0.86775 0.0
H239 H 0.13944 0.42192 0.89639 0.0
Dy240 Dy 0.79856 0.34898 0.80093 0.0
Dy241 Dy 0.88123 0.30627 0.856 0.0
C242 C 0.85588 0.39901 0.88766 0.0
O243 O 0.86598 0.38209 0.77544 0.0
O244 O 0.91577 0.3307 0.79161 0.0
O245 O 0.76378 0.40109 0.77254 0.0
O246 O 0.73553 0.33407 0.75554 0.0
O247 O 0.83934 0.25306 0.81071 0.0
O248 O 0.82278 0.29858 0.7546 0.0
O249 O 0.82134 0.30143 0.90361 0.0
O250 O 0.7607 0.30286 0.84882 0.0
O251 O 0.91511 0.25068 0.87643 0.0
O252 O 0.94208 0.31433 0.90518 0.0
C253 C 0.90556 0.36496 0.76901 0.0
O254 O 0.81297 0.39039 0.86689 0.0
O255 O 0.89022 0.37637 0.87686 0.0
C256 C 0.68133 0.38364 0.76872 0.0
C257 C 0.6212 0.42449 0.82336 0.0
C258 C 0.63192 0.38295 0.83426 0.0
C259 C 0.66236 0.36265 0.8071 0.0
C260 C 0.66318 0.42088 0.75312 0.0
C261 C 0.63256 0.44115 0.78029 0.0
C262 C 0.72784 0.37456 0.75416 0.0
C263 C 0.82598 0.25912 0.76767 0.0
C264 C 0.77575 0.29458 0.89077 0.0
C265 C 0.99731 0.26953 0.87954 0.0
C266 C 1.05108 0.24788 0.8067 0.0
C267 C 1.03697 0.21663 0.83895 0.0
C268 C 1.01023 0.22754 0.87551 0.0
C269 C 1.01915 0.30238 0.85246 0.0
C270 C 1.04629 0.2915 0.81618 0.0
C271 C 0.95102 0.27463 0.89808 0.0
H272 H 0.62351 0.36948 0.86732 0.0
H273 H 0.67581 0.33367 0.81958 0.0
H274 H 0.67746 0.43727 0.72347 0.0
H275 H 0.62418 0.47311 0.77132 0.0
H276 H 1.04049 0.18267 0.83243 0.0
H277 H 0.99382 0.20186 0.8961 0.0
H278 H 1.01021 0.33529 0.85514 0.0
H279 H 1.05832 0.31609 0.79226 0.0
Dy280 Dy 0.88533 0.84176 0.87047 0.0
Dy281 Dy 0.80733 0.82053 0.79623 0.0
C282 C 0.91123 0.774 0.78566 0.0
O283 O 0.91659 0.87353 0.8083 0.0
O284 O 0.84731 0.88135 0.76839 0.0
O285 O 0.93317 0.89734 0.89725 0.0
O286 O 0.92774 0.83655 0.933 0.0
O287 O 0.76524 0.86519 0.84229 0.0
O288 O 0.82592 0.88318 0.89613 0.0
O289 O 0.77766 0.78549 0.85644 0.0
O290 O 0.84513 0.78295 0.90132 0.0
O291 O 0.75286 0.82683 0.74311 0.0
O292 O 0.76874 0.76288 0.76356 0.0
C293 C 0.89378 0.89235 0.77569 0.0
O294 O 0.92301 0.78985 0.82881 0.0
O295 O 0.87012 0.78485 0.76684 0.0
C296 C 1.00164 0.87864 0.93709 0.0
C297 C 1.06887 0.83122 0.97373 0.0
C298 C 1.06191 0.83142 0.92543 0.0
C299 C 1.02606 0.8541 0.907 0.0
C300 C 1.02175 0.89021 0.98135 0.0
C301 C 1.05733 0.86722 0.99946 0.0
C302 C 0.94999 0.87583 0.93089 0.0
C303 C 0.78089 0.887 0.88162 0.0
C304 C 0.79961 0.76976 0.89156 0.0
C305 C 0.74668 0.77146 0.68632 0.0
C306 C 0.74493 0.78961 0.59424 0.0
C307 C 0.7889 0.78365 0.61674 0.0
C308 C 0.78994 0.77725 0.66415 0.0
C309 C 0.70362 0.76234 0.66009 0.0
C310 C 0.70311 0.76916 0.61291 0.0
C311 C 0.74529 0.78483 0.73453 0.0
H312 H 0.07373 0.80594 0.90417 0.0
H313 H 1.01174 0.84596 0.87205 0.0
H314 H 1.0043 0.91052 1.00447 0.0
H315 H 1.0656 0.87049 1.03634 0.0
H316 H 0.82215 0.79523 0.60153 0.0
H317 H 0.82386 0.78265 0.68391 0.0
H318 H 0.67003 0.75576 0.67661 0.0
H319 H 0.66842 0.76857 0.59496 0.0
Fe320 Fe 0.09546 0.12336 0.55481 0.0
O321 O 1.04337 0.07856 0.5734 0.0
Fe322 Fe 0.198 0.07512 0.58848 0.0
Fe323 Fe 0.97644 0.0829 0.58065 0.0
O324 O 0.13145 0.08239 0.59334 0.0
O325 O 0.12949 0.07632 0.60684 0.0
O326 O 1.04199 0.07344 0.57047 0.0
Fe327 Fe 0.07868 1.02584 0.59377 0.0
C328 C 1.04017 0.16103 0.63203 0.0
O329 O 1.04709 0.16276 0.51891 0.0
O330 O 0.97451 0.1229 0.5228 0.0
O331 O 0.10667 1.02658 0.53089 0.0
O332 O 0.18232 1.01892 0.54605 0.0
O333 O 0.2048 0.11598 0.53111 0.0
O334 O 0.15172 0.16385 0.53159 0.0
O335 O 0.96281 1.02423 0.54299 0.0
O336 O 1.02046 0.98066 0.56665 0.0
C337 C 0.19089 0.15203 0.51869 0.0
O338 O 0.12921 0.98343 0.62463 0.0
O339 O 0.19594 1.03207 0.64275 0.0
O340 O 0.07959 0.15767 0.61212 0.0
O341 O 0.99927 0.13829 0.62195 0.0
C342 C 1.00125 0.15551 0.5072 0.0
C343 C 0.98077 0.98734 0.54373 0.0
C344 C 1.0005 1.02297 0.6631 0.0
O345 O 0.97396 0.04388 0.63724 0.0
O346 O 1.04565 1.02354 0.65739 0.0
C347 C 0.14198 1.00675 0.52461 0.0
O348 O 0.20503 0.13134 0.62919 0.0
O349 O 0.13204 0.15931 0.61544 0.0
C350 C 0.17198 0.994 0.64611 0.0
C351 C 0.17495 0.15923 0.63674 0.0
Fe352 Fe 0.57487 1.0396 0.05962 0.0
O353 O 0.61046 0.09269 1.03265 0.0
Fe354 Fe 0.46649 0.08446 0.08321 0.0
Fe355 Fe 0.6812 0.10232 1.0368 0.0
O356 O 0.5373 0.08618 0.08644 0.0
O357 O 0.53682 0.09248 0.08757 0.0
O358 O 0.60991 0.1002 1.03347 0.0
Fe359 Fe 0.57563 0.1461 0.06653 0.0
C360 C 0.6632 0.0531 0.11957 0.0
O361 O 0.62501 0.99858 1.02193 0.0
O362 O 0.67632 0.04956 0.98735 0.0
O363 O 0.53014 0.15142 1.00766 0.0
O364 O 0.45966 0.13445 1.03712 0.0
O365 O 0.45888 1.0401 1.02808 0.0
O366 O 0.53082 1.03162 1.00203 0.0
O367 O 0.67376 0.15361 0.99513 0.0
O368 O 0.62413 0.19394 1.03599 0.0
C369 C 0.48551 1.02704 0.99762 0.0
O370 O 0.53133 0.185 0.10866 0.0
O371 O 0.47413 0.13333 0.1349 0.0
O372 O 0.61808 0.0476 0.11844 0.0
O373 O 0.68565 0.05533 0.08301 0.0
C374 C 0.66021 1.00879 0.9929 0.0
C375 C 0.65572 0.18918 1.00498 0.0
C376 C 0.66721 0.15958 0.12556 0.0
O377 O 0.69082 0.14951 0.09115 0.0
O378 O 0.62202 0.14859 0.12534 0.0
C379 C 0.48522 0.15406 1.00722 0.0
O380 O 0.47147 1.03218 0.1257 0.0
O381 O 0.52747 0.9914 0.09669 0.0
C382 C 0.49574 0.17281 0.13567 0.0
C383 C 0.49153 0.99664 0.12356 0.0
Fe384 Fe 1.02572 0.62671 0.1466 0.0
O385 O 0.9747 0.59613 0.10287 0.0
Fe386 Fe 0.09479 0.54881 0.18428 0.0
Fe387 Fe 0.9116 0.61391 0.08882 0.0
O388 O 1.03238 0.57009 0.17436 0.0
O389 O 1.03023 0.56746 0.17417 0.0
O390 O 0.97416 0.59385 0.10124 0.0
Fe391 Fe 0.98131 0.53719 0.12763 0.0
C392 C 0.93896 0.65319 0.18692 0.0
O393 O 1.01421 0.6828 0.11482 0.0
O394 O 0.95336 0.66422 0.05902 0.0
O395 O 1.03163 0.52947 0.08217 0.0
O396 O 0.08769 0.50651 0.12846 0.0
O397 O 0.13091 0.5935 0.14376 0.0
O398 O 0.07313 0.61603 0.09894 0.0
O399 O 0.90741 0.56741 1.03418 0.0
O400 O 0.93264 0.51044 0.07425 0.0
C401 C 0.11587 0.60832 0.10617 0.0
O402 O 0.99386 0.48112 0.15928 0.0
O403 O 1.05423 0.49905 0.21612 0.0
O404 O 0.97766 0.63685 0.19334 0.0
O405 O 0.91586 0.65365 0.14787 0.0
C406 C 0.99137 0.6886 0.07624 0.0
C407 C 0.91306 0.52645 1.03793 0.0
C408 C 0.88632 0.53965 0.15374 0.0
O409 O 0.87276 0.5635 0.12186 0.0
O410 O 0.92874 0.54756 0.17087 0.0
C411 C 0.06964 0.5125 0.0886 0.0
O412 O 0.10699 0.59883 0.23465 0.0
O413 O 0.08197 0.65407 0.19235 0.0
C414 C 1.0218 0.47167 0.19344 0.0
C415 C 0.10924 0.63968 0.22444 0.0
Fe416 Fe 0.58725 0.60718 1.03237 0.0
O417 O 0.63145 0.57626 0.07419 0.0
Fe418 Fe 0.4817 0.59297 0.0914 0.0
Fe419 Fe 0.69816 0.56853 0.07042 0.0
O420 O 0.54537 0.58234 0.08059 0.0
O421 O 0.54669 0.58051 0.08542 0.0
O422 O 0.63274 0.57422 0.07847 0.0
Fe423 Fe 0.59118 0.54945 0.12676 0.0
C424 C 0.6307 0.53014 0.98649 0.0
O425 O 0.63994 0.63227 0.9889 0.0
O426 O 0.70717 0.62523 1.03288 0.0
O427 O 0.58676 0.60704 0.16456 0.0
O428 O 0.51136 0.62958 0.14934 0.0
O429 O 0.48531 0.64856 1.0485 0.0
O430 O 0.53663 0.63986 0.99349 0.0
O431 O 0.70995 0.60454 0.13225 0.0
O432 O 0.63511 0.60227 0.16296 0.0
C433 C 0.50027 0.65711 1.00791 0.0
O434 O 0.54018 0.52617 0.1717 0.0
O435 O 0.47143 0.53831 0.13277 0.0
O436 O 0.59373 0.55066 0.99374 0.0
O437 O 0.67233 0.53517 1.00926 0.0
C438 C 0.68512 0.64218 0.99935 0.0
C439 C 0.68088 0.61691 0.16199 0.0
C440 C 0.68012 0.50136 0.15009 0.0
O441 O 0.6951 0.51085 0.10975 0.0
O442 O 0.64304 0.51734 0.16477 0.0
C443 C 0.55343 0.63213 0.17074 0.0
O444 O 0.46703 0.55492 1.03172 0.0
O445 O 0.54039 0.5533 0.99803 0.0
C446 C 0.49443 0.51942 0.16432 0.0
C447 C 0.49417 0.54007 1.00147 0.0
Fe448 Fe 0.10992 0.51167 0.59501 0.0
O449 O 0.08063 0.55896 0.63119 0.0
Fe450 Fe 0.14275 0.5656 0.49662 0.0
Fe451 Fe 0.0788 0.56235 0.69987 0.0
O452 O 0.14204 0.56386 0.56453 0.0
O453 O 0.14147 0.57115 0.56568 0.0
O454 O 0.08096 0.56553 0.63267 0.0
Fe455 Fe 0.10781 0.61781 0.59874 0.0
C456 C 1.03578 0.47159 0.66465 0.0
O457 O 0.16719 0.51233 0.64416 0.0
O458 O 0.12855 0.51798 0.70874 0.0
O459 O 0.14486 0.66525 0.55196 0.0
O460 O 0.18797 0.62256 0.50734 0.0
O461 O 0.19159 0.52106 0.50492 0.0
O462 O 0.14914 0.47103 0.54934 0.0
O463 O 0.13276 0.61199 0.71175 0.0
O464 O 0.16485 0.63058 0.645 0.0
C465 C 0.18181 0.48171 0.51873 0.0
O466 O 1.05121 0.6038 0.55351 0.0
O467 O 0.08888 0.60373 0.48828 0.0
O468 O 1.06837 0.4655 0.63496 0.0
O469 O 1.03026 0.50826 0.68544 0.0
C470 C 0.16292 0.5051 0.68709 0.0
C471 C 0.16596 0.63094 0.68888 0.0
C472 C 1.03528 0.6505 0.67831 0.0
O473 O 1.0318 0.61204 0.69608 0.0
O474 O 1.06388 0.65933 0.64313 0.0
C475 C 0.17777 0.66024 0.52144 0.0
O476 O 0.09311 0.51122 0.48343 0.0
O477 O 1.05142 0.50344 0.54573 0.0
C478 C 1.05094 0.59834 0.51011 0.0
C479 C 1.05569 0.49561 0.50263 0.0
Fe480 Fe 0.63012 1.01376 0.53362 0.0
O481 O 0.67813 0.04475 0.57987 0.0
Fe482 Fe 0.62856 0.07962 0.43938 0.0
Fe483 Fe 0.67356 1.03543 0.64636 0.0
O484 O 0.62293 0.07015 0.50586 0.0
O485 O 0.62505 0.07251 0.50629 0.0
O486 O 0.67897 0.04715 0.5809 0.0
Fe487 Fe 0.67411 0.10328 0.55174 0.0
C488 C 0.57268 0.99948 0.60939 0.0
O489 O 0.6446 0.95762 0.56593 0.0
O490 O 0.70065 0.97971 0.62562 0.0
O491 O 0.72606 0.0878 0.51056 0.0
O492 O 0.69818 0.11211 0.44564 0.0
O493 O 0.65411 1.02282 0.42437 0.0
O494 O 0.68367 1.00473 0.49232 0.0
O495 O 0.73648 0.0792 0.65515 0.0
O496 O 0.72347 0.13169 0.60306 0.0
C497 C 0.68004 1.00092 0.44881 0.0
O498 O 0.66477 0.15926 0.51677 0.0
O499 O 0.60766 0.13812 0.45788 0.0
O500 O 0.57756 1.02435 0.57612 0.0
O501 O 0.60798 0.99723 0.6381 0.0
C502 C 0.68121 0.95207 0.59324 0.0
C503 C 0.74419 0.11854 0.6402 0.0
C504 C 0.61901 0.11412 0.63571 0.0
O505 O 0.6403 0.08849 0.66039 0.0
O506 O 0.62143 0.1166 0.59233 0.0
C507 C 0.73316 0.10925 0.47496 0.0
O508 O 0.56193 1.04136 0.43558 0.0
O509 O 0.57804 0.98632 0.48369 0.0
C510 C 0.63022 0.16615 0.48781 0.0
C511 C 0.5516 1.00297 0.45239 0.0
C512 C 0.29738 0.20852 0.45519 0.0
C513 C 0.27505 0.23605 0.42547 0.0
H514 H 0.28878 0.16002 0.50696 0.0
C515 C 0.22492 0.23525 0.42705 0.0
H516 H 0.33571 0.20806 0.45531 0.0
C517 C 0.19823 0.20845 0.45717 0.0
C518 C 0.22023 0.18046 0.48644 0.0
H519 H 0.20594 0.25589 0.40515 0.0
H520 H 0.15995 0.20936 0.45708 0.0
C521 C 0.27031 0.18077 0.48477 0.0
C522 C 0.97325 0.24873 0.423 0.0
C523 C 0.92239 0.24305 0.41656 0.0
H524 H 1.03761 0.22773 0.45514 0.0
C525 C 0.89935 0.20758 0.43945 0.0
H526 H 0.99355 0.27487 0.40595 0.0
C527 C 0.9247 0.18032 0.46797 0.0
C528 C 0.97541 0.18616 0.47521 0.0
H529 H 0.86137 0.19965 0.4339 0.0
H530 H 0.90388 0.15402 0.48431 0.0
C531 C 0.99899 0.22132 0.45166 0.0
C532 C 0.9368 0.87571 0.48497 0.0
C533 C 0.90027 0.88672 0.45412 0.0
H534 H 0.99185 0.89879 0.53745 0.0
C535 C 0.89077 0.93004 0.45401 0.0
H536 H 0.94536 0.84266 0.48555 0.0
C537 C 0.91667 0.96156 0.48328 0.0
C538 C 0.95359 0.9514 0.51404 0.0
H539 H 0.86302 0.94002 0.43093 0.0
H540 H 0.90771 0.9944 0.48102 0.0
C541 C 0.96353 0.9079 0.51451 0.0
C542 C 0.12968 0.88601 0.50247 0.0
C543 C 0.10686 0.8837 0.45789 0.0
H544 H 0.1675 0.92959 0.55467 0.0
C545 C 0.08131 0.9181 0.44554 0.0
H546 H 0.14549 0.85836 0.51554 0.0
C547 C 0.09475 0.95863 0.46662 0.0
C548 C 0.12978 0.96375 0.50313 0.0
H549 H 1.0587 0.91655 0.4141 0.0
H550 H 0.07941 0.98632 0.45298 0.0
C551 C 0.14433 0.92683 0.52352 0.0
C552 C 0.27783 0.94094 0.70506 0.0
C553 C 0.25653 0.90892 0.73368 0.0
H554 H 0.26939 0.99127 0.6569 0.0
C555 C 0.20546 0.90388 0.73173 0.0
H556 H 0.31645 0.94684 0.70488 0.0
C557 C 0.17755 0.92928 0.70271 0.0
C558 C 0.1992 0.96194 0.67474 0.0
H559 H 0.18669 0.88 0.75288 0.0
H560 H 0.13894 0.92411 0.70334 0.0
C561 C 0.25018 0.96681 0.67708 0.0
C562 C 0.24043 0.25984 0.69589 0.0
C563 C 0.25057 0.24499 0.74036 0.0
H564 H 0.20632 0.24469 0.62843 0.0
C565 C 0.22849 0.20412 0.75215 0.0
H566 H 0.25624 0.29148 0.68588 0.0
C567 C 0.20013 0.17741 0.71904 0.0
C568 C 0.19171 0.19161 0.67408 0.0
H569 H 0.23509 0.19187 0.78614 0.0
H570 H 0.18653 0.14474 0.72792 0.0
C571 C 0.21111 0.23348 0.66317 0.0
C572 C 1.02527 0.24499 0.72366 0.0
C573 C 1.05659 0.23293 0.75915 0.0
H574 H 0.99453 0.23046 0.65484 0.0
C575 C 0.08417 0.19929 0.75101 0.0
H576 H 1.00269 0.27023 0.72958 0.0
C577 C 0.07831 0.17617 0.70915 0.0
C578 C 1.04569 0.18698 0.67463 0.0
H579 H 0.10788 0.18914 0.77804 0.0
H580 H 0.09778 0.14852 0.70435 0.0
C581 C 1.01969 0.22186 0.68148 0.0
C582 C 0.89809 0.95051 0.71561 0.0
C583 C 0.92153 0.9262 0.74767 0.0
H584 H 0.90366 0.99965 0.66555 0.0
C585 C 0.97204 0.93528 0.75326 0.0
H586 H 0.85956 0.94479 0.70995 0.0
C587 C 0.99806 0.96709 0.72721 0.0
C588 C 0.97441 0.99156 0.69521 0.0
H589 H 0.99176 0.91742 0.77759 0.0
H590 H 1.03669 0.97221 0.73191 0.0
C591 C 0.92384 0.98256 0.69023 0.0
C592 C 0.47558 0.2594 0.233 0.0
C593 C 0.42504 0.2532 0.23668 0.0
H594 H 0.53775 0.24109 0.19904 0.0
C595 C 0.39961 0.22281 0.20438 0.0
H596 H 0.49724 0.28244 0.25643 0.0
C597 C 0.4229 0.19915 0.17154 0.0
C598 C 0.47325 0.20455 0.16794 0.0
H599 H 0.36103 0.21656 0.20471 0.0
H600 H 0.40085 0.17573 0.14877 0.0
C601 C 0.49912 0.23582 0.19933 0.0
C602 C 0.84403 0.43157 0.09583 0.0
C603 C 0.86923 0.40562 0.12427 0.0
H604 H 0.82608 0.49563 0.08478 0.0
C605 C 0.8885 0.4223 0.16768 0.0
H606 H 0.82733 0.41873 0.06306 0.0
C607 C 0.88654 0.46525 0.18088 0.0
C608 C 0.86717 0.49313 0.15 0.0
H609 H 0.90651 0.40235 0.19098 0.0
H610 H 0.90478 0.47766 0.2132 0.0
C611 C 0.84246 0.47518 0.10893 0.0
C612 C 0.71156 1.00957 0.22734 0.0
C613 C 0.75911 1.02953 0.2269 0.0
H614 H 0.64212 1.00221 0.19232 0.0
C615 C 0.76997 0.06559 0.19994 0.0
H616 H 0.70241 0.98155 0.24796 0.0
C617 C 0.73626 0.07591 0.16716 0.0
C618 C 0.69098 0.05166 0.16274 0.0
H619 H 0.80627 0.08159 0.19956 0.0
H620 H 0.74733 0.09954 0.14201 0.0
C621 C 0.6772 1.02097 0.19528 0.0
C622 C 0.20019 0.74103 0.23467 0.0
C623 C 0.23922 0.72708 0.25964 0.0
H624 H 0.12882 0.72576 0.20602 0.0
C625 C 0.23393 0.68456 0.27599 0.0
H626 H 0.20233 0.77364 0.22202 0.0
C627 C 0.19105 0.65658 0.2668 0.0
C628 C 0.15207 0.67057 0.24149 0.0
H629 H 0.26293 0.67285 0.29594 0.0
H630 H 0.1889 0.62372 0.2787 0.0
C631 C 0.15743 0.71346 0.22601 0.0
C632 C 0.39133 0.96855 0.91425 0.0
C633 C 0.41828 0.94099 0.89014 0.0
H634 H 0.39159 1.01772 0.96727 0.0
C635 C 0.46808 0.94559 0.89781 0.0
H636 H 0.35279 0.96589 0.90886 0.0
C637 C 0.49031 0.97551 0.93111 0.0
C638 C 0.46297 1.00097 0.95755 0.0
H639 H 0.48967 0.92486 0.87956 0.0
H640 H 0.52865 0.97701 0.93766 0.0
C641 C 0.41348 0.99819 0.94783 0.0
C642 C 0.08006 0.44477 0.98321 0.0
C643 C 0.12931 0.44271 0.98632 0.0
H644 H 1.02199 0.47014 1.01454 0.0
C645 C 0.15961 0.47076 1.01658 0.0
H646 H 1.05656 0.42289 0.95997 0.0
C647 C 0.14002 0.49666 1.04822 0.0
C648 C 0.09031 0.49472 1.04895 0.0
H649 H 0.19787 0.46934 1.01874 0.0
H650 H 0.16331 0.51573 0.07408 0.0
C651 C 1.06048 0.47127 1.01447 0.0
C652 C 0.69306 0.26147 0.90914 0.0
C653 C 0.74122 0.27479 0.92348 0.0
H654 H 0.62683 0.22441 0.925 0.0
C655 C 0.75693 0.26644 0.96876 0.0
H656 H 0.67973 0.26733 0.87452 0.0
C657 C 0.72624 0.24285 0.99779 0.0
C658 C 0.67919 0.22713 0.98237 0.0
H659 H 0.79366 0.27617 0.9811 0.0
H660 H 0.74048 0.23389 1.03109 0.0
C661 C 0.66242 0.23752 0.93823 0.0
C662 C 0.07513 0.78449 1.04156 0.0
C663 C 1.05852 0.78914 0.99588 0.0
H664 H 1.06589 0.75006 0.10334 0.0
C665 C 1.02167 0.75833 0.97596 0.0
H666 H 0.10341 0.80754 0.05773 0.0
C667 C 0.9995 0.72592 1.00216 0.0
C668 C 1.0139 0.72329 1.04864 0.0
H669 H 1.00714 0.76092 0.94104 0.0
H670 H 0.97048 0.70355 0.98613 0.0
C671 C 1.053 0.75193 0.06774 0.0
C672 C 1.05454 0.36891 0.14322 0.0
C673 C 0.06933 0.34833 0.18259 0.0
H674 H 1.02537 0.4231 0.1163 0.0
C675 C 1.06175 0.36575 0.22671 0.0
H676 H 1.06058 0.35648 0.10901 0.0
C677 C 1.04304 0.40509 0.23118 0.0
C678 C 1.03036 0.42637 0.19161 0.0
H679 H 0.07447 0.35127 0.25776 0.0
H680 H 1.04098 0.41993 0.26515 0.0
C681 C 1.03422 0.40701 0.14767 0.0
C682 C 0.21517 0.68188 0.06432 0.0
C683 C 0.19498 0.68944 1.02061 0.0
H684 H 0.20538 0.64791 0.12657 0.0
C685 C 0.1561 0.66129 1.00116 0.0
H686 H 0.24527 0.70337 0.07976 0.0
C687 C 0.13346 0.62966 1.02781 0.0
C688 C 0.14964 0.62637 0.0739 0.0
H689 H 0.14077 0.66623 0.96699 0.0
H690 H 0.10052 0.611 1.01411 0.0
C691 C 0.19258 0.65008 0.09097 0.0
C692 C 0.46166 0.23219 0.90748 0.0
C693 C 0.41312 0.2381 0.91197 0.0
H694 H 0.52267 0.20198 0.93325 0.0
C695 C 0.38939 0.21518 0.94727 0.0
H696 H 0.48173 0.24931 0.88138 0.0
C697 C 0.4126 0.18801 0.97668 0.0
C698 C 0.46112 0.18221 0.97287 0.0
H699 H 0.35226 0.21837 0.95276 0.0
H700 H 0.39217 0.17191 1.0032 0.0
C701 C 0.48528 0.20492 0.93751 0.0
C702 C 0.89961 0.42348 0.96218 0.0
C703 C 0.86691 0.4319 0.92637 0.0
H704 H 0.93854 0.44549 1.02489 0.0
C705 C 0.84794 0.47179 0.92778 0.0
H706 H 0.91458 0.39294 0.96264 0.0
C707 C 0.86295 0.50311 0.96354 0.0
C708 C 0.89622 0.49458 0.99908 0.0
H709 H 0.82266 0.47921 0.9007 0.0
H710 H 0.84838 0.5338 0.96347 0.0
C711 C 0.91356 0.45393 0.99805 0.0
C712 C 0.69697 0.91 0.91114 0.0
C713 C 0.74835 0.91676 0.91048 0.0
H714 H 0.63009 0.92924 0.93601 0.0
C715 C 0.7683 0.95314 0.93948 0.0
H716 H 0.67805 0.88307 0.89059 0.0
C717 C 0.74007 0.98076 0.96522 0.0
C718 C 0.68892 0.97409 0.96647 0.0
H719 H 0.80678 0.9613 0.94176 0.0
H720 H 0.7592 1.00819 0.98488 0.0
C721 C 0.6686 0.93701 0.93832 0.0
C722 C 0.92112 0.75029 0.25843 0.0
C723 C 0.91111 0.73161 0.30095 0.0
H724 H 0.93537 0.73876 0.18774 0.0
C725 C 0.91067 0.6868 0.30563 0.0
H726 H 0.92077 0.78473 0.25365 0.0
C727 C 0.91903 0.66077 0.2679 0.0
C728 C 0.92621 0.67933 0.22506 0.0
H729 H 0.90216 0.67185 0.33792 0.0
H730 H 0.91897 0.62617 0.27181 0.0
C731 C 0.92807 0.7241 0.22048 0.0
C732 C 0.46324 0.8964 0.20349 0.0
C733 C 0.41595 0.90101 0.21635 0.0
H734 H 0.52431 0.92097 0.16446 0.0
C735 C 0.39534 0.93588 0.19676 0.0
H736 H 0.48124 0.87046 0.21758 0.0
C737 C 0.41982 0.96454 0.16666 0.0
C738 C 0.46702 0.96078 0.15355 0.0
H739 H 0.35968 0.94183 0.20515 0.0
H740 H 0.40095 0.99046 0.15374 0.0
C741 C 0.48816 0.92552 0.17252 0.0
C742 C 0.77071 0.21392 0.20689 0.0
C743 C 0.74819 0.2371 0.24028 0.0
H744 H 0.76431 0.17447 0.14475 0.0
C745 C 0.69767 0.23354 0.23619 0.0
H746 H 0.80927 0.21517 0.20819 0.0
C747 C 0.67107 0.20769 0.20014 0.0
C748 C 0.69413 0.1855 0.16616 0.0
H749 H 0.67862 0.25089 0.26069 0.0
H750 H 0.63244 0.206 0.19825 0.0
C751 C 0.74452 0.18976 0.17023 0.0
C752 C 0.79102 0.71899 0.95887 0.0
C753 C 0.77094 0.73723 0.91982 0.0
H754 H 0.78024 0.67532 1.0143 0.0
C755 C 0.72212 0.72392 0.90736 0.0
H756 H 0.82825 0.72826 0.96972 0.0
C757 C 0.69435 0.69349 0.9329 0.0
C758 C 0.71436 0.67508 0.97188 0.0
H759 H 0.705 0.737 0.87753 0.0
H760 H 0.65714 0.6843 0.92188 0.0
C761 C 0.76321 0.68845 0.98446 0.0
C762 C 0.4087 0.73575 0.96344 0.0
C763 C 0.42148 0.74581 0.91794 0.0
H764 H 0.42156 0.70156 1.02598 0.0
C765 C 0.46126 0.72605 0.90286 0.0
H766 H 0.37863 0.74927 0.97739 0.0
C767 C 0.48662 0.69835 0.93137 0.0
C768 C 0.47384 0.68832 0.9769 0.0
H769 H 0.47321 0.73204 0.86853 0.0
H770 H 0.51646 0.68452 0.91729 0.0
C771 C 0.43387 0.70789 0.99183 0.0
C772 C 0.40363 0.44367 0.96248 0.0
C773 C 0.41226 0.4377 0.9158 0.0
H774 H 0.42336 0.4795 1.02576 0.0
C775 C 0.45067 0.46443 0.89761 0.0
H776 H 0.37505 0.42358 0.97794 0.0
C777 C 0.47877 0.49693 0.92524 0.0
C778 C 0.46924 0.50331 0.97172 0.0
H779 H 0.45899 0.46046 0.86184 0.0
H780 H 0.50704 0.51761 0.91 0.0
C781 C 0.43162 0.47586 0.98992 0.0
C782 C 0.58469 0.44479 0.89617 0.0
C783 C 0.61727 0.45489 0.86201 0.0
H784 H 0.56415 0.46116 0.96408 0.0
C785 C 0.65387 0.48972 0.86953 0.0
H786 H 0.55702 0.41742 0.89132 0.0
C787 C 0.65863 0.5134 0.91092 0.0
C788 C 0.62659 0.50294 0.94505 0.0
H789 H 0.68049 0.49724 0.8444 0.0
H790 H 0.68728 0.53997 0.91627 0.0
C791 C 0.58913 0.46915 0.93759 0.0
C792 C 0.7678 0.4183 0.19028 0.0
C793 C 0.76393 0.41592 0.23855 0.0
H794 H 0.74606 0.44517 0.12561 0.0
C795 C 0.72968 0.44092 0.25683 0.0
H796 H 0.79113 0.39853 0.17379 0.0
C797 C 0.70231 0.46737 0.22881 0.0
C798 C 0.70753 0.47075 0.18062 0.0
H799 H 0.72384 0.44023 0.29338 0.0
H800 H 0.67728 0.48578 0.24535 0.0
C801 C 0.74098 0.4451 0.16229 0.0
C802 C 0.7042 0.69055 0.26984 0.0
C803 C 0.74086 0.7216 0.25611 0.0
H804 H 0.65712 0.63229 0.25111 0.0
C805 C 0.7563 0.71841 0.21103 0.0
H806 H 0.69168 0.69192 0.30445 0.0
C807 C 0.73655 0.68449 0.18079 0.0
C808 C 0.70066 0.65292 0.19467 0.0
H809 H 0.78435 0.74176 0.19921 0.0
H810 H 0.74951 0.683 0.14635 0.0
C811 C 0.68435 0.65645 0.23938 0.0
C812 C 0.57674 0.68796 0.28558 0.0
C813 C 0.59524 0.7304 0.27389 0.0
H814 H 0.54625 0.62456 0.26102 0.0
C815 C 0.60487 0.73816 0.22753 0.0
H816 H 0.56935 0.67965 0.32064 0.0
C817 C 0.59008 0.70623 0.19331 0.0
C818 C 0.56638 0.66628 0.20535 0.0
H819 H 0.62024 0.7699 0.21741 0.0
H820 H 0.59625 0.71293 0.15754 0.0
C821 C 0.56198 0.65643 0.25146 0.0
C822 C 0.45941 0.44476 0.26278 0.0
C823 C 0.41212 0.42739 0.24907 0.0
H824 H 0.52249 0.48636 0.24696 0.0
C825 C 0.39229 0.44033 0.20703 0.0
H826 H 0.47622 0.43509 0.29459 0.0
C827 C 0.41871 0.47042 0.17991 0.0
C828 C 0.46613 0.48771 0.19354 0.0
H829 H 0.35614 0.42753 0.19526 0.0
H830 H 0.40204 0.47975 0.14789 0.0
C831 C 0.48615 0.47409 0.23526 0.0
C832 C 0.97618 0.71685 0.77875 0.0
C833 C 0.94427 0.74381 0.75734 0.0
H834 H 1.02615 0.66875 0.7736 0.0
C835 C 0.94476 0.74022 0.70771 0.0
H836 H 0.97872 0.71657 0.81607 0.0
C837 C 0.97446 0.71296 0.68232 0.0
C838 C 1.00568 0.68539 0.70398 0.0
H839 H 0.92184 0.75909 0.6877 0.0
H840 H 0.97159 0.7127 0.64499 0.0
C841 C 1.00445 0.68861 0.75346 0.0
C842 C 0.46426 0.92383 0.5642 0.0
C843 C 0.47515 0.88413 0.58146 0.0
H844 H 0.48629 0.99215 0.5607 0.0
C845 C 0.51989 0.88288 0.60514 0.0
H846 H 0.43033 0.92589 0.54567 0.0
C847 C 0.5503 0.9206 0.61559 0.0
C848 C 0.53796 0.96058 0.60121 0.0
H849 H 0.53025 0.85337 0.61941 0.0
H850 H 0.5836 0.91822 0.63514 0.0
C851 C 0.49562 0.96178 0.57378 0.0
C852 C 0.21498 0.43772 0.78223 0.0
C853 C 0.25604 0.42439 0.76339 0.0
H854 H 0.15475 0.47322 0.77403 0.0
C855 C 0.2669 0.43854 0.7188 0.0
H856 H 0.20498 0.42761 0.81614 0.0
C857 C 0.23743 0.46476 0.69395 0.0
C858 C 0.19641 0.47829 0.71311 0.0
H859 H 0.29777 0.42862 0.70258 0.0
H860 H 0.2467 0.47422 0.65963 0.0
C861 C 0.18603 0.46425 0.75781 0.0
C862 C 0.8096 0.17861 0.74651 0.0
C863 C 0.81076 0.22217 0.73401 0.0
H864 H 0.78866 0.11149 0.7267 0.0
C865 C 0.794 0.23064 0.68911 0.0
H866 H 0.82196 0.17088 0.78087 0.0
C867 C 0.77483 0.19688 0.65832 0.0
C868 C 0.77235 0.15318 0.67086 0.0
H869 H 0.79397 0.26365 0.67802 0.0
H870 H 0.75998 0.2055 0.6252 0.0
C871 C 0.79067 0.14451 0.71529 0.0
C872 C 0.99515 0.428 0.39781 0.0
C873 C 0.94817 0.41592 0.41067 0.0
H874 H 1.06466 0.46158 0.41585 0.0
C875 C 0.9367 0.43002 0.45524 0.0
H876 H 1.00599 0.41783 0.36435 0.0
C877 C 0.971 0.45512 0.48564 0.0
C878 C 1.01789 0.46752 0.47233 0.0
H879 H 0.90107 0.42161 0.46692 0.0
H880 H 0.96058 0.46516 0.51931 0.0
C881 C 1.02909 0.45331 0.42782 0.0
C882 C 0.71071 0.92012 0.36011 0.0
C883 C 0.72708 0.88927 0.38919 0.0
H884 H 0.68301 0.98111 0.35661 0.0
C885 C 0.72905 0.89623 0.43731 0.0
H886 H 0.70974 0.91556 0.32293 0.0
C887 C 0.71639 0.93388 0.45607 0.0
C888 C 0.69923 0.96455 0.42745 0.0
H889 H 0.74245 0.87359 0.46097 0.0
H890 H 0.71962 0.93855 0.49321 0.0
C891 C 0.69628 0.95765 0.37929 0.0
C892 C 0.27785 0.71869 0.45263 0.0
C893 C 0.25781 0.75307 0.43125 0.0
H894 H 0.27026 0.66528 0.49779 0.0
C895 C 0.21143 0.75993 0.44471 0.0
H896 H 0.31296 0.71133 0.44397 0.0
C897 C 0.18615 0.73277 0.47693 0.0
C898 C 0.20627 0.69759 0.4971 0.0
H899 H 0.1937 0.78514 0.4289 0.0
H900 H 0.14989 0.73789 0.48397 0.0
C901 C 0.25304 0.69202 0.48439 0.0
C902 C 0.60024 0.2793 0.49425 0.0
C903 C 0.56362 0.27518 0.52595 0.0
H904 H 0.65033 0.24705 0.45687 0.0
C905 C 0.55132 0.23499 0.54571 0.0
H906 H 0.60985 0.30925 0.47695 0.0
C907 C 0.57215 0.19912 0.53129 0.0
C908 C 0.60736 0.20352 0.49906 0.0
H909 H 0.52367 0.23069 0.57028 0.0
H910 H 0.56092 0.16785 0.54546 0.0
C911 C 0.62251 0.24364 0.48141 0.0
C912 C 0.76783 0.86956 0.59845 0.0
C913 C 0.74036 0.83317 0.57586 0.0
H914 H 0.76933 0.93489 0.62381 0.0
C915 C 0.69825 0.83966 0.55047 0.0
H916 H 0.80139 0.86698 0.61734 0.0
C917 C 0.67897 0.87854 0.55596 0.0
C918 C 0.70291 0.91227 0.58492 0.0
H919 H 0.67718 0.81297 0.5312 0.0
H920 H 0.64431 0.88129 0.53921 0.0
C921 C 0.74886 0.90852 0.6035 0.0
C922 C 0.81132 0.19705 0.54037 0.0
C923 C 0.80136 0.23135 0.51305 0.0
H924 H 0.80049 0.12843 0.54735 0.0
C925 C 0.78374 0.22281 0.46714 0.0
H926 H 0.8265 0.20311 0.57528 0.0
C927 C 0.76877 0.18078 0.45095 0.0
C928 C 0.77056 0.14667 0.48097 0.0
H929 H 0.77751 0.24888 0.44497 0.0
H930 H 0.75053 0.17585 0.4171 0.0
C931 C 0.7968 0.1545 0.52395 0.0
C932 C 0.91975 0.57556 0.49395 0.0
C933 C 0.91252 0.60342 0.45811 0.0
H934 H 0.97188 0.55244 0.53934 0.0
C935 C 0.95018 0.61764 0.43023 0.0
H936 H 0.89089 0.56436 0.51559 0.0
C937 C 0.99663 0.61118 0.44391 0.0
C938 C 1.0046 0.59088 0.48541 0.0
H939 H 0.94472 0.6392 0.4023 0.0
H940 H 1.02615 0.62693 0.42569 0.0
C941 C 0.96606 0.56952 0.5079 0.0
C942 C 0.45404 0.90717 0.43628 0.0
C943 C 0.4238 0.92043 0.4008 0.0
H944 H 0.51777 0.92186 0.47933 0.0
C945 C 0.43491 0.96203 0.38335 0.0
H946 H 0.44689 0.87534 0.45056 0.0
C947 C 0.47598 0.98923 0.40024 0.0
C948 C 0.50692 0.97536 0.43487 0.0
H949 H 0.41277 0.97305 0.35558 0.0
H950 H 0.4839 1.02074 0.3855 0.0
C951 C 0.49502 0.93404 0.4528 0.0
C952 C 0.21528 0.41314 0.41406 0.0
C953 C 0.26067 0.40097 0.42735 0.0
H954 H 0.1551 0.44609 0.43196 0.0
C955 C 0.27719 0.41217 0.47376 0.0
H956 H 0.20049 0.40568 0.3792 0.0
C957 C 0.25049 0.43532 0.50458 0.0
C958 C 0.20535 0.44778 0.49102 0.0
H959 H 0.31171 0.40399 0.48619 0.0
H960 H 0.26616 0.44485 0.53874 0.0
C961 C 0.18859 0.43605 0.44493 0.0
C962 C 0.58384 0.22251 0.66327 0.0
C963 C 0.55805 0.21434 0.70268 0.0
H964 H 0.62514 0.19682 0.61251 0.0
C965 C 0.55367 0.17285 0.72126 0.0
H966 H 0.58713 0.25395 0.64774 0.0
C967 C 0.57328 0.13945 0.69927 0.0
C968 C 0.59743 0.14771 0.659 0.0
H969 H 0.5343 0.16609 0.75202 0.0
H970 H 0.56906 0.10729 0.71316 0.0
C971 C 0.6041 0.18955 0.6421 0.0
C972 C 0.92206 0.41628 0.70549 0.0
C973 C 0.93842 0.38562 0.73525 0.0
H974 H 0.94028 0.46612 0.65799 0.0
C975 C 0.98634 0.37744 0.73371 0.0
H976 H 0.8853 0.42319 0.70507 0.0
C977 C 1.0181 0.40213 0.70592 0.0
C978 C 1.00205 0.43494 0.67892 0.0
H979 H 0.99987 0.35392 0.75598 0.0
H980 H 1.05573 0.39803 0.70848 0.0
C981 C 0.95339 0.44049 0.67776 0.0
C982 C 0.23592 0.69345 0.78792 0.0
C983 C 0.26404 0.72469 0.76419 0.0
H984 H 0.18314 0.63809 0.78233 0.0
C985 C 0.26493 0.72104 0.71587 0.0
H986 H 0.2354 0.69522 0.82521 0.0
C987 C 0.23521 0.68856 0.6913 0.0
C988 C 0.20411 0.65928 0.71472 0.0
H989 H 0.28716 0.74429 0.69669 0.0
H990 H 0.23489 0.68794 0.65394 0.0
C991 C 0.20616 0.66081 0.7633 0.0
loop_
_geom_bond_atom_site_label_1
_geom_bond_atom_site_label_2
_geom_bond_distance
_geom_bond_site_symmetry_2
_ccdc_geom_bond_type
Dy0 O3 2.307 . S
Dy0 O5 2.395 . S
Dy0 O6 2.379 . S
Dy0 O8 2.339 . S
Dy0 O10 2.298 . S
Dy0 O14 2.275 . S
Dy0 C22 2.738 . S
Dy1 O4 2.298 . S
Dy1 O7 2.275 . S
Dy1 O9 2.307 . S
Dy1 O11 2.395 . S
Dy1 O12 2.379 . S
Dy1 O15 2.339 . S
Dy1 C31 2.738 . S
C2 O14 1.254 . S
C2 O15 1.257 . S
O3 Dy0 2.307 . S
O3 C13 1.266 . S
O4 Dy1 2.298 . S
O4 C13 1.236 . S
O5 Dy0 2.395 . S
O5 C22 1.255 . S
O6 Dy0 2.379 . S
O6 C22 1.249 . S
O7 Dy1 2.275 . S
O7 C23 1.254 . S
O8 Dy0 2.339 . S
O8 C23 1.257 . S
O9 Dy1 2.307 . S
O9 C24 1.266 . S
O10 Dy0 2.298 . S
O10 C24 1.236 . S
O11 Dy1 2.395 . S
O11 C31 1.255 . S
O12 Dy1 2.379 . S
O12 C31 1.249 . S
C13 O3 1.266 . S
C13 O4 1.236 . S
O14 Dy0 2.275 . S
O14 C2 1.254 . S
O15 Dy1 2.339 . S
O15 C2 1.257 . S
C16 C19 1.344 . S
C16 C20 1.328 . S
C16 C22 1.516 . S
C17 C18 1.304 . S
C17 C21 1.323 . S
C18 C17 1.304 . S
C18 C19 1.371 . S
C18 H32 0.930 . S
C19 C16 1.344 . S
C19 C18 1.371 . S
C19 H33 0.931 . S
C20 C16 1.328 . S
C20 C21 1.433 . S
C20 H34 0.931 . S
C21 C17 1.323 . S
C21 C20 1.433 . S
C21 H35 0.933 . S
C22 Dy0 2.738 . S
C22 O5 1.255 . S
C22 O6 1.249 . S
C22 C16 1.516 . S
C23 O7 1.254 . S
C23 O8 1.257 . S
C24 O9 1.266 . S
C24 O10 1.236 . S
C25 C28 1.344 . S
C25 C29 1.328 . S
C25 C31 1.516 . S
C26 C27 1.304 . S
C26 C30 1.323 . S
C27 C26 1.304 . S
C27 C28 1.371 . S
C27 H36 0.930 . S
C28 C25 1.344 . S
C28 C27 1.371 . S
C28 H37 0.931 . S
C29 C25 1.328 . S
C29 C30 1.433 . S
C29 H38 0.931 . S
C30 C26 1.323 . S
C30 C29 1.433 . S
C30 H39 0.933 . S
C31 Dy1 2.738 . S
C31 O11 1.255 . S
C31 O12 1.249 . S
C31 C25 1.516 . S
H32 C18 0.930 . S
H33 C19 0.931 . S
H34 C20 0.931 . S
H35 C21 0.933 . S
H36 C27 0.930 . S
H37 C28 0.931 . S
H38 C29 0.931 . S
H39 C30 0.933 . S
Dy40 O43 2.307 . S
Dy40 O45 2.395 . S
Dy40 O46 2.379 . S
Dy40 O48 2.339 . S
Dy40 O50 2.298 . S
Dy40 O54 2.275 . S
Dy40 C62 2.738 . S
Dy41 O44 2.298 . S
Dy41 O47 2.275 . S
Dy41 O49 2.307 . S
Dy41 O51 2.395 . S
Dy41 O52 2.379 . S
Dy41 O55 2.339 . S
Dy41 C71 2.738 . S
C42 O54 1.254 . S
C42 O55 1.257 . S
O43 Dy40 2.307 . S
O43 C53 1.266 . S
O44 Dy41 2.298 . S
O44 C53 1.236 . S
O45 Dy40 2.395 . S
O45 C62 1.255 . S
O46 Dy40 2.379 . S
O46 C62 1.249 . S
O47 Dy41 2.275 . S
O47 C63 1.254 . S
O48 Dy40 2.339 . S
O48 C63 1.257 . S
O49 Dy41 2.307 . S
O49 C64 1.266 . S
O50 Dy40 2.298 . S
O50 C64 1.236 . S
O51 Dy41 2.395 . S
O51 C71 1.255 . S
O52 Dy41 2.379 . S
O52 C71 1.249 . S
C53 O43 1.266 . S
C53 O44 1.236 . S
O54 Dy40 2.275 . S
O54 C42 1.254 . S
O55 Dy41 2.339 . S
O55 C42 1.257 . S
C56 C59 1.344 . S
C56 C60 1.328 . S
C56 C62 1.516 . S
C57 C58 1.304 . S
C57 C61 1.323 . S
C58 C57 1.304 . S
C58 C59 1.371 . S
C58 H72 0.930 . S
C59 C56 1.344 . S
C59 C58 1.371 . S
C59 H73 0.931 . S
C60 C56 1.328 . S
C60 C61 1.433 . S
C60 H74 0.931 . S
C61 C57 1.323 . S
C61 C60 1.433 . S
C61 H75 0.933 . S
C62 Dy40 2.738 . S
C62 O45 1.255 . S
C62 O46 1.249 . S
C62 C56 1.516 . S
C63 O47 1.254 . S
C63 O48 1.257 . S
C64 O49 1.266 . S
C64 O50 1.236 . S
C65 C68 1.344 . S
C65 C69 1.328 . S
C65 C71 1.516 . S
C66 C67 1.304 . S
C66 C70 1.323 . S
C67 C66 1.304 . S
C67 C68 1.371 . S
C67 H76 0.930 . S
C68 C65 1.344 . S
C68 C67 1.371 . S
C68 H77 0.931 . S
C69 C65 1.328 . S
C69 C70 1.433 . S
C69 H78 0.931 . S
C70 C66 1.323 . S
C70 C69 1.433 . S
C70 H79 0.933 . S
C71 Dy41 2.738 . S
C71 O51 1.255 . S
C71 O52 1.249 . S
C71 C65 1.516 . S
H72 C58 0.930 . S
H73 C59 0.931 . S
H74 C60 0.931 . S
H75 C61 0.933 . S
H76 C67 0.930 . S
H77 C68 0.931 . S
H78 C69 0.931 . S
H79 C70 0.933 . S
Dy80 O83 2.307 . S
Dy80 O85 2.395 . S
Dy80 O86 2.379 . S
Dy80 O88 2.339 . S
Dy80 O90 2.298 . S
Dy80 O94 2.275 . S
Dy80 C102 2.738 . S
Dy81 O84 2.298 . S
Dy81 O87 2.275 . S
Dy81 O89 2.307 . S
Dy81 O91 2.395 . S
Dy81 O92 2.379 . S
Dy81 O95 2.339 . S
Dy81 C111 2.738 . S
C82 O94 1.254 . S
C82 O95 1.257 . S
O83 Dy80 2.307 . S
O83 C93 1.266 . S
O84 Dy81 2.298 . S
O84 C93 1.236 . S
O85 Dy80 2.395 . S
O85 C102 1.255 . S
O86 Dy80 2.379 . S
O86 C102 1.249 . S
O87 Dy81 2.275 . S
O87 C103 1.254 . S
O88 Dy80 2.339 . S
O88 C103 1.257 . S
O89 Dy81 2.307 . S
O89 C104 1.266 . S
O90 Dy80 2.298 . S
O90 C104 1.236 . S
O91 Dy81 2.395 . S
O91 C111 1.255 . S
O92 Dy81 2.379 . S
O92 C111 1.249 . S
C93 O83 1.266 . S
C93 O84 1.236 . S
O94 Dy80 2.275 . S
O94 C82 1.254 . S
O95 Dy81 2.339 . S
O95 C82 1.257 . S
C96 C99 1.344 . S
C96 C100 1.328 . S
C96 C102 1.516 . S
C97 C98 1.304 . S
C97 C101 1.323 . S
C98 C97 1.304 . S
C98 C99 1.371 . S
C98 H112 0.930 . S
C99 C96 1.344 . S
C99 C98 1.371 . S
C99 H113 0.931 . S
C100 C96 1.328 . S
C100 C101 1.433 . S
C100 H114 0.931 . S
C101 C97 1.323 . S
C101 C100 1.433 . S
C101 H115 0.933 . S
C102 Dy80 2.738 . S
C102 O85 1.255 . S
C102 O86 1.249 . S
C102 C96 1.516 . S
C103 O87 1.254 . S
C103 O88 1.257 . S
C104 O89 1.266 . S
C104 O90 1.236 . S
C105 C108 1.344 . S
C105 C109 1.328 . S
C105 C111 1.516 . S
C106 C107 1.304 . S
C106 C110 1.323 . S
C107 C106 1.304 . S
C107 C108 1.371 . S
C107 H116 0.930 . S
C108 C105 1.344 . S
C108 C107 1.371 . S
C108 H117 0.931 . S
C109 C105 1.328 . S
C109 C110 1.433 . S
C109 H118 0.931 . S
C110 C106 1.323 . S
C110 C109 1.433 . S
C110 H119 0.933 . S
C111 Dy81 2.738 . S
C111 O91 1.255 . S
C111 O92 1.249 . S
C111 C105 1.516 . S
H112 C98 0.930 . S
H113 C99 0.931 . S
H114 C100 0.931 . S
H115 C101 0.933 . S
H116 C107 0.930 . S
H117 C108 0.931 . S
H118 C109 0.931 . S
H119 C110 0.933 . S
Dy120 O123 2.307 . S
Dy120 O125 2.395 . S
Dy120 O126 2.379 . S
Dy120 O128 2.339 . S
Dy120 O130 2.298 . S
Dy120 O134 2.275 . S
Dy120 C142 2.738 . S
Dy121 O124 2.298 . S
Dy121 O127 2.275 . S
Dy121 O129 2.307 . S
Dy121 O131 2.395 . S
Dy121 O132 2.379 . S
Dy121 O135 2.339 . S
Dy121 C151 2.738 . S
C122 O134 1.254 . S
C122 O135 1.257 . S
O123 Dy120 2.307 . S
O123 C133 1.266 . S
O124 Dy121 2.298 . S
O124 C133 1.236 . S
O125 Dy120 2.395 . S
O125 C142 1.255 . S
O126 Dy120 2.379 . S
O126 C142 1.249 . S
O127 Dy121 2.275 . S
O127 C143 1.254 . S
O128 Dy120 2.339 . S
O128 C143 1.257 . S
O129 Dy121 2.307 . S
O129 C144 1.266 . S
O130 Dy120 2.298 . S
O130 C144 1.236 . S
O131 Dy121 2.395 . S
O131 C151 1.255 . S
O132 Dy121 2.379 . S
O132 C151 1.249 . S
C133 O123 1.266 . S
C133 O124 1.236 . S
O134 Dy120 2.275 . S
O134 C122 1.254 . S
O135 Dy121 2.339 . S
O135 C122 1.257 . S
C136 C139 1.344 . S
C136 C140 1.328 . S
C136 C142 1.516 . S
C137 C138 1.304 . S
C137 C141 1.323 . S
C138 C137 1.304 . S
C138 C139 1.371 . S
C138 H152 0.930 . S
C139 C136 1.344 . S
C139 C138 1.371 . S
C139 H153 0.931 . S
C140 C136 1.328 . S
C140 C141 1.433 . S
C140 H154 0.931 . S
C141 C137 1.323 . S
C141 C140 1.433 . S
C141 H155 0.933 . S
C142 Dy120 2.738 . S
C142 O125 1.255 . S
C142 O126 1.249 . S
C142 C136 1.516 . S
C143 O127 1.254 . S
C143 O128 1.257 . S
C144 O129 1.266 . S
C144 O130 1.236 . S
C145 C148 1.344 . S
C145 C149 1.328 . S
C145 C151 1.516 . S
C146 C147 1.304 . S
C146 C150 1.323 . S
C147 C146 1.304 . S
C147 C148 1.371 . S
C147 H156 0.930 . S
C148 C145 1.344 . S
C148 C147 1.371 . S
C148 H157 0.931 . S
C149 C145 1.328 . S
C149 C150 1.433 . S
C149 H158 0.931 . S
C150 C146 1.323 . S
C150 C149 1.433 . S
C150 H159 0.933 . S
C151 Dy121 2.738 . S
C151 O131 1.255 . S
C151 O132 1.249 . S
C151 C145 1.516 . S
H152 C138 0.930 . S
H153 C139 0.931 . S
H154 C140 0.931 . S
H155 C141 0.933 . S
H156 C147 0.930 . S
H157 C148 0.931 . S
H158 C149 0.931 . S
H159 C150 0.933 . S
Dy160 O163 2.307 . S
Dy160 O165 2.395 . S
Dy160 O166 2.379 . S
Dy160 O168 2.339 . S
Dy160 O170 2.298 . S
Dy160 O174 2.275 . S
Dy160 C182 2.738 . S
Dy161 O164 2.298 . S
Dy161 O167 2.275 . S
Dy161 O169 2.307 . S
Dy161 O171 2.395 . S
Dy161 O172 2.379 . S
Dy161 O175 2.339 . S
Dy161 C191 2.738 . S
C162 O174 1.254 . S
C162 O175 1.257 . S
O163 Dy160 2.307 . S
O163 C173 1.266 . S
O164 Dy161 2.298 . S
O164 C173 1.236 . S
O165 Dy160 2.395 . S
O165 C182 1.255 . S
O166 Dy160 2.379 . S
O166 C182 1.249 . S
O167 Dy161 2.275 . S
O167 C183 1.254 . S
O168 Dy160 2.339 . S
O168 C183 1.257 . S
O169 Dy161 2.307 . S
O169 C184 1.266 . S
O170 Dy160 2.298 . S
O170 C184 1.236 . S
O171 Dy161 2.395 . S
O171 C191 1.255 . S
O172 Dy161 2.379 . S
O172 C191 1.249 . S
C173 O163 1.266 . S
C173 O164 1.236 . S
O174 Dy160 2.275 . S
O174 C162 1.254 . S
O175 Dy161 2.339 . S
O175 C162 1.257 . S
C176 C179 1.344 . S
C176 C180 1.328 . S
C176 C182 1.516 . S
C177 C178 1.304 . S
C177 C181 1.323 . S
C178 C177 1.304 . S
C178 C179 1.371 . S
C178 H192 0.930 . S
C179 C176 1.344 . S
C179 C178 1.371 . S
C179 H193 0.931 . S
C180 C176 1.328 . S
C180 C181 1.433 . S
C180 H194 0.931 . S
C181 C177 1.323 . S
C181 C180 1.433 . S
C181 H195 0.933 . S
C182 Dy160 2.738 . S
C182 O165 1.255 . S
C182 O166 1.249 . S
C182 C176 1.516 . S
C183 O167 1.254 . S
C183 O168 1.257 . S
C184 O169 1.266 . S
C184 O170 1.236 . S
C185 C188 1.344 . S
C185 C189 1.328 . S
C185 C191 1.516 . S
C186 C187 1.304 . S
C186 C190 1.323 . S
C187 C186 1.304 . S
C187 C188 1.371 . S
C187 H196 0.930 . S
C188 C185 1.344 . S
C188 C187 1.371 . S
C188 H197 0.931 . S
C189 C185 1.328 . S
C189 C190 1.433 . S
C189 H198 0.931 . S
C190 C186 1.323 . S
C190 C189 1.433 . S
C190 H199 0.933 . S
C191 Dy161 2.738 . S
C191 O171 1.255 . S
C191 O172 1.249 . S
C191 C185 1.516 . S
H192 C178 0.930 . S
H193 C179 0.931 . S
H194 C180 0.931 . S
H195 C181 0.933 . S
H196 C187 0.930 . S
H197 C188 0.931 . S
H198 C189 0.931 . S
H199 C190 0.933 . S
Dy200 O203 2.307 . S
Dy200 O205 2.395 . S
Dy200 O206 2.379 . S
Dy200 O208 2.339 . S
Dy200 O210 2.298 . S
Dy200 O214 2.275 . S
Dy200 C222 2.738 . S
Dy201 O204 2.298 . S
Dy201 O207 2.275 . S
Dy201 O209 2.307 . S
Dy201 O211 2.395 . S
Dy201 O212 2.379 . S
Dy201 O215 2.339 . S
Dy201 C231 2.738 . S
C202 O214 1.254 . S
C202 O215 1.257 . S
O203 Dy200 2.307 . S
O203 C213 1.266 . S
O204 Dy201 2.298 . S
O204 C213 1.236 . S
O205 Dy200 2.395 . S
O205 C222 1.255 . S
O206 Dy200 2.379 . S
O206 C222 1.249 . S
O207 Dy201 2.275 . S
O207 C223 1.254 . S
O208 Dy200 2.339 . S
O208 C223 1.257 . S
O209 Dy201 2.307 . S
O209 C224 1.266 . S
O210 Dy200 2.298 . S
O210 C224 1.236 . S
O211 Dy201 2.395 . S
O211 C231 1.255 . S
O212 Dy201 2.379 . S
O212 C231 1.249 . S
C213 O203 1.266 . S
C213 O204 1.236 . S
O214 Dy200 2.275 . S
O214 C202 1.254 . S
O215 Dy201 2.339 . S
O215 C202 1.257 . S
C216 C219 1.344 . S
C216 C220 1.328 . S
C216 C222 1.516 . S
C217 C218 1.304 . S
C217 C221 1.323 . S
C218 C217 1.304 . S
C218 C219 1.371 . S
C218 H232 0.930 . S
C219 C216 1.344 . S
C219 C218 1.371 . S
C219 H233 0.931 . S
C220 C216 1.328 . S
C220 C221 1.433 . S
C220 H234 0.931 . S
C221 C217 1.323 . S
C221 C220 1.433 . S
C221 H235 0.933 . S
C222 Dy200 2.738 . S
C222 O205 1.255 . S
C222 O206 1.249 . S
C222 C216 1.516 . S
C223 O207 1.254 . S
C223 O208 1.257 . S
C224 O209 1.266 . S
C224 O210 1.236 . S
C225 C228 1.344 . S
C225 C229 1.328 . S
C225 C231 1.516 . S
C226 C227 1.304 . S
C226 C230 1.323 . S
C227 C226 1.304 . S
C227 C228 1.371 . S
C227 H236 0.930 . S
C228 C225 1.344 . S
C228 C227 1.371 . S
C228 H237 0.931 . S
C229 C225 1.328 . S
C229 C230 1.433 . S
C229 H238 0.931 . S
C230 C226 1.323 . S
C230 C229 1.433 . S
C230 H239 0.933 . S
C231 Dy201 2.738 . S
C231 O211 1.255 . S
C231 O212 1.249 . S
C231 C225 1.516 . S
H232 C218 0.930 . S
H233 C219 0.931 . S
H234 C220 0.931 . S
H235 C221 0.933 . S
H236 C227 0.930 . S
H237 C228 0.931 . S
H238 C229 0.931 . S
H239 C230 0.933 . S
Dy240 O243 2.307 . S
Dy240 O245 2.395 . S
Dy240 O246 2.379 . S
Dy240 O248 2.339 . S
Dy240 O250 2.298 . S
Dy240 O254 2.275 . S
Dy240 C262 2.738 . S
Dy241 O244 2.298 . S
Dy241 O247 2.275 . S
Dy241 O249 2.307 . S
Dy241 O251 2.395 . S
Dy241 O252 2.379 . S
Dy241 O255 2.339 . S
Dy241 C271 2.738 . S
C242 O254 1.254 . S
C242 O255 1.257 . S
O243 Dy240 2.307 . S
O243 C253 1.266 . S
O244 Dy241 2.298 . S
O244 C253 1.236 . S
O245 Dy240 2.395 . S
O245 C262 1.255 . S
O246 Dy240 2.379 . S
O246 C262 1.249 . S
O247 Dy241 2.275 . S
O247 C263 1.254 . S
O248 Dy240 2.339 . S
O248 C263 1.257 . S
O249 Dy241 2.307 . S
O249 C264 1.266 . S
O250 Dy240 2.298 . S
O250 C264 1.236 . S
O251 Dy241 2.395 . S
O251 C271 1.255 . S
O252 Dy241 2.379 . S
O252 C271 1.249 . S
C253 O243 1.266 . S
C253 O244 1.236 . S
O254 Dy240 2.275 . S
O254 C242 1.254 . S
O255 Dy241 2.339 . S
O255 C242 1.257 . S
C256 C259 1.344 . S
C256 C260 1.328 . S
C256 C262 1.516 . S
C257 C258 1.304 . S
C257 C261 1.323 . S
C258 C257 1.304 . S
C258 C259 1.371 . S
C258 H272 0.930 . S
C259 C256 1.344 . S
C259 C258 1.371 . S
C259 H273 0.931 . S
C260 C256 1.328 . S
C260 C261 1.433 . S
C260 H274 0.931 . S
C261 C257 1.323 . S
C261 C260 1.433 . S
C261 H275 0.933 . S
C262 Dy240 2.738 . S
C262 O245 1.255 . S
C262 O246 1.249 . S
C262 C256 1.516 . S
C263 O247 1.254 . S
C263 O248 1.257 . S
C264 O249 1.266 . S
C264 O250 1.236 . S
C265 C268 1.344 . S
C265 C269 1.328 . S
C265 C271 1.516 . S
C266 C267 1.304 . S
C266 C270 1.323 . S
C267 C266 1.304 . S
C267 C268 1.371 . S
C267 H276 0.930 . S
C268 C265 1.344 . S
C268 C267 1.371 . S
C268 H277 0.931 . S
C269 C265 1.328 . S
C269 C270 1.433 . S
C269 H278 0.931 . S
C270 C266 1.323 . S
C270 C269 1.433 . S
C270 H279 0.933 . S
C271 Dy241 2.738 . S
C271 O251 1.255 . S
C271 O252 1.249 . S
C271 C265 1.516 . S
H272 C258 0.930 . S
H273 C259 0.931 . S
H274 C260 0.931 . S
H275 C261 0.933 . S
H276 C267 0.930 . S
H277 C268 0.931 . S
H278 C269 0.931 . S
H279 C270 0.933 . S
Dy280 O283 2.307 . S
Dy280 O285 2.395 . S
Dy280 O286 2.379 . S
Dy280 O288 2.339 . S
Dy280 O290 2.298 . S
Dy280 O294 2.275 . S
Dy280 C302 2.738 . S
Dy281 O284 2.298 . S
Dy281 O287 2.275 . S
Dy281 O289 2.307 . S
Dy281 O291 2.395 . S
Dy281 O292 2.379 . S
Dy281 O295 2.339 . S
Dy281 C311 2.738 . S
C282 O294 1.254 . S
C282 O295 1.257 . S
O283 Dy280 2.307 . S
O283 C293 1.266 . S
O284 Dy281 2.298 . S
O284 C293 1.236 . S
O285 Dy280 2.395 . S
O285 C302 1.255 . S
O286 Dy280 2.379 . S
O286 C302 1.249 . S
O287 Dy281 2.275 . S
O287 C303 1.254 . S
O288 Dy280 2.339 . S
O288 C303 1.257 . S
O289 Dy281 2.307 . S
O289 C304 1.266 . S
O290 Dy280 2.298 . S
O290 C304 1.236 . S
O291 Dy281 2.395 . S
O291 C311 1.255 . S
O292 Dy281 2.379 . S
O292 C311 1.249 . S
C293 O283 1.266 . S
C293 O284 1.236 . S
O294 Dy280 2.275 . S
O294 C282 1.254 . S
O295 Dy281 2.339 . S
O295 C282 1.257 . S
C296 C299 1.344 . S
C296 C300 1.328 . S
C296 C302 1.516 . S
C297 C298 1.304 . S
C297 C301 1.323 . S
C298 C297 1.304 . S
C298 C299 1.371 . S
C298 H312 0.930 . S
C299 C296 1.344 . S
C299 C298 1.371 . S
C299 H313 0.931 . S
C300 C296 1.328 . S
C300 C301 1.433 . S
C300 H314 0.931 . S
C301 C297 1.323 . S
C301 C300 1.433 . S
C301 H315 0.933 1_556 S
C302 Dy280 2.738 . S
C302 O285 1.255 . S
C302 O286 1.249 . S
C302 C296 1.516 . S
C303 O287 1.254 . S
C303 O288 1.257 . S
C304 O289 1.266 . S
C304 O290 1.236 . S
C305 C308 1.344 . S
C305 C309 1.328 . S
C305 C311 1.516 . S
C306 C307 1.304 . S
C306 C310 1.323 . S
C307 C306 1.304 . S
C307 C308 1.371 . S
C307 H316 0.930 . S
C308 C305 1.344 . S
C308 C307 1.371 . S
C308 H317 0.931 . S
C309 C305 1.328 . S
C309 C310 1.433 . S
C309 H318 0.931 . S
C310 C306 1.323 . S
C310 C309 1.433 . S
C310 H319 0.933 . S
C311 Dy281 2.738 . S
C311 O291 1.255 . S
C311 O292 1.249 . S
C311 C305 1.516 . S
H312 C298 0.930 . S
H313 C299 0.931 . S
H314 C300 0.931 . S
H315 C301 0.933 1_554 S
H316 C307 0.930 . S
H317 C308 0.931 . S
H318 C309 0.931 . S
H319 C310 0.933 . S
Fe320 O321 1.886 1_455 S
Fe320 O324 1.715 . S
Fe320 O329 2.077 1_455 S
Fe320 O334 1.935 . S
Fe320 O340 2.077 1_455 S
Fe320 O349 1.935 . S
O321 Fe320 1.886 1_655 S
O321 Fe323 1.715 . S
Fe322 O324 1.886 . S
Fe322 O325 1.715 1_545 S
Fe322 O332 1.935 . S
Fe322 O333 2.077 . S
Fe322 O339 1.935 . S
Fe322 O348 2.077 . S
Fe323 O321 1.715 . S
Fe323 O326 1.886 1_545 S
Fe323 O330 1.935 . S
Fe323 O335 2.077 1_545 S
Fe323 O341 1.935 . S
Fe323 O345 2.077 1_545 S
O324 Fe320 1.715 . S
O324 Fe322 1.886 . S
O325 Fe322 1.715 1_565 S
O325 Fe327 1.886 . S
O326 Fe323 1.886 1_565 S
O326 Fe327 1.715 1_655 S
Fe327 O325 1.886 . S
Fe327 O326 1.715 1_455 S
Fe327 O331 2.077 . S
Fe327 O336 1.935 1_455 S
Fe327 O338 2.077 . S
Fe327 O346 1.935 1_455 S
C328 O340 1.381 . S
C328 O341 1.421 . S
O329 Fe320 2.077 1_655 S
O329 C342 1.381 . S
O330 Fe323 1.935 . S
O330 C342 1.421 . S
O331 Fe327 2.077 . S
O331 C347 1.381 . S
O332 Fe322 1.935 . S
O332 C347 1.421 1_545 S
O333 Fe322 2.077 . S
O333 C337 1.381 . S
O334 Fe320 1.935 . S
O334 C337 1.421 . S
O335 Fe323 2.077 1_565 S
O335 C343 1.381 . S
O336 Fe327 1.935 1_655 S
O336 C343 1.421 . S
C337 O333 1.381 . S
C337 O334 1.421 . S
O338 Fe327 2.077 . S
O338 C350 1.381 . S
O339 Fe322 1.935 . S
O339 C350 1.421 1_545 S
O340 Fe320 2.077 1_655 S
O340 C328 1.381 . S
O341 Fe323 1.935 . S
O341 C328 1.421 . S
C342 O329 1.381 . S
C342 O330 1.421 . S
C343 O335 1.381 . S
C343 O336 1.421 . S
C344 O345 1.381 . S
C344 O346 1.421 . S
O345 Fe323 2.077 1_565 S
O345 C344 1.381 . S
O346 Fe327 1.935 1_655 S
O346 C344 1.421 . S
C347 O331 1.381 . S
C347 O332 1.421 1_565 S
O348 Fe322 2.077 . S
O348 C351 1.381 . S
O349 Fe320 1.935 . S
O349 C351 1.421 . S
C350 O338 1.381 . S
C350 O339 1.421 1_565 S
C351 O348 1.381 . S
C351 O349 1.421 . S
Fe352 O353 1.886 1_566 S
Fe352 O356 1.715 . S
Fe352 O361 2.077 . S
Fe352 O366 1.935 . S
Fe352 O372 2.077 1_556 S
Fe352 O381 1.935 1_556 S
O353 Fe352 1.886 1_544 S
O353 Fe355 1.715 . S
Fe354 O356 1.886 1_545 S
Fe354 O357 1.718 1_556 S
Fe354 O364 1.935 . S
Fe354 O365 2.077 1_545 S
Fe354 O371 1.935 1_556 S
Fe354 O380 2.077 1_546 S
Fe355 O353 1.715 . S
Fe355 O358 1.886 . S
Fe355 O362 1.935 1_554 S
Fe355 O367 2.077 1_554 S
Fe355 O373 1.935 . S
Fe355 O377 2.077 . S
O356 Fe352 1.715 . S
O356 Fe354 1.886 1_565 S
O357 Fe354 1.718 1_554 S
O357 Fe359 1.883 . S
O358 Fe355 1.886 . S
O358 Fe359 1.715 . S
Fe359 O357 1.883 . S
Fe359 O358 1.715 . S
Fe359 O363 2.077 1_554 S
Fe359 O368 1.935 1_554 S
Fe359 O370 2.077 . S
Fe359 O378 1.935 . S
C360 O372 1.381 . S
C360 O373 1.421 1_565 S
O361 Fe352 2.077 . S
O361 C374 1.381 . S
O362 Fe355 1.935 1_556 S
O362 C374 1.421 1_545 S
O363 Fe359 2.077 1_556 S
O363 C379 1.381 . S
O364 Fe354 1.935 . S
O364 C379 1.421 . S
O365 Fe354 2.077 1_565 S
O365 C369 1.381 . S
O366 Fe352 1.935 . S
O366 C369 1.421 . S
O367 Fe355 2.077 1_556 S
O367 C375 1.381 . S
O368 Fe359 1.935 1_556 S
O368 C375 1.421 . S
C369 O365 1.381 . S
C369 O366 1.421 . S
O370 Fe359 2.077 . S
O370 C382 1.381 . S
O371 Fe354 1.935 1_554 S
O371 C382 1.421 . S
O372 Fe352 2.077 1_554 S
O372 C360 1.381 . S
O373 Fe355 1.935 . S
O373 C360 1.421 1_545 S
C374 O361 1.381 . S
C374 O362 1.421 1_565 S
C375 O367 1.381 . S
C375 O368 1.421 . S
C376 O377 1.381 . S
C376 O378 1.421 . S
O377 Fe355 2.077 . S
O377 C376 1.381 . S
O378 Fe359 1.935 . S
O378 C376 1.421 . S
C379 O363 1.381 . S
C379 O364 1.421 . S
O380 Fe354 2.077 1_564 S
O380 C383 1.381 . S
O381 Fe352 1.935 1_554 S
O381 C383 1.421 . S
C382 O370 1.381 . S
C382 O371 1.421 . S
C383 O380 1.381 . S
C383 O381 1.421 . S
Fe384 O385 1.886 1_455 S
Fe384 O388 1.715 . S
Fe384 O393 2.077 1_455 S
Fe384 O398 1.935 . S
Fe384 O404 2.077 1_455 S
Fe384 O413 1.935 . S
O385 Fe384 1.886 1_655 S
O385 Fe387 1.715 . S
Fe386 O388 1.886 . S
Fe386 O389 1.715 . S
Fe386 O396 1.935 . S
Fe386 O397 2.077 . S
Fe386 O403 1.935 . S
Fe386 O412 2.077 . S
Fe387 O385 1.715 . S
Fe387 O390 1.886 . S
Fe387 O394 1.935 . S
Fe387 O399 2.077 . S
Fe387 O405 1.935 . S
Fe387 O409 2.077 . S
O388 Fe384 1.715 . S
O388 Fe386 1.886 . S
O389 Fe386 1.715 . S
O389 Fe391 1.886 1_455 S
O390 Fe387 1.886 . S
O390 Fe391 1.715 . S
Fe391 O389 1.886 1_655 S
Fe391 O390 1.715 . S
Fe391 O395 2.077 1_655 S
Fe391 O400 1.935 . S
Fe391 O402 2.077 1_655 S
Fe391 O410 1.935 . S
C392 O404 1.381 . S
C392 O405 1.421 . S
O393 Fe384 2.077 1_655 S
O393 C406 1.386 . S
O394 Fe387 1.935 . S
O394 C406 1.426 . S
O395 Fe391 2.077 1_455 S
O395 C411 1.390 . S
O396 Fe386 1.935 . S
O396 C411 1.424 . S
O397 Fe386 2.077 . S
O397 C401 1.381 . S
O398 Fe384 1.935 . S
O398 C401 1.421 . S
O399 Fe387 2.077 . S
O399 C407 1.381 1_554 S
O400 Fe391 1.935 . S
O400 C407 1.421 1_554 S
C401 O397 1.381 . S
C401 O398 1.421 . S
O402 Fe391 2.077 1_455 S
O402 C414 1.381 . S
O403 Fe386 1.935 . S
O403 C414 1.421 . S
O404 Fe384 2.077 1_655 S
O404 C392 1.381 . S
O405 Fe387 1.935 . S
O405 C392 1.421 . S
C406 O393 1.386 . S
C406 O394 1.426 . S
C407 O399 1.381 1_556 S
C407 O400 1.421 1_556 S
C408 O409 1.381 . S
C408 O410 1.421 . S
O409 Fe387 2.077 . S
O409 C408 1.381 . S
O410 Fe391 1.935 . S
O410 C408 1.421 . S
C411 O395 1.390 . S
C411 O396 1.424 . S
O412 Fe386 2.077 . S
O412 C415 1.381 . S
O413 Fe384 1.935 . S
O413 C415 1.421 . S
C414 O402 1.381 . S
C414 O403 1.421 . S
C415 O412 1.381 . S
C415 O413 1.421 . S
Fe416 O417 1.886 . S
Fe416 O420 1.715 . S
Fe416 O425 2.077 . S
Fe416 O430 1.935 . S
Fe416 O436 2.077 . S
Fe416 O445 1.935 . S
O417 Fe416 1.886 . S
O417 Fe419 1.715 1_556 S
Fe418 O420 1.886 1_554 S
Fe418 O421 1.715 . S
Fe418 O428 1.935 . S
Fe418 O429 2.077 1_554 S
Fe418 O435 1.935 . S
Fe418 O444 2.077 1_554 S
Fe419 O417 1.715 1_554 S
Fe419 O422 1.886 . S
Fe419 O426 1.935 . S
Fe419 O431 2.077 . S
Fe419 O437 1.935 1_554 S
Fe419 O441 2.077 . S
O420 Fe416 1.715 . S
O420 Fe418 1.886 1_556 S
O421 Fe418 1.715 . S
O421 Fe423 1.886 . S
O422 Fe419 1.886 . S
O422 Fe423 1.715 . S
Fe423 O421 1.886 . S
Fe423 O422 1.715 . S
Fe423 O427 2.077 . S
Fe423 O432 1.935 . S
Fe423 O434 2.077 . S
Fe423 O442 1.935 . S
C424 O436 1.381 . S
C424 O437 1.421 . S
O425 Fe416 2.077 . S
O425 C438 1.381 . S
O426 Fe419 1.935 . S
O426 C438 1.421 1_554 S
O427 Fe423 2.077 . S
O427 C443 1.381 . S
O428 Fe418 1.935 . S
O428 C443 1.421 . S
O429 Fe418 2.077 1_556 S
O429 C433 1.381 . S
O430 Fe416 1.935 . S
O430 C433 1.421 . S
O431 Fe419 2.077 . S
O431 C439 1.381 . S
O432 Fe423 1.935 . S
O432 C439 1.421 . S
C433 O429 1.381 . S
C433 O430 1.421 . S
O434 Fe423 2.077 . S
O434 C446 1.381 . S
O435 Fe418 1.935 . S
O435 C446 1.421 . S
O436 Fe416 2.077 . S
O436 C424 1.381 . S
O437 Fe419 1.935 1_556 S
O437 C424 1.421 . S
C438 O425 1.381 . S
C438 O426 1.421 1_556 S
C439 O431 1.381 . S
C439 O432 1.421 . S
C440 O441 1.381 . S
C440 O442 1.421 . S
O441 Fe419 2.077 . S
O441 C440 1.381 . S
O442 Fe423 1.935 . S
O442 C440 1.421 . S
C443 O427 1.381 . S
C443 O428 1.421 . S
O444 Fe418 2.077 1_556 S
O444 C447 1.381 . S
O445 Fe416 1.935 . S
O445 C447 1.421 . S
C446 O434 1.381 . S
C446 O435 1.421 . S
C447 O444 1.381 . S
C447 O445 1.421 . S
Fe448 O449 1.886 . S
Fe448 O452 1.715 . S
Fe448 O457 2.077 . S
Fe448 O462 1.935 . S
Fe448 O468 2.077 1_455 S
Fe448 O477 1.935 1_455 S
O449 Fe448 1.886 . S
O449 Fe451 1.715 . S
Fe450 O452 1.886 . S
Fe450 O453 1.715 . S
Fe450 O460 1.935 . S
Fe450 O461 2.077 . S
Fe450 O467 1.935 1_455 S
Fe450 O476 2.077 1_455 S
Fe451 O449 1.715 . S
Fe451 O454 1.886 . S
Fe451 O458 1.935 . S
Fe451 O463 2.077 . S
Fe451 O469 1.935 1_455 S
Fe451 O473 2.077 . S
O452 Fe448 1.715 . S
O452 Fe450 1.886 . S
O453 Fe450 1.715 . S
O453 Fe455 1.886 . S
O454 Fe451 1.886 . S
O454 Fe455 1.715 . S
Fe455 O453 1.886 . S
Fe455 O454 1.715 . S
Fe455 O459 2.077 . S
Fe455 O464 1.935 . S
Fe455 O466 2.077 . S
Fe455 O474 1.935 . S
C456 O468 1.381 . S
C456 O469 1.421 . S
O457 Fe448 2.077 . S
O457 C470 1.381 . S
O458 Fe451 1.935 . S
O458 C470 1.421 . S
O459 Fe455 2.077 . S
O459 C475 1.381 . S
O460 Fe450 1.935 . S
O460 C475 1.421 . S
O461 Fe450 2.077 . S
O461 C465 1.381 . S
O462 Fe448 1.935 . S
O462 C465 1.421 . S
O463 Fe451 2.077 . S
O463 C471 1.381 . S
O464 Fe455 1.935 . S
O464 C471 1.421 . S
C465 O461 1.381 . S
C465 O462 1.421 . S
O466 Fe455 2.077 . S
O466 C478 1.381 1_455 S
O467 Fe450 1.935 1_655 S
O467 C478 1.421 . S
O468 Fe448 2.077 1_655 S
O468 C456 1.381 . S
O469 Fe451 1.935 1_655 S
O469 C456 1.421 . S
C470 O457 1.381 . S
C470 O458 1.421 . S
C471 O463 1.381 . S
C471 O464 1.421 . S
C472 O473 1.381 1_655 S
C472 O474 1.421 1_655 S
O473 Fe451 2.077 . S
O473 C472 1.381 1_455 S
O474 Fe455 1.935 . S
O474 C472 1.421 1_455 S
C475 O459 1.381 . S
C475 O460 1.421 . S
O476 Fe450 2.077 1_655 S
O476 C479 1.381 . S
O477 Fe448 1.935 1_655 S
O477 C479 1.421 . S
C478 O466 1.381 1_655 S
C478 O467 1.421 . S
C479 O476 1.381 . S
C479 O477 1.421 . S
Fe480 O481 1.886 . S
Fe480 O484 1.715 . S
Fe480 O489 2.077 . S
Fe480 O494 1.935 . S
Fe480 O500 2.077 . S
Fe480 O509 1.935 . S
O481 Fe480 1.886 . S
O481 Fe483 1.715 1_565 S
Fe482 O484 1.886 . S
Fe482 O485 1.715 1_565 S
Fe482 O492 1.935 1_565 S
Fe482 O493 2.077 . S
Fe482 O499 1.935 1_565 S
Fe482 O508 2.077 . S
Fe483 O481 1.715 1_545 S
Fe483 O486 1.886 . S
Fe483 O490 1.935 1_545 S
Fe483 O495 2.077 . S
Fe483 O501 1.935 1_545 S
Fe483 O505 2.077 . S
O484 Fe480 1.715 . S
O484 Fe482 1.886 . S
O485 Fe482 1.715 1_545 S
O485 Fe487 1.886 . S
O486 Fe483 1.886 . S
O486 Fe487 1.715 . S
Fe487 O485 1.886 . S
Fe487 O486 1.715 . S
Fe487 O491 2.077 . S
Fe487 O496 1.935 . S
Fe487 O498 2.077 . S
Fe487 O506 1.935 . S
C488 O500 1.381 . S
C488 O501 1.421 . S
O489 Fe480 2.077 . S
O489 C502 1.381 . S
O490 Fe483 1.935 1_565 S
O490 C502 1.421 . S
O491 Fe487 2.077 . S
O491 C507 1.381 . S
O492 Fe482 1.935 1_545 S
O492 C507 1.421 . S
O493 Fe482 2.077 . S
O493 C497 1.381 . S
O494 Fe480 1.935 . S
O494 C497 1.421 . S
O495 Fe483 2.077 . S
O495 C503 1.381 . S
O496 Fe487 1.935 . S
O496 C503 1.421 . S
C497 O493 1.381 . S
C497 O494 1.421 . S
O498 Fe487 2.077 . S
O498 C510 1.381 . S
O499 Fe482 1.935 1_545 S
O499 C510 1.421 . S
O500 Fe480 2.077 . S
O500 C488 1.381 . S
O501 Fe483 1.935 1_565 S
O501 C488 1.421 . S
C502 O489 1.381 . S
C502 O490 1.421 . S
C503 O495 1.381 . S
C503 O496 1.421 . S
C504 O505 1.381 . S
C504 O506 1.421 . S
O505 Fe483 2.077 . S
O505 C504 1.381 . S
O506 Fe487 1.935 . S
O506 C504 1.421 . S
C507 O491 1.381 . S
C507 O492 1.421 . S
O508 Fe482 2.077 . S
O508 C511 1.381 . S
O509 Fe480 1.935 . S
O509 C511 1.421 . S
C510 O498 1.381 . S
C510 O499 1.421 . S
C511 O508 1.381 . S
C511 O509 1.421 . S
C512 C513 1.387 . S
C512 H516 0.950 . S
C512 C521 1.390 . S
C513 C512 1.387 . S
C513 C515 1.387 . S
H514 C521 0.950 . S
C515 C513 1.387 . S
C515 C517 1.390 . S
C515 H519 0.950 . S
H516 C512 0.950 . S
C517 C515 1.390 . S
C517 C518 1.387 . S
C517 H520 0.950 . S
C518 C517 1.387 . S
C518 C521 1.387 . S
H519 C515 0.950 . S
H520 C517 0.950 . S
C521 C512 1.390 . S
C521 H514 0.950 . S
C521 C518 1.387 . S
C522 C523 1.387 . S
C522 H526 0.950 . S
C522 C531 1.390 . S
C523 C522 1.387 . S
C523 C525 1.387 . S
H524 C531 0.950 . S
C525 C523 1.387 . S
C525 C527 1.390 . S
C525 H529 0.950 . S
H526 C522 0.950 . S
C527 C525 1.390 . S
C527 C528 1.387 . S
C527 H530 0.950 . S
C528 C527 1.387 . S
C528 C531 1.387 . S
H529 C525 0.950 . S
H530 C527 0.950 . S
C531 C522 1.390 . S
C531 H524 0.950 . S
C531 C528 1.387 . S
C532 C533 1.387 . S
C532 H536 0.950 . S
C532 C541 1.390 . S
C533 C532 1.387 . S
C533 C535 1.387 . S
H534 C541 0.950 . S
C535 C533 1.387 . S
C535 C537 1.390 . S
C535 H539 0.950 . S
H536 C532 0.950 . S
C537 C535 1.390 . S
C537 C538 1.387 . S
C537 H540 0.950 . S
C538 C537 1.387 . S
C538 C541 1.387 . S
H539 C535 0.950 . S
H540 C537 0.950 . S
C541 C532 1.390 . S
C541 H534 0.950 . S
C541 C538 1.387 . S
C542 C543 1.387 . S
C542 H546 0.950 . S
C542 C551 1.390 . S
C543 C542 1.387 . S
C543 C545 1.387 . S
H544 C551 0.950 . S
C545 C543 1.387 . S
C545 C547 1.390 . S
C545 H549 0.950 . S
H546 C542 0.950 . S
C547 C545 1.390 . S
C547 C548 1.387 . S
C547 H550 0.950 . S
C548 C547 1.387 . S
C548 C551 1.387 . S
H549 C545 0.950 . S
H550 C547 0.950 . S
C551 C542 1.390 . S
C551 H544 0.950 . S
C551 C548 1.387 . S
C552 C553 1.387 . S
C552 H556 0.950 . S
C552 C561 1.390 . S
C553 C552 1.387 . S
C553 C555 1.387 . S
H554 C561 0.950 . S
C555 C553 1.387 . S
C555 C557 1.390 . S
C555 H559 0.950 . S
H556 C552 0.950 . S
C557 C555 1.390 . S
C557 C558 1.387 . S
C557 H560 0.950 . S
C558 C557 1.387 . S
C558 C561 1.387 . S
H559 C555 0.950 . S
H560 C557 0.950 . S
C561 C552 1.390 . S
C561 H554 0.950 . S
C561 C558 1.387 . S
C562 C563 1.387 . S
C562 H566 0.950 . S
C562 C571 1.390 . S
C563 C562 1.387 . S
C563 C565 1.387 . S
H564 C571 0.950 . S
C565 C563 1.387 . S
C565 C567 1.390 . S
C565 H569 0.950 . S
H566 C562 0.950 . S
C567 C565 1.390 . S
C567 C568 1.387 . S
C567 H570 0.950 . S
C568 C567 1.387 . S
C568 C571 1.387 . S
H569 C565 0.950 . S
H570 C567 0.950 . S
C571 C562 1.390 . S
C571 H564 0.950 . S
C571 C568 1.387 . S
C572 C573 1.387 . S
C572 H576 0.950 . S
C572 C581 1.390 . S
C573 C572 1.387 . S
C573 C575 1.387 1_655 S
H574 C581 0.950 . S
C575 C573 1.387 1_455 S
C575 C577 1.390 1_455 S
C575 H579 0.950 . S
H576 C572 0.950 . S
C577 C575 1.390 1_655 S
C577 C578 1.387 . S
C577 H580 0.959 . S
C578 C577 1.387 . S
C578 C581 1.387 . S
H579 C575 0.950 . S
H580 C577 0.959 . S
C581 C572 1.390 . S
C581 H574 0.950 . S
C581 C578 1.387 . S
C582 C583 1.387 . S
C582 H586 0.950 . S
C582 C591 1.390 . S
C583 C582 1.387 . S
C583 C585 1.387 . S
H584 C591 0.950 . S
C585 C583 1.387 . S
C585 C587 1.390 . S
C585 H589 0.950 . S
H586 C582 0.950 . S
C587 C585 1.390 . S
C587 C588 1.387 . S
C587 H590 0.950 . S
C588 C587 1.387 . S
C588 C591 1.387 . S
H589 C585 0.950 . S
H590 C587 0.950 . S
C591 C582 1.390 . S
C591 H584 0.950 . S
C591 C588 1.387 . S
C592 C593 1.387 . S
C592 H596 0.950 . S
C592 C601 1.390 . S
C593 C592 1.387 . S
C593 C595 1.387 . S
H594 C601 0.950 . S
C595 C593 1.387 . S
C595 C597 1.390 . S
C595 H599 0.950 . S
H596 C592 0.950 . S
C597 C595 1.390 . S
C597 C598 1.387 . S
C597 H600 0.950 . S
C598 C597 1.387 . S
C598 C601 1.387 . S
H599 C595 0.950 . S
H600 C597 0.950 . S
C601 C592 1.390 . S
C601 H594 0.950 . S
C601 C598 1.387 . S
C602 C603 1.387 . S
C602 H606 0.950 . S
C602 C611 1.390 . S
C603 C602 1.387 . S
C603 C605 1.387 . S
H604 C611 0.950 . S
C605 C603 1.387 . S
C605 C607 1.390 . S
C605 H609 0.950 . S
H606 C602 0.950 . S
C607 C605 1.390 . S
C607 C608 1.387 . S
C607 H610 0.950 . S
C608 C607 1.387 . S
C608 C611 1.387 . S
H609 C605 0.950 . S
H610 C607 0.950 . S
C611 C602 1.390 . S
C611 H604 0.950 . S
C611 C608 1.387 . S
C612 C613 1.387 . S
C612 H616 0.950 . S
C612 C621 1.390 . S
C613 C612 1.387 . S
C613 C615 1.387 . S
H614 C621 0.950 . S
C615 C613 1.387 . S
C615 C617 1.390 1_565 S
C615 H619 0.950 1_565 S
H616 C612 0.950 . S
C617 C615 1.390 1_545 S
C617 C618 1.387 1_545 S
C617 H620 0.950 . S
C618 C617 1.387 1_565 S
C618 C621 1.387 . S
H619 C615 0.950 1_545 S
H620 C617 0.950 . S
C621 C612 1.390 . S
C621 H614 0.950 . S
C621 C618 1.387 . S
C622 C623 1.387 . S
C622 H626 0.950 . S
C622 C631 1.390 . S
C623 C622 1.387 . S
C623 C625 1.387 . S
H624 C631 0.950 . S
C625 C623 1.387 . S
C625 C627 1.390 . S
C625 H629 0.950 . S
H626 C622 0.950 . S
C627 C625 1.390 . S
C627 C628 1.387 . S
C627 H630 0.950 . S
C628 C627 1.387 . S
C628 C631 1.387 . S
H629 C625 0.950 . S
H630 C627 0.950 . S
C631 C622 1.390 . S
C631 H624 0.950 . S
C631 C628 1.387 . S
C632 C633 1.387 . S
C632 H636 0.950 . S
C632 C641 1.390 . S
C633 C632 1.387 . S
C633 C635 1.387 . S
H634 C641 0.950 . S
C635 C633 1.387 . S
C635 C637 1.390 . S
C635 H639 0.950 . S
H636 C632 0.950 . S
C637 C635 1.390 . S
C637 C638 1.387 . S
C637 H640 0.950 . S
C638 C637 1.387 . S
C638 C641 1.387 . S
H639 C635 0.950 . S
H640 C637 0.950 . S
C641 C632 1.390 . S
C641 H634 0.950 . S
C641 C638 1.387 . S
C642 C643 1.387 . S
C642 H646 0.950 . S
C642 C651 1.390 . S
C643 C642 1.387 . S
C643 C645 1.387 . S
H644 C651 0.950 . S
C645 C643 1.387 . S
C645 C647 1.390 . S
C645 H649 0.950 . S
H646 C642 0.950 . S
C647 C645 1.390 . S
C647 C648 1.387 . S
C647 H650 0.950 . S
C648 C647 1.387 . S
C648 C651 1.387 . S
H649 C645 0.950 . S
H650 C647 0.950 . S
C651 C642 1.390 . S
C651 H644 0.950 . S
C651 C648 1.387 . S
C652 C653 1.387 . S
C652 H656 0.950 . S
C652 C661 1.390 . S
C653 C652 1.387 . S
C653 C655 1.387 . S
H654 C661 0.950 . S
C655 C653 1.387 . S
C655 C657 1.390 . S
C655 H659 0.950 . S
H656 C652 0.950 . S
C657 C655 1.390 . S
C657 C658 1.387 . S
C657 H660 0.950 . S
C658 C657 1.387 . S
C658 C661 1.387 . S
H659 C655 0.950 . S
H660 C657 0.950 . S
C661 C652 1.390 . S
C661 H654 0.950 . S
C661 C658 1.387 . S
C662 C663 1.387 1_556 S
C662 H666 0.950 . S
C662 C671 1.390 . S
C663 C662 1.387 1_554 S
C663 C665 1.387 . S
H664 C671 0.950 . S
C665 C663 1.387 . S
C665 C667 1.390 . S
C665 H669 0.950 . S
H666 C662 0.950 . S
C667 C665 1.390 . S
C667 C668 1.387 1_554 S
C667 H670 0.950 . S
C668 C667 1.387 1_556 S
C668 C671 1.387 . S
H669 C665 0.950 . S
H670 C667 0.950 . S
C671 C662 1.390 . S
C671 H664 0.950 . S
C671 C668 1.387 . S
C672 C673 1.387 . S
C672 H676 0.950 . S
C672 C681 1.390 . S
C673 C672 1.387 . S
C673 C675 1.387 . S
H674 C681 0.950 . S
C675 C673 1.387 . S
C675 C677 1.390 . S
C675 H679 0.950 . S
H676 C672 0.950 . S
C677 C675 1.390 . S
C677 C678 1.387 . S
C677 H680 0.950 . S
C678 C677 1.387 . S
C678 C681 1.387 . S
H679 C675 0.950 . S
H680 C677 0.950 . S
C681 C672 1.390 . S
C681 H674 0.950 . S
C681 C678 1.387 . S
C682 C683 1.387 . S
C682 H686 0.950 . S
C682 C691 1.409 . S
C683 C682 1.387 . S
C683 C685 1.387 . S
H684 C691 0.940 1_554 S
C685 C683 1.387 . S
C685 C687 1.390 . S
C685 H689 0.950 . S
H686 C682 0.950 . S
C687 C685 1.390 . S
C687 C688 1.387 1_556 S
C687 H690 0.950 . S
C688 C687 1.387 1_554 S
C688 C691 1.379 1_554 S
H689 C685 0.950 . S
H690 C687 0.950 . S
C691 C682 1.409 . S
C691 H684 0.940 1_556 S
C691 C688 1.379 1_556 S
C692 C693 1.387 . S
C692 H696 0.950 . S
C692 C701 1.390 . S
C693 C692 1.387 . S
C693 C695 1.387 . S
H694 C701 0.950 . S
C695 C693 1.387 . S
C695 C697 1.390 . S
C695 H699 0.950 . S
H696 C692 0.950 . S
C697 C695 1.390 . S
C697 C698 1.387 . S
C697 H700 0.950 . S
C698 C697 1.387 . S
C698 C701 1.387 . S
H699 C695 0.950 . S
H700 C697 0.950 . S
C701 C692 1.390 . S
C701 H694 0.950 . S
C701 C698 1.387 . S
C702 C703 1.387 . S
C702 H706 0.950 . S
C702 C711 1.390 . S
C703 C702 1.387 . S
C703 C705 1.387 . S
H704 C711 0.950 . S
C705 C703 1.387 . S
C705 C707 1.390 . S
C705 H709 0.950 . S
H706 C702 0.950 . S
C707 C705 1.390 . S
C707 C708 1.387 . S
C707 H710 0.950 . S
C708 C707 1.387 . S
C708 C711 1.387 . S
H709 C705 0.950 . S
H710 C707 0.950 . S
C711 C702 1.390 . S
C711 H704 0.950 . S
C711 C708 1.387 . S
C712 C713 1.387 . S
C712 H716 0.950 . S
C712 C721 1.390 . S
C713 C712 1.387 . S
C713 C715 1.387 . S
H714 C721 0.950 . S
C715 C713 1.387 . S
C715 C717 1.390 . S
C715 H719 0.950 . S
H716 C712 0.950 . S
C717 C715 1.390 . S
C717 C718 1.387 . S
C717 H720 0.950 . S
C718 C717 1.387 . S
C718 C721 1.387 . S
H719 C715 0.950 . S
H720 C717 0.950 . S
C721 C712 1.390 . S
C721 H714 0.950 . S
C721 C718 1.387 . S
C722 C723 1.387 . S
C722 H726 0.950 . S
C722 C731 1.390 . S
C723 C722 1.387 . S
C723 C725 1.387 . S
H724 C731 0.950 . S
C725 C723 1.387 . S
C725 C727 1.390 . S
C725 H729 0.950 . S
H726 C722 0.950 . S
C727 C725 1.390 . S
C727 C728 1.387 . S
C727 H730 0.950 . S
C728 C727 1.387 . S
C728 C731 1.387 . S
H729 C725 0.950 . S
H730 C727 0.950 . S
C731 C722 1.390 . S
C731 H724 0.950 . S
C731 C728 1.387 . S
C732 C733 1.387 . S
C732 H736 0.950 . S
C732 C741 1.390 . S
C733 C732 1.387 . S
C733 C735 1.387 . S
H734 C741 0.950 . S
C735 C733 1.387 . S
C735 C737 1.390 . S
C735 H739 0.950 . S
H736 C732 0.950 . S
C737 C735 1.390 . S
C737 C738 1.387 . S
C737 H740 0.950 . S
C738 C737 1.387 . S
C738 C741 1.387 . S
H739 C735 0.950 . S
H740 C737 0.950 . S
C741 C732 1.390 . S
C741 H734 0.950 . S
C741 C738 1.387 . S
C742 C743 1.387 . S
C742 H746 0.950 . S
C742 C751 1.390 . S
C743 C742 1.387 . S
C743 C745 1.387 . S
H744 C751 0.950 . S
C745 C743 1.387 . S
C745 C747 1.390 . S
C745 H749 0.950 . S
H746 C742 0.950 . S
C747 C745 1.390 . S
C747 C748 1.387 . S
C747 H750 0.950 . S
C748 C747 1.387 . S
C748 C751 1.387 . S
H749 C745 0.950 . S
H750 C747 0.950 . S
C751 C742 1.390 . S
C751 H744 0.950 . S
C751 C748 1.387 . S
C752 C753 1.387 . S
C752 H756 0.950 . S
C752 C761 1.390 . S
C753 C752 1.387 . S
C753 C755 1.387 . S
H754 C761 0.950 . S
C755 C753 1.387 . S
C755 C757 1.390 . S
C755 H759 0.950 . S
H756 C752 0.950 . S
C757 C755 1.390 . S
C757 C758 1.387 . S
C757 H760 0.950 . S
C758 C757 1.387 . S
C758 C761 1.387 . S
H759 C755 0.950 . S
H760 C757 0.950 . S
C761 C752 1.390 . S
C761 H754 0.950 . S
C761 C758 1.387 . S
C762 C763 1.387 . S
C762 H766 0.950 . S
C762 C771 1.390 . S
C763 C762 1.387 . S
C763 C765 1.387 . S
H764 C771 0.950 . S
C765 C763 1.387 . S
C765 C767 1.390 . S
C765 H769 0.950 . S
H766 C762 0.950 . S
C767 C765 1.390 . S
C767 C768 1.387 . S
C767 H770 0.950 . S
C768 C767 1.387 . S
C768 C771 1.387 . S
H769 C765 0.950 . S
H770 C767 0.950 . S
C771 C762 1.390 . S
C771 H764 0.950 . S
C771 C768 1.387 . S
C772 C773 1.387 . S
C772 H776 0.950 . S
C772 C781 1.390 . S
C773 C772 1.387 . S
C773 C775 1.387 . S
H774 C781 0.950 . S
C775 C773 1.387 . S
C775 C777 1.390 . S
C775 H779 0.950 . S
H776 C772 0.950 . S
C777 C775 1.390 . S
C777 C778 1.387 . S
C777 H780 0.950 . S
C778 C777 1.387 . S
C778 C781 1.387 . S
H779 C775 0.950 . S
H780 C777 0.950 . S
C781 C772 1.390 . S
C781 H774 0.950 . S
C781 C778 1.387 . S
C782 C783 1.387 . S
C782 H786 0.950 . S
C782 C791 1.390 . S
C783 C782 1.387 . S
C783 C785 1.387 . S
H784 C791 0.950 . S
C785 C783 1.387 . S
C785 C787 1.390 . S
C785 H789 0.950 . S
H786 C782 0.950 . S
C787 C785 1.390 . S
C787 C788 1.387 . S
C787 H790 0.950 . S
C788 C787 1.387 . S
C788 C791 1.387 . S
H789 C785 0.950 . S
H790 C787 0.950 . S
C791 C782 1.390 . S
C791 H784 0.950 . S
C791 C788 1.387 . S
C792 C793 1.387 . S
C792 H796 0.950 . S
C792 C801 1.390 . S
C793 C792 1.387 . S
C793 C795 1.387 . S
H794 C801 0.950 . S
C795 C793 1.387 . S
C795 C797 1.390 . S
C795 H799 0.950 . S
H796 C792 0.950 . S
C797 C795 1.390 . S
C797 C798 1.387 . S
C797 H800 0.950 . S
C798 C797 1.387 . S
C798 C801 1.387 . S
H799 C795 0.950 . S
H800 C797 0.950 . S
C801 C792 1.390 . S
C801 H794 0.950 . S
C801 C798 1.387 . S
C802 C803 1.387 . S
C802 H806 0.950 . S
C802 C811 1.390 . S
C803 C802 1.387 . S
C803 C805 1.387 . S
H804 C811 0.950 . S
C805 C803 1.387 . S
C805 C807 1.390 . S
C805 H809 0.950 . S
H806 C802 0.950 . S
C807 C805 1.390 . S
C807 C808 1.387 . S
C807 H810 0.950 . S
C808 C807 1.387 . S
C808 C811 1.387 . S
H809 C805 0.950 . S
H810 C807 0.950 . S
C811 C802 1.390 . S
C811 H804 0.950 . S
C811 C808 1.387 . S
C812 C813 1.387 . S
C812 H816 0.950 . S
C812 C821 1.390 . S
C813 C812 1.387 . S
C813 C815 1.387 . S
H814 C821 0.950 . S
C815 C813 1.387 . S
C815 C817 1.390 . S
C815 H819 0.950 . S
H816 C812 0.950 . S
C817 C815 1.390 . S
C817 C818 1.387 . S
C817 H820 0.950 . S
C818 C817 1.387 . S
C818 C821 1.387 . S
H819 C815 0.950 . S
H820 C817 0.950 . S
C821 C812 1.390 . S
C821 H814 0.950 . S
C821 C818 1.387 . S
C822 C823 1.387 . S
C822 H826 0.950 . S
C822 C831 1.390 . S
C823 C822 1.387 . S
C823 C825 1.387 . S
H824 C831 0.950 . S
C825 C823 1.387 . S
C825 C827 1.390 . S
C825 H829 0.950 . S
H826 C822 0.950 . S
C827 C825 1.390 . S
C827 C828 1.387 . S
C827 H830 0.950 . S
C828 C827 1.387 . S
C828 C831 1.387 . S
H829 C825 0.950 . S
H830 C827 0.950 . S
C831 C822 1.390 . S
C831 H824 0.950 . S
C831 C828 1.387 . S
C832 C833 1.387 . S
C832 H836 0.950 . S
C832 C841 1.390 . S
C833 C832 1.387 . S
C833 C835 1.387 . S
H834 C841 0.950 . S
C835 C833 1.387 . S
C835 C837 1.390 . S
C835 H839 0.950 . S
H836 C832 0.950 . S
C837 C835 1.390 . S
C837 C838 1.387 . S
C837 H840 0.950 . S
C838 C837 1.387 . S
C838 C841 1.387 . S
H839 C835 0.950 . S
H840 C837 0.950 . S
C841 C832 1.390 . S
C841 H834 0.950 . S
C841 C838 1.387 . S
C842 C843 1.387 . S
C842 H846 0.950 . S
C842 C851 1.390 . S
C843 C842 1.387 . S
C843 C845 1.387 . S
H844 C851 0.950 . S
C845 C843 1.387 . S
C845 C847 1.390 . S
C845 H849 0.950 . S
H846 C842 0.950 . S
C847 C845 1.390 . S
C847 C848 1.387 . S
C847 H850 0.950 . S
C848 C847 1.387 . S
C848 C851 1.387 . S
H849 C845 0.950 . S
H850 C847 0.950 . S
C851 C842 1.390 . S
C851 H844 0.950 . S
C851 C848 1.387 . S
C852 C853 1.387 . S
C852 H856 0.950 . S
C852 C861 1.390 . S
C853 C852 1.387 . S
C853 C855 1.387 . S
H854 C861 0.950 . S
C855 C853 1.387 . S
C855 C857 1.390 . S
C855 H859 0.950 . S
H856 C852 0.950 . S
C857 C855 1.390 . S
C857 C858 1.387 . S
C857 H860 0.950 . S
C858 C857 1.387 . S
C858 C861 1.387 . S
H859 C855 0.950 . S
H860 C857 0.950 . S
C861 C852 1.390 . S
C861 H854 0.950 . S
C861 C858 1.387 . S
C862 C863 1.387 . S
C862 H866 0.950 . S
C862 C871 1.390 . S
C863 C862 1.387 . S
C863 C865 1.387 . S
H864 C871 0.950 . S
C865 C863 1.387 . S
C865 C867 1.390 . S
C865 H869 0.950 . S
H866 C862 0.950 . S
C867 C865 1.390 . S
C867 C868 1.387 . S
C867 H870 0.950 . S
C868 C867 1.387 . S
C868 C871 1.387 . S
H869 C865 0.950 . S
H870 C867 0.950 . S
C871 C862 1.390 . S
C871 H864 0.950 . S
C871 C868 1.387 . S
C872 C873 1.387 . S
C872 H876 0.950 . S
C872 C881 1.390 . S
C873 C872 1.387 . S
C873 C875 1.387 . S
H874 C881 0.950 . S
C875 C873 1.387 . S
C875 C877 1.390 . S
C875 H879 0.950 . S
H876 C872 0.950 . S
C877 C875 1.390 . S
C877 C878 1.387 . S
C877 H880 0.950 . S
C878 C877 1.387 . S
C878 C881 1.387 . S
H879 C875 0.950 . S
H880 C877 0.950 . S
C881 C872 1.390 . S
C881 H874 0.950 . S
C881 C878 1.387 . S
C882 C883 1.387 . S
C882 H886 0.950 . S
C882 C891 1.390 . S
C883 C882 1.387 . S
C883 C885 1.387 . S
H884 C891 0.950 . S
C885 C883 1.387 . S
C885 C887 1.390 . S
C885 H889 0.950 . S
H886 C882 0.950 . S
C887 C885 1.390 . S
C887 C888 1.387 . S
C887 H890 0.950 . S
C888 C887 1.387 . S
C888 C891 1.387 . S
H889 C885 0.950 . S
H890 C887 0.950 . S
C891 C882 1.390 . S
C891 H884 0.950 . S
C891 C888 1.387 . S
C892 C893 1.387 . S
C892 H896 0.950 . S
C892 C901 1.390 . S
C893 C892 1.387 . S
C893 C895 1.387 . S
H894 C901 0.950 . S
C895 C893 1.387 . S
C895 C897 1.390 . S
C895 H899 0.950 . S
H896 C892 0.950 . S
C897 C895 1.390 . S
C897 C898 1.387 . S
C897 H900 0.950 . S
C898 C897 1.387 . S
C898 C901 1.387 . S
H899 C895 0.950 . S
H900 C897 0.950 . S
C901 C892 1.390 . S
C901 H894 0.950 . S
C901 C898 1.387 . S
C902 C903 1.387 . S
C902 H906 0.950 . S
C902 C911 1.390 . S
C903 C902 1.387 . S
C903 C905 1.387 . S
H904 C911 0.950 . S
C905 C903 1.387 . S
C905 C907 1.390 . S
C905 H909 0.950 . S
H906 C902 0.950 . S
C907 C905 1.390 . S
C907 C908 1.387 . S
C907 H910 0.950 . S
C908 C907 1.387 . S
C908 C911 1.387 . S
H909 C905 0.950 . S
H910 C907 0.950 . S
C911 C902 1.390 . S
C911 H904 0.950 . S
C911 C908 1.387 . S
C912 C913 1.387 . S
C912 H916 0.950 . S
C912 C921 1.390 . S
C913 C912 1.387 . S
C913 C915 1.387 . S
H914 C921 0.950 . S
C915 C913 1.387 . S
C915 C917 1.390 . S
C915 H919 0.950 . S
H916 C912 0.950 . S
C917 C915 1.390 . S
C917 C918 1.387 . S
C917 H920 0.950 . S
C918 C917 1.387 . S
C918 C921 1.387 . S
H919 C915 0.950 . S
H920 C917 0.950 . S
C921 C912 1.390 . S
C921 H914 0.950 . S
C921 C918 1.387 . S
C922 C923 1.387 . S
C922 H926 0.950 . S
C922 C931 1.390 . S
C923 C922 1.387 . S
C923 C925 1.387 . S
H924 C931 0.950 . S
C925 C923 1.387 . S
C925 C927 1.390 . S
C925 H929 0.950 . S
H926 C922 0.950 . S
C927 C925 1.390 . S
C927 C928 1.387 . S
C927 H930 0.950 . S
C928 C927 1.387 . S
C928 C931 1.387 . S
H929 C925 0.950 . S
H930 C927 0.950 . S
C931 C922 1.390 . S
C931 H924 0.950 . S
C931 C928 1.387 . S
C932 C933 1.387 . S
C932 H936 0.950 . S
C932 C941 1.390 . S
C933 C932 1.387 . S
C933 C935 1.387 . S
H934 C941 0.950 . S
C935 C933 1.387 . S
C935 C937 1.390 . S
C935 H939 0.950 . S
H936 C932 0.950 . S
C937 C935 1.390 . S
C937 C938 1.387 . S
C937 H940 0.950 . S
C938 C937 1.387 . S
C938 C941 1.387 . S
H939 C935 0.950 . S
H940 C937 0.950 . S
C941 C932 1.390 . S
C941 H934 0.950 . S
C941 C938 1.387 . S
C942 C943 1.387 . S
C942 H946 0.950 . S
C942 C951 1.390 . S
C943 C942 1.387 . S
C943 C945 1.387 . S
H944 C951 0.950 . S
C945 C943 1.387 . S
C945 C947 1.390 . S
C945 H949 0.950 . S
H946 C942 0.950 . S
C947 C945 1.390 . S
C947 C948 1.387 . S
C947 H950 0.950 . S
C948 C947 1.387 . S
C948 C951 1.387 . S
H949 C945 0.950 . S
H950 C947 0.950 . S
C951 C942 1.390 . S
C951 H944 0.950 . S
C951 C948 1.387 . S
C952 C953 1.387 . S
C952 H956 0.950 . S
C952 C961 1.390 . S
C953 C952 1.387 . S
C953 C955 1.387 . S
H954 C961 0.950 . S
C955 C953 1.387 . S
C955 C957 1.390 . S
C955 H959 0.950 . S
H956 C952 0.950 . S
C957 C955 1.390 . S
C957 C958 1.387 . S
C957 H960 0.950 . S
C958 C957 1.387 . S
C958 C961 1.387 . S
H959 C955 0.950 . S
H960 C957 0.950 . S
C961 C952 1.390 . S
C961 H954 0.950 . S
C961 C958 1.387 . S
C962 C963 1.387 . S
C962 H966 0.950 . S
C962 C971 1.390 . S
C963 C962 1.387 . S
C963 C965 1.387 . S
H964 C971 0.950 . S
C965 C963 1.387 . S
C965 C967 1.390 . S
C965 H969 0.950 . S
H966 C962 0.950 . S
C967 C965 1.390 . S
C967 C968 1.387 . S
C967 H970 0.950 . S
C968 C967 1.387 . S
C968 C971 1.387 . S
H969 C965 0.950 . S
H970 C967 0.950 . S
C971 C962 1.390 . S
C971 H964 0.950 . S
C971 C968 1.387 . S
C972 C973 1.387 . S
C972 H976 0.950 . S
C972 C981 1.390 . S
C973 C972 1.387 . S
C973 C975 1.387 . S
H974 C981 0.950 . S
C975 C973 1.387 . S
C975 C977 1.390 . S
C975 H979 0.950 . S
H976 C972 0.950 . S
C977 C975 1.390 . S
C977 C978 1.387 . S
C977 H980 0.950 . S
C978 C977 1.387 . S
C978 C981 1.387 . S
H979 C975 0.950 . S
H980 C977 0.950 . S
C981 C972 1.390 . S
C981 H974 0.950 . S
C981 C978 1.387 . S
C982 C983 1.387 . S
C982 H986 0.950 . S
C982 C991 1.390 . S
C983 C982 1.387 . S
C983 C985 1.387 . S
H984 C991 0.950 . S
C985 C983 1.387 . S
C985 C987 1.390 . S
C985 H989 0.950 . S
H986 C982 0.950 . S
C987 C985 1.390 . S
C987 C988 1.387 . S
C987 H990 0.950 . S
C988 C987 1.387 . S
C988 C991 1.387 . S
H989 C985 0.950 . S
H990 C987 0.950 . S
C991 C982 1.390 . S
C991 H984 0.950 . S
C991 C988 1.387 . S
C518 C337 2.755 . S
C513 C24 2.675 . S
C528 C342 3.079 . S
C523 C53 3.090 . S
C538 C343 1.500 . S
C533 C82 1.475 . S
C543 C137 0.626 . S
C548 C347 0.700 . S
C553 C184 2.967 . S
C558 C350 2.913 . S
C568 C351 1.480 . S
C563 C202 1.478 . S
C573 C266 0.689 . S
C578 C328 0.512 . S
C583 C293 2.677 . S
C588 C344 2.739 . S
C598 C382 2.789 . S
C593 C2 2.808 . S
C603 C57 1.054 . S
C608 C408 1.178 . S
C618 C360 0.722 . S
C613 C106 0.718 . S
C628 C415 1.065 . S
C623 C143 1.082 . S
C633 C162 1.172 . S
C638 C369 1.150 . S
C648 C411 0.865 1_556 S
C643 C226 0.869 . S
C653 C264 2.449 . S
C658 C375 2.416 . S
C663 C297 0.758 1_554 S
C668 C406 0.755 1_556 S
C673 C26 0.939 . S
C678 C414 0.853 . S
C683 C186 0.298 . S
C688 C401 0.370 . S
C698 C379 2.330 . S
C693 C224 2.369 . S
C708 C407 1.914 . S
C703 C242 1.986 . S
C713 C303 3.271 . S
C718 C374 3.148 . S
C723 C104 2.056 . S
C728 C392 2.042 . S
C738 C383 2.872 . S
C733 C133 2.896 . S
C743 C63 1.780 . S
C748 C376 1.821 . S
C753 C304 2.642 . S
C758 C438 2.605 . S
C763 C173 2.937 . S
C768 C433 2.907 . S
C778 C447 1.406 . S
C773 C223 1.452 . S
C788 C424 0.515 . S
C783 C257 0.698 . S
C793 C64 3.060 . S
C798 C440 3.049 . S
C808 C439 1.449 . S
C803 C103 1.455 . S
C813 C146 0.636 . S
C818 C443 0.228 . S
C823 C13 2.643 . S
C828 C446 2.623 . S
C833 C282 3.285 . S
C838 C472 3.292 . S
C848 C488 0.339 . S
C843 C177 0.291 . S
C853 C213 2.388 . S
C858 C470 2.349 . S
C863 C263 1.991 . S
C868 C503 1.842 . S
C878 C479 1.841 . S
C873 C42 1.791 . S
C883 C93 2.085 . S
C888 C497 2.061 . S
C898 C475 2.788 . S
C893 C144 2.887 . S
C908 C510 1.019 . S
C903 C17 0.957 . S
C918 C502 0.667 . S
C913 C306 0.744 . S
C923 C66 1.033 . S
C928 C507 0.995 . S
C933 C97 0.727 . S
C938 C478 0.730 . S
C948 C511 1.143 . S
C943 C122 1.108 . S
C953 C23 2.822 . S
C958 C465 2.835 . S
C963 C217 0.872 . S
C968 C504 0.847 . S
C978 C456 2.454 . S
C973 C253 2.444 . S
C988 C471 1.142 . S
C983 C183 1.177 . S
