# Generated by pormake.
# Topology anh, (6,3)-cn, num edge types: 1
# Building blocks:
#     Node 0, Type 0, BuildingBlock: BETDIP_clean_sbu_0, # of connection points: 6
#     Node 1, Type 0, BuildingBlock: BETDIP_clean_sbu_0, # of connection points: 6
#     Node 2, Type 0, BuildingBlock: BETDIP_clean_sbu_0, # of connection points: 6
#     Node 3, Type 1, BuildingBlock: WUSLED_clean_sbu_0, # of connection points: 3
#     Node 4, Type 1, BuildingBlock: WUSLED_clean_sbu_0, # of connection points: 3
#     Node 5, Type 1, BuildingBlock: WUSLED_clean_sbu_0, # of connection points: 3
#     Node 6, Type 1, BuildingBlock: WUSLED_clean_sbu_0, # of connection points: 3
#     Node 7, Type 1, BuildingBlock: WUSLED_clean_sbu_0, # of connection points: 3
#     Node 8, Type 1, BuildingBlock: WUSLED_clean_sbu_0, # of connection points: 3
#     Edge 9, Type (0, 1), BuildingBlock: MIFKUJ_clean_linker_0, # of connection points: 2
#     Edge 10, Type (0, 1), BuildingBlock: MIFKUJ_clean_linker_0, # of connection points: 2
#     Edge 11, Type (0, 1), BuildingBlock: MIFKUJ_clean_linker_0, # of connection points: 2
#     Edge 12, Type (0, 1), BuildingBlock: MIFKUJ_clean_linker_0, # of connection points: 2
#     Edge 13, Type (0, 1), BuildingBlock: MIFKUJ_clean_linker_0, # of connection points: 2
#     Edge 14, Type (0, 1), BuildingBlock: MIFKUJ_clean_linker_0, # of connection points: 2
#     Edge 15, Type (0, 1), BuildingBlock: MIFKUJ_clean_linker_0, # of connection points: 2
#     Edge 16, Type (0, 1), BuildingBlock: MIFKUJ_clean_linker_0, # of connection points: 2
#     Edge 17, Type (0, 1), BuildingBlock: MIFKUJ_clean_linker_0, # of connection points: 2
#     Edge 18, Type (0, 1), BuildingBlock: MIFKUJ_clean_linker_0, # of connection points: 2
#     Edge 19, Type (0, 1), BuildingBlock: MIFKUJ_clean_linker_0, # of connection points: 2
#     Edge 20, Type (0, 1), BuildingBlock: MIFKUJ_clean_linker_0, # of connection points: 2
#     Edge 21, Type (0, 1), BuildingBlock: MIFKUJ_clean_linker_0, # of connection points: 2
#     Edge 22, Type (0, 1), BuildingBlock: MIFKUJ_clean_linker_0, # of connection points: 2
#     Edge 23, Type (0, 1), BuildingBlock: MIFKUJ_clean_linker_0, # of connection points: 2
#     Edge 24, Type (0, 1), BuildingBlock: MIFKUJ_clean_linker_0, # of connection points: 2
#     Edge 25, Type (0, 1), BuildingBlock: MIFKUJ_clean_linker_0, # of connection points: 2
#     Edge 26, Type (0, 1), BuildingBlock: MIFKUJ_clean_linker_0, # of connection points: 2
# Relax obj value: 0.192
# Max RMSD: 0.174
# Mean RMSD: 0.143
data_MOF--net-anh--node1-BETDIP_clean_sbu_0--node2-WUSLED_clean_sbu_0--edge1-MIFKUJ_clean_linker_0
_symmetry_space_group_name_H-M    P1
_symmetry_Int_Tables_number       1
_symmetry_cell_setting            triclinic
loop_
_symmetry_equiv_pos_as_xyz
'x, y, z'
_cell_length_a     50.00041
_cell_length_b     49.603755
_cell_length_c     85.460623
_cell_angle_alpha  89.839921
_cell_angle_beta   90.545911
_cell_angle_gamma 120.1943
loop_
_atom_site_label
_atom_site_type_symbol
_atom_site_fract_x
_atom_site_fract_y
_atom_site_fract_z
_atom_type_partial_charge
Tb0 Tb 0.07923 0.59821 0.1738 0.0
Tb1 Tb 0.04939 0.52976 0.16883 0.0
C2 C 0.11366 0.65131 0.18358 0.0
C3 C 0.14603 0.66858 0.17922 0.0
C4 C 0.16881 0.67769 0.19086 0.0
C5 C 0.19967 0.69137 0.1867 0.0
C6 C 0.20784 0.69634 0.17086 0.0
C7 C 0.18499 0.68481 0.15919 0.0
C8 C 0.15419 0.671 0.16334 0.0
C9 C 0.06931 0.58069 0.14438 0.0
C10 C 0.12399 0.56659 0.16888 0.0
C11 C 1.02276 0.47941 0.15486 0.0
C12 C 0.99052 0.45642 0.15615 0.0
C13 C 0.97267 0.44639 0.14242 0.0
C14 C 0.94071 0.43091 0.14333 0.0
C15 C 0.92679 0.4255 0.15797 0.0
C16 C 0.94449 0.436 0.17169 0.0
C17 C 0.97634 0.45147 0.17079 0.0
C18 C 0.04936 0.54129 0.19982 0.0
C19 C 1.00534 0.56151 0.16983 0.0
O20 O 0.10645 0.62677 0.1922 0.0
O21 O 0.09391 0.6457 0.17214 0.0
O22 O 0.07799 0.56953 0.1552 0.0
O23 O 0.06794 0.60434 0.14973 0.0
O24 O 0.12199 0.59238 0.17159 0.0
O25 O 0.09792 0.53935 0.16715 0.0
O26 O 1.02627 0.5053 0.14889 0.0
O27 O 0.04008 0.48372 0.16735 0.0
O28 O 0.059 0.55962 0.18838 0.0
O29 O 1.03768 0.51373 0.19367 0.0
O30 O 1.0089 0.53783 0.16494 0.0
O31 O 1.02973 0.58635 0.1763 0.0
H32 H 0.16271 0.67454 0.20313 0.0
H33 H 0.21723 0.7005 0.19583 0.0
H34 H 0.19113 0.68877 0.14693 0.0
H35 H 0.13692 0.66269 0.15407 0.0
H36 H 0.9835 0.45139 0.13103 0.0
H37 H 0.92685 0.42201 0.13276 0.0
H38 H 0.93361 0.43093 0.18307 0.0
H39 H 0.98976 0.46011 0.1815 0.0
Tb40 Tb 0.61176 0.04388 0.50628 0.0
Tb41 Tb 0.57405 0.06908 0.50495 0.0
C42 C 0.63277 1.01041 0.51447 0.0
C43 C 0.61828 0.97757 0.51058 0.0
C44 C 0.60874 0.9558 0.5227 0.0
C45 C 0.59158 0.92423 0.51927 0.0
C46 C 0.5842 0.91429 0.50367 0.0
C47 C 0.59207 0.93607 0.49163 0.0
C48 C 0.60903 0.96761 0.49506 0.0
C49 C 0.60401 0.05677 0.47743 0.0
C50 C 0.53606 0.9959 0.50185 0.0
C51 C 0.54706 0.09863 0.49924 0.0
C52 C 0.56069 0.13152 0.49584 0.0
C53 C 0.58298 0.14531 0.48403 0.0
C54 C 0.6023 0.17738 0.48369 0.0
C55 C 0.59952 0.19562 0.49523 0.0
C56 C 0.57615 0.18203 0.50648 0.0
C57 C 0.55666 0.1501 0.50671 0.0
C58 C 0.5816 0.05403 0.53386 0.0
C59 C 0.64948 0.11687 0.50343 0.0
O60 O 0.6162 1.01694 0.5238 0.0
O61 O 0.64404 1.02959 0.50264 0.0
O62 O 0.58345 0.04473 0.48769 0.0
O63 O 0.62936 0.05903 0.4827 0.0
O64 O 0.56413 0.99903 0.50424 0.0
O65 O 0.5347 1.02173 0.50093 0.0
O66 O 0.55114 0.08205 0.48869 0.0
O67 O 0.55298 0.09309 0.51343 0.0
O68 O 0.6027 0.06853 0.52392 0.0
O69 O 0.55532 0.0467 0.52745 0.0
O70 O 0.62118 0.11255 0.50037 0.0
O71 O 0.65104 0.0923 0.50826 0.0
H72 H 0.61465 0.96324 0.53477 0.0
H73 H 0.58609 0.90763 0.52869 0.0
H74 H 0.58673 0.92861 0.47952 0.0
H75 H 0.61497 0.98406 0.48553 0.0
H76 H 0.58655 0.13138 0.47553 0.0
H77 H 0.61975 0.18787 0.47471 0.0
H78 H 0.57303 0.19615 0.51512 0.0
H79 H 0.53971 0.13977 0.51593 0.0
Tb80 Tb 0.5253 0.51121 0.83926 0.0
Tb81 Tb 0.59318 0.5512 0.83684 0.0
C82 C 0.47018 0.48886 0.8461 0.0
C83 C 0.45245 0.50466 0.84439 0.0
C84 C 0.46247 0.53356 0.85174 0.0
C85 C 0.4483 0.55076 0.84818 0.0
C86 C 0.42389 0.53926 0.8373 0.0
C87 C 0.41457 0.51081 0.82962 0.0
C88 C 0.4287 0.49363 0.83318 0.0
C89 C 0.54762 0.5198 0.81108 0.0
C90 C 0.55594 0.58815 0.83589 0.0
C91 C 0.64422 0.5774 0.82392 0.0
C92 C 0.66646 0.56675 0.82377 0.0
C93 C 0.66983 0.55372 0.8099 0.0
C94 C 0.6837 0.53558 0.81029 0.0
C95 C 0.69503 0.53099 0.82449 0.0
C96 C 0.69253 0.54481 0.83827 0.0
C97 C 0.67826 0.56253 0.83793 0.0
C98 C 0.57988 0.53978 0.8674 0.0
C99 C 0.56277 0.47494 0.83725 0.0
O100 O 0.49232 0.50023 0.85669 0.0
O101 O 0.47898 0.48318 0.83278 0.0
O102 O 0.55544 0.53988 0.8217 0.0
O103 O 0.52529 0.49329 0.81586 0.0
O104 O 0.53026 0.55977 0.83713 0.0
O105 O 0.58335 0.58996 0.83583 0.0
O106 O 0.61846 0.55819 0.81661 0.0
O107 O 0.63959 0.58686 0.83743 0.0
O108 O 0.56154 0.53012 0.85579 0.0
O109 O 0.60745 0.55602 0.8617 0.0
O110 O 0.5869 0.50288 0.83347 0.0
O111 O 0.53699 0.47357 0.84238 0.0
H112 H 0.48147 0.54314 0.86009 0.0
H113 H 0.45587 0.57264 0.85422 0.0
H114 H 0.39534 0.50097 0.82139 0.0
H115 H 0.42131 0.47186 0.82705 0.0
H116 H 0.66024 0.5562 0.79892 0.0
H117 H 0.68577 0.52528 0.79953 0.0
H118 H 0.70211 0.54243 0.84926 0.0
H119 H 0.67558 0.57192 0.84885 0.0
C120 C 0.5865 0.12048 0.2071 0.0
C121 C 0.60999 0.13926 0.21778 0.0
C122 C 0.6422 0.1684 0.19632 0.0
C123 C 0.63788 0.16314 0.21238 0.0
C124 C 0.61875 0.14992 0.18558 0.0
C125 C 0.59078 0.12566 0.191 0.0
U126 U 0.54461 0.07824 0.24219 0.0
O127 O 0.49544 0.05529 0.24844 0.0
O128 O 0.51935 1.02823 0.24746 0.0
C129 C 0.49277 1.02761 0.24703 0.0
C130 C 0.55827 0.09498 0.21314 0.0
C131 C 0.47339 1.00911 0.23401 0.0
C132 C 0.46762 1.00464 0.20573 0.0
C133 C 0.47968 1.02291 0.21907 0.0
C134 C 0.44171 0.95868 0.2222 0.0
C135 C 0.44921 0.97245 0.2073 0.0
C136 C 0.45395 0.97698 0.23556 0.0
C137 C 0.58165 0.10297 0.28125 0.0
C138 C 0.55498 0.06794 0.30272 0.0
C139 C 0.60223 0.11719 0.3075 0.0
C140 C 0.6043 0.12407 0.29158 0.0
C141 C 0.57757 0.08908 0.31317 0.0
C142 C 0.55695 0.07494 0.28685 0.0
C143 C 0.58367 0.1096 0.26458 0.0
O144 O 0.56225 0.07325 0.21969 0.0
O145 O 0.54231 0.10381 0.22172 0.0
O146 O 0.56309 0.11657 0.25927 0.0
O147 O 0.58607 0.08908 0.25592 0.0
H148 H 0.60672 0.13528 0.23027 0.0
H149 H 0.65591 0.17774 0.2207 0.0
H150 H 0.62219 0.15428 0.17312 0.0
H151 H 0.57268 0.11105 0.18274 0.0
H152 H 0.4734 1.01541 0.19427 0.0
H153 H 0.49514 0.04767 0.21766 0.0
H154 H 0.42695 0.93366 0.22343 0.0
H155 H 0.44943 0.96601 0.24695 0.0
H156 H 0.53567 0.04626 0.30686 0.0
H157 H 0.62007 0.13364 0.31538 0.0
H158 H 0.62353 0.14569 0.28733 0.0
H159 H 0.53926 0.05847 0.27891 0.0
C160 C 0.59739 0.6285 0.56536 0.0
C161 C 0.61653 0.66083 0.56622 0.0
C162 C 0.61195 0.66379 0.53805 0.0
C163 C 0.62373 0.67849 0.55258 0.0
C164 C 0.59477 0.63131 0.53711 0.0
C165 C 0.58746 0.61381 0.55068 0.0
U166 U 0.58945 0.55631 0.57542 0.0
O167 O 0.62017 0.564 0.55584 0.0
O168 O 0.56981 0.53413 0.55265 0.0
C169 C 0.59747 0.54392 0.54684 0.0
C170 C 0.59207 0.60897 0.57904 0.0
C171 C 0.60237 0.51964 0.54062 0.0
C172 C 0.59362 0.48219 0.52046 0.0
C173 C 0.59018 0.5066 0.52598 0.0
C174 C 0.62261 0.48494 0.54398 0.0
C175 C 0.60973 0.4711 0.52948 0.0
C176 C 0.61848 0.50867 0.54963 0.0
C177 C 0.58323 0.52542 0.61522 0.0
C178 C 0.58375 0.51081 0.6421 0.0
C179 C 0.587 0.56022 0.63604 0.0
C180 C 0.5852 0.55332 0.62016 0.0
C181 C 0.58679 0.53923 0.64715 0.0
C182 C 0.58209 0.504 0.62619 0.0
C183 C 0.58455 0.52011 0.59861 0.0
O184 O 0.56533 0.58259 0.57886 0.0
O185 O 0.61589 0.60556 0.5824 0.0
O186 O 0.61125 0.53982 0.59228 0.0
O187 O 0.56042 0.51626 0.59043 0.0
H188 H 0.62549 0.67233 0.57738 0.0
H189 H 0.63671 0.7037 0.5535 0.0
H190 H 0.58536 0.61967 0.52601 0.0
H191 H 0.57365 0.5887 0.54966 0.0
H192 H 0.58299 0.47155 0.50936 0.0
H193 H 0.57751 0.51483 0.51902 0.0
H194 H 0.63566 0.47732 0.55105 0.0
H195 H 0.6278 0.51833 0.56109 0.0
H196 H 0.5828 0.4939 0.65045 0.0
H197 H 0.58939 0.58228 0.6396 0.0
H198 H 0.58614 0.5701 0.6117 0.0
H199 H 0.58046 0.48236 0.62246 0.0
C200 C 0.99357 0.48802 0.87434 0.0
C201 C 0.9753 0.492 0.88535 0.0
C202 C 0.94587 0.49733 0.86438 0.0
C203 C 0.9517 0.49684 0.8804 0.0
C204 C 0.96351 0.49223 0.85333 0.0
C205 C 0.98755 0.48772 0.85834 0.0
U206 U 0.04075 0.49376 0.90868 0.0
O207 O 0.09056 0.52129 0.91344 0.0
O208 O 0.06677 0.46992 0.91412 0.0
C209 C 0.09314 0.49622 0.91254 0.0
C210 C 1.02067 0.48772 0.87996 0.0
C211 C 0.11151 0.49666 0.89932 0.0
C212 C 0.12675 0.51124 0.87236 0.0
C213 C 0.10873 0.50924 0.88501 0.0
C214 C 0.14882 0.48584 0.88776 0.0
C215 C 0.14746 0.50038 0.87389 0.0
C216 C 0.13074 0.48389 0.9005 0.0
C217 C 1.01902 0.50616 0.94822 0.0
C218 C 0.05142 0.50788 0.96992 0.0
C219 C 1.01389 0.52468 0.9735 0.0
C220 C 1.00484 0.51796 0.95784 0.0
C221 C 1.03709 0.51948 0.97965 0.0
C222 C 0.0426 0.5015 0.95424 0.0
C223 C 1.01075 0.50047 0.93167 0.0
O224 O 0.04143 0.51463 0.88599 0.0
O225 O 1.01462 0.46368 0.88885 0.0
O226 O 1.00464 0.47294 0.92651 0.0
O227 O 1.02931 0.52366 0.92256 0.0
H228 H 0.98015 0.4926 0.89778 0.0
H229 H 0.93869 0.50119 0.88911 0.0
H230 H 0.95896 0.49214 0.8409 0.0
H231 H 1.00179 0.48481 0.84981 0.0
H232 H 0.12602 0.52303 0.8618 0.0
H233 H 0.0936 0.5188 0.88378 0.0
H234 H 0.16525 0.47778 0.88902 0.0
H235 H 0.13252 0.47348 0.91132 0.0
H236 H 0.06957 0.50404 0.97441 0.0
H237 H 1.00244 0.53346 0.98087 0.0
H238 H 0.98693 0.52207 0.95324 0.0
H239 H 0.05422 0.49301 0.94679 0.0
C240 C 1.01022 0.48139 0.47011 0.0
C241 C 0.98238 0.47344 0.4619 0.0
C242 C 0.9513 0.42228 0.47595 0.0
C243 C 0.9539 0.4448 0.46471 0.0
C244 C 0.97931 0.43047 0.48409 0.0
C245 C 1.00764 0.45898 0.48129 0.0
U246 U 0.08781 0.56243 0.45361 0.0
O247 O 0.11135 0.60931 0.4654 0.0
O248 O 0.13546 0.58326 0.46421 0.0
C249 C 0.13696 0.60919 0.46897 0.0
C250 C 0.04109 0.51323 0.46866 0.0
C251 C 0.16861 0.64015 0.47054 0.0
C252 C 0.21525 0.67459 0.48696 0.0
C253 C 0.18636 0.64646 0.48452 0.0
C254 C 0.21034 0.69269 0.46167 0.0
C255 C 0.22821 0.69869 0.47566 0.0
C256 C 0.18145 0.66416 0.45913 0.0
C257 C 0.08435 0.5649 0.40507 0.0
C258 C 0.10267 0.592 0.3799 0.0
C259 C 0.06103 0.53856 0.38013 0.0
C260 C 0.06276 0.53831 0.39666 0.0
C261 C 0.08099 0.56541 0.37133 0.0
C262 C 0.10421 0.59176 0.39643 0.0
C263 C 0.08626 0.56483 0.42268 0.0
O264 O 0.06683 0.51453 0.4642 0.0
O265 O 0.0412 0.5391 0.46501 0.0
O266 O 0.07434 0.57743 0.43171 0.0
O267 O 0.0986 0.5506 0.43029 0.0
H268 H 0.98246 0.48952 0.45329 0.0
H269 H 0.93376 0.44031 0.45786 0.0
H270 H 0.97941 0.41508 0.49306 0.0
H271 H 1.02778 0.46381 0.48826 0.0
H272 H 0.22736 0.67768 0.49797 0.0
H273 H 0.17769 0.62937 0.49384 0.0
H274 H 0.21897 0.71001 0.45247 0.0
H275 H 0.16915 0.66098 0.44817 0.0
H276 H 0.11827 0.61337 0.37387 0.0
H277 H 0.04421 0.51736 0.37425 0.0
H278 H 0.04708 0.51722 0.40289 0.0
H279 H 0.1211 0.6127 0.4025 0.0
C280 C 0.56194 0.95313 0.80329 0.0
C281 C 0.57469 0.94147 0.79226 0.0
C282 C 0.56162 0.89374 0.8082 0.0
C283 C 0.57458 0.91266 0.79466 0.0
C284 C 0.54893 0.90565 0.81913 0.0
C285 C 0.54921 0.93433 0.81677 0.0
U286 U 0.56445 0.03393 0.78697 0.0
O287 O 0.53799 0.0551 0.7973 0.0
O288 O 0.58813 0.08066 0.79887 0.0
C289 C 0.56258 0.08079 0.80227 0.0
C290 C 0.56265 0.98484 0.80199 0.0
C291 C 0.56235 0.11196 0.80403 0.0
C292 C 0.5553 0.14854 0.82132 0.0
C293 C 0.55502 0.11994 0.81865 0.0
C294 C 0.57006 0.16328 0.79474 0.0
C295 C 0.56281 0.17151 0.80951 0.0
C296 C 0.56996 0.13454 0.79211 0.0
C297 C 0.56982 0.03689 0.73856 0.0
C298 C 0.585 0.06648 0.714 0.0
C299 C 0.56162 1.01049 0.71322 0.0
C300 C 0.55912 1.00944 0.72969 0.0
C301 C 0.57461 0.03905 0.70499 0.0
C302 C 0.58282 0.06541 0.73048 0.0
C303 C 0.56788 0.03584 0.75611 0.0
O304 O 0.58822 1.01076 0.79842 0.0
O305 O 0.53804 0.98601 0.79746 0.0
O306 O 0.54142 1.02158 0.76356 0.0
O307 O 0.59249 0.04917 0.76525 0.0
H308 H 0.5849 0.95466 0.7817 0.0
H309 H 0.58448 0.90504 0.7857 0.0
H310 H 0.53912 0.89302 0.82987 0.0
H311 H 0.53955 0.94209 0.8258 0.0
H312 H 0.54986 0.15246 0.83299 0.0
H313 H 0.5492 0.10385 0.82833 0.0
H314 H 0.57579 0.17894 0.78492 0.0
H315 H 0.57589 0.13007 0.78063 0.0
H316 H 0.59456 0.08895 0.70832 0.0
H317 H 0.55377 0.98879 0.70698 0.0
H318 H 0.54922 0.98709 0.73554 0.0
H319 H 0.59108 0.08699 0.73692 0.0
C320 C 0.63827 0.55359 0.13753 0.0
C321 C 0.65401 0.54786 0.12539 0.0
C322 C 0.69774 0.55387 0.14304 0.0
C323 C 0.68269 0.54803 0.12805 0.0
C324 C 0.68155 0.55952 0.15507 0.0
C325 C 0.65308 0.55935 0.1524 0.0
U326 U 0.55778 0.55188 0.12075 0.0
O327 O 0.51155 0.52853 0.13272 0.0
O328 O 0.53699 0.5789 0.13095 0.0
C329 C 0.51144 0.55443 0.13591 0.0
C330 C 0.6069 0.55344 0.13567 0.0
C331 C 0.48045 0.555 0.13745 0.0
C332 C 0.44064 0.55565 0.1549 0.0
C333 C 0.46851 0.5547 0.15249 0.0
C334 C 0.4343 0.55724 0.12724 0.0
C335 C 0.42226 0.55708 0.14243 0.0
C336 C 0.46239 0.55627 0.12484 0.0
C337 C 0.55447 0.54583 0.07225 0.0
C338 C 0.52962 0.54187 0.04673 0.0
C339 C 0.57909 0.54453 0.04773 0.0
C340 C 0.57918 0.54631 0.06426 0.0
C341 C 0.55432 0.54236 0.03854 0.0
C342 C 0.52969 0.54349 0.06323 0.0
C343 C 0.55419 0.54796 0.08982 0.0
O344 O 0.60599 0.57825 0.13095 0.0
O345 O 0.58077 0.52779 0.13225 0.0
O346 O 0.54235 0.52327 0.09892 0.0
O347 O 0.56866 0.57469 0.09736 0.0
H348 H 0.64413 0.54314 0.1137 0.0
H349 H 0.69283 0.54321 0.11811 0.0
H350 H 0.69081 0.56449 0.16684 0.0
H351 H 0.64243 0.56383 0.16227 0.0
H352 H 0.43361 0.55496 0.16687 0.0
H353 H 0.48099 0.55373 0.1627 0.0
H354 H 0.42225 0.55847 0.11695 0.0
H355 H 0.46998 0.55663 0.11298 0.0
H356 H 0.51024 0.54078 0.04041 0.0
H357 H 0.59843 0.54445 0.04221 0.0
H358 H 0.59861 0.54798 0.07081 0.0
H359 H 0.51031 0.54316 0.06898 0.0
H360 H 0.14367 0.54749 0.1429 0.0
H361 H 0.19156 0.54715 0.13816 0.0
H362 H 0.22402 0.58415 0.18444 0.0
H363 H 0.1771 0.58743 0.18838 0.0
H364 H 0.27216 0.60192 0.17326 0.0
H365 H 0.19386 0.49608 0.16368 0.0
H366 H 0.14819 0.45092 0.15177 0.0
H367 H 0.18953 0.47779 0.1064 0.0
H368 H 0.23526 0.5233 0.118 0.0
H369 H 0.39776 0.56787 0.17037 0.0
H370 H 0.35035 0.56864 0.17496 0.0
H371 H 0.32676 0.55151 0.12611 0.0
H372 H 0.37363 0.54904 0.12147 0.0
H373 H 0.27471 0.52306 0.13902 0.0
H374 H 0.35595 0.62901 0.15207 0.0
H375 H 0.40093 0.66925 0.16691 0.0
H376 H 0.35143 0.6346 0.20991 0.0
H377 H 0.30638 0.59393 0.19535 0.0
C378 C 0.16104 0.55589 0.15211 0.0
C379 C 0.15551 0.56775 0.16606 0.0
C380 C 0.18894 0.55503 0.1495 0.0
C381 C 0.21292 0.56441 0.16099 0.0
C382 C 0.20726 0.57646 0.17498 0.0
C383 C 0.17974 0.57838 0.17735 0.0
C384 C 0.24348 0.56252 0.15845 0.0
C385 C 0.27191 0.58406 0.16589 0.0
C386 C 0.24567 0.53998 0.14876 0.0
C387 C 0.21777 0.51333 0.14169 0.0
C388 C 0.19306 0.49252 0.15114 0.0
C389 C 0.16719 0.46683 0.14445 0.0
C390 C 0.16591 0.46156 0.12833 0.0
C391 C 0.19049 0.48196 0.11887 0.0
C392 C 0.21638 0.50771 0.12549 0.0
C393 C 0.38291 0.56399 0.16035 0.0
C394 C 0.3915 0.55837 0.14533 0.0
C395 C 0.35509 0.56501 0.16307 0.0
C396 C 0.33364 0.56104 0.15097 0.0
C397 C 0.34186 0.55505 0.136 0.0
C398 C 0.36965 0.55386 0.13327 0.0
C399 C 0.303 0.56241 0.15379 0.0
C400 C 0.27466 0.54081 0.14637 0.0
C401 C 0.30063 0.58416 0.16393 0.0
C402 C 0.32795 0.60826 0.17263 0.0
C403 C 0.35478 0.62984 0.1647 0.0
C404 C 0.38027 0.65274 0.17306 0.0
C405 C 0.37907 0.65443 0.18934 0.0
C406 C 0.35238 0.63323 0.1973 0.0
C407 C 0.32688 0.61026 0.18901 0.0
H408 H 0.3988 0.67221 0.19578 0.0
H409 H 0.14591 0.44161 0.12318 0.0
H410 H 0.71111 0.13127 0.50623 0.0
H411 H 0.75957 0.17998 0.50196 0.0
H412 H 0.70846 0.22615 0.49083 0.0
H413 H 0.65957 0.17669 0.4946 0.0
H414 H 0.7548 0.25361 0.47341 0.0
H415 H 0.75823 0.23358 0.52829 0.0
H416 H 0.75796 0.2044 0.55177 0.0
H417 H 0.83671 0.20101 0.5347 0.0
H418 H 0.83716 0.22975 0.511 0.0
H419 H 0.88914 0.40825 0.47328 0.0
H420 H 0.84085 0.3603 0.47878 0.0
H421 H 0.89187 0.31486 0.49161 0.0
H422 H 0.94045 0.36348 0.48684 0.0
H423 H 0.8457 0.28705 0.50836 0.0
H424 H 0.84104 0.30326 0.45325 0.0
H425 H 0.84481 0.3352 0.43028 0.0
H426 H 0.77064 0.34602 0.44775 0.0
H427 H 0.7666 0.31447 0.471 0.0
C428 C 0.70976 0.15166 0.50297 0.0
C429 C 0.68016 0.14885 0.50101 0.0
C430 C 0.73822 0.18033 0.50061 0.0
C431 C 0.73938 0.20865 0.49636 0.0
C432 C 0.70972 0.20576 0.49417 0.0
C433 C 0.68112 0.1769 0.49643 0.0
C434 C 0.77076 0.24041 0.49393 0.0
C435 C 0.77426 0.26068 0.48134 0.0
C436 C 0.79793 0.25108 0.50362 0.0
C437 C 0.79748 0.23351 0.51778 0.0
C438 C 0.77533 0.22639 0.52948 0.0
C439 C 0.77516 0.20995 0.54284 0.0
C440 C 0.79724 0.20078 0.5447 0.0
C441 C 0.81957 0.20806 0.53322 0.0
C442 C 0.81978 0.22441 0.51982 0.0
C443 C 0.89055 0.38819 0.47711 0.0
C444 C 0.9201 0.39107 0.47926 0.0
C445 C 0.86213 0.35987 0.48021 0.0
C446 C 0.86095 0.33186 0.48522 0.0
C447 C 0.89055 0.33492 0.48768 0.0
C448 C 0.91903 0.36345 0.48486 0.0
C449 C 0.82963 0.30012 0.48787 0.0
C450 C 0.8262 0.27988 0.50046 0.0
C451 C 0.80261 0.28928 0.47814 0.0
C452 C 0.80364 0.30666 0.46386 0.0
C453 C 0.82547 0.31239 0.45216 0.0
C454 C 0.8277 0.3305 0.43915 0.0
C455 C 0.808 0.3427 0.43762 0.0
C456 C 0.78585 0.33658 0.44903 0.0
C457 C 0.78353 0.31854 0.4621 0.0
H458 H 0.80985 0.35686 0.42757 0.0
H459 H 0.7971 0.1881 0.55506 0.0
H460 H 0.60464 0.64783 0.82969 0.0
H461 H 0.60559 0.69668 0.82504 0.0
H462 H 0.50712 0.6504 0.83187 0.0
H463 H 0.50602 0.60056 0.83572 0.0
H464 H 0.51476 0.69126 0.81301 0.0
H465 H 0.57461 0.71001 0.85925 0.0
H466 H 0.61541 0.71327 0.87692 0.0
H467 H 0.68524 0.77923 0.84617 0.0
H468 H 0.64484 0.77601 0.82818 0.0
H469 H 0.51712 0.83857 0.82298 0.0
H470 H 0.51625 0.78933 0.82769 0.0
H471 H 0.60435 0.82615 0.80525 0.0
H472 H 0.60512 0.87549 0.80024 0.0
H473 H 0.60185 0.79117 0.83266 0.0
H474 H 0.53707 0.77099 0.787 0.0
H475 H 0.49364 0.76981 0.77247 0.0
H476 H 0.42981 0.70741 0.80656 0.0
H477 H 0.47296 0.70858 0.82141 0.0
C478 C 0.58292 0.64761 0.83034 0.0
C479 C 0.55525 0.61907 0.83343 0.0
C480 C 0.58356 0.67641 0.82779 0.0
C481 C 0.55665 0.67914 0.82849 0.0
C482 C 0.52876 0.65045 0.8313 0.0
C483 C 0.52806 0.62135 0.83366 0.0
C484 C 0.55768 0.71117 0.82602 0.0
C485 C 0.53384 0.71276 0.81761 0.0
C486 C 0.58224 0.74072 0.83161 0.0
C487 C 0.60666 0.74246 0.84226 0.0
C488 C 0.59866 0.725 0.85618 0.0
C489 C 0.62172 0.72687 0.86626 0.0
C490 C 0.65289 0.74636 0.86264 0.0
C491 C 0.66107 0.76407 0.84894 0.0
C492 C 0.6381 0.76223 0.83879 0.0
C493 C 0.53655 0.83663 0.81898 0.0
C494 C 0.56118 0.86222 0.81106 0.0
C495 C 0.53594 0.8078 0.82168 0.0
C496 C 0.56015 0.8027 0.8169 0.0
C497 C 0.58505 0.82837 0.80923 0.0
C498 C 0.58537 0.85704 0.80622 0.0
C499 C 0.55915 0.77092 0.81966 0.0
C500 C 0.58294 0.7695 0.82809 0.0
C501 C 0.53422 0.74149 0.81449 0.0
C502 C 0.50823 0.74005 0.80537 0.0
C503 C 0.51378 0.75712 0.79143 0.0
C504 C 0.48922 0.75646 0.78314 0.0
C505 C 0.45899 0.7386 0.78861 0.0
C506 C 0.45324 0.72125 0.80234 0.0
C507 C 0.47773 0.72188 0.81069 0.0
H508 H 0.44001 0.73816 0.78219 0.0
H509 H 0.67071 0.74781 0.87048 0.0
H510 H 0.96808 0.54866 0.14281 0.0
H511 H 0.91917 0.54857 0.13868 0.0
H512 H 0.91915 0.57097 0.18723 0.0
H513 H 0.9689 0.57254 0.19116 0.0
H514 H 0.85957 0.52932 0.17944 0.0
H515 H 0.93222 0.62476 0.15666 0.0
H516 H 0.97353 0.66301 0.13967 0.0
H517 H 0.91948 0.6156 0.09892 0.0
H518 H 0.87795 0.57681 0.11568 0.0
H519 H 0.72909 0.55556 0.17165 0.0
H520 H 0.77796 0.55756 0.17641 0.0
H521 H 0.78997 0.55353 0.12691 0.0
H522 H 0.74168 0.55321 0.12194 0.0
H523 H 0.84416 0.58633 0.13594 0.0
H524 H 0.77013 0.48977 0.16074 0.0
H525 H 0.72945 0.45577 0.17929 0.0
H526 H 0.78733 0.50917 0.2179 0.0
H527 H 0.82816 0.54375 0.19959 0.0
C528 C 0.95793 0.55367 0.15272 0.0
C529 C 0.97363 0.56061 0.16743 0.0
C530 C 0.92942 0.55377 0.15029 0.0
C531 C 0.91397 0.55986 0.16251 0.0
C532 C 0.92939 0.56615 0.1773 0.0
C533 C 0.95846 0.56711 0.1796 0.0
C534 C 0.8823 0.55939 0.15994 0.0
C535 C 0.85665 0.54216 0.16994 0.0
C536 C 0.87661 0.57552 0.14758 0.0
C537 C 0.9022 0.59756 0.13743 0.0
C538 C 0.92936 0.62216 0.14407 0.0
C539 C 0.95275 0.64404 0.13449 0.0
C540 C 0.94919 0.64166 0.11822 0.0
C541 C 0.92225 0.61735 0.11152 0.0
C542 C 0.89878 0.5954 0.12105 0.0
C543 C 0.74163 0.55524 0.1615 0.0
C544 C 0.72938 0.55417 0.14618 0.0
C545 C 0.77035 0.55587 0.16438 0.0
C546 C 0.78916 0.55496 0.15222 0.0
C547 C 0.77717 0.55413 0.13692 0.0
C548 C 0.74851 0.55369 0.13401 0.0
C549 C 0.82092 0.55562 0.1552 0.0
C550 C 0.84677 0.57308 0.14533 0.0
C551 C 0.82685 0.53993 0.1678 0.0
C552 C 0.80205 0.51957 0.17877 0.0
C553 C 0.77406 0.49443 0.17318 0.0
C554 C 0.75099 0.47503 0.18366 0.0
C555 C 0.75577 0.48037 0.19976 0.0
C556 C 0.78362 0.50511 0.20543 0.0
C557 C 0.80672 0.52462 0.195 0.0
H558 H 0.73791 0.46528 0.20785 0.0
H559 H 0.96726 0.65872 0.11082 0.0
H560 H 0.52449 0.93335 0.50015 0.0
H561 H 0.47497 0.88432 0.49642 0.0
H562 H 0.42706 0.93603 0.49419 0.0
H563 H 0.47598 0.98448 0.4982 0.0
H564 H 0.38908 0.88726 0.50795 0.0
H565 H 0.44255 0.8933 0.45998 0.0
H566 H 0.48486 0.89666 0.44389 0.0
H567 H 0.47476 0.81403 0.46576 0.0
H568 H 0.43247 0.81027 0.48201 0.0
H569 H 0.24357 0.76177 0.47513 0.0
H570 H 0.2935 0.80955 0.48042 0.0
H571 H 0.33638 0.75402 0.48787 0.0
H572 H 0.28628 0.70631 0.48316 0.0
H573 H 0.37685 0.80364 0.47201 0.0
H574 H 0.3234 0.79512 0.51885 0.0
H575 H 0.2833 0.79122 0.5368 0.0
H576 H 0.29449 0.87728 0.51897 0.0
H577 H 0.33452 0.88157 0.5008 0.0
C578 C 0.50352 0.9345 0.49887 0.0
C579 C 0.5054 0.96402 0.49955 0.0
C580 C 0.4746 0.90593 0.49653 0.0
C581 C 0.44576 0.90506 0.49464 0.0
C582 C 0.44787 0.9346 0.49551 0.0
C583 C 0.47657 0.96297 0.49781 0.0
C584 C 0.41374 0.87425 0.492 0.0
C585 C 0.38672 0.86946 0.49981 0.0
C586 C 0.40906 0.84925 0.48188 0.0
C587 C 0.43462 0.85169 0.47229 0.0
C588 C 0.44952 0.87598 0.46141 0.0
C589 C 0.47344 0.87792 0.45225 0.0
C590 C 0.48255 0.85562 0.45383 0.0
C591 C 0.46771 0.8313 0.46456 0.0
C592 C 0.44374 0.82922 0.47373 0.0
C593 C 0.26353 0.7595 0.47789 0.0
C594 C 0.25993 0.72923 0.47855 0.0
C595 C 0.29256 0.7873 0.48107 0.0
C596 C 0.32007 0.78667 0.48474 0.0
C597 C 0.31647 0.75638 0.48516 0.0
C598 C 0.28729 0.72859 0.48243 0.0
C599 C 0.3522 0.81694 0.48776 0.0
C600 C 0.37919 0.82159 0.48005 0.0
C601 C 0.35686 0.84169 0.49806 0.0
C602 C 0.33161 0.83839 0.50828 0.0
C603 C 0.31697 0.81296 0.51857 0.0
C604 C 0.29436 0.81076 0.52885 0.0
C605 C 0.28625 0.83391 0.52898 0.0
C606 C 0.30072 0.85931 0.51882 0.0
C607 C 0.32338 0.86164 0.50853 0.0
H608 H 0.26884 0.83224 0.53699 0.0
H609 H 0.50106 0.85715 0.44672 0.0
H610 H 0.53082 0.4174 0.85294 0.0
H611 H 0.53144 0.36855 0.84892 0.0
H612 H 0.59613 0.41129 0.81145 0.0
H613 H 0.59657 0.46064 0.81591 0.0
H614 H 0.54962 0.34871 0.80296 0.0
H615 H 0.61908 0.39614 0.84641 0.0
H616 H 0.63529 0.41959 0.87267 0.0
H617 H 0.56348 0.33552 0.89339 0.0
H618 H 0.5465 0.31171 0.86721 0.0
H619 H 0.58628 0.22704 0.79126 0.0
H620 H 0.58673 0.27555 0.79615 0.0
H621 H 0.54109 0.23982 0.84001 0.0
H622 H 0.54038 0.19107 0.83529 0.0
H623 H 0.5769 0.29856 0.84553 0.0
H624 H 0.50432 0.25168 0.80405 0.0
H625 H 0.4859 0.22487 0.77863 0.0
H626 H 0.55879 0.30428 0.75526 0.0
H627 H 0.5778 0.33148 0.7806 0.0
C628 C 0.54551 0.4168 0.84389 0.0
C629 C 0.56388 0.44417 0.83496 0.0
C630 C 0.54585 0.38831 0.84154 0.0
C631 C 0.56386 0.38491 0.82977 0.0
C632 C 0.58182 0.4121 0.82065 0.0
C633 C 0.58221 0.4409 0.82332 0.0
C634 C 0.56406 0.35363 0.82709 0.0
C635 C 0.55608 0.33829 0.81234 0.0
C636 C 0.5713 0.33803 0.83909 0.0
C637 C 0.58128 0.35228 0.85483 0.0
C638 C 0.60653 0.38276 0.85655 0.0
C639 C 0.6159 0.3961 0.87142 0.0
C640 C 0.60036 0.3791 0.88469 0.0
C641 C 0.57545 0.34869 0.8831 0.0
C642 C 0.56594 0.33526 0.86825 0.0
C643 C 0.57587 0.22867 0.80197 0.0
C644 C 0.56312 0.20316 0.81263 0.0
C645 C 0.57609 0.25728 0.80481 0.0
C646 C 0.56341 0.26268 0.81848 0.0
C647 C 0.55117 0.2376 0.82929 0.0
C648 C 0.55086 0.20891 0.82645 0.0
C649 C 0.56276 0.29376 0.82135 0.0
C650 C 0.57049 0.30899 0.83614 0.0
C651 C 0.55469 0.30897 0.8095 0.0
C652 C 0.54257 0.29352 0.79419 0.0
C653 C 0.51639 0.26343 0.79347 0.0
C654 C 0.50587 0.24815 0.7791 0.0
C655 C 0.5212 0.26285 0.76534 0.0
C656 C 0.54694 0.29295 0.76593 0.0
C657 C 0.55755 0.30835 0.78029 0.0
H658 H 0.51312 0.25092 0.75422 0.0
H659 H 0.60768 0.38945 0.89619 0.0
H660 H 0.5376 0.85954 0.51514 0.0
H661 H 0.53952 0.81108 0.5164 0.0
H662 H 0.61991 0.8524 0.48669 0.0
H663 H 0.61737 0.89971 0.48496 0.0
H664 H 0.58573 0.79456 0.48001 0.0
H665 H 0.6269 0.8567 0.52669 0.0
H666 H 0.62722 0.8846 0.55061 0.0
H667 H 0.55433 0.79932 0.56977 0.0
H668 H 0.55331 0.77095 0.54589 0.0
H669 H 0.65902 0.71511 0.52402 0.0
H670 H 0.65216 0.75583 0.51138 0.0
H671 H 0.55312 0.69524 0.51251 0.0
H672 H 0.55965 0.65455 0.52454 0.0
H673 H 0.59792 0.76253 0.53344 0.0
H674 H 0.55611 0.70425 0.48308 0.0
H675 H 0.56296 0.67931 0.45973 0.0
H676 H 0.64687 0.76407 0.44883 0.0
H677 H 0.64069 0.78926 0.47232 0.0
C678 C 0.55462 0.85742 0.50832 0.0
C679 C 0.57723 0.88289 0.49993 0.0
C680 C 0.55604 0.8302 0.50925 0.0
C681 C 0.5803 0.82882 0.50193 0.0
C682 C 0.60104 0.85321 0.49238 0.0
C683 C 0.59931 0.88004 0.49124 0.0
C684 C 0.58562 0.80295 0.5048 0.0
C685 C 0.58842 0.78763 0.49172 0.0
C686 C 0.58963 0.7945 0.52011 0.0
C687 C 0.58972 0.81175 0.53436 0.0
C688 C 0.61068 0.84394 0.53591 0.0
C689 C 0.61106 0.85984 0.54949 0.0
C690 C 0.59073 0.84377 0.56167 0.0
C691 C 0.57001 0.81176 0.56031 0.0
C692 C 0.56953 0.79576 0.54675 0.0
C693 C 0.63598 0.71008 0.52073 0.0
C694 C 0.60985 0.68211 0.52526 0.0
C695 C 0.6321 0.7332 0.51365 0.0
C696 C 0.60219 0.72811 0.51125 0.0
C697 C 0.57629 0.69904 0.51418 0.0
C698 C 0.58012 0.67585 0.52093 0.0
C699 C 0.5975 0.75432 0.50866 0.0
C700 C 0.59503 0.76966 0.52182 0.0
C701 C 0.59453 0.76343 0.49352 0.0
C702 C 0.59817 0.74839 0.47949 0.0
C703 C 0.57619 0.71738 0.4758 0.0
C704 C 0.5799 0.70325 0.46253 0.0
C705 C 0.6054 0.72006 0.45283 0.0
C706 C 0.62719 0.75106 0.45637 0.0
C707 C 0.6236 0.76525 0.46966 0.0
H708 H 0.60821 0.70909 0.44254 0.0
H709 H 0.59111 0.85609 0.57218 0.0
H710 H 0.74074 0.54302 0.8045 0.0
H711 H 0.78392 0.53525 0.80995 0.0
H712 H 0.73736 0.48068 0.85075 0.0
H713 H 0.69357 0.48858 0.84534 0.0
H714 H 0.79351 0.5329 0.8573 0.0
H715 H 0.75261 0.44705 0.82127 0.0
H716 H 0.72888 0.42148 0.79615 0.0
H717 H 0.80914 0.49002 0.77166 0.0
H718 H 0.83318 0.51628 0.79663 0.0
H719 H 0.88865 0.47309 0.87656 0.0
H720 H 0.84858 0.4846 0.86874 0.0
H721 H 0.90822 0.54716 0.83304 0.0
H722 H 0.9492 0.53656 0.84119 0.0
H723 H 0.8495 0.49748 0.82302 0.0
H724 H 0.89251 0.57981 0.86033 0.0
H725 H 0.91511 0.60438 0.88578 0.0
H726 H 0.83019 0.54095 0.90863 0.0
H727 H 0.80718 0.51564 0.88336 0.0
C728 C 0.73893 0.52803 0.81417 0.0
C729 C 0.71426 0.51667 0.82465 0.0
C730 C 0.7637 0.5238 0.81732 0.0
C731 C 0.76362 0.5077 0.83079 0.0
C732 C 0.73755 0.49337 0.84036 0.0
C733 C 0.7127 0.49771 0.83723 0.0
C734 C 0.79237 0.50958 0.83579 0.0
C735 C 0.80561 0.52468 0.85001 0.0
C736 C 0.80838 0.50021 0.82576 0.0
C737 C 0.79465 0.48367 0.8108 0.0
C738 C 0.76519 0.45669 0.81052 0.0
C739 C 0.75166 0.44209 0.79631 0.0
C740 C 0.76749 0.45413 0.78232 0.0
C741 C 0.79694 0.4807 0.78251 0.0
C742 C 0.81055 0.49542 0.79669 0.0
C743 C 0.89344 0.48974 0.86724 0.0
C744 C 0.92177 0.5039 0.85939 0.0
C745 C 0.87072 0.49639 0.86288 0.0
C746 C 0.87603 0.51703 0.85056 0.0
C747 C 0.90426 0.53143 0.84271 0.0
C748 C 0.92725 0.52503 0.84719 0.0
C749 C 0.85023 0.51985 0.84476 0.0
C750 C 0.83753 0.50589 0.8303 0.0
C751 C 0.83465 0.53002 0.85466 0.0
C752 C 0.84814 0.54568 0.8699 0.0
C753 C 0.87867 0.57095 0.87078 0.0
C754 C 0.89156 0.58505 0.88518 0.0
C755 C 0.87411 0.5742 0.89881 0.0
C756 C 0.84368 0.54933 0.89806 0.0
C757 C 0.83067 0.53514 0.88368 0.0
H758 H 0.88416 0.58509 0.90996 0.0
H759 H 0.75693 0.44285 0.77132 0.0
H760 H 0.26382 0.70202 0.17787 0.0
H761 H 0.31316 0.75171 0.17829 0.0
H762 H 0.26722 0.79791 0.1581 0.0
H763 H 0.21914 0.74873 0.15686 0.0
H764 H 0.31988 0.8215 0.14662 0.0
H765 H 0.27748 0.79625 0.19735 0.0
H766 H 0.2564 0.7664 0.22167 0.0
H767 H 0.34306 0.77106 0.23123 0.0
H768 H 0.36456 0.80053 0.20682 0.0
H769 H 0.40467 0.96795 0.18771 0.0
H770 H 0.3702 0.92089 0.17279 0.0
H771 H 0.4315 0.88487 0.18184 0.0
H772 H 0.46564 0.93169 0.197 0.0
H773 H 0.37363 0.85587 0.19793 0.0
H774 H 0.41214 0.88912 0.14408 0.0
H775 H 0.42556 0.9255 0.12187 0.0
H776 H 0.33433 0.9136 0.12236 0.0
H777 H 0.32047 0.87724 0.14458 0.0
C778 C 0.26496 0.72269 0.1729 0.0
C779 C 0.23831 0.72189 0.16708 0.0
C780 C 0.29273 0.75092 0.17337 0.0
C781 C 0.29344 0.77827 0.16841 0.0
C782 C 0.26711 0.77694 0.1618 0.0
C783 C 0.23979 0.74883 0.16097 0.0
C784 C 0.32104 0.80874 0.17069 0.0
C785 C 0.33172 0.82897 0.15784 0.0
C786 C 0.33565 0.81856 0.18548 0.0
C787 C 0.32251 0.80017 0.20006 0.0
C788 C 0.29194 0.79056 0.2045 0.0
C789 C 0.27993 0.77379 0.21835 0.0
C790 C 0.29833 0.76671 0.22795 0.0
C791 C 0.32879 0.77646 0.22375 0.0
C792 C 0.3409 0.79318 0.2099 0.0
C793 C 0.4115 0.9507 0.18571 0.0
C794 C 0.43706 0.95259 0.19357 0.0
C795 C 0.39196 0.92398 0.1772 0.0
C796 C 0.3984 0.89958 0.17649 0.0
C797 C 0.42642 0.90368 0.18237 0.0
C798 C 0.44578 0.93023 0.19098 0.0
C799 C 0.37301 0.86795 0.17369 0.0
C800 C 0.36228 0.84782 0.18662 0.0
C801 C 0.35702 0.85893 0.15932 0.0
C802 C 0.36536 0.88059 0.14595 0.0
C803 C 0.39504 0.89439 0.13946 0.0
C804 C 0.40268 0.91494 0.12687 0.0
C805 C 0.38082 0.92186 0.12071 0.0
C806 C 0.35123 0.90818 0.12711 0.0
C807 C 0.34344 0.88754 0.13966 0.0
H808 H 0.38681 0.93782 0.11098 0.0
H809 H 0.28902 0.75378 0.23867 0.0
H810 H 0.60368 0.232 0.47103 0.0
H811 H 0.61213 0.28462 0.47435 0.0
H812 H 0.64231 0.28623 0.52201 0.0
H813 H 0.63448 0.23381 0.51864 0.0
H814 H 0.58141 0.28619 0.5147 0.0
H815 H 0.69215 0.33593 0.50381 0.0
H816 H 0.73368 0.34097 0.48654 0.0
H817 H 0.69617 0.36909 0.44863 0.0
H818 H 0.6541 0.36368 0.46564 0.0
H819 H 0.60647 0.42405 0.54739 0.0
H820 H 0.61056 0.37989 0.53868 0.0
H821 H 0.61834 0.41107 0.4908 0.0
H822 H 0.61818 0.45762 0.49965 0.0
H823 H 0.65599 0.39222 0.49537 0.0
H824 H 0.54915 0.35048 0.50711 0.0
H825 H 0.50477 0.34176 0.52315 0.0
H826 H 0.52867 0.2941 0.55761 0.0
H827 H 0.57356 0.30305 0.54196 0.0
C828 C 0.61396 0.24443 0.48185 0.0
C829 C 0.61801 0.22927 0.49471 0.0
C830 C 0.61831 0.27408 0.48379 0.0
C831 C 0.62697 0.28827 0.49851 0.0
C832 C 0.63522 0.27494 0.51067 0.0
C833 C 0.63115 0.24544 0.50869 0.0
C834 C 0.62324 0.31474 0.50185 0.0
C835 C 0.59769 0.30957 0.51069 0.0
C836 C 0.64383 0.34428 0.49583 0.0
C837 C 0.67013 0.34951 0.48596 0.0
C838 C 0.69284 0.34325 0.49179 0.0
C839 C 0.71639 0.34608 0.48206 0.0
C840 C 0.71757 0.35543 0.46652 0.0
C841 C 0.69524 0.36197 0.46069 0.0
C842 C 0.67159 0.35908 0.47037 0.0
C843 C 0.6098 0.42199 0.53504 0.0
C844 C 0.61196 0.44427 0.52416 0.0
C845 C 0.61143 0.39637 0.53006 0.0
C846 C 0.61368 0.39186 0.51407 0.0
C847 C 0.61615 0.41411 0.50318 0.0
C848 C 0.61568 0.4404 0.50822 0.0
C849 C 0.61454 0.36435 0.50884 0.0
C850 C 0.63932 0.36901 0.4994 0.0
C851 C 0.59273 0.33412 0.51417 0.0
C852 C 0.56493 0.32763 0.52336 0.0
C853 C 0.54504 0.33823 0.51813 0.0
C854 C 0.51979 0.33327 0.52717 0.0
C855 C 0.51394 0.31744 0.5414 0.0
C856 C 0.53323 0.30638 0.54658 0.0
C857 C 0.55858 0.31136 0.53762 0.0
H858 H 0.49443 0.3137 0.54839 0.0
H859 H 0.7358 0.35771 0.459 0.0
H860 H 0.40476 0.56041 0.86145 0.0
H861 H 0.35613 0.56001 0.86173 0.0
H862 H 0.34654 0.54447 0.81179 0.0
H863 H 0.39668 0.54735 0.81121 0.0
H864 H 0.31916 0.57439 0.82037 0.0
H865 H 0.31838 0.48101 0.83905 0.0
H866 H 0.33339 0.45016 0.85589 0.0
H867 H 0.3066 0.48083 0.89668 0.0
H868 H 0.29162 0.51198 0.88013 0.0
H869 H 0.14843 0.47426 0.84596 0.0
H870 H 0.19565 0.4877 0.8311 0.0
H871 H 0.2494 0.56325 0.86331 0.0
H872 H 0.20282 0.55025 0.87785 0.0
H873 H 0.24876 0.49439 0.85811 0.0
H874 H 0.26544 0.59835 0.84047 0.0
H875 H 0.25006 0.6301 0.8247 0.0
H876 H 0.24709 0.57958 0.78336 0.0
H877 H 0.26181 0.54705 0.79903 0.0
C878 C 0.3933 0.55876 0.85038 0.0
C879 C 0.40376 0.55273 0.83635 0.0
C880 C 0.36516 0.55782 0.85062 0.0
C881 C 0.34722 0.55029 0.83693 0.0
C882 C 0.35985 0.54931 0.82254 0.0
C883 C 0.38842 0.55104 0.82222 0.0
C884 C 0.31451 0.54083 0.83784 0.0
C885 C 0.30365 0.55653 0.82844 0.0
C886 C 0.29435 0.5173 0.84833 0.0
C887 C 0.30404 0.499 0.85832 0.0
C888 C 0.3159 0.48136 0.85161 0.0
C889 C 0.32434 0.46376 0.86111 0.0
C890 C 0.32098 0.46357 0.87734 0.0
C891 C 0.30918 0.48098 0.88411 0.0
C892 C 0.30067 0.49856 0.87467 0.0
C893 C 0.1703 0.49436 0.84937 0.0
C894 C 0.17274 0.51117 0.86296 0.0
C895 C 0.19692 0.50213 0.84089 0.0
C896 C 0.2255 0.52672 0.84607 0.0
C897 C 0.22725 0.54484 0.85896 0.0
C898 C 0.20089 0.5372 0.86732 0.0
C899 C 0.25414 0.5288 0.84108 0.0
C900 C 0.26419 0.51151 0.84971 0.0
C901 C 0.27367 0.55108 0.83017 0.0
C902 C 0.2639 0.56984 0.82094 0.0
C903 C 0.26086 0.5936 0.82808 0.0
C904 C 0.25243 0.61184 0.81915 0.0
C905 C 0.24738 0.60672 0.80305 0.0
C906 C 0.2508 0.58338 0.79584 0.0
C907 C 0.25909 0.56499 0.80474 0.0
H908 H 0.241 0.62097 0.79614 0.0
H909 H 0.32748 0.4499 0.88466 0.0
H910 H 0.90958 0.36689 0.16285 0.0
H911 H 0.85746 0.32415 0.16725 0.0
H912 H 0.82161 0.38668 0.16071 0.0
H913 H 0.87488 0.43038 0.15674 0.0
H914 H 0.80268 0.35005 0.18789 0.0
H915 H 0.80749 0.33445 0.13257 0.0
H916 H 0.83422 0.33177 0.10903 0.0
H917 H 0.83946 0.25483 0.12874 0.0
H918 H 0.81304 0.25723 0.15247 0.0
H919 H 0.6499 0.22263 0.18584 0.0
H920 H 0.69906 0.26887 0.17889 0.0
H921 H 0.74718 0.21862 0.18855 0.0
H922 H 0.6979 0.17239 0.19581 0.0
H923 H 0.75802 0.25032 0.15836 0.0
H924 H 0.75939 0.26651 0.21325 0.0
H925 H 0.73941 0.27018 0.23893 0.0
H926 H 0.72872 0.346 0.22228 0.0
H927 H 0.74818 0.34245 0.19639 0.0
C928 C 0.8904 0.37124 0.16217 0.0
C929 C 0.89529 0.40109 0.15936 0.0
C930 C 0.8609 0.34704 0.16456 0.0
C931 C 0.8361 0.3525 0.16382 0.0
C932 C 0.84086 0.38245 0.16099 0.0
C933 C 0.87079 0.40702 0.15872 0.0
C934 C 0.80567 0.32674 0.1673 0.0
C935 C 0.79216 0.32847 0.18122 0.0
C936 C 0.7936 0.2985 0.15887 0.0
C937 C 0.80813 0.29595 0.14427 0.0
C938 C 0.81427 0.31691 0.13187 0.0
C939 C 0.82943 0.31547 0.1185 0.0
C940 C 0.83849 0.29311 0.11738 0.0
C941 C 0.83232 0.27206 0.1296 0.0
C942 C 0.81714 0.27337 0.14298 0.0
C943 C 0.67104 0.22161 0.18629 0.0
C944 C 0.67079 0.1945 0.191 0.0
C945 C 0.69882 0.24779 0.18253 0.0
C946 C 0.72616 0.24666 0.18339 0.0
C947 C 0.72593 0.21943 0.18793 0.0
C948 C 0.69814 0.19333 0.19193 0.0
C949 C 0.75477 0.27383 0.17881 0.0
C950 C 0.76802 0.27215 0.1648 0.0
C951 C 0.76693 0.30196 0.18729 0.0
C952 C 0.75475 0.30386 0.20278 0.0
C953 C 0.75236 0.28367 0.21498 0.0
C954 C 0.74124 0.28581 0.2296 0.0
C955 C 0.73266 0.30821 0.23221 0.0
C956 C 0.73527 0.32859 0.22022 0.0
C957 C 0.74635 0.32652 0.20557 0.0
H958 H 0.72408 0.30985 0.24354 0.0
H959 H 0.85032 0.29212 0.10705 0.0
H960 H 0.06343 0.6119 0.11972 0.0
H961 H 0.06044 0.59927 0.09205 0.0
H962 H 0.06475 0.51664 0.10344 0.0
H963 H 0.07214 0.53179 0.13105 0.0
H964 H 0.09408 0.53686 0.07913 0.0
H965 H 0.9925 0.51866 0.09164 0.0
H966 H 0.95392 0.53104 0.10191 0.0
H967 H 0.98589 0.60829 0.07021 0.0
H968 H 1.0248 0.59656 0.05987 0.0
H969 H 1.03973 0.47968 1.00071 0.0
H970 H 0.04733 0.48713 0.02908 0.0
H971 H 0.06154 0.58012 0.02428 0.0
H972 H 0.05311 0.57234 0.99602 0.0
H973 H 1.01861 0.54723 0.04534 0.0
H974 H 0.12174 0.56577 0.03384 0.0
H975 H 0.1572 0.55039 0.02236 0.0
H976 H 0.11814 0.46839 0.0511 0.0
H977 H 0.08225 0.48317 0.06266 0.0
C978 C 0.06377 0.59105 0.11633 0.0
C979 C 0.06696 0.57228 0.12763 0.0
C980 C 0.06159 0.58354 0.10047 0.0
C981 C 0.06088 0.55614 0.09555 0.0
C982 C 0.06468 0.53763 0.10684 0.0
C983 C 0.06836 0.546 0.12269 0.0
C984 C 0.05716 0.54757 0.07862 0.0
C985 C 0.07719 0.5387 0.07185 0.0
C986 C 1.03527 0.54995 0.06889 0.0
C987 C 1.01172 0.55686 0.07508 0.0
C988 C 0.99139 0.53837 0.08693 0.0
C989 C 0.96944 0.54526 0.09274 0.0
C990 C 0.96751 0.57048 0.08674 0.0
C991 C 0.98742 0.58878 0.07486 0.0
C992 C 1.00937 0.58199 0.069 0.0
C993 C 0.04501 0.50185 0.00575 0.0
C994 C 0.04556 0.52537 0.99634 0.0
C995 C 0.04942 0.50612 0.02191 0.0
C996 C 0.05501 0.53419 0.02877 0.0
C997 C 0.05704 0.55821 0.01921 0.0
C998 C 0.05222 0.55379 1.00313 0.0
C999 C 0.0562 0.5379 0.04597 0.0
C1000 C 1.03536 0.54537 0.05275 0.0
C1001 C 0.07699 0.53385 0.05564 0.0
C1002 C 0.09925 0.52552 0.04907 0.0
C1003 C 0.12069 0.54444 0.03769 0.0
C1004 C 0.14085 0.53582 0.03117 0.0
C1005 C 0.1399 0.50841 0.03598 0.0
C1006 C 0.11887 0.48963 0.04739 0.0
C1007 C 0.09866 0.49815 0.05396 0.0
H1008 H 0.15547 0.50174 0.03089 0.0
H1009 H 0.95056 0.57582 0.09129 0.0
H1010 H 0.60213 0.10245 0.46117 0.0
H1011 H 0.59202 0.10327 0.43308 0.0
H1012 H 0.58142 1.01177 0.42812 0.0
H1013 H 0.59166 1.01122 0.45629 0.0
H1014 H 0.61874 0.05111 0.40615 0.0
H1015 H 0.51839 1.02286 0.42666 0.0
H1016 H 0.48069 1.02813 0.44284 0.0
H1017 H 0.50829 0.11713 0.422 0.0
H1018 H 0.54647 0.11261 0.40587 0.0
H1019 H 0.56766 0.03516 0.32688 0.0
H1020 H 0.56696 1.02474 0.35499 0.0
H1021 H 0.582 0.11657 0.36516 0.0
H1022 H 0.58238 0.12691 0.33716 0.0
H1023 H 0.5389 0.07219 0.38413 0.0
H1024 H 0.64039 0.10432 0.36534 0.0
H1025 H 0.6787 0.10196 0.34835 0.0
H1026 H 0.65179 1.01057 0.36574 0.0
H1027 H 0.61272 1.01205 0.38258 0.0
C1028 C 0.59713 0.08244 0.45406 0.0
C1029 C 0.59723 0.05668 0.46073 0.0
C1030 C 0.59136 0.08284 0.43807 0.0
C1031 C 0.5855 0.05735 0.42856 0.0
C1032 C 0.58571 0.03158 0.43528 0.0
C1033 C 0.59151 0.03124 0.45129 0.0
C1034 C 0.58072 0.05832 0.41148 0.0
C1035 C 0.60088 0.05511 0.40132 0.0
C1036 C 0.55804 0.06452 0.40522 0.0
C1037 C 0.53553 0.06752 0.41518 0.0
C1038 C 0.51667 0.04371 0.42566 0.0
C1039 C 0.49515 0.04653 0.43479 0.0
C1040 C 0.49216 0.07299 0.43349 0.0
C1041 C 0.51067 0.09668 0.42303 0.0
C1042 C 0.53224 0.09399 0.41389 0.0
C1043 C 0.57046 0.05291 0.33517 0.0
C1044 C 0.57542 0.08196 0.32998 0.0
C1045 C 0.57018 0.047 0.35115 0.0
C1046 C 0.57477 0.07005 0.36207 0.0
C1047 C 0.57853 0.09858 0.35688 0.0
C1048 C 0.57901 0.10455 0.34093 0.0
C1049 C 0.57697 0.06518 0.37894 0.0
C1050 C 0.55644 0.06775 0.38901 0.0
C1051 C 0.59965 0.05898 0.38513 0.0
C1052 C 0.6233 0.05812 0.37508 0.0
C1053 C 0.64238 0.08356 0.36543 0.0
C1054 C 0.66426 0.0824 0.35583 0.0
C1055 C 0.66761 0.05609 0.35593 0.0
C1056 C 0.6491 0.0309 0.36564 0.0
C1057 C 0.62706 0.03187 0.37521 0.0
H1058 H 0.6846 0.05525 0.34851 0.0
H1059 H 0.47544 0.0751 0.44055 0.0
H1060 H 0.53653 0.55653 0.79198 0.0
H1061 H 0.54916 0.56677 0.76409 0.0
H1062 H 0.59319 0.51108 0.76585 0.0
H1063 H 0.57943 0.49978 0.79367 0.0
H1064 H 0.62651 0.57216 0.74841 0.0
H1065 H 0.52977 0.47627 0.75214 0.0
H1066 H 0.47601 0.44073 0.76021 0.0
H1067 H 0.44707 0.49941 0.73764 0.0
H1068 H 0.50086 0.53571 0.72973 0.0
H1069 H 0.62203 0.53048 0.66872 0.0
H1070 H 0.62177 0.53623 0.697 0.0
H1071 H 0.55964 0.5724 0.69182 0.0
H1072 H 0.55861 0.56523 0.66348 0.0
H1073 H 0.53754 0.52475 0.71129 0.0
H1074 H 0.63514 0.61896 0.70557 0.0
H1075 H 0.68807 0.65012 0.69533 0.0
H1076 H 0.71505 0.59153 0.71962 0.0
H1077 H 0.66218 0.5598 0.7299 0.0
C1078 C 0.54902 0.54666 0.78637 0.0
C1079 C 0.55681 0.52719 0.79471 0.0
C1080 C 0.55629 0.55257 0.77054 0.0
C1081 C 0.57208 0.53967 0.76301 0.0
C1082 C 0.58105 0.52125 0.77154 0.0
C1083 C 0.57302 0.51464 0.78729 0.0
C1084 C 0.57699 0.54355 0.74597 0.0
C1085 C 0.60716 0.56173 0.74024 0.0
C1086 C 0.55163 0.53025 0.73542 0.0
C1087 C 0.51947 0.50906 0.74064 0.0
C1088 C 0.51207 0.48193 0.74916 0.0
C1089 C 0.48156 0.46156 0.75364 0.0
C1090 C 0.45817 0.4679 0.74952 0.0
C1091 C 0.46524 0.49462 0.74089 0.0
C1092 C 0.49574 0.51512 0.73643 0.0
C1093 C 0.6084 0.53976 0.67361 0.0
C1094 C 0.58984 0.54679 0.66398 0.0
C1095 C 0.60868 0.54353 0.68975 0.0
C1096 C 0.59082 0.5549 0.69648 0.0
C1097 C 0.57362 0.56363 0.6868 0.0
C1098 C 0.57314 0.55963 0.67064 0.0
C1099 C 0.587 0.5538 0.71362 0.0
C1100 C 0.55695 0.53583 0.71941 0.0
C1101 C 0.6125 0.56717 0.72412 0.0
C1102 C 0.64466 0.58697 0.71849 0.0
C1103 C 0.65235 0.6127 0.70873 0.0
C1104 C 0.68234 0.63046 0.70291 0.0
C1105 C 0.70491 0.6228 0.70682 0.0
C1106 C 0.69756 0.59746 0.71663 0.0
C1107 C 0.66761 0.57964 0.7225 0.0
H1108 H 0.72808 0.63651 0.70226 0.0
H1109 H 0.43453 0.45203 0.75294 0.0
H1110 H 0.63198 0.09034 0.55329 0.0
H1111 H 0.63409 0.08817 0.58202 0.0
H1112 H 0.54207 1.00769 0.58193 0.0
H1113 H 0.53944 1.01113 0.55354 0.0
H1114 H 0.54233 0.04125 0.60305 0.0
H1115 H 0.61601 1.00925 0.59131 0.0
H1116 H 0.66285 1.01398 0.57932 0.0
H1117 H 0.71937 0.09926 0.60454 0.0
H1118 H 0.67281 0.09524 0.61654 0.0
H1119 H 0.5354 0.99601 0.68283 0.0
H1120 H 0.53977 0.99819 0.65435 0.0
H1121 H 0.62383 0.08711 0.65777 0.0
H1122 H 0.62018 0.08477 0.68633 0.0
H1123 H 0.62973 0.05136 0.63535 0.0
H1124 H 0.55411 0.08122 0.64706 0.0
H1125 H 0.50619 0.07619 0.65779 0.0
H1126 H 0.45199 0.99169 0.63159 0.0
H1127 H 0.49961 0.99599 0.62087 0.0
C1128 C 0.61239 0.07201 0.55944 0.0
C1129 C 0.58546 0.051 0.55108 0.0
C1130 C 0.61361 0.07062 0.57595 0.0
C1131 C 0.58825 0.04761 0.58451 0.0
C1132 C 0.56194 1.02597 0.57593 0.0
C1133 C 0.56048 1.02782 0.55957 0.0
C1134 C 0.58785 0.04676 0.60228 0.0
C1135 C 0.56135 0.04286 0.60999 0.0
C1136 C 0.61283 0.04985 0.61174 0.0
C1137 C 0.64089 0.0521 0.60471 0.0
C1138 C 0.63841 1.02911 0.59423 0.0
C1139 C 0.66491 0.03165 0.58744 0.0
C1140 C 0.69406 0.05695 0.59113 0.0
C1141 C 0.69677 0.0797 0.60167 0.0
C1142 C 0.67034 0.07728 0.60849 0.0
C1143 C 0.55508 1.01598 0.67766 0.0
C1144 C 0.57732 0.04026 0.68724 0.0
C1145 C 0.5574 1.01733 0.6612 0.0
C1146 C 0.582 0.043 0.65363 0.0
C1147 C 0.60453 0.067 0.66312 0.0
C1148 C 0.60218 0.06574 0.67959 0.0
C1149 C 0.58386 0.04503 0.63593 0.0
C1150 C 0.61067 0.04941 0.62831 0.0
C1151 C 0.55899 0.04189 0.62646 0.0
C1152 C 0.53044 0.03874 0.63332 0.0
C1153 C 0.53199 0.06136 0.64374 0.0
C1154 C 0.50488 0.05869 0.64979 0.0
C1155 C 0.47607 0.03358 0.64541 0.0
C1156 C 0.47431 1.01108 0.635 0.0
C1157 C 0.50135 1.01362 0.62894 0.0
H1158 H 0.4551 0.03162 0.65006 0.0
H1159 H 0.71455 0.0589 0.58585 0.0
H1160 H 0.62094 0.56742 0.89123 0.0
H1161 H 0.61206 0.56607 0.91924 0.0
H1162 H 0.51413 0.50618 0.91147 0.0
H1163 H 0.52304 0.50796 0.88299 0.0
H1164 H 0.5257 0.55004 0.93508 0.0
H1165 H 0.55681 0.47492 0.92581 0.0
H1166 H 0.5898 0.45728 0.91351 0.0
H1167 H 0.66939 0.52925 0.93768 0.0
H1168 H 0.63687 0.5475 0.95003 0.0
H1169 H 0.50435 0.51331 0.01767 0.0
H1170 H 0.50457 0.51127 0.98912 0.0
H1171 H 0.60414 0.56492 0.9896 0.0
H1172 H 0.60421 0.56775 0.0181 0.0
H1173 H 0.58691 0.51963 0.96923 0.0
H1174 H 0.55539 0.59532 0.97809 0.0
H1175 H 0.52314 0.61584 0.98832 0.0
H1176 H 0.44379 0.54361 0.96414 0.0
H1177 H 0.4755 0.52242 0.95391 0.0
C1178 C 0.5974 0.55384 0.89536 0.0
C1179 C 0.57279 0.53759 0.88465 0.0
C1180 C 0.59233 0.55306 0.91154 0.0
C1181 C 0.56243 0.53565 0.9178 0.0
C1182 C 0.53751 0.5198 0.90713 0.0
C1183 C 0.54263 0.52068 0.89078 0.0
C1184 C 0.55806 0.53353 0.93544 0.0
C1185 C 0.53863 0.5428 0.94252 0.0
C1186 C 0.57515 0.52462 0.94542 0.0
C1187 C 0.59444 0.51259 0.93882 0.0
C1188 C 0.58134 0.48692 0.92854 0.0
C1189 C 0.59995 0.47685 0.92153 0.0
C1190 C 0.63167 0.49215 0.92481 0.0
C1191 C 0.6448 0.5174 0.93518 0.0
C1192 C 0.62628 0.52755 0.94223 0.0
C1193 C 0.52644 0.52518 0.01183 0.0
C1194 C 0.55429 0.54079 0.02066 0.0
C1195 C 0.52649 0.5239 0.9953 0.0
C1196 C 0.55437 0.53816 0.98684 0.0
C1197 C 0.58216 0.55353 0.99559 0.0
C1198 C 0.58214 0.55497 0.0121 0.0
C1199 C 0.55484 0.53664 0.96905 0.0
C1200 C 0.57364 0.52661 0.96189 0.0
C1201 C 0.53697 0.5447 0.95905 0.0
C1202 C 0.51775 0.55705 0.9654 0.0
C1203 C 0.531 0.58361 0.97509 0.0
C1204 C 0.51283 0.59541 0.98085 0.0
C1205 C 0.48142 0.58097 0.97692 0.0
C1206 C 0.46811 0.55472 0.9672 0.0
C1207 C 0.48617 0.54282 0.96141 0.0
H1208 H 0.46741 0.59017 0.98138 0.0
H1209 H 0.64608 0.48443 0.91931 0.0
H1210 H 0.09926 0.58948 0.21569 0.0
H1211 H 0.10709 0.59766 0.24419 0.0
H1212 H 1.01705 0.51744 0.25181 0.0
H1213 H 1.00962 0.50881 0.22343 0.0
H1214 H 1.0291 0.56909 0.27132 0.0
H1215 H 0.07938 0.51164 0.25631 0.0
H1216 H 0.11696 0.50367 0.24155 0.0
H1217 H 0.19183 0.58704 0.26174 0.0
H1218 H 0.15461 0.59587 0.2764 0.0
H1219 H 1.0296 0.5339 0.35174 0.0
H1220 H 1.02672 0.53349 0.32325 0.0
H1221 H 0.12483 0.59797 0.32116 0.0
H1222 H 0.12816 0.59733 0.34974 0.0
H1223 H 0.11229 0.55989 0.29838 0.0
H1224 H 0.06627 0.61875 0.31362 0.0
H1225 H 1.03139 0.63193 0.32756 0.0
H1226 H 0.95254 0.55331 0.30647 0.0
H1227 H 0.98693 0.53936 0.29259 0.0
C1228 C 0.0809 0.57391 0.2234 0.0
C1229 C 0.05358 0.54865 0.21712 0.0
C1230 C 0.08552 0.57842 0.2398 0.0
C1231 C 0.06272 0.55816 0.25042 0.0
C1232 C 1.03511 0.53353 0.24407 0.0
C1233 C 1.03085 0.52858 0.22776 0.0
C1234 C 0.06755 0.5618 0.26807 0.0
C1235 C 0.04711 0.56672 0.27722 0.0
C1236 C 0.09176 0.56006 0.27598 0.0
C1237 C 0.11416 0.55464 0.26729 0.0
C1238 C 0.10383 0.52846 0.25748 0.0
C1239 C 0.12507 0.52376 0.24915 0.0
C1240 C 0.15676 0.5449 0.25066 0.0
C1241 C 0.16727 0.57073 0.26055 0.0
C1242 C 0.1461 0.5756 0.26887 0.0
C1243 C 0.05078 0.54783 0.34535 0.0
C1244 C 0.07915 0.56566 0.35346 0.0
C1245 C 0.04901 0.54794 0.32884 0.0
C1246 C 0.07543 0.56614 0.31964 0.0
C1247 C 0.10386 0.58373 0.32768 0.0
C1248 C 0.10568 0.58358 0.34422 0.0
C1249 C 0.0733 0.56648 0.3018 0.0
C1250 C 0.0943 0.5624 0.29257 0.0
C1251 C 0.04999 0.56971 0.29375 0.0
C1252 C 1.02918 0.57781 0.30219 0.0
C1253 C 0.04148 0.60409 0.31207 0.0
C1254 C 1.0218 0.61173 0.31994 0.0
C1255 C 0.98976 0.59342 0.31793 0.0
C1256 C 0.97735 0.56745 0.30803 0.0
C1257 C 0.99693 0.55967 0.30016 0.0
H1258 H 0.97456 0.59939 0.32402 0.0
H1259 H 0.17317 0.5412 0.24421 0.0
loop_
_geom_bond_atom_site_label_1
_geom_bond_atom_site_label_2
_geom_bond_distance
_geom_bond_site_symmetry_2
_ccdc_geom_bond_type
Tb0 C2 2.809 . S
Tb0 O20 2.484 . S
Tb0 O21 2.440 . S
Tb0 O22 2.658 . S
Tb0 O23 2.409 . S
Tb0 O24 2.378 . S
Tb0 O28 2.325 . S
Tb0 O31 2.341 1_455 S
Tb1 C11 2.809 1_455 S
Tb1 O22 2.325 . S
Tb1 O25 2.341 . S
Tb1 O26 2.484 1_455 S
Tb1 O27 2.440 1_455 S
Tb1 O28 2.658 . S
Tb1 O29 2.409 . S
Tb1 O30 2.378 1_455 S
C2 Tb0 2.809 . S
C2 C3 1.514 . S
C2 O20 1.248 . S
C2 O21 1.266 . S
C3 C2 1.514 . S
C3 C4 1.359 . S
C3 C8 1.348 . S
C4 C3 1.359 . S
C4 C5 1.380 . S
C4 H32 0.929 . S
C5 C4 1.380 . S
C5 C6 1.347 . S
C5 H33 0.931 . S
C6 C5 1.347 . S
C6 C7 1.369 . S
C7 C6 1.369 . S
C7 C8 1.408 . S
C7 H34 0.930 . S
C8 C3 1.348 . S
C8 C7 1.408 . S
C8 H35 0.930 . S
C9 O22 1.281 . S
C9 O23 1.254 . S
C10 O24 1.236 . S
C10 O25 1.266 . S
C11 Tb1 2.809 1_655 S
C11 C12 1.514 . S
C11 O26 1.248 . S
C11 O27 1.266 . S
C12 C11 1.514 . S
C12 C13 1.359 . S
C12 C17 1.348 . S
C13 C12 1.359 . S
C13 C14 1.380 . S
C13 H36 0.929 . S
C14 C13 1.380 . S
C14 C15 1.347 . S
C14 H37 0.931 . S
C15 C14 1.347 . S
C15 C16 1.369 . S
C16 C15 1.369 . S
C16 C17 1.408 . S
C16 H38 0.930 . S
C17 C12 1.348 . S
C17 C16 1.408 . S
C17 H39 0.930 . S
C18 O28 1.281 . S
C18 O29 1.254 . S
C19 O30 1.236 . S
C19 O31 1.266 . S
O20 Tb0 2.484 . S
O20 C2 1.248 . S
O21 Tb0 2.440 . S
O21 C2 1.266 . S
O22 Tb0 2.658 . S
O22 Tb1 2.325 . S
O22 C9 1.281 . S
O23 Tb0 2.409 . S
O23 C9 1.254 . S
O24 Tb0 2.378 . S
O24 C10 1.236 . S
O25 Tb1 2.341 . S
O25 C10 1.266 . S
O26 Tb1 2.484 1_655 S
O26 C11 1.248 . S
O27 Tb1 2.440 1_655 S
O27 C11 1.266 . S
O28 Tb0 2.325 . S
O28 Tb1 2.658 . S
O28 C18 1.281 . S
O29 Tb1 2.409 . S
O29 C18 1.254 . S
O30 Tb1 2.378 1_655 S
O30 C19 1.236 . S
O31 Tb0 2.341 1_655 S
O31 C19 1.266 . S
H32 C4 0.929 . S
H33 C5 0.931 . S
H34 C7 0.930 . S
H35 C8 0.930 . S
H36 C13 0.929 . S
H37 C14 0.931 . S
H38 C16 0.930 . S
H39 C17 0.930 . S
Tb40 C42 2.809 1_545 S
Tb40 O60 2.484 1_545 S
Tb40 O61 2.440 1_545 S
Tb40 O62 2.658 . S
Tb40 O63 2.409 . S
Tb40 O64 2.378 1_545 S
Tb40 O68 2.325 . S
Tb40 O71 2.341 . S
Tb41 C51 2.809 . S
Tb41 O62 2.325 . S
Tb41 O65 2.341 1_545 S
Tb41 O66 2.484 . S
Tb41 O67 2.440 . S
Tb41 O68 2.658 . S
Tb41 O69 2.409 . S
Tb41 O70 2.378 . S
C42 Tb40 2.809 1_565 S
C42 C43 1.514 . S
C42 O60 1.248 . S
C42 O61 1.266 . S
C43 C42 1.514 . S
C43 C44 1.359 . S
C43 C48 1.348 . S
C44 C43 1.359 . S
C44 C45 1.380 . S
C44 H72 0.929 . S
C45 C44 1.380 . S
C45 C46 1.347 . S
C45 H73 0.931 . S
C46 C45 1.347 . S
C46 C47 1.369 . S
C47 C46 1.369 . S
C47 C48 1.408 . S
C47 H74 0.930 . S
C48 C43 1.348 . S
C48 C47 1.408 . S
C48 H75 0.930 . S
C49 O62 1.281 . S
C49 O63 1.254 . S
C50 O64 1.236 . S
C50 O65 1.266 . S
C51 Tb41 2.809 . S
C51 C52 1.514 . S
C51 O66 1.248 . S
C51 O67 1.266 . S
C52 C51 1.514 . S
C52 C53 1.359 . S
C52 C57 1.348 . S
C53 C52 1.359 . S
C53 C54 1.380 . S
C53 H76 0.929 . S
C54 C53 1.380 . S
C54 C55 1.347 . S
C54 H77 0.931 . S
C55 C54 1.347 . S
C55 C56 1.369 . S
C56 C55 1.369 . S
C56 C57 1.408 . S
C56 H78 0.930 . S
C57 C52 1.348 . S
C57 C56 1.408 . S
C57 H79 0.930 . S
C58 O68 1.281 . S
C58 O69 1.254 . S
C59 O70 1.236 . S
C59 O71 1.266 . S
O60 Tb40 2.484 1_565 S
O60 C42 1.248 . S
O61 Tb40 2.440 1_565 S
O61 C42 1.266 . S
O62 Tb40 2.658 . S
O62 Tb41 2.325 . S
O62 C49 1.281 . S
O63 Tb40 2.409 . S
O63 C49 1.254 . S
O64 Tb40 2.378 1_565 S
O64 C50 1.236 . S
O65 Tb41 2.341 1_565 S
O65 C50 1.266 . S
O66 Tb41 2.484 . S
O66 C51 1.248 . S
O67 Tb41 2.440 . S
O67 C51 1.266 . S
O68 Tb40 2.325 . S
O68 Tb41 2.658 . S
O68 C58 1.281 . S
O69 Tb41 2.409 . S
O69 C58 1.254 . S
O70 Tb41 2.378 . S
O70 C59 1.236 . S
O71 Tb40 2.341 . S
O71 C59 1.266 . S
H72 C44 0.929 . S
H73 C45 0.931 . S
H74 C47 0.930 . S
H75 C48 0.930 . S
H76 C53 0.929 . S
H77 C54 0.931 . S
H78 C56 0.930 . S
H79 C57 0.930 . S
Tb80 C82 2.809 . S
Tb80 O100 2.484 . S
Tb80 O101 2.440 . S
Tb80 O102 2.658 . S
Tb80 O103 2.409 . S
Tb80 O104 2.378 . S
Tb80 O108 2.325 . S
Tb80 O111 2.341 . S
Tb81 C91 2.809 . S
Tb81 O102 2.325 . S
Tb81 O105 2.341 . S
Tb81 O106 2.484 . S
Tb81 O107 2.440 . S
Tb81 O108 2.658 . S
Tb81 O109 2.409 . S
Tb81 O110 2.378 . S
C82 Tb80 2.809 . S
C82 C83 1.514 . S
C82 O100 1.248 . S
C82 O101 1.266 . S
C83 C82 1.514 . S
C83 C84 1.359 . S
C83 C88 1.348 . S
C84 C83 1.359 . S
C84 C85 1.380 . S
C84 H112 0.929 . S
C85 C84 1.380 . S
C85 C86 1.347 . S
C85 H113 0.931 . S
C86 C85 1.347 . S
C86 C87 1.369 . S
C87 C86 1.369 . S
C87 C88 1.408 . S
C87 H114 0.930 . S
C88 C83 1.348 . S
C88 C87 1.408 . S
C88 H115 0.930 . S
C89 O102 1.281 . S
C89 O103 1.254 . S
C90 O104 1.236 . S
C90 O105 1.266 . S
C91 Tb81 2.809 . S
C91 C92 1.514 . S
C91 O106 1.248 . S
C91 O107 1.266 . S
C92 C91 1.514 . S
C92 C93 1.359 . S
C92 C97 1.348 . S
C93 C92 1.359 . S
C93 C94 1.380 . S
C93 H116 0.929 . S
C94 C93 1.380 . S
C94 C95 1.347 . S
C94 H117 0.931 . S
C95 C94 1.347 . S
C95 C96 1.369 . S
C96 C95 1.369 . S
C96 C97 1.408 . S
C96 H118 0.930 . S
C97 C92 1.348 . S
C97 C96 1.408 . S
C97 H119 0.930 . S
C98 O108 1.281 . S
C98 O109 1.254 . S
C99 O110 1.236 . S
C99 O111 1.266 . S
O100 Tb80 2.484 . S
O100 C82 1.248 . S
O101 Tb80 2.440 . S
O101 C82 1.266 . S
O102 Tb80 2.658 . S
O102 Tb81 2.325 . S
O102 C89 1.281 . S
O103 Tb80 2.409 . S
O103 C89 1.254 . S
O104 Tb80 2.378 . S
O104 C90 1.236 . S
O105 Tb81 2.341 . S
O105 C90 1.266 . S
O106 Tb81 2.484 . S
O106 C91 1.248 . S
O107 Tb81 2.440 . S
O107 C91 1.266 . S
O108 Tb80 2.325 . S
O108 Tb81 2.658 . S
O108 C98 1.281 . S
O109 Tb81 2.409 . S
O109 C98 1.254 . S
O110 Tb81 2.378 . S
O110 C99 1.236 . S
O111 Tb80 2.341 . S
O111 C99 1.266 . S
H112 C84 0.929 . S
H113 C85 0.931 . S
H114 C87 0.930 . S
H115 C88 0.930 . S
H116 C93 0.929 . S
H117 C94 0.931 . S
H118 C96 0.930 . S
H119 C97 0.930 . S
C120 C121 1.264 . S
C120 C125 1.479 . S
C120 C130 1.465 . S
C121 C120 1.264 . S
C121 C123 1.339 . S
C121 H148 0.931 . S
C122 C123 1.395 . S
C122 C124 1.320 . S
C123 C121 1.339 . S
C123 C122 1.395 . S
C123 H149 0.929 . S
C124 C122 1.320 . S
C124 C125 1.405 . S
C124 H150 0.930 . S
C125 C120 1.479 . S
C125 C124 1.405 . S
C125 H151 0.931 . S
U126 O127 2.454 . S
U126 O128 2.458 . S
U126 C129 2.984 1_545 S
U126 C130 2.847 . S
U126 C143 2.882 . S
U126 O144 2.441 . S
U126 O145 2.420 . S
U126 O146 2.455 . S
U126 O147 2.449 . S
O127 U126 2.454 . S
O127 C129 1.353 1_545 S
O128 U126 2.458 . S
O128 C129 1.286 1_545 S
C129 U126 2.984 1_565 S
C129 O127 1.353 1_565 S
C129 O128 1.286 1_565 S
C129 C131 1.363 . S
C130 C120 1.465 . S
C130 U126 2.847 . S
C130 O144 1.249 . S
C130 O145 1.202 . S
C131 C129 1.363 . S
C131 C133 1.408 . S
C131 C136 1.342 . S
C132 C133 1.310 . S
C132 C135 1.461 . S
C132 H152 0.932 . S
C133 C131 1.408 . S
C133 C132 1.310 . S
C133 H153 0.930 . S
C134 C135 1.474 . S
C134 C136 1.285 . S
C134 H154 0.929 . S
C135 C132 1.461 . S
C135 C134 1.474 . S
C136 C131 1.342 . S
C136 C134 1.285 . S
C136 H155 0.930 . S
C137 C140 1.424 . S
C137 C142 1.245 . S
C137 C143 1.428 . S
C138 C141 1.260 . S
C138 C142 1.477 . S
C138 H156 0.932 . S
C139 C140 1.384 . S
C139 C141 1.479 . S
C139 H157 0.929 . S
C140 C137 1.424 . S
C140 C139 1.384 . S
C140 H158 0.928 . S
C141 C138 1.260 . S
C141 C139 1.479 . S
C142 C137 1.245 . S
C142 C138 1.477 . S
C142 H159 0.932 . S
C143 U126 2.882 . S
C143 C137 1.428 . S
C143 O146 1.301 . S
C143 O147 1.282 . S
O144 U126 2.441 . S
O144 C130 1.249 . S
O145 U126 2.420 . S
O145 C130 1.202 . S
O146 U126 2.455 . S
O146 C143 1.301 . S
O147 U126 2.449 . S
O147 C143 1.282 . S
H148 C121 0.931 . S
H149 C123 0.929 . S
H150 C124 0.930 . S
H151 C125 0.931 . S
H152 C132 0.932 . S
H153 C133 0.930 . S
H154 C134 0.929 . S
H155 C136 0.930 . S
H156 C138 0.932 . S
H157 C139 0.929 . S
H158 C140 0.928 . S
H159 C142 0.932 . S
C160 C161 1.264 . S
C160 C165 1.479 . S
C160 C170 1.465 . S
C161 C160 1.264 . S
C161 C163 1.339 . S
C161 H188 0.931 . S
C162 C163 1.395 . S
C162 C164 1.320 . S
C163 C161 1.339 . S
C163 C162 1.395 . S
C163 H189 0.929 . S
C164 C162 1.320 . S
C164 C165 1.405 . S
C164 H190 0.930 . S
C165 C160 1.479 . S
C165 C164 1.405 . S
C165 H191 0.931 . S
U166 O167 2.454 . S
U166 O168 2.458 . S
U166 C169 2.984 . S
U166 C170 2.847 . S
U166 C183 2.882 . S
U166 O184 2.441 . S
U166 O185 2.420 . S
U166 O186 2.455 . S
U166 O187 2.449 . S
O167 U166 2.454 . S
O167 C169 1.353 . S
O168 U166 2.458 . S
O168 C169 1.286 . S
C169 U166 2.984 . S
C169 O167 1.353 . S
C169 O168 1.286 . S
C169 C171 1.363 . S
C170 C160 1.465 . S
C170 U166 2.847 . S
C170 O184 1.249 . S
C170 O185 1.202 . S
C171 C169 1.363 . S
C171 C173 1.408 . S
C171 C176 1.342 . S
C172 C173 1.310 . S
C172 C175 1.461 . S
C172 H192 0.932 . S
C173 C171 1.408 . S
C173 C172 1.310 . S
C173 H193 0.930 . S
C174 C175 1.474 . S
C174 C176 1.285 . S
C174 H194 0.929 . S
C175 C172 1.461 . S
C175 C174 1.474 . S
C176 C171 1.342 . S
C176 C174 1.285 . S
C176 H195 0.930 . S
C177 C180 1.424 . S
C177 C182 1.245 . S
C177 C183 1.428 . S
C178 C181 1.260 . S
C178 C182 1.477 . S
C178 H196 0.932 . S
C179 C180 1.384 . S
C179 C181 1.479 . S
C179 H197 0.929 . S
C180 C177 1.424 . S
C180 C179 1.384 . S
C180 H198 0.928 . S
C181 C178 1.260 . S
C181 C179 1.479 . S
C182 C177 1.245 . S
C182 C178 1.477 . S
C182 H199 0.932 . S
C183 U166 2.882 . S
C183 C177 1.428 . S
C183 O186 1.301 . S
C183 O187 1.282 . S
O184 U166 2.441 . S
O184 C170 1.249 . S
O185 U166 2.420 . S
O185 C170 1.202 . S
O186 U166 2.455 . S
O186 C183 1.301 . S
O187 U166 2.449 . S
O187 C183 1.282 . S
H188 C161 0.931 . S
H189 C163 0.929 . S
H190 C164 0.930 . S
H191 C165 0.931 . S
H192 C172 0.932 . S
H193 C173 0.930 . S
H194 C174 0.929 . S
H195 C176 0.930 . S
H196 C178 0.932 . S
H197 C179 0.929 . S
H198 C180 0.928 . S
H199 C182 0.932 . S
C200 C201 1.264 . S
C200 C205 1.479 . S
C200 C210 1.465 . S
C201 C200 1.264 . S
C201 C203 1.339 . S
C201 H228 0.931 . S
C202 C203 1.395 . S
C202 C204 1.320 . S
C203 C201 1.339 . S
C203 C202 1.395 . S
C203 H229 0.929 . S
C204 C202 1.320 . S
C204 C205 1.405 . S
C204 H230 0.930 . S
C205 C200 1.479 . S
C205 C204 1.405 . S
C205 H231 0.931 . S
U206 O207 2.435 1_655 S
U206 O208 2.424 1_655 S
U206 C209 2.955 1_655 S
U206 C210 2.876 . S
U206 C223 2.882 . S
U206 O224 2.459 . S
U206 O225 2.454 . S
U206 O226 2.440 1_655 S
U206 O227 2.464 . S
O207 U206 2.435 1_455 S
O207 C209 1.353 . S
O208 U206 2.424 1_455 S
O208 C209 1.286 . S
C209 U206 2.955 1_455 S
C209 O207 1.353 . S
C209 O208 1.286 . S
C209 C211 1.363 . S
C210 C200 1.465 . S
C210 U206 2.876 . S
C210 O224 1.249 . S
C210 O225 1.202 . S
C211 C209 1.363 . S
C211 C213 1.408 . S
C211 C216 1.342 . S
C212 C213 1.310 . S
C212 C215 1.461 . S
C212 H232 0.932 . S
C213 C211 1.408 . S
C213 C212 1.310 . S
C213 H233 0.930 . S
C214 C215 1.474 . S
C214 C216 1.285 . S
C214 H234 0.929 . S
C215 C212 1.461 . S
C215 C214 1.474 . S
C216 C211 1.342 . S
C216 C214 1.285 . S
C216 H235 0.930 . S
C217 C220 1.424 1_455 S
C217 C222 1.245 . S
C217 C223 1.428 1_455 S
C218 C221 1.260 . S
C218 C222 1.477 . S
C218 H236 0.932 . S
C219 C220 1.384 . S
C219 C221 1.479 1_655 S
C219 H237 0.929 . S
C220 C217 1.424 1_655 S
C220 C219 1.384 . S
C220 H238 0.928 . S
C221 C218 1.260 . S
C221 C219 1.479 1_455 S
C222 C217 1.245 . S
C222 C218 1.477 . S
C222 H239 0.932 . S
C223 U206 2.882 . S
C223 C217 1.428 1_655 S
C223 O226 1.267 1_655 S
C223 O227 1.316 . S
O224 U206 2.459 . S
O224 C210 1.249 . S
O225 U206 2.454 . S
O225 C210 1.202 . S
O226 U206 2.440 1_455 S
O226 C223 1.267 1_455 S
O227 U206 2.464 . S
O227 C223 1.316 . S
H228 C201 0.931 . S
H229 C203 0.929 . S
H230 C204 0.930 . S
H231 C205 0.931 . S
H232 C212 0.932 . S
H233 C213 0.930 . S
H234 C214 0.929 . S
H235 C216 0.930 . S
H236 C218 0.932 . S
H237 C219 0.929 . S
H238 C220 0.928 . S
H239 C222 0.932 . S
C240 C241 1.264 . S
C240 C245 1.479 . S
C240 C250 1.465 . S
C241 C240 1.264 . S
C241 C243 1.339 . S
C241 H268 0.931 . S
C242 C243 1.395 . S
C242 C244 1.320 . S
C243 C241 1.339 . S
C243 C242 1.395 . S
C243 H269 0.929 . S
C244 C242 1.320 . S
C244 C245 1.405 . S
C244 H270 0.930 . S
C245 C240 1.479 . S
C245 C244 1.405 . S
C245 H271 0.931 . S
U246 O247 2.454 . S
U246 O248 2.458 . S
U246 C249 2.984 . S
U246 C250 2.847 1_455 S
U246 C263 2.882 . S
U246 O264 2.441 . S
U246 O265 2.420 1_455 S
U246 O266 2.455 . S
U246 O267 2.449 . S
O247 U246 2.454 . S
O247 C249 1.353 . S
O248 U246 2.458 . S
O248 C249 1.286 . S
C249 U246 2.984 . S
C249 O247 1.353 . S
C249 O248 1.286 . S
C249 C251 1.363 . S
C250 C240 1.465 . S
C250 U246 2.847 1_655 S
C250 O264 1.249 1_655 S
C250 O265 1.202 . S
C251 C249 1.363 . S
C251 C253 1.408 . S
C251 C256 1.342 . S
C252 C253 1.310 . S
C252 C255 1.461 . S
C252 H272 0.932 . S
C253 C251 1.408 . S
C253 C252 1.310 . S
C253 H273 0.930 . S
C254 C255 1.474 . S
C254 C256 1.285 . S
C254 H274 0.929 . S
C255 C252 1.461 . S
C255 C254 1.474 . S
C256 C251 1.342 . S
C256 C254 1.285 . S
C256 H275 0.930 . S
C257 C260 1.424 . S
C257 C262 1.245 . S
C257 C263 1.428 . S
C258 C261 1.260 . S
C258 C262 1.477 . S
C258 H276 0.932 . S
C259 C260 1.384 . S
C259 C261 1.479 . S
C259 H277 0.929 1_455 S
C260 C257 1.424 . S
C260 C259 1.384 . S
C260 H278 0.928 . S
C261 C258 1.260 . S
C261 C259 1.479 . S
C262 C257 1.245 . S
C262 C258 1.477 . S
C262 H279 0.932 . S
C263 U246 2.882 . S
C263 C257 1.428 . S
C263 O266 1.301 . S
C263 O267 1.282 . S
O264 U246 2.441 . S
O264 C250 1.249 1_455 S
O265 U246 2.420 1_655 S
O265 C250 1.202 . S
O266 U246 2.455 . S
O266 C263 1.301 . S
O267 U246 2.449 . S
O267 C263 1.282 . S
H268 C241 0.931 . S
H269 C243 0.929 . S
H270 C244 0.930 . S
H271 C245 0.931 . S
H272 C252 0.932 . S
H273 C253 0.930 . S
H274 C254 0.929 . S
H275 C256 0.930 . S
H276 C258 0.932 . S
H277 C259 0.929 1_655 S
H278 C260 0.928 . S
H279 C262 0.932 . S
C280 C281 1.264 . S
C280 C285 1.479 . S
C280 C290 1.465 . S
C281 C280 1.264 . S
C281 C283 1.339 . S
C281 H308 0.931 . S
C282 C283 1.395 . S
C282 C284 1.320 . S
C283 C281 1.339 . S
C283 C282 1.395 . S
C283 H309 0.929 . S
C284 C282 1.320 . S
C284 C285 1.405 . S
C284 H310 0.930 . S
C285 C280 1.479 . S
C285 C284 1.405 . S
C285 H311 0.931 . S
U286 O287 2.454 1_565 S
U286 O288 2.458 1_565 S
U286 C289 2.984 1_565 S
U286 C290 2.847 . S
U286 C303 2.882 . S
U286 O304 2.441 . S
U286 O305 2.420 . S
U286 O306 2.455 1_565 S
U286 O307 2.449 . S
O287 U286 2.454 1_545 S
O287 C289 1.353 . S
O288 U286 2.458 1_545 S
O288 C289 1.286 . S
C289 U286 2.984 1_545 S
C289 O287 1.353 . S
C289 O288 1.286 . S
C289 C291 1.363 . S
C290 C280 1.465 . S
C290 U286 2.847 . S
C290 O304 1.249 . S
C290 O305 1.202 . S
C291 C289 1.363 . S
C291 C293 1.408 . S
C291 C296 1.342 . S
C292 C293 1.310 . S
C292 C295 1.461 . S
C292 H312 0.932 . S
C293 C291 1.408 . S
C293 C292 1.310 . S
C293 H313 0.930 . S
C294 C295 1.474 . S
C294 C296 1.285 . S
C294 H314 0.929 . S
C295 C292 1.461 . S
C295 C294 1.474 . S
C296 C291 1.342 . S
C296 C294 1.285 . S
C296 H315 0.930 . S
C297 C300 1.383 1_545 S
C297 C302 1.285 . S
C297 C303 1.428 1_545 S
C298 C301 1.260 . S
C298 C302 1.477 . S
C298 H316 0.932 . S
C299 C300 1.384 . S
C299 C301 1.479 1_565 S
C299 H317 0.929 . S
C300 C297 1.383 1_565 S
C300 C299 1.384 . S
C300 H318 0.928 . S
C301 C298 1.260 . S
C301 C299 1.479 1_545 S
C302 C297 1.285 . S
C302 C298 1.477 . S
C302 H319 0.932 . S
C303 U286 2.882 . S
C303 C297 1.428 1_565 S
C303 O306 1.301 1_565 S
C303 O307 1.282 . S
O304 U286 2.441 . S
O304 C290 1.249 . S
O305 U286 2.420 . S
O305 C290 1.202 . S
O306 U286 2.455 1_545 S
O306 C303 1.301 1_545 S
O307 U286 2.449 . S
O307 C303 1.282 . S
H308 C281 0.931 . S
H309 C283 0.929 . S
H310 C284 0.930 . S
H311 C285 0.931 . S
H312 C292 0.932 . S
H313 C293 0.930 . S
H314 C294 0.929 . S
H315 C296 0.930 . S
H316 C298 0.932 . S
H317 C299 0.929 . S
H318 C300 0.928 . S
H319 C302 0.932 . S
C320 C321 1.264 . S
C320 C325 1.479 . S
C320 C330 1.465 . S
C321 C320 1.264 . S
C321 C323 1.339 . S
C321 H348 0.931 . S
C322 C323 1.395 . S
C322 C324 1.320 . S
C323 C321 1.339 . S
C323 C322 1.395 . S
C323 H349 0.929 . S
C324 C322 1.320 . S
C324 C325 1.405 . S
C324 H350 0.930 . S
C325 C320 1.479 . S
C325 C324 1.405 . S
C325 H351 0.931 . S
U326 O327 2.454 . S
U326 O328 2.458 . S
U326 C329 2.984 . S
U326 C330 2.847 . S
U326 C343 2.882 . S
U326 O344 2.441 . S
U326 O345 2.420 . S
U326 O346 2.455 . S
U326 O347 2.449 . S
O327 U326 2.454 . S
O327 C329 1.353 . S
O328 U326 2.458 . S
O328 C329 1.286 . S
C329 U326 2.984 . S
C329 O327 1.353 . S
C329 O328 1.286 . S
C329 C331 1.363 . S
C330 C320 1.465 . S
C330 U326 2.847 . S
C330 O344 1.249 . S
C330 O345 1.202 . S
C331 C329 1.363 . S
C331 C333 1.408 . S
C331 C336 1.342 . S
C332 C333 1.310 . S
C332 C335 1.461 . S
C332 H352 0.932 . S
C333 C331 1.408 . S
C333 C332 1.310 . S
C333 H353 0.930 . S
C334 C335 1.474 . S
C334 C336 1.285 . S
C334 H354 0.929 . S
C335 C332 1.461 . S
C335 C334 1.474 . S
C336 C331 1.342 . S
C336 C334 1.285 . S
C336 H355 0.930 . S
C337 C340 1.424 . S
C337 C342 1.245 . S
C337 C343 1.428 . S
C338 C341 1.260 . S
C338 C342 1.477 . S
C338 H356 0.932 . S
C339 C340 1.384 . S
C339 C341 1.479 . S
C339 H357 0.929 . S
C340 C337 1.424 . S
C340 C339 1.384 . S
C340 H358 0.928 . S
C341 C338 1.260 . S
C341 C339 1.479 . S
C342 C337 1.245 . S
C342 C338 1.477 . S
C342 H359 0.932 . S
C343 U326 2.882 . S
C343 C337 1.428 . S
C343 O346 1.301 . S
C343 O347 1.282 . S
O344 U326 2.441 . S
O344 C330 1.249 . S
O345 U326 2.420 . S
O345 C330 1.202 . S
O346 U326 2.455 . S
O346 C343 1.301 . S
O347 U326 2.449 . S
O347 C343 1.282 . S
H348 C321 0.931 . S
H349 C323 0.929 . S
H350 C324 0.930 . S
H351 C325 0.931 . S
H352 C332 0.932 . S
H353 C333 0.930 . S
H354 C334 0.929 . S
H355 C336 0.930 . S
H356 C338 0.932 . S
H357 C339 0.929 . S
H358 C340 0.928 . S
H359 C342 0.932 . S
H360 C378 0.951 . S
H361 C380 0.951 . S
H362 C382 0.950 . S
H363 C383 0.950 . S
H364 C385 0.950 . S
H365 C388 0.950 . S
H366 C389 0.950 . S
H367 C391 0.950 . S
H368 C392 0.950 . S
H369 C393 0.951 . S
H370 C395 0.951 . S
H371 C397 0.950 . S
H372 C398 0.950 . S
H373 C400 0.950 . S
H374 C403 0.950 . S
H375 C404 0.950 . S
H376 C406 0.950 . S
H377 C407 0.950 . S
C378 H360 0.951 . S
C378 C379 1.366 . S
C378 C380 1.388 . S
C379 C378 1.366 . S
C379 C383 1.385 . S
C380 H361 0.951 . S
C380 C378 1.388 . S
C380 C381 1.366 . S
C381 C380 1.366 . S
C381 C382 1.414 . S
C381 C384 1.499 . S
C382 H362 0.950 . S
C382 C381 1.414 . S
C382 C383 1.374 . S
C383 H363 0.950 . S
C383 C379 1.385 . S
C383 C382 1.374 . S
C384 C381 1.499 . S
C384 C385 1.373 . S
C384 C386 1.389 . S
C385 H364 0.950 . S
C385 C384 1.373 . S
C385 C401 1.377 . S
C386 C384 1.389 . S
C386 C387 1.524 . S
C386 C400 1.377 . S
C387 C386 1.524 . S
C387 C388 1.397 . S
C387 C392 1.363 . S
C388 H365 0.950 . S
C388 C387 1.397 . S
C388 C389 1.334 . S
C389 H366 0.950 . S
C389 C388 1.334 . S
C389 C390 1.287 . S
C390 C389 1.287 . S
C390 C391 1.524 . S
C390 H409 0.913 . S
C391 H367 0.950 . S
C391 C390 1.524 . S
C391 C392 1.415 . S
C392 H368 0.950 . S
C392 C387 1.363 . S
C392 C391 1.415 . S
C393 H369 0.951 . S
C393 C394 1.366 . S
C393 C395 1.388 . S
C394 C393 1.366 . S
C394 C398 1.385 . S
C395 H370 0.951 . S
C395 C393 1.388 . S
C395 C396 1.366 . S
C396 C395 1.366 . S
C396 C397 1.414 . S
C396 C399 1.499 . S
C397 H371 0.950 . S
C397 C396 1.414 . S
C397 C398 1.374 . S
C398 H372 0.950 . S
C398 C394 1.385 . S
C398 C397 1.374 . S
C399 C396 1.499 . S
C399 C400 1.373 . S
C399 C401 1.389 . S
C400 H373 0.950 . S
C400 C386 1.377 . S
C400 C399 1.373 . S
C401 C385 1.377 . S
C401 C399 1.389 . S
C401 C402 1.524 . S
C402 C401 1.524 . S
C402 C403 1.397 . S
C402 C407 1.363 . S
C403 H374 0.950 . S
C403 C402 1.397 . S
C403 C404 1.334 . S
C404 H375 0.950 . S
C404 C403 1.334 . S
C404 C405 1.287 . S
C405 C404 1.287 . S
C405 C406 1.524 . S
C405 H408 0.999 . S
C406 H376 0.950 . S
C406 C405 1.524 . S
C406 C407 1.415 . S
C407 H377 0.950 . S
C407 C402 1.363 . S
C407 C406 1.415 . S
H408 C405 0.999 . S
H409 C390 0.913 . S
H410 C428 0.951 . S
H411 C430 0.951 . S
H412 C432 0.950 . S
H413 C433 0.950 . S
H414 C435 0.950 . S
H415 C438 0.950 . S
H416 C439 0.950 . S
H417 C441 0.950 . S
H418 C442 0.950 . S
H419 C443 0.951 . S
H420 C445 0.951 . S
H421 C447 0.950 . S
H422 C448 0.950 . S
H423 C450 0.950 . S
H424 C453 0.950 . S
H425 C454 0.950 . S
H426 C456 0.950 . S
H427 C457 0.950 . S
C428 H410 0.951 . S
C428 C429 1.366 . S
C428 C430 1.388 . S
C429 C428 1.366 . S
C429 C433 1.385 . S
C430 H411 0.951 . S
C430 C428 1.388 . S
C430 C431 1.366 . S
C431 C430 1.366 . S
C431 C432 1.414 . S
C431 C434 1.499 . S
C432 H412 0.950 . S
C432 C431 1.414 . S
C432 C433 1.374 . S
C433 H413 0.950 . S
C433 C429 1.385 . S
C433 C432 1.374 . S
C434 C431 1.499 . S
C434 C435 1.373 . S
C434 C436 1.389 . S
C435 H414 0.950 . S
C435 C434 1.373 . S
C435 C451 1.377 . S
C436 C434 1.389 . S
C436 C437 1.524 . S
C436 C450 1.377 . S
C437 C436 1.524 . S
C437 C438 1.397 . S
C437 C442 1.363 . S
C438 H415 0.950 . S
C438 C437 1.397 . S
C438 C439 1.334 . S
C439 H416 0.950 . S
C439 C438 1.334 . S
C439 C440 1.287 . S
C440 C439 1.287 . S
C440 C441 1.524 . S
C440 H459 0.913 . S
C441 H417 0.950 . S
C441 C440 1.524 . S
C441 C442 1.415 . S
C442 H418 0.950 . S
C442 C437 1.363 . S
C442 C441 1.415 . S
C443 H419 0.951 . S
C443 C444 1.366 . S
C443 C445 1.388 . S
C444 C443 1.366 . S
C444 C448 1.385 . S
C445 H420 0.951 . S
C445 C443 1.388 . S
C445 C446 1.366 . S
C446 C445 1.366 . S
C446 C447 1.414 . S
C446 C449 1.499 . S
C447 H421 0.950 . S
C447 C446 1.414 . S
C447 C448 1.374 . S
C448 H422 0.950 . S
C448 C444 1.385 . S
C448 C447 1.374 . S
C449 C446 1.499 . S
C449 C450 1.373 . S
C449 C451 1.389 . S
C450 H423 0.950 . S
C450 C436 1.377 . S
C450 C449 1.373 . S
C451 C435 1.377 . S
C451 C449 1.389 . S
C451 C452 1.524 . S
C452 C451 1.524 . S
C452 C453 1.397 . S
C452 C457 1.363 . S
C453 H424 0.950 . S
C453 C452 1.397 . S
C453 C454 1.334 . S
C454 H425 0.950 . S
C454 C453 1.334 . S
C454 C455 1.287 . S
C455 C454 1.287 . S
C455 C456 1.524 . S
C455 H458 0.999 . S
C456 H426 0.950 . S
C456 C455 1.524 . S
C456 C457 1.415 . S
C457 H427 0.950 . S
C457 C452 1.363 . S
C457 C456 1.415 . S
H458 C455 0.999 . S
H459 C440 0.913 . S
H460 C478 0.951 . S
H461 C480 0.951 . S
H462 C482 0.950 . S
H463 C483 0.950 . S
H464 C485 0.950 . S
H465 C488 0.950 . S
H466 C489 0.950 . S
H467 C491 0.950 . S
H468 C492 0.950 . S
H469 C493 0.951 . S
H470 C495 0.951 . S
H471 C497 0.950 . S
H472 C498 0.950 . S
H473 C500 0.950 . S
H474 C503 0.950 . S
H475 C504 0.950 . S
H476 C506 0.950 . S
H477 C507 0.950 . S
C478 H460 0.951 . S
C478 C479 1.366 . S
C478 C480 1.388 . S
C479 C478 1.366 . S
C479 C483 1.385 . S
C480 H461 0.951 . S
C480 C478 1.388 . S
C480 C481 1.366 . S
C481 C480 1.366 . S
C481 C482 1.414 . S
C481 C484 1.499 . S
C482 H462 0.950 . S
C482 C481 1.414 . S
C482 C483 1.374 . S
C483 H463 0.950 . S
C483 C479 1.385 . S
C483 C482 1.374 . S
C484 C481 1.499 . S
C484 C485 1.373 . S
C484 C486 1.389 . S
C485 H464 0.950 . S
C485 C484 1.373 . S
C485 C501 1.377 . S
C486 C484 1.389 . S
C486 C487 1.524 . S
C486 C500 1.377 . S
C487 C486 1.524 . S
C487 C488 1.397 . S
C487 C492 1.363 . S
C488 H465 0.950 . S
C488 C487 1.397 . S
C488 C489 1.334 . S
C489 H466 0.950 . S
C489 C488 1.334 . S
C489 C490 1.287 . S
C490 C489 1.287 . S
C490 C491 1.524 . S
C490 H509 0.913 . S
C491 H467 0.950 . S
C491 C490 1.524 . S
C491 C492 1.415 . S
C492 H468 0.950 . S
C492 C487 1.363 . S
C492 C491 1.415 . S
C493 H469 0.951 . S
C493 C494 1.366 . S
C493 C495 1.388 . S
C494 C493 1.366 . S
C494 C498 1.385 . S
C495 H470 0.951 . S
C495 C493 1.388 . S
C495 C496 1.366 . S
C496 C495 1.366 . S
C496 C497 1.414 . S
C496 C499 1.499 . S
C497 H471 0.950 . S
C497 C496 1.414 . S
C497 C498 1.374 . S
C498 H472 0.950 . S
C498 C494 1.385 . S
C498 C497 1.374 . S
C499 C496 1.499 . S
C499 C500 1.373 . S
C499 C501 1.389 . S
C500 H473 0.950 . S
C500 C486 1.377 . S
C500 C499 1.373 . S
C501 C485 1.377 . S
C501 C499 1.389 . S
C501 C502 1.524 . S
C502 C501 1.524 . S
C502 C503 1.397 . S
C502 C507 1.363 . S
C503 H474 0.950 . S
C503 C502 1.397 . S
C503 C504 1.334 . S
C504 H475 0.950 . S
C504 C503 1.334 . S
C504 C505 1.287 . S
C505 C504 1.287 . S
C505 C506 1.524 . S
C505 H508 0.999 . S
C506 H476 0.950 . S
C506 C505 1.524 . S
C506 C507 1.415 . S
C507 H477 0.950 . S
C507 C502 1.363 . S
C507 C506 1.415 . S
H508 C505 0.999 . S
H509 C490 0.913 . S
H510 C528 0.951 . S
H511 C530 0.951 . S
H512 C532 0.950 . S
H513 C533 0.950 . S
H514 C535 0.950 . S
H515 C538 0.950 . S
H516 C539 0.950 . S
H517 C541 0.950 . S
H518 C542 0.950 . S
H519 C543 0.951 . S
H520 C545 0.951 . S
H521 C547 0.950 . S
H522 C548 0.950 . S
H523 C550 0.950 . S
H524 C553 0.950 . S
H525 C554 0.950 . S
H526 C556 0.950 . S
H527 C557 0.950 . S
C528 H510 0.951 . S
C528 C529 1.366 . S
C528 C530 1.388 . S
C529 C528 1.366 . S
C529 C533 1.385 . S
C530 H511 0.951 . S
C530 C528 1.388 . S
C530 C531 1.366 . S
C531 C530 1.366 . S
C531 C532 1.414 . S
C531 C534 1.499 . S
C532 H512 0.950 . S
C532 C531 1.414 . S
C532 C533 1.374 . S
C533 H513 0.950 . S
C533 C529 1.385 . S
C533 C532 1.374 . S
C534 C531 1.499 . S
C534 C535 1.373 . S
C534 C536 1.389 . S
C535 H514 0.950 . S
C535 C534 1.373 . S
C535 C551 1.377 . S
C536 C534 1.389 . S
C536 C537 1.524 . S
C536 C550 1.377 . S
C537 C536 1.524 . S
C537 C538 1.397 . S
C537 C542 1.363 . S
C538 H515 0.950 . S
C538 C537 1.397 . S
C538 C539 1.334 . S
C539 H516 0.950 . S
C539 C538 1.334 . S
C539 C540 1.287 . S
C540 C539 1.287 . S
C540 C541 1.524 . S
C540 H559 0.913 . S
C541 H517 0.950 . S
C541 C540 1.524 . S
C541 C542 1.415 . S
C542 H518 0.950 . S
C542 C537 1.363 . S
C542 C541 1.415 . S
C543 H519 0.951 . S
C543 C544 1.366 . S
C543 C545 1.388 . S
C544 C543 1.366 . S
C544 C548 1.385 . S
C545 H520 0.951 . S
C545 C543 1.388 . S
C545 C546 1.366 . S
C546 C545 1.366 . S
C546 C547 1.414 . S
C546 C549 1.499 . S
C547 H521 0.950 . S
C547 C546 1.414 . S
C547 C548 1.374 . S
C548 H522 0.950 . S
C548 C544 1.385 . S
C548 C547 1.374 . S
C549 C546 1.499 . S
C549 C550 1.373 . S
C549 C551 1.389 . S
C550 H523 0.950 . S
C550 C536 1.377 . S
C550 C549 1.373 . S
C551 C535 1.377 . S
C551 C549 1.389 . S
C551 C552 1.524 . S
C552 C551 1.524 . S
C552 C553 1.397 . S
C552 C557 1.363 . S
C553 H524 0.950 . S
C553 C552 1.397 . S
C553 C554 1.334 . S
C554 H525 0.950 . S
C554 C553 1.334 . S
C554 C555 1.287 . S
C555 C554 1.287 . S
C555 C556 1.524 . S
C555 H558 0.999 . S
C556 H526 0.950 . S
C556 C555 1.524 . S
C556 C557 1.415 . S
C557 H527 0.950 . S
C557 C552 1.363 . S
C557 C556 1.415 . S
H558 C555 0.999 . S
H559 C540 0.913 . S
H560 C578 0.951 . S
H561 C580 0.951 . S
H562 C582 0.950 . S
H563 C583 0.950 . S
H564 C585 0.950 . S
H565 C588 0.950 . S
H566 C589 0.950 . S
H567 C591 0.950 . S
H568 C592 0.950 . S
H569 C593 0.951 . S
H570 C595 0.951 . S
H571 C597 0.950 . S
H572 C598 0.950 . S
H573 C600 0.950 . S
H574 C603 0.950 . S
H575 C604 0.950 . S
H576 C606 0.950 . S
H577 C607 0.950 . S
C578 H560 0.951 . S
C578 C579 1.366 . S
C578 C580 1.388 . S
C579 C578 1.366 . S
C579 C583 1.385 . S
C580 H561 0.951 . S
C580 C578 1.388 . S
C580 C581 1.366 . S
C581 C580 1.366 . S
C581 C582 1.414 . S
C581 C584 1.499 . S
C582 H562 0.950 . S
C582 C581 1.414 . S
C582 C583 1.374 . S
C583 H563 0.950 . S
C583 C579 1.385 . S
C583 C582 1.374 . S
C584 C581 1.499 . S
C584 C585 1.373 . S
C584 C586 1.389 . S
C585 H564 0.950 . S
C585 C584 1.373 . S
C585 C601 1.377 . S
C586 C584 1.389 . S
C586 C587 1.524 . S
C586 C600 1.377 . S
C587 C586 1.524 . S
C587 C588 1.397 . S
C587 C592 1.363 . S
C588 H565 0.950 . S
C588 C587 1.397 . S
C588 C589 1.334 . S
C589 H566 0.950 . S
C589 C588 1.334 . S
C589 C590 1.287 . S
C590 C589 1.287 . S
C590 C591 1.524 . S
C590 H609 0.913 . S
C591 H567 0.950 . S
C591 C590 1.524 . S
C591 C592 1.415 . S
C592 H568 0.950 . S
C592 C587 1.363 . S
C592 C591 1.415 . S
C593 H569 0.951 . S
C593 C594 1.366 . S
C593 C595 1.388 . S
C594 C593 1.366 . S
C594 C598 1.385 . S
C595 H570 0.951 . S
C595 C593 1.388 . S
C595 C596 1.366 . S
C596 C595 1.366 . S
C596 C597 1.414 . S
C596 C599 1.499 . S
C597 H571 0.950 . S
C597 C596 1.414 . S
C597 C598 1.374 . S
C598 H572 0.950 . S
C598 C594 1.385 . S
C598 C597 1.374 . S
C599 C596 1.499 . S
C599 C600 1.373 . S
C599 C601 1.389 . S
C600 H573 0.950 . S
C600 C586 1.377 . S
C600 C599 1.373 . S
C601 C585 1.377 . S
C601 C599 1.389 . S
C601 C602 1.524 . S
C602 C601 1.524 . S
C602 C603 1.397 . S
C602 C607 1.363 . S
C603 H574 0.950 . S
C603 C602 1.397 . S
C603 C604 1.334 . S
C604 H575 0.950 . S
C604 C603 1.334 . S
C604 C605 1.287 . S
C605 C604 1.287 . S
C605 C606 1.524 . S
C605 H608 0.999 . S
C606 H576 0.950 . S
C606 C605 1.524 . S
C606 C607 1.415 . S
C607 H577 0.950 . S
C607 C602 1.363 . S
C607 C606 1.415 . S
H608 C605 0.999 . S
H609 C590 0.913 . S
H610 C628 0.951 . S
H611 C630 0.951 . S
H612 C632 0.950 . S
H613 C633 0.950 . S
H614 C635 0.950 . S
H615 C638 0.950 . S
H616 C639 0.950 . S
H617 C641 0.950 . S
H618 C642 0.950 . S
H619 C643 0.951 . S
H620 C645 0.951 . S
H621 C647 0.950 . S
H622 C648 0.950 . S
H623 C650 0.950 . S
H624 C653 0.950 . S
H625 C654 0.950 . S
H626 C656 0.950 . S
H627 C657 0.950 . S
C628 H610 0.951 . S
C628 C629 1.366 . S
C628 C630 1.388 . S
C629 C628 1.366 . S
C629 C633 1.385 . S
C630 H611 0.951 . S
C630 C628 1.388 . S
C630 C631 1.366 . S
C631 C630 1.366 . S
C631 C632 1.414 . S
C631 C634 1.499 . S
C632 H612 0.950 . S
C632 C631 1.414 . S
C632 C633 1.374 . S
C633 H613 0.950 . S
C633 C629 1.385 . S
C633 C632 1.374 . S
C634 C631 1.499 . S
C634 C635 1.373 . S
C634 C636 1.389 . S
C635 H614 0.950 . S
C635 C634 1.373 . S
C635 C651 1.377 . S
C636 C634 1.389 . S
C636 C637 1.524 . S
C636 C650 1.377 . S
C637 C636 1.524 . S
C637 C638 1.397 . S
C637 C642 1.363 . S
C638 H615 0.950 . S
C638 C637 1.397 . S
C638 C639 1.334 . S
C639 H616 0.950 . S
C639 C638 1.334 . S
C639 C640 1.287 . S
C640 C639 1.287 . S
C640 C641 1.524 . S
C640 H659 0.913 . S
C641 H617 0.950 . S
C641 C640 1.524 . S
C641 C642 1.415 . S
C642 H618 0.950 . S
C642 C637 1.363 . S
C642 C641 1.415 . S
C643 H619 0.951 . S
C643 C644 1.366 . S
C643 C645 1.388 . S
C644 C643 1.366 . S
C644 C648 1.385 . S
C645 H620 0.951 . S
C645 C643 1.388 . S
C645 C646 1.366 . S
C646 C645 1.366 . S
C646 C647 1.414 . S
C646 C649 1.499 . S
C647 H621 0.950 . S
C647 C646 1.414 . S
C647 C648 1.374 . S
C648 H622 0.950 . S
C648 C644 1.385 . S
C648 C647 1.374 . S
C649 C646 1.499 . S
C649 C650 1.373 . S
C649 C651 1.389 . S
C650 H623 0.950 . S
C650 C636 1.377 . S
C650 C649 1.373 . S
C651 C635 1.377 . S
C651 C649 1.389 . S
C651 C652 1.524 . S
C652 C651 1.524 . S
C652 C653 1.397 . S
C652 C657 1.363 . S
C653 H624 0.950 . S
C653 C652 1.397 . S
C653 C654 1.334 . S
C654 H625 0.950 . S
C654 C653 1.334 . S
C654 C655 1.287 . S
C655 C654 1.287 . S
C655 C656 1.524 . S
C655 H658 0.999 . S
C656 H626 0.950 . S
C656 C655 1.524 . S
C656 C657 1.415 . S
C657 H627 0.950 . S
C657 C652 1.363 . S
C657 C656 1.415 . S
H658 C655 0.999 . S
H659 C640 0.913 . S
H660 C678 0.951 . S
H661 C680 0.951 . S
H662 C682 0.950 . S
H663 C683 0.950 . S
H664 C685 0.950 . S
H665 C688 0.950 . S
H666 C689 0.950 . S
H667 C691 0.950 . S
H668 C692 0.950 . S
H669 C693 0.951 . S
H670 C695 0.951 . S
H671 C697 0.950 . S
H672 C698 0.950 . S
H673 C700 0.950 . S
H674 C703 0.950 . S
H675 C704 0.950 . S
H676 C706 0.950 . S
H677 C707 0.950 . S
C678 H660 0.951 . S
C678 C679 1.366 . S
C678 C680 1.388 . S
C679 C678 1.366 . S
C679 C683 1.385 . S
C680 H661 0.951 . S
C680 C678 1.388 . S
C680 C681 1.366 . S
C681 C680 1.366 . S
C681 C682 1.414 . S
C681 C684 1.499 . S
C682 H662 0.950 . S
C682 C681 1.414 . S
C682 C683 1.374 . S
C683 H663 0.950 . S
C683 C679 1.385 . S
C683 C682 1.374 . S
C684 C681 1.499 . S
C684 C685 1.373 . S
C684 C686 1.389 . S
C685 H664 0.950 . S
C685 C684 1.373 . S
C685 C701 1.377 . S
C686 C684 1.389 . S
C686 C687 1.524 . S
C686 C700 1.377 . S
C687 C686 1.524 . S
C687 C688 1.397 . S
C687 C692 1.363 . S
C688 H665 0.950 . S
C688 C687 1.397 . S
C688 C689 1.334 . S
C689 H666 0.950 . S
C689 C688 1.334 . S
C689 C690 1.287 . S
C690 C689 1.287 . S
C690 C691 1.524 . S
C690 H709 0.913 . S
C691 H667 0.950 . S
C691 C690 1.524 . S
C691 C692 1.415 . S
C692 H668 0.950 . S
C692 C687 1.363 . S
C692 C691 1.415 . S
C693 H669 0.951 . S
C693 C694 1.366 . S
C693 C695 1.388 . S
C694 C693 1.366 . S
C694 C698 1.385 . S
C695 H670 0.951 . S
C695 C693 1.388 . S
C695 C696 1.366 . S
C696 C695 1.366 . S
C696 C697 1.414 . S
C696 C699 1.499 . S
C697 H671 0.950 . S
C697 C696 1.414 . S
C697 C698 1.374 . S
C698 H672 0.950 . S
C698 C694 1.385 . S
C698 C697 1.374 . S
C699 C696 1.499 . S
C699 C700 1.373 . S
C699 C701 1.389 . S
C700 H673 0.950 . S
C700 C686 1.377 . S
C700 C699 1.373 . S
C701 C685 1.377 . S
C701 C699 1.389 . S
C701 C702 1.524 . S
C702 C701 1.524 . S
C702 C703 1.397 . S
C702 C707 1.363 . S
C703 H674 0.950 . S
C703 C702 1.397 . S
C703 C704 1.334 . S
C704 H675 0.950 . S
C704 C703 1.334 . S
C704 C705 1.287 . S
C705 C704 1.287 . S
C705 C706 1.524 . S
C705 H708 0.999 . S
C706 H676 0.950 . S
C706 C705 1.524 . S
C706 C707 1.415 . S
C707 H677 0.950 . S
C707 C702 1.363 . S
C707 C706 1.415 . S
H708 C705 0.999 . S
H709 C690 0.913 . S
H710 C728 0.951 . S
H711 C730 0.951 . S
H712 C732 0.950 . S
H713 C733 0.950 . S
H714 C735 0.950 . S
H715 C738 0.950 . S
H716 C739 0.950 . S
H717 C741 0.950 . S
H718 C742 0.950 . S
H719 C743 0.951 . S
H720 C745 0.951 . S
H721 C747 0.950 . S
H722 C748 0.950 . S
H723 C750 0.950 . S
H724 C753 0.950 . S
H725 C754 0.950 . S
H726 C756 0.950 . S
H727 C757 0.950 . S
C728 H710 0.951 . S
C728 C729 1.366 . S
C728 C730 1.388 . S
C729 C728 1.366 . S
C729 C733 1.385 . S
C730 H711 0.951 . S
C730 C728 1.388 . S
C730 C731 1.366 . S
C731 C730 1.366 . S
C731 C732 1.414 . S
C731 C734 1.499 . S
C732 H712 0.950 . S
C732 C731 1.414 . S
C732 C733 1.374 . S
C733 H713 0.950 . S
C733 C729 1.385 . S
C733 C732 1.374 . S
C734 C731 1.499 . S
C734 C735 1.373 . S
C734 C736 1.389 . S
C735 H714 0.950 . S
C735 C734 1.373 . S
C735 C751 1.377 . S
C736 C734 1.389 . S
C736 C737 1.524 . S
C736 C750 1.377 . S
C737 C736 1.524 . S
C737 C738 1.397 . S
C737 C742 1.363 . S
C738 H715 0.950 . S
C738 C737 1.397 . S
C738 C739 1.334 . S
C739 H716 0.950 . S
C739 C738 1.334 . S
C739 C740 1.287 . S
C740 C739 1.287 . S
C740 C741 1.524 . S
C740 H759 0.913 . S
C741 H717 0.950 . S
C741 C740 1.524 . S
C741 C742 1.415 . S
C742 H718 0.950 . S
C742 C737 1.363 . S
C742 C741 1.415 . S
C743 H719 0.951 . S
C743 C744 1.366 . S
C743 C745 1.388 . S
C744 C743 1.366 . S
C744 C748 1.385 . S
C745 H720 0.951 . S
C745 C743 1.388 . S
C745 C746 1.366 . S
C746 C745 1.366 . S
C746 C747 1.414 . S
C746 C749 1.499 . S
C747 H721 0.950 . S
C747 C746 1.414 . S
C747 C748 1.374 . S
C748 H722 0.950 . S
C748 C744 1.385 . S
C748 C747 1.374 . S
C749 C746 1.499 . S
C749 C750 1.373 . S
C749 C751 1.389 . S
C750 H723 0.950 . S
C750 C736 1.377 . S
C750 C749 1.373 . S
C751 C735 1.377 . S
C751 C749 1.389 . S
C751 C752 1.524 . S
C752 C751 1.524 . S
C752 C753 1.397 . S
C752 C757 1.363 . S
C753 H724 0.950 . S
C753 C752 1.397 . S
C753 C754 1.334 . S
C754 H725 0.950 . S
C754 C753 1.334 . S
C754 C755 1.287 . S
C755 C754 1.287 . S
C755 C756 1.524 . S
C755 H758 0.999 . S
C756 H726 0.950 . S
C756 C755 1.524 . S
C756 C757 1.415 . S
C757 H727 0.950 . S
C757 C752 1.363 . S
C757 C756 1.415 . S
H758 C755 0.999 . S
H759 C740 0.913 . S
H760 C778 0.951 . S
H761 C780 0.951 . S
H762 C782 0.950 . S
H763 C783 0.950 . S
H764 C785 0.950 . S
H765 C788 0.950 . S
H766 C789 0.950 . S
H767 C791 0.950 . S
H768 C792 0.950 . S
H769 C793 0.951 . S
H770 C795 0.951 . S
H771 C797 0.950 . S
H772 C798 0.950 . S
H773 C800 0.950 . S
H774 C803 0.950 . S
H775 C804 0.950 . S
H776 C806 0.950 . S
H777 C807 0.950 . S
C778 H760 0.951 . S
C778 C779 1.366 . S
C778 C780 1.388 . S
C779 C778 1.366 . S
C779 C783 1.385 . S
C780 H761 0.951 . S
C780 C778 1.388 . S
C780 C781 1.366 . S
C781 C780 1.366 . S
C781 C782 1.414 . S
C781 C784 1.499 . S
C782 H762 0.950 . S
C782 C781 1.414 . S
C782 C783 1.374 . S
C783 H763 0.950 . S
C783 C779 1.385 . S
C783 C782 1.374 . S
C784 C781 1.499 . S
C784 C785 1.373 . S
C784 C786 1.389 . S
C785 H764 0.950 . S
C785 C784 1.373 . S
C785 C801 1.377 . S
C786 C784 1.389 . S
C786 C787 1.524 . S
C786 C800 1.377 . S
C787 C786 1.524 . S
C787 C788 1.397 . S
C787 C792 1.363 . S
C788 H765 0.950 . S
C788 C787 1.397 . S
C788 C789 1.334 . S
C789 H766 0.950 . S
C789 C788 1.334 . S
C789 C790 1.287 . S
C790 C789 1.287 . S
C790 C791 1.524 . S
C790 H809 0.913 . S
C791 H767 0.950 . S
C791 C790 1.524 . S
C791 C792 1.415 . S
C792 H768 0.950 . S
C792 C787 1.363 . S
C792 C791 1.415 . S
C793 H769 0.951 . S
C793 C794 1.366 . S
C793 C795 1.388 . S
C794 C793 1.366 . S
C794 C798 1.385 . S
C795 H770 0.951 . S
C795 C793 1.388 . S
C795 C796 1.366 . S
C796 C795 1.366 . S
C796 C797 1.414 . S
C796 C799 1.499 . S
C797 H771 0.950 . S
C797 C796 1.414 . S
C797 C798 1.374 . S
C798 H772 0.950 . S
C798 C794 1.385 . S
C798 C797 1.374 . S
C799 C796 1.499 . S
C799 C800 1.373 . S
C799 C801 1.389 . S
C800 H773 0.950 . S
C800 C786 1.377 . S
C800 C799 1.373 . S
C801 C785 1.377 . S
C801 C799 1.389 . S
C801 C802 1.524 . S
C802 C801 1.524 . S
C802 C803 1.397 . S
C802 C807 1.363 . S
C803 H774 0.950 . S
C803 C802 1.397 . S
C803 C804 1.334 . S
C804 H775 0.950 . S
C804 C803 1.334 . S
C804 C805 1.287 . S
C805 C804 1.287 . S
C805 C806 1.524 . S
C805 H808 0.999 . S
C806 H776 0.950 . S
C806 C805 1.524 . S
C806 C807 1.415 . S
C807 H777 0.950 . S
C807 C802 1.363 . S
C807 C806 1.415 . S
H808 C805 0.999 . S
H809 C790 0.913 . S
H810 C828 0.951 . S
H811 C830 0.951 . S
H812 C832 0.950 . S
H813 C833 0.950 . S
H814 C835 0.950 . S
H815 C838 0.950 . S
H816 C839 0.950 . S
H817 C841 0.950 . S
H818 C842 0.950 . S
H819 C843 0.951 . S
H820 C845 0.951 . S
H821 C847 0.950 . S
H822 C848 0.950 . S
H823 C850 0.950 . S
H824 C853 0.950 . S
H825 C854 0.950 . S
H826 C856 0.950 . S
H827 C857 0.950 . S
C828 H810 0.951 . S
C828 C829 1.366 . S
C828 C830 1.388 . S
C829 C828 1.366 . S
C829 C833 1.385 . S
C830 H811 0.951 . S
C830 C828 1.388 . S
C830 C831 1.366 . S
C831 C830 1.366 . S
C831 C832 1.414 . S
C831 C834 1.499 . S
C832 H812 0.950 . S
C832 C831 1.414 . S
C832 C833 1.374 . S
C833 H813 0.950 . S
C833 C829 1.385 . S
C833 C832 1.374 . S
C834 C831 1.499 . S
C834 C835 1.373 . S
C834 C836 1.389 . S
C835 H814 0.950 . S
C835 C834 1.373 . S
C835 C851 1.377 . S
C836 C834 1.389 . S
C836 C837 1.524 . S
C836 C850 1.377 . S
C837 C836 1.524 . S
C837 C838 1.397 . S
C837 C842 1.363 . S
C838 H815 0.950 . S
C838 C837 1.397 . S
C838 C839 1.334 . S
C839 H816 0.950 . S
C839 C838 1.334 . S
C839 C840 1.287 . S
C840 C839 1.287 . S
C840 C841 1.524 . S
C840 H859 0.913 . S
C841 H817 0.950 . S
C841 C840 1.524 . S
C841 C842 1.415 . S
C842 H818 0.950 . S
C842 C837 1.363 . S
C842 C841 1.415 . S
C843 H819 0.951 . S
C843 C844 1.366 . S
C843 C845 1.388 . S
C844 C843 1.366 . S
C844 C848 1.385 . S
C845 H820 0.951 . S
C845 C843 1.388 . S
C845 C846 1.366 . S
C846 C845 1.366 . S
C846 C847 1.414 . S
C846 C849 1.499 . S
C847 H821 0.950 . S
C847 C846 1.414 . S
C847 C848 1.374 . S
C848 H822 0.950 . S
C848 C844 1.385 . S
C848 C847 1.374 . S
C849 C846 1.499 . S
C849 C850 1.373 . S
C849 C851 1.389 . S
C850 H823 0.950 . S
C850 C836 1.377 . S
C850 C849 1.373 . S
C851 C835 1.377 . S
C851 C849 1.389 . S
C851 C852 1.524 . S
C852 C851 1.524 . S
C852 C853 1.397 . S
C852 C857 1.363 . S
C853 H824 0.950 . S
C853 C852 1.397 . S
C853 C854 1.334 . S
C854 H825 0.950 . S
C854 C853 1.334 . S
C854 C855 1.287 . S
C855 C854 1.287 . S
C855 C856 1.524 . S
C855 H858 0.999 . S
C856 H826 0.950 . S
C856 C855 1.524 . S
C856 C857 1.415 . S
C857 H827 0.950 . S
C857 C852 1.363 . S
C857 C856 1.415 . S
H858 C855 0.999 . S
H859 C840 0.913 . S
H860 C878 0.951 . S
H861 C880 0.951 . S
H862 C882 0.950 . S
H863 C883 0.950 . S
H864 C885 0.950 . S
H865 C888 0.950 . S
H866 C889 0.950 . S
H867 C891 0.950 . S
H868 C892 0.950 . S
H869 C893 0.951 . S
H870 C895 0.951 . S
H871 C897 0.950 . S
H872 C898 0.950 . S
H873 C900 0.950 . S
H874 C903 0.950 . S
H875 C904 0.950 . S
H876 C906 0.950 . S
H877 C907 0.950 . S
C878 H860 0.951 . S
C878 C879 1.366 . S
C878 C880 1.388 . S
C879 C878 1.366 . S
C879 C883 1.385 . S
C880 H861 0.951 . S
C880 C878 1.388 . S
C880 C881 1.366 . S
C881 C880 1.366 . S
C881 C882 1.414 . S
C881 C884 1.499 . S
C882 H862 0.950 . S
C882 C881 1.414 . S
C882 C883 1.374 . S
C883 H863 0.950 . S
C883 C879 1.385 . S
C883 C882 1.374 . S
C884 C881 1.499 . S
C884 C885 1.373 . S
C884 C886 1.389 . S
C885 H864 0.950 . S
C885 C884 1.373 . S
C885 C901 1.377 . S
C886 C884 1.389 . S
C886 C887 1.524 . S
C886 C900 1.377 . S
C887 C886 1.524 . S
C887 C888 1.397 . S
C887 C892 1.363 . S
C888 H865 0.950 . S
C888 C887 1.397 . S
C888 C889 1.334 . S
C889 H866 0.950 . S
C889 C888 1.334 . S
C889 C890 1.287 . S
C890 C889 1.287 . S
C890 C891 1.524 . S
C890 H909 0.913 . S
C891 H867 0.950 . S
C891 C890 1.524 . S
C891 C892 1.415 . S
C892 H868 0.950 . S
C892 C887 1.363 . S
C892 C891 1.415 . S
C893 H869 0.951 . S
C893 C894 1.366 . S
C893 C895 1.388 . S
C894 C893 1.366 . S
C894 C898 1.385 . S
C895 H870 0.951 . S
C895 C893 1.388 . S
C895 C896 1.366 . S
C896 C895 1.366 . S
C896 C897 1.414 . S
C896 C899 1.499 . S
C897 H871 0.950 . S
C897 C896 1.414 . S
C897 C898 1.374 . S
C898 H872 0.950 . S
C898 C894 1.385 . S
C898 C897 1.374 . S
C899 C896 1.499 . S
C899 C900 1.373 . S
C899 C901 1.389 . S
C900 H873 0.950 . S
C900 C886 1.377 . S
C900 C899 1.373 . S
C901 C885 1.377 . S
C901 C899 1.389 . S
C901 C902 1.524 . S
C902 C901 1.524 . S
C902 C903 1.397 . S
C902 C907 1.363 . S
C903 H874 0.950 . S
C903 C902 1.397 . S
C903 C904 1.334 . S
C904 H875 0.950 . S
C904 C903 1.334 . S
C904 C905 1.287 . S
C905 C904 1.287 . S
C905 C906 1.524 . S
C905 H908 0.999 . S
C906 H876 0.950 . S
C906 C905 1.524 . S
C906 C907 1.415 . S
C907 H877 0.950 . S
C907 C902 1.363 . S
C907 C906 1.415 . S
H908 C905 0.999 . S
H909 C890 0.913 . S
H910 C928 0.951 . S
H911 C930 0.951 . S
H912 C932 0.950 . S
H913 C933 0.950 . S
H914 C935 0.950 . S
H915 C938 0.950 . S
H916 C939 0.950 . S
H917 C941 0.950 . S
H918 C942 0.950 . S
H919 C943 0.951 . S
H920 C945 0.951 . S
H921 C947 0.950 . S
H922 C948 0.950 . S
H923 C950 0.950 . S
H924 C953 0.950 . S
H925 C954 0.950 . S
H926 C956 0.950 . S
H927 C957 0.950 . S
C928 H910 0.951 . S
C928 C929 1.366 . S
C928 C930 1.388 . S
C929 C928 1.366 . S
C929 C933 1.385 . S
C930 H911 0.951 . S
C930 C928 1.388 . S
C930 C931 1.366 . S
C931 C930 1.366 . S
C931 C932 1.414 . S
C931 C934 1.499 . S
C932 H912 0.950 . S
C932 C931 1.414 . S
C932 C933 1.374 . S
C933 H913 0.950 . S
C933 C929 1.385 . S
C933 C932 1.374 . S
C934 C931 1.499 . S
C934 C935 1.373 . S
C934 C936 1.389 . S
C935 H914 0.950 . S
C935 C934 1.373 . S
C935 C951 1.377 . S
C936 C934 1.389 . S
C936 C937 1.524 . S
C936 C950 1.377 . S
C937 C936 1.524 . S
C937 C938 1.397 . S
C937 C942 1.363 . S
C938 H915 0.950 . S
C938 C937 1.397 . S
C938 C939 1.334 . S
C939 H916 0.950 . S
C939 C938 1.334 . S
C939 C940 1.287 . S
C940 C939 1.287 . S
C940 C941 1.524 . S
C940 H959 0.913 . S
C941 H917 0.950 . S
C941 C940 1.524 . S
C941 C942 1.415 . S
C942 H918 0.950 . S
C942 C937 1.363 . S
C942 C941 1.415 . S
C943 H919 0.951 . S
C943 C944 1.366 . S
C943 C945 1.388 . S
C944 C943 1.366 . S
C944 C948 1.385 . S
C945 H920 0.951 . S
C945 C943 1.388 . S
C945 C946 1.366 . S
C946 C945 1.366 . S
C946 C947 1.414 . S
C946 C949 1.499 . S
C947 H921 0.950 . S
C947 C946 1.414 . S
C947 C948 1.374 . S
C948 H922 0.950 . S
C948 C944 1.385 . S
C948 C947 1.374 . S
C949 C946 1.499 . S
C949 C950 1.373 . S
C949 C951 1.389 . S
C950 H923 0.950 . S
C950 C936 1.377 . S
C950 C949 1.373 . S
C951 C935 1.377 . S
C951 C949 1.389 . S
C951 C952 1.524 . S
C952 C951 1.524 . S
C952 C953 1.397 . S
C952 C957 1.363 . S
C953 H924 0.950 . S
C953 C952 1.397 . S
C953 C954 1.334 . S
C954 H925 0.950 . S
C954 C953 1.334 . S
C954 C955 1.287 . S
C955 C954 1.287 . S
C955 C956 1.524 . S
C955 H958 0.999 . S
C956 H926 0.950 . S
C956 C955 1.524 . S
C956 C957 1.415 . S
C957 H927 0.950 . S
C957 C952 1.363 . S
C957 C956 1.415 . S
H958 C955 0.999 . S
H959 C940 0.913 . S
H960 C978 0.951 . S
H961 C980 0.951 . S
H962 C982 0.950 . S
H963 C983 0.950 . S
H964 C985 0.950 . S
H965 C988 0.950 . S
H966 C989 0.950 . S
H967 C991 0.950 . S
H968 C992 0.950 . S
H969 C993 0.964 . S
H970 C995 0.951 . S
H971 C997 0.950 . S
H972 C998 0.950 . S
H973 C1000 0.950 . S
H974 C1003 0.950 . S
H975 C1004 0.950 . S
H976 C1006 0.950 . S
H977 C1007 0.950 . S
C978 H960 0.951 . S
C978 C979 1.366 . S
C978 C980 1.388 . S
C979 C978 1.366 . S
C979 C983 1.385 . S
C980 H961 0.951 . S
C980 C978 1.388 . S
C980 C981 1.366 . S
C981 C980 1.366 . S
C981 C982 1.414 . S
C981 C984 1.499 . S
C982 H962 0.950 . S
C982 C981 1.414 . S
C982 C983 1.374 . S
C983 H963 0.950 . S
C983 C979 1.385 . S
C983 C982 1.374 . S
C984 C981 1.499 . S
C984 C985 1.373 . S
C984 C986 1.389 1_455 S
C985 H964 0.950 . S
C985 C984 1.373 . S
C985 C1001 1.377 . S
C986 C984 1.389 1_655 S
C986 C987 1.524 . S
C986 C1000 1.377 . S
C987 C986 1.524 . S
C987 C988 1.397 . S
C987 C992 1.363 . S
C988 H965 0.950 . S
C988 C987 1.397 . S
C988 C989 1.334 . S
C989 H966 0.950 . S
C989 C988 1.334 . S
C989 C990 1.287 . S
C990 C989 1.287 . S
C990 C991 1.524 . S
C990 H1009 0.913 . S
C991 H967 0.950 . S
C991 C990 1.524 . S
C991 C992 1.415 . S
C992 H968 0.950 . S
C992 C987 1.363 . S
C992 C991 1.415 . S
C993 H969 0.964 . S
C993 C994 1.387 . S
C993 C995 1.355 1_556 S
C994 C993 1.387 . S
C994 C998 1.385 . S
C995 H970 0.951 . S
C995 C993 1.355 1_554 S
C995 C996 1.366 . S
C996 C995 1.366 . S
C996 C997 1.414 . S
C996 C999 1.499 . S
C997 H971 0.950 . S
C997 C996 1.414 . S
C997 C998 1.374 1_554 S
C998 H972 0.950 . S
C998 C994 1.385 . S
C998 C997 1.374 1_556 S
C999 C996 1.499 . S
C999 C1000 1.373 1_455 S
C999 C1001 1.389 . S
C1000 H973 0.950 . S
C1000 C986 1.377 . S
C1000 C999 1.373 1_655 S
C1001 C985 1.377 . S
C1001 C999 1.389 . S
C1001 C1002 1.524 . S
C1002 C1001 1.524 . S
C1002 C1003 1.397 . S
C1002 C1007 1.363 . S
C1003 H974 0.950 . S
C1003 C1002 1.397 . S
C1003 C1004 1.334 . S
C1004 H975 0.950 . S
C1004 C1003 1.334 . S
C1004 C1005 1.287 . S
C1005 C1004 1.287 . S
C1005 C1006 1.524 . S
C1005 H1008 0.999 . S
C1006 H976 0.950 . S
C1006 C1005 1.524 . S
C1006 C1007 1.415 . S
C1007 H977 0.950 . S
C1007 C1002 1.363 . S
C1007 C1006 1.415 . S
H1008 C1005 0.999 . S
H1009 C990 0.913 . S
H1010 C1028 0.951 . S
H1011 C1030 0.951 . S
H1012 C1032 0.950 1_565 S
H1013 C1033 0.950 1_565 S
H1014 C1035 0.950 . S
H1015 C1038 0.950 . S
H1016 C1039 0.950 . S
H1017 C1041 0.950 . S
H1018 C1042 0.950 . S
H1019 C1043 0.951 . S
H1020 C1045 0.964 . S
H1021 C1047 0.950 . S
H1022 C1048 0.950 . S
H1023 C1050 0.950 . S
H1024 C1053 0.950 . S
H1025 C1054 0.950 . S
H1026 C1056 0.950 1_565 S
H1027 C1057 0.950 1_565 S
C1028 H1010 0.951 . S
C1028 C1029 1.366 . S
C1028 C1030 1.388 . S
C1029 C1028 1.366 . S
C1029 C1033 1.385 . S
C1030 H1011 0.951 . S
C1030 C1028 1.388 . S
C1030 C1031 1.366 . S
C1031 C1030 1.366 . S
C1031 C1032 1.414 . S
C1031 C1034 1.499 . S
C1032 H1012 0.950 1_545 S
C1032 C1031 1.414 . S
C1032 C1033 1.374 . S
C1033 H1013 0.950 1_545 S
C1033 C1029 1.385 . S
C1033 C1032 1.374 . S
C1034 C1031 1.499 . S
C1034 C1035 1.373 . S
C1034 C1036 1.389 . S
C1035 H1014 0.950 . S
C1035 C1034 1.373 . S
C1035 C1051 1.377 . S
C1036 C1034 1.389 . S
C1036 C1037 1.524 . S
C1036 C1050 1.377 . S
C1037 C1036 1.524 . S
C1037 C1038 1.397 . S
C1037 C1042 1.363 . S
C1038 H1015 0.950 . S
C1038 C1037 1.397 . S
C1038 C1039 1.334 . S
C1039 H1016 0.950 . S
C1039 C1038 1.334 . S
C1039 C1040 1.287 . S
C1040 C1039 1.287 . S
C1040 C1041 1.524 . S
C1040 H1059 0.913 . S
C1041 H1017 0.950 . S
C1041 C1040 1.524 . S
C1041 C1042 1.415 . S
C1042 H1018 0.950 . S
C1042 C1037 1.363 . S
C1042 C1041 1.415 . S
C1043 H1019 0.951 . S
C1043 C1044 1.366 . S
C1043 C1045 1.388 . S
C1044 C1043 1.366 . S
C1044 C1048 1.385 . S
C1045 H1020 0.964 . S
C1045 C1043 1.388 . S
C1045 C1046 1.366 . S
C1046 C1045 1.366 . S
C1046 C1047 1.414 . S
C1046 C1049 1.499 . S
C1047 H1021 0.950 . S
C1047 C1046 1.414 . S
C1047 C1048 1.374 . S
C1048 H1022 0.950 . S
C1048 C1044 1.385 . S
C1048 C1047 1.374 . S
C1049 C1046 1.499 . S
C1049 C1050 1.373 . S
C1049 C1051 1.389 . S
C1050 H1023 0.950 . S
C1050 C1036 1.377 . S
C1050 C1049 1.373 . S
C1051 C1035 1.377 . S
C1051 C1049 1.389 . S
C1051 C1052 1.524 . S
C1052 C1051 1.524 . S
C1052 C1053 1.397 . S
C1052 C1057 1.363 . S
C1053 H1024 0.950 . S
C1053 C1052 1.397 . S
C1053 C1054 1.334 . S
C1054 H1025 0.950 . S
C1054 C1053 1.334 . S
C1054 C1055 1.287 . S
C1055 C1054 1.287 . S
C1055 C1056 1.524 . S
C1055 H1058 0.999 . S
C1056 H1026 0.950 1_545 S
C1056 C1055 1.524 . S
C1056 C1057 1.415 . S
C1057 H1027 0.950 1_545 S
C1057 C1052 1.363 . S
C1057 C1056 1.415 . S
H1058 C1055 0.999 . S
H1059 C1040 0.913 . S
H1060 C1078 0.951 . S
H1061 C1080 0.951 . S
H1062 C1082 0.950 . S
H1063 C1083 0.950 . S
H1064 C1085 0.950 . S
H1065 C1088 0.950 . S
H1066 C1089 0.950 . S
H1067 C1091 0.950 . S
H1068 C1092 0.950 . S
H1069 C1093 0.951 . S
H1070 C1095 0.951 . S
H1071 C1097 0.950 . S
H1072 C1098 0.950 . S
H1073 C1100 0.950 . S
H1074 C1103 0.950 . S
H1075 C1104 0.950 . S
H1076 C1106 0.950 . S
H1077 C1107 0.950 . S
C1078 H1060 0.951 . S
C1078 C1079 1.366 . S
C1078 C1080 1.388 . S
C1079 C1078 1.366 . S
C1079 C1083 1.385 . S
C1080 H1061 0.951 . S
C1080 C1078 1.388 . S
C1080 C1081 1.366 . S
C1081 C1080 1.366 . S
C1081 C1082 1.414 . S
C1081 C1084 1.499 . S
C1082 H1062 0.950 . S
C1082 C1081 1.414 . S
C1082 C1083 1.374 . S
C1083 H1063 0.950 . S
C1083 C1079 1.385 . S
C1083 C1082 1.374 . S
C1084 C1081 1.499 . S
C1084 C1085 1.373 . S
C1084 C1086 1.389 . S
C1085 H1064 0.950 . S
C1085 C1084 1.373 . S
C1085 C1101 1.377 . S
C1086 C1084 1.389 . S
C1086 C1087 1.524 . S
C1086 C1100 1.377 . S
C1087 C1086 1.524 . S
C1087 C1088 1.397 . S
C1087 C1092 1.363 . S
C1088 H1065 0.950 . S
C1088 C1087 1.397 . S
C1088 C1089 1.334 . S
C1089 H1066 0.950 . S
C1089 C1088 1.334 . S
C1089 C1090 1.287 . S
C1090 C1089 1.287 . S
C1090 C1091 1.524 . S
C1090 H1109 0.913 . S
C1091 H1067 0.950 . S
C1091 C1090 1.524 . S
C1091 C1092 1.415 . S
C1092 H1068 0.950 . S
C1092 C1087 1.363 . S
C1092 C1091 1.415 . S
C1093 H1069 0.951 . S
C1093 C1094 1.366 . S
C1093 C1095 1.388 . S
C1094 C1093 1.366 . S
C1094 C1098 1.385 . S
C1095 H1070 0.951 . S
C1095 C1093 1.388 . S
C1095 C1096 1.366 . S
C1096 C1095 1.366 . S
C1096 C1097 1.414 . S
C1096 C1099 1.499 . S
C1097 H1071 0.950 . S
C1097 C1096 1.414 . S
C1097 C1098 1.374 . S
C1098 H1072 0.950 . S
C1098 C1094 1.385 . S
C1098 C1097 1.374 . S
C1099 C1096 1.499 . S
C1099 C1100 1.373 . S
C1099 C1101 1.389 . S
C1100 H1073 0.950 . S
C1100 C1086 1.377 . S
C1100 C1099 1.373 . S
C1101 C1085 1.377 . S
C1101 C1099 1.389 . S
C1101 C1102 1.524 . S
C1102 C1101 1.524 . S
C1102 C1103 1.397 . S
C1102 C1107 1.363 . S
C1103 H1074 0.950 . S
C1103 C1102 1.397 . S
C1103 C1104 1.334 . S
C1104 H1075 0.950 . S
C1104 C1103 1.334 . S
C1104 C1105 1.287 . S
C1105 C1104 1.287 . S
C1105 C1106 1.524 . S
C1105 H1108 0.999 . S
C1106 H1076 0.950 . S
C1106 C1105 1.524 . S
C1106 C1107 1.415 . S
C1107 H1077 0.950 . S
C1107 C1102 1.363 . S
C1107 C1106 1.415 . S
H1108 C1105 0.999 . S
H1109 C1090 0.913 . S
H1110 C1128 0.951 . S
H1111 C1130 0.951 . S
H1112 C1132 0.950 . S
H1113 C1133 0.950 . S
H1114 C1135 0.950 . S
H1115 C1138 0.950 1_565 S
H1116 C1139 0.950 1_565 S
H1117 C1141 0.950 . S
H1118 C1142 0.950 . S
H1119 C1143 0.951 . S
H1120 C1145 0.951 . S
H1121 C1147 0.950 . S
H1122 C1148 0.950 . S
H1123 C1150 0.950 . S
H1124 C1153 0.950 . S
H1125 C1154 0.950 . S
H1126 C1156 0.950 . S
H1127 C1157 0.950 . S
C1128 H1110 0.951 . S
C1128 C1129 1.366 . S
C1128 C1130 1.388 . S
C1129 C1128 1.366 . S
C1129 C1133 1.385 1_545 S
C1130 H1111 0.951 . S
C1130 C1128 1.388 . S
C1130 C1131 1.366 . S
C1131 C1130 1.366 . S
C1131 C1132 1.414 1_545 S
C1131 C1134 1.499 . S
C1132 H1112 0.950 . S
C1132 C1131 1.414 1_565 S
C1132 C1133 1.374 . S
C1133 H1113 0.950 . S
C1133 C1129 1.385 1_565 S
C1133 C1132 1.374 . S
C1134 C1131 1.499 . S
C1134 C1135 1.373 . S
C1134 C1136 1.389 . S
C1135 H1114 0.950 . S
C1135 C1134 1.373 . S
C1135 C1151 1.377 . S
C1136 C1134 1.389 . S
C1136 C1137 1.524 . S
C1136 C1150 1.377 . S
C1137 C1136 1.524 . S
C1137 C1138 1.397 . S
C1137 C1142 1.363 . S
C1138 H1115 0.950 1_545 S
C1138 C1137 1.397 . S
C1138 C1139 1.334 . S
C1139 H1116 0.950 1_545 S
C1139 C1138 1.334 . S
C1139 C1140 1.287 . S
C1140 C1139 1.287 . S
C1140 C1141 1.524 . S
C1140 H1159 0.913 . S
C1141 H1117 0.950 . S
C1141 C1140 1.524 . S
C1141 C1142 1.415 . S
C1142 H1118 0.950 . S
C1142 C1137 1.363 . S
C1142 C1141 1.415 . S
C1143 H1119 0.951 . S
C1143 C1144 1.366 1_565 S
C1143 C1145 1.388 . S
C1144 C1143 1.366 1_545 S
C1144 C1148 1.385 . S
C1145 H1120 0.951 . S
C1145 C1143 1.388 . S
C1145 C1146 1.366 1_565 S
C1146 C1145 1.366 1_545 S
C1146 C1147 1.414 . S
C1146 C1149 1.499 . S
C1147 H1121 0.950 . S
C1147 C1146 1.414 . S
C1147 C1148 1.374 . S
C1148 H1122 0.950 . S
C1148 C1144 1.385 . S
C1148 C1147 1.374 . S
C1149 C1146 1.499 . S
C1149 C1150 1.373 . S
C1149 C1151 1.389 . S
C1150 H1123 0.950 . S
C1150 C1136 1.377 . S
C1150 C1149 1.373 . S
C1151 C1135 1.377 . S
C1151 C1149 1.389 . S
C1151 C1152 1.524 . S
C1152 C1151 1.524 . S
C1152 C1153 1.397 . S
C1152 C1157 1.363 1_545 S
C1153 H1124 0.950 . S
C1153 C1152 1.397 . S
C1153 C1154 1.334 . S
C1154 H1125 0.950 . S
C1154 C1153 1.334 . S
C1154 C1155 1.287 . S
C1155 C1154 1.287 . S
C1155 C1156 1.524 1_545 S
C1155 H1158 0.999 . S
C1156 H1126 0.950 . S
C1156 C1155 1.524 1_565 S
C1156 C1157 1.415 . S
C1157 H1127 0.950 . S
C1157 C1152 1.363 1_565 S
C1157 C1156 1.415 . S
H1158 C1155 0.999 . S
H1159 C1140 0.913 . S
H1160 C1178 0.951 . S
H1161 C1180 0.951 . S
H1162 C1182 0.950 . S
H1163 C1183 0.950 . S
H1164 C1185 0.950 . S
H1165 C1188 0.950 . S
H1166 C1189 0.950 . S
H1167 C1191 0.950 . S
H1168 C1192 0.950 . S
H1169 C1193 0.956 . S
H1170 C1195 0.951 . S
H1171 C1197 0.950 . S
H1172 C1198 0.952 1_554 S
H1173 C1200 0.950 . S
H1174 C1203 0.950 . S
H1175 C1204 0.950 . S
H1176 C1206 0.950 . S
H1177 C1207 0.950 . S
C1178 H1160 0.951 . S
C1178 C1179 1.366 . S
C1178 C1180 1.388 . S
C1179 C1178 1.366 . S
C1179 C1183 1.385 . S
C1180 H1161 0.951 . S
C1180 C1178 1.388 . S
C1180 C1181 1.366 . S
C1181 C1180 1.366 . S
C1181 C1182 1.414 . S
C1181 C1184 1.499 . S
C1182 H1162 0.950 . S
C1182 C1181 1.414 . S
C1182 C1183 1.374 . S
C1183 H1163 0.950 . S
C1183 C1179 1.385 . S
C1183 C1182 1.374 . S
C1184 C1181 1.499 . S
C1184 C1185 1.373 . S
C1184 C1186 1.389 . S
C1185 H1164 0.950 . S
C1185 C1184 1.373 . S
C1185 C1201 1.377 . S
C1186 C1184 1.389 . S
C1186 C1187 1.524 . S
C1186 C1200 1.377 . S
C1187 C1186 1.524 . S
C1187 C1188 1.397 . S
C1187 C1192 1.363 . S
C1188 H1165 0.950 . S
C1188 C1187 1.397 . S
C1188 C1189 1.334 . S
C1189 H1166 0.950 . S
C1189 C1188 1.334 . S
C1189 C1190 1.287 . S
C1190 C1189 1.287 . S
C1190 C1191 1.524 . S
C1190 H1209 0.913 . S
C1191 H1167 0.950 . S
C1191 C1190 1.524 . S
C1191 C1192 1.415 . S
C1192 H1168 0.950 . S
C1192 C1187 1.363 . S
C1192 C1191 1.415 . S
C1193 H1169 0.956 . S
C1193 C1194 1.371 . S
C1193 C1195 1.378 1_554 S
C1194 C1193 1.371 . S
C1194 C1198 1.386 1_554 S
C1195 H1170 0.951 . S
C1195 C1193 1.378 1_556 S
C1195 C1196 1.366 . S
C1196 C1195 1.366 . S
C1196 C1197 1.414 . S
C1196 C1199 1.499 . S
C1197 H1171 0.950 . S
C1197 C1196 1.414 . S
C1197 C1198 1.370 . S
C1198 H1172 0.952 1_556 S
C1198 C1194 1.386 1_556 S
C1198 C1197 1.370 . S
C1199 C1196 1.499 . S
C1199 C1200 1.373 . S
C1199 C1201 1.389 . S
C1200 H1173 0.950 . S
C1200 C1186 1.377 . S
C1200 C1199 1.373 . S
C1201 C1185 1.377 . S
C1201 C1199 1.389 . S
C1201 C1202 1.524 . S
C1202 C1201 1.524 . S
C1202 C1203 1.397 . S
C1202 C1207 1.363 . S
C1203 H1174 0.950 . S
C1203 C1202 1.397 . S
C1203 C1204 1.334 . S
C1204 H1175 0.950 . S
C1204 C1203 1.334 . S
C1204 C1205 1.287 . S
C1205 C1204 1.287 . S
C1205 C1206 1.524 . S
C1205 H1208 0.999 . S
C1206 H1176 0.950 . S
C1206 C1205 1.524 . S
C1206 C1207 1.415 . S
C1207 H1177 0.950 . S
C1207 C1202 1.363 . S
C1207 C1206 1.415 . S
H1208 C1205 0.999 . S
H1209 C1190 0.913 . S
H1210 C1228 0.951 . S
H1211 C1230 0.951 . S
H1212 C1232 0.950 1_655 S
H1213 C1233 0.950 1_655 S
H1214 C1235 0.950 1_655 S
H1215 C1238 0.950 . S
H1216 C1239 0.950 . S
H1217 C1241 0.950 . S
H1218 C1242 0.950 . S
H1219 C1243 0.951 1_655 S
H1220 C1245 0.951 1_655 S
H1221 C1247 0.950 . S
H1222 C1248 0.950 . S
H1223 C1250 0.950 . S
H1224 C1253 0.950 . S
H1225 C1254 0.950 . S
H1226 C1256 0.950 . S
H1227 C1257 0.950 . S
C1228 H1210 0.951 . S
C1228 C1229 1.366 . S
C1228 C1230 1.388 . S
C1229 C1228 1.366 . S
C1229 C1233 1.385 . S
C1230 H1211 0.951 . S
C1230 C1228 1.388 . S
C1230 C1231 1.366 . S
C1231 C1230 1.366 . S
C1231 C1232 1.414 . S
C1231 C1234 1.499 . S
C1232 H1212 0.950 1_455 S
C1232 C1231 1.414 . S
C1232 C1233 1.374 . S
C1233 H1213 0.950 1_455 S
C1233 C1229 1.385 . S
C1233 C1232 1.374 . S
C1234 C1231 1.499 . S
C1234 C1235 1.373 . S
C1234 C1236 1.389 . S
C1235 H1214 0.950 1_455 S
C1235 C1234 1.373 . S
C1235 C1251 1.377 . S
C1236 C1234 1.389 . S
C1236 C1237 1.524 . S
C1236 C1250 1.377 . S
C1237 C1236 1.524 . S
C1237 C1238 1.397 . S
C1237 C1242 1.363 . S
C1238 H1215 0.950 . S
C1238 C1237 1.397 . S
C1238 C1239 1.334 . S
C1239 H1216 0.950 . S
C1239 C1238 1.334 . S
C1239 C1240 1.287 . S
C1240 C1239 1.287 . S
C1240 C1241 1.524 . S
C1240 H1259 0.913 . S
C1241 H1217 0.950 . S
C1241 C1240 1.524 . S
C1241 C1242 1.415 . S
C1242 H1218 0.950 . S
C1242 C1237 1.363 . S
C1242 C1241 1.415 . S
C1243 H1219 0.951 1_455 S
C1243 C1244 1.366 . S
C1243 C1245 1.388 . S
C1244 C1243 1.366 . S
C1244 C1248 1.385 . S
C1245 H1220 0.951 1_455 S
C1245 C1243 1.388 . S
C1245 C1246 1.366 . S
C1246 C1245 1.366 . S
C1246 C1247 1.414 . S
C1246 C1249 1.499 . S
C1247 H1221 0.950 . S
C1247 C1246 1.414 . S
C1247 C1248 1.374 . S
C1248 H1222 0.950 . S
C1248 C1244 1.385 . S
C1248 C1247 1.374 . S
C1249 C1246 1.499 . S
C1249 C1250 1.373 . S
C1249 C1251 1.389 . S
C1250 H1223 0.950 . S
C1250 C1236 1.377 . S
C1250 C1249 1.373 . S
C1251 C1235 1.377 . S
C1251 C1249 1.389 . S
C1251 C1252 1.524 1_455 S
C1252 C1251 1.524 1_655 S
C1252 C1253 1.397 1_655 S
C1252 C1257 1.363 . S
C1253 H1224 0.950 . S
C1253 C1252 1.397 1_455 S
C1253 C1254 1.334 1_455 S
C1254 H1225 0.950 . S
C1254 C1253 1.334 1_655 S
C1254 C1255 1.287 . S
C1255 C1254 1.287 . S
C1255 C1256 1.524 . S
C1255 H1258 0.999 . S
C1256 H1226 0.950 . S
C1256 C1255 1.524 . S
C1256 C1257 1.415 . S
C1257 H1227 0.950 . S
C1257 C1252 1.363 . S
C1257 C1256 1.415 . S
H1258 C1255 0.999 . S
H1259 C1240 0.913 . S
C379 C10 3.006 . S
C394 C335 2.973 . S
C429 C59 3.080 . S
C444 C242 3.048 . S
C479 C90 2.988 . S
C494 C282 2.968 . S
C529 C19 3.082 . S
C544 C322 3.050 . S
C594 C255 2.977 . S
C579 C50 3.009 . S
C644 C295 3.052 . S
C629 C99 3.101 . S
C679 C46 0.337 . S
C694 C162 0.376 . S
C729 C95 0.267 . S
C744 C202 0.233 . S
C779 C6 0.362 . S
C794 C135 0.377 . S
C844 C175 0.273 . S
C829 C55 0.283 . S
C894 C215 0.384 . S
C879 C86 0.371 . S
C929 C15 0.270 . S
C944 C122 0.238 . S
C994 C221 1.117 . S
C979 C9 1.095 . S
C1029 C49 1.097 . S
C1044 C141 1.118 . S
C1079 C89 1.092 . S
C1094 C181 1.106 . S
C1144 C301 1.762 . S
C1129 C58 1.694 . S
C1194 C341 1.757 . S
C1179 C98 1.693 . S
C1229 C18 1.694 . S
C1244 C261 1.760 . S
