# Generated by pormake.
# Topology nia, (6,6)-cn, num edge types: 1
# Building blocks:
#     Node 0, Type 0, BuildingBlock: KUMBUR_clean_sbu_0, # of connection points: 6
#     Node 1, Type 0, BuildingBlock: KUMBUR_clean_sbu_0, # of connection points: 6
#     Node 2, Type 1, BuildingBlock: MIDCAF_clean_sbu_0, # of connection points: 6
#     Node 3, Type 1, BuildingBlock: MIDCAF_clean_sbu_0, # of connection points: 6
#     Edge 4, Type (0, 1), BuildingBlock: FUNLAD_clean_linker_0, # of connection points: 2
#     Edge 5, Type (0, 1), BuildingBlock: FUNLAD_clean_linker_0, # of connection points: 2
#     Edge 6, Type (0, 1), BuildingBlock: FUNLAD_clean_linker_0, # of connection points: 2
#     Edge 7, Type (0, 1), BuildingBlock: FUNLAD_clean_linker_0, # of connection points: 2
#     Edge 8, Type (0, 1), BuildingBlock: FUNLAD_clean_linker_0, # of connection points: 2
#     Edge 9, Type (0, 1), BuildingBlock: FUNLAD_clean_linker_0, # of connection points: 2
#     Edge 10, Type (0, 1), BuildingBlock: FUNLAD_clean_linker_0, # of connection points: 2
#     Edge 11, Type (0, 1), BuildingBlock: FUNLAD_clean_linker_0, # of connection points: 2
#     Edge 12, Type (0, 1), BuildingBlock: FUNLAD_clean_linker_0, # of connection points: 2
#     Edge 13, Type (0, 1), BuildingBlock: FUNLAD_clean_linker_0, # of connection points: 2
#     Edge 14, Type (0, 1), BuildingBlock: FUNLAD_clean_linker_0, # of connection points: 2
#     Edge 15, Type (0, 1), BuildingBlock: FUNLAD_clean_linker_0, # of connection points: 2
# Relax obj value: 0.167
# Max RMSD: 0.281
# Mean RMSD: 0.203
data_MOF--net-nia--node1-KUMBUR_clean_sbu_0--node2-MIDCAF_clean_sbu_0--edge1-FUNLAD_clean_linker_0
_symmetry_space_group_name_H-M    P1
_symmetry_Int_Tables_number       1
_symmetry_cell_setting            triclinic
loop_
_symmetry_equiv_pos_as_xyz
'x, y, z'
_cell_length_a     32.177989
_cell_length_b     31.907517
_cell_length_c     37.689978
_cell_angle_alpha  90.214251
_cell_angle_beta   89.743871
_cell_angle_gamma 138.19112
loop_
_atom_site_label
_atom_site_type_symbol
_atom_site_fract_x
_atom_site_fract_y
_atom_site_fract_z
_atom_type_partial_charge
Tb0 Tb 0.00439 0.97271 0.04232 0.0
C1 C 0.02286 0.02641 0.88423 0.0
C2 C 0.13351 0.11217 0.87208 0.0
C3 C 0.06159 0.03726 0.82551 0.0
C4 C 0.0829 0.07829 0.8958 0.0
C5 C 0.0112 0.00594 0.84877 0.0
C6 C 0.1227 0.09037 0.83716 0.0
C7 C 0.90098 0.92944 0.86107 0.0
N8 N 0.97557 -0.00192 0.90737 0.0
C9 C 0.91501 0.9519 0.89591 0.0
C10 C 0.94927 0.95603 0.8375 0.0
Tb11 Tb 0.00306 0.03843 0.96373 0.0
N12 N 0.09124 0.09812 0.92962 0.0
C13 C 0.14889 0.15453 0.94054 0.0
C14 C 0.19303 0.16818 0.88376 0.0
C15 C 0.20052 0.19003 0.91792 0.0
H16 H 0.8775 0.93112 0.91408 0.0
H17 H 0.24616 0.23399 0.92699 0.0
H18 H 0.16105 0.1153 0.81868 0.0
H19 H 0.85297 0.89176 0.85241 0.0
H20 H 0.15581 0.17215 0.96687 0.0
H21 H 0.76586 0.77691 0.08684 0.0
H22 H 0.23313 0.19567 0.86636 0.0
H23 H 0.13507 0.08554 0.08735 0.0
H24 H 0.85154 0.83888 0.04357 0.0
H25 H 0.1659 0.1264 0.14866 0.0
H26 H 0.0537 0.02196 0.79822 0.0
H27 H 0.78547 0.81535 0.14834 0.0
H28 H 0.86241 0.89656 0.19456 0.0
H29 H 0.93832 0.93885 0.81047 0.0
H30 H 0.97147 0.99182 0.21147 0.0
N31 N 0.91996 0.91354 0.07963 0.0
C32 C 0.86132 0.8568 0.07017 0.0
C33 C 0.82354 0.84301 0.12941 0.0
C34 C 0.88409 0.8995 0.13945 0.0
C35 C 0.81233 0.82114 0.09474 0.0
C36 C 0.93193 0.93363 0.11374 0.0
H37 H 0.08512 0.07741 0.19463 0.0
N38 N 0.03763 0.01542 0.09813 0.0
C39 C 0.11705 0.08717 0.14187 0.0
C40 C 0.99297 0.98648 0.12334 0.0
C41 C 0.09939 0.06381 0.10716 0.0
C42 C 0.07133 0.05949 0.16772 0.0
C43 C 0.00838 0.00784 0.15875 0.0
O44 O 0.06063 0.96378 0.05716 0.0
O45 O 0.04252 0.01545 0.99098 0.0
O46 O 0.97133 0.95231 0.94793 0.0
O47 O 0.93668 0.89965 1.00219 0.0
O48 O 0.10282 0.03747 0.02684 0.0
O49 O 0.96332 0.88215 0.04467 0.0
O50 O 0.94753 0.04688 0.94582 0.0
O51 O 0.96419 0.99494 0.01481 0.0
O52 O 0.03189 0.05616 0.05914 0.0
O53 O 0.06653 0.1104 0.0054 0.0
O54 O 0.90456 0.97455 0.97859 0.0
O55 O 0.04406 0.12885 0.9597 0.0
C56 C 0.09819 0.04616 0.99456 0.0
C57 C 0.00586 0.87156 0.0901 0.0
C58 C 0.04246 0.84281 0.1288 0.0
C59 C 0.04889 0.87196 0.0978 0.0
C60 C 0.99312 0.8146 0.15233 0.0
C61 C 0.95613 0.84152 0.11365 0.0
C62 C 0.95028 0.81389 0.14468 0.0
C63 C 0.93953 0.90082 0.96694 0.0
C64 C 0.01348 0.90258 0.05758 0.0
C65 C 0.96069 0.97594 0.18416 0.0
C66 C 0.89861 0.92175 0.17453 0.0
C67 C 0.90875 0.96488 0.01073 0.0
C68 C 0.00472 0.13776 0.91081 0.0
C69 C 0.96181 0.13608 0.89968 0.0
C70 C 0.96994 0.16306 0.86699 0.0
C71 C 0.02092 0.19034 0.84532 0.0
C72 C 0.05627 0.16726 0.88906 0.0
C73 C 0.06379 0.1926 0.85642 0.0
C74 C 0.06297 0.108 0.04069 0.0
C75 C 0.99485 0.10805 0.94475 0.0
H76 H 0.08649 0.89381 0.07929 0.0
H77 H 0.98758 0.79302 0.17675 0.0
H78 H 0.92139 0.83885 0.10818 0.0
H79 H 0.91214 0.7915 0.1628 0.0
H80 H 0.92293 0.11486 0.91682 0.0
H81 H 0.02779 0.21007 0.8197 0.0
H82 H 0.09111 0.17117 0.89714 0.0
H83 H 0.10325 0.2144 0.83972 0.0
Tb84 Tb 0.00911 0.04484 0.54514 0.0
C85 C 0.98141 0.9806 0.38802 0.0
C86 C 0.87007 0.894 0.37869 0.0
C87 C 0.93865 0.96553 0.33019 0.0
C88 C 0.92227 0.92965 0.40115 0.0
C89 C 0.9906 -0.00161 0.35218 0.0
C90 C 0.87841 0.91332 0.34343 0.0
C91 C 0.10153 0.07514 0.36162 0.0
N92 N 0.03023 0.01041 0.40997 0.0
C93 C 0.08991 0.05538 0.39692 0.0
C94 C 0.05168 0.04714 0.33926 0.0
Tb95 Tb 0.00684 0.97494 0.46733 0.0
N96 N 0.91637 0.91225 0.43524 0.0
C97 C 0.8596 0.8565 0.44765 0.0
C98 C 0.81151 0.83865 0.39187 0.0
C99 C 0.80649 0.8192 0.42627 0.0
H100 H 0.12866 0.07739 0.41414 0.0
H101 H 0.76159 0.77576 0.43651 0.0
H102 H 0.8388 0.88706 0.32591 0.0
H103 H 0.14888 0.1119 0.35169 0.0
H104 H 0.8544 0.84065 0.47419 0.0
H105 H 0.25175 0.23764 0.5829 0.0
H106 H 0.77027 0.80978 0.37544 0.0
H107 H 0.88118 0.93796 0.59355 0.0
H108 H 0.16277 0.17628 0.54227 0.0
H109 H 0.85396 0.90188 0.65585 0.0
H110 H 0.94463 0.97882 0.30265 0.0
H111 H 0.23544 0.20249 0.64486 0.0
H112 H 0.16059 0.12619 0.69337 0.0
H113 H 0.06075 0.06224 0.31187 0.0
H114 H 0.05217 0.03501 0.71338 0.0
N115 N 0.09593 0.10491 0.58021 0.0
C116 C 0.15449 0.15988 0.56912 0.0
C117 C 0.19599 0.17507 0.62707 0.0
C118 C 0.13554 0.12091 0.63891 0.0
C119 C 0.20535 0.19509 0.59215 0.0
C120 C 0.0859 0.08677 0.6146 0.0
H121 H 0.93741 0.95158 0.69968 0.0
N122 N 0.97902 0.00605 0.60179 0.0
C123 C 0.90235 0.93935 0.64772 0.0
C124 C 0.02527 0.03573 0.62584 0.0
C125 C 0.91793 0.95994 0.61247 0.0
C126 C 0.94958 0.96745 0.67237 0.0
C127 C 0.012 0.01689 0.66168 0.0
O128 O 0.9534 0.05446 0.56022 0.0
O129 O 0.96931 0.00026 0.49441 0.0
O130 O 0.03873 0.06053 0.45017 0.0
O131 O 0.07402 0.11603 0.50357 0.0
O132 O 0.91025 0.98008 0.53075 0.0
O133 O 0.05151 0.13592 0.54898 0.0
O134 O 0.06273 0.96677 0.44923 0.0
O135 O 0.04782 0.02033 0.51793 0.0
O136 O 0.98028 0.96144 0.56326 0.0
O137 O 0.94531 0.90505 0.51025 0.0
O138 O 0.1062 0.04176 0.4798 0.0
O139 O 0.96728 0.88505 0.46517 0.0
C140 C 0.91386 0.97 0.4985 0.0
C141 C 0.00823 0.14388 0.59608 0.0
C142 C 0.96632 0.16237 0.63948 0.0
C143 C 0.96136 0.13672 0.60701 0.0
C144 C 0.01856 0.19441 0.66111 0.0
C145 C 0.06041 0.17707 0.61797 0.0
C146 C 0.06511 0.20157 0.65036 0.0
C147 C 0.07087 0.11301 0.46832 0.0
C148 C 0.00137 0.11547 0.56226 0.0
C149 C 0.06132 0.04903 0.68577 0.0
C150 C 0.12303 0.10093 0.67437 0.0
C151 C 0.10348 0.05177 0.51231 0.0
C152 C 0.00522 0.87339 0.41667 0.0
C153 C 0.0473 0.87348 0.40612 0.0
C154 C 0.03708 0.84266 0.37469 0.0
C155 C 0.9851 0.81323 0.35357 0.0
C156 C 0.95299 0.84244 0.39537 0.0
C157 C 0.94346 0.81319 0.36391 0.0
C158 C 0.94916 0.90894 0.54551 0.0
C159 C 0.01619 0.90557 0.44975 0.0
H160 H 0.92098 0.11099 0.59024 0.0
H161 H 0.02445 0.21559 0.68591 0.0
H162 H 0.09782 0.18448 0.61016 0.0
H163 H 0.10545 0.22695 0.66703 0.0
H164 H 0.08704 0.89625 0.42276 0.0
H165 H 0.97658 0.79014 0.32897 0.0
H166 H 0.91909 0.84025 0.40299 0.0
H167 H 0.90333 0.78997 0.34759 0.0
Zn168 Zn 0.38962 0.71123 0.18445 0.0
Zn169 Zn 0.37809 0.70869 0.32396 0.0
Zn170 Zn 0.38299 0.70006 0.25456 0.0
C171 C 0.50199 0.78444 0.30746 0.0
C172 C 0.30675 0.58233 0.30528 0.0
O173 O 0.34315 0.72997 0.23338 0.0
O174 O 0.36313 0.7496 0.17581 0.0
C175 C 0.50937 0.78284 0.20843 0.0
O176 O 0.47863 0.76315 0.2761 0.0
O177 O 0.46792 0.76931 0.33335 0.0
O178 O 0.32154 0.61729 0.33077 0.0
O179 O 0.32589 0.60446 0.27355 0.0
O180 O 0.47915 0.76526 0.18012 0.0
O181 O 0.48195 0.76453 0.23884 0.0
O182 O 0.32759 0.60486 0.23519 0.0
O183 O 0.32761 0.61864 0.17757 0.0
C184 C 0.31007 0.58305 0.20332 0.0
O185 O 0.33893 0.72823 0.27068 0.0
O186 O 0.34227 0.73798 0.32917 0.0
C187 C 0.34047 0.74818 0.20375 0.0
C188 C 0.32759 0.74108 0.2992 0.0
Zn189 Zn 0.63041 0.29807 0.8203 0.0
Zn190 Zn 0.63626 0.31934 0.68278 0.0
Zn191 Zn 0.63175 0.31429 0.75156 0.0
C192 C 0.70311 0.4391 0.70676 0.0
C193 C 0.5107 0.23179 0.70182 0.0
O194 O 0.67257 0.28211 0.76571 0.0
O195 O 0.66018 0.26248 0.82341 0.0
C196 C 0.70658 0.42673 0.80722 0.0
O197 O 0.6893 0.41306 0.73728 0.0
O198 O 0.68449 0.40784 0.67857 0.0
O199 O 0.54544 0.25259 0.67512 0.0
O200 O 0.53425 0.25081 0.73324 0.0
O201 O 0.69 0.38914 0.83132 0.0
O202 O 0.68863 0.40749 0.77495 0.0
O203 O 0.53471 0.25146 0.77082 0.0
O204 O 0.5408 0.24097 0.82805 0.0
C205 C 0.50921 0.22895 0.80172 0.0
O206 O 0.6715 0.28449 0.72864 0.0
O207 O 0.67995 0.30029 0.67068 0.0
C208 C 0.67907 0.26391 0.79361 0.0
C209 C 0.68772 0.28336 0.69751 0.0
C210 C 0.06282 0.78528 0.15065 0.0
C211 C 0.08588 0.84031 0.13654 0.0
C212 C 0.10307 0.78262 0.15882 0.0
C213 C 0.16765 0.83512 0.15318 0.0
C214 C 0.19065 0.88963 0.13828 0.0
C215 C 0.15028 0.89239 0.1302 0.0
C216 C 0.21144 0.83308 0.16084 0.0
C217 C 0.20025 0.79567 0.18603 0.0
C218 C 0.23947 0.78732 0.19186 0.0
C219 C 0.21261 0.73276 0.20936 0.0
C220 C 0.24609 0.72079 0.21386 0.0
C221 C 0.30749 0.76369 0.20155 0.0
H222 H 0.32482 0.87425 0.16711 0.0
C223 C 0.33506 0.81874 0.18448 0.0
C224 C 0.30163 0.83087 0.17994 0.0
H225 H 0.38241 0.85226 0.17456 0.0
H226 H 0.0133 0.74367 0.15491 0.0
H227 H 0.08304 0.73878 0.16876 0.0
H228 H 0.24009 0.93046 0.13322 0.0
H229 H 0.16964 0.93559 0.1195 0.0
H230 H 0.25335 0.8628 0.14476 0.0
H231 H 0.1586 0.7672 0.20231 0.0
H232 H 0.16489 0.69831 0.21878 0.0
H233 H 0.22337 0.67706 0.22604 0.0
C234 C 0.12849 0.03683 0.57083 0.0
C235 C 0.14831 0.06967 0.5387 0.0
C236 C 0.17195 0.05321 0.59475 0.0
C237 C 0.23582 0.10149 0.58636 0.0
C238 C 0.25523 0.13294 0.5538 0.0
C239 C 0.21196 0.11727 0.53024 0.0
C240 C 0.2831 0.11706 0.60935 0.0
C241 C 0.27948 0.11224 0.64502 0.0
C242 C 0.33093 0.13156 0.66549 0.0
C243 C 0.35634 0.17142 0.69505 0.0
C244 C 0.41294 0.20034 0.70964 0.0
C245 C 0.44393 0.18879 0.6951 0.0
H246 H 0.33948 0.08358 0.63121 0.0
C247 C 0.41507 0.14407 0.66792 0.0
C248 C 0.35903 0.11555 0.65334 0.0
H249 H 0.43799 0.13423 0.65633 0.0
H250 H 0.07956 -0.00189 0.57739 0.0
H251 H 0.15533 0.02678 0.61915 0.0
H252 H 0.30411 0.1697 0.54649 0.0
H253 H 0.22823 0.14232 0.50529 0.0
H254 H 0.32474 0.13649 0.59618 0.0
H255 H 0.24185 0.09953 0.65919 0.0
H256 H 0.33517 0.18407 0.70498 0.0
H257 H 0.43503 0.23574 0.72995 0.0
C258 C 0.0834 0.16272 0.09729 0.0
C259 C 0.0926 0.16526 0.06045 0.0
C260 C 0.10915 0.21589 0.11584 0.0
C261 C 0.14432 0.27282 0.0979 0.0
C262 C 0.15322 0.27533 0.06113 0.0
C263 C 0.12807 0.22235 0.04262 0.0
C264 C 0.16939 0.32937 0.11622 0.0
C265 C 0.18467 0.34198 0.15091 0.0
C266 C 0.21156 0.40031 0.16764 0.0
C267 C 0.25914 0.43211 0.19295 0.0
C268 C 0.28954 0.49059 0.20616 0.0
C269 C 0.27139 0.51705 0.19517 0.0
H270 H 0.15427 0.40172 0.13894 0.0
C271 C 0.22172 0.48375 0.17125 0.0
C272 C 0.19189 0.42584 0.15771 0.0
H273 H 0.20734 0.5036 0.16211 0.0
H274 H 0.05506 0.11929 0.11184 0.0
H275 H 0.09969 0.21156 0.14397 0.0
H276 H 0.1797 0.31848 0.0466 0.0
H277 H 0.13589 0.22608 0.01427 0.0
H278 H 0.17843 0.36356 0.09994 0.0
H279 H 0.18208 0.31169 0.16671 0.0
H280 H 0.2752 0.41345 0.20095 0.0
H281 H 0.32995 0.51701 0.22287 0.0
C282 C 0.89504 0.16858 0.6247 0.0
C283 C 0.91929 0.15908 0.65004 0.0
C284 C 0.85616 0.17234 0.635 0.0
C285 C 0.84106 0.16736 0.671 0.0
C286 C 0.86225 0.15426 0.69609 0.0
C287 C 0.90119 0.15042 0.68577 0.0
C288 C 0.80515 0.17776 0.68298 0.0
C289 C 0.81089 0.21924 0.66646 0.0
C290 C 0.77924 0.23487 0.6774 0.0
C291 C 0.80323 0.2907 0.66423 0.0
C292 C 0.77386 0.30656 0.67164 0.0
C293 C 0.7198 0.2671 0.69255 0.0
H294 H 0.70423 0.15104 0.70861 0.0
C295 C 0.69531 0.21114 0.70597 0.0
C296 C 0.72492 0.1951 0.69855 0.0
H297 H 0.65281 0.17941 0.72154 0.0
H298 H 0.90793 0.17551 0.59699 0.0
H299 H 0.83879 0.18013 0.6147 0.0
H300 H 0.85052 0.14922 0.7239 0.0
H301 H 0.91796 0.14169 0.70589 0.0
H302 H 0.77787 0.15484 0.70719 0.0
H303 H 0.84327 0.24602 0.64434 0.0
H304 H 0.8447 0.32207 0.64774 0.0
H305 H 0.79327 0.34972 0.66076 0.0
C306 C 0.80039 0.89149 0.03319 0.0
C307 C 0.86452 0.94487 0.03861 0.0
C308 C 0.75794 0.87055 0.05985 0.0
C309 C 0.77859 0.90357 0.09203 0.0
C310 C 0.84278 0.95913 0.09662 0.0
C311 C 0.88524 0.97979 0.06998 0.0
C312 C 0.73182 0.87691 0.12037 0.0
C313 C 0.73965 0.91061 0.14704 0.0
C314 C 0.68747 0.88202 0.17143 0.0
C315 C 0.67524 0.91506 0.17938 0.0
C316 C 0.61896 0.88425 0.19557 0.0
C317 C 0.5752 0.82065 0.20496 0.0
H318 H 0.65513 0.79391 0.1788 0.0
C319 C 0.59032 0.78958 0.20048 0.0
C320 C 0.64609 0.82001 0.18382 0.0
H321 H 0.55666 0.74017 0.20704 0.0
H322 H 0.78327 0.86468 0.00883 0.0
H323 H 0.70877 0.8279 0.05544 0.0
H324 H 0.86074 0.9857 0.12106 0.0
H325 H 0.93421 0.02257 0.07425 0.0
H326 H 0.68693 0.82765 0.11771 0.0
H327 H 0.78156 0.96111 0.14831 0.0
H328 H 0.70668 0.96302 0.17036 0.0
H329 H 0.60753 0.9086 0.19818 0.0
C330 C 0.92875 0.85686 0.60313 0.0
C331 C 0.92013 0.85274 0.56616 0.0
C332 C 0.90357 0.80485 0.62264 0.0
C333 C 0.86993 0.74765 0.60553 0.0
C334 C 0.86177 0.74352 0.56862 0.0
C335 C 0.88607 0.79529 0.54915 0.0
C336 C 0.84597 0.6927 0.62509 0.0
C337 C 0.82684 0.67979 0.65916 0.0
C338 C 0.80065 0.62258 0.67681 0.0
C339 C 0.74558 0.58461 0.69681 0.0
C340 C 0.71539 0.52586 0.70914 0.0
C341 C 0.7414 0.50571 0.70296 0.0
H342 H 0.87102 0.63241 0.65718 0.0
C343 C 0.79852 0.5455 0.68497 0.0
C344 C 0.82799 0.60349 0.67201 0.0
H345 H 0.81857 0.53012 0.67918 0.0
H346 H 0.95621 0.90066 0.61709 0.0
H347 H 0.91235 0.81025 0.65089 0.0
H348 H 0.83647 0.70004 0.55477 0.0
H349 H 0.87885 0.79039 0.52072 0.0
H350 H 0.84089 0.6598 0.61024 0.0
H351 H 0.82521 0.70829 0.67327 0.0
H352 H 0.7237 0.59844 0.70078 0.0
H353 H 0.66994 0.49468 0.72148 0.0
C354 C 0.05355 0.78228 0.35146 0.0
C355 C 0.079 0.83916 0.36413 0.0
C356 C 0.0921 0.77832 0.34072 0.0
C357 C 0.15743 0.8315 0.34204 0.0
C358 C 0.18289 0.88812 0.35535 0.0
C359 C 0.14414 0.89201 0.36625 0.0
C360 C 0.20003 0.82856 0.33177 0.0
C361 C 0.18268 0.78324 0.31079 0.0
C362 C 0.22182 0.77489 0.30498 0.0
C363 C 0.19201 0.71354 0.3014 0.0
C364 C 0.22682 0.7029 0.29845 0.0
C365 C 0.29204 0.75355 0.29788 0.0
H366 H 0.31177 0.87378 0.30573 0.0
C367 C 0.32226 0.81513 0.30033 0.0
C368 C 0.2874 0.82585 0.30379 0.0
H369 H 0.3727 0.8547 0.30036 0.0
H370 H 0.00352 0.74027 0.35037 0.0
H371 H 0.07003 0.73295 0.33227 0.0
H372 H 0.23296 0.92962 0.35717 0.0
H373 H 0.16517 0.93655 0.37583 0.0
H374 H 0.24669 0.86401 0.34291 0.0
H375 H 0.1363 0.74767 0.29942 0.0
H376 H 0.14161 0.67354 0.30209 0.0
H377 H 0.20283 0.65502 0.29711 0.0
C378 C 0.20198 0.10821 0.96765 0.0
C379 C 0.13682 0.05607 0.96635 0.0
C380 C 0.23856 0.11862 0.94039 0.0
C381 C 0.21051 0.0757 0.9121 0.0
C382 C 0.14574 0.02152 0.91213 0.0
C383 C 0.10921 0.01189 0.93893 0.0
C384 C 0.24843 0.08479 0.88355 0.0
C385 C 0.29818 0.1416 0.86933 0.0
C386 C 0.34268 0.15427 0.8446 0.0
C387 C 0.38142 0.20833 0.82322 0.0
C388 C 0.4324 0.22902 0.80538 0.0
C389 C 0.44565 0.19617 0.80886 0.0
H390 H 0.32561 0.07773 0.86253 0.0
C391 C 0.40474 0.13994 0.82826 0.0
C392 C 0.35342 0.11884 0.84579 0.0
H393 H 0.41511 0.11482 0.83204 0.0
H394 H 0.22439 0.14187 0.98914 0.0
H395 H 0.28872 0.15978 0.94166 0.0
H396 H 0.12328 0.98698 0.89114 0.0
H397 H 0.05953 0.96949 0.93826 0.0
H398 H 0.23422 0.04352 0.87377 0.0
H399 H 0.30795 0.18118 0.87699 0.0
H400 H 0.37451 0.23674 0.82206 0.0
H401 H 0.46459 0.2737 0.79161 0.0
C402 C 0.13948 0.22822 0.4656 0.0
C403 C 0.10123 0.17013 0.44826 0.0
C404 C 0.16455 0.28098 0.44702 0.0
C405 C 0.15267 0.27718 0.41066 0.0
C406 C 0.11496 0.21929 0.39318 0.0
C407 C 0.08939 0.16639 0.41181 0.0
C408 C 0.17691 0.33331 0.39253 0.0
C409 C 0.18801 0.34392 0.35735 0.0
C410 C 0.2129 0.40135 0.34083 0.0
C411 C 0.25762 0.43212 0.31364 0.0
C412 C 0.28639 0.48997 0.30055 0.0
C413 C 0.26946 0.51682 0.31367 0.0
H414 H 0.15846 0.40355 0.37304 0.0
C415 C 0.22224 0.48424 0.33943 0.0
C416 C 0.19408 0.42702 0.35281 0.0
H417 H 0.20853 0.50416 0.3501 0.0
H418 H 0.14938 0.23286 0.49365 0.0
H419 H 0.19306 0.32492 0.4612 0.0
H420 H 0.10316 0.21398 0.36545 0.0
H421 H 0.05877 0.12216 0.39774 0.0
H422 H 0.18837 0.36868 0.40923 0.0
H423 H 0.18306 0.31252 0.34075 0.0
H424 H 0.27285 0.41321 0.30398 0.0
H425 H 0.3248 0.51572 0.28217 0.0
C426 C 0.94996 0.21778 0.83843 0.0
C427 C 0.92668 0.16445 0.85566 0.0
C428 C 0.91003 0.21998 0.828 0.0
C429 C 0.8456 0.16883 0.83458 0.0
C430 C 0.82228 0.11566 0.85191 0.0
C431 C 0.86224 0.11326 0.86216 0.0
C432 C 0.80245 0.17155 0.82652 0.0
C433 C 0.81324 0.2084 0.80101 0.0
C434 C 0.77484 0.21804 0.79626 0.0
C435 C 0.80127 0.27236 0.77854 0.0
C436 C 0.76925 0.28643 0.77645 0.0
C437 C 0.7099 0.24597 0.7917 0.0
H438 H 0.69068 0.13273 0.82281 0.0
C439 C 0.68237 0.19059 0.80824 0.0
C440 C 0.71405 0.17625 0.81013 0.0
H441 H 0.63643 0.15865 0.82007 0.0
H442 H -0.00052 0.25875 0.83378 0.0
H443 H 0.93033 0.2628 0.81598 0.0
H444 H 0.77293 0.07582 0.85764 0.0
H445 H 0.84255 0.0712 0.87502 0.0
H446 H 0.7615 0.14335 0.8433 0.0
H447 H 0.85406 0.23579 0.78413 0.0
H448 H 0.84767 0.30511 0.76726 0.0
H449 H 0.79154 0.32972 0.76383 0.0
C450 C 0.81 0.9076 0.47167 0.0
C451 C 0.87517 0.95995 0.47045 0.0
C452 C 0.7736 0.89734 0.44453 0.0
C453 C 0.8018 0.94081 0.41663 0.0
C454 C 0.86652 0.99502 0.41666 0.0
C455 C 0.9029 0.00434 0.4432 0.0
C456 C 0.76383 0.93265 0.38891 0.0
C457 C 0.71708 0.87746 0.37228 0.0
C458 C 0.67168 0.86514 0.34906 0.0
C459 C 0.64012 0.81877 0.32254 0.0
C460 C 0.58839 0.79729 0.30537 0.0
C461 C 0.56662 0.82076 0.31529 0.0
H462 H 0.67544 0.92752 0.37711 0.0
C463 C 0.60073 0.87012 0.33992 0.0
C464 C 0.65305 0.89252 0.35645 0.0
H465 H 0.58429 0.8884 0.34824 0.0
H466 H 0.78748 0.8737 0.493 0.0
H467 H 0.72342 0.85606 0.44565 0.0
H468 H 0.88902 0.02998 0.39597 0.0
H469 H 0.95252 0.0469 0.44261 0.0
H470 H 0.775 0.97323 0.38202 0.0
H471 H 0.71027 0.83904 0.37695 0.0
H472 H 0.65346 0.7968 0.31647 0.0
H473 H 0.56221 0.75849 0.28684 0.0
C474 C 0.92133 0.84481 0.91173 0.0
C475 C 0.90903 0.84271 0.94795 0.0
C476 C 0.89604 0.79109 0.89421 0.0
C477 C 0.85779 0.73387 0.91257 0.0
C478 C 0.84526 0.73173 0.94867 0.0
C479 C 0.87033 0.78539 0.96616 0.0
C480 C 0.83315 0.67655 0.8957 0.0
C481 C 0.82543 0.6657 0.86043 0.0
C482 C 0.79992 0.60722 0.84495 0.0
C483 C 0.76236 0.58088 0.81453 0.0
C484 C 0.73374 0.52313 0.80127 0.0
C485 C 0.7434 0.49156 0.81764 0.0
H486 H 0.84199 0.59675 0.88322 0.0
C487 C 0.78341 0.51944 0.84702 0.0
C488 C 0.8116 0.57676 0.86047 0.0
H489 H 0.79185 0.49617 0.86014 0.0
H490 H 0.95211 0.8884 0.89701 0.0
H491 H 0.90843 0.79535 0.86669 0.0
H492 H 0.81629 0.6884 0.96354 0.0
H493 H 0.86003 0.78202 0.99408 0.0
H494 H 0.81849 0.64059 0.91342 0.0
H495 H 0.8339 0.69808 0.84258 0.0
H496 H 0.7528 0.60351 0.80199 0.0
H497 H 0.70118 0.50135 0.77966 0.0
loop_
_geom_bond_atom_site_label_1
_geom_bond_atom_site_label_2
_geom_bond_distance
_geom_bond_site_symmetry_2
_ccdc_geom_bond_type
Tb0 N31 2.660 1_455 S
Tb0 N38 2.600 . S
Tb0 O44 2.546 1_565 S
Tb0 O45 2.610 1_564 S
Tb0 O47 2.320 1_454 S
Tb0 O48 2.552 1_565 S
Tb0 O49 2.413 . S
Tb0 O51 2.362 1_455 S
Tb0 O52 2.421 1_565 S
Tb0 C64 2.833 . S
C1 C4 1.432 . S
C1 C5 1.414 . S
C1 N8 1.359 1_455 S
C2 C4 1.417 . S
C2 C6 1.432 . S
C2 C14 1.410 . S
C3 C5 1.444 . S
C3 C6 1.317 . S
C3 H26 0.929 . S
C4 C1 1.432 . S
C4 C2 1.417 . S
C4 N12 1.360 . S
C5 C1 1.414 . S
C5 C3 1.444 . S
C5 C10 1.385 1_455 S
C6 C2 1.432 . S
C6 C3 1.317 . S
C6 H18 0.930 . S
C7 C9 1.392 . S
C7 C10 1.370 1_565 S
C7 H19 0.931 . S
N8 C1 1.359 1_655 S
N8 C9 1.327 1_545 S
N8 Tb11 2.600 . S
C9 C7 1.392 . S
C9 N8 1.327 1_565 S
C9 H16 0.930 . S
C10 C5 1.385 1_655 S
C10 C7 1.370 1_545 S
C10 H29 0.930 . S
Tb11 N8 2.600 . S
Tb11 N12 2.660 1_655 S
Tb11 O45 2.362 1_655 S
Tb11 O46 2.421 1_545 S
Tb11 O50 2.546 1_545 S
Tb11 O51 2.610 1_546 S
Tb11 O53 2.320 1_656 S
Tb11 O54 2.552 1_545 S
Tb11 O55 2.413 . S
Tb11 C75 2.833 . S
N12 C4 1.360 . S
N12 Tb11 2.660 1_455 S
N12 C13 1.305 . S
C13 N12 1.305 . S
C13 C15 1.407 . S
C13 H20 0.930 . S
C14 C2 1.410 . S
C14 C15 1.345 . S
C14 H22 0.930 . S
C15 C13 1.407 . S
C15 C14 1.345 . S
C15 H17 0.930 . S
H16 C9 0.930 . S
H17 C15 0.930 . S
H18 C6 0.930 . S
H19 C7 0.931 . S
H20 C13 0.930 . S
H21 C35 0.930 . S
H22 C14 0.930 . S
H23 C41 0.930 . S
H24 C32 0.930 . S
H25 C39 0.931 . S
H26 C3 0.929 . S
H27 C33 0.930 . S
H28 C66 0.930 . S
H29 C10 0.930 . S
H30 C65 0.929 . S
N31 Tb0 2.660 1_655 S
N31 C32 1.305 . S
N31 C36 1.360 . S
C32 H24 0.930 . S
C32 N31 1.305 . S
C32 C35 1.407 . S
C33 H27 0.930 . S
C33 C34 1.410 . S
C33 C35 1.345 . S
C34 C33 1.410 . S
C34 C36 1.417 . S
C34 C66 1.432 . S
C35 H21 0.930 . S
C35 C32 1.407 . S
C35 C33 1.345 . S
C36 N31 1.360 . S
C36 C34 1.417 . S
C36 C40 1.432 . S
H37 C42 0.930 . S
N38 Tb0 2.600 . S
N38 C40 1.359 1_455 S
N38 C41 1.327 1_565 S
C39 H25 0.931 . S
C39 C41 1.392 . S
C39 C42 1.371 . S
C40 C36 1.432 . S
C40 N38 1.359 1_655 S
C40 C43 1.414 . S
C41 H23 0.930 . S
C41 N38 1.327 1_545 S
C41 C39 1.392 . S
C42 H37 0.930 . S
C42 C39 1.371 . S
C42 C43 1.383 1_445 S
C43 C40 1.414 . S
C43 C42 1.383 1_665 S
C43 C65 1.444 . S
O44 Tb0 2.546 1_545 S
O44 C64 1.251 1_545 S
O45 Tb0 2.610 1_546 S
O45 Tb11 2.362 1_455 S
O45 C56 1.283 . S
O46 Tb11 2.421 1_565 S
O46 C63 1.262 . S
O47 Tb0 2.320 1_656 S
O47 C63 1.260 . S
O48 Tb0 2.552 1_545 S
O48 C56 1.243 1_554 S
O49 Tb0 2.413 . S
O49 C64 1.256 . S
O50 Tb11 2.546 1_565 S
O50 C75 1.251 1_565 S
O51 Tb0 2.362 1_655 S
O51 Tb11 2.610 1_564 S
O51 C67 1.283 . S
O52 Tb0 2.421 1_545 S
O52 C74 1.262 . S
O53 Tb11 2.320 1_454 S
O53 C74 1.260 . S
O54 Tb11 2.552 1_565 S
O54 C67 1.243 1_556 S
O55 Tb11 2.413 . S
O55 C75 1.256 . S
C56 O45 1.283 . S
C56 O48 1.243 1_556 S
C57 C59 1.382 . S
C57 C61 1.393 . S
C57 C64 1.500 . S
C58 C59 1.400 . S
C58 C60 1.384 . S
C59 C57 1.382 . S
C59 C58 1.400 . S
C59 H76 0.930 . S
C60 C58 1.384 . S
C60 C62 1.392 . S
C60 H77 0.931 . S
C61 C57 1.393 . S
C61 C62 1.401 . S
C61 H78 0.930 . S
C62 C60 1.392 . S
C62 C61 1.401 . S
C62 H79 0.930 . S
C63 O46 1.262 . S
C63 O47 1.260 . S
C64 Tb0 2.833 . S
C64 O44 1.251 1_565 S
C64 O49 1.256 . S
C64 C57 1.500 . S
C65 H30 0.929 . S
C65 C43 1.444 . S
C65 C66 1.317 . S
C66 H28 0.930 . S
C66 C34 1.432 . S
C66 C65 1.317 . S
C67 O51 1.283 . S
C67 O54 1.243 1_554 S
C68 C69 1.382 . S
C68 C72 1.393 . S
C68 C75 1.500 . S
C69 C68 1.382 . S
C69 C70 1.400 . S
C69 H80 0.930 . S
C70 C69 1.400 . S
C70 C71 1.384 . S
C71 C70 1.384 . S
C71 C73 1.392 . S
C71 H81 0.931 . S
C72 C68 1.393 . S
C72 C73 1.401 . S
C72 H82 0.930 . S
C73 C71 1.392 . S
C73 C72 1.401 . S
C73 H83 0.930 . S
C74 O52 1.262 . S
C74 O53 1.260 . S
C75 Tb11 2.833 . S
C75 O50 1.251 1_545 S
C75 O55 1.256 . S
C75 C68 1.500 . S
H76 C59 0.930 . S
H77 C60 0.931 . S
H78 C61 0.930 . S
H79 C62 0.930 . S
H80 C69 0.930 . S
H81 C71 0.931 . S
H82 C72 0.930 . S
H83 C73 0.930 . S
Tb84 N115 2.660 1_655 S
Tb84 N122 2.600 1_655 S
Tb84 O128 2.546 . S
Tb84 O129 2.610 1_545 S
Tb84 O131 2.320 1_655 S
Tb84 O132 2.552 1_545 S
Tb84 O133 2.413 . S
Tb84 O135 2.362 1_655 S
Tb84 O136 2.421 1_545 S
Tb84 C148 2.833 . S
C85 C88 1.432 . S
C85 C89 1.414 . S
C85 N92 1.359 1_665 S
C86 C88 1.417 . S
C86 C90 1.432 . S
C86 C98 1.410 . S
C87 C89 1.444 . S
C87 C90 1.317 . S
C87 H110 0.929 . S
C88 C85 1.432 . S
C88 C86 1.417 . S
C88 N96 1.360 . S
C89 C85 1.414 . S
C89 C87 1.444 . S
C89 C94 1.385 1_665 S
C90 C86 1.432 . S
C90 C87 1.317 . S
C90 H102 0.930 . S
C91 C93 1.392 . S
C91 C94 1.370 . S
C91 H103 0.931 . S
N92 C85 1.359 1_445 S
N92 C93 1.327 . S
N92 Tb95 2.600 1_545 S
C93 C91 1.392 . S
C93 N92 1.327 . S
C93 H100 0.930 . S
C94 C89 1.385 1_445 S
C94 C91 1.370 . S
C94 H113 0.930 . S
Tb95 N92 2.600 1_565 S
Tb95 N96 2.660 1_455 S
Tb95 O129 2.362 1_455 S
Tb95 O130 2.421 1_565 S
Tb95 O134 2.546 1_565 S
Tb95 O135 2.610 1_565 S
Tb95 O137 2.320 1_455 S
Tb95 O138 2.552 1_565 S
Tb95 O139 2.413 . S
Tb95 C159 2.833 . S
N96 C88 1.360 . S
N96 Tb95 2.660 1_655 S
N96 C97 1.305 . S
C97 N96 1.305 . S
C97 C99 1.407 . S
C97 H104 0.930 . S
C98 C86 1.410 . S
C98 C99 1.345 . S
C98 H106 0.930 . S
C99 C97 1.407 . S
C99 C98 1.345 . S
C99 H101 0.930 . S
H100 C93 0.930 . S
H101 C99 0.930 . S
H102 C90 0.930 . S
H103 C91 0.931 . S
H104 C97 0.930 . S
H105 C119 0.930 . S
H106 C98 0.930 . S
H107 C125 0.930 . S
H108 C116 0.930 . S
H109 C123 0.931 . S
H110 C87 0.929 . S
H111 C117 0.930 . S
H112 C150 0.930 . S
H113 C94 0.930 . S
H114 C149 0.929 . S
N115 Tb84 2.660 1_455 S
N115 C116 1.305 . S
N115 C120 1.360 . S
C116 H108 0.930 . S
C116 N115 1.305 . S
C116 C119 1.407 . S
C117 H111 0.930 . S
C117 C118 1.410 . S
C117 C119 1.345 . S
C118 C117 1.410 . S
C118 C120 1.417 . S
C118 C150 1.432 . S
C119 H105 0.930 . S
C119 C116 1.407 . S
C119 C117 1.345 . S
C120 N115 1.360 . S
C120 C118 1.417 . S
C120 C124 1.432 . S
H121 C126 0.930 . S
N122 Tb84 2.600 1_455 S
N122 C124 1.359 . S
N122 C125 1.327 1_445 S
C123 H109 0.931 . S
C123 C125 1.392 . S
C123 C126 1.370 1_665 S
C124 C120 1.432 . S
C124 N122 1.359 . S
C124 C127 1.414 . S
C125 H107 0.930 . S
C125 N122 1.327 1_665 S
C125 C123 1.392 . S
C126 H121 0.930 . S
C126 C123 1.370 1_445 S
C126 C127 1.385 . S
C127 C124 1.414 . S
C127 C126 1.385 . S
C127 C149 1.444 . S
O128 Tb84 2.546 . S
O128 C148 1.251 . S
O129 Tb84 2.610 1_565 S
O129 Tb95 2.362 1_655 S
O129 C140 1.283 . S
O130 Tb95 2.421 1_545 S
O130 C147 1.262 . S
O131 Tb84 2.320 1_455 S
O131 C147 1.260 . S
O132 Tb84 2.552 1_565 S
O132 C140 1.243 . S
O133 Tb84 2.413 . S
O133 C148 1.256 . S
O134 Tb95 2.546 1_545 S
O134 C159 1.251 1_545 S
O135 Tb84 2.362 1_455 S
O135 Tb95 2.610 1_545 S
O135 C151 1.283 . S
O136 Tb84 2.421 1_565 S
O136 C158 1.262 . S
O137 Tb95 2.320 1_655 S
O137 C158 1.260 . S
O138 Tb95 2.552 1_545 S
O138 C151 1.243 . S
O139 Tb95 2.413 . S
O139 C159 1.256 . S
C140 O129 1.283 . S
C140 O132 1.243 . S
C141 C143 1.382 . S
C141 C145 1.393 . S
C141 C148 1.500 . S
C142 C143 1.400 . S
C142 C144 1.384 . S
C143 C141 1.382 . S
C143 C142 1.400 . S
C143 H160 0.930 . S
C144 C142 1.384 . S
C144 C146 1.392 . S
C144 H161 0.931 . S
C145 C141 1.393 . S
C145 C146 1.401 . S
C145 H162 0.930 . S
C146 C144 1.392 . S
C146 C145 1.401 . S
C146 H163 0.930 . S
C147 O130 1.262 . S
C147 O131 1.260 . S
C148 Tb84 2.833 . S
C148 O128 1.251 . S
C148 O133 1.256 . S
C148 C141 1.500 . S
C149 H114 0.929 . S
C149 C127 1.444 . S
C149 C150 1.317 . S
C150 H112 0.930 . S
C150 C118 1.432 . S
C150 C149 1.317 . S
C151 O135 1.283 . S
C151 O138 1.243 . S
C152 C153 1.382 . S
C152 C156 1.393 . S
C152 C159 1.500 . S
C153 C152 1.382 . S
C153 C154 1.400 . S
C153 H164 0.930 . S
C154 C153 1.400 . S
C154 C155 1.384 . S
C155 C154 1.384 . S
C155 C157 1.392 . S
C155 H165 0.931 . S
C156 C152 1.393 . S
C156 C157 1.401 . S
C156 H166 0.930 1_565 S
C157 C155 1.392 . S
C157 C156 1.401 . S
C157 H167 0.930 . S
C158 O136 1.262 . S
C158 O137 1.260 . S
C159 Tb95 2.833 . S
C159 O134 1.251 1_565 S
C159 O139 1.256 . S
C159 C152 1.500 . S
H160 C143 0.930 . S
H161 C144 0.931 . S
H162 C145 0.930 . S
H163 C146 0.930 . S
H164 C153 0.930 . S
H165 C155 0.931 . S
H166 C156 0.930 1_545 S
H167 C157 0.930 . S
Zn168 O174 1.920 . S
Zn168 O180 1.898 . S
Zn168 O183 1.905 . S
Zn169 O177 1.905 . S
Zn169 O178 1.898 . S
Zn169 O186 1.920 . S
Zn170 O173 2.080 . S
Zn170 O176 2.114 . S
Zn170 O179 2.120 . S
Zn170 O181 2.120 . S
Zn170 O182 2.114 . S
Zn170 O185 2.080 . S
C171 O176 1.166 . S
C171 O177 1.182 . S
C172 O178 1.167 . S
C172 O179 1.299 . S
O173 Zn170 2.080 . S
O173 C187 1.305 . S
O174 Zn168 1.920 . S
O174 C187 1.234 . S
C175 O180 1.167 . S
C175 O181 1.299 . S
O176 Zn170 2.114 . S
O176 C171 1.166 . S
O177 Zn169 1.905 . S
O177 C171 1.182 . S
O178 Zn169 1.898 . S
O178 C172 1.167 . S
O179 Zn170 2.120 . S
O179 C172 1.299 . S
O180 Zn168 1.898 . S
O180 C175 1.167 . S
O181 Zn170 2.120 . S
O181 C175 1.299 . S
O182 Zn170 2.114 . S
O182 C184 1.166 . S
O183 Zn168 1.905 . S
O183 C184 1.182 . S
C184 O182 1.166 . S
C184 O183 1.182 . S
O185 Zn170 2.080 . S
O185 C188 1.305 . S
O186 Zn169 1.920 . S
O186 C188 1.234 . S
C187 O173 1.305 . S
C187 O174 1.234 . S
C188 O185 1.305 . S
C188 O186 1.234 . S
Zn189 O195 1.920 . S
Zn189 O201 1.898 . S
Zn189 O204 1.905 . S
Zn190 O198 1.905 . S
Zn190 O199 1.898 . S
Zn190 O207 1.920 . S
Zn191 O194 2.080 . S
Zn191 O197 2.114 . S
Zn191 O200 2.120 . S
Zn191 O202 2.120 . S
Zn191 O203 2.114 . S
Zn191 O206 2.080 . S
C192 O197 1.166 . S
C192 O198 1.182 . S
C193 O199 1.167 . S
C193 O200 1.299 . S
O194 Zn191 2.080 . S
O194 C208 1.305 . S
O195 Zn189 1.920 . S
O195 C208 1.234 . S
C196 O201 1.167 . S
C196 O202 1.299 . S
O197 Zn191 2.114 . S
O197 C192 1.166 . S
O198 Zn190 1.905 . S
O198 C192 1.182 . S
O199 Zn190 1.898 . S
O199 C193 1.167 . S
O200 Zn191 2.120 . S
O200 C193 1.299 . S
O201 Zn189 1.898 . S
O201 C196 1.167 . S
O202 Zn191 2.120 . S
O202 C196 1.299 . S
O203 Zn191 2.114 . S
O203 C205 1.166 . S
O204 Zn189 1.905 . S
O204 C205 1.182 . S
C205 O203 1.166 . S
C205 O204 1.182 . S
O206 Zn191 2.080 . S
O206 C209 1.305 . S
O207 Zn190 1.920 . S
O207 C209 1.234 . S
C208 O194 1.305 . S
C208 O195 1.234 . S
C209 O206 1.305 . S
C209 O207 1.234 . S
C210 C211 1.386 . S
C210 C212 1.383 . S
C210 H226 0.951 . S
C211 C210 1.386 . S
C211 C215 1.383 . S
C212 C210 1.383 . S
C212 C213 1.402 . S
C212 H227 0.951 . S
C213 C212 1.402 . S
C213 C214 1.375 . S
C213 C216 1.481 . S
C214 C213 1.375 . S
C214 C215 1.367 . S
C214 H228 0.951 . S
C215 C211 1.383 . S
C215 C214 1.367 . S
C215 H229 0.950 . S
C216 C213 1.481 . S
C216 C217 1.297 . S
C216 H230 0.950 . S
C217 C216 1.297 . S
C217 C218 1.479 . S
C217 H231 0.950 . S
C218 C217 1.479 . S
C218 C219 1.375 . S
C218 C224 1.404 . S
C219 C218 1.375 . S
C219 C220 1.369 . S
C219 H232 0.950 . S
C220 C219 1.369 . S
C220 C221 1.392 . S
C220 H233 0.951 . S
C221 C220 1.392 . S
C221 C223 1.384 . S
H222 C224 0.949 . S
C223 C221 1.384 . S
C223 C224 1.385 . S
C223 H225 0.950 . S
C224 C218 1.404 . S
C224 H222 0.949 . S
C224 C223 1.385 . S
H225 C223 0.950 . S
H226 C210 0.951 . S
H227 C212 0.951 . S
H228 C214 0.951 . S
H229 C215 0.950 . S
H230 C216 0.950 . S
H231 C217 0.950 . S
H232 C219 0.950 . S
H233 C220 0.951 . S
C234 C235 1.386 . S
C234 C236 1.383 . S
C234 H250 0.951 . S
C235 C234 1.386 . S
C235 C239 1.383 . S
C236 C234 1.383 . S
C236 C237 1.402 . S
C236 H251 0.951 . S
C237 C236 1.402 . S
C237 C238 1.375 . S
C237 C240 1.481 . S
C238 C237 1.375 . S
C238 C239 1.367 . S
C238 H252 0.951 . S
C239 C235 1.383 . S
C239 C238 1.367 . S
C239 H253 0.950 . S
C240 C237 1.481 . S
C240 C241 1.297 . S
C240 H254 0.950 . S
C241 C240 1.297 . S
C241 C242 1.479 . S
C241 H255 0.950 . S
C242 C241 1.479 . S
C242 C243 1.375 . S
C242 C248 1.404 . S
C243 C242 1.375 . S
C243 C244 1.369 . S
C243 H256 0.950 . S
C244 C243 1.369 . S
C244 C245 1.392 . S
C244 H257 0.951 . S
C245 C244 1.392 . S
C245 C247 1.384 . S
H246 C248 0.949 . S
C247 C245 1.384 . S
C247 C248 1.385 . S
C247 H249 0.950 . S
C248 C242 1.404 . S
C248 H246 0.949 . S
C248 C247 1.385 . S
H249 C247 0.950 . S
H250 C234 0.951 . S
H251 C236 0.951 . S
H252 C238 0.951 . S
H253 C239 0.950 . S
H254 C240 0.950 . S
H255 C241 0.950 . S
H256 C243 0.950 . S
H257 C244 0.951 . S
C258 C259 1.386 . S
C258 C260 1.383 . S
C258 H274 0.951 . S
C259 C258 1.386 . S
C259 C263 1.383 . S
C260 C258 1.383 . S
C260 C261 1.402 . S
C260 H275 0.951 . S
C261 C260 1.402 . S
C261 C262 1.375 . S
C261 C264 1.481 . S
C262 C261 1.375 . S
C262 C263 1.367 . S
C262 H276 0.951 . S
C263 C259 1.383 . S
C263 C262 1.367 . S
C263 H277 0.950 1_455 S
C264 C261 1.481 . S
C264 C265 1.297 . S
C264 H278 0.950 . S
C265 C264 1.297 . S
C265 C266 1.479 . S
C265 H279 0.950 . S
C266 C265 1.479 . S
C266 C267 1.375 . S
C266 C272 1.404 . S
C267 C266 1.375 . S
C267 C268 1.369 . S
C267 H280 0.950 . S
C268 C267 1.369 . S
C268 C269 1.392 . S
C268 H281 0.951 . S
C269 C268 1.392 . S
C269 C271 1.384 . S
H270 C272 0.949 . S
C271 C269 1.384 . S
C271 C272 1.385 . S
C271 H273 0.950 . S
C272 C266 1.404 . S
C272 H270 0.949 . S
C272 C271 1.385 . S
H273 C271 0.950 . S
H274 C258 0.951 . S
H275 C260 0.951 . S
H276 C262 0.951 . S
H277 C263 0.950 1_655 S
H278 C264 0.950 . S
H279 C265 0.950 . S
H280 C267 0.950 . S
H281 C268 0.951 . S
C282 C283 1.386 . S
C282 C284 1.383 . S
C282 H298 0.951 . S
C283 C282 1.386 . S
C283 C287 1.383 . S
C284 C282 1.383 . S
C284 C285 1.402 . S
C284 H299 0.951 . S
C285 C284 1.402 . S
C285 C286 1.375 . S
C285 C288 1.481 . S
C286 C285 1.375 . S
C286 C287 1.367 . S
C286 H300 0.951 . S
C287 C283 1.383 . S
C287 C286 1.367 . S
C287 H301 0.950 . S
C288 C285 1.481 . S
C288 C289 1.297 . S
C288 H302 0.950 . S
C289 C288 1.297 . S
C289 C290 1.479 . S
C289 H303 0.950 . S
C290 C289 1.479 . S
C290 C291 1.375 . S
C290 C296 1.404 . S
C291 C290 1.375 . S
C291 C292 1.369 . S
C291 H304 0.950 . S
C292 C291 1.369 . S
C292 C293 1.392 . S
C292 H305 0.951 . S
C293 C292 1.392 . S
C293 C295 1.384 . S
H294 C296 0.949 . S
C295 C293 1.384 . S
C295 C296 1.385 . S
C295 H297 0.950 . S
C296 C290 1.404 . S
C296 H294 0.949 . S
C296 C295 1.385 . S
H297 C295 0.950 . S
H298 C282 0.951 . S
H299 C284 0.951 . S
H300 C286 0.951 . S
H301 C287 0.950 . S
H302 C288 0.950 . S
H303 C289 0.950 . S
H304 C291 0.950 . S
H305 C292 0.951 . S
C306 C307 1.386 . S
C306 C308 1.383 . S
C306 H322 0.951 . S
C307 C306 1.386 . S
C307 C311 1.383 . S
C308 C306 1.383 . S
C308 C309 1.402 . S
C308 H323 0.951 . S
C309 C308 1.402 . S
C309 C310 1.375 . S
C309 C312 1.481 . S
C310 C309 1.375 . S
C310 C311 1.367 . S
C310 H324 0.951 . S
C311 C307 1.383 . S
C311 C310 1.367 . S
C311 H325 0.950 . S
C312 C309 1.481 . S
C312 C313 1.297 . S
C312 H326 0.950 . S
C313 C312 1.297 . S
C313 C314 1.479 . S
C313 H327 0.950 . S
C314 C313 1.479 . S
C314 C315 1.375 . S
C314 C320 1.404 . S
C315 C314 1.375 . S
C315 C316 1.369 . S
C315 H328 0.950 . S
C316 C315 1.369 . S
C316 C317 1.392 . S
C316 H329 0.951 . S
C317 C316 1.392 . S
C317 C319 1.384 . S
H318 C320 0.949 . S
C319 C317 1.384 . S
C319 C320 1.385 . S
C319 H321 0.950 . S
C320 C314 1.404 . S
C320 H318 0.949 . S
C320 C319 1.385 . S
H321 C319 0.950 . S
H322 C306 0.951 . S
H323 C308 0.951 . S
H324 C310 0.951 . S
H325 C311 0.950 . S
H326 C312 0.950 . S
H327 C313 0.950 . S
H328 C315 0.950 . S
H329 C316 0.951 . S
C330 C331 1.386 . S
C330 C332 1.383 . S
C330 H346 0.951 . S
C331 C330 1.386 . S
C331 C335 1.383 . S
C332 C330 1.383 . S
C332 C333 1.402 . S
C332 H347 0.951 . S
C333 C332 1.402 . S
C333 C334 1.375 . S
C333 C336 1.481 . S
C334 C333 1.375 . S
C334 C335 1.367 . S
C334 H348 0.951 . S
C335 C331 1.383 . S
C335 C334 1.367 . S
C335 H349 0.950 . S
C336 C333 1.481 . S
C336 C337 1.297 . S
C336 H350 0.950 . S
C337 C336 1.297 . S
C337 C338 1.479 . S
C337 H351 0.950 . S
C338 C337 1.479 . S
C338 C339 1.375 . S
C338 C344 1.404 . S
C339 C338 1.375 . S
C339 C340 1.369 . S
C339 H352 0.950 . S
C340 C339 1.369 . S
C340 C341 1.392 . S
C340 H353 0.951 . S
C341 C340 1.392 . S
C341 C343 1.384 . S
H342 C344 0.949 . S
C343 C341 1.384 . S
C343 C344 1.385 . S
C343 H345 0.950 . S
C344 C338 1.404 . S
C344 H342 0.949 . S
C344 C343 1.385 . S
H345 C343 0.950 . S
H346 C330 0.951 . S
H347 C332 0.951 . S
H348 C334 0.951 . S
H349 C335 0.950 . S
H350 C336 0.950 . S
H351 C337 0.950 . S
H352 C339 0.950 . S
H353 C340 0.951 . S
C354 C355 1.386 . S
C354 C356 1.383 . S
C354 H370 0.951 . S
C355 C354 1.386 . S
C355 C359 1.383 . S
C356 C354 1.383 . S
C356 C357 1.402 . S
C356 H371 0.951 . S
C357 C356 1.402 . S
C357 C358 1.375 . S
C357 C360 1.481 . S
C358 C357 1.375 . S
C358 C359 1.367 . S
C358 H372 0.951 . S
C359 C355 1.383 . S
C359 C358 1.367 . S
C359 H373 0.950 . S
C360 C357 1.481 . S
C360 C361 1.297 . S
C360 H374 0.950 . S
C361 C360 1.297 . S
C361 C362 1.479 . S
C361 H375 0.950 . S
C362 C361 1.479 . S
C362 C363 1.375 . S
C362 C368 1.404 . S
C363 C362 1.375 . S
C363 C364 1.369 . S
C363 H376 0.950 . S
C364 C363 1.369 . S
C364 C365 1.392 . S
C364 H377 0.951 . S
C365 C364 1.392 . S
C365 C367 1.384 . S
H366 C368 0.949 . S
C367 C365 1.384 . S
C367 C368 1.385 . S
C367 H369 0.950 . S
C368 C362 1.404 . S
C368 H366 0.949 . S
C368 C367 1.385 . S
H369 C367 0.950 . S
H370 C354 0.951 . S
H371 C356 0.951 . S
H372 C358 0.951 . S
H373 C359 0.950 . S
H374 C360 0.950 . S
H375 C361 0.950 . S
H376 C363 0.950 . S
H377 C364 0.951 . S
C378 C379 1.386 . S
C378 C380 1.383 . S
C378 H394 0.951 . S
C379 C378 1.386 . S
C379 C383 1.383 . S
C380 C378 1.383 . S
C380 C381 1.402 . S
C380 H395 0.951 . S
C381 C380 1.402 . S
C381 C382 1.375 . S
C381 C384 1.481 . S
C382 C381 1.375 . S
C382 C383 1.367 . S
C382 H396 0.951 . S
C383 C379 1.383 . S
C383 C382 1.367 . S
C383 H397 0.950 1_545 S
C384 C381 1.481 . S
C384 C385 1.297 . S
C384 H398 0.950 . S
C385 C384 1.297 . S
C385 C386 1.479 . S
C385 H399 0.950 . S
C386 C385 1.479 . S
C386 C387 1.375 . S
C386 C392 1.404 . S
C387 C386 1.375 . S
C387 C388 1.369 . S
C387 H400 0.950 . S
C388 C387 1.369 . S
C388 C389 1.392 . S
C388 H401 0.951 . S
C389 C388 1.392 . S
C389 C391 1.384 . S
H390 C392 0.949 . S
C391 C389 1.384 . S
C391 C392 1.385 . S
C391 H393 0.950 . S
C392 C386 1.404 . S
C392 H390 0.949 . S
C392 C391 1.385 . S
H393 C391 0.950 . S
H394 C378 0.951 . S
H395 C380 0.951 . S
H396 C382 0.951 . S
H397 C383 0.950 1_565 S
H398 C384 0.950 . S
H399 C385 0.950 . S
H400 C387 0.950 . S
H401 C388 0.951 . S
C402 C403 1.386 . S
C402 C404 1.383 . S
C402 H418 0.951 . S
C403 C402 1.386 . S
C403 C407 1.383 . S
C404 C402 1.383 . S
C404 C405 1.402 . S
C404 H419 0.951 . S
C405 C404 1.402 . S
C405 C406 1.375 . S
C405 C408 1.481 . S
C406 C405 1.375 . S
C406 C407 1.367 . S
C406 H420 0.951 . S
C407 C403 1.383 . S
C407 C406 1.367 . S
C407 H421 0.950 1_455 S
C408 C405 1.481 . S
C408 C409 1.297 . S
C408 H422 0.950 . S
C409 C408 1.297 . S
C409 C410 1.479 . S
C409 H423 0.950 . S
C410 C409 1.479 . S
C410 C411 1.375 . S
C410 C416 1.404 . S
C411 C410 1.375 . S
C411 C412 1.369 . S
C411 H424 0.950 . S
C412 C411 1.369 . S
C412 C413 1.392 . S
C412 H425 0.951 . S
C413 C412 1.392 . S
C413 C415 1.384 . S
H414 C416 0.949 . S
C415 C413 1.384 . S
C415 C416 1.385 . S
C415 H417 0.950 . S
C416 C410 1.404 . S
C416 H414 0.949 . S
C416 C415 1.385 . S
H417 C415 0.950 . S
H418 C402 0.951 . S
H419 C404 0.951 . S
H420 C406 0.951 . S
H421 C407 0.950 1_655 S
H422 C408 0.950 . S
H423 C409 0.950 . S
H424 C411 0.950 . S
H425 C412 0.951 . S
C426 C427 1.386 . S
C426 C428 1.383 . S
C426 H442 0.951 . S
C427 C426 1.386 . S
C427 C431 1.383 . S
C428 C426 1.383 . S
C428 C429 1.402 . S
C428 H443 0.951 . S
C429 C428 1.402 . S
C429 C430 1.375 . S
C429 C432 1.481 . S
C430 C429 1.375 . S
C430 C431 1.367 . S
C430 H444 0.951 . S
C431 C427 1.383 . S
C431 C430 1.367 . S
C431 H445 0.950 . S
C432 C429 1.481 . S
C432 C433 1.297 . S
C432 H446 0.950 . S
C433 C432 1.297 . S
C433 C434 1.479 . S
C433 H447 0.950 . S
C434 C433 1.479 . S
C434 C435 1.375 . S
C434 C440 1.404 . S
C435 C434 1.375 . S
C435 C436 1.369 . S
C435 H448 0.950 . S
C436 C435 1.369 . S
C436 C437 1.392 . S
C436 H449 0.951 . S
C437 C436 1.392 . S
C437 C439 1.384 . S
H438 C440 0.949 . S
C439 C437 1.384 . S
C439 C440 1.385 . S
C439 H441 0.950 . S
C440 C434 1.404 . S
C440 H438 0.949 . S
C440 C439 1.385 . S
H441 C439 0.950 . S
H442 C426 0.951 . S
H443 C428 0.951 . S
H444 C430 0.951 . S
H445 C431 0.950 . S
H446 C432 0.950 . S
H447 C433 0.950 . S
H448 C435 0.950 . S
H449 C436 0.951 . S
C450 C451 1.386 . S
C450 C452 1.383 . S
C450 H466 0.951 . S
C451 C450 1.386 . S
C451 C455 1.383 . S
C452 C450 1.383 . S
C452 C453 1.402 . S
C452 H467 0.951 . S
C453 C452 1.402 . S
C453 C454 1.375 . S
C453 C456 1.481 . S
C454 C453 1.375 . S
C454 C455 1.367 . S
C454 H468 0.951 . S
C455 C451 1.383 . S
C455 C454 1.367 . S
C455 H469 0.950 . S
C456 C453 1.481 . S
C456 C457 1.297 . S
C456 H470 0.950 . S
C457 C456 1.297 . S
C457 C458 1.479 . S
C457 H471 0.950 . S
C458 C457 1.479 . S
C458 C459 1.375 . S
C458 C464 1.404 . S
C459 C458 1.375 . S
C459 C460 1.369 . S
C459 H472 0.950 . S
C460 C459 1.369 . S
C460 C461 1.392 . S
C460 H473 0.951 . S
C461 C460 1.392 . S
C461 C463 1.384 . S
H462 C464 0.949 . S
C463 C461 1.384 . S
C463 C464 1.385 . S
C463 H465 0.950 . S
C464 C458 1.404 . S
C464 H462 0.949 . S
C464 C463 1.385 . S
H465 C463 0.950 . S
H466 C450 0.951 . S
H467 C452 0.951 . S
H468 C454 0.951 . S
H469 C455 0.950 . S
H470 C456 0.950 . S
H471 C457 0.950 . S
H472 C459 0.950 . S
H473 C460 0.951 . S
C474 C475 1.386 . S
C474 C476 1.383 . S
C474 H490 0.951 . S
C475 C474 1.386 . S
C475 C479 1.383 . S
C476 C474 1.383 . S
C476 C477 1.402 . S
C476 H491 0.951 . S
C477 C476 1.402 . S
C477 C478 1.375 . S
C477 C480 1.481 . S
C478 C477 1.375 . S
C478 C479 1.367 . S
C478 H492 0.951 . S
C479 C475 1.383 . S
C479 C478 1.367 . S
C479 H493 0.950 . S
C480 C477 1.481 . S
C480 C481 1.297 . S
C480 H494 0.950 . S
C481 C480 1.297 . S
C481 C482 1.479 . S
C481 H495 0.950 . S
C482 C481 1.479 . S
C482 C483 1.375 . S
C482 C488 1.404 . S
C483 C482 1.375 . S
C483 C484 1.369 . S
C483 H496 0.950 . S
C484 C483 1.369 . S
C484 C485 1.392 . S
C484 H497 0.951 . S
C485 C484 1.392 . S
C485 C487 1.384 . S
H486 C488 0.949 . S
C487 C485 1.384 . S
C487 C488 1.385 . S
C487 H489 0.950 . S
C488 C482 1.404 . S
C488 H486 0.949 . S
C488 C487 1.385 . S
H489 C487 0.950 . S
H490 C474 0.951 . S
H491 C476 0.951 . S
H492 C478 0.951 . S
H493 C479 0.950 . S
H494 C480 0.950 . S
H495 C481 0.950 . S
H496 C483 0.950 . S
H497 C484 0.951 . S
C211 C58 1.203 . S
C221 C187 1.270 . S
C235 C151 1.532 . S
C245 C193 1.426 . S
C259 C74 1.561 . S
C269 C184 1.380 . S
C283 C142 1.105 . S
C293 C209 1.172 . S
C307 C67 1.568 . S
C317 C175 1.348 . S
C341 C192 1.456 . S
C331 C158 1.521 . S
C355 C154 1.124 . S
C365 C188 1.331 . S
C389 C205 1.397 . S
C379 C56 1.553 . S
C413 C172 1.442 . S
C403 C147 1.556 . S
C437 C208 1.328 . S
C427 C70 1.079 . S
C461 C171 1.425 . S
C451 C140 1.543 . S
C485 C196 1.463 . S
C475 C63 1.555 . S
