# Generated by pormake.
# Topology ocu, (6,8)-cn, num edge types: 1
# Building blocks:
#     Node 0, Type 0, BuildingBlock: CUKXOW_clean_sbu_0, # of connection points: 6
#     Node 1, Type 0, BuildingBlock: CUKXOW_clean_sbu_0, # of connection points: 6
#     Node 2, Type 0, BuildingBlock: CUKXOW_clean_sbu_0, # of connection points: 6
#     Node 3, Type 0, BuildingBlock: CUKXOW_clean_sbu_0, # of connection points: 6
#     Node 4, Type 0, BuildingBlock: CUKXOW_clean_sbu_0, # of connection points: 6
#     Node 5, Type 0, BuildingBlock: CUKXOW_clean_sbu_0, # of connection points: 6
#     Node 6, Type 0, BuildingBlock: CUKXOW_clean_sbu_0, # of connection points: 6
#     Node 7, Type 0, BuildingBlock: CUKXOW_clean_sbu_0, # of connection points: 6
#     Node 8, Type 1, BuildingBlock: GIZVER_clean_sbu_0, # of connection points: 8
#     Node 9, Type 1, BuildingBlock: GIZVER_clean_sbu_0, # of connection points: 8
#     Node 10, Type 1, BuildingBlock: GIZVER_clean_sbu_0, # of connection points: 8
#     Node 11, Type 1, BuildingBlock: GIZVER_clean_sbu_0, # of connection points: 8
#     Node 12, Type 1, BuildingBlock: GIZVER_clean_sbu_0, # of connection points: 8
#     Node 13, Type 1, BuildingBlock: GIZVER_clean_sbu_0, # of connection points: 8
#     Edge 14, Type (0, 1), None
#     Edge 15, Type (0, 1), None
#     Edge 16, Type (0, 1), None
#     Edge 17, Type (0, 1), None
#     Edge 18, Type (0, 1), None
#     Edge 19, Type (0, 1), None
#     Edge 20, Type (0, 1), None
#     Edge 21, Type (0, 1), None
#     Edge 22, Type (0, 1), None
#     Edge 23, Type (0, 1), None
#     Edge 24, Type (0, 1), None
#     Edge 25, Type (0, 1), None
#     Edge 26, Type (0, 1), None
#     Edge 27, Type (0, 1), None
#     Edge 28, Type (0, 1), None
#     Edge 29, Type (0, 1), None
#     Edge 30, Type (0, 1), None
#     Edge 31, Type (0, 1), None
#     Edge 32, Type (0, 1), None
#     Edge 33, Type (0, 1), None
#     Edge 34, Type (0, 1), None
#     Edge 35, Type (0, 1), None
#     Edge 36, Type (0, 1), None
#     Edge 37, Type (0, 1), None
#     Edge 38, Type (0, 1), None
#     Edge 39, Type (0, 1), None
#     Edge 40, Type (0, 1), None
#     Edge 41, Type (0, 1), None
#     Edge 42, Type (0, 1), None
#     Edge 43, Type (0, 1), None
#     Edge 44, Type (0, 1), None
#     Edge 45, Type (0, 1), None
#     Edge 46, Type (0, 1), None
#     Edge 47, Type (0, 1), None
#     Edge 48, Type (0, 1), None
#     Edge 49, Type (0, 1), None
#     Edge 50, Type (0, 1), None
#     Edge 51, Type (0, 1), None
#     Edge 52, Type (0, 1), None
#     Edge 53, Type (0, 1), None
#     Edge 54, Type (0, 1), None
#     Edge 55, Type (0, 1), None
#     Edge 56, Type (0, 1), None
#     Edge 57, Type (0, 1), None
#     Edge 58, Type (0, 1), None
#     Edge 59, Type (0, 1), None
#     Edge 60, Type (0, 1), None
#     Edge 61, Type (0, 1), None
# Relax obj value: 0.150
# Max RMSD: 0.264
# Mean RMSD: 0.173
data_MOF--net-ocu--node1-CUKXOW_clean_sbu_0--node2-GIZVER_clean_sbu_0--edge1-none
_symmetry_space_group_name_H-M    P1
_symmetry_Int_Tables_number       1
_symmetry_cell_setting            triclinic
loop_
_symmetry_equiv_pos_as_xyz
'x, y, z'
_cell_length_a     20.258926
_cell_length_b     20.987824
_cell_length_c     15.511621
_cell_angle_alpha  92.623504
_cell_angle_beta   95.551152
_cell_angle_gamma 108.8441
loop_
_atom_site_label
_atom_site_type_symbol
_atom_site_fract_x
_atom_site_fract_y
_atom_site_fract_z
_atom_type_partial_charge
Tb0 Tb 0.27433 0.22719 0.1743 0.0
C1 C 0.40751 0.36736 0.15145 0.0
Tb2 Tb 0.30516 0.34769 0.29776 0.0
O3 O 0.18674 0.24866 0.09593 0.0
O4 O 0.27193 0.32434 0.16352 0.0
O5 O 0.37904 0.29871 0.13719 0.0
C6 C 0.24201 0.43558 0.31435 0.0
O7 O 0.38326 0.39919 0.21054 0.0
C8 C 0.37626 0.26648 0.34731 0.0
C9 C 0.18245 0.20837 0.33584 0.0
O10 O 0.30769 0.44755 0.34629 0.0
O11 O 0.21131 0.37302 0.28649 0.0
O12 O 0.39612 0.33073 0.37545 0.0
O13 O 0.31608 0.25295 0.30497 0.0
O14 O 0.22082 0.27293 0.36273 0.0
O15 O 0.18964 0.18261 0.25835 0.0
C16 C 0.28917 0.10877 0.13551 0.0
O17 O 0.27839 0.14991 0.07973 0.0
O18 O 0.28347 0.13261 0.21099 0.0
C19 C 0.21375 0.31364 0.11762 0.0
Tb20 Tb 0.76044 0.29392 0.30439 0.0
C21 C 0.66024 0.20244 0.188 0.0
Tb22 Tb 0.82801 0.29849 0.2224 0.0
O23 O 0.73185 0.38236 0.27218 0.0
O24 O 0.74127 0.3198 0.16768 0.0
O25 O 0.65529 0.23979 0.25385 0.0
C26 C 0.92275 0.37115 0.12756 0.0
O27 O 0.72507 0.21518 0.16256 0.0
C28 C 0.88368 0.233 0.33045 0.0
C29 C 0.86546 0.41399 0.37331 0.0
O30 O 0.90631 0.30603 0.13192 0.0
O31 O 0.882 0.3932 0.16962 0.0
O32 O 0.87078 0.21852 0.2466 0.0
O33 O 0.86036 0.28039 0.35288 0.0
O34 O 0.88387 0.39424 0.30124 0.0
O35 O 0.80711 0.37632 0.39885 0.0
C36 C 0.71005 0.18242 0.38086 0.0
O37 O 0.74877 0.18892 0.31846 0.0
O38 O 0.69655 0.23847 0.39973 0.0
C39 C 0.72509 0.37118 0.18788 0.0
Tb40 Tb 0.80382 0.83974 0.19264 0.0
C41 C 0.66977 0.71072 0.17996 0.0
Tb42 Tb 0.78249 0.74682 0.34227 0.0
O43 O 0.867 0.79741 0.11567 0.0
O44 O 0.82874 0.75273 0.22446 0.0
O45 O 0.69506 0.77483 0.16513 0.0
C46 C 0.80724 0.66654 0.45498 0.0
O47 O 0.69884 0.68475 0.24361 0.0
C48 C 0.73165 0.84689 0.37562 0.0
C49 C 0.92186 0.87186 0.34464 0.0
O50 O 0.76159 0.64636 0.3862 0.0
O51 O 0.836 0.73129 0.46127 0.0
O52 O 0.72724 0.79789 0.42504 0.0
O53 O 0.7596 0.8335 0.3108 0.0
O54 O 0.89366 0.80864 0.36407 0.0
O55 O 0.89242 0.89931 0.28313 0.0
C56 C 0.76083 0.90877 0.07852 0.0
O57 O 0.79171 0.93314 0.15621 0.0
O58 O 0.76732 0.85053 0.06153 0.0
C59 C 0.86157 0.74577 0.16075 0.0
Tb60 Tb 0.3049 0.85656 0.15647 0.0
C61 C 0.38426 0.9246 0.34198 0.0
Tb62 Tb 0.2861 0.76988 0.32075 0.0
O63 O 0.24009 0.91958 0.1981 0.0
O64 O 0.2579 0.8448 0.26652 0.0
O65 O 0.38412 0.92314 0.25611 0.0
C66 C 0.17071 0.71161 0.38918 0.0
O67 O 0.35114 0.87069 0.38354 0.0
C68 C 0.36506 0.73224 0.21293 0.0
C69 C 0.18693 0.7173 0.13918 0.0
O70 O 0.2341 0.71506 0.42276 0.0
O71 O 0.17525 0.74624 0.32258 0.0
O72 O 0.35183 0.70667 0.28756 0.0
O73 O 0.33855 0.77986 0.21104 0.0
O74 O 0.21347 0.70342 0.21479 0.0
O75 O 0.21113 0.77567 0.10358 0.0
C76 C 0.39453 0.88699 0.04461 0.0
O77 O 0.36708 0.82696 0.06831 0.0
O78 O 0.36207 0.92704 0.07233 0.0
C79 C 0.22959 0.88965 0.27072 0.0
Tb80 Tb 0.27313 0.78559 0.78248 0.0
C81 C 0.23553 0.66996 0.63196 0.0
Tb82 Tb 0.34035 0.78995 0.70126 0.0
O83 O 0.22973 0.86513 0.75861 0.0
O84 O 0.24079 0.80386 0.65195 0.0
O85 O 0.2171 0.68976 0.70395 0.0
C86 C 0.39077 0.90145 0.62471 0.0
O87 O 0.29394 0.70761 0.60658 0.0
C88 C 0.37583 0.71283 0.81788 0.0
C89 C 0.44085 0.88143 0.81704 0.0
O90 O 0.3519 0.89494 0.68698 0.0
O91 O 0.40441 0.84544 0.60609 0.0
O92 O 0.3689 0.7015 0.73359 0.0
O93 O 0.35958 0.76418 0.838 0.0
O94 O 0.4457 0.84395 0.75126 0.0
O95 O 0.37604 0.86883 0.84245 0.0
C96 C 0.17832 0.71288 0.87729 0.0
O97 O 0.19489 0.77803 0.8731 0.0
O98 O 0.21895 0.6908 0.83501 0.0
C99 C 0.21691 0.85079 0.67473 0.0
Tb100 Tb 0.31866 0.33731 0.663 0.0
C101 C 0.17924 0.21229 0.66055 0.0
Tb102 Tb 0.29725 0.2443 0.81261 0.0
O103 O 0.37375 0.28608 0.58016 0.0
O104 O 0.34164 0.25073 0.69459 0.0
O105 O 0.20747 0.27551 0.64114 0.0
C106 C 0.34011 0.17502 0.92648 0.0
O107 O 0.20867 0.1848 0.72202 0.0
C108 C 0.23947 0.33823 0.84445 0.0
C109 C 0.43133 0.37336 0.82546 0.0
O110 O 0.30924 0.15079 0.84874 0.0
O111 O 0.33366 0.23325 0.94366 0.0
O112 O 0.23408 0.28663 0.88958 0.0
O113 O 0.27222 0.33123 0.78067 0.0
O114 O 0.40597 0.30927 0.84038 0.0
O115 O 0.40233 0.39932 0.76171 0.0
C116 C 0.29395 0.41763 0.5503 0.0
O117 O 0.3395 0.4378 0.6192 0.0
O118 O 0.2653 0.35286 0.5439 0.0
C119 C 0.36939 0.23715 0.62969 0.0
Tb120 Tb 0.81478 0.31411 0.68441 0.0
C121 C 0.91403 0.36677 0.86595 0.0
Tb122 Tb 0.79606 0.22749 0.84883 0.0
O123 O 0.74964 0.37778 0.71825 0.0
O124 O 0.76182 0.30364 0.79369 0.0
O125 O 0.88753 0.38057 0.79028 0.0
C126 C 0.70645 0.19686 0.96063 0.0
O127 O 0.88976 0.30848 0.90169 0.0
C128 C 0.87153 0.19454 0.73468 0.0
C129 C 0.71667 0.15931 0.66334 0.0
O130 O 0.73398 0.25697 0.93723 0.0
O131 O 0.73888 0.15684 0.93275 0.0
O132 O 0.86114 0.1647 0.80737 0.0
O133 O 0.84296 0.2392 0.7387 0.0
O134 O 0.71697 0.16071 0.74924 0.0
O135 O 0.74966 0.21325 0.62173 0.0
C136 C 0.93018 0.37225 0.61593 0.0
O137 O 0.86678 0.36878 0.5823 0.0
O138 O 0.92561 0.33766 0.68258 0.0
C139 C 0.7361 0.35184 0.79259 0.0
Tb140 Tb 0.79595 0.73645 0.70766 0.0
C141 C 0.9186 0.87577 0.66949 0.0
Tb142 Tb 0.82678 0.85697 0.83109 0.0
O143 O 0.70503 0.75323 0.62986 0.0
O144 O 0.78501 0.83131 0.70036 0.0
O145 O 0.88024 0.8112 0.64263 0.0
C146 C 0.81203 0.97543 0.86981 0.0
O147 O 0.91142 0.90154 0.74697 0.0
C148 C 0.88742 0.77044 0.88752 0.0
C149 C 0.69362 0.71678 0.854 0.0
O150 O 0.8228 0.93431 0.92563 0.0
O151 O 0.81774 0.95157 0.79434 0.0
O152 O 0.91446 0.8354 0.90932 0.0
O153 O 0.82922 0.75997 0.84181 0.0
O154 O 0.72207 0.78543 0.86821 0.0
O155 O 0.7179 0.68495 0.79493 0.0
C156 C 0.85907 0.64852 0.69091 0.0
O157 O 0.79336 0.63657 0.65912 0.0
O158 O 0.88979 0.71108 0.71872 0.0
C159 C 0.72482 0.81749 0.6579 0.0
Co160 Co 0.12605 0.92537 0.42919 0.0
Co161 Co 0.11421 0.93089 0.57453 0.0
Co162 Co 0.05051 0.04208 0.50266 0.0
O163 O 0.12853 1.00146 0.50724 0.0
H164 H 0.17471 1.03471 0.52117 0.0
O165 O 0.97249 0.08269 0.49809 0.0
Co166 Co 0.97499 0.15881 0.5761 0.0
Co167 Co 0.98676 0.15322 0.43075 0.0
H168 H 0.92631 0.04944 0.48421 0.0
O169 O 0.17966 0.94442 0.6602 0.0
O170 O 0.15709 0.87353 0.53469 0.0
O171 O 1.0238 0.88569 0.60919 0.0
O172 O 0.98709 0.97384 0.58768 0.0
O173 O 0.1013 0.10633 0.60458 0.0
O174 O 0.97252 0.22345 0.65555 0.0
O175 O 0.88502 0.12788 0.60652 0.0
O176 O 0.07325 0.19742 0.56859 0.0
O177 O 0.11394 0.11032 0.41765 0.0
O178 O 0.07716 0.19841 0.39598 0.0
O179 O 0.94382 0.21058 0.47054 0.0
O180 O 0.92122 0.13957 0.34515 0.0
C181 C 0.19026 0.90321 0.34252 0.0
C182 C 0.98718 0.914 0.39562 0.0
C183 C 0.9789 0.9145 0.61837 0.0
C184 C 0.18423 0.89129 0.618 0.0
C185 C 0.91084 0.18098 0.66284 0.0
C186 C 0.11388 0.17017 0.6096 0.0
C187 C 0.1221 0.16963 0.3869 0.0
C188 C 0.91657 0.19269 0.38727 0.0
O189 O 0.12855 0.86075 0.34974 0.0
O190 O 0.21605 0.95629 0.39886 0.0
O191 O 0.9997 0.97783 0.40072 0.0
O192 O 1.02781 0.88676 0.43664 0.0
Co193 Co 0.65671 0.98102 0.90938 0.0
Co194 Co 0.60194 0.92378 0.02955 0.0
Co195 Co 0.5505 0.0419 1.00257 0.0
O196 O 0.62678 1.00994 0.0045 0.0
H197 H 0.66612 1.03652 0.0455 0.0
O198 O 0.47419 0.07385 1.00065 0.0
Co199 Co 0.44438 0.10296 0.09574 0.0
Co200 Co 0.49899 0.15995 0.97533 0.0
H201 H 0.43482 0.04718 0.95978 0.0
O202 O 0.65696 0.91858 0.11908 0.0
O203 O 0.66538 0.90298 0.97297 0.0
O204 O 0.50218 0.87379 0.01848 0.0
O205 O 0.50214 0.97177 0.07556 0.0
O206 O 0.60521 0.09943 0.10688 0.0
O207 O 0.40602 0.12567 0.18096 0.0
O208 O 0.35455 0.05653 0.05988 0.0
O209 O 0.53759 0.15819 0.1427 0.0
O210 O 0.59886 0.11204 0.92957 0.0
O211 O 0.59872 0.21004 0.98643 0.0
O212 O 0.43565 0.18088 0.03192 0.0
O213 O 0.44388 0.16501 0.8858 0.0
C214 C 0.75111 0.99457 0.87511 0.0
C215 C 0.5039 0.93407 0.85934 0.0
C216 C 0.46903 0.91233 0.04214 0.0
C217 C 0.69255 0.9131 0.05483 0.0
C218 C 0.35004 0.08957 0.13015 0.0
C219 C 0.59719 0.14984 0.14563 0.0
C220 C 0.63193 0.1715 0.96295 0.0
C221 C 0.40837 0.17063 0.9501 0.0
O222 O 0.69519 0.95851 0.82416 0.0
O223 O 0.74648 1.02746 0.94544 0.0
O224 O 0.49582 0.98438 0.89825 0.0
O225 O 0.56353 0.92579 0.86222 0.0
Co226 Co 0.12651 0.4193 0.92035 0.0
Co227 Co 0.12897 0.43431 0.07645 0.0
Co228 Co 0.05054 0.54203 1.00251 0.0
O229 O 0.13053 0.49896 0.99908 0.0
H230 H 0.17637 0.53323 0.00514 0.0
O231 O 0.97053 0.58508 0.00598 0.0
Co232 Co 0.97454 0.66471 0.08475 0.0
Co233 Co 0.9721 0.64974 0.92862 0.0
H234 H 0.92469 0.55081 0.9999 0.0
O235 O 0.21082 0.42681 0.13121 0.0
O236 O 0.13997 0.36002 0.01849 0.0
O237 O 1.03985 0.39378 0.11003 0.0
O238 O 0.99233 0.47401 0.07865 0.0
O239 O 0.10566 0.6063 0.10392 0.0
O240 O 0.97302 0.73221 0.15941 0.0
O241 O 0.88064 0.6453 0.0983 0.0
O242 O 0.07207 0.6967 0.08211 0.0
O243 O 0.10875 0.61005 0.92636 0.0
O244 O 0.06124 0.6903 0.89501 0.0
O245 O 0.96108 0.72399 0.98664 0.0
O246 O 0.89021 0.65721 0.87392 0.0
C247 C 0.19554 0.38161 0.85762 0.0
C248 C 0.9818 0.41376 0.90284 0.0
C249 C 0.98846 0.41536 0.10306 0.0
C250 C 0.18792 0.36921 0.08564 0.0
C251 C 0.9055 0.70239 0.14756 0.0
C252 C 0.11921 0.67029 0.10221 0.0
C253 C 0.11262 0.6687 0.90193 0.0
C254 C 0.91313 0.7148 0.91949 0.0
O255 O 0.12802 0.3518 0.84573 0.0
O256 O 0.2204 0.43871 0.90685 0.0
O257 O 0.9954 0.47775 0.90111 0.0
O258 O 1.02893 0.38732 0.92294 0.0
Co259 Co 0.62905 0.41682 0.93139 0.0
Co260 Co 0.61053 0.43274 0.07519 0.0
Co261 Co 0.55057 0.54205 0.00272 0.0
O262 O 0.62932 0.50001 1.00029 0.0
H263 H 0.6756 0.53268 0.01608 0.0
O264 O 0.47182 0.58407 0.00517 0.0
Co265 Co 0.47211 0.66723 0.07418 0.0
Co266 Co 0.4906 0.6514 0.93038 0.0
H267 H 0.42553 0.55141 0.98938 0.0
O268 O 0.67235 0.45382 0.16613 0.0
O269 O 0.65729 0.37695 0.04786 0.0
O270 O 0.51773 0.38044 0.09957 0.0
O271 O 0.48314 0.46959 0.08092 0.0
O272 O 0.60029 0.60446 0.10862 0.0
O273 O 0.46962 0.74211 0.14114 0.0
O274 O 0.3789 0.64837 0.10134 0.0
O275 O 0.57228 0.69668 0.07328 0.0
O276 O 0.618 0.61452 0.92452 0.0
O277 O 0.58339 0.70367 0.9059 0.0
O278 O 0.44382 0.70716 0.95781 0.0
O279 O 0.42872 0.63031 0.83951 0.0
C280 C 0.69675 0.37629 0.8593 0.0
C281 C 0.49236 0.41618 0.88506 0.0
C282 C 0.47179 0.40817 0.1065 0.0
C283 C 0.6847 0.40273 0.129 0.0
C284 C 0.40446 0.70773 0.14636 0.0
C285 C 0.60875 0.66789 0.12038 0.0
C286 C 0.62934 0.67595 0.89894 0.0
C287 C 0.41634 0.68136 0.8767 0.0
O288 O 0.63159 0.3419 0.86454 0.0
O289 O 0.72228 0.43567 0.90427 0.0
O290 O 0.50085 0.47962 0.89682 0.0
O291 O 0.52883 0.38738 0.93216 0.0
Co292 Co 0.19497 0.51206 0.48682 0.0
Co293 Co 0.12716 0.52351 0.34096 0.0
Co294 Co 0.05049 0.54196 0.50263 0.0
O295 O 0.09995 0.49136 0.44335 0.0
H296 H 0.07411 0.44355 0.4341 0.0
O297 O 1.00106 0.59258 0.56191 0.0
Co298 Co 0.90607 0.57197 0.51842 0.0
Co299 Co 0.97381 0.56046 0.66429 0.0
H300 H 1.02693 0.64038 0.57119 0.0
O301 O 0.14396 0.46538 0.26222 0.0
O302 O 0.21974 0.53106 0.37171 0.0
O303 O 0.1159 0.60765 0.31796 0.0
O304 O 0.09419 0.62791 0.45206 0.0
O305 O 0.97116 0.50763 0.40561 0.0
O306 O 0.81837 0.56035 0.47801 0.0
O307 O 0.90829 0.65528 0.52938 0.0
O308 O 0.894 0.48428 0.49911 0.0
O309 O 1.00677 0.456 0.55318 0.0
O310 O 0.9849 0.47625 0.68722 0.0
O311 O 0.88126 0.553 0.63353 0.0
O312 O 0.95708 0.61864 0.74302 0.0
C313 C 0.25631 0.45865 0.51387 0.0
C314 C 0.19024 0.61052 0.5797 0.0
C315 C 0.11571 0.64781 0.38149 0.0
C316 C 0.20387 0.48283 0.31114 0.0
C317 C 0.84481 0.62546 0.4914 0.0
C318 C 0.91075 0.47345 0.42554 0.0
C319 C 0.98514 0.43609 0.62371 0.0
C320 C 0.89718 0.60124 0.69409 0.0
O321 O 0.2827 0.52377 0.52723 0.0
O322 O 0.19284 0.42877 0.47589 0.0
O323 O 0.12983 0.57631 0.59964 0.0
O324 O 0.20697 0.59973 0.50612 0.0
Co325 Co 0.66805 0.9525 0.56664 0.0
Co326 Co 0.65556 0.97747 0.40915 0.0
Co327 Co 0.55042 0.04193 0.50273 0.0
O328 O 0.5903 0.96402 0.48819 0.0
H329 H 0.55339 0.92135 0.47215 0.0
O330 O 0.51053 0.11984 0.51723 0.0
Co331 Co 0.43282 0.13137 0.43869 0.0
Co332 Co 0.44521 0.10638 0.59617 0.0
H333 H 0.54744 0.16251 0.53331 0.0
O334 O 0.65454 0.90815 0.33163 0.0
O335 O 0.72105 0.94372 0.46273 0.0
O336 O 0.69612 0.06871 0.38599 0.0
O337 O 0.62076 0.11008 0.44552 0.0
O338 O 0.49019 1.00954 0.39157 0.0
O339 O 0.36556 0.14938 0.36675 0.0
O340 O 0.46098 0.22631 0.43876 0.0
O341 O 0.39261 1.03017 0.41956 0.0
O342 O 0.48006 0.97378 0.55997 0.0
O343 O 0.40465 1.01515 0.61939 0.0
O344 O 0.3798 0.14022 0.54256 0.0
O345 O 0.44629 0.17569 0.6737 0.0
C346 C 0.69792 0.8712 0.62012 0.0
C347 C 0.6769 0.09391 0.61442 0.0
C348 C 0.67478 0.11699 0.4076 0.0
C349 C 0.70189 0.90249 0.3907 0.0
C350 C 0.40302 0.21268 0.3851 0.0
C351 C 0.42397 0.98998 0.39094 0.0
C352 C 0.42603 0.96687 0.59789 0.0
C353 C 0.399 0.18144 0.61462 0.0
O354 O 0.73534 0.93451 0.63849 0.0
O355 O 0.63994 0.85754 0.56652 0.0
O356 O 0.61069 0.07434 0.61387 0.0
O357 O 0.70824 0.0537 0.58579 0.0
loop_
_geom_bond_atom_site_label_1
_geom_bond_atom_site_label_2
_geom_bond_distance
_geom_bond_site_symmetry_2
_ccdc_geom_bond_type
Tb0 O3 2.453 . S
Tb0 O4 2.596 . S
Tb0 O5 2.374 . S
Tb0 O13 2.343 . S
Tb0 O15 2.353 . S
Tb0 O17 2.427 . S
Tb0 O18 2.513 . S
C1 O5 1.251 . S
C1 O7 1.263 . S
Tb2 O4 2.343 . S
Tb2 O7 2.353 . S
Tb2 O10 2.427 . S
Tb2 O11 2.513 . S
Tb2 O12 2.453 . S
Tb2 O13 2.596 . S
Tb2 O14 2.374 . S
O3 Tb0 2.453 . S
O3 C19 1.245 . S
O4 Tb0 2.596 . S
O4 Tb2 2.343 . S
O4 C19 1.259 . S
O5 Tb0 2.374 . S
O5 C1 1.251 . S
C6 O10 1.275 . S
C6 O11 1.246 . S
O7 C1 1.263 . S
O7 Tb2 2.353 . S
C8 O12 1.245 . S
C8 O13 1.259 . S
C9 O14 1.250 . S
C9 O15 1.263 . S
O10 Tb2 2.427 . S
O10 C6 1.275 . S
O11 Tb2 2.513 . S
O11 C6 1.246 . S
O12 Tb2 2.453 . S
O12 C8 1.245 . S
O13 Tb0 2.343 . S
O13 Tb2 2.596 . S
O13 C8 1.259 . S
O14 Tb2 2.374 . S
O14 C9 1.250 . S
O15 Tb0 2.353 . S
O15 C9 1.263 . S
C16 O17 1.275 . S
C16 O18 1.246 . S
O17 Tb0 2.427 . S
O17 C16 1.275 . S
O18 Tb0 2.513 . S
O18 C16 1.246 . S
C19 O3 1.245 . S
C19 O4 1.259 . S
Tb20 O23 2.453 . S
Tb20 O24 2.596 . S
Tb20 O25 2.374 . S
Tb20 O33 2.343 . S
Tb20 O35 2.353 . S
Tb20 O37 2.427 . S
Tb20 O38 2.513 . S
C21 O25 1.251 . S
C21 O27 1.263 . S
Tb22 O24 2.343 . S
Tb22 O27 2.353 . S
Tb22 O30 2.427 . S
Tb22 O31 2.513 . S
Tb22 O32 2.453 . S
Tb22 O33 2.596 . S
Tb22 O34 2.374 . S
O23 Tb20 2.453 . S
O23 C39 1.245 . S
O24 Tb20 2.596 . S
O24 Tb22 2.343 . S
O24 C39 1.259 . S
O25 Tb20 2.374 . S
O25 C21 1.251 . S
C26 O30 1.275 . S
C26 O31 1.246 . S
O27 C21 1.263 . S
O27 Tb22 2.353 . S
C28 O32 1.245 . S
C28 O33 1.259 . S
C29 O34 1.250 . S
C29 O35 1.263 . S
O30 Tb22 2.427 . S
O30 C26 1.275 . S
O31 Tb22 2.513 . S
O31 C26 1.246 . S
O32 Tb22 2.453 . S
O32 C28 1.245 . S
O33 Tb20 2.343 . S
O33 Tb22 2.596 . S
O33 C28 1.259 . S
O34 Tb22 2.374 . S
O34 C29 1.250 . S
O35 Tb20 2.353 . S
O35 C29 1.263 . S
C36 O37 1.275 . S
C36 O38 1.246 . S
O37 Tb20 2.427 . S
O37 C36 1.275 . S
O38 Tb20 2.513 . S
O38 C36 1.246 . S
C39 O23 1.245 . S
C39 O24 1.259 . S
Tb40 O43 2.453 . S
Tb40 O44 2.596 . S
Tb40 O45 2.374 . S
Tb40 O53 2.343 . S
Tb40 O55 2.353 . S
Tb40 O57 2.427 . S
Tb40 O58 2.513 . S
C41 O45 1.251 . S
C41 O47 1.263 . S
Tb42 O44 2.343 . S
Tb42 O47 2.353 . S
Tb42 O50 2.427 . S
Tb42 O51 2.513 . S
Tb42 O52 2.453 . S
Tb42 O53 2.596 . S
Tb42 O54 2.374 . S
O43 Tb40 2.453 . S
O43 C59 1.245 . S
O44 Tb40 2.596 . S
O44 Tb42 2.343 . S
O44 C59 1.259 . S
O45 Tb40 2.374 . S
O45 C41 1.251 . S
C46 O50 1.275 . S
C46 O51 1.246 . S
O47 C41 1.263 . S
O47 Tb42 2.353 . S
C48 O52 1.245 . S
C48 O53 1.259 . S
C49 O54 1.250 . S
C49 O55 1.263 . S
O50 Tb42 2.427 . S
O50 C46 1.275 . S
O51 Tb42 2.513 . S
O51 C46 1.246 . S
O52 Tb42 2.453 . S
O52 C48 1.245 . S
O53 Tb40 2.343 . S
O53 Tb42 2.596 . S
O53 C48 1.259 . S
O54 Tb42 2.374 . S
O54 C49 1.250 . S
O55 Tb40 2.353 . S
O55 C49 1.263 . S
C56 O57 1.275 . S
C56 O58 1.246 . S
O57 Tb40 2.427 . S
O57 C56 1.275 . S
O58 Tb40 2.513 . S
O58 C56 1.246 . S
C59 O43 1.245 . S
C59 O44 1.259 . S
Tb60 O63 2.453 . S
Tb60 O64 2.596 . S
Tb60 O65 2.374 . S
Tb60 O73 2.343 . S
Tb60 O75 2.353 . S
Tb60 O77 2.427 . S
Tb60 O78 2.513 . S
C61 O65 1.251 . S
C61 O67 1.263 . S
Tb62 O64 2.343 . S
Tb62 O67 2.353 . S
Tb62 O70 2.427 . S
Tb62 O71 2.513 . S
Tb62 O72 2.453 . S
Tb62 O73 2.596 . S
Tb62 O74 2.374 . S
O63 Tb60 2.453 . S
O63 C79 1.245 . S
O64 Tb60 2.596 . S
O64 Tb62 2.343 . S
O64 C79 1.259 . S
O65 Tb60 2.374 . S
O65 C61 1.251 . S
C66 O70 1.275 . S
C66 O71 1.246 . S
O67 C61 1.263 . S
O67 Tb62 2.353 . S
C68 O72 1.245 . S
C68 O73 1.259 . S
C69 O74 1.250 . S
C69 O75 1.263 . S
O70 Tb62 2.427 . S
O70 C66 1.275 . S
O71 Tb62 2.513 . S
O71 C66 1.246 . S
O72 Tb62 2.453 . S
O72 C68 1.245 . S
O73 Tb60 2.343 . S
O73 Tb62 2.596 . S
O73 C68 1.259 . S
O74 Tb62 2.374 . S
O74 C69 1.250 . S
O75 Tb60 2.353 . S
O75 C69 1.263 . S
C76 O77 1.275 . S
C76 O78 1.246 . S
O77 Tb60 2.427 . S
O77 C76 1.275 . S
O78 Tb60 2.513 . S
O78 C76 1.246 . S
C79 O63 1.245 . S
C79 O64 1.259 . S
Tb80 O83 2.453 . S
Tb80 O84 2.596 . S
Tb80 O85 2.374 . S
Tb80 O93 2.343 . S
Tb80 O95 2.353 . S
Tb80 O97 2.427 . S
Tb80 O98 2.513 . S
C81 O85 1.251 . S
C81 O87 1.263 . S
Tb82 O84 2.343 . S
Tb82 O87 2.353 . S
Tb82 O90 2.427 . S
Tb82 O91 2.513 . S
Tb82 O92 2.453 . S
Tb82 O93 2.596 . S
Tb82 O94 2.374 . S
O83 Tb80 2.453 . S
O83 C99 1.245 . S
O84 Tb80 2.596 . S
O84 Tb82 2.343 . S
O84 C99 1.259 . S
O85 Tb80 2.374 . S
O85 C81 1.251 . S
C86 O90 1.275 . S
C86 O91 1.246 . S
O87 C81 1.263 . S
O87 Tb82 2.353 . S
C88 O92 1.245 . S
C88 O93 1.259 . S
C89 O94 1.250 . S
C89 O95 1.263 . S
O90 Tb82 2.427 . S
O90 C86 1.275 . S
O91 Tb82 2.513 . S
O91 C86 1.246 . S
O92 Tb82 2.453 . S
O92 C88 1.245 . S
O93 Tb80 2.343 . S
O93 Tb82 2.596 . S
O93 C88 1.259 . S
O94 Tb82 2.374 . S
O94 C89 1.250 . S
O95 Tb80 2.353 . S
O95 C89 1.263 . S
C96 O97 1.275 . S
C96 O98 1.246 . S
O97 Tb80 2.427 . S
O97 C96 1.275 . S
O98 Tb80 2.513 . S
O98 C96 1.246 . S
C99 O83 1.245 . S
C99 O84 1.259 . S
Tb100 O103 2.453 . S
Tb100 O104 2.596 . S
Tb100 O105 2.374 . S
Tb100 O113 2.343 . S
Tb100 O115 2.353 . S
Tb100 O117 2.427 . S
Tb100 O118 2.513 . S
C101 O105 1.251 . S
C101 O107 1.263 . S
Tb102 O104 2.343 . S
Tb102 O107 2.353 . S
Tb102 O110 2.427 . S
Tb102 O111 2.513 . S
Tb102 O112 2.453 . S
Tb102 O113 2.596 . S
Tb102 O114 2.374 . S
O103 Tb100 2.453 . S
O103 C119 1.245 . S
O104 Tb100 2.596 . S
O104 Tb102 2.343 . S
O104 C119 1.259 . S
O105 Tb100 2.374 . S
O105 C101 1.251 . S
C106 O110 1.275 . S
C106 O111 1.246 . S
O107 C101 1.263 . S
O107 Tb102 2.353 . S
C108 O112 1.245 . S
C108 O113 1.259 . S
C109 O114 1.250 . S
C109 O115 1.263 . S
O110 Tb102 2.427 . S
O110 C106 1.275 . S
O111 Tb102 2.513 . S
O111 C106 1.246 . S
O112 Tb102 2.453 . S
O112 C108 1.245 . S
O113 Tb100 2.343 . S
O113 Tb102 2.596 . S
O113 C108 1.259 . S
O114 Tb102 2.374 . S
O114 C109 1.250 . S
O115 Tb100 2.353 . S
O115 C109 1.263 . S
C116 O117 1.275 . S
C116 O118 1.246 . S
O117 Tb100 2.427 . S
O117 C116 1.275 . S
O118 Tb100 2.513 . S
O118 C116 1.246 . S
C119 O103 1.245 . S
C119 O104 1.259 . S
Tb120 O123 2.453 . S
Tb120 O124 2.596 . S
Tb120 O125 2.374 . S
Tb120 O133 2.343 . S
Tb120 O135 2.353 . S
Tb120 O137 2.427 . S
Tb120 O138 2.513 . S
C121 O125 1.251 . S
C121 O127 1.263 . S
Tb122 O124 2.343 . S
Tb122 O127 2.353 . S
Tb122 O130 2.427 . S
Tb122 O131 2.513 . S
Tb122 O132 2.453 . S
Tb122 O133 2.596 . S
Tb122 O134 2.374 . S
O123 Tb120 2.453 . S
O123 C139 1.245 . S
O124 Tb120 2.596 . S
O124 Tb122 2.343 . S
O124 C139 1.259 . S
O125 Tb120 2.374 . S
O125 C121 1.251 . S
C126 O130 1.275 . S
C126 O131 1.246 . S
O127 C121 1.263 . S
O127 Tb122 2.353 . S
C128 O132 1.245 . S
C128 O133 1.259 . S
C129 O134 1.250 . S
C129 O135 1.263 . S
O130 Tb122 2.427 . S
O130 C126 1.275 . S
O131 Tb122 2.513 . S
O131 C126 1.246 . S
O132 Tb122 2.453 . S
O132 C128 1.245 . S
O133 Tb120 2.343 . S
O133 Tb122 2.596 . S
O133 C128 1.259 . S
O134 Tb122 2.374 . S
O134 C129 1.250 . S
O135 Tb120 2.353 . S
O135 C129 1.263 . S
C136 O137 1.275 . S
C136 O138 1.246 . S
O137 Tb120 2.427 . S
O137 C136 1.275 . S
O138 Tb120 2.513 . S
O138 C136 1.246 . S
C139 O123 1.245 . S
C139 O124 1.259 . S
Tb140 O143 2.453 . S
Tb140 O144 2.596 . S
Tb140 O145 2.374 . S
Tb140 O153 2.343 . S
Tb140 O155 2.353 . S
Tb140 O157 2.427 . S
Tb140 O158 2.513 . S
C141 O145 1.251 . S
C141 O147 1.263 . S
Tb142 O144 2.343 . S
Tb142 O147 2.353 . S
Tb142 O150 2.427 . S
Tb142 O151 2.513 . S
Tb142 O152 2.453 . S
Tb142 O153 2.596 . S
Tb142 O154 2.374 . S
O143 Tb140 2.453 . S
O143 C159 1.245 . S
O144 Tb140 2.596 . S
O144 Tb142 2.343 . S
O144 C159 1.259 . S
O145 Tb140 2.374 . S
O145 C141 1.251 . S
C146 O150 1.275 . S
C146 O151 1.246 . S
O147 C141 1.263 . S
O147 Tb142 2.353 . S
C148 O152 1.245 . S
C148 O153 1.259 . S
C149 O154 1.250 . S
C149 O155 1.263 . S
O150 Tb142 2.427 . S
O150 C146 1.275 . S
O151 Tb142 2.513 . S
O151 C146 1.246 . S
O152 Tb142 2.453 . S
O152 C148 1.245 . S
O153 Tb140 2.343 . S
O153 Tb142 2.596 . S
O153 C148 1.259 . S
O154 Tb142 2.374 . S
O154 C149 1.250 . S
O155 Tb140 2.353 . S
O155 C149 1.263 . S
C156 O157 1.275 . S
C156 O158 1.246 . S
O157 Tb140 2.427 . S
O157 C156 1.275 . S
O158 Tb140 2.513 . S
O158 C156 1.246 . S
C159 O143 1.245 . S
C159 O144 1.259 . S
Co160 O163 2.042 . S
Co160 O170 2.264 . S
Co160 O189 2.286 . S
Co160 O190 2.069 . S
Co160 O192 2.015 1_455 S
Co161 O163 2.122 . S
Co161 O169 2.073 . S
Co161 O170 2.327 . S
Co161 O171 1.976 1_455 S
Co162 O163 2.086 1_545 S
Co162 O165 2.088 1_455 S
Co162 O172 2.111 1_445 S
Co162 O173 2.144 . S
Co162 O177 2.112 . S
Co162 O191 2.143 1_445 S
O163 Co160 2.042 . S
O163 Co161 2.122 . S
O163 Co162 2.086 1_565 S
O163 H164 0.980 . S
H164 O163 0.980 . S
O165 Co162 2.088 1_655 S
O165 Co166 2.042 . S
O165 Co167 2.122 . S
O165 H168 0.980 . S
Co166 O165 2.042 . S
Co166 O174 2.286 . S
Co166 O175 2.069 . S
Co166 O176 2.015 1_655 S
Co166 O179 2.264 . S
Co167 O165 2.122 . S
Co167 O178 1.976 1_655 S
Co167 O179 2.327 . S
Co167 O180 2.073 . S
H168 O165 0.980 . S
O169 Co161 2.073 . S
O169 C184 1.245 . S
O170 Co160 2.264 . S
O170 Co161 2.327 . S
O170 C184 1.257 . S
O171 Co161 1.976 1_655 S
O171 C183 1.251 . S
O172 Co162 2.111 1_665 S
O172 C183 1.274 . S
O173 Co162 2.144 . S
O173 C186 1.246 . S
O174 Co166 2.286 . S
O174 C185 1.259 . S
O175 Co166 2.069 . S
O175 C185 1.289 . S
O176 Co166 2.015 1_455 S
O176 C186 1.257 . S
O177 Co162 2.112 . S
O177 C187 1.274 . S
O178 Co167 1.976 1_455 S
O178 C187 1.251 . S
O179 Co166 2.264 . S
O179 Co167 2.327 . S
O179 C188 1.257 . S
O180 Co167 2.073 . S
O180 C188 1.245 . S
C181 O189 1.259 . S
C181 O190 1.289 . S
C182 O191 1.246 . S
C182 O192 1.257 . S
C183 O171 1.251 . S
C183 O172 1.274 . S
C184 O169 1.245 . S
C184 O170 1.257 . S
C185 O174 1.259 . S
C185 O175 1.289 . S
C186 O173 1.246 . S
C186 O176 1.257 . S
C187 O177 1.274 . S
C187 O178 1.251 . S
C188 O179 1.257 . S
C188 O180 1.245 . S
O189 Co160 2.286 . S
O189 C181 1.259 . S
O190 Co160 2.069 . S
O190 C181 1.289 . S
O191 Co162 2.143 1_665 S
O191 C182 1.246 . S
O192 Co160 2.015 1_655 S
O192 C182 1.257 . S
Co193 O196 2.042 1_556 S
Co193 O203 2.264 1_556 S
Co193 O222 2.286 . S
Co193 O223 2.069 . S
Co193 O225 2.015 . S
Co194 O196 2.122 . S
Co194 O202 2.073 . S
Co194 O203 2.327 . S
Co194 O204 1.976 . S
Co195 O196 2.086 1_545 S
Co195 O198 2.088 1_554 S
Co195 O205 2.111 1_545 S
Co195 O206 2.144 . S
Co195 O210 2.112 1_554 S
Co195 O224 2.143 1_544 S
O196 Co193 2.042 1_554 S
O196 Co194 2.122 . S
O196 Co195 2.086 1_565 S
O196 H197 0.980 . S
H197 O196 0.980 . S
O198 Co195 2.088 1_556 S
O198 Co199 2.042 1_556 S
O198 Co200 2.122 . S
O198 H201 0.980 . S
Co199 O198 2.042 1_554 S
Co199 O207 2.286 . S
Co199 O208 2.069 . S
Co199 O209 2.015 . S
Co199 O212 2.264 1_554 S
Co200 O198 2.122 . S
Co200 O211 1.976 . S
Co200 O212 2.327 . S
Co200 O213 2.073 . S
H201 O198 0.980 . S
O202 Co194 2.073 . S
O202 C217 1.245 . S
O203 Co193 2.264 1_554 S
O203 Co194 2.327 . S
O203 C217 1.257 . S
O204 Co194 1.976 . S
O204 C216 1.251 . S
O205 Co195 2.111 1_565 S
O205 C216 1.274 . S
O206 Co195 2.144 . S
O206 C219 1.246 . S
O207 Co199 2.286 . S
O207 C218 1.259 . S
O208 Co199 2.069 . S
O208 C218 1.289 . S
O209 Co199 2.015 . S
O209 C219 1.257 . S
O210 Co195 2.112 1_556 S
O210 C220 1.274 . S
O211 Co200 1.976 . S
O211 C220 1.251 . S
O212 Co199 2.264 1_556 S
O212 Co200 2.327 . S
O212 C221 1.257 . S
O213 Co200 2.073 . S
O213 C221 1.245 . S
C214 O222 1.259 . S
C214 O223 1.289 . S
C215 O224 1.246 . S
C215 O225 1.257 . S
C216 O204 1.251 . S
C216 O205 1.274 . S
C217 O202 1.245 . S
C217 O203 1.257 . S
C218 O207 1.259 . S
C218 O208 1.289 . S
C219 O206 1.246 . S
C219 O209 1.257 . S
C220 O210 1.274 . S
C220 O211 1.251 . S
C221 O212 1.257 . S
C221 O213 1.245 . S
O222 Co193 2.286 . S
O222 C214 1.259 . S
O223 Co193 2.069 . S
O223 C214 1.289 . S
O224 Co195 2.143 1_566 S
O224 C215 1.246 . S
O225 Co193 2.015 . S
O225 C215 1.257 . S
Co226 O229 2.042 1_556 S
Co226 O236 2.264 1_556 S
Co226 O255 2.286 . S
Co226 O256 2.069 . S
Co226 O258 2.015 1_455 S
Co227 O229 2.122 . S
Co227 O235 2.073 . S
Co227 O236 2.327 . S
Co227 O237 1.976 1_455 S
Co228 O229 2.087 . S
Co228 O231 2.087 1_454 S
Co228 O238 2.111 1_455 S
Co228 O239 2.143 . S
Co228 O243 2.111 1_554 S
Co228 O257 2.143 1_454 S
O229 Co226 2.042 1_554 S
O229 Co227 2.122 . S
O229 Co228 2.087 . S
O229 H230 0.980 . S
H230 O229 0.980 . S
O231 Co228 2.087 1_656 S
O231 Co232 2.042 1_556 S
O231 Co233 2.122 . S
O231 H234 0.980 . S
Co232 O231 2.042 1_554 S
Co232 O240 2.286 . S
Co232 O241 2.069 . S
Co232 O242 2.015 1_655 S
Co232 O245 2.264 1_554 S
Co233 O231 2.122 . S
Co233 O244 1.976 1_655 S
Co233 O245 2.327 . S
Co233 O246 2.073 . S
H234 O231 0.980 . S
O235 Co227 2.073 . S
O235 C250 1.245 . S
O236 Co226 2.264 1_554 S
O236 Co227 2.327 . S
O236 C250 1.257 . S
O237 Co227 1.976 1_655 S
O237 C249 1.251 . S
O238 Co228 2.111 1_655 S
O238 C249 1.274 . S
O239 Co228 2.143 . S
O239 C252 1.246 . S
O240 Co232 2.286 . S
O240 C251 1.259 . S
O241 Co232 2.069 . S
O241 C251 1.289 . S
O242 Co232 2.015 1_455 S
O242 C252 1.257 . S
O243 Co228 2.111 1_556 S
O243 C253 1.274 . S
O244 Co233 1.976 1_455 S
O244 C253 1.251 . S
O245 Co232 2.264 1_556 S
O245 Co233 2.327 . S
O245 C254 1.257 . S
O246 Co233 2.073 . S
O246 C254 1.245 . S
C247 O255 1.259 . S
C247 O256 1.289 . S
C248 O257 1.246 . S
C248 O258 1.257 . S
C249 O237 1.251 . S
C249 O238 1.274 . S
C250 O235 1.245 . S
C250 O236 1.257 . S
C251 O240 1.259 . S
C251 O241 1.289 . S
C252 O239 1.246 . S
C252 O242 1.257 . S
C253 O243 1.274 . S
C253 O244 1.251 . S
C254 O245 1.257 . S
C254 O246 1.245 . S
O255 Co226 2.286 . S
O255 C247 1.259 . S
O256 Co226 2.069 . S
O256 C247 1.289 . S
O257 Co228 2.143 1_656 S
O257 C248 1.246 . S
O258 Co226 2.015 1_655 S
O258 C248 1.257 . S
Co259 O262 2.042 1_556 S
Co259 O269 2.264 1_556 S
Co259 O288 2.286 . S
Co259 O289 2.069 . S
Co259 O291 2.015 . S
Co260 O262 2.122 . S
Co260 O268 2.073 . S
Co260 O269 2.327 . S
Co260 O270 1.976 . S
Co261 O262 2.087 . S
Co261 O264 2.087 1_554 S
Co261 O271 2.111 . S
Co261 O272 2.143 . S
Co261 O276 2.111 1_554 S
Co261 O290 2.143 1_554 S
O262 Co259 2.042 1_554 S
O262 Co260 2.122 . S
O262 Co261 2.087 . S
O262 H263 0.980 . S
H263 O262 0.980 . S
O264 Co261 2.087 1_556 S
O264 Co265 2.042 1_556 S
O264 Co266 2.122 . S
O264 H267 0.980 . S
Co265 O264 2.042 1_554 S
Co265 O273 2.286 . S
Co265 O274 2.069 . S
Co265 O275 2.015 . S
Co265 O278 2.264 1_554 S
Co266 O264 2.122 . S
Co266 O277 1.976 . S
Co266 O278 2.327 . S
Co266 O279 2.073 . S
H267 O264 0.980 . S
O268 Co260 2.073 . S
O268 C283 1.245 . S
O269 Co259 2.264 1_554 S
O269 Co260 2.327 . S
O269 C283 1.257 . S
O270 Co260 1.976 . S
O270 C282 1.251 . S
O271 Co261 2.111 . S
O271 C282 1.274 . S
O272 Co261 2.143 . S
O272 C285 1.246 . S
O273 Co265 2.286 . S
O273 C284 1.259 . S
O274 Co265 2.069 . S
O274 C284 1.289 . S
O275 Co265 2.015 . S
O275 C285 1.257 . S
O276 Co261 2.111 1_556 S
O276 C286 1.274 . S
O277 Co266 1.976 . S
O277 C286 1.251 . S
O278 Co265 2.264 1_556 S
O278 Co266 2.327 . S
O278 C287 1.257 . S
O279 Co266 2.073 . S
O279 C287 1.245 . S
C280 O288 1.259 . S
C280 O289 1.289 . S
C281 O290 1.246 . S
C281 O291 1.257 . S
C282 O270 1.251 . S
C282 O271 1.274 . S
C283 O268 1.245 . S
C283 O269 1.257 . S
C284 O273 1.259 . S
C284 O274 1.289 . S
C285 O272 1.246 . S
C285 O275 1.257 . S
C286 O276 1.274 . S
C286 O277 1.251 . S
C287 O278 1.257 . S
C287 O279 1.245 . S
O288 Co259 2.286 . S
O288 C280 1.259 . S
O289 Co259 2.069 . S
O289 C280 1.289 . S
O290 Co261 2.143 1_556 S
O290 C281 1.246 . S
O291 Co259 2.015 . S
O291 C281 1.257 . S
Co292 O295 2.042 . S
Co292 O302 2.264 . S
Co292 O321 2.286 . S
Co292 O322 2.069 . S
Co292 O324 2.015 . S
Co293 O295 2.122 . S
Co293 O301 2.073 . S
Co293 O302 2.327 . S
Co293 O303 1.976 . S
Co294 O295 2.087 . S
Co294 O297 2.087 1_455 S
Co294 O304 2.111 . S
Co294 O305 2.143 1_455 S
Co294 O309 2.111 1_455 S
Co294 O323 2.143 . S
O295 Co292 2.042 . S
O295 Co293 2.122 . S
O295 Co294 2.087 . S
O295 H296 0.980 . S
H296 O295 0.980 . S
O297 Co294 2.087 1_655 S
O297 Co298 2.042 . S
O297 Co299 2.122 . S
O297 H300 0.980 . S
Co298 O297 2.042 . S
Co298 O306 2.286 . S
Co298 O307 2.069 . S
Co298 O308 2.015 . S
Co298 O311 2.264 . S
Co299 O297 2.122 . S
Co299 O310 1.976 . S
Co299 O311 2.327 . S
Co299 O312 2.073 . S
H300 O297 0.980 . S
O301 Co293 2.073 . S
O301 C316 1.245 . S
O302 Co292 2.264 . S
O302 Co293 2.327 . S
O302 C316 1.257 . S
O303 Co293 1.976 . S
O303 C315 1.251 . S
O304 Co294 2.111 . S
O304 C315 1.274 . S
O305 Co294 2.143 1_655 S
O305 C318 1.246 . S
O306 Co298 2.286 . S
O306 C317 1.259 . S
O307 Co298 2.069 . S
O307 C317 1.289 . S
O308 Co298 2.015 . S
O308 C318 1.257 . S
O309 Co294 2.111 1_655 S
O309 C319 1.274 . S
O310 Co299 1.976 . S
O310 C319 1.251 . S
O311 Co298 2.264 . S
O311 Co299 2.327 . S
O311 C320 1.257 . S
O312 Co299 2.073 . S
O312 C320 1.245 . S
C313 O321 1.259 . S
C313 O322 1.289 . S
C314 O323 1.246 . S
C314 O324 1.257 . S
C315 O303 1.251 . S
C315 O304 1.274 . S
C316 O301 1.245 . S
C316 O302 1.257 . S
C317 O306 1.259 . S
C317 O307 1.289 . S
C318 O305 1.246 . S
C318 O308 1.257 . S
C319 O309 1.274 . S
C319 O310 1.251 . S
C320 O311 1.257 . S
C320 O312 1.245 . S
O321 Co292 2.286 . S
O321 C313 1.259 . S
O322 Co292 2.069 . S
O322 C313 1.289 . S
O323 Co294 2.143 . S
O323 C314 1.246 . S
O324 Co292 2.015 . S
O324 C314 1.257 . S
Co325 O328 2.042 . S
Co325 O335 2.264 . S
Co325 O354 2.286 . S
Co325 O355 2.069 . S
Co325 O357 2.015 1_565 S
Co326 O328 2.122 . S
Co326 O334 2.073 . S
Co326 O335 2.327 . S
Co326 O336 1.976 1_565 S
Co327 O328 2.086 1_545 S
Co327 O330 2.088 . S
Co327 O337 2.112 . S
Co327 O338 2.143 1_545 S
Co327 O342 2.111 1_545 S
Co327 O356 2.144 . S
O328 Co325 2.042 . S
O328 Co326 2.122 . S
O328 Co327 2.086 1_565 S
O328 H329 0.980 . S
H329 O328 0.980 . S
O330 Co327 2.088 . S
O330 Co331 2.042 . S
O330 Co332 2.122 . S
O330 H333 0.980 . S
Co331 O330 2.042 . S
Co331 O339 2.286 . S
Co331 O340 2.069 . S
Co331 O341 2.015 1_545 S
Co331 O344 2.264 . S
Co332 O330 2.122 . S
Co332 O343 1.976 1_545 S
Co332 O344 2.327 . S
Co332 O345 2.073 . S
H333 O330 0.980 . S
O334 Co326 2.073 . S
O334 C349 1.245 . S
O335 Co325 2.264 . S
O335 Co326 2.327 . S
O335 C349 1.257 . S
O336 Co326 1.976 1_545 S
O336 C348 1.251 . S
O337 Co327 2.112 . S
O337 C348 1.274 . S
O338 Co327 2.143 1_565 S
O338 C351 1.246 . S
O339 Co331 2.286 . S
O339 C350 1.259 . S
O340 Co331 2.069 . S
O340 C350 1.289 . S
O341 Co331 2.015 1_565 S
O341 C351 1.257 . S
O342 Co327 2.111 1_565 S
O342 C352 1.274 . S
O343 Co332 1.976 1_565 S
O343 C352 1.251 . S
O344 Co331 2.264 . S
O344 Co332 2.327 . S
O344 C353 1.257 . S
O345 Co332 2.073 . S
O345 C353 1.245 . S
C346 O354 1.259 . S
C346 O355 1.289 . S
C347 O356 1.246 . S
C347 O357 1.257 . S
C348 O336 1.251 . S
C348 O337 1.274 . S
C349 O334 1.245 . S
C349 O335 1.257 . S
C350 O339 1.259 . S
C350 O340 1.289 . S
C351 O338 1.246 . S
C351 O341 1.257 . S
C352 O342 1.274 . S
C352 O343 1.251 . S
C353 O344 1.257 . S
C353 O345 1.245 . S
O354 Co325 2.286 . S
O354 C346 1.259 . S
O355 Co325 2.069 . S
O355 C346 1.289 . S
O356 Co327 2.144 . S
O356 C347 1.246 . S
O357 Co325 2.015 1_545 S
O357 C347 1.257 . S
C187 C9 2.081 . S
C188 C28 2.501 . S
C182 C49 1.616 . S
C79 C181 1.851 . S
C99 C184 2.500 . S
C186 C101 1.615 . S
C128 C185 1.852 . S
C141 C183 2.081 . S
C218 C16 1.588 . S
C26 C249 1.638 . S
C217 C56 0.930 . S
C252 C69 1.286 . S
C89 C215 1.499 . S
C247 C108 2.205 . S
C126 C220 1.571 . S
C148 C254 2.106 . S
C19 C250 2.105 . S
C96 C253 1.637 . S
C221 C106 0.930 . S
C248 C121 1.286 . S
C146 C214 1.588 . S
C59 C251 2.204 . S
C216 C76 1.573 . S
C21 C219 1.498 . S
C149 C286 2.104 . S
C88 C287 2.126 . S
C281 C109 1.333 . S
C280 C139 2.134 . S
C39 C283 2.124 . S
C285 C41 1.332 . S
C68 C284 2.133 . S
C1 C282 2.102 . S
C156 C320 0.809 . S
C352 C86 1.528 . S
C116 C313 0.682 . S
C129 C347 1.821 . S
C318 C29 1.597 . S
C48 C349 2.601 . S
C315 C66 1.857 . S
C350 C8 2.591 . S
C346 C159 2.591 . S
C36 C348 1.528 . S
C46 C317 0.682 . S
C351 C61 1.821 . S
C6 C316 0.808 . S
C119 C353 2.602 . S
C319 C136 1.857 . S
C314 C81 1.597 . S
