# Generated by pormake.
# Topology myd, (4,6)-cn, num edge types: 1
# Building blocks:
#     Node 0, Type 0, BuildingBlock: NAWXER_clean_sbu_0, # of connection points: 4
#     Node 1, Type 0, BuildingBlock: NAWXER_clean_sbu_0, # of connection points: 4
#     Node 2, Type 0, BuildingBlock: NAWXER_clean_sbu_0, # of connection points: 4
#     Node 3, Type 0, BuildingBlock: NAWXER_clean_sbu_0, # of connection points: 4
#     Node 4, Type 0, BuildingBlock: NAWXER_clean_sbu_0, # of connection points: 4
#     Node 5, Type 0, BuildingBlock: NAWXER_clean_sbu_0, # of connection points: 4
#     Node 6, Type 0, BuildingBlock: NAWXER_clean_sbu_0, # of connection points: 4
#     Node 7, Type 0, BuildingBlock: NAWXER_clean_sbu_0, # of connection points: 4
#     Node 8, Type 0, BuildingBlock: NAWXER_clean_sbu_0, # of connection points: 4
#     Node 9, Type 0, BuildingBlock: NAWXER_clean_sbu_0, # of connection points: 4
#     Node 10, Type 0, BuildingBlock: NAWXER_clean_sbu_0, # of connection points: 4
#     Node 11, Type 0, BuildingBlock: NAWXER_clean_sbu_0, # of connection points: 4
#     Node 12, Type 1, BuildingBlock: JUFBIX_clean_sbu_0, # of connection points: 6
#     Node 13, Type 1, BuildingBlock: JUFBIX_clean_sbu_0, # of connection points: 6
#     Node 14, Type 1, BuildingBlock: JUFBIX_clean_sbu_0, # of connection points: 6
#     Node 15, Type 1, BuildingBlock: JUFBIX_clean_sbu_0, # of connection points: 6
#     Node 16, Type 1, BuildingBlock: JUFBIX_clean_sbu_0, # of connection points: 6
#     Node 17, Type 1, BuildingBlock: JUFBIX_clean_sbu_0, # of connection points: 6
#     Node 18, Type 1, BuildingBlock: JUFBIX_clean_sbu_0, # of connection points: 6
#     Node 19, Type 1, BuildingBlock: JUFBIX_clean_sbu_0, # of connection points: 6
#     Edge 20, Type (0, 1), BuildingBlock: TEMPAE_clean_linker_10, # of connection points: 2
#     Edge 21, Type (0, 1), BuildingBlock: TEMPAE_clean_linker_10, # of connection points: 2
#     Edge 22, Type (0, 1), BuildingBlock: TEMPAE_clean_linker_10, # of connection points: 2
#     Edge 23, Type (0, 1), BuildingBlock: TEMPAE_clean_linker_10, # of connection points: 2
#     Edge 24, Type (0, 1), BuildingBlock: TEMPAE_clean_linker_10, # of connection points: 2
#     Edge 25, Type (0, 1), BuildingBlock: TEMPAE_clean_linker_10, # of connection points: 2
#     Edge 26, Type (0, 1), BuildingBlock: TEMPAE_clean_linker_10, # of connection points: 2
#     Edge 27, Type (0, 1), BuildingBlock: TEMPAE_clean_linker_10, # of connection points: 2
#     Edge 28, Type (0, 1), BuildingBlock: TEMPAE_clean_linker_10, # of connection points: 2
#     Edge 29, Type (0, 1), BuildingBlock: TEMPAE_clean_linker_10, # of connection points: 2
#     Edge 30, Type (0, 1), BuildingBlock: TEMPAE_clean_linker_10, # of connection points: 2
#     Edge 31, Type (0, 1), BuildingBlock: TEMPAE_clean_linker_10, # of connection points: 2
#     Edge 32, Type (0, 1), BuildingBlock: TEMPAE_clean_linker_10, # of connection points: 2
#     Edge 33, Type (0, 1), BuildingBlock: TEMPAE_clean_linker_10, # of connection points: 2
#     Edge 34, Type (0, 1), BuildingBlock: TEMPAE_clean_linker_10, # of connection points: 2
#     Edge 35, Type (0, 1), BuildingBlock: TEMPAE_clean_linker_10, # of connection points: 2
#     Edge 36, Type (0, 1), BuildingBlock: TEMPAE_clean_linker_10, # of connection points: 2
#     Edge 37, Type (0, 1), BuildingBlock: TEMPAE_clean_linker_10, # of connection points: 2
#     Edge 38, Type (0, 1), BuildingBlock: TEMPAE_clean_linker_10, # of connection points: 2
#     Edge 39, Type (0, 1), BuildingBlock: TEMPAE_clean_linker_10, # of connection points: 2
#     Edge 40, Type (0, 1), BuildingBlock: TEMPAE_clean_linker_10, # of connection points: 2
#     Edge 41, Type (0, 1), BuildingBlock: TEMPAE_clean_linker_10, # of connection points: 2
#     Edge 42, Type (0, 1), BuildingBlock: TEMPAE_clean_linker_10, # of connection points: 2
#     Edge 43, Type (0, 1), BuildingBlock: TEMPAE_clean_linker_10, # of connection points: 2
#     Edge 44, Type (0, 1), BuildingBlock: TEMPAE_clean_linker_10, # of connection points: 2
#     Edge 45, Type (0, 1), BuildingBlock: TEMPAE_clean_linker_10, # of connection points: 2
#     Edge 46, Type (0, 1), BuildingBlock: TEMPAE_clean_linker_10, # of connection points: 2
#     Edge 47, Type (0, 1), BuildingBlock: TEMPAE_clean_linker_10, # of connection points: 2
#     Edge 48, Type (0, 1), BuildingBlock: TEMPAE_clean_linker_10, # of connection points: 2
#     Edge 49, Type (0, 1), BuildingBlock: TEMPAE_clean_linker_10, # of connection points: 2
#     Edge 50, Type (0, 1), BuildingBlock: TEMPAE_clean_linker_10, # of connection points: 2
#     Edge 51, Type (0, 1), BuildingBlock: TEMPAE_clean_linker_10, # of connection points: 2
#     Edge 52, Type (0, 1), BuildingBlock: TEMPAE_clean_linker_10, # of connection points: 2
#     Edge 53, Type (0, 1), BuildingBlock: TEMPAE_clean_linker_10, # of connection points: 2
#     Edge 54, Type (0, 1), BuildingBlock: TEMPAE_clean_linker_10, # of connection points: 2
#     Edge 55, Type (0, 1), BuildingBlock: TEMPAE_clean_linker_10, # of connection points: 2
#     Edge 56, Type (0, 1), BuildingBlock: TEMPAE_clean_linker_10, # of connection points: 2
#     Edge 57, Type (0, 1), BuildingBlock: TEMPAE_clean_linker_10, # of connection points: 2
#     Edge 58, Type (0, 1), BuildingBlock: TEMPAE_clean_linker_10, # of connection points: 2
#     Edge 59, Type (0, 1), BuildingBlock: TEMPAE_clean_linker_10, # of connection points: 2
#     Edge 60, Type (0, 1), BuildingBlock: TEMPAE_clean_linker_10, # of connection points: 2
#     Edge 61, Type (0, 1), BuildingBlock: TEMPAE_clean_linker_10, # of connection points: 2
#     Edge 62, Type (0, 1), BuildingBlock: TEMPAE_clean_linker_10, # of connection points: 2
#     Edge 63, Type (0, 1), BuildingBlock: TEMPAE_clean_linker_10, # of connection points: 2
#     Edge 64, Type (0, 1), BuildingBlock: TEMPAE_clean_linker_10, # of connection points: 2
#     Edge 65, Type (0, 1), BuildingBlock: TEMPAE_clean_linker_10, # of connection points: 2
#     Edge 66, Type (0, 1), BuildingBlock: TEMPAE_clean_linker_10, # of connection points: 2
#     Edge 67, Type (0, 1), BuildingBlock: TEMPAE_clean_linker_10, # of connection points: 2
# Relax obj value: 0.264
# Max RMSD: 0.230
# Mean RMSD: 0.144
data_MOF--net-myd--node1-NAWXER_clean_sbu_0--node2-JUFBIX_clean_sbu_0--edge1-TEMPAE_clean_linker_10
_symmetry_space_group_name_H-M    P1
_symmetry_Int_Tables_number       1
_symmetry_cell_setting            triclinic
loop_
_symmetry_equiv_pos_as_xyz
'x, y, z'
_cell_length_a     44.820158
_cell_length_b     47.918102
_cell_length_c     47.090847
_cell_angle_alpha  90.73434
_cell_angle_beta   87.207266
_cell_angle_gamma 91.408751
loop_
_atom_site_label
_atom_site_type_symbol
_atom_site_fract_x
_atom_site_fract_y
_atom_site_fract_z
_atom_type_partial_charge
C0 C 0.03052 0.19028 0.28859 0.0
C1 C 0.0257 0.26229 0.36436 0.0
O2 O 0.05258 0.20442 0.29779 0.0
Zn3 Zn 0.03053 0.22347 0.32886 0.0
O4 O 1.00473 0.19219 0.30146 0.0
Zn5 Zn 0.9839 0.21459 0.33698 0.0
O6 O 0.95346 0.23366 0.31729 0.0
O7 O 1.00013 0.24612 0.30456 0.0
O8 O 1.00082 0.24914 0.3611 0.0
O9 O 0.04916 0.25357 0.35115 0.0
O10 O 0.0212 0.18995 0.35726 0.0
O11 O 0.97237 0.18539 0.36385 0.0
C12 C 0.97195 0.24819 0.30188 0.0
C13 C 0.99834 0.17717 0.36874 0.0
C14 C 0.06155 0.74862 0.21701 0.0
C15 C 0.03003 0.68383 0.14349 0.0
O16 O 0.07888 0.73623 0.199 0.0
Zn17 Zn 0.04681 0.71811 0.17902 0.0
O18 O 0.03311 0.7461 0.21557 0.0
Zn19 Zn 1.00089 0.72484 0.19027 0.0
O20 O 0.97973 0.70301 0.21939 0.0
O21 O 0.02718 0.69209 0.21272 0.0
O22 O 1.00802 0.69473 0.15757 0.0
O23 O 0.05648 0.69195 0.1484 0.0
O24 O 0.0287 0.75389 0.15976 0.0
O25 O 0.98087 0.75522 0.17286 0.0
C26 C 1.00176 0.68868 0.22621 0.0
C27 C 1.00347 0.76588 0.15932 0.0
C28 C 0.35226 1.00476 0.19654 0.0
C29 C 0.28338 0.00854 0.28145 0.0
O30 O 0.34008 0.98113 0.20325 0.0
Zn31 Zn 0.30914 0.96427 0.23471 0.0
O32 O 0.34632 0.02607 0.21202 0.0
Zn33 Zn 0.31777 0.0085 0.23952 0.0
O34 O 0.34432 0.98257 0.26445 0.0
O35 O 0.33211 0.93839 0.25641 0.0
O36 O 0.29709 0.02966 0.27035 0.0
O37 O 0.28608 0.98438 0.26979 0.0
O38 O 0.27608 0.95164 0.21148 0.0
O39 O 0.28077 0.99753 0.21443 0.0
C40 C 0.34728 0.95665 0.26981 0.0
C41 C 0.26708 0.9757 0.20524 0.0
C42 C 0.73884 0.47203 0.24086 0.0
C43 C 0.6656 0.47833 0.32273 0.0
O44 O 0.73034 0.45194 0.25703 0.0
Zn45 Zn 0.70326 0.47358 0.28285 0.0
O46 O 0.72988 0.49667 0.24678 0.0
Zn47 Zn 0.70156 0.51785 0.27716 0.0
O48 O 0.72951 0.54217 0.29682 0.0
O49 O 0.73359 0.49772 0.30729 0.0
O50 O 0.67244 0.50176 0.31093 0.0
O51 O 0.67796 0.45623 0.31319 0.0
O52 O 0.6717 0.48714 0.25325 0.0
O53 O 0.67427 0.53322 0.25134 0.0
C54 C 0.74157 0.52333 0.31083 0.0
C55 C 0.66331 0.51005 0.24269 0.0
C56 C 0.221 0.37999 0.03163 0.0
C57 C 0.28853 0.30171 0.03499 0.0
O58 O 0.2321 0.37282 1.00711 0.0
Zn59 Zn 0.26516 0.34528 0.98979 0.0
O60 O 0.2324 0.37081 0.0538 0.0
Zn61 Zn 0.25962 0.34416 0.03521 0.0
O62 O 0.29936 0.36609 0.02068 0.0
O63 O 0.29915 0.36755 0.97404 0.0
O64 O 0.27703 0.3144 0.05666 0.0
O65 O 0.28586 0.31155 0.01009 0.0
O66 O 0.23988 0.32258 0.96536 0.0
O67 O 0.22855 0.31922 0.01155 0.0
C68 C 0.31212 0.3733 0.99687 0.0
C69 C 0.22318 0.31276 0.98576 0.0
C70 C 0.2351 0.73333 0.48534 0.0
C71 C 0.31253 0.66231 0.49654 0.0
O72 O 0.25365 0.72465 0.46602 0.0
Zn73 Zn 0.27153 0.69528 0.48819 0.0
O74 O 0.23434 0.72195 0.50987 0.0
Zn75 Zn 0.2572 0.69048 0.53198 0.0
O76 O 0.27447 0.71384 0.56162 0.0
O77 O 0.29406 0.72091 0.51814 0.0
O78 O 0.29581 0.66669 0.51897 0.0
O79 O 0.30566 0.67321 0.47327 0.0
O80 O 0.23482 0.66606 0.49507 0.0
O81 O 0.22559 0.66303 0.5413 0.0
C82 C 0.29356 0.72616 0.54487 0.0
C83 C 0.21932 0.6557 0.5162 0.0
C84 C 0.7181 0.88892 0.49415 0.0
C85 C 0.79341 0.8176 0.48236 0.0
O86 O 0.73022 0.87926 0.47128 0.0
Zn87 Zn 0.75902 0.85562 0.48762 0.0
O88 O 0.72937 0.88331 0.51793 0.0
Zn89 Zn 0.76494 0.85762 0.53171 0.0
O90 O 0.79657 0.88137 0.54602 0.0
O91 O 0.79737 0.881 0.49924 0.0
O92 O 0.7906 0.82684 0.50799 0.0
O93 O 0.77816 0.82783 0.46311 0.0
O94 O 0.73028 0.82827 0.51359 0.0
O95 O 0.74293 0.83311 0.55823 0.0
C96 C 0.80944 0.88832 0.52246 0.0
C97 C 0.72655 0.82167 0.53985 0.0
C98 C 0.47322 0.75027 0.8017 0.0
C99 C 0.49942 0.67895 0.86842 0.0
O100 O 0.45462 0.73704 0.81817 0.0
Zn101 Zn 0.48496 0.71685 0.83738 0.0
O102 O 0.50133 0.74717 0.80359 0.0
Zn103 Zn 0.53158 0.72446 0.82738 0.0
O104 O 0.55206 0.70425 0.79617 0.0
O105 O 0.50403 0.69316 0.80174 0.0
O106 O 0.52222 0.6914 0.85642 0.0
O107 O 0.47343 0.68763 0.86426 0.0
O108 O 0.50409 0.7503 0.86172 0.0
O109 O 0.55166 0.75459 0.84813 0.0
C110 C 0.52932 0.6903 0.78815 0.0
C111 C 0.52943 0.76306 0.86343 0.0
C112 C 0.50581 0.18722 0.72658 0.0
C113 C 0.50121 0.26255 0.65813 0.0
O114 O 0.48323 0.20138 0.72099 0.0
Zn115 Zn 0.50202 0.22225 0.69005 0.0
O116 O 0.53022 0.19028 0.71131 0.0
Zn117 Zn 0.54683 0.21568 0.67551 0.0
O118 O 0.58048 0.23475 0.6925 0.0
O119 O 0.536 0.24433 0.71229 0.0
O120 O 0.5265 0.25052 0.65613 0.0
O121 O 0.48041 0.25242 0.67442 0.0
O122 O 0.50671 0.19083 0.65786 0.0
O123 O 0.55457 0.18866 0.64535 0.0
C124 C 0.56452 0.2473 0.71152 0.0
C125 C 0.52792 0.17975 0.64275 0.0
C126 C 0.76605 0.48154 0.70634 0.0
C127 C 0.84265 0.46458 0.77527 0.0
O128 O 0.78057 0.50353 0.71398 0.0
Zn129 Zn 0.81782 0.51483 0.73888 0.0
O130 O 0.77392 0.45773 0.7146 0.0
Zn131 Zn 0.80703 0.47097 0.73731 0.0
O132 O 0.78389 0.49503 0.76991 0.0
O133 O 0.7981 0.53959 0.76696 0.0
O134 O 0.82785 0.44591 0.76206 0.0
O135 O 0.84136 0.49007 0.76759 0.0
O136 O 0.84795 0.52897 0.71089 0.0
O137 O 0.83924 0.48398 0.70486 0.0
C138 C 0.78252 0.52022 0.77922 0.0
C139 C 0.8528 0.50659 0.6968 0.0
C140 C 0.2469 0.97596 0.7491 0.0
C141 C 0.16957 0.98047 0.82707 0.0
O142 O 0.23684 0.95568 0.76426 0.0
Zn143 Zn 0.2088 0.97704 0.78881 0.0
O144 O 0.23747 1.00054 0.75462 0.0
Zn145 Zn 0.20643 0.02107 0.78315 0.0
O146 O 0.23232 0.04627 0.80378 0.0
O147 O 0.23784 1.00201 0.81439 0.0
O148 O 0.17641 1.00419 0.81585 0.0
O149 O 0.18282 0.95877 0.81774 0.0
O150 O 0.17824 0.9899 0.75805 0.0
O151 O 0.18007 0.03595 0.75619 0.0
C152 C 0.24475 0.02789 0.81808 0.0
C153 C 0.16976 0.01265 0.74727 0.0
C154 C 0.72511 0.15545 0.01369 0.0
C155 C 0.79636 0.22798 0.04287 0.0
O156 O 0.73076 0.16334 0.03876 0.0
Zn157 Zn 0.76121 0.19164 0.02934 0.0
O158 O 0.74024 0.16619 0.99253 0.0
Zn159 Zn 0.77599 0.19652 0.98585 0.0
O160 O 0.81061 0.1752 0.97111 0.0
O161 O 0.8005 0.16865 0.01678 0.0
O162 O 0.79756 0.22278 0.0161 0.0
O163 O 0.77726 0.21523 0.05922 0.0
O164 O 0.73769 0.22245 1.00677 0.0
O165 O 0.75774 0.22515 0.9632 0.0
C166 C 0.81744 0.16446 0.99446 0.0
C167 C 0.73868 0.23363 0.98213 0.0
Co168 Co 0.04201 0.03377 0.06588 0.0
C169 C 0.04672 0.08047 0.10342 0.0
Co170 Co 0.07122 0.06889 0.05069 0.0
C171 C 0.02032 0.97829 0.08051 0.0
C172 C 0.99001 0.00976 0.09528 0.0
N173 N 0.01604 0.0061 0.08024 0.0
N174 N 0.99823 0.96456 0.09546 0.0
C175 C 0.97912 0.98427 0.10484 0.0
H176 H 0.04003 0.96847 0.07116 0.0
H177 H 0.98013 0.0298 0.09982 0.0
C178 C 0.06883 0.02266 0.01347 0.0
N179 N 0.09841 0.0955 0.03594 0.0
C180 C 0.09648 0.12321 0.03129 0.0
C181 C 0.12654 0.08917 0.02692 0.0
N182 N 0.12253 0.13414 0.02015 0.0
C183 C 0.14139 0.1128 0.01746 0.0
C184 C 0.09954 0.02863 0.08268 0.0
O185 O 0.05008 0.01186 0.03158 0.0
O186 O 0.0795 0.0469 0.01814 0.0
O187 O 0.10318 0.05155 0.0695 0.0
O188 O 0.07397 0.01666 0.08344 0.0
O189 O 0.0633 0.09087 0.08342 0.0
H190 H 0.13578 0.06854 0.02716 0.0
H191 H 0.07672 0.13516 0.03643 0.0
O192 O 0.03501 0.05614 0.10013 0.0
O193 O 1.00977 0.0511 0.04844 0.0
O194 O 0.0385 0.08587 0.03258 0.0
C195 C 0.01273 0.07393 0.03493 0.0
H196 H 0.95906 0.98054 0.11813 0.0
H197 H 0.16433 0.11428 0.00914 0.0
Co198 Co 0.95719 0.43909 0.09493 0.0
C199 C 0.97345 0.49283 0.08005 0.0
Co200 Co 0.9463 0.44886 0.05085 0.0
C201 C 0.9613 0.40608 0.14505 0.0
C202 C 0.96188 0.44977 0.15487 0.0
N203 N 0.9623 0.43141 0.13285 0.0
N204 N 0.95957 0.40787 0.17364 0.0
C205 C 0.96037 0.43533 0.18 0.0
H206 H 0.96071 0.38658 0.13325 0.0
H207 H 0.96074 0.47217 0.15291 0.0
C208 C 0.92926 0.39543 0.06607 0.0
N209 N 0.94129 0.45715 0.01252 0.0
C210 C 0.92146 0.44777 0.99346 0.0
C211 C 0.96167 0.47239 0.99691 0.0
N212 N 0.92918 0.45635 0.9667 0.0
C213 C 0.95436 0.47189 0.96898 0.0
C214 C 1.0041 0.42752 0.05879 0.0
O215 O 0.93914 0.40345 0.08967 0.0
O216 O 0.93149 0.41182 0.04501 0.0
O217 O 0.98697 0.43758 0.04082 0.0
O218 O 0.99473 0.42488 0.08448 0.0
O219 O 0.96088 0.48606 0.05727 0.0
H220 H 0.98143 0.48235 1.00513 0.0
H221 H 0.90266 0.43387 0.99879 0.0
O222 O 0.97488 0.47488 0.09949 0.0
O223 O 0.91994 0.45319 0.10571 0.0
O224 O 0.90588 0.45996 0.06231 0.0
C225 C 0.90018 0.46045 0.08918 0.0
H226 H 0.95817 0.44427 0.2012 0.0
H227 H 0.9669 0.48184 0.9515 0.0
Co228 Co 0.08364 0.95572 0.47369 0.0
C229 C 0.12173 0.96409 0.42588 0.0
Co230 Co 0.06737 0.93578 0.43489 0.0
C231 C 0.0964 0.96604 0.53324 0.0
C232 C 0.10697 1.00084 0.50613 0.0
N233 N 0.09656 0.97414 0.50584 0.0
N234 N 0.10602 0.98683 0.55034 0.0
C235 C 0.11272 0.0087 0.53348 0.0
H236 H 0.08894 0.94558 0.54054 0.0
H237 H 0.10976 0.01395 0.48761 0.0
C238 C 0.02786 0.92845 0.48132 0.0
N239 N 0.05494 0.91862 0.40235 0.0
C240 C 0.07194 0.90332 0.38398 0.0
C241 C 0.02771 0.9186 0.39143 0.0
N242 N 0.05649 0.89363 0.36195 0.0
C243 C 0.02858 0.9032 0.36655 0.0
C244 C 0.10371 0.90157 0.46576 0.0
O245 O 0.04757 0.94263 0.49433 0.0
O246 O 0.03277 0.92225 0.45525 0.0
O247 O 0.0881 0.90309 0.44404 0.0
O248 O 0.10462 0.92243 0.48286 0.0
O249 O 0.10159 0.94948 0.41436 0.0
H250 H 1.00848 0.92892 0.40106 0.0
H251 H 0.09532 0.8995 0.38674 0.0
O252 O 0.11895 0.96926 0.45243 0.0
O253 O 0.06319 0.98838 0.46419 0.0
O254 O 0.04696 0.96857 0.42564 0.0
C255 C 0.04837 0.98976 0.44201 0.0
H256 H 0.12111 0.02887 0.54055 0.0
H257 H 1.0099 0.89877 0.35335 0.0
Co258 Co 0.95887 0.57887 0.46485 0.0
C259 C 0.01896 0.56809 0.47529 0.0
Co260 Co 0.97529 0.53821 0.44813 0.0
C261 C 0.93023 0.63195 0.4697 0.0
C262 C 0.94907 0.62035 0.50866 0.0
N263 N 0.94622 0.61197 0.48145 0.0
N264 N 0.92266 0.65224 0.48859 0.0
C265 C 0.93443 0.64504 0.51316 0.0
H266 H 0.92327 0.63107 0.448 0.0
H267 H 0.96043 0.60887 0.52437 0.0
C268 C 0.91581 0.55034 0.43633 0.0
N269 N 0.9868 0.50469 0.42964 0.0
C270 C 1.00005 0.48076 0.43705 0.0
C271 C 0.98041 0.50037 0.40219 0.0
N272 N 1.0024 0.4622 0.41495 0.0
C273 C 0.98982 0.47473 0.39324 0.0
C274 C 0.94961 0.53387 0.50224 0.0
O275 O 0.9207 0.57288 0.44991 0.0
O276 O 0.93615 0.5323 0.43421 0.0
O277 O 0.96306 0.51908 0.48305 0.0
O278 O 0.94585 0.55961 0.49795 0.0
O279 O 0.01451 0.5451 0.46194 0.0
H280 H 0.9688 0.51478 0.3894 0.0
H281 H 1.00763 0.477 0.4581 0.0
O282 O 0.99743 0.5848 0.47926 0.0
O283 O 0.97146 0.59805 0.43167 0.0
O284 O 0.98689 0.55828 0.41381 0.0
C285 C 0.98288 0.58426 0.41093 0.0
H286 H 0.93236 0.6567 0.53298 0.0
H287 H 0.98659 0.46561 0.37244 0.0
Co288 Co 0.4663 0.93228 0.58378 0.0
C289 C 0.47829 0.9876 0.5724 0.0
Co290 Co 0.44493 0.94604 0.5453 0.0
C291 C 0.46658 0.90428 0.63615 0.0
C292 C 0.51003 0.92183 0.62579 0.0
N293 N 0.4821 0.91971 0.61652 0.0
N294 N 0.48358 0.89622 0.65721 0.0
C295 C 0.51103 0.90735 0.65086 0.0
H296 H 0.44315 0.89877 0.63468 0.0
H297 H 0.52857 0.93252 0.61466 0.0
C298 C 0.43179 0.89105 0.55792 0.0
N299 N 0.42757 0.95836 0.51264 0.0
C300 C 0.42539 0.94575 0.48687 0.0
C301 C 0.41287 0.98238 0.5106 0.0
N302 N 0.40964 0.96092 0.46897 0.0
C303 C 0.40189 0.98402 0.48394 0.0
C304 C 0.50288 0.92571 0.53574 0.0
O305 O 0.44802 0.89677 0.5786 0.0
O306 O 0.42843 0.90955 0.5393 0.0
O307 O 0.48145 0.93686 0.52341 0.0
O308 O 0.50016 0.92093 0.56218 0.0
O309 O 0.4613 0.98257 0.55197 0.0
H310 H 0.41007 0.99766 0.52757 0.0
H311 H 0.43457 0.92554 0.48161 0.0
O312 O 0.48414 0.96796 0.58901 0.0
O313 O 0.43277 0.94364 0.60549 0.0
O314 O 0.40885 0.95515 0.56817 0.0
C315 C 0.40939 0.95252 0.59506 0.0
H316 H 0.53072 0.90433 0.66277 0.0
H317 H 0.38934 1.0011 0.47614 0.0
Co318 Co 0.54045 0.5333 0.56507 0.0
C319 C 0.54194 0.57774 0.60482 0.0
Co320 Co 0.5685 0.56998 0.55157 0.0
C321 C 0.52356 0.47678 0.58199 0.0
C322 C 0.48556 0.50283 0.58085 0.0
N323 N 0.5156 0.50321 0.57667 0.0
N324 N 0.49977 0.46004 0.58908 0.0
C325 C 0.47578 0.4763 0.58826 0.0
H326 H 0.54634 0.46972 0.58025 0.0
H327 H 0.47156 0.52066 0.57866 0.0
C328 C 0.56888 0.52599 0.51182 0.0
N329 N 0.59451 0.59897 0.53994 0.0
C330 C 0.5943 0.62679 0.54535 0.0
C331 C 0.62095 0.59472 0.52584 0.0
N332 N 0.61959 0.63991 0.53498 0.0
C333 C 0.63625 0.61962 0.52272 0.0
C334 C 0.59821 0.52972 0.58211 0.0
O335 O 0.55106 0.51364 0.52975 0.0
O336 O 0.57807 0.5506 0.51735 0.0
O337 O 0.60127 0.55283 0.56917 0.0
O338 O 0.57294 0.51718 0.58276 0.0
O339 O 0.55901 0.58896 0.5857 0.0
H340 H 0.62931 0.57453 0.51936 0.0
H341 H 0.57632 0.63703 0.55721 0.0
O342 O 0.53071 0.55338 0.60037 0.0
O343 O 0.50794 0.55022 0.54733 0.0
O344 O 0.53517 0.58704 0.53445 0.0
C345 C 0.50996 0.57397 0.53547 0.0
H346 H 0.45289 0.46957 0.59317 0.0
H347 H 0.65866 0.62226 0.51337 0.0
Co348 Co 0.58531 0.45443 0.96612 0.0
C349 C 0.6264 0.46524 0.92093 0.0
Co350 Co 0.57277 0.43563 0.92533 0.0
C351 C 0.59499 0.46309 0.02691 0.0
C352 C 0.60403 0.49929 1.00137 0.0
N353 N 0.59555 0.47207 0.99977 0.0
N354 N 0.60239 0.48387 0.04509 0.0
C355 C 0.60809 0.50659 0.02918 0.0
H356 H 0.58878 0.44202 0.03326 0.0
H357 H 0.6067 0.51312 0.9834 0.0
C358 C 0.53041 0.42547 0.96899 0.0
N359 N 0.56291 0.41957 0.89134 0.0
C360 C 0.58093 0.40486 0.8733 0.0
C361 C 0.53651 0.42017 0.87891 0.0
N362 N 0.56686 0.39616 0.85001 0.0
C363 C 0.53884 0.40575 0.85351 0.0
C364 C 0.60738 0.40101 0.95744 0.0
O365 O 0.54858 0.43937 0.9841 0.0
O366 O 0.53729 0.42095 0.94291 0.0
O367 O 0.59328 0.40286 0.93477 0.0
O368 O 0.60678 0.42142 0.97514 0.0
O369 O 0.60793 0.45029 0.9076 0.0
H370 H 0.51678 0.43018 0.88791 0.0
H371 H 0.60397 0.40069 0.87726 0.0
O372 O 0.62127 0.46993 0.94735 0.0
O373 O 0.56433 0.48669 0.95681 0.0
O374 O 0.55249 0.46868 0.91591 0.0
C375 C 0.5516 0.48895 0.93354 0.0
H376 H 0.61478 0.52696 0.03719 0.0
H377 H 0.52095 0.40185 0.83924 0.0
Co378 Co 0.46694 0.08195 0.96701 0.0
C379 C 0.52626 0.06584 0.97715 0.0
Co380 Co 0.48069 0.0403 0.9501 0.0
C381 C 0.43354 0.12739 0.99462 0.0
C382 C 0.47967 0.1377 0.98532 0.0
N383 N 0.45923 0.11672 0.9834 0.0
N384 N 0.43724 0.15424 1.00333 0.0
C385 C 0.46636 0.1606 0.99762 0.0
H386 H 0.41236 0.11601 0.99542 0.0
H387 H 0.50276 0.13669 0.97765 0.0
C388 C 0.42203 0.05735 0.93872 0.0
N389 N 0.48822 0.00561 0.93165 0.0
C390 C 0.49609 0.97968 0.93964 0.0
C391 C 0.48325 1.00257 0.90371 0.0
N392 N 0.49597 0.96099 0.91759 0.0
C393 C 0.48824 0.97575 0.8951 0.0
C394 C 0.45417 0.03813 1.00445 0.0
O395 O 0.42822 0.07956 0.95247 0.0
O396 O 0.44122 0.03823 0.93636 0.0
O397 O 0.4664 0.02255 0.98516 0.0
O398 O 0.45239 0.06418 1.0004 0.0
O399 O 0.52037 0.04326 0.96367 0.0
H400 H 0.47541 0.01868 0.89027 0.0
H401 H 0.50069 0.97441 0.96125 0.0
O402 O 0.50595 0.08376 0.98099 0.0
O403 O 0.48111 0.09981 0.93335 0.0
O404 O 0.49439 0.05927 0.91583 0.0
C405 C 0.49199 0.08542 0.91279 0.0
H406 H 0.4773 0.18053 1.00168 0.0
H407 H 0.48598 0.9677 0.87371 0.0
C408 C 0.97811 0.13538 0.39593 0.0
C409 C 1.0026 0.15122 0.38476 0.0
C410 C 0.98213 0.10906 0.40791 0.0
C411 C 1.01125 0.09829 0.40841 0.0
C412 C 0.03609 0.11465 0.39813 0.0
C413 C 0.03148 0.14091 0.38663 0.0
C414 C 0.95518 0.0924 0.41915 0.0
C415 C 0.06752 0.10393 0.39818 0.0
C416 C 0.03306 0.03843 0.4544 0.0
C417 C 0.03485 0.0164 0.43451 0.0
C418 C 0.02354 0.06485 0.44668 0.0
C419 C 0.01604 0.06944 0.4183 0.0
C420 C 0.01642 0.04692 0.3985 0.0
C421 C 0.02564 0.02061 0.40689 0.0
C422 C 0.02297 0.08818 0.46854 0.0
C423 C 1.0088 0.051 0.36796 0.0
H424 H 0.95573 0.14318 0.39464 0.0
H425 H 0.05059 0.15295 0.37814 0.0
H426 H 0.95173 0.07375 0.40539 0.0
H427 H 0.95883 0.08484 0.44085 0.0
H428 H 0.93452 0.10478 0.41984 0.0
H429 H 0.08449 0.11961 0.39023 0.0
H430 H 0.07292 0.09799 0.41999 0.0
H431 H 0.06934 0.08491 0.38457 0.0
H432 H 0.03985 0.03525 0.47588 0.0
H433 H 0.0269 1.00368 0.39142 0.0
H434 H 1.00179 0.09962 0.46809 0.0
H435 H 0.04152 0.10334 0.46348 0.0
H436 H 0.02545 0.08039 0.4904 0.0
H437 H 0.98706 0.06143 0.36697 0.0
H438 H 1.00763 0.03095 0.35591 0.0
H439 H 0.02604 0.06477 0.35727 0.0
C440 C 0.99859 0.30376 0.38399 0.0
C441 C 0.02559 0.28964 0.37984 0.0
C442 C 0.99792 0.33141 0.39419 0.0
C443 C 0.02484 0.34532 0.40133 0.0
C444 C 0.05192 0.33051 0.39925 0.0
C445 C 0.05208 0.30303 0.38805 0.0
C446 C 0.9686 0.34638 0.39527 0.0
C447 C 0.08095 0.34412 0.4076 0.0
C448 C 0.02418 0.42303 0.38731 0.0
C449 C 0.01361 0.43406 0.4136 0.0
C450 C 0.02928 0.39446 0.38345 0.0
C451 C 0.02485 0.37622 0.40675 0.0
C452 C 0.01696 0.38754 0.43405 0.0
C453 C 1.01112 0.41632 0.43713 0.0
C454 C 0.03725 0.38359 0.35384 0.0
C455 C 0.01312 0.36904 0.4597 0.0
H456 H 0.97796 0.29377 0.37763 0.0
H457 H 0.07302 0.29227 0.38515 0.0
H458 H 0.96432 0.35619 0.41648 0.0
H459 H 0.96968 0.36332 0.37937 0.0
H460 H 0.94941 0.33217 0.39073 0.0
H461 H 0.09842 0.32848 0.41045 0.0
H462 H 0.08921 0.35877 0.39078 0.0
H463 H 0.07766 0.35638 0.42762 0.0
H464 H 0.02719 0.43668 0.36919 0.0
H465 H 1.00319 0.42459 0.45757 0.0
H466 H 0.01881 0.36984 0.34648 0.0
H467 H 0.05758 0.37088 0.35386 0.0
H468 H 0.04124 0.40066 0.33826 0.0
H469 H 0.99155 0.35727 0.45905 0.0
H470 H 0.01315 0.38135 0.47985 0.0
H471 H 0.03117 0.35359 0.4597 0.0
C472 C 0.97471 0.80377 0.13743 0.0
C473 C 1.00189 0.7936 0.14598 0.0
C474 C 0.97298 0.831 0.12687 0.0
C475 C 0.99882 0.84869 0.12571 0.0
C476 C 0.02635 0.83835 0.13403 0.0
C477 C 0.02762 0.81085 0.14367 0.0
C478 C 0.9434 0.84102 0.11749 0.0
C479 C 0.05426 0.8567 0.13389 0.0
C480 C 1.00447 0.91508 0.082 0.0
C481 C 0.99708 0.93543 0.10259 0.0
C482 C 1.00402 0.88661 0.08893 0.0
C483 C 0.99691 0.87847 0.11734 0.0
C484 C 0.98945 0.89904 0.13819 0.0
C485 C 0.98923 0.92723 0.13046 0.0
C486 C 0.01141 0.86528 0.06595 0.0
C487 C 0.9826 0.89139 0.16888 0.0
H488 H 0.95479 0.79048 0.13911 0.0
H489 H 0.04864 0.80325 0.15059 0.0
H490 H 0.9352 0.85783 0.13205 0.0
H491 H 0.94615 0.85 0.09588 0.0
H492 H 0.92614 0.82399 0.11725 0.0
H493 H 0.07403 0.84531 0.14051 0.0
H494 H 0.05932 0.86519 0.11235 0.0
H495 H 0.05066 0.87475 0.14856 0.0
H496 H 1.01032 0.9215 0.06042 0.0
H497 H 0.98388 0.94305 0.14642 0.0
H498 H 0.99345 0.84894 0.06549 0.0
H499 H 0.03236 0.85476 0.07058 0.0
H500 H 0.01424 0.87481 0.04458 0.0
H501 H 0.96362 0.87612 0.17047 0.0
H502 H 0.97695 0.90986 0.18241 0.0
H503 H 1.00219 0.88128 0.17751 0.0
C504 C 0.99468 0.65044 0.12098 0.0
C505 C 0.02426 0.65943 0.1248 0.0
C506 C 0.98826 0.62425 0.10898 0.0
C507 C 0.01202 0.60675 0.10021 0.0
C508 C 0.04193 0.61675 0.10147 0.0
C509 C 0.04775 0.643 0.11392 0.0
C510 C 0.95603 0.6144 0.10806 0.0
C511 C 0.06782 0.5989 0.09166 0.0
C512 C 0.99384 0.53013 0.11145 0.0
C513 C 0.98556 0.52143 0.08436 0.0
C514 C 1.00355 0.55763 0.11655 0.0
C515 C 1.00542 0.57686 0.09392 0.0
C516 C 0.99838 0.56794 0.06623 0.0
C517 C 0.98828 0.54032 0.0618 0.0
C518 C 1.01062 0.56638 0.14649 0.0
C519 C 1.00061 0.58775 0.04151 0.0
H520 H 0.97636 0.66316 0.12895 0.0
H521 H 0.07067 0.6499 0.11653 0.0
H522 H 0.95147 0.60525 0.08693 0.0
H523 H 0.9515 0.59782 0.12405 0.0
H524 H 0.94022 0.63156 0.1127 0.0
H525 H 0.08897 0.61138 0.08903 0.0
H526 H 0.07092 0.5825 0.1076 0.0
H527 H 0.06331 0.58825 0.0712 0.0
H528 H 0.99189 0.51564 0.12897 0.0
H529 H 0.98222 0.53361 0.04073 0.0
H530 H 0.99465 0.58235 0.15445 0.0
H531 H 0.03337 0.57599 0.14673 0.0
H532 H 1.00931 0.54856 0.1614 0.0
H533 H 0.9828 0.60338 0.0441 0.0
H534 H 0.99821 0.57672 0.02082 0.0
H535 H 0.02236 0.59935 0.04095 0.0
C536 C 0.3727 0.98439 0.15049 0.0
C537 C 0.37113 0.0071 0.16967 0.0
C538 C 0.38792 0.9867 0.12378 0.0
C539 C 0.40233 0.01227 0.11598 0.0
C540 C 0.40195 0.03493 0.13568 0.0
C541 C 0.3862 0.03215 0.16219 0.0
C542 C 0.38735 0.96214 0.10338 0.0
C543 C 0.41736 0.06245 0.12839 0.0
C544 C 0.45777 0.01499 0.05155 0.0
C545 C 0.44042 0.02689 0.03116 0.0
C546 C 0.44566 0.00972 0.07925 0.0
C547 C 0.41542 0.0161 0.08639 0.0
C548 C 0.39758 0.02693 0.06529 0.0
C549 C 0.41043 0.03255 0.03813 0.0
C550 C 0.46556 0.99861 0.1012 0.0
C551 C 0.36512 0.03346 0.07162 0.0
H552 H 0.36115 0.9649 0.15593 0.0
H553 H 0.38527 0.04978 0.17683 0.0
H554 H 0.37435 0.96742 0.08479 0.0
H555 H 0.41032 0.95738 0.09523 0.0
H556 H 0.37712 0.9431 0.11337 0.0
H557 H 0.41752 0.07705 0.1469 0.0
H558 H 0.44075 0.05904 0.12055 0.0
H559 H 0.40579 0.07249 0.11105 0.0
H560 H 0.48117 0.01125 0.04632 0.0
H561 H 0.39715 0.04208 0.02239 0.0
H562 H 0.45505 0.97984 0.11142 0.0
H563 H 0.46849 0.01458 0.11818 0.0
H564 H 0.48794 0.99313 0.09191 0.0
H565 H 0.35297 0.01495 0.08074 0.0
H566 H 0.35384 0.03992 0.05235 0.0
H567 H 0.36336 0.05056 0.08768 0.0
C568 C 0.65048 0.52821 0.19557 0.0
C569 C 0.64545 0.50852 0.21712 0.0
C570 C 0.63972 0.52339 0.16838 0.0
C571 C 0.62298 0.49859 0.16287 0.0
C572 C 0.61583 0.47976 0.18522 0.0
C573 C 0.62745 0.48479 0.21201 0.0
C574 C 0.64814 0.54386 0.14505 0.0
C575 C 0.59737 0.4535 0.18043 0.0
C576 C 0.58413 0.49742 0.09296 0.0
C577 C 0.60458 0.48295 0.07527 0.0
C578 C 0.58893 0.50139 0.12199 0.0
C579 C 0.61531 0.49133 0.13322 0.0
C580 C 0.63554 0.47586 0.11548 0.0
C581 C 0.62976 0.47168 0.08667 0.0
C582 C 0.56653 0.51743 0.14028 0.0
C583 C 0.66415 0.46512 0.12649 0.0
H584 H 0.66467 0.5464 0.1993 0.0
H585 H 0.62347 0.46953 0.22866 0.0
H586 H 0.6635 0.53384 0.12901 0.0
H587 H 0.62803 0.54993 0.134 0.0
H588 H 0.65935 0.56305 0.15324 0.0
H589 H 0.59036 0.44312 0.20072 0.0
H590 H 0.57714 0.45825 0.16888 0.0
H591 H 0.61062 0.43861 0.16706 0.0
H592 H 0.5649 0.50638 0.08375 0.0
H593 H 0.64572 0.46102 0.0726 0.0
H594 H 0.57633 0.5381 0.14603 0.0
H595 H 0.56095 0.5062 0.16038 0.0
H596 H 0.54559 0.52079 0.12924 0.0
H597 H 0.67863 0.48298 0.13296 0.0
H598 H 0.67678 0.45243 0.11031 0.0
H599 H 0.65923 0.4522 0.1456 0.0
C600 C 0.35546 0.92612 0.31162 0.0
C601 C 0.36397 0.94945 0.29513 0.0
C602 C 0.36531 0.92342 0.33943 0.0
C603 C 0.38414 0.94449 0.35092 0.0
C604 C 0.39479 0.96675 0.3334 0.0
C605 C 0.38457 0.96895 0.30582 0.0
C606 C 0.3536 0.89921 0.35722 0.0
C607 C 0.41503 0.9896 0.34455 0.0
C608 C 0.37605 0.9647 0.42917 0.0
C609 C 0.40215 0.9543 0.44003 0.0
C610 C 0.36942 0.9606 0.40056 0.0
C611 C 0.38936 0.94567 0.38208 0.0
C612 C 0.41512 0.93406 0.39312 0.0
C613 C 0.4212 0.93848 0.42197 0.0
C614 C 0.34151 0.97316 0.3899 0.0
C615 C 0.43682 0.91786 0.37422 0.0
H616 H 0.3394 0.91104 0.30367 0.0
H617 H 0.39141 0.98697 0.29318 0.0
H618 H 0.37154 0.89065 0.36972 0.0
H619 H 0.33578 0.90655 0.37251 0.0
H620 H 0.34405 0.88219 0.34396 0.0
H621 H 0.42422 1.00347 0.32736 0.0
H622 H 0.40228 1.0025 0.36043 0.0
H623 H 0.43389 0.98058 0.35542 0.0
H624 H 0.36081 0.97635 0.44307 0.0
H625 H 0.44143 0.93041 0.43011 0.0
H626 H 0.32801 0.957 0.37892 0.0
H627 H 0.34777 0.9896 0.37417 0.0
H628 H 0.32735 0.98259 0.40732 0.0
H629 H 0.42475 0.90175 0.36178 0.0
H630 H 0.45385 0.90752 0.38655 0.0
H631 H 0.44849 0.93218 0.35879 0.0
C632 C 0.62548 0.50016 0.35363 0.0
C633 C 0.64525 0.47817 0.34867 0.0
C634 C 0.60962 0.5034 0.37988 0.0
C635 C 0.61389 0.48444 0.40208 0.0
C636 C 0.63234 0.46114 0.39662 0.0
C637 C 0.64767 0.45817 0.3699 0.0
C638 C 0.58991 0.52833 0.38446 0.0
C639 C 0.63768 0.4405 0.41964 0.0
C640 C 0.60948 0.51987 0.47461 0.0
C641 C 0.58068 0.51226 0.48526 0.0
C642 C 0.62094 0.50975 0.44834 0.0
C643 C 0.60304 0.49176 0.43178 0.0
C644 C 0.5743 0.48307 0.44283 0.0
C645 C 0.56351 0.49325 0.46963 0.0
C646 C 0.65188 0.5193 0.43784 0.0
C647 C 0.55444 0.46408 0.42581 0.0
H648 H 0.6232 0.51554 0.33723 0.0
H649 H 0.66293 0.44115 0.36629 0.0
H650 H 0.56818 0.52199 0.39503 0.0
H651 H 0.60086 0.54373 0.39862 0.0
H652 H 0.58561 0.53878 0.36418 0.0
H653 H 0.64832 0.4213 0.41094 0.0
H654 H 0.65261 0.45029 0.43524 0.0
H655 H 0.61641 0.43456 0.43129 0.0
H656 H 0.62311 0.53417 0.48677 0.0
H657 H 0.54124 0.48731 0.47774 0.0
H658 H 0.65029 0.53265 0.41891 0.0
H659 H 0.66547 0.50108 0.43126 0.0
H660 H 0.66381 0.53143 0.45425 0.0
H661 H 0.54682 0.47554 0.40727 0.0
H662 H 0.53446 0.45649 0.43861 0.0
H663 H 0.56698 0.44584 0.41741 0.0
C664 C 0.18002 0.4061 0.05834 0.0
C665 C 0.19118 0.39297 0.03339 0.0
C666 C 0.15001 0.41429 0.06114 0.0
C667 C 0.13046 0.40823 0.03892 0.0
C668 C 0.14188 0.39565 0.01345 0.0
C669 C 0.1721 0.38864 0.01084 0.0
C670 C 0.13895 0.42853 0.08827 0.0
C671 C 0.12177 0.38789 0.9896 0.0
C672 C 0.04815 0.39705 0.06074 0.0
C673 C 0.03559 0.42141 0.05102 0.0
C674 C 0.07884 0.39227 0.05634 0.0
C675 C 0.09768 0.41294 0.04303 0.0
C676 C 0.08503 0.43768 0.03325 0.0
C677 C 0.05401 0.44139 0.03691 0.0
C678 C 0.09111 0.36511 0.06608 0.0
C679 C 0.10438 0.46058 0.01975 0.0
H680 H 0.19457 0.40944 0.07585 0.0
H681 H 0.18028 0.37808 0.99161 0.0
H682 H 0.12602 0.44719 0.08339 0.0
H683 H 0.12372 0.41411 0.10062 0.0
H684 H 0.15757 0.43505 0.1018 0.0
H685 H 0.13441 0.37958 0.97058 0.0
H686 H 0.10512 0.37174 0.99705 0.0
H687 H 0.10919 0.40623 0.98322 0.0
H688 H 0.03388 0.38172 0.07183 0.0
H689 H 0.04434 0.46052 0.02996 0.0
H690 H 0.10713 0.36925 0.08294 0.0
H691 H 0.10352 0.35463 0.04813 0.0
H692 H 0.07325 0.35057 0.07454 0.0
H693 H 0.12122 0.46797 0.03484 0.0
H694 H 0.09116 0.47866 0.01358 0.0
H695 H 0.1168 0.45248 1.00056 0.0
C696 C 0.17677 0.62386 0.53349 0.0
C697 C 0.19266 0.63745 0.51102 0.0
C698 C 0.14982 0.60902 0.52903 0.0
C699 C 0.13816 0.60813 0.50158 0.0
C700 C 0.15469 0.62092 0.47865 0.0
C701 C 0.18176 0.63519 0.4836 0.0
C702 C 0.13322 0.59526 0.55396 0.0
C703 C 0.14301 0.62087 0.4491 0.0
C704 C 0.07366 0.55915 0.48138 0.0
C705 C 0.04921 0.57691 0.48435 0.0
C706 C 0.10262 0.5686 0.48794 0.0
C707 C 0.10735 0.59657 0.49725 0.0
C708 C 0.08262 0.6143 0.5009 0.0
C709 C 0.05398 0.60424 0.49464 0.0
C710 C 0.12828 0.54887 0.48427 0.0
C711 C 0.08652 0.64434 0.51044 0.0
H712 H 0.18505 0.62529 0.55471 0.0
H713 H 0.19376 0.6456 0.46606 0.0
H714 H 0.11262 0.60688 0.55965 0.0
H715 H 0.12626 0.5736 0.54829 0.0
H716 H 0.14693 0.59471 0.57297 0.0
H717 H 0.15947 0.62998 0.4332 0.0
H718 H 0.13711 0.59928 0.44227 0.0
H719 H 0.12232 0.63313 0.44917 0.0
H720 H 0.07025 0.538 0.47355 0.0
H721 H 0.03537 0.61823 0.49704 0.0
H722 H 0.1412 0.54885 0.50378 0.0
H723 H 0.14375 0.556 0.46658 0.0
H724 H 0.1206 0.52716 0.47954 0.0
H725 H 0.09763 0.64542 0.53097 0.0
H726 H 0.06491 0.65519 0.51303 0.0
H727 H 0.10113 0.65584 0.49462 0.0
C728 C 0.85276 0.91306 0.49696 0.0
C729 C 0.84062 0.89987 0.52146 0.0
C730 C 0.88354 0.91961 0.49375 0.0
C731 C 0.90291 0.91207 0.51518 0.0
C732 C 0.8906 0.89972 0.54043 0.0
C733 C 0.85962 0.8941 0.54341 0.0
C734 C 0.89551 0.93349 0.4668 0.0
C735 C 0.91036 0.89072 0.56354 0.0
C736 C 0.98218 0.89776 0.48684 0.0
C737 C 0.99776 0.92221 0.49456 0.0
C738 C 0.95176 0.89362 0.49476 0.0
C739 C 0.93611 0.91489 0.50996 0.0
C740 C 0.95198 0.93929 0.5186 0.0
C741 C 0.98272 0.94249 0.51111 0.0
C742 C 0.93609 0.86687 0.48586 0.0
C743 C 0.93614 0.96274 0.53424 0.0
H744 H 0.83829 0.91758 0.47989 0.0
H745 H 0.85058 0.88355 0.56227 0.0
H746 H 0.9105 0.95145 0.4719 0.0
H747 H 0.90891 0.91845 0.45376 0.0
H748 H 0.87734 0.94101 0.45383 0.0
H749 H 0.89724 0.88394 0.58297 0.0
H750 H 0.92412 0.87305 0.55559 0.0
H751 H 0.92596 0.90794 0.56936 0.0
H752 H 0.9937 0.8821 0.47393 0.0
H753 H 0.99452 0.96167 0.51664 0.0
H754 H 0.91982 0.87142 0.46961 0.0
H755 H 0.92336 0.85746 0.5043 0.0
H756 H 0.95197 0.85129 0.4768 0.0
H757 H 0.92038 0.97234 0.51999 0.0
H758 H 0.95196 0.97922 0.54154 0.0
H759 H 0.92277 0.95466 0.55294 0.0
C760 C 0.3511 0.64148 0.5263 0.0
C761 C 0.34128 0.64744 0.49916 0.0
C762 C 0.3791 0.62972 0.52996 0.0
C763 C 0.39799 0.62322 0.50592 0.0
C764 C 0.38809 0.62866 0.47838 0.0
C765 C 0.36002 0.64089 0.47533 0.0
C766 C 0.38863 0.62462 0.55975 0.0
C767 C 0.40724 0.62169 0.45214 0.0
C768 C 0.48078 0.61539 0.52051 0.0
C769 C 0.48252 0.58651 0.52464 0.0
C770 C 0.45375 0.62754 0.51345 0.0
C771 C 0.42783 0.61043 0.50995 0.0
C772 C 0.4299 0.58115 0.51281 0.0
C773 C 0.45701 0.56963 0.52031 0.0
C774 C 0.45259 0.65886 0.511 0.0
C775 C 0.40314 0.56197 0.50894 0.0
H776 H 0.33713 0.64661 0.54498 0.0
H777 H 0.35284 0.64546 0.45428 0.0
H778 H 0.39273 0.6021 0.56252 0.0
H779 H 0.40991 0.63614 0.56337 0.0
H780 H 0.37162 0.63125 0.57626 0.0
H781 H 0.39615 0.62649 0.43225 0.0
H782 H 0.42874 0.63363 0.4524 0.0
H783 H 0.41258 0.5992 0.45194 0.0
H784 H 0.50024 0.62866 0.52393 0.0
H785 H 0.45805 0.54728 0.52325 0.0
H786 H 0.43771 0.66731 0.5284 0.0
H787 H 0.44304 0.66454 0.49062 0.0
H788 H 0.475 0.6691 0.51224 0.0
H789 H 0.38606 0.56568 0.52634 0.0
H790 H 0.40908 0.5396 0.50904 0.0
H791 H 0.39276 0.56641 0.48862 0.0
C792 C 0.47928 0.63531 0.89244 0.0
C793 C 0.50371 0.65253 0.88366 0.0
C794 C 0.4836 0.60836 0.90282 0.0
C795 C 0.51299 0.59842 0.90426 0.0
C796 C 0.53769 0.61617 0.89661 0.0
C797 C 0.53276 0.64298 0.88657 0.0
C798 C 0.45674 0.59016 0.91122 0.0
C799 C 0.56942 0.60644 0.89786 0.0
C800 C 0.53369 0.53635 0.94775 0.0
C801 C 0.53778 0.51565 0.92664 0.0
C802 C 0.52386 0.56295 0.94107 0.0
C803 C 0.51831 0.56913 0.91254 0.0
C804 C 0.52102 0.54793 0.89137 0.0
C805 C 0.53058 0.52137 0.8987 0.0
C806 C 0.52089 0.58483 0.96433 0.0
C807 C 0.51545 0.55373 0.86066 0.0
H808 H 0.45676 0.64247 0.89026 0.0
H809 H 0.55183 0.65611 0.87999 0.0
H810 H 0.45499 0.57244 0.89595 0.0
H811 H 0.45925 0.58119 0.93255 0.0
H812 H 0.43561 0.60184 0.91153 0.0
H813 H 0.58617 0.62316 0.89213 0.0
H814 H 0.57356 0.59911 0.91953 0.0
H815 H 0.57297 0.58852 0.88301 0.0
H816 H 0.53892 0.53201 0.96947 0.0
H817 H 0.53364 0.50548 0.88229 0.0
H818 H 0.49933 0.59558 0.96335 0.0
H819 H 0.53899 0.60088 0.96131 0.0
H820 H 0.5223 0.5758 0.98582 0.0
H821 H 0.49347 0.56356 0.85894 0.0
H822 H 0.51595 0.53446 0.84728 0.0
H823 H 0.53279 0.56865 0.85199 0.0
C824 C 0.55051 0.81153 0.87055 0.0
C825 C 0.53101 0.7898 0.87982 0.0
C826 C 0.54741 0.83889 0.88147 0.0
C827 C 0.5247 0.8446 0.90265 0.0
C828 C 0.50688 0.82215 0.91396 0.0
C829 C 0.50994 0.79517 0.90215 0.0
C830 C 0.56666 0.86209 0.86841 0.0
C831 C 0.48298 0.82697 0.93707 0.0
C832 C 0.52195 0.91904 0.93398 0.0
C833 C 0.50119 0.93122 0.91683 0.0
C834 C 0.52934 0.8906 0.93036 0.0
C835 C 0.51595 0.87416 0.90889 0.0
C836 C 0.4942 0.88621 0.89235 0.0
C837 C 0.48686 0.91422 0.89682 0.0
C838 C 0.55203 0.87839 0.94896 0.0
C839 C 0.47922 0.86975 0.86917 0.0
H840 H 0.56674 0.80765 0.85321 0.0
H841 H 0.49493 0.77846 0.90963 0.0
H842 H 0.55291 0.87486 0.85478 0.0
H843 H 0.57543 0.8761 0.88514 0.0
H844 H 0.58577 0.85397 0.85513 0.0
H845 H 0.47529 0.80716 0.94736 0.0
H846 H 0.49126 0.84154 0.95358 0.0
H847 H 0.46347 0.83661 0.9278 0.0
H848 H 0.53309 0.9319 0.94951 0.0
H849 H 0.47006 0.92304 0.88408 0.0
H850 H 0.57289 0.87432 0.9361 0.0
H851 H 0.54364 0.8581 0.95767 0.0
H852 H 0.5575 0.8926 0.9669 0.0
H853 H 0.49631 0.86209 0.85328 0.0
H854 H 0.46305 0.88233 0.85795 0.0
H855 H 0.46715 0.85121 0.87828 0.0
C856 C 0.47887 0.30981 0.65726 0.0
C857 C 0.4979 0.28997 0.6445 0.0
C858 C 0.47868 0.33729 0.64719 0.0
C859 C 0.49734 0.34495 0.62326 0.0
C860 C 0.51553 0.32461 0.60946 0.0
C861 C 0.51595 0.2975 0.62051 0.0
C862 C 0.45949 0.35845 0.66296 0.0
C863 C 0.53509 0.33167 0.58341 0.0
C864 C 0.47844 0.4122 0.58646 0.0
C865 C 0.49989 0.43103 0.59672 0.0
C866 C 0.47787 0.38395 0.59423 0.0
C867 C 0.49869 0.37451 0.61346 0.0
C868 C 0.52038 0.39354 0.62392 0.0
C869 C 0.52098 0.42148 0.61507 0.0
C870 C 0.45497 0.36422 0.58193 0.0
C871 C 0.54249 0.38458 0.64501 0.0
H872 H 0.46517 0.30425 0.67604 0.0
H873 H 0.53068 0.28223 0.61056 0.0
H874 H 0.47391 0.37535 0.67163 0.0
H875 H 0.44436 0.36825 0.64825 0.0
H876 H 0.44575 0.34903 0.68081 0.0
H877 H 0.54579 0.31294 0.57369 0.0
H878 H 0.52174 0.34164 0.56727 0.0
H879 H 0.55291 0.34689 0.58917 0.0
H880 H 0.46232 0.41959 0.57205 0.0
H881 H 0.53737 0.43614 0.62319 0.0
H882 H 0.4396 0.35597 0.59917 0.0
H883 H 0.46622 0.34608 0.57163 0.0
H884 H 0.44152 0.37448 0.56602 0.0
H885 H 0.53036 0.37652 0.66444 0.0
H886 H 0.55777 0.40197 0.65124 0.0
H887 H 0.5561 0.36734 0.63588 0.0
C888 C 0.54444 0.14097 0.60965 0.0
C889 C 0.52151 0.15452 0.62533 0.0
C890 C 0.53929 0.11473 0.59687 0.0
C891 C 0.51067 0.10167 0.6002 0.0
C892 C 0.48707 0.11594 0.61464 0.0
C893 C 0.49273 0.14224 0.62683 0.0
C894 C 0.56483 0.10038 0.5811 0.0
C895 C 0.45625 0.1027 0.61882 0.0
C896 C 0.48591 0.03764 0.55831 0.0
C897 C 0.48956 0.01635 0.57795 0.0
C898 C 0.49416 0.06543 0.56459 0.0
C899 C 0.50587 0.07208 0.59129 0.0
C900 C 0.5106 0.05051 0.61074 0.0
C901 C 0.50258 0.02291 0.60375 0.0
C902 C 0.4893 0.08779 0.54312 0.0
C903 C 0.52278 0.05675 0.63956 0.0
H904 H 0.5667 0.15038 0.6082 0.0
H905 H 0.4748 0.15255 0.63878 0.0
H906 H 0.57215 0.08273 0.59388 0.0
H907 H 0.55758 0.09159 0.56057 0.0
H908 H 0.58429 0.11479 0.57688 0.0
H909 H 0.43985 0.11735 0.62874 0.0
H910 H 0.44795 0.09528 0.59818 0.0
H911 H 0.45729 0.08423 0.63269 0.0
H912 H 0.47609 0.03269 0.53821 0.0
H913 H 0.50551 0.00659 0.61903 0.0
H914 H 0.50961 0.10135 0.54018 0.0
H915 H 0.47083 0.10126 0.55102 0.0
H916 H 0.48355 0.07884 0.52214 0.0
H917 H 0.54416 0.06884 0.6372 0.0
H918 H 0.52664 0.03747 0.65158 0.0
H919 H 0.50681 0.06976 0.65231 0.0
C920 C 0.88813 0.53079 0.66122 0.0
C921 C 0.87171 0.50679 0.66982 0.0
C922 C 0.90339 0.53201 0.63437 0.0
C923 C 0.90195 0.50881 0.6154 0.0
C924 C 0.88643 0.48415 0.62443 0.0
C925 C 0.87168 0.48339 0.65149 0.0
C926 C 0.92 0.55861 0.62581 0.0
C927 C 0.88398 0.45906 0.60489 0.0
C928 C 0.90708 0.52831 0.53731 0.0
C929 C 0.93671 0.52219 0.52917 0.0
C930 C 0.89524 0.52286 0.56486 0.0
C931 C 0.91369 0.51157 0.58519 0.0
C932 C 0.94342 0.50437 0.5768 0.0
C933 C 0.95456 0.5096 0.54874 0.0
C934 C 0.86328 0.53037 0.57251 0.0
C935 C 0.96392 0.49258 0.59784 0.0
H936 H 0.88849 0.54893 0.6752 0.0
H937 H 0.8591 0.46469 0.65781 0.0
H938 H 0.9428 0.55392 0.61712 0.0
H939 H 0.90818 0.56888 0.60877 0.0
H940 H 0.92183 0.57355 0.64392 0.0
H941 H 0.87389 0.44055 0.61602 0.0
H942 H 0.8699 0.46412 0.587 0.0
H943 H 0.9063 0.45354 0.5956 0.0
H944 H 0.89335 0.53827 0.52222 0.0
H945 H 0.97767 0.50541 0.54263 0.0
H946 H 0.86286 0.54777 0.58828 0.0
H947 H 0.85098 0.51234 0.58245 0.0
H948 H 0.85124 0.53686 0.55369 0.0
H949 H 0.96906 0.50879 0.61404 0.0
H950 H 0.98527 0.48555 0.58746 0.0
H951 H 0.95286 0.47471 0.60922 0.0
C952 C 0.13451 0.98691 0.71635 0.0
C953 C 0.1519 0.01097 0.72171 0.0
C954 C 0.12244 0.98221 0.68972 0.0
C955 C 0.12851 1.00173 0.66778 0.0
C956 C 0.1446 0.02683 0.6736 0.0
C957 C 0.15584 0.03128 0.70064 0.0
C958 C 0.10469 0.95559 0.68459 0.0
C959 C 0.15182 0.04805 0.65069 0.0
C960 C 0.1351 0.97617 0.59119 0.0
C961 C 0.10916 0.98651 0.58039 0.0
C962 C 0.14124 0.98027 0.61989 0.0
C963 C 0.12067 0.99482 0.63812 0.0
C964 C 0.09369 1.00411 0.62745 0.0
C965 C 0.08844 1.00013 0.59851 0.0
C966 C 0.17042 0.97027 0.63033 0.0
C967 C 0.07098 0.01921 0.64628 0.0
H968 H 0.13128 0.97121 0.73267 0.0
H969 H 0.16948 0.04979 0.70461 0.0
H970 H 0.08407 0.96004 0.67351 0.0
H971 H 0.11816 0.94134 0.67067 0.0
H972 H 0.09837 0.94461 0.70472 0.0
H973 H 0.16251 0.06738 0.65918 0.0
H974 H 0.16724 0.03887 0.63415 0.0
H975 H 0.13126 0.05375 0.64017 0.0
H976 H 0.15118 0.96609 0.57676 0.0
H977 H 0.06859 0.00835 0.58972 0.0
H978 H 0.16622 0.95672 0.6491 0.0
H979 H 0.18426 0.98843 0.63717 0.0
H980 H 0.18341 0.95841 0.61372 0.0
H981 H 0.06599 0.00748 0.66618 0.0
H982 H 0.04978 0.02222 0.63554 0.0
H983 H 0.0802 0.04001 0.65238 0.0
C984 C 0.87095 0.4805 0.81723 0.0
C985 C 0.8575 0.45846 0.80212 0.0
C986 C 0.88145 0.47671 0.84447 0.0
C987 C 0.87895 0.45006 0.85713 0.0
C988 C 0.86619 0.42745 0.84178 0.0
C989 C 0.85547 0.43193 0.81452 0.0
C990 C 0.89478 0.5015 0.85995 0.0
C991 C 0.8634 0.39867 0.85438 0.0
C992 C 0.93315 0.44315 0.91601 0.0
C993 C 0.91527 0.4497 0.94035 0.0
C994 C 0.92112 0.44111 0.88905 0.0
C995 C 0.89045 0.44623 0.88615 0.0
C996 C 0.8719 0.45128 0.91092 0.0
C997 C 0.88452 0.45274 0.9378 0.0
C998 C 0.94171 0.43523 0.86345 0.0
C999 C 0.83918 0.4572 0.90888 0.0
H1000 H 0.87258 0.50116 0.8081 0.0
H1001 H 0.84491 0.4148 0.80324 0.0
H1002 H 0.88205 0.50508 0.88042 0.0
H1003 H 0.91816 0.49729 0.86496 0.0
H1004 H 0.8947 0.52094 0.84735 0.0
H1005 H 0.85397 0.38306 0.83942 0.0
H1006 H 0.88562 0.39168 0.86043 0.0
H1007 H 0.84877 0.39922 0.87407 0.0
H1008 H 0.95689 0.44048 0.91802 0.0
H1009 H 0.87074 0.45797 0.95656 0.0
H1010 H 0.94521 0.45451 0.8508 0.0
H1011 H 0.93159 0.41914 0.8495 0.0
H1012 H 0.96385 0.42803 0.86958 0.0
H1013 H 0.83687 0.47847 0.90033 0.0
H1014 H 0.82691 0.45613 0.92993 0.0
H1015 H 0.82852 0.44227 0.89405 0.0
C1016 C 0.13011 1.0024 0.85862 0.0
C1017 C 0.14806 0.97938 0.85211 0.0
C1018 C 0.11323 1.0042 0.88443 0.0
C1019 C 0.11437 0.9825 0.90447 0.0
C1020 C 0.13061 0.95822 0.89713 0.0
C1021 C 0.14726 0.95691 0.87098 0.0
C1022 C 0.09607 0.0304 0.89114 0.0
C1023 C 0.13224 0.93452 0.91774 0.0
C1024 C 0.11069 0.01179 0.97941 0.0
C1025 C 0.08051 0.00752 0.98786 0.0
C1026 C 0.12229 1.00203 0.95312 0.0
C1027 C 0.10319 0.98778 0.93443 0.0
C1028 C 0.07305 0.98182 0.94353 0.0
C1029 C 0.06202 0.99169 0.97034 0.0
C1030 C 0.15464 0.00864 0.94466 0.0
C1031 C 0.05201 0.96658 0.92432 0.0
H1032 H 0.13018 0.0197 0.844 0.0
H1033 H 0.16091 0.93896 0.86609 0.0
H1034 H 0.07328 0.02511 0.9 0.0
H1035 H 0.10763 0.04292 0.90748 0.0
H1036 H 0.09416 0.04356 0.87209 0.0
H1037 H 0.1407 0.91525 0.9071 0.0
H1038 H 0.14757 0.94063 0.93467 0.0
H1039 H 0.10998 0.92985 0.92816 0.0
H1040 H 0.12516 0.0237 0.99313 0.0
H1041 H 0.03867 0.98842 0.97681 0.0
H1042 H 0.15587 0.02392 0.9271 0.0
H1043 H 0.166 0.98955 0.93678 0.0
H1044 H 0.1671 0.0176 0.9626 0.0
H1045 H 0.04562 0.98084 0.90739 0.0
H1046 H 0.03133 0.95914 0.93613 0.0
H1047 H 0.06303 0.94846 0.91375 0.0
C1048 C 0.66941 0.89579 0.47144 0.0
C1049 C 0.68804 0.90145 0.49408 0.0
C1050 C 0.63874 0.9016 0.47374 0.0
C1051 C 0.62645 0.91388 0.49906 0.0
C1052 C 0.64565 0.92171 0.52102 0.0
C1053 C 0.67609 0.91514 0.5184 0.0
C1054 C 0.61915 0.89256 0.44995 0.0
C1055 C 0.63369 0.93547 0.54811 0.0
C1056 C 0.54704 0.94151 0.50495 0.0
C1057 C 0.53214 0.92051 0.52096 0.0
C1058 C 0.5776 0.93936 0.49673 0.0
C1059 C 0.5933 0.91539 0.50421 0.0
C1060 C 0.57763 0.89333 0.51867 0.0
C1061 C 0.54744 0.89638 0.52724 0.0
C1062 C 0.59348 0.96353 0.48177 0.0
C1063 C 0.59314 0.86704 0.52642 0.0
H1064 H 0.6783 0.88502 0.45261 0.0
H1065 H 0.69029 0.91969 0.53595 0.0
H1066 H 0.60538 0.87404 0.45672 0.0
H1067 H 0.60359 0.90928 0.44501 0.0
H1068 H 0.63246 0.88698 0.43026 0.0
H1069 H 0.65188 0.94362 0.56136 0.0
H1070 H 0.61905 0.95294 0.54323 0.0
H1071 H 0.61995 0.9201 0.56079 0.0
H1072 H 0.5354 0.96044 0.50058 0.0
H1073 H 0.53595 0.8802 0.53977 0.0
H1074 H 0.60747 0.95606 0.46327 0.0
H1075 H 0.60864 0.97423 0.49659 0.0
H1076 H 0.57761 0.97899 0.47435 0.0
H1077 H 0.60566 0.85832 0.50757 0.0
H1078 H 0.57717 0.85076 0.53496 0.0
H1079 H 0.60955 0.87197 0.54276 0.0
C1080 C 0.68702 0.13477 0.9819 0.0
C1081 C 0.69956 0.13591 0.00863 0.0
C1082 C 0.66055 0.11934 0.97753 0.0
C1083 C 0.64648 0.10413 1.00028 0.0
C1084 C 0.66014 0.10367 0.02679 0.0
C1085 C 0.6863 0.11984 0.03077 0.0
C1086 C 0.64657 0.12089 0.94907 0.0
C1087 C 0.64633 0.08719 0.05138 0.0
C1088 C 0.56199 0.09943 0.99917 0.0
C1089 C 0.55687 0.07329 0.98618 0.0
C1090 C 0.59089 0.10921 1.00453 0.0
C1091 C 0.61561 0.09226 0.99739 0.0
C1092 C 0.61061 0.06515 0.9858 0.0
C1093 C 0.58129 0.05606 0.98007 0.0
C1094 C 0.59502 0.13836 0.01662 0.0
C1095 C 0.63631 0.04616 0.97859 0.0
H1096 H 0.69705 0.14712 0.96466 0.0
H1097 H 0.696 0.12034 0.05141 0.0
H1098 H 0.64092 0.09966 0.94103 0.0
H1099 H 0.62543 0.13246 0.95151 0.0
H1100 H 0.66149 0.1316 0.93289 0.0
H1101 H 0.66198 0.0852 0.06878 0.0
H1102 H 0.62606 0.09776 0.06008 0.0
H1103 H 0.63929 0.06599 0.04419 0.0
H1104 H 0.54338 0.11291 1.0043 0.0
H1105 H 0.57762 0.0358 0.97016 0.0
H1106 H 0.60831 0.15145 1.00112 0.0
H1107 H 0.60758 0.13777 0.0363 0.0
H1108 H 0.5734 0.14863 0.02164 0.0
H1109 H 0.6496 0.05439 0.95992 0.0
H1110 H 0.62853 0.02456 0.97353 0.0
H1111 H 0.65142 0.0455 0.99654 0.0
C1112 C 0.35599 0.39833 0.97213 0.0
C1113 C 0.34339 0.38465 0.99615 0.0
C1114 C 0.38645 0.40651 0.97046 0.0
C1115 C 0.40501 0.40016 0.99298 0.0
C1116 C 0.39223 0.38686 0.0175 0.0
C1117 C 0.3616 0.37961 0.01892 0.0
C1118 C 0.39898 0.42125 0.94421 0.0
C1119 C 0.41119 0.379 0.04166 0.0
C1120 C 0.48714 0.39185 0.97062 0.0
C1121 C 0.49997 0.41713 0.97987 0.0
C1122 C 0.45659 0.38561 0.9759 0.0
C1123 C 0.43807 0.40555 0.98994 0.0
C1124 C 0.45111 0.43084 1.00006 0.0
C1125 C 0.48202 0.43617 0.99522 0.0
C1126 C 0.44396 0.35802 0.96552 0.0
C1127 C 0.43216 0.45291 0.01458 0.0
H1128 H 0.34212 0.40236 0.95448 0.0
H1129 H 0.35221 0.36876 0.03747 0.0
H1130 H 0.41176 0.44036 0.95026 0.0
H1131 H 0.4147 0.40745 0.93215 0.0
H1132 H 0.3812 0.42718 0.92995 0.0
H1133 H 0.39761 0.37028 0.05997 0.0
H1134 H 0.42751 0.36318 0.03409 0.0
H1135 H 0.42417 0.39744 0.04914 0.0
H1136 H 0.50095 0.37719 0.95856 0.0
H1137 H 0.49176 0.456 1.00183 0.0
H1138 H 0.42863 0.36163 0.94821 0.0
H1139 H 0.43075 0.34743 0.98297 0.0
H1140 H 0.46171 0.34382 0.95734 0.0
H1141 H 0.41656 0.46112 0.99929 0.0
H1142 H 0.44585 0.47061 0.02278 0.0
H1143 H 0.41838 0.44382 0.03252 0.0
C1144 C 0.85645 0.14486 0.02443 0.0
C1145 C 0.84621 0.14978 0.99723 0.0
C1146 C 0.88429 0.13287 0.02814 0.0
C1147 C 0.90253 0.12504 1.00409 0.0
C1148 C 0.89226 0.12957 0.97651 0.0
C1149 C 0.86438 0.14209 0.9734 0.0
C1150 C 0.89429 0.1288 0.05796 0.0
C1151 C 0.91073 0.12116 0.9503 0.0
C1152 C 0.9851 0.11546 0.01808 0.0
C1153 C 0.98578 0.08677 0.0236 0.0
C1154 C 0.95847 0.12809 0.01065 0.0
C1155 C 0.93193 0.1116 0.0082 0.0
C1156 C 0.93297 0.08241 0.01235 0.0
C1157 C 0.95968 0.07045 0.0202 0.0
C1158 C 0.95839 0.1593 1.0068 0.0
C1159 C 0.9055 0.06388 0.00959 0.0
H1160 H 0.84291 0.15094 0.04308 0.0
H1161 H 0.85683 0.14585 0.9523 0.0
H1162 H 0.89758 0.1063 0.06171 0.0
H1163 H 0.91607 0.13978 0.06065 0.0
H1164 H 0.87791 0.1367 0.07442 0.0
H1165 H 0.89956 0.12573 0.93039 0.0
H1166 H 0.93272 0.13233 0.9499 0.0
H1167 H 0.91513 0.09848 0.95079 0.0
H1168 H 1.00505 0.12828 0.02074 0.0
H1169 H 0.95996 0.04823 0.02419 0.0
H1170 H 0.94431 0.16893 0.02412 0.0
H1171 H 0.9485 0.16443 0.98642 0.0
H1172 H 0.98121 0.16886 1.00707 0.0
H1173 H 0.88887 0.0687 0.02707 0.0
H1174 H 0.91068 0.04137 0.01047 0.0
H1175 H 0.89493 0.06789 0.98926 0.0
C1176 C 1.00786 0.16624 0.24718 0.0
C1177 C 0.03344 0.17301 0.26219 0.0
C1178 C 1.00971 0.15081 0.22163 0.0
C1179 C 0.03777 0.14131 0.21095 0.0
C1180 C 0.06366 0.14761 0.22623 0.0
C1181 C 0.06125 0.16368 0.2515 0.0
C1182 C 0.98165 0.14516 0.20578 0.0
C1183 C 0.09391 0.13744 0.21583 0.0
C1184 C 0.03658 0.08177 0.15632 0.0
C1185 C 0.04288 0.09598 0.1308 0.0
C1186 C 0.03542 0.09615 0.18261 0.0
C1187 C 0.03997 0.12553 0.18334 0.0
C1188 C 0.04574 0.14001 0.15754 0.0
C1189 C 0.04747 0.12505 0.13167 0.0
C1190 C 0.02973 0.07985 0.20964 0.0
C1191 C 0.04997 0.17137 0.15723 0.0
H1192 H 0.98629 0.17357 0.25508 0.0
H1193 H 0.08107 0.16873 0.26301 0.0
H1194 H 0.9842 0.1543 0.18424 0.0
H1195 H 0.97787 0.12235 0.20298 0.0
H1196 H 0.96155 0.15399 0.21695 0.0
H1197 H 0.11159 0.14288 0.23082 0.0
H1198 H 0.09299 0.11444 0.21277 0.0
H1199 H 0.10031 0.14672 0.19488 0.0
H1200 H 0.03339 0.05927 0.15583 0.0
H1201 H 0.05231 0.13618 0.11201 0.0
H1202 H 1.00895 0.08694 0.22098 0.0
H1203 H 0.04829 0.08376 0.22405 0.0
H1204 H 0.02755 0.05703 0.20554 0.0
H1205 H 0.02996 0.18138 0.16726 0.0
H1206 H 0.05379 0.17954 0.13534 0.0
H1207 H 0.0693 0.17772 0.16986 0.0
C1208 C 0.98079 0.2734 0.25685 0.0
C1209 C 0.96208 0.26803 0.28094 0.0
C1210 C 0.97549 0.29552 0.23893 0.0
C1211 C 0.95089 0.3128 0.24537 0.0
C1212 C 0.93067 0.30634 0.26856 0.0
C1213 C 0.93648 0.28382 0.28617 0.0
C1214 C 0.99729 0.30136 0.21409 0.0
C1215 C 0.90391 0.32408 0.27561 0.0
C1216 C 0.96711 0.38616 0.21968 0.0
C1217 C 0.95456 0.38517 0.19305 0.0
C1218 C 0.96437 0.36322 0.23786 0.0
C1219 C 0.94843 0.33891 0.22922 0.0
C1220 C 0.93404 0.33853 0.20315 0.0
C1221 C 0.93749 0.36162 0.18525 0.0
C1222 C 0.98015 0.36438 0.26549 0.0
C1223 C 0.91647 0.31324 0.19327 0.0
H1224 H 1.00036 0.26084 0.25258 0.0
H1225 H 0.92203 0.27961 0.30483 0.0
H1226 H 0.9852 0.30314 0.19422 0.0
H1227 H 1.00925 0.32157 0.21764 0.0
H1228 H 0.01412 0.28482 0.21099 0.0
H1229 H 0.88835 0.31424 0.29185 0.0
H1230 H 0.9115 0.34469 0.28392 0.0
H1231 H 0.89159 0.32789 0.25621 0.0
H1232 H 0.9802 0.4044 0.2257 0.0
H1233 H 0.92708 0.36111 0.16495 0.0
H1234 H 0.99915 0.34992 0.26419 0.0
H1235 H 0.96479 0.35745 0.28335 0.0
H1236 H 0.98892 0.38569 0.27043 0.0
H1237 H 0.90429 0.30265 0.21132 0.0
H1238 H 0.93208 0.2981 0.18304 0.0
H1239 H 0.90013 0.31891 0.17743 0.0
C1240 C 0.05736 0.76562 0.26639 0.0
C1241 C 0.07299 0.76616 0.23996 0.0
C1242 C 0.06203 0.78647 0.28673 0.0
C1243 C 0.08282 0.80847 0.28032 0.0
C1244 C 0.10086 0.80758 0.25478 0.0
C1245 C 0.0957 0.78625 0.23469 0.0
C1246 C 0.04256 0.78634 0.31386 0.0
C1247 C 0.12374 0.83032 0.24758 0.0
C1248 C 0.05314 0.87464 0.31342 0.0
C1249 C 0.06691 0.87516 0.33947 0.0
C1250 C 0.06014 0.8543 0.29274 0.0
C1251 C 0.08158 0.83407 0.29827 0.0
C1252 C 0.09744 0.83593 0.32346 0.0
C1253 C 0.08978 0.8564 0.3439 0.0
C1254 C 0.04285 0.85316 0.26598 0.0
C1255 C 0.12083 0.81509 0.32986 0.0
H1256 H 0.04008 0.74972 0.27048 0.0
H1257 H 0.10777 0.78656 0.21417 0.0
H1258 H 0.05626 0.79008 0.33257 0.0
H1259 H 0.02632 0.80342 0.31335 0.0
H1260 H 0.02987 0.76629 0.31683 0.0
H1261 H 0.14047 0.82332 0.23098 0.0
H1262 H 0.11232 0.84863 0.23936 0.0
H1263 H 0.13552 0.83728 0.2667 0.0
H1264 H 0.03612 0.8896 0.30956 0.0
H1265 H 0.10061 0.85663 0.36396 0.0
H1266 H 0.02748 0.83463 0.26654 0.0
H1267 H 0.05824 0.85096 0.24697 0.0
H1268 H 0.02939 0.87207 0.26355 0.0
H1269 H 0.10969 0.79546 0.33747 0.0
H1270 H 0.1356 0.82298 0.34662 0.0
H1271 H 0.13478 0.80996 0.31047 0.0
C1272 C 0.97131 0.66305 0.26424 0.0
C1273 C 0.99923 0.67002 0.25117 0.0
C1274 C 0.96911 0.64732 0.28931 0.0
C1275 C 0.99547 0.63878 0.30182 0.0
C1276 C 0.02366 0.6452 0.28835 0.0
C1277 C 0.02519 0.66055 0.26312 0.0
C1278 C 0.9386 0.64049 0.30281 0.0
C1279 C 0.05231 0.63682 0.30118 0.0
C1280 C 0.99037 0.62714 0.38159 0.0
C1281 C 0.98875 0.59792 0.38313 0.0
C1282 C 0.99308 0.64062 0.35528 0.0
C1283 C 0.99368 0.62454 0.32983 0.0
C1284 C 0.99244 0.59501 0.33123 0.0
C1285 C 0.99026 0.58204 0.35789 0.0
C1286 C 0.99489 0.67213 0.35474 0.0
C1287 C 0.99263 0.57716 0.30457 0.0
H1288 H 0.95116 0.67018 0.2551 0.0
H1289 H 0.0469 0.66594 0.25329 0.0
H1290 H 0.93625 0.61776 0.30687 0.0
H1291 H 0.93592 0.65142 0.32365 0.0
H1292 H 0.9203 0.64673 0.28932 0.0
H1293 H 0.07236 0.64223 0.28736 0.0
H1294 H 0.05445 0.64747 0.32207 0.0
H1295 H 0.05193 0.61403 0.30504 0.0
H1296 H 0.98924 0.63953 0.40102 0.0
H1297 H 0.98868 0.55947 0.35892 0.0
H1298 H 0.97541 0.68023 0.34406 0.0
H1299 H 0.01529 0.67921 0.34232 0.0
H1300 H 0.9953 0.68153 0.37642 0.0
H1301 H 0.97299 0.5819 0.29216 0.0
H1302 H 0.99203 0.55449 0.30929 0.0
H1303 H 0.01288 0.58202 0.29089 0.0
C1304 C 0.23461 0.96097 0.16524 0.0
C1305 C 0.24094 0.9794 0.18763 0.0
C1306 C 0.21161 0.96647 0.14682 0.0
C1307 C 0.19414 0.99057 0.15141 0.0
C1308 C 0.19979 0.00855 0.17473 0.0
C1309 C 0.22329 1.00294 0.19226 0.0
C1310 C 0.20666 0.94707 0.12192 0.0
C1311 C 0.18132 0.03407 0.18092 0.0
C1312 C 0.15387 0.02603 0.09286 0.0
C1313 C 0.12421 0.01687 0.09839 0.0
C1314 C 0.17709 0.01644 0.10898 0.0
C1315 C 0.17045 0.99769 0.1316 0.0
C1316 C 0.14066 0.98783 0.13678 0.0
C1317 C 0.11798 0.99732 0.11996 0.0
C1318 C 0.2086 0.0271 0.10237 0.0
C1319 C 0.13245 0.96829 0.16098 0.0
H1320 H 0.24838 0.94289 0.16144 0.0
H1321 H 0.22794 0.01714 0.2097 0.0
H1322 H 0.18303 0.9396 0.12223 0.0
H1323 H 0.21117 0.95853 0.10177 0.0
H1324 H 0.2213 0.92869 0.12188 0.0
H1325 H 0.18735 0.04493 0.20091 0.0
H1326 H 0.18453 0.049 0.16316 0.0
H1327 H 0.15722 0.02813 0.18266 0.0
H1328 H 0.15892 0.04095 0.07608 0.0
H1329 H 0.09511 0.99019 0.12445 0.0
H1330 H 0.22416 0.00943 0.10054 0.0
H1331 H 0.21592 0.04082 0.12 0.0
H1332 H 0.21056 0.03915 0.08234 0.0
H1333 H 0.14707 0.94993 0.15997 0.0
H1334 H 0.10879 0.96084 0.16084 0.0
H1335 H 0.13599 0.9792 0.18152 0.0
C1336 C 0.77965 0.44742 0.21226 0.0
C1337 C 0.75778 0.46783 0.21443 0.0
C1338 C 0.7997 0.44608 0.18824 0.0
C1339 C 0.79738 0.46521 0.16568 0.0
C1340 C 0.774 0.48455 0.16705 0.0
C1341 C 0.75476 0.48581 0.19145 0.0
C1342 C 0.82437 0.42519 0.18771 0.0
C1343 C 0.77017 0.5049 0.14336 0.0
C1344 C 0.87092 0.48506 0.12685 0.0
C1345 C 0.87092 0.46754 0.10279 0.0
C1346 C 0.84664 0.48525 0.14677 0.0
C1347 C 0.82152 0.46742 0.14263 0.0
C1348 C 0.82045 0.4511 0.11729 0.0
C1349 C 0.8453 0.45127 0.09764 0.0
C1350 C 0.84885 0.50316 0.17326 0.0
C1351 C 0.79398 0.4321 0.11182 0.0
H1352 H 0.78201 0.43344 0.22987 0.0
H1353 H 0.73751 0.50132 0.19273 0.0
H1354 H 0.82505 0.41327 0.16734 0.0
H1355 H 0.84624 0.43637 0.18917 0.0
H1356 H 0.82165 0.41024 0.20554 0.0
H1357 H 0.74853 0.51573 0.14574 0.0
H1358 H 0.78852 0.52088 0.1433 0.0
H1359 H 0.77147 0.49402 0.12242 0.0
H1360 H 0.89096 0.49727 0.1311 0.0
H1361 H 0.84557 0.4371 0.07949 0.0
H1362 H 0.84936 0.48961 0.19216 0.0
H1363 H 0.82897 0.51641 0.17621 0.0
H1364 H 0.86919 0.5169 0.17255 0.0
H1365 H 0.79409 0.41391 0.12614 0.0
H1366 H 0.79443 0.42426 0.0895 0.0
H1367 H 0.77275 0.44308 0.11648 0.0
C1368 C 0.24297 0.03004 0.31279 0.0
C1369 C 0.26526 0.01028 0.30841 0.0
C1370 C 0.22129 0.02704 0.33534 0.0
C1371 C 0.22224 1.00387 0.35378 0.0
C1372 C 0.2465 0.98553 0.35087 0.0
C1373 C 0.26757 0.98889 0.32816 0.0
C1374 C 0.19599 0.04722 0.33789 0.0
C1375 C 0.24873 0.96073 0.37008 0.0
C1376 C 0.16916 0.9933 0.41896 0.0
C1377 C 0.14742 0.97516 0.40792 0.0
C1378 C 0.19324 1.00372 0.40147 0.0
C1379 C 0.19564 0.99567 0.37238 0.0
C1380 C 0.17348 0.97771 0.36115 0.0
C1381 C 0.14976 0.96775 0.37897 0.0
C1382 C 0.21635 0.02292 0.41416 0.0
C1383 C 0.17514 0.96838 0.33033 0.0
H1384 H 0.24117 0.04655 0.29749 0.0
H1385 H 0.2851 0.97378 0.32493 0.0
H1386 H 0.17568 0.03726 0.32926 0.0
H1387 H 0.19062 0.05272 0.36049 0.0
H1388 H 0.20132 0.06668 0.32591 0.0
H1389 H 0.27083 0.95076 0.36744 0.0
H1390 H 0.24494 0.96703 0.39268 0.0
H1391 H 0.23118 0.94493 0.36508 0.0
H1392 H 0.16741 0.99931 0.44123 0.0
H1393 H 0.13309 0.95384 0.37012 0.0
H1394 H 0.21973 0.04199 0.40116 0.0
H1395 H 0.2381 0.01236 0.41404 0.0
H1396 H 0.20993 0.02918 0.43638 0.0
H1397 H 0.17669 0.98679 0.31624 0.0
H1398 H 0.15545 0.95531 0.32466 0.0
H1399 H 0.19556 0.95611 0.32591 0.0
C1400 C 0.76653 0.51371 0.35559 0.0
C1401 C 0.76455 0.53026 0.33145 0.0
C1402 C 0.7894 0.51828 0.37453 0.0
C1403 C 0.81138 0.53943 0.36875 0.0
C1404 C 0.8091 0.55667 0.34473 0.0
C1405 C 0.7854 0.55212 0.32653 0.0
C1406 C 0.79051 0.49992 0.40027 0.0
C1407 C 0.83242 0.57907 0.33754 0.0
C1408 C 0.86323 0.56285 0.42675 0.0
C1409 C 0.88823 0.54641 0.42049 0.0
C1410 C 0.83787 0.56064 0.41032 0.0
C1411 C 0.83784 0.54203 0.38669 0.0
C1412 C 0.86303 0.52539 0.38034 0.0
C1413 C 0.88774 0.52755 0.39748 0.0
C1414 C 0.81117 0.57822 0.41818 0.0
C1415 C 0.86413 0.50559 0.3551 0.0
H1416 H 0.75019 0.49698 0.35962 0.0
H1417 H 0.78396 0.56484 0.3078 0.0
H1418 H 0.81021 0.48636 0.39796 0.0
H1419 H 0.79306 0.51289 0.41973 0.0
H1420 H 0.77014 0.48641 0.40327 0.0
H1421 H 0.82662 0.59162 0.31901 0.0
H1422 H 0.83526 0.59329 0.35602 0.0
H1423 H 0.85429 0.5693 0.33259 0.0
H1424 H 0.8635 0.5775 0.44448 0.0
H1425 H 0.90712 0.51503 0.39228 0.0
H1426 H 0.79098 0.56461 0.42176 0.0
H1427 H 0.80677 0.59233 0.40045 0.0
H1428 H 0.8144 0.59107 0.43765 0.0
H1429 H 0.84587 0.48962 0.35747 0.0
H1430 H 0.88575 0.49476 0.35257 0.0
H1431 H 0.86062 0.5172 0.33534 0.0
C1432 C 0.20262 0.27023 0.96158 0.0
C1433 C 0.19886 0.29215 0.98124 0.0
C1434 C 0.18427 0.24602 0.96376 0.0
C1435 C 0.16196 0.24394 0.98612 0.0
C1436 C 0.15578 0.26753 1.00359 0.0
C1437 C 0.17435 0.29136 1.00093 0.0
C1438 C 0.19102 0.22157 0.94421 0.0
C1439 C 0.13207 0.26649 0.02748 0.0
C1440 C 0.11301 0.17805 0.99567 0.0
C1441 C 0.13025 0.16264 0.01358 0.0
C1442 C 0.12292 0.20466 0.98628 0.0
C1443 C 0.15038 0.216 0.99547 0.0
C1444 C 0.16722 0.2007 0.01437 0.0
C1445 C 0.15704 0.17417 0.02295 0.0
C1446 C 0.10462 0.22011 0.9658 0.0
C1447 C 0.19628 0.21216 0.02532 0.0
H1448 H 0.22149 0.27086 0.94627 0.0
H1449 H 0.17113 0.30859 0.01585 0.0
H1450 H 0.20419 0.20625 0.95549 0.0
H1451 H 0.17009 0.21084 0.93795 0.0
H1452 H 0.20417 0.22815 0.92472 0.0
H1453 H 0.12608 0.28774 0.03519 0.0
H1454 H 0.11157 0.25538 0.02072 0.0
H1455 H 0.14059 0.25488 0.04553 0.0
H1456 H 0.09251 0.16879 0.98816 0.0
H1457 H 0.17019 0.16211 0.03687 0.0
H1458 H 0.11657 0.22051 0.94461 0.0
H1459 H 0.10173 0.2421 0.97283 0.0
H1460 H 0.08223 0.21011 0.96348 0.0
H1461 H 0.21277 0.21568 1.0073 0.0
H1462 H 0.20612 0.19788 0.04054 0.0
H1463 H 0.19263 0.23259 0.03612 0.0
C1464 C 0.18922 0.76044 0.49848 0.0
C1465 C 0.21498 0.75704 0.48065 0.0
C1466 C 0.17073 0.7835 0.49599 0.0
C1467 C 0.17832 0.80421 0.47552 0.0
C1468 C 0.20419 0.80085 0.45727 0.0
C1469 C 0.22203 0.77719 0.45986 0.0
C1470 C 0.14309 0.78577 0.51546 0.0
C1471 C 0.21336 0.82254 0.43539 0.0
C1472 C 0.11724 0.85229 0.45278 0.0
C1473 C 0.12195 0.87632 0.46958 0.0
C1474 C 0.1353 0.82881 0.45451 0.0
C1475 C 0.15909 0.82927 0.47326 0.0
C1476 C 0.16398 0.85343 0.49033 0.0
C1477 C 0.14527 0.87655 0.48844 0.0
C1478 C 0.12886 0.80345 0.43623 0.0
C1479 C 0.18926 0.85501 0.51037 0.0
H1480 H 0.18343 0.74494 0.51452 0.0
H1481 H 0.24199 0.77492 0.44617 0.0
H1482 H 0.1447 0.8049 0.52887 0.0
H1483 H 0.12306 0.78763 0.50273 0.0
H1484 H 0.13973 0.76747 0.52961 0.0
H1485 H 0.23403 0.81695 0.42284 0.0
H1486 H 0.19518 0.8252 0.42057 0.0
H1487 H 0.21719 0.84301 0.44606 0.0
H1488 H 0.09935 0.85182 0.43808 0.0
H1489 H 0.14935 0.89504 0.5013 0.0
H1490 H 0.1242 0.785 0.44988 0.0
H1491 H 0.14869 0.79873 0.42214 0.0
H1492 H 0.10948 0.80634 0.42281 0.0
H1493 H 0.18638 0.83823 0.52636 0.0
H1494 H 0.19057 0.87544 0.52171 0.0
H1495 H 0.21082 0.8516 0.49839 0.0
C1496 C 0.80494 0.77056 0.46205 0.0
C1497 C 0.8143 0.79493 0.47604 0.0
C1498 C 0.82301 0.74695 0.46073 0.0
C1499 C 0.85127 0.74823 0.47304 0.0
C1500 C 0.86157 0.77359 0.48534 0.0
C1501 C 0.8427 0.79648 0.48714 0.0
C1502 C 0.81099 0.72015 0.44797 0.0
C1503 C 0.89185 0.77613 0.498 0.0
C1504 C 0.88286 0.68377 0.5051 0.0
C1505 C 0.90416 0.6757 0.48406 0.0
C1506 C 0.86482 0.70677 0.50128 0.0
C1507 C 0.86867 0.72248 0.47602 0.0
C1508 C 0.89003 0.71428 0.45456 0.0
C1509 C 0.90731 0.69073 0.45872 0.0
C1510 C 0.84188 0.71445 0.52445 0.0
C1511 C 0.89522 0.73085 0.42765 0.0
H1512 H 0.78278 0.76939 0.45377 0.0
H1513 H 0.84988 0.81549 0.49786 0.0
H1514 H 0.82787 0.71084 0.43293 0.0
H1515 H 0.80601 0.70482 0.46512 0.0
H1516 H 0.79021 0.72337 0.43662 0.0
H1517 H 0.89812 0.79816 0.50304 0.0
H1518 H 0.89166 0.76397 0.5179 0.0
H1519 H 0.90931 0.76738 0.48317 0.0
H1520 H 0.88015 0.67184 0.52449 0.0
H1521 H 0.92394 0.6845 0.44254 0.0
H1522 H 0.81956 0.7161 0.51549 0.0
H1523 H 0.84778 0.73516 0.53369 0.0
H1524 H 0.84029 0.69896 0.54184 0.0
H1525 H 0.87394 0.73305 0.41692 0.0
H1526 H 0.91174 0.72102 0.41252 0.0
H1527 H 0.90349 0.75221 0.43298 0.0
C1528 C 0.34525 0.74495 0.54327 0.0
C1529 C 0.316 0.74629 0.55503 0.0
C1530 C 0.36587 0.76695 0.54684 0.0
C1531 C 0.35678 0.7911 0.56218 0.0
C1532 C 0.32785 0.79176 0.57579 0.0
C1533 C 0.30772 0.76914 0.57217 0.0
C1534 C 0.39663 0.76512 0.53243 0.0
C1535 C 0.31741 0.81718 0.59233 0.0
C1536 C 0.41633 0.84544 0.57998 0.0
C1537 C 0.41427 0.86447 0.55773 0.0
C1538 C 0.39764 0.82155 0.58191 0.0
C1539 C 0.37637 0.81658 0.5611 0.0
C1540 C 0.37446 0.83548 0.53838 0.0
C1541 C 0.39347 0.85917 0.53695 0.0
C1542 C 0.40045 0.80183 0.60635 0.0
C1543 C 0.35213 0.8308 0.51568 0.0
H1544 H 0.3516 0.72711 0.53009 0.0
H1545 H 0.28497 0.77021 0.58099 0.0
H1546 H 0.39845 0.77953 0.51414 0.0
H1547 H 0.41403 0.77164 0.54728 0.0
H1548 H 0.40138 0.74368 0.52447 0.0
H1549 H 0.29595 0.81308 0.60454 0.0
H1550 H 0.33446 0.82434 0.60728 0.0
H1551 H 0.31426 0.83448 0.57741 0.0
H1552 H 0.43222 0.84944 0.59628 0.0
H1553 H 0.3916 0.87384 0.51983 0.0
H1554 H 0.40486 0.78045 0.59814 0.0
H1555 H 0.37912 0.80075 0.61932 0.0
H1556 H 0.41865 0.80837 0.62038 0.0
H1557 H 0.35639 0.81071 0.50442 0.0
H1558 H 0.35309 0.84776 0.49977 0.0
H1559 H 0.32916 0.82941 0.52556 0.0
C1560 C 0.50466 0.66412 0.74906 0.0
C1561 C 0.53099 0.67188 0.76246 0.0
C1562 C 0.50537 0.64771 0.72412 0.0
C1563 C 0.53306 0.63829 0.7124 0.0
C1564 C 0.55969 0.64543 0.7262 0.0
C1565 C 0.55838 0.6624 0.75089 0.0
C1566 C 0.47652 0.64116 0.70984 0.0
C1567 C 0.58962 0.63545 0.71464 0.0
C1568 C 0.53173 0.57849 0.65785 0.0
C1569 C 0.53697 0.59286 0.63228 0.0
C1570 C 0.53063 0.59292 0.68416 0.0
C1571 C 0.53423 0.62243 0.68481 0.0
C1572 C 0.53862 0.63702 0.65893 0.0
C1573 C 0.54023 0.62207 0.63309 0.0
C1574 C 0.52637 0.57657 0.71129 0.0
C1575 C 0.54188 0.66847 0.65848 0.0
H1576 H 0.48337 0.6715 0.75767 0.0
H1577 H 0.57879 0.66816 0.76117 0.0
H1578 H 0.47745 0.65044 0.68833 0.0
H1579 H 0.47342 0.61828 0.70706 0.0
H1580 H 0.45675 0.64933 0.72211 0.0
H1581 H 0.60792 0.64108 0.7289 0.0
H1582 H 0.58881 0.61245 0.71162 0.0
H1583 H 0.59502 0.64477 0.69351 0.0
H1584 H 0.5296 0.55591 0.65737 0.0
H1585 H 0.54423 0.63333 0.61339 0.0
H1586 H 0.50627 0.5837 0.72372 0.0
H1587 H 0.54581 0.58037 0.72466 0.0
H1588 H 0.52389 0.55376 0.70721 0.0
H1589 H 0.52208 0.67798 0.66944 0.0
H1590 H 0.54434 0.6767 0.63652 0.0
H1591 H 0.56173 0.67532 0.67016 0.0
C1592 C 0.44389 0.79034 0.78554 0.0
C1593 C 0.4638 0.76879 0.77944 0.0
C1594 C 0.44114 0.81204 0.76604 0.0
C1595 C 0.45872 0.81182 0.74017 0.0
C1596 C 0.4769 0.78878 0.73313 0.0
C1597 C 0.47923 0.7676 0.75292 0.0
C1598 C 0.42112 0.83604 0.77395 0.0
C1599 C 0.49575 0.78747 0.70566 0.0
C1600 C 0.45083 0.85813 0.67681 0.0
C1601 C 0.47477 0.8773 0.67986 0.0
C1602 C 0.44363 0.83799 0.69751 0.0
C1603 C 0.46108 0.83666 0.72163 0.0
C1604 C 0.48419 0.85684 0.72562 0.0
C1605 C 0.49069 0.87696 0.70471 0.0
C1606 C 0.41866 0.81704 0.69254 0.0
C1607 C 0.50331 0.85612 0.75114 0.0
H1608 H 0.43214 0.79125 0.8062 0.0
H1609 H 0.49448 0.75072 0.74826 0.0
H1610 H 0.43499 0.85435 0.7803 0.0
H1611 H 0.40839 0.84226 0.75551 0.0
H1612 H 0.40512 0.83077 0.79196 0.0
H1613 H 0.50672 0.76705 0.7025 0.0
H1614 H 0.48189 0.79112 0.68726 0.0
H1615 H 0.51338 0.80415 0.70574 0.0
H1616 H 0.43845 0.85788 0.65764 0.0
H1617 H 0.50873 0.89203 0.70754 0.0
H1618 H 0.40552 0.81253 0.71261 0.0
H1619 H 0.42827 0.79714 0.68456 0.0
H1620 H 0.40331 0.82446 0.67656 0.0
H1621 H 0.48908 0.85468 0.77103 0.0
H1622 H 0.5183 0.87485 0.75255 0.0
H1623 H 0.5173 0.83731 0.74978 0.0
C1624 C 0.60144 0.28421 0.72613 0.0
C1625 C 0.57762 0.26568 0.73302 0.0
C1626 C 0.60861 0.30619 0.74488 0.0
C1627 C 0.59136 0.30944 0.7707 0.0
C1628 C 0.56938 0.28897 0.77879 0.0
C1629 C 0.56286 0.26734 0.75984 0.0
C1630 C 0.63292 0.32705 0.736 0.0
C1631 C 0.55064 0.29132 0.80627 0.0
C1632 C 0.60048 0.35887 0.83254 0.0
C1633 C 0.57814 0.37803 0.82756 0.0
C1634 C 0.60785 0.33796 0.81246 0.0
C1635 C 0.59212 0.33599 0.78718 0.0
C1636 C 0.57179 0.35693 0.78085 0.0
C1637 C 0.56518 0.37778 0.80109 0.0
C1638 C 0.63045 0.31661 0.81952 0.0
C1639 C 0.55474 0.3558 0.75394 0.0
H1640 H 0.61297 0.28277 0.7054 0.0
H1641 H 0.54482 0.25256 0.76533 0.0
H1642 H 0.62283 0.34501 0.72572 0.0
H1643 H 0.64486 0.33515 0.75461 0.0
H1644 H 0.64936 0.3177 0.72045 0.0
H1645 H 0.53625 0.27244 0.81033 0.0
H1646 H 0.56509 0.29458 0.82452 0.0
H1647 H 0.53602 0.30963 0.80539 0.0
H1648 H 0.61089 0.35899 0.85281 0.0
H1649 H 0.54873 0.39313 0.79672 0.0
H1650 H 0.64363 0.30988 0.80018 0.0
H1651 H 0.61866 0.2979 0.8286 0.0
H1652 H 0.646 0.32489 0.83543 0.0
H1653 H 0.57011 0.35224 0.73515 0.0
H1654 H 0.54247 0.37529 0.75072 0.0
H1655 H 0.53831 0.33808 0.75501 0.0
C1656 C 0.47773 0.16221 0.76645 0.0
C1657 C 0.50493 0.16904 0.75191 0.0
C1658 C 0.47695 0.14692 0.79176 0.0
C1659 C 0.50404 0.1386 0.80305 0.0
C1660 C 0.53152 0.14487 0.78813 0.0
C1661 C 0.53162 0.15984 0.76267 0.0
C1662 C 0.44714 0.14028 0.80681 0.0
C1663 C 0.5609 0.13666 0.7996 0.0
C1664 C 0.50127 0.12781 0.88295 0.0
C1665 C 0.49868 0.09866 0.88485 0.0
C1666 C 0.50399 0.14098 0.85646 0.0
C1667 C 0.50365 0.12464 0.83119 0.0
C1668 C 0.50188 0.09516 0.83295 0.0
C1669 C 0.49966 0.0825 0.85977 0.0
C1670 C 0.50639 0.17245 0.85554 0.0
C1671 C 0.50114 0.07702 0.80653 0.0
H1672 H 0.45701 0.16912 0.75823 0.0
H1673 H 0.55278 0.16514 0.75169 0.0
H1674 H 0.44494 0.11758 0.81107 0.0
H1675 H 0.44568 0.15133 0.82766 0.0
H1676 H 0.42806 0.14651 0.7943 0.0
H1677 H 0.58019 0.14181 0.78473 0.0
H1678 H 0.56423 0.14766 0.82012 0.0
H1679 H 0.5607 0.11394 0.80384 0.0
H1680 H 0.50064 0.14043 0.90224 0.0
H1681 H 0.49744 0.05997 0.86105 0.0
H1682 H 0.48637 0.18077 0.84592 0.0
H1683 H 0.52616 0.17912 0.84198 0.0
H1684 H 0.50828 0.182 0.87702 0.0
H1685 H 0.48073 0.08126 0.79504 0.0
H1686 H 0.50124 0.05442 0.81146 0.0
H1687 H 0.52062 0.08207 0.79191 0.0
C1688 C 0.73385 0.46558 0.66664 0.0
C1689 C 0.74009 0.48473 0.68843 0.0
C1690 C 0.7109 0.47043 0.64796 0.0
C1691 C 0.69333 0.49455 0.65176 0.0
C1692 C 0.6989 0.51329 0.6745 0.0
C1693 C 0.72244 0.50837 0.69223 0.0
C1694 C 0.70612 0.45028 0.62363 0.0
C1695 C 0.68025 0.53883 0.67991 0.0
C1696 C 0.65261 0.52792 0.59221 0.0
C1697 C 0.62308 0.51854 0.59795 0.0
C1698 C 0.67596 0.51903 0.60859 0.0
C1699 C 0.66955 0.50085 0.63174 0.0
C1700 C 0.63987 0.49076 0.63715 0.0
C1701 C 0.61709 0.49947 0.62002 0.0
C1702 C 0.70737 0.52981 0.60166 0.0
C1703 C 0.63186 0.47188 0.66194 0.0
H1704 H 0.74765 0.44743 0.6635 0.0
H1705 H 0.72706 0.52311 0.70921 0.0
H1706 H 0.68258 0.44253 0.62422 0.0
H1707 H 0.7104 0.46121 0.60315 0.0
H1708 H 0.721 0.43211 0.62408 0.0
H1709 H 0.68619 0.55028 0.69958 0.0
H1710 H 0.68337 0.55325 0.66172 0.0
H1711 H 0.65618 0.53275 0.68178 0.0
H1712 H 0.65746 0.54247 0.57506 0.0
H1713 H 0.5943 0.4922 0.62469 0.0
H1714 H 0.72312 0.51228 0.60045 0.0
H1715 H 0.71451 0.54419 0.61882 0.0
H1716 H 0.7092 0.5412 0.58122 0.0
H1717 H 0.64677 0.45374 0.66162 0.0
H1718 H 0.60832 0.46405 0.66191 0.0
H1719 H 0.6351 0.48349 0.68214 0.0
C1720 C 0.2787 0.99504 0.70837 0.0
C1721 C 0.26859 0.97188 0.72451 0.0
C1722 C 0.29934 0.99223 0.6852 0.0
C1723 C 0.3103 0.96556 0.67774 0.0
C1724 C 0.29963 0.94193 0.69338 0.0
C1725 C 0.27894 0.94536 0.71661 0.0
C1726 C 0.31023 0.01802 0.66934 0.0
C1727 C 0.31075 0.91312 0.68606 0.0
C1728 C 0.35396 0.95658 0.60639 0.0
C1729 C 0.38349 0.95834 0.61491 0.0
C1730 C 0.32973 0.95875 0.62656 0.0
C1731 C 0.33529 0.96302 0.65575 0.0
C1732 C 0.3651 0.96555 0.66418 0.0
C1733 C 0.38868 0.96313 0.64376 0.0
C1734 C 0.29823 0.95589 0.61679 0.0
C1735 C 0.37219 0.97052 0.69492 0.0
H1736 H 0.27077 0.01566 0.71405 0.0
H1737 H 0.2711 0.92731 0.72872 0.0
H1738 H 0.33428 0.02193 0.67287 0.0
H1739 H 0.30804 0.01493 0.64614 0.0
H1740 H 0.29776 0.03687 0.67627 0.0
H1741 H 0.29836 0.89662 0.69849 0.0
H1742 H 0.30863 0.9086 0.66307 0.0
H1743 H 0.3348 0.91209 0.69042 0.0
H1744 H 0.34981 0.95258 0.58421 0.0
H1745 H 0.41144 0.96467 0.65056 0.0
H1746 H 0.28538 0.97458 0.62335 0.0
H1747 H 0.28677 0.9376 0.62709 0.0
H1748 H 0.2976 0.95322 0.59336 0.0
H1749 H 0.36177 0.99003 0.70299 0.0
H1750 H 0.3966 0.97222 0.69791 0.0
H1751 H 0.3627 0.95318 0.70817 0.0
C1752 C 0.73671 0.53664 0.80571 0.0
C1753 C 0.76493 0.52488 0.80592 0.0
C1754 C 0.71568 0.53225 0.8285 0.0
C1755 C 0.72317 0.5155 0.85165 0.0
C1756 C 0.75277 0.50615 0.85309 0.0
C1757 C 0.77324 0.51084 0.83009 0.0
C1758 C 0.6845 0.5429 0.82628 0.0
C1759 C 0.7619 0.4883 0.87724 0.0
C1760 C 0.66704 0.50216 0.91406 0.0
C1761 C 0.6527 0.47751 0.90494 0.0
C1762 C 0.69007 0.51501 0.89701 0.0
C1763 C 0.69904 0.50269 0.87052 0.0
C1764 C 0.6851 0.4774 0.86173 0.0
C1765 C 0.6621 0.46527 0.87893 0.0
C1766 C 0.70427 0.54204 0.90698 0.0
C1767 C 0.69422 0.46317 0.83391 0.0
H1768 H 0.7302 0.54711 0.78677 0.0
H1769 H 0.79507 0.50151 0.83 0.0
H1770 H 0.66949 0.5255 0.81962 0.0
H1771 H 0.67561 0.55083 0.84717 0.0
H1772 H 0.68381 0.5598 0.81041 0.0
H1773 H 0.78658 0.4872 0.87792 0.0
H1774 H 0.75283 0.49644 0.89797 0.0
H1775 H 0.7527 0.46678 0.87444 0.0
H1776 H 0.65965 0.51183 0.93403 0.0
H1777 H 0.65125 0.44612 0.87184 0.0
H1778 H 0.69912 0.55904 0.89234 0.0
H1779 H 0.72893 0.54039 0.90649 0.0
H1780 H 0.69619 0.54797 0.92885 0.0
H1781 H 0.69067 0.47725 0.81593 0.0
H1782 H 0.68142 0.44337 0.83046 0.0
H1783 H 0.71836 0.45846 0.8334 0.0
C1784 C 0.27088 0.01927 0.86252 0.0
C1785 C 0.26755 0.03578 0.83858 0.0
C1786 C 0.29397 0.02479 0.88103 0.0
C1787 C 0.3148 0.04685 0.87497 0.0
C1788 C 0.311 0.06415 0.85127 0.0
C1789 C 0.28712 0.05862 0.83354 0.0
C1790 C 0.29673 0.0063 0.90645 0.0
C1791 C 0.33309 0.08748 0.8437 0.0
C1792 C 0.36909 0.07045 0.93096 0.0
C1793 C 0.39407 0.05444 0.92333 0.0
C1794 C 0.34294 0.06812 0.9156 0.0
C1795 C 0.34213 0.0499 0.89167 0.0
C1796 C 0.36746 0.03396 0.88377 0.0
C1797 C 0.39292 0.03618 0.89987 0.0
C1798 C 0.31614 0.08493 0.92506 0.0
C1799 C 0.36782 0.01468 0.85812 0.0
H1800 H 0.25554 1.00177 0.86665 0.0
H1801 H 0.28465 0.07133 0.81496 0.0
H1802 H 0.31664 0.99312 0.90312 0.0
H1803 H 0.29994 0.01915 0.92588 0.0
H1804 H 0.27677 0.99238 0.91015 0.0
H1805 H 0.32575 0.10034 0.82598 0.0
H1806 H 0.33648 0.10127 0.86242 0.0
H1807 H 0.35506 0.07856 0.83731 0.0
H1808 H 0.36988 0.08459 0.94908 0.0
H1809 H 0.41228 0.02401 0.89361 0.0
H1810 H 0.29663 0.07074 0.92975 0.0
H1811 H 0.31007 0.09887 0.90774 0.0
H1812 H 0.32022 0.09786 0.9443 0.0
H1813 H 0.35033 0.99806 0.86111 0.0
H1814 H 0.38974 1.00464 0.85417 0.0
H1815 H 0.36265 0.02648 0.8389 0.0
C1816 C 0.67707 0.79827 0.53448 0.0
C1817 C 0.70445 0.79947 0.54764 0.0
C1818 C 0.65824 0.77451 0.53672 0.0
C1819 C 0.66762 0.75103 0.55158 0.0
C1820 C 0.69423 0.753 0.56669 0.0
C1821 C 0.7122 0.77743 0.56482 0.0
C1822 C 0.62959 0.77374 0.52114 0.0
C1823 C 0.70529 0.72837 0.58246 0.0
C1824 C 0.61862 0.68519 0.5613 0.0
C1825 C 0.62897 0.66881 0.53808 0.0
C1826 C 0.63028 0.7124 0.56571 0.0
C1827 C 0.65306 0.72321 0.5467 0.0
C1828 C 0.66281 0.70706 0.5228 0.0
C1829 C 0.65039 0.68035 0.51863 0.0
C1830 C 0.61879 0.72926 0.59103 0.0
C1831 C 0.68703 0.71768 0.5019 0.0
H1832 H 0.67096 0.81552 0.52142 0.0
H1833 H 0.73347 0.77836 0.57487 0.0
H1834 H 0.63296 0.76184 0.50092 0.0
H1835 H 0.61136 0.76306 0.53392 0.0
H1836 H 0.62241 0.79506 0.51601 0.0
H1837 H 0.72382 0.7344 0.59631 0.0
H1838 H 0.68691 0.71853 0.59572 0.0
H1839 H 0.71351 0.71241 0.56688 0.0
H1840 H 0.60214 0.67649 0.57649 0.0
H1841 H 0.65791 0.66822 0.50021 0.0
H1842 H 0.61323 0.7506 0.58446 0.0
H1843 H 0.63642 0.73147 0.60669 0.0
H1844 H 0.59865 0.71934 0.60173 0.0
H1845 H 0.67999 0.73719 0.49202 0.0
H1846 H 0.69242 0.70227 0.48469 0.0
H1847 H 0.70773 0.72268 0.51315 0.0
C1848 C 0.72588 0.27715 0.95606 0.0
C1849 C 0.71841 0.25707 0.97682 0.0
C1850 C 0.70795 0.30062 0.95282 0.0
C1851 C 0.68153 0.30385 0.97032 0.0
C1852 C 0.67351 0.28319 0.99074 0.0
C1853 C 0.69214 0.26032 0.99393 0.0
C1854 C 0.71763 0.3223 0.93107 0.0
C1855 C 0.64527 0.2853 0.0094 0.0
C1856 C 0.64793 0.37613 0.98173 0.0
C1857 C 0.62548 0.37582 0.96195 0.0
C1858 C 0.6665 0.35304 0.98446 0.0
C1859 C 0.66226 0.32877 0.96738 0.0
C1860 C 0.63927 0.3282 0.94775 0.0
C1861 C 0.62141 0.35171 0.94512 0.0
C1862 C 0.69097 0.35477 1.00537 0.0
C1863 C 0.63349 0.3027 0.92946 0.0
H1864 H 0.74624 0.27499 0.94292 0.0
H1865 H 0.68606 0.24487 0.00995 0.0
H1866 H 0.69995 0.32473 0.91567 0.0
H1867 H 0.72091 0.34284 0.94177 0.0
H1868 H 0.73873 0.31683 0.91916 0.0
H1869 H 0.64156 0.26699 0.02348 0.0
H1870 H 0.64633 0.30444 0.02286 0.0
H1871 H 0.62569 0.28705 0.99605 0.0
H1872 H 0.65149 0.3947 0.99463 0.0
H1873 H 0.60414 0.35116 0.92976 0.0
H1874 H 0.71294 0.35143 0.9941 0.0
H1875 H 0.68758 0.33804 0.02134 0.0
H1876 H 0.69179 0.37524 0.01669 0.0
H1877 H 0.6537 0.29806 0.91586 0.0
H1878 H 0.61447 0.30538 0.91555 0.0
H1879 H 0.62862 0.28429 0.94312 0.0
C1880 C 0.32217 0.2703 0.06061 0.0
C1881 C 0.30496 0.27555 0.03731 0.0
C1882 C 0.34185 0.24778 0.05989 0.0
C1883 C 0.34405 0.23027 0.03538 0.0
C1884 C 0.32479 0.23424 0.01293 0.0
C1885 C 0.30558 0.25682 0.01417 0.0
C1886 C 0.36175 0.24398 0.08439 0.0
C1887 C 0.32613 0.21604 0.98648 0.0
C1888 C 0.41829 0.20199 0.00843 0.0
C1889 C 0.41462 0.17331 0.01364 0.0
C1890 C 0.39609 0.22084 0.01682 0.0
C1891 C 0.36932 0.21088 0.03079 0.0
C1892 C 0.36579 0.18212 0.0371 0.0
C1893 C 0.38845 0.16362 0.02831 0.0
C1894 C 0.40073 0.25129 0.00937 0.0
C1895 C 0.3377 0.17078 0.05221 0.0
H1896 H 0.32162 0.28468 0.07859 0.0
H1897 H 0.29181 0.2605 0.99634 0.0
H1898 H 0.36319 0.22156 0.08963 0.0
H1899 H 0.38468 0.25173 0.0783 0.0
H1900 H 0.35367 0.25564 0.10369 0.0
H1901 H 0.3073 0.21976 0.9726 0.0
H1902 H 0.34739 0.22044 0.97409 0.0
H1903 H 0.32573 0.19364 0.99215 0.0
H1904 H 0.43813 0.2097 0.99676 0.0
H1905 H 0.38562 0.14157 0.03277 0.0
H1906 H 0.39657 0.26467 0.02847 0.0
H1907 H 0.38456 0.2571 0.99346 0.0
H1908 H 0.42367 0.25598 1.00042 0.0
H1909 H 0.33161 0.18391 0.07109 0.0
H1910 H 0.34012 0.1489 0.05912 0.0
H1911 H 0.3189 0.17135 0.03776 0.0
C1912 C 0.80849 0.27076 0.07124 0.0
C1913 C 0.81789 0.24861 0.05366 0.0
C1914 C 0.82789 0.29365 0.07614 0.0
C1915 C 0.85728 0.29386 0.06351 0.0
C1916 C 0.86744 0.27039 0.04767 0.0
C1917 C 0.84747 0.24818 0.04267 0.0
C1918 C 0.81628 0.3184 0.09306 0.0
C1919 C 0.8988 0.26947 0.03446 0.0
C1920 C 0.89356 0.36325 0.04209 0.0
C1921 C 0.91268 0.3685 0.06429 0.0
C1922 C 0.87519 0.33915 0.04183 0.0
C1923 C 0.87634 0.31963 0.06409 0.0
C1924 C 0.89618 0.32444 0.08618 0.0
C1925 C 0.91394 0.34896 0.08615 0.0
C1926 C 0.85423 0.33477 0.01791 0.0
C1927 C 0.89841 0.30394 0.11002 0.0
H1928 H 0.78549 0.27108 0.07949 0.0
H1929 H 0.85468 0.23084 0.02919 0.0
H1930 H 0.83223 0.32493 0.10931 0.0
H1931 H 0.81411 0.33631 0.07866 0.0
H1932 H 0.79413 0.31384 0.10384 0.0
H1933 H 0.90427 0.24839 0.02592 0.0
H1934 H 0.90124 0.28456 0.01677 0.0
H1935 H 0.91534 0.27566 0.05029 0.0
H1936 H 0.89227 0.37839 0.02531 0.0
H1937 H 0.92865 0.35293 0.10343 0.0
H1938 H 0.83087 0.33255 0.02667 0.0
H1939 H 0.85961 0.31518 1.00615 0.0
H1940 H 0.85554 0.35228 1.00262 0.0
H1941 H 0.87736 0.30373 0.12342 0.0
H1942 H 0.91725 0.30927 0.12375 0.0
H1943 H 0.90141 0.28249 0.10136 0.0
loop_
_geom_bond_atom_site_label_1
_geom_bond_atom_site_label_2
_geom_bond_distance
_geom_bond_site_symmetry_2
_ccdc_geom_bond_type
C0 O2 1.247 . S
C0 O4 1.258 . S
C1 O8 1.247 1_455 S
C1 O9 1.258 . S
O2 C0 1.247 . S
O2 Zn3 2.028 . S
Zn3 O2 2.028 . S
Zn3 O7 2.035 . S
Zn3 O9 2.035 . S
Zn3 O10 2.028 . S
O4 C0 1.258 . S
O4 Zn5 2.035 1_455 S
Zn5 O4 2.035 1_655 S
Zn5 O6 2.028 . S
Zn5 O8 2.028 . S
Zn5 O11 2.035 1_655 S
O6 Zn5 2.028 . S
O6 C12 1.247 1_655 S
O7 Zn3 2.035 . S
O7 C12 1.258 . S
O8 C1 1.247 1_655 S
O8 Zn5 2.028 . S
O9 C1 1.258 . S
O9 Zn3 2.035 . S
O10 Zn3 2.028 . S
O10 C13 1.247 . S
O11 Zn5 2.035 1_455 S
O11 C13 1.258 . S
C12 O6 1.247 1_455 S
C12 O7 1.258 . S
C13 O10 1.247 . S
C13 O11 1.258 . S
C14 O16 1.247 . S
C14 O18 1.258 1_455 S
C15 O22 1.214 1_455 S
C15 O23 1.297 . S
O16 C14 1.247 . S
O16 Zn17 2.028 . S
Zn17 O16 2.028 . S
Zn17 O21 2.035 . S
Zn17 O23 2.035 . S
Zn17 O24 2.028 . S
O18 C14 1.258 1_655 S
O18 Zn19 2.035 . S
Zn19 O18 2.035 . S
Zn19 O20 2.028 . S
Zn19 O22 2.028 . S
Zn19 O25 2.035 . S
O20 Zn19 2.028 . S
O20 C26 1.247 1_655 S
O21 Zn17 2.035 . S
O21 C26 1.258 . S
O22 C15 1.214 1_655 S
O22 Zn19 2.028 . S
O23 C15 1.297 . S
O23 Zn17 2.035 . S
O24 Zn17 2.028 . S
O24 C27 1.247 . S
O25 Zn19 2.035 . S
O25 C27 1.258 1_655 S
C26 O20 1.247 1_455 S
C26 O21 1.258 . S
C27 O24 1.247 . S
C27 O25 1.258 1_455 S
C28 O30 1.247 1_545 S
C28 O32 1.258 . S
C29 O36 1.247 1_565 S
C29 O37 1.258 . S
O30 C28 1.247 1_565 S
O30 Zn31 2.028 . S
Zn31 O30 2.028 . S
Zn31 O35 2.035 . S
Zn31 O37 2.035 . S
Zn31 O38 2.028 . S
O32 C28 1.258 . S
O32 Zn33 2.035 . S
Zn33 O32 2.035 . S
Zn33 O34 2.028 . S
Zn33 O36 2.028 . S
Zn33 O39 2.035 . S
O34 Zn33 2.028 . S
O34 C40 1.247 1_545 S
O35 Zn31 2.035 . S
O35 C40 1.258 . S
O36 C29 1.247 1_545 S
O36 Zn33 2.028 . S
O37 C29 1.258 . S
O37 Zn31 2.035 . S
O38 Zn31 2.028 . S
O38 C41 1.247 1_565 S
O39 Zn33 2.035 . S
O39 C41 1.258 . S
C40 O34 1.247 1_565 S
C40 O35 1.258 . S
C41 O38 1.247 1_545 S
C41 O39 1.258 . S
C42 O44 1.247 . S
C42 O46 1.258 . S
C43 O50 1.247 . S
C43 O51 1.258 . S
O44 C42 1.247 . S
O44 Zn45 2.028 . S
Zn45 O44 2.028 . S
Zn45 O49 2.035 . S
Zn45 O51 2.035 . S
Zn45 O52 2.028 . S
O46 C42 1.258 . S
O46 Zn47 2.035 . S
Zn47 O46 2.035 . S
Zn47 O48 2.028 . S
Zn47 O50 2.028 . S
Zn47 O53 2.035 . S
O48 Zn47 2.028 . S
O48 C54 1.247 . S
O49 Zn45 2.035 . S
O49 C54 1.258 . S
O50 C43 1.247 . S
O50 Zn47 2.028 . S
O51 C43 1.258 . S
O51 Zn45 2.035 . S
O52 Zn45 2.028 . S
O52 C55 1.247 . S
O53 Zn47 2.035 . S
O53 C55 1.258 . S
C54 O48 1.247 . S
C54 O49 1.258 . S
C55 O52 1.247 . S
C55 O53 1.258 . S
C56 O58 1.222 1_554 S
C56 O60 1.258 . S
C57 O64 1.247 . S
C57 O65 1.258 1_554 S
O58 C56 1.222 1_556 S
O58 Zn59 2.035 . S
Zn59 O58 2.035 . S
Zn59 O63 2.035 . S
Zn59 O65 2.035 . S
Zn59 O66 2.033 . S
O60 C56 1.258 . S
O60 Zn61 2.035 . S
Zn61 O60 2.035 . S
Zn61 O62 2.028 . S
Zn61 O64 2.028 . S
Zn61 O67 2.035 . S
O62 Zn61 2.028 . S
O62 C68 1.247 . S
O63 Zn59 2.035 . S
O63 C68 1.258 1_556 S
O64 C57 1.247 . S
O64 Zn61 2.028 . S
O65 C57 1.258 1_556 S
O65 Zn59 2.035 . S
O66 Zn59 2.033 . S
O66 C69 1.231 1_556 S
O67 Zn61 2.035 . S
O67 C69 1.258 . S
C68 O62 1.247 . S
C68 O63 1.258 1_554 S
C69 O66 1.231 1_554 S
C69 O67 1.258 . S
C70 O72 1.247 . S
C70 O74 1.258 . S
C71 O78 1.247 . S
C71 O79 1.258 . S
O72 C70 1.247 . S
O72 Zn73 2.028 . S
Zn73 O72 2.028 . S
Zn73 O77 2.035 . S
Zn73 O79 2.035 . S
Zn73 O80 2.028 . S
O74 C70 1.258 . S
O74 Zn75 2.035 . S
Zn75 O74 2.035 . S
Zn75 O76 2.028 . S
Zn75 O78 2.028 . S
Zn75 O81 2.035 . S
O76 Zn75 2.028 . S
O76 C82 1.247 . S
O77 Zn73 2.035 . S
O77 C82 1.258 . S
O78 C71 1.247 . S
O78 Zn75 2.028 . S
O79 C71 1.258 . S
O79 Zn73 2.035 . S
O80 Zn73 2.028 . S
O80 C83 1.247 . S
O81 Zn75 2.035 . S
O81 C83 1.258 . S
C82 O76 1.247 . S
C82 O77 1.258 . S
C83 O80 1.247 . S
C83 O81 1.258 . S
C84 O86 1.247 . S
C84 O88 1.258 . S
C85 O92 1.247 . S
C85 O93 1.258 . S
O86 C84 1.247 . S
O86 Zn87 2.028 . S
Zn87 O86 2.028 . S
Zn87 O91 2.035 . S
Zn87 O93 2.035 . S
Zn87 O94 2.028 . S
O88 C84 1.258 . S
O88 Zn89 2.035 . S
Zn89 O88 2.035 . S
Zn89 O90 2.028 . S
Zn89 O92 2.028 . S
Zn89 O95 2.035 . S
O90 Zn89 2.028 . S
O90 C96 1.247 . S
O91 Zn87 2.035 . S
O91 C96 1.258 . S
O92 C85 1.247 . S
O92 Zn89 2.028 . S
O93 C85 1.258 . S
O93 Zn87 2.035 . S
O94 Zn87 2.028 . S
O94 C97 1.247 . S
O95 Zn89 2.035 . S
O95 C97 1.258 . S
C96 O90 1.247 . S
C96 O91 1.258 . S
C97 O94 1.247 . S
C97 O95 1.258 . S
C98 O100 1.247 . S
C98 O102 1.258 . S
C99 O106 1.247 . S
C99 O107 1.258 . S
O100 C98 1.247 . S
O100 Zn101 2.028 . S
Zn101 O100 2.028 . S
Zn101 O105 2.035 . S
Zn101 O107 2.035 . S
Zn101 O108 2.028 . S
O102 C98 1.258 . S
O102 Zn103 2.035 . S
Zn103 O102 2.035 . S
Zn103 O104 2.028 . S
Zn103 O106 2.028 . S
Zn103 O109 2.035 . S
O104 Zn103 2.028 . S
O104 C110 1.247 . S
O105 Zn101 2.035 . S
O105 C110 1.258 . S
O106 C99 1.247 . S
O106 Zn103 2.028 . S
O107 C99 1.258 . S
O107 Zn101 2.035 . S
O108 Zn101 2.028 . S
O108 C111 1.247 . S
O109 Zn103 2.035 . S
O109 C111 1.258 . S
C110 O104 1.247 . S
C110 O105 1.258 . S
C111 O108 1.247 . S
C111 O109 1.258 . S
C112 O114 1.247 . S
C112 O116 1.258 . S
C113 O120 1.247 . S
C113 O121 1.258 . S
O114 C112 1.247 . S
O114 Zn115 2.028 . S
Zn115 O114 2.028 . S
Zn115 O119 2.035 . S
Zn115 O121 2.035 . S
Zn115 O122 2.028 . S
O116 C112 1.258 . S
O116 Zn117 2.035 . S
Zn117 O116 2.035 . S
Zn117 O118 2.028 . S
Zn117 O120 2.028 . S
Zn117 O123 2.035 . S
O118 Zn117 2.028 . S
O118 C124 1.247 . S
O119 Zn115 2.035 . S
O119 C124 1.258 . S
O120 C113 1.247 . S
O120 Zn117 2.028 . S
O121 C113 1.258 . S
O121 Zn115 2.035 . S
O122 Zn115 2.028 . S
O122 C125 1.247 . S
O123 Zn117 2.035 . S
O123 C125 1.258 . S
C124 O118 1.247 . S
C124 O119 1.258 . S
C125 O122 1.247 . S
C125 O123 1.258 . S
C126 O128 1.247 . S
C126 O130 1.258 . S
C127 O134 1.247 . S
C127 O135 1.258 . S
O128 C126 1.247 . S
O128 Zn129 2.028 . S
Zn129 O128 2.028 . S
Zn129 O133 2.035 . S
Zn129 O135 2.035 . S
Zn129 O136 2.028 . S
O130 C126 1.258 . S
O130 Zn131 2.035 . S
Zn131 O130 2.035 . S
Zn131 O132 2.028 . S
Zn131 O134 2.028 . S
Zn131 O137 2.035 . S
O132 Zn131 2.028 . S
O132 C138 1.247 . S
O133 Zn129 2.035 . S
O133 C138 1.258 . S
O134 C127 1.247 . S
O134 Zn131 2.028 . S
O135 C127 1.258 . S
O135 Zn129 2.035 . S
O136 Zn129 2.028 . S
O136 C139 1.247 . S
O137 Zn131 2.035 . S
O137 C139 1.258 . S
C138 O132 1.247 . S
C138 O133 1.258 . S
C139 O136 1.247 . S
C139 O137 1.258 . S
C140 O142 1.247 . S
C140 O144 1.258 1_565 S
C141 O148 1.247 . S
C141 O149 1.258 1_545 S
O142 C140 1.247 . S
O142 Zn143 2.028 . S
Zn143 O142 2.028 . S
Zn143 O147 2.035 . S
Zn143 O149 2.035 . S
Zn143 O150 2.028 . S
O144 C140 1.258 1_545 S
O144 Zn145 2.035 . S
Zn145 O144 2.035 . S
Zn145 O146 2.028 . S
Zn145 O148 2.028 . S
Zn145 O151 2.035 . S
O146 Zn145 2.028 . S
O146 C152 1.247 . S
O147 Zn143 2.035 . S
O147 C152 1.258 1_565 S
O148 C141 1.247 . S
O148 Zn145 2.028 . S
O149 C141 1.258 1_565 S
O149 Zn143 2.035 . S
O150 Zn143 2.028 . S
O150 C153 1.247 . S
O151 Zn145 2.035 . S
O151 C153 1.258 1_545 S
C152 O146 1.247 . S
C152 O147 1.258 1_545 S
C153 O150 1.247 . S
C153 O151 1.258 1_565 S
C154 O156 1.247 . S
C154 O158 1.258 1_554 S
C155 O162 1.221 1_554 S
C155 O163 1.258 . S
O156 C154 1.247 . S
O156 Zn157 2.028 . S
Zn157 O156 2.028 . S
Zn157 O161 2.035 . S
Zn157 O163 2.035 . S
Zn157 O164 2.028 . S
O158 C154 1.258 1_556 S
O158 Zn159 2.035 . S
Zn159 O158 2.035 . S
Zn159 O160 2.041 . S
Zn159 O162 2.037 . S
Zn159 O165 2.035 . S
O160 Zn159 2.041 . S
O160 C166 1.213 1_556 S
O161 Zn157 2.035 . S
O161 C166 1.258 . S
O162 C155 1.221 1_556 S
O162 Zn159 2.037 . S
O163 C155 1.258 . S
O163 Zn157 2.035 . S
O164 Zn157 2.028 . S
O164 C167 1.247 . S
O165 Zn159 2.035 . S
O165 C167 1.258 1_556 S
C166 O160 1.213 1_554 S
C166 O161 1.258 . S
C167 O164 1.247 . S
C167 O165 1.258 1_554 S
Co168 N173 2.057 1_545 S
Co168 O185 2.021 . S
Co168 O188 2.062 . S
Co168 O192 2.117 . S
Co168 O193 2.020 1_455 S
C169 O189 1.259 . S
C169 O192 1.258 . S
Co170 N179 2.057 . S
Co170 O186 2.117 . S
Co170 O187 2.020 . S
Co170 O189 2.021 . S
Co170 O194 2.062 . S
C171 N173 1.316 . S
C171 N174 1.347 1_455 S
C171 H176 0.931 . S
C172 N173 1.375 1_655 S
C172 C175 1.350 . S
C172 H177 0.930 . S
N173 Co168 2.057 1_565 S
N173 C171 1.316 . S
N173 C172 1.375 1_455 S
N174 C171 1.347 1_655 S
N174 C175 1.373 . S
C175 C172 1.350 . S
C175 N174 1.373 . S
C175 H196 0.931 . S
H176 C171 0.931 . S
H177 C172 0.930 . S
C178 O185 1.259 1_556 S
C178 O186 1.258 1_556 S
N179 Co170 2.057 . S
N179 C180 1.316 . S
N179 C181 1.375 1_554 S
C180 N179 1.316 . S
C180 N182 1.347 . S
C180 H191 0.931 . S
C181 N179 1.375 1_556 S
C181 C183 1.350 . S
C181 H190 0.930 . S
N182 C180 1.347 . S
N182 C183 1.373 1_554 S
C183 C181 1.350 . S
C183 N182 1.373 1_556 S
C183 H197 0.931 . S
C184 O187 1.256 . S
C184 O188 1.255 . S
O185 Co168 2.021 . S
O185 C178 1.259 1_554 S
O186 Co170 2.117 . S
O186 C178 1.258 1_554 S
O187 Co170 2.020 . S
O187 C184 1.256 . S
O188 Co168 2.062 . S
O188 C184 1.255 . S
O189 C169 1.259 . S
O189 Co170 2.021 . S
H190 C181 0.930 . S
H191 C180 0.931 . S
O192 Co168 2.117 . S
O192 C169 1.258 . S
O193 Co168 2.020 1_655 S
O193 C195 1.256 . S
O194 Co170 2.062 . S
O194 C195 1.255 1_455 S
C195 O193 1.256 . S
C195 O194 1.255 1_655 S
H196 C175 0.931 . S
H197 C183 0.931 . S
Co198 N203 2.057 . S
Co198 O215 2.021 . S
Co198 O218 2.062 . S
Co198 O222 2.117 . S
Co198 O223 2.020 . S
C199 O219 1.259 . S
C199 O222 1.258 . S
Co200 N209 2.057 1_554 S
Co200 O216 2.117 . S
Co200 O217 2.020 . S
Co200 O219 2.021 . S
Co200 O224 2.062 . S
C201 N203 1.316 . S
C201 N204 1.347 . S
C201 H206 0.931 . S
C202 N203 1.375 . S
C202 C205 1.350 1_655 S
C202 H207 0.930 . S
N203 Co198 2.057 . S
N203 C201 1.316 . S
N203 C202 1.375 . S
N204 C201 1.347 . S
N204 C205 1.373 1_655 S
C205 C202 1.350 1_455 S
C205 N204 1.373 1_455 S
C205 H226 0.931 . S
H206 C201 0.931 . S
H207 C202 0.930 . S
C208 O215 1.259 . S
C208 O216 1.258 . S
N209 Co200 2.057 1_556 S
N209 C210 1.316 . S
N209 C211 1.375 . S
C210 N209 1.316 . S
C210 N212 1.347 . S
C210 H221 0.931 . S
C211 N209 1.375 . S
C211 C213 1.350 . S
C211 H220 0.930 . S
N212 C210 1.347 . S
N212 C213 1.373 . S
C213 C211 1.350 . S
C213 N212 1.373 . S
C213 H227 0.931 . S
C214 O217 1.249 1_455 S
C214 O218 1.253 1_455 S
O215 Co198 2.021 . S
O215 C208 1.259 . S
O216 Co200 2.117 . S
O216 C208 1.258 . S
O217 Co200 2.020 . S
O217 C214 1.249 1_655 S
O218 Co198 2.062 . S
O218 C214 1.253 1_655 S
O219 C199 1.259 . S
O219 Co200 2.021 . S
H220 C211 0.930 . S
H221 C210 0.931 . S
O222 Co198 2.117 . S
O222 C199 1.258 . S
O223 Co198 2.020 . S
O223 C225 1.256 . S
O224 Co200 2.062 . S
O224 C225 1.255 . S
C225 O223 1.256 . S
C225 O224 1.255 . S
H226 C205 0.931 . S
H227 C213 0.931 . S
Co228 N233 2.057 . S
Co228 O245 2.021 . S
Co228 O248 2.062 . S
Co228 O252 2.117 . S
Co228 O253 2.020 . S
C229 O249 1.259 . S
C229 O252 1.258 . S
Co230 N239 2.057 . S
Co230 O246 2.117 . S
Co230 O247 2.020 . S
Co230 O249 2.021 . S
Co230 O254 2.062 . S
C231 N233 1.316 . S
C231 N234 1.347 . S
C231 H236 0.931 . S
C232 N233 1.375 . S
C232 C235 1.360 . S
C232 H237 0.930 . S
N233 Co228 2.057 . S
N233 C231 1.316 . S
N233 C232 1.375 . S
N234 C231 1.347 . S
N234 C235 1.383 . S
C235 C232 1.360 . S
C235 N234 1.383 . S
C235 H256 0.916 1_565 S
H236 C231 0.931 . S
H237 C232 0.930 . S
C238 O245 1.259 . S
C238 O246 1.258 . S
N239 Co230 2.057 . S
N239 C240 1.316 . S
N239 C241 1.351 1_455 S
C240 N239 1.316 . S
C240 N242 1.347 . S
C240 H251 0.931 . S
C241 N239 1.351 1_655 S
C241 C243 1.359 . S
C241 H250 0.943 . S
N242 C240 1.347 . S
N242 C243 1.373 1_455 S
C243 C241 1.359 . S
C243 N242 1.373 1_655 S
C243 H257 0.931 . S
C244 O247 1.256 . S
C244 O248 1.255 . S
O245 Co228 2.021 . S
O245 C238 1.259 . S
O246 Co230 2.117 . S
O246 C238 1.258 . S
O247 Co230 2.020 . S
O247 C244 1.256 . S
O248 Co228 2.062 . S
O248 C244 1.255 . S
O249 C229 1.259 . S
O249 Co230 2.021 . S
H250 C241 0.943 . S
H251 C240 0.931 . S
O252 Co228 2.117 . S
O252 C229 1.258 . S
O253 Co228 2.020 . S
O253 C255 1.256 . S
O254 Co230 2.062 . S
O254 C255 1.255 . S
C255 O253 1.256 . S
C255 O254 1.255 . S
H256 C235 0.916 1_545 S
H257 C243 0.931 . S
Co258 N263 2.057 . S
Co258 O275 2.021 . S
Co258 O278 2.062 . S
Co258 O282 2.117 . S
Co258 O283 2.020 . S
C259 O279 1.259 . S
C259 O282 1.258 1_455 S
Co260 N269 2.057 . S
Co260 O276 2.117 . S
Co260 O277 2.020 . S
Co260 O279 2.021 1_655 S
Co260 O284 2.062 . S
C261 N263 1.316 . S
C261 N264 1.347 . S
C261 H266 0.931 . S
C262 N263 1.375 . S
C262 C265 1.350 . S
C262 H267 0.930 . S
N263 Co258 2.057 . S
N263 C261 1.316 . S
N263 C262 1.375 . S
N264 C261 1.347 . S
N264 C265 1.373 . S
C265 C262 1.350 . S
C265 N264 1.373 . S
C265 H286 0.931 . S
H266 C261 0.931 . S
H267 C262 0.930 . S
C268 O275 1.259 . S
C268 O276 1.258 . S
N269 Co260 2.057 . S
N269 C270 1.316 1_655 S
N269 C271 1.375 . S
C270 N269 1.316 1_455 S
C270 N272 1.347 . S
C270 H281 0.931 . S
C271 N269 1.375 . S
C271 C273 1.350 . S
C271 H280 0.930 . S
N272 C270 1.347 . S
N272 C273 1.373 1_455 S
C273 C271 1.350 . S
C273 N272 1.373 1_655 S
C273 H287 0.931 . S
C274 O277 1.256 . S
C274 O278 1.255 . S
O275 Co258 2.021 . S
O275 C268 1.259 . S
O276 Co260 2.117 . S
O276 C268 1.258 . S
O277 Co260 2.020 . S
O277 C274 1.256 . S
O278 Co258 2.062 . S
O278 C274 1.255 . S
O279 C259 1.259 . S
O279 Co260 2.021 1_455 S
H280 C271 0.930 . S
H281 C270 0.931 . S
O282 Co258 2.117 . S
O282 C259 1.258 1_655 S
O283 Co258 2.020 . S
O283 C285 1.256 . S
O284 Co260 2.062 . S
O284 C285 1.255 . S
C285 O283 1.256 . S
C285 O284 1.255 . S
H286 C265 0.931 . S
H287 C273 0.931 . S
Co288 N293 2.057 . S
Co288 O305 2.021 . S
Co288 O308 2.062 . S
Co288 O312 2.117 . S
Co288 O313 2.020 . S
C289 O309 1.259 . S
C289 O312 1.258 . S
Co290 N299 2.057 . S
Co290 O306 2.117 . S
Co290 O307 2.020 . S
Co290 O309 2.021 . S
Co290 O314 2.062 . S
C291 N293 1.316 . S
C291 N294 1.347 . S
C291 H296 0.931 . S
C292 N293 1.375 . S
C292 C295 1.350 . S
C292 H297 0.930 . S
N293 Co288 2.057 . S
N293 C291 1.316 . S
N293 C292 1.375 . S
N294 C291 1.347 . S
N294 C295 1.373 . S
C295 C292 1.350 . S
C295 N294 1.373 . S
C295 H316 0.931 . S
H296 C291 0.931 . S
H297 C292 0.930 . S
C298 O305 1.259 . S
C298 O306 1.258 . S
N299 Co290 2.057 . S
N299 C300 1.316 . S
N299 C301 1.375 . S
C300 N299 1.316 . S
C300 N302 1.347 . S
C300 H311 0.931 1_565 S
C301 N299 1.375 . S
C301 C303 1.350 . S
C301 H310 0.930 . S
N302 C300 1.347 . S
N302 C303 1.373 . S
C303 C301 1.350 . S
C303 N302 1.373 . S
C303 H317 0.931 . S
C304 O307 1.256 . S
C304 O308 1.255 . S
O305 Co288 2.021 . S
O305 C298 1.259 . S
O306 Co290 2.117 . S
O306 C298 1.258 . S
O307 Co290 2.020 . S
O307 C304 1.256 . S
O308 Co288 2.062 . S
O308 C304 1.255 . S
O309 C289 1.259 . S
O309 Co290 2.021 . S
H310 C301 0.930 . S
H311 C300 0.931 1_545 S
O312 Co288 2.117 . S
O312 C289 1.258 . S
O313 Co288 2.020 . S
O313 C315 1.256 . S
O314 Co290 2.062 . S
O314 C315 1.255 . S
C315 O313 1.256 . S
C315 O314 1.255 . S
H316 C295 0.931 . S
H317 C303 0.931 . S
Co318 N323 2.057 . S
Co318 O335 2.021 . S
Co318 O338 2.062 . S
Co318 O342 2.117 . S
Co318 O343 2.020 . S
C319 O339 1.259 . S
C319 O342 1.258 . S
Co320 N329 2.057 . S
Co320 O336 2.117 . S
Co320 O337 2.020 . S
Co320 O339 2.021 . S
Co320 O344 2.062 . S
C321 N323 1.316 . S
C321 N324 1.347 . S
C321 H326 0.931 . S
C322 N323 1.375 . S
C322 C325 1.350 . S
C322 H327 0.930 . S
N323 Co318 2.057 . S
N323 C321 1.316 . S
N323 C322 1.375 . S
N324 C321 1.347 . S
N324 C325 1.373 . S
C325 C322 1.350 . S
C325 N324 1.373 . S
C325 H346 0.931 . S
H326 C321 0.931 . S
H327 C322 0.930 . S
C328 O335 1.259 . S
C328 O336 1.258 . S
N329 Co320 2.057 . S
N329 C330 1.316 . S
N329 C331 1.375 . S
C330 N329 1.316 . S
C330 N332 1.347 . S
C330 H341 0.931 . S
C331 N329 1.375 . S
C331 C333 1.350 . S
C331 H340 0.930 . S
N332 C330 1.347 . S
N332 C333 1.373 . S
C333 C331 1.350 . S
C333 N332 1.373 . S
C333 H347 0.931 . S
C334 O337 1.256 . S
C334 O338 1.255 . S
O335 Co318 2.021 . S
O335 C328 1.259 . S
O336 Co320 2.117 . S
O336 C328 1.258 . S
O337 Co320 2.020 . S
O337 C334 1.256 . S
O338 Co318 2.062 . S
O338 C334 1.255 . S
O339 C319 1.259 . S
O339 Co320 2.021 . S
H340 C331 0.930 . S
H341 C330 0.931 . S
O342 Co318 2.117 . S
O342 C319 1.258 . S
O343 Co318 2.020 . S
O343 C345 1.256 . S
O344 Co320 2.062 . S
O344 C345 1.255 . S
C345 O343 1.256 . S
C345 O344 1.255 . S
H346 C325 0.931 . S
H347 C333 0.931 . S
Co348 N353 2.034 1_556 S
Co348 O365 2.021 . S
Co348 O368 2.062 . S
Co348 O372 2.117 . S
Co348 O373 2.020 . S
C349 O369 1.259 . S
C349 O372 1.258 . S
Co350 N359 2.057 . S
Co350 O366 2.117 . S
Co350 O367 2.020 . S
Co350 O369 2.021 . S
Co350 O374 2.062 . S
C351 N353 1.347 . S
C351 N354 1.347 . S
C351 H356 0.931 . S
C352 N353 1.374 1_556 S
C352 C355 1.350 1_556 S
C352 H357 0.930 . S
N353 Co348 2.034 1_554 S
N353 C351 1.347 . S
N353 C352 1.374 1_554 S
N354 C351 1.347 . S
N354 C355 1.373 . S
C355 C352 1.350 1_554 S
C355 N354 1.373 . S
C355 H376 0.931 . S
H356 C351 0.931 . S
H357 C352 0.930 . S
C358 O365 1.259 . S
C358 O366 1.258 . S
N359 Co350 2.057 . S
N359 C360 1.316 . S
N359 C361 1.375 . S
C360 N359 1.316 . S
C360 N362 1.347 . S
C360 H371 0.931 . S
C361 N359 1.375 . S
C361 C363 1.350 . S
C361 H370 0.930 . S
N362 C360 1.347 . S
N362 C363 1.373 . S
C363 C361 1.350 . S
C363 N362 1.373 . S
C363 H377 0.931 . S
C364 O367 1.256 . S
C364 O368 1.255 . S
O365 Co348 2.021 . S
O365 C358 1.259 . S
O366 Co350 2.117 . S
O366 C358 1.258 . S
O367 Co350 2.020 . S
O367 C364 1.256 . S
O368 Co348 2.062 . S
O368 C364 1.255 . S
O369 C349 1.259 . S
O369 Co350 2.021 . S
H370 C361 0.930 . S
H371 C360 0.931 . S
O372 Co348 2.117 . S
O372 C349 1.258 . S
O373 Co348 2.020 . S
O373 C375 1.256 . S
O374 Co350 2.062 . S
O374 C375 1.255 . S
C375 O373 1.256 . S
C375 O374 1.255 . S
H376 C355 0.931 . S
H377 C363 0.931 . S
Co378 N383 2.057 . S
Co378 O395 2.021 . S
Co378 O398 2.062 . S
Co378 O402 2.117 . S
Co378 O403 2.020 . S
C379 O399 1.259 . S
C379 O402 1.258 . S
Co380 N389 2.057 1_545 S
Co380 O396 2.117 . S
Co380 O397 2.020 . S
Co380 O399 2.021 . S
Co380 O404 2.062 . S
C381 N383 1.316 . S
C381 N384 1.347 . S
C381 H386 0.931 . S
C382 N383 1.375 . S
C382 C385 1.350 . S
C382 H387 0.930 . S
N383 Co378 2.057 . S
N383 C381 1.316 . S
N383 C382 1.375 . S
N384 C381 1.347 . S
N384 C385 1.373 . S
C385 C382 1.350 . S
C385 N384 1.373 . S
C385 H406 0.931 1_556 S
H386 C381 0.931 . S
H387 C382 0.930 . S
C388 O395 1.259 . S
C388 O396 1.258 . S
N389 Co380 2.057 1_565 S
N389 C390 1.316 . S
N389 C391 1.375 . S
C390 N389 1.316 . S
C390 N392 1.347 . S
C390 H401 0.931 . S
C391 N389 1.375 . S
C391 C393 1.350 . S
C391 H400 0.930 . S
N392 C390 1.347 . S
N392 C393 1.373 . S
C393 C391 1.350 . S
C393 N392 1.373 . S
C393 H407 0.931 . S
C394 O397 1.256 1_554 S
C394 O398 1.255 1_554 S
O395 Co378 2.021 . S
O395 C388 1.259 . S
O396 Co380 2.117 . S
O396 C388 1.258 . S
O397 Co380 2.020 . S
O397 C394 1.256 1_556 S
O398 Co378 2.062 . S
O398 C394 1.255 1_556 S
O399 C379 1.259 . S
O399 Co380 2.021 . S
H400 C391 0.930 . S
H401 C390 0.931 . S
O402 Co378 2.117 . S
O402 C379 1.258 . S
O403 Co378 2.020 . S
O403 C405 1.256 . S
O404 Co380 2.062 . S
O404 C405 1.255 . S
C405 O403 1.256 . S
C405 O404 1.255 . S
H406 C385 0.931 1_554 S
H407 C393 0.931 . S
C408 C409 1.391 . S
C408 C410 1.394 . S
C408 H424 0.931 . S
C409 C408 1.391 . S
C409 C413 1.376 . S
C410 C408 1.394 . S
C410 C411 1.369 . S
C410 C414 1.531 . S
C411 C410 1.369 . S
C411 C412 1.410 . S
C411 C419 1.503 . S
C412 C411 1.410 . S
C412 C413 1.392 . S
C412 C415 1.511 . S
C413 C409 1.376 . S
C413 C412 1.392 . S
C413 H425 0.929 . S
C414 C410 1.531 . S
C414 H426 0.960 . S
C414 H427 0.962 . S
C414 H428 0.960 . S
C415 C412 1.511 . S
C415 H429 0.961 . S
C415 H430 0.961 . S
C415 H431 0.961 . S
C416 C417 1.370 . S
C416 C418 1.363 . S
C416 H432 0.931 . S
C417 C416 1.370 . S
C417 C421 1.408 1_455 S
C418 C416 1.363 . S
C418 C419 1.370 . S
C418 C422 1.524 . S
C419 C411 1.503 . S
C419 C418 1.370 . S
C419 C420 1.403 1_455 S
C420 C419 1.403 1_655 S
C420 C421 1.404 . S
C420 C423 1.539 . S
C421 C417 1.408 1_655 S
C421 C420 1.404 . S
C421 H433 0.930 . S
C422 C418 1.524 . S
C422 H434 0.956 . S
C422 H435 0.961 . S
C422 H436 0.961 . S
C423 C420 1.539 . S
C423 H437 0.958 . S
C423 H438 0.961 . S
C423 H439 0.960 . S
H424 C408 0.931 . S
H425 C413 0.929 . S
H426 C414 0.960 . S
H427 C414 0.962 . S
H428 C414 0.960 . S
H429 C415 0.961 . S
H430 C415 0.961 . S
H431 C415 0.961 . S
H432 C416 0.931 . S
H433 C421 0.930 . S
H434 C422 0.956 . S
H435 C422 0.961 . S
H436 C422 0.961 . S
H437 C423 0.958 . S
H438 C423 0.961 . S
H439 C423 0.960 . S
C440 C441 1.391 . S
C440 C442 1.394 . S
C440 H456 0.931 1_455 S
C441 C440 1.391 . S
C441 C445 1.376 . S
C442 C440 1.394 . S
C442 C443 1.369 . S
C442 C446 1.531 1_455 S
C443 C442 1.369 . S
C443 C444 1.410 . S
C443 C451 1.503 . S
C444 C443 1.410 . S
C444 C445 1.392 . S
C444 C447 1.511 . S
C445 C441 1.376 . S
C445 C444 1.392 . S
C445 H457 0.929 . S
C446 C442 1.531 1_655 S
C446 H458 0.960 . S
C446 H459 0.962 1_655 S
C446 H460 0.960 . S
C447 C444 1.511 . S
C447 H461 0.961 . S
C447 H462 0.961 . S
C447 H463 0.961 . S
C448 C449 1.370 . S
C448 C450 1.363 . S
C448 H464 0.931 . S
C449 C448 1.370 . S
C449 C453 1.408 1_455 S
C450 C448 1.363 . S
C450 C451 1.370 . S
C450 C454 1.524 . S
C451 C443 1.503 . S
C451 C450 1.370 . S
C451 C452 1.403 1_455 S
C452 C451 1.403 1_655 S
C452 C453 1.404 . S
C452 C455 1.539 . S
C453 C449 1.408 1_655 S
C453 C452 1.404 . S
C453 H465 0.930 . S
C454 C450 1.524 . S
C454 H466 0.956 . S
C454 H467 0.961 . S
C454 H468 0.961 . S
C455 C452 1.539 . S
C455 H469 0.958 . S
C455 H470 0.961 . S
C455 H471 0.960 . S
H456 C440 0.931 1_655 S
H457 C445 0.929 . S
H458 C446 0.960 . S
H459 C446 0.962 1_455 S
H460 C446 0.960 . S
H461 C447 0.961 . S
H462 C447 0.961 . S
H463 C447 0.961 . S
H464 C448 0.931 . S
H465 C453 0.930 . S
H466 C454 0.956 . S
H467 C454 0.961 . S
H468 C454 0.961 . S
H469 C455 0.958 . S
H470 C455 0.961 . S
H471 C455 0.960 . S
C472 C473 1.391 1_655 S
C472 C474 1.394 . S
C472 H488 0.931 . S
C473 C472 1.391 1_455 S
C473 C477 1.376 . S
C474 C472 1.394 . S
C474 C475 1.369 1_655 S
C474 C478 1.531 . S
C475 C474 1.369 1_455 S
C475 C476 1.410 . S
C475 C483 1.503 . S
C476 C475 1.410 . S
C476 C477 1.392 . S
C476 C479 1.511 . S
C477 C473 1.376 . S
C477 C476 1.392 . S
C477 H489 0.929 . S
C478 C474 1.531 . S
C478 H490 0.960 . S
C478 H491 0.962 . S
C478 H492 0.960 . S
C479 C476 1.511 . S
C479 H493 0.961 . S
C479 H494 0.961 . S
C479 H495 0.961 . S
C480 C481 1.370 . S
C480 C482 1.363 . S
C480 H496 0.931 . S
C481 C480 1.370 . S
C481 C485 1.408 1_655 S
C482 C480 1.363 . S
C482 C483 1.370 1_655 S
C482 C486 1.524 . S
C483 C475 1.503 . S
C483 C482 1.370 1_455 S
C483 C484 1.403 . S
C484 C483 1.403 . S
C484 C485 1.404 . S
C484 C487 1.539 . S
C485 C481 1.408 1_455 S
C485 C484 1.404 . S
C485 H497 0.930 . S
C486 C482 1.524 . S
C486 H498 0.956 . S
C486 H499 0.961 1_655 S
C486 H500 0.961 . S
C487 C484 1.539 . S
C487 H501 0.958 . S
C487 H502 0.961 . S
C487 H503 0.960 . S
H488 C472 0.931 . S
H489 C477 0.929 . S
H490 C478 0.960 . S
H491 C478 0.962 . S
H492 C478 0.960 . S
H493 C479 0.961 . S
H494 C479 0.961 . S
H495 C479 0.961 . S
H496 C480 0.931 . S
H497 C485 0.930 . S
H498 C486 0.956 . S
H499 C486 0.961 1_455 S
H500 C486 0.961 . S
H501 C487 0.958 . S
H502 C487 0.961 . S
H503 C487 0.960 . S
C504 C505 1.391 . S
C504 C506 1.394 . S
C504 H520 0.931 . S
C505 C504 1.391 . S
C505 C509 1.376 1_655 S
C506 C504 1.394 . S
C506 C507 1.369 . S
C506 C510 1.531 . S
C507 C506 1.369 . S
C507 C508 1.410 1_655 S
C507 C515 1.503 . S
C508 C507 1.410 1_455 S
C508 C509 1.392 . S
C508 C511 1.511 . S
C509 C505 1.376 1_455 S
C509 C508 1.392 . S
C509 H521 0.929 . S
C510 C506 1.531 . S
C510 H522 0.960 . S
C510 H523 0.962 . S
C510 H524 0.960 . S
C511 C508 1.511 . S
C511 H525 0.961 . S
C511 H526 0.961 . S
C511 H527 0.961 . S
C512 C513 1.370 . S
C512 C514 1.363 . S
C512 H528 0.931 . S
C513 C512 1.370 . S
C513 C517 1.408 . S
C514 C512 1.363 . S
C514 C515 1.370 . S
C514 C518 1.524 . S
C515 C507 1.503 . S
C515 C514 1.370 . S
C515 C516 1.403 1_655 S
C516 C515 1.403 1_455 S
C516 C517 1.404 1_455 S
C516 C519 1.539 . S
C517 C513 1.408 . S
C517 C516 1.404 1_655 S
C517 H529 0.930 1_655 S
C518 C514 1.524 . S
C518 H530 0.956 . S
C518 H531 0.961 . S
C518 H532 0.961 . S
C519 C516 1.539 . S
C519 H533 0.958 . S
C519 H534 0.961 . S
C519 H535 0.960 . S
H520 C504 0.931 . S
H521 C509 0.929 . S
H522 C510 0.960 . S
H523 C510 0.962 . S
H524 C510 0.960 . S
H525 C511 0.961 . S
H526 C511 0.961 . S
H527 C511 0.961 . S
H528 C512 0.931 . S
H529 C517 0.930 1_455 S
H530 C518 0.956 . S
H531 C518 0.961 . S
H532 C518 0.961 . S
H533 C519 0.958 . S
H534 C519 0.961 . S
H535 C519 0.960 . S
C536 C537 1.391 1_565 S
C536 C538 1.394 . S
C536 H552 0.931 . S
C537 C536 1.391 1_545 S
C537 C541 1.376 . S
C538 C536 1.394 . S
C538 C539 1.369 1_565 S
C538 C542 1.531 . S
C539 C538 1.369 1_545 S
C539 C540 1.410 . S
C539 C547 1.503 . S
C540 C539 1.410 . S
C540 C541 1.392 . S
C540 C543 1.511 . S
C541 C537 1.376 . S
C541 C540 1.392 . S
C541 H553 0.929 . S
C542 C538 1.531 . S
C542 H554 0.960 . S
C542 H555 0.962 . S
C542 H556 0.960 . S
C543 C540 1.511 . S
C543 H557 0.961 . S
C543 H558 0.961 . S
C543 H559 0.961 . S
C544 C545 1.370 . S
C544 C546 1.363 . S
C544 H560 0.931 . S
C545 C544 1.370 . S
C545 C549 1.408 . S
C546 C544 1.363 . S
C546 C547 1.370 . S
C546 C550 1.524 . S
C547 C539 1.503 . S
C547 C546 1.370 . S
C547 C548 1.403 . S
C548 C547 1.403 . S
C548 C549 1.404 . S
C548 C551 1.539 1_545 S
C549 C545 1.408 . S
C549 C548 1.404 . S
C549 H561 0.920 1_545 S
C550 C546 1.524 . S
C550 H562 0.956 . S
C550 H563 0.961 . S
C550 H564 0.961 . S
C551 C548 1.539 1_565 S
C551 H565 0.958 . S
C551 H566 0.961 . S
C551 H567 0.960 . S
H552 C536 0.931 . S
H553 C541 0.929 . S
H554 C542 0.960 . S
H555 C542 0.962 . S
H556 C542 0.960 . S
H557 C543 0.961 . S
H558 C543 0.961 . S
H559 C543 0.961 . S
H560 C544 0.931 . S
H561 C549 0.920 1_565 S
H562 C550 0.956 . S
H563 C550 0.961 . S
H564 C550 0.961 . S
H565 C551 0.958 . S
H566 C551 0.961 . S
H567 C551 0.960 . S
C568 C569 1.391 . S
C568 C570 1.394 . S
C568 H584 0.931 . S
C569 C568 1.391 . S
C569 C573 1.376 . S
C570 C568 1.394 . S
C570 C571 1.369 . S
C570 C574 1.531 . S
C571 C570 1.369 . S
C571 C572 1.410 . S
C571 C579 1.503 . S
C572 C571 1.410 . S
C572 C573 1.392 . S
C572 C575 1.511 . S
C573 C569 1.376 . S
C573 C572 1.392 . S
C573 H585 0.929 . S
C574 C570 1.531 . S
C574 H586 0.960 . S
C574 H587 0.962 . S
C574 H588 0.960 . S
C575 C572 1.511 . S
C575 H589 0.961 . S
C575 H590 0.961 . S
C575 H591 0.961 . S
C576 C577 1.370 . S
C576 C578 1.363 . S
C576 H592 0.931 . S
C577 C576 1.370 . S
C577 C581 1.408 . S
C578 C576 1.363 . S
C578 C579 1.370 . S
C578 C582 1.524 . S
C579 C571 1.503 . S
C579 C578 1.370 . S
C579 C580 1.403 . S
C580 C579 1.403 . S
C580 C581 1.404 . S
C580 C583 1.539 . S
C581 C577 1.408 . S
C581 C580 1.404 . S
C581 H593 0.930 . S
C582 C578 1.524 . S
C582 H594 0.956 . S
C582 H595 0.961 . S
C582 H596 0.961 . S
C583 C580 1.539 . S
C583 H597 0.958 . S
C583 H598 0.961 . S
C583 H599 0.960 . S
H584 C568 0.931 . S
H585 C573 0.929 . S
H586 C574 0.960 . S
H587 C574 0.962 . S
H588 C574 0.960 . S
H589 C575 0.961 . S
H590 C575 0.961 . S
H591 C575 0.961 . S
H592 C576 0.931 . S
H593 C581 0.930 . S
H594 C582 0.956 . S
H595 C582 0.961 . S
H596 C582 0.961 . S
H597 C583 0.958 . S
H598 C583 0.961 . S
H599 C583 0.960 . S
C600 C601 1.391 . S
C600 C602 1.394 . S
C600 H616 0.931 . S
C601 C600 1.391 . S
C601 C605 1.376 . S
C602 C600 1.394 . S
C602 C603 1.369 . S
C602 C606 1.531 . S
C603 C602 1.369 . S
C603 C604 1.410 . S
C603 C611 1.503 . S
C604 C603 1.410 . S
C604 C605 1.392 . S
C604 C607 1.511 . S
C605 C601 1.376 . S
C605 C604 1.392 . S
C605 H617 0.929 . S
C606 C602 1.531 . S
C606 H618 0.960 . S
C606 H619 0.962 1_565 S
C606 H620 0.960 . S
C607 C604 1.511 . S
C607 H621 0.961 . S
C607 H622 0.961 . S
C607 H623 0.961 . S
C608 C609 1.370 1_545 S
C608 C610 1.363 . S
C608 H624 0.931 . S
C609 C608 1.370 1_565 S
C609 C613 1.408 . S
C610 C608 1.363 . S
C610 C611 1.370 1_545 S
C610 C614 1.524 . S
C611 C603 1.503 . S
C611 C610 1.370 1_565 S
C611 C612 1.403 . S
C612 C611 1.403 . S
C612 C613 1.404 . S
C612 C615 1.539 . S
C613 C609 1.408 . S
C613 C612 1.404 . S
C613 H625 0.930 . S
C614 C610 1.524 . S
C614 H626 0.956 . S
C614 H627 0.961 . S
C614 H628 0.961 . S
C615 C612 1.539 . S
C615 H629 0.958 . S
C615 H630 0.961 . S
C615 H631 0.960 . S
H616 C600 0.931 . S
H617 C605 0.929 . S
H618 C606 0.960 . S
H619 C606 0.962 1_545 S
H620 C606 0.960 . S
H621 C607 0.961 . S
H622 C607 0.961 . S
H623 C607 0.961 . S
H624 C608 0.931 . S
H625 C613 0.930 . S
H626 C614 0.956 . S
H627 C614 0.961 . S
H628 C614 0.961 . S
H629 C615 0.958 . S
H630 C615 0.961 . S
H631 C615 0.960 . S
C632 C633 1.391 . S
C632 C634 1.394 . S
C632 H648 0.931 . S
C633 C632 1.391 . S
C633 C637 1.376 . S
C634 C632 1.394 . S
C634 C635 1.369 . S
C634 C638 1.531 . S
C635 C634 1.369 . S
C635 C636 1.410 . S
C635 C643 1.503 . S
C636 C635 1.410 . S
C636 C637 1.392 . S
C636 C639 1.511 . S
C637 C633 1.376 . S
C637 C636 1.392 . S
C637 H649 0.929 . S
C638 C634 1.531 . S
C638 H650 0.960 . S
C638 H651 0.962 . S
C638 H652 0.960 . S
C639 C636 1.511 . S
C639 H653 0.961 . S
C639 H654 0.961 . S
C639 H655 0.961 . S
C640 C641 1.370 . S
C640 C642 1.363 . S
C640 H656 0.931 . S
C641 C640 1.370 . S
C641 C645 1.408 . S
C642 C640 1.363 . S
C642 C643 1.370 . S
C642 C646 1.524 . S
C643 C635 1.503 . S
C643 C642 1.370 . S
C643 C644 1.403 . S
C644 C643 1.403 . S
C644 C645 1.404 . S
C644 C647 1.539 . S
C645 C641 1.408 . S
C645 C644 1.404 . S
C645 H657 0.930 . S
C646 C642 1.524 . S
C646 H658 0.956 . S
C646 H659 0.961 . S
C646 H660 0.961 . S
C647 C644 1.539 . S
C647 H661 0.958 . S
C647 H662 0.961 . S
C647 H663 0.960 . S
H648 C632 0.931 . S
H649 C637 0.929 . S
H650 C638 0.960 . S
H651 C638 0.962 . S
H652 C638 0.960 . S
H653 C639 0.961 . S
H654 C639 0.961 . S
H655 C639 0.961 . S
H656 C640 0.931 . S
H657 C645 0.930 . S
H658 C646 0.956 . S
H659 C646 0.961 . S
H660 C646 0.961 . S
H661 C647 0.958 . S
H662 C647 0.961 . S
H663 C647 0.960 . S
C664 C665 1.391 . S
C664 C666 1.394 . S
C664 H680 0.931 . S
C665 C664 1.391 . S
C665 C669 1.376 . S
C666 C664 1.394 . S
C666 C667 1.369 . S
C666 C670 1.531 . S
C667 C666 1.369 . S
C667 C668 1.410 . S
C667 C675 1.503 . S
C668 C667 1.410 . S
C668 C669 1.392 . S
C668 C671 1.511 . S
C669 C665 1.376 . S
C669 C668 1.392 . S
C669 H681 0.929 . S
C670 C666 1.531 . S
C670 H682 0.960 . S
C670 H683 0.962 . S
C670 H684 0.960 . S
C671 C668 1.511 . S
C671 H685 0.961 1_554 S
C671 H686 0.961 . S
C671 H687 0.961 . S
C672 C673 1.370 . S
C672 C674 1.363 . S
C672 H688 0.931 1_554 S
C673 C672 1.370 . S
C673 C677 1.408 . S
C674 C672 1.363 . S
C674 C675 1.370 . S
C674 C678 1.524 1_554 S
C675 C667 1.503 . S
C675 C674 1.370 . S
C675 C676 1.403 . S
C676 C675 1.403 . S
C676 C677 1.404 . S
C676 C679 1.539 . S
C677 C673 1.408 . S
C677 C676 1.404 . S
C677 H689 0.930 . S
C678 C674 1.524 1_556 S
C678 H690 0.956 . S
C678 H691 0.961 . S
C678 H692 0.961 . S
C679 C676 1.539 . S
C679 H693 0.958 . S
C679 H694 0.961 . S
C679 H695 0.960 . S
H680 C664 0.931 . S
H681 C669 0.929 . S
H682 C670 0.960 . S
H683 C670 0.962 . S
H684 C670 0.960 . S
H685 C671 0.961 1_556 S
H686 C671 0.961 . S
H687 C671 0.961 . S
H688 C672 0.931 1_556 S
H689 C677 0.930 . S
H690 C678 0.956 . S
H691 C678 0.961 . S
H692 C678 0.961 . S
H693 C679 0.958 . S
H694 C679 0.961 . S
H695 C679 0.960 . S
C696 C697 1.391 . S
C696 C698 1.394 . S
C696 H712 0.931 . S
C697 C696 1.391 . S
C697 C701 1.376 . S
C698 C696 1.394 . S
C698 C699 1.369 . S
C698 C702 1.531 . S
C699 C698 1.369 . S
C699 C700 1.410 . S
C699 C707 1.503 . S
C700 C699 1.410 . S
C700 C701 1.392 . S
C700 C703 1.511 . S
C701 C697 1.376 . S
C701 C700 1.392 . S
C701 H713 0.929 . S
C702 C698 1.531 . S
C702 H714 0.960 . S
C702 H715 0.962 . S
C702 H716 0.960 . S
C703 C700 1.511 . S
C703 H717 0.961 . S
C703 H718 0.961 . S
C703 H719 0.961 . S
C704 C705 1.370 . S
C704 C706 1.363 . S
C704 H720 0.931 . S
C705 C704 1.370 . S
C705 C709 1.408 . S
C706 C704 1.363 . S
C706 C707 1.370 . S
C706 C710 1.524 . S
C707 C699 1.503 . S
C707 C706 1.370 . S
C707 C708 1.403 . S
C708 C707 1.403 . S
C708 C709 1.404 . S
C708 C711 1.539 . S
C709 C705 1.408 . S
C709 C708 1.404 . S
C709 H721 0.930 . S
C710 C706 1.524 . S
C710 H722 0.956 . S
C710 H723 0.961 . S
C710 H724 0.961 . S
C711 C708 1.539 . S
C711 H725 0.958 . S
C711 H726 0.961 . S
C711 H727 0.960 . S
H712 C696 0.931 . S
H713 C701 0.929 . S
H714 C702 0.960 . S
H715 C702 0.962 . S
H716 C702 0.960 . S
H717 C703 0.961 . S
H718 C703 0.961 . S
H719 C703 0.961 . S
H720 C704 0.931 . S
H721 C709 0.930 . S
H722 C710 0.956 . S
H723 C710 0.961 . S
H724 C710 0.961 . S
H725 C711 0.958 . S
H726 C711 0.961 . S
H727 C711 0.960 . S
C728 C729 1.391 . S
C728 C730 1.394 . S
C728 H744 0.931 . S
C729 C728 1.391 . S
C729 C733 1.376 . S
C730 C728 1.394 . S
C730 C731 1.369 . S
C730 C734 1.531 . S
C731 C730 1.369 . S
C731 C732 1.410 . S
C731 C739 1.503 . S
C732 C731 1.410 . S
C732 C733 1.392 . S
C732 C735 1.511 . S
C733 C729 1.376 . S
C733 C732 1.392 . S
C733 H745 0.929 . S
C734 C730 1.531 . S
C734 H746 0.960 . S
C734 H747 0.962 . S
C734 H748 0.960 . S
C735 C732 1.511 . S
C735 H749 0.961 . S
C735 H750 0.961 . S
C735 H751 0.961 . S
C736 C737 1.370 . S
C736 C738 1.363 . S
C736 H752 0.931 . S
C737 C736 1.370 . S
C737 C741 1.408 . S
C738 C736 1.363 . S
C738 C739 1.370 . S
C738 C742 1.524 . S
C739 C731 1.503 . S
C739 C738 1.370 . S
C739 C740 1.403 . S
C740 C739 1.403 . S
C740 C741 1.404 . S
C740 C743 1.539 . S
C741 C737 1.408 . S
C741 C740 1.404 . S
C741 H753 0.930 . S
C742 C738 1.524 . S
C742 H754 0.956 . S
C742 H755 0.961 . S
C742 H756 0.961 . S
C743 C740 1.539 . S
C743 H757 0.958 . S
C743 H758 0.961 . S
C743 H759 0.960 . S
H744 C728 0.931 . S
H745 C733 0.929 . S
H746 C734 0.960 . S
H747 C734 0.962 . S
H748 C734 0.960 . S
H749 C735 0.961 . S
H750 C735 0.961 . S
H751 C735 0.961 . S
H752 C736 0.931 . S
H753 C741 0.930 . S
H754 C742 0.956 . S
H755 C742 0.961 . S
H756 C742 0.961 . S
H757 C743 0.958 . S
H758 C743 0.961 . S
H759 C743 0.960 . S
C760 C761 1.391 . S
C760 C762 1.394 . S
C760 H776 0.931 . S
C761 C760 1.391 . S
C761 C765 1.376 . S
C762 C760 1.394 . S
C762 C763 1.369 . S
C762 C766 1.531 . S
C763 C762 1.369 . S
C763 C764 1.410 . S
C763 C771 1.503 . S
C764 C763 1.410 . S
C764 C765 1.392 . S
C764 C767 1.511 . S
C765 C761 1.376 . S
C765 C764 1.392 . S
C765 H777 0.929 . S
C766 C762 1.531 . S
C766 H778 0.960 . S
C766 H779 0.962 . S
C766 H780 0.960 . S
C767 C764 1.511 . S
C767 H781 0.961 . S
C767 H782 0.961 . S
C767 H783 0.961 . S
C768 C769 1.370 . S
C768 C770 1.363 . S
C768 H784 0.931 . S
C769 C768 1.370 . S
C769 C773 1.408 . S
C770 C768 1.363 . S
C770 C771 1.370 . S
C770 C774 1.524 . S
C771 C763 1.503 . S
C771 C770 1.370 . S
C771 C772 1.403 . S
C772 C771 1.403 . S
C772 C773 1.404 . S
C772 C775 1.539 . S
C773 C769 1.408 . S
C773 C772 1.404 . S
C773 H785 0.930 . S
C774 C770 1.524 . S
C774 H786 0.956 . S
C774 H787 0.961 . S
C774 H788 0.961 . S
C775 C772 1.539 . S
C775 H789 0.958 . S
C775 H790 0.961 . S
C775 H791 0.960 . S
H776 C760 0.931 . S
H777 C765 0.929 . S
H778 C766 0.960 . S
H779 C766 0.962 . S
H780 C766 0.960 . S
H781 C767 0.961 . S
H782 C767 0.961 . S
H783 C767 0.961 . S
H784 C768 0.931 . S
H785 C773 0.930 . S
H786 C774 0.956 . S
H787 C774 0.961 . S
H788 C774 0.961 . S
H789 C775 0.958 . S
H790 C775 0.961 . S
H791 C775 0.960 . S
C792 C793 1.391 . S
C792 C794 1.394 . S
C792 H808 0.931 . S
C793 C792 1.391 . S
C793 C797 1.376 . S
C794 C792 1.394 . S
C794 C795 1.369 . S
C794 C798 1.531 . S
C795 C794 1.369 . S
C795 C796 1.410 . S
C795 C803 1.503 . S
C796 C795 1.410 . S
C796 C797 1.392 . S
C796 C799 1.511 . S
C797 C793 1.376 . S
C797 C796 1.392 . S
C797 H809 0.929 . S
C798 C794 1.531 . S
C798 H810 0.960 . S
C798 H811 0.962 . S
C798 H812 0.960 . S
C799 C796 1.511 . S
C799 H813 0.961 . S
C799 H814 0.961 . S
C799 H815 0.961 . S
C800 C801 1.370 . S
C800 C802 1.363 . S
C800 H816 0.931 . S
C801 C800 1.370 . S
C801 C805 1.408 . S
C802 C800 1.363 . S
C802 C803 1.370 . S
C802 C806 1.524 . S
C803 C795 1.503 . S
C803 C802 1.370 . S
C803 C804 1.403 . S
C804 C803 1.403 . S
C804 C805 1.404 . S
C804 C807 1.539 . S
C805 C801 1.408 . S
C805 C804 1.404 . S
C805 H817 0.930 . S
C806 C802 1.524 . S
C806 H818 0.956 . S
C806 H819 0.961 . S
C806 H820 0.961 . S
C807 C804 1.539 . S
C807 H821 0.958 . S
C807 H822 0.961 . S
C807 H823 0.960 . S
H808 C792 0.931 . S
H809 C797 0.929 . S
H810 C798 0.960 . S
H811 C798 0.962 . S
H812 C798 0.960 . S
H813 C799 0.961 . S
H814 C799 0.961 . S
H815 C799 0.961 . S
H816 C800 0.931 . S
H817 C805 0.930 . S
H818 C806 0.956 . S
H819 C806 0.961 . S
H820 C806 0.961 . S
H821 C807 0.958 . S
H822 C807 0.961 . S
H823 C807 0.960 . S
C824 C825 1.391 . S
C824 C826 1.394 . S
C824 H840 0.931 . S
C825 C824 1.391 . S
C825 C829 1.376 . S
C826 C824 1.394 . S
C826 C827 1.369 . S
C826 C830 1.531 . S
C827 C826 1.369 . S
C827 C828 1.410 . S
C827 C835 1.503 . S
C828 C827 1.410 . S
C828 C829 1.392 . S
C828 C831 1.511 . S
C829 C825 1.376 . S
C829 C828 1.392 . S
C829 H841 0.929 . S
C830 C826 1.531 . S
C830 H842 0.960 . S
C830 H843 0.962 . S
C830 H844 0.960 . S
C831 C828 1.511 . S
C831 H845 0.961 . S
C831 H846 0.961 . S
C831 H847 0.961 . S
C832 C833 1.370 . S
C832 C834 1.363 . S
C832 H848 0.931 . S
C833 C832 1.370 . S
C833 C837 1.408 . S
C834 C832 1.363 . S
C834 C835 1.370 . S
C834 C838 1.524 . S
C835 C827 1.503 . S
C835 C834 1.370 . S
C835 C836 1.403 . S
C836 C835 1.403 . S
C836 C837 1.404 . S
C836 C839 1.539 . S
C837 C833 1.408 . S
C837 C836 1.404 . S
C837 H849 0.930 . S
C838 C834 1.524 . S
C838 H850 0.956 . S
C838 H851 0.961 . S
C838 H852 0.961 . S
C839 C836 1.539 . S
C839 H853 0.958 . S
C839 H854 0.961 . S
C839 H855 0.960 . S
H840 C824 0.931 . S
H841 C829 0.929 . S
H842 C830 0.960 . S
H843 C830 0.962 . S
H844 C830 0.960 . S
H845 C831 0.961 . S
H846 C831 0.961 . S
H847 C831 0.961 . S
H848 C832 0.931 . S
H849 C837 0.930 . S
H850 C838 0.956 . S
H851 C838 0.961 . S
H852 C838 0.961 . S
H853 C839 0.958 . S
H854 C839 0.961 . S
H855 C839 0.960 . S
C856 C857 1.391 . S
C856 C858 1.394 . S
C856 H872 0.931 . S
C857 C856 1.391 . S
C857 C861 1.376 . S
C858 C856 1.394 . S
C858 C859 1.369 . S
C858 C862 1.531 . S
C859 C858 1.369 . S
C859 C860 1.410 . S
C859 C867 1.503 . S
C860 C859 1.410 . S
C860 C861 1.392 . S
C860 C863 1.511 . S
C861 C857 1.376 . S
C861 C860 1.392 . S
C861 H873 0.929 . S
C862 C858 1.531 . S
C862 H874 0.960 . S
C862 H875 0.962 . S
C862 H876 0.960 . S
C863 C860 1.511 . S
C863 H877 0.961 . S
C863 H878 0.961 . S
C863 H879 0.961 . S
C864 C865 1.370 . S
C864 C866 1.363 . S
C864 H880 0.931 . S
C865 C864 1.370 . S
C865 C869 1.408 . S
C866 C864 1.363 . S
C866 C867 1.370 . S
C866 C870 1.524 . S
C867 C859 1.503 . S
C867 C866 1.370 . S
C867 C868 1.403 . S
C868 C867 1.403 . S
C868 C869 1.404 . S
C868 C871 1.539 . S
C869 C865 1.408 . S
C869 C868 1.404 . S
C869 H881 0.930 . S
C870 C866 1.524 . S
C870 H882 0.956 . S
C870 H883 0.961 . S
C870 H884 0.961 . S
C871 C868 1.539 . S
C871 H885 0.958 . S
C871 H886 0.961 . S
C871 H887 0.960 . S
H872 C856 0.931 . S
H873 C861 0.929 . S
H874 C862 0.960 . S
H875 C862 0.962 . S
H876 C862 0.960 . S
H877 C863 0.961 . S
H878 C863 0.961 . S
H879 C863 0.961 . S
H880 C864 0.931 . S
H881 C869 0.930 . S
H882 C870 0.956 . S
H883 C870 0.961 . S
H884 C870 0.961 . S
H885 C871 0.958 . S
H886 C871 0.961 . S
H887 C871 0.960 . S
C888 C889 1.391 . S
C888 C890 1.394 . S
C888 H904 0.931 . S
C889 C888 1.391 . S
C889 C893 1.376 . S
C890 C888 1.394 . S
C890 C891 1.369 . S
C890 C894 1.531 . S
C891 C890 1.369 . S
C891 C892 1.410 . S
C891 C899 1.503 . S
C892 C891 1.410 . S
C892 C893 1.392 . S
C892 C895 1.511 . S
C893 C889 1.376 . S
C893 C892 1.392 . S
C893 H905 0.929 . S
C894 C890 1.531 . S
C894 H906 0.960 . S
C894 H907 0.962 . S
C894 H908 0.960 . S
C895 C892 1.511 . S
C895 H909 0.961 . S
C895 H910 0.961 . S
C895 H911 0.961 . S
C896 C897 1.370 . S
C896 C898 1.363 . S
C896 H912 0.931 . S
C897 C896 1.370 . S
C897 C901 1.408 . S
C898 C896 1.363 . S
C898 C899 1.370 . S
C898 C902 1.524 . S
C899 C891 1.503 . S
C899 C898 1.370 . S
C899 C900 1.403 . S
C900 C899 1.403 . S
C900 C901 1.404 . S
C900 C903 1.539 . S
C901 C897 1.408 . S
C901 C900 1.404 . S
C901 H913 0.930 . S
C902 C898 1.524 . S
C902 H914 0.956 . S
C902 H915 0.961 . S
C902 H916 0.961 . S
C903 C900 1.539 . S
C903 H917 0.958 . S
C903 H918 0.961 . S
C903 H919 0.960 . S
H904 C888 0.931 . S
H905 C893 0.929 . S
H906 C894 0.960 . S
H907 C894 0.962 . S
H908 C894 0.960 . S
H909 C895 0.961 . S
H910 C895 0.961 . S
H911 C895 0.961 . S
H912 C896 0.931 . S
H913 C901 0.930 . S
H914 C902 0.956 . S
H915 C902 0.961 . S
H916 C902 0.961 . S
H917 C903 0.958 . S
H918 C903 0.961 . S
H919 C903 0.960 . S
C920 C921 1.391 . S
C920 C922 1.394 . S
C920 H936 0.931 . S
C921 C920 1.391 . S
C921 C925 1.376 . S
C922 C920 1.394 . S
C922 C923 1.369 . S
C922 C926 1.531 . S
C923 C922 1.369 . S
C923 C924 1.410 . S
C923 C931 1.503 . S
C924 C923 1.410 . S
C924 C925 1.392 . S
C924 C927 1.511 . S
C925 C921 1.376 . S
C925 C924 1.392 . S
C925 H937 0.929 . S
C926 C922 1.531 . S
C926 H938 0.960 . S
C926 H939 0.962 . S
C926 H940 0.960 . S
C927 C924 1.511 . S
C927 H941 0.961 . S
C927 H942 0.961 . S
C927 H943 0.961 . S
C928 C929 1.370 . S
C928 C930 1.363 . S
C928 H944 0.931 . S
C929 C928 1.370 . S
C929 C933 1.408 . S
C930 C928 1.363 . S
C930 C931 1.370 . S
C930 C934 1.524 . S
C931 C923 1.503 . S
C931 C930 1.370 . S
C931 C932 1.403 . S
C932 C931 1.403 . S
C932 C933 1.404 . S
C932 C935 1.539 . S
C933 C929 1.408 . S
C933 C932 1.404 . S
C933 H945 0.930 . S
C934 C930 1.524 . S
C934 H946 0.956 . S
C934 H947 0.961 . S
C934 H948 0.961 . S
C935 C932 1.539 . S
C935 H949 0.958 . S
C935 H950 0.961 . S
C935 H951 0.960 . S
H936 C920 0.931 . S
H937 C925 0.929 . S
H938 C926 0.960 . S
H939 C926 0.962 . S
H940 C926 0.960 . S
H941 C927 0.961 . S
H942 C927 0.961 . S
H943 C927 0.961 . S
H944 C928 0.931 . S
H945 C933 0.930 . S
H946 C934 0.956 . S
H947 C934 0.961 . S
H948 C934 0.961 . S
H949 C935 0.958 . S
H950 C935 0.961 . S
H951 C935 0.960 . S
C952 C953 1.392 1_545 S
C952 C954 1.393 . S
C952 H968 0.930 . S
C953 C952 1.392 1_565 S
C953 C957 1.376 . S
C954 C952 1.393 . S
C954 C955 1.369 . S
C954 C958 1.531 . S
C955 C954 1.369 . S
C955 C956 1.409 1_545 S
C955 C963 1.503 1_545 S
C956 C955 1.409 1_565 S
C956 C957 1.392 . S
C956 C959 1.511 . S
C957 C953 1.376 . S
C957 C956 1.392 . S
C957 H969 0.929 . S
C958 C954 1.531 . S
C958 H970 0.960 . S
C958 H971 0.962 1_545 S
C958 H972 0.960 . S
C959 C956 1.511 . S
C959 H973 0.961 . S
C959 H974 0.961 . S
C959 H975 0.961 1_565 S
C960 C961 1.370 . S
C960 C962 1.363 . S
C960 H976 0.931 . S
C961 C960 1.370 . S
C961 C965 1.408 1_565 S
C962 C960 1.363 . S
C962 C963 1.370 . S
C962 C966 1.524 . S
C963 C955 1.503 1_565 S
C963 C962 1.370 . S
C963 C964 1.403 1_565 S
C964 C963 1.403 1_545 S
C964 C965 1.404 . S
C964 C967 1.539 . S
C965 C961 1.408 1_545 S
C965 C964 1.404 . S
C965 H977 0.930 . S
C966 C962 1.524 . S
C966 H978 0.956 . S
C966 H979 0.961 . S
C966 H980 0.961 . S
C967 C964 1.539 . S
C967 H981 0.958 . S
C967 H982 0.961 . S
C967 H983 0.960 . S
H968 C952 0.930 . S
H969 C957 0.929 . S
H970 C958 0.960 . S
H971 C958 0.962 1_565 S
H972 C958 0.960 . S
H973 C959 0.961 . S
H974 C959 0.961 . S
H975 C959 0.961 1_545 S
H976 C960 0.931 . S
H977 C965 0.930 . S
H978 C966 0.956 . S
H979 C966 0.961 . S
H980 C966 0.961 . S
H981 C967 0.958 . S
H982 C967 0.961 . S
H983 C967 0.960 . S
C984 C985 1.391 . S
C984 C986 1.394 . S
C984 H1000 0.931 . S
C985 C984 1.391 . S
C985 C989 1.376 . S
C986 C984 1.394 . S
C986 C987 1.369 . S
C986 C990 1.531 . S
C987 C986 1.369 . S
C987 C988 1.410 . S
C987 C995 1.503 . S
C988 C987 1.410 . S
C988 C989 1.392 . S
C988 C991 1.511 . S
C989 C985 1.376 . S
C989 C988 1.392 . S
C989 H1001 0.929 . S
C990 C986 1.531 . S
C990 H1002 0.960 . S
C990 H1003 0.962 . S
C990 H1004 0.960 . S
C991 C988 1.511 . S
C991 H1005 0.961 . S
C991 H1006 0.961 . S
C991 H1007 0.961 . S
C992 C993 1.370 . S
C992 C994 1.363 . S
C992 H1008 0.931 . S
C993 C992 1.370 . S
C993 C997 1.408 . S
C994 C992 1.363 . S
C994 C995 1.370 . S
C994 C998 1.524 . S
C995 C987 1.503 . S
C995 C994 1.370 . S
C995 C996 1.403 . S
C996 C995 1.403 . S
C996 C997 1.404 . S
C996 C999 1.539 . S
C997 C993 1.408 . S
C997 C996 1.404 . S
C997 H1009 0.930 . S
C998 C994 1.524 . S
C998 H1010 0.956 . S
C998 H1011 0.961 . S
C998 H1012 0.961 . S
C999 C996 1.539 . S
C999 H1013 0.958 . S
C999 H1014 0.961 . S
C999 H1015 0.960 . S
H1000 C984 0.931 . S
H1001 C989 0.929 . S
H1002 C990 0.960 . S
H1003 C990 0.962 . S
H1004 C990 0.960 . S
H1005 C991 0.961 . S
H1006 C991 0.961 . S
H1007 C991 0.961 . S
H1008 C992 0.931 . S
H1009 C997 0.930 . S
H1010 C998 0.956 . S
H1011 C998 0.961 . S
H1012 C998 0.961 . S
H1013 C999 0.958 . S
H1014 C999 0.961 . S
H1015 C999 0.960 . S
C1016 C1017 1.391 . S
C1016 C1018 1.394 . S
C1016 H1032 0.931 . S
C1017 C1016 1.391 . S
C1017 C1021 1.376 . S
C1018 C1016 1.394 . S
C1018 C1019 1.369 . S
C1018 C1022 1.531 . S
C1019 C1018 1.369 . S
C1019 C1020 1.410 . S
C1019 C1027 1.503 . S
C1020 C1019 1.410 . S
C1020 C1021 1.392 . S
C1020 C1023 1.511 . S
C1021 C1017 1.376 . S
C1021 C1020 1.392 . S
C1021 H1033 0.929 . S
C1022 C1018 1.531 . S
C1022 H1034 0.960 . S
C1022 H1035 0.962 . S
C1022 H1036 0.960 . S
C1023 C1020 1.511 . S
C1023 H1037 0.961 1_545 S
C1023 H1038 0.971 . S
C1023 H1039 0.961 . S
C1024 C1025 1.370 1_565 S
C1024 C1026 1.363 . S
C1024 H1040 0.931 . S
C1025 C1024 1.370 1_545 S
C1025 C1029 1.408 . S
C1026 C1024 1.363 . S
C1026 C1027 1.370 1_565 S
C1026 C1030 1.524 . S
C1027 C1019 1.503 . S
C1027 C1026 1.370 1_545 S
C1027 C1028 1.403 . S
C1028 C1027 1.403 . S
C1028 C1029 1.404 . S
C1028 C1031 1.539 . S
C1029 C1025 1.408 . S
C1029 C1028 1.404 . S
C1029 H1041 0.930 . S
C1030 C1026 1.524 . S
C1030 H1042 0.956 . S
C1030 H1043 0.961 . S
C1030 H1044 0.961 . S
C1031 C1028 1.539 . S
C1031 H1045 0.958 . S
C1031 H1046 0.961 . S
C1031 H1047 0.960 . S
H1032 C1016 0.931 . S
H1033 C1021 0.929 . S
H1034 C1022 0.960 . S
H1035 C1022 0.962 . S
H1036 C1022 0.960 . S
H1037 C1023 0.961 1_565 S
H1038 C1023 0.971 . S
H1039 C1023 0.961 . S
H1040 C1024 0.931 . S
H1041 C1029 0.930 . S
H1042 C1030 0.956 . S
H1043 C1030 0.961 . S
H1044 C1030 0.961 . S
H1045 C1031 0.958 . S
H1046 C1031 0.961 . S
H1047 C1031 0.960 . S
C1048 C1049 1.391 . S
C1048 C1050 1.394 . S
C1048 H1064 0.931 . S
C1049 C1048 1.391 . S
C1049 C1053 1.376 . S
C1050 C1048 1.394 . S
C1050 C1051 1.369 . S
C1050 C1054 1.531 . S
C1051 C1050 1.369 . S
C1051 C1052 1.410 . S
C1051 C1059 1.503 . S
C1052 C1051 1.410 . S
C1052 C1053 1.392 . S
C1052 C1055 1.511 . S
C1053 C1049 1.376 . S
C1053 C1052 1.392 . S
C1053 H1065 0.929 . S
C1054 C1050 1.531 . S
C1054 H1066 0.960 . S
C1054 H1067 0.962 . S
C1054 H1068 0.960 . S
C1055 C1052 1.511 . S
C1055 H1069 0.961 . S
C1055 H1070 0.961 . S
C1055 H1071 0.961 . S
C1056 C1057 1.370 . S
C1056 C1058 1.363 . S
C1056 H1072 0.931 . S
C1057 C1056 1.370 . S
C1057 C1061 1.408 . S
C1058 C1056 1.363 . S
C1058 C1059 1.370 . S
C1058 C1062 1.524 . S
C1059 C1051 1.503 . S
C1059 C1058 1.370 . S
C1059 C1060 1.403 . S
C1060 C1059 1.403 . S
C1060 C1061 1.404 . S
C1060 C1063 1.539 . S
C1061 C1057 1.408 . S
C1061 C1060 1.404 . S
C1061 H1073 0.930 . S
C1062 C1058 1.524 . S
C1062 H1074 0.956 . S
C1062 H1075 0.961 . S
C1062 H1076 0.961 . S
C1063 C1060 1.539 . S
C1063 H1077 0.958 . S
C1063 H1078 0.961 . S
C1063 H1079 0.960 . S
H1064 C1048 0.931 . S
H1065 C1053 0.929 . S
H1066 C1054 0.960 . S
H1067 C1054 0.962 . S
H1068 C1054 0.960 . S
H1069 C1055 0.961 . S
H1070 C1055 0.961 . S
H1071 C1055 0.961 . S
H1072 C1056 0.931 . S
H1073 C1061 0.930 . S
H1074 C1062 0.956 . S
H1075 C1062 0.961 . S
H1076 C1062 0.961 . S
H1077 C1063 0.958 . S
H1078 C1063 0.961 . S
H1079 C1063 0.960 . S
C1080 C1081 1.395 . S
C1080 C1082 1.394 . S
C1080 H1096 0.931 . S
C1081 C1080 1.395 . S
C1081 C1085 1.374 1_556 S
C1082 C1080 1.394 . S
C1082 C1083 1.369 . S
C1082 C1086 1.531 . S
C1083 C1082 1.369 . S
C1083 C1084 1.410 1_556 S
C1083 C1091 1.503 . S
C1084 C1083 1.410 1_554 S
C1084 C1085 1.392 . S
C1084 C1087 1.511 . S
C1085 C1081 1.374 1_554 S
C1085 C1084 1.392 . S
C1085 H1097 0.929 . S
C1086 C1082 1.531 . S
C1086 H1098 0.960 . S
C1086 H1099 0.962 . S
C1086 H1100 0.960 . S
C1087 C1084 1.511 . S
C1087 H1101 0.961 . S
C1087 H1102 0.961 . S
C1087 H1103 0.961 1_554 S
C1088 C1089 1.370 1_554 S
C1088 C1090 1.363 . S
C1088 H1104 0.931 . S
C1089 C1088 1.370 1_556 S
C1089 C1093 1.408 . S
C1090 C1088 1.363 . S
C1090 C1091 1.370 1_554 S
C1090 C1094 1.524 . S
C1091 C1083 1.503 . S
C1091 C1090 1.370 1_556 S
C1091 C1092 1.403 . S
C1092 C1091 1.403 . S
C1092 C1093 1.404 . S
C1092 C1095 1.539 . S
C1093 C1089 1.408 . S
C1093 C1092 1.404 . S
C1093 H1105 0.930 . S
C1094 C1090 1.524 . S
C1094 H1106 0.956 . S
C1094 H1107 0.961 . S
C1094 H1108 0.961 . S
C1095 C1092 1.539 . S
C1095 H1109 0.958 . S
C1095 H1110 0.961 . S
C1095 H1111 0.960 . S
H1096 C1080 0.931 . S
H1097 C1085 0.929 . S
H1098 C1086 0.960 . S
H1099 C1086 0.962 . S
H1100 C1086 0.960 . S
H1101 C1087 0.961 . S
H1102 C1087 0.961 . S
H1103 C1087 0.961 1_556 S
H1104 C1088 0.931 . S
H1105 C1093 0.930 . S
H1106 C1094 0.956 . S
H1107 C1094 0.961 . S
H1108 C1094 0.961 . S
H1109 C1095 0.958 . S
H1110 C1095 0.961 . S
H1111 C1095 0.960 . S
C1112 C1113 1.378 1_556 S
C1112 C1114 1.394 . S
C1112 H1128 0.931 . S
C1113 C1112 1.378 1_554 S
C1113 C1117 1.385 . S
C1114 C1112 1.394 . S
C1114 C1115 1.369 . S
C1114 C1118 1.531 . S
C1115 C1114 1.369 . S
C1115 C1116 1.410 1_556 S
C1115 C1123 1.503 . S
C1116 C1115 1.410 1_554 S
C1116 C1117 1.392 . S
C1116 C1119 1.511 . S
C1117 C1113 1.385 . S
C1117 C1116 1.392 . S
C1117 H1129 0.929 . S
C1118 C1114 1.531 . S
C1118 H1130 0.960 . S
C1118 H1131 0.962 . S
C1118 H1132 0.960 . S
C1119 C1116 1.511 . S
C1119 H1133 0.961 . S
C1119 H1134 0.961 . S
C1119 H1135 0.961 . S
C1120 C1121 1.370 1_554 S
C1120 C1122 1.363 . S
C1120 H1136 0.931 . S
C1121 C1120 1.370 1_556 S
C1121 C1125 1.408 . S
C1122 C1120 1.363 . S
C1122 C1123 1.370 1_554 S
C1122 C1126 1.524 . S
C1123 C1115 1.503 . S
C1123 C1122 1.370 1_556 S
C1123 C1124 1.403 . S
C1124 C1123 1.403 . S
C1124 C1125 1.404 . S
C1124 C1127 1.539 . S
C1125 C1121 1.408 . S
C1125 C1124 1.404 . S
C1125 H1137 0.930 . S
C1126 C1122 1.524 . S
C1126 H1138 0.956 . S
C1126 H1139 0.961 . S
C1126 H1140 0.961 . S
C1127 C1124 1.539 . S
C1127 H1141 0.958 . S
C1127 H1142 0.961 . S
C1127 H1143 0.960 . S
H1128 C1112 0.931 . S
H1129 C1117 0.929 . S
H1130 C1118 0.960 . S
H1131 C1118 0.962 . S
H1132 C1118 0.960 . S
H1133 C1119 0.961 . S
H1134 C1119 0.961 . S
H1135 C1119 0.961 . S
H1136 C1120 0.931 . S
H1137 C1125 0.930 . S
H1138 C1126 0.956 . S
H1139 C1126 0.961 . S
H1140 C1126 0.961 . S
H1141 C1127 0.958 . S
H1142 C1127 0.961 . S
H1143 C1127 0.960 . S
C1144 C1145 1.391 . S
C1144 C1146 1.394 . S
C1144 H1160 0.931 . S
C1145 C1144 1.391 . S
C1145 C1149 1.376 . S
C1146 C1144 1.394 . S
C1146 C1147 1.369 . S
C1146 C1150 1.531 . S
C1147 C1146 1.369 . S
C1147 C1148 1.410 . S
C1147 C1155 1.503 . S
C1148 C1147 1.410 . S
C1148 C1149 1.392 . S
C1148 C1151 1.511 1_554 S
C1149 C1145 1.376 . S
C1149 C1148 1.392 . S
C1149 H1161 0.929 . S
C1150 C1146 1.531 . S
C1150 H1162 0.960 . S
C1150 H1163 0.962 . S
C1150 H1164 0.960 . S
C1151 C1148 1.511 1_556 S
C1151 H1165 0.961 . S
C1151 H1166 0.961 . S
C1151 H1167 0.961 1_556 S
C1152 C1153 1.370 . S
C1152 C1154 1.363 . S
C1152 H1168 0.931 1_554 S
C1153 C1152 1.370 . S
C1153 C1157 1.408 . S
C1154 C1152 1.363 . S
C1154 C1155 1.370 . S
C1154 C1158 1.524 1_554 S
C1155 C1147 1.503 . S
C1155 C1154 1.370 . S
C1155 C1156 1.403 . S
C1156 C1155 1.403 . S
C1156 C1157 1.404 . S
C1156 C1159 1.539 . S
C1157 C1153 1.408 . S
C1157 C1156 1.404 . S
C1157 H1169 0.930 . S
C1158 C1154 1.524 1_556 S
C1158 H1170 0.956 . S
C1158 H1171 0.961 . S
C1158 H1172 0.961 . S
C1159 C1156 1.539 . S
C1159 H1173 0.958 . S
C1159 H1174 0.961 . S
C1159 H1175 0.960 . S
H1160 C1144 0.931 . S
H1161 C1149 0.929 . S
H1162 C1150 0.960 . S
H1163 C1150 0.962 . S
H1164 C1150 0.960 . S
H1165 C1151 0.961 . S
H1166 C1151 0.961 . S
H1167 C1151 0.961 1_554 S
H1168 C1152 0.931 1_556 S
H1169 C1157 0.930 . S
H1170 C1158 0.956 . S
H1171 C1158 0.961 . S
H1172 C1158 0.961 . S
H1173 C1159 0.958 . S
H1174 C1159 0.961 . S
H1175 C1159 0.960 . S
C1176 C1177 1.391 . S
C1176 C1178 1.394 . S
C1176 H1192 0.931 . S
C1177 C1176 1.391 . S
C1177 C1181 1.376 . S
C1178 C1176 1.394 . S
C1178 C1179 1.369 . S
C1178 C1182 1.531 . S
C1179 C1178 1.369 . S
C1179 C1180 1.410 . S
C1179 C1187 1.503 . S
C1180 C1179 1.410 . S
C1180 C1181 1.392 . S
C1180 C1183 1.511 . S
C1181 C1177 1.376 . S
C1181 C1180 1.392 . S
C1181 H1193 0.929 . S
C1182 C1178 1.531 . S
C1182 H1194 0.960 1_455 S
C1182 H1195 0.962 . S
C1182 H1196 0.960 1_455 S
C1183 C1180 1.511 . S
C1183 H1197 0.961 . S
C1183 H1198 0.961 . S
C1183 H1199 0.961 . S
C1184 C1185 1.370 . S
C1184 C1186 1.363 . S
C1184 H1200 0.931 . S
C1185 C1184 1.370 . S
C1185 C1189 1.408 1_455 S
C1186 C1184 1.363 . S
C1186 C1187 1.370 . S
C1186 C1190 1.524 . S
C1187 C1179 1.503 . S
C1187 C1186 1.370 . S
C1187 C1188 1.403 1_455 S
C1188 C1187 1.403 1_655 S
C1188 C1189 1.404 . S
C1188 C1191 1.539 . S
C1189 C1185 1.408 1_655 S
C1189 C1188 1.404 . S
C1189 H1201 0.930 . S
C1190 C1186 1.524 . S
C1190 H1202 0.956 . S
C1190 H1203 0.961 . S
C1190 H1204 0.961 . S
C1191 C1188 1.539 . S
C1191 H1205 0.958 . S
C1191 H1206 0.961 . S
C1191 H1207 0.960 . S
H1192 C1176 0.931 . S
H1193 C1181 0.929 . S
H1194 C1182 0.960 1_655 S
H1195 C1182 0.962 . S
H1196 C1182 0.960 1_655 S
H1197 C1183 0.961 . S
H1198 C1183 0.961 . S
H1199 C1183 0.961 . S
H1200 C1184 0.931 . S
H1201 C1189 0.930 . S
H1202 C1190 0.956 . S
H1203 C1190 0.961 . S
H1204 C1190 0.961 . S
H1205 C1191 0.958 . S
H1206 C1191 0.961 . S
H1207 C1191 0.960 . S
C1208 C1209 1.391 . S
C1208 C1210 1.394 . S
C1208 H1224 0.931 . S
C1209 C1208 1.391 . S
C1209 C1213 1.376 1_455 S
C1210 C1208 1.394 . S
C1210 C1211 1.369 . S
C1210 C1214 1.531 . S
C1211 C1210 1.369 . S
C1211 C1212 1.410 1_455 S
C1211 C1219 1.503 . S
C1212 C1211 1.410 1_655 S
C1212 C1213 1.392 . S
C1212 C1215 1.511 . S
C1213 C1209 1.376 1_655 S
C1213 C1212 1.392 . S
C1213 H1225 0.929 . S
C1214 C1210 1.531 . S
C1214 H1226 0.960 . S
C1214 H1227 0.962 . S
C1214 H1228 0.960 . S
C1215 C1212 1.511 . S
C1215 H1229 0.961 . S
C1215 H1230 0.961 . S
C1215 H1231 0.961 . S
C1216 C1217 1.370 1_455 S
C1216 C1218 1.363 . S
C1216 H1232 0.931 . S
C1217 C1216 1.370 1_655 S
C1217 C1221 1.408 . S
C1218 C1216 1.363 . S
C1218 C1219 1.370 . S
C1218 C1222 1.524 . S
C1219 C1211 1.503 . S
C1219 C1218 1.370 . S
C1219 C1220 1.403 1_455 S
C1220 C1219 1.403 1_655 S
C1220 C1221 1.404 . S
C1220 C1223 1.539 . S
C1221 C1217 1.408 . S
C1221 C1220 1.404 . S
C1221 H1233 0.930 . S
C1222 C1218 1.524 . S
C1222 H1234 0.956 . S
C1222 H1235 0.961 . S
C1222 H1236 0.961 . S
C1223 C1220 1.539 . S
C1223 H1237 0.958 . S
C1223 H1238 0.961 . S
C1223 H1239 0.960 . S
H1224 C1208 0.931 . S
H1225 C1213 0.929 . S
H1226 C1214 0.960 . S
H1227 C1214 0.962 . S
H1228 C1214 0.960 . S
H1229 C1215 0.961 . S
H1230 C1215 0.961 . S
H1231 C1215 0.961 . S
H1232 C1216 0.931 . S
H1233 C1221 0.930 . S
H1234 C1222 0.956 . S
H1235 C1222 0.961 . S
H1236 C1222 0.961 . S
H1237 C1223 0.958 . S
H1238 C1223 0.961 . S
H1239 C1223 0.960 . S
C1240 C1241 1.391 1_655 S
C1240 C1242 1.394 . S
C1240 H1256 0.931 . S
C1241 C1240 1.391 1_455 S
C1241 C1245 1.376 . S
C1242 C1240 1.394 . S
C1242 C1243 1.369 1_655 S
C1242 C1246 1.531 . S
C1243 C1242 1.369 1_455 S
C1243 C1244 1.410 . S
C1243 C1251 1.503 . S
C1244 C1243 1.410 . S
C1244 C1245 1.392 . S
C1244 C1247 1.511 . S
C1245 C1241 1.376 . S
C1245 C1244 1.392 . S
C1245 H1257 0.929 . S
C1246 C1242 1.531 . S
C1246 H1258 0.960 . S
C1246 H1259 0.962 . S
C1246 H1260 0.960 . S
C1247 C1244 1.511 . S
C1247 H1261 0.961 . S
C1247 H1262 0.961 . S
C1247 H1263 0.961 . S
C1248 C1249 1.370 . S
C1248 C1250 1.363 . S
C1248 H1264 0.931 . S
C1249 C1248 1.370 . S
C1249 C1253 1.408 . S
C1250 C1248 1.363 . S
C1250 C1251 1.370 . S
C1250 C1254 1.524 . S
C1251 C1243 1.503 . S
C1251 C1250 1.370 . S
C1251 C1252 1.403 . S
C1252 C1251 1.403 . S
C1252 C1253 1.404 . S
C1252 C1255 1.539 . S
C1253 C1249 1.408 . S
C1253 C1252 1.404 . S
C1253 H1265 0.930 . S
C1254 C1250 1.524 . S
C1254 H1266 0.956 1_455 S
C1254 H1267 0.961 . S
C1254 H1268 0.961 . S
C1255 C1252 1.539 . S
C1255 H1269 0.958 . S
C1255 H1270 0.961 . S
C1255 H1271 0.960 . S
H1256 C1240 0.931 . S
H1257 C1245 0.929 . S
H1258 C1246 0.960 . S
H1259 C1246 0.962 . S
H1260 C1246 0.960 . S
H1261 C1247 0.961 . S
H1262 C1247 0.961 . S
H1263 C1247 0.961 . S
H1264 C1248 0.931 . S
H1265 C1253 0.930 . S
H1266 C1254 0.956 1_655 S
H1267 C1254 0.961 . S
H1268 C1254 0.961 . S
H1269 C1255 0.958 . S
H1270 C1255 0.961 . S
H1271 C1255 0.960 . S
C1272 C1273 1.374 1_655 S
C1272 C1274 1.394 . S
C1272 H1288 0.931 . S
C1273 C1272 1.374 1_455 S
C1273 C1277 1.393 . S
C1274 C1272 1.394 . S
C1274 C1275 1.369 . S
C1274 C1278 1.531 . S
C1275 C1274 1.369 . S
C1275 C1276 1.410 1_655 S
C1275 C1283 1.503 . S
C1276 C1275 1.410 1_455 S
C1276 C1277 1.392 . S
C1276 C1279 1.511 . S
C1277 C1273 1.393 . S
C1277 C1276 1.392 . S
C1277 H1289 0.929 . S
C1278 C1274 1.531 . S
C1278 H1290 0.960 . S
C1278 H1291 0.962 . S
C1278 H1292 0.960 . S
C1279 C1276 1.511 . S
C1279 H1293 0.961 . S
C1279 H1294 0.961 . S
C1279 H1295 0.961 . S
C1280 C1281 1.370 . S
C1280 C1282 1.363 . S
C1280 H1296 0.931 . S
C1281 C1280 1.370 . S
C1281 C1285 1.408 1_655 S
C1282 C1280 1.363 . S
C1282 C1283 1.370 . S
C1282 C1286 1.524 . S
C1283 C1275 1.503 . S
C1283 C1282 1.370 . S
C1283 C1284 1.403 1_655 S
C1284 C1283 1.403 1_455 S
C1284 C1285 1.404 . S
C1284 C1287 1.539 . S
C1285 C1281 1.408 1_455 S
C1285 C1284 1.404 . S
C1285 H1297 0.930 . S
C1286 C1282 1.524 . S
C1286 H1298 0.956 . S
C1286 H1299 0.961 . S
C1286 H1300 0.961 . S
C1287 C1284 1.539 . S
C1287 H1301 0.958 . S
C1287 H1302 0.961 . S
C1287 H1303 0.960 . S
H1288 C1272 0.931 . S
H1289 C1277 0.929 . S
H1290 C1278 0.960 . S
H1291 C1278 0.962 . S
H1292 C1278 0.960 . S
H1293 C1279 0.961 . S
H1294 C1279 0.961 . S
H1295 C1279 0.961 . S
H1296 C1280 0.931 . S
H1297 C1285 0.930 . S
H1298 C1286 0.956 . S
H1299 C1286 0.961 . S
H1300 C1286 0.961 . S
H1301 C1287 0.958 . S
H1302 C1287 0.961 . S
H1303 C1287 0.960 . S
C1304 C1305 1.391 . S
C1304 C1306 1.394 . S
C1304 H1320 0.931 . S
C1305 C1304 1.391 . S
C1305 C1309 1.376 . S
C1306 C1304 1.394 . S
C1306 C1307 1.369 . S
C1306 C1310 1.531 . S
C1307 C1306 1.369 . S
C1307 C1308 1.410 . S
C1307 C1315 1.503 . S
C1308 C1307 1.410 . S
C1308 C1309 1.392 . S
C1308 C1311 1.511 . S
C1309 C1305 1.376 . S
C1309 C1308 1.392 . S
C1309 H1321 0.929 . S
C1310 C1306 1.531 . S
C1310 H1322 0.960 . S
C1310 H1323 0.962 . S
C1310 H1324 0.960 . S
C1311 C1308 1.511 . S
C1311 H1325 0.961 . S
C1311 H1326 0.961 . S
C1311 H1327 0.961 1_545 S
C1312 C1313 1.370 . S
C1312 C1314 1.363 . S
C1312 H1328 0.931 . S
C1313 C1312 1.370 . S
C1313 C1317 1.408 1_545 S
C1314 C1312 1.363 . S
C1314 C1315 1.370 . S
C1314 C1318 1.524 . S
C1315 C1307 1.503 . S
C1315 C1314 1.370 . S
C1315 C1316 1.403 1_545 S
C1316 C1315 1.403 1_565 S
C1316 C1317 1.404 . S
C1316 C1319 1.539 . S
C1317 C1313 1.408 1_565 S
C1317 C1316 1.404 . S
C1317 H1329 0.930 . S
C1318 C1314 1.524 . S
C1318 H1330 0.956 . S
C1318 H1331 0.961 . S
C1318 H1332 0.961 . S
C1319 C1316 1.539 . S
C1319 H1333 0.958 . S
C1319 H1334 0.961 . S
C1319 H1335 0.960 . S
H1320 C1304 0.931 . S
H1321 C1309 0.929 . S
H1322 C1310 0.960 . S
H1323 C1310 0.962 . S
H1324 C1310 0.960 . S
H1325 C1311 0.961 . S
H1326 C1311 0.961 . S
H1327 C1311 0.961 1_565 S
H1328 C1312 0.931 . S
H1329 C1317 0.930 . S
H1330 C1318 0.956 . S
H1331 C1318 0.961 . S
H1332 C1318 0.961 . S
H1333 C1319 0.958 . S
H1334 C1319 0.961 . S
H1335 C1319 0.960 . S
C1336 C1337 1.391 . S
C1336 C1338 1.394 . S
C1336 H1352 0.931 . S
C1337 C1336 1.391 . S
C1337 C1341 1.376 . S
C1338 C1336 1.394 . S
C1338 C1339 1.369 . S
C1338 C1342 1.531 . S
C1339 C1338 1.369 . S
C1339 C1340 1.410 . S
C1339 C1347 1.503 . S
C1340 C1339 1.410 . S
C1340 C1341 1.392 . S
C1340 C1343 1.511 . S
C1341 C1337 1.376 . S
C1341 C1340 1.392 . S
C1341 H1353 0.929 . S
C1342 C1338 1.531 . S
C1342 H1354 0.960 . S
C1342 H1355 0.962 . S
C1342 H1356 0.960 . S
C1343 C1340 1.511 . S
C1343 H1357 0.961 . S
C1343 H1358 0.961 . S
C1343 H1359 0.961 . S
C1344 C1345 1.370 . S
C1344 C1346 1.363 . S
C1344 H1360 0.931 . S
C1345 C1344 1.370 . S
C1345 C1349 1.408 . S
C1346 C1344 1.363 . S
C1346 C1347 1.370 . S
C1346 C1350 1.524 . S
C1347 C1339 1.503 . S
C1347 C1346 1.370 . S
C1347 C1348 1.403 . S
C1348 C1347 1.403 . S
C1348 C1349 1.404 . S
C1348 C1351 1.539 . S
C1349 C1345 1.408 . S
C1349 C1348 1.404 . S
C1349 H1361 0.930 . S
C1350 C1346 1.524 . S
C1350 H1362 0.956 . S
C1350 H1363 0.961 . S
C1350 H1364 0.961 . S
C1351 C1348 1.539 . S
C1351 H1365 0.958 . S
C1351 H1366 0.961 . S
C1351 H1367 0.960 . S
H1352 C1336 0.931 . S
H1353 C1341 0.929 . S
H1354 C1342 0.960 . S
H1355 C1342 0.962 . S
H1356 C1342 0.960 . S
H1357 C1343 0.961 . S
H1358 C1343 0.961 . S
H1359 C1343 0.961 . S
H1360 C1344 0.931 . S
H1361 C1349 0.930 . S
H1362 C1350 0.956 . S
H1363 C1350 0.961 . S
H1364 C1350 0.961 . S
H1365 C1351 0.958 . S
H1366 C1351 0.961 . S
H1367 C1351 0.960 . S
C1368 C1369 1.391 1_545 S
C1368 C1370 1.397 . S
C1368 H1384 0.931 . S
C1369 C1368 1.391 1_565 S
C1369 C1373 1.376 . S
C1370 C1368 1.397 . S
C1370 C1371 1.356 1_545 S
C1370 C1374 1.540 . S
C1371 C1370 1.356 1_565 S
C1371 C1372 1.410 . S
C1371 C1379 1.503 . S
C1372 C1371 1.410 . S
C1372 C1373 1.392 . S
C1372 C1375 1.511 . S
C1373 C1369 1.376 . S
C1373 C1372 1.392 . S
C1373 H1385 0.929 . S
C1374 C1370 1.540 . S
C1374 H1386 0.960 . S
C1374 H1387 0.962 . S
C1374 H1388 0.960 . S
C1375 C1372 1.511 . S
C1375 H1389 0.961 . S
C1375 H1390 0.961 . S
C1375 H1391 0.961 . S
C1376 C1377 1.370 . S
C1376 C1378 1.363 . S
C1376 H1392 0.931 . S
C1377 C1376 1.370 . S
C1377 C1381 1.408 . S
C1378 C1376 1.363 . S
C1378 C1379 1.370 . S
C1378 C1382 1.524 . S
C1379 C1371 1.503 . S
C1379 C1378 1.370 . S
C1379 C1380 1.403 . S
C1380 C1379 1.403 . S
C1380 C1381 1.404 . S
C1380 C1383 1.539 1_565 S
C1381 C1377 1.408 . S
C1381 C1380 1.404 . S
C1381 H1393 0.930 . S
C1382 C1378 1.524 . S
C1382 H1394 0.956 . S
C1382 H1395 0.961 . S
C1382 H1396 0.961 . S
C1383 C1380 1.539 1_545 S
C1383 H1397 0.958 . S
C1383 H1398 0.961 . S
C1383 H1399 0.960 . S
H1384 C1368 0.931 . S
H1385 C1373 0.929 . S
H1386 C1374 0.960 . S
H1387 C1374 0.962 . S
H1388 C1374 0.960 . S
H1389 C1375 0.961 . S
H1390 C1375 0.961 . S
H1391 C1375 0.961 . S
H1392 C1376 0.931 . S
H1393 C1381 0.930 . S
H1394 C1382 0.956 . S
H1395 C1382 0.961 . S
H1396 C1382 0.961 . S
H1397 C1383 0.958 . S
H1398 C1383 0.961 . S
H1399 C1383 0.960 . S
C1400 C1401 1.391 . S
C1400 C1402 1.394 . S
C1400 H1416 0.931 . S
C1401 C1400 1.391 . S
C1401 C1405 1.376 . S
C1402 C1400 1.394 . S
C1402 C1403 1.369 . S
C1402 C1406 1.531 . S
C1403 C1402 1.369 . S
C1403 C1404 1.410 . S
C1403 C1411 1.503 . S
C1404 C1403 1.410 . S
C1404 C1405 1.392 . S
C1404 C1407 1.511 . S
C1405 C1401 1.376 . S
C1405 C1404 1.392 . S
C1405 H1417 0.929 . S
C1406 C1402 1.531 . S
C1406 H1418 0.960 . S
C1406 H1419 0.962 . S
C1406 H1420 0.960 . S
C1407 C1404 1.511 . S
C1407 H1421 0.961 . S
C1407 H1422 0.961 . S
C1407 H1423 0.961 . S
C1408 C1409 1.370 . S
C1408 C1410 1.363 . S
C1408 H1424 0.931 . S
C1409 C1408 1.370 . S
C1409 C1413 1.408 . S
C1410 C1408 1.363 . S
C1410 C1411 1.370 . S
C1410 C1414 1.524 . S
C1411 C1403 1.503 . S
C1411 C1410 1.370 . S
C1411 C1412 1.403 . S
C1412 C1411 1.403 . S
C1412 C1413 1.404 . S
C1412 C1415 1.539 . S
C1413 C1409 1.408 . S
C1413 C1412 1.404 . S
C1413 H1425 0.930 . S
C1414 C1410 1.524 . S
C1414 H1426 0.956 . S
C1414 H1427 0.961 . S
C1414 H1428 0.961 . S
C1415 C1412 1.539 . S
C1415 H1429 0.958 . S
C1415 H1430 0.961 . S
C1415 H1431 0.960 . S
H1416 C1400 0.931 . S
H1417 C1405 0.929 . S
H1418 C1406 0.960 . S
H1419 C1406 0.962 . S
H1420 C1406 0.960 . S
H1421 C1407 0.961 . S
H1422 C1407 0.961 . S
H1423 C1407 0.961 . S
H1424 C1408 0.931 . S
H1425 C1413 0.930 . S
H1426 C1414 0.956 . S
H1427 C1414 0.961 . S
H1428 C1414 0.961 . S
H1429 C1415 0.958 . S
H1430 C1415 0.961 . S
H1431 C1415 0.960 . S
C1432 C1433 1.391 . S
C1432 C1434 1.394 . S
C1432 H1448 0.931 . S
C1433 C1432 1.391 . S
C1433 C1437 1.376 . S
C1434 C1432 1.394 . S
C1434 C1435 1.369 . S
C1434 C1438 1.531 . S
C1435 C1434 1.369 . S
C1435 C1436 1.410 . S
C1435 C1443 1.503 . S
C1436 C1435 1.410 . S
C1436 C1437 1.392 . S
C1436 C1439 1.511 . S
C1437 C1433 1.376 . S
C1437 C1436 1.392 . S
C1437 H1449 0.929 . S
C1438 C1434 1.531 . S
C1438 H1450 0.960 . S
C1438 H1451 0.962 . S
C1438 H1452 0.960 . S
C1439 C1436 1.511 . S
C1439 H1453 0.961 . S
C1439 H1454 0.961 . S
C1439 H1455 0.961 . S
C1440 C1441 1.370 1_556 S
C1440 C1442 1.363 . S
C1440 H1456 0.931 . S
C1441 C1440 1.370 1_554 S
C1441 C1445 1.408 . S
C1442 C1440 1.363 . S
C1442 C1443 1.370 1_556 S
C1442 C1446 1.524 . S
C1443 C1435 1.503 . S
C1443 C1442 1.370 1_554 S
C1443 C1444 1.403 . S
C1444 C1443 1.403 . S
C1444 C1445 1.404 . S
C1444 C1447 1.539 . S
C1445 C1441 1.408 . S
C1445 C1444 1.404 . S
C1445 H1457 0.930 . S
C1446 C1442 1.524 . S
C1446 H1458 0.956 . S
C1446 H1459 0.961 . S
C1446 H1460 0.961 . S
C1447 C1444 1.539 . S
C1447 H1461 0.958 . S
C1447 H1462 0.961 . S
C1447 H1463 0.960 . S
H1448 C1432 0.931 . S
H1449 C1437 0.929 . S
H1450 C1438 0.960 . S
H1451 C1438 0.962 . S
H1452 C1438 0.960 . S
H1453 C1439 0.961 . S
H1454 C1439 0.961 . S
H1455 C1439 0.961 . S
H1456 C1440 0.931 . S
H1457 C1445 0.930 . S
H1458 C1446 0.956 . S
H1459 C1446 0.961 . S
H1460 C1446 0.961 . S
H1461 C1447 0.958 . S
H1462 C1447 0.961 . S
H1463 C1447 0.960 . S
C1464 C1465 1.391 . S
C1464 C1466 1.394 . S
C1464 H1480 0.931 . S
C1465 C1464 1.391 . S
C1465 C1469 1.376 . S
C1466 C1464 1.394 . S
C1466 C1467 1.369 . S
C1466 C1470 1.531 . S
C1467 C1466 1.369 . S
C1467 C1468 1.410 . S
C1467 C1475 1.503 . S
C1468 C1467 1.410 . S
C1468 C1469 1.392 . S
C1468 C1471 1.511 . S
C1469 C1465 1.376 . S
C1469 C1468 1.392 . S
C1469 H1481 0.929 . S
C1470 C1466 1.531 . S
C1470 H1482 0.960 . S
C1470 H1483 0.962 . S
C1470 H1484 0.960 . S
C1471 C1468 1.511 . S
C1471 H1485 0.961 . S
C1471 H1486 0.961 . S
C1471 H1487 0.961 . S
C1472 C1473 1.370 . S
C1472 C1474 1.363 . S
C1472 H1488 0.931 . S
C1473 C1472 1.370 . S
C1473 C1477 1.408 . S
C1474 C1472 1.363 . S
C1474 C1475 1.370 . S
C1474 C1478 1.524 . S
C1475 C1467 1.503 . S
C1475 C1474 1.370 . S
C1475 C1476 1.403 . S
C1476 C1475 1.403 . S
C1476 C1477 1.404 . S
C1476 C1479 1.539 . S
C1477 C1473 1.408 . S
C1477 C1476 1.404 . S
C1477 H1489 0.930 . S
C1478 C1474 1.524 . S
C1478 H1490 0.956 . S
C1478 H1491 0.961 . S
C1478 H1492 0.961 . S
C1479 C1476 1.539 . S
C1479 H1493 0.958 . S
C1479 H1494 0.961 . S
C1479 H1495 0.960 . S
H1480 C1464 0.931 . S
H1481 C1469 0.929 . S
H1482 C1470 0.960 . S
H1483 C1470 0.962 . S
H1484 C1470 0.960 . S
H1485 C1471 0.961 . S
H1486 C1471 0.961 . S
H1487 C1471 0.961 . S
H1488 C1472 0.931 . S
H1489 C1477 0.930 . S
H1490 C1478 0.956 . S
H1491 C1478 0.961 . S
H1492 C1478 0.961 . S
H1493 C1479 0.958 . S
H1494 C1479 0.961 . S
H1495 C1479 0.960 . S
C1496 C1497 1.391 . S
C1496 C1498 1.394 . S
C1496 H1512 0.931 . S
C1497 C1496 1.391 . S
C1497 C1501 1.376 . S
C1498 C1496 1.394 . S
C1498 C1499 1.369 . S
C1498 C1502 1.531 . S
C1499 C1498 1.369 . S
C1499 C1500 1.410 . S
C1499 C1507 1.503 . S
C1500 C1499 1.410 . S
C1500 C1501 1.392 . S
C1500 C1503 1.511 . S
C1501 C1497 1.376 . S
C1501 C1500 1.392 . S
C1501 H1513 0.929 . S
C1502 C1498 1.531 . S
C1502 H1514 0.960 . S
C1502 H1515 0.962 . S
C1502 H1516 0.960 . S
C1503 C1500 1.511 . S
C1503 H1517 0.961 . S
C1503 H1518 0.961 . S
C1503 H1519 0.961 . S
C1504 C1505 1.370 . S
C1504 C1506 1.363 . S
C1504 H1520 0.931 . S
C1505 C1504 1.370 . S
C1505 C1509 1.408 . S
C1506 C1504 1.363 . S
C1506 C1507 1.370 . S
C1506 C1510 1.524 . S
C1507 C1499 1.503 . S
C1507 C1506 1.370 . S
C1507 C1508 1.403 . S
C1508 C1507 1.403 . S
C1508 C1509 1.404 . S
C1508 C1511 1.539 . S
C1509 C1505 1.408 . S
C1509 C1508 1.404 . S
C1509 H1521 0.930 . S
C1510 C1506 1.524 . S
C1510 H1522 0.956 . S
C1510 H1523 0.961 . S
C1510 H1524 0.961 . S
C1511 C1508 1.539 . S
C1511 H1525 0.958 . S
C1511 H1526 0.961 . S
C1511 H1527 0.960 . S
H1512 C1496 0.931 . S
H1513 C1501 0.929 . S
H1514 C1502 0.960 . S
H1515 C1502 0.962 . S
H1516 C1502 0.960 . S
H1517 C1503 0.961 . S
H1518 C1503 0.961 . S
H1519 C1503 0.961 . S
H1520 C1504 0.931 . S
H1521 C1509 0.930 . S
H1522 C1510 0.956 . S
H1523 C1510 0.961 . S
H1524 C1510 0.961 . S
H1525 C1511 0.958 . S
H1526 C1511 0.961 . S
H1527 C1511 0.960 . S
C1528 C1529 1.391 . S
C1528 C1530 1.394 . S
C1528 H1544 0.931 . S
C1529 C1528 1.391 . S
C1529 C1533 1.376 . S
C1530 C1528 1.394 . S
C1530 C1531 1.369 . S
C1530 C1534 1.531 . S
C1531 C1530 1.369 . S
C1531 C1532 1.410 . S
C1531 C1539 1.503 . S
C1532 C1531 1.410 . S
C1532 C1533 1.392 . S
C1532 C1535 1.511 . S
C1533 C1529 1.376 . S
C1533 C1532 1.392 . S
C1533 H1545 0.929 . S
C1534 C1530 1.531 . S
C1534 H1546 0.960 . S
C1534 H1547 0.962 . S
C1534 H1548 0.960 . S
C1535 C1532 1.511 . S
C1535 H1549 0.961 . S
C1535 H1550 0.961 . S
C1535 H1551 0.961 . S
C1536 C1537 1.370 . S
C1536 C1538 1.363 . S
C1536 H1552 0.931 . S
C1537 C1536 1.370 . S
C1537 C1541 1.408 . S
C1538 C1536 1.363 . S
C1538 C1539 1.370 . S
C1538 C1542 1.524 . S
C1539 C1531 1.503 . S
C1539 C1538 1.370 . S
C1539 C1540 1.403 . S
C1540 C1539 1.403 . S
C1540 C1541 1.404 . S
C1540 C1543 1.539 . S
C1541 C1537 1.408 . S
C1541 C1540 1.404 . S
C1541 H1553 0.930 . S
C1542 C1538 1.524 . S
C1542 H1554 0.956 . S
C1542 H1555 0.961 . S
C1542 H1556 0.961 . S
C1543 C1540 1.539 . S
C1543 H1557 0.958 . S
C1543 H1558 0.961 . S
C1543 H1559 0.960 . S
H1544 C1528 0.931 . S
H1545 C1533 0.929 . S
H1546 C1534 0.960 . S
H1547 C1534 0.962 . S
H1548 C1534 0.960 . S
H1549 C1535 0.961 . S
H1550 C1535 0.961 . S
H1551 C1535 0.961 . S
H1552 C1536 0.931 . S
H1553 C1541 0.930 . S
H1554 C1542 0.956 . S
H1555 C1542 0.961 . S
H1556 C1542 0.961 . S
H1557 C1543 0.958 . S
H1558 C1543 0.961 . S
H1559 C1543 0.960 . S
C1560 C1561 1.391 . S
C1560 C1562 1.394 . S
C1560 H1576 0.931 . S
C1561 C1560 1.391 . S
C1561 C1565 1.376 . S
C1562 C1560 1.394 . S
C1562 C1563 1.369 . S
C1562 C1566 1.531 . S
C1563 C1562 1.369 . S
C1563 C1564 1.410 . S
C1563 C1571 1.503 . S
C1564 C1563 1.410 . S
C1564 C1565 1.392 . S
C1564 C1567 1.511 . S
C1565 C1561 1.376 . S
C1565 C1564 1.392 . S
C1565 H1577 0.929 . S
C1566 C1562 1.531 . S
C1566 H1578 0.960 . S
C1566 H1579 0.962 . S
C1566 H1580 0.960 . S
C1567 C1564 1.511 . S
C1567 H1581 0.961 . S
C1567 H1582 0.961 . S
C1567 H1583 0.961 . S
C1568 C1569 1.370 . S
C1568 C1570 1.363 . S
C1568 H1584 0.931 . S
C1569 C1568 1.370 . S
C1569 C1573 1.408 . S
C1570 C1568 1.363 . S
C1570 C1571 1.370 . S
C1570 C1574 1.524 . S
C1571 C1563 1.503 . S
C1571 C1570 1.370 . S
C1571 C1572 1.403 . S
C1572 C1571 1.403 . S
C1572 C1573 1.404 . S
C1572 C1575 1.539 . S
C1573 C1569 1.408 . S
C1573 C1572 1.404 . S
C1573 H1585 0.930 . S
C1574 C1570 1.524 . S
C1574 H1586 0.956 . S
C1574 H1587 0.961 . S
C1574 H1588 0.961 . S
C1575 C1572 1.539 . S
C1575 H1589 0.958 . S
C1575 H1590 0.961 . S
C1575 H1591 0.960 . S
H1576 C1560 0.931 . S
H1577 C1565 0.929 . S
H1578 C1566 0.960 . S
H1579 C1566 0.962 . S
H1580 C1566 0.960 . S
H1581 C1567 0.961 . S
H1582 C1567 0.961 . S
H1583 C1567 0.961 . S
H1584 C1568 0.931 . S
H1585 C1573 0.930 . S
H1586 C1574 0.956 . S
H1587 C1574 0.961 . S
H1588 C1574 0.961 . S
H1589 C1575 0.958 . S
H1590 C1575 0.961 . S
H1591 C1575 0.960 . S
C1592 C1593 1.391 . S
C1592 C1594 1.394 . S
C1592 H1608 0.931 . S
C1593 C1592 1.391 . S
C1593 C1597 1.376 . S
C1594 C1592 1.394 . S
C1594 C1595 1.369 . S
C1594 C1598 1.531 . S
C1595 C1594 1.369 . S
C1595 C1596 1.410 . S
C1595 C1603 1.503 . S
C1596 C1595 1.410 . S
C1596 C1597 1.392 . S
C1596 C1599 1.511 . S
C1597 C1593 1.376 . S
C1597 C1596 1.392 . S
C1597 H1609 0.929 . S
C1598 C1594 1.531 . S
C1598 H1610 0.960 . S
C1598 H1611 0.962 . S
C1598 H1612 0.960 . S
C1599 C1596 1.511 . S
C1599 H1613 0.961 . S
C1599 H1614 0.961 . S
C1599 H1615 0.961 . S
C1600 C1601 1.370 . S
C1600 C1602 1.363 . S
C1600 H1616 0.931 . S
C1601 C1600 1.370 . S
C1601 C1605 1.408 . S
C1602 C1600 1.363 . S
C1602 C1603 1.370 . S
C1602 C1606 1.524 . S
C1603 C1595 1.503 . S
C1603 C1602 1.370 . S
C1603 C1604 1.403 . S
C1604 C1603 1.403 . S
C1604 C1605 1.404 . S
C1604 C1607 1.539 . S
C1605 C1601 1.408 . S
C1605 C1604 1.404 . S
C1605 H1617 0.930 . S
C1606 C1602 1.524 . S
C1606 H1618 0.956 . S
C1606 H1619 0.961 . S
C1606 H1620 0.961 . S
C1607 C1604 1.539 . S
C1607 H1621 0.958 . S
C1607 H1622 0.961 . S
C1607 H1623 0.960 . S
H1608 C1592 0.931 . S
H1609 C1597 0.929 . S
H1610 C1598 0.960 . S
H1611 C1598 0.962 . S
H1612 C1598 0.960 . S
H1613 C1599 0.961 . S
H1614 C1599 0.961 . S
H1615 C1599 0.961 . S
H1616 C1600 0.931 . S
H1617 C1605 0.930 . S
H1618 C1606 0.956 . S
H1619 C1606 0.961 . S
H1620 C1606 0.961 . S
H1621 C1607 0.958 . S
H1622 C1607 0.961 . S
H1623 C1607 0.960 . S
C1624 C1625 1.391 . S
C1624 C1626 1.394 . S
C1624 H1640 0.931 . S
C1625 C1624 1.391 . S
C1625 C1629 1.376 . S
C1626 C1624 1.394 . S
C1626 C1627 1.369 . S
C1626 C1630 1.531 . S
C1627 C1626 1.369 . S
C1627 C1628 1.410 . S
C1627 C1635 1.503 . S
C1628 C1627 1.410 . S
C1628 C1629 1.392 . S
C1628 C1631 1.511 . S
C1629 C1625 1.376 . S
C1629 C1628 1.392 . S
C1629 H1641 0.929 . S
C1630 C1626 1.531 . S
C1630 H1642 0.960 . S
C1630 H1643 0.962 . S
C1630 H1644 0.960 . S
C1631 C1628 1.511 . S
C1631 H1645 0.961 . S
C1631 H1646 0.961 . S
C1631 H1647 0.961 . S
C1632 C1633 1.370 . S
C1632 C1634 1.363 . S
C1632 H1648 0.931 . S
C1633 C1632 1.370 . S
C1633 C1637 1.408 . S
C1634 C1632 1.363 . S
C1634 C1635 1.370 . S
C1634 C1638 1.524 . S
C1635 C1627 1.503 . S
C1635 C1634 1.370 . S
C1635 C1636 1.403 . S
C1636 C1635 1.403 . S
C1636 C1637 1.404 . S
C1636 C1639 1.539 . S
C1637 C1633 1.408 . S
C1637 C1636 1.404 . S
C1637 H1649 0.930 . S
C1638 C1634 1.524 . S
C1638 H1650 0.956 . S
C1638 H1651 0.961 . S
C1638 H1652 0.961 . S
C1639 C1636 1.539 . S
C1639 H1653 0.958 . S
C1639 H1654 0.961 . S
C1639 H1655 0.960 . S
H1640 C1624 0.931 . S
H1641 C1629 0.929 . S
H1642 C1630 0.960 . S
H1643 C1630 0.962 . S
H1644 C1630 0.960 . S
H1645 C1631 0.961 . S
H1646 C1631 0.961 . S
H1647 C1631 0.961 . S
H1648 C1632 0.931 . S
H1649 C1637 0.930 . S
H1650 C1638 0.956 . S
H1651 C1638 0.961 . S
H1652 C1638 0.961 . S
H1653 C1639 0.958 . S
H1654 C1639 0.961 . S
H1655 C1639 0.960 . S
C1656 C1657 1.391 . S
C1656 C1658 1.394 . S
C1656 H1672 0.931 . S
C1657 C1656 1.391 . S
C1657 C1661 1.376 . S
C1658 C1656 1.394 . S
C1658 C1659 1.369 . S
C1658 C1662 1.531 . S
C1659 C1658 1.369 . S
C1659 C1660 1.410 . S
C1659 C1667 1.503 . S
C1660 C1659 1.410 . S
C1660 C1661 1.392 . S
C1660 C1663 1.511 . S
C1661 C1657 1.376 . S
C1661 C1660 1.392 . S
C1661 H1673 0.929 . S
C1662 C1658 1.531 . S
C1662 H1674 0.960 . S
C1662 H1675 0.962 . S
C1662 H1676 0.960 . S
C1663 C1660 1.511 . S
C1663 H1677 0.961 . S
C1663 H1678 0.961 . S
C1663 H1679 0.961 . S
C1664 C1665 1.370 . S
C1664 C1666 1.363 . S
C1664 H1680 0.931 . S
C1665 C1664 1.370 . S
C1665 C1669 1.408 . S
C1666 C1664 1.363 . S
C1666 C1667 1.370 . S
C1666 C1670 1.524 . S
C1667 C1659 1.503 . S
C1667 C1666 1.370 . S
C1667 C1668 1.403 . S
C1668 C1667 1.403 . S
C1668 C1669 1.404 . S
C1668 C1671 1.539 . S
C1669 C1665 1.408 . S
C1669 C1668 1.404 . S
C1669 H1681 0.930 . S
C1670 C1666 1.524 . S
C1670 H1682 0.956 . S
C1670 H1683 0.961 . S
C1670 H1684 0.961 . S
C1671 C1668 1.539 . S
C1671 H1685 0.958 . S
C1671 H1686 0.961 . S
C1671 H1687 0.960 . S
H1672 C1656 0.931 . S
H1673 C1661 0.929 . S
H1674 C1662 0.960 . S
H1675 C1662 0.962 . S
H1676 C1662 0.960 . S
H1677 C1663 0.961 . S
H1678 C1663 0.961 . S
H1679 C1663 0.961 . S
H1680 C1664 0.931 . S
H1681 C1669 0.930 . S
H1682 C1670 0.956 . S
H1683 C1670 0.961 . S
H1684 C1670 0.961 . S
H1685 C1671 0.958 . S
H1686 C1671 0.961 . S
H1687 C1671 0.960 . S
C1688 C1689 1.391 . S
C1688 C1690 1.394 . S
C1688 H1704 0.931 . S
C1689 C1688 1.391 . S
C1689 C1693 1.376 . S
C1690 C1688 1.394 . S
C1690 C1691 1.369 . S
C1690 C1694 1.531 . S
C1691 C1690 1.369 . S
C1691 C1692 1.410 . S
C1691 C1699 1.503 . S
C1692 C1691 1.410 . S
C1692 C1693 1.392 . S
C1692 C1695 1.511 . S
C1693 C1689 1.376 . S
C1693 C1692 1.392 . S
C1693 H1705 0.929 . S
C1694 C1690 1.531 . S
C1694 H1706 0.960 . S
C1694 H1707 0.962 . S
C1694 H1708 0.960 . S
C1695 C1692 1.511 . S
C1695 H1709 0.961 . S
C1695 H1710 0.961 . S
C1695 H1711 0.961 . S
C1696 C1697 1.370 . S
C1696 C1698 1.363 . S
C1696 H1712 0.931 . S
C1697 C1696 1.370 . S
C1697 C1701 1.408 . S
C1698 C1696 1.363 . S
C1698 C1699 1.370 . S
C1698 C1702 1.524 . S
C1699 C1691 1.503 . S
C1699 C1698 1.370 . S
C1699 C1700 1.403 . S
C1700 C1699 1.403 . S
C1700 C1701 1.404 . S
C1700 C1703 1.539 . S
C1701 C1697 1.408 . S
C1701 C1700 1.404 . S
C1701 H1713 0.930 . S
C1702 C1698 1.524 . S
C1702 H1714 0.956 . S
C1702 H1715 0.961 . S
C1702 H1716 0.961 . S
C1703 C1700 1.539 . S
C1703 H1717 0.958 . S
C1703 H1718 0.961 . S
C1703 H1719 0.960 . S
H1704 C1688 0.931 . S
H1705 C1693 0.929 . S
H1706 C1694 0.960 . S
H1707 C1694 0.962 . S
H1708 C1694 0.960 . S
H1709 C1695 0.961 . S
H1710 C1695 0.961 . S
H1711 C1695 0.961 . S
H1712 C1696 0.931 . S
H1713 C1701 0.930 . S
H1714 C1702 0.956 . S
H1715 C1702 0.961 . S
H1716 C1702 0.961 . S
H1717 C1703 0.958 . S
H1718 C1703 0.961 . S
H1719 C1703 0.960 . S
C1720 C1721 1.391 1_545 S
C1720 C1722 1.394 . S
C1720 H1736 0.931 . S
C1721 C1720 1.391 1_565 S
C1721 C1725 1.376 . S
C1722 C1720 1.394 . S
C1722 C1723 1.369 1_545 S
C1722 C1726 1.531 . S
C1723 C1722 1.369 1_565 S
C1723 C1724 1.410 . S
C1723 C1731 1.503 . S
C1724 C1723 1.410 . S
C1724 C1725 1.392 . S
C1724 C1727 1.511 . S
C1725 C1721 1.376 . S
C1725 C1724 1.392 . S
C1725 H1737 0.929 . S
C1726 C1722 1.531 . S
C1726 H1738 0.960 . S
C1726 H1739 0.962 . S
C1726 H1740 0.960 . S
C1727 C1724 1.511 . S
C1727 H1741 0.961 . S
C1727 H1742 0.961 . S
C1727 H1743 0.961 . S
C1728 C1729 1.370 . S
C1728 C1730 1.363 . S
C1728 H1744 0.931 . S
C1729 C1728 1.370 . S
C1729 C1733 1.408 . S
C1730 C1728 1.363 . S
C1730 C1731 1.370 . S
C1730 C1734 1.524 . S
C1731 C1723 1.503 . S
C1731 C1730 1.370 . S
C1731 C1732 1.403 . S
C1732 C1731 1.403 . S
C1732 C1733 1.404 . S
C1732 C1735 1.539 . S
C1733 C1729 1.408 . S
C1733 C1732 1.404 . S
C1733 H1745 0.930 . S
C1734 C1730 1.524 . S
C1734 H1746 0.956 . S
C1734 H1747 0.961 . S
C1734 H1748 0.961 . S
C1735 C1732 1.539 . S
C1735 H1749 0.958 . S
C1735 H1750 0.961 . S
C1735 H1751 0.960 . S
H1736 C1720 0.931 . S
H1737 C1725 0.929 . S
H1738 C1726 0.960 . S
H1739 C1726 0.962 . S
H1740 C1726 0.960 . S
H1741 C1727 0.961 . S
H1742 C1727 0.961 . S
H1743 C1727 0.961 . S
H1744 C1728 0.931 . S
H1745 C1733 0.930 . S
H1746 C1734 0.956 . S
H1747 C1734 0.961 . S
H1748 C1734 0.961 . S
H1749 C1735 0.958 . S
H1750 C1735 0.961 . S
H1751 C1735 0.960 . S
C1752 C1753 1.391 . S
C1752 C1754 1.394 . S
C1752 H1768 0.931 . S
C1753 C1752 1.391 . S
C1753 C1757 1.376 . S
C1754 C1752 1.394 . S
C1754 C1755 1.369 . S
C1754 C1758 1.531 . S
C1755 C1754 1.369 . S
C1755 C1756 1.410 . S
C1755 C1763 1.503 . S
C1756 C1755 1.410 . S
C1756 C1757 1.392 . S
C1756 C1759 1.511 . S
C1757 C1753 1.376 . S
C1757 C1756 1.392 . S
C1757 H1769 0.929 . S
C1758 C1754 1.531 . S
C1758 H1770 0.960 . S
C1758 H1771 0.962 . S
C1758 H1772 0.960 . S
C1759 C1756 1.511 . S
C1759 H1773 0.961 . S
C1759 H1774 0.961 . S
C1759 H1775 0.961 . S
C1760 C1761 1.370 . S
C1760 C1762 1.363 . S
C1760 H1776 0.931 . S
C1761 C1760 1.370 . S
C1761 C1765 1.408 . S
C1762 C1760 1.363 . S
C1762 C1763 1.370 . S
C1762 C1766 1.524 . S
C1763 C1755 1.503 . S
C1763 C1762 1.370 . S
C1763 C1764 1.403 . S
C1764 C1763 1.403 . S
C1764 C1765 1.404 . S
C1764 C1767 1.539 . S
C1765 C1761 1.408 . S
C1765 C1764 1.404 . S
C1765 H1777 0.930 . S
C1766 C1762 1.524 . S
C1766 H1778 0.956 . S
C1766 H1779 0.961 . S
C1766 H1780 0.961 . S
C1767 C1764 1.539 . S
C1767 H1781 0.958 . S
C1767 H1782 0.961 . S
C1767 H1783 0.960 . S
H1768 C1752 0.931 . S
H1769 C1757 0.929 . S
H1770 C1758 0.960 . S
H1771 C1758 0.962 . S
H1772 C1758 0.960 . S
H1773 C1759 0.961 . S
H1774 C1759 0.961 . S
H1775 C1759 0.961 . S
H1776 C1760 0.931 . S
H1777 C1765 0.930 . S
H1778 C1766 0.956 . S
H1779 C1766 0.961 . S
H1780 C1766 0.961 . S
H1781 C1767 0.958 . S
H1782 C1767 0.961 . S
H1783 C1767 0.960 . S
C1784 C1785 1.391 . S
C1784 C1786 1.394 . S
C1784 H1800 0.931 . S
C1785 C1784 1.391 . S
C1785 C1789 1.376 . S
C1786 C1784 1.394 . S
C1786 C1787 1.369 . S
C1786 C1790 1.531 . S
C1787 C1786 1.369 . S
C1787 C1788 1.410 . S
C1787 C1795 1.503 . S
C1788 C1787 1.410 . S
C1788 C1789 1.392 . S
C1788 C1791 1.511 1_545 S
C1789 C1785 1.376 . S
C1789 C1788 1.392 . S
C1789 H1801 0.937 . S
C1790 C1786 1.531 . S
C1790 H1802 0.960 . S
C1790 H1803 0.962 . S
C1790 H1804 0.960 . S
C1791 C1788 1.511 1_565 S
C1791 H1805 0.966 . S
C1791 H1806 0.961 1_565 S
C1791 H1807 0.961 . S
C1792 C1793 1.370 . S
C1792 C1794 1.363 . S
C1792 H1808 0.931 . S
C1793 C1792 1.370 . S
C1793 C1797 1.408 1_545 S
C1794 C1792 1.363 . S
C1794 C1795 1.370 . S
C1794 C1798 1.524 . S
C1795 C1787 1.503 . S
C1795 C1794 1.370 . S
C1795 C1796 1.403 1_545 S
C1796 C1795 1.403 1_565 S
C1796 C1797 1.404 . S
C1796 C1799 1.539 . S
C1797 C1793 1.408 1_565 S
C1797 C1796 1.404 . S
C1797 H1809 0.930 . S
C1798 C1794 1.524 . S
C1798 H1810 0.956 . S
C1798 H1811 0.961 . S
C1798 H1812 0.961 . S
C1799 C1796 1.539 . S
C1799 H1813 0.958 . S
C1799 H1814 0.961 . S
C1799 H1815 0.960 . S
H1800 C1784 0.931 . S
H1801 C1789 0.937 . S
H1802 C1790 0.960 . S
H1803 C1790 0.962 . S
H1804 C1790 0.960 . S
H1805 C1791 0.966 . S
H1806 C1791 0.961 1_545 S
H1807 C1791 0.961 . S
H1808 C1792 0.931 . S
H1809 C1797 0.930 . S
H1810 C1798 0.956 . S
H1811 C1798 0.961 . S
H1812 C1798 0.961 . S
H1813 C1799 0.958 . S
H1814 C1799 0.961 . S
H1815 C1799 0.960 . S
C1816 C1817 1.391 . S
C1816 C1818 1.394 . S
C1816 H1832 0.931 . S
C1817 C1816 1.391 . S
C1817 C1821 1.376 . S
C1818 C1816 1.394 . S
C1818 C1819 1.369 . S
C1818 C1822 1.531 . S
C1819 C1818 1.369 . S
C1819 C1820 1.410 . S
C1819 C1827 1.503 . S
C1820 C1819 1.410 . S
C1820 C1821 1.392 . S
C1820 C1823 1.511 . S
C1821 C1817 1.376 . S
C1821 C1820 1.392 . S
C1821 H1833 0.929 . S
C1822 C1818 1.531 . S
C1822 H1834 0.960 . S
C1822 H1835 0.962 . S
C1822 H1836 0.960 . S
C1823 C1820 1.511 . S
C1823 H1837 0.961 . S
C1823 H1838 0.961 . S
C1823 H1839 0.961 . S
C1824 C1825 1.370 . S
C1824 C1826 1.363 . S
C1824 H1840 0.931 . S
C1825 C1824 1.370 . S
C1825 C1829 1.408 . S
C1826 C1824 1.363 . S
C1826 C1827 1.370 . S
C1826 C1830 1.524 . S
C1827 C1819 1.503 . S
C1827 C1826 1.370 . S
C1827 C1828 1.403 . S
C1828 C1827 1.403 . S
C1828 C1829 1.404 . S
C1828 C1831 1.539 . S
C1829 C1825 1.408 . S
C1829 C1828 1.404 . S
C1829 H1841 0.930 . S
C1830 C1826 1.524 . S
C1830 H1842 0.956 . S
C1830 H1843 0.961 . S
C1830 H1844 0.961 . S
C1831 C1828 1.539 . S
C1831 H1845 0.958 . S
C1831 H1846 0.961 . S
C1831 H1847 0.960 . S
H1832 C1816 0.931 . S
H1833 C1821 0.929 . S
H1834 C1822 0.960 . S
H1835 C1822 0.962 . S
H1836 C1822 0.960 . S
H1837 C1823 0.961 . S
H1838 C1823 0.961 . S
H1839 C1823 0.961 . S
H1840 C1824 0.931 . S
H1841 C1829 0.930 . S
H1842 C1830 0.956 . S
H1843 C1830 0.961 . S
H1844 C1830 0.961 . S
H1845 C1831 0.958 . S
H1846 C1831 0.961 . S
H1847 C1831 0.960 . S
C1848 C1849 1.391 . S
C1848 C1850 1.394 . S
C1848 H1864 0.931 . S
C1849 C1848 1.391 . S
C1849 C1853 1.376 1_556 S
C1850 C1848 1.394 . S
C1850 C1851 1.369 . S
C1850 C1854 1.531 . S
C1851 C1850 1.369 . S
C1851 C1852 1.415 . S
C1851 C1859 1.503 . S
C1852 C1851 1.415 . S
C1852 C1853 1.389 1_556 S
C1852 C1855 1.509 1_556 S
C1853 C1849 1.376 1_554 S
C1853 C1852 1.389 1_554 S
C1853 H1865 0.929 . S
C1854 C1850 1.531 . S
C1854 H1866 0.960 . S
C1854 H1867 0.962 . S
C1854 H1868 0.960 . S
C1855 C1852 1.509 1_554 S
C1855 H1869 0.961 . S
C1855 H1870 0.961 . S
C1855 H1871 0.961 1_554 S
C1856 C1857 1.370 . S
C1856 C1858 1.363 1_556 S
C1856 H1872 0.931 1_556 S
C1857 C1856 1.370 . S
C1857 C1861 1.408 . S
C1858 C1856 1.363 1_554 S
C1858 C1859 1.370 1_554 S
C1858 C1862 1.524 . S
C1859 C1851 1.503 . S
C1859 C1858 1.370 1_556 S
C1859 C1860 1.403 . S
C1860 C1859 1.403 . S
C1860 C1861 1.404 . S
C1860 C1863 1.539 . S
C1861 C1857 1.408 . S
C1861 C1860 1.404 . S
C1861 H1873 0.930 . S
C1862 C1858 1.524 . S
C1862 H1874 0.956 . S
C1862 H1875 0.961 . S
C1862 H1876 0.961 . S
C1863 C1860 1.539 . S
C1863 H1877 0.958 . S
C1863 H1878 0.961 . S
C1863 H1879 0.960 . S
H1864 C1848 0.931 . S
H1865 C1853 0.929 . S
H1866 C1854 0.960 . S
H1867 C1854 0.962 . S
H1868 C1854 0.960 . S
H1869 C1855 0.961 . S
H1870 C1855 0.961 . S
H1871 C1855 0.961 1_556 S
H1872 C1856 0.931 1_554 S
H1873 C1861 0.930 . S
H1874 C1862 0.956 . S
H1875 C1862 0.961 . S
H1876 C1862 0.961 . S
H1877 C1863 0.958 . S
H1878 C1863 0.961 . S
H1879 C1863 0.960 . S
C1880 C1881 1.391 . S
C1880 C1882 1.394 . S
C1880 H1896 0.931 . S
C1881 C1880 1.391 . S
C1881 C1885 1.376 1_554 S
C1882 C1880 1.394 . S
C1882 C1883 1.369 . S
C1882 C1886 1.531 . S
C1883 C1882 1.369 . S
C1883 C1884 1.410 1_554 S
C1883 C1891 1.503 . S
C1884 C1883 1.410 1_556 S
C1884 C1885 1.392 . S
C1884 C1887 1.511 . S
C1885 C1881 1.376 1_556 S
C1885 C1884 1.392 . S
C1885 H1897 0.929 . S
C1886 C1882 1.531 . S
C1886 H1898 0.960 . S
C1886 H1899 0.962 . S
C1886 H1900 0.960 . S
C1887 C1884 1.511 . S
C1887 H1901 0.961 . S
C1887 H1902 0.961 . S
C1887 H1903 0.961 . S
C1888 C1889 1.370 . S
C1888 C1890 1.363 . S
C1888 H1904 0.931 . S
C1889 C1888 1.370 . S
C1889 C1893 1.408 1_556 S
C1890 C1888 1.363 . S
C1890 C1891 1.370 1_556 S
C1890 C1894 1.524 . S
C1891 C1883 1.503 . S
C1891 C1890 1.370 1_554 S
C1891 C1892 1.403 . S
C1892 C1891 1.403 . S
C1892 C1893 1.404 . S
C1892 C1895 1.539 . S
C1893 C1889 1.408 1_554 S
C1893 C1892 1.404 . S
C1893 H1905 0.930 . S
C1894 C1890 1.524 . S
C1894 H1906 0.956 . S
C1894 H1907 0.961 . S
C1894 H1908 0.961 . S
C1895 C1892 1.539 . S
C1895 H1909 0.958 . S
C1895 H1910 0.961 . S
C1895 H1911 0.960 . S
H1896 C1880 0.931 . S
H1897 C1885 0.929 . S
H1898 C1886 0.960 . S
H1899 C1886 0.962 . S
H1900 C1886 0.960 . S
H1901 C1887 0.961 . S
H1902 C1887 0.961 . S
H1903 C1887 0.961 . S
H1904 C1888 0.931 . S
H1905 C1893 0.930 . S
H1906 C1894 0.956 . S
H1907 C1894 0.961 . S
H1908 C1894 0.961 . S
H1909 C1895 0.958 . S
H1910 C1895 0.961 . S
H1911 C1895 0.960 . S
C1912 C1913 1.391 . S
C1912 C1914 1.394 . S
C1912 H1928 0.931 . S
C1913 C1912 1.391 . S
C1913 C1917 1.376 . S
C1914 C1912 1.394 . S
C1914 C1915 1.369 . S
C1914 C1918 1.531 . S
C1915 C1914 1.369 . S
C1915 C1916 1.410 . S
C1915 C1923 1.503 . S
C1916 C1915 1.410 . S
C1916 C1917 1.392 . S
C1916 C1919 1.511 . S
C1917 C1913 1.376 . S
C1917 C1916 1.392 . S
C1917 H1929 0.929 . S
C1918 C1914 1.531 . S
C1918 H1930 0.960 . S
C1918 H1931 0.962 . S
C1918 H1932 0.960 . S
C1919 C1916 1.511 . S
C1919 H1933 0.961 . S
C1919 H1934 0.961 . S
C1919 H1935 0.961 . S
C1920 C1921 1.370 . S
C1920 C1922 1.363 . S
C1920 H1936 0.931 1_554 S
C1921 C1920 1.370 . S
C1921 C1925 1.408 . S
C1922 C1920 1.363 . S
C1922 C1923 1.370 . S
C1922 C1926 1.524 1_554 S
C1923 C1915 1.503 . S
C1923 C1922 1.370 . S
C1923 C1924 1.403 . S
C1924 C1923 1.403 . S
C1924 C1925 1.404 . S
C1924 C1927 1.539 . S
C1925 C1921 1.408 . S
C1925 C1924 1.404 . S
C1925 H1937 0.930 . S
C1926 C1922 1.524 1_556 S
C1926 H1938 0.956 . S
C1926 H1939 0.961 . S
C1926 H1940 0.961 . S
C1927 C1924 1.539 . S
C1927 H1941 0.958 . S
C1927 H1942 0.961 . S
C1927 H1943 0.960 . S
H1928 C1912 0.931 . S
H1929 C1917 0.929 . S
H1930 C1918 0.960 . S
H1931 C1918 0.962 . S
H1932 C1918 0.960 . S
H1933 C1919 0.961 . S
H1934 C1919 0.961 . S
H1935 C1919 0.961 . S
H1936 C1920 0.931 1_556 S
H1937 C1925 0.930 . S
H1938 C1926 0.956 . S
H1939 C1926 0.961 . S
H1940 C1926 0.961 . S
H1941 C1927 0.958 . S
H1942 C1927 0.961 . S
H1943 C1927 0.960 . S
C409 C13 1.563 . S
C417 C255 1.558 1_545 S
C449 N272 1.585 . S
C441 C1 1.748 . S
C481 N174 1.593 . S
C473 C27 1.585 . S
C505 C15 1.233 1_655 S
C513 C199 1.222 . S
C537 C28 1.668 . S
C545 C394 1.672 . S
C569 C55 1.417 . S
C577 N354 1.400 . S
C609 N302 1.494 . S
C601 C40 1.683 . S
C633 C43 1.654 . S
C641 C328 1.648 . S
C673 C214 1.511 . S
C665 C56 1.525 . S
C705 C259 1.733 . S
C697 C83 1.726 . S
C729 C96 1.625 . S
C737 C238 1.619 1_655 S
C761 C71 1.821 . S
C769 C345 1.805 . S
C801 C375 1.540 . S
C793 C99 1.572 . S
C833 N392 1.583 . S
C825 C111 1.742 . S
C857 C113 1.591 . S
C865 N324 1.594 . S
C897 C289 1.228 1_545 S
C889 C125 1.212 . S
C921 C139 1.689 . S
C929 C274 1.670 . S
C953 C153 1.393 . S
C961 N234 1.396 . S
C993 N212 1.497 . S
C985 C127 1.677 . S
C1017 C141 1.658 . S
C1025 C178 1.640 . S
C1057 C304 1.517 . S
C1049 C84 1.484 . S
C1089 C379 1.726 . S
C1081 C154 1.737 1_556 S
C1113 C68 1.629 . S
C1121 C358 1.619 . S
C1145 C166 1.833 . S
C1153 C195 1.793 . S
C1185 C169 1.313 . S
C1177 C0 1.300 . S
C1209 C12 0.996 . S
C1217 N204 0.991 . S
C1249 N242 1.105 . S
C1241 C14 1.220 . S
C1281 C285 1.725 . S
C1273 C26 1.718 . S
C1305 C41 1.474 . S
C1313 C184 1.475 . S
C1337 C42 1.634 . S
C1345 C225 1.613 . S
C1377 C229 1.249 . S
C1369 C29 1.274 . S
C1401 C54 1.477 . S
C1409 C268 1.455 . S
C1433 C69 1.062 . S
C1441 N182 1.005 . S
C1473 C244 1.806 . S
C1465 C70 1.796 . S
C1497 C85 1.188 . S
C1505 N264 1.165 . S
C1529 C82 1.422 . S
C1537 C298 1.423 . S
C1569 C319 1.290 . S
C1561 C110 1.306 . S
C1593 C98 1.004 . S
C1601 N294 0.990 . S
C1625 C124 1.212 . S
C1633 N362 1.143 . S
C1657 C112 1.721 . S
C1665 C405 1.724 . S
C1689 C126 1.479 . S
C1697 C334 1.477 . S
C1729 C315 1.598 . S
C1721 C140 1.622 . S
C1753 C138 1.278 . S
C1761 C349 1.254 . S
C1793 C388 1.476 . S
C1785 C152 1.485 . S
C1825 N332 0.991 . S
C1817 C97 1.014 . S
C1857 C364 1.801 . S
C1849 C167 1.806 1_556 S
C1889 N384 1.186 . S
C1881 C57 1.156 . S
C1913 C155 1.439 . S
C1921 C208 1.407 . S
