# Generated by pormake.
# Topology apo, (3,6)-cn, num edge types: 1
# Building blocks:
#     Node 0, Type 0, BuildingBlock: WUSLED_clean_sbu_0, # of connection points: 3
#     Node 1, Type 0, BuildingBlock: WUSLED_clean_sbu_0, # of connection points: 3
#     Node 2, Type 0, BuildingBlock: WUSLED_clean_sbu_0, # of connection points: 3
#     Node 3, Type 0, BuildingBlock: WUSLED_clean_sbu_0, # of connection points: 3
#     Node 4, Type 0, BuildingBlock: WUSLED_clean_sbu_0, # of connection points: 3
#     Node 5, Type 0, BuildingBlock: WUSLED_clean_sbu_0, # of connection points: 3
#     Node 6, Type 0, BuildingBlock: WUSLED_clean_sbu_0, # of connection points: 3
#     Node 7, Type 0, BuildingBlock: WUSLED_clean_sbu_0, # of connection points: 3
#     Node 8, Type 1, BuildingBlock: MIDCAF_clean_sbu_0, # of connection points: 6
#     Node 9, Type 1, BuildingBlock: MIDCAF_clean_sbu_0, # of connection points: 6
#     Node 10, Type 1, BuildingBlock: MIDCAF_clean_sbu_0, # of connection points: 6
#     Node 11, Type 1, BuildingBlock: MIDCAF_clean_sbu_0, # of connection points: 6
#     Edge 12, Type (0, 1), BuildingBlock: XUDNAN_clean_linker_2, # of connection points: 2
#     Edge 13, Type (0, 1), BuildingBlock: XUDNAN_clean_linker_2, # of connection points: 2
#     Edge 14, Type (0, 1), BuildingBlock: XUDNAN_clean_linker_2, # of connection points: 2
#     Edge 15, Type (0, 1), BuildingBlock: XUDNAN_clean_linker_2, # of connection points: 2
#     Edge 16, Type (0, 1), BuildingBlock: XUDNAN_clean_linker_2, # of connection points: 2
#     Edge 17, Type (0, 1), BuildingBlock: XUDNAN_clean_linker_2, # of connection points: 2
#     Edge 18, Type (0, 1), BuildingBlock: XUDNAN_clean_linker_2, # of connection points: 2
#     Edge 19, Type (0, 1), BuildingBlock: XUDNAN_clean_linker_2, # of connection points: 2
#     Edge 20, Type (0, 1), BuildingBlock: XUDNAN_clean_linker_2, # of connection points: 2
#     Edge 21, Type (0, 1), BuildingBlock: XUDNAN_clean_linker_2, # of connection points: 2
#     Edge 22, Type (0, 1), BuildingBlock: XUDNAN_clean_linker_2, # of connection points: 2
#     Edge 23, Type (0, 1), BuildingBlock: XUDNAN_clean_linker_2, # of connection points: 2
#     Edge 24, Type (0, 1), BuildingBlock: XUDNAN_clean_linker_2, # of connection points: 2
#     Edge 25, Type (0, 1), BuildingBlock: XUDNAN_clean_linker_2, # of connection points: 2
#     Edge 26, Type (0, 1), BuildingBlock: XUDNAN_clean_linker_2, # of connection points: 2
#     Edge 27, Type (0, 1), BuildingBlock: XUDNAN_clean_linker_2, # of connection points: 2
#     Edge 28, Type (0, 1), BuildingBlock: XUDNAN_clean_linker_2, # of connection points: 2
#     Edge 29, Type (0, 1), BuildingBlock: XUDNAN_clean_linker_2, # of connection points: 2
#     Edge 30, Type (0, 1), BuildingBlock: XUDNAN_clean_linker_2, # of connection points: 2
#     Edge 31, Type (0, 1), BuildingBlock: XUDNAN_clean_linker_2, # of connection points: 2
#     Edge 32, Type (0, 1), BuildingBlock: XUDNAN_clean_linker_2, # of connection points: 2
#     Edge 33, Type (0, 1), BuildingBlock: XUDNAN_clean_linker_2, # of connection points: 2
#     Edge 34, Type (0, 1), BuildingBlock: XUDNAN_clean_linker_2, # of connection points: 2
#     Edge 35, Type (0, 1), BuildingBlock: XUDNAN_clean_linker_2, # of connection points: 2
# Relax obj value: 0.081
# Max RMSD: 0.098
# Mean RMSD: 0.087
data_MOF--net-apo--node1-WUSLED_clean_sbu_0--node2-MIDCAF_clean_sbu_0--edge1-XUDNAN_clean_linker_2
_symmetry_space_group_name_H-M    P1
_symmetry_Int_Tables_number       1
_symmetry_cell_setting            triclinic
loop_
_symmetry_equiv_pos_as_xyz
'x, y, z'
_cell_length_a     45.6883
_cell_length_b     54.256284
_cell_length_c     48.139838
_cell_angle_alpha  90.487026
_cell_angle_beta   90.078979
_cell_angle_gamma 90.197444
loop_
_atom_site_label
_atom_site_type_symbol
_atom_site_fract_x
_atom_site_fract_y
_atom_site_fract_z
_atom_type_partial_charge
C0 C 0.3547 0.38856 0.34618 0.0
C1 C 0.3851 0.38454 0.34684 0.0
C2 C 0.39454 0.42672 0.3317 0.0
C3 C 0.40471 0.40332 0.33963 0.0
C4 C 0.36409 0.43063 0.33085 0.0
C5 C 0.34446 0.41177 0.3379 0.0
U6 U 0.32086 0.34241 0.39739 0.0
O7 O 0.2749 0.33104 0.40328 0.0
O8 O 0.30772 0.30365 0.391 0.0
C9 C 0.27989 0.3081 0.39569 0.0
C10 C 0.33347 0.36874 0.3533 0.0
C11 C 0.25878 0.29678 0.37594 0.0
C12 C 0.23575 0.29327 0.33026 0.0
C13 C 0.25583 0.30485 0.34841 0.0
C14 C 0.22141 0.2656 0.36701 0.0
C15 C 0.2184 0.27332 0.33928 0.0
C16 C 0.24134 0.27716 0.38502 0.0
C17 C 0.35758 0.34551 0.47216 0.0
C18 C 0.34267 0.33363 0.51891 0.0
C19 C 0.39194 0.34835 0.51074 0.0
C20 C 0.38556 0.35096 0.48254 0.0
C21 C 0.3705 0.34007 0.52943 0.0
C22 C 0.33616 0.33651 0.49048 0.0
C23 C 0.35153 0.35155 0.44276 0.0
O24 O 0.34431 0.34672 0.35784 0.0
O25 O 0.31268 0.37474 0.37095 0.0
O26 O 0.32674 0.36261 0.43692 0.0
O27 O 0.35967 0.33558 0.42362 0.0
H28 H 0.39386 0.36685 0.35289 0.0
H29 H 0.42792 0.39939 0.34012 0.0
H30 H 0.35533 0.44843 0.32524 0.0
H31 H 0.32117 0.41538 0.33702 0.0
H32 H 0.23418 0.29967 0.30907 0.0
H33 H 0.26912 0.31998 0.34094 0.0
H34 H 0.20809 0.25072 0.37499 0.0
H35 H 0.24313 0.27069 0.40619 0.0
H36 H 0.32568 0.32723 0.53279 0.0
H37 H 0.4137 0.35311 0.51803 0.0
H38 H 0.40243 0.35795 0.46886 0.0
H39 H 0.31435 0.33226 0.48297 0.0
C40 C 0.18211 0.18858 0.98033 0.0
C41 C 0.15924 0.17192 0.9856 0.0
C42 C 0.15846 0.18432 0.03462 0.0
C43 C 0.14755 0.16982 0.01242 0.0
C44 C 0.18156 0.20085 0.02918 0.0
C45 C 0.1932 0.20295 1.00234 0.0
U46 U 0.18578 0.16994 0.90335 0.0
O47 O 0.18999 0.19265 0.86581 0.0
O48 O 0.22369 0.16535 0.87545 0.0
C49 C 0.21559 0.18336 0.85902 0.0
C50 C 0.19445 0.19125 0.95209 0.0
C51 C 0.23879 0.20073 0.84935 0.0
C52 C 0.25319 0.24026 0.82938 0.0
C53 C 0.23206 0.2251 0.84183 0.0
C54 C 0.28842 0.20723 0.8319 0.0
C55 C 0.28162 0.23148 0.82395 0.0
C56 C 0.2673 0.19208 0.84428 0.0
C57 C 0.13226 0.11677 0.88083 0.0
C58 C 0.13341 0.08874 0.84098 0.0
C59 C 0.09146 0.08895 0.87164 0.0
C60 C 0.10447 0.10764 0.8876 0.0
C61 C 0.10594 0.0789 0.84842 0.0
C62 C 0.14653 0.10747 0.85713 0.0
C63 C 0.14623 0.13459 0.90014 0.0
O64 O 0.21004 0.17258 0.9429 0.0
O65 O 0.1765 0.19991 0.93321 0.0
O66 O 0.14003 0.158 0.89672 0.0
O67 O 0.17382 0.13075 0.9065 0.0
H68 H 0.15042 0.16056 0.96894 0.0
H69 H 0.13011 0.15662 0.01579 0.0
H70 H 0.19034 0.21252 0.04555 0.0
H71 H 0.21082 0.21595 0.99872 0.0
H72 H 0.24718 0.25889 0.82395 0.0
H73 H 0.21027 0.23236 0.845 0.0
H74 H 0.30988 0.19964 0.82776 0.0
H75 H 0.27312 0.17327 0.84919 0.0
H76 H 0.14522 0.08133 0.82332 0.0
H77 H 0.07012 0.08212 0.87773 0.0
H78 H 0.09305 0.11456 0.90576 0.0
H79 H 0.16805 0.11424 0.85153 0.0
C80 C 0.84492 0.11146 0.67053 0.0
C81 C 0.86701 0.10148 0.65364 0.0
C82 C 0.88099 0.07309 0.69055 0.0
C83 C 0.88487 0.08246 0.66355 0.0
C84 C 0.85871 0.08321 0.70724 0.0
C85 C 0.84093 0.10217 0.69733 0.0
U86 U 0.81609 0.15682 0.61534 0.0
O87 O 0.77074 0.16909 0.60816 0.0
O88 O 0.8043 0.19589 0.62081 0.0
C89 C 0.77639 0.19195 0.61574 0.0
C90 C 0.82586 0.13159 0.66091 0.0
C91 C 0.75539 0.20357 0.63522 0.0
C92 C 0.73626 0.21123 0.68184 0.0
C93 C 0.75603 0.19915 0.66395 0.0
C94 C 0.71488 0.23192 0.64242 0.0
C95 C 0.7156 0.22803 0.67132 0.0
C96 C 0.73451 0.21988 0.62467 0.0
C97 C 0.85173 0.1535 0.54085 0.0
C98 C 0.88682 0.15863 0.5032 0.0
C99 C 0.83496 0.15988 0.49324 0.0
C100 C 0.82883 0.15622 0.52156 0.0
C101 C 0.86409 0.16083 0.48358 0.0
C102 C 0.88069 0.15504 0.53136 0.0
C103 C 0.84664 0.14661 0.57027 0.0
O104 O 0.83897 0.15255 0.65529 0.0
O105 O 0.80575 0.1255 0.64252 0.0
O106 O 0.82178 0.13567 0.57645 0.0
O107 O 0.85547 0.1623 0.58951 0.0
H108 H 0.87046 0.10845 0.63287 0.0
H109 H 0.90193 0.07529 0.65017 0.0
H110 H 0.85465 0.07624 0.7279 0.0
H111 H 0.82394 0.10956 0.71065 0.0
H112 H 0.73758 0.20782 0.70393 0.0
H113 H 0.77196 0.18659 0.67255 0.0
H114 H 0.69896 0.24426 0.6334 0.0
H115 H 0.73349 0.22346 0.60258 0.0
H116 H 0.9095 0.15873 0.49674 0.0
H117 H 0.81684 0.16176 0.47891 0.0
H118 H 0.80624 0.15504 0.52822 0.0
H119 H 0.89875 0.15268 0.5457 0.0
C120 C 0.68437 0.31848 0.03485 0.0
C121 C 0.69116 0.33876 0.01792 0.0
C122 C 0.66287 0.32112 0.97936 0.0
C123 C 0.68056 0.34004 0.99058 0.0
C124 C 0.65615 0.30083 0.9963 0.0
C125 C 0.66687 0.29949 0.02358 0.0
U126 U 0.68688 0.33723 0.11241 0.0
O127 O 0.69144 0.31462 0.14998 0.0
O128 O 0.72429 0.34297 0.14084 0.0
C129 C 0.71613 0.32523 0.15759 0.0
C130 C 0.69628 0.31634 0.06365 0.0
C131 C 0.73943 0.30905 0.16856 0.0
C132 C 0.77121 0.2731 0.16574 0.0
C133 C 0.74967 0.2883 0.15397 0.0
C134 C 0.77251 0.29927 0.20666 0.0
C135 C 0.78285 0.27832 0.19236 0.0
C136 C 0.75112 0.31439 0.1949 0.0
C137 C 0.63233 0.38891 0.13511 0.0
C138 C 0.63401 0.41758 0.17436 0.0
C139 C 0.59033 0.41468 0.14599 0.0
C140 C 0.60359 0.39646 0.12966 0.0
C141 C 0.60552 0.42585 0.16823 0.0
C142 C 0.64734 0.3993 0.15789 0.0
C143 C 0.64642 0.37161 0.1154 0.0
O144 O 0.71177 0.33503 0.0733 0.0
O145 O 0.67859 0.30701 0.08239 0.0
O146 O 0.64078 0.34804 0.11863 0.0
O147 O 0.67387 0.37608 0.10897 0.0
H148 H 0.70471 0.35371 0.02571 0.0
H149 H 0.68593 0.3561 0.97835 0.0
H150 H 0.64292 0.28575 0.98834 0.0
H151 H 0.66156 0.28344 0.03585 0.0
H152 H 0.77838 0.25704 0.15415 0.0
H153 H 0.7409 0.28376 0.13364 0.0
H154 H 0.78119 0.30422 0.22691 0.0
H155 H 0.74356 0.33033 0.20653 0.0
H156 H 0.64641 0.42588 0.19121 0.0
H157 H 0.56823 0.42027 0.14093 0.0
H158 H 0.59158 0.38866 0.11224 0.0
H159 H 0.66957 0.39377 0.16249 0.0
C160 C 0.65167 0.61971 0.67296 0.0
C161 C 0.63412 0.6229 0.69666 0.0
C162 C 0.61692 0.58032 0.69327 0.0
C163 C 0.61684 0.60348 0.70664 0.0
C164 C 0.6341 0.57732 0.66921 0.0
C165 C 0.6512 0.59678 0.65913 0.0
U166 U 0.68357 0.66394 0.6181 0.0
O167 O 0.6962 0.70307 0.62231 0.0
O168 O 0.72928 0.67547 0.61136 0.0
C169 C 0.72406 0.69865 0.61767 0.0
C170 C 0.67132 0.64003 0.66402 0.0
C171 C 0.74537 0.71084 0.63651 0.0
C172 C 0.76732 0.71788 0.68216 0.0
C173 C 0.74631 0.70613 0.66516 0.0
C174 C 0.78646 0.73913 0.64206 0.0
C175 C 0.78787 0.73441 0.67076 0.0
C176 C 0.76553 0.72748 0.62521 0.0
C177 C 0.65127 0.65697 0.54264 0.0
C178 C 0.6576 0.6828 0.50183 0.0
C179 C 0.63004 0.64475 0.4982 0.0
C180 C 0.63512 0.64027 0.52634 0.0
C181 C 0.64112 0.66608 0.48542 0.0
C182 C 0.66264 0.67828 0.5302 0.0
C183 C 0.65465 0.65171 0.57258 0.0
O184 O 0.69294 0.63403 0.6473 0.0
O185 O 0.65867 0.66086 0.65726 0.0
O186 O 0.64575 0.6687 0.59023 0.0
O187 O 0.67897 0.64089 0.58035 0.0
H188 H 0.63417 0.64034 0.70779 0.0
H189 H 0.60406 0.60641 0.72531 0.0
H190 H 0.63435 0.55986 0.65813 0.0
H191 H 0.66432 0.59371 0.64071 0.0
H192 H 0.76782 0.71368 0.70411 0.0
H193 H 0.73095 0.6933 0.67431 0.0
H194 H 0.80143 0.75206 0.63255 0.0
H195 H 0.76512 0.73148 0.6032 0.0
H196 H 0.66666 0.69934 0.49275 0.0
H197 H 0.6167 0.63168 0.48665 0.0
H198 H 0.62594 0.62381 0.53555 0.0
H199 H 0.67517 0.69145 0.54242 0.0
C200 C 0.85586 0.84591 0.04015 0.0
C201 C 0.87439 0.86157 0.02523 0.0
C202 C 0.86719 0.83714 0.98296 0.0
C203 C 0.88004 0.85726 0.9971 0.0
C204 C 0.8486 0.82129 0.99804 0.0
C205 C 0.84292 0.82567 0.02642 0.0
U206 U 0.82204 0.8399 0.11524 0.0
O207 O 0.77681 0.82687 0.1086 0.0
O208 O 0.81098 0.80061 0.12028 0.0
C209 C 0.78296 0.80406 0.11547 0.0
C210 C 0.8512 0.85145 0.06994 0.0
C211 C 0.76218 0.79184 0.13453 0.0
C212 C 0.72308 0.76183 0.14082 0.0
C213 C 0.74344 0.77363 0.12376 0.0
C214 C 0.74001 0.78605 0.18015 0.0
C215 C 0.72083 0.76796 0.16923 0.0
C216 C 0.76045 0.79795 0.16292 0.0
C217 C 0.85273 0.88662 0.1678 0.0
C218 C 0.87002 0.91696 0.20163 0.0
C219 C 0.89128 0.91564 0.1556 0.0
C220 C 0.87271 0.89597 0.1484 0.0
C221 C 0.89024 0.9264 0.18235 0.0
C222 C 0.85151 0.89726 0.19441 0.0
C223 C 0.8331 0.86585 0.16054 0.0
O224 O 0.86041 0.83516 0.08799 0.0
O225 O 0.8262 0.86164 0.07693 0.0
O226 O 0.84609 0.84489 0.15459 0.0
O227 O 0.81175 0.87101 0.14325 0.0
H228 H 0.88477 0.87719 0.03546 0.0
H229 H 0.89501 0.86955 0.98658 0.0
H230 H 0.83823 0.80567 0.98787 0.0
H231 H 0.82855 0.81333 0.03759 0.0
H232 H 0.7092 0.7477 0.13171 0.0
H233 H 0.7445 0.76852 0.10197 0.0
H234 H 0.73883 0.79135 0.20185 0.0
H235 H 0.77473 0.81198 0.17168 0.0
H236 H 0.86879 0.92456 0.22247 0.0
H237 H 0.90619 0.92263 0.14006 0.0
H238 H 0.87389 0.88808 0.12768 0.0
H239 H 0.83625 0.89028 0.20968 0.0
C240 C 0.1639 0.89202 0.34422 0.0
C241 C 0.13848 0.89925 0.35847 0.0
C242 C 0.12907 0.93115 0.32398 0.0
C243 C 0.12122 0.91864 0.34844 0.0
C244 C 0.15483 0.92394 0.31011 0.0
C245 C 0.17196 0.9046 0.3201 0.0
U246 U 0.19142 0.84669 0.39981 0.0
O247 O 0.2018 0.80721 0.39555 0.0
O248 O 0.2363 0.83347 0.40739 0.0
C249 C 0.22982 0.81057 0.40063 0.0
C250 C 0.18223 0.87133 0.35376 0.0
C251 C 0.25051 0.79786 0.38176 0.0
C252 C 0.27012 0.78874 0.33568 0.0
C253 C 0.25045 0.80163 0.35291 0.0
C254 C 0.2902 0.76846 0.37598 0.0
C255 C 0.29013 0.77179 0.34698 0.0
C256 C 0.27064 0.78129 0.39307 0.0
C257 C 0.15695 0.85376 0.47423 0.0
C258 C 0.1665 0.83065 0.51652 0.0
C259 C 0.13132 0.86389 0.51705 0.0
C260 C 0.13665 0.86809 0.48892 0.0
C261 C 0.14624 0.84524 0.5314 0.0
C262 C 0.17188 0.83492 0.48816 0.0
C263 C 0.16168 0.85931 0.44456 0.0
O264 O 0.20302 0.877 0.3716 0.0
O265 O 0.16837 0.85083 0.35995 0.0
O266 O 0.15236 0.84292 0.42631 0.0
O267 O 0.18693 0.86926 0.43784 0.0
H268 H 0.13188 0.88981 0.3772 0.0
H269 H 0.10149 0.92352 0.3596 0.0
H270 H 0.16199 0.9334 0.2916 0.0
H271 H 0.19158 0.89942 0.30888 0.0
H272 H 0.26929 0.79173 0.31348 0.0
H273 H 0.23509 0.81438 0.34373 0.0
H274 H 0.30562 0.75604 0.38561 0.0
H275 H 0.2712 0.7782 0.41528 0.0
H276 H 0.17845 0.81617 0.52688 0.0
H277 H 0.11508 0.87514 0.52747 0.0
H278 H 0.12476 0.88261 0.47854 0.0
H279 H 0.18766 0.82363 0.47717 0.0
C280 C 0.34931 0.65362 0.97981 0.0
C281 C 0.36619 0.63727 0.99543 0.0
C282 C 0.35989 0.66255 0.03715 0.0
C283 C 0.37149 0.64166 0.02361 0.0
C284 C 0.34279 0.679 0.0214 0.0
C285 C 0.33752 0.67456 0.99295 0.0
U286 U 0.31759 0.65895 0.90363 0.0
O287 O 0.27165 0.67061 0.90843 0.0
O288 O 0.30546 0.6979 0.89842 0.0
C289 C 0.27739 0.69365 0.90211 0.0
C290 C 0.34554 0.6482 0.94987 0.0
C291 C 0.25704 0.70569 0.88251 0.0
C292 C 0.21775 0.73516 0.87534 0.0
C293 C 0.23694 0.7228 0.89306 0.0
C294 C 0.23812 0.71327 0.83591 0.0
C295 C 0.21816 0.73079 0.84646 0.0
C296 C 0.25745 0.70087 0.85378 0.0
C297 C 0.35236 0.61284 0.85254 0.0
C298 C 0.36073 0.5703 0.83774 0.0
C299 C 0.402 0.59684 0.84811 0.0
C300 C 0.38285 0.6162 0.85442 0.0
C301 C 0.39126 0.57352 0.83987 0.0
C302 C 0.34157 0.58972 0.84389 0.0
C303 C 0.33158 0.63315 0.8591 0.0
O304 O 0.35478 0.66482 0.93218 0.0
O305 O 0.32109 0.63733 0.9421 0.0
O306 O 0.34303 0.65484 0.86507 0.0
O307 O 0.3095 0.62744 0.87533 0.0
H308 H 0.3757 0.62111 0.98566 0.0
H309 H 0.38535 0.62886 0.03462 0.0
H310 H 0.33339 0.69522 0.03108 0.0
H311 H 0.32445 0.68746 0.98123 0.0
H312 H 0.20236 0.74804 0.88441 0.0
H313 H 0.23612 0.72671 0.91516 0.0
H314 H 0.23919 0.70948 0.81382 0.0
H315 H 0.27282 0.68771 0.84518 0.0
H316 H 0.3515 0.5526 0.83185 0.0
H317 H 0.42532 0.60025 0.84955 0.0
H318 H 0.39203 0.63379 0.8608 0.0
H319 H 0.31821 0.5866 0.84208 0.0
Zn320 Zn 0.0269 0.1355 0.30275 0.0
Zn321 Zn 0.98184 0.13258 0.21008 0.0
Zn322 Zn 0.00433 0.13684 0.25474 0.0
C323 C 0.03635 0.15157 0.19828 0.0
C324 C 0.97902 0.08615 0.22587 0.0
O325 O 0.97031 0.15244 0.28424 0.0
O326 O 0.9939 0.14873 0.32414 0.0
C327 C 0.06388 0.166 0.27222 0.0
O328 O 0.03562 0.15518 0.22486 0.0
O329 O 0.01626 0.1391 0.18685 0.0
O330 O 0.96492 0.09916 0.20901 0.0
O331 O 0.99716 0.09654 0.24305 0.0
O332 O 0.06033 0.15746 0.29627 0.0
O333 O 0.04551 0.16031 0.25269 0.0
O334 O 0.01641 0.0976 0.26579 0.0
O335 O 0.03631 0.10038 0.30758 0.0
C336 C 0.02932 0.08742 0.28675 0.0
O337 O 0.96144 0.15861 0.25647 0.0
O338 O 0.95415 0.15969 0.21134 0.0
C339 C 0.97109 0.15463 0.31105 0.0
C340 C 0.9473 0.16714 0.23528 0.0
Zn341 Zn 0.52931 0.37284 0.71853 0.0
Zn342 Zn 0.4843 0.36584 0.81019 0.0
Zn343 Zn 0.50648 0.3675 0.76259 0.0
C344 C 0.48304 0.41487 0.79864 0.0
C345 C 0.44831 0.33609 0.77777 0.0
O346 O 0.54823 0.34451 0.76217 0.0
O347 O 0.5566 0.3453 0.71711 0.0
C348 C 0.53513 0.41839 0.73877 0.0
O349 O 0.49786 0.40614 0.77794 0.0
O350 O 0.47244 0.40052 0.81648 0.0
O351 O 0.45384 0.34114 0.80284 0.0
O352 O 0.46408 0.3457 0.75832 0.0
O353 O 0.54817 0.40526 0.72106 0.0
O354 O 0.51606 0.40825 0.75499 0.0
O355 O 0.47358 0.35278 0.73135 0.0
O356 O 0.49396 0.37063 0.69524 0.0
C357 C 0.47268 0.35899 0.70549 0.0
O358 O 0.53963 0.3484 0.79008 0.0
O359 O 0.51833 0.35382 0.83084 0.0
C360 C 0.56311 0.33722 0.74078 0.0
C361 C 0.53989 0.34631 0.81685 0.0
Zn362 Zn 0.02521 0.86987 0.80693 0.0
Zn363 Zn 0.98918 0.86958 0.71108 0.0
Zn364 Zn 0.00656 0.86719 0.75822 0.0
C365 C 0.97881 0.91578 0.72879 0.0
C366 C 0.95416 0.83396 0.73442 0.0
O367 O 0.04891 0.84551 0.75885 0.0
O368 O 0.05786 0.84646 0.80395 0.0
C369 C 0.02822 0.91762 0.79091 0.0
O370 O 0.99557 0.9068 0.74789 0.0
O371 O 0.9696 0.90179 0.70963 0.0
O372 O 0.96394 0.83994 0.71091 0.0
O373 O 0.96513 0.84425 0.75643 0.0
O374 O 0.03618 0.90462 0.8111 0.0
O375 O 0.01521 0.90727 0.7699 0.0
O376 O 0.97209 0.84903 0.78473 0.0
O377 O 0.98938 0.85943 0.82614 0.0
C378 C 0.96944 0.84989 0.81145 0.0
O379 O 0.04186 0.85088 0.73073 0.0
O380 O 0.02676 0.86742 0.69155 0.0
C381 C 0.06462 0.83901 0.77992 0.0
C382 C 0.04611 0.85597 0.70485 0.0
Zn383 Zn 0.51923 0.6325 0.21058 0.0
Zn384 Zn 0.48521 0.63207 0.30951 0.0
Zn385 Zn 0.50406 0.63555 0.25982 0.0
C386 C 0.54103 0.65406 0.3127 0.0
C387 C 0.48607 0.58445 0.29297 0.0
O388 O 0.468 0.65232 0.23372 0.0
O389 O 0.48181 0.63903 0.19226 0.0
C390 C 0.55724 0.66703 0.2351 0.0
O391 O 0.53859 0.65415 0.28596 0.0
O392 O 0.52115 0.64471 0.32744 0.0
O393 O 0.47718 0.5967 0.3136 0.0
O394 O 0.49768 0.59556 0.27197 0.0
O395 O 0.54798 0.65969 0.21173 0.0
O396 O 0.54539 0.6585 0.25743 0.0
O397 O 0.51391 0.59588 0.24773 0.0
O398 O 0.53401 0.59876 0.20621 0.0
C399 C 0.5268 0.58572 0.22664 0.0
O400 O 0.46139 0.65672 0.26209 0.0
O401 O 0.45115 0.654 0.30682 0.0
C402 C 0.46313 0.64959 0.2074 0.0
C403 C 0.44491 0.66219 0.28309 0.0
H404 H 0.10014 0.96775 0.35324 0.0
H405 H 0.11649 0.94126 0.26936 0.0
H406 H 0.08915 0.97655 0.25064 0.0
H407 H 0.02549 0.99082 0.33975 0.0
H408 H 0.03025 0.01704 0.36257 0.0
H409 H 0.04944 0.98876 0.36943 0.0
H410 H 0.09879 0.01246 0.36944 0.0
H411 H 0.07977 0.04075 0.36261 0.0
H412 H 0.10859 0.03068 0.33969 0.0
H413 H 0.06414 0.01714 0.24088 0.0
H414 H 0.04329 0.05919 0.2415 0.0
H415 H 0.03965 0.05758 0.33125 0.0
C416 C 0.09748 0.96902 0.33095 0.0
C417 C 0.11072 0.95165 0.31285 0.0
C418 C 0.10706 0.95445 0.28375 0.0
C419 C 0.0913 0.97436 0.27288 0.0
C420 C 0.07893 0.9913 0.29129 0.0
C421 C 0.08166 0.98874 0.31972 0.0
C422 C 0.06742 0.01011 0.33498 0.0
C423 C 0.04161 1.00114 0.35273 0.0
C424 C 0.08999 0.02434 0.35271 0.0
C425 C 0.05688 0.02536 0.3107 0.0
C426 C 0.06355 0.01415 0.28564 0.0
C427 C 0.05798 0.02571 0.26038 0.0
C428 C 0.0456 0.04941 0.26081 0.0
C429 C 0.03846 0.06118 0.28619 0.0
C430 C 0.04408 0.0488 0.31141 0.0
H431 H 0.38641 0.53627 0.80031 0.0
H432 H 0.44235 0.5626 0.86735 0.0
H433 H 0.47537 0.52746 0.85957 0.0
H434 H 0.39052 0.47359 0.81707 0.0
H435 H 0.39071 0.46255 0.78165 0.0
H436 H 0.37345 0.49139 0.7901 0.0
H437 H 0.40604 0.51342 0.7538 0.0
H438 H 0.42352 0.48456 0.7454 0.0
H439 H 0.4453 0.51073 0.75606 0.0
H440 H 0.50035 0.48767 0.8473 0.0
H441 H 0.51351 0.44514 0.83309 0.0
H442 H 0.44091 0.44363 0.77524 0.0
C443 C 0.40565 0.53477 0.81332 0.0
C444 C 0.41176 0.55255 0.83431 0.0
C445 C 0.43736 0.54973 0.8507 0.0
C446 C 0.45628 0.52971 0.8465 0.0
C447 C 0.4495 0.51253 0.82577 0.0
C448 C 0.42476 0.51481 0.80947 0.0
C449 C 0.42142 0.49287 0.78993 0.0
C450 C 0.39231 0.4793 0.79501 0.0
C451 C 0.42423 0.50088 0.75949 0.0
C452 C 0.44745 0.47743 0.79859 0.0
C453 C 0.46375 0.48938 0.81888 0.0
C454 C 0.48804 0.47833 0.83112 0.0
C455 C 0.49544 0.45426 0.82288 0.0
C456 C 0.47864 0.44154 0.80266 0.0
C457 C 0.45455 0.45334 0.79018 0.0
H458 H 0.63457 0.53232 0.69834 0.0
H459 H 0.56066 0.58035 0.71405 0.0
H460 H 0.53234 0.5448 0.73184 0.0
H461 H 0.59425 0.48125 0.67361 0.0
H462 H 0.61775 0.45869 0.68938 0.0
H463 H 0.63229 0.48829 0.67992 0.0
H464 H 0.65026 0.49517 0.73053 0.0
H465 H 0.63552 0.46561 0.74018 0.0
H466 H 0.62449 0.49303 0.75874 0.0
H467 H 0.5108 0.5023 0.74481 0.0
H468 H 0.49884 0.45791 0.75019 0.0
H469 H 0.58759 0.43906 0.72714 0.0
C470 C 0.61242 0.53542 0.7055 0.0
C471 C 0.59985 0.55916 0.70468 0.0
C472 C 0.5709 0.56239 0.71466 0.0
C473 C 0.55461 0.54228 0.72478 0.0
C474 C 0.56767 0.51906 0.7251 0.0
C475 C 0.59602 0.51566 0.71579 0.0
C476 C 0.60491 0.48889 0.71731 0.0
C477 C 0.61275 0.47869 0.68833 0.0
C478 C 0.6303 0.48548 0.73792 0.0
C479 C 0.57693 0.47755 0.72818 0.0
C480 C 0.55567 0.49513 0.73289 0.0
C481 C 0.52754 0.48849 0.74164 0.0
C482 C 0.52096 0.46326 0.74505 0.0
C483 C 0.5424 0.44507 0.73975 0.0
C484 C 0.57078 0.45254 0.73166 0.0
H485 H 0.87737 0.96803 0.21335 0.0
H486 H 0.94818 0.93243 0.16855 0.0
H487 H 0.9805 0.96777 0.1794 0.0
H488 H 0.89203 0.02817 0.19116 0.0
H489 H 0.88289 0.04286 0.22372 0.0
H490 H 0.86617 0.0139 0.21433 0.0
H491 H 0.88472 0.99492 0.2603 0.0
H492 H 0.90168 0.02386 0.26975 0.0
H493 H 0.92321 0.9961 0.2685 0.0
H494 H 0.00368 0.00877 0.19115 0.0
H495 H 0.0152 0.05232 0.20225 0.0
H496 H 0.93081 0.0605 0.24178 0.0
C497 C 0.89984 0.96739 0.20629 0.0
C498 C 0.91013 0.94733 0.19004 0.0
C499 C 0.93957 0.94763 0.18072 0.0
C500 C 0.95823 0.96754 0.18701 0.0
C501 C 0.94731 0.98706 0.20287 0.0
C502 C 0.9188 0.98711 0.21244 0.0
C503 C 0.91194 0.011 0.22767 0.0
C504 C 0.88678 0.02479 0.21335 0.0
C505 C 0.90498 0.00617 0.25838 0.0
C506 C 0.9408 0.02461 0.22461 0.0
C507 C 0.96103 0.01038 0.21046 0.0
C508 C 0.98838 0.01977 0.20305 0.0
C509 C 0.99499 0.0444 0.20983 0.0
C510 C 0.97467 0.05921 0.22442 0.0
C511 C 0.94728 0.04912 0.23189 0.0
H512 H 0.90061 0.03202 0.66218 0.0
H513 H 0.90337 0.06748 0.74329 0.0
H514 H 0.93142 0.03235 0.7617 0.0
H515 H 0.89048 0.97155 0.68565 0.0
H516 H 0.91322 0.95745 0.65945 0.0
H517 H 0.89506 0.98609 0.65239 0.0
H518 H 0.94489 0.00629 0.64028 0.0
H519 H 0.96321 0.97764 0.64728 0.0
H520 H 0.97438 0.00544 0.66517 0.0
H521 H 0.95666 0.99141 0.77202 0.0
H522 H 0.97613 0.94886 0.77278 0.0
H523 H 0.95865 0.94165 0.68452 0.0
C524 C 0.90759 0.0327 0.68368 0.0
C525 C 0.89963 0.05261 0.70123 0.0
C526 C 0.90878 0.05236 0.72943 0.0
C527 C 0.92495 0.03254 0.74007 0.0
C528 C 0.93208 0.01309 0.72226 0.0
C529 C 0.92379 0.01312 0.69461 0.0
C530 C 0.93309 0.9896 0.68002 0.0
C531 C 0.90637 0.97534 0.66873 0.0
C532 C 0.95521 0.99508 0.65682 0.0
C533 C 0.94743 0.97613 0.70384 0.0
C534 C 0.94687 0.98995 0.72805 0.0
C535 C 0.95764 0.98063 0.75303 0.0
C536 C 0.96895 0.9565 0.75326 0.0
C537 C 0.96957 0.94203 0.72865 0.0
C538 C 0.95883 0.95225 0.70369 0.0
H539 H 0.57517 0.46461 0.14658 0.0
H540 H 0.60638 0.43541 0.22473 0.0
H541 H 0.58532 0.47145 0.24954 0.0
H542 H 0.59149 0.52639 0.16083 0.0
H543 H 0.5598 0.53836 0.14323 0.0
H544 H 0.57508 0.50931 0.13251 0.0
H545 H 0.52465 0.48822 0.1397 0.0
H546 H 0.50925 0.51727 0.15057 0.0
H547 H 0.50666 0.49086 0.1729 0.0
H548 H 0.56216 0.51259 0.26538 0.0
H549 H 0.54336 0.55537 0.26956 0.0
H550 H 0.52788 0.55643 0.18079 0.0
C551 C 0.57708 0.46545 0.16899 0.0
C552 C 0.5922 0.44699 0.18371 0.0
C553 C 0.59495 0.44932 0.21297 0.0
C554 C 0.58285 0.46965 0.22726 0.0
C555 C 0.56807 0.48753 0.21201 0.0
C556 C 0.56531 0.48556 0.18347 0.0
C557 C 0.55026 0.50786 0.17145 0.0
C558 C 0.57037 0.52127 0.1508 0.0
C559 C 0.52097 0.50061 0.15786 0.0
C560 C 0.54551 0.52303 0.19755 0.0
C561 C 0.55541 0.51095 0.22089 0.0
C562 C 0.5541 0.52203 0.24721 0.0
C563 C 0.54312 0.54623 0.24949 0.0
C564 C 0.53384 0.55907 0.22559 0.0
C565 C 0.53465 0.54702 0.19948 0.0
H566 H 0.38961 0.46337 0.29211 0.0
H567 H 0.44703 0.43694 0.35729 0.0
H568 H 0.48097 0.47126 0.34839 0.0
H569 H 0.44797 0.48759 0.24586 0.0
H570 H 0.42661 0.51403 0.23616 0.0
H571 H 0.4086 0.48547 0.24476 0.0
H572 H 0.37787 0.50808 0.28231 0.0
H573 H 0.39556 0.53663 0.27359 0.0
H574 H 0.39633 0.52586 0.3089 0.0
H575 H 0.50583 0.5108 0.33667 0.0
H576 H 0.51818 0.55377 0.32446 0.0
H577 H 0.44538 0.55534 0.26692 0.0
C578 C 0.40942 0.46463 0.30439 0.0
C579 C 0.41563 0.44709 0.32525 0.0
C580 C 0.44193 0.44962 0.34075 0.0
C581 C 0.46141 0.46916 0.33589 0.0
C582 C 0.45452 0.48613 0.31534 0.0
C583 C 0.42916 0.4841 0.29983 0.0
C584 C 0.42578 0.50599 0.28063 0.0
C585 C 0.42733 0.49777 0.25003 0.0
C586 C 0.3972 0.51996 0.28674 0.0
C587 C 0.45251 0.52116 0.28868 0.0
C588 C 0.4691 0.50907 0.30836 0.0
C589 C 0.49342 0.52018 0.32081 0.0
C590 C 0.50039 0.54452 0.31368 0.0
C591 C 0.4833 0.55742 0.29414 0.0
C592 C 0.45947 0.54543 0.28104 0.0
H593 H 0.08024 0.03814 0.8709 0.0
H594 H 0.10289 0.07052 0.79174 0.0
H595 H 0.08152 0.03419 0.76734 0.0
H596 H 0.09806 0.97704 0.85283 0.0
H597 H 0.0687 0.96357 0.87261 0.0
H598 H 0.08398 0.9928 0.88308 0.0
H599 H 0.03232 0.0124 0.88113 0.0
H600 H 0.01692 0.98319 0.87049 0.0
H601 H 0.0112 0.01014 0.84955 0.0
H602 H 0.05809 0.99265 0.75189 0.0
H603 H 0.03953 0.94963 0.7477 0.0
H604 H 0.0332 0.94584 0.83738 0.0
C605 C 0.08028 0.03786 0.8484 0.0
C606 C 0.09296 0.05736 0.83324 0.0
C607 C 0.09332 0.05581 0.80382 0.0
C608 C 0.08104 0.03532 0.78979 0.0
C609 C 0.06856 0.01646 0.80547 0.0
C610 C 0.06833 0.01761 0.83419 0.0
C611 C 0.05532 0.99452 0.84655 0.0
C612 C 0.07786 0.9812 0.86483 0.0
C613 C 0.02727 1.00043 0.86289 0.0
C614 C 0.04854 0.97995 0.8204 0.0
C615 C 0.05589 0.99288 0.79679 0.0
C616 C 0.05218 0.98248 0.77031 0.0
C617 C 0.04148 0.95811 0.76807 0.0
C618 C 0.03488 0.94441 0.79219 0.0
C619 C 0.038 0.95582 0.81852 0.0
H620 H 0.10053 0.17858 0.04876 0.0
H621 H 0.187 0.18561 0.08534 0.0
H622 H 0.16537 0.18169 0.13223 0.0
H623 H 0.06105 0.21191 0.10247 0.0
H624 H 0.02971 0.19171 0.10039 0.0
H625 H 0.05205 0.19667 0.07013 0.0
H626 H 0.06016 0.14955 0.0651 0.0
H627 H 0.03767 0.14447 0.09516 0.0
H628 H 0.07445 0.13258 0.09413 0.0
H629 H 0.1331 0.17457 0.17608 0.0
H630 H 0.09449 0.16353 0.21031 0.0
H631 H 0.0306 0.16152 0.14365 0.0
C632 C 0.11505 0.17924 0.06655 0.0
C633 C 0.14555 0.1824 0.06315 0.0
C634 C 0.16352 0.18351 0.08725 0.0
C635 C 0.15142 0.18122 0.11404 0.0
C636 C 0.12122 0.17798 0.11657 0.0
C637 C 0.10337 0.17704 0.09333 0.0
C638 C 0.0718 0.17254 0.10119 0.0
C639 C 0.05253 0.19452 0.09306 0.0
C640 C 0.06036 0.14835 0.08813 0.0
C641 C 0.07462 0.17057 0.13242 0.0
C642 C 0.10314 0.17397 0.14119 0.0
C643 C 0.11068 0.17206 0.16933 0.0
C644 C 0.08861 0.16595 0.18872 0.0
C645 C 0.0595 0.16165 0.17976 0.0
C646 C 0.05263 0.16459 0.1513 0.0
H647 H 0.39663 0.37609 0.56057 0.0
H648 H 0.36052 0.30244 0.56675 0.0
H649 H 0.37718 0.30048 0.61588 0.0
H650 H 0.46033 0.3655 0.59736 0.0
H651 H 0.46143 0.39545 0.61384 0.0
H652 H 0.44345 0.39158 0.58088 0.0
H653 H 0.39579 0.40979 0.6017 0.0
H654 H 0.41366 0.4136 0.63486 0.0
H655 H 0.38009 0.39618 0.63232 0.0
H656 H 0.40399 0.30559 0.66373 0.0
H657 H 0.43742 0.31706 0.70272 0.0
H658 H 0.45348 0.38753 0.66394 0.0
C659 C 0.39186 0.35963 0.57234 0.0
C660 C 0.37738 0.33938 0.55978 0.0
C661 C 0.37141 0.31826 0.576 0.0
C662 C 0.38085 0.317 0.60392 0.0
C663 C 0.39577 0.33719 0.61548 0.0
C664 C 0.40086 0.3582 0.60008 0.0
C665 C 0.41873 0.37693 0.61621 0.0
C666 C 0.44769 0.38268 0.60118 0.0
C667 C 0.401 0.40052 0.62159 0.0
C668 C 0.42391 0.363 0.64282 0.0
C669 C 0.41034 0.34019 0.64243 0.0
C670 C 0.41421 0.32361 0.66432 0.0
C671 C 0.43304 0.33029 0.68654 0.0
C672 C 0.44782 0.35327 0.68652 0.0
C673 C 0.4423 0.36991 0.66472 0.0
H674 H 0.60775 0.30878 0.96067 0.0
H675 H 0.69106 0.33753 0.93227 0.0
H676 H 0.67069 0.34181 0.88489 0.0
H677 H 0.58849 0.27464 0.8964 0.0
H678 H 0.55028 0.28232 0.89949 0.0
H679 H 0.57246 0.2792 0.93025 0.0
H680 H 0.55792 0.32325 0.94621 0.0
H681 H 0.53553 0.32634 0.91574 0.0
H682 H 0.56376 0.34876 0.92308 0.0
H683 H 0.63923 0.34557 0.84052 0.0
H684 H 0.59909 0.35201 0.80641 0.0
H685 H 0.53745 0.32049 0.86456 0.0
C686 C 0.62199 0.31544 0.9444 0.0
C687 C 0.65112 0.32268 0.95033 0.0
C688 C 0.66862 0.33199 0.92842 0.0
C689 C 0.65731 0.33426 0.90131 0.0
C690 C 0.62841 0.32708 0.89624 0.0
C691 C 0.61103 0.3179 0.91731 0.0
C692 C 0.58006 0.31331 0.90729 0.0
C693 C 0.57238 0.28572 0.90843 0.0
C694 C 0.55804 0.32885 0.92407 0.0
C695 C 0.5824 0.322 0.87755 0.0
C696 C 0.61052 0.32946 0.87121 0.0
C697 C 0.61722 0.33951 0.84525 0.0
C698 C 0.59437 0.34292 0.82585 0.0
C699 C 0.5652 0.33665 0.83276 0.0
C700 C 0.55959 0.32527 0.85856 0.0
H701 H 0.90985 0.18586 0.45902 0.0
H702 H 0.83488 0.13969 0.43903 0.0
H703 H 0.84956 0.13942 0.38967 0.0
H704 H 0.91213 0.22089 0.39305 0.0
H705 H 0.95158 0.22082 0.39247 0.0
H706 H 0.93243 0.22079 0.42519 0.0
H707 H 0.96018 0.18134 0.4398 0.0
H708 H 0.97954 0.18146 0.40735 0.0
H709 H 0.95903 0.15454 0.41742 0.0
H710 H 0.87661 0.13955 0.34304 0.0
H711 H 0.91423 0.13834 0.3059 0.0
H712 H 0.97124 0.18389 0.3568 0.0
C713 C 0.89622 0.17591 0.4443 0.0
C714 C 0.87106 0.16287 0.45319 0.0
C715 C 0.85393 0.15023 0.43293 0.0
C716 C 0.86218 0.14991 0.40473 0.0
C717 C 0.88752 0.16248 0.39685 0.0
C718 C 0.9042 0.17532 0.41616 0.0
C719 C 0.93194 0.18531 0.40318 0.0
C720 C 0.93201 0.21364 0.40349 0.0
C721 C 0.95927 0.17504 0.41779 0.0
C722 C 0.92895 0.17528 0.37382 0.0
C723 C 0.90294 0.16256 0.37027 0.0
C724 C 0.89673 0.14993 0.34546 0.0
C725 C 0.91808 0.14951 0.32431 0.0
C726 C 0.94535 0.16151 0.32818 0.0
C727 C 0.95025 0.17515 0.35294 0.0
H728 H 0.87364 0.87164 0.9419 0.0
H729 H 0.87731 0.79286 0.95589 0.0
H730 H 0.89478 0.78656 0.90773 0.0
H731 H 0.85402 0.86916 0.86656 0.0
H732 H 0.87724 0.89519 0.85906 0.0
H733 H 0.8597 0.89289 0.89248 0.0
H734 H 0.91012 0.89672 0.91701 0.0
H735 H 0.92759 0.89937 0.8838 0.0
H736 H 0.939 0.87573 0.90753 0.0
H737 H 0.91965 0.78976 0.86024 0.0
H738 H 0.95128 0.80249 0.82095 0.0
H739 H 0.93155 0.87885 0.83871 0.0
C740 C 0.87765 0.85297 0.93479 0.0
C741 C 0.87403 0.83276 0.95287 0.0
C742 C 0.87944 0.80867 0.94246 0.0
C743 C 0.88944 0.80491 0.91505 0.0
C744 C 0.89363 0.82539 0.89808 0.0
C745 C 0.88771 0.84895 0.90764 0.0
C746 C 0.89704 0.86818 0.88679 0.0
C747 C 0.8704 0.88218 0.87556 0.0
C748 C 0.91979 0.88602 0.89954 0.0
C749 C 0.91041 0.85191 0.86448 0.0
C750 C 0.9077 0.82721 0.87093 0.0
C751 C 0.92118 0.809 0.85467 0.0
C752 C 0.93887 0.81632 0.83218 0.0
C753 C 0.943 0.84158 0.82632 0.0
C754 C 0.92772 0.85939 0.84209 0.0
H755 H 0.63768 0.63256 0.44218 0.0
H756 H 0.6281 0.7105 0.4607 0.0
H757 H 0.61098 0.71743 0.41269 0.0
H758 H 0.65795 0.63849 0.36724 0.0
H759 H 0.63668 0.61164 0.35783 0.0
H760 H 0.65369 0.61368 0.3916 0.0
H761 H 0.60338 0.60654 0.41517 0.0
H762 H 0.58648 0.60412 0.38158 0.0
H763 H 0.57315 0.62634 0.40654 0.0
H764 H 0.58699 0.71462 0.36491 0.0
H765 H 0.55632 0.70174 0.32474 0.0
H766 H 0.5811 0.62594 0.33787 0.0
C767 C 0.63244 0.6512 0.43612 0.0
C768 C 0.63437 0.67096 0.45545 0.0
C769 C 0.62736 0.69504 0.44634 0.0
C770 C 0.61753 0.69917 0.41902 0.0
C771 C 0.61507 0.6791 0.40078 0.0
C772 C 0.62248 0.65558 0.40904 0.0
C773 C 0.61472 0.63665 0.38689 0.0
C774 C 0.64242 0.62439 0.3752 0.0
C775 C 0.59315 0.6173 0.39822 0.0
C776 C 0.60045 0.65295 0.36538 0.0
C777 C 0.60144 0.6775 0.37335 0.0
C778 C 0.58682 0.69555 0.35813 0.0
C779 C 0.56969 0.68817 0.33511 0.0
C780 C 0.56726 0.66299 0.32766 0.0
C781 C 0.58372 0.64542 0.3424 0.0
H782 H 0.3642 0.62853 0.07901 0.0
H783 H 0.37216 0.70688 0.06346 0.0
H784 H 0.38985 0.71336 0.11154 0.0
H785 H 0.34526 0.63269 0.15455 0.0
H786 H 0.36724 0.60611 0.16238 0.0
H787 H 0.34947 0.60844 0.12904 0.0
H788 H 0.39938 0.60274 0.10423 0.0
H789 H 0.41706 0.60004 0.13737 0.0
H790 H 0.42941 0.62298 0.11313 0.0
H791 H 0.41473 0.71016 0.15885 0.0
H792 H 0.44662 0.69715 0.19773 0.0
H793 H 0.42303 0.62113 0.18179 0.0
C794 C 0.36918 0.64716 0.08576 0.0
C795 C 0.36669 0.66717 0.06724 0.0
C796 C 0.37336 0.69123 0.07721 0.0
C797 C 0.38349 0.69509 0.10457 0.0
C798 C 0.3866 0.67478 0.12196 0.0
C799 C 0.37948 0.65127 0.11285 0.0
C800 C 0.38807 0.63209 0.13401 0.0
C801 C 0.36088 0.61907 0.14568 0.0
C802 C 0.40977 0.61339 0.12144 0.0
C803 C 0.40249 0.64827 0.15592 0.0
C804 C 0.40082 0.67294 0.14906 0.0
C805 C 0.41541 0.69098 0.16479 0.0
C806 C 0.43321 0.68351 0.18713 0.0
C807 C 0.43638 0.65824 0.19335 0.0
C808 C 0.41992 0.64063 0.17818 0.0
H809 H 0.13715 0.88021 0.57198 0.0
H810 H 0.14028 0.80108 0.55911 0.0
H811 H 0.12396 0.79488 0.6076 0.0
H812 H 0.15815 0.88105 0.64691 0.0
H813 H 0.1329 0.90567 0.65443 0.0
H814 H 0.15 0.90362 0.62076 0.0
H815 H 0.09898 0.90344 0.59705 0.0
H816 H 0.0819 0.90583 0.63051 0.0
H817 H 0.07214 0.88085 0.60731 0.0
H818 H 0.09964 0.79773 0.65563 0.0
H819 H 0.06787 0.80947 0.69537 0.0
H820 H 0.08078 0.8864 0.676 0.0
C821 C 0.13487 0.86153 0.57941 0.0
C822 C 0.14003 0.84115 0.56157 0.0
C823 C 0.13688 0.81704 0.57236 0.0
C824 C 0.12757 0.81334 0.59994 0.0
C825 C 0.12183 0.83392 0.61669 0.0
C826 C 0.12556 0.85756 0.60672 0.0
C827 C 0.11499 0.87667 0.62744 0.0
C828 C 0.14054 0.89269 0.63801 0.0
C829 C 0.09055 0.89261 0.61483 0.0
C830 C 0.10344 0.86017 0.65018 0.0
C831 C 0.1081 0.83554 0.64406 0.0
C832 C 0.09657 0.81698 0.66091 0.0
C833 C 0.07882 0.82376 0.6837 0.0
C834 C 0.0726 0.84884 0.68917 0.0
C835 C 0.08604 0.86713 0.67279 0.0
H836 H 0.20652 0.22371 0.33571 0.0
H837 H 0.18151 0.29368 0.30007 0.0
H838 H 0.14346 0.27241 0.27196 0.0
H839 H 0.19208 0.18482 0.27366 0.0
H840 H 0.17812 0.15991 0.29439 0.0
H841 H 0.2059 0.18021 0.30832 0.0
H842 H 0.17281 0.19019 0.35066 0.0
H843 H 0.14522 0.16975 0.33703 0.0
H844 H 0.13622 0.20138 0.34484 0.0
H845 H 0.1036 0.24319 0.25168 0.0
H846 H 0.06593 0.2105 0.24459 0.0
H847 H 0.11778 0.16066 0.29405 0.0
C848 C 0.19328 0.23463 0.32182 0.0
C849 C 0.19713 0.26046 0.32024 0.0
C850 C 0.17936 0.27386 0.3015 0.0
C851 C 0.1576 0.26189 0.28543 0.0
C852 C 0.15401 0.23642 0.28801 0.0
C853 C 0.17158 0.22302 0.30574 0.0
C854 C 0.16205 0.19632 0.3068 0.0
C855 C 0.18597 0.17932 0.29509 0.0
C856 C 0.15356 0.189 0.33658 0.0
C857 C 0.13565 0.19684 0.28777 0.0
C858 C 0.1315 0.21994 0.27658 0.0
C859 C 0.10702 0.22497 0.26 0.0
C860 C 0.08581 0.20625 0.25583 0.0
C861 C 0.0891 0.18299 0.2685 0.0
C862 C 0.11491 0.17815 0.28372 0.0
H863 H 0.34063 0.23525 0.8352 0.0
H864 H 0.27338 0.26396 0.78077 0.0
H865 H 0.31021 0.29068 0.75828 0.0
H866 H 0.37772 0.29098 0.84633 0.0
H867 H 0.41363 0.27734 0.84691 0.0
H868 H 0.38225 0.25938 0.85677 0.0
H869 H 0.39586 0.22638 0.81976 0.0
H870 H 0.42715 0.24446 0.80956 0.0
H871 H 0.40024 0.23534 0.78402 0.0
H872 H 0.35509 0.31661 0.74353 0.0
H873 H 0.40156 0.34061 0.74153 0.0
H874 H 0.43846 0.29372 0.80479 0.0
C875 C 0.33364 0.24677 0.8182 0.0
C876 C 0.30396 0.24734 0.80982 0.0
C877 C 0.29585 0.26328 0.78788 0.0
C878 C 0.31673 0.27838 0.77472 0.0
C879 C 0.3458 0.27734 0.78356 0.0
C880 C 0.35415 0.26191 0.80488 0.0
C881 C 0.38622 0.26523 0.81189 0.0
C882 C 0.39017 0.27375 0.84226 0.0
C883 C 0.40338 0.24143 0.80594 0.0
C884 C 0.39455 0.28534 0.79171 0.0
C885 C 0.37119 0.29195 0.77515 0.0
C886 C 0.3736 0.31128 0.75614 0.0
C887 C 0.40015 0.32467 0.75486 0.0
C888 C 0.42374 0.31872 0.77261 0.0
C889 C 0.42096 0.29837 0.79058 0.0
H890 H 0.69891 0.27639 0.66769 0.0
H891 H 0.68533 0.21099 0.71721 0.0
H892 H 0.64871 0.23352 0.7456 0.0
H893 H 0.68903 0.32205 0.72353 0.0
H894 H 0.67033 0.3431 0.70088 0.0
H895 H 0.69766 0.32254 0.687 0.0
H896 H 0.66006 0.30535 0.65129 0.0
H897 H 0.63281 0.32597 0.66487 0.0
H898 H 0.62562 0.2933 0.66348 0.0
H899 H 0.60916 0.26336 0.76594 0.0
H900 H 0.5711 0.29558 0.77335 0.0
H901 H 0.61192 0.34005 0.70985 0.0
C902 C 0.68842 0.26674 0.68458 0.0
C903 C 0.69506 0.24182 0.69005 0.0
C904 C 0.68093 0.23014 0.71269 0.0
C905 C 0.66002 0.24281 0.72893 0.0
C906 C 0.65361 0.26729 0.72254 0.0
C907 C 0.66764 0.27905 0.70089 0.0
C908 C 0.65584 0.30474 0.6967 0.0
C909 C 0.67964 0.32426 0.70237 0.0
C910 C 0.6428 0.30748 0.66736 0.0
C911 C 0.63234 0.3055 0.71878 0.0
C912 C 0.63142 0.28398 0.73391 0.0
C913 C 0.61002 0.28036 0.75436 0.0
C914 C 0.58858 0.29879 0.75863 0.0
C915 C 0.58859 0.32031 0.74223 0.0
C916 C 0.61139 0.32383 0.72283 0.0
H917 H 0.82955 0.25562 0.16663 0.0
H918 H 0.78841 0.2645 0.24724 0.0
H919 H 0.82695 0.23878 0.26838 0.0
H920 H 0.84965 0.19243 0.17475 0.0
H921 H 0.88373 0.19587 0.15633 0.0
H922 H 0.85329 0.21552 0.14825 0.0
H923 H 0.88575 0.254 0.15769 0.0
H924 H 0.91623 0.23443 0.16601 0.0
H925 H 0.90405 0.25731 0.19072 0.0
H926 H 0.87143 0.21084 0.28062 0.0
H927 H 0.91465 0.18306 0.28126 0.0
H928 H 0.92443 0.19298 0.19248 0.0
C929 C 0.82839 0.25205 0.18869 0.0
C930 C 0.80581 0.26226 0.20516 0.0
C931 C 0.80562 0.25726 0.2341 0.0
C932 C 0.82742 0.24255 0.24635 0.0
C933 C 0.84944 0.23289 0.22947 0.0
C934 C 0.84992 0.23746 0.20122 0.0
C935 C 0.87551 0.2248 0.18737 0.0
C936 C 0.8649 0.20604 0.16539 0.0
C937 C 0.89663 0.24377 0.17471 0.0
C938 C 0.88919 0.21211 0.21207 0.0
C939 C 0.87419 0.217 0.23632 0.0
C940 C 0.88321 0.20689 0.26163 0.0
C941 C 0.90783 0.19111 0.26189 0.0
C942 C 0.92289 0.18539 0.237 0.0
C943 C 0.91343 0.19655 0.21201 0.0
H944 H 0.84541 0.74273 0.65744 0.0
H945 H 0.78258 0.75434 0.72364 0.0
H946 H 0.82012 0.77747 0.75057 0.0
H947 H 0.91056 0.73669 0.70136 0.0
H948 H 0.93335 0.75288 0.67697 0.0
H949 H 0.90244 0.73514 0.66473 0.0
H950 H 0.88197 0.7737 0.63995 0.0
H951 H 0.91284 0.79145 0.65197 0.0
H952 H 0.87622 0.80164 0.6597 0.0
H953 H 0.8648 0.80316 0.76839 0.0
H954 H 0.9099 0.82864 0.77361 0.0
H955 H 0.94181 0.79935 0.69532 0.0
C956 C 0.83946 0.74999 0.67767 0.0
C957 C 0.81089 0.74671 0.68829 0.0
C958 C 0.80435 0.75634 0.71508 0.0
C959 C 0.82557 0.76959 0.73052 0.0
C960 C 0.85339 0.77288 0.71909 0.0
C961 C 0.86027 0.76316 0.69325 0.0
C962 C 0.89091 0.77027 0.68456 0.0
C963 C 0.91047 0.74738 0.68175 0.0
C964 C 0.89044 0.78515 0.65746 0.0
C965 C 0.90008 0.78612 0.7091 0.0
C966 C 0.87847 0.78729 0.72911 0.0
C967 C 0.88193 0.80206 0.75293 0.0
C968 C 0.9077 0.81637 0.75588 0.0
C969 C 0.92948 0.81597 0.73497 0.0
C970 C 0.92567 0.80008 0.71177 0.0
H971 H 0.66419 0.75648 0.15524 0.0
H972 H 0.72616 0.75107 0.22317 0.0
H973 H 0.68935 0.72792 0.25052 0.0
H974 H 0.5981 0.7626 0.19725 0.0
H975 H 0.57663 0.74424 0.17334 0.0
H976 H 0.60697 0.76225 0.16076 0.0
H977 H 0.62978 0.72302 0.13868 0.0
H978 H 0.59949 0.70497 0.15105 0.0
H979 H 0.63638 0.69652 0.16011 0.0
H980 H 0.64527 0.70169 0.26892 0.0
H981 H 0.60083 0.6755 0.2748 0.0
H982 H 0.56972 0.69918 0.19426 0.0
C983 C 0.67013 0.75055 0.17591 0.0
C984 C 0.69824 0.75558 0.18691 0.0
C985 C 0.70472 0.74769 0.21428 0.0
C986 C 0.68393 0.73444 0.22996 0.0
C987 C 0.65657 0.72939 0.21816 0.0
C988 C 0.64975 0.73741 0.19172 0.0
C989 C 0.61968 0.72878 0.18281 0.0
C990 C 0.59914 0.75078 0.17828 0.0
C991 C 0.62145 0.71234 0.15663 0.0
C992 C 0.61072 0.71412 0.20801 0.0
C993 C 0.63194 0.71473 0.22846 0.0
C994 C 0.62847 0.70136 0.25306 0.0
C995 C 0.60309 0.68662 0.25636 0.0
C996 C 0.58174 0.68524 0.23504 0.0
C997 C 0.58557 0.69973 0.21101 0.0
H998 H 0.30666 0.72342 0.35228 0.0
H999 H 0.32118 0.78771 0.30113 0.0
H1000 H 0.35828 0.7646 0.27404 0.0
H1001 H 0.37978 0.70685 0.35845 0.0
H1002 H 0.37291 0.67412 0.35777 0.0
H1003 H 0.34514 0.69482 0.37017 0.0
H1004 H 0.3086 0.67666 0.33408 0.0
H1005 H 0.33645 0.65601 0.32139 0.0
H1006 H 0.31816 0.67645 0.29776 0.0
H1007 H 0.39811 0.73476 0.25542 0.0
H1008 H 0.43678 0.70295 0.24974 0.0
H1009 H 0.39548 0.65936 0.31373 0.0
C1010 C 0.31744 0.73269 0.33528 0.0
C1011 C 0.3109 0.75749 0.32898 0.0
C1012 C 0.32544 0.76866 0.30626 0.0
C1013 C 0.34664 0.75566 0.29075 0.0
C1014 C 0.35295 0.73136 0.29796 0.0
C1015 C 0.33857 0.72004 0.31971 0.0
C1016 C 0.35051 0.69452 0.32487 0.0
C1017 C 0.36282 0.69248 0.35456 0.0
C1018 C 0.32703 0.67474 0.31918 0.0
C1019 C 0.37458 0.69344 0.30333 0.0
C1020 C 0.37549 0.71459 0.28756 0.0
C1021 C 0.39724 0.71802 0.26745 0.0
C1022 C 0.41901 0.69978 0.26414 0.0
C1023 C 0.41902 0.6786 0.2811 0.0
C1024 C 0.39595 0.67525 0.30027 0.0
H1025 H 0.2025 0.77953 0.85015 0.0
H1026 H 0.18714 0.71352 0.80078 0.0
H1027 H 0.15044 0.736 0.77285 0.0
H1028 H 0.12976 0.79703 0.85558 0.0
H1029 H 0.13707 0.82965 0.85402 0.0
H1030 H 0.16457 0.80915 0.86703 0.0
H1031 H 0.20129 0.82565 0.83054 0.0
H1032 H 0.1737 0.84608 0.81723 0.0
H1033 H 0.1917 0.82462 0.7942 0.0
H1034 H 0.11084 0.76553 0.75337 0.0
H1035 H 0.07236 0.79736 0.74704 0.0
H1036 H 0.11443 0.84288 0.80979 0.0
C1037 C 0.19164 0.76975 0.83334 0.0
C1038 C 0.1978 0.74465 0.82781 0.0
C1039 C 0.18316 0.7328 0.80533 0.0
C1040 C 0.16219 0.74544 0.78934 0.0
C1041 C 0.15622 0.77007 0.79582 0.0
C1042 C 0.17075 0.78204 0.8173 0.0
C1043 C 0.15915 0.80785 0.82173 0.0
C1044 C 0.1469 0.81109 0.85133 0.0
C1045 C 0.18288 0.82719 0.81555 0.0
C1046 C 0.13507 0.80837 0.80012 0.0
C1047 C 0.13387 0.78667 0.78491 0.0
C1048 C 0.11196 0.78269 0.76494 0.0
C1049 C 0.0903 0.80094 0.76124 0.0
C1050 C 0.09057 0.82268 0.7777 0.0
C1051 C 0.11382 0.82656 0.79666 0.0
loop_
_geom_bond_atom_site_label_1
_geom_bond_atom_site_label_2
_geom_bond_distance
_geom_bond_site_symmetry_2
_ccdc_geom_bond_type
C0 C1 1.264 . S
C0 C5 1.479 . S
C0 C10 1.465 . S
C1 C0 1.264 . S
C1 C3 1.339 . S
C1 H28 0.931 . S
C2 C3 1.395 . S
C2 C4 1.320 . S
C3 C1 1.339 . S
C3 C2 1.395 . S
C3 H29 0.929 . S
C4 C2 1.320 . S
C4 C5 1.405 . S
C4 H30 0.930 . S
C5 C0 1.479 . S
C5 C4 1.405 . S
C5 H31 0.931 . S
U6 O7 2.454 . S
U6 O8 2.458 . S
U6 C9 2.984 . S
U6 C10 2.847 . S
U6 C23 2.882 . S
U6 O24 2.441 . S
U6 O25 2.420 . S
U6 O26 2.455 . S
U6 O27 2.449 . S
O7 U6 2.454 . S
O7 C9 1.353 . S
O8 U6 2.458 . S
O8 C9 1.286 . S
C9 U6 2.984 . S
C9 O7 1.353 . S
C9 O8 1.286 . S
C9 C11 1.363 . S
C10 C0 1.465 . S
C10 U6 2.847 . S
C10 O24 1.249 . S
C10 O25 1.202 . S
C11 C9 1.363 . S
C11 C13 1.408 . S
C11 C16 1.342 . S
C12 C13 1.310 . S
C12 C15 1.461 . S
C12 H32 0.932 . S
C13 C11 1.408 . S
C13 C12 1.310 . S
C13 H33 0.930 . S
C14 C15 1.474 . S
C14 C16 1.285 . S
C14 H34 0.929 . S
C15 C12 1.461 . S
C15 C14 1.474 . S
C16 C11 1.342 . S
C16 C14 1.285 . S
C16 H35 0.930 . S
C17 C20 1.424 . S
C17 C22 1.245 . S
C17 C23 1.428 . S
C18 C21 1.260 . S
C18 C22 1.477 . S
C18 H36 0.932 . S
C19 C20 1.384 . S
C19 C21 1.479 . S
C19 H37 0.929 . S
C20 C17 1.424 . S
C20 C19 1.384 . S
C20 H38 0.928 . S
C21 C18 1.260 . S
C21 C19 1.479 . S
C22 C17 1.245 . S
C22 C18 1.477 . S
C22 H39 0.932 . S
C23 U6 2.882 . S
C23 C17 1.428 . S
C23 O26 1.301 . S
C23 O27 1.282 . S
O24 U6 2.441 . S
O24 C10 1.249 . S
O25 U6 2.420 . S
O25 C10 1.202 . S
O26 U6 2.455 . S
O26 C23 1.301 . S
O27 U6 2.449 . S
O27 C23 1.282 . S
H28 C1 0.931 . S
H29 C3 0.929 . S
H30 C4 0.930 . S
H31 C5 0.931 . S
H32 C12 0.932 . S
H33 C13 0.930 . S
H34 C14 0.929 . S
H35 C16 0.930 . S
H36 C18 0.932 . S
H37 C19 0.929 . S
H38 C20 0.928 . S
H39 C22 0.932 . S
C40 C41 1.264 . S
C40 C45 1.479 . S
C40 C50 1.465 . S
C41 C40 1.264 . S
C41 C43 1.339 1_556 S
C41 H68 0.931 . S
C42 C43 1.395 . S
C42 C44 1.320 . S
C43 C41 1.339 1_554 S
C43 C42 1.395 . S
C43 H69 0.929 . S
C44 C42 1.320 . S
C44 C45 1.405 1_554 S
C44 H70 0.930 . S
C45 C40 1.479 . S
C45 C44 1.405 1_556 S
C45 H71 0.931 . S
U46 O47 2.454 . S
U46 O48 2.458 . S
U46 C49 2.984 . S
U46 C50 2.847 . S
U46 C63 2.882 . S
U46 O64 2.441 . S
U46 O65 2.420 . S
U46 O66 2.455 . S
U46 O67 2.449 . S
O47 U46 2.454 . S
O47 C49 1.353 . S
O48 U46 2.458 . S
O48 C49 1.286 . S
C49 U46 2.984 . S
C49 O47 1.353 . S
C49 O48 1.286 . S
C49 C51 1.363 . S
C50 C40 1.465 . S
C50 U46 2.847 . S
C50 O64 1.249 . S
C50 O65 1.202 . S
C51 C49 1.363 . S
C51 C53 1.408 . S
C51 C56 1.342 . S
C52 C53 1.310 . S
C52 C55 1.461 . S
C52 H72 0.932 . S
C53 C51 1.408 . S
C53 C52 1.310 . S
C53 H73 0.930 . S
C54 C55 1.474 . S
C54 C56 1.285 . S
C54 H74 0.929 . S
C55 C52 1.461 . S
C55 C54 1.474 . S
C56 C51 1.342 . S
C56 C54 1.285 . S
C56 H75 0.930 . S
C57 C60 1.424 . S
C57 C62 1.245 . S
C57 C63 1.428 . S
C58 C61 1.260 . S
C58 C62 1.477 . S
C58 H76 0.932 . S
C59 C60 1.384 . S
C59 C61 1.479 . S
C59 H77 0.929 . S
C60 C57 1.424 . S
C60 C59 1.384 . S
C60 H78 0.928 . S
C61 C58 1.260 . S
C61 C59 1.479 . S
C62 C57 1.245 . S
C62 C58 1.477 . S
C62 H79 0.932 . S
C63 U46 2.882 . S
C63 C57 1.428 . S
C63 O66 1.301 . S
C63 O67 1.282 . S
O64 U46 2.441 . S
O64 C50 1.249 . S
O65 U46 2.420 . S
O65 C50 1.202 . S
O66 U46 2.455 . S
O66 C63 1.301 . S
O67 U46 2.449 . S
O67 C63 1.282 . S
H68 C41 0.931 . S
H69 C43 0.929 . S
H70 C44 0.930 . S
H71 C45 0.931 . S
H72 C52 0.932 . S
H73 C53 0.930 . S
H74 C54 0.929 . S
H75 C56 0.930 . S
H76 C58 0.932 . S
H77 C59 0.929 . S
H78 C60 0.928 . S
H79 C62 0.932 . S
C80 C81 1.264 . S
C80 C85 1.479 . S
C80 C90 1.465 . S
C81 C80 1.264 . S
C81 C83 1.339 . S
C81 H108 0.931 . S
C82 C83 1.395 . S
C82 C84 1.320 . S
C83 C81 1.339 . S
C83 C82 1.395 . S
C83 H109 0.929 . S
C84 C82 1.320 . S
C84 C85 1.405 . S
C84 H110 0.930 . S
C85 C80 1.479 . S
C85 C84 1.405 . S
C85 H111 0.931 . S
U86 O87 2.454 . S
U86 O88 2.458 . S
U86 C89 2.984 . S
U86 C90 2.847 . S
U86 C103 2.882 . S
U86 O104 2.441 . S
U86 O105 2.420 . S
U86 O106 2.455 . S
U86 O107 2.449 . S
O87 U86 2.454 . S
O87 C89 1.353 . S
O88 U86 2.458 . S
O88 C89 1.286 . S
C89 U86 2.984 . S
C89 O87 1.353 . S
C89 O88 1.286 . S
C89 C91 1.363 . S
C90 C80 1.465 . S
C90 U86 2.847 . S
C90 O104 1.249 . S
C90 O105 1.202 . S
C91 C89 1.363 . S
C91 C93 1.408 . S
C91 C96 1.342 . S
C92 C93 1.310 . S
C92 C95 1.461 . S
C92 H112 0.932 . S
C93 C91 1.408 . S
C93 C92 1.310 . S
C93 H113 0.930 . S
C94 C95 1.474 . S
C94 C96 1.285 . S
C94 H114 0.929 . S
C95 C92 1.461 . S
C95 C94 1.474 . S
C96 C91 1.342 . S
C96 C94 1.285 . S
C96 H115 0.930 . S
C97 C100 1.424 . S
C97 C102 1.245 . S
C97 C103 1.428 . S
C98 C101 1.260 . S
C98 C102 1.477 . S
C98 H116 0.932 . S
C99 C100 1.384 . S
C99 C101 1.479 . S
C99 H117 0.929 . S
C100 C97 1.424 . S
C100 C99 1.384 . S
C100 H118 0.928 . S
C101 C98 1.260 . S
C101 C99 1.479 . S
C102 C97 1.245 . S
C102 C98 1.477 . S
C102 H119 0.932 . S
C103 U86 2.882 . S
C103 C97 1.428 . S
C103 O106 1.301 . S
C103 O107 1.282 . S
O104 U86 2.441 . S
O104 C90 1.249 . S
O105 U86 2.420 . S
O105 C90 1.202 . S
O106 U86 2.455 . S
O106 C103 1.301 . S
O107 U86 2.449 . S
O107 C103 1.282 . S
H108 C81 0.931 . S
H109 C83 0.929 . S
H110 C84 0.930 . S
H111 C85 0.931 . S
H112 C92 0.932 . S
H113 C93 0.930 . S
H114 C94 0.929 . S
H115 C96 0.930 . S
H116 C98 0.932 . S
H117 C99 0.929 . S
H118 C100 0.928 . S
H119 C102 0.932 . S
C120 C121 1.264 . S
C120 C125 1.479 . S
C120 C130 1.465 . S
C121 C120 1.264 . S
C121 C123 1.322 1_554 S
C121 H148 0.931 . S
C122 C123 1.407 . S
C122 C124 1.320 . S
C123 C121 1.322 1_556 S
C123 C122 1.407 . S
C123 H149 0.934 . S
C124 C122 1.320 . S
C124 C125 1.405 1_556 S
C124 H150 0.930 . S
C125 C120 1.479 . S
C125 C124 1.405 1_554 S
C125 H151 0.931 . S
U126 O127 2.454 . S
U126 O128 2.458 . S
U126 C129 2.984 . S
U126 C130 2.847 . S
U126 C143 2.882 . S
U126 O144 2.441 . S
U126 O145 2.420 . S
U126 O146 2.455 . S
U126 O147 2.449 . S
O127 U126 2.454 . S
O127 C129 1.353 . S
O128 U126 2.458 . S
O128 C129 1.286 . S
C129 U126 2.984 . S
C129 O127 1.353 . S
C129 O128 1.286 . S
C129 C131 1.363 . S
C130 C120 1.465 . S
C130 U126 2.847 . S
C130 O144 1.249 . S
C130 O145 1.202 . S
C131 C129 1.363 . S
C131 C133 1.408 . S
C131 C136 1.342 . S
C132 C133 1.310 . S
C132 C135 1.461 . S
C132 H152 0.932 . S
C133 C131 1.408 . S
C133 C132 1.310 . S
C133 H153 0.930 . S
C134 C135 1.474 . S
C134 C136 1.285 . S
C134 H154 0.929 . S
C135 C132 1.461 . S
C135 C134 1.474 . S
C136 C131 1.342 . S
C136 C134 1.285 . S
C136 H155 0.930 . S
C137 C140 1.424 . S
C137 C142 1.245 . S
C137 C143 1.428 . S
C138 C141 1.260 . S
C138 C142 1.477 . S
C138 H156 0.932 . S
C139 C140 1.384 . S
C139 C141 1.479 . S
C139 H157 0.929 . S
C140 C137 1.424 . S
C140 C139 1.384 . S
C140 H158 0.928 . S
C141 C138 1.260 . S
C141 C139 1.479 . S
C142 C137 1.245 . S
C142 C138 1.477 . S
C142 H159 0.932 . S
C143 U126 2.882 . S
C143 C137 1.428 . S
C143 O146 1.301 . S
C143 O147 1.282 . S
O144 U126 2.441 . S
O144 C130 1.249 . S
O145 U126 2.420 . S
O145 C130 1.202 . S
O146 U126 2.455 . S
O146 C143 1.301 . S
O147 U126 2.449 . S
O147 C143 1.282 . S
H148 C121 0.931 . S
H149 C123 0.934 . S
H150 C124 0.930 . S
H151 C125 0.931 . S
H152 C132 0.932 . S
H153 C133 0.930 . S
H154 C134 0.929 . S
H155 C136 0.930 . S
H156 C138 0.932 . S
H157 C139 0.929 . S
H158 C140 0.928 . S
H159 C142 0.932 . S
C160 C161 1.264 . S
C160 C165 1.479 . S
C160 C170 1.465 . S
C161 C160 1.264 . S
C161 C163 1.339 . S
C161 H188 0.931 . S
C162 C163 1.395 . S
C162 C164 1.320 . S
C163 C161 1.339 . S
C163 C162 1.395 . S
C163 H189 0.929 . S
C164 C162 1.320 . S
C164 C165 1.405 . S
C164 H190 0.930 . S
C165 C160 1.479 . S
C165 C164 1.405 . S
C165 H191 0.931 . S
U166 O167 2.454 . S
U166 O168 2.458 . S
U166 C169 2.984 . S
U166 C170 2.847 . S
U166 C183 2.882 . S
U166 O184 2.441 . S
U166 O185 2.420 . S
U166 O186 2.455 . S
U166 O187 2.449 . S
O167 U166 2.454 . S
O167 C169 1.353 . S
O168 U166 2.458 . S
O168 C169 1.286 . S
C169 U166 2.984 . S
C169 O167 1.353 . S
C169 O168 1.286 . S
C169 C171 1.363 . S
C170 C160 1.465 . S
C170 U166 2.847 . S
C170 O184 1.249 . S
C170 O185 1.202 . S
C171 C169 1.363 . S
C171 C173 1.408 . S
C171 C176 1.342 . S
C172 C173 1.310 . S
C172 C175 1.461 . S
C172 H192 0.932 . S
C173 C171 1.408 . S
C173 C172 1.310 . S
C173 H193 0.930 . S
C174 C175 1.474 . S
C174 C176 1.285 . S
C174 H194 0.929 . S
C175 C172 1.461 . S
C175 C174 1.474 . S
C176 C171 1.342 . S
C176 C174 1.285 . S
C176 H195 0.930 . S
C177 C180 1.424 . S
C177 C182 1.245 . S
C177 C183 1.428 . S
C178 C181 1.260 . S
C178 C182 1.477 . S
C178 H196 0.932 . S
C179 C180 1.384 . S
C179 C181 1.479 . S
C179 H197 0.929 . S
C180 C177 1.424 . S
C180 C179 1.384 . S
C180 H198 0.928 . S
C181 C178 1.260 . S
C181 C179 1.479 . S
C182 C177 1.245 . S
C182 C178 1.477 . S
C182 H199 0.932 . S
C183 U166 2.882 . S
C183 C177 1.428 . S
C183 O186 1.301 . S
C183 O187 1.282 . S
O184 U166 2.441 . S
O184 C170 1.249 . S
O185 U166 2.420 . S
O185 C170 1.202 . S
O186 U166 2.455 . S
O186 C183 1.301 . S
O187 U166 2.449 . S
O187 C183 1.282 . S
H188 C161 0.931 . S
H189 C163 0.929 . S
H190 C164 0.930 . S
H191 C165 0.931 . S
H192 C172 0.932 . S
H193 C173 0.930 . S
H194 C174 0.929 . S
H195 C176 0.930 . S
H196 C178 0.932 . S
H197 C179 0.929 . S
H198 C180 0.928 . S
H199 C182 0.932 . S
C200 C201 1.264 . S
C200 C205 1.479 . S
C200 C210 1.465 . S
C201 C200 1.264 . S
C201 C203 1.339 1_554 S
C201 H228 0.931 . S
C202 C203 1.395 . S
C202 C204 1.320 . S
C203 C201 1.339 1_556 S
C203 C202 1.395 . S
C203 H229 0.929 . S
C204 C202 1.320 . S
C204 C205 1.405 1_556 S
C204 H230 0.930 . S
C205 C200 1.479 . S
C205 C204 1.405 1_554 S
C205 H231 0.931 . S
U206 O207 2.454 . S
U206 O208 2.458 . S
U206 C209 2.984 . S
U206 C210 2.847 . S
U206 C223 2.882 . S
U206 O224 2.441 . S
U206 O225 2.420 . S
U206 O226 2.455 . S
U206 O227 2.449 . S
O207 U206 2.454 . S
O207 C209 1.353 . S
O208 U206 2.458 . S
O208 C209 1.286 . S
C209 U206 2.984 . S
C209 O207 1.353 . S
C209 O208 1.286 . S
C209 C211 1.363 . S
C210 C200 1.465 . S
C210 U206 2.847 . S
C210 O224 1.249 . S
C210 O225 1.202 . S
C211 C209 1.363 . S
C211 C213 1.408 . S
C211 C216 1.342 . S
C212 C213 1.310 . S
C212 C215 1.461 . S
C212 H232 0.932 . S
C213 C211 1.408 . S
C213 C212 1.310 . S
C213 H233 0.930 . S
C214 C215 1.474 . S
C214 C216 1.285 . S
C214 H234 0.929 . S
C215 C212 1.461 . S
C215 C214 1.474 . S
C216 C211 1.342 . S
C216 C214 1.285 . S
C216 H235 0.930 . S
C217 C220 1.424 . S
C217 C222 1.245 . S
C217 C223 1.428 . S
C218 C221 1.260 . S
C218 C222 1.477 . S
C218 H236 0.932 . S
C219 C220 1.384 . S
C219 C221 1.479 . S
C219 H237 0.929 . S
C220 C217 1.424 . S
C220 C219 1.384 . S
C220 H238 0.928 . S
C221 C218 1.260 . S
C221 C219 1.479 . S
C222 C217 1.245 . S
C222 C218 1.477 . S
C222 H239 0.932 . S
C223 U206 2.882 . S
C223 C217 1.428 . S
C223 O226 1.301 . S
C223 O227 1.282 . S
O224 U206 2.441 . S
O224 C210 1.249 . S
O225 U206 2.420 . S
O225 C210 1.202 . S
O226 U206 2.455 . S
O226 C223 1.301 . S
O227 U206 2.449 . S
O227 C223 1.282 . S
H228 C201 0.931 . S
H229 C203 0.929 . S
H230 C204 0.930 . S
H231 C205 0.931 . S
H232 C212 0.932 . S
H233 C213 0.930 . S
H234 C214 0.929 . S
H235 C216 0.930 . S
H236 C218 0.932 . S
H237 C219 0.929 . S
H238 C220 0.928 . S
H239 C222 0.932 . S
C240 C241 1.264 . S
C240 C245 1.479 . S
C240 C250 1.465 . S
C241 C240 1.264 . S
C241 C243 1.339 . S
C241 H268 0.931 . S
C242 C243 1.395 . S
C242 C244 1.320 . S
C243 C241 1.339 . S
C243 C242 1.395 . S
C243 H269 0.929 . S
C244 C242 1.320 . S
C244 C245 1.405 . S
C244 H270 0.930 . S
C245 C240 1.479 . S
C245 C244 1.405 . S
C245 H271 0.931 . S
U246 O247 2.454 . S
U246 O248 2.458 . S
U246 C249 2.984 . S
U246 C250 2.847 . S
U246 C263 2.882 . S
U246 O264 2.441 . S
U246 O265 2.420 . S
U246 O266 2.455 . S
U246 O267 2.449 . S
O247 U246 2.454 . S
O247 C249 1.353 . S
O248 U246 2.458 . S
O248 C249 1.286 . S
C249 U246 2.984 . S
C249 O247 1.353 . S
C249 O248 1.286 . S
C249 C251 1.363 . S
C250 C240 1.465 . S
C250 U246 2.847 . S
C250 O264 1.249 . S
C250 O265 1.202 . S
C251 C249 1.363 . S
C251 C253 1.408 . S
C251 C256 1.342 . S
C252 C253 1.310 . S
C252 C255 1.461 . S
C252 H272 0.932 . S
C253 C251 1.408 . S
C253 C252 1.310 . S
C253 H273 0.930 . S
C254 C255 1.474 . S
C254 C256 1.285 . S
C254 H274 0.929 . S
C255 C252 1.461 . S
C255 C254 1.474 . S
C256 C251 1.342 . S
C256 C254 1.285 . S
C256 H275 0.930 . S
C257 C260 1.424 . S
C257 C262 1.245 . S
C257 C263 1.428 . S
C258 C261 1.260 . S
C258 C262 1.477 . S
C258 H276 0.932 . S
C259 C260 1.384 . S
C259 C261 1.479 . S
C259 H277 0.929 . S
C260 C257 1.424 . S
C260 C259 1.384 . S
C260 H278 0.928 . S
C261 C258 1.260 . S
C261 C259 1.479 . S
C262 C257 1.245 . S
C262 C258 1.477 . S
C262 H279 0.932 . S
C263 U246 2.882 . S
C263 C257 1.428 . S
C263 O266 1.301 . S
C263 O267 1.282 . S
O264 U246 2.441 . S
O264 C250 1.249 . S
O265 U246 2.420 . S
O265 C250 1.202 . S
O266 U246 2.455 . S
O266 C263 1.301 . S
O267 U246 2.449 . S
O267 C263 1.282 . S
H268 C241 0.931 . S
H269 C243 0.929 . S
H270 C244 0.930 . S
H271 C245 0.931 . S
H272 C252 0.932 . S
H273 C253 0.930 . S
H274 C254 0.929 . S
H275 C256 0.930 . S
H276 C258 0.932 . S
H277 C259 0.929 . S
H278 C260 0.928 . S
H279 C262 0.932 . S
C280 C281 1.264 . S
C280 C285 1.479 . S
C280 C290 1.465 . S
C281 C280 1.264 . S
C281 C283 1.339 1_556 S
C281 H308 0.931 . S
C282 C283 1.395 . S
C282 C284 1.320 . S
C283 C281 1.339 1_554 S
C283 C282 1.395 . S
C283 H309 0.929 . S
C284 C282 1.320 . S
C284 C285 1.405 1_554 S
C284 H310 0.930 . S
C285 C280 1.479 . S
C285 C284 1.405 1_556 S
C285 H311 0.931 . S
U286 O287 2.454 . S
U286 O288 2.458 . S
U286 C289 2.984 . S
U286 C290 2.847 . S
U286 C303 2.882 . S
U286 O304 2.441 . S
U286 O305 2.420 . S
U286 O306 2.455 . S
U286 O307 2.449 . S
O287 U286 2.454 . S
O287 C289 1.353 . S
O288 U286 2.458 . S
O288 C289 1.286 . S
C289 U286 2.984 . S
C289 O287 1.353 . S
C289 O288 1.286 . S
C289 C291 1.363 . S
C290 C280 1.465 . S
C290 U286 2.847 . S
C290 O304 1.249 . S
C290 O305 1.202 . S
C291 C289 1.363 . S
C291 C293 1.408 . S
C291 C296 1.342 . S
C292 C293 1.310 . S
C292 C295 1.461 . S
C292 H312 0.932 . S
C293 C291 1.408 . S
C293 C292 1.310 . S
C293 H313 0.930 . S
C294 C295 1.474 . S
C294 C296 1.285 . S
C294 H314 0.929 . S
C295 C292 1.461 . S
C295 C294 1.474 . S
C296 C291 1.342 . S
C296 C294 1.285 . S
C296 H315 0.930 . S
C297 C300 1.424 . S
C297 C302 1.245 . S
C297 C303 1.428 . S
C298 C301 1.260 . S
C298 C302 1.477 . S
C298 H316 0.932 . S
C299 C300 1.384 . S
C299 C301 1.479 . S
C299 H317 0.929 . S
C300 C297 1.424 . S
C300 C299 1.384 . S
C300 H318 0.928 . S
C301 C298 1.260 . S
C301 C299 1.479 . S
C302 C297 1.245 . S
C302 C298 1.477 . S
C302 H319 0.932 . S
C303 U286 2.882 . S
C303 C297 1.428 . S
C303 O306 1.301 . S
C303 O307 1.282 . S
O304 U286 2.441 . S
O304 C290 1.249 . S
O305 U286 2.420 . S
O305 C290 1.202 . S
O306 U286 2.455 . S
O306 C303 1.301 . S
O307 U286 2.449 . S
O307 C303 1.282 . S
H308 C281 0.931 . S
H309 C283 0.929 . S
H310 C284 0.930 . S
H311 C285 0.931 . S
H312 C292 0.932 . S
H313 C293 0.930 . S
H314 C294 0.929 . S
H315 C296 0.930 . S
H316 C298 0.932 . S
H317 C299 0.929 . S
H318 C300 0.928 . S
H319 C302 0.932 . S
Zn320 O326 1.920 1_455 S
Zn320 O332 1.898 . S
Zn320 O335 1.905 . S
Zn321 O329 1.905 1_655 S
Zn321 O330 1.898 . S
Zn321 O338 1.920 . S
Zn322 O325 2.080 1_455 S
Zn322 O328 2.114 . S
Zn322 O331 2.120 1_455 S
Zn322 O333 2.120 . S
Zn322 O334 2.114 . S
Zn322 O337 2.080 1_455 S
C323 O328 1.166 . S
C323 O329 1.182 . S
C324 O330 1.167 . S
C324 O331 1.299 . S
O325 Zn322 2.080 1_655 S
O325 C339 1.305 . S
O326 Zn320 1.920 1_655 S
O326 C339 1.234 . S
C327 O332 1.167 . S
C327 O333 1.299 . S
O328 Zn322 2.114 . S
O328 C323 1.166 . S
O329 Zn321 1.905 1_455 S
O329 C323 1.182 . S
O330 Zn321 1.898 . S
O330 C324 1.167 . S
O331 Zn322 2.120 1_655 S
O331 C324 1.299 . S
O332 Zn320 1.898 . S
O332 C327 1.167 . S
O333 Zn322 2.120 . S
O333 C327 1.299 . S
O334 Zn322 2.114 . S
O334 C336 1.166 . S
O335 Zn320 1.905 . S
O335 C336 1.182 . S
C336 O334 1.166 . S
C336 O335 1.182 . S
O337 Zn322 2.080 1_655 S
O337 C340 1.305 . S
O338 Zn321 1.920 . S
O338 C340 1.234 . S
C339 O325 1.305 . S
C339 O326 1.234 . S
C340 O337 1.305 . S
C340 O338 1.234 . S
Zn341 O347 1.920 . S
Zn341 O353 1.898 . S
Zn341 O356 1.905 . S
Zn342 O350 1.905 . S
Zn342 O351 1.898 . S
Zn342 O359 1.920 . S
Zn343 O346 2.080 . S
Zn343 O349 2.114 . S
Zn343 O352 2.120 . S
Zn343 O354 2.120 . S
Zn343 O355 2.114 . S
Zn343 O358 2.080 . S
C344 O349 1.166 . S
C344 O350 1.182 . S
C345 O351 1.167 . S
C345 O352 1.299 . S
O346 Zn343 2.080 . S
O346 C360 1.305 . S
O347 Zn341 1.920 . S
O347 C360 1.234 . S
C348 O353 1.167 . S
C348 O354 1.299 . S
O349 Zn343 2.114 . S
O349 C344 1.166 . S
O350 Zn342 1.905 . S
O350 C344 1.182 . S
O351 Zn342 1.898 . S
O351 C345 1.167 . S
O352 Zn343 2.120 . S
O352 C345 1.299 . S
O353 Zn341 1.898 . S
O353 C348 1.167 . S
O354 Zn343 2.120 . S
O354 C348 1.299 . S
O355 Zn343 2.114 . S
O355 C357 1.166 . S
O356 Zn341 1.905 . S
O356 C357 1.182 . S
C357 O355 1.166 . S
C357 O356 1.182 . S
O358 Zn343 2.080 . S
O358 C361 1.305 . S
O359 Zn342 1.920 . S
O359 C361 1.234 . S
C360 O346 1.305 . S
C360 O347 1.234 . S
C361 O358 1.305 . S
C361 O359 1.234 . S
Zn362 O368 1.920 . S
Zn362 O374 1.898 . S
Zn362 O377 1.905 . S
Zn363 O371 1.905 . S
Zn363 O372 1.898 . S
Zn363 O380 1.920 1_655 S
Zn364 O367 2.080 . S
Zn364 O370 2.114 1_455 S
Zn364 O373 2.120 1_455 S
Zn364 O375 2.120 . S
Zn364 O376 2.114 1_455 S
Zn364 O379 2.080 . S
C365 O370 1.166 . S
C365 O371 1.182 . S
C366 O372 1.167 . S
C366 O373 1.299 . S
O367 Zn364 2.080 . S
O367 C381 1.305 . S
O368 Zn362 1.920 . S
O368 C381 1.234 . S
C369 O374 1.167 . S
C369 O375 1.299 . S
O370 Zn364 2.114 1_655 S
O370 C365 1.166 . S
O371 Zn363 1.905 . S
O371 C365 1.182 . S
O372 Zn363 1.898 . S
O372 C366 1.167 . S
O373 Zn364 2.120 1_655 S
O373 C366 1.299 . S
O374 Zn362 1.898 . S
O374 C369 1.167 . S
O375 Zn364 2.120 . S
O375 C369 1.299 . S
O376 Zn364 2.114 1_655 S
O376 C378 1.166 . S
O377 Zn362 1.905 . S
O377 C378 1.182 1_455 S
C378 O376 1.166 . S
C378 O377 1.182 1_655 S
O379 Zn364 2.080 . S
O379 C382 1.305 . S
O380 Zn363 1.920 1_455 S
O380 C382 1.234 . S
C381 O367 1.305 . S
C381 O368 1.234 . S
C382 O379 1.305 . S
C382 O380 1.234 . S
Zn383 O389 1.920 . S
Zn383 O395 1.898 . S
Zn383 O398 1.905 . S
Zn384 O392 1.905 . S
Zn384 O393 1.898 . S
Zn384 O401 1.920 . S
Zn385 O388 2.080 . S
Zn385 O391 2.114 . S
Zn385 O394 2.120 . S
Zn385 O396 2.120 . S
Zn385 O397 2.114 . S
Zn385 O400 2.080 . S
C386 O391 1.166 . S
C386 O392 1.182 . S
C387 O393 1.167 . S
C387 O394 1.299 . S
O388 Zn385 2.080 . S
O388 C402 1.305 . S
O389 Zn383 1.920 . S
O389 C402 1.234 . S
C390 O395 1.167 . S
C390 O396 1.299 . S
O391 Zn385 2.114 . S
O391 C386 1.166 . S
O392 Zn384 1.905 . S
O392 C386 1.182 . S
O393 Zn384 1.898 . S
O393 C387 1.167 . S
O394 Zn385 2.120 . S
O394 C387 1.299 . S
O395 Zn383 1.898 . S
O395 C390 1.167 . S
O396 Zn385 2.120 . S
O396 C390 1.299 . S
O397 Zn385 2.114 . S
O397 C399 1.166 . S
O398 Zn383 1.905 . S
O398 C399 1.182 . S
C399 O397 1.166 . S
C399 O398 1.182 . S
O400 Zn385 2.080 . S
O400 C403 1.305 . S
O401 Zn384 1.920 . S
O401 C403 1.234 . S
C402 O388 1.305 . S
C402 O389 1.234 . S
C403 O400 1.305 . S
C403 O401 1.234 . S
H404 C416 0.930 . S
H405 C418 0.930 . S
H406 C419 0.930 . S
H407 C423 0.959 . S
H408 C423 0.959 . S
H409 C423 0.974 . S
H410 C424 0.960 . S
H411 C424 0.961 . S
H412 C424 0.959 . S
H413 C427 0.929 . S
H414 C428 0.931 . S
H415 C430 0.930 . S
C416 H404 0.930 . S
C416 C417 1.399 . S
C416 C421 1.399 1_565 S
C417 C416 1.399 . S
C417 C418 1.376 . S
C418 H405 0.930 . S
C418 C417 1.376 . S
C418 C419 1.388 1_565 S
C419 H406 0.930 . S
C419 C418 1.388 1_545 S
C419 C420 1.390 . S
C420 C419 1.390 . S
C420 C421 1.394 . S
C420 C426 1.465 . S
C421 C416 1.399 1_545 S
C421 C420 1.394 . S
C421 C422 1.516 . S
C422 C421 1.516 . S
C422 C423 1.502 . S
C422 C424 1.561 . S
C422 C425 1.526 . S
C423 H407 0.959 . S
C423 H408 0.959 . S
C423 H409 0.974 . S
C423 C422 1.502 . S
C424 H410 0.960 . S
C424 H411 0.961 . S
C424 H412 0.959 . S
C424 C422 1.561 . S
C425 C422 1.526 . S
C425 C426 1.396 . S
C425 C430 1.390 . S
C426 C420 1.465 . S
C426 C425 1.396 . S
C426 C427 1.399 . S
C427 H413 0.929 . S
C427 C426 1.399 . S
C427 C428 1.385 . S
C428 H414 0.931 . S
C428 C427 1.385 . S
C428 C429 1.389 . S
C429 C428 1.389 . S
C429 C430 1.387 . S
C430 H415 0.930 . S
C430 C425 1.390 . S
C430 C429 1.387 . S
H431 C443 0.930 . S
H432 C445 0.930 . S
H433 C446 0.930 . S
H434 C450 0.959 . S
H435 C450 0.959 . S
H436 C450 0.961 . S
H437 C451 0.960 . S
H438 C451 0.961 . S
H439 C451 0.959 . S
H440 C454 0.929 . S
H441 C455 0.931 . S
H442 C457 0.930 . S
C443 H431 0.930 . S
C443 C444 1.399 . S
C443 C448 1.399 . S
C444 C443 1.399 . S
C444 C445 1.376 . S
C445 H432 0.930 . S
C445 C444 1.376 . S
C445 C446 1.388 . S
C446 H433 0.930 . S
C446 C445 1.388 . S
C446 C447 1.390 . S
C447 C446 1.390 . S
C447 C448 1.394 . S
C447 C453 1.465 . S
C448 C443 1.399 . S
C448 C447 1.394 . S
C448 C449 1.516 . S
C449 C448 1.516 . S
C449 C450 1.502 . S
C449 C451 1.561 . S
C449 C452 1.526 . S
C450 H434 0.959 . S
C450 H435 0.959 . S
C450 H436 0.961 . S
C450 C449 1.502 . S
C451 H437 0.960 . S
C451 H438 0.961 . S
C451 H439 0.959 . S
C451 C449 1.561 . S
C452 C449 1.526 . S
C452 C453 1.396 . S
C452 C457 1.390 . S
C453 C447 1.465 . S
C453 C452 1.396 . S
C453 C454 1.399 . S
C454 H440 0.929 . S
C454 C453 1.399 . S
C454 C455 1.385 . S
C455 H441 0.931 . S
C455 C454 1.385 . S
C455 C456 1.389 . S
C456 C455 1.389 . S
C456 C457 1.387 . S
C457 H442 0.930 . S
C457 C452 1.390 . S
C457 C456 1.387 . S
H458 C470 0.930 . S
H459 C472 0.930 . S
H460 C473 0.930 . S
H461 C477 0.959 . S
H462 C477 0.959 . S
H463 C477 0.961 . S
H464 C478 0.960 . S
H465 C478 0.961 . S
H466 C478 0.959 . S
H467 C481 0.929 . S
H468 C482 0.931 . S
H469 C484 0.930 . S
C470 H458 0.930 . S
C470 C471 1.399 . S
C470 C475 1.399 . S
C471 C470 1.399 . S
C471 C472 1.376 . S
C472 H459 0.930 . S
C472 C471 1.376 . S
C472 C473 1.388 . S
C473 H460 0.930 . S
C473 C472 1.388 . S
C473 C474 1.390 . S
C474 C473 1.390 . S
C474 C475 1.394 . S
C474 C480 1.465 . S
C475 C470 1.399 . S
C475 C474 1.394 . S
C475 C476 1.516 . S
C476 C475 1.516 . S
C476 C477 1.502 . S
C476 C478 1.561 . S
C476 C479 1.526 . S
C477 H461 0.959 . S
C477 H462 0.959 . S
C477 H463 0.961 . S
C477 C476 1.502 . S
C478 H464 0.960 . S
C478 H465 0.961 . S
C478 H466 0.959 . S
C478 C476 1.561 . S
C479 C476 1.526 . S
C479 C480 1.396 . S
C479 C484 1.390 . S
C480 C474 1.465 . S
C480 C479 1.396 . S
C480 C481 1.399 . S
C481 H467 0.929 . S
C481 C480 1.399 . S
C481 C482 1.385 . S
C482 H468 0.931 . S
C482 C481 1.385 . S
C482 C483 1.389 . S
C483 C482 1.389 . S
C483 C484 1.387 . S
C484 H469 0.930 . S
C484 C479 1.390 . S
C484 C483 1.387 . S
H485 C497 0.930 . S
H486 C499 0.930 . S
H487 C500 0.930 . S
H488 C504 0.959 . S
H489 C504 0.959 . S
H490 C504 0.961 . S
H491 C505 0.946 1_565 S
H492 C505 0.961 . S
H493 C505 0.959 . S
H494 C508 0.929 . S
H495 C509 0.931 . S
H496 C511 0.930 . S
C497 H485 0.930 . S
C497 C498 1.399 . S
C497 C502 1.399 1_565 S
C498 C497 1.399 . S
C498 C499 1.376 . S
C499 H486 0.930 . S
C499 C498 1.376 . S
C499 C500 1.388 . S
C500 H487 0.930 . S
C500 C499 1.388 . S
C500 C501 1.390 1_565 S
C501 C500 1.390 1_545 S
C501 C502 1.394 . S
C501 C507 1.465 . S
C502 C497 1.399 1_545 S
C502 C501 1.394 . S
C502 C503 1.516 . S
C503 C502 1.516 . S
C503 C504 1.502 . S
C503 C505 1.561 . S
C503 C506 1.526 . S
C504 H488 0.959 . S
C504 H489 0.959 . S
C504 H490 0.961 . S
C504 C503 1.502 . S
C505 H491 0.946 1_545 S
C505 H492 0.961 . S
C505 H493 0.959 . S
C505 C503 1.561 . S
C506 C503 1.526 . S
C506 C507 1.396 . S
C506 C511 1.390 . S
C507 C501 1.465 . S
C507 C506 1.396 . S
C507 C508 1.399 . S
C508 H494 0.929 . S
C508 C507 1.399 . S
C508 C509 1.385 . S
C509 H495 0.931 . S
C509 C508 1.385 . S
C509 C510 1.389 . S
C510 C509 1.389 . S
C510 C511 1.387 . S
C511 H496 0.930 . S
C511 C506 1.390 . S
C511 C510 1.387 . S
H512 C524 0.930 . S
H513 C526 0.930 . S
H514 C527 0.930 . S
H515 C531 0.959 . S
H516 C531 0.959 . S
H517 C531 0.961 . S
H518 C532 0.960 . S
H519 C532 0.961 . S
H520 C532 0.959 . S
H521 C535 0.929 . S
H522 C536 0.931 . S
H523 C538 0.930 . S
C524 H512 0.930 . S
C524 C525 1.399 . S
C524 C529 1.399 1_545 S
C525 C524 1.399 . S
C525 C526 1.376 . S
C526 H513 0.930 . S
C526 C525 1.376 . S
C526 C527 1.388 . S
C527 H514 0.930 . S
C527 C526 1.388 . S
C527 C528 1.390 1_545 S
C528 C527 1.390 1_565 S
C528 C529 1.394 . S
C528 C534 1.465 . S
C529 C524 1.399 1_565 S
C529 C528 1.394 . S
C529 C530 1.516 . S
C530 C529 1.516 . S
C530 C531 1.502 . S
C530 C532 1.561 . S
C530 C533 1.526 . S
C531 H515 0.959 . S
C531 H516 0.959 . S
C531 H517 0.961 . S
C531 C530 1.502 . S
C532 H518 0.960 . S
C532 H519 0.961 . S
C532 H520 0.959 . S
C532 C530 1.561 . S
C533 C530 1.526 . S
C533 C534 1.396 . S
C533 C538 1.390 . S
C534 C528 1.465 . S
C534 C533 1.396 . S
C534 C535 1.399 . S
C535 H521 0.929 . S
C535 C534 1.399 . S
C535 C536 1.385 . S
C536 H522 0.931 . S
C536 C535 1.385 . S
C536 C537 1.389 . S
C537 C536 1.389 . S
C537 C538 1.387 . S
C538 H523 0.930 . S
C538 C533 1.390 . S
C538 C537 1.387 . S
H539 C551 0.930 . S
H540 C553 0.930 . S
H541 C554 0.930 . S
H542 C558 0.959 . S
H543 C558 0.959 . S
H544 C558 0.961 . S
H545 C559 0.960 . S
H546 C559 0.961 . S
H547 C559 0.959 . S
H548 C562 0.929 . S
H549 C563 0.931 . S
H550 C565 0.930 . S
C551 H539 0.930 . S
C551 C552 1.399 . S
C551 C556 1.399 . S
C552 C551 1.399 . S
C552 C553 1.376 . S
C553 H540 0.930 . S
C553 C552 1.376 . S
C553 C554 1.388 . S
C554 H541 0.930 . S
C554 C553 1.388 . S
C554 C555 1.390 . S
C555 C554 1.390 . S
C555 C556 1.394 . S
C555 C561 1.465 . S
C556 C551 1.399 . S
C556 C555 1.394 . S
C556 C557 1.516 . S
C557 C556 1.516 . S
C557 C558 1.502 . S
C557 C559 1.561 . S
C557 C560 1.526 . S
C558 H542 0.959 . S
C558 H543 0.959 . S
C558 H544 0.961 . S
C558 C557 1.502 . S
C559 H545 0.960 . S
C559 H546 0.961 . S
C559 H547 0.959 . S
C559 C557 1.561 . S
C560 C557 1.526 . S
C560 C561 1.396 . S
C560 C565 1.390 . S
C561 C555 1.465 . S
C561 C560 1.396 . S
C561 C562 1.399 . S
C562 H548 0.929 . S
C562 C561 1.399 . S
C562 C563 1.385 . S
C563 H549 0.931 . S
C563 C562 1.385 . S
C563 C564 1.389 . S
C564 C563 1.389 . S
C564 C565 1.387 . S
C565 H550 0.930 . S
C565 C560 1.390 . S
C565 C564 1.387 . S
H566 C578 0.930 . S
H567 C580 0.930 . S
H568 C581 0.930 . S
H569 C585 0.959 . S
H570 C585 0.959 . S
H571 C585 0.961 . S
H572 C586 0.960 . S
H573 C586 0.961 . S
H574 C586 0.959 . S
H575 C589 0.929 . S
H576 C590 0.931 . S
H577 C592 0.930 . S
C578 H566 0.930 . S
C578 C579 1.399 . S
C578 C583 1.399 . S
C579 C578 1.399 . S
C579 C580 1.376 . S
C580 H567 0.930 . S
C580 C579 1.376 . S
C580 C581 1.388 . S
C581 H568 0.930 . S
C581 C580 1.388 . S
C581 C582 1.390 . S
C582 C581 1.390 . S
C582 C583 1.394 . S
C582 C588 1.465 . S
C583 C578 1.399 . S
C583 C582 1.394 . S
C583 C584 1.516 . S
C584 C583 1.516 . S
C584 C585 1.502 . S
C584 C586 1.561 . S
C584 C587 1.526 . S
C585 H569 0.959 . S
C585 H570 0.959 . S
C585 H571 0.961 . S
C585 C584 1.502 . S
C586 H572 0.960 . S
C586 H573 0.961 . S
C586 H574 0.959 . S
C586 C584 1.561 . S
C587 C584 1.526 . S
C587 C588 1.396 . S
C587 C592 1.390 . S
C588 C582 1.465 . S
C588 C587 1.396 . S
C588 C589 1.399 . S
C589 H575 0.929 . S
C589 C588 1.399 . S
C589 C590 1.385 . S
C590 H576 0.931 . S
C590 C589 1.385 . S
C590 C591 1.389 . S
C591 C590 1.389 . S
C591 C592 1.387 . S
C592 H577 0.930 . S
C592 C587 1.390 . S
C592 C591 1.387 . S
H593 C605 0.930 . S
H594 C607 0.930 . S
H595 C608 0.930 . S
H596 C612 0.959 . S
H597 C612 0.959 . S
H598 C612 0.961 . S
H599 C613 0.960 . S
H600 C613 0.961 . S
H601 C613 0.959 . S
H602 C616 0.929 . S
H603 C617 0.931 . S
H604 C619 0.930 . S
C605 H593 0.930 . S
C605 C606 1.399 . S
C605 C610 1.399 1_545 S
C606 C605 1.399 . S
C606 C607 1.376 . S
C607 H594 0.930 . S
C607 C606 1.376 . S
C607 C608 1.388 . S
C608 H595 0.930 . S
C608 C607 1.388 . S
C608 C609 1.390 1_545 S
C609 C608 1.390 1_565 S
C609 C610 1.394 . S
C609 C615 1.465 . S
C610 C605 1.399 1_565 S
C610 C609 1.394 . S
C610 C611 1.516 . S
C611 C610 1.516 . S
C611 C612 1.502 . S
C611 C613 1.561 . S
C611 C614 1.526 . S
C612 H596 0.959 . S
C612 H597 0.959 . S
C612 H598 0.961 . S
C612 C611 1.502 . S
C613 H599 0.960 . S
C613 H600 0.961 . S
C613 H601 0.959 . S
C613 C611 1.561 . S
C614 C611 1.526 . S
C614 C615 1.396 . S
C614 C619 1.390 . S
C615 C609 1.465 . S
C615 C614 1.396 . S
C615 C616 1.399 . S
C616 H602 0.929 . S
C616 C615 1.399 . S
C616 C617 1.385 . S
C617 H603 0.931 . S
C617 C616 1.385 . S
C617 C618 1.389 . S
C618 C617 1.389 . S
C618 C619 1.387 . S
C619 H604 0.930 . S
C619 C614 1.390 . S
C619 C618 1.387 . S
H620 C632 0.930 . S
H621 C634 0.930 . S
H622 C635 0.930 . S
H623 C639 0.959 . S
H624 C639 0.959 . S
H625 C639 0.961 . S
H626 C640 0.960 . S
H627 C640 0.961 . S
H628 C640 0.959 . S
H629 C643 0.929 . S
H630 C644 0.931 . S
H631 C646 0.930 . S
C632 H620 0.930 . S
C632 C633 1.399 . S
C632 C637 1.399 . S
C633 C632 1.399 . S
C633 C634 1.376 . S
C634 H621 0.930 . S
C634 C633 1.376 . S
C634 C635 1.388 . S
C635 H622 0.930 . S
C635 C634 1.388 . S
C635 C636 1.390 . S
C636 C635 1.390 . S
C636 C637 1.394 . S
C636 C642 1.465 . S
C637 C632 1.399 . S
C637 C636 1.394 . S
C637 C638 1.516 . S
C638 C637 1.516 . S
C638 C639 1.502 . S
C638 C640 1.561 . S
C638 C641 1.526 . S
C639 H623 0.959 . S
C639 H624 0.959 . S
C639 H625 0.961 . S
C639 C638 1.502 . S
C640 H626 0.960 . S
C640 H627 0.961 . S
C640 H628 0.959 . S
C640 C638 1.561 . S
C641 C638 1.526 . S
C641 C642 1.396 . S
C641 C646 1.390 . S
C642 C636 1.465 . S
C642 C641 1.396 . S
C642 C643 1.399 . S
C643 H629 0.929 . S
C643 C642 1.399 . S
C643 C644 1.385 . S
C644 H630 0.931 . S
C644 C643 1.385 . S
C644 C645 1.389 . S
C645 C644 1.389 . S
C645 C646 1.387 . S
C646 H631 0.930 . S
C646 C641 1.390 . S
C646 C645 1.387 . S
H647 C659 0.930 . S
H648 C661 0.930 . S
H649 C662 0.930 . S
H650 C666 0.959 . S
H651 C666 0.959 . S
H652 C666 0.961 . S
H653 C667 0.960 . S
H654 C667 0.961 . S
H655 C667 0.959 . S
H656 C670 0.929 . S
H657 C671 0.931 . S
H658 C673 0.930 . S
C659 H647 0.930 . S
C659 C660 1.399 . S
C659 C664 1.399 . S
C660 C659 1.399 . S
C660 C661 1.376 . S
C661 H648 0.930 . S
C661 C660 1.376 . S
C661 C662 1.388 . S
C662 H649 0.930 . S
C662 C661 1.388 . S
C662 C663 1.390 . S
C663 C662 1.390 . S
C663 C664 1.394 . S
C663 C669 1.465 . S
C664 C659 1.399 . S
C664 C663 1.394 . S
C664 C665 1.516 . S
C665 C664 1.516 . S
C665 C666 1.502 . S
C665 C667 1.561 . S
C665 C668 1.526 . S
C666 H650 0.959 . S
C666 H651 0.959 . S
C666 H652 0.961 . S
C666 C665 1.502 . S
C667 H653 0.960 . S
C667 H654 0.961 . S
C667 H655 0.959 . S
C667 C665 1.561 . S
C668 C665 1.526 . S
C668 C669 1.396 . S
C668 C673 1.390 . S
C669 C663 1.465 . S
C669 C668 1.396 . S
C669 C670 1.399 . S
C670 H656 0.929 . S
C670 C669 1.399 . S
C670 C671 1.385 . S
C671 H657 0.931 . S
C671 C670 1.385 . S
C671 C672 1.389 . S
C672 C671 1.389 . S
C672 C673 1.387 . S
C673 H658 0.930 . S
C673 C668 1.390 . S
C673 C672 1.387 . S
H674 C686 0.930 . S
H675 C688 0.930 . S
H676 C689 0.930 . S
H677 C693 0.959 . S
H678 C693 0.959 . S
H679 C693 0.961 . S
H680 C694 0.960 . S
H681 C694 0.961 . S
H682 C694 0.959 . S
H683 C697 0.929 . S
H684 C698 0.931 . S
H685 C700 0.930 . S
C686 H674 0.930 . S
C686 C687 1.399 . S
C686 C691 1.399 . S
C687 C686 1.399 . S
C687 C688 1.376 . S
C688 H675 0.930 . S
C688 C687 1.376 . S
C688 C689 1.388 . S
C689 H676 0.930 . S
C689 C688 1.388 . S
C689 C690 1.390 . S
C690 C689 1.390 . S
C690 C691 1.394 . S
C690 C696 1.465 . S
C691 C686 1.399 . S
C691 C690 1.394 . S
C691 C692 1.516 . S
C692 C691 1.516 . S
C692 C693 1.502 . S
C692 C694 1.561 . S
C692 C695 1.526 . S
C693 H677 0.959 . S
C693 H678 0.959 . S
C693 H679 0.961 . S
C693 C692 1.502 . S
C694 H680 0.960 . S
C694 H681 0.961 . S
C694 H682 0.959 . S
C694 C692 1.561 . S
C695 C692 1.526 . S
C695 C696 1.396 . S
C695 C700 1.390 . S
C696 C690 1.465 . S
C696 C695 1.396 . S
C696 C697 1.399 . S
C697 H683 0.929 . S
C697 C696 1.399 . S
C697 C698 1.385 . S
C698 H684 0.931 . S
C698 C697 1.385 . S
C698 C699 1.389 . S
C699 C698 1.389 . S
C699 C700 1.387 . S
C700 H685 0.930 . S
C700 C695 1.390 . S
C700 C699 1.387 . S
H701 C713 0.930 . S
H702 C715 0.930 . S
H703 C716 0.930 . S
H704 C720 0.959 . S
H705 C720 0.959 . S
H706 C720 0.961 . S
H707 C721 0.960 . S
H708 C721 0.961 . S
H709 C721 0.959 . S
H710 C724 0.929 . S
H711 C725 0.931 . S
H712 C727 0.930 . S
C713 H701 0.930 . S
C713 C714 1.399 . S
C713 C718 1.399 . S
C714 C713 1.399 . S
C714 C715 1.376 . S
C715 H702 0.930 . S
C715 C714 1.376 . S
C715 C716 1.388 . S
C716 H703 0.930 . S
C716 C715 1.388 . S
C716 C717 1.390 . S
C717 C716 1.390 . S
C717 C718 1.394 . S
C717 C723 1.465 . S
C718 C713 1.399 . S
C718 C717 1.394 . S
C718 C719 1.516 . S
C719 C718 1.516 . S
C719 C720 1.502 . S
C719 C721 1.561 . S
C719 C722 1.526 . S
C720 H704 0.959 . S
C720 H705 0.959 . S
C720 H706 0.961 . S
C720 C719 1.502 . S
C721 H707 0.960 . S
C721 H708 0.961 . S
C721 H709 0.959 . S
C721 C719 1.561 . S
C722 C719 1.526 . S
C722 C723 1.396 . S
C722 C727 1.390 . S
C723 C717 1.465 . S
C723 C722 1.396 . S
C723 C724 1.399 . S
C724 H710 0.929 . S
C724 C723 1.399 . S
C724 C725 1.385 . S
C725 H711 0.931 . S
C725 C724 1.385 . S
C725 C726 1.389 . S
C726 C725 1.389 . S
C726 C727 1.387 . S
C727 H712 0.930 . S
C727 C722 1.390 . S
C727 C726 1.387 . S
H728 C740 0.930 . S
H729 C742 0.930 . S
H730 C743 0.930 . S
H731 C747 0.959 . S
H732 C747 0.959 . S
H733 C747 0.961 . S
H734 C748 0.960 . S
H735 C748 0.961 . S
H736 C748 0.959 . S
H737 C751 0.929 . S
H738 C752 0.931 . S
H739 C754 0.930 . S
C740 H728 0.930 . S
C740 C741 1.399 . S
C740 C745 1.399 . S
C741 C740 1.399 . S
C741 C742 1.376 . S
C742 H729 0.930 . S
C742 C741 1.376 . S
C742 C743 1.388 . S
C743 H730 0.930 . S
C743 C742 1.388 . S
C743 C744 1.390 . S
C744 C743 1.390 . S
C744 C745 1.394 . S
C744 C750 1.465 . S
C745 C740 1.399 . S
C745 C744 1.394 . S
C745 C746 1.516 . S
C746 C745 1.516 . S
C746 C747 1.502 . S
C746 C748 1.561 . S
C746 C749 1.526 . S
C747 H731 0.959 . S
C747 H732 0.959 . S
C747 H733 0.961 . S
C747 C746 1.502 . S
C748 H734 0.960 . S
C748 H735 0.961 . S
C748 H736 0.959 . S
C748 C746 1.561 . S
C749 C746 1.526 . S
C749 C750 1.396 . S
C749 C754 1.390 . S
C750 C744 1.465 . S
C750 C749 1.396 . S
C750 C751 1.399 . S
C751 H737 0.929 . S
C751 C750 1.399 . S
C751 C752 1.385 . S
C752 H738 0.931 . S
C752 C751 1.385 . S
C752 C753 1.389 . S
C753 C752 1.389 . S
C753 C754 1.387 . S
C754 H739 0.930 . S
C754 C749 1.390 . S
C754 C753 1.387 . S
H755 C767 0.930 . S
H756 C769 0.930 . S
H757 C770 0.930 . S
H758 C774 0.959 . S
H759 C774 0.959 . S
H760 C774 0.961 . S
H761 C775 0.960 . S
H762 C775 0.961 . S
H763 C775 0.959 . S
H764 C778 0.929 . S
H765 C779 0.931 . S
H766 C781 0.930 . S
C767 H755 0.930 . S
C767 C768 1.399 . S
C767 C772 1.399 . S
C768 C767 1.399 . S
C768 C769 1.376 . S
C769 H756 0.930 . S
C769 C768 1.376 . S
C769 C770 1.388 . S
C770 H757 0.930 . S
C770 C769 1.388 . S
C770 C771 1.390 . S
C771 C770 1.390 . S
C771 C772 1.394 . S
C771 C777 1.465 . S
C772 C767 1.399 . S
C772 C771 1.394 . S
C772 C773 1.516 . S
C773 C772 1.516 . S
C773 C774 1.502 . S
C773 C775 1.561 . S
C773 C776 1.526 . S
C774 H758 0.959 . S
C774 H759 0.959 . S
C774 H760 0.961 . S
C774 C773 1.502 . S
C775 H761 0.960 . S
C775 H762 0.961 . S
C775 H763 0.959 . S
C775 C773 1.561 . S
C776 C773 1.526 . S
C776 C777 1.396 . S
C776 C781 1.390 . S
C777 C771 1.465 . S
C777 C776 1.396 . S
C777 C778 1.399 . S
C778 H764 0.929 . S
C778 C777 1.399 . S
C778 C779 1.385 . S
C779 H765 0.931 . S
C779 C778 1.385 . S
C779 C780 1.389 . S
C780 C779 1.389 . S
C780 C781 1.387 . S
C781 H766 0.930 . S
C781 C776 1.390 . S
C781 C780 1.387 . S
H782 C794 0.930 . S
H783 C796 0.930 . S
H784 C797 0.930 . S
H785 C801 0.959 . S
H786 C801 0.959 . S
H787 C801 0.961 . S
H788 C802 0.960 . S
H789 C802 0.961 . S
H790 C802 0.959 . S
H791 C805 0.929 . S
H792 C806 0.931 . S
H793 C808 0.930 . S
C794 H782 0.930 . S
C794 C795 1.399 . S
C794 C799 1.399 . S
C795 C794 1.399 . S
C795 C796 1.376 . S
C796 H783 0.930 . S
C796 C795 1.376 . S
C796 C797 1.388 . S
C797 H784 0.930 . S
C797 C796 1.388 . S
C797 C798 1.390 . S
C798 C797 1.390 . S
C798 C799 1.394 . S
C798 C804 1.465 . S
C799 C794 1.399 . S
C799 C798 1.394 . S
C799 C800 1.516 . S
C800 C799 1.516 . S
C800 C801 1.502 . S
C800 C802 1.561 . S
C800 C803 1.526 . S
C801 H785 0.959 . S
C801 H786 0.959 . S
C801 H787 0.961 . S
C801 C800 1.502 . S
C802 H788 0.960 . S
C802 H789 0.961 . S
C802 H790 0.959 . S
C802 C800 1.561 . S
C803 C800 1.526 . S
C803 C804 1.396 . S
C803 C808 1.390 . S
C804 C798 1.465 . S
C804 C803 1.396 . S
C804 C805 1.399 . S
C805 H791 0.929 . S
C805 C804 1.399 . S
C805 C806 1.385 . S
C806 H792 0.931 . S
C806 C805 1.385 . S
C806 C807 1.389 . S
C807 C806 1.389 . S
C807 C808 1.387 . S
C808 H793 0.930 . S
C808 C803 1.390 . S
C808 C807 1.387 . S
H809 C821 0.930 . S
H810 C823 0.930 . S
H811 C824 0.930 . S
H812 C828 0.959 . S
H813 C828 0.959 . S
H814 C828 0.961 . S
H815 C829 0.960 . S
H816 C829 0.961 . S
H817 C829 0.959 . S
H818 C832 0.929 . S
H819 C833 0.931 . S
H820 C835 0.930 . S
C821 H809 0.930 . S
C821 C822 1.399 . S
C821 C826 1.399 . S
C822 C821 1.399 . S
C822 C823 1.376 . S
C823 H810 0.930 . S
C823 C822 1.376 . S
C823 C824 1.388 . S
C824 H811 0.930 . S
C824 C823 1.388 . S
C824 C825 1.390 . S
C825 C824 1.390 . S
C825 C826 1.394 . S
C825 C831 1.465 . S
C826 C821 1.399 . S
C826 C825 1.394 . S
C826 C827 1.516 . S
C827 C826 1.516 . S
C827 C828 1.502 . S
C827 C829 1.561 . S
C827 C830 1.526 . S
C828 H812 0.959 . S
C828 H813 0.959 . S
C828 H814 0.961 . S
C828 C827 1.502 . S
C829 H815 0.960 . S
C829 H816 0.961 . S
C829 H817 0.959 . S
C829 C827 1.561 . S
C830 C827 1.526 . S
C830 C831 1.396 . S
C830 C835 1.390 . S
C831 C825 1.465 . S
C831 C830 1.396 . S
C831 C832 1.399 . S
C832 H818 0.929 . S
C832 C831 1.399 . S
C832 C833 1.385 . S
C833 H819 0.931 . S
C833 C832 1.385 . S
C833 C834 1.389 . S
C834 C833 1.389 . S
C834 C835 1.387 . S
C835 H820 0.930 . S
C835 C830 1.390 . S
C835 C834 1.387 . S
H836 C848 0.930 . S
H837 C850 0.930 . S
H838 C851 0.930 . S
H839 C855 0.959 . S
H840 C855 0.959 . S
H841 C855 0.961 . S
H842 C856 0.960 . S
H843 C856 0.961 . S
H844 C856 0.959 . S
H845 C859 0.929 . S
H846 C860 0.931 . S
H847 C862 0.930 . S
C848 H836 0.930 . S
C848 C849 1.399 . S
C848 C853 1.399 . S
C849 C848 1.399 . S
C849 C850 1.376 . S
C850 H837 0.930 . S
C850 C849 1.376 . S
C850 C851 1.388 . S
C851 H838 0.930 . S
C851 C850 1.388 . S
C851 C852 1.390 . S
C852 C851 1.390 . S
C852 C853 1.394 . S
C852 C858 1.465 . S
C853 C848 1.399 . S
C853 C852 1.394 . S
C853 C854 1.516 . S
C854 C853 1.516 . S
C854 C855 1.502 . S
C854 C856 1.561 . S
C854 C857 1.526 . S
C855 H839 0.959 . S
C855 H840 0.959 . S
C855 H841 0.961 . S
C855 C854 1.502 . S
C856 H842 0.960 . S
C856 H843 0.961 . S
C856 H844 0.959 . S
C856 C854 1.561 . S
C857 C854 1.526 . S
C857 C858 1.396 . S
C857 C862 1.390 . S
C858 C852 1.465 . S
C858 C857 1.396 . S
C858 C859 1.399 . S
C859 H845 0.929 . S
C859 C858 1.399 . S
C859 C860 1.385 . S
C860 H846 0.931 . S
C860 C859 1.385 . S
C860 C861 1.389 . S
C861 C860 1.389 . S
C861 C862 1.387 . S
C862 H847 0.930 . S
C862 C857 1.390 . S
C862 C861 1.387 . S
H863 C875 0.930 . S
H864 C877 0.930 . S
H865 C878 0.930 . S
H866 C882 0.959 . S
H867 C882 0.959 . S
H868 C882 0.961 . S
H869 C883 0.960 . S
H870 C883 0.961 . S
H871 C883 0.959 . S
H872 C886 0.929 . S
H873 C887 0.931 . S
H874 C889 0.930 . S
C875 H863 0.930 . S
C875 C876 1.399 . S
C875 C880 1.399 . S
C876 C875 1.399 . S
C876 C877 1.376 . S
C877 H864 0.930 . S
C877 C876 1.376 . S
C877 C878 1.388 . S
C878 H865 0.930 . S
C878 C877 1.388 . S
C878 C879 1.390 . S
C879 C878 1.390 . S
C879 C880 1.394 . S
C879 C885 1.465 . S
C880 C875 1.399 . S
C880 C879 1.394 . S
C880 C881 1.516 . S
C881 C880 1.516 . S
C881 C882 1.502 . S
C881 C883 1.561 . S
C881 C884 1.526 . S
C882 H866 0.959 . S
C882 H867 0.959 . S
C882 H868 0.961 . S
C882 C881 1.502 . S
C883 H869 0.960 . S
C883 H870 0.961 . S
C883 H871 0.959 . S
C883 C881 1.561 . S
C884 C881 1.526 . S
C884 C885 1.396 . S
C884 C889 1.390 . S
C885 C879 1.465 . S
C885 C884 1.396 . S
C885 C886 1.399 . S
C886 H872 0.929 . S
C886 C885 1.399 . S
C886 C887 1.385 . S
C887 H873 0.931 . S
C887 C886 1.385 . S
C887 C888 1.389 . S
C888 C887 1.389 . S
C888 C889 1.387 . S
C889 H874 0.930 . S
C889 C884 1.390 . S
C889 C888 1.387 . S
H890 C902 0.930 . S
H891 C904 0.930 . S
H892 C905 0.930 . S
H893 C909 0.959 . S
H894 C909 0.959 . S
H895 C909 0.961 . S
H896 C910 0.960 . S
H897 C910 0.961 . S
H898 C910 0.959 . S
H899 C913 0.929 . S
H900 C914 0.931 . S
H901 C916 0.930 . S
C902 H890 0.930 . S
C902 C903 1.399 . S
C902 C907 1.399 . S
C903 C902 1.399 . S
C903 C904 1.376 . S
C904 H891 0.930 . S
C904 C903 1.376 . S
C904 C905 1.388 . S
C905 H892 0.930 . S
C905 C904 1.388 . S
C905 C906 1.390 . S
C906 C905 1.390 . S
C906 C907 1.394 . S
C906 C912 1.465 . S
C907 C902 1.399 . S
C907 C906 1.394 . S
C907 C908 1.516 . S
C908 C907 1.516 . S
C908 C909 1.502 . S
C908 C910 1.561 . S
C908 C911 1.526 . S
C909 H893 0.959 . S
C909 H894 0.959 . S
C909 H895 0.961 . S
C909 C908 1.502 . S
C910 H896 0.960 . S
C910 H897 0.961 . S
C910 H898 0.959 . S
C910 C908 1.561 . S
C911 C908 1.526 . S
C911 C912 1.396 . S
C911 C916 1.390 . S
C912 C906 1.465 . S
C912 C911 1.396 . S
C912 C913 1.399 . S
C913 H899 0.929 . S
C913 C912 1.399 . S
C913 C914 1.385 . S
C914 H900 0.931 . S
C914 C913 1.385 . S
C914 C915 1.389 . S
C915 C914 1.389 . S
C915 C916 1.387 . S
C916 H901 0.930 . S
C916 C911 1.390 . S
C916 C915 1.387 . S
H917 C929 0.930 . S
H918 C931 0.930 . S
H919 C932 0.930 . S
H920 C936 0.959 . S
H921 C936 0.959 . S
H922 C936 0.961 . S
H923 C937 0.960 . S
H924 C937 0.961 . S
H925 C937 0.959 . S
H926 C940 0.929 . S
H927 C941 0.931 . S
H928 C943 0.930 . S
C929 H917 0.930 . S
C929 C930 1.399 . S
C929 C934 1.399 . S
C930 C929 1.399 . S
C930 C931 1.376 . S
C931 H918 0.930 . S
C931 C930 1.376 . S
C931 C932 1.388 . S
C932 H919 0.930 . S
C932 C931 1.388 . S
C932 C933 1.390 . S
C933 C932 1.390 . S
C933 C934 1.394 . S
C933 C939 1.465 . S
C934 C929 1.399 . S
C934 C933 1.394 . S
C934 C935 1.516 . S
C935 C934 1.516 . S
C935 C936 1.502 . S
C935 C937 1.561 . S
C935 C938 1.526 . S
C936 H920 0.959 . S
C936 H921 0.959 . S
C936 H922 0.961 . S
C936 C935 1.502 . S
C937 H923 0.960 . S
C937 H924 0.961 . S
C937 H925 0.959 . S
C937 C935 1.561 . S
C938 C935 1.526 . S
C938 C939 1.396 . S
C938 C943 1.390 . S
C939 C933 1.465 . S
C939 C938 1.396 . S
C939 C940 1.399 . S
C940 H926 0.929 . S
C940 C939 1.399 . S
C940 C941 1.385 . S
C941 H927 0.931 . S
C941 C940 1.385 . S
C941 C942 1.389 . S
C942 C941 1.389 . S
C942 C943 1.387 . S
C943 H928 0.930 . S
C943 C938 1.390 . S
C943 C942 1.387 . S
H944 C956 0.930 . S
H945 C958 0.930 . S
H946 C959 0.930 . S
H947 C963 0.959 . S
H948 C963 0.959 . S
H949 C963 0.961 . S
H950 C964 0.960 . S
H951 C964 0.961 . S
H952 C964 0.959 . S
H953 C967 0.929 . S
H954 C968 0.931 . S
H955 C970 0.930 . S
C956 H944 0.930 . S
C956 C957 1.399 . S
C956 C961 1.399 . S
C957 C956 1.399 . S
C957 C958 1.376 . S
C958 H945 0.930 . S
C958 C957 1.376 . S
C958 C959 1.388 . S
C959 H946 0.930 . S
C959 C958 1.388 . S
C959 C960 1.390 . S
C960 C959 1.390 . S
C960 C961 1.394 . S
C960 C966 1.465 . S
C961 C956 1.399 . S
C961 C960 1.394 . S
C961 C962 1.516 . S
C962 C961 1.516 . S
C962 C963 1.502 . S
C962 C964 1.561 . S
C962 C965 1.526 . S
C963 H947 0.959 . S
C963 H948 0.959 . S
C963 H949 0.961 . S
C963 C962 1.502 . S
C964 H950 0.960 . S
C964 H951 0.961 . S
C964 H952 0.959 . S
C964 C962 1.561 . S
C965 C962 1.526 . S
C965 C966 1.396 . S
C965 C970 1.390 . S
C966 C960 1.465 . S
C966 C965 1.396 . S
C966 C967 1.399 . S
C967 H953 0.929 . S
C967 C966 1.399 . S
C967 C968 1.385 . S
C968 H954 0.931 . S
C968 C967 1.385 . S
C968 C969 1.389 . S
C969 C968 1.389 . S
C969 C970 1.387 . S
C970 H955 0.930 . S
C970 C965 1.390 . S
C970 C969 1.387 . S
H971 C983 0.930 . S
H972 C985 0.930 . S
H973 C986 0.930 . S
H974 C990 0.959 . S
H975 C990 0.959 . S
H976 C990 0.961 . S
H977 C991 0.960 . S
H978 C991 0.961 . S
H979 C991 0.959 . S
H980 C994 0.929 . S
H981 C995 0.931 . S
H982 C997 0.930 . S
C983 H971 0.930 . S
C983 C984 1.399 . S
C983 C988 1.399 . S
C984 C983 1.399 . S
C984 C985 1.376 . S
C985 H972 0.930 . S
C985 C984 1.376 . S
C985 C986 1.388 . S
C986 H973 0.930 . S
C986 C985 1.388 . S
C986 C987 1.390 . S
C987 C986 1.390 . S
C987 C988 1.394 . S
C987 C993 1.465 . S
C988 C983 1.399 . S
C988 C987 1.394 . S
C988 C989 1.516 . S
C989 C988 1.516 . S
C989 C990 1.502 . S
C989 C991 1.561 . S
C989 C992 1.526 . S
C990 H974 0.959 . S
C990 H975 0.959 . S
C990 H976 0.961 . S
C990 C989 1.502 . S
C991 H977 0.960 . S
C991 H978 0.961 . S
C991 H979 0.959 . S
C991 C989 1.561 . S
C992 C989 1.526 . S
C992 C993 1.396 . S
C992 C997 1.390 . S
C993 C987 1.465 . S
C993 C992 1.396 . S
C993 C994 1.399 . S
C994 H980 0.929 . S
C994 C993 1.399 . S
C994 C995 1.385 . S
C995 H981 0.931 . S
C995 C994 1.385 . S
C995 C996 1.389 . S
C996 C995 1.389 . S
C996 C997 1.387 . S
C997 H982 0.930 . S
C997 C992 1.390 . S
C997 C996 1.387 . S
H998 C1010 0.930 . S
H999 C1012 0.930 . S
H1000 C1013 0.930 . S
H1001 C1017 0.959 . S
H1002 C1017 0.959 . S
H1003 C1017 0.961 . S
H1004 C1018 0.960 . S
H1005 C1018 0.961 . S
H1006 C1018 0.959 . S
H1007 C1021 0.929 . S
H1008 C1022 0.931 . S
H1009 C1024 0.930 . S
C1010 H998 0.930 . S
C1010 C1011 1.399 . S
C1010 C1015 1.399 . S
C1011 C1010 1.399 . S
C1011 C1012 1.376 . S
C1012 H999 0.930 . S
C1012 C1011 1.376 . S
C1012 C1013 1.388 . S
C1013 H1000 0.930 . S
C1013 C1012 1.388 . S
C1013 C1014 1.390 . S
C1014 C1013 1.390 . S
C1014 C1015 1.394 . S
C1014 C1020 1.465 . S
C1015 C1010 1.399 . S
C1015 C1014 1.394 . S
C1015 C1016 1.516 . S
C1016 C1015 1.516 . S
C1016 C1017 1.502 . S
C1016 C1018 1.561 . S
C1016 C1019 1.526 . S
C1017 H1001 0.959 . S
C1017 H1002 0.959 . S
C1017 H1003 0.961 . S
C1017 C1016 1.502 . S
C1018 H1004 0.960 . S
C1018 H1005 0.961 . S
C1018 H1006 0.959 . S
C1018 C1016 1.561 . S
C1019 C1016 1.526 . S
C1019 C1020 1.396 . S
C1019 C1024 1.390 . S
C1020 C1014 1.465 . S
C1020 C1019 1.396 . S
C1020 C1021 1.399 . S
C1021 H1007 0.929 . S
C1021 C1020 1.399 . S
C1021 C1022 1.385 . S
C1022 H1008 0.931 . S
C1022 C1021 1.385 . S
C1022 C1023 1.389 . S
C1023 C1022 1.389 . S
C1023 C1024 1.387 . S
C1024 H1009 0.930 . S
C1024 C1019 1.390 . S
C1024 C1023 1.387 . S
H1025 C1037 0.930 . S
H1026 C1039 0.930 . S
H1027 C1040 0.930 . S
H1028 C1044 0.959 . S
H1029 C1044 0.959 . S
H1030 C1044 0.961 . S
H1031 C1045 0.960 . S
H1032 C1045 0.961 . S
H1033 C1045 0.959 . S
H1034 C1048 0.929 . S
H1035 C1049 0.931 . S
H1036 C1051 0.930 . S
C1037 H1025 0.930 . S
C1037 C1038 1.399 . S
C1037 C1042 1.399 . S
C1038 C1037 1.399 . S
C1038 C1039 1.376 . S
C1039 H1026 0.930 . S
C1039 C1038 1.376 . S
C1039 C1040 1.388 . S
C1040 H1027 0.930 . S
C1040 C1039 1.388 . S
C1040 C1041 1.390 . S
C1041 C1040 1.390 . S
C1041 C1042 1.394 . S
C1041 C1047 1.465 . S
C1042 C1037 1.399 . S
C1042 C1041 1.394 . S
C1042 C1043 1.516 . S
C1043 C1042 1.516 . S
C1043 C1044 1.502 . S
C1043 C1045 1.561 . S
C1043 C1046 1.526 . S
C1044 H1028 0.959 . S
C1044 H1029 0.959 . S
C1044 H1030 0.961 . S
C1044 C1043 1.502 . S
C1045 H1031 0.960 . S
C1045 H1032 0.961 . S
C1045 H1033 0.959 . S
C1045 C1043 1.561 . S
C1046 C1043 1.526 . S
C1046 C1047 1.396 . S
C1046 C1051 1.390 . S
C1047 C1041 1.465 . S
C1047 C1046 1.396 . S
C1047 C1048 1.399 . S
C1048 H1034 0.929 . S
C1048 C1047 1.399 . S
C1048 C1049 1.385 . S
C1049 H1035 0.931 . S
C1049 C1048 1.385 . S
C1049 C1050 1.389 . S
C1050 C1049 1.389 . S
C1050 C1051 1.387 . S
C1051 H1036 0.930 . S
C1051 C1046 1.390 . S
C1051 C1050 1.387 . S
C417 C242 1.447 . S
C429 C336 1.385 . S
C456 C344 1.387 . S
C444 C301 1.394 . S
C483 C348 1.338 . S
C471 C162 1.397 . S
C498 C221 1.402 . S
C510 C324 1.385 . S
C537 C365 1.418 . S
C525 C82 1.436 . S
C564 C399 1.442 . S
C552 C141 1.471 . S
C579 C2 1.359 . S
C591 C387 1.305 . S
C606 C61 1.437 . S
C618 C369 1.440 . S
C645 C323 1.352 . S
C633 C42 1.465 . S
C672 C357 1.343 . S
C660 C21 1.445 . S
C699 C361 1.255 . S
C687 C122 1.449 . S
C726 C339 1.257 . S
C714 C101 1.418 . S
C753 C378 1.288 . S
C741 C202 1.465 . S
C768 C181 1.435 . S
C780 C386 1.304 . S
C807 C402 1.258 . S
C795 C282 1.459 . S
C822 C261 1.429 . S
C834 C382 1.289 . S
C861 C327 1.243 . S
C849 C15 1.503 . S
C888 C345 1.312 . S
C876 C55 1.509 . S
C903 C95 1.475 . S
C915 C360 1.366 . S
C942 C340 1.376 . S
C930 C135 1.486 . S
C969 C366 1.375 . S
C957 C175 1.501 . S
C984 C215 1.509 . S
C996 C390 1.365 . S
C1011 C255 1.483 . S
C1023 C403 1.240 . S
C1038 C295 1.474 . S
C1050 C381 1.296 . S
