# Generated by pormake.
# Topology zzz, (3,6)-cn, num edge types: 1
# Building blocks:
#     Node 0, Type 0, BuildingBlock: WUSLED_clean_sbu_0, # of connection points: 3
#     Node 1, Type 0, BuildingBlock: WUSLED_clean_sbu_0, # of connection points: 3
#     Node 2, Type 0, BuildingBlock: WUSLED_clean_sbu_0, # of connection points: 3
#     Node 3, Type 0, BuildingBlock: WUSLED_clean_sbu_0, # of connection points: 3
#     Node 4, Type 0, BuildingBlock: WUSLED_clean_sbu_0, # of connection points: 3
#     Node 5, Type 0, BuildingBlock: WUSLED_clean_sbu_0, # of connection points: 3
#     Node 6, Type 0, BuildingBlock: WUSLED_clean_sbu_0, # of connection points: 3
#     Node 7, Type 0, BuildingBlock: WUSLED_clean_sbu_0, # of connection points: 3
#     Node 8, Type 1, BuildingBlock: BETDIP_clean_sbu_0, # of connection points: 6
#     Node 9, Type 1, BuildingBlock: BETDIP_clean_sbu_0, # of connection points: 6
#     Node 10, Type 1, BuildingBlock: BETDIP_clean_sbu_0, # of connection points: 6
#     Node 11, Type 1, BuildingBlock: BETDIP_clean_sbu_0, # of connection points: 6
#     Edge 12, Type (0, 1), BuildingBlock: XIVTED_clean_linker_0, # of connection points: 2
#     Edge 13, Type (0, 1), BuildingBlock: XIVTED_clean_linker_0, # of connection points: 2
#     Edge 14, Type (0, 1), BuildingBlock: XIVTED_clean_linker_0, # of connection points: 2
#     Edge 15, Type (0, 1), BuildingBlock: XIVTED_clean_linker_0, # of connection points: 2
#     Edge 16, Type (0, 1), BuildingBlock: XIVTED_clean_linker_0, # of connection points: 2
#     Edge 17, Type (0, 1), BuildingBlock: XIVTED_clean_linker_0, # of connection points: 2
#     Edge 18, Type (0, 1), BuildingBlock: XIVTED_clean_linker_0, # of connection points: 2
#     Edge 19, Type (0, 1), BuildingBlock: XIVTED_clean_linker_0, # of connection points: 2
#     Edge 20, Type (0, 1), BuildingBlock: XIVTED_clean_linker_0, # of connection points: 2
#     Edge 21, Type (0, 1), BuildingBlock: XIVTED_clean_linker_0, # of connection points: 2
#     Edge 22, Type (0, 1), BuildingBlock: XIVTED_clean_linker_0, # of connection points: 2
#     Edge 23, Type (0, 1), BuildingBlock: XIVTED_clean_linker_0, # of connection points: 2
#     Edge 24, Type (0, 1), BuildingBlock: XIVTED_clean_linker_0, # of connection points: 2
#     Edge 25, Type (0, 1), BuildingBlock: XIVTED_clean_linker_0, # of connection points: 2
#     Edge 26, Type (0, 1), BuildingBlock: XIVTED_clean_linker_0, # of connection points: 2
#     Edge 27, Type (0, 1), BuildingBlock: XIVTED_clean_linker_0, # of connection points: 2
#     Edge 28, Type (0, 1), BuildingBlock: XIVTED_clean_linker_0, # of connection points: 2
#     Edge 29, Type (0, 1), BuildingBlock: XIVTED_clean_linker_0, # of connection points: 2
#     Edge 30, Type (0, 1), BuildingBlock: XIVTED_clean_linker_0, # of connection points: 2
#     Edge 31, Type (0, 1), BuildingBlock: XIVTED_clean_linker_0, # of connection points: 2
#     Edge 32, Type (0, 1), BuildingBlock: XIVTED_clean_linker_0, # of connection points: 2
#     Edge 33, Type (0, 1), BuildingBlock: XIVTED_clean_linker_0, # of connection points: 2
#     Edge 34, Type (0, 1), BuildingBlock: XIVTED_clean_linker_0, # of connection points: 2
#     Edge 35, Type (0, 1), BuildingBlock: XIVTED_clean_linker_0, # of connection points: 2
# Relax obj value: 0.410
# Max RMSD: 0.258
# Mean RMSD: 0.236
data_MOF--net-zzz--node1-WUSLED_clean_sbu_0--node2-BETDIP_clean_sbu_0--edge1-XIVTED_clean_linker_0
_symmetry_space_group_name_H-M    P1
_symmetry_Int_Tables_number       1
_symmetry_cell_setting            triclinic
loop_
_symmetry_equiv_pos_as_xyz
'x, y, z'
_cell_length_a     64.00697
_cell_length_b     63.92443
_cell_length_c     19.76743
_cell_angle_alpha  90.045182
_cell_angle_beta   89.955957
_cell_angle_gamma 89.923104
loop_
_atom_site_label
_atom_site_type_symbol
_atom_site_fract_x
_atom_site_fract_y
_atom_site_fract_z
_atom_type_partial_charge
C0 C 0.78173 0.53059 0.42216 0.0
C1 C 0.78844 0.51163 0.4513 0.0
C2 C 0.82352 0.52588 0.46941 0.0
C3 C 0.80908 0.50932 0.47468 0.0
C4 C 0.81671 0.54475 0.44 0.0
C5 C 0.79616 0.54706 0.41696 0.0
U6 U 0.73292 0.52023 0.30968 0.0
O7 O 0.69904 0.52059 0.33198 0.0
O8 O 0.71264 0.54428 0.26518 0.0
C9 C 0.69542 0.53584 0.28888 0.0
C10 C 0.75972 0.5342 0.40023 0.0
C11 C 0.67889 0.53214 0.23783 0.0
C12 C 0.64266 0.53585 0.20171 0.0
C13 C 0.65812 0.53776 0.25168 0.0
C14 C 0.66848 0.52231 0.12357 0.0
C15 C 0.64772 0.52843 0.1366 0.0
C16 C 0.68386 0.52406 0.17366 0.0
C17 C 0.76585 0.47892 0.2234 0.0
C18 C 0.79091 0.46202 0.14966 0.0
C19 C 0.80093 0.47184 0.26364 0.0
C20 C 0.78082 0.47955 0.27514 0.0
C21 C 0.80641 0.46365 0.19992 0.0
C22 C 0.7708 0.4696 0.16142 0.0
C23 C 0.74602 0.49008 0.23051 0.0
O24 O 0.75727 0.54265 0.34016 0.0
O25 O 0.74583 0.51957 0.41327 0.0
O26 O 0.73565 0.48666 0.28686 0.0
O27 O 0.74693 0.50995 0.2139 0.0
H28 H 0.77775 0.49861 0.45642 0.0
H29 H 0.81376 0.49449 0.4964 0.0
H30 H 0.82718 0.55798 0.436 0.0
H31 H 0.79143 0.56195 0.39568 0.0
H32 H 0.62689 0.54083 0.21342 0.0
H33 H 0.65393 0.54406 0.30075 0.0
H34 H 0.67288 0.51623 0.07443 0.0
H35 H 0.69976 0.51948 0.16182 0.0
H36 H 0.79462 0.45614 0.09968 0.0
H37 H 0.8124 0.47307 0.30368 0.0
H38 H 0.77722 0.4868 0.32331 0.0
H39 H 0.75942 0.46916 0.12087 0.0
C40 C 0.01745 0.77663 0.4426 0.0
C41 C 0.01726 0.79481 0.40248 0.0
C42 C 0.01316 0.8169 0.50296 0.0
C43 C 0.0152 0.81465 0.43226 0.0
C44 C 0.01289 0.7986 0.54267 0.0
C45 C 0.01508 0.77878 0.51289 0.0
U46 U 1.0057 0.73254 0.31437 0.0
O47 O 1.00504 0.69815 0.32516 0.0
O48 O 0.02823 0.71293 0.25916 0.0
C49 C 0.01996 0.6953 0.28025 0.0
C50 C 0.02117 0.75551 0.41298 0.0
C51 C 0.01609 0.67949 0.22703 0.0
C52 C 0.02498 0.64592 0.17595 0.0
C53 C 0.02714 0.66053 0.22841 0.0
C54 C 1.0003 0.66886 0.12029 0.0
C55 C 0.01172 0.64995 0.12062 0.0
C56 C 1.00248 0.68347 0.17289 0.0
C57 C 0.96636 0.77137 0.25397 0.0
C58 C 0.95451 0.80315 0.19938 0.0
C59 C 0.96433 0.80379 0.31777 0.0
C60 C 0.9685 0.78236 0.3151 0.0
C61 C 0.95816 0.8146 0.25915 0.0
C62 C 0.95864 0.78171 0.19685 0.0
C63 C 0.97542 0.7504 0.24684 0.0
O64 O 1.00646 0.74146 0.42248 0.0
O65 O 0.02913 0.75489 0.35168 0.0
O66 O 0.99495 0.75049 0.22631 0.0
O67 O 0.97206 0.7375 0.2975 0.0
H68 H 0.01902 0.79378 0.34808 0.0
H69 H 0.01577 0.82826 0.39977 0.0
H70 H 0.01096 0.79951 0.59699 0.0
H71 H 0.01514 0.76506 0.54507 0.0
H72 H 0.03425 0.63175 0.1778 0.0
H73 H 0.03784 0.6572 0.26948 0.0
H74 H 0.98971 0.67243 0.07919 0.0
H75 H 0.9938 0.69802 0.17078 0.0
H76 H 0.95005 0.81099 0.15303 0.0
H77 H 0.96707 0.81209 0.36473 0.0
H78 H 0.97458 0.77466 0.35975 0.0
H79 H 0.9571 0.77349 0.14914 0.0
C80 C 0.73906 0.99791 0.44895 0.0
C81 C 0.72343 1.0042 0.40338 0.0
C82 C 0.69761 1.00541 0.49495 0.0
C83 C 0.70296 1.00797 0.42614 0.0
C84 C 0.7135 0.99943 0.54034 0.0
C85 C 0.73392 0.99577 0.51758 0.0
U86 U 0.78661 1.00115 0.32719 0.0
O87 O 0.82045 1.00115 0.34921 0.0
O88 O 0.80644 0.97503 0.29366 0.0
C89 C 0.82381 0.98417 0.31315 0.0
C90 C 0.76045 0.99238 0.42618 0.0
C91 C 0.84027 0.9857 0.26075 0.0
C92 C 0.87662 0.98148 0.22664 0.0
C93 C 0.86105 0.98073 0.27659 0.0
C94 C 0.85082 0.99229 0.14424 0.0
C95 C 0.87167 0.98709 0.15962 0.0
C96 C 0.83532 0.99169 0.19428 0.0
C97 C 0.75525 0.03952 0.2196 0.0
C98 C 0.73159 0.05357 0.13562 0.0
C99 C 0.72179 0.05386 0.25415 0.0
C100 C 0.74093 0.04464 0.27074 0.0
C101 C 0.71673 0.05799 0.18615 0.0
C102 C 0.75068 0.04442 0.1523 0.0
C103 C 0.77427 0.02762 0.23428 0.0
O104 O 0.76184 0.98137 0.37014 0.0
O105 O 0.77469 1.00713 0.43039 0.0
O106 O 0.78476 0.03332 0.28838 0.0
O107 O 0.77231 1.00726 0.22823 0.0
H108 H 0.72696 1.0059 0.35009 0.0
H109 H 0.69133 0.01285 0.38966 0.0
H110 H 0.71006 0.99696 0.59336 0.0
H111 H 0.74566 0.99079 0.55361 0.0
H112 H 0.89245 0.97724 0.24021 0.0
H113 H 0.86521 0.97607 0.32752 0.0
H114 H 0.84649 0.99699 0.09353 0.0
H115 H 0.81941 0.99576 0.18092 0.0
H116 H 0.72811 0.05615 0.08268 0.0
H117 H 0.71078 0.05727 0.29431 0.0
H118 H 0.74428 0.04098 0.32312 0.0
H119 H 0.76156 0.04045 0.11225 0.0
C120 C 0.52217 0.74307 0.4118 0.0
C121 C 0.50252 0.73616 0.43475 0.0
C122 C 0.5171 0.70181 0.46269 0.0
C123 C 0.50004 0.71576 0.46008 0.0
C124 C 0.53662 0.70879 0.43901 0.0
C125 C 0.5391 0.72912 0.41412 0.0
U126 U 0.51305 0.79249 0.2997 0.0
O127 O 0.53798 0.81228 0.2578 0.0
O128 O 0.51452 0.82606 0.32538 0.0
C129 C 0.53018 0.82953 0.28369 0.0
C130 C 0.52602 0.76492 0.38933 0.0
C131 C 0.52792 0.84702 0.23521 0.0
C132 C 0.50718 0.86809 0.15735 0.0
C133 C 0.50853 0.85228 0.20643 0.0
C134 C 0.54452 0.87354 0.16516 0.0
C135 C 0.52523 0.87873 0.13547 0.0
C136 C 0.54582 0.85791 0.21451 0.0
C137 C 0.47098 0.7622 0.20489 0.0
C138 C 0.44427 0.74435 0.14002 0.0
C139 C 0.46809 0.72444 0.21039 0.0
C140 C 0.4776 0.74298 0.23141 0.0
C141 C 0.45174 0.72487 0.16273 0.0
C142 C 0.4539 0.76287 0.16077 0.0
C143 C 0.48301 0.78127 0.21731 0.0
O144 O 0.53453 0.76714 0.32925 0.0
O145 O 0.5116 0.77907 0.40238 0.0
O146 O 0.4795 0.79077 0.27521 0.0
O147 O 0.50295 0.77984 0.20207 0.0
H148 H 0.48914 0.74653 0.43374 0.0
H149 H 0.48474 0.71087 0.47725 0.0
H150 H 0.5502 0.69869 0.44112 0.0
H151 H 0.55446 0.73407 0.39758 0.0
H152 H 0.49212 0.87155 0.13506 0.0
H153 H 0.49451 0.84395 0.22097 0.0
H154 H 0.55867 0.88156 0.15012 0.0
H155 H 0.56094 0.85408 0.23584 0.0
H156 H 0.43149 0.74525 0.10427 0.0
H157 H 0.47441 0.70975 0.22844 0.0
H158 H 0.49079 0.74224 0.26571 0.0
H159 H 0.44855 0.77764 0.14019 0.0
C160 C 0.24374 0.50119 0.95888 0.0
C161 C 0.22635 0.50215 1.00229 0.0
C162 C 0.20267 0.50619 0.90591 0.0
C163 C 0.20614 0.5048 0.97623 0.0
C164 C 0.22019 0.5055 0.86271 0.0
C165 C 0.24042 0.50306 0.88891 0.0
U166 U 0.2914 0.51055 0.07709 0.0
O167 O 0.31074 0.48628 0.12462 0.0
O168 O 0.32537 0.50907 0.05682 0.0
C169 C 0.32832 0.49393 0.10087 0.0
C170 C 0.26515 0.49675 0.98459 0.0
C171 C 0.34492 0.49725 0.1519 0.0
C172 C 0.38094 0.49217 0.18849 0.0
C173 C 0.36544 0.49065 0.13854 0.0
C174 C 0.35568 0.50725 0.26561 0.0
C175 C 0.37617 0.50017 0.2531 0.0
C176 C 0.34026 0.50588 0.21552 0.0
C177 C 0.25948 0.55386 0.15921 0.0
C178 C 0.23942 0.58067 0.2169 0.0
C179 C 0.22212 0.55642 0.14113 0.0
C180 C 0.24131 0.54708 0.12654 0.0
C181 C 0.22083 0.57292 0.18823 0.0
C182 C 0.25858 0.57109 0.20284 0.0
C183 C 0.27887 0.54183 0.15296 0.0
O184 O 0.27964 0.51079 0.97187 0.0
O185 O 0.26659 0.48884 0.04582 0.0
O186 O 0.27727 0.52211 0.17101 0.0
O187 O 0.28937 0.54445 0.09645 0.0
H188 H 0.22826 0.50055 0.05645 0.0
H189 H 0.19321 0.50564 0.01148 0.0
H190 H 0.21827 0.50619 0.80835 0.0
H191 H 0.25349 0.50211 0.85416 0.0
H192 H 0.39648 0.48644 0.17719 0.0
H193 H 0.36938 0.48389 0.08989 0.0
H194 H 0.35152 0.51379 0.31436 0.0
H195 H 0.32457 0.5112 0.22695 0.0
H196 H 0.2391 0.59363 0.25216 0.0
H197 H 0.20822 0.54982 0.11845 0.0
H198 H 0.24188 0.53389 0.0923 0.0
H199 H 0.27256 0.57662 0.22801 0.0
C200 C 0.01899 0.23894 0.97201 0.0
C201 C 0.03822 0.22825 0.96965 0.0
C202 C 0.02092 0.19643 0.92963 0.0
C203 C 0.03914 0.20718 0.94929 0.0
C204 C 1.00173 0.20719 0.93246 0.0
C205 C 1.0008 0.22811 0.95347 0.0
U206 U 0.02826 0.28708 0.08877 0.0
O207 O 0.03536 0.32007 0.0648 0.0
O208 O 1.00557 0.31186 0.11243 0.0
C209 C 0.01836 0.32698 0.09491 0.0
C210 C 0.01736 0.26149 0.99035 0.0
C211 C 0.0214 0.3434 0.14673 0.0
C212 C 0.02066 0.38013 0.17954 0.0
C213 C 0.01881 0.36455 0.12989 0.0
C214 C 0.02792 0.3536 0.2636 0.0
C215 C 0.02507 0.37489 0.24734 0.0
C216 C 0.02617 0.33807 0.21387 0.0
C217 C 0.0558 0.2496 0.20711 0.0
C218 C 0.06161 0.22327 0.29292 0.0
C219 C 0.06106 0.21339 0.17445 0.0
C220 C 0.05766 0.23425 0.15675 0.0
C221 C 0.06243 0.20758 0.24292 0.0
C222 C 0.05833 0.24411 0.27505 0.0
C223 C 0.04891 0.27077 0.1902 0.0
O224 O 1.00517 0.26599 0.04191 0.0
O225 O 0.03458 0.27273 0.98929 0.0
O226 O 0.05813 0.2795 0.13792 0.0
O227 O 0.02853 0.27322 0.1903 0.0
H228 H 0.0526 0.23619 0.9826 0.0
H229 H 0.05421 0.19948 0.94719 0.0
H230 H 0.98734 0.19939 0.9186 0.0
H231 H 0.98578 0.23594 0.95448 0.0
H232 H 0.01869 0.39631 0.16461 0.0
H233 H 0.01517 0.36902 0.07837 0.0
H234 H 0.03101 0.34882 0.31515 0.0
H235 H 0.02821 0.32183 0.22808 0.0
H236 H 0.06224 0.21936 0.34617 0.0
H237 H 0.06186 0.20175 0.13471 0.0
H238 H 0.05566 0.2383 0.10405 0.0
H239 H 0.05676 0.25579 0.31451 0.0
C240 C 0.27815 0.02142 0.99855 0.0
C241 C 0.29409 0.03582 0.0133 0.0
C242 C 0.31887 0.01674 0.94214 0.0
C243 C 0.31411 0.0335 0.98579 0.0
C244 C 0.30292 1.00227 0.92718 0.0
C245 C 0.28281 1.00457 0.95503 0.0
U246 U 0.23093 1.01162 0.11898 0.0
O247 O 0.21232 0.03631 0.16725 0.0
O248 O 0.19668 0.01308 0.10347 0.0
C249 C 0.19441 0.02821 0.14814 0.0
C250 C 0.25661 0.02534 0.02469 0.0
C251 C 0.17883 0.02478 0.20297 0.0
C252 C 0.14296 0.01795 0.23892 0.0
C253 C 0.15782 0.02067 0.1873 0.0
C254 C 0.16983 0.02359 0.32286 0.0
C255 C 0.14875 0.0194 0.3076 0.0
C256 C 0.18464 0.02611 0.27147 0.0
C257 C 0.26292 0.96809 0.20137 0.0
C258 C 0.28119 0.93955 0.25621 0.0
C259 C 0.30038 0.96453 0.18808 0.0
C260 C 0.28177 0.9749 0.17287 0.0
C261 C 0.30039 0.94714 0.23179 0.0
C262 C 0.26261 0.95002 0.24129 0.0
C263 C 0.24389 0.98064 0.19499 0.0
O264 O 0.24216 1.01113 0.01319 0.0
O265 O 0.25534 0.03348 0.08564 0.0
O266 O 0.24596 1.00043 0.21174 0.0
O267 O 0.23301 0.97781 0.13941 0.0
H268 H 0.29099 0.04921 0.04543 0.0
H269 H 0.32577 0.04521 0.99759 0.0
H270 H 0.306 0.98909 0.8942 0.0
H271 H 0.2709 0.99328 0.94184 0.0
H272 H 0.12699 0.0145 0.22488 0.0
H273 H 0.15288 0.01958 0.13501 0.0
H274 H 0.17495 0.02529 0.37475 0.0
H275 H 0.20066 0.0293 0.28573 0.0
H276 H 0.28063 0.926 0.28904 0.0
H277 H 0.31487 0.97096 0.16894 0.0
H278 H 0.28221 0.98882 0.14162 0.0
H279 H 0.2481 0.94449 0.26319 0.0
C280 C 0.49339 0.28154 0.95739 0.0
C281 C 0.4999 0.29752 1.0015 0.0
C282 C 0.5002 0.32282 0.90855 0.0
C283 C 0.50336 0.31786 0.97734 0.0
C284 C 0.49405 0.30663 0.86447 0.0
C285 C 0.49072 0.28628 0.88863 0.0
U286 U 0.50146 0.2336 0.07423 0.0
O287 O 0.49891 0.19959 0.05534 0.0
O288 O 0.4768 0.21523 0.12339 0.0
C289 C 0.48395 0.19731 0.10043 0.0
C290 C 0.48814 0.26026 0.98223 0.0
C291 C 0.48728 0.18105 0.15263 0.0
C292 C 0.48175 0.14551 0.19327 0.0
C293 C 0.48008 0.16059 0.142 0.0
C294 C 0.49814 0.17109 0.26623 0.0
C295 C 0.49048 0.15067 0.25648 0.0
C296 C 0.49664 0.18608 0.21481 0.0
C297 C 0.54541 0.26484 0.1523 0.0
C298 C 0.56308 0.29009 0.22328 0.0
C299 C 0.55259 0.29965 0.10956 0.0
C300 C 0.54483 0.27948 0.09951 0.0
C301 C 0.56107 0.30537 0.17251 0.0
C302 C 0.55522 0.26999 0.21326 0.0
C303 C 0.53324 0.24553 0.14819 0.0
O304 O 0.50166 0.24529 0.96893 0.0
O305 O 0.48041 0.2591 0.04374 0.0
O306 O 0.5137 0.24767 0.16735 0.0
O307 O 0.53538 0.23458 0.09228 0.0
H308 H 0.50203 0.29437 0.05487 0.0
H309 H 0.50844 0.32973 0.0128 0.0
H310 H 0.49116 0.30977 0.81148 0.0
H311 H 0.48556 0.27429 0.85367 0.0
H312 H 0.47558 0.12999 0.18417 0.0
H313 H 0.47278 0.15638 0.09448 0.0
H314 H 0.50525 0.17553 0.31382 0.0
H315 H 0.50244 0.20174 0.22409 0.0
H316 H 0.56929 0.29405 0.27261 0.0
H317 H 0.55101 0.31104 0.06933 0.0
H318 H 0.53738 0.27565 0.05192 0.0
H319 H 0.55568 0.25886 0.25457 0.0
Tb320 Tb 0.02438 0.9969 0.80695 0.0
Tb321 Tb 0.99947 1.01073 0.6788 0.0
C322 C 0.03181 0.98536 0.92612 0.0
C323 C 0.0218 0.97252 0.97905 0.0
C324 C 1.00279 0.97847 1.00929 0.0
C325 C 0.99329 0.96565 0.05755 0.0
C326 C 1.00298 0.94699 0.07789 0.0
C327 C 0.02235 0.94145 0.04953 0.0
C328 C 0.03163 0.95406 1.00045 0.0
C329 C 0.05014 1.00419 0.70316 0.0
C330 C 1.00952 0.9634 0.69798 0.0
C331 C 0.98857 0.0274 0.56987 0.0
C332 C 0.99841 0.04418 0.53104 0.0
C333 C 0.01812 0.05158 0.55047 0.0
C334 C 0.02814 0.06691 0.51258 0.0
C335 C 0.01842 0.07555 0.45528 0.0
C336 C 0.99849 0.06822 0.43639 0.0
C337 C 0.98861 0.05255 0.4739 0.0
C338 C 0.97677 0.99658 0.7813 0.0
C339 C 0.01972 0.04523 0.77837 0.0
O340 O 0.02277 1.00313 0.91075 0.0
O341 O 0.03857 0.97535 0.8725 0.0
O342 O 0.03064 1.00565 0.70637 0.0
O343 O 0.05627 0.99874 0.76315 0.0
O344 O 0.01272 0.96726 0.76338 0.0
O345 O 1.00701 0.97864 0.65351 0.0
O346 O 0.99957 1.01014 0.57313 0.0
O347 O 0.98091 0.03291 0.62879 0.0
O348 O 0.99329 1.00715 0.78431 0.0
O349 O 0.97137 0.99514 0.71826 0.0
O350 O 1.0108 0.0407 0.71945 0.0
O351 O 0.02586 0.03062 0.82151 0.0
H352 H 0.99523 0.99298 0.99583 0.0
H353 H 0.97844 0.97035 0.07915 0.0
H354 H 0.03005 0.92702 0.06391 0.0
H355 H 0.04643 0.94928 0.9787 0.0
H356 H 0.02587 0.04536 0.59473 0.0
H357 H 0.04358 0.07187 0.5281 0.0
H358 H 0.99038 0.07479 0.39332 0.0
H359 H 0.97335 0.04701 0.45847 0.0
Tb360 Tb 0.51097 0.02904 0.75386 0.0
Tb361 Tb 0.50117 1.00087 0.64047 0.0
C362 C 0.52326 0.04681 0.86031 0.0
C363 C 0.5424 0.05329 0.89466 0.0
C364 C 0.54102 0.06064 0.96122 0.0
C365 C 0.55904 0.06616 0.9965 0.0
C366 C 0.57875 0.06439 0.96563 0.0
C367 C 0.58001 0.05748 0.8981 0.0
C368 C 0.56192 0.05194 0.86283 0.0
C369 C 0.49787 0.04813 0.64292 0.0
C370 C 0.54758 0.0145 0.65532 0.0
C371 C 0.48823 0.98385 0.53372 0.0
C372 C 0.47028 0.97184 0.50925 0.0
C373 C 0.45047 0.97408 0.5386 0.0
C374 C 0.43332 0.96367 0.51089 0.0
C375 C 0.43576 0.95081 0.45354 0.0
C376 C 0.45585 0.94795 0.42623 0.0
C377 C 0.47296 0.95842 0.45388 0.0
C378 C 0.51389 0.9816 0.75158 0.0
C379 C 0.46435 0.01482 0.74143 0.0
O380 O 0.52022 0.02664 0.85522 0.0
O381 O 0.51859 0.05677 0.80465 0.0
O382 O 0.51022 0.0328 0.64582 0.0
O383 O 0.49301 0.05371 0.70388 0.0
O384 O 0.54263 0.02065 0.71744 0.0
O385 O 0.53283 1.00926 0.61184 0.0
O386 O 0.48478 1.00348 0.54929 0.0
O387 O 0.50023 0.97445 0.57764 0.0
O388 O 0.5018 0.99709 0.74819 0.0
O389 O 0.51834 0.97563 0.69072 0.0
O390 O 0.46938 1.00651 0.68194 0.0
O391 O 0.4788 0.02281 0.78138 0.0
H392 H 0.526 0.06186 0.98623 0.0
H393 H 0.55757 0.07166 0.04813 0.0
H394 H 0.595 0.05572 0.87327 0.0
H395 H 0.56318 0.04633 0.8113 0.0
H396 H 0.44815 0.98431 0.58161 0.0
H397 H 0.41803 0.96644 0.53264 0.0
H398 H 0.45828 0.93795 0.38267 0.0
H399 H 0.48823 0.9564 0.43104 0.0
Tb400 Tb 0.49791 0.51833 0.7501 0.0
Tb401 Tb 0.52646 0.50765 0.63943 0.0
C402 C 0.48082 0.53243 0.85539 0.0
C403 C 0.47082 0.55172 0.87936 0.0
C404 C 0.47707 0.57137 0.8553 0.0
C405 C 0.46845 0.58957 0.88276 0.0
C406 C 0.45343 0.58841 0.93468 0.0
C407 C 0.44669 0.56863 0.95676 0.0
C408 C 0.45534 0.55045 0.92929 0.0
C409 C 0.47877 0.50483 0.63973 0.0
C410 C 0.51316 0.55458 0.64921 0.0
C411 C 0.54556 0.49429 0.53687 0.0
C412 C 0.54879 0.47521 0.49706 0.0
C413 C 0.53265 0.46072 0.48694 0.0
C414 C 0.5358 0.44354 0.44441 0.0
C415 C 0.55514 0.44056 0.41191 0.0
C416 C 0.57139 0.45483 0.42369 0.0
C417 C 0.56819 0.47207 0.46579 0.0
C418 C 0.54504 0.52159 0.75039 0.0
C419 C 0.51008 0.4716 0.73601 0.0
O420 O 0.50093 0.53338 0.84358 0.0
O421 O 0.4708 0.52199 0.80882 0.0
O422 O 0.49441 0.51679 0.64196 0.0
O423 O 0.47281 0.50091 0.70099 0.0
O424 O 0.50389 0.5498 0.70728 0.0
O425 O 0.52179 0.54 0.61108 0.0
O426 O 0.52688 0.50261 0.53497 0.0
O427 O 0.55366 0.49457 0.59752 0.0
O428 O 0.52985 0.50911 0.7475 0.0
O429 O 0.55064 0.52619 0.68934 0.0
O430 O 0.51612 0.47641 0.67374 0.0
O431 O 0.50525 0.48648 0.77961 0.0
H432 H 0.48903 0.57267 0.81678 0.0
H433 H 0.47421 0.60454 0.86522 0.0
H434 H 0.43497 0.56721 0.99604 0.0
H435 H 0.45026 0.53537 0.94811 0.0
H436 H 0.51759 0.46284 0.51104 0.0
H437 H 0.52311 0.43257 0.43699 0.0
H438 H 0.58639 0.45296 0.39902 0.0
H439 H 0.58078 0.48317 0.473 0.0
Tb440 Tb 1.00848 0.49945 0.73798 0.0
Tb441 Tb 0.02028 0.52671 0.61364 0.0
C442 C 0.9959 0.48255 0.84507 0.0
C443 C 0.97735 0.47986 0.88748 0.0
C444 C 0.98007 0.47712 0.9572 0.0
C445 C 0.96294 0.47304 0.99872 0.0
C446 C 0.9428 0.47157 0.97098 0.0
C447 C 0.94008 0.47463 0.90105 0.0
C448 C 0.95725 0.4788 0.85954 0.0
C449 C 0.02156 0.47962 0.6282 0.0
C450 C 0.97239 0.5169 0.64129 0.0
C451 C 0.03209 0.53624 0.49691 0.0
C452 C 0.04927 0.54826 0.46691 0.0
C453 C 0.06854 0.54998 0.50013 0.0
C454 C 0.08535 0.55976 0.4683 0.0
C455 C 0.08315 0.5682 0.40288 0.0
C456 C 0.06349 0.56726 0.3712 0.0
C457 C 0.04671 0.5573 0.40294 0.0
C458 C 0.01549 0.55076 0.72283 0.0
C459 C 0.05544 0.51294 0.71973 0.0
O460 O 1.00409 0.5013 0.843 0.0
O461 O 0.99567 0.47333 0.78585 0.0
O462 O 1.00994 0.49549 0.6306 0.0
O463 O 0.02585 0.47389 0.68946 0.0
O464 O 0.9773 0.50886 0.70135 0.0
O465 O 0.98681 0.52308 0.59744 0.0
O466 O 0.03752 0.51885 0.52768 0.0
O467 O 0.01808 0.54703 0.53063 0.0
O468 O 0.01358 0.53125 0.71725 0.0
O469 O 0.02044 0.55769 0.66327 0.0
O470 O 0.05116 0.51935 0.65722 0.0
O471 O 0.0407 0.50673 0.76222 0.0
H472 H 0.99553 0.47778 0.9794 0.0
H473 H 0.96551 0.47061 0.0523 0.0
H474 H 0.92467 0.47391 0.87853 0.0
H475 H 0.95487 0.48093 0.80573 0.0
H476 H 0.07078 0.54318 0.54978 0.0
H477 H 0.1003 0.55989 0.49393 0.0
H478 H 0.06115 0.57387 0.32136 0.0
H479 H 0.03187 0.55624 0.37687 0.0
H480 H 0.107 0.03104 0.31084 0.0
H481 H 0.09241 1.003 0.70174 0.0
H482 H 0.15451 1.00128 0.43257 0.0
H483 H 0.03965 1.01104 0.56923 0.0
H484 H 0.11579 1.00638 0.6048 0.0
H485 H 0.08235 0.0273 0.4051 0.0
C486 C 0.11229 0.02359 0.35691 0.0
C487 C 0.13309 0.01663 0.36338 0.0
C488 C 0.0991 1.00751 0.59672 0.0
C489 C 0.10491 0.01274 0.47215 0.0
C490 C 0.08572 1.00564 0.65216 0.0
C491 C 0.06401 1.00702 0.6437 0.0
C492 C 0.0908 1.01093 0.53191 0.0
C493 C 0.05626 1.01034 0.57817 0.0
C494 C 0.09818 0.02158 0.41087 0.0
C495 C 0.13891 1.00739 0.42516 0.0
N496 N 0.06963 0.01228 0.5247 0.0
N497 N 0.125 1.00585 0.47692 0.0
H498 H 0.48098 0.15704 0.3901 0.0
H499 H 0.51119 0.04141 0.51249 0.0
H500 H 0.50093 0.10881 0.25157 0.0
H501 H 0.479 0.08639 0.63758 0.0
H502 H 0.50881 0.06582 0.41679 0.0
H503 H 0.48185 0.13162 0.48221 0.0
C504 C 0.48567 0.14111 0.37906 0.0
C505 C 0.49098 0.13513 0.31285 0.0
C506 C 0.50217 0.07029 0.46508 0.0
C507 C 0.49188 0.10573 0.41857 0.0
C508 C 0.5035 0.05635 0.51966 0.0
C509 C 0.49532 0.0619 0.58312 0.0
C510 C 0.49275 0.08999 0.47423 0.0
C511 C 0.48555 0.08147 0.58962 0.0
C512 C 0.48601 0.12654 0.43169 0.0
C513 C 0.49658 0.11412 0.30165 0.0
N514 N 0.48467 0.09482 0.53613 0.0
N515 N 0.497 0.10022 0.35395 0.0
H516 H 0.41779 0.51123 0.24517 0.0
H517 H 0.44098 0.48539 0.63529 0.0
H518 H 0.37127 0.48945 0.38646 0.0
H519 H 0.48466 0.51871 0.50906 0.0
H520 H 0.41665 0.4836 0.54036 0.0
H521 H 0.44367 0.51123 0.33683 0.0
C522 C 0.41301 0.50638 0.29533 0.0
C523 C 0.39223 0.50044 0.30803 0.0
C524 C 0.43156 0.49126 0.53314 0.0
C525 C 0.42184 0.50035 0.41322 0.0
C526 C 0.44552 0.49222 0.58736 0.0
C527 C 0.46485 0.5023 0.58024 0.0
C528 C 0.43693 0.50036 0.47082 0.0
C529 C 0.4699 0.51081 0.51678 0.0
C530 C 0.42779 0.50648 0.3477 0.0
C531 C 0.38697 0.49446 0.37429 0.0
N532 N 0.45601 0.50969 0.46453 0.0
N533 N 0.40163 0.49453 0.4241 0.0
H534 H 0.05118 0.37663 0.35827 0.0
H535 H 1.00442 0.48446 0.50211 0.0
H536 H 1.00173 0.41106 0.25985 0.0
H537 H 0.04445 0.44365 0.61765 0.0
H538 H 1.00645 0.45993 0.40679 0.0
H539 H 0.05173 0.4029 0.44803 0.0
C540 C 0.04037 0.38963 0.35541 0.0
C541 C 0.02628 0.39141 0.3011 0.0
C542 C 0.01489 0.45639 0.45285 0.0
C543 C 0.02713 0.42193 0.4039 0.0
C544 C 0.01381 0.47043 0.50715 0.0
C545 C 0.02422 0.46603 0.56797 0.0
C546 C 0.02657 0.43784 0.45919 0.0
C547 C 0.03613 0.44761 0.57175 0.0
C548 C 0.0408 0.40473 0.40667 0.0
C549 C 0.01305 0.40902 0.29993 0.0
N550 N 0.03693 0.43419 0.51828 0.0
N551 N 0.01377 0.4235 0.35047 0.0
H552 H 0.91204 1.00177 0.16781 0.0
H553 H 0.94125 0.97294 0.78367 0.0
H554 H 0.86885 0.97302 0.02854 0.0
H555 H 0.97879 0.01342 0.9083 0.0
H556 H 0.9162 0.96944 0.87699 0.0
H557 H 0.9384 1.00263 0.0779 0.0
C558 C 0.90811 0.99552 0.1185 0.0
C559 C 0.88809 0.98741 0.10581 0.0
C560 C 0.93 0.97896 0.88419 0.0
C561 C 0.91826 0.98844 1.00233 0.0
C562 C 0.94431 0.98092 0.831 0.0
C563 C 0.96224 0.99327 0.83868 0.0
C564 C 0.93362 0.98946 0.94563 0.0
C565 C 0.96537 1.0034 0.90082 0.0
C566 C 0.92315 0.99614 0.06704 0.0
C567 C 0.88392 0.97972 0.04053 0.0
N568 N 0.95123 1.00128 0.95189 0.0
N569 N 0.89884 0.98041 0.99144 0.0
H570 H 0.55169 0.88344 0.02758 0.0
H571 H 0.49432 0.98459 0.87503 0.0
H572 H 0.49633 0.91027 0.11729 0.0
H573 H 0.53938 0.94772 0.76476 0.0
H574 H 0.49735 0.96018 0.97056 0.0
H575 H 0.54984 0.90942 0.93719 0.0
C576 C 0.53921 0.8949 0.02857 0.0
C577 C 0.52416 0.89465 0.08034 0.0
C578 C 0.50662 0.95748 0.92554 0.0
C579 C 0.5219 0.92453 0.97638 0.0
C580 C 0.50498 0.97146 0.87119 0.0
C581 C 0.51657 0.9681 0.81185 0.0
C582 C 0.52013 0.94017 0.92073 0.0
C583 C 0.5301 0.95083 0.80948 0.0
C584 C 0.53809 0.90967 0.97664 0.0
C585 C 0.50817 0.90974 0.07818 0.0
N586 N 0.5315 0.93754 0.86301 0.0
N587 N 0.5075 0.9241 0.02725 0.0
H588 H 0.60665 0.51545 0.14398 0.0
H589 H 0.58212 0.54235 0.75543 0.0
H590 H 0.65205 0.54012 1.00388 0.0
H591 H 0.53983 0.50684 0.88033 0.0
H592 H 0.60646 0.54459 0.85021 0.0
H593 H 0.58074 0.51479 0.05241 0.0
C594 C 0.61117 0.5208 0.09411 0.0
C595 C 0.63165 0.52776 0.08172 0.0
C596 C 0.59185 0.53634 0.85718 0.0
C597 C 0.60201 0.5271 0.97661 0.0
C598 C 0.57789 0.53513 0.80305 0.0
C599 C 0.55895 0.52431 0.80983 0.0
C600 C 0.58689 0.52676 0.91909 0.0
C601 C 0.55429 0.5153 0.87288 0.0
C602 C 0.59638 0.52033 0.04178 0.0
C603 C 0.6366 0.53433 0.01579 0.0
N604 N 0.56818 0.51668 0.92505 0.0
N605 N 0.62192 0.53389 0.96603 0.0
H606 H 1.00887 0.65888 0.98488 0.0
H607 H 0.01342 0.53941 0.85819 0.0
H608 H 0.01214 0.60664 0.1227 0.0
H609 H 0.0129 0.59296 0.72613 0.0
H610 H 0.01111 0.56308 0.95621 0.0
H611 H 1.00828 0.63445 0.89022 0.0
C612 C 1.00923 0.64227 0.9955 0.0
C613 C 1.01053 0.63494 0.06237 0.0
C614 C 0.01138 0.56961 0.90571 0.0
C615 C 1.01021 0.60661 0.95307 0.0
C616 C 0.01255 0.55606 0.84977 0.0
C617 C 0.01319 0.56416 0.78385 0.0
C618 C 1.01082 0.59142 0.89548 0.0
C619 C 0.01245 0.58598 0.776 0.0
C620 C 1.00907 0.62827 0.94113 0.0
C621 C 0.01139 0.61312 0.0722 0.0
N622 N 0.01131 0.59877 0.83085 0.0
N623 N 0.01124 0.59977 0.01831 0.0
H624 H 0.08332 0.18859 0.34767 0.0
H625 H 0.01814 0.08256 0.31786 0.0
H626 H 0.04024 0.17567 0.18482 0.0
H627 H 0.04243 0.10751 0.50519 0.0
H628 H 0.03351 0.11221 0.25761 0.0
H629 H 0.07641 0.1538 0.39363 0.0
C630 C 0.07264 0.17836 0.32105 0.0
C631 C 0.06203 0.18525 0.26306 0.0
C632 C 0.03563 0.11098 0.31182 0.0
C633 C 0.05423 0.14546 0.31501 0.0
C634 C 0.02671 0.09419 0.34637 0.0
C635 C 0.02878 0.09259 0.41692 0.0
C636 C 0.04683 0.12615 0.34799 0.0
C637 C 0.04057 0.10788 0.45081 0.0
C638 C 0.06874 0.15852 0.34724 0.0
C639 C 0.0488 0.17109 0.22962 0.0
N640 N 0.04905 0.12405 0.41606 0.0
N641 N 0.04506 0.15194 0.2566 0.0
H642 H 0.33753 0.94093 0.16428 0.0
H643 H 0.40066 0.93344 0.51038 0.0
H644 H 0.30905 0.93506 0.36147 0.0
H645 H 0.42836 0.94864 0.3174 0.0
H646 H 0.36798 0.92501 0.4526 0.0
H647 H 0.37169 0.93466 0.21572 0.0
C648 C 0.33841 0.93801 0.21817 0.0
C649 C 0.32042 0.93893 0.25874 0.0
C650 C 0.38133 0.92987 0.42282 0.0
C651 C 0.3594 0.93172 0.31783 0.0
C652 C 0.39994 0.93477 0.45581 0.0
C653 C 0.41715 0.94213 0.41884 0.0
C654 C 0.37988 0.93246 0.35242 0.0
C655 C 0.41552 0.94305 0.34805 0.0
C656 C 0.3579 0.93437 0.24746 0.0
C657 C 0.32244 0.93451 0.32804 0.0
N658 N 0.39711 0.93859 0.31726 0.0
N659 N 0.34161 0.93143 0.35552 0.0
H660 H 0.59343 0.32255 0.24499 0.0
H661 H 0.52886 0.42682 0.31277 0.0
H662 H 0.53646 0.33879 0.14059 0.0
H663 H 0.58863 0.41395 0.40465 0.0
H664 H 0.5334 0.39627 0.24008 0.0
H665 H 0.59448 0.3578 0.29307 0.0
C666 C 0.58136 0.33365 0.23126 0.0
C667 C 0.5647 0.32764 0.18946 0.0
C668 C 0.54563 0.40019 0.27569 0.0
C669 C 0.56566 0.36784 0.24468 0.0
C670 C 0.54295 0.41753 0.31756 0.0
C671 C 0.55826 0.42271 0.36533 0.0
C672 C 0.56366 0.38781 0.28213 0.0
C673 C 0.57643 0.41045 0.36847 0.0
C674 C 0.58196 0.35376 0.25867 0.0
C675 C 0.54964 0.34273 0.17244 0.0
N676 N 0.57853 0.3934 0.32794 0.0
N677 N 0.5503 0.36201 0.20098 0.0
H678 H 0.18403 0.57745 0.11692 0.0
H679 H 0.11613 0.59096 0.45326 0.0
H680 H 0.21003 0.58438 0.31737 0.0
H681 H 0.09281 0.56353 0.2684 0.0
H682 H 0.1491 0.59854 0.39593 0.0
H683 H 0.1491 0.58232 0.16464 0.0
C684 C 0.18248 0.58025 0.17072 0.0
C685 C 0.20008 0.58008 0.21324 0.0
C686 C 0.13661 0.59115 0.36777 0.0
C687 C 0.16017 0.58601 0.26776 0.0
C688 C 0.11782 0.58671 0.4005 0.0
C689 C 0.10176 0.57621 0.36608 0.0
C690 C 0.13934 0.58514 0.30004 0.0
C691 C 0.10467 0.57167 0.29713 0.0
C692 C 0.16254 0.58312 0.1978 0.0
C693 C 0.19707 0.58442 0.28231 0.0
N694 N 0.1232 0.57593 0.26661 0.0
N695 N 0.17749 0.58695 0.30747 0.0
H696 H 0.93173 0.84177 0.19285 0.0
H697 H 0.01971 0.92816 0.18923 0.0
H698 H 0.9869 0.84033 0.31826 0.0
H699 H 0.9627 0.93296 0.07419 0.0
H700 H 1.00437 0.89967 0.25465 0.0
H701 H 0.93889 0.87846 0.16682 0.0
C702 C 0.94511 0.84927 0.21598 0.0
C703 C 0.95897 0.8378 0.25665 0.0
C704 C 0.99502 0.90715 0.21592 0.0
C705 C 0.96732 0.87969 0.22686 0.0
C706 C 1.00382 0.92336 0.17851 0.0
C707 C 0.99256 0.93258 0.12558 0.0
C708 C 0.97497 0.89984 0.19935 0.0
C709 C 0.97192 0.92611 0.11439 0.0
C710 C 0.94916 0.87024 0.20126 0.0
C711 C 0.97578 0.84845 0.28651 0.0
N712 N 0.96391 0.90982 0.15007 0.0
N713 N 0.9797 0.86865 0.26996 0.0
H714 H 0.67948 0.0454 0.24074 0.0
H715 H 0.61408 0.08527 0.92551 0.0
H716 H 0.70519 0.08558 0.08618 0.0
H717 H 0.58718 0.05258 0.09547 0.0
H718 H 0.64681 0.08865 0.98843 0.0
H719 H 0.64472 0.05164 0.19542 0.0
C720 C 0.67781 0.05592 0.19819 0.0
C721 C 0.69537 0.06472 0.16663 0.0
C722 C 0.63365 0.08099 0.01229 0.0
C723 C 0.65555 0.07145 0.11314 0.0
C724 C 0.61504 0.07894 0.97622 0.0
C725 C 0.59797 0.06847 1.00508 0.0
C726 C 0.63526 0.07229 0.07735 0.0
C727 C 0.59991 0.06086 0.07137 0.0
C728 C 0.65791 0.05935 0.17191 0.0
C729 C 0.69215 0.07803 0.11107 0.0
N730 N 0.61829 0.06272 0.10493 0.0
N731 N 0.67266 0.08074 0.08544 0.0
H732 H 0.44226 0.71799 0.02956 0.0
H733 H 0.44728 0.59462 0.07033 0.0
H734 H 0.44501 0.6866 0.22274 0.0
H735 H 0.44338 0.6263 0.87795 0.0
H736 H 0.44019 0.62767 0.12753 0.0
H737 H 0.43616 0.6845 0.97471 0.0
C738 C 0.4411 0.70413 0.0608 0.0
C739 C 0.44443 0.70513 0.13096 0.0
C740 C 0.4406 0.62736 0.07277 0.0
C741 C 0.43801 0.66652 0.06784 0.0
C742 C 0.44452 0.60844 0.03997 0.0
C743 C 0.44621 0.60773 0.96917 0.0
C744 C 0.43849 0.64575 0.03458 0.0
C745 C 0.44269 0.62622 0.93267 0.0
C746 C 0.43779 0.68493 0.02922 0.0
C747 C 0.44302 0.68652 0.16837 0.0
N748 N 0.43925 0.64451 0.96582 0.0
N749 N 0.4402 0.66794 0.13624 0.0
H750 H 0.82263 0.43232 0.11983 0.0
H751 H 0.93389 0.48817 0.09523 0.0
H752 H 0.84078 0.48606 0.23861 0.0
H753 H 0.91062 0.44441 0.94706 0.0
H754 H 0.90288 0.48183 0.1643 0.0
H755 H 0.85796 0.43081 0.07296 0.0
C756 C 0.83409 0.44361 0.1368 0.0
C757 C 0.82858 0.45957 0.18234 0.0
C758 C 0.90464 0.47349 0.11694 0.0
C759 C 0.86898 0.45784 0.12923 0.0
C760 C 0.92235 0.47705 0.07761 0.0
C761 C 0.92467 0.46699 0.01497 0.0
C762 C 0.88917 0.45974 0.09349 0.0
C763 C 0.90921 0.45281 0.99442 0.0
C764 C 0.85424 0.44271 0.1101 0.0
C765 C 0.84424 0.47344 0.20381 0.0
N766 N 0.89202 0.4497 0.03341 0.0
N767 N 0.86364 0.47241 0.17639 0.0
H768 H 1.00015 0.17898 0.82196 0.0
H769 H 0.03934 0.06174 0.89044 0.0
H770 H 0.04373 0.16326 0.98034 0.0
H771 H 1.00507 0.08016 0.71212 0.0
H772 H 0.04069 0.09844 0.92563 0.0
H773 H 1.00103 0.14265 0.78336 0.0
C774 C 1.00986 0.16788 0.84888 0.0
C775 C 0.02181 0.17429 0.90484 0.0
C776 C 0.03298 0.09447 0.87862 0.0
C777 C 0.02296 0.1324 0.86037 0.0
C778 C 0.03219 0.07346 0.85836 0.0
C779 C 0.02202 0.06768 0.79811 0.0
C780 C 0.02337 0.10994 0.83881 0.0
C781 C 0.01308 0.08373 0.75893 0.0
C782 C 1.01046 0.14712 0.82645 0.0
C783 C 0.03436 0.15915 0.93677 0.0
N784 N 0.01385 0.10401 0.78014 0.0
N785 N 0.03451 0.13894 0.91441 0.0
H786 H 0.35656 0.02412 1.00372 0.0
H787 H 0.42813 1.00123 0.6773 0.0
H788 H 0.33041 1.00466 0.81267 0.0
H789 H 0.45041 0.02681 0.86606 0.0
H790 H 0.39256 1.00041 0.72498 0.0
H791 H 0.39129 0.02301 0.9537 0.0
C792 C 0.35807 0.01967 0.95107 0.0
C793 C 0.34034 0.0147 0.9124 0.0
C794 C 0.4053 1.00618 0.75576 0.0
C795 C 0.38054 0.01318 0.85429 0.0
C796 C 0.42562 1.00665 0.72856 0.0
C797 C 0.44243 0.01413 0.76744 0.0
C798 C 0.40177 0.01313 0.82244 0.0
C799 C 0.43811 0.02095 0.83369 0.0
C800 C 0.37801 0.01895 0.92246 0.0
C801 C 0.34355 1.00853 0.84471 0.0
N802 N 0.41836 0.02026 0.85879 0.0
N803 N 0.36321 1.00804 0.81775 0.0
H804 H 0.48989 0.3595 0.97378 0.0
H805 H 0.52018 0.43556 0.66525 0.0
H806 H 0.51546 0.33675 0.78539 0.0
H807 H 0.49766 0.45679 0.85943 0.0
H808 H 0.51839 0.39932 0.70641 0.0
H809 H 0.49281 0.39517 0.93153 0.0
C810 C 0.49632 0.36193 0.92374 0.0
C811 C 0.50248 0.34487 0.88343 0.0
C812 C 0.51386 0.41194 0.73992 0.0
C813 C 0.50552 0.3861 0.83377 0.0
C814 C 0.51485 0.43266 0.7164 0.0
C815 C 0.50907 0.44936 0.75879 0.0
C816 C 0.50699 0.40786 0.80629 0.0
C817 C 0.50231 0.44454 0.82468 0.0
C818 C 0.49784 0.38241 0.89933 0.0
C819 C 0.51025 0.34926 0.81824 0.0
N820 N 0.50145 0.42435 0.84617 0.0
N821 N 0.51154 0.36937 0.79552 0.0
H822 H 0.16686 0.48756 0.95409 0.0
H823 H 0.09128 0.52781 0.65726 0.0
H824 H 0.18848 0.52761 0.79283 0.0
H825 H 0.07011 0.49689 0.83887 0.0
H826 H 0.1272 0.52657 0.70122 0.0
H827 H 0.13164 0.48967 0.90837 0.0
C828 C 0.16426 0.497 0.90944 0.0
C829 C 0.18089 0.50755 0.87791 0.0
C830 C 0.11464 0.52009 0.73133 0.0
C831 C 0.14018 0.50965 0.82384 0.0
C832 C 0.09411 0.52075 0.70619 0.0
C833 C 0.0775 0.51247 0.74425 0.0
C834 C 0.11864 0.51094 0.79478 0.0
C835 C 0.08225 0.50355 0.80747 0.0
C836 C 0.14405 0.49806 0.88293 0.0
C837 C 0.17634 0.51901 0.8188 0.0
N838 N 0.10226 0.503 0.83043 0.0
N839 N 0.15648 0.51974 0.79375 0.0
H840 H 0.02928 0.83019 0.62551 0.0
H841 H 0.99608 0.94991 0.57413 0.0
H842 H 0.9939 0.85259 0.45427 0.0
H843 H 0.02115 0.92666 0.76225 0.0
H844 H 0.99617 0.91444 0.52917 0.0
H845 H 0.02726 0.86509 0.67581 0.0
C846 C 0.02091 0.84231 0.59855 0.0
C847 C 0.01175 0.83819 0.53512 0.0
C848 C 1.00159 0.917 0.58039 0.0
C849 C 1.00975 0.87859 0.59254 0.0
C850 C 1.00158 0.93735 0.60628 0.0
C851 C 1.00867 0.94143 0.67231 0.0
C852 C 1.00891 0.90038 0.62028 0.0
C853 C 0.0155 0.92433 0.71121 0.0
C854 C 0.01988 0.86234 0.62734 0.0
C855 C 1.00153 0.85488 0.50253 0.0
N856 N 0.01558 0.9046 0.6845 0.0
N857 N 1.00088 0.87424 0.53141 0.0
H858 H 0.68346 0.0218 0.61629 0.0
H859 H 0.5624 1.003 0.53094 0.0
H860 H 0.66103 0.99517 0.42924 0.0
H861 H 0.5836 0.02465 0.72601 0.0
H862 H 0.59847 1.00168 0.49225 0.0
H863 H 0.64734 0.02445 0.65626 0.0
C864 C 0.67102 0.01645 0.58352 0.0
C865 C 0.67552 1.00817 0.51906 0.0
C866 C 0.59532 1.00675 0.54353 0.0
C867 C 0.63387 1.01142 0.56472 0.0
C868 C 0.57462 1.00753 0.56586 0.0
C869 C 0.56979 0.01397 0.63211 0.0
C870 C 0.61157 0.01246 0.58745 0.0
C871 C 0.58648 0.01962 0.67457 0.0
C872 C 0.65033 0.01808 0.60642 0.0
C873 C 0.65852 1.00192 0.4788 0.0
N874 N 0.6066 0.01873 0.65155 0.0
N875 N 0.63858 1.00363 0.50229 0.0
H876 H 0.49466 0.68846 0.57425 0.0
H877 H 0.53271 0.56936 0.53624 0.0
H878 H 0.53449 0.66549 0.41437 0.0
H879 H 0.49398 0.59001 0.70231 0.0
H880 H 0.53264 0.60467 0.49136 0.0
H881 H 0.49298 0.65289 0.62104 0.0
C882 C 0.50291 0.67596 0.54861 0.0
C883 C 0.51486 0.68011 0.49034 0.0
C884 C 0.52414 0.6016 0.53767 0.0
C885 C 0.51313 0.63934 0.54414 0.0
C886 C 0.52416 0.58131 0.56358 0.0
C887 C 0.51333 0.57653 0.62348 0.0
C888 C 0.51319 0.61753 0.57148 0.0
C889 C 0.50261 0.5929 0.65618 0.0
C890 C 0.50205 0.65567 0.57568 0.0
C891 C 0.52537 0.66324 0.45991 0.0
N892 N 0.50279 0.61266 0.62975 0.0
N893 N 0.52428 0.64374 0.48712 0.0
H894 H 0.85957 0.54058 0.41089 0.0
H895 H 0.93691 0.50228 0.70665 0.0
H896 H 0.83796 0.50633 0.58535 0.0
H897 H 0.95665 0.53449 0.52576 0.0
H898 H 0.90065 0.50382 0.66582 0.0
H899 H 0.89514 0.53856 0.45432 0.0
C900 C 0.86225 0.53269 0.45856 0.0
C901 C 0.84555 0.52375 0.49453 0.0
C902 C 0.91295 0.51055 0.63522 0.0
C903 C 0.8867 0.5212 0.54485 0.0
C904 C 0.93369 0.50974 0.65861 0.0
C905 C 0.95003 0.51824 0.61975 0.0
C906 C 0.90846 0.51999 0.57254 0.0
C907 C 0.94475 0.52765 0.55773 0.0
C908 C 0.88267 0.53144 0.48328 0.0
C909 C 0.85027 0.51334 0.55545 0.0
N910 N 0.92457 0.52825 0.53629 0.0
N911 N 0.87033 0.51243 0.57877 0.0
loop_
_geom_bond_atom_site_label_1
_geom_bond_atom_site_label_2
_geom_bond_distance
_geom_bond_site_symmetry_2
_ccdc_geom_bond_type
C0 C1 1.264 . S
C0 C5 1.479 . S
C0 C10 1.465 . S
C1 C0 1.264 . S
C1 C3 1.339 . S
C1 H28 0.931 . S
C2 C3 1.395 . S
C2 C4 1.320 . S
C3 C1 1.339 . S
C3 C2 1.395 . S
C3 H29 0.929 . S
C4 C2 1.320 . S
C4 C5 1.405 . S
C4 H30 0.930 . S
C5 C0 1.479 . S
C5 C4 1.405 . S
C5 H31 0.931 . S
U6 O7 2.454 . S
U6 O8 2.458 . S
U6 C9 2.984 . S
U6 C10 2.847 . S
U6 C23 2.882 . S
U6 O24 2.441 . S
U6 O25 2.420 . S
U6 O26 2.455 . S
U6 O27 2.449 . S
O7 U6 2.454 . S
O7 C9 1.353 . S
O8 U6 2.458 . S
O8 C9 1.286 . S
C9 U6 2.984 . S
C9 O7 1.353 . S
C9 O8 1.286 . S
C9 C11 1.363 . S
C10 C0 1.465 . S
C10 U6 2.847 . S
C10 O24 1.249 . S
C10 O25 1.202 . S
C11 C9 1.363 . S
C11 C13 1.408 . S
C11 C16 1.342 . S
C12 C13 1.310 . S
C12 C15 1.461 . S
C12 H32 0.932 . S
C13 C11 1.408 . S
C13 C12 1.310 . S
C13 H33 0.930 . S
C14 C15 1.474 . S
C14 C16 1.285 . S
C14 H34 0.929 . S
C15 C12 1.461 . S
C15 C14 1.474 . S
C16 C11 1.342 . S
C16 C14 1.285 . S
C16 H35 0.930 . S
C17 C20 1.424 . S
C17 C22 1.245 . S
C17 C23 1.428 . S
C18 C21 1.260 . S
C18 C22 1.477 . S
C18 H36 0.932 . S
C19 C20 1.384 . S
C19 C21 1.479 . S
C19 H37 0.929 . S
C20 C17 1.424 . S
C20 C19 1.384 . S
C20 H38 0.928 . S
C21 C18 1.260 . S
C21 C19 1.479 . S
C22 C17 1.245 . S
C22 C18 1.477 . S
C22 H39 0.932 . S
C23 U6 2.882 . S
C23 C17 1.428 . S
C23 O26 1.301 . S
C23 O27 1.282 . S
O24 U6 2.441 . S
O24 C10 1.249 . S
O25 U6 2.420 . S
O25 C10 1.202 . S
O26 U6 2.455 . S
O26 C23 1.301 . S
O27 U6 2.449 . S
O27 C23 1.282 . S
H28 C1 0.931 . S
H29 C3 0.929 . S
H30 C4 0.930 . S
H31 C5 0.931 . S
H32 C12 0.932 . S
H33 C13 0.930 . S
H34 C14 0.929 . S
H35 C16 0.930 . S
H36 C18 0.932 . S
H37 C19 0.929 . S
H38 C20 0.928 . S
H39 C22 0.932 . S
C40 C41 1.264 . S
C40 C45 1.479 . S
C40 C50 1.465 . S
C41 C40 1.264 . S
C41 C43 1.339 . S
C41 H68 0.931 . S
C42 C43 1.395 . S
C42 C44 1.320 . S
C43 C41 1.339 . S
C43 C42 1.395 . S
C43 H69 0.929 . S
C44 C42 1.320 . S
C44 C45 1.405 . S
C44 H70 0.921 1_455 S
C45 C40 1.479 . S
C45 C44 1.405 . S
C45 H71 0.931 . S
U46 O47 2.454 . S
U46 O48 2.458 . S
U46 C49 2.984 . S
U46 C50 2.847 . S
U46 C63 2.882 . S
U46 O64 2.441 . S
U46 O65 2.420 . S
U46 O66 2.455 . S
U46 O67 2.449 . S
O47 U46 2.454 . S
O47 C49 1.353 . S
O48 U46 2.458 . S
O48 C49 1.286 . S
C49 U46 2.984 . S
C49 O47 1.353 . S
C49 O48 1.286 . S
C49 C51 1.363 . S
C50 C40 1.465 . S
C50 U46 2.847 . S
C50 O64 1.249 . S
C50 O65 1.202 . S
C51 C49 1.363 . S
C51 C53 1.408 . S
C51 C56 1.342 . S
C52 C53 1.310 . S
C52 C55 1.461 . S
C52 H72 0.932 . S
C53 C51 1.408 . S
C53 C52 1.310 . S
C53 H73 0.930 . S
C54 C55 1.474 1_655 S
C54 C56 1.285 1_655 S
C54 H74 0.930 . S
C55 C52 1.461 . S
C55 C54 1.474 1_455 S
C56 C51 1.342 . S
C56 C54 1.285 1_455 S
C56 H75 0.932 . S
C57 C60 1.424 . S
C57 C62 1.245 . S
C57 C63 1.428 . S
C58 C61 1.260 . S
C58 C62 1.477 . S
C58 H76 0.932 . S
C59 C60 1.384 . S
C59 C61 1.479 . S
C59 H77 0.929 . S
C60 C57 1.424 . S
C60 C59 1.384 . S
C60 H78 0.928 . S
C61 C58 1.260 . S
C61 C59 1.479 . S
C62 C57 1.245 . S
C62 C58 1.477 . S
C62 H79 0.932 . S
C63 U46 2.882 . S
C63 C57 1.428 . S
C63 O66 1.301 . S
C63 O67 1.282 . S
O64 U46 2.441 . S
O64 C50 1.249 . S
O65 U46 2.420 . S
O65 C50 1.202 . S
O66 U46 2.455 . S
O66 C63 1.301 . S
O67 U46 2.449 . S
O67 C63 1.282 . S
H68 C41 0.931 . S
H69 C43 0.929 . S
H70 C44 0.921 1_655 S
H71 C45 0.931 . S
H72 C52 0.932 . S
H73 C53 0.930 . S
H74 C54 0.930 . S
H75 C56 0.932 . S
H76 C58 0.932 . S
H77 C59 0.929 . S
H78 C60 0.928 . S
H79 C62 0.932 . S
C80 C81 1.264 . S
C80 C85 1.479 . S
C80 C90 1.465 . S
C81 C80 1.264 . S
C81 C83 1.339 . S
C81 H108 0.931 . S
C82 C83 1.395 . S
C82 C84 1.320 . S
C83 C81 1.339 . S
C83 C82 1.395 . S
C83 H109 0.929 . S
C84 C82 1.320 . S
C84 C85 1.405 . S
C84 H110 0.921 1_545 S
C85 C80 1.479 . S
C85 C84 1.405 . S
C85 H111 0.931 . S
U86 O87 2.454 . S
U86 O88 2.458 . S
U86 C89 2.984 . S
U86 C90 2.847 . S
U86 C103 2.882 . S
U86 O104 2.441 . S
U86 O105 2.420 . S
U86 O106 2.455 . S
U86 O107 2.449 . S
O87 U86 2.454 . S
O87 C89 1.353 . S
O88 U86 2.458 . S
O88 C89 1.286 . S
C89 U86 2.984 . S
C89 O87 1.353 . S
C89 O88 1.286 . S
C89 C91 1.363 . S
C90 C80 1.465 . S
C90 U86 2.847 . S
C90 O104 1.249 . S
C90 O105 1.202 . S
C91 C89 1.363 . S
C91 C93 1.408 . S
C91 C96 1.342 . S
C92 C93 1.310 . S
C92 C95 1.461 . S
C92 H112 0.932 . S
C93 C91 1.408 . S
C93 C92 1.310 . S
C93 H113 0.930 . S
C94 C95 1.474 1_565 S
C94 C96 1.285 1_565 S
C94 H114 0.930 . S
C95 C92 1.461 . S
C95 C94 1.474 1_545 S
C96 C91 1.342 . S
C96 C94 1.285 1_545 S
C96 H115 0.932 . S
C97 C100 1.424 . S
C97 C102 1.245 . S
C97 C103 1.428 . S
C98 C101 1.260 . S
C98 C102 1.477 . S
C98 H116 0.932 . S
C99 C100 1.384 . S
C99 C101 1.479 . S
C99 H117 0.929 . S
C100 C97 1.424 . S
C100 C99 1.384 . S
C100 H118 0.928 . S
C101 C98 1.260 . S
C101 C99 1.479 . S
C102 C97 1.245 . S
C102 C98 1.477 . S
C102 H119 0.932 . S
C103 U86 2.882 . S
C103 C97 1.428 . S
C103 O106 1.301 . S
C103 O107 1.282 . S
O104 U86 2.441 . S
O104 C90 1.249 . S
O105 U86 2.420 . S
O105 C90 1.202 . S
O106 U86 2.455 . S
O106 C103 1.301 . S
O107 U86 2.449 . S
O107 C103 1.282 . S
H108 C81 0.931 . S
H109 C83 0.929 . S
H110 C84 0.921 1_565 S
H111 C85 0.931 . S
H112 C92 0.932 . S
H113 C93 0.930 . S
H114 C94 0.930 . S
H115 C96 0.932 . S
H116 C98 0.932 . S
H117 C99 0.929 . S
H118 C100 0.928 . S
H119 C102 0.932 . S
C120 C121 1.264 . S
C120 C125 1.479 . S
C120 C130 1.465 . S
C121 C120 1.264 . S
C121 C123 1.339 . S
C121 H148 0.931 . S
C122 C123 1.395 . S
C122 C124 1.320 . S
C123 C121 1.339 . S
C123 C122 1.395 . S
C123 H149 0.929 . S
C124 C122 1.320 . S
C124 C125 1.405 . S
C124 H150 0.930 . S
C125 C120 1.479 . S
C125 C124 1.405 . S
C125 H151 0.931 . S
U126 O127 2.454 . S
U126 O128 2.458 . S
U126 C129 2.984 . S
U126 C130 2.847 . S
U126 C143 2.882 . S
U126 O144 2.441 . S
U126 O145 2.420 . S
U126 O146 2.455 . S
U126 O147 2.449 . S
O127 U126 2.454 . S
O127 C129 1.353 . S
O128 U126 2.458 . S
O128 C129 1.286 . S
C129 U126 2.984 . S
C129 O127 1.353 . S
C129 O128 1.286 . S
C129 C131 1.363 . S
C130 C120 1.465 . S
C130 U126 2.847 . S
C130 O144 1.249 . S
C130 O145 1.202 . S
C131 C129 1.363 . S
C131 C133 1.408 . S
C131 C136 1.342 . S
C132 C133 1.310 . S
C132 C135 1.461 . S
C132 H152 0.932 . S
C133 C131 1.408 . S
C133 C132 1.310 . S
C133 H153 0.930 . S
C134 C135 1.474 . S
C134 C136 1.285 . S
C134 H154 0.929 . S
C135 C132 1.461 . S
C135 C134 1.474 . S
C136 C131 1.342 . S
C136 C134 1.285 . S
C136 H155 0.930 . S
C137 C140 1.424 . S
C137 C142 1.245 . S
C137 C143 1.428 . S
C138 C141 1.260 . S
C138 C142 1.477 . S
C138 H156 0.932 . S
C139 C140 1.384 . S
C139 C141 1.479 . S
C139 H157 0.929 . S
C140 C137 1.424 . S
C140 C139 1.384 . S
C140 H158 0.928 . S
C141 C138 1.260 . S
C141 C139 1.479 . S
C142 C137 1.245 . S
C142 C138 1.477 . S
C142 H159 0.932 . S
C143 U126 2.882 . S
C143 C137 1.428 . S
C143 O146 1.301 . S
C143 O147 1.282 . S
O144 U126 2.441 . S
O144 C130 1.249 . S
O145 U126 2.420 . S
O145 C130 1.202 . S
O146 U126 2.455 . S
O146 C143 1.301 . S
O147 U126 2.449 . S
O147 C143 1.282 . S
H148 C121 0.931 . S
H149 C123 0.929 . S
H150 C124 0.930 . S
H151 C125 0.931 . S
H152 C132 0.932 . S
H153 C133 0.930 . S
H154 C134 0.929 . S
H155 C136 0.930 . S
H156 C138 0.932 . S
H157 C139 0.929 . S
H158 C140 0.928 . S
H159 C142 0.932 . S
C160 C161 1.264 . S
C160 C165 1.479 . S
C160 C170 1.465 . S
C161 C160 1.264 . S
C161 C163 1.339 . S
C161 H188 0.931 . S
C162 C163 1.395 . S
C162 C164 1.320 . S
C163 C161 1.339 . S
C163 C162 1.395 . S
C163 H189 0.929 . S
C164 C162 1.320 . S
C164 C165 1.405 . S
C164 H190 0.930 . S
C165 C160 1.479 . S
C165 C164 1.405 . S
C165 H191 0.931 . S
U166 O167 2.454 . S
U166 O168 2.458 . S
U166 C169 2.984 . S
U166 C170 2.847 1_554 S
U166 C183 2.882 . S
U166 O184 2.441 1_554 S
U166 O185 2.420 1_554 S
U166 O186 2.455 . S
U166 O187 2.449 . S
O167 U166 2.454 . S
O167 C169 1.353 . S
O168 U166 2.458 . S
O168 C169 1.286 . S
C169 U166 2.984 . S
C169 O167 1.353 . S
C169 O168 1.286 . S
C169 C171 1.363 . S
C170 C160 1.465 . S
C170 U166 2.847 1_556 S
C170 O184 1.249 . S
C170 O185 1.202 . S
C171 C169 1.363 . S
C171 C173 1.408 . S
C171 C176 1.342 . S
C172 C173 1.310 . S
C172 C175 1.461 . S
C172 H192 0.932 . S
C173 C171 1.408 . S
C173 C172 1.310 . S
C173 H193 0.930 . S
C174 C175 1.474 . S
C174 C176 1.285 . S
C174 H194 0.929 . S
C175 C172 1.461 . S
C175 C174 1.474 . S
C176 C171 1.342 . S
C176 C174 1.285 . S
C176 H195 0.930 . S
C177 C180 1.424 . S
C177 C182 1.245 . S
C177 C183 1.428 . S
C178 C181 1.260 . S
C178 C182 1.477 . S
C178 H196 0.932 . S
C179 C180 1.384 . S
C179 C181 1.479 . S
C179 H197 0.929 . S
C180 C177 1.424 . S
C180 C179 1.384 . S
C180 H198 0.928 . S
C181 C178 1.260 . S
C181 C179 1.479 . S
C182 C177 1.245 . S
C182 C178 1.477 . S
C182 H199 0.932 . S
C183 U166 2.882 . S
C183 C177 1.428 . S
C183 O186 1.301 . S
C183 O187 1.282 . S
O184 U166 2.441 1_556 S
O184 C170 1.249 . S
O185 U166 2.420 1_556 S
O185 C170 1.202 . S
O186 U166 2.455 . S
O186 C183 1.301 . S
O187 U166 2.449 . S
O187 C183 1.282 . S
H188 C161 0.931 . S
H189 C163 0.929 . S
H190 C164 0.930 . S
H191 C165 0.931 . S
H192 C172 0.932 . S
H193 C173 0.930 . S
H194 C174 0.929 . S
H195 C176 0.930 . S
H196 C178 0.932 . S
H197 C179 0.929 . S
H198 C180 0.928 . S
H199 C182 0.932 . S
C200 C201 1.264 . S
C200 C205 1.479 . S
C200 C210 1.465 . S
C201 C200 1.264 . S
C201 C203 1.339 . S
C201 H228 0.931 . S
C202 C203 1.395 . S
C202 C204 1.320 . S
C203 C201 1.339 . S
C203 C202 1.395 . S
C203 H229 0.929 . S
C204 C202 1.320 . S
C204 C205 1.405 . S
C204 H230 0.923 1_455 S
C205 C200 1.479 . S
C205 C204 1.405 . S
C205 H231 0.931 . S
U206 O207 2.454 . S
U206 O208 2.458 . S
U206 C209 2.984 . S
U206 C210 2.847 1_554 S
U206 C223 2.882 . S
U206 O224 2.441 1_554 S
U206 O225 2.420 1_554 S
U206 O226 2.455 . S
U206 O227 2.449 . S
O207 U206 2.454 . S
O207 C209 1.353 . S
O208 U206 2.458 . S
O208 C209 1.286 . S
C209 U206 2.984 . S
C209 O207 1.353 . S
C209 O208 1.286 . S
C209 C211 1.363 . S
C210 C200 1.465 . S
C210 U206 2.847 1_556 S
C210 O224 1.249 . S
C210 O225 1.202 . S
C211 C209 1.363 . S
C211 C213 1.408 . S
C211 C216 1.342 . S
C212 C213 1.310 . S
C212 C215 1.462 . S
C212 H232 0.932 . S
C213 C211 1.408 . S
C213 C212 1.310 . S
C213 H233 0.930 . S
C214 C215 1.474 1_655 S
C214 C216 1.286 1_655 S
C214 H234 0.929 . S
C215 C212 1.462 . S
C215 C214 1.474 1_455 S
C216 C211 1.342 . S
C216 C214 1.286 1_455 S
C216 H235 0.933 . S
C217 C220 1.424 . S
C217 C222 1.245 . S
C217 C223 1.428 . S
C218 C221 1.260 . S
C218 C222 1.477 . S
C218 H236 0.932 . S
C219 C220 1.384 . S
C219 C221 1.479 . S
C219 H237 0.929 . S
C220 C217 1.424 . S
C220 C219 1.384 . S
C220 H238 0.928 . S
C221 C218 1.260 . S
C221 C219 1.479 . S
C222 C217 1.245 . S
C222 C218 1.477 . S
C222 H239 0.932 . S
C223 U206 2.882 . S
C223 C217 1.428 . S
C223 O226 1.301 . S
C223 O227 1.282 . S
O224 U206 2.441 1_556 S
O224 C210 1.249 . S
O225 U206 2.420 1_556 S
O225 C210 1.202 . S
O226 U206 2.455 . S
O226 C223 1.301 . S
O227 U206 2.449 . S
O227 C223 1.282 . S
H228 C201 0.931 . S
H229 C203 0.929 . S
H230 C204 0.923 1_655 S
H231 C205 0.931 . S
H232 C212 0.932 . S
H233 C213 0.930 . S
H234 C214 0.929 . S
H235 C216 0.933 . S
H236 C218 0.932 . S
H237 C219 0.929 . S
H238 C220 0.928 . S
H239 C222 0.932 . S
C240 C241 1.264 . S
C240 C245 1.479 . S
C240 C250 1.465 . S
C241 C240 1.264 . S
C241 C243 1.339 . S
C241 H268 0.931 . S
C242 C243 1.395 . S
C242 C244 1.320 . S
C243 C241 1.339 . S
C243 C242 1.395 . S
C243 H269 0.929 . S
C244 C242 1.320 . S
C244 C245 1.405 . S
C244 H270 0.923 1_545 S
C245 C240 1.479 . S
C245 C244 1.405 . S
C245 H271 0.931 . S
U246 O247 2.454 . S
U246 O248 2.458 . S
U246 C249 2.984 . S
U246 C250 2.847 1_554 S
U246 C263 2.882 . S
U246 O264 2.441 1_554 S
U246 O265 2.420 1_554 S
U246 O266 2.455 . S
U246 O267 2.449 . S
O247 U246 2.454 . S
O247 C249 1.353 . S
O248 U246 2.458 . S
O248 C249 1.286 . S
C249 U246 2.984 . S
C249 O247 1.353 . S
C249 O248 1.286 . S
C249 C251 1.363 . S
C250 C240 1.465 . S
C250 U246 2.847 1_556 S
C250 O264 1.249 . S
C250 O265 1.202 . S
C251 C249 1.363 . S
C251 C253 1.408 . S
C251 C256 1.342 . S
C252 C253 1.310 . S
C252 C255 1.462 . S
C252 H272 0.932 . S
C253 C251 1.408 . S
C253 C252 1.310 . S
C253 H273 0.930 . S
C254 C255 1.474 1_565 S
C254 C256 1.286 1_565 S
C254 H274 0.929 . S
C255 C252 1.462 . S
C255 C254 1.474 1_545 S
C256 C251 1.342 . S
C256 C254 1.286 1_545 S
C256 H275 0.933 . S
C257 C260 1.424 . S
C257 C262 1.245 . S
C257 C263 1.428 . S
C258 C261 1.260 . S
C258 C262 1.477 . S
C258 H276 0.932 . S
C259 C260 1.384 . S
C259 C261 1.479 . S
C259 H277 0.929 . S
C260 C257 1.424 . S
C260 C259 1.384 . S
C260 H278 0.928 . S
C261 C258 1.260 . S
C261 C259 1.479 . S
C262 C257 1.245 . S
C262 C258 1.477 . S
C262 H279 0.932 . S
C263 U246 2.882 . S
C263 C257 1.428 . S
C263 O266 1.301 . S
C263 O267 1.282 . S
O264 U246 2.441 1_556 S
O264 C250 1.249 . S
O265 U246 2.420 1_556 S
O265 C250 1.202 . S
O266 U246 2.455 . S
O266 C263 1.301 . S
O267 U246 2.449 . S
O267 C263 1.282 . S
H268 C241 0.931 . S
H269 C243 0.929 . S
H270 C244 0.923 1_565 S
H271 C245 0.931 . S
H272 C252 0.932 . S
H273 C253 0.930 . S
H274 C254 0.929 . S
H275 C256 0.933 . S
H276 C258 0.932 . S
H277 C259 0.929 . S
H278 C260 0.928 . S
H279 C262 0.932 . S
C280 C281 1.264 . S
C280 C285 1.479 . S
C280 C290 1.465 . S
C281 C280 1.264 . S
C281 C283 1.339 . S
C281 H308 0.931 . S
C282 C283 1.395 . S
C282 C284 1.320 . S
C283 C281 1.339 . S
C283 C282 1.395 . S
C283 H309 0.929 . S
C284 C282 1.320 . S
C284 C285 1.405 . S
C284 H310 0.930 . S
C285 C280 1.479 . S
C285 C284 1.405 . S
C285 H311 0.931 . S
U286 O287 2.454 . S
U286 O288 2.458 . S
U286 C289 2.984 . S
U286 C290 2.847 1_554 S
U286 C303 2.882 . S
U286 O304 2.441 1_554 S
U286 O305 2.420 1_554 S
U286 O306 2.455 . S
U286 O307 2.449 . S
O287 U286 2.454 . S
O287 C289 1.353 . S
O288 U286 2.458 . S
O288 C289 1.286 . S
C289 U286 2.984 . S
C289 O287 1.353 . S
C289 O288 1.286 . S
C289 C291 1.363 . S
C290 C280 1.465 . S
C290 U286 2.847 1_556 S
C290 O304 1.249 . S
C290 O305 1.202 . S
C291 C289 1.363 . S
C291 C293 1.408 . S
C291 C296 1.342 . S
C292 C293 1.310 . S
C292 C295 1.461 . S
C292 H312 0.932 . S
C293 C291 1.408 . S
C293 C292 1.310 . S
C293 H313 0.930 . S
C294 C295 1.474 . S
C294 C296 1.285 . S
C294 H314 0.929 . S
C295 C292 1.461 . S
C295 C294 1.474 . S
C296 C291 1.342 . S
C296 C294 1.285 . S
C296 H315 0.930 . S
C297 C300 1.424 . S
C297 C302 1.245 . S
C297 C303 1.428 . S
C298 C301 1.260 . S
C298 C302 1.477 . S
C298 H316 0.932 . S
C299 C300 1.384 . S
C299 C301 1.479 . S
C299 H317 0.929 . S
C300 C297 1.424 . S
C300 C299 1.384 . S
C300 H318 0.928 . S
C301 C298 1.260 . S
C301 C299 1.479 . S
C302 C297 1.245 . S
C302 C298 1.477 . S
C302 H319 0.932 . S
C303 U286 2.882 . S
C303 C297 1.428 . S
C303 O306 1.301 . S
C303 O307 1.282 . S
O304 U286 2.441 1_556 S
O304 C290 1.249 . S
O305 U286 2.420 1_556 S
O305 C290 1.202 . S
O306 U286 2.455 . S
O306 C303 1.301 . S
O307 U286 2.449 . S
O307 C303 1.282 . S
H308 C281 0.931 . S
H309 C283 0.929 . S
H310 C284 0.930 . S
H311 C285 0.931 . S
H312 C292 0.932 . S
H313 C293 0.930 . S
H314 C294 0.929 . S
H315 C296 0.930 . S
H316 C298 0.932 . S
H317 C299 0.929 . S
H318 C300 0.928 . S
H319 C302 0.932 . S
Tb320 C322 2.809 . S
Tb320 O340 2.484 . S
Tb320 O341 2.440 . S
Tb320 O342 2.658 1_565 S
Tb320 O343 2.409 . S
Tb320 O344 2.378 . S
Tb320 O348 2.325 1_455 S
Tb320 O351 2.341 1_565 S
Tb321 C331 2.809 . S
Tb321 O342 2.325 1_655 S
Tb321 O345 2.341 1_545 S
Tb321 O346 2.484 . S
Tb321 O347 2.440 . S
Tb321 O348 2.658 1_545 S
Tb321 O349 2.409 . S
Tb321 O350 2.378 . S
C322 Tb320 2.809 . S
C322 C323 1.514 . S
C322 O340 1.248 . S
C322 O341 1.266 . S
C323 C322 1.514 . S
C323 C324 1.359 . S
C323 C328 1.348 . S
C324 C323 1.359 . S
C324 C325 1.380 . S
C324 H352 0.929 1_455 S
C325 C324 1.380 . S
C325 C326 1.347 . S
C325 H353 0.931 1_455 S
C326 C325 1.347 . S
C326 C327 1.369 . S
C327 C326 1.369 . S
C327 C328 1.408 . S
C327 H354 0.930 . S
C328 C323 1.348 . S
C328 C327 1.408 . S
C328 H355 0.930 . S
C329 O342 1.281 1_565 S
C329 O343 1.254 . S
C330 O344 1.236 1_655 S
C330 O345 1.266 . S
C331 Tb321 2.809 . S
C331 C332 1.514 . S
C331 O346 1.248 . S
C331 O347 1.266 . S
C332 C331 1.514 . S
C332 C333 1.359 . S
C332 C337 1.348 . S
C333 C332 1.359 . S
C333 C334 1.380 . S
C333 H356 0.929 1_655 S
C334 C333 1.380 . S
C334 C335 1.347 . S
C334 H357 0.931 1_655 S
C335 C334 1.347 . S
C335 C336 1.369 . S
C336 C335 1.369 . S
C336 C337 1.408 . S
C336 H358 0.930 . S
C337 C332 1.348 . S
C337 C336 1.408 . S
C337 H359 0.930 . S
C338 O348 1.281 1_545 S
C338 O349 1.254 . S
C339 O350 1.236 1_455 S
C339 O351 1.266 . S
O340 Tb320 2.484 . S
O340 C322 1.248 . S
O341 Tb320 2.440 . S
O341 C322 1.266 . S
O342 Tb320 2.658 1_545 S
O342 Tb321 2.325 1_455 S
O342 C329 1.281 1_545 S
O343 Tb320 2.409 . S
O343 C329 1.254 . S
O344 Tb320 2.378 . S
O344 C330 1.236 1_455 S
O345 Tb321 2.341 1_565 S
O345 C330 1.266 . S
O346 Tb321 2.484 . S
O346 C331 1.248 . S
O347 Tb321 2.440 . S
O347 C331 1.266 . S
O348 Tb320 2.325 1_655 S
O348 Tb321 2.658 1_565 S
O348 C338 1.281 1_565 S
O349 Tb321 2.409 . S
O349 C338 1.254 . S
O350 Tb321 2.378 . S
O350 C339 1.236 1_655 S
O351 Tb320 2.341 1_545 S
O351 C339 1.266 . S
H352 C324 0.929 1_655 S
H353 C325 0.931 1_655 S
H354 C327 0.930 . S
H355 C328 0.930 . S
H356 C333 0.929 1_455 S
H357 C334 0.931 1_455 S
H358 C336 0.930 . S
H359 C337 0.930 . S
Tb360 C362 2.809 . S
Tb360 O380 2.484 . S
Tb360 O381 2.440 . S
Tb360 O382 2.658 . S
Tb360 O383 2.409 . S
Tb360 O384 2.378 . S
Tb360 O388 2.325 1_545 S
Tb360 O391 2.341 . S
Tb361 C371 2.809 . S
Tb361 O382 2.325 1_565 S
Tb361 O385 2.341 . S
Tb361 O386 2.484 . S
Tb361 O387 2.440 . S
Tb361 O388 2.658 . S
Tb361 O389 2.409 . S
Tb361 O390 2.378 . S
C362 Tb360 2.809 . S
C362 C363 1.514 . S
C362 O380 1.248 . S
C362 O381 1.266 . S
C363 C362 1.514 . S
C363 C364 1.359 . S
C363 C368 1.348 . S
C364 C363 1.359 . S
C364 C365 1.380 . S
C364 H392 0.929 1_545 S
C365 C364 1.380 . S
C365 C366 1.347 . S
C365 H393 0.931 1_545 S
C366 C365 1.347 . S
C366 C367 1.369 . S
C367 C366 1.369 . S
C367 C368 1.408 . S
C367 H394 0.930 . S
C368 C363 1.348 . S
C368 C367 1.408 . S
C368 H395 0.930 . S
C369 O382 1.281 . S
C369 O383 1.254 . S
C370 O384 1.236 1_565 S
C370 O385 1.266 . S
C371 Tb361 2.809 . S
C371 C372 1.514 . S
C371 O386 1.248 . S
C371 O387 1.266 . S
C372 C371 1.514 . S
C372 C373 1.359 . S
C372 C377 1.348 . S
C373 C372 1.359 . S
C373 C374 1.380 . S
C373 H396 0.929 1_565 S
C374 C373 1.380 . S
C374 C375 1.347 . S
C374 H397 0.931 1_565 S
C375 C374 1.347 . S
C375 C376 1.369 . S
C376 C375 1.369 . S
C376 C377 1.408 . S
C376 H398 0.930 . S
C377 C372 1.348 . S
C377 C376 1.408 . S
C377 H399 0.930 . S
C378 O388 1.281 . S
C378 O389 1.254 . S
C379 O390 1.236 1_545 S
C379 O391 1.266 . S
O380 Tb360 2.484 . S
O380 C362 1.248 . S
O381 Tb360 2.440 . S
O381 C362 1.266 . S
O382 Tb360 2.658 . S
O382 Tb361 2.325 1_545 S
O382 C369 1.281 . S
O383 Tb360 2.409 . S
O383 C369 1.254 . S
O384 Tb360 2.378 . S
O384 C370 1.236 1_545 S
O385 Tb361 2.341 . S
O385 C370 1.266 . S
O386 Tb361 2.484 . S
O386 C371 1.248 . S
O387 Tb361 2.440 . S
O387 C371 1.266 . S
O388 Tb360 2.325 1_565 S
O388 Tb361 2.658 . S
O388 C378 1.281 . S
O389 Tb361 2.409 . S
O389 C378 1.254 . S
O390 Tb361 2.378 . S
O390 C379 1.236 1_565 S
O391 Tb360 2.341 . S
O391 C379 1.266 . S
H392 C364 0.929 1_565 S
H393 C365 0.931 1_565 S
H394 C367 0.930 . S
H395 C368 0.930 . S
H396 C373 0.929 1_545 S
H397 C374 0.931 1_545 S
H398 C376 0.930 . S
H399 C377 0.930 . S
Tb400 C402 2.809 . S
Tb400 O420 2.484 . S
Tb400 O421 2.440 . S
Tb400 O422 2.658 . S
Tb400 O423 2.409 . S
Tb400 O424 2.378 . S
Tb400 O428 2.325 . S
Tb400 O431 2.341 . S
Tb401 C411 2.809 . S
Tb401 O422 2.325 . S
Tb401 O425 2.341 . S
Tb401 O426 2.484 . S
Tb401 O427 2.440 . S
Tb401 O428 2.658 . S
Tb401 O429 2.409 . S
Tb401 O430 2.378 . S
C402 Tb400 2.809 . S
C402 C403 1.514 . S
C402 O420 1.248 . S
C402 O421 1.266 . S
C403 C402 1.514 . S
C403 C404 1.359 . S
C403 C408 1.348 . S
C404 C403 1.359 . S
C404 C405 1.380 . S
C404 H432 0.929 . S
C405 C404 1.380 . S
C405 C406 1.347 . S
C405 H433 0.931 . S
C406 C405 1.347 . S
C406 C407 1.369 . S
C407 C406 1.369 . S
C407 C408 1.408 . S
C407 H434 0.930 . S
C408 C403 1.348 . S
C408 C407 1.408 . S
C408 H435 0.930 . S
C409 O422 1.281 . S
C409 O423 1.254 . S
C410 O424 1.236 . S
C410 O425 1.266 . S
C411 Tb401 2.809 . S
C411 C412 1.514 . S
C411 O426 1.248 . S
C411 O427 1.266 . S
C412 C411 1.514 . S
C412 C413 1.359 . S
C412 C417 1.348 . S
C413 C412 1.359 . S
C413 C414 1.380 . S
C413 H436 0.929 . S
C414 C413 1.380 . S
C414 C415 1.347 . S
C414 H437 0.931 . S
C415 C414 1.347 . S
C415 C416 1.369 . S
C416 C415 1.369 . S
C416 C417 1.408 . S
C416 H438 0.930 . S
C417 C412 1.348 . S
C417 C416 1.408 . S
C417 H439 0.930 . S
C418 O428 1.281 . S
C418 O429 1.254 . S
C419 O430 1.236 . S
C419 O431 1.266 . S
O420 Tb400 2.484 . S
O420 C402 1.248 . S
O421 Tb400 2.440 . S
O421 C402 1.266 . S
O422 Tb400 2.658 . S
O422 Tb401 2.325 . S
O422 C409 1.281 . S
O423 Tb400 2.409 . S
O423 C409 1.254 . S
O424 Tb400 2.378 . S
O424 C410 1.236 . S
O425 Tb401 2.341 . S
O425 C410 1.266 . S
O426 Tb401 2.484 . S
O426 C411 1.248 . S
O427 Tb401 2.440 . S
O427 C411 1.266 . S
O428 Tb400 2.325 . S
O428 Tb401 2.658 . S
O428 C418 1.281 . S
O429 Tb401 2.409 . S
O429 C418 1.254 . S
O430 Tb401 2.378 . S
O430 C419 1.236 . S
O431 Tb400 2.341 . S
O431 C419 1.266 . S
H432 C404 0.929 . S
H433 C405 0.931 . S
H434 C407 0.930 . S
H435 C408 0.930 . S
H436 C413 0.929 . S
H437 C414 0.931 . S
H438 C416 0.930 . S
H439 C417 0.930 . S
Tb440 C442 2.809 . S
Tb440 O460 2.484 . S
Tb440 O461 2.440 . S
Tb440 O462 2.658 1_655 S
Tb440 O463 2.409 . S
Tb440 O464 2.378 . S
Tb440 O468 2.325 . S
Tb440 O471 2.341 1_655 S
Tb441 C451 2.809 . S
Tb441 O462 2.325 . S
Tb441 O465 2.341 1_455 S
Tb441 O466 2.484 . S
Tb441 O467 2.440 . S
Tb441 O468 2.658 1_455 S
Tb441 O469 2.409 . S
Tb441 O470 2.378 . S
C442 Tb440 2.809 . S
C442 C443 1.514 . S
C442 O460 1.248 . S
C442 O461 1.266 . S
C443 C442 1.514 . S
C443 C444 1.359 . S
C443 C448 1.348 . S
C444 C443 1.359 . S
C444 C445 1.380 . S
C444 H472 0.929 . S
C445 C444 1.380 . S
C445 C446 1.347 . S
C445 H473 0.931 . S
C446 C445 1.347 . S
C446 C447 1.369 . S
C447 C446 1.369 . S
C447 C448 1.408 . S
C447 H474 0.930 . S
C448 C443 1.348 . S
C448 C447 1.408 . S
C448 H475 0.930 . S
C449 O462 1.273 1_655 S
C449 O463 1.265 . S
C450 O464 1.236 . S
C450 O465 1.266 . S
C451 Tb441 2.809 . S
C451 C452 1.514 . S
C451 O466 1.248 . S
C451 O467 1.266 . S
C452 C451 1.514 . S
C452 C453 1.359 . S
C452 C457 1.348 . S
C453 C452 1.359 . S
C453 C454 1.380 . S
C453 H476 0.929 . S
C454 C453 1.380 . S
C454 C455 1.347 . S
C454 H477 0.931 . S
C455 C454 1.347 . S
C455 C456 1.369 . S
C456 C455 1.369 . S
C456 C457 1.408 . S
C456 H478 0.930 . S
C457 C452 1.348 . S
C457 C456 1.408 . S
C457 H479 0.930 . S
C458 O468 1.269 1_455 S
C458 O469 1.271 . S
C459 O470 1.236 . S
C459 O471 1.266 . S
O460 Tb440 2.484 . S
O460 C442 1.248 . S
O461 Tb440 2.440 . S
O461 C442 1.266 . S
O462 Tb440 2.658 1_455 S
O462 Tb441 2.325 . S
O462 C449 1.273 1_455 S
O463 Tb440 2.409 . S
O463 C449 1.265 . S
O464 Tb440 2.378 . S
O464 C450 1.236 . S
O465 Tb441 2.341 1_655 S
O465 C450 1.266 . S
O466 Tb441 2.484 . S
O466 C451 1.248 . S
O467 Tb441 2.440 . S
O467 C451 1.266 . S
O468 Tb440 2.325 . S
O468 Tb441 2.658 1_655 S
O468 C458 1.269 1_655 S
O469 Tb441 2.409 . S
O469 C458 1.271 . S
O470 Tb441 2.378 . S
O470 C459 1.236 . S
O471 Tb440 2.341 1_455 S
O471 C459 1.266 . S
H472 C444 0.929 . S
H473 C445 0.931 . S
H474 C447 0.930 . S
H475 C448 0.930 . S
H476 C453 0.929 . S
H477 C454 0.931 . S
H478 C456 0.930 . S
H479 C457 0.930 . S
H480 C486 0.930 . S
H481 C490 0.930 . S
H482 C495 0.929 . S
H483 C493 0.929 . S
H484 C488 0.929 . S
H485 C494 0.929 . S
C486 H480 0.930 . S
C486 C487 1.392 . S
C486 C494 1.378 . S
C487 C486 1.392 . S
C487 C495 1.408 1_545 S
C488 H484 0.929 . S
C488 C490 1.378 . S
C488 C492 1.358 . S
C489 C492 1.461 1_545 S
C489 C494 1.390 . S
C489 N497 1.387 1_545 S
C490 H481 0.930 . S
C490 C488 1.378 . S
C490 C491 1.371 1_565 S
C491 C490 1.371 1_545 S
C491 C493 1.429 . S
C492 C488 1.358 . S
C492 C489 1.461 1_565 S
C492 N496 1.419 1_565 S
C493 H483 0.929 . S
C493 C491 1.429 . S
C493 N496 1.384 . S
C494 H485 0.929 . S
C494 C486 1.378 . S
C494 C489 1.390 . S
C495 H482 0.929 . S
C495 C487 1.408 1_565 S
C495 N497 1.384 . S
N496 C492 1.419 1_545 S
N496 C493 1.384 . S
N497 C489 1.387 1_565 S
N497 C495 1.384 . S
H498 C504 0.930 . S
H499 C508 0.930 . S
H500 C513 0.929 . S
H501 C511 0.929 . S
H502 C506 0.929 . S
H503 C512 0.929 . S
C504 H498 0.930 . S
C504 C505 1.367 . S
C504 C512 1.378 . S
C505 C504 1.367 . S
C505 C513 1.433 . S
C506 H502 0.929 . S
C506 C508 1.378 . S
C506 C510 1.350 . S
C507 C510 1.463 . S
C507 C512 1.350 . S
C507 N515 1.427 . S
C508 H499 0.930 . S
C508 C506 1.378 . S
C508 C509 1.367 . S
C509 C508 1.367 . S
C509 C511 1.433 . S
C510 C506 1.350 . S
C510 C507 1.463 . S
C510 N514 1.427 . S
C511 H501 0.929 . S
C511 C509 1.433 . S
C511 N514 1.384 . S
C512 H503 0.929 . S
C512 C504 1.378 . S
C512 C507 1.350 . S
C513 H500 0.929 . S
C513 C505 1.433 . S
C513 N515 1.384 . S
N514 C510 1.427 . S
N514 C511 1.384 . S
N515 C507 1.427 . S
N515 C513 1.384 . S
H516 C522 0.930 . S
H517 C526 0.930 . S
H518 C531 0.929 . S
H519 C529 0.929 . S
H520 C524 0.929 . S
H521 C530 0.929 . S
C522 H516 0.930 . S
C522 C523 1.367 . S
C522 C530 1.378 . S
C523 C522 1.367 . S
C523 C531 1.433 . S
C524 H520 0.929 . S
C524 C526 1.378 . S
C524 C528 1.350 . S
C525 C528 1.463 . S
C525 C530 1.350 . S
C525 N533 1.427 . S
C526 H517 0.930 . S
C526 C524 1.378 . S
C526 C527 1.367 . S
C527 C526 1.367 . S
C527 C529 1.433 . S
C528 C524 1.350 . S
C528 C525 1.463 . S
C528 N532 1.427 . S
C529 H519 0.929 . S
C529 C527 1.433 . S
C529 N532 1.384 . S
C530 H521 0.929 . S
C530 C522 1.378 . S
C530 C525 1.350 . S
C531 H518 0.929 . S
C531 C523 1.433 . S
C531 N533 1.384 . S
N532 C528 1.427 . S
N532 C529 1.384 . S
N533 C525 1.427 . S
N533 C531 1.384 . S
H534 C540 0.930 . S
H535 C544 0.930 . S
H536 C549 0.929 . S
H537 C547 0.929 . S
H538 C542 0.929 . S
H539 C548 0.929 . S
C540 H534 0.930 . S
C540 C541 1.400 . S
C540 C548 1.378 . S
C541 C540 1.400 . S
C541 C549 1.400 1_455 S
C542 H538 0.929 . S
C542 C544 1.378 . S
C542 C546 1.353 1_655 S
C543 C546 1.462 . S
C543 C548 1.350 . S
C543 N551 1.427 1_455 S
C544 H535 0.930 . S
C544 C542 1.378 . S
C544 C545 1.345 1_655 S
C545 C544 1.345 1_455 S
C545 C547 1.456 . S
C546 C542 1.353 1_455 S
C546 C543 1.462 . S
C546 N550 1.424 . S
C547 H537 0.929 . S
C547 C545 1.456 . S
C547 N550 1.384 . S
C548 H539 0.929 . S
C548 C540 1.378 . S
C548 C543 1.350 . S
C549 H536 0.929 . S
C549 C541 1.400 1_655 S
C549 N551 1.384 . S
N550 C546 1.424 . S
N550 C547 1.384 . S
N551 C543 1.427 1_655 S
N551 C549 1.384 . S
H552 C558 0.930 . S
H553 C562 0.930 . S
H554 C567 0.929 . S
H555 C565 0.929 . S
H556 C560 0.929 . S
H557 C566 0.929 . S
C558 H552 0.930 . S
C558 C559 1.383 . S
C558 C566 1.378 . S
C559 C558 1.383 . S
C559 C567 1.417 1_545 S
C560 H556 0.929 . S
C560 C562 1.378 . S
C560 C564 1.381 . S
C561 C564 1.460 1_544 S
C561 C566 1.370 . S
C561 N569 1.407 1_545 S
C562 H553 0.930 . S
C562 C560 1.378 . S
C562 C563 1.393 . S
C563 C562 1.393 . S
C563 C565 1.407 1_565 S
C564 C560 1.381 . S
C564 C561 1.460 1_566 S
C564 N568 1.397 1_565 S
C565 H555 0.929 . S
C565 C563 1.407 1_545 S
C565 N568 1.384 . S
C566 H557 0.929 . S
C566 C558 1.378 . S
C566 C561 1.370 . S
C567 H554 0.929 . S
C567 C559 1.417 1_565 S
C567 N569 1.384 . S
N568 C564 1.397 1_545 S
N568 C565 1.384 . S
N569 C561 1.407 1_565 S
N569 C567 1.384 . S
H570 C576 0.930 . S
H571 C580 0.930 . S
H572 C585 0.929 . S
H573 C583 0.929 . S
H574 C578 0.929 1_554 S
H575 C584 0.929 . S
C576 H570 0.930 . S
C576 C577 1.367 . S
C576 C584 1.378 . S
C577 C576 1.367 . S
C577 C585 1.433 . S
C578 H574 0.929 1_556 S
C578 C580 1.378 . S
C578 C582 1.350 . S
C579 C582 1.463 1_554 S
C579 C584 1.350 . S
C579 N587 1.427 . S
C580 H571 0.930 . S
C580 C578 1.378 . S
C580 C581 1.367 . S
C581 C580 1.367 . S
C581 C583 1.433 . S
C582 C578 1.350 . S
C582 C579 1.463 1_556 S
C582 N586 1.427 . S
C583 H573 0.929 . S
C583 C581 1.433 . S
C583 N586 1.384 . S
C584 H575 0.929 . S
C584 C576 1.378 . S
C584 C579 1.350 . S
C585 H572 0.929 . S
C585 C577 1.433 . S
C585 N587 1.384 . S
N586 C582 1.427 . S
N586 C583 1.384 . S
N587 C579 1.427 . S
N587 C585 1.384 . S
H588 C594 0.930 . S
H589 C598 0.930 . S
H590 C603 0.929 . S
H591 C601 0.929 . S
H592 C596 0.929 . S
H593 C602 0.929 . S
C594 H588 0.930 . S
C594 C595 1.367 . S
C594 C602 1.378 . S
C595 C594 1.367 . S
C595 C603 1.433 . S
C596 H592 0.929 . S
C596 C598 1.378 . S
C596 C600 1.350 . S
C597 C600 1.463 1_554 S
C597 C602 1.350 . S
C597 N605 1.427 . S
C598 H589 0.930 . S
C598 C596 1.378 . S
C598 C599 1.367 . S
C599 C598 1.367 . S
C599 C601 1.433 . S
C600 C596 1.350 . S
C600 C597 1.463 1_556 S
C600 N604 1.427 . S
C601 H591 0.929 . S
C601 C599 1.433 . S
C601 N604 1.384 . S
C602 H593 0.929 . S
C602 C594 1.378 . S
C602 C597 1.350 . S
C603 H590 0.929 . S
C603 C595 1.433 . S
C603 N605 1.384 . S
N604 C600 1.427 . S
N604 C601 1.384 . S
N605 C597 1.427 . S
N605 C603 1.384 . S
H606 C612 0.930 . S
H607 C616 0.930 . S
H608 C621 0.929 . S
H609 C619 0.929 . S
H610 C614 0.929 . S
H611 C620 0.929 . S
C612 H606 0.930 . S
C612 C613 1.367 . S
C612 C620 1.378 . S
C613 C612 1.367 . S
C613 C621 1.433 1_455 S
C614 H610 0.929 . S
C614 C616 1.378 . S
C614 C618 1.350 . S
C615 C618 1.463 1_454 S
C615 C620 1.346 . S
C615 N623 1.431 1_455 S
C616 H607 0.930 . S
C616 C614 1.378 . S
C616 C617 1.367 . S
C617 C616 1.367 . S
C617 C619 1.433 1_655 S
C618 C614 1.350 . S
C618 C615 1.463 1_656 S
C618 N622 1.427 1_655 S
C619 H609 0.929 . S
C619 C617 1.433 1_455 S
C619 N622 1.384 . S
C620 H611 0.929 . S
C620 C612 1.378 . S
C620 C615 1.346 . S
C621 H608 0.929 . S
C621 C613 1.433 1_655 S
C621 N623 1.384 . S
N622 C618 1.427 1_455 S
N622 C619 1.384 . S
N623 C615 1.431 1_655 S
N623 C621 1.384 . S
H624 C630 0.930 . S
H625 C634 0.930 . S
H626 C639 0.929 . S
H627 C637 0.906 1_455 S
H628 C632 0.929 . S
H629 C638 0.929 . S
C630 H624 0.930 . S
C630 C631 1.367 . S
C630 C638 1.378 . S
C631 C630 1.367 . S
C631 C639 1.433 1_455 S
C632 H628 0.929 . S
C632 C634 1.378 . S
C632 C636 1.350 . S
C633 C636 1.463 . S
C633 C638 1.350 1_655 S
C633 N641 1.427 . S
C634 H625 0.930 . S
C634 C632 1.378 . S
C634 C635 1.367 . S
C635 C634 1.367 . S
C635 C637 1.433 . S
C636 C632 1.350 . S
C636 C633 1.463 . S
C636 N640 1.427 . S
C637 H627 0.906 1_655 S
C637 C635 1.433 . S
C637 N640 1.384 . S
C638 H629 0.929 . S
C638 C630 1.378 . S
C638 C633 1.350 1_455 S
C639 H626 0.929 . S
C639 C631 1.433 1_655 S
C639 N641 1.384 . S
N640 C636 1.427 . S
N640 C637 1.384 . S
N641 C633 1.427 . S
N641 C639 1.384 . S
H642 C648 0.930 . S
H643 C652 0.930 . S
H644 C657 0.930 . S
H645 C655 0.929 . S
H646 C650 0.929 . S
H647 C656 0.929 . S
C648 H642 0.930 . S
C648 C649 1.367 1_565 S
C648 C656 1.378 . S
C649 C648 1.367 1_545 S
C649 C657 1.434 . S
C650 H646 0.929 . S
C650 C652 1.378 . S
C650 C654 1.350 . S
C651 C654 1.463 . S
C651 C656 1.350 . S
C651 N659 1.427 . S
C652 H643 0.930 . S
C652 C650 1.378 . S
C652 C653 1.367 . S
C653 C652 1.367 . S
C653 C655 1.433 . S
C654 C650 1.350 . S
C654 C651 1.463 . S
C654 N658 1.427 . S
C655 H645 0.929 . S
C655 C653 1.433 . S
C655 N658 1.384 . S
C656 H647 0.929 . S
C656 C648 1.378 . S
C656 C651 1.350 . S
C657 H644 0.930 . S
C657 C649 1.434 . S
C657 N659 1.382 1_545 S
N658 C654 1.427 . S
N658 C655 1.384 . S
N659 C651 1.427 . S
N659 C657 1.382 1_565 S
H660 C666 0.930 . S
H661 C670 0.930 . S
H662 C675 0.929 . S
H663 C673 0.929 . S
H664 C668 0.929 . S
H665 C674 0.929 . S
C666 H660 0.930 . S
C666 C667 1.367 . S
C666 C674 1.378 . S
C667 C666 1.367 . S
C667 C675 1.433 . S
C668 H664 0.929 . S
C668 C670 1.378 . S
C668 C672 1.350 . S
C669 C672 1.463 . S
C669 C674 1.350 . S
C669 N677 1.427 . S
C670 H661 0.930 . S
C670 C668 1.378 . S
C670 C671 1.367 . S
C671 C670 1.367 . S
C671 C673 1.433 . S
C672 C668 1.350 . S
C672 C669 1.463 . S
C672 N676 1.427 . S
C673 H663 0.929 . S
C673 C671 1.433 . S
C673 N676 1.384 . S
C674 H665 0.929 . S
C674 C666 1.378 . S
C674 C669 1.350 . S
C675 H662 0.929 . S
C675 C667 1.433 . S
C675 N677 1.384 . S
N676 C672 1.427 . S
N676 C673 1.384 . S
N677 C669 1.427 . S
N677 C675 1.384 . S
H678 C684 0.930 . S
H679 C688 0.930 . S
H680 C693 0.929 . S
H681 C691 0.929 . S
H682 C686 0.929 . S
H683 C692 0.929 . S
C684 H678 0.930 . S
C684 C685 1.367 . S
C684 C692 1.378 . S
C685 C684 1.367 . S
C685 C693 1.433 . S
C686 H682 0.929 . S
C686 C688 1.378 . S
C686 C690 1.350 . S
C687 C690 1.463 . S
C687 C692 1.350 . S
C687 N695 1.427 . S
C688 H679 0.930 . S
C688 C686 1.378 . S
C688 C689 1.367 . S
C689 C688 1.367 . S
C689 C691 1.433 . S
C690 C686 1.350 . S
C690 C687 1.463 . S
C690 N694 1.427 . S
C691 H681 0.929 . S
C691 C689 1.433 . S
C691 N694 1.384 . S
C692 H683 0.929 . S
C692 C684 1.378 . S
C692 C687 1.350 . S
C693 H680 0.929 . S
C693 C685 1.433 . S
C693 N695 1.384 . S
N694 C690 1.427 . S
N694 C691 1.384 . S
N695 C687 1.427 . S
N695 C693 1.384 . S
H696 C702 0.929 . S
H697 C706 0.930 1_554 S
H698 C711 0.929 . S
H699 C709 0.929 . S
H700 C704 0.929 . S
H701 C710 0.929 . S
C702 H696 0.929 . S
C702 C703 1.368 1_556 S
C702 C710 1.377 . S
C703 C702 1.368 1_554 S
C703 C711 1.433 1_655 S
C704 H700 0.929 . S
C704 C706 1.378 1_554 S
C704 C708 1.350 1_554 S
C705 C708 1.463 1_554 S
C705 C710 1.350 1_454 S
C705 N713 1.427 . S
C706 H697 0.930 1_556 S
C706 C704 1.378 1_556 S
C706 C707 1.367 . S
C707 C706 1.367 . S
C707 C709 1.433 . S
C708 C704 1.350 1_556 S
C708 C705 1.463 1_556 S
C708 N712 1.427 . S
C709 H699 0.929 . S
C709 C707 1.433 . S
C709 N712 1.384 . S
C710 H701 0.929 . S
C710 C702 1.377 . S
C710 C705 1.350 1_656 S
C711 H698 0.929 . S
C711 C703 1.433 1_455 S
C711 N713 1.384 . S
N712 C708 1.427 . S
N712 C709 1.384 . S
N713 C705 1.427 . S
N713 C711 1.384 . S
H714 C720 0.930 . S
H715 C724 0.930 . S
H716 C729 0.929 . S
H717 C727 0.946 . S
H718 C722 0.929 1_554 S
H719 C728 0.929 . S
C720 H714 0.930 . S
C720 C721 1.367 . S
C720 C728 1.378 1_554 S
C721 C720 1.367 . S
C721 C729 1.433 1_565 S
C722 H718 0.929 1_556 S
C722 C724 1.378 . S
C722 C726 1.350 . S
C723 C726 1.463 1_554 S
C723 C728 1.350 1_544 S
C723 N731 1.427 . S
C724 H715 0.930 . S
C724 C722 1.378 . S
C724 C725 1.367 . S
C725 C724 1.367 . S
C725 C727 1.433 . S
C726 C722 1.350 . S
C726 C723 1.463 1_556 S
C726 N730 1.427 . S
C727 H717 0.946 . S
C727 C725 1.433 . S
C727 N730 1.384 . S
C728 H719 0.929 . S
C728 C720 1.378 1_556 S
C728 C723 1.350 1_566 S
C729 H716 0.929 . S
C729 C721 1.433 1_545 S
C729 N731 1.384 . S
N730 C726 1.427 . S
N730 C727 1.384 . S
N731 C723 1.427 . S
N731 C729 1.384 . S
H732 C738 0.930 1_556 S
H733 C742 0.930 1_554 S
H734 C747 0.929 . S
H735 C745 0.929 . S
H736 C740 0.929 . S
H737 C746 0.929 . S
C738 H732 0.930 1_554 S
C738 C739 1.367 . S
C738 C746 1.378 1_554 S
C739 C738 1.367 . S
C739 C747 1.433 . S
C740 H736 0.929 . S
C740 C742 1.378 1_554 S
C740 C744 1.350 1_554 S
C741 C744 1.463 1_554 S
C741 C746 1.350 1_554 S
C741 N749 1.427 . S
C742 H733 0.930 1_556 S
C742 C740 1.378 1_556 S
C742 C743 1.367 . S
C743 C742 1.367 . S
C743 C745 1.433 . S
C744 C740 1.350 1_556 S
C744 C741 1.463 1_556 S
C744 N748 1.427 . S
C745 H735 0.929 . S
C745 C743 1.433 . S
C745 N748 1.384 . S
C746 H737 0.929 . S
C746 C738 1.378 1_556 S
C746 C741 1.350 1_556 S
C747 H734 0.929 . S
C747 C739 1.433 . S
C747 N749 1.384 . S
N748 C744 1.427 . S
N748 C745 1.384 . S
N749 C741 1.427 . S
N749 C747 1.384 . S
H750 C756 0.930 . S
H751 C760 0.930 . S
H752 C765 0.929 . S
H753 C763 0.929 . S
H754 C758 0.929 . S
H755 C764 0.929 . S
C756 H750 0.930 . S
C756 C757 1.367 . S
C756 C764 1.378 . S
C757 C756 1.367 . S
C757 C765 1.433 . S
C758 H754 0.929 . S
C758 C760 1.378 . S
C758 C762 1.350 . S
C759 C762 1.463 1_554 S
C759 C764 1.350 . S
C759 N767 1.427 . S
C760 H751 0.930 . S
C760 C758 1.378 . S
C760 C761 1.367 . S
C761 C760 1.367 . S
C761 C763 1.433 . S
C762 C758 1.350 . S
C762 C759 1.463 1_556 S
C762 N766 1.427 . S
C763 H753 0.929 . S
C763 C761 1.433 . S
C763 N766 1.384 . S
C764 H755 0.929 . S
C764 C756 1.378 . S
C764 C759 1.350 . S
C765 H752 0.929 . S
C765 C757 1.433 . S
C765 N767 1.384 . S
N766 C762 1.427 . S
N766 C763 1.384 . S
N767 C759 1.427 . S
N767 C765 1.384 . S
H768 C774 0.930 . S
H769 C778 0.930 . S
H770 C783 0.929 . S
H771 C781 0.929 . S
H772 C776 0.929 . S
H773 C782 0.929 . S
C774 H768 0.930 . S
C774 C775 1.367 . S
C774 C782 1.378 . S
C775 C774 1.367 . S
C775 C783 1.433 1_455 S
C776 H772 0.929 . S
C776 C778 1.378 . S
C776 C780 1.350 1_655 S
C777 C780 1.463 . S
C777 C782 1.350 . S
C777 N785 1.427 1_455 S
C778 H769 0.930 . S
C778 C776 1.378 . S
C778 C779 1.367 1_655 S
C779 C778 1.367 1_455 S
C779 C781 1.433 . S
C780 C776 1.350 1_455 S
C780 C777 1.463 . S
C780 N784 1.427 . S
C781 H771 0.929 . S
C781 C779 1.433 . S
C781 N784 1.384 . S
C782 H773 0.929 . S
C782 C774 1.378 . S
C782 C777 1.350 . S
C783 H770 0.929 . S
C783 C775 1.433 1_655 S
C783 N785 1.384 . S
N784 C780 1.427 . S
N784 C781 1.384 . S
N785 C777 1.427 1_655 S
N785 C783 1.384 . S
H786 C792 0.930 . S
H787 C796 0.930 . S
H788 C801 0.929 . S
H789 C799 0.929 . S
H790 C794 0.929 . S
H791 C800 0.929 . S
C792 H786 0.930 . S
C792 C793 1.367 1_565 S
C792 C800 1.378 . S
C793 C792 1.367 1_545 S
C793 C801 1.433 . S
C794 H790 0.929 . S
C794 C796 1.378 . S
C794 C798 1.350 . S
C795 C798 1.463 . S
C795 C800 1.350 1_545 S
C795 N803 1.427 . S
C796 H787 0.930 . S
C796 C794 1.378 . S
C796 C797 1.367 . S
C797 C796 1.367 . S
C797 C799 1.433 1_545 S
C798 C794 1.350 . S
C798 C795 1.463 . S
C798 N802 1.427 1_545 S
C799 H789 0.929 . S
C799 C797 1.433 1_565 S
C799 N802 1.384 . S
C800 H791 0.929 . S
C800 C792 1.378 . S
C800 C795 1.350 1_565 S
C801 H788 0.929 . S
C801 C793 1.433 . S
C801 N803 1.384 . S
N802 C798 1.427 1_565 S
N802 C799 1.384 . S
N803 C795 1.427 . S
N803 C801 1.384 . S
H804 C810 0.930 . S
H805 C814 0.930 . S
H806 C819 0.929 . S
H807 C817 0.929 . S
H808 C812 0.929 . S
H809 C818 0.929 . S
C810 H804 0.930 . S
C810 C811 1.367 . S
C810 C818 1.378 . S
C811 C810 1.367 . S
C811 C819 1.433 . S
C812 H808 0.929 . S
C812 C814 1.378 . S
C812 C816 1.350 . S
C813 C816 1.463 . S
C813 C818 1.350 . S
C813 N821 1.427 . S
C814 H805 0.930 . S
C814 C812 1.378 . S
C814 C815 1.367 . S
C815 C814 1.367 . S
C815 C817 1.433 . S
C816 C812 1.350 . S
C816 C813 1.463 . S
C816 N820 1.427 . S
C817 H807 0.929 . S
C817 C815 1.433 . S
C817 N820 1.384 . S
C818 H809 0.929 . S
C818 C810 1.378 . S
C818 C813 1.350 . S
C819 H806 0.929 . S
C819 C811 1.433 . S
C819 N821 1.384 . S
N820 C816 1.427 . S
N820 C817 1.384 . S
N821 C813 1.427 . S
N821 C819 1.384 . S
H822 C828 0.930 . S
H823 C832 0.930 . S
H824 C837 0.929 . S
H825 C835 0.929 . S
H826 C830 0.929 . S
H827 C836 0.929 . S
C828 H822 0.930 . S
C828 C829 1.367 . S
C828 C836 1.378 . S
C829 C828 1.367 . S
C829 C837 1.433 . S
C830 H826 0.929 . S
C830 C832 1.378 . S
C830 C834 1.350 . S
C831 C834 1.463 . S
C831 C836 1.350 . S
C831 N839 1.427 . S
C832 H823 0.930 . S
C832 C830 1.378 . S
C832 C833 1.367 . S
C833 C832 1.367 . S
C833 C835 1.433 . S
C834 C830 1.350 . S
C834 C831 1.463 . S
C834 N838 1.427 . S
C835 H825 0.929 . S
C835 C833 1.433 . S
C835 N838 1.384 . S
C836 H827 0.929 . S
C836 C828 1.378 . S
C836 C831 1.350 . S
C837 H824 0.929 . S
C837 C829 1.433 . S
C837 N839 1.384 . S
N838 C834 1.427 . S
N838 C835 1.384 . S
N839 C831 1.427 . S
N839 C837 1.384 . S
H840 C846 0.930 . S
H841 C850 0.930 . S
H842 C855 0.929 . S
H843 C853 0.929 . S
H844 C848 0.929 . S
H845 C854 0.929 . S
C846 H840 0.930 . S
C846 C847 1.367 1_455 S
C846 C854 1.378 . S
C847 C846 1.367 1_655 S
C847 C855 1.433 . S
C848 H844 0.929 . S
C848 C850 1.378 . S
C848 C852 1.350 . S
C849 C852 1.463 . S
C849 C854 1.350 1_655 S
C849 N857 1.427 . S
C850 H841 0.930 . S
C850 C848 1.378 . S
C850 C851 1.367 . S
C851 C850 1.367 . S
C851 C853 1.433 1_655 S
C852 C848 1.350 . S
C852 C849 1.463 . S
C852 N856 1.427 1_655 S
C853 H843 0.929 . S
C853 C851 1.433 1_455 S
C853 N856 1.384 . S
C854 H845 0.929 . S
C854 C846 1.378 . S
C854 C849 1.350 1_455 S
C855 H842 0.929 . S
C855 C847 1.433 . S
C855 N857 1.384 . S
N856 C852 1.427 1_455 S
N856 C853 1.384 . S
N857 C849 1.427 . S
N857 C855 1.384 . S
H858 C864 0.930 . S
H859 C868 0.930 1_545 S
H860 C873 0.929 . S
H861 C871 0.929 . S
H862 C866 0.928 1_545 S
H863 C872 0.929 . S
C864 H858 0.930 . S
C864 C865 1.367 . S
C864 C872 1.378 . S
C865 C864 1.367 . S
C865 C873 1.433 1_565 S
C866 H862 0.928 1_565 S
C866 C868 1.378 . S
C866 C870 1.350 . S
C867 C870 1.463 . S
C867 C872 1.350 . S
C867 N875 1.427 1_565 S
C868 H859 0.930 1_565 S
C868 C866 1.378 . S
C868 C869 1.367 . S
C869 C868 1.367 . S
C869 C871 1.433 . S
C870 C866 1.350 . S
C870 C867 1.463 . S
C870 N874 1.427 . S
C871 H861 0.929 . S
C871 C869 1.433 . S
C871 N874 1.384 . S
C872 H863 0.929 . S
C872 C864 1.378 . S
C872 C867 1.350 . S
C873 H860 0.929 . S
C873 C865 1.433 1_545 S
C873 N875 1.384 . S
N874 C870 1.427 . S
N874 C871 1.384 . S
N875 C867 1.427 1_545 S
N875 C873 1.384 . S
H876 C882 0.930 . S
H877 C886 0.930 . S
H878 C891 0.929 . S
H879 C889 0.929 . S
H880 C884 0.929 . S
H881 C890 0.929 . S
C882 H876 0.930 . S
C882 C883 1.367 . S
C882 C890 1.378 . S
C883 C882 1.367 . S
C883 C891 1.433 . S
C884 H880 0.929 . S
C884 C886 1.378 . S
C884 C888 1.350 . S
C885 C888 1.463 . S
C885 C890 1.350 . S
C885 N893 1.427 . S
C886 H877 0.930 . S
C886 C884 1.378 . S
C886 C887 1.367 . S
C887 C886 1.367 . S
C887 C889 1.433 . S
C888 C884 1.350 . S
C888 C885 1.463 . S
C888 N892 1.427 . S
C889 H879 0.929 . S
C889 C887 1.433 . S
C889 N892 1.384 . S
C890 H881 0.929 . S
C890 C882 1.378 . S
C890 C885 1.350 . S
C891 H878 0.929 . S
C891 C883 1.433 . S
C891 N893 1.384 . S
N892 C888 1.427 . S
N892 C889 1.384 . S
N893 C885 1.427 . S
N893 C891 1.384 . S
H894 C900 0.930 . S
H895 C904 0.930 . S
H896 C909 0.929 . S
H897 C907 0.929 . S
H898 C902 0.929 . S
H899 C908 0.929 . S
C900 H894 0.930 . S
C900 C901 1.367 . S
C900 C908 1.378 . S
C901 C900 1.367 . S
C901 C909 1.433 . S
C902 H898 0.929 . S
C902 C904 1.378 . S
C902 C906 1.350 . S
C903 C906 1.463 . S
C903 C908 1.350 . S
C903 N911 1.427 . S
C904 H895 0.930 . S
C904 C902 1.378 . S
C904 C905 1.367 . S
C905 C904 1.367 . S
C905 C907 1.433 . S
C906 C902 1.350 . S
C906 C903 1.463 . S
C906 N910 1.427 . S
C907 H897 0.929 . S
C907 C905 1.433 . S
C907 N910 1.384 . S
C908 H899 0.929 . S
C908 C900 1.378 . S
C908 C903 1.350 . S
C909 H896 0.929 . S
C909 C901 1.433 . S
C909 N911 1.384 . S
N910 C906 1.427 . S
N910 C907 1.384 . S
N911 C903 1.427 . S
N911 C909 1.384 . S
C487 C255 2.246 . S
C491 C329 2.454 1_545 S
C509 C369 2.471 . S
C505 C295 2.248 . S
C527 C409 2.476 . S
C523 C175 2.265 . S
C545 C449 2.458 1_455 S
C541 C215 2.246 . S
C563 C338 2.458 1_565 S
C559 C95 2.251 . S
C577 C135 2.253 . S
C581 C378 2.475 . S
C595 C15 2.271 . S
C599 C418 2.476 . S
C613 C55 2.243 . S
C617 C458 2.459 1_655 S
C635 C335 0.440 . S
C631 C221 0.404 . S
C653 C375 0.419 . S
C649 C261 0.389 . S
C671 C415 0.396 . S
C667 C301 0.419 . S
C685 C181 0.394 . S
C689 C455 0.380 . S
C703 C61 0.525 1_655 S
C707 C326 0.429 . S
C725 C366 0.442 . S
C721 C101 0.519 1_565 S
C743 C406 0.426 . S
C739 C141 0.512 . S
C757 C21 0.466 . S
C761 C446 0.389 . S
C775 C202 3.172 . S
C779 C339 3.512 . S
C793 C242 3.137 . S
C797 C379 3.491 . S
C815 C419 3.477 . S
C811 C282 3.123 . S
C833 C459 3.505 . S
C829 C162 3.143 . S
C847 C42 3.187 1_655 S
C851 C330 3.527 . S
C869 C370 3.491 . S
C865 C82 3.161 1_565 S
C887 C410 3.482 . S
C883 C122 3.150 . S
C901 C2 3.179 . S
C905 C450 3.511 . S
