# Generated by pormake.
# Topology pts, (4,4)-cn, num edge types: 1
# Building blocks:
#     Node 0, Type 0, BuildingBlock: KOZSID_clean_sbu_0, # of connection points: 4
#     Node 1, Type 0, BuildingBlock: KOZSID_clean_sbu_0, # of connection points: 4
#     Node 2, Type 1, BuildingBlock: UXUYUI_clean_sbu_0, # of connection points: 4
#     Node 3, Type 1, BuildingBlock: UXUYUI_clean_sbu_0, # of connection points: 4
#     Edge 4, Type (0, 1), None
#     Edge 5, Type (0, 1), None
#     Edge 6, Type (0, 1), None
#     Edge 7, Type (0, 1), None
#     Edge 8, Type (0, 1), None
#     Edge 9, Type (0, 1), None
#     Edge 10, Type (0, 1), None
#     Edge 11, Type (0, 1), None
# Relax obj value: 0.000
# Max RMSD: 0.034
# Mean RMSD: 0.021
data_MOF--net-pts--node1-KOZSID_clean_sbu_0--node2-UXUYUI_clean_sbu_0--edge1-none
_symmetry_space_group_name_H-M    P1
_symmetry_Int_Tables_number       1
_symmetry_cell_setting            triclinic
loop_
_symmetry_equiv_pos_as_xyz
'x, y, z'
_cell_length_a     19.318889
_cell_length_b     19.313566
_cell_length_c     28.141343
_cell_angle_alpha  84.8259
_cell_angle_beta   95.167144
_cell_angle_gamma 90.028078
loop_
_atom_site_label
_atom_site_type_symbol
_atom_site_fract_x
_atom_site_fract_y
_atom_site_fract_z
_atom_type_partial_charge
C0 C 0.6912 0.14712 0.08494 0.0
C1 C 0.71326 0.21049 0.10017 0.0
C2 C 0.67294 0.26046 0.07355 0.0
C3 C 0.62854 0.2249 0.04384 0.0
N4 N 0.63744 0.15513 0.05027 0.0
Co5 Co 0.58516 0.08414 0.01349 0.0
N6 N 0.53245 0.15797 0.96994 0.0
C7 C 0.54129 0.22746 0.96972 0.0
C8 C 0.4963 0.26537 0.93689 0.0
C9 C 0.45567 0.21733 0.91524 0.0
C10 C 0.47832 0.1525 0.93615 0.0
N11 N 0.53094 0.01312 0.97796 0.0
C12 C 0.47546 0.02125 0.94463 0.0
C13 C 0.45027 0.95772 0.93153 0.0
C14 C 0.4901 0.90761 0.9583 0.0
C15 C 0.53717 0.94322 0.98606 0.0
N16 N 0.63968 0.01031 0.05591 0.0
C17 C 0.63463 0.94081 0.05381 0.0
C18 C 0.68209 0.90308 0.08492 0.0
C19 C 0.72085 0.95137 0.10767 0.0
C20 C 0.69452 0.01603 0.08911 0.0
N21 N 0.51092 0.08295 0.05866 0.0
C22 C 0.3958 0.08062 0.11471 0.0
C23 C 0.4315 0.01947 0.10845 0.0
C24 C 0.48832 0.02177 0.08056 0.0
C25 C 0.42061 0.1431 0.09374 0.0
C26 C 0.47781 0.14315 0.0665 0.0
N27 N 0.65945 0.08547 0.96818 0.0
C28 C 0.73583 0.02529 0.9212 0.0
C29 C 0.7736 0.08591 0.9115 0.0
C30 C 0.75174 0.14666 0.92925 0.0
C31 C 0.69456 0.14555 0.95654 0.0
C32 C 0.67978 0.02606 0.94969 0.0
H33 H 0.68043 0.19401 0.96831 0.0
H34 H 0.65449 0.97768 0.95687 0.0
H35 H 0.51238 0.97323 0.07647 0.0
H36 H 0.49362 0.19262 0.05155 0.0
C37 C 0.58498 0.25554 1.00531 0.0
C38 C 0.72544 0.08124 0.1026 0.0
C39 C 0.44373 0.08768 0.92523 0.0
C40 C 0.58627 0.91271 0.02113 0.0
H41 H 0.75567 0.21971 0.12664 0.0
H42 H 0.67771 0.31622 0.07417 0.0
H43 H 0.49115 0.32138 0.93118 0.0
H44 H 0.41252 0.22896 0.88845 0.0
H45 H 0.40677 0.94857 0.90588 0.0
H46 H 0.48436 0.85185 0.95836 0.0
H47 H 0.68886 0.84717 0.08961 0.0
H48 H 0.76461 0.94036 0.13412 0.0
H49 H 0.41456 0.96959 0.12386 0.0
H50 H 0.39607 0.19217 0.09835 0.0
H51 H 0.75077 0.97691 0.90812 0.0
H52 H 0.77856 0.19521 0.92192 0.0
C53 C 0.15443 0.47646 0.59022 0.0
C54 C 0.21926 0.45382 0.61109 0.0
C55 C 0.26725 0.49449 0.58942 0.0
C56 C 0.22932 0.53949 0.55662 0.0
N57 N 0.15985 0.53063 0.55643 0.0
Co58 Co 0.08601 0.58333 0.51291 0.0
N59 N 0.15694 0.63563 0.47608 0.0
C60 C 0.22669 0.62672 0.48246 0.0
C61 C 0.2622 0.6711 0.4527 0.0
C62 C 0.21223 0.71141 0.4261 0.0
C63 C 0.14889 0.68937 0.44138 0.0
N64 N 0.01217 0.63786 0.47052 0.0
C65 C 0.01785 0.69271 0.4373 0.0
C66 C 0.9532 0.71905 0.41877 0.0
C67 C 0.90495 0.6803 0.44157 0.0
C68 C 0.94269 0.63283 0.47267 0.0
N69 N 0.01505 0.52907 0.54847 0.0
C70 C 0.94517 0.53529 0.5404 0.0
C71 C 0.90959 0.4882 0.56818 0.0
C72 C 0.95971 0.44838 0.59494 0.0
C73 C 0.02321 0.47357 0.58181 0.0
N74 N 0.08737 0.65764 0.55822 0.0
C75 C 0.08782 0.77174 0.61496 0.0
C76 C 0.02727 0.73385 0.60536 0.0
C77 C 0.02803 0.67782 0.57684 0.0
C78 C 0.14851 0.75004 0.59706 0.0
C79 C 0.1474 0.69287 0.56974 0.0
N80 N 0.0848 0.50908 0.46774 0.0
C81 C 0.02131 0.42971 0.41791 0.0
C82 C 0.08243 0.39398 0.41165 0.0
C83 C 0.14489 0.41874 0.43264 0.0
C84 C 0.14496 0.47593 0.4599 0.0
C85 C 0.02363 0.48653 0.44583 0.0
H86 H 0.19442 0.49171 0.47486 0.0
H87 H 0.9751 0.51061 0.44992 0.0
H88 H 0.97969 0.65244 0.56975 0.0
H89 H 0.19581 0.67885 0.55787 0.0
C90 C 0.25735 0.58318 0.521 0.0
C91 C 0.08964 0.44185 0.60119 0.0
C92 C 0.08303 0.72361 0.42374 0.0
C93 C 0.91464 0.58443 0.50535 0.0
H94 H 0.23093 0.41064 0.63787 0.0
H95 H 0.32325 0.48934 0.5951 0.0
H96 H 0.31795 0.67586 0.45204 0.0
H97 H 0.22142 0.7538 0.39959 0.0
H98 H 0.94216 0.7628 0.39231 0.0
H99 H 0.84905 0.68707 0.43692 0.0
H100 H 0.85385 0.48248 0.56816 0.0
H101 H 0.95058 0.40489 0.62061 0.0
H102 H 0.97895 0.74866 0.61857 0.0
H103 H 0.197 0.77698 0.60429 0.0
H104 H 0.97144 0.41281 0.40249 0.0
H105 H 0.19394 0.39417 0.42803 0.0
Li106 Li 0.07818 0.13338 0.29501 0.0
Li107 Li 0.07449 1.00383 0.29527 0.0
Li108 Li 0.13515 0.07641 0.23126 0.0
Li109 Li 1.00564 0.07272 0.23099 0.0
C110 C 0.2172 0.08534 0.327 0.0
N111 N 0.33824 0.126 0.3766 0.0
C112 C 0.23711 0.05478 0.37314 0.0
C113 C 0.25944 0.13581 0.30584 0.0
C114 C 0.29829 0.07628 0.39772 0.0
C115 C 0.32029 0.15584 0.33154 0.0
C116 C 0.96695 0.03805 0.33958 0.0
C117 C 0.89888 0.94504 0.3742 0.0
N118 N 0.91089 0.9703 0.41775 0.0
C119 C 0.97836 0.0633 0.38461 0.0
C120 C 0.92654 0.97872 0.33419 0.0
C121 C 0.94958 0.02828 0.42371 0.0
C122 C 0.03794 0.2682 0.31655 0.0
N123 N 0.08054 0.21332 0.33274 0.0
C124 C 0.12426 0.27317 0.40019 0.0
C125 C 0.12279 0.21469 0.37404 0.0
C126 C 0.08132 0.331 0.38415 0.0
C127 C 0.03741 0.32762 0.34176 0.0
H128 H 1.00448 0.266 0.28377 0.0
H129 H 0.1551 0.17026 0.3871 0.0
C130 C 0.07208 0.85581 0.31496 0.0
N131 N 0.07907 0.9166 0.33594 0.0
C132 C 0.07343 0.79199 0.34301 0.0
C133 C 0.09004 0.8539 0.41389 0.0
C134 C 0.08829 0.91657 0.38452 0.0
C135 C 0.08235 0.79078 0.39306 0.0
H136 H 0.06529 0.8568 0.27638 0.0
H137 H 0.09358 0.96528 0.40057 0.0
C138 C 0.08714 0.21547 0.19926 0.0
N139 N 0.12782 0.33654 0.14966 0.0
C140 C 0.05663 0.23537 0.15311 0.0
C141 C 0.13758 0.25774 0.22043 0.0
C142 C 0.07814 0.29657 0.12853 0.0
C143 C 0.15762 0.31859 0.19473 0.0
C144 C 0.03986 0.96518 0.18666 0.0
C145 C 0.06512 0.97666 0.14164 0.0
C146 C 0.98057 0.92473 0.19203 0.0
C147 C 0.03012 0.9479 0.10252 0.0
C148 C 0.94692 0.89711 0.15201 0.0
N149 N 0.97218 0.90918 0.10846 0.0
C150 C 0.26994 0.03612 0.20974 0.0
C151 C 0.21654 0.12107 0.15226 0.0
C152 C 0.32936 0.03558 0.18456 0.0
N153 N 0.2151 0.07877 0.19355 0.0
C154 C 0.27504 0.12253 0.12614 0.0
C155 C 0.33281 0.07953 0.14219 0.0
H156 H 0.26768 1.00262 0.24251 0.0
H157 H 0.17215 0.15343 0.1392 0.0
C158 C 0.85767 0.07031 0.21133 0.0
N159 N 0.91842 0.07731 0.19033 0.0
C160 C 0.79385 0.07166 0.18331 0.0
C161 C 0.85571 0.0883 0.1124 0.0
C162 C 0.91837 0.08655 0.14175 0.0
C163 C 0.79262 0.08058 0.13326 0.0
H164 H 0.85867 0.06352 0.24992 0.0
H165 H 0.96705 0.09185 0.12568 0.0
O166 O 0.15727 0.06499 0.30253 0.0
O167 O 0.996 0.07071 0.30112 0.0
O168 O 0.06679 0.15553 0.22374 0.0
O169 O 0.07249 0.9942 0.22514 0.0
H170 H 0.20552 0.01518 0.38995 0.0
H171 H 0.24589 0.15885 0.2698 0.0
H172 H 0.31404 0.0534 0.43358 0.0
H173 H 0.35336 0.19495 0.31559 0.0
H174 H 0.86807 0.8987 0.37066 0.0
H175 H 1.00955 0.1091 0.3894 0.0
H176 H 0.91747 0.95836 0.29962 0.0
H177 H 0.95823 0.04702 0.45883 0.0
H178 H 0.15802 0.2726 0.4331 0.0
H179 H 1.00371 0.37087 0.32774 0.0
H180 H 0.06743 0.74407 0.32587 0.0
H181 H 0.09691 0.85467 0.45248 0.0
H182 H 0.01706 0.20377 0.1363 0.0
H183 H 0.16058 0.24419 0.25648 0.0
H184 H 0.0553 0.31231 0.09266 0.0
H185 H 0.1967 0.35168 0.21068 0.0
H186 H 0.1109 1.00788 0.13686 0.0
H187 H 0.9602 0.91561 0.22661 0.0
H188 H 0.04887 0.95661 0.06741 0.0
H189 H 0.90059 0.86627 0.15553 0.0
H190 H 0.37258 1.00184 0.19859 0.0
H191 H 0.27452 0.15633 0.09324 0.0
H192 H 0.74596 0.06565 0.20047 0.0
H193 H 0.85645 0.09517 0.07381 0.0
Li194 Li 0.03306 0.09307 0.79429 0.0
Li195 Li 0.16345 0.08931 0.79687 0.0
Li196 Li 0.09128 0.16153 0.72964 0.0
Li197 Li 0.09502 0.03111 0.73226 0.0
C198 C 0.07974 0.21974 0.82753 0.0
N199 N 0.03548 0.31828 0.88358 0.0
C200 C 0.11567 0.22856 0.87192 0.0
C201 C 0.02164 0.26129 0.81147 0.0
C202 C 0.09237 0.2786 0.89978 0.0
C203 C 1.0 0.31076 0.84038 0.0
C204 C 0.12316 0.96339 0.83985 0.0
C205 C 0.20062 0.86834 0.86963 0.0
N206 N 0.17805 0.87031 0.91391 0.0
C207 C 0.10014 0.96403 0.88549 0.0
C208 C 0.17324 0.91477 0.83165 0.0
C209 C 0.12874 0.9167 0.92253 0.0
C210 C 0.89326 0.06049 0.81397 0.0
N211 N 0.95308 0.08966 0.832 0.0
C212 C 0.89869 0.11528 0.90185 0.0
C213 C 0.95689 0.11571 0.87554 0.0
C214 C 0.83614 0.08601 0.88397 0.0
C215 C 0.83413 0.05755 0.83964 0.0
H216 H 0.89137 0.03958 0.77948 0.0
H217 H 1.00517 0.13672 0.89014 0.0
C218 C 0.30972 0.1064 0.81737 0.0
N219 N 0.25029 0.08811 0.83784 0.0
C220 C 0.37354 0.10673 0.84525 0.0
C221 C 0.31426 0.07103 0.9152 0.0
C222 C 0.2515 0.07147 0.88599 0.0
C223 C 0.37619 0.08887 0.89478 0.0
H224 H 0.30768 0.12127 0.77934 0.0
H225 H 0.2037 0.05928 0.90194 0.0
C226 C 0.96503 0.1211 0.6869 0.0
N227 N 0.87116 0.17568 0.61325 0.0
C228 C 0.96544 0.09824 0.6412 0.0
C229 C 0.91624 0.17086 0.69537 0.0
C230 C 0.91771 0.12669 0.60437 0.0
C231 C 0.8694 0.19808 0.65759 0.0
C232 C 0.22132 0.07776 0.69873 0.0
C233 C 0.2298 0.11375 0.6543 0.0
C234 C 0.26284 0.01954 0.71456 0.0
C235 C 0.27945 0.09039 0.62617 0.0
C236 C 0.31192 0.99784 0.68539 0.0
N237 N 0.3191 0.03338 0.64215 0.0
C238 C 0.1088 0.30777 0.70904 0.0
C239 C 0.07301 0.24964 0.64054 0.0
C240 C 0.10912 0.3716 0.68114 0.0
N241 N 0.09008 0.24839 0.68865 0.0
C242 C 0.07258 0.3124 0.61131 0.0
C243 C 0.09084 0.3743 0.63166 0.0
H244 H 0.124 0.3057 0.74703 0.0
H245 H 0.06047 0.20187 0.62464 0.0
C246 C 0.06292 0.89112 0.71273 0.0
N247 N 0.09158 0.95115 0.69453 0.0
C248 C 0.05998 0.83201 0.68703 0.0
C249 C 0.11666 0.89699 0.62448 0.0
C250 C 0.1171 0.95518 0.65082 0.0
C251 C 0.08792 0.83424 0.64251 0.0
H252 H 0.04242 0.88907 0.74736 0.0
H253 H 0.13768 1.0036 0.6361 0.0
O254 O 0.10144 0.17055 0.80003 0.0
O255 O 0.0962 0.0097 0.80329 0.0
O256 O 0.01171 0.09427 0.72327 0.0
O257 O 0.1725 0.09951 0.72649 0.0
H258 H 0.16084 0.19688 0.88479 0.0
H259 H 0.99369 0.25545 0.77704 0.0
H260 H 0.11947 0.28585 0.9343 0.0
H261 H 0.95503 0.34321 0.82845 0.0
H262 H 0.2397 0.83064 0.86388 0.0
H263 H 0.06113 1.00114 0.89234 0.0
H264 H 0.19066 0.91282 0.79633 0.0
H265 H 0.11184 0.91694 0.95813 0.0
H266 H 0.90282 0.13682 0.93621 0.0
H267 H 0.78693 0.03454 0.82456 0.0
H268 H 0.42039 0.12086 0.82836 0.0
H269 H 0.31446 0.0573 0.9534 0.0
H270 H 1.00267 0.05948 0.63415 0.0
H271 H 0.91445 0.18813 0.73075 0.0
H272 H 0.91776 0.10991 0.56872 0.0
H273 H 0.83156 0.23691 0.66355 0.0
H274 H 0.19814 0.15901 0.64161 0.0
H275 H 0.25726 0.99153 0.74901 0.0
H276 H 0.28642 0.11755 0.59161 0.0
H277 H 0.34432 0.95277 0.69713 0.0
H278 H 0.12358 0.41842 0.69799 0.0
H279 H 0.05851 0.31263 0.57315 0.0
H280 H 0.03738 0.78464 0.70223 0.0
H281 H 0.13779 0.90129 0.58997 0.0
loop_
_geom_bond_atom_site_label_1
_geom_bond_atom_site_label_2
_geom_bond_distance
_geom_bond_site_symmetry_2
_ccdc_geom_bond_type
C0 C1 1.443 . S
C0 N4 1.376 . S
C0 C38 1.389 . S
C1 C0 1.443 . S
C1 C2 1.340 . S
C1 H41 0.951 . S
C2 C1 1.340 . S
C2 C3 1.439 . S
C2 H42 0.950 . S
C3 C2 1.439 . S
C3 N4 1.374 . S
C3 C37 1.395 1_554 S
N4 C0 1.376 . S
N4 C3 1.374 . S
N4 Co5 2.008 . S
Co5 N4 2.008 . S
Co5 N6 1.995 1_554 S
Co5 N11 2.008 1_554 S
Co5 N16 1.995 . S
Co5 N21 2.282 . S
Co5 N27 2.282 1_554 S
N6 Co5 1.995 1_556 S
N6 C7 1.376 . S
N6 C10 1.383 . S
C7 N6 1.376 . S
C7 C8 1.446 . S
C7 C37 1.391 . S
C8 C7 1.446 . S
C8 C9 1.339 . S
C8 H43 0.949 . S
C9 C8 1.339 . S
C9 C10 1.439 . S
C9 H44 0.950 . S
C10 N6 1.383 . S
C10 C9 1.439 . S
C10 C39 1.392 . S
N11 Co5 2.008 1_556 S
N11 C12 1.376 . S
N11 C15 1.374 1_545 S
C12 N11 1.376 . S
C12 C13 1.443 1_545 S
C12 C39 1.389 . S
C13 C12 1.443 1_565 S
C13 C14 1.340 . S
C13 H45 0.951 . S
C14 C13 1.340 . S
C14 C15 1.439 . S
C14 H46 0.950 . S
C15 N11 1.374 1_565 S
C15 C14 1.439 . S
C15 C40 1.395 1_556 S
N16 Co5 1.995 . S
N16 C17 1.376 1_545 S
N16 C20 1.383 . S
C17 N16 1.376 1_565 S
C17 C18 1.446 . S
C17 C40 1.391 . S
C18 C17 1.446 . S
C18 C19 1.339 . S
C18 H47 0.949 . S
C19 C18 1.339 . S
C19 C20 1.439 1_565 S
C19 H48 0.950 . S
C20 N16 1.383 . S
C20 C19 1.439 1_545 S
C20 C38 1.392 . S
N21 Co5 2.282 . S
N21 C24 1.332 . S
N21 C26 1.332 . S
C22 C23 1.386 . S
C22 C25 1.388 . S
C23 C22 1.386 . S
C23 C24 1.382 . S
C23 H49 0.950 1_545 S
C24 N21 1.332 . S
C24 C23 1.382 . S
C24 H35 0.952 1_545 S
C25 C22 1.388 . S
C25 C26 1.382 . S
C25 H50 0.950 . S
C26 N21 1.332 . S
C26 C25 1.382 . S
C26 H36 0.948 . S
N27 Co5 2.282 1_556 S
N27 C31 1.332 . S
N27 C32 1.332 . S
C28 C29 1.388 . S
C28 C32 1.382 . S
C28 H51 0.950 1_545 S
C29 C28 1.388 . S
C29 C30 1.386 . S
C30 C29 1.386 . S
C30 C31 1.382 . S
C30 H52 0.950 . S
C31 N27 1.332 . S
C31 C30 1.382 . S
C31 H33 0.952 . S
C32 N27 1.332 . S
C32 C28 1.382 . S
C32 H34 0.948 1_545 S
H33 C31 0.952 . S
H34 C32 0.948 1_565 S
H35 C24 0.952 1_565 S
H36 C26 0.948 . S
C37 C3 1.395 1_556 S
C37 C7 1.391 . S
C38 C0 1.389 . S
C38 C20 1.392 . S
C39 C10 1.392 . S
C39 C12 1.389 . S
C40 C15 1.395 1_554 S
C40 C17 1.391 . S
H41 C1 0.951 . S
H42 C2 0.950 . S
H43 C8 0.949 . S
H44 C9 0.950 . S
H45 C13 0.951 . S
H46 C14 0.950 . S
H47 C18 0.949 . S
H48 C19 0.950 . S
H49 C23 0.950 1_565 S
H50 C25 0.950 . S
H51 C28 0.950 1_565 S
H52 C30 0.950 . S
C53 C54 1.443 . S
C53 N57 1.376 . S
C53 C91 1.389 . S
C54 C53 1.443 . S
C54 C55 1.340 . S
C54 H94 0.951 . S
C55 C54 1.340 . S
C55 C56 1.439 . S
C55 H95 0.950 . S
C56 C55 1.439 . S
C56 N57 1.374 . S
C56 C90 1.395 . S
N57 C53 1.376 . S
N57 C56 1.374 . S
N57 Co58 2.008 . S
Co58 N57 2.008 . S
Co58 N59 1.995 . S
Co58 N64 2.007 1_455 S
Co58 N69 1.995 . S
Co58 N74 2.282 . S
Co58 N80 2.282 . S
N59 Co58 1.995 . S
N59 C60 1.376 . S
N59 C63 1.383 . S
C60 N59 1.376 . S
C60 C61 1.446 . S
C60 C90 1.391 . S
C61 C60 1.446 . S
C61 C62 1.339 . S
C61 H96 0.949 . S
C62 C61 1.339 . S
C62 C63 1.439 . S
C62 H97 0.950 . S
C63 N59 1.383 . S
C63 C62 1.439 . S
C63 C92 1.392 . S
N64 Co58 2.007 1_655 S
N64 C65 1.376 1_655 S
N64 C68 1.375 . S
C65 N64 1.376 1_455 S
C65 C66 1.443 1_455 S
C65 C92 1.389 . S
C66 C65 1.443 1_655 S
C66 C67 1.340 . S
C66 H98 0.951 . S
C67 C66 1.340 . S
C67 C68 1.439 . S
C67 H99 0.950 . S
C68 N64 1.375 . S
C68 C67 1.439 . S
C68 C93 1.395 . S
N69 Co58 1.995 . S
N69 C70 1.376 1_455 S
N69 C73 1.383 . S
C70 N69 1.376 1_655 S
C70 C71 1.446 . S
C70 C93 1.391 . S
C71 C70 1.446 . S
C71 C72 1.339 . S
C71 H100 0.949 . S
C72 C71 1.339 . S
C72 C73 1.439 1_655 S
C72 H101 0.950 . S
C73 N69 1.383 . S
C73 C72 1.439 1_455 S
C73 C91 1.392 . S
N74 Co58 2.282 . S
N74 C77 1.332 . S
N74 C79 1.332 . S
C75 C76 1.386 . S
C75 C78 1.388 . S
C76 C75 1.386 . S
C76 C77 1.382 . S
C76 H102 0.950 1_455 S
C77 N74 1.332 . S
C77 C76 1.382 . S
C77 H88 0.952 1_455 S
C78 C75 1.388 . S
C78 C79 1.382 . S
C78 H103 0.950 . S
C79 N74 1.332 . S
C79 C78 1.382 . S
C79 H89 0.948 . S
N80 Co58 2.282 . S
N80 C84 1.332 . S
N80 C85 1.332 . S
C81 C82 1.388 . S
C81 C85 1.382 . S
C81 H104 0.950 1_455 S
C82 C81 1.388 . S
C82 C83 1.386 . S
C83 C82 1.386 . S
C83 C84 1.382 . S
C83 H105 0.950 . S
C84 N80 1.332 . S
C84 C83 1.382 . S
C84 H86 0.952 . S
C85 N80 1.332 . S
C85 C81 1.382 . S
C85 H87 0.948 1_455 S
H86 C84 0.952 . S
H87 C85 0.948 1_655 S
H88 C77 0.952 1_655 S
H89 C79 0.948 . S
C90 C56 1.395 . S
C90 C60 1.391 . S
C91 C53 1.389 . S
C91 C73 1.392 . S
C92 C63 1.392 . S
C92 C65 1.389 . S
C93 C68 1.395 . S
C93 C70 1.391 . S
H94 C54 0.951 . S
H95 C55 0.950 . S
H96 C61 0.949 . S
H97 C62 0.950 . S
H98 C66 0.951 . S
H99 C67 0.950 . S
H100 C71 0.949 . S
H101 C72 0.950 . S
H102 C76 0.950 1_655 S
H103 C78 0.950 . S
H104 C81 0.950 1_655 S
H105 C83 0.950 . S
Li106 N123 1.990 . S
Li106 O166 1.956 . S
Li106 O167 1.970 1_455 S
Li106 O168 1.961 . S
Li107 N131 1.990 . S
Li107 O166 1.970 1_565 S
Li107 O167 1.956 1_465 S
Li107 O169 1.961 . S
Li108 N153 1.990 . S
Li108 O166 1.961 . S
Li108 O168 1.956 . S
Li108 O169 1.970 1_545 S
Li109 N159 1.990 . S
Li109 O167 1.961 . S
Li109 O168 1.970 1_655 S
Li109 O169 1.956 1_645 S
C110 C112 1.348 . S
C110 C113 1.356 . S
C110 O166 1.325 . S
N111 C114 1.314 . S
N111 C115 1.279 . S
C112 C110 1.348 . S
C112 C114 1.353 . S
C112 H170 0.929 1_545 S
C113 C110 1.356 . S
C113 C115 1.358 . S
C113 H171 0.930 . S
C114 N111 1.314 . S
C114 C112 1.353 . S
C114 H172 0.930 1_545 S
C115 N111 1.279 . S
C115 C113 1.358 . S
C115 H173 0.930 . S
C116 C119 1.348 . S
C116 C120 1.356 . S
C116 O167 1.325 . S
C117 N118 1.279 . S
C117 C120 1.358 . S
C117 H174 0.930 1_545 S
N118 C117 1.279 . S
N118 C121 1.314 . S
C119 C116 1.348 . S
C119 C121 1.353 . S
C119 H175 0.929 . S
C120 C116 1.356 . S
C120 C117 1.358 . S
C120 H176 0.930 1_545 S
C121 N118 1.314 . S
C121 C119 1.353 . S
C121 H177 0.930 . S
C122 N123 1.314 . S
C122 C127 1.353 . S
C122 H128 0.938 . S
N123 Li106 1.990 . S
N123 C122 1.314 . S
N123 C125 1.279 . S
C124 C125 1.358 . S
C124 C126 1.356 . S
C124 H178 0.930 . S
C125 N123 1.279 . S
C125 C124 1.358 . S
C125 H129 0.930 . S
C126 C124 1.356 . S
C126 C127 1.348 . S
C127 C122 1.353 . S
C127 C126 1.348 . S
C127 H179 0.929 1_455 S
H128 C122 0.938 . S
H129 C125 0.930 . S
C130 N131 1.314 . S
C130 C132 1.353 . S
C130 H136 0.930 . S
N131 Li107 1.990 . S
N131 C130 1.314 . S
N131 C134 1.279 . S
C132 C130 1.353 . S
C132 C135 1.348 . S
C132 H180 0.929 . S
C133 C134 1.358 . S
C133 C135 1.356 . S
C133 H181 0.930 1_455 S
C134 N131 1.279 . S
C134 C133 1.358 . S
C134 H137 0.930 1_455 S
C135 C132 1.348 . S
C135 C133 1.356 . S
H136 C130 0.930 . S
H137 C134 0.930 1_655 S
C138 C140 1.348 . S
C138 C141 1.356 . S
C138 O168 1.325 . S
N139 C142 1.314 . S
N139 C143 1.279 . S
C140 C138 1.348 . S
C140 C142 1.353 . S
C140 H182 0.929 1_455 S
C141 C138 1.356 . S
C141 C143 1.358 . S
C141 H183 0.930 . S
C142 N139 1.314 . S
C142 C140 1.353 . S
C142 H184 0.930 1_455 S
C143 N139 1.279 . S
C143 C141 1.358 . S
C143 H185 0.930 . S
C144 C145 1.348 . S
C144 C146 1.356 . S
C144 O169 1.325 . S
C145 C144 1.348 . S
C145 C147 1.353 . S
C145 H186 0.929 . S
C146 C144 1.356 . S
C146 C148 1.358 . S
C146 H187 0.930 1_455 S
C147 C145 1.353 . S
C147 N149 1.314 . S
C147 H188 0.930 . S
C148 C146 1.358 . S
C148 N149 1.279 . S
C148 H189 0.930 1_455 S
N149 C147 1.314 . S
N149 C148 1.279 . S
C150 C152 1.353 . S
C150 N153 1.314 . S
C150 H156 0.938 . S
C151 N153 1.279 . S
C151 C154 1.358 . S
C151 H157 0.930 . S
C152 C150 1.353 . S
C152 C155 1.348 . S
C152 H190 0.929 1_545 S
N153 Li108 1.990 . S
N153 C150 1.314 . S
N153 C151 1.279 . S
C154 C151 1.358 . S
C154 C155 1.356 . S
C154 H191 0.930 . S
C155 C152 1.348 . S
C155 C154 1.356 . S
H156 C150 0.938 . S
H157 C151 0.930 . S
C158 N159 1.314 . S
C158 C160 1.353 . S
C158 H164 0.930 . S
N159 Li109 1.990 . S
N159 C158 1.314 . S
N159 C162 1.279 . S
C160 C158 1.353 . S
C160 C163 1.348 . S
C160 H192 0.929 . S
C161 C162 1.358 . S
C161 C163 1.356 . S
C161 H193 0.930 1_545 S
C162 N159 1.279 . S
C162 C161 1.358 . S
C162 H165 0.930 1_545 S
C163 C160 1.348 . S
C163 C161 1.356 . S
H164 C158 0.930 . S
H165 C162 0.930 1_565 S
O166 Li106 1.956 . S
O166 Li107 1.970 1_545 S
O166 Li108 1.961 . S
O166 C110 1.325 . S
O167 Li106 1.970 1_655 S
O167 Li107 1.956 1_645 S
O167 Li109 1.961 . S
O167 C116 1.325 . S
O168 Li106 1.961 . S
O168 Li108 1.956 . S
O168 Li109 1.970 1_455 S
O168 C138 1.325 . S
O169 Li107 1.961 . S
O169 Li108 1.970 1_565 S
O169 Li109 1.956 1_465 S
O169 C144 1.325 . S
H170 C112 0.929 1_565 S
H171 C113 0.930 . S
H172 C114 0.930 1_565 S
H173 C115 0.930 . S
H174 C117 0.930 1_565 S
H175 C119 0.929 . S
H176 C120 0.930 1_565 S
H177 C121 0.930 . S
H178 C124 0.930 . S
H179 C127 0.929 1_655 S
H180 C132 0.929 . S
H181 C133 0.930 1_655 S
H182 C140 0.929 1_655 S
H183 C141 0.930 . S
H184 C142 0.930 1_655 S
H185 C143 0.930 . S
H186 C145 0.929 . S
H187 C146 0.930 1_655 S
H188 C147 0.930 . S
H189 C148 0.930 1_655 S
H190 C152 0.929 1_565 S
H191 C154 0.930 . S
H192 C160 0.929 . S
H193 C161 0.930 1_565 S
Li194 N211 1.990 1_455 S
Li194 O254 1.956 . S
Li194 O255 1.970 . S
Li194 O256 1.961 . S
Li195 N219 1.990 . S
Li195 O254 1.970 . S
Li195 O255 1.956 . S
Li195 O257 1.961 . S
Li196 N241 1.990 . S
Li196 O254 1.961 . S
Li196 O256 1.956 . S
Li196 O257 1.970 . S
Li197 N247 1.990 1_545 S
Li197 O255 1.961 . S
Li197 O256 1.970 . S
Li197 O257 1.956 . S
C198 C200 1.348 . S
C198 C201 1.356 . S
C198 O254 1.325 . S
N199 C202 1.314 . S
N199 C203 1.279 . S
C200 C198 1.348 . S
C200 C202 1.353 . S
C200 H258 0.929 . S
C201 C198 1.356 . S
C201 C203 1.358 . S
C201 H259 0.930 . S
C202 N199 1.314 . S
C202 C200 1.353 . S
C202 H260 0.930 . S
C203 N199 1.279 . S
C203 C201 1.358 . S
C203 H261 0.930 . S
C204 C207 1.348 . S
C204 C208 1.356 . S
C204 O255 1.325 1_565 S
C205 N206 1.279 . S
C205 C208 1.358 . S
C205 H262 0.930 . S
N206 C205 1.279 . S
N206 C209 1.314 . S
C207 C204 1.348 . S
C207 C209 1.353 . S
C207 H263 0.929 . S
C208 C204 1.356 . S
C208 C205 1.358 . S
C208 H264 0.930 . S
C209 N206 1.314 . S
C209 C207 1.353 . S
C209 H265 0.930 . S
C210 N211 1.314 . S
C210 C215 1.353 . S
C210 H216 0.930 . S
N211 Li194 1.990 1_655 S
N211 C210 1.314 . S
N211 C213 1.279 . S
C212 C213 1.358 . S
C212 C214 1.356 . S
C212 H266 0.930 . S
C213 N211 1.279 . S
C213 C212 1.358 . S
C213 H217 0.930 . S
C214 C212 1.356 . S
C214 C215 1.348 . S
C215 C210 1.353 . S
C215 C214 1.348 . S
C215 H267 0.929 . S
H216 C210 0.930 . S
H217 C213 0.930 . S
C218 N219 1.314 . S
C218 C220 1.353 . S
C218 H224 0.930 . S
N219 Li195 1.990 . S
N219 C218 1.314 . S
N219 C222 1.279 . S
C220 C218 1.353 . S
C220 C223 1.348 . S
C220 H268 0.929 . S
C221 C222 1.358 . S
C221 C223 1.356 . S
C221 H269 0.930 . S
C222 N219 1.279 . S
C222 C221 1.358 . S
C222 H225 0.930 . S
C223 C220 1.348 . S
C223 C221 1.356 . S
H224 C218 0.930 . S
H225 C222 0.930 . S
C226 C228 1.348 . S
C226 C229 1.356 . S
C226 O256 1.325 1_655 S
N227 C230 1.314 . S
N227 C231 1.279 . S
C228 C226 1.348 . S
C228 C230 1.353 . S
C228 H270 0.929 . S
C229 C226 1.356 . S
C229 C231 1.358 . S
C229 H271 0.930 . S
C230 N227 1.314 . S
C230 C228 1.353 . S
C230 H272 0.930 . S
C231 N227 1.279 . S
C231 C229 1.358 . S
C231 H273 0.930 . S
C232 C233 1.348 . S
C232 C234 1.356 . S
C232 O257 1.325 . S
C233 C232 1.348 . S
C233 C235 1.353 . S
C233 H274 0.929 . S
C234 C232 1.356 . S
C234 C236 1.358 . S
C234 H275 0.930 . S
C235 C233 1.353 . S
C235 N237 1.314 . S
C235 H276 0.930 . S
C236 C234 1.358 . S
C236 N237 1.279 . S
C236 H277 0.930 . S
N237 C235 1.314 . S
N237 C236 1.279 . S
C238 C240 1.353 . S
C238 N241 1.314 . S
C238 H244 0.930 . S
C239 N241 1.279 . S
C239 C242 1.358 . S
C239 H245 0.930 . S
C240 C238 1.353 . S
C240 C243 1.348 . S
C240 H278 0.929 . S
N241 Li196 1.990 . S
N241 C238 1.314 . S
N241 C239 1.279 . S
C242 C239 1.358 . S
C242 C243 1.356 . S
C242 H279 0.930 . S
C243 C240 1.348 . S
C243 C242 1.356 . S
H244 C238 0.930 . S
H245 C239 0.930 . S
C246 N247 1.314 . S
C246 C248 1.353 . S
C246 H252 0.930 . S
N247 Li197 1.990 1_565 S
N247 C246 1.314 . S
N247 C250 1.279 . S
C248 C246 1.353 . S
C248 C251 1.348 . S
C248 H280 0.929 . S
C249 C250 1.358 . S
C249 C251 1.356 . S
C249 H281 0.930 . S
C250 N247 1.279 . S
C250 C249 1.358 . S
C250 H253 0.930 . S
C251 C248 1.348 . S
C251 C249 1.356 . S
H252 C246 0.930 . S
H253 C250 0.930 . S
O254 Li194 1.956 . S
O254 Li195 1.970 . S
O254 Li196 1.961 . S
O254 C198 1.325 . S
O255 Li194 1.970 . S
O255 Li195 1.956 . S
O255 Li197 1.961 . S
O255 C204 1.325 1_545 S
O256 Li194 1.961 . S
O256 Li196 1.956 . S
O256 Li197 1.970 . S
O256 C226 1.325 1_455 S
O257 Li195 1.961 . S
O257 Li196 1.970 . S
O257 Li197 1.956 . S
O257 C232 1.325 . S
H258 C200 0.929 . S
H259 C201 0.930 . S
H260 C202 0.930 . S
H261 C203 0.930 . S
H262 C205 0.930 . S
H263 C207 0.929 . S
H264 C208 0.930 . S
H265 C209 0.930 . S
H266 C212 0.930 . S
H267 C215 0.929 . S
H268 C220 0.929 . S
H269 C221 0.930 . S
H270 C228 0.929 . S
H271 C229 0.930 . S
H272 C230 0.930 . S
H273 C231 0.930 . S
H274 C233 0.929 . S
H275 C234 0.930 . S
H276 C235 0.930 . S
H277 C236 0.930 . S
H278 C240 0.929 . S
H279 C242 0.930 . S
H280 C248 0.929 . S
H281 C249 0.930 . S
C155 C22 1.491 . S
C243 C91 1.485 . S
C163 C38 1.485 . S
C251 C75 1.491 . S
C223 C39 1.486 . S
C126 C82 1.491 . S
C214 C29 1.491 . S
C92 C135 1.485 . S
