# Generated by pormake.
# Topology ibd, (4,6)-cn, num edge types: 1
# Building blocks:
#     Node 0, Type 0, BuildingBlock: KUFVIS_clean_sbu_0, # of connection points: 4
#     Node 1, Type 0, BuildingBlock: KUFVIS_clean_sbu_0, # of connection points: 4
#     Node 2, Type 0, BuildingBlock: KUFVIS_clean_sbu_0, # of connection points: 4
#     Node 3, Type 0, BuildingBlock: KUFVIS_clean_sbu_0, # of connection points: 4
#     Node 4, Type 0, BuildingBlock: KUFVIS_clean_sbu_0, # of connection points: 4
#     Node 5, Type 0, BuildingBlock: KUFVIS_clean_sbu_0, # of connection points: 4
#     Node 6, Type 0, BuildingBlock: KUFVIS_clean_sbu_0, # of connection points: 4
#     Node 7, Type 0, BuildingBlock: KUFVIS_clean_sbu_0, # of connection points: 4
#     Node 8, Type 0, BuildingBlock: KUFVIS_clean_sbu_0, # of connection points: 4
#     Node 9, Type 0, BuildingBlock: KUFVIS_clean_sbu_0, # of connection points: 4
#     Node 10, Type 0, BuildingBlock: KUFVIS_clean_sbu_0, # of connection points: 4
#     Node 11, Type 0, BuildingBlock: KUFVIS_clean_sbu_0, # of connection points: 4
#     Node 12, Type 0, BuildingBlock: KUFVIS_clean_sbu_0, # of connection points: 4
#     Node 13, Type 0, BuildingBlock: KUFVIS_clean_sbu_0, # of connection points: 4
#     Node 14, Type 0, BuildingBlock: KUFVIS_clean_sbu_0, # of connection points: 4
#     Node 15, Type 0, BuildingBlock: KUFVIS_clean_sbu_0, # of connection points: 4
#     Node 16, Type 0, BuildingBlock: KUFVIS_clean_sbu_0, # of connection points: 4
#     Node 17, Type 0, BuildingBlock: KUFVIS_clean_sbu_0, # of connection points: 4
#     Node 18, Type 0, BuildingBlock: KUFVIS_clean_sbu_0, # of connection points: 4
#     Node 19, Type 0, BuildingBlock: KUFVIS_clean_sbu_0, # of connection points: 4
#     Node 20, Type 0, BuildingBlock: KUFVIS_clean_sbu_0, # of connection points: 4
#     Node 21, Type 0, BuildingBlock: KUFVIS_clean_sbu_0, # of connection points: 4
#     Node 22, Type 0, BuildingBlock: KUFVIS_clean_sbu_0, # of connection points: 4
#     Node 23, Type 0, BuildingBlock: KUFVIS_clean_sbu_0, # of connection points: 4
#     Node 24, Type 1, BuildingBlock: CIFDUS_clean_sbu_1, # of connection points: 6
#     Node 25, Type 1, BuildingBlock: CIFDUS_clean_sbu_1, # of connection points: 6
#     Node 26, Type 1, BuildingBlock: CIFDUS_clean_sbu_1, # of connection points: 6
#     Node 27, Type 1, BuildingBlock: CIFDUS_clean_sbu_1, # of connection points: 6
#     Node 28, Type 1, BuildingBlock: CIFDUS_clean_sbu_1, # of connection points: 6
#     Node 29, Type 1, BuildingBlock: CIFDUS_clean_sbu_1, # of connection points: 6
#     Node 30, Type 1, BuildingBlock: CIFDUS_clean_sbu_1, # of connection points: 6
#     Node 31, Type 1, BuildingBlock: CIFDUS_clean_sbu_1, # of connection points: 6
#     Node 32, Type 1, BuildingBlock: CIFDUS_clean_sbu_1, # of connection points: 6
#     Node 33, Type 1, BuildingBlock: CIFDUS_clean_sbu_1, # of connection points: 6
#     Node 34, Type 1, BuildingBlock: CIFDUS_clean_sbu_1, # of connection points: 6
#     Node 35, Type 1, BuildingBlock: CIFDUS_clean_sbu_1, # of connection points: 6
#     Node 36, Type 1, BuildingBlock: CIFDUS_clean_sbu_1, # of connection points: 6
#     Node 37, Type 1, BuildingBlock: CIFDUS_clean_sbu_1, # of connection points: 6
#     Node 38, Type 1, BuildingBlock: CIFDUS_clean_sbu_1, # of connection points: 6
#     Node 39, Type 1, BuildingBlock: CIFDUS_clean_sbu_1, # of connection points: 6
#     Edge 40, Type (0, 1), BuildingBlock: KIFKEQ_clean_linker_1, # of connection points: 2
#     Edge 41, Type (0, 1), BuildingBlock: KIFKEQ_clean_linker_1, # of connection points: 2
#     Edge 42, Type (0, 1), BuildingBlock: KIFKEQ_clean_linker_1, # of connection points: 2
#     Edge 43, Type (0, 1), BuildingBlock: KIFKEQ_clean_linker_1, # of connection points: 2
#     Edge 44, Type (0, 1), BuildingBlock: KIFKEQ_clean_linker_1, # of connection points: 2
#     Edge 45, Type (0, 1), BuildingBlock: KIFKEQ_clean_linker_1, # of connection points: 2
#     Edge 46, Type (0, 1), BuildingBlock: KIFKEQ_clean_linker_1, # of connection points: 2
#     Edge 47, Type (0, 1), BuildingBlock: KIFKEQ_clean_linker_1, # of connection points: 2
#     Edge 48, Type (0, 1), BuildingBlock: KIFKEQ_clean_linker_1, # of connection points: 2
#     Edge 49, Type (0, 1), BuildingBlock: KIFKEQ_clean_linker_1, # of connection points: 2
#     Edge 50, Type (0, 1), BuildingBlock: KIFKEQ_clean_linker_1, # of connection points: 2
#     Edge 51, Type (0, 1), BuildingBlock: KIFKEQ_clean_linker_1, # of connection points: 2
#     Edge 52, Type (0, 1), BuildingBlock: KIFKEQ_clean_linker_1, # of connection points: 2
#     Edge 53, Type (0, 1), BuildingBlock: KIFKEQ_clean_linker_1, # of connection points: 2
#     Edge 54, Type (0, 1), BuildingBlock: KIFKEQ_clean_linker_1, # of connection points: 2
#     Edge 55, Type (0, 1), BuildingBlock: KIFKEQ_clean_linker_1, # of connection points: 2
#     Edge 56, Type (0, 1), BuildingBlock: KIFKEQ_clean_linker_1, # of connection points: 2
#     Edge 57, Type (0, 1), BuildingBlock: KIFKEQ_clean_linker_1, # of connection points: 2
#     Edge 58, Type (0, 1), BuildingBlock: KIFKEQ_clean_linker_1, # of connection points: 2
#     Edge 59, Type (0, 1), BuildingBlock: KIFKEQ_clean_linker_1, # of connection points: 2
#     Edge 60, Type (0, 1), BuildingBlock: KIFKEQ_clean_linker_1, # of connection points: 2
#     Edge 61, Type (0, 1), BuildingBlock: KIFKEQ_clean_linker_1, # of connection points: 2
#     Edge 62, Type (0, 1), BuildingBlock: KIFKEQ_clean_linker_1, # of connection points: 2
#     Edge 63, Type (0, 1), BuildingBlock: KIFKEQ_clean_linker_1, # of connection points: 2
#     Edge 64, Type (0, 1), BuildingBlock: KIFKEQ_clean_linker_1, # of connection points: 2
#     Edge 65, Type (0, 1), BuildingBlock: KIFKEQ_clean_linker_1, # of connection points: 2
#     Edge 66, Type (0, 1), BuildingBlock: KIFKEQ_clean_linker_1, # of connection points: 2
#     Edge 67, Type (0, 1), BuildingBlock: KIFKEQ_clean_linker_1, # of connection points: 2
#     Edge 68, Type (0, 1), BuildingBlock: KIFKEQ_clean_linker_1, # of connection points: 2
#     Edge 69, Type (0, 1), BuildingBlock: KIFKEQ_clean_linker_1, # of connection points: 2
#     Edge 70, Type (0, 1), BuildingBlock: KIFKEQ_clean_linker_1, # of connection points: 2
#     Edge 71, Type (0, 1), BuildingBlock: KIFKEQ_clean_linker_1, # of connection points: 2
#     Edge 72, Type (0, 1), BuildingBlock: KIFKEQ_clean_linker_1, # of connection points: 2
#     Edge 73, Type (0, 1), BuildingBlock: KIFKEQ_clean_linker_1, # of connection points: 2
#     Edge 74, Type (0, 1), BuildingBlock: KIFKEQ_clean_linker_1, # of connection points: 2
#     Edge 75, Type (0, 1), BuildingBlock: KIFKEQ_clean_linker_1, # of connection points: 2
#     Edge 76, Type (0, 1), BuildingBlock: KIFKEQ_clean_linker_1, # of connection points: 2
#     Edge 77, Type (0, 1), BuildingBlock: KIFKEQ_clean_linker_1, # of connection points: 2
#     Edge 78, Type (0, 1), BuildingBlock: KIFKEQ_clean_linker_1, # of connection points: 2
#     Edge 79, Type (0, 1), BuildingBlock: KIFKEQ_clean_linker_1, # of connection points: 2
#     Edge 80, Type (0, 1), BuildingBlock: KIFKEQ_clean_linker_1, # of connection points: 2
#     Edge 81, Type (0, 1), BuildingBlock: KIFKEQ_clean_linker_1, # of connection points: 2
#     Edge 82, Type (0, 1), BuildingBlock: KIFKEQ_clean_linker_1, # of connection points: 2
#     Edge 83, Type (0, 1), BuildingBlock: KIFKEQ_clean_linker_1, # of connection points: 2
#     Edge 84, Type (0, 1), BuildingBlock: KIFKEQ_clean_linker_1, # of connection points: 2
#     Edge 85, Type (0, 1), BuildingBlock: KIFKEQ_clean_linker_1, # of connection points: 2
#     Edge 86, Type (0, 1), BuildingBlock: KIFKEQ_clean_linker_1, # of connection points: 2
#     Edge 87, Type (0, 1), BuildingBlock: KIFKEQ_clean_linker_1, # of connection points: 2
#     Edge 88, Type (0, 1), BuildingBlock: KIFKEQ_clean_linker_1, # of connection points: 2
#     Edge 89, Type (0, 1), BuildingBlock: KIFKEQ_clean_linker_1, # of connection points: 2
#     Edge 90, Type (0, 1), BuildingBlock: KIFKEQ_clean_linker_1, # of connection points: 2
#     Edge 91, Type (0, 1), BuildingBlock: KIFKEQ_clean_linker_1, # of connection points: 2
#     Edge 92, Type (0, 1), BuildingBlock: KIFKEQ_clean_linker_1, # of connection points: 2
#     Edge 93, Type (0, 1), BuildingBlock: KIFKEQ_clean_linker_1, # of connection points: 2
#     Edge 94, Type (0, 1), BuildingBlock: KIFKEQ_clean_linker_1, # of connection points: 2
#     Edge 95, Type (0, 1), BuildingBlock: KIFKEQ_clean_linker_1, # of connection points: 2
#     Edge 96, Type (0, 1), BuildingBlock: KIFKEQ_clean_linker_1, # of connection points: 2
#     Edge 97, Type (0, 1), BuildingBlock: KIFKEQ_clean_linker_1, # of connection points: 2
#     Edge 98, Type (0, 1), BuildingBlock: KIFKEQ_clean_linker_1, # of connection points: 2
#     Edge 99, Type (0, 1), BuildingBlock: KIFKEQ_clean_linker_1, # of connection points: 2
#     Edge 100, Type (0, 1), BuildingBlock: KIFKEQ_clean_linker_1, # of connection points: 2
#     Edge 101, Type (0, 1), BuildingBlock: KIFKEQ_clean_linker_1, # of connection points: 2
#     Edge 102, Type (0, 1), BuildingBlock: KIFKEQ_clean_linker_1, # of connection points: 2
#     Edge 103, Type (0, 1), BuildingBlock: KIFKEQ_clean_linker_1, # of connection points: 2
#     Edge 104, Type (0, 1), BuildingBlock: KIFKEQ_clean_linker_1, # of connection points: 2
#     Edge 105, Type (0, 1), BuildingBlock: KIFKEQ_clean_linker_1, # of connection points: 2
#     Edge 106, Type (0, 1), BuildingBlock: KIFKEQ_clean_linker_1, # of connection points: 2
#     Edge 107, Type (0, 1), BuildingBlock: KIFKEQ_clean_linker_1, # of connection points: 2
#     Edge 108, Type (0, 1), BuildingBlock: KIFKEQ_clean_linker_1, # of connection points: 2
#     Edge 109, Type (0, 1), BuildingBlock: KIFKEQ_clean_linker_1, # of connection points: 2
#     Edge 110, Type (0, 1), BuildingBlock: KIFKEQ_clean_linker_1, # of connection points: 2
#     Edge 111, Type (0, 1), BuildingBlock: KIFKEQ_clean_linker_1, # of connection points: 2
#     Edge 112, Type (0, 1), BuildingBlock: KIFKEQ_clean_linker_1, # of connection points: 2
#     Edge 113, Type (0, 1), BuildingBlock: KIFKEQ_clean_linker_1, # of connection points: 2
#     Edge 114, Type (0, 1), BuildingBlock: KIFKEQ_clean_linker_1, # of connection points: 2
#     Edge 115, Type (0, 1), BuildingBlock: KIFKEQ_clean_linker_1, # of connection points: 2
#     Edge 116, Type (0, 1), BuildingBlock: KIFKEQ_clean_linker_1, # of connection points: 2
#     Edge 117, Type (0, 1), BuildingBlock: KIFKEQ_clean_linker_1, # of connection points: 2
#     Edge 118, Type (0, 1), BuildingBlock: KIFKEQ_clean_linker_1, # of connection points: 2
#     Edge 119, Type (0, 1), BuildingBlock: KIFKEQ_clean_linker_1, # of connection points: 2
#     Edge 120, Type (0, 1), BuildingBlock: KIFKEQ_clean_linker_1, # of connection points: 2
#     Edge 121, Type (0, 1), BuildingBlock: KIFKEQ_clean_linker_1, # of connection points: 2
#     Edge 122, Type (0, 1), BuildingBlock: KIFKEQ_clean_linker_1, # of connection points: 2
#     Edge 123, Type (0, 1), BuildingBlock: KIFKEQ_clean_linker_1, # of connection points: 2
#     Edge 124, Type (0, 1), BuildingBlock: KIFKEQ_clean_linker_1, # of connection points: 2
#     Edge 125, Type (0, 1), BuildingBlock: KIFKEQ_clean_linker_1, # of connection points: 2
#     Edge 126, Type (0, 1), BuildingBlock: KIFKEQ_clean_linker_1, # of connection points: 2
#     Edge 127, Type (0, 1), BuildingBlock: KIFKEQ_clean_linker_1, # of connection points: 2
#     Edge 128, Type (0, 1), BuildingBlock: KIFKEQ_clean_linker_1, # of connection points: 2
#     Edge 129, Type (0, 1), BuildingBlock: KIFKEQ_clean_linker_1, # of connection points: 2
#     Edge 130, Type (0, 1), BuildingBlock: KIFKEQ_clean_linker_1, # of connection points: 2
#     Edge 131, Type (0, 1), BuildingBlock: KIFKEQ_clean_linker_1, # of connection points: 2
#     Edge 132, Type (0, 1), BuildingBlock: KIFKEQ_clean_linker_1, # of connection points: 2
#     Edge 133, Type (0, 1), BuildingBlock: KIFKEQ_clean_linker_1, # of connection points: 2
#     Edge 134, Type (0, 1), BuildingBlock: KIFKEQ_clean_linker_1, # of connection points: 2
#     Edge 135, Type (0, 1), BuildingBlock: KIFKEQ_clean_linker_1, # of connection points: 2
# Relax obj value: 0.351
# Max RMSD: 0.307
# Mean RMSD: 0.278
data_MOF--net-ibd--node1-KUFVIS_clean_sbu_0--node2-CIFDUS_clean_sbu_1--edge1-KIFKEQ_clean_linker_1
_symmetry_space_group_name_H-M    P1
_symmetry_Int_Tables_number       1
_symmetry_cell_setting            triclinic
loop_
_symmetry_equiv_pos_as_xyz
'x, y, z'
_cell_length_a     47.528616
_cell_length_b     48.903003
_cell_length_c     49.493324
_cell_angle_alpha  91.725544
_cell_angle_beta   90.369877
_cell_angle_gamma 94.287404
loop_
_atom_site_label
_atom_site_type_symbol
_atom_site_fract_x
_atom_site_fract_y
_atom_site_fract_z
_atom_type_partial_charge
Mn0 Mn 0.0025 0.31878 0.38745 0.0
Mn1 Mn 0.05613 0.36332 0.37023 0.0
C2 C 0.04392 0.32262 0.41225 0.0
C3 C 0.96412 0.30637 0.41495 0.0
C4 C 0.04268 0.30918 0.34048 0.0
O5 O 0.9828 0.34396 0.36252 0.0
O6 O 0.02092 0.37137 0.35085 0.0
C7 C 0.03521 0.41334 0.39572 0.0
N8 N 0.05547 0.39514 0.39354 0.0
C9 C 0.08359 0.41932 0.42851 0.0
C10 C 0.06309 0.43841 0.43103 0.0
C11 C 0.03881 0.4354 0.41455 0.0
C12 C 0.07902 0.39795 0.40915 0.0
H13 H 0.01642 0.41097 0.38324 0.0
C14 C 0.99466 0.36325 0.34862 0.0
O15 O 0.96833 0.29291 0.39242 0.0
O16 O 0.97994 0.32877 0.41941 0.0
N17 N 0.09105 0.35748 0.38781 0.0
C18 C 0.10797 0.33645 0.38388 0.0
C19 C 0.13274 0.33587 0.39941 0.0
C20 C 0.13984 0.3569 0.41877 0.0
C21 C 0.12213 0.37838 0.42236 0.0
C22 C 0.09786 0.37799 0.40613 0.0
H23 H 0.10242 0.32011 0.36921 0.0
O24 O 0.02781 0.30009 0.41183 0.0
O25 O 0.03561 0.34197 0.3973 0.0
O26 O 0.02089 0.30191 0.35423 0.0
O27 O 0.05842 0.3311 0.34562 0.0
C28 C 0.12733 0.39987 0.44177 0.0
C29 C 0.10808 0.42034 0.44482 0.0
H30 H 0.06566 0.45531 0.44571 0.0
H31 H 0.02284 0.44998 0.41647 0.0
H32 H 0.14624 0.31916 0.39659 0.0
H33 H 0.15882 0.35624 0.43088 0.0
H34 H 0.1459 0.40069 0.45465 0.0
H35 H 0.11216 0.4366 0.46 0.0
Mn36 Mn 0.01008 0.80768 0.64553 0.0
Mn37 Mn 0.95637 0.76472 0.66568 0.0
C38 C 0.99306 0.77097 0.61817 0.0
C39 C 0.02573 0.84466 0.61918 0.0
C40 C 0.01573 0.76381 0.6879 0.0
O41 O 0.99417 0.83003 0.67659 0.0
O42 O 0.95847 0.79937 0.68797 0.0
C43 C 0.90968 0.79721 0.64851 0.0
N44 N 0.92307 0.77356 0.647 0.0
C45 C 0.89005 0.75393 0.61342 0.0
C46 C 0.87578 0.77801 0.61476 0.0
C47 C 0.88564 0.79974 0.63239 0.0
C48 C 0.91369 0.75248 0.63019 0.0
H49 H 0.91739 0.81407 0.66181 0.0
C50 C 0.97335 0.82226 0.69153 0.0
O51 O 0.04205 0.83568 0.63765 0.0
O52 O 1e-05 0.83413 0.61827 0.0
N53 N 0.95254 0.73078 0.64526 0.0
C54 C 0.96953 0.70956 0.64543 0.0
C55 C 0.963 0.68641 0.62843 0.0
C56 C 0.93913 0.68536 0.61144 0.0
C57 C 0.92189 0.70742 0.61171 0.0
C58 C 0.92925 0.72978 0.62933 0.0
H59 H 0.98806 0.71042 0.65827 0.0
O60 O 0.01864 0.78146 0.61562 0.0
O61 O 0.97859 0.7818 0.63729 0.0
O62 O 0.02662 0.78342 0.67387 0.0
O63 O 0.99001 0.75421 0.68549 0.0
C64 C 0.898 0.70831 0.59485 0.0
C65 C 0.88209 0.73155 0.5957 0.0
H66 H 0.85739 0.78015 0.60217 0.0
H67 H 0.87484 0.81845 0.63342 0.0
H68 H 0.97645 0.6695 0.62828 0.0
H69 H 0.93435 0.6676 0.59813 0.0
H70 H 0.89185 0.69136 0.58094 0.0
H71 H 0.86394 0.73212 0.58243 0.0
Mn72 Mn 0.5054 0.82239 0.89006 0.0
Mn73 Mn 0.56859 0.84927 0.87015 0.0
C74 C 0.5455 0.81798 0.91588 0.0
C75 C 0.46602 0.82216 0.91831 0.0
C76 C 0.54161 0.79654 0.84647 0.0
O77 O 0.49362 0.85001 0.8627 0.0
O78 O 0.53742 0.86225 0.84769 0.0
C79 C 0.56106 0.90703 0.88638 0.0
N80 N 0.57571 0.88425 0.8882 0.0
C81 C 0.60868 0.90733 0.91994 0.0
C82 C 0.59399 0.93106 0.91832 0.0
C83 C 0.57009 0.9309 0.90145 0.0
C84 C 0.59889 0.88426 0.90419 0.0
H85 H 0.5426 0.90699 0.87356 0.0
C86 C 0.51044 0.86243 0.84612 0.0
O87 O 0.46611 0.80608 0.89688 0.0
O88 O 0.48686 0.84066 0.92084 0.0
N89 N 0.60016 0.83847 0.89039 0.0
C90 C 0.61099 0.81346 0.89081 0.0
C91 C 0.63441 0.80987 0.90741 0.0
C92 C 0.6465 0.83202 0.92331 0.0
C93 C 0.63508 0.85761 0.92242 0.0
C94 C 0.61183 0.86001 0.90536 0.0
H95 H 0.60157 0.79631 0.87884 0.0
O96 O 0.52428 0.79987 0.91658 0.0
O97 O 0.54317 0.83762 0.89901 0.0
O98 O 0.51797 0.79807 0.85835 0.0
O99 O 0.56312 0.8133 0.85114 0.0
C100 C 0.64548 0.88066 0.93822 0.0
C101 C 0.63232 0.90551 0.93695 0.0
H102 H 0.60075 0.94944 0.93009 0.0
H103 H 0.55859 0.9491 0.90016 0.0
H104 H 0.64303 0.79003 0.90807 0.0
H105 H 0.66441 0.82911 0.93628 0.0
H106 H 0.66341 0.87941 0.95163 0.0
H107 H 0.64034 0.92301 0.94939 0.0
Mn108 Mn 0.50121 0.29905 0.14592 0.0
Mn109 Mn 0.4453 0.26368 0.17229 0.0
C110 C 0.47678 0.26419 0.1211 0.0
C111 C 0.51987 0.33301 0.11738 0.0
C112 C 0.50493 0.2548 0.18855 0.0
O113 O 0.49176 0.32456 0.17731 0.0
O114 O 0.45581 0.29765 0.1946 0.0
C115 C 0.4032 0.30364 0.16123 0.0
N116 N 0.41226 0.27801 0.15779 0.0
C117 C 0.37307 0.2641 0.12819 0.0
C118 C 0.36323 0.29031 0.13155 0.0
C119 C 0.37837 0.31016 0.14815 0.0
C120 C 0.39779 0.25872 0.14196 0.0
H121 H 0.41492 0.31902 0.17378 0.0
C122 C 0.47322 0.31906 0.19536 0.0
O123 O 0.53588 0.32221 0.13497 0.0
O124 O 0.49315 0.32609 0.11853 0.0
N125 N 0.43358 0.23069 0.15226 0.0
C126 C 0.44658 0.20682 0.1503 0.0
C127 C 0.4345 0.18501 0.13396 0.0
C128 C 0.40923 0.18798 0.11983 0.0
C129 C 0.39618 0.21272 0.12228 0.0
C130 C 0.40906 0.23364 0.13906 0.0
H131 H 0.46614 0.20457 0.16094 0.0
O132 O 0.50313 0.27081 0.11647 0.0
O133 O 0.46589 0.27748 0.14112 0.0
O134 O 0.51643 0.27344 0.17374 0.0
O135 O 0.47849 0.24764 0.18803 0.0
C136 C 0.37115 0.2176 0.10841 0.0
C137 C 0.35959 0.24326 0.11137 0.0
H138 H 0.3442 0.29548 0.12133 0.0
H139 H 0.37098 0.33047 0.15074 0.0
H140 H 0.44472 0.166 0.13213 0.0
H141 H 0.40011 0.1712 0.10706 0.0
H142 H 0.36073 0.20183 0.09523 0.0
H143 H 0.34047 0.24684 0.10043 0.0
Mn144 Mn 0.0171 0.78141 0.1316 0.0
Mn145 Mn 0.05522 0.83639 0.10903 0.0
C146 C 0.05458 0.80173 0.15702 0.0
C147 C 0.98194 0.76289 0.15971 0.0
C148 C 0.05777 0.77889 0.08421 0.0
O149 O 0.9907 0.79553 0.10322 0.0
O150 O 0.01681 0.83438 0.0922 0.0
C151 C 0.02388 0.88082 0.13359 0.0
N152 N 0.04823 0.86802 0.13094 0.0
C153 C 0.07193 0.89909 0.1638 0.0
C154 C 0.04716 0.91272 0.1667 0.0
C155 C 0.02303 0.90354 0.15151 0.0
C156 C 0.07163 0.87678 0.14535 0.0
H157 H 0.0052 0.87359 0.12228 0.0
C158 C 0.99448 0.81783 0.0903 0.0
O159 O 0.9918 0.74817 0.14012 0.0
O160 O 0.99051 0.7886 0.16116 0.0
N161 N 0.09222 0.83984 0.12489 0.0
C162 C 0.11377 0.8233 0.1211 0.0
C163 C 0.13919 0.82912 0.13548 0.0
C164 C 0.14212 0.85177 0.15368 0.0
C165 C 0.11961 0.86845 0.1573 0.0
C166 C 0.09491 0.86184 0.14217 0.0
H167 H 0.11151 0.80568 0.10738 0.0
O168 O 0.04675 0.77599 0.15942 0.0
O169 O 0.04133 0.81394 0.13844 0.0
O170 O 0.04138 0.76682 0.10117 0.0
O171 O 0.06434 0.80474 0.08532 0.0
C172 C 0.12051 0.89102 0.17574 0.0
C173 C 0.0967 0.90634 0.17898 0.0
H174 H 0.04632 0.93006 0.18074 0.0
H175 H 0.00376 0.91382 0.15379 0.0
H176 H 0.15641 0.81606 0.13268 0.0
H177 H 0.16165 0.85602 0.16494 0.0
H178 H 0.13931 0.89659 0.18777 0.0
H179 H 0.09752 0.92344 0.19347 0.0
Mn180 Mn 0.52685 0.78384 0.39007 0.0
Mn181 Mn 0.47105 0.74168 0.40632 0.0
C182 C 0.50767 0.75099 0.359 0.0
C183 C 0.54574 0.82235 0.36798 0.0
C184 C 0.52958 0.7388 0.43096 0.0
O185 O 0.51042 0.80395 0.42259 0.0
O186 O 0.47123 0.77564 0.42948 0.0
C187 C 0.4245 0.77355 0.38774 0.0
N188 N 0.4387 0.75039 0.38611 0.0
C189 C 0.40827 0.73132 0.35016 0.0
C190 C 0.39325 0.75493 0.35152 0.0
C191 C 0.40138 0.77611 0.37042 0.0
C192 C 0.43089 0.72976 0.36818 0.0
H193 H 0.43091 0.78999 0.40204 0.0
C194 C 0.48765 0.79712 0.43541 0.0
O195 O 0.56023 0.81074 0.38621 0.0
O196 O 0.51952 0.81353 0.36504 0.0
N197 N 0.46945 0.70854 0.38461 0.0
C198 C 0.48739 0.6881 0.38462 0.0
C199 C 0.4828 0.6657 0.36628 0.0
C200 C 0.45991 0.66464 0.34808 0.0
C201 C 0.44176 0.68598 0.34841 0.0
C202 C 0.4472 0.7076 0.36736 0.0
H203 H 0.50521 0.68903 0.39835 0.0
O204 O 0.534 0.75976 0.35747 0.0
O205 O 0.49457 0.76034 0.37979 0.0
O206 O 0.54221 0.75689 0.41639 0.0
O207 O 0.50336 0.73117 0.42814 0.0
C208 C 0.41893 0.68698 0.33026 0.0
C209 C 0.40217 0.70961 0.33116 0.0
H210 H 0.37564 0.75713 0.33796 0.0
H211 H 0.38999 0.79446 0.37149 0.0
H212 H 0.49699 0.64939 0.36603 0.0
H213 H 0.45663 0.64749 0.33376 0.0
H214 H 0.41428 0.67061 0.3153 0.0
H215 H 0.3849 0.71031 0.31686 0.0
Mn216 Mn 0.51448 0.27691 0.63239 0.0
Mn217 Mn 0.55841 0.32652 0.60756 0.0
C218 C 0.55379 0.29435 0.65685 0.0
C219 C 0.47804 0.26396 0.66209 0.0
C220 C 0.55691 0.26775 0.58674 0.0
O221 O 0.48949 0.29231 0.6037 0.0
O222 O 0.5218 0.3238 0.58732 0.0
C223 C 0.52662 0.37376 0.6247 0.0
N224 N 0.5506 0.36019 0.62562 0.0
C225 C 0.57211 0.3934 0.65778 0.0
C226 C 0.54771 0.40781 0.65705 0.0
C227 C 0.52488 0.39795 0.64042 0.0
C228 C 0.57276 0.3696 0.64142 0.0
H229 H 0.5089 0.36609 0.61219 0.0
C230 C 0.4973 0.31071 0.58687 0.0
O231 O 0.48552 0.24697 0.64316 0.0
O232 O 0.48979 0.28859 0.66185 0.0
N233 N 0.59399 0.33073 0.62613 0.0
C234 C 0.61534 0.31364 0.62556 0.0
C235 C 0.63954 0.3202 0.64158 0.0
C236 C 0.64146 0.34418 0.65806 0.0
C237 C 0.61919 0.36145 0.65829 0.0
C238 C 0.59575 0.35401 0.64166 0.0
H239 H 0.61377 0.29501 0.61318 0.0
O240 O 0.54343 0.26946 0.66013 0.0
O241 O 0.54188 0.3073 0.63792 0.0
O242 O 0.53678 0.25874 0.60196 0.0
O243 O 0.56789 0.29243 0.58834 0.0
C244 C 0.61911 0.38546 0.67474 0.0
C245 C 0.59559 0.40144 0.67448 0.0
H246 H 0.54618 0.42634 0.66935 0.0
H247 H 0.50592 0.40888 0.63986 0.0
H248 H 0.65658 0.3067 0.64139 0.0
H249 H 0.66003 0.34901 0.67061 0.0
H250 H 0.63691 0.39169 0.68787 0.0
H251 H 0.59566 0.41971 0.68741 0.0
Mn252 Mn 0.03571 0.28253 0.8892 0.0
Mn253 Mn 0.98997 0.23154 0.90874 0.0
C254 C 0.02247 0.24614 0.85967 0.0
C255 C 0.04674 0.32261 0.86621 0.0
C256 C 0.05021 0.23947 0.92951 0.0
O257 O 0.01646 0.30028 0.92113 0.0
O258 O 0.98594 0.26476 0.93258 0.0
C259 C 0.93619 0.25476 0.89478 0.0
N260 N 0.95437 0.2347 0.89138 0.0
C261 C 0.92405 0.21108 0.85772 0.0
C262 C 0.90496 0.23143 0.86094 0.0
C263 C 0.91105 0.25333 0.87959 0.0
C264 C 0.94857 0.21336 0.87372 0.0
H265 H 0.94092 0.27178 0.90889 0.0
C266 C 0.99707 0.28943 0.93616 0.0
O267 O 0.06364 0.31435 0.8845 0.0
O268 O 0.02231 0.30914 0.86341 0.0
N269 N 0.99216 0.19903 0.88656 0.0
C270 C 0.01361 0.18211 0.88465 0.0
C271 C 0.0113 0.15964 0.86622 0.0
C272 C 0.98704 0.15488 0.84988 0.0
C273 C 0.96527 0.17263 0.85217 0.0
C274 C 0.96863 0.19453 0.87108 0.0
H275 H 0.03245 0.18592 0.89692 0.0
O276 O 0.04695 0.25944 0.85754 0.0
O277 O 0.00775 0.25338 0.88039 0.0
O278 O 0.05713 0.26049 0.9158 0.0
O279 O 0.02601 0.22624 0.92763 0.0
C280 C 0.94063 0.16978 0.83603 0.0
C281 C 0.92001 0.18896 0.83884 0.0
H282 H 0.88568 0.23057 0.84904 0.0
H283 H 0.89647 0.26918 0.88211 0.0
H284 H 0.02826 0.14613 0.86445 0.0
H285 H 0.98546 0.13769 0.8355 0.0
H286 H 0.93747 0.15308 0.82119 0.0
H287 H 0.9013 0.18671 0.82612 0.0
Mn288 Mn 0.39359 0.0255 0.23455 0.0
Mn289 Mn 0.37633 0.08354 0.26606 0.0
C290 C 0.42646 0.06272 0.23954 0.0
C291 C 0.41539 0.98425 0.23612 0.0
C292 C 0.35486 0.06552 0.21002 0.0
O293 O 0.35888 0.0126 0.25558 0.0
O294 O 0.34912 0.05251 0.27674 0.0
C295 C 0.38926 0.07009 0.32247 0.0
N296 N 0.39407 0.0864 0.30091 0.0
C297 C 0.43089 0.1137 0.32499 0.0
C298 C 0.42622 0.09727 0.3475 0.0
C299 C 0.40529 0.0754 0.34624 0.0
C300 C 0.41395 0.1077 0.302 0.0
H301 H 0.37344 0.05304 0.32146 0.0
C302 C 0.34375 0.02676 0.27116 0.0
O303 O 0.39781 0.98865 0.21672 0.0
O304 O 0.41811 0.00265 0.25544 0.0
N305 N 0.40163 0.11426 0.25721 0.0
C306 C 0.4048 0.12689 0.23314 0.0
C307 C 0.42558 0.14863 0.23067 0.0
C308 C 0.44296 0.15705 0.25291 0.0
C309 C 0.43932 0.1437 0.27747 0.0
C310 C 0.41803 0.1224 0.27883 0.0
H311 H 0.39179 0.12019 0.21587 0.0
O312 O 0.42836 0.04513 0.21965 0.0
O313 O 0.40415 0.05876 0.25434 0.0
O314 O 0.36752 0.04341 0.20812 0.0
O315 O 0.35758 0.08241 0.23026 0.0
C316 C 0.45642 0.15028 0.30046 0.0
C317 C 0.45218 0.13532 0.32421 0.0
H318 H 0.43879 0.10108 0.36575 0.0
H319 H 0.40168 0.06253 0.36347 0.0
H320 H 0.42837 0.15872 0.2116 0.0
H321 H 0.45919 0.17361 0.25083 0.0
H322 H 0.47313 0.16659 0.29998 0.0
H323 H 0.46569 0.14036 0.34164 0.0
Mn324 Mn 0.24945 0.15697 0.55209 0.0
Mn325 Mn 0.22645 0.16784 0.48928 0.0
C326 C 0.22193 0.12311 0.52837 0.0
C327 C 0.28191 0.13821 0.58029 0.0
C328 C 0.20449 0.19597 0.53987 0.0
O329 O 0.27543 0.19003 0.54058 0.0
O330 O 0.26176 0.19125 0.49658 0.0
C331 C 0.27174 0.14571 0.4563 0.0
N332 N 0.24405 0.14515 0.46329 0.0
C333 C 0.23177 0.10836 0.43098 0.0
C334 C 0.26014 0.10865 0.42332 0.0
C335 C 0.28021 0.12737 0.43608 0.0
C336 C 0.22455 0.12724 0.45113 0.0
H337 H 0.28723 0.15997 0.46616 0.0
C338 C 0.27762 0.1996 0.51675 0.0
O339 O 0.26528 0.1561 0.58971 0.0
O340 O 0.2814 0.13338 0.55445 0.0
N341 N 0.19252 0.14561 0.48064 0.0
C342 C 0.1665 0.14658 0.49185 0.0
C343 C 0.14425 0.12823 0.48231 0.0
C344 C 0.14898 0.10913 0.46136 0.0
C345 C 0.17595 0.10854 0.45015 0.0
C346 C 0.19728 0.1274 0.4604 0.0
H347 H 0.16282 0.16112 0.50805 0.0
O348 O 0.22279 0.12329 0.55452 0.0
O349 O 0.23627 0.14329 0.51729 0.0
O350 O 0.21739 0.1824 0.55708 0.0
O351 O 0.20681 0.19223 0.51433 0.0
C352 C 0.18264 0.08965 0.42954 0.0
C353 C 0.21049 0.08969 0.41985 0.0
H354 H 0.26679 0.09441 0.40787 0.0
H355 H 0.30218 0.12762 0.43039 0.0
H356 H 0.12353 0.12873 0.49115 0.0
H357 H 0.13181 0.09489 0.45419 0.0
H358 H 0.16659 0.07481 0.42121 0.0
H359 H 0.21542 0.07493 0.40415 0.0
Mn360 Mn 0.13163 0.04707 0.74591 0.0
Mn361 Mn 0.12356 0.08413 0.8032 0.0
C362 C 0.16919 0.07372 0.76485 0.0
C363 C 0.14766 0.00885 0.72352 0.0
C364 C 0.10105 0.10012 0.74915 0.0
O365 O 0.09497 0.02861 0.76058 0.0
O366 O 0.09185 0.05545 0.79845 0.0
C367 C 0.13255 0.04062 0.8419 0.0
N368 N 0.14026 0.06578 0.83212 0.0
C369 C 0.17955 0.07214 0.86317 0.0
C370 C 0.17191 0.04636 0.87371 0.0
C371 C 0.1483 0.03055 0.86304 0.0
C372 C 0.16285 0.08124 0.84234 0.0
H373 H 0.11461 0.02829 0.83352 0.0
C374 C 0.08224 0.03609 0.78202 0.0
O375 O 0.13108 0.02464 0.71134 0.0
O376 O 0.15174 0.0134 0.74917 0.0
N377 N 0.1532 0.11234 0.80949 0.0
C378 C 0.15864 0.136 0.796 0.0
C379 C 0.18201 0.15387 0.80369 0.0
C380 C 0.19956 0.1472 0.82509 0.0
C381 C 0.19346 0.12277 0.83874 0.0
C382 C 0.16965 0.10595 0.83041 0.0
H383 H 0.14539 0.14101 0.77931 0.0
O384 O 0.16859 0.06779 0.73922 0.0
O385 O 0.14716 0.06484 0.77829 0.0
O386 O 0.10998 0.07996 0.73553 0.0
O387 O 0.1059 0.10443 0.77442 0.0
C388 C 0.21041 0.11415 0.85985 0.0
C389 C 0.20346 0.08886 0.87207 0.0
H390 H 0.18417 0.0384 0.88982 0.0
H391 H 0.14237 0.01057 0.87096 0.0
H392 H 0.18665 0.17263 0.79299 0.0
H393 H 0.21778 0.16085 0.83073 0.0
H394 H 0.22906 0.12664 0.86661 0.0
H395 H 0.21686 0.0823 0.88805 0.0
Mn396 Mn 0.26638 0.9058 0.02114 0.0
Mn397 Mn 0.21701 0.91677 0.97458 0.0
C398 C 0.2319 0.87184 0.00906 0.0
C399 C 0.30875 0.8876 0.0327 0.0
C400 C 0.21565 0.93987 0.03171 0.0
O401 O 0.28415 0.93925 0.00253 0.0
O402 O 0.24872 0.94577 0.97321 0.0
C403 C 0.25075 0.90527 0.92607 0.0
N404 N 0.22746 0.89949 0.94136 0.0
C405 C 0.21115 0.86219 0.91102 0.0
C406 C 0.23486 0.86786 0.89484 0.0
C407 C 0.25473 0.88951 0.9024 0.0
C408 C 0.20813 0.87881 0.93419 0.0
H409 H 0.26621 0.9217 0.93197 0.0
C410 C 0.27274 0.95296 0.98435 0.0
O411 O 0.29747 0.90529 0.04867 0.0
O412 O 0.29685 0.88281 0.00929 0.0
N413 N 0.18546 0.89002 0.97409 0.0
C414 C 0.16455 0.88637 0.99263 0.0
C415 C 0.14332 0.86508 0.98847 0.0
C416 C 0.14382 0.84778 0.96532 0.0
C417 C 0.16545 0.85207 0.94643 0.0
C418 C 0.18583 0.87384 0.95149 0.0
H419 H 0.16429 0.89944 0.0106 0.0
O420 O 0.24409 0.87182 0.03252 0.0
O421 O 0.23965 0.89227 0.99399 0.0
O422 O 0.23867 0.9306 0.03967 0.0
O423 O 0.20481 0.93459 0.00824 0.0
C424 C 0.16792 0.83524 0.92308 0.0
C425 C 0.19074 0.84031 0.90538 0.0
H426 H 0.23816 0.85558 0.87672 0.0
H427 H 0.27317 0.89391 0.8901 0.0
H428 H 0.12676 0.86184 0.00318 0.0
H429 H 0.12763 0.83113 0.96237 0.0
H430 H 0.15258 0.81814 0.91873 0.0
H431 H 0.19259 0.82703 0.88766 0.0
Mn432 Mn 0.26486 0.42336 0.01996 0.0
Mn433 Mn 0.32035 0.41539 0.06046 0.0
C434 C 0.28088 0.45793 0.0505 0.0
C435 C 0.24546 0.44105 0.98149 0.0
C436 C 0.26316 0.38452 0.06717 0.0
O437 O 0.28396 0.39225 0.00086 0.0
O438 O 0.32198 0.38994 0.02839 0.0
C439 C 0.36591 0.4375 0.02501 0.0
N440 N 0.35161 0.43882 0.0487 0.0
C441 C 0.37941 0.47985 0.06324 0.0
C442 C 0.39455 0.47883 0.03906 0.0
C443 C 0.38779 0.45755 0.01988 0.0
C444 C 0.35805 0.45912 0.06737 0.0
H445 H 0.36052 0.42138 0.01007 0.0
C446 C 0.30684 0.38174 0.00765 0.0
O447 O 0.23198 0.42149 0.99451 0.0
O448 O 0.27114 0.44809 0.98921 0.0
N449 N 0.32048 0.43941 0.09175 0.0
C450 C 0.30258 0.43847 0.11313 0.0
C451 C 0.30599 0.45872 0.13386 0.0
C452 C 0.32767 0.47977 0.13232 0.0
C453 C 0.34582 0.48032 0.11008 0.0
C454 C 0.34163 0.45937 0.09022 0.0
H455 H 0.28568 0.42251 0.11421 0.0
O456 O 0.25474 0.45597 0.04259 0.0
O457 O 0.29569 0.43841 0.04162 0.0
O458 O 0.25075 0.39626 0.0483 0.0
O459 O 0.2889 0.39069 0.07409 0.0
C460 C 0.36741 0.50122 0.10649 0.0
C461 C 0.38419 0.50098 0.08309 0.0
H462 H 0.41122 0.49443 0.03489 0.0
H463 H 0.39927 0.45673 0.00109 0.0
H464 H 0.2918 0.45826 0.15088 0.0
H465 H 0.32998 0.49557 0.14816 0.0
H466 H 0.37102 0.51779 0.12142 0.0
H467 H 0.40047 0.51736 0.08039 0.0
Mn468 Mn 0.72027 0.17152 0.00022 0.0
Mn469 Mn 0.78784 0.16152 0.01458 0.0
C470 C 0.74771 0.20475 0.02444 0.0
C471 C 0.68655 0.18981 0.97332 0.0
C472 C 0.73752 0.13029 0.04024 0.0
O473 O 0.72913 0.13966 0.97448 0.0
O474 O 0.77652 0.14018 0.98098 0.0
C475 C 0.81773 0.18805 0.96892 0.0
N476 N 0.81323 0.18645 0.99599 0.0
C477 C 0.84816 0.22373 0.00561 0.0
C478 C 0.85326 0.22571 0.97784 0.0
C479 C 0.83797 0.2078 0.95942 0.0
C480 C 0.82798 0.20342 0.0139 0.0
H481 H 0.80592 0.17438 0.95472 0.0
C482 C 0.7534 0.13101 0.96919 0.0
O483 O 0.67948 0.17055 0.99004 0.0
O484 O 0.71327 0.19618 0.97023 0.0
N485 N 0.80046 0.18161 0.04674 0.0
C486 C 0.79145 0.17834 0.07259 0.0
C487 C 0.8037 0.1955 0.09341 0.0
C488 C 0.82505 0.21581 0.08743 0.0
C489 C 0.83397 0.21877 0.06066 0.0
C490 C 0.82114 0.20093 0.04079 0.0
H491 H 0.77492 0.16289 0.07724 0.0
O492 O 0.72048 0.20369 0.02602 0.0
O493 O 0.75795 0.18604 0.009 0.0
O494 O 0.71881 0.14499 0.03114 0.0
O495 O 0.76374 0.13437 0.03488 0.0
C496 C 0.85464 0.2391 0.05283 0.0
C497 C 0.86178 0.24153 0.02534 0.0
H498 H 0.86866 0.24108 0.97042 0.0
H499 H 0.84172 0.20928 0.93795 0.0
H500 H 0.79661 0.19318 0.11401 0.0
H501 H 0.83425 0.22917 0.10352 0.0
H502 H 0.86488 0.25323 0.06774 0.0
H503 H 0.87743 0.25749 0.01953 0.0
Mn504 Mn 0.14181 0.54835 0.26873 0.0
Mn505 Mn 0.15874 0.48656 0.24517 0.0
C506 C 0.11571 0.5255 0.23423 0.0
C507 C 0.11308 0.57384 0.29638 0.0
C508 C 0.19298 0.53983 0.23306 0.0
O509 O 0.16723 0.53627 0.29895 0.0
O510 O 0.17477 0.49378 0.28217 0.0
C511 C 0.12539 0.4516 0.283 0.0
N512 N 0.13136 0.45903 0.25724 0.0
C513 C 0.09468 0.42686 0.23923 0.0
C514 C 0.08835 0.41867 0.26555 0.0
C515 C 0.10378 0.4311 0.28752 0.0
C516 C 0.11674 0.44711 0.23593 0.0
H517 H 0.13687 0.46142 0.29997 0.0
C518 C 0.17785 0.51303 0.30043 0.0
O519 O 0.13605 0.58529 0.28616 0.0
O520 O 0.10862 0.54763 0.29253 0.0
N521 N 0.14372 0.47772 0.20974 0.0
C522 C 0.15096 0.4895 0.18592 0.0
C523 C 0.13673 0.48018 0.16205 0.0
C524 C 0.11518 0.45895 0.16294 0.0
C525 C 0.1081 0.44715 0.1877 0.0
C526 C 0.12328 0.45701 0.21076 0.0
H527 H 0.16727 0.50605 0.18521 0.0
O528 O 0.11617 0.55192 0.23705 0.0
O529 O 0.13145 0.51359 0.25106 0.0
O530 O 0.177 0.55585 0.24552 0.0
O531 O 0.18787 0.51375 0.2314 0.0
C532 C 0.08611 0.42648 0.19049 0.0
C533 C 0.07941 0.41634 0.21623 0.0
H534 H 0.07143 0.40314 0.26916 0.0
H535 H 0.09885 0.42507 0.30792 0.0
H536 H 0.14221 0.48949 0.14305 0.0
H537 H 0.10401 0.45207 0.14454 0.0
H538 H 0.07392 0.41853 0.17302 0.0
H539 H 0.06216 0.40076 0.21817 0.0
Mn540 Mn 0.7652 0.92066 0.52055 0.0
Mn541 Mn 0.81433 0.91211 0.56791 0.0
C542 C 0.77536 0.95421 0.55391 0.0
C543 C 0.7507 0.93964 0.48069 0.0
C544 C 0.75656 0.88157 0.56745 0.0
O545 O 0.78741 0.89077 0.50314 0.0
O546 O 0.81931 0.88618 0.53652 0.0
C547 C 0.86497 0.93243 0.53797 0.0
N548 N 0.84773 0.93443 0.5597 0.0
C549 C 0.87564 0.97406 0.57754 0.0
C550 C 0.89379 0.97232 0.55543 0.0
C551 C 0.88844 0.9514 0.53558 0.0
C552 C 0.85283 0.95432 0.57905 0.0
H553 H 0.86077 0.91655 0.52252 0.0
C554 C 0.80812 0.87912 0.51338 0.0
O555 O 0.73611 0.91908 0.49115 0.0
O556 O 0.77501 0.94687 0.49173 0.0
N557 N 0.81147 0.93626 0.59877 0.0
C558 C 0.79081 0.93622 0.61772 0.0
C559 C 0.79238 0.9565 0.63849 0.0
C560 C 0.8151 0.97662 0.6395 0.0
C561 C 0.83611 0.97622 0.61976 0.0
C562 C 0.83358 0.95533 0.59972 0.0
H563 H 0.77312 0.921 0.6168 0.0
O564 O 0.7507 0.95156 0.54244 0.0
O565 O 0.79261 0.93601 0.54645 0.0
O566 O 0.74768 0.89215 0.54608 0.0
O567 O 0.78066 0.88854 0.57822 0.0
C568 C 0.85908 0.99611 0.61881 0.0
C569 C 0.87886 0.995 0.59775 0.0
H570 H 0.91172 0.98711 0.55334 0.0
H571 H 0.90226 0.95002 0.51838 0.0
H572 H 0.776 0.95676 0.65356 0.0
H573 H 0.81605 0.99242 0.65537 0.0
H574 H 0.86154 0.01256 0.63399 0.0
H575 H 0.89624 0.01061 0.59705 0.0
Mn576 Mn 0.87063 0.01885 0.29201 0.0
Mn577 Mn 0.8756 0.98274 0.23372 0.0
C578 C 0.83928 0.02365 0.25698 0.0
C579 C 0.84851 0.02527 0.33342 0.0
C580 C 0.91549 0.03204 0.24908 0.0
O581 O 0.89543 0.98865 0.30307 0.0
O582 O 0.89784 0.96636 0.26255 0.0
C583 C 0.84364 0.9318 0.25024 0.0
N584 N 0.84677 0.95329 0.23338 0.0
C585 C 0.80393 0.93819 0.20936 0.0
C586 C 0.80036 0.91579 0.22636 0.0
C587 C 0.82031 0.91258 0.24688 0.0
C588 C 0.82775 0.95652 0.21351 0.0
H589 H 0.85877 0.92943 0.26622 0.0
C590 C 0.9048 0.96994 0.28759 0.0
O591 O 0.87251 0.03858 0.32814 0.0
O592 O 0.83973 0.00602 0.31626 0.0
N593 N 0.85488 0.99675 0.20454 0.0
C594 C 0.86068 0.0202 0.19081 0.0
C595 C 0.84242 0.02679 0.16995 0.0
C596 C 0.81842 0.00923 0.16346 0.0
C597 C 0.81298 0.98513 0.17779 0.0
C598 C 0.83211 0.97947 0.19816 0.0
H599 H 0.87896 0.03388 0.19592 0.0
O600 O 0.84423 0.04331 0.27482 0.0
O601 O 0.8537 0.00237 0.25979 0.0
O602 O 0.90446 0.03716 0.27202 0.0
O603 O 0.90559 0.01294 0.23263 0.0
C604 C 0.78905 0.96678 0.17303 0.0
C605 C 0.7845 0.94335 0.18883 0.0
H606 H 0.78226 0.90106 0.22399 0.0
H607 H 0.81761 0.89543 0.26017 0.0
H608 H 0.84671 0.04547 0.15904 0.0
H609 H 0.8042 0.01455 0.14758 0.0
H610 H 0.77384 0.97064 0.15747 0.0
H611 H 0.76582 0.92959 0.18522 0.0
Mn612 Mn 0.23218 0.6733 0.50731 0.0
Mn613 Mn 0.29778 0.65902 0.52484 0.0
C614 C 0.25833 0.70195 0.53731 0.0
C615 C 0.20265 0.69689 0.48028 0.0
C616 C 0.24459 0.62733 0.54433 0.0
O617 O 0.24175 0.64439 0.47875 0.0
O618 O 0.28785 0.64091 0.48921 0.0
C619 C 0.33035 0.68915 0.48295 0.0
N620 N 0.32462 0.68506 0.5095 0.0
C621 C 0.35855 0.72185 0.52348 0.0
C622 C 0.36496 0.72633 0.49628 0.0
C623 C 0.3508 0.7099 0.47593 0.0
C624 C 0.33822 0.70065 0.52925 0.0
H625 H 0.3193 0.67673 0.46725 0.0
C626 C 0.2657 0.63462 0.47467 0.0
O627 O 0.19265 0.67599 0.49381 0.0
O628 O 0.22978 0.70197 0.4804 0.0
N629 N 0.30932 0.67577 0.55898 0.0
C630 C 0.29958 0.66974 0.58409 0.0
C631 C 0.31109 0.68473 0.6067 0.0
C632 C 0.33242 0.70579 0.60325 0.0
C633 C 0.34217 0.71156 0.5772 0.0
C634 C 0.33019 0.69566 0.55547 0.0
H635 H 0.28301 0.65373 0.5868 0.0
O636 O 0.23112 0.70201 0.53667 0.0
O637 O 0.26924 0.685 0.52042 0.0
O638 O 0.2271 0.64295 0.53445 0.0
O639 O 0.27136 0.63118 0.54169 0.0
C640 C 0.36288 0.73282 0.5719 0.0
C641 C 0.37107 0.73796 0.54506 0.0
H642 H 0.38052 0.74249 0.49078 0.0
H643 H 0.35553 0.71333 0.45489 0.0
H644 H 0.30338 0.68022 0.62673 0.0
H645 H 0.34098 0.71754 0.62071 0.0
H646 H 0.37242 0.74556 0.58828 0.0
H647 H 0.38677 0.75458 0.54122 0.0
Mn648 Mn 0.36579 0.51498 0.7934 0.0
Mn649 Mn 0.36823 0.47773 0.73551 0.0
C650 C 0.33399 0.52027 0.75884 0.0
C651 C 0.34424 0.52227 0.83506 0.0
C652 C 0.40943 0.52657 0.74896 0.0
O653 O 0.39004 0.48433 0.80445 0.0
O654 O 0.39106 0.46163 0.76405 0.0
C655 C 0.33594 0.42779 0.75405 0.0
N656 N 0.33899 0.44874 0.73656 0.0
C657 C 0.29565 0.4334 0.7135 0.0
C658 C 0.29214 0.41154 0.73116 0.0
C659 C 0.31237 0.40874 0.75153 0.0
C660 C 0.31965 0.45163 0.71688 0.0
H661 H 0.35132 0.42571 0.76986 0.0
C662 C 0.39873 0.46533 0.7889 0.0
O663 O 0.36837 0.53518 0.82943 0.0
O664 O 0.33509 0.50298 0.81814 0.0
N665 N 0.34701 0.49129 0.70644 0.0
C666 C 0.35298 0.51411 0.69179 0.0
C667 C 0.33459 0.52015 0.67082 0.0
C668 C 0.31034 0.50265 0.66512 0.0
C669 C 0.30475 0.47918 0.68037 0.0
C670 C 0.32399 0.47407 0.70082 0.0
H671 H 0.37153 0.52767 0.6962 0.0
O672 O 0.3398 0.53997 0.77643 0.0
O673 O 0.34763 0.4985 0.76169 0.0
O674 O 0.39967 0.53215 0.77239 0.0
O675 O 0.39839 0.50749 0.7331 0.0
C676 C 0.28066 0.46088 0.67634 0.0
C677 C 0.27605 0.43806 0.69295 0.0
H678 H 0.2739 0.39691 0.7294 0.0
H679 H 0.30973 0.39201 0.76533 0.0
H680 H 0.33901 0.53832 0.65917 0.0
H681 H 0.29609 0.50751 0.64909 0.0
H682 H 0.26539 0.46428 0.66068 0.0
H683 H 0.25726 0.42433 0.68987 0.0
Mn684 Mn 0.63657 0.04918 0.77438 0.0
Mn685 Mn 0.65455 0.99085 0.74353 0.0
C686 C 0.61298 0.03206 0.73591 0.0
C687 C 0.60668 0.0721 0.80284 0.0
C688 C 0.68949 0.04479 0.73992 0.0
O689 O 0.65921 0.03263 0.80402 0.0
O690 O 0.66994 0.99396 0.78115 0.0
C691 C 0.62094 0.95139 0.77688 0.0
N692 N 0.62722 0.96183 0.75225 0.0
C693 C 0.59199 0.93068 0.73039 0.0
C694 C 0.58544 0.91934 0.75547 0.0
C695 C 0.59992 0.92979 0.77882 0.0
C696 C 0.61346 0.95187 0.72964 0.0
H697 H 0.6318 0.95954 0.79491 0.0
C698 C 0.67117 0.01007 0.80219 0.0
O699 O 0.63082 0.08389 0.79567 0.0
O700 O 0.60152 0.04657 0.79567 0.0
N701 N 0.64034 0.9858 0.70732 0.0
C702 C 0.64784 0.00029 0.68508 0.0
C703 C 0.63436 0.99331 0.66023 0.0
C704 C 0.61333 0.97155 0.65852 0.0
C705 C 0.60601 0.95689 0.68169 0.0
C706 C 0.62036 0.96461 0.70584 0.0
H707 H 0.66377 0.01724 0.68639 0.0
O708 O 0.61399 0.05799 0.7422 0.0
O709 O 0.62685 0.01713 0.7518 0.0
O710 O 0.67372 0.0587 0.75494 0.0
O711 O 0.68378 0.01956 0.7331 0.0
C712 C 0.58458 0.93537 0.6819 0.0
C713 C 0.57761 0.92223 0.70622 0.0
H714 H 0.56916 0.90278 0.75708 0.0
H715 H 0.5948 0.9213 0.79829 0.0
H716 H 0.64002 0.0048 0.64246 0.0
H717 H 0.60276 0.96642 0.63938 0.0
H718 H 0.57307 0.92899 0.66354 0.0
H719 H 0.56085 0.90595 0.7062 0.0
Mn720 Mn 0.74535 0.65617 0.04603 0.0
Mn721 Mn 0.71723 0.66832 0.98561 0.0
C722 C 0.71493 0.62331 0.02424 0.0
C723 C 0.77974 0.63533 0.07022 0.0
C724 C 0.70043 0.69637 0.03829 0.0
O725 O 0.7711 0.68865 0.03299 0.0
O726 O 0.75335 0.69113 0.99051 0.0
C727 C 0.75932 0.64567 0.94906 0.0
N728 N 0.7323 0.64554 0.95806 0.0
C729 C 0.71705 0.6088 0.92666 0.0
C730 C 0.74467 0.60869 0.91691 0.0
C731 C 0.76591 0.62718 0.9282 0.0
C732 C 0.7117 0.62784 0.94735 0.0
H733 H 0.77573 0.65969 0.95785 0.0
C734 C 0.77126 0.69874 0.00934 0.0
O735 O 0.76498 0.65359 0.08196 0.0
O736 O 0.77633 0.63154 0.04444 0.0
N737 N 0.68243 0.64668 0.97927 0.0
C738 C 0.65746 0.64799 0.99241 0.0
C739 C 0.63432 0.62992 0.9845 0.0
C740 C 0.63712 0.61071 0.96318 0.0
C741 C 0.66305 0.60973 0.94998 0.0
C742 C 0.68531 0.62836 0.95865 0.0
H743 H 0.65528 0.66261 0.00892 0.0
O744 O 0.71807 0.62321 0.05022 0.0
O745 O 0.72868 0.64333 0.01239 0.0
O746 O 0.71476 0.68259 0.05423 0.0
O747 O 0.7002 0.69264 0.0126 0.0
C748 C 0.66782 0.5907 0.92887 0.0
C749 C 0.69476 0.59035 0.91711 0.0
H750 H 0.74988 0.5943 0.90098 0.0
H751 H 0.78732 0.62708 0.92092 0.0
H752 H 0.61441 0.63071 0.99487 0.0
H753 H 0.61928 0.59667 0.95727 0.0
H754 H 0.65101 0.57603 0.92172 0.0
H755 H 0.69823 0.57548 0.90105 0.0
Mn756 Mn 0.89143 0.52729 0.73905 0.0
Mn757 Mn 0.87318 0.58478 0.77082 0.0
C758 C 0.92346 0.56521 0.74385 0.0
C759 C 0.91454 0.48672 0.73928 0.0
C760 C 0.85176 0.56716 0.71498 0.0
O761 O 0.85783 0.51312 0.76101 0.0
O762 O 0.84599 0.55326 0.78016 0.0
C763 C 0.88497 0.56987 0.82707 0.0
N764 N 0.89013 0.5868 0.80603 0.0
C765 C 0.92614 0.61379 0.83149 0.0
C766 C 0.92112 0.5967 0.85346 0.0
C767 C 0.90041 0.57468 0.85124 0.0
C768 C 0.90979 0.60824 0.80804 0.0
H769 H 0.8693 0.55273 0.82535 0.0
C770 C 0.84175 0.52722 0.77565 0.0
O771 O 0.89616 0.49089 0.72053 0.0
O772 O 0.9174 0.50489 0.7588 0.0
N773 N 0.89838 0.61597 0.76327 0.0
C774 C 0.90194 0.62931 0.73962 0.0
C775 C 0.92256 0.65131 0.73811 0.0
C776 C 0.93937 0.65927 0.76087 0.0
C777 C 0.93533 0.6452 0.78498 0.0
C778 C 0.91423 0.62363 0.78537 0.0
H779 H 0.88935 0.62298 0.72197 0.0
O780 O 0.92524 0.54807 0.72355 0.0
O781 O 0.90153 0.56059 0.75902 0.0
O782 O 0.86388 0.5447 0.7135 0.0
O783 O 0.85524 0.58452 0.73475 0.0
C784 C 0.95183 0.65132 0.80844 0.0
C785 C 0.94721 0.63566 0.83169 0.0
H786 H 0.93322 0.60014 0.87203 0.0
H787 H 0.89652 0.56132 0.86807 0.0
H788 H 0.92567 0.66196 0.71939 0.0
H789 H 0.95547 0.67605 0.75953 0.0
H790 H 0.96836 0.66783 0.80871 0.0
H791 H 0.96026 0.64036 0.84949 0.0
Mn792 Mn 0.76658 0.4042 0.51542 0.0
Mn793 Mn 0.71913 0.41804 0.46796 0.0
C794 C 0.731 0.37172 0.5023 0.0
C795 C 0.8079 0.38456 0.52772 0.0
C796 C 0.71774 0.44053 0.52544 0.0
O797 O 0.78573 0.43783 0.49808 0.0
O798 O 0.75236 0.44551 0.46694 0.0
C799 C 0.75266 0.40499 0.41974 0.0
N800 N 0.72897 0.40036 0.43476 0.0
C801 C 0.71079 0.36432 0.4038 0.0
C802 C 0.73491 0.36884 0.3879 0.0
C803 C 0.75592 0.38927 0.39591 0.0
C804 C 0.70854 0.38087 0.42716 0.0
H805 H 0.76898 0.42049 0.42598 0.0
C806 C 0.77586 0.45197 0.47934 0.0
O807 O 0.7968 0.4025 0.54352 0.0
O808 O 0.79653 0.38025 0.504 0.0
N809 N 0.68624 0.39291 0.46702 0.0
C810 C 0.66509 0.39015 0.48541 0.0
C811 C 0.64277 0.37002 0.48086 0.0
C812 C 0.64245 0.35297 0.45748 0.0
C813 C 0.66437 0.35633 0.43876 0.0
C814 C 0.68587 0.37696 0.44422 0.0
H815 H 0.66544 0.40302 0.50355 0.0
O816 O 0.74287 0.37078 0.52585 0.0
O817 O 0.73996 0.39206 0.48754 0.0
O818 O 0.73962 0.42959 0.53383 0.0
O819 O 0.70745 0.43651 0.50158 0.0
C820 C 0.66604 0.33964 0.41521 0.0
C821 C 0.68922 0.34365 0.39773 0.0
H822 H 0.73765 0.35657 0.36965 0.0
H823 H 0.77467 0.39277 0.38382 0.0
H824 H 0.62599 0.36749 0.49544 0.0
H825 H 0.62539 0.33724 0.45421 0.0
H826 H 0.64979 0.32344 0.41052 0.0
H827 H 0.69043 0.33048 0.37985 0.0
Mn828 Mn 0.6365 0.54375 0.25057 0.0
Mn829 Mn 0.62502 0.58709 0.30253 0.0
C830 C 0.67146 0.57591 0.26567 0.0
C831 C 0.65608 0.50436 0.23382 0.0
C832 C 0.60087 0.59361 0.24688 0.0
O833 O 0.60211 0.52417 0.26795 0.0
O834 O 0.59529 0.55612 0.30087 0.0
C835 C 0.63668 0.54958 0.34637 0.0
N836 N 0.64276 0.57362 0.33372 0.0
C837 C 0.68171 0.58596 0.3641 0.0
C838 C 0.67574 0.56141 0.37756 0.0
C839 C 0.65311 0.54316 0.36867 0.0
C840 C 0.66438 0.59142 0.34221 0.0
H841 H 0.61953 0.53534 0.33939 0.0
C842 C 0.58796 0.53374 0.28754 0.0
O843 O 0.63796 0.51651 0.21945 0.0
O844 O 0.66036 0.51351 0.25837 0.0
N845 N 0.65265 0.61757 0.30588 0.0
C846 C 0.65642 0.63969 0.28986 0.0
C847 C 0.67857 0.65969 0.29567 0.0
C848 C 0.69662 0.65669 0.3178 0.0
C849 C 0.69223 0.6338 0.33407 0.0
C850 C 0.66955 0.61475 0.32753 0.0
H851 H 0.6428 0.64187 0.27263 0.0
O852 O 0.67127 0.56674 0.24087 0.0
O853 O 0.65034 0.56697 0.28026 0.0
O854 O 0.61071 0.57214 0.23628 0.0
O855 O 0.60653 0.60232 0.27108 0.0
C856 C 0.7098 0.62884 0.35615 0.0
C857 C 0.70454 0.60495 0.37116 0.0
H858 H 0.68854 0.55624 0.39459 0.0
H859 H 0.64847 0.52409 0.37886 0.0
H860 H 0.68188 0.67725 0.28296 0.0
H861 H 0.71391 0.67197 0.32199 0.0
H862 H 0.72762 0.64311 0.36157 0.0
H863 H 0.7184 0.60121 0.3879 0.0
O864 O 0.16446 0.1878 0.12978 0.0
Mn865 Mn 0.13665 0.15887 0.1477 0.0
O866 O 0.19048 0.20588 0.16552 0.0
Mn867 Mn 0.17855 0.18172 0.19249 0.0
O868 O 0.10858 0.13167 0.16897 0.0
O869 O 0.10789 0.1654 0.11907 0.0
Mn870 Mn 0.08399 0.1363 0.1163 0.0
O871 O 0.14901 0.12633 0.12388 0.0
O872 O 0.06676 0.13537 0.14931 0.0
O873 O 0.12132 0.19016 0.17232 0.0
O874 O 0.14648 0.18977 0.21078 0.0
O875 O 0.07365 0.15947 0.08993 0.0
O876 O 0.10681 0.10751 0.10833 0.0
C877 C 0.18759 0.13977 0.18444 0.0
C878 C 0.18318 0.20541 0.1405 0.0
C879 C 0.08145 0.13019 0.16972 0.0
C880 C 0.09548 0.17478 0.09839 0.0
C881 C 0.13352 0.1068 0.11193 0.0
C882 C 0.12446 0.19517 0.19786 0.0
O883 O 0.16706 0.1518 0.17414 0.0
O884 O 0.20155 0.15474 0.20266 0.0
O885 O 0.10417 0.88615 0.35931 0.0
Mn886 Mn 0.1258 0.91051 0.38959 0.0
O887 O 0.13537 0.85597 0.34569 0.0
Mn888 Mn 0.1642 0.8664 0.37011 0.0
O889 O 0.14939 0.93568 0.41839 0.0
O890 O 0.1019 0.94067 0.37997 0.0
Mn891 Mn 0.09835 0.96359 0.40717 0.0
O892 O 0.09717 0.89966 0.42001 0.0
O893 O 0.13491 0.97769 0.41231 0.0
O894 O 0.15598 0.92481 0.3609 0.0
O895 O 0.18894 0.89441 0.35962 0.0
O896 O 0.07436 0.97354 0.38003 0.0
O897 O 0.08425 0.94119 0.43481 0.0
C898 C 0.1573 0.8577 0.41129 0.0
C899 C 0.11172 0.86656 0.34355 0.0
C900 C 0.15307 0.96204 0.42066 0.0
C901 C 0.08209 0.95181 0.36752 0.0
C902 C 0.08494 0.91517 0.43722 0.0
C903 C 0.18058 0.91766 0.35409 0.0
O904 O 0.14767 0.87833 0.39936 0.0
O905 O 0.17346 0.84329 0.39654 0.0
O906 O 0.41295 0.95684 0.65005 0.0
Mn907 Mn 0.38176 0.92794 0.6355 0.0
O908 O 0.43133 0.97534 0.61209 0.0
Mn909 Mn 0.40498 0.9609 0.58642 0.0
O910 O 0.35223 0.89782 0.61867 0.0
O911 O 0.38879 0.90532 0.66831 0.0
Mn912 Mn 0.35601 0.88963 0.67848 0.0
O913 O 0.34948 0.94675 0.65594 0.0
O914 O 0.34283 0.86667 0.65051 0.0
O915 O 0.41266 0.90774 0.61301 0.0
O916 O 0.41344 0.92753 0.57237 0.0
O917 O 0.3817 0.87897 0.70291 0.0
O918 O 0.33303 0.91744 0.68741 0.0
C919 C 0.36281 0.97211 0.59411 0.0
C920 C 0.43185 0.97185 0.63762 0.0
C921 C 0.34117 0.87456 0.62638 0.0
C922 C 0.39941 0.89453 0.6894 0.0
C923 C 0.33226 0.9398 0.67494 0.0
C924 C 0.41978 0.9085 0.5878 0.0
O925 O 0.37465 0.9522 0.60487 0.0
O926 O 0.37738 0.98277 0.57457 0.0
O927 O 0.40332 0.20183 0.92025 0.0
Mn928 Mn 0.38538 0.17439 0.8902 0.0
O929 O 0.43756 0.18028 0.94051 0.0
Mn930 Mn 0.43027 0.14716 0.92228 0.0
O931 O 0.36563 0.14576 0.86171 0.0
O932 O 0.35148 0.19647 0.89196 0.0
Mn933 Mn 0.33512 0.19791 0.86037 0.0
O934 O 0.40142 0.19844 0.85843 0.0
O935 O 0.32363 0.1621 0.85219 0.0
O936 O 0.36739 0.14876 0.92005 0.0
O937 O 0.40178 0.12464 0.93623 0.0
O938 O 0.31542 0.21951 0.88366 0.0
O939 O 0.36285 0.2133 0.83808 0.0
C940 C 0.44401 0.14241 0.88218 0.0
C941 C 0.42303 0.20089 0.9381 0.0
C942 C 0.3404 0.14303 0.85168 0.0
C943 C 0.33416 0.21351 0.90113 0.0
C944 C 0.38948 0.21123 0.83953 0.0
C945 C 0.37598 0.1295 0.9345 0.0
O946 O 0.42113 0.154 0.8886 0.0
O947 O 0.4577 0.13284 0.90209 0.0
O948 O 0.60387 0.37931 0.85861 0.0
Mn949 Mn 0.62318 0.40556 0.88853 0.0
O950 O 0.63845 0.35295 0.84443 0.0
Mn951 Mn 0.66694 0.36572 0.8686 0.0
O952 O 0.64481 0.4327 0.91709 0.0
O953 O 0.59557 0.43287 0.87921 0.0
Mn954 Mn 0.59075 0.45511 0.90674 0.0
O955 O 0.59616 0.39184 0.91937 0.0
O956 O 0.62583 0.47277 0.91175 0.0
O957 O 0.65135 0.42252 0.85943 0.0
O958 O 0.6881 0.39612 0.85755 0.0
O959 O 0.56558 0.46387 0.88032 0.0
O960 O 0.57898 0.43157 0.93422 0.0
C961 C 0.65863 0.3561 0.90979 0.0
C962 C 0.6135 0.36095 0.84264 0.0
C963 C 0.6458 0.45906 0.91962 0.0
C964 C 0.57483 0.44314 0.86723 0.0
C965 C 0.58225 0.40593 0.93656 0.0
C966 C 0.67658 0.41793 0.85202 0.0
O967 O 0.64912 0.37648 0.89751 0.0
O968 O 0.67714 0.34366 0.89597 0.0
O969 O 0.91251 0.44115 0.15557 0.0
Mn970 Mn 0.88155 0.41794 0.13278 0.0
O971 O 0.9328 0.47077 0.12593 0.0
Mn972 Mn 0.90956 0.4617 0.09625 0.0
O973 O 0.85223 0.39415 0.1078 0.0
O974 O 0.8864 0.38714 0.158 0.0
Mn975 Mn 0.85517 0.36593 0.15933 0.0
O976 O 0.84839 0.43001 0.15697 0.0
O977 O 0.85074 0.35204 0.12467 0.0
O978 O 0.91287 0.40275 0.10721 0.0
O979 O 0.91993 0.43323 0.0746 0.0
O980 O 0.87968 0.35226 0.1837 0.0
O981 O 0.82822 0.38947 0.17089 0.0
C982 C 0.86711 0.47223 0.09931 0.0
C983 C 0.93128 0.46024 0.14924 0.0
C984 C 0.84699 0.36796 0.10543 0.0
C985 C 0.89627 0.37312 0.17713 0.0
C986 C 0.8285 0.41556 0.16887 0.0
C987 C 0.9226 0.40964 0.08391 0.0
O988 O 0.8767 0.4508 0.10984 0.0
O989 O 0.88508 0.48612 0.08455 0.0
O990 O 0.91799 0.69665 0.42012 0.0
Mn991 Mn 0.89585 0.67349 0.3895 0.0
O992 O 0.94898 0.66943 0.43806 0.0
Mn993 Mn 0.93699 0.63794 0.41851 0.0
O994 O 0.87193 0.64939 0.36027 0.0
O995 O 0.86608 0.70103 0.39281 0.0
Mn996 Mn 0.85407 0.70804 0.36013 0.0
O997 O 0.91625 0.69604 0.35889 0.0
O998 O 0.83786 0.67546 0.34608 0.0
O999 O 0.87464 0.64855 0.41863 0.0
O1000 O 0.90574 0.61882 0.43163 0.0
O1001 O 0.83453 0.72956 0.38311 0.0
O1002 O 0.88472 0.7228 0.34124 0.0
C1003 C 0.94833 0.63496 0.3772 0.0
C1004 C 0.93765 0.69216 0.43704 0.0
C1005 C 0.8492 0.65278 0.34683 0.0
C1006 C 0.84955 0.71924 0.40161 0.0
C1007 C 0.90922 0.71395 0.34206 0.0
C1008 C 0.88102 0.62714 0.43142 0.0
O1009 O 0.92749 0.64819 0.38617 0.0
O1010 O 0.96114 0.62185 0.39536 0.0
O1011 O 0.85433 0.88686 0.92339 0.0
Mn1012 Mn 0.87409 0.91834 0.90092 0.0
O1013 O 0.83155 0.85721 0.89335 0.0
Mn1014 Mn 0.84286 0.87414 0.86169 0.0
O1015 O 0.89566 0.94885 0.87812 0.0
O1016 O 0.89934 0.92781 0.93271 0.0
Mn1017 Mn 0.90514 0.96349 0.93847 0.0
O1018 O 0.84585 0.94615 0.91495 0.0
O1019 O 0.92377 0.97455 0.90752 0.0
O1020 O 0.90279 0.89164 0.88432 0.0
O1021 O 0.87872 0.86762 0.85053 0.0
O1022 O 0.92233 0.94674 0.9668 0.0
O1023 O 0.86973 0.97678 0.94314 0.0
C1024 C 0.82624 0.91368 0.85575 0.0
C1025 C 0.83875 0.86479 0.9175 0.0
C1026 C 0.91593 0.96733 0.88344 0.0
C1027 C 0.91236 0.92411 0.95497 0.0
C1028 C 0.8472 0.9675 0.9308 0.0
C1029 C 0.90158 0.87527 0.86327 0.0
O1030 O 0.84751 0.90911 0.87046 0.0
O1031 O 0.81633 0.89211 0.84214 0.0
O1032 O 0.92449 0.2013 0.66206 0.0
Mn1033 Mn 0.89574 0.1818 0.63394 0.0
O1034 O 0.89847 0.22642 0.69006 0.0
Mn1035 Mn 0.86358 0.21894 0.67327 0.0
O1036 O 0.86586 0.15963 0.60797 0.0
O1037 O 0.92291 0.15293 0.62872 0.0
Mn1038 Mn 0.92431 0.14056 0.5952 0.0
O1039 O 0.91391 0.20301 0.60107 0.0
O1040 O 0.88852 0.1244 0.58992 0.0
O1041 O 0.87542 0.15933 0.6653 0.0
O1042 O 0.84434 0.18711 0.68338 0.0
O1043 O 0.95266 0.12498 0.61418 0.0
O1044 O 0.93282 0.17104 0.57443 0.0
C1045 C 0.85882 0.23509 0.6339 0.0
C1046 C 0.92179 0.21698 0.68317 0.0
C1047 C 0.86607 0.13629 0.59493 0.0
C1048 C 0.94451 0.13977 0.63431 0.0
C1049 C 0.92645 0.19563 0.57924 0.0
C1050 C 0.85397 0.1636 0.68038 0.0
O1051 O 0.8704 0.2127 0.63895 0.0
O1052 O 0.84765 0.24625 0.65486 0.0
O1053 O 0.65561 0.17542 0.40915 0.0
Mn1054 Mn 0.63778 0.1459 0.38159 0.0
O1055 O 0.68629 0.20201 0.3847 0.0
Mn1056 Mn 0.6835 0.18232 0.35198 0.0
O1057 O 0.61894 0.11839 0.35196 0.0
O1058 O 0.60322 0.14329 0.40516 0.0
Mn1059 Mn 0.588 0.10929 0.40447 0.0
O1060 O 0.65366 0.11369 0.40272 0.0
O1061 O 0.57739 0.10229 0.36906 0.0
O1062 O 0.62039 0.17644 0.35824 0.0
O1063 O 0.65464 0.19007 0.32944 0.0
O1064 O 0.56658 0.12887 0.42803 0.0
O1065 O 0.61567 0.08802 0.41738 0.0
C1066 C 0.69858 0.14211 0.35251 0.0
C1067 C 0.6735 0.19623 0.40665 0.0
C1068 C 0.59415 0.10599 0.34937 0.0
C1069 C 0.58476 0.1491 0.42315 0.0
C1070 C 0.64231 0.09252 0.41463 0.0
C1071 C 0.62882 0.18815 0.33632 0.0
O1072 O 0.674 0.14839 0.36055 0.0
O1073 O 0.71311 0.16214 0.34147 0.0
O1074 O 0.61653 0.87916 0.1135 0.0
Mn1075 Mn 0.63342 0.91016 0.14 0.0
O1076 O 0.58217 0.89789 0.09021 0.0
Mn1077 Mn 0.58412 0.93206 0.10788 0.0
O1078 O 0.65181 0.94273 0.16476 0.0
O1079 O 0.66908 0.89158 0.13896 0.0
Mn1080 Mn 0.68931 0.89696 0.16834 0.0
O1081 O 0.62204 0.88856 0.1744 0.0
O1082 O 0.69765 0.93417 0.16651 0.0
O1083 O 0.64731 0.93425 0.10739 0.0
O1084 O 0.6107 0.95771 0.09515 0.0
O1085 O 0.7056 0.8701 0.14718 0.0
O1086 O 0.66408 0.8869 0.19589 0.0
C1087 C 0.57195 0.93361 0.14955 0.0
C1088 C 0.59747 0.87814 0.09488 0.0
C1089 C 0.67815 0.95064 0.16817 0.0
C1090 C 0.68433 0.87233 0.13127 0.0
C1091 C 0.63702 0.88391 0.19537 0.0
C1092 C 0.63698 0.95424 0.09524 0.0
O1093 O 0.59595 0.9265 0.14093 0.0
O1094 O 0.55559 0.94138 0.13073 0.0
O1095 O 0.41043 0.70933 0.16145 0.0
Mn1096 Mn 0.3943 0.68664 0.12763 0.0
O1097 O 0.37204 0.71598 0.18681 0.0
Mn1098 Mn 0.3433 0.70372 0.16252 0.0
O1099 O 0.3769 0.66129 0.09573 0.0
O1100 O 0.4319 0.6703 0.12441 0.0
Mn1101 Mn 0.44055 0.66658 0.08986 0.0
O1102 O 0.40781 0.71739 0.10077 0.0
O1103 O 0.41308 0.64097 0.07673 0.0
O1104 O 0.37805 0.65491 0.15301 0.0
O1105 O 0.33412 0.66662 0.16358 0.0
O1106 O 0.47077 0.65527 0.10887 0.0
O1107 O 0.44181 0.70098 0.07484 0.0
C1108 C 0.34376 0.72496 0.12475 0.0
C1109 C 0.3988 0.71705 0.18359 0.0
C1110 C 0.38676 0.64219 0.08086 0.0
C1111 C 0.45599 0.66102 0.12985 0.0
C1112 C 0.42569 0.71971 0.0814 0.0
C1113 C 0.35272 0.64915 0.16182 0.0
O1114 O 0.35869 0.70517 0.13065 0.0
O1115 O 0.3252 0.72952 0.14294 0.0
O1116 O 0.15898 0.67869 0.91008 0.0
Mn1117 Mn 0.13914 0.65044 0.88257 0.0
O1118 O 0.19181 0.70333 0.88618 0.0
Mn1119 Mn 0.18707 0.68452 0.85306 0.0
O1120 O 0.11799 0.62406 0.85331 0.0
O1121 O 0.10503 0.64976 0.90668 0.0
Mn1122 Mn 0.08847 0.61631 0.90734 0.0
O1123 O 0.15348 0.61711 0.90295 0.0
O1124 O 0.07704 0.60853 0.8722 0.0
O1125 O 0.12371 0.68242 0.85994 0.0
O1126 O 0.15867 0.69531 0.83146 0.0
O1127 O 0.06834 0.63767 0.93052 0.0
O1128 O 0.11525 0.59426 0.92064 0.0
C1129 C 0.19856 0.64285 0.85255 0.0
C1130 C 0.17837 0.69825 0.90795 0.0
C1131 C 0.09301 0.61186 0.85183 0.0
C1132 C 0.08713 0.65703 0.92462 0.0
C1133 C 0.14171 0.59707 0.91616 0.0
C1134 C 0.13296 0.69488 0.8387 0.0
O1135 O 0.17484 0.65102 0.86093 0.0
O1136 O 0.21454 0.66196 0.84165 0.0
O1137 O 0.11216 0.37971 0.61204 0.0
Mn1138 Mn 0.13003 0.41047 0.63808 0.0
O1139 O 0.0788 0.39978 0.58854 0.0
Mn1140 Mn 0.08199 0.43425 0.60556 0.0
O1141 O 0.14906 0.44285 0.66252 0.0
O1142 O 0.16484 0.39042 0.63774 0.0
Mn1143 Mn 0.18496 0.39648 0.66716 0.0
O1144 O 0.11753 0.38989 0.67252 0.0
O1145 O 0.19453 0.43343 0.6644 0.0
O1146 O 0.14505 0.43332 0.60521 0.0
O1147 O 0.10986 0.45852 0.59266 0.0
O1148 O 0.20121 0.36898 0.6469 0.0
O1149 O 0.15917 0.38804 0.69476 0.0
C1150 C 0.07 0.43652 0.64731 0.0
C1151 C 0.09312 0.37936 0.59347 0.0
C1152 C 0.17546 0.45036 0.66579 0.0
C1153 C 0.18029 0.37113 0.63054 0.0
C1154 C 0.13209 0.38565 0.69383 0.0
C1155 C 0.13582 0.45367 0.5928 0.0
O1156 O 0.09352 0.42842 0.63856 0.0
O1157 O 0.054 0.44491 0.62853 0.0
O1158 O 0.65344 0.68695 0.63057 0.0
Mn1159 Mn 0.62908 0.65449 0.64739 0.0
O1160 O 0.67816 0.70629 0.66653 0.0
Mn1161 Mn 0.66802 0.6811 0.69296 0.0
O1162 O 0.60456 0.62371 0.66744 0.0
O1163 O 0.59942 0.65829 0.61827 0.0
Mn1164 Mn 0.58303 0.62517 0.61139 0.0
O1165 O 0.64754 0.62523 0.62306 0.0
O1166 O 0.56546 0.61396 0.64244 0.0
O1167 O 0.60874 0.68222 0.6728 0.0
O1168 O 0.63489 0.6856 0.71089 0.0
O1169 O 0.56584 0.64746 0.58856 0.0
O1170 O 0.61136 0.60419 0.59872 0.0
C1171 C 0.68162 0.64067 0.68537 0.0
C1172 C 0.6709 0.70561 0.64152 0.0
C1173 C 0.57914 0.6131 0.66441 0.0
C1174 C 0.58358 0.66629 0.59899 0.0
C1175 C 0.63734 0.60691 0.60574 0.0
C1176 C 0.61178 0.68769 0.69832 0.0
O1177 O 0.66013 0.65054 0.67428 0.0
O1178 O 0.69372 0.65685 0.70378 0.0
O1179 O 0.35405 0.3854 0.42445 0.0
Mn1180 Mn 0.37519 0.4174 0.40379 0.0
O1181 O 0.33419 0.35631 0.39228 0.0
Mn1182 Mn 0.34522 0.37532 0.36161 0.0
O1183 O 0.39832 0.44802 0.3824 0.0
O1184 O 0.39905 0.42554 0.43689 0.0
Mn1185 Mn 0.40778 0.46097 0.44193 0.0
O1186 O 0.34739 0.44545 0.41779 0.0
O1187 O 0.4304 0.46735 0.4123 0.0
O1188 O 0.40395 0.3909 0.38693 0.0
O1189 O 0.38139 0.37041 0.3503 0.0
O1190 O 0.42018 0.44375 0.47231 0.0
O1191 O 0.3737 0.4776 0.44244 0.0
C1192 C 0.32879 0.41536 0.35753 0.0
C1193 C 0.33984 0.36294 0.41704 0.0
C1194 C 0.42209 0.46144 0.38813 0.0
C1195 C 0.40958 0.42147 0.46028 0.0
C1196 C 0.35043 0.46824 0.43142 0.0
C1197 C 0.4037 0.37702 0.36424 0.0
O1198 O 0.34948 0.40974 0.37248 0.0
O1199 O 0.31898 0.39453 0.34281 0.0
H1200 H 0.01949 0.25781 0.32571 0.0
H1201 H 0.08115 0.32159 0.30106 0.0
H1202 H 0.03156 0.22932 0.28674 0.0
H1203 H 0.09317 0.29304 0.26239 0.0
H1204 H 0.10127 0.17874 0.24449 0.0
H1205 H 0.07531 0.20609 0.27626 0.0
H1206 H 0.07474 0.27059 0.21851 0.0
H1207 H 0.10082 0.24279 0.18649 0.0
C1208 C 0.0355 0.26583 0.31197 0.0
C1209 C 0.04961 0.29186 0.31674 0.0
C1210 C 0.04231 0.24953 0.28962 0.0
C1211 C 0.06317 0.25904 0.27147 0.0
C1212 C 0.07667 0.28535 0.27578 0.0
C1213 C 0.07005 0.30154 0.2982 0.0
C1214 C 0.09481 0.19843 0.23833 0.0
C1215 C 0.10306 0.20888 0.21328 0.0
C1216 C 0.07987 0.21403 0.25644 0.0
C1217 C 0.0733 0.24058 0.24996 0.0
C1218 C 0.07981 0.25026 0.22406 0.0
C1219 C 0.09446 0.23436 0.20569 0.0
H1220 H 0.99536 0.87436 0.58586 0.0
H1221 H 0.0796 0.84992 0.59918 0.0
H1222 H 0.00884 0.89054 0.54152 0.0
H1223 H 0.09344 0.86671 0.55463 0.0
H1224 H 0.09664 0.86712 0.46123 0.0
H1225 H 0.08391 0.85285 0.50682 0.0
H1226 H 0.03661 0.92439 0.5176 0.0
H1227 H 0.04869 0.93815 0.47219 0.0
C1228 C 0.01706 0.87322 0.57962 0.0
C1229 C 0.03644 0.86101 0.59615 0.0
C1230 C 0.02479 0.88242 0.55408 0.0
C1231 C 0.05216 0.87963 0.54425 0.0
C1232 C 0.07204 0.86873 0.56136 0.0
C1233 C 0.06429 0.85961 0.58712 0.0
C1234 C 0.08307 0.87945 0.47313 0.0
C1235 C 0.07367 0.90372 0.46288 0.0
C1236 C 0.07614 0.87154 0.49946 0.0
C1237 C 0.05948 0.88764 0.51609 0.0
C1238 C 0.04934 0.91138 0.50543 0.0
C1239 C 0.05631 0.91927 0.47927 0.0
H1240 H 0.45644 0.87768 0.83784 0.0
H1241 H 0.53788 0.87652 0.7996 0.0
H1242 H 0.43671 0.8945 0.79617 0.0
H1243 H 0.51783 0.89259 0.75799 0.0
H1244 H 0.44731 0.86792 0.68721 0.0
H1245 H 0.47952 0.86681 0.72582 0.0
H1246 H 0.44192 0.93614 0.76277 0.0
H1247 H 0.41033 0.93763 0.72371 0.0
C1248 C 0.47021 0.88135 0.82077 0.0
C1249 C 0.49871 0.87562 0.82218 0.0
C1250 C 0.45898 0.89115 0.79696 0.0
C1251 C 0.47585 0.89495 0.77388 0.0
C1252 C 0.50445 0.88997 0.77549 0.0
C1253 C 0.51584 0.88075 0.79941 0.0
C1254 C 0.44734 0.88409 0.70267 0.0
C1255 C 0.42668 0.90312 0.70228 0.0
C1256 C 0.46546 0.88322 0.72502 0.0
C1257 C 0.46275 0.90102 0.74756 0.0
C1258 C 0.44423 0.92199 0.74581 0.0
C1259 C 0.42655 0.92318 0.7232 0.0
H1260 H 0.48704 0.21951 0.09055 0.0
H1261 H 0.43045 0.28419 0.09831 0.0
H1262 H 0.47021 0.20952 0.04434 0.0
H1263 H 0.41317 0.2739 0.05202 0.0
H1264 H 0.47157 0.22658 0.95742 0.0
H1265 H 0.4794 0.24229 0.00427 0.0
H1266 H 0.38967 0.23402 0.01817 0.0
H1267 H 0.38187 0.21802 0.97108 0.0
C1268 C 0.47017 0.23082 0.0827 0.0
C1269 C 0.45977 0.2523 0.09807 0.0
C1270 C 0.46082 0.2254 0.05618 0.0
C1271 C 0.44095 0.24146 0.04444 0.0
C1272 C 0.42862 0.26136 0.06057 0.0
C1273 C 0.43819 0.26693 0.08716 0.0
C1274 C 0.45344 0.22942 0.9701 0.0
C1275 C 0.42614 0.22132 0.96057 0.0
C1276 C 0.45792 0.23792 0.99702 0.0
C1277 C 0.43517 0.23849 0.01497 0.0
C1278 C 0.40756 0.23353 0.00475 0.0
C1279 C 0.40307 0.22487 0.97767 0.0
H1280 H 0.09995 0.79102 0.18761 0.0
H1281 H 0.03212 0.84451 0.18289 0.0
H1282 H 0.1107 0.80832 0.23367 0.0
H1283 H 0.04238 0.86161 0.22896 0.0
H1284 H 0.08704 0.89921 0.30795 0.0
H1285 H 0.07426 0.88661 0.26098 0.0
H1286 H 0.08795 0.80208 0.27636 0.0
H1287 H 0.10134 0.81492 0.32283 0.0
C1288 C 0.08787 0.80702 0.19622 0.0
C1289 C 0.06567 0.81685 0.18153 0.0
C1290 C 0.09366 0.81665 0.22273 0.0
C1291 C 0.07697 0.83594 0.23531 0.0
C1292 C 0.05572 0.84685 0.21998 0.0
C1293 C 0.05002 0.83725 0.19344 0.0
C1294 C 0.0862 0.87781 0.30151 0.0
C1295 C 0.09503 0.85801 0.31905 0.0
C1296 C 0.07925 0.8706 0.27448 0.0
C1297 C 0.08096 0.84345 0.26461 0.0
C1298 C 0.0874 0.82335 0.28295 0.0
C1299 C 0.09452 0.83057 0.30975 0.0
H1300 H 0.52293 0.832 0.46692 0.0
H1301 H 0.43672 0.79738 0.46056 0.0
H1302 H 0.51215 0.85432 0.50999 0.0
H1303 H 0.42575 0.82023 0.503 0.0
H1304 H 0.41188 0.85209 0.58582 0.0
H1305 H 0.4319 0.82235 0.55123 0.0
H1306 H 0.48697 0.89108 0.52589 0.0
H1307 H 0.46733 0.92006 0.56032 0.0
C1308 C 0.50158 0.8295 0.47447 0.0
C1309 C 0.48065 0.81313 0.46009 0.0
C1310 C 0.49542 0.84213 0.49929 0.0
C1311 C 0.4681 0.83892 0.51021 0.0
C1312 C 0.44718 0.82265 0.49568 0.0
C1313 C 0.45339 0.80988 0.47104 0.0
C1314 C 0.42893 0.8604 0.57343 0.0
C1315 C 0.43774 0.88838 0.57535 0.0
C1316 C 0.4402 0.84354 0.5534 0.0
C1317 C 0.46057 0.85448 0.53521 0.0
C1318 C 0.47142 0.8818 0.53937 0.0
C1319 C 0.46014 0.89849 0.55919 0.0
H1320 H 0.45431 0.29719 0.69868 0.0
H1321 H 0.46565 0.21181 0.68059 0.0
H1322 H 0.43608 0.28563 0.74276 0.0
H1323 H 0.44623 0.1999 0.72494 0.0
H1324 H 0.43788 0.19255 0.81747 0.0
H1325 H 0.45826 0.20457 0.77352 0.0
H1326 H 0.39663 0.26433 0.76424 0.0
H1327 H 0.37721 0.25309 0.80794 0.0
C1328 C 0.45224 0.27577 0.70387 0.0
C1329 C 0.46129 0.2554 0.68598 0.0
C1330 C 0.44177 0.26911 0.72929 0.0
C1331 C 0.4398 0.24182 0.73762 0.0
C1332 C 0.44789 0.2212 0.71937 0.0
C1333 C 0.4585 0.22793 0.69375 0.0
C1334 C 0.42933 0.20881 0.80633 0.0
C1335 C 0.40602 0.22195 0.81628 0.0
C1336 C 0.44062 0.21534 0.78092 0.0
C1337 C 0.42892 0.23524 0.76511 0.0
C1338 C 0.40642 0.24909 0.77578 0.0
C1339 C 0.39523 0.24262 0.80096 0.0
H1340 H 0.0566 0.18917 0.95055 0.0
H1341 H 0.08614 0.2747 0.95919 0.0
H1342 H 0.0813 0.17988 0.99246 0.0
H1343 H 0.10996 0.26545 0.00161 0.0
H1344 H 0.13569 0.16636 0.06191 0.0
H1345 H 0.13446 0.18548 0.01685 0.0
H1346 H 0.07998 0.24618 0.04637 0.0
H1347 H 0.08029 0.22628 0.09106 0.0
C1348 C 0.06894 0.20581 0.96102 0.0
C1349 C 0.06947 0.23261 0.95154 0.0
C1350 C 0.08318 0.2005 0.98492 0.0
C1351 C 0.09762 0.22198 0.00014 0.0
C1352 C 0.0992 0.24855 0.9901 0.0
C1353 C 0.08562 0.25375 0.9658 0.0
C1354 C 0.12502 0.18493 0.0592 0.0
C1355 C 0.10819 0.19498 0.07993 0.0
C1356 C 0.12398 0.19559 0.03331 0.0
C1357 C 0.10679 0.21699 0.02813 0.0
C1358 C 0.09347 0.22972 0.04989 0.0
C1359 C 0.09393 0.21858 0.07559 0.0
H1360 H 0.31533 0.02738 0.18931 0.0
H1361 H 0.34169 0.11371 0.18878 0.0
H1362 H 0.26942 0.03676 0.17029 0.0
H1363 H 0.29634 0.12298 0.16911 0.0
H1364 H 0.21578 0.13934 0.13747 0.0
H1365 H 0.25798 0.11425 0.13103 0.0
H1366 H 0.23422 0.06447 0.19891 0.0
H1367 H 0.19261 0.09006 0.20563 0.0
C1368 C 0.31185 0.04815 0.18383 0.0
C1369 C 0.33203 0.06986 0.19053 0.0
C1370 C 0.28552 0.05351 0.17309 0.0
C1371 C 0.27926 0.08057 0.16825 0.0
C1372 C 0.30062 0.10186 0.1723 0.0
C1373 C 0.3266 0.0966 0.18364 0.0
C1374 C 0.21864 0.12183 0.14984 0.0
C1375 C 0.20094 0.11648 0.17197 0.0
C1376 C 0.24298 0.10769 0.14636 0.0
C1377 C 0.24963 0.08773 0.16474 0.0
C1378 C 0.22962 0.07964 0.18432 0.0
C1379 C 0.20561 0.09415 0.18809 0.0
H1380 H 0.25637 0.09718 0.49484 0.0
H1381 H 0.17374 0.08934 0.53044 0.0
H1382 H 0.2473 0.05261 0.47165 0.0
H1383 H 0.16422 0.04475 0.50693 0.0
H1384 H 0.1564 0.95983 0.47499 0.0
H1385 H 0.1775 0.99724 0.5042 0.0
H1386 H 0.21766 0.03407 0.43468 0.0
H1387 H 0.19628 0.99695 0.40577 0.0
C1388 C 0.23606 0.08597 0.49732 0.0
C1389 C 0.21529 0.09694 0.51354 0.0
C1390 C 0.23097 0.06038 0.48427 0.0
C1391 C 0.20509 0.04506 0.48747 0.0
C1392 C 0.18457 0.05582 0.50437 0.0
C1393 C 0.18977 0.08144 0.51752 0.0
C1394 C 0.17098 0.9752 0.46632 0.0
C1395 C 0.17503 0.97553 0.43829 0.0
C1396 C 0.18256 0.99691 0.48289 0.0
C1397 C 0.19851 0.01907 0.4716 0.0
C1398 C 0.20527 0.01752 0.44401 0.0
C1399 C 0.19337 0.99606 0.42744 0.0
H1400 H 0.16992 0.96229 0.73906 0.0
H1401 H 0.17375 0.02171 0.67631 0.0
H1402 H 0.21524 0.94697 0.72485 0.0
H1403 H 0.21985 0.00742 0.66277 0.0
H1404 H 0.29816 0.96069 0.63765 0.0
H1405 H 0.25053 0.97485 0.64502 0.0
H1406 H 0.2618 0.96658 0.73107 0.0
H1407 H 0.30894 0.95176 0.72338 0.0
C1408 C 0.18007 0.97143 0.72162 0.0
C1409 C 0.16826 0.99308 0.70875 0.0
C1410 C 0.20638 0.96313 0.71383 0.0
C1411 C 0.22181 0.97669 0.69332 0.0
C1412 C 0.20873 0.9966 0.67874 0.0
C1413 C 0.1821 0.0046 0.68629 0.0
C1414 C 0.29079 0.96298 0.65817 0.0
C1415 C 0.30737 0.95551 0.67997 0.0
C1416 C 0.2633 0.9707 0.6624 0.0
C1417 C 0.25189 0.97111 0.68858 0.0
C1418 C 0.2694 0.96553 0.71051 0.0
C1419 C 0.29666 0.95755 0.70623 0.0
H1420 H 0.32881 0.97024 0.98771 0.0
H1421 H 0.24734 0.997 0.96606 0.0
H1422 H 0.3506 0.01553 0.97829 0.0
H1423 H 0.26867 0.04273 0.9582 0.0
H1424 H 0.32265 0.11247 0.91754 0.0
H1425 H 0.29634 0.06992 0.9298 0.0
H1426 H 0.35652 0.06049 0.99423 0.0
H1427 H 0.38374 0.10156 0.98021 0.0
C1428 C 0.31557 0.98587 0.98107 0.0
C1429 C 0.28645 0.97997 0.97742 0.0
C1430 C 0.32795 0.01203 0.97599 0.0
C1431 C 0.3114 0.03315 0.96777 0.0
C1432 C 0.28223 0.02708 0.96411 0.0
C1433 C 0.26996 0.00078 0.96864 0.0
C1434 C 0.32991 0.10134 0.93444 0.0
C1435 C 0.35559 0.10973 0.94728 0.0
C1436 C 0.31482 0.07697 0.94166 0.0
C1437 C 0.3248 0.06105 0.96249 0.0
C1438 C 0.34884 0.07139 0.97729 0.0
C1439 C 0.36422 0.09524 0.96957 0.0
H1440 H 0.31505 0.04013 0.31719 0.0
H1441 H 0.31264 0.98294 0.24885 0.0
H1442 H 0.27231 0.01616 0.33494 0.0
H1443 H 0.26956 0.95997 0.2657 0.0
H1444 H 0.22235 0.90213 0.32178 0.0
H1445 H 0.2594 0.93038 0.30123 0.0
H1446 H 0.2216 0.00333 0.33018 0.0
H1447 H 0.1843 0.97437 0.35207 0.0
C1448 C 0.30526 0.02259 0.30587 0.0
C1449 C 0.31759 0.01298 0.28198 0.0
C1450 C 0.28061 0.00905 0.31588 0.0
C1451 C 0.26763 0.98589 0.30195 0.0
C1452 C 0.27936 0.97724 0.27739 0.0
C1453 C 0.30413 0.99039 0.26771 0.0
C1454 C 0.22165 0.9242 0.3237 0.0
C1455 C 0.2004 0.93599 0.33872 0.0
C1456 C 0.24288 0.94049 0.31161 0.0
C1457 C 0.24353 0.96921 0.31385 0.0
C1458 C 0.22182 0.98124 0.32822 0.0
C1459 C 0.20031 0.96472 0.34049 0.0
H1460 H 0.33522 0.12218 0.57745 0.0
H1461 H 0.25655 0.10803 0.6195 0.0
H1462 H 0.35059 0.07886 0.59363 0.0
H1463 H 0.27143 0.06388 0.63458 0.0
H1464 H 0.31058 0.98196 0.57672 0.0
H1465 H 0.28877 0.02498 0.58597 0.0
H1466 H 0.3512 0.04696 0.64792 0.0
H1467 H 0.37219 0.00325 0.63956 0.0
C1468 C 0.32183 0.11043 0.59122 0.0
C1469 C 0.29496 0.11864 0.59764 0.0
C1470 C 0.33051 0.0856 0.60035 0.0
C1471 C 0.31216 0.0682 0.61537 0.0
C1472 C 0.28604 0.07718 0.62335 0.0
C1473 C 0.27769 0.1025 0.61491 0.0
C1474 C 0.31835 0.99506 0.59361 0.0
C1475 C 0.34269 0.9891 0.60776 0.0
C1476 C 0.30604 0.01977 0.59877 0.0
C1477 C 0.31843 0.03919 0.6176 0.0
C1478 C 0.34111 0.03212 0.63357 0.0
C1479 C 0.35292 0.00702 0.62893 0.0
H1480 H 0.1926 0.04434 0.80332 0.0
H1481 H 0.20876 0.11465 0.75376 0.0
H1482 H 0.24052 0.05067 0.82168 0.0
H1483 H 0.25638 0.12193 0.77271 0.0
H1484 H 0.3428 0.129 0.79857 0.0
H1485 H 0.30217 0.10581 0.77486 0.0
H1486 H 0.2675 0.08044 0.85146 0.0
H1487 H 0.30846 0.10249 0.87447 0.0
C1488 C 0.20635 0.06154 0.79685 0.0
C1489 C 0.19689 0.07966 0.77792 0.0
C1490 C 0.23387 0.06504 0.80714 0.0
C1491 C 0.25253 0.0867 0.7986 0.0
C1492 C 0.24293 0.10461 0.77934 0.0
C1493 C 0.21552 0.10086 0.76883 0.0
C1494 C 0.32744 0.11675 0.81004 0.0
C1495 C 0.32878 0.11748 0.83837 0.0
C1496 C 0.30372 0.10413 0.79657 0.0
C1497 C 0.28095 0.09225 0.81133 0.0
C1498 C 0.28443 0.08946 0.83932 0.0
C1499 C 0.30826 0.10182 0.85264 0.0
H1500 H 0.23865 0.97019 0.07518 0.0
H1501 H 0.16271 0.95692 0.02655 0.0
H1502 H 0.21921 0.00964 0.09787 0.0
H1503 H 0.14386 0.99644 0.04844 0.0
H1504 H 0.10642 0.05641 0.10376 0.0
H1505 H 0.126 0.01406 0.08951 0.0
H1506 H 0.20902 0.05635 0.08633 0.0
H1507 H 0.1893 0.09904 0.1014 0.0
C1508 C 0.21763 0.97533 0.06968 0.0
C1509 C 0.20227 0.96042 0.04898 0.0
C1510 C 0.20668 -0.00184 0.08243 0.0
C1511 C 0.18008 0.00637 0.07484 0.0
C1512 C 0.16427 0.9906 0.05505 0.0
C1513 C 0.17516 0.96792 0.04237 0.0
C1514 C 0.12887 0.05682 0.09997 0.0
C1515 C 0.14626 0.08126 0.10333 0.0
C1516 C 0.14011 0.03244 0.09181 0.0
C1517 C 0.16902 0.03181 0.08644 0.0
C1518 C 0.18667 0.05606 0.09051 0.0
C1519 C 0.17538 0.08056 0.09897 0.0
H1520 H 0.27367 0.36081 0.11538 0.0
H1521 H 0.21999 0.35156 0.04447 0.0
H1522 H 0.25383 0.31675 0.13092 0.0
H1523 H 0.20134 0.3069 0.05903 0.0
H1524 H 0.23741 0.22694 0.14108 0.0
H1525 H 0.25562 0.27022 0.12265 0.0
H1526 H 0.1734 0.28072 0.08804 0.0
H1527 H 0.15594 0.23641 0.10522 0.0
C1528 C 0.25751 0.34943 0.10319 0.0
C1529 C 0.24837 0.35982 0.07877 0.0
C1530 C 0.24637 0.32389 0.11186 0.0
C1531 C 0.22625 0.30774 0.09602 0.0
C1532 C 0.21652 0.31864 0.072 0.0
C1533 C 0.22725 0.3444 0.06362 0.0
C1534 C 0.22351 0.23824 0.12891 0.0
C1535 C 0.19534 0.22831 0.12446 0.0
C1536 C 0.23376 0.26335 0.11873 0.0
C1537 C 0.21588 0.27961 0.10441 0.0
C1538 C 0.18797 0.2689 0.09882 0.0
C1539 C 0.17789 0.24339 0.10855 0.0
H1540 H 0.64534 0.2112 0.00307 0.0
H1541 H 0.68429 0.21375 0.92462 0.0
H1542 H 0.62436 0.25454 0.99456 0.0
H1543 H 0.66214 0.25617 0.91562 0.0
H1544 H 0.67562 0.34772 0.96099 0.0
H1545 H 0.6686 0.30229 0.9801 0.0
H1546 H 0.60373 0.27973 0.92062 0.0
H1547 H 0.60975 0.32568 0.90243 0.0
C1548 C 0.64805 0.22017 0.98342 0.0
C1549 C 0.66622 0.20905 0.96434 0.0
C1550 C 0.63619 0.24501 0.97869 0.0
C1551 C 0.64153 0.25844 0.95442 0.0
C1552 C 0.65741 0.2459 0.93434 0.0
C1553 C 0.67 0.22162 0.93941 0.0
C1554 C 0.65821 0.3339 0.95353 0.0
C1555 C 0.64323 0.34017 0.93029 0.0
C1556 C 0.65441 0.30775 0.96424 0.0
C1557 C 0.63591 0.28753 0.95152 0.0
C1558 C 0.618 0.29506 0.93083 0.0
C1559 C 0.62125 0.3215 0.92065 0.0
H1560 H 0.09508 0.53257 0.18389 0.0
H1561 H 0.07902 0.48793 0.25669 0.0
H1562 H 0.04884 0.51517 0.16597 0.0
H1563 H 0.03288 0.4703 0.23887 0.0
H1564 H 0.96172 0.42797 0.18063 0.0
H1565 H 0.00761 0.44114 0.20196 0.0
H1566 H 0.00035 0.52496 0.17931 0.0
H1567 H 0.95467 0.51178 0.15827 0.0
C1568 C 0.08188 0.51848 0.1957 0.0
C1569 C 0.09079 0.51095 0.22125 0.0
C1570 C 0.05536 0.50874 0.18566 0.0
C1571 C 0.0371 0.49165 0.20121 0.0
C1572 C 0.04652 0.48329 0.22638 0.0
C1573 C 0.073 0.49316 0.23645 0.0
C1574 C 0.9694 0.44937 0.18133 0.0
C1575 C 0.95452 0.46894 0.16816 0.0
C1576 C 0.99586 0.45684 0.19313 0.0
C1577 C 0.00784 0.48395 0.19168 0.0
C1578 C 0.992 0.50377 0.18009 0.0
C1579 C 0.96569 0.49633 0.1684 0.0
H1580 H 0.85634 0.85298 0.52317 0.0
H1581 H 0.78214 0.8487 0.4718 0.0
H1582 H 0.86975 0.80954 0.5029 0.0
H1583 H 0.79554 0.80557 0.45182 0.0
H1584 H 0.80661 0.71914 0.43659 0.0
H1585 H 0.79876 0.75737 0.46773 0.0
H1586 H 0.88458 0.79012 0.45638 0.0
H1587 H 0.89234 0.75157 0.4252 0.0
C1588 C 0.84298 0.84293 0.50746 0.0
C1589 C 0.8181 0.85442 0.49915 0.0
C1590 C 0.85068 0.81802 0.49593 0.0
C1591 C 0.83342 0.80384 0.47618 0.0
C1592 C 0.80896 0.81566 0.46746 0.0
C1593 C 0.80146 0.84063 0.47869 0.0
C1594 C 0.82427 0.73363 0.44199 0.0
C1595 C 0.85016 0.73223 0.42878 0.0
C1596 C 0.81963 0.75584 0.4594 0.0
C1597 C 0.8408 0.77717 0.46385 0.0
C1598 C 0.86782 0.77407 0.45324 0.0
C1599 C 0.87241 0.75178 0.43568 0.0
H1600 H 0.95056 0.02081 0.20736 0.0
H1601 H 0.94173 0.07801 0.27458 0.0
H1602 H 0.99541 0.04459 0.19616 0.0
H1603 H 0.98702 0.1019 0.26317 0.0
H1604 H 0.04277 0.15419 0.19986 0.0
H1605 H 0.00466 0.13022 0.2246 0.0
H1606 H 0.04477 0.05434 0.21335 0.0
H1607 H 0.08297 0.0786 0.18847 0.0
C1608 C 0.95812 0.03849 0.21978 0.0
C1609 C 0.9423 0.04757 0.24179 0.0
C1610 C 0.98412 0.05189 0.21356 0.0
C1611 C 0.99499 0.07489 0.22901 0.0
C1612 C 0.97922 0.08415 0.25096 0.0
C1613 C 0.95324 0.07052 0.2574 0.0
C1614 C 0.04403 0.13263 0.20381 0.0
C1615 C 0.06573 0.11818 0.19247 0.0
C1616 C 0.02217 0.11887 0.21789 0.0
C1617 C 0.02144 0.0903 0.22048 0.0
C1618 C 0.04461 0.07632 0.21131 0.0
C1619 C 0.06667 0.09021 0.19745 0.0
H1620 H 0.29297 0.73889 0.5117 0.0
H1621 H 0.25792 0.71969 0.58954 0.0
H1622 H 0.31221 0.78353 0.52966 0.0
H1623 H 0.2783 0.76352 0.60819 0.0
H1624 H 0.28824 0.85134 0.62987 0.0
H1625 H 0.26922 0.80957 0.60631 0.0
H1626 H 0.34492 0.80921 0.55821 0.0
H1627 H 0.36268 0.85242 0.58063 0.0
C1628 C 0.29024 0.744 0.53293 0.0
C1629 C 0.27453 0.72588 0.5495 0.0
C1630 C 0.30114 0.76957 0.54322 0.0
C1631 C 0.29639 0.77746 0.57027 0.0
C1632 C 0.28164 0.75859 0.58703 0.0
C1633 C 0.27035 0.73329 0.57659 0.0
C1634 C 0.30024 0.8428 0.61353 0.0
C1635 C 0.32686 0.8549 0.60697 0.0
C1636 C 0.2897 0.81855 0.60042 0.0
C1637 C 0.30597 0.80538 0.58103 0.0
C1638 C 0.3318 0.81866 0.57308 0.0
C1639 C 0.34201 0.84343 0.58581 0.0
H1640 H 0.06994 0.5543 0.32722 0.0
H1641 H 0.10318 0.62814 0.28934 0.0
H1642 H 0.02645 0.57534 0.33702 0.0
H1643 H 0.05897 0.64957 0.29938 0.0
H1644 H 0.98646 0.67566 0.36356 0.0
H1645 H 0.02906 0.66465 0.33951 0.0
H1646 H 0.98599 0.58893 0.30936 0.0
H1647 H 0.9439 0.59966 0.33417 0.0
C1648 C 0.0681 0.57525 0.3213 0.0
C1649 C 0.09002 0.5895 0.30745 0.0
C1650 C 0.04292 0.58718 0.32652 0.0
C1651 C 0.03881 0.61378 0.31807 0.0
C1652 C 0.06136 0.62886 0.30572 0.0
C1653 C 0.08677 0.61674 0.30031 0.0
C1654 C 0.9855 0.65759 0.35025 0.0
C1655 C 0.96203 0.63833 0.35095 0.0
C1656 C 0.01011 0.65107 0.33678 0.0
C1657 C 0.01122 0.62537 0.32353 0.0
C1658 C 0.98601 0.60853 0.32016 0.0
C1659 C 0.96161 0.61496 0.33384 0.0
H1660 H 0.43375 0.4357 0.75802 0.0
H1661 H 0.41743 0.45936 0.84101 0.0
H1662 H 0.47809 0.41816 0.77186 0.0
H1663 H 0.46163 0.441 0.85477 0.0
H1664 H 0.56735 0.45692 0.81534 0.0
H1665 H 0.5213 0.45142 0.79287 0.0
H1666 H 0.49127 0.39539 0.8538 0.0
H1667 H 0.53785 0.40005 0.87554 0.0
C1668 C 0.43907 0.43639 0.77935 0.0
C1669 C 0.42204 0.44927 0.79841 0.0
C1670 C 0.46455 0.4263 0.78718 0.0
C1671 C 0.47323 0.42819 0.81431 0.0
C1672 C 0.45523 0.43901 0.83371 0.0
C1673 C 0.42999 0.44967 0.82582 0.0
C1674 C 0.55157 0.44188 0.82271 0.0
C1675 C 0.55615 0.42872 0.84695 0.0
C1676 C 0.52506 0.43897 0.81009 0.0
C1677 C 0.50263 0.42339 0.82197 0.0
C1678 C 0.5082 0.40762 0.84435 0.0
C1679 C 0.53498 0.40995 0.85652 0.0
H1680 H 0.01158 0.85262 0.72442 0.0
H1681 H 0.92318 0.82577 0.71641 0.0
H1682 H 0.00397 0.86654 0.77192 0.0
H1683 H 0.91582 0.83937 0.76332 0.0
H1684 H 0.91407 0.82431 0.84764 0.0
H1685 H 0.93842 0.81502 0.80562 0.0
H1686 H 0.96937 0.90012 0.80326 0.0
H1687 H 0.94581 0.90906 0.84634 0.0
C1688 C 0.99042 0.85056 0.73248 0.0
C1689 C 0.96797 0.83792 0.71677 0.0
C1690 C 0.98619 0.85824 0.75968 0.0
C1691 C 0.95953 0.85319 0.77137 0.0
C1692 C 0.93676 0.84278 0.75495 0.0
C1693 C 0.94092 0.83525 0.72802 0.0
C1694 C 0.92756 0.84065 0.83912 0.0
C1695 C 0.92744 0.86757 0.84971 0.0
C1696 C 0.94113 0.83545 0.81483 0.0
C1697 C 0.95476 0.8571 0.80076 0.0
C1698 C 0.95862 0.88316 0.81355 0.0
C1699 C 0.94523 0.88826 0.83822 0.0
H1700 H 0.95554 0.32862 0.46531 0.0
H1701 H 0.93875 0.25426 0.41674 0.0
H1702 H 0.94405 0.30346 0.50603 0.0
H1703 H 0.92664 0.22922 0.45746 0.0
H1704 H 0.9551 0.18739 0.53239 0.0
H1705 H 0.95768 0.21541 0.49292 0.0
H1706 H 0.91098 0.27613 0.53447 0.0
H1707 H 0.90898 0.24793 0.5746 0.0
C1708 C 0.94844 0.30708 0.46318 0.0
C1709 C 0.94847 0.29338 0.43772 0.0
C1710 C 0.94188 0.29264 0.48663 0.0
C1711 C 0.93519 0.26415 0.48514 0.0
C1712 C 0.93251 0.25103 0.45941 0.0
C1713 C 0.93907 0.26546 0.43597 0.0
C1714 C 0.94547 0.20677 0.5334 0.0
C1715 C 0.9314 0.21518 0.55684 0.0
C1716 C 0.94665 0.22274 0.51047 0.0
C1717 C 0.93385 0.24771 0.51013 0.0
C1718 C 0.92087 0.25687 0.5339 0.0
C1719 C 0.9197 0.24076 0.55698 0.0
H1720 H 0.49382 0.20818 0.218 0.0
H1721 H 0.55493 0.27718 0.2088 0.0
H1722 H 0.52172 0.19258 0.25566 0.0
H1723 H 0.58169 0.26257 0.2467 0.0
H1724 H 0.64197 0.2141 0.28996 0.0
H1725 H 0.61127 0.22802 0.25532 0.0
H1726 H 0.53852 0.20197 0.30257 0.0
H1727 H 0.57004 0.18648 0.33777 0.0
C1728 C 0.51323 0.21992 0.22389 0.0
C1729 C 0.52249 0.24358 0.2099 0.0
C1730 C 0.529 0.21119 0.24571 0.0
C1731 C 0.55415 0.22614 0.25415 0.0
C1732 C 0.5629 0.25005 0.2404 0.0
C1733 C 0.54753 0.25844 0.21849 0.0
C1734 C 0.61948 0.21135 0.29344 0.0
C1735 C 0.60863 0.19914 0.31698 0.0
C1736 C 0.60173 0.21961 0.27337 0.0
C1737 C 0.57233 0.21654 0.27613 0.0
C1738 C 0.56112 0.20457 0.29973 0.0
C1739 C 0.57915 0.19601 0.32005 0.0
H1740 H 0.56141 0.86549 0.94303 0.0
H1741 H 0.56723 0.77796 0.94509 0.0
H1742 H 0.58175 0.87078 0.98831 0.0
H1743 H 0.58597 0.78321 0.99162 0.0
H1744 H 0.55122 0.8468 0.07697 0.0
H1745 H 0.54631 0.82464 0.03202 0.0
H1746 H 0.63559 0.8405 0.01928 0.0
H1747 H 0.64059 0.86229 0.06442 0.0
C1748 C 0.56843 0.84754 0.95257 0.0
C1749 C 0.56383 0.82145 0.94008 0.0
C1750 C 0.57965 0.85052 0.97866 0.0
C1751 C 0.58554 0.82739 0.99314 0.0
C1752 C 0.58195 0.80131 0.98054 0.0
C1753 C 0.57129 0.79837 0.95405 0.0
C1754 C 0.57001 0.84403 0.06522 0.0
C1755 C 0.59634 0.85582 0.07424 0.0
C1756 C 0.56722 0.83144 0.03954 0.0
C1757 C 0.59062 0.8309 0.02245 0.0
C1758 C 0.61741 0.84031 0.03238 0.0
C1759 C 0.62027 0.85252 0.05828 0.0
H1760 H 0.04264 0.21306 0.81954 0.0
H1761 H 0.97149 0.25859 0.8415 0.0
H1762 H 0.02285 0.20524 0.7736 0.0
H1763 H 0.95153 0.25028 0.79653 0.0
H1764 H 0.93953 0.26449 0.70984 0.0
H1765 H 0.96616 0.26878 0.75227 0.0
H1766 H 0.98043 0.18265 0.74641 0.0
H1767 H 0.95341 0.17856 0.70403 0.0
C1768 C 0.0224 0.22063 0.81479 0.0
C1769 C 0.00824 0.2358 0.83431 0.0
C1770 C 0.01117 0.2163 0.78853 0.0
C1771 C 0.98593 0.22766 0.78128 0.0
C1772 C 0.97131 0.24176 0.80125 0.0
C1773 C 0.98243 0.24597 0.82729 0.0
C1774 C 0.94926 0.24673 0.71711 0.0
C1775 C 0.94495 0.22127 0.70329 0.0
C1776 C 0.96418 0.24906 0.74158 0.0
C1777 C 0.97489 0.2259 0.753 0.0
C1778 C 0.97254 0.20088 0.73813 0.0
C1779 C 0.95751 0.19859 0.71357 0.0
H1780 H 0.60397 0.27504 0.55486 0.0
H1781 H 0.52925 0.22065 0.56589 0.0
H1782 H 0.61393 0.24997 0.51279 0.0
H1783 H 0.53918 0.19597 0.52396 0.0
H1784 H 0.54227 0.18074 0.43444 0.0
H1785 H 0.53835 0.21051 0.47452 0.0
H1786 H 0.62522 0.20032 0.49516 0.0
H1787 H 0.62885 0.16992 0.45514 0.0
C1788 C 0.58989 0.25754 0.54858 0.0
C1789 C 0.5657 0.24996 0.56382 0.0
C1790 C 0.59562 0.24324 0.52445 0.0
C1791 C 0.57705 0.22136 0.51484 0.0
C1792 C 0.5536 0.21309 0.53062 0.0
C1793 C 0.54808 0.22708 0.55485 0.0
C1794 C 0.56084 0.18576 0.44696 0.0
C1795 C 0.58609 0.17369 0.44124 0.0
C1796 C 0.5585 0.20245 0.47011 0.0
C1797 C 0.58134 0.20739 0.4882 0.0
C1798 C 0.60729 0.19693 0.48153 0.0
C1799 C 0.60954 0.17992 0.45837 0.0
H1800 H 0.60195 0.82946 0.3573 0.0
H1801 H 0.5207 0.85191 0.32976 0.0
H1802 H 0.62319 0.84585 0.31586 0.0
H1803 H 0.54217 0.86969 0.2886 0.0
H1804 H 0.58206 0.86353 0.20401 0.0
H1805 H 0.56002 0.85312 0.24742 0.0
H1806 H 0.63767 0.88156 0.28874 0.0
H1807 H 0.65979 0.89041 0.2458 0.0
C1808 C 0.58879 0.83888 0.34283 0.0
C1809 C 0.55963 0.8393 0.34685 0.0
C1810 C 0.60098 0.84829 0.31887 0.0
C1811 C 0.5844 0.85884 0.29846 0.0
C1812 C 0.55552 0.86106 0.30343 0.0
C1813 C 0.54327 0.85129 0.32727 0.0
C1814 C 0.59439 0.86729 0.2224 0.0
C1815 C 0.62287 0.87718 0.22129 0.0
C1816 C 0.5817 0.86164 0.24738 0.0
C1817 C 0.59708 0.86624 0.27182 0.0
C1818 C 0.62528 0.87695 0.27052 0.0
C1819 C 0.63801 0.88209 0.24571 0.0
H1820 H 0.96565 0.86329 0.09318 0.0
H1821 H 0.97516 0.79013 0.04437 0.0
H1822 H 0.93719 0.88124 0.05783 0.0
H1823 H 0.94641 0.80817 0.00838 0.0
H1824 H 0.9447 0.8814 0.94442 0.0
H1825 H 0.95693 0.84785 0.97755 0.0
H1826 H 0.89328 0.87624 0.03127 0.0
H1827 H 0.88182 0.91009 -0.00153 0.0
C1828 C 0.96096 0.85075 0.07508 0.0
C1829 C 0.97244 0.82536 0.07147 0.0
C1830 C 0.94448 0.86092 0.05483 0.0
C1831 C 0.93945 0.84611 0.03023 0.0
C1832 C 0.94993 0.82004 0.02708 0.0
C1833 C 0.96614 0.80964 0.04769 0.0
C1834 C 0.93253 0.87948 0.9628 0.0
C1835 C 0.91232 0.89811 0.96901 0.0
C1836 C 0.93951 0.86033 0.98181 0.0
C1837 C 0.92643 0.85977 0.00728 0.0
C1838 C 0.90408 0.8765 0.01206 0.0
C1839 C 0.89733 0.8957 0.99322 0.0
H1840 H 0.67212 0.96215 0.82811 0.0
H1841 H 0.71601 0.04214 0.8221 0.0
H1842 H 0.71276 0.94584 0.85126 0.0
H1843 H 0.75726 0.0256 0.84481 0.0
H1844 H 0.82576 0.95816 0.82432 0.0
H1845 H 0.78745 0.98886 0.82186 0.0
H1846 H 0.74829 0.95064 0.89108 0.0
H1847 H 0.78693 0.92031 0.89368 0.0
C1848 C 0.69006 0.97653 0.83281 0.0
C1849 C 0.69096 0.00338 0.82353 0.0
C1850 C 0.71336 0.96724 0.84607 0.0
C1851 C 0.73824 0.98443 0.84964 0.0
C1852 C 0.73833 0.01197 0.84228 0.0
C1853 C 0.71469 0.02147 0.82954 0.0
C1854 C 0.80965 0.95733 0.83973 0.0
C1855 C 0.80928 0.9373 0.85937 0.0
C1856 C 0.78774 0.97484 0.83838 0.0
C1857 C 0.76485 0.97202 0.85624 0.0
C1858 C 0.76566 0.95322 0.87709 0.0
C1859 C 0.78777 0.93603 0.87866 0.0
H1860 H 0.74971 0.98925 0.58856 0.0
H1861 H 0.82327 0.98259 0.53899 0.0
H1862 H 0.76378 0.03812 0.59773 0.0
H1863 H 0.838 0.03037 0.54893 0.0
H1864 H 0.84987 0.1176 0.54497 0.0
H1865 H 0.82304 0.07389 0.53599 0.0
H1866 H 0.79944 0.07096 0.62007 0.0
H1867 H 0.82488 0.11592 0.62833 0.0
C1868 C 0.76925 -0.00191 0.58026 0.0
C1869 C 0.78589 0.98195 0.56378 0.0
C1870 C 0.77724 0.02603 0.58539 0.0
C1871 C 0.80172 0.03838 0.57363 0.0
C1872 C 0.81862 0.02185 0.55777 0.0
C1873 C 0.8106 0.99418 0.55263 0.0
C1874 C 0.83756 0.10839 0.56115 0.0
C1875 C 0.83977 0.11988 0.58746 0.0
C1876 C 0.82275 0.08298 0.55621 0.0
C1877 C 0.81026 0.06825 0.5776 0.0
C1878 C 0.8092 0.08149 0.60319 0.0
C1879 C 0.82364 0.10732 0.60796 0.0
H1880 H 0.79781 0.00108 0.34904 0.0
H1881 H 0.85134 0.07614 0.35827 0.0
H1882 H 0.75719 0.02542 0.36319 0.0
H1883 H 0.81082 0.10051 0.37193 0.0
H1884 H 0.73604 0.14303 0.39323 0.0
H1885 H 0.7716 0.11028 0.40007 0.0
H1886 H 0.73249 0.05752 0.33666 0.0
H1887 H 0.6966 0.09021 0.33043 0.0
C1888 C 0.80115 0.02256 0.35508 0.0
C1889 C 0.82777 0.03678 0.35203 0.0
C1890 C 0.77775 0.03657 0.36288 0.0
C1891 C 0.78051 0.06508 0.36792 0.0
C1892 C 0.80779 0.07856 0.36818 0.0
C1893 C 0.8312 0.06453 0.3604 0.0
C1894 C 0.73447 0.12384 0.38158 0.0
C1895 C 0.71336 0.11876 0.36169 0.0
C1896 C 0.75499 0.10524 0.38527 0.0
C1897 C 0.75518 0.08138 0.36874 0.0
C1898 C 0.73284 0.07547 0.35003 0.0
C1899 C 0.71219 0.09412 0.34642 0.0
H1900 H 0.68757 0.11975 0.06606 0.0
H1901 H 0.76436 0.0828 0.04425 0.0
H1902 H 0.6665 0.07518 0.07877 0.0
H1903 H 0.74292 0.0379 0.05657 0.0
H1904 H 0.62263 0.99338 0.06088 0.0
H1905 H 0.65016 0.0353 0.05018 0.0
H1906 H 0.7219 0.00787 0.09285 0.0
H1907 H 0.69424 0.96504 0.10311 0.0
C1908 C 0.70015 0.10219 0.06443 0.0
C1909 C 0.72754 0.10484 0.05391 0.0
C1910 C 0.68797 0.07657 0.07145 0.0
C1911 C 0.70277 0.05287 0.06793 0.0
C1912 C 0.73094 0.05574 0.05939 0.0
C1913 C 0.74325 0.08152 0.05246 0.0
C1914 C 0.64441 0.99595 0.06768 0.0
C1915 C 0.65601 0.97613 0.0835 0.0
C1916 C 0.66012 0.02019 0.06178 0.0
C1917 C 0.68787 0.02538 0.07155 0.0
C1918 C 0.70041 0.00462 0.08536 0.0
C1919 C 0.6846 0.9801 0.09121 0.0
H1920 H 0.72544 0.07498 0.7731 0.0
H1921 H 0.71693 0.04246 0.69125 0.0
H1922 H 0.77137 0.09707 0.76268 0.0
H1923 H 0.76239 0.06641 0.67994 0.0
H1924 H 0.85011 0.10765 0.66791 0.0
H1925 H 0.81327 0.07409 0.68395 0.0
H1926 H 0.785 0.13591 0.73972 0.0
H1927 H 0.82127 0.16834 0.72434 0.0
C1928 C 0.73333 0.07295 0.75269 0.0
C1929 C 0.71736 0.05775 0.73275 0.0
C1930 C 0.7597 0.08558 0.74667 0.0
C1931 C 0.77045 0.08417 0.72026 0.0
C1932 C 0.75493 0.06788 0.70052 0.0
C1933 C 0.72874 0.05449 0.70684 0.0
C1934 C 0.83627 0.1137 0.68395 0.0
C1935 C 0.83796 0.14091 0.69415 0.0
C1936 C 0.81506 0.09458 0.69303 0.0
C1937 C 0.79575 0.1023 0.7129 0.0
C1938 C 0.7994 0.12886 0.72462 0.0
C1939 C 0.82024 0.14772 0.71555 0.0
H1940 H 0.77386 0.98813 0.46222 0.0
H1941 H 0.6974 0.93448 0.45873 0.0
H1942 H 0.74854 0.02503 0.44459 0.0
H1943 H 0.67216 0.97116 0.43981 0.0
H1944 H 0.69705 0.08517 0.40165 0.0
H1945 H 0.72408 0.04609 0.41086 0.0
H1946 H 0.65486 0.01155 0.45827 0.0
H1947 H 0.62766 0.04996 0.44768 0.0
C1948 C 0.75181 0.98389 0.45679 0.0
C1949 C 0.73754 0.95845 0.46231 0.0
C1950 C 0.73722 0.00517 0.44663 0.0
C1951 C 0.70803 0.00142 0.44144 0.0
C1952 C 0.69441 0.97511 0.44446 0.0
C1953 C 0.70898 0.95388 0.45489 0.0
C1954 C 0.68777 0.06931 0.41401 0.0
C1955 C 0.66021 0.07076 0.42358 0.0
C1956 C 0.70322 0.0468 0.41939 0.0
C1957 C 0.69157 0.02526 0.43499 0.0
C1958 C 0.6643 0.02721 0.44545 0.0
C1959 C 0.64879 0.04954 0.43969 0.0
H1960 H 0.81625 0.05955 0.22323 0.0
H1961 H 0.79929 0.98278 0.26285 0.0
H1962 H 0.76853 0.05467 0.20292 0.0
H1963 H 0.75214 0.97801 0.24322 0.0
H1964 H 0.6686 0.97127 0.21826 0.0
H1965 H 0.70497 2e-05 0.24299 0.0
H1966 H 0.74717 0.01818 0.16797 0.0
H1967 H 0.71119 0.98936 0.14362 0.0
C1968 C 0.80225 0.04174 0.22755 0.0
C1969 C 0.8115 0.02103 0.2437 0.0
C1970 C 0.77501 0.03911 0.21627 0.0
C1971 C 0.75647 0.01626 0.22194 0.0
C1972 C 0.76563 0.9962 0.23901 0.0
C1973 C 0.79282 -0.00141 0.24976 0.0
C1974 C 0.68449 0.98303 0.20694 0.0
C1975 C 0.68723 0.97806 0.17908 0.0
C1976 C 0.70553 -0.00081 0.2211 0.0
C1977 C 0.72926 0.0106 0.2074 0.0
C1978 C 0.72918 0.00961 0.17906 0.0
C1979 C 0.70834 0.99324 0.165 0.0
H1980 H 0.79032 0.12168 0.92891 0.0
H1981 H 0.72261 0.08271 0.97485 0.0
H1982 H 0.80489 0.07674 0.91443 0.0
H1983 H 0.73768 0.03759 0.96099 0.0
H1984 H 0.82418 0.99202 0.88885 0.0
H1985 H 0.79199 0.02887 0.89098 0.0
H1986 H 0.78608 0.02066 0.9774 0.0
H1987 H 0.8184 0.9839 0.9751 0.0
C1988 C 0.77776 0.10346 0.93482 0.0
C1989 C 0.75519 0.10562 0.95272 0.0
C1990 C 0.78615 0.07772 0.92665 0.0
C1991 C 0.77255 0.05369 0.9368 0.0
C1992 C 0.74851 0.0558 0.9529 0.0
C1993 C 0.73969 0.08159 0.96055 0.0
C1994 C 0.81497 -0.00266 0.90807 0.0
C1995 C 0.82318 0.98483 0.93173 0.0
C1996 C 0.79681 0.01856 0.90933 0.0
C1997 C 0.78644 0.02754 0.93432 0.0
C1998 C 0.79336 0.01385 0.9578 0.0
C1999 C 0.81189 0.99291 0.95656 0.0
H2000 H 0.78563 0.74462 0.04108 0.0
H2001 H 0.79965 0.70688 0.96284 0.0
H2002 H 0.80531 0.78901 0.02453 0.0
H2003 H 0.81918 0.75079 0.9466 0.0
H2004 H 0.7895 0.8336 0.92017 0.0
H2005 H 0.7791 0.79427 0.94851 0.0
H2006 H 0.85821 0.81196 0.99095 0.0
H2007 H 0.86892 0.85151 0.96211 0.0
C2008 C 0.79411 0.74553 0.02083 0.0
C2009 C 0.79105 0.72239 0.00317 0.0
C2010 C 0.80519 0.7709 0.01137 0.0
C2011 C 0.81343 0.77316 0.98428 0.0
C2012 C 0.81286 0.74947 0.96755 0.0
C2013 C 0.80176 0.72436 0.97687 0.0
C2014 C 0.80437 0.8296 0.936 0.0
C2015 C 0.83002 0.84563 0.93897 0.0
C2016 C 0.79842 0.80711 0.95217 0.0
C2017 C 0.81797 0.80011 0.97167 0.0
C2018 C 0.84278 0.81715 0.97612 0.0
C2019 C 0.84877 0.83985 0.9598 0.0
H2020 H 0.33314 0.84756 0.00367 0.0
H2021 H 0.32922 0.88349 0.08427 0.0
H2022 H 0.352 0.80693 0.02202 0.0
H2023 H 0.34844 0.84288 0.10249 0.0
H2024 H 0.38469 0.76618 0.12941 0.0
H2025 H 0.3876 0.80843 0.10369 0.0
H2026 H 0.32066 0.77365 0.05096 0.0
H2027 H 0.31754 0.73183 0.07701 0.0
C2028 C 0.33729 0.84729 0.0252 0.0
C2029 C 0.32909 0.86855 0.0426 0.0
C2030 C 0.34801 0.82392 0.03567 0.0
C2031 C 0.35116 0.82154 0.06368 0.0
C2032 C 0.34624 0.84417 0.08078 0.0
C2033 C 0.33522 0.86748 0.07033 0.0
C2034 C 0.37147 0.76728 0.11162 0.0
C2035 C 0.35128 0.74572 0.10472 0.0
C2036 C 0.37297 0.79146 0.09709 0.0
C2037 C 0.35438 0.79433 0.07536 0.0
C2038 C 0.33554 0.7719 0.06737 0.0
C2039 C 0.33375 0.74794 0.08219 0.0
H2040 H 0.96766 0.5944 0.71947 0.0
H2041 H 0.9405 0.56029 0.79521 0.0
H2042 H 0.01526 0.60555 0.73896 0.0
H2043 H 0.98686 0.57189 0.81457 0.0
H2044 H 0.07242 0.56107 0.83587 0.0
H2045 H 0.03318 0.55143 0.80424 0.0
H2046 H 0.0414 0.63545 0.77928 0.0
H2047 H 0.08166 0.6447 0.81041 0.0
C2048 C 0.97165 0.59002 0.74041 0.0
C2049 C 0.95019 0.57719 0.75607 0.0
C2050 C -0.0012 0.59624 0.75147 0.0
C2051 C 0.00487 0.58903 0.77808 0.0
C2052 C 0.98302 0.57718 0.79383 0.0
C2053 C 0.9562 0.57109 0.78291 0.0
C2054 C 0.06688 0.57703 0.82252 0.0
C2055 C 0.07993 0.60361 0.82555 0.0
C2056 C 0.04415 0.57168 0.80471 0.0
C2057 C 0.03371 0.59294 0.78998 0.0
C2058 C 0.04892 0.61873 0.7905 0.0
C2059 C 0.07206 0.62398 0.80817 0.0
H2060 H 0.18759 0.23851 0.51054 0.0
H2061 H 0.18797 0.20814 0.59168 0.0
H2062 H 0.17281 0.28229 0.52805 0.0
H2063 H 0.17284 0.25192 0.60898 0.0
H2064 H 0.13768 0.3314 0.63337 0.0
H2065 H 0.13451 0.2874 0.60787 0.0
H2066 H 0.20398 0.31693 0.5582 0.0
H2067 H 0.20744 0.36044 0.5841 0.0
C2068 C 0.18374 0.2408 0.53201 0.0
C2069 C 0.18936 0.21982 0.54975 0.0
C2070 C 0.17534 0.26597 0.54199 0.0
C2071 C 0.17186 0.27057 0.56985 0.0
C2072 C 0.17516 0.24889 0.58736 0.0
C2073 C 0.18399 0.22384 0.57745 0.0
C2074 C 0.15142 0.32877 0.61624 0.0
C2075 C 0.1725 0.3493 0.61028 0.0
C2076 C 0.1498 0.30358 0.60186 0.0
C2077 C 0.16906 0.29872 0.58113 0.0
C2078 C 0.18864 0.32018 0.57385 0.0
C2079 C 0.19062 0.3451 0.58858 0.0
H2080 H 0.06204 0.98189 0.78566 0.0
H2081 H 0.03732 0.06497 0.79066 0.0
H2082 H 0.01585 0.96549 0.80384 0.0
H2083 H 0.99144 0.04881 0.808 0.0
H2084 H 0.94806 0.01554 0.8853 0.0
H2085 H 0.98425 0.03104 0.85396 0.0
H2086 H 0.96046 0.962 0.80002 0.0
H2087 H 0.92302 0.94672 0.83151 0.0
C2088 C 0.04642 0.99645 0.78985 0.0
C2089 C 0.05326 0.02467 0.78729 0.0
C2090 C 0.02 0.98713 0.80012 0.0
C2091 C 0.00021 0.00596 0.80773 0.0
C2092 C 0.00639 0.03387 0.80279 0.0
C2093 C 0.03265 0.04311 0.79288 0.0
C2094 C 0.95 0.00388 0.86653 0.0
C2095 C 0.93308 0.97949 0.86125 0.0
C2096 C 0.97078 0.01284 0.84846 0.0
C2097 C 0.97545 -0.00241 0.82461 0.0
C2098 C 0.95755 0.97397 0.81842 0.0
C2099 C 0.93613 0.96528 0.8364 0.0
H2100 H 0.68791 0.33791 0.52203 0.0
H2101 H 0.74676 0.34695 0.45635 0.0
H2102 H 0.6714 0.29194 0.50386 0.0
H2103 H 0.73036 0.30174 0.43819 0.0
H2104 H 0.72382 0.21206 0.42951 0.0
H2105 H 0.73529 0.25415 0.45634 0.0
H2106 H 0.64693 0.26905 0.45927 0.0
H2107 H 0.63554 0.22671 0.43223 0.0
C2108 C 0.69686 0.33021 0.50348 0.0
C2109 C 0.71798 0.34607 0.49008 0.0
C2110 C 0.68752 0.30405 0.49317 0.0
C2111 C 0.69991 0.29323 0.46988 0.0
C2112 C 0.72076 0.3094 0.45643 0.0
C2113 C 0.72982 0.33543 0.46654 0.0
C2114 C 0.70681 0.2238 0.43681 0.0
C2115 C 0.67882 0.21607 0.42926 0.0
C2116 C 0.71334 0.24796 0.4519 0.0
C2117 C 0.69201 0.26502 0.45942 0.0
C2118 C 0.66371 0.25617 0.4538 0.0
C2119 C 0.65717 0.23185 0.43862 0.0
H2120 H 0.91929 0.44927 0.69748 0.0
H2121 H 0.95896 0.47893 0.77263 0.0
H2122 H 0.96187 0.42705 0.68531 0.0
H2123 H 0.00161 0.45699 0.76022 0.0
H2124 H 0.03877 0.39173 0.66287 0.0
H2125 H -0.00026 0.39395 0.69462 0.0
H2126 H 0.03331 0.47454 0.72213 0.0
H2127 H 0.07187 0.47231 0.69009 0.0
C2128 C 0.93664 0.45018 0.71186 0.0
C2129 C 0.93588 0.4663 0.73576 0.0
C2130 C 0.96108 0.43736 0.70494 0.0
C2131 C 0.98525 0.4406 0.72169 0.0
C2132 C 0.98342 0.45434 0.74684 0.0
C2133 C 0.9589 0.46687 0.75391 0.0
C2134 C 0.03871 0.40914 0.67695 0.0
C2135 C 0.0583 0.43182 0.67423 0.0
C2136 C 0.01616 0.41056 0.69485 0.0
C2137 C 0.01315 0.43462 0.71045 0.0
C2138 C 0.03507 0.45566 0.71045 0.0
C2139 C 0.05737 0.45435 0.69226 0.0
H2140 H 0.5808 0.64411 0.25739 0.0
H2141 H 0.57049 0.57337 0.20272 0.0
H2142 H 0.54058 0.66348 0.23576 0.0
H2143 H 0.53047 0.59266 0.18145 0.0
H2144 H 0.44613 0.618 0.16223 0.0
H2145 H 0.48047 0.60329 0.19482 0.0
H2146 H 0.52919 0.68091 0.1885 0.0
H2147 H 0.49498 0.69529 0.1557 0.0
C2148 C 0.57016 0.6328 0.24065 0.0
C2149 C 0.57901 0.6072 0.23173 0.0
C2150 C 0.54706 0.64384 0.22841 0.0
C2151 C 0.53204 0.6293 0.20733 0.0
C2152 C 0.54123 0.60403 0.19809 0.0
C2153 C 0.56449 0.59319 0.21002 0.0
C2154 C 0.46335 0.63241 0.16899 0.0
C2155 C 0.46775 0.65791 0.15692 0.0
C2156 C 0.48325 0.62386 0.18725 0.0
C2157 C 0.50778 0.64077 0.19375 0.0
C2158 C 0.51051 0.66746 0.18391 0.0
C2159 C 0.4908 0.67582 0.16535 0.0
H2160 H 0.58576 0.76558 0.83821 0.0
H2161 H 0.50397 0.78081 0.80598 0.0
H2162 H 0.5933 0.7347 0.79973 0.0
H2163 H 0.51199 0.75029 0.76668 0.0
H2164 H 0.58187 0.73288 0.69156 0.0
H2165 H 0.55647 0.75589 0.72787 0.0
H2166 H 0.56611 0.68725 0.77902 0.0
H2167 H 0.59121 0.66446 0.74302 0.0
C2168 C 0.56925 0.76197 0.82304 0.0
C2169 C 0.54423 0.77532 0.8251 0.0
C2170 C 0.57352 0.74433 0.80107 0.0
C2171 C 0.55315 0.74014 0.78038 0.0
C2172 C 0.52789 0.75317 0.78249 0.0
C2173 C 0.52328 0.77037 0.80497 0.0
C2174 C 0.57723 0.72223 0.71008 0.0
C2175 C 0.5885 0.69706 0.71471 0.0
C2176 C 0.56282 0.73536 0.73083 0.0
C2177 C 0.55973 0.72337 0.75624 0.0
C2178 C 0.56838 0.69691 0.75965 0.0
C2179 C 0.58265 0.68389 0.73907 0.0
H2180 H 0.49036 0.36163 0.08239 0.0
H2181 H 0.57404 0.33646 0.09747 0.0
H2182 H 0.50476 0.37725 0.0383 0.0
H2183 H 0.58899 0.35317 0.05316 0.0
H2184 H 0.59584 0.35784 0.95994 0.0
H2185 H 0.58228 0.34181 0.0048 0.0
H2186 H 0.53212 0.41134 0.01606 0.0
H2187 H 0.54461 0.42649 0.97144 0.0
C2188 C 0.51213 0.36009 0.07657 0.0
C2189 C 0.53107 0.34792 0.09359 0.0
C2190 C 0.52043 0.36908 0.05114 0.0
C2191 C 0.54805 0.36638 0.04193 0.0
C2192 C 0.56743 0.35517 0.05938 0.0
C2193 C 0.55903 0.34607 0.08499 0.0
C2194 C 0.58148 0.36931 0.97179 0.0
C2195 C 0.57133 0.39341 0.96188 0.0
C2196 C 0.57405 0.3604 0.99772 0.0
C2197 C 0.55621 0.37536 0.01426 0.0
C2198 C 0.5456 0.39903 0.00395 0.0
C2199 C 0.5529 0.40781 0.97821 0.0
H2200 H 0.01015 0.40727 0.3173 0.0
H2201 H 0.94432 0.34229 0.32654 0.0
H2202 H 0.99068 0.41694 0.27293 0.0
H2203 H 0.92527 0.3521 0.28226 0.0
H2204 H 0.94044 0.34484 0.19004 0.0
H2205 H 0.96544 0.34918 0.23342 0.0
H2206 H 0.92707 0.42462 0.25165 0.0
H2207 H 0.90171 0.42015 0.20807 0.0
C2208 C 0.99113 0.39553 0.31029 0.0
C2209 C 0.97895 0.37377 0.3255 0.0
C2210 C 0.98009 0.40113 0.28488 0.0
C2211 C 0.95676 0.38506 0.27428 0.0
C2212 C 0.9434 0.36467 0.29014 0.0
C2213 C 0.95424 0.35919 0.31557 0.0
C2214 C 0.93858 0.36314 0.20262 0.0
C2215 C 0.91962 0.38241 0.19554 0.0
C2216 C 0.95259 0.36544 0.22754 0.0
C2217 C 0.94784 0.38705 0.2458 0.0
C2218 C 0.93108 0.40786 0.23774 0.0
C2219 C 0.91692 0.40549 0.2127 0.0
H2220 H 0.01004 0.72652 0.59074 0.0
H2221 H 0.94754 0.78602 0.59081 0.0
H2222 H 0.99483 0.71046 0.54541 0.0
H2223 H 0.93265 0.77065 0.54518 0.0
H2224 H 0.98952 0.70957 0.45628 0.0
H2225 H 0.0003 0.72896 0.50142 0.0
H2226 H 0.91124 0.73453 0.51579 0.0
H2227 H 0.90075 0.71586 0.47019 0.0
C2228 C 0.99259 0.73566 0.5812 0.0
C2229 C 0.97954 0.75701 0.59431 0.0
C2230 C 0.98415 0.72686 0.55512 0.0
C2231 C 0.96299 0.73977 0.54138 0.0
C2232 C 0.94897 0.76025 0.55514 0.0
C2233 C 0.9573 0.76888 0.58135 0.0
C2234 C 0.97241 0.71597 0.46877 0.0
C2235 C 0.94439 0.71165 0.45971 0.0
C2236 C 0.97846 0.72654 0.4948 0.0
C2237 C 0.95655 0.73248 0.51252 0.0
C2238 C 0.92861 0.73015 0.50269 0.0
C2239 C 0.92259 0.71983 0.47643 0.0
H2240 H 0.53472 0.33915 0.68199 0.0
H2241 H 0.59856 0.28137 0.68716 0.0
H2242 H 0.5457 0.35579 0.72792 0.0
H2243 H 0.61088 0.29887 0.73276 0.0
H2244 H 0.60611 0.30891 0.82196 0.0
H2245 H 0.59226 0.2952 0.77581 0.0
H2246 H 0.57502 0.37894 0.7602 0.0
H2247 H 0.58733 0.39202 0.807 0.0
C2248 C 0.55199 0.33083 0.69264 0.0
C2249 C 0.5661 0.30922 0.68097 0.0
C2250 C 0.55819 0.34025 0.71912 0.0
C2251 C 0.57875 0.3283 0.73454 0.0
C2252 C 0.5942 0.30796 0.72199 0.0
C2253 C 0.58762 0.29824 0.69566 0.0
C2254 C 0.59837 0.32411 0.80886 0.0
C2255 C 0.59747 0.35142 0.81809 0.0
C2256 C 0.59105 0.31645 0.78217 0.0
C2257 C 0.58338 0.3361 0.76379 0.0
C2258 C 0.58077 0.36315 0.77361 0.0
C2259 C 0.58755 0.37067 0.80057 0.0
H2260 H 0.02486 0.33423 0.96111 0.0
H2261 H 0.94837 0.28097 0.96524 0.0
H2262 H 0.01018 0.36045 0.00034 0.0
H2263 H 0.93307 0.30797 0.00399 0.0
H2264 H 0.92026 0.35295 0.08482 0.0
H2265 H 0.94015 0.32199 0.05116 0.0
H2266 H 0.97671 0.39224 0.00933 0.0
H2267 H 0.95797 0.42252 0.04281 0.0
C2268 C 0.00474 0.32829 0.9702 0.0
C2269 C 0.98764 0.30572 0.95975 0.0
C2270 C 0.99629 0.34333 0.99278 0.0
C2271 C 0.97027 0.33653 0.00529 0.0
C2272 C 0.95337 0.31363 0.99514 0.0
C2273 C 0.96202 0.29832 0.97271 0.0
C2274 C 0.93305 0.3616 0.0687 0.0
C2275 C 0.93734 0.39019 0.06643 0.0
C2276 C 0.9442 0.34393 0.04926 0.0
C2277 C 0.96003 0.35458 0.02741 0.0
C2278 C 0.96508 0.38314 0.02597 0.0
C2279 C 0.95403 0.40061 0.04518 0.0
H2280 H 0.99407 0.71664 0.185 0.0
H2281 H 0.93943 0.78308 0.1886 0.0
H2282 H 0.98115 0.70472 0.23098 0.0
H2283 H 0.92457 0.77011 0.23366 0.0
H2284 H 0.92264 0.76436 0.32214 0.0
H2285 H 0.94053 0.77402 0.27722 0.0
H2286 H 0.95054 0.68752 0.26298 0.0
H2287 H 0.93477 0.67856 0.30881 0.0
C2288 C 0.97827 0.72789 0.19525 0.0
C2289 C 0.96754 0.75063 0.18322 0.0
C2290 C 0.97096 0.72122 0.22178 0.0
C2291 C 0.9523 0.73684 0.23666 0.0
C2292 C 0.93991 0.75823 0.22353 0.0
C2293 C 0.94783 0.76532 0.19737 0.0
C2294 C 0.92976 0.74766 0.30969 0.0
C2295 C 0.9276 0.72081 0.31898 0.0
C2296 C 0.93937 0.75301 0.28361 0.0
C2297 C 0.94606 0.73145 0.26576 0.0
C2298 C 0.94567 0.70477 0.27587 0.0
C2299 C 0.9368 0.69958 0.3023 0.0
H2300 H 0.50893 0.70283 0.46842 0.0
H2301 H 0.58366 0.75441 0.4494 0.0
H2302 H 0.52868 0.69493 0.51256 0.0
H2303 H 0.60365 0.74586 0.49398 0.0
H2304 H 0.54849 0.70678 0.59662 0.0
H2305 H 0.53979 0.72877 0.55415 0.0
H2306 H 0.61802 0.70227 0.52273 0.0
H2307 H 0.6268 0.68043 0.56557 0.0
C2308 C 0.52977 0.71219 0.47338 0.0
C2309 C 0.5445 0.72949 0.45523 0.0
C2310 C 0.54095 0.70789 0.4989 0.0
C2311 C 0.56733 0.72047 0.507 0.0
C2312 C 0.58307 0.73627 0.48837 0.0
C2313 C 0.57167 0.74092 0.46277 0.0
C2314 C 0.5648 0.70733 0.58139 0.0
C2315 C 0.58825 0.69186 0.58435 0.0
C2316 C 0.55954 0.71942 0.55683 0.0
C2317 C 0.57777 0.71636 0.53487 0.0
C2318 C 0.60351 0.70474 0.53926 0.0
C2319 C 0.60876 0.69262 0.56398 0.0
H2320 H 0.83888 0.61536 0.69355 0.0
H2321 H 0.8116 0.52926 0.69473 0.0
H2322 H 0.79364 0.62496 0.67384 0.0
H2323 H 0.76583 0.53899 0.67561 0.0
H2324 H 0.6879 0.59188 0.708 0.0
H2325 H 0.73027 0.56699 0.70312 0.0
H2326 H 0.75582 0.61646 0.63553 0.0
H2327 H 0.71287 0.64086 0.64011 0.0
C2328 C 0.82359 0.59836 0.68858 0.0
C2329 C 0.82878 0.57159 0.69564 0.0
C2330 C 0.79766 0.60382 0.67722 0.0
C2331 C 0.77611 0.58271 0.67327 0.0
C2332 C 0.78208 0.55561 0.67837 0.0
C2333 C 0.80834 0.55005 0.68915 0.0
C2334 C 0.70159 0.5961 0.69097 0.0
C2335 C 0.69702 0.61801 0.67426 0.0
C2336 C 0.72602 0.58198 0.68825 0.0
C2337 C 0.7466 0.59009 0.6692 0.0
C2338 C 0.74038 0.60987 0.65045 0.0
C2339 C 0.71564 0.62361 0.65287 0.0
H2340 H 0.74767 0.59807 0.98874 0.0
H2341 H 0.66752 0.58874 0.02902 0.0
H2342 H 0.73826 0.55331 0.96617 0.0
H2343 H 0.65766 0.54379 0.00611 0.0
H2344 H 0.65202 0.45774 0.97394 0.0
H2345 H 0.67271 0.49619 0.00226 0.0
H2346 H 0.7059 0.53523 0.93084 0.0
H2347 H 0.68456 0.4976 0.90297 0.0
C2348 C 0.72778 0.5865 0.99236 0.0
C2349 C 0.70776 0.5971 0.00971 0.0
C2350 C 0.72254 0.56079 0.9797 0.0
C2351 C 0.69726 0.54498 0.98437 0.0
C2352 C 0.67754 0.55532 0.0024 0.0
C2353 C 0.68289 0.58112 0.01519 0.0
C2354 C 0.66499 0.47395 0.96459 0.0
C2355 C 0.66731 0.47451 0.93637 0.0
C2356 C 0.67633 0.49616 0.98068 0.0
C2357 C 0.6904 0.519 0.96869 0.0
C2358 C 0.69516 0.51804 0.94072 0.0
C2359 C 0.68336 0.4962 0.92469 0.0
H2360 H 0.67252 0.49926 0.18098 0.0
H2361 H 0.68596 0.46849 0.2605 0.0
H2362 H 0.71423 0.47734 0.1647 0.0
H2363 H 0.72756 0.44718 0.24458 0.0
H2364 H 0.78871 0.39386 0.20308 0.0
H2365 H 0.74449 0.41186 0.21606 0.0
H2366 H 0.766 0.48489 0.17132 0.0
H2367 H 0.81033 0.46629 0.15755 0.0
C2368 C 0.68384 0.48713 0.19475 0.0
C2369 C 0.67587 0.48544 0.22198 0.0
C2370 C 0.70804 0.47502 0.18557 0.0
C2371 C 0.72451 0.46082 0.20341 0.0
C2372 C 0.71538 0.45779 0.2302 0.0
C2373 C 0.69142 0.46995 0.23934 0.0
C2374 C 0.78424 0.41386 0.19605 0.0
C2375 C 0.8033 0.42868 0.17927 0.0
C2376 C 0.75877 0.42421 0.20358 0.0
C2377 C 0.75153 0.44977 0.19467 0.0
C2378 C 0.77071 0.46491 0.17822 0.0
C2379 C 0.79635 0.45449 0.17067 0.0
H2380 H 0.80528 0.48662 0.51502 0.0
H2381 H 0.77711 0.4794 0.43189 0.0
H2382 H 0.82414 0.53337 0.50804 0.0
H2383 H 0.79767 0.52572 0.42417 0.0
H2384 H 0.82528 0.6144 0.4171 0.0
H2385 H 0.79653 0.57346 0.43083 0.0
H2386 H 0.86131 0.55718 0.48877 0.0
H2387 H 0.88866 0.59808 0.47592 0.0
C2388 C 0.8038 0.49483 0.49501 0.0
C2389 C 0.79023 0.47913 0.47386 0.0
C2390 C 0.81454 0.52177 0.49097 0.0
C2391 C 0.81269 0.53359 0.46544 0.0
C2392 C 0.79911 0.51772 0.44424 0.0
C2393 C 0.78774 0.49094 0.4485 0.0
C2394 C 0.83269 0.60248 0.43337 0.0
C2395 C 0.85942 0.6091 0.44499 0.0
C2396 C 0.81651 0.57875 0.441 0.0
C2397 C 0.82682 0.56136 0.46047 0.0
C2398 C 0.85234 0.56977 0.47382 0.0
C2399 C 0.86822 0.59337 0.46635 0.0
H2400 H 0.83061 0.47221 0.78209 0.0
H2401 H 0.79431 0.55001 0.79427 0.0
H2402 H 0.78751 0.44858 0.79819 0.0
H2403 H 0.75056 0.52623 0.80943 0.0
H2404 H 0.68974 0.47212 0.86399 0.0
H2405 H 0.72895 0.50058 0.84496 0.0
H2406 H 0.74071 0.43641 0.78491 0.0
H2407 H 0.70288 0.40784 0.80514 0.0
C2408 C 0.81335 0.48428 0.78808 0.0
C2409 C 0.81596 0.51299 0.78685 0.0
C2410 C 0.78844 0.47071 0.79707 0.0
C2411 C 0.76522 0.48542 0.80469 0.0
C2412 C 0.76798 0.51421 0.80387 0.0
C2413 C 0.7931 0.52785 0.79515 0.0
C2414 C 0.70039 0.46463 0.84635 0.0
C2415 C 0.69363 0.4379 0.83616 0.0
C2416 C 0.72288 0.48079 0.83542 0.0
C2417 C 0.73862 0.47049 0.81383 0.0
C2418 C 0.72984 0.44466 0.80214 0.0
C2419 C 0.70786 0.42843 0.81341 0.0
H2420 H 0.82393 0.60847 0.05262 0.0
H2421 H 0.76735 0.61442 0.12008 0.0
H2422 H 0.83739 0.56449 0.06816 0.0
H2423 H 0.78127 0.56998 0.13589 0.0
H2424 H 0.81911 0.47611 0.07097 0.0
H2425 H 0.79508 0.51849 0.07154 0.0
H2426 H 0.8378 0.54468 0.14599 0.0
H2427 H 0.86179 0.50203 0.14545 0.0
C2428 C 0.81514 0.60084 0.07134 0.0
C2429 C 0.79459 0.61488 0.0851 0.0
C2430 C 0.82258 0.57552 0.08004 0.0
C2431 C 0.80976 0.56365 0.10276 0.0
C2432 C 0.79118 0.5787 0.11814 0.0
C2433 C 0.78357 0.60424 0.10931 0.0
C2434 C 0.82176 0.48992 0.08849 0.0
C2435 C 0.84211 0.48571 0.10824 0.0
C2436 C 0.80834 0.51439 0.08863 0.0
C2437 C 0.81505 0.53495 0.10857 0.0
C2438 C 0.83224 0.52909 0.13047 0.0
C2439 C 0.84568 0.50451 0.13031 0.0
H2440 H 0.69682 0.55222 0.30679 0.0
H2441 H 0.70837 0.61794 0.2509 0.0
H2442 H 0.74442 0.56288 0.32447 0.0
H2443 H 0.75565 0.62986 0.26939 0.0
H2444 H 0.84433 0.64001 0.29335 0.0
H2445 H 0.80206 0.61695 0.27222 0.0
H2446 H 0.77112 0.59497 0.35128 0.0
H2447 H 0.814 0.61656 0.37167 0.0
C2448 C 0.70947 0.56944 0.29878 0.0
C2449 C 0.69884 0.58487 0.27812 0.0
C2450 C 0.7368 0.57548 0.30879 0.0
C2451 C 0.75411 0.59718 0.29836 0.0
C2452 C 0.74328 0.61258 0.27755 0.0
C2453 C 0.71606 0.60617 0.26723 0.0
C2454 C 0.82919 0.62871 0.30588 0.0
C2455 C 0.83257 0.62948 0.33405 0.0
C2456 C 0.80461 0.61615 0.29393 0.0
C2457 C 0.78269 0.60477 0.31007 0.0
C2458 C 0.78746 0.60328 0.33807 0.0
C2459 C 0.81228 0.61539 0.34987 0.0
H2460 H 0.74456 0.47297 0.56513 0.0
H2461 H 0.66443 0.45732 0.52369 0.0
H2462 H 0.72831 0.51498 0.58561 0.0
H2463 H 0.64792 0.49869 0.54471 0.0
H2464 H 0.67517 0.57816 0.63272 0.0
H2465 H 0.69552 0.53628 0.61627 0.0
H2466 H 0.65891 0.54659 0.53737 0.0
H2467 H 0.63827 0.58782 0.55407 0.0
C2468 C 0.72318 0.47805 0.56104 0.0
C2469 C 0.70584 0.46199 0.54259 0.0
C2470 C 0.71393 0.5022 0.57269 0.0
C2471 C 0.68712 0.51058 0.5662 0.0
C2472 C 0.66907 0.49332 0.5494 0.0
C2473 C 0.67838 0.46942 0.53759 0.0
C2474 C 0.67238 0.57189 0.61167 0.0
C2475 C 0.65532 0.58618 0.59459 0.0
C2476 C 0.68375 0.54777 0.60229 0.0
C2477 C 0.67817 0.53769 0.57571 0.0
C2478 C 0.66282 0.55327 0.55821 0.0
C2479 C 0.65133 0.57709 0.56762 0.0
H2480 H 0.76005 0.86064 0.61786 0.0
H2481 H 0.71554 0.84798 0.54161 0.0
H2482 H 0.7379 0.81755 0.63339 0.0
H2483 H 0.69419 0.80427 0.55673 0.0
H2484 H 0.72458 0.72771 0.64331 0.0
H2485 H 0.74311 0.77061 0.62451 0.0
H2486 H 0.66234 0.77965 0.58639 0.0
H2487 H 0.64419 0.73568 0.60453 0.0
C2488 C 0.74538 0.84875 0.60447 0.0
C2489 C 0.73973 0.85773 0.57846 0.0
C2490 C 0.73288 0.82384 0.61323 0.0
C2491 C 0.71475 0.80699 0.59606 0.0
C2492 C 0.70798 0.81664 0.57053 0.0
C2493 C 0.72024 0.84178 0.56187 0.0
C2494 C 0.71097 0.73861 0.63046 0.0
C2495 C 0.68297 0.72848 0.62543 0.0
C2496 C 0.72143 0.76344 0.61999 0.0
C2497 C 0.704 0.77913 0.6046 0.0
C2498 C 0.67637 0.76819 0.59822 0.0
C2499 C 0.66597 0.74296 0.60846 0.0
H2500 H 0.21653 0.73466 0.44301 0.0
H2501 H 0.14932 0.70795 0.49669 0.0
H2502 H 0.19461 0.7774 0.43666 0.0
H2503 H 0.12704 0.75121 0.4899 0.0
H2504 H 0.1091 0.82577 0.41612 0.0
H2505 H 0.11198 0.78206 0.43818 0.0
H2506 H 0.18549 0.81568 0.48257 0.0
H2507 H 0.18284 0.8591 0.46019 0.0
C2508 C 0.19664 0.73758 0.45287 0.0
C2509 C 0.18474 0.718 0.47043 0.0
C2510 C 0.18428 0.76217 0.44948 0.0
C2511 C 0.15966 0.76776 0.46345 0.0
C2512 C 0.14626 0.74739 0.47926 0.0
C2513 C 0.15881 0.72257 0.4828 0.0
C2514 C 0.12446 0.82455 0.43225 0.0
C2515 C 0.14618 0.84552 0.43604 0.0
C2516 C 0.12628 0.79934 0.44462 0.0
C2517 C 0.1494 0.79543 0.46142 0.0
C2518 C 0.16759 0.81824 0.46946 0.0
C2519 C 0.16582 0.84329 0.45695 0.0
H2520 H 0.57534 0.98993 0.74799 0.0
H2521 H 0.5952 0.05049 0.68819 0.0
H2522 H 0.53179 0.97499 0.72387 0.0
H2523 H 0.55057 0.03746 0.66514 0.0
H2524 H 0.48105 0.99249 0.61589 0.0
H2525 H 0.52549 0.00452 0.63848 0.0
H2526 H 0.48636 0.9888 0.7157 0.0
H2527 H 0.4417 0.97513 0.69264 0.0
C2528 C 0.57067 -0.0005 0.72919 0.0
C2529 C 0.58914 0.02046 0.71916 0.0
C2530 C 0.54533 0.99151 0.71577 0.0
C2531 C 0.53742 0.00507 0.69256 0.0
C2532 C 0.55609 0.02609 0.68259 0.0
C2533 C 0.58167 0.03366 0.69576 0.0
C2534 C 0.48165 0.99187 0.63774 0.0
C2535 C 0.45762 0.9829 0.65245 0.0
C2536 C 0.50733 -0.00112 0.65076 0.0
C2537 C 0.50972 -0.00231 0.67897 0.0
C2538 C 0.48551 0.98947 0.69387 0.0
C2539 C 0.45976 0.98196 0.68072 0.0
H2540 H 0.35701 0.35744 0.01034 0.0
H2541 H 0.27478 0.34895 0.97177 0.0
H2542 H 0.3677 0.31299 0.99056 0.0
H2543 H 0.28561 0.30483 0.95208 0.0
H2544 H 0.29649 0.21749 0.941 0.0
H2545 H 0.29267 0.25822 0.97007 0.0
H2546 H 0.37464 0.29062 0.94383 0.0
H2547 H 0.37832 0.2497 0.91475 0.0
C2548 C 0.34131 0.34628 0.99745 0.0
C2549 C 0.31495 0.3568 0.99271 0.0
C2550 C 0.34747 0.32081 0.98621 0.0
C2551 C 0.32727 0.3052 0.9703 0.0
C2552 C 0.30134 0.3161 0.96485 0.0
C2553 C 0.29529 0.34161 0.97582 0.0
C2554 C 0.31429 0.23266 0.9426 0.0
C2555 C 0.33789 0.2303 0.92609 0.0
C2556 C 0.31193 0.25618 0.95884 0.0
C2557 C 0.33304 0.27788 0.95864 0.0
C2558 C 0.35803 0.27423 0.94435 0.0
C2559 C 0.36035 0.25063 0.928 0.0
H2560 H 0.44503 0.56419 0.77785 0.0
H2561 H 0.43487 0.52179 0.70003 0.0
H2562 H 0.49133 0.58424 0.76393 0.0
H2563 H 0.4805 0.54168 0.68643 0.0
H2564 H 0.56962 0.55879 0.67193 0.0
H2565 H 0.53041 0.53753 0.69746 0.0
H2566 H 0.51234 0.61722 0.73003 0.0
H2567 H 0.55209 0.63821 0.70486 0.0
C2568 C 0.45248 0.5593 0.75777 0.0
C2569 C 0.43617 0.54122 0.74015 0.0
C2570 C 0.47905 0.57069 0.74988 0.0
C2571 C 0.48988 0.56401 0.72434 0.0
C2572 C 0.47321 0.54659 0.70657 0.0
C2573 C 0.44678 0.5354 0.71431 0.0
C2574 C 0.55812 0.57148 0.68564 0.0
C2575 C 0.56399 0.59998 0.68684 0.0
C2576 C 0.53541 0.55945 0.69991 0.0
C2577 C 0.51786 0.57581 0.71523 0.0
C2578 C 0.52546 0.60406 0.71847 0.0
C2579 C 0.54835 0.61608 0.70427 0.0
H2580 H 0.74614 0.23175 0.07286 0.0
H2581 H 0.78345 0.23644 0.99382 0.0
H2582 H 0.76888 0.27699 0.0852 0.0
H2583 H 0.80684 0.28152 0.00626 0.0
H2584 H 0.87004 0.33872 0.06537 0.0
H2585 H 0.84488 0.30011 0.04092 0.0
H2586 H 0.76582 0.3264 0.07081 0.0
H2587 H 0.79115 0.36514 0.09506 0.0
C2588 C 0.75956 0.24238 0.05832 0.0
C2589 C 0.764 0.23034 0.03283 0.0
C2590 C 0.77226 0.26835 0.06518 0.0
C2591 C 0.78938 0.28286 0.04654 0.0
C2592 C 0.79379 0.27076 0.02099 0.0
C2593 C 0.78078 0.24489 0.01404 0.0
C2594 C 0.84718 0.33714 0.06531 0.0
C2595 C 0.83242 0.35499 0.08172 0.0
C2596 C 0.83279 0.31485 0.05162 0.0
C2597 C 0.8035 0.30994 0.05457 0.0
C2598 C 0.78848 0.32954 0.06858 0.0
C2599 C 0.80287 0.35199 0.082 0.0
H2600 H 0.59863 0.12677 0.79804 0.0
H2601 H 0.56134 0.05167 0.83048 0.0
H2602 H 0.55486 0.14892 0.80699 0.0
H2603 H 0.51829 0.07366 0.84005 0.0
H2604 H 0.4375 0.10381 0.84192 0.0
H2605 H 0.47846 0.08947 0.81737 0.0
H2606 H 0.52525 0.16529 0.84228 0.0
H2607 H 0.48375 0.17991 0.8655 0.0
C2608 C 0.58137 0.11524 0.80774 0.0
C2609 C 0.58343 0.08752 0.81368 0.0
C2610 C 0.55617 0.12781 0.81255 0.0
C2611 C 0.53264 0.11286 0.82344 0.0
C2612 C 0.53546 0.08556 0.83061 0.0
C2613 C 0.5604 0.07306 0.82567 0.0
C2614 C 0.45586 0.1182 0.84042 0.0
C2615 C 0.45758 0.14283 0.85572 0.0
C2616 C 0.47968 0.1097 0.82703 0.0
C2617 C 0.50563 0.12562 0.82907 0.0
C2618 C 0.50583 0.15227 0.84056 0.0
C2619 C 0.48182 0.16089 0.85357 0.0
H2620 H 0.92245 0.96423 0.34005 0.0
H2621 H 0.94093 0.9408 0.25748 0.0
H2622 H 0.9669 0.94704 0.3547 0.0
H2623 H 0.9855 0.92439 0.27222 0.0
H2624 H 0.07311 0.96575 0.31595 0.0
H2625 H 0.0272 0.95887 0.29335 0.0
H2626 H -0.00168 0.903 0.35486 0.0
H2627 H 0.0448 0.90907 0.3768 0.0
C2628 C 0.93554 0.95479 0.32514 0.0
C2629 C 0.92815 0.95421 0.29758 0.0
C2630 C 0.96093 0.9448 0.33354 0.0
C2631 C 0.97961 0.93445 0.31452 0.0
C2632 C 0.97144 0.9322 0.28725 0.0
C2633 C 0.94583 0.94165 0.2789 0.0
C2634 C 0.0576 0.95055 0.32352 0.0
C2635 C 0.0625 0.93767 0.34784 0.0
C2636 C 0.0312 0.9468 0.31077 0.0
C2637 C 0.00912 0.93074 0.32266 0.0
C2638 C 0.01499 0.91554 0.34538 0.0
C2639 C 0.04168 0.91871 0.35768 0.0
H2640 H 0.44607 0.36446 0.21021 0.0
H2641 H 0.50293 0.30695 0.23901 0.0
H2642 H 0.44097 0.38257 0.25657 0.0
H2643 H 0.49771 0.32468 0.28537 0.0
H2644 H 0.42567 0.32833 0.35364 0.0
H2645 H 0.45296 0.31877 0.31331 0.0
H2646 H 0.46475 0.40556 0.29926 0.0
H2647 H 0.43758 0.41488 0.33979 0.0
C2648 C 0.45825 0.35648 0.22637 0.0
C2649 C 0.47512 0.33466 0.22122 0.0
C2650 C 0.45541 0.36678 0.25288 0.0
C2651 C 0.46898 0.35502 0.27463 0.0
C2652 C 0.48706 0.33416 0.26907 0.0
C2653 C 0.49013 0.32413 0.24259 0.0
C2654 C 0.43571 0.34538 0.34294 0.0
C2655 C 0.4301 0.37237 0.35017 0.0
C2656 C 0.45111 0.33996 0.31964 0.0
C2657 C 0.46063 0.36143 0.30288 0.0
C2658 C 0.45753 0.38861 0.31169 0.0
C2659 C 0.44252 0.39401 0.33525 0.0
H2660 H 0.42752 0.7779 0.92441 0.0
H2661 H 0.46694 0.84891 0.96755 0.0
H2662 H 0.41198 0.7587 0.96736 0.0
H2663 H 0.4518 0.82947 0.0103 0.0
H2664 H 0.46923 0.75637 0.06895 0.0
H2665 H 0.47146 0.78701 0.03071 0.0
H2666 H 0.384 0.76359 0.0119 0.0
H2667 H 0.38188 0.73311 0.05044 0.0
C2668 C 0.43198 0.78991 0.94289 0.0
C2669 C 0.44878 0.81482 0.94243 0.0
C2670 C 0.42313 0.77885 0.96757 0.0
C2671 C 0.43112 0.79236 0.99227 0.0
C2672 C 0.44566 0.81841 0.99165 0.0
C2673 C 0.45416 0.82961 0.96704 0.0
C2674 C 0.45024 0.75863 0.05726 0.0
C2675 C 0.4252 0.74295 0.06303 0.0
C2676 C 0.45147 0.77612 0.03532 0.0
C2677 C 0.42788 0.77773 0.01823 0.0
C2678 C 0.40249 0.76283 0.02468 0.0
C2679 C 0.40115 0.74571 0.04696 0.0
H2680 H 0.06121 0.79043 0.71335 0.0
H2681 H 0.00765 0.7151 0.71411 0.0
H2682 H 0.08629 0.77661 0.75285 0.0
H2683 H 0.03385 0.70046 0.75314 0.0
H2684 H 0.07442 0.69002 0.83614 0.0
H2685 H 0.04467 0.7074 0.8007 0.0
H2686 H 0.11907 0.74611 0.7639 0.0
H2687 H 0.14799 0.73009 0.79917 0.0
C2688 C 0.05519 0.77058 0.72158 0.0
C2689 C 0.03272 0.75369 0.71024 0.0
C2690 C 0.06957 0.76263 0.74437 0.0
C2691 C 0.06234 0.73726 0.75621 0.0
C2692 C 0.03982 0.72029 0.74486 0.0
C2693 C 0.02505 0.7285 0.72223 0.0
C2694 C 0.0842 0.70276 0.82076 0.0
C2695 C 0.11364 0.70839 0.82046 0.0
C2696 C 0.06723 0.71244 0.80025 0.0
C2697 C 0.07941 0.72812 0.77924 0.0
C2698 C 0.10869 0.73454 0.7798 0.0
C2699 C 0.12543 0.72506 0.80011 0.0
H2700 H 0.08037 0.29004 0.43627 0.0
H2701 H 0.0432 0.36767 0.44466 0.0
H2702 H 0.09701 0.29488 0.48359 0.0
H2703 H 0.06028 0.37276 0.49104 0.0
H2704 H 0.04529 0.35154 0.57493 0.0
H2705 H 0.03946 0.3323 0.529 0.0
H2706 H 0.12965 0.34018 0.5183 0.0
H2707 H 0.13551 0.35946 0.5644 0.0
C2708 C 0.07687 0.3086 0.44786 0.0
C2709 C 0.06118 0.32885 0.43669 0.0
C2710 C 0.0862 0.31125 0.4748 0.0
C2711 C 0.07947 0.33397 0.49076 0.0
C2712 C 0.0655 0.35498 0.47902 0.0
C2713 C 0.05623 0.35234 0.45232 0.0
C2714 C 0.06393 0.34761 0.56336 0.0
C2715 C 0.09081 0.35688 0.57311 0.0
C2716 C 0.06061 0.33683 0.53707 0.0
C2717 C 0.08412 0.33534 0.52022 0.0
C2718 C 0.1113 0.34111 0.53107 0.0
C2719 C 0.11463 0.35183 0.55754 0.0
H2720 H 0.51576 0.71041 0.32058 0.0
H2721 H 0.4659 0.77854 0.33914 0.0
H2722 H 0.4907 0.70283 0.27694 0.0
H2723 H 0.4417 0.77178 0.29598 0.0
H2724 H 0.38116 0.7349 0.23288 0.0
H2725 H 0.40779 0.74092 0.27454 0.0
H2726 H 0.48374 0.72251 0.23236 0.0
H2727 H 0.45649 0.7155 0.19015 0.0
C2728 C 0.49932 0.72355 0.31537 0.0
C2729 C 0.49198 0.74438 0.33353 0.0
C2730 C 0.48519 0.71946 0.29035 0.0
C2731 C 0.46392 0.73653 0.283 0.0
C2732 C 0.45736 0.75776 0.30111 0.0
C2733 C 0.47118 0.76161 0.32596 0.0
C2734 C 0.40359 0.73236 0.23218 0.0
C2735 C 0.41661 0.72472 0.20792 0.0
C2736 C 0.41895 0.7359 0.25625 0.0
C2737 C 0.448 0.73229 0.25693 0.0
C2738 C 0.46132 0.72515 0.23265 0.0
C2739 C 0.44579 0.72147 0.20838 0.0
H2740 H 0.10151 0.79174 0.04921 0.0
H2741 H 0.035 0.7292 0.06504 0.0
H2742 H 0.11312 0.76645 0.00749 0.0
H2743 H 0.04623 0.7047 0.02341 0.0
H2744 H 0.04683 0.69218 0.93211 0.0
H2745 H 0.04334 0.72432 0.97055 0.0
H2746 H 0.12767 0.7094 0.99579 0.0
H2747 H 0.13086 0.67654 0.95751 0.0
C2748 C 0.08955 0.77257 0.04399 0.0
C2749 C 0.06729 0.76253 0.06056 0.0
C2750 C 0.09622 0.75817 0.02013 0.0
C2751 C 0.08033 0.73386 0.01218 0.0
C2752 C 0.05863 0.72354 0.02901 0.0
C2753 C 0.05236 0.73753 0.05298 0.0
C2754 C 0.06508 0.69669 0.94517 0.0
C2755 C 0.08944 0.68256 0.94135 0.0
C2756 C 0.06298 0.71486 0.96728 0.0
C2757 C 0.08522 0.71926 0.98609 0.0
C2758 C 0.11037 0.70656 0.98139 0.0
C2759 C 0.11233 0.68805 0.95931 0.0
H2760 H 0.10102 0.34174 0.85754 0.0
H2761 H 0.01633 0.34458 0.82618 0.0
H2762 H 0.11986 0.36032 0.81615 0.0
H2763 H 0.03513 0.36477 0.78494 0.0
H2764 H 0.07991 0.35894 0.7022 0.0
H2765 H 0.05758 0.34975 0.74574 0.0
H2766 H 0.12782 0.39521 0.78669 0.0
H2767 H 0.15061 0.40258 0.74366 0.0
C2768 C 0.08634 0.34738 0.8422 0.0
C2769 C 0.05721 0.34143 0.84508 0.0
C2770 C 0.09716 0.35812 0.81828 0.0
C2771 C 0.07908 0.36372 0.79678 0.0
C2772 C 0.04976 0.36 0.80067 0.0
C2773 C 0.03894 0.34883 0.82451 0.0
C2774 C 0.09051 0.36674 0.72061 0.0
C2775 C 0.11736 0.38067 0.71962 0.0
C2776 C 0.07761 0.36183 0.74559 0.0
C2777 C 0.09104 0.37138 0.76998 0.0
C2778 C 0.11719 0.38667 0.76859 0.0
C2779 C 0.1303 0.39094 0.74383 0.0
H2780 H 0.43925 0.30937 0.58753 0.0
H2781 H 0.51137 0.32689 0.5366 0.0
H2782 H 0.4085 0.3266 0.55277 0.0
H2783 H 0.48103 0.34376 0.50221 0.0
H2784 H 0.42643 0.37243 0.44071 0.0
H2785 H 0.44103 0.33541 0.46893 0.0
H2786 H 0.4071 0.3755 0.53916 0.0
H2787 H 0.39305 0.41221 0.51115 0.0
C2788 C 0.44841 0.31632 0.56873 0.0
C2789 C 0.47775 0.31732 0.56499 0.0
C2790 C 0.43086 0.32612 0.54884 0.0
C2791 C 0.44232 0.33652 0.5247 0.0
C2792 C 0.4714 0.33557 0.52033 0.0
C2793 C 0.48888 0.32627 0.54026 0.0
C2794 C 0.42102 0.37254 0.46194 0.0
C2795 C 0.40894 0.39515 0.47392 0.0
C2796 C 0.42951 0.35151 0.47814 0.0
C2797 C 0.42563 0.35279 0.50637 0.0
C2798 C 0.41034 0.37377 0.51755 0.0
C2799 C 0.40237 0.3949 0.50152 0.0
H2800 H 0.17688 0.46924 0.33261 0.0
H2801 H 0.22459 0.54527 0.31599 0.0
H2802 H 0.21712 0.45363 0.35671 0.0
H2803 H 0.26542 0.5295 0.34003 0.0
H2804 H 0.32983 0.45856 0.32453 0.0
H2805 H 0.29338 0.49106 0.32141 0.0
H2806 H 0.2541 0.45804 0.3931 0.0
H2807 H 0.29078 0.4256 0.39607 0.0
C2808 C 0.19564 0.4831 0.3352 0.0
C2809 C 0.1977 0.5084 0.32249 0.0
C2810 C 0.21875 0.4742 0.34906 0.0
C2811 C 0.24459 0.49022 0.35 0.0
C2812 C 0.24581 0.51669 0.33947 0.0
C2813 C 0.2224 0.52581 0.32597 0.0
C2814 C 0.31411 0.4592 0.34026 0.0
C2815 C 0.3131 0.43994 0.36066 0.0
C2816 C 0.29326 0.47782 0.33857 0.0
C2817 C 0.27072 0.47697 0.35692 0.0
C2818 C 0.27111 0.45907 0.37861 0.0
C2819 C 0.29214 0.44066 0.38042 0.0
H2820 H 0.31876 0.48291 0.01815 0.0
H2821 H 0.27267 0.49575 0.09161 0.0
H2822 H 0.34044 0.52922 0.02199 0.0
H2823 H 0.29606 0.54227 0.0968 0.0
H2824 H 0.32928 0.63208 0.08824 0.0
H2825 H 0.30154 0.58823 0.08037 0.0
H2826 H 0.37522 0.55341 0.04696 0.0
H2827 H 0.40196 0.59675 0.05331 0.0
C2828 C 0.31376 0.49564 0.03551 0.0
C2829 C 0.29474 0.48562 0.05502 0.0
C2830 C 0.32623 0.52225 0.03778 0.0
C2831 C 0.32047 0.53954 0.05996 0.0
C2832 C 0.30086 0.52966 0.07933 0.0
C2833 C 0.28774 0.50298 0.07662 0.0
C2834 C 0.33923 0.61522 0.0785 0.0
C2835 C 0.36792 0.61809 0.07149 0.0
C2836 C 0.32345 0.58995 0.07437 0.0
C2837 C 0.33609 0.56709 0.06315 0.0
C2838 C 0.36444 0.57048 0.0552 0.0
C2839 C 0.37994 0.59558 0.05898 0.0
H2840 H 0.29327 0.49876 0.85035 0.0
H2841 H 0.34771 0.57319 0.86031 0.0
H2842 H 0.25278 0.52376 0.86354 0.0
H2843 H 0.30719 0.59803 0.87392 0.0
H2844 H 0.19957 0.59406 0.82505 0.0
H2845 H 0.23389 0.55997 0.83211 0.0
H2846 H 0.26401 0.60427 0.90465 0.0
H2847 H 0.22917 0.63799 0.89776 0.0
C2848 C 0.29686 0.52019 0.8565 0.0
C2849 C 0.3237 0.53411 0.85371 0.0
C2850 C 0.27356 0.53452 0.86387 0.0
C2851 C 0.27671 0.56293 0.86912 0.0
C2852 C 0.30409 0.57611 0.86992 0.0
C2853 C 0.32742 0.56182 0.86224 0.0
C2854 C 0.21253 0.59563 0.84319 0.0
C2855 C 0.2113 0.61812 0.86124 0.0
C2856 C 0.23229 0.57625 0.84723 0.0
C2857 C 0.25171 0.57951 0.86894 0.0
C2858 C 0.24933 0.60123 0.88781 0.0
C2859 C 0.22925 0.62032 0.88401 0.0
H2860 H 0.19249 0.61717 0.56596 0.0
H2861 H 0.26957 0.57882 0.5483 0.0
H2862 H 0.16934 0.57273 0.57617 0.0
H2863 H 0.24606 0.53401 0.55808 0.0
H2864 H 0.19286 0.46241 0.60238 0.0
H2865 H 0.22232 0.50425 0.59271 0.0
H2866 H 0.1537 0.53345 0.54672 0.0
H2867 H 0.1243 0.49242 0.5569 0.0
C2868 C 0.20462 0.59929 0.56463 0.0
C2869 C 0.23277 0.60152 0.55608 0.0
C2870 C 0.19127 0.57376 0.5702 0.0
C2871 C 0.20565 0.54976 0.56714 0.0
C2872 C 0.2344 0.55211 0.56045 0.0
C2873 C 0.24787 0.57781 0.55499 0.0
C2874 C 0.18432 0.47758 0.5898 0.0
C2875 C 0.15601 0.47449 0.58107 0.0
C2876 C 0.20116 0.50154 0.5843 0.0
C2877 C 0.18994 0.52257 0.56981 0.0
C2878 C 0.16259 0.51809 0.55885 0.0
C2879 C 0.14582 0.49441 0.56445 0.0
H2880 H 0.22871 0.51569 0.19748 0.0
H2881 H 0.21878 0.59093 0.24333 0.0
H2882 H 0.27447 0.5348 0.18131 0.0
H2883 H 0.26416 0.60978 0.22727 0.0
H2884 H 0.3519 0.63453 0.21384 0.0
H2885 H 0.31536 0.60273 0.23218 0.0
H2886 H 0.29254 0.57332 0.15129 0.0
H2887 H 0.32931 0.60507 0.13323 0.0
C2888 C 0.2362 0.53628 0.20409 0.0
C2889 C 0.21992 0.55179 0.22167 0.0
C2890 C 0.26245 0.54716 0.19486 0.0
C2891 C 0.27321 0.5736 0.20339 0.0
C2892 C 0.25684 0.58909 0.22081 0.0
C2893 C 0.23055 0.5784 0.22972 0.0
C2894 C 0.34026 0.62005 0.20015 0.0
C2895 C 0.3436 0.62206 0.17211 0.0
C2896 C 0.31891 0.60223 0.21058 0.0
C2897 C 0.30049 0.58611 0.19313 0.0
C2898 C 0.30627 0.58552 0.16529 0.0
C2899 C 0.32761 0.60347 0.15489 0.0
H2900 H 0.18871 0.44049 0.97172 0.0
H2901 H 0.2684 0.48346 0.95226 0.0
H2902 H 0.16383 0.47781 0.9535 0.0
H2903 H 0.24356 0.52089 0.93444 0.0
H2904 H 0.18617 0.57701 0.89004 0.0
H2905 H 0.2114 0.53701 0.90083 0.0
H2906 H 0.15861 0.52449 0.97079 0.0
H2907 H 0.13385 0.56477 0.9599 0.0
C2908 C 0.20091 0.45751 0.96289 0.0
C2909 C 0.23054 0.45913 0.96371 0.0
C2910 C 0.18666 0.4791 0.9528 0.0
C2911 C 0.20174 0.50266 0.9432 0.0
C2912 C 0.23129 0.50312 0.9418 0.0
C2913 C 0.24554 0.48159 0.95197 0.0
C2914 C 0.18079 0.56632 0.90819 0.0
C2915 C 0.15874 0.57458 0.9245 0.0
C2916 C 0.19486 0.54309 0.91418 0.0
C2917 C 0.18689 0.52738 0.93656 0.0
C2918 C 0.16494 0.53581 0.95308 0.0
C2919 C 0.15097 0.55907 0.94706 0.0
H2920 H 0.29222 0.48111 0.76472 0.0
H2921 H 0.31316 0.55692 0.7246 0.0
H2922 H 0.24558 0.47778 0.74398 0.0
H2923 H 0.26599 0.55351 0.70316 0.0
H2924 H 0.21085 0.488 0.64244 0.0
H2925 H 0.24557 0.51717 0.66798 0.0
H2926 H 0.19912 0.5007 0.74109 0.0
H2927 H 0.16387 0.4718 0.71509 0.0
C2928 C 0.2867 0.49705 0.75134 0.0
C2929 C 0.30637 0.51872 0.74535 0.0
C2930 C 0.2598 0.49552 0.73995 0.0
C2931 C 0.25197 0.51567 0.72231 0.0
C2932 C 0.27144 0.53789 0.71692 0.0
C2933 C 0.29837 0.53968 0.72884 0.0
C2934 C 0.20685 0.49233 0.66355 0.0
C2935 C 0.18484 0.47762 0.67685 0.0
C2936 C 0.22693 0.50892 0.67831 0.0
C2937 C 0.22546 0.51041 0.70659 0.0
C2938 C 0.20088 0.49947 0.71928 0.0
C2939 C 0.18053 0.48317 0.70438 0.0
H2940 H 0.30654 0.62602 0.43789 0.0
H2941 H 0.23033 0.58857 0.47203 0.0
H2942 H 0.31878 0.58117 0.42063 0.0
H2943 H 0.24301 0.54345 0.45545 0.0
H2944 H 0.31759 0.48257 0.47358 0.0
H2945 H 0.28781 0.52139 0.47562 0.0
H2946 H 0.30431 0.53614 0.39142 0.0
H2947 H 0.33376 0.49705 0.38945 0.0
C2948 C 0.29177 0.60835 0.44055 0.0
C2949 C 0.26741 0.61074 0.45606 0.0
C2950 C 0.29879 0.58265 0.43078 0.0
C2951 C 0.28194 0.55884 0.43694 0.0
C2952 C 0.25633 0.56151 0.45044 0.0
C2953 C 0.24894 0.58735 0.45965 0.0
C2954 C 0.31387 0.49349 0.45533 0.0
C2955 C 0.32748 0.48674 0.43129 0.0
C2956 C 0.29682 0.51561 0.45641 0.0
C2957 C 0.29375 0.53172 0.43363 0.0
C2958 C 0.30624 0.524 0.4092 0.0
C2959 C 0.32292 0.50162 0.40805 0.0
H2960 H 0.28111 0.24965 0.54294 0.0
H2961 H 0.31649 0.20377 0.47735 0.0
H2962 H 0.29975 0.29272 0.52302 0.0
H2963 H 0.33519 0.24642 0.45772 0.0
H2964 H 0.30488 0.31676 0.4092 0.0
H2965 H 0.29686 0.27876 0.43909 0.0
H2966 H 0.34739 0.32283 0.50124 0.0
H2967 H 0.35578 0.36157 0.47094 0.0
C2968 C 0.29416 0.24875 0.52512 0.0
C2969 C 0.29741 0.22348 0.51162 0.0
C2970 C 0.30465 0.27336 0.51365 0.0
C2971 C 0.31845 0.27279 0.48863 0.0
C2972 C 0.32436 0.24737 0.47689 0.0
C2973 C 0.31384 0.22297 0.4882 0.0
C2974 C 0.31423 0.3187 0.42925 0.0
C2975 C 0.33146 0.34217 0.4374 0.0
C2976 C 0.30971 0.29677 0.44633 0.0
C2977 C 0.32208 0.29762 0.47218 0.0
C2978 C 0.33788 0.32162 0.48126 0.0
C2979 C 0.34261 0.34375 0.46393 0.0
H2980 H 0.82809 0.34051 0.50096 0.0
H2981 H 0.83198 0.38444 0.5781 0.0
H2982 H 0.84996 0.30233 0.52117 0.0
H2983 H 0.85372 0.34633 0.59824 0.0
H2984 H 0.83237 0.23066 0.58466 0.0
H2985 H 0.82936 0.26858 0.55377 0.0
H2986 H 0.89307 0.31677 0.60083 0.0
H2987 H 0.89563 0.27902 0.63169 0.0
C2988 C 0.83436 0.34241 0.52205 0.0
C2989 C 0.82797 0.36544 0.53802 0.0
C2990 C 0.84672 0.3204 0.53363 0.0
C2991 C 0.85324 0.32108 0.56136 0.0
C2992 C 0.84915 0.34515 0.57676 0.0
C2993 C 0.83661 0.36707 0.56522 0.0
C2994 C 0.84666 0.24885 0.5875 0.0
C2995 C 0.86447 0.2519 0.61022 0.0
C2996 C 0.84491 0.27066 0.56994 0.0
C2997 C 0.86068 0.2959 0.57513 0.0
C2998 C 0.88036 0.29781 0.59651 0.0
C2999 C 0.88206 0.2761 0.61398 0.0
H3000 H 0.47094 0.09173 0.21552 0.0
H3001 H 0.44299 0.05745 0.29094 0.0
H3002 H 0.51857 0.10215 0.23522 0.0
H3003 H 0.48942 0.06825 0.31049 0.0
H3004 H 0.57425 0.0555 0.33175 0.0
H3005 H 0.53554 0.04684 0.29936 0.0
H3006 H 0.54468 0.13152 0.27651 0.0
H3007 H 0.58443 0.13975 0.30835 0.0
C3008 C 0.47479 0.08718 0.23645 0.0
C3009 C 0.45312 0.07451 0.25196 0.0
C3010 C 0.50194 0.09296 0.24762 0.0
C3011 C 0.50778 0.08542 0.27416 0.0
C3012 C 0.48573 0.07377 0.28979 0.0
C3013 C 0.45889 0.06814 0.27877 0.0
C3014 C 0.5691 0.07181 0.31865 0.0
C3015 C 0.58215 0.0983 0.32254 0.0
C3016 C 0.54667 0.06701 0.30041 0.0
C3017 C 0.53658 0.08875 0.28612 0.0
C3018 C 0.55195 0.11444 0.28739 0.0
C3019 C 0.57479 0.11913 0.30546 0.0
H3020 H 0.68138 0.73907 0.01068 0.0
H3021 H 0.689 0.70884 0.09142 0.0
H3022 H 0.66876 0.78309 0.02954 0.0
H3023 H 0.6759 0.75288 0.11009 0.0
H3024 H 0.70931 0.86076 0.08383 0.0
H3025 H 0.70385 0.81712 0.05812 0.0
H3026 H 0.63682 0.78879 0.11119 0.0
H3027 H 0.64191 0.83288 0.13645 0.0
C3028 C 0.67957 0.74144 0.03241 0.0
C3029 C 0.6866 0.72043 0.04956 0.0
C3030 C 0.6724 0.76675 0.04314 0.0
C3031 C 0.67154 0.77141 0.07121 0.0
C3032 C 0.67623 0.74975 0.08833 0.0
C3033 C 0.68388 0.72456 0.07763 0.0
C3034 C 0.69259 0.84564 0.08915 0.0
C3035 C 0.67562 0.85023 0.11163 0.0
C3036 C 0.68948 0.82067 0.07455 0.0
C3037 C 0.66995 0.79958 0.08276 0.0
C3038 C 0.65197 0.80474 0.10444 0.0
C3039 C 0.6547 0.82997 0.1187 0.0
H3040 H 0.54071 0.55757 0.30213 0.0
H3041 H 0.57348 0.4783 0.28901 0.0
H3042 H 0.49691 0.53566 0.31913 0.0
H3043 H 0.52943 0.4562 0.30665 0.0
H3044 H 0.47562 0.44808 0.38822 0.0
H3045 H 0.51276 0.46097 0.35642 0.0
H3046 H 0.45308 0.50117 0.30815 0.0
H3047 H 0.41528 0.48735 0.34003 0.0
C3048 C 0.53835 0.53537 0.30261 0.0
C3049 C 0.56062 0.5196 0.29472 0.0
C3050 C 0.51313 0.52284 0.312 0.0
C3051 C 0.50978 0.49427 0.31417 0.0
C3052 C 0.53152 0.47831 0.3051 0.0
C3053 C 0.55667 0.49089 0.2951 0.0
C3054 C 0.47033 0.45929 0.37056 0.0
C3055 C 0.44281 0.46717 0.36669 0.0
C3056 C 0.49151 0.46636 0.35219 0.0
C3057 C 0.4858 0.48204 0.32984 0.0
C3058 C 0.45795 0.489 0.32526 0.0
C3059 C 0.43642 0.48123 0.34342 0.0
H3060 H 0.18987 0.83599 0.02776 0.0
H3061 H 0.25069 0.84786 0.96404 0.0
H3062 H 0.175 0.79013 0.00818 0.0
H3063 H 0.23621 0.80262 0.94475 0.0
H3064 H 0.22856 0.71278 0.93223 0.0
H3065 H 0.23992 0.75364 0.96111 0.0
H3066 H 0.1521 0.77076 0.96117 0.0
H3067 H 0.14095 0.7301 0.93183 0.0
C3068 C 0.19977 0.82882 0.00949 0.0
C3069 C 0.22079 0.8455 0.99687 0.0
C3070 C 0.1914 0.80274 -0.0016 0.0
C3071 C 0.20476 0.79283 0.97522 0.0
C3072 C 0.22589 0.8096 0.96288 0.0
C3073 C 0.23388 0.8356 0.97366 0.0
C3074 C 0.21163 0.72477 0.93927 0.0
C3075 C 0.18382 0.71804 0.93054 0.0
C3076 C 0.21808 0.74815 0.9556 0.0
C3077 C 0.19686 0.76531 0.96319 0.0
C3078 C 0.16873 0.75762 0.9559 0.0
C3079 C 0.16231 0.73423 0.93942 0.0
H3080 H 0.45779 0.97539 0.27144 0.0
H3081 H 0.42123 0.94667 0.19464 0.0
H3082 H 0.50059 0.95291 0.26078 0.0
H3083 H 0.46392 0.92386 0.18424 0.0
H3084 H 0.57343 0.9687 0.19286 0.0
H3085 H 0.534 0.97067 0.22391 0.0
H3086 H 0.50109 0.89034 0.19502 0.0
H3087 H 0.54098 0.88838 0.16429 0.0
C3088 C 0.4584 0.9634 0.25271 0.0
C3089 C 0.43628 0.9633 0.23359 0.0
C3090 C 0.483 0.95056 0.24666 0.0
C3091 C 0.48579 0.93695 0.22158 0.0
C3092 C 0.46237 0.93408 0.20384 0.0
C3093 C 0.43787 0.94723 0.20975 0.0
C3094 C 0.55889 0.9507 0.19458 0.0
C3095 C 0.56022 0.92838 0.17635 0.0
C3096 C 0.53607 0.95187 0.21219 0.0
C3097 C 0.51409 0.93088 0.21142 0.0
C3098 C 0.51755 0.90692 0.19582 0.0
C3099 C 0.5406 0.90564 0.17851 0.0
H3100 H 0.05675 0.12397 0.7724 0.0
H3101 H 0.09796 0.11244 0.6958 0.0
H3102 H 0.01673 0.14184 0.74907 0.0
H3103 H 0.05829 0.13095 0.67268 0.0
H3104 H 0.94286 0.11261 0.68135 0.0
H3105 H 0.9822 0.11163 0.71359 0.0
H3106 H 0.02871 0.17545 0.67041 0.0
H3107 H 0.98909 0.17679 0.63865 0.0
C3108 C 0.05775 0.12617 0.75071 0.0
C3109 C 0.08049 0.11675 0.73588 0.0
C3110 C 0.03475 0.13623 0.73741 0.0
C3111 C 0.03447 0.1377 0.70914 0.0
C3112 C 0.05813 0.13024 0.69453 0.0
C3113 C 0.08079 0.11959 0.70773 0.0
C3114 C 0.96094 0.1273 0.67966 0.0
C3115 C 0.9629 0.14515 0.65801 0.0
C3116 C 0.98346 0.12671 0.69797 0.0
C3117 C 0.00847 0.14343 0.69436 0.0
C3118 C 0.00963 0.16244 0.67363 0.0
C3119 C 0.98696 0.16334 0.65564 0.0
loop_
_geom_bond_atom_site_label_1
_geom_bond_atom_site_label_2
_geom_bond_distance
_geom_bond_site_symmetry_2
_ccdc_geom_bond_type
Mn0 O5 2.095 . S
Mn0 O15 2.162 1_455 S
Mn0 O16 2.297 1_455 S
Mn0 O24 2.385 . S
Mn0 O25 2.209 . S
Mn0 O26 2.094 . S
Mn1 O6 2.121 . S
Mn1 N8 2.257 . S
Mn1 N17 2.282 . S
Mn1 O25 2.215 . S
Mn1 O27 2.117 . S
C2 O24 1.234 . S
C2 O25 1.283 . S
C3 O15 1.281 . S
C3 O16 1.236 . S
C4 O26 1.240 . S
C4 O27 1.264 . S
O5 Mn0 2.095 . S
O5 C14 1.246 1_455 S
O6 Mn1 2.121 . S
O6 C14 1.236 1_455 S
C7 N8 1.326 . S
C7 C11 1.460 . S
C7 H13 0.929 . S
N8 Mn1 2.257 . S
N8 C7 1.326 . S
N8 C12 1.362 . S
C9 C10 1.258 . S
C9 C12 1.431 . S
C9 C29 1.449 . S
C10 C9 1.258 . S
C10 C11 1.477 . S
C10 H30 0.931 . S
C11 C7 1.460 . S
C11 C10 1.477 . S
C11 H31 0.930 . S
C12 N8 1.362 . S
C12 C9 1.431 . S
C12 C22 1.476 . S
H13 C7 0.929 . S
C14 O5 1.246 1_655 S
C14 O6 1.236 1_655 S
O15 Mn0 2.162 1_655 S
O15 C3 1.281 . S
O16 Mn0 2.297 1_655 S
O16 C3 1.236 . S
N17 Mn1 2.282 . S
N17 C18 1.328 . S
N17 C22 1.318 . S
C18 N17 1.328 . S
C18 C19 1.457 . S
C18 H23 0.929 . S
C19 C18 1.457 . S
C19 C20 1.291 . S
C19 H32 0.931 . S
C20 C19 1.291 . S
C20 C21 1.373 . S
C20 H33 0.929 . S
C21 C20 1.373 . S
C21 C22 1.396 . S
C21 C28 1.403 . S
C22 C12 1.476 . S
C22 N17 1.318 . S
C22 C21 1.396 . S
H23 C18 0.929 . S
O24 Mn0 2.385 . S
O24 C2 1.234 . S
O25 Mn0 2.209 . S
O25 Mn1 2.215 . S
O25 C2 1.283 . S
O26 Mn0 2.094 . S
O26 C4 1.240 . S
O27 Mn1 2.117 . S
O27 C4 1.264 . S
C28 C21 1.403 . S
C28 C29 1.399 . S
C28 H34 0.929 . S
C29 C9 1.449 . S
C29 C28 1.399 . S
C29 H35 0.930 . S
H30 C10 0.931 . S
H31 C11 0.930 . S
H32 C19 0.931 . S
H33 C20 0.929 . S
H34 C28 0.929 . S
H35 C29 0.930 . S
Mn36 O41 2.095 . S
Mn36 O51 2.162 . S
Mn36 O52 2.297 . S
Mn36 O60 2.385 . S
Mn36 O61 2.209 1_455 S
Mn36 O62 2.094 . S
Mn37 O42 2.121 . S
Mn37 N44 2.257 . S
Mn37 N53 2.282 . S
Mn37 O61 2.215 . S
Mn37 O63 2.117 1_655 S
C38 O60 1.234 1_655 S
C38 O61 1.283 . S
C39 O51 1.281 . S
C39 O52 1.236 . S
C40 O62 1.240 . S
C40 O63 1.264 . S
O41 Mn36 2.095 . S
O41 C50 1.250 1_455 S
O42 Mn37 2.121 . S
O42 C50 1.258 . S
C43 N44 1.326 . S
C43 C47 1.460 . S
C43 H49 0.929 . S
N44 Mn37 2.257 . S
N44 C43 1.326 . S
N44 C48 1.362 . S
C45 C46 1.258 . S
C45 C48 1.431 . S
C45 C65 1.449 . S
C46 C45 1.258 . S
C46 C47 1.477 . S
C46 H66 0.931 . S
C47 C43 1.460 . S
C47 C46 1.477 . S
C47 H67 0.930 . S
C48 N44 1.362 . S
C48 C45 1.431 . S
C48 C58 1.476 . S
H49 C43 0.929 . S
C50 O41 1.250 1_655 S
C50 O42 1.258 . S
O51 Mn36 2.162 . S
O51 C39 1.281 . S
O52 Mn36 2.297 . S
O52 C39 1.236 . S
N53 Mn37 2.282 . S
N53 C54 1.328 . S
N53 C58 1.318 . S
C54 N53 1.328 . S
C54 C55 1.457 . S
C54 H59 0.929 . S
C55 C54 1.457 . S
C55 C56 1.291 . S
C55 H68 0.931 . S
C56 C55 1.291 . S
C56 C57 1.373 . S
C56 H69 0.929 . S
C57 C56 1.373 . S
C57 C58 1.396 . S
C57 C64 1.403 . S
C58 C48 1.476 . S
C58 N53 1.318 . S
C58 C57 1.396 . S
H59 C54 0.929 . S
O60 Mn36 2.385 . S
O60 C38 1.234 1_455 S
O61 Mn36 2.209 1_655 S
O61 Mn37 2.215 . S
O61 C38 1.283 . S
O62 Mn36 2.094 . S
O62 C40 1.240 . S
O63 Mn37 2.117 1_455 S
O63 C40 1.264 . S
C64 C57 1.403 . S
C64 C65 1.399 . S
C64 H70 0.929 . S
C65 C45 1.449 . S
C65 C64 1.399 . S
C65 H71 0.930 . S
H66 C46 0.931 . S
H67 C47 0.930 . S
H68 C55 0.931 . S
H69 C56 0.929 . S
H70 C64 0.929 . S
H71 C65 0.930 . S
Mn72 O77 2.095 . S
Mn72 O87 2.162 . S
Mn72 O88 2.297 . S
Mn72 O96 2.385 . S
Mn72 O97 2.209 . S
Mn72 O98 2.094 . S
Mn73 O78 2.121 . S
Mn73 N80 2.257 . S
Mn73 N89 2.282 . S
Mn73 O97 2.215 . S
Mn73 O99 2.117 . S
C74 O96 1.234 . S
C74 O97 1.283 . S
C75 O87 1.281 . S
C75 O88 1.236 . S
C76 O98 1.240 . S
C76 O99 1.264 . S
O77 Mn72 2.095 . S
O77 C86 1.250 . S
O78 Mn73 2.121 . S
O78 C86 1.258 . S
C79 N80 1.326 . S
C79 C83 1.460 . S
C79 H85 0.929 . S
N80 Mn73 2.257 . S
N80 C79 1.326 . S
N80 C84 1.362 . S
C81 C82 1.258 . S
C81 C84 1.431 . S
C81 C101 1.449 . S
C82 C81 1.258 . S
C82 C83 1.477 . S
C82 H102 0.931 . S
C83 C79 1.460 . S
C83 C82 1.477 . S
C83 H103 0.930 . S
C84 N80 1.362 . S
C84 C81 1.431 . S
C84 C94 1.476 . S
H85 C79 0.929 . S
C86 O77 1.250 . S
C86 O78 1.258 . S
O87 Mn72 2.162 . S
O87 C75 1.281 . S
O88 Mn72 2.297 . S
O88 C75 1.236 . S
N89 Mn73 2.282 . S
N89 C90 1.328 . S
N89 C94 1.318 . S
C90 N89 1.328 . S
C90 C91 1.457 . S
C90 H95 0.929 . S
C91 C90 1.457 . S
C91 C92 1.291 . S
C91 H104 0.931 . S
C92 C91 1.291 . S
C92 C93 1.373 . S
C92 H105 0.929 . S
C93 C92 1.373 . S
C93 C94 1.396 . S
C93 C100 1.403 . S
C94 C84 1.476 . S
C94 N89 1.318 . S
C94 C93 1.396 . S
H95 C90 0.929 . S
O96 Mn72 2.385 . S
O96 C74 1.234 . S
O97 Mn72 2.209 . S
O97 Mn73 2.215 . S
O97 C74 1.283 . S
O98 Mn72 2.094 . S
O98 C76 1.240 . S
O99 Mn73 2.117 . S
O99 C76 1.264 . S
C100 C93 1.403 . S
C100 C101 1.399 . S
C100 H106 0.929 . S
C101 C81 1.449 . S
C101 C100 1.399 . S
C101 H107 0.930 . S
H102 C82 0.931 . S
H103 C83 0.930 . S
H104 C91 0.931 . S
H105 C92 0.929 . S
H106 C100 0.929 . S
H107 C101 0.930 . S
Mn108 O113 2.095 . S
Mn108 O123 2.162 . S
Mn108 O124 2.297 . S
Mn108 O132 2.385 . S
Mn108 O133 2.209 . S
Mn108 O134 2.094 . S
Mn109 O114 2.121 . S
Mn109 N116 2.257 . S
Mn109 N125 2.282 . S
Mn109 O133 2.215 . S
Mn109 O135 2.117 . S
C110 O132 1.234 . S
C110 O133 1.283 . S
C111 O123 1.281 . S
C111 O124 1.236 . S
C112 O134 1.240 . S
C112 O135 1.264 . S
O113 Mn108 2.095 . S
O113 C122 1.250 . S
O114 Mn109 2.121 . S
O114 C122 1.258 . S
C115 N116 1.326 . S
C115 C119 1.460 . S
C115 H121 0.929 . S
N116 Mn109 2.257 . S
N116 C115 1.326 . S
N116 C120 1.362 . S
C117 C118 1.258 . S
C117 C120 1.431 . S
C117 C137 1.449 . S
C118 C117 1.258 . S
C118 C119 1.477 . S
C118 H138 0.931 . S
C119 C115 1.460 . S
C119 C118 1.477 . S
C119 H139 0.930 . S
C120 N116 1.362 . S
C120 C117 1.431 . S
C120 C130 1.476 . S
H121 C115 0.929 . S
C122 O113 1.250 . S
C122 O114 1.258 . S
O123 Mn108 2.162 . S
O123 C111 1.281 . S
O124 Mn108 2.297 . S
O124 C111 1.236 . S
N125 Mn109 2.282 . S
N125 C126 1.328 . S
N125 C130 1.318 . S
C126 N125 1.328 . S
C126 C127 1.457 . S
C126 H131 0.929 . S
C127 C126 1.457 . S
C127 C128 1.291 . S
C127 H140 0.931 . S
C128 C127 1.291 . S
C128 C129 1.373 . S
C128 H141 0.929 . S
C129 C128 1.373 . S
C129 C130 1.396 . S
C129 C136 1.403 . S
C130 C120 1.476 . S
C130 N125 1.318 . S
C130 C129 1.396 . S
H131 C126 0.929 . S
O132 Mn108 2.385 . S
O132 C110 1.234 . S
O133 Mn108 2.209 . S
O133 Mn109 2.215 . S
O133 C110 1.283 . S
O134 Mn108 2.094 . S
O134 C112 1.240 . S
O135 Mn109 2.117 . S
O135 C112 1.264 . S
C136 C129 1.403 . S
C136 C137 1.399 . S
C136 H142 0.929 . S
C137 C117 1.449 . S
C137 C136 1.399 . S
C137 H143 0.930 . S
H138 C118 0.931 . S
H139 C119 0.930 . S
H140 C127 0.931 . S
H141 C128 0.929 . S
H142 C136 0.929 . S
H143 C137 0.930 . S
Mn144 O149 2.095 . S
Mn144 O159 2.162 . S
Mn144 O160 2.297 . S
Mn144 O168 2.385 1_655 S
Mn144 O169 2.209 1_655 S
Mn144 O170 2.094 1_655 S
Mn145 O150 2.121 1_455 S
Mn145 N152 2.257 . S
Mn145 N161 2.282 . S
Mn145 O169 2.215 . S
Mn145 O171 2.117 . S
C146 O168 1.234 . S
C146 O169 1.283 . S
C147 O159 1.281 . S
C147 O160 1.236 . S
C148 O170 1.240 . S
C148 O171 1.264 . S
O149 Mn144 2.095 . S
O149 C158 1.250 . S
O150 Mn145 2.121 1_655 S
O150 C158 1.258 . S
C151 N152 1.326 . S
C151 C155 1.460 . S
C151 H157 0.929 . S
N152 Mn145 2.257 . S
N152 C151 1.326 . S
N152 C156 1.362 . S
C153 C154 1.258 . S
C153 C156 1.431 . S
C153 C173 1.449 . S
C154 C153 1.258 . S
C154 C155 1.477 . S
C154 H174 0.931 . S
C155 C151 1.460 . S
C155 C154 1.477 . S
C155 H175 0.930 . S
C156 N152 1.362 . S
C156 C153 1.431 . S
C156 C166 1.476 . S
H157 C151 0.929 . S
C158 O149 1.250 . S
C158 O150 1.258 . S
O159 Mn144 2.162 . S
O159 C147 1.281 . S
O160 Mn144 2.297 . S
O160 C147 1.236 . S
N161 Mn145 2.282 . S
N161 C162 1.328 . S
N161 C166 1.318 . S
C162 N161 1.328 . S
C162 C163 1.457 . S
C162 H167 0.929 . S
C163 C162 1.457 . S
C163 C164 1.291 . S
C163 H176 0.931 . S
C164 C163 1.291 . S
C164 C165 1.373 . S
C164 H177 0.929 . S
C165 C164 1.373 . S
C165 C166 1.396 . S
C165 C172 1.403 . S
C166 C156 1.476 . S
C166 N161 1.318 . S
C166 C165 1.396 . S
H167 C162 0.929 . S
O168 Mn144 2.385 1_455 S
O168 C146 1.234 . S
O169 Mn144 2.209 1_455 S
O169 Mn145 2.215 . S
O169 C146 1.283 . S
O170 Mn144 2.094 1_455 S
O170 C148 1.240 . S
O171 Mn145 2.117 . S
O171 C148 1.264 . S
C172 C165 1.403 . S
C172 C173 1.399 . S
C172 H178 0.929 . S
C173 C153 1.449 . S
C173 C172 1.399 . S
C173 H179 0.930 . S
H174 C154 0.931 . S
H175 C155 0.930 . S
H176 C163 0.931 . S
H177 C164 0.929 . S
H178 C172 0.929 . S
H179 C173 0.930 . S
Mn180 O185 2.095 . S
Mn180 O195 2.162 . S
Mn180 O196 2.297 . S
Mn180 O204 2.385 . S
Mn180 O205 2.209 . S
Mn180 O206 2.094 . S
Mn181 O186 2.121 . S
Mn181 N188 2.257 . S
Mn181 N197 2.282 . S
Mn181 O205 2.215 . S
Mn181 O207 2.117 . S
C182 O204 1.234 . S
C182 O205 1.283 . S
C183 O195 1.281 . S
C183 O196 1.236 . S
C184 O206 1.240 . S
C184 O207 1.264 . S
O185 Mn180 2.095 . S
O185 C194 1.250 . S
O186 Mn181 2.121 . S
O186 C194 1.258 . S
C187 N188 1.326 . S
C187 C191 1.460 . S
C187 H193 0.929 . S
N188 Mn181 2.257 . S
N188 C187 1.326 . S
N188 C192 1.362 . S
C189 C190 1.258 . S
C189 C192 1.431 . S
C189 C209 1.449 . S
C190 C189 1.258 . S
C190 C191 1.477 . S
C190 H210 0.931 . S
C191 C187 1.460 . S
C191 C190 1.477 . S
C191 H211 0.930 . S
C192 N188 1.362 . S
C192 C189 1.431 . S
C192 C202 1.476 . S
H193 C187 0.929 . S
C194 O185 1.250 . S
C194 O186 1.258 . S
O195 Mn180 2.162 . S
O195 C183 1.281 . S
O196 Mn180 2.297 . S
O196 C183 1.236 . S
N197 Mn181 2.282 . S
N197 C198 1.328 . S
N197 C202 1.318 . S
C198 N197 1.328 . S
C198 C199 1.457 . S
C198 H203 0.929 . S
C199 C198 1.457 . S
C199 C200 1.291 . S
C199 H212 0.931 . S
C200 C199 1.291 . S
C200 C201 1.373 . S
C200 H213 0.929 . S
C201 C200 1.373 . S
C201 C202 1.396 . S
C201 C208 1.403 . S
C202 C192 1.476 . S
C202 N197 1.318 . S
C202 C201 1.396 . S
H203 C198 0.929 . S
O204 Mn180 2.385 . S
O204 C182 1.234 . S
O205 Mn180 2.209 . S
O205 Mn181 2.215 . S
O205 C182 1.283 . S
O206 Mn180 2.094 . S
O206 C184 1.240 . S
O207 Mn181 2.117 . S
O207 C184 1.264 . S
C208 C201 1.403 . S
C208 C209 1.399 . S
C208 H214 0.929 . S
C209 C189 1.449 . S
C209 C208 1.399 . S
C209 H215 0.930 . S
H210 C190 0.931 . S
H211 C191 0.930 . S
H212 C199 0.931 . S
H213 C200 0.929 . S
H214 C208 0.929 . S
H215 C209 0.930 . S
Mn216 O221 2.095 . S
Mn216 O231 2.162 . S
Mn216 O232 2.297 . S
Mn216 O240 2.385 . S
Mn216 O241 2.209 . S
Mn216 O242 2.094 . S
Mn217 O222 2.121 . S
Mn217 N224 2.257 . S
Mn217 N233 2.282 . S
Mn217 O241 2.215 . S
Mn217 O243 2.117 . S
C218 O240 1.234 . S
C218 O241 1.283 . S
C219 O231 1.281 . S
C219 O232 1.236 . S
C220 O242 1.240 . S
C220 O243 1.264 . S
O221 Mn216 2.095 . S
O221 C230 1.250 . S
O222 Mn217 2.121 . S
O222 C230 1.258 . S
C223 N224 1.326 . S
C223 C227 1.460 . S
C223 H229 0.929 . S
N224 Mn217 2.257 . S
N224 C223 1.326 . S
N224 C228 1.362 . S
C225 C226 1.258 . S
C225 C228 1.431 . S
C225 C245 1.449 . S
C226 C225 1.258 . S
C226 C227 1.477 . S
C226 H246 0.931 . S
C227 C223 1.460 . S
C227 C226 1.477 . S
C227 H247 0.930 . S
C228 N224 1.362 . S
C228 C225 1.431 . S
C228 C238 1.476 . S
H229 C223 0.929 . S
C230 O221 1.250 . S
C230 O222 1.258 . S
O231 Mn216 2.162 . S
O231 C219 1.281 . S
O232 Mn216 2.297 . S
O232 C219 1.236 . S
N233 Mn217 2.282 . S
N233 C234 1.328 . S
N233 C238 1.318 . S
C234 N233 1.328 . S
C234 C235 1.457 . S
C234 H239 0.929 . S
C235 C234 1.457 . S
C235 C236 1.291 . S
C235 H248 0.931 . S
C236 C235 1.291 . S
C236 C237 1.373 . S
C236 H249 0.929 . S
C237 C236 1.373 . S
C237 C238 1.396 . S
C237 C244 1.403 . S
C238 C228 1.476 . S
C238 N233 1.318 . S
C238 C237 1.396 . S
H239 C234 0.929 . S
O240 Mn216 2.385 . S
O240 C218 1.234 . S
O241 Mn216 2.209 . S
O241 Mn217 2.215 . S
O241 C218 1.283 . S
O242 Mn216 2.094 . S
O242 C220 1.240 . S
O243 Mn217 2.117 . S
O243 C220 1.264 . S
C244 C237 1.403 . S
C244 C245 1.399 . S
C244 H250 0.929 . S
C245 C225 1.449 . S
C245 C244 1.399 . S
C245 H251 0.930 . S
H246 C226 0.931 . S
H247 C227 0.930 . S
H248 C235 0.931 . S
H249 C236 0.929 . S
H250 C244 0.929 . S
H251 C245 0.930 . S
Mn252 O257 2.095 . S
Mn252 O267 2.162 . S
Mn252 O268 2.297 . S
Mn252 O276 2.385 . S
Mn252 O277 2.209 . S
Mn252 O278 2.094 . S
Mn253 O258 2.121 . S
Mn253 N260 2.257 . S
Mn253 N269 2.282 . S
Mn253 O277 2.215 1_655 S
Mn253 O279 2.117 1_655 S
C254 O276 1.234 . S
C254 O277 1.283 . S
C255 O267 1.281 . S
C255 O268 1.236 . S
C256 O278 1.240 . S
C256 O279 1.264 . S
O257 Mn252 2.095 . S
O257 C266 1.250 . S
O258 Mn253 2.121 . S
O258 C266 1.258 1_655 S
C259 N260 1.326 . S
C259 C263 1.460 . S
C259 H265 0.929 . S
N260 Mn253 2.257 . S
N260 C259 1.326 . S
N260 C264 1.362 . S
C261 C262 1.258 . S
C261 C264 1.431 . S
C261 C281 1.449 . S
C262 C261 1.258 . S
C262 C263 1.477 . S
C262 H282 0.931 . S
C263 C259 1.460 . S
C263 C262 1.477 . S
C263 H283 0.930 . S
C264 N260 1.362 . S
C264 C261 1.431 . S
C264 C274 1.476 . S
H265 C259 0.929 . S
C266 O257 1.250 . S
C266 O258 1.258 1_455 S
O267 Mn252 2.162 . S
O267 C255 1.281 . S
O268 Mn252 2.297 . S
O268 C255 1.236 . S
N269 Mn253 2.282 . S
N269 C270 1.328 1_655 S
N269 C274 1.318 . S
C270 N269 1.328 1_455 S
C270 C271 1.457 1_455 S
C270 H275 0.929 . S
C271 C270 1.457 1_655 S
C271 C272 1.291 . S
C271 H284 0.931 1_655 S
C272 C271 1.291 . S
C272 C273 1.373 . S
C272 H285 0.929 . S
C273 C272 1.373 . S
C273 C274 1.396 . S
C273 C280 1.403 . S
C274 C264 1.476 . S
C274 N269 1.318 . S
C274 C273 1.396 . S
H275 C270 0.929 . S
O276 Mn252 2.385 . S
O276 C254 1.234 . S
O277 Mn252 2.209 . S
O277 Mn253 2.215 1_455 S
O277 C254 1.283 . S
O278 Mn252 2.094 . S
O278 C256 1.240 . S
O279 Mn253 2.117 1_455 S
O279 C256 1.264 . S
C280 C273 1.403 . S
C280 C281 1.399 . S
C280 H286 0.929 . S
C281 C261 1.449 . S
C281 C280 1.399 . S
C281 H287 0.930 . S
H282 C262 0.931 . S
H283 C263 0.930 . S
H284 C271 0.931 1_455 S
H285 C272 0.929 . S
H286 C280 0.929 . S
H287 C281 0.930 . S
Mn288 O293 2.105 . S
Mn288 O303 2.172 . S
Mn288 O304 2.311 . S
Mn288 O312 2.373 1_565 S
Mn288 O313 2.201 1_565 S
Mn288 O314 2.082 1_565 S
Mn289 O294 2.121 1_545 S
Mn289 N296 2.257 . S
Mn289 N305 2.282 . S
Mn289 O313 2.215 . S
Mn289 O315 2.117 . S
C290 O312 1.234 . S
C290 O313 1.283 . S
C291 O303 1.281 . S
C291 O304 1.236 . S
C292 O314 1.240 . S
C292 O315 1.264 . S
O293 Mn288 2.105 . S
O293 C302 1.250 . S
O294 Mn289 2.121 1_565 S
O294 C302 1.258 . S
C295 N296 1.326 . S
C295 C299 1.460 . S
C295 H301 0.894 1_545 S
N296 Mn289 2.257 . S
N296 C295 1.326 . S
N296 C300 1.362 . S
C297 C298 1.258 . S
C297 C300 1.431 . S
C297 C317 1.449 . S
C298 C297 1.258 . S
C298 C299 1.477 . S
C298 H318 0.931 . S
C299 C295 1.460 . S
C299 C298 1.477 . S
C299 H319 0.930 . S
C300 N296 1.362 . S
C300 C297 1.431 . S
C300 C310 1.476 . S
H301 C295 0.894 1_565 S
C302 O293 1.250 . S
C302 O294 1.258 . S
O303 Mn288 2.172 . S
O303 C291 1.281 . S
O304 Mn288 2.311 . S
O304 C291 1.236 . S
N305 Mn289 2.282 . S
N305 C306 1.328 . S
N305 C310 1.318 . S
C306 N305 1.328 . S
C306 C307 1.457 . S
C306 H311 0.929 . S
C307 C306 1.457 . S
C307 C308 1.291 . S
C307 H320 0.931 . S
C308 C307 1.291 . S
C308 C309 1.373 . S
C308 H321 0.929 . S
C309 C308 1.373 . S
C309 C310 1.396 . S
C309 C316 1.403 . S
C310 C300 1.476 . S
C310 N305 1.318 . S
C310 C309 1.396 . S
H311 C306 0.929 . S
O312 Mn288 2.373 1_545 S
O312 C290 1.234 . S
O313 Mn288 2.201 1_545 S
O313 Mn289 2.215 . S
O313 C290 1.283 . S
O314 Mn288 2.082 1_545 S
O314 C292 1.240 . S
O315 Mn289 2.117 . S
O315 C292 1.264 . S
C316 C309 1.403 . S
C316 C317 1.399 . S
C316 H322 0.929 . S
C317 C297 1.449 . S
C317 C316 1.399 . S
C317 H323 0.930 . S
H318 C298 0.931 . S
H319 C299 0.930 . S
H320 C307 0.931 . S
H321 C308 0.929 . S
H322 C316 0.929 . S
H323 C317 0.930 . S
Mn324 O329 2.095 . S
Mn324 O339 2.162 . S
Mn324 O340 2.297 . S
Mn324 O348 2.385 . S
Mn324 O349 2.209 . S
Mn324 O350 2.094 . S
Mn325 O330 2.121 . S
Mn325 N332 2.257 . S
Mn325 N341 2.282 . S
Mn325 O349 2.215 . S
Mn325 O351 2.117 . S
C326 O348 1.234 . S
C326 O349 1.283 . S
C327 O339 1.281 . S
C327 O340 1.236 . S
C328 O350 1.240 . S
C328 O351 1.264 . S
O329 Mn324 2.095 . S
O329 C338 1.250 . S
O330 Mn325 2.121 . S
O330 C338 1.258 . S
C331 N332 1.326 . S
C331 C335 1.460 . S
C331 H337 0.929 . S
N332 Mn325 2.257 . S
N332 C331 1.326 . S
N332 C336 1.362 . S
C333 C334 1.258 . S
C333 C336 1.431 . S
C333 C353 1.449 . S
C334 C333 1.258 . S
C334 C335 1.477 . S
C334 H354 0.931 . S
C335 C331 1.460 . S
C335 C334 1.477 . S
C335 H355 0.930 . S
C336 N332 1.362 . S
C336 C333 1.431 . S
C336 C346 1.476 . S
H337 C331 0.929 . S
C338 O329 1.250 . S
C338 O330 1.258 . S
O339 Mn324 2.162 . S
O339 C327 1.281 . S
O340 Mn324 2.297 . S
O340 C327 1.236 . S
N341 Mn325 2.282 . S
N341 C342 1.328 . S
N341 C346 1.318 . S
C342 N341 1.328 . S
C342 C343 1.457 . S
C342 H347 0.929 . S
C343 C342 1.457 . S
C343 C344 1.291 . S
C343 H356 0.931 . S
C344 C343 1.291 . S
C344 C345 1.373 . S
C344 H357 0.929 . S
C345 C344 1.373 . S
C345 C346 1.396 . S
C345 C352 1.403 . S
C346 C336 1.476 . S
C346 N341 1.318 . S
C346 C345 1.396 . S
H347 C342 0.929 . S
O348 Mn324 2.385 . S
O348 C326 1.234 . S
O349 Mn324 2.209 . S
O349 Mn325 2.215 . S
O349 C326 1.283 . S
O350 Mn324 2.094 . S
O350 C328 1.240 . S
O351 Mn325 2.117 . S
O351 C328 1.264 . S
C352 C345 1.403 . S
C352 C353 1.399 . S
C352 H358 0.929 . S
C353 C333 1.449 . S
C353 C352 1.399 . S
C353 H359 0.930 . S
H354 C334 0.931 . S
H355 C335 0.930 . S
H356 C343 0.931 . S
H357 C344 0.929 . S
H358 C352 0.929 . S
H359 C353 0.930 . S
Mn360 O365 2.095 . S
Mn360 O375 2.162 . S
Mn360 O376 2.297 . S
Mn360 O384 2.385 . S
Mn360 O385 2.209 . S
Mn360 O386 2.094 . S
Mn361 O366 2.121 . S
Mn361 N368 2.257 . S
Mn361 N377 2.282 . S
Mn361 O385 2.215 . S
Mn361 O387 2.117 . S
C362 O384 1.234 . S
C362 O385 1.283 . S
C363 O375 1.281 . S
C363 O376 1.236 . S
C364 O386 1.240 . S
C364 O387 1.264 . S
O365 Mn360 2.095 . S
O365 C374 1.250 . S
O366 Mn361 2.121 . S
O366 C374 1.258 . S
C367 N368 1.326 . S
C367 C371 1.460 . S
C367 H373 0.929 . S
N368 Mn361 2.257 . S
N368 C367 1.326 . S
N368 C372 1.362 . S
C369 C370 1.258 . S
C369 C372 1.431 . S
C369 C389 1.449 . S
C370 C369 1.258 . S
C370 C371 1.477 . S
C370 H390 0.931 . S
C371 C367 1.460 . S
C371 C370 1.477 . S
C371 H391 0.930 . S
C372 N368 1.362 . S
C372 C369 1.431 . S
C372 C382 1.476 . S
H373 C367 0.929 . S
C374 O365 1.250 . S
C374 O366 1.258 . S
O375 Mn360 2.162 . S
O375 C363 1.281 . S
O376 Mn360 2.297 . S
O376 C363 1.236 . S
N377 Mn361 2.282 . S
N377 C378 1.328 . S
N377 C382 1.318 . S
C378 N377 1.328 . S
C378 C379 1.457 . S
C378 H383 0.929 . S
C379 C378 1.457 . S
C379 C380 1.291 . S
C379 H392 0.931 . S
C380 C379 1.291 . S
C380 C381 1.373 . S
C380 H393 0.929 . S
C381 C380 1.373 . S
C381 C382 1.396 . S
C381 C388 1.403 . S
C382 C372 1.476 . S
C382 N377 1.318 . S
C382 C381 1.396 . S
H383 C378 0.929 . S
O384 Mn360 2.385 . S
O384 C362 1.234 . S
O385 Mn360 2.209 . S
O385 Mn361 2.215 . S
O385 C362 1.283 . S
O386 Mn360 2.094 . S
O386 C364 1.240 . S
O387 Mn361 2.117 . S
O387 C364 1.264 . S
C388 C381 1.403 . S
C388 C389 1.399 . S
C388 H394 0.929 . S
C389 C369 1.449 . S
C389 C388 1.399 . S
C389 H395 0.930 . S
H390 C370 0.931 . S
H391 C371 0.930 . S
H392 C379 0.931 . S
H393 C380 0.929 . S
H394 C388 0.929 . S
H395 C389 0.930 . S
Mn396 O401 2.095 . S
Mn396 O411 2.162 . S
Mn396 O412 2.297 . S
Mn396 O420 2.385 . S
Mn396 O421 2.209 1_554 S
Mn396 O422 2.094 . S
Mn397 O402 2.121 . S
Mn397 N404 2.257 . S
Mn397 N413 2.282 . S
Mn397 O421 2.214 . S
Mn397 O423 2.117 1_556 S
C398 O420 1.234 . S
C398 O421 1.284 1_554 S
C399 O411 1.281 . S
C399 O412 1.236 . S
C400 O422 1.240 . S
C400 O423 1.264 . S
O401 Mn396 2.095 . S
O401 C410 1.260 . S
O402 Mn397 2.121 . S
O402 C410 1.251 1_556 S
C403 N404 1.326 . S
C403 C407 1.460 . S
C403 H409 0.929 . S
N404 Mn397 2.257 . S
N404 C403 1.326 . S
N404 C408 1.362 . S
C405 C406 1.258 . S
C405 C408 1.431 . S
C405 C425 1.449 . S
C406 C405 1.258 . S
C406 C407 1.477 . S
C406 H426 0.931 . S
C407 C403 1.460 . S
C407 C406 1.477 . S
C407 H427 0.930 . S
C408 N404 1.362 . S
C408 C405 1.431 . S
C408 C418 1.476 . S
H409 C403 0.929 . S
C410 O401 1.260 . S
C410 O402 1.251 1_554 S
O411 Mn396 2.162 . S
O411 C399 1.281 . S
O412 Mn396 2.297 . S
O412 C399 1.236 . S
N413 Mn397 2.282 . S
N413 C414 1.328 1_556 S
N413 C418 1.318 . S
C414 N413 1.328 1_554 S
C414 C415 1.457 1_554 S
C414 H419 0.929 . S
C415 C414 1.457 1_556 S
C415 C416 1.291 . S
C415 H428 0.931 1_556 S
C416 C415 1.291 . S
C416 C417 1.373 . S
C416 H429 0.929 . S
C417 C416 1.373 . S
C417 C418 1.396 . S
C417 C424 1.403 . S
C418 C408 1.476 . S
C418 N413 1.318 . S
C418 C417 1.396 . S
H419 C414 0.929 . S
O420 Mn396 2.385 . S
O420 C398 1.234 . S
O421 Mn396 2.209 1_556 S
O421 Mn397 2.214 . S
O421 C398 1.284 1_556 S
O422 Mn396 2.094 . S
O422 C400 1.240 . S
O423 Mn397 2.117 1_554 S
O423 C400 1.264 . S
C424 C417 1.403 . S
C424 C425 1.399 . S
C424 H430 0.929 . S
C425 C405 1.449 . S
C425 C424 1.399 . S
C425 H431 0.930 . S
H426 C406 0.931 . S
H427 C407 0.930 . S
H428 C415 0.931 1_554 S
H429 C416 0.929 . S
H430 C424 0.929 . S
H431 C425 0.930 . S
Mn432 O437 2.095 1_554 S
Mn432 O447 2.162 1_554 S
Mn432 O448 2.297 1_554 S
Mn432 O456 2.385 . S
Mn432 O457 2.209 . S
Mn432 O458 2.094 . S
Mn433 O438 2.125 1_554 S
Mn433 N440 2.257 . S
Mn433 N449 2.282 . S
Mn433 O457 2.215 . S
Mn433 O459 2.117 . S
C434 O456 1.234 . S
C434 O457 1.283 . S
C435 O447 1.281 . S
C435 O448 1.236 . S
C436 O458 1.240 . S
C436 O459 1.264 . S
O437 Mn432 2.095 1_556 S
O437 C446 1.250 . S
O438 Mn433 2.125 1_556 S
O438 C446 1.255 . S
C439 N440 1.326 . S
C439 C443 1.460 . S
C439 H445 0.929 . S
N440 Mn433 2.257 . S
N440 C439 1.326 . S
N440 C444 1.362 . S
C441 C442 1.258 . S
C441 C444 1.431 . S
C441 C461 1.449 . S
C442 C441 1.258 . S
C442 C443 1.477 . S
C442 H462 0.931 . S
C443 C439 1.460 . S
C443 C442 1.477 . S
C443 H463 0.930 . S
C444 N440 1.362 . S
C444 C441 1.431 . S
C444 C454 1.476 . S
H445 C439 0.929 . S
C446 O437 1.250 . S
C446 O438 1.255 . S
O447 Mn432 2.162 1_556 S
O447 C435 1.281 . S
O448 Mn432 2.297 1_556 S
O448 C435 1.236 . S
N449 Mn433 2.282 . S
N449 C450 1.328 . S
N449 C454 1.318 . S
C450 N449 1.328 . S
C450 C451 1.457 . S
C450 H455 0.929 . S
C451 C450 1.457 . S
C451 C452 1.291 . S
C451 H464 0.931 . S
C452 C451 1.291 . S
C452 C453 1.373 . S
C452 H465 0.929 . S
C453 C452 1.373 . S
C453 C454 1.396 . S
C453 C460 1.403 . S
C454 C444 1.476 . S
C454 N449 1.318 . S
C454 C453 1.396 . S
H455 C450 0.929 . S
O456 Mn432 2.385 . S
O456 C434 1.234 . S
O457 Mn432 2.209 . S
O457 Mn433 2.215 . S
O457 C434 1.283 . S
O458 Mn432 2.094 . S
O458 C436 1.240 . S
O459 Mn433 2.117 . S
O459 C436 1.264 . S
C460 C453 1.403 . S
C460 C461 1.399 . S
C460 H466 0.929 . S
C461 C441 1.449 . S
C461 C460 1.399 . S
C461 H467 0.930 . S
H462 C442 0.931 . S
H463 C443 0.930 . S
H464 C451 0.931 . S
H465 C452 0.929 . S
H466 C460 0.929 . S
H467 C461 0.930 . S
Mn468 O473 2.098 1_554 S
Mn468 O483 2.164 1_554 S
Mn468 O484 2.300 1_554 S
Mn468 O492 2.382 . S
Mn468 O493 2.207 . S
Mn468 O494 2.091 . S
Mn469 O474 2.121 1_554 S
Mn469 N476 2.257 . S
Mn469 N485 2.282 . S
Mn469 O493 2.215 . S
Mn469 O495 2.117 . S
C470 O492 1.234 . S
C470 O493 1.283 . S
C471 O483 1.281 . S
C471 O484 1.236 . S
C472 O494 1.240 . S
C472 O495 1.264 . S
O473 Mn468 2.098 1_556 S
O473 C482 1.250 . S
O474 Mn469 2.121 1_556 S
O474 C482 1.258 . S
C475 N476 1.326 . S
C475 C479 1.460 . S
C475 H481 0.929 1_554 S
N476 Mn469 2.257 . S
N476 C475 1.326 . S
N476 C480 1.362 . S
C477 C478 1.258 . S
C477 C480 1.431 . S
C477 C497 1.449 . S
C478 C477 1.258 . S
C478 C479 1.477 . S
C478 H498 0.931 . S
C479 C475 1.460 . S
C479 C478 1.477 . S
C479 H499 0.930 . S
C480 N476 1.362 . S
C480 C477 1.431 . S
C480 C490 1.476 . S
H481 C475 0.929 1_556 S
C482 O473 1.250 . S
C482 O474 1.258 . S
O483 Mn468 2.164 1_556 S
O483 C471 1.281 . S
O484 Mn468 2.300 1_556 S
O484 C471 1.236 . S
N485 Mn469 2.282 . S
N485 C486 1.328 . S
N485 C490 1.318 . S
C486 N485 1.328 . S
C486 C487 1.457 . S
C486 H491 0.929 . S
C487 C486 1.457 . S
C487 C488 1.291 . S
C487 H500 0.931 . S
C488 C487 1.291 . S
C488 C489 1.373 . S
C488 H501 0.929 . S
C489 C488 1.373 . S
C489 C490 1.396 . S
C489 C496 1.403 . S
C490 C480 1.476 . S
C490 N485 1.318 . S
C490 C489 1.396 . S
H491 C486 0.929 . S
O492 Mn468 2.382 . S
O492 C470 1.234 . S
O493 Mn468 2.207 . S
O493 Mn469 2.215 . S
O493 C470 1.283 . S
O494 Mn468 2.091 . S
O494 C472 1.240 . S
O495 Mn469 2.117 . S
O495 C472 1.264 . S
C496 C489 1.403 . S
C496 C497 1.399 . S
C496 H502 0.929 . S
C497 C477 1.449 . S
C497 C496 1.399 . S
C497 H503 0.930 . S
H498 C478 0.931 . S
H499 C479 0.930 . S
H500 C487 0.931 . S
H501 C488 0.929 . S
H502 C496 0.929 . S
H503 C497 0.930 . S
Mn504 O509 2.095 . S
Mn504 O519 2.162 . S
Mn504 O520 2.297 . S
Mn504 O528 2.385 . S
Mn504 O529 2.209 . S
Mn504 O530 2.094 . S
Mn505 O510 2.121 . S
Mn505 N512 2.257 . S
Mn505 N521 2.282 . S
Mn505 O529 2.215 . S
Mn505 O531 2.117 . S
C506 O528 1.234 . S
C506 O529 1.283 . S
C507 O519 1.281 . S
C507 O520 1.236 . S
C508 O530 1.240 . S
C508 O531 1.264 . S
O509 Mn504 2.095 . S
O509 C518 1.250 . S
O510 Mn505 2.121 . S
O510 C518 1.258 . S
C511 N512 1.326 . S
C511 C515 1.460 . S
C511 H517 0.929 . S
N512 Mn505 2.257 . S
N512 C511 1.326 . S
N512 C516 1.362 . S
C513 C514 1.258 . S
C513 C516 1.431 . S
C513 C533 1.449 . S
C514 C513 1.258 . S
C514 C515 1.477 . S
C514 H534 0.931 . S
C515 C511 1.460 . S
C515 C514 1.477 . S
C515 H535 0.930 . S
C516 N512 1.362 . S
C516 C513 1.431 . S
C516 C526 1.476 . S
H517 C511 0.929 . S
C518 O509 1.250 . S
C518 O510 1.258 . S
O519 Mn504 2.162 . S
O519 C507 1.281 . S
O520 Mn504 2.297 . S
O520 C507 1.236 . S
N521 Mn505 2.282 . S
N521 C522 1.328 . S
N521 C526 1.318 . S
C522 N521 1.328 . S
C522 C523 1.457 . S
C522 H527 0.929 . S
C523 C522 1.457 . S
C523 C524 1.291 . S
C523 H536 0.931 . S
C524 C523 1.291 . S
C524 C525 1.373 . S
C524 H537 0.929 . S
C525 C524 1.373 . S
C525 C526 1.396 . S
C525 C532 1.403 . S
C526 C516 1.476 . S
C526 N521 1.318 . S
C526 C525 1.396 . S
H527 C522 0.929 . S
O528 Mn504 2.385 . S
O528 C506 1.234 . S
O529 Mn504 2.209 . S
O529 Mn505 2.215 . S
O529 C506 1.283 . S
O530 Mn504 2.094 . S
O530 C508 1.240 . S
O531 Mn505 2.117 . S
O531 C508 1.264 . S
C532 C525 1.403 . S
C532 C533 1.399 . S
C532 H538 0.929 . S
C533 C513 1.449 . S
C533 C532 1.399 . S
C533 H539 0.930 . S
H534 C514 0.931 . S
H535 C515 0.930 . S
H536 C523 0.931 . S
H537 C524 0.929 . S
H538 C532 0.929 . S
H539 C533 0.930 . S
Mn540 O545 2.095 . S
Mn540 O555 2.162 . S
Mn540 O556 2.297 . S
Mn540 O564 2.385 . S
Mn540 O565 2.209 . S
Mn540 O566 2.094 . S
Mn541 O546 2.121 . S
Mn541 N548 2.257 . S
Mn541 N557 2.282 . S
Mn541 O565 2.215 . S
Mn541 O567 2.117 . S
C542 O564 1.234 . S
C542 O565 1.283 . S
C543 O555 1.281 . S
C543 O556 1.236 . S
C544 O566 1.240 . S
C544 O567 1.264 . S
O545 Mn540 2.095 . S
O545 C554 1.250 . S
O546 Mn541 2.121 . S
O546 C554 1.258 . S
C547 N548 1.326 . S
C547 C551 1.460 . S
C547 H553 0.929 . S
N548 Mn541 2.257 . S
N548 C547 1.326 . S
N548 C552 1.362 . S
C549 C550 1.258 . S
C549 C552 1.431 . S
C549 C569 1.449 . S
C550 C549 1.258 . S
C550 C551 1.477 . S
C550 H570 0.931 . S
C551 C547 1.460 . S
C551 C550 1.477 . S
C551 H571 0.930 . S
C552 N548 1.362 . S
C552 C549 1.431 . S
C552 C562 1.476 . S
H553 C547 0.929 . S
C554 O545 1.250 . S
C554 O546 1.258 . S
O555 Mn540 2.162 . S
O555 C543 1.281 . S
O556 Mn540 2.297 . S
O556 C543 1.236 . S
N557 Mn541 2.282 . S
N557 C558 1.328 . S
N557 C562 1.318 . S
C558 N557 1.328 . S
C558 C559 1.457 . S
C558 H563 0.929 . S
C559 C558 1.457 . S
C559 C560 1.291 . S
C559 H572 0.931 . S
C560 C559 1.291 . S
C560 C561 1.373 . S
C560 H573 0.929 . S
C561 C560 1.373 . S
C561 C562 1.396 . S
C561 C568 1.403 . S
C562 C552 1.476 . S
C562 N557 1.318 . S
C562 C561 1.396 . S
H563 C558 0.929 . S
O564 Mn540 2.385 . S
O564 C542 1.234 . S
O565 Mn540 2.209 . S
O565 Mn541 2.215 . S
O565 C542 1.283 . S
O566 Mn540 2.094 . S
O566 C544 1.240 . S
O567 Mn541 2.117 . S
O567 C544 1.264 . S
C568 C561 1.403 . S
C568 C569 1.399 . S
C568 H574 0.929 . S
C569 C549 1.449 . S
C569 C568 1.399 . S
C569 H575 0.930 . S
H570 C550 0.931 . S
H571 C551 0.930 . S
H572 C559 0.931 . S
H573 C560 0.929 . S
H574 C568 0.929 . S
H575 C569 0.930 . S
Mn576 O581 2.095 . S
Mn576 O591 2.162 . S
Mn576 O592 2.297 . S
Mn576 O600 2.385 . S
Mn576 O601 2.209 1_545 S
Mn576 O602 2.094 . S
Mn577 O582 2.121 . S
Mn577 N584 2.257 . S
Mn577 N593 2.282 . S
Mn577 O601 2.215 . S
Mn577 O603 2.117 1_565 S
C578 O600 1.234 1_565 S
C578 O601 1.283 . S
C579 O591 1.281 . S
C579 O592 1.236 . S
C580 O602 1.240 . S
C580 O603 1.264 . S
O581 Mn576 2.095 . S
O581 C590 1.250 1_545 S
O582 Mn577 2.121 . S
O582 C590 1.258 . S
C583 N584 1.326 . S
C583 C587 1.460 . S
C583 H589 0.929 . S
N584 Mn577 2.257 . S
N584 C583 1.326 . S
N584 C588 1.362 . S
C585 C586 1.258 . S
C585 C588 1.431 . S
C585 C605 1.449 . S
C586 C585 1.258 . S
C586 C587 1.477 . S
C586 H606 0.931 . S
C587 C583 1.460 . S
C587 C586 1.477 . S
C587 H607 0.930 . S
C588 N584 1.362 . S
C588 C585 1.431 . S
C588 C598 1.476 . S
H589 C583 0.929 . S
C590 O581 1.250 1_565 S
C590 O582 1.258 . S
O591 Mn576 2.162 . S
O591 C579 1.281 . S
O592 Mn576 2.297 . S
O592 C579 1.236 . S
N593 Mn577 2.282 . S
N593 C594 1.328 . S
N593 C598 1.318 . S
C594 N593 1.328 . S
C594 C595 1.457 . S
C594 H599 0.928 1_565 S
C595 C594 1.457 . S
C595 C596 1.291 . S
C595 H608 0.931 . S
C596 C595 1.291 . S
C596 C597 1.373 . S
C596 H609 0.929 . S
C597 C596 1.373 . S
C597 C598 1.396 . S
C597 C604 1.403 . S
C598 C588 1.476 . S
C598 N593 1.318 . S
C598 C597 1.396 . S
H599 C594 0.928 1_545 S
O600 Mn576 2.385 . S
O600 C578 1.234 1_545 S
O601 Mn576 2.209 1_565 S
O601 Mn577 2.215 . S
O601 C578 1.283 . S
O602 Mn576 2.094 . S
O602 C580 1.240 . S
O603 Mn577 2.117 1_545 S
O603 C580 1.264 . S
C604 C597 1.403 . S
C604 C605 1.399 . S
C604 H610 0.929 . S
C605 C585 1.449 . S
C605 C604 1.399 . S
C605 H611 0.930 . S
H606 C586 0.931 . S
H607 C587 0.930 . S
H608 C595 0.931 . S
H609 C596 0.929 . S
H610 C604 0.929 . S
H611 C605 0.930 . S
Mn612 O617 2.095 . S
Mn612 O627 2.162 . S
Mn612 O628 2.297 . S
Mn612 O636 2.385 . S
Mn612 O637 2.209 . S
Mn612 O638 2.094 . S
Mn613 O618 2.121 . S
Mn613 N620 2.257 . S
Mn613 N629 2.282 . S
Mn613 O637 2.215 . S
Mn613 O639 2.117 . S
C614 O636 1.234 . S
C614 O637 1.283 . S
C615 O627 1.281 . S
C615 O628 1.236 . S
C616 O638 1.240 . S
C616 O639 1.264 . S
O617 Mn612 2.095 . S
O617 C626 1.250 . S
O618 Mn613 2.121 . S
O618 C626 1.258 . S
C619 N620 1.326 . S
C619 C623 1.460 . S
C619 H625 0.929 . S
N620 Mn613 2.257 . S
N620 C619 1.326 . S
N620 C624 1.362 . S
C621 C622 1.258 . S
C621 C624 1.431 . S
C621 C641 1.449 . S
C622 C621 1.258 . S
C622 C623 1.477 . S
C622 H642 0.931 . S
C623 C619 1.460 . S
C623 C622 1.477 . S
C623 H643 0.930 . S
C624 N620 1.362 . S
C624 C621 1.431 . S
C624 C634 1.476 . S
H625 C619 0.929 . S
C626 O617 1.250 . S
C626 O618 1.258 . S
O627 Mn612 2.162 . S
O627 C615 1.281 . S
O628 Mn612 2.297 . S
O628 C615 1.236 . S
N629 Mn613 2.282 . S
N629 C630 1.328 . S
N629 C634 1.318 . S
C630 N629 1.328 . S
C630 C631 1.457 . S
C630 H635 0.929 . S
C631 C630 1.457 . S
C631 C632 1.291 . S
C631 H644 0.931 . S
C632 C631 1.291 . S
C632 C633 1.373 . S
C632 H645 0.929 . S
C633 C632 1.373 . S
C633 C634 1.396 . S
C633 C640 1.403 . S
C634 C624 1.476 . S
C634 N629 1.318 . S
C634 C633 1.396 . S
H635 C630 0.929 . S
O636 Mn612 2.385 . S
O636 C614 1.234 . S
O637 Mn612 2.209 . S
O637 Mn613 2.215 . S
O637 C614 1.283 . S
O638 Mn612 2.094 . S
O638 C616 1.240 . S
O639 Mn613 2.117 . S
O639 C616 1.264 . S
C640 C633 1.403 . S
C640 C641 1.399 . S
C640 H646 0.929 . S
C641 C621 1.449 . S
C641 C640 1.399 . S
C641 H647 0.930 . S
H642 C622 0.931 . S
H643 C623 0.930 . S
H644 C631 0.931 . S
H645 C632 0.929 . S
H646 C640 0.929 . S
H647 C641 0.930 . S
Mn648 O653 2.095 . S
Mn648 O663 2.162 . S
Mn648 O664 2.297 . S
Mn648 O672 2.385 . S
Mn648 O673 2.209 . S
Mn648 O674 2.094 . S
Mn649 O654 2.121 . S
Mn649 N656 2.257 . S
Mn649 N665 2.282 . S
Mn649 O673 2.215 . S
Mn649 O675 2.117 . S
C650 O672 1.234 . S
C650 O673 1.283 . S
C651 O663 1.281 . S
C651 O664 1.236 . S
C652 O674 1.240 . S
C652 O675 1.264 . S
O653 Mn648 2.095 . S
O653 C662 1.250 . S
O654 Mn649 2.121 . S
O654 C662 1.258 . S
C655 N656 1.326 . S
C655 C659 1.460 . S
C655 H661 0.929 . S
N656 Mn649 2.257 . S
N656 C655 1.326 . S
N656 C660 1.362 . S
C657 C658 1.258 . S
C657 C660 1.431 . S
C657 C677 1.449 . S
C658 C657 1.258 . S
C658 C659 1.477 . S
C658 H678 0.931 . S
C659 C655 1.460 . S
C659 C658 1.477 . S
C659 H679 0.930 . S
C660 N656 1.362 . S
C660 C657 1.431 . S
C660 C670 1.476 . S
H661 C655 0.929 . S
C662 O653 1.250 . S
C662 O654 1.258 . S
O663 Mn648 2.162 . S
O663 C651 1.281 . S
O664 Mn648 2.297 . S
O664 C651 1.236 . S
N665 Mn649 2.282 . S
N665 C666 1.328 . S
N665 C670 1.318 . S
C666 N665 1.328 . S
C666 C667 1.457 . S
C666 H671 0.929 . S
C667 C666 1.457 . S
C667 C668 1.291 . S
C667 H680 0.931 . S
C668 C667 1.291 . S
C668 C669 1.373 . S
C668 H681 0.929 . S
C669 C668 1.373 . S
C669 C670 1.396 . S
C669 C676 1.403 . S
C670 C660 1.476 . S
C670 N665 1.318 . S
C670 C669 1.396 . S
H671 C666 0.929 . S
O672 Mn648 2.385 . S
O672 C650 1.234 . S
O673 Mn648 2.209 . S
O673 Mn649 2.215 . S
O673 C650 1.283 . S
O674 Mn648 2.094 . S
O674 C652 1.240 . S
O675 Mn649 2.117 . S
O675 C652 1.264 . S
C676 C669 1.403 . S
C676 C677 1.399 . S
C676 H682 0.929 . S
C677 C657 1.449 . S
C677 C676 1.399 . S
C677 H683 0.930 . S
H678 C658 0.931 . S
H679 C659 0.930 . S
H680 C667 0.931 . S
H681 C668 0.929 . S
H682 C676 0.929 . S
H683 C677 0.930 . S
Mn684 O689 2.095 . S
Mn684 O699 2.162 . S
Mn684 O700 2.297 . S
Mn684 O708 2.385 . S
Mn684 O709 2.209 . S
Mn684 O710 2.094 . S
Mn685 O690 2.121 . S
Mn685 N692 2.257 1_545 S
Mn685 N701 2.282 . S
Mn685 O709 2.215 . S
Mn685 O711 2.117 . S
C686 O708 1.234 . S
C686 O709 1.283 . S
C687 O699 1.281 . S
C687 O700 1.236 . S
C688 O710 1.240 . S
C688 O711 1.264 . S
O689 Mn684 2.095 . S
O689 C698 1.250 . S
O690 Mn685 2.121 . S
O690 C698 1.258 . S
C691 N692 1.326 . S
C691 C695 1.460 . S
C691 H697 0.929 . S
N692 Mn685 2.257 1_565 S
N692 C691 1.326 . S
N692 C696 1.362 . S
C693 C694 1.258 . S
C693 C696 1.431 . S
C693 C713 1.449 . S
C694 C693 1.258 . S
C694 C695 1.477 . S
C694 H714 0.931 . S
C695 C691 1.460 . S
C695 C694 1.477 . S
C695 H715 0.930 . S
C696 N692 1.362 . S
C696 C693 1.431 . S
C696 C706 1.476 . S
H697 C691 0.929 . S
C698 O689 1.250 . S
C698 O690 1.258 . S
O699 Mn684 2.162 . S
O699 C687 1.281 . S
O700 Mn684 2.297 . S
O700 C687 1.236 . S
N701 Mn685 2.282 . S
N701 C702 1.328 . S
N701 C706 1.318 1_545 S
C702 N701 1.328 . S
C702 C703 1.457 . S
C702 H707 0.929 . S
C703 C702 1.457 . S
C703 C704 1.291 1_545 S
C703 H716 0.931 . S
C704 C703 1.291 1_565 S
C704 C705 1.373 . S
C704 H717 0.929 . S
C705 C704 1.373 . S
C705 C706 1.396 . S
C705 C712 1.403 . S
C706 C696 1.476 . S
C706 N701 1.318 1_565 S
C706 C705 1.396 . S
H707 C702 0.929 . S
O708 Mn684 2.385 . S
O708 C686 1.234 . S
O709 Mn684 2.209 . S
O709 Mn685 2.215 . S
O709 C686 1.283 . S
O710 Mn684 2.094 . S
O710 C688 1.240 . S
O711 Mn685 2.117 . S
O711 C688 1.264 . S
C712 C705 1.403 . S
C712 C713 1.399 . S
C712 H718 0.929 . S
C713 C693 1.449 . S
C713 C712 1.399 . S
C713 H719 0.930 . S
H714 C694 0.931 . S
H715 C695 0.930 . S
H716 C703 0.931 . S
H717 C704 0.929 . S
H718 C712 0.929 . S
H719 C713 0.930 . S
Mn720 O725 2.095 . S
Mn720 O735 2.162 . S
Mn720 O736 2.297 . S
Mn720 O744 2.385 . S
Mn720 O745 2.209 1_554 S
Mn720 O746 2.094 . S
Mn721 O726 2.121 . S
Mn721 N728 2.257 . S
Mn721 N737 2.282 . S
Mn721 O745 2.215 . S
Mn721 O747 2.117 1_556 S
C722 O744 1.234 1_556 S
C722 O745 1.283 . S
C723 O735 1.281 . S
C723 O736 1.236 . S
C724 O746 1.240 . S
C724 O747 1.264 . S
O725 Mn720 2.095 . S
O725 C734 1.250 1_554 S
O726 Mn721 2.121 . S
O726 C734 1.258 . S
C727 N728 1.326 . S
C727 C731 1.460 . S
C727 H733 0.929 . S
N728 Mn721 2.257 . S
N728 C727 1.326 . S
N728 C732 1.362 . S
C729 C730 1.258 . S
C729 C732 1.431 . S
C729 C749 1.449 . S
C730 C729 1.258 . S
C730 C731 1.477 . S
C730 H750 0.931 . S
C731 C727 1.460 . S
C731 C730 1.477 . S
C731 H751 0.930 . S
C732 N728 1.362 . S
C732 C729 1.431 . S
C732 C742 1.476 . S
H733 C727 0.929 . S
C734 O725 1.250 1_556 S
C734 O726 1.258 . S
O735 Mn720 2.162 . S
O735 C723 1.281 . S
O736 Mn720 2.297 . S
O736 C723 1.236 . S
N737 Mn721 2.282 . S
N737 C738 1.328 . S
N737 C742 1.318 . S
C738 N737 1.328 . S
C738 C739 1.457 . S
C738 H743 0.929 1_556 S
C739 C738 1.457 . S
C739 C740 1.291 . S
C739 H752 0.931 . S
C740 C739 1.291 . S
C740 C741 1.373 . S
C740 H753 0.929 . S
C741 C740 1.373 . S
C741 C742 1.396 . S
C741 C748 1.403 . S
C742 C732 1.476 . S
C742 N737 1.318 . S
C742 C741 1.396 . S
H743 C738 0.929 1_554 S
O744 Mn720 2.385 . S
O744 C722 1.234 1_554 S
O745 Mn720 2.209 1_556 S
O745 Mn721 2.215 . S
O745 C722 1.283 . S
O746 Mn720 2.094 . S
O746 C724 1.240 . S
O747 Mn721 2.117 1_554 S
O747 C724 1.264 . S
C748 C741 1.403 . S
C748 C749 1.399 . S
C748 H754 0.929 . S
C749 C729 1.449 . S
C749 C748 1.399 . S
C749 H755 0.930 . S
H750 C730 0.931 . S
H751 C731 0.930 . S
H752 C739 0.931 . S
H753 C740 0.929 . S
H754 C748 0.929 . S
H755 C749 0.930 . S
Mn756 O761 2.095 . S
Mn756 O771 2.162 . S
Mn756 O772 2.297 . S
Mn756 O780 2.385 . S
Mn756 O781 2.209 . S
Mn756 O782 2.094 . S
Mn757 O762 2.121 . S
Mn757 N764 2.257 . S
Mn757 N773 2.282 . S
Mn757 O781 2.215 . S
Mn757 O783 2.117 . S
C758 O780 1.234 . S
C758 O781 1.283 . S
C759 O771 1.281 . S
C759 O772 1.236 . S
C760 O782 1.240 . S
C760 O783 1.264 . S
O761 Mn756 2.095 . S
O761 C770 1.250 . S
O762 Mn757 2.121 . S
O762 C770 1.258 . S
C763 N764 1.326 . S
C763 C767 1.460 . S
C763 H769 0.929 . S
N764 Mn757 2.257 . S
N764 C763 1.326 . S
N764 C768 1.362 . S
C765 C766 1.258 . S
C765 C768 1.431 . S
C765 C785 1.449 . S
C766 C765 1.258 . S
C766 C767 1.477 . S
C766 H786 0.931 . S
C767 C763 1.460 . S
C767 C766 1.477 . S
C767 H787 0.930 . S
C768 N764 1.362 . S
C768 C765 1.431 . S
C768 C778 1.476 . S
H769 C763 0.929 . S
C770 O761 1.250 . S
C770 O762 1.258 . S
O771 Mn756 2.162 . S
O771 C759 1.281 . S
O772 Mn756 2.297 . S
O772 C759 1.236 . S
N773 Mn757 2.282 . S
N773 C774 1.328 . S
N773 C778 1.318 . S
C774 N773 1.328 . S
C774 C775 1.457 . S
C774 H779 0.929 . S
C775 C774 1.457 . S
C775 C776 1.291 . S
C775 H788 0.931 . S
C776 C775 1.291 . S
C776 C777 1.373 . S
C776 H789 0.929 . S
C777 C776 1.373 . S
C777 C778 1.396 . S
C777 C784 1.403 . S
C778 C768 1.476 . S
C778 N773 1.318 . S
C778 C777 1.396 . S
H779 C774 0.929 . S
O780 Mn756 2.385 . S
O780 C758 1.234 . S
O781 Mn756 2.209 . S
O781 Mn757 2.215 . S
O781 C758 1.283 . S
O782 Mn756 2.094 . S
O782 C760 1.240 . S
O783 Mn757 2.117 . S
O783 C760 1.264 . S
C784 C777 1.403 . S
C784 C785 1.399 . S
C784 H790 0.929 . S
C785 C765 1.449 . S
C785 C784 1.399 . S
C785 H791 0.930 . S
H786 C766 0.931 . S
H787 C767 0.930 . S
H788 C775 0.931 . S
H789 C776 0.929 . S
H790 C784 0.929 . S
H791 C785 0.930 . S
Mn792 O797 2.095 . S
Mn792 O807 2.162 . S
Mn792 O808 2.297 . S
Mn792 O816 2.385 . S
Mn792 O817 2.209 . S
Mn792 O818 2.094 . S
Mn793 O798 2.121 . S
Mn793 N800 2.257 . S
Mn793 N809 2.282 . S
Mn793 O817 2.215 . S
Mn793 O819 2.117 . S
C794 O816 1.234 . S
C794 O817 1.283 . S
C795 O807 1.281 . S
C795 O808 1.236 . S
C796 O818 1.240 . S
C796 O819 1.264 . S
O797 Mn792 2.095 . S
O797 C806 1.250 . S
O798 Mn793 2.121 . S
O798 C806 1.258 . S
C799 N800 1.326 . S
C799 C803 1.460 . S
C799 H805 0.929 . S
N800 Mn793 2.257 . S
N800 C799 1.326 . S
N800 C804 1.362 . S
C801 C802 1.258 . S
C801 C804 1.431 . S
C801 C821 1.449 . S
C802 C801 1.258 . S
C802 C803 1.477 . S
C802 H822 0.931 . S
C803 C799 1.460 . S
C803 C802 1.477 . S
C803 H823 0.930 . S
C804 N800 1.362 . S
C804 C801 1.431 . S
C804 C814 1.476 . S
H805 C799 0.929 . S
C806 O797 1.250 . S
C806 O798 1.258 . S
O807 Mn792 2.162 . S
O807 C795 1.281 . S
O808 Mn792 2.297 . S
O808 C795 1.236 . S
N809 Mn793 2.282 . S
N809 C810 1.328 . S
N809 C814 1.318 . S
C810 N809 1.328 . S
C810 C811 1.457 . S
C810 H815 0.929 . S
C811 C810 1.457 . S
C811 C812 1.291 . S
C811 H824 0.931 . S
C812 C811 1.291 . S
C812 C813 1.373 . S
C812 H825 0.929 . S
C813 C812 1.373 . S
C813 C814 1.396 . S
C813 C820 1.403 . S
C814 C804 1.476 . S
C814 N809 1.318 . S
C814 C813 1.396 . S
H815 C810 0.929 . S
O816 Mn792 2.385 . S
O816 C794 1.234 . S
O817 Mn792 2.209 . S
O817 Mn793 2.215 . S
O817 C794 1.283 . S
O818 Mn792 2.094 . S
O818 C796 1.240 . S
O819 Mn793 2.117 . S
O819 C796 1.264 . S
C820 C813 1.403 . S
C820 C821 1.399 . S
C820 H826 0.929 . S
C821 C801 1.449 . S
C821 C820 1.399 . S
C821 H827 0.930 . S
H822 C802 0.931 . S
H823 C803 0.930 . S
H824 C811 0.931 . S
H825 C812 0.929 . S
H826 C820 0.929 . S
H827 C821 0.930 . S
Mn828 O833 2.095 . S
Mn828 O843 2.162 . S
Mn828 O844 2.297 . S
Mn828 O852 2.385 . S
Mn828 O853 2.209 . S
Mn828 O854 2.094 . S
Mn829 O834 2.121 . S
Mn829 N836 2.257 . S
Mn829 N845 2.282 . S
Mn829 O853 2.215 . S
Mn829 O855 2.117 . S
C830 O852 1.234 . S
C830 O853 1.283 . S
C831 O843 1.281 . S
C831 O844 1.236 . S
C832 O854 1.240 . S
C832 O855 1.264 . S
O833 Mn828 2.095 . S
O833 C842 1.250 . S
O834 Mn829 2.121 . S
O834 C842 1.258 . S
C835 N836 1.326 . S
C835 C839 1.460 . S
C835 H841 0.929 . S
N836 Mn829 2.257 . S
N836 C835 1.326 . S
N836 C840 1.362 . S
C837 C838 1.258 . S
C837 C840 1.431 . S
C837 C857 1.449 . S
C838 C837 1.258 . S
C838 C839 1.477 . S
C838 H858 0.931 . S
C839 C835 1.460 . S
C839 C838 1.477 . S
C839 H859 0.930 . S
C840 N836 1.362 . S
C840 C837 1.431 . S
C840 C850 1.476 . S
H841 C835 0.929 . S
C842 O833 1.250 . S
C842 O834 1.258 . S
O843 Mn828 2.162 . S
O843 C831 1.281 . S
O844 Mn828 2.297 . S
O844 C831 1.236 . S
N845 Mn829 2.282 . S
N845 C846 1.328 . S
N845 C850 1.318 . S
C846 N845 1.328 . S
C846 C847 1.457 . S
C846 H851 0.929 . S
C847 C846 1.457 . S
C847 C848 1.291 . S
C847 H860 0.931 . S
C848 C847 1.291 . S
C848 C849 1.373 . S
C848 H861 0.929 . S
C849 C848 1.373 . S
C849 C850 1.396 . S
C849 C856 1.403 . S
C850 C840 1.476 . S
C850 N845 1.318 . S
C850 C849 1.396 . S
H851 C846 0.929 . S
O852 Mn828 2.385 . S
O852 C830 1.234 . S
O853 Mn828 2.209 . S
O853 Mn829 2.215 . S
O853 C830 1.283 . S
O854 Mn828 2.094 . S
O854 C832 1.240 . S
O855 Mn829 2.117 . S
O855 C832 1.264 . S
C856 C849 1.403 . S
C856 C857 1.399 . S
C856 H862 0.929 . S
C857 C837 1.449 . S
C857 C856 1.399 . S
C857 H863 0.930 . S
H858 C838 0.931 . S
H859 C839 0.930 . S
H860 C847 0.931 . S
H861 C848 0.929 . S
H862 C856 0.929 . S
H863 C857 0.930 . S
O864 Mn865 2.163 . S
O864 C878 1.244 . S
Mn865 O864 2.163 . S
Mn865 O868 2.160 . S
Mn865 O869 2.221 . S
Mn865 O871 2.163 . S
Mn865 O873 2.160 . S
Mn865 O883 2.221 . S
O866 Mn867 2.087 . S
O866 C878 1.256 . S
Mn867 O866 2.087 . S
Mn867 O874 2.089 . S
Mn867 O883 2.290 . S
Mn867 O884 2.251 . S
O868 Mn865 2.160 . S
O868 C879 1.239 . S
O869 Mn865 2.221 . S
O869 Mn870 2.290 . S
O869 C880 1.278 . S
Mn870 O869 2.290 . S
Mn870 O872 2.089 . S
Mn870 O875 2.251 . S
Mn870 O876 2.087 . S
O871 Mn865 2.163 . S
O871 C881 1.244 . S
O872 Mn870 2.089 . S
O872 C879 1.256 . S
O873 Mn865 2.160 . S
O873 C882 1.239 . S
O874 Mn867 2.089 . S
O874 C882 1.256 . S
O875 Mn870 2.251 . S
O875 C880 1.241 . S
O876 Mn870 2.087 . S
O876 C881 1.256 . S
C877 O883 1.278 . S
C877 O884 1.241 . S
C878 O864 1.244 . S
C878 O866 1.256 . S
C879 O868 1.239 . S
C879 O872 1.256 . S
C880 O869 1.278 . S
C880 O875 1.241 . S
C881 O871 1.244 . S
C881 O876 1.256 . S
C882 O873 1.239 . S
C882 O874 1.256 . S
O883 Mn865 2.221 . S
O883 Mn867 2.290 . S
O883 C877 1.278 . S
O884 Mn867 2.251 . S
O884 C877 1.241 . S
O885 Mn886 2.163 . S
O885 C899 1.244 . S
Mn886 O885 2.163 . S
Mn886 O889 2.160 . S
Mn886 O890 2.221 . S
Mn886 O892 2.163 . S
Mn886 O894 2.160 . S
Mn886 O904 2.221 . S
O887 Mn888 2.087 . S
O887 C899 1.256 . S
Mn888 O887 2.087 . S
Mn888 O895 2.089 . S
Mn888 O904 2.290 . S
Mn888 O905 2.251 . S
O889 Mn886 2.160 . S
O889 C900 1.239 . S
O890 Mn886 2.221 . S
O890 Mn891 2.290 . S
O890 C901 1.278 . S
Mn891 O890 2.290 . S
Mn891 O893 2.089 . S
Mn891 O896 2.251 . S
Mn891 O897 2.087 . S
O892 Mn886 2.163 . S
O892 C902 1.244 . S
O893 Mn891 2.089 . S
O893 C900 1.256 . S
O894 Mn886 2.160 . S
O894 C903 1.239 . S
O895 Mn888 2.089 . S
O895 C903 1.256 . S
O896 Mn891 2.251 . S
O896 C901 1.241 . S
O897 Mn891 2.087 . S
O897 C902 1.256 . S
C898 O904 1.278 . S
C898 O905 1.241 . S
C899 O885 1.244 . S
C899 O887 1.256 . S
C900 O889 1.239 . S
C900 O893 1.256 . S
C901 O890 1.278 . S
C901 O896 1.241 . S
C902 O892 1.244 . S
C902 O897 1.256 . S
C903 O894 1.239 . S
C903 O895 1.256 . S
O904 Mn886 2.221 . S
O904 Mn888 2.290 . S
O904 C898 1.278 . S
O905 Mn888 2.251 . S
O905 C898 1.241 . S
O906 Mn907 2.163 . S
O906 C920 1.244 . S
Mn907 O906 2.163 . S
Mn907 O910 2.160 . S
Mn907 O911 2.221 . S
Mn907 O913 2.163 . S
Mn907 O915 2.160 . S
Mn907 O925 2.221 . S
O908 Mn909 2.087 . S
O908 C920 1.256 . S
Mn909 O908 2.087 . S
Mn909 O916 2.089 . S
Mn909 O925 2.290 . S
Mn909 O926 2.251 . S
O910 Mn907 2.160 . S
O910 C921 1.239 . S
O911 Mn907 2.221 . S
O911 Mn912 2.290 . S
O911 C922 1.278 . S
Mn912 O911 2.290 . S
Mn912 O914 2.089 . S
Mn912 O917 2.251 . S
Mn912 O918 2.087 . S
O913 Mn907 2.163 . S
O913 C923 1.244 . S
O914 Mn912 2.089 . S
O914 C921 1.256 . S
O915 Mn907 2.160 . S
O915 C924 1.239 . S
O916 Mn909 2.089 . S
O916 C924 1.256 . S
O917 Mn912 2.251 . S
O917 C922 1.241 . S
O918 Mn912 2.087 . S
O918 C923 1.256 . S
C919 O925 1.278 . S
C919 O926 1.241 . S
C920 O906 1.244 . S
C920 O908 1.256 . S
C921 O910 1.239 . S
C921 O914 1.256 . S
C922 O911 1.278 . S
C922 O917 1.241 . S
C923 O913 1.244 . S
C923 O918 1.256 . S
C924 O915 1.239 . S
C924 O916 1.256 . S
O925 Mn907 2.221 . S
O925 Mn909 2.290 . S
O925 C919 1.278 . S
O926 Mn909 2.251 . S
O926 C919 1.241 . S
O927 Mn928 2.163 . S
O927 C941 1.244 . S
Mn928 O927 2.163 . S
Mn928 O931 2.160 . S
Mn928 O932 2.221 . S
Mn928 O934 2.163 . S
Mn928 O936 2.160 . S
Mn928 O946 2.221 . S
O929 Mn930 2.087 . S
O929 C941 1.256 . S
Mn930 O929 2.087 . S
Mn930 O937 2.089 . S
Mn930 O946 2.290 . S
Mn930 O947 2.251 . S
O931 Mn928 2.160 . S
O931 C942 1.239 . S
O932 Mn928 2.221 . S
O932 Mn933 2.290 . S
O932 C943 1.278 . S
Mn933 O932 2.290 . S
Mn933 O935 2.089 . S
Mn933 O938 2.251 . S
Mn933 O939 2.087 . S
O934 Mn928 2.163 . S
O934 C944 1.244 . S
O935 Mn933 2.089 . S
O935 C942 1.256 . S
O936 Mn928 2.160 . S
O936 C945 1.239 . S
O937 Mn930 2.089 . S
O937 C945 1.256 . S
O938 Mn933 2.251 . S
O938 C943 1.241 . S
O939 Mn933 2.087 . S
O939 C944 1.256 . S
C940 O946 1.278 . S
C940 O947 1.241 . S
C941 O927 1.244 . S
C941 O929 1.256 . S
C942 O931 1.239 . S
C942 O935 1.256 . S
C943 O932 1.278 . S
C943 O938 1.241 . S
C944 O934 1.244 . S
C944 O939 1.256 . S
C945 O936 1.239 . S
C945 O937 1.256 . S
O946 Mn928 2.221 . S
O946 Mn930 2.290 . S
O946 C940 1.278 . S
O947 Mn930 2.251 . S
O947 C940 1.241 . S
O948 Mn949 2.163 . S
O948 C962 1.244 . S
Mn949 O948 2.163 . S
Mn949 O952 2.160 . S
Mn949 O953 2.221 . S
Mn949 O955 2.163 . S
Mn949 O957 2.160 . S
Mn949 O967 2.221 . S
O950 Mn951 2.087 . S
O950 C962 1.256 . S
Mn951 O950 2.087 . S
Mn951 O958 2.089 . S
Mn951 O967 2.290 . S
Mn951 O968 2.251 . S
O952 Mn949 2.160 . S
O952 C963 1.239 . S
O953 Mn949 2.221 . S
O953 Mn954 2.290 . S
O953 C964 1.278 . S
Mn954 O953 2.290 . S
Mn954 O956 2.089 . S
Mn954 O959 2.251 . S
Mn954 O960 2.087 . S
O955 Mn949 2.163 . S
O955 C965 1.244 . S
O956 Mn954 2.089 . S
O956 C963 1.256 . S
O957 Mn949 2.160 . S
O957 C966 1.239 . S
O958 Mn951 2.089 . S
O958 C966 1.256 . S
O959 Mn954 2.251 . S
O959 C964 1.241 . S
O960 Mn954 2.087 . S
O960 C965 1.256 . S
C961 O967 1.278 . S
C961 O968 1.241 . S
C962 O948 1.244 . S
C962 O950 1.256 . S
C963 O952 1.239 . S
C963 O956 1.256 . S
C964 O953 1.278 . S
C964 O959 1.241 . S
C965 O955 1.244 . S
C965 O960 1.256 . S
C966 O957 1.239 . S
C966 O958 1.256 . S
O967 Mn949 2.221 . S
O967 Mn951 2.290 . S
O967 C961 1.278 . S
O968 Mn951 2.251 . S
O968 C961 1.241 . S
O969 Mn970 2.163 . S
O969 C983 1.244 . S
Mn970 O969 2.163 . S
Mn970 O973 2.160 . S
Mn970 O974 2.221 . S
Mn970 O976 2.163 . S
Mn970 O978 2.160 . S
Mn970 O988 2.221 . S
O971 Mn972 2.087 . S
O971 C983 1.256 . S
Mn972 O971 2.087 . S
Mn972 O979 2.089 . S
Mn972 O988 2.290 . S
Mn972 O989 2.251 . S
O973 Mn970 2.160 . S
O973 C984 1.239 . S
O974 Mn970 2.221 . S
O974 Mn975 2.290 . S
O974 C985 1.278 . S
Mn975 O974 2.290 . S
Mn975 O977 2.089 . S
Mn975 O980 2.251 . S
Mn975 O981 2.087 . S
O976 Mn970 2.163 . S
O976 C986 1.244 . S
O977 Mn975 2.089 . S
O977 C984 1.256 . S
O978 Mn970 2.160 . S
O978 C987 1.239 . S
O979 Mn972 2.089 . S
O979 C987 1.256 . S
O980 Mn975 2.251 . S
O980 C985 1.241 . S
O981 Mn975 2.087 . S
O981 C986 1.256 . S
C982 O988 1.278 . S
C982 O989 1.241 . S
C983 O969 1.244 . S
C983 O971 1.256 . S
C984 O973 1.239 . S
C984 O977 1.256 . S
C985 O974 1.278 . S
C985 O980 1.241 . S
C986 O976 1.244 . S
C986 O981 1.256 . S
C987 O978 1.239 . S
C987 O979 1.256 . S
O988 Mn970 2.221 . S
O988 Mn972 2.290 . S
O988 C982 1.278 . S
O989 Mn972 2.251 . S
O989 C982 1.241 . S
O990 Mn991 2.163 . S
O990 C1004 1.244 . S
Mn991 O990 2.163 . S
Mn991 O994 2.160 . S
Mn991 O995 2.221 . S
Mn991 O997 2.163 . S
Mn991 O999 2.160 . S
Mn991 O1009 2.221 . S
O992 Mn993 2.087 . S
O992 C1004 1.256 . S
Mn993 O992 2.087 . S
Mn993 O1000 2.089 . S
Mn993 O1009 2.290 . S
Mn993 O1010 2.251 . S
O994 Mn991 2.160 . S
O994 C1005 1.239 . S
O995 Mn991 2.221 . S
O995 Mn996 2.290 . S
O995 C1006 1.278 . S
Mn996 O995 2.290 . S
Mn996 O998 2.089 . S
Mn996 O1001 2.251 . S
Mn996 O1002 2.087 . S
O997 Mn991 2.163 . S
O997 C1007 1.244 . S
O998 Mn996 2.089 . S
O998 C1005 1.256 . S
O999 Mn991 2.160 . S
O999 C1008 1.239 . S
O1000 Mn993 2.089 . S
O1000 C1008 1.256 . S
O1001 Mn996 2.251 . S
O1001 C1006 1.241 . S
O1002 Mn996 2.087 . S
O1002 C1007 1.256 . S
C1003 O1009 1.278 . S
C1003 O1010 1.241 . S
C1004 O990 1.244 . S
C1004 O992 1.256 . S
C1005 O994 1.239 . S
C1005 O998 1.256 . S
C1006 O995 1.278 . S
C1006 O1001 1.241 . S
C1007 O997 1.244 . S
C1007 O1002 1.256 . S
C1008 O999 1.239 . S
C1008 O1000 1.256 . S
O1009 Mn991 2.221 . S
O1009 Mn993 2.290 . S
O1009 C1003 1.278 . S
O1010 Mn993 2.251 . S
O1010 C1003 1.241 . S
O1011 Mn1012 2.163 . S
O1011 C1025 1.244 . S
Mn1012 O1011 2.163 . S
Mn1012 O1015 2.160 . S
Mn1012 O1016 2.221 . S
Mn1012 O1018 2.163 . S
Mn1012 O1020 2.160 . S
Mn1012 O1030 2.221 . S
O1013 Mn1014 2.087 . S
O1013 C1025 1.256 . S
Mn1014 O1013 2.087 . S
Mn1014 O1021 2.089 . S
Mn1014 O1030 2.290 . S
Mn1014 O1031 2.251 . S
O1015 Mn1012 2.160 . S
O1015 C1026 1.239 . S
O1016 Mn1012 2.221 . S
O1016 Mn1017 2.290 . S
O1016 C1027 1.278 . S
Mn1017 O1016 2.290 . S
Mn1017 O1019 2.089 . S
Mn1017 O1022 2.251 . S
Mn1017 O1023 2.087 . S
O1018 Mn1012 2.163 . S
O1018 C1028 1.244 . S
O1019 Mn1017 2.089 . S
O1019 C1026 1.256 . S
O1020 Mn1012 2.160 . S
O1020 C1029 1.239 . S
O1021 Mn1014 2.089 . S
O1021 C1029 1.256 . S
O1022 Mn1017 2.251 . S
O1022 C1027 1.241 . S
O1023 Mn1017 2.087 . S
O1023 C1028 1.256 . S
C1024 O1030 1.278 . S
C1024 O1031 1.241 . S
C1025 O1011 1.244 . S
C1025 O1013 1.256 . S
C1026 O1015 1.239 . S
C1026 O1019 1.256 . S
C1027 O1016 1.278 . S
C1027 O1022 1.241 . S
C1028 O1018 1.244 . S
C1028 O1023 1.256 . S
C1029 O1020 1.239 . S
C1029 O1021 1.256 . S
O1030 Mn1012 2.221 . S
O1030 Mn1014 2.290 . S
O1030 C1024 1.278 . S
O1031 Mn1014 2.251 . S
O1031 C1024 1.241 . S
O1032 Mn1033 2.163 . S
O1032 C1046 1.244 . S
Mn1033 O1032 2.163 . S
Mn1033 O1036 2.160 . S
Mn1033 O1037 2.221 . S
Mn1033 O1039 2.163 . S
Mn1033 O1041 2.160 . S
Mn1033 O1051 2.221 . S
O1034 Mn1035 2.087 . S
O1034 C1046 1.256 . S
Mn1035 O1034 2.087 . S
Mn1035 O1042 2.089 . S
Mn1035 O1051 2.290 . S
Mn1035 O1052 2.251 . S
O1036 Mn1033 2.160 . S
O1036 C1047 1.239 . S
O1037 Mn1033 2.221 . S
O1037 Mn1038 2.290 . S
O1037 C1048 1.278 . S
Mn1038 O1037 2.290 . S
Mn1038 O1040 2.089 . S
Mn1038 O1043 2.251 . S
Mn1038 O1044 2.087 . S
O1039 Mn1033 2.163 . S
O1039 C1049 1.244 . S
O1040 Mn1038 2.089 . S
O1040 C1047 1.256 . S
O1041 Mn1033 2.160 . S
O1041 C1050 1.239 . S
O1042 Mn1035 2.089 . S
O1042 C1050 1.256 . S
O1043 Mn1038 2.251 . S
O1043 C1048 1.241 . S
O1044 Mn1038 2.087 . S
O1044 C1049 1.256 . S
C1045 O1051 1.278 . S
C1045 O1052 1.241 . S
C1046 O1032 1.244 . S
C1046 O1034 1.256 . S
C1047 O1036 1.239 . S
C1047 O1040 1.256 . S
C1048 O1037 1.278 . S
C1048 O1043 1.241 . S
C1049 O1039 1.244 . S
C1049 O1044 1.256 . S
C1050 O1041 1.239 . S
C1050 O1042 1.256 . S
O1051 Mn1033 2.221 . S
O1051 Mn1035 2.290 . S
O1051 C1045 1.278 . S
O1052 Mn1035 2.251 . S
O1052 C1045 1.241 . S
O1053 Mn1054 2.163 . S
O1053 C1067 1.244 . S
Mn1054 O1053 2.163 . S
Mn1054 O1057 2.160 . S
Mn1054 O1058 2.221 . S
Mn1054 O1060 2.163 . S
Mn1054 O1062 2.160 . S
Mn1054 O1072 2.221 . S
O1055 Mn1056 2.087 . S
O1055 C1067 1.256 . S
Mn1056 O1055 2.087 . S
Mn1056 O1063 2.089 . S
Mn1056 O1072 2.290 . S
Mn1056 O1073 2.251 . S
O1057 Mn1054 2.160 . S
O1057 C1068 1.239 . S
O1058 Mn1054 2.221 . S
O1058 Mn1059 2.290 . S
O1058 C1069 1.278 . S
Mn1059 O1058 2.290 . S
Mn1059 O1061 2.089 . S
Mn1059 O1064 2.251 . S
Mn1059 O1065 2.087 . S
O1060 Mn1054 2.163 . S
O1060 C1070 1.244 . S
O1061 Mn1059 2.089 . S
O1061 C1068 1.256 . S
O1062 Mn1054 2.160 . S
O1062 C1071 1.239 . S
O1063 Mn1056 2.089 . S
O1063 C1071 1.256 . S
O1064 Mn1059 2.251 . S
O1064 C1069 1.241 . S
O1065 Mn1059 2.087 . S
O1065 C1070 1.256 . S
C1066 O1072 1.278 . S
C1066 O1073 1.241 . S
C1067 O1053 1.244 . S
C1067 O1055 1.256 . S
C1068 O1057 1.239 . S
C1068 O1061 1.256 . S
C1069 O1058 1.278 . S
C1069 O1064 1.241 . S
C1070 O1060 1.244 . S
C1070 O1065 1.256 . S
C1071 O1062 1.239 . S
C1071 O1063 1.256 . S
O1072 Mn1054 2.221 . S
O1072 Mn1056 2.290 . S
O1072 C1066 1.278 . S
O1073 Mn1056 2.251 . S
O1073 C1066 1.241 . S
O1074 Mn1075 2.163 . S
O1074 C1088 1.244 . S
Mn1075 O1074 2.163 . S
Mn1075 O1078 2.160 . S
Mn1075 O1079 2.221 . S
Mn1075 O1081 2.163 . S
Mn1075 O1083 2.160 . S
Mn1075 O1093 2.221 . S
O1076 Mn1077 2.087 . S
O1076 C1088 1.256 . S
Mn1077 O1076 2.087 . S
Mn1077 O1084 2.089 . S
Mn1077 O1093 2.290 . S
Mn1077 O1094 2.251 . S
O1078 Mn1075 2.160 . S
O1078 C1089 1.239 . S
O1079 Mn1075 2.221 . S
O1079 Mn1080 2.290 . S
O1079 C1090 1.278 . S
Mn1080 O1079 2.290 . S
Mn1080 O1082 2.089 . S
Mn1080 O1085 2.251 . S
Mn1080 O1086 2.087 . S
O1081 Mn1075 2.163 . S
O1081 C1091 1.244 . S
O1082 Mn1080 2.089 . S
O1082 C1089 1.256 . S
O1083 Mn1075 2.160 . S
O1083 C1092 1.239 . S
O1084 Mn1077 2.089 . S
O1084 C1092 1.256 . S
O1085 Mn1080 2.251 . S
O1085 C1090 1.241 . S
O1086 Mn1080 2.087 . S
O1086 C1091 1.256 . S
C1087 O1093 1.278 . S
C1087 O1094 1.241 . S
C1088 O1074 1.244 . S
C1088 O1076 1.256 . S
C1089 O1078 1.239 . S
C1089 O1082 1.256 . S
C1090 O1079 1.278 . S
C1090 O1085 1.241 . S
C1091 O1081 1.244 . S
C1091 O1086 1.256 . S
C1092 O1083 1.239 . S
C1092 O1084 1.256 . S
O1093 Mn1075 2.221 . S
O1093 Mn1077 2.290 . S
O1093 C1087 1.278 . S
O1094 Mn1077 2.251 . S
O1094 C1087 1.241 . S
O1095 Mn1096 2.163 . S
O1095 C1109 1.244 . S
Mn1096 O1095 2.163 . S
Mn1096 O1099 2.160 . S
Mn1096 O1100 2.221 . S
Mn1096 O1102 2.163 . S
Mn1096 O1104 2.160 . S
Mn1096 O1114 2.221 . S
O1097 Mn1098 2.087 . S
O1097 C1109 1.256 . S
Mn1098 O1097 2.087 . S
Mn1098 O1105 2.089 . S
Mn1098 O1114 2.290 . S
Mn1098 O1115 2.251 . S
O1099 Mn1096 2.160 . S
O1099 C1110 1.239 . S
O1100 Mn1096 2.221 . S
O1100 Mn1101 2.290 . S
O1100 C1111 1.278 . S
Mn1101 O1100 2.290 . S
Mn1101 O1103 2.089 . S
Mn1101 O1106 2.251 . S
Mn1101 O1107 2.087 . S
O1102 Mn1096 2.163 . S
O1102 C1112 1.244 . S
O1103 Mn1101 2.089 . S
O1103 C1110 1.256 . S
O1104 Mn1096 2.160 . S
O1104 C1113 1.239 . S
O1105 Mn1098 2.089 . S
O1105 C1113 1.256 . S
O1106 Mn1101 2.251 . S
O1106 C1111 1.241 . S
O1107 Mn1101 2.087 . S
O1107 C1112 1.256 . S
C1108 O1114 1.278 . S
C1108 O1115 1.241 . S
C1109 O1095 1.244 . S
C1109 O1097 1.256 . S
C1110 O1099 1.239 . S
C1110 O1103 1.256 . S
C1111 O1100 1.278 . S
C1111 O1106 1.241 . S
C1112 O1102 1.244 . S
C1112 O1107 1.256 . S
C1113 O1104 1.239 . S
C1113 O1105 1.256 . S
O1114 Mn1096 2.221 . S
O1114 Mn1098 2.290 . S
O1114 C1108 1.278 . S
O1115 Mn1098 2.251 . S
O1115 C1108 1.241 . S
O1116 Mn1117 2.163 . S
O1116 C1130 1.244 . S
Mn1117 O1116 2.163 . S
Mn1117 O1120 2.160 . S
Mn1117 O1121 2.221 . S
Mn1117 O1123 2.163 . S
Mn1117 O1125 2.160 . S
Mn1117 O1135 2.221 . S
O1118 Mn1119 2.087 . S
O1118 C1130 1.256 . S
Mn1119 O1118 2.087 . S
Mn1119 O1126 2.089 . S
Mn1119 O1135 2.290 . S
Mn1119 O1136 2.251 . S
O1120 Mn1117 2.160 . S
O1120 C1131 1.239 . S
O1121 Mn1117 2.221 . S
O1121 Mn1122 2.290 . S
O1121 C1132 1.278 . S
Mn1122 O1121 2.290 . S
Mn1122 O1124 2.089 . S
Mn1122 O1127 2.251 . S
Mn1122 O1128 2.087 . S
O1123 Mn1117 2.163 . S
O1123 C1133 1.244 . S
O1124 Mn1122 2.089 . S
O1124 C1131 1.256 . S
O1125 Mn1117 2.160 . S
O1125 C1134 1.239 . S
O1126 Mn1119 2.089 . S
O1126 C1134 1.256 . S
O1127 Mn1122 2.251 . S
O1127 C1132 1.241 . S
O1128 Mn1122 2.087 . S
O1128 C1133 1.256 . S
C1129 O1135 1.278 . S
C1129 O1136 1.241 . S
C1130 O1116 1.244 . S
C1130 O1118 1.256 . S
C1131 O1120 1.239 . S
C1131 O1124 1.256 . S
C1132 O1121 1.278 . S
C1132 O1127 1.241 . S
C1133 O1123 1.244 . S
C1133 O1128 1.256 . S
C1134 O1125 1.239 . S
C1134 O1126 1.256 . S
O1135 Mn1117 2.221 . S
O1135 Mn1119 2.290 . S
O1135 C1129 1.278 . S
O1136 Mn1119 2.251 . S
O1136 C1129 1.241 . S
O1137 Mn1138 2.163 . S
O1137 C1151 1.244 . S
Mn1138 O1137 2.163 . S
Mn1138 O1141 2.160 . S
Mn1138 O1142 2.221 . S
Mn1138 O1144 2.163 . S
Mn1138 O1146 2.160 . S
Mn1138 O1156 2.221 . S
O1139 Mn1140 2.087 . S
O1139 C1151 1.256 . S
Mn1140 O1139 2.087 . S
Mn1140 O1147 2.089 . S
Mn1140 O1156 2.290 . S
Mn1140 O1157 2.251 . S
O1141 Mn1138 2.160 . S
O1141 C1152 1.239 . S
O1142 Mn1138 2.221 . S
O1142 Mn1143 2.290 . S
O1142 C1153 1.278 . S
Mn1143 O1142 2.290 . S
Mn1143 O1145 2.089 . S
Mn1143 O1148 2.251 . S
Mn1143 O1149 2.087 . S
O1144 Mn1138 2.163 . S
O1144 C1154 1.244 . S
O1145 Mn1143 2.089 . S
O1145 C1152 1.256 . S
O1146 Mn1138 2.160 . S
O1146 C1155 1.239 . S
O1147 Mn1140 2.089 . S
O1147 C1155 1.256 . S
O1148 Mn1143 2.251 . S
O1148 C1153 1.241 . S
O1149 Mn1143 2.087 . S
O1149 C1154 1.256 . S
C1150 O1156 1.278 . S
C1150 O1157 1.241 . S
C1151 O1137 1.244 . S
C1151 O1139 1.256 . S
C1152 O1141 1.239 . S
C1152 O1145 1.256 . S
C1153 O1142 1.278 . S
C1153 O1148 1.241 . S
C1154 O1144 1.244 . S
C1154 O1149 1.256 . S
C1155 O1146 1.239 . S
C1155 O1147 1.256 . S
O1156 Mn1138 2.221 . S
O1156 Mn1140 2.290 . S
O1156 C1150 1.278 . S
O1157 Mn1140 2.251 . S
O1157 C1150 1.241 . S
O1158 Mn1159 2.163 . S
O1158 C1172 1.244 . S
Mn1159 O1158 2.163 . S
Mn1159 O1162 2.160 . S
Mn1159 O1163 2.221 . S
Mn1159 O1165 2.163 . S
Mn1159 O1167 2.160 . S
Mn1159 O1177 2.221 . S
O1160 Mn1161 2.087 . S
O1160 C1172 1.256 . S
Mn1161 O1160 2.087 . S
Mn1161 O1168 2.089 . S
Mn1161 O1177 2.290 . S
Mn1161 O1178 2.251 . S
O1162 Mn1159 2.160 . S
O1162 C1173 1.239 . S
O1163 Mn1159 2.221 . S
O1163 Mn1164 2.290 . S
O1163 C1174 1.278 . S
Mn1164 O1163 2.290 . S
Mn1164 O1166 2.089 . S
Mn1164 O1169 2.251 . S
Mn1164 O1170 2.087 . S
O1165 Mn1159 2.163 . S
O1165 C1175 1.244 . S
O1166 Mn1164 2.089 . S
O1166 C1173 1.256 . S
O1167 Mn1159 2.160 . S
O1167 C1176 1.239 . S
O1168 Mn1161 2.089 . S
O1168 C1176 1.256 . S
O1169 Mn1164 2.251 . S
O1169 C1174 1.241 . S
O1170 Mn1164 2.087 . S
O1170 C1175 1.256 . S
C1171 O1177 1.278 . S
C1171 O1178 1.241 . S
C1172 O1158 1.244 . S
C1172 O1160 1.256 . S
C1173 O1162 1.239 . S
C1173 O1166 1.256 . S
C1174 O1163 1.278 . S
C1174 O1169 1.241 . S
C1175 O1165 1.244 . S
C1175 O1170 1.256 . S
C1176 O1167 1.239 . S
C1176 O1168 1.256 . S
O1177 Mn1159 2.221 . S
O1177 Mn1161 2.290 . S
O1177 C1171 1.278 . S
O1178 Mn1161 2.251 . S
O1178 C1171 1.241 . S
O1179 Mn1180 2.163 . S
O1179 C1193 1.244 . S
Mn1180 O1179 2.163 . S
Mn1180 O1183 2.160 . S
Mn1180 O1184 2.221 . S
Mn1180 O1186 2.163 . S
Mn1180 O1188 2.160 . S
Mn1180 O1198 2.221 . S
O1181 Mn1182 2.087 . S
O1181 C1193 1.256 . S
Mn1182 O1181 2.087 . S
Mn1182 O1189 2.089 . S
Mn1182 O1198 2.290 . S
Mn1182 O1199 2.251 . S
O1183 Mn1180 2.160 . S
O1183 C1194 1.239 . S
O1184 Mn1180 2.221 . S
O1184 Mn1185 2.290 . S
O1184 C1195 1.278 . S
Mn1185 O1184 2.290 . S
Mn1185 O1187 2.089 . S
Mn1185 O1190 2.251 . S
Mn1185 O1191 2.087 . S
O1186 Mn1180 2.163 . S
O1186 C1196 1.244 . S
O1187 Mn1185 2.089 . S
O1187 C1194 1.256 . S
O1188 Mn1180 2.160 . S
O1188 C1197 1.239 . S
O1189 Mn1182 2.089 . S
O1189 C1197 1.256 . S
O1190 Mn1185 2.251 . S
O1190 C1195 1.241 . S
O1191 Mn1185 2.087 . S
O1191 C1196 1.256 . S
C1192 O1198 1.278 . S
C1192 O1199 1.241 . S
C1193 O1179 1.244 . S
C1193 O1181 1.256 . S
C1194 O1183 1.239 . S
C1194 O1187 1.256 . S
C1195 O1184 1.278 . S
C1195 O1190 1.241 . S
C1196 O1186 1.244 . S
C1196 O1191 1.256 . S
C1197 O1188 1.239 . S
C1197 O1189 1.256 . S
O1198 Mn1180 2.221 . S
O1198 Mn1182 2.290 . S
O1198 C1192 1.278 . S
O1199 Mn1182 2.251 . S
O1199 C1192 1.241 . S
H1200 C1208 0.950 . S
H1201 C1213 0.950 . S
H1202 C1210 0.950 . S
H1203 C1212 0.950 . S
H1204 C1214 0.950 . S
H1205 C1216 0.950 . S
H1206 C1218 0.950 . S
H1207 C1219 0.950 . S
C1208 H1200 0.950 . S
C1208 C1209 1.386 . S
C1208 C1210 1.391 . S
C1209 C1208 1.386 . S
C1209 C1213 1.393 . S
C1210 H1202 0.950 . S
C1210 C1208 1.391 . S
C1210 C1211 1.400 . S
C1211 C1210 1.400 . S
C1211 C1212 1.398 . S
C1211 C1217 1.491 . S
C1212 H1203 0.950 . S
C1212 C1211 1.398 . S
C1212 C1213 1.391 . S
C1213 H1201 0.950 . S
C1213 C1209 1.393 . S
C1213 C1212 1.391 . S
C1214 H1204 0.950 . S
C1214 C1215 1.386 . S
C1214 C1216 1.391 . S
C1215 C1214 1.386 . S
C1215 C1219 1.393 . S
C1216 H1205 0.950 . S
C1216 C1214 1.391 . S
C1216 C1217 1.400 . S
C1217 C1211 1.491 . S
C1217 C1216 1.400 . S
C1217 C1218 1.398 . S
C1218 H1206 0.950 . S
C1218 C1217 1.398 . S
C1218 C1219 1.391 . S
C1219 H1207 0.950 . S
C1219 C1215 1.393 . S
C1219 C1218 1.391 . S
H1220 C1228 0.950 . S
H1221 C1233 0.950 . S
H1222 C1230 0.950 . S
H1223 C1232 0.950 . S
H1224 C1234 0.950 . S
H1225 C1236 0.950 . S
H1226 C1238 0.950 . S
H1227 C1239 0.950 . S
C1228 H1220 0.950 . S
C1228 C1229 1.386 . S
C1228 C1230 1.391 . S
C1229 C1228 1.386 . S
C1229 C1233 1.393 . S
C1230 H1222 0.950 . S
C1230 C1228 1.391 . S
C1230 C1231 1.400 . S
C1231 C1230 1.400 . S
C1231 C1232 1.398 . S
C1231 C1237 1.491 . S
C1232 H1223 0.950 . S
C1232 C1231 1.398 . S
C1232 C1233 1.391 . S
C1233 H1221 0.950 . S
C1233 C1229 1.393 . S
C1233 C1232 1.391 . S
C1234 H1224 0.950 . S
C1234 C1235 1.386 . S
C1234 C1236 1.391 . S
C1235 C1234 1.386 . S
C1235 C1239 1.393 . S
C1236 H1225 0.950 . S
C1236 C1234 1.391 . S
C1236 C1237 1.400 . S
C1237 C1231 1.491 . S
C1237 C1236 1.400 . S
C1237 C1238 1.398 . S
C1238 H1226 0.950 . S
C1238 C1237 1.398 . S
C1238 C1239 1.391 . S
C1239 H1227 0.950 . S
C1239 C1235 1.393 . S
C1239 C1238 1.391 . S
H1240 C1248 0.950 . S
H1241 C1253 0.950 . S
H1242 C1250 0.950 . S
H1243 C1252 0.950 . S
H1244 C1254 0.950 . S
H1245 C1256 0.950 . S
H1246 C1258 0.950 . S
H1247 C1259 0.950 . S
C1248 H1240 0.950 . S
C1248 C1249 1.386 . S
C1248 C1250 1.391 . S
C1249 C1248 1.386 . S
C1249 C1253 1.393 . S
C1250 H1242 0.950 . S
C1250 C1248 1.391 . S
C1250 C1251 1.400 . S
C1251 C1250 1.400 . S
C1251 C1252 1.398 . S
C1251 C1257 1.491 . S
C1252 H1243 0.950 . S
C1252 C1251 1.398 . S
C1252 C1253 1.391 . S
C1253 H1241 0.950 . S
C1253 C1249 1.393 . S
C1253 C1252 1.391 . S
C1254 H1244 0.950 . S
C1254 C1255 1.386 . S
C1254 C1256 1.391 . S
C1255 C1254 1.386 . S
C1255 C1259 1.393 . S
C1256 H1245 0.950 . S
C1256 C1254 1.391 . S
C1256 C1257 1.400 . S
C1257 C1251 1.491 . S
C1257 C1256 1.400 . S
C1257 C1258 1.398 . S
C1258 H1246 0.950 . S
C1258 C1257 1.398 . S
C1258 C1259 1.391 . S
C1259 H1247 0.950 . S
C1259 C1255 1.393 . S
C1259 C1258 1.391 . S
H1260 C1268 0.950 . S
H1261 C1273 0.950 . S
H1262 C1270 0.950 . S
H1263 C1272 0.950 . S
H1264 C1274 0.950 . S
H1265 C1276 0.950 . S
H1266 C1278 0.950 . S
H1267 C1279 0.950 . S
C1268 H1260 0.950 . S
C1268 C1269 1.386 . S
C1268 C1270 1.391 . S
C1269 C1268 1.386 . S
C1269 C1273 1.393 . S
C1270 H1262 0.950 . S
C1270 C1268 1.391 . S
C1270 C1271 1.400 . S
C1271 C1270 1.400 . S
C1271 C1272 1.398 . S
C1271 C1277 1.491 . S
C1272 H1263 0.950 . S
C1272 C1271 1.398 . S
C1272 C1273 1.391 . S
C1273 H1261 0.950 . S
C1273 C1269 1.393 . S
C1273 C1272 1.391 . S
C1274 H1264 0.950 . S
C1274 C1275 1.386 . S
C1274 C1276 1.391 1_556 S
C1275 C1274 1.386 . S
C1275 C1279 1.393 . S
C1276 H1265 0.950 . S
C1276 C1274 1.391 1_554 S
C1276 C1277 1.400 . S
C1277 C1271 1.491 . S
C1277 C1276 1.400 . S
C1277 C1278 1.398 . S
C1278 H1266 0.950 . S
C1278 C1277 1.398 . S
C1278 C1279 1.391 1_554 S
C1279 H1267 0.950 . S
C1279 C1275 1.393 . S
C1279 C1278 1.391 1_556 S
H1280 C1288 0.950 . S
H1281 C1293 0.950 . S
H1282 C1290 0.950 . S
H1283 C1292 0.950 . S
H1284 C1294 0.950 . S
H1285 C1296 0.950 . S
H1286 C1298 0.950 . S
H1287 C1299 0.950 . S
C1288 H1280 0.950 . S
C1288 C1289 1.386 . S
C1288 C1290 1.391 . S
C1289 C1288 1.386 . S
C1289 C1293 1.393 . S
C1290 H1282 0.950 . S
C1290 C1288 1.391 . S
C1290 C1291 1.400 . S
C1291 C1290 1.400 . S
C1291 C1292 1.398 . S
C1291 C1297 1.491 . S
C1292 H1283 0.950 . S
C1292 C1291 1.398 . S
C1292 C1293 1.391 . S
C1293 H1281 0.950 . S
C1293 C1289 1.393 . S
C1293 C1292 1.391 . S
C1294 H1284 0.950 . S
C1294 C1295 1.386 . S
C1294 C1296 1.391 . S
C1295 C1294 1.386 . S
C1295 C1299 1.393 . S
C1296 H1285 0.950 . S
C1296 C1294 1.391 . S
C1296 C1297 1.400 . S
C1297 C1291 1.491 . S
C1297 C1296 1.400 . S
C1297 C1298 1.398 . S
C1298 H1286 0.950 . S
C1298 C1297 1.398 . S
C1298 C1299 1.391 . S
C1299 H1287 0.950 . S
C1299 C1295 1.393 . S
C1299 C1298 1.391 . S
H1300 C1308 0.950 . S
H1301 C1313 0.950 . S
H1302 C1310 0.950 . S
H1303 C1312 0.950 . S
H1304 C1314 0.950 . S
H1305 C1316 0.950 . S
H1306 C1318 0.950 . S
H1307 C1319 0.950 . S
C1308 H1300 0.950 . S
C1308 C1309 1.386 . S
C1308 C1310 1.391 . S
C1309 C1308 1.386 . S
C1309 C1313 1.393 . S
C1310 H1302 0.950 . S
C1310 C1308 1.391 . S
C1310 C1311 1.400 . S
C1311 C1310 1.400 . S
C1311 C1312 1.398 . S
C1311 C1317 1.491 . S
C1312 H1303 0.950 . S
C1312 C1311 1.398 . S
C1312 C1313 1.391 . S
C1313 H1301 0.950 . S
C1313 C1309 1.393 . S
C1313 C1312 1.391 . S
C1314 H1304 0.950 . S
C1314 C1315 1.386 . S
C1314 C1316 1.391 . S
C1315 C1314 1.386 . S
C1315 C1319 1.393 . S
C1316 H1305 0.950 . S
C1316 C1314 1.391 . S
C1316 C1317 1.400 . S
C1317 C1311 1.491 . S
C1317 C1316 1.400 . S
C1317 C1318 1.398 . S
C1318 H1306 0.950 . S
C1318 C1317 1.398 . S
C1318 C1319 1.391 . S
C1319 H1307 0.950 . S
C1319 C1315 1.393 . S
C1319 C1318 1.391 . S
H1320 C1328 0.950 . S
H1321 C1333 0.950 . S
H1322 C1330 0.950 . S
H1323 C1332 0.950 . S
H1324 C1334 0.950 . S
H1325 C1336 0.950 . S
H1326 C1338 0.950 . S
H1327 C1339 0.950 . S
C1328 H1320 0.950 . S
C1328 C1329 1.386 . S
C1328 C1330 1.391 . S
C1329 C1328 1.386 . S
C1329 C1333 1.393 . S
C1330 H1322 0.950 . S
C1330 C1328 1.391 . S
C1330 C1331 1.400 . S
C1331 C1330 1.400 . S
C1331 C1332 1.398 . S
C1331 C1337 1.491 . S
C1332 H1323 0.950 . S
C1332 C1331 1.398 . S
C1332 C1333 1.391 . S
C1333 H1321 0.950 . S
C1333 C1329 1.393 . S
C1333 C1332 1.391 . S
C1334 H1324 0.950 . S
C1334 C1335 1.386 . S
C1334 C1336 1.391 . S
C1335 C1334 1.386 . S
C1335 C1339 1.393 . S
C1336 H1325 0.950 . S
C1336 C1334 1.391 . S
C1336 C1337 1.400 . S
C1337 C1331 1.491 . S
C1337 C1336 1.400 . S
C1337 C1338 1.398 . S
C1338 H1326 0.950 . S
C1338 C1337 1.398 . S
C1338 C1339 1.391 . S
C1339 H1327 0.950 . S
C1339 C1335 1.393 . S
C1339 C1338 1.391 . S
H1340 C1348 0.950 . S
H1341 C1353 0.950 . S
H1342 C1350 0.967 . S
H1343 C1352 0.950 1_554 S
H1344 C1354 0.950 . S
H1345 C1356 0.950 . S
H1346 C1358 0.950 . S
H1347 C1359 0.950 . S
C1348 H1340 0.950 . S
C1348 C1349 1.386 . S
C1348 C1350 1.391 . S
C1349 C1348 1.386 . S
C1349 C1353 1.393 . S
C1350 H1342 0.967 . S
C1350 C1348 1.391 . S
C1350 C1351 1.400 1_556 S
C1351 C1350 1.400 1_554 S
C1351 C1352 1.398 1_554 S
C1351 C1357 1.491 . S
C1352 H1343 0.950 1_556 S
C1352 C1351 1.398 1_556 S
C1352 C1353 1.391 . S
C1353 H1341 0.950 . S
C1353 C1349 1.393 . S
C1353 C1352 1.391 . S
C1354 H1344 0.950 . S
C1354 C1355 1.386 . S
C1354 C1356 1.391 . S
C1355 C1354 1.386 . S
C1355 C1359 1.393 . S
C1356 H1345 0.950 . S
C1356 C1354 1.391 . S
C1356 C1357 1.400 . S
C1357 C1351 1.491 . S
C1357 C1356 1.400 . S
C1357 C1358 1.398 . S
C1358 H1346 0.950 . S
C1358 C1357 1.398 . S
C1358 C1359 1.391 . S
C1359 H1347 0.950 . S
C1359 C1355 1.393 . S
C1359 C1358 1.391 . S
H1360 C1368 0.950 . S
H1361 C1373 0.950 . S
H1362 C1370 0.950 . S
H1363 C1372 0.950 . S
H1364 C1374 0.950 . S
H1365 C1376 0.950 . S
H1366 C1378 0.950 . S
H1367 C1379 0.950 . S
C1368 H1360 0.950 . S
C1368 C1369 1.386 . S
C1368 C1370 1.391 . S
C1369 C1368 1.386 . S
C1369 C1373 1.393 . S
C1370 H1362 0.950 . S
C1370 C1368 1.391 . S
C1370 C1371 1.400 . S
C1371 C1370 1.400 . S
C1371 C1372 1.398 . S
C1371 C1377 1.491 . S
C1372 H1363 0.950 . S
C1372 C1371 1.398 . S
C1372 C1373 1.391 . S
C1373 H1361 0.950 . S
C1373 C1369 1.393 . S
C1373 C1372 1.391 . S
C1374 H1364 0.950 . S
C1374 C1375 1.386 . S
C1374 C1376 1.391 . S
C1375 C1374 1.386 . S
C1375 C1379 1.393 . S
C1376 H1365 0.950 . S
C1376 C1374 1.391 . S
C1376 C1377 1.400 . S
C1377 C1371 1.491 . S
C1377 C1376 1.400 . S
C1377 C1378 1.398 . S
C1378 H1366 0.950 . S
C1378 C1377 1.398 . S
C1378 C1379 1.391 . S
C1379 H1367 0.950 . S
C1379 C1375 1.393 . S
C1379 C1378 1.391 . S
H1380 C1388 0.950 . S
H1381 C1393 0.950 . S
H1382 C1390 0.950 . S
H1383 C1392 0.950 . S
H1384 C1394 0.950 . S
H1385 C1396 0.950 . S
H1386 C1398 0.950 . S
H1387 C1399 0.950 . S
C1388 H1380 0.950 . S
C1388 C1389 1.386 . S
C1388 C1390 1.391 . S
C1389 C1388 1.386 . S
C1389 C1393 1.393 . S
C1390 H1382 0.950 . S
C1390 C1388 1.391 . S
C1390 C1391 1.400 . S
C1391 C1390 1.400 . S
C1391 C1392 1.398 . S
C1391 C1397 1.491 . S
C1392 H1383 0.950 . S
C1392 C1391 1.398 . S
C1392 C1393 1.391 . S
C1393 H1381 0.950 . S
C1393 C1389 1.393 . S
C1393 C1392 1.391 . S
C1394 H1384 0.950 . S
C1394 C1395 1.386 . S
C1394 C1396 1.391 1_565 S
C1395 C1394 1.386 . S
C1395 C1399 1.393 . S
C1396 H1385 0.950 . S
C1396 C1394 1.391 1_545 S
C1396 C1397 1.400 . S
C1397 C1391 1.491 . S
C1397 C1396 1.400 . S
C1397 C1398 1.398 . S
C1398 H1386 0.950 . S
C1398 C1397 1.398 . S
C1398 C1399 1.391 1_545 S
C1399 H1387 0.950 . S
C1399 C1395 1.393 . S
C1399 C1398 1.391 1_565 S
H1400 C1408 0.950 . S
H1401 C1413 0.950 . S
H1402 C1410 0.950 . S
H1403 C1412 0.950 . S
H1404 C1414 0.950 . S
H1405 C1416 0.950 . S
H1406 C1418 0.950 . S
H1407 C1419 0.950 . S
C1408 H1400 0.950 . S
C1408 C1409 1.386 1_565 S
C1408 C1410 1.391 . S
C1409 C1408 1.386 1_545 S
C1409 C1413 1.393 . S
C1410 H1402 0.950 . S
C1410 C1408 1.391 . S
C1410 C1411 1.400 . S
C1411 C1410 1.400 . S
C1411 C1412 1.398 1_565 S
C1411 C1417 1.491 . S
C1412 H1403 0.950 . S
C1412 C1411 1.398 1_545 S
C1412 C1413 1.391 . S
C1413 H1401 0.950 . S
C1413 C1409 1.393 . S
C1413 C1412 1.391 . S
C1414 H1404 0.950 . S
C1414 C1415 1.386 . S
C1414 C1416 1.391 . S
C1415 C1414 1.386 . S
C1415 C1419 1.393 . S
C1416 H1405 0.950 . S
C1416 C1414 1.391 . S
C1416 C1417 1.400 . S
C1417 C1411 1.491 . S
C1417 C1416 1.400 . S
C1417 C1418 1.398 . S
C1418 H1406 0.950 . S
C1418 C1417 1.398 . S
C1418 C1419 1.391 . S
C1419 H1407 0.950 . S
C1419 C1415 1.393 . S
C1419 C1418 1.391 . S
H1420 C1428 0.950 . S
H1421 C1433 0.950 . S
H1422 C1430 0.950 . S
H1423 C1432 0.950 . S
H1424 C1434 0.950 . S
H1425 C1436 0.950 . S
H1426 C1438 0.950 . S
H1427 C1439 0.950 . S
C1428 H1420 0.950 . S
C1428 C1429 1.386 . S
C1428 C1430 1.391 1_565 S
C1429 C1428 1.386 . S
C1429 C1433 1.393 . S
C1430 H1422 0.950 . S
C1430 C1428 1.391 1_545 S
C1430 C1431 1.400 . S
C1431 C1430 1.400 . S
C1431 C1432 1.398 . S
C1431 C1437 1.491 . S
C1432 H1423 0.950 . S
C1432 C1431 1.398 . S
C1432 C1433 1.391 1_545 S
C1433 H1421 0.950 . S
C1433 C1429 1.393 . S
C1433 C1432 1.391 1_565 S
C1434 H1424 0.950 . S
C1434 C1435 1.386 . S
C1434 C1436 1.391 . S
C1435 C1434 1.386 . S
C1435 C1439 1.393 . S
C1436 H1425 0.950 . S
C1436 C1434 1.391 . S
C1436 C1437 1.400 . S
C1437 C1431 1.491 . S
C1437 C1436 1.400 . S
C1437 C1438 1.398 . S
C1438 H1426 0.950 . S
C1438 C1437 1.398 . S
C1438 C1439 1.391 . S
C1439 H1427 0.950 . S
C1439 C1435 1.393 . S
C1439 C1438 1.391 . S
H1440 C1448 0.950 . S
H1441 C1453 0.950 . S
H1442 C1450 0.950 . S
H1443 C1452 0.950 . S
H1444 C1454 0.950 . S
H1445 C1456 0.950 . S
H1446 C1458 0.950 . S
H1447 C1459 0.950 . S
C1448 H1440 0.950 . S
C1448 C1449 1.386 . S
C1448 C1450 1.391 . S
C1449 C1448 1.386 . S
C1449 C1453 1.393 . S
C1450 H1442 0.950 . S
C1450 C1448 1.391 . S
C1450 C1451 1.400 . S
C1451 C1450 1.400 . S
C1451 C1452 1.398 . S
C1451 C1457 1.491 . S
C1452 H1443 0.950 . S
C1452 C1451 1.398 . S
C1452 C1453 1.391 . S
C1453 H1441 0.950 . S
C1453 C1449 1.393 . S
C1453 C1452 1.391 . S
C1454 H1444 0.950 . S
C1454 C1455 1.386 . S
C1454 C1456 1.391 . S
C1455 C1454 1.386 . S
C1455 C1459 1.393 . S
C1456 H1445 0.950 . S
C1456 C1454 1.391 . S
C1456 C1457 1.400 . S
C1457 C1451 1.491 . S
C1457 C1456 1.400 . S
C1457 C1458 1.398 . S
C1458 H1446 0.950 . S
C1458 C1457 1.398 . S
C1458 C1459 1.391 . S
C1459 H1447 0.950 . S
C1459 C1455 1.393 . S
C1459 C1458 1.391 . S
H1460 C1468 0.950 . S
H1461 C1473 0.950 . S
H1462 C1470 0.950 . S
H1463 C1472 0.950 . S
H1464 C1474 0.950 . S
H1465 C1476 0.950 . S
H1466 C1478 0.950 . S
H1467 C1479 0.950 . S
C1468 H1460 0.950 . S
C1468 C1469 1.386 . S
C1468 C1470 1.391 . S
C1469 C1468 1.386 . S
C1469 C1473 1.393 . S
C1470 H1462 0.950 . S
C1470 C1468 1.391 . S
C1470 C1471 1.400 . S
C1471 C1470 1.400 . S
C1471 C1472 1.398 . S
C1471 C1477 1.491 . S
C1472 H1463 0.950 . S
C1472 C1471 1.398 . S
C1472 C1473 1.391 . S
C1473 H1461 0.950 . S
C1473 C1469 1.393 . S
C1473 C1472 1.391 . S
C1474 H1464 0.950 . S
C1474 C1475 1.386 . S
C1474 C1476 1.391 1_565 S
C1475 C1474 1.386 . S
C1475 C1479 1.393 1_565 S
C1476 H1465 0.950 . S
C1476 C1474 1.391 1_545 S
C1476 C1477 1.400 . S
C1477 C1471 1.491 . S
C1477 C1476 1.400 . S
C1477 C1478 1.398 . S
C1478 H1466 0.950 . S
C1478 C1477 1.398 . S
C1478 C1479 1.391 . S
C1479 H1467 0.950 . S
C1479 C1475 1.393 1_545 S
C1479 C1478 1.391 . S
H1480 C1488 0.950 . S
H1481 C1493 0.950 . S
H1482 C1490 0.950 . S
H1483 C1492 0.950 . S
H1484 C1494 0.950 . S
H1485 C1496 0.950 . S
H1486 C1498 0.950 . S
H1487 C1499 0.950 . S
C1488 H1480 0.950 . S
C1488 C1489 1.386 . S
C1488 C1490 1.391 . S
C1489 C1488 1.386 . S
C1489 C1493 1.393 . S
C1490 H1482 0.950 . S
C1490 C1488 1.391 . S
C1490 C1491 1.400 . S
C1491 C1490 1.400 . S
C1491 C1492 1.398 . S
C1491 C1497 1.491 . S
C1492 H1483 0.950 . S
C1492 C1491 1.398 . S
C1492 C1493 1.391 . S
C1493 H1481 0.950 . S
C1493 C1489 1.393 . S
C1493 C1492 1.391 . S
C1494 H1484 0.950 . S
C1494 C1495 1.386 . S
C1494 C1496 1.391 . S
C1495 C1494 1.386 . S
C1495 C1499 1.393 . S
C1496 H1485 0.950 . S
C1496 C1494 1.391 . S
C1496 C1497 1.400 . S
C1497 C1491 1.491 . S
C1497 C1496 1.400 . S
C1497 C1498 1.398 . S
C1498 H1486 0.950 . S
C1498 C1497 1.398 . S
C1498 C1499 1.391 . S
C1499 H1487 0.950 . S
C1499 C1495 1.393 . S
C1499 C1498 1.391 . S
H1500 C1508 0.950 . S
H1501 C1513 0.950 . S
H1502 C1510 0.950 . S
H1503 C1512 0.950 1_545 S
H1504 C1514 0.950 . S
H1505 C1516 0.950 . S
H1506 C1518 0.950 . S
H1507 C1519 0.950 . S
C1508 H1500 0.950 . S
C1508 C1509 1.386 . S
C1508 C1510 1.391 1_565 S
C1509 C1508 1.386 . S
C1509 C1513 1.393 . S
C1510 H1502 0.950 . S
C1510 C1508 1.391 1_545 S
C1510 C1511 1.400 . S
C1511 C1510 1.400 . S
C1511 C1512 1.398 1_545 S
C1511 C1517 1.491 . S
C1512 H1503 0.950 1_565 S
C1512 C1511 1.398 1_565 S
C1512 C1513 1.391 . S
C1513 H1501 0.950 . S
C1513 C1509 1.393 . S
C1513 C1512 1.391 . S
C1514 H1504 0.950 . S
C1514 C1515 1.386 . S
C1514 C1516 1.391 . S
C1515 C1514 1.386 . S
C1515 C1519 1.393 . S
C1516 H1505 0.950 . S
C1516 C1514 1.391 . S
C1516 C1517 1.400 . S
C1517 C1511 1.491 . S
C1517 C1516 1.400 . S
C1517 C1518 1.398 . S
C1518 H1506 0.950 . S
C1518 C1517 1.398 . S
C1518 C1519 1.391 . S
C1519 H1507 0.950 . S
C1519 C1515 1.393 . S
C1519 C1518 1.391 . S
H1520 C1528 0.950 . S
H1521 C1533 0.950 . S
H1522 C1530 0.950 . S
H1523 C1532 0.950 . S
H1524 C1534 0.950 . S
H1525 C1536 0.950 . S
H1526 C1538 0.950 . S
H1527 C1539 0.950 . S
C1528 H1520 0.950 . S
C1528 C1529 1.386 . S
C1528 C1530 1.391 . S
C1529 C1528 1.386 . S
C1529 C1533 1.393 . S
C1530 H1522 0.950 . S
C1530 C1528 1.391 . S
C1530 C1531 1.400 . S
C1531 C1530 1.400 . S
C1531 C1532 1.398 . S
C1531 C1537 1.491 . S
C1532 H1523 0.950 . S
C1532 C1531 1.398 . S
C1532 C1533 1.391 . S
C1533 H1521 0.950 . S
C1533 C1529 1.393 . S
C1533 C1532 1.391 . S
C1534 H1524 0.950 . S
C1534 C1535 1.386 . S
C1534 C1536 1.391 . S
C1535 C1534 1.386 . S
C1535 C1539 1.393 . S
C1536 H1525 0.950 . S
C1536 C1534 1.391 . S
C1536 C1537 1.400 . S
C1537 C1531 1.491 . S
C1537 C1536 1.400 . S
C1537 C1538 1.398 . S
C1538 H1526 0.950 . S
C1538 C1537 1.398 . S
C1538 C1539 1.391 . S
C1539 H1527 0.950 . S
C1539 C1535 1.393 . S
C1539 C1538 1.391 . S
H1540 C1548 0.950 . S
H1541 C1553 0.950 . S
H1542 C1550 0.950 . S
H1543 C1552 0.950 . S
H1544 C1554 0.950 . S
H1545 C1556 0.950 . S
H1546 C1558 0.950 . S
H1547 C1559 0.950 . S
C1548 H1540 0.950 . S
C1548 C1549 1.386 . S
C1548 C1550 1.391 . S
C1549 C1548 1.386 . S
C1549 C1553 1.393 . S
C1550 H1542 0.950 . S
C1550 C1548 1.391 . S
C1550 C1551 1.400 . S
C1551 C1550 1.400 . S
C1551 C1552 1.398 . S
C1551 C1557 1.491 . S
C1552 H1543 0.950 . S
C1552 C1551 1.398 . S
C1552 C1553 1.391 . S
C1553 H1541 0.950 . S
C1553 C1549 1.393 . S
C1553 C1552 1.391 . S
C1554 H1544 0.950 . S
C1554 C1555 1.386 . S
C1554 C1556 1.391 . S
C1555 C1554 1.386 . S
C1555 C1559 1.393 . S
C1556 H1545 0.950 . S
C1556 C1554 1.391 . S
C1556 C1557 1.400 . S
C1557 C1551 1.491 . S
C1557 C1556 1.400 . S
C1557 C1558 1.398 . S
C1558 H1546 0.950 . S
C1558 C1557 1.398 . S
C1558 C1559 1.391 . S
C1559 H1547 0.950 . S
C1559 C1555 1.393 . S
C1559 C1558 1.391 . S
H1560 C1568 0.950 . S
H1561 C1573 0.950 . S
H1562 C1570 0.950 . S
H1563 C1572 0.950 . S
H1564 C1574 0.950 . S
H1565 C1576 0.964 . S
H1566 C1578 0.950 . S
H1567 C1579 0.950 . S
C1568 H1560 0.950 . S
C1568 C1569 1.386 . S
C1568 C1570 1.391 . S
C1569 C1568 1.386 . S
C1569 C1573 1.393 . S
C1570 H1562 0.950 . S
C1570 C1568 1.391 . S
C1570 C1571 1.400 . S
C1571 C1570 1.400 . S
C1571 C1572 1.398 . S
C1571 C1577 1.491 . S
C1572 H1563 0.950 . S
C1572 C1571 1.398 . S
C1572 C1573 1.391 . S
C1573 H1561 0.950 . S
C1573 C1569 1.393 . S
C1573 C1572 1.391 . S
C1574 H1564 0.950 . S
C1574 C1575 1.386 . S
C1574 C1576 1.360 1_655 S
C1575 C1574 1.386 . S
C1575 C1579 1.393 . S
C1576 H1565 0.964 . S
C1576 C1574 1.360 1_455 S
C1576 C1577 1.419 . S
C1577 C1571 1.491 . S
C1577 C1576 1.419 . S
C1577 C1578 1.398 . S
C1578 H1566 0.950 . S
C1578 C1577 1.398 . S
C1578 C1579 1.391 1_455 S
C1579 H1567 0.950 . S
C1579 C1575 1.393 . S
C1579 C1578 1.391 1_655 S
H1580 C1588 0.950 . S
H1581 C1593 0.950 . S
H1582 C1590 0.950 . S
H1583 C1592 0.950 . S
H1584 C1594 0.950 . S
H1585 C1596 0.950 . S
H1586 C1598 0.950 . S
H1587 C1599 0.950 . S
C1588 H1580 0.950 . S
C1588 C1589 1.386 . S
C1588 C1590 1.391 . S
C1589 C1588 1.386 . S
C1589 C1593 1.393 . S
C1590 H1582 0.950 . S
C1590 C1588 1.391 . S
C1590 C1591 1.400 . S
C1591 C1590 1.400 . S
C1591 C1592 1.398 . S
C1591 C1597 1.491 . S
C1592 H1583 0.950 . S
C1592 C1591 1.398 . S
C1592 C1593 1.391 . S
C1593 H1581 0.950 . S
C1593 C1589 1.393 . S
C1593 C1592 1.391 . S
C1594 H1584 0.950 . S
C1594 C1595 1.386 . S
C1594 C1596 1.391 . S
C1595 C1594 1.386 . S
C1595 C1599 1.393 . S
C1596 H1585 0.950 . S
C1596 C1594 1.391 . S
C1596 C1597 1.400 . S
C1597 C1591 1.491 . S
C1597 C1596 1.400 . S
C1597 C1598 1.398 . S
C1598 H1586 0.950 . S
C1598 C1597 1.398 . S
C1598 C1599 1.391 . S
C1599 H1587 0.950 . S
C1599 C1595 1.393 . S
C1599 C1598 1.391 . S
H1600 C1608 0.950 . S
H1601 C1613 0.950 . S
H1602 C1610 0.950 . S
H1603 C1612 0.950 . S
H1604 C1614 0.950 . S
H1605 C1616 0.950 . S
H1606 C1618 0.950 . S
H1607 C1619 0.950 . S
C1608 H1600 0.950 . S
C1608 C1609 1.386 . S
C1608 C1610 1.391 . S
C1609 C1608 1.386 . S
C1609 C1613 1.393 . S
C1610 H1602 0.950 . S
C1610 C1608 1.391 . S
C1610 C1611 1.400 . S
C1611 C1610 1.400 . S
C1611 C1612 1.398 . S
C1611 C1617 1.491 1_655 S
C1612 H1603 0.950 . S
C1612 C1611 1.398 . S
C1612 C1613 1.391 . S
C1613 H1601 0.950 . S
C1613 C1609 1.393 . S
C1613 C1612 1.391 . S
C1614 H1604 0.950 . S
C1614 C1615 1.386 . S
C1614 C1616 1.391 . S
C1615 C1614 1.386 . S
C1615 C1619 1.393 . S
C1616 H1605 0.950 . S
C1616 C1614 1.391 . S
C1616 C1617 1.400 . S
C1617 C1611 1.491 1_455 S
C1617 C1616 1.400 . S
C1617 C1618 1.398 . S
C1618 H1606 0.950 . S
C1618 C1617 1.398 . S
C1618 C1619 1.391 . S
C1619 H1607 0.950 . S
C1619 C1615 1.393 . S
C1619 C1618 1.391 . S
H1620 C1628 0.950 . S
H1621 C1633 0.950 . S
H1622 C1630 0.950 . S
H1623 C1632 0.950 . S
H1624 C1634 0.950 . S
H1625 C1636 0.950 . S
H1626 C1638 0.950 . S
H1627 C1639 0.950 . S
C1628 H1620 0.950 . S
C1628 C1629 1.386 . S
C1628 C1630 1.391 . S
C1629 C1628 1.386 . S
C1629 C1633 1.393 . S
C1630 H1622 0.950 . S
C1630 C1628 1.391 . S
C1630 C1631 1.400 . S
C1631 C1630 1.400 . S
C1631 C1632 1.398 . S
C1631 C1637 1.491 . S
C1632 H1623 0.950 . S
C1632 C1631 1.398 . S
C1632 C1633 1.391 . S
C1633 H1621 0.950 . S
C1633 C1629 1.393 . S
C1633 C1632 1.391 . S
C1634 H1624 0.950 . S
C1634 C1635 1.386 . S
C1634 C1636 1.391 . S
C1635 C1634 1.386 . S
C1635 C1639 1.393 . S
C1636 H1625 0.950 . S
C1636 C1634 1.391 . S
C1636 C1637 1.400 . S
C1637 C1631 1.491 . S
C1637 C1636 1.400 . S
C1637 C1638 1.398 . S
C1638 H1626 0.950 . S
C1638 C1637 1.398 . S
C1638 C1639 1.391 . S
C1639 H1627 0.950 . S
C1639 C1635 1.393 . S
C1639 C1638 1.391 . S
H1640 C1648 0.950 . S
H1641 C1653 0.950 . S
H1642 C1650 0.950 . S
H1643 C1652 0.950 . S
H1644 C1654 0.950 . S
H1645 C1656 0.950 . S
H1646 C1658 0.950 1_455 S
H1647 C1659 0.950 . S
C1648 H1640 0.950 . S
C1648 C1649 1.386 . S
C1648 C1650 1.391 . S
C1649 C1648 1.386 . S
C1649 C1653 1.393 . S
C1650 H1642 0.950 . S
C1650 C1648 1.391 . S
C1650 C1651 1.400 . S
C1651 C1650 1.400 . S
C1651 C1652 1.398 . S
C1651 C1657 1.491 . S
C1652 H1643 0.950 . S
C1652 C1651 1.398 . S
C1652 C1653 1.391 . S
C1653 H1641 0.950 . S
C1653 C1649 1.393 . S
C1653 C1652 1.391 . S
C1654 H1644 0.950 . S
C1654 C1655 1.386 . S
C1654 C1656 1.391 . S
C1655 C1654 1.386 . S
C1655 C1659 1.393 . S
C1656 H1645 0.950 . S
C1656 C1654 1.391 . S
C1656 C1657 1.400 1_655 S
C1657 C1651 1.491 . S
C1657 C1656 1.400 1_455 S
C1657 C1658 1.398 1_455 S
C1658 H1646 0.950 1_655 S
C1658 C1657 1.398 1_655 S
C1658 C1659 1.391 . S
C1659 H1647 0.950 . S
C1659 C1655 1.393 . S
C1659 C1658 1.391 . S
H1660 C1668 0.950 . S
H1661 C1673 0.950 . S
H1662 C1670 0.950 . S
H1663 C1672 0.950 . S
H1664 C1674 0.950 . S
H1665 C1676 0.950 . S
H1666 C1678 0.950 . S
H1667 C1679 0.950 . S
C1668 H1660 0.950 . S
C1668 C1669 1.386 . S
C1668 C1670 1.391 . S
C1669 C1668 1.386 . S
C1669 C1673 1.393 . S
C1670 H1662 0.950 . S
C1670 C1668 1.391 . S
C1670 C1671 1.400 . S
C1671 C1670 1.400 . S
C1671 C1672 1.398 . S
C1671 C1677 1.491 . S
C1672 H1663 0.950 . S
C1672 C1671 1.398 . S
C1672 C1673 1.391 . S
C1673 H1661 0.950 . S
C1673 C1669 1.393 . S
C1673 C1672 1.391 . S
C1674 H1664 0.950 . S
C1674 C1675 1.386 . S
C1674 C1676 1.391 . S
C1675 C1674 1.386 . S
C1675 C1679 1.393 . S
C1676 H1665 0.950 . S
C1676 C1674 1.391 . S
C1676 C1677 1.400 . S
C1677 C1671 1.491 . S
C1677 C1676 1.400 . S
C1677 C1678 1.398 . S
C1678 H1666 0.950 . S
C1678 C1677 1.398 . S
C1678 C1679 1.391 . S
C1679 H1667 0.950 . S
C1679 C1675 1.393 . S
C1679 C1678 1.391 . S
H1680 C1688 0.950 1_455 S
H1681 C1693 0.950 . S
H1682 C1690 0.950 . S
H1683 C1692 0.950 . S
H1684 C1694 0.950 . S
H1685 C1696 0.950 . S
H1686 C1698 0.950 . S
H1687 C1699 0.950 . S
C1688 H1680 0.950 1_655 S
C1688 C1689 1.386 . S
C1688 C1690 1.391 . S
C1689 C1688 1.386 . S
C1689 C1693 1.393 . S
C1690 H1682 0.950 . S
C1690 C1688 1.391 . S
C1690 C1691 1.400 . S
C1691 C1690 1.400 . S
C1691 C1692 1.398 . S
C1691 C1697 1.491 . S
C1692 H1683 0.950 . S
C1692 C1691 1.398 . S
C1692 C1693 1.391 . S
C1693 H1681 0.950 . S
C1693 C1689 1.393 . S
C1693 C1692 1.391 . S
C1694 H1684 0.950 . S
C1694 C1695 1.386 . S
C1694 C1696 1.391 . S
C1695 C1694 1.386 . S
C1695 C1699 1.393 . S
C1696 H1685 0.950 . S
C1696 C1694 1.391 . S
C1696 C1697 1.400 . S
C1697 C1691 1.491 . S
C1697 C1696 1.400 . S
C1697 C1698 1.398 . S
C1698 H1686 0.950 . S
C1698 C1697 1.398 . S
C1698 C1699 1.391 . S
C1699 H1687 0.950 . S
C1699 C1695 1.393 . S
C1699 C1698 1.391 . S
H1700 C1708 0.950 . S
H1701 C1713 0.950 1_455 S
H1702 C1710 0.950 . S
H1703 C1712 0.950 1_455 S
H1704 C1714 0.950 . S
H1705 C1716 0.950 . S
H1706 C1718 0.950 . S
H1707 C1719 0.950 . S
C1708 H1700 0.950 . S
C1708 C1709 1.386 . S
C1708 C1710 1.391 . S
C1709 C1708 1.386 . S
C1709 C1713 1.393 . S
C1710 H1702 0.950 . S
C1710 C1708 1.391 . S
C1710 C1711 1.400 . S
C1711 C1710 1.400 . S
C1711 C1712 1.398 . S
C1711 C1717 1.491 . S
C1712 H1703 0.950 1_655 S
C1712 C1711 1.398 . S
C1712 C1713 1.391 . S
C1713 H1701 0.950 1_655 S
C1713 C1709 1.393 . S
C1713 C1712 1.391 . S
C1714 H1704 0.950 . S
C1714 C1715 1.386 . S
C1714 C1716 1.391 . S
C1715 C1714 1.386 . S
C1715 C1719 1.393 . S
C1716 H1705 0.950 . S
C1716 C1714 1.391 . S
C1716 C1717 1.400 . S
C1717 C1711 1.491 . S
C1717 C1716 1.400 . S
C1717 C1718 1.398 . S
C1718 H1706 0.950 . S
C1718 C1717 1.398 . S
C1718 C1719 1.391 . S
C1719 H1707 0.950 . S
C1719 C1715 1.393 . S
C1719 C1718 1.391 . S
H1720 C1728 0.950 . S
H1721 C1733 0.950 . S
H1722 C1730 0.950 . S
H1723 C1732 0.950 . S
H1724 C1734 0.950 . S
H1725 C1736 0.950 . S
H1726 C1738 0.950 . S
H1727 C1739 0.950 . S
C1728 H1720 0.950 . S
C1728 C1729 1.386 . S
C1728 C1730 1.391 . S
C1729 C1728 1.386 . S
C1729 C1733 1.393 . S
C1730 H1722 0.950 . S
C1730 C1728 1.391 . S
C1730 C1731 1.400 . S
C1731 C1730 1.400 . S
C1731 C1732 1.398 . S
C1731 C1737 1.491 . S
C1732 H1723 0.950 . S
C1732 C1731 1.398 . S
C1732 C1733 1.391 . S
C1733 H1721 0.950 . S
C1733 C1729 1.393 . S
C1733 C1732 1.391 . S
C1734 H1724 0.950 . S
C1734 C1735 1.386 . S
C1734 C1736 1.391 . S
C1735 C1734 1.386 . S
C1735 C1739 1.393 . S
C1736 H1725 0.950 . S
C1736 C1734 1.391 . S
C1736 C1737 1.400 . S
C1737 C1731 1.491 . S
C1737 C1736 1.400 . S
C1737 C1738 1.398 . S
C1738 H1726 0.950 . S
C1738 C1737 1.398 . S
C1738 C1739 1.391 . S
C1739 H1727 0.950 . S
C1739 C1735 1.393 . S
C1739 C1738 1.391 . S
H1740 C1748 0.950 . S
H1741 C1753 0.950 . S
H1742 C1750 0.950 . S
H1743 C1752 0.950 . S
H1744 C1754 0.950 . S
H1745 C1756 0.950 . S
H1746 C1758 0.950 . S
H1747 C1759 0.950 . S
C1748 H1740 0.950 . S
C1748 C1749 1.386 . S
C1748 C1750 1.391 . S
C1749 C1748 1.386 . S
C1749 C1753 1.393 . S
C1750 H1742 0.950 . S
C1750 C1748 1.391 . S
C1750 C1751 1.400 . S
C1751 C1750 1.400 . S
C1751 C1752 1.398 . S
C1751 C1757 1.491 1_556 S
C1752 H1743 0.950 . S
C1752 C1751 1.398 . S
C1752 C1753 1.391 . S
C1753 H1741 0.950 . S
C1753 C1749 1.393 . S
C1753 C1752 1.391 . S
C1754 H1744 0.950 . S
C1754 C1755 1.386 . S
C1754 C1756 1.391 . S
C1755 C1754 1.386 . S
C1755 C1759 1.393 . S
C1756 H1745 0.950 . S
C1756 C1754 1.391 . S
C1756 C1757 1.400 . S
C1757 C1751 1.491 1_554 S
C1757 C1756 1.400 . S
C1757 C1758 1.398 . S
C1758 H1746 0.950 . S
C1758 C1757 1.398 . S
C1758 C1759 1.391 . S
C1759 H1747 0.950 . S
C1759 C1755 1.393 . S
C1759 C1758 1.391 . S
H1760 C1768 0.950 . S
H1761 C1773 0.950 . S
H1762 C1770 0.950 . S
H1763 C1772 0.950 . S
H1764 C1774 0.950 . S
H1765 C1776 0.950 . S
H1766 C1778 0.950 . S
H1767 C1779 0.950 . S
C1768 H1760 0.950 . S
C1768 C1769 1.386 . S
C1768 C1770 1.391 . S
C1769 C1768 1.386 . S
C1769 C1773 1.393 1_655 S
C1770 H1762 0.950 . S
C1770 C1768 1.391 . S
C1770 C1771 1.400 . S
C1771 C1770 1.400 . S
C1771 C1772 1.398 . S
C1771 C1777 1.491 . S
C1772 H1763 0.950 . S
C1772 C1771 1.398 . S
C1772 C1773 1.391 1_655 S
C1773 H1761 0.950 . S
C1773 C1769 1.393 1_455 S
C1773 C1772 1.391 1_455 S
C1774 H1764 0.950 . S
C1774 C1775 1.386 . S
C1774 C1776 1.391 . S
C1775 C1774 1.386 . S
C1775 C1779 1.393 . S
C1776 H1765 0.950 . S
C1776 C1774 1.391 . S
C1776 C1777 1.400 . S
C1777 C1771 1.491 . S
C1777 C1776 1.400 . S
C1777 C1778 1.398 . S
C1778 H1766 0.950 . S
C1778 C1777 1.398 . S
C1778 C1779 1.391 . S
C1779 H1767 0.950 . S
C1779 C1775 1.393 . S
C1779 C1778 1.391 . S
H1780 C1788 0.950 . S
H1781 C1793 0.950 . S
H1782 C1790 0.950 . S
H1783 C1792 0.950 . S
H1784 C1794 0.950 . S
H1785 C1796 0.950 . S
H1786 C1798 0.950 . S
H1787 C1799 0.950 . S
C1788 H1780 0.950 . S
C1788 C1789 1.386 . S
C1788 C1790 1.391 . S
C1789 C1788 1.386 . S
C1789 C1793 1.393 . S
C1790 H1782 0.950 . S
C1790 C1788 1.391 . S
C1790 C1791 1.400 . S
C1791 C1790 1.400 . S
C1791 C1792 1.398 . S
C1791 C1797 1.491 . S
C1792 H1783 0.950 . S
C1792 C1791 1.398 . S
C1792 C1793 1.391 . S
C1793 H1781 0.950 . S
C1793 C1789 1.393 . S
C1793 C1792 1.391 . S
C1794 H1784 0.950 . S
C1794 C1795 1.386 . S
C1794 C1796 1.391 . S
C1795 C1794 1.386 . S
C1795 C1799 1.393 . S
C1796 H1785 0.950 . S
C1796 C1794 1.391 . S
C1796 C1797 1.400 . S
C1797 C1791 1.491 . S
C1797 C1796 1.400 . S
C1797 C1798 1.398 . S
C1798 H1786 0.950 . S
C1798 C1797 1.398 . S
C1798 C1799 1.391 . S
C1799 H1787 0.950 . S
C1799 C1795 1.393 . S
C1799 C1798 1.391 . S
H1800 C1808 0.950 . S
H1801 C1813 0.950 . S
H1802 C1810 0.950 . S
H1803 C1812 0.950 . S
H1804 C1814 0.950 . S
H1805 C1816 0.950 . S
H1806 C1818 0.950 . S
H1807 C1819 0.950 . S
C1808 H1800 0.950 . S
C1808 C1809 1.386 . S
C1808 C1810 1.391 . S
C1809 C1808 1.386 . S
C1809 C1813 1.393 . S
C1810 H1802 0.950 . S
C1810 C1808 1.391 . S
C1810 C1811 1.400 . S
C1811 C1810 1.400 . S
C1811 C1812 1.398 . S
C1811 C1817 1.491 . S
C1812 H1803 0.950 . S
C1812 C1811 1.398 . S
C1812 C1813 1.391 . S
C1813 H1801 0.950 . S
C1813 C1809 1.393 . S
C1813 C1812 1.391 . S
C1814 H1804 0.950 . S
C1814 C1815 1.386 . S
C1814 C1816 1.391 . S
C1815 C1814 1.386 . S
C1815 C1819 1.393 . S
C1816 H1805 0.950 . S
C1816 C1814 1.391 . S
C1816 C1817 1.400 . S
C1817 C1811 1.491 . S
C1817 C1816 1.400 . S
C1817 C1818 1.398 . S
C1818 H1806 0.950 . S
C1818 C1817 1.398 . S
C1818 C1819 1.391 . S
C1819 H1807 0.950 . S
C1819 C1815 1.393 . S
C1819 C1818 1.391 . S
H1820 C1828 0.950 . S
H1821 C1833 0.950 . S
H1822 C1830 0.950 . S
H1823 C1832 0.950 . S
H1824 C1834 0.950 . S
H1825 C1836 0.950 . S
H1826 C1838 0.941 1_554 S
H1827 C1839 0.950 . S
C1828 H1820 0.950 . S
C1828 C1829 1.386 . S
C1828 C1830 1.391 . S
C1829 C1828 1.386 . S
C1829 C1833 1.393 . S
C1830 H1822 0.950 . S
C1830 C1828 1.391 . S
C1830 C1831 1.400 . S
C1831 C1830 1.400 . S
C1831 C1832 1.398 . S
C1831 C1837 1.491 . S
C1832 H1823 0.950 . S
C1832 C1831 1.398 . S
C1832 C1833 1.391 . S
C1833 H1821 0.950 . S
C1833 C1829 1.393 . S
C1833 C1832 1.391 . S
C1834 H1824 0.950 . S
C1834 C1835 1.386 . S
C1834 C1836 1.391 . S
C1835 C1834 1.386 . S
C1835 C1839 1.393 . S
C1836 H1825 0.950 . S
C1836 C1834 1.391 . S
C1836 C1837 1.400 1_556 S
C1837 C1831 1.491 . S
C1837 C1836 1.400 1_554 S
C1837 C1838 1.396 1_554 S
C1838 H1826 0.941 1_556 S
C1838 C1837 1.396 1_556 S
C1838 C1839 1.402 . S
C1839 H1827 0.950 . S
C1839 C1835 1.393 . S
C1839 C1838 1.402 . S
H1840 C1848 0.950 . S
H1841 C1853 0.950 . S
H1842 C1850 0.950 . S
H1843 C1852 0.950 . S
H1844 C1854 0.950 . S
H1845 C1856 0.950 . S
H1846 C1858 0.950 . S
H1847 C1859 0.950 . S
C1848 H1840 0.950 . S
C1848 C1849 1.386 . S
C1848 C1850 1.391 1_545 S
C1849 C1848 1.386 . S
C1849 C1853 1.393 . S
C1850 H1842 0.950 . S
C1850 C1848 1.391 1_565 S
C1850 C1851 1.400 . S
C1851 C1850 1.400 . S
C1851 C1852 1.398 1_565 S
C1851 C1857 1.491 . S
C1852 H1843 0.950 . S
C1852 C1851 1.398 1_545 S
C1852 C1853 1.391 . S
C1853 H1841 0.950 . S
C1853 C1849 1.393 . S
C1853 C1852 1.391 . S
C1854 H1844 0.950 . S
C1854 C1855 1.386 . S
C1854 C1856 1.391 . S
C1855 C1854 1.386 . S
C1855 C1859 1.393 . S
C1856 H1845 0.950 . S
C1856 C1854 1.391 . S
C1856 C1857 1.400 . S
C1857 C1851 1.491 . S
C1857 C1856 1.400 . S
C1857 C1858 1.398 . S
C1858 H1846 0.950 . S
C1858 C1857 1.398 . S
C1858 C1859 1.391 . S
C1859 H1847 0.950 . S
C1859 C1855 1.393 . S
C1859 C1858 1.391 . S
H1860 C1868 0.950 1_565 S
H1861 C1873 0.950 . S
H1862 C1870 0.950 . S
H1863 C1872 0.950 . S
H1864 C1874 0.950 . S
H1865 C1876 0.950 . S
H1866 C1878 0.950 . S
H1867 C1879 0.950 . S
C1868 H1860 0.950 1_545 S
C1868 C1869 1.386 1_545 S
C1868 C1870 1.391 . S
C1869 C1868 1.386 1_565 S
C1869 C1873 1.393 . S
C1870 H1862 0.950 . S
C1870 C1868 1.391 . S
C1870 C1871 1.400 . S
C1871 C1870 1.400 . S
C1871 C1872 1.398 . S
C1871 C1877 1.491 . S
C1872 H1863 0.950 . S
C1872 C1871 1.398 . S
C1872 C1873 1.391 1_545 S
C1873 H1861 0.950 . S
C1873 C1869 1.393 . S
C1873 C1872 1.391 1_565 S
C1874 H1864 0.950 . S
C1874 C1875 1.386 . S
C1874 C1876 1.391 . S
C1875 C1874 1.386 . S
C1875 C1879 1.393 . S
C1876 H1865 0.950 . S
C1876 C1874 1.391 . S
C1876 C1877 1.400 . S
C1877 C1871 1.491 . S
C1877 C1876 1.400 . S
C1877 C1878 1.398 . S
C1878 H1866 0.950 . S
C1878 C1877 1.398 . S
C1878 C1879 1.391 . S
C1879 H1867 0.950 . S
C1879 C1875 1.393 . S
C1879 C1878 1.391 . S
H1880 C1888 0.950 . S
H1881 C1893 0.950 . S
H1882 C1890 0.950 . S
H1883 C1892 0.950 . S
H1884 C1894 0.950 . S
H1885 C1896 0.950 . S
H1886 C1898 0.950 . S
H1887 C1899 0.950 . S
C1888 H1880 0.950 . S
C1888 C1889 1.386 . S
C1888 C1890 1.391 . S
C1889 C1888 1.386 . S
C1889 C1893 1.393 . S
C1890 H1882 0.950 . S
C1890 C1888 1.391 . S
C1890 C1891 1.400 . S
C1891 C1890 1.400 . S
C1891 C1892 1.398 . S
C1891 C1897 1.491 . S
C1892 H1883 0.950 . S
C1892 C1891 1.398 . S
C1892 C1893 1.391 . S
C1893 H1881 0.950 . S
C1893 C1889 1.393 . S
C1893 C1892 1.391 . S
C1894 H1884 0.950 . S
C1894 C1895 1.386 . S
C1894 C1896 1.391 . S
C1895 C1894 1.386 . S
C1895 C1899 1.393 . S
C1896 H1885 0.950 . S
C1896 C1894 1.391 . S
C1896 C1897 1.400 . S
C1897 C1891 1.491 . S
C1897 C1896 1.400 . S
C1897 C1898 1.398 . S
C1898 H1886 0.950 . S
C1898 C1897 1.398 . S
C1898 C1899 1.391 . S
C1899 H1887 0.950 . S
C1899 C1895 1.393 . S
C1899 C1898 1.391 . S
H1900 C1908 0.950 . S
H1901 C1913 0.950 . S
H1902 C1910 0.950 . S
H1903 C1912 0.950 . S
H1904 C1914 0.950 . S
H1905 C1916 0.950 . S
H1906 C1918 0.950 . S
H1907 C1919 0.950 . S
C1908 H1900 0.950 . S
C1908 C1909 1.386 . S
C1908 C1910 1.391 . S
C1909 C1908 1.386 . S
C1909 C1913 1.393 . S
C1910 H1902 0.950 . S
C1910 C1908 1.391 . S
C1910 C1911 1.400 . S
C1911 C1910 1.400 . S
C1911 C1912 1.398 . S
C1911 C1917 1.491 . S
C1912 H1903 0.950 . S
C1912 C1911 1.398 . S
C1912 C1913 1.391 . S
C1913 H1901 0.950 . S
C1913 C1909 1.393 . S
C1913 C1912 1.391 . S
C1914 H1904 0.950 . S
C1914 C1915 1.386 . S
C1914 C1916 1.391 1_565 S
C1915 C1914 1.386 . S
C1915 C1919 1.393 . S
C1916 H1905 0.950 . S
C1916 C1914 1.391 1_545 S
C1916 C1917 1.400 . S
C1917 C1911 1.491 . S
C1917 C1916 1.400 . S
C1917 C1918 1.398 . S
C1918 H1906 0.950 . S
C1918 C1917 1.398 . S
C1918 C1919 1.391 1_545 S
C1919 H1907 0.950 . S
C1919 C1915 1.393 . S
C1919 C1918 1.391 1_565 S
H1920 C1928 0.950 . S
H1921 C1933 0.950 . S
H1922 C1930 0.950 . S
H1923 C1932 0.950 . S
H1924 C1934 0.950 . S
H1925 C1936 0.950 . S
H1926 C1938 0.950 . S
H1927 C1939 0.950 . S
C1928 H1920 0.950 . S
C1928 C1929 1.386 . S
C1928 C1930 1.391 . S
C1929 C1928 1.386 . S
C1929 C1933 1.393 . S
C1930 H1922 0.950 . S
C1930 C1928 1.391 . S
C1930 C1931 1.400 . S
C1931 C1930 1.400 . S
C1931 C1932 1.398 . S
C1931 C1937 1.491 . S
C1932 H1923 0.950 . S
C1932 C1931 1.398 . S
C1932 C1933 1.391 . S
C1933 H1921 0.950 . S
C1933 C1929 1.393 . S
C1933 C1932 1.391 . S
C1934 H1924 0.950 . S
C1934 C1935 1.386 . S
C1934 C1936 1.391 . S
C1935 C1934 1.386 . S
C1935 C1939 1.393 . S
C1936 H1925 0.950 . S
C1936 C1934 1.391 . S
C1936 C1937 1.400 . S
C1937 C1931 1.491 . S
C1937 C1936 1.400 . S
C1937 C1938 1.398 . S
C1938 H1926 0.950 . S
C1938 C1937 1.398 . S
C1938 C1939 1.391 . S
C1939 H1927 0.950 . S
C1939 C1935 1.393 . S
C1939 C1938 1.391 . S
H1940 C1948 0.950 . S
H1941 C1953 0.950 . S
H1942 C1950 0.950 . S
H1943 C1952 0.950 . S
H1944 C1954 0.950 . S
H1945 C1956 0.950 . S
H1946 C1958 0.950 . S
H1947 C1959 0.950 . S
C1948 H1940 0.950 . S
C1948 C1949 1.386 . S
C1948 C1950 1.391 1_565 S
C1949 C1948 1.386 . S
C1949 C1953 1.393 . S
C1950 H1942 0.950 . S
C1950 C1948 1.391 1_545 S
C1950 C1951 1.400 . S
C1951 C1950 1.400 . S
C1951 C1952 1.398 1_545 S
C1951 C1957 1.491 . S
C1952 H1943 0.950 . S
C1952 C1951 1.398 1_565 S
C1952 C1953 1.391 . S
C1953 H1941 0.950 . S
C1953 C1949 1.393 . S
C1953 C1952 1.391 . S
C1954 H1944 0.950 . S
C1954 C1955 1.386 . S
C1954 C1956 1.391 . S
C1955 C1954 1.386 . S
C1955 C1959 1.393 . S
C1956 H1945 0.950 . S
C1956 C1954 1.391 . S
C1956 C1957 1.400 . S
C1957 C1951 1.491 . S
C1957 C1956 1.400 . S
C1957 C1958 1.398 . S
C1958 H1946 0.950 . S
C1958 C1957 1.398 . S
C1958 C1959 1.391 . S
C1959 H1947 0.950 . S
C1959 C1955 1.393 . S
C1959 C1958 1.391 . S
H1960 C1968 0.950 . S
H1961 C1973 0.950 . S
H1962 C1970 0.950 . S
H1963 C1972 0.950 . S
H1964 C1974 0.950 . S
H1965 C1976 0.950 . S
H1966 C1978 0.950 . S
H1967 C1979 0.950 . S
C1968 H1960 0.950 . S
C1968 C1969 1.386 . S
C1968 C1970 1.391 . S
C1969 C1968 1.386 . S
C1969 C1973 1.393 . S
C1970 H1962 0.950 . S
C1970 C1968 1.391 . S
C1970 C1971 1.400 . S
C1971 C1970 1.400 . S
C1971 C1972 1.398 . S
C1971 C1977 1.491 . S
C1972 H1963 0.950 . S
C1972 C1971 1.398 . S
C1972 C1973 1.391 . S
C1973 H1961 0.950 . S
C1973 C1969 1.393 . S
C1973 C1972 1.391 . S
C1974 H1964 0.950 . S
C1974 C1975 1.386 . S
C1974 C1976 1.391 . S
C1975 C1974 1.386 . S
C1975 C1979 1.393 . S
C1976 H1965 0.950 . S
C1976 C1974 1.391 . S
C1976 C1977 1.400 . S
C1977 C1971 1.491 . S
C1977 C1976 1.400 . S
C1977 C1978 1.398 . S
C1978 H1966 0.950 . S
C1978 C1977 1.398 . S
C1978 C1979 1.391 . S
C1979 H1967 0.950 . S
C1979 C1975 1.393 . S
C1979 C1978 1.391 . S
H1980 C1988 0.950 . S
H1981 C1993 0.950 . S
H1982 C1990 0.950 . S
H1983 C1992 0.950 . S
H1984 C1994 0.950 1_565 S
H1985 C1996 0.950 . S
H1986 C1998 0.950 . S
H1987 C1999 0.950 . S
C1988 H1980 0.950 . S
C1988 C1989 1.386 . S
C1988 C1990 1.391 . S
C1989 C1988 1.386 . S
C1989 C1993 1.393 . S
C1990 H1982 0.950 . S
C1990 C1988 1.391 . S
C1990 C1991 1.400 . S
C1991 C1990 1.400 . S
C1991 C1992 1.398 . S
C1991 C1997 1.491 . S
C1992 H1983 0.950 . S
C1992 C1991 1.398 . S
C1992 C1993 1.391 . S
C1993 H1981 0.950 . S
C1993 C1989 1.393 . S
C1993 C1992 1.391 . S
C1994 H1984 0.950 1_545 S
C1994 C1995 1.386 1_545 S
C1994 C1996 1.391 . S
C1995 C1994 1.386 1_565 S
C1995 C1999 1.393 1_565 S
C1996 H1985 0.950 . S
C1996 C1994 1.391 . S
C1996 C1997 1.400 . S
C1997 C1991 1.491 . S
C1997 C1996 1.400 . S
C1997 C1998 1.398 . S
C1998 H1986 0.950 . S
C1998 C1997 1.398 . S
C1998 C1999 1.391 . S
C1999 H1987 0.950 . S
C1999 C1995 1.393 1_545 S
C1999 C1998 1.391 . S
H2000 C2008 0.950 . S
H2001 C2013 0.950 . S
H2002 C2010 0.950 . S
H2003 C2012 0.950 . S
H2004 C2014 0.950 . S
H2005 C2016 0.950 . S
H2006 C2018 0.950 . S
H2007 C2019 0.950 . S
C2008 H2000 0.950 . S
C2008 C2009 1.386 . S
C2008 C2010 1.391 . S
C2009 C2008 1.386 . S
C2009 C2013 1.393 . S
C2010 H2002 0.950 . S
C2010 C2008 1.391 . S
C2010 C2011 1.400 . S
C2011 C2010 1.400 . S
C2011 C2012 1.398 . S
C2011 C2017 1.491 . S
C2012 H2003 0.950 . S
C2012 C2011 1.398 . S
C2012 C2013 1.391 . S
C2013 H2001 0.950 . S
C2013 C2009 1.393 . S
C2013 C2012 1.391 . S
C2014 H2004 0.950 . S
C2014 C2015 1.386 . S
C2014 C2016 1.391 . S
C2015 C2014 1.386 . S
C2015 C2019 1.393 . S
C2016 H2005 0.950 . S
C2016 C2014 1.391 . S
C2016 C2017 1.400 . S
C2017 C2011 1.491 . S
C2017 C2016 1.400 . S
C2017 C2018 1.398 . S
C2018 H2006 0.950 . S
C2018 C2017 1.398 . S
C2018 C2019 1.391 . S
C2019 H2007 0.950 . S
C2019 C2015 1.393 . S
C2019 C2018 1.391 . S
H2020 C2028 0.950 . S
H2021 C2033 0.950 . S
H2022 C2030 0.950 . S
H2023 C2032 0.950 . S
H2024 C2034 0.950 . S
H2025 C2036 0.950 . S
H2026 C2038 0.950 . S
H2027 C2039 0.950 . S
C2028 H2020 0.950 . S
C2028 C2029 1.386 . S
C2028 C2030 1.391 . S
C2029 C2028 1.386 . S
C2029 C2033 1.393 . S
C2030 H2022 0.950 . S
C2030 C2028 1.391 . S
C2030 C2031 1.400 . S
C2031 C2030 1.400 . S
C2031 C2032 1.398 . S
C2031 C2037 1.491 . S
C2032 H2023 0.950 . S
C2032 C2031 1.398 . S
C2032 C2033 1.391 . S
C2033 H2021 0.950 . S
C2033 C2029 1.393 . S
C2033 C2032 1.391 . S
C2034 H2024 0.950 . S
C2034 C2035 1.386 . S
C2034 C2036 1.391 . S
C2035 C2034 1.386 . S
C2035 C2039 1.393 . S
C2036 H2025 0.950 . S
C2036 C2034 1.391 . S
C2036 C2037 1.400 . S
C2037 C2031 1.491 . S
C2037 C2036 1.400 . S
C2037 C2038 1.398 . S
C2038 H2026 0.950 . S
C2038 C2037 1.398 . S
C2038 C2039 1.391 . S
C2039 H2027 0.950 . S
C2039 C2035 1.393 . S
C2039 C2038 1.391 . S
H2040 C2048 0.950 . S
H2041 C2053 0.950 . S
H2042 C2050 0.950 . S
H2043 C2052 0.950 . S
H2044 C2054 0.950 . S
H2045 C2056 0.950 . S
H2046 C2058 0.950 . S
H2047 C2059 0.950 . S
C2048 H2040 0.950 . S
C2048 C2049 1.386 . S
C2048 C2050 1.391 . S
C2049 C2048 1.386 . S
C2049 C2053 1.393 . S
C2050 H2042 0.950 . S
C2050 C2048 1.391 . S
C2050 C2051 1.400 . S
C2051 C2050 1.400 . S
C2051 C2052 1.398 . S
C2051 C2057 1.491 1_655 S
C2052 H2043 0.950 . S
C2052 C2051 1.398 . S
C2052 C2053 1.391 . S
C2053 H2041 0.950 . S
C2053 C2049 1.393 . S
C2053 C2052 1.391 . S
C2054 H2044 0.950 . S
C2054 C2055 1.386 . S
C2054 C2056 1.391 . S
C2055 C2054 1.386 . S
C2055 C2059 1.393 . S
C2056 H2045 0.950 . S
C2056 C2054 1.391 . S
C2056 C2057 1.400 . S
C2057 C2051 1.491 1_455 S
C2057 C2056 1.400 . S
C2057 C2058 1.398 . S
C2058 H2046 0.950 . S
C2058 C2057 1.398 . S
C2058 C2059 1.391 . S
C2059 H2047 0.950 . S
C2059 C2055 1.393 . S
C2059 C2058 1.391 . S
H2060 C2068 0.950 . S
H2061 C2073 0.950 . S
H2062 C2070 0.950 . S
H2063 C2072 0.950 . S
H2064 C2074 0.950 . S
H2065 C2076 0.950 . S
H2066 C2078 0.950 . S
H2067 C2079 0.950 . S
C2068 H2060 0.950 . S
C2068 C2069 1.386 . S
C2068 C2070 1.391 . S
C2069 C2068 1.386 . S
C2069 C2073 1.393 . S
C2070 H2062 0.950 . S
C2070 C2068 1.391 . S
C2070 C2071 1.400 . S
C2071 C2070 1.400 . S
C2071 C2072 1.398 . S
C2071 C2077 1.491 . S
C2072 H2063 0.950 . S
C2072 C2071 1.398 . S
C2072 C2073 1.391 . S
C2073 H2061 0.950 . S
C2073 C2069 1.393 . S
C2073 C2072 1.391 . S
C2074 H2064 0.950 . S
C2074 C2075 1.386 . S
C2074 C2076 1.391 . S
C2075 C2074 1.386 . S
C2075 C2079 1.393 . S
C2076 H2065 0.950 . S
C2076 C2074 1.391 . S
C2076 C2077 1.400 . S
C2077 C2071 1.491 . S
C2077 C2076 1.400 . S
C2077 C2078 1.398 . S
C2078 H2066 0.950 . S
C2078 C2077 1.398 . S
C2078 C2079 1.391 . S
C2079 H2067 0.950 . S
C2079 C2075 1.393 . S
C2079 C2078 1.391 . S
H2080 C2088 0.950 . S
H2081 C2093 0.950 . S
H2082 C2090 0.950 . S
H2083 C2092 0.950 . S
H2084 C2094 0.950 . S
H2085 C2096 0.950 . S
H2086 C2098 0.950 . S
H2087 C2099 0.950 . S
C2088 H2080 0.950 . S
C2088 C2089 1.386 1_565 S
C2088 C2090 1.391 . S
C2089 C2088 1.386 1_545 S
C2089 C2093 1.393 . S
C2090 H2082 0.950 . S
C2090 C2088 1.391 . S
C2090 C2091 1.400 1_565 S
C2091 C2090 1.400 1_545 S
C2091 C2092 1.398 . S
C2091 C2097 1.452 1_445 S
C2092 H2083 0.950 . S
C2092 C2091 1.398 . S
C2092 C2093 1.391 . S
C2093 H2081 0.950 . S
C2093 C2089 1.393 . S
C2093 C2092 1.391 . S
C2094 H2084 0.950 . S
C2094 C2095 1.386 1_545 S
C2094 C2096 1.391 . S
C2095 C2094 1.386 1_565 S
C2095 C2099 1.393 . S
C2096 H2085 0.950 . S
C2096 C2094 1.391 . S
C2096 C2097 1.410 1_545 S
C2097 C2091 1.452 1_665 S
C2097 C2096 1.410 1_565 S
C2097 C2098 1.430 . S
C2098 H2086 0.950 . S
C2098 C2097 1.430 . S
C2098 C2099 1.391 . S
C2099 H2087 0.950 . S
C2099 C2095 1.393 . S
C2099 C2098 1.391 . S
H2100 C2108 0.950 . S
H2101 C2113 0.950 . S
H2102 C2110 0.950 . S
H2103 C2112 0.950 . S
H2104 C2114 0.950 . S
H2105 C2116 0.950 . S
H2106 C2118 0.950 . S
H2107 C2119 0.950 . S
C2108 H2100 0.950 . S
C2108 C2109 1.386 . S
C2108 C2110 1.391 . S
C2109 C2108 1.386 . S
C2109 C2113 1.393 . S
C2110 H2102 0.950 . S
C2110 C2108 1.391 . S
C2110 C2111 1.400 . S
C2111 C2110 1.400 . S
C2111 C2112 1.398 . S
C2111 C2117 1.491 . S
C2112 H2103 0.950 . S
C2112 C2111 1.398 . S
C2112 C2113 1.391 . S
C2113 H2101 0.950 . S
C2113 C2109 1.393 . S
C2113 C2112 1.391 . S
C2114 H2104 0.950 . S
C2114 C2115 1.386 . S
C2114 C2116 1.391 . S
C2115 C2114 1.386 . S
C2115 C2119 1.393 . S
C2116 H2105 0.950 . S
C2116 C2114 1.391 . S
C2116 C2117 1.400 . S
C2117 C2111 1.491 . S
C2117 C2116 1.400 . S
C2117 C2118 1.398 . S
C2118 H2106 0.950 . S
C2118 C2117 1.398 . S
C2118 C2119 1.391 . S
C2119 H2107 0.950 . S
C2119 C2115 1.393 . S
C2119 C2118 1.391 . S
H2120 C2128 0.950 . S
H2121 C2133 0.950 . S
H2122 C2130 0.950 . S
H2123 C2132 0.950 . S
H2124 C2134 0.950 . S
H2125 C2136 0.950 . S
H2126 C2138 0.950 . S
H2127 C2139 0.950 . S
C2128 H2120 0.950 . S
C2128 C2129 1.386 . S
C2128 C2130 1.391 . S
C2129 C2128 1.386 . S
C2129 C2133 1.393 . S
C2130 H2122 0.950 . S
C2130 C2128 1.391 . S
C2130 C2131 1.400 . S
C2131 C2130 1.400 . S
C2131 C2132 1.398 . S
C2131 C2137 1.491 1_655 S
C2132 H2123 0.950 . S
C2132 C2131 1.398 . S
C2132 C2133 1.391 . S
C2133 H2121 0.950 . S
C2133 C2129 1.393 . S
C2133 C2132 1.391 . S
C2134 H2124 0.950 . S
C2134 C2135 1.386 . S
C2134 C2136 1.391 . S
C2135 C2134 1.386 . S
C2135 C2139 1.393 . S
C2136 H2125 0.950 . S
C2136 C2134 1.391 . S
C2136 C2137 1.400 . S
C2137 C2131 1.491 1_455 S
C2137 C2136 1.400 . S
C2137 C2138 1.398 . S
C2138 H2126 0.950 . S
C2138 C2137 1.398 . S
C2138 C2139 1.391 . S
C2139 H2127 0.950 . S
C2139 C2135 1.393 . S
C2139 C2138 1.391 . S
H2140 C2148 0.950 . S
H2141 C2153 0.950 . S
H2142 C2150 0.950 . S
H2143 C2152 0.950 . S
H2144 C2154 0.950 . S
H2145 C2156 0.950 . S
H2146 C2158 0.950 . S
H2147 C2159 0.950 . S
C2148 H2140 0.950 . S
C2148 C2149 1.386 . S
C2148 C2150 1.391 . S
C2149 C2148 1.386 . S
C2149 C2153 1.393 . S
C2150 H2142 0.950 . S
C2150 C2148 1.391 . S
C2150 C2151 1.400 . S
C2151 C2150 1.400 . S
C2151 C2152 1.398 . S
C2151 C2157 1.491 . S
C2152 H2143 0.950 . S
C2152 C2151 1.398 . S
C2152 C2153 1.391 . S
C2153 H2141 0.950 . S
C2153 C2149 1.393 . S
C2153 C2152 1.391 . S
C2154 H2144 0.950 . S
C2154 C2155 1.386 . S
C2154 C2156 1.391 . S
C2155 C2154 1.386 . S
C2155 C2159 1.393 . S
C2156 H2145 0.950 . S
C2156 C2154 1.391 . S
C2156 C2157 1.400 . S
C2157 C2151 1.491 . S
C2157 C2156 1.400 . S
C2157 C2158 1.398 . S
C2158 H2146 0.950 . S
C2158 C2157 1.398 . S
C2158 C2159 1.391 . S
C2159 H2147 0.950 . S
C2159 C2155 1.393 . S
C2159 C2158 1.391 . S
H2160 C2168 0.950 . S
H2161 C2173 0.950 . S
H2162 C2170 0.950 . S
H2163 C2172 0.950 . S
H2164 C2174 0.950 . S
H2165 C2176 0.950 . S
H2166 C2178 0.950 . S
H2167 C2179 0.950 . S
C2168 H2160 0.950 . S
C2168 C2169 1.386 . S
C2168 C2170 1.391 . S
C2169 C2168 1.386 . S
C2169 C2173 1.393 . S
C2170 H2162 0.950 . S
C2170 C2168 1.391 . S
C2170 C2171 1.400 . S
C2171 C2170 1.400 . S
C2171 C2172 1.398 . S
C2171 C2177 1.491 . S
C2172 H2163 0.950 . S
C2172 C2171 1.398 . S
C2172 C2173 1.391 . S
C2173 H2161 0.950 . S
C2173 C2169 1.393 . S
C2173 C2172 1.391 . S
C2174 H2164 0.950 . S
C2174 C2175 1.386 . S
C2174 C2176 1.391 . S
C2175 C2174 1.386 . S
C2175 C2179 1.393 . S
C2176 H2165 0.950 . S
C2176 C2174 1.391 . S
C2176 C2177 1.400 . S
C2177 C2171 1.491 . S
C2177 C2176 1.400 . S
C2177 C2178 1.398 . S
C2178 H2166 0.950 . S
C2178 C2177 1.398 . S
C2178 C2179 1.391 . S
C2179 H2167 0.950 . S
C2179 C2175 1.393 . S
C2179 C2178 1.391 . S
H2180 C2188 0.950 . S
H2181 C2193 0.950 . S
H2182 C2190 0.950 . S
H2183 C2192 0.950 . S
H2184 C2194 0.950 . S
H2185 C2196 0.950 1_554 S
H2186 C2198 0.950 . S
H2187 C2199 0.950 . S
C2188 H2180 0.950 . S
C2188 C2189 1.386 . S
C2188 C2190 1.391 . S
C2189 C2188 1.386 . S
C2189 C2193 1.393 . S
C2190 H2182 0.950 . S
C2190 C2188 1.391 . S
C2190 C2191 1.400 . S
C2191 C2190 1.400 . S
C2191 C2192 1.398 . S
C2191 C2197 1.491 . S
C2192 H2183 0.950 . S
C2192 C2191 1.398 . S
C2192 C2193 1.391 . S
C2193 H2181 0.950 . S
C2193 C2189 1.393 . S
C2193 C2192 1.391 . S
C2194 H2184 0.950 . S
C2194 C2195 1.386 . S
C2194 C2196 1.391 . S
C2195 C2194 1.386 . S
C2195 C2199 1.393 . S
C2196 H2185 0.950 1_556 S
C2196 C2194 1.391 . S
C2196 C2197 1.400 1_556 S
C2197 C2191 1.491 . S
C2197 C2196 1.400 1_554 S
C2197 C2198 1.398 . S
C2198 H2186 0.950 . S
C2198 C2197 1.398 . S
C2198 C2199 1.391 1_554 S
C2199 H2187 0.950 . S
C2199 C2195 1.393 . S
C2199 C2198 1.391 1_556 S
H2200 C2208 0.950 . S
H2201 C2213 0.950 . S
H2202 C2210 0.950 . S
H2203 C2212 0.950 . S
H2204 C2214 0.950 . S
H2205 C2216 0.950 . S
H2206 C2218 0.950 . S
H2207 C2219 0.950 . S
C2208 H2200 0.950 . S
C2208 C2209 1.386 . S
C2208 C2210 1.391 . S
C2209 C2208 1.386 . S
C2209 C2213 1.393 . S
C2210 H2202 0.950 . S
C2210 C2208 1.391 . S
C2210 C2211 1.400 . S
C2211 C2210 1.400 . S
C2211 C2212 1.398 . S
C2211 C2217 1.491 . S
C2212 H2203 0.950 . S
C2212 C2211 1.398 . S
C2212 C2213 1.391 . S
C2213 H2201 0.950 . S
C2213 C2209 1.393 . S
C2213 C2212 1.391 . S
C2214 H2204 0.950 . S
C2214 C2215 1.386 . S
C2214 C2216 1.391 . S
C2215 C2214 1.386 . S
C2215 C2219 1.393 . S
C2216 H2205 0.950 . S
C2216 C2214 1.391 . S
C2216 C2217 1.400 . S
C2217 C2211 1.491 . S
C2217 C2216 1.400 . S
C2217 C2218 1.398 . S
C2218 H2206 0.950 . S
C2218 C2217 1.398 . S
C2218 C2219 1.391 . S
C2219 H2207 0.950 . S
C2219 C2215 1.393 . S
C2219 C2218 1.391 . S
H2220 C2228 0.950 . S
H2221 C2233 0.950 . S
H2222 C2230 0.950 . S
H2223 C2232 0.950 . S
H2224 C2234 0.950 . S
H2225 C2236 0.950 . S
H2226 C2238 0.950 . S
H2227 C2239 0.950 . S
C2228 H2220 0.950 . S
C2228 C2229 1.386 . S
C2228 C2230 1.391 . S
C2229 C2228 1.386 . S
C2229 C2233 1.393 . S
C2230 H2222 0.950 . S
C2230 C2228 1.391 . S
C2230 C2231 1.400 . S
C2231 C2230 1.400 . S
C2231 C2232 1.398 . S
C2231 C2237 1.491 . S
C2232 H2223 0.950 . S
C2232 C2231 1.398 . S
C2232 C2233 1.391 . S
C2233 H2221 0.950 . S
C2233 C2229 1.393 . S
C2233 C2232 1.391 . S
C2234 H2224 0.950 . S
C2234 C2235 1.386 . S
C2234 C2236 1.391 . S
C2235 C2234 1.386 . S
C2235 C2239 1.393 . S
C2236 H2225 0.950 . S
C2236 C2234 1.391 . S
C2236 C2237 1.400 . S
C2237 C2231 1.491 . S
C2237 C2236 1.400 . S
C2237 C2238 1.398 . S
C2238 H2226 0.950 . S
C2238 C2237 1.398 . S
C2238 C2239 1.391 . S
C2239 H2227 0.950 . S
C2239 C2235 1.393 . S
C2239 C2238 1.391 . S
H2240 C2248 0.950 . S
H2241 C2253 0.950 . S
H2242 C2250 0.950 . S
H2243 C2252 0.950 . S
H2244 C2254 0.950 . S
H2245 C2256 0.950 . S
H2246 C2258 0.950 . S
H2247 C2259 0.950 . S
C2248 H2240 0.950 . S
C2248 C2249 1.386 . S
C2248 C2250 1.391 . S
C2249 C2248 1.386 . S
C2249 C2253 1.393 . S
C2250 H2242 0.950 . S
C2250 C2248 1.391 . S
C2250 C2251 1.400 . S
C2251 C2250 1.400 . S
C2251 C2252 1.398 . S
C2251 C2257 1.491 . S
C2252 H2243 0.950 . S
C2252 C2251 1.398 . S
C2252 C2253 1.391 . S
C2253 H2241 0.950 . S
C2253 C2249 1.393 . S
C2253 C2252 1.391 . S
C2254 H2244 0.950 . S
C2254 C2255 1.386 . S
C2254 C2256 1.391 . S
C2255 C2254 1.386 . S
C2255 C2259 1.393 . S
C2256 H2245 0.950 . S
C2256 C2254 1.391 . S
C2256 C2257 1.400 . S
C2257 C2251 1.491 . S
C2257 C2256 1.400 . S
C2257 C2258 1.398 . S
C2258 H2246 0.950 . S
C2258 C2257 1.398 . S
C2258 C2259 1.391 . S
C2259 H2247 0.950 . S
C2259 C2255 1.393 . S
C2259 C2258 1.391 . S
H2260 C2268 0.950 . S
H2261 C2273 0.950 . S
H2262 C2270 0.950 1_554 S
H2263 C2272 0.950 . S
H2264 C2274 0.950 . S
H2265 C2276 0.950 . S
H2266 C2278 0.950 1_455 S
H2267 C2279 0.950 . S
C2268 H2260 0.950 . S
C2268 C2269 1.386 . S
C2268 C2270 1.391 . S
C2269 C2268 1.386 . S
C2269 C2273 1.393 1_455 S
C2270 H2262 0.950 1_556 S
C2270 C2268 1.391 . S
C2270 C2271 1.400 1_456 S
C2271 C2270 1.400 1_654 S
C2271 C2272 1.398 1_554 S
C2271 C2277 1.491 . S
C2272 H2263 0.950 . S
C2272 C2271 1.398 1_556 S
C2272 C2273 1.391 . S
C2273 H2261 0.950 . S
C2273 C2269 1.393 1_655 S
C2273 C2272 1.391 . S
C2274 H2264 0.950 . S
C2274 C2275 1.386 . S
C2274 C2276 1.391 . S
C2275 C2274 1.386 . S
C2275 C2279 1.393 . S
C2276 H2265 0.950 . S
C2276 C2274 1.391 . S
C2276 C2277 1.400 . S
C2277 C2271 1.491 . S
C2277 C2276 1.400 . S
C2277 C2278 1.398 . S
C2278 H2266 0.950 1_655 S
C2278 C2277 1.398 . S
C2278 C2279 1.391 . S
C2279 H2267 0.950 . S
C2279 C2275 1.393 . S
C2279 C2278 1.391 . S
H2280 C2288 0.950 . S
H2281 C2293 0.950 . S
H2282 C2290 0.950 . S
H2283 C2292 0.950 . S
H2284 C2294 0.950 . S
H2285 C2296 0.950 . S
H2286 C2298 0.950 . S
H2287 C2299 0.950 . S
C2288 H2280 0.950 . S
C2288 C2289 1.386 . S
C2288 C2290 1.391 . S
C2289 C2288 1.386 . S
C2289 C2293 1.393 . S
C2290 H2282 0.950 . S
C2290 C2288 1.391 . S
C2290 C2291 1.400 . S
C2291 C2290 1.400 . S
C2291 C2292 1.398 . S
C2291 C2297 1.491 . S
C2292 H2283 0.950 . S
C2292 C2291 1.398 . S
C2292 C2293 1.391 . S
C2293 H2281 0.950 . S
C2293 C2289 1.393 . S
C2293 C2292 1.391 . S
C2294 H2284 0.950 . S
C2294 C2295 1.386 . S
C2294 C2296 1.391 . S
C2295 C2294 1.386 . S
C2295 C2299 1.393 . S
C2296 H2285 0.950 . S
C2296 C2294 1.391 . S
C2296 C2297 1.400 . S
C2297 C2291 1.491 . S
C2297 C2296 1.400 . S
C2297 C2298 1.398 . S
C2298 H2286 0.950 . S
C2298 C2297 1.398 . S
C2298 C2299 1.391 . S
C2299 H2287 0.950 . S
C2299 C2295 1.393 . S
C2299 C2298 1.391 . S
H2300 C2308 0.950 . S
H2301 C2313 0.950 . S
H2302 C2310 0.950 . S
H2303 C2312 0.950 . S
H2304 C2314 0.950 . S
H2305 C2316 0.950 . S
H2306 C2318 0.950 . S
H2307 C2319 0.950 . S
C2308 H2300 0.950 . S
C2308 C2309 1.386 . S
C2308 C2310 1.391 . S
C2309 C2308 1.386 . S
C2309 C2313 1.393 . S
C2310 H2302 0.950 . S
C2310 C2308 1.391 . S
C2310 C2311 1.400 . S
C2311 C2310 1.400 . S
C2311 C2312 1.398 . S
C2311 C2317 1.491 . S
C2312 H2303 0.950 . S
C2312 C2311 1.398 . S
C2312 C2313 1.391 . S
C2313 H2301 0.950 . S
C2313 C2309 1.393 . S
C2313 C2312 1.391 . S
C2314 H2304 0.950 . S
C2314 C2315 1.386 . S
C2314 C2316 1.391 . S
C2315 C2314 1.386 . S
C2315 C2319 1.393 . S
C2316 H2305 0.950 . S
C2316 C2314 1.391 . S
C2316 C2317 1.400 . S
C2317 C2311 1.491 . S
C2317 C2316 1.400 . S
C2317 C2318 1.398 . S
C2318 H2306 0.950 . S
C2318 C2317 1.398 . S
C2318 C2319 1.391 . S
C2319 H2307 0.950 . S
C2319 C2315 1.393 . S
C2319 C2318 1.391 . S
H2320 C2328 0.950 . S
H2321 C2333 0.950 . S
H2322 C2330 0.950 . S
H2323 C2332 0.950 . S
H2324 C2334 0.950 . S
H2325 C2336 0.950 . S
H2326 C2338 0.950 . S
H2327 C2339 0.950 . S
C2328 H2320 0.950 . S
C2328 C2329 1.386 . S
C2328 C2330 1.391 . S
C2329 C2328 1.386 . S
C2329 C2333 1.393 . S
C2330 H2322 0.950 . S
C2330 C2328 1.391 . S
C2330 C2331 1.400 . S
C2331 C2330 1.400 . S
C2331 C2332 1.398 . S
C2331 C2337 1.491 . S
C2332 H2323 0.950 . S
C2332 C2331 1.398 . S
C2332 C2333 1.391 . S
C2333 H2321 0.950 . S
C2333 C2329 1.393 . S
C2333 C2332 1.391 . S
C2334 H2324 0.950 . S
C2334 C2335 1.386 . S
C2334 C2336 1.391 . S
C2335 C2334 1.386 . S
C2335 C2339 1.393 . S
C2336 H2325 0.950 . S
C2336 C2334 1.391 . S
C2336 C2337 1.400 . S
C2337 C2331 1.491 . S
C2337 C2336 1.400 . S
C2337 C2338 1.398 . S
C2338 H2326 0.950 . S
C2338 C2337 1.398 . S
C2338 C2339 1.391 . S
C2339 H2327 0.950 . S
C2339 C2335 1.393 . S
C2339 C2338 1.391 . S
H2340 C2348 0.950 . S
H2341 C2353 0.950 . S
H2342 C2350 0.950 . S
H2343 C2352 0.950 1_554 S
H2344 C2354 0.950 . S
H2345 C2356 0.941 1_554 S
H2346 C2358 0.950 . S
H2347 C2359 0.950 . S
C2348 H2340 0.950 . S
C2348 C2349 1.386 . S
C2348 C2350 1.391 . S
C2349 C2348 1.386 . S
C2349 C2353 1.393 1_556 S
C2350 H2342 0.950 . S
C2350 C2348 1.391 . S
C2350 C2351 1.400 . S
C2351 C2350 1.400 . S
C2351 C2352 1.398 . S
C2351 C2357 1.491 . S
C2352 H2343 0.950 1_556 S
C2352 C2351 1.398 . S
C2352 C2353 1.391 1_556 S
C2353 H2341 0.950 . S
C2353 C2349 1.393 1_554 S
C2353 C2352 1.391 1_554 S
C2354 H2344 0.950 . S
C2354 C2355 1.386 . S
C2354 C2356 1.391 . S
C2355 C2354 1.386 . S
C2355 C2359 1.393 . S
C2356 H2345 0.941 1_556 S
C2356 C2354 1.391 . S
C2356 C2357 1.400 . S
C2357 C2351 1.491 . S
C2357 C2356 1.400 . S
C2357 C2358 1.398 . S
C2358 H2346 0.950 . S
C2358 C2357 1.398 . S
C2358 C2359 1.391 . S
C2359 H2347 0.950 . S
C2359 C2355 1.393 . S
C2359 C2358 1.391 . S
H2360 C2368 0.950 . S
H2361 C2373 0.950 . S
H2362 C2370 0.950 . S
H2363 C2372 0.950 . S
H2364 C2374 0.950 . S
H2365 C2376 0.950 . S
H2366 C2378 0.950 . S
H2367 C2379 0.950 . S
C2368 H2360 0.950 . S
C2368 C2369 1.386 . S
C2368 C2370 1.391 . S
C2369 C2368 1.386 . S
C2369 C2373 1.393 . S
C2370 H2362 0.950 . S
C2370 C2368 1.391 . S
C2370 C2371 1.400 . S
C2371 C2370 1.400 . S
C2371 C2372 1.398 . S
C2371 C2377 1.491 . S
C2372 H2363 0.950 . S
C2372 C2371 1.398 . S
C2372 C2373 1.391 . S
C2373 H2361 0.950 . S
C2373 C2369 1.393 . S
C2373 C2372 1.391 . S
C2374 H2364 0.950 . S
C2374 C2375 1.386 . S
C2374 C2376 1.391 . S
C2375 C2374 1.386 . S
C2375 C2379 1.393 . S
C2376 H2365 0.950 . S
C2376 C2374 1.391 . S
C2376 C2377 1.400 . S
C2377 C2371 1.491 . S
C2377 C2376 1.400 . S
C2377 C2378 1.398 . S
C2378 H2366 0.950 . S
C2378 C2377 1.398 . S
C2378 C2379 1.391 . S
C2379 H2367 0.950 . S
C2379 C2375 1.393 . S
C2379 C2378 1.391 . S
H2380 C2388 0.950 . S
H2381 C2393 0.950 . S
H2382 C2390 0.950 . S
H2383 C2392 0.950 . S
H2384 C2394 0.950 . S
H2385 C2396 0.950 . S
H2386 C2398 0.950 . S
H2387 C2399 0.950 . S
C2388 H2380 0.950 . S
C2388 C2389 1.386 . S
C2388 C2390 1.391 . S
C2389 C2388 1.386 . S
C2389 C2393 1.393 . S
C2390 H2382 0.950 . S
C2390 C2388 1.391 . S
C2390 C2391 1.400 . S
C2391 C2390 1.400 . S
C2391 C2392 1.398 . S
C2391 C2397 1.491 . S
C2392 H2383 0.950 . S
C2392 C2391 1.398 . S
C2392 C2393 1.391 . S
C2393 H2381 0.950 . S
C2393 C2389 1.393 . S
C2393 C2392 1.391 . S
C2394 H2384 0.950 . S
C2394 C2395 1.386 . S
C2394 C2396 1.391 . S
C2395 C2394 1.386 . S
C2395 C2399 1.393 . S
C2396 H2385 0.950 . S
C2396 C2394 1.391 . S
C2396 C2397 1.400 . S
C2397 C2391 1.491 . S
C2397 C2396 1.400 . S
C2397 C2398 1.398 . S
C2398 H2386 0.950 . S
C2398 C2397 1.398 . S
C2398 C2399 1.391 . S
C2399 H2387 0.950 . S
C2399 C2395 1.393 . S
C2399 C2398 1.391 . S
H2400 C2408 0.950 . S
H2401 C2413 0.950 . S
H2402 C2410 0.950 . S
H2403 C2412 0.950 . S
H2404 C2414 0.950 . S
H2405 C2416 0.950 . S
H2406 C2418 0.950 . S
H2407 C2419 0.950 . S
C2408 H2400 0.950 . S
C2408 C2409 1.386 . S
C2408 C2410 1.391 . S
C2409 C2408 1.386 . S
C2409 C2413 1.393 . S
C2410 H2402 0.950 . S
C2410 C2408 1.391 . S
C2410 C2411 1.400 . S
C2411 C2410 1.400 . S
C2411 C2412 1.398 . S
C2411 C2417 1.491 . S
C2412 H2403 0.950 . S
C2412 C2411 1.398 . S
C2412 C2413 1.391 . S
C2413 H2401 0.950 . S
C2413 C2409 1.393 . S
C2413 C2412 1.391 . S
C2414 H2404 0.950 . S
C2414 C2415 1.386 . S
C2414 C2416 1.391 . S
C2415 C2414 1.386 . S
C2415 C2419 1.393 . S
C2416 H2405 0.950 . S
C2416 C2414 1.391 . S
C2416 C2417 1.400 . S
C2417 C2411 1.491 . S
C2417 C2416 1.400 . S
C2417 C2418 1.398 . S
C2418 H2406 0.950 . S
C2418 C2417 1.398 . S
C2418 C2419 1.391 . S
C2419 H2407 0.950 . S
C2419 C2415 1.393 . S
C2419 C2418 1.391 . S
H2420 C2428 0.950 . S
H2421 C2433 0.950 . S
H2422 C2430 0.950 . S
H2423 C2432 0.950 . S
H2424 C2434 0.950 . S
H2425 C2436 0.950 . S
H2426 C2438 0.950 . S
H2427 C2439 0.950 . S
C2428 H2420 0.950 . S
C2428 C2429 1.386 . S
C2428 C2430 1.391 . S
C2429 C2428 1.386 . S
C2429 C2433 1.393 . S
C2430 H2422 0.950 . S
C2430 C2428 1.391 . S
C2430 C2431 1.400 . S
C2431 C2430 1.400 . S
C2431 C2432 1.398 . S
C2431 C2437 1.491 . S
C2432 H2423 0.950 . S
C2432 C2431 1.398 . S
C2432 C2433 1.391 . S
C2433 H2421 0.950 . S
C2433 C2429 1.393 . S
C2433 C2432 1.391 . S
C2434 H2424 0.950 . S
C2434 C2435 1.386 . S
C2434 C2436 1.391 . S
C2435 C2434 1.386 . S
C2435 C2439 1.393 . S
C2436 H2425 0.950 . S
C2436 C2434 1.391 . S
C2436 C2437 1.400 . S
C2437 C2431 1.491 . S
C2437 C2436 1.400 . S
C2437 C2438 1.398 . S
C2438 H2426 0.950 . S
C2438 C2437 1.398 . S
C2438 C2439 1.391 . S
C2439 H2427 0.950 . S
C2439 C2435 1.393 . S
C2439 C2438 1.391 . S
H2440 C2448 0.950 . S
H2441 C2453 0.950 . S
H2442 C2450 0.950 . S
H2443 C2452 0.950 . S
H2444 C2454 0.950 . S
H2445 C2456 0.950 . S
H2446 C2458 0.950 . S
H2447 C2459 0.950 . S
C2448 H2440 0.950 . S
C2448 C2449 1.386 . S
C2448 C2450 1.391 . S
C2449 C2448 1.386 . S
C2449 C2453 1.393 . S
C2450 H2442 0.950 . S
C2450 C2448 1.391 . S
C2450 C2451 1.400 . S
C2451 C2450 1.400 . S
C2451 C2452 1.398 . S
C2451 C2457 1.491 . S
C2452 H2443 0.950 . S
C2452 C2451 1.398 . S
C2452 C2453 1.391 . S
C2453 H2441 0.950 . S
C2453 C2449 1.393 . S
C2453 C2452 1.391 . S
C2454 H2444 0.950 . S
C2454 C2455 1.386 . S
C2454 C2456 1.391 . S
C2455 C2454 1.386 . S
C2455 C2459 1.393 . S
C2456 H2445 0.950 . S
C2456 C2454 1.391 . S
C2456 C2457 1.400 . S
C2457 C2451 1.491 . S
C2457 C2456 1.400 . S
C2457 C2458 1.398 . S
C2458 H2446 0.950 . S
C2458 C2457 1.398 . S
C2458 C2459 1.391 . S
C2459 H2447 0.950 . S
C2459 C2455 1.393 . S
C2459 C2458 1.391 . S
H2460 C2468 0.950 . S
H2461 C2473 0.950 . S
H2462 C2470 0.950 . S
H2463 C2472 0.950 . S
H2464 C2474 0.950 . S
H2465 C2476 0.950 . S
H2466 C2478 0.950 . S
H2467 C2479 0.950 . S
C2468 H2460 0.950 . S
C2468 C2469 1.386 . S
C2468 C2470 1.391 . S
C2469 C2468 1.386 . S
C2469 C2473 1.393 . S
C2470 H2462 0.950 . S
C2470 C2468 1.391 . S
C2470 C2471 1.400 . S
C2471 C2470 1.400 . S
C2471 C2472 1.398 . S
C2471 C2477 1.491 . S
C2472 H2463 0.950 . S
C2472 C2471 1.398 . S
C2472 C2473 1.391 . S
C2473 H2461 0.950 . S
C2473 C2469 1.393 . S
C2473 C2472 1.391 . S
C2474 H2464 0.950 . S
C2474 C2475 1.386 . S
C2474 C2476 1.391 . S
C2475 C2474 1.386 . S
C2475 C2479 1.393 . S
C2476 H2465 0.950 . S
C2476 C2474 1.391 . S
C2476 C2477 1.400 . S
C2477 C2471 1.491 . S
C2477 C2476 1.400 . S
C2477 C2478 1.398 . S
C2478 H2466 0.950 . S
C2478 C2477 1.398 . S
C2478 C2479 1.391 . S
C2479 H2467 0.950 . S
C2479 C2475 1.393 . S
C2479 C2478 1.391 . S
H2480 C2488 0.950 . S
H2481 C2493 0.950 . S
H2482 C2490 0.950 . S
H2483 C2492 0.950 . S
H2484 C2494 0.950 . S
H2485 C2496 0.950 . S
H2486 C2498 0.950 . S
H2487 C2499 0.950 . S
C2488 H2480 0.950 . S
C2488 C2489 1.386 . S
C2488 C2490 1.391 . S
C2489 C2488 1.386 . S
C2489 C2493 1.393 . S
C2490 H2482 0.950 . S
C2490 C2488 1.391 . S
C2490 C2491 1.400 . S
C2491 C2490 1.400 . S
C2491 C2492 1.398 . S
C2491 C2497 1.491 . S
C2492 H2483 0.950 . S
C2492 C2491 1.398 . S
C2492 C2493 1.391 . S
C2493 H2481 0.950 . S
C2493 C2489 1.393 . S
C2493 C2492 1.391 . S
C2494 H2484 0.950 . S
C2494 C2495 1.386 . S
C2494 C2496 1.391 . S
C2495 C2494 1.386 . S
C2495 C2499 1.393 . S
C2496 H2485 0.950 . S
C2496 C2494 1.391 . S
C2496 C2497 1.400 . S
C2497 C2491 1.491 . S
C2497 C2496 1.400 . S
C2497 C2498 1.398 . S
C2498 H2486 0.950 . S
C2498 C2497 1.398 . S
C2498 C2499 1.391 . S
C2499 H2487 0.950 . S
C2499 C2495 1.393 . S
C2499 C2498 1.391 . S
H2500 C2508 0.950 . S
H2501 C2513 0.950 . S
H2502 C2510 0.950 . S
H2503 C2512 0.950 . S
H2504 C2514 0.950 . S
H2505 C2516 0.950 . S
H2506 C2518 0.950 . S
H2507 C2519 0.950 . S
C2508 H2500 0.950 . S
C2508 C2509 1.386 . S
C2508 C2510 1.391 . S
C2509 C2508 1.386 . S
C2509 C2513 1.393 . S
C2510 H2502 0.950 . S
C2510 C2508 1.391 . S
C2510 C2511 1.400 . S
C2511 C2510 1.400 . S
C2511 C2512 1.398 . S
C2511 C2517 1.491 . S
C2512 H2503 0.950 . S
C2512 C2511 1.398 . S
C2512 C2513 1.391 . S
C2513 H2501 0.950 . S
C2513 C2509 1.393 . S
C2513 C2512 1.391 . S
C2514 H2504 0.950 . S
C2514 C2515 1.386 . S
C2514 C2516 1.391 . S
C2515 C2514 1.386 . S
C2515 C2519 1.393 . S
C2516 H2505 0.950 . S
C2516 C2514 1.391 . S
C2516 C2517 1.400 . S
C2517 C2511 1.491 . S
C2517 C2516 1.400 . S
C2517 C2518 1.398 . S
C2518 H2506 0.950 . S
C2518 C2517 1.398 . S
C2518 C2519 1.391 . S
C2519 H2507 0.950 . S
C2519 C2515 1.393 . S
C2519 C2518 1.391 . S
H2520 C2528 0.950 . S
H2521 C2533 0.950 . S
H2522 C2530 0.946 1_565 S
H2523 C2532 0.950 . S
H2524 C2534 0.950 . S
H2525 C2536 0.950 . S
H2526 C2538 0.950 . S
H2527 C2539 0.950 . S
C2528 H2520 0.950 . S
C2528 C2529 1.386 . S
C2528 C2530 1.391 . S
C2529 C2528 1.386 . S
C2529 C2533 1.393 . S
C2530 H2522 0.946 1_545 S
C2530 C2528 1.391 . S
C2530 C2531 1.400 . S
C2531 C2530 1.400 . S
C2531 C2532 1.398 . S
C2531 C2537 1.491 1_545 S
C2532 H2523 0.950 . S
C2532 C2531 1.398 . S
C2532 C2533 1.391 . S
C2533 H2521 0.950 . S
C2533 C2529 1.393 . S
C2533 C2532 1.391 . S
C2534 H2524 0.950 . S
C2534 C2535 1.386 . S
C2534 C2536 1.391 . S
C2535 C2534 1.386 . S
C2535 C2539 1.393 . S
C2536 H2525 0.950 . S
C2536 C2534 1.391 . S
C2536 C2537 1.400 . S
C2537 C2531 1.491 1_565 S
C2537 C2536 1.400 . S
C2537 C2538 1.398 . S
C2538 H2526 0.950 . S
C2538 C2537 1.398 . S
C2538 C2539 1.391 . S
C2539 H2527 0.950 . S
C2539 C2535 1.393 . S
C2539 C2538 1.391 . S
H2540 C2548 0.950 . S
H2541 C2553 0.950 . S
H2542 C2550 0.950 . S
H2543 C2552 0.950 . S
H2544 C2554 0.950 . S
H2545 C2556 0.950 . S
H2546 C2558 0.950 . S
H2547 C2559 0.950 . S
C2548 H2540 0.950 . S
C2548 C2549 1.386 . S
C2548 C2550 1.391 . S
C2549 C2548 1.386 . S
C2549 C2553 1.393 . S
C2550 H2542 0.950 . S
C2550 C2548 1.391 . S
C2550 C2551 1.400 . S
C2551 C2550 1.400 . S
C2551 C2552 1.398 . S
C2551 C2557 1.491 . S
C2552 H2543 0.950 . S
C2552 C2551 1.398 . S
C2552 C2553 1.391 . S
C2553 H2541 0.950 . S
C2553 C2549 1.393 . S
C2553 C2552 1.391 . S
C2554 H2544 0.950 . S
C2554 C2555 1.386 . S
C2554 C2556 1.391 . S
C2555 C2554 1.386 . S
C2555 C2559 1.393 . S
C2556 H2545 0.950 . S
C2556 C2554 1.391 . S
C2556 C2557 1.400 . S
C2557 C2551 1.491 . S
C2557 C2556 1.400 . S
C2557 C2558 1.398 . S
C2558 H2546 0.950 . S
C2558 C2557 1.398 . S
C2558 C2559 1.391 . S
C2559 H2547 0.950 . S
C2559 C2555 1.393 . S
C2559 C2558 1.391 . S
H2560 C2568 0.950 . S
H2561 C2573 0.950 . S
H2562 C2570 0.950 . S
H2563 C2572 0.950 . S
H2564 C2574 0.950 . S
H2565 C2576 0.950 . S
H2566 C2578 0.950 . S
H2567 C2579 0.950 . S
C2568 H2560 0.950 . S
C2568 C2569 1.386 . S
C2568 C2570 1.391 . S
C2569 C2568 1.386 . S
C2569 C2573 1.393 . S
C2570 H2562 0.950 . S
C2570 C2568 1.391 . S
C2570 C2571 1.400 . S
C2571 C2570 1.400 . S
C2571 C2572 1.398 . S
C2571 C2577 1.491 . S
C2572 H2563 0.950 . S
C2572 C2571 1.398 . S
C2572 C2573 1.391 . S
C2573 H2561 0.950 . S
C2573 C2569 1.393 . S
C2573 C2572 1.391 . S
C2574 H2564 0.950 . S
C2574 C2575 1.386 . S
C2574 C2576 1.391 . S
C2575 C2574 1.386 . S
C2575 C2579 1.393 . S
C2576 H2565 0.950 . S
C2576 C2574 1.391 . S
C2576 C2577 1.400 . S
C2577 C2571 1.491 . S
C2577 C2576 1.400 . S
C2577 C2578 1.398 . S
C2578 H2566 0.950 . S
C2578 C2577 1.398 . S
C2578 C2579 1.391 . S
C2579 H2567 0.950 . S
C2579 C2575 1.393 . S
C2579 C2578 1.391 . S
H2580 C2588 0.950 . S
H2581 C2593 0.950 . S
H2582 C2590 0.950 . S
H2583 C2592 0.950 . S
H2584 C2594 0.950 . S
H2585 C2596 0.950 . S
H2586 C2598 0.950 . S
H2587 C2599 0.950 . S
C2588 H2580 0.950 . S
C2588 C2589 1.386 . S
C2588 C2590 1.391 . S
C2589 C2588 1.386 . S
C2589 C2593 1.393 . S
C2590 H2582 0.950 . S
C2590 C2588 1.391 . S
C2590 C2591 1.400 . S
C2591 C2590 1.400 . S
C2591 C2592 1.398 . S
C2591 C2597 1.491 . S
C2592 H2583 0.950 . S
C2592 C2591 1.398 . S
C2592 C2593 1.391 . S
C2593 H2581 0.950 . S
C2593 C2589 1.393 . S
C2593 C2592 1.391 . S
C2594 H2584 0.950 . S
C2594 C2595 1.386 . S
C2594 C2596 1.391 . S
C2595 C2594 1.386 . S
C2595 C2599 1.393 . S
C2596 H2585 0.950 . S
C2596 C2594 1.391 . S
C2596 C2597 1.400 . S
C2597 C2591 1.491 . S
C2597 C2596 1.400 . S
C2597 C2598 1.398 . S
C2598 H2586 0.950 . S
C2598 C2597 1.398 . S
C2598 C2599 1.391 . S
C2599 H2587 0.950 . S
C2599 C2595 1.393 . S
C2599 C2598 1.391 . S
H2600 C2608 0.950 . S
H2601 C2613 0.950 . S
H2602 C2610 0.950 . S
H2603 C2612 0.950 . S
H2604 C2614 0.950 . S
H2605 C2616 0.950 . S
H2606 C2618 0.950 . S
H2607 C2619 0.950 . S
C2608 H2600 0.950 . S
C2608 C2609 1.386 . S
C2608 C2610 1.391 . S
C2609 C2608 1.386 . S
C2609 C2613 1.393 . S
C2610 H2602 0.950 . S
C2610 C2608 1.391 . S
C2610 C2611 1.400 . S
C2611 C2610 1.400 . S
C2611 C2612 1.398 . S
C2611 C2617 1.491 . S
C2612 H2603 0.950 . S
C2612 C2611 1.398 . S
C2612 C2613 1.391 . S
C2613 H2601 0.950 . S
C2613 C2609 1.393 . S
C2613 C2612 1.391 . S
C2614 H2604 0.950 . S
C2614 C2615 1.386 . S
C2614 C2616 1.391 . S
C2615 C2614 1.386 . S
C2615 C2619 1.393 . S
C2616 H2605 0.950 . S
C2616 C2614 1.391 . S
C2616 C2617 1.400 . S
C2617 C2611 1.491 . S
C2617 C2616 1.400 . S
C2617 C2618 1.398 . S
C2618 H2606 0.950 . S
C2618 C2617 1.398 . S
C2618 C2619 1.391 . S
C2619 H2607 0.950 . S
C2619 C2615 1.393 . S
C2619 C2618 1.391 . S
H2620 C2628 0.950 . S
H2621 C2633 0.950 . S
H2622 C2630 0.950 . S
H2623 C2632 0.950 . S
H2624 C2634 0.950 . S
H2625 C2636 0.950 . S
H2626 C2638 0.950 . S
H2627 C2639 0.950 . S
C2628 H2620 0.950 . S
C2628 C2629 1.386 . S
C2628 C2630 1.391 . S
C2629 C2628 1.386 . S
C2629 C2633 1.393 . S
C2630 H2622 0.950 . S
C2630 C2628 1.391 . S
C2630 C2631 1.400 . S
C2631 C2630 1.400 . S
C2631 C2632 1.398 . S
C2631 C2637 1.491 1_655 S
C2632 H2623 0.950 . S
C2632 C2631 1.398 . S
C2632 C2633 1.391 . S
C2633 H2621 0.950 . S
C2633 C2629 1.393 . S
C2633 C2632 1.391 . S
C2634 H2624 0.950 . S
C2634 C2635 1.386 . S
C2634 C2636 1.391 . S
C2635 C2634 1.386 . S
C2635 C2639 1.393 . S
C2636 H2625 0.950 . S
C2636 C2634 1.391 . S
C2636 C2637 1.400 . S
C2637 C2631 1.491 1_455 S
C2637 C2636 1.400 . S
C2637 C2638 1.398 . S
C2638 H2626 0.950 . S
C2638 C2637 1.398 . S
C2638 C2639 1.391 . S
C2639 H2627 0.950 . S
C2639 C2635 1.393 . S
C2639 C2638 1.391 . S
H2640 C2648 0.950 . S
H2641 C2653 0.950 . S
H2642 C2650 0.950 . S
H2643 C2652 0.950 . S
H2644 C2654 0.950 . S
H2645 C2656 0.950 . S
H2646 C2658 0.950 . S
H2647 C2659 0.950 . S
C2648 H2640 0.950 . S
C2648 C2649 1.386 . S
C2648 C2650 1.391 . S
C2649 C2648 1.386 . S
C2649 C2653 1.393 . S
C2650 H2642 0.950 . S
C2650 C2648 1.391 . S
C2650 C2651 1.400 . S
C2651 C2650 1.400 . S
C2651 C2652 1.398 . S
C2651 C2657 1.491 . S
C2652 H2643 0.950 . S
C2652 C2651 1.398 . S
C2652 C2653 1.391 . S
C2653 H2641 0.950 . S
C2653 C2649 1.393 . S
C2653 C2652 1.391 . S
C2654 H2644 0.950 . S
C2654 C2655 1.386 . S
C2654 C2656 1.391 . S
C2655 C2654 1.386 . S
C2655 C2659 1.393 . S
C2656 H2645 0.950 . S
C2656 C2654 1.391 . S
C2656 C2657 1.400 . S
C2657 C2651 1.491 . S
C2657 C2656 1.400 . S
C2657 C2658 1.398 . S
C2658 H2646 0.950 . S
C2658 C2657 1.398 . S
C2658 C2659 1.391 . S
C2659 H2647 0.950 . S
C2659 C2655 1.393 . S
C2659 C2658 1.391 . S
H2660 C2668 0.950 . S
H2661 C2673 0.950 . S
H2662 C2670 0.950 . S
H2663 C2672 0.950 . S
H2664 C2674 0.950 . S
H2665 C2676 0.950 . S
H2666 C2678 0.950 . S
H2667 C2679 0.950 . S
C2668 H2660 0.950 . S
C2668 C2669 1.386 . S
C2668 C2670 1.391 . S
C2669 C2668 1.386 . S
C2669 C2673 1.393 . S
C2670 H2662 0.950 . S
C2670 C2668 1.391 . S
C2670 C2671 1.400 . S
C2671 C2670 1.400 . S
C2671 C2672 1.398 . S
C2671 C2677 1.491 1_556 S
C2672 H2663 0.950 . S
C2672 C2671 1.398 . S
C2672 C2673 1.391 . S
C2673 H2661 0.950 . S
C2673 C2669 1.393 . S
C2673 C2672 1.391 . S
C2674 H2664 0.950 . S
C2674 C2675 1.386 . S
C2674 C2676 1.391 . S
C2675 C2674 1.386 . S
C2675 C2679 1.393 . S
C2676 H2665 0.950 . S
C2676 C2674 1.391 . S
C2676 C2677 1.400 . S
C2677 C2671 1.491 1_554 S
C2677 C2676 1.400 . S
C2677 C2678 1.398 . S
C2678 H2666 0.950 . S
C2678 C2677 1.398 . S
C2678 C2679 1.391 . S
C2679 H2667 0.950 . S
C2679 C2675 1.393 . S
C2679 C2678 1.391 . S
H2680 C2688 0.950 . S
H2681 C2693 0.950 . S
H2682 C2690 0.950 . S
H2683 C2692 0.950 . S
H2684 C2694 0.950 . S
H2685 C2696 0.950 . S
H2686 C2698 0.950 . S
H2687 C2699 0.950 . S
C2688 H2680 0.950 . S
C2688 C2689 1.386 . S
C2688 C2690 1.391 . S
C2689 C2688 1.386 . S
C2689 C2693 1.393 . S
C2690 H2682 0.950 . S
C2690 C2688 1.391 . S
C2690 C2691 1.400 . S
C2691 C2690 1.400 . S
C2691 C2692 1.398 . S
C2691 C2697 1.491 . S
C2692 H2683 0.950 . S
C2692 C2691 1.398 . S
C2692 C2693 1.391 . S
C2693 H2681 0.950 . S
C2693 C2689 1.393 . S
C2693 C2692 1.391 . S
C2694 H2684 0.950 . S
C2694 C2695 1.386 . S
C2694 C2696 1.391 . S
C2695 C2694 1.386 . S
C2695 C2699 1.393 . S
C2696 H2685 0.950 . S
C2696 C2694 1.391 . S
C2696 C2697 1.400 . S
C2697 C2691 1.491 . S
C2697 C2696 1.400 . S
C2697 C2698 1.398 . S
C2698 H2686 0.950 . S
C2698 C2697 1.398 . S
C2698 C2699 1.391 . S
C2699 H2687 0.950 . S
C2699 C2695 1.393 . S
C2699 C2698 1.391 . S
H2700 C2708 0.950 . S
H2701 C2713 0.950 . S
H2702 C2710 0.950 . S
H2703 C2712 0.950 . S
H2704 C2714 0.950 . S
H2705 C2716 0.950 . S
H2706 C2718 0.950 . S
H2707 C2719 0.950 . S
C2708 H2700 0.950 . S
C2708 C2709 1.386 . S
C2708 C2710 1.391 . S
C2709 C2708 1.386 . S
C2709 C2713 1.393 . S
C2710 H2702 0.950 . S
C2710 C2708 1.391 . S
C2710 C2711 1.400 . S
C2711 C2710 1.400 . S
C2711 C2712 1.398 . S
C2711 C2717 1.491 . S
C2712 H2703 0.950 . S
C2712 C2711 1.398 . S
C2712 C2713 1.391 . S
C2713 H2701 0.950 . S
C2713 C2709 1.393 . S
C2713 C2712 1.391 . S
C2714 H2704 0.950 . S
C2714 C2715 1.386 . S
C2714 C2716 1.391 . S
C2715 C2714 1.386 . S
C2715 C2719 1.393 . S
C2716 H2705 0.950 . S
C2716 C2714 1.391 . S
C2716 C2717 1.400 . S
C2717 C2711 1.491 . S
C2717 C2716 1.400 . S
C2717 C2718 1.398 . S
C2718 H2706 0.950 . S
C2718 C2717 1.398 . S
C2718 C2719 1.391 . S
C2719 H2707 0.950 . S
C2719 C2715 1.393 . S
C2719 C2718 1.391 . S
H2720 C2728 0.950 . S
H2721 C2733 0.950 . S
H2722 C2730 0.950 . S
H2723 C2732 0.950 . S
H2724 C2734 0.950 . S
H2725 C2736 0.950 . S
H2726 C2738 0.950 . S
H2727 C2739 0.950 . S
C2728 H2720 0.950 . S
C2728 C2729 1.386 . S
C2728 C2730 1.391 . S
C2729 C2728 1.386 . S
C2729 C2733 1.393 . S
C2730 H2722 0.950 . S
C2730 C2728 1.391 . S
C2730 C2731 1.400 . S
C2731 C2730 1.400 . S
C2731 C2732 1.398 . S
C2731 C2737 1.491 . S
C2732 H2723 0.950 . S
C2732 C2731 1.398 . S
C2732 C2733 1.391 . S
C2733 H2721 0.950 . S
C2733 C2729 1.393 . S
C2733 C2732 1.391 . S
C2734 H2724 0.950 . S
C2734 C2735 1.386 . S
C2734 C2736 1.391 . S
C2735 C2734 1.386 . S
C2735 C2739 1.393 . S
C2736 H2725 0.950 . S
C2736 C2734 1.391 . S
C2736 C2737 1.400 . S
C2737 C2731 1.491 . S
C2737 C2736 1.400 . S
C2737 C2738 1.398 . S
C2738 H2726 0.950 . S
C2738 C2737 1.398 . S
C2738 C2739 1.391 . S
C2739 H2727 0.950 . S
C2739 C2735 1.393 . S
C2739 C2738 1.391 . S
H2740 C2748 0.950 . S
H2741 C2753 0.950 . S
H2742 C2750 0.950 . S
H2743 C2752 0.950 . S
H2744 C2754 0.950 . S
H2745 C2756 0.950 . S
H2746 C2758 0.950 . S
H2747 C2759 0.950 . S
C2748 H2740 0.950 . S
C2748 C2749 1.386 . S
C2748 C2750 1.391 . S
C2749 C2748 1.386 . S
C2749 C2753 1.393 . S
C2750 H2742 0.950 . S
C2750 C2748 1.391 . S
C2750 C2751 1.400 . S
C2751 C2750 1.400 . S
C2751 C2752 1.398 . S
C2751 C2757 1.491 . S
C2752 H2743 0.950 . S
C2752 C2751 1.398 . S
C2752 C2753 1.391 . S
C2753 H2741 0.950 . S
C2753 C2749 1.393 . S
C2753 C2752 1.391 . S
C2754 H2744 0.950 . S
C2754 C2755 1.386 . S
C2754 C2756 1.391 . S
C2755 C2754 1.386 . S
C2755 C2759 1.393 . S
C2756 H2745 0.950 . S
C2756 C2754 1.391 . S
C2756 C2757 1.400 1_556 S
C2757 C2751 1.491 . S
C2757 C2756 1.400 1_554 S
C2757 C2758 1.398 1_554 S
C2758 H2746 0.950 . S
C2758 C2757 1.398 1_556 S
C2758 C2759 1.391 . S
C2759 H2747 0.950 . S
C2759 C2755 1.393 . S
C2759 C2758 1.391 . S
H2760 C2768 0.950 . S
H2761 C2773 0.950 . S
H2762 C2770 0.950 . S
H2763 C2772 0.950 . S
H2764 C2774 0.950 . S
H2765 C2776 0.950 . S
H2766 C2778 0.950 . S
H2767 C2779 0.950 . S
C2768 H2760 0.950 . S
C2768 C2769 1.386 . S
C2768 C2770 1.391 . S
C2769 C2768 1.386 . S
C2769 C2773 1.393 . S
C2770 H2762 0.950 . S
C2770 C2768 1.391 . S
C2770 C2771 1.400 . S
C2771 C2770 1.400 . S
C2771 C2772 1.398 . S
C2771 C2777 1.491 . S
C2772 H2763 0.950 . S
C2772 C2771 1.398 . S
C2772 C2773 1.391 . S
C2773 H2761 0.950 . S
C2773 C2769 1.393 . S
C2773 C2772 1.391 . S
C2774 H2764 0.950 . S
C2774 C2775 1.386 . S
C2774 C2776 1.391 . S
C2775 C2774 1.386 . S
C2775 C2779 1.393 . S
C2776 H2765 0.950 . S
C2776 C2774 1.391 . S
C2776 C2777 1.400 . S
C2777 C2771 1.491 . S
C2777 C2776 1.400 . S
C2777 C2778 1.398 . S
C2778 H2766 0.950 . S
C2778 C2777 1.398 . S
C2778 C2779 1.391 . S
C2779 H2767 0.950 . S
C2779 C2775 1.393 . S
C2779 C2778 1.391 . S
H2780 C2788 0.950 . S
H2781 C2793 0.950 . S
H2782 C2790 0.950 . S
H2783 C2792 0.950 . S
H2784 C2794 0.950 . S
H2785 C2796 0.950 . S
H2786 C2798 0.950 . S
H2787 C2799 0.950 . S
C2788 H2780 0.950 . S
C2788 C2789 1.386 . S
C2788 C2790 1.391 . S
C2789 C2788 1.386 . S
C2789 C2793 1.393 . S
C2790 H2782 0.950 . S
C2790 C2788 1.391 . S
C2790 C2791 1.400 . S
C2791 C2790 1.400 . S
C2791 C2792 1.398 . S
C2791 C2797 1.491 . S
C2792 H2783 0.950 . S
C2792 C2791 1.398 . S
C2792 C2793 1.391 . S
C2793 H2781 0.950 . S
C2793 C2789 1.393 . S
C2793 C2792 1.391 . S
C2794 H2784 0.950 . S
C2794 C2795 1.386 . S
C2794 C2796 1.391 . S
C2795 C2794 1.386 . S
C2795 C2799 1.393 . S
C2796 H2785 0.950 . S
C2796 C2794 1.391 . S
C2796 C2797 1.400 . S
C2797 C2791 1.491 . S
C2797 C2796 1.400 . S
C2797 C2798 1.398 . S
C2798 H2786 0.950 . S
C2798 C2797 1.398 . S
C2798 C2799 1.391 . S
C2799 H2787 0.950 . S
C2799 C2795 1.393 . S
C2799 C2798 1.391 . S
H2800 C2808 0.950 . S
H2801 C2813 0.950 . S
H2802 C2810 0.950 . S
H2803 C2812 0.950 . S
H2804 C2814 0.950 . S
H2805 C2816 0.950 . S
H2806 C2818 0.950 . S
H2807 C2819 0.950 . S
C2808 H2800 0.950 . S
C2808 C2809 1.386 . S
C2808 C2810 1.391 . S
C2809 C2808 1.386 . S
C2809 C2813 1.393 . S
C2810 H2802 0.950 . S
C2810 C2808 1.391 . S
C2810 C2811 1.400 . S
C2811 C2810 1.400 . S
C2811 C2812 1.398 . S
C2811 C2817 1.491 . S
C2812 H2803 0.950 . S
C2812 C2811 1.398 . S
C2812 C2813 1.391 . S
C2813 H2801 0.950 . S
C2813 C2809 1.393 . S
C2813 C2812 1.391 . S
C2814 H2804 0.950 . S
C2814 C2815 1.386 . S
C2814 C2816 1.391 . S
C2815 C2814 1.386 . S
C2815 C2819 1.393 . S
C2816 H2805 0.950 . S
C2816 C2814 1.391 . S
C2816 C2817 1.400 . S
C2817 C2811 1.491 . S
C2817 C2816 1.400 . S
C2817 C2818 1.398 . S
C2818 H2806 0.950 . S
C2818 C2817 1.398 . S
C2818 C2819 1.391 . S
C2819 H2807 0.950 . S
C2819 C2815 1.393 . S
C2819 C2818 1.391 . S
H2820 C2828 0.950 . S
H2821 C2833 0.950 . S
H2822 C2830 0.950 . S
H2823 C2832 0.950 . S
H2824 C2834 0.950 . S
H2825 C2836 0.950 . S
H2826 C2838 0.950 . S
H2827 C2839 0.950 . S
C2828 H2820 0.950 . S
C2828 C2829 1.386 . S
C2828 C2830 1.391 . S
C2829 C2828 1.386 . S
C2829 C2833 1.393 . S
C2830 H2822 0.950 . S
C2830 C2828 1.391 . S
C2830 C2831 1.400 . S
C2831 C2830 1.400 . S
C2831 C2832 1.398 . S
C2831 C2837 1.491 . S
C2832 H2823 0.950 . S
C2832 C2831 1.398 . S
C2832 C2833 1.391 . S
C2833 H2821 0.950 . S
C2833 C2829 1.393 . S
C2833 C2832 1.391 . S
C2834 H2824 0.950 . S
C2834 C2835 1.386 . S
C2834 C2836 1.391 . S
C2835 C2834 1.386 . S
C2835 C2839 1.393 . S
C2836 H2825 0.950 . S
C2836 C2834 1.391 . S
C2836 C2837 1.400 . S
C2837 C2831 1.491 . S
C2837 C2836 1.400 . S
C2837 C2838 1.398 . S
C2838 H2826 0.950 . S
C2838 C2837 1.398 . S
C2838 C2839 1.391 . S
C2839 H2827 0.950 . S
C2839 C2835 1.393 . S
C2839 C2838 1.391 . S
H2840 C2848 0.950 . S
H2841 C2853 0.950 . S
H2842 C2850 0.950 . S
H2843 C2852 0.950 . S
H2844 C2854 0.950 . S
H2845 C2856 0.950 . S
H2846 C2858 0.950 . S
H2847 C2859 0.950 . S
C2848 H2840 0.950 . S
C2848 C2849 1.386 . S
C2848 C2850 1.391 . S
C2849 C2848 1.386 . S
C2849 C2853 1.393 . S
C2850 H2842 0.950 . S
C2850 C2848 1.391 . S
C2850 C2851 1.400 . S
C2851 C2850 1.400 . S
C2851 C2852 1.398 . S
C2851 C2857 1.491 . S
C2852 H2843 0.950 . S
C2852 C2851 1.398 . S
C2852 C2853 1.391 . S
C2853 H2841 0.950 . S
C2853 C2849 1.393 . S
C2853 C2852 1.391 . S
C2854 H2844 0.950 . S
C2854 C2855 1.386 . S
C2854 C2856 1.391 . S
C2855 C2854 1.386 . S
C2855 C2859 1.393 . S
C2856 H2845 0.950 . S
C2856 C2854 1.391 . S
C2856 C2857 1.400 . S
C2857 C2851 1.491 . S
C2857 C2856 1.400 . S
C2857 C2858 1.398 . S
C2858 H2846 0.950 . S
C2858 C2857 1.398 . S
C2858 C2859 1.391 . S
C2859 H2847 0.950 . S
C2859 C2855 1.393 . S
C2859 C2858 1.391 . S
H2860 C2868 0.950 . S
H2861 C2873 0.950 . S
H2862 C2870 0.950 . S
H2863 C2872 0.950 . S
H2864 C2874 0.950 . S
H2865 C2876 0.950 . S
H2866 C2878 0.950 . S
H2867 C2879 0.950 . S
C2868 H2860 0.950 . S
C2868 C2869 1.386 . S
C2868 C2870 1.391 . S
C2869 C2868 1.386 . S
C2869 C2873 1.393 . S
C2870 H2862 0.950 . S
C2870 C2868 1.391 . S
C2870 C2871 1.400 . S
C2871 C2870 1.400 . S
C2871 C2872 1.398 . S
C2871 C2877 1.491 . S
C2872 H2863 0.950 . S
C2872 C2871 1.398 . S
C2872 C2873 1.391 . S
C2873 H2861 0.950 . S
C2873 C2869 1.393 . S
C2873 C2872 1.391 . S
C2874 H2864 0.950 . S
C2874 C2875 1.386 . S
C2874 C2876 1.391 . S
C2875 C2874 1.386 . S
C2875 C2879 1.393 . S
C2876 H2865 0.950 . S
C2876 C2874 1.391 . S
C2876 C2877 1.400 . S
C2877 C2871 1.491 . S
C2877 C2876 1.400 . S
C2877 C2878 1.398 . S
C2878 H2866 0.950 . S
C2878 C2877 1.398 . S
C2878 C2879 1.391 . S
C2879 H2867 0.950 . S
C2879 C2875 1.393 . S
C2879 C2878 1.391 . S
H2880 C2888 0.950 . S
H2881 C2893 0.950 . S
H2882 C2890 0.950 . S
H2883 C2892 0.950 . S
H2884 C2894 0.950 . S
H2885 C2896 0.950 . S
H2886 C2898 0.950 . S
H2887 C2899 0.950 . S
C2888 H2880 0.950 . S
C2888 C2889 1.386 . S
C2888 C2890 1.391 . S
C2889 C2888 1.386 . S
C2889 C2893 1.393 . S
C2890 H2882 0.950 . S
C2890 C2888 1.391 . S
C2890 C2891 1.400 . S
C2891 C2890 1.400 . S
C2891 C2892 1.398 . S
C2891 C2897 1.491 . S
C2892 H2883 0.950 . S
C2892 C2891 1.398 . S
C2892 C2893 1.391 . S
C2893 H2881 0.950 . S
C2893 C2889 1.393 . S
C2893 C2892 1.391 . S
C2894 H2884 0.950 . S
C2894 C2895 1.386 . S
C2894 C2896 1.391 . S
C2895 C2894 1.386 . S
C2895 C2899 1.393 . S
C2896 H2885 0.950 . S
C2896 C2894 1.391 . S
C2896 C2897 1.400 . S
C2897 C2891 1.491 . S
C2897 C2896 1.400 . S
C2897 C2898 1.398 . S
C2898 H2886 0.950 . S
C2898 C2897 1.398 . S
C2898 C2899 1.391 . S
C2899 H2887 0.950 . S
C2899 C2895 1.393 . S
C2899 C2898 1.391 . S
H2900 C2908 0.950 1_554 S
H2901 C2913 0.950 . S
H2902 C2910 0.950 . S
H2903 C2912 0.950 . S
H2904 C2914 0.950 . S
H2905 C2916 0.950 . S
H2906 C2918 0.950 . S
H2907 C2919 0.950 . S
C2908 H2900 0.950 1_556 S
C2908 C2909 1.386 . S
C2908 C2910 1.391 . S
C2909 C2908 1.386 . S
C2909 C2913 1.393 . S
C2910 H2902 0.950 . S
C2910 C2908 1.391 . S
C2910 C2911 1.400 . S
C2911 C2910 1.400 . S
C2911 C2912 1.398 . S
C2911 C2917 1.491 . S
C2912 H2903 0.950 . S
C2912 C2911 1.398 . S
C2912 C2913 1.391 . S
C2913 H2901 0.950 . S
C2913 C2909 1.393 . S
C2913 C2912 1.391 . S
C2914 H2904 0.950 . S
C2914 C2915 1.386 . S
C2914 C2916 1.391 . S
C2915 C2914 1.386 . S
C2915 C2919 1.393 . S
C2916 H2905 0.950 . S
C2916 C2914 1.391 . S
C2916 C2917 1.400 . S
C2917 C2911 1.491 . S
C2917 C2916 1.400 . S
C2917 C2918 1.398 . S
C2918 H2906 0.950 . S
C2918 C2917 1.398 . S
C2918 C2919 1.391 . S
C2919 H2907 0.950 . S
C2919 C2915 1.393 . S
C2919 C2918 1.391 . S
H2920 C2928 0.950 . S
H2921 C2933 0.950 . S
H2922 C2930 0.950 . S
H2923 C2932 0.950 . S
H2924 C2934 0.950 . S
H2925 C2936 0.950 . S
H2926 C2938 0.950 . S
H2927 C2939 0.950 . S
C2928 H2920 0.950 . S
C2928 C2929 1.386 . S
C2928 C2930 1.391 . S
C2929 C2928 1.386 . S
C2929 C2933 1.393 . S
C2930 H2922 0.950 . S
C2930 C2928 1.391 . S
C2930 C2931 1.400 . S
C2931 C2930 1.400 . S
C2931 C2932 1.398 . S
C2931 C2937 1.491 . S
C2932 H2923 0.950 . S
C2932 C2931 1.398 . S
C2932 C2933 1.391 . S
C2933 H2921 0.950 . S
C2933 C2929 1.393 . S
C2933 C2932 1.391 . S
C2934 H2924 0.950 . S
C2934 C2935 1.386 . S
C2934 C2936 1.391 . S
C2935 C2934 1.386 . S
C2935 C2939 1.393 . S
C2936 H2925 0.950 . S
C2936 C2934 1.391 . S
C2936 C2937 1.400 . S
C2937 C2931 1.491 . S
C2937 C2936 1.400 . S
C2937 C2938 1.398 . S
C2938 H2926 0.950 . S
C2938 C2937 1.398 . S
C2938 C2939 1.391 . S
C2939 H2927 0.950 . S
C2939 C2935 1.393 . S
C2939 C2938 1.391 . S
H2940 C2948 0.950 . S
H2941 C2953 0.950 . S
H2942 C2950 0.950 . S
H2943 C2952 0.950 . S
H2944 C2954 0.950 . S
H2945 C2956 0.950 . S
H2946 C2958 0.950 . S
H2947 C2959 0.950 . S
C2948 H2940 0.950 . S
C2948 C2949 1.386 . S
C2948 C2950 1.391 . S
C2949 C2948 1.386 . S
C2949 C2953 1.393 . S
C2950 H2942 0.950 . S
C2950 C2948 1.391 . S
C2950 C2951 1.400 . S
C2951 C2950 1.400 . S
C2951 C2952 1.398 . S
C2951 C2957 1.491 . S
C2952 H2943 0.950 . S
C2952 C2951 1.398 . S
C2952 C2953 1.391 . S
C2953 H2941 0.950 . S
C2953 C2949 1.393 . S
C2953 C2952 1.391 . S
C2954 H2944 0.950 . S
C2954 C2955 1.386 . S
C2954 C2956 1.391 . S
C2955 C2954 1.386 . S
C2955 C2959 1.393 . S
C2956 H2945 0.950 . S
C2956 C2954 1.391 . S
C2956 C2957 1.400 . S
C2957 C2951 1.491 . S
C2957 C2956 1.400 . S
C2957 C2958 1.398 . S
C2958 H2946 0.950 . S
C2958 C2957 1.398 . S
C2958 C2959 1.391 . S
C2959 H2947 0.950 . S
C2959 C2955 1.393 . S
C2959 C2958 1.391 . S
H2960 C2968 0.950 . S
H2961 C2973 0.950 . S
H2962 C2970 0.950 . S
H2963 C2972 0.950 . S
H2964 C2974 0.950 . S
H2965 C2976 0.950 . S
H2966 C2978 0.950 . S
H2967 C2979 0.950 . S
C2968 H2960 0.950 . S
C2968 C2969 1.386 . S
C2968 C2970 1.391 . S
C2969 C2968 1.386 . S
C2969 C2973 1.393 . S
C2970 H2962 0.950 . S
C2970 C2968 1.391 . S
C2970 C2971 1.400 . S
C2971 C2970 1.400 . S
C2971 C2972 1.398 . S
C2971 C2977 1.491 . S
C2972 H2963 0.950 . S
C2972 C2971 1.398 . S
C2972 C2973 1.391 . S
C2973 H2961 0.950 . S
C2973 C2969 1.393 . S
C2973 C2972 1.391 . S
C2974 H2964 0.950 . S
C2974 C2975 1.386 . S
C2974 C2976 1.391 . S
C2975 C2974 1.386 . S
C2975 C2979 1.393 . S
C2976 H2965 0.950 . S
C2976 C2974 1.391 . S
C2976 C2977 1.400 . S
C2977 C2971 1.491 . S
C2977 C2976 1.400 . S
C2977 C2978 1.398 . S
C2978 H2966 0.950 . S
C2978 C2977 1.398 . S
C2978 C2979 1.391 . S
C2979 H2967 0.950 . S
C2979 C2975 1.393 . S
C2979 C2978 1.391 . S
H2980 C2988 0.950 . S
H2981 C2993 0.950 . S
H2982 C2990 0.950 . S
H2983 C2992 0.950 . S
H2984 C2994 0.950 . S
H2985 C2996 0.950 . S
H2986 C2998 0.950 . S
H2987 C2999 0.950 . S
C2988 H2980 0.950 . S
C2988 C2989 1.386 . S
C2988 C2990 1.391 . S
C2989 C2988 1.386 . S
C2989 C2993 1.393 . S
C2990 H2982 0.950 . S
C2990 C2988 1.391 . S
C2990 C2991 1.400 . S
C2991 C2990 1.400 . S
C2991 C2992 1.398 . S
C2991 C2997 1.491 . S
C2992 H2983 0.950 . S
C2992 C2991 1.398 . S
C2992 C2993 1.391 . S
C2993 H2981 0.950 . S
C2993 C2989 1.393 . S
C2993 C2992 1.391 . S
C2994 H2984 0.950 . S
C2994 C2995 1.386 . S
C2994 C2996 1.391 . S
C2995 C2994 1.386 . S
C2995 C2999 1.393 . S
C2996 H2985 0.950 . S
C2996 C2994 1.391 . S
C2996 C2997 1.400 . S
C2997 C2991 1.491 . S
C2997 C2996 1.400 . S
C2997 C2998 1.398 . S
C2998 H2986 0.950 . S
C2998 C2997 1.398 . S
C2998 C2999 1.391 . S
C2999 H2987 0.950 . S
C2999 C2995 1.393 . S
C2999 C2998 1.391 . S
H3000 C3008 0.950 . S
H3001 C3013 0.950 . S
H3002 C3010 0.950 . S
H3003 C3012 0.950 . S
H3004 C3014 0.950 . S
H3005 C3016 0.950 . S
H3006 C3018 0.950 . S
H3007 C3019 0.950 . S
C3008 H3000 0.950 . S
C3008 C3009 1.386 . S
C3008 C3010 1.391 . S
C3009 C3008 1.386 . S
C3009 C3013 1.393 . S
C3010 H3002 0.950 . S
C3010 C3008 1.391 . S
C3010 C3011 1.400 . S
C3011 C3010 1.400 . S
C3011 C3012 1.398 . S
C3011 C3017 1.491 . S
C3012 H3003 0.950 . S
C3012 C3011 1.398 . S
C3012 C3013 1.391 . S
C3013 H3001 0.950 . S
C3013 C3009 1.393 . S
C3013 C3012 1.391 . S
C3014 H3004 0.950 . S
C3014 C3015 1.386 . S
C3014 C3016 1.391 . S
C3015 C3014 1.386 . S
C3015 C3019 1.393 . S
C3016 H3005 0.950 . S
C3016 C3014 1.391 . S
C3016 C3017 1.400 . S
C3017 C3011 1.491 . S
C3017 C3016 1.400 . S
C3017 C3018 1.398 . S
C3018 H3006 0.950 . S
C3018 C3017 1.398 . S
C3018 C3019 1.391 . S
C3019 H3007 0.950 . S
C3019 C3015 1.393 . S
C3019 C3018 1.391 . S
H3020 C3028 0.950 . S
H3021 C3033 0.950 . S
H3022 C3030 0.950 . S
H3023 C3032 0.950 . S
H3024 C3034 0.950 . S
H3025 C3036 0.950 . S
H3026 C3038 0.950 . S
H3027 C3039 0.950 . S
C3028 H3020 0.950 . S
C3028 C3029 1.386 . S
C3028 C3030 1.391 . S
C3029 C3028 1.386 . S
C3029 C3033 1.393 . S
C3030 H3022 0.950 . S
C3030 C3028 1.391 . S
C3030 C3031 1.400 . S
C3031 C3030 1.400 . S
C3031 C3032 1.398 . S
C3031 C3037 1.491 . S
C3032 H3023 0.950 . S
C3032 C3031 1.398 . S
C3032 C3033 1.391 . S
C3033 H3021 0.950 . S
C3033 C3029 1.393 . S
C3033 C3032 1.391 . S
C3034 H3024 0.950 . S
C3034 C3035 1.386 . S
C3034 C3036 1.391 . S
C3035 C3034 1.386 . S
C3035 C3039 1.393 . S
C3036 H3025 0.950 . S
C3036 C3034 1.391 . S
C3036 C3037 1.400 . S
C3037 C3031 1.491 . S
C3037 C3036 1.400 . S
C3037 C3038 1.398 . S
C3038 H3026 0.950 . S
C3038 C3037 1.398 . S
C3038 C3039 1.391 . S
C3039 H3027 0.950 . S
C3039 C3035 1.393 . S
C3039 C3038 1.391 . S
H3040 C3048 0.950 . S
H3041 C3053 0.950 . S
H3042 C3050 0.950 . S
H3043 C3052 0.950 . S
H3044 C3054 0.950 . S
H3045 C3056 0.950 . S
H3046 C3058 0.950 . S
H3047 C3059 0.950 . S
C3048 H3040 0.950 . S
C3048 C3049 1.386 . S
C3048 C3050 1.391 . S
C3049 C3048 1.386 . S
C3049 C3053 1.393 . S
C3050 H3042 0.950 . S
C3050 C3048 1.391 . S
C3050 C3051 1.400 . S
C3051 C3050 1.400 . S
C3051 C3052 1.398 . S
C3051 C3057 1.491 . S
C3052 H3043 0.950 . S
C3052 C3051 1.398 . S
C3052 C3053 1.391 . S
C3053 H3041 0.950 . S
C3053 C3049 1.393 . S
C3053 C3052 1.391 . S
C3054 H3044 0.950 . S
C3054 C3055 1.386 . S
C3054 C3056 1.391 . S
C3055 C3054 1.386 . S
C3055 C3059 1.393 . S
C3056 H3045 0.950 . S
C3056 C3054 1.391 . S
C3056 C3057 1.400 . S
C3057 C3051 1.491 . S
C3057 C3056 1.400 . S
C3057 C3058 1.398 . S
C3058 H3046 0.950 . S
C3058 C3057 1.398 . S
C3058 C3059 1.391 . S
C3059 H3047 0.950 . S
C3059 C3055 1.393 . S
C3059 C3058 1.391 . S
H3060 C3068 0.950 . S
H3061 C3073 0.950 . S
H3062 C3070 0.950 . S
H3063 C3072 0.950 . S
H3064 C3074 0.950 . S
H3065 C3076 0.950 . S
H3066 C3078 0.950 . S
H3067 C3079 0.950 . S
C3068 H3060 0.950 . S
C3068 C3069 1.386 . S
C3068 C3070 1.391 . S
C3069 C3068 1.386 . S
C3069 C3073 1.393 . S
C3070 H3062 0.950 . S
C3070 C3068 1.391 . S
C3070 C3071 1.400 . S
C3071 C3070 1.400 . S
C3071 C3072 1.398 . S
C3071 C3077 1.491 . S
C3072 H3063 0.950 . S
C3072 C3071 1.398 . S
C3072 C3073 1.391 . S
C3073 H3061 0.950 . S
C3073 C3069 1.393 . S
C3073 C3072 1.391 . S
C3074 H3064 0.950 . S
C3074 C3075 1.386 . S
C3074 C3076 1.391 . S
C3075 C3074 1.386 . S
C3075 C3079 1.393 . S
C3076 H3065 0.950 . S
C3076 C3074 1.391 . S
C3076 C3077 1.400 . S
C3077 C3071 1.491 . S
C3077 C3076 1.400 . S
C3077 C3078 1.398 . S
C3078 H3066 0.950 . S
C3078 C3077 1.398 . S
C3078 C3079 1.391 . S
C3079 H3067 0.950 . S
C3079 C3075 1.393 . S
C3079 C3078 1.391 . S
H3080 C3088 0.950 . S
H3081 C3093 0.950 . S
H3082 C3090 0.950 . S
H3083 C3092 0.950 . S
H3084 C3094 0.950 . S
H3085 C3096 0.950 . S
H3086 C3098 0.950 . S
H3087 C3099 0.950 . S
C3088 H3080 0.950 . S
C3088 C3089 1.386 . S
C3088 C3090 1.391 . S
C3089 C3088 1.386 . S
C3089 C3093 1.393 . S
C3090 H3082 0.950 . S
C3090 C3088 1.391 . S
C3090 C3091 1.400 . S
C3091 C3090 1.400 . S
C3091 C3092 1.398 . S
C3091 C3097 1.491 . S
C3092 H3083 0.950 . S
C3092 C3091 1.398 . S
C3092 C3093 1.391 . S
C3093 H3081 0.950 . S
C3093 C3089 1.393 . S
C3093 C3092 1.391 . S
C3094 H3084 0.950 . S
C3094 C3095 1.386 . S
C3094 C3096 1.391 . S
C3095 C3094 1.386 . S
C3095 C3099 1.393 . S
C3096 H3085 0.950 . S
C3096 C3094 1.391 . S
C3096 C3097 1.400 . S
C3097 C3091 1.491 . S
C3097 C3096 1.400 . S
C3097 C3098 1.398 . S
C3098 H3086 0.950 . S
C3098 C3097 1.398 . S
C3098 C3099 1.391 . S
C3099 H3087 0.950 . S
C3099 C3095 1.393 . S
C3099 C3098 1.391 . S
H3100 C3108 0.950 . S
H3101 C3113 0.950 . S
H3102 C3110 0.950 . S
H3103 C3112 0.950 . S
H3104 C3114 0.950 . S
H3105 C3116 0.950 . S
H3106 C3118 0.953 1_455 S
H3107 C3119 0.950 . S
C3108 H3100 0.950 . S
C3108 C3109 1.386 . S
C3108 C3110 1.391 . S
C3109 C3108 1.386 . S
C3109 C3113 1.393 . S
C3110 H3102 0.950 . S
C3110 C3108 1.391 . S
C3110 C3111 1.400 . S
C3111 C3110 1.400 . S
C3111 C3112 1.398 . S
C3111 C3117 1.491 . S
C3112 H3103 0.950 . S
C3112 C3111 1.398 . S
C3112 C3113 1.391 . S
C3113 H3101 0.950 . S
C3113 C3109 1.393 . S
C3113 C3112 1.391 . S
C3114 H3104 0.950 . S
C3114 C3115 1.386 . S
C3114 C3116 1.391 . S
C3115 C3114 1.386 . S
C3115 C3119 1.393 . S
C3116 H3105 0.950 . S
C3116 C3114 1.391 . S
C3116 C3117 1.400 1_655 S
C3117 C3111 1.491 . S
C3117 C3116 1.400 1_455 S
C3117 C3118 1.399 1_455 S
C3118 H3106 0.953 1_655 S
C3118 C3117 1.399 1_655 S
C3118 C3119 1.387 . S
C3119 H3107 0.950 . S
C3119 C3115 1.393 . S
C3119 C3118 1.387 . S
C1215 C882 0.996 . S
C1209 C4 1.031 . S
C1229 C39 1.472 . S
C1235 C902 1.475 . S
C1255 C922 1.005 . S
C1249 C86 1.070 . S
C1275 C941 1.361 . S
C1269 C110 1.345 . S
C1295 C899 1.306 . S
C1289 C146 1.285 . S
C1309 C194 1.140 . S
C1315 C924 1.152 . S
C1335 C944 1.378 . S
C1329 C219 1.394 . S
C1349 C256 1.110 . S
C1355 C880 1.018 . S
C1369 C292 1.311 . S
C1375 C877 1.213 . S
C1395 C900 1.138 . S
C1389 C326 1.198 . S
C1415 C923 1.320 . S
C1409 C363 1.321 . S
C1435 C945 1.345 . S
C1429 C410 1.322 1_556 S
C1455 C903 0.971 . S
C1449 C302 0.943 . S
C1475 C919 0.985 . S
C1469 C327 1.138 . S
C1489 C362 1.076 . S
C1495 C942 1.014 . S
C1515 C881 0.866 . S
C1509 C400 0.842 . S
C1529 C436 1.249 . S
C1535 C878 1.257 . S
C1549 C471 0.930 . S
C1555 C961 0.801 . S
C1575 C983 1.268 . S
C1569 C506 1.256 . S
C1595 C1006 1.029 . S
C1589 C554 1.126 . S
C1609 C580 1.299 . S
C1615 C879 1.257 . S
C1629 C614 1.368 . S
C1635 C921 1.310 . S
C1655 C1003 1.154 . S
C1649 C507 1.371 . S
C1675 C964 0.849 . S
C1669 C662 0.903 . S
C1695 C1029 1.052 . S
C1689 C50 1.016 . S
C1715 C1049 1.605 . S
C1709 C3 1.575 . S
C1729 C112 1.085 . S
C1735 C1071 1.057 . S
C1749 C74 1.110 . S
C1755 C1088 1.160 . S
C1769 C254 1.624 1_655 S
C1775 C1046 1.662 . S
C1789 C220 1.155 . S
C1795 C1069 1.063 . S
C1815 C1091 1.302 . S
C1809 C183 1.285 . S
C1829 C158 1.170 . S
C1835 C1027 1.190 . S
C1849 C698 0.998 . S
C1855 C1024 1.043 . S
C1875 C1047 1.458 . S
C1869 C542 1.527 . S
C1895 C1066 1.306 . S
C1889 C579 1.431 . S
C1915 C1092 1.224 . S
C1909 C472 1.287 . S
C1935 C1050 0.964 . S
C1929 C688 1.017 . S
C1955 C1070 1.010 . S
C1949 C543 1.013 . S
C1975 C1089 0.868 . S
C1969 C578 0.885 . S
C1989 C482 1.204 . S
C1995 C1028 1.386 . S
C2015 C1025 1.413 . S
C2009 C734 1.263 . S
C2029 C399 1.163 . S
C2035 C1108 0.994 . S
C2055 C1131 1.330 . S
C2049 C758 1.378 . S
C2069 C328 1.238 . S
C2075 C1153 1.059 . S
C2095 C1026 1.391 . S
C2089 C374 1.292 . S
C2115 C1067 1.430 . S
C2109 C794 1.402 . S
C2135 C1150 0.970 . S
C2129 C759 1.091 . S
C2149 C832 0.862 . S
C2155 C1111 0.845 . S
C2169 C76 1.038 . S
C2175 C1176 0.998 . S
C2189 C111 1.476 . S
C2195 C965 1.469 . S
C2215 C985 0.983 . S
C2209 C14 1.070 . S
C2229 C38 1.337 . S
C2235 C1004 1.357 . S
C2249 C218 1.253 . S
C2255 C962 1.286 . S
C2269 C266 1.133 . S
C2275 C987 1.158 . S
C2295 C1007 1.358 . S
C2289 C147 1.377 . S
C2315 C1174 0.966 . S
C2309 C184 1.096 . S
C2335 C1171 1.180 . S
C2329 C760 1.323 . S
C2355 C963 1.132 . S
C2349 C722 1.192 . S
C2375 C986 1.307 . S
C2369 C831 1.312 . S
C2389 C806 1.315 . S
C2395 C1008 1.336 . S
C2415 C966 1.016 . S
C2409 C770 0.977 . S
C2429 C723 1.136 . S
C2435 C982 0.980 . S
C2455 C1005 1.014 . S
C2449 C830 1.075 . S
C2469 C796 0.865 . S
C2475 C1175 0.881 . S
C2495 C1172 1.254 . S
C2489 C544 1.244 . S
C2509 C615 0.956 . S
C2515 C898 0.861 . S
C2535 C920 1.264 . S
C2529 C686 1.231 . S
C2549 C446 1.130 . S
C2555 C943 1.037 . S
C2575 C1173 1.221 . S
C2569 C652 1.282 . S
C2595 C984 1.344 . S
C2589 C470 1.386 . S
C2615 C940 1.121 . S
C2609 C687 1.354 . S
C2635 C901 0.857 . S
C2629 C590 0.911 . S
C2649 C122 0.978 . S
C2655 C1197 1.043 . S
C2669 C75 1.570 . S
C2675 C1112 1.604 . S
C2689 C40 1.063 . S
C2695 C1134 1.016 . S
C2715 C1151 1.174 . S
C2709 C2 1.142 . S
C2735 C1109 1.663 . S
C2729 C182 1.636 . S
C2749 C148 1.162 . S
C2755 C1132 1.063 . S
C2775 C1154 1.308 . S
C2769 C255 1.288 . S
C2789 C230 1.183 . S
C2795 C1195 1.192 . S
C2815 C1192 1.046 . S
C2809 C518 1.006 . S
C2829 C434 1.506 . S
C2835 C1110 1.428 . S
C2849 C651 1.430 . S
C2855 C1129 1.314 . S
C2875 C1155 1.197 . S
C2869 C616 1.271 . S
C2895 C1113 1.007 . S
C2889 C508 1.042 . S
C2909 C435 1.003 . S
C2915 C1133 1.007 . S
C2935 C1152 0.812 . S
C2929 C650 0.843 . S
C2955 C1196 1.396 . S
C2949 C626 1.200 . S
C2975 C1193 1.407 . S
C2969 C338 1.280 . S
C2995 C1045 1.049 . S
C2989 C795 1.159 . S
C3009 C290 1.378 . S
C3015 C1068 1.330 . S
C3029 C724 1.241 . S
C3035 C1090 1.098 . S
C3055 C1194 1.388 . S
C3049 C842 1.317 . S
C3075 C1130 1.429 . S
C3069 C398 1.396 1_556 S
C3095 C1087 1.017 . S
C3089 C291 1.113 . S
C3115 C1048 0.854 . S
C3109 C364 0.872 . S
