# Generated by pormake.
# Topology gar, (4,6)-cn, num edge types: 1
# Building blocks:
#     Node 0, Type 0, BuildingBlock: AZAVOO_clean_sbu_0, # of connection points: 4
#     Node 1, Type 0, BuildingBlock: AZAVOO_clean_sbu_0, # of connection points: 4
#     Node 2, Type 0, BuildingBlock: AZAVOO_clean_sbu_0, # of connection points: 4
#     Node 3, Type 0, BuildingBlock: AZAVOO_clean_sbu_0, # of connection points: 4
#     Node 4, Type 0, BuildingBlock: AZAVOO_clean_sbu_0, # of connection points: 4
#     Node 5, Type 0, BuildingBlock: AZAVOO_clean_sbu_0, # of connection points: 4
#     Node 6, Type 0, BuildingBlock: AZAVOO_clean_sbu_0, # of connection points: 4
#     Node 7, Type 0, BuildingBlock: AZAVOO_clean_sbu_0, # of connection points: 4
#     Node 8, Type 0, BuildingBlock: AZAVOO_clean_sbu_0, # of connection points: 4
#     Node 9, Type 0, BuildingBlock: AZAVOO_clean_sbu_0, # of connection points: 4
#     Node 10, Type 0, BuildingBlock: AZAVOO_clean_sbu_0, # of connection points: 4
#     Node 11, Type 0, BuildingBlock: AZAVOO_clean_sbu_0, # of connection points: 4
#     Node 12, Type 0, BuildingBlock: AZAVOO_clean_sbu_0, # of connection points: 4
#     Node 13, Type 0, BuildingBlock: AZAVOO_clean_sbu_0, # of connection points: 4
#     Node 14, Type 0, BuildingBlock: AZAVOO_clean_sbu_0, # of connection points: 4
#     Node 15, Type 0, BuildingBlock: AZAVOO_clean_sbu_0, # of connection points: 4
#     Node 16, Type 0, BuildingBlock: AZAVOO_clean_sbu_0, # of connection points: 4
#     Node 17, Type 0, BuildingBlock: AZAVOO_clean_sbu_0, # of connection points: 4
#     Node 18, Type 0, BuildingBlock: AZAVOO_clean_sbu_0, # of connection points: 4
#     Node 19, Type 0, BuildingBlock: AZAVOO_clean_sbu_0, # of connection points: 4
#     Node 20, Type 0, BuildingBlock: AZAVOO_clean_sbu_0, # of connection points: 4
#     Node 21, Type 0, BuildingBlock: AZAVOO_clean_sbu_0, # of connection points: 4
#     Node 22, Type 0, BuildingBlock: AZAVOO_clean_sbu_0, # of connection points: 4
#     Node 23, Type 0, BuildingBlock: AZAVOO_clean_sbu_0, # of connection points: 4
#     Node 24, Type 1, BuildingBlock: BETGAK_clean_sbu_0, # of connection points: 6
#     Node 25, Type 1, BuildingBlock: BETGAK_clean_sbu_0, # of connection points: 6
#     Node 26, Type 1, BuildingBlock: BETGAK_clean_sbu_0, # of connection points: 6
#     Node 27, Type 1, BuildingBlock: BETGAK_clean_sbu_0, # of connection points: 6
#     Node 28, Type 1, BuildingBlock: BETGAK_clean_sbu_0, # of connection points: 6
#     Node 29, Type 1, BuildingBlock: BETGAK_clean_sbu_0, # of connection points: 6
#     Node 30, Type 1, BuildingBlock: BETGAK_clean_sbu_0, # of connection points: 6
#     Node 31, Type 1, BuildingBlock: BETGAK_clean_sbu_0, # of connection points: 6
#     Node 32, Type 1, BuildingBlock: BETGAK_clean_sbu_0, # of connection points: 6
#     Node 33, Type 1, BuildingBlock: BETGAK_clean_sbu_0, # of connection points: 6
#     Node 34, Type 1, BuildingBlock: BETGAK_clean_sbu_0, # of connection points: 6
#     Node 35, Type 1, BuildingBlock: BETGAK_clean_sbu_0, # of connection points: 6
#     Node 36, Type 1, BuildingBlock: BETGAK_clean_sbu_0, # of connection points: 6
#     Node 37, Type 1, BuildingBlock: BETGAK_clean_sbu_0, # of connection points: 6
#     Node 38, Type 1, BuildingBlock: BETGAK_clean_sbu_0, # of connection points: 6
#     Node 39, Type 1, BuildingBlock: BETGAK_clean_sbu_0, # of connection points: 6
#     Edge 40, Type (0, 1), BuildingBlock: TEMPAE_clean_linker_10, # of connection points: 2
#     Edge 41, Type (0, 1), BuildingBlock: TEMPAE_clean_linker_10, # of connection points: 2
#     Edge 42, Type (0, 1), BuildingBlock: TEMPAE_clean_linker_10, # of connection points: 2
#     Edge 43, Type (0, 1), BuildingBlock: TEMPAE_clean_linker_10, # of connection points: 2
#     Edge 44, Type (0, 1), BuildingBlock: TEMPAE_clean_linker_10, # of connection points: 2
#     Edge 45, Type (0, 1), BuildingBlock: TEMPAE_clean_linker_10, # of connection points: 2
#     Edge 46, Type (0, 1), BuildingBlock: TEMPAE_clean_linker_10, # of connection points: 2
#     Edge 47, Type (0, 1), BuildingBlock: TEMPAE_clean_linker_10, # of connection points: 2
#     Edge 48, Type (0, 1), BuildingBlock: TEMPAE_clean_linker_10, # of connection points: 2
#     Edge 49, Type (0, 1), BuildingBlock: TEMPAE_clean_linker_10, # of connection points: 2
#     Edge 50, Type (0, 1), BuildingBlock: TEMPAE_clean_linker_10, # of connection points: 2
#     Edge 51, Type (0, 1), BuildingBlock: TEMPAE_clean_linker_10, # of connection points: 2
#     Edge 52, Type (0, 1), BuildingBlock: TEMPAE_clean_linker_10, # of connection points: 2
#     Edge 53, Type (0, 1), BuildingBlock: TEMPAE_clean_linker_10, # of connection points: 2
#     Edge 54, Type (0, 1), BuildingBlock: TEMPAE_clean_linker_10, # of connection points: 2
#     Edge 55, Type (0, 1), BuildingBlock: TEMPAE_clean_linker_10, # of connection points: 2
#     Edge 56, Type (0, 1), BuildingBlock: TEMPAE_clean_linker_10, # of connection points: 2
#     Edge 57, Type (0, 1), BuildingBlock: TEMPAE_clean_linker_10, # of connection points: 2
#     Edge 58, Type (0, 1), BuildingBlock: TEMPAE_clean_linker_10, # of connection points: 2
#     Edge 59, Type (0, 1), BuildingBlock: TEMPAE_clean_linker_10, # of connection points: 2
#     Edge 60, Type (0, 1), BuildingBlock: TEMPAE_clean_linker_10, # of connection points: 2
#     Edge 61, Type (0, 1), BuildingBlock: TEMPAE_clean_linker_10, # of connection points: 2
#     Edge 62, Type (0, 1), BuildingBlock: TEMPAE_clean_linker_10, # of connection points: 2
#     Edge 63, Type (0, 1), BuildingBlock: TEMPAE_clean_linker_10, # of connection points: 2
#     Edge 64, Type (0, 1), BuildingBlock: TEMPAE_clean_linker_10, # of connection points: 2
#     Edge 65, Type (0, 1), BuildingBlock: TEMPAE_clean_linker_10, # of connection points: 2
#     Edge 66, Type (0, 1), BuildingBlock: TEMPAE_clean_linker_10, # of connection points: 2
#     Edge 67, Type (0, 1), BuildingBlock: TEMPAE_clean_linker_10, # of connection points: 2
#     Edge 68, Type (0, 1), BuildingBlock: TEMPAE_clean_linker_10, # of connection points: 2
#     Edge 69, Type (0, 1), BuildingBlock: TEMPAE_clean_linker_10, # of connection points: 2
#     Edge 70, Type (0, 1), BuildingBlock: TEMPAE_clean_linker_10, # of connection points: 2
#     Edge 71, Type (0, 1), BuildingBlock: TEMPAE_clean_linker_10, # of connection points: 2
#     Edge 72, Type (0, 1), BuildingBlock: TEMPAE_clean_linker_10, # of connection points: 2
#     Edge 73, Type (0, 1), BuildingBlock: TEMPAE_clean_linker_10, # of connection points: 2
#     Edge 74, Type (0, 1), BuildingBlock: TEMPAE_clean_linker_10, # of connection points: 2
#     Edge 75, Type (0, 1), BuildingBlock: TEMPAE_clean_linker_10, # of connection points: 2
#     Edge 76, Type (0, 1), BuildingBlock: TEMPAE_clean_linker_10, # of connection points: 2
#     Edge 77, Type (0, 1), BuildingBlock: TEMPAE_clean_linker_10, # of connection points: 2
#     Edge 78, Type (0, 1), BuildingBlock: TEMPAE_clean_linker_10, # of connection points: 2
#     Edge 79, Type (0, 1), BuildingBlock: TEMPAE_clean_linker_10, # of connection points: 2
#     Edge 80, Type (0, 1), BuildingBlock: TEMPAE_clean_linker_10, # of connection points: 2
#     Edge 81, Type (0, 1), BuildingBlock: TEMPAE_clean_linker_10, # of connection points: 2
#     Edge 82, Type (0, 1), BuildingBlock: TEMPAE_clean_linker_10, # of connection points: 2
#     Edge 83, Type (0, 1), BuildingBlock: TEMPAE_clean_linker_10, # of connection points: 2
#     Edge 84, Type (0, 1), BuildingBlock: TEMPAE_clean_linker_10, # of connection points: 2
#     Edge 85, Type (0, 1), BuildingBlock: TEMPAE_clean_linker_10, # of connection points: 2
#     Edge 86, Type (0, 1), BuildingBlock: TEMPAE_clean_linker_10, # of connection points: 2
#     Edge 87, Type (0, 1), BuildingBlock: TEMPAE_clean_linker_10, # of connection points: 2
#     Edge 88, Type (0, 1), BuildingBlock: TEMPAE_clean_linker_10, # of connection points: 2
#     Edge 89, Type (0, 1), BuildingBlock: TEMPAE_clean_linker_10, # of connection points: 2
#     Edge 90, Type (0, 1), BuildingBlock: TEMPAE_clean_linker_10, # of connection points: 2
#     Edge 91, Type (0, 1), BuildingBlock: TEMPAE_clean_linker_10, # of connection points: 2
#     Edge 92, Type (0, 1), BuildingBlock: TEMPAE_clean_linker_10, # of connection points: 2
#     Edge 93, Type (0, 1), BuildingBlock: TEMPAE_clean_linker_10, # of connection points: 2
#     Edge 94, Type (0, 1), BuildingBlock: TEMPAE_clean_linker_10, # of connection points: 2
#     Edge 95, Type (0, 1), BuildingBlock: TEMPAE_clean_linker_10, # of connection points: 2
#     Edge 96, Type (0, 1), BuildingBlock: TEMPAE_clean_linker_10, # of connection points: 2
#     Edge 97, Type (0, 1), BuildingBlock: TEMPAE_clean_linker_10, # of connection points: 2
#     Edge 98, Type (0, 1), BuildingBlock: TEMPAE_clean_linker_10, # of connection points: 2
#     Edge 99, Type (0, 1), BuildingBlock: TEMPAE_clean_linker_10, # of connection points: 2
#     Edge 100, Type (0, 1), BuildingBlock: TEMPAE_clean_linker_10, # of connection points: 2
#     Edge 101, Type (0, 1), BuildingBlock: TEMPAE_clean_linker_10, # of connection points: 2
#     Edge 102, Type (0, 1), BuildingBlock: TEMPAE_clean_linker_10, # of connection points: 2
#     Edge 103, Type (0, 1), BuildingBlock: TEMPAE_clean_linker_10, # of connection points: 2
#     Edge 104, Type (0, 1), BuildingBlock: TEMPAE_clean_linker_10, # of connection points: 2
#     Edge 105, Type (0, 1), BuildingBlock: TEMPAE_clean_linker_10, # of connection points: 2
#     Edge 106, Type (0, 1), BuildingBlock: TEMPAE_clean_linker_10, # of connection points: 2
#     Edge 107, Type (0, 1), BuildingBlock: TEMPAE_clean_linker_10, # of connection points: 2
#     Edge 108, Type (0, 1), BuildingBlock: TEMPAE_clean_linker_10, # of connection points: 2
#     Edge 109, Type (0, 1), BuildingBlock: TEMPAE_clean_linker_10, # of connection points: 2
#     Edge 110, Type (0, 1), BuildingBlock: TEMPAE_clean_linker_10, # of connection points: 2
#     Edge 111, Type (0, 1), BuildingBlock: TEMPAE_clean_linker_10, # of connection points: 2
#     Edge 112, Type (0, 1), BuildingBlock: TEMPAE_clean_linker_10, # of connection points: 2
#     Edge 113, Type (0, 1), BuildingBlock: TEMPAE_clean_linker_10, # of connection points: 2
#     Edge 114, Type (0, 1), BuildingBlock: TEMPAE_clean_linker_10, # of connection points: 2
#     Edge 115, Type (0, 1), BuildingBlock: TEMPAE_clean_linker_10, # of connection points: 2
#     Edge 116, Type (0, 1), BuildingBlock: TEMPAE_clean_linker_10, # of connection points: 2
#     Edge 117, Type (0, 1), BuildingBlock: TEMPAE_clean_linker_10, # of connection points: 2
#     Edge 118, Type (0, 1), BuildingBlock: TEMPAE_clean_linker_10, # of connection points: 2
#     Edge 119, Type (0, 1), BuildingBlock: TEMPAE_clean_linker_10, # of connection points: 2
#     Edge 120, Type (0, 1), BuildingBlock: TEMPAE_clean_linker_10, # of connection points: 2
#     Edge 121, Type (0, 1), BuildingBlock: TEMPAE_clean_linker_10, # of connection points: 2
#     Edge 122, Type (0, 1), BuildingBlock: TEMPAE_clean_linker_10, # of connection points: 2
#     Edge 123, Type (0, 1), BuildingBlock: TEMPAE_clean_linker_10, # of connection points: 2
#     Edge 124, Type (0, 1), BuildingBlock: TEMPAE_clean_linker_10, # of connection points: 2
#     Edge 125, Type (0, 1), BuildingBlock: TEMPAE_clean_linker_10, # of connection points: 2
#     Edge 126, Type (0, 1), BuildingBlock: TEMPAE_clean_linker_10, # of connection points: 2
#     Edge 127, Type (0, 1), BuildingBlock: TEMPAE_clean_linker_10, # of connection points: 2
#     Edge 128, Type (0, 1), BuildingBlock: TEMPAE_clean_linker_10, # of connection points: 2
#     Edge 129, Type (0, 1), BuildingBlock: TEMPAE_clean_linker_10, # of connection points: 2
#     Edge 130, Type (0, 1), BuildingBlock: TEMPAE_clean_linker_10, # of connection points: 2
#     Edge 131, Type (0, 1), BuildingBlock: TEMPAE_clean_linker_10, # of connection points: 2
#     Edge 132, Type (0, 1), BuildingBlock: TEMPAE_clean_linker_10, # of connection points: 2
#     Edge 133, Type (0, 1), BuildingBlock: TEMPAE_clean_linker_10, # of connection points: 2
#     Edge 134, Type (0, 1), BuildingBlock: TEMPAE_clean_linker_10, # of connection points: 2
#     Edge 135, Type (0, 1), BuildingBlock: TEMPAE_clean_linker_10, # of connection points: 2
# Relax obj value: 0.229
# Max RMSD: 0.306
# Mean RMSD: 0.197
data_MOF--net-gar--node1-AZAVOO_clean_sbu_0--node2-BETGAK_clean_sbu_0--edge1-TEMPAE_clean_linker_10
_symmetry_space_group_name_H-M    P1
_symmetry_Int_Tables_number       1
_symmetry_cell_setting            triclinic
loop_
_symmetry_equiv_pos_as_xyz
'x, y, z'
_cell_length_a     64.12837
_cell_length_b     56.698757
_cell_length_c     57.913706
_cell_angle_alpha  101.64653
_cell_angle_beta   95.051647
_cell_angle_gamma 104.07742
loop_
_atom_site_label
_atom_site_type_symbol
_atom_site_fract_x
_atom_site_fract_y
_atom_site_fract_z
_atom_type_partial_charge
Mg0 Mg 0.10263 0.31351 0.37039 0.0
O1 O 0.09656 0.3496 0.39386 0.0
O2 O 0.06083 0.34083 0.39676 0.0
Mg3 Mg 0.05135 0.29933 0.39272 0.0
C4 C 0.07962 0.35628 0.39981 0.0
C5 C 0.14196 0.3453 0.35512 0.0
O6 O 0.12601 0.35148 0.34415 0.0
O7 O 0.11048 0.29631 0.40183 0.0
O8 O 0.08463 0.31145 0.41417 0.0
O9 O 0.08517 0.32204 0.33973 0.0
O10 O 0.06883 0.29759 0.36179 0.0
C11 C 0.09624 0.29668 0.41567 0.0
C12 C 0.06739 0.30982 0.34555 0.0
O13 O 0.13788 0.33236 0.37048 0.0
Mg14 Mg 0.99846 0.76434 0.6648 0.0
O15 O 0.99911 0.72792 0.64105 0.0
O16 O 0.9711 0.71495 0.61192 0.0
Mg17 Mg 0.95179 0.74435 0.61878 0.0
C18 C 0.98835 0.71218 0.62249 0.0
C19 C 0.03574 0.75067 0.68895 0.0
O20 O 0.02046 0.72958 0.68515 0.0
O21 O 0.01009 0.78442 0.63699 0.0
O22 O 0.97964 0.77461 0.61077 0.0
O23 O 0.9788 0.74473 0.68751 0.0
O24 O 0.96553 0.7574 0.6569 0.0
C25 C 0.99954 0.78649 0.6182 0.0
C26 C 0.96226 0.74752 0.6749 0.0
O27 O 0.03199 0.76905 0.68169 0.0
Mg28 Mg 0.6044 0.82583 0.87431 0.0
O29 O 0.61549 0.86618 0.89627 0.0
O30 O 0.59728 0.8543 0.92365 0.0
Mg31 Mg 0.56201 0.83665 0.90816 0.0
C32 C 0.60836 0.87182 0.91575 0.0
C33 C 0.63784 0.82229 0.84443 0.0
O34 O 0.61897 0.8148 0.83065 0.0
O35 O 0.60569 0.8056 0.90497 0.0
O36 O 0.5714 0.80238 0.91281 0.0
O37 O 0.59018 0.8404 0.84536 0.0
O38 O 0.57247 0.82687 0.87324 0.0
C39 C 0.58859 0.79478 0.91268 0.0
C40 C 0.57268 0.83655 0.85512 0.0
O41 O 0.63828 0.8276 0.86685 0.0
Mg42 Mg 0.50348 0.27414 0.17895 0.0
O43 O 0.50979 0.23796 0.15788 0.0
O44 O 0.48222 0.22472 0.12766 0.0
Mg45 Mg 0.45872 0.24915 0.13004 0.0
C46 C 0.49956 0.22242 0.13861 0.0
C47 C 0.55531 0.29423 0.20964 0.0
O48 O 0.56523 0.31281 0.22776 0.0
O49 O 0.51482 0.29341 0.1504 0.0
O50 O 0.48552 0.28064 0.12242 0.0
O51 O 0.48375 0.25431 0.20198 0.0
O52 O 0.47117 0.26082 0.16774 0.0
C53 C 0.50485 0.29412 0.13065 0.0
C54 C 0.46731 0.25266 0.18649 0.0
O55 O 0.53551 0.29153 0.20253 0.0
Mg56 Mg 0.09449 0.8284 0.14064 0.0
O57 O 0.08976 0.79145 0.11248 0.0
O58 O 0.05742 0.78282 0.09003 0.0
Mg59 Mg 0.03945 0.81171 0.10456 0.0
C60 C 0.07533 0.77776 0.09522 0.0
C61 C 0.13589 0.81066 0.15798 0.0
O62 O 0.11937 0.79115 0.15638 0.0
O63 O 0.09833 0.85495 0.11267 0.0
O64 O 0.06337 0.84458 0.09656 0.0
O65 O 0.07673 0.8073 0.1663 0.0
O66 O 0.05983 0.82069 0.13937 0.0
C67 C 0.0827 0.85849 0.09926 0.0
C68 C 0.05858 0.80916 0.15628 0.0
O69 O 0.1319 0.82982 0.15176 0.0
Mg70 Mg 0.51247 0.76231 0.40302 0.0
O71 O 0.51666 0.79847 0.43159 0.0
O72 O 0.48751 0.79285 0.45032 0.0
Mg73 Mg 0.46426 0.75403 0.43276 0.0
C74 C 0.50574 0.80641 0.44742 0.0
C75 C 0.55486 0.78677 0.38366 0.0
O76 O 0.54007 0.7936 0.3714 0.0
O77 O 0.51959 0.74032 0.43117 0.0
O78 O 0.48793 0.73207 0.4452 0.0
O79 O 0.49544 0.77783 0.37632 0.0
O80 O 0.47784 0.7558 0.39908 0.0
C81 C 0.50705 0.72925 0.44397 0.0
C82 C 0.47713 0.76861 0.38308 0.0
O83 O 0.54896 0.77409 0.39892 0.0
Mg84 Mg 0.59373 0.32841 0.64001 0.0
O85 O 0.58834 0.29103 0.61257 0.0
O86 O 0.55608 0.28245 0.59002 0.0
Mg87 Mg 0.53806 0.31118 0.60538 0.0
C88 C 0.57392 0.27725 0.59534 0.0
C89 C 0.63608 0.32447 0.67003 0.0
O90 O 0.62094 0.32141 0.68385 0.0
O91 O 0.59681 0.35368 0.6111 0.0
O92 O 0.56154 0.34375 0.596 0.0
O93 O 0.57679 0.30844 0.66668 0.0
O94 O 0.55937 0.32116 0.63954 0.0
C95 C 0.58099 0.35721 0.59797 0.0
C96 C 0.55857 0.31017 0.65679 0.0
O97 O 0.63099 0.32908 0.64977 0.0
Mg98 Mg 0.01013 0.26455 0.90077 0.0
O99 O 0.01448 0.29991 0.93077 0.0
O100 O 0.98588 0.29349 0.95022 0.0
Mg101 Mg 0.96404 0.25393 0.93343 0.0
C102 C 1.00374 0.30745 0.94697 0.0
C103 C 0.05342 0.26676 0.87878 0.0
O104 O 0.04049 0.24579 0.86559 0.0
O105 O 0.01907 0.24089 0.92669 0.0
O106 O 0.98989 0.234 0.94528 0.0
O107 O 0.99137 0.28044 0.87604 0.0
O108 O 0.97541 0.25644 0.89845 0.0
C109 C 0.0085 0.23075 0.94152 0.0
C110 C 0.97367 0.27006 0.88333 0.0
O111 O 0.04605 0.27908 0.89554 0.0
Mg112 Mg 0.45652 0.05791 0.29317 0.0
O113 O 0.43061 0.02316 0.2927 0.0
O114 O 0.4147 0.02745 0.32548 0.0
Mg115 Mg 0.43268 0.06642 0.34792 0.0
C116 C 0.41644 0.0149 0.30516 0.0
C117 C 0.4726 0.03874 0.24797 0.0
O118 O 0.49114 0.04936 0.26205 0.0
O119 O 0.43021 0.0753 0.2852 0.0
O120 O 0.41574 0.08077 0.319 0.0
O121 O 0.4802 0.04252 0.30954 0.0
O122 O 0.46171 0.0665 0.32968 0.0
C123 C 0.41624 0.08215 0.29728 0.0
C124 C 0.47476 0.05235 0.32948 0.0
O125 O 0.45504 0.04131 0.25502 0.0
Mg126 Mg 0.28641 0.18496 0.49672 0.0
O127 O 0.29124 0.21321 0.53323 0.0
O128 O 0.32557 0.23647 0.53981 0.0
Mg129 Mg 0.34325 0.22386 0.50839 0.0
C130 C 0.30691 0.23045 0.54648 0.0
C131 C 0.24127 0.15296 0.50452 0.0
O132 O 0.25524 0.14114 0.51095 0.0
O133 O 0.28621 0.21441 0.4729 0.0
O134 O 0.32194 0.2327 0.47898 0.0
O135 O 0.29957 0.15851 0.51515 0.0
O136 O 0.32022 0.18672 0.50011 0.0
C137 C 0.30295 0.22912 0.46774 0.0
C138 C 0.31871 0.16925 0.51134 0.0
O139 O 0.24857 0.17291 0.49735 0.0
Mg140 Mg 0.16532 0.0128 0.77764 0.0
O141 O 0.19037 0.05357 0.77974 0.0
O142 O 0.21463 0.06244 0.81217 0.0
Mg143 Mg 0.20456 0.0296 0.8325 0.0
C144 C 0.2073 0.0685 0.79354 0.0
C145 C 0.13416 0.01866 0.72878 0.0
O146 O 0.1236 0.02633 0.74598 0.0
O147 O 0.19037 0.98374 0.77148 0.0
O148 O 0.21183 0.99503 0.80646 0.0
O149 O 0.14161 0.02841 0.80295 0.0
O150 O 0.16844 0.01788 0.81845 0.0
C151 C 0.20563 0.98008 0.78579 0.0
C152 C 0.1515 0.02583 0.82224 0.0
O153 O 0.15123 0.01157 0.73496 0.0
Mg154 Mg 0.31955 0.93979 0.0227 0.0
O155 O 0.32227 0.91871 0.98445 0.0
O156 O 0.3558 0.91289 0.98508 0.0
Mg157 Mg 0.36648 0.91353 0.02315 0.0
C158 C 0.33758 0.91245 0.97384 0.0
C159 C 0.28598 0.96313 0.02938 0.0
O160 O 0.30351 0.97441 0.045 0.0
O161 O 0.30522 0.90425 0.03524 0.0
O162 O 0.33129 0.893 0.01921 0.0
O163 O 0.34187 0.97394 0.01651 0.0
O164 O 0.35298 0.94595 0.03245 0.0
C165 C 0.31962 0.8925 0.03569 0.0
C166 C 0.35764 0.96602 0.02474 0.0
O167 O 0.28635 0.94434 0.01335 0.0
Mg168 Mg 0.32527 0.40539 0.04966 0.0
O169 O 0.32019 0.37671 0.01326 0.0
O170 O 0.347 0.35802 0.01436 0.0
Mg171 Mg 0.36974 0.37531 0.05036 0.0
C172 C 0.3302 0.36135 1.00328 0.0
C173 C 0.28543 0.4193 0.0247 0.0
O174 O 0.29976 0.42392 0.0102 0.0
O175 O 0.31528 0.37653 0.07371 0.0
O176 O 0.34549 0.36367 0.07596 0.0
O177 O 0.3465 0.43374 0.03313 0.0
O178 O 0.35926 0.40983 0.05293 0.0
C179 C 0.32732 0.36475 0.083 0.0
C180 C 0.36299 0.42661 0.04075 0.0
O181 O 0.29041 0.41028 0.04226 0.0
Mg182 Mg 0.79152 0.13436 0.01682 0.0
O183 O 0.78721 0.15346 0.05469 0.0
O184 O 0.81771 0.18481 0.06013 0.0
Mg185 Mg 0.84242 0.17917 0.03431 0.0
C186 C 0.79966 0.17466 0.06657 0.0
C187 C 0.73845 0.10589 0.99525 0.0
O188 O 0.72564 0.09951 0.97475 0.0
O189 O 0.78788 0.16961 0.00888 0.0
O190 O 0.82146 0.18703 1.00374 0.0
O191 O 0.80291 0.10232 0.02479 0.0
O192 O 0.82351 0.14069 0.02912 0.0
C193 C 0.80099 0.18364 0.99918 0.0
C194 C 0.82209 0.11751 0.02779 0.0
O195 O 0.75806 0.11746 0.99611 0.0
Mg196 Mg 0.15089 0.5307 0.24932 0.0
O197 O 0.17353 0.56953 0.25718 0.0
O198 O 0.18056 0.58633 0.29632 0.0
Mg199 Mg 0.16423 0.55543 0.31369 0.0
C200 C 0.1826 0.58764 0.27485 0.0
C201 C 0.13598 0.5158 0.20004 0.0
O202 O 0.12213 0.50341 0.21167 0.0
O203 O 0.17975 0.51645 0.25859 0.0
O204 O 0.18718 0.53356 0.29778 0.0
O205 O 0.12355 0.54826 0.25065 0.0
O206 O 0.14019 0.53898 0.2816 0.0
C207 C 0.19143 0.52085 0.2788 0.0
C208 C 0.12676 0.54985 0.27331 0.0
O209 O 0.15493 0.52708 0.21083 0.0
Mg210 Mg 0.825 0.90426 0.54771 0.0
O211 O 0.82041 0.8751 0.51177 0.0
O212 O 0.84774 0.85732 0.51378 0.0
Mg213 Mg 0.8703 0.87547 0.54976 0.0
C214 C 0.83079 0.8599 0.50228 0.0
C215 C 0.7885 0.92909 0.53562 0.0
O216 O 0.80665 0.94643 0.53691 0.0
O217 O 0.81516 0.87549 0.57184 0.0
O218 O 0.84614 0.86431 0.57573 0.0
O219 O 0.84588 0.93321 0.5315 0.0
O220 O 0.85935 0.90953 0.55087 0.0
C221 C 0.82757 0.8647 0.58198 0.0
C222 C 0.86268 0.9265 0.53884 0.0
O223 O 0.78981 0.90804 0.53936 0.0
Mg224 Mg 0.94146 0.07051 0.26484 0.0
O225 O 0.91534 0.02911 0.26178 0.0
O226 O 0.89977 0.03404 0.29496 0.0
Mg227 Mg 0.9129 0.07465 0.31908 0.0
C228 C 0.90226 0.01998 0.27565 0.0
C229 C 0.97105 0.06566 0.21639 0.0
O230 O 0.98673 0.07112 0.23439 0.0
O231 O 0.91529 0.09743 0.26067 0.0
O232 O 0.90232 0.10071 0.29537 0.0
O233 O 0.96841 0.06022 0.2895 0.0
O234 O 0.94405 0.07558 0.30498 0.0
C235 C 0.90385 0.10734 0.27553 0.0
C236 C 0.96054 0.06697 0.3087 0.0
O237 O 0.95141 0.06362 0.22183 0.0
Mg238 Mg 0.2902 0.63988 0.51591 0.0
O239 O 0.2865 0.65574 0.55457 0.0
O240 O 0.31702 0.68697 0.55966 0.0
Mg241 Mg 0.34158 0.68072 0.53367 0.0
C242 C 0.29908 0.67686 0.56636 0.0
C243 C 0.23653 0.61684 0.49559 0.0
O244 O 0.22257 0.6144 0.47668 0.0
O245 O 0.28973 0.67831 0.51436 0.0
O246 O 0.32138 0.68872 0.5022 0.0
O247 O 0.29869 0.6048 0.51913 0.0
O248 O 0.32201 0.64212 0.52768 0.0
C249 C 0.3014 0.6885 0.50085 0.0
C250 C 0.31859 0.61836 0.5242 0.0
O251 O 0.25613 0.62835 0.49603 0.0
Mg252 Mg 0.44244 0.57019 0.76572 0.0
O253 O 0.41614 0.52905 0.76295 0.0
O254 O 0.40139 0.53434 0.79663 0.0
Mg255 Mg 0.41488 0.575 0.82047 0.0
C256 C 0.40341 0.5201 0.7772 0.0
C257 C 0.46754 0.57578 0.71443 0.0
O258 O 0.47822 0.59728 0.72869 0.0
O259 O 0.41638 0.59727 0.76129 0.0
O260 O 0.40445 0.60086 0.79651 0.0
O261 O 0.46922 0.55916 0.78975 0.0
O262 O 0.44574 0.57562 0.80594 0.0
C263 C 0.40552 0.60753 0.77665 0.0
C264 C 0.4619 0.56636 0.80923 0.0
O265 O 0.45229 0.56155 0.72292 0.0
Mg266 Mg 0.65312 0.03401 0.75289 0.0
O267 O 0.68199 0.06843 0.75883 0.0
O268 O 0.69542 0.07894 0.79773 0.0
Mg269 Mg 0.676 0.05101 0.81591 0.0
C270 C 0.69543 0.08259 0.77672 0.0
C271 C 0.63252 0.02643 0.70563 0.0
O272 O 0.61768 0.02231 0.71966 0.0
O273 O 0.67675 0.01088 0.75415 0.0
O274 O 0.69105 0.02444 0.79263 0.0
O275 O 0.63191 0.05938 0.7604 0.0
O276 O 0.64903 0.04582 0.78787 0.0
C277 C 0.69039 0.01154 0.77171 0.0
C278 C 0.63829 0.061 0.78255 0.0
O279 O 0.65217 0.02928 0.71364 0.0
Mg280 Mg 0.78577 0.68306 0.99584 0.0
O281 O 0.78899 0.71099 0.03205 0.0
O282 O 0.8219 0.73775 0.03875 0.0
Mg283 Mg 0.84096 0.7259 0.0083 0.0
C284 C 0.80341 0.72976 0.04515 0.0
C285 C 0.7408 0.64876 1.00141 0.0
O286 O 0.75479 0.63651 1.00677 0.0
O287 O 0.78427 0.71165 0.97177 0.0
O288 O 0.81944 0.73267 0.97768 0.0
O289 O 0.80016 0.65793 0.0147 0.0
O290 O 0.8199 0.68735 1.00034 0.0
C291 C 0.80021 0.72738 0.96651 0.0
C292 C 0.81918 0.66975 0.01136 0.0
O293 O 0.74804 0.6695 0.99559 0.0
Mg294 Mg 0.96498 0.56641 0.79678 0.0
O295 O 0.94437 0.52551 0.78091 0.0
O296 O 0.92567 0.51562 0.81035 0.0
Mg297 Mg 0.93241 0.54827 0.84199 0.0
C298 C 0.93086 0.51016 0.78955 0.0
C299 C 0.96943 0.56216 0.74121 0.0
O300 O 0.97347 0.57338 0.72373 0.0
O301 O 0.93542 0.57868 0.79082 0.0
O302 O 0.91439 0.56692 0.81743 0.0
O303 O 0.99191 0.55351 0.81101 0.0
O304 O 0.9639 0.55913 0.8295 0.0
C305 C 0.91795 0.57689 0.79975 0.0
C306 C 0.9812 0.55144 0.8288 0.0
O307 O 0.97245 0.57546 0.76212 0.0
Mg308 Mg 0.821 0.44038 0.52401 0.0
O309 O 0.82047 0.41664 0.48589 0.0
O310 O 0.85279 0.40773 0.48391 0.0
Mg311 Mg 0.86571 0.41051 0.52178 0.0
C312 C 0.83429 0.40829 0.47421 0.0
C313 C 0.78409 0.46314 0.51096 0.0
O314 O 0.80065 0.47995 0.50704 0.0
O315 O 0.8075 0.40683 0.53971 0.0
O316 O 0.83039 0.392 0.52044 0.0
O317 O 0.84357 0.47253 0.51444 0.0
O318 O 0.8546 0.44492 0.53095 0.0
C319 C 0.82022 0.39288 0.53815 0.0
C320 C 0.8593 0.46397 0.52172 0.0
O321 O 0.78708 0.44335 0.51588 0.0
Mg322 Mg 0.66476 0.51376 0.27921 0.0
O323 O 0.68961 0.55473 0.28186 0.0
O324 O 0.71563 0.56193 0.3123 0.0
Mg325 Mg 0.70479 0.52961 0.33313 0.0
C326 C 0.70743 0.5688 0.29462 0.0
C327 C 0.64182 0.50083 0.21748 0.0
O328 O 0.64383 0.47797 0.21486 0.0
O329 O 0.68989 0.48455 0.27157 0.0
O330 O 0.7108 0.49475 0.30683 0.0
O331 O 0.64144 0.52893 0.30532 0.0
O332 O 0.66846 0.51802 0.3199 0.0
C333 C 0.70474 0.48021 0.28597 0.0
C334 C 0.65175 0.52624 0.32427 0.0
O335 O 0.64865 0.51591 0.23829 0.0
La336 La 0.03686 0.02977 1.00061 0.0
La337 La 0.0764 0.06364 0.03261 0.0
C338 C 0.99756 1.00886 0.98475 0.0
C339 C 0.97824 0.01784 0.98823 0.0
C340 C 0.96167 0.01283 0.96903 0.0
C341 C 0.94465 0.02415 0.9712 0.0
C342 C 0.94397 0.04063 0.99265 0.0
C343 C 0.96048 0.04524 0.01196 0.0
C344 C 0.97755 0.03414 0.0097 0.0
C345 C 0.0697 0.03261 0.97342 0.0
C346 C 0.04741 0.08933 1.00576 0.0
C347 C 0.11582 0.08342 0.0479 0.0
C348 C 0.13369 0.07181 0.04457 0.0
C349 C 0.15027 0.07595 0.06355 0.0
C350 C 0.16516 0.06156 0.06194 0.0
C351 C 0.16359 0.04294 0.04128 0.0
C352 C 0.14711 0.03901 0.02222 0.0
C353 C 0.13218 0.05322 0.02391 0.0
C354 C 0.04369 0.06072 0.05984 0.0
C355 C 0.06596 1.00448 0.02841 0.0
O356 O 0.01092 0.02153 0.97308 0.0
O357 O 1.00772 1.00455 1.00347 0.0
O358 O 0.05012 0.01836 0.96737 0.0
O359 O 0.07062 0.04337 0.99551 0.0
O360 O 0.03282 0.06725 0.99978 0.0
O361 O 0.06664 0.09225 0.01784 0.0
O362 O 0.10208 0.07301 0.06061 0.0
O363 O 0.10602 0.0873 0.02873 0.0
O364 O 0.06317 0.0753 0.06573 0.0
O365 O 0.0426 0.04993 0.03773 0.0
O366 O 0.08024 0.02666 0.03483 0.0
O367 O 0.04703 1.00112 0.01541 0.0
H368 H 0.96225 1.00076 0.95216 0.0
H369 H 0.93235 0.02049 0.9559 0.0
H370 H 0.96028 0.0575 0.02885 0.0
H371 H 0.99045 0.03872 0.02459 0.0
H372 H 0.15128 0.08975 0.07985 0.0
H373 H 0.17786 0.06494 0.07678 0.0
H374 H 0.14548 0.02455 1.00625 0.0
H375 H 0.11904 0.04911 0.00936 0.0
La376 La 0.31937 0.78405 0.24739 0.0
La377 La 0.30192 0.79847 0.29085 0.0
C378 C 0.33902 0.78246 0.21181 0.0
C379 C 0.34632 0.80145 0.1986 0.0
C380 C 0.36642 0.80407 0.1903 0.0
C381 C 0.37416 0.82339 0.17912 0.0
C382 C 0.36184 0.84025 0.17627 0.0
C383 C 0.34212 0.83807 0.18557 0.0
C384 C 0.33445 0.81885 0.19667 0.0
C385 C 0.33989 0.77684 0.28617 0.0
C386 C 0.32748 0.84092 0.27165 0.0
C387 C 0.29593 0.79977 0.33298 0.0
C388 C 0.27996 0.78263 0.34276 0.0
C389 C 0.26589 0.7917 0.35715 0.0
C390 C 0.25294 0.77607 0.36914 0.0
C391 C 0.25453 0.75145 0.36747 0.0
C392 C 0.26666 0.7417 0.35072 0.0
C393 C 0.27916 0.75711 0.33842 0.0
C394 C 0.27237 0.80079 0.25683 0.0
C395 C 0.2843 0.74365 0.25859 0.0
O396 O 0.34879 0.78848 0.23369 0.0
O397 O 0.31797 0.77343 0.21028 0.0
O398 O 0.33323 0.76031 0.26632 0.0
O399 O 0.33356 0.79586 0.28419 0.0
O400 O 0.32435 0.82421 0.25137 0.0
O401 O 0.32235 0.83457 0.2914 0.0
O402 O 0.28833 0.81338 0.32037 0.0
O403 O 0.31061 0.79027 0.32325 0.0
O404 O 0.2718 0.80623 0.27945 0.0
O405 O 0.28989 0.79454 0.25326 0.0
O406 O 0.28794 0.75818 0.28017 0.0
O407 O 0.29339 0.75065 0.24083 0.0
H408 H 0.37605 0.79116 0.19239 0.0
H409 H 0.38942 0.82475 0.17213 0.0
H410 H 0.332 0.85042 0.18322 0.0
H411 H 0.31911 0.81745 0.2035 0.0
H412 H 0.26572 0.81113 0.36007 0.0
H413 H 0.24314 0.78389 0.38126 0.0
H414 H 0.26836 0.72289 0.34873 0.0
H415 H 0.28927 0.74927 0.32671 0.0
La416 La 0.57474 0.04593 0.52036 0.0
La417 La 0.52624 0.04215 0.52441 0.0
C418 C 0.61324 0.04234 0.52756 0.0
C419 C 0.62606 0.0236 0.52366 0.0
C420 C 0.64143 0.0254 0.50777 0.0
C421 C 0.65559 1.00999 0.50599 0.0
C422 C 0.6549 0.99248 0.52022 0.0
C423 C 0.639 0.9901 0.53553 0.0
C424 C 0.62478 1.00547 0.53726 0.0
C425 C 0.55058 0.04373 0.48101 0.0
C426 C 0.54001 0.99231 0.51313 0.0
C427 C 0.48742 0.04505 0.52385 0.0
C428 C 0.47446 0.06365 0.52655 0.0
C429 C 0.46309 0.06642 0.54614 0.0
C430 C 0.44866 0.08146 0.54785 0.0
C431 C 0.445 0.09397 0.52986 0.0
C432 C 0.45706 0.09198 0.51067 0.0
C433 C 0.47163 0.07701 0.50904 0.0
C434 C 0.55179 0.04425 0.56284 0.0
C435 C 0.56001 0.0955 0.52876 0.0
O436 O 0.60535 0.04874 0.50883 0.0
O437 O 0.59958 0.0404 0.54304 0.0
O438 O 0.5714 0.05363 0.48504 0.0
O439 O 0.54474 0.03268 0.49699 0.0
O440 O 0.5606 1.00585 0.51875 0.0
O441 O 0.52366 1.00262 0.51098 0.0
O442 O 0.49981 0.04474 0.5429 0.0
O443 O 0.49675 0.04133 0.50473 0.0
O444 O 0.53195 0.03047 0.55761 0.0
O445 O 0.55631 0.05623 0.54727 0.0
O446 O 0.53958 0.08142 0.52324 0.0
O447 O 0.57666 0.08571 0.53157 0.0
H448 H 0.643 0.03936 0.49726 0.0
H449 H 0.66776 0.01262 0.49423 0.0
H450 H 0.63779 0.97664 0.54655 0.0
H451 H 0.61322 1.00357 0.54977 0.0
H452 H 0.4649 0.05636 0.55991 0.0
H453 H 0.44006 0.0829 0.56313 0.0
H454 H 0.45461 0.10116 0.49638 0.0
H455 H 0.48017 0.07537 0.49374 0.0
La456 La 0.2847 0.2944 0.77199 0.0
La457 La 0.32808 0.28376 0.77431 0.0
C458 C 0.2446 0.28756 0.77477 0.0
C459 C 0.22994 0.2946 0.79191 0.0
C460 C 0.22174 0.31548 0.79196 0.0
C461 C 0.20592 0.32003 0.80629 0.0
C462 C 0.19781 0.30369 0.82078 0.0
C463 C 0.20656 0.28326 0.82114 0.0
C464 C 0.22233 0.27879 0.80695 0.0
C465 C 0.31467 0.33828 0.77392 0.0
C466 C 0.3134 0.30476 0.82258 0.0
C467 C 0.36609 0.27988 0.76924 0.0
C468 C 0.38206 0.28081 0.75201 0.0
C469 C 0.38674 0.25864 0.74081 0.0
C470 C 0.40371 0.25928 0.72705 0.0
C471 C 0.41669 0.28215 0.72429 0.0
C472 C 0.4115 0.30429 0.73484 0.0
C473 C 0.39444 0.30364 0.74853 0.0
C474 C 0.29572 0.2461 0.78094 0.0
C475 C 0.30145 0.27937 0.72348 0.0
O476 O 0.25559 0.3046 0.76493 0.0
O477 O 0.25623 0.27303 0.78048 0.0
O478 O 0.29392 0.33503 0.77369 0.0
O479 O 0.3179 0.3169 0.77398 0.0
O480 O 0.29386 0.30012 0.8104 0.0
O481 O 0.33042 0.30253 0.81179 0.0
O482 O 0.34872 0.26101 0.764 0.0
O483 O 0.36175 0.30069 0.77921 0.0
O484 O 0.31532 0.25386 0.79242 0.0
O485 O 0.29481 0.25986 0.766 0.0
O486 O 0.32005 0.28034 0.73597 0.0
O487 O 0.28445 0.28282 0.73367 0.0
H488 H 0.22712 0.32795 0.78047 0.0
H489 H 0.19975 0.33609 0.80567 0.0
H490 H 0.2005 0.26991 0.83157 0.0
H491 H 0.22799 0.26231 0.80716 0.0
H492 H 0.37763 0.24075 0.74324 0.0
H493 H 0.40685 0.24178 0.7189 0.0
H494 H 0.42118 0.32232 0.7334 0.0
H495 H 0.39146 0.32112 0.75702 0.0
La496 La 0.04676 0.06433 0.53016 0.0
La497 La 0.05337 0.01912 0.50474 0.0
C498 C 0.04572 0.10888 0.54296 0.0
C499 C 0.04594 0.12673 0.52803 0.0
C500 C 0.03555 0.14575 0.53349 0.0
C501 C 0.03567 0.16236 0.51866 0.0
C502 C 0.04597 0.15977 0.4982 0.0
C503 C 0.0557 0.14016 0.49245 0.0
C504 C 0.05578 0.12385 0.50731 0.0
C505 C 0.01593 0.02475 0.5326 0.0
C506 C 0.03163 0.04717 0.47215 0.0
C507 C 0.0542 0.97438 0.49202 0.0
C508 C 0.0535 0.95552 0.50601 0.0
C509 C 0.06241 0.93551 0.49865 0.0
C510 C 0.06156 0.9175 0.51206 0.0
C511 C 0.0522 0.91977 0.53311 0.0
C512 C 0.04381 0.94014 0.54079 0.0
C513 C 0.04429 0.95782 0.52721 0.0
C514 C 0.08433 0.05888 0.50226 0.0
C515 C 0.06842 0.03619 0.56244 0.0
O516 O 0.02833 0.0901 0.53824 0.0
O517 O 0.06353 0.10168 0.54509 0.0
O518 O 0.02442 0.04388 0.55016 0.0
O519 O 0.02457 0.02849 0.51443 0.0
O520 O 0.03644 0.06534 0.49203 0.0
O521 O 0.03584 0.0256 0.47306 0.0
O522 O 0.07167 0.99309 0.49753 0.0
O523 O 0.0365 0.98179 0.4898 0.0
O524 O 0.0761 0.03945 0.48493 0.0
O525 O 0.07562 0.05509 0.52038 0.0
O526 O 0.06232 0.01761 0.54295 0.0
O527 O 0.06549 0.05823 0.5612 0.0
H528 H 0.02762 0.14789 0.54924 0.0
H529 H 0.02808 0.17744 0.52333 0.0
H530 H 0.0641 0.13808 0.47703 0.0
H531 H 0.06389 0.10923 0.50276 0.0
H532 H 0.0697 0.93363 0.48243 0.0
H533 H 0.06787 0.90163 0.50588 0.0
H534 H 0.03617 0.94182 0.5568 0.0
H535 H 0.03711 0.97302 0.53307 0.0
La536 La 0.32158 0.80797 0.76554 0.0
La537 La 0.28301 0.77102 0.77175 0.0
C538 C 0.35866 0.83787 0.77432 0.0
C539 C 0.38062 0.83538 0.77992 0.0
C540 C 0.38934 0.81943 0.76407 0.0
C541 C 0.40978 0.81636 0.77063 0.0
C542 C 0.42147 0.82887 0.79317 0.0
C543 C 0.4127 0.84464 0.80902 0.0
C544 C 0.39247 0.84801 0.80237 0.0
C545 C 0.29827 0.77958 0.72587 0.0
C546 C 0.32623 0.75206 0.77143 0.0
C547 C 0.24599 0.74121 0.76272 0.0
C548 C 0.2241 0.7445 0.76066 0.0
C549 C 0.21728 0.7597 0.77918 0.0
C550 C 0.19731 0.76499 0.77554 0.0
C551 C 0.18429 0.7555 0.75328 0.0
C552 C 0.19091 0.73992 0.735 0.0
C553 C 0.21065 0.73433 0.73873 0.0
C554 C 0.30565 0.79927 0.81159 0.0
C555 C 0.27878 0.82771 0.76704 0.0
O556 O 0.34851 0.82752 0.75262 0.0
O557 O 0.3462 0.83372 0.79059 0.0
O558 O 0.30806 0.80307 0.72829 0.0
O559 O 0.30286 0.77305 0.74473 0.0
O560 O 0.33605 0.77574 0.77062 0.0
O561 O 0.30476 0.74566 0.77103 0.0
O562 O 0.25743 0.74845 0.78402 0.0
O563 O 0.25717 0.74831 0.74627 0.0
O564 O 0.29552 0.77588 0.80916 0.0
O565 O 0.30166 0.80575 0.79254 0.0
O566 O 0.26901 0.80433 0.76897 0.0
O567 O 0.29999 0.83349 0.76563 0.0
H568 H 0.38038 0.80919 0.74677 0.0
H569 H 0.41639 0.80409 0.75823 0.0
H570 H 0.42166 0.85466 0.8264 0.0
H571 H 0.38593 0.86025 0.81488 0.0
H572 H 0.22754 0.76799 0.79619 0.0
H573 H 0.19229 0.77698 0.7898 0.0
H574 H 0.18083 0.73215 0.71781 0.0
H575 H 0.21574 0.72271 0.72423 0.0
La576 La 0.56185 0.04005 0.0531 0.0
La577 La 0.55699 0.05405 0.00736 0.0
C578 C 0.55554 0.0279 0.09154 0.0
C579 C 0.53697 1.00953 0.09654 0.0
C580 C 0.5383 0.98517 0.09663 0.0
C581 C 0.52078 0.96769 0.10142 0.0
C582 C 0.50175 0.97441 0.10671 0.0
C583 C 0.49993 0.99826 0.10476 0.0
C584 C 0.51736 0.01563 0.09988 0.0
C585 C 0.56975 1.00875 0.01713 0.0
C586 C 0.51576 0.02573 0.02162 0.0
C587 C 0.56036 0.0628 0.96695 0.0
C588 C 0.57428 0.08209 0.95762 0.0
C589 C 0.56467 0.09403 0.94243 0.0
C590 C 0.57749 0.10876 0.9297 0.0
C591 C 0.59991 0.1113 0.93193 0.0
C592 C 0.60979 0.10198 0.94938 0.0
C593 C 0.597 0.08729 0.96211 0.0
C594 C 0.5485 0.08498 0.04309 0.0
C595 C 0.60332 0.0707 0.0404 0.0
O596 O 0.56754 0.01852 0.07715 0.0
O597 O 0.55176 0.04815 0.0866 0.0
O598 O 0.58025 0.0146 0.03839 0.0
O599 O 0.55465 0.01926 0.01653 0.0
O600 O 0.52676 0.03225 0.04326 0.0
O601 O 0.52565 0.02744 1.00286 0.0
O602 O 0.54677 0.07016 0.98035 0.0
O603 O 0.56976 0.04768 0.97545 0.0
O604 O 0.53896 0.08025 0.02152 0.0
O605 O 0.56375 0.07475 0.04378 0.0
O606 O 0.59229 0.06594 0.01875 0.0
O607 O 0.59366 0.06556 0.05861 0.0
H608 H 0.55308 0.97976 0.09351 0.0
H609 H 0.52262 0.94941 0.10237 0.0
H610 H 0.48568 1.0044 0.10881 0.0
H611 H 0.5156 0.03407 0.09941 0.0
H612 H 0.54716 0.09042 0.93903 0.0
H613 H 0.56959 0.11551 0.91604 0.0
H614 H 0.62706 0.1035 0.95104 0.0
H615 H 0.60478 0.07843 0.97392 0.0
La616 La 0.3215 0.32701 0.28594 0.0
La617 La 0.29323 0.26982 0.26512 0.0
C618 C 0.33732 0.37287 0.28932 0.0
C619 C 0.32637 0.3927 0.28949 0.0
C620 C 0.3365 0.41711 0.30265 0.0
C621 C 0.325 0.4353 0.30498 0.0
C622 C 0.30319 0.42894 0.29459 0.0
C623 C 0.29315 0.40457 0.28141 0.0
C624 C 0.3047 0.38664 0.2787 0.0
C625 C 0.31565 0.30182 0.32054 0.0
C626 C 0.26949 0.31037 0.283 0.0
C627 C 0.27896 0.22344 0.25888 0.0
C628 C 0.29135 0.20474 0.2544 0.0
C629 C 0.28309 0.18282 0.23647 0.0
C630 C 0.29568 0.16601 0.23102 0.0
C631 C 0.31677 0.17114 0.24328 0.0
C632 C 0.32509 0.19335 0.26092 0.0
C633 C 0.31251 0.20992 0.26647 0.0
C634 C 0.29949 0.29573 0.23098 0.0
C635 C 0.3448 0.2858 0.2677 0.0
O636 O 0.33535 0.36283 0.3077 0.0
O637 O 0.33392 0.35598 0.26926 0.0
O638 O 0.32689 0.32481 0.32348 0.0
O639 O 0.30938 0.29408 0.29829 0.0
O640 O 0.28766 0.32841 0.28476 0.0
O641 O 0.26817 0.28618 0.2772 0.0
O642 O 0.27729 0.2352 0.24188 0.0
O643 O 0.2839 0.23875 0.27991 0.0
O644 O 0.2889 0.27248 0.22749 0.0
O645 O 0.30519 0.3029 0.25324 0.0
O646 O 0.32657 0.26806 0.26577 0.0
O647 O 0.34678 0.31007 0.27459 0.0
H648 H 0.3531 0.42194 0.31143 0.0
H649 H 0.33291 0.4541 0.31522 0.0
H650 H 0.27635 0.39945 0.27311 0.0
H651 H 0.29655 0.36794 0.2685 0.0
H652 H 0.26697 0.17878 0.22665 0.0
H653 H 0.28893 0.149 0.21735 0.0
H654 H 0.3411 0.1976 0.27107 0.0
H655 H 0.3194 0.22675 0.2803 0.0
La656 La 0.54753 0.56307 0.03027 0.0
La657 La 0.55286 0.51691 1.00542 0.0
C658 C 0.5476 0.60801 0.04272 0.0
C659 C 0.55123 0.6269 0.02857 0.0
C660 C 0.53516 0.63907 0.02444 0.0
C661 C 0.53726 0.65455 0.0084 0.0
C662 C 0.55552 0.65809 0.99645 0.0
C663 C 0.57168 0.64613 1.0009 0.0
C664 C 0.5695 0.63056 0.01666 0.0
C665 C 0.51581 0.52466 0.0337 0.0
C666 C 0.53225 0.54552 0.97263 0.0
C667 C 0.55404 0.47226 0.99374 0.0
C668 C 0.55358 0.45432 0.00882 0.0
C669 C 0.56762 0.43881 1.00655 0.0
C670 C 0.56856 0.4233 0.02231 0.0
C671 C 0.55542 0.42311 0.04052 0.0
C672 C 0.54148 0.43884 0.04277 0.0
C673 C 0.54067 0.4544 0.02718 0.0
C674 C 0.58428 0.5559 1.00205 0.0
C675 C 0.56796 0.53423 0.06276 0.0
O676 O 0.52983 0.58992 0.0352 0.0
O677 O 0.56431 0.59969 0.04795 0.0
O678 O 0.52441 0.54437 0.05057 0.0
O679 O 0.52456 0.52736 0.01537 0.0
O680 O 0.53919 0.56446 0.99186 0.0
O681 O 0.53431 0.52319 0.9743 0.0
O682 O 0.57141 0.49108 0.99876 0.0
O683 O 0.53628 0.47939 0.99063 0.0
O684 O 0.57556 0.53642 0.98495 0.0
O685 O 0.57579 0.55262 0.02039 0.0
O686 O 0.56055 0.51529 0.04375 0.0
O687 O 0.56655 0.55671 0.06102 0.0
H688 H 0.52076 0.63605 0.03311 0.0
H689 H 0.5245 0.66346 1.00512 0.0
H690 H 0.58614 0.64892 0.99232 0.0
H691 H 0.58201 0.62107 0.01913 0.0
H692 H 0.57804 0.43896 0.99281 0.0
H693 H 0.57962 0.41156 0.02032 0.0
H694 H 0.53085 0.43884 0.05631 0.0
H695 H 0.53002 0.46662 0.02963 0.0
La696 La 0.82066 0.30731 0.26362 0.0
La697 La 0.78203 0.27184 0.27243 0.0
C698 C 0.85814 0.33628 0.26919 0.0
C699 C 0.88003 0.33486 0.27744 0.0
C700 C 0.89673 0.34063 0.26379 0.0
C701 C 0.9176 0.33938 0.27145 0.0
C702 C 0.92205 0.33269 0.29304 0.0
C703 C 0.90536 0.32695 0.30673 0.0
C704 C 0.88446 0.3278 0.2989 0.0
C705 C 0.79492 0.2789 0.22499 0.0
C706 C 0.82483 0.25209 0.27192 0.0
C707 C 0.74498 0.242 0.2664 0.0
C708 C 0.72329 0.24219 0.25639 0.0
C709 C 0.70531 0.23253 0.26698 0.0
C710 C 0.68452 0.23227 0.25734 0.0
C711 C 0.68155 0.24136 0.23681 0.0
C712 C 0.69959 0.2512 0.22632 0.0
C713 C 0.72037 0.25181 0.23616 0.0
C714 C 0.80762 0.29921 0.31126 0.0
C715 C 0.77844 0.32799 0.26584 0.0
O716 O 0.8485 0.32143 0.24869 0.0
O717 O 0.84501 0.33692 0.28523 0.0
O718 O 0.80522 0.30217 0.22692 0.0
O719 O 0.80013 0.27278 0.24387 0.0
O720 O 0.83465 0.27511 0.2694 0.0
O721 O 0.80362 0.24641 0.27336 0.0
O722 O 0.75356 0.25824 0.2865 0.0
O723 O 0.75883 0.24086 0.25118 0.0
O724 O 0.79663 0.27612 0.30884 0.0
O725 O 0.80283 0.30599 0.29257 0.0
O726 O 0.76828 0.30451 0.26701 0.0
O727 O 0.79971 0.33356 0.26479 0.0
H728 H 0.89361 0.34604 0.24718 0.0
H729 H 0.93032 0.34385 0.26065 0.0
H730 H 0.90843 0.32138 0.32327 0.0
H731 H 0.87181 0.32283 0.30961 0.0
H732 H 0.70736 0.22521 0.28269 0.0
H733 H 0.67075 0.22484 0.26577 0.0
H734 H 0.69762 0.25881 0.21079 0.0
H735 H 0.73411 0.25975 0.22792 0.0
La736 La 0.06248 0.53613 0.54995 0.0
La737 La 0.06035 0.54933 0.50029 0.0
C738 C 0.05578 0.52115 0.58724 0.0
C739 C 0.03702 0.50726 0.59602 0.0
C740 C 0.04039 0.49309 0.6125 0.0
C741 C 0.02296 0.48103 0.62238 0.0
C742 C 1.00202 0.48318 0.6159 0.0
C743 C 0.99835 0.49485 0.59725 0.0
C744 C 0.01581 0.50709 0.58754 0.0
C745 C 0.07483 0.50793 0.51501 0.0
C746 C 0.01734 0.52472 0.51621 0.0
C747 C 0.06678 0.54737 0.45814 0.0
C748 C 0.07962 0.56409 0.44546 0.0
C749 C 0.08213 0.59002 0.4513 0.0
C750 C 0.09505 0.60541 0.43901 0.0
C751 C 0.10589 0.59501 0.42124 0.0
C752 C 0.10368 0.5691 0.41606 0.0
C753 C 0.0906 0.55381 0.428 0.0
C754 C 0.05424 0.586 0.53263 0.0
C755 C 0.10344 0.57059 0.53934 0.0
O756 O 0.06126 0.50816 0.56863 0.0
O757 O 0.05638 0.54404 0.58541 0.0
O758 O 0.08461 0.51457 0.53668 0.0
O759 O 0.05879 0.51684 0.51349 0.0
O760 O 0.02792 0.52903 0.53796 0.0
O761 O 0.02717 0.52738 0.49745 0.0
O762 O 0.04994 0.55355 0.46642 0.0
O763 O 0.07838 0.53972 0.47339 0.0
O764 O 0.05445 0.58635 0.51032 0.0
O765 O 0.05813 0.56602 0.53539 0.0
O766 O 0.09438 0.56439 0.51663 0.0
O767 O 0.09294 0.56438 0.5568 0.0
H768 H 0.05666 0.49246 0.61864 0.0
H769 H 0.02622 0.47243 0.63691 0.0
H770 H 0.98233 0.49693 0.59217 0.0
H771 H 0.01282 0.51747 0.57445 0.0
H772 H 0.07401 0.59829 0.46513 0.0
H773 H 0.09635 0.62526 0.44311 0.0
H774 H 0.11139 0.5604 0.40206 0.0
H775 H 0.08896 0.53386 0.4235 0.0
La776 La 0.78491 0.79395 0.2713 0.0
La777 La 0.82831 0.78335 0.274 0.0
C778 C 0.74467 0.78703 0.27332 0.0
C779 C 0.72996 0.79199 0.2911 0.0
C780 C 0.72043 0.812 0.2921 0.0
C781 C 0.70442 0.81462 0.30673 0.0
C782 C 0.69743 0.79708 0.32039 0.0
C783 C 0.70758 0.77771 0.32011 0.0
C784 C 0.72362 0.77519 0.30568 0.0
C785 C 0.81492 0.83782 0.27319 0.0
C786 C 0.81325 0.80422 0.32186 0.0
C787 C 0.86632 0.77885 0.27007 0.0
C788 C 0.88291 0.77907 0.25376 0.0
C789 C 0.89638 0.76303 0.2546 0.0
C790 C 0.91344 0.76384 0.24104 0.0
C791 C 0.91754 0.78074 0.22615 0.0
C792 C 0.90358 0.79638 0.2248 0.0
C793 C 0.88644 0.79556 0.23847 0.0
C794 C 0.79573 0.74597 0.28075 0.0
C795 C 0.80214 0.77935 0.22295 0.0
O796 O 0.75641 0.8059 0.26632 0.0
O797 O 0.75561 0.77094 0.27629 0.0
O798 O 0.79417 0.83456 0.27285 0.0
O799 O 0.81816 0.81645 0.27338 0.0
O800 O 0.79361 0.79871 0.30968 0.0
O801 O 0.83045 0.80285 0.31115 0.0
O802 O 0.84882 0.76017 0.26444 0.0
O803 O 0.86202 0.79998 0.27898 0.0
O804 O 0.81518 0.75387 0.29257 0.0
O805 O 0.79508 0.75948 0.26556 0.0
O806 O 0.82064 0.78029 0.23568 0.0
O807 O 0.78507 0.78282 0.23302 0.0
H808 H 0.72479 0.82513 0.28095 0.0
H809 H 0.69677 0.82963 0.30646 0.0
H810 H 0.70266 0.76405 0.3306 0.0
H811 H 0.73049 0.75949 0.30537 0.0
H812 H 0.89403 0.75021 0.26631 0.0
H813 H 0.92391 0.75176 0.24293 0.0
H814 H 0.90597 0.80938 0.2133 0.0
H815 H 0.8762 0.80805 0.23738 0.0
La816 La 0.8158 0.28473 0.74448 0.0
La817 La 0.80027 0.3074 0.78998 0.0
C818 C 0.82102 0.27519 0.70182 0.0
C819 C 0.83209 0.29329 0.68905 0.0
C820 C 0.85224 0.29216 0.68186 0.0
C821 C 0.86411 0.31122 0.67251 0.0
C822 C 0.8559 0.33158 0.67018 0.0
C823 C 0.83582 0.33267 0.67762 0.0
C824 C 0.8241 0.31383 0.68699 0.0
C825 C 0.84367 0.28624 0.78255 0.0
C826 C 0.83342 0.34257 0.76801 0.0
C827 C 0.78789 0.31424 0.8299 0.0
C828 C 0.78105 0.29604 0.84429 0.0
C829 C 0.76228 0.29553 0.85507 0.0
C830 C 0.75477 0.27705 0.86731 0.0
C831 C 0.76601 0.2589 0.86898 0.0
C832 C 0.78447 0.2591 0.85752 0.0
C833 C 0.79184 0.27741 0.84519 0.0
C834 C 0.77933 0.31173 0.75014 0.0
C835 C 0.78727 0.24804 0.76804 0.0
O836 O 0.8336 0.27103 0.71868 0.0
O837 O 0.80272 0.27826 0.70864 0.0
O838 O 0.84568 0.27755 0.7607 0.0
O839 O 0.8265 0.29323 0.78171 0.0
O840 O 0.82841 0.32469 0.74828 0.0
O841 O 0.82628 0.33923 0.78818 0.0
O842 O 0.77492 0.31015 0.80994 0.0
O843 O 0.80847 0.31956 0.82708 0.0
O844 O 0.78496 0.32874 0.76988 0.0
O845 O 0.78561 0.29284 0.75331 0.0
O846 O 0.78851 0.26687 0.78632 0.0
O847 O 0.79557 0.25054 0.74853 0.0
H848 H 0.85891 0.27673 0.68379 0.0
H849 H 0.87949 0.30988 0.66679 0.0
H850 H 0.82864 0.34765 0.67541 0.0
H851 H 0.80881 0.31558 0.69275 0.0
H852 H 0.75341 0.30936 0.85393 0.0
H853 H 0.7404 0.27718 0.87581 0.0
H854 H 0.79375 0.24569 0.85882 0.0
H855 H 0.80606 0.27701 0.83644 0.0
La856 La 0.82269 0.8258 0.78889 0.0
La857 La 0.80013 0.77122 0.76545 0.0
C858 C 0.8358 0.87241 0.80294 0.0
C859 C 0.82718 0.89211 0.79669 0.0
C860 C 0.82985 0.91449 0.81354 0.0
C861 C 0.81904 0.93184 0.80859 0.0
C862 C 0.80555 0.92685 0.78673 0.0
C863 C 0.8035 0.90473 0.76965 0.0
C864 C 0.81417 0.88742 0.77466 0.0
C865 C 0.8192 0.79455 0.81786 0.0
C866 C 0.77149 0.80749 0.77698 0.0
C867 C 0.78671 0.72468 0.75948 0.0
C868 C 0.79606 0.70439 0.74945 0.0
C869 C 0.78376 0.67951 0.74547 0.0
C870 C 0.79403 0.66023 0.7418 0.0
C871 C 0.8166 0.66585 0.74211 0.0
C872 C 0.82854 0.69051 0.74387 0.0
C873 C 0.81827 0.70966 0.74728 0.0
C874 C 0.80733 0.79661 0.73117 0.0
C875 C 0.8505 0.79132 0.76991 0.0
O876 O 0.82322 0.85817 0.81414 0.0
O877 O 0.84326 0.85949 0.78577 0.0
O878 O 0.8359 0.81307 0.81881 0.0
O879 O 0.80515 0.79416 0.80097 0.0
O880 O 0.78905 0.82638 0.77959 0.0
O881 O 0.77235 0.78406 0.77367 0.0
O882 O 0.7802 0.73695 0.74465 0.0
O883 O 0.798 0.73958 0.77925 0.0
O884 O 0.79895 0.77279 0.72755 0.0
O885 O 0.81192 0.80475 0.7535 0.0
O886 O 0.83419 0.77246 0.77069 0.0
O887 O 0.84904 0.81445 0.7735 0.0
H888 H 0.83963 0.91809 0.83076 0.0
H889 H 0.8207 0.9488 0.82202 0.0
H890 H 0.79277 0.90023 0.75292 0.0
H891 H 0.81161 0.86994 0.76172 0.0
H892 H 0.76659 0.67514 0.74693 0.0
H893 H 0.7847 0.64125 0.74072 0.0
H894 H 0.84606 0.69516 0.74458 0.0
H895 H 0.82804 0.72865 0.74996 0.0
La896 La 0.53579 0.5303 0.50156 0.0
La897 La 0.57696 0.56288 0.53332 0.0
C898 C 0.49591 0.5105 0.48759 0.0
C899 C 0.47729 0.5209 0.4908 0.0
C900 C 0.4571 0.50878 0.47686 0.0
C901 C 0.4398 0.51969 0.47883 0.0
C902 C 0.44258 0.54295 0.49464 0.0
C903 C 0.46291 0.55506 0.50849 0.0
C904 C 0.48011 0.54411 0.50658 0.0
C905 C 0.56847 0.53311 0.47402 0.0
C906 C 0.5479 0.58991 0.50806 0.0
C907 C 0.61666 0.5821 0.54742 0.0
C908 C 0.63456 0.57016 0.54572 0.0
C909 C 0.64651 0.56893 0.56673 0.0
C910 C 0.66067 0.5537 0.56586 0.0
C911 C 0.6633 0.53966 0.5439 0.0
C912 C 0.65184 0.54158 0.52281 0.0
C913 C 0.63748 0.55652 0.52371 0.0
C914 C 0.54488 0.55988 0.56138 0.0
C915 C 0.5652 0.50341 0.52734 0.0
O916 O 0.50923 0.52107 0.47457 0.0
O917 O 0.50625 0.50761 0.50693 0.0
O918 O 0.54841 0.52034 0.46738 0.0
O919 O 0.56938 0.54297 0.49629 0.0
O920 O 0.53323 0.56807 0.50062 0.0
O921 O 0.56681 0.59253 0.52069 0.0
O922 O 0.60291 0.57366 0.56109 0.0
O923 O 0.60684 0.5844 0.52747 0.0
O924 O 0.56491 0.57285 0.5674 0.0
O925 O 0.54325 0.54988 0.53895 0.0
O926 O 0.57989 0.52532 0.53417 0.0
O927 O 0.54618 0.50076 0.5147 0.0
H928 H 0.4548 0.49106 0.46431 0.0
H929 H 0.42434 0.51011 0.46779 0.0
H930 H 0.46542 0.57285 0.52101 0.0
H931 H 0.49569 0.55386 0.51728 0.0
H932 H 0.64416 0.57892 0.58391 0.0
H933 H 0.66911 0.55246 0.58242 0.0
H934 H 0.65388 0.53145 0.50556 0.0
H935 H 0.62823 0.55676 0.50722 0.0
La936 La 0.07638 0.54649 0.02015 0.0
La937 La 0.02824 0.54389 0.02474 0.0
C938 C 0.11497 0.54316 0.02687 0.0
C939 C 0.12821 0.52485 0.02265 0.0
C940 C 0.1408 0.52444 1.00391 0.0
C941 C 0.15564 0.50986 1.00171 0.0
C942 C 0.15822 0.49539 0.01821 0.0
C943 C 0.14528 0.49514 0.03654 0.0
C944 C 0.13044 0.50974 0.03878 0.0
C945 C 0.05112 0.54243 0.98083 0.0
C946 C 0.04143 0.49342 0.01496 0.0
C947 C 0.98951 0.5472 0.02175 0.0
C948 C 0.97653 0.56581 0.02388 0.0
C949 C 0.96518 0.56944 0.04344 0.0
C950 C 0.95056 0.58427 0.0443 0.0
C951 C 0.94674 0.59567 0.0255 0.0
C952 C 0.95866 0.59275 1.00631 0.0
C953 C 0.97338 0.57802 1.00551 0.0
C954 C 0.05413 0.54787 0.06363 0.0
C955 C 0.06254 0.59659 0.02745 0.0
O956 O 0.10682 0.54965 0.00831 0.0
O957 O 0.10146 0.54086 0.04251 0.0
O958 O 0.07192 0.55232 0.98398 0.0
O959 O 0.04603 0.53249 0.9976 0.0
O960 O 0.06214 0.50665 0.01973 0.0
O961 O 0.02527 0.50401 0.01272 0.0
O962 O 1.00061 0.54584 0.0413 0.0
O963 O 1.00014 0.54445 1.00348 0.0
O964 O 0.03423 0.53415 0.05899 0.0
O965 O 0.05857 0.55856 0.04716 0.0
O966 O 0.04197 0.58289 0.02253 0.0
O967 O 0.07886 0.58641 0.0306 0.0
H968 H 0.13975 0.5361 0.99139 0.0
H969 H 0.16561 0.51049 0.98757 0.0
H970 H 0.14718 0.48429 0.0496 0.0
H971 H 0.12128 0.5098 0.05362 0.0
H972 H 0.96703 0.56007 0.05775 0.0
H973 H 0.94153 0.58589 0.05923 0.0
H974 H 0.95633 0.60153 0.99167 0.0
H975 H 0.98179 0.57563 0.99016 0.0
C976 C 0.0272 0.19621 0.94003 0.0
C977 C 0.0168 0.21261 0.95291 0.0
C978 C 0.03268 0.17689 0.94927 0.0
C979 C 0.02837 0.17421 0.97237 0.0
C980 C 0.01884 0.19152 0.98592 0.0
C981 C 0.0128 0.21009 0.97589 0.0
C982 C 0.04237 0.15873 0.93389 0.0
C983 C 0.01472 0.1902 0.01094 0.0
C984 C 0.02157 0.1095 0.98637 0.0
C985 C 0.04221 0.11142 0.99825 0.0
C986 C 0.01682 0.12977 0.97822 0.0
C987 C 0.03305 0.15278 0.98191 0.0
C988 C 0.0538 0.15498 0.99426 0.0
C989 C 0.05812 0.13441 1.0022 0.0
C990 C 0.99445 0.12638 0.96527 0.0
C991 C 0.07161 0.17905 0.9989 0.0
H992 H 0.03017 0.19775 0.92218 0.0
H993 H 1.00488 0.22269 0.98606 0.0
H994 H 0.0581 0.15839 0.94325 0.0
H995 H 0.03138 0.13957 0.93048 0.0
H996 H 0.04507 0.16348 0.9165 0.0
H997 H 0.00898 0.2062 0.01989 0.0
H998 H 1.00231 0.17261 0.01055 0.0
H999 H 0.0298 0.18995 0.02177 0.0
H1000 H 0.00906 0.092 0.9832 0.0
H1001 H 0.07415 0.13631 0.01129 0.0
H1002 H 0.99568 0.12924 0.94698 0.0
H1003 H 0.98692 0.14059 0.97453 0.0
H1004 H 0.98353 0.10753 0.96404 0.0
H1005 H 0.07628 0.18287 0.98176 0.0
H1006 H 0.08632 0.17844 0.01018 0.0
H1007 H 0.06572 0.19493 0.00782 0.0
C1008 C 0.16143 0.78711 0.17192 0.0
C1009 C 0.1582 0.8099 0.16829 0.0
C1010 C 0.18119 0.78561 0.18362 0.0
C1011 C 0.19865 0.80743 0.19221 0.0
C1012 C 0.19587 0.8304 0.18784 0.0
C1013 C 0.17581 0.83137 0.17597 0.0
C1014 C 0.18298 0.76068 0.18778 0.0
C1015 C 0.21386 0.85421 0.1966 0.0
C1016 C 0.2358 0.80788 0.24802 0.0
C1017 C 0.25428 0.80237 0.2392 0.0
C1018 C 0.2181 0.80995 0.23308 0.0
C1019 C 0.21844 0.80655 0.20822 0.0
C1020 C 0.23709 0.80109 0.19902 0.0
C1021 C 0.25474 0.799 0.21455 0.0
C1022 C 0.19878 0.81548 0.24404 0.0
C1023 C 0.23832 0.79728 0.17272 0.0
H1024 H 0.14819 0.77024 0.16606 0.0
H1025 H 0.17372 0.84911 0.17341 0.0
H1026 H 0.19807 0.75674 0.182 0.0
H1027 H 0.18393 0.76119 0.20711 0.0
H1028 H 0.16889 0.74507 0.17815 0.0
H1029 H 0.21022 0.86999 0.18986 0.0
H1030 H 0.21632 0.85939 0.21636 0.0
H1031 H 0.22936 0.8514 0.19099 0.0
H1032 H 0.23502 0.8105 0.26696 0.0
H1033 H 0.26884 0.7948 0.20743 0.0
H1034 H 0.18408 0.79977 0.23667 0.0
H1035 H 0.19553 0.83247 0.23951 0.0
H1036 H 0.20123 0.81837 0.26375 0.0
H1037 H 0.22534 0.78058 0.16282 0.0
H1038 H 0.25428 0.7947 0.1684 0.0
H1039 H 0.23548 0.81355 0.16628 0.0
C1040 C 0.50067 0.84289 0.47712 0.0
C1041 C 0.51329 0.83298 0.4611 0.0
C1042 C 0.50599 0.86859 0.48772 0.0
C1043 C 0.52436 0.88494 0.48219 0.0
C1044 C 0.53781 0.87495 0.46701 0.0
C1045 C 0.53215 0.84914 0.4567 0.0
C1046 C 0.49136 0.87841 0.50403 0.0
C1047 C 0.55756 0.8917 0.46064 0.0
C1048 C 0.52142 0.95167 0.48506 0.0
C1049 C 0.53555 0.96486 0.50597 0.0
C1050 C 0.51802 0.92578 0.47694 0.0
C1051 C 0.52837 0.91258 0.49057 0.0
C1052 C 0.54233 0.92583 0.51204 0.0
C1053 C 0.54609 0.95193 0.51924 0.0
C1054 C 0.50361 0.91261 0.45356 0.0
C1055 C 0.55315 0.91242 0.52744 0.0
H1056 H 0.48614 0.83068 0.48082 0.0
H1057 H 0.54213 0.8418 0.44447 0.0
H1058 H 0.50111 0.8908 0.5208 0.0
H1059 H 0.48272 0.88976 0.49532 0.0
H1060 H 0.47907 0.86313 0.50851 0.0
H1061 H 0.56737 0.88089 0.45033 0.0
H1062 H 0.55234 0.90388 0.44982 0.0
H1063 H 0.56805 0.9041 0.47695 0.0
H1064 H 0.51356 0.96178 0.4746 0.0
H1065 H 0.55703 0.96222 0.53544 0.0
H1066 H 0.48959 0.8982 0.4565 0.0
H1067 H 0.51279 0.90286 0.44126 0.0
H1068 H 0.49734 0.92569 0.44475 0.0
H1069 H 0.54063 0.89819 0.53294 0.0
H1070 H 0.56339 0.9254 0.54369 0.0
H1071 H 0.56347 0.9024 0.51718 0.0
C1072 C 0.51938 0.28605 0.65063 0.0
C1073 C 0.53783 0.30182 0.66591 0.0
C1074 C 0.49906 0.28019 0.65875 0.0
C1075 C 0.49695 0.29144 0.68233 0.0
C1076 C 0.51566 0.3074 0.69776 0.0
C1077 C 0.53592 0.31197 0.68949 0.0
C1078 C 0.47983 0.26237 0.6419 0.0
C1079 C 0.51414 0.32043 0.72276 0.0
C1080 C 0.44239 0.30073 0.69791 0.0
C1081 C 0.43626 0.28307 0.71165 0.0
C1082 C 0.4617 0.30311 0.68764 0.0
C1083 C 0.47523 0.28729 0.69089 0.0
C1084 C 0.46866 0.26869 0.70379 0.0
C1085 C 0.44944 0.26693 0.71414 0.0
C1086 C 0.46796 0.32312 0.67392 0.0
C1087 C 0.48226 0.25101 0.7072 0.0
H1088 H 0.52085 0.27829 0.63232 0.0
H1089 H 0.55013 0.32455 0.70116 0.0
H1090 H 0.47029 0.24889 0.65105 0.0
H1091 H 0.46894 0.273 0.63568 0.0
H1092 H 0.48489 0.25176 0.62605 0.0
H1093 H 0.53014 0.33241 0.73245 0.0
H1094 H 0.50273 0.33227 0.72214 0.0
H1095 H 0.50758 0.30647 0.73303 0.0
H1096 H 0.43219 0.31293 0.69535 0.0
H1097 H 0.44513 0.25336 0.72485 0.0
H1098 H 0.47032 0.31467 0.65567 0.0
H1099 H 0.48363 0.33654 0.68277 0.0
H1100 H 0.45551 0.33359 0.67258 0.0
H1101 H 0.48619 0.24219 0.6898 0.0
H1102 H 0.47393 0.23605 0.71562 0.0
H1103 H 0.49787 0.26154 0.71865 0.0
C1104 C 0.02771 0.80409 0.59507 0.0
C1105 C 0.00977 0.80593 0.60665 0.0
C1106 C 0.0374 0.82291 0.58396 0.0
C1107 C 0.02917 0.84408 0.58522 0.0
C1108 C 0.01169 0.84644 0.598 0.0
C1109 C 1.00198 0.82707 0.60833 0.0
C1110 C 0.05588 0.81979 0.57023 0.0
C1111 C 1.0028 0.86903 0.60015 0.0
C1112 C 0.05932 0.90297 0.56857 0.0
C1113 C 0.04858 0.89946 0.54556 0.0
C1114 C 0.05396 0.88444 0.58145 0.0
C1115 C 0.03713 0.86249 0.57111 0.0
C1116 C 0.02654 0.85886 0.54767 0.0
C1117 C 0.03257 0.87739 0.53507 0.0
C1118 C 0.06567 0.88875 0.60634 0.0
C1119 C 1.00812 0.83597 0.53634 0.0
H1120 H 0.03375 0.78769 0.59422 0.0
H1121 H 0.98835 0.82847 0.61787 0.0
H1122 H 0.05069 0.81796 0.55101 0.0
H1123 H 0.06991 0.83657 0.57622 0.0
H1124 H 0.06128 0.80305 0.57231 0.0
H1125 H 0.99044 0.86887 0.61245 0.0
H1126 H 0.01612 0.88645 0.60668 0.0
H1127 H 0.99522 0.86958 0.58236 0.0
H1128 H 0.07157 0.92034 0.57656 0.0
H1129 H 0.02413 0.87516 0.51737 0.0
H1130 H 0.07158 0.87233 0.60835 0.0
H1131 H 0.05426 0.89103 0.61944 0.0
H1132 H 0.0797 0.90566 0.61083 0.0
H1133 H 0.01327 0.81876 0.53689 0.0
H1134 H 1.00239 0.83548 0.51753 0.0
H1135 H 0.99421 0.83568 0.54652 0.0
C1136 C 0.53978 0.81391 0.8276 0.0
C1137 C 0.55211 0.83639 0.84264 0.0
C1138 C 0.51824 0.81112 0.8185 0.0
C1139 C 0.50919 0.83152 0.82452 0.0
C1140 C 0.52185 0.85452 0.8394 0.0
C1141 C 0.5433 0.8566 0.84859 0.0
C1142 C 0.50498 0.78615 0.80328 0.0
C1143 C 0.51256 0.8766 0.84606 0.0
C1144 C 0.45939 0.83278 0.78566 0.0
C1145 C 0.44334 0.82668 0.79993 0.0
C1146 C 0.48098 0.83402 0.79332 0.0
C1147 C 0.48633 0.82867 0.81555 0.0
C1148 C 0.46996 0.82125 0.82948 0.0
C1149 C 0.44856 0.82057 0.82155 0.0
C1150 C 0.49816 0.84201 0.77814 0.0
C1151 C 0.47513 0.81472 0.85298 0.0
H1152 H 0.54676 0.79818 0.82379 0.0
H1153 H 0.55297 0.87365 0.86085 0.0
H1154 H 0.49121 0.7783 0.81227 0.0
H1155 H 0.49795 0.78846 0.78595 0.0
H1156 H 0.51476 0.77243 0.79983 0.0
H1157 H 0.52489 0.89341 0.85695 0.0
H1158 H 0.50589 0.88126 0.82973 0.0
H1159 H 0.49895 0.87182 0.85633 0.0
H1160 H 0.45519 0.83765 0.76901 0.0
H1161 H 0.43593 0.81567 0.83237 0.0
H1162 H 0.50757 0.82798 0.77452 0.0
H1163 H 0.50977 0.85993 0.78789 0.0
H1164 H 0.49112 0.84451 0.76087 0.0
H1165 H 0.4844 0.80044 0.8507 0.0
H1166 H 0.46025 0.80748 0.86066 0.0
H1167 H 0.48551 0.83153 0.86596 0.0
C1168 C 0.52724 0.19762 0.1383 0.0
C1169 C 0.50803 0.20125 0.12784 0.0
C1170 C 0.53566 0.17822 0.12726 0.0
C1171 C 0.52464 0.16225 0.10529 0.0
C1172 C 0.50503 0.16546 0.09492 0.0
C1173 C 0.49696 0.18484 0.10633 0.0
C1174 C 0.55655 0.17507 0.13876 0.0
C1175 C 0.49286 0.14889 0.07138 0.0
C1176 C 0.55324 0.12971 0.05983 0.0
C1177 C 0.54593 0.10501 0.06176 0.0
C1178 C 0.54753 0.1489 0.07503 0.0
C1179 C 0.534 0.14296 0.09225 0.0
C1180 C 0.52735 0.11801 0.09482 0.0
C1181 C 0.5334 0.09921 0.07938 0.0
C1182 C 0.55473 0.1752 0.07154 0.0
C1183 C 0.51266 0.11085 0.11268 0.0
H1184 H 0.53587 0.2101 0.15493 0.0
H1185 H 0.48207 0.18733 0.09804 0.0
H1186 H 0.55404 0.15574 0.14129 0.0
H1187 H 0.56919 0.17798 0.12695 0.0
H1188 H 0.56271 0.18841 0.15626 0.0
H1189 H 0.47738 0.15326 0.06622 0.0
H1190 H 0.50313 0.15116 0.05711 0.0
H1191 H 0.48916 0.12896 0.07226 0.0
H1192 H 0.56267 0.13382 0.04578 0.0
H1193 H 0.52736 0.07986 0.08025 0.0
H1194 H 0.56168 0.18861 0.08885 0.0
H1195 H 0.54048 0.18056 0.06413 0.0
H1196 H 0.56702 0.17708 0.05918 0.0
H1197 H 0.51835 0.12414 0.13027 0.0
H1198 H 0.51174 0.09162 0.11487 0.0
H1199 H 0.49602 0.1117 0.10658 0.0
C1200 C 0.16247 0.34769 0.32084 0.0
C1201 C 0.16219 0.34625 0.34472 0.0
C1202 C 0.17972 0.34325 0.30898 0.0
C1203 C 0.19719 0.33778 0.32151 0.0
C1204 C 0.19762 0.33774 0.34597 0.0
C1205 C 0.17999 0.34184 0.35728 0.0
C1206 C 0.17868 0.343 0.28277 0.0
C1207 C 0.21629 0.3324 0.35991 0.0
C1208 C 0.23077 0.29923 0.28945 0.0
C1209 C 0.24992 0.31764 0.28965 0.0
C1210 C 0.21308 0.30564 0.29897 0.0
C1211 C 0.21466 0.33104 0.30889 0.0
C1212 C 0.23349 0.34978 0.30811 0.0
C1213 C 0.25088 0.34287 0.29828 0.0
C1214 C 0.19315 0.28512 0.29945 0.0
C1215 C 0.23562 0.37706 0.31839 0.0
H1216 H 0.14862 0.3508 0.31095 0.0
H1217 H 0.17978 0.34072 0.37574 0.0
H1218 H 0.19369 0.35562 0.27943 0.0
H1219 H 0.17764 0.32389 0.27245 0.0
H1220 H 0.16444 0.3488 0.27591 0.0
H1221 H 0.21472 0.33451 0.37912 0.0
H1222 H 0.21708 0.31303 0.35255 0.0
H1223 H 0.23191 0.34519 0.35821 0.0
H1224 H 0.2298 0.27967 0.28264 0.0
H1225 H 0.26553 0.35724 0.29828 0.0
H1226 H 0.17827 0.28944 0.29225 0.0
H1227 H 0.19174 0.28378 0.31813 0.0
H1228 H 0.19374 0.26661 0.28901 0.0
H1229 H 0.22445 0.38375 0.30714 0.0
H1230 H 0.25243 0.38866 0.31934 0.0
H1231 H 0.23107 0.37988 0.33659 0.0
C1232 C 0.99958 0.06172 0.18807 0.0
C1233 C 0.9779 0.06239 0.19084 0.0
C1234 C 1.00782 0.06001 0.16576 0.0
C1235 C 0.99455 0.05901 0.14433 0.0
C1236 C 0.97252 0.05942 0.14671 0.0
C1237 C 0.96455 0.06097 0.16947 0.0
C1238 C 0.03122 0.05956 0.16529 0.0
C1239 C 0.95731 0.05864 0.12508 0.0
C1240 C 0.02667 0.08138 0.09421 0.0
C1241 C 0.02715 0.05925 0.07796 0.0
C1242 C 0.01535 0.08151 0.11451 0.0
C1243 C 1.00427 0.05884 0.12025 0.0
C1244 C 1.00437 0.03629 0.10373 0.0
C1245 C 0.01545 0.03673 0.08306 0.0
C1246 C 0.01602 0.10631 0.13047 0.0
C1247 C 0.99359 0.01138 0.10853 0.0
H1248 H 0.01058 0.06269 0.20374 0.0
H1249 H 0.94789 0.06152 0.17051 0.0
H1250 H 0.03219 0.04309 0.15176 0.0
H1251 H 0.04039 0.07647 0.16008 0.0
H1252 H 0.0393 0.05891 0.18283 0.0
H1253 H 0.9407 0.05855 0.12918 0.0
H1254 H 0.96374 0.07511 0.11766 0.0
H1255 H 0.95632 0.04173 0.11104 0.0
H1256 H 0.03579 0.09907 0.09133 0.0
H1257 H 0.01596 0.01927 0.07164 0.0
H1258 H 0.02623 0.10883 0.14773 0.0
H1259 H 0.99946 0.10683 0.1343 0.0
H1260 H 0.02279 0.12224 0.12245 0.0
H1261 H 1.00261 1.00888 0.12472 0.0
H1262 H 0.99312 0.99558 0.09343 0.0
H1263 H 0.97676 0.01071 0.11208 0.0
C1264 C 0.30147 0.70368 0.46326 0.0
C1265 C 0.29027 0.69563 0.48109 0.0
C1266 C 0.29046 0.70914 0.44389 0.0
C1267 C 0.26778 0.70648 0.44248 0.0
C1268 C 0.25626 0.69758 0.45998 0.0
C1269 C 0.26766 0.69245 0.47919 0.0
C1270 C 0.30319 0.71839 0.42525 0.0
C1271 C 0.23205 0.69421 0.45882 0.0
C1272 C 0.25412 0.75285 0.41047 0.0
C1273 C 0.24903 0.7386 0.3869 0.0
C1274 C 0.25804 0.74189 0.42932 0.0
C1275 C 0.25692 0.71615 0.42439 0.0
C1276 C 0.24869 0.70101 0.40128 0.0
C1277 C 0.2445 0.71245 0.38273 0.0
C1278 C 0.26621 0.75853 0.45396 0.0
C1279 C 0.2467 0.67331 0.39552 0.0
H1280 H 0.31881 0.70574 0.46444 0.0
H1281 H 0.25874 0.68589 0.49274 0.0
H1282 H 0.29564 0.70687 0.40724 0.0
H1283 H 0.30286 0.73793 0.42554 0.0
H1284 H 0.32041 0.71784 0.42815 0.0
H1285 H 0.22509 0.68372 0.47187 0.0
H1286 H 0.22866 0.71278 0.46266 0.0
H1287 H 0.22354 0.68415 0.4407 0.0
H1288 H 0.25757 0.77302 0.41414 0.0
H1289 H 0.23977 0.70119 0.36467 0.0
H1290 H 0.28399 0.76122 0.45806 0.0
H1291 H 0.2584 0.74981 0.46763 0.0
H1292 H 0.26312 0.77719 0.45547 0.0
H1293 H 0.26285 0.67028 0.39278 0.0
H1294 H 0.23518 0.66351 0.37896 0.0
H1295 H 0.24127 0.66475 0.41032 0.0
C1296 C 0.63446 0.02531 0.6628 0.0
C1297 C 0.62715 0.0343 0.68399 0.0
C1298 C 0.62661 0.03043 0.64152 0.0
C1299 C 0.61156 0.04504 0.64204 0.0
C1300 C 0.60636 0.05659 0.66394 0.0
C1301 C 0.61401 0.05074 0.68472 0.0
C1302 C 0.63279 0.01841 0.61836 0.0
C1303 C 0.59098 0.07307 0.66521 0.0
C1304 C 0.58725 0.06262 0.58861 0.0
C1305 C 0.5675 0.04403 0.58242 0.0
C1306 C 0.6026 0.0625 0.60722 0.0
C1307 C 0.59758 0.0437 0.62009 0.0
C1308 C 0.57772 0.0247 0.61363 0.0
C1309 C 0.56287 0.02512 0.59476 0.0
C1310 C 0.6236 0.083 0.61359 0.0
C1311 C 0.57178 1.00445 0.6272 0.0
H1312 H 0.64511 0.01308 0.66261 0.0
H1313 H 0.60913 0.05837 0.70148 0.0
H1314 H 0.61923 1.00206 0.60896 0.0
H1315 H 0.63565 0.03163 0.60649 0.0
H1316 H 0.64758 0.01186 0.62131 0.0
H1317 H 0.59152 0.08373 0.68369 0.0
H1318 H 0.59492 0.08649 0.65368 0.0
H1319 H 0.57412 0.06131 0.65867 0.0
H1320 H 0.59067 0.07734 0.57896 0.0
H1321 H 0.54756 0.01076 0.58977 0.0
H1322 H 0.63739 0.07591 0.61937 0.0
H1323 H 0.62208 0.09784 0.62858 0.0
H1324 H 0.62748 0.09164 0.59834 0.0
H1325 H 0.58488 0.99488 0.62828 0.0
H1326 H 0.55634 0.99023 0.61883 0.0
H1327 H 0.56995 0.01289 0.64569 0.0
C1328 C 0.31573 0.36305 0.96193 0.0
C1329 C 0.32463 0.3503 0.977 0.0
C1330 C 0.31375 0.35535 0.9369 0.0
C1331 C 0.32026 0.33392 0.92641 0.0
C1332 C 0.32833 0.32031 0.94151 0.0
C1333 C 0.33073 0.32885 0.9665 0.0
C1334 C 0.30548 0.37078 0.92167 0.0
C1335 C 0.3348 0.29692 0.93124 0.0
C1336 C 0.29783 0.30372 0.86076 0.0
C1337 C 0.31568 0.3118 0.84916 0.0
C1338 C 0.29925 0.31026 0.88576 0.0
C1339 C 0.31883 0.32594 0.89973 0.0
C1340 C 0.33692 0.33423 0.8881 0.0
C1341 C 0.33523 0.32677 0.86305 0.0
C1342 C 0.27973 0.30032 0.89721 0.0
C1343 C 0.35795 0.35143 0.90211 0.0
H1344 H 0.31128 0.37986 0.96972 0.0
H1345 H 0.33767 0.31887 0.97789 0.0
H1346 H 0.31814 0.37798 0.91105 0.0
H1347 H 0.29103 0.35904 0.90889 0.0
H1348 H 0.30101 0.38688 0.93246 0.0
H1349 H 0.33922 0.28741 0.9452 0.0
H1350 H 0.32128 0.28364 0.9181 0.0
H1351 H 0.3489 0.30164 0.92163 0.0
H1352 H 0.2827 0.29193 0.85025 0.0
H1353 H 0.34906 0.33322 0.85427 0.0
H1354 H 0.27389 0.31601 0.90659 0.0
H1355 H 0.28429 0.29042 0.91074 0.0
H1356 H 0.26611 0.28725 0.88401 0.0
H1357 H 0.35494 0.36879 0.91228 0.0
H1358 H 0.37039 0.35656 0.89048 0.0
H1359 H 0.36461 0.34239 0.91524 0.0
C1360 C 0.99219 0.07718 0.34291 0.0
C1361 C 0.97029 0.06487 0.33331 0.0
C1362 C 1.00191 0.07534 0.36549 0.0
C1363 C 0.99003 0.05996 0.37923 0.0
C1364 C 0.96793 0.04725 0.36946 0.0
C1365 C 0.95836 0.05015 0.34718 0.0
C1366 C 0.02515 0.09001 0.37469 0.0
C1367 C 0.95432 0.03014 0.38247 0.0
C1368 C 0.02141 0.03495 0.42627 0.0
C1369 C 0.02129 0.05089 0.44843 0.0
C1370 C 0.01172 0.03783 0.40411 0.0
C1371 C 1.00079 0.05684 0.40328 0.0
C1372 C 1.00051 0.07293 0.42563 0.0
C1373 C 0.0108 0.07 0.44752 0.0
C1374 C 0.01332 0.02038 0.38135 0.0
C1375 C 0.98923 0.09344 0.42652 0.0
H1376 H 1.00181 0.0887 0.33278 0.0
H1377 H 0.94157 0.04025 0.34027 0.0
H1378 H 0.02612 0.10229 0.39251 0.0
H1379 H 0.03525 0.07704 0.37685 0.0
H1380 H 0.03216 0.10177 0.36261 0.0
H1381 H 0.93755 0.02144 0.37289 0.0
H1382 H 0.96204 0.01508 0.38476 0.0
H1383 H 0.95345 0.04071 0.40055 0.0
H1384 H 0.0294 0.02015 0.42614 0.0
H1385 H 0.01029 0.08259 0.46411 0.0
H1386 H 0.02157 0.0313 0.36929 0.0
H1387 H 0.9968 1.00998 0.37195 0.0
H1388 H 0.02243 1.00673 0.38457 0.0
H1389 H 0.99739 0.10704 0.41664 0.0
H1390 H 0.98924 0.10358 0.44506 0.0
H1391 H 0.97216 0.08552 0.41766 0.0
C1392 C 0.3072 0.71432 0.59999 0.0
C1393 C 0.2935 0.69065 0.5886 0.0
C1394 C 0.30368 0.72753 0.62172 0.0
C1395 C 0.28575 0.71711 0.63241 0.0
C1396 C 0.2711 0.69386 0.62056 0.0
C1397 C 0.2752 0.68077 0.59875 0.0
C1398 C 0.31984 0.7522 0.63375 0.0
C1399 C 0.25142 0.68269 0.63118 0.0
C1400 C 0.29852 0.7397 0.69915 0.0
C1401 C 0.29166 0.76162 0.70268 0.0
C1402 C 0.29527 0.7239 0.67646 0.0
C1403 C 0.28411 0.7297 0.65705 0.0
C1404 C 0.27532 0.75059 0.66107 0.0
C1405 C 0.27971 0.76675 0.68382 0.0
C1406 C 0.30561 0.70241 0.67295 0.0
C1407 C 0.26251 0.75681 0.64111 0.0
H1408 H 0.32118 0.72248 0.59222 0.0
H1409 H 0.26436 0.66269 0.58994 0.0
H1410 H 0.31145 0.76723 0.63718 0.0
H1411 H 0.32756 0.75096 0.65123 0.0
H1412 H 0.33285 0.75776 0.6229 0.0
H1413 H 0.24094 0.6652 0.6192 0.0
H1414 H 0.25658 0.67849 0.64834 0.0
H1415 H 0.24168 0.69636 0.63507 0.0
H1416 H 0.30777 0.73576 0.71383 0.0
H1417 H 0.27412 0.78354 0.68676 0.0
H1418 H 0.31934 0.70655 0.66267 0.0
H1419 H 0.2938 0.68498 0.66254 0.0
H1420 H 0.31194 0.69905 0.69013 0.0
H1421 H 0.27385 0.76703 0.63083 0.0
H1422 H 0.25208 0.76887 0.64805 0.0
H1423 H 0.25212 0.73959 0.62867 0.0
C1424 C 0.65288 0.09557 0.8183 0.0
C1425 C 0.63545 0.0814 0.80085 0.0
C1426 C 0.64963 0.11172 0.83837 0.0
C1427 C 0.62819 0.11218 0.8415 0.0
C1428 C 0.61119 0.10144 0.82211 0.0
C1429 C 0.61508 0.08606 0.80169 0.0
C1430 C 0.66848 0.12456 0.85795 0.0
C1431 C 0.58824 0.10269 0.82443 0.0
C1432 C 0.61423 0.09257 0.89746 0.0
C1433 C 0.6105 0.11409 0.91097 0.0
C1434 C 0.61998 0.09194 0.87486 0.0
C1435 C 0.62267 0.11377 0.8658 0.0
C1436 C 0.6199 0.13603 0.87982 0.0
C1437 C 0.61343 0.13581 0.90234 0.0
C1438 C 0.62249 0.06751 0.86057 0.0
C1439 C 0.62389 0.16 0.87135 0.0
H1440 H 0.66884 0.09307 0.81722 0.0
H1441 H 0.60177 0.07582 0.78761 0.0
H1442 H 0.66629 0.14234 0.86823 0.0
H1443 H 0.66951 0.1122 0.87039 0.0
H1444 H 0.68409 0.12849 0.85064 0.0
H1445 H 0.57849 0.09946 0.8067 0.0
H1446 H 0.58042 0.08796 0.83337 0.0
H1447 H 0.58798 0.12104 0.83541 0.0
H1448 H 0.61141 0.07566 0.90412 0.0
H1449 H 0.61031 0.15231 0.91297 0.0
H1450 H 0.6395 0.06979 0.85703 0.0
H1451 H 0.61177 0.06172 0.84318 0.0
H1452 H 0.61841 0.05208 0.86994 0.0
H1453 H 0.64144 0.1699 0.87595 0.0
H1454 H 0.61465 0.17257 0.8802 0.0
H1455 H 0.61957 0.15653 0.85177 0.0
C1456 C 0.33956 0.35341 0.1208 0.0
C1457 C 0.32233 0.35525 0.10497 0.0
C1458 C 0.33622 0.34589 0.14225 0.0
C1459 C 0.31496 0.33932 0.14824 0.0
C1460 C 0.2974 0.34103 0.1324 0.0
C1461 C 0.3013 0.34932 0.11121 0.0
C1462 C 0.35557 0.34476 0.15845 0.0
C1463 C 0.2744 0.33368 0.13766 0.0
C1464 C 0.30502 0.29307 0.1886 0.0
C1465 C 0.30505 0.30829 0.21104 0.0
C1466 C 0.30805 0.30289 0.16829 0.0
C1467 C 0.31116 0.32883 0.17005 0.0
C1468 C 0.31146 0.34447 0.19274 0.0
C1469 C 0.30836 0.33403 0.21293 0.0
C1470 C 0.30778 0.28531 0.14481 0.0
C1471 C 0.31482 0.37222 0.19563 0.0
H1472 H 0.35599 0.35834 0.11664 0.0
H1473 H 0.28785 0.35076 0.09936 0.0
H1474 H 0.35594 0.35567 0.17675 0.0
H1475 H 0.35421 0.32515 0.15953 0.0
H1476 H 0.3712 0.35214 0.15216 0.0
H1477 H 0.26253 0.33635 0.12391 0.0
H1478 H 0.26993 0.31376 0.13862 0.0
H1479 H 0.27309 0.34489 0.15527 0.0
H1480 H 0.30246 0.27313 0.18684 0.0
H1481 H 0.3078 0.34588 0.2299 0.0
H1482 H 0.32356 0.29073 0.13819 0.0
H1483 H 0.295 0.2866 0.13127 0.0
H1484 H 0.30473 0.26555 0.14626 0.0
H1485 H 0.33035 0.38043 0.1896 0.0
H1486 H 0.31511 0.38196 0.21439 0.0
H1487 H 0.30161 0.37576 0.18425 0.0
C1488 C 0.24589 0.95683 0.02105 0.0
C1489 C 0.26656 0.97236 0.03108 0.0
C1490 C 0.22741 0.96571 0.02339 0.0
C1491 C 0.22992 0.99076 0.03553 0.0
C1492 C 0.25077 1.00638 0.04585 0.0
C1493 C 0.26882 0.99689 0.04365 0.0
C1494 C 0.20528 0.94847 0.01272 0.0
C1495 C 0.25411 0.03333 0.05866 0.0
C1496 C 0.19013 0.02591 0.01923 0.0
C1497 C 0.17942 0.02796 0.03926 0.0
C1498 C 0.20606 0.01293 0.01739 0.0
C1499 C 0.21114 1.00152 0.03594 0.0
C1500 C 0.19975 1.00265 0.0558 0.0
C1501 C 0.18407 0.01612 0.05734 0.0
C1502 C 0.21818 0.01248 0.99615 0.0
C1503 C 0.20458 0.99032 0.0757 0.0
H1504 H 0.24414 0.93771 0.01166 0.0
H1505 H 0.28483 1.00892 0.05142 0.0
H1506 H 0.19424 0.94808 0.02644 0.0
H1507 H 0.19803 0.95552 0.9983 0.0
H1508 H 0.20599 0.92907 1.00525 0.0
H1509 H 0.2714 0.04276 0.06606 0.0
H1510 H 0.24854 0.0438 0.0462 0.0
H1511 H 0.24428 0.03442 0.07346 0.0
H1512 H 0.18654 0.03522 1.00534 0.0
H1513 H 0.17549 0.01748 0.07267 0.0
H1514 H 0.21766 0.99299 0.98748 0.0
H1515 H 0.23552 0.02279 1.00214 0.0
H1516 H 0.2114 0.0211 0.98268 0.0
H1517 H 0.20454 0.97065 0.06835 0.0
H1518 H 0.19265 0.99058 0.08849 0.0
H1519 H 0.22103 1.00015 0.0856 0.0
C1520 C 0.70141 0.65053 0.99779 0.0
C1521 C 0.71715 0.63791 1.00216 0.0
C1522 C 0.67915 0.63976 0.9984 0.0
C1523 C 0.67239 0.61574 1.00335 0.0
C1524 C 0.68828 0.60313 0.00802 0.0
C1525 C 0.71029 0.61431 0.00741 0.0
C1526 C 0.66282 0.65397 0.99352 0.0
C1527 C 0.682 0.57751 0.0133 0.0
C1528 C 0.61756 0.59007 0.0232 0.0
C1529 C 0.60582 0.57346 1.00214 0.0
C1530 C 0.63887 0.60485 0.02368 0.0
C1531 C 0.64874 0.60301 1.00261 0.0
C1532 C 0.63653 0.587 0.98113 0.0
C1533 C 0.61531 0.57252 0.98117 0.0
C1534 C 0.65113 0.62169 0.04696 0.0
C1535 C 0.64624 0.5843 0.95824 0.0
H1536 H 0.70644 0.66879 0.99384 0.0
H1537 H 0.72217 0.60428 0.01088 0.0
H1538 H 0.65111 0.64328 0.97739 0.0
H1539 H 0.65335 0.65618 0.00858 0.0
H1540 H 0.67065 0.67277 0.99081 0.0
H1541 H 0.69632 0.57043 0.01716 0.0
H1542 H 0.67301 0.578 0.02883 0.0
H1543 H 0.671 0.56404 0.99786 0.0
H1544 H 0.61033 0.59101 0.03948 0.0
H1545 H 0.60633 0.55987 0.96478 0.0
H1546 H 0.6583 0.64077 0.04457 0.0
H1547 H 0.66474 0.61447 0.05303 0.0
H1548 H 0.64059 0.62292 0.06114 0.0
H1549 H 0.65299 0.60293 0.95461 0.0
H1550 H 0.63417 0.5726 0.94272 0.0
H1551 H 0.65986 0.57559 0.95997 0.0
C1552 C 0.72893 0.45275 0.29862 0.0
C1553 C 0.7149 0.45721 0.28046 0.0
C1554 C 0.73821 0.43181 0.29564 0.0
C1555 C 0.73418 0.41362 0.27361 0.0
C1556 C 0.72016 0.41791 0.255 0.0
C1557 C 0.71075 0.43902 0.25858 0.0
C1558 C 0.75244 0.4291 0.31657 0.0
C1559 C 0.71502 0.39997 0.23096 0.0
C1560 C 0.77638 0.37278 0.26226 0.0
C1561 C 0.76631 0.34919 0.2667 0.0
C1562 C 0.76615 0.39299 0.26374 0.0
C1563 C 0.74488 0.39086 0.27031 0.0
C1564 C 0.73459 0.36709 0.27485 0.0
C1565 C 0.74508 0.34699 0.27286 0.0
C1566 C 0.77843 0.41702 0.25829 0.0
C1567 C 0.71235 0.36294 0.28238 0.0
H1568 H 0.73267 0.46578 0.31584 0.0
H1569 H 0.70009 0.4412 0.24405 0.0
H1570 H 0.74593 0.4106 0.3206 0.0
H1571 H 0.76904 0.42992 0.31213 0.0
H1572 H 0.75363 0.4439 0.33283 0.0
H1573 H 0.70512 0.40606 0.21777 0.0
H1574 H 0.7303 0.39806 0.2241 0.0
H1575 H 0.70599 0.38119 0.23266 0.0
H1576 H 0.79263 0.37565 0.25752 0.0
H1577 H 0.73663 0.32949 0.27666 0.0
H1578 H 0.78193 0.43239 0.27452 0.0
H1579 H 0.76835 0.42213 0.24452 0.0
H1580 H 0.79403 0.4157 0.25191 0.0
H1581 H 0.71291 0.37661 0.29925 0.0
H1582 H 0.70608 0.34376 0.28506 0.0
H1583 H 0.70076 0.36614 0.26873 0.0
C1584 C 0.89815 0.46456 0.52727 0.0
C1585 C 0.88184 0.47418 0.51818 0.0
C1586 C 0.91972 0.47355 0.52424 0.0
C1587 C 0.92523 0.49311 0.51228 0.0
C1588 C 0.90893 0.50303 0.50306 0.0
C1589 C 0.88728 0.49331 0.50602 0.0
C1590 C 0.93668 0.46246 0.53434 0.0
C1591 C 0.91446 0.52425 0.49064 0.0
C1592 C 0.98366 0.52914 0.5319 0.0
C1593 C 0.99361 0.51834 0.51354 0.0
C1594 C 0.96111 0.52242 0.5308 0.0
C1595 C 0.94835 0.50405 0.51109 0.0
C1596 C 0.95824 0.49385 0.49198 0.0
C1597 C 0.98091 0.5014 0.49332 0.0
C1598 C 0.95112 0.53396 0.55139 0.0
C1599 C 0.94507 0.47382 0.47097 0.0
H1600 H 0.89416 0.4501 0.5371 0.0
H1601 H 0.87471 0.50084 0.49906 0.0
H1602 H 0.94637 0.45654 0.52039 0.0
H1603 H 0.94806 0.47676 0.54893 0.0
H1604 H 0.92938 0.44607 0.54152 0.0
H1605 H 0.89976 0.52906 0.48354 0.0
H1606 H 0.92522 0.54107 0.50329 0.0
H1607 H 0.9235 0.51931 0.47572 0.0
H1608 H 0.99357 0.5427 0.54732 0.0
H1609 H 0.98874 0.4932 0.47912 0.0
H1610 H 0.94543 0.51995 0.56194 0.0
H1611 H 0.93679 0.53972 0.54479 0.0
H1612 H 0.96288 0.55051 0.56345 0.0
H1613 H 0.93897 0.45623 0.4768 0.0
H1614 H 0.95479 0.47007 0.45636 0.0
H1615 H 0.93071 0.4792 0.4639 0.0
C1616 C 0.39474 0.08378 0.2601 0.0
C1617 C 0.39935 0.09055 0.28507 0.0
C1618 C 0.37921 0.09217 0.24799 0.0
C1619 C 0.36849 0.1081 0.26121 0.0
C1620 C 0.37236 0.11406 0.28646 0.0
C1621 C 0.38768 0.10502 0.29812 0.0
C1622 C 0.3751 0.08485 0.2211 0.0
C1623 C 0.36109 0.13098 0.30117 0.0
C1624 C 0.35201 0.16032 0.24082 0.0
C1625 C 0.32943 0.15247 0.24007 0.0
C1626 C 0.36504 0.14485 0.24548 0.0
C1627 C 0.35509 0.12098 0.24905 0.0
C1628 C 0.33223 0.1117 0.24499 0.0
C1629 C 0.31957 0.1277 0.24068 0.0
C1630 C 0.38944 0.15512 0.24926 0.0
C1631 C 0.32114 0.08588 0.24767 0.0
H1632 H 0.40336 0.07201 0.24994 0.0
H1633 H 0.39106 0.10998 0.31742 0.0
H1634 H 0.35777 0.08209 0.21422 0.0
H1635 H 0.38494 0.09998 0.21396 0.0
H1636 H 0.37981 0.06743 0.21412 0.0
H1637 H 0.36501 0.13256 0.32059 0.0
H1638 H 0.36605 0.14995 0.29769 0.0
H1639 H 0.34322 0.12389 0.29606 0.0
H1640 H 0.3596 0.17928 0.23966 0.0
H1641 H 0.3021 0.12148 0.23992 0.0
H1642 H 0.39726 0.14105 0.24032 0.0
H1643 H 0.3956 0.15978 0.26861 0.0
H1644 H 0.39452 0.17222 0.24242 0.0
H1645 H 0.33002 0.07217 0.24038 0.0
H1646 H 0.30409 0.07944 0.23855 0.0
H1647 H 0.32093 0.08618 0.26686 0.0
C1648 C 0.35144 0.16867 0.53819 0.0
C1649 C 0.33762 0.15963 0.51641 0.0
C1650 C 0.36988 0.15985 0.54235 0.0
C1651 C 0.37453 0.14171 0.52423 0.0
C1652 C 0.36056 0.13279 0.50216 0.0
C1653 C 0.34232 0.1419 0.49854 0.0
C1654 C 0.38437 0.16991 0.56606 0.0
C1655 C 0.36481 0.1135 0.48234 0.0
C1656 C 0.43061 0.13002 0.52264 0.0
C1657 C 0.42773 0.10765 0.53039 0.0
C1658 C 0.41379 0.14195 0.52153 0.0
C1659 C 0.39352 0.1313 0.5283 0.0
C1660 C 0.39079 0.10925 0.53694 0.0
C1661 C 0.40782 0.0977 0.53779 0.0
C1662 C 0.41747 0.16551 0.51236 0.0
C1663 C 0.36952 0.09725 0.54439 0.0
H1664 H 0.34786 0.18265 0.55187 0.0
H1665 H 0.33168 0.13517 0.48161 0.0
H1666 H 0.38552 0.15435 0.57461 0.0
H1667 H 0.40105 0.1791 0.56336 0.0
H1668 H 0.37837 0.18364 0.5784 0.0
H1669 H 0.35257 0.10877 0.46615 0.0
H1670 H 0.38116 0.12048 0.47746 0.0
H1671 H 0.36464 0.09614 0.48846 0.0
H1672 H 0.44599 0.13813 0.51724 0.0
H1673 H 0.4052 0.08027 0.5435 0.0
H1674 H 0.41291 0.18034 0.5249 0.0
H1675 H 0.40695 0.16181 0.49505 0.0
H1676 H 0.43464 0.17261 0.50978 0.0
H1677 H 0.36432 0.11122 0.5573 0.0
H1678 H 0.37058 0.08142 0.55263 0.0
H1679 H 0.3567 0.09017 0.52861 0.0
C1680 C 0.73822 0.59867 0.28028 0.0
C1681 C 0.71849 0.59438 0.28982 0.0
C1682 C 0.74932 0.62275 0.27712 0.0
C1683 C 0.74124 0.64406 0.28427 0.0
C1684 C 0.72124 0.63975 0.29387 0.0
C1685 C 0.71018 0.61532 0.29624 0.0
C1686 C 0.77003 0.62542 0.26623 0.0
C1687 C 0.71173 0.66125 0.30236 0.0
C1688 C 0.78333 0.7099 0.30102 0.0
C1689 C 0.7803 0.7206 0.28136 0.0
C1690 C 0.77071 0.68581 0.30226 0.0
C1691 C 0.75432 0.67079 0.2832 0.0
C1692 C 0.75094 0.68154 0.26329 0.0
C1693 C 0.76368 0.70603 0.26267 0.0
C1694 C 0.77514 0.67631 0.32422 0.0
C1695 C 0.73412 0.66683 0.24221 0.0
H1696 H 0.74511 0.58303 0.27523 0.0
H1697 H 0.69519 0.61276 0.30387 0.0
H1698 H 0.76905 0.63464 0.25114 0.0
H1699 H 0.7839 0.63751 0.27963 0.0
H1700 H 0.77342 0.60711 0.25969 0.0
H1701 H 0.69599 0.65516 0.30894 0.0
H1702 H 0.72329 0.67534 0.31696 0.0
H1703 H 0.70919 0.67062 0.2877 0.0
H1704 H 0.79589 0.72053 0.31575 0.0
H1705 H 0.76095 0.71349 0.24719 0.0
H1706 H 0.78089 0.65927 0.31938 0.0
H1707 H 0.75993 0.67103 0.33197 0.0
H1708 H 0.78755 0.6904 0.33806 0.0
H1709 H 0.73878 0.64987 0.23368 0.0
H1710 H 0.73235 0.67787 0.2287 0.0
H1711 H 0.71812 0.66045 0.24809 0.0
C1712 C 0.90081 0.47954 0.76136 0.0
C1713 C 0.92071 0.48465 0.77594 0.0
C1714 C 0.88636 0.45555 0.75606 0.0
C1715 C 0.89209 0.43664 0.76586 0.0
C1716 C 0.91305 0.44127 0.77873 0.0
C1717 C 0.92712 0.46534 0.78365 0.0
C1718 C 0.86425 0.45118 0.74202 0.0
C1719 C 0.9198 0.42157 0.78938 0.0
C1720 C 0.84928 0.38836 0.78489 0.0
C1721 C 0.84746 0.36703 0.76695 0.0
C1722 C 0.86309 0.41146 0.78415 0.0
C1723 C 0.87556 0.41306 0.76522 0.0
C1724 C 0.87348 0.39169 0.74686 0.0
C1725 C 0.85931 0.36896 0.74783 0.0
C1726 C 0.86478 0.43399 0.804 0.0
C1727 C 0.88677 0.39268 0.72664 0.0
H1728 H 0.89575 0.49476 0.75592 0.0
H1729 H 0.94237 0.46962 0.79538 0.0
H1730 H 0.85951 0.4328 0.72908 0.0
H1731 H 0.85197 0.45099 0.75439 0.0
H1732 H 0.86376 0.46605 0.73225 0.0
H1733 H 0.93744 0.42715 0.79626 0.0
H1734 H 0.91063 0.4184 0.80435 0.0
H1735 H 0.91592 0.40354 0.776 0.0
H1736 H 0.83998 0.38702 0.79955 0.0
H1737 H 0.85798 0.35252 0.73385 0.0
H1738 H 0.86186 0.44962 0.7965 0.0
H1739 H 0.88143 0.44041 0.81413 0.0
H1740 H 0.85301 0.42993 0.81658 0.0
H1741 H 0.88378 0.40703 0.71726 0.0
H1742 H 0.88304 0.37439 0.71362 0.0
H1743 H 0.90433 0.39827 0.73375 0.0
C1744 C 0.06814 0.89404 0.09341 0.0
C1745 C 0.08464 0.88174 0.09001 0.0
C1746 C 0.06665 0.91388 0.08277 0.0
C1747 C 0.08196 0.92197 0.06793 0.0
C1748 C 0.09903 0.91007 0.06471 0.0
C1749 C 0.10026 0.89017 0.07589 0.0
C1750 C 0.04831 0.9259 0.08718 0.0
C1751 C 0.11558 0.91787 0.04886 0.0
C1752 C 0.06132 0.95812 0.02541 0.0
C1753 C 0.07125 0.98312 0.03719 0.0
C1754 C 0.06569 0.93808 0.03437 0.0
C1755 C 0.07983 0.94296 0.05613 0.0
C1756 C 0.09002 0.9682 0.06793 0.0
C1757 C 0.08588 0.98781 0.0582 0.0
C1758 C 0.0547 0.91162 0.02082 0.0
C1759 C 0.10454 0.97457 0.09152 0.0
H1760 H 0.05597 0.88777 0.1043 0.0
H1761 H 0.11285 0.88065 0.07282 0.0
H1762 H 0.05489 0.94637 0.0942 0.0
H1763 H 0.03756 0.92297 0.07019 0.0
H1764 H 0.03829 0.91819 0.10001 0.0
H1765 H 0.12795 0.90711 0.04827 0.0
H1766 H 0.10727 0.91509 0.03049 0.0
H1767 H 0.12395 0.93806 0.05521 0.0
H1768 H 0.05009 0.95417 0.00912 0.0
H1769 H 0.09354 1.00698 0.06765 0.0
H1770 H 0.04245 0.90261 0.03096 0.0
H1771 H 0.06675 0.90051 0.01871 0.0
H1772 H 0.04641 0.91084 1.0029 0.0
H1773 H 0.09486 0.96817 0.10516 0.0
H1774 H 0.11224 0.99496 0.09783 0.0
H1775 H 0.11749 0.9647 0.09013 0.0
C1776 C 0.94567 0.26132 0.84772 0.0
C1777 C 0.9523 0.27161 0.87216 0.0
C1778 C 0.92658 0.26409 0.83578 0.0
C1779 C 0.91393 0.27825 0.84832 0.0
C1780 C 0.92052 0.28859 0.87317 0.0
C1781 C 0.93948 0.28492 0.88484 0.0
C1782 C 0.92022 0.25221 0.8095 0.0
C1783 C 0.90801 0.30431 0.88724 0.0
C1784 C 0.88026 0.30471 0.80715 0.0
C1785 C 0.85964 0.28775 0.80349 0.0
C1786 C 0.89759 0.30285 0.82292 0.0
C1787 C 0.89457 0.28305 0.83495 0.0
C1788 C 0.87347 0.26642 0.83197 0.0
C1789 C 0.8563 0.269 0.81636 0.0
C1790 C 0.91952 0.32135 0.82565 0.0
C1791 C 0.86935 0.2448 0.84398 0.0
H1792 H 0.95559 0.25114 0.83782 0.0
H1793 H 0.94471 0.29324 0.90367 0.0
H1794 H 0.90308 0.24074 0.80588 0.0
H1795 H 0.92145 0.26696 0.7993 0.0
H1796 H 0.93071 0.24015 0.80276 0.0
H1797 H 0.91455 0.3101 0.90653 0.0
H1798 H 0.9087 0.32133 0.88033 0.0
H1799 H 0.89065 0.29387 0.88504 0.0
H1800 H 0.88309 0.3189 0.79688 0.0
H1801 H 0.84057 0.25541 0.81313 0.0
H1802 H 0.93091 0.3119 0.81676 0.0
H1803 H 0.92644 0.32856 0.84476 0.0
H1804 H 0.91862 0.3374 0.81769 0.0
H1805 H 0.87776 0.23094 0.83585 0.0
H1806 H 0.85175 0.23533 0.84219 0.0
H1807 H 0.87606 0.25122 0.86317 0.0
C1808 C 0.5829 0.23724 0.59696 0.0
C1809 C 0.57644 0.25268 0.58329 0.0
C1810 C 0.58186 0.21225 0.58663 0.0
C1811 C 0.57499 0.20273 0.56182 0.0
C1812 C 0.56989 0.21881 0.54767 0.0
C1813 C 0.57016 0.24343 0.55867 0.0
C1814 C 0.58672 0.19561 0.60255 0.0
C1815 C 0.56335 0.20975 0.52105 0.0
C1816 C 0.58441 0.13924 0.53615 0.0
C1817 C 0.56376 0.12308 0.53507 0.0
C1818 C 0.58816 0.16534 0.54383 0.0
C1819 C 0.57102 0.17542 0.55128 0.0
C1820 C 0.55009 0.15916 0.54984 0.0
C1821 C 0.54667 0.13332 0.54148 0.0
C1822 C 0.61052 0.18208 0.54431 0.0
C1823 C 0.53141 0.16894 0.55803 0.0
H1824 H 0.58748 0.24426 0.61606 0.0
H1825 H 0.56519 0.25538 0.54806 0.0
H1826 H 0.57176 0.18071 0.60229 0.0
H1827 H 0.59906 0.18628 0.59591 0.0
H1828 H 0.59273 0.20611 0.62129 0.0
H1829 H 0.56323 0.2254 0.51223 0.0
H1830 H 0.57462 0.19938 0.51317 0.0
H1831 H 0.54685 0.19667 0.51709 0.0
H1832 H 0.59767 0.13151 0.53109 0.0
H1833 H 0.53067 0.12103 0.54088 0.0
H1834 H 0.618 0.19112 0.563 0.0
H1835 H 0.60938 0.19721 0.53512 0.0
H1836 H 0.62143 0.17163 0.53569 0.0
H1837 H 0.53557 0.17867 0.57716 0.0
H1838 H 0.51613 0.15382 0.55568 0.0
H1839 H 0.52842 0.18276 0.54798 0.0
C1840 C 0.59428 0.78725 0.3922 0.0
C1841 C 0.57752 0.79195 0.37803 0.0
C1842 C 0.61531 0.79046 0.38571 0.0
C1843 C 0.61955 0.79808 0.36434 0.0
C1844 C 0.60289 0.80369 0.35048 0.0
C1845 C 0.58221 0.80076 0.35758 0.0
C1846 C 0.63278 0.78493 0.40131 0.0
C1847 C 0.60655 0.8116 0.32744 0.0
C1848 C 0.67645 0.81945 0.34801 0.0
C1849 C 0.67828 0.79745 0.33312 0.0
C1850 C 0.65786 0.81977 0.35925 0.0
C1851 C 0.64051 0.79772 0.35501 0.0
C1852 C 0.64248 0.77543 0.34021 0.0
C1853 C 0.66135 0.77554 0.32963 0.0
C1854 C 0.65663 0.84375 0.37533 0.0
C1855 C 0.6243 0.7516 0.33481 0.0
H1856 H 0.59092 0.78071 0.40817 0.0
H1857 H 0.56945 0.80455 0.34652 0.0
H1858 H 0.63684 0.76789 0.39196 0.0
H1859 H 0.64784 0.80051 0.4049 0.0
H1860 H 0.62768 0.78194 0.41857 0.0
H1861 H 0.59233 0.8166 0.3194 0.0
H1862 H 0.62097 0.8279 0.33046 0.0
H1863 H 0.60986 0.79615 0.31443 0.0
H1864 H 0.68958 0.83638 0.35089 0.0
H1865 H 0.66257 0.75856 0.31791 0.0
H1866 H 0.65239 0.84039 0.39277 0.0
H1867 H 0.6436 0.85063 0.3673 0.0
H1868 H 0.67217 0.85862 0.37844 0.0
H1869 H 0.62001 0.74643 0.3516 0.0
H1870 H 0.62863 0.73571 0.32348 0.0
H1871 H 0.60958 0.75451 0.32548 0.0
C1872 C 0.06628 0.2695 0.43016 0.0
C1873 C 0.08787 0.27495 0.42561 0.0
C1874 C 0.05763 0.24904 0.43947 0.0
C1875 C 0.0712 0.23435 0.44543 0.0
C1876 C 0.09298 0.23951 0.4408 0.0
C1877 C 0.10103 0.25968 0.43058 0.0
C1878 C 0.03418 0.24372 0.44371 0.0
C1879 C 0.10792 0.22432 0.44747 0.0
C1880 C 0.05813 0.20404 0.49638 0.0
C1881 C 0.04922 0.17905 0.4844 0.0
C1882 C 0.06522 0.22228 0.48377 0.0
C1883 C 0.06314 0.21522 0.45864 0.0
C1884 C 0.05318 0.19021 0.44634 0.0
C1885 C 0.04635 0.17229 0.45946 0.0
C1886 C 0.07566 0.24891 0.4974 0.0
C1887 C 0.05024 0.18232 0.41949 0.0
H1888 H 0.05598 0.28125 0.42653 0.0
H1889 H 0.11772 0.26395 0.42713 0.0
H1890 H 0.0258 0.22357 0.43692 0.0
H1891 H 0.03347 0.24842 0.46312 0.0
H1892 H 0.02509 0.25472 0.43501 0.0
H1893 H 0.12411 0.23009 0.44175 0.0
H1894 H 0.1102 0.22648 0.46708 0.0
H1895 H 0.10056 0.20419 0.43929 0.0
H1896 H 0.06061 0.2091 0.51569 0.0
H1897 H 0.03932 0.15288 0.4503 0.0
H1898 H 0.0667 0.2616 0.49151 0.0
H1899 H 0.09257 0.25497 0.49366 0.0
H1900 H 0.076 0.25118 0.51694 0.0
H1901 H 0.04158 0.19412 0.41151 0.0
H1902 H 0.04101 0.1624 0.41268 0.0
H1903 H 0.06636 0.18505 0.4133 0.0
C1904 C 0.56323 0.25311 0.20079 0.0
C1905 C 0.56765 0.27782 0.19835 0.0
C1906 C 0.57983 0.24091 0.20041 0.0
C1907 C 0.60092 0.25403 0.19761 0.0
C1908 C 0.6042 0.27733 0.19121 0.0
C1909 C 0.58741 0.28903 0.19178 0.0
C1910 C 0.57562 0.21575 0.20661 0.0
C1911 C 0.62633 0.2919 0.1878 0.0
C1912 C 0.64784 0.25443 0.24175 0.0
C1913 C 0.65982 0.24199 0.22706 0.0
C1914 C 0.62812 0.25753 0.23243 0.0
C1915 C 0.62009 0.2475 0.20787 0.0
C1916 C 0.63167 0.23387 0.19318 0.0
C1917 C 0.65164 0.23148 0.20295 0.0
C1918 C 0.61647 0.27264 0.24868 0.0
C1919 C 0.62319 0.22231 0.16717 0.0
H1920 H 0.54778 0.24451 0.20581 0.0
H1921 H 0.59056 0.30814 0.18975 0.0
H1922 H 0.58572 0.20438 0.19766 0.0
H1923 H 0.5799 0.21845 0.22613 0.0
H1924 H 0.55822 0.20526 0.20158 0.0
H1925 H 0.62516 0.3067 0.17816 0.0
H1926 H 0.6362 0.30101 0.20552 0.0
H1927 H 0.63507 0.27948 0.17783 0.0
H1928 H 0.65441 0.26268 0.26035 0.0
H1929 H 0.66099 0.22165 0.19176 0.0
H1930 H 0.5996 0.26155 0.24847 0.0
H1931 H 0.61553 0.2896 0.2423 0.0
H1932 H 0.62475 0.27864 0.26739 0.0
H1933 H 0.60752 0.20801 0.1655 0.0
H1934 H 0.63471 0.21331 0.15795 0.0
H1935 H 0.61996 0.23664 0.1579 0.0
C1936 C 0.61905 0.91783 0.93214 0.0
C1937 C 0.60308 0.89579 0.92141 0.0
C1938 C 0.613 0.93924 0.94266 0.0
C1939 C 0.59066 0.93773 0.94342 0.0
C1940 C 0.57465 0.91633 0.93008 0.0
C1941 C 0.58122 0.89585 0.91863 0.0
C1942 C 0.6305 0.9628 0.95445 0.0
C1943 C 0.55058 0.91405 0.92897 0.0
C1944 C 0.58264 0.97143 1.00367 0.0
C1945 C 0.57319 0.9896 0.99787 0.0
C1946 C 0.58737 0.95373 0.98588 0.0
C1947 C 0.58439 0.95575 0.96186 0.0
C1948 C 0.57458 0.97397 0.95588 0.0
C1949 C 0.56808 0.98989 0.97398 0.0
C1950 C 0.59533 0.93281 0.99297 0.0
C1951 C 0.57077 0.97696 0.93067 0.0
H1952 H 0.63605 0.91794 0.93349 0.0
H1953 H 0.56904 0.87923 0.90882 0.0
H1954 H 0.62474 0.97969 0.95406 0.0
H1955 H 0.63522 0.96274 0.97332 0.0
H1956 H 0.64526 0.96402 0.94556 0.0
H1957 H 0.54089 0.89418 0.92451 0.0
H1958 H 0.54645 0.92351 0.94597 0.0
H1959 H 0.54547 0.92275 0.9147 0.0
H1960 H 0.58593 0.9707 0.02218 0.0
H1961 H 0.55961 1.00295 0.9694 0.0
H1962 H 0.61323 0.93715 0.99388 0.0
H1963 H 0.58812 0.91481 0.97979 0.0
H1964 H 0.59128 0.93032 0.01074 0.0
H1965 H 0.58121 0.9687 0.91897 0.0
H1966 H 0.57378 0.99706 0.93047 0.0
H1967 H 0.55349 0.96783 0.92313 0.0
C1968 C 0.94082 0.77514 0.69121 0.0
C1969 C 0.94409 0.75122 0.68709 0.0
C1970 C 0.92664 0.78162 0.70661 0.0
C1971 C 0.91488 0.76334 0.71734 0.0
C1972 C 0.91774 0.73892 0.71289 0.0
C1973 C 0.93284 0.73325 0.69809 0.0
C1974 C 0.92437 0.80805 0.7115 0.0
C1975 C 0.90482 0.71893 0.72366 0.0
C1976 C 0.88822 0.78784 0.76917 0.0
C1977 C 0.86753 0.78491 0.75736 0.0
C1978 C 0.90386 0.78003 0.75644 0.0
C1979 C 0.89835 0.7695 0.73162 0.0
C1980 C 0.87736 0.76667 0.71982 0.0
C1981 C 0.86212 0.77431 0.73299 0.0
C1982 C 0.92624 0.78331 0.76935 0.0
C1983 C 0.87112 0.7561 0.69327 0.0
H1984 H 0.95023 0.78925 0.68327 0.0
H1985 H 0.93592 0.71498 0.69516 0.0
H1986 H 0.90759 0.80796 0.70481 0.0
H1987 H 0.92727 0.81624 0.73097 0.0
H1988 H 0.93589 0.82038 0.70293 0.0
H1989 H 0.90931 0.70102 0.71875 0.0
H1990 H 0.90738 0.72528 0.74336 0.0
H1991 H 0.88721 0.71548 0.71755 0.0
H1992 H 0.89199 0.79592 0.78818 0.0
H1993 H 0.84587 0.77207 0.72424 0.0
H1994 H 0.93853 0.79608 0.76201 0.0
H1995 H 0.93029 0.76509 0.76651 0.0
H1996 H 0.92759 0.79103 0.78881 0.0
H1997 H 0.88089 0.76874 0.68354 0.0
H1998 H 0.85365 0.75376 0.68726 0.0
H1999 H 0.87468 0.7377 0.68819 0.0
C2000 C 0.15335 0.02997 0.86862 0.0
C2001 C 0.14182 0.02895 0.84624 0.0
C2002 C 0.14372 0.032 0.89034 0.0
C2003 C 0.12149 0.03251 0.89055 0.0
C2004 C 0.10981 0.03131 0.86797 0.0
C2005 C 0.11994 0.02986 0.84671 0.0
C2006 C 0.15749 0.03344 0.91329 0.0
C2007 C 0.08619 0.03118 0.86608 0.0
C2008 C 0.08755 0.01136 0.94008 0.0
C2009 C 0.08649 0.03374 0.95553 0.0
C2010 C 0.09928 0.01079 0.92005 0.0
C2011 C 0.11023 0.0332 0.91374 0.0
C2012 C 0.10935 0.05599 0.92932 0.0
C2013 C 0.09785 0.05602 0.94972 0.0
C2014 C 0.0993 0.98576 0.90503 0.0
C2015 C 0.11994 0.08064 0.92388 0.0
H2016 H 0.17012 0.02926 0.86926 0.0
H2017 H 0.1103 0.02887 0.83003 0.0
H2018 H 0.15731 0.05036 0.92674 0.0
H2019 H 0.15059 0.01701 0.92055 0.0
H2020 H 0.17459 0.03404 0.91091 0.0
H2021 H 0.07903 0.03003 0.84757 0.0
H2022 H 0.07675 0.01504 0.87224 0.0
H2023 H 0.08435 0.04838 0.87784 0.0
H2024 H 0.07864 0.99382 0.94343 0.0
H2025 H 0.09684 0.07363 0.96043 0.0
H2026 H 0.11618 0.98513 0.90284 0.0
H2027 H 0.09032 0.98299 0.88699 0.0
H2028 H 0.09165 0.97005 0.91291 0.0
H2029 H 0.13718 0.08184 0.9218 0.0
H2030 H 0.11923 0.09679 0.938 0.0
H2031 H 0.11169 0.08199 0.90672 0.0
C2032 C 0.81942 0.37425 0.57302 0.0
C2033 C 0.83084 0.39046 0.56054 0.0
C2034 C 0.82984 0.37007 0.59344 0.0
C2035 C 0.85225 0.38224 0.60107 0.0
C2036 C 0.86352 0.3996 0.58915 0.0
C2037 C 0.85247 0.40386 0.5692 0.0
C2038 C 0.81705 0.35199 0.6063 0.0
C2039 C 0.88738 0.41275 0.59665 0.0
C2040 C 0.86403 0.37404 0.66218 0.0
C2041 C 0.8658 0.34942 0.65637 0.0
C2042 C 0.86271 0.38722 0.64445 0.0
C2043 C 0.8637 0.37545 0.6208 0.0
C2044 C 0.87012 0.35301 0.61598 0.0
C2045 C 0.87104 0.34007 0.63399 0.0
C2046 C 0.85648 0.41153 0.65039 0.0
C2047 C 0.87231 0.34056 0.59103 0.0
H2048 H 0.80254 0.36439 0.56644 0.0
H2049 H 0.86086 0.41766 0.56049 0.0
H2050 H 0.8235 0.33535 0.60476 0.0
H2051 H 0.81875 0.36086 0.62553 0.0
H2052 H 0.79949 0.34559 0.59897 0.0
H2053 H 0.89244 0.42925 0.58883 0.0
H2054 H 0.89146 0.41887 0.61631 0.0
H2055 H 0.89708 0.39957 0.59045 0.0
H2056 H 0.86056 0.38158 0.67971 0.0
H2057 H 0.87287 0.32124 0.62946 0.0
H2058 H 0.83851 0.40756 0.64706 0.0
H2059 H 0.86334 0.42429 0.63913 0.0
H2060 H 0.86201 0.42117 0.66944 0.0
H2061 H 0.8559 0.33052 0.58108 0.0
H2062 H 0.88199 0.32676 0.59116 0.0
H2063 H 0.88007 0.35456 0.58134 0.0
C2064 C 0.47656 0.02376 0.3561 0.0
C2065 C 0.48349 0.04743 0.35136 0.0
C2066 C 0.48601 0.01864 0.37661 0.0
C2067 C 0.50296 0.03755 0.39196 0.0
C2068 C 0.51016 0.06133 0.38678 0.0
C2069 C 0.50006 0.06607 0.36657 0.0
C2070 C 0.47762 0.99339 0.38211 0.0
C2071 C 0.52849 0.08181 0.4026 0.0
C2072 C 0.51782 0.04606 0.45732 0.0
C2073 C 0.53731 0.03935 0.45816 0.0
C2074 C 0.50493 0.04258 0.43562 0.0
C2075 C 0.51257 0.03356 0.41433 0.0
C2076 C 0.53197 0.02585 0.41511 0.0
C2077 C 0.5442 0.02884 0.43724 0.0
C2078 C 0.48416 0.05068 0.4355 0.0
C2079 C 0.54062 0.0163 0.39268 0.0
H2080 H 0.46371 1.00946 0.34391 0.0
H2081 H 0.50541 0.08418 0.36234 0.0
H2082 H 0.49123 0.98512 0.38571 0.0
H2083 H 0.46979 0.99559 0.39846 0.0
H2084 H 0.46558 0.98014 0.36734 0.0
H2085 H 0.53297 0.0986 0.39509 0.0
H2086 H 0.52369 0.08751 0.42039 0.0
H2087 H 0.54309 0.0749 0.40524 0.0
H2088 H 0.51334 0.05551 0.47343 0.0
H2089 H 0.55938 0.0236 0.43817 0.0
H2090 H 0.47136 0.03801 0.42117 0.0
H2091 H 0.4873 0.06975 0.4322 0.0
H2092 H 0.4779 0.05108 0.45281 0.0
H2093 H 0.52744 1.00272 0.37939 0.0
H2094 H 0.55371 1.00724 0.39629 0.0
H2095 H 0.54733 0.03217 0.3846 0.0
C2096 C 0.8141 0.7626 0.08383 0.0
C2097 C 0.79988 0.74031 0.06992 0.0
C2098 C 0.813 0.77073 0.10826 0.0
C2099 C 0.79757 0.75604 0.11935 0.0
C2100 C 0.78254 0.73414 0.10519 0.0
C2101 C 0.78375 0.72669 0.08071 0.0
C2102 C 0.829 0.79453 0.12244 0.0
C2103 C 0.76596 0.71771 0.11618 0.0
C2104 C 0.81363 0.75935 0.18526 0.0
C2105 C 0.80064 0.77351 0.19645 0.0
C2106 C 0.81252 0.75333 0.16031 0.0
C2107 C 0.79851 0.76225 0.14598 0.0
C2108 C 0.78554 0.77688 0.15719 0.0
C2109 C 0.78651 0.78202 0.18223 0.0
C2110 C 0.82628 0.7372 0.14927 0.0
C2111 C 0.77089 0.78743 0.14275 0.0
H2112 H 0.82656 0.77341 0.07577 0.0
H2113 H 0.7727 0.7094 0.0703 0.0
H2114 H 0.82048 0.80646 0.13348 0.0
H2115 H 0.84088 0.78997 0.13474 0.0
H2116 H 0.83806 0.80541 0.11081 0.0
H2117 H 0.75436 0.70242 0.10256 0.0
H2118 H 0.77441 0.70928 0.12855 0.0
H2119 H 0.75666 0.72894 0.12677 0.0
H2120 H 0.82447 0.75252 0.19605 0.0
H2121 H 0.77656 0.79316 0.19073 0.0
H2122 H 0.8378 0.74767 0.13931 0.0
H2123 H 0.81581 0.72041 0.13631 0.0
H2124 H 0.83574 0.731 0.16278 0.0
H2125 H 0.7807 0.79974 0.13276 0.0
H2126 H 0.76178 0.79837 0.15405 0.0
H2127 H 0.75907 0.77212 0.12942 0.0
C2128 C 0.13632 0.01495 0.68314 0.0
C2129 C 0.12535 0.01905 0.7031 0.0
C2130 C 0.12774 0.01675 0.65993 0.0
C2131 C 0.10744 0.02264 0.65585 0.0
C2132 C 0.09624 0.02633 0.67585 0.0
C2133 C 0.10519 0.02463 0.69869 0.0
C2134 C 0.14066 0.0127 0.63969 0.0
C2135 C 0.07459 0.0323 0.6732 0.0
C2136 C 0.09223 0.05264 0.60359 0.0
C2137 C 0.07865 0.03236 0.58605 0.0
C2138 C 0.10208 0.0496 0.62555 0.0
C2139 C 0.0981 0.0257 0.63123 0.0
C2140 C 0.08417 1.00517 0.61368 0.0
C2141 C 0.07506 1.00863 0.5915 0.0
C2142 C 0.11687 0.07227 0.64284 0.0
C2143 C 0.07848 0.97936 0.61847 0.0
H2144 H 0.15182 0.01069 0.68568 0.0
H2145 H 0.0961 0.02783 0.71339 0.0
H2146 H 0.13075 0.99733 0.6249 0.0
H2147 H 0.14478 0.02981 0.63264 0.0
H2148 H 0.15591 1.00805 0.64522 0.0
H2149 H 0.06722 0.03346 0.68991 0.0
H2150 H 0.07661 0.05042 0.66799 0.0
H2151 H 0.06311 0.01781 0.65883 0.0
H2152 H 0.09548 0.07112 0.6 0.0
H2153 H 0.06461 0.99265 0.57856 0.0
H2154 H 0.13277 0.0687 0.64769 0.0
H2155 H 0.1097 0.07608 0.65948 0.0
H2156 H 0.11971 0.0892 0.63543 0.0
H2157 H 0.09345 0.97324 0.62147 0.0
H2158 H 0.06717 0.96537 0.60355 0.0
H2159 H 0.07082 0.97969 0.63495 0.0
C2160 C 0.8277 0.36888 0.44468 0.0
C2161 C 0.82745 0.39396 0.44966 0.0
C2162 C 0.82365 0.35476 0.42131 0.0
C2163 C 0.81953 0.36621 0.40249 0.0
C2164 C 0.81873 0.39148 0.40744 0.0
C2165 C 0.82259 0.40516 0.43122 0.0
C2166 C 0.82428 0.32774 0.41678 0.0
C2167 C 0.81443 0.40415 0.38767 0.0
C2168 C 0.8315 0.33256 0.34397 0.0
C2169 C 0.81096 0.3168 0.33424 0.0
C2170 C 0.83445 0.3498 0.36585 0.0
C2171 C 0.81626 0.35137 0.37774 0.0
C2172 C 0.7953 0.3362 0.36726 0.0
C2173 C 0.79293 0.31891 0.34562 0.0
C2174 C 0.85707 0.36555 0.37669 0.0
C2175 C 0.77553 0.33753 0.37932 0.0
H2176 H 0.83142 0.36041 0.4592 0.0
H2177 H 0.82262 0.42469 0.43534 0.0
H2178 H 0.80869 0.31544 0.40646 0.0
H2179 H 0.83732 0.32499 0.40599 0.0
H2180 H 0.82723 0.32163 0.43355 0.0
H2181 H 0.81347 0.42355 0.39457 0.0
H2182 H 0.82759 0.40472 0.3764 0.0
H2183 H 0.799 0.39333 0.37601 0.0
H2184 H 0.84525 0.33105 0.33473 0.0
H2185 H 0.77695 0.30699 0.33753 0.0
H2186 H 0.86224 0.35988 0.39306 0.0
H2187 H 0.85725 0.38554 0.38201 0.0
H2188 H 0.86911 0.36362 0.36426 0.0
H2189 H 0.77661 0.33031 0.3957 0.0
H2190 H 0.76018 0.32642 0.3676 0.0
H2191 H 0.77483 0.3572 0.38481 0.0
C2192 C 0.48479 0.0264 0.20937 0.0
C2193 C 0.47157 0.02026 0.2262 0.0
C2194 C 0.48373 1.0089 0.18827 0.0
C2195 C 0.46964 0.98438 0.18453 0.0
C2196 C 0.45654 0.97802 0.20189 0.0
C2197 C 0.45748 0.99627 0.22251 0.0
C2198 C 0.49765 0.01692 0.17 0.0
C2199 C 0.4422 0.95196 0.19941 0.0
C2200 C 0.4655 0.96288 0.12 0.0
C2201 C 0.48669 0.96014 0.12017 0.0
C2202 C 0.45681 0.96634 0.14139 0.0
C2203 C 0.46945 0.96588 0.16247 0.0
C2204 C 0.48724 0.95539 0.1609 0.0
C2205 C 0.49583 0.95259 0.13946 0.0
C2206 C 0.43665 0.9755 0.14215 0.0
C2207 C 0.49998 0.9525 0.18283 0.0
H2208 H 0.4956 0.04507 0.21255 0.0
H2209 H 0.44758 0.99161 0.23606 0.0
H2210 H 0.50934 1.00546 0.16696 0.0
H2211 H 0.48722 0.01417 0.15285 0.0
H2212 H 0.50703 0.03688 0.17555 0.0
H2213 H 0.42801 0.95232 0.20906 0.0
H2214 H 0.43625 0.94208 0.18053 0.0
H2215 H 0.45172 0.94096 0.20745 0.0
H2216 H 0.45756 0.96687 0.10447 0.0
H2217 H 0.51164 0.94892 0.13952 0.0
H2218 H 0.44144 0.99626 0.14655 0.0
H2219 H 0.4273 0.96923 0.15605 0.0
H2220 H 0.42601 0.96885 0.12464 0.0
H2221 H 0.51172 0.97069 0.19164 0.0
H2222 H 0.50929 0.93848 0.17817 0.0
H2223 H 0.48906 0.94682 0.19573 0.0
C2224 C 0.78854 0.75384 0.94 0.0
C2225 C 0.7983 0.73498 0.94342 0.0
C2226 C 0.79007 0.7632 0.9191 0.0
C2227 C 0.80152 0.75336 0.9012 0.0
C2228 C 0.81074 0.73373 0.9044 0.0
C2229 C 0.80915 0.72499 0.92543 0.0
C2230 C 0.78025 0.78434 0.91664 0.0
C2231 C 0.82303 0.72252 0.88599 0.0
C2232 C 0.79523 0.76496 0.83811 0.0
C2233 C 0.81441 0.78357 0.83883 0.0
C2234 C 0.79063 0.75516 0.85827 0.0
C2235 C 0.80531 0.76453 0.8799 0.0
C2236 C 0.8245 0.78366 0.88075 0.0
C2237 C 0.82889 0.79268 0.86025 0.0
C2238 C 0.77022 0.73448 0.85631 0.0
C2239 C 0.84056 0.79455 0.90334 0.0
H2240 H 0.78048 0.76193 0.95401 0.0
H2241 H 0.81694 0.7106 0.92813 0.0
H2242 H 0.79334 0.80127 0.91675 0.0
H2243 H 0.76945 0.77948 0.89936 0.0
H2244 H 0.77076 0.78892 0.93127 0.0
H2245 H 0.82777 0.70612 0.89023 0.0
H2246 H 0.81303 0.71664 0.86814 0.0
H2247 H 0.83799 0.73676 0.88488 0.0
H2248 H 0.78385 0.75794 0.82174 0.0
H2249 H 0.84368 0.8072 0.86113 0.0
H2250 H 0.76028 0.74007 0.87011 0.0
H2251 H 0.77454 0.71753 0.85962 0.0
H2252 H 0.7602 0.72961 0.83851 0.0
H2253 H 0.83218 0.80114 0.91833 0.0
H2254 H 0.85394 0.81043 0.90158 0.0
H2255 H 0.84774 0.77992 0.90809 0.0
C2256 C 0.84717 0.09216 0.03643 0.0
C2257 C 0.84077 0.10786 0.02323 0.0
C2258 C 0.86414 0.08157 0.03042 0.0
C2259 C 0.87396 0.08599 0.01013 0.0
C2260 C 0.86697 0.10133 0.99639 0.0
C2261 C 0.85071 0.11253 1.00345 0.0
C2262 C 0.87162 0.06577 0.04577 0.0
C2263 C 0.87629 0.10544 0.974 0.0
C2264 C 0.9305 0.0778 0.00803 0.0
C2265 C 0.92613 0.05294 0.99513 0.0
C2266 C 0.91363 0.08895 0.01266 0.0
C2267 C 0.89195 0.07508 1.0037 0.0
C2268 C 0.88748 0.05054 0.98943 0.0
C2269 C 0.90464 0.03964 0.98552 0.0
C2270 C 0.91896 0.11526 0.02783 0.0
C2271 C 0.86455 0.03557 0.97887 0.0
H2272 H 0.83908 0.08841 0.05148 0.0
H2273 H 0.84512 0.1242 0.99292 0.0
H2274 H 0.86945 0.04657 0.03503 0.0
H2275 H 0.88921 0.07369 0.05253 0.0
H2276 H 0.8626 0.06465 0.0612 0.0
H2277 H 0.86849 0.11729 0.96496 0.0
H2278 H 0.894 0.11449 0.97826 0.0
H2279 H 0.8741 0.08721 0.96135 0.0
H2280 H 0.94713 0.08845 0.01487 0.0
H2281 H 0.90112 0.02042 0.97557 0.0
H2282 H 0.9113 0.11517 0.04428 0.0
H2283 H 0.91223 0.12738 0.01815 0.0
H2284 H 0.93674 0.12369 0.03298 0.0
H2285 H 0.85529 0.03058 0.99328 0.0
H2286 H 0.86412 0.01805 0.96587 0.0
H2287 H 0.85608 0.04681 0.96979 0.0
C2288 C 0.40334 0.43639 0.05137 0.0
C2289 C 0.38541 0.43793 0.03657 0.0
C2290 C 0.42466 0.44908 0.04948 0.0
C2291 C 0.42829 0.46333 0.03203 0.0
C2292 C 0.41031 0.464 0.01628 0.0
C2293 C 0.38908 0.45153 0.01891 0.0
C2294 C 0.44324 0.44809 0.06686 0.0
C2295 C 0.41342 0.47859 0.99718 0.0
C2296 C 0.47916 0.51806 0.04681 0.0
C2297 C 0.49352 0.50874 0.03294 0.0
C2298 C 0.45778 0.50374 0.04608 0.0
C2299 C 0.45065 0.47912 0.03166 0.0
C2300 C 0.46513 0.46954 0.01767 0.0
C2301 C 0.48629 0.48463 0.01819 0.0
C2302 C 0.44282 0.51499 0.06086 0.0
C2303 C 0.45837 0.44325 1.00242 0.0
H2304 H 0.40067 0.42603 0.06515 0.0
H2305 H 0.37533 0.45267 0.0073 0.0
H2306 H 0.45607 0.44248 0.05717 0.0
H2307 H 0.45066 0.46695 0.07854 0.0
H2308 H 0.43792 0.43484 0.07828 0.0
H2309 H 0.3981 0.47533 0.98498 0.0
H2310 H 0.4194 0.49886 1.00557 0.0
H2311 H 0.42586 0.47345 0.98652 0.0
H2312 H 0.48453 0.53683 0.05801 0.0
H2313 H 0.49731 0.4774 0.0074 0.0
H2314 H 0.4378 0.50393 0.07416 0.0
H2315 H 0.42785 0.51435 0.0493 0.0
H2316 H 0.45057 0.53471 0.07042 0.0
H2317 H 0.45424 0.42972 0.01382 0.0
H2318 H 0.47135 0.43873 0.99225 0.0
H2319 H 0.44357 0.44063 0.98969 0.0
C2320 C 0.39547 0.6486 0.79383 0.0
C2321 C 0.39522 0.62944 0.77364 0.0
C2322 C 0.38554 0.66865 0.793 0.0
C2323 C 0.37384 0.67033 0.7715 0.0
C2324 C 0.37344 0.65108 0.75093 0.0
C2325 C 0.38417 0.63149 0.75212 0.0
C2326 C 0.3875 0.6882 0.81559 0.0
C2327 C 0.36117 0.65086 0.72747 0.0
C2328 C 0.32902 0.70798 0.77611 0.0
C2329 C 0.33893 0.73159 0.77165 0.0
C2330 C 0.33988 0.6885 0.77603 0.0
C2331 C 0.36168 0.69147 0.77097 0.0
C2332 C 0.37181 0.71523 0.76634 0.0
C2333 C 0.36063 0.7346 0.76685 0.0
C2334 C 0.32779 0.66443 0.78156 0.0
C2335 C 0.39477 0.72035 0.7608 0.0
H2336 H 0.40378 0.64806 0.81076 0.0
H2337 H 0.38324 0.61727 0.73617 0.0
H2338 H 0.39404 0.70714 0.81253 0.0
H2339 H 0.3712 0.68732 0.82095 0.0
H2340 H 0.39825 0.68573 0.83053 0.0
H2341 H 0.36231 0.63529 0.71295 0.0
H2342 H 0.34379 0.64904 0.72925 0.0
H2343 H 0.36755 0.66882 0.72239 0.0
H2344 H 0.31246 0.70462 0.77994 0.0
H2345 H 0.36899 0.75221 0.76319 0.0
H2346 H 0.33656 0.66142 0.79765 0.0
H2347 H 0.32717 0.64845 0.76662 0.0
H2348 H 0.31094 0.66434 0.78472 0.0
H2349 H 0.40584 0.71917 0.77611 0.0
H2350 H 0.40047 0.73907 0.7569 0.0
H2351 H 0.39593 0.70592 0.74523 0.0
C2352 C 0.21527 0.58269 0.51051 0.0
C2353 C 0.22859 0.60712 0.51556 0.0
C2354 C 0.1984 0.57632 0.52368 0.0
C2355 C 0.19486 0.59516 0.54184 0.0
C2356 C 0.21094 0.6182 0.54991 0.0
C2357 C 0.22785 0.62404 0.53649 0.0
C2358 C 0.1821 0.5511 0.51509 0.0
C2359 C 0.20813 0.63818 0.56999 0.0
C2360 C 0.13669 0.59596 0.52893 0.0
C2361 C 0.12693 0.58214 0.54437 0.0
C2362 C 0.15915 0.60199 0.5293 0.0
C2363 C 0.17215 0.59397 0.54563 0.0
C2364 C 0.16255 0.58195 0.56273 0.0
C2365 C 0.13989 0.57615 0.56191 0.0
C2366 C 0.1686 0.61503 0.51071 0.0
C2367 C 0.17573 0.5733 0.58056 0.0
H2368 H 0.2162 0.56959 0.49439 0.0
H2369 H 0.23841 0.6429 0.54042 0.0
H2370 H 0.1758 0.54393 0.53027 0.0
H2371 H 0.16814 0.55292 0.50346 0.0
H2372 H 0.1893 0.53721 0.50462 0.0
H2373 H 0.22352 0.65305 0.57675 0.0
H2374 H 0.19574 0.64694 0.56353 0.0
H2375 H 0.2023 0.62995 0.58484 0.0
H2376 H 0.12661 0.60083 0.51558 0.0
H2377 H 0.13229 0.56534 0.57384 0.0
H2378 H 0.1748 0.60203 0.49781 0.0
H2379 H 0.18242 0.63143 0.51917 0.0
H2380 H 0.15642 0.62152 0.5006 0.0
H2381 H 0.17602 0.55381 0.57292 0.0
H2382 H 0.16827 0.57336 0.59717 0.0
H2383 H 0.19274 0.5851 0.58511 0.0
C2384 C 0.7045 0.97501 0.75764 0.0
C2385 C 0.70827 1.00051 0.76738 0.0
C2386 C 0.72186 0.96409 0.75733 0.0
C2387 C 0.74316 0.97936 0.76653 0.0
C2388 C 0.7471 1.00553 0.7741 0.0
C2389 C 0.72946 0.0158 0.7747 0.0
C2390 C 0.71719 0.93605 0.74921 0.0
C2391 C 0.76964 0.02243 0.78355 0.0
C2392 C 0.77873 0.94964 0.79962 0.0
C2393 C 0.79169 0.94308 0.78254 0.0
C2394 C 0.76307 0.96191 0.79467 0.0
C2395 C 0.7605 0.96772 0.77213 0.0
C2396 C 0.77415 0.96209 0.75516 0.0
C2397 C 0.78962 0.94966 0.76056 0.0
C2398 C 0.7488 0.96787 0.81325 0.0
C2399 C 0.77198 0.96851 0.73116 0.0
H2400 H 0.68797 0.96348 0.7518 0.0
H2401 H 0.73215 0.03571 0.78173 0.0
H2402 H 0.72903 0.93093 0.73763 0.0
H2403 H 0.71887 0.92798 0.765 0.0
H2404 H 0.70051 0.92743 0.73937 0.0
H2405 H 0.77045 0.04227 0.78378 0.0
H2406 H 0.77431 0.02108 0.80205 0.0
H2407 H 0.78178 0.01671 0.77272 0.0
H2408 H 0.78016 0.94415 0.81646 0.0
H2409 H 0.7998 0.94458 0.74746 0.0
H2410 H 0.73154 0.95804 0.80616 0.0
H2411 H 0.75014 0.98821 0.8176 0.0
H2412 H 0.75316 0.96231 0.82998 0.0
H2413 H 0.75612 0.9573 0.72062 0.0
H2414 H 0.78513 0.96479 0.72087 0.0
H2415 H 0.77228 0.98849 0.73335 0.0
C2416 C 0.74729 0.91676 0.52744 0.0
C2417 C 0.76727 0.93491 0.53066 0.0
C2418 C 0.72741 0.92296 0.52357 0.0
C2419 C 0.7275 0.94794 0.52319 0.0
C2420 C 0.74762 0.96609 0.52581 0.0
C2421 C 0.76712 0.95936 0.52939 0.0
C2422 C 0.70632 0.90293 0.52026 0.0
C2423 C 0.74861 0.99294 0.52556 0.0
C2424 C 0.67901 0.96848 0.49929 0.0
C2425 C 0.67175 0.97826 0.52043 0.0
C2426 C 0.69632 0.9572 0.49971 0.0
C2427 C 0.70683 0.95586 0.52181 0.0
C2428 C 0.69899 0.9648 0.54308 0.0
C2429 C 0.68159 0.9758 0.54213 0.0
C2430 C 0.70388 0.9476 0.47655 0.0
C2431 C 0.70973 0.96398 0.56707 0.0
H2432 H 0.74717 0.89776 0.52811 0.0
H2433 H 0.78237 0.97358 0.53167 0.0
H2434 H 0.6971 0.90741 0.53513 0.0
H2435 H 0.69606 0.90225 0.50355 0.0
H2436 H 0.70893 0.88415 0.51959 0.0
H2437 H 0.76552 1.00462 0.52703 0.0
H2438 H 0.73925 0.99386 0.50887 0.0
H2439 H 0.74106 1.00116 0.54061 0.0
H2440 H 0.67133 0.96993 0.48239 0.0
H2441 H 0.67636 0.98353 0.55861 0.0
H2442 H 0.70575 0.9285 0.47558 0.0
H2443 H 0.72003 0.95978 0.4756 0.0
H2444 H 0.69245 0.94719 0.46081 0.0
H2445 H 0.71101 0.94481 0.56702 0.0
H2446 H 0.70072 0.9699 0.58174 0.0
H2447 H 0.72649 0.9765 0.57081 0.0
C2448 C 0.37898 0.47657 0.75338 0.0
C2449 C 0.39294 0.49193 0.77395 0.0
C2450 C 0.36759 0.45111 0.75235 0.0
C2451 C 0.37032 0.43988 0.77205 0.0
C2452 C 0.38511 0.45513 0.79238 0.0
C2453 C 0.39575 0.48056 0.79317 0.0
C2454 C 0.35197 0.43638 0.7303 0.0
C2455 C 0.38938 0.44476 0.81381 0.0
C2456 C 0.32364 0.38571 0.78187 0.0
C2457 C 0.33036 0.36376 0.77438 0.0
C2458 C 0.3363 0.40995 0.78125 0.0
C2459 C 0.35657 0.41329 0.7724 0.0
C2460 C 0.3636 0.3912 0.76479 0.0
C2461 C 0.35065 0.367 0.766 0.0
C2462 C 0.32779 0.4322 0.79016 0.0
C2463 C 0.38477 0.39307 0.75497 0.0
H2464 H 0.37623 0.48473 0.73839 0.0
H2465 H 0.4064 0.4918 0.80924 0.0
H2466 H 0.35576 0.41838 0.72351 0.0
H2467 H 0.33519 0.43189 0.73477 0.0
H2468 H 0.35242 0.44676 0.71592 0.0
H2469 H 0.40262 0.45795 0.82739 0.0
H2470 H 0.37439 0.44064 0.82217 0.0
H2471 H 0.39382 0.42693 0.80832 0.0
H2472 H 0.30813 0.38397 0.78838 0.0
H2473 H 0.35621 0.35056 0.75977 0.0
H2474 H 0.32601 0.44211 0.77573 0.0
H2475 H 0.33956 0.4456 0.80503 0.0
H2476 H 0.31185 0.42682 0.7965 0.0
H2477 H 0.38413 0.40067 0.73878 0.0
H2478 H 0.38847 0.37468 0.75031 0.0
H2479 H 0.39827 0.40627 0.76817 0.0
C2480 C 0.20061 0.61118 0.24684 0.0
C2481 C 0.19616 0.61063 0.27007 0.0
C2482 C 0.21429 0.63235 0.24207 0.0
C2483 C 0.22364 0.65339 0.26098 0.0
C2484 C 0.2188 0.6533 0.28434 0.0
C2485 C 0.20509 0.63183 0.28863 0.0
C2486 C 0.2192 0.63197 0.21697 0.0
C2487 C 0.22846 0.67567 0.30488 0.0
C2488 C 0.27652 0.69919 0.25887 0.0
C2489 C 0.26912 0.7193 0.25463 0.0
C2490 C 0.2617 0.67693 0.25981 0.0
C2491 C 0.2392 0.67526 0.25663 0.0
C2492 C 0.23174 0.69527 0.25112 0.0
C2493 C 0.24694 0.71726 0.25026 0.0
C2494 C 0.27014 0.65584 0.2656 0.0
C2495 C 0.20785 0.69402 0.24756 0.0
H2496 H 0.19373 0.59488 0.23237 0.0
H2497 H 0.20156 0.63159 0.30656 0.0
H2498 H 0.21583 0.64832 0.21115 0.0
H2499 H 0.2367 0.63336 0.21644 0.0
H2500 H 0.20953 0.61466 0.20403 0.0
H2501 H 0.22204 0.67304 0.32166 0.0
H2502 H 0.24638 0.67914 0.30798 0.0
H2503 H 0.225 0.69267 0.30058 0.0
H2504 H 0.29384 0.70131 0.26253 0.0
H2505 H 0.24156 0.73327 0.24727 0.0
H2506 H 0.26174 0.638 0.2527 0.0
H2507 H 0.2667 0.65348 0.28357 0.0
H2508 H 0.28792 0.65931 0.26537 0.0
H2509 H 0.19876 0.67685 0.23414 0.0
H2510 H 0.20478 0.71051 0.24168 0.0
H2511 H 0.20122 0.69308 0.26452 0.0
C2512 C 0.53579 0.71387 0.46474 0.0
C2513 C 0.51392 0.71079 0.456 0.0
C2514 C 0.54226 0.69573 0.47509 0.0
C2515 C 0.52665 0.67348 0.47596 0.0
C2516 C 0.50456 0.67038 0.46723 0.0
C2517 C 0.49846 0.68915 0.45775 0.0
C2518 C 0.56586 0.70024 0.48479 0.0
C2519 C 0.48737 0.64684 0.46722 0.0
C2520 C 0.54379 0.61348 0.4767 0.0
C2521 C 0.54336 0.61187 0.50048 0.0
C2522 C 0.53911 0.63378 0.46873 0.0
C2523 C 0.53339 0.65282 0.48482 0.0
C2524 C 0.53312 0.65131 0.50899 0.0
C2525 C 0.53829 0.63096 0.51657 0.0
C2526 C 0.53993 0.63462 0.44294 0.0
C2527 C 0.52701 0.67097 0.52677 0.0
H2528 H 0.54785 0.73054 0.46359 0.0
H2529 H 0.48157 0.68643 0.45084 0.0
H2530 H 0.56742 0.69746 0.50323 0.0
H2531 H 0.57285 0.68653 0.4738 0.0
H2532 H 0.5756 0.71938 0.48492 0.0
H2533 H 0.47086 0.64744 0.46024 0.0
H2534 H 0.49116 0.63047 0.45609 0.0
H2535 H 0.48725 0.64381 0.48555 0.0
H2536 H 0.54785 0.59877 0.46428 0.0
H2537 H 0.53792 0.62969 0.53497 0.0
H2538 H 0.55118 0.65244 0.44168 0.0
H2539 H 0.52361 0.63393 0.43423 0.0
H2540 H 0.54537 0.61888 0.4329 0.0
H2541 H 0.53766 0.68973 0.52721 0.0
H2542 H 0.52829 0.66763 0.54503 0.0
H2543 H 0.51007 0.67125 0.52125 0.0
C2544 C 0.67417 0.31998 0.66372 0.0
C2545 C 0.65815 0.32181 0.67859 0.0
C2546 C 0.69445 0.31659 0.6723 0.0
C2547 C 0.69906 0.31515 0.6964 0.0
C2548 C 0.68288 0.3169 0.71135 0.0
C2549 C 0.66286 0.32011 0.70233 0.0
C2550 C 0.71102 0.31458 0.65561 0.0
C2551 C 0.68681 0.31574 0.73715 0.0
C2552 C 0.74481 0.28945 0.7208 0.0
C2553 C 0.76051 0.31154 0.73271 0.0
C2554 C 0.72518 0.29019 0.70791 0.0
C2555 C 0.72111 0.31355 0.70673 0.0
C2556 C 0.73749 0.33575 0.71776 0.0
C2557 C 0.75678 0.33446 0.73055 0.0
C2558 C 0.70832 0.26597 0.69659 0.0
C2559 C 0.73418 0.36111 0.71723 0.0
H2560 H 0.6708 0.32098 0.64533 0.0
H2561 H 0.65082 0.32144 0.71418 0.0
H2562 H 0.72607 0.32993 0.66245 0.0
H2563 H 0.71549 0.29673 0.65475 0.0
H2564 H 0.70496 0.31542 0.63731 0.0
H2565 H 0.67241 0.31661 0.74631 0.0
H2566 H 0.69112 0.29821 0.73846 0.0
H2567 H 0.70073 0.33153 0.7468 0.0
H2568 H 0.74736 0.27163 0.72253 0.0
H2569 H 0.76876 0.35165 0.73968 0.0
H2570 H 0.70245 0.2657 0.67791 0.0
H2571 H 0.6941 0.26433 0.70637 0.0
H2572 H 0.7147 0.24945 0.69676 0.0
H2573 H 0.72907 0.362 0.69869 0.0
H2574 H 0.74912 0.37648 0.72479 0.0
H2575 H 0.72101 0.3643 0.72767 0.0
C2576 C 0.99619 0.34513 0.97221 0.0
C2577 C 0.01099 0.33398 0.96075 0.0
C2578 C 1.00179 0.37085 0.98281 0.0
C2579 C 0.02283 0.38589 0.9823 0.0
C2580 C 0.0382 0.37458 0.9718 0.0
C2581 C 0.03206 0.34883 0.961 0.0
C2582 C 0.98482 0.38212 0.99362 0.0
C2583 C 0.06088 0.38987 0.97112 0.0
C2584 C 0.02731 0.45434 0.9836 0.0
C2585 C 0.03661 0.46603 1.00717 0.0
C2586 C 0.02329 0.4284 0.97519 0.0
C2587 C 0.02805 0.41366 0.99097 0.0
C2588 C 0.03728 0.42547 0.01496 0.0
C2589 C 0.04181 0.45165 0.02268 0.0
C2590 C 0.01402 0.41678 0.94936 0.0
C2591 C 0.04214 0.41045 0.03249 0.0
H2592 H 0.97983 0.33396 0.97205 0.0
H2593 H 0.04368 0.34043 0.95234 0.0
H2594 H 0.99139 0.39343 0.01195 0.0
H2595 H 0.98043 0.39486 0.98296 0.0
H2596 H 0.96981 0.36768 0.99429 0.0
H2597 H 0.07149 0.37801 0.96428 0.0
H2598 H 0.06014 0.40306 0.95948 0.0
H2599 H 0.06846 0.40121 0.98918 0.0
H2600 H 0.02361 0.46565 0.97158 0.0
H2601 H 0.04907 0.46083 0.04091 0.0
H2602 H 0.99803 0.40319 0.94808 0.0
H2603 H 0.0249 0.40635 0.9407 0.0
H2604 H 0.01188 0.43095 0.93926 0.0
H2605 H 0.02697 0.39686 0.03414 0.0
H2606 H 0.04938 0.42244 0.05044 0.0
H2607 H 0.0535 0.39954 0.02593 0.0
C2608 C 0.01768 0.79518 0.14952 0.0
C2609 C 0.03736 0.79992 0.16461 0.0
C2610 C 0.99753 0.78982 0.15796 0.0
C2611 C 0.9969 0.78953 0.18228 0.0
C2612 C 0.01663 0.79324 0.1974 0.0
C2613 C 0.03658 0.79818 0.18836 0.0
C2614 C 0.97696 0.78544 0.14098 0.0
C2615 C 0.01676 0.79308 0.22344 0.0
C2616 C 0.94963 0.80615 0.21155 0.0
C2617 C 0.93694 0.78272 0.21317 0.0
C2618 C 0.96887 0.80852 0.20119 0.0
C2619 C 0.97583 0.78697 0.19222 0.0
C2620 C 0.96281 0.76319 0.19315 0.0
C2621 C 0.94358 0.76135 0.20353 0.0
C2622 C 0.98206 0.83422 0.20032 0.0
C2623 C 0.96934 0.73968 0.18345 0.0
H2624 H 0.01792 0.796 0.1311 0.0
H2625 H 0.05164 0.80188 0.20021 0.0
H2626 H 0.96472 0.76844 0.14248 0.0
H2627 H 0.96983 0.80144 0.14568 0.0
H2628 H 0.97995 0.78333 0.12216 0.0
H2629 H 0.03324 0.79484 0.23254 0.0
H2630 H 0.01081 0.80883 0.23254 0.0
H2631 H 1.00558 0.77556 0.22546 0.0
H2632 H 0.9449 0.82284 0.21909 0.0
H2633 H 0.93375 0.74308 0.20418 0.0
H2634 H 0.98446 0.83487 0.1817 0.0
H2635 H 0.99839 0.83844 0.21083 0.0
H2636 H 0.97421 0.84905 0.20746 0.0
H2637 H 0.97136 0.73823 0.16443 0.0
H2638 H 0.95722 0.72256 0.18499 0.0
H2639 H 0.98526 0.74041 0.19321 0.0
C2640 C 0.50294 0.32082 0.10186 0.0
C2641 C 0.51554 0.31234 0.11767 0.0
C2642 C 0.51258 0.33957 0.09076 0.0
C2643 C 0.53542 0.34966 0.09523 0.0
C2644 C 0.54832 0.34083 0.11077 0.0
C2645 C 0.53817 0.32236 0.12203 0.0
C2646 C 0.49827 0.34884 0.07452 0.0
C2647 C 0.57273 0.35099 0.11561 0.0
C2648 C 0.55455 0.38053 0.04641 0.0
C2649 C 0.55491 0.40537 0.05615 0.0
C2650 C 0.55008 0.36242 0.05981 0.0
C2651 C 0.5455 0.36933 0.08327 0.0
C2652 C 0.54752 0.39469 0.09385 0.0
C2653 C 0.55242 0.41251 0.08018 0.0
C2654 C 0.5485 0.33557 0.04817 0.0
C2655 C 0.54271 0.40274 0.11886 0.0
H2656 H 0.48543 0.31331 0.09866 0.0
H2657 H 0.54795 0.31577 0.13423 0.0
H2658 H 0.50067 0.36924 0.08107 0.0
H2659 H 0.50281 0.34576 0.05633 0.0
H2660 H 0.48075 0.33932 0.07335 0.0
H2661 H 0.58049 0.34095 0.12695 0.0
H2662 H 0.57957 0.34956 0.0986 0.0
H2663 H 0.57712 0.37108 0.1247 0.0
H2664 H 0.55639 0.37484 0.02785 0.0
H2665 H 0.55326 0.43184 0.08796 0.0
H2666 H 0.53116 0.32478 0.04386 0.0
H2667 H 0.5567 0.32685 0.06046 0.0
H2668 H 0.55583 0.33393 0.03143 0.0
H2669 H 0.52496 0.3963 0.11909 0.0
H2670 H 0.54797 0.42337 0.12555 0.0
H2671 H 0.55083 0.39412 0.1313 0.0
C2672 C 0.02716 0.29851 0.34214 0.0
C2673 C 0.04636 0.31363 0.33746 0.0
C2674 C 1.00706 0.30278 0.33597 0.0
C2675 C 1.00623 0.32257 0.32479 0.0
C2676 C 0.02556 0.3381 0.32026 0.0
C2677 C 0.04547 0.33336 0.32658 0.0
C2678 C 0.98672 0.2859 0.34113 0.0
C2679 C 0.02519 0.35958 0.30863 0.0
C2680 C 0.95389 0.31613 0.28575 0.0
C2681 C 0.94392 0.33094 0.301 0.0
C2682 C 0.97429 0.31336 0.29332 0.0
C2683 C 0.98497 0.32604 0.31653 0.0
C2684 C 0.97512 0.34137 0.33191 0.0
C2685 C 0.95452 0.34347 0.32398 0.0
C2686 C 0.98423 0.29651 0.27666 0.0
C2687 C 0.98622 0.35532 0.3567 0.0
H2688 H 0.02782 0.28326 0.3506 0.0
H2689 H 0.06034 0.34534 0.3233 0.0
H2690 H 0.97749 0.29716 0.35182 0.0
H2691 H 0.97602 0.27563 0.32417 0.0
H2692 H 0.99033 0.27209 0.35094 0.0
H2693 H 0.04178 0.37073 0.3076 0.0
H2694 H 0.01612 0.35233 0.29032 0.0
H2695 H 0.01659 0.37213 0.3187 0.0
H2696 H 0.94547 0.30624 0.26809 0.0
H2697 H 0.94671 0.355 0.33566 0.0
H2698 H 0.98687 0.28116 0.2848 0.0
H2699 H 1.00034 0.30718 0.27372 0.0
H2700 H 0.97384 0.28817 0.25912 0.0
H2701 H 0.98869 0.34187 0.36748 0.0
H2702 H 0.9767 0.36727 0.36601 0.0
H2703 H 1.00252 0.36728 0.35588 0.0
C2704 C 0.98488 0.67133 0.59384 0.0
C2705 C 0.99709 0.69104 0.61247 0.0
C2706 C 0.99391 0.65236 0.58316 0.0
C2707 C 0.01571 0.65339 0.59112 0.0
C2708 C 0.02781 0.67266 0.61053 0.0
C2709 C 0.01832 0.69116 0.62104 0.0
C2710 C 0.98046 0.6319 0.56262 0.0
C2711 C 0.05119 0.6746 0.61933 0.0
C2712 C 0.03729 0.59728 0.5691 0.0
C2713 C 0.04661 0.60385 0.54957 0.0
C2714 C 0.02722 0.61331 0.58306 0.0
C2715 C 0.02674 0.63632 0.57728 0.0
C2716 C 0.03677 0.64323 0.55795 0.0
C2717 C 0.04651 0.62685 0.5443 0.0
C2718 C 0.01654 0.60532 0.60345 0.0
C2719 C 0.03676 0.66767 0.55129 0.0
H2720 H 0.96842 0.67097 0.58728 0.0
H2721 H 0.02794 0.70628 0.63545 0.0
H2722 H 0.98693 0.63431 0.54585 0.0
H2723 H 0.9815 0.61333 0.56519 0.0
H2724 H 0.96311 0.63203 0.56049 0.0
H2725 H 0.05752 0.68899 0.63623 0.0
H2726 H 0.05294 0.65637 0.62216 0.0
H2727 H 0.06146 0.6796 0.60566 0.0
H2728 H 0.03707 0.57926 0.57285 0.0
H2729 H 0.0537 0.63183 0.52909 0.0
H2730 H 0.99879 0.60301 0.59984 0.0
H2731 H 0.02287 0.61996 0.62014 0.0
H2732 H 0.01925 0.58743 0.60629 0.0
H2733 H 0.01981 0.66823 0.54627 0.0
H2734 H 0.04584 0.67049 0.53615 0.0
H2735 H 0.04414 0.68355 0.56678 0.0
C2736 C 0.65707 0.82424 0.80929 0.0
C2737 C 0.65793 0.82506 0.83372 0.0
C2738 C 0.67569 0.82528 0.79831 0.0
C2739 C 0.69547 0.82686 0.8121 0.0
C2740 C 0.6967 0.82897 0.837 0.0
C2741 C 0.67783 0.82817 0.84758 0.0
C2742 C 0.6739 0.82313 0.77174 0.0
C2743 C 0.71757 0.83038 0.85216 0.0
C2744 C 0.73325 0.79283 0.78315 0.0
C2745 C 0.75071 0.81267 0.78172 0.0
C2746 C 0.71496 0.79731 0.79254 0.0
C2747 C 0.71385 0.82222 0.80005 0.0
C2748 C 0.73062 0.8423 0.79704 0.0
C2749 C 0.74905 0.83728 0.78799 0.0
C2750 C 0.69742 0.7754 0.7957 0.0
C2751 C 0.72952 0.86903 0.80434 0.0
H2752 H 0.64174 0.82227 0.79859 0.0
H2753 H 0.67853 0.82902 0.86651 0.0
H2754 H 0.68752 0.83704 0.76743 0.0
H2755 H 0.67492 0.80431 0.76271 0.0
H2756 H 0.65831 0.82585 0.76432 0.0
H2757 H 0.71636 0.83469 0.8715 0.0
H2758 H 0.72162 0.8122 0.84752 0.0
H2759 H 0.73122 0.84484 0.84864 0.0
H2760 H 0.7343 0.77372 0.77818 0.0
H2761 H 0.76244 0.85266 0.78674 0.0
H2762 H 0.68138 0.77555 0.78694 0.0
H2763 H 0.69635 0.77689 0.81494 0.0
H2764 H 0.70054 0.75714 0.78821 0.0
H2765 H 0.71406 0.87103 0.79581 0.0
H2766 H 0.74329 0.88232 0.79944 0.0
H2767 H 0.72974 0.87431 0.82389 0.0
C2768 C 0.48543 0.58971 0.67954 0.0
C2769 C 0.47442 0.5698 0.68913 0.0
C2770 C 0.49437 0.58612 0.65769 0.0
C2771 C 0.49308 0.56175 0.64407 0.0
C2772 C 0.48175 0.54139 0.65335 0.0
C2773 C 0.47256 0.54554 0.67528 0.0
C2774 C 0.50581 0.60884 0.64945 0.0
C2775 C 0.47994 0.51496 0.64044 0.0
C2776 C 0.50719 0.55502 0.57786 0.0
C2777 C 0.52963 0.55642 0.58061 0.0
C2778 C 0.49505 0.55602 0.59779 0.0
C2779 C 0.50506 0.55811 0.62158 0.0
C2780 C 0.52746 0.55857 0.62405 0.0
C2781 C 0.53916 0.55803 0.60412 0.0
C2782 C 0.47149 0.55576 0.59345 0.0
C2783 C 0.53953 0.5604 0.64819 0.0
H2784 H 0.48736 0.60867 0.68944 0.0
H2785 H 0.46461 0.52967 0.68197 0.0
H2786 H 0.52339 0.61 0.65024 0.0
H2787 H 0.49935 0.6073 0.63064 0.0
H2788 H 0.50398 0.62646 0.66052 0.0
H2789 H 0.46958 0.50101 0.64851 0.0
H2790 H 0.47311 0.51182 0.62145 0.0
H2791 H 0.49637 0.5118 0.64085 0.0
H2792 H 0.49923 0.55426 0.56035 0.0
H2793 H 0.55636 0.55929 0.60716 0.0
H2794 H 0.46932 0.57385 0.603 0.0
H2795 H 0.4614 0.5409 0.60071 0.0
H2796 H 0.46545 0.55265 0.57421 0.0
H2797 H 0.54096 0.57895 0.65994 0.0
H2798 H 0.55612 0.55798 0.64712 0.0
H2799 H 0.53042 0.54604 0.65673 0.0
C2800 C 0.80493 0.20948 0.96894 0.0
C2801 C 0.79163 0.19312 0.98001 0.0
C2802 C 0.79616 0.21691 0.94951 0.0
C2803 C 0.7736 0.20761 0.94101 0.0
C2804 C 0.76007 0.19111 0.95209 0.0
C2805 C 0.76924 0.1841 0.97153 0.0
C2806 C 0.81104 0.23475 0.93808 0.0
C2807 C 0.73605 0.18043 0.9432 0.0
C2808 C 0.75693 0.25191 0.90827 0.0
C2809 C 0.76069 0.24207 0.88528 0.0
C2810 C 0.75859 0.23921 0.92635 0.0
C2811 C 0.76435 0.21639 0.9212 0.0
C2812 C 0.76521 0.20476 0.89743 0.0
C2813 C 0.76327 0.21779 0.8796 0.0
C2814 C 0.75679 0.25168 0.95145 0.0
C2815 C 0.77055 0.17995 0.89123 0.0
H2816 H 0.8222 0.21635 0.97534 0.0
H2817 H 0.75884 0.17108 0.97975 0.0
H2818 H 0.81041 0.22607 0.91897 0.0
H2819 H 0.80555 0.25199 0.93902 0.0
H2820 H 0.82819 0.24009 0.9468 0.0
H2821 H 0.72733 0.17093 0.95595 0.0
H2822 H 0.72843 0.19525 0.93988 0.0
H2823 H 0.73374 0.16657 0.92602 0.0
H2824 H 0.75479 0.27059 0.91278 0.0
H2825 H 0.76546 0.2098 0.86161 0.0
H2826 H 0.77331 0.25968 0.96182 0.0
H2827 H 0.74753 0.23794 0.96051 0.0
H2828 H 0.74874 0.267 0.95181 0.0
H2829 H 0.78824 0.18281 0.89631 0.0
H2830 H 0.7663 0.17126 0.87185 0.0
H2831 H 0.76188 0.16679 0.90123 0.0
C2832 C 0.14152 0.53326 0.16388 0.0
C2833 C 0.12763 0.52321 0.17893 0.0
C2834 C 0.13323 0.54116 0.14437 0.0
C2835 C 0.11073 0.53924 0.14034 0.0
C2836 C 0.09698 0.53049 0.15632 0.0
C2837 C 0.10553 0.52222 0.17516 0.0
C2838 C 0.1483 0.55069 0.12772 0.0
C2839 C 0.073 0.5291 0.15312 0.0
C2840 C 0.08177 0.56802 0.09894 0.0
C2841 C 0.07046 0.54646 0.08189 0.0
C2842 C 0.09662 0.56662 0.11749 0.0
C2843 C 0.10059 0.54324 0.11812 0.0
C2844 C 0.09073 0.52204 0.09938 0.0
C2845 C 0.0752 0.52374 0.0818 0.0
C2846 C 0.10642 0.58957 0.13731 0.0
C2847 C 0.09537 0.49709 0.09888 0.0
H2848 H 0.15872 0.53457 0.16714 0.0
H2849 H 0.09483 0.51529 0.1872 0.0
H2850 H 0.14539 0.53627 0.11082 0.0
H2851 H 0.14509 0.5677 0.12319 0.0
H2852 H 0.16565 0.55506 0.13548 0.0
H2853 H 0.06515 0.52448 0.16859 0.0
H2854 H 0.07051 0.54717 0.15062 0.0
H2855 H 0.06462 0.51455 0.13694 0.0
H2856 H 0.07814 0.58565 0.09846 0.0
H2857 H 0.06672 0.50733 0.06803 0.0
H2858 H 0.1232 0.5903 0.14461 0.0
H2859 H 0.09648 0.58904 0.15204 0.0
H2860 H 0.10664 0.60698 0.1312 0.0
H2861 H 0.11308 0.49948 0.10309 0.0
H2862 H 0.08932 0.48385 0.08126 0.0
H2863 H 0.08732 0.48868 0.11261 0.0
C2864 C 0.83654 0.83135 0.46523 0.0
C2865 C 0.82519 0.84788 0.47612 0.0
C2866 C 0.83396 0.82287 0.44024 0.0
C2867 C 0.81982 0.8312 0.42549 0.0
C2868 C 0.80767 0.84709 0.43634 0.0
C2869 C 0.81041 0.85511 0.46141 0.0
C2870 C 0.84692 0.80554 0.42959 0.0
C2871 C 0.79242 0.85649 0.42142 0.0
C2872 C 0.83185 0.83142 0.36181 0.0
C2873 C 0.81552 0.81083 0.34832 0.0
C2874 C 0.83318 0.83848 0.38682 0.0
C2875 C 0.81837 0.82404 0.39879 0.0
C2876 C 0.80222 0.80279 0.38516 0.0
C2877 C 0.80074 0.79677 0.36013 0.0
C2878 C 0.85024 0.86168 0.40043 0.0
C2879 C 0.78658 0.78628 0.39702 0.0
H2880 H 0.84798 0.82551 0.47622 0.0
H2881 H 0.80157 0.86792 0.46941 0.0
H2882 H 0.83604 0.78892 0.4168 0.0
H2883 H 0.85885 0.81523 0.41953 0.0
H2884 H 0.85585 0.79915 0.44338 0.0
H2885 H 0.78343 0.86783 0.43245 0.0
H2886 H 0.80178 0.86812 0.41056 0.0
H2887 H 0.78048 0.84058 0.40886 0.0
H2888 H 0.84316 0.84246 0.35271 0.0
H2889 H 0.78818 0.78071 0.34975 0.0
H2890 H 0.86127 0.85678 0.41342 0.0
H2891 H 0.84236 0.87493 0.41072 0.0
H2892 H 0.8601 0.87128 0.38851 0.0
H2893 H 0.79574 0.77914 0.40996 0.0
H2894 H 0.77534 0.7701 0.38398 0.0
H2895 H 0.77681 0.79723 0.40716 0.0
C2896 C 0.45929 0.55834 0.85169 0.0
C2897 C 0.47184 0.56386 0.83364 0.0
C2898 C 0.46867 0.55535 0.87402 0.0
C2899 C 0.49155 0.55887 0.87955 0.0
C2900 C 0.5043 0.56507 0.86156 0.0
C2901 C 0.49442 0.56695 0.83908 0.0
C2902 C 0.45389 0.54796 0.89168 0.0
C2903 C 0.52866 0.56992 0.86609 0.0
C2904 C 0.51877 0.57241 0.94625 0.0
C2905 C 0.5221 0.54926 0.94882 0.0
C2906 C 0.50903 0.57577 0.9243 0.0
C2907 C 0.50205 0.5556 0.90364 0.0
C2908 C 0.50549 0.53225 0.90614 0.0
C2909 C 0.51526 0.52942 0.92826 0.0
C2910 C 0.50628 0.60121 0.92325 0.0
C2911 C 0.49872 0.50994 0.88526 0.0
H2912 H 0.4419 0.55565 0.84814 0.0
H2913 H 0.50461 0.5714 0.82575 0.0
H2914 H 0.45582 0.53026 0.8958 0.0
H2915 H 0.45846 0.56246 0.90861 0.0
H2916 H 0.43653 0.54537 0.88493 0.0
H2917 H 0.53661 0.57611 0.85124 0.0
H2918 H 0.53539 0.58449 0.88276 0.0
H2919 H 0.53292 0.55269 0.86856 0.0
H2920 H 0.52378 0.58813 0.96155 0.0
H2921 H 0.51752 0.51134 0.9294 0.0
H2922 H 0.48881 0.59995 0.91871 0.0
H2923 H 0.51475 0.60796 0.90897 0.0
H2924 H 0.51276 0.61519 0.94038 0.0
H2925 H 0.48112 0.50596 0.87885 0.0
H2926 H 0.50199 0.49293 0.8898 0.0
H2927 H 0.50756 0.51406 0.87029 0.0
C2928 C 0.77507 0.17888 0.09831 0.0
C2929 C 0.79403 0.18826 0.08895 0.0
C2930 C 0.77069 0.19191 0.12003 0.0
C2931 C 0.78573 0.2146 0.13267 0.0
C2932 C 0.80459 0.2243 0.12302 0.0
C2933 C 0.80838 0.21118 0.10135 0.0
C2934 C 0.75023 0.18126 0.12965 0.0
C2935 C 0.82127 0.24825 0.13594 0.0
C2936 C 0.77822 0.26551 0.18209 0.0
C2937 C 0.78877 0.26044 0.20195 0.0
C2938 C 0.7748 0.24904 0.15956 0.0
C2939 C 0.78306 0.22773 0.1568 0.0
C2940 C 0.79272 0.22196 0.17715 0.0
C2941 C 0.79508 0.23815 0.19952 0.0
C2942 C 0.76364 0.25531 0.13848 0.0
C2943 C 0.80246 0.20003 0.17508 0.0
H2944 H 0.76381 0.1613 0.08886 0.0
H2945 H 0.82302 0.21887 0.09437 0.0
H2946 H 0.75444 0.17548 0.14625 0.0
H2947 H 0.74137 0.19572 0.13427 0.0
H2948 H 0.73923 0.16479 0.11673 0.0
H2949 H 0.83507 0.25325 0.12594 0.0
H2950 H 0.8136 0.26394 0.13897 0.0
H2951 H 0.82783 0.24635 0.15366 0.0
H2952 H 0.77307 0.28258 0.18408 0.0
H2953 H 0.80328 0.23418 0.2149 0.0
H2954 H 0.75244 0.23822 0.12663 0.0
H2955 H 0.77598 0.26338 0.12792 0.0
H2956 H 0.75432 0.26911 0.14412 0.0
H2957 H 0.79089 0.18282 0.16394 0.0
H2958 H 0.80719 0.19653 0.19274 0.0
H2959 H 0.81719 0.20379 0.16621 0.0
C2960 C 0.1314 0.59327 0.2949 0.0
C2961 C 0.11974 0.56808 0.29007 0.0
C2962 C 0.13169 0.6093 0.31688 0.0
C2963 C 0.11972 0.59967 0.33387 0.0
C2964 C 0.10573 0.57498 0.32753 0.0
C2965 C 0.10618 0.55939 0.30572 0.0
C2966 C 0.14653 0.63546 0.3225 0.0
C2967 C 0.0922 0.56385 0.34475 0.0
C2968 C 0.13567 0.60478 0.39741 0.0
C2969 C 0.1168 0.60968 0.4053 0.0
C2970 C 0.13955 0.6059 0.37424 0.0
C2971 C 0.12441 0.61272 0.35936 0.0
C2972 C 0.1089 0.62388 0.3695 0.0
C2973 C 0.10494 0.62188 0.39254 0.0
C2974 C 0.15712 0.59502 0.36447 0.0
C2975 C 0.0939 0.63356 0.35465 0.0
H2976 H 0.14194 0.59983 0.28257 0.0
H2977 H 0.09737 0.53977 0.30178 0.0
H2978 H 0.14206 0.64807 0.33739 0.0
H2979 H 0.16347 0.63481 0.32744 0.0
H2980 H 0.14627 0.64347 0.30652 0.0
H2981 H 0.0809 0.5453 0.33613 0.0
H2982 H 0.10304 0.56147 0.3596 0.0
H2983 H 0.08245 0.57637 0.35238 0.0
H2984 H 0.14538 0.59634 0.40784 0.0
H2985 H 0.09072 0.62653 0.39894 0.0
H2986 H 0.16496 0.60551 0.35193 0.0
H2987 H 0.14977 0.57534 0.3546 0.0
H2988 H 0.16978 0.59517 0.37893 0.0
H2989 H 0.10238 0.64205 0.3412 0.0
H2990 H 0.08748 0.64763 0.366 0.0
H2991 H 0.07992 0.61782 0.34505 0.0
C2992 C 0.8029 0.84068 0.60669 0.0
C2993 C 0.82282 0.85657 0.60454 0.0
C2994 C 0.79974 0.83217 0.62791 0.0
C2995 C 0.8166 0.84031 0.64779 0.0
C2996 C 0.83632 0.85722 0.64588 0.0
C2997 C 0.83924 0.86478 0.62437 0.0
C2998 C 0.77857 0.81386 0.62883 0.0
C2999 C 0.85466 0.86694 0.66645 0.0
C3000 C 0.80541 0.83174 0.71055 0.0
C3001 C 0.81175 0.8099 0.71151 0.0
C3002 C 0.80658 0.84172 0.68994 0.0
C3003 C 0.81452 0.82979 0.66983 0.0
C3004 C 0.82132 0.80801 0.67108 0.0
C3005 C 0.8195 0.79821 0.69158 0.0
C3006 C 0.79883 0.86471 0.68948 0.0
C3007 C 0.83037 0.79479 0.6506 0.0
H3008 H 0.79011 0.83421 0.59153 0.0
H3009 H 0.85459 0.87735 0.62307 0.0
H3010 H 0.78161 0.79591 0.63094 0.0
H3011 H 0.77126 0.82106 0.64452 0.0
H3012 H 0.7667 0.81015 0.61249 0.0
H3013 H 0.86836 0.8813 0.6628 0.0
H3014 H 0.84872 0.87522 0.68278 0.0
H3015 H 0.86086 0.85126 0.67023 0.0
H3016 H 0.79855 0.84031 0.7254 0.0
H3017 H 0.824 0.78104 0.69191 0.0
H3018 H 0.78493 0.86018 0.67503 0.0
H3019 H 0.81192 0.87953 0.68554 0.0
H3020 H 0.79363 0.87222 0.70663 0.0
H3021 H 0.81799 0.78829 0.63444 0.0
H3022 H 0.83544 0.77844 0.65453 0.0
H3023 H 0.84465 0.8079 0.64641 0.0
C3024 C 0.7581 0.48823 0.50517 0.0
C3025 C 0.76359 0.46951 0.51484 0.0
C3026 C 0.74009 0.49668 0.51112 0.0
C3027 C 0.72762 0.48646 0.52751 0.0
C3028 C 0.73281 0.4672 0.53702 0.0
C3029 C 0.75064 0.45868 0.5303 0.0
C3030 C 0.7348 0.5171 0.50042 0.0
C3031 C 0.72013 0.45633 0.55495 0.0
C3032 C 0.69876 0.53209 0.55706 0.0
C3033 C 0.67843 0.52362 0.54273 0.0
C3034 C 0.71443 0.51883 0.55369 0.0
C3035 C 0.70973 0.49692 0.53522 0.0
C3036 C 0.68869 0.48721 0.52198 0.0
C3037 C 0.67319 0.50061 0.52605 0.0
C3038 C 0.73654 0.52932 0.56868 0.0
C3039 C 0.68308 0.46379 0.50226 0.0
H3040 H 0.76812 0.49657 0.49324 0.0
H3041 H 0.75502 0.44437 0.53806 0.0
H3042 H 0.71759 0.51123 0.4919 0.0
H3043 H 0.73689 0.53417 0.51467 0.0
H3044 H 0.74533 0.52195 0.4869 0.0
H3045 H 0.72653 0.44167 0.5609 0.0
H3046 H 0.7207 0.47133 0.57079 0.0
H3047 H 0.70281 0.44809 0.54717 0.0
H3048 H 0.70293 0.54981 0.57004 0.0
H3049 H 0.65722 0.49356 0.51548 0.0
H3050 H 0.74836 0.53805 0.55793 0.0
H3051 H 0.74243 0.51426 0.5744 0.0
H3052 H 0.73634 0.54372 0.58476 0.0
H3053 H 0.69151 0.46776 0.48698 0.0
H3054 H 0.66533 0.4569 0.49595 0.0
H3055 H 0.68871 0.44871 0.50824 0.0
C3056 C 0.21086 0.11927 0.51193 0.0
C3057 C 0.2176 0.14221 0.50532 0.0
C3058 C 0.18883 0.10792 0.51227 0.0
C3059 C 0.17275 0.11968 0.506 0.0
C3060 C 0.17939 0.14314 0.49985 0.0
C3061 C 0.20168 0.15407 0.49948 0.0
C3062 C 0.18273 0.08291 0.51885 0.0
C3063 C 0.16288 0.15652 0.49335 0.0
C3064 C 0.11639 0.07504 0.48254 0.0
C3065 C 0.106 0.07656 0.50292 0.0
C3066 C 0.13771 0.08962 0.48311 0.0
C3067 C 0.14908 0.10648 0.50456 0.0
C3068 C 0.13832 0.10887 0.52499 0.0
C3069 C 0.11697 0.09385 0.52396 0.0
C3070 C 0.14843 0.08614 0.46093 0.0
C3071 C 0.14964 0.12664 0.54821 0.0
H3072 H 0.22286 0.10982 0.51657 0.0
H3073 H 0.2066 0.17182 0.4945 0.0
H3074 H 0.17313 0.08394 0.53387 0.0
H3075 H 0.17236 0.06859 0.50353 0.0
H3076 H 0.19717 0.07657 0.52405 0.0
H3077 H 0.17061 0.1752 0.49029 0.0
H3078 H 0.15186 0.14515 0.47693 0.0
H3079 H 0.15269 0.15888 0.50772 0.0
H3080 H 0.10807 0.06183 0.46617 0.0
H3081 H 0.10908 0.09522 0.53979 0.0
H3082 H 0.1623 0.07816 0.46411 0.0
H3083 H 0.15502 0.10444 0.45656 0.0
H3084 H 0.13703 0.0735 0.4453 0.0
H3085 H 0.16299 0.11985 0.55567 0.0
H3086 H 0.13839 0.12845 0.5616 0.0
H3087 H 0.15704 0.14542 0.54524 0.0
C3088 C 0.20713 0.93521 0.76209 0.0
C3089 C 0.21608 0.95739 0.78018 0.0
C3090 C 0.21621 0.91387 0.75904 0.0
C3091 C 0.23512 0.91366 0.77422 0.0
C3092 C 0.24427 0.93608 0.79224 0.0
C3093 C 0.23487 0.95696 0.79495 0.0
C3094 C 0.20526 0.89116 0.73946 0.0
C3095 C 0.26418 0.93804 0.8092 0.0
C3096 C 0.24892 0.85011 0.78094 0.0
C3097 C 0.26646 0.84867 0.76787 0.0
C3098 C 0.23884 0.87056 0.78313 0.0
C3099 C 0.24543 0.89061 0.7714 0.0
C3100 C 0.26274 0.88883 0.75769 0.0
C3101 C 0.27303 0.8687 0.75651 0.0
C3102 C 0.22125 0.87095 0.79868 0.0
C3103 C 0.27058 0.90845 0.74402 0.0
H3104 H 0.19261 0.9342 0.75044 0.0
H3105 H 0.24244 0.97327 0.80917 0.0
H3106 H 0.2172 0.88624 0.7279 0.0
H3107 H 0.199 0.87498 0.74731 0.0
H3108 H 0.19153 0.89407 0.7283 0.0
H3109 H 0.26955 0.95628 0.82242 0.0
H3110 H 0.2608 0.92283 0.81889 0.0
H3111 H 0.27774 0.93567 0.79912 0.0
H3112 H 0.24341 0.83551 0.79027 0.0
H3113 H 0.28637 0.86859 0.74627 0.0
H3114 H 0.20602 0.87092 0.78798 0.0
H3115 H 0.22602 0.88839 0.81295 0.0
H3116 H 0.21794 0.85469 0.80707 0.0
H3117 H 0.25669 0.91017 0.73221 0.0
H3118 H 0.28307 0.90408 0.73298 0.0
H3119 H 0.2776 0.92688 0.75657 0.0
C3120 C 0.38588 0.99393 0.00825 0.0
C3121 C 0.38036 0.97787 0.02351 0.0
C3122 C 0.40769 1.00373 1.00605 0.0
C3123 C 0.42404 0.99727 0.01953 0.0
C3124 C 0.41852 0.98161 0.03545 0.0
C3125 C 0.3967 0.97209 0.03721 0.0
C3126 C 0.41324 0.02067 0.98918 0.0
C3127 C 0.4356 0.97461 0.05039 0.0
C3128 C 0.47942 0.99912 1.00165 0.0
C3129 C 0.49217 0.01953 0.01907 0.0
C3130 C 0.45681 0.99222 1.00079 0.0
C3131 C 0.44709 1.00669 0.01725 0.0
C3132 C 0.45994 0.02837 0.03372 0.0
C3133 C 0.48246 0.0343 0.03469 0.0
C3134 C 0.44351 0.96865 0.98338 0.0
C3135 C 0.45008 0.04453 0.05119 0.0
H3136 H 0.37318 0.99836 0.99766 0.0
H3137 H 0.39242 0.95992 0.04928 0.0
H3138 H 0.42492 0.03859 0.99879 0.0
H3139 H 0.42126 0.01186 0.9749 0.0
H3140 H 0.39865 0.02472 0.98079 0.0
H3141 H 0.42844 0.96216 0.06185 0.0
H3142 H 0.44526 0.96499 0.03867 0.0
H3143 H 0.44701 0.99167 0.06202 0.0
H3144 H 0.48718 0.98793 0.98957 0.0
H3145 H 0.49254 0.05044 0.04781 0.0
H3146 H 0.42943 0.97226 0.97351 0.0
H3147 H 0.43696 0.9543 0.99329 0.0
H3148 H 0.45324 0.96089 0.97036 0.0
H3149 H 0.46184 0.06277 0.0599 0.0
H3150 H 0.44476 0.0347 0.06526 0.0
H3151 H 0.43555 0.04808 0.04216 0.0
C3152 C 0.90835 0.60862 0.78059 0.0
C3153 C 0.90155 0.58668 0.78862 0.0
C3154 C 0.89334 0.61834 0.76936 0.0
C3155 C 0.87104 0.60542 0.76566 0.0
C3156 C 0.86423 0.58237 0.77235 0.0
C3157 C 0.87961 0.57342 0.78421 0.0
C3158 C 0.90124 0.64322 0.7629 0.0
C3159 C 0.84066 0.5677 0.76775 0.0
C3160 C 0.83443 0.64827 0.77096 0.0
C3161 C 0.82831 0.6479 0.74712 0.0
C3162 C 0.84774 0.63373 0.77709 0.0
C3163 C 0.85484 0.61826 0.75882 0.0
C3164 C 0.84799 0.61707 0.73457 0.0
C3165 C 0.83485 0.63225 0.72895 0.0
C3166 C 0.85509 0.63591 0.80316 0.0
C3167 C 0.85514 0.60056 0.7147 0.0
H3168 H 0.92545 0.6186 0.78374 0.0
H3169 H 0.87456 0.55599 0.78975 0.0
H3170 H 0.89437 0.64224 0.74438 0.0
H3171 H 0.89565 0.65763 0.77483 0.0
H3172 H 0.91924 0.64942 0.76463 0.0
H3173 H 0.83857 0.54839 0.77026 0.0
H3174 H 0.83149 0.57727 0.78019 0.0
H3175 H 0.83338 0.56674 0.74936 0.0
H3176 H 0.82936 0.6607 0.78485 0.0
H3177 H 0.83011 0.63232 0.71053 0.0
H3178 H 0.87302 0.64336 0.80722 0.0
H3179 H 0.85084 0.61723 0.80736 0.0
H3180 H 0.84764 0.64843 0.81509 0.0
H3181 H 0.87262 0.60841 0.71398 0.0
H3182 H 0.84584 0.59896 0.69708 0.0
H3183 H 0.85316 0.58158 0.718 0.0
C3184 C 0.83756 0.64027 0.02644 0.0
C3185 C 0.83909 0.66212 0.01809 0.0
C3186 C 0.85575 0.63087 0.0296 0.0
C3187 C 0.87608 0.64371 0.02448 0.0
C3188 C 0.87798 0.66648 0.01726 0.0
C3189 C 0.85949 0.67531 0.01402 0.0
C3190 C 0.85296 0.60654 0.03731 0.0
C3191 C 0.89936 0.68097 0.01192 0.0
C3192 C 0.92668 0.62529 0.04583 0.0
C3193 C 0.92937 0.6091 0.02517 0.0
C3194 C 0.90967 0.63702 0.04585 0.0
C3195 C 0.8948 0.63227 0.02477 0.0
C3196 C 0.89758 0.61615 1.00382 0.0
C3197 C 0.91481 0.60487 1.00426 0.0
C3198 C 0.9075 0.65436 0.06845 0.0
C3199 C 0.8821 0.61044 0.98098 0.0
H3200 H 0.82191 0.62991 0.02961 0.0
H3201 H 0.86093 0.69219 0.00756 0.0
H3202 H 0.85548 0.59205 0.02262 0.0
H3203 H 0.86532 0.60872 0.0528 0.0
H3204 H 0.83656 0.59976 0.04221 0.0
H3205 H 0.89873 0.69955 0.00896 0.0
H3206 H 0.91252 0.68369 0.02677 0.0
H3207 H 0.90375 0.67022 0.99571 0.0
H3208 H 0.93796 0.62887 0.06201 0.0
H3209 H 0.91652 0.59211 0.98831 0.0
H3210 H 0.89172 0.64695 0.07438 0.0
H3211 H 0.90761 0.67298 0.0651 0.0
H3212 H 0.92077 0.65676 0.08311 0.0
H3213 H 0.86536 0.6017 0.98387 0.0
H3214 H 0.88657 0.59766 0.9662 0.0
H3215 H 0.88182 0.62799 0.97544 0.0
C3216 C 0.23313 0.09744 0.77274 0.0
C3217 C 0.21807 0.09427 0.78899 0.0
C3218 C 0.24445 0.12163 0.76996 0.0
C3219 C 0.24083 0.14395 0.78347 0.0
C3220 C 0.22517 0.1407 0.79943 0.0
C3221 C 0.21435 0.11635 0.80212 0.0
C3222 C 0.26085 0.1233 0.75284 0.0
C3223 C 0.22002 0.16317 0.81411 0.0
C3224 C 0.28667 0.20678 0.79736 0.0
C3225 C 0.28065 0.22032 0.78106 0.0
C3226 C 0.27414 0.18251 0.79815 0.0
C3227 C 0.25443 0.17043 0.78235 0.0
C3228 C 0.24802 0.18404 0.76591 0.0
C3229 C 0.26105 0.20845 0.7654 0.0
C3230 C 0.28224 0.16963 0.81607 0.0
C3231 C 0.22731 0.1727 0.74864 0.0
H3232 H 0.2365 0.08091 0.7625 0.0
H3233 H 0.20294 0.1146 0.81481 0.0
H3234 H 0.25703 0.13426 0.73996 0.0
H3235 H 0.27726 0.13331 0.76278 0.0
H3236 H 0.26132 0.1046 0.74278 0.0
H3237 H 0.20648 0.15786 0.82437 0.0
H3238 H 0.23461 0.17474 0.8268 0.0
H3239 H 0.21561 0.175 0.80241 0.0
H3240 H 0.30158 0.21521 0.80971 0.0
H3241 H 0.25587 0.21817 0.7526 0.0
H3242 H 0.28447 0.15148 0.80675 0.0
H3243 H 0.27003 0.16557 0.82816 0.0
H3244 H 0.29789 0.18105 0.827 0.0
H3245 H 0.2286 0.15554 0.73635 0.0
H3246 H 0.22367 0.18578 0.73792 0.0
H3247 H 0.21347 0.16711 0.7584 0.0
C3248 C 0.37948 0.98581 0.29898 0.0
C3249 C 0.40112 0.99039 0.29492 0.0
C3250 C 0.36495 0.96225 0.28968 0.0
C3251 C 0.37263 0.94279 0.277 0.0
C3252 C 0.39403 0.94787 0.27132 0.0
C3253 C 0.40801 0.9718 0.28019 0.0
C3254 C 0.34184 0.9577 0.29491 0.0
C3255 C 0.40282 0.92756 0.25785 0.0
C3256 C 0.35168 0.88145 0.29352 0.0
C3257 C 0.33823 0.86702 0.27264 0.0
C3258 C 0.36311 0.90605 0.29486 0.0
C3259 C 0.36043 0.91666 0.27503 0.0
C3260 C 0.34657 0.90227 0.25391 0.0
C3261 C 0.33576 0.87732 0.25287 0.0
C3262 C 0.37832 0.92054 0.31745 0.0
C3263 C 0.34277 0.91324 0.23273 0.0
H3264 H 0.37396 1.00055 0.30959 0.0
H3265 H 0.42467 0.97559 0.27661 0.0
H3266 H 0.33037 0.94552 0.27915 0.0
H3267 H 0.34009 0.94799 0.30974 0.0
H3268 H 0.33718 0.97545 0.30017 0.0
H3269 H 0.41828 0.93535 0.25143 0.0
H3270 H 0.4059 0.91536 0.2698 0.0
H3271 H 0.3909 0.91565 0.24235 0.0
H3272 H 0.35376 0.87326 0.30866 0.0
H3273 H 0.32517 0.866 0.23678 0.0
H3274 H 0.37265 0.93677 0.3259 0.0
H3275 H 0.39488 0.92789 0.31325 0.0
H3276 H 0.3794 0.90895 0.33062 0.0
H3277 H 0.3327 0.92647 0.23706 0.0
H3278 H 0.33421 0.89862 0.21662 0.0
H3279 H 0.3583 0.92395 0.22851 0.0
C3280 C 0.59713 0.38654 0.57197 0.0
C3281 C 0.58309 0.38017 0.58834 0.0
C3282 C 0.59576 0.40617 0.5605 0.0
C3283 C 0.58018 0.41988 0.56568 0.0
C3284 C 0.56647 0.41381 0.58269 0.0
C3285 C 0.56804 0.39416 0.59358 0.0
C3286 C 0.61052 0.41175 0.54229 0.0
C3287 C 0.54977 0.42782 0.5892 0.0
C3288 C 0.58635 0.48562 0.55497 0.0
C3289 C 0.57015 0.48155 0.53547 0.0
C3290 C 0.59026 0.46575 0.56438 0.0
C3291 C 0.5781 0.44082 0.55383 0.0
C3292 C 0.5623 0.43645 0.53351 0.0
C3293 C 0.55833 0.4568 0.5248 0.0
C3294 C 0.60676 0.47163 0.58642 0.0
C3295 C 0.54917 0.41027 0.52131 0.0
H3296 H 0.60851 0.3756 0.56743 0.0
H3297 H 0.55702 0.38933 0.60611 0.0
H3298 H 0.60061 0.40877 0.52472 0.0
H3299 H 0.62005 0.43163 0.54732 0.0
H3300 H 0.62193 0.39979 0.54039 0.0
H3301 H 0.54091 0.42146 0.60342 0.0
H3302 H 0.55774 0.44814 0.59536 0.0
H3303 H 0.53775 0.42524 0.57329 0.0
H3304 H 0.59553 0.50458 0.56358 0.0
H3305 H 0.54586 0.4533 0.50968 0.0
H3306 H 0.61852 0.46024 0.58353 0.0
H3307 H 0.59839 0.46674 0.60147 0.0
H3308 H 0.61588 0.4917 0.59165 0.0
H3309 H 0.56008 0.39794 0.51741 0.0
H3310 H 0.53919 0.40966 0.50441 0.0
H3311 H 0.53817 0.40251 0.53329 0.0
C3312 C 0.45594 0.77956 0.35014 0.0
C3313 C 0.45641 0.77195 0.37178 0.0
C3314 C 0.43655 0.78129 0.33797 0.0
C3315 C 0.41692 0.7758 0.34777 0.0
C3316 C 0.41739 0.76894 0.37006 0.0
C3317 C 0.43702 0.7668 0.38164 0.0
C3318 C 0.43699 0.78826 0.31416 0.0
C3319 C 0.39706 0.76346 0.38151 0.0
C3320 C 0.37026 0.79806 0.32069 0.0
C3321 C 0.35824 0.77641 0.30386 0.0
C3322 C 0.38895 0.79801 0.33565 0.0
C3323 C 0.39584 0.77579 0.33386 0.0
C3324 C 0.38328 0.75374 0.31743 0.0
C3325 C 0.36476 0.75434 0.30274 0.0
C3326 C 0.40171 0.82195 0.35287 0.0
C3327 C 0.38985 0.72961 0.31473 0.0
H3328 H 0.47073 0.78348 0.34222 0.0
H3329 H 0.43714 0.76105 0.39837 0.0
H3330 H 0.42642 0.7726 0.30006 0.0
H3331 H 0.43047 0.80471 0.31442 0.0
H3332 H 0.45363 0.79266 0.30926 0.0
H3333 H 0.40036 0.76037 0.39966 0.0
H3334 H 0.38942 0.77917 0.38271 0.0
H3335 H 0.38511 0.74655 0.37034 0.0
H3336 H 0.36543 0.81524 0.32171 0.0
H3337 H 0.35559 0.73749 0.28988 0.0
H3338 H 0.41794 0.82838 0.34752 0.0
H3339 H 0.40437 0.81871 0.37104 0.0
H3340 H 0.3934 0.83708 0.35355 0.0
H3341 H 0.40585 0.73198 0.30826 0.0
H3342 H 0.37785 0.71381 0.30203 0.0
H3343 H 0.3917 0.72466 0.33223 0.0
C3344 C 0.07127 0.73348 0.09598 0.0
C3345 C 0.07717 0.75271 0.08407 0.0
C3346 C 0.07019 0.70868 0.08501 0.0
C3347 C 0.0755 0.70302 0.06165 0.0
C3348 C 0.08211 0.7226 0.04979 0.0
C3349 C 0.08258 0.74726 0.06105 0.0
C3350 C 0.06271 0.68841 0.09818 0.0
C3351 C 0.0882 0.7174 0.02505 0.0
C3352 C 0.08728 0.6396 0.04468 0.0
C3353 C 0.06691 0.62428 0.033 0.0
C3354 C 0.09066 0.66551 0.05306 0.0
C3355 C 0.07331 0.67644 0.04959 0.0
C3356 C 0.05311 0.66128 0.03661 0.0
C3357 C 0.05015 0.63543 0.02852 0.0
C3358 C 0.11246 0.68097 0.06673 0.0
C3359 C 0.0342 0.67212 0.03236 0.0
H3360 H 0.06677 0.73777 0.11366 0.0
H3361 H 0.08692 0.76219 0.05182 0.0
H3362 H 0.04755 0.67486 0.08811 0.0
H3363 H 0.07512 0.67795 0.09961 0.0
H3364 H 0.05956 0.69599 0.11639 0.0
H3365 H 0.09444 0.73482 0.01896 0.0
H3366 H 0.1008 0.70698 0.02454 0.0
H3367 H 0.07381 0.70544 0.0123 0.0
H3368 H 0.10037 0.63124 0.04822 0.0
H3369 H 0.03442 0.62385 0.01932 0.0
H3370 H 0.11084 0.68718 0.08576 0.0
H3371 H 0.11826 0.698 0.05993 0.0
H3372 H 0.12493 0.67034 0.0656 0.0
H3373 H 0.0285 0.6782 0.04956 0.0
H3374 H 0.02034 0.6584 0.01999 0.0
H3375 H 0.03928 0.68883 0.02492 0.0
C3376 C 0.08428 0.26039 0.85689 0.0
C3377 C 0.07592 0.27596 0.87347 0.0
C3378 C 0.1051 0.2686 0.8508 0.0
C3379 C 0.11804 0.29317 0.86134 0.0
C3380 C 0.10984 0.30903 0.87828 0.0
C3381 C 0.0889 0.30022 0.88419 0.0
C3382 C 0.11321 0.2509 0.83287 0.0
C3383 C 0.12294 0.33545 0.88973 0.0
C3384 C 0.1776 0.29946 0.85582 0.0
C3385 C 0.17905 0.3063 0.83387 0.0
C3386 C 0.1583 0.29697 0.86602 0.0
C3387 C 0.14001 0.30176 0.85422 0.0
C3388 C 0.14207 0.31108 0.83336 0.0
C3389 C 0.16145 0.31304 0.82333 0.0
C3390 C 0.15702 0.28737 0.88848 0.0
C3391 C 0.12324 0.31722 0.8206 0.0
H3392 H 0.07451 0.24161 0.84855 0.0
H3393 H 0.08257 0.31248 0.89692 0.0
H3394 H 0.11645 0.25881 0.8171 0.0
H3395 H 0.12875 0.24851 0.84078 0.0
H3396 H 0.10139 0.2322 0.82674 0.0
H3397 H 0.11567 0.34418 0.90481 0.0
H3398 H 0.13985 0.33595 0.89632 0.0
H3399 H 0.12379 0.34693 0.87626 0.0
H3400 H 0.19129 0.295 0.86459 0.0
H3401 H 0.16225 0.31839 0.80643 0.0
H3402 H 0.14678 0.26777 0.88406 0.0
H3403 H 0.14928 0.29853 0.90135 0.0
H3404 H 0.17329 0.28783 0.89722 0.0
H3405 H 0.11088 0.29963 0.81145 0.0
H3406 H 0.1284 0.32798 0.80709 0.0
H3407 H 0.11534 0.32817 0.83347 0.0
C3408 C 0.56737 0.75228 0.91098 0.0
C3409 C 0.58683 0.77102 0.91935 0.0
C3410 C 0.56221 0.7315 0.92077 0.0
C3411 C 0.57706 0.72945 0.93923 0.0
C3412 C 0.59759 0.74724 0.94639 0.0
C3413 C 0.60231 0.76808 0.93627 0.0
C3414 C 0.54008 0.71309 0.91285 0.0
C3415 C 0.61381 0.74518 0.96589 0.0
C3416 C 0.55443 0.69854 0.98677 0.0
C3417 C 0.55852 0.67514 0.98021 0.0
C3418 C 0.55993 0.71622 0.97314 0.0
C3419 C 0.57006 0.71035 0.9528 0.0
C3420 C 0.57334 0.68639 0.94547 0.0
C3421 C 0.56729 0.6689 0.95919 0.0
C3422 C 0.55549 0.74141 0.98093 0.0
C3423 C 0.58382 0.67954 0.92362 0.0
H3424 H 0.55555 0.75465 0.89763 0.0
H3425 H 0.61729 0.78273 0.94266 0.0
H3426 H 0.54122 0.69358 0.91055 0.0
H3427 H 0.52953 0.71626 0.92672 0.0
H3428 H 0.53205 0.71517 0.89585 0.0
H3429 H 0.62986 0.75883 0.96744 0.0
H3430 H 0.60758 0.74864 0.98319 0.0
H3431 H 0.61604 0.72604 0.96256 0.0
H3432 H 0.54773 0.70342 1.00306 0.0
H3433 H 0.56995 0.65053 0.95381 0.0
H3434 H 0.54603 0.7456 0.96601 0.0
H3435 H 0.57107 0.75624 0.98597 0.0
H3436 H 0.54633 0.74236 0.99636 0.0
H3437 H 0.57505 0.68312 0.90786 0.0
H3438 H 0.58411 0.65963 0.91967 0.0
H3439 H 0.60076 0.69146 0.92631 0.0
C3440 C 0.06813 0.77611 0.71732 0.0
C3441 C 0.05698 0.75328 0.70185 0.0
C3442 C 0.0889 0.77932 0.72917 0.0
C3443 C 0.09872 0.75943 0.72468 0.0
C3444 C 0.08735 0.7362 0.70926 0.0
C3445 C 0.06634 0.73329 0.69823 0.0
C3446 C 0.1005 0.80409 0.74591 0.0
C3447 C 0.09766 0.7148 0.70371 0.0
C3448 C 0.15907 0.77032 0.72871 0.0
C3449 C 0.16353 0.76128 0.74882 0.0
C3450 C 0.13809 0.77143 0.72148 0.0
C3451 C 0.12143 0.76321 0.73476 0.0
C3452 C 0.12623 0.75591 0.75613 0.0
C3453 C 0.14743 0.75506 0.76298 0.0
C3454 C 0.13348 0.77952 0.69867 0.0
C3455 C 0.10875 0.74728 0.77073 0.0
H3456 H 0.06058 0.79142 0.72018 0.0
H3457 H 0.05757 0.71575 0.68608 0.0
H3458 H 0.10714 0.80115 0.76314 0.0
H3459 H 0.11444 0.81369 0.73815 0.0
H3460 H 0.08965 0.81658 0.74941 0.0
H3461 H 0.08633 0.69781 0.6918 0.0
H3462 H 0.11218 0.72045 0.69493 0.0
H3463 H 0.10322 0.70998 0.72041 0.0
H3464 H 0.17181 0.77539 0.71806 0.0
H3465 H 0.15109 0.74806 0.77853 0.0
H3466 H 0.1239 0.79346 0.7014 0.0
H3467 H 0.12365 0.76314 0.68478 0.0
H3468 H 0.14862 0.78776 0.6919 0.0
H3469 H 0.09832 0.76033 0.77333 0.0
H3470 H 0.11567 0.74571 0.78846 0.0
H3471 H 0.09818 0.72868 0.7611 0.0
C3472 C 0.09922 0.402 0.41345 0.0
C3473 C 0.08191 0.38166 0.41411 0.0
C3474 C 0.10126 0.42578 0.42799 0.0
C3475 C 0.08605 0.42879 0.44391 0.0
C3476 C 0.06876 0.4082 0.44476 0.0
C3477 C 0.06677 0.38506 0.42967 0.0
C3478 C 0.11945 0.44765 0.42623 0.0
C3479 C 0.05239 0.41042 0.46184 0.0
C3480 C 0.09592 0.47802 0.50081 0.0
C3481 C 0.08048 0.49062 0.49568 0.0
C3482 C 0.09934 0.45884 0.48341 0.0
C3483 C 0.08778 0.45314 0.46012 0.0
C3484 C 0.07382 0.46759 0.45432 0.0
C3485 C 0.0696 0.48545 0.47246 0.0
C3486 C 0.11349 0.44306 0.49067 0.0
C3487 C 0.062 0.46283 0.42941 0.0
H3488 H 0.11095 0.39937 0.40146 0.0
H3489 H 0.05355 0.36936 0.4306 0.0
H3490 H 0.11264 0.46268 0.42184 0.0
H3491 H 0.1301 0.45558 0.44362 0.0
H3492 H 0.12954 0.44232 0.41246 0.0
H3493 H 0.04104 0.39207 0.46154 0.0
H3494 H 0.06084 0.41876 0.48032 0.0
H3495 H 0.04264 0.42291 0.45715 0.0
H3496 H 0.10425 0.48196 0.51884 0.0
H3497 H 0.05729 0.49478 0.46855 0.0
H3498 H 0.1246 0.43984 0.47748 0.0
H3499 H 0.10304 0.42452 0.49127 0.0
H3500 H 0.12331 0.45176 0.5085 0.0
H3501 H 0.07302 0.45972 0.41604 0.0
H3502 H 0.0554 0.47865 0.42683 0.0
H3503 H 0.04828 0.44572 0.42595 0.0
C3504 C 0.43947 0.23628 0.21046 0.0
C3505 C 0.44608 0.25079 0.19423 0.0
C3506 C 0.42253 0.23998 0.2232 0.0
C3507 C 0.41275 0.25914 0.22004 0.0
C3508 C 0.41892 0.27325 0.20307 0.0
C3509 C 0.43522 0.26846 0.18992 0.0
C3510 C 0.41567 0.22417 0.24068 0.0
C3511 C 0.40919 0.29433 0.19973 0.0
C3512 C 0.35751 0.25878 0.23669 0.0
C3513 C 0.36264 0.27767 0.25763 0.0
C3514 C 0.37377 0.25214 0.22458 0.0
C3515 C 0.39567 0.26427 0.23407 0.0
C3516 C 0.40106 0.2827 0.25578 0.0
C3517 C 0.38432 0.28955 0.2672 0.0
C3518 C 0.36749 0.2331 0.20103 0.0
C3519 C 0.4244 0.29563 0.26645 0.0
H3520 H 0.44813 0.22283 0.21385 0.0
H3521 H 0.44072 0.28011 0.17774 0.0
H3522 H 0.41864 0.23617 0.25896 0.0
H3523 H 0.39798 0.21498 0.23645 0.0
H3524 H 0.42455 0.20959 0.24052 0.0
H3525 H 0.41568 0.30325 0.1855 0.0
H3526 H 0.39127 0.28734 0.19521 0.0
H3527 H 0.41274 0.30886 0.21662 0.0
H3528 H 0.34065 0.24999 0.22905 0.0
H3529 H 0.38812 0.30419 0.28341 0.0
H3530 H 0.37584 0.21812 0.20114 0.0
H3531 H 0.37274 0.24222 0.18649 0.0
H3532 H 0.34969 0.22441 0.19687 0.0
H3533 H 0.43338 0.28158 0.26856 0.0
H3534 H 0.42577 0.30846 0.2841 0.0
H3535 H 0.43248 0.30653 0.25429 0.0
C3536 C 0.62195 0.51121 0.3495 0.0
C3537 C 0.64198 0.52785 0.3481 0.0
C3538 C 0.61171 0.51261 0.37067 0.0
C3539 C 0.62083 0.53182 0.39175 0.0
C3540 C 0.64097 0.54892 0.39035 0.0
C3541 C 0.65127 0.54657 0.36911 0.0
C3542 C 0.59075 0.49332 0.37028 0.0
C3543 C 0.65147 0.57041 0.41128 0.0
C3544 C 0.58051 0.54765 0.43675 0.0
C3545 C 0.58491 0.5368 0.45601 0.0
C3546 C 0.59234 0.54704 0.41677 0.0
C3547 C 0.60904 0.53435 0.41455 0.0
C3548 C 0.6136 0.52332 0.43398 0.0
C3549 C 0.60178 0.52471 0.4541 0.0
C3550 C 0.58635 0.55959 0.39754 0.0
C3551 C 0.63041 0.50878 0.43301 0.0
H3552 H 0.61413 0.49669 0.33377 0.0
H3553 H 0.66641 0.56002 0.36877 0.0
H3554 H 0.59119 0.48598 0.38664 0.0
H3555 H 0.57707 0.50207 0.36984 0.0
H3556 H 0.58741 0.47741 0.35449 0.0
H3557 H 0.6668 0.58241 0.40782 0.0
H3558 H 0.64007 0.58206 0.41553 0.0
H3559 H 0.65503 0.56326 0.42724 0.0
H3560 H 0.5672 0.55636 0.43702 0.0
H3561 H 0.60512 0.5152 0.46788 0.0
H3562 H 0.57756 0.54517 0.38145 0.0
H3563 H 0.60118 0.57087 0.39241 0.0
H3564 H 0.57577 0.57191 0.40321 0.0
H3565 H 0.62506 0.49225 0.41776 0.0
H3566 H 0.63313 0.5023 0.44961 0.0
H3567 H 0.64607 0.52039 0.42997 0.0
C3568 C 0.31703 0.87564 0.07169 0.0
C3569 C 0.32913 0.89138 0.05921 0.0
C3570 C 0.32641 0.87267 0.09328 0.0
C3571 C 0.34842 0.88563 0.10218 0.0
C3572 C 0.36027 0.90268 0.09035 0.0
C3573 C 0.35027 0.90567 0.06916 0.0
C3574 C 0.31311 0.85478 0.10592 0.0
C3575 C 0.38376 0.91674 0.09933 0.0
C3576 C 0.36233 0.88022 0.16465 0.0
C3577 C 0.36694 0.85693 0.15993 0.0
C3578 C 0.35825 0.8915 0.14602 0.0
C3579 C 0.35936 0.87928 0.12254 0.0
C3580 C 0.36742 0.85794 0.11833 0.0
C3581 C 0.37109 0.8469 0.1372 0.0
C3582 C 0.35005 0.91455 0.15115 0.0
C3583 C 0.36937 0.84482 0.09349 0.0
H3584 H 0.30049 0.86511 0.06418 0.0
H3585 H 0.35914 0.91919 0.06055 0.0
H3586 H 0.31974 0.83834 0.1052 0.0
H3587 H 0.31407 0.8639 0.12497 0.0
H3588 H 0.29575 0.84805 0.0978 0.0
H3589 H 0.38966 0.93179 0.08993 0.0
H3590 H 0.38611 0.92509 0.11873 0.0
H3591 H 0.39405 0.90354 0.09653 0.0
H3592 H 0.35971 0.88827 0.18244 0.0
H3593 H 0.37477 0.82895 0.13348 0.0
H3594 H 0.33205 0.90893 0.14712 0.0
H3595 H 0.35631 0.9275 0.13982 0.0
H3596 H 0.35471 0.92467 0.17017 0.0
H3597 H 0.35292 0.83449 0.08382 0.0
H3598 H 0.37925 0.83125 0.09377 0.0
H3599 H 0.3768 0.85851 0.08332 0.0
C3600 C 0.97592 0.52419 0.8576 0.0
C3601 C 0.98948 0.54229 0.84846 0.0
C3602 C 0.98361 0.51745 0.87807 0.0
C3603 C 1.00479 0.53027 0.89 0.0
C3604 C 0.01866 0.54799 0.88019 0.0
C3605 C 0.01091 0.55335 0.85916 0.0
C3606 C 0.96876 0.49756 0.88731 0.0
C3607 C 0.04117 0.56261 0.89273 0.0
C3608 C 0.02116 0.54915 0.95588 0.0
C3609 C 0.03705 0.53652 0.95829 0.0
C3610 C 0.0084 0.54498 0.93388 0.0
C3611 C 0.012 0.52797 0.9141 0.0
C3612 C 0.02664 0.51343 0.91716 0.0
C3613 C 0.03929 0.51811 0.93937 0.0
C3614 C 0.99259 0.56048 0.93134 0.0
C3615 C 0.03012 0.49439 0.89662 0.0
H3616 H 0.95935 0.5155 0.8489 0.0
H3617 H 0.02119 0.56743 0.85189 0.0
H3618 H 0.97803 0.48703 0.89641 0.0
H3619 H 0.95968 0.50645 0.90035 0.0
H3620 H 0.9567 0.48417 0.87264 0.0
H3621 H 0.04985 0.5755 0.88246 0.0
H3622 H 0.04004 0.57383 0.91043 0.0
H3623 H 0.05108 0.54969 0.89576 0.0
H3624 H 0.01951 0.5632 0.97084 0.0
H3625 H 0.05131 0.50793 0.94179 0.0
H3626 H 0.9766 0.54841 0.92189 0.0
H3627 H 0.99875 0.5741 0.92055 0.0
H3628 H 0.99021 0.57097 0.94884 0.0
H3629 H 0.01443 0.48374 0.88536 0.0
H3630 H 0.03816 0.48107 0.90289 0.0
H3631 H 0.0406 0.50409 0.88526 0.0
C3632 C 0.32254 0.2561 0.58804 0.0
C3633 C 0.3043 0.24155 0.5715 0.0
C3634 C 0.32103 0.26378 0.6124 0.0
C3635 C 0.30076 0.25697 0.62069 0.0
C3636 C 0.28208 0.24337 0.60396 0.0
C3637 C 0.28407 0.23576 0.57968 0.0
C3638 C 0.3414 0.27828 0.62947 0.0
C3639 C 0.26011 0.23589 0.61187 0.0
C3640 C 0.30397 0.25109 0.68539 0.0
C3641 C 0.29972 0.2732 0.69711 0.0
C3642 C 0.30354 0.24524 0.66051 0.0
C3643 C 0.29954 0.26234 0.64698 0.0
C3644 C 0.29523 0.28478 0.65881 0.0
C3645 C 0.29503 0.28975 0.68369 0.0
C3646 C 0.30768 0.22083 0.64875 0.0
C3647 C 0.29152 0.30389 0.64531 0.0
H3648 H 0.33829 0.26074 0.58214 0.0
H3649 H 0.26982 0.22464 0.5672 0.0
H3650 H 0.33872 0.29526 0.64077 0.0
H3651 H 0.34552 0.26665 0.64153 0.0
H3652 H 0.35551 0.28398 0.62008 0.0
H3653 H 0.24689 0.22732 0.59656 0.0
H3654 H 0.26024 0.22224 0.62314 0.0
H3655 H 0.25641 0.25238 0.62288 0.0
H3656 H 0.30757 0.23827 0.69577 0.0
H3657 H 0.292 0.30701 0.69279 0.0
H3658 H 0.32286 0.22455 0.64068 0.0
H3659 H 0.29425 0.21027 0.63415 0.0
H3660 H 0.30919 0.2089 0.66151 0.0
H3661 H 0.30641 0.3113 0.63777 0.0
H3662 H 0.28736 0.3198 0.65682 0.0
H3663 H 0.27825 0.29509 0.63014 0.0
C3664 C 0.63039 0.49354 0.17245 0.0
C3665 C 0.63134 0.50797 0.19571 0.0
C3666 C 0.62013 0.49836 0.15167 0.0
C3667 C 0.60957 0.51789 0.15336 0.0
C3668 C 0.61016 0.53242 0.17681 0.0
C3669 C 0.62114 0.52761 0.19738 0.0
C3670 C 0.62061 0.48226 0.12766 0.0
C3671 C 0.59844 0.55264 0.1803 0.0
C3672 C 0.599 0.54503 0.09759 0.0
C3673 C 0.5782 0.53032 0.08621 0.0
C3674 C 0.60922 0.54117 0.11897 0.0
C3675 C 0.59823 0.52292 0.13066 0.0
C3676 C 0.57684 0.5086 0.1196 0.0
C3677 C 0.56749 0.51195 0.09751 0.0
C3678 C 0.63229 0.55617 0.12859 0.0
C3679 C 0.56358 0.48945 0.13096 0.0
H3680 H 0.63791 0.47822 0.17034 0.0
H3681 H 0.62115 0.53884 0.2149 0.0
H3682 H 0.60403 0.47027 0.12015 0.0
H3683 H 0.62598 0.4941 0.11505 0.0
H3684 H 0.63159 0.46997 0.12875 0.0
H3685 H 0.5999 0.56211 0.19936 0.0
H3686 H 0.60498 0.56685 0.17028 0.0
H3687 H 0.58097 0.54443 0.17308 0.0
H3688 H 0.60771 0.55918 0.08925 0.0
H3689 H 0.55143 0.50041 0.08929 0.0
H3690 H 0.64274 0.54335 0.12983 0.0
H3691 H 0.6331 0.56743 0.14684 0.0
H3692 H 0.63905 0.56895 0.11725 0.0
H3693 H 0.56821 0.47169 0.12599 0.0
H3694 H 0.54591 0.48554 0.12477 0.0
H3695 H 0.5665 0.4957 0.15068 0.0
C3696 C 0.35045 0.89459 0.93667 0.0
C3697 C 0.33347 0.90098 0.94804 0.0
C3698 C 0.34642 0.87942 0.91367 0.0
C3699 C 0.32494 0.8708 0.90157 0.0
C3700 C 0.30793 0.8786 0.91216 0.0
C3701 C 0.31239 0.8936 0.9354 0.0
C3702 C 0.36497 0.87146 0.90291 0.0
C3703 C 0.28487 0.87004 0.89944 0.0
C3704 C 0.31739 0.84303 0.83538 0.0
C3705 C 0.31202 0.81737 0.83467 0.0
C3706 C 0.32151 0.8607 0.85706 0.0
C3707 C 0.32019 0.85242 0.87844 0.0
C3708 C 0.31504 0.82653 0.87787 0.0
C3709 C 0.31105 0.80925 0.8559 0.0
C3710 C 0.32705 0.88817 0.85707 0.0
C3711 C 0.31362 0.81711 0.90044 0.0
H3712 H 0.36688 0.90047 0.94615 0.0
H3713 H 0.2992 0.89854 0.944 0.0
H3714 H 0.36239 0.85103 0.90092 0.0
H3715 H 0.36555 0.87519 0.88487 0.0
H3716 H 0.38095 0.8812 0.91402 0.0
H3717 H 0.27397 0.87971 0.90913 0.0
H3718 H 0.28436 0.8734 0.88121 0.0
H3719 H 0.27845 0.84963 0.89762 0.0
H3720 H 0.31793 0.84934 0.81892 0.0
H3721 H 0.3068 0.78941 0.8553 0.0
H3722 H 0.34324 0.89787 0.86766 0.0
H3723 H 0.31507 0.89685 0.86565 0.0
H3724 H 0.32723 0.89145 0.83881 0.0
H3725 H 0.32944 0.8246 0.9123 0.0
H3726 H 0.30921 0.79637 0.89685 0.0
H3727 H 0.3013 0.82385 0.91024 0.0
C3728 C 0.98022 0.52316 0.738 0.0
C3729 C 0.96344 0.53477 0.73599 0.0
C3730 C 0.98019 0.502 0.72053 0.0
C3731 C 0.96317 0.49318 0.70104 0.0
C3732 C 0.94365 0.50023 0.70338 0.0
C3733 C 0.94416 0.52171 0.72068 0.0
C3734 C 1.00032 0.49279 0.72017 0.0
C3735 C 0.92416 0.48901 0.68439 0.0
C3736 C 0.98472 0.50585 0.64504 0.0
C3737 C 0.98735 0.48278 0.634 0.0
C3738 C 0.97651 0.50915 0.66647 0.0
C3739 C 0.96944 0.48833 0.67675 0.0
C3740 C 0.97031 0.46431 0.66454 0.0
C3741 C 0.97996 0.46193 0.64353 0.0
C3742 C 0.97735 0.53559 0.67877 0.0
C3743 C 0.96209 0.44127 0.67381 0.0
H3744 H 0.99485 0.53281 0.75054 0.0
H3745 H 0.93079 0.53023 0.71974 0.0
H3746 H 0.996 0.47227 0.71311 0.0
H3747 H 0.01082 0.50172 0.70835 0.0
H3748 H 0.00979 0.49749 0.73827 0.0
H3749 H 0.90896 0.49004 0.6919 0.0
H3750 H 0.92553 0.49967 0.67023 0.0
H3751 H 0.92317 0.46922 0.67616 0.0
H3752 H 0.99101 0.52207 0.63794 0.0
H3753 H 0.98223 0.44406 0.63499 0.0
H3754 H 0.98812 0.54091 0.69607 0.0
H3755 H 0.96087 0.53711 0.68178 0.0
H3756 H 0.98386 0.54945 0.66833 0.0
H3757 H 0.97614 0.43583 0.68165 0.0
H3758 H 0.95308 0.42543 0.65889 0.0
H3759 H 0.9513 0.44405 0.68749 0.0
C3760 C 0.28378 0.24631 0.43684 0.0
C3761 C 0.30182 0.23915 0.44567 0.0
C3762 C 0.28382 0.25613 0.41612 0.0
C3763 C 0.30198 0.25807 0.40345 0.0
C3764 C 0.31986 0.25014 0.412 0.0
C3765 C 0.31966 0.24117 0.43294 0.0
C3766 C 0.26463 0.26494 0.40806 0.0
C3767 C 0.33946 0.25132 0.39913 0.0
C3768 C 0.29981 0.26462 0.33846 0.0
C3769 C 0.31056 0.28989 0.34109 0.0
C3770 C 0.29598 0.25419 0.35847 0.0
C3771 C 0.30309 0.26936 0.38192 0.0
C3772 C 0.31351 0.29504 0.38467 0.0
C3773 C 0.31711 0.30486 0.36441 0.0
C3774 C 0.28497 0.22669 0.35451 0.0
C3775 C 0.32152 0.31213 0.40911 0.0
H3776 H 0.26992 0.24483 0.44642 0.0
H3777 H 0.33358 0.23531 0.43921 0.0
H3778 H 0.27002 0.28513 0.40826 0.0
H3779 H 0.25765 0.25487 0.38945 0.0
H3780 H 0.2517 0.26204 0.41957 0.0
H3781 H 0.3514 0.24289 0.40713 0.0
H3782 H 0.33434 0.24141 0.38013 0.0
H3783 H 0.34771 0.27106 0.3996 0.0
H3784 H 0.29487 0.25278 0.32093 0.0
H3785 H 0.32539 0.32449 0.36696 0.0
H3786 H 0.27085 0.22388 0.36439 0.0
H3787 H 0.29644 0.21712 0.36154 0.0
H3788 H 0.27927 0.21767 0.33535 0.0
H3789 H 0.30843 0.31019 0.42046 0.0
H3790 H 0.32725 0.33206 0.40836 0.0
H3791 H 0.33518 0.30679 0.4179 0.0
C3792 C 0.3383 0.59655 0.4966 0.0
C3793 C 0.33642 0.60702 0.52008 0.0
C3794 C 0.35602 0.58719 0.4914 0.0
C3795 C 0.37178 0.58767 0.51031 0.0
C3796 C 0.36986 0.59825 0.53415 0.0
C3797 C 0.35228 0.60828 0.53873 0.0
C3798 C 0.35788 0.57685 0.46573 0.0
C3799 C 0.38621 0.59869 0.55474 0.0
C3800 C 0.40394 0.53969 0.50003 0.0
C3801 C 0.42419 0.55426 0.49731 0.0
C3802 C 0.38668 0.55036 0.50408 0.0
C3803 C 0.38975 0.57616 0.50523 0.0
C3804 C 0.40997 0.59086 0.50178 0.0
C3805 C 0.42704 0.57974 0.49801 0.0
C3806 C 0.3653 0.53413 0.50766 0.0
C3807 C 0.41359 0.6183 0.50223 0.0
H3808 H 0.3261 0.59624 0.48224 0.0
H3809 H 0.35077 0.61682 0.55681 0.0
H3810 H 0.37408 0.58582 0.46159 0.0
H3811 H 0.35636 0.55652 0.46268 0.0
H3812 H 0.34519 0.57979 0.45311 0.0
H3813 H 0.38216 0.60722 0.5722 0.0
H3814 H 0.38699 0.57936 0.55481 0.0
H3815 H 0.40263 0.60938 0.55269 0.0
H3816 H 0.40177 0.52005 0.49968 0.0
H3817 H 0.44264 0.59095 0.49556 0.0
H3818 H 0.35202 0.53469 0.49433 0.0
H3819 H 0.36137 0.54143 0.52555 0.0
H3820 H 0.36556 0.51435 0.50607 0.0
H3821 H 0.40103 0.62097 0.4893 0.0
H3822 H 0.42988 0.62674 0.49791 0.0
H3823 H 0.41198 0.6286 0.52013 0.0
C3824 C 0.90156 0.92673 0.53502 0.0
C3825 C 0.88487 0.93876 0.5346 0.0
C3826 C 0.92296 0.93901 0.5328 0.0
C3827 C 0.928 0.96422 0.53075 0.0
C3828 C 0.9111 0.97629 0.52989 0.0
C3829 C 0.88975 0.96334 0.53151 0.0
C3830 C 0.9403 0.9252 0.53321 0.0
C3831 C 0.91569 1.00324 0.52816 0.0
C3832 C 0.98559 1.00586 0.55314 0.0
C3833 C 0.99416 1.00752 0.53189 0.0
C3834 C 0.96431 0.99149 0.55299 0.0
C3835 C 0.95109 0.97845 0.53102 0.0
C3836 C 0.95982 0.97964 0.50947 0.0
C3837 C 0.98128 0.99405 0.51017 0.0
C3838 C 0.95579 0.99074 0.5764 0.0
C3839 C 0.94634 0.96612 0.48567 0.0
H3840 H 0.89794 0.90769 0.53716 0.0
H3841 H 0.877 0.97285 0.53133 0.0
H3842 H 0.94908 0.92651 0.51765 0.0
H3843 H 0.95241 0.93394 0.54947 0.0
H3844 H 0.93349 0.90515 0.53299 0.0
H3845 H 0.90067 1.00962 0.52668 0.0
H3846 H 0.92682 0.01536 0.54419 0.0
H3847 H 0.92396 1.00587 0.51246 0.0
H3848 H 0.99546 0.01616 0.56999 0.0
H3849 H 0.98775 0.99532 0.49365 0.0
H3850 H 0.9502 0.97112 0.57806 0.0
H3851 H 0.94156 0.99863 0.57702 0.0
H3852 H 0.96824 1.00144 0.59195 0.0
H3853 H 0.94024 0.94592 0.48511 0.0
H3854 H 0.95565 0.96828 0.47058 0.0
H3855 H 0.93193 0.97339 0.48314 0.0
C3856 C 0.90047 0.15266 0.28875 0.0
C3857 C 0.89379 0.12922 0.27205 0.0
C3858 C 0.89027 0.1726 0.28828 0.0
C3859 C 0.8719 0.16984 0.27107 0.0
C3860 C 0.86499 0.14617 0.25413 0.0
C3861 C 0.87583 0.12663 0.2547 0.0
C3862 C 0.89908 0.19678 0.3068 0.0
C3863 C 0.84558 0.14118 0.23545 0.0
C3864 C 0.83111 0.2121 0.28422 0.0
C3865 C 0.83747 0.23162 0.27223 0.0
C3866 C 0.84208 0.19269 0.28428 0.0
C3867 C 0.85988 0.1912 0.27127 0.0
C3868 C 0.8662 0.2107 0.25886 0.0
C3869 C 0.85542 0.23042 0.25978 0.0
C3870 C 0.83455 0.17365 0.29864 0.0
C3871 C 0.88447 0.21064 0.2442 0.0
H3872 H 0.9139 0.15545 0.30264 0.0
H3873 H 0.86968 0.10887 0.2419 0.0
H3874 H 0.90288 0.21272 0.29807 0.0
H3875 H 0.88658 0.19981 0.31831 0.0
H3876 H 0.914 0.19697 0.31822 0.0
H3877 H 0.84243 0.12268 0.22289 0.0
H3878 H 0.83095 0.14186 0.24418 0.0
H3879 H 0.84807 0.15595 0.22519 0.0
H3880 H 0.81751 0.21213 0.29406 0.0
H3881 H 0.86081 0.24471 0.25008 0.0
H3882 H 0.8483 0.17367 0.31172 0.0
H3883 H 0.82899 0.15468 0.28673 0.0
H3884 H 0.8211 0.17732 0.30841 0.0
H3885 H 0.89978 0.21277 0.25591 0.0
H3886 H 0.88697 0.2259 0.2345 0.0
H3887 H 0.88102 0.19247 0.23107 0.0
C3888 C 0.71614 0.07593 0.01392 0.0
C3889 C 0.72936 0.10003 0.01621 0.0
C3890 C 0.69893 0.07192 0.02705 0.0
C3891 C 0.69501 0.09274 0.04235 0.0
C3892 C 0.71087 0.11606 0.04804 0.0
C3893 C 0.7281 0.11954 0.03467 0.0
C3894 C 0.6828 0.04649 0.02105 0.0
C3895 C 0.70766 0.13829 0.06517 0.0
C3896 C 0.63671 0.09154 0.02637 0.0
C3897 C 0.62701 0.08075 0.04376 0.0
C3898 C 0.65916 0.09713 0.02673 0.0
C3899 C 0.67222 0.09201 0.04518 0.0
C3900 C 0.66269 0.08306 0.06391 0.0
C3901 C 0.64005 0.0774 0.06293 0.0
C3902 C 0.66858 0.10679 1.0063 0.0
C3903 C 0.67602 0.0777 0.08404 0.0
H3904 H 0.71754 0.06087 0.99975 0.0
H3905 H 0.73862 0.13815 0.03648 0.0
H3906 H 0.67621 0.0419 0.03713 0.0
H3907 H 0.66901 0.04648 0.00803 0.0
H3908 H 0.69025 0.03161 0.01297 0.0
H3909 H 0.72321 0.15297 0.07169 0.0
H3910 H 0.69624 0.14648 0.05598 0.0
H3911 H 0.70049 0.13261 0.08062 0.0
H3912 H 0.62667 0.09471 0.0119 0.0
H3913 H 0.63256 0.06912 0.07651 0.0
H3914 H 0.67529 0.09259 0.9956 0.0
H3915 H 0.68204 0.12401 0.01317 0.0
H3916 H 0.65626 0.11108 0.99425 0.0
H3917 H 0.67719 0.05817 0.07896 0.0
H3918 H 0.66821 0.0796 0.10045 0.0
H3919 H 0.69275 0.09029 0.08809 0.0
C3920 C 0.227 0.52176 0.30028 0.0
C3921 C 0.21055 0.511 0.28069 0.0
C3922 C 0.24449 0.51154 0.30357 0.0
C3923 C 0.24536 0.48994 0.28699 0.0
C3924 C 0.22933 0.47961 0.26662 0.0
C3925 C 0.21212 0.4904 0.26362 0.0
C3926 C 0.26144 0.52316 0.32535 0.0
C3927 C 0.22976 0.45644 0.24864 0.0
C3928 C 0.29609 0.46728 0.28528 0.0
C3929 C 0.29067 0.44752 0.29659 0.0
C3930 C 0.28183 0.48209 0.28282 0.0
C3931 C 0.26188 0.47681 0.29196 0.0
C3932 C 0.25703 0.45781 0.30471 0.0
C3933 C 0.2716 0.44337 0.30688 0.0
C3934 C 0.28748 0.50231 0.26923 0.0
C3935 C 0.23598 0.45181 0.3149 0.0
H3936 H 0.22605 0.538 0.3133 0.0
H3937 H 0.19946 0.48212 0.24843 0.0
H3938 H 0.25967 0.5106 0.33789 0.0
H3939 H 0.27802 0.52551 0.3204 0.0
H3940 H 0.25993 0.54165 0.3348 0.0
H3941 H 0.21735 0.45224 0.23267 0.0
H3942 H 0.246 0.45855 0.24283 0.0
H3943 H 0.22663 0.44018 0.257 0.0
H3944 H 0.31088 0.47022 0.27724 0.0
H3945 H 0.26776 0.42824 0.31588 0.0
H3946 H 0.28484 0.51997 0.27918 0.0
H3947 H 0.27667 0.49663 0.25189 0.0
H3948 H 0.30461 0.50593 0.26575 0.0
H3949 H 0.23369 0.46895 0.32633 0.0
H3950 H 0.2354 0.43752 0.32561 0.0
H3951 H 0.22211 0.44471 0.30021 0.0
C3952 C 0.25015 0.42472 0.03834 0.0
C3953 C 0.26476 0.42686 0.0217 0.0
C3954 C 0.2317 0.43402 0.03669 0.0
C3955 C 0.2277 0.44582 0.018 0.0
C3956 C 0.24193 0.44716 1.00065 0.0
C3957 C 0.2602 0.4377 1.0027 0.0
C3958 C 0.21687 0.432 0.05546 0.0
C3959 C 0.2383 0.45943 0.98035 0.0
C3960 C 0.17186 0.4575 1.00552 0.0
C3961 C 0.17578 0.48251 0.01767 0.0
C3962 C 0.18858 0.44528 1.00528 0.0
C3963 C 0.20966 0.4584 0.01761 0.0
C3964 C 0.21359 0.48378 0.02973 0.0
C3965 C 0.19662 0.4955 0.02959 0.0
C3966 C 0.18369 0.41834 0.99194 0.0
C3967 C 0.23575 0.49859 0.04296 0.0
H3968 H 0.25339 0.41632 0.05303 0.0
H3969 H 0.27124 0.43938 0.98962 0.0
H3970 H 0.21758 0.45097 0.06586 0.0
H3971 H 0.1998 0.42316 0.04694 0.0
H3972 H 0.22135 0.42093 0.06795 0.0
H3973 H 0.24977 0.45719 0.96728 0.0
H3974 H 0.22145 0.45143 0.9709 0.0
H3975 H 0.24042 0.47969 0.98747 0.0
H3976 H 0.15571 0.44753 0.99625 0.0
H3977 H 0.19959 0.51488 0.03891 0.0
H3978 H 0.18627 0.40659 1.00452 0.0
H3979 H 0.19498 0.41633 0.97867 0.0
H3980 H 0.16674 0.41106 0.98255 0.0
H3981 H 0.24061 0.48952 0.05706 0.0
H3982 H 0.23618 0.51817 0.05136 0.0
H3983 H 0.24801 0.4989 0.03057 0.0
C3984 C 0.89685 0.9798 0.2905 0.0
C3985 C 0.89208 0.99174 0.27228 0.0
C3986 C 0.88628 0.95439 0.28996 0.0
C3987 C 0.86964 0.93975 0.27099 0.0
C3988 C 0.86487 0.9516 0.25231 0.0
C3989 C 0.87612 0.97704 0.25305 0.0
C3990 C 0.8926 0.94342 0.31031 0.0
C3991 C 0.84726 0.93758 0.23177 0.0
C3992 C 0.84986 0.86664 0.26337 0.0
C3993 C 0.83063 0.86336 0.27392 0.0
C3994 C 0.86246 0.89094 0.26201 0.0
C3995 C 0.85628 0.91311 0.27178 0.0
C3996 C 0.83721 0.90973 0.28294 0.0
C3997 C 0.82474 0.88538 0.28354 0.0
C3998 C 0.88229 0.89285 0.24962 0.0
C3999 C 0.82973 0.93204 0.29429 0.0
H4000 H 0.90893 0.99061 0.30562 0.0
H4001 H 0.87174 0.98571 0.23897 0.0
H4002 H 0.87875 0.93931 0.3204 0.0
H4003 H 0.89646 0.92549 0.30337 0.0
H4004 H 0.90687 0.95621 0.32277 0.0
H4005 H 0.84626 0.94832 0.21784 0.0
H4006 H 0.85015 0.91941 0.22359 0.0
H4007 H 0.83134 0.93345 0.23836 0.0
H4008 H 0.8547 0.85016 0.25542 0.0
H4009 H 0.81004 0.88358 0.29171 0.0
H4010 H 0.89682 0.9051 0.262 0.0
H4011 H 0.88036 0.90159 0.23434 0.0
H4012 H 0.88523 0.87431 0.24297 0.0
H4013 H 0.84281 0.94509 0.3081 0.0
H4014 H 0.81492 0.92666 0.30271 0.0
H4015 H 0.82626 0.94235 0.28068 0.0
C4016 C 0.71393 0.12721 0.79213 0.0
C4017 C 0.70989 0.10569 0.77379 0.0
C4018 C 0.72682 0.14994 0.78972 0.0
C4019 C 0.73625 0.15091 0.76866 0.0
C4020 C 0.73238 0.12921 0.75009 0.0
C4021 C 0.7189 0.10674 0.75277 0.0
C4022 C 0.73014 0.17295 0.8096 0.0
C4023 C 0.74259 0.12972 0.72761 0.0
C4024 C 0.75281 0.21559 0.75781 0.0
C4025 C 0.77449 0.22336 0.76838 0.0
C4026 C 0.74029 0.19143 0.75673 0.0
C4027 C 0.74997 0.17495 0.76635 0.0
C4028 C 0.77219 0.18258 0.77629 0.0
C4029 C 0.78427 0.20696 0.77727 0.0
C4030 C 0.71658 0.18391 0.74617 0.0
C4031 C 0.78297 0.16526 0.78644 0.0
H4032 H 0.70653 0.1264 0.80819 0.0
H4033 H 0.71564 0.08997 0.73864 0.0
H4034 H 0.74765 0.18064 0.81677 0.0
H4035 H 0.72471 0.18767 0.80266 0.0
H4036 H 0.72109 0.16901 0.8245 0.0
H4037 H 0.73741 0.11133 0.71462 0.0
H4038 H 0.73828 0.14399 0.71896 0.0
H4039 H 0.76055 0.1351 0.73211 0.0
H4040 H 0.74567 0.22852 0.75054 0.0
H4041 H 0.8013 0.21323 0.78493 0.0
H4042 H 0.70637 0.18126 0.76043 0.0
H4043 H 0.71254 0.16585 0.73281 0.0
H4044 H 0.71219 0.19817 0.7375 0.0
H4045 H 0.77612 0.16158 0.80271 0.0
H4046 H 0.80083 0.17321 0.79119 0.0
H4047 H 0.77966 0.14702 0.77346 0.0
loop_
_geom_bond_atom_site_label_1
_geom_bond_atom_site_label_2
_geom_bond_distance
_geom_bond_site_symmetry_2
_ccdc_geom_bond_type
Mg0 O1 2.028 . S
Mg0 O7 1.986 . S
Mg0 O9 2.114 . S
Mg0 O10 2.251 . S
Mg0 O13 2.010 . S
O1 Mg0 2.028 . S
O1 C4 1.250 . S
O2 Mg3 2.028 . S
O2 C4 1.248 . S
Mg3 O2 2.028 . S
Mg3 O8 2.032 . S
Mg3 O10 2.079 . S
C4 O1 1.250 . S
C4 O2 1.248 . S
C5 O6 1.264 . S
C5 O13 1.249 . S
O6 C5 1.264 . S
O7 Mg0 1.986 . S
O7 C11 1.246 . S
O8 Mg3 2.032 . S
O8 C11 1.259 . S
O9 Mg0 2.114 . S
O9 C12 1.252 . S
O10 Mg0 2.251 . S
O10 Mg3 2.079 . S
O10 C12 1.273 . S
C11 O7 1.246 . S
C11 O8 1.259 . S
C12 O9 1.252 . S
C12 O10 1.273 . S
O13 Mg0 2.010 . S
O13 C5 1.249 . S
Mg14 O15 2.028 . S
Mg14 O21 1.986 . S
Mg14 O23 2.114 1_455 S
Mg14 O24 2.251 1_455 S
Mg14 O27 2.010 . S
O15 Mg14 2.028 . S
O15 C18 1.250 1_455 S
O16 Mg17 2.028 . S
O16 C18 1.248 . S
Mg17 O16 2.028 . S
Mg17 O22 2.032 . S
Mg17 O24 2.079 . S
C18 O15 1.250 1_655 S
C18 O16 1.248 . S
C19 O20 1.264 . S
C19 O27 1.249 . S
O20 C19 1.264 . S
O21 Mg14 1.986 . S
O21 C25 1.246 1_455 S
O22 Mg17 2.032 . S
O22 C25 1.259 . S
O23 Mg14 2.114 1_655 S
O23 C26 1.252 . S
O24 Mg14 2.251 1_655 S
O24 Mg17 2.079 . S
O24 C26 1.273 . S
C25 O21 1.246 1_655 S
C25 O22 1.259 . S
C26 O23 1.252 . S
C26 O24 1.273 . S
O27 Mg14 2.010 . S
O27 C19 1.249 . S
Mg28 O29 2.028 . S
Mg28 O35 1.986 . S
Mg28 O37 2.114 . S
Mg28 O38 2.251 . S
Mg28 O41 2.010 . S
O29 Mg28 2.028 . S
O29 C32 1.250 . S
O30 Mg31 2.028 . S
O30 C32 1.248 . S
Mg31 O30 2.028 . S
Mg31 O36 2.032 . S
Mg31 O38 2.079 . S
C32 O29 1.250 . S
C32 O30 1.248 . S
C33 O34 1.264 . S
C33 O41 1.249 . S
O34 C33 1.264 . S
O35 Mg28 1.986 . S
O35 C39 1.246 . S
O36 Mg31 2.032 . S
O36 C39 1.259 . S
O37 Mg28 2.114 . S
O37 C40 1.252 . S
O38 Mg28 2.251 . S
O38 Mg31 2.079 . S
O38 C40 1.273 . S
C39 O35 1.246 . S
C39 O36 1.259 . S
C40 O37 1.252 . S
C40 O38 1.273 . S
O41 Mg28 2.010 . S
O41 C33 1.249 . S
Mg42 O43 2.028 . S
Mg42 O49 1.986 . S
Mg42 O51 2.114 . S
Mg42 O52 2.251 . S
Mg42 O55 2.010 . S
O43 Mg42 2.028 . S
O43 C46 1.250 . S
O44 Mg45 2.028 . S
O44 C46 1.248 . S
Mg45 O44 2.028 . S
Mg45 O50 2.032 . S
Mg45 O52 2.079 . S
C46 O43 1.250 . S
C46 O44 1.248 . S
C47 O48 1.264 . S
C47 O55 1.249 . S
O48 C47 1.264 . S
O49 Mg42 1.986 . S
O49 C53 1.246 . S
O50 Mg45 2.032 . S
O50 C53 1.259 . S
O51 Mg42 2.114 . S
O51 C54 1.252 . S
O52 Mg42 2.251 . S
O52 Mg45 2.079 . S
O52 C54 1.273 . S
C53 O49 1.246 . S
C53 O50 1.259 . S
C54 O51 1.252 . S
C54 O52 1.273 . S
O55 Mg42 2.010 . S
O55 C47 1.249 . S
Mg56 O57 2.028 . S
Mg56 O63 1.986 . S
Mg56 O65 2.114 . S
Mg56 O66 2.251 . S
Mg56 O69 2.010 . S
O57 Mg56 2.028 . S
O57 C60 1.250 . S
O58 Mg59 2.028 . S
O58 C60 1.248 . S
Mg59 O58 2.028 . S
Mg59 O64 2.032 . S
Mg59 O66 2.079 . S
C60 O57 1.250 . S
C60 O58 1.248 . S
C61 O62 1.264 . S
C61 O69 1.249 . S
O62 C61 1.264 . S
O63 Mg56 1.986 . S
O63 C67 1.246 . S
O64 Mg59 2.032 . S
O64 C67 1.259 . S
O65 Mg56 2.114 . S
O65 C68 1.252 . S
O66 Mg56 2.251 . S
O66 Mg59 2.079 . S
O66 C68 1.273 . S
C67 O63 1.246 . S
C67 O64 1.259 . S
C68 O65 1.252 . S
C68 O66 1.273 . S
O69 Mg56 2.010 . S
O69 C61 1.249 . S
Mg70 O71 2.028 . S
Mg70 O77 1.986 . S
Mg70 O79 2.114 . S
Mg70 O80 2.251 . S
Mg70 O83 2.010 . S
O71 Mg70 2.028 . S
O71 C74 1.250 . S
O72 Mg73 2.028 . S
O72 C74 1.248 . S
Mg73 O72 2.028 . S
Mg73 O78 2.032 . S
Mg73 O80 2.079 . S
C74 O71 1.250 . S
C74 O72 1.248 . S
C75 O76 1.264 . S
C75 O83 1.249 . S
O76 C75 1.264 . S
O77 Mg70 1.986 . S
O77 C81 1.246 . S
O78 Mg73 2.032 . S
O78 C81 1.259 . S
O79 Mg70 2.114 . S
O79 C82 1.252 . S
O80 Mg70 2.251 . S
O80 Mg73 2.079 . S
O80 C82 1.273 . S
C81 O77 1.246 . S
C81 O78 1.259 . S
C82 O79 1.252 . S
C82 O80 1.273 . S
O83 Mg70 2.010 . S
O83 C75 1.249 . S
Mg84 O85 2.028 . S
Mg84 O91 1.986 . S
Mg84 O93 2.114 . S
Mg84 O94 2.251 . S
Mg84 O97 2.010 . S
O85 Mg84 2.028 . S
O85 C88 1.250 . S
O86 Mg87 2.028 . S
O86 C88 1.248 . S
Mg87 O86 2.028 . S
Mg87 O92 2.032 . S
Mg87 O94 2.079 . S
C88 O85 1.250 . S
C88 O86 1.248 . S
C89 O90 1.264 . S
C89 O97 1.249 . S
O90 C89 1.264 . S
O91 Mg84 1.986 . S
O91 C95 1.246 . S
O92 Mg87 2.032 . S
O92 C95 1.259 . S
O93 Mg84 2.114 . S
O93 C96 1.252 . S
O94 Mg84 2.251 . S
O94 Mg87 2.079 . S
O94 C96 1.273 . S
C95 O91 1.246 . S
C95 O92 1.259 . S
C96 O93 1.252 . S
C96 O94 1.273 . S
O97 Mg84 2.010 . S
O97 C89 1.249 . S
Mg98 O99 2.028 . S
Mg98 O105 1.986 . S
Mg98 O107 2.114 1_455 S
Mg98 O108 2.251 1_455 S
Mg98 O111 2.010 . S
O99 Mg98 2.028 . S
O99 C102 1.250 . S
O100 Mg101 2.028 1_455 S
O100 C102 1.248 . S
Mg101 O100 2.028 1_655 S
Mg101 O106 2.032 . S
Mg101 O108 2.079 . S
C102 O99 1.250 . S
C102 O100 1.248 . S
C103 O104 1.264 . S
C103 O111 1.249 . S
O104 C103 1.264 . S
O105 Mg98 1.986 . S
O105 C109 1.246 . S
O106 Mg101 2.032 . S
O106 C109 1.259 1_655 S
O107 Mg98 2.114 1_655 S
O107 C110 1.252 . S
O108 Mg98 2.251 1_655 S
O108 Mg101 2.079 . S
O108 C110 1.273 . S
C109 O105 1.246 . S
C109 O106 1.259 1_455 S
C110 O107 1.252 . S
C110 O108 1.273 . S
O111 Mg98 2.010 . S
O111 C103 1.249 . S
Mg112 O113 2.028 1_545 S
Mg112 O119 1.986 . S
Mg112 O121 2.139 . S
Mg112 O122 2.251 . S
Mg112 O125 2.010 . S
O113 Mg112 2.028 1_565 S
O113 C116 1.250 . S
O114 Mg115 2.028 1_565 S
O114 C116 1.248 . S
Mg115 O114 2.028 1_545 S
Mg115 O120 2.032 . S
Mg115 O122 2.079 . S
C116 O113 1.250 . S
C116 O114 1.248 . S
C117 O118 1.264 . S
C117 O125 1.249 . S
O118 C117 1.264 . S
O119 Mg112 1.986 . S
O119 C123 1.246 . S
O120 Mg115 2.032 . S
O120 C123 1.259 . S
O121 Mg112 2.139 . S
O121 C124 1.262 . S
O122 Mg112 2.251 . S
O122 Mg115 2.079 . S
O122 C124 1.273 . S
C123 O119 1.246 . S
C123 O120 1.259 . S
C124 O121 1.262 . S
C124 O122 1.273 . S
O125 Mg112 2.010 . S
O125 C117 1.249 . S
Mg126 O127 2.028 . S
Mg126 O133 1.986 . S
Mg126 O135 2.114 . S
Mg126 O136 2.251 . S
Mg126 O139 2.010 . S
O127 Mg126 2.028 . S
O127 C130 1.250 . S
O128 Mg129 2.028 . S
O128 C130 1.248 . S
Mg129 O128 2.028 . S
Mg129 O134 2.032 . S
Mg129 O136 2.079 . S
C130 O127 1.250 . S
C130 O128 1.248 . S
C131 O132 1.264 . S
C131 O139 1.249 . S
O132 C131 1.264 . S
O133 Mg126 1.986 . S
O133 C137 1.246 . S
O134 Mg129 2.032 . S
O134 C137 1.259 . S
O135 Mg126 2.114 . S
O135 C138 1.252 . S
O136 Mg126 2.251 . S
O136 Mg129 2.079 . S
O136 C138 1.273 . S
C137 O133 1.246 . S
C137 O134 1.259 . S
C138 O135 1.252 . S
C138 O136 1.273 . S
O139 Mg126 2.010 . S
O139 C131 1.249 . S
Mg140 O141 2.028 1_565 S
Mg140 O147 1.986 . S
Mg140 O149 2.114 1_565 S
Mg140 O150 2.251 1_565 S
Mg140 O153 2.010 . S
O141 Mg140 2.028 1_545 S
O141 C144 1.250 . S
O142 Mg143 2.028 . S
O142 C144 1.248 . S
Mg143 O142 2.028 . S
Mg143 O148 2.032 1_545 S
Mg143 O150 2.079 . S
C144 O141 1.250 . S
C144 O142 1.248 . S
C145 O146 1.264 . S
C145 O153 1.249 . S
O146 C145 1.264 . S
O147 Mg140 1.986 . S
O147 C151 1.246 . S
O148 Mg143 2.032 1_565 S
O148 C151 1.259 . S
O149 Mg140 2.114 1_545 S
O149 C152 1.252 . S
O150 Mg140 2.251 1_545 S
O150 Mg143 2.079 . S
O150 C152 1.273 . S
C151 O147 1.246 . S
C151 O148 1.259 . S
C152 O149 1.252 . S
C152 O150 1.273 . S
O153 Mg140 2.010 . S
O153 C145 1.249 . S
Mg154 O155 2.028 1_554 S
Mg154 O161 1.986 . S
Mg154 O163 2.114 . S
Mg154 O164 2.251 . S
Mg154 O167 2.010 . S
O155 Mg154 2.028 1_556 S
O155 C158 1.250 . S
O156 Mg157 2.028 1_556 S
O156 C158 1.248 . S
Mg157 O156 2.028 1_554 S
Mg157 O162 2.032 . S
Mg157 O164 2.079 . S
C158 O155 1.250 . S
C158 O156 1.248 . S
C159 O160 1.264 . S
C159 O167 1.249 . S
O160 C159 1.264 . S
O161 Mg154 1.986 . S
O161 C165 1.246 . S
O162 Mg157 2.032 . S
O162 C165 1.259 . S
O163 Mg154 2.114 . S
O163 C166 1.252 . S
O164 Mg154 2.251 . S
O164 Mg157 2.079 . S
O164 C166 1.273 . S
C165 O161 1.246 . S
C165 O162 1.259 . S
C166 O163 1.252 . S
C166 O164 1.273 . S
O167 Mg154 2.010 . S
O167 C159 1.249 . S
Mg168 O169 2.028 1_554 S
Mg168 O175 1.986 . S
Mg168 O177 2.114 . S
Mg168 O178 2.251 . S
Mg168 O181 2.010 . S
O169 Mg168 2.028 1_556 S
O169 C172 1.250 . S
O170 Mg171 2.028 1_556 S
O170 C172 1.248 . S
Mg171 O170 2.028 1_554 S
Mg171 O176 2.032 . S
Mg171 O178 2.079 . S
C172 O169 1.250 . S
C172 O170 1.248 . S
C173 O174 1.264 . S
C173 O181 1.249 . S
O174 C173 1.264 . S
O175 Mg168 1.986 . S
O175 C179 1.246 . S
O176 Mg171 2.032 . S
O176 C179 1.259 . S
O177 Mg168 2.114 . S
O177 C180 1.252 . S
O178 Mg168 2.251 . S
O178 Mg171 2.079 . S
O178 C180 1.273 . S
C179 O175 1.246 . S
C179 O176 1.259 . S
C180 O177 1.252 . S
C180 O178 1.273 . S
O181 Mg168 2.010 . S
O181 C173 1.249 . S
Mg182 O183 2.028 . S
Mg182 O189 1.986 1_554 S
Mg182 O191 2.114 . S
Mg182 O192 2.251 . S
Mg182 O195 2.010 . S
O183 Mg182 2.028 . S
O183 C186 1.250 . S
O184 Mg185 2.028 . S
O184 C186 1.248 . S
Mg185 O184 2.028 . S
Mg185 O190 2.032 1_554 S
Mg185 O192 2.079 . S
C186 O183 1.250 . S
C186 O184 1.248 . S
C187 O188 1.264 1_554 S
C187 O195 1.249 . S
O188 C187 1.264 1_556 S
O189 Mg182 1.986 1_556 S
O189 C193 1.246 . S
O190 Mg185 2.032 1_556 S
O190 C193 1.259 . S
O191 Mg182 2.114 . S
O191 C194 1.252 . S
O192 Mg182 2.251 . S
O192 Mg185 2.079 . S
O192 C194 1.273 . S
C193 O189 1.246 . S
C193 O190 1.259 . S
C194 O191 1.252 . S
C194 O192 1.273 . S
O195 Mg182 2.010 . S
O195 C187 1.249 . S
Mg196 O197 2.028 . S
Mg196 O203 1.986 . S
Mg196 O205 2.114 . S
Mg196 O206 2.251 . S
Mg196 O209 2.010 . S
O197 Mg196 2.028 . S
O197 C200 1.250 . S
O198 Mg199 2.028 . S
O198 C200 1.248 . S
Mg199 O198 2.028 . S
Mg199 O204 2.032 . S
Mg199 O206 2.079 . S
C200 O197 1.250 . S
C200 O198 1.248 . S
C201 O202 1.264 . S
C201 O209 1.249 . S
O202 C201 1.264 . S
O203 Mg196 1.986 . S
O203 C207 1.246 . S
O204 Mg199 2.032 . S
O204 C207 1.259 . S
O205 Mg196 2.114 . S
O205 C208 1.252 . S
O206 Mg196 2.251 . S
O206 Mg199 2.079 . S
O206 C208 1.273 . S
C207 O203 1.246 . S
C207 O204 1.259 . S
C208 O205 1.252 . S
C208 O206 1.273 . S
O209 Mg196 2.010 . S
O209 C201 1.249 . S
Mg210 O211 2.028 . S
Mg210 O217 1.986 . S
Mg210 O219 2.114 . S
Mg210 O220 2.251 . S
Mg210 O223 2.010 . S
O211 Mg210 2.028 . S
O211 C214 1.250 . S
O212 Mg213 2.028 . S
O212 C214 1.248 . S
Mg213 O212 2.028 . S
Mg213 O218 2.032 . S
Mg213 O220 2.079 . S
C214 O211 1.250 . S
C214 O212 1.248 . S
C215 O216 1.264 . S
C215 O223 1.249 . S
O216 C215 1.264 . S
O217 Mg210 1.986 . S
O217 C221 1.246 . S
O218 Mg213 2.032 . S
O218 C221 1.259 . S
O219 Mg210 2.114 . S
O219 C222 1.252 . S
O220 Mg210 2.251 . S
O220 Mg213 2.079 . S
O220 C222 1.273 . S
C221 O217 1.246 . S
C221 O218 1.259 . S
C222 O219 1.252 . S
C222 O220 1.273 . S
O223 Mg210 2.010 . S
O223 C215 1.249 . S
Mg224 O225 2.028 . S
Mg224 O231 1.986 . S
Mg224 O233 2.114 . S
Mg224 O234 2.251 . S
Mg224 O237 2.010 . S
O225 Mg224 2.028 . S
O225 C228 1.250 . S
O226 Mg227 2.028 . S
O226 C228 1.248 . S
Mg227 O226 2.028 . S
Mg227 O232 2.032 . S
Mg227 O234 2.079 . S
C228 O225 1.250 . S
C228 O226 1.248 . S
C229 O230 1.264 . S
C229 O237 1.249 . S
O230 C229 1.264 . S
O231 Mg224 1.986 . S
O231 C235 1.246 . S
O232 Mg227 2.032 . S
O232 C235 1.259 . S
O233 Mg224 2.114 . S
O233 C236 1.252 . S
O234 Mg224 2.251 . S
O234 Mg227 2.079 . S
O234 C236 1.273 . S
C235 O231 1.246 . S
C235 O232 1.259 . S
C236 O233 1.252 . S
C236 O234 1.273 . S
O237 Mg224 2.010 . S
O237 C229 1.249 . S
Mg238 O239 2.028 . S
Mg238 O245 1.986 . S
Mg238 O247 2.114 . S
Mg238 O248 2.251 . S
Mg238 O251 2.010 . S
O239 Mg238 2.028 . S
O239 C242 1.250 . S
O240 Mg241 2.028 . S
O240 C242 1.248 . S
Mg241 O240 2.028 . S
Mg241 O246 2.032 . S
Mg241 O248 2.079 . S
C242 O239 1.250 . S
C242 O240 1.248 . S
C243 O244 1.264 . S
C243 O251 1.249 . S
O244 C243 1.264 . S
O245 Mg238 1.986 . S
O245 C249 1.246 . S
O246 Mg241 2.032 . S
O246 C249 1.259 . S
O247 Mg238 2.114 . S
O247 C250 1.252 . S
O248 Mg238 2.251 . S
O248 Mg241 2.079 . S
O248 C250 1.273 . S
C249 O245 1.246 . S
C249 O246 1.259 . S
C250 O247 1.252 . S
C250 O248 1.273 . S
O251 Mg238 2.010 . S
O251 C243 1.249 . S
Mg252 O253 2.028 . S
Mg252 O259 1.986 . S
Mg252 O261 2.114 . S
Mg252 O262 2.251 . S
Mg252 O265 2.010 . S
O253 Mg252 2.028 . S
O253 C256 1.250 . S
O254 Mg255 2.028 . S
O254 C256 1.248 . S
Mg255 O254 2.028 . S
Mg255 O260 2.032 . S
Mg255 O262 2.079 . S
C256 O253 1.250 . S
C256 O254 1.248 . S
C257 O258 1.264 . S
C257 O265 1.249 . S
O258 C257 1.264 . S
O259 Mg252 1.986 . S
O259 C263 1.246 . S
O260 Mg255 2.032 . S
O260 C263 1.259 . S
O261 Mg252 2.114 . S
O261 C264 1.252 . S
O262 Mg252 2.251 . S
O262 Mg255 2.079 . S
O262 C264 1.273 . S
C263 O259 1.246 . S
C263 O260 1.259 . S
C264 O261 1.252 . S
C264 O262 1.273 . S
O265 Mg252 2.010 . S
O265 C257 1.249 . S
Mg266 O267 2.028 . S
Mg266 O273 1.986 . S
Mg266 O275 2.114 . S
Mg266 O276 2.251 . S
Mg266 O279 2.010 . S
O267 Mg266 2.028 . S
O267 C270 1.250 . S
O268 Mg269 2.028 . S
O268 C270 1.248 . S
Mg269 O268 2.028 . S
Mg269 O274 2.032 . S
Mg269 O276 2.079 . S
C270 O267 1.250 . S
C270 O268 1.248 . S
C271 O272 1.264 . S
C271 O279 1.249 . S
O272 C271 1.264 . S
O273 Mg266 1.986 . S
O273 C277 1.246 . S
O274 Mg269 2.032 . S
O274 C277 1.259 . S
O275 Mg266 2.114 . S
O275 C278 1.252 . S
O276 Mg266 2.251 . S
O276 Mg269 2.079 . S
O276 C278 1.273 . S
C277 O273 1.246 . S
C277 O274 1.259 . S
C278 O275 1.252 . S
C278 O276 1.273 . S
O279 Mg266 2.010 . S
O279 C271 1.249 . S
Mg280 O281 2.028 1_556 S
Mg280 O287 1.986 . S
Mg280 O289 2.114 1_556 S
Mg280 O290 2.251 1_556 S
Mg280 O293 2.010 . S
O281 Mg280 2.028 1_554 S
O281 C284 1.250 . S
O282 Mg283 2.028 . S
O282 C284 1.248 . S
Mg283 O282 2.028 . S
Mg283 O288 2.032 1_554 S
Mg283 O290 2.079 . S
C284 O281 1.250 . S
C284 O282 1.248 . S
C285 O286 1.264 . S
C285 O293 1.249 . S
O286 C285 1.264 . S
O287 Mg280 1.986 . S
O287 C291 1.246 . S
O288 Mg283 2.032 1_556 S
O288 C291 1.259 . S
O289 Mg280 2.114 1_554 S
O289 C292 1.252 . S
O290 Mg280 2.251 1_554 S
O290 Mg283 2.079 . S
O290 C292 1.273 . S
C291 O287 1.246 . S
C291 O288 1.259 . S
C292 O289 1.252 . S
C292 O290 1.273 . S
O293 Mg280 2.010 . S
O293 C285 1.249 . S
Mg294 O295 2.028 . S
Mg294 O301 1.986 . S
Mg294 O303 2.114 . S
Mg294 O304 2.251 . S
Mg294 O307 2.010 . S
O295 Mg294 2.028 . S
O295 C298 1.250 . S
O296 Mg297 2.028 . S
O296 C298 1.248 . S
Mg297 O296 2.028 . S
Mg297 O302 2.032 . S
Mg297 O304 2.079 . S
C298 O295 1.250 . S
C298 O296 1.248 . S
C299 O300 1.264 . S
C299 O307 1.249 . S
O300 C299 1.264 . S
O301 Mg294 1.986 . S
O301 C305 1.246 . S
O302 Mg297 2.032 . S
O302 C305 1.259 . S
O303 Mg294 2.114 . S
O303 C306 1.252 . S
O304 Mg294 2.251 . S
O304 Mg297 2.079 . S
O304 C306 1.273 . S
C305 O301 1.246 . S
C305 O302 1.259 . S
C306 O303 1.252 . S
C306 O304 1.273 . S
O307 Mg294 2.010 . S
O307 C299 1.249 . S
Mg308 O309 2.028 . S
Mg308 O315 1.986 . S
Mg308 O317 2.114 . S
Mg308 O318 2.251 . S
Mg308 O321 2.010 . S
O309 Mg308 2.028 . S
O309 C312 1.250 . S
O310 Mg311 2.028 . S
O310 C312 1.248 . S
Mg311 O310 2.028 . S
Mg311 O316 2.032 . S
Mg311 O318 2.079 . S
C312 O309 1.250 . S
C312 O310 1.248 . S
C313 O314 1.264 . S
C313 O321 1.249 . S
O314 C313 1.264 . S
O315 Mg308 1.986 . S
O315 C319 1.246 . S
O316 Mg311 2.032 . S
O316 C319 1.259 . S
O317 Mg308 2.114 . S
O317 C320 1.252 . S
O318 Mg308 2.251 . S
O318 Mg311 2.079 . S
O318 C320 1.273 . S
C319 O315 1.246 . S
C319 O316 1.259 . S
C320 O317 1.252 . S
C320 O318 1.273 . S
O321 Mg308 2.010 . S
O321 C313 1.249 . S
Mg322 O323 2.028 . S
Mg322 O329 1.986 . S
Mg322 O331 2.114 . S
Mg322 O332 2.251 . S
Mg322 O335 2.010 . S
O323 Mg322 2.028 . S
O323 C326 1.250 . S
O324 Mg325 2.028 . S
O324 C326 1.248 . S
Mg325 O324 2.028 . S
Mg325 O330 2.032 . S
Mg325 O332 2.079 . S
C326 O323 1.250 . S
C326 O324 1.248 . S
C327 O328 1.264 . S
C327 O335 1.249 . S
O328 C327 1.264 . S
O329 Mg322 1.986 . S
O329 C333 1.246 . S
O330 Mg325 2.032 . S
O330 C333 1.259 . S
O331 Mg322 2.114 . S
O331 C334 1.252 . S
O332 Mg322 2.251 . S
O332 Mg325 2.079 . S
O332 C334 1.273 . S
C333 O329 1.246 . S
C333 O330 1.259 . S
C334 O331 1.252 . S
C334 O332 1.273 . S
O335 Mg322 2.010 . S
O335 C327 1.249 . S
La336 C338 2.928 1_455 S
La336 O356 2.521 1_455 S
La336 O357 2.628 1_456 S
La336 O358 2.554 . S
La336 O359 2.757 . S
La336 O360 2.470 . S
La336 O365 2.482 1_556 S
La336 O367 2.503 1_546 S
La337 C347 2.928 . S
La337 O359 2.482 1_554 S
La337 O361 2.503 . S
La337 O362 2.521 . S
La337 O363 2.628 . S
La337 O364 2.554 . S
La337 O365 2.757 . S
La337 O366 2.470 . S
C338 La336 2.928 1_655 S
C338 C339 1.503 . S
C338 O356 1.261 . S
C338 O357 1.243 1_556 S
C339 C338 1.503 . S
C339 C340 1.394 . S
C339 C344 1.373 . S
C340 C339 1.394 . S
C340 C341 1.380 . S
C340 H368 0.930 . S
C341 C340 1.380 . S
C341 C342 1.376 . S
C341 H369 0.930 . S
C342 C341 1.376 . S
C342 C343 1.370 . S
C343 C342 1.370 . S
C343 C344 1.396 . S
C343 H370 0.929 1_556 S
C344 C339 1.373 . S
C344 C343 1.396 . S
C344 H371 0.929 1_556 S
C345 O358 1.240 . S
C345 O359 1.289 . S
C346 O360 1.258 1_554 S
C346 O361 1.256 . S
C347 La337 2.928 . S
C347 C348 1.503 . S
C347 O362 1.261 . S
C347 O363 1.243 . S
C348 C347 1.503 . S
C348 C349 1.394 . S
C348 C353 1.373 . S
C349 C348 1.394 . S
C349 C350 1.380 . S
C349 H372 0.930 . S
C350 C349 1.380 . S
C350 C351 1.376 . S
C350 H373 0.930 . S
C351 C350 1.376 . S
C351 C352 1.370 1_545 S
C352 C351 1.370 1_565 S
C352 C353 1.396 1_565 S
C352 H374 0.929 . S
C353 C348 1.373 . S
C353 C352 1.396 1_545 S
C353 H375 0.929 1_545 S
C354 O364 1.240 . S
C354 O365 1.289 . S
C355 O366 1.258 1_565 S
C355 O367 1.256 . S
O356 La336 2.521 1_655 S
O356 C338 1.261 . S
O357 La336 2.628 1_654 S
O357 C338 1.243 1_554 S
O358 La336 2.554 . S
O358 C345 1.240 . S
O359 La336 2.757 . S
O359 La337 2.482 1_556 S
O359 C345 1.289 . S
O360 La336 2.470 . S
O360 C346 1.258 1_556 S
O361 La337 2.503 . S
O361 C346 1.256 . S
O362 La337 2.521 . S
O362 C347 1.261 . S
O363 La337 2.628 . S
O363 C347 1.243 . S
O364 La337 2.554 . S
O364 C354 1.240 . S
O365 La336 2.482 1_554 S
O365 La337 2.757 . S
O365 C354 1.289 . S
O366 La337 2.470 . S
O366 C355 1.258 1_545 S
O367 La336 2.503 1_564 S
O367 C355 1.256 . S
H368 C340 0.930 . S
H369 C341 0.930 . S
H370 C343 0.929 1_554 S
H371 C344 0.929 1_554 S
H372 C349 0.930 . S
H373 C350 0.930 . S
H374 C352 0.929 . S
H375 C353 0.929 1_565 S
La376 C378 2.928 . S
La376 O396 2.521 . S
La376 O397 2.628 . S
La376 O398 2.554 . S
La376 O399 2.757 . S
La376 O400 2.470 . S
La376 O405 2.482 . S
La376 O407 2.503 . S
La377 C387 2.928 . S
La377 O399 2.482 . S
La377 O401 2.503 . S
La377 O402 2.521 . S
La377 O403 2.628 . S
La377 O404 2.554 . S
La377 O405 2.757 . S
La377 O406 2.470 . S
C378 La376 2.928 . S
C378 C379 1.503 . S
C378 O396 1.261 . S
C378 O397 1.243 . S
C379 C378 1.503 . S
C379 C380 1.394 . S
C379 C384 1.373 . S
C380 C379 1.394 . S
C380 C381 1.380 . S
C380 H408 0.930 . S
C381 C380 1.380 . S
C381 C382 1.376 . S
C381 H409 0.930 . S
C382 C381 1.376 . S
C382 C383 1.370 . S
C383 C382 1.370 . S
C383 C384 1.396 . S
C383 H410 0.929 . S
C384 C379 1.373 . S
C384 C383 1.396 . S
C384 H411 0.929 . S
C385 O398 1.240 . S
C385 O399 1.289 . S
C386 O400 1.258 . S
C386 O401 1.256 . S
C387 La377 2.928 . S
C387 C388 1.503 . S
C387 O402 1.261 . S
C387 O403 1.243 . S
C388 C387 1.503 . S
C388 C389 1.394 . S
C388 C393 1.373 . S
C389 C388 1.394 . S
C389 C390 1.380 . S
C389 H412 0.930 . S
C390 C389 1.380 . S
C390 C391 1.376 . S
C390 H413 0.930 . S
C391 C390 1.376 . S
C391 C392 1.370 . S
C392 C391 1.370 . S
C392 C393 1.396 . S
C392 H414 0.929 . S
C393 C388 1.373 . S
C393 C392 1.396 . S
C393 H415 0.929 . S
C394 O404 1.240 . S
C394 O405 1.289 . S
C395 O406 1.258 . S
C395 O407 1.256 . S
O396 La376 2.521 . S
O396 C378 1.261 . S
O397 La376 2.628 . S
O397 C378 1.243 . S
O398 La376 2.554 . S
O398 C385 1.240 . S
O399 La376 2.757 . S
O399 La377 2.482 . S
O399 C385 1.289 . S
O400 La376 2.470 . S
O400 C386 1.258 . S
O401 La377 2.503 . S
O401 C386 1.256 . S
O402 La377 2.521 . S
O402 C387 1.261 . S
O403 La377 2.628 . S
O403 C387 1.243 . S
O404 La377 2.554 . S
O404 C394 1.240 . S
O405 La376 2.482 . S
O405 La377 2.757 . S
O405 C394 1.289 . S
O406 La377 2.470 . S
O406 C395 1.258 . S
O407 La376 2.503 . S
O407 C395 1.256 . S
H408 C380 0.930 . S
H409 C381 0.930 . S
H410 C383 0.929 . S
H411 C384 0.929 . S
H412 C389 0.930 . S
H413 C390 0.930 . S
H414 C392 0.929 . S
H415 C393 0.929 . S
La416 C418 2.928 . S
La416 O436 2.521 . S
La416 O437 2.628 . S
La416 O438 2.554 . S
La416 O439 2.757 . S
La416 O440 2.470 1_545 S
La416 O445 2.482 . S
La416 O447 2.503 . S
La417 C427 2.928 . S
La417 O439 2.482 . S
La417 O441 2.503 1_545 S
La417 O442 2.521 . S
La417 O443 2.628 . S
La417 O444 2.554 . S
La417 O445 2.757 . S
La417 O446 2.470 . S
C418 La416 2.928 . S
C418 C419 1.503 1_545 S
C418 O436 1.261 . S
C418 O437 1.243 . S
C419 C418 1.503 1_565 S
C419 C420 1.394 . S
C419 C424 1.373 . S
C420 C419 1.394 . S
C420 C421 1.380 . S
C420 H448 0.930 1_565 S
C421 C420 1.380 . S
C421 C422 1.376 . S
C421 H449 0.930 . S
C422 C421 1.376 . S
C422 C423 1.370 . S
C423 C422 1.370 . S
C423 C424 1.396 . S
C423 H450 0.929 . S
C424 C419 1.373 . S
C424 C423 1.396 . S
C424 H451 0.929 . S
C425 O438 1.240 . S
C425 O439 1.289 . S
C426 O440 1.258 . S
C426 O441 1.256 . S
C427 La417 2.928 . S
C427 C428 1.503 . S
C427 O442 1.261 . S
C427 O443 1.243 . S
C428 C427 1.503 . S
C428 C429 1.394 . S
C428 C433 1.373 . S
C429 C428 1.394 . S
C429 C430 1.380 . S
C429 H452 0.930 . S
C430 C429 1.380 . S
C430 C431 1.376 . S
C430 H453 0.930 . S
C431 C430 1.376 . S
C431 C432 1.370 . S
C432 C431 1.370 . S
C432 C433 1.396 . S
C432 H454 0.929 . S
C433 C428 1.373 . S
C433 C432 1.396 . S
C433 H455 0.929 . S
C434 O444 1.240 . S
C434 O445 1.289 . S
C435 O446 1.258 . S
C435 O447 1.256 . S
O436 La416 2.521 . S
O436 C418 1.261 . S
O437 La416 2.628 . S
O437 C418 1.243 . S
O438 La416 2.554 . S
O438 C425 1.240 . S
O439 La416 2.757 . S
O439 La417 2.482 . S
O439 C425 1.289 . S
O440 La416 2.470 1_565 S
O440 C426 1.258 . S
O441 La417 2.503 1_565 S
O441 C426 1.256 . S
O442 La417 2.521 . S
O442 C427 1.261 . S
O443 La417 2.628 . S
O443 C427 1.243 . S
O444 La417 2.554 . S
O444 C434 1.240 . S
O445 La416 2.482 . S
O445 La417 2.757 . S
O445 C434 1.289 . S
O446 La417 2.470 . S
O446 C435 1.258 . S
O447 La416 2.503 . S
O447 C435 1.256 . S
H448 C420 0.930 1_545 S
H449 C421 0.930 . S
H450 C423 0.929 . S
H451 C424 0.929 . S
H452 C429 0.930 . S
H453 C430 0.930 . S
H454 C432 0.929 . S
H455 C433 0.929 . S
La456 C458 2.928 . S
La456 O476 2.521 . S
La456 O477 2.628 . S
La456 O478 2.554 . S
La456 O479 2.757 . S
La456 O480 2.470 . S
La456 O485 2.482 . S
La456 O487 2.503 . S
La457 C467 2.928 . S
La457 O479 2.482 . S
La457 O481 2.503 . S
La457 O482 2.521 . S
La457 O483 2.628 . S
La457 O484 2.554 . S
La457 O485 2.757 . S
La457 O486 2.470 . S
C458 La456 2.928 . S
C458 C459 1.503 . S
C458 O476 1.261 . S
C458 O477 1.243 . S
C459 C458 1.503 . S
C459 C460 1.394 . S
C459 C464 1.373 . S
C460 C459 1.394 . S
C460 C461 1.380 . S
C460 H488 0.930 . S
C461 C460 1.380 . S
C461 C462 1.376 . S
C461 H489 0.930 . S
C462 C461 1.376 . S
C462 C463 1.370 . S
C463 C462 1.370 . S
C463 C464 1.396 . S
C463 H490 0.929 . S
C464 C459 1.373 . S
C464 C463 1.396 . S
C464 H491 0.929 . S
C465 O478 1.240 . S
C465 O479 1.289 . S
C466 O480 1.258 . S
C466 O481 1.256 . S
C467 La457 2.928 . S
C467 C468 1.503 . S
C467 O482 1.261 . S
C467 O483 1.243 . S
C468 C467 1.503 . S
C468 C469 1.394 . S
C468 C473 1.373 . S
C469 C468 1.394 . S
C469 C470 1.380 . S
C469 H492 0.930 . S
C470 C469 1.380 . S
C470 C471 1.376 . S
C470 H493 0.930 . S
C471 C470 1.376 . S
C471 C472 1.370 . S
C472 C471 1.370 . S
C472 C473 1.396 . S
C472 H494 0.929 . S
C473 C468 1.373 . S
C473 C472 1.396 . S
C473 H495 0.929 . S
C474 O484 1.240 . S
C474 O485 1.289 . S
C475 O486 1.258 . S
C475 O487 1.256 . S
O476 La456 2.521 . S
O476 C458 1.261 . S
O477 La456 2.628 . S
O477 C458 1.243 . S
O478 La456 2.554 . S
O478 C465 1.240 . S
O479 La456 2.757 . S
O479 La457 2.482 . S
O479 C465 1.289 . S
O480 La456 2.470 . S
O480 C466 1.258 . S
O481 La457 2.503 . S
O481 C466 1.256 . S
O482 La457 2.521 . S
O482 C467 1.261 . S
O483 La457 2.628 . S
O483 C467 1.243 . S
O484 La457 2.554 . S
O484 C474 1.240 . S
O485 La456 2.482 . S
O485 La457 2.757 . S
O485 C474 1.289 . S
O486 La457 2.470 . S
O486 C475 1.258 . S
O487 La456 2.503 . S
O487 C475 1.256 . S
H488 C460 0.930 . S
H489 C461 0.930 . S
H490 C463 0.929 . S
H491 C464 0.929 . S
H492 C469 0.930 . S
H493 C470 0.930 . S
H494 C472 0.929 . S
H495 C473 0.929 . S
La496 C498 2.928 . S
La496 O516 2.521 . S
La496 O517 2.628 . S
La496 O518 2.554 1_455 S
La496 O519 2.757 . S
La496 O520 2.470 . S
La496 O525 2.482 . S
La496 O527 2.503 . S
La497 C507 2.971 . S
La497 O519 2.456 1_565 S
La497 O521 2.475 1_565 S
La497 O522 2.563 . S
La497 O523 2.663 . S
La497 O524 2.541 1_565 S
La497 O525 2.715 1_565 S
La497 O526 2.463 1_565 S
C498 La496 2.928 . S
C498 C499 1.503 . S
C498 O516 1.261 . S
C498 O517 1.243 . S
C499 C498 1.503 . S
C499 C500 1.394 . S
C499 C504 1.373 . S
C500 C499 1.394 . S
C500 C501 1.380 . S
C500 H528 0.930 . S
C501 C500 1.380 . S
C501 C502 1.376 . S
C501 H529 0.928 1_455 S
C502 C501 1.376 . S
C502 C503 1.370 . S
C503 C502 1.370 . S
C503 C504 1.396 . S
C503 H530 0.929 . S
C504 C499 1.373 . S
C504 C503 1.396 . S
C504 H531 0.929 . S
C505 O518 1.239 . S
C505 O519 1.293 1_655 S
C506 O520 1.258 . S
C506 O521 1.256 . S
C507 La497 2.971 . S
C507 C508 1.503 . S
C507 O522 1.261 . S
C507 O523 1.243 . S
C508 C507 1.503 . S
C508 C509 1.394 . S
C508 C513 1.373 . S
C509 C508 1.394 . S
C509 C510 1.380 . S
C509 H532 0.930 . S
C510 C509 1.380 . S
C510 C511 1.376 . S
C510 H533 0.930 . S
C511 C510 1.376 . S
C511 C512 1.370 . S
C512 C511 1.370 . S
C512 C513 1.396 . S
C512 H534 0.929 . S
C513 C508 1.373 . S
C513 C512 1.396 . S
C513 H535 0.929 . S
C514 O524 1.240 . S
C514 O525 1.289 . S
C515 O526 1.258 . S
C515 O527 1.256 . S
O516 La496 2.521 . S
O516 C498 1.261 . S
O517 La496 2.628 . S
O517 C498 1.243 . S
O518 La496 2.554 1_655 S
O518 C505 1.239 . S
O519 La496 2.757 . S
O519 La497 2.456 1_545 S
O519 C505 1.293 1_455 S
O520 La496 2.470 . S
O520 C506 1.258 . S
O521 La497 2.475 1_545 S
O521 C506 1.256 . S
O522 La497 2.563 . S
O522 C507 1.261 . S
O523 La497 2.663 . S
O523 C507 1.243 . S
O524 La497 2.541 1_545 S
O524 C514 1.240 . S
O525 La496 2.482 . S
O525 La497 2.715 1_545 S
O525 C514 1.289 . S
O526 La497 2.463 1_545 S
O526 C515 1.258 . S
O527 La496 2.503 . S
O527 C515 1.256 . S
H528 C500 0.930 . S
H529 C501 0.928 1_655 S
H530 C503 0.929 . S
H531 C504 0.929 . S
H532 C509 0.930 . S
H533 C510 0.930 . S
H534 C512 0.929 . S
H535 C513 0.929 . S
La536 C538 2.928 . S
La536 O556 2.521 . S
La536 O557 2.628 . S
La536 O558 2.554 . S
La536 O559 2.757 . S
La536 O560 2.470 . S
La536 O565 2.482 . S
La536 O567 2.503 . S
La537 C547 2.928 . S
La537 O559 2.482 . S
La537 O561 2.503 . S
La537 O562 2.521 . S
La537 O563 2.628 . S
La537 O564 2.554 . S
La537 O565 2.757 . S
La537 O566 2.470 . S
C538 La536 2.928 . S
C538 C539 1.503 . S
C538 O556 1.261 . S
C538 O557 1.243 . S
C539 C538 1.503 . S
C539 C540 1.394 . S
C539 C544 1.373 . S
C540 C539 1.394 . S
C540 C541 1.380 . S
C540 H568 0.930 . S
C541 C540 1.380 . S
C541 C542 1.376 . S
C541 H569 0.930 . S
C542 C541 1.376 . S
C542 C543 1.370 . S
C543 C542 1.370 . S
C543 C544 1.396 . S
C543 H570 0.929 . S
C544 C539 1.373 . S
C544 C543 1.396 . S
C544 H571 0.929 . S
C545 O558 1.240 . S
C545 O559 1.289 . S
C546 O560 1.258 . S
C546 O561 1.256 . S
C547 La537 2.928 . S
C547 C548 1.503 . S
C547 O562 1.261 . S
C547 O563 1.243 . S
C548 C547 1.503 . S
C548 C549 1.394 . S
C548 C553 1.373 . S
C549 C548 1.394 . S
C549 C550 1.380 . S
C549 H572 0.930 . S
C550 C549 1.380 . S
C550 C551 1.376 . S
C550 H573 0.930 . S
C551 C550 1.376 . S
C551 C552 1.370 . S
C552 C551 1.370 . S
C552 C553 1.396 . S
C552 H574 0.929 . S
C553 C548 1.373 . S
C553 C552 1.396 . S
C553 H575 0.929 . S
C554 O564 1.240 . S
C554 O565 1.289 . S
C555 O566 1.258 . S
C555 O567 1.256 . S
O556 La536 2.521 . S
O556 C538 1.261 . S
O557 La536 2.628 . S
O557 C538 1.243 . S
O558 La536 2.554 . S
O558 C545 1.240 . S
O559 La536 2.757 . S
O559 La537 2.482 . S
O559 C545 1.289 . S
O560 La536 2.470 . S
O560 C546 1.258 . S
O561 La537 2.503 . S
O561 C546 1.256 . S
O562 La537 2.521 . S
O562 C547 1.261 . S
O563 La537 2.628 . S
O563 C547 1.243 . S
O564 La537 2.554 . S
O564 C554 1.240 . S
O565 La536 2.482 . S
O565 La537 2.757 . S
O565 C554 1.289 . S
O566 La537 2.470 . S
O566 C555 1.258 . S
O567 La536 2.503 . S
O567 C555 1.256 . S
H568 C540 0.930 . S
H569 C541 0.930 . S
H570 C543 0.929 . S
H571 C544 0.929 . S
H572 C549 0.930 . S
H573 C550 0.930 . S
H574 C552 0.929 . S
H575 C553 0.929 . S
La576 C578 2.928 . S
La576 O596 2.521 1_545 S
La576 O597 2.628 . S
La576 O598 2.554 1_545 S
La576 O599 2.757 1_554 S
La576 O600 2.471 . S
La576 O605 2.482 . S
La576 O607 2.503 . S
La577 C587 2.928 . S
La577 O599 2.482 . S
La577 O601 2.503 . S
La577 O602 2.521 . S
La577 O603 2.628 . S
La577 O604 2.554 1_556 S
La577 O605 2.757 1_556 S
La577 O606 2.455 1_556 S
C578 La576 2.928 . S
C578 C579 1.503 1_545 S
C578 O596 1.261 1_545 S
C578 O597 1.243 . S
C579 C578 1.503 1_565 S
C579 C580 1.394 . S
C579 C584 1.373 1_565 S
C580 C579 1.394 . S
C580 C581 1.380 . S
C580 H608 0.930 . S
C581 C580 1.380 . S
C581 C582 1.376 . S
C581 H609 0.930 . S
C582 C581 1.376 . S
C582 C583 1.370 1_565 S
C583 C582 1.370 1_545 S
C583 C584 1.396 . S
C583 H610 0.929 . S
C584 C579 1.373 1_545 S
C584 C583 1.396 . S
C584 H611 0.929 . S
C585 O598 1.240 1_556 S
C585 O599 1.289 1_565 S
C586 O600 1.264 . S
C586 O601 1.256 1_554 S
C587 La577 2.928 . S
C587 C588 1.503 . S
C587 O602 1.261 . S
C587 O603 1.243 . S
C588 C587 1.503 . S
C588 C589 1.394 . S
C588 C593 1.373 . S
C589 C588 1.394 . S
C589 C590 1.380 . S
C589 H612 0.930 . S
C590 C589 1.380 . S
C590 C591 1.376 . S
C590 H613 0.930 . S
C591 C590 1.376 . S
C591 C592 1.370 . S
C592 C591 1.370 . S
C592 C593 1.396 . S
C592 H614 0.929 . S
C593 C588 1.373 . S
C593 C592 1.396 . S
C593 H615 0.929 . S
C594 O604 1.240 . S
C594 O605 1.289 . S
C595 O606 1.288 . S
C595 O607 1.256 . S
O596 La576 2.521 1_565 S
O596 C578 1.261 1_565 S
O597 La576 2.628 . S
O597 C578 1.243 . S
O598 La576 2.554 1_565 S
O598 C585 1.240 1_554 S
O599 La576 2.757 1_556 S
O599 La577 2.482 . S
O599 C585 1.289 1_545 S
O600 La576 2.471 . S
O600 C586 1.264 . S
O601 La577 2.503 . S
O601 C586 1.256 1_556 S
O602 La577 2.521 . S
O602 C587 1.261 . S
O603 La577 2.628 . S
O603 C587 1.243 . S
O604 La577 2.554 1_554 S
O604 C594 1.240 . S
O605 La576 2.482 . S
O605 La577 2.757 1_554 S
O605 C594 1.289 . S
O606 La577 2.455 1_554 S
O606 C595 1.288 . S
O607 La576 2.503 . S
O607 C595 1.256 . S
H608 C580 0.930 . S
H609 C581 0.930 . S
H610 C583 0.929 . S
H611 C584 0.929 . S
H612 C589 0.930 . S
H613 C590 0.930 . S
H614 C592 0.929 . S
H615 C593 0.929 . S
La616 C618 2.928 . S
La616 O636 2.521 . S
La616 O637 2.628 . S
La616 O638 2.554 . S
La616 O639 2.757 . S
La616 O640 2.470 . S
La616 O645 2.482 . S
La616 O647 2.503 . S
La617 C627 2.928 . S
La617 O639 2.482 . S
La617 O641 2.503 . S
La617 O642 2.521 . S
La617 O643 2.628 . S
La617 O644 2.554 . S
La617 O645 2.757 . S
La617 O646 2.470 . S
C618 La616 2.928 . S
C618 C619 1.503 . S
C618 O636 1.261 . S
C618 O637 1.243 . S
C619 C618 1.503 . S
C619 C620 1.394 . S
C619 C624 1.373 . S
C620 C619 1.394 . S
C620 C621 1.380 . S
C620 H648 0.930 . S
C621 C620 1.380 . S
C621 C622 1.376 . S
C621 H649 0.930 . S
C622 C621 1.376 . S
C622 C623 1.370 . S
C623 C622 1.370 . S
C623 C624 1.396 . S
C623 H650 0.929 . S
C624 C619 1.373 . S
C624 C623 1.396 . S
C624 H651 0.929 . S
C625 O638 1.240 . S
C625 O639 1.289 . S
C626 O640 1.258 . S
C626 O641 1.256 . S
C627 La617 2.928 . S
C627 C628 1.503 . S
C627 O642 1.261 . S
C627 O643 1.243 . S
C628 C627 1.503 . S
C628 C629 1.394 . S
C628 C633 1.373 . S
C629 C628 1.394 . S
C629 C630 1.380 . S
C629 H652 0.930 . S
C630 C629 1.380 . S
C630 C631 1.376 . S
C630 H653 0.930 . S
C631 C630 1.376 . S
C631 C632 1.370 . S
C632 C631 1.370 . S
C632 C633 1.396 . S
C632 H654 0.929 . S
C633 C628 1.373 . S
C633 C632 1.396 . S
C633 H655 0.929 . S
C634 O644 1.240 . S
C634 O645 1.289 . S
C635 O646 1.258 . S
C635 O647 1.256 . S
O636 La616 2.521 . S
O636 C618 1.261 . S
O637 La616 2.628 . S
O637 C618 1.243 . S
O638 La616 2.554 . S
O638 C625 1.240 . S
O639 La616 2.757 . S
O639 La617 2.482 . S
O639 C625 1.289 . S
O640 La616 2.470 . S
O640 C626 1.258 . S
O641 La617 2.503 . S
O641 C626 1.256 . S
O642 La617 2.521 . S
O642 C627 1.261 . S
O643 La617 2.628 . S
O643 C627 1.243 . S
O644 La617 2.554 . S
O644 C634 1.240 . S
O645 La616 2.482 . S
O645 La617 2.757 . S
O645 C634 1.289 . S
O646 La617 2.470 . S
O646 C635 1.258 . S
O647 La616 2.503 . S
O647 C635 1.256 . S
H648 C620 0.930 . S
H649 C621 0.930 . S
H650 C623 0.929 . S
H651 C624 0.929 . S
H652 C629 0.930 . S
H653 C630 0.930 . S
H654 C632 0.929 . S
H655 C633 0.929 . S
La656 C658 2.928 . S
La656 O676 2.521 . S
La656 O677 2.624 1_554 S
La656 O678 2.554 . S
La656 O679 2.757 . S
La656 O680 2.470 1_554 S
La656 O685 2.482 . S
La656 O687 2.503 . S
La657 C667 2.928 . S
La657 O679 2.482 . S
La657 O681 2.503 1_554 S
La657 O682 2.521 . S
La657 O683 2.628 . S
La657 O684 2.554 . S
La657 O685 2.757 . S
La657 O686 2.470 . S
C658 La656 2.928 . S
C658 C659 1.503 1_554 S
C658 O676 1.261 . S
C658 O677 1.242 1_554 S
C659 C658 1.503 1_556 S
C659 C660 1.394 . S
C659 C664 1.373 . S
C660 C659 1.394 . S
C660 C661 1.380 . S
C660 H688 0.930 1_556 S
C661 C660 1.380 . S
C661 C662 1.376 . S
C661 H689 0.930 . S
C662 C661 1.376 . S
C662 C663 1.370 . S
C663 C662 1.370 . S
C663 C664 1.396 . S
C663 H690 0.929 . S
C664 C659 1.373 . S
C664 C663 1.396 . S
C664 H691 0.929 . S
C665 O678 1.240 . S
C665 O679 1.289 . S
C666 O680 1.258 . S
C666 O681 1.256 . S
C667 La657 2.928 . S
C667 C668 1.503 . S
C667 O682 1.261 . S
C667 O683 1.243 . S
C668 C667 1.503 . S
C668 C669 1.394 . S
C668 C673 1.373 . S
C669 C668 1.394 . S
C669 C670 1.380 . S
C669 H692 0.930 . S
C670 C669 1.380 . S
C670 C671 1.376 . S
C670 H693 0.930 . S
C671 C670 1.376 . S
C671 C672 1.370 . S
C672 C671 1.370 . S
C672 C673 1.396 . S
C672 H694 0.929 . S
C673 C668 1.373 . S
C673 C672 1.396 . S
C673 H695 0.929 . S
C674 O684 1.240 . S
C674 O685 1.289 . S
C675 O686 1.258 . S
C675 O687 1.256 . S
O676 La656 2.521 . S
O676 C658 1.261 . S
O677 La656 2.624 1_556 S
O677 C658 1.242 1_556 S
O678 La656 2.554 . S
O678 C665 1.240 . S
O679 La656 2.757 . S
O679 La657 2.482 . S
O679 C665 1.289 . S
O680 La656 2.470 1_556 S
O680 C666 1.258 . S
O681 La657 2.503 1_556 S
O681 C666 1.256 . S
O682 La657 2.521 . S
O682 C667 1.261 . S
O683 La657 2.628 . S
O683 C667 1.243 . S
O684 La657 2.554 . S
O684 C674 1.240 . S
O685 La656 2.482 . S
O685 La657 2.757 . S
O685 C674 1.289 . S
O686 La657 2.470 . S
O686 C675 1.258 . S
O687 La656 2.503 . S
O687 C675 1.256 . S
H688 C660 0.930 1_554 S
H689 C661 0.930 . S
H690 C663 0.929 . S
H691 C664 0.929 . S
H692 C669 0.930 . S
H693 C670 0.930 . S
H694 C672 0.929 . S
H695 C673 0.929 . S
La696 C698 2.928 . S
La696 O716 2.521 . S
La696 O717 2.628 . S
La696 O718 2.554 . S
La696 O719 2.757 . S
La696 O720 2.470 . S
La696 O725 2.482 . S
La696 O727 2.503 . S
La697 C707 2.928 . S
La697 O719 2.482 . S
La697 O721 2.503 . S
La697 O722 2.521 . S
La697 O723 2.628 . S
La697 O724 2.554 . S
La697 O725 2.757 . S
La697 O726 2.470 . S
C698 La696 2.928 . S
C698 C699 1.503 . S
C698 O716 1.261 . S
C698 O717 1.243 . S
C699 C698 1.503 . S
C699 C700 1.394 . S
C699 C704 1.373 . S
C700 C699 1.394 . S
C700 C701 1.380 . S
C700 H728 0.930 . S
C701 C700 1.380 . S
C701 C702 1.376 . S
C701 H729 0.930 . S
C702 C701 1.376 . S
C702 C703 1.370 . S
C703 C702 1.370 . S
C703 C704 1.396 . S
C703 H730 0.929 . S
C704 C699 1.373 . S
C704 C703 1.396 . S
C704 H731 0.929 . S
C705 O718 1.240 . S
C705 O719 1.289 . S
C706 O720 1.258 . S
C706 O721 1.256 . S
C707 La697 2.928 . S
C707 C708 1.503 . S
C707 O722 1.261 . S
C707 O723 1.243 . S
C708 C707 1.503 . S
C708 C709 1.394 . S
C708 C713 1.373 . S
C709 C708 1.394 . S
C709 C710 1.380 . S
C709 H732 0.930 . S
C710 C709 1.380 . S
C710 C711 1.376 . S
C710 H733 0.930 . S
C711 C710 1.376 . S
C711 C712 1.370 . S
C712 C711 1.370 . S
C712 C713 1.396 . S
C712 H734 0.929 . S
C713 C708 1.373 . S
C713 C712 1.396 . S
C713 H735 0.929 . S
C714 O724 1.240 . S
C714 O725 1.289 . S
C715 O726 1.258 . S
C715 O727 1.256 . S
O716 La696 2.521 . S
O716 C698 1.261 . S
O717 La696 2.628 . S
O717 C698 1.243 . S
O718 La696 2.554 . S
O718 C705 1.240 . S
O719 La696 2.757 . S
O719 La697 2.482 . S
O719 C705 1.289 . S
O720 La696 2.470 . S
O720 C706 1.258 . S
O721 La697 2.503 . S
O721 C706 1.256 . S
O722 La697 2.521 . S
O722 C707 1.261 . S
O723 La697 2.628 . S
O723 C707 1.243 . S
O724 La697 2.554 . S
O724 C714 1.240 . S
O725 La696 2.482 . S
O725 La697 2.757 . S
O725 C714 1.289 . S
O726 La697 2.470 . S
O726 C715 1.258 . S
O727 La696 2.503 . S
O727 C715 1.256 . S
H728 C700 0.930 . S
H729 C701 0.930 . S
H730 C703 0.929 . S
H731 C704 0.929 . S
H732 C709 0.930 . S
H733 C710 0.930 . S
H734 C712 0.929 . S
H735 C713 0.929 . S
La736 C738 2.928 . S
La736 O756 2.521 . S
La736 O757 2.628 . S
La736 O758 2.554 . S
La736 O759 2.757 . S
La736 O760 2.470 . S
La736 O765 2.482 . S
La736 O767 2.503 . S
La737 C747 2.928 . S
La737 O759 2.482 . S
La737 O761 2.503 . S
La737 O762 2.521 . S
La737 O763 2.628 . S
La737 O764 2.554 . S
La737 O765 2.757 . S
La737 O766 2.470 . S
C738 La736 2.928 . S
C738 C739 1.503 . S
C738 O756 1.261 . S
C738 O757 1.243 . S
C739 C738 1.503 . S
C739 C740 1.394 . S
C739 C744 1.373 1_455 S
C740 C739 1.394 . S
C740 C741 1.380 . S
C740 H768 0.930 . S
C741 C740 1.380 . S
C741 C742 1.376 1_455 S
C741 H769 0.930 . S
C742 C741 1.376 1_655 S
C742 C743 1.370 . S
C743 C742 1.370 . S
C743 C744 1.396 . S
C743 H770 0.929 . S
C744 C739 1.373 1_655 S
C744 C743 1.396 . S
C744 H771 0.929 . S
C745 O758 1.240 . S
C745 O759 1.289 . S
C746 O760 1.292 . S
C746 O761 1.265 . S
C747 La737 2.928 . S
C747 C748 1.503 . S
C747 O762 1.261 . S
C747 O763 1.243 . S
C748 C747 1.503 . S
C748 C749 1.394 . S
C748 C753 1.373 . S
C749 C748 1.394 . S
C749 C750 1.380 . S
C749 H772 0.930 . S
C750 C749 1.380 . S
C750 C751 1.376 . S
C750 H773 0.930 . S
C751 C750 1.376 . S
C751 C752 1.370 . S
C752 C751 1.370 . S
C752 C753 1.396 . S
C752 H774 0.929 . S
C753 C748 1.373 . S
C753 C752 1.396 . S
C753 H775 0.929 . S
C754 O764 1.240 . S
C754 O765 1.289 . S
C755 O766 1.258 . S
C755 O767 1.256 . S
O756 La736 2.521 . S
O756 C738 1.261 . S
O757 La736 2.628 . S
O757 C738 1.243 . S
O758 La736 2.554 . S
O758 C745 1.240 . S
O759 La736 2.757 . S
O759 La737 2.482 . S
O759 C745 1.289 . S
O760 La736 2.470 . S
O760 C746 1.292 . S
O761 La737 2.503 . S
O761 C746 1.265 . S
O762 La737 2.521 . S
O762 C747 1.261 . S
O763 La737 2.628 . S
O763 C747 1.243 . S
O764 La737 2.554 . S
O764 C754 1.240 . S
O765 La736 2.482 . S
O765 La737 2.757 . S
O765 C754 1.289 . S
O766 La737 2.470 . S
O766 C755 1.258 . S
O767 La736 2.503 . S
O767 C755 1.256 . S
H768 C740 0.930 . S
H769 C741 0.930 . S
H770 C743 0.929 . S
H771 C744 0.929 . S
H772 C749 0.930 . S
H773 C750 0.930 . S
H774 C752 0.929 . S
H775 C753 0.929 . S
La776 C778 2.928 . S
La776 O796 2.521 . S
La776 O797 2.628 . S
La776 O798 2.554 . S
La776 O799 2.757 . S
La776 O800 2.470 . S
La776 O805 2.482 . S
La776 O807 2.503 . S
La777 C787 2.928 . S
La777 O799 2.482 . S
La777 O801 2.503 . S
La777 O802 2.521 . S
La777 O803 2.628 . S
La777 O804 2.554 . S
La777 O805 2.757 . S
La777 O806 2.470 . S
C778 La776 2.928 . S
C778 C779 1.503 . S
C778 O796 1.261 . S
C778 O797 1.243 . S
C779 C778 1.503 . S
C779 C780 1.394 . S
C779 C784 1.373 . S
C780 C779 1.394 . S
C780 C781 1.380 . S
C780 H808 0.930 . S
C781 C780 1.380 . S
C781 C782 1.376 . S
C781 H809 0.930 . S
C782 C781 1.376 . S
C782 C783 1.370 . S
C783 C782 1.370 . S
C783 C784 1.396 . S
C783 H810 0.929 . S
C784 C779 1.373 . S
C784 C783 1.396 . S
C784 H811 0.929 . S
C785 O798 1.240 . S
C785 O799 1.289 . S
C786 O800 1.258 . S
C786 O801 1.256 . S
C787 La777 2.928 . S
C787 C788 1.503 . S
C787 O802 1.261 . S
C787 O803 1.243 . S
C788 C787 1.503 . S
C788 C789 1.394 . S
C788 C793 1.373 . S
C789 C788 1.394 . S
C789 C790 1.380 . S
C789 H812 0.930 . S
C790 C789 1.380 . S
C790 C791 1.376 . S
C790 H813 0.930 . S
C791 C790 1.376 . S
C791 C792 1.370 . S
C792 C791 1.370 . S
C792 C793 1.396 . S
C792 H814 0.929 . S
C793 C788 1.373 . S
C793 C792 1.396 . S
C793 H815 0.929 . S
C794 O804 1.240 . S
C794 O805 1.289 . S
C795 O806 1.258 . S
C795 O807 1.256 . S
O796 La776 2.521 . S
O796 C778 1.261 . S
O797 La776 2.628 . S
O797 C778 1.243 . S
O798 La776 2.554 . S
O798 C785 1.240 . S
O799 La776 2.757 . S
O799 La777 2.482 . S
O799 C785 1.289 . S
O800 La776 2.470 . S
O800 C786 1.258 . S
O801 La777 2.503 . S
O801 C786 1.256 . S
O802 La777 2.521 . S
O802 C787 1.261 . S
O803 La777 2.628 . S
O803 C787 1.243 . S
O804 La777 2.554 . S
O804 C794 1.240 . S
O805 La776 2.482 . S
O805 La777 2.757 . S
O805 C794 1.289 . S
O806 La777 2.470 . S
O806 C795 1.258 . S
O807 La776 2.503 . S
O807 C795 1.256 . S
H808 C780 0.930 . S
H809 C781 0.930 . S
H810 C783 0.929 . S
H811 C784 0.929 . S
H812 C789 0.930 . S
H813 C790 0.930 . S
H814 C792 0.929 . S
H815 C793 0.929 . S
La816 C818 2.928 . S
La816 O836 2.521 . S
La816 O837 2.628 . S
La816 O838 2.554 . S
La816 O839 2.757 . S
La816 O840 2.470 . S
La816 O845 2.482 . S
La816 O847 2.503 . S
La817 C827 2.928 . S
La817 O839 2.482 . S
La817 O841 2.503 . S
La817 O842 2.521 . S
La817 O843 2.628 . S
La817 O844 2.554 . S
La817 O845 2.757 . S
La817 O846 2.470 . S
C818 La816 2.928 . S
C818 C819 1.503 . S
C818 O836 1.261 . S
C818 O837 1.243 . S
C819 C818 1.503 . S
C819 C820 1.394 . S
C819 C824 1.373 . S
C820 C819 1.394 . S
C820 C821 1.380 . S
C820 H848 0.930 . S
C821 C820 1.380 . S
C821 C822 1.376 . S
C821 H849 0.930 . S
C822 C821 1.376 . S
C822 C823 1.370 . S
C823 C822 1.370 . S
C823 C824 1.396 . S
C823 H850 0.929 . S
C824 C819 1.373 . S
C824 C823 1.396 . S
C824 H851 0.929 . S
C825 O838 1.240 . S
C825 O839 1.289 . S
C826 O840 1.258 . S
C826 O841 1.256 . S
C827 La817 2.928 . S
C827 C828 1.503 . S
C827 O842 1.261 . S
C827 O843 1.243 . S
C828 C827 1.503 . S
C828 C829 1.394 . S
C828 C833 1.373 . S
C829 C828 1.394 . S
C829 C830 1.380 . S
C829 H852 0.930 . S
C830 C829 1.380 . S
C830 C831 1.376 . S
C830 H853 0.930 . S
C831 C830 1.376 . S
C831 C832 1.370 . S
C832 C831 1.370 . S
C832 C833 1.396 . S
C832 H854 0.929 . S
C833 C828 1.373 . S
C833 C832 1.396 . S
C833 H855 0.929 . S
C834 O844 1.240 . S
C834 O845 1.289 . S
C835 O846 1.258 . S
C835 O847 1.256 . S
O836 La816 2.521 . S
O836 C818 1.261 . S
O837 La816 2.628 . S
O837 C818 1.243 . S
O838 La816 2.554 . S
O838 C825 1.240 . S
O839 La816 2.757 . S
O839 La817 2.482 . S
O839 C825 1.289 . S
O840 La816 2.470 . S
O840 C826 1.258 . S
O841 La817 2.503 . S
O841 C826 1.256 . S
O842 La817 2.521 . S
O842 C827 1.261 . S
O843 La817 2.628 . S
O843 C827 1.243 . S
O844 La817 2.554 . S
O844 C834 1.240 . S
O845 La816 2.482 . S
O845 La817 2.757 . S
O845 C834 1.289 . S
O846 La817 2.470 . S
O846 C835 1.258 . S
O847 La816 2.503 . S
O847 C835 1.256 . S
H848 C820 0.930 . S
H849 C821 0.930 . S
H850 C823 0.929 . S
H851 C824 0.929 . S
H852 C829 0.930 . S
H853 C830 0.930 . S
H854 C832 0.929 . S
H855 C833 0.929 . S
La856 C858 2.928 . S
La856 O876 2.521 . S
La856 O877 2.628 . S
La856 O878 2.554 . S
La856 O879 2.757 . S
La856 O880 2.470 . S
La856 O885 2.482 . S
La856 O887 2.503 . S
La857 C867 2.928 . S
La857 O879 2.482 . S
La857 O881 2.503 . S
La857 O882 2.521 . S
La857 O883 2.628 . S
La857 O884 2.554 . S
La857 O885 2.757 . S
La857 O886 2.470 . S
C858 La856 2.928 . S
C858 C859 1.503 . S
C858 O876 1.261 . S
C858 O877 1.243 . S
C859 C858 1.503 . S
C859 C860 1.394 . S
C859 C864 1.373 . S
C860 C859 1.394 . S
C860 C861 1.380 . S
C860 H888 0.930 . S
C861 C860 1.380 . S
C861 C862 1.376 . S
C861 H889 0.930 . S
C862 C861 1.376 . S
C862 C863 1.370 . S
C863 C862 1.370 . S
C863 C864 1.396 . S
C863 H890 0.929 . S
C864 C859 1.373 . S
C864 C863 1.396 . S
C864 H891 0.929 . S
C865 O878 1.240 . S
C865 O879 1.289 . S
C866 O880 1.258 . S
C866 O881 1.256 . S
C867 La857 2.928 . S
C867 C868 1.503 . S
C867 O882 1.261 . S
C867 O883 1.243 . S
C868 C867 1.503 . S
C868 C869 1.394 . S
C868 C873 1.373 . S
C869 C868 1.394 . S
C869 C870 1.380 . S
C869 H892 0.930 . S
C870 C869 1.380 . S
C870 C871 1.376 . S
C870 H893 0.930 . S
C871 C870 1.376 . S
C871 C872 1.370 . S
C872 C871 1.370 . S
C872 C873 1.396 . S
C872 H894 0.929 . S
C873 C868 1.373 . S
C873 C872 1.396 . S
C873 H895 0.929 . S
C874 O884 1.240 . S
C874 O885 1.289 . S
C875 O886 1.258 . S
C875 O887 1.256 . S
O876 La856 2.521 . S
O876 C858 1.261 . S
O877 La856 2.628 . S
O877 C858 1.243 . S
O878 La856 2.554 . S
O878 C865 1.240 . S
O879 La856 2.757 . S
O879 La857 2.482 . S
O879 C865 1.289 . S
O880 La856 2.470 . S
O880 C866 1.258 . S
O881 La857 2.503 . S
O881 C866 1.256 . S
O882 La857 2.521 . S
O882 C867 1.261 . S
O883 La857 2.628 . S
O883 C867 1.243 . S
O884 La857 2.554 . S
O884 C874 1.240 . S
O885 La856 2.482 . S
O885 La857 2.757 . S
O885 C874 1.289 . S
O886 La857 2.470 . S
O886 C875 1.258 . S
O887 La856 2.503 . S
O887 C875 1.256 . S
H888 C860 0.930 . S
H889 C861 0.930 . S
H890 C863 0.929 . S
H891 C864 0.929 . S
H892 C869 0.930 . S
H893 C870 0.930 . S
H894 C872 0.929 . S
H895 C873 0.929 . S
La896 C898 2.928 . S
La896 O916 2.521 . S
La896 O917 2.628 . S
La896 O918 2.554 . S
La896 O919 2.757 . S
La896 O920 2.470 . S
La896 O925 2.482 . S
La896 O927 2.503 . S
La897 C907 2.928 . S
La897 O919 2.482 . S
La897 O921 2.503 . S
La897 O922 2.521 . S
La897 O923 2.628 . S
La897 O924 2.554 . S
La897 O925 2.757 . S
La897 O926 2.470 . S
C898 La896 2.928 . S
C898 C899 1.503 . S
C898 O916 1.261 . S
C898 O917 1.243 . S
C899 C898 1.503 . S
C899 C900 1.394 . S
C899 C904 1.373 . S
C900 C899 1.394 . S
C900 C901 1.380 . S
C900 H928 0.930 . S
C901 C900 1.380 . S
C901 C902 1.376 . S
C901 H929 0.930 . S
C902 C901 1.376 . S
C902 C903 1.370 . S
C903 C902 1.370 . S
C903 C904 1.396 . S
C903 H930 0.929 . S
C904 C899 1.373 . S
C904 C903 1.396 . S
C904 H931 0.929 . S
C905 O918 1.240 . S
C905 O919 1.289 . S
C906 O920 1.258 . S
C906 O921 1.256 . S
C907 La897 2.928 . S
C907 C908 1.503 . S
C907 O922 1.261 . S
C907 O923 1.243 . S
C908 C907 1.503 . S
C908 C909 1.394 . S
C908 C913 1.373 . S
C909 C908 1.394 . S
C909 C910 1.380 . S
C909 H932 0.930 . S
C910 C909 1.380 . S
C910 C911 1.376 . S
C910 H933 0.930 . S
C911 C910 1.376 . S
C911 C912 1.370 . S
C912 C911 1.370 . S
C912 C913 1.396 . S
C912 H934 0.929 . S
C913 C908 1.373 . S
C913 C912 1.396 . S
C913 H935 0.929 . S
C914 O924 1.240 . S
C914 O925 1.289 . S
C915 O926 1.258 . S
C915 O927 1.256 . S
O916 La896 2.521 . S
O916 C898 1.261 . S
O917 La896 2.628 . S
O917 C898 1.243 . S
O918 La896 2.554 . S
O918 C905 1.240 . S
O919 La896 2.757 . S
O919 La897 2.482 . S
O919 C905 1.289 . S
O920 La896 2.470 . S
O920 C906 1.258 . S
O921 La897 2.503 . S
O921 C906 1.256 . S
O922 La897 2.521 . S
O922 C907 1.261 . S
O923 La897 2.628 . S
O923 C907 1.243 . S
O924 La897 2.554 . S
O924 C914 1.240 . S
O925 La896 2.482 . S
O925 La897 2.757 . S
O925 C914 1.289 . S
O926 La897 2.470 . S
O926 C915 1.258 . S
O927 La896 2.503 . S
O927 C915 1.256 . S
H928 C900 0.930 . S
H929 C901 0.930 . S
H930 C903 0.929 . S
H931 C904 0.929 . S
H932 C909 0.930 . S
H933 C910 0.930 . S
H934 C912 0.929 . S
H935 C913 0.929 . S
La936 C938 2.924 1_554 S
La936 O956 2.496 1_554 S
La936 O957 2.645 . S
La936 O958 2.510 1_554 S
La936 O959 2.747 1_554 S
La936 O960 2.471 1_554 S
La936 O965 2.527 . S
La936 O967 2.512 . S
La937 C947 2.928 1_455 S
La937 O959 2.482 1_554 S
La937 O961 2.503 . S
La937 O962 2.521 1_455 S
La937 O963 2.628 1_455 S
La937 O964 2.554 . S
La937 O965 2.757 . S
La937 O966 2.470 . S
C938 La936 2.924 1_556 S
C938 C939 1.503 . S
C938 O956 1.261 . S
C938 O957 1.243 1_556 S
C939 C938 1.503 . S
C939 C940 1.394 . S
C939 C944 1.373 1_556 S
C940 C939 1.394 . S
C940 C941 1.380 . S
C940 H968 0.930 . S
C941 C940 1.380 . S
C941 C942 1.376 . S
C941 H969 0.930 . S
C942 C941 1.376 . S
C942 C943 1.370 . S
C943 C942 1.370 . S
C943 C944 1.396 1_556 S
C943 H970 0.929 1_556 S
C944 C939 1.373 1_554 S
C944 C943 1.396 1_554 S
C944 H971 0.929 . S
C945 O958 1.240 . S
C945 O959 1.289 . S
C946 O960 1.258 . S
C946 O961 1.256 1_556 S
C947 La937 2.928 1_655 S
C947 C948 1.503 . S
C947 O962 1.261 . S
C947 O963 1.243 . S
C948 C947 1.503 . S
C948 C949 1.394 . S
C948 C953 1.373 . S
C949 C948 1.394 . S
C949 C950 1.380 . S
C949 H972 0.930 . S
C950 C949 1.380 . S
C950 C951 1.376 . S
C950 H973 0.930 . S
C951 C950 1.376 . S
C951 C952 1.370 . S
C952 C951 1.370 . S
C952 C953 1.396 . S
C952 H974 0.929 . S
C953 C948 1.373 . S
C953 C952 1.396 . S
C953 H975 0.929 . S
C954 O964 1.240 . S
C954 O965 1.289 . S
C955 O966 1.258 . S
C955 O967 1.256 . S
O956 La936 2.496 1_556 S
O956 C938 1.261 . S
O957 La936 2.645 . S
O957 C938 1.243 1_554 S
O958 La936 2.510 1_556 S
O958 C945 1.240 . S
O959 La936 2.747 1_556 S
O959 La937 2.482 1_556 S
O959 C945 1.289 . S
O960 La936 2.471 1_556 S
O960 C946 1.258 . S
O961 La937 2.503 . S
O961 C946 1.256 1_554 S
O962 La937 2.521 1_655 S
O962 C947 1.261 . S
O963 La937 2.628 1_655 S
O963 C947 1.243 . S
O964 La937 2.554 . S
O964 C954 1.240 . S
O965 La936 2.527 . S
O965 La937 2.757 . S
O965 C954 1.289 . S
O966 La937 2.470 . S
O966 C955 1.258 . S
O967 La936 2.512 . S
O967 C955 1.256 . S
H968 C940 0.930 . S
H969 C941 0.930 . S
H970 C943 0.929 1_554 S
H971 C944 0.929 . S
H972 C949 0.930 . S
H973 C950 0.930 . S
H974 C952 0.929 . S
H975 C953 0.929 . S
C976 C977 1.391 . S
C976 C978 1.394 . S
C976 H992 0.931 . S
C977 C976 1.391 . S
C977 C981 1.376 . S
C978 C976 1.394 . S
C978 C979 1.369 . S
C978 C982 1.531 . S
C979 C978 1.369 . S
C979 C980 1.410 . S
C979 C987 1.503 . S
C980 C979 1.410 . S
C980 C981 1.392 . S
C980 C983 1.511 1_556 S
C981 C977 1.376 . S
C981 C980 1.392 . S
C981 H993 0.929 . S
C982 C978 1.531 . S
C982 H994 0.960 . S
C982 H995 0.962 . S
C982 H996 0.960 . S
C983 C980 1.511 1_554 S
C983 H997 0.961 . S
C983 H998 0.961 . S
C983 H999 0.961 . S
C984 C985 1.370 . S
C984 C986 1.363 . S
C984 H1000 0.931 . S
C985 C984 1.370 . S
C985 C989 1.408 . S
C986 C984 1.363 . S
C986 C987 1.370 . S
C986 C990 1.524 1_455 S
C987 C979 1.503 . S
C987 C986 1.370 . S
C987 C988 1.403 . S
C988 C987 1.403 . S
C988 C989 1.404 . S
C988 C991 1.539 . S
C989 C985 1.408 . S
C989 C988 1.404 . S
C989 H1001 0.930 1_556 S
C990 C986 1.524 1_655 S
C990 H1002 0.956 . S
C990 H1003 0.961 . S
C990 H1004 0.961 . S
C991 C988 1.539 . S
C991 H1005 0.958 . S
C991 H1006 0.961 1_556 S
C991 H1007 0.960 . S
H992 C976 0.931 . S
H993 C981 0.929 . S
H994 C982 0.960 . S
H995 C982 0.962 . S
H996 C982 0.960 . S
H997 C983 0.961 . S
H998 C983 0.961 . S
H999 C983 0.961 . S
H1000 C984 0.931 . S
H1001 C989 0.930 1_554 S
H1002 C990 0.956 . S
H1003 C990 0.961 . S
H1004 C990 0.961 . S
H1005 C991 0.958 . S
H1006 C991 0.961 1_554 S
H1007 C991 0.960 . S
C1008 C1009 1.391 . S
C1008 C1010 1.394 . S
C1008 H1024 0.931 . S
C1009 C1008 1.391 . S
C1009 C1013 1.376 . S
C1010 C1008 1.394 . S
C1010 C1011 1.369 . S
C1010 C1014 1.531 . S
C1011 C1010 1.369 . S
C1011 C1012 1.410 . S
C1011 C1019 1.503 . S
C1012 C1011 1.410 . S
C1012 C1013 1.392 . S
C1012 C1015 1.511 . S
C1013 C1009 1.376 . S
C1013 C1012 1.392 . S
C1013 H1025 0.929 . S
C1014 C1010 1.531 . S
C1014 H1026 0.960 . S
C1014 H1027 0.962 . S
C1014 H1028 0.960 . S
C1015 C1012 1.511 . S
C1015 H1029 0.961 . S
C1015 H1030 0.961 . S
C1015 H1031 0.961 . S
C1016 C1017 1.370 . S
C1016 C1018 1.363 . S
C1016 H1032 0.931 . S
C1017 C1016 1.370 . S
C1017 C1021 1.408 . S
C1018 C1016 1.363 . S
C1018 C1019 1.370 . S
C1018 C1022 1.524 . S
C1019 C1011 1.503 . S
C1019 C1018 1.370 . S
C1019 C1020 1.403 . S
C1020 C1019 1.403 . S
C1020 C1021 1.404 . S
C1020 C1023 1.539 . S
C1021 C1017 1.408 . S
C1021 C1020 1.404 . S
C1021 H1033 0.930 . S
C1022 C1018 1.524 . S
C1022 H1034 0.956 . S
C1022 H1035 0.961 . S
C1022 H1036 0.961 . S
C1023 C1020 1.539 . S
C1023 H1037 0.958 . S
C1023 H1038 0.961 . S
C1023 H1039 0.960 . S
H1024 C1008 0.931 . S
H1025 C1013 0.929 . S
H1026 C1014 0.960 . S
H1027 C1014 0.962 . S
H1028 C1014 0.960 . S
H1029 C1015 0.961 . S
H1030 C1015 0.961 . S
H1031 C1015 0.961 . S
H1032 C1016 0.931 . S
H1033 C1021 0.930 . S
H1034 C1022 0.956 . S
H1035 C1022 0.961 . S
H1036 C1022 0.961 . S
H1037 C1023 0.958 . S
H1038 C1023 0.961 . S
H1039 C1023 0.960 . S
C1040 C1041 1.391 . S
C1040 C1042 1.394 . S
C1040 H1056 0.931 . S
C1041 C1040 1.391 . S
C1041 C1045 1.376 . S
C1042 C1040 1.394 . S
C1042 C1043 1.369 . S
C1042 C1046 1.531 . S
C1043 C1042 1.369 . S
C1043 C1044 1.410 . S
C1043 C1051 1.503 . S
C1044 C1043 1.410 . S
C1044 C1045 1.392 . S
C1044 C1047 1.511 . S
C1045 C1041 1.376 . S
C1045 C1044 1.392 . S
C1045 H1057 0.929 . S
C1046 C1042 1.531 . S
C1046 H1058 0.960 . S
C1046 H1059 0.962 . S
C1046 H1060 0.960 . S
C1047 C1044 1.511 . S
C1047 H1061 0.961 . S
C1047 H1062 0.961 . S
C1047 H1063 0.961 . S
C1048 C1049 1.370 . S
C1048 C1050 1.363 . S
C1048 H1064 0.931 . S
C1049 C1048 1.370 . S
C1049 C1053 1.408 . S
C1050 C1048 1.363 . S
C1050 C1051 1.370 . S
C1050 C1054 1.524 . S
C1051 C1043 1.503 . S
C1051 C1050 1.370 . S
C1051 C1052 1.403 . S
C1052 C1051 1.403 . S
C1052 C1053 1.404 . S
C1052 C1055 1.539 . S
C1053 C1049 1.408 . S
C1053 C1052 1.404 . S
C1053 H1065 0.930 . S
C1054 C1050 1.524 . S
C1054 H1066 0.956 . S
C1054 H1067 0.961 . S
C1054 H1068 0.961 . S
C1055 C1052 1.539 . S
C1055 H1069 0.958 . S
C1055 H1070 0.961 . S
C1055 H1071 0.960 . S
H1056 C1040 0.931 . S
H1057 C1045 0.929 . S
H1058 C1046 0.960 . S
H1059 C1046 0.962 . S
H1060 C1046 0.960 . S
H1061 C1047 0.961 . S
H1062 C1047 0.961 . S
H1063 C1047 0.961 . S
H1064 C1048 0.931 . S
H1065 C1053 0.930 . S
H1066 C1054 0.956 . S
H1067 C1054 0.961 . S
H1068 C1054 0.961 . S
H1069 C1055 0.958 . S
H1070 C1055 0.961 . S
H1071 C1055 0.960 . S
C1072 C1073 1.391 . S
C1072 C1074 1.394 . S
C1072 H1088 0.931 . S
C1073 C1072 1.391 . S
C1073 C1077 1.376 . S
C1074 C1072 1.394 . S
C1074 C1075 1.369 . S
C1074 C1078 1.531 . S
C1075 C1074 1.369 . S
C1075 C1076 1.410 . S
C1075 C1083 1.503 . S
C1076 C1075 1.410 . S
C1076 C1077 1.392 . S
C1076 C1079 1.511 . S
C1077 C1073 1.376 . S
C1077 C1076 1.392 . S
C1077 H1089 0.929 . S
C1078 C1074 1.531 . S
C1078 H1090 0.960 . S
C1078 H1091 0.962 . S
C1078 H1092 0.960 . S
C1079 C1076 1.511 . S
C1079 H1093 0.961 . S
C1079 H1094 0.961 . S
C1079 H1095 0.961 . S
C1080 C1081 1.370 . S
C1080 C1082 1.363 . S
C1080 H1096 0.931 . S
C1081 C1080 1.370 . S
C1081 C1085 1.408 . S
C1082 C1080 1.363 . S
C1082 C1083 1.370 . S
C1082 C1086 1.524 . S
C1083 C1075 1.503 . S
C1083 C1082 1.370 . S
C1083 C1084 1.403 . S
C1084 C1083 1.403 . S
C1084 C1085 1.404 . S
C1084 C1087 1.539 . S
C1085 C1081 1.408 . S
C1085 C1084 1.404 . S
C1085 H1097 0.930 . S
C1086 C1082 1.524 . S
C1086 H1098 0.956 . S
C1086 H1099 0.961 . S
C1086 H1100 0.961 . S
C1087 C1084 1.539 . S
C1087 H1101 0.958 . S
C1087 H1102 0.961 . S
C1087 H1103 0.960 . S
H1088 C1072 0.931 . S
H1089 C1077 0.929 . S
H1090 C1078 0.960 . S
H1091 C1078 0.962 . S
H1092 C1078 0.960 . S
H1093 C1079 0.961 . S
H1094 C1079 0.961 . S
H1095 C1079 0.961 . S
H1096 C1080 0.931 . S
H1097 C1085 0.930 . S
H1098 C1086 0.956 . S
H1099 C1086 0.961 . S
H1100 C1086 0.961 . S
H1101 C1087 0.958 . S
H1102 C1087 0.961 . S
H1103 C1087 0.960 . S
C1104 C1105 1.391 . S
C1104 C1106 1.394 . S
C1104 H1120 0.931 . S
C1105 C1104 1.391 . S
C1105 C1109 1.376 1_455 S
C1106 C1104 1.394 . S
C1106 C1107 1.369 . S
C1106 C1110 1.531 . S
C1107 C1106 1.369 . S
C1107 C1108 1.410 . S
C1107 C1115 1.503 . S
C1108 C1107 1.410 . S
C1108 C1109 1.392 1_455 S
C1108 C1111 1.496 1_455 S
C1109 C1105 1.376 1_655 S
C1109 C1108 1.392 1_655 S
C1109 H1121 0.929 . S
C1110 C1106 1.531 . S
C1110 H1122 0.960 . S
C1110 H1123 0.962 . S
C1110 H1124 0.960 . S
C1111 C1108 1.496 1_655 S
C1111 H1125 0.973 . S
C1111 H1126 0.943 1_655 S
C1111 H1127 0.983 . S
C1112 C1113 1.370 . S
C1112 C1114 1.363 . S
C1112 H1128 0.931 . S
C1113 C1112 1.370 . S
C1113 C1117 1.408 . S
C1114 C1112 1.363 . S
C1114 C1115 1.370 . S
C1114 C1118 1.524 . S
C1115 C1107 1.503 . S
C1115 C1114 1.370 . S
C1115 C1116 1.403 . S
C1116 C1115 1.403 . S
C1116 C1117 1.404 . S
C1116 C1119 1.539 . S
C1117 C1113 1.408 . S
C1117 C1116 1.404 . S
C1117 H1129 0.930 . S
C1118 C1114 1.524 . S
C1118 H1130 0.956 . S
C1118 H1131 0.961 . S
C1118 H1132 0.961 . S
C1119 C1116 1.539 . S
C1119 H1133 0.958 . S
C1119 H1134 0.961 1_455 S
C1119 H1135 0.960 1_455 S
H1120 C1104 0.931 . S
H1121 C1109 0.929 . S
H1122 C1110 0.960 . S
H1123 C1110 0.962 . S
H1124 C1110 0.960 . S
H1125 C1111 0.973 . S
H1126 C1111 0.943 1_455 S
H1127 C1111 0.983 . S
H1128 C1112 0.931 . S
H1129 C1117 0.930 . S
H1130 C1118 0.956 . S
H1131 C1118 0.961 . S
H1132 C1118 0.961 . S
H1133 C1119 0.958 . S
H1134 C1119 0.961 1_655 S
H1135 C1119 0.960 1_655 S
C1136 C1137 1.391 . S
C1136 C1138 1.394 . S
C1136 H1152 0.931 . S
C1137 C1136 1.391 . S
C1137 C1141 1.376 . S
C1138 C1136 1.394 . S
C1138 C1139 1.369 . S
C1138 C1142 1.531 . S
C1139 C1138 1.369 . S
C1139 C1140 1.410 . S
C1139 C1147 1.503 . S
C1140 C1139 1.410 . S
C1140 C1141 1.392 . S
C1140 C1143 1.511 . S
C1141 C1137 1.376 . S
C1141 C1140 1.392 . S
C1141 H1153 0.929 . S
C1142 C1138 1.531 . S
C1142 H1154 0.960 . S
C1142 H1155 0.962 . S
C1142 H1156 0.960 . S
C1143 C1140 1.511 . S
C1143 H1157 0.961 . S
C1143 H1158 0.961 . S
C1143 H1159 0.961 . S
C1144 C1145 1.370 . S
C1144 C1146 1.363 . S
C1144 H1160 0.931 . S
C1145 C1144 1.370 . S
C1145 C1149 1.408 . S
C1146 C1144 1.363 . S
C1146 C1147 1.370 . S
C1146 C1150 1.524 . S
C1147 C1139 1.503 . S
C1147 C1146 1.370 . S
C1147 C1148 1.403 . S
C1148 C1147 1.403 . S
C1148 C1149 1.404 . S
C1148 C1151 1.539 . S
C1149 C1145 1.408 . S
C1149 C1148 1.404 . S
C1149 H1161 0.930 . S
C1150 C1146 1.524 . S
C1150 H1162 0.956 . S
C1150 H1163 0.961 . S
C1150 H1164 0.961 . S
C1151 C1148 1.539 . S
C1151 H1165 0.958 . S
C1151 H1166 0.961 . S
C1151 H1167 0.960 . S
H1152 C1136 0.931 . S
H1153 C1141 0.929 . S
H1154 C1142 0.960 . S
H1155 C1142 0.962 . S
H1156 C1142 0.960 . S
H1157 C1143 0.961 . S
H1158 C1143 0.961 . S
H1159 C1143 0.961 . S
H1160 C1144 0.931 . S
H1161 C1149 0.930 . S
H1162 C1150 0.956 . S
H1163 C1150 0.961 . S
H1164 C1150 0.961 . S
H1165 C1151 0.958 . S
H1166 C1151 0.961 . S
H1167 C1151 0.960 . S
C1168 C1169 1.391 . S
C1168 C1170 1.394 . S
C1168 H1184 0.931 . S
C1169 C1168 1.391 . S
C1169 C1173 1.376 . S
C1170 C1168 1.394 . S
C1170 C1171 1.369 . S
C1170 C1174 1.531 . S
C1171 C1170 1.369 . S
C1171 C1172 1.410 . S
C1171 C1179 1.503 . S
C1172 C1171 1.410 . S
C1172 C1173 1.392 . S
C1172 C1175 1.511 . S
C1173 C1169 1.376 . S
C1173 C1172 1.392 . S
C1173 H1185 0.929 . S
C1174 C1170 1.531 . S
C1174 H1186 0.960 . S
C1174 H1187 0.962 . S
C1174 H1188 0.960 . S
C1175 C1172 1.511 . S
C1175 H1189 0.961 . S
C1175 H1190 0.961 . S
C1175 H1191 0.961 . S
C1176 C1177 1.370 . S
C1176 C1178 1.363 . S
C1176 H1192 0.931 . S
C1177 C1176 1.370 . S
C1177 C1181 1.408 . S
C1178 C1176 1.363 . S
C1178 C1179 1.370 . S
C1178 C1182 1.524 . S
C1179 C1171 1.503 . S
C1179 C1178 1.370 . S
C1179 C1180 1.403 . S
C1180 C1179 1.403 . S
C1180 C1181 1.404 . S
C1180 C1183 1.539 . S
C1181 C1177 1.408 . S
C1181 C1180 1.404 . S
C1181 H1193 0.930 . S
C1182 C1178 1.524 . S
C1182 H1194 0.956 . S
C1182 H1195 0.961 . S
C1182 H1196 0.961 . S
C1183 C1180 1.539 . S
C1183 H1197 0.958 . S
C1183 H1198 0.961 . S
C1183 H1199 0.960 . S
H1184 C1168 0.931 . S
H1185 C1173 0.929 . S
H1186 C1174 0.960 . S
H1187 C1174 0.962 . S
H1188 C1174 0.960 . S
H1189 C1175 0.961 . S
H1190 C1175 0.961 . S
H1191 C1175 0.961 . S
H1192 C1176 0.931 . S
H1193 C1181 0.930 . S
H1194 C1182 0.956 . S
H1195 C1182 0.961 . S
H1196 C1182 0.961 . S
H1197 C1183 0.958 . S
H1198 C1183 0.961 . S
H1199 C1183 0.960 . S
C1200 C1201 1.391 . S
C1200 C1202 1.394 . S
C1200 H1216 0.931 . S
C1201 C1200 1.391 . S
C1201 C1205 1.376 . S
C1202 C1200 1.394 . S
C1202 C1203 1.369 . S
C1202 C1206 1.531 . S
C1203 C1202 1.369 . S
C1203 C1204 1.410 . S
C1203 C1211 1.503 . S
C1204 C1203 1.410 . S
C1204 C1205 1.392 . S
C1204 C1207 1.511 . S
C1205 C1201 1.376 . S
C1205 C1204 1.392 . S
C1205 H1217 0.929 . S
C1206 C1202 1.531 . S
C1206 H1218 0.960 . S
C1206 H1219 0.962 . S
C1206 H1220 0.960 . S
C1207 C1204 1.511 . S
C1207 H1221 0.961 . S
C1207 H1222 0.961 . S
C1207 H1223 0.961 . S
C1208 C1209 1.370 . S
C1208 C1210 1.363 . S
C1208 H1224 0.931 . S
C1209 C1208 1.370 . S
C1209 C1213 1.408 . S
C1210 C1208 1.363 . S
C1210 C1211 1.370 . S
C1210 C1214 1.524 . S
C1211 C1203 1.503 . S
C1211 C1210 1.370 . S
C1211 C1212 1.403 . S
C1212 C1211 1.403 . S
C1212 C1213 1.404 . S
C1212 C1215 1.539 . S
C1213 C1209 1.408 . S
C1213 C1212 1.404 . S
C1213 H1225 0.930 . S
C1214 C1210 1.524 . S
C1214 H1226 0.956 . S
C1214 H1227 0.961 . S
C1214 H1228 0.961 . S
C1215 C1212 1.539 . S
C1215 H1229 0.958 . S
C1215 H1230 0.961 . S
C1215 H1231 0.960 . S
H1216 C1200 0.931 . S
H1217 C1205 0.929 . S
H1218 C1206 0.960 . S
H1219 C1206 0.962 . S
H1220 C1206 0.960 . S
H1221 C1207 0.961 . S
H1222 C1207 0.961 . S
H1223 C1207 0.961 . S
H1224 C1208 0.931 . S
H1225 C1213 0.930 . S
H1226 C1214 0.956 . S
H1227 C1214 0.961 . S
H1228 C1214 0.961 . S
H1229 C1215 0.958 . S
H1230 C1215 0.961 . S
H1231 C1215 0.960 . S
C1232 C1233 1.391 . S
C1232 C1234 1.394 1_655 S
C1232 H1248 0.931 1_655 S
C1233 C1232 1.391 . S
C1233 C1237 1.376 . S
C1234 C1232 1.394 1_455 S
C1234 C1235 1.369 1_455 S
C1234 C1238 1.531 . S
C1235 C1234 1.369 1_655 S
C1235 C1236 1.410 . S
C1235 C1243 1.503 1_655 S
C1236 C1235 1.410 . S
C1236 C1237 1.392 . S
C1236 C1239 1.511 . S
C1237 C1233 1.376 . S
C1237 C1236 1.392 . S
C1237 H1249 0.929 . S
C1238 C1234 1.531 . S
C1238 H1250 0.960 . S
C1238 H1251 0.962 . S
C1238 H1252 0.960 . S
C1239 C1236 1.511 . S
C1239 H1253 0.961 . S
C1239 H1254 0.961 . S
C1239 H1255 0.961 . S
C1240 C1241 1.370 . S
C1240 C1242 1.363 . S
C1240 H1256 0.931 . S
C1241 C1240 1.370 . S
C1241 C1245 1.408 . S
C1242 C1240 1.363 . S
C1242 C1243 1.370 . S
C1242 C1246 1.524 . S
C1243 C1235 1.503 1_455 S
C1243 C1242 1.370 . S
C1243 C1244 1.403 . S
C1244 C1243 1.403 . S
C1244 C1245 1.404 . S
C1244 C1247 1.570 1_455 S
C1245 C1241 1.408 . S
C1245 C1244 1.404 . S
C1245 H1257 0.930 . S
C1246 C1242 1.524 . S
C1246 H1258 0.956 . S
C1246 H1259 0.961 1_455 S
C1246 H1260 0.961 . S
C1247 C1244 1.570 1_655 S
C1247 H1261 0.939 1_645 S
C1247 H1262 0.946 1_545 S
C1247 H1263 0.965 . S
H1248 C1232 0.931 1_455 S
H1249 C1237 0.929 . S
H1250 C1238 0.960 . S
H1251 C1238 0.962 . S
H1252 C1238 0.960 . S
H1253 C1239 0.961 . S
H1254 C1239 0.961 . S
H1255 C1239 0.961 . S
H1256 C1240 0.931 . S
H1257 C1245 0.930 . S
H1258 C1246 0.956 . S
H1259 C1246 0.961 1_655 S
H1260 C1246 0.961 . S
H1261 C1247 0.939 1_465 S
H1262 C1247 0.946 1_565 S
H1263 C1247 0.965 . S
C1264 C1265 1.391 . S
C1264 C1266 1.394 . S
C1264 H1280 0.931 . S
C1265 C1264 1.391 . S
C1265 C1269 1.376 . S
C1266 C1264 1.394 . S
C1266 C1267 1.369 . S
C1266 C1270 1.531 . S
C1267 C1266 1.369 . S
C1267 C1268 1.410 . S
C1267 C1275 1.503 . S
C1268 C1267 1.410 . S
C1268 C1269 1.392 . S
C1268 C1271 1.511 . S
C1269 C1265 1.376 . S
C1269 C1268 1.392 . S
C1269 H1281 0.929 . S
C1270 C1266 1.531 . S
C1270 H1282 0.960 . S
C1270 H1283 0.962 . S
C1270 H1284 0.960 . S
C1271 C1268 1.511 . S
C1271 H1285 0.961 . S
C1271 H1286 0.961 . S
C1271 H1287 0.961 . S
C1272 C1273 1.370 . S
C1272 C1274 1.363 . S
C1272 H1288 0.931 . S
C1273 C1272 1.370 . S
C1273 C1277 1.408 . S
C1274 C1272 1.363 . S
C1274 C1275 1.370 . S
C1274 C1278 1.524 . S
C1275 C1267 1.503 . S
C1275 C1274 1.370 . S
C1275 C1276 1.403 . S
C1276 C1275 1.403 . S
C1276 C1277 1.404 . S
C1276 C1279 1.539 . S
C1277 C1273 1.408 . S
C1277 C1276 1.404 . S
C1277 H1289 0.930 . S
C1278 C1274 1.524 . S
C1278 H1290 0.956 . S
C1278 H1291 0.961 . S
C1278 H1292 0.961 . S
C1279 C1276 1.539 . S
C1279 H1293 0.958 . S
C1279 H1294 0.961 . S
C1279 H1295 0.960 . S
H1280 C1264 0.931 . S
H1281 C1269 0.929 . S
H1282 C1270 0.960 . S
H1283 C1270 0.962 . S
H1284 C1270 0.960 . S
H1285 C1271 0.961 . S
H1286 C1271 0.961 . S
H1287 C1271 0.961 . S
H1288 C1272 0.931 . S
H1289 C1277 0.930 . S
H1290 C1278 0.956 . S
H1291 C1278 0.961 . S
H1292 C1278 0.961 . S
H1293 C1279 0.958 . S
H1294 C1279 0.961 . S
H1295 C1279 0.960 . S
C1296 C1297 1.391 . S
C1296 C1298 1.394 . S
C1296 H1312 0.931 . S
C1297 C1296 1.391 . S
C1297 C1301 1.376 . S
C1298 C1296 1.394 . S
C1298 C1299 1.369 . S
C1298 C1302 1.531 . S
C1299 C1298 1.369 . S
C1299 C1300 1.410 . S
C1299 C1307 1.503 . S
C1300 C1299 1.410 . S
C1300 C1301 1.392 . S
C1300 C1303 1.511 . S
C1301 C1297 1.376 . S
C1301 C1300 1.392 . S
C1301 H1313 0.929 . S
C1302 C1298 1.531 . S
C1302 H1314 0.960 . S
C1302 H1315 0.962 . S
C1302 H1316 0.960 . S
C1303 C1300 1.511 . S
C1303 H1317 0.961 . S
C1303 H1318 0.961 . S
C1303 H1319 0.961 . S
C1304 C1305 1.370 . S
C1304 C1306 1.363 . S
C1304 H1320 0.931 . S
C1305 C1304 1.370 . S
C1305 C1309 1.408 . S
C1306 C1304 1.363 . S
C1306 C1307 1.370 . S
C1306 C1310 1.524 . S
C1307 C1299 1.503 . S
C1307 C1306 1.370 . S
C1307 C1308 1.403 . S
C1308 C1307 1.403 . S
C1308 C1309 1.404 . S
C1308 C1311 1.539 . S
C1309 C1305 1.408 . S
C1309 C1308 1.404 . S
C1309 H1321 0.930 . S
C1310 C1306 1.524 . S
C1310 H1322 0.956 . S
C1310 H1323 0.961 . S
C1310 H1324 0.961 . S
C1311 C1308 1.539 . S
C1311 H1325 0.958 1_545 S
C1311 H1326 0.961 . S
C1311 H1327 0.960 . S
H1312 C1296 0.931 . S
H1313 C1301 0.929 . S
H1314 C1302 0.960 . S
H1315 C1302 0.962 . S
H1316 C1302 0.960 . S
H1317 C1303 0.961 . S
H1318 C1303 0.961 . S
H1319 C1303 0.961 . S
H1320 C1304 0.931 . S
H1321 C1309 0.930 . S
H1322 C1310 0.956 . S
H1323 C1310 0.961 . S
H1324 C1310 0.961 . S
H1325 C1311 0.958 1_565 S
H1326 C1311 0.961 . S
H1327 C1311 0.960 . S
C1328 C1329 1.391 . S
C1328 C1330 1.394 . S
C1328 H1344 0.931 . S
C1329 C1328 1.391 . S
C1329 C1333 1.376 . S
C1330 C1328 1.394 . S
C1330 C1331 1.369 . S
C1330 C1334 1.531 . S
C1331 C1330 1.369 . S
C1331 C1332 1.410 . S
C1331 C1339 1.503 . S
C1332 C1331 1.410 . S
C1332 C1333 1.392 . S
C1332 C1335 1.511 . S
C1333 C1329 1.376 . S
C1333 C1332 1.392 . S
C1333 H1345 0.929 . S
C1334 C1330 1.531 . S
C1334 H1346 0.960 . S
C1334 H1347 0.962 . S
C1334 H1348 0.960 . S
C1335 C1332 1.511 . S
C1335 H1349 0.961 . S
C1335 H1350 0.961 . S
C1335 H1351 0.961 . S
C1336 C1337 1.370 . S
C1336 C1338 1.363 . S
C1336 H1352 0.931 . S
C1337 C1336 1.370 . S
C1337 C1341 1.408 . S
C1338 C1336 1.363 . S
C1338 C1339 1.370 . S
C1338 C1342 1.524 . S
C1339 C1331 1.503 . S
C1339 C1338 1.370 . S
C1339 C1340 1.403 . S
C1340 C1339 1.403 . S
C1340 C1341 1.404 . S
C1340 C1343 1.539 . S
C1341 C1337 1.408 . S
C1341 C1340 1.404 . S
C1341 H1353 0.930 . S
C1342 C1338 1.524 . S
C1342 H1354 0.956 . S
C1342 H1355 0.961 . S
C1342 H1356 0.961 . S
C1343 C1340 1.539 . S
C1343 H1357 0.958 . S
C1343 H1358 0.961 . S
C1343 H1359 0.960 . S
H1344 C1328 0.931 . S
H1345 C1333 0.929 . S
H1346 C1334 0.960 . S
H1347 C1334 0.962 . S
H1348 C1334 0.960 . S
H1349 C1335 0.961 . S
H1350 C1335 0.961 . S
H1351 C1335 0.961 . S
H1352 C1336 0.931 . S
H1353 C1341 0.930 . S
H1354 C1342 0.956 . S
H1355 C1342 0.961 . S
H1356 C1342 0.961 . S
H1357 C1343 0.958 . S
H1358 C1343 0.961 . S
H1359 C1343 0.960 . S
C1360 C1361 1.391 . S
C1360 C1362 1.379 1_655 S
C1360 H1376 0.932 . S
C1361 C1360 1.391 . S
C1361 C1365 1.376 . S
C1362 C1360 1.379 1_455 S
C1362 C1363 1.356 1_455 S
C1362 C1366 1.560 . S
C1363 C1362 1.356 1_655 S
C1363 C1364 1.410 . S
C1363 C1371 1.488 1_655 S
C1364 C1363 1.410 . S
C1364 C1365 1.392 . S
C1364 C1367 1.511 . S
C1365 C1361 1.376 . S
C1365 C1364 1.392 . S
C1365 H1377 0.929 . S
C1366 C1362 1.560 . S
C1366 H1378 0.960 . S
C1366 H1379 0.962 . S
C1366 H1380 0.960 . S
C1367 C1364 1.511 . S
C1367 H1381 0.961 . S
C1367 H1382 0.961 . S
C1367 H1383 0.961 . S
C1368 C1369 1.370 . S
C1368 C1370 1.363 . S
C1368 H1384 0.931 . S
C1369 C1368 1.370 . S
C1369 C1373 1.408 . S
C1370 C1368 1.363 . S
C1370 C1371 1.401 . S
C1370 C1374 1.524 . S
C1371 C1363 1.488 1_455 S
C1371 C1370 1.401 . S
C1371 C1372 1.388 1_455 S
C1372 C1371 1.388 1_655 S
C1372 C1373 1.404 1_655 S
C1372 C1375 1.539 . S
C1373 C1369 1.408 . S
C1373 C1372 1.404 1_455 S
C1373 H1385 0.930 . S
C1374 C1370 1.524 . S
C1374 H1386 0.956 . S
C1374 H1387 0.961 . S
C1374 H1388 0.961 . S
C1375 C1372 1.539 . S
C1375 H1389 0.958 . S
C1375 H1390 0.961 . S
C1375 H1391 0.960 . S
H1376 C1360 0.932 . S
H1377 C1365 0.929 . S
H1378 C1366 0.960 . S
H1379 C1366 0.962 . S
H1380 C1366 0.960 . S
H1381 C1367 0.961 . S
H1382 C1367 0.961 . S
H1383 C1367 0.961 . S
H1384 C1368 0.931 . S
H1385 C1373 0.930 . S
H1386 C1374 0.956 . S
H1387 C1374 0.961 . S
H1388 C1374 0.961 . S
H1389 C1375 0.958 . S
H1390 C1375 0.961 . S
H1391 C1375 0.960 . S
C1392 C1393 1.391 . S
C1392 C1394 1.394 . S
C1392 H1408 0.931 . S
C1393 C1392 1.391 . S
C1393 C1397 1.376 . S
C1394 C1392 1.394 . S
C1394 C1395 1.369 . S
C1394 C1398 1.531 . S
C1395 C1394 1.369 . S
C1395 C1396 1.410 . S
C1395 C1403 1.503 . S
C1396 C1395 1.410 . S
C1396 C1397 1.392 . S
C1396 C1399 1.511 . S
C1397 C1393 1.376 . S
C1397 C1396 1.392 . S
C1397 H1409 0.929 . S
C1398 C1394 1.531 . S
C1398 H1410 0.960 . S
C1398 H1411 0.962 . S
C1398 H1412 0.960 . S
C1399 C1396 1.511 . S
C1399 H1413 0.961 . S
C1399 H1414 0.961 . S
C1399 H1415 0.961 . S
C1400 C1401 1.370 . S
C1400 C1402 1.363 . S
C1400 H1416 0.931 . S
C1401 C1400 1.370 . S
C1401 C1405 1.408 . S
C1402 C1400 1.363 . S
C1402 C1403 1.370 . S
C1402 C1406 1.524 . S
C1403 C1395 1.503 . S
C1403 C1402 1.370 . S
C1403 C1404 1.403 . S
C1404 C1403 1.403 . S
C1404 C1405 1.404 . S
C1404 C1407 1.539 . S
C1405 C1401 1.408 . S
C1405 C1404 1.404 . S
C1405 H1417 0.930 . S
C1406 C1402 1.524 . S
C1406 H1418 0.956 . S
C1406 H1419 0.961 . S
C1406 H1420 0.961 . S
C1407 C1404 1.539 . S
C1407 H1421 0.958 . S
C1407 H1422 0.961 . S
C1407 H1423 0.960 . S
H1408 C1392 0.931 . S
H1409 C1397 0.929 . S
H1410 C1398 0.960 . S
H1411 C1398 0.962 . S
H1412 C1398 0.960 . S
H1413 C1399 0.961 . S
H1414 C1399 0.961 . S
H1415 C1399 0.961 . S
H1416 C1400 0.931 . S
H1417 C1405 0.930 . S
H1418 C1406 0.956 . S
H1419 C1406 0.961 . S
H1420 C1406 0.961 . S
H1421 C1407 0.958 . S
H1422 C1407 0.961 . S
H1423 C1407 0.960 . S
C1424 C1425 1.391 . S
C1424 C1426 1.394 . S
C1424 H1440 0.931 . S
C1425 C1424 1.391 . S
C1425 C1429 1.376 . S
C1426 C1424 1.394 . S
C1426 C1427 1.369 . S
C1426 C1430 1.531 . S
C1427 C1426 1.369 . S
C1427 C1428 1.410 . S
C1427 C1435 1.503 . S
C1428 C1427 1.410 . S
C1428 C1429 1.392 . S
C1428 C1431 1.511 . S
C1429 C1425 1.376 . S
C1429 C1428 1.392 . S
C1429 H1441 0.929 . S
C1430 C1426 1.531 . S
C1430 H1442 0.960 . S
C1430 H1443 0.962 . S
C1430 H1444 0.960 . S
C1431 C1428 1.511 . S
C1431 H1445 0.961 . S
C1431 H1446 0.961 . S
C1431 H1447 0.961 . S
C1432 C1433 1.370 . S
C1432 C1434 1.363 . S
C1432 H1448 0.931 . S
C1433 C1432 1.370 . S
C1433 C1437 1.408 . S
C1434 C1432 1.363 . S
C1434 C1435 1.370 . S
C1434 C1438 1.524 . S
C1435 C1427 1.503 . S
C1435 C1434 1.370 . S
C1435 C1436 1.403 . S
C1436 C1435 1.403 . S
C1436 C1437 1.404 . S
C1436 C1439 1.539 . S
C1437 C1433 1.408 . S
C1437 C1436 1.404 . S
C1437 H1449 0.930 . S
C1438 C1434 1.524 . S
C1438 H1450 0.956 . S
C1438 H1451 0.961 . S
C1438 H1452 0.961 . S
C1439 C1436 1.539 . S
C1439 H1453 0.958 . S
C1439 H1454 0.961 . S
C1439 H1455 0.960 . S
H1440 C1424 0.931 . S
H1441 C1429 0.929 . S
H1442 C1430 0.960 . S
H1443 C1430 0.962 . S
H1444 C1430 0.960 . S
H1445 C1431 0.961 . S
H1446 C1431 0.961 . S
H1447 C1431 0.961 . S
H1448 C1432 0.931 . S
H1449 C1437 0.930 . S
H1450 C1438 0.956 . S
H1451 C1438 0.961 . S
H1452 C1438 0.961 . S
H1453 C1439 0.958 . S
H1454 C1439 0.961 . S
H1455 C1439 0.960 . S
C1456 C1457 1.391 . S
C1456 C1458 1.394 . S
C1456 H1472 0.931 . S
C1457 C1456 1.391 . S
C1457 C1461 1.376 . S
C1458 C1456 1.394 . S
C1458 C1459 1.369 . S
C1458 C1462 1.531 . S
C1459 C1458 1.369 . S
C1459 C1460 1.410 . S
C1459 C1467 1.503 . S
C1460 C1459 1.410 . S
C1460 C1461 1.392 . S
C1460 C1463 1.511 . S
C1461 C1457 1.376 . S
C1461 C1460 1.392 . S
C1461 H1473 0.929 . S
C1462 C1458 1.531 . S
C1462 H1474 0.960 . S
C1462 H1475 0.962 . S
C1462 H1476 0.960 . S
C1463 C1460 1.511 . S
C1463 H1477 0.961 . S
C1463 H1478 0.961 . S
C1463 H1479 0.961 . S
C1464 C1465 1.370 . S
C1464 C1466 1.363 . S
C1464 H1480 0.931 . S
C1465 C1464 1.370 . S
C1465 C1469 1.408 . S
C1466 C1464 1.363 . S
C1466 C1467 1.370 . S
C1466 C1470 1.524 . S
C1467 C1459 1.503 . S
C1467 C1466 1.370 . S
C1467 C1468 1.403 . S
C1468 C1467 1.403 . S
C1468 C1469 1.404 . S
C1468 C1471 1.539 . S
C1469 C1465 1.408 . S
C1469 C1468 1.404 . S
C1469 H1481 0.930 . S
C1470 C1466 1.524 . S
C1470 H1482 0.956 . S
C1470 H1483 0.961 . S
C1470 H1484 0.961 . S
C1471 C1468 1.539 . S
C1471 H1485 0.958 . S
C1471 H1486 0.961 . S
C1471 H1487 0.960 . S
H1472 C1456 0.931 . S
H1473 C1461 0.929 . S
H1474 C1462 0.960 . S
H1475 C1462 0.962 . S
H1476 C1462 0.960 . S
H1477 C1463 0.961 . S
H1478 C1463 0.961 . S
H1479 C1463 0.961 . S
H1480 C1464 0.931 . S
H1481 C1469 0.930 . S
H1482 C1470 0.956 . S
H1483 C1470 0.961 . S
H1484 C1470 0.961 . S
H1485 C1471 0.958 . S
H1486 C1471 0.961 . S
H1487 C1471 0.960 . S
C1488 C1489 1.391 . S
C1488 C1490 1.394 . S
C1488 H1504 0.931 1_554 S
C1489 C1488 1.391 . S
C1489 C1493 1.376 . S
C1490 C1488 1.394 . S
C1490 C1491 1.369 . S
C1490 C1494 1.531 . S
C1491 C1490 1.369 . S
C1491 C1492 1.410 . S
C1491 C1499 1.503 . S
C1492 C1491 1.410 . S
C1492 C1493 1.392 . S
C1492 C1495 1.511 1_565 S
C1493 C1489 1.376 . S
C1493 C1492 1.392 . S
C1493 H1505 0.929 . S
C1494 C1490 1.531 . S
C1494 H1506 0.960 . S
C1494 H1507 0.962 1_554 S
C1494 H1508 0.960 . S
C1495 C1492 1.511 1_545 S
C1495 H1509 0.961 . S
C1495 H1510 0.961 . S
C1495 H1511 0.961 . S
C1496 C1497 1.364 1_545 S
C1496 C1498 1.363 1_545 S
C1496 H1512 0.931 . S
C1497 C1496 1.364 1_565 S
C1497 C1501 1.427 . S
C1498 C1496 1.363 1_565 S
C1498 C1499 1.370 . S
C1498 C1502 1.524 1_565 S
C1499 C1491 1.503 . S
C1499 C1498 1.370 . S
C1499 C1500 1.403 . S
C1500 C1499 1.403 . S
C1500 C1501 1.404 . S
C1500 C1503 1.539 . S
C1501 C1497 1.427 . S
C1501 C1500 1.404 . S
C1501 H1513 0.930 . S
C1502 C1498 1.524 1_545 S
C1502 H1514 0.956 1_544 S
C1502 H1515 0.961 . S
C1502 H1516 0.961 1_554 S
C1503 C1500 1.539 . S
C1503 H1517 0.958 . S
C1503 H1518 0.961 . S
C1503 H1519 0.960 . S
H1504 C1488 0.931 1_556 S
H1505 C1493 0.929 . S
H1506 C1494 0.960 . S
H1507 C1494 0.962 1_556 S
H1508 C1494 0.960 . S
H1509 C1495 0.961 . S
H1510 C1495 0.961 . S
H1511 C1495 0.961 . S
H1512 C1496 0.931 . S
H1513 C1501 0.930 . S
H1514 C1502 0.956 1_566 S
H1515 C1502 0.961 . S
H1516 C1502 0.961 1_556 S
H1517 C1503 0.958 . S
H1518 C1503 0.961 . S
H1519 C1503 0.960 . S
C1520 C1521 1.391 1_556 S
C1520 C1522 1.394 . S
C1520 H1536 0.931 . S
C1521 C1520 1.391 1_554 S
C1521 C1525 1.376 . S
C1522 C1520 1.394 . S
C1522 C1523 1.369 . S
C1522 C1526 1.531 . S
C1523 C1522 1.369 . S
C1523 C1524 1.410 1_556 S
C1523 C1531 1.492 1_556 S
C1524 C1523 1.410 1_554 S
C1524 C1525 1.392 . S
C1524 C1527 1.511 . S
C1525 C1521 1.376 . S
C1525 C1524 1.392 . S
C1525 H1537 0.929 . S
C1526 C1522 1.531 . S
C1526 H1538 0.960 . S
C1526 H1539 0.962 1_556 S
C1526 H1540 0.960 . S
C1527 C1524 1.511 . S
C1527 H1541 0.961 . S
C1527 H1542 0.961 . S
C1527 H1543 0.961 1_554 S
C1528 C1529 1.370 . S
C1528 C1530 1.363 . S
C1528 H1544 0.931 . S
C1529 C1528 1.370 . S
C1529 C1533 1.408 1_554 S
C1530 C1528 1.363 . S
C1530 C1531 1.409 . S
C1530 C1534 1.524 . S
C1531 C1523 1.492 1_554 S
C1531 C1530 1.409 . S
C1531 C1532 1.376 1_554 S
C1532 C1531 1.376 1_556 S
C1532 C1533 1.404 . S
C1532 C1535 1.539 . S
C1533 C1529 1.408 1_556 S
C1533 C1532 1.404 . S
C1533 H1545 0.930 . S
C1534 C1530 1.524 . S
C1534 H1546 0.956 . S
C1534 H1547 0.961 . S
C1534 H1548 0.961 . S
C1535 C1532 1.539 . S
C1535 H1549 0.958 . S
C1535 H1550 0.961 . S
C1535 H1551 0.960 . S
H1536 C1520 0.931 . S
H1537 C1525 0.929 . S
H1538 C1526 0.960 . S
H1539 C1526 0.962 1_554 S
H1540 C1526 0.960 . S
H1541 C1527 0.961 . S
H1542 C1527 0.961 . S
H1543 C1527 0.961 1_556 S
H1544 C1528 0.931 . S
H1545 C1533 0.930 . S
H1546 C1534 0.956 . S
H1547 C1534 0.961 . S
H1548 C1534 0.961 . S
H1549 C1535 0.958 . S
H1550 C1535 0.961 . S
H1551 C1535 0.960 . S
C1552 C1553 1.391 . S
C1552 C1554 1.394 . S
C1552 H1568 0.931 . S
C1553 C1552 1.391 . S
C1553 C1557 1.376 . S
C1554 C1552 1.394 . S
C1554 C1555 1.369 . S
C1554 C1558 1.531 . S
C1555 C1554 1.369 . S
C1555 C1556 1.410 . S
C1555 C1563 1.503 . S
C1556 C1555 1.410 . S
C1556 C1557 1.392 . S
C1556 C1559 1.511 . S
C1557 C1553 1.376 . S
C1557 C1556 1.392 . S
C1557 H1569 0.929 . S
C1558 C1554 1.531 . S
C1558 H1570 0.960 . S
C1558 H1571 0.962 . S
C1558 H1572 0.960 . S
C1559 C1556 1.511 . S
C1559 H1573 0.961 . S
C1559 H1574 0.961 . S
C1559 H1575 0.961 . S
C1560 C1561 1.370 . S
C1560 C1562 1.363 . S
C1560 H1576 0.931 . S
C1561 C1560 1.370 . S
C1561 C1565 1.408 . S
C1562 C1560 1.363 . S
C1562 C1563 1.370 . S
C1562 C1566 1.524 . S
C1563 C1555 1.503 . S
C1563 C1562 1.370 . S
C1563 C1564 1.403 . S
C1564 C1563 1.403 . S
C1564 C1565 1.404 . S
C1564 C1567 1.539 . S
C1565 C1561 1.408 . S
C1565 C1564 1.404 . S
C1565 H1577 0.930 . S
C1566 C1562 1.524 . S
C1566 H1578 0.956 . S
C1566 H1579 0.961 . S
C1566 H1580 0.961 . S
C1567 C1564 1.539 . S
C1567 H1581 0.958 . S
C1567 H1582 0.961 . S
C1567 H1583 0.960 . S
H1568 C1552 0.931 . S
H1569 C1557 0.929 . S
H1570 C1558 0.960 . S
H1571 C1558 0.962 . S
H1572 C1558 0.960 . S
H1573 C1559 0.961 . S
H1574 C1559 0.961 . S
H1575 C1559 0.961 . S
H1576 C1560 0.931 . S
H1577 C1565 0.930 . S
H1578 C1566 0.956 . S
H1579 C1566 0.961 . S
H1580 C1566 0.961 . S
H1581 C1567 0.958 . S
H1582 C1567 0.961 . S
H1583 C1567 0.960 . S
C1584 C1585 1.391 . S
C1584 C1586 1.394 . S
C1584 H1600 0.931 . S
C1585 C1584 1.391 . S
C1585 C1589 1.376 . S
C1586 C1584 1.394 . S
C1586 C1587 1.369 . S
C1586 C1590 1.531 . S
C1587 C1586 1.369 . S
C1587 C1588 1.410 . S
C1587 C1595 1.503 . S
C1588 C1587 1.410 . S
C1588 C1589 1.392 . S
C1588 C1591 1.511 . S
C1589 C1585 1.376 . S
C1589 C1588 1.392 . S
C1589 H1601 0.929 . S
C1590 C1586 1.531 . S
C1590 H1602 0.960 . S
C1590 H1603 0.962 . S
C1590 H1604 0.960 . S
C1591 C1588 1.511 . S
C1591 H1605 0.961 . S
C1591 H1606 0.961 . S
C1591 H1607 0.961 . S
C1592 C1593 1.370 . S
C1592 C1594 1.363 . S
C1592 H1608 0.931 . S
C1593 C1592 1.370 . S
C1593 C1597 1.408 . S
C1594 C1592 1.363 . S
C1594 C1595 1.370 . S
C1594 C1598 1.524 . S
C1595 C1587 1.503 . S
C1595 C1594 1.370 . S
C1595 C1596 1.403 . S
C1596 C1595 1.403 . S
C1596 C1597 1.404 . S
C1596 C1599 1.539 . S
C1597 C1593 1.408 . S
C1597 C1596 1.404 . S
C1597 H1609 0.930 . S
C1598 C1594 1.524 . S
C1598 H1610 0.956 . S
C1598 H1611 0.961 . S
C1598 H1612 0.961 . S
C1599 C1596 1.539 . S
C1599 H1613 0.958 . S
C1599 H1614 0.961 . S
C1599 H1615 0.960 . S
H1600 C1584 0.931 . S
H1601 C1589 0.929 . S
H1602 C1590 0.960 . S
H1603 C1590 0.962 . S
H1604 C1590 0.960 . S
H1605 C1591 0.961 . S
H1606 C1591 0.961 . S
H1607 C1591 0.961 . S
H1608 C1592 0.931 . S
H1609 C1597 0.930 . S
H1610 C1598 0.956 . S
H1611 C1598 0.961 . S
H1612 C1598 0.961 . S
H1613 C1599 0.958 . S
H1614 C1599 0.961 . S
H1615 C1599 0.960 . S
C1616 C1617 1.391 . S
C1616 C1618 1.394 . S
C1616 H1632 0.931 . S
C1617 C1616 1.391 . S
C1617 C1621 1.376 . S
C1618 C1616 1.394 . S
C1618 C1619 1.369 . S
C1618 C1622 1.531 . S
C1619 C1618 1.369 . S
C1619 C1620 1.410 . S
C1619 C1627 1.503 . S
C1620 C1619 1.410 . S
C1620 C1621 1.392 . S
C1620 C1623 1.511 . S
C1621 C1617 1.376 . S
C1621 C1620 1.392 . S
C1621 H1633 0.929 . S
C1622 C1618 1.531 . S
C1622 H1634 0.960 . S
C1622 H1635 0.962 . S
C1622 H1636 0.960 . S
C1623 C1620 1.511 . S
C1623 H1637 0.961 . S
C1623 H1638 0.961 . S
C1623 H1639 0.961 . S
C1624 C1625 1.370 . S
C1624 C1626 1.363 . S
C1624 H1640 0.931 . S
C1625 C1624 1.370 . S
C1625 C1629 1.408 . S
C1626 C1624 1.363 . S
C1626 C1627 1.370 . S
C1626 C1630 1.524 . S
C1627 C1619 1.503 . S
C1627 C1626 1.370 . S
C1627 C1628 1.403 . S
C1628 C1627 1.403 . S
C1628 C1629 1.404 . S
C1628 C1631 1.539 . S
C1629 C1625 1.408 . S
C1629 C1628 1.404 . S
C1629 H1641 0.930 . S
C1630 C1626 1.524 . S
C1630 H1642 0.956 . S
C1630 H1643 0.961 . S
C1630 H1644 0.961 . S
C1631 C1628 1.539 . S
C1631 H1645 0.958 . S
C1631 H1646 0.961 . S
C1631 H1647 0.960 . S
H1632 C1616 0.931 . S
H1633 C1621 0.929 . S
H1634 C1622 0.960 . S
H1635 C1622 0.962 . S
H1636 C1622 0.960 . S
H1637 C1623 0.961 . S
H1638 C1623 0.961 . S
H1639 C1623 0.961 . S
H1640 C1624 0.931 . S
H1641 C1629 0.930 . S
H1642 C1630 0.956 . S
H1643 C1630 0.961 . S
H1644 C1630 0.961 . S
H1645 C1631 0.958 . S
H1646 C1631 0.961 . S
H1647 C1631 0.960 . S
C1648 C1649 1.391 . S
C1648 C1650 1.394 . S
C1648 H1664 0.931 . S
C1649 C1648 1.391 . S
C1649 C1653 1.376 . S
C1650 C1648 1.394 . S
C1650 C1651 1.369 . S
C1650 C1654 1.531 . S
C1651 C1650 1.369 . S
C1651 C1652 1.410 . S
C1651 C1659 1.503 . S
C1652 C1651 1.410 . S
C1652 C1653 1.392 . S
C1652 C1655 1.511 . S
C1653 C1649 1.376 . S
C1653 C1652 1.392 . S
C1653 H1665 0.929 . S
C1654 C1650 1.531 . S
C1654 H1666 0.960 . S
C1654 H1667 0.962 . S
C1654 H1668 0.960 . S
C1655 C1652 1.511 . S
C1655 H1669 0.961 . S
C1655 H1670 0.961 . S
C1655 H1671 0.961 . S
C1656 C1657 1.370 . S
C1656 C1658 1.363 . S
C1656 H1672 0.931 . S
C1657 C1656 1.370 . S
C1657 C1661 1.408 . S
C1658 C1656 1.363 . S
C1658 C1659 1.370 . S
C1658 C1662 1.524 . S
C1659 C1651 1.503 . S
C1659 C1658 1.370 . S
C1659 C1660 1.403 . S
C1660 C1659 1.403 . S
C1660 C1661 1.404 . S
C1660 C1663 1.539 . S
C1661 C1657 1.408 . S
C1661 C1660 1.404 . S
C1661 H1673 0.930 . S
C1662 C1658 1.524 . S
C1662 H1674 0.956 . S
C1662 H1675 0.961 . S
C1662 H1676 0.961 . S
C1663 C1660 1.539 . S
C1663 H1677 0.958 . S
C1663 H1678 0.961 . S
C1663 H1679 0.960 . S
H1664 C1648 0.931 . S
H1665 C1653 0.929 . S
H1666 C1654 0.960 . S
H1667 C1654 0.962 . S
H1668 C1654 0.960 . S
H1669 C1655 0.961 . S
H1670 C1655 0.961 . S
H1671 C1655 0.961 . S
H1672 C1656 0.931 . S
H1673 C1661 0.930 . S
H1674 C1662 0.956 . S
H1675 C1662 0.961 . S
H1676 C1662 0.961 . S
H1677 C1663 0.958 . S
H1678 C1663 0.961 . S
H1679 C1663 0.960 . S
C1680 C1681 1.391 . S
C1680 C1682 1.394 . S
C1680 H1696 0.931 . S
C1681 C1680 1.391 . S
C1681 C1685 1.376 . S
C1682 C1680 1.394 . S
C1682 C1683 1.369 . S
C1682 C1686 1.531 . S
C1683 C1682 1.369 . S
C1683 C1684 1.410 . S
C1683 C1691 1.503 . S
C1684 C1683 1.410 . S
C1684 C1685 1.392 . S
C1684 C1687 1.511 . S
C1685 C1681 1.376 . S
C1685 C1684 1.392 . S
C1685 H1697 0.929 . S
C1686 C1682 1.531 . S
C1686 H1698 0.960 . S
C1686 H1699 0.962 . S
C1686 H1700 0.960 . S
C1687 C1684 1.511 . S
C1687 H1701 0.961 . S
C1687 H1702 0.961 . S
C1687 H1703 0.961 . S
C1688 C1689 1.370 . S
C1688 C1690 1.363 . S
C1688 H1704 0.931 . S
C1689 C1688 1.370 . S
C1689 C1693 1.408 . S
C1690 C1688 1.363 . S
C1690 C1691 1.370 . S
C1690 C1694 1.524 . S
C1691 C1683 1.503 . S
C1691 C1690 1.370 . S
C1691 C1692 1.403 . S
C1692 C1691 1.403 . S
C1692 C1693 1.404 . S
C1692 C1695 1.539 . S
C1693 C1689 1.408 . S
C1693 C1692 1.404 . S
C1693 H1705 0.930 . S
C1694 C1690 1.524 . S
C1694 H1706 0.956 . S
C1694 H1707 0.961 . S
C1694 H1708 0.961 . S
C1695 C1692 1.539 . S
C1695 H1709 0.958 . S
C1695 H1710 0.961 . S
C1695 H1711 0.960 . S
H1696 C1680 0.931 . S
H1697 C1685 0.929 . S
H1698 C1686 0.960 . S
H1699 C1686 0.962 . S
H1700 C1686 0.960 . S
H1701 C1687 0.961 . S
H1702 C1687 0.961 . S
H1703 C1687 0.961 . S
H1704 C1688 0.931 . S
H1705 C1693 0.930 . S
H1706 C1694 0.956 . S
H1707 C1694 0.961 . S
H1708 C1694 0.961 . S
H1709 C1695 0.958 . S
H1710 C1695 0.961 . S
H1711 C1695 0.960 . S
C1712 C1713 1.391 . S
C1712 C1714 1.394 . S
C1712 H1728 0.931 . S
C1713 C1712 1.391 . S
C1713 C1717 1.376 . S
C1714 C1712 1.394 . S
C1714 C1715 1.369 . S
C1714 C1718 1.531 . S
C1715 C1714 1.369 . S
C1715 C1716 1.410 . S
C1715 C1723 1.503 . S
C1716 C1715 1.410 . S
C1716 C1717 1.392 . S
C1716 C1719 1.511 . S
C1717 C1713 1.376 . S
C1717 C1716 1.392 . S
C1717 H1729 0.929 . S
C1718 C1714 1.531 . S
C1718 H1730 0.960 . S
C1718 H1731 0.962 . S
C1718 H1732 0.960 . S
C1719 C1716 1.511 . S
C1719 H1733 0.961 . S
C1719 H1734 0.961 . S
C1719 H1735 0.961 . S
C1720 C1721 1.370 . S
C1720 C1722 1.363 . S
C1720 H1736 0.931 . S
C1721 C1720 1.370 . S
C1721 C1725 1.408 . S
C1722 C1720 1.363 . S
C1722 C1723 1.370 . S
C1722 C1726 1.524 . S
C1723 C1715 1.503 . S
C1723 C1722 1.370 . S
C1723 C1724 1.403 . S
C1724 C1723 1.403 . S
C1724 C1725 1.404 . S
C1724 C1727 1.539 . S
C1725 C1721 1.408 . S
C1725 C1724 1.404 . S
C1725 H1737 0.930 . S
C1726 C1722 1.524 . S
C1726 H1738 0.956 . S
C1726 H1739 0.961 . S
C1726 H1740 0.961 . S
C1727 C1724 1.539 . S
C1727 H1741 0.958 . S
C1727 H1742 0.961 . S
C1727 H1743 0.960 . S
H1728 C1712 0.931 . S
H1729 C1717 0.929 . S
H1730 C1718 0.960 . S
H1731 C1718 0.962 . S
H1732 C1718 0.960 . S
H1733 C1719 0.961 . S
H1734 C1719 0.961 . S
H1735 C1719 0.961 . S
H1736 C1720 0.931 . S
H1737 C1725 0.930 . S
H1738 C1726 0.956 . S
H1739 C1726 0.961 . S
H1740 C1726 0.961 . S
H1741 C1727 0.958 . S
H1742 C1727 0.961 . S
H1743 C1727 0.960 . S
C1744 C1745 1.391 . S
C1744 C1746 1.394 . S
C1744 H1760 0.931 . S
C1745 C1744 1.391 . S
C1745 C1749 1.376 . S
C1746 C1744 1.394 . S
C1746 C1747 1.369 . S
C1746 C1750 1.531 . S
C1747 C1746 1.369 . S
C1747 C1748 1.410 . S
C1747 C1755 1.503 . S
C1748 C1747 1.410 . S
C1748 C1749 1.392 . S
C1748 C1751 1.511 . S
C1749 C1745 1.376 . S
C1749 C1748 1.392 . S
C1749 H1761 0.929 . S
C1750 C1746 1.531 . S
C1750 H1762 0.960 . S
C1750 H1763 0.962 . S
C1750 H1764 0.960 . S
C1751 C1748 1.511 . S
C1751 H1765 0.961 . S
C1751 H1766 0.961 . S
C1751 H1767 0.961 . S
C1752 C1753 1.370 . S
C1752 C1754 1.363 . S
C1752 H1768 0.931 1_554 S
C1753 C1752 1.370 . S
C1753 C1757 1.408 . S
C1754 C1752 1.363 . S
C1754 C1755 1.370 . S
C1754 C1758 1.524 . S
C1755 C1747 1.503 . S
C1755 C1754 1.370 . S
C1755 C1756 1.403 . S
C1756 C1755 1.403 . S
C1756 C1757 1.404 . S
C1756 C1759 1.539 . S
C1757 C1753 1.408 . S
C1757 C1756 1.404 . S
C1757 H1769 0.930 . S
C1758 C1754 1.524 . S
C1758 H1770 0.956 . S
C1758 H1771 0.961 . S
C1758 H1772 0.961 1_554 S
C1759 C1756 1.539 . S
C1759 H1773 0.958 . S
C1759 H1774 0.961 . S
C1759 H1775 0.960 . S
H1760 C1744 0.931 . S
H1761 C1749 0.929 . S
H1762 C1750 0.960 . S
H1763 C1750 0.962 . S
H1764 C1750 0.960 . S
H1765 C1751 0.961 . S
H1766 C1751 0.961 . S
H1767 C1751 0.961 . S
H1768 C1752 0.931 1_556 S
H1769 C1757 0.930 . S
H1770 C1758 0.956 . S
H1771 C1758 0.961 . S
H1772 C1758 0.961 1_556 S
H1773 C1759 0.958 . S
H1774 C1759 0.961 . S
H1775 C1759 0.960 . S
C1776 C1777 1.391 . S
C1776 C1778 1.394 . S
C1776 H1792 0.931 . S
C1777 C1776 1.391 . S
C1777 C1781 1.376 . S
C1778 C1776 1.394 . S
C1778 C1779 1.369 . S
C1778 C1782 1.531 . S
C1779 C1778 1.369 . S
C1779 C1780 1.410 . S
C1779 C1787 1.503 . S
C1780 C1779 1.410 . S
C1780 C1781 1.392 . S
C1780 C1783 1.511 . S
C1781 C1777 1.376 . S
C1781 C1780 1.392 . S
C1781 H1793 0.929 . S
C1782 C1778 1.531 . S
C1782 H1794 0.960 . S
C1782 H1795 0.962 . S
C1782 H1796 0.960 . S
C1783 C1780 1.511 . S
C1783 H1797 0.961 . S
C1783 H1798 0.961 . S
C1783 H1799 0.961 . S
C1784 C1785 1.370 . S
C1784 C1786 1.363 . S
C1784 H1800 0.931 . S
C1785 C1784 1.370 . S
C1785 C1789 1.408 . S
C1786 C1784 1.363 . S
C1786 C1787 1.370 . S
C1786 C1790 1.524 . S
C1787 C1779 1.503 . S
C1787 C1786 1.370 . S
C1787 C1788 1.403 . S
C1788 C1787 1.403 . S
C1788 C1789 1.404 . S
C1788 C1791 1.539 . S
C1789 C1785 1.408 . S
C1789 C1788 1.404 . S
C1789 H1801 0.930 . S
C1790 C1786 1.524 . S
C1790 H1802 0.956 . S
C1790 H1803 0.961 . S
C1790 H1804 0.961 . S
C1791 C1788 1.539 . S
C1791 H1805 0.958 . S
C1791 H1806 0.961 . S
C1791 H1807 0.960 . S
H1792 C1776 0.931 . S
H1793 C1781 0.929 . S
H1794 C1782 0.960 . S
H1795 C1782 0.962 . S
H1796 C1782 0.960 . S
H1797 C1783 0.961 . S
H1798 C1783 0.961 . S
H1799 C1783 0.961 . S
H1800 C1784 0.931 . S
H1801 C1789 0.930 . S
H1802 C1790 0.956 . S
H1803 C1790 0.961 . S
H1804 C1790 0.961 . S
H1805 C1791 0.958 . S
H1806 C1791 0.961 . S
H1807 C1791 0.960 . S
C1808 C1809 1.391 . S
C1808 C1810 1.394 . S
C1808 H1824 0.931 . S
C1809 C1808 1.391 . S
C1809 C1813 1.376 . S
C1810 C1808 1.394 . S
C1810 C1811 1.369 . S
C1810 C1814 1.531 . S
C1811 C1810 1.369 . S
C1811 C1812 1.410 . S
C1811 C1819 1.503 . S
C1812 C1811 1.410 . S
C1812 C1813 1.392 . S
C1812 C1815 1.511 . S
C1813 C1809 1.376 . S
C1813 C1812 1.392 . S
C1813 H1825 0.929 . S
C1814 C1810 1.531 . S
C1814 H1826 0.960 . S
C1814 H1827 0.962 . S
C1814 H1828 0.960 . S
C1815 C1812 1.511 . S
C1815 H1829 0.961 . S
C1815 H1830 0.961 . S
C1815 H1831 0.961 . S
C1816 C1817 1.370 . S
C1816 C1818 1.363 . S
C1816 H1832 0.931 . S
C1817 C1816 1.370 . S
C1817 C1821 1.408 . S
C1818 C1816 1.363 . S
C1818 C1819 1.370 . S
C1818 C1822 1.524 . S
C1819 C1811 1.503 . S
C1819 C1818 1.370 . S
C1819 C1820 1.403 . S
C1820 C1819 1.403 . S
C1820 C1821 1.404 . S
C1820 C1823 1.539 . S
C1821 C1817 1.408 . S
C1821 C1820 1.404 . S
C1821 H1833 0.930 . S
C1822 C1818 1.524 . S
C1822 H1834 0.956 . S
C1822 H1835 0.961 . S
C1822 H1836 0.961 . S
C1823 C1820 1.539 . S
C1823 H1837 0.958 . S
C1823 H1838 0.961 . S
C1823 H1839 0.960 . S
H1824 C1808 0.931 . S
H1825 C1813 0.929 . S
H1826 C1814 0.960 . S
H1827 C1814 0.962 . S
H1828 C1814 0.960 . S
H1829 C1815 0.961 . S
H1830 C1815 0.961 . S
H1831 C1815 0.961 . S
H1832 C1816 0.931 . S
H1833 C1821 0.930 . S
H1834 C1822 0.956 . S
H1835 C1822 0.961 . S
H1836 C1822 0.961 . S
H1837 C1823 0.958 . S
H1838 C1823 0.961 . S
H1839 C1823 0.960 . S
C1840 C1841 1.391 . S
C1840 C1842 1.394 . S
C1840 H1856 0.931 . S
C1841 C1840 1.391 . S
C1841 C1845 1.376 . S
C1842 C1840 1.394 . S
C1842 C1843 1.369 . S
C1842 C1846 1.531 . S
C1843 C1842 1.369 . S
C1843 C1844 1.410 . S
C1843 C1851 1.503 . S
C1844 C1843 1.410 . S
C1844 C1845 1.392 . S
C1844 C1847 1.511 . S
C1845 C1841 1.376 . S
C1845 C1844 1.392 . S
C1845 H1857 0.929 . S
C1846 C1842 1.531 . S
C1846 H1858 0.960 . S
C1846 H1859 0.962 . S
C1846 H1860 0.960 . S
C1847 C1844 1.511 . S
C1847 H1861 0.961 . S
C1847 H1862 0.961 . S
C1847 H1863 0.961 . S
C1848 C1849 1.370 . S
C1848 C1850 1.363 . S
C1848 H1864 0.931 . S
C1849 C1848 1.370 . S
C1849 C1853 1.408 . S
C1850 C1848 1.363 . S
C1850 C1851 1.370 . S
C1850 C1854 1.524 . S
C1851 C1843 1.503 . S
C1851 C1850 1.370 . S
C1851 C1852 1.403 . S
C1852 C1851 1.403 . S
C1852 C1853 1.404 . S
C1852 C1855 1.539 . S
C1853 C1849 1.408 . S
C1853 C1852 1.404 . S
C1853 H1865 0.930 . S
C1854 C1850 1.524 . S
C1854 H1866 0.956 . S
C1854 H1867 0.961 . S
C1854 H1868 0.961 . S
C1855 C1852 1.539 . S
C1855 H1869 0.958 . S
C1855 H1870 0.961 . S
C1855 H1871 0.960 . S
H1856 C1840 0.931 . S
H1857 C1845 0.929 . S
H1858 C1846 0.960 . S
H1859 C1846 0.962 . S
H1860 C1846 0.960 . S
H1861 C1847 0.961 . S
H1862 C1847 0.961 . S
H1863 C1847 0.961 . S
H1864 C1848 0.931 . S
H1865 C1853 0.930 . S
H1866 C1854 0.956 . S
H1867 C1854 0.961 . S
H1868 C1854 0.961 . S
H1869 C1855 0.958 . S
H1870 C1855 0.961 . S
H1871 C1855 0.960 . S
C1872 C1873 1.391 . S
C1872 C1874 1.394 . S
C1872 H1888 0.931 . S
C1873 C1872 1.391 . S
C1873 C1877 1.376 . S
C1874 C1872 1.394 . S
C1874 C1875 1.369 . S
C1874 C1878 1.531 . S
C1875 C1874 1.369 . S
C1875 C1876 1.410 . S
C1875 C1883 1.503 . S
C1876 C1875 1.410 . S
C1876 C1877 1.392 . S
C1876 C1879 1.511 . S
C1877 C1873 1.376 . S
C1877 C1876 1.392 . S
C1877 H1889 0.929 . S
C1878 C1874 1.531 . S
C1878 H1890 0.960 . S
C1878 H1891 0.962 . S
C1878 H1892 0.960 . S
C1879 C1876 1.511 . S
C1879 H1893 0.961 . S
C1879 H1894 0.961 . S
C1879 H1895 0.961 . S
C1880 C1881 1.370 . S
C1880 C1882 1.363 . S
C1880 H1896 0.931 . S
C1881 C1880 1.370 . S
C1881 C1885 1.408 . S
C1882 C1880 1.363 . S
C1882 C1883 1.370 . S
C1882 C1886 1.524 . S
C1883 C1875 1.503 . S
C1883 C1882 1.370 . S
C1883 C1884 1.403 . S
C1884 C1883 1.403 . S
C1884 C1885 1.404 . S
C1884 C1887 1.539 . S
C1885 C1881 1.408 . S
C1885 C1884 1.404 . S
C1885 H1897 0.930 . S
C1886 C1882 1.524 . S
C1886 H1898 0.956 . S
C1886 H1899 0.961 . S
C1886 H1900 0.961 . S
C1887 C1884 1.539 . S
C1887 H1901 0.958 . S
C1887 H1902 0.961 . S
C1887 H1903 0.960 . S
H1888 C1872 0.931 . S
H1889 C1877 0.929 . S
H1890 C1878 0.960 . S
H1891 C1878 0.962 . S
H1892 C1878 0.960 . S
H1893 C1879 0.961 . S
H1894 C1879 0.961 . S
H1895 C1879 0.961 . S
H1896 C1880 0.931 . S
H1897 C1885 0.930 . S
H1898 C1886 0.956 . S
H1899 C1886 0.961 . S
H1900 C1886 0.961 . S
H1901 C1887 0.958 . S
H1902 C1887 0.961 . S
H1903 C1887 0.960 . S
C1904 C1905 1.391 . S
C1904 C1906 1.394 . S
C1904 H1920 0.931 . S
C1905 C1904 1.391 . S
C1905 C1909 1.376 . S
C1906 C1904 1.394 . S
C1906 C1907 1.369 . S
C1906 C1910 1.531 . S
C1907 C1906 1.369 . S
C1907 C1908 1.410 . S
C1907 C1915 1.503 . S
C1908 C1907 1.410 . S
C1908 C1909 1.392 . S
C1908 C1911 1.511 . S
C1909 C1905 1.376 . S
C1909 C1908 1.392 . S
C1909 H1921 0.929 . S
C1910 C1906 1.531 . S
C1910 H1922 0.960 . S
C1910 H1923 0.962 . S
C1910 H1924 0.960 . S
C1911 C1908 1.511 . S
C1911 H1925 0.961 . S
C1911 H1926 0.961 . S
C1911 H1927 0.961 . S
C1912 C1913 1.370 . S
C1912 C1914 1.363 . S
C1912 H1928 0.931 . S
C1913 C1912 1.370 . S
C1913 C1917 1.408 . S
C1914 C1912 1.363 . S
C1914 C1915 1.370 . S
C1914 C1918 1.524 . S
C1915 C1907 1.503 . S
C1915 C1914 1.370 . S
C1915 C1916 1.403 . S
C1916 C1915 1.403 . S
C1916 C1917 1.404 . S
C1916 C1919 1.539 . S
C1917 C1913 1.408 . S
C1917 C1916 1.404 . S
C1917 H1929 0.930 . S
C1918 C1914 1.524 . S
C1918 H1930 0.956 . S
C1918 H1931 0.961 . S
C1918 H1932 0.961 . S
C1919 C1916 1.539 . S
C1919 H1933 0.958 . S
C1919 H1934 0.961 . S
C1919 H1935 0.960 . S
H1920 C1904 0.931 . S
H1921 C1909 0.929 . S
H1922 C1910 0.960 . S
H1923 C1910 0.962 . S
H1924 C1910 0.960 . S
H1925 C1911 0.961 . S
H1926 C1911 0.961 . S
H1927 C1911 0.961 . S
H1928 C1912 0.931 . S
H1929 C1917 0.930 . S
H1930 C1918 0.956 . S
H1931 C1918 0.961 . S
H1932 C1918 0.961 . S
H1933 C1919 0.958 . S
H1934 C1919 0.961 . S
H1935 C1919 0.960 . S
C1936 C1937 1.391 . S
C1936 C1938 1.394 . S
C1936 H1952 0.931 . S
C1937 C1936 1.391 . S
C1937 C1941 1.376 . S
C1938 C1936 1.394 . S
C1938 C1939 1.369 . S
C1938 C1942 1.531 . S
C1939 C1938 1.369 . S
C1939 C1940 1.410 . S
C1939 C1947 1.503 . S
C1940 C1939 1.410 . S
C1940 C1941 1.392 . S
C1940 C1943 1.511 . S
C1941 C1937 1.376 . S
C1941 C1940 1.392 . S
C1941 H1953 0.929 . S
C1942 C1938 1.531 . S
C1942 H1954 0.960 . S
C1942 H1955 0.962 . S
C1942 H1956 0.960 . S
C1943 C1940 1.511 . S
C1943 H1957 0.961 . S
C1943 H1958 0.961 . S
C1943 H1959 0.961 . S
C1944 C1945 1.370 . S
C1944 C1946 1.363 . S
C1944 H1960 0.931 1_556 S
C1945 C1944 1.370 . S
C1945 C1949 1.408 . S
C1946 C1944 1.363 . S
C1946 C1947 1.370 . S
C1946 C1950 1.524 . S
C1947 C1939 1.503 . S
C1947 C1946 1.370 . S
C1947 C1948 1.403 . S
C1948 C1947 1.403 . S
C1948 C1949 1.404 . S
C1948 C1951 1.539 . S
C1949 C1945 1.408 . S
C1949 C1948 1.404 . S
C1949 H1961 0.930 . S
C1950 C1946 1.524 . S
C1950 H1962 0.956 . S
C1950 H1963 0.961 . S
C1950 H1964 0.961 . S
C1951 C1948 1.539 . S
C1951 H1965 0.958 . S
C1951 H1966 0.961 . S
C1951 H1967 0.960 . S
H1952 C1936 0.931 . S
H1953 C1941 0.929 . S
H1954 C1942 0.960 . S
H1955 C1942 0.962 . S
H1956 C1942 0.960 . S
H1957 C1943 0.961 . S
H1958 C1943 0.961 . S
H1959 C1943 0.961 . S
H1960 C1944 0.931 1_554 S
H1961 C1949 0.930 . S
H1962 C1950 0.956 . S
H1963 C1950 0.961 . S
H1964 C1950 0.961 . S
H1965 C1951 0.958 . S
H1966 C1951 0.961 . S
H1967 C1951 0.960 . S
C1968 C1969 1.391 . S
C1968 C1970 1.394 . S
C1968 H1984 0.931 . S
C1969 C1968 1.391 . S
C1969 C1973 1.376 . S
C1970 C1968 1.394 . S
C1970 C1971 1.369 . S
C1970 C1974 1.531 . S
C1971 C1970 1.369 . S
C1971 C1972 1.410 . S
C1971 C1979 1.503 . S
C1972 C1971 1.410 . S
C1972 C1973 1.392 . S
C1972 C1975 1.511 . S
C1973 C1969 1.376 . S
C1973 C1972 1.392 . S
C1973 H1985 0.929 . S
C1974 C1970 1.531 . S
C1974 H1986 0.960 . S
C1974 H1987 0.962 . S
C1974 H1988 0.960 . S
C1975 C1972 1.511 . S
C1975 H1989 0.961 . S
C1975 H1990 0.961 . S
C1975 H1991 0.961 . S
C1976 C1977 1.370 . S
C1976 C1978 1.363 . S
C1976 H1992 0.931 . S
C1977 C1976 1.370 . S
C1977 C1981 1.408 . S
C1978 C1976 1.363 . S
C1978 C1979 1.370 . S
C1978 C1982 1.524 . S
C1979 C1971 1.503 . S
C1979 C1978 1.370 . S
C1979 C1980 1.403 . S
C1980 C1979 1.403 . S
C1980 C1981 1.404 . S
C1980 C1983 1.539 . S
C1981 C1977 1.408 . S
C1981 C1980 1.404 . S
C1981 H1993 0.930 . S
C1982 C1978 1.524 . S
C1982 H1994 0.956 . S
C1982 H1995 0.961 . S
C1982 H1996 0.961 . S
C1983 C1980 1.539 . S
C1983 H1997 0.958 . S
C1983 H1998 0.961 . S
C1983 H1999 0.960 . S
H1984 C1968 0.931 . S
H1985 C1973 0.929 . S
H1986 C1974 0.960 . S
H1987 C1974 0.962 . S
H1988 C1974 0.960 . S
H1989 C1975 0.961 . S
H1990 C1975 0.961 . S
H1991 C1975 0.961 . S
H1992 C1976 0.931 . S
H1993 C1981 0.930 . S
H1994 C1982 0.956 . S
H1995 C1982 0.961 . S
H1996 C1982 0.961 . S
H1997 C1983 0.958 . S
H1998 C1983 0.961 . S
H1999 C1983 0.960 . S
C2000 C2001 1.391 . S
C2000 C2002 1.394 . S
C2000 H2016 0.931 . S
C2001 C2000 1.391 . S
C2001 C2005 1.376 . S
C2002 C2000 1.394 . S
C2002 C2003 1.369 . S
C2002 C2006 1.531 . S
C2003 C2002 1.369 . S
C2003 C2004 1.410 . S
C2003 C2011 1.503 . S
C2004 C2003 1.410 . S
C2004 C2005 1.392 . S
C2004 C2007 1.511 . S
C2005 C2001 1.376 . S
C2005 C2004 1.392 . S
C2005 H2017 0.930 . S
C2006 C2002 1.531 . S
C2006 H2018 0.960 . S
C2006 H2019 0.962 . S
C2006 H2020 0.960 . S
C2007 C2004 1.511 . S
C2007 H2021 0.961 1_545 S
C2007 H2022 0.961 1_545 S
C2007 H2023 0.961 . S
C2008 C2009 1.370 1_565 S
C2008 C2010 1.363 . S
C2008 H2024 0.931 . S
C2009 C2008 1.370 1_545 S
C2009 C2013 1.408 . S
C2010 C2008 1.363 . S
C2010 C2011 1.370 1_565 S
C2010 C2014 1.524 . S
C2011 C2003 1.503 . S
C2011 C2010 1.370 1_545 S
C2011 C2012 1.403 . S
C2012 C2011 1.403 . S
C2012 C2013 1.404 . S
C2012 C2015 1.539 . S
C2013 C2009 1.408 . S
C2013 C2012 1.404 . S
C2013 H2025 0.930 . S
C2014 C2010 1.524 . S
C2014 H2026 0.956 . S
C2014 H2027 0.961 . S
C2014 H2028 0.961 . S
C2015 C2012 1.539 . S
C2015 H2029 0.958 . S
C2015 H2030 0.961 . S
C2015 H2031 0.960 . S
H2016 C2000 0.931 . S
H2017 C2005 0.930 . S
H2018 C2006 0.960 . S
H2019 C2006 0.962 . S
H2020 C2006 0.960 . S
H2021 C2007 0.961 1_565 S
H2022 C2007 0.961 1_565 S
H2023 C2007 0.961 . S
H2024 C2008 0.931 . S
H2025 C2013 0.930 . S
H2026 C2014 0.956 . S
H2027 C2014 0.961 . S
H2028 C2014 0.961 . S
H2029 C2015 0.958 . S
H2030 C2015 0.961 . S
H2031 C2015 0.960 . S
C2032 C2033 1.391 . S
C2032 C2034 1.394 . S
C2032 H2048 0.931 . S
C2033 C2032 1.391 . S
C2033 C2037 1.376 . S
C2034 C2032 1.394 . S
C2034 C2035 1.369 . S
C2034 C2038 1.531 . S
C2035 C2034 1.369 . S
C2035 C2036 1.410 . S
C2035 C2043 1.503 . S
C2036 C2035 1.410 . S
C2036 C2037 1.392 . S
C2036 C2039 1.511 . S
C2037 C2033 1.376 . S
C2037 C2036 1.392 . S
C2037 H2049 0.929 . S
C2038 C2034 1.531 . S
C2038 H2050 0.960 . S
C2038 H2051 0.962 . S
C2038 H2052 0.960 . S
C2039 C2036 1.511 . S
C2039 H2053 0.961 . S
C2039 H2054 0.961 . S
C2039 H2055 0.961 . S
C2040 C2041 1.370 . S
C2040 C2042 1.363 . S
C2040 H2056 0.931 . S
C2041 C2040 1.370 . S
C2041 C2045 1.408 . S
C2042 C2040 1.363 . S
C2042 C2043 1.370 . S
C2042 C2046 1.524 . S
C2043 C2035 1.503 . S
C2043 C2042 1.370 . S
C2043 C2044 1.403 . S
C2044 C2043 1.403 . S
C2044 C2045 1.404 . S
C2044 C2047 1.539 . S
C2045 C2041 1.408 . S
C2045 C2044 1.404 . S
C2045 H2057 0.930 . S
C2046 C2042 1.524 . S
C2046 H2058 0.956 . S
C2046 H2059 0.961 . S
C2046 H2060 0.961 . S
C2047 C2044 1.539 . S
C2047 H2061 0.958 . S
C2047 H2062 0.961 . S
C2047 H2063 0.960 . S
H2048 C2032 0.931 . S
H2049 C2037 0.929 . S
H2050 C2038 0.960 . S
H2051 C2038 0.962 . S
H2052 C2038 0.960 . S
H2053 C2039 0.961 . S
H2054 C2039 0.961 . S
H2055 C2039 0.961 . S
H2056 C2040 0.931 . S
H2057 C2045 0.930 . S
H2058 C2046 0.956 . S
H2059 C2046 0.961 . S
H2060 C2046 0.961 . S
H2061 C2047 0.958 . S
H2062 C2047 0.961 . S
H2063 C2047 0.960 . S
C2064 C2065 1.391 1_565 S
C2064 C2066 1.394 . S
C2064 H2080 0.931 . S
C2065 C2064 1.391 1_545 S
C2065 C2069 1.376 . S
C2066 C2064 1.394 . S
C2066 C2067 1.369 1_565 S
C2066 C2070 1.531 . S
C2067 C2066 1.369 1_545 S
C2067 C2068 1.410 . S
C2067 C2075 1.503 . S
C2068 C2067 1.410 . S
C2068 C2069 1.392 . S
C2068 C2071 1.511 . S
C2069 C2065 1.376 . S
C2069 C2068 1.392 . S
C2069 H2081 0.929 . S
C2070 C2066 1.531 . S
C2070 H2082 0.960 . S
C2070 H2083 0.962 . S
C2070 H2084 0.960 . S
C2071 C2068 1.511 . S
C2071 H2085 0.961 . S
C2071 H2086 0.961 . S
C2071 H2087 0.961 . S
C2072 C2073 1.370 . S
C2072 C2074 1.363 . S
C2072 H2088 0.931 . S
C2073 C2072 1.370 . S
C2073 C2077 1.408 . S
C2074 C2072 1.363 . S
C2074 C2075 1.370 . S
C2074 C2078 1.524 . S
C2075 C2067 1.503 . S
C2075 C2074 1.370 . S
C2075 C2076 1.403 . S
C2076 C2075 1.403 . S
C2076 C2077 1.404 . S
C2076 C2079 1.539 . S
C2077 C2073 1.408 . S
C2077 C2076 1.404 . S
C2077 H2089 0.930 . S
C2078 C2074 1.524 . S
C2078 H2090 0.956 . S
C2078 H2091 0.961 . S
C2078 H2092 0.961 . S
C2079 C2076 1.539 . S
C2079 H2093 0.958 1_545 S
C2079 H2094 0.961 . S
C2079 H2095 0.960 . S
H2080 C2064 0.931 . S
H2081 C2069 0.929 . S
H2082 C2070 0.960 . S
H2083 C2070 0.962 . S
H2084 C2070 0.960 . S
H2085 C2071 0.961 . S
H2086 C2071 0.961 . S
H2087 C2071 0.961 . S
H2088 C2072 0.931 . S
H2089 C2077 0.930 . S
H2090 C2078 0.956 . S
H2091 C2078 0.961 . S
H2092 C2078 0.961 . S
H2093 C2079 0.958 1_565 S
H2094 C2079 0.961 . S
H2095 C2079 0.960 . S
C2096 C2097 1.391 . S
C2096 C2098 1.394 . S
C2096 H2112 0.931 . S
C2097 C2096 1.391 . S
C2097 C2101 1.376 . S
C2098 C2096 1.394 . S
C2098 C2099 1.369 . S
C2098 C2102 1.531 . S
C2099 C2098 1.369 . S
C2099 C2100 1.410 . S
C2099 C2107 1.503 . S
C2100 C2099 1.410 . S
C2100 C2101 1.392 . S
C2100 C2103 1.511 . S
C2101 C2097 1.376 . S
C2101 C2100 1.392 . S
C2101 H2113 0.929 . S
C2102 C2098 1.531 . S
C2102 H2114 0.960 . S
C2102 H2115 0.962 . S
C2102 H2116 0.960 . S
C2103 C2100 1.511 . S
C2103 H2117 0.961 . S
C2103 H2118 0.961 . S
C2103 H2119 0.961 . S
C2104 C2105 1.370 . S
C2104 C2106 1.363 . S
C2104 H2120 0.931 . S
C2105 C2104 1.370 . S
C2105 C2109 1.408 . S
C2106 C2104 1.363 . S
C2106 C2107 1.370 . S
C2106 C2110 1.524 . S
C2107 C2099 1.503 . S
C2107 C2106 1.370 . S
C2107 C2108 1.403 . S
C2108 C2107 1.403 . S
C2108 C2109 1.404 . S
C2108 C2111 1.539 . S
C2109 C2105 1.408 . S
C2109 C2108 1.404 . S
C2109 H2121 0.930 . S
C2110 C2106 1.524 . S
C2110 H2122 0.956 . S
C2110 H2123 0.961 . S
C2110 H2124 0.961 . S
C2111 C2108 1.539 . S
C2111 H2125 0.958 . S
C2111 H2126 0.961 . S
C2111 H2127 0.960 . S
H2112 C2096 0.931 . S
H2113 C2101 0.929 . S
H2114 C2102 0.960 . S
H2115 C2102 0.962 . S
H2116 C2102 0.960 . S
H2117 C2103 0.961 . S
H2118 C2103 0.961 . S
H2119 C2103 0.961 . S
H2120 C2104 0.931 . S
H2121 C2109 0.930 . S
H2122 C2110 0.956 . S
H2123 C2110 0.961 . S
H2124 C2110 0.961 . S
H2125 C2111 0.958 . S
H2126 C2111 0.961 . S
H2127 C2111 0.960 . S
C2128 C2129 1.391 . S
C2128 C2130 1.394 . S
C2128 H2144 0.931 . S
C2129 C2128 1.391 . S
C2129 C2133 1.376 1_565 S
C2130 C2128 1.394 . S
C2130 C2131 1.369 1_565 S
C2130 C2134 1.531 . S
C2131 C2130 1.369 1_545 S
C2131 C2132 1.410 . S
C2131 C2139 1.503 . S
C2132 C2131 1.410 . S
C2132 C2133 1.392 . S
C2132 C2135 1.511 . S
C2133 C2129 1.376 1_545 S
C2133 C2132 1.392 . S
C2133 H2145 0.929 . S
C2134 C2130 1.531 . S
C2134 H2146 0.960 . S
C2134 H2147 0.962 1_565 S
C2134 H2148 0.960 . S
C2135 C2132 1.511 . S
C2135 H2149 0.961 . S
C2135 H2150 0.961 . S
C2135 H2151 0.961 . S
C2136 C2137 1.370 . S
C2136 C2138 1.363 . S
C2136 H2152 0.931 . S
C2137 C2136 1.370 . S
C2137 C2141 1.408 . S
C2138 C2136 1.363 . S
C2138 C2139 1.370 . S
C2138 C2142 1.524 . S
C2139 C2131 1.503 . S
C2139 C2138 1.370 . S
C2139 C2140 1.403 1_545 S
C2140 C2139 1.403 1_565 S
C2140 C2141 1.404 1_565 S
C2140 C2143 1.539 . S
C2141 C2137 1.408 . S
C2141 C2140 1.404 1_545 S
C2141 H2153 0.930 1_545 S
C2142 C2138 1.524 . S
C2142 H2154 0.956 . S
C2142 H2155 0.961 . S
C2142 H2156 0.961 . S
C2143 C2140 1.539 . S
C2143 H2157 0.958 . S
C2143 H2158 0.961 . S
C2143 H2159 0.960 . S
H2144 C2128 0.931 . S
H2145 C2133 0.929 . S
H2146 C2134 0.960 . S
H2147 C2134 0.962 1_545 S
H2148 C2134 0.960 . S
H2149 C2135 0.961 . S
H2150 C2135 0.961 . S
H2151 C2135 0.961 . S
H2152 C2136 0.931 . S
H2153 C2141 0.930 1_565 S
H2154 C2142 0.956 . S
H2155 C2142 0.961 . S
H2156 C2142 0.961 . S
H2157 C2143 0.958 . S
H2158 C2143 0.961 . S
H2159 C2143 0.960 . S
C2160 C2161 1.391 . S
C2160 C2162 1.394 . S
C2160 H2176 0.931 . S
C2161 C2160 1.391 . S
C2161 C2165 1.376 . S
C2162 C2160 1.394 . S
C2162 C2163 1.369 . S
C2162 C2166 1.531 . S
C2163 C2162 1.369 . S
C2163 C2164 1.410 . S
C2163 C2171 1.503 . S
C2164 C2163 1.410 . S
C2164 C2165 1.392 . S
C2164 C2167 1.511 . S
C2165 C2161 1.376 . S
C2165 C2164 1.392 . S
C2165 H2177 0.929 . S
C2166 C2162 1.531 . S
C2166 H2178 0.960 . S
C2166 H2179 0.962 . S
C2166 H2180 0.960 . S
C2167 C2164 1.511 . S
C2167 H2181 0.961 . S
C2167 H2182 0.961 . S
C2167 H2183 0.961 . S
C2168 C2169 1.370 . S
C2168 C2170 1.363 . S
C2168 H2184 0.931 . S
C2169 C2168 1.370 . S
C2169 C2173 1.408 . S
C2170 C2168 1.363 . S
C2170 C2171 1.370 . S
C2170 C2174 1.524 . S
C2171 C2163 1.503 . S
C2171 C2170 1.370 . S
C2171 C2172 1.403 . S
C2172 C2171 1.403 . S
C2172 C2173 1.404 . S
C2172 C2175 1.539 . S
C2173 C2169 1.408 . S
C2173 C2172 1.404 . S
C2173 H2185 0.930 . S
C2174 C2170 1.524 . S
C2174 H2186 0.956 . S
C2174 H2187 0.961 . S
C2174 H2188 0.961 . S
C2175 C2172 1.539 . S
C2175 H2189 0.958 . S
C2175 H2190 0.961 . S
C2175 H2191 0.960 . S
H2176 C2160 0.931 . S
H2177 C2165 0.929 . S
H2178 C2166 0.960 . S
H2179 C2166 0.962 . S
H2180 C2166 0.960 . S
H2181 C2167 0.961 . S
H2182 C2167 0.961 . S
H2183 C2167 0.961 . S
H2184 C2168 0.931 . S
H2185 C2173 0.930 . S
H2186 C2174 0.956 . S
H2187 C2174 0.961 . S
H2188 C2174 0.961 . S
H2189 C2175 0.958 . S
H2190 C2175 0.961 . S
H2191 C2175 0.960 . S
C2192 C2193 1.391 1_545 S
C2192 C2194 1.394 . S
C2192 H2208 0.931 . S
C2193 C2192 1.391 1_565 S
C2193 C2197 1.376 . S
C2194 C2192 1.394 . S
C2194 C2195 1.369 1_545 S
C2194 C2198 1.531 . S
C2195 C2194 1.369 1_565 S
C2195 C2196 1.410 . S
C2195 C2203 1.503 . S
C2196 C2195 1.410 . S
C2196 C2197 1.392 . S
C2196 C2199 1.511 . S
C2197 C2193 1.376 . S
C2197 C2196 1.392 . S
C2197 H2209 0.929 . S
C2198 C2194 1.531 . S
C2198 H2210 0.960 . S
C2198 H2211 0.962 . S
C2198 H2212 0.960 . S
C2199 C2196 1.511 . S
C2199 H2213 0.961 . S
C2199 H2214 0.961 . S
C2199 H2215 0.961 . S
C2200 C2201 1.370 . S
C2200 C2202 1.363 . S
C2200 H2216 0.931 . S
C2201 C2200 1.370 . S
C2201 C2205 1.408 . S
C2202 C2200 1.363 . S
C2202 C2203 1.370 . S
C2202 C2206 1.524 . S
C2203 C2195 1.503 . S
C2203 C2202 1.370 . S
C2203 C2204 1.403 . S
C2204 C2203 1.403 . S
C2204 C2205 1.404 . S
C2204 C2207 1.539 . S
C2205 C2201 1.408 . S
C2205 C2204 1.404 . S
C2205 H2217 0.930 . S
C2206 C2202 1.524 . S
C2206 H2218 0.956 1_565 S
C2206 H2219 0.961 . S
C2206 H2220 0.961 . S
C2207 C2204 1.539 . S
C2207 H2221 0.958 . S
C2207 H2222 0.961 . S
C2207 H2223 0.960 . S
H2208 C2192 0.931 . S
H2209 C2197 0.929 . S
H2210 C2198 0.960 . S
H2211 C2198 0.962 . S
H2212 C2198 0.960 . S
H2213 C2199 0.961 . S
H2214 C2199 0.961 . S
H2215 C2199 0.961 . S
H2216 C2200 0.931 . S
H2217 C2205 0.930 . S
H2218 C2206 0.956 1_545 S
H2219 C2206 0.961 . S
H2220 C2206 0.961 . S
H2221 C2207 0.958 . S
H2222 C2207 0.961 . S
H2223 C2207 0.960 . S
C2224 C2225 1.391 . S
C2224 C2226 1.394 . S
C2224 H2240 0.931 . S
C2225 C2224 1.391 . S
C2225 C2229 1.376 . S
C2226 C2224 1.394 . S
C2226 C2227 1.369 . S
C2226 C2230 1.531 . S
C2227 C2226 1.369 . S
C2227 C2228 1.410 . S
C2227 C2235 1.503 . S
C2228 C2227 1.410 . S
C2228 C2229 1.392 . S
C2228 C2231 1.511 . S
C2229 C2225 1.376 . S
C2229 C2228 1.392 . S
C2229 H2241 0.929 . S
C2230 C2226 1.531 . S
C2230 H2242 0.960 . S
C2230 H2243 0.962 . S
C2230 H2244 0.960 . S
C2231 C2228 1.511 . S
C2231 H2245 0.961 . S
C2231 H2246 0.961 . S
C2231 H2247 0.961 . S
C2232 C2233 1.370 . S
C2232 C2234 1.363 . S
C2232 H2248 0.931 . S
C2233 C2232 1.370 . S
C2233 C2237 1.408 . S
C2234 C2232 1.363 . S
C2234 C2235 1.370 . S
C2234 C2238 1.524 . S
C2235 C2227 1.503 . S
C2235 C2234 1.370 . S
C2235 C2236 1.403 . S
C2236 C2235 1.403 . S
C2236 C2237 1.404 . S
C2236 C2239 1.539 . S
C2237 C2233 1.408 . S
C2237 C2236 1.404 . S
C2237 H2249 0.930 . S
C2238 C2234 1.524 . S
C2238 H2250 0.956 . S
C2238 H2251 0.961 . S
C2238 H2252 0.961 . S
C2239 C2236 1.539 . S
C2239 H2253 0.958 . S
C2239 H2254 0.961 . S
C2239 H2255 0.960 . S
H2240 C2224 0.931 . S
H2241 C2229 0.929 . S
H2242 C2230 0.960 . S
H2243 C2230 0.962 . S
H2244 C2230 0.960 . S
H2245 C2231 0.961 . S
H2246 C2231 0.961 . S
H2247 C2231 0.961 . S
H2248 C2232 0.931 . S
H2249 C2237 0.930 . S
H2250 C2238 0.956 . S
H2251 C2238 0.961 . S
H2252 C2238 0.961 . S
H2253 C2239 0.958 . S
H2254 C2239 0.961 . S
H2255 C2239 0.960 . S
C2256 C2257 1.391 . S
C2256 C2258 1.394 . S
C2256 H2272 0.931 . S
C2257 C2256 1.391 . S
C2257 C2261 1.376 1_554 S
C2258 C2256 1.394 . S
C2258 C2259 1.369 1_554 S
C2258 C2262 1.531 . S
C2259 C2258 1.369 1_556 S
C2259 C2260 1.410 . S
C2259 C2267 1.503 . S
C2260 C2259 1.410 . S
C2260 C2261 1.392 . S
C2260 C2263 1.511 . S
C2261 C2257 1.376 1_556 S
C2261 C2260 1.392 . S
C2261 H2273 0.929 . S
C2262 C2258 1.531 . S
C2262 H2274 0.960 . S
C2262 H2275 0.962 . S
C2262 H2276 0.960 . S
C2263 C2260 1.511 . S
C2263 H2277 0.961 . S
C2263 H2278 0.961 . S
C2263 H2279 0.961 . S
C2264 C2265 1.370 . S
C2264 C2266 1.363 . S
C2264 H2280 0.931 . S
C2265 C2264 1.370 . S
C2265 C2269 1.408 . S
C2266 C2264 1.363 . S
C2266 C2267 1.370 . S
C2266 C2270 1.524 1_556 S
C2267 C2259 1.503 . S
C2267 C2266 1.370 . S
C2267 C2268 1.403 . S
C2268 C2267 1.403 . S
C2268 C2269 1.404 . S
C2268 C2271 1.539 . S
C2269 C2265 1.408 . S
C2269 C2268 1.404 . S
C2269 H2281 0.930 . S
C2270 C2266 1.524 1_554 S
C2270 H2282 0.956 . S
C2270 H2283 0.961 . S
C2270 H2284 0.961 . S
C2271 C2268 1.539 . S
C2271 H2285 0.958 . S
C2271 H2286 0.961 . S
C2271 H2287 0.960 . S
H2272 C2256 0.931 . S
H2273 C2261 0.929 . S
H2274 C2262 0.960 . S
H2275 C2262 0.962 . S
H2276 C2262 0.960 . S
H2277 C2263 0.961 . S
H2278 C2263 0.961 . S
H2279 C2263 0.961 . S
H2280 C2264 0.931 . S
H2281 C2269 0.930 . S
H2282 C2270 0.956 . S
H2283 C2270 0.961 . S
H2284 C2270 0.961 . S
H2285 C2271 0.958 . S
H2286 C2271 0.961 . S
H2287 C2271 0.960 . S
C2288 C2289 1.391 . S
C2288 C2290 1.394 . S
C2288 H2304 0.931 . S
C2289 C2288 1.391 . S
C2289 C2293 1.376 . S
C2290 C2288 1.394 . S
C2290 C2291 1.369 . S
C2290 C2294 1.531 . S
C2291 C2290 1.369 . S
C2291 C2292 1.443 . S
C2291 C2299 1.503 . S
C2292 C2291 1.443 . S
C2292 C2293 1.406 . S
C2292 C2295 1.467 1_554 S
C2293 C2289 1.376 . S
C2293 C2292 1.406 . S
C2293 H2305 0.929 1_554 S
C2294 C2290 1.531 . S
C2294 H2306 0.960 . S
C2294 H2307 0.962 . S
C2294 H2308 0.960 . S
C2295 C2292 1.467 1_556 S
C2295 H2309 0.961 . S
C2295 H2310 0.961 . S
C2295 H2311 0.961 . S
C2296 C2297 1.370 . S
C2296 C2298 1.363 . S
C2296 H2312 0.931 . S
C2297 C2296 1.370 . S
C2297 C2301 1.408 . S
C2298 C2296 1.363 . S
C2298 C2299 1.370 . S
C2298 C2302 1.524 . S
C2299 C2291 1.503 . S
C2299 C2298 1.370 . S
C2299 C2300 1.403 . S
C2300 C2299 1.403 . S
C2300 C2301 1.404 . S
C2300 C2303 1.539 . S
C2301 C2297 1.408 . S
C2301 C2300 1.404 . S
C2301 H2313 0.930 . S
C2302 C2298 1.524 . S
C2302 H2314 0.956 . S
C2302 H2315 0.961 . S
C2302 H2316 0.961 . S
C2303 C2300 1.539 . S
C2303 H2317 0.958 . S
C2303 H2318 0.961 1_554 S
C2303 H2319 0.960 1_554 S
H2304 C2288 0.931 . S
H2305 C2293 0.929 1_556 S
H2306 C2294 0.960 . S
H2307 C2294 0.962 . S
H2308 C2294 0.960 . S
H2309 C2295 0.961 . S
H2310 C2295 0.961 . S
H2311 C2295 0.961 . S
H2312 C2296 0.931 . S
H2313 C2301 0.930 . S
H2314 C2302 0.956 . S
H2315 C2302 0.961 . S
H2316 C2302 0.961 . S
H2317 C2303 0.958 . S
H2318 C2303 0.961 1_556 S
H2319 C2303 0.960 1_556 S
C2320 C2321 1.391 . S
C2320 C2322 1.394 . S
C2320 H2336 0.931 . S
C2321 C2320 1.391 . S
C2321 C2325 1.376 . S
C2322 C2320 1.394 . S
C2322 C2323 1.369 . S
C2322 C2326 1.531 . S
C2323 C2322 1.369 . S
C2323 C2324 1.410 . S
C2323 C2331 1.503 . S
C2324 C2323 1.410 . S
C2324 C2325 1.392 . S
C2324 C2327 1.511 . S
C2325 C2321 1.376 . S
C2325 C2324 1.392 . S
C2325 H2337 0.929 . S
C2326 C2322 1.531 . S
C2326 H2338 0.960 . S
C2326 H2339 0.962 . S
C2326 H2340 0.960 . S
C2327 C2324 1.511 . S
C2327 H2341 0.961 . S
C2327 H2342 0.961 . S
C2327 H2343 0.961 . S
C2328 C2329 1.370 . S
C2328 C2330 1.363 . S
C2328 H2344 0.931 . S
C2329 C2328 1.370 . S
C2329 C2333 1.408 . S
C2330 C2328 1.363 . S
C2330 C2331 1.370 . S
C2330 C2334 1.524 . S
C2331 C2323 1.503 . S
C2331 C2330 1.370 . S
C2331 C2332 1.403 . S
C2332 C2331 1.403 . S
C2332 C2333 1.404 . S
C2332 C2335 1.539 . S
C2333 C2329 1.408 . S
C2333 C2332 1.404 . S
C2333 H2345 0.930 . S
C2334 C2330 1.524 . S
C2334 H2346 0.956 . S
C2334 H2347 0.961 . S
C2334 H2348 0.961 . S
C2335 C2332 1.539 . S
C2335 H2349 0.958 . S
C2335 H2350 0.961 . S
C2335 H2351 0.960 . S
H2336 C2320 0.931 . S
H2337 C2325 0.929 . S
H2338 C2326 0.960 . S
H2339 C2326 0.962 . S
H2340 C2326 0.960 . S
H2341 C2327 0.961 . S
H2342 C2327 0.961 . S
H2343 C2327 0.961 . S
H2344 C2328 0.931 . S
H2345 C2333 0.930 . S
H2346 C2334 0.956 . S
H2347 C2334 0.961 . S
H2348 C2334 0.961 . S
H2349 C2335 0.958 . S
H2350 C2335 0.961 . S
H2351 C2335 0.960 . S
C2352 C2353 1.391 . S
C2352 C2354 1.394 . S
C2352 H2368 0.931 . S
C2353 C2352 1.391 . S
C2353 C2357 1.376 . S
C2354 C2352 1.394 . S
C2354 C2355 1.369 . S
C2354 C2358 1.531 . S
C2355 C2354 1.369 . S
C2355 C2356 1.410 . S
C2355 C2363 1.503 . S
C2356 C2355 1.410 . S
C2356 C2357 1.392 . S
C2356 C2359 1.511 . S
C2357 C2353 1.376 . S
C2357 C2356 1.392 . S
C2357 H2369 0.929 . S
C2358 C2354 1.531 . S
C2358 H2370 0.960 . S
C2358 H2371 0.962 . S
C2358 H2372 0.960 . S
C2359 C2356 1.511 . S
C2359 H2373 0.961 . S
C2359 H2374 0.961 . S
C2359 H2375 0.961 . S
C2360 C2361 1.370 . S
C2360 C2362 1.363 . S
C2360 H2376 0.931 . S
C2361 C2360 1.370 . S
C2361 C2365 1.408 . S
C2362 C2360 1.363 . S
C2362 C2363 1.370 . S
C2362 C2366 1.524 . S
C2363 C2355 1.503 . S
C2363 C2362 1.370 . S
C2363 C2364 1.403 . S
C2364 C2363 1.403 . S
C2364 C2365 1.404 . S
C2364 C2367 1.539 . S
C2365 C2361 1.408 . S
C2365 C2364 1.404 . S
C2365 H2377 0.930 . S
C2366 C2362 1.524 . S
C2366 H2378 0.956 . S
C2366 H2379 0.961 . S
C2366 H2380 0.961 . S
C2367 C2364 1.539 . S
C2367 H2381 0.958 . S
C2367 H2382 0.961 . S
C2367 H2383 0.960 . S
H2368 C2352 0.931 . S
H2369 C2357 0.929 . S
H2370 C2358 0.960 . S
H2371 C2358 0.962 . S
H2372 C2358 0.960 . S
H2373 C2359 0.961 . S
H2374 C2359 0.961 . S
H2375 C2359 0.961 . S
H2376 C2360 0.931 . S
H2377 C2365 0.930 . S
H2378 C2366 0.956 . S
H2379 C2366 0.961 . S
H2380 C2366 0.961 . S
H2381 C2367 0.958 . S
H2382 C2367 0.961 . S
H2383 C2367 0.960 . S
C2384 C2385 1.391 1_565 S
C2384 C2386 1.394 . S
C2384 H2400 0.931 . S
C2385 C2384 1.391 1_545 S
C2385 C2389 1.376 . S
C2386 C2384 1.394 . S
C2386 C2387 1.369 . S
C2386 C2390 1.531 . S
C2387 C2386 1.369 . S
C2387 C2388 1.410 1_565 S
C2387 C2395 1.503 . S
C2388 C2387 1.410 1_545 S
C2388 C2389 1.392 . S
C2388 C2391 1.511 . S
C2389 C2385 1.376 . S
C2389 C2388 1.392 . S
C2389 H2401 0.929 . S
C2390 C2386 1.531 . S
C2390 H2402 0.960 . S
C2390 H2403 0.962 . S
C2390 H2404 0.960 . S
C2391 C2388 1.511 . S
C2391 H2405 0.961 . S
C2391 H2406 0.961 . S
C2391 H2407 0.961 . S
C2392 C2393 1.370 . S
C2392 C2394 1.363 . S
C2392 H2408 0.931 . S
C2393 C2392 1.370 . S
C2393 C2397 1.408 . S
C2394 C2392 1.363 . S
C2394 C2395 1.370 . S
C2394 C2398 1.524 . S
C2395 C2387 1.503 . S
C2395 C2394 1.370 . S
C2395 C2396 1.403 . S
C2396 C2395 1.403 . S
C2396 C2397 1.404 . S
C2396 C2399 1.539 . S
C2397 C2393 1.408 . S
C2397 C2396 1.404 . S
C2397 H2409 0.930 . S
C2398 C2394 1.524 . S
C2398 H2410 0.956 . S
C2398 H2411 0.961 1_565 S
C2398 H2412 0.961 . S
C2399 C2396 1.539 . S
C2399 H2413 0.958 . S
C2399 H2414 0.961 . S
C2399 H2415 0.960 . S
H2400 C2384 0.931 . S
H2401 C2389 0.929 . S
H2402 C2390 0.960 . S
H2403 C2390 0.962 . S
H2404 C2390 0.960 . S
H2405 C2391 0.961 . S
H2406 C2391 0.961 . S
H2407 C2391 0.961 . S
H2408 C2392 0.931 . S
H2409 C2397 0.930 . S
H2410 C2398 0.956 . S
H2411 C2398 0.961 1_545 S
H2412 C2398 0.961 . S
H2413 C2399 0.958 . S
H2414 C2399 0.961 . S
H2415 C2399 0.960 . S
C2416 C2417 1.391 . S
C2416 C2418 1.394 . S
C2416 H2432 0.931 . S
C2417 C2416 1.391 . S
C2417 C2421 1.376 . S
C2418 C2416 1.394 . S
C2418 C2419 1.369 . S
C2418 C2422 1.531 . S
C2419 C2418 1.369 . S
C2419 C2420 1.410 . S
C2419 C2427 1.503 . S
C2420 C2419 1.410 . S
C2420 C2421 1.392 . S
C2420 C2423 1.511 . S
C2421 C2417 1.376 . S
C2421 C2420 1.392 . S
C2421 H2433 0.929 . S
C2422 C2418 1.531 . S
C2422 H2434 0.960 . S
C2422 H2435 0.962 . S
C2422 H2436 0.960 . S
C2423 C2420 1.511 . S
C2423 H2437 0.961 . S
C2423 H2438 0.961 . S
C2423 H2439 0.961 . S
C2424 C2425 1.370 . S
C2424 C2426 1.363 . S
C2424 H2440 0.931 . S
C2425 C2424 1.370 . S
C2425 C2429 1.408 . S
C2426 C2424 1.363 . S
C2426 C2427 1.370 . S
C2426 C2430 1.524 . S
C2427 C2419 1.503 . S
C2427 C2426 1.370 . S
C2427 C2428 1.403 . S
C2428 C2427 1.403 . S
C2428 C2429 1.404 . S
C2428 C2431 1.539 . S
C2429 C2425 1.408 . S
C2429 C2428 1.404 . S
C2429 H2441 0.930 . S
C2430 C2426 1.524 . S
C2430 H2442 0.956 . S
C2430 H2443 0.961 . S
C2430 H2444 0.961 . S
C2431 C2428 1.539 . S
C2431 H2445 0.958 . S
C2431 H2446 0.961 . S
C2431 H2447 0.960 . S
H2432 C2416 0.931 . S
H2433 C2421 0.929 . S
H2434 C2422 0.960 . S
H2435 C2422 0.962 . S
H2436 C2422 0.960 . S
H2437 C2423 0.961 . S
H2438 C2423 0.961 . S
H2439 C2423 0.961 . S
H2440 C2424 0.931 . S
H2441 C2429 0.930 . S
H2442 C2430 0.956 . S
H2443 C2430 0.961 . S
H2444 C2430 0.961 . S
H2445 C2431 0.958 . S
H2446 C2431 0.961 . S
H2447 C2431 0.960 . S
C2448 C2449 1.391 . S
C2448 C2450 1.394 . S
C2448 H2464 0.931 . S
C2449 C2448 1.391 . S
C2449 C2453 1.376 . S
C2450 C2448 1.394 . S
C2450 C2451 1.369 . S
C2450 C2454 1.531 . S
C2451 C2450 1.369 . S
C2451 C2452 1.410 . S
C2451 C2459 1.503 . S
C2452 C2451 1.410 . S
C2452 C2453 1.392 . S
C2452 C2455 1.511 . S
C2453 C2449 1.376 . S
C2453 C2452 1.392 . S
C2453 H2465 0.929 . S
C2454 C2450 1.531 . S
C2454 H2466 0.960 . S
C2454 H2467 0.962 . S
C2454 H2468 0.960 . S
C2455 C2452 1.511 . S
C2455 H2469 0.961 . S
C2455 H2470 0.961 . S
C2455 H2471 0.961 . S
C2456 C2457 1.370 . S
C2456 C2458 1.363 . S
C2456 H2472 0.931 . S
C2457 C2456 1.370 . S
C2457 C2461 1.408 . S
C2458 C2456 1.363 . S
C2458 C2459 1.370 . S
C2458 C2462 1.524 . S
C2459 C2451 1.503 . S
C2459 C2458 1.370 . S
C2459 C2460 1.403 . S
C2460 C2459 1.403 . S
C2460 C2461 1.404 . S
C2460 C2463 1.539 . S
C2461 C2457 1.408 . S
C2461 C2460 1.404 . S
C2461 H2473 0.930 . S
C2462 C2458 1.524 . S
C2462 H2474 0.956 . S
C2462 H2475 0.961 . S
C2462 H2476 0.961 . S
C2463 C2460 1.539 . S
C2463 H2477 0.958 . S
C2463 H2478 0.961 . S
C2463 H2479 0.960 . S
H2464 C2448 0.931 . S
H2465 C2453 0.929 . S
H2466 C2454 0.960 . S
H2467 C2454 0.962 . S
H2468 C2454 0.960 . S
H2469 C2455 0.961 . S
H2470 C2455 0.961 . S
H2471 C2455 0.961 . S
H2472 C2456 0.931 . S
H2473 C2461 0.930 . S
H2474 C2462 0.956 . S
H2475 C2462 0.961 . S
H2476 C2462 0.961 . S
H2477 C2463 0.958 . S
H2478 C2463 0.961 . S
H2479 C2463 0.960 . S
C2480 C2481 1.391 . S
C2480 C2482 1.394 . S
C2480 H2496 0.931 . S
C2481 C2480 1.391 . S
C2481 C2485 1.376 . S
C2482 C2480 1.394 . S
C2482 C2483 1.369 . S
C2482 C2486 1.531 . S
C2483 C2482 1.369 . S
C2483 C2484 1.410 . S
C2483 C2491 1.503 . S
C2484 C2483 1.410 . S
C2484 C2485 1.392 . S
C2484 C2487 1.511 . S
C2485 C2481 1.376 . S
C2485 C2484 1.392 . S
C2485 H2497 0.929 . S
C2486 C2482 1.531 . S
C2486 H2498 0.960 . S
C2486 H2499 0.962 . S
C2486 H2500 0.960 . S
C2487 C2484 1.511 . S
C2487 H2501 0.961 . S
C2487 H2502 0.961 . S
C2487 H2503 0.961 . S
C2488 C2489 1.370 . S
C2488 C2490 1.363 . S
C2488 H2504 0.931 . S
C2489 C2488 1.370 . S
C2489 C2493 1.408 . S
C2490 C2488 1.363 . S
C2490 C2491 1.370 . S
C2490 C2494 1.524 . S
C2491 C2483 1.503 . S
C2491 C2490 1.370 . S
C2491 C2492 1.403 . S
C2492 C2491 1.403 . S
C2492 C2493 1.404 . S
C2492 C2495 1.539 . S
C2493 C2489 1.408 . S
C2493 C2492 1.404 . S
C2493 H2505 0.930 . S
C2494 C2490 1.524 . S
C2494 H2506 0.956 . S
C2494 H2507 0.961 . S
C2494 H2508 0.961 . S
C2495 C2492 1.539 . S
C2495 H2509 0.958 . S
C2495 H2510 0.961 . S
C2495 H2511 0.960 . S
H2496 C2480 0.931 . S
H2497 C2485 0.929 . S
H2498 C2486 0.960 . S
H2499 C2486 0.962 . S
H2500 C2486 0.960 . S
H2501 C2487 0.961 . S
H2502 C2487 0.961 . S
H2503 C2487 0.961 . S
H2504 C2488 0.931 . S
H2505 C2493 0.930 . S
H2506 C2494 0.956 . S
H2507 C2494 0.961 . S
H2508 C2494 0.961 . S
H2509 C2495 0.958 . S
H2510 C2495 0.961 . S
H2511 C2495 0.960 . S
C2512 C2513 1.391 . S
C2512 C2514 1.394 . S
C2512 H2528 0.931 . S
C2513 C2512 1.391 . S
C2513 C2517 1.376 . S
C2514 C2512 1.394 . S
C2514 C2515 1.369 . S
C2514 C2518 1.531 . S
C2515 C2514 1.369 . S
C2515 C2516 1.410 . S
C2515 C2523 1.503 . S
C2516 C2515 1.410 . S
C2516 C2517 1.392 . S
C2516 C2519 1.511 . S
C2517 C2513 1.376 . S
C2517 C2516 1.392 . S
C2517 H2529 0.929 . S
C2518 C2514 1.531 . S
C2518 H2530 0.960 . S
C2518 H2531 0.962 . S
C2518 H2532 0.960 . S
C2519 C2516 1.511 . S
C2519 H2533 0.961 . S
C2519 H2534 0.961 . S
C2519 H2535 0.961 . S
C2520 C2521 1.370 . S
C2520 C2522 1.363 . S
C2520 H2536 0.931 . S
C2521 C2520 1.370 . S
C2521 C2525 1.408 . S
C2522 C2520 1.363 . S
C2522 C2523 1.370 . S
C2522 C2526 1.524 . S
C2523 C2515 1.503 . S
C2523 C2522 1.370 . S
C2523 C2524 1.403 . S
C2524 C2523 1.403 . S
C2524 C2525 1.404 . S
C2524 C2527 1.539 . S
C2525 C2521 1.408 . S
C2525 C2524 1.404 . S
C2525 H2537 0.930 . S
C2526 C2522 1.524 . S
C2526 H2538 0.956 . S
C2526 H2539 0.961 . S
C2526 H2540 0.961 . S
C2527 C2524 1.539 . S
C2527 H2541 0.958 . S
C2527 H2542 0.961 . S
C2527 H2543 0.960 . S
H2528 C2512 0.931 . S
H2529 C2517 0.929 . S
H2530 C2518 0.960 . S
H2531 C2518 0.962 . S
H2532 C2518 0.960 . S
H2533 C2519 0.961 . S
H2534 C2519 0.961 . S
H2535 C2519 0.961 . S
H2536 C2520 0.931 . S
H2537 C2525 0.930 . S
H2538 C2526 0.956 . S
H2539 C2526 0.961 . S
H2540 C2526 0.961 . S
H2541 C2527 0.958 . S
H2542 C2527 0.961 . S
H2543 C2527 0.960 . S
C2544 C2545 1.391 . S
C2544 C2546 1.394 . S
C2544 H2560 0.931 . S
C2545 C2544 1.391 . S
C2545 C2549 1.376 . S
C2546 C2544 1.394 . S
C2546 C2547 1.369 . S
C2546 C2550 1.531 . S
C2547 C2546 1.369 . S
C2547 C2548 1.410 . S
C2547 C2555 1.503 . S
C2548 C2547 1.410 . S
C2548 C2549 1.392 . S
C2548 C2551 1.511 . S
C2549 C2545 1.376 . S
C2549 C2548 1.392 . S
C2549 H2561 0.929 . S
C2550 C2546 1.531 . S
C2550 H2562 0.960 . S
C2550 H2563 0.962 . S
C2550 H2564 0.960 . S
C2551 C2548 1.511 . S
C2551 H2565 0.961 . S
C2551 H2566 0.961 . S
C2551 H2567 0.961 . S
C2552 C2553 1.370 . S
C2552 C2554 1.363 . S
C2552 H2568 0.931 . S
C2553 C2552 1.370 . S
C2553 C2557 1.408 . S
C2554 C2552 1.363 . S
C2554 C2555 1.370 . S
C2554 C2558 1.524 . S
C2555 C2547 1.503 . S
C2555 C2554 1.370 . S
C2555 C2556 1.403 . S
C2556 C2555 1.403 . S
C2556 C2557 1.404 . S
C2556 C2559 1.539 . S
C2557 C2553 1.408 . S
C2557 C2556 1.404 . S
C2557 H2569 0.930 . S
C2558 C2554 1.524 . S
C2558 H2570 0.956 . S
C2558 H2571 0.961 . S
C2558 H2572 0.961 . S
C2559 C2556 1.539 . S
C2559 H2573 0.958 . S
C2559 H2574 0.961 . S
C2559 H2575 0.960 . S
H2560 C2544 0.931 . S
H2561 C2549 0.929 . S
H2562 C2550 0.960 . S
H2563 C2550 0.962 . S
H2564 C2550 0.960 . S
H2565 C2551 0.961 . S
H2566 C2551 0.961 . S
H2567 C2551 0.961 . S
H2568 C2552 0.931 . S
H2569 C2557 0.930 . S
H2570 C2558 0.956 . S
H2571 C2558 0.961 . S
H2572 C2558 0.961 . S
H2573 C2559 0.958 . S
H2574 C2559 0.961 . S
H2575 C2559 0.960 . S
C2576 C2577 1.391 . S
C2576 C2578 1.394 . S
C2576 H2592 0.931 1_455 S
C2577 C2576 1.391 . S
C2577 C2581 1.376 . S
C2578 C2576 1.394 . S
C2578 C2579 1.369 . S
C2578 C2582 1.531 1_455 S
C2579 C2578 1.369 . S
C2579 C2580 1.410 . S
C2579 C2587 1.503 . S
C2580 C2579 1.410 . S
C2580 C2581 1.392 . S
C2580 C2583 1.511 . S
C2581 C2577 1.376 . S
C2581 C2580 1.392 . S
C2581 H2593 0.929 . S
C2582 C2578 1.531 1_655 S
C2582 H2594 0.960 . S
C2582 H2595 0.962 . S
C2582 H2596 0.960 . S
C2583 C2580 1.511 . S
C2583 H2597 0.961 . S
C2583 H2598 0.961 . S
C2583 H2599 0.961 . S
C2584 C2585 1.370 . S
C2584 C2586 1.363 . S
C2584 H2600 0.931 . S
C2585 C2584 1.370 . S
C2585 C2589 1.408 1_556 S
C2586 C2584 1.363 . S
C2586 C2587 1.370 . S
C2586 C2590 1.524 . S
C2587 C2579 1.503 . S
C2587 C2586 1.370 . S
C2587 C2588 1.403 1_556 S
C2588 C2587 1.403 1_554 S
C2588 C2589 1.404 . S
C2588 C2591 1.539 . S
C2589 C2585 1.408 1_554 S
C2589 C2588 1.404 . S
C2589 H2601 0.930 . S
C2590 C2586 1.524 . S
C2590 H2602 0.956 . S
C2590 H2603 0.961 . S
C2590 H2604 0.961 . S
C2591 C2588 1.539 . S
C2591 H2605 0.958 . S
C2591 H2606 0.961 . S
C2591 H2607 0.960 . S
H2592 C2576 0.931 1_655 S
H2593 C2581 0.929 . S
H2594 C2582 0.960 . S
H2595 C2582 0.962 . S
H2596 C2582 0.960 . S
H2597 C2583 0.961 . S
H2598 C2583 0.961 . S
H2599 C2583 0.961 . S
H2600 C2584 0.931 . S
H2601 C2589 0.930 . S
H2602 C2590 0.956 . S
H2603 C2590 0.961 . S
H2604 C2590 0.961 . S
H2605 C2591 0.958 . S
H2606 C2591 0.961 . S
H2607 C2591 0.960 . S
C2608 C2609 1.391 . S
C2608 C2610 1.394 1_455 S
C2608 H2624 0.931 . S
C2609 C2608 1.391 . S
C2609 C2613 1.376 . S
C2610 C2608 1.394 1_655 S
C2610 C2611 1.369 . S
C2610 C2614 1.531 . S
C2611 C2610 1.369 . S
C2611 C2612 1.410 1_655 S
C2611 C2619 1.503 . S
C2612 C2611 1.410 1_455 S
C2612 C2613 1.392 . S
C2612 C2615 1.511 . S
C2613 C2609 1.376 . S
C2613 C2612 1.392 . S
C2613 H2625 0.929 . S
C2614 C2610 1.531 . S
C2614 H2626 0.960 . S
C2614 H2627 0.962 . S
C2614 H2628 0.960 . S
C2615 C2612 1.511 . S
C2615 H2629 0.961 . S
C2615 H2630 0.961 1_455 S
C2615 H2631 0.961 . S
C2616 C2617 1.370 . S
C2616 C2618 1.363 . S
C2616 H2632 0.931 . S
C2617 C2616 1.370 . S
C2617 C2621 1.408 . S
C2618 C2616 1.363 . S
C2618 C2619 1.370 . S
C2618 C2622 1.524 . S
C2619 C2611 1.503 . S
C2619 C2618 1.370 . S
C2619 C2620 1.403 . S
C2620 C2619 1.403 . S
C2620 C2621 1.404 . S
C2620 C2623 1.539 . S
C2621 C2617 1.408 . S
C2621 C2620 1.404 . S
C2621 H2633 0.930 . S
C2622 C2618 1.524 . S
C2622 H2634 0.956 . S
C2622 H2635 0.961 . S
C2622 H2636 0.961 . S
C2623 C2620 1.539 . S
C2623 H2637 0.958 . S
C2623 H2638 0.961 . S
C2623 H2639 0.960 . S
H2624 C2608 0.931 . S
H2625 C2613 0.929 . S
H2626 C2614 0.960 . S
H2627 C2614 0.962 . S
H2628 C2614 0.960 . S
H2629 C2615 0.961 . S
H2630 C2615 0.961 1_655 S
H2631 C2615 0.961 . S
H2632 C2616 0.931 . S
H2633 C2621 0.930 . S
H2634 C2622 0.956 . S
H2635 C2622 0.961 . S
H2636 C2622 0.961 . S
H2637 C2623 0.958 . S
H2638 C2623 0.961 . S
H2639 C2623 0.960 . S
C2640 C2641 1.391 . S
C2640 C2642 1.394 . S
C2640 H2656 0.931 . S
C2641 C2640 1.391 . S
C2641 C2645 1.376 . S
C2642 C2640 1.394 . S
C2642 C2643 1.369 . S
C2642 C2646 1.531 . S
C2643 C2642 1.369 . S
C2643 C2644 1.410 . S
C2643 C2651 1.503 . S
C2644 C2643 1.410 . S
C2644 C2645 1.392 . S
C2644 C2647 1.511 . S
C2645 C2641 1.376 . S
C2645 C2644 1.392 . S
C2645 H2657 0.929 . S
C2646 C2642 1.531 . S
C2646 H2658 0.960 . S
C2646 H2659 0.962 . S
C2646 H2660 0.960 . S
C2647 C2644 1.511 . S
C2647 H2661 0.961 . S
C2647 H2662 0.961 . S
C2647 H2663 0.961 . S
C2648 C2649 1.370 . S
C2648 C2650 1.363 . S
C2648 H2664 0.931 . S
C2649 C2648 1.370 . S
C2649 C2653 1.408 . S
C2650 C2648 1.363 . S
C2650 C2651 1.370 . S
C2650 C2654 1.524 . S
C2651 C2643 1.503 . S
C2651 C2650 1.370 . S
C2651 C2652 1.403 . S
C2652 C2651 1.403 . S
C2652 C2653 1.404 . S
C2652 C2655 1.539 . S
C2653 C2649 1.408 . S
C2653 C2652 1.404 . S
C2653 H2665 0.930 . S
C2654 C2650 1.524 . S
C2654 H2666 0.956 . S
C2654 H2667 0.961 . S
C2654 H2668 0.961 . S
C2655 C2652 1.539 . S
C2655 H2669 0.958 . S
C2655 H2670 0.961 . S
C2655 H2671 0.960 . S
H2656 C2640 0.931 . S
H2657 C2645 0.929 . S
H2658 C2646 0.960 . S
H2659 C2646 0.962 . S
H2660 C2646 0.960 . S
H2661 C2647 0.961 . S
H2662 C2647 0.961 . S
H2663 C2647 0.961 . S
H2664 C2648 0.931 . S
H2665 C2653 0.930 . S
H2666 C2654 0.956 . S
H2667 C2654 0.961 . S
H2668 C2654 0.961 . S
H2669 C2655 0.958 . S
H2670 C2655 0.961 . S
H2671 C2655 0.960 . S
C2672 C2673 1.391 . S
C2672 C2674 1.394 . S
C2672 H2688 0.931 . S
C2673 C2672 1.391 . S
C2673 C2677 1.376 . S
C2674 C2672 1.394 . S
C2674 C2675 1.369 . S
C2674 C2678 1.531 1_455 S
C2675 C2674 1.369 . S
C2675 C2676 1.410 . S
C2675 C2683 1.503 1_455 S
C2676 C2675 1.410 . S
C2676 C2677 1.392 . S
C2676 C2679 1.511 . S
C2677 C2673 1.376 . S
C2677 C2676 1.392 . S
C2677 H2689 0.929 . S
C2678 C2674 1.531 1_655 S
C2678 H2690 0.960 . S
C2678 H2691 0.962 . S
C2678 H2692 0.960 . S
C2679 C2676 1.511 . S
C2679 H2693 0.961 . S
C2679 H2694 0.961 . S
C2679 H2695 0.961 . S
C2680 C2681 1.370 . S
C2680 C2682 1.363 . S
C2680 H2696 0.931 . S
C2681 C2680 1.370 . S
C2681 C2685 1.408 . S
C2682 C2680 1.363 . S
C2682 C2683 1.370 . S
C2682 C2686 1.524 . S
C2683 C2675 1.503 1_655 S
C2683 C2682 1.370 . S
C2683 C2684 1.403 . S
C2684 C2683 1.403 . S
C2684 C2685 1.404 . S
C2684 C2687 1.539 . S
C2685 C2681 1.408 . S
C2685 C2684 1.404 . S
C2685 H2697 0.930 . S
C2686 C2682 1.524 . S
C2686 H2698 0.956 . S
C2686 H2699 0.961 1_655 S
C2686 H2700 0.961 . S
C2687 C2684 1.539 . S
C2687 H2701 0.958 . S
C2687 H2702 0.961 . S
C2687 H2703 0.960 . S
H2688 C2672 0.931 . S
H2689 C2677 0.929 . S
H2690 C2678 0.960 . S
H2691 C2678 0.962 . S
H2692 C2678 0.960 . S
H2693 C2679 0.961 . S
H2694 C2679 0.961 . S
H2695 C2679 0.961 . S
H2696 C2680 0.931 . S
H2697 C2685 0.930 . S
H2698 C2686 0.956 . S
H2699 C2686 0.961 1_455 S
H2700 C2686 0.961 . S
H2701 C2687 0.958 . S
H2702 C2687 0.961 . S
H2703 C2687 0.960 . S
C2704 C2705 1.391 . S
C2704 C2706 1.394 . S
C2704 H2720 0.931 . S
C2705 C2704 1.391 . S
C2705 C2709 1.376 1_655 S
C2706 C2704 1.394 . S
C2706 C2707 1.369 1_655 S
C2706 C2710 1.531 . S
C2707 C2706 1.369 1_455 S
C2707 C2708 1.410 . S
C2707 C2715 1.503 . S
C2708 C2707 1.410 . S
C2708 C2709 1.392 . S
C2708 C2711 1.511 . S
C2709 C2705 1.376 1_455 S
C2709 C2708 1.392 . S
C2709 H2721 0.929 . S
C2710 C2706 1.531 . S
C2710 H2722 0.960 . S
C2710 H2723 0.962 . S
C2710 H2724 0.960 . S
C2711 C2708 1.511 . S
C2711 H2725 0.961 . S
C2711 H2726 0.961 . S
C2711 H2727 0.961 . S
C2712 C2713 1.370 . S
C2712 C2714 1.363 . S
C2712 H2728 0.931 . S
C2713 C2712 1.370 . S
C2713 C2717 1.408 . S
C2714 C2712 1.363 . S
C2714 C2715 1.370 . S
C2714 C2718 1.524 . S
C2715 C2707 1.503 . S
C2715 C2714 1.370 . S
C2715 C2716 1.403 . S
C2716 C2715 1.403 . S
C2716 C2717 1.404 . S
C2716 C2719 1.539 . S
C2717 C2713 1.408 . S
C2717 C2716 1.404 . S
C2717 H2729 0.930 . S
C2718 C2714 1.524 . S
C2718 H2730 0.956 1_455 S
C2718 H2731 0.961 . S
C2718 H2732 0.961 . S
C2719 C2716 1.539 . S
C2719 H2733 0.958 . S
C2719 H2734 0.961 . S
C2719 H2735 0.960 . S
H2720 C2704 0.931 . S
H2721 C2709 0.929 . S
H2722 C2710 0.960 . S
H2723 C2710 0.962 . S
H2724 C2710 0.960 . S
H2725 C2711 0.961 . S
H2726 C2711 0.961 . S
H2727 C2711 0.961 . S
H2728 C2712 0.931 . S
H2729 C2717 0.930 . S
H2730 C2718 0.956 1_655 S
H2731 C2718 0.961 . S
H2732 C2718 0.961 . S
H2733 C2719 0.958 . S
H2734 C2719 0.961 . S
H2735 C2719 0.960 . S
C2736 C2737 1.391 . S
C2736 C2738 1.394 . S
C2736 H2752 0.931 . S
C2737 C2736 1.391 . S
C2737 C2741 1.376 . S
C2738 C2736 1.394 . S
C2738 C2739 1.369 . S
C2738 C2742 1.531 . S
C2739 C2738 1.369 . S
C2739 C2740 1.410 . S
C2739 C2747 1.503 . S
C2740 C2739 1.410 . S
C2740 C2741 1.392 . S
C2740 C2743 1.511 . S
C2741 C2737 1.376 . S
C2741 C2740 1.392 . S
C2741 H2753 0.929 . S
C2742 C2738 1.531 . S
C2742 H2754 0.960 . S
C2742 H2755 0.962 . S
C2742 H2756 0.960 . S
C2743 C2740 1.511 . S
C2743 H2757 0.961 . S
C2743 H2758 0.961 . S
C2743 H2759 0.961 . S
C2744 C2745 1.370 . S
C2744 C2746 1.363 . S
C2744 H2760 0.931 . S
C2745 C2744 1.370 . S
C2745 C2749 1.408 . S
C2746 C2744 1.363 . S
C2746 C2747 1.370 . S
C2746 C2750 1.524 . S
C2747 C2739 1.503 . S
C2747 C2746 1.370 . S
C2747 C2748 1.403 . S
C2748 C2747 1.403 . S
C2748 C2749 1.404 . S
C2748 C2751 1.539 . S
C2749 C2745 1.408 . S
C2749 C2748 1.404 . S
C2749 H2761 0.930 . S
C2750 C2746 1.524 . S
C2750 H2762 0.956 . S
C2750 H2763 0.961 . S
C2750 H2764 0.961 . S
C2751 C2748 1.539 . S
C2751 H2765 0.958 . S
C2751 H2766 0.961 . S
C2751 H2767 0.960 . S
H2752 C2736 0.931 . S
H2753 C2741 0.929 . S
H2754 C2742 0.960 . S
H2755 C2742 0.962 . S
H2756 C2742 0.960 . S
H2757 C2743 0.961 . S
H2758 C2743 0.961 . S
H2759 C2743 0.961 . S
H2760 C2744 0.931 . S
H2761 C2749 0.930 . S
H2762 C2750 0.956 . S
H2763 C2750 0.961 . S
H2764 C2750 0.961 . S
H2765 C2751 0.958 . S
H2766 C2751 0.961 . S
H2767 C2751 0.960 . S
C2768 C2769 1.391 . S
C2768 C2770 1.394 . S
C2768 H2784 0.931 . S
C2769 C2768 1.391 . S
C2769 C2773 1.376 . S
C2770 C2768 1.394 . S
C2770 C2771 1.369 . S
C2770 C2774 1.531 . S
C2771 C2770 1.369 . S
C2771 C2772 1.410 . S
C2771 C2779 1.503 . S
C2772 C2771 1.410 . S
C2772 C2773 1.392 . S
C2772 C2775 1.511 . S
C2773 C2769 1.376 . S
C2773 C2772 1.392 . S
C2773 H2785 0.929 . S
C2774 C2770 1.531 . S
C2774 H2786 0.960 . S
C2774 H2787 0.962 . S
C2774 H2788 0.960 . S
C2775 C2772 1.511 . S
C2775 H2789 0.961 . S
C2775 H2790 0.961 . S
C2775 H2791 0.961 . S
C2776 C2777 1.370 . S
C2776 C2778 1.363 . S
C2776 H2792 0.931 . S
C2777 C2776 1.370 . S
C2777 C2781 1.408 . S
C2778 C2776 1.363 . S
C2778 C2779 1.370 . S
C2778 C2782 1.524 . S
C2779 C2771 1.503 . S
C2779 C2778 1.370 . S
C2779 C2780 1.403 . S
C2780 C2779 1.403 . S
C2780 C2781 1.404 . S
C2780 C2783 1.539 . S
C2781 C2777 1.408 . S
C2781 C2780 1.404 . S
C2781 H2793 0.930 . S
C2782 C2778 1.524 . S
C2782 H2794 0.956 . S
C2782 H2795 0.961 . S
C2782 H2796 0.961 . S
C2783 C2780 1.539 . S
C2783 H2797 0.958 . S
C2783 H2798 0.961 . S
C2783 H2799 0.960 . S
H2784 C2768 0.931 . S
H2785 C2773 0.929 . S
H2786 C2774 0.960 . S
H2787 C2774 0.962 . S
H2788 C2774 0.960 . S
H2789 C2775 0.961 . S
H2790 C2775 0.961 . S
H2791 C2775 0.961 . S
H2792 C2776 0.931 . S
H2793 C2781 0.930 . S
H2794 C2782 0.956 . S
H2795 C2782 0.961 . S
H2796 C2782 0.961 . S
H2797 C2783 0.958 . S
H2798 C2783 0.961 . S
H2799 C2783 0.960 . S
C2800 C2801 1.391 . S
C2800 C2802 1.394 . S
C2800 H2816 0.931 . S
C2801 C2800 1.391 . S
C2801 C2805 1.376 . S
C2802 C2800 1.394 . S
C2802 C2803 1.369 . S
C2802 C2806 1.531 . S
C2803 C2802 1.369 . S
C2803 C2804 1.410 . S
C2803 C2811 1.503 . S
C2804 C2803 1.410 . S
C2804 C2805 1.392 . S
C2804 C2807 1.511 . S
C2805 C2801 1.376 . S
C2805 C2804 1.392 . S
C2805 H2817 0.929 . S
C2806 C2802 1.531 . S
C2806 H2818 0.960 . S
C2806 H2819 0.962 . S
C2806 H2820 0.960 . S
C2807 C2804 1.511 . S
C2807 H2821 0.961 . S
C2807 H2822 0.961 . S
C2807 H2823 0.961 . S
C2808 C2809 1.370 . S
C2808 C2810 1.363 . S
C2808 H2824 0.931 . S
C2809 C2808 1.370 . S
C2809 C2813 1.408 . S
C2810 C2808 1.363 . S
C2810 C2811 1.370 . S
C2810 C2814 1.524 . S
C2811 C2803 1.503 . S
C2811 C2810 1.370 . S
C2811 C2812 1.403 . S
C2812 C2811 1.403 . S
C2812 C2813 1.404 . S
C2812 C2815 1.539 . S
C2813 C2809 1.408 . S
C2813 C2812 1.404 . S
C2813 H2825 0.930 . S
C2814 C2810 1.524 . S
C2814 H2826 0.956 . S
C2814 H2827 0.961 . S
C2814 H2828 0.961 . S
C2815 C2812 1.539 . S
C2815 H2829 0.958 . S
C2815 H2830 0.961 . S
C2815 H2831 0.960 . S
H2816 C2800 0.931 . S
H2817 C2805 0.929 . S
H2818 C2806 0.960 . S
H2819 C2806 0.962 . S
H2820 C2806 0.960 . S
H2821 C2807 0.961 . S
H2822 C2807 0.961 . S
H2823 C2807 0.961 . S
H2824 C2808 0.931 . S
H2825 C2813 0.930 . S
H2826 C2814 0.956 . S
H2827 C2814 0.961 . S
H2828 C2814 0.961 . S
H2829 C2815 0.958 . S
H2830 C2815 0.961 . S
H2831 C2815 0.960 . S
C2832 C2833 1.391 . S
C2832 C2834 1.394 . S
C2832 H2848 0.931 . S
C2833 C2832 1.391 . S
C2833 C2837 1.376 . S
C2834 C2832 1.394 . S
C2834 C2835 1.369 . S
C2834 C2838 1.531 . S
C2835 C2834 1.369 . S
C2835 C2836 1.410 . S
C2835 C2843 1.503 . S
C2836 C2835 1.410 . S
C2836 C2837 1.392 . S
C2836 C2839 1.511 . S
C2837 C2833 1.376 . S
C2837 C2836 1.392 . S
C2837 H2849 0.929 . S
C2838 C2834 1.531 . S
C2838 H2850 0.960 . S
C2838 H2851 0.962 . S
C2838 H2852 0.960 . S
C2839 C2836 1.511 . S
C2839 H2853 0.961 . S
C2839 H2854 0.961 . S
C2839 H2855 0.961 . S
C2840 C2841 1.370 . S
C2840 C2842 1.363 . S
C2840 H2856 0.931 . S
C2841 C2840 1.370 . S
C2841 C2845 1.408 . S
C2842 C2840 1.363 . S
C2842 C2843 1.370 . S
C2842 C2846 1.524 . S
C2843 C2835 1.503 . S
C2843 C2842 1.370 . S
C2843 C2844 1.403 . S
C2844 C2843 1.403 . S
C2844 C2845 1.404 . S
C2844 C2847 1.539 . S
C2845 C2841 1.408 . S
C2845 C2844 1.404 . S
C2845 H2857 0.930 . S
C2846 C2842 1.524 . S
C2846 H2858 0.956 . S
C2846 H2859 0.961 . S
C2846 H2860 0.961 . S
C2847 C2844 1.539 . S
C2847 H2861 0.958 . S
C2847 H2862 0.961 . S
C2847 H2863 0.960 . S
H2848 C2832 0.931 . S
H2849 C2837 0.929 . S
H2850 C2838 0.960 . S
H2851 C2838 0.962 . S
H2852 C2838 0.960 . S
H2853 C2839 0.961 . S
H2854 C2839 0.961 . S
H2855 C2839 0.961 . S
H2856 C2840 0.931 . S
H2857 C2845 0.930 . S
H2858 C2846 0.956 . S
H2859 C2846 0.961 . S
H2860 C2846 0.961 . S
H2861 C2847 0.958 . S
H2862 C2847 0.961 . S
H2863 C2847 0.960 . S
C2864 C2865 1.391 . S
C2864 C2866 1.394 . S
C2864 H2880 0.931 . S
C2865 C2864 1.391 . S
C2865 C2869 1.376 . S
C2866 C2864 1.394 . S
C2866 C2867 1.369 . S
C2866 C2870 1.531 . S
C2867 C2866 1.369 . S
C2867 C2868 1.410 . S
C2867 C2875 1.503 . S
C2868 C2867 1.410 . S
C2868 C2869 1.392 . S
C2868 C2871 1.511 . S
C2869 C2865 1.376 . S
C2869 C2868 1.392 . S
C2869 H2881 0.929 . S
C2870 C2866 1.531 . S
C2870 H2882 0.960 . S
C2870 H2883 0.962 . S
C2870 H2884 0.960 . S
C2871 C2868 1.511 . S
C2871 H2885 0.961 . S
C2871 H2886 0.961 . S
C2871 H2887 0.961 . S
C2872 C2873 1.370 . S
C2872 C2874 1.363 . S
C2872 H2888 0.931 . S
C2873 C2872 1.370 . S
C2873 C2877 1.408 . S
C2874 C2872 1.363 . S
C2874 C2875 1.370 . S
C2874 C2878 1.524 . S
C2875 C2867 1.503 . S
C2875 C2874 1.370 . S
C2875 C2876 1.403 . S
C2876 C2875 1.403 . S
C2876 C2877 1.404 . S
C2876 C2879 1.539 . S
C2877 C2873 1.408 . S
C2877 C2876 1.404 . S
C2877 H2889 0.930 . S
C2878 C2874 1.524 . S
C2878 H2890 0.956 . S
C2878 H2891 0.961 . S
C2878 H2892 0.961 . S
C2879 C2876 1.539 . S
C2879 H2893 0.958 . S
C2879 H2894 0.961 . S
C2879 H2895 0.960 . S
H2880 C2864 0.931 . S
H2881 C2869 0.929 . S
H2882 C2870 0.960 . S
H2883 C2870 0.962 . S
H2884 C2870 0.960 . S
H2885 C2871 0.961 . S
H2886 C2871 0.961 . S
H2887 C2871 0.961 . S
H2888 C2872 0.931 . S
H2889 C2877 0.930 . S
H2890 C2878 0.956 . S
H2891 C2878 0.961 . S
H2892 C2878 0.961 . S
H2893 C2879 0.958 . S
H2894 C2879 0.961 . S
H2895 C2879 0.960 . S
C2896 C2897 1.391 . S
C2896 C2898 1.394 . S
C2896 H2912 0.931 . S
C2897 C2896 1.391 . S
C2897 C2901 1.376 . S
C2898 C2896 1.394 . S
C2898 C2899 1.369 . S
C2898 C2902 1.531 . S
C2899 C2898 1.369 . S
C2899 C2900 1.410 . S
C2899 C2907 1.503 . S
C2900 C2899 1.410 . S
C2900 C2901 1.392 . S
C2900 C2903 1.511 . S
C2901 C2897 1.376 . S
C2901 C2900 1.392 . S
C2901 H2913 0.929 . S
C2902 C2898 1.531 . S
C2902 H2914 0.960 . S
C2902 H2915 0.962 . S
C2902 H2916 0.960 . S
C2903 C2900 1.511 . S
C2903 H2917 0.961 . S
C2903 H2918 0.961 . S
C2903 H2919 0.961 . S
C2904 C2905 1.370 . S
C2904 C2906 1.363 . S
C2904 H2920 0.931 . S
C2905 C2904 1.370 . S
C2905 C2909 1.408 . S
C2906 C2904 1.363 . S
C2906 C2907 1.370 . S
C2906 C2910 1.524 . S
C2907 C2899 1.503 . S
C2907 C2906 1.370 . S
C2907 C2908 1.403 . S
C2908 C2907 1.403 . S
C2908 C2909 1.404 . S
C2908 C2911 1.539 . S
C2909 C2905 1.408 . S
C2909 C2908 1.404 . S
C2909 H2921 0.930 . S
C2910 C2906 1.524 . S
C2910 H2922 0.956 . S
C2910 H2923 0.961 . S
C2910 H2924 0.961 . S
C2911 C2908 1.539 . S
C2911 H2925 0.958 . S
C2911 H2926 0.961 . S
C2911 H2927 0.960 . S
H2912 C2896 0.931 . S
H2913 C2901 0.929 . S
H2914 C2902 0.960 . S
H2915 C2902 0.962 . S
H2916 C2902 0.960 . S
H2917 C2903 0.961 . S
H2918 C2903 0.961 . S
H2919 C2903 0.961 . S
H2920 C2904 0.931 . S
H2921 C2909 0.930 . S
H2922 C2910 0.956 . S
H2923 C2910 0.961 . S
H2924 C2910 0.961 . S
H2925 C2911 0.958 . S
H2926 C2911 0.961 . S
H2927 C2911 0.960 . S
C2928 C2929 1.391 . S
C2928 C2930 1.394 . S
C2928 H2944 0.931 . S
C2929 C2928 1.391 . S
C2929 C2933 1.376 . S
C2930 C2928 1.394 . S
C2930 C2931 1.369 . S
C2930 C2934 1.531 . S
C2931 C2930 1.369 . S
C2931 C2932 1.410 . S
C2931 C2939 1.503 . S
C2932 C2931 1.410 . S
C2932 C2933 1.392 . S
C2932 C2935 1.511 . S
C2933 C2929 1.376 . S
C2933 C2932 1.392 . S
C2933 H2945 0.929 . S
C2934 C2930 1.531 . S
C2934 H2946 0.960 . S
C2934 H2947 0.962 . S
C2934 H2948 0.960 . S
C2935 C2932 1.511 . S
C2935 H2949 0.961 . S
C2935 H2950 0.961 . S
C2935 H2951 0.961 . S
C2936 C2937 1.370 . S
C2936 C2938 1.363 . S
C2936 H2952 0.931 . S
C2937 C2936 1.370 . S
C2937 C2941 1.408 . S
C2938 C2936 1.363 . S
C2938 C2939 1.370 . S
C2938 C2942 1.524 . S
C2939 C2931 1.503 . S
C2939 C2938 1.370 . S
C2939 C2940 1.403 . S
C2940 C2939 1.403 . S
C2940 C2941 1.404 . S
C2940 C2943 1.539 . S
C2941 C2937 1.408 . S
C2941 C2940 1.404 . S
C2941 H2953 0.930 . S
C2942 C2938 1.524 . S
C2942 H2954 0.956 . S
C2942 H2955 0.961 . S
C2942 H2956 0.961 . S
C2943 C2940 1.539 . S
C2943 H2957 0.958 . S
C2943 H2958 0.961 . S
C2943 H2959 0.960 . S
H2944 C2928 0.931 . S
H2945 C2933 0.929 . S
H2946 C2934 0.960 . S
H2947 C2934 0.962 . S
H2948 C2934 0.960 . S
H2949 C2935 0.961 . S
H2950 C2935 0.961 . S
H2951 C2935 0.961 . S
H2952 C2936 0.931 . S
H2953 C2941 0.930 . S
H2954 C2942 0.956 . S
H2955 C2942 0.961 . S
H2956 C2942 0.961 . S
H2957 C2943 0.958 . S
H2958 C2943 0.961 . S
H2959 C2943 0.960 . S
C2960 C2961 1.391 . S
C2960 C2962 1.394 . S
C2960 H2976 0.931 . S
C2961 C2960 1.391 . S
C2961 C2965 1.376 . S
C2962 C2960 1.394 . S
C2962 C2963 1.369 . S
C2962 C2966 1.531 . S
C2963 C2962 1.369 . S
C2963 C2964 1.410 . S
C2963 C2971 1.503 . S
C2964 C2963 1.410 . S
C2964 C2965 1.392 . S
C2964 C2967 1.511 . S
C2965 C2961 1.376 . S
C2965 C2964 1.392 . S
C2965 H2977 0.929 . S
C2966 C2962 1.531 . S
C2966 H2978 0.960 . S
C2966 H2979 0.962 . S
C2966 H2980 0.960 . S
C2967 C2964 1.511 . S
C2967 H2981 0.961 . S
C2967 H2982 0.961 . S
C2967 H2983 0.961 . S
C2968 C2969 1.370 . S
C2968 C2970 1.363 . S
C2968 H2984 0.931 . S
C2969 C2968 1.370 . S
C2969 C2973 1.408 . S
C2970 C2968 1.363 . S
C2970 C2971 1.370 . S
C2970 C2974 1.524 . S
C2971 C2963 1.503 . S
C2971 C2970 1.370 . S
C2971 C2972 1.403 . S
C2972 C2971 1.403 . S
C2972 C2973 1.404 . S
C2972 C2975 1.539 . S
C2973 C2969 1.408 . S
C2973 C2972 1.404 . S
C2973 H2985 0.930 . S
C2974 C2970 1.524 . S
C2974 H2986 0.956 . S
C2974 H2987 0.961 . S
C2974 H2988 0.961 . S
C2975 C2972 1.539 . S
C2975 H2989 0.958 . S
C2975 H2990 0.961 . S
C2975 H2991 0.960 . S
H2976 C2960 0.931 . S
H2977 C2965 0.929 . S
H2978 C2966 0.960 . S
H2979 C2966 0.962 . S
H2980 C2966 0.960 . S
H2981 C2967 0.961 . S
H2982 C2967 0.961 . S
H2983 C2967 0.961 . S
H2984 C2968 0.931 . S
H2985 C2973 0.930 . S
H2986 C2974 0.956 . S
H2987 C2974 0.961 . S
H2988 C2974 0.961 . S
H2989 C2975 0.958 . S
H2990 C2975 0.961 . S
H2991 C2975 0.960 . S
C2992 C2993 1.391 . S
C2992 C2994 1.394 . S
C2992 H3008 0.931 . S
C2993 C2992 1.391 . S
C2993 C2997 1.376 . S
C2994 C2992 1.394 . S
C2994 C2995 1.369 . S
C2994 C2998 1.531 . S
C2995 C2994 1.369 . S
C2995 C2996 1.410 . S
C2995 C3003 1.503 . S
C2996 C2995 1.410 . S
C2996 C2997 1.392 . S
C2996 C2999 1.511 . S
C2997 C2993 1.376 . S
C2997 C2996 1.392 . S
C2997 H3009 0.929 . S
C2998 C2994 1.531 . S
C2998 H3010 0.960 . S
C2998 H3011 0.962 . S
C2998 H3012 0.960 . S
C2999 C2996 1.511 . S
C2999 H3013 0.961 . S
C2999 H3014 0.961 . S
C2999 H3015 0.961 . S
C3000 C3001 1.370 . S
C3000 C3002 1.363 . S
C3000 H3016 0.931 . S
C3001 C3000 1.370 . S
C3001 C3005 1.408 . S
C3002 C3000 1.363 . S
C3002 C3003 1.370 . S
C3002 C3006 1.524 . S
C3003 C2995 1.503 . S
C3003 C3002 1.370 . S
C3003 C3004 1.403 . S
C3004 C3003 1.403 . S
C3004 C3005 1.404 . S
C3004 C3007 1.539 . S
C3005 C3001 1.408 . S
C3005 C3004 1.404 . S
C3005 H3017 0.930 . S
C3006 C3002 1.524 . S
C3006 H3018 0.956 . S
C3006 H3019 0.961 . S
C3006 H3020 0.961 . S
C3007 C3004 1.539 . S
C3007 H3021 0.958 . S
C3007 H3022 0.961 . S
C3007 H3023 0.960 . S
H3008 C2992 0.931 . S
H3009 C2997 0.929 . S
H3010 C2998 0.960 . S
H3011 C2998 0.962 . S
H3012 C2998 0.960 . S
H3013 C2999 0.961 . S
H3014 C2999 0.961 . S
H3015 C2999 0.961 . S
H3016 C3000 0.931 . S
H3017 C3005 0.930 . S
H3018 C3006 0.956 . S
H3019 C3006 0.961 . S
H3020 C3006 0.961 . S
H3021 C3007 0.958 . S
H3022 C3007 0.961 . S
H3023 C3007 0.960 . S
C3024 C3025 1.391 . S
C3024 C3026 1.394 . S
C3024 H3040 0.931 . S
C3025 C3024 1.391 . S
C3025 C3029 1.376 . S
C3026 C3024 1.394 . S
C3026 C3027 1.369 . S
C3026 C3030 1.531 . S
C3027 C3026 1.369 . S
C3027 C3028 1.410 . S
C3027 C3035 1.503 . S
C3028 C3027 1.410 . S
C3028 C3029 1.392 . S
C3028 C3031 1.511 . S
C3029 C3025 1.376 . S
C3029 C3028 1.392 . S
C3029 H3041 0.929 . S
C3030 C3026 1.531 . S
C3030 H3042 0.960 . S
C3030 H3043 0.962 . S
C3030 H3044 0.960 . S
C3031 C3028 1.511 . S
C3031 H3045 0.961 . S
C3031 H3046 0.961 . S
C3031 H3047 0.961 . S
C3032 C3033 1.370 . S
C3032 C3034 1.363 . S
C3032 H3048 0.931 . S
C3033 C3032 1.370 . S
C3033 C3037 1.408 . S
C3034 C3032 1.363 . S
C3034 C3035 1.370 . S
C3034 C3038 1.524 . S
C3035 C3027 1.503 . S
C3035 C3034 1.370 . S
C3035 C3036 1.403 . S
C3036 C3035 1.403 . S
C3036 C3037 1.404 . S
C3036 C3039 1.539 . S
C3037 C3033 1.408 . S
C3037 C3036 1.404 . S
C3037 H3049 0.930 . S
C3038 C3034 1.524 . S
C3038 H3050 0.956 . S
C3038 H3051 0.961 . S
C3038 H3052 0.961 . S
C3039 C3036 1.539 . S
C3039 H3053 0.958 . S
C3039 H3054 0.961 . S
C3039 H3055 0.960 . S
H3040 C3024 0.931 . S
H3041 C3029 0.929 . S
H3042 C3030 0.960 . S
H3043 C3030 0.962 . S
H3044 C3030 0.960 . S
H3045 C3031 0.961 . S
H3046 C3031 0.961 . S
H3047 C3031 0.961 . S
H3048 C3032 0.931 . S
H3049 C3037 0.930 . S
H3050 C3038 0.956 . S
H3051 C3038 0.961 . S
H3052 C3038 0.961 . S
H3053 C3039 0.958 . S
H3054 C3039 0.961 . S
H3055 C3039 0.960 . S
C3056 C3057 1.391 . S
C3056 C3058 1.394 . S
C3056 H3072 0.931 . S
C3057 C3056 1.391 . S
C3057 C3061 1.376 . S
C3058 C3056 1.394 . S
C3058 C3059 1.369 . S
C3058 C3062 1.531 . S
C3059 C3058 1.369 . S
C3059 C3060 1.410 . S
C3059 C3067 1.503 . S
C3060 C3059 1.410 . S
C3060 C3061 1.392 . S
C3060 C3063 1.511 . S
C3061 C3057 1.376 . S
C3061 C3060 1.392 . S
C3061 H3073 0.929 . S
C3062 C3058 1.531 . S
C3062 H3074 0.960 . S
C3062 H3075 0.962 . S
C3062 H3076 0.960 . S
C3063 C3060 1.511 . S
C3063 H3077 0.961 . S
C3063 H3078 0.961 . S
C3063 H3079 0.961 . S
C3064 C3065 1.370 . S
C3064 C3066 1.363 . S
C3064 H3080 0.931 . S
C3065 C3064 1.370 . S
C3065 C3069 1.408 . S
C3066 C3064 1.363 . S
C3066 C3067 1.370 . S
C3066 C3070 1.524 . S
C3067 C3059 1.503 . S
C3067 C3066 1.370 . S
C3067 C3068 1.403 . S
C3068 C3067 1.403 . S
C3068 C3069 1.404 . S
C3068 C3071 1.539 . S
C3069 C3065 1.408 . S
C3069 C3068 1.404 . S
C3069 H3081 0.930 . S
C3070 C3066 1.524 . S
C3070 H3082 0.956 . S
C3070 H3083 0.961 . S
C3070 H3084 0.961 . S
C3071 C3068 1.539 . S
C3071 H3085 0.958 . S
C3071 H3086 0.961 . S
C3071 H3087 0.960 . S
H3072 C3056 0.931 . S
H3073 C3061 0.929 . S
H3074 C3062 0.960 . S
H3075 C3062 0.962 . S
H3076 C3062 0.960 . S
H3077 C3063 0.961 . S
H3078 C3063 0.961 . S
H3079 C3063 0.961 . S
H3080 C3064 0.931 . S
H3081 C3069 0.930 . S
H3082 C3070 0.956 . S
H3083 C3070 0.961 . S
H3084 C3070 0.961 . S
H3085 C3071 0.958 . S
H3086 C3071 0.961 . S
H3087 C3071 0.960 . S
C3088 C3089 1.391 . S
C3088 C3090 1.394 . S
C3088 H3104 0.931 . S
C3089 C3088 1.391 . S
C3089 C3093 1.376 . S
C3090 C3088 1.394 . S
C3090 C3091 1.369 . S
C3090 C3094 1.531 . S
C3091 C3090 1.369 . S
C3091 C3092 1.410 . S
C3091 C3099 1.503 . S
C3092 C3091 1.410 . S
C3092 C3093 1.392 . S
C3092 C3095 1.511 . S
C3093 C3089 1.376 . S
C3093 C3092 1.392 . S
C3093 H3105 0.929 . S
C3094 C3090 1.531 . S
C3094 H3106 0.960 . S
C3094 H3107 0.962 . S
C3094 H3108 0.960 . S
C3095 C3092 1.511 . S
C3095 H3109 0.961 . S
C3095 H3110 0.961 . S
C3095 H3111 0.961 . S
C3096 C3097 1.370 . S
C3096 C3098 1.363 . S
C3096 H3112 0.931 . S
C3097 C3096 1.370 . S
C3097 C3101 1.408 . S
C3098 C3096 1.363 . S
C3098 C3099 1.370 . S
C3098 C3102 1.524 . S
C3099 C3091 1.503 . S
C3099 C3098 1.370 . S
C3099 C3100 1.403 . S
C3100 C3099 1.403 . S
C3100 C3101 1.404 . S
C3100 C3103 1.539 . S
C3101 C3097 1.408 . S
C3101 C3100 1.404 . S
C3101 H3113 0.930 . S
C3102 C3098 1.524 . S
C3102 H3114 0.956 . S
C3102 H3115 0.961 . S
C3102 H3116 0.961 . S
C3103 C3100 1.539 . S
C3103 H3117 0.958 . S
C3103 H3118 0.961 . S
C3103 H3119 0.960 . S
H3104 C3088 0.931 . S
H3105 C3093 0.929 . S
H3106 C3094 0.960 . S
H3107 C3094 0.962 . S
H3108 C3094 0.960 . S
H3109 C3095 0.961 . S
H3110 C3095 0.961 . S
H3111 C3095 0.961 . S
H3112 C3096 0.931 . S
H3113 C3101 0.930 . S
H3114 C3102 0.956 . S
H3115 C3102 0.961 . S
H3116 C3102 0.961 . S
H3117 C3103 0.958 . S
H3118 C3103 0.961 . S
H3119 C3103 0.960 . S
C3120 C3121 1.391 . S
C3120 C3122 1.394 . S
C3120 H3136 0.931 1_554 S
C3121 C3120 1.391 . S
C3121 C3125 1.376 . S
C3122 C3120 1.394 . S
C3122 C3123 1.369 . S
C3122 C3126 1.531 1_564 S
C3123 C3122 1.369 . S
C3123 C3124 1.410 . S
C3123 C3131 1.503 . S
C3124 C3123 1.410 . S
C3124 C3125 1.392 . S
C3124 C3127 1.511 . S
C3125 C3121 1.376 . S
C3125 C3124 1.392 . S
C3125 H3137 0.929 . S
C3126 C3122 1.531 1_546 S
C3126 H3138 0.960 . S
C3126 H3139 0.962 . S
C3126 H3140 0.960 . S
C3127 C3124 1.511 . S
C3127 H3141 0.961 . S
C3127 H3142 0.961 . S
C3127 H3143 0.961 . S
C3128 C3129 1.370 1_566 S
C3128 C3130 1.363 1_556 S
C3128 H3144 0.931 . S
C3129 C3128 1.370 1_544 S
C3129 C3133 1.408 . S
C3130 C3128 1.363 1_554 S
C3130 C3131 1.370 . S
C3130 C3134 1.524 1_554 S
C3131 C3123 1.503 . S
C3131 C3130 1.370 . S
C3131 C3132 1.403 1_565 S
C3132 C3131 1.403 1_545 S
C3132 C3133 1.404 . S
C3132 C3135 1.539 . S
C3133 C3129 1.408 . S
C3133 C3132 1.404 . S
C3133 H3145 0.930 . S
C3134 C3130 1.524 1_556 S
C3134 H3146 0.956 . S
C3134 H3147 0.961 . S
C3134 H3148 0.961 . S
C3135 C3132 1.539 . S
C3135 H3149 0.958 . S
C3135 H3150 0.961 . S
C3135 H3151 0.960 . S
H3136 C3120 0.931 1_556 S
H3137 C3125 0.929 . S
H3138 C3126 0.960 . S
H3139 C3126 0.962 . S
H3140 C3126 0.960 . S
H3141 C3127 0.961 . S
H3142 C3127 0.961 . S
H3143 C3127 0.961 . S
H3144 C3128 0.931 . S
H3145 C3133 0.930 . S
H3146 C3134 0.956 . S
H3147 C3134 0.961 . S
H3148 C3134 0.961 . S
H3149 C3135 0.958 . S
H3150 C3135 0.961 . S
H3151 C3135 0.960 . S
C3152 C3153 1.391 . S
C3152 C3154 1.394 . S
C3152 H3168 0.931 . S
C3153 C3152 1.391 . S
C3153 C3157 1.376 . S
C3154 C3152 1.394 . S
C3154 C3155 1.369 . S
C3154 C3158 1.531 . S
C3155 C3154 1.369 . S
C3155 C3156 1.410 . S
C3155 C3163 1.503 . S
C3156 C3155 1.410 . S
C3156 C3157 1.392 . S
C3156 C3159 1.511 . S
C3157 C3153 1.376 . S
C3157 C3156 1.392 . S
C3157 H3169 0.929 . S
C3158 C3154 1.531 . S
C3158 H3170 0.960 . S
C3158 H3171 0.962 . S
C3158 H3172 0.960 . S
C3159 C3156 1.511 . S
C3159 H3173 0.961 . S
C3159 H3174 0.961 . S
C3159 H3175 0.961 . S
C3160 C3161 1.370 . S
C3160 C3162 1.363 . S
C3160 H3176 0.931 . S
C3161 C3160 1.370 . S
C3161 C3165 1.408 . S
C3162 C3160 1.363 . S
C3162 C3163 1.370 . S
C3162 C3166 1.524 . S
C3163 C3155 1.503 . S
C3163 C3162 1.370 . S
C3163 C3164 1.403 . S
C3164 C3163 1.403 . S
C3164 C3165 1.404 . S
C3164 C3167 1.539 . S
C3165 C3161 1.408 . S
C3165 C3164 1.404 . S
C3165 H3177 0.930 . S
C3166 C3162 1.524 . S
C3166 H3178 0.956 . S
C3166 H3179 0.961 . S
C3166 H3180 0.961 . S
C3167 C3164 1.539 . S
C3167 H3181 0.958 . S
C3167 H3182 0.961 . S
C3167 H3183 0.960 . S
H3168 C3152 0.931 . S
H3169 C3157 0.929 . S
H3170 C3158 0.960 . S
H3171 C3158 0.962 . S
H3172 C3158 0.960 . S
H3173 C3159 0.961 . S
H3174 C3159 0.961 . S
H3175 C3159 0.961 . S
H3176 C3160 0.931 . S
H3177 C3165 0.930 . S
H3178 C3166 0.956 . S
H3179 C3166 0.961 . S
H3180 C3166 0.961 . S
H3181 C3167 0.958 . S
H3182 C3167 0.961 . S
H3183 C3167 0.960 . S
C3184 C3185 1.391 . S
C3184 C3186 1.394 . S
C3184 H3200 0.931 . S
C3185 C3184 1.391 . S
C3185 C3189 1.376 . S
C3186 C3184 1.394 . S
C3186 C3187 1.369 . S
C3186 C3190 1.531 . S
C3187 C3186 1.369 . S
C3187 C3188 1.410 . S
C3187 C3195 1.503 . S
C3188 C3187 1.410 . S
C3188 C3189 1.392 . S
C3188 C3191 1.511 . S
C3189 C3185 1.376 . S
C3189 C3188 1.392 . S
C3189 H3201 0.955 . S
C3190 C3186 1.531 . S
C3190 H3202 0.960 . S
C3190 H3203 0.962 . S
C3190 H3204 0.960 . S
C3191 C3188 1.511 . S
C3191 H3205 0.961 . S
C3191 H3206 0.961 . S
C3191 H3207 0.961 1_554 S
C3192 C3193 1.370 . S
C3192 C3194 1.363 . S
C3192 H3208 0.931 . S
C3193 C3192 1.370 . S
C3193 C3197 1.408 . S
C3194 C3192 1.363 . S
C3194 C3195 1.370 . S
C3194 C3198 1.524 . S
C3195 C3187 1.503 . S
C3195 C3194 1.370 . S
C3195 C3196 1.403 . S
C3196 C3195 1.403 . S
C3196 C3197 1.404 . S
C3196 C3199 1.539 1_554 S
C3197 C3193 1.408 . S
C3197 C3196 1.404 . S
C3197 H3209 0.930 . S
C3198 C3194 1.524 . S
C3198 H3210 0.956 . S
C3198 H3211 0.961 . S
C3198 H3212 0.961 . S
C3199 C3196 1.539 1_556 S
C3199 H3213 0.958 . S
C3199 H3214 0.961 . S
C3199 H3215 0.960 . S
H3200 C3184 0.931 . S
H3201 C3189 0.955 . S
H3202 C3190 0.960 . S
H3203 C3190 0.962 . S
H3204 C3190 0.960 . S
H3205 C3191 0.961 . S
H3206 C3191 0.961 . S
H3207 C3191 0.961 1_556 S
H3208 C3192 0.931 . S
H3209 C3197 0.930 . S
H3210 C3198 0.956 . S
H3211 C3198 0.961 . S
H3212 C3198 0.961 . S
H3213 C3199 0.958 . S
H3214 C3199 0.961 . S
H3215 C3199 0.960 . S
C3216 C3217 1.391 . S
C3216 C3218 1.394 . S
C3216 H3232 0.931 . S
C3217 C3216 1.391 . S
C3217 C3221 1.376 . S
C3218 C3216 1.394 . S
C3218 C3219 1.369 . S
C3218 C3222 1.531 . S
C3219 C3218 1.369 . S
C3219 C3220 1.410 . S
C3219 C3227 1.503 . S
C3220 C3219 1.410 . S
C3220 C3221 1.392 . S
C3220 C3223 1.511 . S
C3221 C3217 1.376 . S
C3221 C3220 1.392 . S
C3221 H3233 0.929 . S
C3222 C3218 1.531 . S
C3222 H3234 0.960 . S
C3222 H3235 0.962 . S
C3222 H3236 0.960 . S
C3223 C3220 1.511 . S
C3223 H3237 0.961 . S
C3223 H3238 0.961 . S
C3223 H3239 0.961 . S
C3224 C3225 1.370 . S
C3224 C3226 1.363 . S
C3224 H3240 0.931 . S
C3225 C3224 1.370 . S
C3225 C3229 1.408 . S
C3226 C3224 1.363 . S
C3226 C3227 1.370 . S
C3226 C3230 1.524 . S
C3227 C3219 1.503 . S
C3227 C3226 1.370 . S
C3227 C3228 1.403 . S
C3228 C3227 1.403 . S
C3228 C3229 1.404 . S
C3228 C3231 1.539 . S
C3229 C3225 1.408 . S
C3229 C3228 1.404 . S
C3229 H3241 0.930 . S
C3230 C3226 1.524 . S
C3230 H3242 0.956 . S
C3230 H3243 0.961 . S
C3230 H3244 0.961 . S
C3231 C3228 1.539 . S
C3231 H3245 0.958 . S
C3231 H3246 0.961 . S
C3231 H3247 0.960 . S
H3232 C3216 0.931 . S
H3233 C3221 0.929 . S
H3234 C3222 0.960 . S
H3235 C3222 0.962 . S
H3236 C3222 0.960 . S
H3237 C3223 0.961 . S
H3238 C3223 0.961 . S
H3239 C3223 0.961 . S
H3240 C3224 0.931 . S
H3241 C3229 0.930 . S
H3242 C3230 0.956 . S
H3243 C3230 0.961 . S
H3244 C3230 0.961 . S
H3245 C3231 0.958 . S
H3246 C3231 0.961 . S
H3247 C3231 0.960 . S
C3248 C3249 1.391 . S
C3248 C3250 1.394 . S
C3248 H3264 0.931 . S
C3249 C3248 1.391 . S
C3249 C3253 1.376 . S
C3250 C3248 1.394 . S
C3250 C3251 1.369 . S
C3250 C3254 1.531 . S
C3251 C3250 1.369 . S
C3251 C3252 1.410 . S
C3251 C3259 1.503 . S
C3252 C3251 1.410 . S
C3252 C3253 1.392 . S
C3252 C3255 1.511 . S
C3253 C3249 1.376 . S
C3253 C3252 1.392 . S
C3253 H3265 0.929 . S
C3254 C3250 1.531 . S
C3254 H3266 0.960 . S
C3254 H3267 0.962 . S
C3254 H3268 0.960 . S
C3255 C3252 1.511 . S
C3255 H3269 0.961 . S
C3255 H3270 0.961 . S
C3255 H3271 0.961 . S
C3256 C3257 1.370 . S
C3256 C3258 1.363 . S
C3256 H3272 0.931 . S
C3257 C3256 1.370 . S
C3257 C3261 1.408 . S
C3258 C3256 1.363 . S
C3258 C3259 1.370 . S
C3258 C3262 1.524 . S
C3259 C3251 1.503 . S
C3259 C3258 1.370 . S
C3259 C3260 1.403 . S
C3260 C3259 1.403 . S
C3260 C3261 1.404 . S
C3260 C3263 1.539 . S
C3261 C3257 1.408 . S
C3261 C3260 1.404 . S
C3261 H3273 0.930 . S
C3262 C3258 1.524 . S
C3262 H3274 0.956 . S
C3262 H3275 0.961 . S
C3262 H3276 0.961 . S
C3263 C3260 1.539 . S
C3263 H3277 0.958 . S
C3263 H3278 0.961 . S
C3263 H3279 0.960 . S
H3264 C3248 0.931 . S
H3265 C3253 0.929 . S
H3266 C3254 0.960 . S
H3267 C3254 0.962 . S
H3268 C3254 0.960 . S
H3269 C3255 0.961 . S
H3270 C3255 0.961 . S
H3271 C3255 0.961 . S
H3272 C3256 0.931 . S
H3273 C3261 0.930 . S
H3274 C3262 0.956 . S
H3275 C3262 0.961 . S
H3276 C3262 0.961 . S
H3277 C3263 0.958 . S
H3278 C3263 0.961 . S
H3279 C3263 0.960 . S
C3280 C3281 1.391 . S
C3280 C3282 1.394 . S
C3280 H3296 0.931 . S
C3281 C3280 1.391 . S
C3281 C3285 1.376 . S
C3282 C3280 1.394 . S
C3282 C3283 1.369 . S
C3282 C3286 1.531 . S
C3283 C3282 1.369 . S
C3283 C3284 1.410 . S
C3283 C3291 1.503 . S
C3284 C3283 1.410 . S
C3284 C3285 1.392 . S
C3284 C3287 1.511 . S
C3285 C3281 1.376 . S
C3285 C3284 1.392 . S
C3285 H3297 0.929 . S
C3286 C3282 1.531 . S
C3286 H3298 0.960 . S
C3286 H3299 0.962 . S
C3286 H3300 0.960 . S
C3287 C3284 1.511 . S
C3287 H3301 0.961 . S
C3287 H3302 0.961 . S
C3287 H3303 0.961 . S
C3288 C3289 1.370 . S
C3288 C3290 1.363 . S
C3288 H3304 0.931 . S
C3289 C3288 1.370 . S
C3289 C3293 1.408 . S
C3290 C3288 1.363 . S
C3290 C3291 1.370 . S
C3290 C3294 1.524 . S
C3291 C3283 1.503 . S
C3291 C3290 1.370 . S
C3291 C3292 1.403 . S
C3292 C3291 1.403 . S
C3292 C3293 1.404 . S
C3292 C3295 1.539 . S
C3293 C3289 1.408 . S
C3293 C3292 1.404 . S
C3293 H3305 0.930 . S
C3294 C3290 1.524 . S
C3294 H3306 0.956 . S
C3294 H3307 0.961 . S
C3294 H3308 0.961 . S
C3295 C3292 1.539 . S
C3295 H3309 0.958 . S
C3295 H3310 0.961 . S
C3295 H3311 0.960 . S
H3296 C3280 0.931 . S
H3297 C3285 0.929 . S
H3298 C3286 0.960 . S
H3299 C3286 0.962 . S
H3300 C3286 0.960 . S
H3301 C3287 0.961 . S
H3302 C3287 0.961 . S
H3303 C3287 0.961 . S
H3304 C3288 0.931 . S
H3305 C3293 0.930 . S
H3306 C3294 0.956 . S
H3307 C3294 0.961 . S
H3308 C3294 0.961 . S
H3309 C3295 0.958 . S
H3310 C3295 0.961 . S
H3311 C3295 0.960 . S
C3312 C3313 1.391 . S
C3312 C3314 1.394 . S
C3312 H3328 0.931 . S
C3313 C3312 1.391 . S
C3313 C3317 1.376 . S
C3314 C3312 1.394 . S
C3314 C3315 1.369 . S
C3314 C3318 1.531 . S
C3315 C3314 1.369 . S
C3315 C3316 1.410 . S
C3315 C3323 1.503 . S
C3316 C3315 1.410 . S
C3316 C3317 1.392 . S
C3316 C3319 1.511 . S
C3317 C3313 1.376 . S
C3317 C3316 1.392 . S
C3317 H3329 0.929 . S
C3318 C3314 1.531 . S
C3318 H3330 0.960 . S
C3318 H3331 0.962 . S
C3318 H3332 0.960 . S
C3319 C3316 1.511 . S
C3319 H3333 0.961 . S
C3319 H3334 0.961 . S
C3319 H3335 0.961 . S
C3320 C3321 1.370 . S
C3320 C3322 1.363 . S
C3320 H3336 0.931 . S
C3321 C3320 1.370 . S
C3321 C3325 1.408 . S
C3322 C3320 1.363 . S
C3322 C3323 1.370 . S
C3322 C3326 1.524 . S
C3323 C3315 1.503 . S
C3323 C3322 1.370 . S
C3323 C3324 1.403 . S
C3324 C3323 1.403 . S
C3324 C3325 1.404 . S
C3324 C3327 1.539 . S
C3325 C3321 1.408 . S
C3325 C3324 1.404 . S
C3325 H3337 0.930 . S
C3326 C3322 1.524 . S
C3326 H3338 0.956 . S
C3326 H3339 0.961 . S
C3326 H3340 0.961 . S
C3327 C3324 1.539 . S
C3327 H3341 0.958 . S
C3327 H3342 0.961 . S
C3327 H3343 0.960 . S
H3328 C3312 0.931 . S
H3329 C3317 0.929 . S
H3330 C3318 0.960 . S
H3331 C3318 0.962 . S
H3332 C3318 0.960 . S
H3333 C3319 0.961 . S
H3334 C3319 0.961 . S
H3335 C3319 0.961 . S
H3336 C3320 0.931 . S
H3337 C3325 0.930 . S
H3338 C3326 0.956 . S
H3339 C3326 0.961 . S
H3340 C3326 0.961 . S
H3341 C3327 0.958 . S
H3342 C3327 0.961 . S
H3343 C3327 0.960 . S
C3344 C3345 1.391 . S
C3344 C3346 1.394 . S
C3344 H3360 0.931 . S
C3345 C3344 1.391 . S
C3345 C3349 1.376 . S
C3346 C3344 1.394 . S
C3346 C3347 1.369 . S
C3346 C3350 1.531 . S
C3347 C3346 1.369 . S
C3347 C3348 1.410 . S
C3347 C3355 1.503 . S
C3348 C3347 1.410 . S
C3348 C3349 1.392 . S
C3348 C3351 1.511 . S
C3349 C3345 1.376 . S
C3349 C3348 1.392 . S
C3349 H3361 0.929 . S
C3350 C3346 1.531 . S
C3350 H3362 0.960 . S
C3350 H3363 0.962 . S
C3350 H3364 0.960 . S
C3351 C3348 1.511 . S
C3351 H3365 0.961 . S
C3351 H3366 0.961 . S
C3351 H3367 0.961 . S
C3352 C3353 1.370 . S
C3352 C3354 1.363 . S
C3352 H3368 0.931 . S
C3353 C3352 1.370 . S
C3353 C3357 1.408 . S
C3354 C3352 1.363 . S
C3354 C3355 1.370 . S
C3354 C3358 1.524 . S
C3355 C3347 1.503 . S
C3355 C3354 1.370 . S
C3355 C3356 1.403 . S
C3356 C3355 1.403 . S
C3356 C3357 1.404 . S
C3356 C3359 1.539 . S
C3357 C3353 1.408 . S
C3357 C3356 1.404 . S
C3357 H3369 0.930 . S
C3358 C3354 1.524 . S
C3358 H3370 0.956 . S
C3358 H3371 0.961 . S
C3358 H3372 0.961 . S
C3359 C3356 1.539 . S
C3359 H3373 0.958 . S
C3359 H3374 0.961 . S
C3359 H3375 0.960 . S
H3360 C3344 0.931 . S
H3361 C3349 0.929 . S
H3362 C3350 0.960 . S
H3363 C3350 0.962 . S
H3364 C3350 0.960 . S
H3365 C3351 0.961 . S
H3366 C3351 0.961 . S
H3367 C3351 0.961 . S
H3368 C3352 0.931 . S
H3369 C3357 0.930 . S
H3370 C3358 0.956 . S
H3371 C3358 0.961 . S
H3372 C3358 0.961 . S
H3373 C3359 0.958 . S
H3374 C3359 0.961 . S
H3375 C3359 0.960 . S
C3376 C3377 1.391 . S
C3376 C3378 1.394 . S
C3376 H3392 0.931 . S
C3377 C3376 1.391 . S
C3377 C3381 1.376 . S
C3378 C3376 1.394 . S
C3378 C3379 1.369 . S
C3378 C3382 1.531 . S
C3379 C3378 1.369 . S
C3379 C3380 1.410 . S
C3379 C3387 1.503 . S
C3380 C3379 1.410 . S
C3380 C3381 1.392 . S
C3380 C3383 1.511 . S
C3381 C3377 1.376 . S
C3381 C3380 1.392 . S
C3381 H3393 0.929 . S
C3382 C3378 1.531 . S
C3382 H3394 0.960 . S
C3382 H3395 0.962 . S
C3382 H3396 0.960 . S
C3383 C3380 1.511 . S
C3383 H3397 0.961 . S
C3383 H3398 0.961 . S
C3383 H3399 0.961 . S
C3384 C3385 1.370 . S
C3384 C3386 1.363 . S
C3384 H3400 0.931 . S
C3385 C3384 1.370 . S
C3385 C3389 1.408 . S
C3386 C3384 1.363 . S
C3386 C3387 1.370 . S
C3386 C3390 1.524 . S
C3387 C3379 1.503 . S
C3387 C3386 1.370 . S
C3387 C3388 1.403 . S
C3388 C3387 1.403 . S
C3388 C3389 1.404 . S
C3388 C3391 1.539 . S
C3389 C3385 1.408 . S
C3389 C3388 1.404 . S
C3389 H3401 0.930 . S
C3390 C3386 1.524 . S
C3390 H3402 0.956 . S
C3390 H3403 0.961 . S
C3390 H3404 0.961 . S
C3391 C3388 1.539 . S
C3391 H3405 0.958 . S
C3391 H3406 0.961 . S
C3391 H3407 0.960 . S
H3392 C3376 0.931 . S
H3393 C3381 0.929 . S
H3394 C3382 0.960 . S
H3395 C3382 0.962 . S
H3396 C3382 0.960 . S
H3397 C3383 0.961 . S
H3398 C3383 0.961 . S
H3399 C3383 0.961 . S
H3400 C3384 0.931 . S
H3401 C3389 0.930 . S
H3402 C3390 0.956 . S
H3403 C3390 0.961 . S
H3404 C3390 0.961 . S
H3405 C3391 0.958 . S
H3406 C3391 0.961 . S
H3407 C3391 0.960 . S
C3408 C3409 1.391 . S
C3408 C3410 1.394 . S
C3408 H3424 0.931 . S
C3409 C3408 1.391 . S
C3409 C3413 1.376 . S
C3410 C3408 1.394 . S
C3410 C3411 1.369 . S
C3410 C3414 1.531 . S
C3411 C3410 1.369 . S
C3411 C3412 1.410 . S
C3411 C3419 1.503 . S
C3412 C3411 1.410 . S
C3412 C3413 1.392 . S
C3412 C3415 1.511 . S
C3413 C3409 1.376 . S
C3413 C3412 1.392 . S
C3413 H3425 0.929 . S
C3414 C3410 1.531 . S
C3414 H3426 0.960 . S
C3414 H3427 0.962 . S
C3414 H3428 0.960 . S
C3415 C3412 1.511 . S
C3415 H3429 0.961 . S
C3415 H3430 0.961 . S
C3415 H3431 0.961 . S
C3416 C3417 1.370 . S
C3416 C3418 1.363 . S
C3416 H3432 0.931 . S
C3417 C3416 1.370 . S
C3417 C3421 1.408 . S
C3418 C3416 1.363 . S
C3418 C3419 1.370 . S
C3418 C3422 1.524 . S
C3419 C3411 1.503 . S
C3419 C3418 1.370 . S
C3419 C3420 1.403 . S
C3420 C3419 1.403 . S
C3420 C3421 1.404 . S
C3420 C3423 1.539 . S
C3421 C3417 1.408 . S
C3421 C3420 1.404 . S
C3421 H3433 0.930 . S
C3422 C3418 1.524 . S
C3422 H3434 0.956 . S
C3422 H3435 0.961 . S
C3422 H3436 0.961 . S
C3423 C3420 1.539 . S
C3423 H3437 0.958 . S
C3423 H3438 0.961 . S
C3423 H3439 0.960 . S
H3424 C3408 0.931 . S
H3425 C3413 0.929 . S
H3426 C3414 0.960 . S
H3427 C3414 0.962 . S
H3428 C3414 0.960 . S
H3429 C3415 0.961 . S
H3430 C3415 0.961 . S
H3431 C3415 0.961 . S
H3432 C3416 0.931 . S
H3433 C3421 0.930 . S
H3434 C3422 0.956 . S
H3435 C3422 0.961 . S
H3436 C3422 0.961 . S
H3437 C3423 0.958 . S
H3438 C3423 0.961 . S
H3439 C3423 0.960 . S
C3440 C3441 1.391 . S
C3440 C3442 1.394 . S
C3440 H3456 0.931 . S
C3441 C3440 1.391 . S
C3441 C3445 1.376 . S
C3442 C3440 1.394 . S
C3442 C3443 1.369 . S
C3442 C3446 1.531 . S
C3443 C3442 1.369 . S
C3443 C3444 1.410 . S
C3443 C3451 1.503 . S
C3444 C3443 1.410 . S
C3444 C3445 1.392 . S
C3444 C3447 1.511 . S
C3445 C3441 1.376 . S
C3445 C3444 1.392 . S
C3445 H3457 0.929 . S
C3446 C3442 1.531 . S
C3446 H3458 0.960 . S
C3446 H3459 0.962 . S
C3446 H3460 0.960 . S
C3447 C3444 1.511 . S
C3447 H3461 0.961 . S
C3447 H3462 0.961 . S
C3447 H3463 0.961 . S
C3448 C3449 1.370 . S
C3448 C3450 1.363 . S
C3448 H3464 0.931 . S
C3449 C3448 1.370 . S
C3449 C3453 1.408 . S
C3450 C3448 1.363 . S
C3450 C3451 1.370 . S
C3450 C3454 1.524 . S
C3451 C3443 1.503 . S
C3451 C3450 1.370 . S
C3451 C3452 1.403 . S
C3452 C3451 1.403 . S
C3452 C3453 1.404 . S
C3452 C3455 1.539 . S
C3453 C3449 1.408 . S
C3453 C3452 1.404 . S
C3453 H3465 0.930 . S
C3454 C3450 1.524 . S
C3454 H3466 0.956 . S
C3454 H3467 0.961 . S
C3454 H3468 0.961 . S
C3455 C3452 1.539 . S
C3455 H3469 0.958 . S
C3455 H3470 0.961 . S
C3455 H3471 0.960 . S
H3456 C3440 0.931 . S
H3457 C3445 0.929 . S
H3458 C3446 0.960 . S
H3459 C3446 0.962 . S
H3460 C3446 0.960 . S
H3461 C3447 0.961 . S
H3462 C3447 0.961 . S
H3463 C3447 0.961 . S
H3464 C3448 0.931 . S
H3465 C3453 0.930 . S
H3466 C3454 0.956 . S
H3467 C3454 0.961 . S
H3468 C3454 0.961 . S
H3469 C3455 0.958 . S
H3470 C3455 0.961 . S
H3471 C3455 0.960 . S
C3472 C3473 1.391 . S
C3472 C3474 1.394 . S
C3472 H3488 0.931 . S
C3473 C3472 1.391 . S
C3473 C3477 1.376 . S
C3474 C3472 1.394 . S
C3474 C3475 1.369 . S
C3474 C3478 1.531 . S
C3475 C3474 1.369 . S
C3475 C3476 1.410 . S
C3475 C3483 1.503 . S
C3476 C3475 1.410 . S
C3476 C3477 1.392 . S
C3476 C3479 1.511 . S
C3477 C3473 1.376 . S
C3477 C3476 1.392 . S
C3477 H3489 0.929 . S
C3478 C3474 1.531 . S
C3478 H3490 0.960 . S
C3478 H3491 0.962 . S
C3478 H3492 0.960 . S
C3479 C3476 1.511 . S
C3479 H3493 0.961 . S
C3479 H3494 0.961 . S
C3479 H3495 0.961 . S
C3480 C3481 1.370 . S
C3480 C3482 1.363 . S
C3480 H3496 0.931 . S
C3481 C3480 1.370 . S
C3481 C3485 1.408 . S
C3482 C3480 1.363 . S
C3482 C3483 1.370 . S
C3482 C3486 1.524 . S
C3483 C3475 1.503 . S
C3483 C3482 1.370 . S
C3483 C3484 1.403 . S
C3484 C3483 1.403 . S
C3484 C3485 1.404 . S
C3484 C3487 1.539 . S
C3485 C3481 1.408 . S
C3485 C3484 1.404 . S
C3485 H3497 0.930 . S
C3486 C3482 1.524 . S
C3486 H3498 0.956 . S
C3486 H3499 0.961 . S
C3486 H3500 0.961 . S
C3487 C3484 1.539 . S
C3487 H3501 0.958 . S
C3487 H3502 0.961 . S
C3487 H3503 0.960 . S
H3488 C3472 0.931 . S
H3489 C3477 0.929 . S
H3490 C3478 0.960 . S
H3491 C3478 0.962 . S
H3492 C3478 0.960 . S
H3493 C3479 0.961 . S
H3494 C3479 0.961 . S
H3495 C3479 0.961 . S
H3496 C3480 0.931 . S
H3497 C3485 0.930 . S
H3498 C3486 0.956 . S
H3499 C3486 0.961 . S
H3500 C3486 0.961 . S
H3501 C3487 0.958 . S
H3502 C3487 0.961 . S
H3503 C3487 0.960 . S
C3504 C3505 1.391 . S
C3504 C3506 1.394 . S
C3504 H3520 0.931 . S
C3505 C3504 1.391 . S
C3505 C3509 1.376 . S
C3506 C3504 1.394 . S
C3506 C3507 1.369 . S
C3506 C3510 1.531 . S
C3507 C3506 1.369 . S
C3507 C3508 1.410 . S
C3507 C3515 1.503 . S
C3508 C3507 1.410 . S
C3508 C3509 1.392 . S
C3508 C3511 1.511 . S
C3509 C3505 1.376 . S
C3509 C3508 1.392 . S
C3509 H3521 0.929 . S
C3510 C3506 1.531 . S
C3510 H3522 0.960 . S
C3510 H3523 0.962 . S
C3510 H3524 0.960 . S
C3511 C3508 1.511 . S
C3511 H3525 0.961 . S
C3511 H3526 0.961 . S
C3511 H3527 0.961 . S
C3512 C3513 1.370 . S
C3512 C3514 1.363 . S
C3512 H3528 0.931 . S
C3513 C3512 1.370 . S
C3513 C3517 1.408 . S
C3514 C3512 1.363 . S
C3514 C3515 1.370 . S
C3514 C3518 1.524 . S
C3515 C3507 1.503 . S
C3515 C3514 1.370 . S
C3515 C3516 1.403 . S
C3516 C3515 1.403 . S
C3516 C3517 1.404 . S
C3516 C3519 1.539 . S
C3517 C3513 1.408 . S
C3517 C3516 1.404 . S
C3517 H3529 0.930 . S
C3518 C3514 1.524 . S
C3518 H3530 0.956 . S
C3518 H3531 0.961 . S
C3518 H3532 0.961 . S
C3519 C3516 1.539 . S
C3519 H3533 0.958 . S
C3519 H3534 0.961 . S
C3519 H3535 0.960 . S
H3520 C3504 0.931 . S
H3521 C3509 0.929 . S
H3522 C3510 0.960 . S
H3523 C3510 0.962 . S
H3524 C3510 0.960 . S
H3525 C3511 0.961 . S
H3526 C3511 0.961 . S
H3527 C3511 0.961 . S
H3528 C3512 0.931 . S
H3529 C3517 0.930 . S
H3530 C3518 0.956 . S
H3531 C3518 0.961 . S
H3532 C3518 0.961 . S
H3533 C3519 0.958 . S
H3534 C3519 0.961 . S
H3535 C3519 0.960 . S
C3536 C3537 1.391 . S
C3536 C3538 1.394 . S
C3536 H3552 0.931 . S
C3537 C3536 1.391 . S
C3537 C3541 1.376 . S
C3538 C3536 1.394 . S
C3538 C3539 1.369 . S
C3538 C3542 1.531 . S
C3539 C3538 1.369 . S
C3539 C3540 1.410 . S
C3539 C3547 1.503 . S
C3540 C3539 1.410 . S
C3540 C3541 1.392 . S
C3540 C3543 1.511 . S
C3541 C3537 1.376 . S
C3541 C3540 1.392 . S
C3541 H3553 0.929 . S
C3542 C3538 1.531 . S
C3542 H3554 0.960 . S
C3542 H3555 0.962 . S
C3542 H3556 0.960 . S
C3543 C3540 1.511 . S
C3543 H3557 0.961 . S
C3543 H3558 0.961 . S
C3543 H3559 0.961 . S
C3544 C3545 1.370 . S
C3544 C3546 1.363 . S
C3544 H3560 0.931 . S
C3545 C3544 1.370 . S
C3545 C3549 1.408 . S
C3546 C3544 1.363 . S
C3546 C3547 1.370 . S
C3546 C3550 1.524 . S
C3547 C3539 1.503 . S
C3547 C3546 1.370 . S
C3547 C3548 1.403 . S
C3548 C3547 1.403 . S
C3548 C3549 1.404 . S
C3548 C3551 1.539 . S
C3549 C3545 1.408 . S
C3549 C3548 1.404 . S
C3549 H3561 0.930 . S
C3550 C3546 1.524 . S
C3550 H3562 0.956 . S
C3550 H3563 0.961 . S
C3550 H3564 0.961 . S
C3551 C3548 1.539 . S
C3551 H3565 0.958 . S
C3551 H3566 0.961 . S
C3551 H3567 0.960 . S
H3552 C3536 0.931 . S
H3553 C3541 0.929 . S
H3554 C3542 0.960 . S
H3555 C3542 0.962 . S
H3556 C3542 0.960 . S
H3557 C3543 0.961 . S
H3558 C3543 0.961 . S
H3559 C3543 0.961 . S
H3560 C3544 0.931 . S
H3561 C3549 0.930 . S
H3562 C3550 0.956 . S
H3563 C3550 0.961 . S
H3564 C3550 0.961 . S
H3565 C3551 0.958 . S
H3566 C3551 0.961 . S
H3567 C3551 0.960 . S
C3568 C3569 1.391 . S
C3568 C3570 1.394 . S
C3568 H3584 0.931 . S
C3569 C3568 1.391 . S
C3569 C3573 1.376 . S
C3570 C3568 1.394 . S
C3570 C3571 1.369 . S
C3570 C3574 1.531 . S
C3571 C3570 1.369 . S
C3571 C3572 1.410 . S
C3571 C3579 1.503 . S
C3572 C3571 1.410 . S
C3572 C3573 1.392 . S
C3572 C3575 1.511 . S
C3573 C3569 1.376 . S
C3573 C3572 1.392 . S
C3573 H3585 0.929 . S
C3574 C3570 1.531 . S
C3574 H3586 0.960 . S
C3574 H3587 0.962 . S
C3574 H3588 0.960 . S
C3575 C3572 1.511 . S
C3575 H3589 0.961 . S
C3575 H3590 0.961 . S
C3575 H3591 0.961 . S
C3576 C3577 1.370 . S
C3576 C3578 1.363 . S
C3576 H3592 0.931 . S
C3577 C3576 1.370 . S
C3577 C3581 1.408 . S
C3578 C3576 1.363 . S
C3578 C3579 1.370 . S
C3578 C3582 1.524 . S
C3579 C3571 1.503 . S
C3579 C3578 1.370 . S
C3579 C3580 1.403 . S
C3580 C3579 1.403 . S
C3580 C3581 1.404 . S
C3580 C3583 1.539 . S
C3581 C3577 1.408 . S
C3581 C3580 1.404 . S
C3581 H3593 0.930 . S
C3582 C3578 1.524 . S
C3582 H3594 0.956 . S
C3582 H3595 0.961 . S
C3582 H3596 0.961 . S
C3583 C3580 1.539 . S
C3583 H3597 0.958 . S
C3583 H3598 0.961 . S
C3583 H3599 0.960 . S
H3584 C3568 0.931 . S
H3585 C3573 0.929 . S
H3586 C3574 0.960 . S
H3587 C3574 0.962 . S
H3588 C3574 0.960 . S
H3589 C3575 0.961 . S
H3590 C3575 0.961 . S
H3591 C3575 0.961 . S
H3592 C3576 0.931 . S
H3593 C3581 0.930 . S
H3594 C3582 0.956 . S
H3595 C3582 0.961 . S
H3596 C3582 0.961 . S
H3597 C3583 0.958 . S
H3598 C3583 0.961 . S
H3599 C3583 0.960 . S
C3600 C3601 1.391 . S
C3600 C3602 1.394 . S
C3600 H3616 0.931 . S
C3601 C3600 1.391 . S
C3601 C3605 1.376 . S
C3602 C3600 1.394 . S
C3602 C3603 1.369 . S
C3602 C3606 1.531 . S
C3603 C3602 1.369 . S
C3603 C3604 1.410 . S
C3603 C3611 1.482 1_655 S
C3604 C3603 1.410 . S
C3604 C3605 1.392 . S
C3604 C3607 1.511 1_655 S
C3605 C3601 1.376 . S
C3605 C3604 1.392 . S
C3605 H3617 0.929 . S
C3606 C3602 1.531 . S
C3606 H3618 0.960 . S
C3606 H3619 0.962 . S
C3606 H3620 0.960 . S
C3607 C3604 1.511 1_455 S
C3607 H3621 0.961 . S
C3607 H3622 0.961 . S
C3607 H3623 0.961 . S
C3608 C3609 1.370 . S
C3608 C3610 1.363 1_455 S
C3608 H3624 0.956 . S
C3609 C3608 1.370 . S
C3609 C3613 1.408 . S
C3610 C3608 1.363 1_655 S
C3610 C3611 1.343 1_655 S
C3610 C3614 1.524 . S
C3611 C3603 1.482 1_455 S
C3611 C3610 1.343 1_455 S
C3611 C3612 1.453 . S
C3612 C3611 1.453 . S
C3612 C3613 1.404 . S
C3612 C3615 1.539 . S
C3613 C3609 1.408 . S
C3613 C3612 1.404 . S
C3613 H3625 0.930 . S
C3614 C3610 1.524 . S
C3614 H3626 0.956 . S
C3614 H3627 0.961 . S
C3614 H3628 0.961 . S
C3615 C3612 1.539 . S
C3615 H3629 0.958 . S
C3615 H3630 0.961 . S
C3615 H3631 0.960 . S
H3616 C3600 0.931 . S
H3617 C3605 0.929 . S
H3618 C3606 0.960 . S
H3619 C3606 0.962 . S
H3620 C3606 0.960 . S
H3621 C3607 0.961 . S
H3622 C3607 0.961 . S
H3623 C3607 0.961 . S
H3624 C3608 0.956 . S
H3625 C3613 0.930 . S
H3626 C3614 0.956 . S
H3627 C3614 0.961 . S
H3628 C3614 0.961 . S
H3629 C3615 0.958 . S
H3630 C3615 0.961 . S
H3631 C3615 0.960 . S
C3632 C3633 1.391 . S
C3632 C3634 1.394 . S
C3632 H3648 0.931 . S
C3633 C3632 1.391 . S
C3633 C3637 1.376 . S
C3634 C3632 1.394 . S
C3634 C3635 1.369 . S
C3634 C3638 1.531 . S
C3635 C3634 1.369 . S
C3635 C3636 1.410 . S
C3635 C3643 1.503 . S
C3636 C3635 1.410 . S
C3636 C3637 1.392 . S
C3636 C3639 1.511 . S
C3637 C3633 1.376 . S
C3637 C3636 1.392 . S
C3637 H3649 0.929 . S
C3638 C3634 1.531 . S
C3638 H3650 0.960 . S
C3638 H3651 0.962 . S
C3638 H3652 0.960 . S
C3639 C3636 1.511 . S
C3639 H3653 0.961 . S
C3639 H3654 0.961 . S
C3639 H3655 0.961 . S
C3640 C3641 1.370 . S
C3640 C3642 1.363 . S
C3640 H3656 0.931 . S
C3641 C3640 1.370 . S
C3641 C3645 1.408 . S
C3642 C3640 1.363 . S
C3642 C3643 1.370 . S
C3642 C3646 1.524 . S
C3643 C3635 1.503 . S
C3643 C3642 1.370 . S
C3643 C3644 1.403 . S
C3644 C3643 1.403 . S
C3644 C3645 1.404 . S
C3644 C3647 1.539 . S
C3645 C3641 1.408 . S
C3645 C3644 1.404 . S
C3645 H3657 0.930 . S
C3646 C3642 1.524 . S
C3646 H3658 0.956 . S
C3646 H3659 0.961 . S
C3646 H3660 0.961 . S
C3647 C3644 1.539 . S
C3647 H3661 0.958 . S
C3647 H3662 0.961 . S
C3647 H3663 0.960 . S
H3648 C3632 0.931 . S
H3649 C3637 0.929 . S
H3650 C3638 0.960 . S
H3651 C3638 0.962 . S
H3652 C3638 0.960 . S
H3653 C3639 0.961 . S
H3654 C3639 0.961 . S
H3655 C3639 0.961 . S
H3656 C3640 0.931 . S
H3657 C3645 0.930 . S
H3658 C3646 0.956 . S
H3659 C3646 0.961 . S
H3660 C3646 0.961 . S
H3661 C3647 0.958 . S
H3662 C3647 0.961 . S
H3663 C3647 0.960 . S
C3664 C3665 1.391 . S
C3664 C3666 1.394 . S
C3664 H3680 0.931 . S
C3665 C3664 1.391 . S
C3665 C3669 1.376 . S
C3666 C3664 1.394 . S
C3666 C3667 1.369 . S
C3666 C3670 1.531 . S
C3667 C3666 1.369 . S
C3667 C3668 1.410 . S
C3667 C3675 1.503 . S
C3668 C3667 1.410 . S
C3668 C3669 1.392 . S
C3668 C3671 1.511 . S
C3669 C3665 1.376 . S
C3669 C3668 1.392 . S
C3669 H3681 0.929 . S
C3670 C3666 1.531 . S
C3670 H3682 0.960 . S
C3670 H3683 0.962 . S
C3670 H3684 0.960 . S
C3671 C3668 1.511 . S
C3671 H3685 0.961 . S
C3671 H3686 0.961 . S
C3671 H3687 0.961 . S
C3672 C3673 1.370 . S
C3672 C3674 1.363 . S
C3672 H3688 0.931 . S
C3673 C3672 1.370 . S
C3673 C3677 1.408 . S
C3674 C3672 1.363 . S
C3674 C3675 1.370 . S
C3674 C3678 1.524 . S
C3675 C3667 1.503 . S
C3675 C3674 1.370 . S
C3675 C3676 1.403 . S
C3676 C3675 1.403 . S
C3676 C3677 1.404 . S
C3676 C3679 1.539 . S
C3677 C3673 1.408 . S
C3677 C3676 1.404 . S
C3677 H3689 0.930 . S
C3678 C3674 1.524 . S
C3678 H3690 0.956 . S
C3678 H3691 0.961 . S
C3678 H3692 0.961 . S
C3679 C3676 1.539 . S
C3679 H3693 0.958 . S
C3679 H3694 0.961 . S
C3679 H3695 0.960 . S
H3680 C3664 0.931 . S
H3681 C3669 0.929 . S
H3682 C3670 0.960 . S
H3683 C3670 0.962 . S
H3684 C3670 0.960 . S
H3685 C3671 0.961 . S
H3686 C3671 0.961 . S
H3687 C3671 0.961 . S
H3688 C3672 0.931 . S
H3689 C3677 0.930 . S
H3690 C3678 0.956 . S
H3691 C3678 0.961 . S
H3692 C3678 0.961 . S
H3693 C3679 0.958 . S
H3694 C3679 0.961 . S
H3695 C3679 0.960 . S
C3696 C3697 1.391 . S
C3696 C3698 1.394 . S
C3696 H3712 0.931 . S
C3697 C3696 1.391 . S
C3697 C3701 1.376 . S
C3698 C3696 1.394 . S
C3698 C3699 1.369 . S
C3698 C3702 1.531 . S
C3699 C3698 1.369 . S
C3699 C3700 1.410 . S
C3699 C3707 1.503 . S
C3700 C3699 1.410 . S
C3700 C3701 1.392 . S
C3700 C3703 1.511 . S
C3701 C3697 1.376 . S
C3701 C3700 1.392 . S
C3701 H3713 0.929 . S
C3702 C3698 1.531 . S
C3702 H3714 0.960 . S
C3702 H3715 0.962 . S
C3702 H3716 0.960 . S
C3703 C3700 1.511 . S
C3703 H3717 0.961 . S
C3703 H3718 0.961 . S
C3703 H3719 0.961 . S
C3704 C3705 1.370 . S
C3704 C3706 1.363 . S
C3704 H3720 0.931 . S
C3705 C3704 1.370 . S
C3705 C3709 1.408 . S
C3706 C3704 1.363 . S
C3706 C3707 1.370 . S
C3706 C3710 1.524 . S
C3707 C3699 1.503 . S
C3707 C3706 1.370 . S
C3707 C3708 1.403 . S
C3708 C3707 1.403 . S
C3708 C3709 1.404 . S
C3708 C3711 1.539 . S
C3709 C3705 1.408 . S
C3709 C3708 1.404 . S
C3709 H3721 0.930 . S
C3710 C3706 1.524 . S
C3710 H3722 0.956 . S
C3710 H3723 0.961 . S
C3710 H3724 0.961 . S
C3711 C3708 1.539 . S
C3711 H3725 0.958 . S
C3711 H3726 0.961 . S
C3711 H3727 0.960 . S
H3712 C3696 0.931 . S
H3713 C3701 0.929 . S
H3714 C3702 0.960 . S
H3715 C3702 0.962 . S
H3716 C3702 0.960 . S
H3717 C3703 0.961 . S
H3718 C3703 0.961 . S
H3719 C3703 0.961 . S
H3720 C3704 0.931 . S
H3721 C3709 0.930 . S
H3722 C3710 0.956 . S
H3723 C3710 0.961 . S
H3724 C3710 0.961 . S
H3725 C3711 0.958 . S
H3726 C3711 0.961 . S
H3727 C3711 0.960 . S
C3728 C3729 1.391 . S
C3728 C3730 1.394 . S
C3728 H3744 0.931 . S
C3729 C3728 1.391 . S
C3729 C3733 1.376 . S
C3730 C3728 1.394 . S
C3730 C3731 1.369 . S
C3730 C3734 1.531 . S
C3731 C3730 1.369 . S
C3731 C3732 1.410 . S
C3731 C3739 1.503 . S
C3732 C3731 1.410 . S
C3732 C3733 1.392 . S
C3732 C3735 1.511 . S
C3733 C3729 1.376 . S
C3733 C3732 1.392 . S
C3733 H3745 0.929 . S
C3734 C3730 1.531 . S
C3734 H3746 0.960 . S
C3734 H3747 0.962 1_655 S
C3734 H3748 0.954 1_655 S
C3735 C3732 1.511 . S
C3735 H3749 0.961 . S
C3735 H3750 0.961 . S
C3735 H3751 0.961 . S
C3736 C3737 1.370 . S
C3736 C3738 1.363 . S
C3736 H3752 0.932 . S
C3737 C3736 1.370 . S
C3737 C3741 1.408 . S
C3738 C3736 1.363 . S
C3738 C3739 1.370 . S
C3738 C3742 1.524 . S
C3739 C3731 1.503 . S
C3739 C3738 1.370 . S
C3739 C3740 1.403 . S
C3740 C3739 1.403 . S
C3740 C3741 1.404 . S
C3740 C3743 1.539 . S
C3741 C3737 1.408 . S
C3741 C3740 1.404 . S
C3741 H3753 0.930 . S
C3742 C3738 1.524 . S
C3742 H3754 0.956 . S
C3742 H3755 0.961 . S
C3742 H3756 0.961 . S
C3743 C3740 1.539 . S
C3743 H3757 0.958 . S
C3743 H3758 0.961 . S
C3743 H3759 0.960 . S
H3744 C3728 0.931 . S
H3745 C3733 0.929 . S
H3746 C3734 0.960 . S
H3747 C3734 0.962 1_455 S
H3748 C3734 0.954 1_455 S
H3749 C3735 0.961 . S
H3750 C3735 0.961 . S
H3751 C3735 0.961 . S
H3752 C3736 0.932 . S
H3753 C3741 0.930 . S
H3754 C3742 0.956 . S
H3755 C3742 0.961 . S
H3756 C3742 0.961 . S
H3757 C3743 0.958 . S
H3758 C3743 0.961 . S
H3759 C3743 0.960 . S
C3760 C3761 1.391 . S
C3760 C3762 1.394 . S
C3760 H3776 0.931 . S
C3761 C3760 1.391 . S
C3761 C3765 1.376 . S
C3762 C3760 1.394 . S
C3762 C3763 1.369 . S
C3762 C3766 1.531 . S
C3763 C3762 1.369 . S
C3763 C3764 1.410 . S
C3763 C3771 1.503 . S
C3764 C3763 1.410 . S
C3764 C3765 1.392 . S
C3764 C3767 1.511 . S
C3765 C3761 1.376 . S
C3765 C3764 1.392 . S
C3765 H3777 0.929 . S
C3766 C3762 1.531 . S
C3766 H3778 0.960 . S
C3766 H3779 0.962 . S
C3766 H3780 0.960 . S
C3767 C3764 1.511 . S
C3767 H3781 0.961 . S
C3767 H3782 0.961 . S
C3767 H3783 0.961 . S
C3768 C3769 1.370 . S
C3768 C3770 1.363 . S
C3768 H3784 0.931 . S
C3769 C3768 1.370 . S
C3769 C3773 1.408 . S
C3770 C3768 1.363 . S
C3770 C3771 1.370 . S
C3770 C3774 1.524 . S
C3771 C3763 1.503 . S
C3771 C3770 1.370 . S
C3771 C3772 1.403 . S
C3772 C3771 1.403 . S
C3772 C3773 1.404 . S
C3772 C3775 1.539 . S
C3773 C3769 1.408 . S
C3773 C3772 1.404 . S
C3773 H3785 0.930 . S
C3774 C3770 1.524 . S
C3774 H3786 0.956 . S
C3774 H3787 0.961 . S
C3774 H3788 0.961 . S
C3775 C3772 1.539 . S
C3775 H3789 0.958 . S
C3775 H3790 0.961 . S
C3775 H3791 0.960 . S
H3776 C3760 0.931 . S
H3777 C3765 0.929 . S
H3778 C3766 0.960 . S
H3779 C3766 0.962 . S
H3780 C3766 0.960 . S
H3781 C3767 0.961 . S
H3782 C3767 0.961 . S
H3783 C3767 0.961 . S
H3784 C3768 0.931 . S
H3785 C3773 0.930 . S
H3786 C3774 0.956 . S
H3787 C3774 0.961 . S
H3788 C3774 0.961 . S
H3789 C3775 0.958 . S
H3790 C3775 0.961 . S
H3791 C3775 0.960 . S
C3792 C3793 1.391 . S
C3792 C3794 1.394 . S
C3792 H3808 0.931 . S
C3793 C3792 1.391 . S
C3793 C3797 1.376 . S
C3794 C3792 1.394 . S
C3794 C3795 1.369 . S
C3794 C3798 1.531 . S
C3795 C3794 1.369 . S
C3795 C3796 1.410 . S
C3795 C3803 1.503 . S
C3796 C3795 1.410 . S
C3796 C3797 1.392 . S
C3796 C3799 1.511 . S
C3797 C3793 1.376 . S
C3797 C3796 1.392 . S
C3797 H3809 0.929 . S
C3798 C3794 1.531 . S
C3798 H3810 0.960 . S
C3798 H3811 0.962 . S
C3798 H3812 0.960 . S
C3799 C3796 1.511 . S
C3799 H3813 0.961 . S
C3799 H3814 0.961 . S
C3799 H3815 0.961 . S
C3800 C3801 1.370 . S
C3800 C3802 1.363 . S
C3800 H3816 0.931 . S
C3801 C3800 1.370 . S
C3801 C3805 1.408 . S
C3802 C3800 1.363 . S
C3802 C3803 1.370 . S
C3802 C3806 1.524 . S
C3803 C3795 1.503 . S
C3803 C3802 1.370 . S
C3803 C3804 1.403 . S
C3804 C3803 1.403 . S
C3804 C3805 1.404 . S
C3804 C3807 1.539 . S
C3805 C3801 1.408 . S
C3805 C3804 1.404 . S
C3805 H3817 0.930 . S
C3806 C3802 1.524 . S
C3806 H3818 0.956 . S
C3806 H3819 0.961 . S
C3806 H3820 0.961 . S
C3807 C3804 1.539 . S
C3807 H3821 0.958 . S
C3807 H3822 0.961 . S
C3807 H3823 0.960 . S
H3808 C3792 0.931 . S
H3809 C3797 0.929 . S
H3810 C3798 0.960 . S
H3811 C3798 0.962 . S
H3812 C3798 0.960 . S
H3813 C3799 0.961 . S
H3814 C3799 0.961 . S
H3815 C3799 0.961 . S
H3816 C3800 0.931 . S
H3817 C3805 0.930 . S
H3818 C3806 0.956 . S
H3819 C3806 0.961 . S
H3820 C3806 0.961 . S
H3821 C3807 0.958 . S
H3822 C3807 0.961 . S
H3823 C3807 0.960 . S
C3824 C3825 1.391 . S
C3824 C3826 1.394 . S
C3824 H3840 0.931 . S
C3825 C3824 1.391 . S
C3825 C3829 1.376 . S
C3826 C3824 1.394 . S
C3826 C3827 1.369 . S
C3826 C3830 1.531 . S
C3827 C3826 1.369 . S
C3827 C3828 1.410 . S
C3827 C3835 1.503 . S
C3828 C3827 1.410 . S
C3828 C3829 1.392 . S
C3828 C3831 1.511 . S
C3829 C3825 1.376 . S
C3829 C3828 1.392 . S
C3829 H3841 0.929 . S
C3830 C3826 1.531 . S
C3830 H3842 0.960 . S
C3830 H3843 0.962 . S
C3830 H3844 0.960 . S
C3831 C3828 1.511 . S
C3831 H3845 0.961 . S
C3831 H3846 0.965 . S
C3831 H3847 0.961 . S
C3832 C3833 1.370 1_565 S
C3832 C3834 1.363 . S
C3832 H3848 0.931 . S
C3833 C3832 1.370 1_545 S
C3833 C3837 1.408 1_545 S
C3834 C3832 1.363 . S
C3834 C3835 1.370 . S
C3834 C3838 1.524 . S
C3835 C3827 1.503 . S
C3835 C3834 1.370 . S
C3835 C3836 1.403 . S
C3836 C3835 1.403 . S
C3836 C3837 1.404 . S
C3836 C3839 1.539 . S
C3837 C3833 1.408 1_565 S
C3837 C3836 1.404 . S
C3837 H3849 0.930 . S
C3838 C3834 1.524 . S
C3838 H3850 0.956 . S
C3838 H3851 0.961 . S
C3838 H3852 0.961 . S
C3839 C3836 1.539 . S
C3839 H3853 0.958 . S
C3839 H3854 0.961 . S
C3839 H3855 0.960 . S
H3840 C3824 0.931 . S
H3841 C3829 0.929 . S
H3842 C3830 0.960 . S
H3843 C3830 0.962 . S
H3844 C3830 0.960 . S
H3845 C3831 0.961 . S
H3846 C3831 0.965 . S
H3847 C3831 0.961 . S
H3848 C3832 0.931 . S
H3849 C3837 0.930 . S
H3850 C3838 0.956 . S
H3851 C3838 0.961 . S
H3852 C3838 0.961 . S
H3853 C3839 0.958 . S
H3854 C3839 0.961 . S
H3855 C3839 0.960 . S
C3856 C3857 1.391 . S
C3856 C3858 1.394 . S
C3856 H3872 0.931 . S
C3857 C3856 1.391 . S
C3857 C3861 1.376 . S
C3858 C3856 1.394 . S
C3858 C3859 1.369 . S
C3858 C3862 1.531 . S
C3859 C3858 1.369 . S
C3859 C3860 1.410 . S
C3859 C3867 1.503 . S
C3860 C3859 1.410 . S
C3860 C3861 1.392 . S
C3860 C3863 1.511 . S
C3861 C3857 1.376 . S
C3861 C3860 1.392 . S
C3861 H3873 0.929 . S
C3862 C3858 1.531 . S
C3862 H3874 0.960 . S
C3862 H3875 0.962 . S
C3862 H3876 0.960 . S
C3863 C3860 1.511 . S
C3863 H3877 0.961 . S
C3863 H3878 0.961 . S
C3863 H3879 0.961 . S
C3864 C3865 1.370 . S
C3864 C3866 1.363 . S
C3864 H3880 0.931 . S
C3865 C3864 1.370 . S
C3865 C3869 1.408 . S
C3866 C3864 1.363 . S
C3866 C3867 1.370 . S
C3866 C3870 1.524 . S
C3867 C3859 1.503 . S
C3867 C3866 1.370 . S
C3867 C3868 1.403 . S
C3868 C3867 1.403 . S
C3868 C3869 1.404 . S
C3868 C3871 1.539 . S
C3869 C3865 1.408 . S
C3869 C3868 1.404 . S
C3869 H3881 0.930 . S
C3870 C3866 1.524 . S
C3870 H3882 0.956 . S
C3870 H3883 0.961 . S
C3870 H3884 0.961 . S
C3871 C3868 1.539 . S
C3871 H3885 0.958 . S
C3871 H3886 0.961 . S
C3871 H3887 0.960 . S
H3872 C3856 0.931 . S
H3873 C3861 0.929 . S
H3874 C3862 0.960 . S
H3875 C3862 0.962 . S
H3876 C3862 0.960 . S
H3877 C3863 0.961 . S
H3878 C3863 0.961 . S
H3879 C3863 0.961 . S
H3880 C3864 0.931 . S
H3881 C3869 0.930 . S
H3882 C3870 0.956 . S
H3883 C3870 0.961 . S
H3884 C3870 0.961 . S
H3885 C3871 0.958 . S
H3886 C3871 0.961 . S
H3887 C3871 0.960 . S
C3888 C3889 1.391 . S
C3888 C3890 1.394 . S
C3888 H3904 0.931 1_554 S
C3889 C3888 1.391 . S
C3889 C3893 1.376 . S
C3890 C3888 1.394 . S
C3890 C3891 1.369 . S
C3890 C3894 1.531 1_554 S
C3891 C3890 1.369 . S
C3891 C3892 1.410 . S
C3891 C3899 1.503 . S
C3892 C3891 1.410 . S
C3892 C3893 1.392 . S
C3892 C3895 1.511 . S
C3893 C3889 1.376 . S
C3893 C3892 1.392 . S
C3893 H3905 0.929 . S
C3894 C3890 1.531 1_556 S
C3894 H3906 0.960 1_556 S
C3894 H3907 0.962 . S
C3894 H3908 0.960 . S
C3895 C3892 1.511 . S
C3895 H3909 0.961 . S
C3895 H3910 0.961 . S
C3895 H3911 0.961 . S
C3896 C3897 1.370 1_556 S
C3896 C3898 1.363 . S
C3896 H3912 0.931 . S
C3897 C3896 1.370 1_554 S
C3897 C3901 1.408 . S
C3898 C3896 1.363 . S
C3898 C3899 1.370 1_556 S
C3898 C3902 1.524 . S
C3899 C3891 1.503 . S
C3899 C3898 1.370 1_554 S
C3899 C3900 1.403 . S
C3900 C3899 1.403 . S
C3900 C3901 1.404 . S
C3900 C3903 1.539 . S
C3901 C3897 1.408 . S
C3901 C3900 1.404 . S
C3901 H3913 0.930 . S
C3902 C3898 1.524 . S
C3902 H3914 0.956 . S
C3902 H3915 0.961 . S
C3902 H3916 0.961 . S
C3903 C3900 1.539 . S
C3903 H3917 0.958 . S
C3903 H3918 0.961 . S
C3903 H3919 0.960 . S
H3904 C3888 0.931 1_556 S
H3905 C3893 0.929 . S
H3906 C3894 0.960 1_554 S
H3907 C3894 0.962 . S
H3908 C3894 0.960 . S
H3909 C3895 0.961 . S
H3910 C3895 0.961 . S
H3911 C3895 0.961 . S
H3912 C3896 0.931 . S
H3913 C3901 0.930 . S
H3914 C3902 0.956 . S
H3915 C3902 0.961 . S
H3916 C3902 0.961 . S
H3917 C3903 0.958 . S
H3918 C3903 0.961 . S
H3919 C3903 0.960 . S
C3920 C3921 1.391 . S
C3920 C3922 1.394 . S
C3920 H3936 0.931 . S
C3921 C3920 1.391 . S
C3921 C3925 1.376 . S
C3922 C3920 1.394 . S
C3922 C3923 1.369 . S
C3922 C3926 1.531 . S
C3923 C3922 1.369 . S
C3923 C3924 1.410 . S
C3923 C3931 1.503 . S
C3924 C3923 1.410 . S
C3924 C3925 1.392 . S
C3924 C3927 1.511 . S
C3925 C3921 1.376 . S
C3925 C3924 1.392 . S
C3925 H3937 0.929 . S
C3926 C3922 1.531 . S
C3926 H3938 0.960 . S
C3926 H3939 0.962 . S
C3926 H3940 0.960 . S
C3927 C3924 1.511 . S
C3927 H3941 0.961 . S
C3927 H3942 0.961 . S
C3927 H3943 0.961 . S
C3928 C3929 1.370 . S
C3928 C3930 1.363 . S
C3928 H3944 0.931 . S
C3929 C3928 1.370 . S
C3929 C3933 1.408 . S
C3930 C3928 1.363 . S
C3930 C3931 1.370 . S
C3930 C3934 1.524 . S
C3931 C3923 1.503 . S
C3931 C3930 1.370 . S
C3931 C3932 1.403 . S
C3932 C3931 1.403 . S
C3932 C3933 1.404 . S
C3932 C3935 1.539 . S
C3933 C3929 1.408 . S
C3933 C3932 1.404 . S
C3933 H3945 0.930 . S
C3934 C3930 1.524 . S
C3934 H3946 0.956 . S
C3934 H3947 0.961 . S
C3934 H3948 0.961 . S
C3935 C3932 1.539 . S
C3935 H3949 0.958 . S
C3935 H3950 0.961 . S
C3935 H3951 0.960 . S
H3936 C3920 0.931 . S
H3937 C3925 0.929 . S
H3938 C3926 0.960 . S
H3939 C3926 0.962 . S
H3940 C3926 0.960 . S
H3941 C3927 0.961 . S
H3942 C3927 0.961 . S
H3943 C3927 0.961 . S
H3944 C3928 0.931 . S
H3945 C3933 0.930 . S
H3946 C3934 0.956 . S
H3947 C3934 0.961 . S
H3948 C3934 0.961 . S
H3949 C3935 0.958 . S
H3950 C3935 0.961 . S
H3951 C3935 0.960 . S
C3952 C3953 1.391 . S
C3952 C3954 1.394 . S
C3952 H3968 0.931 . S
C3953 C3952 1.391 . S
C3953 C3957 1.376 1_554 S
C3954 C3952 1.394 . S
C3954 C3955 1.369 . S
C3954 C3958 1.531 . S
C3955 C3954 1.369 . S
C3955 C3956 1.410 1_554 S
C3955 C3963 1.503 1_554 S
C3956 C3955 1.410 1_556 S
C3956 C3957 1.392 . S
C3956 C3959 1.511 . S
C3957 C3953 1.376 1_556 S
C3957 C3956 1.392 . S
C3957 H3969 0.929 . S
C3958 C3954 1.531 . S
C3958 H3970 0.960 . S
C3958 H3971 0.962 . S
C3958 H3972 0.960 . S
C3959 C3956 1.511 . S
C3959 H3973 0.961 . S
C3959 H3974 0.961 . S
C3959 H3975 0.961 . S
C3960 C3961 1.370 . S
C3960 C3962 1.363 . S
C3960 H3976 0.931 . S
C3961 C3960 1.370 . S
C3961 C3965 1.408 . S
C3962 C3960 1.363 . S
C3962 C3963 1.370 . S
C3962 C3966 1.524 . S
C3963 C3955 1.503 1_556 S
C3963 C3962 1.370 . S
C3963 C3964 1.403 1_556 S
C3964 C3963 1.403 1_554 S
C3964 C3965 1.404 1_554 S
C3964 C3967 1.539 . S
C3965 C3961 1.408 . S
C3965 C3964 1.404 1_556 S
C3965 H3977 0.930 . S
C3966 C3962 1.524 . S
C3966 H3978 0.956 . S
C3966 H3979 0.961 . S
C3966 H3980 0.961 . S
C3967 C3964 1.539 . S
C3967 H3981 0.958 . S
C3967 H3982 0.961 . S
C3967 H3983 0.960 . S
H3968 C3952 0.931 . S
H3969 C3957 0.929 . S
H3970 C3958 0.960 . S
H3971 C3958 0.962 . S
H3972 C3958 0.960 . S
H3973 C3959 0.961 . S
H3974 C3959 0.961 . S
H3975 C3959 0.961 . S
H3976 C3960 0.931 . S
H3977 C3965 0.930 . S
H3978 C3966 0.956 . S
H3979 C3966 0.961 . S
H3980 C3966 0.961 . S
H3981 C3967 0.958 . S
H3982 C3967 0.961 . S
H3983 C3967 0.960 . S
C3984 C3985 1.391 . S
C3984 C3986 1.394 . S
C3984 H4000 0.931 . S
C3985 C3984 1.391 . S
C3985 C3989 1.376 . S
C3986 C3984 1.394 . S
C3986 C3987 1.369 . S
C3986 C3990 1.531 . S
C3987 C3986 1.369 . S
C3987 C3988 1.410 . S
C3987 C3995 1.503 . S
C3988 C3987 1.410 . S
C3988 C3989 1.392 . S
C3988 C3991 1.511 . S
C3989 C3985 1.376 . S
C3989 C3988 1.392 . S
C3989 H4001 0.929 . S
C3990 C3986 1.531 . S
C3990 H4002 0.960 . S
C3990 H4003 0.962 . S
C3990 H4004 0.960 . S
C3991 C3988 1.511 . S
C3991 H4005 0.961 . S
C3991 H4006 0.961 . S
C3991 H4007 0.961 . S
C3992 C3993 1.370 . S
C3992 C3994 1.363 . S
C3992 H4008 0.931 . S
C3993 C3992 1.370 . S
C3993 C3997 1.408 . S
C3994 C3992 1.363 . S
C3994 C3995 1.370 . S
C3994 C3998 1.524 . S
C3995 C3987 1.503 . S
C3995 C3994 1.370 . S
C3995 C3996 1.403 . S
C3996 C3995 1.403 . S
C3996 C3997 1.404 . S
C3996 C3999 1.539 . S
C3997 C3993 1.408 . S
C3997 C3996 1.404 . S
C3997 H4009 0.930 . S
C3998 C3994 1.524 . S
C3998 H4010 0.956 . S
C3998 H4011 0.961 . S
C3998 H4012 0.961 . S
C3999 C3996 1.539 . S
C3999 H4013 0.958 . S
C3999 H4014 0.961 . S
C3999 H4015 0.960 . S
H4000 C3984 0.931 . S
H4001 C3989 0.929 . S
H4002 C3990 0.960 . S
H4003 C3990 0.962 . S
H4004 C3990 0.960 . S
H4005 C3991 0.961 . S
H4006 C3991 0.961 . S
H4007 C3991 0.961 . S
H4008 C3992 0.931 . S
H4009 C3997 0.930 . S
H4010 C3998 0.956 . S
H4011 C3998 0.961 . S
H4012 C3998 0.961 . S
H4013 C3999 0.958 . S
H4014 C3999 0.961 . S
H4015 C3999 0.960 . S
C4016 C4017 1.391 . S
C4016 C4018 1.394 . S
C4016 H4032 0.931 . S
C4017 C4016 1.391 . S
C4017 C4021 1.376 . S
C4018 C4016 1.394 . S
C4018 C4019 1.369 . S
C4018 C4022 1.531 . S
C4019 C4018 1.369 . S
C4019 C4020 1.410 . S
C4019 C4027 1.503 . S
C4020 C4019 1.410 . S
C4020 C4021 1.392 . S
C4020 C4023 1.511 . S
C4021 C4017 1.376 . S
C4021 C4020 1.392 . S
C4021 H4033 0.929 . S
C4022 C4018 1.531 . S
C4022 H4034 0.960 . S
C4022 H4035 0.962 . S
C4022 H4036 0.960 . S
C4023 C4020 1.511 . S
C4023 H4037 0.961 . S
C4023 H4038 0.961 . S
C4023 H4039 0.961 . S
C4024 C4025 1.370 . S
C4024 C4026 1.363 . S
C4024 H4040 0.931 . S
C4025 C4024 1.370 . S
C4025 C4029 1.408 . S
C4026 C4024 1.363 . S
C4026 C4027 1.370 . S
C4026 C4030 1.524 . S
C4027 C4019 1.503 . S
C4027 C4026 1.370 . S
C4027 C4028 1.403 . S
C4028 C4027 1.403 . S
C4028 C4029 1.404 . S
C4028 C4031 1.539 . S
C4029 C4025 1.408 . S
C4029 C4028 1.404 . S
C4029 H4041 0.930 . S
C4030 C4026 1.524 . S
C4030 H4042 0.956 . S
C4030 H4043 0.961 . S
C4030 H4044 0.961 . S
C4031 C4028 1.539 . S
C4031 H4045 0.958 . S
C4031 H4046 0.961 . S
C4031 H4047 0.960 . S
H4032 C4016 0.931 . S
H4033 C4021 0.929 . S
H4034 C4022 0.960 . S
H4035 C4022 0.962 . S
H4036 C4022 0.960 . S
H4037 C4023 0.961 . S
H4038 C4023 0.961 . S
H4039 C4023 0.961 . S
H4040 C4024 0.931 . S
H4041 C4029 0.930 . S
H4042 C4030 0.956 . S
H4043 C4030 0.961 . S
H4044 C4030 0.961 . S
H4045 C4031 0.958 . S
H4046 C4031 0.961 . S
H4047 C4031 0.960 . S
C977 C109 2.199 . S
C985 C346 2.155 1_556 S
C1009 C61 1.856 . S
C1017 C394 2.065 . S
C1041 C74 1.193 . S
C1049 C426 1.193 . S
C1081 C471 1.387 . S
C1073 C96 1.398 . S
C1105 C25 1.222 1_455 S
C1113 C511 1.161 . S
C1145 C542 0.387 . S
C1137 C40 0.373 . S
C1177 C594 1.386 . S
C1169 C46 1.418 . S
C1201 C5 1.400 . S
C1209 C626 1.681 . S
C1241 C354 2.349 . S
C1233 C229 2.090 . S
C1265 C249 0.441 . S
C1273 C391 0.517 . S
C1305 C434 1.142 . S
C1297 C271 0.907 . S
C1337 C466 1.445 . S
C1329 C172 1.383 . S
C1361 C236 1.840 . S
C1369 C506 1.816 . S
C1401 C545 1.609 . S
C1393 C242 1.607 . S
C1433 C591 0.346 . S
C1425 C278 0.198 . S
C1465 C634 2.117 . S
C1457 C179 2.125 . S
C1497 C351 1.432 1_565 S
C1489 C159 1.097 . S
C1521 C285 1.579 1_554 S
C1529 C674 1.853 . S
C1561 C715 2.504 . S
C1553 C333 2.540 . S
C1593 C746 0.551 1_655 S
C1585 C320 0.584 . S
C1617 C123 1.429 . S
C1625 C631 1.373 . S
C1649 C138 1.571 . S
C1657 C431 1.550 . S
C1681 C326 2.327 . S
C1689 C794 2.312 . S
C1721 C826 0.516 . S
C1713 C298 0.610 . S
C1753 C355 2.143 . S
C1745 C67 2.131 . S
C1785 C825 1.999 . S
C1777 C110 2.003 . S
C1809 C88 1.142 . S
C1817 C435 1.171 . S
C1841 C75 1.083 . S
C1849 C782 1.290 . S
C1881 C502 1.194 . S
C1873 C11 1.193 . S
C1905 C47 0.743 . S
C1913 C711 0.373 . S
C1945 C585 1.231 . S
C1937 C32 1.125 . S
C1977 C875 1.737 . S
C1969 C26 1.818 . S
C2009 C345 2.458 . S
C2001 C152 2.471 . S
C2041 C822 0.564 . S
C2033 C319 0.503 . S
C2065 C124 1.124 . S
C2073 C425 1.103 . S
C2097 C284 1.476 . S
C2105 C795 1.460 . S
C2129 C145 1.676 . S
C2137 C515 1.825 . S
C2169 C714 1.491 . S
C2161 C312 1.515 . S
C2193 C117 0.692 1_565 S
C2201 C582 0.361 . S
C2225 C291 2.017 . S
C2233 C865 2.041 . S
C2257 C194 1.514 . S
C2265 C342 1.493 . S
C2289 C180 1.828 . S
C2297 C665 1.828 . S
C2321 C263 2.431 . S
C2329 C546 2.370 . S
C2353 C243 0.716 . S
C2361 C755 0.536 . S
C2393 C862 1.434 . S
C2385 C277 1.455 . S
C2417 C215 1.364 . S
C2425 C422 1.517 . S
C2457 C465 2.211 . S
C2449 C256 2.178 . S
C2489 C395 0.581 . S
C2481 C200 0.651 . S
C2513 C81 2.201 . S
C2521 C906 2.163 . S
C2553 C834 2.059 . S
C2545 C89 1.793 . S
C2577 C102 1.183 . S
C2585 C946 1.192 . S
C2609 C68 1.393 . S
C2617 C791 1.392 . S
C2641 C53 1.231 . S
C2649 C671 1.166 . S
C2681 C702 0.394 . S
C2673 C12 0.372 . S
C2713 C754 1.384 . S
C2705 C18 1.380 . S
C2745 C866 1.683 . S
C2737 C33 1.396 . S
C2777 C914 2.343 . S
C2769 C257 2.040 . S
C2801 C193 0.437 . S
C2809 C831 0.492 . S
C2841 C954 1.152 . S
C2833 C201 0.938 . S
C2873 C786 1.459 . S
C2865 C214 1.440 . S
C2905 C666 1.828 . S
C2897 C264 1.823 . S
C2929 C186 1.586 . S
C2937 C705 1.598 . S
C2969 C751 0.328 . S
C2961 C208 0.229 . S
C2993 C221 2.125 . S
C3001 C874 2.106 . S
C3033 C911 1.422 . S
C3025 C313 1.218 . S
C3057 C131 1.671 . S
C3065 C514 1.859 . S
C3097 C555 2.509 . S
C3089 C151 2.546 . S
C3129 C586 0.620 . S
C3121 C166 0.660 . S
C3161 C871 1.388 . S
C3153 C305 1.421 . S
C3185 C292 1.588 . S
C3193 C951 1.537 . S
C3225 C474 2.312 . S
C3217 C144 2.327 . S
C3257 C386 0.562 . S
C3249 C116 0.573 . S
C3281 C95 2.116 . S
C3289 C915 2.152 . S
C3321 C385 1.996 . S
C3313 C82 2.001 . S
C3345 C60 1.148 . S
C3353 C955 1.176 . S
C3377 C103 1.148 . S
C3385 C462 1.301 . S
C3409 C39 1.222 . S
C3417 C662 1.184 . S
C3449 C551 0.419 . S
C3441 C19 0.654 . S
C3473 C4 1.105 . S
C3481 C745 1.234 . S
C3505 C54 1.802 . S
C3513 C635 1.761 . S
C3545 C905 2.462 . S
C3537 C334 2.469 . S
C3569 C165 0.503 . S
C3577 C382 0.564 . S
C3609 C945 1.103 . S
C3601 C306 1.124 . S
C3633 C130 1.466 . S
C3641 C475 1.466 . S
C3665 C327 1.678 . S
C3673 C675 1.828 . S
C3705 C554 1.495 . S
C3697 C158 1.491 . S
C3729 C299 0.796 . S
C3737 C742 0.389 . S
C3769 C625 2.037 . S
C3761 C137 2.026 . S
C3801 C902 1.484 . S
C3793 C250 1.502 . S
C3833 C505 1.821 . S
C3825 C222 1.822 . S
C3857 C235 2.431 . S
C3865 C706 2.368 . S
C3897 C595 0.533 . S
C3889 C187 0.731 . S
C3921 C207 1.394 . S
C3929 C622 1.450 . S
C3953 C173 1.361 . S
C3961 C942 1.523 . S
C3993 C785 2.202 . S
C3985 C228 2.145 1_565 S
C4025 C835 0.651 . S
C4017 C270 0.532 . S
