# Generated by pormake.
# Topology wbl, (4,4)-cn, num edge types: 1
# Building blocks:
#     Node 0, Type 0, BuildingBlock: MUDLON_clean_sbu_0, # of connection points: 4
#     Node 1, Type 0, BuildingBlock: MUDLON_clean_sbu_0, # of connection points: 4
#     Node 2, Type 0, BuildingBlock: MUDLON_clean_sbu_0, # of connection points: 4
#     Node 3, Type 0, BuildingBlock: MUDLON_clean_sbu_0, # of connection points: 4
#     Node 4, Type 0, BuildingBlock: MUDLON_clean_sbu_0, # of connection points: 4
#     Node 5, Type 0, BuildingBlock: MUDLON_clean_sbu_0, # of connection points: 4
#     Node 6, Type 0, BuildingBlock: MUDLON_clean_sbu_0, # of connection points: 4
#     Node 7, Type 0, BuildingBlock: MUDLON_clean_sbu_0, # of connection points: 4
#     Node 8, Type 1, BuildingBlock: TATPOV_clean_sbu_0, # of connection points: 4
#     Node 9, Type 1, BuildingBlock: TATPOV_clean_sbu_0, # of connection points: 4
#     Node 10, Type 1, BuildingBlock: TATPOV_clean_sbu_0, # of connection points: 4
#     Node 11, Type 1, BuildingBlock: TATPOV_clean_sbu_0, # of connection points: 4
#     Node 12, Type 1, BuildingBlock: TATPOV_clean_sbu_0, # of connection points: 4
#     Node 13, Type 1, BuildingBlock: TATPOV_clean_sbu_0, # of connection points: 4
#     Node 14, Type 1, BuildingBlock: TATPOV_clean_sbu_0, # of connection points: 4
#     Node 15, Type 1, BuildingBlock: TATPOV_clean_sbu_0, # of connection points: 4
#     Edge 16, Type (0, 1), BuildingBlock: KIFKEQ_clean_linker_1, # of connection points: 2
#     Edge 17, Type (0, 1), BuildingBlock: KIFKEQ_clean_linker_1, # of connection points: 2
#     Edge 18, Type (0, 1), BuildingBlock: KIFKEQ_clean_linker_1, # of connection points: 2
#     Edge 19, Type (0, 1), BuildingBlock: KIFKEQ_clean_linker_1, # of connection points: 2
#     Edge 20, Type (0, 1), BuildingBlock: KIFKEQ_clean_linker_1, # of connection points: 2
#     Edge 21, Type (0, 1), BuildingBlock: KIFKEQ_clean_linker_1, # of connection points: 2
#     Edge 22, Type (0, 1), BuildingBlock: KIFKEQ_clean_linker_1, # of connection points: 2
#     Edge 23, Type (0, 1), BuildingBlock: KIFKEQ_clean_linker_1, # of connection points: 2
#     Edge 24, Type (0, 1), BuildingBlock: KIFKEQ_clean_linker_1, # of connection points: 2
#     Edge 25, Type (0, 1), BuildingBlock: KIFKEQ_clean_linker_1, # of connection points: 2
#     Edge 26, Type (0, 1), BuildingBlock: KIFKEQ_clean_linker_1, # of connection points: 2
#     Edge 27, Type (0, 1), BuildingBlock: KIFKEQ_clean_linker_1, # of connection points: 2
#     Edge 28, Type (0, 1), BuildingBlock: KIFKEQ_clean_linker_1, # of connection points: 2
#     Edge 29, Type (0, 1), BuildingBlock: KIFKEQ_clean_linker_1, # of connection points: 2
#     Edge 30, Type (0, 1), BuildingBlock: KIFKEQ_clean_linker_1, # of connection points: 2
#     Edge 31, Type (0, 1), BuildingBlock: KIFKEQ_clean_linker_1, # of connection points: 2
#     Edge 32, Type (0, 1), BuildingBlock: KIFKEQ_clean_linker_1, # of connection points: 2
#     Edge 33, Type (0, 1), BuildingBlock: KIFKEQ_clean_linker_1, # of connection points: 2
#     Edge 34, Type (0, 1), BuildingBlock: KIFKEQ_clean_linker_1, # of connection points: 2
#     Edge 35, Type (0, 1), BuildingBlock: KIFKEQ_clean_linker_1, # of connection points: 2
#     Edge 36, Type (0, 1), BuildingBlock: KIFKEQ_clean_linker_1, # of connection points: 2
#     Edge 37, Type (0, 1), BuildingBlock: KIFKEQ_clean_linker_1, # of connection points: 2
#     Edge 38, Type (0, 1), BuildingBlock: KIFKEQ_clean_linker_1, # of connection points: 2
#     Edge 39, Type (0, 1), BuildingBlock: KIFKEQ_clean_linker_1, # of connection points: 2
#     Edge 40, Type (0, 1), BuildingBlock: KIFKEQ_clean_linker_1, # of connection points: 2
#     Edge 41, Type (0, 1), BuildingBlock: KIFKEQ_clean_linker_1, # of connection points: 2
#     Edge 42, Type (0, 1), BuildingBlock: KIFKEQ_clean_linker_1, # of connection points: 2
#     Edge 43, Type (0, 1), BuildingBlock: KIFKEQ_clean_linker_1, # of connection points: 2
#     Edge 44, Type (0, 1), BuildingBlock: KIFKEQ_clean_linker_1, # of connection points: 2
#     Edge 45, Type (0, 1), BuildingBlock: KIFKEQ_clean_linker_1, # of connection points: 2
#     Edge 46, Type (0, 1), BuildingBlock: KIFKEQ_clean_linker_1, # of connection points: 2
#     Edge 47, Type (0, 1), BuildingBlock: KIFKEQ_clean_linker_1, # of connection points: 2
# Relax obj value: 0.243
# Max RMSD: 0.232
# Mean RMSD: 0.173
data_MOF--net-wbl--node1-MUDLON_clean_sbu_0--node2-TATPOV_clean_sbu_0--edge1-KIFKEQ_clean_linker_1
_symmetry_space_group_name_H-M    P1
_symmetry_Int_Tables_number       1
_symmetry_cell_setting            triclinic
loop_
_symmetry_equiv_pos_as_xyz
'x, y, z'
_cell_length_a     35.27764
_cell_length_b     35.25609
_cell_length_c     75.114553
_cell_angle_alpha  91.249973
_cell_angle_beta   91.256173
_cell_angle_gamma 89.961892
loop_
_atom_site_label
_atom_site_type_symbol
_atom_site_fract_x
_atom_site_fract_y
_atom_site_fract_z
_atom_type_partial_charge
Mg0 Mg 0.16863 0.19681 0.35469 0.0
C1 C 0.13664 0.16416 0.38795 0.0
O2 O 0.12578 0.19952 0.39024 0.0
C3 C 0.08747 0.19979 0.34136 0.0
O4 O 0.08598 0.16846 0.35046 0.0
C5 C 0.1937 0.14248 0.32721 0.0
O6 O 0.15692 0.13687 0.32768 0.0
O7 O 0.20816 0.16882 0.33701 0.0
O8 O 0.15288 0.1544 0.3736 0.0
O9 O 0.19125 0.24083 0.37242 0.0
C10 C 0.17096 0.27026 0.37468 0.0
O11 O 0.14659 0.27918 0.36197 0.0
O12 O 0.11882 0.21727 0.34047 0.0
Mg13 Mg 0.03101 0.6438 0.6059 0.0
C14 C 0.07518 0.60802 0.63603 0.0
O15 O 0.04201 0.59271 0.63893 0.0
C16 C 0.04066 0.57345 0.58244 0.0
O17 O 0.07574 0.57613 0.58856 0.0
C18 C 0.08278 0.68956 0.58612 0.0
O19 O 0.09925 0.6564 0.58794 0.0
O20 O 0.04989 0.69428 0.59245 0.0
O21 O 0.07919 0.62804 0.62233 0.0
O22 O 0.98694 0.64886 0.62558 0.0
C23 C 0.96076 0.62404 0.62503 0.0
O24 O 0.95535 0.60404 0.61023 0.0
O25 O 0.01662 0.59838 0.5871 0.0
Mg26 Mg 0.54869 0.4631 0.85266 0.0
C27 C 0.58927 0.50888 0.88149 0.0
O28 O 0.6004 0.47492 0.88622 0.0
C29 C 0.59319 0.4475 0.81869 0.0
O30 O 0.56854 0.47106 0.81162 0.0
C31 C 0.47821 0.50743 0.8475 0.0
O32 O 0.48507 0.51249 0.86465 0.0
O33 O 0.49918 0.48474 0.83873 0.0
O34 O 0.57073 0.51242 0.86692 0.0
O35 O 0.5368 0.42508 0.87412 0.0
C36 C 0.55807 0.39644 0.87646 0.0
O37 O 0.58127 0.38631 0.86376 0.0
O38 O 0.59096 0.43959 0.83506 0.0
Mg39 Mg 0.67384 0.01174 0.11139 0.0
C40 C 0.75388 0.02281 0.12752 0.0
O41 O 0.75976 0.04289 0.11333 0.0
C42 C 0.63872 0.96884 0.08062 0.0
O43 O 0.63722 0.0036 0.07469 0.0
C44 C 0.70555 0.06099 0.08273 0.0
O45 O 0.72363 0.02925 0.0791 0.0
O46 O 0.68195 0.06175 0.09531 0.0
O47 O 0.72392 0.003 0.12819 0.0
O48 O 0.63047 0.0203 0.1313 0.0
C49 C 0.63534 0.9993 0.14474 0.0
O50 O 0.66353 0.97497 0.1448 0.0
O51 O 0.65491 0.96295 0.09558 0.0
Mg52 Mg 0.04938 0.62335 0.91882 0.0
C53 C 0.06874 0.70216 0.90542 0.0
O54 O 0.08998 0.70423 0.91997 0.0
C55 C 0.97333 0.59844 0.93338 0.0
O56 O 0.96241 0.60001 0.91658 0.0
C57 C 0.10623 0.64431 0.94711 0.0
O58 O 0.07576 0.66137 0.95308 0.0
O59 O 0.10367 0.62445 0.9328 0.0
O60 O 0.0451 0.67508 0.90349 0.0
O61 O 0.04721 0.57909 0.89829 0.0
C62 C 0.02594 0.58663 0.88494 0.0
O63 O 0.0076 0.61906 0.88488 0.0
O64 O 0.00645 0.60966 0.93796 0.0
Mg65 Mg 0.49387 0.51448 0.17447 0.0
C66 C 0.4286 0.5417 0.15247 0.0
O67 O 0.43359 0.57073 0.16351 0.0
C68 C 0.52098 0.46669 0.20501 0.0
O69 O 0.51874 0.49964 0.21342 0.0
C70 C 0.45925 0.56614 0.20177 0.0
O71 O 0.43537 0.53755 0.20188 0.0
O72 O 0.48789 0.56391 0.19183 0.0
O73 O 0.44626 0.51104 0.15561 0.0
O74 O 0.53999 0.52041 0.15618 0.0
C75 C 0.53752 0.49562 0.14365 0.0
O76 O 0.50981 0.47076 0.14388 0.0
O77 O 0.50876 0.46384 0.18898 0.0
Mg78 Mg 0.64275 0.03361 0.42296 0.0
C79 C 0.64744 0.10642 0.40293 0.0
O80 O 0.67211 0.11403 0.41586 0.0
C81 C 0.5731 0.04403 0.4466 0.0
O82 O 0.57529 0.07955 0.44177 0.0
C83 C 0.69869 0.05325 0.45319 0.0
O84 O 0.67109 0.04118 0.46307 0.0
O85 O 0.69482 0.05151 0.43635 0.0
O86 O 0.62764 0.07641 0.40366 0.0
O87 O 0.65063 0.98404 0.40608 0.0
C88 C 0.66431 0.98912 0.3908 0.0
O89 O 0.67953 0.02216 0.38747 0.0
O90 O 0.59755 0.02034 0.44104 0.0
Mg91 Mg 0.22949 0.13265 0.67542 0.0
C92 C 0.30641 0.16406 0.6626 0.0
O93 O 0.33658 0.18576 0.66426 0.0
C94 C 0.15272 0.15854 0.68548 0.0
O95 O 0.14512 0.12724 0.67627 0.0
C96 C 0.2611 0.07511 0.70082 0.0
O97 O 0.28564 0.1027 0.7037 0.0
O98 O 0.23435 0.07959 0.68944 0.0
O99 O 0.28396 0.16204 0.6756 0.0
O100 O 0.20703 0.12395 0.64863 0.0
C101 C 0.20479 0.15316 0.63906 0.0
O102 O 0.21674 0.18585 0.64578 0.0
O103 O 0.18717 0.16821 0.68801 0.0
Zn104 Zn 0.44195 0.75183 0.9805 0.0
Zn105 Zn 0.44585 0.69714 0.00559 0.0
O106 O 0.39079 0.6987 0.99629 0.0
O107 O 0.3854 0.74414 0.97682 0.0
O108 O 0.44264 0.65945 0.02548 0.0
O109 O 0.46212 0.79019 0.99858 0.0
O110 O 0.46896 0.74468 0.01803 0.0
C111 C 0.3706 0.71773 0.98545 0.0
C112 C 0.49182 0.68694 0.97237 0.0
O113 O 0.48117 0.67407 0.98717 0.0
O114 O 0.47944 0.71857 0.96695 0.0
C115 C 0.41356 0.66102 0.03522 0.0
O116 O 0.38772 0.68704 0.03212 0.0
C117 C 0.47314 0.77921 0.01377 0.0
Zn118 Zn 0.40093 0.8618 0.29689 0.0
Zn119 Zn 0.43408 0.89797 0.26981 0.0
O120 O 0.38945 0.93274 0.27632 0.0
O121 O 0.35985 0.90201 0.29711 0.0
O122 O 0.45672 0.9233 0.24874 0.0
O123 O 0.39604 0.81402 0.28165 0.0
O124 O 0.4227 0.84436 0.25991 0.0
C125 C 0.36239 0.93051 0.28722 0.0
C126 C 0.47843 0.88641 0.30454 0.0
O127 O 0.47676 0.89827 0.28865 0.0
O128 O 0.44983 0.87069 0.31118 0.0
C129 C 0.47767 0.95253 0.25041 0.0
O130 O 0.48459 0.96719 0.26638 0.0
C131 C 0.40843 0.81418 0.26597 0.0
Zn132 Zn 0.25481 0.92318 0.49001 0.0
Zn133 Zn 0.2553 0.9724 0.51753 0.0
O134 O 0.31069 0.97159 0.50904 0.0
O135 O 0.31103 0.93034 0.48667 0.0
O136 O 0.25991 0.00376 0.54035 0.0
O137 O 0.23458 0.88107 0.50461 0.0
O138 O 0.23116 0.92298 0.52662 0.0
C139 C 0.32843 0.95412 0.49673 0.0
C140 C 0.20822 0.99077 0.48467 0.0
O141 O 0.2208 0.0013 0.50004 0.0
O142 O 0.21777 0.9589 0.47801 0.0
C143 C 0.24531 0.03591 0.54398 0.0
O144 O 0.22416 0.05277 0.53191 0.0
C145 C 0.22512 0.88956 0.52035 0.0
Zn146 Zn 0.31636 0.73946 0.74606 0.0
Zn147 Zn 0.25805 0.74412 0.76838 0.0
O148 O 0.2681 0.79967 0.76153 0.0
O149 O 0.31719 0.79634 0.74397 0.0
O150 O 0.21682 0.74886 0.78661 0.0
O151 O 0.34867 0.71282 0.76418 0.0
O152 O 0.29973 0.71398 0.78183 0.0
C153 C 0.29219 0.81587 0.75181 0.0
C154 C 0.24826 0.70014 0.73333 0.0
O155 O 0.23425 0.71276 0.7478 0.0
O156 O 0.28231 0.70757 0.72963 0.0
C157 C 0.22584 0.76132 0.80214 0.0
O158 O 0.26117 0.77134 0.80556 0.0
C159 C 0.33364 0.70377 0.77863 0.0
Zn160 Zn 0.946 0.24093 0.54315 0.0
Zn161 Zn 0.98735 0.24505 0.51348 0.0
O162 O 0.98192 0.30026 0.52216 0.0
O163 O 0.94823 0.298 0.54641 0.0
O164 O 0.01703 0.25134 0.49116 0.0
O165 O 0.90357 0.21623 0.52893 0.0
O166 O 0.93871 0.21658 0.50505 0.0
C167 C 0.96627 0.31702 0.53527 0.0
C168 C 0.01838 0.20175 0.54522 0.0
O169 O 0.0226 0.21444 0.52965 0.0
O170 O 0.98811 0.2084 0.55353 0.0
C171 C 0.05078 0.26404 0.49212 0.0
O172 O 0.0663 0.2717 0.50785 0.0
C173 C 0.90804 0.20775 0.51265 0.0
Zn174 Zn 0.90873 0.33721 0.77315 0.0
Zn175 Zn 0.91109 0.39465 0.74985 0.0
O176 O 0.85432 0.38749 0.75485 0.0
O177 O 0.85157 0.33917 0.77283 0.0
O178 O 0.91012 0.43651 0.73182 0.0
O179 O 0.93692 0.3036 0.75594 0.0
O180 O 0.94085 0.35121 0.73756 0.0
C181 C 0.83502 0.36489 0.76408 0.0
C182 C 0.948 0.40454 0.78677 0.0
O183 O 0.93959 0.41737 0.77146 0.0
O184 O 0.93817 0.37124 0.79076 0.0
C185 C 0.93817 0.45845 0.72968 0.0
O186 O 0.96923 0.45366 0.73935 0.0
C187 C 0.94861 0.31705 0.74157 0.0
Zn188 Zn 0.80088 0.39147 0.04418 0.0
Zn189 Zn 0.74678 0.38884 0.01794 0.0
O190 O 0.753 0.33365 0.02531 0.0
O191 O 0.79991 0.33356 0.04509 0.0
O192 O 0.71104 0.38434 0.99676 0.0
O193 O 0.836 0.42057 0.0283 0.0
O194 O 0.79178 0.41666 0.00724 0.0
C195 C 0.77473 0.31576 0.03598 0.0
C196 C 0.72968 0.43013 0.05265 0.0
O197 O 0.71937 0.4201 0.03687 0.0
O198 O 0.76231 0.42124 0.05866 0.0
C199 C 0.67559 0.37798 0.99697 0.0
O200 O 0.65875 0.37478 0.01229 0.0
C201 C 0.82439 0.42794 0.01268 0.0
Zn202 Zn 0.81572 0.27788 0.23801 0.0
Zn203 Zn 0.7766 0.23639 0.26134 0.0
O204 O 0.73863 0.27788 0.25394 0.0
O205 O 0.77026 0.31249 0.23526 0.0
O206 O 0.75107 0.20988 0.28137 0.0
O207 O 0.85838 0.28786 0.25597 0.0
O208 O 0.82611 0.25255 0.27404 0.0
C209 C 0.74002 0.30568 0.24342 0.0
C210 C 0.80291 0.19862 0.22707 0.0
O211 O 0.78545 0.19607 0.24169 0.0
O212 O 0.81762 0.22986 0.22279 0.0
C213 C 0.71566 0.208 0.28406 0.0
O214 O 0.69164 0.22216 0.27236 0.0
C215 C 0.85553 0.27193 0.27082 0.0
H216 H 0.27126 0.14259 0.32465 0.0
H217 H 0.1709 0.08019 0.3077 0.0
H218 H 0.31089 0.09246 0.31187 0.0
H219 H 0.21048 0.0304 0.29496 0.0
H220 H 0.29396 0.92946 0.30333 0.0
H221 H 0.25269 0.98307 0.30995 0.0
H222 H 0.32871 0.0577 0.28315 0.0
H223 H 0.37025 0.00381 0.27643 0.0
C224 C 0.25765 0.11855 0.31795 0.0
C225 C 0.21792 0.11519 0.31739 0.0
C226 C 0.28035 0.08994 0.31056 0.0
C227 C 0.26374 0.05736 0.30258 0.0
C228 C 0.22405 0.05495 0.30125 0.0
C229 C 0.20141 0.08358 0.30851 0.0
C230 C 0.30169 0.95718 0.29863 0.0
C231 C 0.33543 0.96238 0.2894 0.0
C232 C 0.27792 0.98788 0.30235 0.0
C233 C 0.28752 0.02459 0.29708 0.0
C234 C 0.32077 0.02974 0.28746 0.0
C235 C 0.34436 0.99886 0.28352 0.0
H236 H 0.0604 0.76364 0.58118 0.0
H237 H 0.15174 0.68491 0.5709 0.0
H238 H 0.09533 0.81325 0.56602 0.0
H239 H 0.18635 0.73411 0.55613 0.0
H240 H 0.21426 0.81475 0.51194 0.0
H241 H 0.17902 0.76815 0.52821 0.0
H242 H 0.15525 0.85248 0.56902 0.0
H243 H 0.19043 0.89971 0.55254 0.0
C244 C 0.08784 0.75694 0.57573 0.0
C245 C 0.10312 0.72025 0.57714 0.0
C246 C 0.10793 0.78537 0.56718 0.0
C247 C 0.14349 0.77749 0.55979 0.0
C248 C 0.15879 0.74094 0.56143 0.0
C249 C 0.13891 0.71274 0.56997 0.0
C250 C 0.20172 0.82347 0.52442 0.0
C251 C 0.20532 0.86098 0.53096 0.0
C252 C 0.18159 0.79666 0.53378 0.0
C253 C 0.16441 0.80661 0.54992 0.0
C254 C 0.16792 0.84409 0.55653 0.0
C255 C 0.18834 0.871 0.54718 0.0
H256 H 0.46417 0.51132 0.81164 0.0
H257 H 0.43201 0.56156 0.86211 0.0
H258 H 0.42739 0.55933 0.79606 0.0
H259 H 0.39553 0.60988 0.84644 0.0
H260 H 0.30802 0.67067 0.80892 0.0
H261 H 0.33958 0.62111 0.82611 0.0
H262 H 0.43704 0.62825 0.79255 0.0
H263 H 0.40577 0.67722 0.77538 0.0
C264 C 0.44887 0.53227 0.81942 0.0
C265 C 0.45134 0.5328 0.83812 0.0
C266 C 0.42806 0.55999 0.81049 0.0
C267 C 0.40913 0.58876 0.82004 0.0
C268 C 0.40982 0.58807 0.83873 0.0
C269 C 0.43079 0.56041 0.84769 0.0
C270 C 0.33637 0.66198 0.80536 0.0
C271 C 0.35423 0.67774 0.79068 0.0
C272 C 0.35439 0.63357 0.81519 0.0
C273 C 0.39047 0.6203 0.81045 0.0
C274 C 0.40885 0.6372 0.79625 0.0
C275 C 0.39101 0.66557 0.78651 0.0
H276 H 0.61399 0.90172 0.09384 0.0
H277 H 0.61471 0.96735 0.04597 0.0
H278 H 0.57198 0.8554 0.07903 0.0
H279 H 0.57425 0.92042 0.0309 0.0
H280 H 0.47039 0.85633 0.01378 0.0
H281 H 0.51066 0.90062 0.03068 0.0
H282 H 0.56576 0.80676 0.05686 0.0
H283 H 0.52405 0.76254 0.04046 0.0
C284 C 0.60576 0.90584 0.08004 0.0
C285 C 0.61741 0.93828 0.07109 0.0
C286 C 0.58168 0.87927 0.07153 0.0
C287 C 0.56915 0.88439 0.05383 0.0
C288 C 0.58232 0.91607 0.0447 0.0
C289 C 0.60588 0.94282 0.05327 0.0
C290 C 0.49076 0.8452 0.02332 0.0
C291 C 0.4942 0.80597 0.02573 0.0
C292 C 0.51419 0.87056 0.03289 0.0
C293 C 0.54212 0.8573 0.04488 0.0
C294 C 0.5445 0.81806 0.04781 0.0
C295 C 0.52059 0.79267 0.03841 0.0
H296 H 0.12518 0.70367 0.96938 0.0
H297 H 0.17208 0.6045 0.94315 0.0
H298 H 0.18846 0.72148 0.98051 0.0
H299 H 0.23528 0.62211 0.9546 0.0
H300 H 0.33578 0.65129 0.99332 0.0
H301 H 0.27062 0.63223 0.98588 0.0
H302 H 0.24937 0.74166 0.96302 0.0
H303 H 0.31473 0.76067 0.97014 0.0
C304 C 0.14888 0.68535 0.96623 0.0
C305 C 0.14374 0.65273 0.95535 0.0
C306 C 0.18504 0.69569 0.97253 0.0
C307 C 0.21657 0.67319 0.96835 0.0
C308 C 0.21129 0.63978 0.95807 0.0
C309 C 0.17522 0.62981 0.95149 0.0
C310 C 0.31713 0.67142 0.98684 0.0
C311 C 0.3304 0.70744 0.98223 0.0
C312 C 0.27996 0.66042 0.98254 0.0
C313 C 0.25518 0.68549 0.97388 0.0
C314 C 0.26797 0.72193 0.96981 0.0
C315 C 0.30535 0.73271 0.9738 0.0
H316 H 0.3962 0.58317 0.22088 0.0
H317 H 0.50268 0.63024 0.20449 0.0
H318 H 0.3803 0.64348 0.23534 0.0
H319 H 0.48719 0.6902 0.21931 0.0
H320 H 0.434 0.80353 0.23208 0.0
H321 H 0.44431 0.7434 0.2163 0.0
H322 H 0.39888 0.68327 0.26058 0.0
H323 H 0.38768 0.7433 0.27616 0.0
C324 C 0.41639 0.60627 0.2205 0.0
C325 C 0.45071 0.60192 0.21152 0.0
C326 C 0.40728 0.64082 0.22882 0.0
C327 C 0.43234 0.67176 0.22838 0.0
C328 C 0.4669 0.66718 0.2196 0.0
C329 C 0.47596 0.63269 0.21125 0.0
C330 C 0.4257 0.77752 0.23834 0.0
C331 C 0.4102 0.77826 0.25543 0.0
C332 C 0.43194 0.74303 0.22937 0.0
C333 C 0.42289 0.7085 0.23728 0.0
C334 C 0.40595 0.70933 0.25405 0.0
C335 C 0.39962 0.74381 0.263 0.0
H336 H 0.55957 0.97219 0.45792 0.0
H337 H 0.51335 0.08574 0.45913 0.0
H338 H 0.50386 0.94913 0.47293 0.0
H339 H 0.45731 0.06248 0.47393 0.0
H340 H 0.37062 0.01347 0.51072 0.0
H341 H 0.43281 0.03468 0.50122 0.0
H342 H 0.43765 0.93968 0.46405 0.0
H343 H 0.37603 0.91826 0.47363 0.0
C344 C 0.53766 0.99233 0.4615 0.0
C345 C 0.5408 0.0308 0.45716 0.0
C346 C 0.50564 0.97904 0.47005 0.0
C347 C 0.47598 0.00387 0.47452 0.0
C348 C 0.47979 0.04262 0.47083 0.0
C349 C 0.51183 0.05593 0.46223 0.0
C350 C 0.38526 0.99674 0.50074 0.0
C351 C 0.3682 0.96425 0.49287 0.0
C352 C 0.42077 0.00909 0.4952 0.0
C353 C 0.4401 0.98904 0.48179 0.0
C354 C 0.42376 0.95562 0.47452 0.0
C355 C 0.38826 0.94343 0.47997 0.0
H356 H 0.31982 0.05309 0.72257 0.0
H357 H 0.21109 0.01579 0.70113 0.0
H358 H 0.32735 0.99293 0.73772 0.0
H359 H 0.21879 0.95559 0.71627 0.0
H360 H 0.2313 0.86274 0.75719 0.0
H361 H 0.22326 0.9277 0.74689 0.0
H362 H 0.33742 0.92601 0.7273 0.0
H363 H 0.34553 0.86139 0.73754 0.0
C364 C 0.29743 0.03217 0.72116 0.0
C365 C 0.26496 0.03914 0.71054 0.0
C366 C 0.30181 0.99769 0.72982 0.0
C367 C 0.27367 0.96957 0.72819 0.0
C368 C 0.24076 0.9769 0.71794 0.0
C369 C 0.23652 0.01125 0.70915 0.0
C370 C 0.2549 0.87651 0.75098 0.0
C371 C 0.28898 0.85684 0.74809 0.0
C372 C 0.25017 0.91356 0.74496 0.0
C373 C 0.27961 0.93182 0.73618 0.0
C374 C 0.3143 0.91281 0.73412 0.0
C375 C 0.31887 0.8757 0.73993 0.0
H376 H 0.64774 0.3978 0.82951 0.0
H377 H 0.60946 0.46081 0.78379 0.0
H378 H 0.70148 0.37437 0.81297 0.0
H379 H 0.66321 0.43649 0.76697 0.0
H380 H 0.79419 0.42874 0.75636 0.0
H381 H 0.73157 0.44541 0.76715 0.0
H382 H 0.72058 0.33351 0.78881 0.0
H383 H 0.7836 0.31725 0.77849 0.0
C384 C 0.65052 0.40631 0.81583 0.0
C385 C 0.62439 0.43139 0.80802 0.0
C386 C 0.68122 0.39254 0.80626 0.0
C387 C 0.68662 0.40337 0.78858 0.0
C388 C 0.66003 0.42782 0.7806 0.0
C389 C 0.62917 0.44164 0.79022 0.0
C390 C 0.77805 0.40739 0.76305 0.0
C391 C 0.79414 0.37189 0.76684 0.0
C392 C 0.74205 0.41693 0.76921 0.0
C393 C 0.72136 0.39105 0.77917 0.0
C394 C 0.7362 0.35445 0.78159 0.0
C395 C 0.77223 0.34504 0.77557 0.0
H396 H 0.76861 0.07494 0.06346 0.0
H397 H 0.66461 0.12674 0.08119 0.0
H398 H 0.78673 0.13449 0.04986 0.0
H399 H 0.68258 0.18604 0.06735 0.0
H400 H 0.71173 0.27462 0.02634 0.0
H401 H 0.69503 0.2111 0.0358 0.0
H402 H 0.80351 0.20155 0.063 0.0
H403 H 0.82024 0.2654 0.05377 0.0
C404 C 0.74941 0.09887 0.06427 0.0
C405 C 0.71519 0.09618 0.07343 0.0
C406 C 0.7599 0.13296 0.05656 0.0
C407 C 0.73605 0.16479 0.05755 0.0
C408 C 0.70136 0.1618 0.06626 0.0
C409 C 0.69117 0.12794 0.07425 0.0
C410 C 0.73234 0.2588 0.03408 0.0
C411 C 0.76729 0.27519 0.03938 0.0
C412 C 0.72262 0.22253 0.03958 0.0
C413 C 0.74785 0.20159 0.05023 0.0
C414 C 0.78359 0.21706 0.05474 0.0
C415 C 0.79311 0.25363 0.04948 0.0
H416 H 0.0785 0.26776 0.32482 0.0
H417 H 0.01841 0.16551 0.33769 0.0
H418 H 0.02155 0.29185 0.30991 0.0
H419 H 0.96202 0.18898 0.32238 0.0
H420 H 0.85686 0.24765 0.30511 0.0
H421 H 0.91254 0.23519 0.3238 0.0
H422 H 0.98437 0.27961 0.2833 0.0
H423 H 0.92862 0.29323 0.26488 0.0
C424 C 0.05317 0.25038 0.32442 0.0
C425 C 0.053 0.21465 0.33238 0.0
C426 C 0.02056 0.26416 0.31584 0.0
C427 C 0.98712 0.24244 0.31498 0.0
C428 C 0.98699 0.20684 0.32308 0.0
C429 C 0.01948 0.19319 0.33173 0.0
C430 C 0.88448 0.25548 0.30035 0.0
C431 C 0.88833 0.27106 0.28343 0.0
C432 C 0.91644 0.24802 0.31101 0.0
C433 C 0.95301 0.25568 0.30491 0.0
C434 C 0.95667 0.2735 0.28847 0.0
C435 C 0.92465 0.28126 0.27787 0.0
H436 H 0.96836 0.55396 0.57208 0.0
H437 H 0.08477 0.51651 0.56886 0.0
H438 H 0.94729 0.49501 0.55742 0.0
H439 H 0.06357 0.45751 0.55433 0.0
H440 H 0.01577 0.36375 0.51875 0.0
H441 H 0.03178 0.42925 0.52709 0.0
H442 H 0.94697 0.4284 0.56768 0.0
H443 H 0.93079 0.36319 0.55935 0.0
C444 C 0.9895 0.5334 0.56805 0.0
C445 C 0.02824 0.53975 0.57179 0.0
C446 C 0.97738 0.4996 0.55971 0.0
C447 C 0.00375 0.4716 0.55483 0.0
C448 C 0.0426 0.47872 0.5578 0.0
C449 C 0.05472 0.51241 0.56624 0.0
C450 C 6e-05 0.37776 0.52924 0.0
C451 C 0.97222 0.35816 0.5385 0.0
C452 C 0.00941 0.41518 0.53406 0.0
C453 C 0.99081 0.43382 0.5481 0.0
C454 C 0.96159 0.41489 0.55671 0.0
C455 C 0.95248 0.37743 0.552 0.0
H456 H 0.71949 0.05703 0.48844 0.0
H457 H 0.75319 0.09368 0.43659 0.0
H458 H 0.77154 0.09323 0.50222 0.0
H459 H 0.80438 0.13092 0.45039 0.0
H460 H 0.91279 0.16913 0.48065 0.0
H461 H 0.8642 0.12916 0.4661 0.0
H462 H 0.78666 0.15815 0.50804 0.0
H463 H 0.83534 0.19684 0.52277 0.0
C464 C 0.73805 0.07274 0.47998 0.0
C465 C 0.73208 0.0726 0.46145 0.0
C466 C 0.76773 0.09376 0.48788 0.0
C467 C 0.79191 0.11543 0.47744 0.0
C468 C 0.78657 0.11434 0.45884 0.0
C469 C 0.75708 0.09307 0.45093 0.0
C470 C 0.88528 0.16707 0.48668 0.0
C471 C 0.878 0.18598 0.50291 0.0
C472 C 0.8574 0.14421 0.47834 0.0
C473 C 0.82162 0.14004 0.48601 0.0
C474 C 0.81417 0.15986 0.50199 0.0
C475 C 0.84203 0.18237 0.51036 0.0
H476 H 0.15725 0.22972 0.70079 0.0
H477 H 0.0773 0.14148 0.6854 0.0
H478 H 0.10529 0.26862 0.71209 0.0
H479 H 0.02554 0.18041 0.69665 0.0
H480 H 0.95794 0.24039 0.74188 0.0
H481 H 0.00606 0.20282 0.72685 0.0
H482 H 0.04636 0.30331 0.70141 0.0
H483 H 0.998 0.34118 0.71652 0.0
C484 C 0.12863 0.21865 0.69979 0.0
C485 C 0.12145 0.1824 0.6923 0.0
C486 C 0.09885 0.24107 0.70611 0.0
C487 C 0.06136 0.22755 0.70522 0.0
C488 C 0.05418 0.19145 0.69762 0.0
C489 C 0.08386 0.1692 0.69116 0.0
C490 C 0.97669 0.25444 0.73289 0.0
C491 C 0.97425 0.29379 0.73044 0.0
C492 C 0.00418 0.23286 0.72423 0.0
C493 C 0.03013 0.25018 0.71305 0.0
C494 C 0.02695 0.28932 0.71011 0.0
C495 C 0.99907 0.3109 0.71863 0.0
H496 H 0.99676 0.56822 0.96488 0.0
H497 H 0.89794 0.58056 0.93055 0.0
H498 H 0.96154 0.52673 0.98384 0.0
H499 H 0.86176 0.54066 0.9501 0.0
H500 H 0.81881 0.43504 0.97654 0.0
H501 H 0.85425 0.47764 0.95799 0.0
H502 H 0.91507 0.5208 0.00479 0.0
H503 H 0.88112 0.47667 0.02306 0.0
C504 C 0.96717 0.56278 0.96161 0.0
C505 C 0.95017 0.57763 0.94617 0.0
C506 C 0.94682 0.53898 0.97256 0.0
C507 C 0.90868 0.5299 0.96854 0.0
C508 C 0.89129 0.5461 0.95344 0.0
C509 C 0.91189 0.5694 0.94231 0.0
C510 C 0.84004 0.45341 0.98281 0.0
C511 C 0.84733 0.45229 0.00124 0.0
C512 C 0.86011 0.47823 0.9722 0.0
C513 C 0.88751 0.50309 0.97983 0.0
C514 C 0.89477 0.50176 0.99831 0.0
C515 C 0.87519 0.47646 0.00885 0.0
H516 H 0.54797 0.46074 0.23929 0.0
H517 H 0.55008 0.40484 0.18753 0.0
H518 H 0.59834 0.41852 0.2499 0.0
H519 H 0.60059 0.36323 0.19813 0.0
H520 H 0.72763 0.35176 0.21531 0.0
H521 H 0.66979 0.38555 0.20728 0.0
H522 H 0.61605 0.34474 0.25422 0.0
H523 H 0.67411 0.30995 0.26225 0.0
C524 C 0.55855 0.43896 0.2303 0.0
C525 C 0.5453 0.43644 0.21251 0.0
C526 C 0.5873 0.41479 0.2364 0.0
C527 C 0.60359 0.38808 0.22474 0.0
C528 C 0.58871 0.38393 0.20732 0.0
C529 C 0.55964 0.40764 0.20129 0.0
C530 C 0.70364 0.35004 0.22402 0.0
C531 C 0.70551 0.32818 0.23944 0.0
C532 C 0.67041 0.36913 0.21931 0.0
C533 C 0.63841 0.36734 0.23003 0.0
C534 C 0.64037 0.34638 0.24572 0.0
C535 C 0.67354 0.32658 0.25029 0.0
H536 H 0.1541 0.08888 0.38721 0.0
H537 H 0.1179 0.17955 0.42259 0.0
H538 H 0.16218 0.04751 0.41238 0.0
H539 H 0.12519 0.13759 0.4479 0.0
H540 H 0.15986 0.97134 0.45735 0.0
H541 H 0.13215 0.01306 0.43521 0.0
H542 H 0.17883 0.11029 0.46404 0.0
H543 H 0.2055 0.06841 0.48658 0.0
C544 C 0.14709 0.09974 0.40033 0.0
C545 C 0.13562 0.13756 0.40289 0.0
C546 C 0.15145 0.0759 0.4148 0.0
C547 C 0.14439 0.08922 0.43221 0.0
C548 C 0.13124 0.12658 0.43469 0.0
C549 C 0.1268 0.15051 0.42016 0.0
C550 C 0.1635 0.0017 0.45917 0.0
C551 C 0.18535 0.01661 0.47353 0.0
C552 C 0.14778 0.0256 0.44643 0.0
C553 C 0.15399 0.06494 0.44762 0.0
C554 C 0.17338 0.08012 0.46274 0.0
C555 C 0.18878 0.05614 0.47564 0.0
H556 H 0.0699 0.5843 0.67035 0.0
H557 H 0.14699 0.63566 0.63398 0.0
H558 H 0.11421 0.59827 0.69505 0.0
H559 H 0.1906 0.65032 0.65858 0.0
H560 H 0.27202 0.66017 0.70415 0.0
H561 H 0.23314 0.62773 0.68143 0.0
H562 H 0.13241 0.65737 0.71035 0.0
H563 H 0.17143 0.68899 0.73338 0.0
C564 C 0.09661 0.59784 0.66756 0.0
C565 C 0.10477 0.60928 0.65024 0.0
C566 C 0.12182 0.60614 0.68173 0.0
C567 C 0.15569 0.62584 0.67883 0.0
C568 C 0.16493 0.63486 0.66131 0.0
C569 C 0.13978 0.62663 0.64718 0.0
C570 C 0.2416 0.65945 0.70578 0.0
C571 C 0.22474 0.67764 0.72045 0.0
C572 C 0.21933 0.64087 0.69273 0.0
C573 C 0.17967 0.64027 0.69398 0.0
C574 C 0.16292 0.65695 0.70907 0.0
C575 C 0.18526 0.67536 0.72221 0.0
H576 H 0.61568 0.5085 0.91605 0.0
H577 H 0.56175 0.58048 0.87712 0.0
H578 H 0.60223 0.55541 0.93942 0.0
H579 H 0.54732 0.62651 0.9004 0.0
H580 H 0.53079 0.71074 0.94368 0.0
H581 H 0.56629 0.67197 0.92264 0.0
H582 H 0.54429 0.57279 0.95363 0.0
H583 H 0.50999 0.61182 0.975 0.0
C584 C 0.60169 0.53465 0.9124 0.0
C585 C 0.58927 0.54049 0.89476 0.0
C586 C 0.59369 0.56139 0.92583 0.0
C587 C 0.57309 0.59443 0.92187 0.0
C588 C 0.56345 0.60156 0.90398 0.0
C589 C 0.57157 0.57498 0.89058 0.0
C590 C 0.53402 0.68074 0.94614 0.0
C591 C 0.5171 0.66422 0.96086 0.0
C592 C 0.55431 0.6585 0.93405 0.0
C593 C 0.55779 0.61917 0.93629 0.0
C594 C 0.5426 0.60304 0.95156 0.0
C595 C 0.52262 0.62538 0.96376 0.0
H596 H 0.5599 0.01856 0.14565 0.0
H597 H 0.65492 0.98442 0.1788 0.0
H598 H 0.51815 0.0144 0.17135 0.0
H599 H 0.61373 0.98083 0.20428 0.0
H600 H 0.5364 0.00298 0.24999 0.0
H601 H 0.57218 0.02235 0.22424 0.0
H602 H 0.49755 0.95603 0.18955 0.0
H603 H 0.4618 0.9364 0.21527 0.0
C604 C 0.57191 0.01089 0.15847 0.0
C605 C 0.61048 0.00152 0.16026 0.0
C606 C 0.54809 0.00835 0.1731 0.0
C607 C 0.56278 0.99734 0.18977 0.0
C608 C 0.6017 0.98976 0.19165 0.0
C609 C 0.62521 0.99154 0.17703 0.0
C610 C 0.52725 0.99297 0.23686 0.0
C611 C 0.49656 0.96778 0.23469 0.0
C612 C 0.54776 0.00405 0.22214 0.0
C613 C 0.53767 0.99058 0.20494 0.0
C614 C 0.50573 0.96709 0.20264 0.0
C615 C 0.4855 0.95561 0.21739 0.0
H616 H 0.05263 0.68445 0.87046 0.0
H617 H 0.11337 0.76541 0.9043 0.0
H618 H 0.08649 0.70616 0.84489 0.0
H619 H 0.14598 0.7888 0.87845 0.0
H620 H 0.23998 0.77036 0.83777 0.0
H621 H 0.19581 0.76476 0.8618 0.0
H622 H 0.10362 0.74933 0.82341 0.0
H623 H 0.14858 0.75313 0.79926 0.0
C624 C 0.07221 0.70791 0.87235 0.0
C625 C 0.08082 0.72272 0.8895 0.0
C626 C 0.09169 0.72053 0.85759 0.0
C627 C 0.11981 0.74871 0.85957 0.0
C628 C 0.12549 0.76617 0.87647 0.0
C629 C 0.10646 0.75309 0.89129 0.0
C630 C 0.21023 0.76614 0.83442 0.0
C631 C 0.19789 0.76176 0.8166 0.0
C632 C 0.18467 0.7633 0.84826 0.0
C633 C 0.14589 0.75652 0.84467 0.0
C634 C 0.1333 0.75387 0.82675 0.0
C635 C 0.15905 0.7562 0.81288 0.0
H636 H 0.38368 0.60024 0.14218 0.0
H637 H 0.44072 0.50052 0.12171 0.0
H638 H 0.37424 0.62257 0.11206 0.0
H639 H 0.43063 0.52262 0.09139 0.0
H640 H 0.46571 0.61118 0.04889 0.0
H641 H 0.46066 0.57449 0.07589 0.0
H642 H 0.34633 0.61557 0.08263 0.0
H643 H 0.35169 0.6529 0.05592 0.0
C644 C 0.3931 0.58246 0.13119 0.0
C645 C 0.41336 0.5489 0.13436 0.0
C646 C 0.3876 0.59521 0.11387 0.0
C647 C 0.40226 0.57468 0.09931 0.0
C648 C 0.41963 0.53942 0.10236 0.0
C649 C 0.425 0.52654 0.11973 0.0
C650 C 0.43935 0.612 0.05602 0.0
C651 C 0.40936 0.63544 0.05043 0.0
C652 C 0.4363 0.5907 0.07142 0.0
C653 C 0.40313 0.59227 0.0815 0.0
C654 C 0.37246 0.61418 0.07534 0.0
C655 C 0.37557 0.63557 0.06001 0.0
H656 H 0.65931 0.0059 0.35561 0.0
H657 H 0.64023 0.9156 0.39231 0.0
H658 H 0.6211 0.9728 0.33307 0.0
H659 H 0.60348 0.88116 0.36935 0.0
H660 H 0.48708 0.87651 0.34025 0.0
H661 H 0.54146 0.89247 0.35909 0.0
H662 H 0.60398 0.92399 0.31277 0.0
H663 H 0.54846 0.9095 0.2939 0.0
C664 C 0.64824 0.97817 0.35863 0.0
C665 C 0.65198 0.96375 0.37587 0.0
C666 C 0.62632 0.95901 0.34563 0.0
C667 C 0.6082 0.92471 0.34951 0.0
C668 C 0.6159 0.90816 0.36609 0.0
C669 C 0.63728 0.92767 0.37921 0.0
C670 C 0.51253 0.88644 0.33402 0.0
C671 C 0.51321 0.89229 0.3156 0.0
C672 C 0.54405 0.89521 0.34484 0.0
C673 C 0.57732 0.90964 0.33751 0.0
C674 C 0.57868 0.91355 0.31893 0.0
C675 C 0.54688 0.90518 0.3081 0.0
H676 H 0.309 0.19387 0.62972 0.0
H677 H 0.28546 0.09036 0.65696 0.0
H678 H 0.29301 0.16259 0.60115 0.0
H679 H 0.26929 0.05883 0.62838 0.0
H680 H 0.28556 0.00708 0.57208 0.0
H681 H 0.30007 0.03755 0.6008 0.0
H682 H 0.23667 0.13649 0.58492 0.0
H683 H 0.22225 0.10612 0.55603 0.0
C684 C 0.30049 0.16434 0.62952 0.0
C685 C 0.29788 0.14456 0.64545 0.0
C686 C 0.29103 0.14653 0.61322 0.0
C687 C 0.27955 0.10834 0.61251 0.0
C688 C 0.27816 0.08824 0.62847 0.0
C689 C 0.28722 0.10623 0.64481 0.0
C690 C 0.27456 0.0353 0.57469 0.0
C691 C 0.2529 0.05423 0.56167 0.0
C692 C 0.28272 0.05267 0.59122 0.0
C693 C 0.2696 0.08946 0.59514 0.0
C694 C 0.24756 0.10828 0.58223 0.0
C695 C 0.23918 0.09081 0.56569 0.0
H696 H 0.52838 0.42402 0.90758 0.0
H697 H 0.60432 0.33843 0.88681 0.0
H698 H 0.55278 0.41289 0.93759 0.0
H699 H 0.6282 0.32692 0.91689 0.0
H700 H 0.70394 0.37276 0.9636 0.0
H701 H 0.66923 0.36888 0.93539 0.0
H702 H 0.56331 0.37002 0.96317 0.0
H703 H 0.59831 0.37421 0.99169 0.0
C704 C 0.54939 0.40196 0.90945 0.0
C705 C 0.56494 0.38261 0.89473 0.0
C706 C 0.56333 0.39555 0.9267 0.0
C707 C 0.59298 0.36959 0.92956 0.0
C708 C 0.60593 0.34772 0.91504 0.0
C709 C 0.59205 0.35416 0.89781 0.0
C710 C 0.67325 0.37196 0.96378 0.0
C711 C 0.6539 0.37403 0.97992 0.0
C712 C 0.65333 0.36931 0.94757 0.0
C713 C 0.61349 0.36882 0.94703 0.0
C714 C 0.594 0.3704 0.96317 0.0
C715 C 0.61404 0.37275 0.97948 0.0
H716 H 0.72887 0.01387 0.16129 0.0
H717 H 0.82277 0.05759 0.13203 0.0
H718 H 0.74937 0.05017 0.18738 0.0
H719 H 0.84512 0.09216 0.15867 0.0
H720 H 0.82395 0.19952 0.19253 0.0
H721 H 0.82218 0.14817 0.17082 0.0
H722 H 0.78707 0.07103 0.21135 0.0
H723 H 0.78697 0.12366 0.23307 0.0
C724 C 0.75492 0.02998 0.16064 0.0
C725 C 0.77362 0.03375 0.14442 0.0
C726 C 0.76686 0.05083 0.17574 0.0
C727 C 0.79827 0.07529 0.17506 0.0
C728 C 0.81989 0.07488 0.15949 0.0
C729 C 0.80739 0.05471 0.14425 0.0
C730 C 0.81618 0.17157 0.19691 0.0
C731 C 0.80506 0.16583 0.21449 0.0
C732 C 0.81565 0.14176 0.18444 0.0
C733 C 0.80453 0.10511 0.18921 0.0
C734 C 0.7952 0.09894 0.20707 0.0
C735 C 0.79519 0.12907 0.21955 0.0
H736 H 0.11787 0.32153 0.38579 0.0
H737 H 0.20572 0.2469 0.4056 0.0
H738 H 0.09175 0.32635 0.4155 0.0
H739 H 0.17923 0.2516 0.43525 0.0
H740 H 0.12611 0.28112 0.48922 0.0
H741 H 0.16082 0.29216 0.46194 0.0
H742 H 0.05782 0.27393 0.43082 0.0
H743 H 0.02322 0.26293 0.45791 0.0
C744 C 0.13235 0.30707 0.39655 0.0
C745 C 0.16338 0.28311 0.3932 0.0
C746 C 0.11714 0.3096 0.41354 0.0
C747 C 0.13289 0.28857 0.42755 0.0
C748 C 0.16642 0.26803 0.42469 0.0
C749 C 0.18161 0.2654 0.40767 0.0
C750 C 0.11087 0.27965 0.47655 0.0
C751 C 0.07192 0.27105 0.47572 0.0
C752 C 0.13076 0.28597 0.46097 0.0
C753 C 0.11194 0.28433 0.44429 0.0
C754 C 0.07295 0.27612 0.44351 0.0
C755 C 0.0532 0.26943 0.45903 0.0
H756 H 0.91059 0.56611 0.62911 0.0
H757 H 0.9794 0.64719 0.65925 0.0
H758 H 0.90065 0.53069 0.65596 0.0
H759 H 0.96859 0.61216 0.68629 0.0
H760 H 0.99468 0.50633 0.72004 0.0
H761 H 0.99303 0.55242 0.69642 0.0
H762 H 0.87537 0.52527 0.68516 0.0
H763 H 0.87734 0.47831 0.70854 0.0
C764 C 0.92267 0.57707 0.64156 0.0
C765 C 0.94632 0.60918 0.64193 0.0
C766 C 0.91687 0.55674 0.65703 0.0
C767 C 0.93444 0.56812 0.67327 0.0
C768 C 0.95537 0.6021 0.67393 0.0
C769 C 0.96121 0.62245 0.65844 0.0
C770 C 0.96836 0.51035 0.71263 0.0
C771 C 0.93627 0.48831 0.71608 0.0
C772 C 0.96728 0.53711 0.69916 0.0
C773 C 0.93403 0.54266 0.68885 0.0
C774 C 0.90158 0.52143 0.69269 0.0
C775 C 0.90269 0.49455 0.70613 0.0
H776 H 0.69015 0.16874 0.39618 0.0
H777 H 0.6102 0.09022 0.37119 0.0
H778 H 0.70324 0.19495 0.36722 0.0
H779 H 0.62358 0.11652 0.34217 0.0
H780 H 0.64226 0.19627 0.29419 0.0
H781 H 0.62078 0.17536 0.32319 0.0
H782 H 0.73724 0.16598 0.34146 0.0
H783 H 0.75868 0.1867 0.31273 0.0
C784 C 0.67484 0.1575 0.38457 0.0
C785 C 0.64942 0.1271 0.38601 0.0
C786 C 0.68256 0.17237 0.36796 0.0
C787 C 0.66493 0.15732 0.3524 0.0
C788 C 0.63757 0.1287 0.35393 0.0
C789 C 0.62993 0.11366 0.37058 0.0
C790 C 0.66324 0.18958 0.30438 0.0
C791 C 0.70218 0.19325 0.30114 0.0
C792 C 0.65092 0.1776 0.32096 0.0
C793 C 0.67732 0.16954 0.33466 0.0
C794 C 0.71619 0.1727 0.33129 0.0
C795 C 0.72847 0.18427 0.31474 0.0
H796 H 0.16524 0.09386 0.62362 0.0
H797 H 0.20308 0.20806 0.61415 0.0
H798 H 0.12557 0.09546 0.59655 0.0
H799 H 0.16349 0.20963 0.58725 0.0
H800 H 0.09386 0.20404 0.53763 0.0
H801 H 0.14654 0.18279 0.55668 0.0
H802 H 0.06672 0.1353 0.59285 0.0
H803 H 0.01435 0.15642 0.57395 0.0
C804 C 0.16568 0.11898 0.61559 0.0
C805 C 0.18641 0.15124 0.62124 0.0
C806 C 0.14303 0.11985 0.6001 0.0
C807 C 0.14113 0.1528 0.58993 0.0
C808 C 0.1645 0.18375 0.59476 0.0
C809 C 0.18684 0.18302 0.6103 0.0
C810 C 0.08766 0.18815 0.5494 0.0
C811 C 0.05001 0.18242 0.55448 0.0
C812 C 0.11778 0.1761 0.5603 0.0
C813 C 0.11069 0.15767 0.57629 0.0
C814 C 0.07311 0.14915 0.58054 0.0
C815 C 0.04307 0.16157 0.56979 0.0
H816 H 0.9853 0.59766 0.85438 0.0
H817 H 0.05426 0.5143 0.88132 0.0
H818 H 0.97274 0.55266 0.83014 0.0
H819 H 0.04219 0.4691 0.85663 0.0
H820 H 0.97612 0.47593 0.7825 0.0
H821 H 0.00162 0.51906 0.80553 0.0
H822 H 0.98786 0.43267 0.84481 0.0
H823 H 0.96324 0.3892 0.82174 0.0
C824 C 0.99814 0.56978 0.85505 0.0
C825 C 0.02059 0.55946 0.86985 0.0
C826 C 0.9912 0.54407 0.84103 0.0
C827 C 0.00657 0.50734 0.84141 0.0
C828 C 0.0297 0.49714 0.85604 0.0
C829 C 0.03673 0.52301 0.87013 0.0
C830 C 0.97897 0.46596 0.796 0.0
C831 C 0.96719 0.42928 0.80032 0.0
C832 C 0.99346 0.49072 0.80921 0.0
C833 C 0.99635 0.47943 0.82703 0.0
C834 C 0.9863 0.44215 0.83119 0.0
C835 C 0.97193 0.41732 0.81797 0.0
H836 H 0.60464 0.53451 0.14092 0.0
H837 H 0.53241 0.45226 0.11344 0.0
H838 H 0.65138 0.52712 0.11742 0.0
H839 H 0.5789 0.44449 0.09038 0.0
H840 H 0.65636 0.45092 0.04507 0.0
H841 H 0.60965 0.47504 0.06593 0.0
H842 H 0.69483 0.47636 0.10815 0.0
H843 H 0.74169 0.45315 0.08729 0.0
C844 C 0.59863 0.51514 0.12983 0.0
C845 C 0.56505 0.49371 0.12912 0.0
C846 C 0.62538 0.51082 0.11642 0.0
C847 C 0.61882 0.48525 0.10203 0.0
C848 C 0.58463 0.46487 0.10111 0.0
C849 C 0.55812 0.46903 0.11447 0.0
C850 C 0.66529 0.45698 0.05873 0.0
C851 C 0.70263 0.44957 0.06456 0.0
C852 C 0.63849 0.47066 0.07069 0.0
C853 C 0.64843 0.47715 0.08874 0.0
C854 C 0.6863 0.47192 0.09432 0.0
C855 C 0.71311 0.45831 0.08236 0.0
loop_
_geom_bond_atom_site_label_1
_geom_bond_atom_site_label_2
_geom_bond_distance
_geom_bond_site_symmetry_2
_ccdc_geom_bond_type
Mg0 O7 2.141 . S
Mg0 O8 2.048 . S
Mg0 O9 2.048 . S
Mg0 O12 2.141 . S
C1 O2 1.313 . S
C1 O8 1.195 . S
O2 C1 1.313 . S
C3 O4 1.245 . S
C3 O12 1.289 . S
O4 C3 1.245 . S
C5 O6 1.245 . S
C5 O7 1.289 . S
O6 C5 1.245 . S
O7 Mg0 2.141 . S
O7 C5 1.289 . S
O8 Mg0 2.048 . S
O8 C1 1.195 . S
O9 Mg0 2.048 . S
O9 C10 1.195 . S
C10 O9 1.195 . S
C10 O11 1.313 . S
O11 C10 1.313 . S
O12 Mg0 2.141 . S
O12 C3 1.289 . S
Mg13 O20 2.141 . S
Mg13 O21 2.048 . S
Mg13 O22 2.048 1_455 S
Mg13 O25 2.141 1_455 S
C14 O15 1.313 . S
C14 O21 1.195 . S
O15 C14 1.313 . S
C16 O17 1.245 . S
C16 O25 1.289 1_455 S
O17 C16 1.245 . S
C18 O19 1.245 . S
C18 O20 1.289 . S
O19 C18 1.245 . S
O20 Mg13 2.141 . S
O20 C18 1.289 . S
O21 Mg13 2.048 . S
O21 C14 1.195 . S
O22 Mg13 2.048 1_655 S
O22 C23 1.195 . S
C23 O22 1.195 . S
C23 O24 1.313 1_655 S
O24 C23 1.313 1_455 S
O25 Mg13 2.141 1_655 S
O25 C16 1.289 1_655 S
Mg26 O33 2.141 . S
Mg26 O34 2.048 . S
Mg26 O35 2.048 . S
Mg26 O38 2.141 . S
C27 O28 1.313 . S
C27 O34 1.195 . S
O28 C27 1.313 . S
C29 O30 1.245 . S
C29 O38 1.289 . S
O30 C29 1.245 . S
C31 O32 1.245 . S
C31 O33 1.289 . S
O32 C31 1.245 . S
O33 Mg26 2.141 . S
O33 C31 1.289 . S
O34 Mg26 2.048 . S
O34 C27 1.195 . S
O35 Mg26 2.048 . S
O35 C36 1.195 . S
C36 O35 1.195 . S
C36 O37 1.313 . S
O37 C36 1.313 . S
O38 Mg26 2.141 . S
O38 C29 1.289 . S
Mg39 O46 2.141 . S
Mg39 O47 2.048 . S
Mg39 O48 2.048 1_545 S
Mg39 O51 2.141 1_545 S
C40 O41 1.313 . S
C40 O47 1.195 . S
O41 C40 1.313 . S
C42 O43 1.245 . S
C42 O51 1.289 . S
O43 C42 1.245 . S
C44 O45 1.245 . S
C44 O46 1.289 . S
O45 C44 1.245 . S
O46 Mg39 2.141 . S
O46 C44 1.289 . S
O47 Mg39 2.048 . S
O47 C40 1.195 . S
O48 Mg39 2.048 1_565 S
O48 C49 1.195 . S
C49 O48 1.195 . S
C49 O50 1.313 . S
O50 C49 1.313 . S
O51 Mg39 2.141 1_565 S
O51 C42 1.289 . S
Mg52 O59 2.141 . S
Mg52 O60 2.048 . S
Mg52 O61 2.048 1_455 S
Mg52 O64 2.141 1_455 S
C53 O54 1.313 . S
C53 O60 1.195 . S
O54 C53 1.313 . S
C55 O56 1.245 . S
C55 O64 1.289 . S
O56 C55 1.245 . S
C57 O58 1.245 . S
C57 O59 1.289 . S
O58 C57 1.245 . S
O59 Mg52 2.141 . S
O59 C57 1.289 . S
O60 Mg52 2.048 . S
O60 C53 1.195 . S
O61 Mg52 2.048 1_655 S
O61 C62 1.195 . S
C62 O61 1.195 . S
C62 O63 1.313 . S
O63 C62 1.313 . S
O64 Mg52 2.141 1_655 S
O64 C55 1.289 . S
Mg65 O72 2.141 . S
Mg65 O73 2.048 . S
Mg65 O74 2.048 . S
Mg65 O77 2.141 . S
C66 O67 1.313 . S
C66 O73 1.195 . S
O67 C66 1.313 . S
C68 O69 1.245 . S
C68 O77 1.289 . S
O69 C68 1.245 . S
C70 O71 1.245 . S
C70 O72 1.289 . S
O71 C70 1.245 . S
O72 Mg65 2.141 . S
O72 C70 1.289 . S
O73 Mg65 2.048 . S
O73 C66 1.195 . S
O74 Mg65 2.048 . S
O74 C75 1.195 . S
C75 O74 1.195 . S
C75 O76 1.313 . S
O76 C75 1.313 . S
O77 Mg65 2.141 . S
O77 C68 1.289 . S
Mg78 O85 2.141 1_565 S
Mg78 O86 2.048 1_565 S
Mg78 O87 2.048 . S
Mg78 O90 2.141 . S
C79 O80 1.313 . S
C79 O86 1.195 . S
O80 C79 1.313 . S
C81 O82 1.245 1_565 S
C81 O90 1.289 . S
O82 C81 1.245 1_545 S
C83 O84 1.245 . S
C83 O85 1.289 . S
O84 C83 1.245 . S
O85 Mg78 2.141 1_545 S
O85 C83 1.289 . S
O86 Mg78 2.048 1_545 S
O86 C79 1.195 . S
O87 Mg78 2.048 . S
O87 C88 1.195 . S
C88 O87 1.195 . S
C88 O89 1.284 1_565 S
O89 C88 1.284 1_545 S
O90 Mg78 2.141 . S
O90 C81 1.289 . S
Mg91 O98 2.141 . S
Mg91 O99 2.048 . S
Mg91 O100 2.048 . S
Mg91 O103 2.141 . S
C92 O93 1.313 . S
C92 O99 1.195 . S
O93 C92 1.313 . S
C94 O95 1.245 . S
C94 O103 1.289 . S
O95 C94 1.245 . S
C96 O97 1.245 . S
C96 O98 1.289 . S
O97 C96 1.245 . S
O98 Mg91 2.141 . S
O98 C96 1.289 . S
O99 Mg91 2.048 . S
O99 C92 1.195 . S
O100 Mg91 2.048 . S
O100 C101 1.195 . S
C101 O100 1.195 . S
C101 O102 1.313 . S
O102 C101 1.313 . S
O103 Mg91 2.141 . S
O103 C94 1.289 . S
Zn104 O107 2.036 . S
Zn104 O109 2.049 1_556 S
Zn104 O114 2.067 . S
Zn105 O106 1.962 . S
Zn105 O108 1.986 . S
Zn105 O110 1.996 . S
Zn105 O113 1.943 . S
O106 Zn105 1.962 . S
O106 C111 1.254 . S
O107 Zn104 2.036 . S
O107 C111 1.220 1_556 S
O108 Zn105 1.986 . S
O108 C115 1.262 . S
O109 Zn104 2.049 1_554 S
O109 C117 1.260 . S
O110 Zn105 1.996 . S
O110 C117 1.257 . S
C111 O106 1.254 . S
C111 O107 1.220 1_554 S
C112 O113 1.249 1_556 S
C112 O114 1.270 . S
O113 Zn105 1.943 . S
O113 C112 1.249 1_554 S
O114 Zn104 2.067 . S
O114 C112 1.270 . S
C115 O108 1.262 . S
C115 O116 1.232 . S
O116 C115 1.232 . S
C117 O109 1.260 . S
C117 O110 1.257 . S
Zn118 O121 2.031 . S
Zn118 O123 2.049 . S
Zn118 O128 2.067 . S
Zn119 O120 1.962 . S
Zn119 O122 1.986 . S
Zn119 O124 1.996 . S
Zn119 O127 1.943 . S
O120 Zn119 1.962 . S
O120 C125 1.254 . S
O121 Zn118 2.031 . S
O121 C125 1.269 . S
O122 Zn119 1.986 . S
O122 C129 1.262 . S
O123 Zn118 2.049 . S
O123 C131 1.260 . S
O124 Zn119 1.996 . S
O124 C131 1.257 . S
C125 O120 1.254 . S
C125 O121 1.269 . S
C126 O127 1.249 . S
C126 O128 1.270 . S
O127 Zn119 1.943 . S
O127 C126 1.249 . S
O128 Zn118 2.067 . S
O128 C126 1.270 . S
C129 O122 1.262 . S
C129 O130 1.232 . S
O130 C129 1.232 . S
C131 O123 1.260 . S
C131 O124 1.257 . S
Zn132 O135 2.031 . S
Zn132 O137 2.049 . S
Zn132 O142 2.067 . S
Zn133 O134 1.962 . S
Zn133 O136 1.986 . S
Zn133 O138 1.996 . S
Zn133 O141 1.943 . S
O134 Zn133 1.962 . S
O134 C139 1.254 . S
O135 Zn132 2.031 . S
O135 C139 1.269 . S
O136 Zn133 1.986 . S
O136 C143 1.262 . S
O137 Zn132 2.049 . S
O137 C145 1.260 . S
O138 Zn133 1.996 . S
O138 C145 1.257 . S
C139 O134 1.254 . S
C139 O135 1.269 . S
C140 O141 1.249 . S
C140 O142 1.270 . S
O141 Zn133 1.943 . S
O141 C140 1.249 . S
O142 Zn132 2.067 . S
O142 C140 1.270 . S
C143 O136 1.262 . S
C143 O144 1.232 . S
O144 C143 1.232 . S
C145 O137 1.260 . S
C145 O138 1.257 . S
Zn146 O149 2.031 . S
Zn146 O151 2.049 . S
Zn146 O156 2.067 . S
Zn147 O148 1.962 . S
Zn147 O150 1.986 . S
Zn147 O152 1.996 . S
Zn147 O155 1.943 . S
O148 Zn147 1.962 . S
O148 C153 1.254 . S
O149 Zn146 2.031 . S
O149 C153 1.269 . S
O150 Zn147 1.986 . S
O150 C157 1.262 . S
O151 Zn146 2.049 . S
O151 C159 1.260 . S
O152 Zn147 1.996 . S
O152 C159 1.257 . S
C153 O148 1.254 . S
C153 O149 1.269 . S
C154 O155 1.249 . S
C154 O156 1.270 . S
O155 Zn147 1.943 . S
O155 C154 1.249 . S
O156 Zn146 2.067 . S
O156 C154 1.270 . S
C157 O150 1.262 . S
C157 O158 1.232 . S
O158 C157 1.232 . S
C159 O151 1.260 . S
C159 O152 1.257 . S
Zn160 O163 2.031 . S
Zn160 O165 2.049 . S
Zn160 O170 2.067 . S
Zn161 O162 1.962 . S
Zn161 O164 1.986 . S
Zn161 O166 1.996 . S
Zn161 O169 1.943 . S
O162 Zn161 1.962 . S
O162 C167 1.254 . S
O163 Zn160 2.031 . S
O163 C167 1.269 . S
O164 Zn161 1.986 . S
O164 C171 1.262 1_655 S
O165 Zn160 2.049 . S
O165 C173 1.260 . S
O166 Zn161 1.996 . S
O166 C173 1.257 . S
C167 O162 1.254 . S
C167 O163 1.269 . S
C168 O169 1.249 . S
C168 O170 1.270 . S
O169 Zn161 1.943 . S
O169 C168 1.249 . S
O170 Zn160 2.067 . S
O170 C168 1.270 . S
C171 O164 1.262 1_455 S
C171 O172 1.232 . S
O172 C171 1.232 . S
C173 O165 1.260 . S
C173 O166 1.257 . S
Zn174 O177 2.031 . S
Zn174 O179 2.049 . S
Zn174 O184 2.067 . S
Zn175 O176 1.962 . S
Zn175 O178 1.986 . S
Zn175 O180 1.996 . S
Zn175 O183 1.943 . S
O176 Zn175 1.962 . S
O176 C181 1.254 . S
O177 Zn174 2.031 . S
O177 C181 1.269 . S
O178 Zn175 1.986 . S
O178 C185 1.262 . S
O179 Zn174 2.049 . S
O179 C187 1.260 . S
O180 Zn175 1.996 . S
O180 C187 1.257 . S
C181 O176 1.254 . S
C181 O177 1.269 . S
C182 O183 1.249 . S
C182 O184 1.270 . S
O183 Zn175 1.943 . S
O183 C182 1.249 . S
O184 Zn174 2.067 . S
O184 C182 1.270 . S
C185 O178 1.262 . S
C185 O186 1.232 . S
O186 C185 1.232 . S
C187 O179 1.260 . S
C187 O180 1.257 . S
Zn188 O191 2.031 . S
Zn188 O193 2.049 . S
Zn188 O198 2.067 . S
Zn189 O190 1.962 . S
Zn189 O192 1.986 . S
Zn189 O194 1.996 . S
Zn189 O197 1.943 1_556 S
O190 Zn189 1.962 . S
O190 C195 1.254 1_556 S
O191 Zn188 2.031 . S
O191 C195 1.269 . S
O192 Zn189 1.986 . S
O192 C199 1.262 . S
O193 Zn188 2.049 . S
O193 C201 1.260 . S
O194 Zn189 1.996 . S
O194 C201 1.257 1_556 S
C195 O190 1.254 1_554 S
C195 O191 1.269 . S
C196 O197 1.249 . S
C196 O198 1.270 . S
O197 Zn189 1.943 1_554 S
O197 C196 1.249 . S
O198 Zn188 2.067 . S
O198 C196 1.270 . S
C199 O192 1.262 . S
C199 O200 1.232 . S
O200 C199 1.232 . S
C201 O193 1.260 . S
C201 O194 1.257 1_554 S
Zn202 O205 2.031 . S
Zn202 O207 2.049 . S
Zn202 O212 2.067 . S
Zn203 O204 1.962 . S
Zn203 O206 1.986 . S
Zn203 O208 1.996 . S
Zn203 O211 1.943 . S
O204 Zn203 1.962 . S
O204 C209 1.254 . S
O205 Zn202 2.031 . S
O205 C209 1.269 . S
O206 Zn203 1.986 . S
O206 C213 1.262 . S
O207 Zn202 2.049 . S
O207 C215 1.260 . S
O208 Zn203 1.996 . S
O208 C215 1.257 . S
C209 O204 1.254 . S
C209 O205 1.269 . S
C210 O211 1.249 . S
C210 O212 1.270 . S
O211 Zn203 1.943 . S
O211 C210 1.249 . S
O212 Zn202 2.067 . S
O212 C210 1.270 . S
C213 O206 1.262 . S
C213 O214 1.232 . S
O214 C213 1.232 . S
C215 O207 1.260 . S
C215 O208 1.257 . S
H216 C224 0.950 . S
H217 C229 0.950 . S
H218 C226 0.950 . S
H219 C228 0.950 . S
H220 C230 0.950 . S
H221 C232 0.950 . S
H222 C234 0.950 . S
H223 C235 0.950 . S
C224 H216 0.950 . S
C224 C225 1.386 . S
C224 C226 1.391 . S
C225 C224 1.386 . S
C225 C229 1.393 . S
C226 H218 0.950 . S
C226 C224 1.391 . S
C226 C227 1.400 1_545 S
C227 C226 1.400 1_565 S
C227 C228 1.398 . S
C227 C233 1.491 . S
C228 H219 0.950 . S
C228 C227 1.398 . S
C228 C229 1.391 1_565 S
C229 H217 0.950 . S
C229 C225 1.393 . S
C229 C228 1.391 1_545 S
C230 H220 0.950 . S
C230 C231 1.386 . S
C230 C232 1.391 . S
C231 C230 1.386 . S
C231 C235 1.393 . S
C232 H221 0.950 . S
C232 C230 1.391 . S
C232 C233 1.400 . S
C233 C227 1.491 . S
C233 C232 1.400 . S
C233 C234 1.398 . S
C234 H222 0.950 . S
C234 C233 1.398 . S
C234 C235 1.391 . S
C235 H223 0.950 . S
C235 C231 1.393 . S
C235 C234 1.391 . S
H236 C244 0.950 . S
H237 C249 0.950 . S
H238 C246 0.950 . S
H239 C248 0.950 . S
H240 C250 0.950 . S
H241 C252 0.950 . S
H242 C254 0.950 . S
H243 C255 0.950 . S
C244 H236 0.950 . S
C244 C245 1.386 . S
C244 C246 1.391 . S
C245 C244 1.386 . S
C245 C249 1.393 . S
C246 H238 0.950 . S
C246 C244 1.391 . S
C246 C247 1.400 . S
C247 C246 1.400 . S
C247 C248 1.398 . S
C247 C253 1.491 . S
C248 H239 0.950 . S
C248 C247 1.398 . S
C248 C249 1.391 . S
C249 H237 0.950 . S
C249 C245 1.393 . S
C249 C248 1.391 . S
C250 H240 0.950 . S
C250 C251 1.386 . S
C250 C252 1.391 . S
C251 C250 1.386 . S
C251 C255 1.393 . S
C252 H241 0.950 . S
C252 C250 1.391 . S
C252 C253 1.400 . S
C253 C247 1.491 . S
C253 C252 1.400 . S
C253 C254 1.398 . S
C254 H242 0.950 . S
C254 C253 1.398 . S
C254 C255 1.391 . S
C255 H243 0.950 . S
C255 C251 1.393 . S
C255 C254 1.391 . S
H256 C264 0.950 . S
H257 C269 0.950 . S
H258 C266 0.950 . S
H259 C268 0.950 . S
H260 C270 0.950 . S
H261 C272 0.950 . S
H262 C274 0.950 . S
H263 C275 0.950 . S
C264 H256 0.950 . S
C264 C265 1.386 . S
C264 C266 1.391 . S
C265 C264 1.386 . S
C265 C269 1.393 . S
C266 H258 0.950 . S
C266 C264 1.391 . S
C266 C267 1.400 . S
C267 C266 1.400 . S
C267 C268 1.398 . S
C267 C273 1.491 . S
C268 H259 0.950 . S
C268 C267 1.398 . S
C268 C269 1.391 . S
C269 H257 0.950 . S
C269 C265 1.393 . S
C269 C268 1.391 . S
C270 H260 0.950 . S
C270 C271 1.386 . S
C270 C272 1.391 . S
C271 C270 1.386 . S
C271 C275 1.393 . S
C272 H261 0.950 . S
C272 C270 1.391 . S
C272 C273 1.400 . S
C273 C267 1.491 . S
C273 C272 1.400 . S
C273 C274 1.398 . S
C274 H262 0.950 . S
C274 C273 1.398 . S
C274 C275 1.391 . S
C275 H263 0.950 . S
C275 C271 1.393 . S
C275 C274 1.391 . S
H276 C284 0.950 . S
H277 C289 0.950 . S
H278 C286 0.950 . S
H279 C288 0.950 . S
H280 C290 0.950 . S
H281 C292 0.950 . S
H282 C294 0.950 . S
H283 C295 0.950 . S
C284 H276 0.950 . S
C284 C285 1.386 . S
C284 C286 1.391 . S
C285 C284 1.386 . S
C285 C289 1.393 . S
C286 H278 0.950 . S
C286 C284 1.391 . S
C286 C287 1.400 . S
C287 C286 1.400 . S
C287 C288 1.398 . S
C287 C293 1.491 . S
C288 H279 0.950 . S
C288 C287 1.398 . S
C288 C289 1.391 . S
C289 H277 0.950 . S
C289 C285 1.393 . S
C289 C288 1.391 . S
C290 H280 0.950 . S
C290 C291 1.386 . S
C290 C292 1.391 . S
C291 C290 1.386 . S
C291 C295 1.393 . S
C292 H281 0.950 . S
C292 C290 1.391 . S
C292 C293 1.400 . S
C293 C287 1.491 . S
C293 C292 1.400 . S
C293 C294 1.398 . S
C294 H282 0.950 . S
C294 C293 1.398 . S
C294 C295 1.391 . S
C295 H283 0.950 . S
C295 C291 1.393 . S
C295 C294 1.391 . S
H296 C304 0.950 . S
H297 C309 0.950 . S
H298 C306 0.950 . S
H299 C308 0.950 . S
H300 C310 0.950 . S
H301 C312 0.950 . S
H302 C314 0.950 1_554 S
H303 C315 0.950 . S
C304 H296 0.950 . S
C304 C305 1.386 . S
C304 C306 1.391 . S
C305 C304 1.386 . S
C305 C309 1.393 . S
C306 H298 0.950 . S
C306 C304 1.391 . S
C306 C307 1.400 . S
C307 C306 1.400 . S
C307 C308 1.398 . S
C307 C313 1.491 . S
C308 H299 0.950 . S
C308 C307 1.398 . S
C308 C309 1.391 . S
C309 H297 0.950 . S
C309 C305 1.393 . S
C309 C308 1.391 . S
C310 H300 0.950 . S
C310 C311 1.386 1_556 S
C310 C312 1.391 . S
C311 C310 1.386 1_554 S
C311 C315 1.393 . S
C312 H301 0.950 . S
C312 C310 1.391 . S
C312 C313 1.400 . S
C313 C307 1.491 . S
C313 C312 1.400 . S
C313 C314 1.403 . S
C314 H302 0.950 1_556 S
C314 C313 1.403 . S
C314 C315 1.386 1_556 S
C315 H303 0.950 . S
C315 C311 1.393 . S
C315 C314 1.386 1_554 S
H316 C324 0.950 . S
H317 C329 0.950 . S
H318 C326 0.950 . S
H319 C328 0.950 . S
H320 C330 0.950 . S
H321 C332 0.950 . S
H322 C334 0.950 . S
H323 C335 0.950 . S
C324 H316 0.950 . S
C324 C325 1.386 . S
C324 C326 1.391 . S
C325 C324 1.386 . S
C325 C329 1.393 . S
C326 H318 0.950 . S
C326 C324 1.391 . S
C326 C327 1.400 . S
C327 C326 1.400 . S
C327 C328 1.398 . S
C327 C333 1.491 . S
C328 H319 0.950 . S
C328 C327 1.398 . S
C328 C329 1.391 . S
C329 H317 0.950 . S
C329 C325 1.393 . S
C329 C328 1.391 . S
C330 H320 0.950 . S
C330 C331 1.386 . S
C330 C332 1.391 . S
C331 C330 1.386 . S
C331 C335 1.393 . S
C332 H321 0.950 . S
C332 C330 1.391 . S
C332 C333 1.400 . S
C333 C327 1.491 . S
C333 C332 1.400 . S
C333 C334 1.398 . S
C334 H322 0.950 . S
C334 C333 1.398 . S
C334 C335 1.391 . S
C335 H323 0.950 . S
C335 C331 1.393 . S
C335 C334 1.391 . S
H336 C344 0.950 . S
H337 C349 0.950 1_545 S
H338 C346 0.950 . S
H339 C348 0.950 1_545 S
H340 C350 0.950 . S
H341 C352 0.950 . S
H342 C354 0.950 . S
H343 C355 0.950 . S
C344 H336 0.950 . S
C344 C345 1.386 . S
C344 C346 1.391 . S
C345 C344 1.386 . S
C345 C349 1.393 . S
C346 H338 0.950 . S
C346 C344 1.391 . S
C346 C347 1.400 . S
C347 C346 1.400 . S
C347 C348 1.398 . S
C347 C353 1.491 . S
C348 H339 0.950 1_565 S
C348 C347 1.398 . S
C348 C349 1.391 . S
C349 H337 0.950 1_565 S
C349 C345 1.393 . S
C349 C348 1.391 . S
C350 H340 0.950 . S
C350 C351 1.386 . S
C350 C352 1.391 . S
C351 C350 1.386 . S
C351 C355 1.393 . S
C352 H341 0.950 . S
C352 C350 1.391 . S
C352 C353 1.400 . S
C353 C347 1.491 . S
C353 C352 1.400 . S
C353 C354 1.398 . S
C354 H342 0.950 . S
C354 C353 1.398 . S
C354 C355 1.391 . S
C355 H343 0.950 . S
C355 C351 1.393 . S
C355 C354 1.391 . S
H356 C364 0.950 . S
H357 C369 0.950 . S
H358 C366 0.950 . S
H359 C368 0.950 . S
H360 C370 0.950 . S
H361 C372 0.950 . S
H362 C374 0.950 . S
H363 C375 0.950 . S
C364 H356 0.950 . S
C364 C365 1.386 . S
C364 C366 1.391 . S
C365 C364 1.386 . S
C365 C369 1.393 . S
C366 H358 0.950 . S
C366 C364 1.391 . S
C366 C367 1.400 . S
C367 C366 1.400 . S
C367 C368 1.398 . S
C367 C373 1.491 1_545 S
C368 H359 0.950 . S
C368 C367 1.398 . S
C368 C369 1.391 . S
C369 H357 0.950 . S
C369 C365 1.393 . S
C369 C368 1.391 . S
C370 H360 0.950 . S
C370 C371 1.386 . S
C370 C372 1.391 . S
C371 C370 1.386 . S
C371 C375 1.393 . S
C372 H361 0.950 . S
C372 C370 1.391 . S
C372 C373 1.400 . S
C373 C367 1.491 1_565 S
C373 C372 1.400 . S
C373 C374 1.398 . S
C374 H362 0.950 . S
C374 C373 1.398 . S
C374 C375 1.391 . S
C375 H363 0.950 . S
C375 C371 1.393 . S
C375 C374 1.391 . S
H376 C384 0.950 . S
H377 C389 0.950 . S
H378 C386 0.950 . S
H379 C388 0.950 . S
H380 C390 0.950 . S
H381 C392 0.950 . S
H382 C394 0.950 . S
H383 C395 0.950 . S
C384 H376 0.950 . S
C384 C385 1.386 . S
C384 C386 1.391 . S
C385 C384 1.386 . S
C385 C389 1.393 . S
C386 H378 0.950 . S
C386 C384 1.391 . S
C386 C387 1.400 . S
C387 C386 1.400 . S
C387 C388 1.398 . S
C387 C393 1.491 . S
C388 H379 0.950 . S
C388 C387 1.398 . S
C388 C389 1.391 . S
C389 H377 0.950 . S
C389 C385 1.393 . S
C389 C388 1.391 . S
C390 H380 0.950 . S
C390 C391 1.386 . S
C390 C392 1.391 . S
C391 C390 1.386 . S
C391 C395 1.393 . S
C392 H381 0.950 . S
C392 C390 1.391 . S
C392 C393 1.400 . S
C393 C387 1.491 . S
C393 C392 1.400 . S
C393 C394 1.398 . S
C394 H382 0.950 . S
C394 C393 1.398 . S
C394 C395 1.391 . S
C395 H383 0.950 . S
C395 C391 1.393 . S
C395 C394 1.391 . S
H396 C404 0.950 . S
H397 C409 0.950 . S
H398 C406 0.950 . S
H399 C408 0.950 . S
H400 C410 0.950 . S
H401 C412 0.950 . S
H402 C414 0.950 . S
H403 C415 0.950 . S
C404 H396 0.950 . S
C404 C405 1.386 . S
C404 C406 1.391 . S
C405 C404 1.386 . S
C405 C409 1.393 . S
C406 H398 0.950 . S
C406 C404 1.391 . S
C406 C407 1.400 . S
C407 C406 1.400 . S
C407 C408 1.398 . S
C407 C413 1.491 . S
C408 H399 0.950 . S
C408 C407 1.398 . S
C408 C409 1.391 . S
C409 H397 0.950 . S
C409 C405 1.393 . S
C409 C408 1.391 . S
C410 H400 0.950 . S
C410 C411 1.386 . S
C410 C412 1.391 . S
C411 C410 1.386 . S
C411 C415 1.393 . S
C412 H401 0.950 . S
C412 C410 1.391 . S
C412 C413 1.400 . S
C413 C407 1.491 . S
C413 C412 1.400 . S
C413 C414 1.398 . S
C414 H402 0.950 . S
C414 C413 1.398 . S
C414 C415 1.391 . S
C415 H403 0.950 . S
C415 C411 1.393 . S
C415 C414 1.391 . S
H416 C424 0.950 . S
H417 C429 0.950 . S
H418 C426 0.950 . S
H419 C428 0.950 . S
H420 C430 0.950 . S
H421 C432 0.950 . S
H422 C434 0.950 . S
H423 C435 0.950 . S
C424 H416 0.950 . S
C424 C425 1.386 . S
C424 C426 1.391 . S
C425 C424 1.386 . S
C425 C429 1.393 . S
C426 H418 0.950 . S
C426 C424 1.391 . S
C426 C427 1.400 . S
C427 C426 1.400 . S
C427 C428 1.398 . S
C427 C433 1.491 . S
C428 H419 0.950 . S
C428 C427 1.398 . S
C428 C429 1.391 . S
C429 H417 0.950 . S
C429 C425 1.393 . S
C429 C428 1.391 . S
C430 H420 0.950 . S
C430 C431 1.386 . S
C430 C432 1.391 . S
C431 C430 1.386 . S
C431 C435 1.393 . S
C432 H421 0.950 . S
C432 C430 1.391 . S
C432 C433 1.400 1_655 S
C433 C427 1.491 . S
C433 C432 1.400 1_455 S
C433 C434 1.398 . S
C434 H422 0.950 . S
C434 C433 1.398 . S
C434 C435 1.391 1_455 S
C435 H423 0.950 . S
C435 C431 1.393 . S
C435 C434 1.391 1_655 S
H436 C444 0.950 . S
H437 C449 0.950 . S
H438 C446 0.950 . S
H439 C448 0.950 . S
H440 C450 0.950 1_455 S
H441 C452 0.950 1_455 S
H442 C454 0.950 . S
H443 C455 0.950 . S
C444 H436 0.950 . S
C444 C445 1.386 . S
C444 C446 1.391 . S
C445 C444 1.386 . S
C445 C449 1.393 1_655 S
C446 H438 0.950 . S
C446 C444 1.391 . S
C446 C447 1.400 . S
C447 C446 1.400 . S
C447 C448 1.398 1_655 S
C447 C453 1.491 . S
C448 H439 0.950 . S
C448 C447 1.398 1_455 S
C448 C449 1.391 . S
C449 H437 0.950 . S
C449 C445 1.393 1_455 S
C449 C448 1.391 . S
C450 H440 0.950 1_655 S
C450 C451 1.386 . S
C450 C452 1.391 . S
C451 C450 1.386 . S
C451 C455 1.393 . S
C452 H441 0.950 1_655 S
C452 C450 1.391 . S
C452 C453 1.400 . S
C453 C447 1.491 . S
C453 C452 1.400 . S
C453 C454 1.398 . S
C454 H442 0.950 . S
C454 C453 1.398 . S
C454 C455 1.391 . S
C455 H443 0.950 . S
C455 C451 1.393 . S
C455 C454 1.391 . S
H456 C464 0.950 . S
H457 C469 0.950 . S
H458 C466 0.950 . S
H459 C468 0.950 . S
H460 C470 0.950 . S
H461 C472 0.950 . S
H462 C474 0.950 . S
H463 C475 0.950 . S
C464 H456 0.950 . S
C464 C465 1.386 . S
C464 C466 1.391 . S
C465 C464 1.386 . S
C465 C469 1.393 . S
C466 H458 0.950 . S
C466 C464 1.391 . S
C466 C467 1.400 . S
C467 C466 1.400 . S
C467 C468 1.398 . S
C467 C473 1.491 . S
C468 H459 0.950 . S
C468 C467 1.398 . S
C468 C469 1.391 . S
C469 H457 0.950 . S
C469 C465 1.393 . S
C469 C468 1.391 . S
C470 H460 0.950 . S
C470 C471 1.386 . S
C470 C472 1.391 . S
C471 C470 1.386 . S
C471 C475 1.393 . S
C472 H461 0.950 . S
C472 C470 1.391 . S
C472 C473 1.400 . S
C473 C467 1.491 . S
C473 C472 1.400 . S
C473 C474 1.398 . S
C474 H462 0.950 . S
C474 C473 1.398 . S
C474 C475 1.391 . S
C475 H463 0.950 . S
C475 C471 1.393 . S
C475 C474 1.391 . S
H476 C484 0.950 . S
H477 C489 0.950 . S
H478 C486 0.950 . S
H479 C488 0.950 1_655 S
H480 C490 0.950 . S
H481 C492 0.950 . S
H482 C494 0.948 . S
H483 C495 0.950 . S
C484 H476 0.950 . S
C484 C485 1.386 . S
C484 C486 1.391 . S
C485 C484 1.386 . S
C485 C489 1.393 . S
C486 H478 0.950 . S
C486 C484 1.391 . S
C486 C487 1.400 . S
C487 C486 1.400 . S
C487 C488 1.398 . S
C487 C493 1.491 1_455 S
C488 H479 0.950 1_455 S
C488 C487 1.398 . S
C488 C489 1.391 . S
C489 H477 0.950 . S
C489 C485 1.393 . S
C489 C488 1.391 . S
C490 H480 0.950 . S
C490 C491 1.386 . S
C490 C492 1.391 . S
C491 C490 1.386 . S
C491 C495 1.393 . S
C492 H481 0.950 . S
C492 C490 1.391 . S
C492 C493 1.400 . S
C493 C487 1.491 1_655 S
C493 C492 1.400 . S
C493 C494 1.399 1_655 S
C494 H482 0.948 . S
C494 C493 1.399 1_455 S
C494 C495 1.393 1_455 S
C495 H483 0.950 . S
C495 C491 1.393 . S
C495 C494 1.393 1_655 S
H496 C504 0.950 . S
H497 C509 0.950 . S
H498 C506 0.950 . S
H499 C508 0.950 . S
H500 C510 0.950 . S
H501 C512 0.950 . S
H502 C514 0.950 . S
H503 C515 0.955 . S
C504 H496 0.950 . S
C504 C505 1.386 . S
C504 C506 1.391 . S
C505 C504 1.386 . S
C505 C509 1.393 . S
C506 H498 0.950 . S
C506 C504 1.391 . S
C506 C507 1.400 . S
C507 C506 1.400 . S
C507 C508 1.398 . S
C507 C513 1.491 . S
C508 H499 0.950 . S
C508 C507 1.398 . S
C508 C509 1.391 . S
C509 H497 0.950 . S
C509 C505 1.393 . S
C509 C508 1.391 . S
C510 H500 0.950 . S
C510 C511 1.386 . S
C510 C512 1.391 . S
C511 C510 1.386 . S
C511 C515 1.393 . S
C512 H501 0.950 . S
C512 C510 1.391 . S
C512 C513 1.400 . S
C513 C507 1.491 . S
C513 C512 1.400 . S
C513 C514 1.398 . S
C514 H502 0.950 . S
C514 C513 1.398 . S
C514 C515 1.391 . S
C515 H503 0.955 . S
C515 C511 1.393 . S
C515 C514 1.391 . S
H516 C524 0.950 . S
H517 C529 0.950 . S
H518 C526 0.950 . S
H519 C528 0.950 . S
H520 C530 0.950 . S
H521 C532 0.950 . S
H522 C534 0.950 . S
H523 C535 0.950 . S
C524 H516 0.950 . S
C524 C525 1.386 . S
C524 C526 1.391 . S
C525 C524 1.386 . S
C525 C529 1.393 . S
C526 H518 0.950 . S
C526 C524 1.391 . S
C526 C527 1.400 . S
C527 C526 1.400 . S
C527 C528 1.398 . S
C527 C533 1.491 . S
C528 H519 0.950 . S
C528 C527 1.398 . S
C528 C529 1.391 . S
C529 H517 0.950 . S
C529 C525 1.393 . S
C529 C528 1.391 . S
C530 H520 0.950 . S
C530 C531 1.386 . S
C530 C532 1.391 . S
C531 C530 1.386 . S
C531 C535 1.393 . S
C532 H521 0.950 . S
C532 C530 1.391 . S
C532 C533 1.400 . S
C533 C527 1.491 . S
C533 C532 1.400 . S
C533 C534 1.398 . S
C534 H522 0.950 . S
C534 C533 1.398 . S
C534 C535 1.391 . S
C535 H523 0.950 . S
C535 C531 1.393 . S
C535 C534 1.391 . S
H536 C544 0.950 . S
H537 C549 0.950 . S
H538 C546 0.950 . S
H539 C548 0.950 . S
H540 C550 0.950 . S
H541 C552 0.950 . S
H542 C554 0.950 . S
H543 C555 0.950 . S
C544 H536 0.950 . S
C544 C545 1.386 . S
C544 C546 1.391 . S
C545 C544 1.386 . S
C545 C549 1.393 . S
C546 H538 0.950 . S
C546 C544 1.391 . S
C546 C547 1.400 . S
C547 C546 1.400 . S
C547 C548 1.398 . S
C547 C553 1.491 . S
C548 H539 0.950 . S
C548 C547 1.398 . S
C548 C549 1.391 . S
C549 H537 0.950 . S
C549 C545 1.393 . S
C549 C548 1.391 . S
C550 H540 0.950 . S
C550 C551 1.386 . S
C550 C552 1.391 1_565 S
C551 C550 1.386 . S
C551 C555 1.393 . S
C552 H541 0.950 . S
C552 C550 1.391 1_545 S
C552 C553 1.400 . S
C553 C547 1.491 . S
C553 C552 1.400 . S
C553 C554 1.398 . S
C554 H542 0.950 . S
C554 C553 1.398 . S
C554 C555 1.391 1_545 S
C555 H543 0.950 . S
C555 C551 1.393 . S
C555 C554 1.391 1_565 S
H556 C564 0.950 . S
H557 C569 0.950 . S
H558 C566 0.950 . S
H559 C568 0.950 . S
H560 C570 0.950 . S
H561 C572 0.950 . S
H562 C574 0.950 . S
H563 C575 0.950 . S
C564 H556 0.950 . S
C564 C565 1.386 . S
C564 C566 1.391 . S
C565 C564 1.386 . S
C565 C569 1.393 . S
C566 H558 0.950 . S
C566 C564 1.391 . S
C566 C567 1.400 . S
C567 C566 1.400 . S
C567 C568 1.398 . S
C567 C573 1.491 . S
C568 H559 0.950 . S
C568 C567 1.398 . S
C568 C569 1.391 . S
C569 H557 0.950 . S
C569 C565 1.393 . S
C569 C568 1.391 . S
C570 H560 0.950 . S
C570 C571 1.386 . S
C570 C572 1.391 . S
C571 C570 1.386 . S
C571 C575 1.393 . S
C572 H561 0.950 . S
C572 C570 1.391 . S
C572 C573 1.400 . S
C573 C567 1.491 . S
C573 C572 1.400 . S
C573 C574 1.398 . S
C574 H562 0.950 . S
C574 C573 1.398 . S
C574 C575 1.391 . S
C575 H563 0.950 . S
C575 C571 1.393 . S
C575 C574 1.391 . S
H576 C584 0.950 . S
H577 C589 0.950 . S
H578 C586 0.950 . S
H579 C588 0.950 . S
H580 C590 0.950 . S
H581 C592 0.950 . S
H582 C594 0.950 . S
H583 C595 0.950 . S
C584 H576 0.950 . S
C584 C585 1.386 . S
C584 C586 1.391 . S
C585 C584 1.386 . S
C585 C589 1.393 . S
C586 H578 0.950 . S
C586 C584 1.391 . S
C586 C587 1.400 . S
C587 C586 1.400 . S
C587 C588 1.398 . S
C587 C593 1.491 . S
C588 H579 0.950 . S
C588 C587 1.398 . S
C588 C589 1.391 . S
C589 H577 0.950 . S
C589 C585 1.393 . S
C589 C588 1.391 . S
C590 H580 0.950 . S
C590 C591 1.386 . S
C590 C592 1.391 . S
C591 C590 1.386 . S
C591 C595 1.393 . S
C592 H581 0.950 . S
C592 C590 1.391 . S
C592 C593 1.400 . S
C593 C587 1.491 . S
C593 C592 1.400 . S
C593 C594 1.398 . S
C594 H582 0.950 . S
C594 C593 1.398 . S
C594 C595 1.391 . S
C595 H583 0.950 . S
C595 C591 1.393 . S
C595 C594 1.391 . S
H596 C604 0.950 . S
H597 C609 0.950 . S
H598 C606 0.950 . S
H599 C608 0.950 . S
H600 C610 0.950 . S
H601 C612 0.950 . S
H602 C614 0.950 . S
H603 C615 0.950 . S
C604 H596 0.950 . S
C604 C605 1.386 . S
C604 C606 1.391 . S
C605 C604 1.386 . S
C605 C609 1.393 . S
C606 H598 0.950 . S
C606 C604 1.391 . S
C606 C607 1.400 . S
C607 C606 1.400 . S
C607 C608 1.398 . S
C607 C613 1.491 . S
C608 H599 0.950 . S
C608 C607 1.398 . S
C608 C609 1.391 . S
C609 H597 0.950 . S
C609 C605 1.393 . S
C609 C608 1.391 . S
C610 H600 0.950 . S
C610 C611 1.386 . S
C610 C612 1.391 . S
C611 C610 1.386 . S
C611 C615 1.393 . S
C612 H601 0.950 . S
C612 C610 1.391 . S
C612 C613 1.400 . S
C613 C607 1.491 . S
C613 C612 1.400 . S
C613 C614 1.398 . S
C614 H602 0.950 . S
C614 C613 1.398 . S
C614 C615 1.391 . S
C615 H603 0.950 . S
C615 C611 1.393 . S
C615 C614 1.391 . S
H616 C624 0.950 . S
H617 C629 0.950 . S
H618 C626 0.950 . S
H619 C628 0.950 . S
H620 C630 0.950 . S
H621 C632 0.950 . S
H622 C634 0.950 . S
H623 C635 0.950 . S
C624 H616 0.950 . S
C624 C625 1.386 . S
C624 C626 1.391 . S
C625 C624 1.386 . S
C625 C629 1.393 . S
C626 H618 0.950 . S
C626 C624 1.391 . S
C626 C627 1.400 . S
C627 C626 1.400 . S
C627 C628 1.398 . S
C627 C633 1.491 . S
C628 H619 0.950 . S
C628 C627 1.398 . S
C628 C629 1.391 . S
C629 H617 0.950 . S
C629 C625 1.393 . S
C629 C628 1.391 . S
C630 H620 0.950 . S
C630 C631 1.386 . S
C630 C632 1.391 . S
C631 C630 1.386 . S
C631 C635 1.393 . S
C632 H621 0.950 . S
C632 C630 1.391 . S
C632 C633 1.400 . S
C633 C627 1.491 . S
C633 C632 1.400 . S
C633 C634 1.398 . S
C634 H622 0.950 . S
C634 C633 1.398 . S
C634 C635 1.391 . S
C635 H623 0.950 . S
C635 C631 1.393 . S
C635 C634 1.391 . S
H636 C644 0.950 . S
H637 C649 0.950 . S
H638 C646 0.950 . S
H639 C648 0.950 . S
H640 C650 0.950 . S
H641 C652 0.950 . S
H642 C654 0.950 . S
H643 C655 0.950 . S
C644 H636 0.950 . S
C644 C645 1.386 . S
C644 C646 1.391 . S
C645 C644 1.386 . S
C645 C649 1.393 . S
C646 H638 0.950 . S
C646 C644 1.391 . S
C646 C647 1.400 . S
C647 C646 1.400 . S
C647 C648 1.398 . S
C647 C653 1.491 . S
C648 H639 0.950 . S
C648 C647 1.398 . S
C648 C649 1.391 . S
C649 H637 0.950 . S
C649 C645 1.393 . S
C649 C648 1.391 . S
C650 H640 0.950 . S
C650 C651 1.386 . S
C650 C652 1.391 . S
C651 C650 1.386 . S
C651 C655 1.393 . S
C652 H641 0.950 . S
C652 C650 1.391 . S
C652 C653 1.400 . S
C653 C647 1.491 . S
C653 C652 1.400 . S
C653 C654 1.398 . S
C654 H642 0.950 . S
C654 C653 1.398 . S
C654 C655 1.391 . S
C655 H643 0.950 . S
C655 C651 1.393 . S
C655 C654 1.391 . S
H656 C664 0.950 . S
H657 C669 0.950 . S
H658 C666 0.950 . S
H659 C668 0.950 . S
H660 C670 0.950 . S
H661 C672 0.950 . S
H662 C674 0.950 . S
H663 C675 0.950 . S
C664 H656 0.950 . S
C664 C665 1.386 . S
C664 C666 1.391 . S
C665 C664 1.386 . S
C665 C669 1.393 . S
C666 H658 0.950 . S
C666 C664 1.391 . S
C666 C667 1.400 . S
C667 C666 1.400 . S
C667 C668 1.398 . S
C667 C673 1.491 . S
C668 H659 0.950 . S
C668 C667 1.398 . S
C668 C669 1.391 . S
C669 H657 0.950 . S
C669 C665 1.393 . S
C669 C668 1.391 . S
C670 H660 0.950 . S
C670 C671 1.386 . S
C670 C672 1.391 . S
C671 C670 1.386 . S
C671 C675 1.393 . S
C672 H661 0.950 . S
C672 C670 1.391 . S
C672 C673 1.400 . S
C673 C667 1.491 . S
C673 C672 1.400 . S
C673 C674 1.398 . S
C674 H662 0.950 . S
C674 C673 1.398 . S
C674 C675 1.391 . S
C675 H663 0.950 . S
C675 C671 1.393 . S
C675 C674 1.391 . S
H676 C684 0.950 . S
H677 C689 0.950 . S
H678 C686 0.950 . S
H679 C688 0.950 . S
H680 C690 0.950 . S
H681 C692 0.950 1_565 S
H682 C694 0.950 . S
H683 C695 0.950 . S
C684 H676 0.950 . S
C684 C685 1.386 . S
C684 C686 1.391 . S
C685 C684 1.386 . S
C685 C689 1.393 . S
C686 H678 0.950 . S
C686 C684 1.391 . S
C686 C687 1.400 . S
C687 C686 1.400 . S
C687 C688 1.398 . S
C687 C693 1.491 . S
C688 H679 0.950 . S
C688 C687 1.398 . S
C688 C689 1.391 . S
C689 H677 0.950 . S
C689 C685 1.393 . S
C689 C688 1.391 . S
C690 H680 0.950 . S
C690 C691 1.386 1_565 S
C690 C692 1.391 1_565 S
C691 C690 1.386 1_545 S
C691 C695 1.393 . S
C692 H681 0.950 1_545 S
C692 C690 1.391 1_545 S
C692 C693 1.400 . S
C693 C687 1.491 . S
C693 C692 1.400 . S
C693 C694 1.398 . S
C694 H682 0.950 . S
C694 C693 1.398 . S
C694 C695 1.391 . S
C695 H683 0.950 . S
C695 C691 1.393 . S
C695 C694 1.391 . S
H696 C704 0.950 . S
H697 C709 0.950 . S
H698 C706 0.950 . S
H699 C708 0.950 . S
H700 C710 0.950 . S
H701 C712 0.950 . S
H702 C714 0.950 . S
H703 C715 0.950 . S
C704 H696 0.950 . S
C704 C705 1.386 . S
C704 C706 1.391 . S
C705 C704 1.386 . S
C705 C709 1.393 . S
C706 H698 0.950 . S
C706 C704 1.391 . S
C706 C707 1.400 . S
C707 C706 1.400 . S
C707 C708 1.398 . S
C707 C713 1.491 . S
C708 H699 0.950 . S
C708 C707 1.398 . S
C708 C709 1.391 . S
C709 H697 0.950 . S
C709 C705 1.393 . S
C709 C708 1.391 . S
C710 H700 0.950 . S
C710 C711 1.386 . S
C710 C712 1.391 . S
C711 C710 1.386 . S
C711 C715 1.393 . S
C712 H701 0.950 . S
C712 C710 1.391 . S
C712 C713 1.400 . S
C713 C707 1.491 . S
C713 C712 1.400 . S
C713 C714 1.398 . S
C714 H702 0.950 . S
C714 C713 1.398 . S
C714 C715 1.391 . S
C715 H703 0.950 . S
C715 C711 1.393 . S
C715 C714 1.391 . S
H716 C724 0.950 . S
H717 C729 0.950 . S
H718 C726 0.950 . S
H719 C728 0.950 . S
H720 C730 0.950 . S
H721 C732 0.950 . S
H722 C734 0.950 . S
H723 C735 0.950 . S
C724 H716 0.950 . S
C724 C725 1.386 . S
C724 C726 1.391 . S
C725 C724 1.386 . S
C725 C729 1.393 . S
C726 H718 0.950 . S
C726 C724 1.391 . S
C726 C727 1.400 . S
C727 C726 1.400 . S
C727 C728 1.398 . S
C727 C733 1.491 . S
C728 H719 0.950 . S
C728 C727 1.398 . S
C728 C729 1.391 . S
C729 H717 0.950 . S
C729 C725 1.393 . S
C729 C728 1.391 . S
C730 H720 0.950 . S
C730 C731 1.386 . S
C730 C732 1.391 . S
C731 C730 1.386 . S
C731 C735 1.393 . S
C732 H721 0.950 . S
C732 C730 1.391 . S
C732 C733 1.400 . S
C733 C727 1.491 . S
C733 C732 1.400 . S
C733 C734 1.398 . S
C734 H722 0.950 . S
C734 C733 1.398 . S
C734 C735 1.391 . S
C735 H723 0.950 . S
C735 C731 1.393 . S
C735 C734 1.391 . S
H736 C744 0.950 . S
H737 C749 0.950 . S
H738 C746 0.950 . S
H739 C748 0.950 . S
H740 C750 0.950 . S
H741 C752 0.950 . S
H742 C754 0.950 . S
H743 C755 0.935 1_655 S
C744 H736 0.950 . S
C744 C745 1.386 . S
C744 C746 1.391 . S
C745 C744 1.386 . S
C745 C749 1.393 . S
C746 H738 0.950 . S
C746 C744 1.391 . S
C746 C747 1.400 . S
C747 C746 1.400 . S
C747 C748 1.398 . S
C747 C753 1.491 . S
C748 H739 0.950 . S
C748 C747 1.398 . S
C748 C749 1.391 . S
C749 H737 0.950 . S
C749 C745 1.393 . S
C749 C748 1.391 . S
C750 H740 0.950 . S
C750 C751 1.386 . S
C750 C752 1.391 . S
C751 C750 1.386 . S
C751 C755 1.393 . S
C752 H741 0.950 . S
C752 C750 1.391 . S
C752 C753 1.400 . S
C753 C747 1.491 . S
C753 C752 1.400 . S
C753 C754 1.398 . S
C754 H742 0.950 . S
C754 C753 1.398 . S
C754 C755 1.391 . S
C755 H743 0.935 1_455 S
C755 C751 1.393 . S
C755 C754 1.391 . S
H756 C764 0.950 . S
H757 C769 0.950 . S
H758 C766 0.950 . S
H759 C768 0.950 . S
H760 C770 0.950 . S
H761 C772 0.950 . S
H762 C774 0.950 . S
H763 C775 0.950 . S
C764 H756 0.950 . S
C764 C765 1.386 . S
C764 C766 1.391 . S
C765 C764 1.386 . S
C765 C769 1.393 . S
C766 H758 0.950 . S
C766 C764 1.391 . S
C766 C767 1.400 . S
C767 C766 1.400 . S
C767 C768 1.398 . S
C767 C773 1.491 . S
C768 H759 0.950 . S
C768 C767 1.398 . S
C768 C769 1.391 . S
C769 H757 0.950 . S
C769 C765 1.393 . S
C769 C768 1.391 . S
C770 H760 0.950 . S
C770 C771 1.386 . S
C770 C772 1.391 . S
C771 C770 1.386 . S
C771 C775 1.393 . S
C772 H761 0.950 . S
C772 C770 1.391 . S
C772 C773 1.400 . S
C773 C767 1.491 . S
C773 C772 1.400 . S
C773 C774 1.398 . S
C774 H762 0.950 . S
C774 C773 1.398 . S
C774 C775 1.391 . S
C775 H763 0.950 . S
C775 C771 1.393 . S
C775 C774 1.391 . S
H776 C784 0.950 . S
H777 C789 0.950 . S
H778 C786 0.950 . S
H779 C788 0.950 . S
H780 C790 0.950 . S
H781 C792 0.950 . S
H782 C794 0.950 . S
H783 C795 0.950 . S
C784 H776 0.950 . S
C784 C785 1.386 . S
C784 C786 1.391 . S
C785 C784 1.386 . S
C785 C789 1.393 . S
C786 H778 0.950 . S
C786 C784 1.391 . S
C786 C787 1.400 . S
C787 C786 1.400 . S
C787 C788 1.398 . S
C787 C793 1.491 . S
C788 H779 0.950 . S
C788 C787 1.398 . S
C788 C789 1.391 . S
C789 H777 0.950 . S
C789 C785 1.393 . S
C789 C788 1.391 . S
C790 H780 0.950 . S
C790 C791 1.386 . S
C790 C792 1.391 . S
C791 C790 1.386 . S
C791 C795 1.393 . S
C792 H781 0.950 . S
C792 C790 1.391 . S
C792 C793 1.400 . S
C793 C787 1.491 . S
C793 C792 1.400 . S
C793 C794 1.398 . S
C794 H782 0.950 . S
C794 C793 1.398 . S
C794 C795 1.391 . S
C795 H783 0.950 . S
C795 C791 1.393 . S
C795 C794 1.391 . S
H796 C804 0.950 . S
H797 C809 0.950 . S
H798 C806 0.950 . S
H799 C808 0.950 . S
H800 C810 0.950 . S
H801 C812 0.950 . S
H802 C814 0.950 . S
H803 C815 0.950 1_655 S
C804 H796 0.950 . S
C804 C805 1.386 . S
C804 C806 1.391 . S
C805 C804 1.386 . S
C805 C809 1.393 . S
C806 H798 0.950 . S
C806 C804 1.391 . S
C806 C807 1.400 . S
C807 C806 1.400 . S
C807 C808 1.398 . S
C807 C813 1.491 . S
C808 H799 0.950 . S
C808 C807 1.398 . S
C808 C809 1.391 . S
C809 H797 0.950 . S
C809 C805 1.393 . S
C809 C808 1.391 . S
C810 H800 0.950 . S
C810 C811 1.386 . S
C810 C812 1.391 . S
C811 C810 1.386 . S
C811 C815 1.393 . S
C812 H801 0.950 . S
C812 C810 1.391 . S
C812 C813 1.400 . S
C813 C807 1.491 . S
C813 C812 1.400 . S
C813 C814 1.398 . S
C814 H802 0.950 . S
C814 C813 1.398 . S
C814 C815 1.391 . S
C815 H803 0.950 1_455 S
C815 C811 1.393 . S
C815 C814 1.391 . S
H816 C824 0.950 . S
H817 C829 0.950 . S
H818 C826 0.950 . S
H819 C828 0.950 . S
H820 C830 0.950 . S
H821 C832 0.950 . S
H822 C834 0.950 . S
H823 C835 0.950 . S
C824 H816 0.950 . S
C824 C825 1.386 . S
C824 C826 1.391 . S
C825 C824 1.386 . S
C825 C829 1.393 . S
C826 H818 0.950 . S
C826 C824 1.391 . S
C826 C827 1.400 . S
C827 C826 1.400 . S
C827 C828 1.398 . S
C827 C833 1.491 . S
C828 H819 0.950 . S
C828 C827 1.398 . S
C828 C829 1.391 . S
C829 H817 0.950 . S
C829 C825 1.393 . S
C829 C828 1.391 . S
C830 H820 0.950 . S
C830 C831 1.386 . S
C830 C832 1.391 . S
C831 C830 1.386 . S
C831 C835 1.393 . S
C832 H821 0.950 . S
C832 C830 1.391 . S
C832 C833 1.400 . S
C833 C827 1.491 . S
C833 C832 1.400 . S
C833 C834 1.398 . S
C834 H822 0.950 . S
C834 C833 1.398 . S
C834 C835 1.391 . S
C835 H823 0.950 . S
C835 C831 1.393 . S
C835 C834 1.391 . S
H836 C844 0.950 . S
H837 C849 0.950 . S
H838 C846 0.950 . S
H839 C848 0.950 . S
H840 C850 0.950 . S
H841 C852 0.950 . S
H842 C854 0.950 . S
H843 C855 0.950 . S
C844 H836 0.950 . S
C844 C845 1.386 . S
C844 C846 1.391 . S
C845 C844 1.386 . S
C845 C849 1.393 . S
C846 H838 0.950 . S
C846 C844 1.391 . S
C846 C847 1.400 . S
C847 C846 1.400 . S
C847 C848 1.398 . S
C847 C853 1.491 . S
C848 H839 0.950 . S
C848 C847 1.398 . S
C848 C849 1.391 . S
C849 H837 0.950 . S
C849 C845 1.393 . S
C849 C848 1.391 . S
C850 H840 0.950 . S
C850 C851 1.386 . S
C850 C852 1.391 . S
C851 C850 1.386 . S
C851 C855 1.393 . S
C852 H841 0.950 . S
C852 C850 1.391 . S
C852 C853 1.400 . S
C853 C847 1.491 . S
C853 C852 1.400 . S
C853 C854 1.398 . S
C854 H842 0.950 . S
C854 C853 1.398 . S
C854 C855 1.391 . S
C855 H843 0.950 . S
C855 C851 1.393 . S
C855 C854 1.391 . S
C231 C125 1.474 . S
C225 C5 1.430 . S
C251 C145 1.526 . S
C245 C18 1.484 . S
C271 C159 1.532 . S
C265 C31 1.516 . S
C285 C42 1.540 . S
C291 C117 1.527 . S
C305 C57 1.317 . S
C311 C111 1.306 . S
C325 C70 1.313 . S
C331 C131 1.305 . S
C351 C139 1.205 . S
C345 C81 1.192 . S
C371 C153 1.256 . S
C365 C96 1.279 . S
C385 C29 1.240 . S
C391 C181 1.258 . S
C411 C195 1.208 . S
C405 C44 1.233 . S
C425 C3 1.270 . S
C431 C215 1.307 . S
C451 C167 1.308 . S
C445 C16 1.255 1_655 S
C465 C83 1.506 . S
C471 C173 1.525 . S
C485 C94 1.548 . S
C491 C187 1.524 . S
C511 C201 1.538 1_556 S
C505 C55 1.551 . S
C525 C68 1.473 . S
C531 C209 1.476 . S
C551 C140 1.704 . S
C545 C1 1.628 . S
C571 C154 1.707 . S
C565 C14 1.609 . S
C585 C27 1.564 . S
C591 C112 1.645 . S
C605 C49 1.506 . S
C611 C129 1.517 . S
C625 C53 1.163 . S
C631 C157 1.172 . S
C651 C115 1.144 . S
C645 C66 1.145 . S
C671 C126 1.278 . S
C665 C88 1.269 . S
C691 C143 1.221 1_545 S
C685 C92 1.221 . S
C711 C199 1.219 . S
C705 C36 1.216 . S
C731 C210 1.274 . S
C725 C40 1.263 . S
C745 C10 1.125 . S
C751 C171 1.148 . S
C771 C185 1.179 . S
C765 C23 1.152 . S
C791 C213 1.516 . S
C785 C79 1.451 . S
C805 C101 1.632 . S
C811 C168 1.638 1_455 S
C831 C182 1.699 . S
C825 C62 1.692 . S
C851 C196 1.707 . S
C845 C75 1.697 . S
