# Generated by pormake.
# Topology ssb, (4,4)-cn, num edge types: 1
# Building blocks:
#     Node 0, Type 0, BuildingBlock: ESEHIV_clean_sbu_0, # of connection points: 4
#     Node 1, Type 0, BuildingBlock: ESEHIV_clean_sbu_0, # of connection points: 4
#     Node 2, Type 0, BuildingBlock: ESEHIV_clean_sbu_0, # of connection points: 4
#     Node 3, Type 0, BuildingBlock: ESEHIV_clean_sbu_0, # of connection points: 4
#     Node 4, Type 0, BuildingBlock: ESEHIV_clean_sbu_0, # of connection points: 4
#     Node 5, Type 0, BuildingBlock: ESEHIV_clean_sbu_0, # of connection points: 4
#     Node 6, Type 0, BuildingBlock: ESEHIV_clean_sbu_0, # of connection points: 4
#     Node 7, Type 0, BuildingBlock: ESEHIV_clean_sbu_0, # of connection points: 4
#     Node 8, Type 1, BuildingBlock: NAWXER_clean_sbu_0, # of connection points: 4
#     Node 9, Type 1, BuildingBlock: NAWXER_clean_sbu_0, # of connection points: 4
#     Node 10, Type 1, BuildingBlock: NAWXER_clean_sbu_0, # of connection points: 4
#     Node 11, Type 1, BuildingBlock: NAWXER_clean_sbu_0, # of connection points: 4
#     Node 12, Type 1, BuildingBlock: NAWXER_clean_sbu_0, # of connection points: 4
#     Node 13, Type 1, BuildingBlock: NAWXER_clean_sbu_0, # of connection points: 4
#     Node 14, Type 1, BuildingBlock: NAWXER_clean_sbu_0, # of connection points: 4
#     Node 15, Type 1, BuildingBlock: NAWXER_clean_sbu_0, # of connection points: 4
#     Edge 16, Type (0, 1), BuildingBlock: AJUNOK_clean_linker_0, # of connection points: 2
#     Edge 17, Type (0, 1), BuildingBlock: AJUNOK_clean_linker_0, # of connection points: 2
#     Edge 18, Type (0, 1), BuildingBlock: AJUNOK_clean_linker_0, # of connection points: 2
#     Edge 19, Type (0, 1), BuildingBlock: AJUNOK_clean_linker_0, # of connection points: 2
#     Edge 20, Type (0, 1), BuildingBlock: AJUNOK_clean_linker_0, # of connection points: 2
#     Edge 21, Type (0, 1), BuildingBlock: AJUNOK_clean_linker_0, # of connection points: 2
#     Edge 22, Type (0, 1), BuildingBlock: AJUNOK_clean_linker_0, # of connection points: 2
#     Edge 23, Type (0, 1), BuildingBlock: AJUNOK_clean_linker_0, # of connection points: 2
#     Edge 24, Type (0, 1), BuildingBlock: AJUNOK_clean_linker_0, # of connection points: 2
#     Edge 25, Type (0, 1), BuildingBlock: AJUNOK_clean_linker_0, # of connection points: 2
#     Edge 26, Type (0, 1), BuildingBlock: AJUNOK_clean_linker_0, # of connection points: 2
#     Edge 27, Type (0, 1), BuildingBlock: AJUNOK_clean_linker_0, # of connection points: 2
#     Edge 28, Type (0, 1), BuildingBlock: AJUNOK_clean_linker_0, # of connection points: 2
#     Edge 29, Type (0, 1), BuildingBlock: AJUNOK_clean_linker_0, # of connection points: 2
#     Edge 30, Type (0, 1), BuildingBlock: AJUNOK_clean_linker_0, # of connection points: 2
#     Edge 31, Type (0, 1), BuildingBlock: AJUNOK_clean_linker_0, # of connection points: 2
#     Edge 32, Type (0, 1), BuildingBlock: AJUNOK_clean_linker_0, # of connection points: 2
#     Edge 33, Type (0, 1), BuildingBlock: AJUNOK_clean_linker_0, # of connection points: 2
#     Edge 34, Type (0, 1), BuildingBlock: AJUNOK_clean_linker_0, # of connection points: 2
#     Edge 35, Type (0, 1), BuildingBlock: AJUNOK_clean_linker_0, # of connection points: 2
#     Edge 36, Type (0, 1), BuildingBlock: AJUNOK_clean_linker_0, # of connection points: 2
#     Edge 37, Type (0, 1), BuildingBlock: AJUNOK_clean_linker_0, # of connection points: 2
#     Edge 38, Type (0, 1), BuildingBlock: AJUNOK_clean_linker_0, # of connection points: 2
#     Edge 39, Type (0, 1), BuildingBlock: AJUNOK_clean_linker_0, # of connection points: 2
#     Edge 40, Type (0, 1), BuildingBlock: AJUNOK_clean_linker_0, # of connection points: 2
#     Edge 41, Type (0, 1), BuildingBlock: AJUNOK_clean_linker_0, # of connection points: 2
#     Edge 42, Type (0, 1), BuildingBlock: AJUNOK_clean_linker_0, # of connection points: 2
#     Edge 43, Type (0, 1), BuildingBlock: AJUNOK_clean_linker_0, # of connection points: 2
#     Edge 44, Type (0, 1), BuildingBlock: AJUNOK_clean_linker_0, # of connection points: 2
#     Edge 45, Type (0, 1), BuildingBlock: AJUNOK_clean_linker_0, # of connection points: 2
#     Edge 46, Type (0, 1), BuildingBlock: AJUNOK_clean_linker_0, # of connection points: 2
#     Edge 47, Type (0, 1), BuildingBlock: AJUNOK_clean_linker_0, # of connection points: 2
# Relax obj value: 0.004
# Max RMSD: 0.103
# Mean RMSD: 0.052
data_MOF--net-ssb--node1-ESEHIV_clean_sbu_0--node2-NAWXER_clean_sbu_0--edge1-AJUNOK_clean_linker_0
_symmetry_space_group_name_H-M    P1
_symmetry_Int_Tables_number       1
_symmetry_cell_setting            triclinic
loop_
_symmetry_equiv_pos_as_xyz
'x, y, z'
_cell_length_a     33.661341
_cell_length_b     34.143981
_cell_length_c     28.73237
_cell_angle_alpha  89.825088
_cell_angle_beta   90.93912
_cell_angle_gamma 90.271032
loop_
_atom_site_label
_atom_site_type_symbol
_atom_site_fract_x
_atom_site_fract_y
_atom_site_fract_z
_atom_type_partial_charge
Cu0 Cu 0.3519 0.30036 0.36203 0.0
N1 N 0.38916 0.27592 0.40169 0.0
N2 N 0.41948 0.22493 0.43619 0.0
C3 C 0.38854 0.23703 0.40943 0.0
C4 C 0.44042 0.25782 0.44599 0.0
C5 C 0.42187 0.28921 0.42425 0.0
O6 O 0.29819 0.28223 0.37849 0.0
C7 C 0.40125 0.3012 0.28932 0.0
O8 O 0.4211 0.32138 0.3209 0.0
H9 H 0.36486 0.21827 0.39655 0.0
H10 H 0.43193 0.31931 0.42441 0.0
N11 N 0.35408 0.35548 0.35857 0.0
N12 N 0.35714 0.4116 0.31764 0.0
C13 C 0.34355 0.37434 0.31894 0.0
C14 C 0.37488 0.382 0.38374 0.0
C15 C 0.37687 0.41662 0.35849 0.0
C16 C 0.29045 0.27207 0.42029 0.0
O17 O 0.31857 0.27477 0.45234 0.0
H18 H 0.32953 0.3596 0.28965 0.0
H19 H 0.38996 0.37591 0.41644 0.0
O20 O 0.36812 0.28555 0.30004 0.0
H21 H 0.46731 0.25911 0.46712 0.0
H22 H 0.39296 0.44286 0.36857 0.0
Cu23 Cu 0.83599 0.29508 0.24397 0.0
N24 N 0.80709 0.26319 0.20172 0.0
N25 N 0.75276 0.2365 0.16747 0.0
C26 C 0.76711 0.25958 0.20216 0.0
C27 C 0.78529 0.22524 0.14408 0.0
C28 C 0.81868 0.24166 0.16527 0.0
O29 O 0.82944 0.34968 0.22504 0.0
C30 C 0.82947 0.24556 0.31573 0.0
O31 O 0.84712 0.22484 0.2837 0.0
H32 H 0.74879 0.2743 0.22724 0.0
H33 H 0.84901 0.23903 0.15396 0.0
N34 N 0.89103 0.28765 0.25062 0.0
N35 N 0.948 0.28992 0.29201 0.0
C36 C 0.91082 0.3039 0.28688 0.0
C37 C 0.91668 0.26249 0.23151 0.0
C38 C 0.95187 0.26373 0.25719 0.0
C39 C 0.85155 0.36059 0.19164 0.0
O40 O 0.87528 0.33471 0.1731 0.0
H41 H 0.8967 0.3229 0.31169 0.0
H42 H 0.9095 0.24267 0.20331 0.0
O43 O 0.81795 0.28016 0.30548 0.0
H44 H 0.785 0.20798 0.11256 0.0
H45 H 0.97745 0.2452 0.25222 0.0
Cu46 Cu 0.7932 0.8235 0.28682 0.0
N47 N 0.81072 0.80038 0.23125 0.0
N48 N 0.80584 0.75439 0.17557 0.0
C49 C 0.80317 0.76229 0.22144 0.0
C50 C 0.81627 0.78866 0.15562 0.0
C51 C 0.81922 0.81695 0.18996 0.0
O52 O 0.73973 0.80124 0.29021 0.0
C53 C 0.85919 0.83866 0.34401 0.0
O54 O 0.8644 0.86483 0.31105 0.0
H55 H 0.79233 0.74156 0.24689 0.0
H56 H 0.82433 0.84784 0.18444 0.0
N57 N 0.7855 0.87815 0.28706 0.0
N58 N 0.76978 0.9353 0.3197 0.0
C59 C 0.77403 0.89643 0.32596 0.0
C60 C 0.78836 0.90661 0.25459 0.0
C61 C 0.77844 0.94199 0.27472 0.0
C62 C 0.71834 0.81519 0.25705 0.0
O63 O 0.73381 0.84167 0.22948 0.0
H64 H 0.76901 0.88129 0.35852 0.0
H65 H 0.79688 0.90219 0.21894 0.0
O66 O 0.83039 0.81418 0.33948 0.0
H67 H 0.81998 0.79328 0.11865 0.0
H68 H 0.77863 0.97046 0.25804 0.0
Cu69 Cu 0.2921 0.82747 0.28789 0.0
N70 N 0.31305 0.85031 0.23389 0.0
N71 N 0.35762 0.86008 0.17767 0.0
C72 C 0.34885 0.84048 0.21713 0.0
C73 C 0.32576 0.8831 0.16906 0.0
C74 C 0.29829 0.87699 0.20378 0.0
O75 O 0.29909 0.77181 0.27957 0.0
C76 C 0.30781 0.88764 0.34622 0.0
O77 O 0.28701 0.90401 0.31239 0.0
H78 H 0.36825 0.81931 0.23386 0.0
H79 H 0.26954 0.8907 0.20653 0.0
N80 N 0.23733 0.83123 0.29796 0.0
N81 N 0.18105 0.81408 0.33361 0.0
C82 C 0.21924 0.80494 0.32559 0.0
C83 C 0.20945 0.85798 0.28712 0.0
C84 C 0.1746 0.84737 0.30901 0.0
C85 C 0.27632 0.75936 0.24683 0.0
O86 O 0.25455 0.78483 0.22353 0.0
H87 H 0.2344 0.77967 0.33986 0.0
H88 H 0.2144 0.884 0.26644 0.0
O89 O 0.31693 0.8516 0.34241 0.0
H90 H 0.32203 0.90228 0.13928 0.0
H91 H 0.14724 0.8639 0.30859 0.0
Cu92 Cu 0.32893 0.77404 0.7996 0.0
N93 N 0.3791 0.75432 0.78596 0.0
N94 N 0.44281 0.74694 0.80703 0.0
C95 C 0.41067 0.77013 0.80802 0.0
C96 C 0.43114 0.71497 0.78278 0.0
C97 C 0.39174 0.71983 0.76918 0.0
O98 O 0.32107 0.75441 0.86383 0.0
C99 C 0.35042 0.83923 0.75182 0.0
O100 O 0.35801 0.81097 0.72242 0.0
H101 H 0.40849 0.79594 0.82966 0.0
H102 H 0.37277 0.698 0.75291 0.0
N103 N 0.2879 0.75939 0.75774 0.0
N104 N 0.23615 0.76543 0.70774 0.0
C105 C 0.26171 0.78418 0.73704 0.0
C106 C 0.27868 0.72375 0.74092 0.0
C107 C 0.24693 0.72736 0.71025 0.0
C108 C 0.3265 0.71758 0.86956 0.0
O109 O 0.32952 0.69542 0.83261 0.0
H110 H 0.26229 0.81551 0.74243 0.0
H111 H 0.29415 0.69703 0.74984 0.0
O112 O 0.33554 0.83062 0.79121 0.0
H113 H 0.44864 0.68873 0.77867 0.0
H114 H 0.2328 0.70361 0.69129 0.0
Cu115 Cu 0.29675 0.30195 0.81884 0.0
N116 N 0.30908 0.35353 0.83413 0.0
N117 N 0.30983 0.40903 0.8748 0.0
C118 C 0.2956 0.37215 0.87185 0.0
C119 C 0.33346 0.41365 0.83764 0.0
C120 C 0.33281 0.37934 0.81243 0.0
O121 O 0.31138 0.27127 0.87465 0.0
C122 C 0.23452 0.32599 0.76222 0.0
O123 O 0.26174 0.3524 0.75283 0.0
H124 H 0.27691 0.35833 0.89749 0.0
H125 H 0.34869 0.37354 0.7808 0.0
N126 N 0.32693 0.28394 0.77009 0.0
N127 N 0.34345 0.24033 0.71631 0.0
C128 C 0.31402 0.25508 0.74198 0.0
C129 C 0.36589 0.28823 0.76172 0.0
C130 C 0.37621 0.2612 0.72841 0.0
C131 C 0.33223 0.24003 0.87422 0.0
O132 O 0.33583 0.22098 0.83492 0.0
H133 H 0.28466 0.24223 0.74437 0.0
H134 H 0.3859 0.30721 0.78111 0.0
O135 O 0.24214 0.30062 0.79401 0.0
H136 H 0.3503 0.43983 0.82958 0.0
H137 H 0.40596 0.25552 0.71644 0.0
Cu138 Cu 0.77667 0.3113 0.76616 0.0
N139 N 0.82874 0.29279 0.75866 0.0
N140 N 0.8839 0.27365 0.72213 0.0
C141 C 0.84812 0.29145 0.71794 0.0
C142 C 0.88672 0.26289 0.76734 0.0
C143 C 0.85271 0.27454 0.78966 0.0
O144 O 0.75175 0.3065 0.70473 0.0
C145 C 0.78879 0.36445 0.8377 0.0
O146 O 0.80721 0.33343 0.85421 0.0
H147 H 0.83534 0.30211 0.68557 0.0
H148 H 0.84563 0.26924 0.82571 0.0
N149 N 0.74851 0.27841 0.80507 0.0
N150 N 0.69853 0.26202 0.85118 0.0
C151 C 0.72092 0.29139 0.8344 0.0
C152 C 0.74413 0.23928 0.80361 0.0
C153 C 0.71336 0.229 0.83245 0.0
C154 C 0.71798 0.29022 0.69772 0.0
O155 O 0.69251 0.28899 0.73182 0.0
H156 H 0.71667 0.32204 0.84199 0.0
H157 H 0.76047 0.22001 0.78114 0.0
O158 O 0.77453 0.36305 0.79624 0.0
H159 H 0.91167 0.24777 0.78327 0.0
H160 H 0.70163 0.19976 0.83755 0.0
Cu161 Cu 0.79499 0.82046 0.78503 0.0
N162 N 0.78073 0.76789 0.78567 0.0
N163 N 0.79003 0.706 0.80815 0.0
C164 C 0.79977 0.74373 0.81528 0.0
C165 C 0.76281 0.7064 0.77304 0.0
C166 C 0.75745 0.74482 0.75873 0.0
O167 O 0.78126 0.83699 0.84838 0.0
C168 C 0.85395 0.79863 0.72816 0.0
O169 O 0.82137 0.7879 0.70578 0.0
H170 H 0.82027 0.75403 0.842 0.0
H171 H 0.73885 0.75489 0.73015 0.0
N172 N 0.76847 0.85107 0.74027 0.0
N173 N 0.75569 0.90292 0.69466 0.0
C174 C 0.78206 0.8856 0.72393 0.0
C175 C 0.73242 0.84602 0.72027 0.0
C176 C 0.72454 0.87787 0.69191 0.0
C177 C 0.75506 0.863 0.85627 0.0
O178 O 0.74372 0.88626 0.82218 0.0
H179 H 0.81023 0.8984 0.73464 0.0
H180 H 0.7129 0.82141 0.72657 0.0
O181 O 0.85063 0.8175 0.76635 0.0
H182 H 0.74815 0.68081 0.75857 0.0
H183 H 0.69795 0.88211 0.67086 0.0
C184 C 1.01224 0.25655 0.59139 0.0
C185 C 0.13624 0.24845 0.50021 0.0
O186 O 1.02677 0.28901 0.57711 0.0
Zn187 Zn 0.07531 0.31173 0.53971 0.0
O188 O 0.03021 0.22474 0.58218 0.0
Zn189 Zn 0.07464 0.24797 0.54666 0.0
O190 O 0.10593 0.27745 0.60046 0.0
O191 O 0.10453 0.3411 0.58874 0.0
O192 O 0.11904 0.21893 0.51853 0.0
O193 O 0.12235 0.28277 0.5064 0.0
O194 O 0.04834 0.33496 0.48503 0.0
O195 O 0.04556 0.2704 0.4857 0.0
C196 C 0.11555 0.31196 0.61362 0.0
C197 C 0.03756 0.30301 0.46552 0.0
C198 C 0.72097 0.15845 0.57284 0.0
C199 C 0.74036 0.05187 0.46016 0.0
O200 O 0.75638 0.14516 0.57105 0.0
Zn201 Zn 0.78919 0.10119 0.53695 0.0
O202 O 0.69301 0.14143 0.55018 0.0
Zn203 Zn 0.72646 0.10304 0.5183 0.0
O204 O 0.74166 0.06119 0.57098 0.0
O205 O 0.80605 0.06459 0.58568 0.0
O206 O 0.70731 0.06877 0.46729 0.0
O207 O 0.77116 0.06208 0.48379 0.0
O208 O 0.82645 0.13414 0.50316 0.0
O209 O 0.76384 0.14188 0.48065 0.0
C210 C 0.77242 0.04885 0.59334 0.0
C211 C 0.80048 0.1516 0.47794 0.0
C212 C 0.98965 0.77218 0.61335 0.0
C213 C 0.07336 0.76689 0.47336 0.0
O214 O 1.00365 0.8048 0.59902 0.0
Zn215 Zn 0.03956 0.8283 0.54684 0.0
O216 O 0.9977 0.74079 0.59147 0.0
Zn217 Zn 0.03155 0.76396 0.54309 0.0
O218 O 0.08201 0.78238 0.58145 0.0
O219 O 0.08658 0.84679 0.58453 0.0
O220 O 0.05809 0.73639 0.49184 0.0
O221 O 0.06817 0.80053 0.49146 0.0
O222 O 0.99988 0.85934 0.50993 0.0
O223 O 0.98922 0.79589 0.50427 0.0
C224 C 0.1005 0.81311 0.59517 0.0
C225 C 0.97937 0.83083 0.49336 0.0
C226 C 0.33827 0.0904 0.62409 0.0
C227 C 0.33545 0.98527 0.50964 0.0
O228 O 0.37171 0.07298 0.6205 0.0
Zn229 Zn 0.39679 0.02552 0.58226 0.0
O230 O 0.30802 0.07714 0.60209 0.0
Zn231 Zn 0.33534 0.03551 0.57046 0.0
O232 O 0.34763 0.99369 0.62455 0.0
O233 O 0.41258 0.98854 0.63051 0.0
O234 O 0.30695 1.00596 0.5241 0.0
O235 O 0.37017 0.98953 0.52816 0.0
O236 O 0.4368 0.05595 0.54921 0.0
O237 O 0.37484 0.07028 0.52916 0.0
C238 C 0.37832 0.97836 0.64418 0.0
C239 C 0.41223 0.07601 0.52499 0.0
C240 C 0.5047 0.84144 0.07584 0.0
C241 C 0.63409 0.84457 0.99763 0.0
O242 O 0.52394 0.87061 0.0602 0.0
Zn243 Zn 0.56984 0.84275 0.03804 0.0
O244 O 0.51962 0.80702 0.07165 0.0
Zn245 Zn 0.57355 0.78139 0.04311 0.0
O246 O 0.59797 0.75654 0.09741 0.0
O247 O 0.59616 0.82094 0.10157 0.0
O248 O 0.62348 0.80946 1.00821 0.0
O249 O 0.61215 0.87277 1.00988 0.0
O250 O 0.54627 0.81097 0.97919 0.0
O251 O 0.55287 0.74795 0.99386 0.0
C252 C 0.60493 0.78777 0.12009 0.0
C253 C 0.54201 0.77523 0.96634 0.0
C254 C 0.28282 0.61221 0.15363 0.0
C255 C 0.29617 0.5153 1.02987 0.0
O256 O 0.31854 0.60487 0.14215 0.0
Zn257 Zn 0.35056 0.56911 0.09645 0.0
O258 O 0.25393 0.59511 0.13272 0.0
Zn259 Zn 0.28623 0.56347 0.09212 0.0
O260 O 0.31446 0.52601 0.14179 0.0
O261 O 0.37919 0.53519 0.14206 0.0
O262 O 0.26353 0.52661 0.04703 0.0
O263 O 0.32898 0.52899 0.04619 0.0
O264 O 0.37504 0.60879 0.0554 0.0
O265 O 0.30979 0.60773 0.04769 0.0
C266 C 0.3489 0.51758 0.15837 0.0
C267 C 0.34337 0.62229 0.03639 0.0
C268 C 0.57068 0.27247 0.98159 0.0
C269 C 0.4872 0.28395 0.1184 0.0
O270 O 0.558 0.30464 0.99796 0.0
Zn271 Zn 0.52834 0.2814 0.04905 0.0
O272 O 0.55966 0.24001 0.99955 0.0
Zn273 Zn 0.52572 0.21768 0.05435 0.0
O274 O 0.4812 0.1913 1.0201 0.0
O275 O 0.47887 0.25564 1.01455 0.0
O276 O 0.49473 0.24863 0.10653 0.0
O277 O 0.50179 0.31231 0.09527 0.0
O278 O 0.57581 0.25614 0.08826 0.0
O279 O 0.56989 0.19188 0.08977 0.0
C280 C 0.46345 0.22214 1.00583 0.0
C281 C 0.58945 0.22275 0.10075 0.0
C282 C 0.77948 0.60893 0.07702 0.0
C283 C 0.77436 0.49314 0.9701 0.0
O284 O 0.81293 0.59597 0.06357 0.0
Zn285 Zn 0.83644 0.55219 1.02025 0.0
O286 O 0.74754 0.59181 0.06354 0.0
Zn287 Zn 0.77125 0.54939 1.0255 0.0
O288 O 0.8028 0.51421 0.07467 0.0
O289 O 0.86736 0.52017 0.06386 0.0
O290 O 0.7432 0.50837 0.9872 0.0
O291 O 0.80841 0.50729 0.98119 0.0
O292 O 0.85834 0.58374 0.96876 0.0
O293 O 0.79287 0.58258 0.97028 0.0
C294 C 0.83853 0.50497 0.08596 0.0
C295 C 0.82487 0.59363 0.95093 0.0
C296 C 0.24538 0.23695 0.47547 0.0
C297 C 0.24995 0.25955 0.43458 0.0
C298 C 0.20772 0.22976 0.49438 0.0
C299 C 0.17331 0.24539 0.47346 0.0
H300 H 0.27127 0.22601 0.49415 0.0
H301 H 0.20586 0.21438 0.52731 0.0
S302 S 0.16814 0.30306 0.3639 0.0
N303 N 0.21602 0.29435 0.37176 0.0
N304 N 0.14558 0.28175 0.40795 0.0
C305 C 0.17716 0.26599 0.43123 0.0
C306 C 0.21537 0.27277 0.41156 0.0
C307 C 0.85262 0.19955 0.37746 0.0
C308 C 0.82488 0.22789 0.36229 0.0
C309 C 0.84621 0.17688 0.41737 0.0
C310 C 0.81148 0.18136 0.44302 0.0
H311 H 0.87886 0.19375 0.35729 0.0
H312 H 0.86726 0.15405 0.42631 0.0
S313 S 0.73248 0.25523 0.42199 0.0
N314 N 0.76386 0.26227 0.37912 0.0
N315 N 0.75121 0.21922 0.45384 0.0
C316 C 0.78491 0.21149 0.43017 0.0
C317 C 0.79178 0.23496 0.38988 0.0
C318 C 0.89287 0.80439 0.41154 0.0
C319 C 0.88687 0.8386 0.38523 0.0
C320 C 0.92169 0.80299 0.44748 0.0
C321 C 0.94568 0.83582 0.45917 0.0
H322 H 0.87621 0.77803 0.40329 0.0
H323 H 0.92577 0.77537 0.46554 0.0
S324 S 0.93782 0.93424 0.40503 0.0
N325 N 0.9046 0.90748 0.3764 0.0
N326 N 0.95855 0.90463 0.44385 0.0
C327 C 0.93838 0.87087 0.43487 0.0
C328 C 0.90915 0.87227 0.39797 0.0
C329 C 0.29051 0.94194 0.3995 0.0
C330 C 0.31572 0.91043 0.38928 0.0
C331 C 0.29675 0.96515 0.43896 0.0
C332 C 0.3289 0.95838 0.46969 0.0
H333 H 0.26543 0.9488 0.37685 0.0
H334 H 0.27655 0.98919 0.44479 0.0
S335 S 0.40331 0.87901 0.45954 0.0
N336 N 0.37355 0.87289 0.41381 0.0
N337 N 0.38597 0.9172 0.48784 0.0
C338 C 0.3543 0.92676 0.46024 0.0
C339 C 0.34749 0.90257 0.42018 0.0
C340 C 0.19529 0.7635 0.6355 0.0
C341 C 0.20497 0.78177 0.67804 0.0
C342 C 0.16284 0.77569 0.60806 0.0
C343 C 0.13859 0.80711 0.6213 0.0
H344 H 0.21249 0.7389 0.62358 0.0
H345 H 0.15594 0.75943 0.57664 0.0
S346 S 0.15154 0.86641 0.72826 0.0
N347 N 0.18794 0.83414 0.73145 0.0
N348 N 0.12728 0.85742 0.67894 0.0
C349 C 0.14882 0.82707 0.6625 0.0
C350 C 0.1819 0.81435 0.69103 0.0
C351 C 0.37281 0.17663 0.69708 0.0
C352 C 0.34177 0.20367 0.69178 0.0
C353 C 0.37053 0.13966 0.67642 0.0
C354 C 0.33714 0.12813 0.64947 0.0
H355 H 0.39877 0.18379 0.71815 0.0
H356 H 0.39545 0.12005 0.68147 0.0
S357 S 0.24822 0.18903 0.62394 0.0
N358 N 0.27694 0.21708 0.6571 0.0
N359 N 0.27241 0.14739 0.61815 0.0
C360 C 0.30573 0.15495 0.64398 0.0
C361 C 0.30815 0.19274 0.66509 0.0
C362 C 0.93889 0.23492 0.68833 0.0
C363 C 0.91331 0.2676 0.68645 0.0
C364 C 0.96952 0.23004 0.65595 0.0
C365 C 0.97602 0.25785 0.62062 0.0
H366 H 0.93556 0.21314 0.71544 0.0
H367 H 0.98921 0.20521 0.65985 0.0
S368 S 0.91612 0.34735 0.59831 0.0
N369 N 0.89607 0.32738 0.64475 0.0
N370 N 0.95254 0.31788 0.58379 0.0
C371 C 0.94966 0.28977 0.61723 0.0
C372 C 0.91862 0.29473 0.65007 0.0
C373 C 0.79713 0.95329 0.65607 0.0
C374 C 0.75988 0.94064 0.67217 0.0
C375 C 0.80145 0.98916 0.6324 0.0
C376 C 0.76865 1.01381 0.62396 0.0
H377 H 0.82292 0.93476 0.66056 0.0
H378 H 0.8304 0.9969 0.61916 0.0
S379 S 0.66584 0.99675 0.6648 0.0
N380 N 0.69055 0.95758 0.68225 0.0
N381 N 0.69836 0.02449 0.63749 0.0
C382 C 0.73161 1.00222 0.64171 0.0
C383 C 0.72728 0.9658 0.6658 0.0
C384 C 0.89397 0.75547 0.67735 0.0
C385 C 0.89257 0.788 0.70753 0.0
C386 C 0.92722 0.74813 0.64994 0.0
C387 C 0.96021 0.77335 0.65124 0.0
H388 H 0.86836 0.73638 0.67324 0.0
H389 H 0.92577 0.72427 0.62519 0.0
S390 S 0.97422 0.85889 0.72964 0.0
N391 N 0.92913 0.84267 0.74123 0.0
N392 N 0.99165 0.82928 0.68953 0.0
C393 C 0.96054 0.80411 0.68404 0.0
C394 C 0.92675 0.81132 0.7123 0.0
C395 C 0.32785 0.90471 0.72407 0.0
C396 C 0.35907 0.87965 0.73691 0.0
C397 C 0.33475 0.93786 0.69612 0.0
C398 C 0.37314 0.94708 0.68 0.0
H399 H 0.29756 0.89713 0.73275 0.0
H400 H 0.30941 0.95526 0.68524 0.0
S401 S 0.46546 0.89246 0.70933 0.0
N402 N 0.4299 0.86753 0.73521 0.0
N403 N 0.44331 0.92995 0.68354 0.0
C404 C 0.40497 0.92357 0.69568 0.0
C405 C 0.39777 0.88976 0.72381 0.0
C406 C 0.18914 0.35544 0.70176 0.0
C407 C 0.19919 0.32319 0.73045 0.0
C408 C 0.16076 0.35225 0.66552 0.0
C409 C 0.14134 0.31655 0.65613 0.0
H410 H 0.20437 0.38323 0.70624 0.0
H411 H 0.15529 0.37756 0.64355 0.0
S412 S 0.15411 0.22406 0.72374 0.0
N413 N 0.18531 0.25514 0.74895 0.0
N414 N 0.13194 0.24887 0.6814 0.0
C415 C 0.14956 0.28457 0.68622 0.0
C416 C 0.17839 0.28795 0.72323 0.0
C417 C 0.68324 0.23306 0.65927 0.0
C418 C 0.7133 0.26214 0.65832 0.0
C419 C 0.684 0.20045 0.62937 0.0
C420 C 0.71501 0.19574 0.59786 0.0
H421 H 0.66026 0.23411 0.68517 0.0
H422 H 0.66172 0.17771 0.63304 0.0
S423 S 0.79637 0.26666 0.57492 0.0
N424 N 0.77135 0.28652 0.6177 0.0
N425 N 0.77321 0.22516 0.56271 0.0
C426 C 0.74324 0.22605 0.59387 0.0
C427 C 0.74223 0.25932 0.6237 0.0
C428 C 0.99267 0.26266 0.35287 0.0
C429 C 0.97351 0.29507 0.33256 0.0
C430 C 1.01362 0.26598 0.39528 0.0
C431 C 1.01666 0.30194 0.41928 0.0
H432 H 0.9902 0.23411 0.33679 0.0
H433 H 0.02713 0.23976 0.40959 0.0
S434 S 0.97455 0.39652 0.37864 0.0
N435 N 0.96088 0.36491 0.33796 0.0
N436 N 1.00033 0.37123 0.41773 0.0
C437 C 0.99887 0.33497 0.39844 0.0
C438 C 0.97725 0.33149 0.35521 0.0
C439 C 0.73332 0.9936 0.34725 0.0
C440 C 0.76131 0.96368 0.35518 0.0
C441 C 0.72488 0.02122 0.38208 0.0
C442 C 0.74482 0.02014 0.42551 0.0
H443 H 0.71784 0.9955 0.31399 0.0
H444 H 0.70371 0.04424 0.37444 0.0
S445 S 0.82083 0.94752 0.46318 0.0
N446 N 0.80876 0.93467 0.40945 0.0
N447 N 0.79321 0.98603 0.4746 0.0
C448 C 0.77256 0.99001 0.43377 0.0
C449 C 0.78077 0.96194 0.39869 0.0
C450 C 0.11284 0.79626 0.35743 0.0
C451 C 0.1542 0.79482 0.36543 0.0
C452 C 0.08605 0.78229 0.39072 0.0
C453 C 0.09956 0.76565 0.43289 0.0
H454 H 0.10104 0.80984 0.32607 0.0
H455 H 0.05455 0.787 0.38483 0.0
S456 S 0.20426 0.75405 0.47131 0.0
N457 N 0.20701 0.77473 0.41945 0.0
N458 N 0.15643 0.74748 0.48058 0.0
C459 C 0.14059 0.76194 0.44029 0.0
C460 C 0.16799 0.77671 0.40693 0.0
C461 C 0.44148 0.1802 0.4996 0.0
C462 C 0.42583 0.18579 0.45427 0.0
C463 C 0.44103 0.14307 0.52094 0.0
C464 C 0.42482 0.11037 0.49772 0.0
H465 H 0.45164 0.20504 0.51991 0.0
H466 H 0.45041 0.14063 0.55709 0.0
S467 S 0.38713 0.10748 0.37605 0.0
N468 N 0.39982 0.15374 0.38446 0.0
N469 N 0.39708 0.08472 0.42565 0.0
C470 C 0.41191 0.11489 0.45143 0.0
C471 C 0.41295 0.1524 0.42939 0.0
C472 C 0.72407 0.82476 0.92162 0.0
C473 C 0.73026 0.86085 0.89887 0.0
C474 C 0.69418 0.82018 0.95502 0.0
C475 C 0.66942 0.85158 0.96752 0.0
H476 H 0.74079 0.79918 0.91161 0.0
H477 H 0.68951 0.79135 0.96982 0.0
S478 S 0.6773 0.95358 0.92275 0.0
N479 N 0.71176 0.92944 0.89457 0.0
N480 N 0.65627 0.92119 0.95741 0.0
C481 C 0.67726 0.88848 0.9473 0.0
C482 C 0.70742 0.89299 0.91303 0.0
C483 C 0.30861 0.7029 0.95295 0.0
C484 C 0.33501 0.69935 0.91584 0.0
C485 C 0.31278 0.67926 0.99315 0.0
C486 C 0.3441 0.65203 0.99826 0.0
H487 H 0.28327 0.7222 0.94975 0.0
H488 H 0.29049 0.68133 1.01979 0.0
S489 S 0.42264 0.63374 0.91238 0.0
N490 N 0.39456 0.66779 0.88775 0.0
N491 N 0.40293 0.62471 0.96355 0.0
C492 C 0.37195 0.65008 0.96259 0.0
C493 C 0.36722 0.67335 0.92135 0.0
C494 C 0.38704 0.19919 0.91042 0.0
C495 C 0.36 0.23063 0.91398 0.0
C496 C 0.41899 0.19447 0.94229 0.0
C497 C 0.42533 0.22118 0.97878 0.0
H498 H 0.38483 0.17913 0.88135 0.0
H499 H 0.44024 0.17133 0.9365 0.0
S500 S 0.36004 0.30451 1.00866 0.0
N501 N 0.33941 0.28581 0.96113 0.0
N502 N 0.39928 0.27716 1.02026 0.0
C503 C 0.39692 0.25085 0.98486 0.0
C504 C 0.36431 0.25549 0.95278 0.0
C505 C 0.81163 0.40465 0.90507 0.0
C506 C 0.78331 0.39849 0.86933 0.0
C507 C 0.80717 0.43431 0.93802 0.0
C508 C 0.77389 0.45918 0.9375 0.0
H509 H 0.83788 0.38648 0.90755 0.0
H510 H 0.83046 0.43791 0.96417 0.0
S511 S 0.68959 0.45411 0.85293 0.0
N512 N 0.71963 0.4188 0.83633 0.0
N513 N 0.71119 0.47483 0.89879 0.0
C514 C 0.74464 0.45294 0.90267 0.0
C515 C 0.74945 0.42269 0.8684 0.0
C516 C 0.68323 0.25984 0.16203 0.0
C517 C 0.71123 0.23009 0.15476 0.0
C518 C 0.64357 0.25594 0.14676 0.0
C519 C 0.62966 0.22197 0.12377 0.0
H520 H 0.69232 0.28719 0.17796 0.0
H521 H 0.62386 0.28051 0.15183 0.0
S522 S 0.68976 0.13367 0.10002 0.0
N523 N 0.72136 0.16399 0.12605 0.0
N524 N 0.64681 0.15685 0.09709 0.0
C525 C 0.65677 0.19113 0.1182 0.0
C526 C 0.69749 0.19521 0.13355 0.0
C527 C 0.81231 0.68246 0.16898 0.0
C528 C 0.79592 0.71782 0.15267 0.0
C529 C 0.80503 0.6469 0.14559 0.0
C530 C 0.7798 0.64499 0.106 0.0
H531 H 0.83222 0.68262 0.19897 0.0
H532 H 0.82006 0.62077 0.15791 0.0
S533 S 0.72643 0.72872 0.05193 0.0
N534 N 0.7516 0.74842 0.09591 0.0
N535 N 0.73683 0.68144 0.05301 0.0
C536 C 0.76168 0.67983 0.09068 0.0
C537 C 0.77004 0.71627 0.11368 0.0
C538 C 0.41178 0.81933 0.14634 0.0
C539 C 0.39335 0.85608 0.15055 0.0
C540 C 0.44716 0.81484 0.12155 0.0
C541 C 0.46604 0.84698 0.10012 0.0
H542 H 0.39861 0.79369 0.16224 0.0
H543 H 0.46002 0.78588 0.11972 0.0
S544 S 0.43023 0.94985 0.10152 0.0
N545 N 0.39689 0.92533 0.1316 0.0
N546 N 0.46308 0.91715 0.085 0.0
C547 C 0.44773 0.88395 0.10388 0.0
C548 C 0.41153 0.88841 0.12897 0.0
C549 C 0.38767 0.46185 0.26599 0.0
C550 C 0.35501 0.43809 0.27813 0.0
C551 C 0.3862 0.48663 0.22654 0.0
C552 C 0.35185 0.48891 0.1979 0.0
H553 H 0.41475 0.46089 0.28679 0.0
H554 H 0.41192 0.50456 0.21892 0.0
S555 S 0.25814 0.43268 0.21504 0.0
N556 N 0.28735 0.41883 0.25864 0.0
N557 N 0.28447 0.46434 0.18476 0.0
C558 C 0.31913 0.46497 0.20975 0.0
C559 C 0.32073 0.4399 0.24969 0.0
C560 C 0.41867 0.26268 0.21912 0.0
C561 C 0.41762 0.29862 0.24235 0.0
C562 C 0.44048 0.25865 0.17831 0.0
C563 C 0.46159 0.29053 0.15908 0.0
H564 H 0.40429 0.23712 0.23378 0.0
H565 H 0.44151 0.22996 0.16238 0.0
S566 S 0.46273 0.39238 0.20385 0.0
N567 N 0.43566 0.36763 0.24137 0.0
N568 N 0.47627 0.36028 0.16433 0.0
C569 C 0.45846 0.32727 0.18059 0.0
C570 C 0.4366 0.33123 0.22237 0.0
C571 C 0.88054 0.41291 0.14123 0.0
C572 C 0.85011 0.40071 0.17132 0.0
C573 C 0.87807 0.44823 0.1163 0.0
C574 C 0.84486 0.47268 0.12005 0.0
H575 H 0.90604 0.3944 0.13558 0.0
H576 H 0.9013 0.4552 0.09193 0.0
S577 S 0.75959 0.45709 0.19866 0.0
N578 N 0.7877 0.41811 0.20701 0.0
N579 N 0.7828 0.48435 0.15998 0.0
C580 C 0.81542 0.46214 0.15226 0.0
C581 C 0.81811 0.42625 0.17796 0.0
C582 C 0.64988 0.82628 0.23186 0.0
C583 C 0.67983 0.79889 0.2419 0.0
C584 C 0.62322 0.82064 0.19463 0.0
C585 C 0.62531 0.78719 0.1663 0.0
H586 H 0.65023 0.85449 0.24908 0.0
H587 H 0.60297 0.84419 0.18576 0.0
S588 S 0.69112 0.70179 0.18682 0.0
N589 N 0.705 0.73375 0.22705 0.0
N590 N 0.65422 0.72246 0.15729 0.0
C591 C 0.65123 0.75696 0.18036 0.0
C592 C 0.67862 0.76293 0.21835 0.0
C593 C 0.24303 0.70534 0.20332 0.0
C594 C 0.27477 0.71798 0.23231 0.0
C595 C 0.24383 0.66898 0.18113 0.0
C596 C 0.27655 0.64416 0.18699 0.0
H597 H 0.21817 0.7245 0.19572 0.0
H598 H 0.22017 0.66171 0.15659 0.0
S599 S 0.36336 0.65995 0.26631 0.0
N600 N 0.33688 0.70029 0.27102 0.0
N601 N 0.33849 0.6317 0.22936 0.0
C602 C 0.30661 0.65472 0.2194 0.0
C603 C 0.3057 0.69174 0.24213 0.0
C604 C 0.4857 0.72093 0.87022 0.0
C605 C 0.47594 0.75121 0.8389 0.0
C606 C 0.50877 0.72836 0.91047 0.0
C607 C 0.5231 0.76633 0.92044 0.0
H608 H 0.47316 0.69204 0.86524 0.0
H609 H 0.51355 0.70465 0.93504 0.0
S610 S 0.5129 0.85344 0.84329 0.0
N611 N 0.48731 0.81868 0.81633 0.0
N612 N 0.53115 0.83297 0.89115 0.0
C613 C 0.51674 0.79587 0.88677 0.0
C614 C 0.49317 0.7882 0.84614 0.0
C615 C 0.33741 0.45812 0.9288 0.0
C616 C 0.30483 0.43605 0.9126 0.0
C617 C 0.33399 0.48337 0.96667 0.0
C618 C 0.29769 0.48796 0.98986 0.0
H619 H 0.36608 0.45524 0.91266 0.0
H620 H 0.36028 0.49949 0.9777 0.0
S621 S 0.20272 0.43805 0.95918 0.0
N622 N 0.23465 0.42115 0.92116 0.0
N623 N 0.22804 0.46885 0.99267 0.0
C624 C 0.26457 0.46649 0.97349 0.0
C625 C 0.2682 0.44043 0.93489 0.0
C626 C 0.65804 0.2353 0.91412 0.0
C627 C 0.66535 0.26528 0.88193 0.0
C628 C 0.62703 0.23806 0.94551 0.0
C629 C 0.60203 0.27105 0.94629 0.0
H630 H 0.67702 0.20981 0.91579 0.0
H631 H 0.62328 0.21429 0.97016 0.0
S632 S 0.60636 0.35644 0.86676 0.0
N633 N 0.64313 0.32804 0.85036 0.0
N634 N 0.5855 0.33366 0.91095 0.0
C635 C 0.60854 0.30116 0.91401 0.0
C636 C 0.64 0.29816 0.88142 0.0
C637 C 0.77465 0.64498 0.84959 0.0
C638 C 0.80246 0.6735 0.83684 0.0
C639 C 0.7835 0.6178 0.88461 0.0
C640 C 0.82055 0.61799 0.90841 0.0
H641 H 0.74497 0.64519 0.8345 0.0
H642 H 0.76024 0.5975 0.89446 0.0
S643 S 0.90639 0.68186 0.88132 0.0
N644 N 0.87074 0.69662 0.84525 0.0
N645 N 0.88709 0.64575 0.91213 0.0
C646 C 0.84987 0.64415 0.89323 0.0
C647 C 0.84084 0.67193 0.85728 0.0
loop_
_geom_bond_atom_site_label_1
_geom_bond_atom_site_label_2
_geom_bond_distance
_geom_bond_site_symmetry_2
_ccdc_geom_bond_type
Cu0 N1 1.999 . S
Cu0 O6 1.974 . S
Cu0 N11 1.985 . S
Cu0 O20 1.959 . S
N1 Cu0 1.999 . S
N1 C3 1.263 . S
N1 C5 1.389 . S
N2 C3 1.358 . S
N2 C4 1.400 . S
C3 N1 1.263 . S
C3 N2 1.358 . S
C3 H9 0.930 . S
C4 N2 1.400 . S
C4 C5 1.351 . S
C4 H21 0.930 . S
C5 N1 1.389 . S
C5 C4 1.351 . S
C5 H10 0.930 . S
O6 Cu0 1.974 . S
O6 C16 1.282 . S
C7 O8 1.261 . S
C7 O20 1.251 . S
O8 C7 1.261 . S
H9 C3 0.930 . S
H10 C5 0.930 . S
N11 Cu0 1.985 . S
N11 C13 1.335 . S
N11 C14 1.390 . S
N12 C13 1.345 . S
N12 C15 1.336 . S
C13 N11 1.335 . S
C13 N12 1.345 . S
C13 H18 0.930 . S
C14 N11 1.390 . S
C14 C15 1.346 . S
C14 H19 0.930 . S
C15 N12 1.336 . S
C15 C14 1.346 . S
C15 H22 0.929 . S
C16 O6 1.282 . S
C16 O17 1.216 . S
O17 C16 1.216 . S
H18 C13 0.930 . S
H19 C14 0.930 . S
O20 Cu0 1.959 . S
O20 C7 1.251 . S
H21 C4 0.930 . S
H22 C15 0.929 . S
Cu23 N24 1.999 . S
Cu23 O29 1.974 . S
Cu23 N34 1.985 . S
Cu23 O43 1.959 . S
N24 Cu23 1.999 . S
N24 C26 1.263 . S
N24 C28 1.389 . S
N25 C26 1.358 . S
N25 C27 1.400 . S
C26 N24 1.263 . S
C26 N25 1.358 . S
C26 H32 0.930 . S
C27 N25 1.400 . S
C27 C28 1.351 . S
C27 H44 0.930 . S
C28 N24 1.389 . S
C28 C27 1.351 . S
C28 H33 0.930 . S
O29 Cu23 1.974 . S
O29 C39 1.282 . S
C30 O31 1.261 . S
C30 O43 1.251 . S
O31 C30 1.261 . S
H32 C26 0.930 . S
H33 C28 0.930 . S
N34 Cu23 1.985 . S
N34 C36 1.335 . S
N34 C37 1.390 . S
N35 C36 1.345 . S
N35 C38 1.336 . S
C36 N34 1.335 . S
C36 N35 1.345 . S
C36 H41 0.930 . S
C37 N34 1.390 . S
C37 C38 1.346 . S
C37 H42 0.930 . S
C38 N35 1.336 . S
C38 C37 1.346 . S
C38 H45 0.929 . S
C39 O29 1.282 . S
C39 O40 1.216 . S
O40 C39 1.216 . S
H41 C36 0.930 . S
H42 C37 0.930 . S
O43 Cu23 1.959 . S
O43 C30 1.251 . S
H44 C27 0.930 . S
H45 C38 0.929 . S
Cu46 N47 1.999 . S
Cu46 O52 1.974 . S
Cu46 N57 1.985 . S
Cu46 O66 1.959 . S
N47 Cu46 1.999 . S
N47 C49 1.263 . S
N47 C51 1.389 . S
N48 C49 1.358 . S
N48 C50 1.400 . S
C49 N47 1.263 . S
C49 N48 1.358 . S
C49 H55 0.930 . S
C50 N48 1.400 . S
C50 C51 1.351 . S
C50 H67 0.930 . S
C51 N47 1.389 . S
C51 C50 1.351 . S
C51 H56 0.930 . S
O52 Cu46 1.974 . S
O52 C62 1.282 . S
C53 O54 1.261 . S
C53 O66 1.251 . S
O54 C53 1.261 . S
H55 C49 0.930 . S
H56 C51 0.930 . S
N57 Cu46 1.985 . S
N57 C59 1.335 . S
N57 C60 1.390 . S
N58 C59 1.345 . S
N58 C61 1.336 . S
C59 N57 1.335 . S
C59 N58 1.345 . S
C59 H64 0.930 . S
C60 N57 1.390 . S
C60 C61 1.346 . S
C60 H65 0.930 . S
C61 N58 1.336 . S
C61 C60 1.346 . S
C61 H68 0.929 . S
C62 O52 1.282 . S
C62 O63 1.216 . S
O63 C62 1.216 . S
H64 C59 0.930 . S
H65 C60 0.930 . S
O66 Cu46 1.959 . S
O66 C53 1.251 . S
H67 C50 0.930 . S
H68 C61 0.929 . S
Cu69 N70 1.999 . S
Cu69 O75 1.974 . S
Cu69 N80 1.985 . S
Cu69 O89 1.959 . S
N70 Cu69 1.999 . S
N70 C72 1.263 . S
N70 C74 1.389 . S
N71 C72 1.358 . S
N71 C73 1.400 . S
C72 N70 1.263 . S
C72 N71 1.358 . S
C72 H78 0.930 . S
C73 N71 1.400 . S
C73 C74 1.351 . S
C73 H90 0.930 . S
C74 N70 1.389 . S
C74 C73 1.351 . S
C74 H79 0.930 . S
O75 Cu69 1.974 . S
O75 C85 1.282 . S
C76 O77 1.261 . S
C76 O89 1.251 . S
O77 C76 1.261 . S
H78 C72 0.930 . S
H79 C74 0.930 . S
N80 Cu69 1.985 . S
N80 C82 1.335 . S
N80 C83 1.390 . S
N81 C82 1.345 . S
N81 C84 1.336 . S
C82 N80 1.335 . S
C82 N81 1.345 . S
C82 H87 0.930 . S
C83 N80 1.390 . S
C83 C84 1.346 . S
C83 H88 0.930 . S
C84 N81 1.336 . S
C84 C83 1.346 . S
C84 H91 0.929 . S
C85 O75 1.282 . S
C85 O86 1.216 . S
O86 C85 1.216 . S
H87 C82 0.930 . S
H88 C83 0.930 . S
O89 Cu69 1.959 . S
O89 C76 1.251 . S
H90 C73 0.930 . S
H91 C84 0.929 . S
Cu92 N93 1.999 . S
Cu92 O98 1.974 . S
Cu92 N103 1.985 . S
Cu92 O112 1.959 . S
N93 Cu92 1.999 . S
N93 C95 1.263 . S
N93 C97 1.389 . S
N94 C95 1.358 . S
N94 C96 1.400 . S
C95 N93 1.263 . S
C95 N94 1.358 . S
C95 H101 0.930 . S
C96 N94 1.400 . S
C96 C97 1.351 . S
C96 H113 0.930 . S
C97 N93 1.389 . S
C97 C96 1.351 . S
C97 H102 0.930 . S
O98 Cu92 1.974 . S
O98 C108 1.282 . S
C99 O100 1.261 . S
C99 O112 1.251 . S
O100 C99 1.261 . S
H101 C95 0.930 . S
H102 C97 0.930 . S
N103 Cu92 1.985 . S
N103 C105 1.335 . S
N103 C106 1.390 . S
N104 C105 1.345 . S
N104 C107 1.336 . S
C105 N103 1.335 . S
C105 N104 1.345 . S
C105 H110 0.930 . S
C106 N103 1.390 . S
C106 C107 1.346 . S
C106 H111 0.930 . S
C107 N104 1.336 . S
C107 C106 1.346 . S
C107 H114 0.929 . S
C108 O98 1.282 . S
C108 O109 1.216 . S
O109 C108 1.216 . S
H110 C105 0.930 . S
H111 C106 0.930 . S
O112 Cu92 1.959 . S
O112 C99 1.251 . S
H113 C96 0.930 . S
H114 C107 0.929 . S
Cu115 N116 1.999 . S
Cu115 O121 1.974 . S
Cu115 N126 1.985 . S
Cu115 O135 1.959 . S
N116 Cu115 1.999 . S
N116 C118 1.263 . S
N116 C120 1.389 . S
N117 C118 1.358 . S
N117 C119 1.400 . S
C118 N116 1.263 . S
C118 N117 1.358 . S
C118 H124 0.930 . S
C119 N117 1.400 . S
C119 C120 1.351 . S
C119 H136 0.930 . S
C120 N116 1.389 . S
C120 C119 1.351 . S
C120 H125 0.930 . S
O121 Cu115 1.974 . S
O121 C131 1.282 . S
C122 O123 1.261 . S
C122 O135 1.251 . S
O123 C122 1.261 . S
H124 C118 0.930 . S
H125 C120 0.930 . S
N126 Cu115 1.985 . S
N126 C128 1.335 . S
N126 C129 1.390 . S
N127 C128 1.345 . S
N127 C130 1.336 . S
C128 N126 1.335 . S
C128 N127 1.345 . S
C128 H133 0.930 . S
C129 N126 1.390 . S
C129 C130 1.346 . S
C129 H134 0.930 . S
C130 N127 1.336 . S
C130 C129 1.346 . S
C130 H137 0.929 . S
C131 O121 1.282 . S
C131 O132 1.216 . S
O132 C131 1.216 . S
H133 C128 0.930 . S
H134 C129 0.930 . S
O135 Cu115 1.959 . S
O135 C122 1.251 . S
H136 C119 0.930 . S
H137 C130 0.929 . S
Cu138 N139 1.999 . S
Cu138 O144 1.974 . S
Cu138 N149 1.985 . S
Cu138 O158 1.959 . S
N139 Cu138 1.999 . S
N139 C141 1.263 . S
N139 C143 1.389 . S
N140 C141 1.358 . S
N140 C142 1.400 . S
C141 N139 1.263 . S
C141 N140 1.358 . S
C141 H147 0.930 . S
C142 N140 1.400 . S
C142 C143 1.351 . S
C142 H159 0.930 . S
C143 N139 1.389 . S
C143 C142 1.351 . S
C143 H148 0.930 . S
O144 Cu138 1.974 . S
O144 C154 1.282 . S
C145 O146 1.261 . S
C145 O158 1.251 . S
O146 C145 1.261 . S
H147 C141 0.930 . S
H148 C143 0.930 . S
N149 Cu138 1.985 . S
N149 C151 1.335 . S
N149 C152 1.390 . S
N150 C151 1.345 . S
N150 C153 1.336 . S
C151 N149 1.335 . S
C151 N150 1.345 . S
C151 H156 0.930 . S
C152 N149 1.390 . S
C152 C153 1.346 . S
C152 H157 0.930 . S
C153 N150 1.336 . S
C153 C152 1.346 . S
C153 H160 0.929 . S
C154 O144 1.282 . S
C154 O155 1.216 . S
O155 C154 1.216 . S
H156 C151 0.930 . S
H157 C152 0.930 . S
O158 Cu138 1.959 . S
O158 C145 1.251 . S
H159 C142 0.930 . S
H160 C153 0.929 . S
Cu161 N162 1.999 . S
Cu161 O167 1.974 . S
Cu161 N172 1.985 . S
Cu161 O181 1.959 . S
N162 Cu161 1.999 . S
N162 C164 1.263 . S
N162 C166 1.389 . S
N163 C164 1.358 . S
N163 C165 1.400 . S
C164 N162 1.263 . S
C164 N163 1.358 . S
C164 H170 0.930 . S
C165 N163 1.400 . S
C165 C166 1.351 . S
C165 H182 0.930 . S
C166 N162 1.389 . S
C166 C165 1.351 . S
C166 H171 0.930 . S
O167 Cu161 1.974 . S
O167 C177 1.282 . S
C168 O169 1.261 . S
C168 O181 1.251 . S
O169 C168 1.261 . S
H170 C164 0.930 . S
H171 C166 0.930 . S
N172 Cu161 1.985 . S
N172 C174 1.335 . S
N172 C175 1.390 . S
N173 C174 1.345 . S
N173 C176 1.336 . S
C174 N172 1.335 . S
C174 N173 1.345 . S
C174 H179 0.930 . S
C175 N172 1.390 . S
C175 C176 1.346 . S
C175 H180 0.930 . S
C176 N173 1.336 . S
C176 C175 1.346 . S
C176 H183 0.929 . S
C177 O167 1.282 . S
C177 O178 1.216 . S
O178 C177 1.216 . S
H179 C174 0.930 . S
H180 C175 0.930 . S
O181 Cu161 1.959 . S
O181 C168 1.251 . S
H182 C165 0.930 . S
H183 C176 0.929 . S
C184 O186 1.247 . S
C184 O188 1.258 . S
C185 O192 1.247 . S
C185 O193 1.258 . S
O186 C184 1.247 . S
O186 Zn187 2.028 . S
Zn187 O186 2.028 . S
Zn187 O191 2.035 . S
Zn187 O193 2.035 . S
Zn187 O194 2.028 . S
O188 C184 1.258 . S
O188 Zn189 2.035 . S
Zn189 O188 2.035 . S
Zn189 O190 2.028 . S
Zn189 O192 2.028 . S
Zn189 O195 2.035 . S
O190 Zn189 2.028 . S
O190 C196 1.247 . S
O191 Zn187 2.035 . S
O191 C196 1.258 . S
O192 C185 1.247 . S
O192 Zn189 2.028 . S
O193 C185 1.258 . S
O193 Zn187 2.035 . S
O194 Zn187 2.028 . S
O194 C197 1.247 . S
O195 Zn189 2.035 . S
O195 C197 1.258 . S
C196 O190 1.247 . S
C196 O191 1.258 . S
C197 O194 1.247 . S
C197 O195 1.258 . S
C198 O200 1.247 . S
C198 O202 1.258 . S
C199 O206 1.247 . S
C199 O207 1.258 . S
O200 C198 1.247 . S
O200 Zn201 2.028 . S
Zn201 O200 2.028 . S
Zn201 O205 2.035 . S
Zn201 O207 2.035 . S
Zn201 O208 2.028 . S
O202 C198 1.258 . S
O202 Zn203 2.035 . S
Zn203 O202 2.035 . S
Zn203 O204 2.028 . S
Zn203 O206 2.028 . S
Zn203 O209 2.035 . S
O204 Zn203 2.028 . S
O204 C210 1.247 . S
O205 Zn201 2.035 . S
O205 C210 1.258 . S
O206 C199 1.247 . S
O206 Zn203 2.028 . S
O207 C199 1.258 . S
O207 Zn201 2.035 . S
O208 Zn201 2.028 . S
O208 C211 1.247 . S
O209 Zn203 2.035 . S
O209 C211 1.258 . S
C210 O204 1.247 . S
C210 O205 1.258 . S
C211 O208 1.247 . S
C211 O209 1.258 . S
C212 O214 1.247 . S
C212 O216 1.258 . S
C213 O220 1.247 . S
C213 O221 1.258 . S
O214 C212 1.247 . S
O214 Zn215 2.028 1_655 S
Zn215 O214 2.028 1_455 S
Zn215 O219 2.035 . S
Zn215 O221 2.035 . S
Zn215 O222 2.028 1_455 S
O216 C212 1.258 . S
O216 Zn217 2.035 1_655 S
Zn217 O216 2.035 1_455 S
Zn217 O218 2.028 . S
Zn217 O220 2.028 . S
Zn217 O223 2.035 1_455 S
O218 Zn217 2.028 . S
O218 C224 1.247 . S
O219 Zn215 2.035 . S
O219 C224 1.258 . S
O220 C213 1.247 . S
O220 Zn217 2.028 . S
O221 C213 1.258 . S
O221 Zn215 2.035 . S
O222 Zn215 2.028 1_655 S
O222 C225 1.247 . S
O223 Zn217 2.035 1_655 S
O223 C225 1.258 . S
C224 O218 1.247 . S
C224 O219 1.258 . S
C225 O222 1.247 . S
C225 O223 1.258 . S
C226 O228 1.247 . S
C226 O230 1.258 . S
C227 O234 1.247 . S
C227 O235 1.258 . S
O228 C226 1.247 . S
O228 Zn229 2.028 . S
Zn229 O228 2.028 . S
Zn229 O233 2.035 1_545 S
Zn229 O235 2.035 1_545 S
Zn229 O236 2.028 . S
O230 C226 1.258 . S
O230 Zn231 2.035 . S
Zn231 O230 2.035 . S
Zn231 O232 2.028 1_545 S
Zn231 O234 2.028 1_545 S
Zn231 O237 2.035 . S
O232 Zn231 2.028 1_565 S
O232 C238 1.247 . S
O233 Zn229 2.035 1_565 S
O233 C238 1.258 . S
O234 C227 1.247 . S
O234 Zn231 2.028 1_565 S
O235 C227 1.258 . S
O235 Zn229 2.035 1_565 S
O236 Zn229 2.028 . S
O236 C239 1.247 . S
O237 Zn231 2.035 . S
O237 C239 1.258 . S
C238 O232 1.247 . S
C238 O233 1.258 . S
C239 O236 1.247 . S
C239 O237 1.258 . S
C240 O242 1.247 . S
C240 O244 1.258 . S
C241 O248 1.247 . S
C241 O249 1.258 . S
O242 C240 1.247 . S
O242 Zn243 2.030 . S
Zn243 O242 2.030 . S
Zn243 O247 2.037 . S
Zn243 O249 2.033 1_554 S
Zn243 O250 2.026 1_554 S
O244 C240 1.258 . S
O244 Zn245 2.053 . S
Zn245 O244 2.053 . S
Zn245 O246 2.046 . S
Zn245 O248 2.010 1_554 S
Zn245 O251 2.017 1_554 S
O246 Zn245 2.046 . S
O246 C252 1.247 . S
O247 Zn243 2.037 . S
O247 C252 1.258 . S
O248 C241 1.247 . S
O248 Zn245 2.010 1_556 S
O249 C241 1.258 . S
O249 Zn243 2.033 1_556 S
O250 Zn243 2.026 1_556 S
O250 C253 1.247 . S
O251 Zn245 2.017 1_556 S
O251 C253 1.258 . S
C252 O246 1.247 . S
C252 O247 1.258 . S
C253 O250 1.247 . S
C253 O251 1.258 . S
C254 O256 1.247 . S
C254 O258 1.258 . S
C255 O262 1.247 . S
C255 O263 1.258 . S
O256 C254 1.247 . S
O256 Zn257 2.028 . S
Zn257 O256 2.028 . S
Zn257 O261 2.035 . S
Zn257 O263 2.035 1_554 S
Zn257 O264 2.028 1_554 S
O258 C254 1.258 . S
O258 Zn259 2.035 . S
Zn259 O258 2.035 . S
Zn259 O260 2.028 . S
Zn259 O262 2.028 1_554 S
Zn259 O265 2.035 1_554 S
O260 Zn259 2.028 . S
O260 C266 1.247 . S
O261 Zn257 2.035 . S
O261 C266 1.258 . S
O262 C255 1.247 . S
O262 Zn259 2.028 1_556 S
O263 C255 1.258 . S
O263 Zn257 2.035 1_556 S
O264 Zn257 2.028 1_556 S
O264 C267 1.247 . S
O265 Zn259 2.035 1_556 S
O265 C267 1.258 . S
C266 O260 1.247 . S
C266 O261 1.258 . S
C267 O264 1.247 . S
C267 O265 1.258 . S
C268 O270 1.247 . S
C268 O272 1.258 . S
C269 O276 1.247 . S
C269 O277 1.258 . S
O270 C268 1.247 . S
O270 Zn271 2.028 1_556 S
Zn271 O270 2.028 1_554 S
Zn271 O275 2.035 1_554 S
Zn271 O277 2.035 . S
Zn271 O278 2.028 . S
O272 C268 1.258 . S
O272 Zn273 2.035 1_556 S
Zn273 O272 2.035 1_554 S
Zn273 O274 2.028 1_554 S
Zn273 O276 2.028 . S
Zn273 O279 2.035 . S
O274 Zn273 2.028 1_556 S
O274 C280 1.247 . S
O275 Zn271 2.035 1_556 S
O275 C280 1.258 . S
O276 C269 1.247 . S
O276 Zn273 2.028 . S
O277 C269 1.258 . S
O277 Zn271 2.035 . S
O278 Zn271 2.028 . S
O278 C281 1.247 . S
O279 Zn273 2.035 . S
O279 C281 1.258 . S
C280 O274 1.247 . S
C280 O275 1.258 . S
C281 O278 1.247 . S
C281 O279 1.258 . S
C282 O284 1.247 . S
C282 O286 1.258 . S
C283 O290 1.247 . S
C283 O291 1.258 . S
O284 C282 1.247 . S
O284 Zn285 2.028 . S
Zn285 O284 2.028 . S
Zn285 O289 2.035 . S
Zn285 O291 2.035 1_554 S
Zn285 O292 2.028 1_554 S
O286 C282 1.258 . S
O286 Zn287 2.035 . S
Zn287 O286 2.035 . S
Zn287 O288 2.028 . S
Zn287 O290 2.028 1_554 S
Zn287 O293 2.035 1_554 S
O288 Zn287 2.028 . S
O288 C294 1.247 . S
O289 Zn285 2.035 . S
O289 C294 1.258 . S
O290 C283 1.247 . S
O290 Zn287 2.028 1_556 S
O291 C283 1.258 . S
O291 Zn285 2.035 1_556 S
O292 Zn285 2.028 1_556 S
O292 C295 1.247 . S
O293 Zn287 2.035 1_556 S
O293 C295 1.258 . S
C294 O288 1.247 . S
C294 O289 1.258 . S
C295 O292 1.247 . S
C295 O293 1.258 . S
C296 C297 1.369 . S
C296 C298 1.419 . S
C296 H300 0.930 . S
C297 C296 1.369 . S
C297 C306 1.429 . S
C298 C296 1.419 . S
C298 C299 1.363 . S
C298 H301 0.929 . S
C299 C298 1.363 . S
C299 C305 1.428 . S
H300 C296 0.930 . S
H301 C298 0.929 . S
S302 N303 1.613 . S
S302 N304 1.610 . S
N303 S302 1.613 . S
N303 C306 1.350 . S
N304 S302 1.610 . S
N304 C305 1.351 . S
C305 C299 1.428 . S
C305 N304 1.351 . S
C305 C306 1.434 . S
C306 C297 1.429 . S
C306 N303 1.350 . S
C306 C305 1.434 . S
C307 C308 1.369 . S
C307 C309 1.419 . S
C307 H311 0.930 . S
C308 C307 1.369 . S
C308 C317 1.429 . S
C309 C307 1.419 . S
C309 C310 1.363 . S
C309 H312 0.929 . S
C310 C309 1.363 . S
C310 C316 1.428 . S
H311 C307 0.930 . S
H312 C309 0.929 . S
S313 N314 1.613 . S
S313 N315 1.610 . S
N314 S313 1.613 . S
N314 C317 1.350 . S
N315 S313 1.610 . S
N315 C316 1.351 . S
C316 C310 1.428 . S
C316 N315 1.351 . S
C316 C317 1.434 . S
C317 C308 1.429 . S
C317 N314 1.350 . S
C317 C316 1.434 . S
C318 C319 1.369 . S
C318 C320 1.419 . S
C318 H322 0.930 . S
C319 C318 1.369 . S
C319 C328 1.429 . S
C320 C318 1.419 . S
C320 C321 1.363 . S
C320 H323 0.929 . S
C321 C320 1.363 . S
C321 C327 1.428 . S
H322 C318 0.930 . S
H323 C320 0.929 . S
S324 N325 1.613 . S
S324 N326 1.610 . S
N325 S324 1.613 . S
N325 C328 1.350 . S
N326 S324 1.610 . S
N326 C327 1.351 . S
C327 C321 1.428 . S
C327 N326 1.351 . S
C327 C328 1.434 . S
C328 C319 1.429 . S
C328 N325 1.350 . S
C328 C327 1.434 . S
C329 C330 1.369 . S
C329 C331 1.419 . S
C329 H333 0.930 . S
C330 C329 1.369 . S
C330 C339 1.429 . S
C331 C329 1.419 . S
C331 C332 1.363 . S
C331 H334 0.929 . S
C332 C331 1.363 . S
C332 C338 1.428 . S
H333 C329 0.930 . S
H334 C331 0.929 . S
S335 N336 1.613 . S
S335 N337 1.610 . S
N336 S335 1.613 . S
N336 C339 1.350 . S
N337 S335 1.610 . S
N337 C338 1.351 . S
C338 C332 1.428 . S
C338 N337 1.351 . S
C338 C339 1.434 . S
C339 C330 1.429 . S
C339 N336 1.350 . S
C339 C338 1.434 . S
C340 C341 1.369 . S
C340 C342 1.419 . S
C340 H344 0.930 . S
C341 C340 1.369 . S
C341 C350 1.429 . S
C342 C340 1.419 . S
C342 C343 1.363 . S
C342 H345 0.929 . S
C343 C342 1.363 . S
C343 C349 1.428 . S
H344 C340 0.930 . S
H345 C342 0.929 . S
S346 N347 1.613 . S
S346 N348 1.610 . S
N347 S346 1.613 . S
N347 C350 1.350 . S
N348 S346 1.610 . S
N348 C349 1.351 . S
C349 C343 1.428 . S
C349 N348 1.351 . S
C349 C350 1.434 . S
C350 C341 1.429 . S
C350 N347 1.350 . S
C350 C349 1.434 . S
C351 C352 1.369 . S
C351 C353 1.419 . S
C351 H355 0.930 . S
C352 C351 1.369 . S
C352 C361 1.429 . S
C353 C351 1.419 . S
C353 C354 1.363 . S
C353 H356 0.929 . S
C354 C353 1.363 . S
C354 C360 1.428 . S
H355 C351 0.930 . S
H356 C353 0.929 . S
S357 N358 1.613 . S
S357 N359 1.610 . S
N358 S357 1.613 . S
N358 C361 1.350 . S
N359 S357 1.610 . S
N359 C360 1.351 . S
C360 C354 1.428 . S
C360 N359 1.351 . S
C360 C361 1.434 . S
C361 C352 1.429 . S
C361 N358 1.350 . S
C361 C360 1.434 . S
C362 C363 1.369 . S
C362 C364 1.419 . S
C362 H366 0.930 . S
C363 C362 1.369 . S
C363 C372 1.429 . S
C364 C362 1.419 . S
C364 C365 1.363 . S
C364 H367 0.929 . S
C365 C364 1.363 . S
C365 C371 1.428 . S
H366 C362 0.930 . S
H367 C364 0.929 . S
S368 N369 1.613 . S
S368 N370 1.610 . S
N369 S368 1.613 . S
N369 C372 1.350 . S
N370 S368 1.610 . S
N370 C371 1.351 . S
C371 C365 1.428 . S
C371 N370 1.351 . S
C371 C372 1.434 . S
C372 C363 1.429 . S
C372 N369 1.350 . S
C372 C371 1.434 . S
C373 C374 1.369 . S
C373 C375 1.419 . S
C373 H377 0.930 . S
C374 C373 1.369 . S
C374 C383 1.429 . S
C375 C373 1.419 . S
C375 C376 1.363 . S
C375 H378 0.929 . S
C376 C375 1.363 . S
C376 C382 1.428 . S
H377 C373 0.930 . S
H378 C375 0.929 . S
S379 N380 1.613 . S
S379 N381 1.610 . S
N380 S379 1.613 . S
N380 C383 1.350 . S
N381 S379 1.610 . S
N381 C382 1.351 . S
C382 C376 1.428 . S
C382 N381 1.351 . S
C382 C383 1.434 . S
C383 C374 1.429 . S
C383 N380 1.350 . S
C383 C382 1.434 . S
C384 C385 1.369 . S
C384 C386 1.419 . S
C384 H388 0.930 . S
C385 C384 1.369 . S
C385 C394 1.429 . S
C386 C384 1.419 . S
C386 C387 1.363 . S
C386 H389 0.929 . S
C387 C386 1.363 . S
C387 C393 1.428 . S
H388 C384 0.930 . S
H389 C386 0.929 . S
S390 N391 1.613 . S
S390 N392 1.610 . S
N391 S390 1.613 . S
N391 C394 1.350 . S
N392 S390 1.610 . S
N392 C393 1.351 . S
C393 C387 1.428 . S
C393 N392 1.351 . S
C393 C394 1.434 . S
C394 C385 1.429 . S
C394 N391 1.350 . S
C394 C393 1.434 . S
C395 C396 1.369 . S
C395 C397 1.419 . S
C395 H399 0.930 . S
C396 C395 1.369 . S
C396 C405 1.429 . S
C397 C395 1.419 . S
C397 C398 1.363 . S
C397 H400 0.929 . S
C398 C397 1.363 . S
C398 C404 1.428 . S
H399 C395 0.930 . S
H400 C397 0.929 . S
S401 N402 1.613 . S
S401 N403 1.610 . S
N402 S401 1.613 . S
N402 C405 1.350 . S
N403 S401 1.610 . S
N403 C404 1.351 . S
C404 C398 1.428 . S
C404 N403 1.351 . S
C404 C405 1.434 . S
C405 C396 1.429 . S
C405 N402 1.350 . S
C405 C404 1.434 . S
C406 C407 1.369 . S
C406 C408 1.419 . S
C406 H410 0.930 . S
C407 C406 1.369 . S
C407 C416 1.429 . S
C408 C406 1.419 . S
C408 C409 1.363 . S
C408 H411 0.929 . S
C409 C408 1.363 . S
C409 C415 1.428 . S
H410 C406 0.930 . S
H411 C408 0.929 . S
S412 N413 1.613 . S
S412 N414 1.610 . S
N413 S412 1.613 . S
N413 C416 1.350 . S
N414 S412 1.610 . S
N414 C415 1.351 . S
C415 C409 1.428 . S
C415 N414 1.351 . S
C415 C416 1.434 . S
C416 C407 1.429 . S
C416 N413 1.350 . S
C416 C415 1.434 . S
C417 C418 1.369 . S
C417 C419 1.419 . S
C417 H421 0.930 . S
C418 C417 1.369 . S
C418 C427 1.429 . S
C419 C417 1.419 . S
C419 C420 1.363 . S
C419 H422 0.929 . S
C420 C419 1.363 . S
C420 C426 1.428 . S
H421 C417 0.930 . S
H422 C419 0.929 . S
S423 N424 1.613 . S
S423 N425 1.610 . S
N424 S423 1.613 . S
N424 C427 1.350 . S
N425 S423 1.610 . S
N425 C426 1.351 . S
C426 C420 1.428 . S
C426 N425 1.351 . S
C426 C427 1.434 . S
C427 C418 1.429 . S
C427 N424 1.350 . S
C427 C426 1.434 . S
C428 C429 1.369 . S
C428 C430 1.419 . S
C428 H432 0.930 . S
C429 C428 1.369 . S
C429 C438 1.429 . S
C430 C428 1.419 . S
C430 C431 1.363 . S
C430 H433 0.929 . S
C431 C430 1.363 . S
C431 C437 1.428 . S
H432 C428 0.930 . S
H433 C430 0.929 . S
S434 N435 1.613 . S
S434 N436 1.610 . S
N435 S434 1.613 . S
N435 C438 1.350 . S
N436 S434 1.610 . S
N436 C437 1.351 . S
C437 C431 1.428 . S
C437 N436 1.351 . S
C437 C438 1.434 . S
C438 C429 1.429 . S
C438 N435 1.350 . S
C438 C437 1.434 . S
C439 C440 1.369 . S
C439 C441 1.419 . S
C439 H443 0.930 . S
C440 C439 1.369 . S
C440 C449 1.429 . S
C441 C439 1.419 . S
C441 C442 1.363 . S
C441 H444 0.929 . S
C442 C441 1.363 . S
C442 C448 1.428 . S
H443 C439 0.930 . S
H444 C441 0.929 . S
S445 N446 1.613 . S
S445 N447 1.610 . S
N446 S445 1.613 . S
N446 C449 1.350 . S
N447 S445 1.610 . S
N447 C448 1.351 . S
C448 C442 1.428 . S
C448 N447 1.351 . S
C448 C449 1.434 . S
C449 C440 1.429 . S
C449 N446 1.350 . S
C449 C448 1.434 . S
C450 C451 1.369 . S
C450 C452 1.419 . S
C450 H454 0.930 . S
C451 C450 1.369 . S
C451 C460 1.429 . S
C452 C450 1.419 . S
C452 C453 1.363 . S
C452 H455 0.929 . S
C453 C452 1.363 . S
C453 C459 1.428 . S
H454 C450 0.930 . S
H455 C452 0.929 . S
S456 N457 1.613 . S
S456 N458 1.610 . S
N457 S456 1.613 . S
N457 C460 1.350 . S
N458 S456 1.610 . S
N458 C459 1.351 . S
C459 C453 1.428 . S
C459 N458 1.351 . S
C459 C460 1.434 . S
C460 C451 1.429 . S
C460 N457 1.350 . S
C460 C459 1.434 . S
C461 C462 1.369 . S
C461 C463 1.419 . S
C461 H465 0.930 . S
C462 C461 1.369 . S
C462 C471 1.429 . S
C463 C461 1.419 . S
C463 C464 1.363 . S
C463 H466 0.929 . S
C464 C463 1.363 . S
C464 C470 1.428 . S
H465 C461 0.930 . S
H466 C463 0.929 . S
S467 N468 1.613 . S
S467 N469 1.610 . S
N468 S467 1.613 . S
N468 C471 1.350 . S
N469 S467 1.610 . S
N469 C470 1.351 . S
C470 C464 1.428 . S
C470 N469 1.351 . S
C470 C471 1.434 . S
C471 C462 1.429 . S
C471 N468 1.350 . S
C471 C470 1.434 . S
C472 C473 1.369 . S
C472 C474 1.419 . S
C472 H476 0.930 . S
C473 C472 1.369 . S
C473 C482 1.429 . S
C474 C472 1.419 . S
C474 C475 1.363 . S
C474 H477 0.929 . S
C475 C474 1.363 . S
C475 C481 1.428 . S
H476 C472 0.930 . S
H477 C474 0.929 . S
S478 N479 1.613 . S
S478 N480 1.610 . S
N479 S478 1.613 . S
N479 C482 1.350 . S
N480 S478 1.610 . S
N480 C481 1.351 . S
C481 C475 1.428 . S
C481 N480 1.351 . S
C481 C482 1.434 . S
C482 C473 1.429 . S
C482 N479 1.350 . S
C482 C481 1.434 . S
C483 C484 1.369 . S
C483 C485 1.419 . S
C483 H487 0.930 . S
C484 C483 1.369 . S
C484 C493 1.429 . S
C485 C483 1.419 . S
C485 C486 1.363 . S
C485 H488 0.929 . S
C486 C485 1.363 . S
C486 C492 1.428 . S
H487 C483 0.930 . S
H488 C485 0.929 . S
S489 N490 1.613 . S
S489 N491 1.610 . S
N490 S489 1.613 . S
N490 C493 1.350 . S
N491 S489 1.610 . S
N491 C492 1.351 . S
C492 C486 1.428 . S
C492 N491 1.351 . S
C492 C493 1.434 . S
C493 C484 1.429 . S
C493 N490 1.350 . S
C493 C492 1.434 . S
C494 C495 1.369 . S
C494 C496 1.419 . S
C494 H498 0.930 . S
C495 C494 1.369 . S
C495 C504 1.429 . S
C496 C494 1.419 . S
C496 C497 1.363 . S
C496 H499 0.929 . S
C497 C496 1.363 . S
C497 C503 1.428 . S
H498 C494 0.930 . S
H499 C496 0.929 . S
S500 N501 1.613 . S
S500 N502 1.610 . S
N501 S500 1.613 . S
N501 C504 1.350 . S
N502 S500 1.610 . S
N502 C503 1.351 . S
C503 C497 1.428 . S
C503 N502 1.351 . S
C503 C504 1.434 . S
C504 C495 1.429 . S
C504 N501 1.350 . S
C504 C503 1.434 . S
C505 C506 1.369 . S
C505 C507 1.419 . S
C505 H509 0.930 . S
C506 C505 1.369 . S
C506 C515 1.429 . S
C507 C505 1.419 . S
C507 C508 1.363 . S
C507 H510 0.929 . S
C508 C507 1.363 . S
C508 C514 1.428 . S
H509 C505 0.930 . S
H510 C507 0.929 . S
S511 N512 1.613 . S
S511 N513 1.610 . S
N512 S511 1.613 . S
N512 C515 1.350 . S
N513 S511 1.610 . S
N513 C514 1.351 . S
C514 C508 1.428 . S
C514 N513 1.351 . S
C514 C515 1.434 . S
C515 C506 1.429 . S
C515 N512 1.350 . S
C515 C514 1.434 . S
C516 C517 1.369 . S
C516 C518 1.419 . S
C516 H520 0.930 . S
C517 C516 1.369 . S
C517 C526 1.429 . S
C518 C516 1.419 . S
C518 C519 1.363 . S
C518 H521 0.929 . S
C519 C518 1.363 . S
C519 C525 1.428 . S
H520 C516 0.930 . S
H521 C518 0.929 . S
S522 N523 1.613 . S
S522 N524 1.610 . S
N523 S522 1.613 . S
N523 C526 1.350 . S
N524 S522 1.610 . S
N524 C525 1.351 . S
C525 C519 1.428 . S
C525 N524 1.351 . S
C525 C526 1.434 . S
C526 C517 1.429 . S
C526 N523 1.350 . S
C526 C525 1.434 . S
C527 C528 1.369 . S
C527 C529 1.419 . S
C527 H531 0.930 . S
C528 C527 1.369 . S
C528 C537 1.429 . S
C529 C527 1.419 . S
C529 C530 1.363 . S
C529 H532 0.929 . S
C530 C529 1.363 . S
C530 C536 1.428 . S
H531 C527 0.930 . S
H532 C529 0.929 . S
S533 N534 1.613 . S
S533 N535 1.610 . S
N534 S533 1.613 . S
N534 C537 1.350 . S
N535 S533 1.610 . S
N535 C536 1.351 . S
C536 C530 1.428 . S
C536 N535 1.351 . S
C536 C537 1.434 . S
C537 C528 1.429 . S
C537 N534 1.350 . S
C537 C536 1.434 . S
C538 C539 1.369 . S
C538 C540 1.419 . S
C538 H542 0.930 . S
C539 C538 1.369 . S
C539 C548 1.429 . S
C540 C538 1.419 . S
C540 C541 1.363 . S
C540 H543 0.929 . S
C541 C540 1.363 . S
C541 C547 1.428 . S
H542 C538 0.930 . S
H543 C540 0.929 . S
S544 N545 1.613 . S
S544 N546 1.610 . S
N545 S544 1.613 . S
N545 C548 1.350 . S
N546 S544 1.610 . S
N546 C547 1.351 . S
C547 C541 1.428 . S
C547 N546 1.351 . S
C547 C548 1.434 . S
C548 C539 1.429 . S
C548 N545 1.350 . S
C548 C547 1.434 . S
C549 C550 1.369 . S
C549 C551 1.419 . S
C549 H553 0.930 . S
C550 C549 1.369 . S
C550 C559 1.429 . S
C551 C549 1.419 . S
C551 C552 1.363 . S
C551 H554 0.929 . S
C552 C551 1.363 . S
C552 C558 1.428 . S
H553 C549 0.930 . S
H554 C551 0.929 . S
S555 N556 1.613 . S
S555 N557 1.610 . S
N556 S555 1.613 . S
N556 C559 1.350 . S
N557 S555 1.610 . S
N557 C558 1.351 . S
C558 C552 1.428 . S
C558 N557 1.351 . S
C558 C559 1.434 . S
C559 C550 1.429 . S
C559 N556 1.350 . S
C559 C558 1.434 . S
C560 C561 1.369 . S
C560 C562 1.419 . S
C560 H564 0.930 . S
C561 C560 1.369 . S
C561 C570 1.429 . S
C562 C560 1.419 . S
C562 C563 1.363 . S
C562 H565 0.929 . S
C563 C562 1.363 . S
C563 C569 1.428 . S
H564 C560 0.930 . S
H565 C562 0.929 . S
S566 N567 1.613 . S
S566 N568 1.610 . S
N567 S566 1.613 . S
N567 C570 1.350 . S
N568 S566 1.610 . S
N568 C569 1.351 . S
C569 C563 1.428 . S
C569 N568 1.351 . S
C569 C570 1.434 . S
C570 C561 1.429 . S
C570 N567 1.350 . S
C570 C569 1.434 . S
C571 C572 1.369 . S
C571 C573 1.419 . S
C571 H575 0.930 . S
C572 C571 1.369 . S
C572 C581 1.429 . S
C573 C571 1.419 . S
C573 C574 1.363 . S
C573 H576 0.929 . S
C574 C573 1.363 . S
C574 C580 1.428 . S
H575 C571 0.930 . S
H576 C573 0.929 . S
S577 N578 1.613 . S
S577 N579 1.610 . S
N578 S577 1.613 . S
N578 C581 1.350 . S
N579 S577 1.610 . S
N579 C580 1.351 . S
C580 C574 1.428 . S
C580 N579 1.351 . S
C580 C581 1.434 . S
C581 C572 1.429 . S
C581 N578 1.350 . S
C581 C580 1.434 . S
C582 C583 1.369 . S
C582 C584 1.419 . S
C582 H586 0.930 . S
C583 C582 1.369 . S
C583 C592 1.429 . S
C584 C582 1.419 . S
C584 C585 1.363 . S
C584 H587 0.929 . S
C585 C584 1.363 . S
C585 C591 1.428 . S
H586 C582 0.930 . S
H587 C584 0.929 . S
S588 N589 1.613 . S
S588 N590 1.610 . S
N589 S588 1.613 . S
N589 C592 1.350 . S
N590 S588 1.610 . S
N590 C591 1.351 . S
C591 C585 1.428 . S
C591 N590 1.351 . S
C591 C592 1.434 . S
C592 C583 1.429 . S
C592 N589 1.350 . S
C592 C591 1.434 . S
C593 C594 1.369 . S
C593 C595 1.419 . S
C593 H597 0.930 . S
C594 C593 1.369 . S
C594 C603 1.429 . S
C595 C593 1.419 . S
C595 C596 1.363 . S
C595 H598 0.929 . S
C596 C595 1.363 . S
C596 C602 1.428 . S
H597 C593 0.930 . S
H598 C595 0.929 . S
S599 N600 1.613 . S
S599 N601 1.610 . S
N600 S599 1.613 . S
N600 C603 1.350 . S
N601 S599 1.610 . S
N601 C602 1.351 . S
C602 C596 1.428 . S
C602 N601 1.351 . S
C602 C603 1.434 . S
C603 C594 1.429 . S
C603 N600 1.350 . S
C603 C602 1.434 . S
C604 C605 1.369 . S
C604 C606 1.419 . S
C604 H608 0.930 . S
C605 C604 1.369 . S
C605 C614 1.429 . S
C606 C604 1.419 . S
C606 C607 1.363 . S
C606 H609 0.929 . S
C607 C606 1.363 . S
C607 C613 1.428 . S
H608 C604 0.930 . S
H609 C606 0.929 . S
S610 N611 1.613 . S
S610 N612 1.610 . S
N611 S610 1.613 . S
N611 C614 1.350 . S
N612 S610 1.610 . S
N612 C613 1.351 . S
C613 C607 1.428 . S
C613 N612 1.351 . S
C613 C614 1.434 . S
C614 C605 1.429 . S
C614 N611 1.350 . S
C614 C613 1.434 . S
C615 C616 1.369 . S
C615 C617 1.419 . S
C615 H619 0.930 . S
C616 C615 1.369 . S
C616 C625 1.429 . S
C617 C615 1.419 . S
C617 C618 1.363 . S
C617 H620 0.929 . S
C618 C617 1.363 . S
C618 C624 1.428 . S
H619 C615 0.930 . S
H620 C617 0.929 . S
S621 N622 1.613 . S
S621 N623 1.610 . S
N622 S621 1.613 . S
N622 C625 1.350 . S
N623 S621 1.610 . S
N623 C624 1.351 . S
C624 C618 1.428 . S
C624 N623 1.351 . S
C624 C625 1.434 . S
C625 C616 1.429 . S
C625 N622 1.350 . S
C625 C624 1.434 . S
C626 C627 1.369 . S
C626 C628 1.419 . S
C626 H630 0.930 . S
C627 C626 1.369 . S
C627 C636 1.429 . S
C628 C626 1.419 . S
C628 C629 1.363 . S
C628 H631 0.929 . S
C629 C628 1.363 . S
C629 C635 1.428 . S
H630 C626 0.930 . S
H631 C628 0.929 . S
S632 N633 1.613 . S
S632 N634 1.610 . S
N633 S632 1.613 . S
N633 C636 1.350 . S
N634 S632 1.610 . S
N634 C635 1.351 . S
C635 C629 1.428 . S
C635 N634 1.351 . S
C635 C636 1.434 . S
C636 C627 1.429 . S
C636 N633 1.350 . S
C636 C635 1.434 . S
C637 C638 1.369 . S
C637 C639 1.419 . S
C637 H641 0.930 . S
C638 C637 1.369 . S
C638 C647 1.429 . S
C639 C637 1.419 . S
C639 C640 1.363 . S
C639 H642 0.929 . S
C640 C639 1.363 . S
C640 C646 1.428 . S
H641 C637 0.930 . S
H642 C639 0.929 . S
S643 N644 1.613 . S
S643 N645 1.610 . S
N644 S643 1.613 . S
N644 C647 1.350 . S
N645 S643 1.610 . S
N645 C646 1.351 . S
C646 C640 1.428 . S
C646 N645 1.351 . S
C646 C647 1.434 . S
C647 C638 1.429 . S
C647 N644 1.350 . S
C647 C646 1.434 . S
C299 C185 1.577 . S
C297 C16 1.591 . S
C310 C211 1.589 . S
C308 C30 1.600 . S
C321 C225 1.587 . S
C319 C53 1.603 . S
C332 C227 1.623 . S
C330 C76 1.640 . S
C341 N104 1.425 . S
C343 C224 1.466 . S
C354 C226 1.501 . S
C352 N127 1.459 . S
C365 C184 1.471 1_655 S
C363 N140 1.436 . S
C376 C210 1.473 1_565 S
C374 N173 1.423 . S
C387 C212 1.583 . S
C385 C168 1.592 . S
C398 C238 1.591 . S
C396 C99 1.592 . S
C409 C196 1.576 . S
C407 C122 1.583 . S
C420 C198 1.565 . S
C418 C154 1.563 . S
C431 C197 1.479 1_655 S
C429 N35 1.432 . S
C442 C199 1.475 1_565 S
C440 N58 1.427 . S
C453 C213 1.474 . S
C451 N81 1.431 . S
C464 C239 1.496 . S
C462 N2 1.463 . S
C475 C241 1.573 . S
C473 C177 1.585 . S
C484 C108 1.607 . S
C486 C267 1.584 . S
C495 C131 1.595 . S
C497 C280 1.579 . S
C506 C145 1.621 . S
C508 C283 1.603 . S
C517 N25 1.443 . S
C519 C281 1.474 . S
C528 N48 1.483 . S
C530 C282 1.503 . S
C539 N71 1.449 . S
C541 C240 1.477 . S
C552 C266 1.493 . S
C550 N12 1.443 . S
C563 C269 1.583 . S
C561 C7 1.589 . S
C572 C39 1.581 . S
C574 C294 1.585 . S
C583 C62 1.570 . S
C585 C252 1.576 . S
C594 C85 1.569 . S
C596 C254 1.572 . S
C607 C253 1.479 . S
C605 N94 1.429 . S
C618 C255 1.479 . S
C616 N117 1.442 . S
C627 N150 1.432 . S
C629 C268 1.475 . S
C640 C295 1.487 . S
C638 N163 1.445 . S
