# Generated by pormake.
# Topology tsx, (6,3)-cn, num edge types: 1
# Building blocks:
#     Node 0, Type 0, BuildingBlock: VOLQOD_clean_sbu_1, # of connection points: 6
#     Node 1, Type 0, BuildingBlock: VOLQOD_clean_sbu_1, # of connection points: 6
#     Node 2, Type 1, BuildingBlock: WUSLED_clean_sbu_0, # of connection points: 3
#     Node 3, Type 1, BuildingBlock: WUSLED_clean_sbu_0, # of connection points: 3
#     Node 4, Type 1, BuildingBlock: WUSLED_clean_sbu_0, # of connection points: 3
#     Node 5, Type 1, BuildingBlock: WUSLED_clean_sbu_0, # of connection points: 3
#     Edge 6, Type (0, 1), BuildingBlock: KIFKEQ_clean_linker_1, # of connection points: 2
#     Edge 7, Type (0, 1), BuildingBlock: KIFKEQ_clean_linker_1, # of connection points: 2
#     Edge 8, Type (0, 1), BuildingBlock: KIFKEQ_clean_linker_1, # of connection points: 2
#     Edge 9, Type (0, 1), BuildingBlock: KIFKEQ_clean_linker_1, # of connection points: 2
#     Edge 10, Type (0, 1), BuildingBlock: KIFKEQ_clean_linker_1, # of connection points: 2
#     Edge 11, Type (0, 1), BuildingBlock: KIFKEQ_clean_linker_1, # of connection points: 2
#     Edge 12, Type (0, 1), BuildingBlock: KIFKEQ_clean_linker_1, # of connection points: 2
#     Edge 13, Type (0, 1), BuildingBlock: KIFKEQ_clean_linker_1, # of connection points: 2
#     Edge 14, Type (0, 1), BuildingBlock: KIFKEQ_clean_linker_1, # of connection points: 2
#     Edge 15, Type (0, 1), BuildingBlock: KIFKEQ_clean_linker_1, # of connection points: 2
#     Edge 16, Type (0, 1), BuildingBlock: KIFKEQ_clean_linker_1, # of connection points: 2
#     Edge 17, Type (0, 1), BuildingBlock: KIFKEQ_clean_linker_1, # of connection points: 2
# Relax obj value: 0.070
# Max RMSD: 0.104
# Mean RMSD: 0.078
data_MOF--net-tsx--node1-VOLQOD_clean_sbu_1--node2-WUSLED_clean_sbu_0--edge1-KIFKEQ_clean_linker_1
_symmetry_space_group_name_H-M    P1
_symmetry_Int_Tables_number       1
_symmetry_cell_setting            triclinic
loop_
_symmetry_equiv_pos_as_xyz
'x, y, z'
_cell_length_a     26.615972
_cell_length_b     27.464813
_cell_length_c     52.439635
_cell_angle_alpha  90.78089
_cell_angle_beta   89.883817
_cell_angle_gamma 90.019084
loop_
_atom_site_label
_atom_site_type_symbol
_atom_site_fract_x
_atom_site_fract_y
_atom_site_fract_z
_atom_type_partial_charge
O0 O 0.05637 1.00332 0.07205 0.0
Zn1 Zn 0.0782 1.00466 0.03498 0.0
O2 O 0.02019 0.01271 0.01246 0.0
Zn3 Zn 0.01107 0.95361 0.99182 0.0
Zn4 Zn 0.95993 0.02418 0.033 0.0
Zn5 Zn 0.03118 0.06813 0.99004 0.0
O6 O 1.00736 0.96958 0.95438 0.0
O7 O 0.03386 0.04627 0.95302 0.0
O8 O 0.1183 0.94377 0.02559 0.0
O9 O 0.07124 0.90997 0.99525 0.0
O10 O 0.94916 0.91569 1.00268 0.0
O11 O 0.91334 0.96655 0.03048 0.0
O12 O 0.92185 0.08411 0.02161 0.0
O13 O 0.12464 0.06241 0.03186 0.0
O14 O 0.97282 0.11478 0.99238 0.0
O15 O 0.09425 0.10549 0.99984 0.0
C16 C 0.0161 0.01748 0.08312 0.0
C17 C 0.02038 1.00692 0.94177 0.0
C18 C 0.9138 0.92614 0.01827 0.0
C19 C 0.11058 0.91011 0.00905 0.0
C20 C 0.93218 0.11655 1.00524 0.0
C21 C 0.12691 0.09906 0.01725 0.0
O22 O 0.97765 0.03008 0.07032 0.0
O23 O 0.55923 0.50338 0.57137 0.0
Zn24 Zn 0.58175 0.50379 0.53442 0.0
O25 O 0.5243 0.51174 0.51168 0.0
Zn26 Zn 0.5138 0.45172 0.49196 0.0
Zn27 Zn 0.46421 0.5262 0.5319 0.0
Zn28 Zn 0.53748 0.56522 0.4884 0.0
O29 O 0.51081 0.46582 0.45421 0.0
O30 O 0.54095 0.54111 0.45177 0.0
O31 O 0.62102 0.44232 0.5256 0.0
O32 O 0.57242 0.4064 0.49655 0.0
O33 O 0.45073 0.4163 0.50321 0.0
O34 O 0.41586 0.46997 0.52986 0.0
O35 O 0.42802 0.58651 0.51945 0.0
O36 O 0.62879 0.56095 0.53126 0.0
O37 O 0.48007 0.61279 0.48951 0.0
O38 O 0.60048 0.60251 0.49823 0.0
C39 C 0.51938 0.51904 0.58228 0.0
C40 C 0.52576 0.50181 0.44106 0.0
C41 C 0.41535 0.42882 0.51836 0.0
C42 C 0.61211 0.40718 0.51009 0.0
C43 C 0.43948 0.61701 0.50226 0.0
C44 C 0.63214 0.59679 0.51617 0.0
O45 O 0.48156 0.53283 0.56933 0.0
C46 C 0.94984 0.08572 0.45093 0.0
C47 C 0.93264 0.12084 0.43384 0.0
C48 C 0.8762 0.15422 0.46632 0.0
C49 C 0.89641 0.15487 0.44149 0.0
C50 C 0.89365 0.11886 0.48338 0.0
C51 C 0.93017 0.08494 0.47573 0.0
U52 U 0.01765 0.01764 0.3979 0.0
O53 O 0.09765 0.99961 0.39261 0.0
O54 O 0.04128 0.94119 0.39406 0.0
C55 C 0.08929 0.95245 0.3931 0.0
C56 C 0.98759 0.0495 0.44281 0.0
C57 C 0.12404 0.92352 0.40877 0.0
C58 C 0.14077 0.86288 0.44117 0.0
C59 C 0.10708 0.89347 0.42852 0.0
C60 C 0.20881 0.89322 0.4151 0.0
C61 C 0.19188 0.86173 0.43423 0.0
C62 C 0.17524 0.92357 0.40249 0.0
C63 C 0.98113 0.04543 0.32909 0.0
C64 C 0.02942 0.01825 0.29215 0.0
C65 C 0.94737 0.05468 0.28646 0.0
C66 C 0.94261 0.06056 0.31287 0.0
C67 C 0.99088 0.03359 0.27576 0.0
C68 C 0.02449 0.02395 0.31862 0.0
C69 C 0.97545 0.05259 0.3568 0.0
O70 O 0.96944 0.00997 0.43183 0.0
O71 O 0.02686 0.06721 0.43082 0.0
O72 O 0.01349 0.07369 0.36846 0.0
O73 O 0.95733 0.01524 0.36923 0.0
H74 H 0.94729 0.12195 0.41456 0.0
H75 H 0.88454 0.18195 0.42795 0.0
H76 H 0.8785 0.11681 0.50252 0.0
H77 H 0.94278 0.05787 0.48913 0.0
H78 H 0.12645 0.83894 0.45572 0.0
H79 H 0.06773 0.89268 0.43379 0.0
H80 H 0.24805 0.89402 0.40962 0.0
H81 H 0.18921 0.94643 0.38735 0.0
H82 H 0.06314 1.00141 0.28454 0.0
H83 H 0.91729 0.06744 0.27439 0.0
H84 H 0.9089 0.07724 0.32064 0.0
H85 H 0.05452 0.01175 0.3309 0.0
C86 C 0.94998 0.93742 0.57396 0.0
C87 C 0.94059 0.89836 0.59027 0.0
C88 C 0.88208 0.86294 0.55945 0.0
C89 C 0.90722 0.8614 0.58304 0.0
C90 C 0.89168 0.90228 0.54318 0.0
C91 C 0.92536 0.93914 0.55039 0.0
U92 U 0.01615 0.00974 0.62602 0.0
O93 O 0.09349 0.03733 0.62892 0.0
O94 O 0.03003 0.08849 0.63035 0.0
C95 C 0.07909 0.08316 0.6294 0.0
C96 C 0.98438 0.97692 0.58167 0.0
C97 C 0.10676 0.11736 0.61296 0.0
C98 C 0.17147 0.1349 0.58144 0.0
C99 C 0.14188 0.10127 0.59461 0.0
C100 C 0.13 0.20104 0.60405 0.0
C101 C 0.16657 0.18517 0.58641 0.0
C102 C 0.10064 0.16753 0.61722 0.0
C103 C 0.99079 0.97639 0.69582 0.0
C104 C 0.04327 0.97527 0.73382 0.0
C105 C 0.95462 0.99377 0.73764 0.0
C106 C 0.94926 0.98826 0.71124 0.0
C107 C 1.00162 0.98705 0.74926 0.0
C108 C 0.03798 0.97013 0.70737 0.0
C109 C 0.98357 0.96932 0.66802 0.0
O110 O 0.96319 0.01365 0.59388 0.0
O111 O 0.02681 0.96294 0.5921 0.0
O112 O 0.02218 0.95266 0.65485 0.0
O113 O 0.95919 1.00417 0.65637 0.0
H114 H 0.95906 0.89647 0.60862 0.0
H115 H 0.90146 0.83139 0.5959 0.0
H116 H 0.87253 0.9051 0.52507 0.0
H117 H 0.93187 0.96923 0.53764 0.0
H118 H 0.19947 0.12141 0.56811 0.0
H119 H 0.14753 0.06277 0.59091 0.0
H120 H 0.12453 0.23949 0.608 0.0
H121 H 0.07389 0.18086 0.63127 0.0
H122 H 0.08005 0.97031 0.74219 0.0
H123 H 0.9217 1.00226 0.74903 0.0
H124 H 0.91241 0.99289 0.70286 0.0
H125 H 0.07082 0.96101 0.69606 0.0
C126 C 0.44693 0.58692 0.94994 0.0
C127 C 0.4063 0.59807 0.93404 0.0
C128 C 0.37636 0.65896 0.96479 0.0
C129 C 0.37126 0.63345 0.94145 0.0
C130 C 0.41738 0.64774 0.9806 0.0
C131 C 0.45226 0.61201 0.97324 0.0
U132 U 0.51513 0.51566 0.89789 0.0
O133 O 0.59397 0.49272 0.89419 0.0
O134 O 0.53401 0.43773 0.89462 0.0
C135 C 0.58263 0.44611 0.89466 0.0
C136 C 0.4841 0.54973 0.94221 0.0
C137 C 0.61302 0.41511 0.91148 0.0
C138 C 0.66996 0.40406 0.94722 0.0
C139 C 0.63862 0.43408 0.93283 0.0
C140 C 0.64928 0.3356 0.9196 0.0
C141 C 0.676 0.35453 0.94062 0.0
C142 C 0.61825 0.3656 0.90519 0.0
C143 C 0.48249 0.54419 0.82838 0.0
C144 C 0.53065 0.51671 0.79144 0.0
C145 C 0.44916 0.55423 0.7857 0.0
C146 C 0.44429 0.55991 0.81212 0.0
C147 C 0.49247 0.53276 0.77501 0.0
C148 C 0.52562 0.52223 0.81793 0.0
C149 C 0.47676 0.55174 0.85608 0.0
O150 O 0.46555 0.51027 0.9313 0.0
O151 O 0.52423 0.56633 0.93054 0.0
O152 O 0.51566 0.57087 0.86794 0.0
O153 O 0.45606 0.51568 0.86852 0.0
H154 H 0.40156 0.57928 0.9159 0.0
H155 H 0.33982 0.64038 0.92894 0.0
H156 H 0.42301 0.66702 0.99852 0.0
H157 H 0.48358 0.60414 0.98569 0.0
H158 H 0.68962 0.41965 0.96345 0.0
H159 H 0.63501 0.47216 0.93817 0.0
H160 H 0.65357 0.29786 0.91374 0.0
H161 H 0.59904 0.35026 0.88874 0.0
H162 H 0.56422 0.49956 0.78384 0.0
H163 H 0.41936 0.56756 0.77362 0.0
H164 H 0.41078 0.57701 0.81986 0.0
H165 H 0.55543 0.50959 0.83022 0.0
C166 C 0.45226 0.43397 0.07336 0.0
C167 C 0.44321 0.39408 0.08919 0.0
C168 C 0.38434 0.36009 0.05817 0.0
C169 C 0.40977 0.35738 0.08161 0.0
C170 C 0.39327 0.40034 0.04246 0.0
C171 C 0.42705 0.43687 0.04998 0.0
U172 U 0.51958 0.50497 0.1257 0.0
O173 O 0.59706 0.53215 0.12843 0.0
O174 O 0.53399 0.58368 0.13024 0.0
C175 C 0.58299 0.57807 0.12894 0.0
C176 C 0.48695 0.47311 0.08131 0.0
C177 C 0.61024 0.61157 0.11194 0.0
C178 C 0.66811 0.62704 0.07691 0.0
C179 C 0.63941 0.59453 0.09128 0.0
C180 C 0.63766 0.69412 0.10308 0.0
C181 C 0.66794 0.67718 0.08281 0.0
C182 C 0.60928 0.66165 0.1175 0.0
C183 C 0.49435 0.46784 0.19496 0.0
C184 C 0.52081 0.51443 0.23235 0.0
C185 C 0.48325 0.43474 0.23729 0.0
C186 C 0.47837 0.43028 0.21084 0.0
C187 C 0.50414 0.47703 0.24843 0.0
C188 C 0.51596 0.50986 0.20582 0.0
C189 C 0.48726 0.46262 0.16725 0.0
O190 O 0.46608 0.50965 0.09382 0.0
O191 O 0.52946 0.45873 0.0915 0.0
O192 O 0.52653 0.44725 0.15423 0.0
O193 O 0.46332 0.49844 0.1562 0.0
H194 H 0.46184 0.39144 0.10747 0.0
H195 H 0.40316 0.32726 0.09431 0.0
H196 H 0.37455 0.40331 0.02423 0.0
H197 H 0.43342 0.46749 0.03756 0.0
H198 H 0.69063 0.6129 0.06126 0.0
H199 H 0.64073 0.55608 0.08647 0.0
H200 H 0.63715 0.73238 0.10837 0.0
H201 H 0.58735 0.6756 0.13343 0.0
H202 H 0.53667 0.54764 0.24027 0.0
H203 H 0.47088 0.40486 0.24902 0.0
H204 H 0.46185 0.39748 0.20277 0.0
H205 H 0.52857 0.53925 0.1938 0.0
H206 H 0.19631 0.10239 0.05562 0.0
H207 H 0.14834 0.17964 0.98868 0.0
H208 H 0.25883 0.16484 0.06423 0.0
H209 H 0.2122 0.24161 0.9969 0.0
H210 H 0.29102 0.37087 0.03707 0.0
H211 H 0.23062 0.3073 0.0259 0.0
H212 H 0.33636 0.1978 0.04997 0.0
H213 H 0.3962 0.26149 0.06157 0.0
C214 C 0.19946 0.13239 0.04252 0.0
C215 C 0.16709 0.13591 0.02146 0.0
C216 C 0.23564 0.16819 0.04741 0.0
C217 C 0.24075 0.20841 0.03128 0.0
C218 C 0.20891 0.21156 0.00996 0.0
C219 C 0.17247 0.1758 1.00513 0.0
C220 C 0.30149 0.33318 0.03974 0.0
C221 C 0.34831 0.32125 0.05034 0.0
C222 C 0.26691 0.29666 0.03328 0.0
C223 C 0.27841 0.24727 0.03709 0.0
C224 C 0.32572 0.23541 0.04722 0.0
C225 C 0.36012 0.27193 0.05384 0.0
H226 H 0.11177 0.84091 0.97118 0.0
H227 H 0.197 0.8925 0.03625 0.0
H228 H 0.17671 0.78116 0.96166 0.0
H229 H 0.26232 0.83217 0.02654 0.0
H230 H 0.33869 0.67954 0.01271 0.0
H231 H 0.27551 0.74029 0.02468 0.0
H232 H 0.26556 0.78473 0.94623 0.0
H233 H 0.32941 0.72522 0.9343 0.0
C234 C 0.1442 0.8394 0.98359 0.0
C235 C 0.14911 0.87177 1.00448 0.0
C236 C 0.18162 0.80527 0.97799 0.0
C237 C 0.22484 0.80223 0.9932 0.0
C238 C 0.22933 0.83357 0.01452 0.0
C239 C 0.19198 0.8682 0.02002 0.0
C240 C 0.32363 0.70272 0.99805 0.0
C241 C 0.33901 0.69703 0.97246 0.0
C242 C 0.28732 0.73745 1.00494 0.0
C243 C 0.26524 0.76696 0.98637 0.0
C244 C 0.2812 0.7619 0.96091 0.0
C245 C 0.31772 0.72759 0.95407 0.0
H246 H 0.83172 0.93751 0.04914 0.0
H247 H 0.90568 0.83207 1.0 0.0
H248 H 0.77064 0.87646 0.06136 0.0
H249 H 0.84348 0.77092 0.01191 0.0
H250 H 0.76592 0.66413 0.0682 0.0
H251 H 0.82236 0.72359 0.04927 0.0
H252 H 0.70096 0.8278 0.04684 0.0
H253 H 0.64469 0.76841 0.06598 0.0
C254 C 0.83463 0.90145 0.04065 0.0
C255 C 0.87392 0.88976 0.02366 0.0
C256 C 0.79925 0.86642 0.04755 0.0
C257 C 0.80206 0.81866 0.03766 0.0
C258 C 0.84054 0.8072 0.02013 0.0
C259 C 0.87602 0.84237 0.01317 0.0
C260 C 0.75104 0.69942 0.0632 0.0
C261 C 0.70088 0.71164 0.06882 0.0
C262 C 0.78342 0.73356 0.05231 0.0
C263 C 0.76638 0.78071 0.04671 0.0
C264 C 0.71564 0.79219 0.05138 0.0
C265 C 0.68335 0.75813 0.06233 0.0
H266 H 0.94409 0.19449 0.97389 0.0
H267 H 0.83623 0.12697 0.02401 0.0
H268 H 0.88151 0.25428 0.9618 0.0
H269 H 0.77365 0.18758 0.0121 0.0
H270 H 0.6626 0.26002 0.95531 0.0
H271 H 0.72448 0.20567 0.97397 0.0
H272 H 0.83197 0.32347 0.9769 0.0
H273 H 0.77055 0.37744 0.95748 0.0
C274 C 0.90721 0.1927 0.9826 0.0
C275 C 0.89521 0.15561 0.99983 0.0
C276 C 0.87135 0.22729 0.97577 0.0
C277 C 0.82247 0.22572 0.98592 0.0
C278 C 0.81079 0.18948 1.0037 0.0
C279 C 0.84679 0.15491 0.01064 0.0
C280 C 0.69939 0.27437 0.96001 0.0
C281 C 0.71173 0.32299 0.95468 0.0
C282 C 0.73472 0.24333 0.97097 0.0
C283 C 0.78333 0.26011 0.97681 0.0
C284 C 0.79507 0.30922 0.97234 0.0
C285 C 0.75967 0.34031 0.96146 0.0
H286 H 0.65406 0.67728 0.48759 0.0
H287 H 0.69995 0.60093 0.55523 0.0
H288 H 0.71518 0.74136 0.49721 0.0
H289 H 0.76092 0.66467 0.56463 0.0
H290 H 0.81441 0.81627 0.59007 0.0
H291 H 0.75646 0.75115 0.57848 0.0
H292 H 0.8079 0.75648 0.50045 0.0
H293 H 0.86688 0.82121 0.51209 0.0
C294 C 0.67741 0.67387 0.50436 0.0
C295 C 0.67183 0.63397 0.52068 0.0
C296 C 0.71255 0.71054 0.50981 0.0
C297 C 0.74257 0.70828 0.5318 0.0
C298 C 0.73779 0.66785 0.54776 0.0
C299 C 0.70301 0.63112 0.54225 0.0
C300 C 0.81396 0.80326 0.57049 0.0
C301 C 0.84573 0.82389 0.55208 0.0
C302 C 0.7806 0.76594 0.56384 0.0
C303 C 0.77781 0.74843 0.53858 0.0
C304 C 0.8089 0.76946 0.52003 0.0
C305 C 0.84261 0.80665 0.52672 0.0
H306 H 0.59958 0.32055 0.48472 0.0
H307 H 0.70954 0.40407 0.5272 0.0
H308 H 0.66212 0.25807 0.47596 0.0
H309 H 0.77277 0.34203 0.51773 0.0
H310 H 0.865 0.20162 0.51255 0.0
H311 H 0.80003 0.2599 0.52512 0.0
H312 H 0.73461 0.24778 0.44995 0.0
H313 H 0.79762 0.18783 0.4379 0.0
C314 C 0.63713 0.32561 0.49223 0.0
C315 C 0.64954 0.36756 0.50655 0.0
C316 C 0.67317 0.28985 0.48704 0.0
C317 C 0.72278 0.29517 0.49584 0.0
C318 C 0.73487 0.33646 0.51081 0.0
C319 C 0.69863 0.37217 0.51617 0.0
C320 C 0.83633 0.21089 0.49882 0.0
C321 C 0.83669 0.18994 0.47417 0.0
C322 C 0.7994 0.2448 0.50594 0.0
C323 C 0.76192 0.25862 0.4886 0.0
C324 C 0.76234 0.23757 0.46399 0.0
C325 C 0.79904 0.20362 0.45692 0.0
H326 H 0.32966 0.4465 0.54563 0.0
H327 H 0.40874 0.33183 0.50504 0.0
H328 H 0.26737 0.388 0.55975 0.0
H329 H 0.34658 0.27291 0.51969 0.0
H330 H 0.2009 0.18698 0.53683 0.0
H331 H 0.25819 0.24612 0.51779 0.0
H332 H 0.26804 0.32254 0.59014 0.0
H333 H 0.21136 0.26388 0.60904 0.0
C334 C 0.33366 0.40884 0.53957 0.0
C335 C 0.37459 0.39386 0.52439 0.0
C336 C 0.29803 0.3752 0.54781 0.0
C337 C 0.30239 0.32561 0.5412 0.0
C338 C 0.34199 0.31087 0.52505 0.0
C339 C 0.37772 0.34465 0.51671 0.0
C340 C 0.21548 0.21636 0.54865 0.0
C341 C 0.20108 0.22094 0.57441 0.0
C342 C 0.24828 0.25022 0.53774 0.0
C343 C 0.2673 0.28939 0.55236 0.0
C344 C 0.25317 0.29357 0.57814 0.0
C345 C 0.22057 0.25986 0.589 0.0
H346 H 0.34209 0.63028 0.51871 0.0
H347 H 0.45623 0.69327 0.47055 0.0
H348 H 0.28162 0.69054 0.50377 0.0
H349 H 0.39637 0.75359 0.45612 0.0
H350 H 0.26398 0.80761 0.41013 0.0
H351 H 0.32336 0.75113 0.42862 0.0
H352 H 0.25925 0.77809 0.50322 0.0
H353 H 0.19937 0.83518 0.48457 0.0
C354 C 0.35452 0.65733 0.50525 0.0
C355 C 0.40392 0.65652 0.49562 0.0
C356 C 0.31988 0.69196 0.49675 0.0
C357 C 0.33396 0.72645 0.47847 0.0
C358 C 0.38393 0.72685 0.46976 0.0
C359 C 0.41839 0.69235 0.47817 0.0
C360 C 0.26282 0.80206 0.43053 0.0
C361 C 0.22729 0.82648 0.4459 0.0
C362 C 0.29692 0.76959 0.44116 0.0
C363 C 0.29654 0.76052 0.46747 0.0
C364 C 0.2604 0.78413 0.48286 0.0
C365 C 0.22611 0.8168 0.47218 0.0
H366 H 0.938 0.04868 0.11313 0.0
H367 H 0.08824 0.98965 0.11734 0.0
H368 H 0.93324 0.05111 0.15942 0.0
H369 H 0.08294 0.99106 0.1638 0.0
H370 H 0.07368 0.05202 0.24626 0.0
H371 H 0.08067 0.04704 0.19988 0.0
H372 H 0.92673 0.99774 0.19525 0.0
H373 H 0.9197 1.00316 0.24153 0.0
C374 C 0.96999 0.03599 0.1239 0.0
C375 C 0.01352 0.01896 0.11142 0.0
C376 C 0.96711 0.03708 0.15051 0.0
C377 C 0.0076 0.02105 0.1654 0.0
C378 C 0.05124 1.00416 0.15295 0.0
C379 C 0.05418 1.00313 0.12628 0.0
C380 C 0.04152 0.03961 0.23534 0.0
C381 C 0.99604 0.02827 0.24759 0.0
C382 C 0.04552 0.03672 0.20874 0.0
C383 C 1.00417 0.02229 0.19377 0.0
C384 C 0.95903 0.00997 0.20611 0.0
C385 C 0.955 0.013 0.23267 0.0
H386 H 0.03339 0.08166 0.90823 0.0
H387 H 1.00533 0.92678 0.91111 0.0
H388 H 0.03091 0.07761 0.86172 0.0
H389 H 1.00254 0.92299 0.86467 0.0
H390 H 0.05272 0.9266 0.7811 0.0
H391 H 0.05937 0.93227 0.82749 0.0
H392 H 0.96797 0.06217 0.82755 0.0
H393 H 0.96209 0.057 0.78109 0.0
C394 C 0.02676 0.04675 0.89899 0.0
C395 C 0.01952 1.00455 0.91347 0.0
C396 C 0.02507 0.04451 0.87233 0.0
C397 C 0.01654 0.99999 0.85952 0.0
C398 C 0.00974 0.95776 0.87397 0.0
C399 C 0.01103 0.96002 0.90061 0.0
C400 C 0.03451 0.95666 0.79099 0.0
C401 C 1.00684 0.99133 0.77743 0.0
C402 C 0.03791 0.95964 0.81758 0.0
C403 C 0.01407 0.99758 0.8312 0.0
C404 C 0.98707 0.0327 0.8176 0.0
C405 C 0.98332 0.0295 0.79102 0.0
H406 H 0.59056 0.48979 0.61666 0.0
H407 H 0.44165 0.55182 0.61218 0.0
H408 H 0.58478 0.49089 0.66309 0.0
H409 H 0.43643 0.55388 0.65849 0.0
H410 H 0.42108 0.50434 0.7404 0.0
H411 H 0.42843 0.49997 0.6941 0.0
H412 H 0.58324 0.54632 0.69941 0.0
H413 H 0.57591 0.55033 0.74579 0.0
C414 C 0.55669 0.5039 0.62554 0.0
C415 C 0.51654 0.52063 0.6106 0.0
C416 C 0.55349 0.50474 0.65219 0.0
C417 C 0.51007 0.52233 0.66458 0.0
C418 C 0.4701 0.53932 0.64962 0.0
C419 C 0.47326 0.53845 0.62301 0.0
C420 C 0.45664 0.51377 0.73168 0.0
C421 C 0.49783 0.52792 0.74681 0.0
C422 C 0.46085 0.51135 0.70512 0.0
C423 C 0.50633 0.52314 0.69296 0.0
C424 C 0.54782 0.53645 0.70812 0.0
C425 C 0.54363 0.53875 0.73473 0.0
H426 H 0.49307 0.42527 0.41146 0.0
H427 H 0.55543 0.57019 0.40643 0.0
H428 H 0.48908 0.41995 0.36512 0.0
H429 H 0.55068 0.56499 0.36002 0.0
H430 H 0.58157 0.51576 0.27677 0.0
H431 H 0.58792 0.5221 0.32316 0.0
H432 H 0.44147 0.4559 0.33044 0.0
H433 H 0.43496 0.44984 0.28421 0.0
C434 C 0.50593 0.45604 0.40051 0.0
C435 C 0.52448 0.4982 0.41276 0.0
C436 C 0.50334 0.45307 0.37391 0.0
C437 C 0.51932 0.49213 0.35884 0.0
C438 C 0.53849 0.53407 0.37104 0.0
C439 C 0.54096 0.53711 0.39768 0.0
C440 C 0.55052 0.503 0.28826 0.0
C441 C 0.50789 0.48202 0.27671 0.0
C442 C 0.55418 0.5066 0.31486 0.0
C443 C 0.51534 0.48922 0.33053 0.0
C444 C 0.47251 0.46876 0.31896 0.0
C445 C 0.46881 0.46527 0.29242 0.0
loop_
_geom_bond_atom_site_label_1
_geom_bond_atom_site_label_2
_geom_bond_distance
_geom_bond_site_symmetry_2
_ccdc_geom_bond_type
O0 Zn1 1.953 . S
O0 C16 1.225 1_565 S
Zn1 O0 1.953 . S
Zn1 O2 1.949 1_565 S
Zn1 O8 1.919 . S
Zn1 O13 1.924 1_565 S
O2 Zn1 1.949 1_545 S
O2 Zn3 1.923 1_444 S
O2 Zn4 1.950 1_455 S
O2 Zn5 1.945 1_554 S
Zn3 O2 1.923 1_666 S
Zn3 O6 1.933 . S
Zn3 O9 1.941 1_655 S
Zn3 O10 1.965 . S
Zn4 O2 1.950 1_655 S
Zn4 O11 1.938 1_545 S
Zn4 O12 1.906 . S
Zn4 O22 1.953 . S
Zn5 O2 1.945 1_556 S
Zn5 O7 1.932 . S
Zn5 O14 1.977 1_455 S
Zn5 O15 1.910 . S
O6 Zn3 1.933 . S
O6 C17 1.226 1_665 S
O7 Zn5 1.932 . S
O7 C17 1.307 . S
O8 Zn1 1.919 . S
O8 C19 1.253 1_554 S
O9 Zn3 1.941 1_455 S
O9 C19 1.283 . S
O10 Zn3 1.965 . S
O10 C18 1.303 1_556 S
O11 Zn4 1.938 1_565 S
O11 C18 1.247 . S
O12 Zn4 1.906 . S
O12 C20 1.304 1_554 S
O13 Zn1 1.924 1_545 S
O13 C21 1.311 . S
O14 Zn5 1.977 1_655 S
O14 C20 1.272 . S
O15 Zn5 1.910 . S
O15 C21 1.231 1_556 S
C16 O0 1.225 1_545 S
C16 O22 1.298 1_455 S
C17 O6 1.226 1_445 S
C17 O7 1.307 . S
C18 O10 1.303 1_554 S
C18 O11 1.247 . S
C19 O8 1.253 1_556 S
C19 O9 1.283 . S
C20 O12 1.304 1_556 S
C20 O14 1.272 . S
C21 O13 1.311 . S
C21 O15 1.231 1_554 S
O22 Zn4 1.953 . S
O22 C16 1.298 1_655 S
O23 Zn24 1.953 . S
O23 C39 1.225 . S
Zn24 O23 1.953 . S
Zn24 O25 1.949 . S
Zn24 O31 1.919 . S
Zn24 O36 1.924 . S
O25 Zn24 1.949 . S
O25 Zn26 1.923 . S
O25 Zn27 1.950 . S
O25 Zn28 1.945 . S
Zn26 O25 1.923 . S
Zn26 O29 1.933 . S
Zn26 O32 1.941 . S
Zn26 O33 1.965 . S
Zn27 O25 1.950 . S
Zn27 O34 1.938 . S
Zn27 O35 1.906 . S
Zn27 O45 1.953 . S
Zn28 O25 1.945 . S
Zn28 O30 1.932 . S
Zn28 O37 1.977 . S
Zn28 O38 1.910 . S
O29 Zn26 1.933 . S
O29 C40 1.226 . S
O30 Zn28 1.932 . S
O30 C40 1.307 . S
O31 Zn24 1.919 . S
O31 C42 1.253 . S
O32 Zn26 1.941 . S
O32 C42 1.283 . S
O33 Zn26 1.965 . S
O33 C41 1.303 . S
O34 Zn27 1.938 . S
O34 C41 1.247 . S
O35 Zn27 1.906 . S
O35 C43 1.304 . S
O36 Zn24 1.924 . S
O36 C44 1.311 . S
O37 Zn28 1.977 . S
O37 C43 1.272 . S
O38 Zn28 1.910 . S
O38 C44 1.231 . S
C39 O23 1.225 . S
C39 O45 1.298 . S
C40 O29 1.226 . S
C40 O30 1.307 . S
C41 O33 1.303 . S
C41 O34 1.247 . S
C42 O31 1.253 . S
C42 O32 1.283 . S
C43 O35 1.304 . S
C43 O37 1.272 . S
C44 O36 1.311 . S
C44 O38 1.231 . S
O45 Zn27 1.953 . S
O45 C39 1.298 . S
C46 C47 1.264 . S
C46 C51 1.479 . S
C46 C56 1.465 . S
C47 C46 1.264 . S
C47 C49 1.339 . S
C47 H74 0.931 . S
C48 C49 1.395 . S
C48 C50 1.320 . S
C49 C47 1.339 . S
C49 C48 1.395 . S
C49 H75 0.929 . S
C50 C48 1.320 . S
C50 C51 1.405 . S
C50 H76 0.930 . S
C51 C46 1.479 . S
C51 C50 1.405 . S
C51 H77 0.931 . S
U52 O53 2.454 1_545 S
U52 O54 2.458 1_545 S
U52 C55 2.984 1_545 S
U52 C56 2.847 1_455 S
U52 C69 2.882 . S
U52 O70 2.441 1_455 S
U52 O71 2.420 1_455 S
U52 O72 2.455 1_545 S
U52 O73 2.449 . S
O53 U52 2.454 1_565 S
O53 C55 1.353 . S
O54 U52 2.458 1_565 S
O54 C55 1.286 . S
C55 U52 2.984 1_565 S
C55 O53 1.353 . S
C55 O54 1.286 . S
C55 C57 1.363 . S
C56 C46 1.465 . S
C56 U52 2.847 1_655 S
C56 O70 1.249 . S
C56 O71 1.202 . S
C57 C55 1.363 . S
C57 C59 1.408 . S
C57 C62 1.342 . S
C58 C59 1.310 . S
C58 C61 1.461 . S
C58 H78 0.932 . S
C59 C57 1.408 . S
C59 C58 1.310 . S
C59 H79 0.930 . S
C60 C61 1.474 . S
C60 C62 1.285 . S
C60 H80 0.929 . S
C61 C58 1.461 . S
C61 C60 1.474 . S
C62 C57 1.342 . S
C62 C60 1.285 . S
C62 H81 0.930 . S
C63 C66 1.424 1_455 S
C63 C68 1.245 1_545 S
C63 C69 1.428 . S
C64 C67 1.260 1_565 S
C64 C68 1.477 . S
C64 H82 0.932 . S
C65 C66 1.384 . S
C65 C67 1.479 1_655 S
C65 H83 0.929 . S
C66 C63 1.424 1_655 S
C66 C65 1.384 . S
C66 H84 0.928 . S
C67 C64 1.260 1_545 S
C67 C65 1.479 1_455 S
C68 C63 1.245 1_565 S
C68 C64 1.477 . S
C68 H85 0.932 . S
C69 U52 2.882 . S
C69 C63 1.428 . S
C69 O72 1.301 1_545 S
C69 O73 1.282 . S
O70 U52 2.441 1_655 S
O70 C56 1.249 . S
O71 U52 2.420 1_655 S
O71 C56 1.202 . S
O72 U52 2.455 1_565 S
O72 C69 1.301 1_565 S
O73 U52 2.449 . S
O73 C69 1.282 . S
H74 C47 0.931 . S
H75 C49 0.929 . S
H76 C50 0.930 . S
H77 C51 0.931 . S
H78 C58 0.932 . S
H79 C59 0.930 . S
H80 C60 0.929 . S
H81 C62 0.930 . S
H82 C64 0.932 . S
H83 C65 0.929 . S
H84 C66 0.928 . S
H85 C68 0.932 . S
C86 C87 1.264 . S
C86 C91 1.479 . S
C86 C96 1.465 . S
C87 C86 1.264 . S
C87 C89 1.339 . S
C87 H114 0.931 . S
C88 C89 1.395 . S
C88 C90 1.320 . S
C89 C87 1.339 . S
C89 C88 1.395 . S
C89 H115 0.929 . S
C90 C88 1.320 . S
C90 C91 1.405 . S
C90 H116 0.930 . S
C91 C86 1.479 . S
C91 C90 1.405 . S
C91 H117 0.931 . S
U92 O93 2.454 1_565 S
U92 O94 2.458 1_565 S
U92 C95 2.984 1_565 S
U92 C96 2.847 1_455 S
U92 C109 2.882 . S
U92 O110 2.441 1_455 S
U92 O111 2.420 1_455 S
U92 O112 2.455 1_565 S
U92 O113 2.449 . S
O93 U92 2.454 1_545 S
O93 C95 1.353 . S
O94 U92 2.458 1_545 S
O94 C95 1.286 . S
C95 U92 2.984 1_545 S
C95 O93 1.353 . S
C95 O94 1.286 . S
C95 C97 1.363 . S
C96 C86 1.465 . S
C96 U92 2.847 1_655 S
C96 O110 1.249 . S
C96 O111 1.202 . S
C97 C95 1.363 . S
C97 C99 1.408 . S
C97 C102 1.342 . S
C98 C99 1.310 . S
C98 C101 1.461 . S
C98 H118 0.932 . S
C99 C97 1.408 . S
C99 C98 1.310 . S
C99 H119 0.930 . S
C100 C101 1.474 . S
C100 C102 1.285 . S
C100 H120 0.929 . S
C101 C98 1.461 . S
C101 C100 1.474 . S
C102 C97 1.342 . S
C102 C100 1.285 . S
C102 H121 0.930 . S
C103 C106 1.424 1_455 S
C103 C108 1.245 1_565 S
C103 C109 1.428 . S
C104 C107 1.260 1_545 S
C104 C108 1.477 . S
C104 H122 0.932 . S
C105 C106 1.384 . S
C105 C107 1.479 1_655 S
C105 H123 0.929 . S
C106 C103 1.424 1_655 S
C106 C105 1.384 . S
C106 H124 0.928 . S
C107 C104 1.260 1_565 S
C107 C105 1.479 1_455 S
C108 C103 1.245 1_545 S
C108 C104 1.477 . S
C108 H125 0.932 . S
C109 U92 2.882 . S
C109 C103 1.428 . S
C109 O112 1.301 1_565 S
C109 O113 1.282 . S
O110 U92 2.441 1_655 S
O110 C96 1.249 . S
O111 U92 2.420 1_655 S
O111 C96 1.202 . S
O112 U92 2.455 1_545 S
O112 C109 1.301 1_545 S
O113 U92 2.449 . S
O113 C109 1.282 . S
H114 C87 0.931 . S
H115 C89 0.929 . S
H116 C90 0.930 . S
H117 C91 0.931 . S
H118 C98 0.932 . S
H119 C99 0.930 . S
H120 C100 0.929 . S
H121 C102 0.930 . S
H122 C104 0.932 . S
H123 C105 0.929 . S
H124 C106 0.928 . S
H125 C108 0.932 . S
C126 C127 1.264 . S
C126 C131 1.479 . S
C126 C136 1.465 . S
C127 C126 1.264 . S
C127 C129 1.339 . S
C127 H154 0.931 . S
C128 C129 1.395 . S
C128 C130 1.320 . S
C129 C127 1.339 . S
C129 C128 1.395 . S
C129 H155 0.929 . S
C130 C128 1.320 . S
C130 C131 1.405 . S
C130 H156 0.930 . S
C131 C126 1.479 . S
C131 C130 1.405 . S
C131 H157 0.931 . S
U132 O133 2.454 . S
U132 O134 2.458 . S
U132 C135 2.984 . S
U132 C136 2.847 . S
U132 C149 2.882 . S
U132 O150 2.441 . S
U132 O151 2.420 . S
U132 O152 2.455 . S
U132 O153 2.449 . S
O133 U132 2.454 . S
O133 C135 1.353 . S
O134 U132 2.458 . S
O134 C135 1.286 . S
C135 U132 2.984 . S
C135 O133 1.353 . S
C135 O134 1.286 . S
C135 C137 1.363 . S
C136 C126 1.465 . S
C136 U132 2.847 . S
C136 O150 1.249 . S
C136 O151 1.202 . S
C137 C135 1.363 . S
C137 C139 1.408 . S
C137 C142 1.342 . S
C138 C139 1.310 . S
C138 C141 1.461 . S
C138 H158 0.932 . S
C139 C137 1.408 . S
C139 C138 1.310 . S
C139 H159 0.930 . S
C140 C141 1.474 . S
C140 C142 1.285 . S
C140 H160 0.929 . S
C141 C138 1.461 . S
C141 C140 1.474 . S
C142 C137 1.342 . S
C142 C140 1.285 . S
C142 H161 0.930 . S
C143 C146 1.424 . S
C143 C148 1.245 . S
C143 C149 1.428 . S
C144 C147 1.260 . S
C144 C148 1.477 . S
C144 H162 0.932 . S
C145 C146 1.384 . S
C145 C147 1.479 . S
C145 H163 0.929 . S
C146 C143 1.424 . S
C146 C145 1.384 . S
C146 H164 0.928 . S
C147 C144 1.260 . S
C147 C145 1.479 . S
C148 C143 1.245 . S
C148 C144 1.477 . S
C148 H165 0.932 . S
C149 U132 2.882 . S
C149 C143 1.428 . S
C149 O152 1.301 . S
C149 O153 1.282 . S
O150 U132 2.441 . S
O150 C136 1.249 . S
O151 U132 2.420 . S
O151 C136 1.202 . S
O152 U132 2.455 . S
O152 C149 1.301 . S
O153 U132 2.449 . S
O153 C149 1.282 . S
H154 C127 0.931 . S
H155 C129 0.929 . S
H156 C130 0.930 . S
H157 C131 0.931 . S
H158 C138 0.932 . S
H159 C139 0.930 . S
H160 C140 0.929 . S
H161 C142 0.930 . S
H162 C144 0.932 . S
H163 C145 0.929 . S
H164 C146 0.928 . S
H165 C148 0.932 . S
C166 C167 1.264 . S
C166 C171 1.479 . S
C166 C176 1.465 . S
C167 C166 1.264 . S
C167 C169 1.339 . S
C167 H194 0.931 . S
C168 C169 1.395 . S
C168 C170 1.320 . S
C169 C167 1.339 . S
C169 C168 1.395 . S
C169 H195 0.929 . S
C170 C168 1.320 . S
C170 C171 1.405 . S
C170 H196 0.930 . S
C171 C166 1.479 . S
C171 C170 1.405 . S
C171 H197 0.931 . S
U172 O173 2.454 . S
U172 O174 2.458 . S
U172 C175 2.984 . S
U172 C176 2.847 . S
U172 C189 2.882 . S
U172 O190 2.441 . S
U172 O191 2.420 . S
U172 O192 2.455 . S
U172 O193 2.449 . S
O173 U172 2.454 . S
O173 C175 1.353 . S
O174 U172 2.458 . S
O174 C175 1.286 . S
C175 U172 2.984 . S
C175 O173 1.353 . S
C175 O174 1.286 . S
C175 C177 1.363 . S
C176 C166 1.465 . S
C176 U172 2.847 . S
C176 O190 1.249 . S
C176 O191 1.202 . S
C177 C175 1.363 . S
C177 C179 1.408 . S
C177 C182 1.342 . S
C178 C179 1.310 . S
C178 C181 1.461 . S
C178 H198 0.932 . S
C179 C177 1.408 . S
C179 C178 1.310 . S
C179 H199 0.930 . S
C180 C181 1.474 . S
C180 C182 1.285 . S
C180 H200 0.929 . S
C181 C178 1.461 . S
C181 C180 1.474 . S
C182 C177 1.342 . S
C182 C180 1.285 . S
C182 H201 0.930 . S
C183 C186 1.424 . S
C183 C188 1.245 . S
C183 C189 1.428 . S
C184 C187 1.260 . S
C184 C188 1.477 . S
C184 H202 0.932 . S
C185 C186 1.384 . S
C185 C187 1.479 . S
C185 H203 0.929 . S
C186 C183 1.424 . S
C186 C185 1.384 . S
C186 H204 0.928 . S
C187 C184 1.260 . S
C187 C185 1.479 . S
C188 C183 1.245 . S
C188 C184 1.477 . S
C188 H205 0.932 . S
C189 U172 2.882 . S
C189 C183 1.428 . S
C189 O192 1.301 . S
C189 O193 1.282 . S
O190 U172 2.441 . S
O190 C176 1.249 . S
O191 U172 2.420 . S
O191 C176 1.202 . S
O192 U172 2.455 . S
O192 C189 1.301 . S
O193 U172 2.449 . S
O193 C189 1.282 . S
H194 C167 0.931 . S
H195 C169 0.929 . S
H196 C170 0.930 . S
H197 C171 0.931 . S
H198 C178 0.932 . S
H199 C179 0.930 . S
H200 C180 0.929 . S
H201 C182 0.930 . S
H202 C184 0.932 . S
H203 C185 0.929 . S
H204 C186 0.928 . S
H205 C188 0.932 . S
H206 C214 0.950 . S
H207 C219 0.950 1_556 S
H208 C216 0.950 . S
H209 C218 0.964 . S
H210 C220 0.950 . S
H211 C222 0.950 . S
H212 C224 0.950 . S
H213 C225 0.950 . S
C214 H206 0.950 . S
C214 C215 1.386 . S
C214 C216 1.391 . S
C215 C214 1.386 . S
C215 C219 1.393 . S
C216 H208 0.950 . S
C216 C214 1.391 . S
C216 C217 1.400 . S
C217 C216 1.400 . S
C217 C218 1.398 . S
C217 C223 1.491 . S
C218 H209 0.964 . S
C218 C217 1.398 . S
C218 C219 1.391 . S
C219 H207 0.950 1_554 S
C219 C215 1.393 . S
C219 C218 1.391 . S
C220 H210 0.950 . S
C220 C221 1.386 . S
C220 C222 1.391 . S
C221 C220 1.386 . S
C221 C225 1.393 . S
C222 H211 0.950 . S
C222 C220 1.391 . S
C222 C223 1.400 . S
C223 C217 1.491 . S
C223 C222 1.400 . S
C223 C224 1.398 . S
C224 H212 0.950 . S
C224 C223 1.398 . S
C224 C225 1.391 . S
C225 H213 0.950 . S
C225 C221 1.393 . S
C225 C224 1.391 . S
H226 C234 0.950 . S
H227 C239 0.950 . S
H228 C236 0.950 . S
H229 C238 0.950 . S
H230 C240 0.950 1_554 S
H231 C242 0.950 1_554 S
H232 C244 0.950 . S
H233 C245 0.950 . S
C234 H226 0.950 . S
C234 C235 1.386 . S
C234 C236 1.391 . S
C235 C234 1.386 . S
C235 C239 1.393 1_556 S
C236 H228 0.950 . S
C236 C234 1.391 . S
C236 C237 1.400 . S
C237 C236 1.400 . S
C237 C238 1.398 1_556 S
C237 C243 1.491 . S
C238 H229 0.950 . S
C238 C237 1.398 1_554 S
C238 C239 1.391 . S
C239 H227 0.950 . S
C239 C235 1.393 1_554 S
C239 C238 1.391 . S
C240 H230 0.950 1_556 S
C240 C241 1.386 . S
C240 C242 1.391 . S
C241 C240 1.386 . S
C241 C245 1.393 . S
C242 H231 0.950 1_556 S
C242 C240 1.391 . S
C242 C243 1.400 . S
C243 C237 1.491 . S
C243 C242 1.400 . S
C243 C244 1.398 . S
C244 H232 0.950 . S
C244 C243 1.398 . S
C244 C245 1.391 . S
C245 H233 0.950 . S
C245 C241 1.393 . S
C245 C244 1.391 . S
H246 C254 0.950 . S
H247 C259 0.950 1_556 S
H248 C256 0.950 . S
H249 C258 0.950 1_556 S
H250 C260 0.950 . S
H251 C262 0.917 1_556 S
H252 C264 0.950 . S
H253 C265 0.950 . S
C254 H246 0.950 . S
C254 C255 1.386 . S
C254 C256 1.391 . S
C255 C254 1.386 . S
C255 C259 1.393 . S
C256 H248 0.950 . S
C256 C254 1.391 . S
C256 C257 1.400 . S
C257 C256 1.400 . S
C257 C258 1.398 . S
C257 C263 1.491 . S
C258 H249 0.950 1_554 S
C258 C257 1.398 . S
C258 C259 1.391 . S
C259 H247 0.950 1_554 S
C259 C255 1.393 . S
C259 C258 1.391 . S
C260 H250 0.950 . S
C260 C261 1.386 . S
C260 C262 1.391 . S
C261 C260 1.386 . S
C261 C265 1.393 . S
C262 H251 0.917 1_554 S
C262 C260 1.391 . S
C262 C263 1.400 . S
C263 C257 1.491 . S
C263 C262 1.400 . S
C263 C264 1.398 . S
C264 H252 0.950 . S
C264 C263 1.398 . S
C264 C265 1.391 . S
C265 H253 0.950 . S
C265 C261 1.393 . S
C265 C264 1.391 . S
H266 C274 0.950 . S
H267 C279 0.950 . S
H268 C276 0.950 . S
H269 C278 0.950 . S
H270 C280 0.950 . S
H271 C282 0.950 . S
H272 C284 0.950 . S
H273 C285 0.950 . S
C274 H266 0.950 . S
C274 C275 1.386 . S
C274 C276 1.391 . S
C275 C274 1.386 . S
C275 C279 1.393 . S
C276 H268 0.950 . S
C276 C274 1.391 . S
C276 C277 1.400 . S
C277 C276 1.400 . S
C277 C278 1.398 . S
C277 C283 1.491 . S
C278 H269 0.950 . S
C278 C277 1.398 . S
C278 C279 1.391 . S
C279 H267 0.950 . S
C279 C275 1.393 . S
C279 C278 1.391 . S
C280 H270 0.950 . S
C280 C281 1.386 . S
C280 C282 1.391 . S
C281 C280 1.386 . S
C281 C285 1.393 . S
C282 H271 0.950 . S
C282 C280 1.391 . S
C282 C283 1.400 . S
C283 C277 1.491 . S
C283 C282 1.400 . S
C283 C284 1.398 . S
C284 H272 0.950 . S
C284 C283 1.398 . S
C284 C285 1.391 . S
C285 H273 0.950 . S
C285 C281 1.393 . S
C285 C284 1.391 . S
H286 C294 0.950 . S
H287 C299 0.950 . S
H288 C296 0.950 . S
H289 C298 0.950 . S
H290 C300 0.950 . S
H291 C302 0.950 . S
H292 C304 0.950 . S
H293 C305 0.950 . S
C294 H286 0.950 . S
C294 C295 1.386 . S
C294 C296 1.391 . S
C295 C294 1.386 . S
C295 C299 1.393 . S
C296 H288 0.950 . S
C296 C294 1.391 . S
C296 C297 1.400 . S
C297 C296 1.400 . S
C297 C298 1.398 . S
C297 C303 1.491 . S
C298 H289 0.950 . S
C298 C297 1.398 . S
C298 C299 1.391 . S
C299 H287 0.950 . S
C299 C295 1.393 . S
C299 C298 1.391 . S
C300 H290 0.950 . S
C300 C301 1.386 . S
C300 C302 1.391 . S
C301 C300 1.386 . S
C301 C305 1.393 . S
C302 H291 0.950 . S
C302 C300 1.391 . S
C302 C303 1.400 . S
C303 C297 1.491 . S
C303 C302 1.400 . S
C303 C304 1.398 . S
C304 H292 0.950 . S
C304 C303 1.398 . S
C304 C305 1.391 . S
C305 H293 0.950 . S
C305 C301 1.393 . S
C305 C304 1.391 . S
H306 C314 0.950 . S
H307 C319 0.950 . S
H308 C316 0.950 . S
H309 C318 0.950 . S
H310 C320 0.950 . S
H311 C322 0.950 . S
H312 C324 0.950 . S
H313 C325 0.950 . S
C314 H306 0.950 . S
C314 C315 1.386 . S
C314 C316 1.391 . S
C315 C314 1.386 . S
C315 C319 1.393 . S
C316 H308 0.950 . S
C316 C314 1.391 . S
C316 C317 1.400 . S
C317 C316 1.400 . S
C317 C318 1.398 . S
C317 C323 1.491 . S
C318 H309 0.950 . S
C318 C317 1.398 . S
C318 C319 1.391 . S
C319 H307 0.950 . S
C319 C315 1.393 . S
C319 C318 1.391 . S
C320 H310 0.950 . S
C320 C321 1.386 . S
C320 C322 1.391 . S
C321 C320 1.386 . S
C321 C325 1.393 . S
C322 H311 0.950 . S
C322 C320 1.391 . S
C322 C323 1.400 . S
C323 C317 1.491 . S
C323 C322 1.400 . S
C323 C324 1.398 . S
C324 H312 0.950 . S
C324 C323 1.398 . S
C324 C325 1.391 . S
C325 H313 0.950 . S
C325 C321 1.393 . S
C325 C324 1.391 . S
H326 C334 0.950 . S
H327 C339 0.950 . S
H328 C336 0.950 . S
H329 C338 0.950 . S
H330 C340 0.950 . S
H331 C342 0.950 . S
H332 C344 0.950 . S
H333 C345 0.950 . S
C334 H326 0.950 . S
C334 C335 1.386 . S
C334 C336 1.391 . S
C335 C334 1.386 . S
C335 C339 1.393 . S
C336 H328 0.950 . S
C336 C334 1.391 . S
C336 C337 1.400 . S
C337 C336 1.400 . S
C337 C338 1.398 . S
C337 C343 1.491 . S
C338 H329 0.950 . S
C338 C337 1.398 . S
C338 C339 1.391 . S
C339 H327 0.950 . S
C339 C335 1.393 . S
C339 C338 1.391 . S
C340 H330 0.950 . S
C340 C341 1.386 . S
C340 C342 1.391 . S
C341 C340 1.386 . S
C341 C345 1.393 . S
C342 H331 0.950 . S
C342 C340 1.391 . S
C342 C343 1.400 . S
C343 C337 1.491 . S
C343 C342 1.400 . S
C343 C344 1.398 . S
C344 H332 0.950 . S
C344 C343 1.398 . S
C344 C345 1.391 . S
C345 H333 0.950 . S
C345 C341 1.393 . S
C345 C344 1.391 . S
H346 C354 0.950 . S
H347 C359 0.950 . S
H348 C356 0.950 . S
H349 C358 0.950 . S
H350 C360 0.950 . S
H351 C362 0.950 . S
H352 C364 0.950 . S
H353 C365 0.950 . S
C354 H346 0.950 . S
C354 C355 1.386 . S
C354 C356 1.391 . S
C355 C354 1.386 . S
C355 C359 1.393 . S
C356 H348 0.950 . S
C356 C354 1.391 . S
C356 C357 1.400 . S
C357 C356 1.400 . S
C357 C358 1.398 . S
C357 C363 1.491 . S
C358 H349 0.950 . S
C358 C357 1.398 . S
C358 C359 1.391 . S
C359 H347 0.950 . S
C359 C355 1.393 . S
C359 C358 1.391 . S
C360 H350 0.950 . S
C360 C361 1.386 . S
C360 C362 1.391 . S
C361 C360 1.386 . S
C361 C365 1.393 . S
C362 H351 0.950 . S
C362 C360 1.391 . S
C362 C363 1.400 . S
C363 C357 1.491 . S
C363 C362 1.400 . S
C363 C364 1.398 . S
C364 H352 0.950 . S
C364 C363 1.398 . S
C364 C365 1.391 . S
C365 H353 0.950 . S
C365 C361 1.393 . S
C365 C364 1.391 . S
H366 C374 0.950 . S
H367 C379 0.950 . S
H368 C376 0.950 . S
H369 C378 0.950 . S
H370 C380 0.950 . S
H371 C382 0.950 . S
H372 C384 0.950 . S
H373 C385 0.950 . S
C374 H366 0.950 . S
C374 C375 1.386 1_665 S
C374 C376 1.391 . S
C375 C374 1.386 1_445 S
C375 C379 1.393 . S
C376 H368 0.950 . S
C376 C374 1.391 . S
C376 C377 1.400 1_665 S
C377 C376 1.400 1_445 S
C377 C378 1.398 . S
C377 C383 1.491 . S
C378 H369 0.950 . S
C378 C377 1.398 . S
C378 C379 1.391 . S
C379 H367 0.950 . S
C379 C375 1.393 . S
C379 C378 1.391 . S
C380 H370 0.950 . S
C380 C381 1.386 1_455 S
C380 C382 1.391 . S
C381 C380 1.386 1_655 S
C381 C385 1.393 1_545 S
C382 H371 0.950 . S
C382 C380 1.391 . S
C382 C383 1.400 . S
C383 C377 1.491 . S
C383 C382 1.400 . S
C383 C384 1.398 1_445 S
C384 H372 0.950 . S
C384 C383 1.398 1_665 S
C384 C385 1.391 . S
C385 H373 0.950 . S
C385 C381 1.393 1_565 S
C385 C384 1.391 . S
H386 C394 0.950 . S
H387 C399 0.950 . S
H388 C396 0.950 . S
H389 C398 0.950 . S
H390 C400 0.950 . S
H391 C402 0.950 . S
H392 C404 0.950 . S
H393 C405 0.950 . S
C394 H386 0.950 . S
C394 C395 1.386 1_655 S
C394 C396 1.391 . S
C395 C394 1.386 1_455 S
C395 C399 1.393 1_545 S
C396 H388 0.950 . S
C396 C394 1.391 . S
C396 C397 1.400 1_655 S
C397 C396 1.400 1_455 S
C397 C398 1.398 1_545 S
C397 C403 1.491 . S
C398 H389 0.950 . S
C398 C397 1.398 1_565 S
C398 C399 1.391 . S
C399 H387 0.950 . S
C399 C395 1.393 1_565 S
C399 C398 1.391 . S
C400 H390 0.950 . S
C400 C401 1.388 . S
C400 C402 1.391 . S
C401 C400 1.388 . S
C401 C405 1.391 1_465 S
C402 H391 0.950 . S
C402 C400 1.391 . S
C402 C403 1.400 1_565 S
C403 C397 1.491 . S
C403 C402 1.400 1_545 S
C403 C404 1.398 1_455 S
C404 H392 0.950 . S
C404 C403 1.398 1_655 S
C404 C405 1.391 . S
C405 H393 0.950 . S
C405 C401 1.391 1_645 S
C405 C404 1.391 . S
H406 C414 0.950 . S
H407 C419 0.950 . S
H408 C416 0.950 . S
H409 C418 0.950 . S
H410 C420 0.950 . S
H411 C422 0.950 . S
H412 C424 0.950 . S
H413 C425 0.950 . S
C414 H406 0.950 . S
C414 C415 1.386 . S
C414 C416 1.391 . S
C415 C414 1.386 . S
C415 C419 1.393 . S
C416 H408 0.950 . S
C416 C414 1.391 . S
C416 C417 1.400 . S
C417 C416 1.400 . S
C417 C418 1.398 . S
C417 C423 1.491 . S
C418 H409 0.950 . S
C418 C417 1.398 . S
C418 C419 1.391 . S
C419 H407 0.950 . S
C419 C415 1.393 . S
C419 C418 1.391 . S
C420 H410 0.950 . S
C420 C421 1.386 . S
C420 C422 1.391 . S
C421 C420 1.386 . S
C421 C425 1.393 . S
C422 H411 0.950 . S
C422 C420 1.391 . S
C422 C423 1.400 . S
C423 C417 1.491 . S
C423 C422 1.400 . S
C423 C424 1.398 . S
C424 H412 0.950 . S
C424 C423 1.398 . S
C424 C425 1.391 . S
C425 H413 0.950 . S
C425 C421 1.393 . S
C425 C424 1.391 . S
H426 C434 0.950 . S
H427 C439 0.950 . S
H428 C436 0.950 . S
H429 C438 0.950 . S
H430 C440 0.950 . S
H431 C442 0.950 . S
H432 C444 0.950 . S
H433 C445 0.950 . S
C434 H426 0.950 . S
C434 C435 1.386 . S
C434 C436 1.391 . S
C435 C434 1.386 . S
C435 C439 1.393 . S
C436 H428 0.950 . S
C436 C434 1.391 . S
C436 C437 1.400 . S
C437 C436 1.400 . S
C437 C438 1.398 . S
C437 C443 1.491 . S
C438 H429 0.950 . S
C438 C437 1.398 . S
C438 C439 1.391 . S
C439 H427 0.950 . S
C439 C435 1.393 . S
C439 C438 1.391 . S
C440 H430 0.950 . S
C440 C441 1.386 . S
C440 C442 1.391 . S
C441 C440 1.386 . S
C441 C445 1.393 . S
C442 H431 0.950 . S
C442 C440 1.391 . S
C442 C443 1.400 . S
C443 C437 1.491 . S
C443 C442 1.400 . S
C443 C444 1.398 . S
C444 H432 0.950 . S
C444 C443 1.398 . S
C444 C445 1.391 . S
C445 H433 0.950 . S
C445 C441 1.393 . S
C445 C444 1.391 . S
C221 C168 1.468 . S
C215 C21 1.459 . S
C235 C19 1.457 . S
C241 C128 1.462 . S
C255 C18 1.419 . S
C261 C181 1.427 . S
C275 C20 1.457 . S
C281 C141 1.450 . S
C295 C44 1.471 . S
C301 C88 1.464 . S
C315 C42 1.464 . S
C321 C48 1.466 . S
C341 C101 1.434 . S
C335 C41 1.424 . S
C361 C61 1.449 . S
C355 C43 1.450 . S
C375 C16 1.492 . S
C381 C67 1.478 1_655 S
C395 C17 1.456 . S
C401 C107 1.445 . S
C421 C147 1.479 . S
C415 C39 1.494 . S
C435 C40 1.455 . S
C441 C187 1.441 . S
