# Generated by pormake.
# Topology pth, (4,4)-cn, num edge types: 1
# Building blocks:
#     Node 0, Type 0, BuildingBlock: TATPOV_clean_sbu_0, # of connection points: 4
#     Node 1, Type 0, BuildingBlock: TATPOV_clean_sbu_0, # of connection points: 4
#     Node 2, Type 0, BuildingBlock: TATPOV_clean_sbu_0, # of connection points: 4
#     Node 3, Type 1, BuildingBlock: MUDLON_clean_sbu_0, # of connection points: 4
#     Node 4, Type 1, BuildingBlock: MUDLON_clean_sbu_0, # of connection points: 4
#     Node 5, Type 1, BuildingBlock: MUDLON_clean_sbu_0, # of connection points: 4
#     Edge 6, Type (0, 1), BuildingBlock: CIFDUS_clean_linker_0, # of connection points: 2
#     Edge 7, Type (0, 1), BuildingBlock: CIFDUS_clean_linker_0, # of connection points: 2
#     Edge 8, Type (0, 1), BuildingBlock: CIFDUS_clean_linker_0, # of connection points: 2
#     Edge 9, Type (0, 1), BuildingBlock: CIFDUS_clean_linker_0, # of connection points: 2
#     Edge 10, Type (0, 1), BuildingBlock: CIFDUS_clean_linker_0, # of connection points: 2
#     Edge 11, Type (0, 1), BuildingBlock: CIFDUS_clean_linker_0, # of connection points: 2
#     Edge 12, Type (0, 1), BuildingBlock: CIFDUS_clean_linker_0, # of connection points: 2
#     Edge 13, Type (0, 1), BuildingBlock: CIFDUS_clean_linker_0, # of connection points: 2
#     Edge 14, Type (0, 1), BuildingBlock: CIFDUS_clean_linker_0, # of connection points: 2
#     Edge 15, Type (0, 1), BuildingBlock: CIFDUS_clean_linker_0, # of connection points: 2
#     Edge 16, Type (0, 1), BuildingBlock: CIFDUS_clean_linker_0, # of connection points: 2
#     Edge 17, Type (0, 1), BuildingBlock: CIFDUS_clean_linker_0, # of connection points: 2
# Relax obj value: 0.072
# Max RMSD: 0.185
# Mean RMSD: 0.119
data_MOF--net-pth--node1-TATPOV_clean_sbu_0--node2-MUDLON_clean_sbu_0--edge1-CIFDUS_clean_linker_0
_symmetry_space_group_name_H-M    P1
_symmetry_Int_Tables_number       1
_symmetry_cell_setting            triclinic
loop_
_symmetry_equiv_pos_as_xyz
'x, y, z'
_cell_length_a     20.096971
_cell_length_b     19.850322
_cell_length_c     51.574035
_cell_angle_alpha  92.661313
_cell_angle_beta   92.257039
_cell_angle_gamma 120.75602
loop_
_atom_site_label
_atom_site_type_symbol
_atom_site_fract_x
_atom_site_fract_y
_atom_site_fract_z
_atom_type_partial_charge
Zn0 Zn 0.19245 0.02633 0.07011 0.0
Zn1 Zn 0.1514 0.12018 0.09325 0.0
O2 O 0.1755 0.06392 0.12218 0.0
O3 O 0.2239 0.99823 0.10353 0.0
O4 O 0.12612 0.19111 0.11505 0.0
O5 O 0.26977 0.11394 0.05001 0.0
O6 O 0.23858 0.19338 0.06996 0.0
C7 C 0.20454 0.02004 0.12385 0.0
C8 C 0.03217 0.9834 0.05703 0.0
O9 O 0.05052 0.04638 0.07071 0.0
O10 O 0.08084 0.96116 0.05495 0.0
C11 C 0.07555 0.15777 0.13149 0.0
O12 O 0.04157 0.08114 0.1323 0.0
C13 C 0.27795 0.18141 0.05342 0.0
Zn14 Zn 0.22124 0.14449 0.39513 0.0
Zn15 Zn 0.09995 0.10131 0.42465 0.0
O16 O 0.18383 0.10171 0.44948 0.0
O17 O 0.28603 0.14551 0.42648 0.0
O18 O 0.01566 0.08675 0.44838 0.0
O19 O 0.22075 0.24185 0.38435 0.0
O20 O 0.12155 0.20312 0.4084 0.0
C21 C 0.25412 0.12002 0.44742 0.0
C22 C 0.08459 0.98959 0.37914 0.0
O23 O 0.05312 0.005 0.39775 0.0
O24 O 0.15377 0.03895 0.37436 0.0
C25 C 0.94958 0.0708 0.43866 0.0
O26 O 0.93492 0.05818 0.41328 0.0
C27 C 0.16813 0.25165 0.39318 0.0
Zn28 Zn 0.19267 0.04507 0.8002 0.0
Zn29 Zn 0.09752 0.04215 0.76327 0.0
O30 O 0.18344 0.03874 0.74251 0.0
O31 O 0.26324 0.04319 0.77397 0.0
O32 O 0.02002 0.03446 0.73489 0.0
O33 O 0.11199 0.94509 0.81364 0.0
O34 O 0.02824 0.94672 0.78532 0.0
C35 C 0.24586 0.04075 0.74995 0.0
C36 C 0.18183 0.18379 0.80372 0.0
O37 O 0.1395 0.15236 0.78252 0.0
O38 O 0.20927 0.14816 0.81576 0.0
C39 C 0.0447 0.08432 0.7178 0.0
O40 O 0.11897 0.13812 0.7192 0.0
C41 C 0.04289 0.91535 0.80413 0.0
Mg42 Mg 0.07363 0.60827 0.26262 0.0
C43 C 0.10125 0.54588 0.31177 0.0
O44 O 0.02874 0.52663 0.31367 0.0
C45 C 0.08472 0.75445 0.24265 0.0
O46 O 0.01109 0.71512 0.24738 0.0
C47 C 0.04391 0.46211 0.23015 0.0
O48 O 0.0133 0.429 0.25148 0.0
O49 O 0.07084 0.53543 0.22913 0.0
O50 O 0.13776 0.5867 0.29327 0.0
O51 O 0.95452 0.56545 0.27311 0.0
C52 C 0.92214 0.59032 0.28855 0.0
O53 O 0.84649 0.54676 0.28952 0.0
O54 O 0.12725 0.72627 0.24861 0.0
Mg55 Mg 0.58952 0.05968 0.59072 0.0
C56 C 0.42426 0.99828 0.56739 0.0
O57 O 0.41119 0.00948 0.59148 0.0
C58 C 0.70888 0.05685 0.62151 0.0
O59 O 0.73239 0.12965 0.61641 0.0
C60 C 0.52673 0.07219 0.63964 0.0
O61 O 0.53082 0.00831 0.64012 0.0
O62 O 0.55438 0.11525 0.6207 0.0
O63 O 0.48757 1.00137 0.56284 0.0
O64 O 0.68222 0.12326 0.56459 0.0
C65 C 0.67485 0.07719 0.54513 0.0
O66 O 0.61349 0.00591 0.54273 0.0
O67 O 0.6412 1.00291 0.61244 0.0
Mg68 Mg 0.55363 0.61303 0.91932 0.0
C69 C 0.4292 0.59373 0.88104 0.0
O70 O 0.48598 0.62821 0.86563 0.0
C71 C 0.66794 0.67573 0.96287 0.0
O72 O 0.65298 0.60455 0.95606 0.0
C73 C 0.50913 0.44434 0.93884 0.0
O74 O 0.55029 0.43475 0.92148 0.0
O75 O 0.50413 0.50562 0.93968 0.0
O76 O 0.44624 0.60527 0.90551 0.0
O77 O 0.62113 0.62982 0.88534 0.0
C78 C 0.68887 0.6396 0.8859 0.0
O79 O 0.71804 0.62866 0.90742 0.0
O80 O 0.63161 0.70209 0.9501 0.0
H81 H 0.1273 0.31546 0.13412 0.0
H82 H 0.98478 0.1036 0.17224 0.0
H83 H 0.96053 0.17821 0.2054 0.0
H84 H 0.98314 0.30394 0.22469 0.0
H85 H 0.124 0.51631 0.18669 0.0
H86 H 0.1449 0.44121 0.15245 0.0
C87 C 0.09066 0.28559 0.14961 0.0
C88 C 0.05831 0.20397 0.15067 0.0
C89 C 0.07661 0.32896 0.16874 0.0
C90 C 0.01061 0.16628 0.17086 0.0
C91 C 0.9967 0.20894 0.18992 0.0
C92 C 0.01813 0.33387 0.20886 0.0
C93 C 0.05222 0.41578 0.20841 0.0
C94 C 0.02993 0.29036 0.18921 0.0
C95 C 0.09699 0.45333 0.1876 0.0
C96 C 0.10919 0.41043 0.16801 0.0
H97 H 0.97189 0.1479 0.48656 0.0
H98 H 0.79347 0.98869 0.42805 0.0
H99 H 0.69358 0.98212 0.45502 0.0
H100 H 0.65627 0.01663 0.49581 0.0
H101 H 0.83232 0.17894 0.55424 0.0
H102 H 0.93392 0.19093 0.52652 0.0
C103 C 0.91109 0.11167 0.4798 0.0
C104 C 0.89006 0.06793 0.45545 0.0
C105 C 0.85369 0.10945 0.49525 0.0
C106 C 0.8112 0.02255 0.44672 0.0
C107 C 0.75401 0.01885 0.46212 0.0
C108 C 0.71694 0.05548 0.50237 0.0
C109 C 0.73677 0.09666 0.52707 0.0
C110 C 0.77454 0.06156 0.48645 0.0
C111 C 0.81556 0.14719 0.53521 0.0
C112 C 0.87358 0.15333 0.51947 0.0
H113 H 0.88576 0.85835 0.79977 0.0
H114 H 0.05939 0.82182 0.83736 0.0
H115 H 0.96307 0.72676 0.86397 0.0
H116 H 0.83367 0.66505 0.8802 0.0
H117 H 0.65886 0.70125 0.84354 0.0
H118 H 0.75073 0.78376 0.81287 0.0
C119 C 0.90212 0.82848 0.81343 0.0
C120 C 0.98016 0.84834 0.81675 0.0
C121 C 0.84626 0.77404 0.8291 0.0
C122 C 1.00013 0.80875 0.83456 0.0
C123 C 0.94502 0.75422 0.84987 0.0
C124 C 0.81515 0.68994 0.86526 0.0
C125 C 0.73969 0.67765 0.86448 0.0
C126 C 0.86853 0.73819 0.84789 0.0
C127 C 0.71668 0.70988 0.84476 0.0
C128 C 0.76939 0.75752 0.82724 0.0
H129 H 0.11968 0.00436 0.16545 0.0
H130 H 0.29219 0.95661 0.13757 0.0
H131 H 0.27853 0.87896 0.17451 0.0
H132 H 0.20518 0.81024 0.21135 0.0
H133 H 0.02549 0.84975 0.23714 0.0
H134 H 0.05498 0.94548 0.20478 0.0
C135 C 0.15555 0.97846 0.16778 0.0
C136 C 0.20651 0.9859 0.14866 0.0
C137 C 0.14546 0.93153 0.18862 0.0
C138 C 0.25211 0.95137 0.15189 0.0
C139 C 0.24419 0.90672 0.17299 0.0
C140 C 0.17373 0.84116 0.21028 0.0
C141 C 0.1129 0.82252 0.22652 0.0
C142 C 0.18918 0.8942 0.19099 0.0
C143 C 0.07223 0.86263 0.22474 0.0
C144 C 0.08892 0.91726 0.20618 0.0
H145 H 0.20023 0.05061 0.4928 0.0
H146 H 0.40304 0.15091 0.44848 0.0
H147 H 0.46983 0.11443 0.48014 0.0
H148 H 0.47223 0.05591 0.52064 0.0
H149 H 0.2732 0.96138 0.56651 0.0
H150 H 0.20299 0.99209 0.53378 0.0
C151 C 0.25925 0.06507 0.49016 0.0
C152 C 0.29638 0.10383 0.46822 0.0
C153 C 0.2977 0.04375 0.50852 0.0
C154 C 0.37284 0.12152 0.46514 0.0
C155 C 0.41112 0.10023 0.48319 0.0
C156 C 0.41294 0.0406 0.52327 0.0
C157 C 0.37762 0.00539 0.54585 0.0
C158 C 0.37407 0.06103 0.50487 0.0
C159 C 0.30142 0.98778 0.54919 0.0
C160 C 0.26149 0.00593 0.53058 0.0
H161 H 0.19232 0.2373 0.85363 0.0
H162 H 0.22871 0.3118 0.77569 0.0
H163 H 0.30023 0.44984 0.79299 0.0
H164 H 0.37044 0.54703 0.83053 0.0
H165 H 0.33032 0.4706 0.90842 0.0
H166 H 0.2406 0.33614 0.8909 0.0
C167 C 0.21419 0.28395 0.84046 0.0
C168 C 0.20634 0.26483 0.8135 0.0
C169 C 0.2551 0.3628 0.85055 0.0
C170 C 0.23407 0.32535 0.79653 0.0
C171 C 0.27547 0.40419 0.80644 0.0
C172 C 0.34043 0.50133 0.84369 0.0
C173 C 0.3587 0.51894 0.87075 0.0
C174 C 0.28907 0.42346 0.83346 0.0
C175 C 0.31825 0.4591 0.88751 0.0
C176 C 0.26719 0.38175 0.87751 0.0
H177 H 0.88954 0.97575 0.70608 0.0
H178 H 0.07932 0.19394 0.68295 0.0
H179 H 0.99292 0.20075 0.65028 0.0
H180 H 0.8636 0.1495 0.62962 0.0
H181 H 0.6713 0.93176 0.65138 0.0
H182 H 0.75874 0.9193 0.68292 0.0
C183 C 0.91195 0.02457 0.69381 0.0
C184 C 0.99097 0.08463 0.69721 0.0
C185 C 0.86161 0.02817 0.67478 0.0
C186 C 0.01902 0.14705 0.68095 0.0
C187 C 0.96958 0.15109 0.6622 0.0
C188 C 0.8406 0.09891 0.64114 0.0
C189 C 0.7609 0.04198 0.63833 0.0
C190 C 0.89081 0.09263 0.65916 0.0
C191 C 0.73246 0.97631 0.65314 0.0
C192 C 0.7824 0.96954 0.67128 0.0
H193 H 0.95388 0.82759 0.04533 0.0
H194 H 0.93914 0.03425 0.03605 0.0
H195 H 0.82116 0.95678 1.00676 0.0
H196 H 0.7284 0.83096 0.98089 0.0
H197 H 0.74641 0.62625 0.99227 0.0
H198 H 0.85625 0.70219 0.02358 0.0
C199 C 0.92444 0.85559 0.03709 0.0
C200 C 0.95544 0.93643 0.04252 0.0
C201 C 0.85736 0.81104 0.02043 0.0
C202 C 0.91614 0.97184 0.0321 0.0
C203 C 0.84904 0.92767 0.01525 0.0
C204 C 0.75598 0.80303 0.99044 0.0
C205 C 0.72965 0.72321 0.9838 0.0
C206 C 0.81999 0.84734 1.00879 0.0
C207 C 0.76568 0.68773 0.9966 0.0
C208 C 0.82875 0.73106 0.01462 0.0
H209 H 0.1468 0.91937 0.35089 0.0
H210 H 0.9275 0.887 0.37242 0.0
H211 H 0.85865 0.76109 0.34616 0.0
H212 H 0.861 0.66141 0.31687 0.0
H213 H 0.08081 0.68987 0.29803 0.0
H214 H 0.14918 0.81643 0.32329 0.0
C215 C 0.08387 0.88497 0.34977 0.0
C216 C 0.04228 0.91296 0.36343 0.0
C217 C 0.04483 0.81213 0.33503 0.0
C218 C 0.96087 0.86694 0.36209 0.0
C219 C 0.92153 0.795 0.34706 0.0
C220 C 0.92394 0.695 0.31826 0.0
C221 C 0.96545 0.66633 0.30483 0.0
C222 C 0.96296 0.76712 0.33343 0.0
C223 C 0.04696 0.71072 0.30733 0.0
C224 C 0.08626 0.7832 0.32202 0.0
H225 H 0.2831 0.11025 0.70361 0.0
H226 H 0.33037 0.97102 0.7546 0.0
H227 H 0.42469 0.9733 0.72588 0.0
H228 H 0.49283 0.01289 0.68636 0.0
H229 H 0.4517 0.15542 0.63514 0.0
H230 H 0.35766 0.15572 0.66411 0.0
C231 C 0.31371 0.07998 0.70822 0.0
C232 C 0.29916 0.03978 0.73108 0.0
C233 C 0.36986 0.08321 0.69182 0.0
C234 C 0.34031 1.00211 0.73711 0.0
C235 C 0.39448 1.00358 0.72074 0.0
C236 C 0.46389 0.04474 0.68159 0.0
C237 C 0.47926 0.08401 0.65861 0.0
C238 C 0.40984 0.04402 0.69814 0.0
C239 C 0.44155 0.12535 0.65285 0.0
C240 C 0.38714 0.12479 0.66928 0.0
H241 H 0.35834 0.16912 0.01395 0.0
H242 H 0.30645 0.332 0.05326 0.0
H243 H 0.37437 0.42747 0.02144 0.0
H244 H 0.44245 0.462 0.98141 0.0
H245 H 0.49363 0.29921 0.94171 0.0
H246 H 0.43138 0.20602 0.97479 0.0
C247 C 0.36245 0.22579 0.01579 0.0
C248 C 0.32694 0.24308 0.03604 0.0
C249 C 0.40065 0.28001 0.99719 0.0
C250 C 0.33309 0.31694 0.03797 0.0
C251 C 0.37164 0.37147 0.01968 0.0
C252 C 0.44006 0.40611 0.97989 0.0
C253 C 0.47218 0.38742 0.95888 0.0
C254 C 0.40448 0.35309 0.99899 0.0
C255 C 0.46915 0.31505 0.95753 0.0
C256 C 0.43363 0.26179 0.97648 0.0
H257 H 0.25033 0.36085 0.3587 0.0
H258 H 0.05614 0.28317 0.40655 0.0
H259 H 0.0233 0.37326 0.38736 0.0
H260 H 0.04172 0.46457 0.35418 0.0
H261 H 0.23426 0.54176 0.30572 0.0
H262 H 0.27616 0.46248 0.32823 0.0
C263 C 0.20145 0.36433 0.36521 0.0
C264 C 0.1554 0.31439 0.38391 0.0
C265 C 0.18221 0.41602 0.35387 0.0
C266 C 0.09249 0.3203 0.39213 0.0
C267 C 0.07344 0.3718 0.3811 0.0
C268 C 0.0935 0.46498 0.34873 0.0
C269 C 0.13424 0.50857 0.32808 0.0
C270 C 0.11669 0.41848 0.36152 0.0
C271 C 0.20162 0.5088 0.3215 0.0
C272 C 0.22541 0.46304 0.33428 0.0
loop_
_geom_bond_atom_site_label_1
_geom_bond_atom_site_label_2
_geom_bond_distance
_geom_bond_site_symmetry_2
_ccdc_geom_bond_type
Zn0 O3 2.031 1_545 S
Zn0 O5 2.049 . S
Zn0 O10 2.067 1_545 S
Zn1 O2 1.962 . S
Zn1 O4 1.986 . S
Zn1 O6 1.996 . S
Zn1 O9 1.943 . S
O2 Zn1 1.962 . S
O2 C7 1.254 1_545 S
O3 Zn0 2.031 1_565 S
O3 C7 1.269 . S
O4 Zn1 1.986 . S
O4 C11 1.262 . S
O5 Zn0 2.049 . S
O5 C13 1.260 . S
O6 Zn1 1.996 . S
O6 C13 1.257 . S
C7 O2 1.254 1_565 S
C7 O3 1.269 . S
C8 O9 1.249 . S
C8 O10 1.270 1_545 S
O9 Zn1 1.943 . S
O9 C8 1.249 . S
O10 Zn0 2.067 1_565 S
O10 C8 1.270 1_565 S
C11 O4 1.262 . S
C11 O12 1.232 . S
O12 C11 1.232 . S
C13 O5 1.260 . S
C13 O6 1.257 . S
Zn14 O17 2.031 . S
Zn14 O19 2.049 . S
Zn14 O24 2.067 . S
Zn15 O16 1.962 . S
Zn15 O18 1.986 1_455 S
Zn15 O20 1.996 . S
Zn15 O23 1.943 . S
O16 Zn15 1.962 . S
O16 C21 1.254 . S
O17 Zn14 2.031 . S
O17 C21 1.269 . S
O18 Zn15 1.986 1_655 S
O18 C25 1.262 . S
O19 Zn14 2.049 . S
O19 C27 1.260 . S
O20 Zn15 1.996 . S
O20 C27 1.257 . S
C21 O16 1.254 . S
C21 O17 1.269 . S
C22 O23 1.249 . S
C22 O24 1.270 . S
O23 Zn15 1.943 . S
O23 C22 1.249 . S
O24 Zn14 2.067 . S
O24 C22 1.270 . S
C25 O18 1.262 . S
C25 O26 1.232 . S
O26 C25 1.232 . S
C27 O19 1.260 . S
C27 O20 1.257 . S
Zn28 O31 2.031 1_565 S
Zn28 O33 2.049 . S
Zn28 O38 2.067 1_565 S
Zn29 O30 1.962 . S
Zn29 O32 1.986 1_455 S
Zn29 O34 1.996 1_545 S
Zn29 O37 1.943 . S
O30 Zn29 1.962 . S
O30 C35 1.254 . S
O31 Zn28 2.031 1_545 S
O31 C35 1.269 . S
O32 Zn29 1.986 1_655 S
O32 C39 1.262 . S
O33 Zn28 2.049 . S
O33 C41 1.260 1_455 S
O34 Zn29 1.996 1_565 S
O34 C41 1.257 1_455 S
C35 O30 1.254 . S
C35 O31 1.269 . S
C36 O37 1.249 . S
C36 O38 1.270 . S
O37 Zn29 1.943 . S
O37 C36 1.249 . S
O38 Zn28 2.067 1_545 S
O38 C36 1.270 . S
C39 O32 1.262 . S
C39 O40 1.232 1_655 S
O40 C39 1.232 1_455 S
C41 O33 1.260 1_655 S
C41 O34 1.257 1_655 S
Mg42 O49 2.141 . S
Mg42 O50 2.048 . S
Mg42 O51 2.048 . S
Mg42 O54 2.141 . S
C43 O44 1.313 . S
C43 O50 1.195 . S
O44 C43 1.313 . S
C45 O46 1.245 . S
C45 O54 1.289 . S
O46 C45 1.245 . S
C47 O48 1.245 . S
C47 O49 1.289 . S
O48 C47 1.245 . S
O49 Mg42 2.141 . S
O49 C47 1.289 . S
O50 Mg42 2.048 . S
O50 C43 1.195 . S
O51 Mg42 2.048 . S
O51 C52 1.195 . S
C52 O51 1.195 . S
C52 O53 1.313 . S
O53 C52 1.313 . S
O54 Mg42 2.141 . S
O54 C45 1.289 . S
Mg55 O62 2.141 . S
Mg55 O63 2.048 . S
Mg55 O64 2.048 . S
Mg55 O67 2.141 . S
C56 O57 1.314 1_545 S
C56 O63 1.195 . S
O57 C56 1.314 1_565 S
C58 O59 1.245 1_545 S
C58 O67 1.289 . S
O59 C58 1.245 1_565 S
C60 O61 1.245 1_545 S
C60 O62 1.289 . S
O61 C60 1.245 1_565 S
O62 Mg55 2.141 . S
O62 C60 1.289 . S
O63 Mg55 2.048 . S
O63 C56 1.195 . S
O64 Mg55 2.048 . S
O64 C65 1.195 . S
C65 O64 1.195 . S
C65 O66 1.314 1_545 S
O66 C65 1.314 1_565 S
O67 Mg55 2.141 . S
O67 C58 1.289 . S
Mg68 O75 2.141 . S
Mg68 O76 2.048 . S
Mg68 O77 2.048 . S
Mg68 O80 2.141 . S
C69 O70 1.313 . S
C69 O76 1.195 . S
O70 C69 1.313 . S
C71 O72 1.245 . S
C71 O80 1.289 . S
O72 C71 1.245 . S
C73 O74 1.245 . S
C73 O75 1.289 . S
O74 C73 1.245 . S
O75 Mg68 2.141 . S
O75 C73 1.289 . S
O76 Mg68 2.048 . S
O76 C69 1.195 . S
O77 Mg68 2.048 . S
O77 C78 1.195 . S
C78 O77 1.195 . S
C78 O79 1.313 . S
O79 C78 1.313 . S
O80 Mg68 2.141 . S
O80 C71 1.289 . S
H81 C87 0.930 . S
H82 C90 0.930 1_655 S
H83 C91 0.930 . S
H84 C92 0.930 1_655 S
H85 C95 0.930 . S
H86 C96 0.930 . S
C87 H81 0.930 . S
C87 C88 1.355 . S
C87 C89 1.415 . S
C88 C87 1.355 . S
C88 C90 1.419 . S
C89 C87 1.415 . S
C89 C94 1.425 . S
C89 C96 1.409 . S
C90 H82 0.930 1_455 S
C90 C88 1.419 . S
C90 C91 1.362 1_455 S
C91 H83 0.930 . S
C91 C90 1.362 1_655 S
C91 C94 1.409 1_655 S
C92 H84 0.930 1_455 S
C92 C93 1.355 . S
C92 C94 1.415 . S
C93 C92 1.355 . S
C93 C95 1.419 . S
C94 C89 1.425 . S
C94 C91 1.409 1_455 S
C94 C92 1.415 . S
C95 H85 0.930 . S
C95 C93 1.419 . S
C95 C96 1.362 . S
C96 H86 0.930 . S
C96 C89 1.409 . S
C96 C95 1.362 . S
H97 C103 0.930 . S
H98 C106 0.930 1_565 S
H99 C107 0.930 . S
H100 C108 0.930 . S
H101 C111 0.930 . S
H102 C112 0.930 . S
C103 H97 0.930 . S
C103 C104 1.355 . S
C103 C105 1.415 . S
C104 C103 1.355 . S
C104 C106 1.419 . S
C105 C103 1.415 . S
C105 C110 1.425 . S
C105 C112 1.409 . S
C106 H98 0.930 1_545 S
C106 C104 1.419 . S
C106 C107 1.362 1_545 S
C107 H99 0.930 . S
C107 C106 1.362 1_565 S
C107 C110 1.409 1_565 S
C108 H100 0.930 . S
C108 C109 1.355 . S
C108 C110 1.415 . S
C109 C108 1.355 . S
C109 C111 1.419 . S
C110 C105 1.425 . S
C110 C107 1.409 1_545 S
C110 C108 1.415 . S
C111 H101 0.930 . S
C111 C109 1.419 . S
C111 C112 1.362 . S
C112 H102 0.930 . S
C112 C105 1.409 . S
C112 C111 1.362 . S
H113 C119 0.930 . S
H114 C122 0.930 . S
H115 C123 0.930 . S
H116 C124 0.930 . S
H117 C127 0.930 . S
H118 C128 0.930 . S
C119 H113 0.930 . S
C119 C120 1.355 . S
C119 C121 1.415 . S
C120 C119 1.355 . S
C120 C122 1.419 . S
C121 C119 1.415 . S
C121 C126 1.425 . S
C121 C128 1.409 . S
C122 H114 0.930 . S
C122 C120 1.419 . S
C122 C123 1.362 . S
C123 H115 0.930 . S
C123 C122 1.362 . S
C123 C126 1.409 . S
C124 H116 0.930 . S
C124 C125 1.355 . S
C124 C126 1.415 . S
C125 C124 1.355 . S
C125 C127 1.419 . S
C126 C121 1.425 . S
C126 C123 1.409 . S
C126 C124 1.415 . S
C127 H117 0.930 . S
C127 C125 1.419 . S
C127 C128 1.362 . S
C128 H118 0.930 . S
C128 C121 1.409 . S
C128 C127 1.362 . S
H129 C135 0.930 . S
H130 C138 0.930 . S
H131 C139 0.930 . S
H132 C140 0.930 . S
H133 C143 0.930 1_655 S
H134 C144 0.930 1_655 S
C135 H129 0.930 . S
C135 C136 1.355 . S
C135 C137 1.415 . S
C136 C135 1.355 . S
C136 C138 1.419 . S
C137 C135 1.415 . S
C137 C142 1.425 . S
C137 C144 1.409 . S
C138 H130 0.930 . S
C138 C136 1.419 . S
C138 C139 1.362 . S
C139 H131 0.930 . S
C139 C138 1.362 . S
C139 C142 1.409 . S
C140 H132 0.930 . S
C140 C141 1.355 . S
C140 C142 1.415 . S
C141 C140 1.355 . S
C141 C143 1.419 . S
C142 C137 1.425 . S
C142 C139 1.409 . S
C142 C140 1.415 . S
C143 H133 0.930 1_455 S
C143 C141 1.419 . S
C143 C144 1.362 . S
C144 H134 0.930 1_455 S
C144 C137 1.409 . S
C144 C143 1.362 . S
H145 C151 0.930 . S
H146 C154 0.930 . S
H147 C155 0.930 . S
H148 C156 0.930 . S
H149 C159 0.930 . S
H150 C160 0.930 . S
C151 H145 0.930 . S
C151 C152 1.355 . S
C151 C153 1.415 . S
C152 C151 1.355 . S
C152 C154 1.419 . S
C153 C151 1.415 . S
C153 C158 1.425 . S
C153 C160 1.409 . S
C154 H146 0.930 . S
C154 C152 1.419 . S
C154 C155 1.362 . S
C155 H147 0.930 . S
C155 C154 1.362 . S
C155 C158 1.409 . S
C156 H148 0.930 . S
C156 C157 1.355 . S
C156 C158 1.415 . S
C157 C156 1.355 . S
C157 C159 1.419 . S
C158 C153 1.425 . S
C158 C155 1.409 . S
C158 C156 1.415 . S
C159 H149 0.930 . S
C159 C157 1.419 . S
C159 C160 1.362 . S
C160 H150 0.930 . S
C160 C153 1.409 . S
C160 C159 1.362 . S
H161 C167 0.930 . S
H162 C170 0.930 . S
H163 C171 0.930 . S
H164 C172 0.930 . S
H165 C175 0.930 . S
H166 C176 0.930 . S
C167 H161 0.930 . S
C167 C168 1.355 . S
C167 C169 1.415 . S
C168 C167 1.355 . S
C168 C170 1.419 . S
C169 C167 1.415 . S
C169 C174 1.425 . S
C169 C176 1.409 . S
C170 H162 0.930 . S
C170 C168 1.419 . S
C170 C171 1.362 . S
C171 H163 0.930 . S
C171 C170 1.362 . S
C171 C174 1.409 . S
C172 H164 0.930 . S
C172 C173 1.355 . S
C172 C174 1.415 . S
C173 C172 1.355 . S
C173 C175 1.419 . S
C174 C169 1.425 . S
C174 C171 1.409 . S
C174 C172 1.415 . S
C175 H165 0.930 . S
C175 C173 1.419 . S
C175 C176 1.362 . S
C176 H166 0.930 . S
C176 C169 1.409 . S
C176 C175 1.362 . S
H177 C183 0.930 . S
H178 C186 0.930 . S
H179 C187 0.930 . S
H180 C188 0.930 . S
H181 C191 0.930 . S
H182 C192 0.930 . S
C183 H177 0.930 . S
C183 C184 1.355 . S
C183 C185 1.415 . S
C184 C183 1.355 . S
C184 C186 1.419 . S
C185 C183 1.415 . S
C185 C190 1.425 . S
C185 C192 1.409 . S
C186 H178 0.930 . S
C186 C184 1.419 . S
C186 C187 1.362 . S
C187 H179 0.930 . S
C187 C186 1.362 . S
C187 C190 1.409 . S
C188 H180 0.930 . S
C188 C189 1.355 . S
C188 C190 1.415 . S
C189 C188 1.355 . S
C189 C191 1.419 . S
C190 C185 1.425 . S
C190 C187 1.409 . S
C190 C188 1.415 . S
C191 H181 0.930 . S
C191 C189 1.419 . S
C191 C192 1.362 . S
C192 H182 0.930 . S
C192 C185 1.409 . S
C192 C191 1.362 . S
H193 C199 0.930 1_455 S
H194 C202 0.932 . S
H195 C203 0.930 . S
H196 C204 0.930 . S
H197 C207 0.930 . S
H198 C208 0.943 . S
C199 H193 0.930 1_655 S
C199 C200 1.355 . S
C199 C201 1.415 . S
C200 C199 1.355 . S
C200 C202 1.419 . S
C201 C199 1.415 . S
C201 C206 1.425 . S
C201 C208 1.422 . S
C202 H194 0.932 . S
C202 C200 1.419 . S
C202 C203 1.362 . S
C203 H195 0.930 . S
C203 C202 1.362 . S
C203 C206 1.409 . S
C204 H196 0.930 . S
C204 C205 1.355 . S
C204 C206 1.415 1_556 S
C205 C204 1.355 . S
C205 C207 1.419 . S
C206 C201 1.425 . S
C206 C203 1.409 . S
C206 C204 1.415 1_554 S
C207 H197 0.930 . S
C207 C205 1.419 . S
C207 C208 1.338 1_556 S
C208 H198 0.943 . S
C208 C201 1.422 . S
C208 C207 1.338 1_554 S
H209 C215 0.930 . S
H210 C218 0.930 . S
H211 C219 0.930 . S
H212 C220 0.930 . S
H213 C223 0.930 . S
H214 C224 0.930 . S
C215 H209 0.930 . S
C215 C216 1.355 . S
C215 C217 1.415 . S
C216 C215 1.355 . S
C216 C218 1.419 1_455 S
C217 C215 1.415 . S
C217 C222 1.425 . S
C217 C224 1.409 . S
C218 H210 0.930 . S
C218 C216 1.419 1_655 S
C218 C219 1.362 . S
C219 H211 0.930 . S
C219 C218 1.362 . S
C219 C222 1.409 1_655 S
C220 H212 0.930 . S
C220 C221 1.355 . S
C220 C222 1.415 . S
C221 C220 1.355 . S
C221 C223 1.419 . S
C222 C217 1.425 . S
C222 C219 1.409 1_455 S
C222 C220 1.415 . S
C223 H213 0.930 . S
C223 C221 1.419 . S
C223 C224 1.362 . S
C224 H214 0.930 . S
C224 C217 1.409 . S
C224 C223 1.362 . S
H225 C231 0.930 . S
H226 C234 0.930 . S
H227 C235 0.930 . S
H228 C236 0.930 1_565 S
H229 C239 0.930 . S
H230 C240 0.930 . S
C231 H225 0.930 . S
C231 C232 1.355 . S
C231 C233 1.415 . S
C232 C231 1.355 . S
C232 C234 1.419 1_545 S
C233 C231 1.415 . S
C233 C238 1.425 . S
C233 C240 1.409 . S
C234 H226 0.930 . S
C234 C232 1.419 1_565 S
C234 C235 1.362 . S
C235 H227 0.930 . S
C235 C234 1.362 . S
C235 C238 1.409 1_565 S
C236 H228 0.930 1_545 S
C236 C237 1.355 . S
C236 C238 1.415 . S
C237 C236 1.355 . S
C237 C239 1.419 . S
C238 C233 1.425 . S
C238 C235 1.409 1_545 S
C238 C236 1.415 . S
C239 H229 0.930 . S
C239 C237 1.419 . S
C239 C240 1.362 . S
C240 H230 0.930 . S
C240 C233 1.409 . S
C240 C239 1.362 . S
H241 C247 0.930 . S
H242 C250 0.930 . S
H243 C251 0.930 1_556 S
H244 C252 0.930 . S
H245 C255 0.930 . S
H246 C256 0.930 . S
C247 H241 0.930 . S
C247 C248 1.355 . S
C247 C249 1.415 . S
C248 C247 1.355 . S
C248 C250 1.419 . S
C249 C247 1.415 . S
C249 C254 1.425 1_554 S
C249 C256 1.409 . S
C250 H242 0.930 . S
C250 C248 1.419 . S
C250 C251 1.362 . S
C251 H243 0.930 1_554 S
C251 C250 1.362 . S
C251 C254 1.409 1_554 S
C252 H244 0.930 . S
C252 C253 1.355 . S
C252 C254 1.415 . S
C253 C252 1.355 . S
C253 C255 1.419 . S
C254 C249 1.425 1_556 S
C254 C251 1.409 1_556 S
C254 C252 1.415 . S
C255 H245 0.930 . S
C255 C253 1.419 . S
C255 C256 1.362 1_556 S
C256 H246 0.930 . S
C256 C249 1.409 . S
C256 C255 1.362 1_554 S
H257 C263 0.930 . S
H258 C266 0.930 . S
H259 C267 0.930 1_655 S
H260 C268 0.930 . S
H261 C271 0.930 . S
H262 C272 0.930 . S
C263 H257 0.930 . S
C263 C264 1.355 . S
C263 C265 1.415 . S
C264 C263 1.355 . S
C264 C266 1.419 . S
C265 C263 1.415 . S
C265 C270 1.425 . S
C265 C272 1.409 . S
C266 H258 0.930 . S
C266 C264 1.419 . S
C266 C267 1.362 . S
C267 H259 0.930 1_455 S
C267 C266 1.362 . S
C267 C270 1.409 . S
C268 H260 0.930 . S
C268 C269 1.355 . S
C268 C270 1.415 . S
C269 C268 1.355 . S
C269 C271 1.419 . S
C270 C265 1.425 . S
C270 C267 1.409 . S
C270 C268 1.415 . S
C271 H261 0.930 . S
C271 C269 1.419 . S
C271 C272 1.362 . S
C272 H262 0.930 . S
C272 C265 1.409 . S
C272 C271 1.362 . S
C93 C47 1.318 . S
C88 C11 1.297 . S
C104 C25 1.429 . S
C109 C65 1.436 . S
C120 C41 1.362 . S
C125 C78 1.452 . S
C136 C7 1.368 . S
C141 C45 1.347 . S
C157 C56 1.468 . S
C152 C21 1.473 . S
C168 C36 1.451 . S
C173 C69 1.484 . S
C189 C58 1.356 . S
C184 C39 1.308 . S
C200 C8 1.361 1_665 S
C205 C71 1.409 . S
C221 C52 1.524 . S
C216 C22 1.436 1_565 S
C237 C60 1.407 . S
C232 C35 1.409 . S
C253 C73 1.355 . S
C248 C13 1.350 . S
C264 C27 1.436 . S
C269 C43 1.484 . S
