# Generated by pormake.
# Topology wbl, (4,4)-cn, num edge types: 1
# Building blocks:
#     Node 0, Type 0, BuildingBlock: MUDLON_clean_sbu_0, # of connection points: 4
#     Node 1, Type 0, BuildingBlock: MUDLON_clean_sbu_0, # of connection points: 4
#     Node 2, Type 0, BuildingBlock: MUDLON_clean_sbu_0, # of connection points: 4
#     Node 3, Type 0, BuildingBlock: MUDLON_clean_sbu_0, # of connection points: 4
#     Node 4, Type 0, BuildingBlock: MUDLON_clean_sbu_0, # of connection points: 4
#     Node 5, Type 0, BuildingBlock: MUDLON_clean_sbu_0, # of connection points: 4
#     Node 6, Type 0, BuildingBlock: MUDLON_clean_sbu_0, # of connection points: 4
#     Node 7, Type 0, BuildingBlock: MUDLON_clean_sbu_0, # of connection points: 4
#     Node 8, Type 1, BuildingBlock: TATPOV_clean_sbu_0, # of connection points: 4
#     Node 9, Type 1, BuildingBlock: TATPOV_clean_sbu_0, # of connection points: 4
#     Node 10, Type 1, BuildingBlock: TATPOV_clean_sbu_0, # of connection points: 4
#     Node 11, Type 1, BuildingBlock: TATPOV_clean_sbu_0, # of connection points: 4
#     Node 12, Type 1, BuildingBlock: TATPOV_clean_sbu_0, # of connection points: 4
#     Node 13, Type 1, BuildingBlock: TATPOV_clean_sbu_0, # of connection points: 4
#     Node 14, Type 1, BuildingBlock: TATPOV_clean_sbu_0, # of connection points: 4
#     Node 15, Type 1, BuildingBlock: TATPOV_clean_sbu_0, # of connection points: 4
#     Edge 16, Type (0, 1), BuildingBlock: ZUJKAS_clean_linker_0, # of connection points: 2
#     Edge 17, Type (0, 1), BuildingBlock: ZUJKAS_clean_linker_0, # of connection points: 2
#     Edge 18, Type (0, 1), BuildingBlock: ZUJKAS_clean_linker_0, # of connection points: 2
#     Edge 19, Type (0, 1), BuildingBlock: ZUJKAS_clean_linker_0, # of connection points: 2
#     Edge 20, Type (0, 1), BuildingBlock: ZUJKAS_clean_linker_0, # of connection points: 2
#     Edge 21, Type (0, 1), BuildingBlock: ZUJKAS_clean_linker_0, # of connection points: 2
#     Edge 22, Type (0, 1), BuildingBlock: ZUJKAS_clean_linker_0, # of connection points: 2
#     Edge 23, Type (0, 1), BuildingBlock: ZUJKAS_clean_linker_0, # of connection points: 2
#     Edge 24, Type (0, 1), BuildingBlock: ZUJKAS_clean_linker_0, # of connection points: 2
#     Edge 25, Type (0, 1), BuildingBlock: ZUJKAS_clean_linker_0, # of connection points: 2
#     Edge 26, Type (0, 1), BuildingBlock: ZUJKAS_clean_linker_0, # of connection points: 2
#     Edge 27, Type (0, 1), BuildingBlock: ZUJKAS_clean_linker_0, # of connection points: 2
#     Edge 28, Type (0, 1), BuildingBlock: ZUJKAS_clean_linker_0, # of connection points: 2
#     Edge 29, Type (0, 1), BuildingBlock: ZUJKAS_clean_linker_0, # of connection points: 2
#     Edge 30, Type (0, 1), BuildingBlock: ZUJKAS_clean_linker_0, # of connection points: 2
#     Edge 31, Type (0, 1), BuildingBlock: ZUJKAS_clean_linker_0, # of connection points: 2
#     Edge 32, Type (0, 1), BuildingBlock: ZUJKAS_clean_linker_0, # of connection points: 2
#     Edge 33, Type (0, 1), BuildingBlock: ZUJKAS_clean_linker_0, # of connection points: 2
#     Edge 34, Type (0, 1), BuildingBlock: ZUJKAS_clean_linker_0, # of connection points: 2
#     Edge 35, Type (0, 1), BuildingBlock: ZUJKAS_clean_linker_0, # of connection points: 2
#     Edge 36, Type (0, 1), BuildingBlock: ZUJKAS_clean_linker_0, # of connection points: 2
#     Edge 37, Type (0, 1), BuildingBlock: ZUJKAS_clean_linker_0, # of connection points: 2
#     Edge 38, Type (0, 1), BuildingBlock: ZUJKAS_clean_linker_0, # of connection points: 2
#     Edge 39, Type (0, 1), BuildingBlock: ZUJKAS_clean_linker_0, # of connection points: 2
#     Edge 40, Type (0, 1), BuildingBlock: ZUJKAS_clean_linker_0, # of connection points: 2
#     Edge 41, Type (0, 1), BuildingBlock: ZUJKAS_clean_linker_0, # of connection points: 2
#     Edge 42, Type (0, 1), BuildingBlock: ZUJKAS_clean_linker_0, # of connection points: 2
#     Edge 43, Type (0, 1), BuildingBlock: ZUJKAS_clean_linker_0, # of connection points: 2
#     Edge 44, Type (0, 1), BuildingBlock: ZUJKAS_clean_linker_0, # of connection points: 2
#     Edge 45, Type (0, 1), BuildingBlock: ZUJKAS_clean_linker_0, # of connection points: 2
#     Edge 46, Type (0, 1), BuildingBlock: ZUJKAS_clean_linker_0, # of connection points: 2
#     Edge 47, Type (0, 1), BuildingBlock: ZUJKAS_clean_linker_0, # of connection points: 2
# Relax obj value: 0.243
# Max RMSD: 0.231
# Mean RMSD: 0.173
data_MOF--net-wbl--node1-MUDLON_clean_sbu_0--node2-TATPOV_clean_sbu_0--edge1-ZUJKAS_clean_linker_0
_symmetry_space_group_name_H-M    P1
_symmetry_Int_Tables_number       1
_symmetry_cell_setting            triclinic
loop_
_symmetry_equiv_pos_as_xyz
'x, y, z'
_cell_length_a     44.69613
_cell_length_b     44.696484
_cell_length_c     95.242463
_cell_angle_alpha  91.228599
_cell_angle_beta   91.245288
_cell_angle_gamma 89.926265
loop_
_atom_site_label
_atom_site_type_symbol
_atom_site_fract_x
_atom_site_fract_y
_atom_site_fract_z
_atom_type_partial_charge
Mg0 Mg 0.18567 0.14122 0.34564 0.0
C1 C 0.19997 0.08501 0.36144 0.0
O2 O 0.22164 0.0839 0.35235 0.0
C3 C 0.12035 0.1462 0.33922 0.0
O4 O 0.12031 0.14025 0.35267 0.0
C5 C 0.22239 0.12349 0.3203 0.0
O6 O 0.19599 0.12476 0.314 0.0
O7 O 0.2248 0.13108 0.33321 0.0
O8 O 0.18028 0.10543 0.36041 0.0
O9 O 0.1897 0.18085 0.35908 0.0
C10 C 0.20106 0.17816 0.37134 0.0
O11 O 0.21436 0.15289 0.37454 0.0
O12 O 0.14522 0.14704 0.33301 0.0
Mg13 Mg 0.02896 0.67315 0.60571 0.0
C14 C 0.06743 0.64092 0.6272 0.0
O15 O 0.04421 0.62293 0.62738 0.0
C16 C 0.04329 0.62787 0.58264 0.0
O17 O 0.07063 0.63739 0.5854 0.0
C18 C 0.04512 0.7195 0.58445 0.0
O19 O 0.03805 0.69746 0.57566 0.0
O20 O 0.04063 0.71637 0.59747 0.0
O21 O 0.06757 0.6621 0.61852 0.0
O22 O 0.99305 0.67278 0.62066 0.0
C23 C 0.97187 0.65395 0.61918 0.0
O24 O 0.96945 0.63829 0.60738 0.0
O25 O 0.0217 0.63923 0.5894 0.0
Mg26 Mg 0.5203 0.48842 0.85927 0.0
C27 C 0.5487 0.51517 0.88577 0.0
O28 O 0.5565 0.48714 0.88754 0.0
C29 C 0.57442 0.49762 0.84103 0.0
O30 O 0.57935 0.51984 0.85003 0.0
C31 C 0.46193 0.5209 0.85917 0.0
O32 O 0.46928 0.52254 0.8726 0.0
O33 O 0.47843 0.50576 0.85094 0.0
O34 O 0.53563 0.52239 0.87435 0.0
O35 O 0.51603 0.448 0.87132 0.0
C36 C 0.53658 0.4284 0.87039 0.0
O37 O 0.55696 0.43146 0.86079 0.0
O38 O 0.55142 0.48133 0.84235 0.0
Mg39 Mg 0.64981 0.01277 0.10426 0.0
C40 C 0.65364 0.07439 0.11759 0.0
O41 O 0.67137 0.07864 0.107 0.0
C42 C 0.60598 0.98215 0.08442 0.0
O43 O 0.62635 0.98986 0.07544 0.0
C44 C 0.70224 0.03326 0.08607 0.0
O45 O 0.71892 0.02848 0.09732 0.0
O46 O 0.67438 0.02774 0.08628 0.0
O47 O 0.6389 0.05017 0.11798 0.0
O48 O 0.67281 0.98386 0.11891 0.0
C49 C 0.68836 0.99623 0.12876 0.0
O50 O 0.69708 0.02402 0.12729 0.0
O51 O 0.60958 0.98959 0.09729 0.0
Mg52 Mg 0.9989 0.64904 0.91903 0.0
C53 C 0.01833 0.70994 0.90906 0.0
O54 O 0.03494 0.70906 0.92058 0.0
C55 C 0.95577 0.6264 0.94009 0.0
O56 O 0.97974 0.62967 0.94818 0.0
C57 C 0.03591 0.66661 0.9453 0.0
O58 O 0.01441 0.68633 0.94707 0.0
O59 O 0.03477 0.64877 0.93473 0.0
O60 O 0.99918 0.68935 0.90664 0.0
O61 O 0.00823 0.61461 0.90348 0.0
C62 C 0.99878 0.58804 0.90477 0.0
O63 O 0.98525 0.58086 0.91633 0.0
O64 O 0.95638 0.63554 0.92755 0.0
Mg65 Mg 0.53107 0.49626 0.16764 0.0
C66 C 0.46669 0.50936 0.15946 0.0
O67 O 0.4675 0.52377 0.17164 0.0
C68 C 0.54043 0.47378 0.19706 0.0
O69 O 0.53282 0.50153 0.2001 0.0
C70 C 0.52709 0.56365 0.1688 0.0
O71 O 0.51947 0.55928 0.15552 0.0
O72 O 0.53429 0.54132 0.17619 0.0
O73 O 0.48886 0.49309 0.1561 0.0
O74 O 0.56475 0.4881 0.1521 0.0
C75 C 0.56179 0.46363 0.14517 0.0
O76 O 0.53955 0.44578 0.14812 0.0
O77 O 0.53927 0.46474 0.1843 0.0
Mg78 Mg 0.69137 0.01176 0.42989 0.0
C79 C 0.68677 0.07439 0.41846 0.0
O80 O 0.70108 0.08105 0.43031 0.0
C81 C 0.63776 0.02211 0.44839 0.0
O82 O 0.63299 0.04391 0.43958 0.0
C83 C 0.74107 0.0336 0.44905 0.0
O84 O 0.719 0.03376 0.45794 0.0
O85 O 0.73648 0.02294 0.43673 0.0
O86 O 0.67815 0.04763 0.41613 0.0
O87 O 0.68758 0.97225 0.41647 0.0
C88 C 0.66052 0.9677 0.41266 0.0
O89 O 0.63982 0.9855 0.41779 0.0
O90 O 0.6611 0.0061 0.44715 0.0
Mg91 Mg 0.18184 0.14271 0.67502 0.0
C92 C 0.24475 0.13611 0.66463 0.0
O93 O 0.24678 0.11831 0.67542 0.0
C94 C 0.13854 0.17444 0.6922 0.0
O95 O 0.12987 0.14636 0.69233 0.0
C96 C 0.19557 0.10678 0.70122 0.0
O97 O 0.19783 0.13356 0.7071 0.0
O98 O 0.18888 0.10432 0.68821 0.0
O99 O 0.22136 0.15198 0.66309 0.0
O100 O 0.14816 0.13257 0.659 0.0
C101 C 0.15555 0.12265 0.64696 0.0
O102 O 0.18354 0.11507 0.64489 0.0
O103 O 0.16279 0.18061 0.68617 0.0
Zn104 Zn 0.3817 0.74509 0.99732 0.0
Zn105 Zn 0.38572 0.70401 0.01762 0.0
O106 O 0.34115 0.70316 0.01167 0.0
O107 O 0.33743 0.73753 0.99552 0.0
O108 O 0.38814 0.67414 0.03318 0.0
O109 O 0.39737 0.77667 0.0109 0.0
O110 O 0.40107 0.74283 0.02731 0.0
C111 C 0.32537 0.71783 0.00289 0.0
C112 C 0.42133 0.69589 0.99064 0.0
O113 O 0.41392 0.68688 0.00269 0.0
O114 O 0.41053 0.72 0.98593 0.0
C115 C 0.37143 0.67732 0.04375 0.0
O116 O 0.35271 0.69999 0.04421 0.0
C117 C 0.40434 0.76968 0.02336 0.0
Zn118 Zn 0.46268 0.85058 0.28019 0.0
Zn119 Zn 0.49681 0.88643 0.26416 0.0
O120 O 0.46096 0.91401 0.26793 0.0
O121 O 0.43376 0.88583 0.28143 0.0
O122 O 0.52295 0.90803 0.25068 0.0
O123 O 0.45896 0.81941 0.26453 0.0
O124 O 0.48817 0.84834 0.25247 0.0
C125 C 0.4378 0.91037 0.27529 0.0
C126 C 0.52129 0.86363 0.29226 0.0
O127 O 0.52344 0.88013 0.28159 0.0
O128 O 0.49804 0.84799 0.29391 0.0
C129 C 0.54716 0.92188 0.25368 0.0
O130 O 0.55588 0.92517 0.26688 0.0
C131 C 0.47339 0.8242 0.25351 0.0
Zn132 Zn 0.31521 0.8948 0.50311 0.0
Zn133 Zn 0.31004 0.94607 0.51848 0.0
O134 O 0.3551 0.94036 0.51549 0.0
O135 O 0.36052 0.89769 0.50393 0.0
O136 O 0.30894 0.98122 0.53214 0.0
O137 O 0.29196 0.87181 0.51736 0.0
O138 O 0.28616 0.91449 0.52889 0.0
C139 C 0.37193 0.92088 0.50973 0.0
C140 C 0.28345 0.94418 0.48909 0.0
O141 O 0.28862 0.95903 0.50046 0.0
O142 O 0.29222 0.91724 0.48786 0.0
C143 C 0.32643 0.97961 0.54282 0.0
O144 O 0.34401 0.95617 0.54398 0.0
C145 C 0.28082 0.88659 0.52747 0.0
Zn146 Zn 0.28385 0.765 0.75878 0.0
Zn147 Zn 0.23382 0.76674 0.7743 0.0
O148 O 0.24085 0.81067 0.76953 0.0
O149 O 0.2807 0.80996 0.75637 0.0
O150 O 0.19839 0.76866 0.78704 0.0
O151 O 0.30727 0.74712 0.77492 0.0
O152 O 0.26537 0.74541 0.78657 0.0
C153 C 0.25975 0.82438 0.7622 0.0
C154 C 0.23374 0.73084 0.7468 0.0
O155 O 0.21964 0.74155 0.75725 0.0
O156 O 0.26122 0.73674 0.74532 0.0
C157 C 0.19897 0.78732 0.79731 0.0
O158 O 0.22221 0.80511 0.799 0.0
C159 C 0.29317 0.7395 0.78566 0.0
Zn160 Zn 0.94789 0.29463 0.52223 0.0
Zn161 Zn 0.99698 0.28734 0.50642 0.0
O162 O 0.9943 0.33287 0.51001 0.0
O163 O 0.95371 0.33944 0.52237 0.0
O164 O 0.03166 0.28286 0.49337 0.0
O165 O 0.92237 0.27362 0.50731 0.0
O166 O 0.96318 0.26596 0.49524 0.0
C167 C 0.97625 0.3502 0.51643 0.0
C168 C 0.99561 0.25917 0.53514 0.0
O169 O 0.00943 0.26436 0.52389 0.0
O170 O 0.96951 0.26956 0.53691 0.0
C171 C 0.03124 0.29771 0.48213 0.0
O172 O 0.00875 0.31599 0.4797 0.0
C173 C 0.93518 0.26228 0.49673 0.0
Zn174 Zn 0.87888 0.38017 0.76643 0.0
Zn175 Zn 0.88363 0.42913 0.75087 0.0
O176 O 0.83846 0.4252 0.7545 0.0
O177 O 0.834 0.38413 0.76659 0.0
O178 O 0.88496 0.46318 0.73726 0.0
O179 O 0.89955 0.3546 0.75205 0.0
O180 O 0.90629 0.39564 0.74019 0.0
C181 C 0.82216 0.40669 0.76087 0.0
C182 C 0.91253 0.42928 0.77993 0.0
O183 O 0.90622 0.44318 0.7687 0.0
O184 O 0.90388 0.40252 0.78132 0.0
C185 C 0.90355 0.48471 0.73788 0.0
O186 O 0.92342 0.48611 0.74824 0.0
C187 C 0.91059 0.36767 0.74171 0.0
Zn188 Zn 0.8007 0.34129 0.01893 0.0
Zn189 Zn 0.75094 0.34107 0.00215 0.0
O190 O 0.76018 0.29628 0.00409 0.0
O191 O 0.80108 0.29597 0.0174 0.0
O192 O 0.7163 0.34319 0.98835 0.0
O193 O 0.82275 0.36726 0.0054 0.0
O194 O 0.78122 0.36794 0.99263 0.0
C195 C 0.78061 0.28189 0.01063 0.0
C196 C 0.74758 0.36632 0.03201 0.0
O197 O 0.73495 0.35957 0.02025 0.0
O198 O 0.77526 0.36118 0.03399 0.0
C199 C 0.69343 0.32634 0.9874 0.0
O200 O 0.69062 0.30435 0.99622 0.0
C201 C 0.80811 0.37648 0.99481 0.0
Zn202 Zn 0.81181 0.27181 0.25028 0.0
Zn203 Zn 0.77981 0.24309 0.26952 0.0
O204 O 0.75986 0.28428 0.26837 0.0
O205 O 0.78666 0.30912 0.25344 0.0
O206 O 0.75826 0.22392 0.28534 0.0
O207 O 0.85056 0.2641 0.26102 0.0
O208 O 0.82377 0.24025 0.2763 0.0
C209 C 0.7646 0.30794 0.26155 0.0
C210 C 0.77757 0.22036 0.23929 0.0
O211 O 0.76935 0.21781 0.25194 0.0
O212 O 0.79571 0.24083 0.23614 0.0
C213 C 0.76 0.23731 0.29724 0.0
O214 O 0.77496 0.26257 0.29837 0.0
C215 C 0.84909 0.2491 0.27211 0.0
H216 H 0.27534 0.10469 0.33202 0.0
H217 H 0.31382 0.07428 0.32091 0.0
H218 H 0.2659 0.07885 0.2812 0.0
H219 H 0.22668 0.10858 0.29239 0.0
H220 H 0.27934 0.02324 0.28671 0.0
H221 H 0.38178 0.09038 0.29562 0.0
H222 H 0.36314 0.08482 0.31183 0.0
H223 H 0.34488 0.10579 0.29813 0.0
C224 C 0.27325 0.09979 0.32086 0.0
C225 C 0.24787 0.10903 0.3131 0.0
C226 C 0.29545 0.08252 0.31448 0.0
C227 C 0.29307 0.07458 0.30015 0.0
C228 C 0.26831 0.08478 0.29226 0.0
H229 H 0.43748 0.96583 0.26329 0.0
H230 H 0.40184 0.00676 0.26729 0.0
C231 C 0.24592 0.10181 0.29867 0.0
C232 C 0.31464 0.05307 0.29384 0.0
H233 H 0.38918 0.03723 0.29147 0.0
C234 C 0.30335 0.02659 0.28754 0.0
C235 C 0.346 0.0575 0.29468 0.0
C236 C 0.35962 0.08633 0.30029 0.0
C237 C 0.32249 0.00383 0.28276 0.0
C238 C 0.3538 0.00726 0.28465 0.0
C239 C 0.36517 0.03438 0.29023 0.0
C240 C 0.37489 0.98229 0.28175 0.0
C241 C 0.30889 0.97623 0.27582 0.0
C242 C 0.37176 0.95508 0.28864 0.0
C243 C 0.39187 0.93168 0.28632 0.0
C244 C 0.4159 0.93505 0.27719 0.0
C245 C 0.41916 0.96242 0.27034 0.0
C246 C 0.39886 0.98586 0.27263 0.0
H247 H 0.28673 0.98122 0.2709 0.0
H248 H 0.32367 0.96665 0.26765 0.0
H249 H 0.30544 0.95908 0.28388 0.0
H250 H 0.35396 0.95205 0.29601 0.0
H251 H 0.38879 0.91107 0.29189 0.0
H252 H 0.07341 0.76259 0.60072 0.0
H253 H 0.11153 0.79779 0.59332 0.0
H254 H 0.09835 0.76767 0.55032 0.0
H255 H 0.0602 0.73244 0.55758 0.0
H256 H 0.16418 0.77782 0.57994 0.0
H257 H 0.10177 0.85977 0.54761 0.0
H258 H 0.08375 0.83632 0.56013 0.0
H259 H 0.0934 0.82138 0.54315 0.0
C260 C 0.07806 0.76393 0.58963 0.0
C261 C 0.06384 0.74456 0.57974 0.0
C262 C 0.09993 0.78401 0.58544 0.0
C263 C 0.10766 0.7854 0.57128 0.0
C264 C 0.09242 0.76725 0.56129 0.0
H265 H 0.26742 0.82702 0.5288 0.0
H266 H 0.22655 0.80424 0.54142 0.0
C267 C 0.07067 0.74704 0.56547 0.0
C268 C 0.13368 0.80341 0.56711 0.0
H269 H 0.15488 0.85816 0.54497 0.0
C270 C 0.16213 0.79567 0.57244 0.0
C271 C 0.13091 0.82679 0.55741 0.0
C272 C 0.10079 0.83681 0.55182 0.0
C273 C 0.18803 0.80986 0.56785 0.0
C274 C 0.18537 0.8322 0.55763 0.0
C275 C 0.15684 0.84086 0.55276 0.0
C276 C 0.21194 0.84567 0.55124 0.0
C277 C 0.21808 0.80062 0.57384 0.0
C278 C 0.2174 0.87648 0.55269 0.0
C279 C 0.24086 0.88959 0.54554 0.0
C280 C 0.25898 0.87214 0.53664 0.0
C281 C 0.25395 0.8411 0.53557 0.0
C282 C 0.23065 0.82801 0.54281 0.0
H283 H 0.21589 0.78906 0.58397 0.0
H284 H 0.22895 0.78495 0.56632 0.0
H285 H 0.23296 0.82032 0.57549 0.0
H286 H 0.2031 0.89047 0.55912 0.0
H287 H 0.24402 0.91356 0.54656 0.0
H288 H 0.44451 0.52715 0.83166 0.0
H289 H 0.41062 0.56488 0.82205 0.0
H290 H 0.39146 0.5967 0.86396 0.0
H291 H 0.42557 0.55926 0.87369 0.0
H292 H 0.34936 0.57877 0.82636 0.0
H293 H 0.42562 0.67066 0.84458 0.0
H294 H 0.43702 0.63191 0.84424 0.0
H295 H 0.41335 0.64588 0.8579 0.0
C296 C 0.43279 0.54188 0.83886 0.0
C297 C 0.43804 0.54042 0.85344 0.0
C298 C 0.41342 0.56342 0.83334 0.0
C299 C 0.39901 0.58391 0.84229 0.0
C300 C 0.40283 0.58144 0.85687 0.0
H301 H 0.26842 0.71246 0.80825 0.0
H302 H 0.29239 0.67615 0.82379 0.0
C303 C 0.42221 0.55991 0.86241 0.0
C304 C 0.38139 0.60878 0.83625 0.0
H305 H 0.38178 0.68454 0.83223 0.0
C306 C 0.3562 0.60194 0.82775 0.0
C307 C 0.39066 0.63892 0.83798 0.0
C308 C 0.41826 0.64743 0.84657 0.0
C309 C 0.34028 0.62443 0.82072 0.0
C310 C 0.34965 0.65456 0.8224 0.0
C311 C 0.37452 0.66144 0.8311 0.0
C312 C 0.33568 0.67879 0.81417 0.0
C313 C 0.31435 0.61567 0.81108 0.0
C314 C 0.35245 0.69323 0.80405 0.0
C315 C 0.33893 0.71404 0.79522 0.0
C316 C 0.30835 0.72091 0.79637 0.0
C317 C 0.29198 0.70758 0.80703 0.0
C318 C 0.30556 0.68669 0.81587 0.0
H319 H 0.31349 0.59113 0.80898 0.0
H320 H 0.29308 0.62253 0.81602 0.0
H321 H 0.3158 0.6272 0.80091 0.0
H322 H 0.37579 0.68756 0.80263 0.0
H323 H 0.35226 0.72398 0.78718 0.0
H324 H 0.59298 0.96107 0.0579 0.0
H325 H 0.55358 0.92591 0.05059 0.0
H326 H 0.5226 0.92376 0.09312 0.0
H327 H 0.56186 0.9592 0.10056 0.0
H328 H 0.54775 0.8677 0.0619 0.0
H329 H 0.44538 0.93709 0.06885 0.0
H330 H 0.48218 0.95332 0.06752 0.0
H331 H 0.47147 0.9361 0.08349 0.0
C332 C 0.57761 0.95344 0.06569 0.0
C333 C 0.58061 0.96287 0.07981 0.0
C334 C 0.55513 0.93333 0.06149 0.0
C335 C 0.53515 0.92242 0.07131 0.0
C336 C 0.53758 0.93227 0.08536 0.0
H337 H 0.42962 0.76167 0.04954 0.0
H338 H 0.4587 0.79833 0.06362 0.0
C339 C 0.5601 0.95241 0.08959 0.0
C340 C 0.51305 0.89936 0.06688 0.0
H341 H 0.43838 0.88696 0.06121 0.0
C342 C 0.52381 0.87175 0.06186 0.0
C343 C 0.48191 0.90489 0.06685 0.0
C344 C 0.46938 0.93449 0.07187 0.0
C345 C 0.50427 0.8497 0.05642 0.0
C346 C 0.47312 0.85532 0.05622 0.0
C347 C 0.46228 0.88268 0.06154 0.0
C348 C 0.45196 0.83435 0.04907 0.0
C349 C 0.51722 0.82114 0.05035 0.0
C350 C 0.43755 0.84294 0.03658 0.0
C351 C 0.42095 0.82218 0.02855 0.0
C352 C 0.41839 0.79242 0.03289 0.0
C353 C 0.43136 0.78434 0.04586 0.0
C354 C 0.44803 0.8052 0.05389 0.0
H355 H 0.54184 0.82257 0.04913 0.0
H356 H 0.51253 0.80241 0.05743 0.0
H357 H 0.50674 0.8157 0.03993 0.0
H358 H 0.44027 0.86538 0.03271 0.0
H359 H 0.41101 0.82925 0.01869 0.0
H360 H 0.07874 0.62336 0.94743 0.0
H361 H 0.12524 0.62548 0.96136 0.0
H362 H 0.10001 0.71203 0.97823 0.0
H363 H 0.05305 0.70966 0.96464 0.0
H364 H 0.16725 0.66565 0.95745 0.0
H365 H 0.13391 0.67351 0.01298 0.0
H366 H 0.10825 0.66188 0.999 0.0
H367 H 0.1153 0.70103 0.00249 0.0
C368 C 0.08284 0.6426 0.95431 0.0
C369 C 0.06235 0.66645 0.95487 0.0
C370 C 0.10937 0.64373 0.9623 0.0
C371 C 0.11599 0.66875 0.97095 0.0
C372 C 0.09508 0.69214 0.97191 0.0
H373 H 0.28483 0.74901 0.98725 0.0
H374 H 0.23353 0.73484 0.98104 0.0
C375 C 0.06834 0.69089 0.96403 0.0
C376 C 0.14624 0.67215 0.97745 0.0
H377 H 0.18385 0.69064 0.00803 0.0
C378 C 0.17085 0.67061 0.96856 0.0
C379 C 0.15102 0.67837 0.99196 0.0
C380 C 0.12571 0.67848 0.00218 0.0
C381 C 0.1999 0.67641 0.97364 0.0
C382 C 0.20443 0.68458 0.98794 0.0
C383 C 0.18015 0.68477 0.99702 0.0
C384 C 0.23408 0.69463 0.99326 0.0
C385 C 0.22553 0.6743 0.96359 0.0
C386 C 0.25087 0.67725 0.00266 0.0
C387 C 0.28034 0.68533 0.0063 0.0
C388 C 0.29328 0.71089 0.00055 0.0
C389 C 0.27571 0.72899 0.99172 0.0
C390 C 0.24638 0.72096 0.98816 0.0
H391 H 0.21961 0.66039 0.95413 0.0
H392 H 0.23122 0.69707 0.96008 0.0
H393 H 0.24573 0.66464 0.96877 0.0
H394 H 0.2416 0.65689 0.00674 0.0
H395 H 0.29327 0.67101 0.01317 0.0
H396 H 0.53978 0.57951 0.19611 0.0
H397 H 0.52998 0.62745 0.20787 0.0
H398 H 0.49747 0.66346 0.16875 0.0
H399 H 0.50681 0.61531 0.15687 0.0
H400 H 0.55127 0.68491 0.20273 0.0
H401 H 0.42761 0.67741 0.19562 0.0
H402 H 0.45199 0.64574 0.19278 0.0
H403 H 0.44879 0.67426 0.17983 0.0
C404 C 0.53073 0.59764 0.18996 0.0
C405 C 0.52388 0.59353 0.17557 0.0
C406 C 0.52516 0.62503 0.1967 0.0
C407 C 0.51257 0.64879 0.18922 0.0
C408 C 0.50668 0.64518 0.17475 0.0
H409 H 0.50142 0.8275 0.22833 0.0
H410 H 0.5095 0.78688 0.21123 0.0
C411 C 0.51223 0.61773 0.16797 0.0
C412 C 0.50521 0.67704 0.19675 0.0
H413 H 0.44668 0.72053 0.20735 0.0
C414 C 0.52845 0.69289 0.20366 0.0
C415 C 0.47535 0.68708 0.19804 0.0
C416 C 0.4494 0.67019 0.19129 0.0
C417 C 0.52262 0.71833 0.21203 0.0
C418 C 0.49276 0.72844 0.2133 0.0
C419 C 0.46954 0.71283 0.20623 0.0
C420 C 0.48509 0.75393 0.22271 0.0
C421 C 0.54832 0.73345 0.21988 0.0
C422 C 0.46752 0.74915 0.23448 0.0
C423 C 0.46264 0.77235 0.24422 0.0
C424 C 0.47526 0.80075 0.24235 0.0
C425 C 0.49161 0.80583 0.23016 0.0
C426 C 0.49638 0.78262 0.2204 0.0
H427 H 0.56868 0.71916 0.22017 0.0
H428 H 0.554 0.75451 0.21459 0.0
H429 H 0.54212 0.73921 0.23084 0.0
H430 H 0.45849 0.72716 0.2364 0.0
H431 H 0.44985 0.7677 0.25346 0.0
H432 H 0.63913 0.97625 0.46703 0.0
H433 H 0.59762 0.95789 0.48081 0.0
H434 H 0.5418 0.02972 0.46587 0.0
H435 H 0.58302 0.04821 0.452 0.0
H436 H 0.55848 0.98673 0.50184 0.0
H437 H 0.49987 0.94997 0.45238 0.0
H438 H 0.53917 0.95931 0.45313 0.0
H439 H 0.51148 0.98848 0.45299 0.0
C440 C 0.61817 0.98842 0.46683 0.0
C441 C 0.61427 0.01349 0.45827 0.0
C442 C 0.59452 0.97792 0.47473 0.0
C443 C 0.56661 0.99223 0.47418 0.0
C444 C 0.56313 0.01819 0.46629 0.0
H445 H 0.40256 0.97136 0.51818 0.0
H446 H 0.4527 0.98595 0.51136 0.0
C447 C 0.58674 0.02874 0.45839 0.0
C448 C 0.54049 0.97879 0.48094 0.0
H449 H 0.47277 0.94664 0.47333 0.0
C450 C 0.53975 0.97782 0.49565 0.0
C451 C 0.51642 0.9667 0.4728 0.0
C452 C 0.51673 0.96585 0.45695 0.0
C453 C 0.51498 0.96585 0.50245 0.0
C454 C 0.49038 0.95485 0.49429 0.0
C455 C 0.49161 0.95512 0.47958 0.0
C456 C 0.46245 0.94405 0.5006 0.0
C457 C 0.51542 0.96492 0.51827 0.0
C458 C 0.45138 0.91546 0.497 0.0
C459 C 0.42258 0.90711 0.50077 0.0
C460 C 0.40421 0.9273 0.50816 0.0
C461 C 0.41608 0.95524 0.5125 0.0
C462 C 0.44487 0.96359 0.50868 0.0
H463 H 0.53865 0.9657 0.52266 0.0
H464 H 0.50322 0.98467 0.52249 0.0
H465 H 0.50428 0.94443 0.52196 0.0
H466 H 0.46457 0.90006 0.49074 0.0
H467 H 0.41422 0.8854 0.4973 0.0
H468 H 0.20755 0.10327 0.72951 0.0
H469 H 0.21822 0.05816 0.74291 0.0
H470 H 0.20848 0.00415 0.70502 0.0
H471 H 0.19729 0.04884 0.69162 0.0
H472 H 0.17872 0.98086 0.72723 0.0
H473 H 0.29594 0.00994 0.74271 0.0
H474 H 0.26826 0.03724 0.74755 0.0
H475 H 0.27526 0.02969 0.72931 0.0
C476 C 0.2077 0.08178 0.72403 0.0
C477 C 0.20166 0.07967 0.70948 0.0
C478 C 0.21397 0.05606 0.7317 0.0
C479 C 0.21457 0.02787 0.72493 0.0
C480 C 0.20821 0.0257 0.71045 0.0
H481 H 0.29144 0.85887 0.74441 0.0
H482 H 0.28018 0.90987 0.73731 0.0
C483 C 0.20184 0.05131 0.7028 0.0
C484 C 0.22145 0.00036 0.73281 0.0
H485 H 0.2769 0.96469 0.75118 0.0
C486 C 0.2001 0.97737 0.73256 0.0
C487 C 0.24947 0.99585 0.73964 0.0
C488 C 0.2737 0.01934 0.73977 0.0
C489 C 0.20619 0.9497 0.73869 0.0
C490 C 0.2342 0.94516 0.74555 0.0
C491 C 0.25536 0.96836 0.74604 0.0
C492 C 0.2428 0.91562 0.75118 0.0
C493 C 0.18306 0.92517 0.73722 0.0
C494 C 0.22617 0.9023 0.7617 0.0
C495 C 0.23241 0.87299 0.76572 0.0
C496 C 0.25561 0.85662 0.75939 0.0
C497 C 0.27333 0.87074 0.74946 0.0
C498 C 0.26696 0.89994 0.7454 0.0
H499 H 0.16579 0.93012 0.72903 0.0
H500 H 0.19372 0.9034 0.73451 0.0
H501 H 0.1716 0.92282 0.74735 0.0
H502 H 0.20786 0.91428 0.76653 0.0
H503 H 0.21852 0.8629 0.77351 0.0
H504 H 0.57021 0.45409 0.82043 0.0
H505 H 0.60832 0.4394 0.80354 0.0
H506 H 0.66616 0.5097 0.81976 0.0
H507 H 0.62827 0.52459 0.83672 0.0
H508 H 0.641 0.47483 0.78238 0.0
H509 H 0.7123 0.42838 0.8253 0.0
H510 H 0.673 0.4363 0.82738 0.0
H511 H 0.69973 0.46628 0.82797 0.0
C512 C 0.59092 0.46664 0.82033 0.0
C513 C 0.59634 0.49033 0.83002 0.0
C514 C 0.61259 0.45827 0.81063 0.0
C515 C 0.64005 0.47333 0.81051 0.0
C516 C 0.64512 0.49769 0.81979 0.0
H517 H 0.79274 0.45974 0.7568 0.0
H518 H 0.74497 0.47474 0.76683 0.0
C519 C 0.62344 0.50615 0.82946 0.0
C520 C 0.66422 0.46224 0.8014 0.0
H521 H 0.73276 0.42876 0.8027 0.0
C522 C 0.66108 0.46469 0.78677 0.0
C523 C 0.69011 0.44868 0.8072 0.0
C524 C 0.69405 0.44445 0.82281 0.0
C525 C 0.6836 0.45438 0.77777 0.0
C526 C 0.7098 0.44146 0.78362 0.0
C527 C 0.71262 0.43866 0.79824 0.0
C528 C 0.73512 0.43109 0.77498 0.0
C529 C 0.67909 0.45708 0.76211 0.0
C530 C 0.74503 0.4014 0.77589 0.0
C531 C 0.77239 0.3928 0.77027 0.0
C532 C 0.79043 0.41381 0.76366 0.0
C533 C 0.77936 0.44298 0.76179 0.0
C534 C 0.75198 0.45159 0.76749 0.0
H535 H 0.65513 0.46032 0.75918 0.0
H536 H 0.69175 0.47673 0.75852 0.0
H537 H 0.68757 0.43689 0.75648 0.0
H538 H 0.73233 0.38523 0.78163 0.0
H539 H 0.78014 0.37012 0.77181 0.0
H540 H 0.6743 0.04411 0.06091 0.0
H541 H 0.69092 0.07742 0.04266 0.0
H542 H 0.7737 0.09289 0.06575 0.0
H543 H 0.75744 0.05928 0.08401 0.0
H544 H 0.70144 0.1365 0.04894 0.0
H545 H 0.80209 0.08563 0.02529 0.0
H546 H 0.77581 0.06433 0.03521 0.0
H547 H 0.8037 0.08711 0.04415 0.0
C548 C 0.69635 0.05404 0.06197 0.0
C549 C 0.71444 0.04926 0.07399 0.0
C550 C 0.70583 0.07302 0.0515 0.0
C551 C 0.73362 0.08748 0.05278 0.0
C552 C 0.75243 0.08151 0.06439 0.0
H553 H 0.81667 0.24543 0.02628 0.0
H554 H 0.80535 0.19487 0.03361 0.0
C555 C 0.74299 0.06243 0.07488 0.0
C556 C 0.74092 0.11196 0.04317 0.0
H557 H 0.79479 0.13827 0.02175 0.0
C558 C 0.72157 0.13667 0.04277 0.0
C559 C 0.76729 0.11217 0.03523 0.0
C560 C 0.7883 0.08576 0.03486 0.0
C561 C 0.72851 0.16222 0.03522 0.0
C562 C 0.75525 0.16279 0.02753 0.0
C563 C 0.77422 0.1377 0.02756 0.0
C564 C 0.76514 0.19047 0.02068 0.0
C565 C 0.70793 0.18899 0.03624 0.0
C566 C 0.74721 0.20416 0.01036 0.0
C567 C 0.75341 0.23333 0.00624 0.0
C568 C 0.77789 0.2491 0.01227 0.0
C569 C 0.79745 0.23411 0.02153 0.0
C570 C 0.79107 0.20511 0.02572 0.0
H571 H 0.6919 0.18705 0.04493 0.0
H572 H 0.72094 0.20995 0.03793 0.0
H573 H 0.69477 0.19086 0.02629 0.0
H574 H 0.72747 0.19293 0.00608 0.0
H575 H 0.73809 0.24405 0.99896 0.0
H576 H 0.06352 0.143 0.34905 0.0
H577 H 0.01718 0.15921 0.33742 0.0
H578 H 0.06688 0.18487 0.30129 0.0
H579 H 0.11327 0.16807 0.3127 0.0
H580 H 0.00278 0.21514 0.32906 0.0
H581 H 0.9994 0.13684 0.28311 0.0
H582 H 0.02411 0.13141 0.29807 0.0
H583 H 0.03373 0.1575 0.28478 0.0
C584 C 0.06458 0.15174 0.33855 0.0
C585 C 0.0921 0.15415 0.33178 0.0
C586 C 0.03806 0.16105 0.33194 0.0
C587 C 0.03848 0.17292 0.31842 0.0
C588 C 0.06589 0.17515 0.31158 0.0
H589 H 0.90691 0.25773 0.26423 0.0
H590 H 0.95265 0.24008 0.27594 0.0
C591 C 0.09243 0.16567 0.31816 0.0
C592 C 0.01046 0.18432 0.3118 0.0
H593 H 0.96511 0.17767 0.28257 0.0
C594 C 0.99443 0.2068 0.31894 0.0
C595 C 0.99961 0.17343 0.29859 0.0
C596 C 0.01493 0.14826 0.29074 0.0
C597 C 0.96814 0.21903 0.31311 0.0
C598 C 0.95752 0.20836 0.29986 0.0
C599 C 0.97346 0.18587 0.29272 0.0
C600 C 0.92982 0.22016 0.2932 0.0
C601 C 0.9522 0.24368 0.32103 0.0
C602 C 0.90186 0.21485 0.29908 0.0
C603 C 0.87563 0.22483 0.2924 0.0
C604 C 0.87692 0.24032 0.27972 0.0
C605 C 0.90508 0.24599 0.274 0.0
C606 C 0.93125 0.23585 0.28065 0.0
H607 H 0.96642 0.25354 0.32965 0.0
H608 H 0.94522 0.26175 0.31383 0.0
H609 H 0.93174 0.23446 0.32571 0.0
H610 H 0.9003 0.20246 0.30869 0.0
H611 H 0.85434 0.22001 0.29708 0.0
H612 H 0.08395 0.59924 0.56595 0.0
H613 H 0.07496 0.55656 0.54988 0.0
H614 H 0.98142 0.55777 0.56009 0.0
H615 H 0.99004 0.60064 0.57593 0.0
H616 H 0.05498 0.5022 0.55731 0.0
H617 H 0.97664 0.54901 0.51777 0.0
H618 H 0.99848 0.57237 0.52981 0.0
H619 H 0.96418 0.55562 0.53534 0.0
C620 C 0.06139 0.59068 0.56462 0.0
C621 C 0.03772 0.60333 0.57223 0.0
C622 C 0.05629 0.56633 0.55542 0.0
C623 C 0.02744 0.55429 0.5536 0.0
C624 C 0.00371 0.56717 0.56103 0.0
H625 H 0.9414 0.39349 0.52847 0.0
H626 H 0.95592 0.44461 0.53501 0.0
C627 C 0.00875 0.59154 0.57019 0.0
C628 C 0.02251 0.52656 0.54504 0.0
H629 H 0.97725 0.49518 0.5194 0.0
C630 C 0.03843 0.50077 0.54882 0.0
C631 C 0.00089 0.52477 0.53397 0.0
C632 C 0.9843 0.55202 0.52889 0.0
C633 C 0.03215 0.4729 0.54239 0.0
C634 C 0.00963 0.47089 0.53174 0.0
C635 C 0.99449 0.49684 0.52757 0.0
C636 C 0.9997 0.44156 0.52585 0.0
C637 C 0.04855 0.44556 0.54754 0.0
C638 C 0.01912 0.42332 0.51806 0.0
C639 C 0.0109 0.39398 0.51429 0.0
C640 C 0.98312 0.38248 0.51829 0.0
C641 C 0.96305 0.40153 0.52533 0.0
C642 C 0.97126 0.4308 0.52905 0.0
H643 H 0.06163 0.45025 0.5574 0.0
H644 H 0.03256 0.42715 0.54944 0.0
H645 H 0.06428 0.43764 0.53941 0.0
H646 H 0.04102 0.43142 0.51533 0.0
H647 H 0.02682 0.37997 0.5088 0.0
H648 H 0.78381 0.05129 0.43085 0.0
H649 H 0.82399 0.08747 0.4356 0.0
H650 H 0.79998 0.09256 0.47918 0.0
H651 H 0.7597 0.0565 0.47456 0.0
H652 H 0.81143 0.14655 0.44655 0.0
H653 H 0.89285 0.08551 0.48016 0.0
H654 H 0.86572 0.06662 0.46877 0.0
H655 H 0.85464 0.08219 0.48541 0.0
C656 C 0.78751 0.05954 0.44152 0.0
C657 C 0.76849 0.0511 0.45234 0.0
C658 C 0.81042 0.08028 0.44419 0.0
C659 C 0.815 0.09251 0.45773 0.0
C660 C 0.79704 0.08304 0.46869 0.0
H661 H 0.87461 0.25479 0.49466 0.0
H662 H 0.84761 0.21442 0.48225 0.0
C663 C 0.77396 0.06251 0.46602 0.0
C664 C 0.83636 0.11739 0.46023 0.0
H665 H 0.8964 0.13901 0.48068 0.0
C666 C 0.83033 0.14482 0.45383 0.0
C667 C 0.86109 0.11494 0.46961 0.0
C668 C 0.86921 0.08566 0.4763 0.0
C669 C 0.84749 0.17035 0.45718 0.0
C670 C 0.87109 0.16831 0.46722 0.0
C671 C 0.87815 0.1405 0.47302 0.0
C672 C 0.887 0.19513 0.47283 0.0
C673 C 0.83983 0.19946 0.45023 0.0
C674 C 0.91804 0.1979 0.47144 0.0
C675 C 0.93356 0.2211 0.47846 0.0
C676 C 0.91831 0.24153 0.48719 0.0
C677 C 0.88702 0.23942 0.48803 0.0
C678 C 0.87152 0.21643 0.4809 0.0
H679 H 0.82703 0.19568 0.44022 0.0
H680 H 0.82578 0.21319 0.45736 0.0
H681 H 0.86037 0.21238 0.44808 0.0
H682 H 0.93035 0.18155 0.4653 0.0
H683 H 0.95768 0.22201 0.47764 0.0
H684 H 0.08675 0.16768 0.70627 0.0
H685 H 0.04943 0.20584 0.71161 0.0
H686 H 0.10565 0.27336 0.69419 0.0
H687 H 0.14351 0.23516 0.68886 0.0
H688 H 0.07814 0.29046 0.71995 0.0
H689 H 0.99571 0.24398 0.68112 0.0
H690 H 0.00999 0.21646 0.69298 0.0
H691 H 0.03488 0.23398 0.68105 0.0
C692 C 0.09138 0.19066 0.70366 0.0
C693 C 0.11799 0.19833 0.69701 0.0
C694 C 0.0699 0.2124 0.70663 0.0
C695 C 0.07446 0.24222 0.70295 0.0
C696 C 0.1016 0.25035 0.69695 0.0
H697 H 0.95059 0.39038 0.72326 0.0
H698 H 0.99069 0.36293 0.71139 0.0
C699 C 0.12322 0.22853 0.69396 0.0
C700 C 0.05061 0.26462 0.70541 0.0
H701 H 0.97643 0.27761 0.69873 0.0
C702 C 0.05604 0.28809 0.71513 0.0
C703 C 0.02191 0.26153 0.69898 0.0
C704 C 0.01529 0.2378 0.68784 0.0
C705 C 0.03289 0.30739 0.71931 0.0
C706 C 0.00379 0.3032 0.71345 0.0
C707 C 0.99876 0.28068 0.70321 0.0
C708 C 0.97771 0.31969 0.719 0.0
C709 C 0.03929 0.331 0.73053 0.0
C710 C 0.95648 0.30422 0.72665 0.0
C711 C 0.93361 0.31972 0.7334 0.0
C712 C 0.93143 0.35102 0.73255 0.0
C713 C 0.95166 0.36627 0.72413 0.0
C714 C 0.97471 0.3507 0.71743 0.0
H715 H 0.06204 0.32865 0.73532 0.0
H716 H 0.03755 0.35349 0.72586 0.0
H717 H 0.02258 0.32983 0.73896 0.0
H718 H 0.95835 0.28025 0.72791 0.0
H719 H 0.9183 0.30726 0.73972 0.0
H720 H 0.9448 0.60771 0.9665 0.0
H721 H 0.9126 0.5663 0.97297 0.0
H722 H 0.88091 0.55688 0.93003 0.0
H723 H 0.91312 0.59837 0.92342 0.0
H724 H 0.84798 0.55376 0.96865 0.0
H725 H 0.92417 0.47585 0.94012 0.0
H726 H 0.93492 0.51369 0.94492 0.0
H727 H 0.90895 0.50691 0.93058 0.0
C728 C 0.9305 0.59729 0.95848 0.0
C729 C 0.93173 0.60612 0.94443 0.0
C730 C 0.91212 0.57365 0.9622 0.0
C731 C 0.89482 0.55832 0.95192 0.0
C732 C 0.8944 0.56831 0.93806 0.0
H733 H 0.77991 0.40788 0.97399 0.0
H734 H 0.79922 0.45119 0.96177 0.0
C735 C 0.91266 0.59213 0.93434 0.0
C736 C 0.87946 0.53039 0.95562 0.0
H737 H 0.88547 0.45432 0.95279 0.0
C738 C 0.8558 0.532 0.96503 0.0
C739 C 0.8901 0.50212 0.95098 0.0
C740 C 0.91604 0.49928 0.94116 0.0
C741 C 0.84281 0.50594 0.97016 0.0
C742 C 0.85379 0.47768 0.9657 0.0
C743 C 0.87704 0.47607 0.95608 0.0
C744 C 0.843 0.4497 0.97184 0.0
C745 C 0.81829 0.50874 0.98075 0.0
C746 C 0.86165 0.43398 0.98114 0.0
C747 C 0.85075 0.40927 0.98815 0.0
C748 C 0.82101 0.39974 0.98591 0.0
C749 C 0.80289 0.41464 0.976 0.0
C750 C 0.8138 0.43948 0.96905 0.0
H751 H 0.81521 0.53219 0.98455 0.0
H752 H 0.79687 0.50086 0.97586 0.0
H753 H 0.82331 0.49448 0.98992 0.0
H754 H 0.88432 0.44153 0.98336 0.0
H755 H 0.86533 0.39825 0.99566 0.0
H756 H 0.56776 0.41955 0.19329 0.0
H757 H 0.59996 0.39364 0.21003 0.0
H758 H 0.57995 0.46007 0.24199 0.0
H759 H 0.54817 0.48669 0.22514 0.0
H760 H 0.63855 0.45259 0.24003 0.0
H761 H 0.58674 0.34108 0.24282 0.0
H762 H 0.59249 0.35044 0.22488 0.0
H763 H 0.56721 0.37256 0.23535 0.0
C764 C 0.56962 0.42834 0.20396 0.0
C765 C 0.55547 0.45529 0.20785 0.0
C766 C 0.58794 0.41335 0.21357 0.0
C767 C 0.59213 0.42468 0.22735 0.0
C768 C 0.57697 0.45085 0.23144 0.0
H769 H 0.71333 0.31212 0.27677 0.0
H770 H 0.67045 0.34475 0.27211 0.0
C771 C 0.55875 0.466 0.2218 0.0
C772 C 0.61481 0.41093 0.23684 0.0
H773 H 0.64014 0.34339 0.24812 0.0
C774 C 0.63857 0.4288 0.24206 0.0
C775 C 0.61464 0.38005 0.23979 0.0
C776 C 0.58869 0.36004 0.23554 0.0
C777 C 0.66313 0.41625 0.24925 0.0
C778 C 0.6643 0.38491 0.25097 0.0
C779 C 0.63955 0.36738 0.24665 0.0
C780 C 0.69192 0.36936 0.25581 0.0
C781 C 0.68779 0.43668 0.2547 0.0
C782 C 0.71863 0.37298 0.24853 0.0
C783 C 0.74326 0.35459 0.25126 0.0
C784 C 0.74153 0.33179 0.26116 0.0
C785 C 0.71542 0.32941 0.26906 0.0
C786 C 0.69083 0.34799 0.26638 0.0
H787 H 0.67885 0.45918 0.25751 0.0
H788 H 0.69943 0.42742 0.26406 0.0
H789 H 0.70437 0.43963 0.24633 0.0
H790 H 0.71988 0.38877 0.2401 0.0
H791 H 0.76292 0.35701 0.24493 0.0
H792 H 0.16324 0.08686 0.38413 0.0
H793 H 0.17145 0.06226 0.40662 0.0
H794 H 0.24901 0.01739 0.39016 0.0
H795 H 0.24114 0.04184 0.36768 0.0
H796 H 0.17899 0.99886 0.41409 0.0
H797 H 0.27962 0.06925 0.42481 0.0
H798 H 0.25175 0.07817 0.41153 0.0
H799 H 0.27915 0.04962 0.40814 0.0
C800 C 0.18175 0.07135 0.3852 0.0
C801 C 0.20175 0.06656 0.37415 0.0
C802 C 0.18639 0.05736 0.39806 0.0
C803 C 0.21111 0.03848 0.40007 0.0
C804 C 0.23006 0.03228 0.38884 0.0
H805 H 0.26692 0.91801 0.46395 0.0
H806 H 0.24558 0.94211 0.44331 0.0
C807 C 0.22544 0.04619 0.37598 0.0
C808 C 0.21828 0.02666 0.41413 0.0
H809 H 0.27161 0.0293 0.4403 0.0
C810 C 0.19911 0.00561 0.41989 0.0
C811 C 0.24423 0.03602 0.42175 0.0
C812 C 0.26479 0.05971 0.41634 0.0
C813 C 0.2059 0.99272 0.4329 0.0
C814 C 0.23266 0.00098 0.44019 0.0
C815 C 0.25118 0.0229 0.43465 0.0
C816 C 0.24287 0.98606 0.45318 0.0
C817 C 0.18443 0.97037 0.43872 0.0
C818 C 0.24874 0.00285 0.46555 0.0
C819 C 0.26117 0.98916 0.4774 0.0
C820 C 0.26822 0.95847 0.477 0.0
C821 C 0.26175 0.94167 0.46464 0.0
C822 C 0.2493 0.95535 0.45285 0.0
H823 H 0.16149 0.97318 0.43421 0.0
H824 H 0.19211 0.94741 0.43598 0.0
H825 H 0.18348 0.97251 0.45034 0.0
H826 H 0.24415 0.02665 0.46597 0.0
H827 H 0.2659 0.00275 0.48673 0.0
H828 H 0.10932 0.68341 0.63367 0.0
H829 H 0.14186 0.68649 0.65435 0.0
H830 H 0.11115 0.59997 0.66719 0.0
H831 H 0.07709 0.59739 0.64667 0.0
H832 H 0.1093 0.6366 0.68826 0.0
H833 H 0.21967 0.65162 0.6652 0.0
H834 H 0.19489 0.67918 0.65812 0.0
H835 H 0.18757 0.63995 0.65467 0.0
C836 C 0.10985 0.66469 0.6407 0.0
C837 C 0.09056 0.64014 0.63852 0.0
C838 C 0.12876 0.66638 0.65251 0.0
C839 C 0.12951 0.6432 0.66223 0.0
C840 C 0.11111 0.61806 0.6598 0.0
H841 H 0.257 0.68574 0.73078 0.0
H842 H 0.23194 0.65724 0.71175 0.0
C843 C 0.09172 0.61657 0.64806 0.0
C844 C 0.14711 0.64706 0.67555 0.0
H845 H 0.21332 0.67495 0.68845 0.0
C846 C 0.1323 0.64431 0.68832 0.0
C847 C 0.17738 0.65632 0.67577 0.0
C848 C 0.1958 0.65655 0.66268 0.0
C849 C 0.14622 0.65265 0.70116 0.0
C850 C 0.17526 0.6653 0.70117 0.0
C851 C 0.1908 0.66595 0.68851 0.0
C852 C 0.18927 0.67975 0.71389 0.0
C853 C 0.12947 0.64792 0.71452 0.0
C854 C 0.17363 0.70168 0.72161 0.0
C855 C 0.18771 0.71738 0.73274 0.0
C856 C 0.218 0.71222 0.73603 0.0
C857 C 0.23363 0.69021 0.72841 0.0
C858 C 0.21932 0.67393 0.71753 0.0
H859 H 0.11464 0.62802 0.71345 0.0
H860 H 0.14492 0.64482 0.72366 0.0
H861 H 0.11498 0.66762 0.71663 0.0
H862 H 0.15083 0.70749 0.71873 0.0
H863 H 0.17529 0.73451 0.73834 0.0
H864 H 0.53265 0.57423 0.88599 0.0
H865 H 0.52277 0.60582 0.90658 0.0
H866 H 0.55432 0.53585 0.93365 0.0
H867 H 0.56419 0.50393 0.9131 0.0
H868 H 0.49578 0.5546 0.93853 0.0
H869 H 0.57176 0.65213 0.93683 0.0
H870 H 0.5531 0.64393 0.92031 0.0
H871 H 0.57906 0.61728 0.92753 0.0
C872 C 0.5383 0.56582 0.8963 0.0
C873 C 0.54894 0.53644 0.8979 0.0
C874 C 0.5328 0.58401 0.90807 0.0
C875 C 0.53798 0.57323 0.92164 0.0
C876 C 0.55032 0.54461 0.92326 0.0
H877 H 0.45351 0.64598 0.99795 0.0
H878 H 0.48606 0.61568 0.98291 0.0
C879 C 0.55597 0.52642 0.91149 0.0
C880 C 0.52636 0.59005 0.93393 0.0
H881 H 0.52734 0.65859 0.95039 0.0
C882 C 0.50305 0.57713 0.94134 0.0
C883 C 0.53582 0.61944 0.93748 0.0
C884 C 0.56151 0.63394 0.93021 0.0
C885 C 0.48771 0.59343 0.95168 0.0
C886 C 0.49646 0.62326 0.9549 0.0
C887 C 0.52066 0.63573 0.9479 0.0
C888 C 0.47903 0.64269 0.96453 0.0
C889 C 0.46116 0.57916 0.95842 0.0
C890 C 0.46521 0.66849 0.95934 0.0
C891 C 0.44693 0.68598 0.96791 0.0
C892 C 0.442 0.67798 0.98188 0.0
C893 C 0.45657 0.65257 0.9872 0.0
C894 C 0.4751 0.63517 0.97861 0.0
H895 H 0.45351 0.55868 0.95258 0.0
H896 H 0.46749 0.5727 0.96926 0.0
H897 H 0.44211 0.59508 0.95902 0.0
H898 H 0.46796 0.67472 0.94851 0.0
H899 H 0.43617 0.70545 0.96347 0.0
H900 H 0.66117 0.9447 0.1368 0.0
H901 H 0.6472 0.9324 0.16057 0.0
H902 H 0.6988 0.00719 0.17708 0.0
H903 H 0.71219 0.0203 0.15323 0.0
H904 H 0.67365 0.9197 0.18567 0.0
H905 H 0.61514 0.02952 0.18881 0.0
H906 H 0.63176 0.01573 0.17287 0.0
H907 H 0.65485 0.03188 0.18675 0.0
C908 C 0.67018 0.95818 0.14548 0.0
C909 C 0.68728 0.98388 0.14306 0.0
C910 C 0.66212 0.95111 0.1591 0.0
C911 C 0.67117 0.96945 0.17056 0.0
C912 C 0.69083 0.99327 0.16834 0.0
H913 H 0.59887 0.95497 0.25579 0.0
H914 H 0.63255 0.96755 0.23674 0.0
C915 C 0.69871 0.00054 0.15469 0.0
C916 C 0.65762 0.96506 0.18445 0.0
H917 H 0.61001 0.99763 0.20791 0.0
C918 C 0.66007 0.93688 0.19062 0.0
C919 C 0.63964 0.98746 0.19086 0.0
C920 C 0.63489 0.01775 0.18445 0.0
C921 C 0.64443 0.93026 0.20279 0.0
C922 C 0.62597 0.95236 0.20893 0.0
C923 C 0.6244 0.98087 0.20315 0.0
C924 C 0.6058 0.94531 0.22048 0.0
C925 C 0.64692 0.89941 0.20882 0.0
C926 C 0.57947 0.92922 0.21751 0.0
C927 C 0.56009 0.92231 0.22826 0.0
C928 C 0.56679 0.93124 0.24223 0.0
C929 C 0.59308 0.94776 0.24515 0.0
C930 C 0.61236 0.9549 0.23432 0.0
H931 H 0.66578 0.88646 0.20431 0.0
H932 H 0.65004 0.90094 0.22042 0.0
H933 H 0.62584 0.88696 0.20653 0.0
H934 H 0.57398 0.92189 0.20684 0.0
H935 H 0.54012 0.9095 0.22563 0.0
H936 H 0.05534 0.75847 0.91093 0.0
H937 H 0.07936 0.78312 0.89149 0.0
H938 H 0.02713 0.72942 0.86187 0.0
H939 H 0.00242 0.70538 0.88119 0.0
H940 H 0.11401 0.75156 0.87454 0.0
H941 H 0.02781 0.80748 0.84187 0.0
H942 H 0.0209 0.79603 0.85957 0.0
H943 H 0.01807 0.7694 0.84514 0.0
C944 C 0.04824 0.75263 0.90027 0.0
C945 C 0.02719 0.72975 0.89761 0.0
C946 C 0.06202 0.76673 0.88917 0.0
C947 C 0.05506 0.7582 0.8752 0.0
C948 C 0.03248 0.73689 0.87252 0.0
H949 H 0.14903 0.75184 0.79771 0.0
H950 H 0.11263 0.74875 0.81648 0.0
C951 C 0.01846 0.72299 0.88362 0.0
C952 C 0.07458 0.76776 0.8637 0.0
H953 H 0.0742 0.79521 0.83047 0.0
C954 C 0.10533 0.76164 0.86502 0.0
C955 C 0.06325 0.78061 0.85121 0.0
C956 C 0.03073 0.78903 0.84941 0.0
C957 C 0.12487 0.76703 0.85406 0.0
C958 C 0.11344 0.77917 0.84146 0.0
C959 C 0.08283 0.78585 0.84017 0.0
C960 C 0.13305 0.78384 0.82939 0.0
C961 C 0.15746 0.75866 0.85584 0.0
C962 C 0.15606 0.80513 0.83031 0.0
C963 C 0.17693 0.8069 0.81965 0.0
C964 C 0.17512 0.78741 0.80786 0.0
C965 C 0.15117 0.76705 0.80668 0.0
C966 C 0.13028 0.76533 0.81736 0.0
H967 H 0.16156 0.74455 0.86515 0.0
H968 H 0.1654 0.74639 0.84636 0.0
H969 H 0.17103 0.77933 0.85721 0.0
H970 H 0.15838 0.81977 0.83948 0.0
H971 H 0.19494 0.823 0.82085 0.0
H972 H 0.41974 0.54842 0.16189 0.0
H973 H 0.39207 0.57209 0.14268 0.0
H974 H 0.43826 0.51616 0.1127 0.0
H975 H 0.46527 0.49188 0.13176 0.0
H976 H 0.42031 0.60458 0.12412 0.0
H977 H 0.35626 0.51689 0.09491 0.0
H978 H 0.3713 0.51135 0.11242 0.0
H979 H 0.39465 0.50624 0.09737 0.0
C980 C 0.42327 0.54044 0.15124 0.0
C981 C 0.44494 0.51843 0.14837 0.0
C982 C 0.40748 0.55406 0.14026 0.0
C983 C 0.41296 0.54586 0.12623 0.0
C984 C 0.4331 0.52248 0.12341 0.0
H985 H 0.40687 0.62753 0.04593 0.0
H986 H 0.41309 0.5952 0.06621 0.0
C987 C 0.44873 0.50872 0.13437 0.0
C988 C 0.40135 0.56454 0.1146 0.0
H989 H 0.36807 0.56124 0.08195 0.0
C990 C 0.40833 0.59519 0.11503 0.0
C991 C 0.38593 0.55227 0.10268 0.0
C992 C 0.37634 0.51993 0.10187 0.0
C993 C 0.4015 0.6136 0.10366 0.0
C994 C 0.38703 0.60111 0.09157 0.0
C995 C 0.37928 0.57068 0.09124 0.0
C996 C 0.38114 0.61918 0.07896 0.0
C997 C 0.41094 0.64602 0.10442 0.0
C998 C 0.36071 0.643 0.07935 0.0
C999 C 0.35711 0.66154 0.0678 0.0
C1000 C 0.37392 0.65658 0.05565 0.0
C1001 C 0.39371 0.63209 0.05515 0.0
C1002 C 0.39721 0.61351 0.0667 0.0
H1003 H 0.42649 0.65084 0.11344 0.0
H1004 H 0.42201 0.65236 0.09459 0.0
H1005 H 0.39085 0.66037 0.10563 0.0
H1006 H 0.34791 0.64753 0.08869 0.0
H1007 H 0.34156 0.68008 0.06851 0.0
H1008 H 0.60538 0.95796 0.40107 0.0
H1009 H 0.5919 0.92572 0.3812 0.0
H1010 H 0.68293 0.8939 0.37913 0.0
H1011 H 0.69704 0.92742 0.39896 0.0
H1012 H 0.66357 0.90796 0.35405 0.0
H1013 H 0.57633 0.83886 0.37659 0.0
H1014 H 0.56739 0.87715 0.38043 0.0
H1015 H 0.60152 0.86122 0.38753 0.0
C1016 C 0.62256 0.94382 0.39659 0.0
C1017 C 0.65231 0.94528 0.40161 0.0
C1018 C 0.6147 0.92506 0.38527 0.0
C1019 C 0.6362 0.90676 0.37885 0.0
C1020 C 0.66589 0.90759 0.38402 0.0
H1021 H 0.53715 0.81867 0.30986 0.0
H1022 H 0.57303 0.82125 0.32962 0.0
C1023 C 0.6739 0.9267 0.39534 0.0
C1024 C 0.62769 0.88947 0.36591 0.0
H1025 H 0.56841 0.85105 0.35161 0.0
C1026 C 0.64321 0.89477 0.35354 0.0
C1027 C 0.60183 0.87126 0.36522 0.0
C1028 C 0.58612 0.86154 0.37823 0.0
C1029 C 0.63175 0.88503 0.34039 0.0
C1030 C 0.60345 0.87078 0.33957 0.0
C1031 C 0.58968 0.86272 0.35207 0.0
C1032 C 0.58607 0.86715 0.32615 0.0
C1033 C 0.64984 0.89082 0.32754 0.0
C1034 C 0.58182 0.89178 0.31737 0.0
C1035 C 0.56195 0.89003 0.30587 0.0
C1036 C 0.54511 0.86399 0.30321 0.0
C1037 C 0.54977 0.83909 0.31175 0.0
C1038 C 0.57029 0.84056 0.32302 0.0
H1039 H 0.67415 0.88871 0.33001 0.0
H1040 H 0.64396 0.87508 0.31874 0.0
H1041 H 0.64583 0.91409 0.32412 0.0
H1042 H 0.59269 0.91295 0.31978 0.0
H1043 H 0.55854 0.90966 0.29955 0.0
H1044 H 0.29619 0.10302 0.66374 0.0
H1045 H 0.32087 0.08438 0.64264 0.0
H1046 H 0.26154 0.13758 0.61699 0.0
H1047 H 0.23741 0.15694 0.63797 0.0
H1048 H 0.28932 0.05081 0.62424 0.0
H1049 H 0.33795 0.14514 0.59583 0.0
H1050 H 0.32784 0.14827 0.61406 0.0
H1051 H 0.29978 0.15202 0.60036 0.0
C1052 C 0.2891 0.11158 0.65365 0.0
C1053 C 0.26459 0.13118 0.65254 0.0
C1054 C 0.30322 0.10087 0.64159 0.0
C1055 C 0.2931 0.10957 0.62821 0.0
C1056 C 0.27019 0.13095 0.62717 0.0
H1057 H 0.28817 0.02738 0.54564 0.0
H1058 H 0.28344 0.06099 0.56617 0.0
C1059 C 0.25625 0.14189 0.63923 0.0
C1060 C 0.30273 0.09267 0.61551 0.0
H1061 H 0.32772 0.10013 0.58209 0.0
C1062 C 0.29823 0.06158 0.61513 0.0
C1063 C 0.31396 0.10676 0.60354 0.0
C1064 C 0.32044 0.13986 0.6035 0.0
C1065 C 0.3038 0.04431 0.60302 0.0
C1066 C 0.31451 0.05843 0.59099 0.0
C1067 C 0.31945 0.08944 0.59135 0.0
C1068 C 0.32002 0.04104 0.57791 0.0
C1069 C 0.29724 0.01117 0.60304 0.0
C1070 C 0.34268 0.01935 0.57761 0.0
C1071 C 0.34535 9e-05 0.56597 0.0
C1072 C 0.32545 0.00224 0.55439 0.0
C1073 C 0.30374 0.02505 0.55442 0.0
C1074 C 0.30107 0.04433 0.5661 0.0
H1075 H 0.28355 0.00489 0.61212 0.0
H1076 H 0.28524 0.00404 0.5932 0.0
H1077 H 0.31863 0.99859 0.60366 0.0
H1078 H 0.3577 0.0167 0.58658 0.0
H1079 H 0.36252 0.98299 0.56624 0.0
H1080 H 0.58262 0.38878 0.8733 0.0
H1081 H 0.59741 0.36237 0.89439 0.0
H1082 H 0.51738 0.393 0.91477 0.0
H1083 H 0.50279 0.42041 0.89373 0.0
H1084 H 0.56472 0.40746 0.92997 0.0
H1085 H 0.57656 0.28855 0.91479 0.0
H1086 H 0.59643 0.31114 0.9028 0.0
H1087 H 0.55634 0.31467 0.90391 0.0
C1088 C 0.56769 0.38929 0.88211 0.0
C1089 C 0.54167 0.407 0.88187 0.0
C1090 C 0.57608 0.37388 0.89417 0.0
C1091 C 0.5584 0.37539 0.90617 0.0
C1092 C 0.53133 0.3914 0.90562 0.0
H1093 H 0.64127 0.29519 0.98184 0.0
H1094 H 0.60338 0.30522 0.96346 0.0
C1095 C 0.523 0.40702 0.89357 0.0
C1096 C 0.57061 0.36439 0.91974 0.0
H1097 H 0.60938 0.30631 0.93418 0.0
C1098 C 0.57379 0.38507 0.93099 0.0
C1099 C 0.58213 0.33507 0.92125 0.0
C1100 C 0.57736 0.31105 0.91007 0.0
C1101 C 0.5901 0.37799 0.94321 0.0
C1102 C 0.60417 0.34973 0.94409 0.0
C1103 C 0.59905 0.3282 0.93337 0.0
C1104 C 0.62659 0.34339 0.95534 0.0
C1105 C 0.59288 0.40125 0.95488 0.0
C1106 C 0.65236 0.36117 0.95667 0.0
C1107 C 0.6739 0.35556 0.96709 0.0
C1108 C 0.67031 0.33184 0.97637 0.0
C1109 C 0.64465 0.31372 0.97491 0.0
C1110 C 0.623 0.31938 0.96442 0.0
H1111 H 0.57344 0.41677 0.9548 0.0
H1112 H 0.59461 0.39072 0.96532 0.0
H1113 H 0.61334 0.41475 0.95338 0.0
H1114 H 0.65594 0.37936 0.94956 0.0
H1115 H 0.69345 0.36986 0.96782 0.0
H1116 H 0.68674 0.12536 0.12135 0.0
H1117 H 0.70164 0.14921 0.14373 0.0
H1118 H 0.64463 0.08897 0.16566 0.0
H1119 H 0.62981 0.06467 0.14336 0.0
H1120 H 0.66996 0.1765 0.16605 0.0
H1121 H 0.72864 0.07239 0.18237 0.0
H1122 H 0.71658 0.07846 0.16445 0.0
H1123 H 0.68983 0.06868 0.17733 0.0
C1124 C 0.67689 0.11753 0.13089 0.0
C1125 C 0.65736 0.0929 0.13057 0.0
C1126 C 0.68548 0.13116 0.14367 0.0
C1127 C 0.67475 0.12036 0.15633 0.0
C1128 C 0.65361 0.0972 0.156 0.0
H1129 H 0.73416 0.17728 0.24139 0.0
H1130 H 0.7073 0.15122 0.222 0.0
C1131 C 0.64498 0.08354 0.14322 0.0
C1132 C 0.68717 0.13233 0.16983 0.0
H1133 H 0.73219 0.11411 0.19783 0.0
C1134 C 0.68332 0.16282 0.17307 0.0
C1135 C 0.70467 0.11435 0.17892 0.0
C1136 C 0.71048 0.0817 0.17562 0.0
C1137 C 0.69695 0.17598 0.18507 0.0
C1138 C 0.7151 0.15822 0.19393 0.0
C1139 C 0.71818 0.12754 0.19098 0.0
C1140 C 0.7327 0.17176 0.20572 0.0
C1141 C 0.69225 0.2089 0.18809 0.0
C1142 C 0.75644 0.191 0.20292 0.0
C1143 C 0.77188 0.20572 0.2139 0.0
C1144 C 0.76383 0.2015 0.22792 0.0
C1145 C 0.74087 0.18108 0.23072 0.0
C1146 C 0.72546 0.16624 0.21968 0.0
H1147 H 0.67249 0.21775 0.18223 0.0
H1148 H 0.68922 0.21321 0.1995 0.0
H1149 H 0.71229 0.22146 0.18487 0.0
H1150 H 0.76259 0.19514 0.19219 0.0
H1151 H 0.78955 0.22112 0.21134 0.0
H1152 H 0.21119 0.17299 0.39958 0.0
H1153 H 0.18793 0.20229 0.41831 0.0
H1154 H 0.14938 0.26153 0.38768 0.0
H1155 H 0.17197 0.23188 0.36879 0.0
H1156 H 0.18647 0.26203 0.42777 0.0
H1157 H 0.0762 0.22482 0.40559 0.0
H1158 H 0.11106 0.20916 0.39971 0.0
H1159 H 0.09883 0.24513 0.39372 0.0
C1160 C 0.19829 0.1926 0.39681 0.0
C1161 C 0.19296 0.19975 0.38266 0.0
C1162 C 0.18501 0.20935 0.40756 0.0
C1163 C 0.16631 0.2336 0.40435 0.0
C1164 C 0.16316 0.24244 0.39034 0.0
H1165 H 0.03501 0.32407 0.45661 0.0
H1166 H 0.07034 0.31258 0.43802 0.0
C1167 C 0.17623 0.22556 0.37957 0.0
C1168 C 0.14792 0.24753 0.4155 0.0
H1169 H 0.07564 0.25579 0.4258 0.0
C1170 C 0.16223 0.26088 0.42731 0.0
C1171 C 0.11628 0.24574 0.41493 0.0
C1172 C 0.09961 0.23023 0.40288 0.0
C1173 C 0.14571 0.27251 0.43858 0.0
C1174 C 0.11414 0.27037 0.43805 0.0
C1175 C 0.09985 0.25754 0.42613 0.0
C1176 C 0.09528 0.27991 0.44995 0.0
C1177 C 0.16211 0.28701 0.45094 0.0
C1178 C 0.09773 0.26548 0.46287 0.0
C1179 C 0.0775 0.27192 0.47352 0.0
C1180 C 0.05435 0.2928 0.4714 0.0
C1181 C 0.05253 0.30784 0.45859 0.0
C1182 C 0.07273 0.30135 0.44795 0.0
H1183 H 0.18496 0.29422 0.44813 0.0
H1184 H 0.14962 0.30672 0.45503 0.0
H1185 H 0.16436 0.27063 0.45949 0.0
H1186 H 0.11458 0.2484 0.46453 0.0
H1187 H 0.0795 0.2599 0.48325 0.0
H1188 H 0.92407 0.61596 0.61976 0.0
H1189 H 0.90317 0.59298 0.64044 0.0
H1190 H 0.96184 0.64659 0.66726 0.0
H1191 H 0.98223 0.67019 0.64672 0.0
H1192 H 0.93667 0.55921 0.65733 0.0
H1193 H 0.88638 0.64993 0.68945 0.0
H1194 H 0.89541 0.65456 0.67124 0.0
H1195 H 0.92403 0.65836 0.68476 0.0
C1196 C 0.9319 0.6235 0.63008 0.0
C1197 C 0.95494 0.64479 0.63157 0.0
C1198 C 0.91995 0.61031 0.6419 0.0
C1199 C 0.93079 0.61814 0.65543 0.0
C1200 C 0.95259 0.64062 0.65698 0.0
H1201 H 0.94082 0.53289 0.73552 0.0
H1202 H 0.9443 0.56644 0.71562 0.0
C1203 C 0.96438 0.65401 0.64518 0.0
C1204 C 0.92247 0.60002 0.66764 0.0
H1205 H 0.89844 0.6044 0.70146 0.0
C1206 C 0.92784 0.56906 0.66688 0.0
C1207 C 0.91121 0.61289 0.68017 0.0
C1208 C 0.90364 0.64572 0.68142 0.0
C1209 C 0.92313 0.55079 0.67841 0.0
C1210 C 0.91248 0.56374 0.69101 0.0
C1211 C 0.90666 0.59459 0.69176 0.0
C1212 C 0.90817 0.54548 0.70359 0.0
C1213 C 0.93056 0.51789 0.67718 0.0
C1214 C 0.88624 0.52308 0.70352 0.0
C1215 C 0.8842 0.50385 0.71484 0.0
C1216 C 0.90408 0.5067 0.72645 0.0
C1217 C 0.92528 0.52996 0.72672 0.0
C1218 C 0.92725 0.54923 0.71539 0.0
H1219 H 0.9439 0.51257 0.66773 0.0
H1220 H 0.94326 0.51047 0.68663 0.0
H1221 H 0.90949 0.5048 0.67638 0.0
H1222 H 0.87112 0.52006 0.69456 0.0
H1223 H 0.86747 0.48633 0.71432 0.0
H1224 H 0.66698 0.06477 0.39136 0.0
H1225 H 0.67395 0.09739 0.37146 0.0
H1226 H 0.71097 0.16571 0.39935 0.0
H1227 H 0.70478 0.13294 0.41932 0.0
H1228 H 0.65594 0.15473 0.36421 0.0
H1229 H 0.77921 0.14838 0.37264 0.0
H1230 H 0.75364 0.12463 0.38163 0.0
H1231 H 0.75921 0.16279 0.38746 0.0
C1232 C 0.6762 0.0869 0.39332 0.0
C1233 C 0.6858 0.09607 0.40691 0.0
C1234 C 0.68014 0.10553 0.38192 0.0
C1235 C 0.69364 0.13365 0.38389 0.0
C1236 C 0.70118 0.14377 0.39756 0.0
H1237 H 0.76265 0.25922 0.32421 0.0
H1238 H 0.74377 0.23595 0.34523 0.0
C1239 C 0.69745 0.12508 0.40898 0.0
C1240 C 0.70172 0.15132 0.37153 0.0
H1241 H 0.76165 0.17885 0.35433 0.0
C1242 C 0.67903 0.16011 0.36206 0.0
C1243 C 0.73191 0.15806 0.3687 0.0
C1244 C 0.75746 0.14777 0.37805 0.0
C1245 C 0.68573 0.17572 0.34986 0.0
C1246 C 0.7159 0.18236 0.34705 0.0
C1247 C 0.73852 0.17383 0.35658 0.0
C1248 C 0.72481 0.19752 0.33412 0.0
C1249 C 0.66053 0.18519 0.34015 0.0
C1250 C 0.72036 0.18358 0.32089 0.0
C1251 C 0.73123 0.19677 0.30883 0.0
C1252 C 0.74684 0.22407 0.30981 0.0
C1253 C 0.75074 0.23819 0.32307 0.0
C1254 C 0.73995 0.22496 0.3351 0.0
H1255 H 0.63861 0.18497 0.34543 0.0
H1256 H 0.66454 0.20798 0.33617 0.0
H1257 H 0.65917 0.16944 0.33099 0.0
H1258 H 0.70923 0.1621 0.31995 0.0
H1259 H 0.72791 0.18528 0.29879 0.0
H1260 H 0.09607 0.13673 0.64755 0.0
H1261 H 0.06442 0.15224 0.62777 0.0
H1262 H 0.13623 0.13321 0.59939 0.0
H1263 H 0.16783 0.1171 0.61903 0.0
H1264 H 0.07982 0.20031 0.61258 0.0
H1265 H 0.06444 0.10163 0.57695 0.0
H1266 H 0.07689 0.09844 0.59502 0.0
H1267 H 0.10289 0.10855 0.58177 0.0
C1268 C 0.10486 0.13504 0.63705 0.0
C1269 C 0.13456 0.12593 0.63487 0.0
C1270 C 0.08674 0.14393 0.62576 0.0
C1271 C 0.09792 0.14378 0.61211 0.0
C1272 C 0.12692 0.13297 0.60979 0.0
H1273 H 0.05094 0.23261 0.535 0.0
H1274 H 0.07456 0.20335 0.55367 0.0
C1275 C 0.14503 0.1239 0.62107 0.0
C1276 C 0.08094 0.15874 0.60072 0.0
H1277 H 0.05331 0.1495 0.5672 0.0
C1278 C 0.07368 0.18908 0.60273 0.0
C1279 C 0.07327 0.14413 0.58783 0.0
C1280 C 0.07952 0.11131 0.58528 0.0
C1281 C 0.05953 0.20541 0.59209 0.0
C1282 C 0.05209 0.19089 0.57916 0.0
C1283 C 0.05913 0.16051 0.57714 0.0
C1284 C 0.03715 0.20714 0.56762 0.0
C1285 C 0.05339 0.23828 0.59463 0.0
C1286 C 0.00818 0.21853 0.56926 0.0
C1287 C 0.99466 0.23531 0.55868 0.0
C1288 C 0.00986 0.2409 0.54622 0.0
C1289 C 0.03868 0.22886 0.54449 0.0
C1290 C 0.05217 0.21205 0.55511 0.0
H1291 H 0.0664 0.24745 0.60381 0.0
H1292 H 0.05888 0.25138 0.58525 0.0
H1293 H 0.02926 0.24149 0.59671 0.0
H1294 H 0.9961 0.21463 0.57879 0.0
H1295 H 0.97237 0.24403 0.56032 0.0
H1296 H 0.97044 0.53403 0.90203 0.0
H1297 H 0.96303 0.50402 0.88047 0.0
H1298 H 0.01814 0.56524 0.8581 0.0
H1299 H 0.02577 0.59542 0.87959 0.0
H1300 H 0.93582 0.53142 0.85607 0.0
H1301 H 0.04643 0.47996 0.84492 0.0
H1302 H 0.03617 0.49266 0.86231 0.0
H1303 H 0.04656 0.51926 0.84944 0.0
C1304 C 0.98158 0.54076 0.89262 0.0
C1305 C 0.9985 0.56724 0.89249 0.0
C1306 C 0.97728 0.5236 0.88031 0.0
C1307 C 0.99014 0.53241 0.86775 0.0
C1308 C 0.00836 0.5579 0.86775 0.0
H1309 H 0.92533 0.48905 0.78302 0.0
H1310 H 0.94695 0.51472 0.80385 0.0
C1311 C 0.01255 0.57518 0.88003 0.0
C1312 C 0.98162 0.51704 0.85439 0.0
H1313 H 0.00867 0.47512 0.82708 0.0
C1314 C 0.95171 0.51906 0.84974 0.0
C1315 C 0.00249 0.50105 0.8462 0.0
C1316 C 0.0347 0.49781 0.85096 0.0
C1317 C 0.94208 0.50554 0.83703 0.0
C1318 C 0.96298 0.4898 0.82876 0.0
C1319 C 0.99287 0.48755 0.83343 0.0
C1320 C 0.9535 0.47426 0.81559 0.0
C1321 C 0.90952 0.50777 0.83262 0.0
C1322 C 0.95085 0.44305 0.81526 0.0
C1323 C 0.93839 0.42835 0.80346 0.0
C1324 C 0.92855 0.44466 0.79175 0.0
C1325 C 0.9326 0.47587 0.79187 0.0
C1326 C 0.94491 0.49057 0.80375 0.0
H1327 H 0.89547 0.51689 0.84119 0.0
H1328 H 0.9073 0.52275 0.82352 0.0
H1329 H 0.90074 0.48544 0.82928 0.0
H1330 H 0.95738 0.43016 0.82433 0.0
H1331 H 0.9358 0.40428 0.80366 0.0
H1332 H 0.60987 0.49537 0.13605 0.0
H1333 H 0.64343 0.48147 0.11697 0.0
H1334 H 0.59374 0.39984 0.10945 0.0
H1335 H 0.56042 0.41327 0.12854 0.0
H1336 H 0.65568 0.39163 0.11069 0.0
H1337 H 0.62298 0.48278 0.0746 0.0
H1338 H 0.63465 0.49478 0.092 0.0
H1339 H 0.60104 0.47313 0.08953 0.0
C1340 C 0.60609 0.47448 0.13033 0.0
C1341 C 0.58243 0.45546 0.13378 0.0
C1342 C 0.62517 0.46667 0.11939 0.0
C1343 C 0.62078 0.43983 0.1117 0.0
C1344 C 0.59741 0.42071 0.11523 0.0
H1345 H 0.68736 0.37763 0.03204 0.0
H1346 H 0.6578 0.3967 0.05161 0.0
C1347 C 0.57837 0.42845 0.12614 0.0
C1348 C 0.64073 0.4312 0.10011 0.0
H1349 H 0.6623 0.45087 0.0674 0.0
C1350 C 0.65724 0.40461 0.10124 0.0
C1351 C 0.64239 0.44806 0.08775 0.0
C1352 C 0.62416 0.47616 0.08577 0.0
C1353 C 0.67535 0.39433 0.09031 0.0
C1354 C 0.67734 0.4114 0.07803 0.0
C1355 C 0.66087 0.43801 0.07689 0.0
C1356 C 0.69561 0.40136 0.06605 0.0
C1357 C 0.69155 0.36488 0.09183 0.0
C1358 C 0.72671 0.39825 0.06765 0.0
C1359 C 0.74366 0.38727 0.05652 0.0
C1360 C 0.72981 0.37938 0.04356 0.0
C1361 C 0.69873 0.38338 0.04189 0.0
C1362 C 0.6818 0.39432 0.05304 0.0
H1363 H 0.68223 0.35136 0.10036 0.0
H1364 H 0.69029 0.35151 0.08188 0.0
H1365 H 0.71549 0.36924 0.09443 0.0
H1366 H 0.73784 0.40409 0.07754 0.0
H1367 H 0.76758 0.3847 0.05814 0.0
loop_
_geom_bond_atom_site_label_1
_geom_bond_atom_site_label_2
_geom_bond_distance
_geom_bond_site_symmetry_2
_ccdc_geom_bond_type
Mg0 O7 2.141 . S
Mg0 O8 2.048 . S
Mg0 O9 2.048 . S
Mg0 O12 2.141 . S
C1 O2 1.313 . S
C1 O8 1.195 . S
O2 C1 1.313 . S
C3 O4 1.245 . S
C3 O12 1.289 . S
O4 C3 1.245 . S
C5 O6 1.245 . S
C5 O7 1.289 . S
O6 C5 1.245 . S
O7 Mg0 2.141 . S
O7 C5 1.289 . S
O8 Mg0 2.048 . S
O8 C1 1.195 . S
O9 Mg0 2.048 . S
O9 C10 1.195 . S
C10 O9 1.195 . S
C10 O11 1.313 . S
O11 C10 1.313 . S
O12 Mg0 2.141 . S
O12 C3 1.289 . S
Mg13 O20 2.141 . S
Mg13 O21 2.048 . S
Mg13 O22 2.048 1_455 S
Mg13 O25 2.141 . S
C14 O15 1.313 . S
C14 O21 1.195 . S
O15 C14 1.313 . S
C16 O17 1.245 . S
C16 O25 1.289 . S
O17 C16 1.245 . S
C18 O19 1.245 . S
C18 O20 1.289 . S
O19 C18 1.245 . S
O20 Mg13 2.141 . S
O20 C18 1.289 . S
O21 Mg13 2.048 . S
O21 C14 1.195 . S
O22 Mg13 2.048 1_655 S
O22 C23 1.195 1_655 S
C23 O22 1.195 1_455 S
C23 O24 1.313 . S
O24 C23 1.313 . S
O25 Mg13 2.141 . S
O25 C16 1.289 . S
Mg26 O33 2.141 . S
Mg26 O34 2.048 . S
Mg26 O35 2.048 . S
Mg26 O38 2.141 . S
C27 O28 1.313 . S
C27 O34 1.195 . S
O28 C27 1.313 . S
C29 O30 1.245 . S
C29 O38 1.289 . S
O30 C29 1.245 . S
C31 O32 1.245 . S
C31 O33 1.289 . S
O32 C31 1.245 . S
O33 Mg26 2.141 . S
O33 C31 1.289 . S
O34 Mg26 2.048 . S
O34 C27 1.195 . S
O35 Mg26 2.048 . S
O35 C36 1.195 . S
C36 O35 1.195 . S
C36 O37 1.313 . S
O37 C36 1.313 . S
O38 Mg26 2.141 . S
O38 C29 1.289 . S
Mg39 O46 2.141 . S
Mg39 O47 2.048 . S
Mg39 O48 2.048 1_545 S
Mg39 O51 2.141 1_545 S
C40 O41 1.313 . S
C40 O47 1.195 . S
O41 C40 1.313 . S
C42 O43 1.245 . S
C42 O51 1.289 . S
O43 C42 1.245 . S
C44 O45 1.245 . S
C44 O46 1.289 . S
O45 C44 1.245 . S
O46 Mg39 2.141 . S
O46 C44 1.289 . S
O47 Mg39 2.048 . S
O47 C40 1.195 . S
O48 Mg39 2.048 1_565 S
O48 C49 1.195 . S
C49 O48 1.195 . S
C49 O50 1.313 . S
O50 C49 1.313 . S
O51 Mg39 2.141 1_565 S
O51 C42 1.289 . S
Mg52 O59 2.141 . S
Mg52 O60 2.048 . S
Mg52 O61 2.048 1_455 S
Mg52 O64 2.127 1_455 S
C53 O54 1.313 . S
C53 O60 1.195 . S
O54 C53 1.313 . S
C55 O56 1.245 . S
C55 O64 1.315 . S
O56 C55 1.245 . S
C57 O58 1.245 . S
C57 O59 1.289 . S
O58 C57 1.245 . S
O59 Mg52 2.141 . S
O59 C57 1.289 . S
O60 Mg52 2.048 . S
O60 C53 1.195 . S
O61 Mg52 2.048 1_655 S
O61 C62 1.195 . S
C62 O61 1.195 . S
C62 O63 1.313 . S
O63 C62 1.313 . S
O64 Mg52 2.127 1_655 S
O64 C55 1.315 . S
Mg65 O72 2.141 . S
Mg65 O73 2.048 . S
Mg65 O74 2.048 . S
Mg65 O77 2.141 . S
C66 O67 1.313 . S
C66 O73 1.195 . S
O67 C66 1.313 . S
C68 O69 1.245 . S
C68 O77 1.289 . S
O69 C68 1.245 . S
C70 O71 1.245 . S
C70 O72 1.289 . S
O71 C70 1.245 . S
O72 Mg65 2.141 . S
O72 C70 1.289 . S
O73 Mg65 2.048 . S
O73 C66 1.195 . S
O74 Mg65 2.048 . S
O74 C75 1.195 . S
C75 O74 1.195 . S
C75 O76 1.313 . S
O76 C75 1.313 . S
O77 Mg65 2.141 . S
O77 C68 1.289 . S
Mg78 O85 2.141 1_565 S
Mg78 O86 2.048 1_565 S
Mg78 O87 2.048 . S
Mg78 O90 2.141 . S
C79 O80 1.313 . S
C79 O86 1.195 . S
O80 C79 1.313 . S
C81 O82 1.245 1_565 S
C81 O90 1.289 . S
O82 C81 1.245 1_545 S
C83 O84 1.245 . S
C83 O85 1.289 . S
O84 C83 1.245 . S
O85 Mg78 2.141 1_545 S
O85 C83 1.289 . S
O86 Mg78 2.048 1_545 S
O86 C79 1.195 . S
O87 Mg78 2.048 . S
O87 C88 1.195 . S
C88 O87 1.195 . S
C88 O89 1.313 1_565 S
O89 C88 1.313 1_545 S
O90 Mg78 2.141 . S
O90 C81 1.289 . S
Mg91 O98 2.141 . S
Mg91 O99 2.048 . S
Mg91 O100 2.048 . S
Mg91 O103 2.141 . S
C92 O93 1.313 . S
C92 O99 1.195 . S
O93 C92 1.313 . S
C94 O95 1.245 . S
C94 O103 1.289 . S
O95 C94 1.245 . S
C96 O97 1.245 . S
C96 O98 1.289 . S
O97 C96 1.245 . S
O98 Mg91 2.141 . S
O98 C96 1.289 . S
O99 Mg91 2.048 . S
O99 C92 1.195 . S
O100 Mg91 2.048 . S
O100 C101 1.195 . S
C101 O100 1.195 . S
C101 O102 1.313 . S
O102 C101 1.313 . S
O103 Mg91 2.141 . S
O103 C94 1.289 . S
Zn104 O107 2.031 . S
Zn104 O109 2.049 . S
Zn104 O114 2.067 1_554 S
Zn105 O106 1.962 . S
Zn105 O108 1.986 . S
Zn105 O110 1.996 . S
Zn105 O113 1.943 . S
O106 Zn105 1.962 . S
O106 C111 1.254 . S
O107 Zn104 2.031 . S
O107 C111 1.269 . S
O108 Zn105 1.986 . S
O108 C115 1.262 . S
O109 Zn104 2.049 . S
O109 C117 1.260 . S
O110 Zn105 1.996 . S
O110 C117 1.257 . S
C111 O106 1.254 . S
C111 O107 1.269 . S
C112 O113 1.276 . S
C112 O114 1.261 1_554 S
O113 Zn105 1.943 . S
O113 C112 1.276 . S
O114 Zn104 2.067 1_556 S
O114 C112 1.261 1_556 S
C115 O108 1.262 . S
C115 O116 1.232 . S
O116 C115 1.232 . S
C117 O109 1.260 . S
C117 O110 1.257 . S
Zn118 O121 2.031 . S
Zn118 O123 2.049 . S
Zn118 O128 2.067 . S
Zn119 O120 1.962 . S
Zn119 O122 1.986 . S
Zn119 O124 1.996 . S
Zn119 O127 1.943 . S
O120 Zn119 1.962 . S
O120 C125 1.254 . S
O121 Zn118 2.031 . S
O121 C125 1.269 . S
O122 Zn119 1.986 . S
O122 C129 1.262 . S
O123 Zn118 2.049 . S
O123 C131 1.260 . S
O124 Zn119 1.996 . S
O124 C131 1.257 . S
C125 O120 1.254 . S
C125 O121 1.269 . S
C126 O127 1.249 . S
C126 O128 1.270 . S
O127 Zn119 1.943 . S
O127 C126 1.249 . S
O128 Zn118 2.067 . S
O128 C126 1.270 . S
C129 O122 1.262 . S
C129 O130 1.232 . S
O130 C129 1.232 . S
C131 O123 1.260 . S
C131 O124 1.257 . S
Zn132 O135 2.031 . S
Zn132 O137 2.049 . S
Zn132 O142 2.067 . S
Zn133 O134 1.962 . S
Zn133 O136 1.986 . S
Zn133 O138 1.996 . S
Zn133 O141 1.943 . S
O134 Zn133 1.962 . S
O134 C139 1.254 . S
O135 Zn132 2.031 . S
O135 C139 1.269 . S
O136 Zn133 1.986 . S
O136 C143 1.262 . S
O137 Zn132 2.049 . S
O137 C145 1.260 . S
O138 Zn133 1.996 . S
O138 C145 1.257 . S
C139 O134 1.254 . S
C139 O135 1.269 . S
C140 O141 1.249 . S
C140 O142 1.270 . S
O141 Zn133 1.943 . S
O141 C140 1.249 . S
O142 Zn132 2.067 . S
O142 C140 1.270 . S
C143 O136 1.262 . S
C143 O144 1.232 . S
O144 C143 1.232 . S
C145 O137 1.260 . S
C145 O138 1.257 . S
Zn146 O149 2.031 . S
Zn146 O151 2.049 . S
Zn146 O156 2.067 . S
Zn147 O148 1.962 . S
Zn147 O150 1.986 . S
Zn147 O152 1.996 . S
Zn147 O155 1.943 . S
O148 Zn147 1.962 . S
O148 C153 1.254 . S
O149 Zn146 2.031 . S
O149 C153 1.269 . S
O150 Zn147 1.986 . S
O150 C157 1.262 . S
O151 Zn146 2.049 . S
O151 C159 1.260 . S
O152 Zn147 1.996 . S
O152 C159 1.257 . S
C153 O148 1.254 . S
C153 O149 1.269 . S
C154 O155 1.249 . S
C154 O156 1.270 . S
O155 Zn147 1.943 . S
O155 C154 1.249 . S
O156 Zn146 2.067 . S
O156 C154 1.270 . S
C157 O150 1.262 . S
C157 O158 1.232 . S
O158 C157 1.232 . S
C159 O151 1.260 . S
C159 O152 1.257 . S
Zn160 O163 2.031 . S
Zn160 O165 2.049 . S
Zn160 O170 2.067 . S
Zn161 O162 1.962 . S
Zn161 O164 1.986 . S
Zn161 O166 1.996 . S
Zn161 O169 1.943 . S
O162 Zn161 1.962 . S
O162 C167 1.254 . S
O163 Zn160 2.031 . S
O163 C167 1.269 . S
O164 Zn161 1.986 . S
O164 C171 1.262 1_655 S
O165 Zn160 2.049 . S
O165 C173 1.260 . S
O166 Zn161 1.996 . S
O166 C173 1.257 . S
C167 O162 1.254 . S
C167 O163 1.269 . S
C168 O169 1.249 . S
C168 O170 1.270 . S
O169 Zn161 1.943 . S
O169 C168 1.249 . S
O170 Zn160 2.067 . S
O170 C168 1.270 . S
C171 O164 1.262 1_455 S
C171 O172 1.232 . S
O172 C171 1.232 . S
C173 O165 1.260 . S
C173 O166 1.257 . S
Zn174 O177 2.031 . S
Zn174 O179 2.049 . S
Zn174 O184 2.067 . S
Zn175 O176 1.962 . S
Zn175 O178 1.986 . S
Zn175 O180 1.996 . S
Zn175 O183 1.943 . S
O176 Zn175 1.962 . S
O176 C181 1.254 . S
O177 Zn174 2.031 . S
O177 C181 1.269 . S
O178 Zn175 1.986 . S
O178 C185 1.262 . S
O179 Zn174 2.049 . S
O179 C187 1.260 . S
O180 Zn175 1.996 . S
O180 C187 1.257 . S
C181 O176 1.254 . S
C181 O177 1.269 . S
C182 O183 1.249 . S
C182 O184 1.270 . S
O183 Zn175 1.943 . S
O183 C182 1.249 . S
O184 Zn174 2.067 . S
O184 C182 1.270 . S
C185 O178 1.262 . S
C185 O186 1.232 . S
O186 C185 1.232 . S
C187 O179 1.260 . S
C187 O180 1.257 . S
Zn188 O191 2.031 . S
Zn188 O193 2.049 . S
Zn188 O198 2.067 . S
Zn189 O190 1.962 . S
Zn189 O192 1.986 . S
Zn189 O194 1.996 . S
Zn189 O197 1.943 1_556 S
O190 Zn189 1.962 . S
O190 C195 1.254 1_556 S
O191 Zn188 2.031 . S
O191 C195 1.269 . S
O192 Zn189 1.986 . S
O192 C199 1.262 . S
O193 Zn188 2.049 . S
O193 C201 1.260 . S
O194 Zn189 1.996 . S
O194 C201 1.257 1_556 S
C195 O190 1.254 1_554 S
C195 O191 1.269 . S
C196 O197 1.249 . S
C196 O198 1.270 . S
O197 Zn189 1.943 1_554 S
O197 C196 1.249 . S
O198 Zn188 2.067 . S
O198 C196 1.270 . S
C199 O192 1.262 . S
C199 O200 1.232 . S
O200 C199 1.232 . S
C201 O193 1.260 . S
C201 O194 1.257 1_554 S
Zn202 O205 2.031 . S
Zn202 O207 2.049 . S
Zn202 O212 2.067 . S
Zn203 O204 1.962 . S
Zn203 O206 1.986 . S
Zn203 O208 1.996 . S
Zn203 O211 1.943 . S
O204 Zn203 1.962 . S
O204 C209 1.254 . S
O205 Zn202 2.031 . S
O205 C209 1.269 . S
O206 Zn203 1.986 . S
O206 C213 1.262 . S
O207 Zn202 2.049 . S
O207 C215 1.260 . S
O208 Zn203 1.996 . S
O208 C215 1.257 . S
C209 O204 1.254 . S
C209 O205 1.269 . S
C210 O211 1.249 . S
C210 O212 1.270 . S
O211 Zn203 1.943 . S
O211 C210 1.249 . S
O212 Zn202 2.067 . S
O212 C210 1.270 . S
C213 O206 1.262 . S
C213 O214 1.232 . S
O214 C213 1.232 . S
C215 O207 1.260 . S
C215 O208 1.257 . S
H216 C224 0.929 . S
H217 C226 0.930 . S
H218 C228 0.930 . S
H219 C231 0.929 . S
H220 C234 0.930 . S
H221 C236 0.960 . S
H222 C236 0.960 . S
H223 C236 0.960 . S
C224 H216 0.929 . S
C224 C225 1.377 . S
C224 C226 1.384 . S
C225 C224 1.377 . S
C225 C231 1.390 . S
C226 H217 0.930 . S
C226 C224 1.384 . S
C226 C227 1.372 . S
C227 C226 1.372 . S
C227 C228 1.400 . S
C227 C232 1.490 . S
C228 H218 0.930 . S
C228 C227 1.400 . S
C228 C231 1.386 . S
H229 C245 0.930 . S
H230 C246 0.931 . S
C231 H219 0.929 . S
C231 C225 1.390 . S
C231 C228 1.386 . S
C232 C227 1.490 . S
C232 C234 1.395 1_545 S
C232 C235 1.403 . S
H233 C239 0.930 . S
C234 H220 0.930 . S
C234 C232 1.395 1_565 S
C234 C237 1.403 . S
C235 C232 1.403 . S
C235 C236 1.524 . S
C235 C239 1.400 1_545 S
C236 H221 0.960 . S
C236 H222 0.960 . S
C236 H223 0.960 . S
C236 C235 1.524 . S
C237 C234 1.403 . S
C237 C238 1.392 . S
C237 C241 1.495 . S
C238 C237 1.392 . S
C238 C239 1.385 . S
C238 C240 1.478 . S
C239 H233 0.930 . S
C239 C235 1.400 1_565 S
C239 C238 1.385 . S
C240 C238 1.478 . S
C240 C242 1.381 . S
C240 C246 1.383 . S
C241 C237 1.495 . S
C241 H247 0.959 . S
C241 H248 0.961 . S
C241 H249 0.960 . S
C242 C240 1.381 . S
C242 C243 1.394 . S
C242 H250 0.930 . S
C243 C242 1.394 . S
C243 C244 1.383 . S
C243 H251 0.929 . S
C244 C243 1.383 . S
C244 C245 1.377 . S
C245 H229 0.930 . S
C245 C244 1.377 . S
C245 C246 1.379 . S
C246 H230 0.931 . S
C246 C240 1.383 . S
C246 C245 1.379 . S
H247 C241 0.959 . S
H248 C241 0.961 . S
H249 C241 0.960 . S
H250 C242 0.930 . S
H251 C243 0.929 . S
H252 C260 0.929 . S
H253 C262 0.930 . S
H254 C264 0.930 . S
H255 C267 0.929 . S
H256 C270 0.930 . S
H257 C272 0.960 . S
H258 C272 0.960 . S
H259 C272 0.960 . S
C260 H252 0.929 . S
C260 C261 1.377 . S
C260 C262 1.384 . S
C261 C260 1.377 . S
C261 C267 1.390 . S
C262 H253 0.930 . S
C262 C260 1.384 . S
C262 C263 1.372 . S
C263 C262 1.372 . S
C263 C264 1.400 . S
C263 C268 1.490 . S
C264 H254 0.930 . S
C264 C263 1.400 . S
C264 C267 1.386 . S
H265 C281 0.930 . S
H266 C282 0.931 . S
C267 H255 0.929 . S
C267 C261 1.390 . S
C267 C264 1.386 . S
C268 C263 1.490 . S
C268 C270 1.395 . S
C268 C271 1.403 . S
H269 C275 0.930 . S
C270 H256 0.930 . S
C270 C268 1.395 . S
C270 C273 1.403 . S
C271 C268 1.403 . S
C271 C272 1.524 . S
C271 C275 1.400 . S
C272 H257 0.960 . S
C272 H258 0.960 . S
C272 H259 0.960 . S
C272 C271 1.524 . S
C273 C270 1.403 . S
C273 C274 1.392 . S
C273 C277 1.495 . S
C274 C273 1.392 . S
C274 C275 1.385 . S
C274 C276 1.478 . S
C275 H269 0.930 . S
C275 C271 1.400 . S
C275 C274 1.385 . S
C276 C274 1.478 . S
C276 C278 1.381 . S
C276 C282 1.383 . S
C277 C273 1.495 . S
C277 H283 0.959 . S
C277 H284 0.961 . S
C277 H285 0.960 . S
C278 C276 1.381 . S
C278 C279 1.394 . S
C278 H286 0.930 . S
C279 C278 1.394 . S
C279 C280 1.383 . S
C279 H287 0.929 . S
C280 C279 1.383 . S
C280 C281 1.377 . S
C281 H265 0.930 . S
C281 C280 1.377 . S
C281 C282 1.379 . S
C282 H266 0.931 . S
C282 C276 1.383 . S
C282 C281 1.379 . S
H283 C277 0.959 . S
H284 C277 0.961 . S
H285 C277 0.960 . S
H286 C278 0.930 . S
H287 C279 0.929 . S
H288 C296 0.929 . S
H289 C298 0.930 . S
H290 C300 0.930 . S
H291 C303 0.929 . S
H292 C306 0.930 . S
H293 C308 0.960 . S
H294 C308 0.960 . S
H295 C308 0.960 . S
C296 H288 0.929 . S
C296 C297 1.377 . S
C296 C298 1.384 . S
C297 C296 1.377 . S
C297 C303 1.390 . S
C298 H289 0.930 . S
C298 C296 1.384 . S
C298 C299 1.372 . S
C299 C298 1.372 . S
C299 C300 1.400 . S
C299 C304 1.490 . S
C300 H290 0.930 . S
C300 C299 1.400 . S
C300 C303 1.386 . S
H301 C317 0.930 . S
H302 C318 0.931 . S
C303 H291 0.929 . S
C303 C297 1.390 . S
C303 C300 1.386 . S
C304 C299 1.490 . S
C304 C306 1.395 . S
C304 C307 1.403 . S
H305 C311 0.930 . S
C306 H292 0.930 . S
C306 C304 1.395 . S
C306 C309 1.403 . S
C307 C304 1.403 . S
C307 C308 1.524 . S
C307 C311 1.400 . S
C308 H293 0.960 . S
C308 H294 0.960 . S
C308 H295 0.960 . S
C308 C307 1.524 . S
C309 C306 1.403 . S
C309 C310 1.392 . S
C309 C313 1.495 . S
C310 C309 1.392 . S
C310 C311 1.385 . S
C310 C312 1.478 . S
C311 H305 0.930 . S
C311 C307 1.400 . S
C311 C310 1.385 . S
C312 C310 1.478 . S
C312 C314 1.381 . S
C312 C318 1.383 . S
C313 C309 1.495 . S
C313 H319 0.959 . S
C313 H320 0.961 . S
C313 H321 0.960 . S
C314 C312 1.381 . S
C314 C315 1.394 . S
C314 H322 0.930 . S
C315 C314 1.394 . S
C315 C316 1.383 . S
C315 H323 0.929 . S
C316 C315 1.383 . S
C316 C317 1.377 . S
C317 H301 0.930 . S
C317 C316 1.377 . S
C317 C318 1.379 . S
C318 H302 0.931 . S
C318 C312 1.383 . S
C318 C317 1.379 . S
H319 C313 0.959 . S
H320 C313 0.961 . S
H321 C313 0.960 . S
H322 C314 0.930 . S
H323 C315 0.929 . S
H324 C332 0.929 . S
H325 C334 0.930 . S
H326 C336 0.930 . S
H327 C339 0.929 . S
H328 C342 0.930 . S
H329 C344 0.960 . S
H330 C344 0.960 . S
H331 C344 0.960 . S
C332 H324 0.929 . S
C332 C333 1.377 . S
C332 C334 1.384 . S
C333 C332 1.377 . S
C333 C339 1.390 . S
C334 H325 0.930 . S
C334 C332 1.384 . S
C334 C335 1.372 . S
C335 C334 1.372 . S
C335 C336 1.400 . S
C335 C340 1.490 . S
C336 H326 0.930 . S
C336 C335 1.400 . S
C336 C339 1.386 . S
H337 C353 0.930 . S
H338 C354 0.931 . S
C339 H327 0.929 . S
C339 C333 1.390 . S
C339 C336 1.386 . S
C340 C335 1.490 . S
C340 C342 1.395 . S
C340 C343 1.403 . S
H341 C347 0.930 . S
C342 H328 0.930 . S
C342 C340 1.395 . S
C342 C345 1.403 . S
C343 C340 1.403 . S
C343 C344 1.524 . S
C343 C347 1.400 . S
C344 H329 0.960 . S
C344 H330 0.960 . S
C344 H331 0.960 . S
C344 C343 1.524 . S
C345 C342 1.403 . S
C345 C346 1.392 . S
C345 C349 1.495 . S
C346 C345 1.392 . S
C346 C347 1.385 . S
C346 C348 1.478 . S
C347 H341 0.930 . S
C347 C343 1.400 . S
C347 C346 1.385 . S
C348 C346 1.478 . S
C348 C350 1.381 . S
C348 C354 1.383 . S
C349 C345 1.495 . S
C349 H355 0.959 . S
C349 H356 0.961 . S
C349 H357 0.960 . S
C350 C348 1.381 . S
C350 C351 1.394 . S
C350 H358 0.930 . S
C351 C350 1.394 . S
C351 C352 1.383 . S
C351 H359 0.929 . S
C352 C351 1.383 . S
C352 C353 1.377 . S
C353 H337 0.930 . S
C353 C352 1.377 . S
C353 C354 1.379 . S
C354 H338 0.931 . S
C354 C348 1.383 . S
C354 C353 1.379 . S
H355 C349 0.959 . S
H356 C349 0.961 . S
H357 C349 0.960 . S
H358 C350 0.930 . S
H359 C351 0.929 . S
H360 C368 0.929 . S
H361 C370 0.930 . S
H362 C372 0.930 . S
H363 C375 0.929 . S
H364 C378 0.930 . S
H365 C380 0.960 1_554 S
H366 C380 0.960 1_554 S
H367 C380 0.960 . S
C368 H360 0.929 . S
C368 C369 1.377 . S
C368 C370 1.384 . S
C369 C368 1.377 . S
C369 C375 1.390 . S
C370 H361 0.930 . S
C370 C368 1.384 . S
C370 C371 1.372 . S
C371 C370 1.372 . S
C371 C372 1.400 . S
C371 C376 1.490 . S
C372 H362 0.930 . S
C372 C371 1.400 . S
C372 C375 1.386 . S
H373 C389 0.930 . S
H374 C390 0.931 . S
C375 H363 0.929 . S
C375 C369 1.390 . S
C375 C372 1.386 . S
C376 C371 1.490 . S
C376 C378 1.395 . S
C376 C379 1.403 . S
H377 C383 0.930 1_554 S
C378 H364 0.930 . S
C378 C376 1.395 . S
C378 C381 1.403 . S
C379 C376 1.403 . S
C379 C380 1.524 . S
C379 C383 1.400 . S
C380 H365 0.960 1_556 S
C380 H366 0.960 1_556 S
C380 H367 0.960 . S
C380 C379 1.524 . S
C381 C378 1.403 . S
C381 C382 1.392 . S
C381 C385 1.495 . S
C382 C381 1.392 . S
C382 C383 1.385 . S
C382 C384 1.478 . S
C383 H377 0.930 1_556 S
C383 C379 1.400 . S
C383 C382 1.385 . S
C384 C382 1.478 . S
C384 C386 1.381 1_556 S
C384 C390 1.383 . S
C385 C381 1.495 . S
C385 H391 0.959 . S
C385 H392 0.961 . S
C385 H393 0.960 . S
C386 C384 1.381 1_554 S
C386 C387 1.394 . S
C386 H394 0.930 . S
C387 C386 1.394 . S
C387 C388 1.383 . S
C387 H395 0.929 . S
C388 C387 1.383 . S
C388 C389 1.377 . S
C389 H373 0.930 . S
C389 C388 1.377 . S
C389 C390 1.379 1_554 S
C390 H374 0.931 . S
C390 C384 1.383 . S
C390 C389 1.379 1_556 S
H391 C385 0.959 . S
H392 C385 0.961 . S
H393 C385 0.960 . S
H394 C386 0.930 . S
H395 C387 0.929 . S
H396 C404 0.929 . S
H397 C406 0.930 . S
H398 C408 0.930 . S
H399 C411 0.929 . S
H400 C414 0.930 . S
H401 C416 0.960 . S
H402 C416 0.960 . S
H403 C416 0.960 . S
C404 H396 0.929 . S
C404 C405 1.377 . S
C404 C406 1.384 . S
C405 C404 1.377 . S
C405 C411 1.390 . S
C406 H397 0.930 . S
C406 C404 1.384 . S
C406 C407 1.372 . S
C407 C406 1.372 . S
C407 C408 1.400 . S
C407 C412 1.490 . S
C408 H398 0.930 . S
C408 C407 1.400 . S
C408 C411 1.386 . S
H409 C425 0.930 . S
H410 C426 0.931 . S
C411 H399 0.929 . S
C411 C405 1.390 . S
C411 C408 1.386 . S
C412 C407 1.490 . S
C412 C414 1.395 . S
C412 C415 1.403 . S
H413 C419 0.930 . S
C414 H400 0.930 . S
C414 C412 1.395 . S
C414 C417 1.403 . S
C415 C412 1.403 . S
C415 C416 1.524 . S
C415 C419 1.400 . S
C416 H401 0.960 . S
C416 H402 0.960 . S
C416 H403 0.960 . S
C416 C415 1.524 . S
C417 C414 1.403 . S
C417 C418 1.392 . S
C417 C421 1.495 . S
C418 C417 1.392 . S
C418 C419 1.385 . S
C418 C420 1.478 . S
C419 H413 0.930 . S
C419 C415 1.400 . S
C419 C418 1.385 . S
C420 C418 1.478 . S
C420 C422 1.381 . S
C420 C426 1.383 . S
C421 C417 1.495 . S
C421 H427 0.959 . S
C421 H428 0.961 . S
C421 H429 0.960 . S
C422 C420 1.381 . S
C422 C423 1.394 . S
C422 H430 0.930 . S
C423 C422 1.394 . S
C423 C424 1.383 . S
C423 H431 0.929 . S
C424 C423 1.383 . S
C424 C425 1.377 . S
C425 H409 0.930 . S
C425 C424 1.377 . S
C425 C426 1.379 . S
C426 H410 0.931 . S
C426 C420 1.383 . S
C426 C425 1.379 . S
H427 C421 0.959 . S
H428 C421 0.961 . S
H429 C421 0.960 . S
H430 C422 0.930 . S
H431 C423 0.929 . S
H432 C440 0.929 . S
H433 C442 0.930 . S
H434 C444 0.930 1_545 S
H435 C447 0.898 1_545 S
H436 C450 0.930 . S
H437 C452 0.960 . S
H438 C452 0.960 . S
H439 C452 0.960 . S
C440 H432 0.929 . S
C440 C441 1.377 . S
C440 C442 1.384 . S
C441 C440 1.377 . S
C441 C447 1.413 . S
C442 H433 0.930 . S
C442 C440 1.384 . S
C442 C443 1.372 . S
C443 C442 1.372 . S
C443 C444 1.400 . S
C443 C448 1.490 . S
C444 H434 0.930 1_565 S
C444 C443 1.400 . S
C444 C447 1.394 . S
H445 C461 0.930 . S
H446 C462 0.931 . S
C447 H435 0.898 1_565 S
C447 C441 1.413 . S
C447 C444 1.394 . S
C448 C443 1.490 . S
C448 C450 1.395 . S
C448 C451 1.403 . S
H449 C455 0.930 . S
C450 H436 0.930 . S
C450 C448 1.395 . S
C450 C453 1.403 . S
C451 C448 1.403 . S
C451 C452 1.524 . S
C451 C455 1.400 . S
C452 H437 0.960 . S
C452 H438 0.960 . S
C452 H439 0.960 . S
C452 C451 1.524 . S
C453 C450 1.403 . S
C453 C454 1.392 . S
C453 C457 1.495 . S
C454 C453 1.392 . S
C454 C455 1.385 . S
C454 C456 1.478 . S
C455 H449 0.930 . S
C455 C451 1.400 . S
C455 C454 1.385 . S
C456 C454 1.478 . S
C456 C458 1.381 . S
C456 C462 1.383 . S
C457 C453 1.495 . S
C457 H463 0.959 . S
C457 H464 0.961 . S
C457 H465 0.960 . S
C458 C456 1.381 . S
C458 C459 1.394 . S
C458 H466 0.930 . S
C459 C458 1.394 . S
C459 C460 1.383 . S
C459 H467 0.929 . S
C460 C459 1.383 . S
C460 C461 1.377 . S
C461 H445 0.930 . S
C461 C460 1.377 . S
C461 C462 1.379 . S
C462 H446 0.931 . S
C462 C456 1.383 . S
C462 C461 1.379 . S
H463 C457 0.959 . S
H464 C457 0.961 . S
H465 C457 0.960 . S
H466 C458 0.930 . S
H467 C459 0.929 . S
H468 C476 0.929 . S
H469 C478 0.930 . S
H470 C480 0.930 . S
H471 C483 0.929 . S
H472 C486 0.930 . S
H473 C488 0.960 . S
H474 C488 0.960 . S
H475 C488 0.960 . S
C476 H468 0.929 . S
C476 C477 1.377 . S
C476 C478 1.384 . S
C477 C476 1.377 . S
C477 C483 1.390 . S
C478 H469 0.930 . S
C478 C476 1.384 . S
C478 C479 1.372 . S
C479 C478 1.372 . S
C479 C480 1.400 . S
C479 C484 1.490 . S
C480 H470 0.930 . S
C480 C479 1.400 . S
C480 C483 1.386 . S
H481 C497 0.930 . S
H482 C498 0.931 . S
C483 H471 0.929 . S
C483 C477 1.390 . S
C483 C480 1.386 . S
C484 C479 1.490 . S
C484 C486 1.395 . S
C484 C487 1.403 . S
H485 C491 0.930 . S
C486 H472 0.930 . S
C486 C484 1.395 . S
C486 C489 1.403 1_545 S
C487 C484 1.403 . S
C487 C488 1.524 . S
C487 C491 1.400 1_545 S
C488 H473 0.960 . S
C488 H474 0.960 . S
C488 H475 0.960 . S
C488 C487 1.524 . S
C489 C486 1.403 1_565 S
C489 C490 1.392 . S
C489 C493 1.495 . S
C490 C489 1.392 . S
C490 C491 1.385 . S
C490 C492 1.478 . S
C491 H485 0.930 . S
C491 C487 1.400 1_565 S
C491 C490 1.385 . S
C492 C490 1.478 . S
C492 C494 1.381 . S
C492 C498 1.383 . S
C493 C489 1.495 . S
C493 H499 0.959 1_565 S
C493 H500 0.961 . S
C493 H501 0.960 . S
C494 C492 1.381 . S
C494 C495 1.394 . S
C494 H502 0.930 . S
C495 C494 1.394 . S
C495 C496 1.383 . S
C495 H503 0.929 . S
C496 C495 1.383 . S
C496 C497 1.377 . S
C497 H481 0.930 . S
C497 C496 1.377 . S
C497 C498 1.379 . S
C498 H482 0.931 . S
C498 C492 1.383 . S
C498 C497 1.379 . S
H499 C493 0.959 1_545 S
H500 C493 0.961 . S
H501 C493 0.960 . S
H502 C494 0.930 . S
H503 C495 0.929 . S
H504 C512 0.929 . S
H505 C514 0.930 . S
H506 C516 0.930 . S
H507 C519 0.929 . S
H508 C522 0.930 . S
H509 C524 0.960 . S
H510 C524 0.960 . S
H511 C524 0.960 . S
C512 H504 0.929 . S
C512 C513 1.377 . S
C512 C514 1.384 . S
C513 C512 1.377 . S
C513 C519 1.390 . S
C514 H505 0.930 . S
C514 C512 1.384 . S
C514 C515 1.372 . S
C515 C514 1.372 . S
C515 C516 1.400 . S
C515 C520 1.490 . S
C516 H506 0.930 . S
C516 C515 1.400 . S
C516 C519 1.386 . S
H517 C533 0.930 . S
H518 C534 0.931 . S
C519 H507 0.929 . S
C519 C513 1.390 . S
C519 C516 1.386 . S
C520 C515 1.490 . S
C520 C522 1.395 . S
C520 C523 1.403 . S
H521 C527 0.930 . S
C522 H508 0.930 . S
C522 C520 1.395 . S
C522 C525 1.403 . S
C523 C520 1.403 . S
C523 C524 1.524 . S
C523 C527 1.400 . S
C524 H509 0.960 . S
C524 H510 0.960 . S
C524 H511 0.960 . S
C524 C523 1.524 . S
C525 C522 1.403 . S
C525 C526 1.392 . S
C525 C529 1.495 . S
C526 C525 1.392 . S
C526 C527 1.385 . S
C526 C528 1.478 . S
C527 H521 0.930 . S
C527 C523 1.400 . S
C527 C526 1.385 . S
C528 C526 1.478 . S
C528 C530 1.381 . S
C528 C534 1.383 . S
C529 C525 1.495 . S
C529 H535 0.959 . S
C529 H536 0.961 . S
C529 H537 0.960 . S
C530 C528 1.381 . S
C530 C531 1.394 . S
C530 H538 0.930 . S
C531 C530 1.394 . S
C531 C532 1.383 . S
C531 H539 0.929 . S
C532 C531 1.383 . S
C532 C533 1.377 . S
C533 H517 0.930 . S
C533 C532 1.377 . S
C533 C534 1.379 . S
C534 H518 0.931 . S
C534 C528 1.383 . S
C534 C533 1.379 . S
H535 C529 0.959 . S
H536 C529 0.961 . S
H537 C529 0.960 . S
H538 C530 0.930 . S
H539 C531 0.929 . S
H540 C548 0.929 . S
H541 C550 0.930 . S
H542 C552 0.930 . S
H543 C555 0.929 . S
H544 C558 0.930 . S
H545 C560 0.960 . S
H546 C560 0.960 . S
H547 C560 0.960 . S
C548 H540 0.929 . S
C548 C549 1.377 . S
C548 C550 1.384 . S
C549 C548 1.377 . S
C549 C555 1.390 . S
C550 H541 0.930 . S
C550 C548 1.384 . S
C550 C551 1.372 . S
C551 C550 1.372 . S
C551 C552 1.400 . S
C551 C556 1.490 . S
C552 H542 0.930 . S
C552 C551 1.400 . S
C552 C555 1.386 . S
H553 C569 0.930 . S
H554 C570 0.931 . S
C555 H543 0.929 . S
C555 C549 1.390 . S
C555 C552 1.386 . S
C556 C551 1.490 . S
C556 C558 1.395 . S
C556 C559 1.403 . S
H557 C563 0.930 . S
C558 H544 0.930 . S
C558 C556 1.395 . S
C558 C561 1.403 . S
C559 C556 1.403 . S
C559 C560 1.524 . S
C559 C563 1.400 . S
C560 H545 0.960 . S
C560 H546 0.960 . S
C560 H547 0.960 . S
C560 C559 1.524 . S
C561 C558 1.403 . S
C561 C562 1.392 . S
C561 C565 1.495 . S
C562 C561 1.392 . S
C562 C563 1.385 . S
C562 C564 1.478 . S
C563 H557 0.930 . S
C563 C559 1.400 . S
C563 C562 1.385 . S
C564 C562 1.478 . S
C564 C566 1.381 . S
C564 C570 1.383 . S
C565 C561 1.495 . S
C565 H571 0.959 . S
C565 H572 0.961 . S
C565 H573 0.960 . S
C566 C564 1.381 . S
C566 C567 1.394 . S
C566 H574 0.930 . S
C567 C566 1.394 . S
C567 C568 1.383 . S
C567 H575 0.929 . S
C568 C567 1.383 . S
C568 C569 1.377 . S
C569 H553 0.930 . S
C569 C568 1.377 . S
C569 C570 1.379 . S
C570 H554 0.931 . S
C570 C564 1.383 . S
C570 C569 1.379 . S
H571 C565 0.959 . S
H572 C565 0.961 . S
H573 C565 0.960 . S
H574 C566 0.930 . S
H575 C567 0.929 . S
H576 C584 0.929 . S
H577 C586 0.930 . S
H578 C588 0.930 . S
H579 C591 0.929 . S
H580 C594 0.930 . S
H581 C596 0.960 . S
H582 C596 0.960 . S
H583 C596 0.960 . S
C584 H576 0.929 . S
C584 C585 1.377 . S
C584 C586 1.384 . S
C585 C584 1.377 . S
C585 C591 1.390 . S
C586 H577 0.930 . S
C586 C584 1.384 . S
C586 C587 1.372 . S
C587 C586 1.372 . S
C587 C588 1.400 . S
C587 C592 1.490 . S
C588 H578 0.930 . S
C588 C587 1.400 . S
C588 C591 1.386 . S
H589 C605 0.930 . S
H590 C606 0.931 . S
C591 H579 0.929 . S
C591 C585 1.390 . S
C591 C588 1.386 . S
C592 C587 1.490 . S
C592 C594 1.395 . S
C592 C595 1.403 . S
H593 C599 0.930 . S
C594 H580 0.930 . S
C594 C592 1.395 . S
C594 C597 1.403 . S
C595 C592 1.403 . S
C595 C596 1.524 . S
C595 C599 1.400 . S
C596 H581 0.960 . S
C596 H582 0.960 . S
C596 H583 0.960 . S
C596 C595 1.524 . S
C597 C594 1.403 . S
C597 C598 1.392 1_455 S
C597 C601 1.495 1_455 S
C598 C597 1.392 1_655 S
C598 C599 1.385 1_655 S
C598 C600 1.478 . S
C599 H593 0.930 . S
C599 C595 1.400 . S
C599 C598 1.385 1_455 S
C600 C598 1.478 . S
C600 C602 1.381 . S
C600 C606 1.383 . S
C601 C597 1.495 1_655 S
C601 H607 0.959 . S
C601 H608 0.961 . S
C601 H609 0.960 . S
C602 C600 1.381 . S
C602 C603 1.394 . S
C602 H610 0.930 . S
C603 C602 1.394 . S
C603 C604 1.383 . S
C603 H611 0.929 . S
C604 C603 1.383 . S
C604 C605 1.377 . S
C605 H589 0.930 . S
C605 C604 1.377 . S
C605 C606 1.379 . S
C606 H590 0.931 . S
C606 C600 1.383 . S
C606 C605 1.379 . S
H607 C601 0.959 . S
H608 C601 0.961 . S
H609 C601 0.960 . S
H610 C602 0.930 . S
H611 C603 0.929 . S
H612 C620 0.929 . S
H613 C622 0.930 . S
H614 C624 0.930 . S
H615 C627 0.929 . S
H616 C630 0.932 . S
H617 C632 0.960 . S
H618 C632 0.960 1_455 S
H619 C632 0.960 . S
C620 H612 0.929 . S
C620 C621 1.377 . S
C620 C622 1.384 . S
C621 C620 1.377 . S
C621 C627 1.390 1_455 S
C622 H613 0.930 . S
C622 C620 1.384 . S
C622 C623 1.372 1_455 S
C623 C622 1.372 1_655 S
C623 C624 1.400 . S
C623 C628 1.490 . S
C624 H614 0.930 . S
C624 C623 1.400 . S
C624 C627 1.386 . S
H625 C641 0.930 . S
H626 C642 0.931 . S
C627 H615 0.929 . S
C627 C621 1.390 1_655 S
C627 C624 1.386 . S
C628 C623 1.490 . S
C628 C630 1.395 . S
C628 C631 1.403 . S
H629 C635 0.930 . S
C630 H616 0.932 . S
C630 C628 1.395 . S
C630 C633 1.403 . S
C631 C628 1.403 . S
C631 C632 1.524 . S
C631 C635 1.400 . S
C632 H617 0.960 . S
C632 H618 0.960 1_655 S
C632 H619 0.960 . S
C632 C631 1.524 . S
C633 C630 1.403 . S
C633 C634 1.392 . S
C633 C637 1.495 . S
C634 C633 1.392 . S
C634 C635 1.385 . S
C634 C636 1.478 . S
C635 H629 0.930 . S
C635 C631 1.400 . S
C635 C634 1.385 . S
C636 C634 1.478 . S
C636 C638 1.401 . S
C636 C642 1.383 . S
C637 C633 1.495 . S
C637 H643 0.959 . S
C637 H644 0.961 . S
C637 H645 0.960 1_655 S
C638 C636 1.401 . S
C638 C639 1.399 . S
C638 H646 0.906 1_655 S
C639 C638 1.399 . S
C639 C640 1.383 . S
C639 H647 0.929 1_655 S
C640 C639 1.383 . S
C640 C641 1.377 . S
C641 H625 0.930 . S
C641 C640 1.377 . S
C641 C642 1.379 . S
C642 H626 0.931 . S
C642 C636 1.383 . S
C642 C641 1.379 . S
H643 C637 0.959 . S
H644 C637 0.961 . S
H645 C637 0.960 1_455 S
H646 C638 0.906 1_455 S
H647 C639 0.929 1_455 S
H648 C656 0.929 . S
H649 C658 0.930 . S
H650 C660 0.930 . S
H651 C663 0.929 . S
H652 C666 0.930 . S
H653 C668 0.960 . S
H654 C668 0.960 . S
H655 C668 0.960 . S
C656 H648 0.929 . S
C656 C657 1.377 . S
C656 C658 1.384 . S
C657 C656 1.377 . S
C657 C663 1.390 . S
C658 H649 0.930 . S
C658 C656 1.384 . S
C658 C659 1.372 . S
C659 C658 1.372 . S
C659 C660 1.400 . S
C659 C664 1.490 . S
C660 H650 0.930 . S
C660 C659 1.400 . S
C660 C663 1.386 . S
H661 C677 0.930 . S
H662 C678 0.931 . S
C663 H651 0.929 . S
C663 C657 1.390 . S
C663 C660 1.386 . S
C664 C659 1.490 . S
C664 C666 1.395 . S
C664 C667 1.403 . S
H665 C671 0.930 . S
C666 H652 0.930 . S
C666 C664 1.395 . S
C666 C669 1.403 . S
C667 C664 1.403 . S
C667 C668 1.524 . S
C667 C671 1.400 . S
C668 H653 0.960 . S
C668 H654 0.960 . S
C668 H655 0.960 . S
C668 C667 1.524 . S
C669 C666 1.403 . S
C669 C670 1.392 . S
C669 C673 1.495 . S
C670 C669 1.392 . S
C670 C671 1.385 . S
C670 C672 1.478 . S
C671 H665 0.930 . S
C671 C667 1.400 . S
C671 C670 1.385 . S
C672 C670 1.478 . S
C672 C674 1.381 . S
C672 C678 1.383 . S
C673 C669 1.495 . S
C673 H679 0.959 . S
C673 H680 0.961 . S
C673 H681 0.960 . S
C674 C672 1.381 . S
C674 C675 1.394 . S
C674 H682 0.930 . S
C675 C674 1.394 . S
C675 C676 1.383 . S
C675 H683 0.929 . S
C676 C675 1.383 . S
C676 C677 1.377 . S
C677 H661 0.930 . S
C677 C676 1.377 . S
C677 C678 1.379 . S
C678 H662 0.931 . S
C678 C672 1.383 . S
C678 C677 1.379 . S
H679 C673 0.959 . S
H680 C673 0.961 . S
H681 C673 0.960 . S
H682 C674 0.930 . S
H683 C675 0.929 . S
H684 C692 0.929 . S
H685 C694 0.930 . S
H686 C696 0.930 . S
H687 C699 0.929 . S
H688 C702 0.930 . S
H689 C704 0.960 . S
H690 C704 0.960 1_455 S
H691 C704 0.960 1_455 S
C692 H684 0.929 . S
C692 C693 1.377 . S
C692 C694 1.384 . S
C693 C692 1.377 . S
C693 C699 1.390 . S
C694 H685 0.930 . S
C694 C692 1.384 . S
C694 C695 1.372 . S
C695 C694 1.372 . S
C695 C696 1.400 . S
C695 C700 1.490 . S
C696 H686 0.930 . S
C696 C695 1.400 . S
C696 C699 1.386 . S
H697 C713 0.930 . S
H698 C714 0.931 . S
C699 H687 0.929 . S
C699 C693 1.390 . S
C699 C696 1.386 . S
C700 C695 1.490 . S
C700 C702 1.395 . S
C700 C703 1.403 . S
H701 C707 0.930 . S
C702 H688 0.930 . S
C702 C700 1.395 . S
C702 C705 1.403 . S
C703 C700 1.403 . S
C703 C704 1.524 1_455 S
C703 C707 1.400 1_455 S
C704 H689 0.960 . S
C704 H690 0.960 1_655 S
C704 H691 0.960 1_655 S
C704 C703 1.524 1_655 S
C705 C702 1.403 . S
C705 C706 1.392 1_455 S
C705 C709 1.495 . S
C706 C705 1.392 1_655 S
C706 C707 1.385 . S
C706 C708 1.478 . S
C707 H701 0.930 . S
C707 C703 1.400 1_655 S
C707 C706 1.385 . S
C708 C706 1.478 . S
C708 C710 1.381 . S
C708 C714 1.383 . S
C709 C705 1.495 . S
C709 H715 0.959 . S
C709 H716 0.961 . S
C709 H717 0.960 . S
C710 C708 1.381 . S
C710 C711 1.394 . S
C710 H718 0.930 . S
C711 C710 1.394 . S
C711 C712 1.383 . S
C711 H719 0.929 . S
C712 C711 1.383 . S
C712 C713 1.377 . S
C713 H697 0.930 . S
C713 C712 1.377 . S
C713 C714 1.379 . S
C714 H698 0.931 . S
C714 C708 1.383 . S
C714 C713 1.379 . S
H715 C709 0.959 . S
H716 C709 0.961 . S
H717 C709 0.960 . S
H718 C710 0.930 . S
H719 C711 0.929 . S
H720 C728 0.929 . S
H721 C730 0.930 . S
H722 C732 0.930 . S
H723 C735 0.929 . S
H724 C738 0.930 . S
H725 C740 0.960 . S
H726 C740 0.960 . S
H727 C740 0.960 . S
C728 H720 0.929 . S
C728 C729 1.377 . S
C728 C730 1.384 . S
C729 C728 1.377 . S
C729 C735 1.390 . S
C730 H721 0.930 . S
C730 C728 1.384 . S
C730 C731 1.372 . S
C731 C730 1.372 . S
C731 C732 1.400 . S
C731 C736 1.490 . S
C732 H722 0.930 . S
C732 C731 1.400 . S
C732 C735 1.386 . S
H733 C749 0.930 . S
H734 C750 0.931 . S
C735 H723 0.929 . S
C735 C729 1.390 . S
C735 C732 1.386 . S
C736 C731 1.490 . S
C736 C738 1.395 . S
C736 C739 1.403 . S
H737 C743 0.930 . S
C738 H724 0.930 . S
C738 C736 1.395 . S
C738 C741 1.403 . S
C739 C736 1.403 . S
C739 C740 1.524 . S
C739 C743 1.400 . S
C740 H725 0.960 . S
C740 H726 0.960 . S
C740 H727 0.960 . S
C740 C739 1.524 . S
C741 C738 1.403 . S
C741 C742 1.392 . S
C741 C745 1.495 . S
C742 C741 1.392 . S
C742 C743 1.385 . S
C742 C744 1.478 . S
C743 H737 0.930 . S
C743 C739 1.400 . S
C743 C742 1.385 . S
C744 C742 1.478 . S
C744 C746 1.381 . S
C744 C750 1.383 . S
C745 C741 1.495 . S
C745 H751 0.959 . S
C745 H752 0.961 . S
C745 H753 0.960 . S
C746 C744 1.381 . S
C746 C747 1.365 1_556 S
C746 H754 0.892 1_556 S
C747 C746 1.365 1_554 S
C747 C748 1.344 1_554 S
C747 H755 1.002 . S
C748 C747 1.344 1_556 S
C748 C749 1.377 . S
C749 H733 0.930 . S
C749 C748 1.377 . S
C749 C750 1.379 . S
C750 H734 0.931 . S
C750 C744 1.383 . S
C750 C749 1.379 . S
H751 C745 0.959 . S
H752 C745 0.961 . S
H753 C745 0.960 . S
H754 C746 0.892 1_554 S
H755 C747 1.002 . S
H756 C764 0.929 . S
H757 C766 0.930 . S
H758 C768 0.930 . S
H759 C771 0.929 . S
H760 C774 0.930 . S
H761 C776 0.960 . S
H762 C776 0.960 . S
H763 C776 0.960 . S
C764 H756 0.929 . S
C764 C765 1.377 . S
C764 C766 1.384 . S
C765 C764 1.377 . S
C765 C771 1.390 . S
C766 H757 0.930 . S
C766 C764 1.384 . S
C766 C767 1.372 . S
C767 C766 1.372 . S
C767 C768 1.400 . S
C767 C772 1.490 . S
C768 H758 0.930 . S
C768 C767 1.400 . S
C768 C771 1.386 . S
H769 C785 0.930 . S
H770 C786 0.931 . S
C771 H759 0.929 . S
C771 C765 1.390 . S
C771 C768 1.386 . S
C772 C767 1.490 . S
C772 C774 1.395 . S
C772 C775 1.403 . S
H773 C779 0.930 . S
C774 H760 0.930 . S
C774 C772 1.395 . S
C774 C777 1.403 . S
C775 C772 1.403 . S
C775 C776 1.524 . S
C775 C779 1.400 . S
C776 H761 0.960 . S
C776 H762 0.960 . S
C776 H763 0.960 . S
C776 C775 1.524 . S
C777 C774 1.403 . S
C777 C778 1.392 . S
C777 C781 1.495 . S
C778 C777 1.392 . S
C778 C779 1.385 . S
C778 C780 1.478 . S
C779 H773 0.930 . S
C779 C775 1.400 . S
C779 C778 1.385 . S
C780 C778 1.478 . S
C780 C782 1.381 . S
C780 C786 1.383 . S
C781 C777 1.495 . S
C781 H787 0.959 . S
C781 H788 0.961 . S
C781 H789 0.960 . S
C782 C780 1.381 . S
C782 C783 1.394 . S
C782 H790 0.930 . S
C783 C782 1.394 . S
C783 C784 1.383 . S
C783 H791 0.929 . S
C784 C783 1.383 . S
C784 C785 1.377 . S
C785 H769 0.930 . S
C785 C784 1.377 . S
C785 C786 1.379 . S
C786 H770 0.931 . S
C786 C780 1.383 . S
C786 C785 1.379 . S
H787 C781 0.959 . S
H788 C781 0.961 . S
H789 C781 0.960 . S
H790 C782 0.930 . S
H791 C783 0.929 . S
H792 C800 0.929 . S
H793 C802 0.930 . S
H794 C804 0.930 . S
H795 C807 0.929 . S
H796 C810 0.930 . S
H797 C812 0.960 . S
H798 C812 0.960 . S
H799 C812 0.960 . S
C800 H792 0.929 . S
C800 C801 1.377 . S
C800 C802 1.384 . S
C801 C800 1.377 . S
C801 C807 1.390 . S
C802 H793 0.930 . S
C802 C800 1.384 . S
C802 C803 1.372 . S
C803 C802 1.372 . S
C803 C804 1.400 . S
C803 C808 1.490 . S
C804 H794 0.930 . S
C804 C803 1.400 . S
C804 C807 1.386 . S
H805 C821 0.930 . S
H806 C822 0.931 . S
C807 H795 0.929 . S
C807 C801 1.390 . S
C807 C804 1.386 . S
C808 C803 1.490 . S
C808 C810 1.395 . S
C808 C811 1.403 . S
H809 C815 0.930 . S
C810 H796 0.930 . S
C810 C808 1.395 . S
C810 C813 1.403 . S
C811 C808 1.403 . S
C811 C812 1.524 . S
C811 C815 1.400 . S
C812 H797 0.960 . S
C812 H798 0.960 . S
C812 H799 0.960 . S
C812 C811 1.524 . S
C813 C810 1.403 . S
C813 C814 1.392 . S
C813 C817 1.495 . S
C814 C813 1.392 . S
C814 C815 1.385 . S
C814 C816 1.460 1_545 S
C815 H809 0.930 . S
C815 C811 1.400 . S
C815 C814 1.385 . S
C816 C814 1.460 1_565 S
C816 C818 1.368 1_565 S
C816 C822 1.414 . S
C817 C813 1.495 . S
C817 H823 0.959 . S
C817 H824 0.961 . S
C817 H825 0.960 . S
C818 C816 1.368 1_545 S
C818 C819 1.394 1_545 S
C818 H826 0.930 . S
C819 C818 1.394 1_565 S
C819 C820 1.383 . S
C819 H827 0.929 1_565 S
C820 C819 1.383 . S
C820 C821 1.377 . S
C821 H805 0.930 . S
C821 C820 1.377 . S
C821 C822 1.379 . S
C822 H806 0.931 . S
C822 C816 1.414 . S
C822 C821 1.379 . S
H823 C817 0.959 . S
H824 C817 0.961 . S
H825 C817 0.960 . S
H826 C818 0.930 . S
H827 C819 0.929 1_545 S
H828 C836 0.929 . S
H829 C838 0.930 . S
H830 C840 0.930 . S
H831 C843 0.929 . S
H832 C846 0.930 . S
H833 C848 0.960 . S
H834 C848 0.960 . S
H835 C848 0.960 . S
C836 H828 0.929 . S
C836 C837 1.377 . S
C836 C838 1.384 . S
C837 C836 1.377 . S
C837 C843 1.390 . S
C838 H829 0.930 . S
C838 C836 1.384 . S
C838 C839 1.372 . S
C839 C838 1.372 . S
C839 C840 1.400 . S
C839 C844 1.490 . S
C840 H830 0.930 . S
C840 C839 1.400 . S
C840 C843 1.386 . S
H841 C857 0.930 . S
H842 C858 0.931 . S
C843 H831 0.929 . S
C843 C837 1.390 . S
C843 C840 1.386 . S
C844 C839 1.490 . S
C844 C846 1.395 . S
C844 C847 1.403 . S
H845 C851 0.930 . S
C846 H832 0.930 . S
C846 C844 1.395 . S
C846 C849 1.403 . S
C847 C844 1.403 . S
C847 C848 1.524 . S
C847 C851 1.400 . S
C848 H833 0.960 . S
C848 H834 0.960 . S
C848 H835 0.960 . S
C848 C847 1.524 . S
C849 C846 1.403 . S
C849 C850 1.392 . S
C849 C853 1.495 . S
C850 C849 1.392 . S
C850 C851 1.385 . S
C850 C852 1.478 . S
C851 H845 0.930 . S
C851 C847 1.400 . S
C851 C850 1.385 . S
C852 C850 1.478 . S
C852 C854 1.381 . S
C852 C858 1.383 . S
C853 C849 1.495 . S
C853 H859 0.959 . S
C853 H860 0.961 . S
C853 H861 0.960 . S
C854 C852 1.381 . S
C854 C855 1.394 . S
C854 H862 0.930 . S
C855 C854 1.394 . S
C855 C856 1.383 . S
C855 H863 0.929 . S
C856 C855 1.383 . S
C856 C857 1.377 . S
C857 H841 0.930 . S
C857 C856 1.377 . S
C857 C858 1.379 . S
C858 H842 0.931 . S
C858 C852 1.383 . S
C858 C857 1.379 . S
H859 C853 0.959 . S
H860 C853 0.961 . S
H861 C853 0.960 . S
H862 C854 0.930 . S
H863 C855 0.929 . S
H864 C872 0.929 . S
H865 C874 0.930 . S
H866 C876 0.930 . S
H867 C879 0.929 . S
H868 C882 0.930 . S
H869 C884 0.960 . S
H870 C884 0.960 . S
H871 C884 0.960 . S
C872 H864 0.929 . S
C872 C873 1.377 . S
C872 C874 1.384 . S
C873 C872 1.377 . S
C873 C879 1.390 . S
C874 H865 0.930 . S
C874 C872 1.384 . S
C874 C875 1.372 . S
C875 C874 1.372 . S
C875 C876 1.400 . S
C875 C880 1.490 . S
C876 H866 0.930 . S
C876 C875 1.400 . S
C876 C879 1.386 . S
H877 C893 0.930 . S
H878 C894 0.931 . S
C879 H867 0.929 . S
C879 C873 1.390 . S
C879 C876 1.386 . S
C880 C875 1.490 . S
C880 C882 1.395 . S
C880 C883 1.403 . S
H881 C887 0.930 . S
C882 H868 0.930 . S
C882 C880 1.395 . S
C882 C885 1.403 . S
C883 C880 1.403 . S
C883 C884 1.524 . S
C883 C887 1.400 . S
C884 H869 0.960 . S
C884 H870 0.960 . S
C884 H871 0.960 . S
C884 C883 1.524 . S
C885 C882 1.403 . S
C885 C886 1.392 . S
C885 C889 1.495 . S
C886 C885 1.392 . S
C886 C887 1.385 . S
C886 C888 1.478 . S
C887 H881 0.930 . S
C887 C883 1.400 . S
C887 C886 1.385 . S
C888 C886 1.478 . S
C888 C890 1.381 . S
C888 C894 1.383 . S
C889 C885 1.495 . S
C889 H895 0.959 . S
C889 H896 0.961 . S
C889 H897 0.960 . S
C890 C888 1.381 . S
C890 C891 1.394 . S
C890 H898 0.930 . S
C891 C890 1.394 . S
C891 C892 1.383 . S
C891 H899 0.929 . S
C892 C891 1.383 . S
C892 C893 1.377 . S
C893 H877 0.930 . S
C893 C892 1.377 . S
C893 C894 1.379 . S
C894 H878 0.931 . S
C894 C888 1.383 . S
C894 C893 1.379 . S
H895 C889 0.959 . S
H896 C889 0.961 . S
H897 C889 0.960 . S
H898 C890 0.930 . S
H899 C891 0.929 . S
H900 C908 0.929 . S
H901 C910 0.930 . S
H902 C912 0.930 . S
H903 C915 0.929 . S
H904 C918 0.930 . S
H905 C920 0.960 . S
H906 C920 0.960 . S
H907 C920 0.960 . S
C908 H900 0.929 . S
C908 C909 1.377 . S
C908 C910 1.384 . S
C909 C908 1.377 . S
C909 C915 1.390 . S
C910 H901 0.930 . S
C910 C908 1.384 . S
C910 C911 1.372 . S
C911 C910 1.372 . S
C911 C912 1.400 . S
C911 C916 1.490 . S
C912 H902 0.930 . S
C912 C911 1.400 . S
C912 C915 1.386 . S
H913 C929 0.930 . S
H914 C930 0.931 . S
C915 H903 0.929 . S
C915 C909 1.390 . S
C915 C912 1.386 . S
C916 C911 1.490 . S
C916 C918 1.395 . S
C916 C919 1.403 . S
H917 C923 0.930 . S
C918 H904 0.930 . S
C918 C916 1.395 . S
C918 C921 1.403 . S
C919 C916 1.403 . S
C919 C920 1.524 . S
C919 C923 1.400 . S
C920 H905 0.960 . S
C920 H906 0.960 . S
C920 H907 0.960 . S
C920 C919 1.524 . S
C921 C918 1.403 . S
C921 C922 1.392 . S
C921 C925 1.495 . S
C922 C921 1.392 . S
C922 C923 1.385 . S
C922 C924 1.478 . S
C923 H917 0.930 . S
C923 C919 1.400 . S
C923 C922 1.385 . S
C924 C922 1.478 . S
C924 C926 1.381 . S
C924 C930 1.383 . S
C925 C921 1.495 . S
C925 H931 0.959 . S
C925 H932 0.961 . S
C925 H933 0.960 . S
C926 C924 1.381 . S
C926 C927 1.394 . S
C926 H934 0.930 . S
C927 C926 1.394 . S
C927 C928 1.383 . S
C927 H935 0.929 . S
C928 C927 1.383 . S
C928 C929 1.377 . S
C929 H913 0.930 . S
C929 C928 1.377 . S
C929 C930 1.379 . S
C930 H914 0.931 . S
C930 C924 1.383 . S
C930 C929 1.379 . S
H931 C925 0.959 . S
H932 C925 0.961 . S
H933 C925 0.960 . S
H934 C926 0.930 . S
H935 C927 0.929 . S
H936 C944 0.929 . S
H937 C946 0.930 . S
H938 C948 0.930 . S
H939 C951 0.929 . S
H940 C954 0.930 . S
H941 C956 0.960 . S
H942 C956 0.960 . S
H943 C956 0.960 . S
C944 H936 0.929 . S
C944 C945 1.377 . S
C944 C946 1.384 . S
C945 C944 1.377 . S
C945 C951 1.390 . S
C946 H937 0.930 . S
C946 C944 1.384 . S
C946 C947 1.372 . S
C947 C946 1.372 . S
C947 C948 1.400 . S
C947 C952 1.490 . S
C948 H938 0.930 . S
C948 C947 1.400 . S
C948 C951 1.386 . S
H949 C965 0.930 . S
H950 C966 0.931 . S
C951 H939 0.929 . S
C951 C945 1.390 . S
C951 C948 1.386 . S
C952 C947 1.490 . S
C952 C954 1.395 . S
C952 C955 1.403 . S
H953 C959 0.930 . S
C954 H940 0.930 . S
C954 C952 1.395 . S
C954 C957 1.403 . S
C955 C952 1.403 . S
C955 C956 1.524 . S
C955 C959 1.400 . S
C956 H941 0.960 . S
C956 H942 0.960 . S
C956 H943 0.960 . S
C956 C955 1.524 . S
C957 C954 1.403 . S
C957 C958 1.392 . S
C957 C961 1.495 . S
C958 C957 1.392 . S
C958 C959 1.385 . S
C958 C960 1.478 . S
C959 H953 0.930 . S
C959 C955 1.400 . S
C959 C958 1.385 . S
C960 C958 1.478 . S
C960 C962 1.381 . S
C960 C966 1.383 . S
C961 C957 1.495 . S
C961 H967 0.959 . S
C961 H968 0.961 . S
C961 H969 0.960 . S
C962 C960 1.381 . S
C962 C963 1.394 . S
C962 H970 0.930 . S
C963 C962 1.394 . S
C963 C964 1.383 . S
C963 H971 0.929 . S
C964 C963 1.383 . S
C964 C965 1.377 . S
C965 H949 0.930 . S
C965 C964 1.377 . S
C965 C966 1.379 . S
C966 H950 0.931 . S
C966 C960 1.383 . S
C966 C965 1.379 . S
H967 C961 0.959 . S
H968 C961 0.961 . S
H969 C961 0.960 . S
H970 C962 0.930 . S
H971 C963 0.929 . S
H972 C980 0.929 . S
H973 C982 0.930 . S
H974 C984 0.930 . S
H975 C987 0.929 . S
H976 C990 0.930 . S
H977 C992 0.960 . S
H978 C992 0.960 . S
H979 C992 0.960 . S
C980 H972 0.929 . S
C980 C981 1.377 . S
C980 C982 1.384 . S
C981 C980 1.377 . S
C981 C987 1.390 . S
C982 H973 0.930 . S
C982 C980 1.384 . S
C982 C983 1.372 . S
C983 C982 1.372 . S
C983 C984 1.400 . S
C983 C988 1.490 . S
C984 H974 0.930 . S
C984 C983 1.400 . S
C984 C987 1.386 . S
H985 C1001 0.930 . S
H986 C1002 0.931 . S
C987 H975 0.929 . S
C987 C981 1.390 . S
C987 C984 1.386 . S
C988 C983 1.490 . S
C988 C990 1.395 . S
C988 C991 1.403 . S
H989 C995 0.930 . S
C990 H976 0.930 . S
C990 C988 1.395 . S
C990 C993 1.403 . S
C991 C988 1.403 . S
C991 C992 1.524 . S
C991 C995 1.400 . S
C992 H977 0.960 . S
C992 H978 0.960 . S
C992 H979 0.960 . S
C992 C991 1.524 . S
C993 C990 1.403 . S
C993 C994 1.392 . S
C993 C997 1.495 . S
C994 C993 1.392 . S
C994 C995 1.385 . S
C994 C996 1.478 . S
C995 H989 0.930 . S
C995 C991 1.400 . S
C995 C994 1.385 . S
C996 C994 1.478 . S
C996 C998 1.381 . S
C996 C1002 1.383 . S
C997 C993 1.495 . S
C997 H1003 0.959 . S
C997 H1004 0.961 . S
C997 H1005 0.960 . S
C998 C996 1.381 . S
C998 C999 1.394 . S
C998 H1006 0.930 . S
C999 C998 1.394 . S
C999 C1000 1.383 . S
C999 H1007 0.929 . S
C1000 C999 1.383 . S
C1000 C1001 1.377 . S
C1001 H985 0.930 . S
C1001 C1000 1.377 . S
C1001 C1002 1.379 . S
C1002 H986 0.931 . S
C1002 C996 1.383 . S
C1002 C1001 1.379 . S
H1003 C997 0.959 . S
H1004 C997 0.961 . S
H1005 C997 0.960 . S
H1006 C998 0.930 . S
H1007 C999 0.929 . S
H1008 C1016 0.929 . S
H1009 C1018 0.930 . S
H1010 C1020 0.930 . S
H1011 C1023 0.929 . S
H1012 C1026 0.930 . S
H1013 C1028 0.960 . S
H1014 C1028 0.960 . S
H1015 C1028 0.960 . S
C1016 H1008 0.929 . S
C1016 C1017 1.377 . S
C1016 C1018 1.384 . S
C1017 C1016 1.377 . S
C1017 C1023 1.390 . S
C1018 H1009 0.930 . S
C1018 C1016 1.384 . S
C1018 C1019 1.372 . S
C1019 C1018 1.372 . S
C1019 C1020 1.400 . S
C1019 C1024 1.490 . S
C1020 H1010 0.930 . S
C1020 C1019 1.400 . S
C1020 C1023 1.386 . S
H1021 C1037 0.930 . S
H1022 C1038 0.931 . S
C1023 H1011 0.929 . S
C1023 C1017 1.390 . S
C1023 C1020 1.386 . S
C1024 C1019 1.490 . S
C1024 C1026 1.395 . S
C1024 C1027 1.403 . S
H1025 C1031 0.930 . S
C1026 H1012 0.930 . S
C1026 C1024 1.395 . S
C1026 C1029 1.403 . S
C1027 C1024 1.403 . S
C1027 C1028 1.524 . S
C1027 C1031 1.400 . S
C1028 H1013 0.960 . S
C1028 H1014 0.960 . S
C1028 H1015 0.960 . S
C1028 C1027 1.524 . S
C1029 C1026 1.403 . S
C1029 C1030 1.392 . S
C1029 C1033 1.495 . S
C1030 C1029 1.392 . S
C1030 C1031 1.385 . S
C1030 C1032 1.478 . S
C1031 H1025 0.930 . S
C1031 C1027 1.400 . S
C1031 C1030 1.385 . S
C1032 C1030 1.478 . S
C1032 C1034 1.381 . S
C1032 C1038 1.383 . S
C1033 C1029 1.495 . S
C1033 H1039 0.959 . S
C1033 H1040 0.961 . S
C1033 H1041 0.960 . S
C1034 C1032 1.381 . S
C1034 C1035 1.394 . S
C1034 H1042 0.930 . S
C1035 C1034 1.394 . S
C1035 C1036 1.383 . S
C1035 H1043 0.929 . S
C1036 C1035 1.383 . S
C1036 C1037 1.377 . S
C1037 H1021 0.930 . S
C1037 C1036 1.377 . S
C1037 C1038 1.379 . S
C1038 H1022 0.931 . S
C1038 C1032 1.383 . S
C1038 C1037 1.379 . S
H1039 C1033 0.959 . S
H1040 C1033 0.961 . S
H1041 C1033 0.960 . S
H1042 C1034 0.930 . S
H1043 C1035 0.929 . S
H1044 C1052 0.929 . S
H1045 C1054 0.930 . S
H1046 C1056 0.930 . S
H1047 C1059 0.929 . S
H1048 C1062 0.930 . S
H1049 C1064 0.960 . S
H1050 C1064 0.960 . S
H1051 C1064 0.960 . S
C1052 H1044 0.929 . S
C1052 C1053 1.377 . S
C1052 C1054 1.384 . S
C1053 C1052 1.377 . S
C1053 C1059 1.390 . S
C1054 H1045 0.930 . S
C1054 C1052 1.384 . S
C1054 C1055 1.372 . S
C1055 C1054 1.372 . S
C1055 C1056 1.400 . S
C1055 C1060 1.490 . S
C1056 H1046 0.930 . S
C1056 C1055 1.400 . S
C1056 C1059 1.386 . S
H1057 C1073 0.930 . S
H1058 C1074 0.931 . S
C1059 H1047 0.929 . S
C1059 C1053 1.390 . S
C1059 C1056 1.386 . S
C1060 C1055 1.490 . S
C1060 C1062 1.395 . S
C1060 C1063 1.403 . S
H1061 C1067 0.930 . S
C1062 H1048 0.930 . S
C1062 C1060 1.395 . S
C1062 C1065 1.403 . S
C1063 C1060 1.403 . S
C1063 C1064 1.524 . S
C1063 C1067 1.400 . S
C1064 H1049 0.960 . S
C1064 H1050 0.960 . S
C1064 H1051 0.960 . S
C1064 C1063 1.524 . S
C1065 C1062 1.403 . S
C1065 C1066 1.392 . S
C1065 C1069 1.495 1_545 S
C1066 C1065 1.392 . S
C1066 C1067 1.385 . S
C1066 C1068 1.478 . S
C1067 H1061 0.930 . S
C1067 C1063 1.400 . S
C1067 C1066 1.385 . S
C1068 C1066 1.478 . S
C1068 C1070 1.381 1_545 S
C1068 C1074 1.383 . S
C1069 C1065 1.495 1_565 S
C1069 H1075 0.959 . S
C1069 H1076 0.961 . S
C1069 H1077 0.960 . S
C1070 C1068 1.381 1_565 S
C1070 C1071 1.394 . S
C1070 H1078 0.930 . S
C1071 C1070 1.394 . S
C1071 C1072 1.383 . S
C1071 H1079 0.929 . S
C1072 C1071 1.383 . S
C1072 C1073 1.377 1_565 S
C1073 H1057 0.930 . S
C1073 C1072 1.377 1_545 S
C1073 C1074 1.379 . S
C1074 H1058 0.931 . S
C1074 C1068 1.383 . S
C1074 C1073 1.379 . S
H1075 C1069 0.959 . S
H1076 C1069 0.961 . S
H1077 C1069 0.960 . S
H1078 C1070 0.930 . S
H1079 C1071 0.929 . S
H1080 C1088 0.929 . S
H1081 C1090 0.930 . S
H1082 C1092 0.930 . S
H1083 C1095 0.929 . S
H1084 C1098 0.930 . S
H1085 C1100 0.960 . S
H1086 C1100 0.960 . S
H1087 C1100 0.960 . S
C1088 H1080 0.929 . S
C1088 C1089 1.377 . S
C1088 C1090 1.384 . S
C1089 C1088 1.377 . S
C1089 C1095 1.390 . S
C1090 H1081 0.930 . S
C1090 C1088 1.384 . S
C1090 C1091 1.372 . S
C1091 C1090 1.372 . S
C1091 C1092 1.400 . S
C1091 C1096 1.490 . S
C1092 H1082 0.930 . S
C1092 C1091 1.400 . S
C1092 C1095 1.386 . S
H1093 C1109 0.930 . S
H1094 C1110 0.931 . S
C1095 H1083 0.929 . S
C1095 C1089 1.390 . S
C1095 C1092 1.386 . S
C1096 C1091 1.490 . S
C1096 C1098 1.395 . S
C1096 C1099 1.403 . S
H1097 C1103 0.930 . S
C1098 H1084 0.930 . S
C1098 C1096 1.395 . S
C1098 C1101 1.403 . S
C1099 C1096 1.403 . S
C1099 C1100 1.524 . S
C1099 C1103 1.400 . S
C1100 H1085 0.960 . S
C1100 H1086 0.960 . S
C1100 H1087 0.960 . S
C1100 C1099 1.524 . S
C1101 C1098 1.403 . S
C1101 C1102 1.392 . S
C1101 C1105 1.495 . S
C1102 C1101 1.392 . S
C1102 C1103 1.385 . S
C1102 C1104 1.478 . S
C1103 H1097 0.930 . S
C1103 C1099 1.400 . S
C1103 C1102 1.385 . S
C1104 C1102 1.478 . S
C1104 C1106 1.381 . S
C1104 C1110 1.383 . S
C1105 C1101 1.495 . S
C1105 H1111 0.959 . S
C1105 H1112 0.961 . S
C1105 H1113 0.960 . S
C1106 C1104 1.381 . S
C1106 C1107 1.394 . S
C1106 H1114 0.930 . S
C1107 C1106 1.394 . S
C1107 C1108 1.383 . S
C1107 H1115 0.929 . S
C1108 C1107 1.383 . S
C1108 C1109 1.377 . S
C1109 H1093 0.930 . S
C1109 C1108 1.377 . S
C1109 C1110 1.379 . S
C1110 H1094 0.931 . S
C1110 C1104 1.383 . S
C1110 C1109 1.379 . S
H1111 C1105 0.959 . S
H1112 C1105 0.961 . S
H1113 C1105 0.960 . S
H1114 C1106 0.930 . S
H1115 C1107 0.929 . S
H1116 C1124 0.929 . S
H1117 C1126 0.930 . S
H1118 C1128 0.930 . S
H1119 C1131 0.929 . S
H1120 C1134 0.930 . S
H1121 C1136 0.960 . S
H1122 C1136 0.960 . S
H1123 C1136 0.960 . S
C1124 H1116 0.929 . S
C1124 C1125 1.377 . S
C1124 C1126 1.384 . S
C1125 C1124 1.377 . S
C1125 C1131 1.390 . S
C1126 H1117 0.930 . S
C1126 C1124 1.384 . S
C1126 C1127 1.372 . S
C1127 C1126 1.372 . S
C1127 C1128 1.400 . S
C1127 C1132 1.490 . S
C1128 H1118 0.930 . S
C1128 C1127 1.400 . S
C1128 C1131 1.386 . S
H1129 C1145 0.930 . S
H1130 C1146 0.931 . S
C1131 H1119 0.929 . S
C1131 C1125 1.390 . S
C1131 C1128 1.386 . S
C1132 C1127 1.490 . S
C1132 C1134 1.395 . S
C1132 C1135 1.403 . S
H1133 C1139 0.930 . S
C1134 H1120 0.930 . S
C1134 C1132 1.395 . S
C1134 C1137 1.403 . S
C1135 C1132 1.403 . S
C1135 C1136 1.524 . S
C1135 C1139 1.400 . S
C1136 H1121 0.960 . S
C1136 H1122 0.960 . S
C1136 H1123 0.960 . S
C1136 C1135 1.524 . S
C1137 C1134 1.403 . S
C1137 C1138 1.392 . S
C1137 C1141 1.495 . S
C1138 C1137 1.392 . S
C1138 C1139 1.385 . S
C1138 C1140 1.478 . S
C1139 H1133 0.930 . S
C1139 C1135 1.400 . S
C1139 C1138 1.385 . S
C1140 C1138 1.478 . S
C1140 C1142 1.381 . S
C1140 C1146 1.383 . S
C1141 C1137 1.495 . S
C1141 H1147 0.959 . S
C1141 H1148 0.961 . S
C1141 H1149 0.960 . S
C1142 C1140 1.381 . S
C1142 C1143 1.394 . S
C1142 H1150 0.930 . S
C1143 C1142 1.394 . S
C1143 C1144 1.383 . S
C1143 H1151 0.929 . S
C1144 C1143 1.383 . S
C1144 C1145 1.377 . S
C1145 H1129 0.930 . S
C1145 C1144 1.377 . S
C1145 C1146 1.379 . S
C1146 H1130 0.931 . S
C1146 C1140 1.383 . S
C1146 C1145 1.379 . S
H1147 C1141 0.959 . S
H1148 C1141 0.961 . S
H1149 C1141 0.960 . S
H1150 C1142 0.930 . S
H1151 C1143 0.929 . S
H1152 C1160 0.929 . S
H1153 C1162 0.930 . S
H1154 C1164 0.930 . S
H1155 C1167 0.929 . S
H1156 C1170 0.930 . S
H1157 C1172 0.960 . S
H1158 C1172 0.960 . S
H1159 C1172 0.960 . S
C1160 H1152 0.929 . S
C1160 C1161 1.377 . S
C1160 C1162 1.384 . S
C1161 C1160 1.377 . S
C1161 C1167 1.390 . S
C1162 H1153 0.930 . S
C1162 C1160 1.384 . S
C1162 C1163 1.372 . S
C1163 C1162 1.372 . S
C1163 C1164 1.400 . S
C1163 C1168 1.490 . S
C1164 H1154 0.930 . S
C1164 C1163 1.400 . S
C1164 C1167 1.386 . S
H1165 C1181 0.930 . S
H1166 C1182 0.931 . S
C1167 H1155 0.929 . S
C1167 C1161 1.390 . S
C1167 C1164 1.386 . S
C1168 C1163 1.490 . S
C1168 C1170 1.395 . S
C1168 C1171 1.403 . S
H1169 C1175 0.930 . S
C1170 H1156 0.930 . S
C1170 C1168 1.395 . S
C1170 C1173 1.403 . S
C1171 C1168 1.403 . S
C1171 C1172 1.524 . S
C1171 C1175 1.400 . S
C1172 H1157 0.960 . S
C1172 H1158 0.960 . S
C1172 H1159 0.960 . S
C1172 C1171 1.524 . S
C1173 C1170 1.403 . S
C1173 C1174 1.392 . S
C1173 C1177 1.495 . S
C1174 C1173 1.392 . S
C1174 C1175 1.385 . S
C1174 C1176 1.478 . S
C1175 H1169 0.930 . S
C1175 C1171 1.400 . S
C1175 C1174 1.385 . S
C1176 C1174 1.478 . S
C1176 C1178 1.381 . S
C1176 C1182 1.383 . S
C1177 C1173 1.495 . S
C1177 H1183 0.959 . S
C1177 H1184 0.961 . S
C1177 H1185 0.960 . S
C1178 C1176 1.381 . S
C1178 C1179 1.394 . S
C1178 H1186 0.930 . S
C1179 C1178 1.394 . S
C1179 C1180 1.383 . S
C1179 H1187 0.929 . S
C1180 C1179 1.383 . S
C1180 C1181 1.377 . S
C1181 H1165 0.930 . S
C1181 C1180 1.377 . S
C1181 C1182 1.379 . S
C1182 H1166 0.931 . S
C1182 C1176 1.383 . S
C1182 C1181 1.379 . S
H1183 C1177 0.959 . S
H1184 C1177 0.961 . S
H1185 C1177 0.960 . S
H1186 C1178 0.930 . S
H1187 C1179 0.929 . S
H1188 C1196 0.929 . S
H1189 C1198 0.930 . S
H1190 C1200 0.930 . S
H1191 C1203 0.929 1_455 S
H1192 C1206 0.930 . S
H1193 C1208 0.960 . S
H1194 C1208 0.960 . S
H1195 C1208 0.960 . S
C1196 H1188 0.929 . S
C1196 C1197 1.377 . S
C1196 C1198 1.384 . S
C1197 C1196 1.377 . S
C1197 C1203 1.390 . S
C1198 H1189 0.930 . S
C1198 C1196 1.384 . S
C1198 C1199 1.372 . S
C1199 C1198 1.372 . S
C1199 C1200 1.400 . S
C1199 C1204 1.490 . S
C1200 H1190 0.930 . S
C1200 C1199 1.400 . S
C1200 C1203 1.386 . S
H1201 C1217 0.930 . S
H1202 C1218 0.931 . S
C1203 H1191 0.929 1_655 S
C1203 C1197 1.390 . S
C1203 C1200 1.386 . S
C1204 C1199 1.490 . S
C1204 C1206 1.395 . S
C1204 C1207 1.403 . S
H1205 C1211 0.930 . S
C1206 H1192 0.930 . S
C1206 C1204 1.395 . S
C1206 C1209 1.403 . S
C1207 C1204 1.403 . S
C1207 C1208 1.524 . S
C1207 C1211 1.400 . S
C1208 H1193 0.960 . S
C1208 H1194 0.960 . S
C1208 H1195 0.960 . S
C1208 C1207 1.524 . S
C1209 C1206 1.403 . S
C1209 C1210 1.392 . S
C1209 C1213 1.495 . S
C1210 C1209 1.392 . S
C1210 C1211 1.385 . S
C1210 C1212 1.478 . S
C1211 H1205 0.930 . S
C1211 C1207 1.400 . S
C1211 C1210 1.385 . S
C1212 C1210 1.478 . S
C1212 C1214 1.381 . S
C1212 C1218 1.383 . S
C1213 C1209 1.495 . S
C1213 H1219 0.959 . S
C1213 H1220 0.961 . S
C1213 H1221 0.960 . S
C1214 C1212 1.381 . S
C1214 C1215 1.394 . S
C1214 H1222 0.930 . S
C1215 C1214 1.394 . S
C1215 C1216 1.383 . S
C1215 H1223 0.929 . S
C1216 C1215 1.383 . S
C1216 C1217 1.377 . S
C1217 H1201 0.930 . S
C1217 C1216 1.377 . S
C1217 C1218 1.379 . S
C1218 H1202 0.931 . S
C1218 C1212 1.383 . S
C1218 C1217 1.379 . S
H1219 C1213 0.959 . S
H1220 C1213 0.961 . S
H1221 C1213 0.960 . S
H1222 C1214 0.930 . S
H1223 C1215 0.929 . S
H1224 C1232 0.929 . S
H1225 C1234 0.930 . S
H1226 C1236 0.930 . S
H1227 C1239 0.929 . S
H1228 C1242 0.930 . S
H1229 C1244 0.960 . S
H1230 C1244 0.960 . S
H1231 C1244 0.960 . S
C1232 H1224 0.929 . S
C1232 C1233 1.377 . S
C1232 C1234 1.384 . S
C1233 C1232 1.377 . S
C1233 C1239 1.390 . S
C1234 H1225 0.930 . S
C1234 C1232 1.384 . S
C1234 C1235 1.372 . S
C1235 C1234 1.372 . S
C1235 C1236 1.400 . S
C1235 C1240 1.490 . S
C1236 H1226 0.930 . S
C1236 C1235 1.400 . S
C1236 C1239 1.386 . S
H1237 C1253 0.930 . S
H1238 C1254 0.931 . S
C1239 H1227 0.929 . S
C1239 C1233 1.390 . S
C1239 C1236 1.386 . S
C1240 C1235 1.490 . S
C1240 C1242 1.395 . S
C1240 C1243 1.403 . S
H1241 C1247 0.930 . S
C1242 H1228 0.930 . S
C1242 C1240 1.395 . S
C1242 C1245 1.403 . S
C1243 C1240 1.403 . S
C1243 C1244 1.524 . S
C1243 C1247 1.400 . S
C1244 H1229 0.960 . S
C1244 H1230 0.960 . S
C1244 H1231 0.960 . S
C1244 C1243 1.524 . S
C1245 C1242 1.403 . S
C1245 C1246 1.392 . S
C1245 C1249 1.495 . S
C1246 C1245 1.392 . S
C1246 C1247 1.385 . S
C1246 C1248 1.478 . S
C1247 H1241 0.930 . S
C1247 C1243 1.400 . S
C1247 C1246 1.385 . S
C1248 C1246 1.478 . S
C1248 C1250 1.381 . S
C1248 C1254 1.383 . S
C1249 C1245 1.495 . S
C1249 H1255 0.959 . S
C1249 H1256 0.961 . S
C1249 H1257 0.960 . S
C1250 C1248 1.381 . S
C1250 C1251 1.394 . S
C1250 H1258 0.930 . S
C1251 C1250 1.394 . S
C1251 C1252 1.383 . S
C1251 H1259 0.929 . S
C1252 C1251 1.383 . S
C1252 C1253 1.377 . S
C1253 H1237 0.930 . S
C1253 C1252 1.377 . S
C1253 C1254 1.379 . S
C1254 H1238 0.931 . S
C1254 C1248 1.383 . S
C1254 C1253 1.379 . S
H1255 C1249 0.959 . S
H1256 C1249 0.961 . S
H1257 C1249 0.960 . S
H1258 C1250 0.930 . S
H1259 C1251 0.929 . S
H1260 C1268 0.929 . S
H1261 C1270 0.930 . S
H1262 C1272 0.930 . S
H1263 C1275 0.929 . S
H1264 C1278 0.930 . S
H1265 C1280 0.960 . S
H1266 C1280 0.960 . S
H1267 C1280 0.960 . S
C1268 H1260 0.929 . S
C1268 C1269 1.377 . S
C1268 C1270 1.384 . S
C1269 C1268 1.377 . S
C1269 C1275 1.390 . S
C1270 H1261 0.930 . S
C1270 C1268 1.384 . S
C1270 C1271 1.372 . S
C1271 C1270 1.372 . S
C1271 C1272 1.400 . S
C1271 C1276 1.490 . S
C1272 H1262 0.930 . S
C1272 C1271 1.400 . S
C1272 C1275 1.386 . S
H1273 C1289 0.930 . S
H1274 C1290 0.931 . S
C1275 H1263 0.929 . S
C1275 C1269 1.390 . S
C1275 C1272 1.386 . S
C1276 C1271 1.490 . S
C1276 C1278 1.395 . S
C1276 C1279 1.403 . S
H1277 C1283 0.930 . S
C1278 H1264 0.930 . S
C1278 C1276 1.395 . S
C1278 C1281 1.403 . S
C1279 C1276 1.403 . S
C1279 C1280 1.524 . S
C1279 C1283 1.400 . S
C1280 H1265 0.960 . S
C1280 H1266 0.960 . S
C1280 H1267 0.960 . S
C1280 C1279 1.524 . S
C1281 C1278 1.403 . S
C1281 C1282 1.392 . S
C1281 C1285 1.495 . S
C1282 C1281 1.392 . S
C1282 C1283 1.385 . S
C1282 C1284 1.478 . S
C1283 H1277 0.930 . S
C1283 C1279 1.400 . S
C1283 C1282 1.385 . S
C1284 C1282 1.478 . S
C1284 C1286 1.381 . S
C1284 C1290 1.383 . S
C1285 C1281 1.495 . S
C1285 H1291 0.959 . S
C1285 H1292 0.961 . S
C1285 H1293 0.960 1_455 S
C1286 C1284 1.381 . S
C1286 C1287 1.394 1_455 S
C1286 H1294 0.930 1_455 S
C1287 C1286 1.394 1_655 S
C1287 C1288 1.386 . S
C1287 H1295 0.929 . S
C1288 C1287 1.386 . S
C1288 C1289 1.372 1_655 S
C1289 H1273 0.930 . S
C1289 C1288 1.372 1_455 S
C1289 C1290 1.379 . S
C1290 H1274 0.931 . S
C1290 C1284 1.383 . S
C1290 C1289 1.379 . S
H1291 C1285 0.959 . S
H1292 C1285 0.961 . S
H1293 C1285 0.960 1_655 S
H1294 C1286 0.930 1_655 S
H1295 C1287 0.929 . S
H1296 C1304 0.929 . S
H1297 C1306 0.930 . S
H1298 C1308 0.930 . S
H1299 C1311 0.929 . S
H1300 C1314 0.930 . S
H1301 C1316 0.960 . S
H1302 C1316 0.960 . S
H1303 C1316 0.960 . S
C1304 H1296 0.929 . S
C1304 C1305 1.377 . S
C1304 C1306 1.384 . S
C1305 C1304 1.377 . S
C1305 C1311 1.390 . S
C1306 H1297 0.930 . S
C1306 C1304 1.384 . S
C1306 C1307 1.372 . S
C1307 C1306 1.372 . S
C1307 C1308 1.400 . S
C1307 C1312 1.490 . S
C1308 H1298 0.930 . S
C1308 C1307 1.400 . S
C1308 C1311 1.386 . S
H1309 C1325 0.930 . S
H1310 C1326 0.931 . S
C1311 H1299 0.929 . S
C1311 C1305 1.390 . S
C1311 C1308 1.386 . S
C1312 C1307 1.490 . S
C1312 C1314 1.395 . S
C1312 C1315 1.403 . S
H1313 C1319 0.930 . S
C1314 H1300 0.930 . S
C1314 C1312 1.395 . S
C1314 C1317 1.403 . S
C1315 C1312 1.403 . S
C1315 C1316 1.524 . S
C1315 C1319 1.400 . S
C1316 H1301 0.960 . S
C1316 H1302 0.960 . S
C1316 H1303 0.960 . S
C1316 C1315 1.524 . S
C1317 C1314 1.403 . S
C1317 C1318 1.392 . S
C1317 C1321 1.495 . S
C1318 C1317 1.392 . S
C1318 C1319 1.385 . S
C1318 C1320 1.478 . S
C1319 H1313 0.930 . S
C1319 C1315 1.400 . S
C1319 C1318 1.385 . S
C1320 C1318 1.478 . S
C1320 C1322 1.381 . S
C1320 C1326 1.383 . S
C1321 C1317 1.495 . S
C1321 H1327 0.959 . S
C1321 H1328 0.961 . S
C1321 H1329 0.960 . S
C1322 C1320 1.381 . S
C1322 C1323 1.394 . S
C1322 H1330 0.930 . S
C1323 C1322 1.394 . S
C1323 C1324 1.383 . S
C1323 H1331 0.929 . S
C1324 C1323 1.383 . S
C1324 C1325 1.377 . S
C1325 H1309 0.930 . S
C1325 C1324 1.377 . S
C1325 C1326 1.379 . S
C1326 H1310 0.931 . S
C1326 C1320 1.383 . S
C1326 C1325 1.379 . S
H1327 C1321 0.959 . S
H1328 C1321 0.961 . S
H1329 C1321 0.960 . S
H1330 C1322 0.930 . S
H1331 C1323 0.929 . S
H1332 C1340 0.929 . S
H1333 C1342 0.930 . S
H1334 C1344 0.930 . S
H1335 C1347 0.929 . S
H1336 C1350 0.930 . S
H1337 C1352 0.960 . S
H1338 C1352 0.960 . S
H1339 C1352 0.960 . S
C1340 H1332 0.929 . S
C1340 C1341 1.377 . S
C1340 C1342 1.384 . S
C1341 C1340 1.377 . S
C1341 C1347 1.390 . S
C1342 H1333 0.930 . S
C1342 C1340 1.384 . S
C1342 C1343 1.372 . S
C1343 C1342 1.372 . S
C1343 C1344 1.400 . S
C1343 C1348 1.490 . S
C1344 H1334 0.930 . S
C1344 C1343 1.400 . S
C1344 C1347 1.386 . S
H1345 C1361 0.930 . S
H1346 C1362 0.931 . S
C1347 H1335 0.929 . S
C1347 C1341 1.390 . S
C1347 C1344 1.386 . S
C1348 C1343 1.490 . S
C1348 C1350 1.395 . S
C1348 C1351 1.403 . S
H1349 C1355 0.930 . S
C1350 H1336 0.930 . S
C1350 C1348 1.395 . S
C1350 C1353 1.403 . S
C1351 C1348 1.403 . S
C1351 C1352 1.524 . S
C1351 C1355 1.400 . S
C1352 H1337 0.960 . S
C1352 H1338 0.960 . S
C1352 H1339 0.960 . S
C1352 C1351 1.524 . S
C1353 C1350 1.403 . S
C1353 C1354 1.392 . S
C1353 C1357 1.495 . S
C1354 C1353 1.392 . S
C1354 C1355 1.385 . S
C1354 C1356 1.478 . S
C1355 H1349 0.930 . S
C1355 C1351 1.400 . S
C1355 C1354 1.385 . S
C1356 C1354 1.478 . S
C1356 C1358 1.381 . S
C1356 C1362 1.383 . S
C1357 C1353 1.495 . S
C1357 H1363 0.959 . S
C1357 H1364 0.961 . S
C1357 H1365 0.960 . S
C1358 C1356 1.381 . S
C1358 C1359 1.394 . S
C1358 H1366 0.930 . S
C1359 C1358 1.394 . S
C1359 C1360 1.383 . S
C1359 H1367 0.929 . S
C1360 C1359 1.383 . S
C1360 C1361 1.377 . S
C1361 H1345 0.930 . S
C1361 C1360 1.377 . S
C1361 C1362 1.379 . S
C1362 H1346 0.931 . S
C1362 C1356 1.383 . S
C1362 C1361 1.379 . S
H1363 C1357 0.959 . S
H1364 C1357 0.961 . S
H1365 C1357 0.960 . S
H1366 C1358 0.930 . S
H1367 C1359 0.929 . S
C244 C125 1.404 . S
C225 C5 1.375 . S
C280 C145 1.459 . S
C261 C18 1.437 . S
C316 C159 1.483 . S
C297 C31 1.459 . S
C333 C42 1.478 . S
C352 C117 1.471 . S
C369 C57 1.201 . S
C388 C111 1.176 . S
C405 C70 1.182 . S
C424 C131 1.188 . S
C460 C139 1.106 . S
C441 C81 1.065 . S
C496 C153 1.151 . S
C477 C96 1.154 . S
C513 C29 1.118 . S
C532 C181 1.160 . S
C568 C195 1.059 . S
C549 C44 1.097 . S
C585 C3 1.134 . S
C604 C215 1.181 . S
C640 C167 1.175 . S
C621 C16 1.150 . S
C657 C83 1.444 . S
C676 C173 1.451 . S
C693 C94 1.495 . S
C712 C187 1.467 . S
C748 C201 1.463 1_556 S
C729 C55 1.477 . S
C765 C68 1.403 . S
C784 C209 1.403 . S
C820 C140 1.693 . S
C801 C1 1.633 . S
C856 C154 1.692 . S
C837 C14 1.621 . S
C873 C27 1.547 . S
C892 C112 1.592 1_556 S
C909 C49 1.460 . S
C928 C129 1.466 . S
C945 C53 1.059 . S
C964 C157 1.069 . S
C1000 C115 1.030 . S
C981 C66 1.023 . S
C1036 C126 1.208 . S
C1017 C88 1.185 . S
C1072 C143 1.118 . S
C1053 C92 1.119 . S
C1108 C199 1.120 . S
C1089 C36 1.111 . S
C1144 C210 1.182 . S
C1125 C40 1.188 . S
C1161 C10 1.016 . S
C1180 C171 1.032 . S
C1216 C185 1.058 . S
C1197 C23 1.061 1_655 S
C1252 C213 1.468 . S
C1233 C79 1.419 . S
C1269 C101 1.600 . S
C1288 C168 1.599 . S
C1324 C182 1.688 . S
C1305 C62 1.679 . S
C1360 C196 1.687 . S
C1341 C75 1.684 . S
