# Generated by pormake.
# Topology rtl, (3,6)-cn, num edge types: 1
# Building blocks:
#     Node 0, Type 0, BuildingBlock: OLANEW_clean_sbu_2, # of connection points: 3
#     Node 1, Type 0, BuildingBlock: OLANEW_clean_sbu_2, # of connection points: 3
#     Node 2, Type 0, BuildingBlock: OLANEW_clean_sbu_2, # of connection points: 3
#     Node 3, Type 0, BuildingBlock: OLANEW_clean_sbu_2, # of connection points: 3
#     Node 4, Type 1, BuildingBlock: FUNLAD_clean_sbu_0, # of connection points: 6
#     Node 5, Type 1, BuildingBlock: FUNLAD_clean_sbu_0, # of connection points: 6
#     Edge 6, Type (0, 1), BuildingBlock: FUNLAD_clean_linker_0, # of connection points: 2
#     Edge 7, Type (0, 1), BuildingBlock: FUNLAD_clean_linker_0, # of connection points: 2
#     Edge 8, Type (0, 1), BuildingBlock: FUNLAD_clean_linker_0, # of connection points: 2
#     Edge 9, Type (0, 1), BuildingBlock: FUNLAD_clean_linker_0, # of connection points: 2
#     Edge 10, Type (0, 1), BuildingBlock: FUNLAD_clean_linker_0, # of connection points: 2
#     Edge 11, Type (0, 1), BuildingBlock: FUNLAD_clean_linker_0, # of connection points: 2
#     Edge 12, Type (0, 1), BuildingBlock: FUNLAD_clean_linker_0, # of connection points: 2
#     Edge 13, Type (0, 1), BuildingBlock: FUNLAD_clean_linker_0, # of connection points: 2
#     Edge 14, Type (0, 1), BuildingBlock: FUNLAD_clean_linker_0, # of connection points: 2
#     Edge 15, Type (0, 1), BuildingBlock: FUNLAD_clean_linker_0, # of connection points: 2
#     Edge 16, Type (0, 1), BuildingBlock: FUNLAD_clean_linker_0, # of connection points: 2
#     Edge 17, Type (0, 1), BuildingBlock: FUNLAD_clean_linker_0, # of connection points: 2
# Relax obj value: 0.013
# Max RMSD: 0.078
# Mean RMSD: 0.052
data_MOF--net-rtl--node1-OLANEW_clean_sbu_2--node2-FUNLAD_clean_sbu_0--edge1-FUNLAD_clean_linker_0
_symmetry_space_group_name_H-M    P1
_symmetry_Int_Tables_number       1
_symmetry_cell_setting            triclinic
loop_
_symmetry_equiv_pos_as_xyz
'x, y, z'
_cell_length_a     49.467138
_cell_length_b     46.608877
_cell_length_c     26.169356
_cell_angle_alpha  87.241263
_cell_angle_beta   93.639613
_cell_angle_gamma 90.055611
loop_
_atom_site_label
_atom_site_type_symbol
_atom_site_fract_x
_atom_site_fract_y
_atom_site_fract_z
_atom_type_partial_charge
O0 O 0.16063 0.80533 0.95126 0.0
Cd1 Cd 0.17316 0.77616 0.02924 0.0
O2 O 0.16133 0.84486 0.99401 0.0
Cd3 Cd 0.16847 0.8249 0.07066 0.0
O4 O 0.15443 0.83038 0.14683 0.0
C5 C 0.12892 0.83295 0.14831 0.0
O6 O 0.11363 0.82973 0.10604 0.0
C7 C 0.15803 0.83244 0.95188 0.0
C8 C 0.21409 0.73694 0.01459 0.0
O9 O 0.18909 0.72998 0.00792 0.0
O10 O 0.21968 0.76245 0.02814 0.0
O11 O 0.62433 0.74684 0.65035 0.0
Cd12 Cd 0.6304 0.79075 0.59772 0.0
O13 O 0.62896 0.72311 0.58149 0.0
Cd14 Cd 0.63054 0.68726 0.53083 0.0
O15 O 0.62168 0.66112 0.46492 0.0
C16 C 0.60305 0.67071 0.43298 0.0
O17 O 0.59089 0.69483 0.44204 0.0
C18 C 0.62437 0.72299 0.62881 0.0
C19 C 0.68411 0.80852 0.59626 0.0
O20 O 0.66866 0.81724 0.62988 0.0
O21 O 0.6742 0.79108 0.56363 0.0
O22 O 0.83682 0.17388 0.08763 0.0
Cd23 Cd 0.81844 0.18834 0.00119 0.0
O24 O 0.86644 0.20904 0.09205 0.0
Cd25 Cd 0.85876 0.22009 0.01067 0.0
O26 O 0.86815 0.20406 0.93697 0.0
C27 C 0.89084 0.19119 0.93849 0.0
O28 O 0.906 0.19022 0.98165 0.0
C29 C 0.85525 0.18727 0.11291 0.0
C30 C 0.77679 0.22856 0.0024 0.0
O31 O 0.77175 0.20157 0.00307 0.0
O32 O 0.80156 0.23652 0.00121 0.0
O33 O 0.37241 0.26281 0.67415 0.0
Cd34 Cd 0.36672 0.2153 0.63961 0.0
O35 O 0.3783 0.28051 0.59668 0.0
Cd36 Cd 0.3854 0.31347 0.53666 0.0
O37 O 0.39408 0.34046 0.46916 0.0
C38 C 0.39778 0.32839 0.42763 0.0
O39 O 0.3961 0.30027 0.42687 0.0
C40 C 0.37751 0.28421 0.64442 0.0
C41 C 0.31276 0.19966 0.62115 0.0
O42 O 0.32513 0.1947 0.66522 0.0
O43 O 0.32586 0.21235 0.58589 0.0
C44 C 0.01665 0.96993 0.46624 0.0
N45 N 0.05013 0.04609 0.52142 0.0
C46 C 0.07493 0.03377 0.51937 0.0
C47 C 0.09807 0.05082 0.51708 0.0
C48 C 0.0957 0.08085 0.51714 0.0
C49 C 0.06976 0.093 0.51784 0.0
C50 C 0.04714 0.07514 0.5199 0.0
Zn51 Zn 0.01715 0.02047 0.53142 0.0
C52 C 0.96971 0.03808 0.46156 0.0
N53 N 0.94846 0.96706 0.55471 0.0
C54 C 0.95114 0.93798 0.55956 0.0
C55 C 0.92405 0.97997 0.55846 0.0
C56 C 0.90122 0.96356 0.56833 0.0
C57 C 0.90343 0.93354 0.57407 0.0
C58 C 0.92873 0.9207 0.56907 0.0
Zn59 Zn 0.98148 0.99242 0.54354 0.0
O60 O 0.02959 0.99282 0.47585 0.0
C61 C 0.02863 0.97481 0.61364 0.0
O62 O 0.99527 0.96414 0.48925 0.0
H63 H 0.92231 0.00309 0.55419 0.0
H64 H 0.07687 0.01063 0.52088 0.0
H65 H 0.97076 0.92818 0.55662 0.0
O66 O 0.03968 0.99538 0.5891 0.0
O67 O 0.00387 0.969 0.60305 0.0
H68 H 0.02723 0.0845 0.52143 0.0
O69 O 0.96838 0.02106 0.59767 0.0
O70 O 0.00434 0.04772 0.58754 0.0
O71 O 0.95946 0.01631 0.48412 0.0
O72 O 0.99403 0.04511 0.47384 0.0
C73 C 0.98239 0.04296 0.60913 0.0
H74 H 0.1177 0.04054 0.51719 0.0
H75 H 0.06701 0.11607 0.51733 0.0
H76 H 0.88198 0.97426 0.57117 0.0
H77 H 0.93129 0.89762 0.57358 0.0
C78 C 0.4826 0.46969 0.89989 0.0
N79 N 0.55749 0.45729 0.98227 0.0
C80 C 0.55285 0.42861 0.97962 0.0
C81 C 0.57445 0.40931 0.98117 0.0
C82 C 0.60115 0.41959 0.9853 0.0
C83 C 0.60539 0.44933 0.98738 0.0
C84 C 0.58314 0.4679 0.98595 0.0
Zn85 Zn 0.52493 0.48428 0.98182 0.0
C86 C 0.5302 0.53652 0.91453 0.0
N87 N 0.45555 0.53868 0.98144 0.0
C88 C 0.42979 0.52836 0.97735 0.0
C89 C 0.46047 0.56708 0.9875 0.0
C90 C 0.4391 0.58625 0.99063 0.0
C91 C 0.41232 0.57619 0.98737 0.0
C92 C 0.40775 0.54687 0.98007 0.0
Zn93 Zn 0.48802 0.51162 0.98107 0.0
O94 O 0.50613 0.46316 0.91928 0.0
C95 C 0.48281 0.4601 0.04972 0.0
O96 O 0.46959 0.48992 0.91825 0.0
H97 H 0.48108 0.57489 0.99047 0.0
H98 H 0.53231 0.42062 0.97648 0.0
H99 H 0.42635 0.50569 0.9727 0.0
O100 O 0.50621 0.4554 0.03439 0.0
O101 O 0.46994 0.48252 0.03285 0.0
H102 H 0.58637 0.49077 0.98818 0.0
O103 O 0.50685 0.53254 0.04401 0.0
O104 O 0.54331 0.50579 0.04454 0.0
O105 O 0.50672 0.54069 0.92986 0.0
O106 O 0.54309 0.51377 0.9297 0.0
C107 C 0.53032 0.52583 0.06341 0.0
H108 H 0.57028 0.38659 0.97874 0.0
H109 H 0.62565 0.45812 0.99104 0.0
H110 H 0.44351 0.60876 0.99547 0.0
H111 H 0.38741 0.53821 0.97773 0.0
C112 C 0.27207 0.19251 0.56102 0.0
C113 C 0.28445 0.19024 0.61092 0.0
C114 C 0.24581 0.1822 0.55098 0.0
C115 C 0.2314 0.16939 0.59073 0.0
C116 C 0.24343 0.16806 0.64082 0.0
C117 C 0.26973 0.17818 0.6508 0.0
C118 C 0.20388 0.15714 0.5816 0.0
C119 C 0.19499 0.14629 0.53678 0.0
C120 C 0.16866 0.13117 0.52991 0.0
C121 C 0.16607 0.10934 0.49481 0.0
C122 C 0.1422 0.09336 0.48979 0.0
C123 C 0.12027 0.09918 0.51933 0.0
H124 H 0.14726 0.15502 0.58427 0.0
C125 C 0.12243 0.12187 0.55284 0.0
C126 C 0.14634 0.13774 0.55804 0.0
H127 H 0.10592 0.12686 0.57622 0.0
H128 H 0.28279 0.20193 0.52953 0.0
H129 H 0.23688 0.18444 0.51216 0.0
H130 H 0.23268 0.15856 0.67223 0.0
H131 H 0.2786 0.17631 0.68975 0.0
H132 H 0.19154 0.15475 0.61441 0.0
H133 H 0.20837 0.14607 0.50547 0.0
H134 H 0.18282 0.10409 0.47218 0.0
H135 H 0.14099 0.0763 0.46306 0.0
C136 C 0.26318 0.72458 0.01123 0.0
C137 C 0.2359 0.7161 0.00718 0.0
C138 C 0.28383 0.7049 0.00476 0.0
C139 C 0.27765 0.67612 0.99468 0.0
C140 C 0.25035 0.66784 0.98973 0.0
C141 C 0.22968 0.68756 0.99602 0.0
C142 C 0.299 0.65438 0.98793 0.0
C143 C 0.32475 0.65671 0.00748 0.0
C144 C 0.34639 0.63514 0.00176 0.0
C145 C 0.37 0.6361 0.03436 0.0
C146 C 0.39123 0.61687 0.02989 0.0
C147 C 0.38943 0.5962 0.99249 0.0
H148 H 0.32719 0.6134 0.93712 0.0
C149 C 0.36584 0.59511 0.9598 0.0
C150 C 0.34459 0.61446 0.96411 0.0
H151 H 0.36405 0.5797 0.93008 0.0
H152 H 0.26863 0.74651 0.01915 0.0
H153 H 0.30449 0.71256 0.00697 0.0
H154 H 0.24496 0.64593 0.98144 0.0
H155 H 0.20885 0.68036 0.99242 0.0
H156 H 0.29273 0.63524 0.96838 0.0
H157 H 0.33022 0.67472 0.03079 0.0
H158 H 0.37206 0.6518 0.06358 0.0
H159 H 0.40902 0.61807 0.05606 0.0
C160 C 0.72226 0.83958 0.62807 0.0
C161 C 0.71228 0.81901 0.59423 0.0
C162 C 0.74833 0.85072 0.62452 0.0
C163 C 0.76519 0.84131 0.58723 0.0
C164 C 0.75525 0.8205 0.55381 0.0
C165 C 0.72913 0.80941 0.5573 0.0
C166 C 0.79241 0.85391 0.57967 0.0
C167 C 0.80662 0.86879 0.61519 0.0
C168 C 0.83227 0.88404 0.60513 0.0
C169 C 0.83883 0.90855 0.63243 0.0
C170 C 0.86202 0.92443 0.6226 0.0
C171 C 0.87941 0.91591 0.58571 0.0
H172 H 0.84615 0.85571 0.5485 0.0
C173 C 0.87344 0.89078 0.55963 0.0
C174 C 0.85007 0.87499 0.56917 0.0
H175 H 0.88653 0.88366 0.5311 0.0
H176 H 0.70971 0.84761 0.65671 0.0
H177 H 0.75463 0.86733 0.65011 0.0
H178 H 0.76765 0.81299 0.52447 0.0
H179 H 0.72204 0.7936 0.53057 0.0
H180 H 0.80056 0.85142 0.54258 0.0
H181 H 0.79866 0.87145 0.65232 0.0
H182 H 0.82565 0.91581 0.66074 0.0
H183 H 0.86637 0.94341 0.64397 0.0
C184 C 0.76052 0.27935 0.00502 0.0
C185 C 0.75468 0.2499 0.00284 0.0
C186 C 0.73963 0.29953 0.00534 0.0
C187 C 0.71236 0.29068 0.00295 0.0
C188 C 0.70662 0.2612 0.00138 0.0
C189 C 0.7275 0.24104 0.00121 0.0
C190 C 0.68936 0.31123 0.00349 0.0
C191 C 0.69116 0.33956 0.99104 0.0
C192 C 0.66788 0.35979 0.99079 0.0
C193 C 0.66875 0.38582 0.96155 0.0
C194 C 0.64723 0.40533 0.95995 0.0
C195 C 0.62435 0.39927 0.98776 0.0
H196 H 0.64413 0.33488 0.04434 0.0
C197 C 0.62369 0.37352 0.01788 0.0
C198 C 0.64524 0.35407 0.01966 0.0
H199 H 0.60662 0.36856 0.04071 0.0
H200 H 0.78127 0.28686 0.00685 0.0
H201 H 0.74511 0.32187 0.00832 0.0
H202 H 0.68586 0.2537 -2e-05 0.0
H203 H 0.72229 0.21851 -0.00032 0.0
H204 H 0.66987 0.30216 0.01219 0.0
H205 H 0.70999 0.34827 0.9779 0.0
H206 H 0.68601 0.39094 0.93931 0.0
H207 H 0.64829 0.42494 0.9362 0.0
C208 C 0.0889 0.84881 0.19351 0.0
C209 C 0.11687 0.84343 0.1943 0.0
C210 C 0.07779 0.86224 0.23392 0.0
C211 C 0.09443 0.87039 0.27642 0.0
C212 C 0.12222 0.86397 0.27805 0.0
C213 C 0.13334 0.85056 0.23755 0.0
C214 C 0.08415 0.8879 0.31716 0.0
C215 C 0.05771 0.89076 0.32572 0.0
C216 C 0.04779 0.91102 0.36252 0.0
C217 C 0.02293 0.90563 0.38422 0.0
C218 C 0.01269 0.92475 0.41783 0.0
C219 C 0.02698 0.94988 0.42986 0.0
H220 H 0.0806 0.94187 0.35672 0.0
C221 C 0.05163 0.9555 0.40747 0.0
C222 C 0.0619 0.93636 0.3741 0.0
H223 H 0.06309 0.97475 0.41564 0.0
H224 H 0.07563 0.84366 0.1607 0.0
H225 H 0.05641 0.86728 0.23025 0.0
H226 H 0.13556 0.87007 0.31016 0.0
H227 H 0.15498 0.84672 0.23939 0.0
H228 H 0.09917 0.89909 0.34082 0.0
H229 H 0.04268 0.87763 0.30592 0.0
H230 H 0.01147 0.88647 0.37539 0.0
H231 H 0.9936 0.91982 0.43433 0.0
C232 C 0.62226 0.69525 0.71246 0.0
C233 C 0.61829 0.69622 0.65873 0.0
C234 C 0.61444 0.67118 0.74177 0.0
C235 C 0.60241 0.64753 0.71794 0.0
C236 C 0.59932 0.648 0.66427 0.0
C237 C 0.60682 0.67227 0.63493 0.0
C238 C 0.59211 0.62265 0.74838 0.0
C239 C 0.57977 0.62613 0.79205 0.0
C240 C 0.56708 0.6023 0.82142 0.0
C241 C 0.54433 0.60835 0.84841 0.0
C242 C 0.53207 0.58679 0.87761 0.0
C243 C 0.54268 0.55875 0.88142 0.0
H244 H 0.59551 0.569 0.80511 0.0
C245 C 0.56562 0.55265 0.85472 0.0
C246 C 0.57763 0.5742 0.82466 0.0
H247 H 0.57432 0.53127 0.85715 0.0
H248 H 0.63112 0.7133 0.732 0.0
H249 H 0.61767 0.6712 0.78309 0.0
H250 H 0.59 0.63007 0.64507 0.0
H251 H 0.60239 0.67263 0.594 0.0
H252 H 0.59245 0.60162 0.73221 0.0
H253 H 0.577 0.64771 0.80489 0.0
H254 H 0.53592 0.62987 0.84678 0.0
H255 H 0.51456 0.59227 0.89805 0.0
C256 C 0.85405 0.15097 0.18649 0.0
C257 C 0.86566 0.17566 0.16407 0.0
C258 C 0.86622 0.13747 0.23093 0.0
C259 C 0.89047 0.14826 0.25367 0.0
C260 C 0.90103 0.17399 0.23319 0.0
C261 C 0.88883 0.18752 0.18879 0.0
C262 C 0.90581 0.13294 0.29751 0.0
C263 C 0.90416 0.10435 0.30727 0.0
C264 C 0.92116 0.08838 0.34796 0.0
C265 C 0.9116 0.06215 0.36821 0.0
C266 C 0.92733 0.04588 0.40516 0.0
C267 C 0.95321 0.05531 0.42215 0.0
H268 H 0.95561 0.11744 0.3489 0.0
C269 C 0.96297 0.08142 0.4015 0.0
C270 C 0.94713 0.09782 0.36477 0.0
H271 H 0.98288 0.08923 0.41364 0.0
H272 H 0.83595 0.14152 0.16891 0.0
H273 H 0.85669 0.11844 0.24675 0.0
H274 H 0.91943 0.18305 0.25036 0.0
H275 H 0.89821 0.20665 0.17278 0.0
H276 H 0.91999 0.1455 0.32058 0.0
H277 H 0.89002 0.09169 0.28435 0.0
H278 H 0.89181 0.05422 0.35552 0.0
H279 H 0.91922 0.02582 0.42016 0.0
C280 C 0.4025 0.33103 0.64504 0.0
C281 C 0.38339 0.31239 0.66617 0.0
C282 C 0.41031 0.35607 0.66937 0.0
C283 C 0.39933 0.36279 0.7157 0.0
C284 C 0.3793 0.34483 0.7354 0.0
C285 C 0.3716 0.31975 0.7112 0.0
C286 C 0.40918 0.38738 0.74589 0.0
C287 C 0.43488 0.39699 0.74558 0.0
C288 C 0.44661 0.41756 0.78256 0.0
C289 C 0.47448 0.41602 0.79613 0.0
C290 C 0.48618 0.43335 0.8335 0.0
C291 C 0.47032 0.45298 0.85771 0.0
H292 H 0.40942 0.44034 0.79477 0.0
C293 C 0.44261 0.45551 0.84256 0.0
C294 C 0.43082 0.43794 0.80536 0.0
H295 H 0.42989 0.47061 0.86021 0.0
H296 H 0.41246 0.32563 0.61115 0.0
H297 H 0.42528 0.36977 0.65226 0.0
H298 H 0.37036 0.34958 0.77079 0.0
H299 H 0.35679 0.30578 0.72832 0.0
H300 H 0.39588 0.39531 0.77351 0.0
H301 H 0.44887 0.38704 0.72139 0.0
H302 H 0.48717 0.40072 0.77886 0.0
H303 H 0.50765 0.43102 0.8439 0.0
C304 C 0.60809 0.62961 0.3756 0.0
C305 C 0.59501 0.65517 0.38643 0.0
C306 C 0.60021 0.615 0.33159 0.0
C307 C 0.57892 0.62565 0.29757 0.0
C308 C 0.56616 0.65138 0.30832 0.0
C309 C 0.57403 0.66593 0.35217 0.0
C310 C 0.5692 0.61106 0.25047 0.0
C311 C 0.57534 0.58384 0.2402 0.0
C312 C 0.56374 0.5697 0.19403 0.0
C313 C 0.57813 0.54724 0.1742 0.0
C314 C 0.5675 0.53313 0.13143 0.0
C315 C 0.54205 0.541 0.10797 0.0
H316 H 0.52592 0.59379 0.18592 0.0
C317 C 0.52753 0.56327 0.12815 0.0
C318 C 0.53817 0.57737 0.17076 0.0
H319 H 0.50775 0.56969 0.11135 0.0
H320 H 0.62449 0.62088 0.40107 0.0
H321 H 0.6111 0.59567 0.32454 0.0
H322 H 0.5498 0.66022 0.28285 0.0
H323 H 0.56356 0.68561 0.35921 0.0
H324 H 0.5558 0.62346 0.22332 0.0
H325 H 0.58929 0.57125 0.26582 0.0
H326 H 0.59773 0.54067 0.19173 0.0
H327 H 0.57913 0.51594 0.117 0.0
C328 C 0.92496 0.16239 0.8966 0.0
C329 C 0.89949 0.17587 0.89405 0.0
C330 C 0.93281 0.14643 0.85628 0.0
C331 C 0.91539 0.14369 0.81215 0.0
C332 C 0.88995 0.15724 0.80949 0.0
C333 C 0.88211 0.17333 0.84988 0.0
C334 C 0.92258 0.12554 0.76986 0.0
C335 C 0.94839 0.12018 0.75952 0.0
C336 C 0.95601 0.10071 0.71952 0.0
C337 C 0.98135 0.10427 0.69882 0.0
C338 C 0.98982 0.08567 0.66271 0.0
C339 C 0.97325 0.06281 0.64699 0.0
H340 H 0.92007 0.07381 0.72003 0.0
C341 C 0.94792 0.05909 0.6679 0.0
C342 C 0.93938 0.07782 0.70382 0.0
H343 H 0.93472 0.0416 0.65675 0.0
H344 H 0.93876 0.16371 0.93024 0.0
H345 H 0.9522 0.13557 0.86068 0.0
H346 H 0.87604 0.15525 0.77616 0.0
H347 H 0.86228 0.18332 0.84687 0.0
H348 H 0.90605 0.11697 0.74591 0.0
H349 H 0.96479 0.1311 0.78018 0.0
H350 H 0.99468 0.12154 0.71062 0.0
H351 H 0.00949 0.0891 0.64746 0.0
C352 C 0.40958 0.33204 0.33583 0.0
C353 C 0.40445 0.3456 0.38107 0.0
C354 C 0.41652 0.34816 0.29218 0.0
C355 C 0.41862 0.37826 0.29293 0.0
C356 C 0.41284 0.39183 0.33774 0.0
C357 C 0.40597 0.3757 0.38144 0.0
C358 C 0.42643 0.39622 0.24773 0.0
C359 C 0.44165 0.3864 0.21132 0.0
C360 C 0.45103 0.40499 0.16822 0.0
C361 C 0.47514 0.39783 0.14625 0.0
C362 C 0.48525 0.41543 0.10713 0.0
C363 C 0.47125 0.44043 0.08871 0.0
H364 H 0.41738 0.43519 0.16327 0.0
C365 C 0.44657 0.44703 0.10934 0.0
C366 C 0.43653 0.4295 0.14861 0.0
H367 H 0.43513 0.46598 0.09566 0.0
H368 H 0.4083 0.3089 0.33406 0.0
H369 H 0.41991 0.33694 0.25791 0.0
H370 H 0.41403 0.41499 0.33924 0.0
H371 H 0.40197 0.38685 0.41555 0.0
H372 H 0.421 0.41882 0.24657 0.0
H373 H 0.44933 0.36454 0.21509 0.0
H374 H 0.48655 0.3789 0.1602 0.0
H375 H 0.50423 0.40961 0.09185 0.0
C376 C 0.13964 0.87782 0.90855 0.0
C377 C 0.14894 0.84954 0.9048 0.0
C378 C 0.12827 0.89321 0.86551 0.0
C379 C 0.12617 0.8808 0.81761 0.0
C380 C 0.13679 0.8532 0.81304 0.0
C381 C 0.14782 0.83752 0.85642 0.0
C382 C 0.11229 0.89623 0.7726 0.0
C383 C 0.08912 0.91076 0.77698 0.0
C384 C 0.07411 0.92617 0.73329 0.0
C385 C 0.04576 0.92736 0.73243 0.0
C386 C 0.03096 0.94273 0.69298 0.0
C387 C 0.04433 0.9579 0.6544 0.0
H388 H 0.10945 0.94093 0.69464 0.0
C389 C 0.07277 0.95693 0.65543 0.0
C390 C 0.08755 0.94099 0.69433 0.0
H391 H 0.08358 0.96843 0.62611 0.0
H392 H 0.14033 0.88784 0.9451 0.0
H393 H 0.12086 0.91477 0.86985 0.0
H394 H 0.13562 0.84336 0.77629 0.0
H395 H 0.15499 0.81586 0.85224 0.0
H396 H 0.12015 0.89402 0.73515 0.0
H397 H 0.07995 0.91015 0.81371 0.0
H398 H 0.03501 0.91629 0.76232 0.0
H399 H 0.00908 0.94322 0.6933 0.0
loop_
_geom_bond_atom_site_label_1
_geom_bond_atom_site_label_2
_geom_bond_distance
_geom_bond_site_symmetry_2
_ccdc_geom_bond_type
O0 Cd1 2.300 1_556 S
O0 C7 1.275 . S
Cd1 O0 2.300 1_554 S
Cd1 O9 2.381 1_554 S
Cd1 O10 2.378 . S
O2 Cd3 2.385 . S
O2 C7 1.255 1_554 S
Cd3 O2 2.385 . S
Cd3 O4 2.317 . S
O4 Cd3 2.317 . S
O4 C5 1.232 . S
C5 O4 1.232 . S
C5 O6 1.218 . S
O6 C5 1.218 . S
C7 O0 1.275 . S
C7 O2 1.255 1_556 S
C8 O9 1.258 1_554 S
C8 O10 1.256 . S
O9 Cd1 2.381 1_556 S
O9 C8 1.258 1_556 S
O10 Cd1 2.378 . S
O10 C8 1.256 . S
O11 Cd12 2.300 . S
O11 C18 1.275 . S
Cd12 O11 2.300 . S
Cd12 O20 2.381 . S
Cd12 O21 2.378 . S
O13 Cd14 2.385 . S
O13 C18 1.255 . S
Cd14 O13 2.385 . S
Cd14 O15 2.317 . S
O15 Cd14 2.317 . S
O15 C16 1.232 . S
C16 O15 1.232 . S
C16 O17 1.218 . S
O17 C16 1.218 . S
C18 O11 1.275 . S
C18 O13 1.255 . S
C19 O20 1.258 . S
C19 O21 1.256 . S
O20 Cd12 2.381 . S
O20 C19 1.258 . S
O21 Cd12 2.378 . S
O21 C19 1.256 . S
O22 Cd23 2.300 . S
O22 C29 1.275 . S
Cd23 O22 2.300 . S
Cd23 O31 2.381 . S
Cd23 O32 2.378 . S
O24 Cd25 2.385 . S
O24 C29 1.255 . S
Cd25 O24 2.385 . S
Cd25 O26 2.317 1_554 S
O26 Cd25 2.317 1_556 S
O26 C27 1.232 . S
C27 O26 1.232 . S
C27 O28 1.218 . S
O28 C27 1.218 . S
C29 O22 1.275 . S
C29 O24 1.255 . S
C30 O31 1.258 . S
C30 O32 1.256 . S
O31 Cd23 2.381 . S
O31 C30 1.258 . S
O32 Cd23 2.378 . S
O32 C30 1.256 . S
O33 Cd34 2.300 . S
O33 C40 1.275 . S
Cd34 O33 2.300 . S
Cd34 O42 2.381 . S
Cd34 O43 2.378 . S
O35 Cd36 2.385 . S
O35 C40 1.255 . S
Cd36 O35 2.385 . S
Cd36 O37 2.317 . S
O37 Cd36 2.317 . S
O37 C38 1.232 . S
C38 O37 1.232 . S
C38 O39 1.218 . S
O39 C38 1.218 . S
C40 O33 1.275 . S
C40 O35 1.255 . S
C41 O42 1.258 . S
C41 O43 1.256 . S
O42 Cd34 2.381 . S
O42 C41 1.258 . S
O43 Cd34 2.378 . S
O43 C41 1.256 . S
C44 O60 1.251 . S
C44 O62 1.254 . S
N45 C46 1.333 . S
N45 C50 1.307 . S
N45 Zn51 2.020 . S
C46 N45 1.333 . S
C46 C47 1.379 . S
C46 H64 0.952 . S
C47 C46 1.379 . S
C47 C48 1.390 . S
C47 H74 0.949 . S
C48 C47 1.390 . S
C48 C49 1.357 . S
C49 C48 1.357 . S
C49 C50 1.370 . S
C49 H75 0.950 . S
C50 N45 1.307 . S
C50 C49 1.370 . S
C50 H68 0.948 . S
Zn51 N45 2.020 . S
Zn51 O60 2.039 1_545 S
Zn51 O66 2.034 1_545 S
Zn51 O70 2.025 . S
Zn51 O72 2.040 . S
C52 O71 1.246 . S
C52 O72 1.226 1_655 S
N53 C54 1.307 . S
N53 C55 1.333 . S
N53 Zn59 2.020 . S
C54 N53 1.307 . S
C54 C58 1.370 . S
C54 H65 0.948 . S
C55 N53 1.333 . S
C55 C56 1.379 . S
C55 H63 0.952 . S
C56 C55 1.379 . S
C56 C57 1.390 . S
C56 H76 0.949 . S
C57 C56 1.390 . S
C57 C58 1.357 . S
C58 C54 1.370 . S
C58 C57 1.357 . S
C58 H77 0.950 . S
Zn59 N53 2.020 . S
Zn59 O62 2.025 1_655 S
Zn59 O67 2.024 1_655 S
Zn59 O69 2.039 1_565 S
Zn59 O71 2.034 1_565 S
O60 C44 1.251 . S
O60 Zn51 2.039 1_565 S
C61 O66 1.246 . S
C61 O67 1.249 . S
O62 C44 1.254 . S
O62 Zn59 2.025 1_455 S
H63 C55 0.952 . S
H64 C46 0.952 . S
H65 C54 0.948 . S
O66 Zn51 2.034 1_565 S
O66 C61 1.246 . S
O67 Zn59 2.024 1_455 S
O67 C61 1.249 . S
H68 C50 0.948 . S
O69 Zn59 2.039 1_545 S
O69 C73 1.251 . S
O70 Zn51 2.025 . S
O70 C73 1.254 1_455 S
O71 C52 1.246 . S
O71 Zn59 2.034 1_545 S
O72 Zn51 2.040 . S
O72 C52 1.226 1_455 S
C73 O69 1.251 . S
C73 O70 1.254 1_655 S
H74 C47 0.949 . S
H75 C49 0.950 . S
H76 C56 0.949 . S
H77 C58 0.950 . S
C78 O94 1.251 . S
C78 O96 1.254 . S
N79 C80 1.333 1_554 S
N79 C84 1.307 . S
N79 Zn85 2.020 . S
C80 N79 1.333 1_556 S
C80 C81 1.379 . S
C80 H98 0.952 . S
C81 C80 1.379 . S
C81 C82 1.390 1_556 S
C81 H108 0.949 . S
C82 C81 1.390 1_554 S
C82 C83 1.357 . S
C83 C82 1.357 . S
C83 C84 1.370 . S
C83 H109 0.950 . S
C84 N79 1.307 . S
C84 C83 1.370 . S
C84 H102 0.948 . S
Zn85 N79 2.020 . S
Zn85 O94 2.039 1_554 S
Zn85 O100 2.034 . S
Zn85 O104 2.025 . S
Zn85 O106 2.024 1_554 S
C86 O105 1.246 . S
C86 O106 1.249 . S
N87 C88 1.307 . S
N87 C89 1.333 1_556 S
N87 Zn93 2.020 1_556 S
C88 N87 1.307 . S
C88 C92 1.370 . S
C88 H99 0.948 . S
C89 N87 1.333 1_554 S
C89 C90 1.379 . S
C89 H97 0.952 . S
C90 C89 1.379 . S
C90 C91 1.390 1_554 S
C90 H110 0.949 . S
C91 C90 1.390 1_556 S
C91 C92 1.357 . S
C92 C88 1.370 . S
C92 C91 1.357 . S
C92 H111 0.950 . S
Zn93 N87 2.020 1_554 S
Zn93 O96 2.025 1_554 S
Zn93 O101 2.024 . S
Zn93 O103 2.039 . S
Zn93 O105 2.034 1_554 S
O94 C78 1.251 . S
O94 Zn85 2.039 1_556 S
C95 O100 1.246 . S
C95 O101 1.249 . S
O96 C78 1.254 . S
O96 Zn93 2.025 1_556 S
H97 C89 0.952 . S
H98 C80 0.952 . S
H99 C88 0.948 . S
O100 Zn85 2.034 . S
O100 C95 1.246 . S
O101 Zn93 2.024 . S
O101 C95 1.249 . S
H102 C84 0.948 . S
O103 Zn93 2.039 . S
O103 C107 1.251 . S
O104 Zn85 2.025 . S
O104 C107 1.254 . S
O105 C86 1.246 . S
O105 Zn93 2.034 1_556 S
O106 Zn85 2.024 1_556 S
O106 C86 1.249 . S
C107 O103 1.251 . S
C107 O104 1.254 . S
H108 C81 0.949 . S
H109 C83 0.950 . S
H110 C90 0.949 . S
H111 C92 0.950 . S
C112 C113 1.386 . S
C112 C114 1.383 . S
C112 H128 0.951 . S
C113 C112 1.386 . S
C113 C117 1.383 . S
C114 C112 1.383 . S
C114 C115 1.402 . S
C114 H129 0.951 . S
C115 C114 1.402 . S
C115 C116 1.375 . S
C115 C118 1.481 . S
C116 C115 1.375 . S
C116 C117 1.367 . S
C116 H130 0.951 . S
C117 C113 1.383 . S
C117 C116 1.367 . S
C117 H131 0.950 . S
C118 C115 1.481 . S
C118 C119 1.297 . S
C118 H132 0.950 . S
C119 C118 1.297 . S
C119 C120 1.479 . S
C119 H133 0.950 . S
C120 C119 1.479 . S
C120 C121 1.375 . S
C120 C126 1.404 . S
C121 C120 1.375 . S
C121 C122 1.369 . S
C121 H134 0.950 . S
C122 C121 1.369 . S
C122 C123 1.392 . S
C122 H135 0.951 . S
C123 C122 1.392 . S
C123 C125 1.384 . S
H124 C126 0.949 . S
C125 C123 1.384 . S
C125 C126 1.385 . S
C125 H127 0.950 . S
C126 C120 1.404 . S
C126 H124 0.949 . S
C126 C125 1.385 . S
H127 C125 0.950 . S
H128 C112 0.951 . S
H129 C114 0.951 . S
H130 C116 0.951 . S
H131 C117 0.950 . S
H132 C118 0.950 . S
H133 C119 0.950 . S
H134 C121 0.950 . S
H135 C122 0.951 . S
C136 C137 1.386 . S
C136 C138 1.383 . S
C136 H152 0.951 . S
C137 C136 1.386 . S
C137 C141 1.383 . S
C138 C136 1.383 . S
C138 C139 1.402 . S
C138 H153 0.951 . S
C139 C138 1.402 . S
C139 C140 1.375 . S
C139 C142 1.481 . S
C140 C139 1.375 . S
C140 C141 1.367 . S
C140 H154 0.951 1_554 S
C141 C137 1.383 . S
C141 C140 1.367 . S
C141 H155 0.950 1_554 S
C142 C139 1.481 . S
C142 C143 1.297 . S
C142 H156 0.950 . S
C143 C142 1.297 . S
C143 C144 1.479 . S
C143 H157 0.950 . S
C144 C143 1.479 . S
C144 C145 1.375 . S
C144 C150 1.404 . S
C145 C144 1.375 . S
C145 C146 1.369 . S
C145 H158 0.950 . S
C146 C145 1.369 . S
C146 C147 1.392 . S
C146 H159 0.951 . S
C147 C146 1.392 . S
C147 C149 1.384 1_554 S
H148 C150 0.949 . S
C149 C147 1.384 1_556 S
C149 C150 1.384 1_556 S
C149 H151 0.951 . S
C150 C144 1.404 . S
C150 H148 0.949 . S
C150 C149 1.384 1_554 S
H151 C149 0.951 . S
H152 C136 0.951 . S
H153 C138 0.951 . S
H154 C140 0.951 1_556 S
H155 C141 0.950 1_556 S
H156 C142 0.950 . S
H157 C143 0.950 . S
H158 C145 0.950 . S
H159 C146 0.951 . S
C160 C161 1.386 . S
C160 C162 1.383 . S
C160 H176 0.951 . S
C161 C160 1.386 . S
C161 C165 1.383 . S
C162 C160 1.383 . S
C162 C163 1.402 . S
C162 H177 0.951 . S
C163 C162 1.402 . S
C163 C164 1.375 . S
C163 C166 1.481 . S
C164 C163 1.375 . S
C164 C165 1.367 . S
C164 H178 0.951 . S
C165 C161 1.383 . S
C165 C164 1.367 . S
C165 H179 0.950 . S
C166 C163 1.481 . S
C166 C167 1.297 . S
C166 H180 0.950 . S
C167 C166 1.297 . S
C167 C168 1.479 . S
C167 H181 0.950 . S
C168 C167 1.479 . S
C168 C169 1.375 . S
C168 C174 1.404 . S
C169 C168 1.375 . S
C169 C170 1.369 . S
C169 H182 0.950 . S
C170 C169 1.369 . S
C170 C171 1.392 . S
C170 H183 0.951 . S
C171 C170 1.392 . S
C171 C173 1.384 . S
H172 C174 0.949 . S
C173 C171 1.384 . S
C173 C174 1.385 . S
C173 H175 0.950 . S
C174 C168 1.404 . S
C174 H172 0.949 . S
C174 C173 1.385 . S
H175 C173 0.950 . S
H176 C160 0.951 . S
H177 C162 0.951 . S
H178 C164 0.951 . S
H179 C165 0.950 . S
H180 C166 0.950 . S
H181 C167 0.950 . S
H182 C169 0.950 . S
H183 C170 0.951 . S
C184 C185 1.386 . S
C184 C186 1.383 . S
C184 H200 0.951 1_554 S
C185 C184 1.386 . S
C185 C189 1.383 . S
C186 C184 1.383 . S
C186 C187 1.402 . S
C186 H201 0.951 1_554 S
C187 C186 1.402 . S
C187 C188 1.375 . S
C187 C190 1.481 . S
C188 C187 1.375 . S
C188 C189 1.367 . S
C188 H202 0.951 . S
C189 C185 1.383 . S
C189 C188 1.367 . S
C189 H203 0.950 . S
C190 C187 1.481 . S
C190 C191 1.298 1_554 S
C190 H204 0.950 . S
C191 C190 1.298 1_556 S
C191 C192 1.480 . S
C191 H205 0.949 . S
C192 C191 1.480 . S
C192 C193 1.375 . S
C192 C198 1.405 1_556 S
C193 C192 1.375 . S
C193 C194 1.369 . S
C193 H206 0.950 . S
C194 C193 1.369 . S
C194 C195 1.392 1_556 S
C194 H207 0.951 . S
C195 C194 1.392 1_554 S
C195 C197 1.384 . S
H196 C198 0.949 . S
C197 C195 1.384 . S
C197 C198 1.385 . S
C197 H199 0.950 . S
C198 C192 1.405 1_554 S
C198 H196 0.949 . S
C198 C197 1.385 . S
H199 C197 0.950 . S
H200 C184 0.951 1_556 S
H201 C186 0.951 1_556 S
H202 C188 0.951 . S
H203 C189 0.950 . S
H204 C190 0.950 . S
H205 C191 0.949 . S
H206 C193 0.950 . S
H207 C194 0.951 . S
C208 C209 1.386 . S
C208 C210 1.383 . S
C208 H224 0.951 . S
C209 C208 1.386 . S
C209 C213 1.383 . S
C210 C208 1.383 . S
C210 C211 1.402 . S
C210 H225 0.951 . S
C211 C210 1.402 . S
C211 C212 1.375 . S
C211 C214 1.481 . S
C212 C211 1.375 . S
C212 C213 1.367 . S
C212 H226 0.951 . S
C213 C209 1.383 . S
C213 C212 1.367 . S
C213 H227 0.950 . S
C214 C211 1.481 . S
C214 C215 1.297 . S
C214 H228 0.950 . S
C215 C214 1.297 . S
C215 C216 1.479 . S
C215 H229 0.950 . S
C216 C215 1.479 . S
C216 C217 1.375 . S
C216 C222 1.404 . S
C217 C216 1.375 . S
C217 C218 1.369 . S
C217 H230 0.950 . S
C218 C217 1.369 . S
C218 C219 1.392 . S
C218 H231 0.951 . S
C219 C218 1.392 . S
C219 C221 1.384 . S
H220 C222 0.949 . S
C221 C219 1.384 . S
C221 C222 1.385 . S
C221 H223 0.950 . S
C222 C216 1.404 . S
C222 H220 0.949 . S
C222 C221 1.385 . S
H223 C221 0.950 . S
H224 C208 0.951 . S
H225 C210 0.951 . S
H226 C212 0.951 . S
H227 C213 0.950 . S
H228 C214 0.950 . S
H229 C215 0.950 . S
H230 C217 0.950 . S
H231 C218 0.951 . S
C232 C233 1.386 . S
C232 C234 1.383 . S
C232 H248 0.951 . S
C233 C232 1.386 . S
C233 C237 1.383 . S
C234 C232 1.383 . S
C234 C235 1.402 . S
C234 H249 0.951 . S
C235 C234 1.402 . S
C235 C236 1.375 . S
C235 C238 1.481 . S
C236 C235 1.375 . S
C236 C237 1.367 . S
C236 H250 0.951 . S
C237 C233 1.383 . S
C237 C236 1.367 . S
C237 H251 0.950 . S
C238 C235 1.481 . S
C238 C239 1.297 . S
C238 H252 0.950 . S
C239 C238 1.297 . S
C239 C240 1.479 . S
C239 H253 0.950 . S
C240 C239 1.479 . S
C240 C241 1.375 . S
C240 C246 1.404 . S
C241 C240 1.375 . S
C241 C242 1.369 . S
C241 H254 0.950 . S
C242 C241 1.369 . S
C242 C243 1.392 . S
C242 H255 0.951 . S
C243 C242 1.392 . S
C243 C245 1.384 . S
H244 C246 0.949 . S
C245 C243 1.384 . S
C245 C246 1.385 . S
C245 H247 0.950 . S
C246 C240 1.404 . S
C246 H244 0.949 . S
C246 C245 1.385 . S
H247 C245 0.950 . S
H248 C232 0.951 . S
H249 C234 0.951 . S
H250 C236 0.951 . S
H251 C237 0.950 . S
H252 C238 0.950 . S
H253 C239 0.950 . S
H254 C241 0.950 . S
H255 C242 0.951 . S
C256 C257 1.386 . S
C256 C258 1.383 . S
C256 H272 0.951 . S
C257 C256 1.386 . S
C257 C261 1.383 . S
C258 C256 1.383 . S
C258 C259 1.402 . S
C258 H273 0.951 . S
C259 C258 1.402 . S
C259 C260 1.375 . S
C259 C262 1.481 . S
C260 C259 1.375 . S
C260 C261 1.367 . S
C260 H274 0.951 . S
C261 C257 1.383 . S
C261 C260 1.367 . S
C261 H275 0.950 . S
C262 C259 1.481 . S
C262 C263 1.297 . S
C262 H276 0.950 . S
C263 C262 1.297 . S
C263 C264 1.479 . S
C263 H277 0.950 . S
C264 C263 1.479 . S
C264 C265 1.375 . S
C264 C270 1.404 . S
C265 C264 1.375 . S
C265 C266 1.369 . S
C265 H278 0.950 . S
C266 C265 1.369 . S
C266 C267 1.392 . S
C266 H279 0.951 . S
C267 C266 1.392 . S
C267 C269 1.384 . S
H268 C270 0.949 . S
C269 C267 1.384 . S
C269 C270 1.385 . S
C269 H271 0.950 . S
C270 C264 1.404 . S
C270 H268 0.949 . S
C270 C269 1.385 . S
H271 C269 0.950 . S
H272 C256 0.951 . S
H273 C258 0.951 . S
H274 C260 0.951 . S
H275 C261 0.950 . S
H276 C262 0.950 . S
H277 C263 0.950 . S
H278 C265 0.950 . S
H279 C266 0.951 . S
C280 C281 1.386 . S
C280 C282 1.383 . S
C280 H296 0.951 . S
C281 C280 1.386 . S
C281 C285 1.383 . S
C282 C280 1.383 . S
C282 C283 1.402 . S
C282 H297 0.951 . S
C283 C282 1.402 . S
C283 C284 1.375 . S
C283 C286 1.481 . S
C284 C283 1.375 . S
C284 C285 1.367 . S
C284 H298 0.951 . S
C285 C281 1.383 . S
C285 C284 1.367 . S
C285 H299 0.950 . S
C286 C283 1.481 . S
C286 C287 1.297 . S
C286 H300 0.950 . S
C287 C286 1.297 . S
C287 C288 1.479 . S
C287 H301 0.950 . S
C288 C287 1.479 . S
C288 C289 1.375 . S
C288 C294 1.404 . S
C289 C288 1.375 . S
C289 C290 1.369 . S
C289 H302 0.950 . S
C290 C289 1.369 . S
C290 C291 1.392 . S
C290 H303 0.951 . S
C291 C290 1.392 . S
C291 C293 1.384 . S
H292 C294 0.949 . S
C293 C291 1.384 . S
C293 C294 1.385 . S
C293 H295 0.950 . S
C294 C288 1.404 . S
C294 H292 0.949 . S
C294 C293 1.385 . S
H295 C293 0.950 . S
H296 C280 0.951 . S
H297 C282 0.951 . S
H298 C284 0.951 . S
H299 C285 0.950 . S
H300 C286 0.950 . S
H301 C287 0.950 . S
H302 C289 0.950 . S
H303 C290 0.951 . S
C304 C305 1.386 . S
C304 C306 1.383 . S
C304 H320 0.951 . S
C305 C304 1.386 . S
C305 C309 1.383 . S
C306 C304 1.383 . S
C306 C307 1.402 . S
C306 H321 0.951 . S
C307 C306 1.402 . S
C307 C308 1.375 . S
C307 C310 1.481 . S
C308 C307 1.375 . S
C308 C309 1.367 . S
C308 H322 0.951 . S
C309 C305 1.383 . S
C309 C308 1.367 . S
C309 H323 0.950 . S
C310 C307 1.481 . S
C310 C311 1.297 . S
C310 H324 0.950 . S
C311 C310 1.297 . S
C311 C312 1.479 . S
C311 H325 0.950 . S
C312 C311 1.479 . S
C312 C313 1.375 . S
C312 C318 1.404 . S
C313 C312 1.375 . S
C313 C314 1.369 . S
C313 H326 0.950 . S
C314 C313 1.369 . S
C314 C315 1.392 . S
C314 H327 0.951 . S
C315 C314 1.392 . S
C315 C317 1.384 . S
H316 C318 0.949 . S
C317 C315 1.384 . S
C317 C318 1.385 . S
C317 H319 0.950 . S
C318 C312 1.404 . S
C318 H316 0.949 . S
C318 C317 1.385 . S
H319 C317 0.950 . S
H320 C304 0.951 . S
H321 C306 0.951 . S
H322 C308 0.951 . S
H323 C309 0.950 . S
H324 C310 0.950 . S
H325 C311 0.950 . S
H326 C313 0.950 . S
H327 C314 0.951 . S
C328 C329 1.386 . S
C328 C330 1.383 . S
C328 H344 0.951 . S
C329 C328 1.386 . S
C329 C333 1.383 . S
C330 C328 1.383 . S
C330 C331 1.402 . S
C330 H345 0.951 . S
C331 C330 1.402 . S
C331 C332 1.375 . S
C331 C334 1.481 . S
C332 C331 1.375 . S
C332 C333 1.367 . S
C332 H346 0.951 . S
C333 C329 1.383 . S
C333 C332 1.367 . S
C333 H347 0.950 . S
C334 C331 1.481 . S
C334 C335 1.297 . S
C334 H348 0.950 . S
C335 C334 1.297 . S
C335 C336 1.479 . S
C335 H349 0.950 . S
C336 C335 1.479 . S
C336 C337 1.375 . S
C336 C342 1.404 . S
C337 C336 1.375 . S
C337 C338 1.369 . S
C337 H350 0.950 . S
C338 C337 1.369 . S
C338 C339 1.392 . S
C338 H351 0.951 1_655 S
C339 C338 1.392 . S
C339 C341 1.384 . S
H340 C342 0.949 . S
C341 C339 1.384 . S
C341 C342 1.385 . S
C341 H343 0.950 . S
C342 C336 1.404 . S
C342 H340 0.949 . S
C342 C341 1.385 . S
H343 C341 0.950 . S
H344 C328 0.951 . S
H345 C330 0.951 . S
H346 C332 0.951 . S
H347 C333 0.950 . S
H348 C334 0.950 . S
H349 C335 0.950 . S
H350 C337 0.950 . S
H351 C338 0.951 1_455 S
C352 C353 1.386 . S
C352 C354 1.383 . S
C352 H368 0.951 . S
C353 C352 1.386 . S
C353 C357 1.383 . S
C354 C352 1.383 . S
C354 C355 1.402 . S
C354 H369 0.951 . S
C355 C354 1.402 . S
C355 C356 1.375 . S
C355 C358 1.481 . S
C356 C355 1.375 . S
C356 C357 1.367 . S
C356 H370 0.951 . S
C357 C353 1.383 . S
C357 C356 1.367 . S
C357 H371 0.950 . S
C358 C355 1.481 . S
C358 C359 1.297 . S
C358 H372 0.950 . S
C359 C358 1.297 . S
C359 C360 1.479 . S
C359 H373 0.950 . S
C360 C359 1.479 . S
C360 C361 1.375 . S
C360 C366 1.404 . S
C361 C360 1.375 . S
C361 C362 1.369 . S
C361 H374 0.950 . S
C362 C361 1.369 . S
C362 C363 1.392 . S
C362 H375 0.951 . S
C363 C362 1.392 . S
C363 C365 1.384 . S
H364 C366 0.949 . S
C365 C363 1.384 . S
C365 C366 1.385 . S
C365 H367 0.950 . S
C366 C360 1.404 . S
C366 H364 0.949 . S
C366 C365 1.385 . S
H367 C365 0.950 . S
H368 C352 0.951 . S
H369 C354 0.951 . S
H370 C356 0.951 . S
H371 C357 0.950 . S
H372 C358 0.950 . S
H373 C359 0.950 . S
H374 C361 0.950 . S
H375 C362 0.951 . S
C376 C377 1.386 . S
C376 C378 1.383 . S
C376 H392 0.951 . S
C377 C376 1.386 . S
C377 C381 1.383 . S
C378 C376 1.383 . S
C378 C379 1.402 . S
C378 H393 0.951 . S
C379 C378 1.402 . S
C379 C380 1.375 . S
C379 C382 1.481 . S
C380 C379 1.375 . S
C380 C381 1.367 . S
C380 H394 0.951 . S
C381 C377 1.383 . S
C381 C380 1.367 . S
C381 H395 0.950 . S
C382 C379 1.481 . S
C382 C383 1.297 . S
C382 H396 0.950 . S
C383 C382 1.297 . S
C383 C384 1.479 . S
C383 H397 0.950 . S
C384 C383 1.479 . S
C384 C385 1.375 . S
C384 C390 1.404 . S
C385 C384 1.375 . S
C385 C386 1.369 . S
C385 H398 0.950 . S
C386 C385 1.369 . S
C386 C387 1.392 . S
C386 H399 0.951 . S
C387 C386 1.392 . S
C387 C389 1.384 . S
H388 C390 0.949 . S
C389 C387 1.384 . S
C389 C390 1.385 . S
C389 H391 0.950 . S
C390 C384 1.404 . S
C390 H388 0.949 . S
C390 C389 1.385 . S
H391 C389 0.950 . S
H392 C376 0.951 . S
H393 C378 0.951 . S
H394 C380 0.951 . S
H395 C381 0.950 . S
H396 C382 0.950 . S
H397 C383 0.950 . S
H398 C385 0.950 . S
H399 C386 0.951 . S
C123 C48 1.518 . S
C113 C41 1.514 . S
C137 C8 1.509 . S
C147 C91 1.496 1_554 S
C161 C19 1.497 . S
C171 C57 1.524 . S
C185 C30 1.512 . S
C195 C82 1.511 . S
C219 C44 1.571 . S
C209 C5 1.294 . S
C243 C86 1.656 . S
C233 C18 1.610 . S
C257 C29 1.573 . S
C267 C52 1.577 . S
C281 C40 1.570 . S
C291 C78 1.655 . S
C315 C107 1.379 . S
C305 C16 1.186 . S
C339 C73 1.399 . S
C329 C27 1.295 . S
C363 C95 1.372 . S
C353 C38 1.180 . S
C377 C7 1.330 . S
C387 C61 1.393 . S
