# Generated by pormake.
# Topology gar, (4,6)-cn, num edge types: 1
# Building blocks:
#     Node 0, Type 0, BuildingBlock: UXUYUI_clean_sbu_0, # of connection points: 4
#     Node 1, Type 0, BuildingBlock: UXUYUI_clean_sbu_0, # of connection points: 4
#     Node 2, Type 0, BuildingBlock: UXUYUI_clean_sbu_0, # of connection points: 4
#     Node 3, Type 0, BuildingBlock: UXUYUI_clean_sbu_0, # of connection points: 4
#     Node 4, Type 0, BuildingBlock: UXUYUI_clean_sbu_0, # of connection points: 4
#     Node 5, Type 0, BuildingBlock: UXUYUI_clean_sbu_0, # of connection points: 4
#     Node 6, Type 0, BuildingBlock: UXUYUI_clean_sbu_0, # of connection points: 4
#     Node 7, Type 0, BuildingBlock: UXUYUI_clean_sbu_0, # of connection points: 4
#     Node 8, Type 0, BuildingBlock: UXUYUI_clean_sbu_0, # of connection points: 4
#     Node 9, Type 0, BuildingBlock: UXUYUI_clean_sbu_0, # of connection points: 4
#     Node 10, Type 0, BuildingBlock: UXUYUI_clean_sbu_0, # of connection points: 4
#     Node 11, Type 0, BuildingBlock: UXUYUI_clean_sbu_0, # of connection points: 4
#     Node 12, Type 0, BuildingBlock: UXUYUI_clean_sbu_0, # of connection points: 4
#     Node 13, Type 0, BuildingBlock: UXUYUI_clean_sbu_0, # of connection points: 4
#     Node 14, Type 0, BuildingBlock: UXUYUI_clean_sbu_0, # of connection points: 4
#     Node 15, Type 0, BuildingBlock: UXUYUI_clean_sbu_0, # of connection points: 4
#     Node 16, Type 0, BuildingBlock: UXUYUI_clean_sbu_0, # of connection points: 4
#     Node 17, Type 0, BuildingBlock: UXUYUI_clean_sbu_0, # of connection points: 4
#     Node 18, Type 0, BuildingBlock: UXUYUI_clean_sbu_0, # of connection points: 4
#     Node 19, Type 0, BuildingBlock: UXUYUI_clean_sbu_0, # of connection points: 4
#     Node 20, Type 0, BuildingBlock: UXUYUI_clean_sbu_0, # of connection points: 4
#     Node 21, Type 0, BuildingBlock: UXUYUI_clean_sbu_0, # of connection points: 4
#     Node 22, Type 0, BuildingBlock: UXUYUI_clean_sbu_0, # of connection points: 4
#     Node 23, Type 0, BuildingBlock: UXUYUI_clean_sbu_0, # of connection points: 4
#     Node 24, Type 1, BuildingBlock: KUMJIN_clean_sbu_0, # of connection points: 6
#     Node 25, Type 1, BuildingBlock: KUMJIN_clean_sbu_0, # of connection points: 6
#     Node 26, Type 1, BuildingBlock: KUMJIN_clean_sbu_0, # of connection points: 6
#     Node 27, Type 1, BuildingBlock: KUMJIN_clean_sbu_0, # of connection points: 6
#     Node 28, Type 1, BuildingBlock: KUMJIN_clean_sbu_0, # of connection points: 6
#     Node 29, Type 1, BuildingBlock: KUMJIN_clean_sbu_0, # of connection points: 6
#     Node 30, Type 1, BuildingBlock: KUMJIN_clean_sbu_0, # of connection points: 6
#     Node 31, Type 1, BuildingBlock: KUMJIN_clean_sbu_0, # of connection points: 6
#     Node 32, Type 1, BuildingBlock: KUMJIN_clean_sbu_0, # of connection points: 6
#     Node 33, Type 1, BuildingBlock: KUMJIN_clean_sbu_0, # of connection points: 6
#     Node 34, Type 1, BuildingBlock: KUMJIN_clean_sbu_0, # of connection points: 6
#     Node 35, Type 1, BuildingBlock: KUMJIN_clean_sbu_0, # of connection points: 6
#     Node 36, Type 1, BuildingBlock: KUMJIN_clean_sbu_0, # of connection points: 6
#     Node 37, Type 1, BuildingBlock: KUMJIN_clean_sbu_0, # of connection points: 6
#     Node 38, Type 1, BuildingBlock: KUMJIN_clean_sbu_0, # of connection points: 6
#     Node 39, Type 1, BuildingBlock: KUMJIN_clean_sbu_0, # of connection points: 6
#     Edge 40, Type (0, 1), BuildingBlock: ZUJKAS_clean_linker_0, # of connection points: 2
#     Edge 41, Type (0, 1), BuildingBlock: ZUJKAS_clean_linker_0, # of connection points: 2
#     Edge 42, Type (0, 1), BuildingBlock: ZUJKAS_clean_linker_0, # of connection points: 2
#     Edge 43, Type (0, 1), BuildingBlock: ZUJKAS_clean_linker_0, # of connection points: 2
#     Edge 44, Type (0, 1), BuildingBlock: ZUJKAS_clean_linker_0, # of connection points: 2
#     Edge 45, Type (0, 1), BuildingBlock: ZUJKAS_clean_linker_0, # of connection points: 2
#     Edge 46, Type (0, 1), BuildingBlock: ZUJKAS_clean_linker_0, # of connection points: 2
#     Edge 47, Type (0, 1), BuildingBlock: ZUJKAS_clean_linker_0, # of connection points: 2
#     Edge 48, Type (0, 1), BuildingBlock: ZUJKAS_clean_linker_0, # of connection points: 2
#     Edge 49, Type (0, 1), BuildingBlock: ZUJKAS_clean_linker_0, # of connection points: 2
#     Edge 50, Type (0, 1), BuildingBlock: ZUJKAS_clean_linker_0, # of connection points: 2
#     Edge 51, Type (0, 1), BuildingBlock: ZUJKAS_clean_linker_0, # of connection points: 2
#     Edge 52, Type (0, 1), BuildingBlock: ZUJKAS_clean_linker_0, # of connection points: 2
#     Edge 53, Type (0, 1), BuildingBlock: ZUJKAS_clean_linker_0, # of connection points: 2
#     Edge 54, Type (0, 1), BuildingBlock: ZUJKAS_clean_linker_0, # of connection points: 2
#     Edge 55, Type (0, 1), BuildingBlock: ZUJKAS_clean_linker_0, # of connection points: 2
#     Edge 56, Type (0, 1), BuildingBlock: ZUJKAS_clean_linker_0, # of connection points: 2
#     Edge 57, Type (0, 1), BuildingBlock: ZUJKAS_clean_linker_0, # of connection points: 2
#     Edge 58, Type (0, 1), BuildingBlock: ZUJKAS_clean_linker_0, # of connection points: 2
#     Edge 59, Type (0, 1), BuildingBlock: ZUJKAS_clean_linker_0, # of connection points: 2
#     Edge 60, Type (0, 1), BuildingBlock: ZUJKAS_clean_linker_0, # of connection points: 2
#     Edge 61, Type (0, 1), BuildingBlock: ZUJKAS_clean_linker_0, # of connection points: 2
#     Edge 62, Type (0, 1), BuildingBlock: ZUJKAS_clean_linker_0, # of connection points: 2
#     Edge 63, Type (0, 1), BuildingBlock: ZUJKAS_clean_linker_0, # of connection points: 2
#     Edge 64, Type (0, 1), BuildingBlock: ZUJKAS_clean_linker_0, # of connection points: 2
#     Edge 65, Type (0, 1), BuildingBlock: ZUJKAS_clean_linker_0, # of connection points: 2
#     Edge 66, Type (0, 1), BuildingBlock: ZUJKAS_clean_linker_0, # of connection points: 2
#     Edge 67, Type (0, 1), BuildingBlock: ZUJKAS_clean_linker_0, # of connection points: 2
#     Edge 68, Type (0, 1), BuildingBlock: ZUJKAS_clean_linker_0, # of connection points: 2
#     Edge 69, Type (0, 1), BuildingBlock: ZUJKAS_clean_linker_0, # of connection points: 2
#     Edge 70, Type (0, 1), BuildingBlock: ZUJKAS_clean_linker_0, # of connection points: 2
#     Edge 71, Type (0, 1), BuildingBlock: ZUJKAS_clean_linker_0, # of connection points: 2
#     Edge 72, Type (0, 1), BuildingBlock: ZUJKAS_clean_linker_0, # of connection points: 2
#     Edge 73, Type (0, 1), BuildingBlock: ZUJKAS_clean_linker_0, # of connection points: 2
#     Edge 74, Type (0, 1), BuildingBlock: ZUJKAS_clean_linker_0, # of connection points: 2
#     Edge 75, Type (0, 1), BuildingBlock: ZUJKAS_clean_linker_0, # of connection points: 2
#     Edge 76, Type (0, 1), BuildingBlock: ZUJKAS_clean_linker_0, # of connection points: 2
#     Edge 77, Type (0, 1), BuildingBlock: ZUJKAS_clean_linker_0, # of connection points: 2
#     Edge 78, Type (0, 1), BuildingBlock: ZUJKAS_clean_linker_0, # of connection points: 2
#     Edge 79, Type (0, 1), BuildingBlock: ZUJKAS_clean_linker_0, # of connection points: 2
#     Edge 80, Type (0, 1), BuildingBlock: ZUJKAS_clean_linker_0, # of connection points: 2
#     Edge 81, Type (0, 1), BuildingBlock: ZUJKAS_clean_linker_0, # of connection points: 2
#     Edge 82, Type (0, 1), BuildingBlock: ZUJKAS_clean_linker_0, # of connection points: 2
#     Edge 83, Type (0, 1), BuildingBlock: ZUJKAS_clean_linker_0, # of connection points: 2
#     Edge 84, Type (0, 1), BuildingBlock: ZUJKAS_clean_linker_0, # of connection points: 2
#     Edge 85, Type (0, 1), BuildingBlock: ZUJKAS_clean_linker_0, # of connection points: 2
#     Edge 86, Type (0, 1), BuildingBlock: ZUJKAS_clean_linker_0, # of connection points: 2
#     Edge 87, Type (0, 1), BuildingBlock: ZUJKAS_clean_linker_0, # of connection points: 2
#     Edge 88, Type (0, 1), BuildingBlock: ZUJKAS_clean_linker_0, # of connection points: 2
#     Edge 89, Type (0, 1), BuildingBlock: ZUJKAS_clean_linker_0, # of connection points: 2
#     Edge 90, Type (0, 1), BuildingBlock: ZUJKAS_clean_linker_0, # of connection points: 2
#     Edge 91, Type (0, 1), BuildingBlock: ZUJKAS_clean_linker_0, # of connection points: 2
#     Edge 92, Type (0, 1), BuildingBlock: ZUJKAS_clean_linker_0, # of connection points: 2
#     Edge 93, Type (0, 1), BuildingBlock: ZUJKAS_clean_linker_0, # of connection points: 2
#     Edge 94, Type (0, 1), BuildingBlock: ZUJKAS_clean_linker_0, # of connection points: 2
#     Edge 95, Type (0, 1), BuildingBlock: ZUJKAS_clean_linker_0, # of connection points: 2
#     Edge 96, Type (0, 1), BuildingBlock: ZUJKAS_clean_linker_0, # of connection points: 2
#     Edge 97, Type (0, 1), BuildingBlock: ZUJKAS_clean_linker_0, # of connection points: 2
#     Edge 98, Type (0, 1), BuildingBlock: ZUJKAS_clean_linker_0, # of connection points: 2
#     Edge 99, Type (0, 1), BuildingBlock: ZUJKAS_clean_linker_0, # of connection points: 2
#     Edge 100, Type (0, 1), BuildingBlock: ZUJKAS_clean_linker_0, # of connection points: 2
#     Edge 101, Type (0, 1), BuildingBlock: ZUJKAS_clean_linker_0, # of connection points: 2
#     Edge 102, Type (0, 1), BuildingBlock: ZUJKAS_clean_linker_0, # of connection points: 2
#     Edge 103, Type (0, 1), BuildingBlock: ZUJKAS_clean_linker_0, # of connection points: 2
#     Edge 104, Type (0, 1), BuildingBlock: ZUJKAS_clean_linker_0, # of connection points: 2
#     Edge 105, Type (0, 1), BuildingBlock: ZUJKAS_clean_linker_0, # of connection points: 2
#     Edge 106, Type (0, 1), BuildingBlock: ZUJKAS_clean_linker_0, # of connection points: 2
#     Edge 107, Type (0, 1), BuildingBlock: ZUJKAS_clean_linker_0, # of connection points: 2
#     Edge 108, Type (0, 1), BuildingBlock: ZUJKAS_clean_linker_0, # of connection points: 2
#     Edge 109, Type (0, 1), BuildingBlock: ZUJKAS_clean_linker_0, # of connection points: 2
#     Edge 110, Type (0, 1), BuildingBlock: ZUJKAS_clean_linker_0, # of connection points: 2
#     Edge 111, Type (0, 1), BuildingBlock: ZUJKAS_clean_linker_0, # of connection points: 2
#     Edge 112, Type (0, 1), BuildingBlock: ZUJKAS_clean_linker_0, # of connection points: 2
#     Edge 113, Type (0, 1), BuildingBlock: ZUJKAS_clean_linker_0, # of connection points: 2
#     Edge 114, Type (0, 1), BuildingBlock: ZUJKAS_clean_linker_0, # of connection points: 2
#     Edge 115, Type (0, 1), BuildingBlock: ZUJKAS_clean_linker_0, # of connection points: 2
#     Edge 116, Type (0, 1), BuildingBlock: ZUJKAS_clean_linker_0, # of connection points: 2
#     Edge 117, Type (0, 1), BuildingBlock: ZUJKAS_clean_linker_0, # of connection points: 2
#     Edge 118, Type (0, 1), BuildingBlock: ZUJKAS_clean_linker_0, # of connection points: 2
#     Edge 119, Type (0, 1), BuildingBlock: ZUJKAS_clean_linker_0, # of connection points: 2
#     Edge 120, Type (0, 1), BuildingBlock: ZUJKAS_clean_linker_0, # of connection points: 2
#     Edge 121, Type (0, 1), BuildingBlock: ZUJKAS_clean_linker_0, # of connection points: 2
#     Edge 122, Type (0, 1), BuildingBlock: ZUJKAS_clean_linker_0, # of connection points: 2
#     Edge 123, Type (0, 1), BuildingBlock: ZUJKAS_clean_linker_0, # of connection points: 2
#     Edge 124, Type (0, 1), BuildingBlock: ZUJKAS_clean_linker_0, # of connection points: 2
#     Edge 125, Type (0, 1), BuildingBlock: ZUJKAS_clean_linker_0, # of connection points: 2
#     Edge 126, Type (0, 1), BuildingBlock: ZUJKAS_clean_linker_0, # of connection points: 2
#     Edge 127, Type (0, 1), BuildingBlock: ZUJKAS_clean_linker_0, # of connection points: 2
#     Edge 128, Type (0, 1), BuildingBlock: ZUJKAS_clean_linker_0, # of connection points: 2
#     Edge 129, Type (0, 1), BuildingBlock: ZUJKAS_clean_linker_0, # of connection points: 2
#     Edge 130, Type (0, 1), BuildingBlock: ZUJKAS_clean_linker_0, # of connection points: 2
#     Edge 131, Type (0, 1), BuildingBlock: ZUJKAS_clean_linker_0, # of connection points: 2
#     Edge 132, Type (0, 1), BuildingBlock: ZUJKAS_clean_linker_0, # of connection points: 2
#     Edge 133, Type (0, 1), BuildingBlock: ZUJKAS_clean_linker_0, # of connection points: 2
#     Edge 134, Type (0, 1), BuildingBlock: ZUJKAS_clean_linker_0, # of connection points: 2
#     Edge 135, Type (0, 1), BuildingBlock: ZUJKAS_clean_linker_0, # of connection points: 2
# Relax obj value: 0.137
# Max RMSD: 0.299
# Mean RMSD: 0.194
data_MOF--net-gar--node1-UXUYUI_clean_sbu_0--node2-KUMJIN_clean_sbu_0--edge1-ZUJKAS_clean_linker_0
_symmetry_space_group_name_H-M    P1
_symmetry_Int_Tables_number       1
_symmetry_cell_setting            triclinic
loop_
_symmetry_equiv_pos_as_xyz
'x, y, z'
_cell_length_a     88.981187
_cell_length_b     85.104281
_cell_length_c     85.285056
_cell_angle_alpha  99.704063
_cell_angle_beta   92.80644
_cell_angle_gamma 102.19306
loop_
_atom_site_label
_atom_site_type_symbol
_atom_site_fract_x
_atom_site_fract_y
_atom_site_fract_z
_atom_type_partial_charge
Li0 Li 0.0747 0.31151 0.37733 0.0
Li1 Li 0.09452 0.32622 0.39829 0.0
Li2 Li 0.10198 0.31088 0.37471 0.0
Li3 Li 0.08753 0.29672 0.39497 0.0
C4 C 0.0927 0.34187 0.36792 0.0
N5 N 0.09315 0.36678 0.35077 0.0
C6 C 0.08975 0.35679 0.3752 0.0
C7 C 0.09586 0.33965 0.35189 0.0
C8 C 0.09004 0.36922 0.36634 0.0
C9 C 0.09604 0.35239 0.34344 0.0
C10 C 0.06407 0.3209 0.40776 0.0
C11 C 0.04687 0.32571 0.42814 0.0
N12 N 0.04404 0.3386 0.42189 0.0
C13 C 0.06096 0.33415 0.40152 0.0
C14 C 0.05695 0.31659 0.42114 0.0
C15 C 0.0508 0.34296 0.40884 0.0
C16 C 0.04316 0.29881 0.36749 0.0
N17 N 0.05542 0.31095 0.36611 0.0
C18 C 0.03975 0.32235 0.34962 0.0
C19 C 0.05397 0.32253 0.3573 0.0
C20 C 0.0268 0.31014 0.35102 0.0
C21 C 0.02865 0.29813 0.35996 0.0
H22 H 0.04463 0.28976 0.37461 0.0
H23 H 0.06376 0.33203 0.35626 0.0
C24 C 0.11269 0.35761 0.40801 0.0
N25 N 0.10161 0.34623 0.4128 0.0
C26 C 0.11679 0.37351 0.41671 0.0
C27 C 0.09884 0.36527 0.43578 0.0
C28 C 0.09518 0.34951 0.42675 0.0
C29 C 0.10935 0.37767 0.43044 0.0
H30 H 0.11778 0.35452 0.39697 0.0
H31 H 0.0867 0.34012 0.4305 0.0
C32 C 0.08062 0.28358 0.35583 0.0
N33 N 0.0754 0.26673 0.32472 0.0
C34 C 0.08033 0.26686 0.35254 0.0
C35 C 0.07818 0.29172 0.34334 0.0
C36 C 0.07769 0.25856 0.33672 0.0
C37 C 0.07558 0.28298 0.32768 0.0
C38 C 0.11845 0.31823 0.41045 0.0
C39 C 0.13272 0.32822 0.40888 0.0
C40 C 0.11393 0.3165 0.42565 0.0
C41 C 0.14221 0.33647 0.42261 0.0
C42 C 0.12374 0.32496 0.43908 0.0
N43 N 0.13755 0.3347 0.4373 0.0
C44 C 0.12715 0.32646 0.36129 0.0
C45 C 0.11905 0.2983 0.34989 0.0
C46 C 0.13849 0.32861 0.35066 0.0
N47 N 0.1176 0.31156 0.36055 0.0
C48 C 0.13027 0.29988 0.33905 0.0
C49 C 0.14008 0.31523 0.33927 0.0
H50 H 0.12574 0.33676 0.36998 0.0
H51 H 0.11152 0.28652 0.34977 0.0
C52 C 0.0701 0.27261 0.40938 0.0
N53 N 0.08448 0.27845 0.40523 0.0
C54 C 0.06739 0.25952 0.41754 0.0
C55 C 0.09434 0.2586 0.41681 0.0
C56 C 0.09652 0.27173 0.40867 0.0
C57 C 0.07962 0.25238 0.42144 0.0
H58 H 0.06077 0.27829 0.40652 0.0
H59 H 0.10783 0.27668 0.4052 0.0
O60 O 0.09245 0.32951 0.37641 0.0
O61 O 0.07411 0.3122 0.40093 0.0
O62 O 0.08345 0.29189 0.37122 0.0
O63 O 0.10875 0.31052 0.39721 0.0
H64 H 0.08722 0.3588 0.38755 0.0
H65 H 0.09813 0.32823 0.34598 0.0
H66 H 0.08777 0.38081 0.37184 0.0
H67 H 0.09846 0.35082 0.33103 0.0
H68 H 0.04132 0.32255 0.43853 0.0
H69 H 0.0663 0.33759 0.39115 0.0
H70 H 0.05928 0.30638 0.42613 0.0
H71 H 0.04831 0.35326 0.40415 0.0
H72 H 0.03892 0.33168 0.34262 0.0
H73 H 0.01894 0.28857 0.36143 0.0
H74 H 0.12513 0.38261 0.41233 0.0
H75 H 0.09272 0.3679 0.44622 0.0
H76 H 0.08222 0.26041 0.36211 0.0
H77 H 0.07831 0.30462 0.3457 0.0
H78 H 0.0775 0.24563 0.33398 0.0
H79 H 0.0737 0.28913 0.31789 0.0
H80 H 0.13635 0.32972 0.3972 0.0
H81 H 0.10285 0.3089 0.42704 0.0
H82 H 0.15325 0.34434 0.4216 0.0
H83 H 0.12035 0.32384 0.45092 0.0
H84 H 0.14578 0.34065 0.35121 0.0
H85 H 0.13137 0.28915 0.33073 0.0
H86 H 0.05593 0.25531 0.42107 0.0
H87 H 0.10405 0.25337 0.41942 0.0
Li88 Li 0.00494 0.78078 0.64162 0.0
Li89 Li 0.01859 0.76742 0.66006 0.0
Li90 Li 0.99813 0.75107 0.63934 0.0
Li91 Li 0.99156 0.76794 0.66334 0.0
C92 C 0.0273 0.7661 0.6243 0.0
N93 N 0.04582 0.7679 0.59932 0.0
C94 C 0.04335 0.77072 0.62736 0.0
C95 C 0.02067 0.76236 0.60855 0.0
C96 C 0.05252 0.77156 0.61456 0.0
C97 C 0.03023 0.76336 0.59608 0.0
C98 C 0.01242 0.79891 0.67837 0.0
C99 C 0.0153 0.80763 0.70697 0.0
N100 N 0.01836 0.82349 0.705 0.0
C101 C 0.01554 0.81528 0.67662 0.0
C102 C 0.0123 0.79502 0.69365 0.0
C103 C 0.01854 0.82754 0.69024 0.0
C104 C 0.99514 0.80408 0.62574 0.0
N105 N 0.00756 0.79853 0.63045 0.0
C106 C 0.02452 0.81848 0.61914 0.0
C107 C 0.02208 0.80553 0.62749 0.0
C108 C 0.01192 0.82445 0.61396 0.0
C109 C 0.99706 0.81709 0.61743 0.0
H110 H 0.98374 0.79841 0.62847 0.0
H111 H 0.03177 0.80104 0.63159 0.0
C112 C 0.04345 0.75398 0.66761 0.0
N113 N 0.03786 0.76775 0.6707 0.0
C114 C 0.05752 0.75338 0.67515 0.0
C115 C 0.06002 0.78131 0.68861 0.0
C116 C 0.04588 0.78136 0.6808 0.0
C117 C 0.06599 0.76717 0.68584 0.0
H118 H 0.03698 0.74348 0.65924 0.0
H119 H 0.04142 0.79231 0.68271 0.0
C120 C 0.97207 0.76065 0.62894 0.0
N121 N 0.9481 0.74842 0.60531 0.0
C122 C 0.95745 0.75345 0.63284 0.0
C123 C 0.97445 0.76187 0.61308 0.0
C124 C 0.94549 0.74727 0.6207 0.0
C125 C 0.9622 0.75556 0.60129 0.0
C126 C 0.00528 0.73882 0.67109 0.0
C127 C 0.00806 0.7238 0.66391 0.0
C128 C 0.00651 0.74307 0.68773 0.0
C129 C 0.01221 0.71336 0.67352 0.0
C130 C 0.0107 0.7323 0.69693 0.0
N131 N 0.01344 0.71779 0.68969 0.0
C132 C 0.0038 0.72464 0.61882 0.0
C133 C 0.9777 0.72109 0.62495 0.0
C134 C 1.00104 0.7086 0.61069 0.0
N135 N 0.99223 0.73052 0.62581 0.0
C136 C 0.97435 0.70495 0.6167 0.0
C137 C 0.98624 0.69857 0.6098 0.0
H138 H 0.01537 0.73213 0.6203 0.0
H139 H 0.96891 0.72581 0.63127 0.0
C140 C 0.97343 0.78217 0.68565 0.0
N141 N 0.97697 0.76811 0.67842 0.0
C142 C 0.96266 0.7817 0.69699 0.0
C143 C 0.95939 0.7523 0.69309 0.0
C144 C 0.97019 0.75335 0.68182 0.0
C145 C 0.95547 0.7666 0.7008 0.0
H146 H 0.97888 0.7937 0.68252 0.0
H147 H 0.97316 0.74236 0.67572 0.0
O148 O 0.01821 0.76472 0.63669 0.0
O149 O 0.00961 0.78681 0.66513 0.0
O150 O 0.9839 0.76676 0.64067 0.0
O151 O 1.00099 0.7491 0.66186 0.0
H152 H 0.04866 0.77356 0.63949 0.0
H153 H 0.0083 0.75846 0.60598 0.0
H154 H 0.06495 0.77508 0.61674 0.0
H155 H 0.02526 0.76044 0.58383 0.0
H156 H 0.01523 0.8048 0.71887 0.0
H157 H 0.0157 0.81848 0.66485 0.0
H158 H 0.00993 0.78243 0.69519 0.0
H159 H 0.02104 0.84027 0.68907 0.0
H160 H 0.03616 0.82359 0.61659 0.0
H161 H 0.98704 0.82143 0.6139 0.0
H162 H 0.06165 0.74219 0.67275 0.0
H163 H 0.06632 0.79229 0.69652 0.0
H164 H 0.95541 0.75253 0.6451 0.0
H165 H 0.9856 0.76773 0.60993 0.0
H166 H 0.93414 0.74154 0.62352 0.0
H167 H 0.96389 0.75637 0.58895 0.0
H168 H 0.00706 0.72023 0.65107 0.0
H169 H 0.00414 0.75448 0.69351 0.0
H170 H 0.01442 0.70172 0.66811 0.0
H171 H 0.0117 0.73545 0.70983 0.0
H172 H 0.01046 0.70388 0.60555 0.0
H173 H 0.96288 0.69735 0.61635 0.0
H174 H 0.95968 0.79297 0.70238 0.0
H175 H 0.95412 0.74044 0.69568 0.0
Li176 Li 0.57418 0.80917 0.87547 0.0
Li177 Li 0.5934 0.82467 0.89647 0.0
Li178 Li 0.60168 0.8093 0.87329 0.0
Li179 Li 0.58729 0.79519 0.89372 0.0
C180 C 0.59013 0.84084 0.86791 0.0
N181 N 0.58769 0.868 0.85502 0.0
C182 C 0.58414 0.85326 0.87653 0.0
C183 C 0.59496 0.84231 0.85276 0.0
C184 C 0.583 0.86688 0.8698 0.0
C185 C 0.59359 0.85611 0.84643 0.0
C186 C 0.56319 0.81715 0.9074 0.0
C187 C 0.54887 0.81993 0.93061 0.0
N188 N 0.54268 0.8314 0.92494 0.0
C189 C 0.55659 0.82885 0.90174 0.0
C190 C 0.55923 0.81254 0.92189 0.0
C191 C 0.54628 0.83596 0.9108 0.0
C192 C 0.54193 0.79953 0.86863 0.0
N193 N 0.55505 0.80817 0.8639 0.0
C194 C 0.54048 0.81672 0.84396 0.0
C195 C 0.55458 0.81643 0.85163 0.0
C196 C 0.52671 0.80833 0.84888 0.0
C197 C 0.52754 0.79942 0.86122 0.0
H198 H 0.54266 0.79304 0.87841 0.0
H199 H 0.56512 0.82294 0.84784 0.0
C200 C 0.61144 0.85605 0.90592 0.0
N201 N 0.59997 0.84505 0.91068 0.0
C202 C 0.61587 0.872 0.91444 0.0
C203 C 0.59708 0.86479 0.93305 0.0
C204 C 0.59319 0.84891 0.92428 0.0
C205 C 0.60826 0.87674 0.92789 0.0
H206 H 0.61677 0.85254 0.89513 0.0
H207 H 0.58441 0.83988 0.92808 0.0
C208 C 0.58007 0.78242 0.8541 0.0
N209 N 0.57328 0.76743 0.82246 0.0
C210 C 0.57578 0.76539 0.85002 0.0
C211 C 0.5809 0.79184 0.84211 0.0
C212 C 0.5724 0.75804 0.83395 0.0
C213 C 0.57742 0.78404 0.82618 0.0
C214 C 0.61804 0.81806 0.90897 0.0
C215 C 0.63246 0.82739 0.90683 0.0
C216 C 0.6135 0.81768 0.92439 0.0
C217 C 0.64209 0.83634 0.92021 0.0
C218 C 0.62347 0.82681 0.93746 0.0
N219 N 0.63743 0.83588 0.93512 0.0
C220 C 0.62636 0.82524 0.85954 0.0
C221 C 0.61927 0.7968 0.84901 0.0
C222 C 0.63765 0.82748 0.84888 0.0
N223 N 0.61736 0.81015 0.85927 0.0
C224 C 0.63043 0.79848 0.83811 0.0
C225 C 0.63973 0.814 0.83792 0.0
H226 H 0.62455 0.83559 0.8679 0.0
H227 H 0.61208 0.7849 0.84922 0.0
C228 C 0.56995 0.76847 0.90475 0.0
N229 N 0.58453 0.77728 0.90447 0.0
C230 C 0.56724 0.75563 0.91323 0.0
C231 C 0.59464 0.76115 0.92089 0.0
C232 C 0.59683 0.77381 0.91216 0.0
C233 C 0.57967 0.75194 0.92158 0.0
H234 H 0.5604 0.77162 0.89857 0.0
H235 H 0.60831 0.78102 0.91168 0.0
O236 O 0.59158 0.82745 0.87433 0.0
O237 O 0.57333 0.81001 0.89877 0.0
O238 O 0.58362 0.78977 0.86976 0.0
O239 O 0.60824 0.80961 0.89603 0.0
H240 H 0.58058 0.85255 0.88836 0.0
H241 H 0.5996 0.83285 0.84587 0.0
H242 H 0.57842 0.87658 0.87637 0.0
H243 H 0.59723 0.85735 0.8347 0.0
H244 H 0.54575 0.81655 0.94188 0.0
H245 H 0.55927 0.83231 0.89041 0.0
H246 H 0.56418 0.80342 0.92638 0.0
H247 H 0.54111 0.84506 0.90657 0.0
H248 H 0.54036 0.82348 0.83429 0.0
H249 H 0.51717 0.79286 0.86543 0.0
H250 H 0.62477 0.88066 0.91021 0.0
H251 H 0.59076 0.86782 0.94324 0.0
H252 H 0.57513 0.75794 0.85919 0.0
H253 H 0.58432 0.80501 0.84507 0.0
H254 H 0.56909 0.74486 0.83061 0.0
H255 H 0.57804 0.79118 0.81678 0.0
H256 H 0.63611 0.82784 0.89496 0.0
H257 H 0.6023 0.81062 0.92622 0.0
H258 H 0.65326 0.8437 0.91875 0.0
H259 H 0.62007 0.82673 0.94946 0.0
H260 H 0.64453 0.83965 0.84909 0.0
H261 H 0.63192 0.78772 0.83008 0.0
H262 H 0.5555 0.74896 0.91362 0.0
H263 H 0.60455 0.75859 0.92704 0.0
Li264 Li 0.5053 0.28003 0.1391 0.0
Li265 Li 0.51831 0.26655 0.15701 0.0
Li266 Li 0.49841 0.25076 0.13494 0.0
Li267 Li 0.49064 0.26555 0.15905 0.0
C268 C 0.52899 0.27122 0.12361 0.0
N269 N 0.54921 0.28503 0.10355 0.0
C270 C 0.54435 0.27837 0.12921 0.0
C271 C 0.52394 0.27094 0.10776 0.0
C272 C 0.55439 0.28531 0.11889 0.0
C273 C 0.53433 0.27805 0.09783 0.0
C274 C 0.51242 0.29635 0.1766 0.0
C275 C 0.51281 0.30409 0.2052 0.0
N276 N 0.52063 0.31944 0.20434 0.0
C277 C 0.52032 0.31226 0.176 0.0
C278 C 0.50852 0.29228 0.19132 0.0
C279 C 0.52443 0.32373 0.19015 0.0
C280 C 0.49663 0.3012 0.11971 0.0
N281 N 0.50839 0.29855 0.12897 0.0
C282 C 0.52568 0.32179 0.12277 0.0
C283 C 0.52265 0.30864 0.13081 0.0
C284 C 0.51387 0.32465 0.11283 0.0
C285 C 0.49912 0.31428 0.11151 0.0
H286 H 0.48539 0.29302 0.11852 0.0
H287 H 0.53174 0.30635 0.13838 0.0
C288 C 0.54125 0.25225 0.16806 0.0
N289 N 0.53705 0.26677 0.1686 0.0
C290 C 0.55493 0.25156 0.17633 0.0
C291 C 0.55992 0.28086 0.18522 0.0
C292 C 0.54608 0.28096 0.17686 0.0
C293 C 0.56447 0.266 0.18503 0.0
H294 H 0.53399 0.24121 0.16113 0.0
H295 H 0.54264 0.29238 0.17683 0.0
C296 C 0.47223 0.25772 0.12542 0.0
N297 N 0.44843 0.24041 0.10307 0.0
C298 C 0.45821 0.25015 0.13036 0.0
C299 C 0.47409 0.25666 0.10912 0.0
C300 C 0.44632 0.24141 0.11887 0.0
C301 C 0.46194 0.2478 0.09801 0.0
C302 C 0.50199 0.23752 0.16808 0.0
C303 C 0.49767 0.22052 0.16342 0.0
C304 C 0.50725 0.24431 0.18399 0.0
C305 C 0.49846 0.21062 0.1748 0.0
C306 C 0.50789 0.234 0.19502 0.0
N307 N 0.50349 0.21751 0.19024 0.0
C308 C 0.50108 0.22652 0.10878 0.0
C309 C 0.47935 0.22013 0.12347 0.0
C310 C 0.49768 0.21065 0.09995 0.0
N311 N 0.49214 0.23076 0.12052 0.0
C312 C 0.47552 0.20416 0.11494 0.0
C313 C 0.48504 0.19911 0.10338 0.0
H314 H 0.51132 0.23518 0.10689 0.0
H315 H 0.47264 0.22379 0.1331 0.0
C316 C 0.47024 0.27833 0.17899 0.0
N317 N 0.47495 0.26455 0.17295 0.0
C318 C 0.45833 0.27751 0.18906 0.0
C319 C 0.45647 0.24838 0.18645 0.0
C320 C 0.4683 0.24973 0.17633 0.0
C321 C 0.45132 0.26237 0.19282 0.0
H322 H 0.47567 0.28989 0.17591 0.0
H323 H 0.47194 0.2389 0.17092 0.0
O324 O 0.51903 0.2643 0.13352 0.0
O325 O 0.50808 0.28508 0.16278 0.0
O326 O 0.48406 0.26618 0.13648 0.0
O327 O 0.5012 0.24738 0.15705 0.0
H328 H 0.54846 0.27859 0.14141 0.0
H329 H 0.51213 0.26535 0.10321 0.0
H330 H 0.56629 0.29093 0.12308 0.0
H331 H 0.53057 0.278 0.08556 0.0
H332 H 0.50984 0.30108 0.21666 0.0
H333 H 0.52327 0.31574 0.16474 0.0
H334 H 0.50201 0.28024 0.19205 0.0
H335 H 0.53059 0.33606 0.18984 0.0
H336 H 0.53715 0.32961 0.1243 0.0
H337 H 0.48973 0.31599 0.10388 0.0
H338 H 0.55817 0.23991 0.17566 0.0
H339 H 0.56696 0.29225 0.19181 0.0
H340 H 0.45655 0.25092 0.14292 0.0
H341 H 0.48484 0.26253 0.10512 0.0
H342 H 0.43543 0.23541 0.12251 0.0
H343 H 0.46325 0.24679 0.08536 0.0
H344 H 0.49378 0.21499 0.15114 0.0
H345 H 0.51107 0.25736 0.18773 0.0
H346 H 0.4951 0.19745 0.17135 0.0
H347 H 0.51195 0.23912 0.20736 0.0
H348 H 0.50548 0.20718 0.09132 0.0
H349 H 0.46566 0.19564 0.1179 0.0
H350 H 0.45461 0.28856 0.1938 0.0
H351 H 0.45109 0.23647 0.18885 0.0
Li352 Li 0.07378 0.82228 0.1034 0.0
Li353 Li 0.08844 0.8108 0.12352 0.0
Li354 Li 0.07075 0.79174 0.10014 0.0
Li355 Li 0.05887 0.80672 0.12317 0.0
C356 C 0.09943 0.81249 0.08841 0.0
N357 N 0.11878 0.81979 0.06505 0.0
C358 C 0.11376 0.82335 0.09254 0.0
C359 C 0.09499 0.80521 0.07245 0.0
C360 C 0.12337 0.82691 0.08054 0.0
C361 C 0.10492 0.8091 0.0608 0.0
C362 C 0.08273 0.84198 0.13674 0.0
C363 C 0.0869 0.861 0.16173 0.0
N364 N 0.0977 0.87141 0.15541 0.0
C365 C 0.09385 0.85284 0.13046 0.0
C366 C 0.07919 0.84606 0.15247 0.0
C367 C 0.1013 0.86767 0.1401 0.0
C368 C 0.06059 0.8478 0.09538 0.0
N369 N 0.07286 0.84086 0.09246 0.0
C370 C 0.08167 0.85994 0.07517 0.0
C371 C 0.08334 0.8467 0.08251 0.0
C372 C 0.0691 0.86743 0.07801 0.0
C373 C 0.0585 0.86105 0.08833 0.0
H374 H 0.05237 0.84305 0.10331 0.0
H375 H 0.09302 0.84113 0.08017 0.0
C376 C 0.11237 0.79716 0.13501 0.0
N377 N 0.1078 0.8116 0.13643 0.0
C378 C 0.12601 0.79602 0.14334 0.0
C379 C 0.13028 0.82468 0.15457 0.0
C380 C 0.1165 0.82526 0.14603 0.0
C381 C 0.13532 0.8099 0.15334 0.0
H382 H 0.10537 0.7864 0.12735 0.0
H383 H 0.11287 0.83669 0.14705 0.0
C384 C 0.04477 0.80053 0.0859 0.0
N385 N 0.0253 0.7922 0.05814 0.0
C386 C 0.02926 0.79296 0.08619 0.0
C387 C 0.05037 0.80396 0.07155 0.0
C388 C 0.01961 0.78881 0.07201 0.0
C389 C 0.04034 0.79963 0.05762 0.0
C390 C 0.07013 0.78036 0.13399 0.0
C391 C 0.06396 0.76365 0.12888 0.0
C392 C 0.07417 0.78661 0.15022 0.0
C393 C 0.06188 0.75342 0.14016 0.0
C394 C 0.07192 0.77597 0.16113 0.0
N395 N 0.06587 0.75974 0.15592 0.0
C396 C 0.08205 0.7649 0.08517 0.0
C397 C 0.05497 0.76091 0.08039 0.0
C398 C 0.0815 0.74885 0.07752 0.0
N399 N 0.0689 0.77058 0.08662 0.0
C400 C 0.05389 0.74476 0.0726 0.0
C401 C 0.06725 0.73836 0.07131 0.0
H402 H 0.09295 0.7727 0.09049 0.0
H403 H 0.04461 0.76551 0.08191 0.0
C404 C 0.03437 0.81878 0.13814 0.0
N405 N 0.04068 0.80542 0.13538 0.0
C406 C 0.02081 0.8183 0.146 0.0
C407 C 0.02044 0.79036 0.14824 0.0
C408 C 0.03392 0.79133 0.1402 0.0
C409 C 0.0136 0.80394 0.15123 0.0
H410 H 0.03981 0.82982 0.13408 0.0
H411 H 0.03881 0.78069 0.13762 0.0
O412 O 0.08993 0.80877 0.09999 0.0
O413 O 0.07517 0.82751 0.12749 0.0
O414 O 0.05435 0.80469 0.09968 0.0
O415 O 0.07219 0.79054 0.12312 0.0
H416 H 0.11737 0.82899 0.10488 0.0
H417 H 0.08403 0.79659 0.0691 0.0
H418 H 0.13447 0.83534 0.08353 0.0
H419 H 0.10163 0.8036 0.04839 0.0
H420 H 0.08429 0.86433 0.17394 0.0
H421 H 0.09675 0.8498 0.1183 0.0
H422 H 0.07056 0.83776 0.15745 0.0
H423 H 0.10995 0.8762 0.13543 0.0
H424 H 0.09011 0.86412 0.0672 0.0
H425 H 0.04875 0.86641 0.09123 0.0
H426 H 0.12907 0.78425 0.14207 0.0
H427 H 0.13702 0.83582 0.16188 0.0
H428 H 0.02477 0.79029 0.09725 0.0
H429 H 0.0623 0.80998 0.07117 0.0
H430 H 0.00758 0.7829 0.07203 0.0
H431 H 0.04451 0.80221 0.04642 0.0
H432 H 0.06078 0.75865 0.11633 0.0
H433 H 0.07897 0.79954 0.15432 0.0
H434 H 0.05708 0.74046 0.1364 0.0
H435 H 0.07498 0.78062 0.17375 0.0
H436 H 0.0921 0.74451 0.0771 0.0
H437 H 0.04266 0.7373 0.06788 0.0
H438 H 0.01611 0.82913 0.1481 0.0
H439 H 0.01524 0.77894 0.15178 0.0
Li440 Li 0.51922 0.7857 0.43459 0.0
Li441 Li 0.5019 0.76702 0.41107 0.0
Li442 Li 0.51748 0.75523 0.43192 0.0
Li443 Li 0.53139 0.77033 0.41193 0.0
C444 C 0.49144 0.76964 0.44712 0.0
N445 N 0.47309 0.77363 0.47203 0.0
C446 C 0.47717 0.7736 0.44455 0.0
C447 C 0.49629 0.76748 0.46228 0.0
C448 C 0.46809 0.77564 0.45733 0.0
C449 C 0.48687 0.7696 0.47474 0.0
C450 C 0.52103 0.79695 0.40065 0.0
C451 C 0.52375 0.80083 0.3735 0.0
N452 N 0.52595 0.81727 0.37847 0.0
C453 C 0.52336 0.81387 0.40552 0.0
C454 C 0.52123 0.79034 0.38453 0.0
C455 C 0.52581 0.82394 0.39411 0.0
C456 C 0.53513 0.81715 0.45231 0.0
N457 N 0.521 0.80697 0.44807 0.0
C458 C 0.50871 0.82826 0.45936 0.0
C459 C 0.50792 0.81223 0.45152 0.0
C460 C 0.52311 0.83927 0.46349 0.0
C461 C 0.53646 0.83336 0.46006 0.0
H462 H 0.54539 0.81287 0.44911 0.0
H463 H 0.49679 0.80417 0.44769 0.0
C464 C 0.47151 0.75204 0.39309 0.0
N465 N 0.48256 0.76604 0.39804 0.0
C466 C 0.45771 0.75231 0.38434 0.0
C467 C 0.46689 0.78128 0.38577 0.0
C468 C 0.48035 0.7805 0.39462 0.0
C469 C 0.45524 0.76709 0.38045 0.0
H470 H 0.47332 0.74065 0.396 0.0
H471 H 0.48898 0.7916 0.39894 0.0
C472 C 0.5463 0.77539 0.44848 0.0
N473 N 0.56689 0.77897 0.47482 0.0
C474 C 0.56101 0.77242 0.44652 0.0
C475 C 0.5421 0.78035 0.4638 0.0
C476 C 0.57124 0.77425 0.46 0.0
C477 C 0.55267 0.78205 0.47697 0.0
C478 C 0.51519 0.73759 0.39542 0.0
C479 C 0.52071 0.72402 0.39821 0.0
C480 C 0.51011 0.73852 0.37991 0.0
C481 C 0.52129 0.71167 0.38534 0.0
C482 C 0.51087 0.72591 0.36736 0.0
N483 N 0.5164 0.71287 0.37031 0.0
C484 C 0.50612 0.72804 0.44878 0.0
C485 C 0.53258 0.73286 0.44441 0.0
C486 C 0.5075 0.71474 0.4562 0.0
N487 N 0.51859 0.73685 0.44304 0.0
C488 C 0.53448 0.71977 0.45177 0.0
C489 C 0.52186 0.71037 0.45781 0.0
H490 H 0.49504 0.73125 0.44754 0.0
H491 H 0.5423 0.73969 0.43949 0.0
C492 C 0.55895 0.78711 0.40012 0.0
N493 N 0.54972 0.77205 0.39973 0.0
C494 C 0.57264 0.78887 0.39237 0.0
C495 C 0.56724 0.75963 0.38391 0.0
C496 C 0.55372 0.75842 0.39189 0.0
C497 C 0.57701 0.77501 0.38406 0.0
H498 H 0.55575 0.79782 0.40659 0.0
H499 H 0.54659 0.74651 0.39199 0.0
O500 O 0.50042 0.76749 0.43472 0.0
O501 O 0.51848 0.78691 0.41162 0.0
O502 O 0.53622 0.77385 0.4354 0.0
O503 O 0.51441 0.74972 0.40788 0.0
H504 H 0.47321 0.77518 0.43283 0.0
H505 H 0.50714 0.76404 0.46438 0.0
H506 H 0.45705 0.77881 0.45554 0.0
H507 H 0.49048 0.768 0.48656 0.0
H508 H 0.52395 0.7959 0.36098 0.0
H509 H 0.5232 0.81915 0.41796 0.0
H510 H 0.51951 0.77728 0.38062 0.0
H511 H 0.52758 0.83705 0.39769 0.0
H512 H 0.49806 0.83204 0.46189 0.0
H513 H 0.54783 0.84135 0.46272 0.0
H514 H 0.44915 0.74101 0.3805 0.0
H515 H 0.4655 0.79302 0.3834 0.0
H516 H 0.56445 0.76871 0.43471 0.0
H517 H 0.53089 0.78305 0.46548 0.0
H518 H 0.58265 0.77193 0.45868 0.0
H519 H 0.54958 0.78587 0.4889 0.0
H520 H 0.52458 0.72307 0.41016 0.0
H521 H 0.50557 0.74882 0.37761 0.0
H522 H 0.5256 0.70112 0.38731 0.0
H523 H 0.50702 0.72647 0.35528 0.0
H524 H 0.49741 0.70805 0.46072 0.0
H525 H 0.54572 0.71681 0.45234 0.0
H526 H 0.57965 0.80102 0.39278 0.0
H527 H 0.57015 0.74852 0.37797 0.0
Li528 Li 0.57365 0.32275 0.60484 0.0
Li529 Li 0.5887 0.31106 0.62428 0.0
Li530 Li 0.57069 0.29231 0.6008 0.0
Li531 Li 0.55877 0.30685 0.62407 0.0
C532 C 0.59926 0.31326 0.58916 0.0
N533 N 0.61842 0.32089 0.56573 0.0
C534 C 0.61376 0.32378 0.59331 0.0
C535 C 0.59458 0.30643 0.57314 0.0
C536 C 0.62326 0.32754 0.58127 0.0
C537 C 0.60441 0.31049 0.56146 0.0
C538 C 0.58193 0.34327 0.63598 0.0
C539 C 0.5818 0.36755 0.65509 0.0
N540 N 0.59519 0.3752 0.64999 0.0
C541 C 0.59568 0.35133 0.6309 0.0
C542 C 0.57489 0.3514 0.64812 0.0
C543 C 0.60219 0.36749 0.63813 0.0
C544 C 0.56059 0.34876 0.59769 0.0
N545 N 0.57279 0.34177 0.59447 0.0
C546 C 0.58155 0.36121 0.5775 0.0
C547 C 0.58321 0.34777 0.58453 0.0
C548 C 0.5691 0.36877 0.58071 0.0
C549 C 0.55854 0.36224 0.59099 0.0
H550 H 0.55235 0.34382 0.60551 0.0
H551 H 0.59286 0.34221 0.582 0.0
C552 C 0.61687 0.30156 0.63027 0.0
N553 N 0.60813 0.31186 0.63685 0.0
C554 C 0.63056 0.30039 0.63846 0.0
C555 C 0.62626 0.32055 0.66021 0.0
C556 C 0.61262 0.32136 0.65154 0.0
C557 C 0.63549 0.30984 0.65379 0.0
H558 H 0.61312 0.29407 0.6186 0.0
H559 H 0.60551 0.32939 0.6567 0.0
C560 C 0.5447 0.30134 0.58693 0.0
N561 N 0.52532 0.29341 0.55911 0.0
C562 C 0.52924 0.29352 0.58705 0.0
C563 C 0.55029 0.30524 0.57272 0.0
C564 C 0.51963 0.28957 0.57284 0.0
C565 C 0.54031 0.3011 0.55877 0.0
C566 C 0.57036 0.27945 0.63347 0.0
C567 C 0.56208 0.26348 0.62759 0.0
C568 C 0.57662 0.2838 0.64935 0.0
C569 C 0.56019 0.25207 0.63775 0.0
C570 C 0.57448 0.27203 0.65913 0.0
N571 N 0.56638 0.25654 0.65318 0.0
C572 C 0.58196 0.26572 0.58511 0.0
C573 C 0.55483 0.2616 0.58088 0.0
C574 C 0.5814 0.24972 0.57727 0.0
N575 N 0.56879 0.2713 0.58695 0.0
C576 C 0.55373 0.2455 0.57294 0.0
C577 C 0.56711 0.23919 0.57128 0.0
H578 H 0.59291 0.27353 0.5903 0.0
H579 H 0.54446 0.26612 0.5827 0.0
C580 C 0.53136 0.31599 0.63443 0.0
N581 N 0.54052 0.30534 0.63622 0.0
C582 C 0.5177 0.31535 0.64212 0.0
C583 C 0.52302 0.29281 0.65348 0.0
C584 C 0.53655 0.29385 0.64553 0.0
C585 C 0.51329 0.30363 0.65186 0.0
H586 H 0.53464 0.32499 0.62692 0.0
H587 H 0.54376 0.28532 0.64672 0.0
O588 O 0.58983 0.30941 0.60077 0.0
O589 O 0.57537 0.32746 0.62911 0.0
O590 O 0.55424 0.30526 0.60072 0.0
O591 O 0.57236 0.29078 0.62371 0.0
H592 H 0.61763 0.32899 0.60568 0.0
H593 H 0.58351 0.29801 0.56977 0.0
H594 H 0.63449 0.33573 0.58428 0.0
H595 H 0.60092 0.30535 0.549 0.0
H596 H 0.57652 0.37401 0.66455 0.0
H597 H 0.6012 0.34517 0.62146 0.0
H598 H 0.56424 0.34528 0.65215 0.0
H599 H 0.61282 0.37392 0.63432 0.0
H600 H 0.59013 0.36581 0.56983 0.0
H601 H 0.54861 0.36735 0.59371 0.0
H602 H 0.63724 0.29218 0.63272 0.0
H603 H 0.62931 0.32799 0.67199 0.0
H604 H 0.52475 0.29048 0.59799 0.0
H605 H 0.56217 0.31149 0.57248 0.0
H606 H 0.50765 0.28347 0.57273 0.0
H607 H 0.54448 0.30403 0.54767 0.0
H608 H 0.55713 0.25995 0.61533 0.0
H609 H 0.58301 0.29614 0.65408 0.0
H610 H 0.55381 0.23966 0.63337 0.0
H611 H 0.57924 0.27521 0.67146 0.0
H612 H 0.59202 0.24546 0.57656 0.0
H613 H 0.54246 0.23799 0.5684 0.0
H614 H 0.51075 0.32409 0.64059 0.0
H615 H 0.52009 0.2834 0.66062 0.0
Li616 Li 0.01908 0.28511 0.9337 0.0
Li617 Li 1.00212 0.26655 0.91054 0.0
Li618 Li 0.01802 0.25482 0.93101 0.0
Li619 Li 0.03145 0.26976 0.91101 0.0
C620 C 0.99224 0.27056 0.94663 0.0
N621 N 0.97513 0.27822 0.97184 0.0
C622 C 0.9787 0.27595 0.94403 0.0
C623 C 0.99693 0.26879 0.96199 0.0
C624 C 0.97025 0.27985 0.95695 0.0
C625 C 0.98816 0.27279 0.97459 0.0
C626 C 0.01748 0.29563 0.89925 0.0
C627 C 0.01606 0.29848 0.8716 0.0
N628 N 0.01505 0.31431 0.87611 0.0
C629 C 0.0165 0.31194 0.90362 0.0
C630 C 0.01732 0.28885 0.88313 0.0
C631 C 0.01525 0.32118 0.89174 0.0
C632 C 0.0339 0.31565 0.95462 0.0
N633 N 0.02031 0.30638 0.94699 0.0
C634 C 0.00786 0.32863 0.95431 0.0
C635 C 0.00741 0.31256 0.94682 0.0
C636 C 0.02179 0.33871 0.96194 0.0
C637 C 0.03488 0.33185 0.96225 0.0
H638 H 0.04415 0.31071 0.95426 0.0
H639 H 0.99688 0.30527 0.94022 0.0
C640 C 0.97341 0.25139 0.88945 0.0
N641 N 0.9826 0.26553 0.89777 0.0
C642 C 0.9596 0.25161 0.8807 0.0
C643 C 0.96488 0.28084 0.88913 0.0
C644 C 0.97842 0.28005 0.89784 0.0
C645 C 0.95517 0.26652 0.88032 0.0
H646 H 0.97677 0.23991 0.88957 0.0
H647 H 0.98558 0.29113 0.9048 0.0
C648 C 0.04608 0.27343 0.94752 0.0
N649 N 0.06547 0.27284 0.97362 0.0
C650 C 0.0601 0.26879 0.94533 0.0
C651 C 0.04202 0.27798 0.96297 0.0
C652 C 0.06972 0.26851 0.95868 0.0
C653 C 0.05195 0.27755 0.97602 0.0
C654 C 0.01685 0.23849 0.89378 0.0
C655 C 0.02448 0.22603 0.89553 0.0
C656 C 0.01117 0.23975 0.87859 0.0
C657 C 0.02659 0.21525 0.88197 0.0
C658 C 0.0135 0.22872 0.86533 0.0
N659 N 0.02112 0.21681 0.86727 0.0
C660 C 0.00797 0.22892 0.94995 0.0
C661 C 0.03303 0.23127 0.94132 0.0
C662 C 0.00972 0.21572 0.95735 0.0
N663 N 0.01957 0.23646 0.94208 0.0
C664 C 0.03527 0.21821 0.94855 0.0
C665 C 0.02351 0.21003 0.95667 0.0
H666 H 0.99727 0.23302 0.95036 0.0
H667 H 0.04207 0.23718 0.93488 0.0
C668 C 0.05535 0.28488 0.89277 0.0
N669 N 0.04969 0.27116 0.89877 0.0
C670 C 0.0689 0.28633 0.88482 0.0
C671 C 0.07082 0.25965 0.88946 0.0
C672 C 0.05725 0.25872 0.89734 0.0
C673 C 0.07694 0.27363 0.88306 0.0
H674 H 0.04949 0.29487 0.89435 0.0
H675 H 0.05297 0.24817 0.90266 0.0
O676 O 1.00063 0.26665 0.93411 0.0
O677 O 0.0187 0.28641 0.91073 0.0
O678 O 0.03651 0.27374 0.93458 0.0
O679 O 0.01453 0.24906 0.90693 0.0
H680 H 0.97481 0.27721 0.93218 0.0
H681 H 0.00717 0.26425 0.96414 0.0
H682 H 0.95981 0.28416 0.95514 0.0
H683 H 0.99169 0.27153 0.98655 0.0
H684 H 0.01593 0.29339 0.85907 0.0
H685 H 0.01673 0.31743 0.91605 0.0
H686 H 0.01832 0.27634 0.87957 0.0
H687 H 0.01446 0.33381 0.89496 0.0
H688 H 0.9974 0.33318 0.95384 0.0
H689 H 0.04595 0.33913 0.96772 0.0
H690 H 0.9526 0.24022 0.87408 0.0
H691 H 0.96192 0.2926 0.88955 0.0
H692 H 0.06347 0.26535 0.93343 0.0
H693 H 0.03139 0.28197 0.96487 0.0
H694 H 0.08056 0.26485 0.95716 0.0
H695 H 0.04893 0.28102 0.98805 0.0
H696 H 0.02877 0.22474 0.90721 0.0
H697 H 0.00489 0.24905 0.87706 0.0
H698 H 0.03256 0.20561 0.88314 0.0
H699 H 0.0092 0.22958 0.85349 0.0
H700 H 1.00018 0.20981 0.96324 0.0
H701 H 0.04622 0.21463 0.94781 0.0
H702 H 0.07298 0.29733 0.88006 0.0
H703 H 0.07667 0.24965 0.88879 0.0
Li704 Li 0.41791 0.04337 0.30322 0.0
Li705 Li 0.39486 0.02726 0.28635 0.0
Li706 Li 0.41525 0.04506 0.27526 0.0
Li707 Li 0.39821 0.05594 0.29357 0.0
C708 C 0.42507 0.01503 0.28848 0.0
N709 N 0.44221 0.9937 0.2969 0.0
C710 C 0.4177 1.00022 0.2925 0.0
C711 C 0.44115 0.01893 0.28865 0.0
C712 C 0.42658 0.98961 0.29674 0.0
C713 C 0.44962 0.00802 0.29298 0.0
C714 C 0.38781 0.04676 0.31922 0.0
C715 C 0.36368 0.0525 0.32747 0.0
N716 N 0.37119 0.06175 0.34133 0.0
C717 C 0.39528 0.0563 0.33354 0.0
C718 C 0.37188 0.0448 0.31615 0.0
C719 C 0.38667 0.06378 0.34458 0.0
C720 C 0.43998 0.06048 0.32738 0.0
N721 N 0.43201 0.04511 0.32089 0.0
C722 C 0.44419 0.03399 0.34058 0.0
C723 C 0.43366 0.03197 0.32736 0.0
C724 C 0.45282 0.04971 0.34729 0.0
C725 C 0.45056 0.06307 0.34059 0.0
H726 H 0.43792 0.0708 0.32246 0.0
H727 H 0.42672 0.01998 0.3224 0.0
C728 C 0.37945 0.99699 0.26798 0.0
N729 N 0.38037 0.00714 0.28227 0.0
C730 C 0.36833 0.98239 0.26458 0.0
C731 C 0.35986 0.98863 0.29099 0.0
C732 C 0.37103 0.00319 0.2938 0.0
C733 C 0.35836 0.97805 0.27619 0.0
H734 H 0.38729 1.00033 0.25918 0.0
H735 H 0.37237 0.01124 0.30524 0.0
C736 C 0.4332 0.07372 0.29015 0.0
N737 N 0.45847 0.09513 0.28243 0.0
C738 C 0.43154 0.08847 0.28593 0.0
C739 C 0.4477 0.06986 0.29047 0.0
C740 C 0.44446 0.09913 0.28206 0.0
C741 C 0.46034 0.08084 0.28651 0.0
C742 C 0.38215 0.03385 0.25984 0.0
C743 C 0.38692 0.02881 0.2448 0.0
C744 C 0.36658 0.02925 0.26252 0.0
C745 C 0.37605 0.01914 0.23273 0.0
C746 C 0.35608 0.01955 0.25015 0.0
N747 N 0.36099 0.01474 0.23563 0.0
C748 C 0.43453 0.03647 0.25212 0.0
C749 C 0.42611 0.06073 0.24992 0.0
C750 C 0.44302 0.03789 0.23896 0.0
N751 N 0.42643 0.04787 0.25737 0.0
C752 C 0.43438 0.06258 0.23661 0.0
C753 C 0.44301 0.05107 0.23106 0.0
H754 H 0.43423 0.02615 0.258 0.0
H755 H 0.41935 0.06946 0.25427 0.0
C756 C 0.39623 0.08727 0.30881 0.0
N757 N 0.38848 0.07334 0.29896 0.0
C758 C 0.38948 0.10074 0.31184 0.0
C759 C 0.36666 0.08476 0.29532 0.0
C760 C 0.37394 0.07178 0.29239 0.0
C761 C 0.37459 0.09955 0.30486 0.0
H762 H 0.4078 0.08804 0.31389 0.0
H763 H 0.36814 0.06058 0.28457 0.0
O764 O 0.41656 0.02547 0.28405 0.0
O765 O 0.39607 0.03951 0.30818 0.0
O766 O 0.4207 0.06319 0.29412 0.0
O767 O 0.39264 0.04329 0.27184 0.0
H768 H 0.40528 0.99695 0.29244 0.0
H769 H 0.44706 0.03026 0.28546 0.0
H770 H 0.42103 0.97813 0.29992 0.0
H771 H 0.46207 0.01091 0.2932 0.0
H772 H 0.35137 0.05118 0.32521 0.0
H773 H 0.4076 0.05796 0.3361 0.0
H774 H 0.36593 0.03763 0.30504 0.0
H775 H 0.3923 0.07122 0.35571 0.0
H776 H 0.44558 0.02338 0.34547 0.0
H777 H 0.45667 0.07544 0.34571 0.0
H778 H 0.36755 0.97461 0.253 0.0
H779 H 0.35273 0.98554 0.30045 0.0
H780 H 0.42038 0.09162 0.2856 0.0
H781 H 0.44919 0.05855 0.2938 0.0
H782 H 0.44336 0.11059 0.27877 0.0
H783 H 0.47163 0.07801 0.28672 0.0
H784 H 0.39887 0.03222 0.24244 0.0
H785 H 0.36268 0.03277 0.27414 0.0
H786 H 0.3796 0.01512 0.22105 0.0
H787 H 0.34403 0.01577 0.25212 0.0
H788 H 0.44924 0.02856 0.23479 0.0
H789 H 0.43409 0.07288 0.23076 0.0
H790 H 0.39592 0.11204 0.31915 0.0
H791 H 0.35528 0.08353 0.28946 0.0
Li792 Li 0.29595 0.20203 0.52338 0.0
Li793 Li 0.3082 0.18049 0.5076 0.0
Li794 Li 0.29707 0.19974 0.49407 0.0
Li795 Li 0.27952 0.17725 0.50396 0.0
C796 C 0.3259 0.21728 0.50852 0.0
N797 N 0.34887 0.24246 0.5027 0.0
C798 C 0.33938 0.21395 0.50232 0.0
C799 C 0.32415 0.2334 0.5119 0.0
C800 C 0.35085 0.22686 0.49943 0.0
C801 C 0.33588 0.24596 0.50882 0.0
C802 C 0.29431 0.16673 0.53283 0.0
C803 C 0.29175 0.13864 0.53575 0.0
N804 N 0.29804 0.14374 0.5511 0.0
C805 C 0.30065 0.17172 0.54866 0.0
C806 C 0.28972 0.15008 0.52632 0.0
C807 C 0.30248 0.1599 0.5577 0.0
C808 C 0.28211 0.21697 0.54899 0.0
N809 N 0.29598 0.21558 0.54361 0.0
C810 C 0.30918 0.23148 0.56815 0.0
C811 C 0.30941 0.22274 0.55274 0.0
C812 C 0.29499 0.23286 0.57421 0.0
C813 C 0.28135 0.22566 0.56425 0.0
H814 H 0.2716 0.21106 0.5415 0.0
H815 H 0.32028 0.22128 0.54821 0.0
C816 C 0.32969 0.16285 0.49397 0.0
N817 N 0.32486 0.16926 0.50804 0.0
C818 C 0.34193 0.15485 0.49381 0.0
C819 C 0.34423 0.1604 0.52264 0.0
C820 C 0.33199 0.16835 0.52223 0.0
C821 C 0.34936 0.15344 0.50829 0.0
H822 H 0.32408 0.16401 0.48283 0.0
H823 H 0.3283 0.17395 0.53327 0.0
C824 C 0.27003 0.21159 0.50513 0.0
N825 N 0.25178 0.23346 0.50143 0.0
C826 C 0.25531 0.20605 0.49705 0.0
C827 C 0.27542 0.22821 0.51145 0.0
C828 C 0.24627 0.21731 0.49527 0.0
C829 C 0.26603 0.23908 0.50942 0.0
C830 C 0.29015 0.1632 0.47495 0.0
C831 C 0.28501 0.1661 0.46018 0.0
C832 C 0.29082 0.14733 0.47673 0.0
C833 C 0.28054 0.15299 0.4474 0.0
C834 C 0.28624 0.13456 0.46366 0.0
N835 N 0.28124 0.13762 0.44939 0.0
C836 C 0.31273 0.21076 0.46858 0.0
C837 C 0.28906 0.21898 0.47131 0.0
C838 C 0.31514 0.218 0.45508 0.0
N839 N 0.29987 0.2114 0.47645 0.0
C840 C 0.29097 0.22634 0.45785 0.0
C841 C 0.30411 0.22583 0.44944 0.0
H842 H 0.321 0.20432 0.4726 0.0
H843 H 0.2787 0.21902 0.47732 0.0
C844 C 0.25231 0.16212 0.51532 0.0
N845 N 0.25942 0.16269 0.5016 0.0
C846 C 0.23732 0.15277 0.51505 0.0
C847 C 0.23716 0.14453 0.48653 0.0
C848 C 0.25216 0.15415 0.48733 0.0
C849 C 0.22946 0.14384 0.50051 0.0
H850 H 0.25827 0.16913 0.5265 0.0
H851 H 0.25784 0.15499 0.47651 0.0
O852 O 0.31463 0.20481 0.51156 0.0
O853 O 0.2925 0.17813 0.52381 0.0
O854 O 0.27903 0.20073 0.50691 0.0
O855 O 0.29478 0.17592 0.48751 0.0
H856 H 0.34094 0.20153 0.49974 0.0
H857 H 0.31386 0.23617 0.51687 0.0
H858 H 0.36133 0.22448 0.49459 0.0
H859 H 0.33467 0.2585 0.51134 0.0
H860 H 0.28829 0.1257 0.53087 0.0
H861 H 0.30419 0.18459 0.55387 0.0
H862 H 0.28462 0.14606 0.51414 0.0
H863 H 0.30743 0.16356 0.56995 0.0
H864 H 0.31999 0.2366 0.57542 0.0
H865 H 0.27015 0.22658 0.56824 0.0
H866 H 0.34539 0.14963 0.48245 0.0
H867 H 0.34977 0.15994 0.53409 0.0
H868 H 0.25097 0.1932 0.49214 0.0
H869 H 0.28673 0.23266 0.51784 0.0
H870 H 0.23488 0.21323 0.48899 0.0
H871 H 0.27007 0.25199 0.5142 0.0
H872 H 0.28448 0.17834 0.45862 0.0
H873 H 0.29491 0.14494 0.48806 0.0
H874 H 0.27653 0.15503 0.43589 0.0
H875 H 0.2867 0.12221 0.46485 0.0
H876 H 0.3255 0.21736 0.44908 0.0
H877 H 0.28198 0.2319 0.45379 0.0
H878 H 0.23197 0.1525 0.52617 0.0
H879 H 0.23151 0.13804 0.47503 0.0
Li880 Li 0.17674 0.02818 0.76788 0.0
Li881 Li 0.15417 0.01059 0.78103 0.0
Li882 Li 0.17395 0.99477 0.76414 0.0
Li883 Li 0.1539 0.00849 0.74918 0.0
C884 C 0.18679 0.01896 0.79808 0.0
N885 N 0.20538 0.03091 0.82625 0.0
C886 C 0.18332 0.03134 0.80933 0.0
C887 C 0.19969 0.01264 0.80112 0.0
C888 C 0.19287 0.03722 0.82352 0.0
C889 C 0.20896 0.01886 0.81544 0.0
C890 C 0.1427 0.03607 0.76807 0.0
C891 C 0.11582 0.03676 0.76455 0.0
N892 N 0.11945 0.05305 0.7707 0.0
C893 C 0.14619 0.05282 0.77431 0.0
C894 C 0.12743 0.02796 0.76311 0.0
C895 C 0.13425 0.06119 0.77556 0.0
C896 C 0.18626 0.05956 0.75788 0.0
N897 N 0.18996 0.0512 0.7693 0.0
C898 C 0.20929 0.07529 0.78174 0.0
C899 C 0.20135 0.05885 0.78111 0.0
C900 C 0.2056 0.08434 0.77018 0.0
C901 C 0.19386 0.07596 0.75808 0.0
H902 H 0.17719 0.05352 0.74857 0.0
H903 H 0.20423 0.05232 0.79026 0.0
C904 C 0.14108 0.99926 0.81061 0.0
N905 N 0.14259 0.01165 0.80203 0.0
C906 C 0.13413 1.00019 0.82534 0.0
C907 C 0.13003 0.02652 0.82257 0.0
C908 C 0.13713 0.02515 0.80795 0.0
C909 C 0.12839 0.01401 0.83181 0.0
H910 H 0.14542 0.98855 0.80615 0.0
H911 H 0.13845 0.03517 0.80148 0.0
C912 C 0.18286 0.00711 0.73401 0.0
N913 N 0.19457 0.99935 0.70505 0.0
C914 C 0.17643 0.99227 0.72385 0.0
C915 C 0.19522 0.01802 0.72949 0.0
C916 C 0.1825 0.98858 0.70922 0.0
C917 C 0.201 0.01385 0.71479 0.0
C918 C 0.13727 0.97832 0.75704 0.0
C919 C 0.1385 0.9648 0.74576 0.0
C920 C 0.12288 0.97964 0.76229 0.0
C921 C 0.12522 0.9528 0.73983 0.0
C922 C 0.10988 0.96739 0.75606 0.0
N923 N 0.1113 0.95434 0.74505 0.0
C924 C 0.17892 0.96097 0.76837 0.0
C925 C 0.20041 0.97649 0.75889 0.0
C926 C 0.18659 0.94782 0.76852 0.0
N927 N 0.18576 0.97521 0.76363 0.0
C928 C 0.20848 0.96364 0.7589 0.0
C929 C 0.20178 0.94875 0.76379 0.0
H930 H 0.16739 0.9597 0.77222 0.0
H931 H 0.20604 0.9876 0.75506 0.0
C932 C 0.14921 0.02033 0.71868 0.0
N933 N 0.14191 0.00933 0.7274 0.0
C934 C 0.14226 0.02253 0.70406 0.0
C935 C 0.12003 1.00223 0.70707 0.0
C936 C 0.12744 1.00035 0.72167 0.0
C937 C 0.12733 0.01349 0.69774 0.0
H938 H 0.16056 0.02767 0.72313 0.0
H939 H 0.12144 0.99166 0.72843 0.0
O940 O 0.17756 0.01296 0.78419 0.0
O941 O 0.15418 0.02762 0.76691 0.0
O942 O 0.17718 0.01087 0.74842 0.0
O943 O 0.15012 0.99013 0.76307 0.0
H944 H 0.17337 0.03636 0.8071 0.0
H945 H 0.20249 0.00303 0.7925 0.0
H946 H 0.19034 0.0468 0.83235 0.0
H947 H 0.21898 0.01409 0.81797 0.0
H948 H 0.10394 0.03065 0.76077 0.0
H949 H 0.15797 0.05924 0.77823 0.0
H950 H 0.12458 0.01501 0.7582 0.0
H951 H 0.13675 0.07414 0.78042 0.0
H952 H 0.21802 0.08093 0.79149 0.0
H953 H 0.19055 0.08195 0.74865 0.0
H954 H 0.13318 0.98997 0.83154 0.0
H955 H 0.12619 0.03762 0.82674 0.0
H956 H 0.16684 0.98373 0.72722 0.0
H957 H 0.20032 0.02955 0.73728 0.0
H958 H 0.17764 0.97715 0.70121 0.0
H959 H 0.2106 0.02214 0.71113 0.0
H960 H 0.14959 0.96357 0.74168 0.0
H961 H 0.1218 0.98998 0.77113 0.0
H962 H 0.12597 0.94226 0.73109 0.0
H963 H 0.09866 0.96824 0.76 0.0
H964 H 0.18057 0.93706 0.77266 0.0
H965 H 0.21994 0.96543 0.75484 0.0
H966 H 0.14861 0.03162 0.69795 0.0
H967 H 0.10866 0.99469 0.70308 0.0
Li968 Li 0.29456 0.93554 0.01706 0.0
Li969 Li 0.30762 0.91868 0.03205 0.0
Li970 Li 0.32265 0.94278 0.02275 0.0
Li971 Li 0.31134 0.91744 0.00409 0.0
C972 C 0.30848 0.95417 0.05091 0.0
N973 N 0.31309 0.97932 0.07699 0.0
C974 C 0.31255 0.95142 0.06609 0.0
C975 C 0.30664 0.96966 0.04901 0.0
C976 C 0.31485 0.96431 0.07913 0.0
C977 C 0.30907 0.98224 0.06233 0.0
C978 C 0.28099 0.89814 0.0164 0.0
C979 C 0.27359 0.86942 0.01744 0.0
N980 N 0.25953 0.87145 0.02182 0.0
C981 C 0.26644 0.89993 0.0208 0.0
C982 C 0.28459 0.88276 0.0146 0.0
C983 C 0.25576 0.88629 0.02353 0.0
C984 C 0.2718 0.9463 0.00025 0.0
N985 N 0.27719 0.9443 0.01481 0.0
C986 C 0.25888 0.95753 0.02769 0.0
C987 C 0.27086 0.94944 0.02836 0.0
C988 C 0.25329 0.96015 0.0129 0.0
C989 C 0.25966 0.95418 0.99899 0.0
H990 H 0.27717 0.94208 0.98971 0.0
H991 H 0.27534 0.9475 0.03972 0.0
C992 C 0.31929 0.90292 0.05422 0.0
N993 N 0.30614 0.90673 0.04883 0.0
C994 C 0.31909 0.89393 0.06642 0.0
C995 C 0.29186 0.89324 0.0676 0.0
C996 C 0.29262 0.90236 0.05539 0.0
C997 C 0.30522 0.88885 0.07319 0.0
H998 H 0.32999 0.90702 0.04914 0.0
H999 H 0.28244 0.90598 0.05119 0.0
C1000 C 0.31366 0.95208 0.99322 0.0
N1001 N 0.32089 0.97682 0.9758 0.0
C1002 C 0.31997 0.94918 0.9786 0.0
C1003 C 0.31087 0.96749 0.9989 0.0
C1004 C 0.3236 0.96187 0.96999 0.0
C1005 C 0.31464 0.97985 0.98993 0.0
C1006 C 0.33781 0.91192 0.01754 0.0
C1007 C 0.35261 0.9195 0.01443 0.0
C1008 C 0.33376 0.89492 0.01599 0.0
C1009 C 0.36307 0.90988 0.00961 0.0
C1010 C 0.34455 0.88573 0.01113 0.0
N1011 N 0.35885 0.89333 0.00805 0.0
C1012 C 0.34507 0.96884 0.04228 0.0
C1013 C 0.3476 0.96441 0.01444 0.0
C1014 C 0.35813 0.98167 0.04489 0.0
N1015 N 0.34 0.96064 0.0272 0.0
C1016 C 0.36056 0.97718 0.01646 0.0
C1017 C 0.36601 0.98594 0.03185 0.0
H1018 H 0.33932 0.9652 0.05234 0.0
H1019 H 0.34395 0.95712 0.00273 0.0
C1020 C 0.30015 0.89261 0.97822 0.0
N1021 N 0.31324 0.90344 0.98501 0.0
C1022 C 0.30048 0.88153 0.96432 0.0
C1023 C 0.32778 0.89312 0.96446 0.0
C1024 C 0.32688 0.9041 0.97834 0.0
C1025 C 0.31443 0.88165 0.95732 0.0
H1026 H 0.28941 0.8926 0.9836 0.0
H1027 H 0.33701 0.91317 0.98372 0.0
O1028 O 0.30622 0.94168 0.03804 0.0
O1029 O 0.29149 0.91131 0.01344 0.0
O1030 O 0.31038 0.93986 0.00192 0.0
O1031 O 0.32744 0.92115 0.02237 0.0
H1032 H 0.31398 0.93948 0.06778 0.0
H1033 H 0.30339 0.97197 0.03738 0.0
H1034 H 0.31805 0.96238 0.09094 0.0
H1035 H 0.30774 0.99431 0.06102 0.0
H1036 H 0.27622 0.85745 0.01611 0.0
H1037 H 0.26345 0.91174 0.02213 0.0
H1038 H 0.29571 0.88112 0.01096 0.0
H1039 H 0.24447 0.8875 0.027 0.0
H1040 H 0.25406 0.96177 0.03862 0.0
H1041 H 0.25561 0.95604 0.98741 0.0
H1042 H 0.32976 0.89123 0.0707 0.0
H1043 H 0.28094 0.88961 0.07253 0.0
H1044 H 0.32219 0.9373 0.97403 0.0
H1045 H 0.3059 0.96988 0.01012 0.0
H1046 H 0.32859 0.95984 0.95871 0.0
H1047 H 0.31261 0.99186 0.99422 0.0
H1048 H 0.35596 0.93267 0.0157 0.0
H1049 H 0.32243 0.88889 0.01855 0.0
H1050 H 0.37455 0.91557 0.00711 0.0
H1051 H 0.34155 0.87255 0.00983 0.0
H1052 H 0.36222 0.98793 0.05697 0.0
H1053 H 0.3667 0.97963 0.00616 0.0
H1054 H 0.28995 0.87285 0.9592 0.0
H1055 H 0.33869 0.89377 0.95922 0.0
Li1056 Li 0.28389 0.39731 0.02899 0.0
Li1057 Li 0.29503 0.37831 0.04253 0.0
Li1058 Li 0.31265 0.39989 0.03064 0.0
Li1059 Li 0.29484 0.37487 0.01286 0.0
C1060 C 0.29756 0.41406 0.06078 0.0
N1061 N 0.29458 0.43742 0.08647 0.0
C1062 C 0.2891 0.40949 0.0733 0.0
C1063 C 0.3047 0.43047 0.06144 0.0
C1064 C 0.28767 0.42149 0.08615 0.0
C1065 C 0.30301 0.44211 0.07449 0.0
C1066 C 0.26449 0.36089 0.02606 0.0
C1067 C 0.25179 0.33233 0.01969 0.0
N1068 N 0.23886 0.336 0.02582 0.0
C1069 C 0.25103 0.36441 0.03215 0.0
C1070 C 0.26485 0.34476 0.01964 0.0
C1071 C 0.23821 0.35164 0.03199 0.0
C1072 C 0.26174 0.41099 0.01399 0.0
N1073 N 0.26728 0.40871 0.0284 0.0
C1074 C 0.24834 0.42126 0.04139 0.0
C1075 C 0.26073 0.41353 0.04195 0.0
C1076 C 0.2425 0.42399 0.0267 0.0
C1077 C 0.24941 0.4187 0.01288 0.0
H1078 H 0.26678 0.40663 0.00328 0.0
H1079 H 0.26494 0.4112 0.05321 0.0
C1080 C 0.30661 0.36769 0.06978 0.0
N1081 N 0.29345 0.36754 0.06087 0.0
C1082 C 0.30591 0.3613 0.08388 0.0
C1083 C 0.27811 0.35485 0.07959 0.0
C1084 C 0.27936 0.36124 0.06551 0.0
C1085 C 0.2915 0.35493 0.08909 0.0
H1086 H 0.31768 0.37319 0.06618 0.0
H1087 H 0.26902 0.36159 0.05858 0.0
C1088 C 0.29938 0.41146 0.00368 0.0
N1089 N 0.30176 0.43745 0.98777 0.0
C1090 C 0.29915 0.40882 0.98705 0.0
C1091 C 0.30079 0.42729 0.01224 0.0
C1092 C 0.30038 0.42213 0.97922 0.0
C1093 C 0.30199 0.44028 0.00397 0.0
C1094 C 0.32002 0.36466 0.03245 0.0
C1095 C 0.33561 0.36927 0.03811 0.0
C1096 C 0.31219 0.34832 0.03072 0.0
C1097 C 0.34313 0.3574 0.04197 0.0
C1098 C 0.32011 0.33683 0.03473 0.0
N1099 N 0.33529 0.34156 0.04023 0.0
C1100 C 0.34129 0.41922 0.04657 0.0
C1101 C 0.33846 0.41867 0.01871 0.0
C1102 C 0.35623 0.42904 0.04768 0.0
N1103 N 0.33275 0.41424 0.03223 0.0
C1104 C 0.35324 0.4286 0.01931 0.0
C1105 C 0.36241 0.43388 0.03392 0.0
H1106 H 0.33656 0.41541 0.05712 0.0
H1107 H 0.33162 0.41429 0.00738 0.0
C1108 C 0.28109 0.35924 0.98191 0.0
N1109 N 0.29335 0.3607 0.99263 0.0
C1110 C 0.28064 0.35052 0.96636 0.0
C1111 C 0.30525 0.34463 0.97332 0.0
C1112 C 0.30524 0.35349 0.9887 0.0
C1113 C 0.29297 0.34329 0.96179 0.0
H1114 H 0.2719 0.36532 0.98528 0.0
H1115 H 0.31495 0.355 0.99737 0.0
O1116 O 0.29925 0.40247 0.04821 0.0
O1117 O 0.27708 0.37326 0.02599 0.0
O1118 O 0.29812 0.39856 0.01151 0.0
O1119 O 0.31251 0.37612 0.02859 0.0
H1120 H 0.28357 0.39683 0.07303 0.0
H1121 H 0.31158 0.43417 0.05203 0.0
H1122 H 0.28106 0.41814 0.09587 0.0
H1123 H 0.30843 0.45486 0.07514 0.0
H1124 H 0.25191 0.31978 0.01479 0.0
H1125 H 0.25053 0.37686 0.03705 0.0
H1126 H 0.27505 0.34187 0.01456 0.0
H1127 H 0.22775 0.35416 0.03675 0.0
H1128 H 0.24347 0.42516 0.05238 0.0
H1129 H 0.24514 0.42021 0.00124 0.0
H1130 H 0.31654 0.36189 0.09093 0.0
H1131 H 0.26676 0.35 0.08306 0.0
H1132 H 0.29802 0.3966 0.98027 0.0
H1133 H 0.30084 0.42948 0.0251 0.0
H1134 H 0.30023 0.42028 0.96634 0.0
H1135 H 0.30307 0.4526 0.01044 0.0
H1136 H 0.34183 0.38188 0.03949 0.0
H1137 H 0.30013 0.34459 0.02638 0.0
H1138 H 0.3552 0.36078 0.04636 0.0
H1139 H 0.31418 0.32414 0.03348 0.0
H1140 H 0.36283 0.43288 0.05921 0.0
H1141 H 0.35759 0.43178 0.00835 0.0
H1142 H 0.27104 0.35003 0.95786 0.0
H1143 H 0.31491 0.33912 0.97043 0.0
Li1144 Li 0.78284 0.16125 0.0306 0.0
Li1145 Li 0.80009 0.14474 0.01663 0.0
Li1146 Li 0.78461 0.1607 0.00198 0.0
Li1147 Li 0.77254 0.13645 0.01151 0.0
C1148 C 0.81207 0.18266 0.02627 0.0
N1149 N 0.83361 0.21056 0.04033 0.0
C1150 C 0.82491 0.18149 0.03576 0.0
C1151 C 0.81039 0.198 0.02365 0.0
C1152 C 0.83561 0.19574 0.04285 0.0
C1153 C 0.82135 0.21196 0.03094 0.0
C1154 C 0.77976 0.12716 0.04065 0.0
C1155 C 0.78061 0.10161 0.04894 0.0
N1156 N 0.76896 0.10344 0.05834 0.0
C1157 C 0.76783 0.12883 0.05042 0.0
C1158 C 0.78625 0.11349 0.03991 0.0
C1159 C 0.76251 0.11667 0.05926 0.0
C1160 C 0.76591 0.1762 0.05364 0.0
N1161 N 0.78028 0.17448 0.05009 0.0
C1162 C 0.79156 0.1929 0.07403 0.0
C1163 C 0.79294 0.18219 0.06018 0.0
C1164 C 0.77695 0.19547 0.07764 0.0
C1165 C 0.76397 0.18676 0.0674 0.0
H1166 H 0.75593 0.16944 0.04577 0.0
H1167 H 0.80412 0.18001 0.05754 0.0
C1168 C 0.82514 0.13401 0.00416 0.0
N1169 N 0.81848 0.13754 0.01791 0.0
C1170 C 0.83789 0.12691 0.00417 0.0
C1171 C 0.83682 0.12763 0.03259 0.0
C1172 C 0.82414 0.1348 0.03203 0.0
C1173 C 0.84368 0.12337 0.01847 0.0
H1174 H 0.82023 0.13624 0.99311 0.0
H1175 H 0.81852 0.13777 0.04275 0.0
C1176 C 0.7568 0.1683 0.01377 0.0
N1177 N 0.73831 0.19072 0.01471 0.0
C1178 C 0.74074 0.16296 0.01145 0.0
C1179 C 0.76343 0.18503 0.01667 0.0
C1180 C 0.7316 0.17448 0.01193 0.0
C1181 C 0.7539 0.19618 0.01707 0.0
C1182 C 0.78241 0.12422 0.98474 0.0
C1183 C 0.7743 0.12466 0.97043 0.0
C1184 C 0.78443 0.10928 0.98817 0.0
C1185 C 0.76815 0.11003 0.95982 0.0
C1186 C 0.77809 0.09492 0.97725 0.0
N1187 N 0.77014 0.09559 0.96343 0.0
C1188 C 0.7984 0.18126 0.98205 0.0
C1189 C 0.77123 0.17188 0.97692 0.0
C1190 C 0.7989 0.18981 0.96944 0.0
N1191 N 0.7847 0.17261 0.98549 0.0
C1192 C 0.7712 0.1802 0.96419 0.0
C1193 C 0.78518 0.18923 0.96029 0.0
H1194 H 0.80893 0.18134 0.98897 0.0
H1195 H 0.76056 0.16468 0.97986 0.0
C1196 C 0.75154 0.10517 0.01203 0.0
N1197 N 0.75512 0.11885 0.00548 0.0
C1198 C 0.73694 0.09479 0.00846 0.0
C1199 C 0.73073 0.11184 0.99022 0.0
C1200 C 0.74532 0.12193 0.99427 0.0
C1201 C 0.72612 0.09855 0.99796 0.0
H1202 H 0.75962 0.10263 0.02053 0.0
H1203 H 0.74861 0.13276 0.98905 0.0
O1204 O 0.80153 0.16879 0.01917 0.0
O1205 O 0.78533 0.13905 0.03215 0.0
O1206 O 0.76589 0.15714 0.01349 0.0
O1207 O 0.78818 0.13835 0.99544 0.0
H1208 H 0.82648 0.16973 0.03781 0.0
H1209 H 0.80087 0.19917 0.01592 0.0
H1210 H 0.84551 0.19502 0.05036 0.0
H1211 H 0.82014 0.22391 0.02906 0.0
H1212 H 0.78548 0.09093 0.04843 0.0
H1213 H 0.76273 0.13937 0.05115 0.0
H1214 H 0.79542 0.11196 0.03231 0.0
H1215 H 0.75327 0.11777 0.06686 0.0
H1216 H 0.80181 0.19896 0.08191 0.0
H1217 H 0.75248 0.18829 0.06984 0.0
H1218 H 0.84273 0.1236 0.993 0.0
H1219 H 0.84106 0.1252 0.04386 0.0
H1220 H 0.73536 0.15006 0.00942 0.0
H1221 H 0.77577 0.18933 0.01876 0.0
H1222 H 0.71916 0.17051 0.01015 0.0
H1223 H 0.7589 0.20917 0.01933 0.0
H1224 H 0.77265 0.13615 0.96762 0.0
H1225 H 0.79066 0.10878 0.99924 0.0
H1226 H 0.76176 0.11016 0.94873 0.0
H1227 H 0.77946 0.08325 0.97978 0.0
H1228 H 0.80993 0.19645 0.96665 0.0
H1229 H 0.76036 0.17958 0.95749 0.0
H1230 H 0.73383 0.08463 0.01468 0.0
H1231 H 0.72282 0.11494 0.9818 0.0
Li1232 Li 0.20038 0.55011 0.24661 0.0
Li1233 Li 0.17874 0.53579 0.25877 0.0
Li1234 Li 0.19557 0.52082 0.24184 0.0
Li1235 Li 0.17693 0.53326 0.22966 0.0
C1236 C 0.21287 0.54377 0.2738 0.0
N1237 N 0.23714 0.56025 0.29598 0.0
C1238 C 0.21 0.55156 0.28878 0.0
C1239 C 0.22807 0.54409 0.27022 0.0
C1240 C 0.22243 0.55989 0.2998 0.0
C1241 C 0.24019 0.55258 0.28156 0.0
C1242 C 0.16814 0.5624 0.2493 0.0
C1243 C 0.14157 0.56471 0.24893 0.0
N1244 N 0.14625 0.58076 0.25581 0.0
C1245 C 0.17269 0.57897 0.2562 0.0
C1246 C 0.15246 0.55524 0.24552 0.0
C1247 C 0.16145 0.58803 0.25947 0.0
C1248 C 0.22564 0.57275 0.23878 0.0
N1249 N 0.21567 0.56954 0.24999 0.0
C1250 C 0.2278 0.59445 0.26739 0.0
C1251 C 0.21641 0.58008 0.26401 0.0
C1252 C 0.23831 0.59808 0.25608 0.0
C1253 C 0.23714 0.58708 0.24159 0.0
H1254 H 0.22459 0.56427 0.22762 0.0
H1255 H 0.20808 0.57733 0.27252 0.0
C1256 C 0.16095 0.52265 0.28179 0.0
N1257 N 0.16777 0.53671 0.27703 0.0
C1258 C 0.15312 0.52329 0.29557 0.0
C1259 C 0.15968 0.55284 0.29927 0.0
C1260 C 0.16742 0.55162 0.2855 0.0
C1261 C 0.15241 0.53856 0.30443 0.0
H1262 H 0.16168 0.51097 0.27494 0.0
H1263 H 0.17349 0.56258 0.2818 0.0
C1264 C 0.20801 0.52929 0.21487 0.0
N1265 N 0.22634 0.51719 0.19276 0.0
C1266 C 0.20178 0.5223 0.19927 0.0
C1267 C 0.22357 0.53025 0.21919 0.0
C1268 C 0.21124 0.51621 0.18827 0.0
C1269 C 0.23264 0.52402 0.20786 0.0
C1270 C 0.15963 0.50379 0.23837 0.0
C1271 C 0.16021 0.48822 0.23032 0.0
C1272 C 0.14544 0.50703 0.24255 0.0
C1273 C 0.14654 0.47628 0.22623 0.0
C1274 C 0.13203 0.49476 0.23825 0.0
N1275 N 0.13284 0.47978 0.23022 0.0
C1276 C 0.21116 0.49943 0.25293 0.0
C1277 C 0.20389 0.49256 0.22505 0.0
C1278 C 0.21747 0.48574 0.25229 0.0
N1279 N 0.20453 0.50253 0.23944 0.0
C1280 C 0.21032 0.47885 0.22381 0.0
C1281 C 0.21703 0.47528 0.23761 0.0
H1282 H 0.21131 0.50747 0.26422 0.0
H1283 H 0.19813 0.49506 0.21461 0.0
C1284 C 0.15981 0.54489 0.20756 0.0
N1285 N 0.16328 0.5312 0.21156 0.0
C1286 C 0.14888 0.5436 0.19488 0.0
C1287 C 0.14581 0.51421 0.19032 0.0
C1288 C 0.15688 0.5161 0.20301 0.0
C1289 C 0.14155 0.52807 0.18625 0.0
H1290 H 0.16542 0.55678 0.21433 0.0
H1291 H 0.1603 0.50549 0.20606 0.0
O1292 O 0.20084 0.53571 0.26278 0.0
O1293 O 0.17904 0.55337 0.2461 0.0
O1294 O 0.19896 0.53547 0.22573 0.0
O1295 O 0.17294 0.5156 0.24246 0.0
H1296 H 0.19833 0.55126 0.29186 0.0
H1297 H 0.23049 0.5379 0.25881 0.0
H1298 H 0.22037 0.56606 0.3114 0.0
H1299 H 0.25202 0.55304 0.27889 0.0
H1300 H 0.12939 0.5593 0.24606 0.0
H1301 H 0.18478 0.58477 0.25907 0.0
H1302 H 0.14874 0.54258 0.2398 0.0
H1303 H 0.16481 0.60083 0.2649 0.0
H1304 H 0.22809 0.60284 0.27852 0.0
H1305 H 0.245 0.58956 0.23255 0.0
H1306 H 0.14759 0.51202 0.29919 0.0
H1307 H 0.15966 0.56483 0.30599 0.0
H1308 H 0.18979 0.52158 0.19569 0.0
H1309 H 0.2286 0.53576 0.23116 0.0
H1310 H 0.20657 0.51074 0.17616 0.0
H1311 H 0.2447 0.52465 0.21106 0.0
H1312 H 0.1711 0.48543 0.22715 0.0
H1313 H 0.14479 0.51879 0.24922 0.0
H1314 H 0.14682 0.46423 0.21989 0.0
H1315 H 0.12097 0.49713 0.24136 0.0
H1316 H 0.22264 0.48333 0.26316 0.0
H1317 H 0.20967 0.47089 0.21235 0.0
H1318 H 0.14626 0.55464 0.19184 0.0
H1319 H 0.14048 0.50201 0.18398 0.0
Li1320 Li 0.78365 0.89719 0.52882 0.0
Li1321 Li 0.79433 0.87784 0.5422 0.0
Li1322 Li 0.8124 0.90049 0.53152 0.0
Li1323 Li 0.79548 0.87572 0.5128 0.0
C1324 C 0.79716 0.91403 0.56103 0.0
N1325 N 0.79522 0.93836 0.58626 0.0
C1326 C 0.7907 0.90998 0.57483 0.0
C1327 C 0.80275 0.93044 0.56011 0.0
C1328 C 0.78978 0.92246 0.58744 0.0
C1329 C 0.80163 0.94257 0.57298 0.0
C1330 C 0.76423 0.86138 0.52637 0.0
C1331 C 0.75029 0.83323 0.52192 0.0
N1332 N 0.73823 0.83798 0.52906 0.0
C1333 C 0.75162 0.86601 0.53348 0.0
C1334 C 0.76351 0.84489 0.52038 0.0
C1335 C 0.73861 0.85398 0.53481 0.0
C1336 C 0.75974 0.9089 0.514 0.0
N1337 N 0.76694 0.90857 0.52835 0.0
C1338 C 0.74975 0.92329 0.54198 0.0
C1339 C 0.76203 0.9154 0.54222 0.0
C1340 C 0.74224 0.92407 0.52734 0.0
C1341 C 0.74739 0.91666 0.51321 0.0
H1342 H 0.76348 0.90301 0.50313 0.0
H1343 H 0.7674 0.91451 0.55353 0.0
C1344 C 0.80527 0.8635 0.56705 0.0
N1345 N 0.79236 0.86643 0.55995 0.0
C1346 C 0.80458 0.85694 0.58105 0.0
C1347 C 0.7773 0.85631 0.58014 0.0
C1348 C 0.77852 0.86288 0.56617 0.0
C1349 C 0.79049 0.85348 0.58794 0.0
H1350 H 0.81622 0.86672 0.56212 0.0
H1351 H 0.76853 0.86584 0.56074 0.0
C1352 C 0.79699 0.91078 0.50302 0.0
N1353 N 0.79313 0.93363 0.4846 0.0
C1354 C 0.79108 0.90572 0.48705 0.0
C1355 C 0.80106 0.92744 0.50959 0.0
C1356 C 0.78918 0.91747 0.47794 0.0
C1357 C 0.79898 0.93881 0.5001 0.0
C1358 C 0.81936 0.8637 0.52834 0.0
C1359 C 0.83539 0.86617 0.52838 0.0
C1360 C 0.8104 0.84791 0.52728 0.0
C1361 C 0.84221 0.85272 0.52731 0.0
C1362 C 0.81765 0.83477 0.52621 0.0
N1363 N 0.83328 0.83742 0.52625 0.0
C1364 C 0.83961 0.92287 0.54812 0.0
C1365 C 0.83917 0.91658 0.51995 0.0
C1366 C 0.85442 0.93292 0.54913 0.0
N1367 N 0.83232 0.91498 0.53366 0.0
C1368 C 0.85395 0.92644 0.5204 0.0
C1369 C 0.86185 0.93481 0.53513 0.0
H1370 H 0.83396 0.92128 0.55887 0.0
H1371 H 0.83318 0.91 0.50863 0.0
C1372 C 0.78195 0.85561 0.48299 0.0
N1373 N 0.79533 0.86208 0.49244 0.0
C1374 C 0.78219 0.84701 0.46751 0.0
C1375 C 0.80992 0.85158 0.47193 0.0
C1376 C 0.80915 0.86015 0.48725 0.0
C1377 C 0.79635 0.84508 0.46167 0.0
H1378 H 0.77114 0.85754 0.48732 0.0
H1379 H 0.81965 0.86561 0.49489 0.0
O1380 O 0.79817 0.90195 0.54859 0.0
O1381 O 0.77698 0.87301 0.52481 0.0
O1382 O 0.79887 0.89945 0.51211 0.0
O1383 O 0.81253 0.87676 0.5295 0.0
H1384 H 0.78637 0.89735 0.57578 0.0
H1385 H 0.80795 0.93379 0.54961 0.0
H1386 H 0.78475 0.9195 0.59816 0.0
H1387 H 0.80589 0.95533 0.57242 0.0
H1388 H 0.7496 0.82041 0.51738 0.0
H1389 H 0.75193 0.87874 0.53806 0.0
H1390 H 0.773 0.84114 0.51447 0.0
H1391 H 0.72882 0.85737 0.54039 0.0
H1392 H 0.746 0.92848 0.55321 0.0
H1393 H 0.74204 0.91698 0.50162 0.0
H1394 H 0.81503 0.85484 0.58654 0.0
H1395 H 0.76625 0.85418 0.58514 0.0
H1396 H 0.78793 0.89285 0.48179 0.0
H1397 H 0.80578 0.93154 0.52187 0.0
H1398 H 0.78458 0.91374 0.46558 0.0
H1399 H 0.80203 0.95175 0.50504 0.0
H1400 H 0.84247 0.87837 0.52924 0.0
H1401 H 0.79801 0.84585 0.52743 0.0
H1402 H 0.85461 0.85443 0.52733 0.0
H1403 H 0.81086 0.82246 0.5254 0.0
H1404 H 0.85994 0.93922 0.56074 0.0
H1405 H 0.85924 0.9272 0.50931 0.0
H1406 H 0.77145 0.84245 0.46001 0.0
H1407 H 0.82108 0.85024 0.46811 0.0
Li1408 Li 0.93805 0.06952 0.28632 0.0
Li1409 Li 0.91461 0.0503 0.2678 0.0
Li1410 Li 0.93653 0.06841 0.25465 0.0
Li1411 Li 0.91737 0.08371 0.27048 0.0
C1412 C 0.9496 0.04359 0.26703 0.0
N1413 N 0.97474 0.02929 0.26543 0.0
C1414 C 0.94771 0.02697 0.26756 0.0
C1415 C 0.96424 0.05293 0.26565 0.0
C1416 C 0.96058 0.01997 0.26676 0.0
C1417 C 0.97681 0.04548 0.26486 0.0
C1418 C 0.90591 0.06533 0.29937 0.0
C1419 C 0.8843 0.06946 0.31426 0.0
N1420 N 0.88791 0.05957 0.32415 0.0
C1421 C 0.90942 0.0552 0.30965 0.0
C1422 C 0.89327 0.07254 0.30166 0.0
C1423 C 0.90017 0.05244 0.32212 0.0
C1424 C 0.95478 0.08161 0.32034 0.0
N1425 N 0.95028 0.06861 0.30797 0.0
C1426 C 0.96031 0.05176 0.32461 0.0
C1427 C 0.95305 0.05385 0.31011 0.0
C1428 C 0.965 0.06486 0.33774 0.0
C1429 C 0.96208 0.08003 0.33511 0.0
H1430 H 0.95252 0.09333 0.31897 0.0
H1431 H 0.94939 0.04337 0.30061 0.0
C1432 C 0.90434 0.01502 0.25514 0.0
N1433 N 0.90115 0.02729 0.2661 0.0
C1434 C 0.89677 0.9985 0.25442 0.0
C1435 C 0.88229 0.00711 0.27599 0.0
C1436 C 0.89015 0.0235 0.27632 0.0
C1437 C 0.88558 0.99408 0.26504 0.0
H1438 H 0.91309 0.01799 0.24708 0.0
H1439 H 0.8876 0.03312 0.28506 0.0
C1440 C 0.95299 0.10038 0.27019 0.0
N1441 N 0.97679 0.12444 0.26386 0.0
C1442 C 0.94997 0.11152 0.26082 0.0
C1443 C 0.96806 0.10155 0.27649 0.0
C1444 C 0.96218 0.12358 0.25771 0.0
C1445 C 0.97995 0.11378 0.27311 0.0
C1446 C 0.90753 0.06538 0.23619 0.0
C1447 C 0.91373 0.07854 0.2289 0.0
C1448 C 0.89559 0.05282 0.22806 0.0
C1449 C 0.90779 0.07896 0.21354 0.0
C1450 C 0.88993 0.05372 0.21273 0.0
N1451 N 0.8961 0.06665 0.20586 0.0
C1452 C 0.94199 0.05471 0.22108 0.0
C1453 C 0.96093 0.07844 0.23138 0.0
C1454 C 0.94871 0.0531 0.20626 0.0
N1455 N 0.948 0.06728 0.2335 0.0
C1456 C 0.96801 0.07729 0.21671 0.0
C1457 C 0.96202 0.06449 0.20356 0.0
H1458 H 0.93182 0.04574 0.22258 0.0
H1459 H 0.9659 0.08843 0.24103 0.0
C1460 C 0.90791 0.11618 0.28348 0.0
N1461 N 0.90544 0.10321 0.27098 0.0
C1462 C 0.90018 0.12933 0.28367 0.0
C1463 C 0.8873 0.11617 0.25814 0.0
C1464 C 0.89515 0.10321 0.25846 0.0
C1465 C 0.88958 0.12977 0.27084 0.0
H1466 H 0.91601 0.1165 0.29347 0.0
H1467 H 0.89288 0.09308 0.24851 0.0
O1468 O 0.93719 0.0507 0.26784 0.0
O1469 O 0.91488 0.06835 0.28719 0.0
O1470 O 0.94122 0.08848 0.27333 0.0
O1471 O 0.91306 0.06484 0.25127 0.0
H1472 H 0.93646 0.01959 0.26871 0.0
H1473 H 0.96585 0.06579 0.26514 0.0
H1474 H 0.95931 0.00713 0.2672 0.0
H1475 H 0.98821 0.05256 0.26379 0.0
H1476 H 0.87447 0.07495 0.31619 0.0
H1477 H 0.91912 0.04946 0.30795 0.0
H1478 H 0.89044 0.08044 0.29379 0.0
H1479 H 0.90273 0.04462 0.33018 0.0
H1480 H 0.96227 0.03978 0.32535 0.0
H1481 H 0.96507 0.09068 0.34453 0.0
H1482 H 0.89972 0.98926 0.24549 0.0
H1483 H 0.87398 0.0047 0.28462 0.0
H1484 H 0.93832 0.11086 0.256 0.0
H1485 H 0.97053 0.0931 0.2839 0.0
H1486 H 0.96004 0.13225 0.25042 0.0
H1487 H 0.99169 0.11481 0.27785 0.0
H1488 H 0.92301 0.08832 0.23505 0.0
H1489 H 0.89068 0.04256 0.23358 0.0
H1490 H 0.91246 0.08907 0.20775 0.0
H1491 H 0.88062 0.04413 0.20631 0.0
H1492 H 0.94347 0.04274 0.19705 0.0
H1493 H 0.97803 0.08667 0.21572 0.0
H1494 H 0.9028 0.13927 0.29383 0.0
H1495 H 0.87924 0.11529 0.24793 0.0
Li1496 Li 0.2827 0.66131 0.53226 0.0
Li1497 Li 0.29906 0.64375 0.51727 0.0
Li1498 Li 0.28358 0.65839 0.50364 0.0
Li1499 Li 0.27141 0.63552 0.51493 0.0
C1500 C 0.3108 0.68062 0.51603 0.0
N1501 N 0.33091 0.70663 0.50744 0.0
C1502 C 0.32346 0.67803 0.5077 0.0
C1503 C 0.30856 0.69651 0.52027 0.0
C1504 C 0.33343 0.69131 0.50337 0.0
C1505 C 0.3188 0.70948 0.51575 0.0
C1506 C 0.2802 0.62596 0.54117 0.0
C1507 C 0.27676 0.59705 0.54091 0.0
N1508 N 0.26808 0.59849 0.55355 0.0
C1509 C 0.27136 0.6272 0.55424 0.0
C1510 C 0.28304 0.61082 0.53451 0.0
C1511 C 0.26529 0.61314 0.5603 0.0
C1512 C 0.26754 0.67553 0.55728 0.0
N1513 N 0.28138 0.67556 0.5512 0.0
C1514 C 0.29413 0.69735 0.57197 0.0
C1515 C 0.29457 0.68604 0.55825 0.0
C1516 C 0.27995 0.69787 0.57833 0.0
C1517 C 0.26653 0.6868 0.57087 0.0
H1518 H 0.25729 0.66684 0.5515 0.0
H1519 H 0.3054 0.68565 0.55314 0.0
C1520 C 0.32298 0.63142 0.50399 0.0
N1521 N 0.31736 0.63633 0.51805 0.0
C1522 C 0.33592 0.62464 0.50382 0.0
C1523 C 0.33713 0.62835 0.53267 0.0
C1524 C 0.32415 0.6351 0.53226 0.0
C1525 C 0.34306 0.62286 0.51829 0.0
H1526 H 0.31722 0.63252 0.49289 0.0
H1527 H 0.31929 0.63906 0.54323 0.0
C1528 C 0.25533 0.66673 0.5179 0.0
N1529 N 0.23537 0.68763 0.52241 0.0
C1530 C 0.2394 0.66044 0.51679 0.0
C1531 C 0.26109 0.68364 0.52121 0.0
C1532 C 0.2295 0.67121 0.51914 0.0
C1533 C 0.25083 0.69401 0.52348 0.0
C1534 C 0.27716 0.62836 0.48297 0.0
C1535 C 0.26285 0.63182 0.47932 0.0
C1536 C 0.28308 0.6178 0.4718 0.0
C1537 C 0.25471 0.62466 0.46454 0.0
C1538 C 0.27457 0.61086 0.45715 0.0
N1539 N 0.26068 0.61441 0.45385 0.0
C1540 C 0.29564 0.6701 0.47705 0.0
C1541 C 0.27119 0.67567 0.48223 0.0
C1542 C 0.29627 0.67814 0.46407 0.0
N1543 N 0.28338 0.66933 0.48603 0.0
C1544 C 0.27129 0.68376 0.46933 0.0
C1545 C 0.284 0.68515 0.46012 0.0
H1546 H 0.30485 0.66429 0.4799 0.0
H1547 H 0.26126 0.67432 0.48903 0.0
C1548 C 0.24421 0.62015 0.52443 0.0
N1549 N 0.25452 0.6176 0.5136 0.0
C1550 C 0.23107 0.60813 0.5248 0.0
C1551 C 0.23928 0.59098 0.50275 0.0
C1552 C 0.25253 0.60327 0.50305 0.0
C1553 C 0.22839 0.59345 0.51373 0.0
H1554 H 0.24621 0.63166 0.53271 0.0
H1555 H 0.26108 0.60145 0.49476 0.0
O1556 O 0.30103 0.66776 0.52053 0.0
O1557 O 0.28582 0.63946 0.53475 0.0
O1558 O 0.26518 0.65631 0.51589 0.0
O1559 O 0.28542 0.63516 0.49736 0.0
H1560 H 0.32549 0.66586 0.50448 0.0
H1561 H 0.29915 0.69887 0.52716 0.0
H1562 H 0.3432 0.68945 0.4968 0.0
H1563 H 0.31716 0.72182 0.51892 0.0
H1564 H 0.27875 0.58522 0.5358 0.0
H1565 H 0.26905 0.63885 0.55949 0.0
H1566 H 0.28984 0.60969 0.52436 0.0
H1567 H 0.25832 0.61387 0.57032 0.0
H1568 H 0.3047 0.70573 0.57744 0.0
H1569 H 0.25545 0.68673 0.57562 0.0
H1570 H 0.33995 0.62032 0.49246 0.0
H1571 H 0.34237 0.6273 0.54407 0.0
H1572 H 0.23471 0.64739 0.51408 0.0
H1573 H 0.27334 0.68868 0.52199 0.0
H1574 H 0.21715 0.66651 0.51833 0.0
H1575 H 0.25515 0.70713 0.52608 0.0
H1576 H 0.25799 0.63989 0.48777 0.0
H1577 H 0.29411 0.61495 0.47444 0.0
H1578 H 0.24362 0.62723 0.46157 0.0
H1579 H 0.27901 0.60265 0.44841 0.0
H1580 H 0.30611 0.67861 0.45703 0.0
H1581 H 0.26157 0.68897 0.46667 0.0
H1582 H 0.22277 0.61054 0.53326 0.0
H1583 H 0.23747 0.57978 0.49402 0.0
Li1584 Li 0.41499 0.55024 0.76815 0.0
Li1585 Li 0.43859 0.56962 0.78665 0.0
Li1586 Li 0.4175 0.58327 0.77061 0.0
Li1587 Li 0.43685 0.56836 0.75471 0.0
C1588 C 0.40568 0.56472 0.79906 0.0
N1589 N 0.38645 0.55831 0.82276 0.0
C1590 C 0.40956 0.55582 0.8104 0.0
C1591 C 0.39205 0.5704 0.79978 0.0
C1592 C 0.39967 0.55268 0.82228 0.0
C1593 C 0.38247 0.56702 0.81186 0.0
C1594 C 0.44922 0.54271 0.76591 0.0
C1595 C 0.47577 0.54268 0.76148 0.0
N1596 N 0.47273 0.52627 0.76118 0.0
C1597 C 0.44633 0.52585 0.76548 0.0
C1598 C 0.46403 0.55121 0.76384 0.0
C1599 C 0.45839 0.51776 0.76311 0.0
C1600 C 0.39195 0.5188 0.75424 0.0
N1601 N 0.40185 0.52713 0.76714 0.0
C1602 C 0.39634 0.503 0.77936 0.0
C1603 C 0.40407 0.51937 0.77955 0.0
C1604 C 0.38606 0.49399 0.76621 0.0
C1605 C 0.38395 0.50238 0.75357 0.0
H1606 H 0.39044 0.52471 0.7442 0.0
H1607 H 0.41214 0.52578 0.78962 0.0
C1608 C 0.44832 0.57778 0.82263 0.0
N1609 N 0.45094 0.56905 0.80839 0.0
C1610 C 0.45533 0.57614 0.83749 0.0
C1611 C 0.46804 0.55672 0.82334 0.0
C1612 C 0.46074 0.55866 0.80877 0.0
C1613 C 0.46542 0.56536 0.83829 0.0
H1614 H 0.44046 0.5859 0.82261 0.0
H1615 H 0.46278 0.55142 0.79774 0.0
C1616 C 0.40692 0.5678 0.73761 0.0
N1617 N 0.39379 0.57491 0.7104 0.0
C1618 C 0.41483 0.58037 0.73048 0.0
C1619 C 0.39231 0.55889 0.73096 0.0
C1620 C 0.40801 0.58375 0.7167 0.0
C1621 C 0.38587 0.56268 0.71719 0.0
C1622 C 0.45301 0.6005 0.77037 0.0
C1623 C 0.44968 0.61234 0.76205 0.0
C1624 C 0.46826 0.60117 0.77574 0.0
C1625 C 0.46176 0.62462 0.75908 0.0
C1626 C 0.48001 0.61364 0.77252 0.0
N1627 N 0.47655 0.62499 0.76432 0.0
C1628 C 0.41018 0.6173 0.78177 0.0
C1629 C 0.39309 0.60144 0.7604 0.0
C1630 C 0.40252 0.63052 0.7819 0.0
N1631 N 0.40553 0.60285 0.7711 0.0
C1632 C 0.38518 0.61437 0.76008 0.0
C1633 C 0.38965 0.62951 0.77092 0.0
H1634 H 0.41997 0.61876 0.79034 0.0
H1635 H 0.38916 0.59022 0.75184 0.0
C1636 C 0.44418 0.55338 0.7222 0.0
N1637 N 0.44851 0.56721 0.73368 0.0
C1638 C 0.45106 0.55176 0.70746 0.0
C1639 C 0.46704 0.57853 0.71605 0.0
C1640 C 0.45988 0.57966 0.73066 0.0
C1641 C 0.46277 0.56443 0.70387 0.0
H1642 H 0.43522 0.54343 0.7244 0.0
H1643 H 0.46345 0.5907 0.7395 0.0
O1644 O 0.41537 0.56828 0.78759 0.0
O1645 O 0.43761 0.55086 0.76821 0.0
O1646 O 0.41338 0.56437 0.75115 0.0
O1647 O 0.44137 0.58841 0.77339 0.0
H1648 H 0.4201 0.5514 0.81004 0.0
H1649 H 0.38896 0.57741 0.79113 0.0
H1650 H 0.40252 0.54581 0.83113 0.0
H1651 H 0.3719 0.57136 0.81259 0.0
H1652 H 0.48729 0.5491 0.75988 0.0
H1653 H 0.43491 0.51909 0.76699 0.0
H1654 H 0.4664 0.56425 0.76405 0.0
H1655 H 0.45635 0.50472 0.76279 0.0
H1656 H 0.39845 0.49751 0.78957 0.0
H1657 H 0.37646 0.4962 0.74297 0.0
H1658 H 0.45281 0.58339 0.84831 0.0
H1659 H 0.47538 0.54803 0.8228 0.0
H1660 H 0.42611 0.58743 0.73555 0.0
H1661 H 0.38595 0.54928 0.73647 0.0
H1662 H 0.41401 0.59342 0.71103 0.0
H1663 H 0.37455 0.55591 0.71193 0.0
H1664 H 0.4379 0.61202 0.75791 0.0
H1665 H 0.47097 0.59215 0.78231 0.0
H1666 H 0.45939 0.63384 0.75261 0.0
H1667 H 0.49188 0.61429 0.77656 0.0
H1668 H 0.40673 0.64143 0.79081 0.0
H1669 H 0.37568 0.6124 0.75106 0.0
H1670 H 0.44722 0.54041 0.69903 0.0
H1671 H 0.47573 0.58893 0.71431 0.0
Li1672 Li 0.67545 0.03197 0.75998 0.0
Li1673 Li 0.6969 0.04971 0.75013 0.0
Li1674 Li 0.67427 0.03355 0.73243 0.0
Li1675 Li 0.69334 0.02015 0.74327 0.0
C1676 C 0.66706 0.0618 0.74505 0.0
N1677 N 0.65085 0.08207 0.73288 0.0
C1678 C 0.67487 0.07683 0.74184 0.0
C1679 C 0.65099 0.05714 0.74216 0.0
C1680 C 0.66647 0.08689 0.73568 0.0
C1681 C 0.64301 0.06753 0.73597 0.0
C1682 C 0.70909 0.0398 0.77657 0.0
C1683 C 0.736 0.04624 0.78622 0.0
N1684 N 0.73231 0.05245 0.80093 0.0
C1685 C 0.70554 0.04612 0.79181 0.0
C1686 C 0.72442 0.03973 0.77377 0.0
C1687 C 0.71746 0.0525 0.80396 0.0
C1688 C 0.667 0.01926 0.78746 0.0
N1689 N 0.66404 0.02954 0.77771 0.0
C1690 C 0.64464 0.03719 0.79368 0.0
C1691 C 0.65315 0.03843 0.78052 0.0
C1692 C 0.64752 0.02681 0.80408 0.0
C1693 C 0.65884 0.01774 0.80088 0.0
H1694 H 0.67581 0.01241 0.78487 0.0
H1695 H 0.65121 0.04664 0.77266 0.0
C1696 C 0.71985 0.07479 0.74273 0.0
N1697 N 0.71207 0.06941 0.7548 0.0
C1698 C 0.73122 0.08922 0.74579 0.0
C1699 C 0.72635 0.09229 0.77367 0.0
C1700 C 0.71488 0.07797 0.76999 0.0
C1701 C 0.73466 0.09817 0.76146 0.0
H1702 H 0.71704 0.06802 0.73067 0.0
H1703 H 0.70812 0.07376 0.77925 0.0
C1704 C 0.65924 0.00301 0.74721 0.0
N1705 N 0.63649 0.98231 0.75952 0.0
C1706 C 0.66255 0.9896 0.753 0.0
C1707 C 0.64433 0.00584 0.74758 0.0
C1708 C 0.65089 0.97928 0.7592 0.0
C1709 C 0.633 0.99526 0.75389 0.0
C1710 C 0.70657 0.03307 0.71803 0.0
C1711 C 0.70144 0.0273 0.70192 0.0
C1712 C 0.7222 0.03537 0.72302 0.0
C1713 C 0.71206 0.02382 0.69106 0.0
C1714 C 0.73246 0.03173 0.71179 0.0
N1715 N 0.72722 0.02607 0.69618 0.0
C1716 C 0.66159 0.04484 0.70624 0.0
C1717 C 0.65089 0.01758 0.70907 0.0
C1718 C 0.65113 0.04334 0.69306 0.0
N1719 N 0.66103 0.03214 0.71411 0.0
C1720 C 0.64032 0.01551 0.69594 0.0
C1721 C 0.64025 0.02854 0.68786 0.0
H1722 H 0.67005 0.05615 0.71029 0.0
H1723 H 0.65104 0.0075 0.7152 0.0
C1724 C 0.70757 0.9977 0.75358 0.0
N1725 N 0.70334 1.00263 0.74002 0.0
C1726 C 0.71416 0.98419 0.75273 0.0
C1727 C 0.71224 0.98121 0.72393 0.0
C1728 C 0.70541 0.99467 0.72533 0.0
C1729 C 0.71648 0.97575 0.73777 0.0
H1730 H 0.70549 0.00407 0.76506 0.0
H1731 H 0.70152 0.99855 0.71472 0.0
O1732 O 0.67509 0.05185 0.75123 0.0
O1733 O 0.69759 0.03353 0.76453 0.0
O1734 O 0.67054 0.01337 0.74127 0.0
O1735 O 0.69635 0.03667 0.72878 0.0
H1736 H 0.68728 0.0807 0.74408 0.0
H1737 H 0.64475 0.04553 0.7445 0.0
H1738 H 0.67236 0.09854 0.73311 0.0
H1739 H 0.63059 0.06402 0.73358 0.0
H1740 H 0.74793 0.04633 0.78421 0.0
H1741 H 0.69375 0.04632 0.79419 0.0
H1742 H 0.72733 0.03469 0.7621 0.0
H1743 H 0.71489 0.05754 0.81578 0.0
H1744 H 0.6362 0.0446 0.79594 0.0
H1745 H 0.66133 0.00961 0.80865 0.0
H1746 H 0.73691 0.09351 0.73588 0.0
H1747 H 0.72858 0.09871 0.78592 0.0
H1748 H 0.67402 0.98722 0.75277 0.0
H1749 H 0.64158 0.01618 0.74316 0.0
H1750 H 0.6533 0.96888 0.76377 0.0
H1751 H 0.62144 0.99735 0.75433 0.0
H1752 H 0.68937 0.02553 0.69788 0.0
H1753 H 0.72636 0.03995 0.73542 0.0
H1754 H 0.70826 0.01932 0.67856 0.0
H1755 H 0.74458 0.03343 0.71549 0.0
H1756 H 0.65145 0.05369 0.68713 0.0
H1757 H 0.63242 0.00376 0.69204 0.0
H1758 H 0.71739 0.98035 0.76365 0.0
H1759 H 0.71378 0.97485 0.7122 0.0
Li1760 Li 0.79575 0.7035 0.02213 0.0
Li1761 Li 0.80775 0.68168 0.00672 0.0
Li1762 Li 0.79618 0.70078 0.99248 0.0
Li1763 Li 0.77906 0.67856 0.00329 0.0
C1764 C 0.82597 0.71906 0.01051 0.0
N1765 N 0.85049 0.74552 0.01237 0.0
C1766 C 0.84111 0.71702 0.01211 0.0
C1767 C 0.82329 0.73453 0.00981 0.0
C1768 C 0.85336 0.73056 0.01305 0.0
C1769 C 0.83584 0.74776 0.01079 0.0
C1770 C 0.79319 0.66801 0.03199 0.0
C1771 C 0.7895 0.63966 0.03437 0.0
N1772 N 0.7948 0.64428 0.05007 0.0
C1773 C 0.79851 0.67251 0.04816 0.0
C1774 C 0.78857 0.65148 0.02504 0.0
C1775 C 0.79927 0.66032 0.05709 0.0
C1776 C 0.78261 0.71985 0.04759 0.0
N1777 N 0.79627 0.71728 0.04247 0.0
C1778 C 0.80954 0.73145 0.06765 0.0
C1779 C 0.80965 0.72302 0.05206 0.0
C1780 C 0.79552 0.73398 0.07344 0.0
C1781 C 0.78198 0.72829 0.06301 0.0
H1782 H 0.7721 0.71498 0.0398 0.0
H1783 H 0.82033 0.72057 0.04779 0.0
C1784 C 0.83042 0.66558 0.99345 0.0
N1785 N 0.8246 0.67077 0.00736 0.0
C1786 C 0.84295 0.65801 0.99349 0.0
C1787 C 0.84339 0.66135 0.0222 0.0
C1788 C 0.83092 0.66893 0.0216 0.0
C1789 C 0.84964 0.65575 0.00802 0.0
H1790 H 0.82541 0.66747 0.98229 0.0
H1791 H 0.82635 0.67344 0.03254 0.0
C1792 C 0.76989 0.71315 0.00341 0.0
N1793 N 0.75244 0.73546 0.99862 0.0
C1794 C 0.75521 0.7078 0.99522 0.0
C1795 C 0.77561 0.72981 0.00935 0.0
C1796 C 0.74659 0.71929 0.99286 0.0
C1797 C 0.76663 0.7409 0.00676 0.0
C1798 C 0.78955 0.66368 0.97443 0.0
C1799 C 0.78362 0.66584 0.95966 0.0
C1800 C 0.79125 0.6482 0.97651 0.0
C1801 C 0.77933 0.65237 0.94721 0.0
C1802 C 0.78683 0.63504 0.96377 0.0
N1803 N 0.78101 0.63738 0.94951 0.0
C1804 C 0.81267 0.71604 0.96918 0.0
C1805 C 0.78576 0.71436 0.96658 0.0
C1806 C 0.81448 0.72275 0.95528 0.0
N1807 N 0.79846 0.71195 0.97452 0.0
C1808 C 0.78703 0.72107 0.95269 0.0
C1809 C 0.80151 0.72517 0.94668 0.0
H1810 H 0.82258 0.71367 0.97545 0.0
H1811 H 0.77452 0.71064 0.97072 0.0
C1812 C 0.75268 0.66142 0.01495 0.0
N1813 N 0.75908 0.66374 0.00113 0.0
C1814 C 0.73786 0.65165 0.01465 0.0
C1815 C 0.73637 0.64669 0.98584 0.0
C1816 C 0.75124 0.65662 0.98671 0.0
C1817 C 0.7294 0.64418 -5e-05 0.0
H1818 H 0.75904 0.66735 0.02628 0.0
H1819 H 0.75635 0.65889 0.97585 0.0
O1820 O 0.81389 0.70587 0.00936 0.0
O1821 O 0.79237 0.67978 0.0231 0.0
O1822 O 0.77843 0.70206 0.00591 0.0
O1823 O 0.79407 0.67678 0.98663 0.0
H1824 H 0.84337 0.70509 0.01259 0.0
H1825 H 0.81166 0.73626 0.00833 0.0
H1826 H 0.86514 0.72916 0.01429 0.0
H1827 H 0.83395 0.75981 0.01022 0.0
H1828 H 0.78598 0.6268 0.02915 0.0
H1829 H 0.80207 0.68528 0.05371 0.0
H1830 H 0.78423 0.64782 0.0126 0.0
H1831 H 0.80342 0.6636 0.0696 0.0
H1832 H 0.82025 0.73536 0.07526 0.0
H1833 H 0.77094 0.73012 0.06677 0.0
H1834 H 0.84748 0.65419 0.98227 0.0
H1835 H 0.84797 0.65976 0.03368 0.0
H1836 H 0.75058 0.69492 0.99067 0.0
H1837 H 0.78678 0.7341 0.01605 0.0
H1838 H 0.73525 0.71535 0.98646 0.0
H1839 H 0.77092 0.75383 0.01127 0.0
H1840 H 0.78233 0.67779 0.95784 0.0
H1841 H 0.79606 0.64639 0.98779 0.0
H1842 H 0.7747 0.65385 0.93572 0.0
H1843 H 0.78809 0.62298 0.9652 0.0
H1844 H 0.82585 0.72546 0.95104 0.0
H1845 H 0.77671 0.72286 0.94664 0.0
H1846 H 0.7331 0.64996 0.02584 0.0
H1847 H 0.73024 0.64141 0.97424 0.0
Li1848 Li 0.89389 0.52771 0.7859 0.0
Li1849 Li 0.91769 0.54405 0.80174 0.0
Li1850 Li 0.89793 0.55646 0.79159 0.0
Li1851 Li 0.91441 0.54393 0.77301 0.0
C1852 C 0.88811 0.54871 0.81854 0.0
N1853 N 0.87216 0.56408 0.84112 0.0
C1854 C 0.89555 0.55665 0.83346 0.0
C1855 C 0.87251 0.54844 0.81517 0.0
C1856 C 0.88729 0.56437 0.84471 0.0
C1857 C 0.86467 0.55634 0.82671 0.0
C1858 C 0.92507 0.51518 0.78505 0.0
C1859 C 0.95036 0.50926 0.78389 0.0
N1860 N 0.94481 0.49464 0.78831 0.0
C1861 C 0.91956 0.50005 0.78946 0.0
C1862 C 0.94055 0.51979 0.78212 0.0
C1863 C 0.92974 0.48986 0.79108 0.0
C1864 C 0.87802 0.49668 0.76961 0.0
N1865 N 0.87903 0.50791 0.78319 0.0
C1866 C 0.85775 0.49121 0.79282 0.0
C1867 C 0.86932 0.50542 0.79478 0.0
C1868 C 0.85622 0.47953 0.77877 0.0
C1869 C 0.86653 0.48236 0.76707 0.0
H1870 H 0.88608 0.49893 0.76073 0.0
H1871 H 0.87056 0.51445 0.80557 0.0
C1872 C 0.93828 0.56205 0.82674 0.0
N1873 N 0.93241 0.54645 0.81905 0.0
C1874 C 0.94904 0.5652 0.8399 0.0
C1875 C 0.94745 0.53611 0.83708 0.0
C1876 C 0.93662 0.53352 0.82401 0.0
C1877 C 0.95374 0.55213 0.84519 0.0
H1878 H 0.9344 0.57206 0.82276 0.0
H1879 H 0.93141 0.52121 0.81806 0.0
C1880 C 0.88026 0.53303 0.75946 0.0
N1881 N 0.85706 0.5133 0.73768 0.0
C1882 C 0.88368 0.52627 0.74432 0.0
C1883 C 0.86498 0.52992 0.76344 0.0
C1884 C 0.8718 0.5163 0.73349 0.0
C1885 C 0.85343 0.51986 0.75229 0.0
C1886 C 0.93336 0.57415 0.78959 0.0
C1887 C 0.93227 0.58982 0.7875 0.0
C1888 C 0.94781 0.57022 0.79048 0.0
C1889 C 0.94571 0.6013 0.7862 0.0
C1890 C 0.96097 0.58204 0.78914 0.0
N1891 N 0.95966 0.5972 0.78704 0.0
C1892 C 0.89364 0.58623 0.80902 0.0
C1893 C 0.8762 0.57427 0.78608 0.0
C1894 C 0.88608 0.59905 0.81243 0.0
N1895 N 0.88849 0.57418 0.79608 0.0
C1896 C 0.86834 0.58677 0.78902 0.0
C1897 C 0.87321 0.59932 0.80237 0.0
H1898 H 0.90353 0.58579 0.81669 0.0
H1899 H 0.87256 0.56465 0.77578 0.0
C1900 C 0.92721 0.53023 0.74654 0.0
N1901 N 0.92511 0.54471 0.75451 0.0
C1902 C 0.93505 0.5297 0.7328 0.0
C1903 C 0.93846 0.55905 0.73572 0.0
C1904 C 0.93037 0.55898 0.74934 0.0
C1905 C 0.94082 0.54424 0.72728 0.0
H1906 H 0.92272 0.51906 0.75084 0.0
H1907 H 0.92827 0.57027 0.75574 0.0
O1908 O 0.89603 0.54114 0.80734 0.0
O1909 O 0.91525 0.52528 0.78336 0.0
O1910 O 0.89177 0.54272 0.77028 0.0
O1911 O 0.92031 0.56287 0.79106 0.0
H1912 H 0.90756 0.55684 0.83635 0.0
H1913 H 0.86657 0.54236 0.80369 0.0
H1914 H 0.89291 0.57059 0.85629 0.0
H1915 H 0.85263 0.55634 0.8242 0.0
H1916 H 0.96239 0.51269 0.78171 0.0
H1917 H 0.90758 0.49628 0.79168 0.0
H1918 H 0.94493 0.53132 0.77842 0.0
H1919 H 0.92567 0.47814 0.79455 0.0
H1920 H 0.85005 0.4894 0.80213 0.0
H1921 H 0.86592 0.47344 0.75624 0.0
H1922 H 0.95362 0.57772 0.84589 0.0
H1923 H 0.95055 0.52569 0.84106 0.0
H1924 H 0.89538 0.52867 0.74094 0.0
H1925 H 0.8621 0.53504 0.77508 0.0
H1926 H 0.87431 0.51093 0.72176 0.0
H1927 H 0.8416 0.51723 0.75527 0.0
H1928 H 0.92115 0.59306 0.78686 0.0
H1929 H 0.94886 0.55824 0.79234 0.0
H1930 H 0.94504 0.61346 0.78454 0.0
H1931 H 0.97224 0.57918 0.78984 0.0
H1932 H 0.89018 0.60855 0.82281 0.0
H1933 H 0.85874 0.58678 0.7807 0.0
H1934 H 0.93678 0.51807 0.7267 0.0
H1935 H 0.94265 0.57048 0.73171 0.0
Li1936 Li 0.80555 0.41729 0.53183 0.0
Li1937 Li 0.79179 0.43467 0.51826 0.0
Li1938 Li 0.80925 0.4189 0.50425 0.0
Li1939 Li 0.8193 0.44226 0.52448 0.0
C1940 C 0.77893 0.39706 0.51447 0.0
N1941 N 0.75706 0.36952 0.51714 0.0
C1942 C 0.76464 0.39857 0.51989 0.0
C1943 C 0.782 0.38155 0.51015 0.0
C1944 C 0.75376 0.38449 0.52123 0.0
C1945 C 0.77083 0.36777 0.51166 0.0
C1946 C 0.80946 0.45239 0.55168 0.0
C1947 C 0.8154 0.48123 0.56269 0.0
N1948 N 0.82375 0.47839 0.57529 0.0
C1949 C 0.81802 0.44973 0.56477 0.0
C1950 C 0.80805 0.46824 0.55064 0.0
C1951 C 0.82518 0.46304 0.57658 0.0
C1952 C 0.81827 0.40243 0.55419 0.0
N1953 N 0.80464 0.40435 0.54778 0.0
C1954 C 0.79079 0.39013 0.56634 0.0
C1955 C 0.79104 0.39852 0.55361 0.0
C1956 C 0.80473 0.38814 0.57328 0.0
C1957 C 0.81858 0.39426 0.56699 0.0
H1958 H 0.82897 0.40769 0.5497 0.0
H1959 H 0.78046 0.40084 0.54878 0.0
C1960 C 0.76745 0.44384 0.50238 0.0
N1961 N 0.77395 0.44271 0.51678 0.0
C1962 C 0.75511 0.45155 0.50165 0.0
C1963 C 0.75636 0.45634 0.53054 0.0
C1964 C 0.76855 0.44848 0.5307 0.0
C1965 C 0.7497 0.45822 0.51591 0.0
H1966 H 0.77214 0.43918 0.49154 0.0
H1967 H 0.77399 0.44732 0.54194 0.0
C1968 C 0.83495 0.41104 0.51801 0.0
N1969 N 0.85474 0.39063 0.50954 0.0
C1970 C 0.85034 0.41762 0.51594 0.0
C1971 C 0.82967 0.3941 0.51599 0.0
C1972 C 0.86015 0.4071 0.5116 0.0
C1973 C 0.83984 0.38398 0.51165 0.0
C1974 C 0.81634 0.449 0.49317 0.0
C1975 C 0.83152 0.44728 0.49184 0.0
C1976 C 0.81019 0.45842 0.48372 0.0
C1977 C 0.84029 0.45495 0.48099 0.0
C1978 C 0.81933 0.46593 0.47302 0.0
N1979 N 0.83407 0.46405 0.47189 0.0
C1980 C 0.79822 0.39709 0.47615 0.0
C1981 C 0.82551 0.40567 0.47891 0.0
C1982 C 0.7987 0.38652 0.46191 0.0
N1983 N 0.81151 0.40622 0.48441 0.0
C1984 C 0.82654 0.39519 0.46476 0.0
C1985 C 0.81301 0.38538 0.45616 0.0
H1986 H 0.78724 0.39789 0.48074 0.0
H1987 H 0.83592 0.41322 0.48549 0.0
C1988 C 0.84753 0.45712 0.54092 0.0
N1989 N 0.83627 0.45994 0.53117 0.0
C1990 C 0.86165 0.46827 0.54423 0.0
C1991 C 0.85192 0.48551 0.52823 0.0
C1992 C 0.83785 0.47412 0.52546 0.0
C1993 C 0.86424 0.48223 0.53711 0.0
H1994 H 0.84578 0.44579 0.54544 0.0
H1995 H 0.82853 0.47612 0.51797 0.0
O1996 O 0.78966 0.4107 0.51297 0.0
O1997 O 0.80277 0.4396 0.53976 0.0
O1998 O 0.82515 0.42118 0.52211 0.0
O1999 O 0.80766 0.44206 0.50405 0.0
H2000 H 0.76202 0.41048 0.52314 0.0
H2001 H 0.79284 0.38013 0.50556 0.0
H2002 H 0.74269 0.38547 0.52551 0.0
H2003 H 0.77307 0.35569 0.50842 0.0
H2004 H 0.81452 0.49358 0.56199 0.0
H2005 H 0.81925 0.43754 0.56572 0.0
H2006 H 0.80154 0.47049 0.54052 0.0
H2007 H 0.83192 0.46119 0.58673 0.0
H2008 H 0.77992 0.38584 0.57109 0.0
H2009 H 0.82955 0.39294 0.57205 0.0
H2010 H 0.75027 0.45284 0.49016 0.0
H2011 H 0.75233 0.46112 0.54176 0.0
H2012 H 0.85465 0.43072 0.51751 0.0
H2013 H 0.81788 0.38884 0.5178 0.0
H2014 H 0.87206 0.41201 0.50985 0.0
H2015 H 0.83589 0.37084 0.50998 0.0
H2016 H 0.83656 0.44035 0.49932 0.0
H2017 H 0.79849 0.46001 0.48473 0.0
H2018 H 0.85208 0.45377 0.47989 0.0
H2019 H 0.81473 0.47329 0.46566 0.0
H2020 H 0.788 0.3791 0.45563 0.0
H2021 H 0.83777 0.39485 0.46054 0.0
H2022 H 0.87074 0.4655 0.55147 0.0
H2023 H 0.85344 0.4961 0.5225 0.0
Li2024 Li 0.65403 0.51027 0.28112 0.0
Li2025 Li 0.67654 0.52799 0.26798 0.0
Li2026 Li 0.6538 0.50817 0.24929 0.0
Li2027 Li 0.67395 0.49457 0.26428 0.0
C2028 C 0.64234 0.53555 0.26809 0.0
N2029 N 0.61885 0.55223 0.27033 0.0
C2030 C 0.64542 0.55198 0.27549 0.0
C2031 C 0.62734 0.52759 0.26182 0.0
C2032 C 0.63337 0.5602 0.27651 0.0
C2033 C 0.61561 0.53625 0.26307 0.0
C2034 C 0.68658 0.51897 0.29826 0.0
C2035 C 0.70878 0.5193 0.31578 0.0
N2036 N 0.70482 0.53107 0.32663 0.0
C2037 C 0.68274 0.53109 0.30953 0.0
C2038 C 0.69969 0.51302 0.30135 0.0
C2039 C 0.69211 0.53704 0.32383 0.0
C2040 C 0.64545 0.5023 0.31336 0.0
N2041 N 0.64239 0.51119 0.3021 0.0
C2042 C 0.62509 0.52252 0.31988 0.0
C2043 C 0.63228 0.52118 0.30532 0.0
C2044 C 0.62806 0.51358 0.33184 0.0
C2045 C 0.63848 0.50327 0.32808 0.0
H2046 H 0.65355 0.4945 0.3111 0.0
H2047 H 0.62975 0.52836 0.29665 0.0
C2048 C 0.68399 0.56044 0.25999 0.0
N2049 N 0.68958 0.55111 0.2694 0.0
C2050 C 0.69145 0.5769 0.26027 0.0
C2051 C 0.71074 0.57428 0.27975 0.0
C2052 C 0.70282 0.55782 0.27919 0.0
C2053 C 0.70509 0.58431 0.27029 0.0
H2054 H 0.67351 0.55513 0.25224 0.0
H2055 H 0.70723 0.5505 0.28673 0.0
C2056 C 0.63736 0.47798 0.25691 0.0
N2057 N 0.61158 0.45396 0.24444 0.0
C2058 C 0.63885 0.46431 0.24599 0.0
C2059 C 0.6228 0.47945 0.26154 0.0
C2060 C 0.62566 0.45229 0.23981 0.0
C2061 C 0.60989 0.46717 0.25508 0.0
C2062 C 0.68263 0.50704 0.23401 0.0
C2063 C 0.67526 0.49298 0.22317 0.0
C2064 C 0.69581 0.51726 0.23006 0.0
C2065 C 0.68126 0.48933 0.20851 0.0
C2066 C 0.70148 0.51315 0.21529 0.0
N2067 N 0.69415 0.4994 0.20491 0.0
C2068 C 0.64273 0.52421 0.22383 0.0
C2069 C 0.63328 0.49579 0.21706 0.0
C2070 C 0.63549 0.52649 0.2094 0.0
N2071 N 0.64164 0.50904 0.22765 0.0
C2072 C 0.62588 0.49754 0.20241 0.0
C2073 C 0.62678 0.51312 0.19812 0.0
H2074 H 0.64942 0.53478 0.232 0.0
H2075 H 0.63234 0.48369 0.21983 0.0
C2076 C 0.68682 0.46806 0.2773 0.0
N2077 N 0.68583 0.47502 0.26402 0.0
C2078 C 0.69457 0.45502 0.27773 0.0
C2079 C 0.70042 0.45592 0.25084 0.0
C2080 C 0.69259 0.46898 0.25091 0.0
C2081 C 0.7017 0.44842 0.26438 0.0
H2082 H 0.68162 0.47263 0.28782 0.0
H2083 H 0.69196 0.47422 0.24026 0.0
O2084 O 0.65393 0.52726 0.267 0.0
O2085 O 0.67745 0.51281 0.28432 0.0
O2086 O 0.65012 0.48981 0.26319 0.0
O2087 O 0.67706 0.51069 0.24849 0.0
H2088 H 0.65698 0.55827 0.28046 0.0
H2089 H 0.62479 0.51488 0.25603 0.0
H2090 H 0.63557 0.57291 0.28223 0.0
H2091 H 0.60394 0.53025 0.25827 0.0
H2092 H 0.71895 0.51481 0.31836 0.0
H2093 H 0.67261 0.53581 0.30727 0.0
H2094 H 0.7028 0.50364 0.29271 0.0
H2095 H 0.68928 0.54639 0.3327 0.0
H2096 H 0.6171 0.53051 0.32159 0.0
H2097 H 0.6416 0.49616 0.33659 0.0
H2098 H 0.68656 0.58369 0.25249 0.0
H2099 H 0.72105 0.57916 0.28784 0.0
H2100 H 0.65008 0.463 0.24235 0.0
H2101 H 0.62151 0.48994 0.27008 0.0
H2102 H 0.62662 0.44163 0.23134 0.0
H2103 H 0.59854 0.46812 0.25856 0.0
H2104 H 0.66504 0.48496 0.2261 0.0
H2105 H 0.70163 0.52818 0.23837 0.0
H2106 H 0.6757 0.47848 0.2 0.0
H2107 H 0.71172 0.5209 0.21209 0.0
H2108 H 0.63706 0.5388 0.20705 0.0
H2109 H 0.61932 0.48664 0.1946 0.0
H2110 H 0.69508 0.45035 0.28873 0.0
H2111 H 0.70526 0.45166 0.23996 0.0
Eu2112 Eu 0.02716 0.02814 0.0082 0.0
C2113 C 0.07553 0.08661 0.04914 0.0
C2114 C 0.08155 0.10584 0.03122 0.0
C2115 C 0.08455 0.11567 0.05987 0.0
C2116 C 0.07618 0.08972 0.03379 0.0
C2117 C 0.08015 0.0995 0.06238 0.0
C2118 C 0.08527 0.11883 0.04431 0.0
C2119 C 0.07785 0.07933 0.07945 0.0
N2120 N 0.07168 0.07084 0.05114 0.0
C2121 C 0.07348 0.06699 0.06596 0.0
C2122 C 0.08093 0.09568 0.07768 0.0
Eu2123 Eu 0.0646 0.05041 0.02787 0.0
N2124 N 0.07278 0.07686 0.02142 0.0
C2125 C 0.07569 0.07923 0.00628 0.0
C2126 C 0.08376 0.10835 0.01564 0.0
C2127 C 0.08094 0.09497 0.00314 0.0
H2128 H 0.07116 0.05434 0.06736 0.0
H2129 H 0.0829 0.09675 0.99107 0.0
H2130 H 0.08924 0.1313 0.04254 0.0
H2131 H 0.07886 0.07622 0.09119 0.0
H2132 H 0.07365 0.06912 0.9964 0.0
H2133 H 0.00918 0.9803 0.04344 0.0
H2134 H 0.08819 0.12049 0.01322 0.0
H2135 H 0.0197 0.02446 0.96867 0.0
H2136 H 0.01661 0.00835 0.03855 0.0
H2137 H 0.01407 0.00287 0.94449 0.0
H2138 H 0.08797 0.12574 0.06988 0.0
H2139 H 0.00717 0.95691 0.02132 0.0
H2140 H 0.00789 0.94678 0.99201 0.0
H2141 H 0.08445 0.10523 0.08814 0.0
H2142 H 0.00919 0.95296 0.96487 0.0
N2143 N 0.01956 1.00126 0.01389 0.0
C2144 C 0.01588 0.99841 0.0287 0.0
C2145 C 0.01063 0.96927 0.01909 0.0
C2146 C 0.01327 0.97222 0.00371 0.0
C2147 C 0.01164 0.98243 0.03157 0.0
C2148 C 0.01753 0.98858 0.00144 0.0
H2149 H 0.01107 0.97385 0.947 0.0
N2150 N 0.02061 0.00787 0.98459 0.0
C2151 C 0.01529 0.99964 0.95615 0.0
C2152 C 0.01814 0.99201 0.98625 0.0
C2153 C 0.01842 0.01181 0.96986 0.0
C2154 C 0.01368 0.98328 0.95761 0.0
C2155 C 0.0147 0.97925 0.97282 0.0
O2156 O 0.00842 0.03604 0.99647 0.0
O2157 O 0.04246 0.05313 0.0164 0.0
O2158 O 0.04728 0.05595 0.04632 0.0
O2159 O 0.02544 0.03587 0.03559 0.0
O2160 O 0.03148 0.04814 0.99356 0.0
O2161 O 0.00534 0.02774 0.0189 0.0
O2162 O 0.08206 0.04052 0.03923 0.0
O2163 O 0.04934 0.0254 0.01958 0.0
O2164 O 0.04415 0.0239 0.98917 0.0
O2165 O 0.06695 0.042 0.00075 0.0
O2166 O 0.05958 0.03075 0.04283 0.0
O2167 O 0.08749 0.05232 0.01901 0.0
C2168 C 0.04041 0.05924 0.00407 0.0
C2169 C 0.98316 0.02422 0.00136 0.0
C2170 C 0.95617 0.02544 0.99768 0.0
C2171 C 0.97156 0.03301 0.00308 0.0
C2172 C 0.95251 0.00879 0.99057 0.0
C2173 C 0.97945 0.00765 0.99419 0.0
C2174 C 0.96414 0.99998 0.98882 0.0
C2175 C 0.03318 0.04727 0.04766 0.0
C2176 C 0.99897 0.03277 0.0072 0.0
C2177 C 0.01165 0.96293 0.97503 0.0
C2178 C 0.01092 0.95942 0.99047 0.0
C2179 C 0.05105 0.01949 0.03212 0.0
C2180 C 0.10822 0.05184 0.03732 0.0
C2181 C 0.1197 0.04362 0.03243 0.0
C2182 C 0.13454 0.04806 0.04056 0.0
C2183 C 0.13778 0.06142 0.0534 0.0
C2184 C 0.11167 0.06524 0.04995 0.0
C2185 C 0.12646 0.07004 0.05791 0.0
C2186 C 0.05865 0.03163 0.98832 0.0
C2187 C 0.09252 0.04511 0.02983 0.0
H2188 H 0.97454 0.04577 0.00886 0.0
H2189 H 0.94074 1.00266 0.98622 0.0
H2190 H 0.98833 1.0007 0.9928 0.0
H2191 H 0.96127 0.98719 0.98327 0.0
H2192 H 0.11688 0.03356 0.02235 0.0
H2193 H 0.14894 0.06506 0.06021 0.0
H2194 H 0.10296 0.0718 0.05381 0.0
H2195 H 0.12906 0.08026 0.06781 0.0
Eu2196 Eu 0.3038 0.77948 0.24969 0.0
C2197 C 0.2859 0.83613 0.29675 0.0
C2198 C 0.31067 0.85068 0.31029 0.0
C2199 C 0.28957 0.86459 0.30989 0.0
C2200 C 0.30087 0.83615 0.30168 0.0
C2201 C 0.28011 0.85042 0.30068 0.0
C2202 C 0.30481 0.86468 0.31477 0.0
C2203 C 0.25583 0.83564 0.28655 0.0
N2204 N 0.27709 0.82229 0.28774 0.0
C2205 C 0.26198 0.82176 0.2832 0.0
C2206 C 0.26495 0.85008 0.29529 0.0
Eu2207 Eu 0.28701 0.79809 0.2849 0.0
N2208 N 0.30621 0.82241 0.29697 0.0
C2209 C 0.32183 0.82346 0.29872 0.0
C2210 C 0.32625 0.85099 0.31353 0.0
C2211 C 0.33192 0.83745 0.30733 0.0
H2212 H 0.25436 0.81053 0.27724 0.0
H2213 H 0.34417 0.83791 0.30878 0.0
H2214 H 0.31213 0.87584 0.32152 0.0
H2215 H 0.24393 0.83507 0.28266 0.0
H2216 H 0.32701 0.81411 0.29283 0.0
H2217 H 0.24692 0.74096 0.22328 0.0
H2218 H 0.33413 0.86191 0.32 0.0
H2219 H 0.33459 0.76456 0.261 0.0
H2220 H 0.26374 0.7636 0.24148 0.0
H2221 H 0.34503 0.74042 0.25349 0.0
H2222 H 0.28529 0.87561 0.3131 0.0
H2223 H 0.25744 0.71817 0.20964 0.0
H2224 H 0.27983 0.7047 0.20657 0.0
H2225 H 0.26012 0.86079 0.29801 0.0
H2226 H 0.3065 0.70438 0.21522 0.0
N2227 N 0.28461 0.75571 0.23663 0.0
C2228 C 0.26901 0.75468 0.23481 0.0
C2229 C 0.2651 0.72852 0.21728 0.0
C2230 C 0.28064 0.72865 0.2206 0.0
C2231 C 0.25916 0.74138 0.22486 0.0
C2232 C 0.2901 0.7424 0.23075 0.0
H2233 H 0.33036 0.71702 0.23359 0.0
N2234 N 0.31294 0.75473 0.24705 0.0
C2235 C 0.33362 0.74059 0.2486 0.0
C2236 C 0.30477 0.74189 0.23618 0.0
C2237 C 0.32735 0.75422 0.25316 0.0
C2238 C 0.32539 0.72749 0.23727 0.0
C2239 C 0.31077 0.72799 0.23093 0.0
O2240 O 0.32833 0.78702 0.24759 0.0
O2241 O 0.30398 0.80196 0.26732 0.0
O2242 O 0.27278 0.79858 0.2613 0.0
O2243 O 0.28308 0.78674 0.23844 0.0
O2244 O 0.30493 0.80466 0.24355 0.0
O2245 O 0.31245 0.77968 0.22614 0.0
O2246 O 0.2628 0.78855 0.28729 0.0
O2247 O 0.28685 0.7755 0.26729 0.0
O2248 O 0.31826 0.78019 0.2733 0.0
O2249 O 0.3077 0.79099 0.29639 0.0
O2250 O 0.28649 0.77307 0.29114 0.0
O2251 O 0.27852 0.79943 0.3086 0.0
C2252 C 0.30513 0.81213 0.25805 0.0
C2253 C 0.33519 0.80066 0.2264 0.0
C2254 C 0.33672 0.82106 0.20926 0.0
C2255 C 0.32867 0.80685 0.21408 0.0
C2256 C 0.35136 0.82904 0.21686 0.0
C2257 C 0.34997 0.80868 0.23365 0.0
C2258 C 0.35795 0.82282 0.22894 0.0
C2259 C 0.27258 0.79396 0.24545 0.0
C2260 C 0.32667 0.7862 0.23217 0.0
C2261 C 0.30195 0.71497 0.21964 0.0
C2262 C 0.28681 0.71519 0.21465 0.0
C2263 C 0.2861 0.76544 0.27667 0.0
C2264 C 0.2564 0.77848 0.3106 0.0
C2265 C 0.26417 0.77184 0.32169 0.0
C2266 C 0.25608 0.75914 0.32871 0.0
C2267 C 0.24017 0.75309 0.32442 0.0
C2268 C 0.24051 0.77235 0.30657 0.0
C2269 C 0.23247 0.75968 0.31341 0.0
C2270 C 0.31842 0.78434 0.28913 0.0
C2271 C 0.26448 0.79164 0.30287 0.0
H2272 H 0.31728 0.80081 0.20838 0.0
H2273 H 0.35785 0.83991 0.21322 0.0
H2274 H 0.35531 0.80408 0.24309 0.0
H2275 H 0.36929 0.82895 0.23465 0.0
H2276 H 0.27646 0.77643 0.32477 0.0
H2277 H 0.23361 0.7435 0.32984 0.0
H2278 H 0.23432 0.77736 0.29808 0.0
H2279 H 0.22021 0.75503 0.31025 0.0
Eu2280 Eu 0.56618 0.04246 0.51174 0.0
C2281 C 0.50887 0.01011 0.54375 0.0
C2282 C 0.49686 0.98553 0.52482 0.0
C2283 C 0.49476 0.9863 0.55324 0.0
C2284 C 0.50575 1.00172 0.52816 0.0
C2285 C 0.50313 1.00262 0.55644 0.0
C2286 C 0.49166 0.97776 0.53746 0.0
C2287 C 0.51339 0.02831 0.57437 0.0
N2288 N 0.51695 0.02587 0.54643 0.0
C2289 C 0.51882 0.03521 0.56139 0.0
C2290 C 0.50567 0.01188 0.57192 0.0
Eu2291 Eu 0.52619 0.03643 0.52388 0.0
N2292 N 0.51082 0.00962 0.51622 0.0
C2293 C 0.5065 1.00247 0.50063 0.0
C2294 C 0.49316 0.97778 0.50886 0.0
C2295 C 0.49782 0.98638 0.49671 0.0
H2296 H 0.52481 0.04789 0.56338 0.0
H2297 H 0.49478 0.98061 0.48432 0.0
H2298 H 0.48493 0.96529 0.53513 0.0
H2299 H 0.51518 0.03565 0.58625 0.0
H2300 H 0.5101 0.00897 0.49115 0.0
H2301 H 0.59773 0.09764 0.5522 0.0
H2302 H 0.48642 0.96533 0.50579 0.0
H2303 H 0.56808 0.03161 0.47232 0.0
H2304 H 0.58228 0.0694 0.54488 0.0
H2305 H 0.57793 0.04423 0.44973 0.0
H2306 H 0.49037 0.98029 0.56285 0.0
H2307 H 0.60635 0.11333 0.53111 0.0
H2308 H 0.60805 0.11391 0.50187 0.0
H2309 H 0.50145 0.00658 0.58199 0.0
H2310 H 0.60273 0.09936 0.47399 0.0
N2311 N 0.58174 0.06917 0.51987 0.0
C2312 C 0.58599 0.07605 0.53554 0.0
C2313 C 0.59956 0.10092 0.52782 0.0
C2314 C 0.59591 0.09346 0.51177 0.0
C2315 C 0.59475 0.09209 0.53975 0.0
C2316 C 0.58696 0.07731 0.50814 0.0
H2317 H 0.59171 0.07331 0.45445 0.0
N2318 N 0.57589 0.05342 0.48956 0.0
C2319 C 0.57965 0.05141 0.46169 0.0
C2320 C 0.58395 0.06917 0.49248 0.0
C2321 C 0.57412 0.04429 0.47451 0.0
C2322 C 0.58739 0.06784 0.4644 0.0
C2323 C 0.58982 0.07688 0.47997 0.0
O2324 O 0.57883 0.02376 0.50318 0.0
O2325 O 0.54482 0.02434 0.51466 0.0
O2326 O 0.54036 0.02711 0.5413 0.0
O2327 O 0.56481 0.04231 0.53836 0.0
O2328 O 0.55571 0.01898 0.49431 0.0
O2329 O 0.58698 0.04045 0.5254 0.0
O2330 O 0.51394 0.05569 0.53159 0.0
O2331 O 0.5475 0.05447 0.52079 0.0
O2332 O 0.55197 0.0517 0.4943 0.0
O2333 O 0.52751 0.03651 0.49725 0.0
O2334 O 0.53666 0.06011 0.5411 0.0
O2335 O 0.50444 0.03717 0.51098 0.0
C2336 C 0.54441 0.01365 0.50231 0.0
C2337 C 0.60558 0.02998 0.51038 0.0
C2338 C 0.62888 0.01902 0.50791 0.0
C2339 C 0.61395 0.0182 0.5131 0.0
C2340 C 0.6353 0.03192 0.50018 0.0
C2341 C 0.61229 0.04271 0.5027 0.0
C2342 C 0.62706 0.04366 0.49765 0.0
C2343 C 0.55507 0.03318 0.54627 0.0
C2344 C 0.58965 0.02852 0.51491 0.0
C2345 C 0.59824 0.09318 0.48345 0.0
C2346 C 0.60126 0.10146 0.49932 0.0
C2347 C 0.54795 0.0653 0.53302 0.0
C2348 C 0.48691 0.04923 0.52647 0.0
C2349 C 0.47728 0.05891 0.52127 0.0
C2350 C 0.46289 0.05913 0.52759 0.0
C2351 C 0.45856 0.04962 0.53934 0.0
C2352 C 0.48203 0.03962 0.53787 0.0
C2353 C 0.46798 0.03988 0.5443 0.0
C2354 C 0.53728 0.04555 0.48929 0.0
C2355 C 0.50239 0.04994 0.52074 0.0
H2356 H 0.60873 0.00826 0.5189 0.0
H2357 H 0.6468 0.03306 0.49624 0.0
H2358 H 0.60607 0.05186 0.50053 0.0
H2359 H 0.63216 0.05353 0.49172 0.0
H2360 H 0.48102 0.06618 0.51231 0.0
H2361 H 0.44793 0.04981 0.54495 0.0
H2362 H 0.48918 0.03211 0.54201 0.0
H2363 H 0.46444 0.03263 0.5533 0.0
Eu2364 Eu 0.27623 0.29428 0.76596 0.0
C2365 C 0.32694 0.26471 0.79512 0.0
C2366 C 0.33656 0.28416 0.81948 0.0
C2367 C 0.33699 0.25552 0.81815 0.0
C2368 C 0.32972 0.28049 0.80364 0.0
C2369 C 0.33105 0.25214 0.80208 0.0
C2370 C 0.33971 0.2715 0.82686 0.0
C2371 C 0.32502 0.23445 0.77622 0.0
N2372 N 0.32144 0.26195 0.77957 0.0
C2373 C 0.32111 0.24732 0.76987 0.0
C2374 C 0.32973 0.23677 0.79247 0.0
Eu2375 Eu 0.31461 0.28412 0.76969 0.0
N2376 N 0.3269 0.29246 0.79601 0.0
C2377 C 0.33198 0.30851 0.80303 0.0
C2378 C 0.34068 0.30053 0.82717 0.0
C2379 C 0.33867 0.31278 0.81878 0.0
H2380 H 0.31739 0.24547 0.75731 0.0
H2381 H 0.34221 0.32551 0.82446 0.0
H2382 H 0.34479 0.27406 0.83908 0.0
H2383 H 0.32436 0.22275 0.76859 0.0
H2384 H 0.33044 0.31812 0.79676 0.0
H2385 H 0.24771 0.25155 0.71228 0.0
H2386 H 0.34592 0.30386 0.83935 0.0
H2387 H 0.27369 0.33311 0.77744 0.0
H2388 H 0.26038 0.25967 0.73956 0.0
H2389 H 0.26655 0.35545 0.76563 0.0
H2390 H 0.34004 0.24598 0.82378 0.0
H2391 H 0.243 0.27262 0.69712 0.0
H2392 H 0.24434 0.30227 0.6965 0.0
H2393 H 0.33282 0.22681 0.79735 0.0
H2394 H 0.24949 0.33068 0.71106 0.0
N2395 N 0.26351 0.28524 0.73984 0.0
C2396 C 0.2585 0.26907 0.73317 0.0
C2397 C 0.24877 0.2763 0.70906 0.0
C2398 C 0.25307 0.2928 0.71629 0.0
C2399 C 0.2513 0.26437 0.71763 0.0
C2400 C 0.26034 0.29691 0.73197 0.0
H2401 H 0.25739 0.35056 0.73698 0.0
N2402 N 0.26909 0.31603 0.75556 0.0
C2403 C 0.26567 0.34356 0.75828 0.0
C2404 C 0.26326 0.31285 0.7401 0.0
C2405 C 0.26968 0.3309 0.76493 0.0
C2406 C 0.26057 0.34076 0.74209 0.0
C2407 C 0.25899 0.32517 0.73286 0.0
O2408 O 0.26238 0.30192 0.78523 0.0
O2409 O 0.29499 0.2909 0.78263 0.0
O2410 O 0.29728 0.26207 0.77546 0.0
O2411 O 0.27379 0.26647 0.76563 0.0
O2412 O 0.28612 0.31155 0.78884 0.0
O2413 O 0.25323 0.2797 0.76848 0.0
O2414 O 0.32858 0.27721 0.75025 0.0
O2415 O 0.29586 0.2876 0.75309 0.0
O2416 O 0.29366 0.31622 0.76004 0.0
O2417 O 0.31703 0.31197 0.77034 0.0
O2418 O 0.30483 0.26708 0.74661 0.0
O2419 O 0.3379 0.29856 0.76801 0.0
C2420 C 0.29562 0.30333 0.79335 0.0
C2421 C 0.23518 0.29404 0.78045 0.0
C2422 C 0.21074 0.29552 0.79238 0.0
C2423 C 0.22493 0.29043 0.79224 0.0
C2424 C 0.20699 0.30399 0.78048 0.0
C2425 C 0.23092 0.30231 0.76866 0.0
C2426 C 0.21695 0.30725 0.7687 0.0
C2427 C 0.28221 0.25692 0.77104 0.0
C2428 C 0.25053 0.2898 0.78075 0.0
C2429 C 0.25266 0.32134 0.7169 0.0
C2430 C 0.24971 0.30517 0.70862 0.0
C2431 C 0.29525 0.27529 0.74225 0.0
C2432 C 0.35574 0.28418 0.75566 0.0
C2433 C 0.36674 0.28874 0.7448 0.0
C2434 C 0.38098 0.28368 0.745 0.0
C2435 C 0.38359 0.27362 0.75593 0.0
C2436 C 0.3591 0.27463 0.76666 0.0
C2437 C 0.37284 0.26927 0.76667 0.0
C2438 C 0.30867 0.32146 0.76471 0.0
C2439 C 0.34062 0.28894 0.75539 0.0
H2440 H 0.2281 0.28404 0.80142 0.0
H2441 H 0.1962 0.30796 0.78018 0.0
H2442 H 0.23845 0.30505 0.75945 0.0
H2443 H 0.21382 0.31369 0.75957 0.0
H2444 H 0.3643 0.29633 0.73643 0.0
H2445 H 0.39399 0.26893 0.75617 0.0
H2446 H 0.35107 0.27119 0.77521 0.0
H2447 H 0.37516 0.26167 0.77506 0.0
Eu2448 Eu 0.0421 0.05837 0.52767 0.0
C2449 C 0.06547 0.01035 0.4766 0.0
C2450 C 0.0464 0.00523 0.454 0.0
C2451 C 0.07274 0.00315 0.44963 0.0
C2452 C 0.05058 0.00965 0.47059 0.0
C2453 C 0.07663 0.00671 0.4662 0.0
C2454 C 0.05765 1.00242 0.44354 0.0
C2455 C 0.0942 0.00881 0.48934 0.0
N2456 N 0.06881 0.01361 0.49268 0.0
C2457 C 0.08276 0.01229 0.49917 0.0
C2458 C 0.09121 0.00624 0.47278 0.0
Eu2459 Eu 0.04892 0.02007 0.50845 0.0
N2460 N 0.03993 0.01216 0.48102 0.0
C2461 C 0.02465 0.00897 0.47576 0.0
C2462 C 0.03091 0.00313 0.44847 0.0
C2463 C 0.01994 0.00471 0.45943 0.0
H2464 H 0.08524 0.01413 0.51192 0.0
H2465 H 0.00787 0.00268 0.45532 0.0
H2466 H 0.05468 0.99917 0.43075 0.0
H2467 H 0.10532 0.00809 0.49454 0.0
H2468 H 0.01604 0.01008 0.4841 0.0
H2469 H 0.08601 0.07782 0.57842 0.0
H2470 H 0.02723 0.99977 0.43582 0.0
H2471 H 0.00512 0.06176 0.52648 0.0
H2472 H 0.07626 0.06969 0.55008 0.0
H2473 H 0.98571 0.067 0.54518 0.0
H2474 H 0.08119 1.00048 0.44145 0.0
H2475 H 0.06781 0.08049 0.5992 0.0
H2476 H 0.0406 0.08003 0.60602 0.0
H2477 H 0.10008 0.00347 0.46519 0.0
H2478 H 0.01332 0.07725 0.59698 0.0
N2479 N 0.05262 0.06709 0.55463 0.0
C2480 C 0.06813 0.07075 0.55895 0.0
C2481 C 0.06343 0.07682 0.58674 0.0
C2482 C 0.04764 0.07408 0.58217 0.0
C2483 C 0.07374 0.07539 0.57505 0.0
C2484 C 0.04254 0.0693 0.56579 0.0
H2485 H 0.99281 0.07268 0.57432 0.0
N2486 N 0.02297 0.06404 0.54482 0.0
C2487 C 0.99733 0.06719 0.54972 0.0
C2488 C 0.02724 0.06777 0.56072 0.0
C2489 C 0.00838 0.06425 0.53915 0.0
C2490 C 1.00138 0.07034 0.56616 0.0
C2491 C 0.01654 0.07091 0.57185 0.0
O2492 O 0.03469 0.07742 0.51712 0.0
O2493 O 0.04185 0.04285 0.50313 0.0
O2494 O 0.06841 0.03892 0.50193 0.0
O2495 O 0.06729 0.06062 0.52209 0.0
O2496 O 0.02306 0.05298 0.50747 0.0
O2497 O 0.05722 0.08269 0.53008 0.0
O2498 O 0.05252 1.00145 0.5221 0.0
O2499 O 0.04924 0.03576 0.53286 0.0
O2500 O 0.02361 0.03878 0.53472 0.0
O2501 O 0.02359 0.0186 0.51284 0.0
O2502 O 0.06799 0.02558 0.52873 0.0
O2503 O 0.03476 0.99508 0.50261 0.0
C2504 C 0.02916 0.04464 0.49653 0.0
C2505 C 0.04557 0.10497 0.52807 0.0
C2506 C 0.04698 0.13261 0.52302 0.0
C2507 C 0.04909 0.11665 0.51824 0.0
C2508 C 0.04121 0.13668 0.53789 0.0
C2509 C 0.03989 0.10918 0.54285 0.0
C2510 C 0.03773 0.12502 0.54773 0.0
C2511 C 0.07442 0.05355 0.51054 0.0
C2512 C 0.04733 0.08834 0.52212 0.0
C2513 C 0.0214 0.07494 0.58823 0.0
C2514 C 0.03693 0.07651 0.59338 0.0
C2515 C 0.06199 0.03424 0.53953 0.0
C2516 C 0.04601 0.97397 0.50941 0.0
C2517 C 0.04159 0.96218 0.51898 0.0
C2518 C 0.04648 0.94738 0.51623 0.0
C2519 C 0.05571 0.94441 0.50364 0.0
C2520 C 0.05504 0.97077 0.49675 0.0
C2521 C 0.05984 0.95601 0.49387 0.0
C2522 C 0.017 0.02481 0.52527 0.0
C2523 C 0.04192 0.98987 0.51365 0.0
H2524 H 0.05318 0.11315 0.50667 0.0
H2525 H 0.03956 0.1489 0.54199 0.0
H2526 H 0.03703 0.10024 0.55052 0.0
H2527 H 0.03333 0.12827 0.55915 0.0
H2528 H 0.03475 0.96473 0.52889 0.0
H2529 H 0.05962 0.93308 0.5013 0.0
H2530 H 0.05853 0.97971 0.48923 0.0
H2531 H 0.0669 0.95361 0.48415 0.0
Eu2532 Eu 0.31287 0.80319 0.76429 0.0
C2533 C 0.27312 0.75123 0.79625 0.0
C2534 C 0.27921 0.72566 0.78433 0.0
C2535 C 0.27109 0.72908 0.81126 0.0
C2536 C 0.27805 0.7418 0.78355 0.0
C2537 C 0.26936 0.7449 0.81016 0.0
C2538 C 0.27601 0.71948 0.79836 0.0
C2539 C 0.26146 0.76985 0.82046 0.0
N2540 N 0.27143 0.7664 0.79475 0.0
C2541 C 0.26524 0.77556 0.80639 0.0
C2542 C 0.26367 0.75451 0.82242 0.0
Eu2543 Eu 0.27867 0.77545 0.77083 0.0
N2544 N 0.28089 0.74807 0.7701 0.0
C2545 C 0.28392 0.73846 0.75664 0.0
C2546 C 0.28315 0.71607 0.77084 0.0
C2547 C 0.2853 0.72243 0.75686 0.0
H2548 H 0.26355 0.78746 0.80502 0.0
H2549 H 0.28808 0.71502 0.74626 0.0
H2550 H 0.27696 0.70717 0.79923 0.0
H2551 H 0.25686 0.77729 0.82977 0.0
H2552 H 0.28565 0.7432 0.74576 0.0
H2553 H 0.30361 0.864 0.78752 0.0
H2554 H 0.28421 0.70364 0.77097 0.0
H2555 H 0.328 0.79035 0.73019 0.0
H2556 H 0.30584 0.83588 0.78862 0.0
H2557 H 0.33487 0.79997 0.70529 0.0
H2558 H 0.26836 0.72404 0.82189 0.0
H2559 H 0.308 0.87495 0.76265 0.0
H2560 H 0.31562 0.87091 0.73455 0.0
H2561 H 0.26067 0.75009 0.83331 0.0
H2562 H 0.32425 0.85358 0.71226 0.0
N2563 N 0.31102 0.83061 0.76446 0.0
C2564 C 0.30781 0.84043 0.77767 0.0
C2565 C 0.30898 0.86255 0.76305 0.0
C2566 C 0.31307 0.85273 0.7498 0.0
C2567 C 0.30654 0.85643 0.77712 0.0
C2568 C 0.31412 0.83663 0.75093 0.0
H2569 H 0.33158 0.82721 0.70131 0.0
N2570 N 0.32052 0.81177 0.74022 0.0
C2571 C 0.33041 0.80768 0.71451 0.0
C2572 C 0.31907 0.82694 0.73845 0.0
C2573 C 0.32652 0.80228 0.72869 0.0
C2574 C 0.32851 0.82304 0.71229 0.0
C2575 C 0.32295 0.83297 0.7244 0.0
O2576 O 0.3369 0.80115 0.76555 0.0
O2577 O 0.30446 0.77795 0.77058 0.0
O2578 O 0.2936 0.78239 0.79405 0.0
O2579 O 0.3066 0.80767 0.78994 0.0
O2580 O 0.3199 0.77952 0.75362 0.0
O2581 O 0.32974 0.81941 0.78264 0.0
O2582 O 0.25448 0.77693 0.77035 0.0
O2583 O 0.28708 0.80062 0.76462 0.0
O2584 O 0.29782 0.79679 0.74121 0.0
O2585 O 0.28458 0.77147 0.74498 0.0
O2586 O 0.27137 0.79909 0.78129 0.0
O2587 O 0.26168 0.7594 0.75249 0.0
C2588 C 0.31238 0.76956 0.7618 0.0
C2589 C 0.35578 0.82474 0.77644 0.0
C2590 C 0.38384 0.83188 0.78151 0.0
C2591 C 0.36947 0.82171 0.78283 0.0
C2592 C 0.38422 0.84535 0.77383 0.0
C2593 C 0.35634 0.83816 0.7688 0.0
C2594 C 0.37054 0.84846 0.76757 0.0
C2595 C 0.30195 0.79721 0.79946 0.0
C2596 C 0.34122 0.81329 0.7775 0.0
C2597 C 0.3214 0.84877 0.72299 0.0
C2598 C 0.31648 0.85863 0.73567 0.0
C2599 C 0.27908 0.80905 0.77321 0.0
C2600 C 0.23599 0.75296 0.75957 0.0
C2601 C 0.22182 0.75588 0.75442 0.0
C2602 C 0.20788 0.74503 0.75587 0.0
C2603 C 0.2084 0.73105 0.76247 0.0
C2604 C 0.23633 0.739 0.76615 0.0
C2605 C 0.22255 0.72809 0.76756 0.0
C2606 C 0.28924 0.78212 0.73563 0.0
C2607 C 0.25013 0.76496 0.75825 0.0
H2608 H 0.36886 0.81139 0.78888 0.0
H2609 H 0.39509 0.85333 0.77243 0.0
H2610 H 0.34587 0.84063 0.76376 0.0
H2611 H 0.37096 0.85879 0.76161 0.0
H2612 H 0.2217 0.7666 0.74915 0.0
H2613 H 0.19787 0.72252 0.7639 0.0
H2614 H 0.24717 0.73656 0.77019 0.0
H2615 H 0.22284 0.71734 0.77268 0.0
Eu2616 Eu 0.55025 0.02683 0.03695 0.0
C2617 C 0.50954 0.05282 0.98972 0.0
C2618 C 0.49261 0.02738 0.97651 0.0
C2619 C 0.48355 0.05261 0.97922 0.0
C2620 C 0.50699 0.03615 0.98447 0.0
C2621 C 0.49796 0.06131 0.98686 0.0
C2622 C 0.48087 0.03567 0.97409 0.0
C2623 C 0.51607 0.08652 0.99824 0.0
N2624 N 0.5235 0.06084 0.99723 0.0
C2625 C 0.52715 0.07756 0.00078 0.0
C2626 C 0.50132 0.07834 0.99145 0.0
Eu2627 Eu 0.54193 0.04504 0.0012 0.0
N2628 N 0.51853 0.02848 0.98717 0.0
C2629 C 0.51661 0.0121 0.98145 0.0
C2630 C 0.49048 0.01055 0.97114 0.0
C2631 C 0.50258 0.00291 0.97352 0.0
H2632 H 0.53865 0.08398 0.00576 0.0
H2633 H 0.50109 0.9899 0.96933 0.0
H2634 H 0.46974 0.02912 0.96808 0.0
H2635 H 0.51894 0.09973 0.00144 0.0
H2636 H 0.52563 0.00579 0.98331 0.0
H2637 H 0.5826 0.08603 0.07158 0.0
H2638 H 0.4796 0.00338 0.96504 0.0
H2639 H 0.56127 0.99073 0.03191 0.0
H2640 H 0.55999 0.06654 0.05788 0.0
H2641 H 0.58491 0.98044 0.03462 0.0
H2642 H 0.47448 0.0589 0.97703 0.0
H2643 H 0.60751 0.07794 0.07421 0.0
H2644 H 0.62253 0.05621 0.06949 0.0
H2645 H 0.49275 0.0853 0.98943 0.0
H2646 H 0.6233 0.0277 0.05909 0.0
N2647 N 0.57146 0.04691 0.05179 0.0
C2648 C 0.57053 0.06244 0.05853 0.0
C2649 C 0.5975 0.06914 0.06799 0.0
C2650 C 0.59838 0.05316 0.06166 0.0
C2651 C 0.58348 0.07374 0.06652 0.0
C2652 C 0.58501 0.04214 0.05358 0.0
H2653 H 0.60947 0.99951 0.04594 0.0
N2654 N 0.5725 0.01576 0.04 0.0
C2655 C 0.58534 0.99337 0.03806 0.0
C2656 C 0.58554 0.02615 0.04748 0.0
C2657 C 0.572 0.99933 0.03634 0.0
C2658 C 0.59915 0.00416 0.04449 0.0
C2659 C 0.5993 0.02067 0.04968 0.0
O2660 O 0.54237 0.00531 0.04742 0.0
O2661 O 0.53285 0.031 0.01967 0.0
O2662 O 0.53624 0.06138 0.02262 0.0
O2663 O 0.53853 0.04811 0.04444 0.0
O2664 O 0.52782 0.00872 0.02667 0.0
O2665 O 0.54392 0.0298 0.06172 0.0
O2666 O 0.55448 0.06384 0.9893 0.0
O2667 O 0.55954 0.04052 0.01824 0.0
O2668 O 0.55558 0.01028 0.01544 0.0
O2669 O 0.55032 0.02175 0.9932 0.0
O2670 O 0.56292 0.06391 0.01331 0.0
O2671 O 0.54884 0.03849 0.97721 0.0
C2672 C 0.52267 0.01807 0.01832 0.0
C2673 C 0.53555 0.00613 0.07454 0.0
C2674 C 0.52291 0.00652 0.09923 0.0
C2675 C 0.52797 0.01406 0.08641 0.0
C2676 C 0.52568 0.99102 0.10014 0.0
C2677 C 0.53813 0.9906 0.07555 0.0
C2678 C 0.53325 0.98313 0.08834 0.0
C2679 C 0.53517 0.06017 0.03781 0.0
C2680 C 0.54071 0.01397 0.06109 0.0
C2681 C 0.61264 0.03168 0.05741 0.0
C2682 C 0.61219 0.04789 0.06336 0.0
C2683 C 0.56882 0.0542 0.02057 0.0
C2684 C 0.55174 0.05873 0.96112 0.0
C2685 C 0.56148 0.05606 0.94908 0.0
C2686 C 0.55944 0.06122 0.9345 0.0
C2687 C 0.54725 0.06897 0.93206 0.0
C2688 C 0.53958 0.06638 0.95856 0.0
C2689 C 0.53737 0.07148 0.94404 0.0
C2690 C 0.55489 0.01044 -3e-05 0.0
C2691 C 0.55492 0.05359 0.97623 0.0
H2692 H 0.52601 0.02607 0.08566 0.0
H2693 H 0.52177 0.98489 0.10983 0.0
H2694 H 0.544 0.98429 0.06651 0.0
H2695 H 0.53528 0.97116 0.08908 0.0
H2696 H 0.5706 0.04976 0.95109 0.0
H2697 H 0.54544 0.0732 0.92098 0.0
H2698 H 0.53187 0.06846 0.96771 0.0
H2699 H 0.52802 0.07746 0.94209 0.0
Eu2700 Eu 0.30991 0.31425 0.28031 0.0
C2701 C 0.25371 0.26141 0.24506 0.0
C2702 C 0.2365 0.25753 0.26585 0.0
C2703 C 0.22615 0.25077 0.23806 0.0
C2704 C 0.2514 0.26285 0.26107 0.0
C2705 C 0.24114 0.25504 0.23335 0.0
C2706 C 0.22386 0.25182 0.25429 0.0
C2707 C 0.25938 0.25452 0.21333 0.0
N2708 N 0.26839 0.26462 0.24093 0.0
C2709 C 0.27142 0.26026 0.22544 0.0
C2710 C 0.24413 0.25215 0.21728 0.0
Eu2711 Eu 0.28847 0.27326 0.26184 0.0
N2712 N 0.26389 0.2681 0.27192 0.0
C2713 C 0.26226 0.26804 0.28776 0.0
C2714 C 0.23486 0.25733 0.28204 0.0
C2715 C 0.24777 0.26275 0.29306 0.0
H2716 H 0.28323 0.26135 0.22248 0.0
H2717 H 0.2466 0.26266 0.30562 0.0
H2718 H 0.21233 0.24778 0.25776 0.0
H2719 H 0.26187 0.25159 0.20102 0.0
H2720 H 0.27206 0.27201 0.29647 0.0
H2721 H 0.32935 0.36033 0.24355 0.0
H2722 H 0.22372 0.25271 0.28611 0.0
H2723 H 0.33287 0.29799 0.30384 0.0
H2724 H 0.31151 0.34526 0.26006 0.0
H2725 H 0.35962 0.29591 0.30697 0.0
H2726 H 0.21636 0.24592 0.22925 0.0
H2727 H 0.3556 0.35526 0.24138 0.0
H2728 H 0.37607 0.34196 0.25074 0.0
H2729 H 0.23481 0.24731 0.20793 0.0
H2730 H 0.38449 0.3251 0.26863 0.0
N2731 N 0.32689 0.33057 0.26566 0.0
C2732 C 0.32279 0.34262 0.25872 0.0
C2733 C 0.34769 0.34838 0.24833 0.0
C2734 C 0.35241 0.33737 0.25693 0.0
C2735 C 0.3329 0.35129 0.24953 0.0
C2736 C 0.34163 0.32864 0.26575 0.0
H2737 H 0.37863 0.30868 0.29019 0.0
N2738 N 0.33582 0.3113 0.28462 0.0
C2739 C 0.356 0.30228 0.298 0.0
C2740 C 0.34632 0.319 0.27574 0.0
C2741 C 0.34062 0.30344 0.29603 0.0
C2742 C 0.36669 0.30942 0.28845 0.0
C2743 C 0.36196 0.31797 0.2772 0.0
O2744 O 0.30435 0.32338 0.3044 0.0
O2745 O 0.28702 0.29678 0.27704 0.0
O2746 O 0.28552 0.28927 0.24355 0.0
O2747 O 0.30261 0.31435 0.25399 0.0
O2748 O 0.28739 0.32053 0.27326 0.0
O2749 O 0.31901 0.33964 0.29198 0.0
O2750 O 0.29719 0.25327 0.24858 0.0
O2751 O 0.31196 0.28925 0.26977 0.0
O2752 O 0.30725 0.2993 0.29992 0.0
O2753 O 0.29717 0.27239 0.2871 0.0
O2754 O 0.30772 0.27755 0.24597 0.0
O2755 O 0.28525 0.2497 0.26959 0.0
C2756 C 0.27876 0.30631 0.27353 0.0
C2757 C 0.30242 0.35078 0.30905 0.0
C2758 C 0.2867 0.36912 0.30177 0.0
C2759 C 0.2953 0.35726 0.29738 0.0
C2760 C 0.28514 0.37424 0.31807 0.0
C2761 C 0.30073 0.35598 0.32521 0.0
C2762 C 0.29209 0.36766 0.32968 0.0
C2763 C 0.29308 0.30418 0.24234 0.0
C2764 C 0.31136 0.33837 0.30445 0.0
C2765 C 0.37249 0.3259 0.26777 0.0
C2766 C 0.3677 0.3355 0.25758 0.0
C2767 C 0.31803 0.28658 0.25677 0.0
C2768 C 0.2849 0.22634 0.25015 0.0
C2769 C 0.29332 0.21447 0.25138 0.0
C2770 C 0.28699 0.19799 0.24503 0.0
C2771 C 0.27208 0.19345 0.23714 0.0
C2772 C 0.27005 0.22184 0.24216 0.0
C2773 C 0.26372 0.2054 0.23557 0.0
C2774 C 0.30292 0.28349 0.29994 0.0
C2775 C 0.29199 0.24312 0.25784 0.0
H2776 H 0.29638 0.35299 0.28487 0.0
H2777 H 0.27877 0.38353 0.32188 0.0
H2778 H 0.30609 0.351 0.33434 0.0
H2779 H 0.29086 0.3717 0.34219 0.0
H2780 H 0.30467 0.21803 0.25787 0.0
H2781 H 0.26692 0.18073 0.23231 0.0
H2782 H 0.26334 0.23089 0.24118 0.0
H2783 H 0.25223 0.2019 0.22946 0.0
Eu2784 Eu 0.54314 0.55891 0.02804 0.0
C2785 C 0.56263 0.50962 0.97532 0.0
C2786 C 0.54153 0.50325 0.9546 0.0
C2787 C 0.56729 0.50123 0.94762 0.0
C2788 C 0.54725 0.50843 0.9708 0.0
C2789 C 0.57276 0.50568 0.96383 0.0
C2790 C 0.5517 0.50003 0.94301 0.0
C2791 C 0.59261 0.50938 0.98535 0.0
N2792 N 0.5675 0.51372 0.99109 0.0
C2793 C 0.58211 0.51311 0.9963 0.0
C2794 C 0.58797 0.50585 0.96903 0.0
Eu2795 Eu 0.5492 0.52022 0.00891 0.0
N2796 N 0.53769 0.51139 0.98232 0.0
C2797 C 0.5221 0.50821 0.97857 0.0
C2798 C 0.52568 0.50096 0.9506 0.0
C2799 C 0.5159 0.50322 0.96268 0.0
H2800 H 0.58579 0.51588 0.0089 0.0
H2801 H 0.50358 0.50116 0.95976 0.0
H2802 H 0.54754 0.49618 0.9305 0.0
H2803 H 0.60426 0.50925 0.98952 0.0
H2804 H 0.51436 0.50991 0.98773 0.0
H2805 H 0.58725 0.57649 0.07871 0.0
H2806 H 0.52084 0.49704 0.9383 0.0
H2807 H 0.50751 0.56612 0.02713 0.0
H2808 H 0.57738 0.56909 0.05041 0.0
H2809 H 0.48845 0.57245 0.04591 0.0
H2810 H 0.57492 0.49829 0.9386 0.0
H2811 H 0.56924 0.57942 0.09963 0.0
H2812 H 0.54226 0.58021 0.10661 0.0
H2813 H 0.59611 0.50288 0.96057 0.0
H2814 H 0.5153 0.57925 0.09766 0.0
N2815 N 0.55381 0.56706 0.05506 0.0
C2816 C 0.56931 0.57027 0.05932 0.0
C2817 C 0.5648 0.57608 0.08718 0.0
C2818 C 0.54908 0.57405 0.08269 0.0
C2819 C 0.575 0.5745 0.07541 0.0
C2820 C 0.5439 0.56963 0.06631 0.0
H2821 H 0.4952 0.57668 0.07504 0.0
N2822 N 0.52465 0.56606 0.04541 0.0
C2823 C 0.49973 0.57145 0.05041 0.0
C2824 C 0.52881 0.56914 0.06131 0.0
C2825 C 0.51056 0.56787 0.03981 0.0
C2826 C 0.50357 0.57378 0.06684 0.0
C2827 C 0.51837 0.57297 0.07249 0.0
O2828 O 0.53686 0.5783 0.01705 0.0
O2829 O 0.54237 0.54302 0.00359 0.0
O2830 O 0.56796 0.53924 0.00135 0.0
O2831 O 0.5682 0.56021 0.02258 0.0
O2832 O 0.52392 0.55361 0.00804 0.0
O2833 O 0.55906 0.58272 0.03036 0.0
O2834 O 0.55699 0.50107 0.01896 0.0
O2835 O 0.54973 0.53594 0.03335 0.0
O2836 O 0.52309 0.5406 0.03437 0.0
O2837 O 0.52433 0.51784 0.01541 0.0
O2838 O 0.56848 0.52575 0.02893 0.0
O2839 O 0.53392 0.49611 0.00723 0.0
C2840 C 0.52967 0.54486 0.99711 0.0
C2841 C 0.5482 0.60553 0.0288 0.0
C2842 C 0.54906 0.63326 0.02433 0.0
C2843 C 0.5504 0.61714 0.01879 0.0
C2844 C 0.54548 0.63758 0.04015 0.0
C2845 C 0.54456 0.60996 0.0445 0.0
C2846 C 0.54321 0.62596 0.05013 0.0
C2847 C 0.57466 0.55347 0.01032 0.0
C2848 C 0.54962 0.58888 0.02239 0.0
C2849 C 0.5232 0.57645 0.08888 0.0
C2850 C 0.53854 0.57698 0.09397 0.0
C2851 C 0.56244 0.53417 0.03988 0.0
C2852 C 0.54549 0.47361 0.00813 0.0
C2853 C 0.54233 0.46179 0.01785 0.0
C2854 C 0.54405 0.44577 0.01253 0.0
C2855 C 0.54901 0.44177 0.99725 0.0
C2856 C 0.55034 0.46945 0.9929 0.0
C2857 C 0.55209 0.45355 0.98751 0.0
C2858 C 0.5172 0.52567 0.0264 0.0
C2859 C 0.54413 0.49029 0.01453 0.0
H2860 H 0.55337 0.61363 0.00671 0.0
H2861 H 0.54424 0.64986 0.04473 0.0
H2862 H 0.54278 0.6011 0.05235 0.0
H2863 H 0.54039 0.62937 0.06225 0.0
H2864 H 0.53883 0.4652 0.02972 0.0
H2865 H 0.55035 0.4295 0.99277 0.0
H2866 H 0.55285 0.47846 0.98528 0.0
H2867 H 0.55585 0.45035 0.97575 0.0
Eu2868 Eu 0.81264 0.30249 0.26515 0.0
C2869 C 0.77257 0.24855 0.29402 0.0
C2870 C 0.78021 0.22419 0.28121 0.0
C2871 C 0.7713 0.22556 0.30778 0.0
C2872 C 0.77833 0.24024 0.28119 0.0
C2873 C 0.76854 0.24112 0.30726 0.0
C2874 C 0.77714 0.21711 0.29478 0.0
C2875 C 0.75761 0.26409 0.3175 0.0
N2876 N 0.76977 0.26342 0.29299 0.0
C2877 C 0.76171 0.27087 0.30406 0.0
C2878 C 0.76128 0.24927 0.31925 0.0
Eu2879 Eu 0.77785 0.27469 0.27043 0.0
N2880 N 0.78085 0.24732 0.26816 0.0
C2881 C 0.78389 0.23842 0.25425 0.0
C2882 C 0.78446 0.21548 0.26735 0.0
C2883 C 0.786 0.22251 0.25371 0.0
H2884 H 0.75883 0.28231 0.30273 0.0
H2885 H 0.7889 0.21573 0.24279 0.0
H2886 H 0.77871 0.20488 0.29509 0.0
H2887 H 0.75161 0.27027 0.32648 0.0
H2888 H 0.78518 0.24368 0.2436 0.0
H2889 H 0.80215 0.36194 0.29174 0.0
H2890 H 0.78607 0.20314 0.26689 0.0
H2891 H 0.83114 0.29323 0.23275 0.0
H2892 H 0.80451 0.33356 0.29109 0.0
H2893 H 0.84035 0.30539 0.2097 0.0
H2894 H 0.76846 0.21973 0.31794 0.0
H2895 H 0.80739 0.37487 0.2681 0.0
H2896 H 0.81649 0.37312 0.24059 0.0
H2897 H 0.758 0.24398 0.32962 0.0
H2898 H 0.82703 0.35778 0.21829 0.0
N2899 N 0.81039 0.33002 0.26703 0.0
C2900 C 0.80678 0.33894 0.28063 0.0
C2901 C 0.80836 0.36233 0.2677 0.0
C2902 C 0.81307 0.3535 0.25418 0.0
C2903 C 0.80545 0.3551 0.28108 0.0
C2904 C 0.81409 0.33718 0.25425 0.0
H2905 H 0.83629 0.33268 0.20684 0.0
N2906 N 0.82167 0.31328 0.24267 0.0
C2907 C 0.83455 0.312 0.21856 0.0
C2908 C 0.81998 0.32857 0.24171 0.0
C2909 C 0.82932 0.30515 0.23164 0.0
C2910 C 0.83219 0.32739 0.21697 0.0
C2911 C 0.82505 0.33599 0.22874 0.0
O2912 O 0.83658 0.29999 0.26629 0.0
O2913 O 0.80372 0.27711 0.27075 0.0
O2914 O 0.79074 0.28181 0.29474 0.0
O2915 O 0.80725 0.30578 0.29109 0.0
O2916 O 0.81922 0.27887 0.25373 0.0
O2917 O 0.82958 0.31793 0.28387 0.0
O2918 O 0.75384 0.27696 0.26953 0.0
O2919 O 0.78675 0.30012 0.26493 0.0
O2920 O 0.79907 0.29631 0.24103 0.0
O2921 O 0.78357 0.27185 0.24462 0.0
O2922 O 0.77097 0.29821 0.28163 0.0
O2923 O 0.76072 0.25881 0.25217 0.0
C2924 C 0.81162 0.26885 0.2618 0.0
C2925 C 0.85555 0.32343 0.27754 0.0
C2926 C 0.88363 0.33056 0.2822 0.0
C2927 C 0.86936 0.31999 0.28309 0.0
C2928 C 0.88382 0.34472 0.27566 0.0
C2929 C 0.85592 0.33758 0.27107 0.0
C2930 C 0.87003 0.34817 0.27015 0.0
C2931 C 0.80076 0.29566 0.30022 0.0
C2932 C 0.841 0.31187 0.27847 0.0
C2933 C 0.82334 0.35193 0.22823 0.0
C2934 C 0.81733 0.36066 0.24092 0.0
C2935 C 0.77872 0.30836 0.27374 0.0
C2936 C 0.73506 0.25308 0.25926 0.0
C2937 C 0.72102 0.25567 0.25333 0.0
C2938 C 0.707 0.24503 0.25493 0.0
C2939 C 0.7073 0.23164 0.26254 0.0
C2940 C 0.7352 0.23969 0.2668 0.0
C2941 C 0.72134 0.22902 0.26842 0.0
C2942 C 0.78917 0.28235 0.23546 0.0
C2943 C 0.7493 0.26478 0.25767 0.0
H2944 H 0.86894 0.30914 0.28829 0.0
H2945 H 0.89462 0.35302 0.27464 0.0
H2946 H 0.84537 0.34044 0.26677 0.0
H2947 H 0.87029 0.35906 0.26511 0.0
H2948 H 0.72106 0.26593 0.2473 0.0
H2949 H 0.69669 0.22331 0.26411 0.0
H2950 H 0.74594 0.23749 0.27141 0.0
H2951 H 0.72147 0.21872 0.2743 0.0
Eu2952 Eu 0.05283 0.53422 0.53848 0.0
C2953 C 0.01061 0.5548 0.48839 0.0
C2954 C 0.98678 0.53401 0.484 0.0
C2955 C 0.98655 0.56159 0.48014 0.0
C2956 C 0.00279 0.5389 0.48848 0.0
C2957 C 0.00262 0.56616 0.4837 0.0
C2958 C 0.97864 0.54554 0.48029 0.0
C2959 C 0.02719 0.58504 0.48438 0.0
N2960 N 0.02619 0.55883 0.4917 0.0
C2961 C 0.03461 0.57339 0.489 0.0
C2962 C 0.01111 0.58153 0.48202 0.0
Eu2963 Eu 0.03781 0.53798 0.49839 0.0
N2964 N 0.01096 0.52795 0.49199 0.0
C2965 C 0.00403 0.51175 0.49023 0.0
C2966 C 0.9795 0.51754 0.48281 0.0
C2967 C 0.9882 0.50633 0.48575 0.0
H2968 H 0.04704 0.57616 0.4906 0.0
H2969 H 0.98273 0.49352 0.48461 0.0
H2970 H 0.96631 0.54205 0.47703 0.0
H2971 H 0.03388 0.59669 0.4826 0.0
H2972 H 0.01058 0.50293 0.49246 0.0
H2973 H 0.0873 0.59864 0.55277 0.0
H2974 H 0.96728 0.51328 0.4792 0.0
H2975 H 0.0657 0.50035 0.54014 0.0
H2976 H 0.06601 0.57717 0.54026 0.0
H2977 H 0.08898 0.49203 0.5489 0.0
H2978 H 0.9802 0.57021 0.47671 0.0
H2979 H 0.10992 0.59223 0.56593 0.0
H2980 H 0.1238 0.57128 0.57206 0.0
H2981 H 0.0054 0.59055 0.47837 0.0
H2982 H 0.12478 0.54243 0.56994 0.0
N2983 N 0.07435 0.55748 0.548 0.0
C2984 C 0.07477 0.57353 0.54692 0.0
C2985 C 0.1001 0.58244 0.56095 0.0
C2986 C 0.10044 0.56614 0.56089 0.0
C2987 C 0.08734 0.5861 0.55362 0.0
C2988 C 0.08734 0.55377 0.55416 0.0
H2989 H 0.11214 0.51298 0.56092 0.0
N2990 N 0.07568 0.52588 0.54571 0.0
C2991 C 0.08898 0.50489 0.54993 0.0
C2992 C 0.08804 0.53754 0.55284 0.0
C2993 C 0.07584 0.5097 0.54469 0.0
C2994 C 0.10196 0.51672 0.55678 0.0
C2995 C 0.10159 0.53325 0.55845 0.0
O2996 O 0.04243 0.51089 0.54514 0.0
O2997 O 0.03237 0.52739 0.52017 0.0
O2998 O 0.03405 0.55972 0.51603 0.0
O2999 O 0.04447 0.55795 0.5416 0.0
O3000 O 0.02872 0.53626 0.54386 0.0
O3001 O 0.05164 0.53272 0.56377 0.0
O3002 O 0.05466 0.53742 0.48058 0.0
O3003 O 0.05829 0.5388 0.51463 0.0
O3004 O 0.05783 0.51473 0.51896 0.0
O3005 O 0.03796 0.51154 0.49939 0.0
O3006 O 0.06021 0.55747 0.50163 0.0
O3007 O 0.03079 0.52615 0.47353 0.0
C3008 C 0.02228 0.53032 0.5296 0.0
C3009 C 0.04048 0.50742 0.57263 0.0
C3010 C 0.02812 0.50421 0.59711 0.0
C3011 C 0.03303 0.51369 0.58555 0.0
C3012 C 0.03114 0.48847 0.59571 0.0
C3013 C 0.0432 0.49164 0.57127 0.0
C3014 C 0.03864 0.48226 0.58286 0.0
C3015 C 0.03757 0.5653 0.53161 0.0
C3016 C 0.04491 0.51718 0.56033 0.0
C3017 C 0.11434 0.54551 0.56554 0.0
C3018 C 0.11374 0.56192 0.56682 0.0
C3019 C 0.06727 0.55131 0.51185 0.0
C3020 C 0.04516 0.53999 0.45538 0.0
C3021 C 0.05815 0.54089 0.44671 0.0
C3022 C 0.05994 0.55009 0.43447 0.0
C3023 C 0.04865 0.55871 0.43119 0.0
C3024 C 0.03383 0.54843 0.45182 0.0
C3025 C 0.03566 0.55784 0.43984 0.0
C3026 C 0.04938 0.5064 0.50583 0.0
C3027 C 0.04431 0.53108 0.46873 0.0
H3028 H 0.03056 0.52572 0.58623 0.0
H3029 H 0.02775 0.48096 0.60457 0.0
H3030 H 0.0489 0.48662 0.56131 0.0
H3031 H 0.04087 0.47013 0.58186 0.0
H3032 H 0.06696 0.53451 0.44963 0.0
H3033 H 0.04964 0.56574 0.42168 0.0
H3034 H 0.02366 0.54788 0.45832 0.0
H3035 H 0.02694 0.56438 0.43717 0.0
Eu3036 Eu 0.77618 0.79391 0.26632 0.0
C3037 C 0.82833 0.76753 0.29657 0.0
C3038 C 0.83783 0.78862 0.31981 0.0
C3039 C 0.83908 0.76052 0.32055 0.0
C3040 C 0.83083 0.78368 0.30403 0.0
C3041 C 0.83301 0.75589 0.30452 0.0
C3042 C 0.84143 0.77687 0.32821 0.0
C3043 C 0.82747 0.73662 0.27957 0.0
N3044 N 0.82264 0.76351 0.28104 0.0
C3045 C 0.82291 0.74859 0.27223 0.0
C3046 C 0.8322 0.74016 0.29588 0.0
Eu3047 Eu 0.81499 0.78429 0.26938 0.0
N3048 N 0.82752 0.79476 0.29545 0.0
C3049 C 0.83221 0.81113 0.30146 0.0
C3050 C 0.84159 0.8053 0.32643 0.0
C3051 C 0.83907 0.81662 0.31709 0.0
H3052 H 0.81917 0.74582 0.25962 0.0
H3053 H 0.84231 0.82958 0.32194 0.0
H3054 H 0.84661 0.7804 0.34041 0.0
H3055 H 0.82726 0.72467 0.27266 0.0
H3056 H 0.83028 0.82009 0.29451 0.0
H3057 H 0.74823 0.74755 0.2146 0.0
H3058 H 0.84692 0.80959 0.33853 0.0
H3059 H 0.77109 0.8321 0.27514 0.0
H3060 H 0.76037 0.75762 0.24183 0.0
H3061 H 0.76366 0.85306 0.26138 0.0
H3062 H 0.84253 0.7517 0.32695 0.0
H3063 H 0.7438 0.76702 0.19736 0.0
H3064 H 0.74478 0.79611 0.19449 0.0
H3065 H 0.83576 0.73089 0.30153 0.0
H3066 H 0.74905 0.82506 0.20727 0.0
N3067 N 0.76341 0.78286 0.2403 0.0
C3068 C 0.75858 0.76642 0.23466 0.0
C3069 C 0.74926 0.7716 0.20937 0.0
C3070 C 0.75326 0.78837 0.21553 0.0
C3071 C 0.75165 0.76057 0.2191 0.0
C3072 C 0.76021 0.79365 0.23131 0.0
H3073 H 0.75568 0.84636 0.23238 0.0
N3074 N 0.76796 0.81405 0.25403 0.0
C3075 C 0.76342 0.84098 0.25473 0.0
C3076 C 0.76263 0.80984 0.23842 0.0
C3077 C 0.76757 0.8291 0.26248 0.0
C3078 C 0.759 0.83718 0.23836 0.0
C3079 C 0.75816 0.82132 0.23006 0.0
O3080 O 0.76154 0.80323 0.28402 0.0
O3081 O 0.79539 0.79079 0.28264 0.0
O3082 O 0.79801 0.76157 0.27461 0.0
O3083 O 0.77399 0.76643 0.26713 0.0
O3084 O 0.78617 0.81116 0.28915 0.0
O3085 O 0.7546 0.77848 0.27148 0.0
O3086 O 0.82861 0.77627 0.25003 0.0
O3087 O 0.7959 0.7877 0.25303 0.0
O3088 O 0.7932 0.81703 0.2622 0.0
O3089 O 0.81741 0.81177 0.26835 0.0
O3090 O 0.80478 0.767 0.24666 0.0
O3091 O 0.83832 0.79822 0.26682 0.0
C3092 C 0.79589 0.8031 0.29347 0.0
C3093 C 0.73464 0.79174 0.27986 0.0
C3094 C 0.70885 0.79028 0.28962 0.0
C3095 C 0.72443 0.78902 0.2919 0.0
C3096 C 0.70393 0.79468 0.27536 0.0
C3097 C 0.72926 0.79605 0.26582 0.0
C3098 C 0.71405 0.79758 0.26365 0.0
C3099 C 0.78274 0.75665 0.27139 0.0
C3100 C 0.75081 0.78988 0.2817 0.0
C3101 C 0.75231 0.81638 0.21398 0.0
C3102 C 0.74987 0.7999 0.20671 0.0
C3103 C 0.79523 0.77525 0.24229 0.0
C3104 C 0.85589 0.7832 0.25472 0.0
C3105 C 0.86706 0.78796 0.24405 0.0
C3106 C 0.88113 0.78249 0.24399 0.0
C3107 C 0.88326 0.77168 0.25433 0.0
C3108 C 0.85903 0.77323 0.26538 0.0
C3109 C 0.87245 0.76732 0.265 0.0
C3110 C 0.80852 0.82174 0.26485 0.0
C3111 C 0.84076 0.78804 0.2545 0.0
H3112 H 0.72846 0.7856 0.30276 0.0
H3113 H 0.69217 0.79596 0.27329 0.0
H3114 H 0.73682 0.79816 0.25647 0.0
H3115 H 0.71004 0.80096 0.25277 0.0
H3116 H 0.86487 0.79601 0.23606 0.0
H3117 H 0.89335 0.76647 0.25425 0.0
H3118 H 0.85106 0.76986 0.27397 0.0
H3119 H 0.8745 0.75926 0.27304 0.0
Eu3120 Eu 0.80481 0.27915 0.74889 0.0
C3121 C 0.78789 0.33695 0.79434 0.0
C3122 C 0.81243 0.35105 0.80874 0.0
C3123 C 0.79204 0.36569 0.80681 0.0
C3124 C 0.80254 0.33658 0.8001 0.0
C3125 C 0.78251 0.35158 0.79759 0.0
C3126 C 0.80701 0.36545 0.8123 0.0
C3127 C 0.75835 0.33723 0.78297 0.0
N3128 N 0.77894 0.32314 0.78541 0.0
C3129 C 0.76404 0.32301 0.78035 0.0
C3130 C 0.76765 0.35162 0.79157 0.0
Eu3131 Eu 0.78811 0.29852 0.78383 0.0
N3132 N 0.80752 0.32247 0.79626 0.0
C3133 C 0.82292 0.32291 0.79924 0.0
C3134 C 0.8277 0.35085 0.81304 0.0
C3135 C 0.83305 0.33682 0.80794 0.0
H3136 H 0.7562 0.31187 0.77448 0.0
H3137 H 0.84511 0.33681 0.81033 0.0
H3138 H 0.81441 0.37657 0.81901 0.0
H3139 H 0.74664 0.33696 0.77862 0.0
H3140 H 0.82801 0.3131 0.79433 0.0
H3141 H 0.74864 0.23917 0.72276 0.0
H3142 H 0.83563 0.36169 0.8196 0.0
H3143 H 0.83644 0.26557 0.76035 0.0
H3144 H 0.76504 0.26233 0.74094 0.0
H3145 H 0.84717 0.24144 0.7539 0.0
H3146 H 0.78803 0.37693 0.80952 0.0
H3147 H 0.75989 0.217 0.70898 0.0
H3148 H 0.78282 0.20427 0.70606 0.0
H3149 H 0.76315 0.3626 0.79374 0.0
H3150 H 0.80914 0.20406 0.71605 0.0
N3151 N 0.78614 0.25492 0.73622 0.0
C3152 C 0.77048 0.25345 0.73442 0.0
C3153 C 0.7673 0.22747 0.7167 0.0
C3154 C 0.78294 0.22804 0.7201 0.0
C3155 C 0.76093 0.23997 0.7244 0.0
C3156 C 0.79202 0.24187 0.73045 0.0
H3157 H 0.83269 0.2173 0.73473 0.0
N3158 N 0.81471 0.25488 0.74675 0.0
C3159 C 0.8357 0.24127 0.7489 0.0
C3160 C 0.80673 0.24173 0.7361 0.0
C3161 C 0.82927 0.25489 0.75286 0.0
C3162 C 0.82756 0.22773 0.738 0.0
C3163 C 0.81295 0.22788 0.73134 0.0
O3164 O 0.82928 0.28759 0.74673 0.0
O3165 O 0.80546 0.30196 0.76641 0.0
O3166 O 0.77408 0.29869 0.76009 0.0
O3167 O 0.78377 0.28575 0.7374 0.0
O3168 O 0.80569 0.304 0.74235 0.0
O3169 O 0.81343 0.27846 0.7253 0.0
O3170 O 0.76374 0.29026 0.78643 0.0
O3171 O 0.78752 0.27589 0.7662 0.0
O3172 O 0.81869 0.27936 0.77258 0.0
O3173 O 0.80804 0.29026 0.79554 0.0
O3174 O 0.78603 0.27313 0.78987 0.0
O3175 O 0.77974 0.30062 0.80759 0.0
C3176 C 0.8064 0.3118 0.75679 0.0
C3177 C 0.83585 0.29935 0.72437 0.0
C3178 C 0.83625 0.32006 0.70774 0.0
C3179 C 0.82813 0.30688 0.71409 0.0
C3180 C 0.85217 0.32586 0.7121 0.0
C3181 C 0.85175 0.30524 0.7285 0.0
C3182 C 0.85983 0.3185 0.72246 0.0
C3183 C 0.7735 0.29339 0.74434 0.0
C3184 C 0.82758 0.28556 0.7312 0.0
C3185 C 0.80444 0.21464 0.72007 0.0
C3186 C 0.78951 0.21483 0.71427 0.0
C3187 C 0.78593 0.26566 0.7754 0.0
C3188 C 0.75733 0.28013 0.80968 0.0
C3189 C 0.76507 0.27336 0.82065 0.0
C3190 C 0.757 0.26053 0.82749 0.0
C3191 C 0.74112 0.25441 0.82309 0.0
C3192 C 0.74146 0.27397 0.80554 0.0
C3193 C 0.73343 0.26112 0.81218 0.0
C3194 C 0.8186 0.28328 0.78837 0.0
C3195 C 0.76555 0.29327 0.802 0.0
H3196 H 0.81581 0.30252 0.71105 0.0
H3197 H 0.85881 0.33581 0.70719 0.0
H3198 H 0.85791 0.29961 0.73645 0.0
H3199 H 0.8721 0.32296 0.72567 0.0
H3200 H 0.77735 0.27794 0.82379 0.0
H3201 H 0.73458 0.24468 0.82836 0.0
H3202 H 0.73528 0.27904 0.79708 0.0
H3203 H 0.72119 0.25642 0.80892 0.0
Eu3204 Eu 0.81137 0.81151 0.77731 0.0
C3205 C 0.74559 0.76976 0.74909 0.0
C3206 C 0.73152 0.76759 0.7725 0.0
C3207 C 0.7175 0.76406 0.74654 0.0
C3208 C 0.7456 0.77037 0.76536 0.0
C3209 C 0.73152 0.76642 0.73945 0.0
C3210 C 0.7175 0.76449 0.76301 0.0
C3211 C 0.74604 0.76587 0.71629 0.0
N3212 N 0.75929 0.77163 0.74258 0.0
C3213 C 0.75962 0.76882 0.72633 0.0
C3214 C 0.73192 0.76486 0.7229 0.0
Eu3215 Eu 0.78176 0.77421 0.75986 0.0
N3216 N 0.75934 0.77331 0.77417 0.0
C3217 C 0.75974 0.7741 0.79035 0.0
C3218 C 0.73194 0.76779 0.78894 0.0
C3219 C 0.74612 0.77129 0.79793 0.0
H3220 H 0.77048 0.76907 0.7211 0.0
H3221 H 0.74659 0.77187 0.81072 0.0
H3222 H 0.70658 0.76231 0.76827 0.0
H3223 H 0.74647 0.76413 0.70347 0.0
H3224 H 0.77047 0.77725 0.79772 0.0
H3225 H 0.8386 0.81372 0.7198 0.0
H3226 H 0.7214 0.76543 0.79485 0.0
H3227 H 0.82943 0.81324 0.81314 0.0
H3228 H 0.81781 0.80652 0.73605 0.0
H3229 H 0.85556 0.81898 0.82625 0.0
H3230 H 0.70659 0.76148 0.73933 0.0
H3231 H 0.86532 0.82363 0.73201 0.0
H3232 H 0.88372 0.82921 0.75616 0.0
H3233 H 0.72138 0.76232 0.7151 0.0
H3234 H 0.88843 0.82966 0.78483 0.0
N3235 N 0.8313 0.81509 0.75867 0.0
C3236 C 0.82883 0.81238 0.74227 0.0
C3237 C 0.85594 0.82127 0.73955 0.0
C3238 C 0.8588 0.82264 0.75599 0.0
C3239 C 0.8409 0.81581 0.73265 0.0
C3240 C 0.84616 0.81932 0.76534 0.0
H3241 H 0.87811 0.82543 0.81081 0.0
N3242 N 0.83666 0.81496 0.78987 0.0
C3243 C 0.8539 0.81889 0.81357 0.0
C3244 C 0.84889 0.81915 0.78137 0.0
C3245 C 0.83902 0.81533 0.80593 0.0
C3246 C 0.86656 0.82261 0.80486 0.0
C3247 C 0.86419 0.82287 0.7886 0.0
O3248 O 0.80761 0.82197 0.80154 0.0
O3249 O 0.78687 0.79778 0.77681 0.0
O3250 O 0.78169 0.79327 0.74369 0.0
O3251 O 0.80188 0.81629 0.75364 0.0
O3252 O 0.79052 0.82233 0.77433 0.0
O3253 O 0.81964 0.83767 0.78639 0.0
O3254 O 0.78084 0.75257 0.74153 0.0
O3255 O 0.80673 0.78551 0.76593 0.0
O3256 O 0.8118 0.79233 0.7932 0.0
O3257 O 0.79078 0.77047 0.78404 0.0
O3258 O 0.80038 0.77255 0.74286 0.0
O3259 O 0.77804 0.74997 0.76646 0.0
C3260 C 0.78039 0.80942 0.77556 0.0
C3261 C 0.804 0.84883 0.8052 0.0
C3262 C 0.7877 0.86722 0.79937 0.0
C3263 C 0.79752 0.85678 0.79434 0.0
C3264 C 0.78456 0.86976 0.8155 0.0
C3265 C 0.80077 0.85155 0.82123 0.0
C3266 C 0.79111 0.86199 0.82634 0.0
C3267 C 0.79048 0.80781 0.74275 0.0
C3268 C 0.81341 0.83694 0.79991 0.0
C3269 C 0.87665 0.82674 0.77946 0.0
C3270 C 0.87397 0.82658 0.76317 0.0
C3271 C 0.81176 0.78023 0.75309 0.0
C3272 C 0.77678 0.72517 0.74719 0.0
C3273 C 0.78501 0.7171 0.7563 0.0
C3274 C 0.78516 0.7006 0.75105 0.0
C3275 C 0.7763 0.69204 0.73689 0.0
C3276 C 0.76817 0.71663 0.73296 0.0
C3277 C 0.76778 0.70004 0.72795 0.0
C3278 C 0.80239 0.7784 0.7947 0.0
C3279 C 0.7786 0.74284 0.7518 0.0
H3280 H 0.79981 0.85455 0.7819 0.0
H3281 H 0.77722 0.87792 0.81979 0.0
H3282 H 0.8056 0.84545 0.82977 0.0
H3283 H 0.78865 0.86402 0.83873 0.0
H3284 H 0.79175 0.72385 0.76723 0.0
H3285 H 0.7763 0.67934 0.73249 0.0
H3286 H 0.7619 0.72281 0.72568 0.0
H3287 H 0.76116 0.69346 0.71694 0.0
Eu3288 Eu 0.52641 0.52682 0.50813 0.0
C3289 C 0.57357 0.58659 0.54908 0.0
C3290 C 0.57798 0.60661 0.53181 0.0
C3291 C 0.5812 0.61557 0.56059 0.0
C3292 C 0.57361 0.59022 0.53393 0.0
C3293 C 0.57782 0.59919 0.5626 0.0
C3294 C 0.58127 0.61928 0.5452 0.0
C3295 C 0.57709 0.57846 0.57888 0.0
N3296 N 0.57068 0.57066 0.55055 0.0
C3297 C 0.57302 0.56643 0.56511 0.0
C3298 C 0.57925 0.59492 0.57766 0.0
Eu3299 Eu 0.56358 0.55073 0.52685 0.0
N3300 N 0.57069 0.57766 0.52129 0.0
C3301 C 0.5734 0.58065 0.5063 0.0
C3302 C 0.57965 0.60974 0.51634 0.0
C3303 C 0.57765 0.59667 0.50356 0.0
H3304 H 0.57133 0.55371 0.56614 0.0
H3305 H 0.57938 0.59889 0.49159 0.0
H3306 H 0.58447 0.63194 0.5438 0.0
H3307 H 0.57855 0.57502 0.59042 0.0
H3308 H 0.5719 0.57078 0.49623 0.0
H3309 H 0.51041 0.47862 0.54331 0.0
H3310 H 0.58304 0.62214 0.51421 0.0
H3311 H 0.51851 0.52387 0.4689 0.0
H3312 H 0.51822 0.50675 0.53873 0.0
H3313 H 0.51127 0.50258 0.4446 0.0
H3314 H 0.58433 0.62543 0.57083 0.0
H3315 H 0.50621 0.45545 0.52063 0.0
H3316 H 0.5054 0.44563 0.49112 0.0
H3317 H 0.58251 0.60423 0.58833 0.0
H3318 H 0.50575 0.45216 0.46409 0.0
N3319 N 0.51946 0.49987 0.51368 0.0
C3320 C 0.5167 0.49688 0.52866 0.0
C3321 C 0.51003 0.46783 0.51855 0.0
C3322 C 0.51199 0.47095 0.50312 0.0
C3323 C 0.51224 0.48087 0.53136 0.0
C3324 C 0.51656 0.48733 0.50102 0.0
H3325 H 0.50751 0.47337 0.44663 0.0
N3326 N 0.51947 0.50692 0.48441 0.0
C3327 C 0.51286 0.49914 0.45611 0.0
C3328 C 0.51664 0.49098 0.48587 0.0
C3329 C 0.51695 0.51115 0.4699 0.0
C3330 C 0.51082 0.48267 0.45731 0.0
C3331 C 0.51234 0.47839 0.47235 0.0
O3332 O 0.50756 0.53561 0.49777 0.0
O3333 O 0.54091 0.55231 0.51574 0.0
O3334 O 0.54634 0.55583 0.54552 0.0
O3335 O 0.52523 0.5345 0.5356 0.0
O3336 O 0.52967 0.54641 0.49296 0.0
O3337 O 0.50428 0.52428 0.51858 0.0
O3338 O 0.58277 0.54271 0.53755 0.0
O3339 O 0.54906 0.52526 0.51934 0.0
O3340 O 0.54363 0.52178 0.48941 0.0
O3341 O 0.56475 0.54307 0.4994 0.0
O3342 O 0.56034 0.53115 0.54207 0.0
O3343 O 0.58521 0.55224 0.51561 0.0
C3344 C 0.53833 0.55798 0.50325 0.0
C3345 C 0.48224 0.52268 0.50131 0.0
C3346 C 0.45545 0.52455 0.49739 0.0
C3347 C 0.47067 0.5314 0.50394 0.0
C3348 C 0.45197 0.50875 0.48803 0.0
C3349 C 0.47866 0.50688 0.49211 0.0
C3350 C 0.46354 0.49997 0.48548 0.0
C3351 C 0.5327 0.5465 0.54732 0.0
C3352 C 0.49799 0.53074 0.5079 0.0
C3353 C 0.5089 0.462 0.47434 0.0
C3354 C 0.5087 0.45829 0.48972 0.0
C3355 C 0.5516 0.51958 0.53183 0.0
C3356 C 0.60782 0.5549 0.53232 0.0
C3357 C 0.61922 0.54597 0.52967 0.0
C3358 C 0.63469 0.55301 0.53519 0.0
C3359 C 0.63864 0.56937 0.54321 0.0
C3360 C 0.61182 0.57118 0.54036 0.0
C3361 C 0.62723 0.57839 0.54574 0.0
C3362 C 0.55731 0.53109 0.48766 0.0
C3363 C 0.59189 0.54664 0.52671 0.0
H3364 H 0.47361 0.54373 0.51086 0.0
H3365 H 0.44031 0.50317 0.48286 0.0
H3366 H 0.4875 0.49999 0.48998 0.0
H3367 H 0.46078 0.48779 0.47833 0.0
H3368 H 0.61598 0.53347 0.52319 0.0
H3369 H 0.65046 0.5751 0.54771 0.0
H3370 H 0.60309 0.57824 0.54247 0.0
H3371 H 0.63033 0.59095 0.55199 0.0
Eu3372 Eu 0.06559 0.54142 0.01053 0.0
C3373 C 0.00578 0.50822 0.03892 0.0
C3374 C 0.99455 0.48491 0.01824 0.0
C3375 C 0.99008 0.48378 0.04595 0.0
C3376 C 0.00378 0.50084 0.02303 0.0
C3377 C 0.99854 0.49999 0.05051 0.0
C3378 C 0.98811 0.47624 0.02983 0.0
C3379 C 0.00682 0.5251 0.06978 0.0
N3380 N 0.01375 0.52398 0.04286 0.0
C3381 C 0.01375 0.53273 0.05783 0.0
C3382 C 0.99943 0.50856 0.06618 0.0
Eu3383 Eu 0.02537 0.53614 0.02221 0.0
N3384 N 0.00993 0.50967 0.01213 0.0
C3385 C 0.00634 0.50376 0.99617 0.0
C3386 C 0.99156 0.47843 0.00191 0.0
C3387 C 0.99733 0.48798 0.99083 0.0
H3388 H 0.01949 0.54552 0.06063 0.0
H3389 H 0.99482 0.48321 0.97817 0.0
H3390 H 0.98114 0.46391 0.02639 0.0
H3391 H 0.0072 0.53196 0.08174 0.0
H3392 H 0.01069 0.51099 0.98746 0.0
H3393 H 0.09624 0.59369 0.0553 0.0
H3394 H 0.98439 0.46632 0.99775 0.0
H3395 H 0.07069 0.5331 0.97177 0.0
H3396 H 0.08069 0.56584 0.04559 0.0
H3397 H 0.08252 0.54735 0.95086 0.0
H3398 H 0.98458 0.47718 0.05471 0.0
H3399 H 0.10606 0.6113 0.03606 0.0
H3400 H 0.10932 0.61423 0.00751 0.0
H3401 H 0.99399 0.50269 0.07543 0.0
H3402 H 0.10562 0.6016 0.97901 0.0
N3403 N 0.08118 0.56772 0.02103 0.0
C3404 C 0.08489 0.57332 0.03702 0.0
C3405 C 0.09919 0.59907 0.03171 0.0
C3406 C 0.09621 0.59286 0.01533 0.0
C3407 C 0.09372 0.58915 0.0426 0.0
C3408 C 0.08713 0.57689 0.0103 0.0
H3409 H 0.0959 0.57655 0.9578 0.0
N3410 N 0.07692 0.55417 0.99007 0.0
C3411 C 0.08319 0.55388 0.96301 0.0
C3412 C 0.08493 0.56989 0.9943 0.0
C3413 C 0.07653 0.54585 0.97485 0.0
C3414 C 0.09069 0.57037 0.96697 0.0
C3415 C 0.0919 0.57851 0.98283 0.0
O3416 O 0.07834 0.52323 0.00061 0.0
O3417 O 0.04381 0.52365 0.01299 0.0
O3418 O 0.03854 0.52714 0.04084 0.0
O3419 O 0.06396 0.539 0.03658 0.0
O3420 O 0.05454 0.51872 0.99239 0.0
O3421 O 0.08569 0.53773 0.02407 0.0
O3422 O 0.01332 0.55533 0.03106 0.0
O3423 O 0.0472 0.5538 0.01985 0.0
O3424 O 0.05234 0.55117 0.99258 0.0
O3425 O 0.02707 0.53824 0.99608 0.0
O3426 O 0.03637 0.55892 0.04033 0.0
O3427 O 0.00468 0.53888 0.00887 0.0
C3428 C 0.04325 0.51325 0.00037 0.0
C3429 C 0.1049 0.5286 0.0091 0.0
C3430 C 0.12912 0.5192 0.00935 0.0
C3431 C 0.11354 0.5174 0.01283 0.0
C3432 C 0.13571 0.53223 0.00185 0.0
C3433 C 0.11185 0.54155 0.00182 0.0
C3434 C 0.12713 0.54329 0.99816 0.0
C3435 C 0.05359 0.53127 0.04494 0.0
C3436 C 0.08866 0.52672 0.01279 0.0
C3437 C 0.10032 0.5947 0.98766 0.0
C3438 C 0.10244 0.60189 0.00389 0.0
C3439 C 0.0478 0.56423 0.03245 0.0
C3440 C 0.98653 0.54998 0.0241 0.0
C3441 C 0.97843 0.56192 0.02119 0.0
C3442 C 0.96368 0.56165 0.02666 0.0
C3443 C 0.95714 0.54923 0.03487 0.0
C3444 C 0.97961 0.53756 0.03207 0.0
C3445 C 0.96502 0.53723 0.03744 0.0
C3446 C 0.03735 0.54681 0.98826 0.0
C3447 C 0.0024 0.55093 0.01944 0.0
H3448 H 0.10822 0.50749 0.01863 0.0
H3449 H 0.1475 0.53382 0.99867 0.0
H3450 H 0.10548 0.55031 0.99894 0.0
H3451 H 0.13237 0.55326 0.99242 0.0
H3452 H 0.98369 0.57156 0.01503 0.0
H3453 H 0.9458 0.5487 0.03913 0.0
H3454 H 0.98551 0.52819 0.03424 0.0
H3455 H 0.95981 0.52765 0.04366 0.0
H3456 H 0.03921 0.18621 0.94567 0.0
H3457 H 0.04291 0.16299 0.95754 0.0
H3458 H 0.01631 0.17726 0.99616 0.0
H3459 H 0.01269 0.20075 0.98447 0.0
H3460 H 0.05672 0.16141 0.98695 0.0
H3461 H 0.99489 0.12938 0.98107 0.0
H3462 H 1.00187 0.14618 0.971 0.0
H3463 H 0.99921 0.15003 0.99194 0.0
C3464 C 0.03423 0.18461 0.95678 0.0
C3465 C 0.02562 0.19557 0.96402 0.0
C3466 C 0.03632 0.17118 0.96354 0.0
C3467 C 0.02976 0.16811 0.9777 0.0
C3468 C 0.02125 0.17905 0.98507 0.0
H3469 H 0.04036 0.08606 0.02795 0.0
H3470 H 0.03872 0.11384 0.02401 0.0
C3471 C 0.01917 0.19254 0.97831 0.0
C3472 C 0.03195 0.15348 0.98457 0.0
H3473 H 0.0126 0.11689 0.99296 0.0
C3474 C 0.04703 0.15176 0.98836 0.0
C3475 C 0.01938 0.14079 0.98655 0.0
C3476 C 0.00291 0.14153 0.98232 0.0
C3477 C 0.04983 0.13771 0.9937 0.0
C3478 C 0.03731 0.12491 0.99529 0.0
C3479 C 0.02223 0.12676 0.99191 0.0
C3480 C 0.03967 0.10873 0.99839 0.0
C3481 C 0.06619 0.13649 0.99754 0.0
C3482 C 0.04104 0.09673 0.98543 0.0
C3483 C 0.04198 0.08102 0.98765 0.0
C3484 C 0.04174 0.07682 0.00293 0.0
C3485 C 0.04081 0.08896 0.01607 0.0
C3486 C 0.03978 0.10479 0.0138 0.0
H3487 H 0.07476 0.1475 0.99585 0.0
H3488 H 0.06763 0.13491 0.01014 0.0
H3489 H 0.0686 0.12557 0.98984 0.0
H3490 H 0.04099 0.0994 0.97345 0.0
H3491 H 0.04259 0.07196 0.97726 0.0
H3492 H 0.15623 0.79095 0.14399 0.0
H3493 H 0.17944 0.78847 0.15906 0.0
H3494 H 0.17185 0.82453 0.19799 0.0
H3495 H 0.14826 0.82658 0.18333 0.0
H3496 H 0.20634 0.80993 0.17069 0.0
H3497 H 0.1771 0.78864 0.22158 0.0
H3498 H 0.16656 0.78969 0.20332 0.0
H3499 H 0.17359 0.80784 0.21819 0.0
C3500 C 0.15929 0.79822 0.15586 0.0
C3501 C 0.15004 0.80885 0.16239 0.0
C3502 C 0.17274 0.79688 0.16445 0.0
C3503 C 0.1774 0.80605 0.17989 0.0
C3504 C 0.16844 0.81697 0.1863 0.0
H3505 H 0.25359 0.81571 0.25192 0.0
H3506 H 0.2312 0.81829 0.23584 0.0
C3507 C 0.15496 0.81831 0.17773 0.0
C3508 C 0.19162 0.80424 0.18919 0.0
H3509 H 0.20449 0.79563 0.22467 0.0
C3510 C 0.20588 0.80671 0.18245 0.0
C3511 C 0.19121 0.8 0.20459 0.0
C3512 C 0.17628 0.79623 0.2123 0.0
C3513 C 0.21963 0.80548 0.19075 0.0
C3514 C 0.21922 0.80137 0.20619 0.0
C3515 C 0.20495 0.79882 0.21288 0.0
C3516 C 0.2334 0.79991 0.21578 0.0
C3517 C 0.23458 0.80907 0.18305 0.0
C3518 C 0.24238 0.78873 0.21006 0.0
C3519 C 0.25526 0.7871 0.21946 0.0
C3520 C 0.25944 0.79645 0.23496 0.0
C3521 C 0.25057 0.80783 0.24045 0.0
C3522 C 0.23774 0.80946 0.23109 0.0
H3523 H 0.23372 0.8162 0.17339 0.0
H3524 H 0.24421 0.81598 0.19198 0.0
H3525 H 0.23744 0.79736 0.17769 0.0
H3526 H 0.23926 0.78097 0.19843 0.0
H3527 H 0.26172 0.7782 0.21468 0.0
H3528 H 0.54511 0.86011 0.48587 0.0
H3529 H 0.54729 0.88927 0.49597 0.0
H3530 H 0.50568 0.88778 0.46715 0.0
H3531 H 0.50354 0.85883 0.45679 0.0
H3532 H 0.55078 0.91396 0.47887 0.0
H3533 H 0.49759 0.91223 0.51011 0.0
H3534 H 0.50524 0.89429 0.50421 0.0
H3535 H 0.49386 0.90124 0.48991 0.0
C3536 C 0.53639 0.86594 0.48166 0.0
C3537 C 0.5241 0.85693 0.4705 0.0
C3538 C 0.5376 0.88264 0.48756 0.0
C3539 C 0.5265 0.89075 0.48257 0.0
C3540 C 0.51417 0.88178 0.47156 0.0
H3541 H 0.53758 0.99161 0.47491 0.0
H3542 H 0.53248 0.9618 0.47157 0.0
C3543 C 0.51297 0.86513 0.46562 0.0
C3544 C 0.52842 0.90879 0.48784 0.0
H3545 H 0.50979 0.93826 0.50401 0.0
C3546 C 0.54187 0.91923 0.48452 0.0
C3547 C 0.51692 0.91578 0.49545 0.0
C3548 C 0.50266 0.90531 0.50029 0.0
C3549 C 0.54385 0.93633 0.48793 0.0
C3550 C 0.53196 0.9433 0.49463 0.0
C3551 C 0.5188 0.93294 0.49865 0.0
C3552 C 0.53291 0.96127 0.49685 0.0
C3553 C 0.55868 0.94683 0.48421 0.0
C3554 C 0.53407 0.97092 0.51216 0.0
C3555 C 0.53691 0.98806 0.5141 0.0
C3556 C 0.53841 0.99577 0.50071 0.0
C3557 C 0.53642 0.986 0.48542 0.0
C3558 C 0.5336 0.96897 0.4835 0.0
H3559 H 0.56811 0.94009 0.4833 0.0
H3560 H 0.55677 0.95063 0.47258 0.0
H3561 H 0.56247 0.95804 0.49349 0.0
H3562 H 0.53351 0.96525 0.52264 0.0
H3563 H 0.53864 0.99527 0.52604 0.0
H3564 H 0.48487 0.3076 0.64079 0.0
H3565 H 0.4613 0.30629 0.65479 0.0
H3566 H 0.48494 0.29603 0.69588 0.0
H3567 H 0.50855 0.29754 0.68213 0.0
H3568 H 0.4443 0.27929 0.66885 0.0
H3569 H 0.46634 0.33578 0.71385 0.0
H3570 H 0.47509 0.33146 0.69539 0.0
H3571 H 0.47886 0.32165 0.71178 0.0
C3572 C 0.48513 0.30521 0.65287 0.0
C3573 C 0.49875 0.30274 0.6603 0.0
C3574 C 0.47157 0.30435 0.66082 0.0
C3575 C 0.47133 0.30123 0.67648 0.0
C3576 C 0.48484 0.29865 0.68388 0.0
H3577 H 0.41237 0.29138 0.75212 0.0
H3578 H 0.43263 0.2959 0.7343 0.0
C3579 C 0.49834 0.29938 0.67592 0.0
C3580 C 0.45701 0.30054 0.68515 0.0
H3581 H 0.44303 0.3185 0.71859 0.0
C3582 C 0.44393 0.28793 0.67966 0.0
C3583 C 0.45646 0.31186 0.6992 0.0
C3584 C 0.46987 0.32606 0.70538 0.0
C3585 C 0.43069 0.28581 0.68827 0.0
C3586 C 0.43029 0.29689 0.70263 0.0
C3587 C 0.4432 0.30989 0.7077 0.0
C3588 C 0.41734 0.29453 0.71335 0.0
C3589 C 0.41762 0.2712 0.68227 0.0
C3590 C 0.40172 0.29259 0.70784 0.0
C3591 C 0.38987 0.28956 0.71808 0.0
C3592 C 0.39335 0.2886 0.73415 0.0
C3593 C 0.40905 0.29147 0.73975 0.0
C3594 C 0.42078 0.29426 0.72954 0.0
H3595 H 0.42133 0.26178 0.67359 0.0
H3596 H 0.4129 0.26547 0.69228 0.0
H3597 H 0.40823 0.27521 0.67609 0.0
H3598 H 0.39864 0.29328 0.69558 0.0
H3599 H 0.37799 0.28752 0.71328 0.0
H3600 H 0.99382 0.82808 0.5884 0.0
H3601 H 0.99863 0.8499 0.57264 0.0
H3602 H 0.04038 0.87325 0.60271 0.0
H3603 H 0.03553 0.85178 0.61883 0.0
H3604 H 0.0108 0.89138 0.58971 0.0
H3605 H 0.04559 0.85824 0.54889 0.0
H3606 H 0.02944 0.84722 0.55759 0.0
H3607 H 0.04674 0.85752 0.56994 0.0
C3608 C 0.00388 0.83799 0.59186 0.0
C3609 C 0.01433 0.8381 0.60485 0.0
C3610 C 0.00663 0.8504 0.58279 0.0
C3611 C 0.01985 0.86309 0.58655 0.0
C3612 C 0.03012 0.8635 0.59967 0.0
H3613 H 0.06581 0.93368 0.53253 0.0
H3614 H 0.05895 0.91395 0.55029 0.0
C3615 C 0.02738 0.85114 0.60876 0.0
C3616 C 0.02337 0.87553 0.57631 0.0
H3617 H 0.0428 0.8839 0.54416 0.0
C3618 C 0.01776 0.88981 0.57971 0.0
C3619 C 0.03257 0.87341 0.56345 0.0
C3620 C 0.039 0.85829 0.55962 0.0
C3621 C 0.02125 0.9022 0.57058 0.0
C3622 C 0.03028 0.89999 0.55747 0.0
C3623 C 0.03586 0.88562 0.55415 0.0
C3624 C 0.03434 0.91244 0.54714 0.0
C3625 C 0.0156 0.91769 0.5754 0.0
C3626 C 0.02282 0.91813 0.53936 0.0
C3627 C 0.02677 0.92961 0.52944 0.0
C3628 C 0.04227 0.93527 0.52677 0.0
C3629 C 0.05377 0.9294 0.53432 0.0
C3630 C 0.04985 0.91817 0.54448 0.0
H3631 H 0.01321 0.91953 0.58817 0.0
H3632 H 0.02414 0.92858 0.57342 0.0
H3633 H 0.00466 0.91684 0.56816 0.0
H3634 H 0.01075 0.91354 0.54078 0.0
H3635 H 0.0177 0.93385 0.52361 0.0
H3636 H 0.50106 0.7836 0.83919 0.0
H3637 H 0.47628 0.78564 0.82665 0.0
H3638 H 0.49349 0.83752 0.82985 0.0
H3639 H 0.51819 0.83555 0.84219 0.0
H3640 H 0.45542 0.80355 0.83781 0.0
H3641 H 0.4779 0.82307 0.78312 0.0
H3642 H 0.48903 0.81476 0.79658 0.0
H3643 H 0.48805 0.83595 0.80095 0.0
C3644 C 0.49952 0.79542 0.83721 0.0
C3645 C 0.51161 0.80938 0.84149 0.0
C3646 C 0.4854 0.79656 0.83002 0.0
C3647 C 0.48318 0.81167 0.827 0.0
C3648 C 0.49511 0.82566 0.83162 0.0
H3649 H 0.40958 0.85367 0.79708 0.0
H3650 H 0.43332 0.84761 0.80779 0.0
C3651 C 0.50921 0.82452 0.8387 0.0
C3652 C 0.46829 0.81301 0.81939 0.0
H3653 H 0.45272 0.82717 0.78865 0.0
C3654 C 0.45478 0.80852 0.82696 0.0
C3655 C 0.46747 0.8194 0.80516 0.0
C3656 C 0.48136 0.82341 0.79589 0.0
C3657 C 0.44059 0.81089 0.82101 0.0
C3658 C 0.43995 0.81789 0.80717 0.0
C3659 C 0.45334 0.82198 0.79937 0.0
C3660 C 0.42554 0.82139 0.80075 0.0
C3661 C 0.42645 0.80637 0.82978 0.0
C3662 C 0.41346 0.80863 0.79309 0.0
C3663 C 0.39997 0.81204 0.78676 0.0
C3664 C 0.39831 0.8283 0.78804 0.0
C3665 C 0.41053 0.84105 0.7957 0.0
C3666 C 0.42405 0.83761 0.80193 0.0
H3667 H 0.42929 0.80312 0.84148 0.0
H3668 H 0.42047 0.81666 0.83178 0.0
H3669 H 0.41828 0.79572 0.82239 0.0
H3670 H 0.41453 0.79604 0.79188 0.0
H3671 H 0.39094 0.80193 0.78068 0.0
H3672 H 0.48737 0.18495 0.07253 0.0
H3673 H 0.49041 0.15699 0.06335 0.0
H3674 H 0.4825 0.1459 0.11014 0.0
H3675 H 0.47952 0.17373 0.11945 0.0
H3676 H 0.51414 0.14579 0.0954 0.0
H3677 H 0.46137 0.10705 0.05927 0.0
H3678 H 0.46705 0.12819 0.05717 0.0
H3679 H 0.46056 0.12329 0.07569 0.0
C3680 C 0.48585 0.1764 0.08071 0.0
C3681 C 0.48332 0.18154 0.09672 0.0
C3682 C 0.48746 0.16044 0.07544 0.0
C3683 C 0.48658 0.14948 0.0861 0.0
C3684 C 0.48301 0.1542 0.10174 0.0
H3685 H 0.51635 0.05629 0.06196 0.0
H3686 H 0.50347 0.07681 0.076 0.0
C3687 C 0.48128 0.17009 0.107 0.0
C3688 C 0.49236 0.13449 0.08183 0.0
H3689 H 0.48429 0.09685 0.05791 0.0
C3690 C 0.50754 0.13494 0.08745 0.0
C3691 C 0.48364 0.12048 0.07151 0.0
C3692 C 0.4672 0.11955 0.06555 0.0
C3693 C 0.51455 0.12196 0.08234 0.0
C3694 C 0.50612 0.10827 0.07138 0.0
C3695 C 0.49065 0.10742 0.06638 0.0
C3696 C 0.51387 0.09586 0.06345 0.0
C3697 C 0.53114 0.12327 0.08811 0.0
C3698 C 0.52396 0.09997 0.05196 0.0
C3699 C 0.53127 0.08844 0.04404 0.0
C3700 C 0.52859 0.07258 0.04748 0.0
C3701 C 0.5187 0.06852 0.05925 0.0
C3702 C 0.51126 0.08011 0.06713 0.0
H3703 H 0.53488 0.13271 0.09908 0.0
H3704 H 0.53288 0.11134 0.09058 0.0
H3705 H 0.53866 0.12671 0.07866 0.0
H3706 H 0.52606 0.1121 0.04901 0.0
H3707 H 0.53896 0.09191 0.03515 0.0
H3708 H 0.16988 0.33275 0.3457 0.0
H3709 H 0.19071 0.33304 0.32811 0.0
H3710 H 0.15885 0.30196 0.29006 0.0
H3711 H 0.13785 0.30175 0.30755 0.0
H3712 H 0.18331 0.28913 0.29845 0.0
H3713 H 0.20461 0.35248 0.28885 0.0
H3714 H 0.20215 0.35129 0.30942 0.0
H3715 H 0.18558 0.34537 0.29502 0.0
C3716 C 0.16719 0.32639 0.33345 0.0
C3717 C 0.15226 0.31708 0.32805 0.0
C3718 C 0.1791 0.32665 0.32337 0.0
C3719 C 0.17626 0.3177 0.30773 0.0
C3720 C 0.16122 0.30906 0.30207 0.0
H3721 H 0.25607 0.30828 0.25198 0.0
H3722 H 0.22939 0.30993 0.25733 0.0
C3723 C 0.1493 0.3088 0.31212 0.0
C3724 C 0.18937 0.31501 0.29848 0.0
H3725 H 0.22264 0.33473 0.2855 0.0
C3726 C 0.19171 0.29906 0.29525 0.0
C3727 C 0.2003 0.32797 0.29434 0.0
C3728 C 0.19798 0.34523 0.29694 0.0
C3729 C 0.20516 0.29585 0.28891 0.0
C3730 C 0.21657 0.3089 0.28573 0.0
C3731 C 0.21385 0.32474 0.28802 0.0
C3732 C 0.23203 0.30659 0.28183 0.0
C3733 C 0.20739 0.27864 0.28631 0.0
C3734 C 0.24217 0.30412 0.29381 0.0
C3735 C 0.25726 0.30328 0.2908 0.0
C3736 C 0.2623 0.30446 0.27565 0.0
C3737 C 0.25216 0.30682 0.26359 0.0
C3738 C 0.23705 0.30784 0.26665 0.0
H3739 H 0.19634 0.26953 0.28594 0.0
H3740 H 0.21269 0.27595 0.27497 0.0
H3741 H 0.21524 0.2774 0.29632 0.0
H3742 H 0.23855 0.30341 0.30567 0.0
H3743 H 0.26516 0.30225 0.30046 0.0
H3744 H 0.99261 0.07628 0.1967 0.0
H3745 H 0.004 0.07415 0.17112 0.0
H3746 H 0.96037 0.04625 0.14745 0.0
H3747 H 0.94869 0.04908 0.1727 0.0
H3748 H 0.01044 0.05162 0.1499 0.0
H3749 H 0.96847 0.07574 0.11667 0.0
H3750 H 0.96854 0.07656 0.13792 0.0
H3751 H 0.95902 0.05817 0.12424 0.0
C3752 C 0.9852 0.06992 0.18611 0.0
C3753 C 0.96941 0.06302 0.18738 0.0
C3754 C 0.9919 0.06855 0.17124 0.0
C3755 C 0.98323 0.06031 0.15672 0.0
C3756 C 0.96755 0.05317 0.15799 0.0
H3757 H 0.00433 0.03206 0.05564 0.0
H3758 H 0.99286 0.03536 0.08127 0.0
C3759 C 0.96082 0.05458 0.17282 0.0
C3760 C 0.99057 0.05888 0.14057 0.0
H3761 H 0.98523 0.06246 0.10098 0.0
C3762 C 0.00486 0.05415 0.13932 0.0
C3763 C 0.98372 0.06214 0.12629 0.0
C3764 C 0.96919 0.0686 0.12635 0.0
C3765 C 0.01203 0.05225 0.12467 0.0
C3766 C 0.00503 0.05522 0.11038 0.0
C3767 C 0.99079 0.05999 0.11161 0.0
C3768 C 0.01222 0.05344 0.09423 0.0
C3769 C 0.02698 0.0466 0.12454 0.0
C3770 C 0.027 0.06263 0.09223 0.0
C3771 C 0.03358 0.06091 0.07731 0.0
C3772 C 0.02583 0.04977 0.06364 0.0
C3773 C 0.01094 0.04074 0.06563 0.0
C3774 C 0.00427 0.04263 0.08048 0.0
H3775 H 0.02895 0.04092 0.13506 0.0
H3776 H 0.02716 0.03763 0.11351 0.0
H3777 H 0.0367 0.05727 0.12487 0.0
H3778 H 0.03349 0.07138 0.10222 0.0
H3779 H 0.04482 0.06843 0.07656 0.0
H3780 H 0.26034 0.68279 0.4377 0.0
H3781 H 0.2604 0.69752 0.41547 0.0
H3782 H 0.3082 0.72123 0.42891 0.0
H3783 H 0.30821 0.70667 0.45142 0.0
H3784 H 0.26886 0.73351 0.41907 0.0
H3785 H 0.30492 0.70066 0.37964 0.0
H3786 H 0.29487 0.69176 0.39506 0.0
H3787 H 0.31175 0.70798 0.40037 0.0
C3788 C 0.27085 0.69119 0.43599 0.0
C3789 C 0.28426 0.69364 0.44632 0.0
C3790 C 0.27088 0.69951 0.42326 0.0
C3791 C 0.28432 0.71033 0.42058 0.0
C3792 C 0.29779 0.71274 0.43074 0.0
H3793 H 0.27655 0.77646 0.3537 0.0
H3794 H 0.2868 0.76596 0.37601 0.0
C3795 C 0.29777 0.70441 0.44353 0.0
C3796 C 0.28389 0.71941 0.40737 0.0
H3797 H 0.29439 0.72051 0.36957 0.0
C3798 C 0.27461 0.73089 0.40832 0.0
C3799 C 0.29138 0.71581 0.39343 0.0
C3800 C 0.30126 0.70333 0.3919 0.0
C3801 C 0.27217 0.73851 0.3954 0.0
C3802 C 0.27937 0.73463 0.38128 0.0
C3803 C 0.28903 0.72351 0.3805 0.0
C3804 C 0.27559 0.74073 0.36674 0.0
C3805 C 0.26131 0.75002 0.39664 0.0
C3806 C 0.26648 0.72987 0.35391 0.0
C3807 C 0.26068 0.73579 0.34115 0.0
C3808 C 0.26394 0.75266 0.34104 0.0
C3809 C 0.27388 0.7634 0.35345 0.0
C3810 C 0.27967 0.75745 0.36623 0.0
H3811 H 0.25489 0.74974 0.40748 0.0
H3812 H 0.26801 0.7627 0.39717 0.0
H3813 H 0.25284 0.74688 0.38597 0.0
H3814 H 0.26327 0.7169 0.35413 0.0
H3815 H 0.25329 0.72722 0.3316 0.0
H3816 H 0.60966 0.01333 0.68447 0.0
H3817 H 0.59147 0.00883 0.66081 0.0
H3818 H 0.62717 0.035 0.6364 0.0
H3819 H 0.64554 0.03907 0.65972 0.0
H3820 H 0.58233 0.03241 0.64539 0.0
H3821 H 0.61059 0.99185 0.60498 0.0
H3822 H 0.61465 0.99584 0.62643 0.0
H3823 H 0.62391 0.01021 0.6147 0.0
C3824 C 0.61367 0.01796 0.67398 0.0
C3825 C 0.62905 0.02646 0.67388 0.0
C3826 C 0.60326 0.01544 0.66055 0.0
C3827 C 0.60812 0.02129 0.64683 0.0
C3828 C 0.62334 0.03007 0.6468 0.0
H3829 H 0.58307 0.04699 0.56262 0.0
H3830 H 0.59319 0.04116 0.58752 0.0
C3831 C 0.63375 0.03259 0.6602 0.0
C3832 C 0.59724 0.01886 0.63261 0.0
H3833 H 0.59398 0.00603 0.5923 0.0
C3834 C 0.58459 0.02629 0.63381 0.0
C3835 C 0.60017 0.01066 0.61763 0.0
C3836 C 0.61298 1.00154 0.61586 0.0
C3837 C 0.57555 0.02693 0.62011 0.0
C3838 C 0.57934 0.01994 0.60504 0.0
C3839 C 0.59125 0.01147 0.60396 0.0
C3840 C 0.57268 0.02334 0.59024 0.0
C3841 C 0.5627 0.03601 0.62164 0.0
C3842 C 0.55779 0.01517 0.58367 0.0
C3843 C 0.55195 0.01843 0.56936 0.0
C3844 C 0.56094 0.02992 0.56155 0.0
C3845 C 0.57584 0.03808 0.5683 0.0
C3846 C 0.58165 0.03479 0.58252 0.0
H3847 H 0.5613 0.04088 0.63428 0.0
H3848 H 0.56506 0.04635 0.61506 0.0
H3849 H 0.55166 0.02772 0.61617 0.0
H3850 H 0.55081 0.00621 0.5895 0.0
H3851 H 0.54051 0.01177 0.56433 0.0
H3852 H 0.26913 0.3235 0.94106 0.0
H3853 H 0.26988 0.31201 0.91285 0.0
H3854 H 0.31855 0.33378 0.91597 0.0
H3855 H 0.31792 0.34525 0.94405 0.0
H3856 H 0.27648 0.3282 0.88926 0.0
H3857 H 0.31793 0.28858 0.89209 0.0
H3858 H 0.30925 0.29668 0.90947 0.0
H3859 H 0.32591 0.30893 0.90275 0.0
C3860 C 0.28003 0.32574 0.93577 0.0
C3861 C 0.29348 0.33527 0.9449 0.0
C3862 C 0.28045 0.31908 0.91965 0.0
C3863 C 0.29434 0.32174 0.9123 0.0
C3864 C 0.3078 0.33109 0.92143 0.0
H3865 H 0.30432 0.33085 0.81526 0.0
H3866 H 0.30468 0.33358 0.84425 0.0
C3867 C 0.3074 0.3377 0.93753 0.0
C3868 C 0.29453 0.31614 0.8948 0.0
H3869 H 0.31415 0.29701 0.86674 0.0
C3870 C 0.28458 0.32117 0.88437 0.0
C3871 C 0.30487 0.3067 0.88831 0.0
C3872 C 0.31497 0.29975 0.89875 0.0
C3873 C 0.28521 0.31777 0.86777 0.0
C3874 C 0.29641 0.3095 0.86135 0.0
C3875 C 0.3058 0.30366 0.87167 0.0
C3876 C 0.29882 0.30754 0.84406 0.0
C3877 C 0.27389 0.32321 0.85725 0.0
C3878 C 0.29655 0.29198 0.83437 0.0
C3879 C 0.29667 0.2904 0.81772 0.0
C3880 C 0.29911 0.30439 0.81064 0.0
C3881 C 0.30238 0.3199 0.82046 0.0
C3882 C 0.30246 0.32146 0.837 0.0
H3883 H 0.26331 0.32449 0.86328 0.0
H3884 H 0.27933 0.33533 0.85456 0.0
H3885 H 0.27047 0.31444 0.8458 0.0
H3886 H 0.29388 0.28107 0.83959 0.0
H3887 H 0.29397 0.2783 0.81036 0.0
H3888 H 0.98496 0.08784 0.36164 0.0
H3889 H 0.99677 0.08405 0.38686 0.0
H3890 H 0.97449 0.03298 0.37646 0.0
H3891 H 0.96252 0.03663 0.3514 0.0
H3892 H 0.98719 0.07595 0.41374 0.0
H3893 H 0.01643 0.02743 0.389 0.0
H3894 H 0.00765 0.03867 0.37644 0.0
H3895 H 0.99604 0.0217 0.38354 0.0
C3896 C 0.9824 0.07573 0.36456 0.0
C3897 C 0.9726 0.0626 0.35378 0.0
C3898 C 0.98936 0.07353 0.37923 0.0
C3899 C 0.98707 0.05807 0.38394 0.0
C3900 C 0.97715 0.04501 0.37333 0.0
H3901 H 1.00034 0.0434 0.48372 0.0
H3902 H 0.99125 0.04648 0.4572 0.0
C3903 C 0.97016 0.04718 0.3587 0.0
C3904 C 0.99455 0.05579 0.39997 0.0
H3905 H 0.01516 0.03192 0.4173 0.0
C3906 C 0.99332 0.0663 0.41434 0.0
C3907 C 0.003 0.04347 0.40136 0.0
C3908 C 0.00603 0.03228 0.38676 0.0
C3909 C 0.99962 0.06462 0.42955 0.0
C3910 C 0.00743 0.05183 0.43103 0.0
C3911 C 0.00912 0.04163 0.41663 0.0
C3912 C 0.01336 0.04874 0.44735 0.0
C3913 C 0.99803 0.07693 0.44396 0.0
C3914 C 0.02893 0.04807 0.45119 0.0
C3915 C 0.03428 0.04615 0.46673 0.0
C3916 C 0.02419 0.04453 0.47898 0.0
C3917 C 0.00861 0.04462 0.47484 0.0
C3918 C 0.00334 0.04657 0.45951 0.0
H3919 H 0.99652 0.08858 0.44056 0.0
H3920 H 0.98767 0.07194 0.44981 0.0
H3921 H 0.00827 0.07963 0.45276 0.0
H3922 H 0.03712 0.04951 0.44228 0.0
H3923 H 0.04637 0.04632 0.46923 0.0
H3924 H 0.29809 0.70351 0.60605 0.0
H3925 H 0.29703 0.72269 0.6305 0.0
H3926 H 0.25968 0.73832 0.60788 0.0
H3927 H 0.26044 0.71869 0.58343 0.0
H3928 H 0.30116 0.75573 0.63593 0.0
H3929 H 0.24181 0.72648 0.64815 0.0
H3930 H 0.25218 0.71676 0.63316 0.0
H3931 H 0.24361 0.7332 0.62933 0.0
C3932 C 0.28969 0.71107 0.6063 0.0
C3933 C 0.27931 0.70964 0.59295 0.0
C3934 C 0.2891 0.72202 0.62023 0.0
C3935 C 0.2782 0.73182 0.62103 0.0
C3936 C 0.26798 0.73064 0.6076 0.0
H3937 H 0.29188 0.80133 0.71275 0.0
H3938 H 0.28731 0.79218 0.68377 0.0
C3939 C 0.26843 0.71949 0.59368 0.0
C3940 C 0.27759 0.74293 0.63617 0.0
H3941 H 0.25575 0.74811 0.66758 0.0
C3942 C 0.29118 0.75427 0.6428 0.0
C3943 C 0.2645 0.74096 0.645 0.0
C3944 C 0.24971 0.72863 0.63866 0.0
C3945 C 0.29242 0.76287 0.65851 0.0
C3946 C 0.27952 0.76039 0.66758 0.0
C3947 C 0.26559 0.74994 0.66053 0.0
C3948 C 0.28091 0.76645 0.68498 0.0
C3949 C 0.30785 0.77357 0.66557 0.0
C3950 C 0.27823 0.75506 0.69522 0.0
C3951 C 0.28059 0.76022 0.71169 0.0
C3952 C 0.28581 0.77689 0.71824 0.0
C3953 C 0.28807 0.78837 0.70801 0.0
C3954 C 0.2855 0.78318 0.69147 0.0
H3955 H 0.31728 0.77171 0.65788 0.0
H3956 H 0.30721 0.7866 0.66694 0.0
H3957 H 0.31092 0.77109 0.67755 0.0
H3958 H 0.2747 0.74207 0.69045 0.0
H3959 H 0.27872 0.75108 0.71924 0.0
H3960 H 0.65969 0.02901 0.83455 0.0
H3961 H 0.64627 0.03185 0.85898 0.0
H3962 H 0.60343 0.02677 0.83065 0.0
H3963 H 0.61668 0.02373 0.80627 0.0
H3964 H 0.63068 0.05772 0.86673 0.0
H3965 H 0.59151 0.9971 0.86377 0.0
H3966 H 0.60843 1.00002 0.85277 0.0
H3967 H 0.59093 0.00475 0.84542 0.0
C3968 C 0.64733 0.02806 0.83356 0.0
C3969 C 0.63919 0.02621 0.81858 0.0
C3970 C 0.63973 0.02974 0.84748 0.0
C3971 C 0.62387 0.02935 0.84654 0.0
C3972 C 0.61562 0.02681 0.83157 0.0
H3973 H 0.55185 0.0512 0.90235 0.0
H3974 H 0.56884 0.04403 0.88196 0.0
C3975 C 0.62322 0.02524 0.81769 0.0
C3976 C 0.61618 0.03347 0.86109 0.0
H3977 H 0.58499 0.01975 0.88069 0.0
C3978 C 0.62084 0.04937 0.87001 0.0
C3979 C 0.60337 0.02251 0.8652 0.0
C3980 C 0.59834 0.00508 0.85639 0.0
C3981 C 0.61244 0.05495 0.88243 0.0
C3982 C 0.59925 0.04416 0.88615 0.0
C3983 C 0.59501 0.02803 0.87766 0.0
C3984 C 0.58933 0.04948 0.89843 0.0
C3985 C 0.61735 0.07252 0.89091 0.0
C3986 C 0.5953 0.05509 0.91437 0.0
C3987 C 0.58571 0.05952 0.92597 0.0
C3988 C 0.56989 0.05808 0.92189 0.0
C3989 C 0.564 0.05265 0.90586 0.0
C3990 C 0.57365 0.04839 0.89423 0.0
H3991 H 0.62518 0.08014 0.88397 0.0
H3992 H 0.60719 0.07797 0.89314 0.0
H3993 H 0.62365 0.07302 0.9026 0.0
H3994 H 0.60732 0.05578 0.9179 0.0
H3995 H 0.59066 0.06388 0.93819 0.0
H3996 H 0.30932 0.33659 0.10168 0.0
H3997 H 0.30813 0.32784 0.12761 0.0
H3998 H 0.27038 0.35138 0.13773 0.0
H3999 H 0.27146 0.36013 0.11185 0.0
H4000 H 0.31231 0.34675 0.15751 0.0
H4001 H 0.25366 0.30636 0.14796 0.0
H4002 H 0.26378 0.31351 0.13178 0.0
H4003 H 0.25423 0.32668 0.14446 0.0
C4004 C 0.30075 0.3399 0.10942 0.0
C4005 C 0.29045 0.34903 0.10462 0.0
C4006 C 0.30005 0.33484 0.12422 0.0
C4007 C 0.28903 0.33875 0.13457 0.0
C4008 C 0.27874 0.34786 0.12983 0.0
H4009 H 0.29438 0.33538 0.23698 0.0
H4010 H 0.29306 0.34433 0.21118 0.0
C4011 C 0.27938 0.35287 0.115 0.0
C4012 C 0.28876 0.33386 0.15056 0.0
H4013 H 0.26591 0.31224 0.17432 0.0
C4014 C 0.30216 0.33921 0.16117 0.0
C4015 C 0.27555 0.32389 0.15533 0.0
C4016 C 0.26103 0.31713 0.14425 0.0
C4017 C 0.3027 0.33496 0.1764 0.0
C4018 C 0.2894 0.32529 0.18128 0.0
C4019 C 0.27603 0.31983 0.17065 0.0
C4020 C 0.28946 0.32 0.19705 0.0
C4021 C 0.31762 0.34052 0.187 0.0
C4022 C 0.2875 0.30335 0.19774 0.0
C4023 C 0.28839 0.29826 0.21245 0.0
C4024 C 0.29112 0.30966 0.22685 0.0
C4025 C 0.29263 0.32631 0.22615 0.0
C4026 C 0.29181 0.33143 0.2114 0.0
H4027 H 0.32757 0.34486 0.18026 0.0
H4028 H 0.31665 0.35077 0.19656 0.0
H4029 H 0.32003 0.33045 0.19279 0.0
H4030 H 0.28571 0.2943 0.18685 0.0
H4031 H 0.28751 0.28543 0.21245 0.0
H4032 H 0.22634 0.9515 0.99361 0.0
H4033 H 0.20511 0.96597 0.99449 0.0
H4034 H 0.23172 0.00394 0.03146 0.0
H4035 H 0.25285 0.98955 0.03075 0.0
H4036 H 0.19358 0.97731 0.02994 0.0
H4037 H 0.21169 0.0242 0.99218 0.0
H4038 H 0.21659 0.0044 0.98837 0.0
H4039 H 0.22621 0.01953 0.00504 0.0
C4040 C 0.2277 0.96306 0.00172 0.0
C4041 C 0.2411 0.9694 0.01221 0.0
C4042 C 0.21563 0.97126 0.00222 0.0
C4043 C 0.217 0.98598 0.01299 0.0
C4044 C 0.23058 0.99262 0.02303 0.0
H4045 H 0.16606 0.05903 0.04173 0.0
H4046 H 0.1852 0.04298 0.03462 0.0
C4047 C 0.24254 0.98437 0.02267 0.0
C4048 C 0.20383 0.99382 0.01496 0.0
H4049 H 0.19058 0.02676 0.00744 0.0
C4050 C 0.19272 0.988 0.0249 0.0
C4051 C 0.20307 0.00783 0.00849 0.0
C4052 C 0.21496 0.01443 0.99785 0.0
C4053 C 0.18105 0.99627 0.0291 0.0
C4054 C 0.18025 0.01043 0.02269 0.0
C4055 C 0.1912 0.01594 0.01235 0.0
C4056 C 0.16851 0.02006 0.027 0.0
C4057 C 0.17026 0.99017 0.04098 0.0
C4058 C 0.15276 0.01255 0.02502 0.0
C4059 C 0.14182 0.02154 0.0297 0.0
C4060 C 0.14632 0.03845 0.03586 0.0
C4061 C 0.16212 0.04602 0.03737 0.0
C4062 C 0.17309 0.03689 0.03309 0.0
H4063 H 0.17534 0.9826 0.04826 0.0
H4064 H 0.16733 1.00046 0.0492 0.0
H4065 H 0.15943 0.98237 0.03445 0.0
H4066 H 0.14889 0.99968 0.01994 0.0
H4067 H 0.12984 0.0151 0.0286 0.0
H4068 H 0.71557 0.61544 0.97962 0.0
H4069 H 0.68912 0.59935 0.97888 0.0
H4070 H 0.68048 0.63393 0.01861 0.0
H4071 H 0.70664 0.65029 0.01913 0.0
H4072 H 0.67442 0.5843 0.00227 0.0
H4073 H 0.64412 0.63076 0.98652 0.0
H4074 H 0.6645 0.63234 0.98476 0.0
H4075 H 0.65761 0.6384 0.00384 0.0
C4076 C 0.70799 0.61974 0.98807 0.0
C4077 C 0.71329 0.63423 0.99942 0.0
C4078 C 0.69288 0.61046 0.9877 0.0
C4079 C 0.68269 0.61553 0.99853 0.0
C4080 C 0.68799 0.6299 0.00992 0.0
H4081 H 0.59263 0.5817 0.02773 0.0
H4082 H 0.61855 0.59562 0.02347 0.0
C4083 C 0.70306 0.63915 0.01033 0.0
C4084 C 0.66663 0.60569 0.99824 0.0
H4085 H 0.62879 0.60833 0.99612 0.0
C4086 C 0.66442 0.58947 0.00072 0.0
C4087 C 0.65355 0.6124 0.99615 0.0
C4088 C 0.65502 0.62937 0.99251 0.0
C4089 C 0.64959 0.58007 0.00187 0.0
C4090 C 0.63657 0.58699 0.0003 0.0
C4091 C 0.63875 0.60304 0.99739 0.0
C4092 C 0.6207 0.57818 0.00258 0.0
C4093 C 0.64798 0.56304 0.0054 0.0
C4094 C 0.61311 0.56377 0.99212 0.0
C4095 C 0.59812 0.55574 0.99448 0.0
C4096 C 0.59046 0.56192 0.00739 0.0
C4097 C 0.5981 0.57646 0.0177 0.0
C4098 C 0.61298 0.58449 0.01528 0.0
H4099 H 0.65927 0.56064 0.00921 0.0
H4100 H 0.64006 0.56107 0.01491 0.0
H4101 H 0.64298 0.55399 0.99448 0.0
H4102 H 0.61872 0.55883 0.98205 0.0
H4103 H 0.59254 0.54477 0.98613 0.0
H4104 H 0.69884 0.42438 0.28398 0.0
H4105 H 0.7125 0.40241 0.28456 0.0
H4106 H 0.73737 0.41628 0.24524 0.0
H4107 H 0.72443 0.43881 0.24513 0.0
H4108 H 0.71429 0.37542 0.2674 0.0
H4109 H 0.77382 0.41162 0.26976 0.0
H4110 H 0.75761 0.42118 0.27184 0.0
H4111 H 0.7625 0.41302 0.25231 0.0
C4112 C 0.7074 0.42318 0.27556 0.0
C4113 C 0.71026 0.43414 0.2646 0.0
C4114 C 0.71527 0.4102 0.27581 0.0
C4115 C 0.7266 0.40732 0.26522 0.0
C4116 C 0.72927 0.41803 0.25408 0.0
H4117 H 0.77977 0.32613 0.24794 0.0
H4118 H 0.76797 0.34961 0.24539 0.0
C4119 C 0.72145 0.43105 0.25384 0.0
C4120 C 0.73508 0.39305 0.26562 0.0
H4121 H 0.7708 0.38273 0.26484 0.0
C4122 C 0.72667 0.37727 0.26691 0.0
C4123 C 0.7514 0.39469 0.26499 0.0
C4124 C 0.76189 0.41106 0.26482 0.0
C4125 C 0.73371 0.36365 0.26736 0.0
C4126 C 0.74996 0.36529 0.26666 0.0
C4127 C 0.75841 0.38098 0.26524 0.0
C4128 C 0.75823 0.35117 0.26824 0.0
C4129 C 0.72348 0.34735 0.26833 0.0
C4130 C 0.7574 0.34395 0.28201 0.0
C4131 C 0.76443 0.33072 0.28359 0.0
C4132 C 0.77277 0.32377 0.27154 0.0
C4133 C 0.77379 0.33103 0.25771 0.0
C4134 C 0.76687 0.34456 0.25621 0.0
H4135 H 0.71125 0.34671 0.26437 0.0
H4136 H 0.72739 0.33719 0.2609 0.0
H4137 H 0.724 0.3455 0.2809 0.0
H4138 H 0.75121 0.34857 0.29173 0.0
H4139 H 0.76316 0.32573 0.29445 0.0
H4140 H 0.87451 0.51557 0.53974 0.0
H4141 H 0.90063 0.5302 0.53576 0.0
H4142 H 0.91565 0.48475 0.52966 0.0
H4143 H 0.88988 0.47012 0.53311 0.0
H4144 H 0.9307 0.52995 0.55299 0.0
H4145 H 0.92588 0.50418 0.48845 0.0
H4146 H 0.90923 0.50516 0.49961 0.0
H4147 H 0.9192 0.48891 0.50023 0.0
C4148 C 0.88344 0.50877 0.53761 0.0
C4149 C 0.88016 0.49171 0.5368 0.0
C4150 C 0.89828 0.51711 0.53537 0.0
C4151 C 0.90985 0.50842 0.53213 0.0
C4152 C 0.90674 0.49157 0.53191 0.0
H4153 H 1.00027 0.50257 0.52566 0.0
H4154 H 0.97223 0.50029 0.52452 0.0
C4155 C 0.89204 0.48328 0.53413 0.0
C4156 C 0.92538 0.51653 0.52892 0.0
H4157 H 0.95171 0.51173 0.5019 0.0
C4158 C 0.9353 0.52648 0.54169 0.0
C4159 C 0.93118 0.512 0.5141 0.0
C4160 C 0.92077 0.50211 0.49976 0.0
C4161 C 0.95124 0.53074 0.54045 0.0
C4162 C 0.95716 0.52484 0.52607 0.0
C4163 C 0.94708 0.51605 0.51292 0.0
C4164 C 0.9738 0.52612 0.52509 0.0
C4165 C 0.96174 0.54044 0.55483 0.0
C4166 C 0.98373 0.5413 0.52552 0.0
C4167 C 0.9996 0.54255 0.52617 0.0
C4168 C 0.00573 0.52861 0.52587 0.0
C4169 C 0.99574 0.51337 0.52528 0.0
C4170 C 0.97982 0.5121 0.52471 0.0
H4171 H 0.95538 0.54256 0.56559 0.0
H4172 H 0.9709 0.53398 0.55755 0.0
H4173 H 0.96749 0.5525 0.5522 0.0
H4174 H 0.97925 0.55222 0.52579 0.0
H4175 H 0.00696 0.55446 0.52713 0.0
H4176 H 0.38834 0.12868 0.29759 0.0
H4177 H 0.37502 0.14905 0.29005 0.0
H4178 H 0.33259 0.1231 0.3048 0.0
H4179 H 0.34582 0.10262 0.31226 0.0
H4180 H 0.34762 0.13281 0.26552 0.0
H4181 H 0.33449 0.17474 0.31798 0.0
H4182 H 0.35151 0.16629 0.31803 0.0
H4183 H 0.33302 0.15364 0.31969 0.0
C4184 C 0.37635 0.12776 0.29991 0.0
C4185 C 0.36801 0.11409 0.30536 0.0
C4186 C 0.36877 0.13934 0.29554 0.0
C4187 C 0.35289 0.13747 0.29689 0.0
C4188 C 0.34491 0.12476 0.30386 0.0
H4189 H 0.27729 0.172 0.25944 0.0
H4190 H 0.29375 0.15627 0.27091 0.0
C4191 C 0.35243 0.11308 0.30806 0.0
C4192 C 0.34407 0.14652 0.28814 0.0
H4193 H 0.32129 0.17418 0.29295 0.0
C4194 C 0.34199 0.14202 0.27145 0.0
C4195 C 0.33671 0.15831 0.29605 0.0
C4196 C 0.33905 0.16368 0.31393 0.0
C4197 C 0.33232 0.14876 0.26241 0.0
C4198 C 0.32474 0.16037 0.27032 0.0
C4199 C 0.32705 0.16511 0.287 0.0
C4200 C 0.31449 0.16795 0.26148 0.0
C4201 C 0.32989 0.1431 0.24454 0.0
C4202 C 0.32071 0.17922 0.252 0.0
C4203 C 0.31136 0.1881 0.24541 0.0
C4204 C 0.2957 0.18581 0.24826 0.0
C4205 C 0.28928 0.17377 0.25691 0.0
C4206 C 0.29867 0.16495 0.26358 0.0
H4207 H 0.33441 0.13199 0.24064 0.0
H4208 H 0.31742 0.14045 0.24044 0.0
H4209 H 0.33595 0.15297 0.23861 0.0
H4210 H 0.33293 0.18173 0.25037 0.0
H4211 H 0.31654 0.19741 0.23885 0.0
H4212 H 0.35506 0.13296 0.52838 0.0
H4213 H 0.37624 0.11873 0.52875 0.0
H4214 H 0.39398 0.13941 0.48884 0.0
H4215 H 0.37301 0.15407 0.48856 0.0
H4216 H 0.38691 0.09913 0.49098 0.0
H4217 H 0.42729 0.14548 0.53646 0.0
H4218 H 0.40684 0.14206 0.53866 0.0
H4219 H 0.41444 0.15114 0.52241 0.0
C4220 C 0.36355 0.13469 0.51979 0.0
C4221 C 0.3623 0.14473 0.50847 0.0
C4222 C 0.3756 0.12646 0.51997 0.0
C4223 C 0.38667 0.12806 0.50886 0.0
C4224 C 0.38553 0.13801 0.49751 0.0
H4225 H 0.47049 0.08963 0.519 0.0
H4226 H 0.45292 0.10646 0.51192 0.0
C4227 C 0.37347 0.14629 0.49732 0.0
C4228 C 0.39924 0.11904 0.50906 0.0
H4229 H 0.43363 0.11982 0.52912 0.0
C4230 C 0.39721 0.10369 0.49919 0.0
C4231 C 0.41277 0.12516 0.51954 0.0
C4232 C 0.41564 0.1419 0.52988 0.0
C4233 C 0.40813 0.09399 0.49996 0.0
C4234 C 0.42124 0.09961 0.51125 0.0
C4235 C 0.42357 0.11536 0.52058 0.0
C4236 C 0.43203 0.08896 0.51435 0.0
C4237 C 0.40544 0.07783 0.4886 0.0
C4238 C 0.42626 0.07348 0.51806 0.0
C4239 C 0.43623 0.06369 0.52173 0.0
C4240 C 0.45237 0.06926 0.52231 0.0
C4241 C 0.45817 0.08477 0.51851 0.0
C4242 C 0.44812 0.0945 0.51459 0.0
H4243 H 0.39881 0.07818 0.47733 0.0
H4244 H 0.41648 0.07441 0.48562 0.0
H4245 H 0.39852 0.06815 0.49418 0.0
H4246 H 0.41397 0.06902 0.51843 0.0
H4247 H 0.4312 0.05175 0.52427 0.0
H4248 H 0.73651 0.59912 0.27501 0.0
H4249 H 0.74924 0.62779 0.27575 0.0
H4250 H 0.70506 0.63919 0.26697 0.0
H4251 H 0.69224 0.61076 0.26669 0.0
H4252 H 0.75127 0.64781 0.25408 0.0
H4253 H 0.7223 0.67515 0.30414 0.0
H4254 H 0.721 0.65342 0.29914 0.0
H4255 H 0.70887 0.66296 0.28809 0.0
C4256 C 0.72939 0.60769 0.27345 0.0
C4257 C 0.71316 0.60222 0.27085 0.0
C4258 C 0.73678 0.62424 0.27376 0.0
C4259 C 0.72828 0.63612 0.2717 0.0
C4260 C 0.71209 0.63066 0.26898 0.0
H4261 H 0.75165 0.74145 0.26541 0.0
H4262 H 0.73894 0.71296 0.2655 0.0
C4263 C 0.70471 0.61413 0.2686 0.0
C4264 C 0.73629 0.65397 0.27206 0.0
H4265 H 0.73679 0.69369 0.28953 0.0
C4266 C 0.74811 0.65776 0.26195 0.0
C4267 C 0.73239 0.66733 0.28222 0.0
C4268 C 0.72056 0.66456 0.29413 0.0
C4269 C 0.75572 0.67414 0.26149 0.0
C4270 C 0.75178 0.68748 0.2716 0.0
C4271 C 0.73996 0.68371 0.2817 0.0
C4272 C 0.75973 0.70529 0.27186 0.0
C4273 C 0.7677 0.67703 0.24976 0.0
C4274 C 0.77578 0.71107 0.27575 0.0
C4275 C 0.78312 0.72758 0.27591 0.0
C4276 C 0.77481 0.73902 0.27201 0.0
C4277 C 0.75868 0.73325 0.26838 0.0
C4278 C 0.7513 0.71678 0.26842 0.0
H4279 H 0.7666 0.6662 0.24011 0.0
H4280 H 0.76676 0.68775 0.24425 0.0
H4281 H 0.77937 0.67955 0.25613 0.0
H4282 H 0.78269 0.70281 0.27885 0.0
H4283 H 0.79538 0.73132 0.27915 0.0
H4284 H 0.83685 0.46427 0.75227 0.0
H4285 H 0.82042 0.43664 0.74771 0.0
H4286 H 0.83341 0.43213 0.7959 0.0
H4287 H 0.84963 0.45968 0.80054 0.0
H4288 H 0.83308 0.41111 0.74853 0.0
H4289 H 0.78834 0.4096 0.79123 0.0
H4290 H 0.79892 0.4285 0.78636 0.0
H4291 H 0.80705 0.41915 0.8012 0.0
C4292 C 0.83592 0.45747 0.76196 0.0
C4293 C 0.84457 0.464 0.77671 0.0
C4294 C 0.82646 0.44178 0.75939 0.0
C4295 C 0.82555 0.43243 0.77153 0.0
C4296 C 0.83358 0.43929 0.78652 0.0
H4297 H 0.82981 0.33579 0.77207 0.0
H4298 H 0.83159 0.36533 0.77553 0.0
C4299 C 0.84294 0.455 0.78912 0.0
C4300 C 0.81863 0.41473 0.76781 0.0
H4301 H 0.79599 0.38389 0.78244 0.0
C4302 C 0.82472 0.40519 0.75574 0.0
C4303 C 0.80763 0.40702 0.77713 0.0
C4304 C 0.8 0.41665 0.78958 0.0
C4305 C 0.82098 0.38813 0.75356 0.0
C4306 C 0.81105 0.38052 0.7638 0.0
C4307 C 0.80398 0.38991 0.775 0.0
C4308 C 0.80894 0.36293 0.76367 0.0
C4309 C 0.82814 0.37834 0.74075 0.0
C4310 C 0.79557 0.35202 0.75603 0.0
C4311 C 0.79456 0.33522 0.75419 0.0
C4312 C 0.8066 0.32923 0.76052 0.0
C4313 C 0.81999 0.34019 0.76808 0.0
C4314 C 0.82107 0.35698 0.76985 0.0
H4315 H 0.833 0.38573 0.73187 0.0
H4316 H 0.83763 0.37397 0.74636 0.0
H4317 H 0.81949 0.36744 0.73441 0.0
H4318 H 0.78627 0.35647 0.75089 0.0
H4319 H 0.78461 0.32698 0.74743 0.0
H4320 H 0.09163 0.89242 0.07079 0.0
H4321 H 0.08834 0.91628 0.05976 0.0
H4322 H 0.03893 0.89984 0.05775 0.0
H4323 H 0.04208 0.87545 0.06793 0.0
H4324 H 0.04657 0.91294 0.03193 0.0
H4325 H 0.07784 0.95566 0.0854 0.0
H4326 H 0.08942 0.94281 0.07557 0.0
H4327 H 0.0726 0.9339 0.08463 0.0
C4328 C 0.08002 0.89366 0.06781 0.0
C4329 C 0.06714 0.88189 0.07056 0.0
C4330 C 0.07815 0.90753 0.06166 0.0
C4331 C 0.06337 0.91026 0.05826 0.0
C4332 C 0.05049 0.89826 0.06041 0.0
H4333 H 0.04561 0.00629 0.05832 0.0
H4334 H 0.04749 0.97925 0.06288 0.0
C4335 C 0.05234 0.88432 0.06645 0.0
C4336 C 0.06128 0.92577 0.05298 0.0
H4337 H 0.07092 0.96747 0.06379 0.0
C4338 C 0.05187 0.92487 0.03893 0.0
C4339 C 0.06801 0.94145 0.06208 0.0
C4340 C 0.0774 0.94357 0.07783 0.0
C4341 C 0.04898 0.93906 0.03384 0.0
C4342 C 0.05593 0.95477 0.04286 0.0
C4343 C 0.0655 0.95558 0.05677 0.0
C4344 C 0.0529 0.97056 0.03892 0.0
C4345 C 0.0381 0.93692 0.01914 0.0
C4346 C 0.05477 0.97489 0.02372 0.0
C4347 C 0.05318 0.9904 0.02095 0.0
C4348 C 0.05001 1.00202 0.03341 0.0
C4349 C 0.04796 0.99758 0.04844 0.0
C4350 C 0.04914 0.98208 0.05108 0.0
H4351 H 0.03029 0.92458 0.01654 0.0
H4352 H 0.03096 0.9462 0.02044 0.0
H4353 H 0.0449 0.93834 0.0087 0.0
H4354 H 0.05805 0.96658 0.01413 0.0
H4355 H 0.05518 0.99358 0.00934 0.0
H4356 H 0.95076 0.28925 0.86208 0.0
H4357 H 0.92703 0.2909 0.84721 0.0
H4358 H 0.90265 0.24733 0.8621 0.0
H4359 H 0.92638 0.24555 0.87707 0.0
H4360 H 0.90511 0.25911 0.8221 0.0
H4361 H 0.87901 0.28932 0.87358 0.0
H4362 H 0.89972 0.29263 0.8731 0.0
H4363 H 0.88881 0.27322 0.8759 0.0
C4364 C 0.94036 0.28004 0.86231 0.0
C4365 C 0.94061 0.26727 0.87089 0.0
C4366 C 0.92677 0.28098 0.85371 0.0
C4367 C 0.91297 0.2693 0.85355 0.0
C4368 C 0.91312 0.25652 0.86204 0.0
H4369 H 0.8188 0.27157 0.81668 0.0
H4370 H 0.84114 0.26708 0.83212 0.0
C4371 C 0.92676 0.25547 0.87054 0.0
C4372 C 0.89853 0.27045 0.84437 0.0
H4373 H 0.8654 0.28468 0.8483 0.0
C4374 C 0.8964 0.26467 0.82782 0.0
C4375 C 0.887 0.27744 0.85181 0.0
C4376 C 0.88861 0.28357 0.86958 0.0
C4377 C 0.88315 0.26569 0.81853 0.0
C4378 C 0.87185 0.27339 0.82582 0.0
C4379 C 0.87393 0.2789 0.8425 0.0
C4380 C 0.85804 0.27607 0.8164 0.0
C4381 C 0.88131 0.258 0.80106 0.0
C4382 C 0.85981 0.28293 0.80249 0.0
C4383 C 0.847 0.28504 0.79346 0.0
C4384 C 0.83201 0.28096 0.79832 0.0
C4385 C 0.83019 0.27478 0.81257 0.0
C4386 C 0.84301 0.27223 0.82142 0.0
H4387 H 0.88737 0.24778 0.79883 0.0
H4388 H 0.86898 0.2532 0.7966 0.0
H4389 H 0.88657 0.26728 0.79404 0.0
H4390 H 0.87117 0.28681 0.7986 0.0
H4391 H 0.84888 0.29021 0.78276 0.0
H4392 H 0.54498 0.21231 0.57465 0.0
H4393 H 0.5442 0.18349 0.56472 0.0
H4394 H 0.58622 0.19689 0.54229 0.0
H4395 H 0.58704 0.22585 0.55207 0.0
H4396 H 0.54322 0.16543 0.53404 0.0
H4397 H 0.59695 0.16543 0.57014 0.0
H4398 H 0.58716 0.18206 0.57358 0.0
H4399 H 0.59884 0.1801 0.55708 0.0
C4400 C 0.55397 0.20923 0.5674 0.0
C4401 C 0.56613 0.22155 0.56428 0.0
C4402 C 0.55354 0.19266 0.56179 0.0
C4403 C 0.56528 0.18792 0.55296 0.0
C4404 C 0.5772 0.20017 0.54938 0.0
H4405 H 0.554 0.08325 0.50901 0.0
H4406 H 0.56018 0.11322 0.51198 0.0
C4407 C 0.57765 0.21677 0.555 0.0
C4408 C 0.56509 0.17017 0.54788 0.0
H4409 H 0.58438 0.14053 0.55374 0.0
C4410 C 0.55229 0.16001 0.53822 0.0
C4411 C 0.57689 0.16304 0.5534 0.0
C4412 C 0.5907 0.17314 0.56423 0.0
C4413 C 0.5508 0.14296 0.53423 0.0
C4414 C 0.56251 0.1358 0.53991 0.0
C4415 C 0.57548 0.14601 0.54927 0.0
C4416 C 0.56068 0.11769 0.53779 0.0
C4417 C 0.53636 0.13265 0.52456 0.0
C4418 C 0.55961 0.11018 0.55127 0.0
C4419 C 0.55626 0.09314 0.54959 0.0
C4420 C 0.55412 0.08315 0.53441 0.0
C4421 C 0.55582 0.09061 0.52088 0.0
C4422 C 0.55917 0.10775 0.52257 0.0
H4423 H 0.52726 0.13966 0.52356 0.0
H4424 H 0.5392 0.12814 0.51232 0.0
H4425 H 0.53163 0.12185 0.52997 0.0
H4426 H 0.56075 0.11753 0.56313 0.0
H4427 H 0.55488 0.08772 0.5602 0.0
H4428 H 0.60553 0.79576 0.39368 0.0
H4429 H 0.62902 0.79837 0.37949 0.0
H4430 H 0.60526 0.76006 0.34127 0.0
H4431 H 0.58172 0.75758 0.35516 0.0
H4432 H 0.64683 0.77459 0.36818 0.0
H4433 H 0.62222 0.79826 0.31838 0.0
H4434 H 0.61351 0.79782 0.33703 0.0
H4435 H 0.61065 0.77951 0.32218 0.0
C4436 C 0.60523 0.78797 0.38219 0.0
C4437 C 0.59157 0.77652 0.37559 0.0
C4438 C 0.61876 0.78939 0.37413 0.0
C4439 C 0.61895 0.77956 0.35917 0.0
C4440 C 0.60543 0.76796 0.35268 0.0
H4441 H 0.68024 0.77009 0.28428 0.0
H4442 H 0.65972 0.7674 0.30228 0.0
C4443 C 0.59195 0.76646 0.36074 0.0
C4444 C 0.63311 0.78153 0.35016 0.0
H4445 H 0.64613 0.79068 0.31497 0.0
C4446 C 0.64673 0.7782 0.35658 0.0
C4447 C 0.63308 0.78633 0.33505 0.0
C4448 C 0.61915 0.79084 0.32778 0.0
C4449 C 0.66003 0.77891 0.34805 0.0
C4450 C 0.65989 0.78341 0.33276 0.0
C4451 C 0.64635 0.7871 0.32658 0.0
C4452 C 0.67329 0.78387 0.32258 0.0
C4453 C 0.67391 0.77426 0.35527 0.0
C4454 C 0.68808 0.79374 0.32793 0.0
C4455 C 0.70001 0.79514 0.31758 0.0
C4456 C 0.69733 0.78692 0.30159 0.0
C4457 C 0.6827 0.77667 0.29648 0.0
C4458 C 0.6709 0.77516 0.3068 0.0
H4459 H 0.67079 0.76692 0.36472 0.0
H4460 H 0.67944 0.76715 0.34602 0.0
H4461 H 0.6825 0.78554 0.36082 0.0
H4462 H 0.69027 0.8009 0.3399 0.0
H4463 H 0.71106 0.8033 0.32185 0.0
H4464 H 0.09859 0.24797 0.44582 0.0
H4465 H 0.09383 0.22654 0.46195 0.0
H4466 H 0.04995 0.20529 0.43481 0.0
H4467 H 0.05484 0.22634 0.41825 0.0
H4468 H 0.06977 0.22073 0.48088 0.0
H4469 H 0.06883 0.16559 0.43531 0.0
H4470 H 0.07658 0.18606 0.43208 0.0
H4471 H 0.05607 0.17795 0.42991 0.0
C4472 C 0.08807 0.23855 0.44305 0.0
C4473 C 0.0771 0.23887 0.43072 0.0
C4474 C 0.08532 0.22637 0.45236 0.0
C4475 C 0.07161 0.21423 0.44948 0.0
C4476 C 0.06072 0.21438 0.43707 0.0
H4477 H 0.03035 0.15474 0.51634 0.0
H4478 H 0.03638 0.17452 0.4985 0.0
C4479 C 0.06346 0.22654 0.42774 0.0
C4480 C 0.06832 0.20202 0.46009 0.0
H4481 H 0.06009 0.16103 0.46047 0.0
C4482 C 0.06772 0.20768 0.47643 0.0
C4483 C 0.06578 0.18501 0.45427 0.0
C4484 C 0.06698 0.17825 0.43696 0.0
C4485 C 0.06441 0.19679 0.4871 0.0
C4486 C 0.06139 0.17977 0.48122 0.0
C4487 C 0.06225 0.17409 0.46491 0.0
C4488 C 0.05761 0.16769 0.49188 0.0
C4489 C 0.06441 0.2036 0.50462 0.0
C4490 C 0.0674 0.1571 0.49384 0.0
C4491 C 0.064 0.14583 0.50404 0.0
C4492 C 0.05069 0.14484 0.51241 0.0
C4493 C 0.04083 0.15539 0.5103 0.0
C4494 C 0.04424 0.16667 0.50009 0.0
H4495 H 0.07058 0.21666 0.50769 0.0
H4496 H 0.05232 0.20275 0.50767 0.0
H4497 H 0.06989 0.19652 0.51211 0.0
H4498 H 0.07777 0.1577 0.48761 0.0
H4499 H 0.07192 0.13799 0.5055 0.0
H4500 H 0.5697 0.24428 0.2037 0.0
H4501 H 0.59445 0.24268 0.21653 0.0
H4502 H 0.61728 0.28494 0.19833 0.0
H4503 H 0.59259 0.28662 0.18538 0.0
H4504 H 0.62875 0.25153 0.19252 0.0
H4505 H 0.62285 0.27972 0.25514 0.0
H4506 H 0.60617 0.26593 0.24382 0.0
H4507 H 0.61365 0.28521 0.23813 0.0
C4508 C 0.57999 0.25325 0.20246 0.0
C4509 C 0.57924 0.26556 0.19352 0.0
C4510 C 0.59405 0.25237 0.20985 0.0
C4511 C 0.60757 0.26373 0.20837 0.0
C4512 C 0.60689 0.27613 0.19962 0.0
H4513 H 0.69841 0.27426 0.25658 0.0
H4514 H 0.67464 0.27921 0.24479 0.0
C4515 C 0.5928 0.27711 0.19232 0.0
C4516 C 0.62251 0.2621 0.21533 0.0
H4517 H 0.64426 0.2677 0.25069 0.0
C4518 C 0.63223 0.25511 0.20522 0.0
C4519 C 0.62695 0.26697 0.23184 0.0
C4520 C 0.61696 0.27497 0.24295 0.0
C4521 C 0.64625 0.25251 0.21129 0.0
C4522 C 0.65047 0.25683 0.22793 0.0
C4523 C 0.6409 0.26424 0.23797 0.0
C4524 C 0.66476 0.25372 0.23514 0.0
C4525 C 0.65647 0.24531 0.19983 0.0
C4526 C 0.66694 0.23771 0.23384 0.0
C4527 C 0.68057 0.23484 0.24043 0.0
C4528 C 0.69221 0.24794 0.24855 0.0
C4529 C 0.68979 0.26393 0.25016 0.0
C4530 C 0.67619 0.26678 0.24353 0.0
H4531 H 0.65368 0.24685 0.18742 0.0
H4532 H 0.66884 0.25104 0.20342 0.0
H4533 H 0.6547 0.23201 0.19988 0.0
H4534 H 0.65811 0.22743 0.22767 0.0
H4535 H 0.6821 0.2224 0.2389 0.0
H4536 H 0.61328 0.90327 0.91303 0.0
H4537 H 0.61141 0.93097 0.92409 0.0
H4538 H 0.60482 0.91736 0.97019 0.0
H4539 H 0.60784 0.88995 0.95953 0.0
H4540 H 0.58528 0.93585 0.93346 0.0
H4541 H 0.62909 0.96295 0.98405 0.0
H4542 H 0.63071 0.94536 0.96963 0.0
H4543 H 0.61941 0.9429 0.98641 0.0
C4544 C 0.61218 0.90631 0.9257 0.0
C4545 C 0.61048 0.89425 0.93534 0.0
C4546 C 0.61099 0.92218 0.93198 0.0
C4547 C 0.60797 0.92629 0.94796 0.0
C4548 C 0.60743 0.91463 0.95789 0.0
H4549 H 0.55574 0.97976 0.00454 0.0
H4550 H 0.57042 0.96142 0.99048 0.0
C4551 C 0.60887 0.89882 0.95169 0.0
C4552 C 0.60256 0.94143 0.95344 0.0
H4553 H 0.60466 0.9719 0.98561 0.0
C4554 C 0.58981 0.94402 0.94464 0.0
C4555 C 0.60847 0.9521 0.96802 0.0
C4556 C 0.62278 0.95076 0.97744 0.0
C4557 C 0.58213 0.95623 0.95059 0.0
C4558 C 0.58735 0.96604 0.96569 0.0
C4559 C 0.60063 0.96416 0.97407 0.0
C4560 C 0.57828 0.97713 0.97367 0.0
C4561 C 0.56792 0.95792 0.9412 0.0
C4562 C 0.57764 0.99181 0.96859 0.0
C4563 C 0.5693 1.00236 0.97666 0.0
C4564 C 0.56159 0.99832 0.98993 0.0
C4565 C 0.56183 0.98332 0.99458 0.0
C4566 C 0.57018 0.97284 0.98656 0.0
H4567 H 0.56469 0.94845 0.93019 0.0
H4568 H 0.55803 0.95701 0.9487 0.0
H4569 H 0.57003 0.97014 0.93773 0.0
H4570 H 0.58386 0.99526 0.95864 0.0
H4571 H 0.56943 0.01393 0.97292 0.0
H4572 H 0.92799 0.74429 0.69732 0.0
H4573 H 0.90583 0.74589 0.71281 0.0
H4574 H 0.93255 0.78874 0.74433 0.0
H4575 H 0.95497 0.78708 0.72908 0.0
H4576 H 0.90054 0.75101 0.74904 0.0
H4577 H 0.89707 0.80167 0.71611 0.0
H4578 H 0.90788 0.78643 0.70952 0.0
H4579 H 0.91527 0.80212 0.72659 0.0
C4580 C 0.92935 0.75373 0.70787 0.0
C4581 C 0.94312 0.76576 0.71183 0.0
C4582 C 0.91668 0.7546 0.7167 0.0
C4583 C 0.91762 0.7675 0.72956 0.0
C4584 C 0.93169 0.77873 0.73437 0.0
H4585 H 0.83458 0.78282 0.77664 0.0
H4586 H 0.86134 0.78083 0.7732 0.0
C4587 C 0.94439 0.77787 0.72556 0.0
C4588 C 0.90331 0.77077 0.73593 0.0
H4589 H 0.87702 0.794 0.73188 0.0
C4590 C 0.89542 0.76052 0.74553 0.0
C4591 C 0.89673 0.78309 0.73107 0.0
C4592 C 0.90456 0.79395 0.72018 0.0
C4593 C 0.88075 0.762 0.75006 0.0
C4594 C 0.87406 0.77414 0.74491 0.0
C4595 C 0.88225 0.78474 0.7358 0.0
C4596 C 0.85799 0.77513 0.74738 0.0
C4597 C 0.87227 0.75015 0.75968 0.0
C4598 C 0.8474 0.77286 0.73401 0.0
C4599 C 0.83233 0.77443 0.73595 0.0
C4600 C 0.82766 0.77847 0.75128 0.0
C4601 C 0.83809 0.78022 0.76469 0.0
C4602 C 0.85327 0.77882 0.76275 0.0
H4603 H 0.87776 0.73963 0.76 0.0
H4604 H 0.87229 0.75657 0.77214 0.0
H4605 H 0.86007 0.74543 0.7547 0.0
H4606 H 0.85085 0.76995 0.72205 0.0
H4607 H 0.8244 0.7728 0.72545 0.0
H4608 H 0.13451 1.00125 0.85914 0.0
H4609 H 0.12287 0.00374 0.88467 0.0
H4610 H 0.09375 0.03273 0.8675 0.0
H4611 H 0.10517 0.03017 0.84189 0.0
H4612 H 0.12161 0.03128 0.90807 0.0
H4613 H 0.0618 0.99952 0.88492 0.0
H4614 H 0.07802 0.99826 0.87321 0.0
H4615 H 0.07006 0.01617 0.87533 0.0
C4616 C 0.12551 0.00804 0.86056 0.0
C4617 C 0.12098 0.01542 0.84791 0.0
C4618 C 0.11885 0.00956 0.87544 0.0
C4619 C 0.10708 0.01828 0.87841 0.0
C4620 C 0.10252 0.02566 0.86584 0.0
H4621 H 0.0472 0.03436 0.95832 0.0
H4622 H 0.05909 0.03174 0.93294 0.0
C4623 C 0.1093 0.02431 0.85102 0.0
C4624 C 0.09992 0.01991 0.89458 0.0
H4625 H 0.06562 0.01213 0.91207 0.0
C4626 C 0.10935 0.02703 0.90888 0.0
C4627 C 0.08385 0.01464 0.89612 0.0
C4628 C 0.07281 0.00659 0.88163 0.0
C4629 C 0.10335 0.02942 0.92415 0.0
C4630 C 0.08726 0.02381 0.92582 0.0
C4631 C 0.07787 0.01657 0.91142 0.0
C4632 C 0.07988 0.02554 0.94202 0.0
C4633 C 0.11451 0.03877 0.93815 0.0
C4634 C 0.08699 0.02285 0.95632 0.0
C4635 C 0.08033 0.02503 0.97116 0.0
C4636 C 0.06581 0.02914 0.97237 0.0
C4637 C 0.05833 0.03113 0.95807 0.0
C4638 C 0.06524 0.02956 0.94334 0.0
H4639 H 0.12445 0.04704 0.93423 0.0
H4640 H 0.10886 0.04627 0.94692 0.0
H4641 H 0.11923 0.03001 0.94412 0.0
H4642 H 0.09773 0.01886 0.95613 0.0
H4643 H 0.08646 0.02311 0.98171 0.0
H4644 H 0.8238 0.39937 0.60056 0.0
H4645 H 0.82451 0.38662 0.62416 0.0
H4646 H 0.78676 0.34718 0.60201 0.0
H4647 H 0.78603 0.35983 0.57821 0.0
H4648 H 0.79727 0.37593 0.64363 0.0
H4649 H 0.82498 0.32695 0.61437 0.0
H4650 H 0.82618 0.3459 0.60713 0.0
H4651 H 0.80841 0.33075 0.60389 0.0
C4652 C 0.8157 0.38794 0.60069 0.0
C4653 C 0.80494 0.38049 0.58756 0.0
C4654 C 0.81604 0.38078 0.6142 0.0
C4655 C 0.8057 0.36603 0.61471 0.0
C4656 C 0.79481 0.3586 0.60173 0.0
H4657 H 0.81449 0.30367 0.68351 0.0
H4658 H 0.80357 0.3147 0.66216 0.0
C4659 C 0.79439 0.36583 0.58822 0.0
C4660 C 0.80683 0.35817 0.62867 0.0
H4661 H 0.82108 0.32799 0.64143 0.0
C4662 C 0.8023 0.36533 0.64319 0.0
C4663 C 0.81336 0.34437 0.6279 0.0
C4664 C 0.81861 0.3365 0.61254 0.0
C4665 C 0.80439 0.35912 0.65716 0.0
C4666 C 0.8115 0.34568 0.65654 0.0
C4667 C 0.81559 0.33826 0.64186 0.0
C4668 C 0.81585 0.33969 0.671 0.0
C4669 C 0.79899 0.36701 0.67241 0.0
C4670 C 0.8261 0.35017 0.68326 0.0
C4671 C 0.83218 0.34394 0.69567 0.0
C4672 C 0.82833 0.32708 0.69584 0.0
C4673 C 0.81758 0.31674 0.68387 0.0
C4674 C 0.81138 0.323 0.67159 0.0
H4675 H 0.78941 0.373 0.66991 0.0
H4676 H 0.79505 0.35794 0.68015 0.0
H4677 H 0.80869 0.37659 0.67909 0.0
H4678 H 0.82995 0.36304 0.68288 0.0
H4679 H 0.84024 0.35226 0.70486 0.0
H4680 H 0.44849 0.03596 0.37378 0.0
H4681 H 0.46641 0.04061 0.39756 0.0
H4682 H 0.49954 0.07429 0.37702 0.0
H4683 H 0.48178 0.0694 0.35292 0.0
H4684 H 0.51142 0.04999 0.39038 0.0
H4685 H 0.47769 0.08274 0.43212 0.0
H4686 H 0.46631 0.0641 0.42045 0.0
H4687 H 0.47465 0.08063 0.41068 0.0
C4688 C 0.45963 0.04425 0.37426 0.0
C4689 C 0.46376 0.05233 0.36153 0.0
C4690 C 0.46976 0.04705 0.3879 0.0
C4691 C 0.48411 0.05801 0.38906 0.0
C4692 C 0.48841 0.06594 0.37633 0.0
H4693 H 0.55148 0.06753 0.47162 0.0
H4694 H 0.54094 0.07335 0.44668 0.0
C4695 C 0.47826 0.06317 0.36265 0.0
C4696 C 0.49475 0.06055 0.40344 0.0
H4697 H 0.49611 0.07012 0.44395 0.0
C4698 C 0.50835 0.05476 0.4021 0.0
C4699 C 0.49067 0.06694 0.41861 0.0
C4700 C 0.4766 0.07411 0.42057 0.0
C4701 C 0.51735 0.05393 0.41576 0.0
C4702 C 0.51257 0.05914 0.43093 0.0
C4703 C 0.49962 0.06605 0.43222 0.0
C4704 C 0.51947 0.05547 0.44548 0.0
C4705 C 0.53124 0.04644 0.41396 0.0
C4706 C 0.51081 0.04351 0.45288 0.0
C4707 C 0.51673 0.04014 0.46701 0.0
C4708 C 0.53142 0.04872 0.47399 0.0
C4709 C 0.54018 0.0606 0.46643 0.0
C4710 C 0.53421 0.06397 0.45223 0.0
H4711 H 0.53286 0.04212 0.40125 0.0
H4712 H 0.54177 0.05562 0.41945 0.0
H4713 H 0.53003 0.03595 0.42034 0.0
H4714 H 0.4994 0.03684 0.44773 0.0
H4715 H 0.50971 0.03088 0.47247 0.0
H4716 H 0.81659 0.75946 0.0923 0.0
H4717 H 0.81601 0.77065 0.12064 0.0
H4718 H 0.77238 0.73734 0.12147 0.0
H4719 H 0.77297 0.72582 0.09336 0.0
H4720 H 0.77473 0.77126 0.13809 0.0
H4721 H 0.82278 0.7435 0.15595 0.0
H4722 H 0.82611 0.75592 0.14082 0.0
H4723 H 0.81201 0.73692 0.13662 0.0
C4724 C 0.80688 0.75446 0.09849 0.0
C4725 C 0.79485 0.74166 0.09045 0.0
C4726 C 0.80653 0.76095 0.11468 0.0
C4727 C 0.79417 0.75479 0.12318 0.0
C4728 C 0.78197 0.74236 0.11512 0.0
H4729 H 0.78725 0.74762 0.22047 0.0
H4730 H 0.78609 0.74476 0.19145 0.0
C4731 C 0.78232 0.73583 0.09899 0.0
C4732 C 0.7943 0.76045 0.14067 0.0
H4733 H 0.81165 0.75785 0.17645 0.0
C4734 C 0.78289 0.76851 0.14652 0.0
C4735 C 0.8049 0.75675 0.15162 0.0
C4736 C 0.81711 0.74771 0.14604 0.0
C4737 C 0.78163 0.77265 0.16304 0.0
C4738 C 0.79202 0.76859 0.17395 0.0
C4739 C 0.80367 0.76095 0.16807 0.0
C4740 C 0.79038 0.77074 0.19142 0.0
C4741 C 0.76881 0.78068 0.16871 0.0
C4742 C 0.79267 0.78632 0.20112 0.0
C4743 C 0.79317 0.78796 0.21783 0.0
C4744 C 0.79141 0.77404 0.225 0.0
C4745 C 0.78852 0.75853 0.21522 0.0
C4746 C 0.7879 0.75689 0.19865 0.0
H4747 H 0.76039 0.78085 0.15872 0.0
H4748 H 0.7626 0.7742 0.17755 0.0
H4749 H 0.77379 0.79349 0.1747 0.0
H4750 H 0.79484 0.79721 0.19584 0.0
H4751 H 0.79573 0.80008 0.22513 0.0
H4752 H 0.09587 0.00913 0.68735 0.0
H4753 H 0.08403 0.01295 0.66205 0.0
H4754 H 0.12909 0.02769 0.64609 0.0
H4755 H 0.14098 0.02348 0.67099 0.0
H4756 H 0.08432 0.03883 0.6464 0.0
H4757 H 0.10974 0.99452 0.6075 0.0
H4758 H 0.11057 0.99587 0.62886 0.0
H4759 H 0.12412 0.01006 0.62012 0.0
C4760 C 0.1034 0.01299 0.67848 0.0
C4761 C 0.11966 0.01584 0.68177 0.0
C4762 C 0.09649 0.01534 0.66383 0.0
C4763 C 0.10541 0.02044 0.65153 0.0
C4764 C 0.12161 0.02343 0.65485 0.0
H4765 H 0.09108 0.03751 0.55284 0.0
H4766 H 0.1003 0.03486 0.57946 0.0
C4767 C 0.12852 0.02118 0.66948 0.0
C4768 C 0.09796 0.02264 0.63546 0.0
H4769 H 0.09774 0.0118 0.59456 0.0
C4770 C 0.08725 0.03279 0.6351 0.0
C4771 C 0.10143 0.01494 0.62031 0.0
C4772 C 0.11196 0.00311 0.61914 0.0
C4773 C 0.08063 0.03585 0.62054 0.0
C4774 C 0.08426 0.02826 0.60537 0.0
C4775 C 0.09476 0.01789 0.6058 0.0
C4776 C 0.07801 0.03117 0.58901 0.0
C4777 C 0.07024 0.0478 0.6217 0.0
C4778 C 0.06216 0.0304 0.5847 0.0
C4779 C 0.05678 0.03225 0.56915 0.0
C4780 C 0.06699 0.03479 0.55715 0.0
C4781 C 0.08274 0.03572 0.56157 0.0
C4782 C 0.08808 0.03405 0.57699 0.0
H4783 H 0.07232 0.0562 0.63346 0.0
H4784 H 0.07195 0.05526 0.61217 0.0
H4785 H 0.05804 0.04096 0.62042 0.0
H4786 H 0.05373 0.02779 0.59316 0.0
H4787 H 0.04454 0.03107 0.56636 0.0
H4788 H 0.79528 0.38092 0.42817 0.0
H4789 H 0.79655 0.36239 0.40326 0.0
H4790 H 0.83374 0.3461 0.42523 0.0
H4791 H 0.83247 0.36454 0.45036 0.0
H4792 H 0.82729 0.36286 0.38729 0.0
H4793 H 0.7972 0.30395 0.40314 0.0
H4794 H 0.79327 0.32321 0.41237 0.0
H4795 H 0.81134 0.31838 0.41737 0.0
C4796 C 0.80362 0.37327 0.42775 0.0
C4797 C 0.81377 0.37413 0.44117 0.0
C4798 C 0.80436 0.36278 0.41355 0.0
C4799 C 0.81517 0.35291 0.41257 0.0
C4800 C 0.82529 0.35362 0.4259 0.0
H4801 H 0.82907 0.30588 0.31627 0.0
H4802 H 0.83507 0.31748 0.34482 0.0
C4803 C 0.82461 0.36421 0.44014 0.0
C4804 C 0.81606 0.34236 0.39728 0.0
H4805 H 0.80319 0.30351 0.37651 0.0
C4806 C 0.82229 0.34982 0.38491 0.0
C4807 C 0.80941 0.32545 0.39442 0.0
C4808 C 0.80236 0.31714 0.40746 0.0
C4809 C 0.82141 0.3409 0.3694 0.0
C4810 C 0.81437 0.32401 0.36637 0.0
C4811 C 0.80869 0.31642 0.37895 0.0
C4812 C 0.81114 0.31457 0.34993 0.0
C4813 C 0.82717 0.34988 0.35626 0.0
C4814 C 0.79576 0.30836 0.34363 0.0
C4815 C 0.79237 0.30149 0.32749 0.0
C4816 C 0.8043 0.30081 0.31747 0.0
C4817 C 0.81971 0.30639 0.32387 0.0
C4818 C 0.82313 0.31302 0.34009 0.0
H4819 H 0.82937 0.36336 0.36009 0.0
H4820 H 0.83818 0.34676 0.35276 0.0
H4821 H 0.81872 0.34625 0.34556 0.0
H4822 H 0.78636 0.30955 0.35102 0.0
H4823 H 0.78043 0.29768 0.32272 0.0
H4824 H 0.47246 0.04783 0.22742 0.0
H4825 H 0.48523 0.04579 0.20263 0.0
H4826 H 0.4454 0.0544 0.17745 0.0
H4827 H 0.43252 0.05651 0.20229 0.0
H4828 H 0.45733 0.02259 0.16719 0.0
H4829 H 0.50074 0.08122 0.17232 0.0
H4830 H 0.4981 0.07263 0.19018 0.0
H4831 H 0.48268 0.07978 0.18143 0.0
C4832 C 0.46654 0.04957 0.21666 0.0
C4833 C 0.45149 0.05223 0.2167 0.0
C4834 C 0.47387 0.04853 0.20258 0.0
C4835 C 0.46625 0.05008 0.18834 0.0
C4836 C 0.45146 0.05335 0.18842 0.0
H4837 H 0.49945 0.02185 0.09457 0.0
H4838 H 0.48486 0.03433 0.11499 0.0
C4839 C 0.44417 0.05458 0.20257 0.0
C4840 C 0.47305 0.04614 0.17321 0.0
H4841 H 0.50411 0.0588 0.15293 0.0
C4842 C 0.46733 0.03062 0.16381 0.0
C4843 C 0.48613 0.05666 0.16904 0.0
C4844 C 0.49229 0.07358 0.17867 0.0
C4845 C 0.47492 0.025 0.15072 0.0
C4846 C 0.48841 0.03524 0.147 0.0
C4847 C 0.49373 0.05105 0.15593 0.0
C4848 C 0.49784 0.02902 0.13478 0.0
C4849 C 0.46902 0.00786 0.14145 0.0
C4850 C 0.50995 0.0221 0.13932 0.0
C4851 C 0.51823 0.01495 0.12776 0.0
C4852 C 0.51455 0.0147 0.11151 0.0
C4853 C 0.50261 0.02201 0.10704 0.0
C4854 C 0.49427 0.0291 0.11862 0.0
H4855 H 0.45815 1.00155 0.14568 0.0
H4856 H 0.46695 0.0082 0.12858 0.0
H4857 H 0.47788 1.00059 0.14259 0.0
H4858 H 0.51278 0.02195 0.15179 0.0
H4859 H 0.52749 0.00958 0.13153 0.0
H4860 H 0.7815 0.71536 0.91959 0.0
H4861 H 0.78365 0.72515 0.89432 0.0
H4862 H 0.82687 0.75822 0.91302 0.0
H4863 H 0.82473 0.74868 0.93855 0.0
H4864 H 0.78592 0.75739 0.8889 0.0
H4865 H 0.83722 0.73368 0.87035 0.0
H4866 H 0.82609 0.72675 0.88601 0.0
H4867 H 0.83935 0.74632 0.88982 0.0
C4868 C 0.79141 0.72484 0.91846 0.0
C4869 C 0.80292 0.73124 0.93122 0.0
C4870 C 0.79267 0.73034 0.90392 0.0
C4871 C 0.8055 0.74227 0.90167 0.0
C4872 C 0.81701 0.74877 0.91435 0.0
H4873 H 0.82722 0.7867 0.81751 0.0
H4874 H 0.82849 0.77853 0.8436 0.0
C4875 C 0.81575 0.74329 0.92896 0.0
C4876 C 0.8065 0.74807 0.88615 0.0
H4877 H 0.82702 0.74874 0.85328 0.0
C4878 C 0.79492 0.75551 0.88112 0.0
C4879 C 0.81833 0.74577 0.87606 0.0
C4880 C 0.83092 0.73759 0.88071 0.0
C4881 C 0.79476 0.7606 0.86628 0.0
C4882 C 0.80629 0.75781 0.85595 0.0
C4883 C 0.81811 0.75075 0.86113 0.0
C4884 C 0.80604 0.76194 0.83965 0.0
C4885 C 0.78234 0.76913 0.86192 0.0
C4886 C 0.79329 0.75489 0.82846 0.0
C4887 C 0.79245 0.75971 0.81361 0.0
C4888 C 0.80437 0.7717 0.80955 0.0
C4889 C 0.81757 0.77795 0.8204 0.0
C4890 C 0.81839 0.77315 0.8353 0.0
H4891 H 0.77732 0.77451 0.87267 0.0
H4892 H 0.78691 0.77902 0.85527 0.0
H4893 H 0.77289 0.76014 0.85419 0.0
H4894 H 0.78382 0.74584 0.83134 0.0
H4895 H 0.78218 0.75438 0.80553 0.0
H4896 H 0.87029 0.12857 0.00354 0.0
H4897 H 0.88957 0.11171 0.00138 0.0
H4898 H 0.86425 0.08069 0.03073 0.0
H4899 H 0.84486 0.09736 0.03288 0.0
H4900 H 0.90637 0.10074 0.03067 0.0
H4901 H 0.86935 0.05245 0.98392 0.0
H4902 H 0.86762 0.0735 0.98675 0.0
H4903 H 0.86069 0.06109 0.00103 0.0
C4904 C 0.8689 0.11821 0.0096 0.0
C4905 C 0.85609 0.11424 0.01836 0.0
C4906 C 0.87991 0.10867 0.00841 0.0
C4907 C 0.87819 0.095 0.01584 0.0
C4908 C 0.86568 0.09123 0.02493 0.0
H4909 H 0.92751 0.01634 0.00801 0.0
H4910 H 0.9084 0.03315 0.01307 0.0
C4911 C 0.85471 0.10081 0.02621 0.0
C4912 C 0.88916 0.08426 0.01355 0.0
H4913 H 0.8936 0.04819 0.99206 0.0
C4914 C 0.90363 0.08923 0.02227 0.0
C4915 C 0.88538 0.06928 0.00265 0.0
C4916 C 0.86995 0.06367 0.99295 0.0
C4917 C 0.91454 0.07949 0.02034 0.0
C4918 C 0.91091 0.06464 0.00914 0.0
C4919 C 0.89632 0.0596 0.0006 0.0
C4920 C 0.92226 0.05438 0.00579 0.0
C4921 C 0.92977 0.08509 0.03041 0.0
C4922 C 0.93612 0.06065 0.99962 0.0
C4923 C 0.94696 0.05109 0.99664 0.0
C4924 C 0.9441 0.03505 -0.00028 0.0
C4925 C 0.92998 0.02862 0.00543 0.0
C4926 C 0.91912 0.03822 0.00843 0.0
H4927 H 0.92905 0.09405 0.0413 0.0
H4928 H 0.93367 0.07458 0.03409 0.0
H4929 H 0.93864 0.09115 0.02334 0.0
H4930 H 0.93855 0.07295 0.9971 0.0
H4931 H 0.95761 0.05627 0.99194 0.0
H4932 H 0.37236 0.45992 0.01907 0.0
H4933 H 0.39879 0.47593 0.01939 0.0
H4934 H 0.41508 0.44706 0.0506 0.0
H4935 H 0.38869 0.43091 0.05032 0.0
H4936 H 0.42202 0.49205 0.05237 0.0
H4937 H 0.43931 0.44655 0.00581 0.0
H4938 H 0.41951 0.44858 0.00633 0.0
H4939 H 0.42781 0.43962 0.02121 0.0
C4940 C 0.38156 0.45695 0.02599 0.0
C4941 C 0.37838 0.44409 0.03465 0.0
C4942 C 0.39663 0.46617 0.02622 0.0
C4943 C 0.40886 0.46266 0.03499 0.0
C4944 C 0.40577 0.44997 0.04378 0.0
H4945 H 0.50822 0.49466 0.03179 0.0
H4946 H 0.48216 0.47999 0.03535 0.0
C4947 C 0.39068 0.44082 0.04366 0.0
C4948 C 0.42492 0.47201 0.03463 0.0
H4949 H 0.45792 0.47049 0.01623 0.0
C4950 C 0.42993 0.48738 0.04451 0.0
C4951 C 0.4352 0.46578 0.02449 0.0
C4952 C 0.4303 0.44924 0.01378 0.0
C4953 C 0.44506 0.49669 0.04461 0.0
C4954 C 0.45531 0.49069 0.0341 0.0
C4955 C 0.45019 0.4752 0.02428 0.0
C4956 C 0.47134 0.50013 0.03301 0.0
C4957 C 0.44994 0.51262 0.05633 0.0
C4958 C 0.47413 0.5164 0.03053 0.0
C4959 C 0.48913 0.52493 0.02896 0.0
C4960 C 0.50158 0.51722 0.02936 0.0
C4961 C 0.49882 0.50092 0.03157 0.0
C4962 C 0.4839 0.49252 0.03354 0.0
H4963 H 0.44302 0.51263 0.06682 0.0
H4964 H 0.46233 0.51508 0.06066 0.0
H4965 H 0.44801 0.52277 0.05041 0.0
H4966 H 0.46467 0.52242 0.02939 0.0
H4967 H 0.49086 0.5373 0.02674 0.0
H4968 H 0.39973 0.66347 0.78316 0.0
H4969 H 0.38624 0.68565 0.78302 0.0
H4970 H 0.34654 0.65151 0.75731 0.0
H4971 H 0.35957 0.62917 0.75808 0.0
H4972 H 0.37604 0.70096 0.76287 0.0
H4973 H 0.32282 0.67369 0.78783 0.0
H4974 H 0.33938 0.6646 0.78733 0.0
H4975 H 0.32593 0.6609 0.76989 0.0
C4976 C 0.38802 0.66036 0.77767 0.0
C4977 C 0.3811 0.64383 0.77075 0.0
C4978 C 0.3802 0.67339 0.77747 0.0
C4979 C 0.36488 0.67081 0.77046 0.0
C4980 C 0.35802 0.65438 0.76334 0.0
H4981 H 0.32593 0.75079 0.74021 0.0
H4982 H 0.33786 0.72792 0.74273 0.0
C4983 C 0.36581 0.64134 0.76356 0.0
C4984 C 0.35649 0.68517 0.7702 0.0
H4985 H 0.32202 0.69727 0.77638 0.0
C4986 C 0.36423 0.69996 0.76591 0.0
C4987 C 0.34101 0.68472 0.77436 0.0
C4988 C 0.33184 0.67021 0.78028 0.0
C4989 C 0.35717 0.71354 0.76525 0.0
C4990 C 0.34151 0.71282 0.76872 0.0
C4991 C 0.33386 0.69823 0.77345 0.0
C4992 C 0.33301 0.72681 0.76716 0.0
C4993 C 0.36692 0.72883 0.76116 0.0
C4994 C 0.3253 0.73413 0.7797 0.0
C4995 C 0.31821 0.74756 0.77822 0.0
C4996 C 0.31821 0.75409 0.76398 0.0
C4997 C 0.32552 0.7464 0.75142 0.0
C4998 C 0.3326 0.73318 0.75292 0.0
H4999 H 0.37941 0.72966 0.76398 0.0
H5000 H 0.365 0.7286 0.74816 0.0
H5001 H 0.36387 0.73999 0.76773 0.0
H5002 H 0.32508 0.72973 0.7909 0.0
H5003 H 0.31301 0.75301 0.78835 0.0
H5004 H 0.21538 0.57988 0.53786 0.0
H5005 H 0.18809 0.56698 0.53821 0.0
H5006 H 0.18036 0.56916 0.48833 0.0
H5007 H 0.20768 0.58161 0.48788 0.0
H5008 H 0.16756 0.5847 0.5333 0.0
H5009 H 0.15199 0.52606 0.49051 0.0
H5010 H 0.17173 0.53572 0.49787 0.0
H5011 H 0.16247 0.54223 0.48163 0.0
C5012 C 0.20792 0.57697 0.52685 0.0
C5013 C 0.21349 0.58174 0.51287 0.0
C5014 C 0.19239 0.56965 0.52705 0.0
C5015 C 0.18222 0.56712 0.5133 0.0
C5016 C 0.18805 0.57068 0.49899 0.0
H5017 H 0.08825 0.57929 0.51066 0.0
H5018 H 0.11642 0.5831 0.51182 0.0
C5019 C 0.20364 0.57783 0.49874 0.0
C5020 C 0.1654 0.56363 0.51461 0.0
H5021 H 0.13121 0.53942 0.49715 0.0
C5022 C 0.1596 0.57461 0.52559 0.0
C5023 C 0.15508 0.55052 0.50454 0.0
C5024 C 0.16065 0.53788 0.49309 0.0
C5025 C 0.14373 0.57308 0.52653 0.0
C5026 C 0.13336 0.56046 0.5159 0.0
C5027 C 0.13917 0.54921 0.5052 0.0
C5028 C 0.11645 0.55857 0.51568 0.0
C5029 C 0.13833 0.58506 0.5389 0.0
C5030 C 0.10716 0.54344 0.51696 0.0
C5031 C 0.09118 0.54117 0.51583 0.0
C5032 C 0.08418 0.55411 0.51391 0.0
C5033 C 0.09343 0.56926 0.51254 0.0
C5034 C 0.10948 0.57145 0.51333 0.0
H5035 H 0.14699 0.5897 0.5494 0.0
H5036 H 0.13674 0.5957 0.5336 0.0
H5037 H 0.12722 0.57946 0.5431 0.0
H5038 H 0.11226 0.53327 0.5186 0.0
H5039 H 0.08439 0.52915 0.51614 0.0
H5040 H 0.74138 0.96958 0.7224 0.0
H5041 H 0.7545 0.94724 0.72462 0.0
H5042 H 0.71962 0.92729 0.75371 0.0
H5043 H 0.70657 0.94943 0.75149 0.0
H5044 H 0.76563 0.94359 0.75484 0.0
H5045 H 0.72601 0.88635 0.72419 0.0
H5046 H 0.72489 0.90618 0.7199 0.0
H5047 H 0.71629 0.89926 0.7369 0.0
C5048 C 0.73635 0.96013 0.72887 0.0
C5049 C 0.72308 0.96118 0.73687 0.0
C5050 C 0.74381 0.94743 0.73012 0.0
C5051 C 0.73789 0.93552 0.73913 0.0
C5052 C 0.72418 0.93614 0.7464 0.0
H5053 H 0.75822 0.87178 0.79694 0.0
H5054 H 0.74748 0.88716 0.7792 0.0
C5055 C 0.71684 0.94887 0.74529 0.0
C5056 C 0.74704 0.92395 0.74318 0.0
H5057 H 0.74364 0.88384 0.74579 0.0
C5058 C 0.76109 0.93047 0.75251 0.0
C5059 C 0.74098 0.90689 0.74015 0.0
C5060 C 0.72628 0.89924 0.7296 0.0
C5061 C 0.76865 0.9205 0.76 0.0
C5062 C 0.76211 0.90352 0.75774 0.0
C5063 C 0.74857 0.89687 0.74755 0.0
C5064 C 0.76827 0.89286 0.76716 0.0
C5065 C 0.78293 0.9284 0.77119 0.0
C5066 C 0.78338 0.89068 0.76598 0.0
C5067 C 0.78963 0.88214 0.77629 0.0
C5068 C 0.7808 0.87549 0.78782 0.0
C5069 C 0.76542 0.87706 0.78843 0.0
C5070 C 0.75921 0.88568 0.77819 0.0
H5071 H 0.78471 0.94194 0.77393 0.0
H5072 H 0.78224 0.92374 0.78259 0.0
H5073 H 0.79321 0.9254 0.76557 0.0
H5074 H 0.79045 0.89592 0.75736 0.0
H5075 H 0.80152 0.88118 0.77553 0.0
H5076 H 0.73955 0.95276 0.54603 0.0
H5077 H 0.71853 0.96707 0.54478 0.0
H5078 H 0.69461 0.92946 0.50599 0.0
H5079 H 0.71539 0.91481 0.50744 0.0
H5080 H 0.70919 0.97949 0.51928 0.0
H5081 H 0.66029 0.93465 0.5354 0.0
H5082 H 0.68018 0.93356 0.53908 0.0
H5083 H 0.67034 0.92619 0.51946 0.0
C5084 C 0.7297 0.94735 0.53741 0.0
C5085 C 0.7292 0.93259 0.52683 0.0
C5086 C 0.71771 0.9556 0.53667 0.0
C5087 C 0.70486 0.94926 0.52544 0.0
C5088 C 0.70424 0.93446 0.51496 0.0
H5089 H 0.64521 0.00354 0.48644 0.0
H5090 H 0.66274 0.98597 0.49134 0.0
C5091 C 0.71626 0.92621 0.51566 0.0
C5092 C 0.69271 0.95872 0.52395 0.0
H5093 H 0.65389 0.95669 0.52437 0.0
C5094 C 0.69712 0.97452 0.5205 0.0
C5095 C 0.67697 0.95235 0.52573 0.0
C5096 C 0.67163 0.93582 0.53028 0.0
C5097 C 0.68623 0.98392 0.51834 0.0
C5098 C 0.6704 0.97729 0.5194 0.0
C5099 C 0.666 0.96169 0.52335 0.0
C5100 C 0.65837 0.98639 0.51611 0.0
C5101 C 0.69179 1.00095 0.51498 0.0
C5102 C 0.64952 0.99187 0.52821 0.0
C5103 C 0.6394 1.00193 0.52542 0.0
C5104 C 0.63799 0.00668 0.51048 0.0
C5105 C 0.64627 1.00041 0.49818 0.0
C5106 C 0.65629 0.99035 0.50096 0.0
H5107 H 0.70431 0.00574 0.51861 0.0
H5108 H 0.6899 1.00069 0.50197 0.0
H5109 H 0.68531 0.00953 0.52131 0.0
H5110 H 0.65087 0.98889 0.53998 0.0
H5111 H 0.6332 0.00656 0.53514 0.0
H5112 H 0.39623 0.46975 0.77926 0.0
H5113 H 0.38311 0.4413 0.7785 0.0
H5114 H 0.34391 0.44854 0.75127 0.0
H5115 H 0.35695 0.47701 0.75196 0.0
H5116 H 0.35774 0.42662 0.78969 0.0
H5117 H 0.34872 0.40739 0.72409 0.0
H5118 H 0.36083 0.42681 0.73348 0.0
H5119 H 0.34018 0.42426 0.73112 0.0
C5120 C 0.38478 0.46545 0.77314 0.0
C5121 C 0.37787 0.47611 0.76564 0.0
C5122 C 0.37723 0.44894 0.77264 0.0
C5123 C 0.36245 0.44224 0.76455 0.0
C5124 C 0.35543 0.45289 0.75721 0.0
H5125 H 0.29769 0.34478 0.75095 0.0
H5126 H 0.31026 0.37345 0.75128 0.0
C5127 C 0.36299 0.46941 0.75766 0.0
C5128 C 0.35437 0.4244 0.7642 0.0
H5129 H 0.33584 0.38855 0.73934 0.0
C5130 C 0.35306 0.41835 0.77861 0.0
C5131 C 0.34806 0.41323 0.74987 0.0
C5132 C 0.34963 0.41817 0.73375 0.0
C5133 C 0.34555 0.40197 0.77915 0.0
C5134 C 0.33925 0.39079 0.76482 0.0
C5135 C 0.34051 0.39684 0.75041 0.0
C5136 C 0.33146 0.3729 0.76455 0.0
C5137 C 0.34406 0.39697 0.79525 0.0
C5138 C 0.339 0.36244 0.77157 0.0
C5139 C 0.33172 0.34595 0.77149 0.0
C5140 C 0.31657 0.3391 0.7643 0.0
C5141 C 0.30916 0.34945 0.75692 0.0
C5142 C 0.31647 0.36598 0.75701 0.0
H5143 H 0.34499 0.40773 0.80495 0.0
H5144 H 0.33288 0.38831 0.79554 0.0
H5145 H 0.35354 0.39089 0.7978 0.0
H5146 H 0.35068 0.36699 0.77708 0.0
H5147 H 0.33804 0.33856 0.77718 0.0
H5148 H 0.25705 0.6126 0.28327 0.0
H5149 H 0.27293 0.64057 0.28919 0.0
H5150 H 0.26061 0.64705 0.24151 0.0
H5151 H 0.24487 0.61923 0.23551 0.0
H5152 H 0.2921 0.66165 0.25341 0.0
H5153 H 0.2493 0.67774 0.29551 0.0
H5154 H 0.25879 0.66181 0.29896 0.0
H5155 H 0.24545 0.65857 0.28163 0.0
C5156 C 0.25794 0.61997 0.27401 0.0
C5157 C 0.24965 0.61387 0.25899 0.0
C5158 C 0.26701 0.63586 0.27739 0.0
C5159 C 0.26774 0.64584 0.26584 0.0
C5160 C 0.26021 0.63945 0.25055 0.0
H5161 H 0.26424 0.7404 0.26039 0.0
H5162 H 0.26374 0.71124 0.25745 0.0
C5163 C 0.25124 0.62357 0.24713 0.0
C5164 C 0.27474 0.66347 0.26992 0.0
H5165 H 0.26686 0.69924 0.28826 0.0
C5166 C 0.28691 0.66992 0.26138 0.0
C5167 C 0.26779 0.67412 0.28023 0.0
C5168 C 0.25456 0.66781 0.28959 0.0
C5169 C 0.29174 0.68682 0.26217 0.0
C5170 C 0.28398 0.69737 0.2715 0.0
C5171 C 0.27259 0.69099 0.28094 0.0
C5172 C 0.28606 0.71477 0.27045 0.0
C5173 C 0.30402 0.69301 0.25181 0.0
C5174 C 0.29886 0.72633 0.27852 0.0
C5175 C 0.29931 0.74299 0.27976 0.0
C5176 C 0.28707 0.74827 0.2728 0.0
C5177 C 0.27431 0.73666 0.26474 0.0
C5178 C 0.27392 0.72003 0.26333 0.0
H5179 H 0.31171 0.68437 0.24907 0.0
H5180 H 0.29824 0.69411 0.24039 0.0
H5181 H 0.31117 0.70515 0.25745 0.0
H5182 H 0.3081 0.72246 0.28449 0.0
H5183 H 0.30893 0.75165 0.28672 0.0
H5184 H 0.50146 0.6805 0.45574 0.0
H5185 H 0.50523 0.6567 0.46672 0.0
H5186 H 0.55028 0.68345 0.48791 0.0
H5187 H 0.5466 0.7073 0.47702 0.0
H5188 H 0.55183 0.6539 0.47278 0.0
H5189 H 0.50339 0.64608 0.51101 0.0
H5190 H 0.49708 0.64644 0.49079 0.0
H5191 H 0.50949 0.66436 0.50276 0.0
C5192 C 0.51208 0.68149 0.46298 0.0
C5193 C 0.52371 0.69598 0.46538 0.0
C5194 C 0.51421 0.66779 0.46932 0.0
C5195 C 0.52798 0.66818 0.4784 0.0
C5196 C 0.53953 0.6827 0.48099 0.0
H5197 H 0.53855 0.58533 0.52659 0.0
H5198 H 0.53748 0.61305 0.52214 0.0
C5199 C 0.53742 0.69638 0.47464 0.0
C5200 C 0.53078 0.65322 0.4843 0.0
H5201 H 0.51541 0.6233 0.50506 0.0
C5202 C 0.5439 0.64734 0.47996 0.0
C5203 C 0.52069 0.64466 0.49397 0.0
C5204 C 0.50696 0.65079 0.50006 0.0
C5205 C 0.54686 0.63296 0.48439 0.0
C5206 C 0.53629 0.62383 0.49324 0.0
C5207 C 0.52349 0.63007 0.49817 0.0
C5208 C 0.53775 0.60731 0.49643 0.0
C5209 C 0.56139 0.62774 0.47954 0.0
C5210 C 0.53822 0.59474 0.4836 0.0
C5211 C 0.53897 0.57908 0.48615 0.0
C5212 C 0.53925 0.57538 0.50161 0.0
C5213 C 0.53871 0.58787 0.51457 0.0
C5214 C 0.53796 0.60368 0.51199 0.0
H5215 H 0.57048 0.63835 0.47788 0.0
H5216 H 0.56601 0.62163 0.48857 0.0
H5217 H 0.55881 0.61905 0.46799 0.0
H5218 H 0.53764 0.59691 0.47145 0.0
H5219 H 0.5391 0.5697 0.47587 0.0
H5220 H 0.65652 0.33373 0.67493 0.0
H5221 H 0.67989 0.33104 0.68969 0.0
H5222 H 0.67125 0.28009 0.66816 0.0
H5223 H 0.64764 0.28244 0.65377 0.0
H5224 H 0.68241 0.3074 0.71161 0.0
H5225 H 0.71707 0.29984 0.65951 0.0
H5226 H 0.70062 0.30916 0.65927 0.0
H5227 H 0.69778 0.2874 0.65741 0.0
C5228 C 0.65942 0.32187 0.67339 0.0
C5229 C 0.64999 0.30834 0.66294 0.0
C5230 C 0.67292 0.32039 0.68182 0.0
C5231 C 0.67754 0.30541 0.67994 0.0
C5232 C 0.66817 0.29187 0.66964 0.0
H5233 H 0.75898 0.27424 0.71598 0.0
H5234 H 0.73579 0.27686 0.70084 0.0
C5235 C 0.65461 0.29329 0.66132 0.0
C5236 C 0.69193 0.30381 0.68896 0.0
H5237 H 0.72819 0.29696 0.68424 0.0
C5238 C 0.69244 0.30518 0.70564 0.0
C5239 C 0.70501 0.30069 0.68122 0.0
C5240 C 0.70525 0.29927 0.66338 0.0
C5241 C 0.70545 0.30325 0.7147 0.0
C5242 C 0.71876 0.3005 0.70703 0.0
C5243 C 0.71818 0.2991 0.69029 0.0
C5244 C 0.7333 0.29907 0.7161 0.0
C5245 C 0.70444 0.30358 0.73236 0.0
C5246 C 0.74022 0.31087 0.72953 0.0
C5247 C 0.75328 0.30914 0.73843 0.0
C5248 C 0.76023 0.29581 0.73404 0.0
C5249 C 0.75391 0.28454 0.72001 0.0
C5250 C 0.74058 0.28606 0.71126 0.0
H5251 H 0.69227 0.30006 0.73521 0.0
H5252 H 0.71096 0.2952 0.73678 0.0
H5253 H 0.70927 0.3162 0.73895 0.0
H5254 H 0.73552 0.32151 0.7332 0.0
H5255 H 0.75805 0.31849 0.74865 0.0
H5256 H 0.00722 0.36009 0.94983 0.0
H5257 H 0.00952 0.38914 0.95997 0.0
H5258 H 0.04113 0.38703 0.99908 0.0
H5259 H 0.03877 0.35778 0.98913 0.0
H5260 H 0.00364 0.4064 0.98948 0.0
H5261 H 0.06553 0.42346 0.97829 0.0
H5262 H 0.05349 0.40359 0.97013 0.0
H5263 H 0.0608 0.40841 0.99078 0.0
C5264 C 0.0145 0.36566 0.96074 0.0
C5265 C 0.02282 0.35644 0.96861 0.0
C5266 C 0.01584 0.38236 0.9665 0.0
C5267 C 0.02562 0.39039 0.9802 0.0
C5268 C 0.03371 0.38122 0.98832 0.0
H5269 H 0.03631 0.49491 0.02397 0.0
H5270 H 0.03078 0.46488 0.02075 0.0
C5271 C 0.03236 0.36446 0.98258 0.0
C5272 C 0.02764 0.40843 0.98553 0.0
H5273 H 0.0539 0.44483 0.98895 0.0
C5274 C 0.01468 0.41479 0.98956 0.0
C5275 C 0.04201 0.41944 0.9855 0.0
C5276 C 0.05626 0.41347 0.98084 0.0
C5277 C 0.01568 0.43178 0.99335 0.0
C5278 C 0.02996 0.44273 0.993 0.0
C5279 C 0.04297 0.4364 0.98928 0.0
C5280 C 0.03145 0.46075 0.99508 0.0
C5281 C 1.00136 0.43802 0.99693 0.0
C5282 C 0.03337 0.46838 0.98173 0.0
C5283 C 0.03635 0.48543 0.98352 0.0
C5284 C 0.0375 0.49528 0.99871 0.0
C5285 C 0.03518 0.48764 0.01208 0.0
C5286 C 0.0321 0.4705 0.01026 0.0
H5287 H 0.99113 0.42796 0.99698 0.0
H5288 H 0.00326 0.4463 0.00873 0.0
H5289 H 0.99888 0.44522 0.98779 0.0
H5290 H 0.03296 0.46113 0.96992 0.0
H5291 H 0.03823 0.49096 0.97303 0.0
H5292 H 0.00586 0.78952 0.17713 0.0
H5293 H 0.98225 0.78816 0.19096 0.0
H5294 H 0.96468 0.81506 0.15856 0.0
H5295 H 0.98829 0.81647 0.14458 0.0
H5296 H 0.96915 0.81941 0.20407 0.0
H5297 H 0.92999 0.77051 0.15977 0.0
H5298 H 0.95058 0.77191 0.1616 0.0
H5299 H 0.94306 0.78678 0.15303 0.0
C5300 C 0.99695 0.79504 0.17282 0.0
C5301 C 0.99907 0.80309 0.15967 0.0
C5302 C 0.98345 0.79431 0.18081 0.0
C5303 C 0.9716 0.80141 0.17577 0.0
C5304 C 0.9736 0.80941 0.16264 0.0
H5305 H 0.87912 0.78935 0.21315 0.0
H5306 H 0.9003 0.79609 0.19624 0.0
C5307 C 0.98718 0.8103 0.15472 0.0
C5308 C 0.9574 0.80076 0.18458 0.0
H5309 H 0.91985 0.77999 0.18361 0.0
C5310 C 0.95834 0.81086 0.19956 0.0
C5311 C 0.94317 0.78991 0.17857 0.0
C5312 C 0.94148 0.77908 0.16237 0.0
C5313 C 0.9456 0.81018 0.20882 0.0
C5314 C 0.93158 0.7985 0.20335 0.0
C5315 C 0.93051 0.78883 0.18803 0.0
C5316 C 0.91847 0.79536 0.21378 0.0
C5317 C 0.94735 0.82226 0.2243 0.0
C5318 C 0.92138 0.79269 0.22934 0.0
C5319 C 0.9094 0.78934 0.23914 0.0
C5320 C 0.89385 0.7878 0.23361 0.0
C5321 C 0.89085 0.79052 0.218 0.0
C5322 C 0.90301 0.79422 0.20822 0.0
H5323 H 0.95553 0.83388 0.22355 0.0
H5324 H 0.93615 0.82507 0.22752 0.0
H5325 H 0.9522 0.81712 0.23402 0.0
H5326 H 0.933 0.79291 0.23393 0.0
H5327 H 0.91245 0.78779 0.25114 0.0
H5328 H 0.53894 0.33311 0.09634 0.0
H5329 H 0.544 0.35464 0.08033 0.0
H5330 H 0.50098 0.36759 0.09171 0.0
H5331 H 0.49596 0.34626 0.10805 0.0
H5332 H 0.52461 0.35679 0.05359 0.0
H5333 H 0.53303 0.41185 0.10139 0.0
H5334 H 0.53417 0.39198 0.1055 0.0
H5335 H 0.51571 0.3965 0.10141 0.0
C5336 C 0.53067 0.34071 0.09566 0.0
C5337 C 0.51708 0.33803 0.10351 0.0
C5338 C 0.53354 0.35294 0.08644 0.0
C5339 C 0.52295 0.3628 0.085 0.0
C5340 C 0.5094 0.36026 0.09288 0.0
H5341 H 0.5198 0.4401 0.03089 0.0
H5342 H 0.51463 0.41996 0.04845 0.0
C5343 C 0.50649 0.34797 0.10206 0.0
C5344 C 0.52577 0.37519 0.07457 0.0
H5345 H 0.53248 0.41621 0.07468 0.0
C5346 C 0.52638 0.36979 0.05819 0.0
C5347 C 0.52796 0.3921 0.08063 0.0
C5348 C 0.52782 0.39854 0.09821 0.0
C5349 C 0.529 0.38086 0.04763 0.0
C5350 C 0.53141 0.39781 0.05369 0.0
C5351 C 0.53067 0.40321 0.07008 0.0
C5352 C 0.53471 0.41012 0.0432 0.0
C5353 C 0.52885 0.37428 0.03003 0.0
C5354 C 0.54783 0.4114 0.03458 0.0
C5355 C 0.5508 0.42286 0.02451 0.0
C5356 C 0.54079 0.43339 0.02302 0.0
C5357 C 0.52778 0.43223 0.03186 0.0
C5358 C 0.52479 0.42072 0.04187 0.0
H5359 H 0.52275 0.3612 0.02688 0.0
H5360 H 0.52321 0.38139 0.02272 0.0
H5361 H 0.5409 0.37523 0.02683 0.0
H5362 H 0.55583 0.40359 0.03572 0.0
H5363 H 0.56107 0.42367 0.0181 0.0
H5364 H 0.00473 0.2841 0.33475 0.0
H5365 H 0.97989 0.2849 0.32138 0.0
H5366 H 0.98954 0.33722 0.3368 0.0
H5367 H 0.01416 0.33654 0.35026 0.0
H5368 H 0.95474 0.2977 0.33455 0.0
H5369 H 0.98017 0.33046 0.28783 0.0
H5370 H 0.99097 0.32014 0.29961 0.0
H5371 H 0.98813 0.34011 0.30773 0.0
C5372 C 1.00149 0.29575 0.33538 0.0
C5373 C 0.01149 0.31029 0.3434 0.0
C5374 C 0.98735 0.29619 0.32769 0.0
C5375 C 0.98307 0.31116 0.32786 0.0
C5376 C 0.99283 0.32559 0.33621 0.0
H5377 H 0.90873 0.35185 0.29937 0.0
H5378 H 0.93253 0.34557 0.30958 0.0
C5379 C 0.00689 0.32518 0.34388 0.0
C5380 C 0.96835 0.31191 0.3195 0.0
H5381 H 0.95361 0.33002 0.29137 0.0
C5382 C 0.95443 0.30455 0.32495 0.0
C5383 C 0.96805 0.3208 0.30695 0.0
C5384 C 0.98262 0.3282 0.30006 0.0
C5385 C 0.94021 0.30657 0.31869 0.0
C5386 C 0.93999 0.31604 0.30658 0.0
C5387 C 0.95387 0.32289 0.30075 0.0
C5388 C 0.92554 0.31961 0.30026 0.0
C5389 C 0.9256 0.29918 0.32551 0.0
C5390 C 0.91386 0.3071 0.29145 0.0
C5391 C 0.9003 0.31067 0.28549 0.0
C5392 C 0.8982 0.32682 0.2882 0.0
C5393 C 0.91004 0.33933 0.2969 0.0
C5394 C 0.9236 0.33575 0.30282 0.0
H5395 H 0.92803 0.2948 0.33673 0.0
H5396 H 0.91826 0.30821 0.32795 0.0
H5397 H 0.91893 0.2886 0.31669 0.0
H5398 H 0.91528 0.29462 0.28909 0.0
H5399 H 0.89152 0.30079 0.2786 0.0
H5400 H 0.99822 0.67579 0.62114 0.0
H5401 H 1.00041 0.64943 0.60596 0.0
H5402 H 0.97184 0.65647 0.56653 0.0
H5403 H 0.96961 0.68299 0.58182 0.0
H5404 H 0.97938 0.61927 0.58632 0.0
H5405 H 0.01746 0.66051 0.55298 0.0
H5406 H 0.01103 0.66808 0.57194 0.0
H5407 H 0.99781 0.66251 0.55432 0.0
C5408 C 0.99195 0.67138 0.60946 0.0
C5409 C 0.98387 0.68128 0.60248 0.0
C5410 C 0.99315 0.65635 0.60085 0.0
C5411 C 0.98641 0.65119 0.58513 0.0
C5412 C 0.97711 0.66036 0.57867 0.0
H5413 H 0.02141 0.58321 0.51637 0.0
H5414 H 0.00757 0.60318 0.52831 0.0
C5415 C 0.97583 0.67541 0.58736 0.0
C5416 C 0.99173 0.63813 0.57484 0.0
H5417 H 0.01838 0.63292 0.54819 0.0
C5418 C 0.9877 0.62212 0.57776 0.0
C5419 C 0.00264 0.64204 0.56379 0.0
C5420 C 0.00762 0.65921 0.56055 0.0
C5421 C 0.99464 0.60992 0.57013 0.0
C5422 C 0.00614 0.61408 0.55974 0.0
C5423 C 0.00965 0.6299 0.55631 0.0
C5424 C 0.01502 0.60234 0.5526 0.0
C5425 C 0.98973 0.59274 0.57332 0.0
C5426 C 0.02434 0.5958 0.56232 0.0
C5427 C 0.03245 0.58441 0.55547 0.0
C5428 C 0.03138 0.57943 0.53879 0.0
C5429 C 0.02265 0.58675 0.52917 0.0
C5430 C 0.01455 0.59808 0.53599 0.0
H5431 H 0.97809 0.59056 0.57782 0.0
H5432 H 0.98958 0.58356 0.56235 0.0
H5433 H 0.99805 0.59082 0.58255 0.0
H5434 H 0.02518 0.59936 0.57519 0.0
H5435 H 0.03911 0.57913 0.5633 0.0
H5436 H 0.63784 0.80025 0.80626 0.0
H5437 H 0.65897 0.80121 0.7888 0.0
H5438 H 0.69012 0.83319 0.82691 0.0
H5439 H 0.66917 0.83227 0.8444 0.0
H5440 H 0.69504 0.84056 0.79505 0.0
H5441 H 0.69147 0.77531 0.79987 0.0
H5442 H 0.67426 0.78041 0.79228 0.0
H5443 H 0.68167 0.78819 0.81271 0.0
C5444 C 0.64917 0.8076 0.81085 0.0
C5445 C 0.65192 0.816 0.82675 0.0
C5446 C 0.66116 0.80824 0.80084 0.0
C5447 C 0.67607 0.81718 0.80665 0.0
C5448 C 0.67864 0.82632 0.8222 0.0
H5449 H 0.76719 0.81086 0.80313 0.0
H5450 H 0.74062 0.81301 0.80747 0.0
C5451 C 0.66667 0.82574 0.83218 0.0
C5452 C 0.68945 0.81527 0.79757 0.0
H5453 H 0.71251 0.78854 0.78837 0.0
C5454 C 0.69873 0.82908 0.79316 0.0
C5455 C 0.69424 0.80029 0.79535 0.0
C5456 C 0.685 0.78519 0.80036 0.0
C5457 C 0.71305 0.8284 0.78715 0.0
C5458 C 0.71807 0.81361 0.78565 0.0
C5459 C 0.70847 0.79971 0.78935 0.0
C5460 C 0.73408 0.81283 0.78265 0.0
C5461 C 0.7232 0.84365 0.78343 0.0
C5462 C 0.73908 0.81201 0.76725 0.0
C5463 C 0.75422 0.81067 0.76477 0.0
C5464 C 0.76426 0.80972 0.77761 0.0
C5465 C 0.75936 0.81098 0.79302 0.0
C5466 C 0.74431 0.81234 0.7955 0.0
H5467 H 0.71765 0.85427 0.78536 0.0
H5468 H 0.73427 0.84677 0.79107 0.0
H5469 H 0.72598 0.84141 0.77081 0.0
H5470 H 0.73127 0.81234 0.75722 0.0
H5471 H 0.75803 0.81022 0.75287 0.0
H5472 H 0.45101 0.5454 0.67376 0.0
H5473 H 0.46302 0.54278 0.6486 0.0
H5474 H 0.50355 0.57813 0.67098 0.0
H5475 H 0.49199 0.58021 0.69639 0.0
H5476 H 0.47187 0.56096 0.62787 0.0
H5477 H 0.52583 0.5465 0.64975 0.0
H5478 H 0.50997 0.54718 0.66201 0.0
H5479 H 0.52337 0.56577 0.66019 0.0
C5480 C 0.46261 0.55247 0.67364 0.0
C5481 C 0.47031 0.56295 0.68778 0.0
C5482 C 0.46953 0.55105 0.6589 0.0
C5483 C 0.48459 0.55991 0.6574 0.0
C5484 C 0.4922 0.5706 0.67141 0.0
H5485 H 0.54356 0.56934 0.57544 0.0
H5486 H 0.53234 0.5725 0.60123 0.0
C5487 C 0.48531 0.57201 0.68616 0.0
C5488 C 0.49198 0.55823 0.64129 0.0
H5489 H 0.52503 0.55251 0.62353 0.0
C5490 C 0.48348 0.559 0.62707 0.0
C5491 C 0.50723 0.55569 0.63961 0.0
C5492 C 0.51708 0.55356 0.65366 0.0
C5493 C 0.48963 0.55765 0.61185 0.0
C5494 C 0.50487 0.55513 0.6102 0.0
C5495 C 0.51342 0.55445 0.62438 0.0
C5496 C 0.51198 0.55305 0.594 0.0
C5497 C 0.47977 0.55941 0.59765 0.0
C5498 C 0.50474 0.54092 0.58081 0.0
C5499 C 0.51133 0.53894 0.56593 0.0
C5500 C 0.52554 0.54899 0.5634 0.0
C5501 C 0.53278 0.56114 0.57661 0.0
C5502 C 0.52625 0.56302 0.59156 0.0
H5503 H 0.47062 0.56599 0.60135 0.0
H5504 H 0.48684 0.56608 0.58945 0.0
H5505 H 0.47403 0.54708 0.59096 0.0
H5506 H 0.49397 0.53269 0.58203 0.0
H5507 H 0.50522 0.52935 0.55637 0.0
H5508 H 0.80117 0.22001 0.95873 0.0
H5509 H 0.80141 0.23401 0.93583 0.0
H5510 H 0.7701 0.19165 0.90807 0.0
H5511 H 0.77 0.17747 0.93075 0.0
H5512 H 0.7977 0.20721 0.89263 0.0
H5513 H 0.76216 0.24959 0.91986 0.0
H5514 H 0.77869 0.2476 0.93177 0.0
H5515 H 0.76249 0.23057 0.92645 0.0
C5516 C 0.79446 0.21365 0.94769 0.0
C5517 C 0.78549 0.1977 0.94652 0.0
C5518 C 0.79457 0.22166 0.93469 0.0
C5519 C 0.78573 0.21382 0.92038 0.0
C5520 C 0.77698 0.19784 0.91907 0.0
H5521 H 0.75441 0.22857 0.83022 0.0
H5522 H 0.76481 0.21822 0.85248 0.0
C5523 C 0.77683 0.18984 0.93205 0.0
C5524 C 0.78505 0.22242 0.90688 0.0
H5525 H 0.76887 0.25127 0.89387 0.0
C5526 C 0.79156 0.21698 0.8929 0.0
C5527 C 0.77708 0.23515 0.90741 0.0
C5528 C 0.7696 0.24109 0.92211 0.0
C5529 C 0.78998 0.22377 0.8792 0.0
C5530 C 0.78145 0.23605 0.87953 0.0
C5531 C 0.77545 0.24189 0.89372 0.0
C5532 C 0.77731 0.24203 0.86502 0.0
C5533 C 0.79731 0.21766 0.86448 0.0
C5534 C 0.78093 0.25882 0.86473 0.0
C5535 C 0.77483 0.26478 0.85215 0.0
C5536 C 0.76493 0.25402 0.83975 0.0
C5537 C 0.76187 0.23714 0.83973 0.0
C5538 C 0.76797 0.23119 0.85231 0.0
H5539 H 0.80721 0.21236 0.86756 0.0
H5540 H 0.78865 0.20791 0.85653 0.0
H5541 H 0.80138 0.22764 0.85777 0.0
H5542 H 0.78801 0.26736 0.87453 0.0
H5543 H 0.77728 0.27786 0.85255 0.0
H5544 H 0.11892 0.54523 0.18501 0.0
H5545 H 0.10024 0.54353 0.16242 0.0
H5546 H 0.11816 0.50515 0.13527 0.0
H5547 H 0.13723 0.5071 0.15752 0.0
H5548 H 0.11113 0.5477 0.13048 0.0
H5549 H 0.06899 0.48922 0.13065 0.0
H5550 H 0.0806 0.50109 0.14841 0.0
H5551 H 0.08913 0.48901 0.13358 0.0
C5552 C 0.11891 0.53645 0.17422 0.0
C5553 C 0.12962 0.52637 0.173 0.0
C5554 C 0.10814 0.53538 0.16145 0.0
C5555 C 0.10777 0.52407 0.14739 0.0
C5556 C 0.11814 0.51372 0.14622 0.0
H5557 H 0.08086 0.52312 0.05048 0.0
H5558 H 0.09256 0.52014 0.07599 0.0
C5559 C 0.12901 0.51486 0.15892 0.0
C5560 C 0.09773 0.52428 0.13328 0.0
H5561 H 0.06748 0.50133 0.10756 0.0
C5562 C 0.10147 0.53767 0.12554 0.0
C5563 C 0.08518 0.51117 0.12704 0.0
C5564 C 0.08059 0.49681 0.13536 0.0
C5565 C 0.09324 0.53805 0.11129 0.0
C5566 C 0.08107 0.52463 0.10467 0.0
C5567 C 0.07693 0.51149 0.1127 0.0
C5568 C 0.07303 0.52397 0.08906 0.0
C5569 C 0.09777 0.55265 0.10324 0.0
C5570 C 0.05799 0.52649 0.08801 0.0
C5571 C 0.05127 0.5282 0.07344 0.0
C5572 C 0.05956 0.52745 0.05986 0.0
C5573 C 0.07431 0.52404 0.06084 0.0
C5574 C 0.08097 0.52225 0.07534 0.0
H5575 H 0.10509 0.56332 0.11149 0.0
H5576 H 0.10441 0.54939 0.09297 0.0
H5577 H 0.08737 0.55627 0.0986 0.0
H5578 H 0.05176 0.52789 0.09858 0.0
H5579 H 0.04001 0.53097 0.07306 0.0
H5580 H 0.77618 0.81828 0.44363 0.0
H5581 H 0.77707 0.80619 0.41559 0.0
H5582 H 0.81898 0.84173 0.41342 0.0
H5583 H 0.8181 0.85397 0.44122 0.0
H5584 H 0.77589 0.82091 0.38975 0.0
H5585 H 0.83035 0.79967 0.39282 0.0
H5586 H 0.82061 0.80514 0.41034 0.0
H5587 H 0.83291 0.82074 0.40203 0.0
C5588 C 0.78561 0.82351 0.43721 0.0
C5589 C 0.79712 0.83708 0.4448 0.0
C5590 C 0.78616 0.8165 0.4212 0.0
C5591 C 0.79828 0.8228 0.41246 0.0
C5592 C 0.80978 0.83629 0.42001 0.0
H5593 H 0.80284 0.83047 0.31572 0.0
H5594 H 0.80391 0.83275 0.34472 0.0
C5595 C 0.80923 0.84331 0.43597 0.0
C5596 C 0.79829 0.8163 0.39511 0.0
H5597 H 0.8212 0.80337 0.3668 0.0
C5598 C 0.78568 0.81679 0.38479 0.0
C5599 C 0.81098 0.81072 0.38856 0.0
C5600 C 0.8244 0.80886 0.39904 0.0
C5601 C 0.78582 0.81281 0.36815 0.0
C5602 C 0.79896 0.80837 0.3616 0.0
C5603 C 0.81121 0.80695 0.37186 0.0
C5604 C 0.80057 0.80676 0.34421 0.0
C5605 C 0.77208 0.81388 0.3576 0.0
C5606 C 0.79896 0.79139 0.33433 0.0
C5607 C 0.79838 0.79006 0.31765 0.0
C5608 C 0.79958 0.80411 0.31075 0.0
C5609 C 0.80196 0.81947 0.32076 0.0
C5610 C 0.80255 0.82079 0.3373 0.0
H5611 H 0.76163 0.81372 0.36424 0.0
H5612 H 0.77475 0.82549 0.35294 0.0
H5613 H 0.76949 0.80362 0.34723 0.0
H5614 H 0.79742 0.78042 0.33947 0.0
H5615 H 0.79627 0.77805 0.31018 0.0
H5616 H 0.49355 0.5567 0.84509 0.0
H5617 H 0.50488 0.55231 0.87034 0.0
H5618 H 0.4662 0.56452 0.89403 0.0
H5619 H 0.4546 0.56855 0.86883 0.0
H5620 H 0.51528 0.57135 0.89985 0.0
H5621 H 0.46676 0.52249 0.90938 0.0
H5622 H 0.46831 0.52962 0.89064 0.0
H5623 H 0.46093 0.54097 0.90712 0.0
C5624 C 0.48722 0.55832 0.85554 0.0
C5625 C 0.47284 0.56296 0.85434 0.0
C5626 C 0.4939 0.55588 0.87024 0.0
C5627 C 0.4865 0.55771 0.88453 0.0
C5628 C 0.47227 0.56256 0.88343 0.0
H5629 H 0.50144 0.54661 0.98493 0.0
H5630 H 0.49246 0.54949 0.95838 0.0
C5631 C 0.46564 0.56511 0.86879 0.0
C5632 C 0.49359 0.55466 0.9004 0.0
H5633 H 0.4858 0.53322 0.9311 0.0
C5634 C 0.50878 0.56292 0.90659 0.0
C5635 C 0.48549 0.54367 0.90963 0.0
C5636 C 0.46954 0.53354 0.90382 0.0
C5637 C 0.51564 0.56109 0.92155 0.0
C5638 C 0.50747 0.55017 0.93088 0.0
C5639 C 0.49238 0.54169 0.92446 0.0
C5640 C 0.51371 0.54798 0.94754 0.0
C5641 C 0.53144 0.57154 0.92745 0.0
C5642 C 0.52885 0.54579 0.95117 0.0
C5643 C 0.53423 0.54434 0.96686 0.0
C5644 C 0.52455 0.54457 0.97954 0.0
C5645 C 0.50938 0.54626 0.97572 0.0
C5646 C 0.50413 0.5479 0.96026 0.0
H5647 H 0.53414 0.58244 0.92165 0.0
H5648 H 0.53242 0.57579 0.94057 0.0
H5649 H 0.54024 0.56428 0.9245 0.0
H5650 H 0.53665 0.54515 0.94187 0.0
H5651 H 0.54601 0.54322 0.96907 0.0
H5652 H 0.75536 0.19093 0.09911 0.0
H5653 H 0.75416 0.20895 0.12439 0.0
H5654 H 0.79395 0.24353 0.11462 0.0
H5655 H 0.79501 0.22579 0.08915 0.0
H5656 H 0.77936 0.21719 0.14792 0.0
H5657 H 0.76431 0.27274 0.13136 0.0
H5658 H 0.76056 0.25333 0.11775 0.0
H5659 H 0.77972 0.26602 0.12125 0.0
C5660 C 0.76361 0.20256 0.10217 0.0
C5661 C 0.77534 0.20693 0.09223 0.0
C5662 C 0.76293 0.2128 0.11659 0.0
C5663 C 0.77385 0.22762 0.12122 0.0
C5664 C 0.78524 0.23228 0.11109 0.0
H5665 H 0.80331 0.29474 0.21073 0.0
H5666 H 0.79853 0.28246 0.18232 0.0
C5667 C 0.78596 0.22204 0.09668 0.0
C5668 C 0.77456 0.23713 0.13748 0.0
H5669 H 0.77302 0.27449 0.15862 0.0
C5670 C 0.77782 0.22966 0.15028 0.0
C5671 C 0.77279 0.25345 0.14041 0.0
C5672 C 0.76903 0.26186 0.12699 0.0
C5673 C 0.77959 0.23816 0.16601 0.0
C5674 C 0.77764 0.25444 0.16902 0.0
C5675 C 0.77442 0.26197 0.15622 0.0
C5676 C 0.77897 0.26363 0.18549 0.0
C5677 C 0.78396 0.22973 0.17924 0.0
C5678 C 0.7691 0.2576 0.19645 0.0
C5679 C 0.7721 0.26423 0.21263 0.0
C5680 C 0.78486 0.27726 0.21813 0.0
C5681 C 0.79377 0.28438 0.20694 0.0
C5682 C 0.79094 0.27749 0.19069 0.0
H5683 H 0.78903 0.21917 0.17463 0.0
H5684 H 0.79238 0.23834 0.18846 0.0
H5685 H 0.77347 0.22503 0.18505 0.0
H5686 H 0.75952 0.2472 0.19256 0.0
H5687 H 0.76468 0.25877 0.22087 0.0
H5688 H 0.15406 0.52165 0.32874 0.0
H5689 H 0.14064 0.52386 0.35321 0.0
H5690 H 0.1194 0.56039 0.33775 0.0
H5691 H 0.13257 0.55813 0.31322 0.0
H5692 H 0.14108 0.55515 0.37704 0.0
H5693 H 0.0837 0.52185 0.34643 0.0
H5694 H 0.1016 0.52005 0.33792 0.0
H5695 H 0.09414 0.53799 0.33737 0.0
C5696 C 0.14644 0.53006 0.33054 0.0
C5697 C 0.14429 0.5397 0.31911 0.0
C5698 C 0.13894 0.53141 0.34453 0.0
C5699 C 0.1291 0.54227 0.34715 0.0
C5700 C 0.12698 0.55194 0.33583 0.0
H5701 H 0.07798 0.57574 0.42371 0.0
H5702 H 0.09742 0.57417 0.40441 0.0
C5703 C 0.13452 0.55067 0.3219 0.0
C5704 C 0.1206 0.54319 0.36149 0.0
H5705 H 0.0843 0.53443 0.37342 0.0
C5706 C 0.12868 0.55058 0.37634 0.0
C5707 C 0.10449 0.53708 0.36038 0.0
C5708 C 0.09542 0.52867 0.34471 0.0
C5709 C 0.12087 0.55234 0.39021 0.0
C5710 C 0.10472 0.54653 0.38899 0.0
C5711 C 0.09673 0.53889 0.37419 0.0
C5712 C 0.09561 0.54819 0.40283 0.0
C5713 C 0.1298 0.5603 0.40603 0.0
C5714 C 0.08844 0.53414 0.40836 0.0
C5715 C 0.07729 0.53494 0.41917 0.0
C5716 C 0.07308 0.54983 0.42454 0.0
C5717 C 0.08086 0.56408 0.41958 0.0
C5718 C 0.09207 0.56325 0.40875 0.0
H5719 H 0.14247 0.56243 0.40524 0.0
H5720 H 0.12679 0.57224 0.41019 0.0
H5721 H 0.12658 0.55255 0.41513 0.0
H5722 H 0.09095 0.5224 0.40371 0.0
H5723 H 0.07141 0.52373 0.42265 0.0
H5724 H 0.8115 0.86382 0.61418 0.0
H5725 H 0.80969 0.85581 0.64033 0.0
H5726 H 0.76559 0.82329 0.62389 0.0
H5727 H 0.76753 0.83084 0.59748 0.0
H5728 H 0.78687 0.8596 0.66109 0.0
H5729 H 0.78892 0.79414 0.64424 0.0
H5730 H 0.79442 0.80869 0.63125 0.0
H5731 H 0.77438 0.80042 0.63296 0.0
C5732 C 0.80155 0.85471 0.61598 0.0
C5733 C 0.78969 0.84792 0.60364 0.0
C5734 C 0.80047 0.85025 0.63101 0.0
C5735 C 0.78757 0.83884 0.63405 0.0
C5736 C 0.77576 0.83194 0.62177 0.0
H5737 H 0.76543 0.79902 0.72032 0.0
H5738 H 0.76357 0.807 0.69423 0.0
C5739 C 0.77682 0.8364 0.60671 0.0
C5740 C 0.78633 0.8347 0.65027 0.0
H5741 H 0.78436 0.80334 0.67094 0.0
C5742 C 0.78632 0.8473 0.66325 0.0
C5743 C 0.78549 0.81862 0.65306 0.0
C5744 C 0.78593 0.80468 0.63969 0.0
C5745 C 0.78555 0.84427 0.67893 0.0
C5746 C 0.78503 0.82827 0.68176 0.0
C5747 C 0.78474 0.81561 0.66875 0.0
C5748 C 0.7855 0.82449 0.69815 0.0
C5749 C 0.78513 0.85821 0.6923 0.0
C5750 C 0.79828 0.83188 0.7092 0.0
C5751 C 0.79945 0.82716 0.72408 0.0
C5752 C 0.78799 0.8147 0.72813 0.0
C5753 C 0.7748 0.80803 0.71737 0.0
C5754 C 0.77364 0.81273 0.70248 0.0
H5755 H 0.78104 0.86823 0.68778 0.0
H5756 H 0.77749 0.85399 0.70139 0.0
H5757 H 0.79694 0.86331 0.69823 0.0
H5758 H 0.80766 0.84089 0.70611 0.0
H5759 H 0.80967 0.83285 0.7321 0.0
H5760 H 0.75022 0.48781 0.53393 0.0
H5761 H 0.72976 0.50299 0.53518 0.0
H5762 H 0.70167 0.46559 0.49869 0.0
H5763 H 0.72224 0.45025 0.49733 0.0
H5764 H 0.70203 0.49905 0.49528 0.0
H5765 H 0.68938 0.48685 0.5557 0.0
H5766 H 0.7094 0.49525 0.55405 0.0
H5767 H 0.70035 0.47537 0.54282 0.0
C5768 C 0.73967 0.4828 0.5262 0.0
C5769 C 0.73766 0.46775 0.51573 0.0
C5770 C 0.72804 0.49149 0.5269 0.0
C5771 C 0.71416 0.48522 0.51724 0.0
C5772 C 0.71231 0.47052 0.50628 0.0
H5773 H 0.63191 0.52113 0.53818 0.0
H5774 H 0.65047 0.50406 0.53225 0.0
C5775 C 0.72402 0.46182 0.50552 0.0
C5776 C 0.70149 0.49388 0.51912 0.0
H5777 H 0.67857 0.50745 0.54678 0.0
C5778 C 0.69676 0.5008 0.50646 0.0
C5779 C 0.69453 0.49585 0.53365 0.0
C5780 C 0.69854 0.48781 0.54729 0.0
C5781 C 0.68556 0.51021 0.50818 0.0
C5782 C 0.67923 0.51295 0.52304 0.0
C5783 C 0.68361 0.50552 0.53548 0.0
C5784 C 0.66791 0.52332 0.52599 0.0
C5785 C 0.68052 0.517 0.49406 0.0
C5786 C 0.67168 0.53989 0.52467 0.0
C5787 C 0.661 0.54967 0.52787 0.0
C5788 C 0.64644 0.54304 0.53257 0.0
C5789 C 0.6429 0.52653 0.53426 0.0
C5790 C 0.65351 0.51677 0.53096 0.0
H5791 H 0.68306 0.51008 0.48262 0.0
H5792 H 0.66796 0.51671 0.49357 0.0
H5793 H 0.68687 0.5299 0.49518 0.0
H5794 H 0.68291 0.54528 0.52125 0.0
H5795 H 0.66404 0.56232 0.52641 0.0
H5796 H 0.21643 0.11332 0.48301 0.0
H5797 H 0.1899 0.09748 0.48247 0.0
H5798 H 0.17945 0.13634 0.51658 0.0
H5799 H 0.20574 0.15238 0.51688 0.0
H5800 H 0.17446 0.08624 0.50734 0.0
H5801 H 0.14412 0.12794 0.48188 0.0
H5802 H 0.16465 0.12959 0.48141 0.0
H5803 H 0.15694 0.138 0.49924 0.0
C5804 C 0.20843 0.11859 0.49024 0.0
C5805 C 0.21326 0.13416 0.49997 0.0
C5806 C 0.19328 0.10947 0.48999 0.0
C5807 C 0.18258 0.11579 0.49931 0.0
C5808 C 0.18738 0.1313 0.50905 0.0
H5809 H 0.09087 0.08341 0.52638 0.0
H5810 H 0.11689 0.09759 0.52256 0.0
C5811 C 0.20251 0.14039 0.50935 0.0
C5812 C 0.16655 0.106 0.49931 0.0
H5813 H 0.12853 0.10726 0.49357 0.0
C5814 C 0.16442 0.09074 0.50415 0.0
C5815 C 0.15341 0.11184 0.49512 0.0
C5816 C 0.15485 0.12766 0.48897 0.0
C5817 C 0.14956 0.08149 0.50546 0.0
C5818 C 0.13647 0.08756 0.50166 0.0
C5819 C 0.13858 0.10264 0.49653 0.0
C5820 C 0.12051 0.07877 0.50362 0.0
C5821 C 0.14798 0.06557 0.51143 0.0
C5822 C 0.11375 0.06353 0.49407 0.0
C5823 C 0.09873 0.05538 0.49613 0.0
C5824 C 0.09022 0.06225 0.50789 0.0
C5825 C 0.09702 0.07763 0.51727 0.0
C5826 C 0.11194 0.08581 0.5151 0.0
H5827 H 0.1592 0.06403 0.51654 0.0
H5828 H 0.13963 0.06483 0.52069 0.0
H5829 H 0.14351 0.05525 0.50137 0.0
H5830 H 0.12004 0.05799 0.48494 0.0
H5831 H 0.09382 0.04373 0.48849 0.0
H5832 H 0.1901 0.91477 0.7615 0.0
H5833 H 0.20375 0.89274 0.76236 0.0
H5834 H 0.24722 0.92744 0.76678 0.0
H5835 H 0.23373 0.94959 0.76649 0.0
H5836 H 0.22262 0.87822 0.7447 0.0
H5837 H 0.25707 0.90539 0.80213 0.0
H5838 H 0.24159 0.91376 0.79503 0.0
H5839 H 0.26035 0.91851 0.78768 0.0
C5840 C 0.20257 0.91798 0.7629 0.0
C5841 C 0.21045 0.93458 0.76405 0.0
C5842 C 0.21052 0.90507 0.76325 0.0
C5843 C 0.22685 0.90791 0.76497 0.0
C5844 C 0.23474 0.92441 0.76587 0.0
H5845 H 0.2777 0.82462 0.74618 0.0
H5846 H 0.26602 0.84806 0.74347 0.0
C5847 C 0.22682 0.93731 0.76546 0.0
C5848 C 0.23544 0.89381 0.76568 0.0
H5849 H 0.26366 0.88198 0.78741 0.0
C5850 C 0.23161 0.87921 0.75409 0.0
C5851 C 0.24722 0.89435 0.7779 0.0
C5852 C 0.25173 0.90875 0.79148 0.0
C5853 C 0.23903 0.86578 0.75424 0.0
C5854 C 0.25106 0.8665 0.76626 0.0
C5855 C 0.25475 0.88102 0.77794 0.0
C5856 C 0.25917 0.85216 0.76763 0.0
C5857 C 0.23346 0.85063 0.74166 0.0
C5858 C 0.26016 0.8464 0.78217 0.0
C5859 C 0.26699 0.83301 0.78373 0.0
C5860 C 0.27356 0.82465 0.77098 0.0
C5861 C 0.273 0.83057 0.75644 0.0
C5862 C 0.26601 0.84402 0.75483 0.0
H5863 H 0.22177 0.85009 0.73608 0.0
H5864 H 0.24149 0.85071 0.73212 0.0
H5865 H 0.23311 0.83941 0.74678 0.0
H5866 H 0.25524 0.85205 0.79243 0.0
H5867 H 0.26695 0.82901 0.79514 0.0
H5868 H 0.39013 0.98785 0.05342 0.0
H5869 H 0.41689 1.00118 0.0517 0.0
H5870 H 0.40278 0.02352 0.01331 0.0
H5871 H 0.37586 0.01013 0.01496 0.0
H5872 H 0.42153 1.00267 0.00446 0.0
H5873 H 0.44721 0.04529 0.06015 0.0
H5874 H 0.43632 0.02632 0.06412 0.0
H5875 H 0.42662 0.03938 0.05483 0.0
C5876 C 0.39263 0.99621 0.04513 0.0
C5877 C 0.38101 0.99779 0.03414 0.0
C5878 C 0.40795 0.00386 0.04417 0.0
C5879 C 0.41178 0.01328 0.03235 0.0
C5880 C 0.4 0.01626 0.0225 0.0
H5881 H 0.50907 0.04411 0.02091 0.0
H5882 H 0.48196 0.04404 0.02182 0.0
C5883 C 0.38469 0.00859 0.02342 0.0
C5884 C 0.42787 0.01694 0.02819 0.0
H5885 H 0.46481 0.03249 0.04446 0.0
C5886 C 0.43101 0.00951 0.01308 0.0
C5887 C 0.44014 0.02587 0.03942 0.0
C5888 C 0.43739 0.0348 0.05548 0.0
C5889 C 0.44618 0.01006 0.00919 0.0
C5890 C 0.45844 0.01799 0.02084 0.0
C5891 C 0.45532 0.02618 0.03563 0.0
C5892 C 0.4746 0.01771 0.01814 0.0
C5893 C 0.44894 1.00196 0.99277 0.0
C5894 C 0.47945 0.00287 0.01547 0.0
C5895 C 0.49511 0.0029 0.01473 0.0
C5896 C 0.50605 0.01775 0.01668 0.0
C5897 C 0.50103 0.03248 0.01914 0.0
C5898 C 0.48547 0.03248 0.01971 0.0
H5899 H 0.43896 1.0008 0.98397 0.0
H5900 H 0.45945 0.00891 0.98848 0.0
H5901 H 0.45057 0.98947 0.99326 0.0
H5902 H 0.47121 0.99134 0.01459 0.0
H5903 H 0.49872 0.99139 0.01312 0.0
H5904 H 0.84226 0.59746 0.8 0.0
H5905 H 0.82949 0.61977 0.7978 0.0
H5906 H 0.87324 0.65448 0.80902 0.0
H5907 H 0.88624 0.63204 0.8105 0.0
H5908 H 0.82706 0.64931 0.81605 0.0
H5909 H 0.86054 0.65819 0.7634 0.0
H5910 H 0.86031 0.64097 0.7732 0.0
H5911 H 0.87158 0.66084 0.78223 0.0
C5912 C 0.84913 0.60987 0.8022 0.0
C5913 C 0.86527 0.61301 0.80497 0.0
C5914 C 0.84182 0.6226 0.80109 0.0
C5915 C 0.85051 0.63867 0.80286 0.0
C5916 C 0.86642 0.64207 0.80729 0.0
H5917 H 0.8148 0.71349 0.76381 0.0
H5918 H 0.83137 0.70072 0.77888 0.0
C5919 C 0.87379 0.62928 0.80827 0.0
C5920 C 0.84306 0.6512 0.79795 0.0
H5921 H 0.84078 0.67221 0.76753 0.0
C5922 C 0.8302 0.65457 0.80561 0.0
C5923 C 0.84719 0.65794 0.78426 0.0
C5924 C 0.86058 0.65426 0.77518 0.0
C5925 C 0.82098 0.66403 0.79959 0.0
C5926 C 0.82468 0.67006 0.78548 0.0
C5927 C 0.83801 0.66747 0.77833 0.0
C5928 C 0.81434 0.6781 0.77726 0.0
C5929 C 0.80719 0.6672 0.80816 0.0
C5930 C 0.7994 0.66945 0.77118 0.0
C5931 C 0.78987 0.67673 0.76264 0.0
C5932 C 0.79519 0.69273 0.76 0.0
C5933 C 0.81026 0.70126 0.76596 0.0
C5934 C 0.81976 0.69399 0.7745 0.0
H5935 H 0.80852 0.66603 0.82091 0.0
H5936 H 0.80534 0.67959 0.80751 0.0
H5937 H 0.79673 0.65807 0.80242 0.0
H5938 H 0.79519 0.65699 0.77285 0.0
H5939 H 0.77832 0.66988 0.7582 0.0
H5940 H 0.87476 0.66313 0.03025 0.0
H5941 H 0.89565 0.64862 0.03171 0.0
H5942 H 0.87595 0.61554 0.98816 0.0
H5943 H 0.85477 0.62967 0.98673 0.0
H5944 H 0.88499 0.60542 0.02442 0.0
H5945 H 0.92923 0.64067 0.99196 0.0
H5946 H 0.91687 0.65095 0.00414 0.0
H5947 H 0.90886 0.63724 0.98596 0.0
C5948 C 0.87479 0.65274 0.02098 0.0
C5949 C 0.86293 0.64754 0.00842 0.0
C5950 C 0.88684 0.64457 0.02177 0.0
C5951 C 0.88737 0.63108 0.01 0.0
C5952 C 0.8758 0.62601 0.99729 0.0
H5953 H 0.95525 0.56984 0.99829 0.0
H5954 H 0.9372 0.58724 0.99384 0.0
C5955 C 0.86372 0.63417 0.99648 0.0
C5956 C 0.89937 0.62158 0.01165 0.0
H5957 H 0.9361 0.61936 0.00318 0.0
C5958 C 0.89617 0.60843 0.01978 0.0
C5959 C 0.91383 0.62545 0.0054 0.0
C5960 C 0.91755 0.63933 0.99633 0.0
C5961 C 0.9071 0.59907 0.02196 0.0
C5962 C 0.92184 0.60323 0.0162 0.0
C5963 C 0.92491 0.61624 0.00775 0.0
C5964 C 0.9341 0.59417 0.01889 0.0
C5965 C 0.90257 0.58459 0.03017 0.0
C5966 C 0.9389 0.5928 0.03445 0.0
C5967 C 0.949 0.58273 0.03696 0.0
C5968 C 0.95485 0.57412 0.02399 0.0
C5969 C 0.95093 0.57637 0.00848 0.0
C5970 C 0.94059 0.58627 0.00595 0.0
H5971 H 0.88983 0.58016 0.02941 0.0
H5972 H 0.90768 0.5743 0.02488 0.0
H5973 H 0.90677 0.58828 0.043 0.0
H5974 H 0.93448 0.59916 0.04467 0.0
H5975 H 0.95199 0.58138 0.04905 0.0
H5976 H 0.19403 0.10946 0.76035 0.0
H5977 H 0.20712 0.13782 0.76063 0.0
H5978 H 0.24865 0.12919 0.78225 0.0
H5979 H 0.23585 0.10062 0.78143 0.0
H5980 H 0.21947 0.16331 0.78348 0.0
H5981 H 0.26707 0.15085 0.7475 0.0
H5982 H 0.25066 0.13497 0.74944 0.0
H5983 H 0.26631 0.14164 0.76496 0.0
C5984 C 0.20604 0.11337 0.76495 0.0
C5985 C 0.21373 0.10224 0.7707 0.0
C5986 C 0.21355 0.12985 0.76523 0.0
C5987 C 0.22915 0.13598 0.77116 0.0
C5988 C 0.2368 0.125 0.77717 0.0
H5989 H 0.29367 0.23338 0.7839 0.0
H5990 H 0.28108 0.20482 0.78395 0.0
C5991 C 0.22929 0.10851 0.77691 0.0
C5992 C 0.23717 0.15379 0.77132 0.0
H5993 H 0.26921 0.17845 0.76006 0.0
C5994 C 0.23031 0.16651 0.77825 0.0
C5995 C 0.25142 0.15842 0.76459 0.0
C5996 C 0.25924 0.14577 0.75606 0.0
C5997 C 0.23724 0.18331 0.7789 0.0
C5998 C 0.25149 0.18792 0.77218 0.0
C5999 C 0.25838 0.17523 0.7653 0.0
C6000 C 0.25931 0.20571 0.77208 0.0
C6001 C 0.22936 0.196 0.78725 0.0
C6002 C 0.25161 0.21617 0.76526 0.0
C6003 C 0.25892 0.23261 0.76507 0.0
C6004 C 0.2743 0.23932 0.77162 0.0
C6005 C 0.28199 0.22884 0.77847 0.0
C6006 C 0.27469 0.21236 0.77858 0.0
H6007 H 0.22139 0.19097 0.79572 0.0
H6008 H 0.23791 0.2068 0.79392 0.0
H6009 H 0.22245 0.20013 0.77822 0.0
H6010 H 0.23991 0.21157 0.75981 0.0
H6011 H 0.25246 0.24003 0.75961 0.0
H6012 H 0.32877 0.97132 0.28509 0.0
H6013 H 0.31145 0.94429 0.28272 0.0
H6014 H 0.34518 0.92206 0.25833 0.0
H6015 H 0.36264 0.94872 0.261 0.0
H6016 H 0.31207 0.91035 0.24506 0.0
H6017 H 0.32395 0.91076 0.31002 0.0
H6018 H 0.31778 0.92774 0.30371 0.0
H6019 H 0.3366 0.92444 0.29984 0.0
C6020 C 0.33246 0.96065 0.27918 0.0
C6021 C 0.34712 0.96213 0.27331 0.0
C6022 C 0.32252 0.9453 0.27776 0.0
C6023 C 0.32713 0.93131 0.27039 0.0
C6024 C 0.34144 0.93281 0.26395 0.0
H6025 H 0.32931 0.83635 0.27069 0.0
H6026 H 0.33047 0.86577 0.27528 0.0
C6027 C 0.35137 0.94807 0.26544 0.0
C6028 C 0.31793 0.91481 0.27042 0.0
H6029 H 0.31376 0.88552 0.29349 0.0
C6030 C 0.3119 0.9049 0.25569 0.0
C6031 C 0.3179 0.90794 0.28437 0.0
C6032 C 0.32441 0.91817 0.30043 0.0
C6033 C 0.30699 0.88793 0.25431 0.0
C6034 C 0.30801 0.8809 0.26811 0.0
C6035 C 0.3129 0.891 0.28301 0.0
C6036 C 0.30652 0.86317 0.26694 0.0
C6037 C 0.30204 0.8776 0.23793 0.0
C6038 C 0.29267 0.85205 0.26088 0.0
C6039 C 0.2921 0.83531 0.25818 0.0
C6040 C 0.30512 0.82949 0.2622 0.0
C6041 C 0.31893 0.84061 0.26829 0.0
C6042 C 0.31959 0.85734 0.27082 0.0
H6043 H 0.30416 0.88487 0.22827 0.0
H6044 H 0.30829 0.86753 0.23582 0.0
H6045 H 0.28951 0.87204 0.23709 0.0
H6046 H 0.28245 0.85632 0.25787 0.0
H6047 H 0.28153 0.82704 0.25281 0.0
H6048 H 0.57468 0.37522 0.55046 0.0
H6049 H 0.57178 0.39936 0.53938 0.0
H6050 H 0.55606 0.41971 0.58365 0.0
H6051 H 0.55915 0.39588 0.59488 0.0
H6052 H 0.54481 0.41338 0.53567 0.0
H6053 H 0.59214 0.45635 0.57575 0.0
H6054 H 0.59011 0.43445 0.57254 0.0
H6055 H 0.5784 0.44406 0.586 0.0
C6056 C 0.57072 0.38487 0.55792 0.0
C6057 C 0.56721 0.38346 0.57367 0.0
C6058 C 0.56895 0.39866 0.55149 0.0
C6059 C 0.56383 0.41154 0.56068 0.0
C6060 C 0.56019 0.41009 0.57632 0.0
H6061 H 0.54878 0.50749 0.55892 0.0
H6062 H 0.55118 0.4807 0.5638 0.0
C6063 C 0.56185 0.39631 0.5827 0.0
C6064 C 0.5624 0.42659 0.55419 0.0
H6065 H 0.57526 0.46819 0.56148 0.0
C6066 C 0.55155 0.42537 0.54121 0.0
C6067 C 0.57128 0.44227 0.56123 0.0
C6068 C 0.58375 0.44443 0.57455 0.0
C6069 C 0.54877 0.43941 0.53574 0.0
C6070 C 0.55722 0.45521 0.54325 0.0
C6071 C 0.56854 0.45625 0.55577 0.0
C6072 C 0.55405 0.47093 0.53929 0.0
C6073 C 0.53632 0.43717 0.52242 0.0
C6074 C 0.5544 0.47458 0.52371 0.0
C6075 C 0.55271 0.49004 0.52082 0.0
C6076 C 0.55079 0.50221 0.53348 0.0
C6077 C 0.55015 0.49838 0.54888 0.0
C6078 C 0.55161 0.48302 0.55171 0.0
H6079 H 0.52828 0.42498 0.5208 0.0
H6080 H 0.52957 0.44672 0.52477 0.0
H6081 H 0.5417 0.4382 0.51107 0.0
H6082 H 0.55658 0.46576 0.51388 0.0
H6083 H 0.55356 0.49269 0.50888 0.0
H6084 H 0.42506 0.75177 0.38317 0.0
H6085 H 0.40143 0.75392 0.36828 0.0
H6086 H 0.42866 0.78636 0.34152 0.0
H6087 H 0.45228 0.78434 0.35634 0.0
H6088 H 0.39249 0.78754 0.36442 0.0
H6089 H 0.39858 0.74635 0.30824 0.0
H6090 H 0.40699 0.74456 0.3274 0.0
H6091 H 0.4155 0.76109 0.31786 0.0
C6092 C 0.42606 0.75927 0.37404 0.0
C6093 C 0.4407 0.76788 0.37104 0.0
C6094 C 0.4125 0.76056 0.36558 0.0
C6095 C 0.41319 0.77028 0.35371 0.0
C6096 C 0.42776 0.77876 0.35058 0.0
H6097 H 0.34834 0.78731 0.28174 0.0
H6098 H 0.37055 0.78398 0.29784 0.0
C6099 C 0.44129 0.77764 0.35914 0.0
C6100 C 0.39878 0.77172 0.34465 0.0
H6101 H 0.37822 0.76005 0.30801 0.0
C6102 C 0.3893 0.78146 0.35211 0.0
C6103 C 0.39466 0.76397 0.32853 0.0
C6104 C 0.40436 0.75331 0.31995 0.0
C6105 C 0.37609 0.78398 0.34382 0.0
C6106 C 0.37179 0.77606 0.32766 0.0
C6107 C 0.38129 0.76617 0.32032 0.0
C6108 C 0.35791 0.77822 0.31797 0.0
C6109 C 0.3673 0.7957 0.35236 0.0
C6110 C 0.3431 0.77604 0.32362 0.0
C6111 C 0.33033 0.77824 0.31444 0.0
C6112 C 0.3319 0.78217 0.29913 0.0
C6113 C 0.34662 0.78405 0.29337 0.0
C6114 C 0.3594 0.78217 0.30264 0.0
H6115 H 0.37465 0.80449 0.36233 0.0
H6116 H 0.36282 0.80275 0.3441 0.0
H6117 H 0.35741 0.78871 0.35755 0.0
H6118 H 0.3413 0.77244 0.33508 0.0
H6119 H 0.31915 0.77652 0.31919 0.0
H6120 H 0.04472 0.71161 0.0742 0.0
H6121 H 0.04387 0.68275 0.06444 0.0
H6122 H 0.08669 0.6958 0.04328 0.0
H6123 H 0.08757 0.7248 0.05284 0.0
H6124 H 0.04363 0.66472 0.03378 0.0
H6125 H 0.09605 0.66413 0.07169 0.0
H6126 H 0.08634 0.68085 0.07473 0.0
H6127 H 0.09859 0.67889 0.05872 0.0
C6128 C 0.05387 0.70844 0.06727 0.0
C6129 C 0.06627 0.72069 0.06443 0.0
C6130 C 0.0534 0.69185 0.06175 0.0
C6131 C 0.06534 0.68701 0.05333 0.0
C6132 C 0.07751 0.69916 0.05005 0.0
H6133 H 0.0543 0.58262 0.00886 0.0
H6134 H 0.06053 0.61261 0.01225 0.0
C6135 C 0.07799 0.71579 0.05556 0.0
C6136 C 0.06507 0.66923 0.04834 0.0
H6137 H 0.08379 0.63936 0.05487 0.0
C6138 C 0.05248 0.65919 0.03827 0.0
C6139 C 0.07657 0.66196 0.05427 0.0
C6140 C 0.09011 0.67194 0.06556 0.0
C6141 C 0.05092 0.64214 0.03425 0.0
C6142 C 0.06235 0.63485 0.04031 0.0
C6143 C 0.0751 0.64493 0.05011 0.0
C6144 C 0.06046 0.61672 0.03801 0.0
C6145 C 0.03669 0.63197 0.02411 0.0
C6146 C 0.05906 0.609 0.05134 0.0
C6147 C 0.05569 0.59193 0.04943 0.0
C6148 C 0.05387 0.58214 0.03416 0.0
C6149 C 0.05587 0.58983 0.0208 0.0
C6150 C 0.05925 0.60698 0.02272 0.0
H6151 H 0.02764 0.63903 0.02299 0.0
H6152 H 0.03985 0.62771 0.01195 0.0
H6153 H 0.03174 0.62103 0.02922 0.0
H6154 H 0.05996 0.61618 0.06325 0.0
H6155 H 0.05409 0.58634 0.05992 0.0
H6156 H 0.0872 0.2495 0.86346 0.0
H6157 H 0.11116 0.25183 0.85026 0.0
H6158 H 0.12386 0.30333 0.8701 0.0
H6159 H 0.10026 0.301 0.88384 0.0
H6160 H 0.12138 0.269 0.82782 0.0
H6161 H 0.16333 0.29021 0.88113 0.0
H6162 H 0.14307 0.28217 0.8825 0.0
H6163 H 0.14987 0.30311 0.88034 0.0
C6164 C 0.09518 0.2613 0.86527 0.0
C6165 C 0.09166 0.27504 0.87485 0.0
C6166 C 0.10889 0.26264 0.85758 0.0
C6167 C 0.11959 0.27771 0.85932 0.0
C6168 C 0.11608 0.29146 0.86879 0.0
H6169 H 0.19854 0.31765 0.81174 0.0
H6170 H 0.17727 0.31226 0.82871 0.0
C6171 C 0.10237 0.29014 0.87648 0.0
C6172 C 0.13404 0.27917 0.85072 0.0
H6173 H 0.17338 0.29307 0.85594 0.0
C6174 C 0.13275 0.27409 0.83404 0.0
C6175 C 0.14899 0.28575 0.85872 0.0
C6176 C 0.15145 0.29046 0.87667 0.0
C6177 C 0.14579 0.27589 0.82518 0.0
C6178 C 0.16065 0.28287 0.83312 0.0
C6179 C 0.16201 0.28773 0.84981 0.0
C6180 C 0.1747 0.28602 0.82413 0.0
C6181 C 0.14357 0.27079 0.80725 0.0
C6182 C 0.18076 0.27312 0.81625 0.0
C6183 C 0.19313 0.27622 0.80669 0.0
C6184 C 0.19957 0.29226 0.80465 0.0
C6185 C 0.19384 0.30516 0.81304 0.0
C6186 C 0.18166 0.30209 0.82275 0.0
H6187 H 0.1312 0.26764 0.80268 0.0
H6188 H 0.14978 0.28074 0.80148 0.0
H6189 H 0.14851 0.25992 0.80366 0.0
H6190 H 0.17566 0.26062 0.8172 0.0
H6191 H 0.19717 0.26601 0.80028 0.0
H6192 H 0.59228 0.75325 0.95174 0.0
H6193 H 0.58698 0.73227 0.9684 0.0
H6194 H 0.55537 0.70054 0.93055 0.0
H6195 H 0.56073 0.7214 0.91371 0.0
H6196 H 0.55603 0.71814 0.97688 0.0
H6197 H 0.58501 0.672 0.94458 0.0
H6198 H 0.5897 0.69325 0.94261 0.0
H6199 H 0.57221 0.68001 0.93269 0.0
C6200 C 0.58438 0.74171 0.94687 0.0
C6201 C 0.57695 0.73895 0.9314 0.0
C6202 C 0.58131 0.7298 0.95643 0.0
C6203 C 0.57089 0.71485 0.95064 0.0
C6204 C 0.56357 0.71195 0.93515 0.0
H6205 H 0.53852 0.629 0.99287 0.0
H6206 H 0.54334 0.64884 0.97498 0.0
C6207 C 0.56656 0.72391 0.92561 0.0
C6208 C 0.5672 0.70262 0.9611 0.0
H6209 H 0.57111 0.6647 0.96614 0.0
C6210 C 0.55934 0.70646 0.97458 0.0
C6211 C 0.57143 0.68738 0.95793 0.0
C6212 C 0.58015 0.68286 0.94374 0.0
C6213 C 0.55549 0.69538 0.98498 0.0
C6214 C 0.55999 0.68024 0.98201 0.0
C6215 C 0.56772 0.67634 0.96842 0.0
C6216 C 0.55691 0.66835 0.99297 0.0
C6217 C 0.54639 0.69987 0.99887 0.0
C6218 C 0.56305 0.6727 0.00898 0.0
C6219 C 0.56031 0.6614 0.01923 0.0
C6220 C 0.55152 0.64547 0.01361 0.0
C6221 C 0.54545 0.64113 0.99753 0.0
C6222 C 0.54815 0.65245 0.98731 0.0
H6223 H 0.54015 0.70947 0.99688 0.0
H6224 H 0.53788 0.68903 0.00101 0.0
H6225 H 0.55441 0.70472 0.00981 0.0
H6226 H 0.57015 0.68478 0.0135 0.0
H6227 H 0.56537 0.66502 0.03147 0.0
H6228 H 0.07675 0.7794 0.71707 0.0
H6229 H 0.10136 0.77822 0.73051 0.0
H6230 H 0.11341 0.7525 0.68659 0.0
H6231 H 0.08909 0.75399 0.67298 0.0
H6232 H 0.11162 0.74969 0.73363 0.0
H6233 H 0.15179 0.78962 0.70156 0.0
H6234 H 0.13146 0.78948 0.70143 0.0
H6235 H 0.13798 0.77373 0.68857 0.0
C6236 C 0.08475 0.77372 0.71023 0.0
C6237 C 0.08099 0.7668 0.69396 0.0
C6238 C 0.09875 0.77298 0.71794 0.0
C6239 C 0.10925 0.76546 0.70948 0.0
C6240 C 0.10556 0.7586 0.69325 0.0
H6241 H 0.18257 0.72315 0.73967 0.0
H6242 H 0.15839 0.72891 0.7298 0.0
C6243 C 0.09158 0.75929 0.68554 0.0
C6244 C 0.12376 0.76404 0.71774 0.0
H6245 H 0.16289 0.77309 0.71675 0.0
C6246 C 0.12285 0.75492 0.73006 0.0
C6247 C 0.13837 0.77106 0.71317 0.0
C6248 C 0.14003 0.78166 0.70056 0.0
C6249 C 0.13618 0.75213 0.73754 0.0
C6250 C 0.15072 0.75846 0.73241 0.0
C6251 C 0.15168 0.76809 0.72051 0.0
C6252 C 0.16507 0.75492 0.73899 0.0
C6253 C 0.13462 0.7424 0.75085 0.0
C6254 C 0.17683 0.76767 0.7473 0.0
C6255 C 0.1906 0.76441 0.75304 0.0
C6256 C 0.19294 0.74835 0.75041 0.0
C6257 C 0.18106 0.7356 0.74213 0.0
C6258 C 0.16726 0.73887 0.73645 0.0
H6259 H 0.12334 0.74196 0.756 0.0
H6260 H 0.13542 0.72967 0.74608 0.0
H6261 H 0.14403 0.74768 0.76053 0.0
H6262 H 0.17533 0.78014 0.74935 0.0
H6263 H 0.19942 0.77449 0.75957 0.0
H6264 H 0.11032 0.39094 0.46221 0.0
H6265 H 0.10475 0.41737 0.47304 0.0
H6266 H 0.10594 0.43026 0.42629 0.0
H6267 H 0.11082 0.40367 0.4152 0.0
H6268 H 0.11667 0.45213 0.47243 0.0
H6269 H 0.06022 0.42474 0.43668 0.0
H6270 H 0.07415 0.41277 0.43998 0.0
H6271 H 0.07723 0.42647 0.426 0.0
C6272 C 0.1097 0.39952 0.45429 0.0
C6273 C 0.11061 0.39503 0.43779 0.0
C6274 C 0.10666 0.41467 0.46052 0.0
C6275 C 0.1046 0.42552 0.45035 0.0
C6276 C 0.10729 0.42188 0.43424 0.0
H6277 H 0.05073 0.50027 0.47365 0.0
H6278 H 0.06543 0.48231 0.45881 0.0
C6279 C 0.1102 0.4067 0.42796 0.0
C6280 C 0.09712 0.43905 0.45607 0.0
H6281 H 0.06219 0.44948 0.45419 0.0
C6282 C 0.10484 0.45173 0.46832 0.0
C6283 C 0.08169 0.43844 0.4506 0.0
C6284 C 0.07274 0.42485 0.43767 0.0
C6285 C 0.09734 0.46361 0.47559 0.0
C6286 C 0.08164 0.46244 0.4707 0.0
C6287 C 0.07419 0.45024 0.45793 0.0
C6288 C 0.07238 0.47295 0.47943 0.0
C6289 C 0.10624 0.4772 0.48852 0.0
C6290 C 0.07081 0.47296 0.49571 0.0
C6291 C 0.06241 0.48312 0.50414 0.0
C6292 C 0.05531 0.49329 0.4964 0.0
C6293 C 0.05605 0.4925 0.47988 0.0
C6294 C 0.06457 0.4824 0.47145 0.0
H6295 H 0.11882 0.47953 0.48714 0.0
H6296 H 0.1023 0.48874 0.48845 0.0
H6297 H 0.10444 0.47361 0.50032 0.0
H6298 H 0.07621 0.46523 0.50194 0.0
H6299 H 0.06164 0.48315 0.51673 0.0
H6300 H 0.4468 0.24682 0.21835 0.0
H6301 H 0.42451 0.24489 0.23452 0.0
H6302 H 0.40397 0.27276 0.20519 0.0
H6303 H 0.42604 0.27477 0.18914 0.0
H6304 H 0.41348 0.27472 0.25053 0.0
H6305 H 0.36989 0.23005 0.20748 0.0
H6306 H 0.3904 0.23104 0.20731 0.0
H6307 H 0.38187 0.24516 0.19838 0.0
C6308 C 0.43744 0.25243 0.21537 0.0
C6309 C 0.43809 0.26104 0.20262 0.0
C6310 C 0.4248 0.2513 0.22456 0.0
C6311 C 0.41263 0.2585 0.22083 0.0
C6312 C 0.41323 0.26696 0.20805 0.0
H6313 H 0.33804 0.29635 0.23578 0.0
H6314 H 0.36227 0.28768 0.23093 0.0
C6315 C 0.42587 0.26825 0.19902 0.0
C6316 C 0.39951 0.25831 0.23064 0.0
H6317 H 0.36028 0.24993 0.2258 0.0
C6318 C 0.40182 0.26885 0.24549 0.0
C6319 C 0.38441 0.25051 0.224 0.0
C6320 C 0.38146 0.23841 0.20847 0.0
C6321 C 0.38926 0.27319 0.25303 0.0
C6322 C 0.37426 0.26684 0.24541 0.0
C6323 C 0.3719 0.25497 0.23144 0.0
C6324 C 0.36117 0.27399 0.25023 0.0
C6325 C 0.39214 0.28568 0.26824 0.0
C6326 C 0.35287 0.26938 0.26286 0.0
C6327 C 0.33917 0.27445 0.2657 0.0
C6328 C 0.33375 0.28421 0.25596 0.0
C6329 C 0.34227 0.28913 0.24359 0.0
C6330 C 0.356 0.28416 0.24083 0.0
H6331 H 0.40427 0.28818 0.27349 0.0
H6332 H 0.38964 0.29725 0.26564 0.0
H6333 H 0.38431 0.28142 0.27715 0.0
H6334 H 0.35663 0.26133 0.27003 0.0
H6335 H 0.33242 0.2701 0.27497 0.0
H6336 H 0.62137 0.49094 0.35249 0.0
H6337 H 0.60962 0.49355 0.37789 0.0
H6338 H 0.60558 0.54223 0.37395 0.0
H6339 H 0.61744 0.53985 0.34869 0.0
H6340 H 0.61701 0.51266 0.40695 0.0
H6341 H 0.5624 0.52516 0.38401 0.0
H6342 H 0.57595 0.51836 0.37088 0.0
H6343 H 0.57905 0.53954 0.38019 0.0
C6344 C 0.61813 0.50233 0.35691 0.0
C6345 C 0.62053 0.5151 0.3479 0.0
C6346 C 0.61123 0.50378 0.37166 0.0
C6347 C 0.60619 0.51801 0.37819 0.0
C6348 C 0.60873 0.53084 0.36935 0.0
H6349 H 0.58571 0.54695 0.47936 0.0
H6350 H 0.5972 0.54351 0.45379 0.0
C6351 C 0.61566 0.52942 0.35463 0.0
C6352 C 0.59866 0.51949 0.39418 0.0
H6353 H 0.56694 0.52893 0.41227 0.0
C6354 C 0.60605 0.51623 0.40796 0.0
C6355 C 0.58415 0.52392 0.39604 0.0
C6356 C 0.57482 0.52679 0.38198 0.0
C6357 C 0.59975 0.51763 0.42311 0.0
C6358 C 0.58549 0.52251 0.42505 0.0
C6359 C 0.5779 0.52538 0.41121 0.0
C6360 C 0.5783 0.52455 0.44117 0.0
C6361 C 0.60837 0.5135 0.43696 0.0
C6362 C 0.56359 0.51527 0.44322 0.0
C6363 C 0.55698 0.51709 0.45812 0.0
C6364 C 0.56458 0.52857 0.47165 0.0
C6365 C 0.57927 0.53793 0.46951 0.0
C6366 C 0.58598 0.53592 0.4547 0.0
H6367 H 0.61692 0.50622 0.43292 0.0
H6368 H 0.61467 0.525 0.44482 0.0
H6369 H 0.60027 0.50653 0.44416 0.0
H6370 H 0.55719 0.50636 0.43327 0.0
H6371 H 0.54583 0.50942 0.45897 0.0
H6372 H 0.31972 0.86404 0.0758 0.0
H6373 H 0.32179 0.85083 0.09888 0.0
H6374 H 0.29222 0.87912 0.12335 0.0
H6375 H 0.2903 0.89266 0.10043 0.0
H6376 H 0.33398 0.86968 0.12967 0.0
H6377 H 0.27518 0.8312 0.13021 0.0
H6378 H 0.28222 0.8382 0.1125 0.0
H6379 H 0.27613 0.85201 0.1279 0.0
C6380 C 0.31358 0.86739 0.08605 0.0
C6381 C 0.30496 0.8795 0.08636 0.0
C6382 C 0.31469 0.85975 0.09915 0.0
C6383 C 0.30707 0.86395 0.1127 0.0
C6384 C 0.29796 0.87555 0.11286 0.0
H6385 H 0.33516 0.85254 0.2082 0.0
H6386 H 0.32647 0.86312 0.18518 0.0
C6387 C 0.29689 0.88325 0.09976 0.0
C6388 C 0.30998 0.85744 0.12723 0.0
H6389 H 0.29291 0.83359 0.15267 0.0
C6390 C 0.32503 0.86178 0.13471 0.0
C6391 C 0.29824 0.84709 0.13363 0.0
C6392 C 0.28204 0.8417 0.12562 0.0
C6393 C 0.32869 0.85606 0.14854 0.0
C6394 C 0.31689 0.84598 0.15517 0.0
C6395 C 0.30185 0.84151 0.14762 0.0
C6396 C 0.32025 0.83946 0.16959 0.0
C6397 C 0.34522 0.86059 0.15574 0.0
C6398 C 0.31898 0.82261 0.16855 0.0
C6399 C 0.32386 0.81655 0.18166 0.0
C6400 C 0.3301 0.82728 0.19597 0.0
C6401 C 0.33066 0.84407 0.1972 0.0
C6402 C 0.32569 0.8501 0.18411 0.0
H6403 H 0.35336 0.86517 0.1472 0.0
H6404 H 0.3464 0.87042 0.16637 0.0
H6405 H 0.34864 0.84994 0.15963 0.0
H6406 H 0.31478 0.81424 0.15742 0.0
H6407 H 0.32336 0.80356 0.18039 0.0
H6408 H 0.97857 0.53867 0.84921 0.0
H6409 H 0.99523 0.54196 0.87386 0.0
H6410 H 0.97003 0.57546 0.89805 0.0
H6411 H 0.95322 0.57214 0.87356 0.0
H6412 H 0.01131 0.57825 0.8989 0.0
H6413 H 0.96804 0.5289 0.9179 0.0
H6414 H 0.9707 0.52897 0.89705 0.0
H6415 H 0.96166 0.54376 0.90799 0.0
C6416 C 0.97668 0.54682 0.85976 0.0
C6417 C 0.9646 0.5551 0.85955 0.0
C6418 C 0.98626 0.5488 0.87372 0.0
C6419 C 0.98381 0.55901 0.88758 0.0
C6420 C 0.9721 0.56768 0.88732 0.0
H6421 H 0.01162 0.55835 0.98532 0.0
H6422 H 0.99983 0.56431 0.96118 0.0
C6423 C 0.96256 0.56577 0.87337 0.0
C6424 C 0.99242 0.55927 0.90275 0.0
H6425 H 0.99037 0.54065 0.93511 0.0
C6426 C 0.00681 0.57011 0.90691 0.0
C6427 C 0.98631 0.54864 0.91302 0.0
C6428 C 0.97084 0.53684 0.90888 0.0
C6429 C 0.01536 0.57057 0.9213 0.0
C6430 C 0.00936 0.55972 0.93148 0.0
C6431 C 0.99489 0.54898 0.92728 0.0
C6432 C 0.01787 0.55885 0.94645 0.0
C6433 C 0.03058 0.58276 0.9256 0.0
C6434 C 0.03204 0.5541 0.94617 0.0
C6435 C 0.03882 0.55077 0.95999 0.0
C6436 C 0.03137 0.55191 0.9741 0.0
C6437 C 0.01747 0.5572 0.97448 0.0
C6438 C 0.0108 0.56071 0.96077 0.0
H6439 H 0.03143 0.59304 0.91896 0.0
H6440 H 0.03226 0.58781 0.93861 0.0
H6441 H 0.0401 0.57656 0.92246 0.0
H6442 H 0.03746 0.55218 0.93512 0.0
H6443 H 0.04936 0.54642 0.95936 0.0
H6444 H 0.31466 0.26041 0.59163 0.0
H6445 H 0.31428 0.27239 0.61981 0.0
H6446 H 0.27342 0.23587 0.62306 0.0
H6447 H 0.27388 0.22357 0.59515 0.0
H6448 H 0.27354 0.27026 0.63826 0.0
H6449 H 0.32495 0.24754 0.65627 0.0
H6450 H 0.32639 0.25893 0.64022 0.0
H6451 H 0.31359 0.23915 0.63745 0.0
C6452 C 0.30561 0.25488 0.59833 0.0
C6453 C 0.29433 0.24096 0.59105 0.0
C6454 C 0.30536 0.26182 0.61441 0.0
C6455 C 0.29383 0.25499 0.62351 0.0
C6456 C 0.28235 0.24141 0.61621 0.0
H6457 H 0.28744 0.24784 0.72019 0.0
H6458 H 0.2863 0.24537 0.6912 0.0
C6459 C 0.28261 0.23443 0.60019 0.0
C6460 C 0.29417 0.26119 0.6409 0.0
H6461 H 0.31267 0.26047 0.67669 0.0
C6462 C 0.28222 0.26839 0.6467 0.0
C6463 C 0.30545 0.25859 0.65183 0.0
C6464 C 0.31831 0.25056 0.64625 0.0
C6465 C 0.28103 0.27264 0.66321 0.0
C6466 C 0.29202 0.26952 0.67412 0.0
C6467 C 0.30426 0.26285 0.66828 0.0
C6468 C 0.29033 0.2714 0.69153 0.0
C6469 C 0.26758 0.27954 0.66891 0.0
C6470 C 0.29249 0.28687 0.70137 0.0
C6471 C 0.29301 0.28829 0.71805 0.0
C6472 C 0.29142 0.27425 0.72502 0.0
C6473 C 0.2886 0.25882 0.71509 0.0
C6474 C 0.28799 0.25741 0.69854 0.0
H6475 H 0.2595 0.28032 0.65886 0.0
H6476 H 0.26117 0.27175 0.67668 0.0
H6477 H 0.27186 0.29198 0.67613 0.0
H6478 H 0.29452 0.29784 0.69622 0.0
H6479 H 0.29549 0.30034 0.72548 0.0
H6480 H 0.616 0.54005 0.1908 0.0
H6481 H 0.60419 0.54397 0.1657 0.0
H6482 H 0.60764 0.49578 0.14336 0.0
H6483 H 0.61949 0.49174 0.16842 0.0
H6484 H 0.61237 0.54637 0.1372 0.0
H6485 H 0.56433 0.49192 0.12719 0.0
H6486 H 0.57643 0.49838 0.14573 0.0
H6487 H 0.58268 0.48651 0.12875 0.0
C6488 C 0.6144 0.53017 0.18064 0.0
C6489 C 0.61895 0.51546 0.18224 0.0
C6490 C 0.60744 0.53246 0.16604 0.0
C6491 C 0.60448 0.52016 0.15215 0.0
C6492 C 0.60911 0.50549 0.15365 0.0
H6493 H 0.59141 0.53631 0.05296 0.0
H6494 H 0.60052 0.53362 0.07963 0.0
C6495 C 0.61606 0.50318 0.16827 0.0
C6496 C 0.59709 0.52291 0.13626 0.0
H6497 H 0.56888 0.50571 0.10511 0.0
C6498 C 0.60283 0.53739 0.13034 0.0
C6499 C 0.5843 0.51163 0.12691 0.0
C6500 C 0.57645 0.49633 0.13253 0.0
C6501 C 0.59672 0.54056 0.11566 0.0
C6502 C 0.58442 0.52896 0.10598 0.0
C6503 C 0.57834 0.51471 0.1121 0.0
C6504 C 0.57834 0.53114 0.08936 0.0
C6505 C 0.60342 0.55666 0.1108 0.0
C6506 C 0.56256 0.53058 0.08512 0.0
C6507 C 0.55721 0.53229 0.06952 0.0
C6508 C 0.56742 0.53442 0.05744 0.0
C6509 C 0.58309 0.53493 0.06177 0.0
C6510 C 0.58841 0.53342 0.07726 0.0
H6511 H 0.60897 0.56609 0.12127 0.0
H6512 H 0.61238 0.55495 0.10248 0.0
H6513 H 0.59441 0.56127 0.10465 0.0
H6514 H 0.55429 0.5288 0.09391 0.0
H6515 H 0.54503 0.53152 0.06681 0.0
H6516 H 0.29405 0.87404 0.93094 0.0
H6517 H 0.29439 0.85476 0.90641 0.0
H6518 H 0.33611 0.84389 0.92535 0.0
H6519 H 0.33588 0.86336 0.95006 0.0
H6520 H 0.33794 0.84959 0.89512 0.0
H6521 H 0.28358 0.80525 0.89808 0.0
H6522 H 0.28051 0.82565 0.90078 0.0
H6523 H 0.29308 0.82022 0.91518 0.0
C6524 C 0.30318 0.86738 0.92998 0.0
C6525 C 0.31486 0.87007 0.94243 0.0
C6526 C 0.30332 0.85631 0.916 0.0
C6527 C 0.31504 0.84758 0.91427 0.0
C6528 C 0.32686 0.85038 0.92658 0.0
H6529 H 0.30039 0.77859 0.82283 0.0
H6530 H 0.30592 0.7884 0.8517 0.0
C6531 C 0.32677 0.86155 0.9406 0.0
C6532 C 0.31534 0.83647 0.89905 0.0
H6533 H 0.29184 0.80665 0.87148 0.0
C6534 C 0.32802 0.83994 0.89007 0.0
C6535 C 0.30259 0.82359 0.89265 0.0
C6536 C 0.28926 0.81834 0.90228 0.0
C6537 C 0.32769 0.83179 0.87432 0.0
C6538 C 0.31418 0.82022 0.86731 0.0
C6539 C 0.30208 0.81575 0.87675 0.0
C6540 C 0.31168 0.81403 0.84991 0.0
C6541 C 0.34167 0.83601 0.86522 0.0
C6542 C 0.31281 0.82518 0.83942 0.0
C6543 C 0.30984 0.81965 0.82303 0.0
C6544 C 0.30531 0.80284 0.81681 0.0
C6545 C 0.30389 0.79163 0.82731 0.0
C6546 C 0.30708 0.7972 0.84377 0.0
H6547 H 0.35243 0.83968 0.8734 0.0
H6548 H 0.34264 0.82558 0.85586 0.0
H6549 H 0.34078 0.84656 0.85944 0.0
H6550 H 0.31574 0.83823 0.84392 0.0
H6551 H 0.3108 0.82861 0.81529 0.0
H6552 H 0.93283 0.52339 0.69878 0.0
H6553 H 0.94854 0.52054 0.67612 0.0
H6554 H 0.98404 0.56107 0.70072 0.0
H6555 H 0.96838 0.56401 0.72353 0.0
H6556 H 0.96775 0.55095 0.65893 0.0
H6557 H 0.99841 0.51252 0.69004 0.0
H6558 H 0.97858 0.513 0.69318 0.0
H6559 H 0.99361 0.53058 0.70108 0.0
C6560 C 0.94391 0.5318 0.69928 0.0
C6561 C 0.94948 0.54383 0.71292 0.0
C6562 C 0.95279 0.53023 0.68632 0.0
C6563 C 0.96736 0.5406 0.68686 0.0
C6564 C 0.97273 0.55305 0.70015 0.0
H6565 H 0.03345 0.53536 0.6145 0.0
H6566 H 0.01887 0.54575 0.63601 0.0
C6567 C 0.9638 0.55471 0.7131 0.0
C6568 C 0.97748 0.53724 0.67418 0.0
H6569 H 0.00411 0.51473 0.66379 0.0
C6570 C 0.97587 0.54322 0.65999 0.0
C6571 C 0.98789 0.52706 0.67571 0.0
C6572 C 0.98983 0.52034 0.69079 0.0
C6573 C 0.9843 0.53895 0.64707 0.0
C6574 C 0.99449 0.52849 0.64851 0.0
C6575 C 0.99627 0.52277 0.66281 0.0
C6576 C 0.00285 0.52258 0.63505 0.0
C6577 C 0.98193 0.54514 0.63178 0.0
C6578 C 0.99865 0.50613 0.62756 0.0
C6579 C 0.00684 0.50018 0.61524 0.0
C6580 C 0.01949 0.51057 0.6103 0.0
C6581 C 0.02365 0.52709 0.61788 0.0
C6582 C 0.01537 0.53305 0.63017 0.0
H6583 H 0.97231 0.55162 0.63198 0.0
H6584 H 0.99266 0.55373 0.62989 0.0
H6585 H 0.97949 0.53482 0.62146 0.0
H6586 H 0.98899 0.4979 0.63125 0.0
H6587 H 0.00316 0.48748 0.60947 0.0
H6588 H 0.31501 0.21306 0.42169 0.0
H6589 H 0.31667 0.2237 0.39677 0.0
H6590 H 0.29833 0.2645 0.41808 0.0
H6591 H 0.29701 0.2542 0.44321 0.0
H6592 H 0.29107 0.22918 0.37863 0.0
H6593 H 0.33649 0.28615 0.39729 0.0
H6594 H 0.33372 0.26969 0.4085 0.0
H6595 H 0.32091 0.2835 0.40993 0.0
C6596 C 0.31161 0.22447 0.42122 0.0
C6597 C 0.3059 0.23278 0.43452 0.0
C6598 C 0.31248 0.23048 0.40691 0.0
C6599 C 0.30777 0.24497 0.40561 0.0
C6600 C 0.30225 0.25342 0.41888 0.0
H6601 H 0.30051 0.29998 0.32967 0.0
H6602 H 0.30173 0.29025 0.35502 0.0
C6603 C 0.30134 0.24741 0.4332 0.0
C6604 C 0.30779 0.2507 0.39008 0.0
H6605 H 0.32327 0.2823 0.37168 0.0
C6606 C 0.29816 0.24076 0.37705 0.0
C6607 C 0.31695 0.26586 0.38813 0.0
C6608 C 0.32771 0.2769 0.40165 0.0
C6609 C 0.29715 0.2457 0.3622 0.0
C6610 C 0.30646 0.26081 0.36013 0.0
C6611 C 0.31616 0.27072 0.37319 0.0
C6612 C 0.30605 0.26675 0.34465 0.0
C6613 C 0.28568 0.2349 0.34911 0.0
C6614 C 0.30834 0.25695 0.33035 0.0
C6615 C 0.30726 0.26234 0.31579 0.0
C6616 C 0.3044 0.27788 0.31532 0.0
C6617 C 0.30275 0.28795 0.32968 0.0
C6618 C 0.30345 0.2824 0.34418 0.0
H6619 H 0.27631 0.22681 0.35403 0.0
H6620 H 0.28036 0.24224 0.34178 0.0
H6621 H 0.29167 0.22694 0.34122 0.0
H6622 H 0.31094 0.2451 0.3304 0.0
H6623 H 0.30884 0.25444 0.30493 0.0
H6624 H 0.36754 0.62623 0.5 0.0
H6625 H 0.38711 0.60985 0.49753 0.0
H6626 H 0.36772 0.58439 0.53407 0.0
H6627 H 0.34778 0.6003 0.53622 0.0
H6628 H 0.40932 0.60511 0.51978 0.0
H6629 H 0.36602 0.54769 0.49548 0.0
H6630 H 0.36161 0.56762 0.49713 0.0
H6631 H 0.36227 0.55825 0.51445 0.0
C6632 C 0.36744 0.61714 0.5075 0.0
C6633 C 0.35601 0.61441 0.51816 0.0
C6634 C 0.37868 0.60788 0.50615 0.0
C6635 C 0.37864 0.59574 0.51541 0.0
C6636 C 0.36773 0.59353 0.52662 0.0
H6637 H 0.45031 0.5423 0.52554 0.0
H6638 H 0.43178 0.55977 0.52991 0.0
C6639 C 0.35647 0.60275 0.52796 0.0
C6640 C 0.38966 0.58499 0.51287 0.0
H6641 H 0.39172 0.54525 0.50075 0.0
C6642 C 0.40551 0.59202 0.51563 0.0
C6643 C 0.38459 0.56797 0.50719 0.0
C6644 C 0.36771 0.55991 0.50324 0.0
C6645 C 0.41648 0.58241 0.51306 0.0
C6646 C 0.41139 0.56532 0.50783 0.0
C6647 C 0.39554 0.55834 0.50488 0.0
C6648 C 0.42232 0.55447 0.50525 0.0
C6649 C 0.4334 0.59066 0.51567 0.0
C6650 C 0.42273 0.54527 0.49005 0.0
C6651 C 0.43323 0.53519 0.48753 0.0
C6652 C 0.44347 0.53416 0.5002 0.0
C6653 C 0.44272 0.54307 0.5155 0.0
C6654 C 0.4322 0.55308 0.51801 0.0
H6655 H 0.43531 0.60399 0.51562 0.0
H6656 H 0.43813 0.5891 0.52745 0.0
H6657 H 0.43998 0.58513 0.50633 0.0
H6658 H 0.4151 0.54613 0.48008 0.0
H6659 H 0.43365 0.52857 0.47559 0.0
H6660 H 0.87356 0.95476 0.51436 0.0
H6661 H 0.89996 0.97046 0.5146 0.0
H6662 H 0.91258 0.95488 0.55798 0.0
H6663 H 0.88636 0.93853 0.55747 0.0
H6664 H 0.91766 0.99575 0.53629 0.0
H6665 H 0.94483 0.94223 0.5294 0.0
H6666 H 0.92422 0.94012 0.52657 0.0
H6667 H 0.93376 0.94415 0.54638 0.0
C6668 C 0.88196 0.95449 0.52388 0.0
C6669 C 0.87778 0.94518 0.5358 0.0
C6670 C 0.89705 0.96361 0.52407 0.0
C6671 C 0.90837 0.96367 0.53616 0.0
C6672 C 0.90416 0.95479 0.54834 0.0
H6673 H 0.99969 0.03172 0.55042 0.0
H6674 H 0.97346 0.01752 0.55405 0.0
C6675 C 0.88907 0.94559 0.54814 0.0
C6676 C 0.92454 0.97291 0.53584 0.0
H6677 H 0.96167 0.96833 0.53344 0.0
C6678 C 0.9273 0.98977 0.53572 0.0
C6679 C 0.93711 0.96508 0.53491 0.0
C6680 C 0.93488 0.94688 0.53417 0.0
C6681 C 0.94222 0.99898 0.53464 0.0
C6682 C 0.95481 0.99118 0.53393 0.0
C6683 C 0.95206 0.97434 0.53413 0.0
C6684 C 0.97076 0.99999 0.53197 0.0
C6685 C 0.94429 0.01685 0.53374 0.0
C6686 C 0.97815 0.99468 0.51856 0.0
C6687 C 0.99312 0.00272 0.51647 0.0
C6688 C 1.00114 0.01629 0.52778 0.0
C6689 C 0.9938 0.02149 0.54134 0.0
C6690 C 0.97877 0.0134 0.54342 0.0
H6691 H 0.93315 0.02001 0.53066 0.0
H6692 H 0.94922 0.02435 0.54552 0.0
H6693 H 0.95237 0.02023 0.52472 0.0
H6694 H 0.97225 0.98434 0.50958 0.0
H6695 H 0.99835 0.99829 0.5059 0.0
H6696 H 0.87833 0.14197 0.24494 0.0
H6697 H 0.86502 0.16434 0.24473 0.0
H6698 H 0.8673 0.17281 0.29605 0.0
H6699 H 0.88085 0.15069 0.29636 0.0
H6700 H 0.83936 0.17144 0.25145 0.0
H6701 H 0.88074 0.21894 0.29372 0.0
H6702 H 0.88485 0.19936 0.28621 0.0
H6703 H 0.87311 0.20173 0.30273 0.0
C6704 C 0.87608 0.14848 0.2563 0.0
C6705 C 0.88109 0.14405 0.27069 0.0
C6706 C 0.86834 0.16156 0.25616 0.0
C6707 C 0.86513 0.17113 0.27037 0.0
C6708 C 0.86988 0.16652 0.28474 0.0
H6709 H 0.81429 0.25391 0.28903 0.0
H6710 H 0.82635 0.23063 0.29155 0.0
C6711 C 0.87772 0.15351 0.2849 0.0
C6712 C 0.85662 0.18536 0.27003 0.0
H6713 H 0.85689 0.2255 0.28686 0.0
C6714 C 0.8434 0.18321 0.25923 0.0
C6715 C 0.86136 0.20117 0.28001 0.0
C6716 C 0.87587 0.20554 0.2912 0.0
C6717 C 0.83505 0.19576 0.25829 0.0
C6718 C 0.83977 0.21149 0.26828 0.0
C6719 C 0.85287 0.21365 0.27918 0.0
C6720 C 0.83181 0.22587 0.26695 0.0
C6721 C 0.82087 0.19183 0.24667 0.0
C6722 C 0.83057 0.23157 0.25242 0.0
C6723 C 0.82372 0.24498 0.25102 0.0
C6724 C 0.81748 0.25344 0.26398 0.0
C6725 C 0.8186 0.24777 0.2786 0.0
C6726 C 0.82569 0.23437 0.28007 0.0
H6727 H 0.81602 0.17844 0.2435 0.0
H6728 H 0.81178 0.19787 0.25162 0.0
H6729 H 0.82402 0.19631 0.23552 0.0
H6730 H 0.83527 0.22586 0.24204 0.0
H6731 H 0.82343 0.24888 0.23958 0.0
H6732 H 0.71328 0.06576 0.99553 0.0
H6733 H 0.68601 0.05328 0.99733 0.0
H6734 H 0.67498 0.10068 0.00095 0.0
H6735 H 0.70184 0.11309 0.99912 0.0
H6736 H 0.66962 0.06053 0.02274 0.0
H6737 H 0.64111 0.07309 0.96872 0.0
H6738 H 0.66164 0.07439 0.97108 0.0
H6739 H 0.65367 0.09137 0.97962 0.0
C6740 C 0.70494 0.07341 0.99642 0.0
C6741 C 0.70963 0.09035 0.99698 0.0
C6742 C 0.68942 0.06629 0.99741 0.0
C6743 C 0.67848 0.07603 0.99893 0.0
C6744 C 0.68315 0.09286 0.99923 0.0
H6745 H 0.59092 0.08207 0.02929 0.0
H6746 H 0.61851 0.08539 0.02546 0.0
C6747 C 0.69854 0.09994 0.99818 0.0
C6748 C 0.66244 0.06921 0.00188 0.0
H6749 H 0.62535 0.07024 0.99099 0.0
C6750 C 0.65988 0.06227 0.01561 0.0
C6751 C 0.64979 0.07149 0.99251 0.0
C6752 C 0.6517 0.07783 0.97707 0.0
C6753 C 0.64504 0.05853 0.02075 0.0
C6754 C 0.63266 0.06195 0.012 0.0
C6755 C 0.63505 0.06801 0.99783 0.0
C6756 C 0.61704 0.05957 0.01732 0.0
C6757 C 0.64271 0.0517 0.03586 0.0
C6758 C 0.60738 0.04394 0.01434 0.0
C6759 C 0.59172 0.04207 0.0164 0.0
C6760 C 0.58559 0.05579 0.02164 0.0
C6761 C 0.59546 0.07133 0.02541 0.0
C6762 C 0.61113 0.07322 0.02325 0.0
H6763 H 0.65366 0.05015 0.04158 0.0
H6764 H 0.63763 0.05999 0.04445 0.0
H6765 H 0.63446 0.03964 0.03313 0.0
H6766 H 0.61177 0.03334 0.00955 0.0
H6767 H 0.58433 0.02998 0.01309 0.0
H6768 H 0.23867 0.46584 0.21879 0.0
H6769 H 0.25111 0.44287 0.22049 0.0
H6770 H 0.22168 0.42888 0.25686 0.0
H6771 H 0.20939 0.45171 0.25526 0.0
H6772 H 0.26646 0.44096 0.24996 0.0
H6773 H 0.22152 0.38485 0.22776 0.0
H6774 H 0.22094 0.40431 0.22218 0.0
H6775 H 0.21433 0.39982 0.24089 0.0
C6776 C 0.23468 0.45757 0.22685 0.0
C6777 C 0.2232 0.46047 0.23698 0.0
C6778 C 0.24174 0.44451 0.22778 0.0
C6779 C 0.23711 0.43407 0.2386 0.0
C6780 C 0.22516 0.43659 0.24818 0.0
H6781 H 0.25832 0.3766 0.30056 0.0
H6782 H 0.24766 0.3905 0.28134 0.0
C6783 C 0.21828 0.4497 0.2474 0.0
C6784 C 0.24605 0.42207 0.24187 0.0
H6785 H 0.2409 0.38283 0.24802 0.0
C6786 C 0.26112 0.42811 0.24911 0.0
C6787 C 0.23898 0.40538 0.24069 0.0
C6788 C 0.2231 0.39817 0.2323 0.0
C6789 C 0.26876 0.41824 0.25667 0.0
C6790 C 0.26117 0.40183 0.25659 0.0
C6791 C 0.24662 0.39544 0.24815 0.0
C6792 C 0.26716 0.39194 0.26702 0.0
C6793 C 0.28429 0.42584 0.26579 0.0
C6794 C 0.28151 0.38786 0.26511 0.0
C6795 C 0.28776 0.3802 0.27626 0.0
C6796 C 0.27968 0.37634 0.28939 0.0
C6797 C 0.26498 0.37976 0.2908 0.0
C6798 C 0.2588 0.38751 0.27972 0.0
H6799 H 0.28734 0.43934 0.26677 0.0
H6800 H 0.28444 0.42297 0.27802 0.0
H6801 H 0.29334 0.42074 0.25956 0.0
H6802 H 0.28802 0.39098 0.25524 0.0
H6803 H 0.29914 0.37779 0.27484 0.0
H6804 H 0.2386 0.44649 0.00819 0.0
H6805 H 0.21713 0.46012 0.00673 0.0
H6806 H 0.19501 0.43401 0.04155 0.0
H6807 H 0.21643 0.42021 0.04304 0.0
H6808 H 0.18578 0.44707 0.99833 0.0
H6809 H 0.19583 0.48163 0.06071 0.0
H6810 H 0.20995 0.47164 0.05136 0.0
H6811 H 0.19342 0.45985 0.05861 0.0
C6812 C 0.22913 0.44352 0.01547 0.0
C6813 C 0.22933 0.43227 0.02579 0.0
C6814 C 0.21687 0.45139 0.01466 0.0
C6815 C 0.20453 0.44827 0.02417 0.0
C6816 C 0.20455 0.43689 0.03433 0.0
H6817 H 0.12077 0.48561 0.0061 0.0
H6818 H 0.13743 0.46694 0.01075 0.0
C6819 C 0.21684 0.42902 0.03518 0.0
C6820 C 0.19171 0.45697 0.02332 0.0
H6821 H 0.17455 0.48483 0.04498 0.0
C6822 C 0.18324 0.45525 0.00855 0.0
C6823 C 0.18843 0.46768 0.03666 0.0
C6824 C 0.19744 0.47047 0.05272 0.0
C6825 C 0.17185 0.46417 0.00666 0.0
C6826 C 0.16867 0.475 0.01996 0.0
C6827 C 0.1769 0.47646 0.03482 0.0
C6828 C 0.15797 0.48609 0.01837 0.0
C6829 C 0.1638 0.46244 0.99027 0.0
C6830 C 0.16376 0.50307 0.02175 0.0
C6831 C 0.15425 0.51373 0.01929 0.0
C6832 C 0.13867 0.50771 0.01338 0.0
C6833 C 0.13269 0.49069 0.01065 0.0
C6834 C 0.14225 0.47998 0.01313 0.0
H6835 H 0.16976 0.45621 0.98077 0.0
H6836 H 0.15186 0.45507 0.98986 0.0
H6837 H 0.1631 0.4746 0.98757 0.0
H6838 H 0.17579 0.50811 0.02592 0.0
H6839 H 0.15919 0.52676 0.02185 0.0
H6840 H 0.85582 0.98091 0.27236 0.0
H6841 H 0.84341 0.95233 0.27233 0.0
H6842 H 0.88435 0.93743 0.25666 0.0
H6843 H 0.89704 0.96595 0.25716 0.0
H6844 H 0.83568 0.92521 0.24883 0.0
H6845 H 0.8773 0.91319 0.29319 0.0
H6846 H 0.87723 0.93357 0.28991 0.0
H6847 H 0.8861 0.92032 0.27647 0.0
C6848 C 0.86237 0.97167 0.2691 0.0
C6849 C 0.87766 0.9762 0.26484 0.0
C6850 C 0.85513 0.95514 0.26897 0.0
C6851 C 0.86286 0.94237 0.26476 0.0
C6852 C 0.87804 0.9468 0.26034 0.0
H6853 H 0.8389 0.83469 0.26003 0.0
H6854 H 0.8515 0.86314 0.25945 0.0
C6855 C 0.88529 0.96332 0.26041 0.0
C6856 C 0.85498 0.92456 0.26468 0.0
H6857 H 0.85857 0.89023 0.27957 0.0
C6858 C 0.84071 0.91764 0.25564 0.0
C6859 C 0.86136 0.91429 0.2734 0.0
C6860 C 0.87626 0.92072 0.28391 0.0
C6861 C 0.83295 0.90105 0.2548 0.0
C6862 C 0.83923 0.8908 0.26367 0.0
C6863 C 0.85353 0.89774 0.2727 0.0
C6864 C 0.83125 0.87301 0.26379 0.0
C6865 C 0.81833 0.89462 0.24383 0.0
C6866 C 0.81555 0.8685 0.26665 0.0
C6867 C 0.80822 0.85205 0.26673 0.0
C6868 C 0.8163 0.83937 0.26429 0.0
C6869 C 0.83211 0.84391 0.26185 0.0
C6870 C 0.8394 0.86035 0.26156 0.0
H6871 H 0.81799 0.90175 0.23409 0.0
H6872 H 0.81712 0.88157 0.23835 0.0
H6873 H 0.80826 0.89577 0.25075 0.0
H6874 H 0.80889 0.87776 0.26913 0.0
H6875 H 0.79626 0.8494 0.26918 0.0
H6876 H 0.76177 0.10692 0.74771 0.0
H6877 H 0.77781 0.1345 0.74997 0.0
H6878 H 0.74956 0.1529 0.78513 0.0
H6879 H 0.73307 0.12576 0.78246 0.0
H6880 H 0.76214 0.15953 0.74278 0.0
H6881 H 0.79519 0.17697 0.80222 0.0
H6882 H 0.78848 0.15595 0.79216 0.0
H6883 H 0.7754 0.16661 0.80251 0.0
C6884 C 0.75904 0.1168 0.75604 0.0
C6885 C 0.74598 0.11412 0.76475 0.0
C6886 C 0.76835 0.13248 0.75746 0.0
C6887 C 0.76494 0.1456 0.76786 0.0
C6888 C 0.75256 0.14281 0.77731 0.0
H6889 H 0.76054 0.24249 0.76413 0.0
H6890 H 0.75767 0.21287 0.76058 0.0
C6891 C 0.74312 0.12723 0.77574 0.0
C6892 C 0.77227 0.16255 0.76684 0.0
H6893 H 0.79024 0.199 0.78989 0.0
C6894 C 0.76864 0.16815 0.75293 0.0
C6895 C 0.78072 0.17364 0.78007 0.0
C6896 C 0.78532 0.168 0.79506 0.0
C6897 C 0.77227 0.1848 0.75225 0.0
C6898 C 0.7798 0.19616 0.76589 0.0
C6899 C 0.78442 0.19037 0.77943 0.0
C6900 C 0.78184 0.21405 0.76691 0.0
C6901 C 0.7674 0.18987 0.73706 0.0
C6902 C 0.79623 0.22461 0.77218 0.0
C6903 C 0.79774 0.24153 0.77459 0.0
C6904 C 0.78503 0.24809 0.77117 0.0
C6905 C 0.77065 0.2376 0.76604 0.0
C6906 C 0.76903 0.22072 0.76401 0.0
H6907 H 0.76942 0.18125 0.72647 0.0
H6908 H 0.75485 0.18952 0.73657 0.0
H6909 H 0.77365 0.20232 0.73631 0.0
H6910 H 0.80622 0.21978 0.77478 0.0
H6911 H 0.80877 0.2494 0.77932 0.0
loop_
_geom_bond_atom_site_label_1
_geom_bond_atom_site_label_2
_geom_bond_distance
_geom_bond_site_symmetry_2
_ccdc_geom_bond_type
Li0 N17 1.990 . S
Li0 O60 1.956 . S
Li0 O61 1.970 . S
Li0 O62 1.961 . S
Li1 N25 1.990 . S
Li1 O60 1.970 . S
Li1 O61 1.956 . S
Li1 O63 1.961 . S
Li2 N47 1.990 . S
Li2 O60 1.961 . S
Li2 O62 1.956 . S
Li2 O63 1.970 . S
Li3 N53 1.990 . S
Li3 O61 1.961 . S
Li3 O62 1.970 . S
Li3 O63 1.956 . S
C4 C6 1.348 . S
C4 C7 1.356 . S
C4 O60 1.325 . S
N5 C8 1.314 . S
N5 C9 1.279 . S
C6 C4 1.348 . S
C6 C8 1.353 . S
C6 H64 0.929 . S
C7 C4 1.356 . S
C7 C9 1.358 . S
C7 H65 0.930 . S
C8 N5 1.314 . S
C8 C6 1.353 . S
C8 H66 0.930 . S
C9 N5 1.279 . S
C9 C7 1.358 . S
C9 H67 0.930 . S
C10 C13 1.348 . S
C10 C14 1.356 . S
C10 O61 1.325 . S
C11 N12 1.279 . S
C11 C14 1.358 . S
C11 H68 0.930 . S
N12 C11 1.279 . S
N12 C15 1.314 . S
C13 C10 1.348 . S
C13 C15 1.353 . S
C13 H69 0.929 . S
C14 C10 1.356 . S
C14 C11 1.358 . S
C14 H70 0.930 . S
C15 N12 1.314 . S
C15 C13 1.353 . S
C15 H71 0.930 . S
C16 N17 1.314 . S
C16 C21 1.353 . S
C16 H22 0.930 . S
N17 Li0 1.990 . S
N17 C16 1.314 . S
N17 C19 1.279 . S
C18 C19 1.358 . S
C18 C20 1.356 . S
C18 H72 0.930 . S
C19 N17 1.279 . S
C19 C18 1.358 . S
C19 H23 0.930 . S
C20 C18 1.356 . S
C20 C21 1.348 . S
C21 C16 1.353 . S
C21 C20 1.348 . S
C21 H73 0.929 . S
H22 C16 0.930 . S
H23 C19 0.930 . S
C24 N25 1.314 . S
C24 C26 1.353 . S
C24 H30 0.930 . S
N25 Li1 1.990 . S
N25 C24 1.314 . S
N25 C28 1.279 . S
C26 C24 1.353 . S
C26 C29 1.348 . S
C26 H74 0.929 . S
C27 C28 1.358 . S
C27 C29 1.356 . S
C27 H75 0.930 . S
C28 N25 1.279 . S
C28 C27 1.358 . S
C28 H31 0.930 . S
C29 C26 1.348 . S
C29 C27 1.356 . S
H30 C24 0.930 . S
H31 C28 0.930 . S
C32 C34 1.348 . S
C32 C35 1.356 . S
C32 O62 1.325 . S
N33 C36 1.314 . S
N33 C37 1.279 . S
C34 C32 1.348 . S
C34 C36 1.353 . S
C34 H76 0.929 . S
C35 C32 1.356 . S
C35 C37 1.358 . S
C35 H77 0.930 . S
C36 N33 1.314 . S
C36 C34 1.353 . S
C36 H78 0.930 . S
C37 N33 1.279 . S
C37 C35 1.358 . S
C37 H79 0.930 . S
C38 C39 1.348 . S
C38 C40 1.356 . S
C38 O63 1.325 . S
C39 C38 1.348 . S
C39 C41 1.353 . S
C39 H80 0.929 . S
C40 C38 1.356 . S
C40 C42 1.358 . S
C40 H81 0.930 . S
C41 C39 1.353 . S
C41 N43 1.314 . S
C41 H82 0.930 . S
C42 C40 1.358 . S
C42 N43 1.279 . S
C42 H83 0.930 . S
N43 C41 1.314 . S
N43 C42 1.279 . S
C44 C46 1.353 . S
C44 N47 1.314 . S
C44 H50 0.930 . S
C45 N47 1.279 . S
C45 C48 1.358 . S
C45 H51 0.930 . S
C46 C44 1.353 . S
C46 C49 1.348 . S
C46 H84 0.929 . S
N47 Li2 1.990 . S
N47 C44 1.314 . S
N47 C45 1.279 . S
C48 C45 1.358 . S
C48 C49 1.356 . S
C48 H85 0.930 . S
C49 C46 1.348 . S
C49 C48 1.356 . S
H50 C44 0.930 . S
H51 C45 0.930 . S
C52 N53 1.314 . S
C52 C54 1.353 . S
C52 H58 0.930 . S
N53 Li3 1.990 . S
N53 C52 1.314 . S
N53 C56 1.279 . S
C54 C52 1.353 . S
C54 C57 1.348 . S
C54 H86 0.929 . S
C55 C56 1.358 . S
C55 C57 1.356 . S
C55 H87 0.930 . S
C56 N53 1.279 . S
C56 C55 1.358 . S
C56 H59 0.930 . S
C57 C54 1.348 . S
C57 C55 1.356 . S
H58 C52 0.930 . S
H59 C56 0.930 . S
O60 Li0 1.956 . S
O60 Li1 1.970 . S
O60 Li2 1.961 . S
O60 C4 1.325 . S
O61 Li0 1.970 . S
O61 Li1 1.956 . S
O61 Li3 1.961 . S
O61 C10 1.325 . S
O62 Li0 1.961 . S
O62 Li2 1.956 . S
O62 Li3 1.970 . S
O62 C32 1.325 . S
O63 Li1 1.961 . S
O63 Li2 1.970 . S
O63 Li3 1.956 . S
O63 C38 1.325 . S
H64 C6 0.929 . S
H65 C7 0.930 . S
H66 C8 0.930 . S
H67 C9 0.930 . S
H68 C11 0.930 . S
H69 C13 0.929 . S
H70 C14 0.930 . S
H71 C15 0.930 . S
H72 C18 0.930 . S
H73 C21 0.929 . S
H74 C26 0.929 . S
H75 C27 0.930 . S
H76 C34 0.929 . S
H77 C35 0.930 . S
H78 C36 0.930 . S
H79 C37 0.930 . S
H80 C39 0.929 . S
H81 C40 0.930 . S
H82 C41 0.930 . S
H83 C42 0.930 . S
H84 C46 0.929 . S
H85 C48 0.930 . S
H86 C54 0.929 . S
H87 C55 0.930 . S
Li88 N105 1.990 . S
Li88 O148 1.956 . S
Li88 O149 1.970 . S
Li88 O150 1.961 1_455 S
Li89 N113 1.990 . S
Li89 O148 1.970 . S
Li89 O149 1.956 . S
Li89 O151 1.929 1_455 S
Li90 N135 1.990 . S
Li90 O148 1.961 1_655 S
Li90 O150 1.956 . S
Li90 O151 1.972 . S
Li91 N141 1.990 . S
Li91 O149 1.961 1_655 S
Li91 O150 1.970 . S
Li91 O151 2.001 . S
C92 C94 1.348 . S
C92 C95 1.356 . S
C92 O148 1.325 . S
N93 C96 1.314 . S
N93 C97 1.279 . S
C94 C92 1.348 . S
C94 C96 1.353 . S
C94 H152 0.929 . S
C95 C92 1.356 . S
C95 C97 1.358 . S
C95 H153 0.930 . S
C96 N93 1.314 . S
C96 C94 1.353 . S
C96 H154 0.930 . S
C97 N93 1.279 . S
C97 C95 1.358 . S
C97 H155 0.930 . S
C98 C101 1.348 . S
C98 C102 1.356 . S
C98 O149 1.325 . S
C99 N100 1.279 . S
C99 C102 1.358 . S
C99 H156 0.930 . S
N100 C99 1.279 . S
N100 C103 1.314 . S
C101 C98 1.348 . S
C101 C103 1.353 . S
C101 H157 0.929 . S
C102 C98 1.356 . S
C102 C99 1.358 . S
C102 H158 0.924 1_455 S
C103 N100 1.314 . S
C103 C101 1.353 . S
C103 H159 0.930 . S
C104 N105 1.314 1_655 S
C104 C109 1.353 . S
C104 H110 0.930 . S
N105 Li88 1.990 . S
N105 C104 1.314 1_455 S
N105 C107 1.279 . S
C106 C107 1.358 . S
C106 C108 1.356 . S
C106 H160 0.930 . S
C107 N105 1.279 . S
C107 C106 1.358 . S
C107 H111 0.930 . S
C108 C106 1.356 . S
C108 C109 1.348 1_455 S
C109 C104 1.353 . S
C109 C108 1.348 1_655 S
C109 H161 0.929 . S
H110 C104 0.930 . S
H111 C107 0.930 . S
C112 N113 1.314 . S
C112 C114 1.353 . S
C112 H118 0.930 . S
N113 Li89 1.990 . S
N113 C112 1.314 . S
N113 C116 1.279 . S
C114 C112 1.353 . S
C114 C117 1.348 . S
C114 H162 0.929 . S
C115 C116 1.358 . S
C115 C117 1.356 . S
C115 H163 0.930 . S
C116 N113 1.279 . S
C116 C115 1.358 . S
C116 H119 0.930 . S
C117 C114 1.348 . S
C117 C115 1.356 . S
H118 C112 0.930 . S
H119 C116 0.930 . S
C120 C122 1.348 . S
C120 C123 1.356 . S
C120 O150 1.325 . S
N121 C124 1.314 . S
N121 C125 1.279 . S
C122 C120 1.348 . S
C122 C124 1.353 . S
C122 H164 0.929 . S
C123 C120 1.356 . S
C123 C125 1.358 . S
C123 H165 0.930 . S
C124 N121 1.314 . S
C124 C122 1.353 . S
C124 H166 0.930 . S
C125 N121 1.279 . S
C125 C123 1.358 . S
C125 H167 0.930 . S
C126 C127 1.348 . S
C126 C128 1.356 1_655 S
C126 O151 1.323 . S
C127 C126 1.348 . S
C127 C129 1.353 . S
C127 H168 0.929 . S
C128 C126 1.356 1_455 S
C128 C130 1.359 . S
C128 H169 0.930 . S
C129 C127 1.353 . S
C129 N131 1.314 . S
C129 H170 0.930 . S
C130 C128 1.359 . S
C130 N131 1.280 1_455 S
C130 H171 0.929 . S
N131 C129 1.314 . S
N131 C130 1.280 1_655 S
C132 C134 1.353 . S
C132 N135 1.314 1_455 S
C132 H138 0.930 . S
C133 N135 1.279 . S
C133 C136 1.358 . S
C133 H139 0.930 . S
C134 C132 1.353 . S
C134 C137 1.348 1_455 S
C134 H172 0.929 . S
N135 Li90 1.990 . S
N135 C132 1.314 1_655 S
N135 C133 1.279 . S
C136 C133 1.358 . S
C136 C137 1.356 . S
C136 H173 0.930 . S
C137 C134 1.348 1_655 S
C137 C136 1.356 . S
H138 C132 0.930 . S
H139 C133 0.930 . S
C140 N141 1.314 . S
C140 C142 1.353 . S
C140 H146 0.930 . S
N141 Li91 1.990 . S
N141 C140 1.314 . S
N141 C144 1.279 . S
C142 C140 1.353 . S
C142 C145 1.348 . S
C142 H174 0.929 . S
C143 C144 1.358 . S
C143 C145 1.356 . S
C143 H175 0.930 . S
C144 N141 1.279 . S
C144 C143 1.358 . S
C144 H147 0.930 . S
C145 C142 1.348 . S
C145 C143 1.356 . S
H146 C140 0.930 . S
H147 C144 0.930 . S
O148 Li88 1.956 . S
O148 Li89 1.970 . S
O148 Li90 1.961 1_455 S
O148 C92 1.325 . S
O149 Li88 1.970 . S
O149 Li89 1.956 . S
O149 Li91 1.961 1_455 S
O149 C98 1.325 . S
O150 Li88 1.961 1_655 S
O150 Li90 1.956 . S
O150 Li91 1.970 . S
O150 C120 1.325 . S
O151 Li89 1.929 1_655 S
O151 Li90 1.972 . S
O151 Li91 2.001 . S
O151 C126 1.323 . S
H152 C94 0.929 . S
H153 C95 0.930 . S
H154 C96 0.930 . S
H155 C97 0.930 . S
H156 C99 0.930 . S
H157 C101 0.929 . S
H158 C102 0.924 1_655 S
H159 C103 0.930 . S
H160 C106 0.930 . S
H161 C109 0.929 . S
H162 C114 0.929 . S
H163 C115 0.930 . S
H164 C122 0.929 . S
H165 C123 0.930 . S
H166 C124 0.930 . S
H167 C125 0.930 . S
H168 C127 0.929 . S
H169 C128 0.930 . S
H170 C129 0.930 . S
H171 C130 0.929 . S
H172 C134 0.929 . S
H173 C136 0.930 . S
H174 C142 0.929 . S
H175 C143 0.930 . S
Li176 N193 1.990 . S
Li176 O236 1.956 . S
Li176 O237 1.970 . S
Li176 O238 1.961 . S
Li177 N201 1.990 . S
Li177 O236 1.970 . S
Li177 O237 1.956 . S
Li177 O239 1.961 . S
Li178 N223 1.990 . S
Li178 O236 1.961 . S
Li178 O238 1.956 . S
Li178 O239 1.970 . S
Li179 N229 1.990 . S
Li179 O237 1.961 . S
Li179 O238 1.970 . S
Li179 O239 1.956 . S
C180 C182 1.348 . S
C180 C183 1.356 . S
C180 O236 1.325 . S
N181 C184 1.314 . S
N181 C185 1.279 . S
C182 C180 1.348 . S
C182 C184 1.353 . S
C182 H240 0.929 . S
C183 C180 1.356 . S
C183 C185 1.358 . S
C183 H241 0.930 . S
C184 N181 1.314 . S
C184 C182 1.353 . S
C184 H242 0.930 . S
C185 N181 1.279 . S
C185 C183 1.358 . S
C185 H243 0.930 . S
C186 C189 1.348 . S
C186 C190 1.356 . S
C186 O237 1.325 . S
C187 N188 1.279 . S
C187 C190 1.358 . S
C187 H244 0.930 . S
N188 C187 1.279 . S
N188 C191 1.314 . S
C189 C186 1.348 . S
C189 C191 1.353 . S
C189 H245 0.929 . S
C190 C186 1.356 . S
C190 C187 1.358 . S
C190 H246 0.930 . S
C191 N188 1.314 . S
C191 C189 1.353 . S
C191 H247 0.930 . S
C192 N193 1.314 . S
C192 C197 1.353 . S
C192 H198 0.930 . S
N193 Li176 1.990 . S
N193 C192 1.314 . S
N193 C195 1.279 . S
C194 C195 1.358 . S
C194 C196 1.356 . S
C194 H248 0.930 . S
C195 N193 1.279 . S
C195 C194 1.358 . S
C195 H199 0.930 . S
C196 C194 1.356 . S
C196 C197 1.348 . S
C197 C192 1.353 . S
C197 C196 1.348 . S
C197 H249 0.929 . S
H198 C192 0.930 . S
H199 C195 0.930 . S
C200 N201 1.314 . S
C200 C202 1.353 . S
C200 H206 0.930 . S
N201 Li177 1.990 . S
N201 C200 1.314 . S
N201 C204 1.279 . S
C202 C200 1.353 . S
C202 C205 1.348 . S
C202 H250 0.929 . S
C203 C204 1.358 . S
C203 C205 1.356 . S
C203 H251 0.930 . S
C204 N201 1.279 . S
C204 C203 1.358 . S
C204 H207 0.930 . S
C205 C202 1.348 . S
C205 C203 1.356 . S
H206 C200 0.930 . S
H207 C204 0.930 . S
C208 C210 1.348 . S
C208 C211 1.356 . S
C208 O238 1.325 . S
N209 C212 1.314 . S
N209 C213 1.279 . S
C210 C208 1.348 . S
C210 C212 1.353 . S
C210 H252 0.929 . S
C211 C208 1.356 . S
C211 C213 1.358 . S
C211 H253 0.930 . S
C212 N209 1.314 . S
C212 C210 1.353 . S
C212 H254 0.930 . S
C213 N209 1.279 . S
C213 C211 1.358 . S
C213 H255 0.930 . S
C214 C215 1.348 . S
C214 C216 1.356 . S
C214 O239 1.325 . S
C215 C214 1.348 . S
C215 C217 1.353 . S
C215 H256 0.929 . S
C216 C214 1.356 . S
C216 C218 1.358 . S
C216 H257 0.930 . S
C217 C215 1.353 . S
C217 N219 1.314 . S
C217 H258 0.930 . S
C218 C216 1.358 . S
C218 N219 1.279 . S
C218 H259 0.930 . S
N219 C217 1.314 . S
N219 C218 1.279 . S
C220 C222 1.353 . S
C220 N223 1.314 . S
C220 H226 0.930 . S
C221 N223 1.279 . S
C221 C224 1.358 . S
C221 H227 0.930 . S
C222 C220 1.353 . S
C222 C225 1.348 . S
C222 H260 0.929 . S
N223 Li178 1.990 . S
N223 C220 1.314 . S
N223 C221 1.279 . S
C224 C221 1.358 . S
C224 C225 1.356 . S
C224 H261 0.930 . S
C225 C222 1.348 . S
C225 C224 1.356 . S
H226 C220 0.930 . S
H227 C221 0.930 . S
C228 N229 1.314 . S
C228 C230 1.353 . S
C228 H234 0.930 . S
N229 Li179 1.990 . S
N229 C228 1.314 . S
N229 C232 1.279 . S
C230 C228 1.353 . S
C230 C233 1.348 . S
C230 H262 0.929 . S
C231 C232 1.358 . S
C231 C233 1.356 . S
C231 H263 0.930 . S
C232 N229 1.279 . S
C232 C231 1.358 . S
C232 H235 0.930 . S
C233 C230 1.348 . S
C233 C231 1.356 . S
H234 C228 0.930 . S
H235 C232 0.930 . S
O236 Li176 1.956 . S
O236 Li177 1.970 . S
O236 Li178 1.961 . S
O236 C180 1.325 . S
O237 Li176 1.970 . S
O237 Li177 1.956 . S
O237 Li179 1.961 . S
O237 C186 1.325 . S
O238 Li176 1.961 . S
O238 Li178 1.956 . S
O238 Li179 1.970 . S
O238 C208 1.325 . S
O239 Li177 1.961 . S
O239 Li178 1.970 . S
O239 Li179 1.956 . S
O239 C214 1.325 . S
H240 C182 0.929 . S
H241 C183 0.930 . S
H242 C184 0.930 . S
H243 C185 0.930 . S
H244 C187 0.930 . S
H245 C189 0.929 . S
H246 C190 0.930 . S
H247 C191 0.930 . S
H248 C194 0.930 . S
H249 C197 0.929 . S
H250 C202 0.929 . S
H251 C203 0.930 . S
H252 C210 0.929 . S
H253 C211 0.930 . S
H254 C212 0.930 . S
H255 C213 0.930 . S
H256 C215 0.929 . S
H257 C216 0.930 . S
H258 C217 0.930 . S
H259 C218 0.930 . S
H260 C222 0.929 . S
H261 C224 0.930 . S
H262 C230 0.929 . S
H263 C231 0.930 . S
Li264 N281 1.990 . S
Li264 O324 1.956 . S
Li264 O325 1.970 . S
Li264 O326 1.961 . S
Li265 N289 1.990 . S
Li265 O324 1.970 . S
Li265 O325 1.956 . S
Li265 O327 1.961 . S
Li266 N311 1.990 . S
Li266 O324 1.961 . S
Li266 O326 1.956 . S
Li266 O327 1.970 . S
Li267 N317 1.990 . S
Li267 O325 1.961 . S
Li267 O326 1.970 . S
Li267 O327 1.956 . S
C268 C270 1.348 . S
C268 C271 1.356 . S
C268 O324 1.325 . S
N269 C272 1.314 . S
N269 C273 1.279 . S
C270 C268 1.348 . S
C270 C272 1.353 . S
C270 H328 0.929 . S
C271 C268 1.356 . S
C271 C273 1.358 . S
C271 H329 0.930 . S
C272 N269 1.314 . S
C272 C270 1.353 . S
C272 H330 0.930 . S
C273 N269 1.279 . S
C273 C271 1.358 . S
C273 H331 0.930 . S
C274 C277 1.348 . S
C274 C278 1.356 . S
C274 O325 1.325 . S
C275 N276 1.279 . S
C275 C278 1.358 . S
C275 H332 0.930 . S
N276 C275 1.279 . S
N276 C279 1.314 . S
C277 C274 1.348 . S
C277 C279 1.353 . S
C277 H333 0.929 . S
C278 C274 1.356 . S
C278 C275 1.358 . S
C278 H334 0.930 . S
C279 N276 1.314 . S
C279 C277 1.353 . S
C279 H335 0.930 . S
C280 N281 1.314 . S
C280 C285 1.353 . S
C280 H286 0.930 . S
N281 Li264 1.990 . S
N281 C280 1.314 . S
N281 C283 1.279 . S
C282 C283 1.358 . S
C282 C284 1.356 . S
C282 H336 0.930 . S
C283 N281 1.279 . S
C283 C282 1.358 . S
C283 H287 0.930 . S
C284 C282 1.356 . S
C284 C285 1.348 . S
C285 C280 1.353 . S
C285 C284 1.348 . S
C285 H337 0.929 . S
H286 C280 0.930 . S
H287 C283 0.930 . S
C288 N289 1.314 . S
C288 C290 1.353 . S
C288 H294 0.930 . S
N289 Li265 1.990 . S
N289 C288 1.314 . S
N289 C292 1.279 . S
C290 C288 1.353 . S
C290 C293 1.348 . S
C290 H338 0.929 . S
C291 C292 1.358 . S
C291 C293 1.356 . S
C291 H339 0.930 . S
C292 N289 1.279 . S
C292 C291 1.358 . S
C292 H295 0.930 . S
C293 C290 1.348 . S
C293 C291 1.356 . S
H294 C288 0.930 . S
H295 C292 0.930 . S
C296 C298 1.348 . S
C296 C299 1.356 . S
C296 O326 1.325 . S
N297 C300 1.314 . S
N297 C301 1.279 . S
C298 C296 1.348 . S
C298 C300 1.353 . S
C298 H340 0.929 . S
C299 C296 1.356 . S
C299 C301 1.358 . S
C299 H341 0.930 . S
C300 N297 1.314 . S
C300 C298 1.353 . S
C300 H342 0.930 . S
C301 N297 1.279 . S
C301 C299 1.358 . S
C301 H343 0.930 . S
C302 C303 1.348 . S
C302 C304 1.356 . S
C302 O327 1.325 . S
C303 C302 1.348 . S
C303 C305 1.353 . S
C303 H344 0.929 . S
C304 C302 1.356 . S
C304 C306 1.358 . S
C304 H345 0.930 . S
C305 C303 1.353 . S
C305 N307 1.314 . S
C305 H346 0.930 . S
C306 C304 1.358 . S
C306 N307 1.279 . S
C306 H347 0.930 . S
N307 C305 1.314 . S
N307 C306 1.279 . S
C308 C310 1.353 . S
C308 N311 1.314 . S
C308 H314 0.930 . S
C309 N311 1.279 . S
C309 C312 1.358 . S
C309 H315 0.930 . S
C310 C308 1.353 . S
C310 C313 1.348 . S
C310 H348 0.929 . S
N311 Li266 1.990 . S
N311 C308 1.314 . S
N311 C309 1.279 . S
C312 C309 1.358 . S
C312 C313 1.356 . S
C312 H349 0.930 . S
C313 C310 1.348 . S
C313 C312 1.356 . S
H314 C308 0.930 . S
H315 C309 0.930 . S
C316 N317 1.314 . S
C316 C318 1.353 . S
C316 H322 0.930 . S
N317 Li267 1.990 . S
N317 C316 1.314 . S
N317 C320 1.279 . S
C318 C316 1.353 . S
C318 C321 1.348 . S
C318 H350 0.929 . S
C319 C320 1.358 . S
C319 C321 1.356 . S
C319 H351 0.930 . S
C320 N317 1.279 . S
C320 C319 1.358 . S
C320 H323 0.930 . S
C321 C318 1.348 . S
C321 C319 1.356 . S
H322 C316 0.930 . S
H323 C320 0.930 . S
O324 Li264 1.956 . S
O324 Li265 1.970 . S
O324 Li266 1.961 . S
O324 C268 1.325 . S
O325 Li264 1.970 . S
O325 Li265 1.956 . S
O325 Li267 1.961 . S
O325 C274 1.325 . S
O326 Li264 1.961 . S
O326 Li266 1.956 . S
O326 Li267 1.970 . S
O326 C296 1.325 . S
O327 Li265 1.961 . S
O327 Li266 1.970 . S
O327 Li267 1.956 . S
O327 C302 1.325 . S
H328 C270 0.929 . S
H329 C271 0.930 . S
H330 C272 0.930 . S
H331 C273 0.930 . S
H332 C275 0.930 . S
H333 C277 0.929 . S
H334 C278 0.930 . S
H335 C279 0.930 . S
H336 C282 0.930 . S
H337 C285 0.929 . S
H338 C290 0.929 . S
H339 C291 0.930 . S
H340 C298 0.929 . S
H341 C299 0.930 . S
H342 C300 0.930 . S
H343 C301 0.930 . S
H344 C303 0.929 . S
H345 C304 0.930 . S
H346 C305 0.930 . S
H347 C306 0.930 . S
H348 C310 0.929 . S
H349 C312 0.930 . S
H350 C318 0.929 . S
H351 C319 0.930 . S
Li352 N369 1.990 . S
Li352 O412 1.956 . S
Li352 O413 1.970 . S
Li352 O414 1.961 . S
Li353 N377 1.990 . S
Li353 O412 1.970 . S
Li353 O413 1.956 . S
Li353 O415 1.961 . S
Li354 N399 1.990 . S
Li354 O412 1.961 . S
Li354 O414 1.956 . S
Li354 O415 1.970 . S
Li355 N405 1.990 . S
Li355 O413 1.961 . S
Li355 O414 1.970 . S
Li355 O415 1.956 . S
C356 C358 1.348 . S
C356 C359 1.356 . S
C356 O412 1.325 . S
N357 C360 1.314 . S
N357 C361 1.279 . S
C358 C356 1.348 . S
C358 C360 1.353 . S
C358 H416 0.929 . S
C359 C356 1.356 . S
C359 C361 1.358 . S
C359 H417 0.930 . S
C360 N357 1.314 . S
C360 C358 1.353 . S
C360 H418 0.930 . S
C361 N357 1.279 . S
C361 C359 1.358 . S
C361 H419 0.930 . S
C362 C365 1.348 . S
C362 C366 1.356 . S
C362 O413 1.325 . S
C363 N364 1.279 . S
C363 C366 1.358 . S
C363 H420 0.930 . S
N364 C363 1.279 . S
N364 C367 1.314 . S
C365 C362 1.348 . S
C365 C367 1.353 . S
C365 H421 0.929 . S
C366 C362 1.356 . S
C366 C363 1.358 . S
C366 H422 0.930 . S
C367 N364 1.314 . S
C367 C365 1.353 . S
C367 H423 0.930 . S
C368 N369 1.314 . S
C368 C373 1.353 . S
C368 H374 0.930 . S
N369 Li352 1.990 . S
N369 C368 1.314 . S
N369 C371 1.279 . S
C370 C371 1.358 . S
C370 C372 1.356 . S
C370 H424 0.930 . S
C371 N369 1.279 . S
C371 C370 1.358 . S
C371 H375 0.930 . S
C372 C370 1.356 . S
C372 C373 1.348 . S
C373 C368 1.353 . S
C373 C372 1.348 . S
C373 H425 0.929 . S
H374 C368 0.930 . S
H375 C371 0.930 . S
C376 N377 1.314 . S
C376 C378 1.353 . S
C376 H382 0.930 . S
N377 Li353 1.990 . S
N377 C376 1.314 . S
N377 C380 1.279 . S
C378 C376 1.353 . S
C378 C381 1.348 . S
C378 H426 0.929 . S
C379 C380 1.358 . S
C379 C381 1.356 . S
C379 H427 0.930 . S
C380 N377 1.279 . S
C380 C379 1.358 . S
C380 H383 0.930 . S
C381 C378 1.348 . S
C381 C379 1.356 . S
H382 C376 0.930 . S
H383 C380 0.930 . S
C384 C386 1.348 . S
C384 C387 1.356 . S
C384 O414 1.325 . S
N385 C388 1.314 . S
N385 C389 1.279 . S
C386 C384 1.348 . S
C386 C388 1.353 . S
C386 H428 0.929 . S
C387 C384 1.356 . S
C387 C389 1.358 . S
C387 H429 0.930 . S
C388 N385 1.314 . S
C388 C386 1.353 . S
C388 H430 0.930 . S
C389 N385 1.279 . S
C389 C387 1.358 . S
C389 H431 0.930 . S
C390 C391 1.348 . S
C390 C392 1.356 . S
C390 O415 1.325 . S
C391 C390 1.348 . S
C391 C393 1.353 . S
C391 H432 0.929 . S
C392 C390 1.356 . S
C392 C394 1.358 . S
C392 H433 0.930 . S
C393 C391 1.353 . S
C393 N395 1.314 . S
C393 H434 0.930 . S
C394 C392 1.358 . S
C394 N395 1.279 . S
C394 H435 0.930 . S
N395 C393 1.314 . S
N395 C394 1.279 . S
C396 C398 1.353 . S
C396 N399 1.314 . S
C396 H402 0.930 . S
C397 N399 1.279 . S
C397 C400 1.358 . S
C397 H403 0.930 . S
C398 C396 1.353 . S
C398 C401 1.348 . S
C398 H436 0.929 . S
N399 Li354 1.990 . S
N399 C396 1.314 . S
N399 C397 1.279 . S
C400 C397 1.358 . S
C400 C401 1.356 . S
C400 H437 0.930 . S
C401 C398 1.348 . S
C401 C400 1.356 . S
H402 C396 0.930 . S
H403 C397 0.930 . S
C404 N405 1.314 . S
C404 C406 1.353 . S
C404 H410 0.930 . S
N405 Li355 1.990 . S
N405 C404 1.314 . S
N405 C408 1.279 . S
C406 C404 1.353 . S
C406 C409 1.348 . S
C406 H438 0.929 . S
C407 C408 1.358 . S
C407 C409 1.356 . S
C407 H439 0.930 . S
C408 N405 1.279 . S
C408 C407 1.358 . S
C408 H411 0.930 . S
C409 C406 1.348 . S
C409 C407 1.356 . S
H410 C404 0.930 . S
H411 C408 0.930 . S
O412 Li352 1.956 . S
O412 Li353 1.970 . S
O412 Li354 1.961 . S
O412 C356 1.325 . S
O413 Li352 1.970 . S
O413 Li353 1.956 . S
O413 Li355 1.961 . S
O413 C362 1.325 . S
O414 Li352 1.961 . S
O414 Li354 1.956 . S
O414 Li355 1.970 . S
O414 C384 1.325 . S
O415 Li353 1.961 . S
O415 Li354 1.970 . S
O415 Li355 1.956 . S
O415 C390 1.325 . S
H416 C358 0.929 . S
H417 C359 0.930 . S
H418 C360 0.930 . S
H419 C361 0.930 . S
H420 C363 0.930 . S
H421 C365 0.929 . S
H422 C366 0.930 . S
H423 C367 0.930 . S
H424 C370 0.930 . S
H425 C373 0.929 . S
H426 C378 0.929 . S
H427 C379 0.930 . S
H428 C386 0.929 . S
H429 C387 0.930 . S
H430 C388 0.930 . S
H431 C389 0.930 . S
H432 C391 0.929 . S
H433 C392 0.930 . S
H434 C393 0.930 . S
H435 C394 0.930 . S
H436 C398 0.929 . S
H437 C400 0.930 . S
H438 C406 0.929 . S
H439 C407 0.930 . S
Li440 N457 1.990 . S
Li440 O500 1.956 . S
Li440 O501 1.970 . S
Li440 O502 1.961 . S
Li441 N465 1.990 . S
Li441 O500 1.970 . S
Li441 O501 1.956 . S
Li441 O503 1.961 . S
Li442 N487 1.990 . S
Li442 O500 1.961 . S
Li442 O502 1.956 . S
Li442 O503 1.970 . S
Li443 N493 1.990 . S
Li443 O501 1.961 . S
Li443 O502 1.970 . S
Li443 O503 1.956 . S
C444 C446 1.348 . S
C444 C447 1.356 . S
C444 O500 1.325 . S
N445 C448 1.314 . S
N445 C449 1.279 . S
C446 C444 1.348 . S
C446 C448 1.353 . S
C446 H504 0.929 . S
C447 C444 1.356 . S
C447 C449 1.358 . S
C447 H505 0.930 . S
C448 N445 1.314 . S
C448 C446 1.353 . S
C448 H506 0.930 . S
C449 N445 1.279 . S
C449 C447 1.358 . S
C449 H507 0.930 . S
C450 C453 1.348 . S
C450 C454 1.356 . S
C450 O501 1.325 . S
C451 N452 1.279 . S
C451 C454 1.358 . S
C451 H508 0.930 . S
N452 C451 1.279 . S
N452 C455 1.314 . S
C453 C450 1.348 . S
C453 C455 1.353 . S
C453 H509 0.929 . S
C454 C450 1.356 . S
C454 C451 1.358 . S
C454 H510 0.930 . S
C455 N452 1.314 . S
C455 C453 1.353 . S
C455 H511 0.930 . S
C456 N457 1.314 . S
C456 C461 1.353 . S
C456 H462 0.930 . S
N457 Li440 1.990 . S
N457 C456 1.314 . S
N457 C459 1.279 . S
C458 C459 1.358 . S
C458 C460 1.356 . S
C458 H512 0.930 . S
C459 N457 1.279 . S
C459 C458 1.358 . S
C459 H463 0.930 . S
C460 C458 1.356 . S
C460 C461 1.348 . S
C461 C456 1.353 . S
C461 C460 1.348 . S
C461 H513 0.929 . S
H462 C456 0.930 . S
H463 C459 0.930 . S
C464 N465 1.314 . S
C464 C466 1.353 . S
C464 H470 0.930 . S
N465 Li441 1.990 . S
N465 C464 1.314 . S
N465 C468 1.279 . S
C466 C464 1.353 . S
C466 C469 1.348 . S
C466 H514 0.929 . S
C467 C468 1.358 . S
C467 C469 1.356 . S
C467 H515 0.930 . S
C468 N465 1.279 . S
C468 C467 1.358 . S
C468 H471 0.930 . S
C469 C466 1.348 . S
C469 C467 1.356 . S
H470 C464 0.930 . S
H471 C468 0.930 . S
C472 C474 1.348 . S
C472 C475 1.356 . S
C472 O502 1.325 . S
N473 C476 1.314 . S
N473 C477 1.279 . S
C474 C472 1.348 . S
C474 C476 1.353 . S
C474 H516 0.929 . S
C475 C472 1.356 . S
C475 C477 1.358 . S
C475 H517 0.930 . S
C476 N473 1.314 . S
C476 C474 1.353 . S
C476 H518 0.930 . S
C477 N473 1.279 . S
C477 C475 1.358 . S
C477 H519 0.930 . S
C478 C479 1.348 . S
C478 C480 1.356 . S
C478 O503 1.325 . S
C479 C478 1.348 . S
C479 C481 1.353 . S
C479 H520 0.929 . S
C480 C478 1.356 . S
C480 C482 1.358 . S
C480 H521 0.930 . S
C481 C479 1.353 . S
C481 N483 1.314 . S
C481 H522 0.930 . S
C482 C480 1.358 . S
C482 N483 1.279 . S
C482 H523 0.930 . S
N483 C481 1.314 . S
N483 C482 1.279 . S
C484 C486 1.353 . S
C484 N487 1.314 . S
C484 H490 0.930 . S
C485 N487 1.279 . S
C485 C488 1.358 . S
C485 H491 0.930 . S
C486 C484 1.353 . S
C486 C489 1.348 . S
C486 H524 0.929 . S
N487 Li442 1.990 . S
N487 C484 1.314 . S
N487 C485 1.279 . S
C488 C485 1.358 . S
C488 C489 1.356 . S
C488 H525 0.930 . S
C489 C486 1.348 . S
C489 C488 1.356 . S
H490 C484 0.930 . S
H491 C485 0.930 . S
C492 N493 1.314 . S
C492 C494 1.353 . S
C492 H498 0.930 . S
N493 Li443 1.990 . S
N493 C492 1.314 . S
N493 C496 1.279 . S
C494 C492 1.353 . S
C494 C497 1.348 . S
C494 H526 0.929 . S
C495 C496 1.358 . S
C495 C497 1.356 . S
C495 H527 0.930 . S
C496 N493 1.279 . S
C496 C495 1.358 . S
C496 H499 0.930 . S
C497 C494 1.348 . S
C497 C495 1.356 . S
H498 C492 0.930 . S
H499 C496 0.930 . S
O500 Li440 1.956 . S
O500 Li441 1.970 . S
O500 Li442 1.961 . S
O500 C444 1.325 . S
O501 Li440 1.970 . S
O501 Li441 1.956 . S
O501 Li443 1.961 . S
O501 C450 1.325 . S
O502 Li440 1.961 . S
O502 Li442 1.956 . S
O502 Li443 1.970 . S
O502 C472 1.325 . S
O503 Li441 1.961 . S
O503 Li442 1.970 . S
O503 Li443 1.956 . S
O503 C478 1.325 . S
H504 C446 0.929 . S
H505 C447 0.930 . S
H506 C448 0.930 . S
H507 C449 0.930 . S
H508 C451 0.930 . S
H509 C453 0.929 . S
H510 C454 0.930 . S
H511 C455 0.930 . S
H512 C458 0.930 . S
H513 C461 0.929 . S
H514 C466 0.929 . S
H515 C467 0.930 . S
H516 C474 0.929 . S
H517 C475 0.930 . S
H518 C476 0.930 . S
H519 C477 0.930 . S
H520 C479 0.929 . S
H521 C480 0.930 . S
H522 C481 0.930 . S
H523 C482 0.930 . S
H524 C486 0.929 . S
H525 C488 0.930 . S
H526 C494 0.929 . S
H527 C495 0.930 . S
Li528 N545 1.990 . S
Li528 O588 1.956 . S
Li528 O589 1.970 . S
Li528 O590 1.961 . S
Li529 N553 1.990 . S
Li529 O588 1.970 . S
Li529 O589 1.956 . S
Li529 O591 1.961 . S
Li530 N575 1.990 . S
Li530 O588 1.961 . S
Li530 O590 1.956 . S
Li530 O591 1.970 . S
Li531 N581 1.990 . S
Li531 O589 1.961 . S
Li531 O590 1.970 . S
Li531 O591 1.956 . S
C532 C534 1.348 . S
C532 C535 1.356 . S
C532 O588 1.325 . S
N533 C536 1.314 . S
N533 C537 1.279 . S
C534 C532 1.348 . S
C534 C536 1.353 . S
C534 H592 0.929 . S
C535 C532 1.356 . S
C535 C537 1.358 . S
C535 H593 0.930 . S
C536 N533 1.314 . S
C536 C534 1.353 . S
C536 H594 0.930 . S
C537 N533 1.279 . S
C537 C535 1.358 . S
C537 H595 0.930 . S
C538 C541 1.348 . S
C538 C542 1.356 . S
C538 O589 1.325 . S
C539 N540 1.279 . S
C539 C542 1.358 . S
C539 H596 0.930 . S
N540 C539 1.279 . S
N540 C543 1.314 . S
C541 C538 1.348 . S
C541 C543 1.353 . S
C541 H597 0.929 . S
C542 C538 1.356 . S
C542 C539 1.358 . S
C542 H598 0.930 . S
C543 N540 1.314 . S
C543 C541 1.353 . S
C543 H599 0.930 . S
C544 N545 1.314 . S
C544 C549 1.353 . S
C544 H550 0.930 . S
N545 Li528 1.990 . S
N545 C544 1.314 . S
N545 C547 1.279 . S
C546 C547 1.358 . S
C546 C548 1.356 . S
C546 H600 0.930 . S
C547 N545 1.279 . S
C547 C546 1.358 . S
C547 H551 0.930 . S
C548 C546 1.356 . S
C548 C549 1.348 . S
C549 C544 1.353 . S
C549 C548 1.348 . S
C549 H601 0.929 . S
H550 C544 0.930 . S
H551 C547 0.930 . S
C552 N553 1.314 . S
C552 C554 1.353 . S
C552 H558 0.930 . S
N553 Li529 1.990 . S
N553 C552 1.314 . S
N553 C556 1.279 . S
C554 C552 1.353 . S
C554 C557 1.348 . S
C554 H602 0.929 . S
C555 C556 1.358 . S
C555 C557 1.356 . S
C555 H603 0.930 . S
C556 N553 1.279 . S
C556 C555 1.358 . S
C556 H559 0.930 . S
C557 C554 1.348 . S
C557 C555 1.356 . S
H558 C552 0.930 . S
H559 C556 0.930 . S
C560 C562 1.348 . S
C560 C563 1.356 . S
C560 O590 1.325 . S
N561 C564 1.314 . S
N561 C565 1.279 . S
C562 C560 1.348 . S
C562 C564 1.353 . S
C562 H604 0.929 . S
C563 C560 1.356 . S
C563 C565 1.358 . S
C563 H605 0.930 . S
C564 N561 1.314 . S
C564 C562 1.353 . S
C564 H606 0.930 . S
C565 N561 1.279 . S
C565 C563 1.358 . S
C565 H607 0.930 . S
C566 C567 1.348 . S
C566 C568 1.356 . S
C566 O591 1.325 . S
C567 C566 1.348 . S
C567 C569 1.353 . S
C567 H608 0.929 . S
C568 C566 1.356 . S
C568 C570 1.358 . S
C568 H609 0.930 . S
C569 C567 1.353 . S
C569 N571 1.314 . S
C569 H610 0.930 . S
C570 C568 1.358 . S
C570 N571 1.279 . S
C570 H611 0.930 . S
N571 C569 1.314 . S
N571 C570 1.279 . S
C572 C574 1.353 . S
C572 N575 1.314 . S
C572 H578 0.930 . S
C573 N575 1.279 . S
C573 C576 1.358 . S
C573 H579 0.930 . S
C574 C572 1.353 . S
C574 C577 1.348 . S
C574 H612 0.929 . S
N575 Li530 1.990 . S
N575 C572 1.314 . S
N575 C573 1.279 . S
C576 C573 1.358 . S
C576 C577 1.356 . S
C576 H613 0.930 . S
C577 C574 1.348 . S
C577 C576 1.356 . S
H578 C572 0.930 . S
H579 C573 0.930 . S
C580 N581 1.314 . S
C580 C582 1.353 . S
C580 H586 0.930 . S
N581 Li531 1.990 . S
N581 C580 1.314 . S
N581 C584 1.279 . S
C582 C580 1.353 . S
C582 C585 1.348 . S
C582 H614 0.929 . S
C583 C584 1.358 . S
C583 C585 1.356 . S
C583 H615 0.930 . S
C584 N581 1.279 . S
C584 C583 1.358 . S
C584 H587 0.930 . S
C585 C582 1.348 . S
C585 C583 1.356 . S
H586 C580 0.930 . S
H587 C584 0.930 . S
O588 Li528 1.956 . S
O588 Li529 1.970 . S
O588 Li530 1.961 . S
O588 C532 1.325 . S
O589 Li528 1.970 . S
O589 Li529 1.956 . S
O589 Li531 1.961 . S
O589 C538 1.325 . S
O590 Li528 1.961 . S
O590 Li530 1.956 . S
O590 Li531 1.970 . S
O590 C560 1.325 . S
O591 Li529 1.961 . S
O591 Li530 1.970 . S
O591 Li531 1.956 . S
O591 C566 1.325 . S
H592 C534 0.929 . S
H593 C535 0.930 . S
H594 C536 0.930 . S
H595 C537 0.930 . S
H596 C539 0.930 . S
H597 C541 0.929 . S
H598 C542 0.930 . S
H599 C543 0.930 . S
H600 C546 0.930 . S
H601 C549 0.929 . S
H602 C554 0.929 . S
H603 C555 0.930 . S
H604 C562 0.929 . S
H605 C563 0.930 . S
H606 C564 0.930 . S
H607 C565 0.930 . S
H608 C567 0.929 . S
H609 C568 0.930 . S
H610 C569 0.930 . S
H611 C570 0.930 . S
H612 C574 0.929 . S
H613 C576 0.930 . S
H614 C582 0.929 . S
H615 C583 0.930 . S
Li616 N633 1.990 . S
Li616 O676 1.972 . S
Li616 O677 1.970 . S
Li616 O678 1.961 . S
Li617 N641 1.990 1_455 S
Li617 O676 1.973 . S
Li617 O677 1.956 . S
Li617 O679 1.961 . S
Li618 N663 1.990 . S
Li618 O676 1.982 . S
Li618 O678 1.956 . S
Li618 O679 1.970 . S
Li619 N669 1.990 . S
Li619 O677 1.961 . S
Li619 O678 1.970 . S
Li619 O679 1.956 . S
C620 C622 1.348 . S
C620 C623 1.356 . S
C620 O676 1.305 1_655 S
N621 C624 1.314 . S
N621 C625 1.279 . S
C622 C620 1.348 . S
C622 C624 1.353 . S
C622 H680 0.929 . S
C623 C620 1.356 . S
C623 C625 1.358 . S
C623 H681 0.971 . S
C624 N621 1.314 . S
C624 C622 1.353 . S
C624 H682 0.930 . S
C625 N621 1.279 . S
C625 C623 1.358 . S
C625 H683 0.930 . S
C626 C629 1.348 . S
C626 C630 1.356 . S
C626 O677 1.325 . S
C627 N628 1.279 . S
C627 C630 1.358 . S
C627 H684 0.930 . S
N628 C627 1.279 . S
N628 C631 1.314 . S
C629 C626 1.348 . S
C629 C631 1.353 . S
C629 H685 0.929 . S
C630 C626 1.356 . S
C630 C627 1.358 . S
C630 H686 0.930 . S
C631 N628 1.314 . S
C631 C629 1.353 . S
C631 H687 0.930 . S
C632 N633 1.314 . S
C632 C637 1.353 . S
C632 H638 0.930 . S
N633 Li616 1.990 . S
N633 C632 1.314 . S
N633 C635 1.279 . S
C634 C635 1.358 . S
C634 C636 1.356 . S
C634 H688 0.930 . S
C635 N633 1.279 . S
C635 C634 1.358 . S
C635 H639 0.953 . S
C636 C634 1.356 . S
C636 C637 1.348 . S
C637 C632 1.353 . S
C637 C636 1.348 . S
C637 H689 0.929 . S
H638 C632 0.930 . S
H639 C635 0.953 . S
C640 N641 1.314 . S
C640 C642 1.353 . S
C640 H646 0.930 . S
N641 Li617 1.990 1_655 S
N641 C640 1.314 . S
N641 C644 1.279 . S
C642 C640 1.353 . S
C642 C645 1.348 . S
C642 H690 0.929 . S
C643 C644 1.358 . S
C643 C645 1.356 . S
C643 H691 0.930 . S
C644 N641 1.279 . S
C644 C643 1.358 . S
C644 H647 0.930 . S
C645 C642 1.348 . S
C645 C643 1.356 . S
H646 C640 0.930 . S
H647 C644 0.930 . S
C648 C650 1.348 . S
C648 C651 1.356 . S
C648 O678 1.325 . S
N649 C652 1.314 . S
N649 C653 1.279 . S
C650 C648 1.348 . S
C650 C652 1.353 . S
C650 H692 0.929 . S
C651 C648 1.356 . S
C651 C653 1.358 . S
C651 H693 0.930 . S
C652 N649 1.314 . S
C652 C650 1.353 . S
C652 H694 0.930 . S
C653 N649 1.279 . S
C653 C651 1.358 . S
C653 H695 0.930 . S
C654 C655 1.348 . S
C654 C656 1.356 . S
C654 O679 1.325 . S
C655 C654 1.348 . S
C655 C657 1.353 . S
C655 H696 0.929 . S
C656 C654 1.356 . S
C656 C658 1.358 . S
C656 H697 0.930 . S
C657 C655 1.353 . S
C657 N659 1.314 . S
C657 H698 0.930 . S
C658 C656 1.358 . S
C658 N659 1.279 . S
C658 H699 0.930 . S
N659 C657 1.314 . S
N659 C658 1.279 . S
C660 C662 1.354 1_455 S
C660 N663 1.314 . S
C660 H666 0.930 1_455 S
C661 N663 1.279 . S
C661 C664 1.358 . S
C661 H667 0.930 . S
C662 C660 1.354 1_655 S
C662 C665 1.324 1_655 S
C662 H700 0.953 . S
N663 Li618 1.990 . S
N663 C660 1.314 . S
N663 C661 1.279 . S
C664 C661 1.358 . S
C664 C665 1.356 . S
C664 H701 0.930 . S
C665 C662 1.324 1_455 S
C665 C664 1.356 . S
H666 C660 0.930 1_655 S
H667 C661 0.930 . S
C668 N669 1.314 . S
C668 C670 1.353 . S
C668 H674 0.930 . S
N669 Li619 1.990 . S
N669 C668 1.314 . S
N669 C672 1.279 . S
C670 C668 1.353 . S
C670 C673 1.348 . S
C670 H702 0.929 . S
C671 C672 1.358 . S
C671 C673 1.356 . S
C671 H703 0.930 . S
C672 N669 1.279 . S
C672 C671 1.358 . S
C672 H675 0.930 . S
C673 C670 1.348 . S
C673 C671 1.356 . S
H674 C668 0.930 . S
H675 C672 0.930 . S
O676 Li616 1.972 . S
O676 Li617 1.973 . S
O676 Li618 1.982 . S
O676 C620 1.305 1_455 S
O677 Li616 1.970 . S
O677 Li617 1.956 . S
O677 Li619 1.961 . S
O677 C626 1.325 . S
O678 Li616 1.961 . S
O678 Li618 1.956 . S
O678 Li619 1.970 . S
O678 C648 1.325 . S
O679 Li617 1.961 . S
O679 Li618 1.970 . S
O679 Li619 1.956 . S
O679 C654 1.325 . S
H680 C622 0.929 . S
H681 C623 0.971 . S
H682 C624 0.930 . S
H683 C625 0.930 . S
H684 C627 0.930 . S
H685 C629 0.929 . S
H686 C630 0.930 . S
H687 C631 0.930 . S
H688 C634 0.930 . S
H689 C637 0.929 . S
H690 C642 0.929 . S
H691 C643 0.930 . S
H692 C650 0.929 . S
H693 C651 0.930 . S
H694 C652 0.930 . S
H695 C653 0.930 . S
H696 C655 0.929 . S
H697 C656 0.930 . S
H698 C657 0.930 . S
H699 C658 0.930 . S
H700 C662 0.953 . S
H701 C664 0.930 . S
H702 C670 0.929 . S
H703 C671 0.930 . S
Li704 N721 1.990 . S
Li704 O764 1.956 . S
Li704 O765 1.970 . S
Li704 O766 1.961 . S
Li705 N729 1.990 1_545 S
Li705 O764 1.970 . S
Li705 O765 1.956 . S
Li705 O767 1.961 . S
Li706 N751 1.990 . S
Li706 O764 1.961 . S
Li706 O766 1.956 . S
Li706 O767 1.970 . S
Li707 N757 1.990 . S
Li707 O765 1.961 . S
Li707 O766 1.970 . S
Li707 O767 1.956 . S
C708 C710 1.348 1_545 S
C708 C711 1.356 . S
C708 O764 1.325 . S
N709 C712 1.314 . S
N709 C713 1.279 . S
C710 C708 1.348 1_565 S
C710 C712 1.353 . S
C710 H768 0.929 . S
C711 C708 1.356 . S
C711 C713 1.358 1_545 S
C711 H769 0.930 . S
C712 N709 1.314 . S
C712 C710 1.353 . S
C712 H770 0.930 . S
C713 N709 1.279 . S
C713 C711 1.358 1_565 S
C713 H771 0.932 . S
C714 C717 1.348 . S
C714 C718 1.356 . S
C714 O765 1.325 . S
C715 N716 1.279 . S
C715 C718 1.358 . S
C715 H772 0.930 . S
N716 C715 1.279 . S
N716 C719 1.314 . S
C717 C714 1.348 . S
C717 C719 1.353 . S
C717 H773 0.929 . S
C718 C714 1.356 . S
C718 C715 1.358 . S
C718 H774 0.930 . S
C719 N716 1.314 . S
C719 C717 1.353 . S
C719 H775 0.930 . S
C720 N721 1.314 . S
C720 C725 1.353 . S
C720 H726 0.930 . S
N721 Li704 1.990 . S
N721 C720 1.314 . S
N721 C723 1.279 . S
C722 C723 1.358 . S
C722 C724 1.356 . S
C722 H776 0.930 . S
C723 N721 1.279 . S
C723 C722 1.358 . S
C723 H727 0.930 . S
C724 C722 1.356 . S
C724 C725 1.348 . S
C725 C720 1.353 . S
C725 C724 1.348 . S
C725 H777 0.929 . S
H726 C720 0.930 . S
H727 C723 0.930 . S
C728 N729 1.314 . S
C728 C730 1.353 . S
C728 H734 0.930 . S
N729 Li705 1.990 1_565 S
N729 C728 1.314 . S
N729 C732 1.279 . S
C730 C728 1.353 . S
C730 C733 1.348 . S
C730 H778 0.929 . S
C731 C732 1.358 . S
C731 C733 1.356 . S
C731 H779 0.930 . S
C732 N729 1.279 . S
C732 C731 1.358 . S
C732 H735 0.930 . S
C733 C730 1.348 . S
C733 C731 1.356 . S
H734 C728 0.930 . S
H735 C732 0.930 . S
C736 C738 1.348 . S
C736 C739 1.356 . S
C736 O766 1.325 . S
N737 C740 1.314 . S
N737 C741 1.279 . S
C738 C736 1.348 . S
C738 C740 1.353 . S
C738 H780 0.929 . S
C739 C736 1.356 . S
C739 C741 1.358 . S
C739 H781 0.930 . S
C740 N737 1.314 . S
C740 C738 1.353 . S
C740 H782 0.930 . S
C741 N737 1.279 . S
C741 C739 1.358 . S
C741 H783 0.930 . S
C742 C743 1.348 . S
C742 C744 1.356 . S
C742 O767 1.325 . S
C743 C742 1.348 . S
C743 C745 1.353 . S
C743 H784 0.929 . S
C744 C742 1.356 . S
C744 C746 1.358 . S
C744 H785 0.930 . S
C745 C743 1.353 . S
C745 N747 1.314 . S
C745 H786 0.930 . S
C746 C744 1.358 . S
C746 N747 1.279 . S
C746 H787 0.930 . S
N747 C745 1.314 . S
N747 C746 1.279 . S
C748 C750 1.353 . S
C748 N751 1.314 . S
C748 H754 0.930 . S
C749 N751 1.279 . S
C749 C752 1.358 . S
C749 H755 0.930 . S
C750 C748 1.353 . S
C750 C753 1.348 . S
C750 H788 0.929 . S
N751 Li706 1.990 . S
N751 C748 1.314 . S
N751 C749 1.279 . S
C752 C749 1.358 . S
C752 C753 1.356 . S
C752 H789 0.930 . S
C753 C750 1.348 . S
C753 C752 1.356 . S
H754 C748 0.930 . S
H755 C749 0.930 . S
C756 N757 1.314 . S
C756 C758 1.353 . S
C756 H762 0.930 . S
N757 Li707 1.990 . S
N757 C756 1.314 . S
N757 C760 1.279 . S
C758 C756 1.353 . S
C758 C761 1.348 . S
C758 H790 0.929 . S
C759 C760 1.358 . S
C759 C761 1.356 . S
C759 H791 0.930 . S
C760 N757 1.279 . S
C760 C759 1.358 . S
C760 H763 0.930 . S
C761 C758 1.348 . S
C761 C759 1.356 . S
H762 C756 0.930 . S
H763 C760 0.930 . S
O764 Li704 1.956 . S
O764 Li705 1.970 . S
O764 Li706 1.961 . S
O764 C708 1.325 . S
O765 Li704 1.970 . S
O765 Li705 1.956 . S
O765 Li707 1.961 . S
O765 C714 1.325 . S
O766 Li704 1.961 . S
O766 Li706 1.956 . S
O766 Li707 1.970 . S
O766 C736 1.325 . S
O767 Li705 1.961 . S
O767 Li706 1.970 . S
O767 Li707 1.956 . S
O767 C742 1.325 . S
H768 C710 0.929 . S
H769 C711 0.930 . S
H770 C712 0.930 . S
H771 C713 0.932 . S
H772 C715 0.930 . S
H773 C717 0.929 . S
H774 C718 0.930 . S
H775 C719 0.930 . S
H776 C722 0.930 . S
H777 C725 0.929 . S
H778 C730 0.929 . S
H779 C731 0.930 . S
H780 C738 0.929 . S
H781 C739 0.930 . S
H782 C740 0.930 . S
H783 C741 0.930 . S
H784 C743 0.929 . S
H785 C744 0.930 . S
H786 C745 0.930 . S
H787 C746 0.930 . S
H788 C750 0.929 . S
H789 C752 0.930 . S
H790 C758 0.929 . S
H791 C759 0.930 . S
Li792 N809 1.990 . S
Li792 O852 1.956 . S
Li792 O853 1.970 . S
Li792 O854 1.961 . S
Li793 N817 1.990 . S
Li793 O852 1.970 . S
Li793 O853 1.956 . S
Li793 O855 1.961 . S
Li794 N839 1.990 . S
Li794 O852 1.961 . S
Li794 O854 1.956 . S
Li794 O855 1.970 . S
Li795 N845 1.990 . S
Li795 O853 1.961 . S
Li795 O854 1.970 . S
Li795 O855 1.956 . S
C796 C798 1.348 . S
C796 C799 1.356 . S
C796 O852 1.325 . S
N797 C800 1.314 . S
N797 C801 1.279 . S
C798 C796 1.348 . S
C798 C800 1.353 . S
C798 H856 0.929 . S
C799 C796 1.356 . S
C799 C801 1.358 . S
C799 H857 0.930 . S
C800 N797 1.314 . S
C800 C798 1.353 . S
C800 H858 0.930 . S
C801 N797 1.279 . S
C801 C799 1.358 . S
C801 H859 0.930 . S
C802 C805 1.348 . S
C802 C806 1.356 . S
C802 O853 1.325 . S
C803 N804 1.279 . S
C803 C806 1.358 . S
C803 H860 0.930 . S
N804 C803 1.279 . S
N804 C807 1.314 . S
C805 C802 1.348 . S
C805 C807 1.353 . S
C805 H861 0.929 . S
C806 C802 1.356 . S
C806 C803 1.358 . S
C806 H862 0.930 . S
C807 N804 1.314 . S
C807 C805 1.353 . S
C807 H863 0.930 . S
C808 N809 1.314 . S
C808 C813 1.353 . S
C808 H814 0.930 . S
N809 Li792 1.990 . S
N809 C808 1.314 . S
N809 C811 1.279 . S
C810 C811 1.358 . S
C810 C812 1.356 . S
C810 H864 0.930 . S
C811 N809 1.279 . S
C811 C810 1.358 . S
C811 H815 0.930 . S
C812 C810 1.356 . S
C812 C813 1.348 . S
C813 C808 1.353 . S
C813 C812 1.348 . S
C813 H865 0.929 . S
H814 C808 0.930 . S
H815 C811 0.930 . S
C816 N817 1.314 . S
C816 C818 1.353 . S
C816 H822 0.930 . S
N817 Li793 1.990 . S
N817 C816 1.314 . S
N817 C820 1.279 . S
C818 C816 1.353 . S
C818 C821 1.348 . S
C818 H866 0.929 . S
C819 C820 1.358 . S
C819 C821 1.356 . S
C819 H867 0.930 . S
C820 N817 1.279 . S
C820 C819 1.358 . S
C820 H823 0.930 . S
C821 C818 1.348 . S
C821 C819 1.356 . S
H822 C816 0.930 . S
H823 C820 0.930 . S
C824 C826 1.348 . S
C824 C827 1.356 . S
C824 O854 1.325 . S
N825 C828 1.314 . S
N825 C829 1.279 . S
C826 C824 1.348 . S
C826 C828 1.353 . S
C826 H868 0.929 . S
C827 C824 1.356 . S
C827 C829 1.358 . S
C827 H869 0.930 . S
C828 N825 1.314 . S
C828 C826 1.353 . S
C828 H870 0.930 . S
C829 N825 1.279 . S
C829 C827 1.358 . S
C829 H871 0.930 . S
C830 C831 1.348 . S
C830 C832 1.356 . S
C830 O855 1.325 . S
C831 C830 1.348 . S
C831 C833 1.353 . S
C831 H872 0.929 . S
C832 C830 1.356 . S
C832 C834 1.358 . S
C832 H873 0.930 . S
C833 C831 1.353 . S
C833 N835 1.314 . S
C833 H874 0.930 . S
C834 C832 1.358 . S
C834 N835 1.279 . S
C834 H875 0.930 . S
N835 C833 1.314 . S
N835 C834 1.279 . S
C836 C838 1.353 . S
C836 N839 1.314 . S
C836 H842 0.930 . S
C837 N839 1.279 . S
C837 C840 1.358 . S
C837 H843 0.930 . S
C838 C836 1.353 . S
C838 C841 1.348 . S
C838 H876 0.929 . S
N839 Li794 1.990 . S
N839 C836 1.314 . S
N839 C837 1.279 . S
C840 C837 1.358 . S
C840 C841 1.356 . S
C840 H877 0.930 . S
C841 C838 1.348 . S
C841 C840 1.356 . S
H842 C836 0.930 . S
H843 C837 0.930 . S
C844 N845 1.314 . S
C844 C846 1.353 . S
C844 H850 0.930 . S
N845 Li795 1.990 . S
N845 C844 1.314 . S
N845 C848 1.279 . S
C846 C844 1.353 . S
C846 C849 1.348 . S
C846 H878 0.929 . S
C847 C848 1.358 . S
C847 C849 1.356 . S
C847 H879 0.930 . S
C848 N845 1.279 . S
C848 C847 1.358 . S
C848 H851 0.930 . S
C849 C846 1.348 . S
C849 C847 1.356 . S
H850 C844 0.930 . S
H851 C848 0.930 . S
O852 Li792 1.956 . S
O852 Li793 1.970 . S
O852 Li794 1.961 . S
O852 C796 1.325 . S
O853 Li792 1.970 . S
O853 Li793 1.956 . S
O853 Li795 1.961 . S
O853 C802 1.325 . S
O854 Li792 1.961 . S
O854 Li794 1.956 . S
O854 Li795 1.970 . S
O854 C824 1.325 . S
O855 Li793 1.961 . S
O855 Li794 1.970 . S
O855 Li795 1.956 . S
O855 C830 1.325 . S
H856 C798 0.929 . S
H857 C799 0.930 . S
H858 C800 0.930 . S
H859 C801 0.930 . S
H860 C803 0.930 . S
H861 C805 0.929 . S
H862 C806 0.930 . S
H863 C807 0.930 . S
H864 C810 0.930 . S
H865 C813 0.929 . S
H866 C818 0.929 . S
H867 C819 0.930 . S
H868 C826 0.929 . S
H869 C827 0.930 . S
H870 C828 0.930 . S
H871 C829 0.930 . S
H872 C831 0.929 . S
H873 C832 0.930 . S
H874 C833 0.930 . S
H875 C834 0.930 . S
H876 C838 0.929 . S
H877 C840 0.930 . S
H878 C846 0.929 . S
H879 C847 0.930 . S
Li880 N897 1.990 . S
Li880 O940 1.956 . S
Li880 O941 1.970 . S
Li880 O942 1.983 . S
Li881 N905 1.990 . S
Li881 O940 1.967 . S
Li881 O941 1.975 . S
Li881 O943 1.944 1_545 S
Li882 N927 1.990 . S
Li882 O940 1.961 1_565 S
Li882 O942 1.927 1_565 S
Li882 O943 1.970 . S
Li883 N933 1.990 . S
Li883 O941 1.961 1_565 S
Li883 O942 1.972 1_565 S
Li883 O943 1.956 . S
C884 C886 1.348 . S
C884 C887 1.356 . S
C884 O940 1.325 . S
N885 C888 1.314 . S
N885 C889 1.279 . S
C886 C884 1.348 . S
C886 C888 1.353 . S
C886 H944 0.929 . S
C887 C884 1.356 . S
C887 C889 1.358 . S
C887 H945 0.930 . S
C888 N885 1.314 . S
C888 C886 1.353 . S
C888 H946 0.930 . S
C889 N885 1.279 . S
C889 C887 1.358 . S
C889 H947 0.930 . S
C890 C893 1.348 . S
C890 C894 1.356 . S
C890 O941 1.325 . S
C891 N892 1.279 . S
C891 C894 1.358 . S
C891 H948 0.930 . S
N892 C891 1.279 . S
N892 C895 1.314 . S
C893 C890 1.348 . S
C893 C895 1.353 . S
C893 H949 0.929 . S
C894 C890 1.356 . S
C894 C891 1.358 . S
C894 H950 0.930 . S
C895 N892 1.314 . S
C895 C893 1.353 . S
C895 H951 0.930 . S
C896 N897 1.314 . S
C896 C901 1.353 . S
C896 H902 0.930 . S
N897 Li880 1.990 . S
N897 C896 1.314 . S
N897 C899 1.279 . S
C898 C899 1.358 . S
C898 C900 1.356 . S
C898 H952 0.930 . S
C899 N897 1.279 . S
C899 C898 1.358 . S
C899 H903 0.930 . S
C900 C898 1.356 . S
C900 C901 1.348 . S
C901 C896 1.353 . S
C901 C900 1.348 . S
C901 H953 0.929 . S
H902 C896 0.930 . S
H903 C899 0.930 . S
C904 N905 1.296 1_565 S
C904 C906 1.353 . S
C904 H910 0.930 . S
N905 Li881 1.990 . S
N905 C904 1.296 1_545 S
N905 C908 1.297 . S
C906 C904 1.353 . S
C906 C909 1.350 . S
C906 H954 0.929 . S
C907 C908 1.358 . S
C907 C909 1.354 1_545 S
C907 H955 0.930 . S
C908 N905 1.297 . S
C908 C907 1.358 . S
C908 H911 0.930 . S
C909 C906 1.350 . S
C909 C907 1.354 1_565 S
H910 C904 0.930 . S
H911 C908 0.930 . S
C912 C914 1.345 1_545 S
C912 C915 1.357 . S
C912 O942 1.325 . S
N913 C916 1.320 . S
N913 C917 1.275 1_565 S
C914 C912 1.345 1_565 S
C914 C916 1.353 . S
C914 H956 0.929 . S
C915 C912 1.357 . S
C915 C917 1.358 . S
C915 H957 0.930 . S
C916 N913 1.320 . S
C916 C914 1.353 . S
C916 H958 0.930 . S
C917 N913 1.275 1_545 S
C917 C915 1.358 . S
C917 H959 0.930 . S
C918 C919 1.348 . S
C918 C920 1.356 . S
C918 O943 1.325 . S
C919 C918 1.348 . S
C919 C921 1.353 . S
C919 H960 0.929 . S
C920 C918 1.356 . S
C920 C922 1.358 . S
C920 H961 0.930 . S
C921 C919 1.353 . S
C921 N923 1.314 . S
C921 H962 0.930 . S
C922 C920 1.358 . S
C922 N923 1.279 . S
C922 H963 0.930 . S
N923 C921 1.314 . S
N923 C922 1.279 . S
C924 C926 1.353 . S
C924 N927 1.314 . S
C924 H930 0.930 . S
C925 N927 1.279 . S
C925 C928 1.358 . S
C925 H931 0.930 . S
C926 C924 1.353 . S
C926 C929 1.348 . S
C926 H964 0.929 . S
N927 Li882 1.990 . S
N927 C924 1.314 . S
N927 C925 1.279 . S
C928 C925 1.358 . S
C928 C929 1.356 . S
C928 H965 0.930 . S
C929 C926 1.348 . S
C929 C928 1.356 . S
H930 C924 0.930 . S
H931 C925 0.930 . S
C932 N933 1.314 1_545 S
C932 C934 1.353 . S
C932 H938 0.930 . S
N933 Li883 1.990 . S
N933 C932 1.314 1_565 S
N933 C936 1.279 . S
C934 C932 1.353 . S
C934 C937 1.348 1_545 S
C934 H966 0.929 . S
C935 C936 1.358 . S
C935 C937 1.356 . S
C935 H967 0.930 . S
C936 N933 1.279 . S
C936 C935 1.358 . S
C936 H939 0.930 . S
C937 C934 1.348 1_565 S
C937 C935 1.356 . S
H938 C932 0.930 . S
H939 C936 0.930 . S
O940 Li880 1.956 . S
O940 Li881 1.967 . S
O940 Li882 1.961 1_545 S
O940 C884 1.325 . S
O941 Li880 1.970 . S
O941 Li881 1.975 . S
O941 Li883 1.961 1_545 S
O941 C890 1.325 . S
O942 Li880 1.983 . S
O942 Li882 1.927 1_545 S
O942 Li883 1.972 1_545 S
O942 C912 1.325 . S
O943 Li881 1.944 1_565 S
O943 Li882 1.970 . S
O943 Li883 1.956 . S
O943 C918 1.325 . S
H944 C886 0.929 . S
H945 C887 0.930 . S
H946 C888 0.930 . S
H947 C889 0.930 . S
H948 C891 0.930 . S
H949 C893 0.929 . S
H950 C894 0.930 . S
H951 C895 0.930 . S
H952 C898 0.930 . S
H953 C901 0.929 . S
H954 C906 0.929 . S
H955 C907 0.930 . S
H956 C914 0.929 . S
H957 C915 0.930 . S
H958 C916 0.930 . S
H959 C917 0.930 . S
H960 C919 0.929 . S
H961 C920 0.930 . S
H962 C921 0.930 . S
H963 C922 0.930 . S
H964 C926 0.929 . S
H965 C928 0.930 . S
H966 C934 0.929 . S
H967 C935 0.930 . S
Li968 N985 1.990 . S
Li968 O1028 1.956 . S
Li968 O1029 1.970 . S
Li968 O1030 1.961 . S
Li969 N993 1.990 . S
Li969 O1028 1.970 . S
Li969 O1029 1.956 . S
Li969 O1031 1.961 . S
Li970 N1015 1.990 . S
Li970 O1028 1.961 . S
Li970 O1030 1.956 . S
Li970 O1031 1.970 . S
Li971 N1021 1.990 1_554 S
Li971 O1029 1.961 . S
Li971 O1030 1.970 . S
Li971 O1031 1.956 . S
C972 C974 1.348 . S
C972 C975 1.356 . S
C972 O1028 1.325 . S
N973 C976 1.314 . S
N973 C977 1.279 . S
C974 C972 1.348 . S
C974 C976 1.353 . S
C974 H1032 0.929 . S
C975 C972 1.356 . S
C975 C977 1.358 . S
C975 H1033 0.930 . S
C976 N973 1.314 . S
C976 C974 1.353 . S
C976 H1034 0.930 . S
C977 N973 1.279 . S
C977 C975 1.358 . S
C977 H1035 0.930 . S
C978 C981 1.348 . S
C978 C982 1.356 . S
C978 O1029 1.325 . S
C979 N980 1.279 . S
C979 C982 1.358 . S
C979 H1036 0.930 . S
N980 C979 1.279 . S
N980 C983 1.314 . S
C981 C978 1.348 . S
C981 C983 1.353 . S
C981 H1037 0.929 . S
C982 C978 1.356 . S
C982 C979 1.358 . S
C982 H1038 0.930 . S
C983 N980 1.314 . S
C983 C981 1.353 . S
C983 H1039 0.930 . S
C984 N985 1.314 . S
C984 C989 1.353 . S
C984 H990 0.930 1_554 S
N985 Li968 1.990 . S
N985 C984 1.314 . S
N985 C987 1.279 . S
C986 C987 1.358 . S
C986 C988 1.356 . S
C986 H1040 0.930 . S
C987 N985 1.279 . S
C987 C986 1.358 . S
C987 H991 0.930 . S
C988 C986 1.356 . S
C988 C989 1.348 . S
C989 C984 1.353 . S
C989 C988 1.348 . S
C989 H1041 0.929 1_554 S
H990 C984 0.930 1_556 S
H991 C987 0.930 . S
C992 N993 1.314 . S
C992 C994 1.353 . S
C992 H998 0.930 . S
N993 Li969 1.990 . S
N993 C992 1.314 . S
N993 C996 1.279 . S
C994 C992 1.353 . S
C994 C997 1.348 . S
C994 H1042 0.929 . S
C995 C996 1.358 . S
C995 C997 1.356 . S
C995 H1043 0.930 . S
C996 N993 1.279 . S
C996 C995 1.358 . S
C996 H999 0.930 . S
C997 C994 1.348 . S
C997 C995 1.356 . S
H998 C992 0.930 . S
H999 C996 0.930 . S
C1000 C1002 1.348 . S
C1000 C1003 1.356 . S
C1000 O1030 1.325 1_556 S
N1001 C1004 1.314 . S
N1001 C1005 1.279 . S
C1002 C1000 1.348 . S
C1002 C1004 1.353 . S
C1002 H1044 0.929 . S
C1003 C1000 1.356 . S
C1003 C1005 1.358 . S
C1003 H1045 0.930 1_556 S
C1004 N1001 1.314 . S
C1004 C1002 1.353 . S
C1004 H1046 0.930 . S
C1005 N1001 1.279 . S
C1005 C1003 1.358 . S
C1005 H1047 0.930 . S
C1006 C1007 1.348 . S
C1006 C1008 1.356 . S
C1006 O1031 1.325 . S
C1007 C1006 1.348 . S
C1007 C1009 1.353 . S
C1007 H1048 0.929 . S
C1008 C1006 1.356 . S
C1008 C1010 1.358 . S
C1008 H1049 0.930 . S
C1009 C1007 1.353 . S
C1009 N1011 1.314 . S
C1009 H1050 0.930 . S
C1010 C1008 1.358 . S
C1010 N1011 1.279 . S
C1010 H1051 0.930 . S
N1011 C1009 1.314 . S
N1011 C1010 1.279 . S
C1012 C1014 1.353 . S
C1012 N1015 1.314 . S
C1012 H1018 0.930 . S
C1013 N1015 1.279 . S
C1013 C1016 1.358 . S
C1013 H1019 0.930 . S
C1014 C1012 1.353 . S
C1014 C1017 1.348 . S
C1014 H1052 0.929 . S
N1015 Li970 1.990 . S
N1015 C1012 1.314 . S
N1015 C1013 1.279 . S
C1016 C1013 1.358 . S
C1016 C1017 1.356 . S
C1016 H1053 0.930 . S
C1017 C1014 1.348 . S
C1017 C1016 1.356 . S
H1018 C1012 0.930 . S
H1019 C1013 0.930 . S
C1020 N1021 1.314 . S
C1020 C1022 1.353 . S
C1020 H1026 0.930 . S
N1021 Li971 1.990 1_556 S
N1021 C1020 1.314 . S
N1021 C1024 1.279 . S
C1022 C1020 1.353 . S
C1022 C1025 1.348 . S
C1022 H1054 0.929 . S
C1023 C1024 1.358 . S
C1023 C1025 1.356 . S
C1023 H1055 0.930 . S
C1024 N1021 1.279 . S
C1024 C1023 1.358 . S
C1024 H1027 0.930 . S
C1025 C1022 1.348 . S
C1025 C1023 1.356 . S
H1026 C1020 0.930 . S
H1027 C1024 0.930 . S
O1028 Li968 1.956 . S
O1028 Li969 1.970 . S
O1028 Li970 1.961 . S
O1028 C972 1.325 . S
O1029 Li968 1.970 . S
O1029 Li969 1.956 . S
O1029 Li971 1.961 . S
O1029 C978 1.325 . S
O1030 Li968 1.961 . S
O1030 Li970 1.956 . S
O1030 Li971 1.970 . S
O1030 C1000 1.325 1_554 S
O1031 Li969 1.961 . S
O1031 Li970 1.970 . S
O1031 Li971 1.956 . S
O1031 C1006 1.325 . S
H1032 C974 0.929 . S
H1033 C975 0.930 . S
H1034 C976 0.930 . S
H1035 C977 0.930 . S
H1036 C979 0.930 . S
H1037 C981 0.929 . S
H1038 C982 0.930 . S
H1039 C983 0.930 . S
H1040 C986 0.930 . S
H1041 C989 0.929 1_556 S
H1042 C994 0.929 . S
H1043 C995 0.930 . S
H1044 C1002 0.929 . S
H1045 C1003 0.930 1_554 S
H1046 C1004 0.930 . S
H1047 C1005 0.930 . S
H1048 C1007 0.929 . S
H1049 C1008 0.930 . S
H1050 C1009 0.930 . S
H1051 C1010 0.930 . S
H1052 C1014 0.929 . S
H1053 C1016 0.930 . S
H1054 C1022 0.929 . S
H1055 C1023 0.930 . S
Li1056 N1073 1.990 . S
Li1056 O1116 1.956 . S
Li1056 O1117 1.970 . S
Li1056 O1118 1.961 . S
Li1057 N1081 1.990 . S
Li1057 O1116 1.970 . S
Li1057 O1117 1.956 . S
Li1057 O1119 1.961 . S
Li1058 N1103 1.990 . S
Li1058 O1116 1.961 . S
Li1058 O1118 1.956 . S
Li1058 O1119 1.970 . S
Li1059 N1109 1.990 1_554 S
Li1059 O1117 1.961 . S
Li1059 O1118 1.970 . S
Li1059 O1119 1.956 . S
C1060 C1062 1.348 . S
C1060 C1063 1.356 . S
C1060 O1116 1.325 . S
N1061 C1064 1.314 . S
N1061 C1065 1.279 . S
C1062 C1060 1.348 . S
C1062 C1064 1.353 . S
C1062 H1120 0.929 . S
C1063 C1060 1.356 . S
C1063 C1065 1.358 . S
C1063 H1121 0.930 . S
C1064 N1061 1.314 . S
C1064 C1062 1.353 . S
C1064 H1122 0.930 . S
C1065 N1061 1.279 . S
C1065 C1063 1.358 . S
C1065 H1123 0.930 . S
C1066 C1069 1.348 . S
C1066 C1070 1.356 . S
C1066 O1117 1.325 . S
C1067 N1068 1.279 . S
C1067 C1070 1.358 . S
C1067 H1124 0.930 . S
N1068 C1067 1.279 . S
N1068 C1071 1.314 . S
C1069 C1066 1.348 . S
C1069 C1071 1.353 . S
C1069 H1125 0.929 . S
C1070 C1066 1.356 . S
C1070 C1067 1.358 . S
C1070 H1126 0.930 . S
C1071 N1068 1.314 . S
C1071 C1069 1.353 . S
C1071 H1127 0.930 . S
C1072 N1073 1.314 . S
C1072 C1077 1.353 . S
C1072 H1078 0.930 . S
N1073 Li1056 1.990 . S
N1073 C1072 1.314 . S
N1073 C1075 1.279 . S
C1074 C1075 1.358 . S
C1074 C1076 1.356 . S
C1074 H1128 0.930 . S
C1075 N1073 1.279 . S
C1075 C1074 1.358 . S
C1075 H1079 0.930 . S
C1076 C1074 1.356 . S
C1076 C1077 1.348 . S
C1077 C1072 1.353 . S
C1077 C1076 1.348 . S
C1077 H1129 0.929 . S
H1078 C1072 0.930 . S
H1079 C1075 0.930 . S
C1080 N1081 1.314 . S
C1080 C1082 1.353 . S
C1080 H1086 0.930 . S
N1081 Li1057 1.990 . S
N1081 C1080 1.314 . S
N1081 C1084 1.279 . S
C1082 C1080 1.353 . S
C1082 C1085 1.348 . S
C1082 H1130 0.929 . S
C1083 C1084 1.358 . S
C1083 C1085 1.356 . S
C1083 H1131 0.930 . S
C1084 N1081 1.279 . S
C1084 C1083 1.358 . S
C1084 H1087 0.930 . S
C1085 C1082 1.348 . S
C1085 C1083 1.356 . S
H1086 C1080 0.930 . S
H1087 C1084 0.930 . S
C1088 C1090 1.348 1_554 S
C1088 C1091 1.356 . S
C1088 O1118 1.325 . S
N1089 C1092 1.314 . S
N1089 C1093 1.334 . S
C1090 C1088 1.348 1_556 S
C1090 C1092 1.353 . S
C1090 H1132 0.929 . S
C1091 C1088 1.356 . S
C1091 C1093 1.308 1_554 S
C1091 H1133 0.930 . S
C1092 N1089 1.314 . S
C1092 C1090 1.353 . S
C1092 H1134 0.930 . S
C1093 N1089 1.334 . S
C1093 C1091 1.308 1_556 S
C1093 H1135 0.929 1_556 S
C1094 C1095 1.348 . S
C1094 C1096 1.356 . S
C1094 O1119 1.325 . S
C1095 C1094 1.348 . S
C1095 C1097 1.353 . S
C1095 H1136 0.929 . S
C1096 C1094 1.356 . S
C1096 C1098 1.358 . S
C1096 H1137 0.930 . S
C1097 C1095 1.353 . S
C1097 N1099 1.314 . S
C1097 H1138 0.930 . S
C1098 C1096 1.358 . S
C1098 N1099 1.279 . S
C1098 H1139 0.930 . S
N1099 C1097 1.314 . S
N1099 C1098 1.279 . S
C1100 C1102 1.353 . S
C1100 N1103 1.314 . S
C1100 H1106 0.930 . S
C1101 N1103 1.279 . S
C1101 C1104 1.358 . S
C1101 H1107 0.930 . S
C1102 C1100 1.353 . S
C1102 C1105 1.348 . S
C1102 H1140 0.929 . S
N1103 Li1058 1.990 . S
N1103 C1100 1.314 . S
N1103 C1101 1.279 . S
C1104 C1101 1.358 . S
C1104 C1105 1.356 . S
C1104 H1141 0.930 . S
C1105 C1102 1.348 . S
C1105 C1104 1.356 . S
H1106 C1100 0.930 . S
H1107 C1101 0.930 . S
C1108 N1109 1.314 . S
C1108 C1110 1.353 . S
C1108 H1114 0.930 . S
N1109 Li1059 1.990 1_556 S
N1109 C1108 1.314 . S
N1109 C1112 1.279 . S
C1110 C1108 1.353 . S
C1110 C1113 1.348 . S
C1110 H1142 0.929 . S
C1111 C1112 1.358 . S
C1111 C1113 1.356 . S
C1111 H1143 0.930 . S
C1112 N1109 1.279 . S
C1112 C1111 1.358 . S
C1112 H1115 0.930 . S
C1113 C1110 1.348 . S
C1113 C1111 1.356 . S
H1114 C1108 0.930 . S
H1115 C1112 0.930 . S
O1116 Li1056 1.956 . S
O1116 Li1057 1.970 . S
O1116 Li1058 1.961 . S
O1116 C1060 1.325 . S
O1117 Li1056 1.970 . S
O1117 Li1057 1.956 . S
O1117 Li1059 1.961 . S
O1117 C1066 1.325 . S
O1118 Li1056 1.961 . S
O1118 Li1058 1.956 . S
O1118 Li1059 1.970 . S
O1118 C1088 1.325 . S
O1119 Li1057 1.961 . S
O1119 Li1058 1.970 . S
O1119 Li1059 1.956 . S
O1119 C1094 1.325 . S
H1120 C1062 0.929 . S
H1121 C1063 0.930 . S
H1122 C1064 0.930 . S
H1123 C1065 0.930 . S
H1124 C1067 0.930 . S
H1125 C1069 0.929 . S
H1126 C1070 0.930 . S
H1127 C1071 0.930 . S
H1128 C1074 0.930 . S
H1129 C1077 0.929 . S
H1130 C1082 0.929 . S
H1131 C1083 0.930 . S
H1132 C1090 0.929 . S
H1133 C1091 0.930 . S
H1134 C1092 0.930 . S
H1135 C1093 0.929 1_554 S
H1136 C1095 0.929 . S
H1137 C1096 0.930 . S
H1138 C1097 0.930 . S
H1139 C1098 0.930 . S
H1140 C1102 0.929 . S
H1141 C1104 0.930 . S
H1142 C1110 0.929 . S
H1143 C1111 0.930 . S
Li1144 N1161 1.990 . S
Li1144 O1204 1.956 . S
Li1144 O1205 1.970 . S
Li1144 O1206 1.961 . S
Li1145 N1169 1.990 . S
Li1145 O1204 1.970 . S
Li1145 O1205 1.956 . S
Li1145 O1207 1.912 1_554 S
Li1146 N1191 1.990 1_554 S
Li1146 O1204 1.961 . S
Li1146 O1206 1.956 . S
Li1146 O1207 1.971 1_554 S
Li1147 N1197 1.990 . S
Li1147 O1205 1.961 . S
Li1147 O1206 1.970 . S
Li1147 O1207 1.907 1_554 S
C1148 C1150 1.348 . S
C1148 C1151 1.356 . S
C1148 O1204 1.325 . S
N1149 C1152 1.314 . S
N1149 C1153 1.279 . S
C1150 C1148 1.348 . S
C1150 C1152 1.353 . S
C1150 H1208 0.929 . S
C1151 C1148 1.356 . S
C1151 C1153 1.358 . S
C1151 H1209 0.930 . S
C1152 N1149 1.314 . S
C1152 C1150 1.353 . S
C1152 H1210 0.930 . S
C1153 N1149 1.279 . S
C1153 C1151 1.358 . S
C1153 H1211 0.930 . S
C1154 C1157 1.348 . S
C1154 C1158 1.356 . S
C1154 O1205 1.325 . S
C1155 N1156 1.279 . S
C1155 C1158 1.358 . S
C1155 H1212 0.930 . S
N1156 C1155 1.279 . S
N1156 C1159 1.314 . S
C1157 C1154 1.348 . S
C1157 C1159 1.353 . S
C1157 H1213 0.929 . S
C1158 C1154 1.356 . S
C1158 C1155 1.358 . S
C1158 H1214 0.930 . S
C1159 N1156 1.314 . S
C1159 C1157 1.353 . S
C1159 H1215 0.930 . S
C1160 N1161 1.314 . S
C1160 C1165 1.353 . S
C1160 H1166 0.930 . S
N1161 Li1144 1.990 . S
N1161 C1160 1.314 . S
N1161 C1163 1.279 . S
C1162 C1163 1.358 . S
C1162 C1164 1.356 . S
C1162 H1216 0.930 . S
C1163 N1161 1.279 . S
C1163 C1162 1.358 . S
C1163 H1167 0.930 . S
C1164 C1162 1.356 . S
C1164 C1165 1.348 . S
C1165 C1160 1.353 . S
C1165 C1164 1.348 . S
C1165 H1217 0.929 . S
H1166 C1160 0.930 . S
H1167 C1163 0.930 . S
C1168 N1169 1.314 . S
C1168 C1170 1.353 . S
C1168 H1174 0.930 1_554 S
N1169 Li1145 1.990 . S
N1169 C1168 1.314 . S
N1169 C1172 1.279 . S
C1170 C1168 1.353 . S
C1170 C1173 1.348 . S
C1170 H1218 0.929 1_554 S
C1171 C1172 1.358 . S
C1171 C1173 1.356 . S
C1171 H1219 0.930 . S
C1172 N1169 1.279 . S
C1172 C1171 1.358 . S
C1172 H1175 0.930 . S
C1173 C1170 1.348 . S
C1173 C1171 1.356 . S
H1174 C1168 0.930 1_556 S
H1175 C1172 0.930 . S
C1176 C1178 1.348 . S
C1176 C1179 1.356 . S
C1176 O1206 1.325 . S
N1177 C1180 1.314 . S
N1177 C1181 1.279 . S
C1178 C1176 1.348 . S
C1178 C1180 1.353 . S
C1178 H1220 0.929 . S
C1179 C1176 1.356 . S
C1179 C1181 1.358 . S
C1179 H1221 0.930 . S
C1180 N1177 1.314 . S
C1180 C1178 1.353 . S
C1180 H1222 0.930 . S
C1181 N1177 1.279 . S
C1181 C1179 1.358 . S
C1181 H1223 0.930 . S
C1182 C1183 1.348 . S
C1182 C1184 1.356 . S
C1182 O1207 1.376 . S
C1183 C1182 1.348 . S
C1183 C1185 1.353 . S
C1183 H1224 0.929 . S
C1184 C1182 1.356 . S
C1184 C1186 1.358 . S
C1184 H1225 0.930 . S
C1185 C1183 1.353 . S
C1185 N1187 1.314 . S
C1185 H1226 0.930 . S
C1186 C1184 1.358 . S
C1186 N1187 1.279 . S
C1186 H1227 0.930 . S
N1187 C1185 1.314 . S
N1187 C1186 1.279 . S
C1188 C1190 1.353 . S
C1188 N1191 1.314 . S
C1188 H1194 0.930 . S
C1189 N1191 1.279 . S
C1189 C1192 1.358 . S
C1189 H1195 0.930 . S
C1190 C1188 1.353 . S
C1190 C1193 1.348 . S
C1190 H1228 0.929 . S
N1191 Li1146 1.990 1_556 S
N1191 C1188 1.314 . S
N1191 C1189 1.279 . S
C1192 C1189 1.358 . S
C1192 C1193 1.356 . S
C1192 H1229 0.930 . S
C1193 C1190 1.348 . S
C1193 C1192 1.356 . S
H1194 C1188 0.930 . S
H1195 C1189 0.930 . S
C1196 N1197 1.314 . S
C1196 C1198 1.353 . S
C1196 H1202 0.930 . S
N1197 Li1147 1.990 . S
N1197 C1196 1.314 . S
N1197 C1200 1.260 1_554 S
C1198 C1196 1.353 . S
C1198 C1201 1.348 . S
C1198 H1230 0.929 . S
C1199 C1200 1.358 . S
C1199 C1201 1.356 1_556 S
C1199 H1231 0.930 . S
C1200 N1197 1.260 1_556 S
C1200 C1199 1.358 . S
C1200 H1203 0.953 . S
C1201 C1198 1.348 . S
C1201 C1199 1.356 1_554 S
H1202 C1196 0.930 . S
H1203 C1200 0.953 . S
O1204 Li1144 1.956 . S
O1204 Li1145 1.970 . S
O1204 Li1146 1.961 . S
O1204 C1148 1.325 . S
O1205 Li1144 1.970 . S
O1205 Li1145 1.956 . S
O1205 Li1147 1.961 . S
O1205 C1154 1.325 . S
O1206 Li1144 1.961 . S
O1206 Li1146 1.956 . S
O1206 Li1147 1.970 . S
O1206 C1176 1.325 . S
O1207 Li1145 1.912 1_556 S
O1207 Li1146 1.971 1_556 S
O1207 Li1147 1.907 1_556 S
O1207 C1182 1.376 . S
H1208 C1150 0.929 . S
H1209 C1151 0.930 . S
H1210 C1152 0.930 . S
H1211 C1153 0.930 . S
H1212 C1155 0.930 . S
H1213 C1157 0.929 . S
H1214 C1158 0.930 . S
H1215 C1159 0.930 . S
H1216 C1162 0.930 . S
H1217 C1165 0.929 . S
H1218 C1170 0.929 1_556 S
H1219 C1171 0.930 . S
H1220 C1178 0.929 . S
H1221 C1179 0.930 . S
H1222 C1180 0.930 . S
H1223 C1181 0.930 . S
H1224 C1183 0.929 . S
H1225 C1184 0.930 . S
H1226 C1185 0.930 . S
H1227 C1186 0.930 . S
H1228 C1190 0.929 . S
H1229 C1192 0.930 . S
H1230 C1198 0.929 . S
H1231 C1199 0.930 . S
Li1232 N1249 1.990 . S
Li1232 O1292 1.956 . S
Li1232 O1293 1.970 . S
Li1232 O1294 1.961 . S
Li1233 N1257 1.990 . S
Li1233 O1292 1.970 . S
Li1233 O1293 1.956 . S
Li1233 O1295 1.961 . S
Li1234 N1279 1.990 . S
Li1234 O1292 1.961 . S
Li1234 O1294 1.956 . S
Li1234 O1295 1.970 . S
Li1235 N1285 1.990 . S
Li1235 O1293 1.961 . S
Li1235 O1294 1.970 . S
Li1235 O1295 1.956 . S
C1236 C1238 1.348 . S
C1236 C1239 1.356 . S
C1236 O1292 1.325 . S
N1237 C1240 1.314 . S
N1237 C1241 1.279 . S
C1238 C1236 1.348 . S
C1238 C1240 1.353 . S
C1238 H1296 0.929 . S
C1239 C1236 1.356 . S
C1239 C1241 1.358 . S
C1239 H1297 0.930 . S
C1240 N1237 1.314 . S
C1240 C1238 1.353 . S
C1240 H1298 0.930 . S
C1241 N1237 1.279 . S
C1241 C1239 1.358 . S
C1241 H1299 0.930 . S
C1242 C1245 1.348 . S
C1242 C1246 1.356 . S
C1242 O1293 1.325 . S
C1243 N1244 1.279 . S
C1243 C1246 1.358 . S
C1243 H1300 0.930 . S
N1244 C1243 1.279 . S
N1244 C1247 1.314 . S
C1245 C1242 1.348 . S
C1245 C1247 1.353 . S
C1245 H1301 0.929 . S
C1246 C1242 1.356 . S
C1246 C1243 1.358 . S
C1246 H1302 0.930 . S
C1247 N1244 1.314 . S
C1247 C1245 1.353 . S
C1247 H1303 0.930 . S
C1248 N1249 1.314 . S
C1248 C1253 1.353 . S
C1248 H1254 0.930 . S
N1249 Li1232 1.990 . S
N1249 C1248 1.314 . S
N1249 C1251 1.279 . S
C1250 C1251 1.358 . S
C1250 C1252 1.356 . S
C1250 H1304 0.930 . S
C1251 N1249 1.279 . S
C1251 C1250 1.358 . S
C1251 H1255 0.930 . S
C1252 C1250 1.356 . S
C1252 C1253 1.348 . S
C1253 C1248 1.353 . S
C1253 C1252 1.348 . S
C1253 H1305 0.929 . S
H1254 C1248 0.930 . S
H1255 C1251 0.930 . S
C1256 N1257 1.314 . S
C1256 C1258 1.353 . S
C1256 H1262 0.930 . S
N1257 Li1233 1.990 . S
N1257 C1256 1.314 . S
N1257 C1260 1.279 . S
C1258 C1256 1.353 . S
C1258 C1261 1.348 . S
C1258 H1306 0.929 . S
C1259 C1260 1.358 . S
C1259 C1261 1.356 . S
C1259 H1307 0.930 . S
C1260 N1257 1.279 . S
C1260 C1259 1.358 . S
C1260 H1263 0.930 . S
C1261 C1258 1.348 . S
C1261 C1259 1.356 . S
H1262 C1256 0.930 . S
H1263 C1260 0.930 . S
C1264 C1266 1.348 . S
C1264 C1267 1.356 . S
C1264 O1294 1.325 . S
N1265 C1268 1.314 . S
N1265 C1269 1.279 . S
C1266 C1264 1.348 . S
C1266 C1268 1.353 . S
C1266 H1308 0.929 . S
C1267 C1264 1.356 . S
C1267 C1269 1.358 . S
C1267 H1309 0.930 . S
C1268 N1265 1.314 . S
C1268 C1266 1.353 . S
C1268 H1310 0.930 . S
C1269 N1265 1.279 . S
C1269 C1267 1.358 . S
C1269 H1311 0.930 . S
C1270 C1271 1.348 . S
C1270 C1272 1.356 . S
C1270 O1295 1.325 . S
C1271 C1270 1.348 . S
C1271 C1273 1.353 . S
C1271 H1312 0.929 . S
C1272 C1270 1.356 . S
C1272 C1274 1.358 . S
C1272 H1313 0.930 . S
C1273 C1271 1.353 . S
C1273 N1275 1.314 . S
C1273 H1314 0.930 . S
C1274 C1272 1.358 . S
C1274 N1275 1.279 . S
C1274 H1315 0.930 . S
N1275 C1273 1.314 . S
N1275 C1274 1.279 . S
C1276 C1278 1.353 . S
C1276 N1279 1.314 . S
C1276 H1282 0.930 . S
C1277 N1279 1.279 . S
C1277 C1280 1.358 . S
C1277 H1283 0.930 . S
C1278 C1276 1.353 . S
C1278 C1281 1.348 . S
C1278 H1316 0.929 . S
N1279 Li1234 1.990 . S
N1279 C1276 1.314 . S
N1279 C1277 1.279 . S
C1280 C1277 1.358 . S
C1280 C1281 1.356 . S
C1280 H1317 0.930 . S
C1281 C1278 1.348 . S
C1281 C1280 1.356 . S
H1282 C1276 0.930 . S
H1283 C1277 0.930 . S
C1284 N1285 1.314 . S
C1284 C1286 1.353 . S
C1284 H1290 0.930 . S
N1285 Li1235 1.990 . S
N1285 C1284 1.314 . S
N1285 C1288 1.279 . S
C1286 C1284 1.353 . S
C1286 C1289 1.348 . S
C1286 H1318 0.929 . S
C1287 C1288 1.358 . S
C1287 C1289 1.356 . S
C1287 H1319 0.930 . S
C1288 N1285 1.279 . S
C1288 C1287 1.358 . S
C1288 H1291 0.930 . S
C1289 C1286 1.348 . S
C1289 C1287 1.356 . S
H1290 C1284 0.930 . S
H1291 C1288 0.930 . S
O1292 Li1232 1.956 . S
O1292 Li1233 1.970 . S
O1292 Li1234 1.961 . S
O1292 C1236 1.325 . S
O1293 Li1232 1.970 . S
O1293 Li1233 1.956 . S
O1293 Li1235 1.961 . S
O1293 C1242 1.325 . S
O1294 Li1232 1.961 . S
O1294 Li1234 1.956 . S
O1294 Li1235 1.970 . S
O1294 C1264 1.325 . S
O1295 Li1233 1.961 . S
O1295 Li1234 1.970 . S
O1295 Li1235 1.956 . S
O1295 C1270 1.325 . S
H1296 C1238 0.929 . S
H1297 C1239 0.930 . S
H1298 C1240 0.930 . S
H1299 C1241 0.930 . S
H1300 C1243 0.930 . S
H1301 C1245 0.929 . S
H1302 C1246 0.930 . S
H1303 C1247 0.930 . S
H1304 C1250 0.930 . S
H1305 C1253 0.929 . S
H1306 C1258 0.929 . S
H1307 C1259 0.930 . S
H1308 C1266 0.929 . S
H1309 C1267 0.930 . S
H1310 C1268 0.930 . S
H1311 C1269 0.930 . S
H1312 C1271 0.929 . S
H1313 C1272 0.930 . S
H1314 C1273 0.930 . S
H1315 C1274 0.930 . S
H1316 C1278 0.929 . S
H1317 C1280 0.930 . S
H1318 C1286 0.929 . S
H1319 C1287 0.930 . S
Li1320 N1337 1.990 . S
Li1320 O1380 1.956 . S
Li1320 O1381 1.970 . S
Li1320 O1382 1.961 . S
Li1321 N1345 1.990 . S
Li1321 O1380 1.970 . S
Li1321 O1381 1.956 . S
Li1321 O1383 1.961 . S
Li1322 N1367 1.990 . S
Li1322 O1380 1.961 . S
Li1322 O1382 1.956 . S
Li1322 O1383 1.970 . S
Li1323 N1373 1.990 . S
Li1323 O1381 1.961 . S
Li1323 O1382 1.970 . S
Li1323 O1383 1.956 . S
C1324 C1326 1.348 . S
C1324 C1327 1.356 . S
C1324 O1380 1.325 . S
N1325 C1328 1.314 . S
N1325 C1329 1.279 . S
C1326 C1324 1.348 . S
C1326 C1328 1.353 . S
C1326 H1384 0.929 . S
C1327 C1324 1.356 . S
C1327 C1329 1.358 . S
C1327 H1385 0.930 . S
C1328 N1325 1.314 . S
C1328 C1326 1.353 . S
C1328 H1386 0.930 . S
C1329 N1325 1.279 . S
C1329 C1327 1.358 . S
C1329 H1387 0.930 . S
C1330 C1333 1.348 . S
C1330 C1334 1.356 . S
C1330 O1381 1.325 . S
C1331 N1332 1.279 . S
C1331 C1334 1.358 . S
C1331 H1388 0.930 . S
N1332 C1331 1.279 . S
N1332 C1335 1.314 . S
C1333 C1330 1.348 . S
C1333 C1335 1.353 . S
C1333 H1389 0.929 . S
C1334 C1330 1.356 . S
C1334 C1331 1.358 . S
C1334 H1390 0.930 . S
C1335 N1332 1.314 . S
C1335 C1333 1.353 . S
C1335 H1391 0.930 . S
C1336 N1337 1.314 . S
C1336 C1341 1.353 . S
C1336 H1342 0.930 . S
N1337 Li1320 1.990 . S
N1337 C1336 1.314 . S
N1337 C1339 1.279 . S
C1338 C1339 1.358 . S
C1338 C1340 1.356 . S
C1338 H1392 0.930 . S
C1339 N1337 1.279 . S
C1339 C1338 1.358 . S
C1339 H1343 0.930 . S
C1340 C1338 1.356 . S
C1340 C1341 1.348 . S
C1341 C1336 1.353 . S
C1341 C1340 1.348 . S
C1341 H1393 0.929 . S
H1342 C1336 0.930 . S
H1343 C1339 0.930 . S
C1344 N1345 1.314 . S
C1344 C1346 1.353 . S
C1344 H1350 0.930 . S
N1345 Li1321 1.990 . S
N1345 C1344 1.314 . S
N1345 C1348 1.279 . S
C1346 C1344 1.353 . S
C1346 C1349 1.348 . S
C1346 H1394 0.929 . S
C1347 C1348 1.358 . S
C1347 C1349 1.356 . S
C1347 H1395 0.930 . S
C1348 N1345 1.279 . S
C1348 C1347 1.358 . S
C1348 H1351 0.930 . S
C1349 C1346 1.348 . S
C1349 C1347 1.356 . S
H1350 C1344 0.930 . S
H1351 C1348 0.930 . S
C1352 C1354 1.348 . S
C1352 C1355 1.356 . S
C1352 O1382 1.325 . S
N1353 C1356 1.314 . S
N1353 C1357 1.279 . S
C1354 C1352 1.348 . S
C1354 C1356 1.353 . S
C1354 H1396 0.929 . S
C1355 C1352 1.356 . S
C1355 C1357 1.358 . S
C1355 H1397 0.930 . S
C1356 N1353 1.314 . S
C1356 C1354 1.353 . S
C1356 H1398 0.930 . S
C1357 N1353 1.279 . S
C1357 C1355 1.358 . S
C1357 H1399 0.930 . S
C1358 C1359 1.348 . S
C1358 C1360 1.356 . S
C1358 O1383 1.325 . S
C1359 C1358 1.348 . S
C1359 C1361 1.353 . S
C1359 H1400 0.929 . S
C1360 C1358 1.356 . S
C1360 C1362 1.358 . S
C1360 H1401 0.930 . S
C1361 C1359 1.353 . S
C1361 N1363 1.314 . S
C1361 H1402 0.930 . S
C1362 C1360 1.358 . S
C1362 N1363 1.279 . S
C1362 H1403 0.930 . S
N1363 C1361 1.314 . S
N1363 C1362 1.279 . S
C1364 C1366 1.353 . S
C1364 N1367 1.314 . S
C1364 H1370 0.930 . S
C1365 N1367 1.279 . S
C1365 C1368 1.358 . S
C1365 H1371 0.930 . S
C1366 C1364 1.353 . S
C1366 C1369 1.348 . S
C1366 H1404 0.929 . S
N1367 Li1322 1.990 . S
N1367 C1364 1.314 . S
N1367 C1365 1.279 . S
C1368 C1365 1.358 . S
C1368 C1369 1.356 . S
C1368 H1405 0.930 . S
C1369 C1366 1.348 . S
C1369 C1368 1.356 . S
H1370 C1364 0.930 . S
H1371 C1365 0.930 . S
C1372 N1373 1.314 . S
C1372 C1374 1.353 . S
C1372 H1378 0.930 . S
N1373 Li1323 1.990 . S
N1373 C1372 1.314 . S
N1373 C1376 1.279 . S
C1374 C1372 1.353 . S
C1374 C1377 1.348 . S
C1374 H1406 0.929 . S
C1375 C1376 1.358 . S
C1375 C1377 1.356 . S
C1375 H1407 0.930 . S
C1376 N1373 1.279 . S
C1376 C1375 1.358 . S
C1376 H1379 0.930 . S
C1377 C1374 1.348 . S
C1377 C1375 1.356 . S
H1378 C1372 0.930 . S
H1379 C1376 0.930 . S
O1380 Li1320 1.956 . S
O1380 Li1321 1.970 . S
O1380 Li1322 1.961 . S
O1380 C1324 1.325 . S
O1381 Li1320 1.970 . S
O1381 Li1321 1.956 . S
O1381 Li1323 1.961 . S
O1381 C1330 1.325 . S
O1382 Li1320 1.961 . S
O1382 Li1322 1.956 . S
O1382 Li1323 1.970 . S
O1382 C1352 1.325 . S
O1383 Li1321 1.961 . S
O1383 Li1322 1.970 . S
O1383 Li1323 1.956 . S
O1383 C1358 1.325 . S
H1384 C1326 0.929 . S
H1385 C1327 0.930 . S
H1386 C1328 0.930 . S
H1387 C1329 0.930 . S
H1388 C1331 0.930 . S
H1389 C1333 0.929 . S
H1390 C1334 0.930 . S
H1391 C1335 0.930 . S
H1392 C1338 0.930 . S
H1393 C1341 0.929 . S
H1394 C1346 0.929 . S
H1395 C1347 0.930 . S
H1396 C1354 0.929 . S
H1397 C1355 0.930 . S
H1398 C1356 0.930 . S
H1399 C1357 0.930 . S
H1400 C1359 0.929 . S
H1401 C1360 0.930 . S
H1402 C1361 0.930 . S
H1403 C1362 0.930 . S
H1404 C1366 0.929 . S
H1405 C1368 0.930 . S
H1406 C1374 0.929 . S
H1407 C1375 0.930 . S
Li1408 N1425 1.990 . S
Li1408 O1468 1.956 . S
Li1408 O1469 1.970 . S
Li1408 O1470 1.961 . S
Li1409 N1433 1.990 . S
Li1409 O1468 1.970 . S
Li1409 O1469 1.956 . S
Li1409 O1471 1.961 . S
Li1410 N1455 1.990 . S
Li1410 O1468 1.961 . S
Li1410 O1470 1.956 . S
Li1410 O1471 1.970 . S
Li1411 N1461 1.990 . S
Li1411 O1469 1.961 . S
Li1411 O1470 1.970 . S
Li1411 O1471 1.956 . S
C1412 C1414 1.348 . S
C1412 C1415 1.356 . S
C1412 O1468 1.325 . S
N1413 C1416 1.314 . S
N1413 C1417 1.279 . S
C1414 C1412 1.348 . S
C1414 C1416 1.353 . S
C1414 H1472 0.929 . S
C1415 C1412 1.356 . S
C1415 C1417 1.358 . S
C1415 H1473 0.930 . S
C1416 N1413 1.314 . S
C1416 C1414 1.353 . S
C1416 H1474 0.930 . S
C1417 N1413 1.279 . S
C1417 C1415 1.358 . S
C1417 H1475 0.930 . S
C1418 C1421 1.348 . S
C1418 C1422 1.356 . S
C1418 O1469 1.325 . S
C1419 N1420 1.279 . S
C1419 C1422 1.358 . S
C1419 H1476 0.930 . S
N1420 C1419 1.279 . S
N1420 C1423 1.314 . S
C1421 C1418 1.348 . S
C1421 C1423 1.353 . S
C1421 H1477 0.929 . S
C1422 C1418 1.356 . S
C1422 C1419 1.358 . S
C1422 H1478 0.930 . S
C1423 N1420 1.314 . S
C1423 C1421 1.353 . S
C1423 H1479 0.930 . S
C1424 N1425 1.314 . S
C1424 C1429 1.353 . S
C1424 H1430 0.930 . S
N1425 Li1408 1.990 . S
N1425 C1424 1.314 . S
N1425 C1427 1.279 . S
C1426 C1427 1.358 . S
C1426 C1428 1.356 . S
C1426 H1480 0.930 . S
C1427 N1425 1.279 . S
C1427 C1426 1.358 . S
C1427 H1431 0.930 . S
C1428 C1426 1.356 . S
C1428 C1429 1.348 . S
C1429 C1424 1.353 . S
C1429 C1428 1.348 . S
C1429 H1481 0.929 . S
H1430 C1424 0.930 . S
H1431 C1427 0.930 . S
C1432 N1433 1.314 . S
C1432 C1434 1.353 . S
C1432 H1438 0.930 . S
N1433 Li1409 1.990 . S
N1433 C1432 1.314 . S
N1433 C1436 1.279 . S
C1434 C1432 1.353 . S
C1434 C1437 1.348 . S
C1434 H1482 0.929 . S
C1435 C1436 1.358 . S
C1435 C1437 1.356 . S
C1435 H1483 0.930 . S
C1436 N1433 1.279 . S
C1436 C1435 1.358 . S
C1436 H1439 0.930 . S
C1437 C1434 1.348 . S
C1437 C1435 1.356 . S
H1438 C1432 0.930 . S
H1439 C1436 0.930 . S
C1440 C1442 1.348 . S
C1440 C1443 1.356 . S
C1440 O1470 1.325 . S
N1441 C1444 1.314 . S
N1441 C1445 1.279 . S
C1442 C1440 1.348 . S
C1442 C1444 1.353 . S
C1442 H1484 0.929 . S
C1443 C1440 1.356 . S
C1443 C1445 1.358 . S
C1443 H1485 0.930 . S
C1444 N1441 1.314 . S
C1444 C1442 1.353 . S
C1444 H1486 0.930 . S
C1445 N1441 1.279 . S
C1445 C1443 1.358 . S
C1445 H1487 0.930 . S
C1446 C1447 1.348 . S
C1446 C1448 1.356 . S
C1446 O1471 1.325 . S
C1447 C1446 1.348 . S
C1447 C1449 1.353 . S
C1447 H1488 0.929 . S
C1448 C1446 1.356 . S
C1448 C1450 1.358 . S
C1448 H1489 0.930 . S
C1449 C1447 1.353 . S
C1449 N1451 1.314 . S
C1449 H1490 0.930 . S
C1450 C1448 1.358 . S
C1450 N1451 1.279 . S
C1450 H1491 0.930 . S
N1451 C1449 1.314 . S
N1451 C1450 1.279 . S
C1452 C1454 1.353 . S
C1452 N1455 1.314 . S
C1452 H1458 0.930 . S
C1453 N1455 1.279 . S
C1453 C1456 1.358 . S
C1453 H1459 0.930 . S
C1454 C1452 1.353 . S
C1454 C1457 1.348 . S
C1454 H1492 0.929 . S
N1455 Li1410 1.990 . S
N1455 C1452 1.314 . S
N1455 C1453 1.279 . S
C1456 C1453 1.358 . S
C1456 C1457 1.356 . S
C1456 H1493 0.930 . S
C1457 C1454 1.348 . S
C1457 C1456 1.356 . S
H1458 C1452 0.930 . S
H1459 C1453 0.930 . S
C1460 N1461 1.314 . S
C1460 C1462 1.353 . S
C1460 H1466 0.930 . S
N1461 Li1411 1.990 . S
N1461 C1460 1.314 . S
N1461 C1464 1.279 . S
C1462 C1460 1.353 . S
C1462 C1465 1.348 . S
C1462 H1494 0.929 . S
C1463 C1464 1.358 . S
C1463 C1465 1.356 . S
C1463 H1495 0.930 . S
C1464 N1461 1.279 . S
C1464 C1463 1.358 . S
C1464 H1467 0.930 . S
C1465 C1462 1.348 . S
C1465 C1463 1.356 . S
H1466 C1460 0.930 . S
H1467 C1464 0.930 . S
O1468 Li1408 1.956 . S
O1468 Li1409 1.970 . S
O1468 Li1410 1.961 . S
O1468 C1412 1.325 . S
O1469 Li1408 1.970 . S
O1469 Li1409 1.956 . S
O1469 Li1411 1.961 . S
O1469 C1418 1.325 . S
O1470 Li1408 1.961 . S
O1470 Li1410 1.956 . S
O1470 Li1411 1.970 . S
O1470 C1440 1.325 . S
O1471 Li1409 1.961 . S
O1471 Li1410 1.970 . S
O1471 Li1411 1.956 . S
O1471 C1446 1.325 . S
H1472 C1414 0.929 . S
H1473 C1415 0.930 . S
H1474 C1416 0.930 . S
H1475 C1417 0.930 . S
H1476 C1419 0.930 . S
H1477 C1421 0.929 . S
H1478 C1422 0.930 . S
H1479 C1423 0.930 . S
H1480 C1426 0.930 . S
H1481 C1429 0.929 . S
H1482 C1434 0.929 . S
H1483 C1435 0.930 . S
H1484 C1442 0.929 . S
H1485 C1443 0.930 . S
H1486 C1444 0.930 . S
H1487 C1445 0.930 . S
H1488 C1447 0.929 . S
H1489 C1448 0.930 . S
H1490 C1449 0.930 . S
H1491 C1450 0.930 . S
H1492 C1454 0.929 . S
H1493 C1456 0.930 . S
H1494 C1462 0.929 . S
H1495 C1463 0.930 . S
Li1496 N1513 1.990 . S
Li1496 O1556 1.956 . S
Li1496 O1557 1.970 . S
Li1496 O1558 1.961 . S
Li1497 N1521 1.990 . S
Li1497 O1556 1.970 . S
Li1497 O1557 1.956 . S
Li1497 O1559 1.961 . S
Li1498 N1543 1.990 . S
Li1498 O1556 1.961 . S
Li1498 O1558 1.956 . S
Li1498 O1559 1.970 . S
Li1499 N1549 1.990 . S
Li1499 O1557 1.961 . S
Li1499 O1558 1.970 . S
Li1499 O1559 1.956 . S
C1500 C1502 1.348 . S
C1500 C1503 1.356 . S
C1500 O1556 1.325 . S
N1501 C1504 1.314 . S
N1501 C1505 1.279 . S
C1502 C1500 1.348 . S
C1502 C1504 1.353 . S
C1502 H1560 0.929 . S
C1503 C1500 1.356 . S
C1503 C1505 1.358 . S
C1503 H1561 0.930 . S
C1504 N1501 1.314 . S
C1504 C1502 1.353 . S
C1504 H1562 0.930 . S
C1505 N1501 1.279 . S
C1505 C1503 1.358 . S
C1505 H1563 0.930 . S
C1506 C1509 1.348 . S
C1506 C1510 1.356 . S
C1506 O1557 1.325 . S
C1507 N1508 1.279 . S
C1507 C1510 1.358 . S
C1507 H1564 0.930 . S
N1508 C1507 1.279 . S
N1508 C1511 1.314 . S
C1509 C1506 1.348 . S
C1509 C1511 1.353 . S
C1509 H1565 0.929 . S
C1510 C1506 1.356 . S
C1510 C1507 1.358 . S
C1510 H1566 0.930 . S
C1511 N1508 1.314 . S
C1511 C1509 1.353 . S
C1511 H1567 0.930 . S
C1512 N1513 1.314 . S
C1512 C1517 1.353 . S
C1512 H1518 0.930 . S
N1513 Li1496 1.990 . S
N1513 C1512 1.314 . S
N1513 C1515 1.279 . S
C1514 C1515 1.358 . S
C1514 C1516 1.356 . S
C1514 H1568 0.930 . S
C1515 N1513 1.279 . S
C1515 C1514 1.358 . S
C1515 H1519 0.930 . S
C1516 C1514 1.356 . S
C1516 C1517 1.348 . S
C1517 C1512 1.353 . S
C1517 C1516 1.348 . S
C1517 H1569 0.929 . S
H1518 C1512 0.930 . S
H1519 C1515 0.930 . S
C1520 N1521 1.314 . S
C1520 C1522 1.353 . S
C1520 H1526 0.930 . S
N1521 Li1497 1.990 . S
N1521 C1520 1.314 . S
N1521 C1524 1.279 . S
C1522 C1520 1.353 . S
C1522 C1525 1.348 . S
C1522 H1570 0.929 . S
C1523 C1524 1.358 . S
C1523 C1525 1.356 . S
C1523 H1571 0.930 . S
C1524 N1521 1.279 . S
C1524 C1523 1.358 . S
C1524 H1527 0.930 . S
C1525 C1522 1.348 . S
C1525 C1523 1.356 . S
H1526 C1520 0.930 . S
H1527 C1524 0.930 . S
C1528 C1530 1.348 . S
C1528 C1531 1.356 . S
C1528 O1558 1.325 . S
N1529 C1532 1.314 . S
N1529 C1533 1.279 . S
C1530 C1528 1.348 . S
C1530 C1532 1.353 . S
C1530 H1572 0.929 . S
C1531 C1528 1.356 . S
C1531 C1533 1.358 . S
C1531 H1573 0.930 . S
C1532 N1529 1.314 . S
C1532 C1530 1.353 . S
C1532 H1574 0.930 . S
C1533 N1529 1.279 . S
C1533 C1531 1.358 . S
C1533 H1575 0.930 . S
C1534 C1535 1.348 . S
C1534 C1536 1.356 . S
C1534 O1559 1.325 . S
C1535 C1534 1.348 . S
C1535 C1537 1.353 . S
C1535 H1576 0.929 . S
C1536 C1534 1.356 . S
C1536 C1538 1.358 . S
C1536 H1577 0.930 . S
C1537 C1535 1.353 . S
C1537 N1539 1.314 . S
C1537 H1578 0.930 . S
C1538 C1536 1.358 . S
C1538 N1539 1.279 . S
C1538 H1579 0.930 . S
N1539 C1537 1.314 . S
N1539 C1538 1.279 . S
C1540 C1542 1.353 . S
C1540 N1543 1.314 . S
C1540 H1546 0.930 . S
C1541 N1543 1.279 . S
C1541 C1544 1.358 . S
C1541 H1547 0.930 . S
C1542 C1540 1.353 . S
C1542 C1545 1.348 . S
C1542 H1580 0.929 . S
N1543 Li1498 1.990 . S
N1543 C1540 1.314 . S
N1543 C1541 1.279 . S
C1544 C1541 1.358 . S
C1544 C1545 1.356 . S
C1544 H1581 0.930 . S
C1545 C1542 1.348 . S
C1545 C1544 1.356 . S
H1546 C1540 0.930 . S
H1547 C1541 0.930 . S
C1548 N1549 1.314 . S
C1548 C1550 1.353 . S
C1548 H1554 0.930 . S
N1549 Li1499 1.990 . S
N1549 C1548 1.314 . S
N1549 C1552 1.279 . S
C1550 C1548 1.353 . S
C1550 C1553 1.348 . S
C1550 H1582 0.929 . S
C1551 C1552 1.358 . S
C1551 C1553 1.356 . S
C1551 H1583 0.930 . S
C1552 N1549 1.279 . S
C1552 C1551 1.358 . S
C1552 H1555 0.930 . S
C1553 C1550 1.348 . S
C1553 C1551 1.356 . S
H1554 C1548 0.930 . S
H1555 C1552 0.930 . S
O1556 Li1496 1.956 . S
O1556 Li1497 1.970 . S
O1556 Li1498 1.961 . S
O1556 C1500 1.325 . S
O1557 Li1496 1.970 . S
O1557 Li1497 1.956 . S
O1557 Li1499 1.961 . S
O1557 C1506 1.325 . S
O1558 Li1496 1.961 . S
O1558 Li1498 1.956 . S
O1558 Li1499 1.970 . S
O1558 C1528 1.325 . S
O1559 Li1497 1.961 . S
O1559 Li1498 1.970 . S
O1559 Li1499 1.956 . S
O1559 C1534 1.325 . S
H1560 C1502 0.929 . S
H1561 C1503 0.930 . S
H1562 C1504 0.930 . S
H1563 C1505 0.930 . S
H1564 C1507 0.930 . S
H1565 C1509 0.929 . S
H1566 C1510 0.930 . S
H1567 C1511 0.930 . S
H1568 C1514 0.930 . S
H1569 C1517 0.929 . S
H1570 C1522 0.929 . S
H1571 C1523 0.930 . S
H1572 C1530 0.929 . S
H1573 C1531 0.930 . S
H1574 C1532 0.930 . S
H1575 C1533 0.930 . S
H1576 C1535 0.929 . S
H1577 C1536 0.930 . S
H1578 C1537 0.930 . S
H1579 C1538 0.930 . S
H1580 C1542 0.929 . S
H1581 C1544 0.930 . S
H1582 C1550 0.929 . S
H1583 C1551 0.930 . S
Li1584 N1601 1.990 . S
Li1584 O1644 1.956 . S
Li1584 O1645 1.970 . S
Li1584 O1646 1.961 . S
Li1585 N1609 1.990 . S
Li1585 O1644 1.970 . S
Li1585 O1645 1.956 . S
Li1585 O1647 1.961 . S
Li1586 N1631 1.990 . S
Li1586 O1644 1.961 . S
Li1586 O1646 1.956 . S
Li1586 O1647 1.970 . S
Li1587 N1637 1.990 . S
Li1587 O1645 1.961 . S
Li1587 O1646 1.970 . S
Li1587 O1647 1.956 . S
C1588 C1590 1.348 . S
C1588 C1591 1.356 . S
C1588 O1644 1.325 . S
N1589 C1592 1.314 . S
N1589 C1593 1.279 . S
C1590 C1588 1.348 . S
C1590 C1592 1.353 . S
C1590 H1648 0.929 . S
C1591 C1588 1.356 . S
C1591 C1593 1.358 . S
C1591 H1649 0.930 . S
C1592 N1589 1.314 . S
C1592 C1590 1.353 . S
C1592 H1650 0.930 . S
C1593 N1589 1.279 . S
C1593 C1591 1.358 . S
C1593 H1651 0.930 . S
C1594 C1597 1.348 . S
C1594 C1598 1.356 . S
C1594 O1645 1.325 . S
C1595 N1596 1.279 . S
C1595 C1598 1.358 . S
C1595 H1652 0.930 . S
N1596 C1595 1.279 . S
N1596 C1599 1.314 . S
C1597 C1594 1.348 . S
C1597 C1599 1.353 . S
C1597 H1653 0.929 . S
C1598 C1594 1.356 . S
C1598 C1595 1.358 . S
C1598 H1654 0.930 . S
C1599 N1596 1.314 . S
C1599 C1597 1.353 . S
C1599 H1655 0.930 . S
C1600 N1601 1.314 . S
C1600 C1605 1.353 . S
C1600 H1606 0.930 . S
N1601 Li1584 1.990 . S
N1601 C1600 1.314 . S
N1601 C1603 1.279 . S
C1602 C1603 1.358 . S
C1602 C1604 1.356 . S
C1602 H1656 0.930 . S
C1603 N1601 1.279 . S
C1603 C1602 1.358 . S
C1603 H1607 0.930 . S
C1604 C1602 1.356 . S
C1604 C1605 1.348 . S
C1605 C1600 1.353 . S
C1605 C1604 1.348 . S
C1605 H1657 0.929 . S
H1606 C1600 0.930 . S
H1607 C1603 0.930 . S
C1608 N1609 1.314 . S
C1608 C1610 1.353 . S
C1608 H1614 0.930 . S
N1609 Li1585 1.990 . S
N1609 C1608 1.314 . S
N1609 C1612 1.279 . S
C1610 C1608 1.353 . S
C1610 C1613 1.348 . S
C1610 H1658 0.929 . S
C1611 C1612 1.358 . S
C1611 C1613 1.356 . S
C1611 H1659 0.930 . S
C1612 N1609 1.279 . S
C1612 C1611 1.358 . S
C1612 H1615 0.930 . S
C1613 C1610 1.348 . S
C1613 C1611 1.356 . S
H1614 C1608 0.930 . S
H1615 C1612 0.930 . S
C1616 C1618 1.348 . S
C1616 C1619 1.356 . S
C1616 O1646 1.325 . S
N1617 C1620 1.314 . S
N1617 C1621 1.279 . S
C1618 C1616 1.348 . S
C1618 C1620 1.353 . S
C1618 H1660 0.929 . S
C1619 C1616 1.356 . S
C1619 C1621 1.358 . S
C1619 H1661 0.930 . S
C1620 N1617 1.314 . S
C1620 C1618 1.353 . S
C1620 H1662 0.930 . S
C1621 N1617 1.279 . S
C1621 C1619 1.358 . S
C1621 H1663 0.930 . S
C1622 C1623 1.348 . S
C1622 C1624 1.356 . S
C1622 O1647 1.325 . S
C1623 C1622 1.348 . S
C1623 C1625 1.353 . S
C1623 H1664 0.929 . S
C1624 C1622 1.356 . S
C1624 C1626 1.358 . S
C1624 H1665 0.930 . S
C1625 C1623 1.353 . S
C1625 N1627 1.314 . S
C1625 H1666 0.930 . S
C1626 C1624 1.358 . S
C1626 N1627 1.279 . S
C1626 H1667 0.930 . S
N1627 C1625 1.314 . S
N1627 C1626 1.279 . S
C1628 C1630 1.353 . S
C1628 N1631 1.314 . S
C1628 H1634 0.930 . S
C1629 N1631 1.279 . S
C1629 C1632 1.358 . S
C1629 H1635 0.930 . S
C1630 C1628 1.353 . S
C1630 C1633 1.348 . S
C1630 H1668 0.929 . S
N1631 Li1586 1.990 . S
N1631 C1628 1.314 . S
N1631 C1629 1.279 . S
C1632 C1629 1.358 . S
C1632 C1633 1.356 . S
C1632 H1669 0.930 . S
C1633 C1630 1.348 . S
C1633 C1632 1.356 . S
H1634 C1628 0.930 . S
H1635 C1629 0.930 . S
C1636 N1637 1.314 . S
C1636 C1638 1.353 . S
C1636 H1642 0.930 . S
N1637 Li1587 1.990 . S
N1637 C1636 1.314 . S
N1637 C1640 1.279 . S
C1638 C1636 1.353 . S
C1638 C1641 1.348 . S
C1638 H1670 0.929 . S
C1639 C1640 1.358 . S
C1639 C1641 1.356 . S
C1639 H1671 0.930 . S
C1640 N1637 1.279 . S
C1640 C1639 1.358 . S
C1640 H1643 0.930 . S
C1641 C1638 1.348 . S
C1641 C1639 1.356 . S
H1642 C1636 0.930 . S
H1643 C1640 0.930 . S
O1644 Li1584 1.956 . S
O1644 Li1585 1.970 . S
O1644 Li1586 1.961 . S
O1644 C1588 1.325 . S
O1645 Li1584 1.970 . S
O1645 Li1585 1.956 . S
O1645 Li1587 1.961 . S
O1645 C1594 1.325 . S
O1646 Li1584 1.961 . S
O1646 Li1586 1.956 . S
O1646 Li1587 1.970 . S
O1646 C1616 1.325 . S
O1647 Li1585 1.961 . S
O1647 Li1586 1.970 . S
O1647 Li1587 1.956 . S
O1647 C1622 1.325 . S
H1648 C1590 0.929 . S
H1649 C1591 0.930 . S
H1650 C1592 0.930 . S
H1651 C1593 0.930 . S
H1652 C1595 0.930 . S
H1653 C1597 0.929 . S
H1654 C1598 0.930 . S
H1655 C1599 0.930 . S
H1656 C1602 0.930 . S
H1657 C1605 0.929 . S
H1658 C1610 0.929 . S
H1659 C1611 0.930 . S
H1660 C1618 0.929 . S
H1661 C1619 0.930 . S
H1662 C1620 0.930 . S
H1663 C1621 0.930 . S
H1664 C1623 0.929 . S
H1665 C1624 0.930 . S
H1666 C1625 0.930 . S
H1667 C1626 0.930 . S
H1668 C1630 0.929 . S
H1669 C1632 0.930 . S
H1670 C1638 0.929 . S
H1671 C1639 0.930 . S
Li1672 N1689 1.990 . S
Li1672 O1732 1.956 . S
Li1672 O1733 1.970 . S
Li1672 O1734 1.961 . S
Li1673 N1697 1.990 . S
Li1673 O1732 1.970 . S
Li1673 O1733 1.956 . S
Li1673 O1735 1.961 . S
Li1674 N1719 1.990 . S
Li1674 O1732 1.961 . S
Li1674 O1734 1.956 . S
Li1674 O1735 1.970 . S
Li1675 N1725 1.990 . S
Li1675 O1733 1.961 . S
Li1675 O1734 1.970 . S
Li1675 O1735 1.956 . S
C1676 C1678 1.348 . S
C1676 C1679 1.356 . S
C1676 O1732 1.325 . S
N1677 C1680 1.314 . S
N1677 C1681 1.279 . S
C1678 C1676 1.348 . S
C1678 C1680 1.353 . S
C1678 H1736 0.929 . S
C1679 C1676 1.356 . S
C1679 C1681 1.358 . S
C1679 H1737 0.930 . S
C1680 N1677 1.314 . S
C1680 C1678 1.353 . S
C1680 H1738 0.930 . S
C1681 N1677 1.279 . S
C1681 C1679 1.358 . S
C1681 H1739 0.930 . S
C1682 C1685 1.348 . S
C1682 C1686 1.356 . S
C1682 O1733 1.325 . S
C1683 N1684 1.279 . S
C1683 C1686 1.358 . S
C1683 H1740 0.930 . S
N1684 C1683 1.279 . S
N1684 C1687 1.314 . S
C1685 C1682 1.348 . S
C1685 C1687 1.353 . S
C1685 H1741 0.929 . S
C1686 C1682 1.356 . S
C1686 C1683 1.358 . S
C1686 H1742 0.930 . S
C1687 N1684 1.314 . S
C1687 C1685 1.353 . S
C1687 H1743 0.930 . S
C1688 N1689 1.314 . S
C1688 C1693 1.353 . S
C1688 H1694 0.930 . S
N1689 Li1672 1.990 . S
N1689 C1688 1.314 . S
N1689 C1691 1.279 . S
C1690 C1691 1.358 . S
C1690 C1692 1.356 . S
C1690 H1744 0.930 . S
C1691 N1689 1.279 . S
C1691 C1690 1.358 . S
C1691 H1695 0.930 . S
C1692 C1690 1.356 . S
C1692 C1693 1.348 . S
C1693 C1688 1.353 . S
C1693 C1692 1.348 . S
C1693 H1745 0.929 . S
H1694 C1688 0.930 . S
H1695 C1691 0.930 . S
C1696 N1697 1.314 . S
C1696 C1698 1.353 . S
C1696 H1702 0.930 . S
N1697 Li1673 1.990 . S
N1697 C1696 1.314 . S
N1697 C1700 1.279 . S
C1698 C1696 1.353 . S
C1698 C1701 1.348 . S
C1698 H1746 0.929 . S
C1699 C1700 1.358 . S
C1699 C1701 1.356 . S
C1699 H1747 0.930 . S
C1700 N1697 1.279 . S
C1700 C1699 1.358 . S
C1700 H1703 0.930 . S
C1701 C1698 1.348 . S
C1701 C1699 1.356 . S
H1702 C1696 0.930 . S
H1703 C1700 0.930 . S
C1704 C1706 1.348 1_545 S
C1704 C1707 1.356 . S
C1704 O1734 1.325 . S
N1705 C1708 1.314 . S
N1705 C1709 1.279 . S
C1706 C1704 1.348 1_565 S
C1706 C1708 1.353 . S
C1706 H1748 0.929 . S
C1707 C1704 1.356 . S
C1707 C1709 1.358 1_545 S
C1707 H1749 0.930 . S
C1708 N1705 1.314 . S
C1708 C1706 1.353 . S
C1708 H1750 0.930 . S
C1709 N1705 1.279 . S
C1709 C1707 1.358 1_565 S
C1709 H1751 0.930 . S
C1710 C1711 1.348 . S
C1710 C1712 1.356 . S
C1710 O1735 1.325 . S
C1711 C1710 1.348 . S
C1711 C1713 1.353 . S
C1711 H1752 0.929 . S
C1712 C1710 1.356 . S
C1712 C1714 1.358 . S
C1712 H1753 0.930 . S
C1713 C1711 1.353 . S
C1713 N1715 1.314 . S
C1713 H1754 0.930 . S
C1714 C1712 1.358 . S
C1714 N1715 1.279 . S
C1714 H1755 0.930 . S
N1715 C1713 1.314 . S
N1715 C1714 1.279 . S
C1716 C1718 1.353 . S
C1716 N1719 1.314 . S
C1716 H1722 0.930 . S
C1717 N1719 1.279 . S
C1717 C1720 1.358 . S
C1717 H1723 0.930 . S
C1718 C1716 1.353 . S
C1718 C1721 1.348 . S
C1718 H1756 0.929 . S
N1719 Li1674 1.990 . S
N1719 C1716 1.314 . S
N1719 C1717 1.279 . S
C1720 C1717 1.358 . S
C1720 C1721 1.356 . S
C1720 H1757 0.930 . S
C1721 C1718 1.348 . S
C1721 C1720 1.356 . S
H1722 C1716 0.930 . S
H1723 C1717 0.930 . S
C1724 N1725 1.314 . S
C1724 C1726 1.353 1_545 S
C1724 H1730 0.930 . S
N1725 Li1675 1.990 . S
N1725 C1724 1.314 . S
N1725 C1728 1.279 . S
C1726 C1724 1.353 1_565 S
C1726 C1729 1.348 . S
C1726 H1758 0.929 . S
C1727 C1728 1.358 1_565 S
C1727 C1729 1.356 . S
C1727 H1759 0.930 . S
C1728 N1725 1.279 . S
C1728 C1727 1.358 1_545 S
C1728 H1731 0.930 . S
C1729 C1726 1.348 . S
C1729 C1727 1.356 . S
H1730 C1724 0.930 . S
H1731 C1728 0.930 . S
O1732 Li1672 1.956 . S
O1732 Li1673 1.970 . S
O1732 Li1674 1.961 . S
O1732 C1676 1.325 . S
O1733 Li1672 1.970 . S
O1733 Li1673 1.956 . S
O1733 Li1675 1.961 . S
O1733 C1682 1.325 . S
O1734 Li1672 1.961 . S
O1734 Li1674 1.956 . S
O1734 Li1675 1.970 . S
O1734 C1704 1.325 . S
O1735 Li1673 1.961 . S
O1735 Li1674 1.970 . S
O1735 Li1675 1.956 . S
O1735 C1710 1.325 . S
H1736 C1678 0.929 . S
H1737 C1679 0.930 . S
H1738 C1680 0.930 . S
H1739 C1681 0.930 . S
H1740 C1683 0.930 . S
H1741 C1685 0.929 . S
H1742 C1686 0.930 . S
H1743 C1687 0.930 . S
H1744 C1690 0.930 . S
H1745 C1693 0.929 . S
H1746 C1698 0.929 . S
H1747 C1699 0.930 . S
H1748 C1706 0.929 . S
H1749 C1707 0.930 . S
H1750 C1708 0.930 . S
H1751 C1709 0.930 . S
H1752 C1711 0.929 . S
H1753 C1712 0.930 . S
H1754 C1713 0.930 . S
H1755 C1714 0.930 . S
H1756 C1718 0.929 . S
H1757 C1720 0.930 . S
H1758 C1726 0.929 . S
H1759 C1727 0.930 . S
Li1760 N1777 1.990 . S
Li1760 O1820 1.956 . S
Li1760 O1821 1.970 . S
Li1760 O1822 1.961 . S
Li1761 N1785 1.990 . S
Li1761 O1820 1.972 1_556 S
Li1761 O1821 1.942 1_556 S
Li1761 O1823 1.975 . S
Li1762 N1807 1.990 . S
Li1762 O1820 1.961 1_556 S
Li1762 O1822 1.956 1_556 S
Li1762 O1823 1.970 . S
Li1763 N1813 1.990 . S
Li1763 O1821 1.961 1_556 S
Li1763 O1822 1.970 1_556 S
Li1763 O1823 1.956 . S
C1764 C1766 1.348 . S
C1764 C1767 1.356 . S
C1764 O1820 1.325 . S
N1765 C1768 1.314 . S
N1765 C1769 1.279 . S
C1766 C1764 1.348 . S
C1766 C1768 1.353 . S
C1766 H1824 0.929 . S
C1767 C1764 1.356 . S
C1767 C1769 1.358 . S
C1767 H1825 0.942 . S
C1768 N1765 1.314 . S
C1768 C1766 1.353 . S
C1768 H1826 0.930 . S
C1769 N1765 1.279 . S
C1769 C1767 1.358 . S
C1769 H1827 0.930 . S
C1770 C1773 1.348 . S
C1770 C1774 1.356 . S
C1770 O1821 1.325 . S
C1771 N1772 1.279 . S
C1771 C1774 1.358 . S
C1771 H1828 0.930 . S
N1772 C1771 1.279 . S
N1772 C1775 1.314 . S
C1773 C1770 1.348 . S
C1773 C1775 1.353 . S
C1773 H1829 0.929 . S
C1774 C1770 1.356 . S
C1774 C1771 1.358 . S
C1774 H1830 0.930 . S
C1775 N1772 1.314 . S
C1775 C1773 1.353 . S
C1775 H1831 0.930 . S
C1776 N1777 1.314 . S
C1776 C1781 1.353 . S
C1776 H1782 0.930 . S
N1777 Li1760 1.990 . S
N1777 C1776 1.314 . S
N1777 C1779 1.279 . S
C1778 C1779 1.358 . S
C1778 C1780 1.356 . S
C1778 H1832 0.930 . S
C1779 N1777 1.279 . S
C1779 C1778 1.358 . S
C1779 H1783 0.930 . S
C1780 C1778 1.356 . S
C1780 C1781 1.348 . S
C1781 C1776 1.353 . S
C1781 C1780 1.348 . S
C1781 H1833 0.929 . S
H1782 C1776 0.930 . S
H1783 C1779 0.930 . S
C1784 N1785 1.314 . S
C1784 C1786 1.353 . S
C1784 H1790 0.930 . S
N1785 Li1761 1.990 . S
N1785 C1784 1.314 . S
N1785 C1788 1.279 1_556 S
C1786 C1784 1.353 . S
C1786 C1789 1.348 . S
C1786 H1834 0.929 . S
C1787 C1788 1.358 . S
C1787 C1789 1.356 1_554 S
C1787 H1835 0.930 . S
C1788 N1785 1.279 1_554 S
C1788 C1787 1.358 . S
C1788 H1791 0.930 . S
C1789 C1786 1.348 . S
C1789 C1787 1.356 1_556 S
H1790 C1784 0.930 . S
H1791 C1788 0.930 . S
C1792 C1794 1.348 1_554 S
C1792 C1795 1.356 . S
C1792 O1822 1.325 . S
N1793 C1796 1.314 1_554 S
N1793 C1797 1.279 . S
C1794 C1792 1.348 1_556 S
C1794 C1796 1.353 . S
C1794 H1836 0.929 . S
C1795 C1792 1.356 . S
C1795 C1797 1.358 . S
C1795 H1837 0.930 . S
C1796 N1793 1.314 1_556 S
C1796 C1794 1.353 . S
C1796 H1838 0.930 . S
C1797 N1793 1.279 . S
C1797 C1795 1.358 . S
C1797 H1839 0.930 . S
C1798 C1799 1.348 . S
C1798 C1800 1.356 . S
C1798 O1823 1.325 . S
C1799 C1798 1.348 . S
C1799 C1801 1.353 . S
C1799 H1840 0.929 . S
C1800 C1798 1.356 . S
C1800 C1802 1.358 . S
C1800 H1841 0.930 . S
C1801 C1799 1.353 . S
C1801 N1803 1.314 . S
C1801 H1842 0.930 . S
C1802 C1800 1.358 . S
C1802 N1803 1.279 . S
C1802 H1843 0.930 . S
N1803 C1801 1.314 . S
N1803 C1802 1.279 . S
C1804 C1806 1.353 . S
C1804 N1807 1.314 . S
C1804 H1810 0.930 . S
C1805 N1807 1.279 . S
C1805 C1808 1.358 . S
C1805 H1811 0.930 . S
C1806 C1804 1.353 . S
C1806 C1809 1.348 . S
C1806 H1844 0.929 . S
N1807 Li1762 1.990 . S
N1807 C1804 1.314 . S
N1807 C1805 1.279 . S
C1808 C1805 1.358 . S
C1808 C1809 1.356 . S
C1808 H1845 0.930 . S
C1809 C1806 1.348 . S
C1809 C1808 1.356 . S
H1810 C1804 0.930 . S
H1811 C1805 0.930 . S
C1812 N1813 1.314 1_554 S
C1812 C1814 1.353 . S
C1812 H1818 0.930 . S
N1813 Li1763 1.990 . S
N1813 C1812 1.314 1_556 S
N1813 C1816 1.279 . S
C1814 C1812 1.353 . S
C1814 C1817 1.348 1_554 S
C1814 H1846 0.929 . S
C1815 C1816 1.358 . S
C1815 C1817 1.356 . S
C1815 H1847 0.930 . S
C1816 N1813 1.279 . S
C1816 C1815 1.358 . S
C1816 H1819 0.930 . S
C1817 C1814 1.348 1_556 S
C1817 C1815 1.356 . S
H1818 C1812 0.930 . S
H1819 C1816 0.930 . S
O1820 Li1760 1.956 . S
O1820 Li1761 1.972 1_554 S
O1820 Li1762 1.961 1_554 S
O1820 C1764 1.325 . S
O1821 Li1760 1.970 . S
O1821 Li1761 1.942 1_554 S
O1821 Li1763 1.961 1_554 S
O1821 C1770 1.325 . S
O1822 Li1760 1.961 . S
O1822 Li1762 1.956 1_554 S
O1822 Li1763 1.970 1_554 S
O1822 C1792 1.325 . S
O1823 Li1761 1.975 . S
O1823 Li1762 1.970 . S
O1823 Li1763 1.956 . S
O1823 C1798 1.325 . S
H1824 C1766 0.929 . S
H1825 C1767 0.942 . S
H1826 C1768 0.930 . S
H1827 C1769 0.930 . S
H1828 C1771 0.930 . S
H1829 C1773 0.929 . S
H1830 C1774 0.930 . S
H1831 C1775 0.930 . S
H1832 C1778 0.930 . S
H1833 C1781 0.929 . S
H1834 C1786 0.929 . S
H1835 C1787 0.930 . S
H1836 C1794 0.929 . S
H1837 C1795 0.930 . S
H1838 C1796 0.930 . S
H1839 C1797 0.930 . S
H1840 C1799 0.929 . S
H1841 C1800 0.930 . S
H1842 C1801 0.930 . S
H1843 C1802 0.930 . S
H1844 C1806 0.929 . S
H1845 C1808 0.930 . S
H1846 C1814 0.929 . S
H1847 C1815 0.930 . S
Li1848 N1865 1.990 . S
Li1848 O1908 1.956 . S
Li1848 O1909 1.970 . S
Li1848 O1910 1.961 . S
Li1849 N1873 1.990 . S
Li1849 O1908 1.970 . S
Li1849 O1909 1.956 . S
Li1849 O1911 1.961 . S
Li1850 N1895 1.990 . S
Li1850 O1908 1.961 . S
Li1850 O1910 1.956 . S
Li1850 O1911 1.970 . S
Li1851 N1901 1.990 . S
Li1851 O1909 1.961 . S
Li1851 O1910 1.970 . S
Li1851 O1911 1.956 . S
C1852 C1854 1.348 . S
C1852 C1855 1.356 . S
C1852 O1908 1.325 . S
N1853 C1856 1.314 . S
N1853 C1857 1.279 . S
C1854 C1852 1.348 . S
C1854 C1856 1.353 . S
C1854 H1912 0.929 . S
C1855 C1852 1.356 . S
C1855 C1857 1.358 . S
C1855 H1913 0.930 . S
C1856 N1853 1.314 . S
C1856 C1854 1.353 . S
C1856 H1914 0.930 . S
C1857 N1853 1.279 . S
C1857 C1855 1.358 . S
C1857 H1915 0.930 . S
C1858 C1861 1.348 . S
C1858 C1862 1.356 . S
C1858 O1909 1.325 . S
C1859 N1860 1.279 . S
C1859 C1862 1.358 . S
C1859 H1916 0.930 . S
N1860 C1859 1.279 . S
N1860 C1863 1.314 . S
C1861 C1858 1.348 . S
C1861 C1863 1.353 . S
C1861 H1917 0.929 . S
C1862 C1858 1.356 . S
C1862 C1859 1.358 . S
C1862 H1918 0.930 . S
C1863 N1860 1.314 . S
C1863 C1861 1.353 . S
C1863 H1919 0.930 . S
C1864 N1865 1.314 . S
C1864 C1869 1.353 . S
C1864 H1870 0.930 . S
N1865 Li1848 1.990 . S
N1865 C1864 1.314 . S
N1865 C1867 1.279 . S
C1866 C1867 1.358 . S
C1866 C1868 1.356 . S
C1866 H1920 0.930 . S
C1867 N1865 1.279 . S
C1867 C1866 1.358 . S
C1867 H1871 0.930 . S
C1868 C1866 1.356 . S
C1868 C1869 1.348 . S
C1869 C1864 1.353 . S
C1869 C1868 1.348 . S
C1869 H1921 0.929 . S
H1870 C1864 0.930 . S
H1871 C1867 0.930 . S
C1872 N1873 1.314 . S
C1872 C1874 1.353 . S
C1872 H1878 0.930 . S
N1873 Li1849 1.990 . S
N1873 C1872 1.314 . S
N1873 C1876 1.279 . S
C1874 C1872 1.353 . S
C1874 C1877 1.348 . S
C1874 H1922 0.929 . S
C1875 C1876 1.358 . S
C1875 C1877 1.356 . S
C1875 H1923 0.930 . S
C1876 N1873 1.279 . S
C1876 C1875 1.358 . S
C1876 H1879 0.930 . S
C1877 C1874 1.348 . S
C1877 C1875 1.356 . S
H1878 C1872 0.930 . S
H1879 C1876 0.930 . S
C1880 C1882 1.348 . S
C1880 C1883 1.356 . S
C1880 O1910 1.325 . S
N1881 C1884 1.314 . S
N1881 C1885 1.279 . S
C1882 C1880 1.348 . S
C1882 C1884 1.353 . S
C1882 H1924 0.929 . S
C1883 C1880 1.356 . S
C1883 C1885 1.358 . S
C1883 H1925 0.930 . S
C1884 N1881 1.314 . S
C1884 C1882 1.353 . S
C1884 H1926 0.930 . S
C1885 N1881 1.279 . S
C1885 C1883 1.358 . S
C1885 H1927 0.930 . S
C1886 C1887 1.348 . S
C1886 C1888 1.356 . S
C1886 O1911 1.325 . S
C1887 C1886 1.348 . S
C1887 C1889 1.353 . S
C1887 H1928 0.929 . S
C1888 C1886 1.356 . S
C1888 C1890 1.358 . S
C1888 H1929 0.930 . S
C1889 C1887 1.353 . S
C1889 N1891 1.314 . S
C1889 H1930 0.930 . S
C1890 C1888 1.358 . S
C1890 N1891 1.279 . S
C1890 H1931 0.930 . S
N1891 C1889 1.314 . S
N1891 C1890 1.279 . S
C1892 C1894 1.353 . S
C1892 N1895 1.314 . S
C1892 H1898 0.930 . S
C1893 N1895 1.279 . S
C1893 C1896 1.358 . S
C1893 H1899 0.930 . S
C1894 C1892 1.353 . S
C1894 C1897 1.348 . S
C1894 H1932 0.929 . S
N1895 Li1850 1.990 . S
N1895 C1892 1.314 . S
N1895 C1893 1.279 . S
C1896 C1893 1.358 . S
C1896 C1897 1.356 . S
C1896 H1933 0.930 . S
C1897 C1894 1.348 . S
C1897 C1896 1.356 . S
H1898 C1892 0.930 . S
H1899 C1893 0.930 . S
C1900 N1901 1.314 . S
C1900 C1902 1.353 . S
C1900 H1906 0.930 . S
N1901 Li1851 1.990 . S
N1901 C1900 1.314 . S
N1901 C1904 1.279 . S
C1902 C1900 1.353 . S
C1902 C1905 1.348 . S
C1902 H1934 0.929 . S
C1903 C1904 1.358 . S
C1903 C1905 1.356 . S
C1903 H1935 0.930 . S
C1904 N1901 1.279 . S
C1904 C1903 1.358 . S
C1904 H1907 0.930 . S
C1905 C1902 1.348 . S
C1905 C1903 1.356 . S
H1906 C1900 0.930 . S
H1907 C1904 0.930 . S
O1908 Li1848 1.956 . S
O1908 Li1849 1.970 . S
O1908 Li1850 1.961 . S
O1908 C1852 1.325 . S
O1909 Li1848 1.970 . S
O1909 Li1849 1.956 . S
O1909 Li1851 1.961 . S
O1909 C1858 1.325 . S
O1910 Li1848 1.961 . S
O1910 Li1850 1.956 . S
O1910 Li1851 1.970 . S
O1910 C1880 1.325 . S
O1911 Li1849 1.961 . S
O1911 Li1850 1.970 . S
O1911 Li1851 1.956 . S
O1911 C1886 1.325 . S
H1912 C1854 0.929 . S
H1913 C1855 0.930 . S
H1914 C1856 0.930 . S
H1915 C1857 0.930 . S
H1916 C1859 0.930 . S
H1917 C1861 0.929 . S
H1918 C1862 0.930 . S
H1919 C1863 0.930 . S
H1920 C1866 0.930 . S
H1921 C1869 0.929 . S
H1922 C1874 0.929 . S
H1923 C1875 0.930 . S
H1924 C1882 0.929 . S
H1925 C1883 0.930 . S
H1926 C1884 0.930 . S
H1927 C1885 0.930 . S
H1928 C1887 0.929 . S
H1929 C1888 0.930 . S
H1930 C1889 0.930 . S
H1931 C1890 0.930 . S
H1932 C1894 0.929 . S
H1933 C1896 0.930 . S
H1934 C1902 0.929 . S
H1935 C1903 0.930 . S
Li1936 N1953 1.990 . S
Li1936 O1996 1.956 . S
Li1936 O1997 1.970 . S
Li1936 O1998 1.961 . S
Li1937 N1961 1.990 . S
Li1937 O1996 1.970 . S
Li1937 O1997 1.956 . S
Li1937 O1999 1.961 . S
Li1938 N1983 1.990 . S
Li1938 O1996 1.961 . S
Li1938 O1998 1.956 . S
Li1938 O1999 1.970 . S
Li1939 N1989 1.990 . S
Li1939 O1997 1.961 . S
Li1939 O1998 1.970 . S
Li1939 O1999 1.956 . S
C1940 C1942 1.348 . S
C1940 C1943 1.356 . S
C1940 O1996 1.325 . S
N1941 C1944 1.314 . S
N1941 C1945 1.279 . S
C1942 C1940 1.348 . S
C1942 C1944 1.353 . S
C1942 H2000 0.929 . S
C1943 C1940 1.356 . S
C1943 C1945 1.358 . S
C1943 H2001 0.930 . S
C1944 N1941 1.314 . S
C1944 C1942 1.353 . S
C1944 H2002 0.930 . S
C1945 N1941 1.279 . S
C1945 C1943 1.358 . S
C1945 H2003 0.930 . S
C1946 C1949 1.348 . S
C1946 C1950 1.356 . S
C1946 O1997 1.325 . S
C1947 N1948 1.279 . S
C1947 C1950 1.358 . S
C1947 H2004 0.930 . S
N1948 C1947 1.279 . S
N1948 C1951 1.314 . S
C1949 C1946 1.348 . S
C1949 C1951 1.353 . S
C1949 H2005 0.929 . S
C1950 C1946 1.356 . S
C1950 C1947 1.358 . S
C1950 H2006 0.930 . S
C1951 N1948 1.314 . S
C1951 C1949 1.353 . S
C1951 H2007 0.930 . S
C1952 N1953 1.314 . S
C1952 C1957 1.353 . S
C1952 H1958 0.930 . S
N1953 Li1936 1.990 . S
N1953 C1952 1.314 . S
N1953 C1955 1.279 . S
C1954 C1955 1.358 . S
C1954 C1956 1.356 . S
C1954 H2008 0.930 . S
C1955 N1953 1.279 . S
C1955 C1954 1.358 . S
C1955 H1959 0.930 . S
C1956 C1954 1.356 . S
C1956 C1957 1.348 . S
C1957 C1952 1.353 . S
C1957 C1956 1.348 . S
C1957 H2009 0.929 . S
H1958 C1952 0.930 . S
H1959 C1955 0.930 . S
C1960 N1961 1.314 . S
C1960 C1962 1.353 . S
C1960 H1966 0.930 . S
N1961 Li1937 1.990 . S
N1961 C1960 1.314 . S
N1961 C1964 1.279 . S
C1962 C1960 1.353 . S
C1962 C1965 1.348 . S
C1962 H2010 0.929 . S
C1963 C1964 1.358 . S
C1963 C1965 1.356 . S
C1963 H2011 0.930 . S
C1964 N1961 1.279 . S
C1964 C1963 1.358 . S
C1964 H1967 0.930 . S
C1965 C1962 1.348 . S
C1965 C1963 1.356 . S
H1966 C1960 0.930 . S
H1967 C1964 0.930 . S
C1968 C1970 1.348 . S
C1968 C1971 1.356 . S
C1968 O1998 1.325 . S
N1969 C1972 1.314 . S
N1969 C1973 1.279 . S
C1970 C1968 1.348 . S
C1970 C1972 1.353 . S
C1970 H2012 0.929 . S
C1971 C1968 1.356 . S
C1971 C1973 1.358 . S
C1971 H2013 0.930 . S
C1972 N1969 1.314 . S
C1972 C1970 1.353 . S
C1972 H2014 0.930 . S
C1973 N1969 1.279 . S
C1973 C1971 1.358 . S
C1973 H2015 0.930 . S
C1974 C1975 1.348 . S
C1974 C1976 1.356 . S
C1974 O1999 1.325 . S
C1975 C1974 1.348 . S
C1975 C1977 1.353 . S
C1975 H2016 0.929 . S
C1976 C1974 1.356 . S
C1976 C1978 1.358 . S
C1976 H2017 0.930 . S
C1977 C1975 1.353 . S
C1977 N1979 1.314 . S
C1977 H2018 0.930 . S
C1978 C1976 1.358 . S
C1978 N1979 1.279 . S
C1978 H2019 0.930 . S
N1979 C1977 1.314 . S
N1979 C1978 1.279 . S
C1980 C1982 1.353 . S
C1980 N1983 1.314 . S
C1980 H1986 0.930 . S
C1981 N1983 1.279 . S
C1981 C1984 1.358 . S
C1981 H1987 0.930 . S
C1982 C1980 1.353 . S
C1982 C1985 1.348 . S
C1982 H2020 0.929 . S
N1983 Li1938 1.990 . S
N1983 C1980 1.314 . S
N1983 C1981 1.279 . S
C1984 C1981 1.358 . S
C1984 C1985 1.356 . S
C1984 H2021 0.930 . S
C1985 C1982 1.348 . S
C1985 C1984 1.356 . S
H1986 C1980 0.930 . S
H1987 C1981 0.930 . S
C1988 N1989 1.314 . S
C1988 C1990 1.353 . S
C1988 H1994 0.930 . S
N1989 Li1939 1.990 . S
N1989 C1988 1.314 . S
N1989 C1992 1.279 . S
C1990 C1988 1.353 . S
C1990 C1993 1.348 . S
C1990 H2022 0.929 . S
C1991 C1992 1.358 . S
C1991 C1993 1.356 . S
C1991 H2023 0.930 . S
C1992 N1989 1.279 . S
C1992 C1991 1.358 . S
C1992 H1995 0.930 . S
C1993 C1990 1.348 . S
C1993 C1991 1.356 . S
H1994 C1988 0.930 . S
H1995 C1992 0.930 . S
O1996 Li1936 1.956 . S
O1996 Li1937 1.970 . S
O1996 Li1938 1.961 . S
O1996 C1940 1.325 . S
O1997 Li1936 1.970 . S
O1997 Li1937 1.956 . S
O1997 Li1939 1.961 . S
O1997 C1946 1.325 . S
O1998 Li1936 1.961 . S
O1998 Li1938 1.956 . S
O1998 Li1939 1.970 . S
O1998 C1968 1.325 . S
O1999 Li1937 1.961 . S
O1999 Li1938 1.970 . S
O1999 Li1939 1.956 . S
O1999 C1974 1.325 . S
H2000 C1942 0.929 . S
H2001 C1943 0.930 . S
H2002 C1944 0.930 . S
H2003 C1945 0.930 . S
H2004 C1947 0.930 . S
H2005 C1949 0.929 . S
H2006 C1950 0.930 . S
H2007 C1951 0.930 . S
H2008 C1954 0.930 . S
H2009 C1957 0.929 . S
H2010 C1962 0.929 . S
H2011 C1963 0.930 . S
H2012 C1970 0.929 . S
H2013 C1971 0.930 . S
H2014 C1972 0.930 . S
H2015 C1973 0.930 . S
H2016 C1975 0.929 . S
H2017 C1976 0.930 . S
H2018 C1977 0.930 . S
H2019 C1978 0.930 . S
H2020 C1982 0.929 . S
H2021 C1984 0.930 . S
H2022 C1990 0.929 . S
H2023 C1991 0.930 . S
Li2024 N2041 1.990 . S
Li2024 O2084 1.956 . S
Li2024 O2085 1.970 . S
Li2024 O2086 1.961 . S
Li2025 N2049 1.990 . S
Li2025 O2084 1.970 . S
Li2025 O2085 1.956 . S
Li2025 O2087 1.961 . S
Li2026 N2071 1.990 . S
Li2026 O2084 1.961 . S
Li2026 O2086 1.956 . S
Li2026 O2087 1.970 . S
Li2027 N2077 1.990 . S
Li2027 O2085 1.961 . S
Li2027 O2086 1.970 . S
Li2027 O2087 1.956 . S
C2028 C2030 1.348 . S
C2028 C2031 1.356 . S
C2028 O2084 1.325 . S
N2029 C2032 1.314 . S
N2029 C2033 1.279 . S
C2030 C2028 1.348 . S
C2030 C2032 1.353 . S
C2030 H2088 0.929 . S
C2031 C2028 1.356 . S
C2031 C2033 1.358 . S
C2031 H2089 0.930 . S
C2032 N2029 1.314 . S
C2032 C2030 1.353 . S
C2032 H2090 0.930 . S
C2033 N2029 1.279 . S
C2033 C2031 1.358 . S
C2033 H2091 0.930 . S
C2034 C2037 1.348 . S
C2034 C2038 1.356 . S
C2034 O2085 1.325 . S
C2035 N2036 1.279 . S
C2035 C2038 1.358 . S
C2035 H2092 0.930 . S
N2036 C2035 1.279 . S
N2036 C2039 1.314 . S
C2037 C2034 1.348 . S
C2037 C2039 1.353 . S
C2037 H2093 0.929 . S
C2038 C2034 1.356 . S
C2038 C2035 1.358 . S
C2038 H2094 0.930 . S
C2039 N2036 1.314 . S
C2039 C2037 1.353 . S
C2039 H2095 0.930 . S
C2040 N2041 1.314 . S
C2040 C2045 1.353 . S
C2040 H2046 0.930 . S
N2041 Li2024 1.990 . S
N2041 C2040 1.314 . S
N2041 C2043 1.279 . S
C2042 C2043 1.358 . S
C2042 C2044 1.356 . S
C2042 H2096 0.930 . S
C2043 N2041 1.279 . S
C2043 C2042 1.358 . S
C2043 H2047 0.930 . S
C2044 C2042 1.356 . S
C2044 C2045 1.348 . S
C2045 C2040 1.353 . S
C2045 C2044 1.348 . S
C2045 H2097 0.929 . S
H2046 C2040 0.930 . S
H2047 C2043 0.930 . S
C2048 N2049 1.314 . S
C2048 C2050 1.353 . S
C2048 H2054 0.930 . S
N2049 Li2025 1.990 . S
N2049 C2048 1.314 . S
N2049 C2052 1.279 . S
C2050 C2048 1.353 . S
C2050 C2053 1.348 . S
C2050 H2098 0.929 . S
C2051 C2052 1.358 . S
C2051 C2053 1.356 . S
C2051 H2099 0.930 . S
C2052 N2049 1.279 . S
C2052 C2051 1.358 . S
C2052 H2055 0.930 . S
C2053 C2050 1.348 . S
C2053 C2051 1.356 . S
H2054 C2048 0.930 . S
H2055 C2052 0.930 . S
C2056 C2058 1.348 . S
C2056 C2059 1.356 . S
C2056 O2086 1.325 . S
N2057 C2060 1.314 . S
N2057 C2061 1.279 . S
C2058 C2056 1.348 . S
C2058 C2060 1.353 . S
C2058 H2100 0.929 . S
C2059 C2056 1.356 . S
C2059 C2061 1.358 . S
C2059 H2101 0.930 . S
C2060 N2057 1.314 . S
C2060 C2058 1.353 . S
C2060 H2102 0.930 . S
C2061 N2057 1.279 . S
C2061 C2059 1.358 . S
C2061 H2103 0.930 . S
C2062 C2063 1.348 . S
C2062 C2064 1.356 . S
C2062 O2087 1.325 . S
C2063 C2062 1.348 . S
C2063 C2065 1.353 . S
C2063 H2104 0.929 . S
C2064 C2062 1.356 . S
C2064 C2066 1.358 . S
C2064 H2105 0.930 . S
C2065 C2063 1.353 . S
C2065 N2067 1.314 . S
C2065 H2106 0.930 . S
C2066 C2064 1.358 . S
C2066 N2067 1.279 . S
C2066 H2107 0.930 . S
N2067 C2065 1.314 . S
N2067 C2066 1.279 . S
C2068 C2070 1.353 . S
C2068 N2071 1.314 . S
C2068 H2074 0.930 . S
C2069 N2071 1.279 . S
C2069 C2072 1.358 . S
C2069 H2075 0.930 . S
C2070 C2068 1.353 . S
C2070 C2073 1.348 . S
C2070 H2108 0.929 . S
N2071 Li2026 1.990 . S
N2071 C2068 1.314 . S
N2071 C2069 1.279 . S
C2072 C2069 1.358 . S
C2072 C2073 1.356 . S
C2072 H2109 0.930 . S
C2073 C2070 1.348 . S
C2073 C2072 1.356 . S
H2074 C2068 0.930 . S
H2075 C2069 0.930 . S
C2076 N2077 1.314 . S
C2076 C2078 1.353 . S
C2076 H2082 0.930 . S
N2077 Li2027 1.990 . S
N2077 C2076 1.314 . S
N2077 C2080 1.279 . S
C2078 C2076 1.353 . S
C2078 C2081 1.348 . S
C2078 H2110 0.929 . S
C2079 C2080 1.358 . S
C2079 C2081 1.356 . S
C2079 H2111 0.930 . S
C2080 N2077 1.279 . S
C2080 C2079 1.358 . S
C2080 H2083 0.930 . S
C2081 C2078 1.348 . S
C2081 C2079 1.356 . S
H2082 C2076 0.930 . S
H2083 C2080 0.930 . S
O2084 Li2024 1.956 . S
O2084 Li2025 1.970 . S
O2084 Li2026 1.961 . S
O2084 C2028 1.325 . S
O2085 Li2024 1.970 . S
O2085 Li2025 1.956 . S
O2085 Li2027 1.961 . S
O2085 C2034 1.325 . S
O2086 Li2024 1.961 . S
O2086 Li2026 1.956 . S
O2086 Li2027 1.970 . S
O2086 C2056 1.325 . S
O2087 Li2025 1.961 . S
O2087 Li2026 1.970 . S
O2087 Li2027 1.956 . S
O2087 C2062 1.325 . S
H2088 C2030 0.929 . S
H2089 C2031 0.930 . S
H2090 C2032 0.930 . S
H2091 C2033 0.930 . S
H2092 C2035 0.930 . S
H2093 C2037 0.929 . S
H2094 C2038 0.930 . S
H2095 C2039 0.930 . S
H2096 C2042 0.930 . S
H2097 C2045 0.929 . S
H2098 C2050 0.929 . S
H2099 C2051 0.930 . S
H2100 C2058 0.929 . S
H2101 C2059 0.930 . S
H2102 C2060 0.930 . S
H2103 C2061 0.930 . S
H2104 C2063 0.929 . S
H2105 C2064 0.930 . S
H2106 C2065 0.930 . S
H2107 C2066 0.930 . S
H2108 C2070 0.929 . S
H2109 C2072 0.930 . S
H2110 C2078 0.929 . S
H2111 C2079 0.930 . S
Eu2112 N2143 2.657 . S
Eu2112 N2150 2.609 1_554 S
Eu2112 O2156 2.562 1_454 S
Eu2112 O2157 2.612 . S
Eu2112 O2159 2.339 . S
Eu2112 O2160 2.563 . S
Eu2112 O2161 2.419 1_455 S
Eu2112 O2163 2.380 . S
Eu2112 O2164 2.432 1_554 S
Eu2112 C2176 2.834 1_454 S
C2113 C2116 1.429 . S
C2113 C2117 1.411 . S
C2113 N2120 1.377 . S
C2114 C2116 1.420 . S
C2114 C2118 1.423 . S
C2114 C2126 1.392 . S
C2115 C2117 1.420 . S
C2115 C2118 1.351 . S
C2115 H2138 0.931 . S
C2116 C2113 1.429 . S
C2116 C2114 1.420 . S
C2116 N2124 1.362 . S
C2117 C2113 1.411 . S
C2117 C2115 1.420 . S
C2117 C2122 1.395 . S
C2118 C2114 1.423 . S
C2118 C2115 1.351 . S
C2118 H2130 0.930 . S
C2119 C2121 1.400 . S
C2119 C2122 1.386 . S
C2119 H2131 0.930 . S
N2120 C2113 1.377 . S
N2120 C2121 1.321 . S
N2120 Eu2123 2.609 . S
C2121 C2119 1.400 . S
C2121 N2120 1.321 . S
C2121 H2128 0.930 . S
C2122 C2117 1.395 . S
C2122 C2119 1.386 . S
C2122 H2141 0.930 . S
Eu2123 N2120 2.609 . S
Eu2123 N2124 2.657 . S
Eu2123 O2157 2.380 . S
Eu2123 O2158 2.432 . S
Eu2123 O2162 2.558 . S
Eu2123 O2163 2.612 . S
Eu2123 O2165 2.335 . S
Eu2123 O2166 2.563 . S
Eu2123 O2167 2.419 . S
Eu2123 C2187 2.848 . S
N2124 C2116 1.362 . S
N2124 Eu2123 2.657 . S
N2124 C2125 1.329 . S
C2125 N2124 1.329 . S
C2125 C2127 1.416 1_554 S
C2125 H2132 0.931 1_554 S
C2126 C2114 1.392 . S
C2126 C2127 1.367 1_554 S
C2126 H2134 0.909 1_554 S
C2127 C2125 1.416 1_556 S
C2127 C2126 1.367 1_556 S
C2127 H2129 0.930 . S
H2128 C2121 0.930 . S
H2129 C2127 0.930 . S
H2130 C2118 0.930 . S
H2131 C2119 0.930 . S
H2132 C2125 0.931 1_556 S
H2133 C2147 0.930 . S
H2134 C2126 0.909 1_556 S
H2135 C2153 0.979 . S
H2136 C2144 0.929 . S
H2137 C2151 0.930 . S
H2138 C2115 0.931 . S
H2139 C2145 0.930 . S
H2140 C2178 0.930 . S
H2141 C2122 0.930 . S
H2142 C2177 0.931 . S
N2143 Eu2112 2.657 . S
N2143 C2144 1.334 . S
N2143 C2148 1.362 1_545 S
C2144 H2136 0.929 . S
C2144 N2143 1.334 . S
C2144 C2147 1.413 1_545 S
C2145 H2139 0.930 . S
C2145 C2146 1.392 . S
C2145 C2147 1.367 1_655 S
C2146 C2145 1.392 . S
C2146 C2148 1.420 1_655 S
C2146 C2178 1.423 . S
C2147 H2133 0.930 . S
C2147 C2144 1.413 1_565 S
C2147 C2145 1.367 1_455 S
C2148 N2143 1.362 1_565 S
C2148 C2146 1.420 1_455 S
C2148 C2152 1.429 1_554 S
H2149 C2154 0.930 . S
N2150 Eu2112 2.609 1_556 S
N2150 C2152 1.377 1_545 S
N2150 C2153 1.314 . S
C2151 H2137 0.930 . S
C2151 C2153 1.364 1_565 S
C2151 C2154 1.386 1_455 S
C2152 C2148 1.429 1_556 S
C2152 N2150 1.377 1_565 S
C2152 C2155 1.411 1_455 S
C2153 H2135 0.979 . S
C2153 N2150 1.314 . S
C2153 C2151 1.364 1_545 S
C2154 H2149 0.930 . S
C2154 C2151 1.386 1_655 S
C2154 C2155 1.395 . S
C2155 C2152 1.411 1_655 S
C2155 C2154 1.395 . S
C2155 C2177 1.420 . S
O2156 Eu2112 2.562 1_656 S
O2156 C2176 1.301 . S
O2157 Eu2112 2.612 . S
O2157 Eu2123 2.380 . S
O2157 C2168 1.276 . S
O2158 Eu2123 2.432 . S
O2158 C2175 1.264 . S
O2159 Eu2112 2.339 . S
O2159 C2175 1.254 . S
O2160 Eu2112 2.563 . S
O2160 C2168 1.235 . S
O2161 Eu2112 2.419 1_655 S
O2161 C2176 1.191 1_554 S
O2162 Eu2123 2.558 . S
O2162 C2187 1.257 . S
O2163 Eu2112 2.380 . S
O2163 Eu2123 2.612 . S
O2163 C2179 1.276 . S
O2164 Eu2112 2.432 1_556 S
O2164 C2186 1.264 . S
O2165 Eu2123 2.335 . S
O2165 C2186 1.256 1_554 S
O2166 Eu2123 2.563 . S
O2166 C2179 1.235 . S
O2167 Eu2123 2.419 . S
O2167 C2187 1.249 . S
C2168 O2157 1.276 . S
C2168 O2160 1.235 . S
C2169 C2171 1.393 1_556 S
C2169 C2173 1.395 . S
C2169 C2176 1.505 . S
C2170 C2171 1.392 . S
C2170 C2172 1.386 1_554 S
C2171 C2169 1.393 1_554 S
C2171 C2170 1.392 . S
C2171 H2188 0.930 . S
C2172 C2170 1.386 1_556 S
C2172 C2174 1.395 . S
C2172 H2189 0.930 . S
C2173 C2169 1.395 . S
C2173 C2174 1.379 . S
C2173 H2190 0.930 . S
C2174 C2172 1.395 . S
C2174 C2173 1.379 . S
C2174 H2191 0.930 . S
C2175 O2158 1.264 . S
C2175 O2159 1.254 . S
C2176 Eu2112 2.834 1_656 S
C2176 O2156 1.301 . S
C2176 O2161 1.191 1_556 S
C2176 C2169 1.505 . S
C2177 H2142 0.931 . S
C2177 C2155 1.420 . S
C2177 C2178 1.351 1_556 S
C2178 H2140 0.930 . S
C2178 C2146 1.423 . S
C2178 C2177 1.351 1_554 S
C2179 O2163 1.276 . S
C2179 O2166 1.235 . S
C2180 C2181 1.393 . S
C2180 C2184 1.395 . S
C2180 C2187 1.492 . S
C2181 C2180 1.393 . S
C2181 C2182 1.392 . S
C2181 H2192 0.930 . S
C2182 C2181 1.392 . S
C2182 C2183 1.386 . S
C2183 C2182 1.386 . S
C2183 C2185 1.395 . S
C2183 H2193 0.930 . S
C2184 C2180 1.395 . S
C2184 C2185 1.379 . S
C2184 H2194 0.930 . S
C2185 C2183 1.395 . S
C2185 C2184 1.379 . S
C2185 H2195 0.930 . S
C2186 O2164 1.264 . S
C2186 O2165 1.256 1_556 S
C2187 Eu2123 2.848 . S
C2187 O2162 1.257 . S
C2187 O2167 1.249 . S
C2187 C2180 1.492 . S
H2188 C2171 0.930 . S
H2189 C2172 0.930 . S
H2190 C2173 0.930 . S
H2191 C2174 0.930 . S
H2192 C2181 0.930 . S
H2193 C2183 0.930 . S
H2194 C2184 0.930 . S
H2195 C2185 0.930 . S
Eu2196 N2227 2.657 . S
Eu2196 N2234 2.609 . S
Eu2196 O2240 2.558 . S
Eu2196 O2241 2.612 . S
Eu2196 O2243 2.339 . S
Eu2196 O2244 2.563 . S
Eu2196 O2245 2.419 . S
Eu2196 O2247 2.380 . S
Eu2196 O2248 2.432 . S
Eu2196 C2260 2.848 . S
C2197 C2200 1.429 . S
C2197 C2201 1.411 . S
C2197 N2204 1.377 . S
C2198 C2200 1.420 . S
C2198 C2202 1.423 . S
C2198 C2210 1.392 . S
C2199 C2201 1.420 . S
C2199 C2202 1.351 . S
C2199 H2222 0.931 . S
C2200 C2197 1.429 . S
C2200 C2198 1.420 . S
C2200 N2208 1.362 . S
C2201 C2197 1.411 . S
C2201 C2199 1.420 . S
C2201 C2206 1.395 . S
C2202 C2198 1.423 . S
C2202 C2199 1.351 . S
C2202 H2214 0.930 . S
C2203 C2205 1.400 . S
C2203 C2206 1.386 . S
C2203 H2215 0.930 . S
N2204 C2197 1.377 . S
N2204 C2205 1.321 . S
N2204 Eu2207 2.609 . S
C2205 C2203 1.400 . S
C2205 N2204 1.321 . S
C2205 H2212 0.930 . S
C2206 C2201 1.395 . S
C2206 C2203 1.386 . S
C2206 H2225 0.930 . S
Eu2207 N2204 2.609 . S
Eu2207 N2208 2.657 . S
Eu2207 O2241 2.380 . S
Eu2207 O2242 2.432 . S
Eu2207 O2246 2.558 . S
Eu2207 O2247 2.612 . S
Eu2207 O2249 2.339 . S
Eu2207 O2250 2.563 . S
Eu2207 O2251 2.419 . S
Eu2207 C2271 2.848 . S
N2208 C2200 1.362 . S
N2208 Eu2207 2.657 . S
N2208 C2209 1.334 . S
C2209 N2208 1.334 . S
C2209 C2211 1.413 . S
C2209 H2216 0.929 . S
C2210 C2198 1.392 . S
C2210 C2211 1.367 . S
C2210 H2218 0.930 . S
C2211 C2209 1.413 . S
C2211 C2210 1.367 . S
C2211 H2213 0.930 . S
H2212 C2205 0.930 . S
H2213 C2211 0.930 . S
H2214 C2202 0.930 . S
H2215 C2203 0.930 . S
H2216 C2209 0.929 . S
H2217 C2231 0.930 . S
H2218 C2210 0.930 . S
H2219 C2237 0.930 . S
H2220 C2228 0.929 . S
H2221 C2235 0.930 . S
H2222 C2199 0.931 . S
H2223 C2229 0.930 . S
H2224 C2262 0.930 . S
H2225 C2206 0.930 . S
H2226 C2261 0.931 . S
N2227 Eu2196 2.657 . S
N2227 C2228 1.334 . S
N2227 C2232 1.362 . S
C2228 H2220 0.929 . S
C2228 N2227 1.334 . S
C2228 C2231 1.413 . S
C2229 H2223 0.930 . S
C2229 C2230 1.392 . S
C2229 C2231 1.367 . S
C2230 C2229 1.392 . S
C2230 C2232 1.420 . S
C2230 C2262 1.423 . S
C2231 H2217 0.930 . S
C2231 C2228 1.413 . S
C2231 C2229 1.367 . S
C2232 N2227 1.362 . S
C2232 C2230 1.420 . S
C2232 C2236 1.429 . S
H2233 C2238 0.930 . S
N2234 Eu2196 2.609 . S
N2234 C2236 1.377 . S
N2234 C2237 1.321 . S
C2235 H2221 0.930 . S
C2235 C2237 1.400 . S
C2235 C2238 1.386 . S
C2236 C2232 1.429 . S
C2236 N2234 1.377 . S
C2236 C2239 1.411 . S
C2237 H2219 0.930 . S
C2237 N2234 1.321 . S
C2237 C2235 1.400 . S
C2238 H2233 0.930 . S
C2238 C2235 1.386 . S
C2238 C2239 1.395 . S
C2239 C2236 1.411 . S
C2239 C2238 1.395 . S
C2239 C2261 1.420 . S
O2240 Eu2196 2.558 . S
O2240 C2260 1.257 . S
O2241 Eu2196 2.612 . S
O2241 Eu2207 2.380 . S
O2241 C2252 1.276 . S
O2242 Eu2207 2.432 . S
O2242 C2259 1.264 . S
O2243 Eu2196 2.339 . S
O2243 C2259 1.254 . S
O2244 Eu2196 2.563 . S
O2244 C2252 1.235 . S
O2245 Eu2196 2.419 . S
O2245 C2260 1.249 . S
O2246 Eu2207 2.558 . S
O2246 C2271 1.257 . S
O2247 Eu2196 2.380 . S
O2247 Eu2207 2.612 . S
O2247 C2263 1.276 . S
O2248 Eu2196 2.432 . S
O2248 C2270 1.264 . S
O2249 Eu2207 2.339 . S
O2249 C2270 1.254 . S
O2250 Eu2207 2.563 . S
O2250 C2263 1.235 . S
O2251 Eu2207 2.419 . S
O2251 C2271 1.249 . S
C2252 O2241 1.276 . S
C2252 O2244 1.235 . S
C2253 C2255 1.393 . S
C2253 C2257 1.395 . S
C2253 C2260 1.492 . S
C2254 C2255 1.392 . S
C2254 C2256 1.386 . S
C2255 C2253 1.393 . S
C2255 C2254 1.392 . S
C2255 H2272 0.930 . S
C2256 C2254 1.386 . S
C2256 C2258 1.395 . S
C2256 H2273 0.930 . S
C2257 C2253 1.395 . S
C2257 C2258 1.379 . S
C2257 H2274 0.930 . S
C2258 C2256 1.395 . S
C2258 C2257 1.379 . S
C2258 H2275 0.930 . S
C2259 O2242 1.264 . S
C2259 O2243 1.254 . S
C2260 Eu2196 2.848 . S
C2260 O2240 1.257 . S
C2260 O2245 1.249 . S
C2260 C2253 1.492 . S
C2261 H2226 0.931 . S
C2261 C2239 1.420 . S
C2261 C2262 1.351 . S
C2262 H2224 0.930 . S
C2262 C2230 1.423 . S
C2262 C2261 1.351 . S
C2263 O2247 1.276 . S
C2263 O2250 1.235 . S
C2264 C2265 1.393 . S
C2264 C2268 1.395 . S
C2264 C2271 1.492 . S
C2265 C2264 1.393 . S
C2265 C2266 1.392 . S
C2265 H2276 0.930 . S
C2266 C2265 1.392 . S
C2266 C2267 1.386 . S
C2267 C2266 1.386 . S
C2267 C2269 1.395 . S
C2267 H2277 0.930 . S
C2268 C2264 1.395 . S
C2268 C2269 1.379 . S
C2268 H2278 0.930 . S
C2269 C2267 1.395 . S
C2269 C2268 1.379 . S
C2269 H2279 0.930 . S
C2270 O2248 1.264 . S
C2270 O2249 1.254 . S
C2271 Eu2207 2.848 . S
C2271 O2246 1.257 . S
C2271 O2251 1.249 . S
C2271 C2264 1.492 . S
H2272 C2255 0.930 . S
H2273 C2256 0.930 . S
H2274 C2257 0.930 . S
H2275 C2258 0.930 . S
H2276 C2265 0.930 . S
H2277 C2267 0.930 . S
H2278 C2268 0.930 . S
H2279 C2269 0.930 . S
Eu2280 N2311 2.657 . S
Eu2280 N2318 2.609 . S
Eu2280 O2324 2.558 . S
Eu2280 O2325 2.612 . S
Eu2280 O2327 2.339 . S
Eu2280 O2328 2.563 . S
Eu2280 O2329 2.419 . S
Eu2280 O2331 2.380 . S
Eu2280 O2332 2.432 . S
Eu2280 C2344 2.848 . S
C2281 C2284 1.429 1_545 S
C2281 C2285 1.411 1_545 S
C2281 N2288 1.377 . S
C2282 C2284 1.420 . S
C2282 C2286 1.423 . S
C2282 C2294 1.392 . S
C2283 C2285 1.420 . S
C2283 C2286 1.351 . S
C2283 H2306 0.931 . S
C2284 C2281 1.429 1_565 S
C2284 C2282 1.420 . S
C2284 N2292 1.362 1_565 S
C2285 C2281 1.411 1_565 S
C2285 C2283 1.420 . S
C2285 C2290 1.395 . S
C2286 C2282 1.423 . S
C2286 C2283 1.351 . S
C2286 H2298 0.930 . S
C2287 C2289 1.400 . S
C2287 C2290 1.386 1_545 S
C2287 H2299 0.930 . S
N2288 C2281 1.377 . S
N2288 C2289 1.321 . S
N2288 Eu2291 2.609 . S
C2289 C2287 1.400 . S
C2289 N2288 1.321 . S
C2289 H2296 0.930 . S
C2290 C2285 1.395 . S
C2290 C2287 1.386 1_565 S
C2290 H2309 0.930 . S
Eu2291 N2288 2.609 . S
Eu2291 N2292 2.657 . S
Eu2291 O2325 2.380 . S
Eu2291 O2326 2.432 . S
Eu2291 O2330 2.558 . S
Eu2291 O2331 2.612 . S
Eu2291 O2333 2.339 . S
Eu2291 O2334 2.563 . S
Eu2291 O2335 2.419 . S
Eu2291 C2355 2.848 . S
N2292 C2284 1.362 1_545 S
N2292 Eu2291 2.657 . S
N2292 C2293 1.334 . S
C2293 N2292 1.334 . S
C2293 C2295 1.413 1_545 S
C2293 H2300 0.929 . S
C2294 C2282 1.392 . S
C2294 C2295 1.367 . S
C2294 H2302 0.930 . S
C2295 C2293 1.413 1_565 S
C2295 C2294 1.367 . S
C2295 H2297 0.930 . S
H2296 C2289 0.930 . S
H2297 C2295 0.930 . S
H2298 C2286 0.930 . S
H2299 C2287 0.930 . S
H2300 C2293 0.929 . S
H2301 C2315 0.930 . S
H2302 C2294 0.930 . S
H2303 C2321 0.930 . S
H2304 C2312 0.929 . S
H2305 C2319 0.930 . S
H2306 C2283 0.931 . S
H2307 C2313 0.930 . S
H2308 C2346 0.930 . S
H2309 C2290 0.930 . S
H2310 C2345 0.931 . S
N2311 Eu2280 2.657 . S
N2311 C2312 1.334 . S
N2311 C2316 1.362 . S
C2312 H2304 0.929 . S
C2312 N2311 1.334 . S
C2312 C2315 1.413 . S
C2313 H2307 0.930 . S
C2313 C2314 1.392 . S
C2313 C2315 1.367 . S
C2314 C2313 1.392 . S
C2314 C2316 1.420 . S
C2314 C2346 1.423 . S
C2315 H2301 0.930 . S
C2315 C2312 1.413 . S
C2315 C2313 1.367 . S
C2316 N2311 1.362 . S
C2316 C2314 1.420 . S
C2316 C2320 1.429 . S
H2317 C2322 0.930 . S
N2318 Eu2280 2.609 . S
N2318 C2320 1.377 . S
N2318 C2321 1.321 . S
C2319 H2305 0.930 . S
C2319 C2321 1.400 . S
C2319 C2322 1.386 . S
C2320 C2316 1.429 . S
C2320 N2318 1.377 . S
C2320 C2323 1.411 . S
C2321 H2303 0.930 . S
C2321 N2318 1.321 . S
C2321 C2319 1.400 . S
C2322 H2317 0.930 . S
C2322 C2319 1.386 . S
C2322 C2323 1.395 . S
C2323 C2320 1.411 . S
C2323 C2322 1.395 . S
C2323 C2345 1.420 . S
O2324 Eu2280 2.558 . S
O2324 C2344 1.257 . S
O2325 Eu2280 2.612 . S
O2325 Eu2291 2.380 . S
O2325 C2336 1.276 . S
O2326 Eu2291 2.432 . S
O2326 C2343 1.264 . S
O2327 Eu2280 2.339 . S
O2327 C2343 1.254 . S
O2328 Eu2280 2.563 . S
O2328 C2336 1.235 . S
O2329 Eu2280 2.419 . S
O2329 C2344 1.249 . S
O2330 Eu2291 2.558 . S
O2330 C2355 1.257 . S
O2331 Eu2280 2.380 . S
O2331 Eu2291 2.612 . S
O2331 C2347 1.276 . S
O2332 Eu2280 2.432 . S
O2332 C2354 1.264 . S
O2333 Eu2291 2.339 . S
O2333 C2354 1.254 . S
O2334 Eu2291 2.563 . S
O2334 C2347 1.235 . S
O2335 Eu2291 2.419 . S
O2335 C2355 1.249 . S
C2336 O2325 1.276 . S
C2336 O2328 1.235 . S
C2337 C2339 1.393 . S
C2337 C2341 1.395 . S
C2337 C2344 1.492 . S
C2338 C2339 1.392 . S
C2338 C2340 1.386 . S
C2339 C2337 1.393 . S
C2339 C2338 1.392 . S
C2339 H2356 0.930 . S
C2340 C2338 1.386 . S
C2340 C2342 1.395 . S
C2340 H2357 0.930 1_545 S
C2341 C2337 1.395 . S
C2341 C2342 1.379 . S
C2341 H2358 0.930 . S
C2342 C2340 1.395 . S
C2342 C2341 1.379 . S
C2342 H2359 0.930 . S
C2343 O2326 1.264 . S
C2343 O2327 1.254 . S
C2344 Eu2280 2.848 . S
C2344 O2324 1.257 . S
C2344 O2329 1.249 . S
C2344 C2337 1.492 . S
C2345 H2310 0.931 . S
C2345 C2323 1.420 . S
C2345 C2346 1.351 . S
C2346 H2308 0.930 . S
C2346 C2314 1.423 . S
C2346 C2345 1.351 . S
C2347 O2331 1.276 . S
C2347 O2334 1.235 . S
C2348 C2349 1.393 . S
C2348 C2352 1.395 . S
C2348 C2355 1.492 . S
C2349 C2348 1.393 . S
C2349 C2350 1.392 . S
C2349 H2360 0.930 . S
C2350 C2349 1.392 . S
C2350 C2351 1.386 . S
C2351 C2350 1.386 . S
C2351 C2353 1.395 . S
C2351 H2361 0.930 . S
C2352 C2348 1.395 . S
C2352 C2353 1.379 . S
C2352 H2362 0.930 . S
C2353 C2351 1.395 . S
C2353 C2352 1.379 . S
C2353 H2363 0.930 . S
C2354 O2332 1.264 . S
C2354 O2333 1.254 . S
C2355 Eu2291 2.848 . S
C2355 O2330 1.257 . S
C2355 O2335 1.249 . S
C2355 C2348 1.492 . S
H2356 C2339 0.930 . S
H2357 C2340 0.930 1_565 S
H2358 C2341 0.930 . S
H2359 C2342 0.930 . S
H2360 C2349 0.930 . S
H2361 C2351 0.930 . S
H2362 C2352 0.930 . S
H2363 C2353 0.930 . S
Eu2364 N2395 2.657 . S
Eu2364 N2402 2.609 . S
Eu2364 O2408 2.558 . S
Eu2364 O2409 2.612 . S
Eu2364 O2411 2.339 . S
Eu2364 O2412 2.563 . S
Eu2364 O2413 2.419 . S
Eu2364 O2415 2.380 . S
Eu2364 O2416 2.432 . S
Eu2364 C2428 2.848 . S
C2365 C2368 1.429 . S
C2365 C2369 1.411 . S
C2365 N2372 1.377 . S
C2366 C2368 1.420 . S
C2366 C2370 1.423 . S
C2366 C2378 1.392 . S
C2367 C2369 1.420 . S
C2367 C2370 1.351 . S
C2367 H2390 0.931 . S
C2368 C2365 1.429 . S
C2368 C2366 1.420 . S
C2368 N2376 1.362 . S
C2369 C2365 1.411 . S
C2369 C2367 1.420 . S
C2369 C2374 1.395 . S
C2370 C2366 1.423 . S
C2370 C2367 1.351 . S
C2370 H2382 0.930 . S
C2371 C2373 1.400 . S
C2371 C2374 1.386 . S
C2371 H2383 0.930 . S
N2372 C2365 1.377 . S
N2372 C2373 1.321 . S
N2372 Eu2375 2.609 . S
C2373 C2371 1.400 . S
C2373 N2372 1.321 . S
C2373 H2380 0.930 . S
C2374 C2369 1.395 . S
C2374 C2371 1.386 . S
C2374 H2393 0.930 . S
Eu2375 N2372 2.609 . S
Eu2375 N2376 2.657 . S
Eu2375 O2409 2.380 . S
Eu2375 O2410 2.432 . S
Eu2375 O2414 2.558 . S
Eu2375 O2415 2.612 . S
Eu2375 O2417 2.339 . S
Eu2375 O2418 2.563 . S
Eu2375 O2419 2.419 . S
Eu2375 C2439 2.848 . S
N2376 C2368 1.362 . S
N2376 Eu2375 2.657 . S
N2376 C2377 1.334 . S
C2377 N2376 1.334 . S
C2377 C2379 1.413 . S
C2377 H2384 0.929 . S
C2378 C2366 1.392 . S
C2378 C2379 1.367 . S
C2378 H2386 0.930 . S
C2379 C2377 1.413 . S
C2379 C2378 1.367 . S
C2379 H2381 0.930 . S
H2380 C2373 0.930 . S
H2381 C2379 0.930 . S
H2382 C2370 0.930 . S
H2383 C2371 0.930 . S
H2384 C2377 0.929 . S
H2385 C2399 0.930 . S
H2386 C2378 0.930 . S
H2387 C2405 0.930 . S
H2388 C2396 0.929 . S
H2389 C2403 0.930 . S
H2390 C2367 0.931 . S
H2391 C2397 0.930 . S
H2392 C2430 0.930 . S
H2393 C2374 0.930 . S
H2394 C2429 0.931 . S
N2395 Eu2364 2.657 . S
N2395 C2396 1.334 . S
N2395 C2400 1.362 . S
C2396 H2388 0.929 . S
C2396 N2395 1.334 . S
C2396 C2399 1.413 . S
C2397 H2391 0.930 . S
C2397 C2398 1.392 . S
C2397 C2399 1.367 . S
C2398 C2397 1.392 . S
C2398 C2400 1.420 . S
C2398 C2430 1.423 . S
C2399 H2385 0.930 . S
C2399 C2396 1.413 . S
C2399 C2397 1.367 . S
C2400 N2395 1.362 . S
C2400 C2398 1.420 . S
C2400 C2404 1.429 . S
H2401 C2406 0.930 . S
N2402 Eu2364 2.609 . S
N2402 C2404 1.377 . S
N2402 C2405 1.321 . S
C2403 H2389 0.930 . S
C2403 C2405 1.400 . S
C2403 C2406 1.386 . S
C2404 C2400 1.429 . S
C2404 N2402 1.377 . S
C2404 C2407 1.411 . S
C2405 H2387 0.930 . S
C2405 N2402 1.321 . S
C2405 C2403 1.400 . S
C2406 H2401 0.930 . S
C2406 C2403 1.386 . S
C2406 C2407 1.395 . S
C2407 C2404 1.411 . S
C2407 C2406 1.395 . S
C2407 C2429 1.420 . S
O2408 Eu2364 2.558 . S
O2408 C2428 1.257 . S
O2409 Eu2364 2.612 . S
O2409 Eu2375 2.380 . S
O2409 C2420 1.276 . S
O2410 Eu2375 2.432 . S
O2410 C2427 1.264 . S
O2411 Eu2364 2.339 . S
O2411 C2427 1.254 . S
O2412 Eu2364 2.563 . S
O2412 C2420 1.235 . S
O2413 Eu2364 2.419 . S
O2413 C2428 1.249 . S
O2414 Eu2375 2.558 . S
O2414 C2439 1.257 . S
O2415 Eu2364 2.380 . S
O2415 Eu2375 2.612 . S
O2415 C2431 1.276 . S
O2416 Eu2364 2.432 . S
O2416 C2438 1.264 . S
O2417 Eu2375 2.339 . S
O2417 C2438 1.254 . S
O2418 Eu2375 2.563 . S
O2418 C2431 1.235 . S
O2419 Eu2375 2.419 . S
O2419 C2439 1.249 . S
C2420 O2409 1.276 . S
C2420 O2412 1.235 . S
C2421 C2423 1.393 . S
C2421 C2425 1.395 . S
C2421 C2428 1.492 . S
C2422 C2423 1.392 . S
C2422 C2424 1.386 . S
C2423 C2421 1.393 . S
C2423 C2422 1.392 . S
C2423 H2440 0.930 . S
C2424 C2422 1.386 . S
C2424 C2426 1.395 . S
C2424 H2441 0.930 . S
C2425 C2421 1.395 . S
C2425 C2426 1.379 . S
C2425 H2442 0.930 . S
C2426 C2424 1.395 . S
C2426 C2425 1.379 . S
C2426 H2443 0.930 . S
C2427 O2410 1.264 . S
C2427 O2411 1.254 . S
C2428 Eu2364 2.848 . S
C2428 O2408 1.257 . S
C2428 O2413 1.249 . S
C2428 C2421 1.492 . S
C2429 H2394 0.931 . S
C2429 C2407 1.420 . S
C2429 C2430 1.351 . S
C2430 H2392 0.930 . S
C2430 C2398 1.423 . S
C2430 C2429 1.351 . S
C2431 O2415 1.276 . S
C2431 O2418 1.235 . S
C2432 C2433 1.393 . S
C2432 C2436 1.395 . S
C2432 C2439 1.492 . S
C2433 C2432 1.393 . S
C2433 C2434 1.392 . S
C2433 H2444 0.930 . S
C2434 C2433 1.392 . S
C2434 C2435 1.386 . S
C2435 C2434 1.386 . S
C2435 C2437 1.395 . S
C2435 H2445 0.930 . S
C2436 C2432 1.395 . S
C2436 C2437 1.379 . S
C2436 H2446 0.930 . S
C2437 C2435 1.395 . S
C2437 C2436 1.379 . S
C2437 H2447 0.930 . S
C2438 O2416 1.264 . S
C2438 O2417 1.254 . S
C2439 Eu2375 2.848 . S
C2439 O2414 1.257 . S
C2439 O2419 1.249 . S
C2439 C2432 1.492 . S
H2440 C2423 0.930 . S
H2441 C2424 0.930 . S
H2442 C2425 0.930 . S
H2443 C2426 0.930 . S
H2444 C2433 0.930 . S
H2445 C2435 0.930 . S
H2446 C2436 0.930 . S
H2447 C2437 0.930 . S
Eu2448 N2479 2.657 . S
Eu2448 N2486 2.609 . S
Eu2448 O2492 2.558 . S
Eu2448 O2493 2.612 . S
Eu2448 O2495 2.339 . S
Eu2448 O2496 2.563 . S
Eu2448 O2497 2.419 . S
Eu2448 O2499 2.380 . S
Eu2448 O2500 2.432 . S
Eu2448 C2512 2.848 . S
C2449 C2452 1.429 . S
C2449 C2453 1.411 . S
C2449 N2456 1.377 1_565 S
C2450 C2452 1.420 . S
C2450 C2454 1.423 . S
C2450 C2462 1.392 . S
C2451 C2453 1.420 . S
C2451 C2454 1.351 . S
C2451 H2474 0.931 . S
C2452 C2449 1.429 . S
C2452 C2450 1.420 . S
C2452 N2460 1.356 1_565 S
C2453 C2449 1.411 . S
C2453 C2451 1.420 . S
C2453 C2458 1.395 . S
C2454 C2450 1.423 . S
C2454 C2451 1.351 . S
C2454 H2466 0.930 . S
C2455 C2457 1.399 . S
C2455 C2458 1.386 1_545 S
C2455 H2467 0.930 . S
N2456 C2449 1.377 1_545 S
N2456 C2457 1.321 . S
N2456 Eu2459 2.609 . S
C2457 C2455 1.399 . S
C2457 N2456 1.321 . S
C2457 H2464 0.930 . S
C2458 C2453 1.395 . S
C2458 C2455 1.386 1_565 S
C2458 H2477 0.930 . S
Eu2459 N2456 2.609 . S
Eu2459 N2460 2.660 . S
Eu2459 O2493 2.380 . S
Eu2459 O2494 2.432 . S
Eu2459 O2498 2.558 1_545 S
Eu2459 O2499 2.612 . S
Eu2459 O2501 2.339 . S
Eu2459 O2502 2.563 . S
Eu2459 O2503 2.419 1_545 S
Eu2459 C2523 2.848 1_545 S
N2460 C2452 1.356 1_545 S
N2460 Eu2459 2.660 . S
N2460 C2461 1.336 1_545 S
C2461 N2460 1.336 1_565 S
C2461 C2463 1.413 . S
C2461 H2468 0.929 1_565 S
C2462 C2450 1.392 . S
C2462 C2463 1.367 . S
C2462 H2470 0.930 . S
C2463 C2461 1.413 . S
C2463 C2462 1.367 . S
C2463 H2465 0.930 1_455 S
H2464 C2457 0.930 . S
H2465 C2463 0.930 1_655 S
H2466 C2454 0.930 . S
H2467 C2455 0.930 . S
H2468 C2461 0.929 1_545 S
H2469 C2483 0.930 . S
H2470 C2462 0.930 . S
H2471 C2489 0.930 . S
H2472 C2480 0.929 . S
H2473 C2487 0.930 1_655 S
H2474 C2451 0.931 . S
H2475 C2481 0.930 . S
H2476 C2514 0.930 . S
H2477 C2458 0.930 . S
H2478 C2513 0.931 . S
N2479 Eu2448 2.657 . S
N2479 C2480 1.334 . S
N2479 C2484 1.362 . S
C2480 H2472 0.929 . S
C2480 N2479 1.334 . S
C2480 C2483 1.413 . S
C2481 H2475 0.930 . S
C2481 C2482 1.392 . S
C2481 C2483 1.367 . S
C2482 C2481 1.392 . S
C2482 C2484 1.420 . S
C2482 C2514 1.423 . S
C2483 H2469 0.930 . S
C2483 C2480 1.413 . S
C2483 C2481 1.367 . S
C2484 N2479 1.362 . S
C2484 C2482 1.420 . S
C2484 C2488 1.429 . S
H2485 C2490 0.930 . S
N2486 Eu2448 2.609 . S
N2486 C2488 1.377 . S
N2486 C2489 1.321 . S
C2487 H2473 0.930 1_455 S
C2487 C2489 1.400 . S
C2487 C2490 1.386 . S
C2488 C2484 1.429 . S
C2488 N2486 1.377 . S
C2488 C2491 1.411 . S
C2489 H2471 0.930 . S
C2489 N2486 1.321 . S
C2489 C2487 1.400 . S
C2490 H2485 0.930 . S
C2490 C2487 1.386 . S
C2490 C2491 1.395 . S
C2491 C2488 1.411 . S
C2491 C2490 1.395 . S
C2491 C2513 1.420 . S
O2492 Eu2448 2.558 . S
O2492 C2512 1.257 . S
O2493 Eu2448 2.612 . S
O2493 Eu2459 2.380 . S
O2493 C2504 1.276 . S
O2494 Eu2459 2.432 . S
O2494 C2511 1.264 . S
O2495 Eu2448 2.339 . S
O2495 C2511 1.254 . S
O2496 Eu2448 2.563 . S
O2496 C2504 1.235 . S
O2497 Eu2448 2.419 . S
O2497 C2512 1.249 . S
O2498 Eu2459 2.558 1_565 S
O2498 C2523 1.257 . S
O2499 Eu2448 2.380 . S
O2499 Eu2459 2.612 . S
O2499 C2515 1.276 . S
O2500 Eu2448 2.432 . S
O2500 C2522 1.264 . S
O2501 Eu2459 2.339 . S
O2501 C2522 1.254 . S
O2502 Eu2459 2.563 . S
O2502 C2515 1.235 . S
O2503 Eu2459 2.419 1_565 S
O2503 C2523 1.249 . S
C2504 O2493 1.276 . S
C2504 O2496 1.235 . S
C2505 C2507 1.393 . S
C2505 C2509 1.395 . S
C2505 C2512 1.492 . S
C2506 C2507 1.392 . S
C2506 C2508 1.386 . S
C2507 C2505 1.393 . S
C2507 C2506 1.392 . S
C2507 H2524 0.930 . S
C2508 C2506 1.386 . S
C2508 C2510 1.395 . S
C2508 H2525 0.930 . S
C2509 C2505 1.395 . S
C2509 C2510 1.379 . S
C2509 H2526 0.930 . S
C2510 C2508 1.395 . S
C2510 C2509 1.379 . S
C2510 H2527 0.930 . S
C2511 O2494 1.264 . S
C2511 O2495 1.254 . S
C2512 Eu2448 2.848 . S
C2512 O2492 1.257 . S
C2512 O2497 1.249 . S
C2512 C2505 1.492 . S
C2513 H2478 0.931 . S
C2513 C2491 1.420 . S
C2513 C2514 1.351 . S
C2514 H2476 0.930 . S
C2514 C2482 1.423 . S
C2514 C2513 1.351 . S
C2515 O2499 1.276 . S
C2515 O2502 1.235 . S
C2516 C2517 1.393 . S
C2516 C2520 1.395 . S
C2516 C2523 1.492 . S
C2517 C2516 1.393 . S
C2517 C2518 1.392 . S
C2517 H2528 0.930 . S
C2518 C2517 1.392 . S
C2518 C2519 1.386 . S
C2519 C2518 1.386 . S
C2519 C2521 1.395 . S
C2519 H2529 0.930 . S
C2520 C2516 1.395 . S
C2520 C2521 1.379 . S
C2520 H2530 0.930 . S
C2521 C2519 1.395 . S
C2521 C2520 1.379 . S
C2521 H2531 0.930 . S
C2522 O2500 1.264 . S
C2522 O2501 1.254 . S
C2523 Eu2459 2.848 1_565 S
C2523 O2498 1.257 . S
C2523 O2503 1.249 . S
C2523 C2516 1.492 . S
H2524 C2507 0.930 . S
H2525 C2508 0.930 . S
H2526 C2509 0.930 . S
H2527 C2510 0.930 . S
H2528 C2517 0.930 . S
H2529 C2519 0.930 . S
H2530 C2520 0.930 . S
H2531 C2521 0.930 . S
Eu2532 N2563 2.657 . S
Eu2532 N2570 2.609 . S
Eu2532 O2576 2.558 . S
Eu2532 O2577 2.612 . S
Eu2532 O2579 2.339 . S
Eu2532 O2580 2.563 . S
Eu2532 O2581 2.419 . S
Eu2532 O2583 2.380 . S
Eu2532 O2584 2.432 . S
Eu2532 C2596 2.848 . S
C2533 C2536 1.429 . S
C2533 C2537 1.411 . S
C2533 N2540 1.377 . S
C2534 C2536 1.420 . S
C2534 C2538 1.423 . S
C2534 C2546 1.392 . S
C2535 C2537 1.420 . S
C2535 C2538 1.351 . S
C2535 H2558 0.931 . S
C2536 C2533 1.429 . S
C2536 C2534 1.420 . S
C2536 N2544 1.362 . S
C2537 C2533 1.411 . S
C2537 C2535 1.420 . S
C2537 C2542 1.395 . S
C2538 C2534 1.423 . S
C2538 C2535 1.351 . S
C2538 H2550 0.930 . S
C2539 C2541 1.400 . S
C2539 C2542 1.386 . S
C2539 H2551 0.930 . S
N2540 C2533 1.377 . S
N2540 C2541 1.321 . S
N2540 Eu2543 2.609 . S
C2541 C2539 1.400 . S
C2541 N2540 1.321 . S
C2541 H2548 0.930 . S
C2542 C2537 1.395 . S
C2542 C2539 1.386 . S
C2542 H2561 0.930 . S
Eu2543 N2540 2.609 . S
Eu2543 N2544 2.657 . S
Eu2543 O2577 2.380 . S
Eu2543 O2578 2.432 . S
Eu2543 O2582 2.558 . S
Eu2543 O2583 2.612 . S
Eu2543 O2585 2.339 . S
Eu2543 O2586 2.563 . S
Eu2543 O2587 2.419 . S
Eu2543 C2607 2.848 . S
N2544 C2536 1.362 . S
N2544 Eu2543 2.657 . S
N2544 C2545 1.334 . S
C2545 N2544 1.334 . S
C2545 C2547 1.413 . S
C2545 H2552 0.929 . S
C2546 C2534 1.392 . S
C2546 C2547 1.367 . S
C2546 H2554 0.930 . S
C2547 C2545 1.413 . S
C2547 C2546 1.367 . S
C2547 H2549 0.930 . S
H2548 C2541 0.930 . S
H2549 C2547 0.930 . S
H2550 C2538 0.930 . S
H2551 C2539 0.930 . S
H2552 C2545 0.929 . S
H2553 C2567 0.930 . S
H2554 C2546 0.930 . S
H2555 C2573 0.930 . S
H2556 C2564 0.929 . S
H2557 C2571 0.930 . S
H2558 C2535 0.931 . S
H2559 C2565 0.930 . S
H2560 C2598 0.930 . S
H2561 C2542 0.930 . S
H2562 C2597 0.931 . S
N2563 Eu2532 2.657 . S
N2563 C2564 1.334 . S
N2563 C2568 1.362 . S
C2564 H2556 0.929 . S
C2564 N2563 1.334 . S
C2564 C2567 1.413 . S
C2565 H2559 0.930 . S
C2565 C2566 1.392 . S
C2565 C2567 1.367 . S
C2566 C2565 1.392 . S
C2566 C2568 1.420 . S
C2566 C2598 1.423 . S
C2567 H2553 0.930 . S
C2567 C2564 1.413 . S
C2567 C2565 1.367 . S
C2568 N2563 1.362 . S
C2568 C2566 1.420 . S
C2568 C2572 1.429 . S
H2569 C2574 0.930 . S
N2570 Eu2532 2.609 . S
N2570 C2572 1.377 . S
N2570 C2573 1.321 . S
C2571 H2557 0.930 . S
C2571 C2573 1.400 . S
C2571 C2574 1.386 . S
C2572 C2568 1.429 . S
C2572 N2570 1.377 . S
C2572 C2575 1.411 . S
C2573 H2555 0.930 . S
C2573 N2570 1.321 . S
C2573 C2571 1.400 . S
C2574 H2569 0.930 . S
C2574 C2571 1.386 . S
C2574 C2575 1.395 . S
C2575 C2572 1.411 . S
C2575 C2574 1.395 . S
C2575 C2597 1.420 . S
O2576 Eu2532 2.558 . S
O2576 C2596 1.257 . S
O2577 Eu2532 2.612 . S
O2577 Eu2543 2.380 . S
O2577 C2588 1.276 . S
O2578 Eu2543 2.432 . S
O2578 C2595 1.264 . S
O2579 Eu2532 2.339 . S
O2579 C2595 1.254 . S
O2580 Eu2532 2.563 . S
O2580 C2588 1.235 . S
O2581 Eu2532 2.419 . S
O2581 C2596 1.249 . S
O2582 Eu2543 2.558 . S
O2582 C2607 1.257 . S
O2583 Eu2532 2.380 . S
O2583 Eu2543 2.612 . S
O2583 C2599 1.276 . S
O2584 Eu2532 2.432 . S
O2584 C2606 1.264 . S
O2585 Eu2543 2.339 . S
O2585 C2606 1.254 . S
O2586 Eu2543 2.563 . S
O2586 C2599 1.235 . S
O2587 Eu2543 2.419 . S
O2587 C2607 1.249 . S
C2588 O2577 1.276 . S
C2588 O2580 1.235 . S
C2589 C2591 1.393 . S
C2589 C2593 1.395 . S
C2589 C2596 1.492 . S
C2590 C2591 1.392 . S
C2590 C2592 1.386 . S
C2591 C2589 1.393 . S
C2591 C2590 1.392 . S
C2591 H2608 0.930 . S
C2592 C2590 1.386 . S
C2592 C2594 1.395 . S
C2592 H2609 0.930 . S
C2593 C2589 1.395 . S
C2593 C2594 1.379 . S
C2593 H2610 0.930 . S
C2594 C2592 1.395 . S
C2594 C2593 1.379 . S
C2594 H2611 0.930 . S
C2595 O2578 1.264 . S
C2595 O2579 1.254 . S
C2596 Eu2532 2.848 . S
C2596 O2576 1.257 . S
C2596 O2581 1.249 . S
C2596 C2589 1.492 . S
C2597 H2562 0.931 . S
C2597 C2575 1.420 . S
C2597 C2598 1.351 . S
C2598 H2560 0.930 . S
C2598 C2566 1.423 . S
C2598 C2597 1.351 . S
C2599 O2583 1.276 . S
C2599 O2586 1.235 . S
C2600 C2601 1.393 . S
C2600 C2604 1.395 . S
C2600 C2607 1.492 . S
C2601 C2600 1.393 . S
C2601 C2602 1.392 . S
C2601 H2612 0.930 . S
C2602 C2601 1.392 . S
C2602 C2603 1.386 . S
C2603 C2602 1.386 . S
C2603 C2605 1.395 . S
C2603 H2613 0.930 . S
C2604 C2600 1.395 . S
C2604 C2605 1.379 . S
C2604 H2614 0.930 . S
C2605 C2603 1.395 . S
C2605 C2604 1.379 . S
C2605 H2615 0.930 . S
C2606 O2584 1.264 . S
C2606 O2585 1.254 . S
C2607 Eu2543 2.848 . S
C2607 O2582 1.257 . S
C2607 O2587 1.249 . S
C2607 C2600 1.492 . S
H2608 C2591 0.930 . S
H2609 C2592 0.930 . S
H2610 C2593 0.930 . S
H2611 C2594 0.930 . S
H2612 C2601 0.930 . S
H2613 C2603 0.930 . S
H2614 C2604 0.930 . S
H2615 C2605 0.930 . S
Eu2616 N2647 2.657 . S
Eu2616 N2654 2.609 . S
Eu2616 O2660 2.558 . S
Eu2616 O2661 2.612 . S
Eu2616 O2663 2.339 . S
Eu2616 O2664 2.563 . S
Eu2616 O2665 2.419 . S
Eu2616 O2667 2.380 . S
Eu2616 O2668 2.432 . S
Eu2616 C2680 2.848 . S
C2617 C2620 1.429 . S
C2617 C2621 1.411 . S
C2617 N2624 1.377 . S
C2618 C2620 1.420 . S
C2618 C2622 1.423 . S
C2618 C2630 1.392 . S
C2619 C2621 1.420 . S
C2619 C2622 1.351 . S
C2619 H2642 0.931 . S
C2620 C2617 1.429 . S
C2620 C2618 1.420 . S
C2620 N2628 1.362 . S
C2621 C2617 1.411 . S
C2621 C2619 1.420 . S
C2621 C2626 1.395 . S
C2622 C2618 1.423 . S
C2622 C2619 1.351 . S
C2622 H2634 0.930 . S
C2623 C2625 1.400 . S
C2623 C2626 1.386 . S
C2623 H2635 0.930 . S
N2624 C2617 1.377 . S
N2624 C2625 1.321 . S
N2624 Eu2627 2.609 . S
C2625 C2623 1.400 . S
C2625 N2624 1.321 . S
C2625 H2632 0.930 . S
C2626 C2621 1.395 . S
C2626 C2623 1.386 . S
C2626 H2645 0.930 . S
Eu2627 N2624 2.609 . S
Eu2627 N2628 2.657 . S
Eu2627 O2661 2.380 1_556 S
Eu2627 O2662 2.432 1_556 S
Eu2627 O2666 2.558 . S
Eu2627 O2667 2.612 1_556 S
Eu2627 O2669 2.339 . S
Eu2627 O2670 2.563 1_556 S
Eu2627 O2671 2.419 . S
Eu2627 C2691 2.848 . S
N2628 C2620 1.362 . S
N2628 Eu2627 2.657 . S
N2628 C2629 1.334 . S
C2629 N2628 1.334 . S
C2629 C2631 1.413 1_545 S
C2629 H2636 0.929 . S
C2630 C2618 1.392 . S
C2630 C2631 1.367 1_545 S
C2630 H2638 0.930 1_545 S
C2631 C2629 1.413 1_565 S
C2631 C2630 1.367 1_565 S
C2631 H2633 0.930 . S
H2632 C2625 0.930 . S
H2633 C2631 0.930 . S
H2634 C2622 0.930 . S
H2635 C2623 0.930 . S
H2636 C2629 0.929 . S
H2637 C2651 0.930 . S
H2638 C2630 0.930 1_565 S
H2639 C2657 0.930 1_565 S
H2640 C2648 0.929 . S
H2641 C2655 0.930 . S
H2642 C2619 0.931 . S
H2643 C2649 0.930 . S
H2644 C2682 0.930 . S
H2645 C2626 0.930 . S
H2646 C2681 0.931 . S
N2647 Eu2616 2.657 . S
N2647 C2648 1.334 . S
N2647 C2652 1.362 . S
C2648 H2640 0.929 . S
C2648 N2647 1.334 . S
C2648 C2651 1.413 . S
C2649 H2643 0.930 . S
C2649 C2650 1.392 . S
C2649 C2651 1.367 . S
C2650 C2649 1.392 . S
C2650 C2652 1.420 . S
C2650 C2682 1.423 . S
C2651 H2637 0.930 . S
C2651 C2648 1.413 . S
C2651 C2649 1.367 . S
C2652 N2647 1.362 . S
C2652 C2650 1.420 . S
C2652 C2656 1.429 . S
H2653 C2658 0.930 1_565 S
N2654 Eu2616 2.609 . S
N2654 C2656 1.377 . S
N2654 C2657 1.321 . S
C2655 H2641 0.930 . S
C2655 C2657 1.400 1_565 S
C2655 C2658 1.386 1_565 S
C2656 C2652 1.429 . S
C2656 N2654 1.377 . S
C2656 C2659 1.411 . S
C2657 H2639 0.930 1_545 S
C2657 N2654 1.321 . S
C2657 C2655 1.400 1_545 S
C2658 H2653 0.930 1_545 S
C2658 C2655 1.386 1_545 S
C2658 C2659 1.395 . S
C2659 C2656 1.411 . S
C2659 C2658 1.395 . S
C2659 C2681 1.420 . S
O2660 Eu2616 2.558 . S
O2660 C2680 1.257 . S
O2661 Eu2616 2.612 . S
O2661 Eu2627 2.380 1_554 S
O2661 C2672 1.276 . S
O2662 Eu2627 2.432 1_554 S
O2662 C2679 1.264 . S
O2663 Eu2616 2.339 . S
O2663 C2679 1.254 . S
O2664 Eu2616 2.563 . S
O2664 C2672 1.235 . S
O2665 Eu2616 2.419 . S
O2665 C2680 1.249 . S
O2666 Eu2627 2.558 . S
O2666 C2691 1.257 . S
O2667 Eu2616 2.380 . S
O2667 Eu2627 2.612 1_554 S
O2667 C2683 1.276 . S
O2668 Eu2616 2.432 . S
O2668 C2690 1.264 . S
O2669 Eu2627 2.339 . S
O2669 C2690 1.254 1_556 S
O2670 Eu2627 2.563 1_554 S
O2670 C2683 1.235 . S
O2671 Eu2627 2.419 . S
O2671 C2691 1.249 . S
C2672 O2661 1.276 . S
C2672 O2664 1.235 . S
C2673 C2675 1.393 . S
C2673 C2677 1.395 . S
C2673 C2680 1.492 . S
C2674 C2675 1.392 . S
C2674 C2676 1.386 . S
C2675 C2673 1.393 . S
C2675 C2674 1.392 . S
C2675 H2692 0.930 . S
C2676 C2674 1.386 . S
C2676 C2678 1.440 . S
C2676 H2693 0.930 . S
C2677 C2673 1.395 . S
C2677 C2678 1.398 . S
C2677 H2694 0.930 1_545 S
C2678 C2676 1.440 . S
C2678 C2677 1.398 . S
C2678 H2695 0.867 1_545 S
C2679 O2662 1.264 . S
C2679 O2663 1.254 . S
C2680 Eu2616 2.848 . S
C2680 O2660 1.257 . S
C2680 O2665 1.249 . S
C2680 C2673 1.492 . S
C2681 H2646 0.931 . S
C2681 C2659 1.420 . S
C2681 C2682 1.351 . S
C2682 H2644 0.930 . S
C2682 C2650 1.423 . S
C2682 C2681 1.351 . S
C2683 O2667 1.276 . S
C2683 O2670 1.235 . S
C2684 C2685 1.393 . S
C2684 C2688 1.395 . S
C2684 C2691 1.492 . S
C2685 C2684 1.393 . S
C2685 C2686 1.392 . S
C2685 H2696 0.930 . S
C2686 C2685 1.392 . S
C2686 C2687 1.386 . S
C2687 C2686 1.386 . S
C2687 C2689 1.395 . S
C2687 H2697 0.930 . S
C2688 C2684 1.395 . S
C2688 C2689 1.379 . S
C2688 H2698 0.930 . S
C2689 C2687 1.395 . S
C2689 C2688 1.379 . S
C2689 H2699 0.930 . S
C2690 O2668 1.264 . S
C2690 O2669 1.254 1_554 S
C2691 Eu2627 2.848 . S
C2691 O2666 1.257 . S
C2691 O2671 1.249 . S
C2691 C2684 1.492 . S
H2692 C2675 0.930 . S
H2693 C2676 0.930 . S
H2694 C2677 0.930 1_565 S
H2695 C2678 0.867 1_565 S
H2696 C2685 0.930 . S
H2697 C2687 0.930 . S
H2698 C2688 0.930 . S
H2699 C2689 0.930 . S
Eu2700 N2731 2.657 . S
Eu2700 N2738 2.609 . S
Eu2700 O2744 2.558 . S
Eu2700 O2745 2.612 . S
Eu2700 O2747 2.339 . S
Eu2700 O2748 2.563 . S
Eu2700 O2749 2.419 . S
Eu2700 O2751 2.380 . S
Eu2700 O2752 2.432 . S
Eu2700 C2764 2.848 . S
C2701 C2704 1.429 . S
C2701 C2705 1.411 . S
C2701 N2708 1.377 . S
C2702 C2704 1.420 . S
C2702 C2706 1.423 . S
C2702 C2714 1.392 . S
C2703 C2705 1.420 . S
C2703 C2706 1.351 . S
C2703 H2726 0.931 . S
C2704 C2701 1.429 . S
C2704 C2702 1.420 . S
C2704 N2712 1.362 . S
C2705 C2701 1.411 . S
C2705 C2703 1.420 . S
C2705 C2710 1.395 . S
C2706 C2702 1.423 . S
C2706 C2703 1.351 . S
C2706 H2718 0.930 . S
C2707 C2709 1.400 . S
C2707 C2710 1.386 . S
C2707 H2719 0.930 . S
N2708 C2701 1.377 . S
N2708 C2709 1.321 . S
N2708 Eu2711 2.609 . S
C2709 C2707 1.400 . S
C2709 N2708 1.321 . S
C2709 H2716 0.930 . S
C2710 C2705 1.395 . S
C2710 C2707 1.386 . S
C2710 H2729 0.930 . S
Eu2711 N2708 2.609 . S
Eu2711 N2712 2.657 . S
Eu2711 O2745 2.380 . S
Eu2711 O2746 2.432 . S
Eu2711 O2750 2.558 . S
Eu2711 O2751 2.612 . S
Eu2711 O2753 2.339 . S
Eu2711 O2754 2.563 . S
Eu2711 O2755 2.419 . S
Eu2711 C2775 2.848 . S
N2712 C2704 1.362 . S
N2712 Eu2711 2.657 . S
N2712 C2713 1.334 . S
C2713 N2712 1.334 . S
C2713 C2715 1.413 . S
C2713 H2720 0.929 . S
C2714 C2702 1.392 . S
C2714 C2715 1.367 . S
C2714 H2722 0.930 . S
C2715 C2713 1.413 . S
C2715 C2714 1.367 . S
C2715 H2717 0.930 . S
H2716 C2709 0.930 . S
H2717 C2715 0.930 . S
H2718 C2706 0.930 . S
H2719 C2707 0.930 . S
H2720 C2713 0.929 . S
H2721 C2735 0.930 . S
H2722 C2714 0.930 . S
H2723 C2741 0.930 . S
H2724 C2732 0.929 . S
H2725 C2739 0.930 . S
H2726 C2703 0.931 . S
H2727 C2733 0.930 . S
H2728 C2766 0.930 . S
H2729 C2710 0.930 . S
H2730 C2765 0.931 . S
N2731 Eu2700 2.657 . S
N2731 C2732 1.334 . S
N2731 C2736 1.362 . S
C2732 H2724 0.929 . S
C2732 N2731 1.334 . S
C2732 C2735 1.413 . S
C2733 H2727 0.930 . S
C2733 C2734 1.392 . S
C2733 C2735 1.367 . S
C2734 C2733 1.392 . S
C2734 C2736 1.420 . S
C2734 C2766 1.423 . S
C2735 H2721 0.930 . S
C2735 C2732 1.413 . S
C2735 C2733 1.367 . S
C2736 N2731 1.362 . S
C2736 C2734 1.420 . S
C2736 C2740 1.429 . S
H2737 C2742 0.930 . S
N2738 Eu2700 2.609 . S
N2738 C2740 1.377 . S
N2738 C2741 1.321 . S
C2739 H2725 0.930 . S
C2739 C2741 1.400 . S
C2739 C2742 1.386 . S
C2740 C2736 1.429 . S
C2740 N2738 1.377 . S
C2740 C2743 1.411 . S
C2741 H2723 0.930 . S
C2741 N2738 1.321 . S
C2741 C2739 1.400 . S
C2742 H2737 0.930 . S
C2742 C2739 1.386 . S
C2742 C2743 1.395 . S
C2743 C2740 1.411 . S
C2743 C2742 1.395 . S
C2743 C2765 1.420 . S
O2744 Eu2700 2.558 . S
O2744 C2764 1.257 . S
O2745 Eu2700 2.612 . S
O2745 Eu2711 2.380 . S
O2745 C2756 1.276 . S
O2746 Eu2711 2.432 . S
O2746 C2763 1.264 . S
O2747 Eu2700 2.339 . S
O2747 C2763 1.254 . S
O2748 Eu2700 2.563 . S
O2748 C2756 1.235 . S
O2749 Eu2700 2.419 . S
O2749 C2764 1.249 . S
O2750 Eu2711 2.558 . S
O2750 C2775 1.257 . S
O2751 Eu2700 2.380 . S
O2751 Eu2711 2.612 . S
O2751 C2767 1.276 . S
O2752 Eu2700 2.432 . S
O2752 C2774 1.264 . S
O2753 Eu2711 2.339 . S
O2753 C2774 1.254 . S
O2754 Eu2711 2.563 . S
O2754 C2767 1.235 . S
O2755 Eu2711 2.419 . S
O2755 C2775 1.249 . S
C2756 O2745 1.276 . S
C2756 O2748 1.235 . S
C2757 C2759 1.393 . S
C2757 C2761 1.395 . S
C2757 C2764 1.492 . S
C2758 C2759 1.392 . S
C2758 C2760 1.386 . S
C2759 C2757 1.393 . S
C2759 C2758 1.392 . S
C2759 H2776 0.930 . S
C2760 C2758 1.386 . S
C2760 C2762 1.395 . S
C2760 H2777 0.930 . S
C2761 C2757 1.395 . S
C2761 C2762 1.379 . S
C2761 H2778 0.930 . S
C2762 C2760 1.395 . S
C2762 C2761 1.379 . S
C2762 H2779 0.930 . S
C2763 O2746 1.264 . S
C2763 O2747 1.254 . S
C2764 Eu2700 2.848 . S
C2764 O2744 1.257 . S
C2764 O2749 1.249 . S
C2764 C2757 1.492 . S
C2765 H2730 0.931 . S
C2765 C2743 1.420 . S
C2765 C2766 1.351 . S
C2766 H2728 0.930 . S
C2766 C2734 1.423 . S
C2766 C2765 1.351 . S
C2767 O2751 1.276 . S
C2767 O2754 1.235 . S
C2768 C2769 1.393 . S
C2768 C2772 1.395 . S
C2768 C2775 1.492 . S
C2769 C2768 1.393 . S
C2769 C2770 1.392 . S
C2769 H2780 0.930 . S
C2770 C2769 1.392 . S
C2770 C2771 1.386 . S
C2771 C2770 1.386 . S
C2771 C2773 1.395 . S
C2771 H2781 0.930 . S
C2772 C2768 1.395 . S
C2772 C2773 1.379 . S
C2772 H2782 0.930 . S
C2773 C2771 1.395 . S
C2773 C2772 1.379 . S
C2773 H2783 0.930 . S
C2774 O2752 1.264 . S
C2774 O2753 1.254 . S
C2775 Eu2711 2.848 . S
C2775 O2750 1.257 . S
C2775 O2755 1.249 . S
C2775 C2768 1.492 . S
H2776 C2759 0.930 . S
H2777 C2760 0.930 . S
H2778 C2761 0.930 . S
H2779 C2762 0.930 . S
H2780 C2769 0.930 . S
H2781 C2771 0.930 . S
H2782 C2772 0.930 . S
H2783 C2773 0.930 . S
Eu2784 N2815 2.657 . S
Eu2784 N2822 2.609 . S
Eu2784 O2828 2.558 . S
Eu2784 O2829 2.634 . S
Eu2784 O2831 2.339 . S
Eu2784 O2832 2.563 1_554 S
Eu2784 O2833 2.419 . S
Eu2784 O2835 2.380 . S
Eu2784 O2836 2.432 . S
Eu2784 C2848 2.848 . S
C2785 C2788 1.429 . S
C2785 C2789 1.411 . S
C2785 N2792 1.377 . S
C2786 C2788 1.420 . S
C2786 C2790 1.423 . S
C2786 C2798 1.392 . S
C2787 C2789 1.420 . S
C2787 C2790 1.351 . S
C2787 H2810 0.931 . S
C2788 C2785 1.429 . S
C2788 C2786 1.420 . S
C2788 N2796 1.362 . S
C2789 C2785 1.411 . S
C2789 C2787 1.420 . S
C2789 C2794 1.395 . S
C2790 C2786 1.423 . S
C2790 C2787 1.351 . S
C2790 H2802 0.930 . S
C2791 C2793 1.400 . S
C2791 C2794 1.386 . S
C2791 H2803 0.930 . S
N2792 C2785 1.377 . S
N2792 C2793 1.321 . S
N2792 Eu2795 2.609 1_556 S
C2793 C2791 1.400 . S
C2793 N2792 1.321 . S
C2793 H2800 0.930 . S
C2794 C2789 1.395 . S
C2794 C2791 1.386 . S
C2794 H2813 0.930 . S
Eu2795 N2792 2.609 1_554 S
Eu2795 N2796 2.657 1_554 S
Eu2795 O2829 2.398 . S
Eu2795 O2830 2.432 . S
Eu2795 O2834 2.558 . S
Eu2795 O2835 2.612 . S
Eu2795 O2837 2.339 . S
Eu2795 O2838 2.563 . S
Eu2795 O2839 2.419 . S
Eu2795 C2859 2.848 . S
N2796 C2788 1.362 . S
N2796 Eu2795 2.657 1_556 S
N2796 C2797 1.334 . S
C2797 N2796 1.334 . S
C2797 C2799 1.413 . S
C2797 H2804 0.929 . S
C2798 C2786 1.392 . S
C2798 C2799 1.367 . S
C2798 H2806 0.930 . S
C2799 C2797 1.413 . S
C2799 C2798 1.367 . S
C2799 H2801 0.930 . S
H2800 C2793 0.930 . S
H2801 C2799 0.930 . S
H2802 C2790 0.930 . S
H2803 C2791 0.930 . S
H2804 C2797 0.929 . S
H2805 C2819 0.930 . S
H2806 C2798 0.930 . S
H2807 C2825 0.930 . S
H2808 C2816 0.929 . S
H2809 C2823 0.930 . S
H2810 C2787 0.931 . S
H2811 C2817 0.930 . S
H2812 C2850 0.930 . S
H2813 C2794 0.930 . S
H2814 C2849 0.931 . S
N2815 Eu2784 2.657 . S
N2815 C2816 1.334 . S
N2815 C2820 1.362 . S
C2816 H2808 0.929 . S
C2816 N2815 1.334 . S
C2816 C2819 1.413 . S
C2817 H2811 0.930 . S
C2817 C2818 1.392 . S
C2817 C2819 1.367 . S
C2818 C2817 1.392 . S
C2818 C2820 1.420 . S
C2818 C2850 1.423 . S
C2819 H2805 0.930 . S
C2819 C2816 1.413 . S
C2819 C2817 1.367 . S
C2820 N2815 1.362 . S
C2820 C2818 1.420 . S
C2820 C2824 1.429 . S
H2821 C2826 0.930 . S
N2822 Eu2784 2.609 . S
N2822 C2824 1.377 . S
N2822 C2825 1.321 . S
C2823 H2809 0.930 . S
C2823 C2825 1.400 . S
C2823 C2826 1.386 . S
C2824 C2820 1.429 . S
C2824 N2822 1.377 . S
C2824 C2827 1.411 . S
C2825 H2807 0.930 . S
C2825 N2822 1.321 . S
C2825 C2823 1.400 . S
C2826 H2821 0.930 . S
C2826 C2823 1.386 . S
C2826 C2827 1.395 . S
C2827 C2824 1.411 . S
C2827 C2826 1.395 . S
C2827 C2849 1.420 . S
O2828 Eu2784 2.558 . S
O2828 C2848 1.257 . S
O2829 Eu2784 2.634 . S
O2829 Eu2795 2.398 . S
O2829 C2840 1.250 1_554 S
O2830 Eu2795 2.432 . S
O2830 C2847 1.264 . S
O2831 Eu2784 2.339 . S
O2831 C2847 1.254 . S
O2832 Eu2784 2.563 1_556 S
O2832 C2840 1.235 . S
O2833 Eu2784 2.419 . S
O2833 C2848 1.249 . S
O2834 Eu2795 2.558 . S
O2834 C2859 1.257 . S
O2835 Eu2784 2.380 . S
O2835 Eu2795 2.612 . S
O2835 C2851 1.276 . S
O2836 Eu2784 2.432 . S
O2836 C2858 1.264 . S
O2837 Eu2795 2.339 . S
O2837 C2858 1.254 . S
O2838 Eu2795 2.563 . S
O2838 C2851 1.235 . S
O2839 Eu2795 2.419 . S
O2839 C2859 1.249 . S
C2840 O2829 1.250 1_556 S
C2840 O2832 1.235 . S
C2841 C2843 1.393 . S
C2841 C2845 1.395 . S
C2841 C2848 1.492 . S
C2842 C2843 1.418 . S
C2842 C2844 1.401 . S
C2843 C2841 1.393 . S
C2843 C2842 1.418 . S
C2843 H2860 0.930 . S
C2844 C2842 1.401 . S
C2844 C2846 1.395 . S
C2844 H2861 0.930 . S
C2845 C2841 1.395 . S
C2845 C2846 1.379 . S
C2845 H2862 0.930 . S
C2846 C2844 1.395 . S
C2846 C2845 1.379 . S
C2846 H2863 0.930 . S
C2847 O2830 1.264 . S
C2847 O2831 1.254 . S
C2848 Eu2784 2.848 . S
C2848 O2828 1.257 . S
C2848 O2833 1.249 . S
C2848 C2841 1.492 . S
C2849 H2814 0.931 . S
C2849 C2827 1.420 . S
C2849 C2850 1.351 . S
C2850 H2812 0.930 . S
C2850 C2818 1.423 . S
C2850 C2849 1.351 . S
C2851 O2835 1.276 . S
C2851 O2838 1.235 . S
C2852 C2853 1.393 . S
C2852 C2856 1.395 . S
C2852 C2859 1.492 . S
C2853 C2852 1.393 . S
C2853 C2854 1.392 . S
C2853 H2864 0.930 . S
C2854 C2853 1.392 . S
C2854 C2855 1.386 . S
C2855 C2854 1.386 . S
C2855 C2857 1.395 . S
C2855 H2865 0.930 . S
C2856 C2852 1.395 . S
C2856 C2857 1.379 . S
C2856 H2866 0.930 . S
C2857 C2855 1.395 . S
C2857 C2856 1.379 . S
C2857 H2867 0.930 . S
C2858 O2836 1.264 . S
C2858 O2837 1.254 . S
C2859 Eu2795 2.848 . S
C2859 O2834 1.257 . S
C2859 O2839 1.249 . S
C2859 C2852 1.492 . S
H2860 C2843 0.930 . S
H2861 C2844 0.930 . S
H2862 C2845 0.930 . S
H2863 C2846 0.930 . S
H2864 C2853 0.930 . S
H2865 C2855 0.930 . S
H2866 C2856 0.930 . S
H2867 C2857 0.930 . S
Eu2868 N2899 2.657 . S
Eu2868 N2906 2.609 . S
Eu2868 O2912 2.558 . S
Eu2868 O2913 2.612 . S
Eu2868 O2915 2.339 . S
Eu2868 O2916 2.563 . S
Eu2868 O2917 2.419 . S
Eu2868 O2919 2.380 . S
Eu2868 O2920 2.432 . S
Eu2868 C2932 2.848 . S
C2869 C2872 1.429 . S
C2869 C2873 1.411 . S
C2869 N2876 1.377 . S
C2870 C2872 1.420 . S
C2870 C2874 1.423 . S
C2870 C2882 1.392 . S
C2871 C2873 1.420 . S
C2871 C2874 1.351 . S
C2871 H2894 0.931 . S
C2872 C2869 1.429 . S
C2872 C2870 1.420 . S
C2872 N2880 1.362 . S
C2873 C2869 1.411 . S
C2873 C2871 1.420 . S
C2873 C2878 1.395 . S
C2874 C2870 1.423 . S
C2874 C2871 1.351 . S
C2874 H2886 0.930 . S
C2875 C2877 1.400 . S
C2875 C2878 1.386 . S
C2875 H2887 0.930 . S
N2876 C2869 1.377 . S
N2876 C2877 1.321 . S
N2876 Eu2879 2.609 . S
C2877 C2875 1.400 . S
C2877 N2876 1.321 . S
C2877 H2884 0.930 . S
C2878 C2873 1.395 . S
C2878 C2875 1.386 . S
C2878 H2897 0.930 . S
Eu2879 N2876 2.609 . S
Eu2879 N2880 2.657 . S
Eu2879 O2913 2.380 . S
Eu2879 O2914 2.432 . S
Eu2879 O2918 2.558 . S
Eu2879 O2919 2.612 . S
Eu2879 O2921 2.339 . S
Eu2879 O2922 2.563 . S
Eu2879 O2923 2.419 . S
Eu2879 C2943 2.848 . S
N2880 C2872 1.362 . S
N2880 Eu2879 2.657 . S
N2880 C2881 1.334 . S
C2881 N2880 1.334 . S
C2881 C2883 1.413 . S
C2881 H2888 0.929 . S
C2882 C2870 1.392 . S
C2882 C2883 1.367 . S
C2882 H2890 0.930 . S
C2883 C2881 1.413 . S
C2883 C2882 1.367 . S
C2883 H2885 0.930 . S
H2884 C2877 0.930 . S
H2885 C2883 0.930 . S
H2886 C2874 0.930 . S
H2887 C2875 0.930 . S
H2888 C2881 0.929 . S
H2889 C2903 0.930 . S
H2890 C2882 0.930 . S
H2891 C2909 0.930 . S
H2892 C2900 0.929 . S
H2893 C2907 0.930 . S
H2894 C2871 0.931 . S
H2895 C2901 0.930 . S
H2896 C2934 0.930 . S
H2897 C2878 0.930 . S
H2898 C2933 0.931 . S
N2899 Eu2868 2.657 . S
N2899 C2900 1.334 . S
N2899 C2904 1.362 . S
C2900 H2892 0.929 . S
C2900 N2899 1.334 . S
C2900 C2903 1.413 . S
C2901 H2895 0.930 . S
C2901 C2902 1.392 . S
C2901 C2903 1.367 . S
C2902 C2901 1.392 . S
C2902 C2904 1.420 . S
C2902 C2934 1.423 . S
C2903 H2889 0.930 . S
C2903 C2900 1.413 . S
C2903 C2901 1.367 . S
C2904 N2899 1.362 . S
C2904 C2902 1.420 . S
C2904 C2908 1.429 . S
H2905 C2910 0.930 . S
N2906 Eu2868 2.609 . S
N2906 C2908 1.377 . S
N2906 C2909 1.321 . S
C2907 H2893 0.930 . S
C2907 C2909 1.400 . S
C2907 C2910 1.386 . S
C2908 C2904 1.429 . S
C2908 N2906 1.377 . S
C2908 C2911 1.411 . S
C2909 H2891 0.930 . S
C2909 N2906 1.321 . S
C2909 C2907 1.400 . S
C2910 H2905 0.930 . S
C2910 C2907 1.386 . S
C2910 C2911 1.395 . S
C2911 C2908 1.411 . S
C2911 C2910 1.395 . S
C2911 C2933 1.420 . S
O2912 Eu2868 2.558 . S
O2912 C2932 1.257 . S
O2913 Eu2868 2.612 . S
O2913 Eu2879 2.380 . S
O2913 C2924 1.276 . S
O2914 Eu2879 2.432 . S
O2914 C2931 1.264 . S
O2915 Eu2868 2.339 . S
O2915 C2931 1.254 . S
O2916 Eu2868 2.563 . S
O2916 C2924 1.235 . S
O2917 Eu2868 2.419 . S
O2917 C2932 1.249 . S
O2918 Eu2879 2.558 . S
O2918 C2943 1.257 . S
O2919 Eu2868 2.380 . S
O2919 Eu2879 2.612 . S
O2919 C2935 1.276 . S
O2920 Eu2868 2.432 . S
O2920 C2942 1.264 . S
O2921 Eu2879 2.339 . S
O2921 C2942 1.254 . S
O2922 Eu2879 2.563 . S
O2922 C2935 1.235 . S
O2923 Eu2879 2.419 . S
O2923 C2943 1.249 . S
C2924 O2913 1.276 . S
C2924 O2916 1.235 . S
C2925 C2927 1.393 . S
C2925 C2929 1.395 . S
C2925 C2932 1.492 . S
C2926 C2927 1.392 . S
C2926 C2928 1.386 . S
C2927 C2925 1.393 . S
C2927 C2926 1.392 . S
C2927 H2944 0.930 . S
C2928 C2926 1.386 . S
C2928 C2930 1.395 . S
C2928 H2945 0.930 . S
C2929 C2925 1.395 . S
C2929 C2930 1.379 . S
C2929 H2946 0.930 . S
C2930 C2928 1.395 . S
C2930 C2929 1.379 . S
C2930 H2947 0.930 . S
C2931 O2914 1.264 . S
C2931 O2915 1.254 . S
C2932 Eu2868 2.848 . S
C2932 O2912 1.257 . S
C2932 O2917 1.249 . S
C2932 C2925 1.492 . S
C2933 H2898 0.931 . S
C2933 C2911 1.420 . S
C2933 C2934 1.351 . S
C2934 H2896 0.930 . S
C2934 C2902 1.423 . S
C2934 C2933 1.351 . S
C2935 O2919 1.276 . S
C2935 O2922 1.235 . S
C2936 C2937 1.393 . S
C2936 C2940 1.395 . S
C2936 C2943 1.492 . S
C2937 C2936 1.393 . S
C2937 C2938 1.392 . S
C2937 H2948 0.930 . S
C2938 C2937 1.392 . S
C2938 C2939 1.386 . S
C2939 C2938 1.386 . S
C2939 C2941 1.395 . S
C2939 H2949 0.930 . S
C2940 C2936 1.395 . S
C2940 C2941 1.379 . S
C2940 H2950 0.930 . S
C2941 C2939 1.395 . S
C2941 C2940 1.379 . S
C2941 H2951 0.930 . S
C2942 O2920 1.264 . S
C2942 O2921 1.254 . S
C2943 Eu2879 2.848 . S
C2943 O2918 1.257 . S
C2943 O2923 1.249 . S
C2943 C2936 1.492 . S
H2944 C2927 0.930 . S
H2945 C2928 0.930 . S
H2946 C2929 0.930 . S
H2947 C2930 0.930 . S
H2948 C2937 0.930 . S
H2949 C2939 0.930 . S
H2950 C2940 0.930 . S
H2951 C2941 0.930 . S
Eu2952 N2983 2.657 . S
Eu2952 N2990 2.609 . S
Eu2952 O2996 2.558 . S
Eu2952 O2997 2.612 . S
Eu2952 O2999 2.339 . S
Eu2952 O3000 2.563 . S
Eu2952 O3001 2.419 . S
Eu2952 O3003 2.380 . S
Eu2952 O3004 2.432 . S
Eu2952 C3016 2.848 . S
C2953 C2956 1.429 . S
C2953 C2957 1.411 1_455 S
C2953 N2960 1.377 . S
C2954 C2956 1.420 1_655 S
C2954 C2958 1.423 . S
C2954 C2966 1.392 . S
C2955 C2957 1.420 . S
C2955 C2958 1.351 . S
C2955 H2978 0.931 . S
C2956 C2953 1.429 . S
C2956 C2954 1.420 1_455 S
C2956 N2964 1.362 . S
C2957 C2953 1.411 1_655 S
C2957 C2955 1.420 . S
C2957 C2962 1.395 . S
C2958 C2954 1.423 . S
C2958 C2955 1.351 . S
C2958 H2970 0.930 . S
C2959 C2961 1.400 . S
C2959 C2962 1.386 1_455 S
C2959 H2971 0.930 . S
N2960 C2953 1.377 . S
N2960 C2961 1.321 . S
N2960 Eu2963 2.609 . S
C2961 C2959 1.400 . S
C2961 N2960 1.321 . S
C2961 H2968 0.930 . S
C2962 C2957 1.395 . S
C2962 C2959 1.386 1_655 S
C2962 H2981 0.930 . S
Eu2963 N2960 2.609 . S
Eu2963 N2964 2.657 . S
Eu2963 O2997 2.380 . S
Eu2963 O2998 2.432 . S
Eu2963 O3002 2.558 . S
Eu2963 O3003 2.612 . S
Eu2963 O3005 2.339 . S
Eu2963 O3006 2.563 . S
Eu2963 O3007 2.419 . S
Eu2963 C3027 2.848 . S
N2964 C2956 1.362 . S
N2964 Eu2963 2.657 . S
N2964 C2965 1.334 . S
C2965 N2964 1.334 . S
C2965 C2967 1.468 . S
C2965 H2972 0.929 . S
C2966 C2954 1.392 . S
C2966 C2967 1.306 1_655 S
C2966 H2974 0.930 . S
C2967 C2965 1.468 . S
C2967 C2966 1.306 1_455 S
C2967 H2969 0.943 1_455 S
H2968 C2961 0.930 . S
H2969 C2967 0.943 1_655 S
H2970 C2958 0.930 . S
H2971 C2959 0.930 . S
H2972 C2965 0.929 . S
H2973 C2987 0.930 . S
H2974 C2966 0.930 . S
H2975 C2993 0.930 . S
H2976 C2984 0.929 . S
H2977 C2991 0.930 . S
H2978 C2955 0.931 . S
H2979 C2985 0.930 . S
H2980 C3018 0.930 . S
H2981 C2962 0.930 . S
H2982 C3017 0.931 . S
N2983 Eu2952 2.657 . S
N2983 C2984 1.334 . S
N2983 C2988 1.362 . S
C2984 H2976 0.929 . S
C2984 N2983 1.334 . S
C2984 C2987 1.413 . S
C2985 H2979 0.930 . S
C2985 C2986 1.392 . S
C2985 C2987 1.367 . S
C2986 C2985 1.392 . S
C2986 C2988 1.420 . S
C2986 C3018 1.423 . S
C2987 H2973 0.930 . S
C2987 C2984 1.413 . S
C2987 C2985 1.367 . S
C2988 N2983 1.362 . S
C2988 C2986 1.420 . S
C2988 C2992 1.429 . S
H2989 C2994 0.930 . S
N2990 Eu2952 2.609 . S
N2990 C2992 1.377 . S
N2990 C2993 1.321 . S
C2991 H2977 0.930 . S
C2991 C2993 1.400 . S
C2991 C2994 1.386 . S
C2992 C2988 1.429 . S
C2992 N2990 1.377 . S
C2992 C2995 1.411 . S
C2993 H2975 0.930 . S
C2993 N2990 1.321 . S
C2993 C2991 1.400 . S
C2994 H2989 0.930 . S
C2994 C2991 1.386 . S
C2994 C2995 1.395 . S
C2995 C2992 1.411 . S
C2995 C2994 1.395 . S
C2995 C3017 1.420 . S
O2996 Eu2952 2.558 . S
O2996 C3016 1.257 . S
O2997 Eu2952 2.612 . S
O2997 Eu2963 2.380 . S
O2997 C3008 1.276 . S
O2998 Eu2963 2.432 . S
O2998 C3015 1.264 . S
O2999 Eu2952 2.339 . S
O2999 C3015 1.254 . S
O3000 Eu2952 2.563 . S
O3000 C3008 1.235 . S
O3001 Eu2952 2.419 . S
O3001 C3016 1.249 . S
O3002 Eu2963 2.558 . S
O3002 C3027 1.257 . S
O3003 Eu2952 2.380 . S
O3003 Eu2963 2.612 . S
O3003 C3019 1.276 . S
O3004 Eu2952 2.432 . S
O3004 C3026 1.264 . S
O3005 Eu2963 2.339 . S
O3005 C3026 1.254 . S
O3006 Eu2963 2.563 . S
O3006 C3019 1.235 . S
O3007 Eu2963 2.419 . S
O3007 C3027 1.249 . S
C3008 O2997 1.276 . S
C3008 O3000 1.235 . S
C3009 C3011 1.393 . S
C3009 C3013 1.395 . S
C3009 C3016 1.492 . S
C3010 C3011 1.392 . S
C3010 C3012 1.386 . S
C3011 C3009 1.393 . S
C3011 C3010 1.392 . S
C3011 H3028 0.930 . S
C3012 C3010 1.386 . S
C3012 C3014 1.395 . S
C3012 H3029 0.930 . S
C3013 C3009 1.395 . S
C3013 C3014 1.379 . S
C3013 H3030 0.930 . S
C3014 C3012 1.395 . S
C3014 C3013 1.379 . S
C3014 H3031 0.930 . S
C3015 O2998 1.264 . S
C3015 O2999 1.254 . S
C3016 Eu2952 2.848 . S
C3016 O2996 1.257 . S
C3016 O3001 1.249 . S
C3016 C3009 1.492 . S
C3017 H2982 0.931 . S
C3017 C2995 1.420 . S
C3017 C3018 1.351 . S
C3018 H2980 0.930 . S
C3018 C2986 1.423 . S
C3018 C3017 1.351 . S
C3019 O3003 1.276 . S
C3019 O3006 1.235 . S
C3020 C3021 1.393 . S
C3020 C3024 1.395 . S
C3020 C3027 1.492 . S
C3021 C3020 1.393 . S
C3021 C3022 1.392 . S
C3021 H3032 0.930 . S
C3022 C3021 1.392 . S
C3022 C3023 1.386 . S
C3023 C3022 1.386 . S
C3023 C3025 1.395 . S
C3023 H3033 0.930 . S
C3024 C3020 1.395 . S
C3024 C3025 1.379 . S
C3024 H3034 0.930 . S
C3025 C3023 1.395 . S
C3025 C3024 1.379 . S
C3025 H3035 0.930 . S
C3026 O3004 1.264 . S
C3026 O3005 1.254 . S
C3027 Eu2963 2.848 . S
C3027 O3002 1.257 . S
C3027 O3007 1.249 . S
C3027 C3020 1.492 . S
H3028 C3011 0.930 . S
H3029 C3012 0.930 . S
H3030 C3013 0.930 . S
H3031 C3014 0.930 . S
H3032 C3021 0.930 . S
H3033 C3023 0.930 . S
H3034 C3024 0.930 . S
H3035 C3025 0.930 . S
Eu3036 N3067 2.657 . S
Eu3036 N3074 2.609 . S
Eu3036 O3080 2.558 . S
Eu3036 O3081 2.612 . S
Eu3036 O3083 2.339 . S
Eu3036 O3084 2.563 . S
Eu3036 O3085 2.419 . S
Eu3036 O3087 2.380 . S
Eu3036 O3088 2.432 . S
Eu3036 C3100 2.848 . S
C3037 C3040 1.429 . S
C3037 C3041 1.411 . S
C3037 N3044 1.377 . S
C3038 C3040 1.420 . S
C3038 C3042 1.423 . S
C3038 C3050 1.392 . S
C3039 C3041 1.420 . S
C3039 C3042 1.351 . S
C3039 H3062 0.931 . S
C3040 C3037 1.429 . S
C3040 C3038 1.420 . S
C3040 N3048 1.362 . S
C3041 C3037 1.411 . S
C3041 C3039 1.420 . S
C3041 C3046 1.395 . S
C3042 C3038 1.423 . S
C3042 C3039 1.351 . S
C3042 H3054 0.930 . S
C3043 C3045 1.400 . S
C3043 C3046 1.386 . S
C3043 H3055 0.930 . S
N3044 C3037 1.377 . S
N3044 C3045 1.321 . S
N3044 Eu3047 2.609 . S
C3045 C3043 1.400 . S
C3045 N3044 1.321 . S
C3045 H3052 0.930 . S
C3046 C3041 1.395 . S
C3046 C3043 1.386 . S
C3046 H3065 0.930 . S
Eu3047 N3044 2.609 . S
Eu3047 N3048 2.657 . S
Eu3047 O3081 2.380 . S
Eu3047 O3082 2.432 . S
Eu3047 O3086 2.558 . S
Eu3047 O3087 2.612 . S
Eu3047 O3089 2.339 . S
Eu3047 O3090 2.563 . S
Eu3047 O3091 2.419 . S
Eu3047 C3111 2.848 . S
N3048 C3040 1.362 . S
N3048 Eu3047 2.657 . S
N3048 C3049 1.334 . S
C3049 N3048 1.334 . S
C3049 C3051 1.413 . S
C3049 H3056 0.929 . S
C3050 C3038 1.392 . S
C3050 C3051 1.367 . S
C3050 H3058 0.930 . S
C3051 C3049 1.413 . S
C3051 C3050 1.367 . S
C3051 H3053 0.930 . S
H3052 C3045 0.930 . S
H3053 C3051 0.930 . S
H3054 C3042 0.930 . S
H3055 C3043 0.930 . S
H3056 C3049 0.929 . S
H3057 C3071 0.930 . S
H3058 C3050 0.930 . S
H3059 C3077 0.930 . S
H3060 C3068 0.929 . S
H3061 C3075 0.930 . S
H3062 C3039 0.931 . S
H3063 C3069 0.930 . S
H3064 C3102 0.930 . S
H3065 C3046 0.930 . S
H3066 C3101 0.931 . S
N3067 Eu3036 2.657 . S
N3067 C3068 1.334 . S
N3067 C3072 1.362 . S
C3068 H3060 0.929 . S
C3068 N3067 1.334 . S
C3068 C3071 1.413 . S
C3069 H3063 0.930 . S
C3069 C3070 1.392 . S
C3069 C3071 1.367 . S
C3070 C3069 1.392 . S
C3070 C3072 1.420 . S
C3070 C3102 1.423 . S
C3071 H3057 0.930 . S
C3071 C3068 1.413 . S
C3071 C3069 1.367 . S
C3072 N3067 1.362 . S
C3072 C3070 1.420 . S
C3072 C3076 1.429 . S
H3073 C3078 0.930 . S
N3074 Eu3036 2.609 . S
N3074 C3076 1.377 . S
N3074 C3077 1.321 . S
C3075 H3061 0.930 . S
C3075 C3077 1.400 . S
C3075 C3078 1.386 . S
C3076 C3072 1.429 . S
C3076 N3074 1.377 . S
C3076 C3079 1.411 . S
C3077 H3059 0.930 . S
C3077 N3074 1.321 . S
C3077 C3075 1.400 . S
C3078 H3073 0.930 . S
C3078 C3075 1.386 . S
C3078 C3079 1.395 . S
C3079 C3076 1.411 . S
C3079 C3078 1.395 . S
C3079 C3101 1.420 . S
O3080 Eu3036 2.558 . S
O3080 C3100 1.257 . S
O3081 Eu3036 2.612 . S
O3081 Eu3047 2.380 . S
O3081 C3092 1.276 . S
O3082 Eu3047 2.432 . S
O3082 C3099 1.264 . S
O3083 Eu3036 2.339 . S
O3083 C3099 1.254 . S
O3084 Eu3036 2.563 . S
O3084 C3092 1.235 . S
O3085 Eu3036 2.419 . S
O3085 C3100 1.249 . S
O3086 Eu3047 2.558 . S
O3086 C3111 1.257 . S
O3087 Eu3036 2.380 . S
O3087 Eu3047 2.612 . S
O3087 C3103 1.276 . S
O3088 Eu3036 2.432 . S
O3088 C3110 1.264 . S
O3089 Eu3047 2.339 . S
O3089 C3110 1.254 . S
O3090 Eu3047 2.563 . S
O3090 C3103 1.235 . S
O3091 Eu3047 2.419 . S
O3091 C3111 1.249 . S
C3092 O3081 1.276 . S
C3092 O3084 1.235 . S
C3093 C3095 1.393 . S
C3093 C3097 1.395 . S
C3093 C3100 1.492 . S
C3094 C3095 1.392 . S
C3094 C3096 1.386 . S
C3095 C3093 1.393 . S
C3095 C3094 1.392 . S
C3095 H3112 0.930 . S
C3096 C3094 1.386 . S
C3096 C3098 1.395 . S
C3096 H3113 0.930 . S
C3097 C3093 1.395 . S
C3097 C3098 1.379 . S
C3097 H3114 0.930 . S
C3098 C3096 1.395 . S
C3098 C3097 1.379 . S
C3098 H3115 0.930 . S
C3099 O3082 1.264 . S
C3099 O3083 1.254 . S
C3100 Eu3036 2.848 . S
C3100 O3080 1.257 . S
C3100 O3085 1.249 . S
C3100 C3093 1.492 . S
C3101 H3066 0.931 . S
C3101 C3079 1.420 . S
C3101 C3102 1.351 . S
C3102 H3064 0.930 . S
C3102 C3070 1.423 . S
C3102 C3101 1.351 . S
C3103 O3087 1.276 . S
C3103 O3090 1.235 . S
C3104 C3105 1.393 . S
C3104 C3108 1.395 . S
C3104 C3111 1.492 . S
C3105 C3104 1.393 . S
C3105 C3106 1.392 . S
C3105 H3116 0.930 . S
C3106 C3105 1.392 . S
C3106 C3107 1.386 . S
C3107 C3106 1.386 . S
C3107 C3109 1.395 . S
C3107 H3117 0.930 . S
C3108 C3104 1.395 . S
C3108 C3109 1.379 . S
C3108 H3118 0.930 . S
C3109 C3107 1.395 . S
C3109 C3108 1.379 . S
C3109 H3119 0.930 . S
C3110 O3088 1.264 . S
C3110 O3089 1.254 . S
C3111 Eu3047 2.848 . S
C3111 O3086 1.257 . S
C3111 O3091 1.249 . S
C3111 C3104 1.492 . S
H3112 C3095 0.930 . S
H3113 C3096 0.930 . S
H3114 C3097 0.930 . S
H3115 C3098 0.930 . S
H3116 C3105 0.930 . S
H3117 C3107 0.930 . S
H3118 C3108 0.930 . S
H3119 C3109 0.930 . S
Eu3120 N3151 2.657 . S
Eu3120 N3158 2.609 . S
Eu3120 O3164 2.558 . S
Eu3120 O3165 2.612 . S
Eu3120 O3167 2.339 . S
Eu3120 O3168 2.563 . S
Eu3120 O3169 2.419 . S
Eu3120 O3171 2.380 . S
Eu3120 O3172 2.432 . S
Eu3120 C3184 2.848 . S
C3121 C3124 1.429 . S
C3121 C3125 1.411 . S
C3121 N3128 1.377 . S
C3122 C3124 1.420 . S
C3122 C3126 1.423 . S
C3122 C3134 1.392 . S
C3123 C3125 1.420 . S
C3123 C3126 1.351 . S
C3123 H3146 0.931 . S
C3124 C3121 1.429 . S
C3124 C3122 1.420 . S
C3124 N3132 1.362 . S
C3125 C3121 1.411 . S
C3125 C3123 1.420 . S
C3125 C3130 1.395 . S
C3126 C3122 1.423 . S
C3126 C3123 1.351 . S
C3126 H3138 0.930 . S
C3127 C3129 1.400 . S
C3127 C3130 1.386 . S
C3127 H3139 0.930 . S
N3128 C3121 1.377 . S
N3128 C3129 1.321 . S
N3128 Eu3131 2.609 . S
C3129 C3127 1.400 . S
C3129 N3128 1.321 . S
C3129 H3136 0.930 . S
C3130 C3125 1.395 . S
C3130 C3127 1.386 . S
C3130 H3149 0.930 . S
Eu3131 N3128 2.609 . S
Eu3131 N3132 2.657 . S
Eu3131 O3165 2.380 . S
Eu3131 O3166 2.432 . S
Eu3131 O3170 2.558 . S
Eu3131 O3171 2.612 . S
Eu3131 O3173 2.339 . S
Eu3131 O3174 2.563 . S
Eu3131 O3175 2.419 . S
Eu3131 C3195 2.848 . S
N3132 C3124 1.362 . S
N3132 Eu3131 2.657 . S
N3132 C3133 1.334 . S
C3133 N3132 1.334 . S
C3133 C3135 1.413 . S
C3133 H3140 0.929 . S
C3134 C3122 1.392 . S
C3134 C3135 1.367 . S
C3134 H3142 0.930 . S
C3135 C3133 1.413 . S
C3135 C3134 1.367 . S
C3135 H3137 0.930 . S
H3136 C3129 0.930 . S
H3137 C3135 0.930 . S
H3138 C3126 0.930 . S
H3139 C3127 0.930 . S
H3140 C3133 0.929 . S
H3141 C3155 0.930 . S
H3142 C3134 0.930 . S
H3143 C3161 0.930 . S
H3144 C3152 0.929 . S
H3145 C3159 0.930 . S
H3146 C3123 0.931 . S
H3147 C3153 0.930 . S
H3148 C3186 0.930 . S
H3149 C3130 0.930 . S
H3150 C3185 0.931 . S
N3151 Eu3120 2.657 . S
N3151 C3152 1.334 . S
N3151 C3156 1.362 . S
C3152 H3144 0.929 . S
C3152 N3151 1.334 . S
C3152 C3155 1.413 . S
C3153 H3147 0.930 . S
C3153 C3154 1.392 . S
C3153 C3155 1.367 . S
C3154 C3153 1.392 . S
C3154 C3156 1.420 . S
C3154 C3186 1.423 . S
C3155 H3141 0.930 . S
C3155 C3152 1.413 . S
C3155 C3153 1.367 . S
C3156 N3151 1.362 . S
C3156 C3154 1.420 . S
C3156 C3160 1.429 . S
H3157 C3162 0.930 . S
N3158 Eu3120 2.609 . S
N3158 C3160 1.377 . S
N3158 C3161 1.321 . S
C3159 H3145 0.930 . S
C3159 C3161 1.400 . S
C3159 C3162 1.386 . S
C3160 C3156 1.429 . S
C3160 N3158 1.377 . S
C3160 C3163 1.411 . S
C3161 H3143 0.930 . S
C3161 N3158 1.321 . S
C3161 C3159 1.400 . S
C3162 H3157 0.930 . S
C3162 C3159 1.386 . S
C3162 C3163 1.395 . S
C3163 C3160 1.411 . S
C3163 C3162 1.395 . S
C3163 C3185 1.420 . S
O3164 Eu3120 2.558 . S
O3164 C3184 1.257 . S
O3165 Eu3120 2.612 . S
O3165 Eu3131 2.380 . S
O3165 C3176 1.276 . S
O3166 Eu3131 2.432 . S
O3166 C3183 1.264 . S
O3167 Eu3120 2.339 . S
O3167 C3183 1.254 . S
O3168 Eu3120 2.563 . S
O3168 C3176 1.235 . S
O3169 Eu3120 2.419 . S
O3169 C3184 1.249 . S
O3170 Eu3131 2.558 . S
O3170 C3195 1.257 . S
O3171 Eu3120 2.380 . S
O3171 Eu3131 2.612 . S
O3171 C3187 1.276 . S
O3172 Eu3120 2.432 . S
O3172 C3194 1.264 . S
O3173 Eu3131 2.339 . S
O3173 C3194 1.254 . S
O3174 Eu3131 2.563 . S
O3174 C3187 1.235 . S
O3175 Eu3131 2.419 . S
O3175 C3195 1.249 . S
C3176 O3165 1.276 . S
C3176 O3168 1.235 . S
C3177 C3179 1.393 . S
C3177 C3181 1.395 . S
C3177 C3184 1.492 . S
C3178 C3179 1.392 . S
C3178 C3180 1.386 . S
C3179 C3177 1.393 . S
C3179 C3178 1.392 . S
C3179 H3196 0.930 . S
C3180 C3178 1.386 . S
C3180 C3182 1.395 . S
C3180 H3197 0.930 . S
C3181 C3177 1.395 . S
C3181 C3182 1.379 . S
C3181 H3198 0.930 . S
C3182 C3180 1.395 . S
C3182 C3181 1.379 . S
C3182 H3199 0.930 . S
C3183 O3166 1.264 . S
C3183 O3167 1.254 . S
C3184 Eu3120 2.848 . S
C3184 O3164 1.257 . S
C3184 O3169 1.249 . S
C3184 C3177 1.492 . S
C3185 H3150 0.931 . S
C3185 C3163 1.420 . S
C3185 C3186 1.351 . S
C3186 H3148 0.930 . S
C3186 C3154 1.423 . S
C3186 C3185 1.351 . S
C3187 O3171 1.276 . S
C3187 O3174 1.235 . S
C3188 C3189 1.393 . S
C3188 C3192 1.395 . S
C3188 C3195 1.492 . S
C3189 C3188 1.393 . S
C3189 C3190 1.392 . S
C3189 H3200 0.930 . S
C3190 C3189 1.392 . S
C3190 C3191 1.386 . S
C3191 C3190 1.386 . S
C3191 C3193 1.395 . S
C3191 H3201 0.930 . S
C3192 C3188 1.395 . S
C3192 C3193 1.379 . S
C3192 H3202 0.930 . S
C3193 C3191 1.395 . S
C3193 C3192 1.379 . S
C3193 H3203 0.930 . S
C3194 O3172 1.264 . S
C3194 O3173 1.254 . S
C3195 Eu3131 2.848 . S
C3195 O3170 1.257 . S
C3195 O3175 1.249 . S
C3195 C3188 1.492 . S
H3196 C3179 0.930 . S
H3197 C3180 0.930 . S
H3198 C3181 0.930 . S
H3199 C3182 0.930 . S
H3200 C3189 0.930 . S
H3201 C3191 0.930 . S
H3202 C3192 0.930 . S
H3203 C3193 0.930 . S
Eu3204 N3235 2.657 . S
Eu3204 N3242 2.609 . S
Eu3204 O3248 2.558 . S
Eu3204 O3249 2.612 . S
Eu3204 O3251 2.339 . S
Eu3204 O3252 2.563 . S
Eu3204 O3253 2.419 . S
Eu3204 O3255 2.380 . S
Eu3204 O3256 2.432 . S
Eu3204 C3268 2.848 . S
C3205 C3208 1.429 . S
C3205 C3209 1.411 . S
C3205 N3212 1.377 . S
C3206 C3208 1.420 . S
C3206 C3210 1.423 . S
C3206 C3218 1.392 . S
C3207 C3209 1.420 . S
C3207 C3210 1.351 . S
C3207 H3230 0.931 . S
C3208 C3205 1.429 . S
C3208 C3206 1.420 . S
C3208 N3216 1.362 . S
C3209 C3205 1.411 . S
C3209 C3207 1.420 . S
C3209 C3214 1.395 . S
C3210 C3206 1.423 . S
C3210 C3207 1.351 . S
C3210 H3222 0.930 . S
C3211 C3213 1.400 . S
C3211 C3214 1.386 . S
C3211 H3223 0.930 . S
N3212 C3205 1.377 . S
N3212 C3213 1.321 . S
N3212 Eu3215 2.609 . S
C3213 C3211 1.400 . S
C3213 N3212 1.321 . S
C3213 H3220 0.930 . S
C3214 C3209 1.395 . S
C3214 C3211 1.386 . S
C3214 H3233 0.930 . S
Eu3215 N3212 2.609 . S
Eu3215 N3216 2.657 . S
Eu3215 O3249 2.380 . S
Eu3215 O3250 2.432 . S
Eu3215 O3254 2.558 . S
Eu3215 O3255 2.612 . S
Eu3215 O3257 2.339 . S
Eu3215 O3258 2.563 . S
Eu3215 O3259 2.419 . S
Eu3215 C3279 2.848 . S
N3216 C3208 1.362 . S
N3216 Eu3215 2.657 . S
N3216 C3217 1.334 . S
C3217 N3216 1.334 . S
C3217 C3219 1.413 . S
C3217 H3224 0.929 . S
C3218 C3206 1.392 . S
C3218 C3219 1.367 . S
C3218 H3226 0.930 . S
C3219 C3217 1.413 . S
C3219 C3218 1.367 . S
C3219 H3221 0.930 . S
H3220 C3213 0.930 . S
H3221 C3219 0.930 . S
H3222 C3210 0.930 . S
H3223 C3211 0.930 . S
H3224 C3217 0.929 . S
H3225 C3239 0.930 . S
H3226 C3218 0.930 . S
H3227 C3245 0.930 . S
H3228 C3236 0.929 . S
H3229 C3243 0.930 . S
H3230 C3207 0.931 . S
H3231 C3237 0.930 . S
H3232 C3270 0.930 . S
H3233 C3214 0.930 . S
H3234 C3269 0.931 . S
N3235 Eu3204 2.657 . S
N3235 C3236 1.334 . S
N3235 C3240 1.362 . S
C3236 H3228 0.929 . S
C3236 N3235 1.334 . S
C3236 C3239 1.413 . S
C3237 H3231 0.930 . S
C3237 C3238 1.392 . S
C3237 C3239 1.367 . S
C3238 C3237 1.392 . S
C3238 C3240 1.420 . S
C3238 C3270 1.423 . S
C3239 H3225 0.930 . S
C3239 C3236 1.413 . S
C3239 C3237 1.367 . S
C3240 N3235 1.362 . S
C3240 C3238 1.420 . S
C3240 C3244 1.429 . S
H3241 C3246 0.930 . S
N3242 Eu3204 2.609 . S
N3242 C3244 1.377 . S
N3242 C3245 1.321 . S
C3243 H3229 0.930 . S
C3243 C3245 1.400 . S
C3243 C3246 1.386 . S
C3244 C3240 1.429 . S
C3244 N3242 1.377 . S
C3244 C3247 1.411 . S
C3245 H3227 0.930 . S
C3245 N3242 1.321 . S
C3245 C3243 1.400 . S
C3246 H3241 0.930 . S
C3246 C3243 1.386 . S
C3246 C3247 1.395 . S
C3247 C3244 1.411 . S
C3247 C3246 1.395 . S
C3247 C3269 1.420 . S
O3248 Eu3204 2.558 . S
O3248 C3268 1.257 . S
O3249 Eu3204 2.612 . S
O3249 Eu3215 2.380 . S
O3249 C3260 1.276 . S
O3250 Eu3215 2.432 . S
O3250 C3267 1.264 . S
O3251 Eu3204 2.339 . S
O3251 C3267 1.254 . S
O3252 Eu3204 2.563 . S
O3252 C3260 1.235 . S
O3253 Eu3204 2.419 . S
O3253 C3268 1.249 . S
O3254 Eu3215 2.558 . S
O3254 C3279 1.257 . S
O3255 Eu3204 2.380 . S
O3255 Eu3215 2.612 . S
O3255 C3271 1.276 . S
O3256 Eu3204 2.432 . S
O3256 C3278 1.264 . S
O3257 Eu3215 2.339 . S
O3257 C3278 1.254 . S
O3258 Eu3215 2.563 . S
O3258 C3271 1.235 . S
O3259 Eu3215 2.419 . S
O3259 C3279 1.249 . S
C3260 O3249 1.276 . S
C3260 O3252 1.235 . S
C3261 C3263 1.393 . S
C3261 C3265 1.395 . S
C3261 C3268 1.492 . S
C3262 C3263 1.392 . S
C3262 C3264 1.386 . S
C3263 C3261 1.393 . S
C3263 C3262 1.392 . S
C3263 H3280 0.930 . S
C3264 C3262 1.386 . S
C3264 C3266 1.395 . S
C3264 H3281 0.930 . S
C3265 C3261 1.395 . S
C3265 C3266 1.379 . S
C3265 H3282 0.930 . S
C3266 C3264 1.395 . S
C3266 C3265 1.379 . S
C3266 H3283 0.930 . S
C3267 O3250 1.264 . S
C3267 O3251 1.254 . S
C3268 Eu3204 2.848 . S
C3268 O3248 1.257 . S
C3268 O3253 1.249 . S
C3268 C3261 1.492 . S
C3269 H3234 0.931 . S
C3269 C3247 1.420 . S
C3269 C3270 1.351 . S
C3270 H3232 0.930 . S
C3270 C3238 1.423 . S
C3270 C3269 1.351 . S
C3271 O3255 1.276 . S
C3271 O3258 1.235 . S
C3272 C3273 1.393 . S
C3272 C3276 1.395 . S
C3272 C3279 1.492 . S
C3273 C3272 1.393 . S
C3273 C3274 1.392 . S
C3273 H3284 0.930 . S
C3274 C3273 1.392 . S
C3274 C3275 1.386 . S
C3275 C3274 1.386 . S
C3275 C3277 1.395 . S
C3275 H3285 0.930 . S
C3276 C3272 1.395 . S
C3276 C3277 1.379 . S
C3276 H3286 0.930 . S
C3277 C3275 1.395 . S
C3277 C3276 1.379 . S
C3277 H3287 0.930 . S
C3278 O3256 1.264 . S
C3278 O3257 1.254 . S
C3279 Eu3215 2.848 . S
C3279 O3254 1.257 . S
C3279 O3259 1.249 . S
C3279 C3272 1.492 . S
H3280 C3263 0.930 . S
H3281 C3264 0.930 . S
H3282 C3265 0.930 . S
H3283 C3266 0.930 . S
H3284 C3273 0.930 . S
H3285 C3275 0.930 . S
H3286 C3276 0.930 . S
H3287 C3277 0.930 . S
Eu3288 N3319 2.657 . S
Eu3288 N3326 2.609 . S
Eu3288 O3332 2.558 . S
Eu3288 O3333 2.612 . S
Eu3288 O3335 2.339 . S
Eu3288 O3336 2.563 . S
Eu3288 O3337 2.419 . S
Eu3288 O3339 2.380 . S
Eu3288 O3340 2.432 . S
Eu3288 C3352 2.848 . S
C3289 C3292 1.429 . S
C3289 C3293 1.411 . S
C3289 N3296 1.377 . S
C3290 C3292 1.420 . S
C3290 C3294 1.423 . S
C3290 C3302 1.392 . S
C3291 C3293 1.420 . S
C3291 C3294 1.351 . S
C3291 H3314 0.931 . S
C3292 C3289 1.429 . S
C3292 C3290 1.420 . S
C3292 N3300 1.362 . S
C3293 C3289 1.411 . S
C3293 C3291 1.420 . S
C3293 C3298 1.395 . S
C3294 C3290 1.423 . S
C3294 C3291 1.351 . S
C3294 H3306 0.930 . S
C3295 C3297 1.400 . S
C3295 C3298 1.386 . S
C3295 H3307 0.930 . S
N3296 C3289 1.377 . S
N3296 C3297 1.321 . S
N3296 Eu3299 2.609 . S
C3297 C3295 1.400 . S
C3297 N3296 1.321 . S
C3297 H3304 0.930 . S
C3298 C3293 1.395 . S
C3298 C3295 1.386 . S
C3298 H3317 0.930 . S
Eu3299 N3296 2.609 . S
Eu3299 N3300 2.657 . S
Eu3299 O3333 2.380 . S
Eu3299 O3334 2.432 . S
Eu3299 O3338 2.558 . S
Eu3299 O3339 2.612 . S
Eu3299 O3341 2.339 . S
Eu3299 O3342 2.563 . S
Eu3299 O3343 2.419 . S
Eu3299 C3363 2.848 . S
N3300 C3292 1.362 . S
N3300 Eu3299 2.657 . S
N3300 C3301 1.334 . S
C3301 N3300 1.334 . S
C3301 C3303 1.413 . S
C3301 H3308 0.929 . S
C3302 C3290 1.392 . S
C3302 C3303 1.367 . S
C3302 H3310 0.930 . S
C3303 C3301 1.413 . S
C3303 C3302 1.367 . S
C3303 H3305 0.930 . S
H3304 C3297 0.930 . S
H3305 C3303 0.930 . S
H3306 C3294 0.930 . S
H3307 C3295 0.930 . S
H3308 C3301 0.929 . S
H3309 C3323 0.930 . S
H3310 C3302 0.930 . S
H3311 C3329 0.930 . S
H3312 C3320 0.929 . S
H3313 C3327 0.930 . S
H3314 C3291 0.931 . S
H3315 C3321 0.930 . S
H3316 C3354 0.930 . S
H3317 C3298 0.930 . S
H3318 C3353 0.931 . S
N3319 Eu3288 2.657 . S
N3319 C3320 1.334 . S
N3319 C3324 1.362 . S
C3320 H3312 0.929 . S
C3320 N3319 1.334 . S
C3320 C3323 1.413 . S
C3321 H3315 0.930 . S
C3321 C3322 1.392 . S
C3321 C3323 1.367 . S
C3322 C3321 1.392 . S
C3322 C3324 1.420 . S
C3322 C3354 1.423 . S
C3323 H3309 0.930 . S
C3323 C3320 1.413 . S
C3323 C3321 1.367 . S
C3324 N3319 1.362 . S
C3324 C3322 1.420 . S
C3324 C3328 1.429 . S
H3325 C3330 0.930 . S
N3326 Eu3288 2.609 . S
N3326 C3328 1.377 . S
N3326 C3329 1.321 . S
C3327 H3313 0.930 . S
C3327 C3329 1.400 . S
C3327 C3330 1.386 . S
C3328 C3324 1.429 . S
C3328 N3326 1.377 . S
C3328 C3331 1.411 . S
C3329 H3311 0.930 . S
C3329 N3326 1.321 . S
C3329 C3327 1.400 . S
C3330 H3325 0.930 . S
C3330 C3327 1.386 . S
C3330 C3331 1.395 . S
C3331 C3328 1.411 . S
C3331 C3330 1.395 . S
C3331 C3353 1.420 . S
O3332 Eu3288 2.558 . S
O3332 C3352 1.257 . S
O3333 Eu3288 2.612 . S
O3333 Eu3299 2.380 . S
O3333 C3344 1.276 . S
O3334 Eu3299 2.432 . S
O3334 C3351 1.264 . S
O3335 Eu3288 2.339 . S
O3335 C3351 1.254 . S
O3336 Eu3288 2.563 . S
O3336 C3344 1.235 . S
O3337 Eu3288 2.419 . S
O3337 C3352 1.249 . S
O3338 Eu3299 2.558 . S
O3338 C3363 1.257 . S
O3339 Eu3288 2.380 . S
O3339 Eu3299 2.612 . S
O3339 C3355 1.276 . S
O3340 Eu3288 2.432 . S
O3340 C3362 1.264 . S
O3341 Eu3299 2.339 . S
O3341 C3362 1.254 . S
O3342 Eu3299 2.563 . S
O3342 C3355 1.235 . S
O3343 Eu3299 2.419 . S
O3343 C3363 1.249 . S
C3344 O3333 1.276 . S
C3344 O3336 1.235 . S
C3345 C3347 1.393 . S
C3345 C3349 1.395 . S
C3345 C3352 1.492 . S
C3346 C3347 1.392 . S
C3346 C3348 1.386 . S
C3347 C3345 1.393 . S
C3347 C3346 1.392 . S
C3347 H3364 0.930 . S
C3348 C3346 1.386 . S
C3348 C3350 1.395 . S
C3348 H3365 0.930 . S
C3349 C3345 1.395 . S
C3349 C3350 1.379 . S
C3349 H3366 0.930 . S
C3350 C3348 1.395 . S
C3350 C3349 1.379 . S
C3350 H3367 0.930 . S
C3351 O3334 1.264 . S
C3351 O3335 1.254 . S
C3352 Eu3288 2.848 . S
C3352 O3332 1.257 . S
C3352 O3337 1.249 . S
C3352 C3345 1.492 . S
C3353 H3318 0.931 . S
C3353 C3331 1.420 . S
C3353 C3354 1.351 . S
C3354 H3316 0.930 . S
C3354 C3322 1.423 . S
C3354 C3353 1.351 . S
C3355 O3339 1.276 . S
C3355 O3342 1.235 . S
C3356 C3357 1.393 . S
C3356 C3360 1.395 . S
C3356 C3363 1.492 . S
C3357 C3356 1.393 . S
C3357 C3358 1.392 . S
C3357 H3368 0.930 . S
C3358 C3357 1.392 . S
C3358 C3359 1.386 . S
C3359 C3358 1.386 . S
C3359 C3361 1.395 . S
C3359 H3369 0.930 . S
C3360 C3356 1.395 . S
C3360 C3361 1.379 . S
C3360 H3370 0.930 . S
C3361 C3359 1.395 . S
C3361 C3360 1.379 . S
C3361 H3371 0.930 . S
C3362 O3340 1.264 . S
C3362 O3341 1.254 . S
C3363 Eu3299 2.848 . S
C3363 O3338 1.257 . S
C3363 O3343 1.249 . S
C3363 C3356 1.492 . S
H3364 C3347 0.930 . S
H3365 C3348 0.930 . S
H3366 C3349 0.930 . S
H3367 C3350 0.930 . S
H3368 C3357 0.930 . S
H3369 C3359 0.930 . S
H3370 C3360 0.930 . S
H3371 C3361 0.930 . S
Eu3372 N3403 2.657 . S
Eu3372 N3410 2.609 1_554 S
Eu3372 O3416 2.558 1_554 S
Eu3372 O3417 2.612 . S
Eu3372 O3419 2.339 . S
Eu3372 O3420 2.563 . S
Eu3372 O3421 2.419 . S
Eu3372 O3423 2.380 . S
Eu3372 O3424 2.432 1_554 S
Eu3372 C3436 2.846 . S
C3373 C3376 1.429 1_455 S
C3373 C3377 1.413 1_455 S
C3373 N3380 1.375 . S
C3374 C3376 1.420 . S
C3374 C3378 1.423 . S
C3374 C3386 1.339 1_554 S
C3375 C3377 1.420 . S
C3375 C3378 1.351 . S
C3375 H3398 0.931 . S
C3376 C3373 1.429 1_655 S
C3376 C3374 1.420 . S
C3376 N3384 1.362 1_655 S
C3377 C3373 1.413 1_655 S
C3377 C3375 1.420 . S
C3377 C3382 1.395 . S
C3378 C3374 1.423 . S
C3378 C3375 1.351 . S
C3378 H3390 0.930 . S
C3379 C3381 1.400 . S
C3379 C3382 1.386 1_455 S
C3379 H3391 0.930 . S
N3380 C3373 1.375 . S
N3380 C3381 1.321 . S
N3380 Eu3383 2.609 . S
C3381 C3379 1.400 . S
C3381 N3380 1.321 . S
C3381 H3388 0.930 . S
C3382 C3377 1.395 . S
C3382 C3379 1.386 1_655 S
C3382 H3401 0.930 . S
Eu3383 N3380 2.609 . S
Eu3383 N3384 2.657 . S
Eu3383 O3417 2.380 . S
Eu3383 O3418 2.432 . S
Eu3383 O3422 2.558 . S
Eu3383 O3423 2.612 . S
Eu3383 O3425 2.317 1_554 S
Eu3383 O3426 2.563 . S
Eu3383 O3427 2.353 1_455 S
Eu3383 C3447 2.848 1_455 S
N3384 C3376 1.362 1_455 S
N3384 Eu3383 2.657 . S
N3384 C3385 1.334 1_554 S
C3385 N3384 1.334 1_556 S
C3385 C3387 1.413 1_455 S
C3385 H3392 0.929 . S
C3386 C3374 1.339 1_556 S
C3386 C3387 1.407 . S
C3386 H3394 0.945 . S
C3387 C3385 1.413 1_655 S
C3387 C3386 1.407 . S
C3387 H3389 0.930 . S
H3388 C3381 0.930 . S
H3389 C3387 0.930 . S
H3390 C3378 0.930 . S
H3391 C3379 0.930 . S
H3392 C3385 0.929 . S
H3393 C3407 0.930 . S
H3394 C3386 0.945 . S
H3395 C3413 0.930 . S
H3396 C3404 0.929 . S
H3397 C3411 0.930 . S
H3398 C3375 0.931 . S
H3399 C3405 0.930 . S
H3400 C3438 0.930 . S
H3401 C3382 0.930 . S
H3402 C3437 0.931 . S
N3403 Eu3372 2.657 . S
N3403 C3404 1.334 . S
N3403 C3408 1.362 . S
C3404 H3396 0.929 . S
C3404 N3403 1.334 . S
C3404 C3407 1.413 . S
C3405 H3399 0.930 . S
C3405 C3406 1.392 . S
C3405 C3407 1.367 . S
C3406 C3405 1.392 . S
C3406 C3408 1.420 . S
C3406 C3438 1.423 . S
C3407 H3393 0.930 . S
C3407 C3404 1.413 . S
C3407 C3405 1.367 . S
C3408 N3403 1.362 . S
C3408 C3406 1.420 . S
C3408 C3412 1.429 1_554 S
H3409 C3414 0.930 . S
N3410 Eu3372 2.609 1_556 S
N3410 C3412 1.377 . S
N3410 C3413 1.321 . S
C3411 H3397 0.930 . S
C3411 C3413 1.400 . S
C3411 C3414 1.386 . S
C3412 C3408 1.429 1_556 S
C3412 N3410 1.377 . S
C3412 C3415 1.411 . S
C3413 H3395 0.930 . S
C3413 N3410 1.321 . S
C3413 C3411 1.400 . S
C3414 H3409 0.930 . S
C3414 C3411 1.386 . S
C3414 C3415 1.395 . S
C3415 C3412 1.411 . S
C3415 C3414 1.395 . S
C3415 C3437 1.420 . S
O3416 Eu3372 2.558 1_556 S
O3416 C3436 1.261 1_556 S
O3417 Eu3372 2.612 . S
O3417 Eu3383 2.380 . S
O3417 C3428 1.276 . S
O3418 Eu3383 2.432 . S
O3418 C3435 1.264 . S
O3419 Eu3372 2.339 . S
O3419 C3435 1.254 . S
O3420 Eu3372 2.563 . S
O3420 C3428 1.235 . S
O3421 Eu3372 2.419 . S
O3421 C3436 1.244 . S
O3422 Eu3383 2.558 . S
O3422 C3447 1.257 1_455 S
O3423 Eu3372 2.380 . S
O3423 Eu3383 2.612 . S
O3423 C3439 1.276 . S
O3424 Eu3372 2.432 1_556 S
O3424 C3446 1.264 . S
O3425 Eu3383 2.317 1_556 S
O3425 C3446 1.271 . S
O3426 Eu3383 2.563 . S
O3426 C3439 1.235 . S
O3427 Eu3383 2.353 1_655 S
O3427 C3447 1.269 . S
C3428 O3417 1.276 . S
C3428 O3420 1.235 . S
C3429 C3431 1.393 1_556 S
C3429 C3433 1.395 . S
C3429 C3436 1.493 1_556 S
C3430 C3431 1.392 . S
C3430 C3432 1.386 1_554 S
C3431 C3429 1.393 1_554 S
C3431 C3430 1.392 . S
C3431 H3448 0.930 . S
C3432 C3430 1.386 1_556 S
C3432 C3434 1.395 . S
C3432 H3449 0.930 . S
C3433 C3429 1.395 . S
C3433 C3434 1.379 . S
C3433 H3450 0.930 . S
C3434 C3432 1.395 . S
C3434 C3433 1.379 . S
C3434 H3451 0.930 . S
C3435 O3418 1.264 . S
C3435 O3419 1.254 . S
C3436 Eu3372 2.846 . S
C3436 O3416 1.261 1_554 S
C3436 O3421 1.244 . S
C3436 C3429 1.493 1_554 S
C3437 H3402 0.931 . S
C3437 C3415 1.420 . S
C3437 C3438 1.351 1_556 S
C3438 H3400 0.930 . S
C3438 C3406 1.423 . S
C3438 C3437 1.351 1_554 S
C3439 O3423 1.276 . S
C3439 O3426 1.235 . S
C3440 C3441 1.393 . S
C3440 C3444 1.395 . S
C3440 C3447 1.492 . S
C3441 C3440 1.393 . S
C3441 C3442 1.392 . S
C3441 H3452 0.930 . S
C3442 C3441 1.392 . S
C3442 C3443 1.386 . S
C3443 C3442 1.386 . S
C3443 C3445 1.395 . S
C3443 H3453 0.930 . S
C3444 C3440 1.395 . S
C3444 C3445 1.379 . S
C3444 H3454 0.930 . S
C3445 C3443 1.395 . S
C3445 C3444 1.379 . S
C3445 H3455 0.930 . S
C3446 O3424 1.264 . S
C3446 O3425 1.271 . S
C3447 Eu3383 2.848 1_655 S
C3447 O3422 1.257 1_655 S
C3447 O3427 1.269 . S
C3447 C3440 1.492 . S
H3448 C3431 0.930 . S
H3449 C3432 0.930 . S
H3450 C3433 0.930 . S
H3451 C3434 0.930 . S
H3452 C3441 0.930 . S
H3453 C3443 0.930 . S
H3454 C3444 0.930 . S
H3455 C3445 0.930 . S
H3456 C3464 0.929 . S
H3457 C3466 0.930 . S
H3458 C3468 0.930 1_554 S
H3459 C3471 0.929 1_554 S
H3460 C3474 0.930 . S
H3461 C3476 0.960 . S
H3462 C3476 0.960 . S
H3463 C3476 0.960 . S
C3464 H3456 0.929 . S
C3464 C3465 1.377 . S
C3464 C3466 1.384 . S
C3465 C3464 1.377 . S
C3465 C3471 1.390 . S
C3466 H3457 0.930 . S
C3466 C3464 1.384 . S
C3466 C3467 1.372 . S
C3467 C3466 1.372 . S
C3467 C3468 1.400 . S
C3467 C3472 1.490 . S
C3468 H3458 0.930 1_556 S
C3468 C3467 1.400 . S
C3468 C3471 1.386 . S
H3469 C3485 0.930 . S
H3470 C3486 0.931 . S
C3471 H3459 0.929 1_556 S
C3471 C3465 1.390 . S
C3471 C3468 1.386 . S
C3472 C3467 1.490 . S
C3472 C3474 1.395 . S
C3472 C3475 1.403 . S
H3473 C3479 0.928 . S
C3474 H3460 0.930 . S
C3474 C3472 1.395 . S
C3474 C3477 1.402 . S
C3475 C3472 1.403 . S
C3475 C3476 1.524 1_455 S
C3475 C3479 1.400 . S
C3476 H3461 0.960 . S
C3476 H3462 0.960 . S
C3476 H3463 0.960 . S
C3476 C3475 1.524 1_655 S
C3477 C3474 1.402 . S
C3477 C3478 1.393 1_556 S
C3477 C3481 1.496 1_556 S
C3478 C3477 1.393 1_554 S
C3478 C3479 1.385 1_554 S
C3478 C3480 1.478 . S
C3479 H3473 0.928 . S
C3479 C3475 1.400 . S
C3479 C3478 1.385 1_556 S
C3480 C3478 1.478 . S
C3480 C3482 1.381 1_554 S
C3480 C3486 1.383 . S
C3481 C3477 1.496 1_554 S
C3481 H3487 0.959 . S
C3481 H3488 0.961 . S
C3481 H3489 0.960 1_554 S
C3482 C3480 1.381 1_556 S
C3482 C3483 1.401 . S
C3482 H3490 0.930 . S
C3483 C3482 1.401 . S
C3483 C3484 1.367 1_556 S
C3483 H3491 0.939 . S
C3484 C3483 1.367 1_554 S
C3484 C3485 1.377 . S
C3485 H3469 0.930 . S
C3485 C3484 1.377 . S
C3485 C3486 1.379 . S
C3486 H3470 0.931 . S
C3486 C3480 1.383 . S
C3486 C3485 1.379 . S
H3487 C3481 0.959 . S
H3488 C3481 0.961 . S
H3489 C3481 0.960 1_556 S
H3490 C3482 0.930 . S
H3491 C3483 0.939 . S
H3492 C3500 0.929 . S
H3493 C3502 0.930 . S
H3494 C3504 0.930 . S
H3495 C3507 0.929 . S
H3496 C3510 0.930 . S
H3497 C3512 0.960 . S
H3498 C3512 0.960 . S
H3499 C3512 0.960 . S
C3500 H3492 0.929 . S
C3500 C3501 1.377 . S
C3500 C3502 1.384 . S
C3501 C3500 1.377 . S
C3501 C3507 1.390 . S
C3502 H3493 0.930 . S
C3502 C3500 1.384 . S
C3502 C3503 1.372 . S
C3503 C3502 1.372 . S
C3503 C3504 1.400 . S
C3503 C3508 1.490 . S
C3504 H3494 0.930 . S
C3504 C3503 1.400 . S
C3504 C3507 1.386 . S
H3505 C3521 0.930 . S
H3506 C3522 0.931 . S
C3507 H3495 0.929 . S
C3507 C3501 1.390 . S
C3507 C3504 1.386 . S
C3508 C3503 1.490 . S
C3508 C3510 1.395 . S
C3508 C3511 1.403 . S
H3509 C3515 0.930 . S
C3510 H3496 0.930 . S
C3510 C3508 1.395 . S
C3510 C3513 1.403 . S
C3511 C3508 1.403 . S
C3511 C3512 1.524 . S
C3511 C3515 1.400 . S
C3512 H3497 0.960 . S
C3512 H3498 0.960 . S
C3512 H3499 0.960 . S
C3512 C3511 1.524 . S
C3513 C3510 1.403 . S
C3513 C3514 1.392 . S
C3513 C3517 1.495 . S
C3514 C3513 1.392 . S
C3514 C3515 1.385 . S
C3514 C3516 1.478 . S
C3515 H3509 0.930 . S
C3515 C3511 1.400 . S
C3515 C3514 1.385 . S
C3516 C3514 1.478 . S
C3516 C3518 1.381 . S
C3516 C3522 1.383 . S
C3517 C3513 1.495 . S
C3517 H3523 0.959 . S
C3517 H3524 0.961 . S
C3517 H3525 0.960 . S
C3518 C3516 1.381 . S
C3518 C3519 1.394 . S
C3518 H3526 0.930 . S
C3519 C3518 1.394 . S
C3519 C3520 1.383 . S
C3519 H3527 0.929 . S
C3520 C3519 1.383 . S
C3520 C3521 1.377 . S
C3521 H3505 0.930 . S
C3521 C3520 1.377 . S
C3521 C3522 1.379 . S
C3522 H3506 0.931 . S
C3522 C3516 1.383 . S
C3522 C3521 1.379 . S
H3523 C3517 0.959 . S
H3524 C3517 0.961 . S
H3525 C3517 0.960 . S
H3526 C3518 0.930 . S
H3527 C3519 0.929 . S
H3528 C3536 0.929 . S
H3529 C3538 0.930 . S
H3530 C3540 0.930 . S
H3531 C3543 0.929 . S
H3532 C3546 0.930 . S
H3533 C3548 0.960 . S
H3534 C3548 0.960 . S
H3535 C3548 0.960 . S
C3536 H3528 0.929 . S
C3536 C3537 1.377 . S
C3536 C3538 1.384 . S
C3537 C3536 1.377 . S
C3537 C3543 1.390 . S
C3538 H3529 0.930 . S
C3538 C3536 1.384 . S
C3538 C3539 1.372 . S
C3539 C3538 1.372 . S
C3539 C3540 1.400 . S
C3539 C3544 1.490 . S
C3540 H3530 0.930 . S
C3540 C3539 1.400 . S
C3540 C3543 1.386 . S
H3541 C3557 0.930 . S
H3542 C3558 0.931 . S
C3543 H3531 0.929 . S
C3543 C3537 1.390 . S
C3543 C3540 1.386 . S
C3544 C3539 1.490 . S
C3544 C3546 1.395 . S
C3544 C3547 1.403 . S
H3545 C3551 0.930 . S
C3546 H3532 0.930 . S
C3546 C3544 1.395 . S
C3546 C3549 1.403 . S
C3547 C3544 1.403 . S
C3547 C3548 1.524 . S
C3547 C3551 1.400 . S
C3548 H3533 0.960 . S
C3548 H3534 0.960 . S
C3548 H3535 0.960 . S
C3548 C3547 1.524 . S
C3549 C3546 1.403 . S
C3549 C3550 1.392 . S
C3549 C3553 1.495 . S
C3550 C3549 1.392 . S
C3550 C3551 1.385 . S
C3550 C3552 1.478 . S
C3551 H3545 0.930 . S
C3551 C3547 1.400 . S
C3551 C3550 1.385 . S
C3552 C3550 1.478 . S
C3552 C3554 1.381 . S
C3552 C3558 1.383 . S
C3553 C3549 1.495 . S
C3553 H3559 0.959 . S
C3553 H3560 0.961 . S
C3553 H3561 0.960 . S
C3554 C3552 1.381 . S
C3554 C3555 1.394 . S
C3554 H3562 0.930 . S
C3555 C3554 1.394 . S
C3555 C3556 1.383 . S
C3555 H3563 0.929 . S
C3556 C3555 1.383 . S
C3556 C3557 1.377 . S
C3557 H3541 0.930 . S
C3557 C3556 1.377 . S
C3557 C3558 1.379 . S
C3558 H3542 0.931 . S
C3558 C3552 1.383 . S
C3558 C3557 1.379 . S
H3559 C3553 0.959 . S
H3560 C3553 0.961 . S
H3561 C3553 0.960 . S
H3562 C3554 0.930 . S
H3563 C3555 0.929 . S
H3564 C3572 0.929 . S
H3565 C3574 0.930 . S
H3566 C3576 0.930 . S
H3567 C3579 0.929 . S
H3568 C3582 0.930 . S
H3569 C3584 0.960 . S
H3570 C3584 0.960 . S
H3571 C3584 0.960 . S
C3572 H3564 0.929 . S
C3572 C3573 1.377 . S
C3572 C3574 1.384 . S
C3573 C3572 1.377 . S
C3573 C3579 1.390 . S
C3574 H3565 0.930 . S
C3574 C3572 1.384 . S
C3574 C3575 1.372 . S
C3575 C3574 1.372 . S
C3575 C3576 1.400 . S
C3575 C3580 1.490 . S
C3576 H3566 0.930 . S
C3576 C3575 1.400 . S
C3576 C3579 1.386 . S
H3577 C3593 0.930 . S
H3578 C3594 0.931 . S
C3579 H3567 0.929 . S
C3579 C3573 1.390 . S
C3579 C3576 1.386 . S
C3580 C3575 1.490 . S
C3580 C3582 1.395 . S
C3580 C3583 1.403 . S
H3581 C3587 0.930 . S
C3582 H3568 0.930 . S
C3582 C3580 1.395 . S
C3582 C3585 1.403 . S
C3583 C3580 1.403 . S
C3583 C3584 1.524 . S
C3583 C3587 1.400 . S
C3584 H3569 0.960 . S
C3584 H3570 0.960 . S
C3584 H3571 0.960 . S
C3584 C3583 1.524 . S
C3585 C3582 1.403 . S
C3585 C3586 1.392 . S
C3585 C3589 1.495 . S
C3586 C3585 1.392 . S
C3586 C3587 1.385 . S
C3586 C3588 1.478 . S
C3587 H3581 0.930 . S
C3587 C3583 1.400 . S
C3587 C3586 1.385 . S
C3588 C3586 1.478 . S
C3588 C3590 1.381 . S
C3588 C3594 1.383 . S
C3589 C3585 1.495 . S
C3589 H3595 0.959 . S
C3589 H3596 0.961 . S
C3589 H3597 0.960 . S
C3590 C3588 1.381 . S
C3590 C3591 1.394 . S
C3590 H3598 0.930 . S
C3591 C3590 1.394 . S
C3591 C3592 1.383 . S
C3591 H3599 0.929 . S
C3592 C3591 1.383 . S
C3592 C3593 1.377 . S
C3593 H3577 0.930 . S
C3593 C3592 1.377 . S
C3593 C3594 1.379 . S
C3594 H3578 0.931 . S
C3594 C3588 1.383 . S
C3594 C3593 1.379 . S
H3595 C3589 0.959 . S
H3596 C3589 0.961 . S
H3597 C3589 0.960 . S
H3598 C3590 0.930 . S
H3599 C3591 0.929 . S
H3600 C3608 0.929 . S
H3601 C3610 0.927 1_655 S
H3602 C3612 0.930 . S
H3603 C3615 0.929 . S
H3604 C3618 0.911 1_655 S
H3605 C3620 0.960 . S
H3606 C3620 0.960 . S
H3607 C3620 0.960 . S
C3608 H3600 0.929 . S
C3608 C3609 1.377 1_655 S
C3608 C3610 1.384 1_655 S
C3609 C3608 1.377 1_455 S
C3609 C3615 1.390 . S
C3610 H3601 0.927 1_455 S
C3610 C3608 1.384 1_455 S
C3610 C3611 1.375 . S
C3611 C3610 1.375 . S
C3611 C3612 1.400 . S
C3611 C3616 1.490 . S
C3612 H3602 0.930 . S
C3612 C3611 1.400 . S
C3612 C3615 1.386 . S
H3613 C3629 0.930 . S
H3614 C3630 0.931 . S
C3615 H3603 0.929 . S
C3615 C3609 1.390 . S
C3615 C3612 1.386 . S
C3616 C3611 1.490 . S
C3616 C3618 1.395 . S
C3616 C3619 1.403 . S
H3617 C3623 0.930 . S
C3618 H3604 0.911 1_455 S
C3618 C3616 1.395 . S
C3618 C3621 1.403 . S
C3619 C3616 1.403 . S
C3619 C3620 1.524 . S
C3619 C3623 1.400 . S
C3620 H3605 0.960 . S
C3620 H3606 0.960 . S
C3620 H3607 0.960 . S
C3620 C3619 1.524 . S
C3621 C3618 1.403 . S
C3621 C3622 1.392 . S
C3621 C3625 1.499 . S
C3622 C3621 1.392 . S
C3622 C3623 1.385 . S
C3622 C3624 1.478 . S
C3623 H3617 0.930 . S
C3623 C3619 1.400 . S
C3623 C3622 1.385 . S
C3624 C3622 1.478 . S
C3624 C3626 1.381 . S
C3624 C3630 1.383 . S
C3625 C3621 1.499 . S
C3625 H3631 0.956 1_455 S
C3625 H3632 0.963 . S
C3625 H3633 0.958 1_455 S
C3626 C3624 1.381 . S
C3626 C3627 1.394 . S
C3626 H3634 0.930 . S
C3627 C3626 1.394 . S
C3627 C3628 1.383 . S
C3627 H3635 0.929 . S
C3628 C3627 1.383 . S
C3628 C3629 1.377 . S
C3629 H3613 0.930 . S
C3629 C3628 1.377 . S
C3629 C3630 1.379 . S
C3630 H3614 0.931 . S
C3630 C3624 1.383 . S
C3630 C3629 1.379 . S
H3631 C3625 0.956 1_655 S
H3632 C3625 0.963 . S
H3633 C3625 0.958 1_655 S
H3634 C3626 0.930 . S
H3635 C3627 0.929 . S
H3636 C3644 0.929 . S
H3637 C3646 0.930 . S
H3638 C3648 0.930 . S
H3639 C3651 0.929 . S
H3640 C3654 0.930 . S
H3641 C3656 0.960 . S
H3642 C3656 0.960 . S
H3643 C3656 0.960 . S
C3644 H3636 0.929 . S
C3644 C3645 1.377 . S
C3644 C3646 1.384 . S
C3645 C3644 1.377 . S
C3645 C3651 1.390 . S
C3646 H3637 0.930 . S
C3646 C3644 1.384 . S
C3646 C3647 1.372 . S
C3647 C3646 1.372 . S
C3647 C3648 1.400 . S
C3647 C3652 1.490 . S
C3648 H3638 0.930 . S
C3648 C3647 1.400 . S
C3648 C3651 1.386 . S
H3649 C3665 0.930 . S
H3650 C3666 0.931 . S
C3651 H3639 0.929 . S
C3651 C3645 1.390 . S
C3651 C3648 1.386 . S
C3652 C3647 1.490 . S
C3652 C3654 1.395 . S
C3652 C3655 1.403 . S
H3653 C3659 0.930 . S
C3654 H3640 0.930 . S
C3654 C3652 1.395 . S
C3654 C3657 1.403 . S
C3655 C3652 1.403 . S
C3655 C3656 1.524 . S
C3655 C3659 1.400 . S
C3656 H3641 0.960 . S
C3656 H3642 0.960 . S
C3656 H3643 0.960 . S
C3656 C3655 1.524 . S
C3657 C3654 1.403 . S
C3657 C3658 1.392 . S
C3657 C3661 1.495 . S
C3658 C3657 1.392 . S
C3658 C3659 1.385 . S
C3658 C3660 1.478 . S
C3659 H3653 0.930 . S
C3659 C3655 1.400 . S
C3659 C3658 1.385 . S
C3660 C3658 1.478 . S
C3660 C3662 1.381 . S
C3660 C3666 1.383 . S
C3661 C3657 1.495 . S
C3661 H3667 0.959 . S
C3661 H3668 0.961 . S
C3661 H3669 0.960 . S
C3662 C3660 1.381 . S
C3662 C3663 1.394 . S
C3662 H3670 0.930 . S
C3663 C3662 1.394 . S
C3663 C3664 1.383 . S
C3663 H3671 0.929 . S
C3664 C3663 1.383 . S
C3664 C3665 1.377 . S
C3665 H3649 0.930 . S
C3665 C3664 1.377 . S
C3665 C3666 1.379 . S
C3666 H3650 0.931 . S
C3666 C3660 1.383 . S
C3666 C3665 1.379 . S
H3667 C3661 0.959 . S
H3668 C3661 0.961 . S
H3669 C3661 0.960 . S
H3670 C3662 0.930 . S
H3671 C3663 0.929 . S
H3672 C3680 0.929 . S
H3673 C3682 0.930 . S
H3674 C3684 0.930 . S
H3675 C3687 0.929 . S
H3676 C3690 0.930 . S
H3677 C3692 0.960 . S
H3678 C3692 0.960 . S
H3679 C3692 0.960 . S
C3680 H3672 0.929 . S
C3680 C3681 1.377 . S
C3680 C3682 1.384 . S
C3681 C3680 1.377 . S
C3681 C3687 1.390 . S
C3682 H3673 0.930 . S
C3682 C3680 1.384 . S
C3682 C3683 1.372 . S
C3683 C3682 1.372 . S
C3683 C3684 1.400 . S
C3683 C3688 1.490 . S
C3684 H3674 0.930 . S
C3684 C3683 1.400 . S
C3684 C3687 1.386 . S
H3685 C3701 0.930 . S
H3686 C3702 0.931 . S
C3687 H3675 0.929 . S
C3687 C3681 1.390 . S
C3687 C3684 1.386 . S
C3688 C3683 1.490 . S
C3688 C3690 1.395 . S
C3688 C3691 1.403 . S
H3689 C3695 0.930 . S
C3690 H3676 0.930 . S
C3690 C3688 1.395 . S
C3690 C3693 1.403 . S
C3691 C3688 1.403 . S
C3691 C3692 1.524 . S
C3691 C3695 1.400 . S
C3692 H3677 0.960 . S
C3692 H3678 0.960 . S
C3692 H3679 0.960 . S
C3692 C3691 1.524 . S
C3693 C3690 1.403 . S
C3693 C3694 1.392 . S
C3693 C3697 1.495 . S
C3694 C3693 1.392 . S
C3694 C3695 1.385 . S
C3694 C3696 1.478 . S
C3695 H3689 0.930 . S
C3695 C3691 1.400 . S
C3695 C3694 1.385 . S
C3696 C3694 1.478 . S
C3696 C3698 1.381 . S
C3696 C3702 1.383 . S
C3697 C3693 1.495 . S
C3697 H3703 0.959 . S
C3697 H3704 0.961 . S
C3697 H3705 0.960 . S
C3698 C3696 1.381 . S
C3698 C3699 1.394 . S
C3698 H3706 0.930 . S
C3699 C3698 1.394 . S
C3699 C3700 1.383 . S
C3699 H3707 0.929 . S
C3700 C3699 1.383 . S
C3700 C3701 1.377 . S
C3701 H3685 0.930 . S
C3701 C3700 1.377 . S
C3701 C3702 1.379 . S
C3702 H3686 0.931 . S
C3702 C3696 1.383 . S
C3702 C3701 1.379 . S
H3703 C3697 0.959 . S
H3704 C3697 0.961 . S
H3705 C3697 0.960 . S
H3706 C3698 0.930 . S
H3707 C3699 0.929 . S
H3708 C3716 0.929 . S
H3709 C3718 0.930 . S
H3710 C3720 0.930 . S
H3711 C3723 0.929 . S
H3712 C3726 0.930 . S
H3713 C3728 0.960 . S
H3714 C3728 0.960 . S
H3715 C3728 0.960 . S
C3716 H3708 0.929 . S
C3716 C3717 1.377 . S
C3716 C3718 1.384 . S
C3717 C3716 1.377 . S
C3717 C3723 1.390 . S
C3718 H3709 0.930 . S
C3718 C3716 1.384 . S
C3718 C3719 1.372 . S
C3719 C3718 1.372 . S
C3719 C3720 1.400 . S
C3719 C3724 1.490 . S
C3720 H3710 0.930 . S
C3720 C3719 1.400 . S
C3720 C3723 1.386 . S
H3721 C3737 0.930 . S
H3722 C3738 0.931 . S
C3723 H3711 0.929 . S
C3723 C3717 1.390 . S
C3723 C3720 1.386 . S
C3724 C3719 1.490 . S
C3724 C3726 1.395 . S
C3724 C3727 1.403 . S
H3725 C3731 0.930 . S
C3726 H3712 0.930 . S
C3726 C3724 1.395 . S
C3726 C3729 1.403 . S
C3727 C3724 1.403 . S
C3727 C3728 1.524 . S
C3727 C3731 1.400 . S
C3728 H3713 0.960 . S
C3728 H3714 0.960 . S
C3728 H3715 0.960 . S
C3728 C3727 1.524 . S
C3729 C3726 1.403 . S
C3729 C3730 1.392 . S
C3729 C3733 1.495 . S
C3730 C3729 1.392 . S
C3730 C3731 1.385 . S
C3730 C3732 1.478 . S
C3731 H3725 0.930 . S
C3731 C3727 1.400 . S
C3731 C3730 1.385 . S
C3732 C3730 1.478 . S
C3732 C3734 1.381 . S
C3732 C3738 1.383 . S
C3733 C3729 1.495 . S
C3733 H3739 0.959 . S
C3733 H3740 0.961 . S
C3733 H3741 0.960 . S
C3734 C3732 1.381 . S
C3734 C3735 1.394 . S
C3734 H3742 0.930 . S
C3735 C3734 1.394 . S
C3735 C3736 1.383 . S
C3735 H3743 0.929 . S
C3736 C3735 1.383 . S
C3736 C3737 1.377 . S
C3737 H3721 0.930 . S
C3737 C3736 1.377 . S
C3737 C3738 1.379 . S
C3738 H3722 0.931 . S
C3738 C3732 1.383 . S
C3738 C3737 1.379 . S
H3739 C3733 0.959 . S
H3740 C3733 0.961 . S
H3741 C3733 0.960 . S
H3742 C3734 0.930 . S
H3743 C3735 0.929 . S
H3744 C3752 0.933 . S
H3745 C3754 0.930 . S
H3746 C3756 0.930 . S
H3747 C3759 0.929 . S
H3748 C3762 0.930 . S
H3749 C3764 0.960 . S
H3750 C3764 0.960 . S
H3751 C3764 0.960 . S
C3752 H3744 0.933 . S
C3752 C3753 1.371 1_455 S
C3752 C3754 1.387 . S
C3753 C3752 1.371 1_655 S
C3753 C3759 1.390 . S
C3754 H3745 0.930 . S
C3754 C3752 1.387 . S
C3754 C3755 1.372 1_455 S
C3755 C3754 1.372 1_655 S
C3755 C3756 1.400 . S
C3755 C3760 1.490 1_655 S
C3756 H3746 0.930 . S
C3756 C3755 1.400 . S
C3756 C3759 1.386 . S
H3757 C3773 0.930 . S
H3758 C3774 0.931 1_655 S
C3759 H3747 0.929 . S
C3759 C3753 1.390 . S
C3759 C3756 1.386 . S
C3760 C3755 1.490 1_455 S
C3760 C3762 1.395 . S
C3760 C3763 1.403 1_455 S
H3761 C3767 0.930 1_655 S
C3762 H3748 0.930 . S
C3762 C3760 1.395 . S
C3762 C3765 1.403 . S
C3763 C3760 1.403 1_655 S
C3763 C3764 1.524 . S
C3763 C3767 1.400 1_655 S
C3764 H3749 0.960 . S
C3764 H3750 0.960 . S
C3764 H3751 0.960 . S
C3764 C3763 1.524 . S
C3765 C3762 1.403 . S
C3765 C3766 1.392 . S
C3765 C3769 1.495 . S
C3766 C3765 1.392 . S
C3766 C3767 1.385 . S
C3766 C3768 1.478 . S
C3767 H3761 0.930 1_455 S
C3767 C3763 1.400 1_455 S
C3767 C3766 1.385 . S
C3768 C3766 1.478 . S
C3768 C3770 1.381 . S
C3768 C3774 1.383 . S
C3769 C3765 1.495 . S
C3769 H3775 0.959 . S
C3769 H3776 0.961 . S
C3769 H3777 0.960 . S
C3770 C3768 1.381 . S
C3770 C3771 1.394 . S
C3770 H3778 0.930 . S
C3771 C3770 1.394 . S
C3771 C3772 1.383 . S
C3771 H3779 0.929 . S
C3772 C3771 1.383 . S
C3772 C3773 1.377 . S
C3773 H3757 0.930 . S
C3773 C3772 1.377 . S
C3773 C3774 1.379 . S
C3774 H3758 0.931 1_455 S
C3774 C3768 1.383 . S
C3774 C3773 1.379 . S
H3775 C3769 0.959 . S
H3776 C3769 0.961 . S
H3777 C3769 0.960 . S
H3778 C3770 0.930 . S
H3779 C3771 0.929 . S
H3780 C3788 0.929 . S
H3781 C3790 0.930 . S
H3782 C3792 0.930 . S
H3783 C3795 0.929 . S
H3784 C3798 0.930 . S
H3785 C3800 0.960 . S
H3786 C3800 0.960 . S
H3787 C3800 0.960 . S
C3788 H3780 0.929 . S
C3788 C3789 1.377 . S
C3788 C3790 1.384 . S
C3789 C3788 1.377 . S
C3789 C3795 1.390 . S
C3790 H3781 0.930 . S
C3790 C3788 1.384 . S
C3790 C3791 1.372 . S
C3791 C3790 1.372 . S
C3791 C3792 1.400 . S
C3791 C3796 1.490 . S
C3792 H3782 0.930 . S
C3792 C3791 1.400 . S
C3792 C3795 1.386 . S
H3793 C3809 0.930 . S
H3794 C3810 0.931 . S
C3795 H3783 0.929 . S
C3795 C3789 1.390 . S
C3795 C3792 1.386 . S
C3796 C3791 1.490 . S
C3796 C3798 1.395 . S
C3796 C3799 1.403 . S
H3797 C3803 0.930 . S
C3798 H3784 0.930 . S
C3798 C3796 1.395 . S
C3798 C3801 1.403 . S
C3799 C3796 1.403 . S
C3799 C3800 1.524 . S
C3799 C3803 1.400 . S
C3800 H3785 0.960 . S
C3800 H3786 0.960 . S
C3800 H3787 0.960 . S
C3800 C3799 1.524 . S
C3801 C3798 1.403 . S
C3801 C3802 1.392 . S
C3801 C3805 1.495 . S
C3802 C3801 1.392 . S
C3802 C3803 1.385 . S
C3802 C3804 1.478 . S
C3803 H3797 0.930 . S
C3803 C3799 1.400 . S
C3803 C3802 1.385 . S
C3804 C3802 1.478 . S
C3804 C3806 1.381 . S
C3804 C3810 1.383 . S
C3805 C3801 1.495 . S
C3805 H3811 0.959 . S
C3805 H3812 0.961 . S
C3805 H3813 0.960 . S
C3806 C3804 1.381 . S
C3806 C3807 1.394 . S
C3806 H3814 0.930 . S
C3807 C3806 1.394 . S
C3807 C3808 1.383 . S
C3807 H3815 0.929 . S
C3808 C3807 1.383 . S
C3808 C3809 1.377 . S
C3809 H3793 0.930 . S
C3809 C3808 1.377 . S
C3809 C3810 1.379 . S
C3810 H3794 0.931 . S
C3810 C3804 1.383 . S
C3810 C3809 1.379 . S
H3811 C3805 0.959 . S
H3812 C3805 0.961 . S
H3813 C3805 0.960 . S
H3814 C3806 0.930 . S
H3815 C3807 0.929 . S
H3816 C3824 0.929 . S
H3817 C3826 0.930 . S
H3818 C3828 0.930 . S
H3819 C3831 0.929 . S
H3820 C3834 0.930 . S
H3821 C3836 0.960 . S
H3822 C3836 0.960 . S
H3823 C3836 0.960 . S
C3824 H3816 0.929 . S
C3824 C3825 1.377 . S
C3824 C3826 1.384 . S
C3825 C3824 1.377 . S
C3825 C3831 1.390 . S
C3826 H3817 0.930 . S
C3826 C3824 1.384 . S
C3826 C3827 1.372 . S
C3827 C3826 1.372 . S
C3827 C3828 1.400 . S
C3827 C3832 1.490 . S
C3828 H3818 0.930 . S
C3828 C3827 1.400 . S
C3828 C3831 1.386 . S
H3829 C3845 0.930 . S
H3830 C3846 0.931 . S
C3831 H3819 0.929 . S
C3831 C3825 1.390 . S
C3831 C3828 1.386 . S
C3832 C3827 1.490 . S
C3832 C3834 1.395 . S
C3832 C3835 1.403 . S
H3833 C3839 0.930 . S
C3834 H3820 0.930 . S
C3834 C3832 1.395 . S
C3834 C3837 1.403 . S
C3835 C3832 1.403 . S
C3835 C3836 1.524 . S
C3835 C3839 1.400 . S
C3836 H3821 0.960 . S
C3836 H3822 0.960 . S
C3836 H3823 0.960 . S
C3836 C3835 1.524 . S
C3837 C3834 1.403 . S
C3837 C3838 1.392 . S
C3837 C3841 1.495 . S
C3838 C3837 1.392 . S
C3838 C3839 1.385 . S
C3838 C3840 1.478 . S
C3839 H3833 0.930 . S
C3839 C3835 1.400 . S
C3839 C3838 1.385 . S
C3840 C3838 1.478 . S
C3840 C3842 1.381 . S
C3840 C3846 1.383 . S
C3841 C3837 1.495 . S
C3841 H3847 0.959 . S
C3841 H3848 0.961 . S
C3841 H3849 0.960 . S
C3842 C3840 1.381 . S
C3842 C3843 1.394 . S
C3842 H3850 0.930 . S
C3843 C3842 1.394 . S
C3843 C3844 1.383 . S
C3843 H3851 0.929 . S
C3844 C3843 1.383 . S
C3844 C3845 1.377 . S
C3845 H3829 0.930 . S
C3845 C3844 1.377 . S
C3845 C3846 1.379 . S
C3846 H3830 0.931 . S
C3846 C3840 1.383 . S
C3846 C3845 1.379 . S
H3847 C3841 0.959 . S
H3848 C3841 0.961 . S
H3849 C3841 0.960 . S
H3850 C3842 0.930 . S
H3851 C3843 0.929 . S
H3852 C3860 0.929 . S
H3853 C3862 0.930 . S
H3854 C3864 0.930 . S
H3855 C3867 0.929 . S
H3856 C3870 0.930 . S
H3857 C3872 0.960 . S
H3858 C3872 0.960 . S
H3859 C3872 0.960 . S
C3860 H3852 0.929 . S
C3860 C3861 1.377 . S
C3860 C3862 1.384 . S
C3861 C3860 1.377 . S
C3861 C3867 1.390 . S
C3862 H3853 0.930 . S
C3862 C3860 1.384 . S
C3862 C3863 1.372 . S
C3863 C3862 1.372 . S
C3863 C3864 1.400 . S
C3863 C3868 1.490 . S
C3864 H3854 0.930 . S
C3864 C3863 1.400 . S
C3864 C3867 1.386 . S
H3865 C3881 0.930 . S
H3866 C3882 0.931 . S
C3867 H3855 0.929 . S
C3867 C3861 1.390 . S
C3867 C3864 1.386 . S
C3868 C3863 1.490 . S
C3868 C3870 1.395 . S
C3868 C3871 1.403 . S
H3869 C3875 0.930 . S
C3870 H3856 0.930 . S
C3870 C3868 1.395 . S
C3870 C3873 1.403 . S
C3871 C3868 1.403 . S
C3871 C3872 1.524 . S
C3871 C3875 1.400 . S
C3872 H3857 0.960 . S
C3872 H3858 0.960 . S
C3872 H3859 0.960 . S
C3872 C3871 1.524 . S
C3873 C3870 1.403 . S
C3873 C3874 1.392 . S
C3873 C3877 1.495 . S
C3874 C3873 1.392 . S
C3874 C3875 1.385 . S
C3874 C3876 1.478 . S
C3875 H3869 0.930 . S
C3875 C3871 1.400 . S
C3875 C3874 1.385 . S
C3876 C3874 1.478 . S
C3876 C3878 1.381 . S
C3876 C3882 1.383 . S
C3877 C3873 1.495 . S
C3877 H3883 0.959 . S
C3877 H3884 0.961 . S
C3877 H3885 0.960 . S
C3878 C3876 1.381 . S
C3878 C3879 1.394 . S
C3878 H3886 0.930 . S
C3879 C3878 1.394 . S
C3879 C3880 1.383 . S
C3879 H3887 0.929 . S
C3880 C3879 1.383 . S
C3880 C3881 1.377 . S
C3881 H3865 0.930 . S
C3881 C3880 1.377 . S
C3881 C3882 1.379 . S
C3882 H3866 0.931 . S
C3882 C3876 1.383 . S
C3882 C3881 1.379 . S
H3883 C3877 0.959 . S
H3884 C3877 0.961 . S
H3885 C3877 0.960 . S
H3886 C3878 0.930 . S
H3887 C3879 0.929 . S
H3888 C3896 0.940 . S
H3889 C3898 0.930 . S
H3890 C3900 0.930 . S
H3891 C3903 0.929 . S
H3892 C3906 0.930 1_655 S
H3893 C3908 0.960 . S
H3894 C3908 0.960 . S
H3895 C3908 0.960 . S
C3896 H3888 0.940 . S
C3896 C3897 1.350 1_455 S
C3896 C3898 1.405 . S
C3897 C3896 1.350 1_655 S
C3897 C3903 1.390 . S
C3898 H3889 0.930 . S
C3898 C3896 1.405 . S
C3898 C3899 1.384 . S
C3899 C3898 1.384 . S
C3899 C3900 1.363 1_455 S
C3899 C3904 1.518 . S
C3900 H3890 0.930 . S
C3900 C3899 1.363 1_655 S
C3900 C3903 1.386 . S
H3901 C3917 0.930 . S
H3902 C3918 0.931 . S
C3903 H3891 0.929 . S
C3903 C3897 1.390 . S
C3903 C3900 1.386 . S
C3904 C3899 1.518 . S
C3904 C3906 1.395 . S
C3904 C3907 1.403 . S
H3905 C3911 0.930 . S
C3906 H3892 0.930 1_455 S
C3906 C3904 1.395 . S
C3906 C3909 1.403 . S
C3907 C3904 1.403 . S
C3907 C3908 1.524 . S
C3907 C3911 1.400 . S
C3908 H3893 0.960 . S
C3908 H3894 0.960 . S
C3908 H3895 0.960 . S
C3908 C3907 1.524 . S
C3909 C3906 1.403 . S
C3909 C3910 1.392 . S
C3909 C3913 1.495 . S
C3910 C3909 1.392 . S
C3910 C3911 1.385 . S
C3910 C3912 1.478 . S
C3911 H3905 0.930 . S
C3911 C3907 1.400 . S
C3911 C3910 1.385 . S
C3912 C3910 1.478 . S
C3912 C3914 1.381 . S
C3912 C3918 1.383 . S
C3913 C3909 1.495 . S
C3913 H3919 0.959 1_455 S
C3913 H3920 0.961 1_455 S
C3913 H3921 0.960 . S
C3914 C3912 1.381 . S
C3914 C3915 1.394 . S
C3914 H3922 0.930 . S
C3915 C3914 1.394 . S
C3915 C3916 1.383 . S
C3915 H3923 0.929 . S
C3916 C3915 1.383 . S
C3916 C3917 1.377 . S
C3917 H3901 0.930 . S
C3917 C3916 1.377 . S
C3917 C3918 1.379 . S
C3918 H3902 0.931 . S
C3918 C3912 1.383 . S
C3918 C3917 1.379 . S
H3919 C3913 0.959 1_655 S
H3920 C3913 0.961 1_655 S
H3921 C3913 0.960 . S
H3922 C3914 0.930 . S
H3923 C3915 0.929 . S
H3924 C3932 0.929 . S
H3925 C3934 0.930 . S
H3926 C3936 0.930 . S
H3927 C3939 0.929 . S
H3928 C3942 0.930 . S
H3929 C3944 0.960 . S
H3930 C3944 0.960 . S
H3931 C3944 0.960 . S
C3932 H3924 0.929 . S
C3932 C3933 1.377 . S
C3932 C3934 1.384 . S
C3933 C3932 1.377 . S
C3933 C3939 1.390 . S
C3934 H3925 0.930 . S
C3934 C3932 1.384 . S
C3934 C3935 1.372 . S
C3935 C3934 1.372 . S
C3935 C3936 1.400 . S
C3935 C3940 1.490 . S
C3936 H3926 0.930 . S
C3936 C3935 1.400 . S
C3936 C3939 1.386 . S
H3937 C3953 0.930 . S
H3938 C3954 0.931 . S
C3939 H3927 0.929 . S
C3939 C3933 1.390 . S
C3939 C3936 1.386 . S
C3940 C3935 1.490 . S
C3940 C3942 1.395 . S
C3940 C3943 1.403 . S
H3941 C3947 0.930 . S
C3942 H3928 0.930 . S
C3942 C3940 1.395 . S
C3942 C3945 1.403 . S
C3943 C3940 1.403 . S
C3943 C3944 1.524 . S
C3943 C3947 1.400 . S
C3944 H3929 0.960 . S
C3944 H3930 0.960 . S
C3944 H3931 0.960 . S
C3944 C3943 1.524 . S
C3945 C3942 1.403 . S
C3945 C3946 1.392 . S
C3945 C3949 1.495 . S
C3946 C3945 1.392 . S
C3946 C3947 1.385 . S
C3946 C3948 1.478 . S
C3947 H3941 0.930 . S
C3947 C3943 1.400 . S
C3947 C3946 1.385 . S
C3948 C3946 1.478 . S
C3948 C3950 1.381 . S
C3948 C3954 1.383 . S
C3949 C3945 1.495 . S
C3949 H3955 0.959 . S
C3949 H3956 0.961 . S
C3949 H3957 0.960 . S
C3950 C3948 1.381 . S
C3950 C3951 1.394 . S
C3950 H3958 0.930 . S
C3951 C3950 1.394 . S
C3951 C3952 1.383 . S
C3951 H3959 0.929 . S
C3952 C3951 1.383 . S
C3952 C3953 1.377 . S
C3953 H3937 0.930 . S
C3953 C3952 1.377 . S
C3953 C3954 1.379 . S
C3954 H3938 0.931 . S
C3954 C3948 1.383 . S
C3954 C3953 1.379 . S
H3955 C3949 0.959 . S
H3956 C3949 0.961 . S
H3957 C3949 0.960 . S
H3958 C3950 0.930 . S
H3959 C3951 0.929 . S
H3960 C3968 0.929 . S
H3961 C3970 0.930 . S
H3962 C3972 0.930 . S
H3963 C3975 0.929 . S
H3964 C3978 0.930 . S
H3965 C3980 0.960 . S
H3966 C3980 0.960 . S
H3967 C3980 0.960 . S
C3968 H3960 0.929 . S
C3968 C3969 1.377 . S
C3968 C3970 1.384 . S
C3969 C3968 1.377 . S
C3969 C3975 1.390 . S
C3970 H3961 0.930 . S
C3970 C3968 1.384 . S
C3970 C3971 1.372 . S
C3971 C3970 1.372 . S
C3971 C3972 1.400 . S
C3971 C3976 1.490 . S
C3972 H3962 0.930 . S
C3972 C3971 1.400 . S
C3972 C3975 1.386 . S
H3973 C3989 0.930 . S
H3974 C3990 0.931 . S
C3975 H3963 0.929 . S
C3975 C3969 1.390 . S
C3975 C3972 1.386 . S
C3976 C3971 1.490 . S
C3976 C3978 1.395 . S
C3976 C3979 1.403 . S
H3977 C3983 0.930 . S
C3978 H3964 0.930 . S
C3978 C3976 1.395 . S
C3978 C3981 1.403 . S
C3979 C3976 1.403 . S
C3979 C3980 1.524 . S
C3979 C3983 1.400 . S
C3980 H3965 0.960 . S
C3980 H3966 0.960 . S
C3980 H3967 0.960 . S
C3980 C3979 1.524 . S
C3981 C3978 1.403 . S
C3981 C3982 1.392 . S
C3981 C3985 1.495 . S
C3982 C3981 1.392 . S
C3982 C3983 1.385 . S
C3982 C3984 1.478 . S
C3983 H3977 0.930 . S
C3983 C3979 1.400 . S
C3983 C3982 1.385 . S
C3984 C3982 1.478 . S
C3984 C3986 1.381 . S
C3984 C3990 1.383 . S
C3985 C3981 1.495 . S
C3985 H3991 0.959 . S
C3985 H3992 0.961 . S
C3985 H3993 0.960 . S
C3986 C3984 1.381 . S
C3986 C3987 1.394 . S
C3986 H3994 0.930 . S
C3987 C3986 1.394 . S
C3987 C3988 1.383 . S
C3987 H3995 0.929 . S
C3988 C3987 1.383 . S
C3988 C3989 1.377 . S
C3989 H3973 0.930 . S
C3989 C3988 1.377 . S
C3989 C3990 1.379 . S
C3990 H3974 0.931 . S
C3990 C3984 1.383 . S
C3990 C3989 1.379 . S
H3991 C3985 0.959 . S
H3992 C3985 0.961 . S
H3993 C3985 0.960 . S
H3994 C3986 0.930 . S
H3995 C3987 0.929 . S
H3996 C4004 0.929 . S
H3997 C4006 0.930 . S
H3998 C4008 0.930 . S
H3999 C4011 0.929 . S
H4000 C4014 0.930 . S
H4001 C4016 0.960 . S
H4002 C4016 0.960 . S
H4003 C4016 0.960 . S
C4004 H3996 0.929 . S
C4004 C4005 1.377 . S
C4004 C4006 1.384 . S
C4005 C4004 1.377 . S
C4005 C4011 1.390 . S
C4006 H3997 0.930 . S
C4006 C4004 1.384 . S
C4006 C4007 1.372 . S
C4007 C4006 1.372 . S
C4007 C4008 1.400 . S
C4007 C4012 1.490 . S
C4008 H3998 0.930 . S
C4008 C4007 1.400 . S
C4008 C4011 1.386 . S
H4009 C4025 0.930 . S
H4010 C4026 0.931 . S
C4011 H3999 0.929 . S
C4011 C4005 1.390 . S
C4011 C4008 1.386 . S
C4012 C4007 1.490 . S
C4012 C4014 1.395 . S
C4012 C4015 1.403 . S
H4013 C4019 0.930 . S
C4014 H4000 0.930 . S
C4014 C4012 1.395 . S
C4014 C4017 1.403 . S
C4015 C4012 1.403 . S
C4015 C4016 1.524 . S
C4015 C4019 1.400 . S
C4016 H4001 0.960 . S
C4016 H4002 0.960 . S
C4016 H4003 0.960 . S
C4016 C4015 1.524 . S
C4017 C4014 1.403 . S
C4017 C4018 1.392 . S
C4017 C4021 1.495 . S
C4018 C4017 1.392 . S
C4018 C4019 1.385 . S
C4018 C4020 1.478 . S
C4019 H4013 0.930 . S
C4019 C4015 1.400 . S
C4019 C4018 1.385 . S
C4020 C4018 1.478 . S
C4020 C4022 1.381 . S
C4020 C4026 1.383 . S
C4021 C4017 1.495 . S
C4021 H4027 0.959 . S
C4021 H4028 0.961 . S
C4021 H4029 0.960 . S
C4022 C4020 1.381 . S
C4022 C4023 1.394 . S
C4022 H4030 0.930 . S
C4023 C4022 1.394 . S
C4023 C4024 1.383 . S
C4023 H4031 0.929 . S
C4024 C4023 1.383 . S
C4024 C4025 1.377 . S
C4025 H4009 0.930 . S
C4025 C4024 1.377 . S
C4025 C4026 1.379 . S
C4026 H4010 0.931 . S
C4026 C4020 1.383 . S
C4026 C4025 1.379 . S
H4027 C4021 0.959 . S
H4028 C4021 0.961 . S
H4029 C4021 0.960 . S
H4030 C4022 0.930 . S
H4031 C4023 0.929 . S
H4032 C4040 0.929 . S
H4033 C4042 0.930 . S
H4034 C4044 0.945 . S
H4035 C4047 0.929 . S
H4036 C4050 0.930 . S
H4037 C4052 0.960 . S
H4038 C4052 0.960 . S
H4039 C4052 0.960 . S
C4040 H4032 0.929 . S
C4040 C4041 1.377 . S
C4040 C4042 1.384 . S
C4041 C4040 1.377 . S
C4041 C4047 1.390 . S
C4042 H4033 0.930 . S
C4042 C4040 1.384 . S
C4042 C4043 1.372 . S
C4043 C4042 1.372 . S
C4043 C4044 1.400 . S
C4043 C4048 1.490 . S
C4044 H4034 0.945 . S
C4044 C4043 1.400 . S
C4044 C4047 1.386 . S
H4045 C4061 0.930 . S
H4046 C4062 0.931 . S
C4047 H4035 0.929 . S
C4047 C4041 1.390 . S
C4047 C4044 1.386 . S
C4048 C4043 1.490 . S
C4048 C4050 1.395 . S
C4048 C4051 1.403 1_565 S
H4049 C4055 0.930 . S
C4050 H4036 0.930 . S
C4050 C4048 1.395 . S
C4050 C4053 1.403 . S
C4051 C4048 1.403 1_545 S
C4051 C4052 1.524 . S
C4051 C4055 1.400 . S
C4052 H4037 0.960 . S
C4052 H4038 0.960 . S
C4052 H4039 0.960 . S
C4052 C4051 1.524 . S
C4053 C4050 1.403 . S
C4053 C4054 1.392 . S
C4053 C4057 1.495 . S
C4054 C4053 1.392 . S
C4054 C4055 1.385 1_565 S
C4054 C4056 1.480 1_565 S
C4055 H4049 0.930 . S
C4055 C4051 1.400 . S
C4055 C4054 1.385 1_545 S
C4056 C4054 1.480 1_545 S
C4056 C4058 1.382 1_545 S
C4056 C4062 1.379 . S
C4057 C4053 1.495 . S
C4057 H4063 0.959 . S
C4057 H4064 0.961 . S
C4057 H4065 0.960 . S
C4058 C4056 1.382 1_565 S
C4058 C4059 1.420 . S
C4058 H4066 0.930 . S
C4059 C4058 1.420 . S
C4059 C4060 1.353 1_565 S
C4059 H4067 0.936 . S
C4060 C4059 1.353 1_545 S
C4060 C4061 1.377 . S
C4061 H4045 0.930 . S
C4061 C4060 1.377 . S
C4061 C4062 1.379 . S
C4062 H4046 0.931 . S
C4062 C4056 1.379 . S
C4062 C4061 1.379 . S
H4063 C4057 0.959 . S
H4064 C4057 0.961 . S
H4065 C4057 0.960 . S
H4066 C4058 0.930 . S
H4067 C4059 0.936 . S
H4068 C4076 0.929 . S
H4069 C4078 0.930 . S
H4070 C4080 0.930 . S
H4071 C4083 0.929 . S
H4072 C4086 0.936 . S
H4073 C4088 0.960 . S
H4074 C4088 0.960 . S
H4075 C4088 0.960 1_554 S
C4076 H4068 0.929 . S
C4076 C4077 1.377 . S
C4076 C4078 1.384 . S
C4077 C4076 1.377 . S
C4077 C4083 1.390 1_556 S
C4078 H4069 0.930 . S
C4078 C4076 1.384 . S
C4078 C4079 1.372 . S
C4079 C4078 1.372 . S
C4079 C4080 1.400 1_556 S
C4079 C4084 1.490 . S
C4080 H4070 0.930 . S
C4080 C4079 1.400 1_554 S
C4080 C4083 1.386 . S
H4081 C4097 0.930 . S
H4082 C4098 0.931 . S
C4083 H4071 0.929 . S
C4083 C4077 1.390 1_554 S
C4083 C4080 1.386 . S
C4084 C4079 1.490 . S
C4084 C4086 1.395 . S
C4084 C4087 1.403 . S
H4085 C4091 0.930 . S
C4086 H4072 0.936 . S
C4086 C4084 1.395 . S
C4086 C4089 1.391 1_556 S
C4087 C4084 1.403 . S
C4087 C4088 1.524 . S
C4087 C4091 1.400 . S
C4088 H4073 0.960 . S
C4088 H4074 0.960 . S
C4088 H4075 0.960 1_556 S
C4088 C4087 1.524 . S
C4089 C4086 1.391 1_554 S
C4089 C4090 1.391 . S
C4089 C4093 1.513 . S
C4090 C4089 1.391 . S
C4090 C4091 1.379 1_554 S
C4090 C4092 1.482 . S
C4091 H4085 0.930 . S
C4091 C4087 1.400 . S
C4091 C4090 1.379 1_556 S
C4092 C4090 1.482 . S
C4092 C4094 1.381 1_554 S
C4092 C4098 1.383 . S
C4093 C4089 1.513 . S
C4093 H4099 0.959 . S
C4093 H4100 0.961 . S
C4093 H4101 0.960 1_554 S
C4094 C4092 1.381 1_556 S
C4094 C4095 1.394 . S
C4094 H4102 0.930 . S
C4095 C4094 1.394 . S
C4095 C4096 1.383 1_556 S
C4095 H4103 0.929 . S
C4096 C4095 1.383 1_554 S
C4096 C4097 1.377 . S
C4097 H4081 0.930 . S
C4097 C4096 1.377 . S
C4097 C4098 1.379 . S
C4098 H4082 0.931 . S
C4098 C4092 1.383 . S
C4098 C4097 1.379 . S
H4099 C4093 0.959 . S
H4100 C4093 0.961 . S
H4101 C4093 0.960 1_556 S
H4102 C4094 0.930 . S
H4103 C4095 0.929 . S
H4104 C4112 0.929 . S
H4105 C4114 0.930 . S
H4106 C4116 0.930 . S
H4107 C4119 0.929 . S
H4108 C4122 0.930 . S
H4109 C4124 0.960 . S
H4110 C4124 0.960 . S
H4111 C4124 0.960 . S
C4112 H4104 0.929 . S
C4112 C4113 1.377 . S
C4112 C4114 1.384 . S
C4113 C4112 1.377 . S
C4113 C4119 1.390 . S
C4114 H4105 0.930 . S
C4114 C4112 1.384 . S
C4114 C4115 1.372 . S
C4115 C4114 1.372 . S
C4115 C4116 1.400 . S
C4115 C4120 1.490 . S
C4116 H4106 0.930 . S
C4116 C4115 1.400 . S
C4116 C4119 1.386 . S
H4117 C4133 0.930 . S
H4118 C4134 0.931 . S
C4119 H4107 0.929 . S
C4119 C4113 1.390 . S
C4119 C4116 1.386 . S
C4120 C4115 1.490 . S
C4120 C4122 1.395 . S
C4120 C4123 1.403 . S
H4121 C4127 0.930 . S
C4122 H4108 0.930 . S
C4122 C4120 1.395 . S
C4122 C4125 1.403 . S
C4123 C4120 1.403 . S
C4123 C4124 1.524 . S
C4123 C4127 1.400 . S
C4124 H4109 0.960 . S
C4124 H4110 0.960 . S
C4124 H4111 0.960 . S
C4124 C4123 1.524 . S
C4125 C4122 1.403 . S
C4125 C4126 1.392 . S
C4125 C4129 1.495 . S
C4126 C4125 1.392 . S
C4126 C4127 1.385 . S
C4126 C4128 1.478 . S
C4127 H4121 0.930 . S
C4127 C4123 1.400 . S
C4127 C4126 1.385 . S
C4128 C4126 1.478 . S
C4128 C4130 1.381 . S
C4128 C4134 1.383 . S
C4129 C4125 1.495 . S
C4129 H4135 0.959 . S
C4129 H4136 0.961 . S
C4129 H4137 0.960 . S
C4130 C4128 1.381 . S
C4130 C4131 1.394 . S
C4130 H4138 0.930 . S
C4131 C4130 1.394 . S
C4131 C4132 1.383 . S
C4131 H4139 0.929 . S
C4132 C4131 1.383 . S
C4132 C4133 1.377 . S
C4133 H4117 0.930 . S
C4133 C4132 1.377 . S
C4133 C4134 1.379 . S
C4134 H4118 0.931 . S
C4134 C4128 1.383 . S
C4134 C4133 1.379 . S
H4135 C4129 0.959 . S
H4136 C4129 0.961 . S
H4137 C4129 0.960 . S
H4138 C4130 0.930 . S
H4139 C4131 0.929 . S
H4140 C4148 0.929 . S
H4141 C4150 0.930 . S
H4142 C4152 0.930 . S
H4143 C4155 0.929 . S
H4144 C4158 0.930 . S
H4145 C4160 0.960 . S
H4146 C4160 0.960 . S
H4147 C4160 0.960 . S
C4148 H4140 0.929 . S
C4148 C4149 1.377 . S
C4148 C4150 1.384 . S
C4149 C4148 1.377 . S
C4149 C4155 1.390 . S
C4150 H4141 0.930 . S
C4150 C4148 1.384 . S
C4150 C4151 1.372 . S
C4151 C4150 1.372 . S
C4151 C4152 1.400 . S
C4151 C4156 1.490 . S
C4152 H4142 0.930 . S
C4152 C4151 1.400 . S
C4152 C4155 1.386 . S
H4153 C4169 0.930 . S
H4154 C4170 0.931 . S
C4155 H4143 0.929 . S
C4155 C4149 1.390 . S
C4155 C4152 1.386 . S
C4156 C4151 1.490 . S
C4156 C4158 1.395 . S
C4156 C4159 1.403 . S
H4157 C4163 0.930 . S
C4158 H4144 0.930 . S
C4158 C4156 1.395 . S
C4158 C4161 1.403 . S
C4159 C4156 1.403 . S
C4159 C4160 1.524 . S
C4159 C4163 1.400 . S
C4160 H4145 0.960 . S
C4160 H4146 0.960 . S
C4160 H4147 0.960 . S
C4160 C4159 1.524 . S
C4161 C4158 1.403 . S
C4161 C4162 1.392 . S
C4161 C4165 1.495 . S
C4162 C4161 1.392 . S
C4162 C4163 1.385 . S
C4162 C4164 1.478 . S
C4163 H4157 0.930 . S
C4163 C4159 1.400 . S
C4163 C4162 1.385 . S
C4164 C4162 1.478 . S
C4164 C4166 1.381 . S
C4164 C4170 1.383 . S
C4165 C4161 1.495 . S
C4165 H4171 0.959 . S
C4165 H4172 0.961 . S
C4165 H4173 0.960 . S
C4166 C4164 1.381 . S
C4166 C4167 1.394 1_655 S
C4166 H4174 0.930 . S
C4167 C4166 1.394 1_455 S
C4167 C4168 1.383 . S
C4167 H4175 0.929 . S
C4168 C4167 1.383 . S
C4168 C4169 1.377 . S
C4169 H4153 0.930 . S
C4169 C4168 1.377 . S
C4169 C4170 1.379 1_455 S
C4170 H4154 0.931 . S
C4170 C4164 1.383 . S
C4170 C4169 1.379 1_655 S
H4171 C4165 0.959 . S
H4172 C4165 0.961 . S
H4173 C4165 0.960 . S
H4174 C4166 0.930 . S
H4175 C4167 0.929 . S
H4176 C4184 0.929 . S
H4177 C4186 0.930 . S
H4178 C4188 0.930 . S
H4179 C4191 0.929 . S
H4180 C4194 0.930 . S
H4181 C4196 0.960 . S
H4182 C4196 0.960 . S
H4183 C4196 0.960 . S
C4184 H4176 0.929 . S
C4184 C4185 1.377 . S
C4184 C4186 1.384 . S
C4185 C4184 1.377 . S
C4185 C4191 1.390 . S
C4186 H4177 0.930 . S
C4186 C4184 1.384 . S
C4186 C4187 1.372 . S
C4187 C4186 1.372 . S
C4187 C4188 1.400 . S
C4187 C4192 1.490 . S
C4188 H4178 0.930 . S
C4188 C4187 1.400 . S
C4188 C4191 1.386 . S
H4189 C4205 0.930 . S
H4190 C4206 0.931 . S
C4191 H4179 0.929 . S
C4191 C4185 1.390 . S
C4191 C4188 1.386 . S
C4192 C4187 1.490 . S
C4192 C4194 1.395 . S
C4192 C4195 1.403 . S
H4193 C4199 0.930 . S
C4194 H4180 0.930 . S
C4194 C4192 1.395 . S
C4194 C4197 1.403 . S
C4195 C4192 1.403 . S
C4195 C4196 1.524 . S
C4195 C4199 1.400 . S
C4196 H4181 0.960 . S
C4196 H4182 0.960 . S
C4196 H4183 0.960 . S
C4196 C4195 1.524 . S
C4197 C4194 1.403 . S
C4197 C4198 1.392 . S
C4197 C4201 1.495 . S
C4198 C4197 1.392 . S
C4198 C4199 1.385 . S
C4198 C4200 1.478 . S
C4199 H4193 0.930 . S
C4199 C4195 1.400 . S
C4199 C4198 1.385 . S
C4200 C4198 1.478 . S
C4200 C4202 1.381 . S
C4200 C4206 1.383 . S
C4201 C4197 1.495 . S
C4201 H4207 0.959 . S
C4201 H4208 0.961 . S
C4201 H4209 0.960 . S
C4202 C4200 1.381 . S
C4202 C4203 1.394 . S
C4202 H4210 0.930 . S
C4203 C4202 1.394 . S
C4203 C4204 1.383 . S
C4203 H4211 0.929 . S
C4204 C4203 1.383 . S
C4204 C4205 1.377 . S
C4205 H4189 0.930 . S
C4205 C4204 1.377 . S
C4205 C4206 1.379 . S
C4206 H4190 0.931 . S
C4206 C4200 1.383 . S
C4206 C4205 1.379 . S
H4207 C4201 0.959 . S
H4208 C4201 0.961 . S
H4209 C4201 0.960 . S
H4210 C4202 0.930 . S
H4211 C4203 0.929 . S
H4212 C4220 0.929 . S
H4213 C4222 0.930 . S
H4214 C4224 0.930 . S
H4215 C4227 0.929 . S
H4216 C4230 0.930 . S
H4217 C4232 0.960 . S
H4218 C4232 0.960 . S
H4219 C4232 0.960 . S
C4220 H4212 0.929 . S
C4220 C4221 1.377 . S
C4220 C4222 1.384 . S
C4221 C4220 1.377 . S
C4221 C4227 1.390 . S
C4222 H4213 0.930 . S
C4222 C4220 1.384 . S
C4222 C4223 1.372 . S
C4223 C4222 1.372 . S
C4223 C4224 1.400 . S
C4223 C4228 1.490 . S
C4224 H4214 0.930 . S
C4224 C4223 1.400 . S
C4224 C4227 1.386 . S
H4225 C4241 0.930 . S
H4226 C4242 0.931 . S
C4227 H4215 0.929 . S
C4227 C4221 1.390 . S
C4227 C4224 1.386 . S
C4228 C4223 1.490 . S
C4228 C4230 1.395 . S
C4228 C4231 1.403 . S
H4229 C4235 0.930 . S
C4230 H4216 0.930 . S
C4230 C4228 1.395 . S
C4230 C4233 1.403 . S
C4231 C4228 1.403 . S
C4231 C4232 1.524 . S
C4231 C4235 1.400 . S
C4232 H4217 0.960 . S
C4232 H4218 0.960 . S
C4232 H4219 0.960 . S
C4232 C4231 1.524 . S
C4233 C4230 1.403 . S
C4233 C4234 1.392 . S
C4233 C4237 1.495 . S
C4234 C4233 1.392 . S
C4234 C4235 1.385 . S
C4234 C4236 1.478 . S
C4235 H4229 0.930 . S
C4235 C4231 1.400 . S
C4235 C4234 1.385 . S
C4236 C4234 1.478 . S
C4236 C4238 1.381 . S
C4236 C4242 1.383 . S
C4237 C4233 1.495 . S
C4237 H4243 0.959 . S
C4237 H4244 0.961 . S
C4237 H4245 0.960 . S
C4238 C4236 1.381 . S
C4238 C4239 1.394 . S
C4238 H4246 0.930 . S
C4239 C4238 1.394 . S
C4239 C4240 1.383 . S
C4239 H4247 0.929 . S
C4240 C4239 1.383 . S
C4240 C4241 1.377 . S
C4241 H4225 0.930 . S
C4241 C4240 1.377 . S
C4241 C4242 1.379 . S
C4242 H4226 0.931 . S
C4242 C4236 1.383 . S
C4242 C4241 1.379 . S
H4243 C4237 0.959 . S
H4244 C4237 0.961 . S
H4245 C4237 0.960 . S
H4246 C4238 0.930 . S
H4247 C4239 0.929 . S
H4248 C4256 0.929 . S
H4249 C4258 0.930 . S
H4250 C4260 0.930 . S
H4251 C4263 0.929 . S
H4252 C4266 0.930 . S
H4253 C4268 0.960 . S
H4254 C4268 0.960 . S
H4255 C4268 0.960 . S
C4256 H4248 0.929 . S
C4256 C4257 1.377 . S
C4256 C4258 1.384 . S
C4257 C4256 1.377 . S
C4257 C4263 1.390 . S
C4258 H4249 0.930 . S
C4258 C4256 1.384 . S
C4258 C4259 1.372 . S
C4259 C4258 1.372 . S
C4259 C4260 1.400 . S
C4259 C4264 1.490 . S
C4260 H4250 0.930 . S
C4260 C4259 1.400 . S
C4260 C4263 1.386 . S
H4261 C4277 0.930 . S
H4262 C4278 0.931 . S
C4263 H4251 0.929 . S
C4263 C4257 1.390 . S
C4263 C4260 1.386 . S
C4264 C4259 1.490 . S
C4264 C4266 1.395 . S
C4264 C4267 1.403 . S
H4265 C4271 0.930 . S
C4266 H4252 0.930 . S
C4266 C4264 1.395 . S
C4266 C4269 1.403 . S
C4267 C4264 1.403 . S
C4267 C4268 1.524 . S
C4267 C4271 1.400 . S
C4268 H4253 0.960 . S
C4268 H4254 0.960 . S
C4268 H4255 0.960 . S
C4268 C4267 1.524 . S
C4269 C4266 1.403 . S
C4269 C4270 1.392 . S
C4269 C4273 1.495 . S
C4270 C4269 1.392 . S
C4270 C4271 1.385 . S
C4270 C4272 1.478 . S
C4271 H4265 0.930 . S
C4271 C4267 1.400 . S
C4271 C4270 1.385 . S
C4272 C4270 1.478 . S
C4272 C4274 1.381 . S
C4272 C4278 1.383 . S
C4273 C4269 1.495 . S
C4273 H4279 0.959 . S
C4273 H4280 0.961 . S
C4273 H4281 0.960 . S
C4274 C4272 1.381 . S
C4274 C4275 1.394 . S
C4274 H4282 0.930 . S
C4275 C4274 1.394 . S
C4275 C4276 1.383 . S
C4275 H4283 0.929 . S
C4276 C4275 1.383 . S
C4276 C4277 1.377 . S
C4277 H4261 0.930 . S
C4277 C4276 1.377 . S
C4277 C4278 1.379 . S
C4278 H4262 0.931 . S
C4278 C4272 1.383 . S
C4278 C4277 1.379 . S
H4279 C4273 0.959 . S
H4280 C4273 0.961 . S
H4281 C4273 0.960 . S
H4282 C4274 0.930 . S
H4283 C4275 0.929 . S
H4284 C4292 0.929 . S
H4285 C4294 0.930 . S
H4286 C4296 0.930 . S
H4287 C4299 0.929 . S
H4288 C4302 0.930 . S
H4289 C4304 0.960 . S
H4290 C4304 0.960 . S
H4291 C4304 0.960 . S
C4292 H4284 0.929 . S
C4292 C4293 1.377 . S
C4292 C4294 1.384 . S
C4293 C4292 1.377 . S
C4293 C4299 1.390 . S
C4294 H4285 0.930 . S
C4294 C4292 1.384 . S
C4294 C4295 1.372 . S
C4295 C4294 1.372 . S
C4295 C4296 1.400 . S
C4295 C4300 1.490 . S
C4296 H4286 0.930 . S
C4296 C4295 1.400 . S
C4296 C4299 1.386 . S
H4297 C4313 0.930 . S
H4298 C4314 0.931 . S
C4299 H4287 0.929 . S
C4299 C4293 1.390 . S
C4299 C4296 1.386 . S
C4300 C4295 1.490 . S
C4300 C4302 1.395 . S
C4300 C4303 1.403 . S
H4301 C4307 0.930 . S
C4302 H4288 0.930 . S
C4302 C4300 1.395 . S
C4302 C4305 1.403 . S
C4303 C4300 1.403 . S
C4303 C4304 1.524 . S
C4303 C4307 1.400 . S
C4304 H4289 0.960 . S
C4304 H4290 0.960 . S
C4304 H4291 0.960 . S
C4304 C4303 1.524 . S
C4305 C4302 1.403 . S
C4305 C4306 1.392 . S
C4305 C4309 1.495 . S
C4306 C4305 1.392 . S
C4306 C4307 1.385 . S
C4306 C4308 1.478 . S
C4307 H4301 0.930 . S
C4307 C4303 1.400 . S
C4307 C4306 1.385 . S
C4308 C4306 1.478 . S
C4308 C4310 1.381 . S
C4308 C4314 1.383 . S
C4309 C4305 1.495 . S
C4309 H4315 0.959 . S
C4309 H4316 0.961 . S
C4309 H4317 0.960 . S
C4310 C4308 1.381 . S
C4310 C4311 1.394 . S
C4310 H4318 0.930 . S
C4311 C4310 1.394 . S
C4311 C4312 1.383 . S
C4311 H4319 0.929 . S
C4312 C4311 1.383 . S
C4312 C4313 1.377 . S
C4313 H4297 0.930 . S
C4313 C4312 1.377 . S
C4313 C4314 1.379 . S
C4314 H4298 0.931 . S
C4314 C4308 1.383 . S
C4314 C4313 1.379 . S
H4315 C4309 0.959 . S
H4316 C4309 0.961 . S
H4317 C4309 0.960 . S
H4318 C4310 0.930 . S
H4319 C4311 0.929 . S
H4320 C4328 0.929 . S
H4321 C4330 0.930 . S
H4322 C4332 0.930 . S
H4323 C4335 0.929 . S
H4324 C4338 0.930 . S
H4325 C4340 0.960 . S
H4326 C4340 0.960 . S
H4327 C4340 0.960 . S
C4328 H4320 0.929 . S
C4328 C4329 1.377 . S
C4328 C4330 1.384 . S
C4329 C4328 1.377 . S
C4329 C4335 1.390 . S
C4330 H4321 0.930 . S
C4330 C4328 1.384 . S
C4330 C4331 1.372 . S
C4331 C4330 1.372 . S
C4331 C4332 1.400 . S
C4331 C4336 1.490 . S
C4332 H4322 0.930 . S
C4332 C4331 1.400 . S
C4332 C4335 1.386 . S
H4333 C4349 0.930 . S
H4334 C4350 0.931 . S
C4335 H4323 0.929 . S
C4335 C4329 1.390 . S
C4335 C4332 1.386 . S
C4336 C4331 1.490 . S
C4336 C4338 1.395 . S
C4336 C4339 1.403 . S
H4337 C4343 0.930 . S
C4338 H4324 0.930 . S
C4338 C4336 1.395 . S
C4338 C4341 1.403 . S
C4339 C4336 1.403 . S
C4339 C4340 1.524 . S
C4339 C4343 1.400 . S
C4340 H4325 0.960 . S
C4340 H4326 0.960 . S
C4340 H4327 0.960 . S
C4340 C4339 1.524 . S
C4341 C4338 1.403 . S
C4341 C4342 1.392 . S
C4341 C4345 1.495 . S
C4342 C4341 1.392 . S
C4342 C4343 1.385 . S
C4342 C4344 1.478 . S
C4343 H4337 0.930 . S
C4343 C4339 1.400 . S
C4343 C4342 1.385 . S
C4344 C4342 1.478 . S
C4344 C4346 1.381 . S
C4344 C4350 1.383 . S
C4345 C4341 1.495 . S
C4345 H4351 0.959 1_554 S
C4345 H4352 0.961 1_554 S
C4345 H4353 0.960 . S
C4346 C4344 1.381 . S
C4346 C4347 1.394 . S
C4346 H4354 0.930 . S
C4347 C4346 1.394 . S
C4347 C4348 1.383 . S
C4347 H4355 0.949 . S
C4348 C4347 1.383 . S
C4348 C4349 1.377 . S
C4349 H4333 0.930 . S
C4349 C4348 1.377 . S
C4349 C4350 1.379 . S
C4350 H4334 0.931 . S
C4350 C4344 1.383 . S
C4350 C4349 1.379 . S
H4351 C4345 0.959 1_556 S
H4352 C4345 0.961 1_556 S
H4353 C4345 0.960 . S
H4354 C4346 0.930 . S
H4355 C4347 0.949 . S
H4356 C4364 0.929 . S
H4357 C4366 0.930 . S
H4358 C4368 0.930 . S
H4359 C4371 0.929 . S
H4360 C4374 0.930 . S
H4361 C4376 0.960 . S
H4362 C4376 0.960 . S
H4363 C4376 0.960 . S
C4364 H4356 0.929 . S
C4364 C4365 1.377 . S
C4364 C4366 1.384 . S
C4365 C4364 1.377 . S
C4365 C4371 1.390 . S
C4366 H4357 0.930 . S
C4366 C4364 1.384 . S
C4366 C4367 1.372 . S
C4367 C4366 1.372 . S
C4367 C4368 1.400 . S
C4367 C4372 1.490 . S
C4368 H4358 0.930 . S
C4368 C4367 1.400 . S
C4368 C4371 1.386 . S
H4369 C4385 0.930 . S
H4370 C4386 0.931 . S
C4371 H4359 0.929 . S
C4371 C4365 1.390 . S
C4371 C4368 1.386 . S
C4372 C4367 1.490 . S
C4372 C4374 1.395 . S
C4372 C4375 1.403 . S
H4373 C4379 0.930 . S
C4374 H4360 0.930 . S
C4374 C4372 1.395 . S
C4374 C4377 1.403 . S
C4375 C4372 1.403 . S
C4375 C4376 1.524 . S
C4375 C4379 1.400 . S
C4376 H4361 0.960 . S
C4376 H4362 0.960 . S
C4376 H4363 0.960 . S
C4376 C4375 1.524 . S
C4377 C4374 1.403 . S
C4377 C4378 1.392 . S
C4377 C4381 1.495 . S
C4378 C4377 1.392 . S
C4378 C4379 1.385 . S
C4378 C4380 1.478 . S
C4379 H4373 0.930 . S
C4379 C4375 1.400 . S
C4379 C4378 1.385 . S
C4380 C4378 1.478 . S
C4380 C4382 1.381 . S
C4380 C4386 1.383 . S
C4381 C4377 1.495 . S
C4381 H4387 0.959 . S
C4381 H4388 0.961 . S
C4381 H4389 0.960 . S
C4382 C4380 1.381 . S
C4382 C4383 1.394 . S
C4382 H4390 0.930 . S
C4383 C4382 1.394 . S
C4383 C4384 1.383 . S
C4383 H4391 0.929 . S
C4384 C4383 1.383 . S
C4384 C4385 1.377 . S
C4385 H4369 0.930 . S
C4385 C4384 1.377 . S
C4385 C4386 1.379 . S
C4386 H4370 0.931 . S
C4386 C4380 1.383 . S
C4386 C4385 1.379 . S
H4387 C4381 0.959 . S
H4388 C4381 0.961 . S
H4389 C4381 0.960 . S
H4390 C4382 0.930 . S
H4391 C4383 0.929 . S
H4392 C4400 0.929 . S
H4393 C4402 0.930 . S
H4394 C4404 0.930 . S
H4395 C4407 0.929 . S
H4396 C4410 0.930 . S
H4397 C4412 0.960 . S
H4398 C4412 0.960 . S
H4399 C4412 0.960 . S
C4400 H4392 0.929 . S
C4400 C4401 1.377 . S
C4400 C4402 1.384 . S
C4401 C4400 1.377 . S
C4401 C4407 1.390 . S
C4402 H4393 0.930 . S
C4402 C4400 1.384 . S
C4402 C4403 1.372 . S
C4403 C4402 1.372 . S
C4403 C4404 1.400 . S
C4403 C4408 1.490 . S
C4404 H4394 0.930 . S
C4404 C4403 1.400 . S
C4404 C4407 1.386 . S
H4405 C4421 0.930 . S
H4406 C4422 0.931 . S
C4407 H4395 0.929 . S
C4407 C4401 1.390 . S
C4407 C4404 1.386 . S
C4408 C4403 1.490 . S
C4408 C4410 1.395 . S
C4408 C4411 1.403 . S
H4409 C4415 0.930 . S
C4410 H4396 0.930 . S
C4410 C4408 1.395 . S
C4410 C4413 1.403 . S
C4411 C4408 1.403 . S
C4411 C4412 1.524 . S
C4411 C4415 1.400 . S
C4412 H4397 0.960 . S
C4412 H4398 0.960 . S
C4412 H4399 0.960 . S
C4412 C4411 1.524 . S
C4413 C4410 1.403 . S
C4413 C4414 1.392 . S
C4413 C4417 1.495 . S
C4414 C4413 1.392 . S
C4414 C4415 1.385 . S
C4414 C4416 1.478 . S
C4415 H4409 0.930 . S
C4415 C4411 1.400 . S
C4415 C4414 1.385 . S
C4416 C4414 1.478 . S
C4416 C4418 1.381 . S
C4416 C4422 1.383 . S
C4417 C4413 1.495 . S
C4417 H4423 0.959 . S
C4417 H4424 0.961 . S
C4417 H4425 0.960 . S
C4418 C4416 1.381 . S
C4418 C4419 1.394 . S
C4418 H4426 0.930 . S
C4419 C4418 1.394 . S
C4419 C4420 1.383 . S
C4419 H4427 0.929 . S
C4420 C4419 1.383 . S
C4420 C4421 1.377 . S
C4421 H4405 0.930 . S
C4421 C4420 1.377 . S
C4421 C4422 1.379 . S
C4422 H4406 0.931 . S
C4422 C4416 1.383 . S
C4422 C4421 1.379 . S
H4423 C4417 0.959 . S
H4424 C4417 0.961 . S
H4425 C4417 0.960 . S
H4426 C4418 0.930 . S
H4427 C4419 0.929 . S
H4428 C4436 0.929 . S
H4429 C4438 0.930 . S
H4430 C4440 0.930 . S
H4431 C4443 0.929 . S
H4432 C4446 0.930 . S
H4433 C4448 0.960 . S
H4434 C4448 0.960 . S
H4435 C4448 0.960 . S
C4436 H4428 0.929 . S
C4436 C4437 1.377 . S
C4436 C4438 1.384 . S
C4437 C4436 1.377 . S
C4437 C4443 1.390 . S
C4438 H4429 0.930 . S
C4438 C4436 1.384 . S
C4438 C4439 1.372 . S
C4439 C4438 1.372 . S
C4439 C4440 1.400 . S
C4439 C4444 1.490 . S
C4440 H4430 0.930 . S
C4440 C4439 1.400 . S
C4440 C4443 1.386 . S
H4441 C4457 0.930 . S
H4442 C4458 0.931 . S
C4443 H4431 0.929 . S
C4443 C4437 1.390 . S
C4443 C4440 1.386 . S
C4444 C4439 1.490 . S
C4444 C4446 1.395 . S
C4444 C4447 1.403 . S
H4445 C4451 0.930 . S
C4446 H4432 0.930 . S
C4446 C4444 1.395 . S
C4446 C4449 1.403 . S
C4447 C4444 1.403 . S
C4447 C4448 1.524 . S
C4447 C4451 1.400 . S
C4448 H4433 0.960 . S
C4448 H4434 0.960 . S
C4448 H4435 0.960 . S
C4448 C4447 1.524 . S
C4449 C4446 1.403 . S
C4449 C4450 1.392 . S
C4449 C4453 1.495 . S
C4450 C4449 1.392 . S
C4450 C4451 1.385 . S
C4450 C4452 1.478 . S
C4451 H4445 0.930 . S
C4451 C4447 1.400 . S
C4451 C4450 1.385 . S
C4452 C4450 1.478 . S
C4452 C4454 1.381 . S
C4452 C4458 1.383 . S
C4453 C4449 1.495 . S
C4453 H4459 0.959 . S
C4453 H4460 0.961 . S
C4453 H4461 0.960 . S
C4454 C4452 1.381 . S
C4454 C4455 1.394 . S
C4454 H4462 0.930 . S
C4455 C4454 1.394 . S
C4455 C4456 1.383 . S
C4455 H4463 0.929 . S
C4456 C4455 1.383 . S
C4456 C4457 1.377 . S
C4457 H4441 0.930 . S
C4457 C4456 1.377 . S
C4457 C4458 1.379 . S
C4458 H4442 0.931 . S
C4458 C4452 1.383 . S
C4458 C4457 1.379 . S
H4459 C4453 0.959 . S
H4460 C4453 0.961 . S
H4461 C4453 0.960 . S
H4462 C4454 0.930 . S
H4463 C4455 0.929 . S
H4464 C4472 0.929 . S
H4465 C4474 0.930 . S
H4466 C4476 0.930 . S
H4467 C4479 0.929 . S
H4468 C4482 0.930 . S
H4469 C4484 0.960 . S
H4470 C4484 0.960 . S
H4471 C4484 0.960 . S
C4472 H4464 0.929 . S
C4472 C4473 1.377 . S
C4472 C4474 1.384 . S
C4473 C4472 1.377 . S
C4473 C4479 1.390 . S
C4474 H4465 0.930 . S
C4474 C4472 1.384 . S
C4474 C4475 1.372 . S
C4475 C4474 1.372 . S
C4475 C4476 1.400 . S
C4475 C4480 1.490 . S
C4476 H4466 0.930 . S
C4476 C4475 1.400 . S
C4476 C4479 1.386 . S
H4477 C4493 0.930 . S
H4478 C4494 0.931 . S
C4479 H4467 0.929 . S
C4479 C4473 1.390 . S
C4479 C4476 1.386 . S
C4480 C4475 1.490 . S
C4480 C4482 1.395 . S
C4480 C4483 1.403 . S
H4481 C4487 0.930 . S
C4482 H4468 0.930 . S
C4482 C4480 1.395 . S
C4482 C4485 1.403 . S
C4483 C4480 1.403 . S
C4483 C4484 1.524 . S
C4483 C4487 1.400 . S
C4484 H4469 0.960 . S
C4484 H4470 0.960 . S
C4484 H4471 0.960 . S
C4484 C4483 1.524 . S
C4485 C4482 1.403 . S
C4485 C4486 1.392 . S
C4485 C4489 1.495 . S
C4486 C4485 1.392 . S
C4486 C4487 1.385 . S
C4486 C4488 1.478 . S
C4487 H4481 0.930 . S
C4487 C4483 1.400 . S
C4487 C4486 1.385 . S
C4488 C4486 1.478 . S
C4488 C4490 1.381 . S
C4488 C4494 1.383 . S
C4489 C4485 1.495 . S
C4489 H4495 0.959 . S
C4489 H4496 0.961 . S
C4489 H4497 0.960 . S
C4490 C4488 1.381 . S
C4490 C4491 1.394 . S
C4490 H4498 0.930 . S
C4491 C4490 1.394 . S
C4491 C4492 1.383 . S
C4491 H4499 0.929 . S
C4492 C4491 1.383 . S
C4492 C4493 1.377 . S
C4493 H4477 0.930 . S
C4493 C4492 1.377 . S
C4493 C4494 1.379 . S
C4494 H4478 0.931 . S
C4494 C4488 1.383 . S
C4494 C4493 1.379 . S
H4495 C4489 0.959 . S
H4496 C4489 0.961 . S
H4497 C4489 0.960 . S
H4498 C4490 0.930 . S
H4499 C4491 0.929 . S
H4500 C4508 0.929 . S
H4501 C4510 0.930 . S
H4502 C4512 0.930 . S
H4503 C4515 0.929 . S
H4504 C4518 0.930 . S
H4505 C4520 0.960 . S
H4506 C4520 0.960 . S
H4507 C4520 0.960 . S
C4508 H4500 0.929 . S
C4508 C4509 1.377 . S
C4508 C4510 1.384 . S
C4509 C4508 1.377 . S
C4509 C4515 1.390 . S
C4510 H4501 0.930 . S
C4510 C4508 1.384 . S
C4510 C4511 1.372 . S
C4511 C4510 1.372 . S
C4511 C4512 1.400 . S
C4511 C4516 1.490 . S
C4512 H4502 0.930 . S
C4512 C4511 1.400 . S
C4512 C4515 1.386 . S
H4513 C4529 0.930 . S
H4514 C4530 0.931 . S
C4515 H4503 0.929 . S
C4515 C4509 1.390 . S
C4515 C4512 1.386 . S
C4516 C4511 1.490 . S
C4516 C4518 1.395 . S
C4516 C4519 1.403 . S
H4517 C4523 0.930 . S
C4518 H4504 0.930 . S
C4518 C4516 1.395 . S
C4518 C4521 1.403 . S
C4519 C4516 1.403 . S
C4519 C4520 1.524 . S
C4519 C4523 1.400 . S
C4520 H4505 0.960 . S
C4520 H4506 0.960 . S
C4520 H4507 0.960 . S
C4520 C4519 1.524 . S
C4521 C4518 1.403 . S
C4521 C4522 1.392 . S
C4521 C4525 1.495 . S
C4522 C4521 1.392 . S
C4522 C4523 1.385 . S
C4522 C4524 1.478 . S
C4523 H4517 0.930 . S
C4523 C4519 1.400 . S
C4523 C4522 1.385 . S
C4524 C4522 1.478 . S
C4524 C4526 1.381 . S
C4524 C4530 1.383 . S
C4525 C4521 1.495 . S
C4525 H4531 0.959 . S
C4525 H4532 0.961 . S
C4525 H4533 0.960 . S
C4526 C4524 1.381 . S
C4526 C4527 1.394 . S
C4526 H4534 0.930 . S
C4527 C4526 1.394 . S
C4527 C4528 1.383 . S
C4527 H4535 0.929 . S
C4528 C4527 1.383 . S
C4528 C4529 1.377 . S
C4529 H4513 0.930 . S
C4529 C4528 1.377 . S
C4529 C4530 1.379 . S
C4530 H4514 0.931 . S
C4530 C4524 1.383 . S
C4530 C4529 1.379 . S
H4531 C4525 0.959 . S
H4532 C4525 0.961 . S
H4533 C4525 0.960 . S
H4534 C4526 0.930 . S
H4535 C4527 0.929 . S
H4536 C4544 0.929 . S
H4537 C4546 0.930 . S
H4538 C4548 0.930 . S
H4539 C4551 0.929 . S
H4540 C4554 0.930 . S
H4541 C4556 0.960 . S
H4542 C4556 0.960 . S
H4543 C4556 0.960 . S
C4544 H4536 0.929 . S
C4544 C4545 1.377 . S
C4544 C4546 1.384 . S
C4545 C4544 1.377 . S
C4545 C4551 1.390 . S
C4546 H4537 0.930 . S
C4546 C4544 1.384 . S
C4546 C4547 1.372 . S
C4547 C4546 1.372 . S
C4547 C4548 1.400 . S
C4547 C4552 1.490 . S
C4548 H4538 0.930 . S
C4548 C4547 1.400 . S
C4548 C4551 1.386 . S
H4549 C4565 0.930 . S
H4550 C4566 0.951 . S
C4551 H4539 0.929 . S
C4551 C4545 1.390 . S
C4551 C4548 1.386 . S
C4552 C4547 1.490 . S
C4552 C4554 1.395 . S
C4552 C4555 1.403 . S
H4553 C4559 0.930 . S
C4554 H4540 0.930 . S
C4554 C4552 1.395 . S
C4554 C4557 1.403 . S
C4555 C4552 1.403 . S
C4555 C4556 1.524 . S
C4555 C4559 1.400 . S
C4556 H4541 0.960 . S
C4556 H4542 0.960 . S
C4556 H4543 0.960 . S
C4556 C4555 1.524 . S
C4557 C4554 1.403 . S
C4557 C4558 1.392 . S
C4557 C4561 1.495 . S
C4558 C4557 1.392 . S
C4558 C4559 1.385 . S
C4558 C4560 1.478 . S
C4559 H4553 0.930 . S
C4559 C4555 1.400 . S
C4559 C4558 1.385 . S
C4560 C4558 1.478 . S
C4560 C4562 1.381 . S
C4560 C4566 1.383 . S
C4561 C4557 1.495 . S
C4561 H4567 0.959 . S
C4561 H4568 0.961 . S
C4561 H4569 0.960 . S
C4562 C4560 1.381 . S
C4562 C4563 1.394 1_565 S
C4562 H4570 0.930 . S
C4563 C4562 1.394 1_545 S
C4563 C4564 1.370 1_556 S
C4563 H4571 0.929 . S
C4564 C4563 1.370 1_554 S
C4564 C4565 1.384 1_545 S
C4565 H4549 0.930 . S
C4565 C4564 1.384 1_565 S
C4565 C4566 1.379 1_554 S
C4566 H4550 0.951 . S
C4566 C4560 1.383 . S
C4566 C4565 1.379 1_556 S
H4567 C4561 0.959 . S
H4568 C4561 0.961 . S
H4569 C4561 0.960 . S
H4570 C4562 0.930 . S
H4571 C4563 0.929 . S
H4572 C4580 0.929 . S
H4573 C4582 0.930 . S
H4574 C4584 0.930 . S
H4575 C4587 0.929 . S
H4576 C4590 0.930 . S
H4577 C4592 0.960 . S
H4578 C4592 0.960 . S
H4579 C4592 0.960 . S
C4580 H4572 0.929 . S
C4580 C4581 1.377 . S
C4580 C4582 1.384 . S
C4581 C4580 1.377 . S
C4581 C4587 1.390 . S
C4582 H4573 0.930 . S
C4582 C4580 1.384 . S
C4582 C4583 1.372 . S
C4583 C4582 1.372 . S
C4583 C4584 1.400 . S
C4583 C4588 1.490 . S
C4584 H4574 0.930 . S
C4584 C4583 1.400 . S
C4584 C4587 1.386 . S
H4585 C4601 0.930 . S
H4586 C4602 0.931 . S
C4587 H4575 0.929 . S
C4587 C4581 1.390 . S
C4587 C4584 1.386 . S
C4588 C4583 1.490 . S
C4588 C4590 1.395 . S
C4588 C4591 1.403 . S
H4589 C4595 0.930 . S
C4590 H4576 0.930 . S
C4590 C4588 1.395 . S
C4590 C4593 1.403 . S
C4591 C4588 1.403 . S
C4591 C4592 1.524 . S
C4591 C4595 1.400 . S
C4592 H4577 0.960 . S
C4592 H4578 0.960 . S
C4592 H4579 0.960 . S
C4592 C4591 1.524 . S
C4593 C4590 1.403 . S
C4593 C4594 1.392 . S
C4593 C4597 1.495 . S
C4594 C4593 1.392 . S
C4594 C4595 1.385 . S
C4594 C4596 1.478 . S
C4595 H4589 0.930 . S
C4595 C4591 1.400 . S
C4595 C4594 1.385 . S
C4596 C4594 1.478 . S
C4596 C4598 1.381 . S
C4596 C4602 1.383 . S
C4597 C4593 1.495 . S
C4597 H4603 0.959 . S
C4597 H4604 0.961 . S
C4597 H4605 0.960 . S
C4598 C4596 1.381 . S
C4598 C4599 1.394 . S
C4598 H4606 0.930 . S
C4599 C4598 1.394 . S
C4599 C4600 1.383 . S
C4599 H4607 0.929 . S
C4600 C4599 1.383 . S
C4600 C4601 1.377 . S
C4601 H4585 0.930 . S
C4601 C4600 1.377 . S
C4601 C4602 1.379 . S
C4602 H4586 0.931 . S
C4602 C4596 1.383 . S
C4602 C4601 1.379 . S
H4603 C4597 0.959 . S
H4604 C4597 0.961 . S
H4605 C4597 0.960 . S
H4606 C4598 0.930 . S
H4607 C4599 0.929 . S
H4608 C4616 0.929 . S
H4609 C4618 0.930 . S
H4610 C4620 0.930 . S
H4611 C4623 0.929 . S
H4612 C4626 0.930 . S
H4613 C4628 0.960 . S
H4614 C4628 0.960 1_565 S
H4615 C4628 0.960 . S
C4616 H4608 0.929 . S
C4616 C4617 1.377 1_565 S
C4616 C4618 1.384 . S
C4617 C4616 1.377 1_545 S
C4617 C4623 1.390 . S
C4618 H4609 0.930 . S
C4618 C4616 1.384 . S
C4618 C4619 1.372 1_565 S
C4619 C4618 1.372 1_545 S
C4619 C4620 1.400 . S
C4619 C4624 1.490 . S
C4620 H4610 0.930 . S
C4620 C4619 1.400 . S
C4620 C4623 1.386 . S
H4621 C4637 0.930 . S
H4622 C4638 0.931 . S
C4623 H4611 0.929 . S
C4623 C4617 1.390 . S
C4623 C4620 1.386 . S
C4624 C4619 1.490 . S
C4624 C4626 1.395 . S
C4624 C4627 1.403 . S
H4625 C4631 0.930 . S
C4626 H4612 0.930 . S
C4626 C4624 1.395 . S
C4626 C4629 1.403 . S
C4627 C4624 1.403 . S
C4627 C4628 1.524 . S
C4627 C4631 1.400 . S
C4628 H4613 0.960 . S
C4628 H4614 0.960 1_545 S
C4628 H4615 0.960 . S
C4628 C4627 1.524 . S
C4629 C4626 1.403 . S
C4629 C4630 1.392 . S
C4629 C4633 1.495 . S
C4630 C4629 1.392 . S
C4630 C4631 1.385 . S
C4630 C4632 1.478 . S
C4631 H4625 0.930 . S
C4631 C4627 1.400 . S
C4631 C4630 1.385 . S
C4632 C4630 1.478 . S
C4632 C4634 1.381 . S
C4632 C4638 1.383 . S
C4633 C4629 1.495 . S
C4633 H4639 0.959 . S
C4633 H4640 0.961 . S
C4633 H4641 0.960 . S
C4634 C4632 1.381 . S
C4634 C4635 1.394 . S
C4634 H4642 0.930 1_545 S
C4635 C4634 1.394 . S
C4635 C4636 1.383 . S
C4635 H4643 0.929 1_545 S
C4636 C4635 1.383 . S
C4636 C4637 1.377 . S
C4637 H4621 0.930 . S
C4637 C4636 1.377 . S
C4637 C4638 1.379 . S
C4638 H4622 0.931 . S
C4638 C4632 1.383 . S
C4638 C4637 1.379 . S
H4639 C4633 0.959 . S
H4640 C4633 0.961 . S
H4641 C4633 0.960 . S
H4642 C4634 0.930 1_565 S
H4643 C4635 0.929 1_565 S
H4644 C4652 0.929 . S
H4645 C4654 0.930 . S
H4646 C4656 0.930 . S
H4647 C4659 0.929 . S
H4648 C4662 0.930 . S
H4649 C4664 0.960 . S
H4650 C4664 0.960 . S
H4651 C4664 0.960 . S
C4652 H4644 0.929 . S
C4652 C4653 1.377 . S
C4652 C4654 1.384 . S
C4653 C4652 1.377 . S
C4653 C4659 1.390 . S
C4654 H4645 0.930 . S
C4654 C4652 1.384 . S
C4654 C4655 1.372 . S
C4655 C4654 1.372 . S
C4655 C4656 1.400 . S
C4655 C4660 1.490 . S
C4656 H4646 0.930 . S
C4656 C4655 1.400 . S
C4656 C4659 1.386 . S
H4657 C4673 0.930 . S
H4658 C4674 0.931 . S
C4659 H4647 0.929 . S
C4659 C4653 1.390 . S
C4659 C4656 1.386 . S
C4660 C4655 1.490 . S
C4660 C4662 1.395 . S
C4660 C4663 1.403 . S
H4661 C4667 0.930 . S
C4662 H4648 0.930 . S
C4662 C4660 1.395 . S
C4662 C4665 1.403 . S
C4663 C4660 1.403 . S
C4663 C4664 1.524 . S
C4663 C4667 1.400 . S
C4664 H4649 0.960 . S
C4664 H4650 0.960 . S
C4664 H4651 0.960 . S
C4664 C4663 1.524 . S
C4665 C4662 1.403 . S
C4665 C4666 1.392 . S
C4665 C4669 1.495 . S
C4666 C4665 1.392 . S
C4666 C4667 1.385 . S
C4666 C4668 1.478 . S
C4667 H4661 0.930 . S
C4667 C4663 1.400 . S
C4667 C4666 1.385 . S
C4668 C4666 1.478 . S
C4668 C4670 1.381 . S
C4668 C4674 1.383 . S
C4669 C4665 1.495 . S
C4669 H4675 0.959 . S
C4669 H4676 0.961 . S
C4669 H4677 0.960 . S
C4670 C4668 1.381 . S
C4670 C4671 1.394 . S
C4670 H4678 0.930 . S
C4671 C4670 1.394 . S
C4671 C4672 1.383 . S
C4671 H4679 0.929 . S
C4672 C4671 1.383 . S
C4672 C4673 1.377 . S
C4673 H4657 0.930 . S
C4673 C4672 1.377 . S
C4673 C4674 1.379 . S
C4674 H4658 0.931 . S
C4674 C4668 1.383 . S
C4674 C4673 1.379 . S
H4675 C4669 0.959 . S
H4676 C4669 0.961 . S
H4677 C4669 0.960 . S
H4678 C4670 0.930 . S
H4679 C4671 0.929 . S
H4680 C4688 0.929 . S
H4681 C4690 0.930 . S
H4682 C4692 0.930 . S
H4683 C4695 0.929 . S
H4684 C4698 0.930 . S
H4685 C4700 0.960 . S
H4686 C4700 0.960 . S
H4687 C4700 0.960 . S
C4688 H4680 0.929 . S
C4688 C4689 1.377 . S
C4688 C4690 1.384 . S
C4689 C4688 1.377 . S
C4689 C4695 1.390 . S
C4690 H4681 0.930 . S
C4690 C4688 1.384 . S
C4690 C4691 1.372 . S
C4691 C4690 1.372 . S
C4691 C4692 1.400 . S
C4691 C4696 1.490 . S
C4692 H4682 0.930 . S
C4692 C4691 1.400 . S
C4692 C4695 1.386 . S
H4693 C4709 0.930 . S
H4694 C4710 0.931 . S
C4695 H4683 0.929 . S
C4695 C4689 1.390 . S
C4695 C4692 1.386 . S
C4696 C4691 1.490 . S
C4696 C4698 1.395 . S
C4696 C4699 1.403 . S
H4697 C4703 0.930 . S
C4698 H4684 0.930 . S
C4698 C4696 1.395 . S
C4698 C4701 1.403 . S
C4699 C4696 1.403 . S
C4699 C4700 1.524 . S
C4699 C4703 1.400 . S
C4700 H4685 0.960 . S
C4700 H4686 0.960 . S
C4700 H4687 0.960 . S
C4700 C4699 1.524 . S
C4701 C4698 1.403 . S
C4701 C4702 1.392 . S
C4701 C4705 1.495 . S
C4702 C4701 1.392 . S
C4702 C4703 1.385 . S
C4702 C4704 1.478 . S
C4703 H4697 0.930 . S
C4703 C4699 1.400 . S
C4703 C4702 1.385 . S
C4704 C4702 1.478 . S
C4704 C4706 1.381 . S
C4704 C4710 1.383 . S
C4705 C4701 1.495 . S
C4705 H4711 0.959 . S
C4705 H4712 0.961 . S
C4705 H4713 0.960 . S
C4706 C4704 1.381 . S
C4706 C4707 1.394 . S
C4706 H4714 0.930 . S
C4707 C4706 1.394 . S
C4707 C4708 1.383 . S
C4707 H4715 0.929 . S
C4708 C4707 1.383 . S
C4708 C4709 1.377 . S
C4709 H4693 0.930 . S
C4709 C4708 1.377 . S
C4709 C4710 1.379 . S
C4710 H4694 0.931 . S
C4710 C4704 1.383 . S
C4710 C4709 1.379 . S
H4711 C4705 0.959 . S
H4712 C4705 0.961 . S
H4713 C4705 0.960 . S
H4714 C4706 0.930 . S
H4715 C4707 0.929 . S
H4716 C4724 0.929 . S
H4717 C4726 0.930 . S
H4718 C4728 0.930 . S
H4719 C4731 0.929 . S
H4720 C4734 0.930 . S
H4721 C4736 0.960 . S
H4722 C4736 0.960 . S
H4723 C4736 0.960 . S
C4724 H4716 0.929 . S
C4724 C4725 1.377 . S
C4724 C4726 1.384 . S
C4725 C4724 1.377 . S
C4725 C4731 1.390 . S
C4726 H4717 0.930 . S
C4726 C4724 1.384 . S
C4726 C4727 1.372 . S
C4727 C4726 1.372 . S
C4727 C4728 1.400 . S
C4727 C4732 1.490 . S
C4728 H4718 0.930 . S
C4728 C4727 1.400 . S
C4728 C4731 1.386 . S
H4729 C4745 0.930 . S
H4730 C4746 0.931 . S
C4731 H4719 0.929 . S
C4731 C4725 1.390 . S
C4731 C4728 1.386 . S
C4732 C4727 1.490 . S
C4732 C4734 1.395 . S
C4732 C4735 1.403 . S
H4733 C4739 0.930 . S
C4734 H4720 0.930 . S
C4734 C4732 1.395 . S
C4734 C4737 1.403 . S
C4735 C4732 1.403 . S
C4735 C4736 1.524 . S
C4735 C4739 1.400 . S
C4736 H4721 0.960 . S
C4736 H4722 0.960 . S
C4736 H4723 0.960 . S
C4736 C4735 1.524 . S
C4737 C4734 1.403 . S
C4737 C4738 1.392 . S
C4737 C4741 1.495 . S
C4738 C4737 1.392 . S
C4738 C4739 1.385 . S
C4738 C4740 1.478 . S
C4739 H4733 0.930 . S
C4739 C4735 1.400 . S
C4739 C4738 1.385 . S
C4740 C4738 1.478 . S
C4740 C4742 1.381 . S
C4740 C4746 1.383 . S
C4741 C4737 1.495 . S
C4741 H4747 0.959 . S
C4741 H4748 0.961 . S
C4741 H4749 0.960 . S
C4742 C4740 1.381 . S
C4742 C4743 1.394 . S
C4742 H4750 0.930 . S
C4743 C4742 1.394 . S
C4743 C4744 1.383 . S
C4743 H4751 0.929 . S
C4744 C4743 1.383 . S
C4744 C4745 1.377 . S
C4745 H4729 0.930 . S
C4745 C4744 1.377 . S
C4745 C4746 1.379 . S
C4746 H4730 0.931 . S
C4746 C4740 1.383 . S
C4746 C4745 1.379 . S
H4747 C4741 0.959 . S
H4748 C4741 0.961 . S
H4749 C4741 0.960 . S
H4750 C4742 0.930 . S
H4751 C4743 0.929 . S
H4752 C4760 0.929 . S
H4753 C4762 0.930 . S
H4754 C4764 0.930 . S
H4755 C4767 0.937 . S
H4756 C4770 0.930 . S
H4757 C4772 0.960 . S
H4758 C4772 0.960 . S
H4759 C4772 0.960 . S
C4760 H4752 0.929 . S
C4760 C4761 1.377 . S
C4760 C4762 1.384 . S
C4761 C4760 1.377 . S
C4761 C4767 1.355 1_565 S
C4762 H4753 0.930 . S
C4762 C4760 1.384 . S
C4762 C4763 1.380 . S
C4763 C4762 1.380 . S
C4763 C4764 1.399 1_565 S
C4763 C4768 1.483 1_565 S
C4764 H4754 0.930 . S
C4764 C4763 1.399 1_545 S
C4764 C4767 1.417 . S
H4765 C4781 0.930 . S
H4766 C4782 0.931 . S
C4767 H4755 0.937 . S
C4767 C4761 1.355 1_545 S
C4767 C4764 1.417 . S
C4768 C4763 1.483 1_545 S
C4768 C4770 1.395 . S
C4768 C4771 1.403 . S
H4769 C4775 0.930 . S
C4770 H4756 0.930 . S
C4770 C4768 1.395 . S
C4770 C4773 1.403 . S
C4771 C4768 1.403 . S
C4771 C4772 1.524 1_545 S
C4771 C4775 1.400 . S
C4772 H4757 0.960 . S
C4772 H4758 0.960 . S
C4772 H4759 0.960 . S
C4772 C4771 1.524 1_565 S
C4773 C4770 1.403 . S
C4773 C4774 1.392 . S
C4773 C4777 1.495 . S
C4774 C4773 1.392 . S
C4774 C4775 1.385 . S
C4774 C4776 1.478 . S
C4775 H4769 0.930 . S
C4775 C4771 1.400 . S
C4775 C4774 1.385 . S
C4776 C4774 1.478 . S
C4776 C4778 1.381 . S
C4776 C4782 1.383 . S
C4777 C4773 1.495 . S
C4777 H4783 0.959 . S
C4777 H4784 0.961 . S
C4777 H4785 0.960 . S
C4778 C4776 1.381 . S
C4778 C4779 1.394 . S
C4778 H4786 0.930 . S
C4779 C4778 1.394 . S
C4779 C4780 1.383 . S
C4779 H4787 0.929 . S
C4780 C4779 1.383 . S
C4780 C4781 1.377 . S
C4781 H4765 0.930 . S
C4781 C4780 1.377 . S
C4781 C4782 1.379 . S
C4782 H4766 0.931 . S
C4782 C4776 1.383 . S
C4782 C4781 1.379 . S
H4783 C4777 0.959 . S
H4784 C4777 0.961 . S
H4785 C4777 0.960 . S
H4786 C4778 0.930 . S
H4787 C4779 0.929 . S
H4788 C4796 0.929 . S
H4789 C4798 0.930 . S
H4790 C4800 0.930 . S
H4791 C4803 0.929 . S
H4792 C4806 0.930 . S
H4793 C4808 0.960 . S
H4794 C4808 0.960 . S
H4795 C4808 0.960 . S
C4796 H4788 0.929 . S
C4796 C4797 1.377 . S
C4796 C4798 1.384 . S
C4797 C4796 1.377 . S
C4797 C4803 1.390 . S
C4798 H4789 0.930 . S
C4798 C4796 1.384 . S
C4798 C4799 1.372 . S
C4799 C4798 1.372 . S
C4799 C4800 1.400 . S
C4799 C4804 1.490 . S
C4800 H4790 0.930 . S
C4800 C4799 1.400 . S
C4800 C4803 1.386 . S
H4801 C4817 0.930 . S
H4802 C4818 0.931 . S
C4803 H4791 0.929 . S
C4803 C4797 1.390 . S
C4803 C4800 1.386 . S
C4804 C4799 1.490 . S
C4804 C4806 1.395 . S
C4804 C4807 1.403 . S
H4805 C4811 0.930 . S
C4806 H4792 0.930 . S
C4806 C4804 1.395 . S
C4806 C4809 1.403 . S
C4807 C4804 1.403 . S
C4807 C4808 1.524 . S
C4807 C4811 1.400 . S
C4808 H4793 0.960 . S
C4808 H4794 0.960 . S
C4808 H4795 0.960 . S
C4808 C4807 1.524 . S
C4809 C4806 1.403 . S
C4809 C4810 1.392 . S
C4809 C4813 1.495 . S
C4810 C4809 1.392 . S
C4810 C4811 1.385 . S
C4810 C4812 1.478 . S
C4811 H4805 0.930 . S
C4811 C4807 1.400 . S
C4811 C4810 1.385 . S
C4812 C4810 1.478 . S
C4812 C4814 1.381 . S
C4812 C4818 1.383 . S
C4813 C4809 1.495 . S
C4813 H4819 0.959 . S
C4813 H4820 0.961 . S
C4813 H4821 0.960 . S
C4814 C4812 1.381 . S
C4814 C4815 1.394 . S
C4814 H4822 0.930 . S
C4815 C4814 1.394 . S
C4815 C4816 1.383 . S
C4815 H4823 0.929 . S
C4816 C4815 1.383 . S
C4816 C4817 1.377 . S
C4817 H4801 0.930 . S
C4817 C4816 1.377 . S
C4817 C4818 1.379 . S
C4818 H4802 0.931 . S
C4818 C4812 1.383 . S
C4818 C4817 1.379 . S
H4819 C4813 0.959 . S
H4820 C4813 0.961 . S
H4821 C4813 0.960 . S
H4822 C4814 0.930 . S
H4823 C4815 0.929 . S
H4824 C4832 0.929 . S
H4825 C4834 0.930 . S
H4826 C4836 0.930 . S
H4827 C4839 0.929 . S
H4828 C4842 0.930 . S
H4829 C4844 0.960 . S
H4830 C4844 0.960 . S
H4831 C4844 0.960 . S
C4832 H4824 0.929 . S
C4832 C4833 1.377 . S
C4832 C4834 1.384 . S
C4833 C4832 1.377 . S
C4833 C4839 1.390 . S
C4834 H4825 0.930 . S
C4834 C4832 1.384 . S
C4834 C4835 1.372 . S
C4835 C4834 1.372 . S
C4835 C4836 1.400 . S
C4835 C4840 1.490 . S
C4836 H4826 0.930 . S
C4836 C4835 1.400 . S
C4836 C4839 1.386 . S
H4837 C4853 0.930 . S
H4838 C4854 0.931 . S
C4839 H4827 0.929 . S
C4839 C4833 1.390 . S
C4839 C4836 1.386 . S
C4840 C4835 1.490 . S
C4840 C4842 1.395 . S
C4840 C4843 1.403 . S
H4841 C4847 0.930 . S
C4842 H4828 0.930 . S
C4842 C4840 1.395 . S
C4842 C4845 1.403 . S
C4843 C4840 1.403 . S
C4843 C4844 1.524 . S
C4843 C4847 1.400 . S
C4844 H4829 0.960 . S
C4844 H4830 0.960 . S
C4844 H4831 0.960 . S
C4844 C4843 1.524 . S
C4845 C4842 1.403 . S
C4845 C4846 1.392 . S
C4845 C4849 1.495 1_545 S
C4846 C4845 1.392 . S
C4846 C4847 1.385 . S
C4846 C4848 1.478 . S
C4847 H4841 0.930 . S
C4847 C4843 1.400 . S
C4847 C4846 1.385 . S
C4848 C4846 1.478 . S
C4848 C4850 1.381 . S
C4848 C4854 1.383 . S
C4849 C4845 1.495 1_565 S
C4849 H4855 0.959 . S
C4849 H4856 0.961 . S
C4849 H4857 0.960 . S
C4850 C4848 1.381 . S
C4850 C4851 1.394 . S
C4850 H4858 0.930 . S
C4851 C4850 1.394 . S
C4851 C4852 1.383 . S
C4851 H4859 0.929 . S
C4852 C4851 1.383 . S
C4852 C4853 1.377 . S
C4853 H4837 0.930 . S
C4853 C4852 1.377 . S
C4853 C4854 1.379 . S
C4854 H4838 0.931 . S
C4854 C4848 1.383 . S
C4854 C4853 1.379 . S
H4855 C4849 0.959 . S
H4856 C4849 0.961 . S
H4857 C4849 0.960 . S
H4858 C4850 0.930 . S
H4859 C4851 0.929 . S
H4860 C4868 0.929 . S
H4861 C4870 0.930 . S
H4862 C4872 0.930 . S
H4863 C4875 0.929 . S
H4864 C4878 0.930 . S
H4865 C4880 0.960 . S
H4866 C4880 0.960 . S
H4867 C4880 0.960 . S
C4868 H4860 0.929 . S
C4868 C4869 1.377 . S
C4868 C4870 1.384 . S
C4869 C4868 1.377 . S
C4869 C4875 1.390 . S
C4870 H4861 0.930 . S
C4870 C4868 1.384 . S
C4870 C4871 1.372 . S
C4871 C4870 1.372 . S
C4871 C4872 1.400 . S
C4871 C4876 1.490 . S
C4872 H4862 0.930 . S
C4872 C4871 1.400 . S
C4872 C4875 1.386 . S
H4873 C4889 0.930 . S
H4874 C4890 0.931 . S
C4875 H4863 0.929 . S
C4875 C4869 1.390 . S
C4875 C4872 1.386 . S
C4876 C4871 1.490 . S
C4876 C4878 1.395 . S
C4876 C4879 1.403 . S
H4877 C4883 0.930 . S
C4878 H4864 0.930 . S
C4878 C4876 1.395 . S
C4878 C4881 1.403 . S
C4879 C4876 1.403 . S
C4879 C4880 1.524 . S
C4879 C4883 1.400 . S
C4880 H4865 0.960 . S
C4880 H4866 0.960 . S
C4880 H4867 0.960 . S
C4880 C4879 1.524 . S
C4881 C4878 1.403 . S
C4881 C4882 1.392 . S
C4881 C4885 1.495 . S
C4882 C4881 1.392 . S
C4882 C4883 1.385 . S
C4882 C4884 1.478 . S
C4883 H4877 0.930 . S
C4883 C4879 1.400 . S
C4883 C4882 1.385 . S
C4884 C4882 1.478 . S
C4884 C4886 1.381 . S
C4884 C4890 1.383 . S
C4885 C4881 1.495 . S
C4885 H4891 0.959 . S
C4885 H4892 0.961 . S
C4885 H4893 0.960 . S
C4886 C4884 1.381 . S
C4886 C4887 1.394 . S
C4886 H4894 0.930 . S
C4887 C4886 1.394 . S
C4887 C4888 1.383 . S
C4887 H4895 0.929 . S
C4888 C4887 1.383 . S
C4888 C4889 1.377 . S
C4889 H4873 0.930 . S
C4889 C4888 1.377 . S
C4889 C4890 1.379 . S
C4890 H4874 0.931 . S
C4890 C4884 1.383 . S
C4890 C4889 1.379 . S
H4891 C4885 0.959 . S
H4892 C4885 0.961 . S
H4893 C4885 0.960 . S
H4894 C4886 0.930 . S
H4895 C4887 0.929 . S
H4896 C4904 0.929 . S
H4897 C4906 0.930 . S
H4898 C4908 0.930 . S
H4899 C4911 0.929 . S
H4900 C4914 0.930 . S
H4901 C4916 0.960 . S
H4902 C4916 0.960 . S
H4903 C4916 0.960 . S
C4904 H4896 0.929 . S
C4904 C4905 1.377 . S
C4904 C4906 1.384 . S
C4905 C4904 1.377 . S
C4905 C4911 1.390 . S
C4906 H4897 0.930 . S
C4906 C4904 1.384 . S
C4906 C4907 1.372 . S
C4907 C4906 1.372 . S
C4907 C4908 1.400 . S
C4907 C4912 1.490 . S
C4908 H4898 0.930 . S
C4908 C4907 1.400 . S
C4908 C4911 1.386 . S
H4909 C4925 0.930 . S
H4910 C4926 0.931 . S
C4911 H4899 0.929 . S
C4911 C4905 1.390 . S
C4911 C4908 1.386 . S
C4912 C4907 1.490 . S
C4912 C4914 1.395 . S
C4912 C4915 1.403 . S
H4913 C4919 0.930 1_556 S
C4914 H4900 0.930 . S
C4914 C4912 1.395 . S
C4914 C4917 1.403 . S
C4915 C4912 1.403 . S
C4915 C4916 1.524 1_554 S
C4915 C4919 1.400 . S
C4916 H4901 0.960 . S
C4916 H4902 0.960 . S
C4916 H4903 0.960 . S
C4916 C4915 1.524 1_556 S
C4917 C4914 1.403 . S
C4917 C4918 1.392 . S
C4917 C4921 1.495 . S
C4918 C4917 1.392 . S
C4918 C4919 1.385 . S
C4918 C4920 1.478 . S
C4919 H4913 0.930 1_554 S
C4919 C4915 1.400 . S
C4919 C4918 1.385 . S
C4920 C4918 1.478 . S
C4920 C4922 1.381 . S
C4920 C4926 1.383 . S
C4921 C4917 1.495 . S
C4921 H4927 0.959 . S
C4921 H4928 0.961 . S
C4921 H4929 0.960 . S
C4922 C4920 1.381 . S
C4922 C4923 1.394 . S
C4922 H4930 0.930 . S
C4923 C4922 1.394 . S
C4923 C4924 1.383 . S
C4923 H4931 0.929 . S
C4924 C4923 1.383 . S
C4924 C4925 1.377 . S
C4925 H4909 0.930 . S
C4925 C4924 1.377 . S
C4925 C4926 1.379 . S
C4926 H4910 0.931 . S
C4926 C4920 1.383 . S
C4926 C4925 1.379 . S
H4927 C4921 0.959 . S
H4928 C4921 0.961 . S
H4929 C4921 0.960 . S
H4930 C4922 0.930 . S
H4931 C4923 0.929 . S
H4932 C4940 0.929 . S
H4933 C4942 0.930 . S
H4934 C4944 0.930 . S
H4935 C4947 0.929 . S
H4936 C4950 0.930 . S
H4937 C4952 0.960 . S
H4938 C4952 0.960 . S
H4939 C4952 0.960 . S
C4940 H4932 0.929 . S
C4940 C4941 1.377 . S
C4940 C4942 1.384 . S
C4941 C4940 1.377 . S
C4941 C4947 1.390 . S
C4942 H4933 0.930 . S
C4942 C4940 1.384 . S
C4942 C4943 1.372 . S
C4943 C4942 1.372 . S
C4943 C4944 1.400 . S
C4943 C4948 1.490 . S
C4944 H4934 0.930 . S
C4944 C4943 1.400 . S
C4944 C4947 1.386 . S
H4945 C4961 0.930 . S
H4946 C4962 0.931 . S
C4947 H4935 0.929 . S
C4947 C4941 1.390 . S
C4947 C4944 1.386 . S
C4948 C4943 1.490 . S
C4948 C4950 1.395 . S
C4948 C4951 1.403 . S
H4949 C4955 0.930 . S
C4950 H4936 0.930 . S
C4950 C4948 1.395 . S
C4950 C4953 1.403 . S
C4951 C4948 1.403 . S
C4951 C4952 1.524 . S
C4951 C4955 1.400 . S
C4952 H4937 0.960 . S
C4952 H4938 0.960 . S
C4952 H4939 0.960 . S
C4952 C4951 1.524 . S
C4953 C4950 1.403 . S
C4953 C4954 1.392 . S
C4953 C4957 1.495 . S
C4954 C4953 1.392 . S
C4954 C4955 1.385 . S
C4954 C4956 1.478 . S
C4955 H4949 0.930 . S
C4955 C4951 1.400 . S
C4955 C4954 1.385 . S
C4956 C4954 1.478 . S
C4956 C4958 1.381 . S
C4956 C4962 1.383 . S
C4957 C4953 1.495 . S
C4957 H4963 0.959 . S
C4957 H4964 0.961 . S
C4957 H4965 0.960 . S
C4958 C4956 1.381 . S
C4958 C4959 1.394 . S
C4958 H4966 0.930 . S
C4959 C4958 1.394 . S
C4959 C4960 1.383 . S
C4959 H4967 0.929 . S
C4960 C4959 1.383 . S
C4960 C4961 1.377 . S
C4961 H4945 0.930 . S
C4961 C4960 1.377 . S
C4961 C4962 1.379 . S
C4962 H4946 0.931 . S
C4962 C4956 1.383 . S
C4962 C4961 1.379 . S
H4963 C4957 0.959 . S
H4964 C4957 0.961 . S
H4965 C4957 0.960 . S
H4966 C4958 0.930 . S
H4967 C4959 0.929 . S
H4968 C4976 0.929 . S
H4969 C4978 0.930 . S
H4970 C4980 0.930 . S
H4971 C4983 0.929 . S
H4972 C4986 0.930 . S
H4973 C4988 0.960 . S
H4974 C4988 0.960 . S
H4975 C4988 0.960 . S
C4976 H4968 0.929 . S
C4976 C4977 1.377 . S
C4976 C4978 1.384 . S
C4977 C4976 1.377 . S
C4977 C4983 1.390 . S
C4978 H4969 0.930 . S
C4978 C4976 1.384 . S
C4978 C4979 1.372 . S
C4979 C4978 1.372 . S
C4979 C4980 1.400 . S
C4979 C4984 1.490 . S
C4980 H4970 0.930 . S
C4980 C4979 1.400 . S
C4980 C4983 1.386 . S
H4981 C4997 0.930 . S
H4982 C4998 0.931 . S
C4983 H4971 0.929 . S
C4983 C4977 1.390 . S
C4983 C4980 1.386 . S
C4984 C4979 1.490 . S
C4984 C4986 1.395 . S
C4984 C4987 1.403 . S
H4985 C4991 0.930 . S
C4986 H4972 0.930 . S
C4986 C4984 1.395 . S
C4986 C4989 1.403 . S
C4987 C4984 1.403 . S
C4987 C4988 1.524 . S
C4987 C4991 1.400 . S
C4988 H4973 0.960 . S
C4988 H4974 0.960 . S
C4988 H4975 0.960 . S
C4988 C4987 1.524 . S
C4989 C4986 1.403 . S
C4989 C4990 1.392 . S
C4989 C4993 1.495 . S
C4990 C4989 1.392 . S
C4990 C4991 1.385 . S
C4990 C4992 1.478 . S
C4991 H4985 0.930 . S
C4991 C4987 1.400 . S
C4991 C4990 1.385 . S
C4992 C4990 1.478 . S
C4992 C4994 1.381 . S
C4992 C4998 1.383 . S
C4993 C4989 1.495 . S
C4993 H4999 0.959 . S
C4993 H5000 0.961 . S
C4993 H5001 0.960 . S
C4994 C4992 1.381 . S
C4994 C4995 1.394 . S
C4994 H5002 0.930 . S
C4995 C4994 1.394 . S
C4995 C4996 1.383 . S
C4995 H5003 0.929 . S
C4996 C4995 1.383 . S
C4996 C4997 1.377 . S
C4997 H4981 0.930 . S
C4997 C4996 1.377 . S
C4997 C4998 1.379 . S
C4998 H4982 0.931 . S
C4998 C4992 1.383 . S
C4998 C4997 1.379 . S
H4999 C4993 0.959 . S
H5000 C4993 0.961 . S
H5001 C4993 0.960 . S
H5002 C4994 0.930 . S
H5003 C4995 0.929 . S
H5004 C5012 0.929 . S
H5005 C5014 0.930 . S
H5006 C5016 0.930 . S
H5007 C5019 0.929 . S
H5008 C5022 0.930 . S
H5009 C5024 0.960 . S
H5010 C5024 0.960 . S
H5011 C5024 0.960 . S
C5012 H5004 0.929 . S
C5012 C5013 1.377 . S
C5012 C5014 1.384 . S
C5013 C5012 1.377 . S
C5013 C5019 1.390 . S
C5014 H5005 0.930 . S
C5014 C5012 1.384 . S
C5014 C5015 1.372 . S
C5015 C5014 1.372 . S
C5015 C5016 1.400 . S
C5015 C5020 1.490 . S
C5016 H5006 0.930 . S
C5016 C5015 1.400 . S
C5016 C5019 1.386 . S
H5017 C5033 0.930 . S
H5018 C5034 0.931 . S
C5019 H5007 0.929 . S
C5019 C5013 1.390 . S
C5019 C5016 1.386 . S
C5020 C5015 1.490 . S
C5020 C5022 1.395 . S
C5020 C5023 1.403 . S
H5021 C5027 0.930 . S
C5022 H5008 0.930 . S
C5022 C5020 1.395 . S
C5022 C5025 1.403 . S
C5023 C5020 1.403 . S
C5023 C5024 1.524 . S
C5023 C5027 1.400 . S
C5024 H5009 0.960 . S
C5024 H5010 0.960 . S
C5024 H5011 0.960 . S
C5024 C5023 1.524 . S
C5025 C5022 1.403 . S
C5025 C5026 1.392 . S
C5025 C5029 1.495 . S
C5026 C5025 1.392 . S
C5026 C5027 1.385 . S
C5026 C5028 1.478 . S
C5027 H5021 0.930 . S
C5027 C5023 1.400 . S
C5027 C5026 1.385 . S
C5028 C5026 1.478 . S
C5028 C5030 1.381 . S
C5028 C5034 1.383 . S
C5029 C5025 1.495 . S
C5029 H5035 0.959 . S
C5029 H5036 0.961 . S
C5029 H5037 0.960 . S
C5030 C5028 1.381 . S
C5030 C5031 1.394 . S
C5030 H5038 0.930 . S
C5031 C5030 1.394 . S
C5031 C5032 1.383 . S
C5031 H5039 0.929 . S
C5032 C5031 1.383 . S
C5032 C5033 1.377 . S
C5033 H5017 0.930 . S
C5033 C5032 1.377 . S
C5033 C5034 1.379 . S
C5034 H5018 0.931 . S
C5034 C5028 1.383 . S
C5034 C5033 1.379 . S
H5035 C5029 0.959 . S
H5036 C5029 0.961 . S
H5037 C5029 0.960 . S
H5038 C5030 0.930 . S
H5039 C5031 0.929 . S
H5040 C5048 0.929 . S
H5041 C5050 0.930 . S
H5042 C5052 0.930 . S
H5043 C5055 0.929 . S
H5044 C5058 0.930 . S
H5045 C5060 0.960 . S
H5046 C5060 0.960 . S
H5047 C5060 0.960 . S
C5048 H5040 0.929 . S
C5048 C5049 1.377 . S
C5048 C5050 1.384 . S
C5049 C5048 1.377 . S
C5049 C5055 1.390 . S
C5050 H5041 0.930 . S
C5050 C5048 1.384 . S
C5050 C5051 1.372 . S
C5051 C5050 1.372 . S
C5051 C5052 1.400 . S
C5051 C5056 1.490 . S
C5052 H5042 0.930 . S
C5052 C5051 1.400 . S
C5052 C5055 1.386 . S
H5053 C5069 0.930 . S
H5054 C5070 0.931 . S
C5055 H5043 0.929 . S
C5055 C5049 1.390 . S
C5055 C5052 1.386 . S
C5056 C5051 1.490 . S
C5056 C5058 1.395 . S
C5056 C5059 1.403 . S
H5057 C5063 0.930 . S
C5058 H5044 0.930 . S
C5058 C5056 1.395 . S
C5058 C5061 1.403 . S
C5059 C5056 1.403 . S
C5059 C5060 1.524 . S
C5059 C5063 1.400 . S
C5060 H5045 0.960 . S
C5060 H5046 0.960 . S
C5060 H5047 0.960 . S
C5060 C5059 1.524 . S
C5061 C5058 1.403 . S
C5061 C5062 1.392 . S
C5061 C5065 1.495 . S
C5062 C5061 1.392 . S
C5062 C5063 1.385 . S
C5062 C5064 1.478 . S
C5063 H5057 0.930 . S
C5063 C5059 1.400 . S
C5063 C5062 1.385 . S
C5064 C5062 1.478 . S
C5064 C5066 1.381 . S
C5064 C5070 1.383 . S
C5065 C5061 1.495 . S
C5065 H5071 0.959 . S
C5065 H5072 0.961 . S
C5065 H5073 0.960 . S
C5066 C5064 1.381 . S
C5066 C5067 1.394 . S
C5066 H5074 0.930 . S
C5067 C5066 1.394 . S
C5067 C5068 1.383 . S
C5067 H5075 0.929 . S
C5068 C5067 1.383 . S
C5068 C5069 1.377 . S
C5069 H5053 0.930 . S
C5069 C5068 1.377 . S
C5069 C5070 1.379 . S
C5070 H5054 0.931 . S
C5070 C5064 1.383 . S
C5070 C5069 1.379 . S
H5071 C5065 0.959 . S
H5072 C5065 0.961 . S
H5073 C5065 0.960 . S
H5074 C5066 0.930 . S
H5075 C5067 0.929 . S
H5076 C5084 0.929 . S
H5077 C5086 0.930 . S
H5078 C5088 0.930 . S
H5079 C5091 0.929 . S
H5080 C5094 0.930 . S
H5081 C5096 0.960 . S
H5082 C5096 0.960 . S
H5083 C5096 0.960 . S
C5084 H5076 0.929 . S
C5084 C5085 1.377 . S
C5084 C5086 1.384 . S
C5085 C5084 1.377 . S
C5085 C5091 1.390 . S
C5086 H5077 0.930 . S
C5086 C5084 1.384 . S
C5086 C5087 1.372 . S
C5087 C5086 1.372 . S
C5087 C5088 1.400 . S
C5087 C5092 1.490 . S
C5088 H5078 0.930 . S
C5088 C5087 1.400 . S
C5088 C5091 1.386 . S
H5089 C5105 0.930 . S
H5090 C5106 0.931 . S
C5091 H5079 0.929 . S
C5091 C5085 1.390 . S
C5091 C5088 1.386 . S
C5092 C5087 1.490 . S
C5092 C5094 1.395 . S
C5092 C5095 1.403 . S
H5093 C5099 0.930 . S
C5094 H5080 0.930 . S
C5094 C5092 1.395 . S
C5094 C5097 1.403 . S
C5095 C5092 1.403 . S
C5095 C5096 1.524 . S
C5095 C5099 1.400 . S
C5096 H5081 0.960 . S
C5096 H5082 0.960 . S
C5096 H5083 0.960 . S
C5096 C5095 1.524 . S
C5097 C5094 1.403 . S
C5097 C5098 1.392 . S
C5097 C5101 1.495 . S
C5098 C5097 1.392 . S
C5098 C5099 1.385 . S
C5098 C5100 1.478 . S
C5099 H5093 0.930 . S
C5099 C5095 1.400 . S
C5099 C5098 1.385 . S
C5100 C5098 1.478 . S
C5100 C5102 1.381 . S
C5100 C5106 1.383 . S
C5101 C5097 1.495 . S
C5101 H5107 0.959 . S
C5101 H5108 0.961 . S
C5101 H5109 0.966 . S
C5102 C5100 1.381 . S
C5102 C5103 1.394 1_565 S
C5102 H5110 0.930 . S
C5103 C5102 1.394 1_545 S
C5103 C5104 1.383 1_545 S
C5103 H5111 0.929 . S
C5104 C5103 1.383 1_565 S
C5104 C5105 1.377 . S
C5105 H5089 0.930 . S
C5105 C5104 1.377 . S
C5105 C5106 1.379 . S
C5106 H5090 0.931 . S
C5106 C5100 1.383 . S
C5106 C5105 1.379 . S
H5107 C5101 0.959 . S
H5108 C5101 0.961 . S
H5109 C5101 0.966 . S
H5110 C5102 0.930 . S
H5111 C5103 0.929 . S
H5112 C5120 0.929 . S
H5113 C5122 0.930 . S
H5114 C5124 0.930 . S
H5115 C5127 0.929 . S
H5116 C5130 0.930 . S
H5117 C5132 0.960 . S
H5118 C5132 0.960 . S
H5119 C5132 0.960 . S
C5120 H5112 0.929 . S
C5120 C5121 1.377 . S
C5120 C5122 1.384 . S
C5121 C5120 1.377 . S
C5121 C5127 1.390 . S
C5122 H5113 0.930 . S
C5122 C5120 1.384 . S
C5122 C5123 1.372 . S
C5123 C5122 1.372 . S
C5123 C5124 1.400 . S
C5123 C5128 1.490 . S
C5124 H5114 0.930 . S
C5124 C5123 1.400 . S
C5124 C5127 1.386 . S
H5125 C5141 0.930 . S
H5126 C5142 0.931 . S
C5127 H5115 0.929 . S
C5127 C5121 1.390 . S
C5127 C5124 1.386 . S
C5128 C5123 1.490 . S
C5128 C5130 1.395 . S
C5128 C5131 1.403 . S
H5129 C5135 0.930 . S
C5130 H5116 0.930 . S
C5130 C5128 1.395 . S
C5130 C5133 1.403 . S
C5131 C5128 1.403 . S
C5131 C5132 1.524 . S
C5131 C5135 1.400 . S
C5132 H5117 0.960 . S
C5132 H5118 0.960 . S
C5132 H5119 0.960 . S
C5132 C5131 1.524 . S
C5133 C5130 1.403 . S
C5133 C5134 1.392 . S
C5133 C5137 1.495 . S
C5134 C5133 1.392 . S
C5134 C5135 1.385 . S
C5134 C5136 1.478 . S
C5135 H5129 0.930 . S
C5135 C5131 1.400 . S
C5135 C5134 1.385 . S
C5136 C5134 1.478 . S
C5136 C5138 1.381 . S
C5136 C5142 1.383 . S
C5137 C5133 1.495 . S
C5137 H5143 0.959 . S
C5137 H5144 0.961 . S
C5137 H5145 0.960 . S
C5138 C5136 1.381 . S
C5138 C5139 1.394 . S
C5138 H5146 0.930 . S
C5139 C5138 1.394 . S
C5139 C5140 1.383 . S
C5139 H5147 0.929 . S
C5140 C5139 1.383 . S
C5140 C5141 1.377 . S
C5141 H5125 0.930 . S
C5141 C5140 1.377 . S
C5141 C5142 1.379 . S
C5142 H5126 0.931 . S
C5142 C5136 1.383 . S
C5142 C5141 1.379 . S
H5143 C5137 0.959 . S
H5144 C5137 0.961 . S
H5145 C5137 0.960 . S
H5146 C5138 0.930 . S
H5147 C5139 0.929 . S
H5148 C5156 0.929 . S
H5149 C5158 0.930 . S
H5150 C5160 0.930 . S
H5151 C5163 0.929 . S
H5152 C5166 0.930 . S
H5153 C5168 0.960 . S
H5154 C5168 0.960 . S
H5155 C5168 0.960 . S
C5156 H5148 0.929 . S
C5156 C5157 1.377 . S
C5156 C5158 1.384 . S
C5157 C5156 1.377 . S
C5157 C5163 1.390 . S
C5158 H5149 0.930 . S
C5158 C5156 1.384 . S
C5158 C5159 1.372 . S
C5159 C5158 1.372 . S
C5159 C5160 1.400 . S
C5159 C5164 1.490 . S
C5160 H5150 0.930 . S
C5160 C5159 1.400 . S
C5160 C5163 1.386 . S
H5161 C5177 0.930 . S
H5162 C5178 0.931 . S
C5163 H5151 0.929 . S
C5163 C5157 1.390 . S
C5163 C5160 1.386 . S
C5164 C5159 1.490 . S
C5164 C5166 1.395 . S
C5164 C5167 1.403 . S
H5165 C5171 0.930 . S
C5166 H5152 0.930 . S
C5166 C5164 1.395 . S
C5166 C5169 1.403 . S
C5167 C5164 1.403 . S
C5167 C5168 1.524 . S
C5167 C5171 1.400 . S
C5168 H5153 0.960 . S
C5168 H5154 0.960 . S
C5168 H5155 0.960 . S
C5168 C5167 1.524 . S
C5169 C5166 1.403 . S
C5169 C5170 1.392 . S
C5169 C5173 1.495 . S
C5170 C5169 1.392 . S
C5170 C5171 1.385 . S
C5170 C5172 1.478 . S
C5171 H5165 0.930 . S
C5171 C5167 1.400 . S
C5171 C5170 1.385 . S
C5172 C5170 1.478 . S
C5172 C5174 1.381 . S
C5172 C5178 1.383 . S
C5173 C5169 1.495 . S
C5173 H5179 0.959 . S
C5173 H5180 0.961 . S
C5173 H5181 0.960 . S
C5174 C5172 1.381 . S
C5174 C5175 1.394 . S
C5174 H5182 0.930 . S
C5175 C5174 1.394 . S
C5175 C5176 1.383 . S
C5175 H5183 0.929 . S
C5176 C5175 1.383 . S
C5176 C5177 1.377 . S
C5177 H5161 0.930 . S
C5177 C5176 1.377 . S
C5177 C5178 1.379 . S
C5178 H5162 0.931 . S
C5178 C5172 1.383 . S
C5178 C5177 1.379 . S
H5179 C5173 0.959 . S
H5180 C5173 0.961 . S
H5181 C5173 0.960 . S
H5182 C5174 0.930 . S
H5183 C5175 0.929 . S
H5184 C5192 0.929 . S
H5185 C5194 0.930 . S
H5186 C5196 0.930 . S
H5187 C5199 0.929 . S
H5188 C5202 0.930 . S
H5189 C5204 0.960 . S
H5190 C5204 0.960 . S
H5191 C5204 0.960 . S
C5192 H5184 0.929 . S
C5192 C5193 1.377 . S
C5192 C5194 1.384 . S
C5193 C5192 1.377 . S
C5193 C5199 1.390 . S
C5194 H5185 0.930 . S
C5194 C5192 1.384 . S
C5194 C5195 1.372 . S
C5195 C5194 1.372 . S
C5195 C5196 1.400 . S
C5195 C5200 1.490 . S
C5196 H5186 0.930 . S
C5196 C5195 1.400 . S
C5196 C5199 1.386 . S
H5197 C5213 0.930 . S
H5198 C5214 0.931 . S
C5199 H5187 0.929 . S
C5199 C5193 1.390 . S
C5199 C5196 1.386 . S
C5200 C5195 1.490 . S
C5200 C5202 1.395 . S
C5200 C5203 1.403 . S
H5201 C5207 0.930 . S
C5202 H5188 0.930 . S
C5202 C5200 1.395 . S
C5202 C5205 1.403 . S
C5203 C5200 1.403 . S
C5203 C5204 1.524 . S
C5203 C5207 1.400 . S
C5204 H5189 0.960 . S
C5204 H5190 0.960 . S
C5204 H5191 0.960 . S
C5204 C5203 1.524 . S
C5205 C5202 1.403 . S
C5205 C5206 1.392 . S
C5205 C5209 1.495 . S
C5206 C5205 1.392 . S
C5206 C5207 1.385 . S
C5206 C5208 1.478 . S
C5207 H5201 0.930 . S
C5207 C5203 1.400 . S
C5207 C5206 1.385 . S
C5208 C5206 1.478 . S
C5208 C5210 1.381 . S
C5208 C5214 1.383 . S
C5209 C5205 1.495 . S
C5209 H5215 0.959 . S
C5209 H5216 0.961 . S
C5209 H5217 0.960 . S
C5210 C5208 1.381 . S
C5210 C5211 1.394 . S
C5210 H5218 0.930 . S
C5211 C5210 1.394 . S
C5211 C5212 1.383 . S
C5211 H5219 0.929 . S
C5212 C5211 1.383 . S
C5212 C5213 1.377 . S
C5213 H5197 0.930 . S
C5213 C5212 1.377 . S
C5213 C5214 1.379 . S
C5214 H5198 0.931 . S
C5214 C5208 1.383 . S
C5214 C5213 1.379 . S
H5215 C5209 0.959 . S
H5216 C5209 0.961 . S
H5217 C5209 0.960 . S
H5218 C5210 0.930 . S
H5219 C5211 0.929 . S
H5220 C5228 0.929 . S
H5221 C5230 0.930 . S
H5222 C5232 0.930 . S
H5223 C5235 0.929 . S
H5224 C5238 0.930 . S
H5225 C5240 0.960 . S
H5226 C5240 0.960 . S
H5227 C5240 0.960 . S
C5228 H5220 0.929 . S
C5228 C5229 1.377 . S
C5228 C5230 1.384 . S
C5229 C5228 1.377 . S
C5229 C5235 1.390 . S
C5230 H5221 0.930 . S
C5230 C5228 1.384 . S
C5230 C5231 1.372 . S
C5231 C5230 1.372 . S
C5231 C5232 1.400 . S
C5231 C5236 1.490 . S
C5232 H5222 0.930 . S
C5232 C5231 1.400 . S
C5232 C5235 1.386 . S
H5233 C5249 0.930 . S
H5234 C5250 0.931 . S
C5235 H5223 0.929 . S
C5235 C5229 1.390 . S
C5235 C5232 1.386 . S
C5236 C5231 1.490 . S
C5236 C5238 1.395 . S
C5236 C5239 1.403 . S
H5237 C5243 0.930 . S
C5238 H5224 0.930 . S
C5238 C5236 1.395 . S
C5238 C5241 1.403 . S
C5239 C5236 1.403 . S
C5239 C5240 1.524 . S
C5239 C5243 1.400 . S
C5240 H5225 0.960 . S
C5240 H5226 0.960 . S
C5240 H5227 0.960 . S
C5240 C5239 1.524 . S
C5241 C5238 1.403 . S
C5241 C5242 1.392 . S
C5241 C5245 1.495 . S
C5242 C5241 1.392 . S
C5242 C5243 1.385 . S
C5242 C5244 1.478 . S
C5243 H5237 0.930 . S
C5243 C5239 1.400 . S
C5243 C5242 1.385 . S
C5244 C5242 1.478 . S
C5244 C5246 1.381 . S
C5244 C5250 1.383 . S
C5245 C5241 1.495 . S
C5245 H5251 0.959 . S
C5245 H5252 0.961 . S
C5245 H5253 0.960 . S
C5246 C5244 1.381 . S
C5246 C5247 1.394 . S
C5246 H5254 0.930 . S
C5247 C5246 1.394 . S
C5247 C5248 1.383 . S
C5247 H5255 0.929 . S
C5248 C5247 1.383 . S
C5248 C5249 1.377 . S
C5249 H5233 0.930 . S
C5249 C5248 1.377 . S
C5249 C5250 1.379 . S
C5250 H5234 0.931 . S
C5250 C5244 1.383 . S
C5250 C5249 1.379 . S
H5251 C5245 0.959 . S
H5252 C5245 0.961 . S
H5253 C5245 0.960 . S
H5254 C5246 0.930 . S
H5255 C5247 0.929 . S
H5256 C5264 0.929 . S
H5257 C5266 0.930 . S
H5258 C5268 0.930 . S
H5259 C5271 0.929 . S
H5260 C5274 0.930 . S
H5261 C5276 0.960 . S
H5262 C5276 0.962 1_556 S
H5263 C5276 0.958 . S
C5264 H5256 0.929 . S
C5264 C5265 1.377 . S
C5264 C5266 1.384 . S
C5265 C5264 1.377 . S
C5265 C5271 1.390 1_556 S
C5266 H5257 0.930 . S
C5266 C5264 1.384 . S
C5266 C5267 1.372 . S
C5267 C5266 1.372 . S
C5267 C5268 1.400 1_556 S
C5267 C5272 1.490 . S
C5268 H5258 0.930 . S
C5268 C5267 1.400 1_554 S
C5268 C5271 1.386 . S
H5269 C5285 0.930 . S
H5270 C5286 0.931 . S
C5271 H5259 0.929 . S
C5271 C5265 1.390 1_554 S
C5271 C5268 1.386 . S
C5272 C5267 1.490 . S
C5272 C5274 1.395 . S
C5272 C5275 1.404 1_556 S
H5273 C5279 0.930 . S
C5274 H5260 0.930 . S
C5274 C5272 1.395 . S
C5274 C5277 1.406 1_556 S
C5275 C5272 1.404 1_554 S
C5275 C5276 1.523 . S
C5275 C5279 1.401 . S
C5276 H5261 0.960 . S
C5276 H5262 0.962 1_554 S
C5276 H5263 0.958 . S
C5276 C5275 1.523 . S
C5277 C5274 1.406 1_554 S
C5277 C5278 1.395 . S
C5277 C5281 1.497 . S
C5278 C5277 1.395 . S
C5278 C5279 1.385 . S
C5278 C5280 1.478 . S
C5279 H5273 0.930 . S
C5279 C5275 1.401 . S
C5279 C5278 1.385 . S
C5280 C5278 1.478 . S
C5280 C5282 1.381 1_554 S
C5280 C5286 1.383 . S
C5281 C5277 1.497 . S
C5281 H5287 0.959 1_454 S
C5281 H5288 0.961 . S
C5281 H5289 0.960 1_554 S
C5282 C5280 1.381 1_556 S
C5282 C5283 1.394 . S
C5282 H5290 0.930 . S
C5283 C5282 1.394 . S
C5283 C5284 1.383 1_556 S
C5283 H5291 0.929 . S
C5284 C5283 1.383 1_554 S
C5284 C5285 1.377 . S
C5285 H5269 0.930 . S
C5285 C5284 1.377 . S
C5285 C5286 1.379 . S
C5286 H5270 0.931 . S
C5286 C5280 1.383 . S
C5286 C5285 1.379 . S
H5287 C5281 0.959 1_656 S
H5288 C5281 0.961 . S
H5289 C5281 0.960 1_556 S
H5290 C5282 0.930 . S
H5291 C5283 0.929 . S
H5292 C5300 0.929 . S
H5293 C5302 0.930 . S
H5294 C5304 0.930 . S
H5295 C5307 0.929 . S
H5296 C5310 0.930 . S
H5297 C5312 0.960 . S
H5298 C5312 0.960 . S
H5299 C5312 0.960 . S
C5300 H5292 0.929 . S
C5300 C5301 1.377 . S
C5300 C5302 1.384 . S
C5301 C5300 1.377 . S
C5301 C5307 1.390 . S
C5302 H5293 0.930 . S
C5302 C5300 1.384 . S
C5302 C5303 1.372 . S
C5303 C5302 1.372 . S
C5303 C5304 1.400 . S
C5303 C5308 1.490 . S
C5304 H5294 0.930 . S
C5304 C5303 1.400 . S
C5304 C5307 1.386 . S
H5305 C5321 0.930 . S
H5306 C5322 0.931 . S
C5307 H5295 0.929 . S
C5307 C5301 1.390 . S
C5307 C5304 1.386 . S
C5308 C5303 1.490 . S
C5308 C5310 1.395 . S
C5308 C5311 1.403 . S
H5309 C5315 0.930 . S
C5310 H5296 0.930 . S
C5310 C5308 1.395 . S
C5310 C5313 1.403 . S
C5311 C5308 1.403 . S
C5311 C5312 1.524 . S
C5311 C5315 1.400 . S
C5312 H5297 0.960 . S
C5312 H5298 0.960 . S
C5312 H5299 0.960 . S
C5312 C5311 1.524 . S
C5313 C5310 1.403 . S
C5313 C5314 1.392 . S
C5313 C5317 1.495 . S
C5314 C5313 1.392 . S
C5314 C5315 1.385 . S
C5314 C5316 1.478 . S
C5315 H5309 0.930 . S
C5315 C5311 1.400 . S
C5315 C5314 1.385 . S
C5316 C5314 1.478 . S
C5316 C5318 1.381 . S
C5316 C5322 1.383 . S
C5317 C5313 1.495 . S
C5317 H5323 0.959 . S
C5317 H5324 0.961 . S
C5317 H5325 0.960 . S
C5318 C5316 1.381 . S
C5318 C5319 1.394 . S
C5318 H5326 0.930 . S
C5319 C5318 1.394 . S
C5319 C5320 1.383 . S
C5319 H5327 0.929 . S
C5320 C5319 1.383 . S
C5320 C5321 1.377 . S
C5321 H5305 0.930 . S
C5321 C5320 1.377 . S
C5321 C5322 1.379 . S
C5322 H5306 0.931 . S
C5322 C5316 1.383 . S
C5322 C5321 1.379 . S
H5323 C5317 0.959 . S
H5324 C5317 0.961 . S
H5325 C5317 0.960 . S
H5326 C5318 0.930 . S
H5327 C5319 0.929 . S
H5328 C5336 0.929 . S
H5329 C5338 0.930 . S
H5330 C5340 0.930 . S
H5331 C5343 0.929 . S
H5332 C5346 0.930 . S
H5333 C5348 0.960 . S
H5334 C5348 0.960 . S
H5335 C5348 0.960 . S
C5336 H5328 0.929 . S
C5336 C5337 1.377 . S
C5336 C5338 1.384 . S
C5337 C5336 1.377 . S
C5337 C5343 1.390 . S
C5338 H5329 0.930 . S
C5338 C5336 1.384 . S
C5338 C5339 1.372 . S
C5339 C5338 1.372 . S
C5339 C5340 1.400 . S
C5339 C5344 1.490 . S
C5340 H5330 0.930 . S
C5340 C5339 1.400 . S
C5340 C5343 1.386 . S
H5341 C5357 0.930 . S
H5342 C5358 0.931 . S
C5343 H5331 0.929 . S
C5343 C5337 1.390 . S
C5343 C5340 1.386 . S
C5344 C5339 1.490 . S
C5344 C5346 1.395 . S
C5344 C5347 1.403 . S
H5345 C5351 0.930 . S
C5346 H5332 0.930 . S
C5346 C5344 1.395 . S
C5346 C5349 1.403 . S
C5347 C5344 1.403 . S
C5347 C5348 1.524 . S
C5347 C5351 1.400 . S
C5348 H5333 0.960 . S
C5348 H5334 0.960 . S
C5348 H5335 0.960 . S
C5348 C5347 1.524 . S
C5349 C5346 1.403 . S
C5349 C5350 1.392 . S
C5349 C5353 1.495 . S
C5350 C5349 1.392 . S
C5350 C5351 1.385 . S
C5350 C5352 1.478 . S
C5351 H5345 0.930 . S
C5351 C5347 1.400 . S
C5351 C5350 1.385 . S
C5352 C5350 1.478 . S
C5352 C5354 1.381 . S
C5352 C5358 1.383 . S
C5353 C5349 1.495 . S
C5353 H5359 0.959 . S
C5353 H5360 0.961 . S
C5353 H5361 0.960 . S
C5354 C5352 1.381 . S
C5354 C5355 1.394 . S
C5354 H5362 0.930 . S
C5355 C5354 1.394 . S
C5355 C5356 1.383 . S
C5355 H5363 0.929 . S
C5356 C5355 1.383 . S
C5356 C5357 1.377 . S
C5357 H5341 0.930 . S
C5357 C5356 1.377 . S
C5357 C5358 1.379 . S
C5358 H5342 0.931 . S
C5358 C5352 1.383 . S
C5358 C5357 1.379 . S
H5359 C5353 0.959 . S
H5360 C5353 0.961 . S
H5361 C5353 0.960 . S
H5362 C5354 0.930 . S
H5363 C5355 0.929 . S
H5364 C5372 0.929 . S
H5365 C5374 0.930 . S
H5366 C5376 0.930 . S
H5367 C5379 0.929 . S
H5368 C5382 0.930 . S
H5369 C5384 0.960 . S
H5370 C5384 0.960 . S
H5371 C5384 0.960 . S
C5372 H5364 0.929 . S
C5372 C5373 1.377 . S
C5372 C5374 1.384 1_455 S
C5373 C5372 1.377 . S
C5373 C5379 1.390 . S
C5374 H5365 0.930 . S
C5374 C5372 1.384 1_655 S
C5374 C5375 1.372 . S
C5375 C5374 1.372 . S
C5375 C5376 1.400 . S
C5375 C5380 1.490 . S
C5376 H5366 0.930 . S
C5376 C5375 1.400 . S
C5376 C5379 1.386 1_655 S
H5377 C5393 0.930 . S
H5378 C5394 0.931 . S
C5379 H5367 0.929 . S
C5379 C5373 1.390 . S
C5379 C5376 1.386 1_455 S
C5380 C5375 1.490 . S
C5380 C5382 1.395 . S
C5380 C5383 1.403 . S
H5381 C5387 0.930 . S
C5382 H5368 0.930 . S
C5382 C5380 1.395 . S
C5382 C5385 1.403 . S
C5383 C5380 1.403 . S
C5383 C5384 1.524 . S
C5383 C5387 1.400 . S
C5384 H5369 0.960 . S
C5384 H5370 0.960 . S
C5384 H5371 0.960 . S
C5384 C5383 1.524 . S
C5385 C5382 1.403 . S
C5385 C5386 1.392 . S
C5385 C5389 1.495 . S
C5386 C5385 1.392 . S
C5386 C5387 1.385 . S
C5386 C5388 1.478 . S
C5387 H5381 0.930 . S
C5387 C5383 1.400 . S
C5387 C5386 1.385 . S
C5388 C5386 1.478 . S
C5388 C5390 1.381 . S
C5388 C5394 1.383 . S
C5389 C5385 1.495 . S
C5389 H5395 0.959 . S
C5389 H5396 0.961 . S
C5389 H5397 0.960 . S
C5390 C5388 1.381 . S
C5390 C5391 1.394 . S
C5390 H5398 0.930 . S
C5391 C5390 1.394 . S
C5391 C5392 1.383 . S
C5391 H5399 0.929 . S
C5392 C5391 1.383 . S
C5392 C5393 1.377 . S
C5393 H5377 0.930 . S
C5393 C5392 1.377 . S
C5393 C5394 1.379 . S
C5394 H5378 0.931 . S
C5394 C5388 1.383 . S
C5394 C5393 1.379 . S
H5395 C5389 0.959 . S
H5396 C5389 0.961 . S
H5397 C5389 0.960 . S
H5398 C5390 0.930 . S
H5399 C5391 0.929 . S
H5400 C5408 0.929 1_455 S
H5401 C5410 0.930 . S
H5402 C5412 0.930 . S
H5403 C5415 0.929 . S
H5404 C5418 0.889 1_655 S
H5405 C5420 0.960 . S
H5406 C5420 0.960 . S
H5407 C5420 0.960 . S
C5408 H5400 0.929 1_655 S
C5408 C5409 1.377 . S
C5408 C5410 1.384 1_655 S
C5409 C5408 1.377 . S
C5409 C5415 1.390 . S
C5410 H5401 0.930 . S
C5410 C5408 1.384 1_455 S
C5410 C5411 1.375 . S
C5411 C5410 1.375 . S
C5411 C5412 1.380 1_455 S
C5411 C5416 1.506 . S
C5412 H5402 0.930 . S
C5412 C5411 1.380 1_655 S
C5412 C5415 1.386 . S
H5413 C5429 0.930 . S
H5414 C5430 0.931 . S
C5415 H5403 0.929 . S
C5415 C5409 1.390 . S
C5415 C5412 1.386 . S
C5416 C5411 1.506 . S
C5416 C5418 1.405 . S
C5416 C5419 1.403 . S
H5417 C5423 0.930 . S
C5418 H5404 0.889 1_455 S
C5418 C5416 1.405 . S
C5418 C5421 1.437 . S
C5419 C5416 1.403 . S
C5419 C5420 1.524 . S
C5419 C5423 1.400 . S
C5420 H5405 0.960 . S
C5420 H5406 0.960 . S
C5420 H5407 0.960 . S
C5420 C5419 1.524 . S
C5421 C5418 1.437 . S
C5421 C5422 1.392 . S
C5421 C5425 1.488 1_455 S
C5422 C5421 1.392 . S
C5422 C5423 1.385 . S
C5422 C5424 1.478 . S
C5423 H5417 0.930 . S
C5423 C5419 1.400 . S
C5423 C5422 1.385 . S
C5424 C5422 1.478 . S
C5424 C5426 1.381 . S
C5424 C5430 1.383 . S
C5425 C5421 1.488 1_655 S
C5425 H5431 0.991 . S
C5425 H5432 0.980 . S
C5425 H5433 0.919 1_655 S
C5426 C5424 1.381 . S
C5426 C5427 1.394 . S
C5426 H5434 0.930 . S
C5427 C5426 1.394 . S
C5427 C5428 1.383 . S
C5427 H5435 0.929 . S
C5428 C5427 1.383 . S
C5428 C5429 1.377 . S
C5429 H5413 0.930 . S
C5429 C5428 1.377 . S
C5429 C5430 1.379 . S
C5430 H5414 0.931 . S
C5430 C5424 1.383 . S
C5430 C5429 1.379 . S
H5431 C5425 0.991 . S
H5432 C5425 0.980 . S
H5433 C5425 0.919 1_455 S
H5434 C5426 0.930 . S
H5435 C5427 0.929 . S
H5436 C5444 0.929 . S
H5437 C5446 0.930 . S
H5438 C5448 0.930 . S
H5439 C5451 0.929 . S
H5440 C5454 0.930 . S
H5441 C5456 0.960 . S
H5442 C5456 0.960 . S
H5443 C5456 0.960 . S
C5444 H5436 0.929 . S
C5444 C5445 1.377 . S
C5444 C5446 1.384 . S
C5445 C5444 1.377 . S
C5445 C5451 1.390 . S
C5446 H5437 0.930 . S
C5446 C5444 1.384 . S
C5446 C5447 1.372 . S
C5447 C5446 1.372 . S
C5447 C5448 1.400 . S
C5447 C5452 1.490 . S
C5448 H5438 0.930 . S
C5448 C5447 1.400 . S
C5448 C5451 1.386 . S
H5449 C5465 0.930 . S
H5450 C5466 0.931 . S
C5451 H5439 0.929 . S
C5451 C5445 1.390 . S
C5451 C5448 1.386 . S
C5452 C5447 1.490 . S
C5452 C5454 1.395 . S
C5452 C5455 1.403 . S
H5453 C5459 0.930 . S
C5454 H5440 0.930 . S
C5454 C5452 1.395 . S
C5454 C5457 1.403 . S
C5455 C5452 1.403 . S
C5455 C5456 1.524 . S
C5455 C5459 1.400 . S
C5456 H5441 0.960 . S
C5456 H5442 0.960 . S
C5456 H5443 0.960 . S
C5456 C5455 1.524 . S
C5457 C5454 1.403 . S
C5457 C5458 1.392 . S
C5457 C5461 1.495 . S
C5458 C5457 1.392 . S
C5458 C5459 1.385 . S
C5458 C5460 1.478 . S
C5459 H5453 0.930 . S
C5459 C5455 1.400 . S
C5459 C5458 1.385 . S
C5460 C5458 1.478 . S
C5460 C5462 1.381 . S
C5460 C5466 1.383 . S
C5461 C5457 1.495 . S
C5461 H5467 0.959 . S
C5461 H5468 0.961 . S
C5461 H5469 0.960 . S
C5462 C5460 1.381 . S
C5462 C5463 1.394 . S
C5462 H5470 0.930 . S
C5463 C5462 1.394 . S
C5463 C5464 1.383 . S
C5463 H5471 0.929 . S
C5464 C5463 1.383 . S
C5464 C5465 1.377 . S
C5465 H5449 0.930 . S
C5465 C5464 1.377 . S
C5465 C5466 1.379 . S
C5466 H5450 0.931 . S
C5466 C5460 1.383 . S
C5466 C5465 1.379 . S
H5467 C5461 0.959 . S
H5468 C5461 0.961 . S
H5469 C5461 0.960 . S
H5470 C5462 0.930 . S
H5471 C5463 0.929 . S
H5472 C5480 0.929 . S
H5473 C5482 0.930 . S
H5474 C5484 0.930 . S
H5475 C5487 0.929 . S
H5476 C5490 0.930 . S
H5477 C5492 0.960 . S
H5478 C5492 0.960 . S
H5479 C5492 0.960 . S
C5480 H5472 0.929 . S
C5480 C5481 1.377 . S
C5480 C5482 1.384 . S
C5481 C5480 1.377 . S
C5481 C5487 1.390 . S
C5482 H5473 0.930 . S
C5482 C5480 1.384 . S
C5482 C5483 1.372 . S
C5483 C5482 1.372 . S
C5483 C5484 1.400 . S
C5483 C5488 1.490 . S
C5484 H5474 0.930 . S
C5484 C5483 1.400 . S
C5484 C5487 1.386 . S
H5485 C5501 0.930 . S
H5486 C5502 0.931 . S
C5487 H5475 0.929 . S
C5487 C5481 1.390 . S
C5487 C5484 1.386 . S
C5488 C5483 1.490 . S
C5488 C5490 1.395 . S
C5488 C5491 1.403 . S
H5489 C5495 0.930 . S
C5490 H5476 0.930 . S
C5490 C5488 1.395 . S
C5490 C5493 1.403 . S
C5491 C5488 1.403 . S
C5491 C5492 1.524 . S
C5491 C5495 1.400 . S
C5492 H5477 0.960 . S
C5492 H5478 0.960 . S
C5492 H5479 0.960 . S
C5492 C5491 1.524 . S
C5493 C5490 1.403 . S
C5493 C5494 1.392 . S
C5493 C5497 1.495 . S
C5494 C5493 1.392 . S
C5494 C5495 1.385 . S
C5494 C5496 1.478 . S
C5495 H5489 0.930 . S
C5495 C5491 1.400 . S
C5495 C5494 1.385 . S
C5496 C5494 1.478 . S
C5496 C5498 1.381 . S
C5496 C5502 1.383 . S
C5497 C5493 1.495 . S
C5497 H5503 0.959 . S
C5497 H5504 0.961 . S
C5497 H5505 0.960 . S
C5498 C5496 1.381 . S
C5498 C5499 1.394 . S
C5498 H5506 0.930 . S
C5499 C5498 1.394 . S
C5499 C5500 1.383 . S
C5499 H5507 0.929 . S
C5500 C5499 1.383 . S
C5500 C5501 1.377 . S
C5501 H5485 0.930 . S
C5501 C5500 1.377 . S
C5501 C5502 1.379 . S
C5502 H5486 0.931 . S
C5502 C5496 1.383 . S
C5502 C5501 1.379 . S
H5503 C5497 0.959 . S
H5504 C5497 0.961 . S
H5505 C5497 0.960 . S
H5506 C5498 0.930 . S
H5507 C5499 0.929 . S
H5508 C5516 0.929 . S
H5509 C5518 0.930 . S
H5510 C5520 0.930 . S
H5511 C5523 0.929 . S
H5512 C5526 0.930 . S
H5513 C5528 0.960 . S
H5514 C5528 0.960 . S
H5515 C5528 0.960 . S
C5516 H5508 0.929 . S
C5516 C5517 1.377 . S
C5516 C5518 1.384 . S
C5517 C5516 1.377 . S
C5517 C5523 1.390 . S
C5518 H5509 0.930 . S
C5518 C5516 1.384 . S
C5518 C5519 1.372 . S
C5519 C5518 1.372 . S
C5519 C5520 1.400 . S
C5519 C5524 1.490 . S
C5520 H5510 0.930 . S
C5520 C5519 1.400 . S
C5520 C5523 1.386 . S
H5521 C5537 0.930 . S
H5522 C5538 0.931 . S
C5523 H5511 0.929 . S
C5523 C5517 1.390 . S
C5523 C5520 1.386 . S
C5524 C5519 1.490 . S
C5524 C5526 1.395 . S
C5524 C5527 1.403 . S
H5525 C5531 0.930 . S
C5526 H5512 0.930 . S
C5526 C5524 1.395 . S
C5526 C5529 1.403 . S
C5527 C5524 1.403 . S
C5527 C5528 1.524 . S
C5527 C5531 1.400 . S
C5528 H5513 0.960 . S
C5528 H5514 0.960 . S
C5528 H5515 0.960 . S
C5528 C5527 1.524 . S
C5529 C5526 1.403 . S
C5529 C5530 1.392 . S
C5529 C5533 1.495 . S
C5530 C5529 1.392 . S
C5530 C5531 1.385 . S
C5530 C5532 1.478 . S
C5531 H5525 0.930 . S
C5531 C5527 1.400 . S
C5531 C5530 1.385 . S
C5532 C5530 1.478 . S
C5532 C5534 1.381 . S
C5532 C5538 1.383 . S
C5533 C5529 1.495 . S
C5533 H5539 0.959 . S
C5533 H5540 0.961 . S
C5533 H5541 0.960 . S
C5534 C5532 1.381 . S
C5534 C5535 1.394 . S
C5534 H5542 0.930 . S
C5535 C5534 1.394 . S
C5535 C5536 1.383 . S
C5535 H5543 0.929 . S
C5536 C5535 1.383 . S
C5536 C5537 1.377 . S
C5537 H5521 0.930 . S
C5537 C5536 1.377 . S
C5537 C5538 1.379 . S
C5538 H5522 0.931 . S
C5538 C5532 1.383 . S
C5538 C5537 1.379 . S
H5539 C5533 0.959 . S
H5540 C5533 0.961 . S
H5541 C5533 0.960 . S
H5542 C5534 0.930 . S
H5543 C5535 0.929 . S
H5544 C5552 0.929 . S
H5545 C5554 0.930 . S
H5546 C5556 0.930 . S
H5547 C5559 0.929 . S
H5548 C5562 0.930 . S
H5549 C5564 0.960 . S
H5550 C5564 0.960 . S
H5551 C5564 0.960 . S
C5552 H5544 0.929 . S
C5552 C5553 1.377 . S
C5552 C5554 1.384 . S
C5553 C5552 1.377 . S
C5553 C5559 1.390 . S
C5554 H5545 0.930 . S
C5554 C5552 1.384 . S
C5554 C5555 1.372 . S
C5555 C5554 1.372 . S
C5555 C5556 1.400 . S
C5555 C5560 1.490 . S
C5556 H5546 0.930 . S
C5556 C5555 1.400 . S
C5556 C5559 1.386 . S
H5557 C5573 0.930 . S
H5558 C5574 0.931 . S
C5559 H5547 0.929 . S
C5559 C5553 1.390 . S
C5559 C5556 1.386 . S
C5560 C5555 1.490 . S
C5560 C5562 1.395 . S
C5560 C5563 1.403 . S
H5561 C5567 0.930 . S
C5562 H5548 0.930 . S
C5562 C5560 1.395 . S
C5562 C5565 1.403 . S
C5563 C5560 1.403 . S
C5563 C5564 1.524 . S
C5563 C5567 1.400 . S
C5564 H5549 0.960 . S
C5564 H5550 0.960 . S
C5564 H5551 0.960 . S
C5564 C5563 1.524 . S
C5565 C5562 1.403 . S
C5565 C5566 1.392 . S
C5565 C5569 1.495 . S
C5566 C5565 1.392 . S
C5566 C5567 1.385 . S
C5566 C5568 1.478 . S
C5567 H5561 0.930 . S
C5567 C5563 1.400 . S
C5567 C5566 1.385 . S
C5568 C5566 1.478 . S
C5568 C5570 1.381 . S
C5568 C5574 1.383 . S
C5569 C5565 1.495 . S
C5569 H5575 0.959 . S
C5569 H5576 0.961 . S
C5569 H5577 0.960 . S
C5570 C5568 1.381 . S
C5570 C5571 1.394 . S
C5570 H5578 0.930 . S
C5571 C5570 1.394 . S
C5571 C5572 1.383 . S
C5571 H5579 0.929 . S
C5572 C5571 1.383 . S
C5572 C5573 1.377 . S
C5573 H5557 0.930 . S
C5573 C5572 1.377 . S
C5573 C5574 1.379 . S
C5574 H5558 0.931 . S
C5574 C5568 1.383 . S
C5574 C5573 1.379 . S
H5575 C5569 0.959 . S
H5576 C5569 0.961 . S
H5577 C5569 0.960 . S
H5578 C5570 0.930 . S
H5579 C5571 0.929 . S
H5580 C5588 0.929 . S
H5581 C5590 0.930 . S
H5582 C5592 0.930 . S
H5583 C5595 0.929 . S
H5584 C5598 0.930 . S
H5585 C5600 0.960 . S
H5586 C5600 0.960 . S
H5587 C5600 0.960 . S
C5588 H5580 0.929 . S
C5588 C5589 1.377 . S
C5588 C5590 1.384 . S
C5589 C5588 1.377 . S
C5589 C5595 1.390 . S
C5590 H5581 0.930 . S
C5590 C5588 1.384 . S
C5590 C5591 1.372 . S
C5591 C5590 1.372 . S
C5591 C5592 1.400 . S
C5591 C5596 1.490 . S
C5592 H5582 0.930 . S
C5592 C5591 1.400 . S
C5592 C5595 1.386 . S
H5593 C5609 0.930 . S
H5594 C5610 0.931 . S
C5595 H5583 0.929 . S
C5595 C5589 1.390 . S
C5595 C5592 1.386 . S
C5596 C5591 1.490 . S
C5596 C5598 1.395 . S
C5596 C5599 1.403 . S
H5597 C5603 0.930 . S
C5598 H5584 0.930 . S
C5598 C5596 1.395 . S
C5598 C5601 1.403 . S
C5599 C5596 1.403 . S
C5599 C5600 1.524 . S
C5599 C5603 1.400 . S
C5600 H5585 0.960 . S
C5600 H5586 0.960 . S
C5600 H5587 0.960 . S
C5600 C5599 1.524 . S
C5601 C5598 1.403 . S
C5601 C5602 1.392 . S
C5601 C5605 1.495 . S
C5602 C5601 1.392 . S
C5602 C5603 1.385 . S
C5602 C5604 1.478 . S
C5603 H5597 0.930 . S
C5603 C5599 1.400 . S
C5603 C5602 1.385 . S
C5604 C5602 1.478 . S
C5604 C5606 1.381 . S
C5604 C5610 1.383 . S
C5605 C5601 1.495 . S
C5605 H5611 0.959 . S
C5605 H5612 0.961 . S
C5605 H5613 0.960 . S
C5606 C5604 1.381 . S
C5606 C5607 1.394 . S
C5606 H5614 0.930 . S
C5607 C5606 1.394 . S
C5607 C5608 1.383 . S
C5607 H5615 0.929 . S
C5608 C5607 1.383 . S
C5608 C5609 1.377 . S
C5609 H5593 0.930 . S
C5609 C5608 1.377 . S
C5609 C5610 1.379 . S
C5610 H5594 0.931 . S
C5610 C5604 1.383 . S
C5610 C5609 1.379 . S
H5611 C5605 0.959 . S
H5612 C5605 0.961 . S
H5613 C5605 0.960 . S
H5614 C5606 0.930 . S
H5615 C5607 0.929 . S
H5616 C5624 0.929 . S
H5617 C5626 0.930 . S
H5618 C5628 0.930 . S
H5619 C5631 0.929 . S
H5620 C5634 0.930 . S
H5621 C5636 0.960 . S
H5622 C5636 0.960 . S
H5623 C5636 0.960 . S
C5624 H5616 0.929 . S
C5624 C5625 1.377 . S
C5624 C5626 1.384 . S
C5625 C5624 1.377 . S
C5625 C5631 1.390 . S
C5626 H5617 0.930 . S
C5626 C5624 1.384 . S
C5626 C5627 1.372 . S
C5627 C5626 1.372 . S
C5627 C5628 1.400 . S
C5627 C5632 1.490 . S
C5628 H5618 0.930 . S
C5628 C5627 1.400 . S
C5628 C5631 1.386 . S
H5629 C5645 0.930 . S
H5630 C5646 0.931 . S
C5631 H5619 0.929 . S
C5631 C5625 1.390 . S
C5631 C5628 1.386 . S
C5632 C5627 1.490 . S
C5632 C5634 1.395 . S
C5632 C5635 1.403 . S
H5633 C5639 0.930 . S
C5634 H5620 0.930 . S
C5634 C5632 1.395 . S
C5634 C5637 1.403 . S
C5635 C5632 1.403 . S
C5635 C5636 1.524 . S
C5635 C5639 1.400 . S
C5636 H5621 0.960 . S
C5636 H5622 0.960 . S
C5636 H5623 0.960 . S
C5636 C5635 1.524 . S
C5637 C5634 1.403 . S
C5637 C5638 1.392 . S
C5637 C5641 1.495 . S
C5638 C5637 1.392 . S
C5638 C5639 1.385 . S
C5638 C5640 1.478 . S
C5639 H5633 0.930 . S
C5639 C5635 1.400 . S
C5639 C5638 1.385 . S
C5640 C5638 1.478 . S
C5640 C5642 1.381 . S
C5640 C5646 1.383 . S
C5641 C5637 1.495 . S
C5641 H5647 0.959 . S
C5641 H5648 0.961 . S
C5641 H5649 0.960 . S
C5642 C5640 1.381 . S
C5642 C5643 1.394 . S
C5642 H5650 0.930 . S
C5643 C5642 1.394 . S
C5643 C5644 1.383 . S
C5643 H5651 0.929 . S
C5644 C5643 1.383 . S
C5644 C5645 1.377 . S
C5645 H5629 0.930 . S
C5645 C5644 1.377 . S
C5645 C5646 1.379 . S
C5646 H5630 0.931 . S
C5646 C5640 1.383 . S
C5646 C5645 1.379 . S
H5647 C5641 0.959 . S
H5648 C5641 0.961 . S
H5649 C5641 0.960 . S
H5650 C5642 0.930 . S
H5651 C5643 0.929 . S
H5652 C5660 0.929 . S
H5653 C5662 0.930 . S
H5654 C5664 0.930 . S
H5655 C5667 0.929 . S
H5656 C5670 0.930 . S
H5657 C5672 0.960 . S
H5658 C5672 0.960 . S
H5659 C5672 0.960 . S
C5660 H5652 0.929 . S
C5660 C5661 1.377 . S
C5660 C5662 1.384 . S
C5661 C5660 1.377 . S
C5661 C5667 1.390 . S
C5662 H5653 0.930 . S
C5662 C5660 1.384 . S
C5662 C5663 1.372 . S
C5663 C5662 1.372 . S
C5663 C5664 1.400 . S
C5663 C5668 1.490 . S
C5664 H5654 0.930 . S
C5664 C5663 1.400 . S
C5664 C5667 1.386 . S
H5665 C5681 0.930 . S
H5666 C5682 0.931 . S
C5667 H5655 0.929 . S
C5667 C5661 1.390 . S
C5667 C5664 1.386 . S
C5668 C5663 1.490 . S
C5668 C5670 1.395 . S
C5668 C5671 1.403 . S
H5669 C5675 0.930 . S
C5670 H5656 0.930 . S
C5670 C5668 1.395 . S
C5670 C5673 1.403 . S
C5671 C5668 1.403 . S
C5671 C5672 1.524 . S
C5671 C5675 1.400 . S
C5672 H5657 0.960 . S
C5672 H5658 0.960 . S
C5672 H5659 0.960 . S
C5672 C5671 1.524 . S
C5673 C5670 1.403 . S
C5673 C5674 1.392 . S
C5673 C5677 1.495 . S
C5674 C5673 1.392 . S
C5674 C5675 1.385 . S
C5674 C5676 1.478 . S
C5675 H5669 0.930 . S
C5675 C5671 1.400 . S
C5675 C5674 1.385 . S
C5676 C5674 1.478 . S
C5676 C5678 1.381 . S
C5676 C5682 1.383 . S
C5677 C5673 1.495 . S
C5677 H5683 0.959 . S
C5677 H5684 0.961 . S
C5677 H5685 0.960 . S
C5678 C5676 1.381 . S
C5678 C5679 1.394 . S
C5678 H5686 0.930 . S
C5679 C5678 1.394 . S
C5679 C5680 1.383 . S
C5679 H5687 0.929 . S
C5680 C5679 1.383 . S
C5680 C5681 1.377 . S
C5681 H5665 0.930 . S
C5681 C5680 1.377 . S
C5681 C5682 1.379 . S
C5682 H5666 0.931 . S
C5682 C5676 1.383 . S
C5682 C5681 1.379 . S
H5683 C5677 0.959 . S
H5684 C5677 0.961 . S
H5685 C5677 0.960 . S
H5686 C5678 0.930 . S
H5687 C5679 0.929 . S
H5688 C5696 0.929 . S
H5689 C5698 0.930 . S
H5690 C5700 0.930 . S
H5691 C5703 0.929 . S
H5692 C5706 0.930 . S
H5693 C5708 0.960 . S
H5694 C5708 0.960 . S
H5695 C5708 0.960 . S
C5696 H5688 0.929 . S
C5696 C5697 1.377 . S
C5696 C5698 1.384 . S
C5697 C5696 1.377 . S
C5697 C5703 1.390 . S
C5698 H5689 0.930 . S
C5698 C5696 1.384 . S
C5698 C5699 1.372 . S
C5699 C5698 1.372 . S
C5699 C5700 1.400 . S
C5699 C5704 1.490 . S
C5700 H5690 0.930 . S
C5700 C5699 1.400 . S
C5700 C5703 1.386 . S
H5701 C5717 0.930 . S
H5702 C5718 0.931 . S
C5703 H5691 0.929 . S
C5703 C5697 1.390 . S
C5703 C5700 1.386 . S
C5704 C5699 1.490 . S
C5704 C5706 1.395 . S
C5704 C5707 1.403 . S
H5705 C5711 0.930 . S
C5706 H5692 0.930 . S
C5706 C5704 1.395 . S
C5706 C5709 1.403 . S
C5707 C5704 1.403 . S
C5707 C5708 1.524 . S
C5707 C5711 1.400 . S
C5708 H5693 0.960 . S
C5708 H5694 0.960 . S
C5708 H5695 0.960 . S
C5708 C5707 1.524 . S
C5709 C5706 1.403 . S
C5709 C5710 1.392 . S
C5709 C5713 1.495 . S
C5710 C5709 1.392 . S
C5710 C5711 1.385 . S
C5710 C5712 1.478 . S
C5711 H5705 0.930 . S
C5711 C5707 1.400 . S
C5711 C5710 1.385 . S
C5712 C5710 1.478 . S
C5712 C5714 1.381 . S
C5712 C5718 1.383 . S
C5713 C5709 1.495 . S
C5713 H5719 0.959 . S
C5713 H5720 0.961 . S
C5713 H5721 0.960 . S
C5714 C5712 1.381 . S
C5714 C5715 1.394 . S
C5714 H5722 0.930 . S
C5715 C5714 1.394 . S
C5715 C5716 1.383 . S
C5715 H5723 0.929 . S
C5716 C5715 1.383 . S
C5716 C5717 1.377 . S
C5717 H5701 0.930 . S
C5717 C5716 1.377 . S
C5717 C5718 1.379 . S
C5718 H5702 0.931 . S
C5718 C5712 1.383 . S
C5718 C5717 1.379 . S
H5719 C5713 0.959 . S
H5720 C5713 0.961 . S
H5721 C5713 0.960 . S
H5722 C5714 0.930 . S
H5723 C5715 0.929 . S
H5724 C5732 0.929 . S
H5725 C5734 0.930 . S
H5726 C5736 0.930 . S
H5727 C5739 0.929 . S
H5728 C5742 0.930 . S
H5729 C5744 0.960 . S
H5730 C5744 0.960 . S
H5731 C5744 0.960 . S
C5732 H5724 0.929 . S
C5732 C5733 1.377 . S
C5732 C5734 1.384 . S
C5733 C5732 1.377 . S
C5733 C5739 1.390 . S
C5734 H5725 0.930 . S
C5734 C5732 1.384 . S
C5734 C5735 1.372 . S
C5735 C5734 1.372 . S
C5735 C5736 1.400 . S
C5735 C5740 1.490 . S
C5736 H5726 0.930 . S
C5736 C5735 1.400 . S
C5736 C5739 1.386 . S
H5737 C5753 0.930 . S
H5738 C5754 0.931 . S
C5739 H5727 0.929 . S
C5739 C5733 1.390 . S
C5739 C5736 1.386 . S
C5740 C5735 1.490 . S
C5740 C5742 1.395 . S
C5740 C5743 1.403 . S
H5741 C5747 0.930 . S
C5742 H5728 0.930 . S
C5742 C5740 1.395 . S
C5742 C5745 1.403 . S
C5743 C5740 1.403 . S
C5743 C5744 1.524 . S
C5743 C5747 1.400 . S
C5744 H5729 0.960 . S
C5744 H5730 0.960 . S
C5744 H5731 0.960 . S
C5744 C5743 1.524 . S
C5745 C5742 1.403 . S
C5745 C5746 1.392 . S
C5745 C5749 1.495 . S
C5746 C5745 1.392 . S
C5746 C5747 1.385 . S
C5746 C5748 1.478 . S
C5747 H5741 0.930 . S
C5747 C5743 1.400 . S
C5747 C5746 1.385 . S
C5748 C5746 1.478 . S
C5748 C5750 1.381 . S
C5748 C5754 1.383 . S
C5749 C5745 1.495 . S
C5749 H5755 0.959 . S
C5749 H5756 0.961 . S
C5749 H5757 0.960 . S
C5750 C5748 1.381 . S
C5750 C5751 1.394 . S
C5750 H5758 0.930 . S
C5751 C5750 1.394 . S
C5751 C5752 1.383 . S
C5751 H5759 0.929 . S
C5752 C5751 1.383 . S
C5752 C5753 1.377 . S
C5753 H5737 0.930 . S
C5753 C5752 1.377 . S
C5753 C5754 1.379 . S
C5754 H5738 0.931 . S
C5754 C5748 1.383 . S
C5754 C5753 1.379 . S
H5755 C5749 0.959 . S
H5756 C5749 0.961 . S
H5757 C5749 0.960 . S
H5758 C5750 0.930 . S
H5759 C5751 0.929 . S
H5760 C5768 0.929 . S
H5761 C5770 0.930 . S
H5762 C5772 0.930 . S
H5763 C5775 0.929 . S
H5764 C5778 0.930 . S
H5765 C5780 0.960 . S
H5766 C5780 0.960 . S
H5767 C5780 0.960 . S
C5768 H5760 0.929 . S
C5768 C5769 1.377 . S
C5768 C5770 1.384 . S
C5769 C5768 1.377 . S
C5769 C5775 1.390 . S
C5770 H5761 0.930 . S
C5770 C5768 1.384 . S
C5770 C5771 1.372 . S
C5771 C5770 1.372 . S
C5771 C5772 1.400 . S
C5771 C5776 1.490 . S
C5772 H5762 0.930 . S
C5772 C5771 1.400 . S
C5772 C5775 1.386 . S
H5773 C5789 0.930 . S
H5774 C5790 0.931 . S
C5775 H5763 0.929 . S
C5775 C5769 1.390 . S
C5775 C5772 1.386 . S
C5776 C5771 1.490 . S
C5776 C5778 1.395 . S
C5776 C5779 1.403 . S
H5777 C5783 0.930 . S
C5778 H5764 0.930 . S
C5778 C5776 1.395 . S
C5778 C5781 1.403 . S
C5779 C5776 1.403 . S
C5779 C5780 1.524 . S
C5779 C5783 1.400 . S
C5780 H5765 0.960 . S
C5780 H5766 0.960 . S
C5780 H5767 0.960 . S
C5780 C5779 1.524 . S
C5781 C5778 1.403 . S
C5781 C5782 1.392 . S
C5781 C5785 1.495 . S
C5782 C5781 1.392 . S
C5782 C5783 1.385 . S
C5782 C5784 1.478 . S
C5783 H5777 0.930 . S
C5783 C5779 1.400 . S
C5783 C5782 1.385 . S
C5784 C5782 1.478 . S
C5784 C5786 1.381 . S
C5784 C5790 1.383 . S
C5785 C5781 1.495 . S
C5785 H5791 0.959 . S
C5785 H5792 0.961 . S
C5785 H5793 0.960 . S
C5786 C5784 1.381 . S
C5786 C5787 1.394 . S
C5786 H5794 0.930 . S
C5787 C5786 1.394 . S
C5787 C5788 1.383 . S
C5787 H5795 0.929 . S
C5788 C5787 1.383 . S
C5788 C5789 1.377 . S
C5789 H5773 0.930 . S
C5789 C5788 1.377 . S
C5789 C5790 1.379 . S
C5790 H5774 0.931 . S
C5790 C5784 1.383 . S
C5790 C5789 1.379 . S
H5791 C5785 0.959 . S
H5792 C5785 0.961 . S
H5793 C5785 0.960 . S
H5794 C5786 0.930 . S
H5795 C5787 0.929 . S
H5796 C5804 0.929 . S
H5797 C5806 0.930 . S
H5798 C5808 0.930 . S
H5799 C5811 0.929 . S
H5800 C5814 0.930 . S
H5801 C5816 0.960 . S
H5802 C5816 0.960 . S
H5803 C5816 0.960 . S
C5804 H5796 0.929 . S
C5804 C5805 1.377 . S
C5804 C5806 1.384 . S
C5805 C5804 1.377 . S
C5805 C5811 1.390 . S
C5806 H5797 0.930 . S
C5806 C5804 1.384 . S
C5806 C5807 1.372 . S
C5807 C5806 1.372 . S
C5807 C5808 1.400 . S
C5807 C5812 1.490 . S
C5808 H5798 0.930 . S
C5808 C5807 1.400 . S
C5808 C5811 1.386 . S
H5809 C5825 0.930 . S
H5810 C5826 0.931 . S
C5811 H5799 0.929 . S
C5811 C5805 1.390 . S
C5811 C5808 1.386 . S
C5812 C5807 1.490 . S
C5812 C5814 1.395 . S
C5812 C5815 1.403 . S
H5813 C5819 0.930 . S
C5814 H5800 0.930 . S
C5814 C5812 1.395 . S
C5814 C5817 1.403 . S
C5815 C5812 1.403 . S
C5815 C5816 1.524 . S
C5815 C5819 1.400 . S
C5816 H5801 0.960 . S
C5816 H5802 0.960 . S
C5816 H5803 0.960 . S
C5816 C5815 1.524 . S
C5817 C5814 1.403 . S
C5817 C5818 1.392 . S
C5817 C5821 1.495 . S
C5818 C5817 1.392 . S
C5818 C5819 1.385 . S
C5818 C5820 1.478 . S
C5819 H5813 0.930 . S
C5819 C5815 1.400 . S
C5819 C5818 1.385 . S
C5820 C5818 1.478 . S
C5820 C5822 1.381 . S
C5820 C5826 1.383 . S
C5821 C5817 1.495 . S
C5821 H5827 0.959 . S
C5821 H5828 0.961 . S
C5821 H5829 0.960 . S
C5822 C5820 1.381 . S
C5822 C5823 1.394 . S
C5822 H5830 0.930 . S
C5823 C5822 1.394 . S
C5823 C5824 1.383 . S
C5823 H5831 0.929 . S
C5824 C5823 1.383 . S
C5824 C5825 1.377 . S
C5825 H5809 0.930 . S
C5825 C5824 1.377 . S
C5825 C5826 1.379 . S
C5826 H5810 0.931 . S
C5826 C5820 1.383 . S
C5826 C5825 1.379 . S
H5827 C5821 0.959 . S
H5828 C5821 0.961 . S
H5829 C5821 0.960 . S
H5830 C5822 0.930 . S
H5831 C5823 0.929 . S
H5832 C5840 0.929 . S
H5833 C5842 0.930 . S
H5834 C5844 0.930 . S
H5835 C5847 0.929 . S
H5836 C5850 0.930 . S
H5837 C5852 0.960 . S
H5838 C5852 0.960 . S
H5839 C5852 0.960 . S
C5840 H5832 0.929 . S
C5840 C5841 1.377 . S
C5840 C5842 1.384 . S
C5841 C5840 1.377 . S
C5841 C5847 1.390 . S
C5842 H5833 0.930 . S
C5842 C5840 1.384 . S
C5842 C5843 1.372 . S
C5843 C5842 1.372 . S
C5843 C5844 1.400 . S
C5843 C5848 1.490 . S
C5844 H5834 0.930 . S
C5844 C5843 1.400 . S
C5844 C5847 1.386 . S
H5845 C5861 0.930 . S
H5846 C5862 0.931 . S
C5847 H5835 0.929 . S
C5847 C5841 1.390 . S
C5847 C5844 1.386 . S
C5848 C5843 1.490 . S
C5848 C5850 1.395 . S
C5848 C5851 1.403 . S
H5849 C5855 0.930 . S
C5850 H5836 0.930 . S
C5850 C5848 1.395 . S
C5850 C5853 1.403 . S
C5851 C5848 1.403 . S
C5851 C5852 1.524 . S
C5851 C5855 1.400 . S
C5852 H5837 0.960 . S
C5852 H5838 0.960 . S
C5852 H5839 0.960 . S
C5852 C5851 1.524 . S
C5853 C5850 1.403 . S
C5853 C5854 1.392 . S
C5853 C5857 1.495 . S
C5854 C5853 1.392 . S
C5854 C5855 1.385 . S
C5854 C5856 1.478 . S
C5855 H5849 0.930 . S
C5855 C5851 1.400 . S
C5855 C5854 1.385 . S
C5856 C5854 1.478 . S
C5856 C5858 1.381 . S
C5856 C5862 1.383 . S
C5857 C5853 1.495 . S
C5857 H5863 0.959 . S
C5857 H5864 0.961 . S
C5857 H5865 0.960 . S
C5858 C5856 1.381 . S
C5858 C5859 1.394 . S
C5858 H5866 0.930 . S
C5859 C5858 1.394 . S
C5859 C5860 1.383 . S
C5859 H5867 0.929 . S
C5860 C5859 1.383 . S
C5860 C5861 1.377 . S
C5861 H5845 0.930 . S
C5861 C5860 1.377 . S
C5861 C5862 1.379 . S
C5862 H5846 0.931 . S
C5862 C5856 1.383 . S
C5862 C5861 1.379 . S
H5863 C5857 0.959 . S
H5864 C5857 0.961 . S
H5865 C5857 0.960 . S
H5866 C5858 0.930 . S
H5867 C5859 0.929 . S
H5868 C5876 0.929 . S
H5869 C5878 0.930 . S
H5870 C5880 0.930 . S
H5871 C5883 0.929 . S
H5872 C5886 0.930 . S
H5873 C5888 0.960 . S
H5874 C5888 0.960 . S
H5875 C5888 0.960 . S
C5876 H5868 0.929 . S
C5876 C5877 1.377 . S
C5876 C5878 1.384 . S
C5877 C5876 1.377 . S
C5877 C5883 1.390 . S
C5878 H5869 0.930 . S
C5878 C5876 1.384 . S
C5878 C5879 1.372 . S
C5879 C5878 1.372 . S
C5879 C5880 1.400 . S
C5879 C5884 1.490 . S
C5880 H5870 0.930 . S
C5880 C5879 1.400 . S
C5880 C5883 1.386 . S
H5881 C5897 0.930 1_556 S
H5882 C5898 0.931 1_556 S
C5883 H5871 0.929 . S
C5883 C5877 1.390 . S
C5883 C5880 1.386 . S
C5884 C5879 1.490 . S
C5884 C5886 1.395 . S
C5884 C5887 1.403 1_565 S
H5885 C5891 0.930 . S
C5886 H5872 0.930 . S
C5886 C5884 1.395 . S
C5886 C5889 1.403 . S
C5887 C5884 1.403 1_545 S
C5887 C5888 1.524 . S
C5887 C5891 1.400 . S
C5888 H5873 0.960 . S
C5888 H5874 0.960 . S
C5888 H5875 0.960 . S
C5888 C5887 1.524 . S
C5889 C5886 1.403 . S
C5889 C5890 1.392 1_565 S
C5889 C5893 1.495 . S
C5890 C5889 1.392 1_545 S
C5890 C5891 1.385 . S
C5890 C5892 1.478 . S
C5891 H5885 0.930 . S
C5891 C5887 1.400 . S
C5891 C5890 1.385 . S
C5892 C5890 1.478 . S
C5892 C5894 1.381 . S
C5892 C5898 1.383 . S
C5893 C5889 1.495 . S
C5893 H5899 0.959 . S
C5893 H5900 0.961 . S
C5893 H5901 0.960 . S
C5894 C5892 1.381 . S
C5894 C5895 1.394 . S
C5894 H5902 0.930 . S
C5895 C5894 1.394 . S
C5895 C5896 1.383 . S
C5895 H5903 0.929 . S
C5896 C5895 1.383 . S
C5896 C5897 1.377 . S
C5897 H5881 0.930 1_554 S
C5897 C5896 1.377 . S
C5897 C5898 1.379 . S
C5898 H5882 0.931 1_554 S
C5898 C5892 1.383 . S
C5898 C5897 1.379 . S
H5899 C5893 0.959 . S
H5900 C5893 0.961 . S
H5901 C5893 0.960 . S
H5902 C5894 0.930 . S
H5903 C5895 0.929 . S
H5904 C5912 0.929 . S
H5905 C5914 0.930 . S
H5906 C5916 0.930 . S
H5907 C5919 0.929 . S
H5908 C5922 0.930 . S
H5909 C5924 0.960 . S
H5910 C5924 0.960 . S
H5911 C5924 0.960 . S
C5912 H5904 0.929 . S
C5912 C5913 1.377 . S
C5912 C5914 1.384 . S
C5913 C5912 1.377 . S
C5913 C5919 1.390 . S
C5914 H5905 0.930 . S
C5914 C5912 1.384 . S
C5914 C5915 1.372 . S
C5915 C5914 1.372 . S
C5915 C5916 1.400 . S
C5915 C5920 1.490 . S
C5916 H5906 0.930 . S
C5916 C5915 1.400 . S
C5916 C5919 1.386 . S
H5917 C5933 0.930 . S
H5918 C5934 0.931 . S
C5919 H5907 0.929 . S
C5919 C5913 1.390 . S
C5919 C5916 1.386 . S
C5920 C5915 1.490 . S
C5920 C5922 1.395 . S
C5920 C5923 1.403 . S
H5921 C5927 0.930 . S
C5922 H5908 0.930 . S
C5922 C5920 1.395 . S
C5922 C5925 1.403 . S
C5923 C5920 1.403 . S
C5923 C5924 1.524 . S
C5923 C5927 1.400 . S
C5924 H5909 0.960 . S
C5924 H5910 0.960 . S
C5924 H5911 0.960 . S
C5924 C5923 1.524 . S
C5925 C5922 1.403 . S
C5925 C5926 1.392 . S
C5925 C5929 1.495 . S
C5926 C5925 1.392 . S
C5926 C5927 1.385 . S
C5926 C5928 1.478 . S
C5927 H5921 0.930 . S
C5927 C5923 1.400 . S
C5927 C5926 1.385 . S
C5928 C5926 1.478 . S
C5928 C5930 1.381 . S
C5928 C5934 1.383 . S
C5929 C5925 1.495 . S
C5929 H5935 0.959 . S
C5929 H5936 0.961 . S
C5929 H5937 0.960 . S
C5930 C5928 1.381 . S
C5930 C5931 1.394 . S
C5930 H5938 0.930 . S
C5931 C5930 1.394 . S
C5931 C5932 1.383 . S
C5931 H5939 0.929 . S
C5932 C5931 1.383 . S
C5932 C5933 1.377 . S
C5933 H5917 0.930 . S
C5933 C5932 1.377 . S
C5933 C5934 1.379 . S
C5934 H5918 0.931 . S
C5934 C5928 1.383 . S
C5934 C5933 1.379 . S
H5935 C5929 0.959 . S
H5936 C5929 0.961 . S
H5937 C5929 0.960 . S
H5938 C5930 0.930 . S
H5939 C5931 0.929 . S
H5940 C5948 0.929 . S
H5941 C5950 0.930 . S
H5942 C5952 0.930 . S
H5943 C5955 0.929 . S
H5944 C5958 0.930 . S
H5945 C5960 0.960 . S
H5946 C5960 0.971 . S
H5947 C5960 0.960 . S
C5948 H5940 0.929 . S
C5948 C5949 1.377 1_554 S
C5948 C5950 1.384 . S
C5949 C5948 1.377 1_556 S
C5949 C5955 1.390 . S
C5950 H5941 0.930 . S
C5950 C5948 1.384 . S
C5950 C5951 1.372 . S
C5951 C5950 1.372 . S
C5951 C5952 1.400 1_554 S
C5951 C5956 1.490 . S
C5952 H5942 0.930 . S
C5952 C5951 1.400 1_556 S
C5952 C5955 1.386 . S
H5953 C5969 0.984 . S
H5954 C5970 0.931 1_556 S
C5955 H5943 0.929 . S
C5955 C5949 1.390 . S
C5955 C5952 1.386 . S
C5956 C5951 1.490 . S
C5956 C5958 1.395 . S
C5956 C5959 1.403 . S
H5957 C5963 0.930 . S
C5958 H5944 0.930 . S
C5958 C5956 1.395 . S
C5958 C5961 1.403 . S
C5959 C5956 1.403 . S
C5959 C5960 1.524 1_554 S
C5959 C5963 1.400 . S
C5960 H5945 0.960 . S
C5960 H5946 0.971 . S
C5960 H5947 0.960 . S
C5960 C5959 1.524 1_556 S
C5961 C5958 1.403 . S
C5961 C5962 1.392 . S
C5961 C5965 1.495 . S
C5962 C5961 1.392 . S
C5962 C5963 1.385 . S
C5962 C5964 1.478 . S
C5963 H5957 0.930 . S
C5963 C5959 1.400 . S
C5963 C5962 1.385 . S
C5964 C5962 1.478 . S
C5964 C5966 1.381 . S
C5964 C5970 1.383 . S
C5965 C5961 1.495 . S
C5965 H5971 0.959 . S
C5965 H5972 0.961 . S
C5965 H5973 0.960 . S
C5966 C5964 1.381 . S
C5966 C5967 1.394 . S
C5966 H5974 0.930 . S
C5967 C5966 1.394 . S
C5967 C5968 1.383 . S
C5967 H5975 0.929 . S
C5968 C5967 1.383 . S
C5968 C5969 1.377 . S
C5969 H5953 0.984 . S
C5969 C5968 1.377 . S
C5969 C5970 1.379 . S
C5970 H5954 0.931 1_554 S
C5970 C5964 1.383 . S
C5970 C5969 1.379 . S
H5971 C5965 0.959 . S
H5972 C5965 0.961 . S
H5973 C5965 0.960 . S
H5974 C5966 0.930 . S
H5975 C5967 0.929 . S
H5976 C5984 0.929 . S
H5977 C5986 0.930 . S
H5978 C5988 0.930 . S
H5979 C5991 0.929 . S
H5980 C5994 0.930 . S
H5981 C5996 0.960 . S
H5982 C5996 0.960 . S
H5983 C5996 0.960 . S
C5984 H5976 0.929 . S
C5984 C5985 1.377 . S
C5984 C5986 1.384 . S
C5985 C5984 1.377 . S
C5985 C5991 1.390 . S
C5986 H5977 0.930 . S
C5986 C5984 1.384 . S
C5986 C5987 1.372 . S
C5987 C5986 1.372 . S
C5987 C5988 1.400 . S
C5987 C5992 1.490 . S
C5988 H5978 0.930 . S
C5988 C5987 1.400 . S
C5988 C5991 1.386 . S
H5989 C6005 0.930 . S
H5990 C6006 0.931 . S
C5991 H5979 0.929 . S
C5991 C5985 1.390 . S
C5991 C5988 1.386 . S
C5992 C5987 1.490 . S
C5992 C5994 1.395 . S
C5992 C5995 1.403 . S
H5993 C5999 0.930 . S
C5994 H5980 0.930 . S
C5994 C5992 1.395 . S
C5994 C5997 1.403 . S
C5995 C5992 1.403 . S
C5995 C5996 1.524 . S
C5995 C5999 1.400 . S
C5996 H5981 0.960 . S
C5996 H5982 0.960 . S
C5996 H5983 0.960 . S
C5996 C5995 1.524 . S
C5997 C5994 1.403 . S
C5997 C5998 1.392 . S
C5997 C6001 1.495 . S
C5998 C5997 1.392 . S
C5998 C5999 1.385 . S
C5998 C6000 1.478 . S
C5999 H5993 0.930 . S
C5999 C5995 1.400 . S
C5999 C5998 1.385 . S
C6000 C5998 1.478 . S
C6000 C6002 1.381 . S
C6000 C6006 1.383 . S
C6001 C5997 1.495 . S
C6001 H6007 0.959 . S
C6001 H6008 0.961 . S
C6001 H6009 0.960 . S
C6002 C6000 1.381 . S
C6002 C6003 1.394 . S
C6002 H6010 0.930 . S
C6003 C6002 1.394 . S
C6003 C6004 1.383 . S
C6003 H6011 0.929 . S
C6004 C6003 1.383 . S
C6004 C6005 1.377 . S
C6005 H5989 0.930 . S
C6005 C6004 1.377 . S
C6005 C6006 1.379 . S
C6006 H5990 0.931 . S
C6006 C6000 1.383 . S
C6006 C6005 1.379 . S
H6007 C6001 0.959 . S
H6008 C6001 0.961 . S
H6009 C6001 0.960 . S
H6010 C6002 0.930 . S
H6011 C6003 0.929 . S
H6012 C6020 0.929 . S
H6013 C6022 0.930 . S
H6014 C6024 0.930 . S
H6015 C6027 0.929 . S
H6016 C6030 0.930 . S
H6017 C6032 0.960 . S
H6018 C6032 0.960 . S
H6019 C6032 0.960 . S
C6020 H6012 0.929 . S
C6020 C6021 1.377 . S
C6020 C6022 1.384 . S
C6021 C6020 1.377 . S
C6021 C6027 1.390 . S
C6022 H6013 0.930 . S
C6022 C6020 1.384 . S
C6022 C6023 1.372 . S
C6023 C6022 1.372 . S
C6023 C6024 1.400 . S
C6023 C6028 1.490 . S
C6024 H6014 0.930 . S
C6024 C6023 1.400 . S
C6024 C6027 1.386 . S
H6025 C6041 0.930 . S
H6026 C6042 0.931 . S
C6027 H6015 0.929 . S
C6027 C6021 1.390 . S
C6027 C6024 1.386 . S
C6028 C6023 1.490 . S
C6028 C6030 1.395 . S
C6028 C6031 1.403 . S
H6029 C6035 0.930 . S
C6030 H6016 0.930 . S
C6030 C6028 1.395 . S
C6030 C6033 1.403 . S
C6031 C6028 1.403 . S
C6031 C6032 1.524 . S
C6031 C6035 1.400 . S
C6032 H6017 0.960 . S
C6032 H6018 0.960 . S
C6032 H6019 0.960 . S
C6032 C6031 1.524 . S
C6033 C6030 1.403 . S
C6033 C6034 1.392 . S
C6033 C6037 1.495 . S
C6034 C6033 1.392 . S
C6034 C6035 1.385 . S
C6034 C6036 1.478 . S
C6035 H6029 0.930 . S
C6035 C6031 1.400 . S
C6035 C6034 1.385 . S
C6036 C6034 1.478 . S
C6036 C6038 1.381 . S
C6036 C6042 1.383 . S
C6037 C6033 1.495 . S
C6037 H6043 0.959 . S
C6037 H6044 0.961 . S
C6037 H6045 0.960 . S
C6038 C6036 1.381 . S
C6038 C6039 1.394 . S
C6038 H6046 0.930 . S
C6039 C6038 1.394 . S
C6039 C6040 1.383 . S
C6039 H6047 0.929 . S
C6040 C6039 1.383 . S
C6040 C6041 1.377 . S
C6041 H6025 0.930 . S
C6041 C6040 1.377 . S
C6041 C6042 1.379 . S
C6042 H6026 0.931 . S
C6042 C6036 1.383 . S
C6042 C6041 1.379 . S
H6043 C6037 0.959 . S
H6044 C6037 0.961 . S
H6045 C6037 0.960 . S
H6046 C6038 0.930 . S
H6047 C6039 0.929 . S
H6048 C6056 0.929 . S
H6049 C6058 0.930 . S
H6050 C6060 0.930 . S
H6051 C6063 0.929 . S
H6052 C6066 0.930 . S
H6053 C6068 0.960 . S
H6054 C6068 0.960 . S
H6055 C6068 0.960 . S
C6056 H6048 0.929 . S
C6056 C6057 1.377 . S
C6056 C6058 1.384 . S
C6057 C6056 1.377 . S
C6057 C6063 1.390 . S
C6058 H6049 0.930 . S
C6058 C6056 1.384 . S
C6058 C6059 1.372 . S
C6059 C6058 1.372 . S
C6059 C6060 1.400 . S
C6059 C6064 1.490 . S
C6060 H6050 0.930 . S
C6060 C6059 1.400 . S
C6060 C6063 1.386 . S
H6061 C6077 0.930 . S
H6062 C6078 0.931 . S
C6063 H6051 0.929 . S
C6063 C6057 1.390 . S
C6063 C6060 1.386 . S
C6064 C6059 1.490 . S
C6064 C6066 1.395 . S
C6064 C6067 1.403 . S
H6065 C6071 0.930 . S
C6066 H6052 0.930 . S
C6066 C6064 1.395 . S
C6066 C6069 1.403 . S
C6067 C6064 1.403 . S
C6067 C6068 1.524 . S
C6067 C6071 1.400 . S
C6068 H6053 0.960 . S
C6068 H6054 0.960 . S
C6068 H6055 0.960 . S
C6068 C6067 1.524 . S
C6069 C6066 1.403 . S
C6069 C6070 1.392 . S
C6069 C6073 1.495 . S
C6070 C6069 1.392 . S
C6070 C6071 1.385 . S
C6070 C6072 1.478 . S
C6071 H6065 0.930 . S
C6071 C6067 1.400 . S
C6071 C6070 1.385 . S
C6072 C6070 1.478 . S
C6072 C6074 1.381 . S
C6072 C6078 1.383 . S
C6073 C6069 1.495 . S
C6073 H6079 0.959 . S
C6073 H6080 0.961 . S
C6073 H6081 0.960 . S
C6074 C6072 1.381 . S
C6074 C6075 1.394 . S
C6074 H6082 0.930 . S
C6075 C6074 1.394 . S
C6075 C6076 1.383 . S
C6075 H6083 0.929 . S
C6076 C6075 1.383 . S
C6076 C6077 1.377 . S
C6077 H6061 0.930 . S
C6077 C6076 1.377 . S
C6077 C6078 1.379 . S
C6078 H6062 0.931 . S
C6078 C6072 1.383 . S
C6078 C6077 1.379 . S
H6079 C6073 0.959 . S
H6080 C6073 0.961 . S
H6081 C6073 0.960 . S
H6082 C6074 0.930 . S
H6083 C6075 0.929 . S
H6084 C6092 0.929 . S
H6085 C6094 0.930 . S
H6086 C6096 0.930 . S
H6087 C6099 0.929 . S
H6088 C6102 0.930 . S
H6089 C6104 0.960 . S
H6090 C6104 0.960 . S
H6091 C6104 0.960 . S
C6092 H6084 0.929 . S
C6092 C6093 1.377 . S
C6092 C6094 1.384 . S
C6093 C6092 1.377 . S
C6093 C6099 1.390 . S
C6094 H6085 0.930 . S
C6094 C6092 1.384 . S
C6094 C6095 1.372 . S
C6095 C6094 1.372 . S
C6095 C6096 1.400 . S
C6095 C6100 1.490 . S
C6096 H6086 0.930 . S
C6096 C6095 1.400 . S
C6096 C6099 1.386 . S
H6097 C6113 0.930 . S
H6098 C6114 0.931 . S
C6099 H6087 0.929 . S
C6099 C6093 1.390 . S
C6099 C6096 1.386 . S
C6100 C6095 1.490 . S
C6100 C6102 1.395 . S
C6100 C6103 1.403 . S
H6101 C6107 0.930 . S
C6102 H6088 0.930 . S
C6102 C6100 1.395 . S
C6102 C6105 1.403 . S
C6103 C6100 1.403 . S
C6103 C6104 1.524 . S
C6103 C6107 1.400 . S
C6104 H6089 0.960 . S
C6104 H6090 0.960 . S
C6104 H6091 0.960 . S
C6104 C6103 1.524 . S
C6105 C6102 1.403 . S
C6105 C6106 1.392 . S
C6105 C6109 1.495 . S
C6106 C6105 1.392 . S
C6106 C6107 1.385 . S
C6106 C6108 1.478 . S
C6107 H6101 0.930 . S
C6107 C6103 1.400 . S
C6107 C6106 1.385 . S
C6108 C6106 1.478 . S
C6108 C6110 1.381 . S
C6108 C6114 1.383 . S
C6109 C6105 1.495 . S
C6109 H6115 0.959 . S
C6109 H6116 0.961 . S
C6109 H6117 0.960 . S
C6110 C6108 1.381 . S
C6110 C6111 1.394 . S
C6110 H6118 0.930 . S
C6111 C6110 1.394 . S
C6111 C6112 1.383 . S
C6111 H6119 0.929 . S
C6112 C6111 1.383 . S
C6112 C6113 1.377 . S
C6113 H6097 0.930 . S
C6113 C6112 1.377 . S
C6113 C6114 1.379 . S
C6114 H6098 0.931 . S
C6114 C6108 1.383 . S
C6114 C6113 1.379 . S
H6115 C6109 0.959 . S
H6116 C6109 0.961 . S
H6117 C6109 0.960 . S
H6118 C6110 0.930 . S
H6119 C6111 0.929 . S
H6120 C6128 0.929 . S
H6121 C6130 0.930 . S
H6122 C6132 0.930 . S
H6123 C6135 0.929 . S
H6124 C6138 0.930 . S
H6125 C6140 0.960 . S
H6126 C6140 0.960 . S
H6127 C6140 0.960 . S
C6128 H6120 0.929 . S
C6128 C6129 1.377 . S
C6128 C6130 1.384 . S
C6129 C6128 1.377 . S
C6129 C6135 1.390 . S
C6130 H6121 0.930 . S
C6130 C6128 1.384 . S
C6130 C6131 1.372 . S
C6131 C6130 1.372 . S
C6131 C6132 1.400 . S
C6131 C6136 1.490 . S
C6132 H6122 0.930 . S
C6132 C6131 1.400 . S
C6132 C6135 1.386 . S
H6133 C6149 0.930 . S
H6134 C6150 0.931 . S
C6135 H6123 0.929 . S
C6135 C6129 1.390 . S
C6135 C6132 1.386 . S
C6136 C6131 1.490 . S
C6136 C6138 1.395 . S
C6136 C6139 1.403 . S
H6137 C6143 0.930 . S
C6138 H6124 0.930 . S
C6138 C6136 1.395 . S
C6138 C6141 1.403 . S
C6139 C6136 1.403 . S
C6139 C6140 1.524 . S
C6139 C6143 1.400 . S
C6140 H6125 0.960 . S
C6140 H6126 0.960 . S
C6140 H6127 0.960 . S
C6140 C6139 1.524 . S
C6141 C6138 1.403 . S
C6141 C6142 1.392 . S
C6141 C6145 1.495 . S
C6142 C6141 1.392 . S
C6142 C6143 1.385 . S
C6142 C6144 1.478 . S
C6143 H6137 0.930 . S
C6143 C6139 1.400 . S
C6143 C6142 1.385 . S
C6144 C6142 1.478 . S
C6144 C6146 1.381 . S
C6144 C6150 1.383 . S
C6145 C6141 1.495 . S
C6145 H6151 0.959 . S
C6145 H6152 0.961 1_554 S
C6145 H6153 0.960 . S
C6146 C6144 1.381 . S
C6146 C6147 1.394 . S
C6146 H6154 0.930 . S
C6147 C6146 1.394 . S
C6147 C6148 1.383 . S
C6147 H6155 0.929 . S
C6148 C6147 1.383 . S
C6148 C6149 1.377 . S
C6149 H6133 0.930 . S
C6149 C6148 1.377 . S
C6149 C6150 1.379 . S
C6150 H6134 0.931 . S
C6150 C6144 1.383 . S
C6150 C6149 1.379 . S
H6151 C6145 0.959 . S
H6152 C6145 0.961 1_556 S
H6153 C6145 0.960 . S
H6154 C6146 0.930 . S
H6155 C6147 0.929 . S
H6156 C6164 0.929 . S
H6157 C6166 0.930 . S
H6158 C6168 0.930 . S
H6159 C6171 0.929 . S
H6160 C6174 0.930 . S
H6161 C6176 0.960 . S
H6162 C6176 0.960 . S
H6163 C6176 0.960 . S
C6164 H6156 0.929 . S
C6164 C6165 1.377 . S
C6164 C6166 1.384 . S
C6165 C6164 1.377 . S
C6165 C6171 1.390 . S
C6166 H6157 0.930 . S
C6166 C6164 1.384 . S
C6166 C6167 1.372 . S
C6167 C6166 1.372 . S
C6167 C6168 1.400 . S
C6167 C6172 1.490 . S
C6168 H6158 0.930 . S
C6168 C6167 1.400 . S
C6168 C6171 1.386 . S
H6169 C6185 0.930 . S
H6170 C6186 0.931 . S
C6171 H6159 0.929 . S
C6171 C6165 1.390 . S
C6171 C6168 1.386 . S
C6172 C6167 1.490 . S
C6172 C6174 1.395 . S
C6172 C6175 1.403 . S
H6173 C6179 0.930 . S
C6174 H6160 0.930 . S
C6174 C6172 1.395 . S
C6174 C6177 1.403 . S
C6175 C6172 1.403 . S
C6175 C6176 1.524 . S
C6175 C6179 1.400 . S
C6176 H6161 0.960 . S
C6176 H6162 0.960 . S
C6176 H6163 0.960 . S
C6176 C6175 1.524 . S
C6177 C6174 1.403 . S
C6177 C6178 1.392 . S
C6177 C6181 1.495 . S
C6178 C6177 1.392 . S
C6178 C6179 1.385 . S
C6178 C6180 1.478 . S
C6179 H6173 0.930 . S
C6179 C6175 1.400 . S
C6179 C6178 1.385 . S
C6180 C6178 1.478 . S
C6180 C6182 1.381 . S
C6180 C6186 1.383 . S
C6181 C6177 1.495 . S
C6181 H6187 0.959 . S
C6181 H6188 0.961 . S
C6181 H6189 0.960 . S
C6182 C6180 1.381 . S
C6182 C6183 1.394 . S
C6182 H6190 0.930 . S
C6183 C6182 1.394 . S
C6183 C6184 1.383 . S
C6183 H6191 0.929 . S
C6184 C6183 1.383 . S
C6184 C6185 1.377 . S
C6185 H6169 0.930 . S
C6185 C6184 1.377 . S
C6185 C6186 1.379 . S
C6186 H6170 0.931 . S
C6186 C6180 1.383 . S
C6186 C6185 1.379 . S
H6187 C6181 0.959 . S
H6188 C6181 0.961 . S
H6189 C6181 0.960 . S
H6190 C6182 0.930 . S
H6191 C6183 0.929 . S
H6192 C6200 0.929 . S
H6193 C6202 0.930 . S
H6194 C6204 0.930 . S
H6195 C6207 0.929 . S
H6196 C6210 0.930 . S
H6197 C6212 0.960 . S
H6198 C6212 0.960 . S
H6199 C6212 0.960 . S
C6200 H6192 0.929 . S
C6200 C6201 1.377 . S
C6200 C6202 1.384 . S
C6201 C6200 1.377 . S
C6201 C6207 1.390 . S
C6202 H6193 0.930 . S
C6202 C6200 1.384 . S
C6202 C6203 1.372 . S
C6203 C6202 1.372 . S
C6203 C6204 1.400 . S
C6203 C6208 1.490 . S
C6204 H6194 0.930 . S
C6204 C6203 1.400 . S
C6204 C6207 1.386 . S
H6205 C6221 0.930 . S
H6206 C6222 0.931 . S
C6207 H6195 0.929 . S
C6207 C6201 1.390 . S
C6207 C6204 1.386 . S
C6208 C6203 1.490 . S
C6208 C6210 1.395 . S
C6208 C6211 1.403 . S
H6209 C6215 0.930 . S
C6210 H6196 0.930 . S
C6210 C6208 1.395 . S
C6210 C6213 1.403 . S
C6211 C6208 1.403 . S
C6211 C6212 1.524 . S
C6211 C6215 1.400 . S
C6212 H6197 0.960 . S
C6212 H6198 0.960 . S
C6212 H6199 0.960 . S
C6212 C6211 1.524 . S
C6213 C6210 1.403 . S
C6213 C6214 1.392 . S
C6213 C6217 1.495 . S
C6214 C6213 1.392 . S
C6214 C6215 1.385 . S
C6214 C6216 1.478 . S
C6215 H6209 0.930 . S
C6215 C6211 1.400 . S
C6215 C6214 1.385 . S
C6216 C6214 1.478 . S
C6216 C6218 1.381 . S
C6216 C6222 1.383 . S
C6217 C6213 1.495 . S
C6217 H6223 0.959 . S
C6217 H6224 0.961 . S
C6217 H6225 0.960 1_556 S
C6218 C6216 1.381 . S
C6218 C6219 1.395 . S
C6218 H6226 0.954 . S
C6219 C6218 1.395 . S
C6219 C6220 1.384 . S
C6219 H6227 0.928 1_556 S
C6220 C6219 1.384 . S
C6220 C6221 1.377 . S
C6221 H6205 0.930 . S
C6221 C6220 1.377 . S
C6221 C6222 1.379 . S
C6222 H6206 0.931 . S
C6222 C6216 1.383 . S
C6222 C6221 1.379 . S
H6223 C6217 0.959 . S
H6224 C6217 0.961 . S
H6225 C6217 0.960 1_554 S
H6226 C6218 0.954 . S
H6227 C6219 0.928 1_554 S
H6228 C6236 0.929 . S
H6229 C6238 0.930 . S
H6230 C6240 0.930 . S
H6231 C6243 0.929 . S
H6232 C6246 0.930 . S
H6233 C6248 0.960 . S
H6234 C6248 0.960 . S
H6235 C6248 0.960 . S
C6236 H6228 0.929 . S
C6236 C6237 1.377 . S
C6236 C6238 1.384 . S
C6237 C6236 1.377 . S
C6237 C6243 1.390 . S
C6238 H6229 0.930 . S
C6238 C6236 1.384 . S
C6238 C6239 1.372 . S
C6239 C6238 1.372 . S
C6239 C6240 1.400 . S
C6239 C6244 1.490 . S
C6240 H6230 0.930 . S
C6240 C6239 1.400 . S
C6240 C6243 1.386 . S
H6241 C6257 0.930 . S
H6242 C6258 0.931 . S
C6243 H6231 0.929 . S
C6243 C6237 1.390 . S
C6243 C6240 1.386 . S
C6244 C6239 1.490 . S
C6244 C6246 1.395 . S
C6244 C6247 1.403 . S
H6245 C6251 0.930 . S
C6246 H6232 0.930 . S
C6246 C6244 1.395 . S
C6246 C6249 1.403 . S
C6247 C6244 1.403 . S
C6247 C6248 1.524 . S
C6247 C6251 1.400 . S
C6248 H6233 0.960 . S
C6248 H6234 0.960 . S
C6248 H6235 0.960 . S
C6248 C6247 1.524 . S
C6249 C6246 1.403 . S
C6249 C6250 1.392 . S
C6249 C6253 1.495 . S
C6250 C6249 1.392 . S
C6250 C6251 1.385 . S
C6250 C6252 1.478 . S
C6251 H6245 0.930 . S
C6251 C6247 1.400 . S
C6251 C6250 1.385 . S
C6252 C6250 1.478 . S
C6252 C6254 1.381 . S
C6252 C6258 1.383 . S
C6253 C6249 1.495 . S
C6253 H6259 0.959 . S
C6253 H6260 0.961 . S
C6253 H6261 0.960 . S
C6254 C6252 1.381 . S
C6254 C6255 1.394 . S
C6254 H6262 0.930 . S
C6255 C6254 1.394 . S
C6255 C6256 1.383 . S
C6255 H6263 0.929 . S
C6256 C6255 1.383 . S
C6256 C6257 1.377 . S
C6257 H6241 0.930 . S
C6257 C6256 1.377 . S
C6257 C6258 1.379 . S
C6258 H6242 0.931 . S
C6258 C6252 1.383 . S
C6258 C6257 1.379 . S
H6259 C6253 0.959 . S
H6260 C6253 0.961 . S
H6261 C6253 0.960 . S
H6262 C6254 0.930 . S
H6263 C6255 0.929 . S
H6264 C6272 0.929 . S
H6265 C6274 0.930 . S
H6266 C6276 0.930 . S
H6267 C6279 0.929 . S
H6268 C6282 0.930 . S
H6269 C6284 0.960 . S
H6270 C6284 0.960 . S
H6271 C6284 0.960 . S
C6272 H6264 0.929 . S
C6272 C6273 1.377 . S
C6272 C6274 1.384 . S
C6273 C6272 1.377 . S
C6273 C6279 1.390 . S
C6274 H6265 0.930 . S
C6274 C6272 1.384 . S
C6274 C6275 1.372 . S
C6275 C6274 1.372 . S
C6275 C6276 1.400 . S
C6275 C6280 1.490 . S
C6276 H6266 0.930 . S
C6276 C6275 1.400 . S
C6276 C6279 1.386 . S
H6277 C6293 0.930 . S
H6278 C6294 0.931 . S
C6279 H6267 0.929 . S
C6279 C6273 1.390 . S
C6279 C6276 1.386 . S
C6280 C6275 1.490 . S
C6280 C6282 1.395 . S
C6280 C6283 1.403 . S
H6281 C6287 0.930 . S
C6282 H6268 0.930 . S
C6282 C6280 1.395 . S
C6282 C6285 1.403 . S
C6283 C6280 1.403 . S
C6283 C6284 1.524 . S
C6283 C6287 1.400 . S
C6284 H6269 0.960 . S
C6284 H6270 0.960 . S
C6284 H6271 0.960 . S
C6284 C6283 1.524 . S
C6285 C6282 1.403 . S
C6285 C6286 1.392 . S
C6285 C6289 1.495 . S
C6286 C6285 1.392 . S
C6286 C6287 1.385 . S
C6286 C6288 1.478 . S
C6287 H6281 0.930 . S
C6287 C6283 1.400 . S
C6287 C6286 1.385 . S
C6288 C6286 1.478 . S
C6288 C6290 1.381 . S
C6288 C6294 1.383 . S
C6289 C6285 1.495 . S
C6289 H6295 0.959 . S
C6289 H6296 0.961 . S
C6289 H6297 0.960 . S
C6290 C6288 1.381 . S
C6290 C6291 1.394 . S
C6290 H6298 0.930 . S
C6291 C6290 1.394 . S
C6291 C6292 1.383 . S
C6291 H6299 0.929 . S
C6292 C6291 1.383 . S
C6292 C6293 1.377 . S
C6293 H6277 0.930 . S
C6293 C6292 1.377 . S
C6293 C6294 1.379 . S
C6294 H6278 0.931 . S
C6294 C6288 1.383 . S
C6294 C6293 1.379 . S
H6295 C6289 0.959 . S
H6296 C6289 0.961 . S
H6297 C6289 0.960 . S
H6298 C6290 0.930 . S
H6299 C6291 0.929 . S
H6300 C6308 0.929 . S
H6301 C6310 0.930 . S
H6302 C6312 0.930 . S
H6303 C6315 0.929 . S
H6304 C6318 0.930 . S
H6305 C6320 0.960 . S
H6306 C6320 0.960 . S
H6307 C6320 0.960 . S
C6308 H6300 0.929 . S
C6308 C6309 1.377 . S
C6308 C6310 1.384 . S
C6309 C6308 1.377 . S
C6309 C6315 1.390 . S
C6310 H6301 0.930 . S
C6310 C6308 1.384 . S
C6310 C6311 1.372 . S
C6311 C6310 1.372 . S
C6311 C6312 1.400 . S
C6311 C6316 1.490 . S
C6312 H6302 0.930 . S
C6312 C6311 1.400 . S
C6312 C6315 1.386 . S
H6313 C6329 0.930 . S
H6314 C6330 0.931 . S
C6315 H6303 0.929 . S
C6315 C6309 1.390 . S
C6315 C6312 1.386 . S
C6316 C6311 1.490 . S
C6316 C6318 1.395 . S
C6316 C6319 1.403 . S
H6317 C6323 0.930 . S
C6318 H6304 0.930 . S
C6318 C6316 1.395 . S
C6318 C6321 1.403 . S
C6319 C6316 1.403 . S
C6319 C6320 1.524 . S
C6319 C6323 1.400 . S
C6320 H6305 0.960 . S
C6320 H6306 0.960 . S
C6320 H6307 0.960 . S
C6320 C6319 1.524 . S
C6321 C6318 1.403 . S
C6321 C6322 1.392 . S
C6321 C6325 1.495 . S
C6322 C6321 1.392 . S
C6322 C6323 1.385 . S
C6322 C6324 1.478 . S
C6323 H6317 0.930 . S
C6323 C6319 1.400 . S
C6323 C6322 1.385 . S
C6324 C6322 1.478 . S
C6324 C6326 1.381 . S
C6324 C6330 1.383 . S
C6325 C6321 1.495 . S
C6325 H6331 0.959 . S
C6325 H6332 0.961 . S
C6325 H6333 0.960 . S
C6326 C6324 1.381 . S
C6326 C6327 1.394 . S
C6326 H6334 0.930 . S
C6327 C6326 1.394 . S
C6327 C6328 1.383 . S
C6327 H6335 0.929 . S
C6328 C6327 1.383 . S
C6328 C6329 1.377 . S
C6329 H6313 0.930 . S
C6329 C6328 1.377 . S
C6329 C6330 1.379 . S
C6330 H6314 0.931 . S
C6330 C6324 1.383 . S
C6330 C6329 1.379 . S
H6331 C6325 0.959 . S
H6332 C6325 0.961 . S
H6333 C6325 0.960 . S
H6334 C6326 0.930 . S
H6335 C6327 0.929 . S
H6336 C6344 0.929 . S
H6337 C6346 0.930 . S
H6338 C6348 0.930 . S
H6339 C6351 0.929 . S
H6340 C6354 0.930 . S
H6341 C6356 0.960 . S
H6342 C6356 0.960 . S
H6343 C6356 0.960 . S
C6344 H6336 0.929 . S
C6344 C6345 1.377 . S
C6344 C6346 1.384 . S
C6345 C6344 1.377 . S
C6345 C6351 1.390 . S
C6346 H6337 0.930 . S
C6346 C6344 1.384 . S
C6346 C6347 1.372 . S
C6347 C6346 1.372 . S
C6347 C6348 1.400 . S
C6347 C6352 1.490 . S
C6348 H6338 0.930 . S
C6348 C6347 1.400 . S
C6348 C6351 1.386 . S
H6349 C6365 0.930 . S
H6350 C6366 0.931 . S
C6351 H6339 0.929 . S
C6351 C6345 1.390 . S
C6351 C6348 1.386 . S
C6352 C6347 1.490 . S
C6352 C6354 1.395 . S
C6352 C6355 1.403 . S
H6353 C6359 0.930 . S
C6354 H6340 0.930 . S
C6354 C6352 1.395 . S
C6354 C6357 1.403 . S
C6355 C6352 1.403 . S
C6355 C6356 1.524 . S
C6355 C6359 1.400 . S
C6356 H6341 0.960 . S
C6356 H6342 0.960 . S
C6356 H6343 0.960 . S
C6356 C6355 1.524 . S
C6357 C6354 1.403 . S
C6357 C6358 1.392 . S
C6357 C6361 1.495 . S
C6358 C6357 1.392 . S
C6358 C6359 1.385 . S
C6358 C6360 1.478 . S
C6359 H6353 0.930 . S
C6359 C6355 1.400 . S
C6359 C6358 1.385 . S
C6360 C6358 1.478 . S
C6360 C6362 1.381 . S
C6360 C6366 1.383 . S
C6361 C6357 1.495 . S
C6361 H6367 0.959 . S
C6361 H6368 0.961 . S
C6361 H6369 0.960 . S
C6362 C6360 1.381 . S
C6362 C6363 1.394 . S
C6362 H6370 0.930 . S
C6363 C6362 1.394 . S
C6363 C6364 1.383 . S
C6363 H6371 0.929 . S
C6364 C6363 1.383 . S
C6364 C6365 1.377 . S
C6365 H6349 0.930 . S
C6365 C6364 1.377 . S
C6365 C6366 1.379 . S
C6366 H6350 0.931 . S
C6366 C6360 1.383 . S
C6366 C6365 1.379 . S
H6367 C6361 0.959 . S
H6368 C6361 0.961 . S
H6369 C6361 0.960 . S
H6370 C6362 0.930 . S
H6371 C6363 0.929 . S
H6372 C6380 0.929 . S
H6373 C6382 0.930 . S
H6374 C6384 0.930 . S
H6375 C6387 0.929 . S
H6376 C6390 0.930 . S
H6377 C6392 0.960 . S
H6378 C6392 0.960 . S
H6379 C6392 0.960 . S
C6380 H6372 0.929 . S
C6380 C6381 1.377 . S
C6380 C6382 1.384 . S
C6381 C6380 1.377 . S
C6381 C6387 1.390 . S
C6382 H6373 0.930 . S
C6382 C6380 1.384 . S
C6382 C6383 1.372 . S
C6383 C6382 1.372 . S
C6383 C6384 1.400 . S
C6383 C6388 1.490 . S
C6384 H6374 0.930 . S
C6384 C6383 1.400 . S
C6384 C6387 1.386 . S
H6385 C6401 0.930 . S
H6386 C6402 0.931 . S
C6387 H6375 0.929 . S
C6387 C6381 1.390 . S
C6387 C6384 1.386 . S
C6388 C6383 1.490 . S
C6388 C6390 1.395 . S
C6388 C6391 1.403 . S
H6389 C6395 0.930 . S
C6390 H6376 0.930 . S
C6390 C6388 1.395 . S
C6390 C6393 1.403 . S
C6391 C6388 1.403 . S
C6391 C6392 1.524 . S
C6391 C6395 1.400 . S
C6392 H6377 0.960 . S
C6392 H6378 0.960 . S
C6392 H6379 0.960 . S
C6392 C6391 1.524 . S
C6393 C6390 1.403 . S
C6393 C6394 1.392 . S
C6393 C6397 1.495 . S
C6394 C6393 1.392 . S
C6394 C6395 1.385 . S
C6394 C6396 1.478 . S
C6395 H6389 0.930 . S
C6395 C6391 1.400 . S
C6395 C6394 1.385 . S
C6396 C6394 1.478 . S
C6396 C6398 1.381 . S
C6396 C6402 1.383 . S
C6397 C6393 1.495 . S
C6397 H6403 0.959 . S
C6397 H6404 0.961 . S
C6397 H6405 0.960 . S
C6398 C6396 1.381 . S
C6398 C6399 1.394 . S
C6398 H6406 0.930 . S
C6399 C6398 1.394 . S
C6399 C6400 1.383 . S
C6399 H6407 0.929 . S
C6400 C6399 1.383 . S
C6400 C6401 1.377 . S
C6401 H6385 0.930 . S
C6401 C6400 1.377 . S
C6401 C6402 1.379 . S
C6402 H6386 0.931 . S
C6402 C6396 1.383 . S
C6402 C6401 1.379 . S
H6403 C6397 0.959 . S
H6404 C6397 0.961 . S
H6405 C6397 0.960 . S
H6406 C6398 0.930 . S
H6407 C6399 0.929 . S
H6408 C6416 0.929 . S
H6409 C6418 0.930 . S
H6410 C6420 0.930 . S
H6411 C6423 0.929 . S
H6412 C6426 0.930 1_455 S
H6413 C6428 0.960 . S
H6414 C6428 0.960 . S
H6415 C6428 0.960 . S
C6416 H6408 0.929 . S
C6416 C6417 1.377 . S
C6416 C6418 1.384 . S
C6417 C6416 1.377 . S
C6417 C6423 1.390 . S
C6418 H6409 0.930 . S
C6418 C6416 1.384 . S
C6418 C6419 1.372 . S
C6419 C6418 1.372 . S
C6419 C6420 1.400 . S
C6419 C6424 1.490 . S
C6420 H6410 0.930 . S
C6420 C6419 1.400 . S
C6420 C6423 1.386 . S
H6421 C6437 0.930 . S
H6422 C6438 0.931 1_655 S
C6423 H6411 0.929 . S
C6423 C6417 1.390 . S
C6423 C6420 1.386 . S
C6424 C6419 1.490 . S
C6424 C6426 1.395 . S
C6424 C6427 1.403 . S
H6425 C6431 0.930 . S
C6426 H6412 0.930 1_655 S
C6426 C6424 1.395 . S
C6426 C6429 1.403 1_655 S
C6427 C6424 1.403 . S
C6427 C6428 1.524 . S
C6427 C6431 1.400 . S
C6428 H6413 0.960 . S
C6428 H6414 0.960 . S
C6428 H6415 0.960 . S
C6428 C6427 1.524 . S
C6429 C6426 1.403 1_455 S
C6429 C6430 1.392 . S
C6429 C6433 1.495 . S
C6430 C6429 1.392 . S
C6430 C6431 1.385 1_455 S
C6430 C6432 1.478 . S
C6431 H6425 0.930 . S
C6431 C6427 1.400 . S
C6431 C6430 1.385 1_655 S
C6432 C6430 1.478 . S
C6432 C6434 1.381 . S
C6432 C6438 1.383 . S
C6433 C6429 1.495 . S
C6433 H6439 0.959 . S
C6433 H6440 0.961 . S
C6433 H6441 0.960 . S
C6434 C6432 1.381 . S
C6434 C6435 1.394 . S
C6434 H6442 0.930 . S
C6435 C6434 1.394 . S
C6435 C6436 1.383 . S
C6435 H6443 0.929 . S
C6436 C6435 1.383 . S
C6436 C6437 1.377 . S
C6437 H6421 0.930 . S
C6437 C6436 1.377 . S
C6437 C6438 1.379 . S
C6438 H6422 0.931 1_455 S
C6438 C6432 1.383 . S
C6438 C6437 1.379 . S
H6439 C6433 0.959 . S
H6440 C6433 0.961 . S
H6441 C6433 0.960 . S
H6442 C6434 0.930 . S
H6443 C6435 0.929 . S
H6444 C6452 0.929 . S
H6445 C6454 0.930 . S
H6446 C6456 0.930 . S
H6447 C6459 0.929 . S
H6448 C6462 0.930 . S
H6449 C6464 0.960 . S
H6450 C6464 0.960 . S
H6451 C6464 0.960 . S
C6452 H6444 0.929 . S
C6452 C6453 1.377 . S
C6452 C6454 1.384 . S
C6453 C6452 1.377 . S
C6453 C6459 1.390 . S
C6454 H6445 0.930 . S
C6454 C6452 1.384 . S
C6454 C6455 1.372 . S
C6455 C6454 1.372 . S
C6455 C6456 1.400 . S
C6455 C6460 1.490 . S
C6456 H6446 0.930 . S
C6456 C6455 1.400 . S
C6456 C6459 1.386 . S
H6457 C6473 0.930 . S
H6458 C6474 0.931 . S
C6459 H6447 0.929 . S
C6459 C6453 1.390 . S
C6459 C6456 1.386 . S
C6460 C6455 1.490 . S
C6460 C6462 1.395 . S
C6460 C6463 1.403 . S
H6461 C6467 0.930 . S
C6462 H6448 0.930 . S
C6462 C6460 1.395 . S
C6462 C6465 1.403 . S
C6463 C6460 1.403 . S
C6463 C6464 1.524 . S
C6463 C6467 1.400 . S
C6464 H6449 0.960 . S
C6464 H6450 0.960 . S
C6464 H6451 0.960 . S
C6464 C6463 1.524 . S
C6465 C6462 1.403 . S
C6465 C6466 1.392 . S
C6465 C6469 1.495 . S
C6466 C6465 1.392 . S
C6466 C6467 1.385 . S
C6466 C6468 1.478 . S
C6467 H6461 0.930 . S
C6467 C6463 1.400 . S
C6467 C6466 1.385 . S
C6468 C6466 1.478 . S
C6468 C6470 1.381 . S
C6468 C6474 1.383 . S
C6469 C6465 1.495 . S
C6469 H6475 0.959 . S
C6469 H6476 0.961 . S
C6469 H6477 0.960 . S
C6470 C6468 1.381 . S
C6470 C6471 1.394 . S
C6470 H6478 0.930 . S
C6471 C6470 1.394 . S
C6471 C6472 1.383 . S
C6471 H6479 0.929 . S
C6472 C6471 1.383 . S
C6472 C6473 1.377 . S
C6473 H6457 0.930 . S
C6473 C6472 1.377 . S
C6473 C6474 1.379 . S
C6474 H6458 0.931 . S
C6474 C6468 1.383 . S
C6474 C6473 1.379 . S
H6475 C6469 0.959 . S
H6476 C6469 0.961 . S
H6477 C6469 0.960 . S
H6478 C6470 0.930 . S
H6479 C6471 0.929 . S
H6480 C6488 0.929 . S
H6481 C6490 0.930 . S
H6482 C6492 0.930 . S
H6483 C6495 0.929 . S
H6484 C6498 0.930 . S
H6485 C6500 0.960 . S
H6486 C6500 0.960 . S
H6487 C6500 0.960 . S
C6488 H6480 0.929 . S
C6488 C6489 1.377 . S
C6488 C6490 1.384 . S
C6489 C6488 1.377 . S
C6489 C6495 1.390 . S
C6490 H6481 0.930 . S
C6490 C6488 1.384 . S
C6490 C6491 1.372 . S
C6491 C6490 1.372 . S
C6491 C6492 1.400 . S
C6491 C6496 1.490 . S
C6492 H6482 0.930 . S
C6492 C6491 1.400 . S
C6492 C6495 1.386 . S
H6493 C6509 0.930 . S
H6494 C6510 0.931 . S
C6495 H6483 0.929 . S
C6495 C6489 1.390 . S
C6495 C6492 1.386 . S
C6496 C6491 1.490 . S
C6496 C6498 1.395 . S
C6496 C6499 1.403 . S
H6497 C6503 0.930 . S
C6498 H6484 0.930 . S
C6498 C6496 1.395 . S
C6498 C6501 1.403 . S
C6499 C6496 1.403 . S
C6499 C6500 1.524 . S
C6499 C6503 1.400 . S
C6500 H6485 0.960 . S
C6500 H6486 0.960 . S
C6500 H6487 0.960 . S
C6500 C6499 1.524 . S
C6501 C6498 1.403 . S
C6501 C6502 1.392 . S
C6501 C6505 1.495 . S
C6502 C6501 1.392 . S
C6502 C6503 1.385 . S
C6502 C6504 1.478 . S
C6503 H6497 0.930 . S
C6503 C6499 1.400 . S
C6503 C6502 1.385 . S
C6504 C6502 1.478 . S
C6504 C6506 1.381 . S
C6504 C6510 1.383 . S
C6505 C6501 1.495 . S
C6505 H6511 0.959 . S
C6505 H6512 0.961 . S
C6505 H6513 0.960 . S
C6506 C6504 1.381 . S
C6506 C6507 1.394 . S
C6506 H6514 0.930 . S
C6507 C6506 1.394 . S
C6507 C6508 1.383 . S
C6507 H6515 0.929 . S
C6508 C6507 1.383 . S
C6508 C6509 1.377 . S
C6509 H6493 0.930 . S
C6509 C6508 1.377 . S
C6509 C6510 1.379 . S
C6510 H6494 0.931 . S
C6510 C6504 1.383 . S
C6510 C6509 1.379 . S
H6511 C6505 0.959 . S
H6512 C6505 0.961 . S
H6513 C6505 0.960 . S
H6514 C6506 0.930 . S
H6515 C6507 0.929 . S
H6516 C6524 0.929 . S
H6517 C6526 0.930 . S
H6518 C6528 0.930 . S
H6519 C6531 0.929 . S
H6520 C6534 0.930 . S
H6521 C6536 0.960 . S
H6522 C6536 0.960 . S
H6523 C6536 0.960 . S
C6524 H6516 0.929 . S
C6524 C6525 1.377 . S
C6524 C6526 1.384 . S
C6525 C6524 1.377 . S
C6525 C6531 1.390 . S
C6526 H6517 0.930 . S
C6526 C6524 1.384 . S
C6526 C6527 1.372 . S
C6527 C6526 1.372 . S
C6527 C6528 1.400 . S
C6527 C6532 1.490 . S
C6528 H6518 0.930 . S
C6528 C6527 1.400 . S
C6528 C6531 1.386 . S
H6529 C6545 0.930 . S
H6530 C6546 0.931 . S
C6531 H6519 0.929 . S
C6531 C6525 1.390 . S
C6531 C6528 1.386 . S
C6532 C6527 1.490 . S
C6532 C6534 1.395 . S
C6532 C6535 1.403 . S
H6533 C6539 0.930 . S
C6534 H6520 0.930 . S
C6534 C6532 1.395 . S
C6534 C6537 1.403 . S
C6535 C6532 1.403 . S
C6535 C6536 1.524 . S
C6535 C6539 1.400 . S
C6536 H6521 0.960 . S
C6536 H6522 0.960 . S
C6536 H6523 0.960 . S
C6536 C6535 1.524 . S
C6537 C6534 1.403 . S
C6537 C6538 1.392 . S
C6537 C6541 1.495 . S
C6538 C6537 1.392 . S
C6538 C6539 1.385 . S
C6538 C6540 1.478 . S
C6539 H6533 0.930 . S
C6539 C6535 1.400 . S
C6539 C6538 1.385 . S
C6540 C6538 1.478 . S
C6540 C6542 1.381 . S
C6540 C6546 1.383 . S
C6541 C6537 1.495 . S
C6541 H6547 0.959 . S
C6541 H6548 0.961 . S
C6541 H6549 0.960 . S
C6542 C6540 1.381 . S
C6542 C6543 1.394 . S
C6542 H6550 0.930 . S
C6543 C6542 1.394 . S
C6543 C6544 1.383 . S
C6543 H6551 0.929 . S
C6544 C6543 1.383 . S
C6544 C6545 1.377 . S
C6545 H6529 0.930 . S
C6545 C6544 1.377 . S
C6545 C6546 1.379 . S
C6546 H6530 0.931 . S
C6546 C6540 1.383 . S
C6546 C6545 1.379 . S
H6547 C6541 0.959 . S
H6548 C6541 0.961 . S
H6549 C6541 0.960 . S
H6550 C6542 0.930 . S
H6551 C6543 0.929 . S
H6552 C6560 0.929 . S
H6553 C6562 0.930 . S
H6554 C6564 0.930 . S
H6555 C6567 0.929 . S
H6556 C6570 0.930 . S
H6557 C6572 0.960 . S
H6558 C6572 0.960 . S
H6559 C6572 0.960 . S
C6560 H6552 0.929 . S
C6560 C6561 1.377 . S
C6560 C6562 1.384 . S
C6561 C6560 1.377 . S
C6561 C6567 1.390 . S
C6562 H6553 0.930 . S
C6562 C6560 1.384 . S
C6562 C6563 1.372 . S
C6563 C6562 1.372 . S
C6563 C6564 1.400 . S
C6563 C6568 1.490 . S
C6564 H6554 0.930 . S
C6564 C6563 1.400 . S
C6564 C6567 1.386 . S
H6565 C6581 0.930 . S
H6566 C6582 0.931 . S
C6567 H6555 0.929 . S
C6567 C6561 1.390 . S
C6567 C6564 1.386 . S
C6568 C6563 1.490 . S
C6568 C6570 1.395 . S
C6568 C6571 1.403 . S
H6569 C6575 0.930 . S
C6570 H6556 0.930 . S
C6570 C6568 1.395 . S
C6570 C6573 1.403 . S
C6571 C6568 1.403 . S
C6571 C6572 1.524 . S
C6571 C6575 1.400 . S
C6572 H6557 0.960 . S
C6572 H6558 0.960 . S
C6572 H6559 0.960 . S
C6572 C6571 1.524 . S
C6573 C6570 1.403 . S
C6573 C6574 1.392 . S
C6573 C6577 1.495 . S
C6574 C6573 1.392 . S
C6574 C6575 1.385 . S
C6574 C6576 1.478 . S
C6575 H6569 0.930 . S
C6575 C6571 1.400 . S
C6575 C6574 1.385 . S
C6576 C6574 1.478 . S
C6576 C6578 1.381 . S
C6576 C6582 1.383 1_655 S
C6577 C6573 1.495 . S
C6577 H6583 0.959 . S
C6577 H6584 0.961 . S
C6577 H6585 0.960 . S
C6578 C6576 1.381 . S
C6578 C6579 1.394 . S
C6578 H6586 0.930 . S
C6579 C6578 1.394 . S
C6579 C6580 1.383 1_655 S
C6579 H6587 0.929 . S
C6580 C6579 1.383 1_455 S
C6580 C6581 1.377 . S
C6581 H6565 0.930 . S
C6581 C6580 1.377 . S
C6581 C6582 1.379 . S
C6582 H6566 0.931 . S
C6582 C6576 1.383 1_455 S
C6582 C6581 1.379 . S
H6583 C6577 0.959 . S
H6584 C6577 0.961 . S
H6585 C6577 0.960 . S
H6586 C6578 0.930 . S
H6587 C6579 0.929 . S
H6588 C6596 0.929 . S
H6589 C6598 0.930 . S
H6590 C6600 0.930 . S
H6591 C6603 0.929 . S
H6592 C6606 0.930 . S
H6593 C6608 0.960 . S
H6594 C6608 0.960 . S
H6595 C6608 0.960 . S
C6596 H6588 0.929 . S
C6596 C6597 1.377 . S
C6596 C6598 1.384 . S
C6597 C6596 1.377 . S
C6597 C6603 1.390 . S
C6598 H6589 0.930 . S
C6598 C6596 1.384 . S
C6598 C6599 1.372 . S
C6599 C6598 1.372 . S
C6599 C6600 1.400 . S
C6599 C6604 1.490 . S
C6600 H6590 0.930 . S
C6600 C6599 1.400 . S
C6600 C6603 1.386 . S
H6601 C6617 0.930 . S
H6602 C6618 0.931 . S
C6603 H6591 0.929 . S
C6603 C6597 1.390 . S
C6603 C6600 1.386 . S
C6604 C6599 1.490 . S
C6604 C6606 1.395 . S
C6604 C6607 1.403 . S
H6605 C6611 0.930 . S
C6606 H6592 0.930 . S
C6606 C6604 1.395 . S
C6606 C6609 1.403 . S
C6607 C6604 1.403 . S
C6607 C6608 1.524 . S
C6607 C6611 1.400 . S
C6608 H6593 0.960 . S
C6608 H6594 0.960 . S
C6608 H6595 0.960 . S
C6608 C6607 1.524 . S
C6609 C6606 1.403 . S
C6609 C6610 1.392 . S
C6609 C6613 1.495 . S
C6610 C6609 1.392 . S
C6610 C6611 1.385 . S
C6610 C6612 1.478 . S
C6611 H6605 0.930 . S
C6611 C6607 1.400 . S
C6611 C6610 1.385 . S
C6612 C6610 1.478 . S
C6612 C6614 1.381 . S
C6612 C6618 1.383 . S
C6613 C6609 1.495 . S
C6613 H6619 0.959 . S
C6613 H6620 0.961 . S
C6613 H6621 0.960 . S
C6614 C6612 1.381 . S
C6614 C6615 1.394 . S
C6614 H6622 0.930 . S
C6615 C6614 1.394 . S
C6615 C6616 1.383 . S
C6615 H6623 0.929 . S
C6616 C6615 1.383 . S
C6616 C6617 1.377 . S
C6617 H6601 0.930 . S
C6617 C6616 1.377 . S
C6617 C6618 1.379 . S
C6618 H6602 0.931 . S
C6618 C6612 1.383 . S
C6618 C6617 1.379 . S
H6619 C6613 0.959 . S
H6620 C6613 0.961 . S
H6621 C6613 0.960 . S
H6622 C6614 0.930 . S
H6623 C6615 0.929 . S
H6624 C6632 0.929 . S
H6625 C6634 0.930 . S
H6626 C6636 0.930 . S
H6627 C6639 0.929 . S
H6628 C6642 0.930 . S
H6629 C6644 0.960 . S
H6630 C6644 0.960 . S
H6631 C6644 0.960 . S
C6632 H6624 0.929 . S
C6632 C6633 1.377 . S
C6632 C6634 1.384 . S
C6633 C6632 1.377 . S
C6633 C6639 1.390 . S
C6634 H6625 0.930 . S
C6634 C6632 1.384 . S
C6634 C6635 1.372 . S
C6635 C6634 1.372 . S
C6635 C6636 1.400 . S
C6635 C6640 1.490 . S
C6636 H6626 0.930 . S
C6636 C6635 1.400 . S
C6636 C6639 1.386 . S
H6637 C6653 0.930 . S
H6638 C6654 0.931 . S
C6639 H6627 0.929 . S
C6639 C6633 1.390 . S
C6639 C6636 1.386 . S
C6640 C6635 1.490 . S
C6640 C6642 1.395 . S
C6640 C6643 1.403 . S
H6641 C6647 0.930 . S
C6642 H6628 0.930 . S
C6642 C6640 1.395 . S
C6642 C6645 1.403 . S
C6643 C6640 1.403 . S
C6643 C6644 1.524 . S
C6643 C6647 1.400 . S
C6644 H6629 0.960 . S
C6644 H6630 0.960 . S
C6644 H6631 0.960 . S
C6644 C6643 1.524 . S
C6645 C6642 1.403 . S
C6645 C6646 1.392 . S
C6645 C6649 1.495 . S
C6646 C6645 1.392 . S
C6646 C6647 1.385 . S
C6646 C6648 1.478 . S
C6647 H6641 0.930 . S
C6647 C6643 1.400 . S
C6647 C6646 1.385 . S
C6648 C6646 1.478 . S
C6648 C6650 1.381 . S
C6648 C6654 1.383 . S
C6649 C6645 1.495 . S
C6649 H6655 0.959 . S
C6649 H6656 0.961 . S
C6649 H6657 0.960 . S
C6650 C6648 1.381 . S
C6650 C6651 1.394 . S
C6650 H6658 0.930 . S
C6651 C6650 1.394 . S
C6651 C6652 1.383 . S
C6651 H6659 0.929 . S
C6652 C6651 1.383 . S
C6652 C6653 1.377 . S
C6653 H6637 0.930 . S
C6653 C6652 1.377 . S
C6653 C6654 1.379 . S
C6654 H6638 0.931 . S
C6654 C6648 1.383 . S
C6654 C6653 1.379 . S
H6655 C6649 0.959 . S
H6656 C6649 0.961 . S
H6657 C6649 0.960 . S
H6658 C6650 0.930 . S
H6659 C6651 0.929 . S
H6660 C6668 0.929 . S
H6661 C6670 0.930 . S
H6662 C6672 0.930 . S
H6663 C6675 0.929 . S
H6664 C6678 0.930 . S
H6665 C6680 0.960 . S
H6666 C6680 0.960 . S
H6667 C6680 0.960 . S
C6668 H6660 0.929 . S
C6668 C6669 1.377 . S
C6668 C6670 1.384 . S
C6669 C6668 1.377 . S
C6669 C6675 1.390 . S
C6670 H6661 0.930 . S
C6670 C6668 1.384 . S
C6670 C6671 1.372 . S
C6671 C6670 1.372 . S
C6671 C6672 1.400 . S
C6671 C6676 1.490 . S
C6672 H6662 0.930 . S
C6672 C6671 1.400 . S
C6672 C6675 1.386 . S
H6673 C6689 0.930 . S
H6674 C6690 0.932 . S
C6675 H6663 0.929 . S
C6675 C6669 1.390 . S
C6675 C6672 1.386 . S
C6676 C6671 1.490 . S
C6676 C6678 1.395 . S
C6676 C6679 1.403 . S
H6677 C6683 0.930 . S
C6678 H6664 0.930 . S
C6678 C6676 1.395 . S
C6678 C6681 1.403 . S
C6679 C6676 1.403 . S
C6679 C6680 1.524 . S
C6679 C6683 1.400 . S
C6680 H6665 0.960 . S
C6680 H6666 0.960 . S
C6680 H6667 0.960 . S
C6680 C6679 1.524 . S
C6681 C6678 1.403 . S
C6681 C6682 1.392 . S
C6681 C6685 1.495 1_565 S
C6682 C6681 1.392 . S
C6682 C6683 1.385 . S
C6682 C6684 1.478 . S
C6683 H6677 0.930 . S
C6683 C6679 1.400 . S
C6683 C6682 1.385 . S
C6684 C6682 1.478 . S
C6684 C6686 1.362 1_565 S
C6684 C6690 1.382 . S
C6685 C6681 1.495 1_545 S
C6685 H6691 0.959 . S
C6685 H6692 0.961 . S
C6685 H6693 0.960 . S
C6686 C6684 1.362 1_545 S
C6686 C6687 1.410 . S
C6686 H6694 0.937 1_545 S
C6687 C6686 1.410 . S
C6687 C6688 1.383 . S
C6687 H6695 0.929 . S
C6688 C6687 1.383 . S
C6688 C6689 1.377 . S
C6689 H6673 0.930 . S
C6689 C6688 1.377 . S
C6689 C6690 1.379 1_545 S
C6690 H6674 0.932 . S
C6690 C6684 1.382 . S
C6690 C6689 1.379 1_565 S
H6691 C6685 0.959 . S
H6692 C6685 0.961 . S
H6693 C6685 0.960 . S
H6694 C6686 0.937 1_565 S
H6695 C6687 0.929 . S
H6696 C6704 0.929 . S
H6697 C6706 0.930 . S
H6698 C6708 0.930 . S
H6699 C6711 0.929 . S
H6700 C6714 0.930 . S
H6701 C6716 0.960 . S
H6702 C6716 0.960 . S
H6703 C6716 0.960 . S
C6704 H6696 0.929 . S
C6704 C6705 1.377 . S
C6704 C6706 1.384 . S
C6705 C6704 1.377 . S
C6705 C6711 1.390 . S
C6706 H6697 0.930 . S
C6706 C6704 1.384 . S
C6706 C6707 1.372 . S
C6707 C6706 1.372 . S
C6707 C6708 1.400 . S
C6707 C6712 1.490 . S
C6708 H6698 0.930 . S
C6708 C6707 1.400 . S
C6708 C6711 1.386 . S
H6709 C6725 0.930 . S
H6710 C6726 0.931 . S
C6711 H6699 0.929 . S
C6711 C6705 1.390 . S
C6711 C6708 1.386 . S
C6712 C6707 1.490 . S
C6712 C6714 1.395 . S
C6712 C6715 1.403 . S
H6713 C6719 0.930 . S
C6714 H6700 0.930 . S
C6714 C6712 1.395 . S
C6714 C6717 1.403 . S
C6715 C6712 1.403 . S
C6715 C6716 1.524 . S
C6715 C6719 1.400 . S
C6716 H6701 0.960 . S
C6716 H6702 0.960 . S
C6716 H6703 0.960 . S
C6716 C6715 1.524 . S
C6717 C6714 1.403 . S
C6717 C6718 1.392 . S
C6717 C6721 1.495 . S
C6718 C6717 1.392 . S
C6718 C6719 1.385 . S
C6718 C6720 1.478 . S
C6719 H6713 0.930 . S
C6719 C6715 1.400 . S
C6719 C6718 1.385 . S
C6720 C6718 1.478 . S
C6720 C6722 1.381 . S
C6720 C6726 1.383 . S
C6721 C6717 1.495 . S
C6721 H6727 0.959 . S
C6721 H6728 0.961 . S
C6721 H6729 0.960 . S
C6722 C6720 1.381 . S
C6722 C6723 1.394 . S
C6722 H6730 0.930 . S
C6723 C6722 1.394 . S
C6723 C6724 1.383 . S
C6723 H6731 0.929 . S
C6724 C6723 1.383 . S
C6724 C6725 1.377 . S
C6725 H6709 0.930 . S
C6725 C6724 1.377 . S
C6725 C6726 1.379 . S
C6726 H6710 0.931 . S
C6726 C6720 1.383 . S
C6726 C6725 1.379 . S
H6727 C6721 0.959 . S
H6728 C6721 0.961 . S
H6729 C6721 0.960 . S
H6730 C6722 0.930 . S
H6731 C6723 0.929 . S
H6732 C6740 0.929 . S
H6733 C6742 0.966 . S
H6734 C6744 0.930 . S
H6735 C6747 0.929 . S
H6736 C6750 0.930 . S
H6737 C6752 0.960 . S
H6738 C6752 0.960 1_556 S
H6739 C6752 0.960 . S
C6740 H6732 0.929 . S
C6740 C6741 1.377 1_556 S
C6740 C6742 1.398 . S
C6741 C6740 1.377 1_554 S
C6741 C6747 1.390 . S
C6742 H6733 0.966 . S
C6742 C6740 1.398 . S
C6742 C6743 1.327 1_556 S
C6743 C6742 1.327 1_554 S
C6743 C6744 1.400 . S
C6743 C6748 1.490 . S
C6744 H6734 0.930 . S
C6744 C6743 1.400 . S
C6744 C6747 1.386 . S
H6745 C6761 0.930 . S
H6746 C6762 0.931 . S
C6747 H6735 0.929 . S
C6747 C6741 1.390 . S
C6747 C6744 1.386 . S
C6748 C6743 1.490 . S
C6748 C6750 1.395 . S
C6748 C6751 1.403 . S
H6749 C6755 0.930 . S
C6750 H6736 0.930 . S
C6750 C6748 1.395 . S
C6750 C6753 1.403 . S
C6751 C6748 1.403 . S
C6751 C6752 1.524 . S
C6751 C6755 1.400 . S
C6752 H6737 0.960 . S
C6752 H6738 0.960 1_554 S
C6752 H6739 0.960 . S
C6752 C6751 1.524 . S
C6753 C6750 1.403 . S
C6753 C6754 1.392 . S
C6753 C6757 1.495 . S
C6754 C6753 1.392 . S
C6754 C6755 1.385 . S
C6754 C6756 1.478 . S
C6755 H6749 0.930 . S
C6755 C6751 1.400 . S
C6755 C6754 1.385 . S
C6756 C6754 1.478 . S
C6756 C6758 1.381 . S
C6756 C6762 1.383 . S
C6757 C6753 1.495 . S
C6757 H6763 0.959 . S
C6757 H6764 0.961 . S
C6757 H6765 0.960 . S
C6758 C6756 1.381 . S
C6758 C6759 1.394 . S
C6758 H6766 0.930 1_554 S
C6759 C6758 1.394 . S
C6759 C6760 1.383 . S
C6759 H6767 0.929 1_554 S
C6760 C6759 1.383 . S
C6760 C6761 1.377 . S
C6761 H6745 0.930 . S
C6761 C6760 1.377 . S
C6761 C6762 1.379 . S
C6762 H6746 0.931 . S
C6762 C6756 1.383 . S
C6762 C6761 1.379 . S
H6763 C6757 0.959 . S
H6764 C6757 0.961 . S
H6765 C6757 0.960 . S
H6766 C6758 0.930 1_556 S
H6767 C6759 0.929 1_556 S
H6768 C6776 0.929 . S
H6769 C6778 0.930 . S
H6770 C6780 0.930 . S
H6771 C6783 0.929 . S
H6772 C6786 0.930 . S
H6773 C6788 0.960 . S
H6774 C6788 0.960 . S
H6775 C6788 0.960 . S
C6776 H6768 0.929 . S
C6776 C6777 1.377 . S
C6776 C6778 1.384 . S
C6777 C6776 1.377 . S
C6777 C6783 1.390 . S
C6778 H6769 0.930 . S
C6778 C6776 1.384 . S
C6778 C6779 1.372 . S
C6779 C6778 1.372 . S
C6779 C6780 1.400 . S
C6779 C6784 1.490 . S
C6780 H6770 0.930 . S
C6780 C6779 1.400 . S
C6780 C6783 1.386 . S
H6781 C6797 0.930 . S
H6782 C6798 0.931 . S
C6783 H6771 0.929 . S
C6783 C6777 1.390 . S
C6783 C6780 1.386 . S
C6784 C6779 1.490 . S
C6784 C6786 1.395 . S
C6784 C6787 1.403 . S
H6785 C6791 0.930 . S
C6786 H6772 0.930 . S
C6786 C6784 1.395 . S
C6786 C6789 1.403 . S
C6787 C6784 1.403 . S
C6787 C6788 1.524 . S
C6787 C6791 1.400 . S
C6788 H6773 0.960 . S
C6788 H6774 0.960 . S
C6788 H6775 0.960 . S
C6788 C6787 1.524 . S
C6789 C6786 1.403 . S
C6789 C6790 1.392 . S
C6789 C6793 1.495 . S
C6790 C6789 1.392 . S
C6790 C6791 1.385 . S
C6790 C6792 1.478 . S
C6791 H6785 0.930 . S
C6791 C6787 1.400 . S
C6791 C6790 1.385 . S
C6792 C6790 1.478 . S
C6792 C6794 1.381 . S
C6792 C6798 1.383 . S
C6793 C6789 1.495 . S
C6793 H6799 0.959 . S
C6793 H6800 0.961 . S
C6793 H6801 0.960 . S
C6794 C6792 1.381 . S
C6794 C6795 1.394 . S
C6794 H6802 0.930 . S
C6795 C6794 1.394 . S
C6795 C6796 1.383 . S
C6795 H6803 0.929 . S
C6796 C6795 1.383 . S
C6796 C6797 1.377 . S
C6797 H6781 0.930 . S
C6797 C6796 1.377 . S
C6797 C6798 1.379 . S
C6798 H6782 0.931 . S
C6798 C6792 1.383 . S
C6798 C6797 1.379 . S
H6799 C6793 0.959 . S
H6800 C6793 0.961 . S
H6801 C6793 0.960 . S
H6802 C6794 0.930 . S
H6803 C6795 0.929 . S
H6804 C6812 0.929 . S
H6805 C6814 0.930 . S
H6806 C6816 0.930 . S
H6807 C6819 0.929 . S
H6808 C6822 0.930 . S
H6809 C6824 0.960 . S
H6810 C6824 0.960 . S
H6811 C6824 0.960 . S
C6812 H6804 0.929 . S
C6812 C6813 1.377 . S
C6812 C6814 1.384 . S
C6813 C6812 1.377 . S
C6813 C6819 1.390 . S
C6814 H6805 0.930 . S
C6814 C6812 1.384 . S
C6814 C6815 1.372 . S
C6815 C6814 1.372 . S
C6815 C6816 1.400 . S
C6815 C6820 1.490 . S
C6816 H6806 0.930 . S
C6816 C6815 1.400 . S
C6816 C6819 1.386 . S
H6817 C6833 0.930 . S
H6818 C6834 0.931 . S
C6819 H6807 0.929 . S
C6819 C6813 1.390 . S
C6819 C6816 1.386 . S
C6820 C6815 1.490 . S
C6820 C6822 1.395 . S
C6820 C6823 1.403 . S
H6821 C6827 0.930 . S
C6822 H6808 0.930 . S
C6822 C6820 1.395 . S
C6822 C6825 1.403 . S
C6823 C6820 1.403 . S
C6823 C6824 1.524 . S
C6823 C6827 1.400 . S
C6824 H6809 0.960 . S
C6824 H6810 0.960 . S
C6824 H6811 0.960 . S
C6824 C6823 1.524 . S
C6825 C6822 1.403 . S
C6825 C6826 1.392 . S
C6825 C6829 1.495 1_554 S
C6826 C6825 1.392 . S
C6826 C6827 1.385 . S
C6826 C6828 1.478 . S
C6827 H6821 0.930 . S
C6827 C6823 1.400 . S
C6827 C6826 1.385 . S
C6828 C6826 1.478 . S
C6828 C6830 1.381 . S
C6828 C6834 1.383 . S
C6829 C6825 1.495 1_556 S
C6829 H6835 0.959 . S
C6829 H6836 0.961 . S
C6829 H6837 0.960 . S
C6830 C6828 1.381 . S
C6830 C6831 1.394 . S
C6830 H6838 0.930 . S
C6831 C6830 1.394 . S
C6831 C6832 1.383 . S
C6831 H6839 0.965 . S
C6832 C6831 1.383 . S
C6832 C6833 1.377 . S
C6833 H6817 0.930 . S
C6833 C6832 1.377 . S
C6833 C6834 1.379 . S
C6834 H6818 0.931 . S
C6834 C6828 1.383 . S
C6834 C6833 1.379 . S
H6835 C6829 0.959 . S
H6836 C6829 0.961 . S
H6837 C6829 0.960 . S
H6838 C6830 0.930 . S
H6839 C6831 0.965 . S
H6840 C6848 0.929 . S
H6841 C6850 0.930 . S
H6842 C6852 0.930 . S
H6843 C6855 0.929 . S
H6844 C6858 0.930 . S
H6845 C6860 0.960 . S
H6846 C6860 0.960 . S
H6847 C6860 0.960 . S
C6848 H6840 0.929 . S
C6848 C6849 1.377 . S
C6848 C6850 1.384 . S
C6849 C6848 1.377 . S
C6849 C6855 1.390 . S
C6850 H6841 0.930 . S
C6850 C6848 1.384 . S
C6850 C6851 1.372 . S
C6851 C6850 1.372 . S
C6851 C6852 1.400 . S
C6851 C6856 1.490 . S
C6852 H6842 0.930 . S
C6852 C6851 1.400 . S
C6852 C6855 1.386 . S
H6853 C6869 0.930 . S
H6854 C6870 0.931 . S
C6855 H6843 0.929 . S
C6855 C6849 1.390 . S
C6855 C6852 1.386 . S
C6856 C6851 1.490 . S
C6856 C6858 1.395 . S
C6856 C6859 1.403 . S
H6857 C6863 0.930 . S
C6858 H6844 0.930 . S
C6858 C6856 1.395 . S
C6858 C6861 1.403 . S
C6859 C6856 1.403 . S
C6859 C6860 1.524 . S
C6859 C6863 1.400 . S
C6860 H6845 0.960 . S
C6860 H6846 0.960 . S
C6860 H6847 0.960 . S
C6860 C6859 1.524 . S
C6861 C6858 1.403 . S
C6861 C6862 1.392 . S
C6861 C6865 1.495 . S
C6862 C6861 1.392 . S
C6862 C6863 1.385 . S
C6862 C6864 1.478 . S
C6863 H6857 0.930 . S
C6863 C6859 1.400 . S
C6863 C6862 1.385 . S
C6864 C6862 1.478 . S
C6864 C6866 1.381 . S
C6864 C6870 1.383 . S
C6865 C6861 1.495 . S
C6865 H6871 0.959 . S
C6865 H6872 0.961 . S
C6865 H6873 0.960 . S
C6866 C6864 1.381 . S
C6866 C6867 1.394 . S
C6866 H6874 0.930 . S
C6867 C6866 1.394 . S
C6867 C6868 1.383 . S
C6867 H6875 0.929 . S
C6868 C6867 1.383 . S
C6868 C6869 1.377 . S
C6869 H6853 0.930 . S
C6869 C6868 1.377 . S
C6869 C6870 1.379 . S
C6870 H6854 0.931 . S
C6870 C6864 1.383 . S
C6870 C6869 1.379 . S
H6871 C6865 0.959 . S
H6872 C6865 0.961 . S
H6873 C6865 0.960 . S
H6874 C6866 0.930 . S
H6875 C6867 0.929 . S
H6876 C6884 0.929 . S
H6877 C6886 0.930 . S
H6878 C6888 0.930 . S
H6879 C6891 0.929 . S
H6880 C6894 0.930 . S
H6881 C6896 0.960 . S
H6882 C6896 0.960 . S
H6883 C6896 0.960 . S
C6884 H6876 0.929 . S
C6884 C6885 1.377 . S
C6884 C6886 1.384 . S
C6885 C6884 1.377 . S
C6885 C6891 1.390 . S
C6886 H6877 0.930 . S
C6886 C6884 1.384 . S
C6886 C6887 1.372 . S
C6887 C6886 1.372 . S
C6887 C6888 1.400 . S
C6887 C6892 1.490 . S
C6888 H6878 0.930 . S
C6888 C6887 1.400 . S
C6888 C6891 1.386 . S
H6889 C6905 0.930 . S
H6890 C6906 0.931 . S
C6891 H6879 0.929 . S
C6891 C6885 1.390 . S
C6891 C6888 1.386 . S
C6892 C6887 1.490 . S
C6892 C6894 1.395 . S
C6892 C6895 1.403 . S
H6893 C6899 0.930 . S
C6894 H6880 0.930 . S
C6894 C6892 1.395 . S
C6894 C6897 1.403 . S
C6895 C6892 1.403 . S
C6895 C6896 1.524 . S
C6895 C6899 1.400 . S
C6896 H6881 0.960 . S
C6896 H6882 0.960 . S
C6896 H6883 0.960 . S
C6896 C6895 1.524 . S
C6897 C6894 1.403 . S
C6897 C6898 1.392 . S
C6897 C6901 1.495 . S
C6898 C6897 1.392 . S
C6898 C6899 1.385 . S
C6898 C6900 1.478 . S
C6899 H6893 0.930 . S
C6899 C6895 1.400 . S
C6899 C6898 1.385 . S
C6900 C6898 1.478 . S
C6900 C6902 1.381 . S
C6900 C6906 1.383 . S
C6901 C6897 1.495 . S
C6901 H6907 0.959 . S
C6901 H6908 0.961 . S
C6901 H6909 0.960 . S
C6902 C6900 1.381 . S
C6902 C6903 1.394 . S
C6902 H6910 0.930 . S
C6903 C6902 1.394 . S
C6903 C6904 1.383 . S
C6903 H6911 0.929 . S
C6904 C6903 1.383 . S
C6904 C6905 1.377 . S
C6905 H6889 0.930 . S
C6905 C6904 1.377 . S
C6905 C6906 1.379 . S
C6906 H6890 0.931 . S
C6906 C6900 1.383 . S
C6906 C6905 1.379 . S
H6907 C6901 0.959 . S
H6908 C6901 0.961 . S
H6909 C6901 0.960 . S
H6910 C6902 0.930 . S
H6911 C6903 0.929 . S
C3465 C665 1.429 . S
C3484 C2168 1.384 . S
C3501 C381 2.158 . S
C3520 C2259 2.123 . S
C3537 C460 1.428 . S
C3556 C2336 1.362 1_565 S
C3592 C2434 1.612 . S
C3573 C585 1.769 . S
C3609 C108 1.616 . S
C3628 C2518 1.556 . S
C3664 C2590 0.925 . S
C3645 C196 0.915 . S
C3700 C2679 0.492 . S
C3681 C313 0.555 . S
C3717 C49 1.052 . S
C3736 C2756 0.998 . S
C3772 C2175 1.832 . S
C3753 C1457 1.945 . S
C3789 C1545 0.367 . S
C3808 C2266 0.451 . S
C3844 C2343 1.119 . S
C3825 C1721 1.173 . S
C3880 C2420 1.532 . S
C3861 C1113 1.617 . S
C3897 C1428 2.017 . S
C3916 C2504 1.861 . S
C3952 C2606 0.985 . S
C3933 C1516 1.038 . S
C3988 C2686 0.626 . S
C3969 C1692 0.596 . S
C4024 C2763 1.148 . S
C4005 C1085 1.266 . S
C4060 C2182 1.421 . S
C4041 C988 1.544 . S
C4077 C1817 2.041 . S
C4096 C2847 1.954 . S
C4132 C2935 1.990 . S
C4113 C2081 2.171 . S
C4168 C3008 0.440 . S
C4149 C1993 0.234 . S
C4185 C761 0.495 . S
C4204 C2770 0.472 . S
C4221 C821 1.386 . S
C4240 C2350 1.309 . S
C4257 C2053 2.426 . S
C4276 C3099 2.321 . S
C4312 C3176 0.548 . S
C4293 C1868 0.593 . S
C4348 C2179 1.363 1_565 S
C4329 C372 1.428 . S
C4384 C3194 2.115 . S
C4365 C645 2.151 . S
C4401 C577 1.412 . S
C4420 C2347 1.381 . S
C4437 C497 1.765 . S
C4456 C3094 1.639 . S
C4492 C2506 1.507 . S
C4473 C57 1.614 . S
C4509 C293 0.907 . S
C4528 C2938 0.919 . S
C4564 C2690 0.518 . S
C4545 C205 0.558 . S
C4600 C3271 0.998 . S
C4581 C145 1.048 . S
C4636 C2186 1.861 . S
C4617 C909 1.940 1_545 S
C4672 C3178 0.636 . S
C4653 C1956 0.365 . S
C4689 C724 1.165 . S
C4708 C2354 1.124 . S
C4725 C1780 1.610 . S
C4744 C3103 1.569 . S
C4761 C937 2.018 . S
C4780 C2515 1.913 . S
C4816 C2931 0.964 . S
C4797 C1985 1.037 . S
C4833 C753 0.593 . S
C4852 C2674 0.596 . S
C4869 C1809 1.254 . S
C4888 C3278 1.145 . S
C4905 C1173 1.540 . S
C4924 C2170 1.449 . S
C4941 C1105 2.033 . S
C4960 C2858 1.965 . S
C4977 C1633 2.168 . S
C4996 C2588 1.973 . S
C5013 C1553 0.228 . S
C5032 C3019 0.440 . S
C5068 C3262 0.470 . S
C5049 C1729 0.498 . S
C5085 C1340 1.390 . S
C5104 C2338 1.289 1_565 S
C5140 C2438 2.317 . S
C5121 C1604 2.418 . S
C5176 C2263 0.691 . S
C5157 C1252 0.581 . S
C5193 C489 1.434 . S
C5212 C3344 1.334 . S
C5248 C3183 2.127 . S
C5229 C557 2.161 . S
C5265 C636 1.418 . S
C5284 C3428 1.419 . S
C5301 C409 1.768 1_655 S
C5320 C3106 1.601 . S
C5337 C284 1.613 . S
C5356 C2854 1.504 . S
C5392 C2926 0.918 . S
C5373 C20 0.916 . S
C5428 C3015 0.582 . S
C5409 C137 0.535 . S
C5464 C3260 0.951 . S
C5445 C225 1.047 . S
C5500 C3351 1.875 . S
C5481 C1641 1.943 . S
C5517 C1193 0.372 . S
C5536 C3190 0.642 . S
C5572 C3435 1.115 . S
C5553 C1289 1.171 . S
C5608 C3092 1.528 . S
C5589 C1377 1.617 . S
C5644 C2840 1.894 . S
C5625 C1613 2.012 . S
C5661 C1164 1.041 . S
C5680 C2942 0.950 . S
C5716 C3022 0.712 . S
C5697 C1261 0.598 . S
C5733 C1349 1.265 . S
C5752 C3267 1.198 . S
C5788 C3358 1.437 . S
C5769 C1965 1.545 . S
C5805 C849 2.041 . S
C5824 C2511 1.951 . S
C5860 C2599 2.012 . S
C5841 C929 2.179 . S
C5896 C2672 0.403 . S
C5877 C1017 0.251 . S
C5932 C3274 0.561 . S
C5913 C1897 0.487 . S
C5949 C1789 1.387 . S
C5968 C3442 1.286 . S
C6004 C2427 2.354 . S
C5985 C900 2.416 . S
C6040 C2252 0.627 . S
C6021 C733 0.587 . S
C6057 C548 1.431 . S
C6076 C3355 1.382 . S
C6112 C2270 2.109 . S
C6093 C469 2.156 . S
C6129 C401 1.412 . S
C6148 C3439 1.388 . S
C6165 C673 1.766 . S
C6184 C2422 1.595 . S
C6201 C233 1.615 . S
C6220 C2842 1.457 1_556 S
C6256 C2602 0.796 . S
C6237 C117 0.909 . S
C6273 C29 0.540 . S
C6292 C3026 0.580 . S
C6309 C321 1.049 . S
C6328 C2767 1.015 . S
C6364 C3362 1.868 . S
C6345 C2044 1.940 . S
C6381 C997 0.367 . S
C6400 C2254 0.510 . S
C6436 C3446 1.161 . S
C6417 C1877 1.165 . S
C6453 C812 1.611 . S
C6472 C2431 1.581 . S
C6489 C2073 2.016 . S
C6508 C2851 1.893 . S
C6544 C2595 0.974 . S
C6525 C1025 1.036 . S
C6561 C1905 0.590 . S
C6580 C3010 0.736 . S
C6616 C2774 1.177 . S
C6597 C841 1.258 . S
C6652 C3346 1.431 . S
C6633 C1525 1.542 . S
C6688 C2522 1.957 1_655 S
C6669 C1369 2.033 . S
C6705 C1465 2.168 . S
C6724 C2924 2.013 . S
C6760 C2683 0.556 . S
C6741 C1201 0.228 . S
C6777 C1281 0.497 . S
C6796 C2758 0.480 . S
C6813 C1076 1.388 . S
C6832 C3430 1.293 . S
C6868 C3110 2.342 . S
C6849 C1437 2.419 1_565 S
C6904 C3187 0.644 . S
C6885 C1701 0.587 . S
