# Generated by pormake.
# Topology gar, (4,6)-cn, num edge types: 1
# Building blocks:
#     Node 0, Type 0, BuildingBlock: KUFVIS_clean_sbu_0, # of connection points: 4
#     Node 1, Type 0, BuildingBlock: KUFVIS_clean_sbu_0, # of connection points: 4
#     Node 2, Type 0, BuildingBlock: KUFVIS_clean_sbu_0, # of connection points: 4
#     Node 3, Type 0, BuildingBlock: KUFVIS_clean_sbu_0, # of connection points: 4
#     Node 4, Type 0, BuildingBlock: KUFVIS_clean_sbu_0, # of connection points: 4
#     Node 5, Type 0, BuildingBlock: KUFVIS_clean_sbu_0, # of connection points: 4
#     Node 6, Type 0, BuildingBlock: KUFVIS_clean_sbu_0, # of connection points: 4
#     Node 7, Type 0, BuildingBlock: KUFVIS_clean_sbu_0, # of connection points: 4
#     Node 8, Type 0, BuildingBlock: KUFVIS_clean_sbu_0, # of connection points: 4
#     Node 9, Type 0, BuildingBlock: KUFVIS_clean_sbu_0, # of connection points: 4
#     Node 10, Type 0, BuildingBlock: KUFVIS_clean_sbu_0, # of connection points: 4
#     Node 11, Type 0, BuildingBlock: KUFVIS_clean_sbu_0, # of connection points: 4
#     Node 12, Type 0, BuildingBlock: KUFVIS_clean_sbu_0, # of connection points: 4
#     Node 13, Type 0, BuildingBlock: KUFVIS_clean_sbu_0, # of connection points: 4
#     Node 14, Type 0, BuildingBlock: KUFVIS_clean_sbu_0, # of connection points: 4
#     Node 15, Type 0, BuildingBlock: KUFVIS_clean_sbu_0, # of connection points: 4
#     Node 16, Type 0, BuildingBlock: KUFVIS_clean_sbu_0, # of connection points: 4
#     Node 17, Type 0, BuildingBlock: KUFVIS_clean_sbu_0, # of connection points: 4
#     Node 18, Type 0, BuildingBlock: KUFVIS_clean_sbu_0, # of connection points: 4
#     Node 19, Type 0, BuildingBlock: KUFVIS_clean_sbu_0, # of connection points: 4
#     Node 20, Type 0, BuildingBlock: KUFVIS_clean_sbu_0, # of connection points: 4
#     Node 21, Type 0, BuildingBlock: KUFVIS_clean_sbu_0, # of connection points: 4
#     Node 22, Type 0, BuildingBlock: KUFVIS_clean_sbu_0, # of connection points: 4
#     Node 23, Type 0, BuildingBlock: KUFVIS_clean_sbu_0, # of connection points: 4
#     Node 24, Type 1, BuildingBlock: KUMBOL_clean_sbu_1, # of connection points: 6
#     Node 25, Type 1, BuildingBlock: KUMBOL_clean_sbu_1, # of connection points: 6
#     Node 26, Type 1, BuildingBlock: KUMBOL_clean_sbu_1, # of connection points: 6
#     Node 27, Type 1, BuildingBlock: KUMBOL_clean_sbu_1, # of connection points: 6
#     Node 28, Type 1, BuildingBlock: KUMBOL_clean_sbu_1, # of connection points: 6
#     Node 29, Type 1, BuildingBlock: KUMBOL_clean_sbu_1, # of connection points: 6
#     Node 30, Type 1, BuildingBlock: KUMBOL_clean_sbu_1, # of connection points: 6
#     Node 31, Type 1, BuildingBlock: KUMBOL_clean_sbu_1, # of connection points: 6
#     Node 32, Type 1, BuildingBlock: KUMBOL_clean_sbu_1, # of connection points: 6
#     Node 33, Type 1, BuildingBlock: KUMBOL_clean_sbu_1, # of connection points: 6
#     Node 34, Type 1, BuildingBlock: KUMBOL_clean_sbu_1, # of connection points: 6
#     Node 35, Type 1, BuildingBlock: KUMBOL_clean_sbu_1, # of connection points: 6
#     Node 36, Type 1, BuildingBlock: KUMBOL_clean_sbu_1, # of connection points: 6
#     Node 37, Type 1, BuildingBlock: KUMBOL_clean_sbu_1, # of connection points: 6
#     Node 38, Type 1, BuildingBlock: KUMBOL_clean_sbu_1, # of connection points: 6
#     Node 39, Type 1, BuildingBlock: KUMBOL_clean_sbu_1, # of connection points: 6
#     Edge 40, Type (0, 1), BuildingBlock: AJUNOK_clean_linker_0, # of connection points: 2
#     Edge 41, Type (0, 1), BuildingBlock: AJUNOK_clean_linker_0, # of connection points: 2
#     Edge 42, Type (0, 1), BuildingBlock: AJUNOK_clean_linker_0, # of connection points: 2
#     Edge 43, Type (0, 1), BuildingBlock: AJUNOK_clean_linker_0, # of connection points: 2
#     Edge 44, Type (0, 1), BuildingBlock: AJUNOK_clean_linker_0, # of connection points: 2
#     Edge 45, Type (0, 1), BuildingBlock: AJUNOK_clean_linker_0, # of connection points: 2
#     Edge 46, Type (0, 1), BuildingBlock: AJUNOK_clean_linker_0, # of connection points: 2
#     Edge 47, Type (0, 1), BuildingBlock: AJUNOK_clean_linker_0, # of connection points: 2
#     Edge 48, Type (0, 1), BuildingBlock: AJUNOK_clean_linker_0, # of connection points: 2
#     Edge 49, Type (0, 1), BuildingBlock: AJUNOK_clean_linker_0, # of connection points: 2
#     Edge 50, Type (0, 1), BuildingBlock: AJUNOK_clean_linker_0, # of connection points: 2
#     Edge 51, Type (0, 1), BuildingBlock: AJUNOK_clean_linker_0, # of connection points: 2
#     Edge 52, Type (0, 1), BuildingBlock: AJUNOK_clean_linker_0, # of connection points: 2
#     Edge 53, Type (0, 1), BuildingBlock: AJUNOK_clean_linker_0, # of connection points: 2
#     Edge 54, Type (0, 1), BuildingBlock: AJUNOK_clean_linker_0, # of connection points: 2
#     Edge 55, Type (0, 1), BuildingBlock: AJUNOK_clean_linker_0, # of connection points: 2
#     Edge 56, Type (0, 1), BuildingBlock: AJUNOK_clean_linker_0, # of connection points: 2
#     Edge 57, Type (0, 1), BuildingBlock: AJUNOK_clean_linker_0, # of connection points: 2
#     Edge 58, Type (0, 1), BuildingBlock: AJUNOK_clean_linker_0, # of connection points: 2
#     Edge 59, Type (0, 1), BuildingBlock: AJUNOK_clean_linker_0, # of connection points: 2
#     Edge 60, Type (0, 1), BuildingBlock: AJUNOK_clean_linker_0, # of connection points: 2
#     Edge 61, Type (0, 1), BuildingBlock: AJUNOK_clean_linker_0, # of connection points: 2
#     Edge 62, Type (0, 1), BuildingBlock: AJUNOK_clean_linker_0, # of connection points: 2
#     Edge 63, Type (0, 1), BuildingBlock: AJUNOK_clean_linker_0, # of connection points: 2
#     Edge 64, Type (0, 1), BuildingBlock: AJUNOK_clean_linker_0, # of connection points: 2
#     Edge 65, Type (0, 1), BuildingBlock: AJUNOK_clean_linker_0, # of connection points: 2
#     Edge 66, Type (0, 1), BuildingBlock: AJUNOK_clean_linker_0, # of connection points: 2
#     Edge 67, Type (0, 1), BuildingBlock: AJUNOK_clean_linker_0, # of connection points: 2
#     Edge 68, Type (0, 1), BuildingBlock: AJUNOK_clean_linker_0, # of connection points: 2
#     Edge 69, Type (0, 1), BuildingBlock: AJUNOK_clean_linker_0, # of connection points: 2
#     Edge 70, Type (0, 1), BuildingBlock: AJUNOK_clean_linker_0, # of connection points: 2
#     Edge 71, Type (0, 1), BuildingBlock: AJUNOK_clean_linker_0, # of connection points: 2
#     Edge 72, Type (0, 1), BuildingBlock: AJUNOK_clean_linker_0, # of connection points: 2
#     Edge 73, Type (0, 1), BuildingBlock: AJUNOK_clean_linker_0, # of connection points: 2
#     Edge 74, Type (0, 1), BuildingBlock: AJUNOK_clean_linker_0, # of connection points: 2
#     Edge 75, Type (0, 1), BuildingBlock: AJUNOK_clean_linker_0, # of connection points: 2
#     Edge 76, Type (0, 1), BuildingBlock: AJUNOK_clean_linker_0, # of connection points: 2
#     Edge 77, Type (0, 1), BuildingBlock: AJUNOK_clean_linker_0, # of connection points: 2
#     Edge 78, Type (0, 1), BuildingBlock: AJUNOK_clean_linker_0, # of connection points: 2
#     Edge 79, Type (0, 1), BuildingBlock: AJUNOK_clean_linker_0, # of connection points: 2
#     Edge 80, Type (0, 1), BuildingBlock: AJUNOK_clean_linker_0, # of connection points: 2
#     Edge 81, Type (0, 1), BuildingBlock: AJUNOK_clean_linker_0, # of connection points: 2
#     Edge 82, Type (0, 1), BuildingBlock: AJUNOK_clean_linker_0, # of connection points: 2
#     Edge 83, Type (0, 1), BuildingBlock: AJUNOK_clean_linker_0, # of connection points: 2
#     Edge 84, Type (0, 1), BuildingBlock: AJUNOK_clean_linker_0, # of connection points: 2
#     Edge 85, Type (0, 1), BuildingBlock: AJUNOK_clean_linker_0, # of connection points: 2
#     Edge 86, Type (0, 1), BuildingBlock: AJUNOK_clean_linker_0, # of connection points: 2
#     Edge 87, Type (0, 1), BuildingBlock: AJUNOK_clean_linker_0, # of connection points: 2
#     Edge 88, Type (0, 1), BuildingBlock: AJUNOK_clean_linker_0, # of connection points: 2
#     Edge 89, Type (0, 1), BuildingBlock: AJUNOK_clean_linker_0, # of connection points: 2
#     Edge 90, Type (0, 1), BuildingBlock: AJUNOK_clean_linker_0, # of connection points: 2
#     Edge 91, Type (0, 1), BuildingBlock: AJUNOK_clean_linker_0, # of connection points: 2
#     Edge 92, Type (0, 1), BuildingBlock: AJUNOK_clean_linker_0, # of connection points: 2
#     Edge 93, Type (0, 1), BuildingBlock: AJUNOK_clean_linker_0, # of connection points: 2
#     Edge 94, Type (0, 1), BuildingBlock: AJUNOK_clean_linker_0, # of connection points: 2
#     Edge 95, Type (0, 1), BuildingBlock: AJUNOK_clean_linker_0, # of connection points: 2
#     Edge 96, Type (0, 1), BuildingBlock: AJUNOK_clean_linker_0, # of connection points: 2
#     Edge 97, Type (0, 1), BuildingBlock: AJUNOK_clean_linker_0, # of connection points: 2
#     Edge 98, Type (0, 1), BuildingBlock: AJUNOK_clean_linker_0, # of connection points: 2
#     Edge 99, Type (0, 1), BuildingBlock: AJUNOK_clean_linker_0, # of connection points: 2
#     Edge 100, Type (0, 1), BuildingBlock: AJUNOK_clean_linker_0, # of connection points: 2
#     Edge 101, Type (0, 1), BuildingBlock: AJUNOK_clean_linker_0, # of connection points: 2
#     Edge 102, Type (0, 1), BuildingBlock: AJUNOK_clean_linker_0, # of connection points: 2
#     Edge 103, Type (0, 1), BuildingBlock: AJUNOK_clean_linker_0, # of connection points: 2
#     Edge 104, Type (0, 1), BuildingBlock: AJUNOK_clean_linker_0, # of connection points: 2
#     Edge 105, Type (0, 1), BuildingBlock: AJUNOK_clean_linker_0, # of connection points: 2
#     Edge 106, Type (0, 1), BuildingBlock: AJUNOK_clean_linker_0, # of connection points: 2
#     Edge 107, Type (0, 1), BuildingBlock: AJUNOK_clean_linker_0, # of connection points: 2
#     Edge 108, Type (0, 1), BuildingBlock: AJUNOK_clean_linker_0, # of connection points: 2
#     Edge 109, Type (0, 1), BuildingBlock: AJUNOK_clean_linker_0, # of connection points: 2
#     Edge 110, Type (0, 1), BuildingBlock: AJUNOK_clean_linker_0, # of connection points: 2
#     Edge 111, Type (0, 1), BuildingBlock: AJUNOK_clean_linker_0, # of connection points: 2
#     Edge 112, Type (0, 1), BuildingBlock: AJUNOK_clean_linker_0, # of connection points: 2
#     Edge 113, Type (0, 1), BuildingBlock: AJUNOK_clean_linker_0, # of connection points: 2
#     Edge 114, Type (0, 1), BuildingBlock: AJUNOK_clean_linker_0, # of connection points: 2
#     Edge 115, Type (0, 1), BuildingBlock: AJUNOK_clean_linker_0, # of connection points: 2
#     Edge 116, Type (0, 1), BuildingBlock: AJUNOK_clean_linker_0, # of connection points: 2
#     Edge 117, Type (0, 1), BuildingBlock: AJUNOK_clean_linker_0, # of connection points: 2
#     Edge 118, Type (0, 1), BuildingBlock: AJUNOK_clean_linker_0, # of connection points: 2
#     Edge 119, Type (0, 1), BuildingBlock: AJUNOK_clean_linker_0, # of connection points: 2
#     Edge 120, Type (0, 1), BuildingBlock: AJUNOK_clean_linker_0, # of connection points: 2
#     Edge 121, Type (0, 1), BuildingBlock: AJUNOK_clean_linker_0, # of connection points: 2
#     Edge 122, Type (0, 1), BuildingBlock: AJUNOK_clean_linker_0, # of connection points: 2
#     Edge 123, Type (0, 1), BuildingBlock: AJUNOK_clean_linker_0, # of connection points: 2
#     Edge 124, Type (0, 1), BuildingBlock: AJUNOK_clean_linker_0, # of connection points: 2
#     Edge 125, Type (0, 1), BuildingBlock: AJUNOK_clean_linker_0, # of connection points: 2
#     Edge 126, Type (0, 1), BuildingBlock: AJUNOK_clean_linker_0, # of connection points: 2
#     Edge 127, Type (0, 1), BuildingBlock: AJUNOK_clean_linker_0, # of connection points: 2
#     Edge 128, Type (0, 1), BuildingBlock: AJUNOK_clean_linker_0, # of connection points: 2
#     Edge 129, Type (0, 1), BuildingBlock: AJUNOK_clean_linker_0, # of connection points: 2
#     Edge 130, Type (0, 1), BuildingBlock: AJUNOK_clean_linker_0, # of connection points: 2
#     Edge 131, Type (0, 1), BuildingBlock: AJUNOK_clean_linker_0, # of connection points: 2
#     Edge 132, Type (0, 1), BuildingBlock: AJUNOK_clean_linker_0, # of connection points: 2
#     Edge 133, Type (0, 1), BuildingBlock: AJUNOK_clean_linker_0, # of connection points: 2
#     Edge 134, Type (0, 1), BuildingBlock: AJUNOK_clean_linker_0, # of connection points: 2
#     Edge 135, Type (0, 1), BuildingBlock: AJUNOK_clean_linker_0, # of connection points: 2
# Relax obj value: 0.092
# Max RMSD: 0.190
# Mean RMSD: 0.116
data_MOF--net-gar--node1-KUFVIS_clean_sbu_0--node2-KUMBOL_clean_sbu_1--edge1-AJUNOK_clean_linker_0
_symmetry_space_group_name_H-M    P1
_symmetry_Int_Tables_number       1
_symmetry_cell_setting            triclinic
loop_
_symmetry_equiv_pos_as_xyz
'x, y, z'
_cell_length_a     44.607159
_cell_length_b     44.931626
_cell_length_c     42.745507
_cell_angle_alpha  97.034074
_cell_angle_beta   97.050988
_cell_angle_gamma 102.29393
loop_
_atom_site_label
_atom_site_type_symbol
_atom_site_fract_x
_atom_site_fract_y
_atom_site_fract_z
_atom_type_partial_charge
Mn0 Mn 0.07333 0.34402 0.38618 0.0
Mn1 Mn 0.07484 0.38754 0.32901 0.0
C2 C 1.02393 0.35177 0.36213 0.0
C3 C 0.07029 0.29666 0.40542 0.0
C4 C 0.08614 0.41598 0.39978 0.0
O5 O 0.11794 0.34376 0.37262 0.0
O6 O 0.1182 0.37626 0.33725 0.0
C7 C 0.08092 0.33996 0.27696 0.0
N8 N 0.06497 0.36028 0.28911 0.0
C9 C 1.02498 0.34506 0.24318 0.0
C10 C 0.04115 0.32425 0.23014 0.0
C11 C 0.06923 0.32168 0.24713 0.0
C12 C 0.03789 0.36289 0.27293 0.0
H13 H 0.10238 0.3375 0.28982 0.0
C14 C 0.13194 0.35819 0.3523 0.0
O15 O 0.08278 0.32283 0.42339 0.0
O16 O 0.06111 0.29783 0.37567 0.0
N17 N 0.03666 0.39913 0.31641 0.0
C18 C 1.02311 0.41943 0.33262 0.0
C19 C 0.9944 0.42391 0.31912 0.0
C20 C 0.97996 0.40757 0.28906 0.0
C21 C 0.99434 0.38701 0.27271 0.0
C22 C 1.02296 0.38346 0.28732 0.0
H23 H 0.0337 0.43159 0.35599 0.0
O24 O 1.02845 0.34429 0.39029 0.0
O25 O 0.04928 0.35424 0.34819 0.0
O26 O 0.08598 0.38992 0.40923 0.0
O27 O 0.08331 0.41811 0.36989 0.0
C28 C 0.98103 0.36947 0.24272 0.0
C29 C 0.99637 0.34855 0.22793 0.0
H30 H 0.03213 0.30999 0.2072 0.0
H31 H 0.08179 0.30555 0.23731 0.0
H32 H 0.98326 0.43964 0.332 0.0
H33 H 0.95767 0.41062 0.27881 0.0
H34 H 0.95888 0.37174 0.23092 0.0
H35 H 0.98583 0.33506 0.20494 0.0
Mn36 Mn 0.05702 0.76335 0.72054 0.0
Mn37 Mn 0.07697 0.81407 0.78896 0.0
C38 C 0.1121 0.77798 0.74643 0.0
C39 C 0.04325 0.71434 0.68401 0.0
C40 C 0.07123 0.83428 0.72424 0.0
O41 O 1.01153 0.76473 0.73475 0.0
O42 O 0.02897 0.80109 0.77763 0.0
C43 C 0.05252 0.76999 0.83103 0.0
N44 N 0.07661 0.79068 0.82348 0.0
C45 C 0.11077 0.78475 0.86931 0.0
C46 C 0.08627 0.76354 0.87766 0.0
C47 C 0.05705 0.75607 0.85837 0.0
C48 C 0.1049 0.7978 0.84172 0.0
H49 H 0.03 0.76418 0.81635 0.0
C50 C 1.00568 0.7832 0.75825 0.0
O51 O 0.03908 0.74009 0.676 0.0
O52 O 0.05182 0.71578 0.71452 0.0
N53 N 0.12041 0.82949 0.80466 0.0
C54 C 0.14169 0.85054 0.79353 0.0
C55 C 0.17221 0.86012 0.80995 0.0
C56 C 0.18046 0.84848 0.83794 0.0
C57 C 0.15805 0.8274 0.84936 0.0
C58 C 0.12803 0.8185 0.83188 0.0
H59 H 0.1356 0.85954 0.772 0.0
O60 O 0.10312 0.767 0.71658 0.0
O61 O 0.08789 0.7795 0.76143 0.0
O62 O 0.06075 0.80693 0.70948 0.0
O63 O 0.07918 0.84025 0.75454 0.0
C64 C 0.1644 0.81476 0.87733 0.0
C65 C 0.14079 0.79339 0.88726 0.0
H66 H 0.08964 0.75283 0.89879 0.0
H67 H 0.03804 0.73966 0.86462 0.0
H68 H 0.18938 0.87642 0.8011 0.0
H69 H 0.20404 0.8559 0.85047 0.0
H70 H 0.18742 0.82113 0.89126 0.0
H71 H 0.14603 0.78363 0.90865 0.0
Mn72 Mn 0.57637 0.84602 0.88953 0.0
Mn73 Mn 0.57902 0.88994 0.8328 0.0
C74 C 0.52663 0.85348 0.86461 0.0
C75 C 0.57488 0.80075 0.91269 0.0
C76 C 0.58931 0.91802 0.90347 0.0
O77 O 0.62109 0.84491 0.87558 0.0
O78 O 0.62203 0.87753 0.84037 0.0
C79 C 0.58372 0.84263 0.77976 0.0
N80 N 0.5686 0.86348 0.79242 0.0
C81 C 0.52885 0.85062 0.74624 0.0
C82 C 0.54421 0.82931 0.73265 0.0
C83 C 0.57174 0.82528 0.74951 0.0
C84 C 0.54206 0.8675 0.77637 0.0
H85 H 0.60472 0.83905 0.79255 0.0
C86 C 0.63537 0.85894 0.85508 0.0
O87 O 0.58755 0.82792 0.92815 0.0
O88 O 0.56399 0.79929 0.88272 0.0
N89 N 0.5415 0.90277 0.82092 0.0
C90 C 0.52838 0.92287 0.83803 0.0
C91 C 0.50002 0.92836 0.82496 0.0
C92 C 0.4856 0.9133 0.79445 0.0
C93 C 0.49957 0.89302 0.77715 0.0
C94 C 0.5278 0.88833 0.7914 0.0
H95 H 0.53906 0.93427 0.86169 0.0
O96 O 0.5313 0.84657 0.89306 0.0
O97 O 0.55225 0.85592 0.85096 0.0
O98 O 0.58846 0.89173 0.9123 0.0
O99 O 0.58824 0.92073 0.87384 0.0
C100 C 0.48602 0.87655 0.74674 0.0
C101 C 0.5007 0.8554 0.73126 0.0
H102 H 0.53492 0.81572 0.70942 0.0
H103 H 0.58363 0.80872 0.73928 0.0
H104 H 0.48915 0.9439 0.83849 0.0
H105 H 0.46357 0.91698 0.78466 0.0
H106 H 0.46413 0.8797 0.73522 0.0
H107 H 0.48994 0.84266 0.70799 0.0
Mn108 Mn 0.55575 0.26387 0.22503 0.0
Mn109 Mn 0.49836 0.2544 0.16174 0.0
C110 C 0.53788 0.21475 0.18829 0.0
C111 C 0.61465 0.27506 0.24319 0.0
C112 C 0.48381 0.26704 0.23042 0.0
O113 O 0.55807 0.30824 0.21493 0.0
O114 O 0.52326 0.29758 0.16944 0.0
C115 C 0.53258 0.26453 0.10773 0.0
N116 N 0.51255 0.24552 0.12224 0.0
C117 C 0.50235 0.20513 0.07741 0.0
C118 C 0.52179 0.22473 0.06159 0.0
C119 C 0.53717 0.25448 0.07674 0.0
C120 C 0.49751 0.21691 0.10762 0.0
H121 H 0.5449 0.28713 0.11967 0.0
C122 C 0.54453 0.31632 0.18996 0.0
O123 O 0.59455 0.27727 0.26244 0.0
O124 O 0.60086 0.26672 0.21415 0.0
N125 N 0.47417 0.21282 0.15303 0.0
C126 C 0.45593 0.19696 0.17169 0.0
C127 C 0.44034 0.16615 0.16057 0.0
C128 C 0.44382 0.15195 0.13051 0.0
C129 C 0.46284 0.16873 0.11185 0.0
C130 C 0.47756 0.19942 0.12408 0.0
H131 H 0.45345 0.20764 0.19496 0.0
O132 O 0.55022 0.21593 0.21768 0.0
O133 O 0.53367 0.24141 0.18305 0.0
O134 O 0.51123 0.26541 0.24487 0.0
O135 O 0.4792 0.26349 0.2001 0.0
C136 C 0.46849 0.156 0.08199 0.0
C137 C 0.48785 0.17433 0.06451 0.0
H138 H 0.52482 0.21712 0.03779 0.0
H139 H 0.55257 0.26951 0.06464 0.0
H140 H 0.42583 0.15334 0.17522 0.0
H141 H 0.43197 0.12812 0.12211 0.0
H142 H 0.4583 0.13209 0.07243 0.0
H143 H 0.49197 0.16437 0.0415 0.0
Mn144 Mn 0.11504 0.82496 0.13779 0.0
Mn145 Mn 0.06311 0.80417 0.06968 0.0
C146 C 0.10003 0.7705 0.11248 0.0
C147 C 0.16461 0.83933 0.17351 0.0
C148 C 0.04374 0.8133 0.1346 0.0
O149 O 0.11382 0.86935 0.1227 0.0
O150 O 0.07708 0.85159 0.07976 0.0
C151 C 0.10736 0.82601 0.0265 0.0
N152 N 0.08662 0.80272 0.03517 0.0
C153 C 0.09418 0.76637 0.99225 0.0
C154 C 0.11548 0.79002 0.98279 0.0
C155 C 0.12211 0.81995 1.00001 0.0
C156 C 0.08018 0.77379 0.01883 0.0
H157 H 0.11266 0.84904 0.03969 0.0
C158 C 0.09527 0.87468 0.09896 0.0
O159 O 0.13886 0.84368 0.18185 0.0
O160 O 0.16269 0.82984 0.14312 0.0
N161 N 0.04704 0.76085 0.05552 0.0
C162 C 1.02473 0.74093 0.0666 0.0
C163 C 1.01528 0.71003 0.05189 0.0
C164 C 1.02837 0.70004 0.02544 0.0
C165 C 0.05049 0.72118 0.0137 0.0
C166 C 0.05904 0.75169 0.02943 0.0
H167 H 1.01444 0.74851 0.08666 0.0
O168 O 0.1112 0.77939 0.14235 0.0
O169 O 0.09818 0.79428 0.0974 0.0
O170 O 0.07151 0.82272 0.14892 0.0
O171 O 0.03688 0.8041 0.1045 0.0
C172 C 0.06444 0.71316 0.98704 0.0
C173 C 0.08628 0.73574 0.97633 0.0
H174 H 0.12689 0.78545 0.96237 0.0
H175 H 0.13857 0.83832 0.99288 0.0
H176 H 0.99797 0.69395 0.06095 0.0
H177 H 1.02114 0.67616 0.01422 0.0
H178 H 0.05848 0.68971 0.97455 0.0
H179 H 0.09681 0.72931 0.95576 0.0
Mn180 Mn 0.51943 0.78811 0.4789 0.0
Mn181 Mn 0.52073 0.83182 0.4179 0.0
C182 C 0.4708 0.7904 0.44537 0.0
C183 C 0.52571 0.73667 0.49753 0.0
C184 C 0.53149 0.86239 0.48754 0.0
O185 O 0.56546 0.79675 0.47048 0.0
O186 O 0.55969 0.81827 0.42584 0.0
C187 C 0.52544 0.78769 0.36265 0.0
N188 N 0.51118 0.80874 0.37624 0.0
C189 C 0.49092 0.81924 0.32516 0.0
C190 C 0.50553 0.79779 0.31043 0.0
C191 C 0.52226 0.7814 0.32925 0.0
C192 C 0.49363 0.82333 0.35834 0.0
H193 H 0.53972 0.77652 0.37727 0.0
C194 C 0.57556 0.80671 0.4459 0.0
O195 O 0.53054 0.76293 0.51616 0.0
O196 O 0.51621 0.73985 0.46844 0.0
N197 N 0.48506 0.84735 0.40664 0.0
C198 C 0.47161 0.86626 0.42484 0.0
C199 C 0.45168 0.88233 0.40977 0.0
C200 C 0.44726 0.88 0.37635 0.0
C201 C 0.46164 0.86055 0.3583 0.0
C202 C 0.47958 0.8437 0.37451 0.0
H203 H 0.47662 0.8695 0.45056 0.0
O204 O 0.47126 0.78098 0.47301 0.0
O205 O 0.49845 0.79755 0.43766 0.0
O206 O 0.52576 0.83713 0.50047 0.0
O207 O 0.53171 0.86073 0.45777 0.0
C208 C 0.4601 0.85823 0.32502 0.0
C209 C 0.4749 0.83772 0.30845 0.0
H210 H 0.5042 0.79382 0.28473 0.0
H211 H 0.53364 0.76486 0.31808 0.0
H212 H 0.4408 0.89743 0.42388 0.0
H213 H 0.4332 0.89354 0.36478 0.0
H214 H 0.44812 0.87264 0.31223 0.0
H215 H 0.47399 0.83631 0.2829 0.0
Mn216 Mn 0.61247 0.32197 0.6351 0.0
Mn217 Mn 0.56316 0.30152 0.56516 0.0
C218 C 0.59959 0.26795 0.60867 0.0
C219 C 0.66215 0.33734 0.67094 0.0
C220 C 0.54078 0.30809 0.62909 0.0
O221 O 0.6103 0.36661 0.62064 0.0
O222 O 0.57709 0.34864 0.57519 0.0
C223 C 0.60873 0.32256 0.52307 0.0
N224 N 0.58712 0.29967 0.53117 0.0
C225 C 0.59276 0.26356 0.48705 0.0
C226 C 0.61493 0.28681 0.47811 0.0
C227 C 0.62302 0.3164 0.49627 0.0
C228 C 0.57942 0.27102 0.51408 0.0
H229 H 0.615 0.34532 0.53698 0.0
C230 C 0.5935 0.37182 0.59549 0.0
O231 O 0.63606 0.34034 0.67958 0.0
O232 O 0.66026 0.32857 0.64043 0.0
N233 N 0.54684 0.25825 0.55131 0.0
C234 C 0.52493 0.23842 0.56304 0.0
C235 C 0.51475 0.20766 0.54799 0.0
C236 C 0.5267 0.19777 0.52067 0.0
C237 C 0.54856 0.21881 0.50851 0.0
C238 C 0.55798 0.24913 0.52464 0.0
H239 H 0.51552 0.24589 0.58394 0.0
O240 O 0.61008 0.27638 0.63873 0.0
O241 O 0.59749 0.29194 0.59403 0.0
O242 O 0.56789 0.31689 0.64541 0.0
O243 O 0.53623 0.30177 0.59868 0.0
C244 C 0.56146 0.21086 0.48107 0.0
C245 C 0.58353 0.23322 0.47034 0.0
H246 H 0.62598 0.28217 0.45743 0.0
H247 H 0.6402 0.33444 0.48958 0.0
H248 H 0.49772 0.19161 0.55741 0.0
H249 H 0.51887 0.17402 0.50918 0.0
H250 H 0.5547 0.18758 0.46816 0.0
H251 H 0.59344 0.22678 0.44934 0.0
Mn252 Mn 1.01969 0.28989 0.97684 0.0
Mn253 Mn 1.0196 0.33249 0.91501 0.0
C254 C 0.97055 0.29093 0.94269 0.0
C255 C 1.02632 0.23803 0.99528 0.0
C256 C 0.02992 0.36417 0.98442 0.0
O257 O 0.06593 0.29921 0.96814 0.0
O258 O 0.05876 0.31973 0.92315 0.0
C259 C 1.02433 0.28798 0.86002 0.0
N260 N 1.01024 0.30925 0.87345 0.0
C261 C 0.98976 0.31929 0.82225 0.0
C262 C 1.00439 0.29778 0.80766 0.0
C263 C 1.0211 0.28149 0.82661 0.0
C264 C 0.99259 0.32367 0.85542 0.0
H265 H 0.03848 0.27674 0.87476 0.0
C266 C 0.07555 0.30908 0.94322 0.0
O267 O 0.03104 0.26422 0.01403 0.0
O268 O 1.01699 0.24163 0.96631 0.0
N269 N 0.98363 0.34755 0.90358 0.0
C270 C 0.96999 0.36633 0.92167 0.0
C271 C 0.9504 0.38266 0.9065 0.0
C272 C 0.94622 0.38037 0.87308 0.0
C273 C 0.96036 0.36067 0.85506 0.0
C274 C 0.97837 0.34396 0.87144 0.0
H275 H 0.97473 0.36945 0.9474 0.0
O276 O 0.97119 0.28196 0.97055 0.0
O277 O 0.99819 0.29837 0.9352 0.0
O278 O 1.02519 0.33932 0.99823 0.0
O279 O 0.03003 0.36116 0.95469 0.0
C280 C 0.95847 0.35786 0.82165 0.0
C281 C 0.9734 0.33734 0.80532 0.0
H282 H 1.00286 0.29355 0.78195 0.0
H283 H 0.03236 0.2648 0.81553 0.0
H284 H 0.93961 0.3979 0.92055 0.0
H285 H 0.93262 0.3942 0.86145 0.0
H286 H 0.94591 0.37159 0.80837 0.0
H287 H 0.9724 0.33557 0.77976 0.0
Mn288 Mn 0.42233 0.02485 0.31164 0.0
Mn289 Mn 0.37239 0.03304 0.36321 0.0
C290 C 0.39707 0.98279 0.33038 0.0
C291 C 0.43084 1.01568 0.2597 0.0
C292 C 0.44246 0.05077 0.38206 0.0
O293 O 0.41382 0.06645 0.30672 0.0
O294 O 0.37737 0.06845 0.33879 0.0
C295 C 0.31457 0.02698 0.31819 0.0
N296 N 0.33063 1.01666 0.34217 0.0
C297 C 0.28642 0.97586 0.34417 0.0
C298 C 0.26937 0.98622 0.31969 0.0
C299 C 0.28354 1.01185 0.30661 0.0
C300 C 0.31718 0.99206 0.35498 0.0
H301 H 0.32531 0.04661 0.30796 0.0
C302 C 0.39377 0.07908 0.31827 0.0
O303 O 0.45373 0.02896 0.28233 0.0
O304 O 0.40316 1.00902 0.26698 0.0
N305 N 0.36508 0.99944 0.38706 0.0
C306 C 0.38497 0.99166 0.40981 0.0
C307 C 0.37461 0.96581 0.42442 0.0
C308 C 0.34394 0.94844 0.41571 0.0
C309 C 0.32388 0.95689 0.39238 0.0
C310 C 0.33543 0.9829 0.37866 0.0
H311 H 0.40864 1.00484 0.41653 0.0
O312 O 0.42268 0.9824 0.31911 0.0
O313 O 0.38709 1.00796 0.33039 0.0
O314 O 0.44921 0.04181 0.35488 0.0
O315 O 0.4147 0.0497 0.38738 0.0
C316 C 0.293 0.94025 0.38191 0.0
C317 C 0.27426 0.94976 0.35785 0.0
H318 H 0.24551 0.97447 0.3105 0.0
H319 H 0.27059 1.01988 0.28756 0.0
H320 H 0.3902 0.95905 0.44217 0.0
H321 H 0.33606 0.92859 0.42694 0.0
H322 H 0.28351 0.92 0.39205 0.0
H323 H 0.25062 0.93665 0.34983 0.0
Mn324 Mn 0.2772 0.22279 0.54193 0.0
Mn325 Mn 0.26739 0.16245 0.48278 0.0
C326 C 0.22813 0.18792 0.52533 0.0
C327 C 0.28736 0.24216 0.59894 0.0
C328 C 0.28044 0.22922 0.46984 0.0
O329 O 0.32133 0.21571 0.54193 0.0
O330 O 0.31065 0.17257 0.50526 0.0
C331 C 0.27763 0.11154 0.51713 0.0
N332 N 0.25828 0.12405 0.49831 0.0
C333 C 0.21803 0.07758 0.48995 0.0
C334 C 0.23782 0.06407 0.50873 0.0
C335 C 0.26759 0.08117 0.52262 0.0
C336 C 0.22956 0.10774 0.48481 0.0
H337 H 0.30077 0.12441 0.52741 0.0
C338 C 0.32923 0.1927 0.52687 0.0
O339 O 0.29131 0.26021 0.57748 0.0
O340 O 0.27815 0.21321 0.58739 0.0
N341 N 0.22557 0.15079 0.46086 0.0
C342 C 0.20986 0.16705 0.44262 0.0
C343 C 0.17916 0.15364 0.42809 0.0
C344 C 0.16501 0.12362 0.4323 0.0
C345 C 0.18169 0.10733 0.45114 0.0
C346 C 0.21211 0.122 0.46525 0.0
H347 H 0.22064 0.19011 0.43929 0.0
O348 O 0.23006 0.21601 0.53858 0.0
O349 O 0.25449 0.18234 0.5203 0.0
O350 O 0.27935 0.24201 0.49841 0.0
O351 O 0.27663 0.20012 0.46297 0.0
C352 C 0.1693 0.07718 0.45659 0.0
C353 C 0.18759 0.0622 0.47569 0.0
H354 H 0.2308 0.04043 0.51221 0.0
H355 H 0.28291 0.0708 0.53714 0.0
H356 H 0.16643 0.16639 0.41364 0.0
H357 H 0.14134 0.11334 0.42103 0.0
H358 H 0.14583 0.06522 0.44601 0.0
H359 H 0.17796 0.03889 0.47922 0.0
Mn360 Mn 0.14965 0.09813 0.81006 0.0
Mn361 Mn 0.21207 0.10754 0.86737 0.0
C362 C 0.1844 0.14695 0.82681 0.0
C363 C 0.12878 0.08823 0.75358 0.0
C364 C 0.14562 0.09311 0.88222 0.0
O365 O 0.15732 0.05474 0.80884 0.0
O366 O 0.20123 0.06435 0.84502 0.0
C367 C 0.2619 0.09769 0.83072 0.0
N368 N 0.24997 0.11673 0.85046 0.0
C369 C 0.29648 0.1569 0.85731 0.0
C370 C 0.30935 0.13755 0.83734 0.0
C371 C 0.29197 0.10792 0.82386 0.0
C372 C 0.26664 0.14522 0.86377 0.0
H373 H 0.24875 0.07472 0.82066 0.0
C374 C 0.1801 0.04636 0.82382 0.0
O375 O 0.11124 0.08319 0.77543 0.0
O376 O 0.15797 0.09866 0.7644 0.0
N377 N 0.22431 0.14896 0.8895 0.0
C378 C 0.20851 0.16442 0.90859 0.0
C379 C 0.22223 0.1949 0.92301 0.0
C380 C 0.25208 0.20906 0.91779 0.0
C381 C 0.26788 0.19263 0.89808 0.0
C382 C 0.25294 0.16241 0.8842 0.0
H383 H 0.18555 0.15363 0.91264 0.0
O384 O 0.15575 0.14494 0.81454 0.0
O385 O 0.19058 0.12075 0.83091 0.0
O386 O 0.13167 0.09424 0.85412 0.0
O387 O 0.17508 0.09826 0.88829 0.0
C388 C 0.29774 0.20512 0.89141 0.0
C389 C 0.31213 0.18715 0.87129 0.0
H390 H 0.33263 0.14491 0.83245 0.0
H391 H 0.30186 0.09293 0.80845 0.0
H392 H 0.20983 0.20745 0.9381 0.0
H393 H 0.26258 0.23257 0.92891 0.0
H394 H 0.30989 0.22847 0.90172 0.0
H395 H 0.33517 0.19687 0.86669 0.0
Mn396 Mn 0.35135 0.94895 0.03119 0.0
Mn397 Mn 0.35047 1.00724 0.98895 0.0
C398 C 0.3973 0.97752 0.02154 0.0
C399 C 0.35074 0.93006 0.07865 0.0
C400 C 0.33154 0.93987 0.95981 0.0
O401 O 0.30889 0.95656 0.03258 0.0
O402 O 0.31191 0.99901 1.00875 0.0
C403 C 0.3534 0.059 0.04014 0.0
N404 N 0.36581 0.04622 0.01573 0.0
C405 C 0.40499 0.09288 0.01863 0.0
C406 C 0.39234 0.1067 0.04349 0.0
C407 C 0.36668 0.08956 0.05454 0.0
C408 C 0.39092 0.06228 1.00541 0.0
H409 H 0.33332 0.04611 0.04833 0.0
C410 C 0.29805 0.97872 0.024 0.0
O411 O 0.34047 0.91203 0.05162 0.0
O412 O 0.36111 0.95925 0.078 0.0
N413 N 0.38694 1.0178 0.96951 0.0
C414 C 0.39699 1.00075 0.94612 0.0
C415 C 0.42346 1.014 0.93358 0.0
C416 C 0.43913 0.04468 0.94509 0.0
C417 C 0.42851 0.06171 0.96925 0.0
C418 C 0.40219 0.04719 0.98104 0.0
H419 H 0.38523 0.97709 0.93752 0.0
O420 O 0.39576 0.95001 0.02862 0.0
O421 O 0.3719 0.98747 0.02049 0.0
O422 O 0.33868 0.9293 0.98517 0.0
O423 O 0.3346 0.96854 0.95845 0.0
C424 C 0.44287 0.0926 0.98194 0.0
C425 C 0.43086 0.10827 1.00631 0.0
H426 H 0.40216 0.13041 0.05434 0.0
H427 H 0.35694 0.10001 0.07386 0.0
H428 H 0.43179 1.00062 0.91515 0.0
H429 H 0.45935 0.05495 0.93537 0.0
H430 H 0.46302 0.10458 0.97297 0.0
H431 H 0.44162 0.1322 0.01528 0.0
Mn432 Mn 0.34708 0.40027 0.07029 0.0
Mn433 Mn 0.35609 0.45557 0.02102 0.0
C434 C 0.39714 0.43142 0.06709 0.0
C435 C 0.33822 0.38318 0.12188 0.0
C436 C 0.34396 0.38714 0.9953 0.0
O437 O 0.3028 0.40821 0.06201 0.0
O438 O 0.31366 0.44474 0.03087 0.0
C439 C 0.34554 0.5075 0.06485 0.0
N440 N 0.3629 0.49602 0.04443 0.0
C441 C 0.39394 0.54665 0.04359 0.0
C442 C 0.37634 0.55911 0.06453 0.0
C443 C 0.35226 0.5394 0.07549 0.0
C444 C 0.38663 0.51469 0.03445 0.0
H445 H 0.32655 0.49247 0.07266 0.0
C446 C 0.295 0.42844 0.04588 0.0
O447 O 0.33287 0.36454 0.09509 0.0
O448 O 0.34867 0.41181 0.11892 0.0
N449 N 0.39605 0.46956 1.00916 0.0
C450 C 0.41311 0.45351 0.99246 0.0
C451 C 0.4392 0.46948 0.98112 0.0
C452 C 0.44724 0.50184 0.98682 0.0
C453 C 0.42951 0.5179 1.00442 0.0
C454 C 0.404 0.50066 0.01538 0.0
H455 H 0.4074 0.42877 0.98894 0.0
O456 O 0.3941 0.40479 0.07683 0.0
O457 O 0.37125 0.4392 0.05924 0.0
O458 O 0.34195 0.37719 0.0223 0.0
O459 O 0.34956 0.41575 0.99318 0.0
C460 C 0.43636 0.55027 1.012 0.0
C461 C 0.41848 0.56464 0.03147 0.0
H462 H 0.38124 0.58372 0.0725 0.0
H463 H 0.33862 0.54882 0.0917 0.0
H464 H 0.45316 0.45689 0.96817 0.0
H465 H 0.46744 0.51403 0.97821 0.0
H466 H 0.45575 0.5643 1.00363 0.0
H467 H 0.42435 0.58951 0.03766 0.0
Mn468 Mn 0.796 0.17061 0.1058 0.0
Mn469 Mn 0.77122 0.10671 0.05018 0.0
C470 C 0.74434 0.14715 0.09503 0.0
C471 C 0.8146 0.19644 0.15587 0.0
C472 C 0.78539 0.17129 0.03438 0.0
O473 O 0.83603 0.15844 0.09976 0.0
O474 O 0.81625 0.11478 0.06491 0.0
C475 C 0.78196 0.06136 0.09262 0.0
N476 N 0.76289 0.07097 0.07064 0.0
C477 C 0.72157 0.02646 0.06993 0.0
C478 C 0.74088 1.01592 0.09234 0.0
C479 C 0.77116 0.03351 0.10383 0.0
C480 C 0.7336 0.05441 0.05974 0.0
H481 H 0.80515 0.07493 0.10157 0.0
C482 C 0.83884 0.13444 0.08251 0.0
O483 O 0.8189 0.20963 0.131 0.0
O484 O 0.80148 0.1672 0.1518 0.0
N485 N 0.7281 0.09537 0.03292 0.0
C486 C 0.71194 0.10969 0.01281 0.0
C487 C 0.68129 0.09528 0.99925 0.0
C488 C 0.66759 0.0661 1.00601 0.0
C489 C 0.68476 0.05163 0.02652 0.0
C490 C 0.71542 0.067 0.03911 0.0
H491 H 0.72231 0.13198 1.00712 0.0
O492 O 0.75355 0.17558 0.10872 0.0
O493 O 0.76566 0.13238 0.089 0.0
O494 O 0.79326 0.18489 0.06291 0.0
O495 O 0.77789 0.14207 0.02654 0.0
C496 C 0.6724 0.02305 0.03578 0.0
C497 C 0.69071 1.01061 0.05771 0.0
H498 H 0.73262 0.9945 0.10111 0.0
H499 H 0.78611 0.02563 0.1213 0.0
H500 H 0.66839 0.10677 0.98367 0.0
H501 H 0.6438 0.05523 0.99571 0.0
H502 H 0.64864 1.0108 0.02673 0.0
H503 H 0.68075 0.98895 0.06518 0.0
Mn504 Mn 0.21397 0.58655 0.25455 0.0
Mn505 Mn 0.27861 0.61159 0.3095 0.0
C506 C 0.23674 0.63804 0.26717 0.0
C507 C 0.18689 0.57117 0.20433 0.0
C508 C 0.21395 0.59608 0.32621 0.0
O509 O 0.22809 0.54695 0.25719 0.0
O510 O 0.26984 0.56664 0.29509 0.0
C511 C 0.32236 0.60008 0.26508 0.0
N512 N 0.31392 0.61916 0.28788 0.0
C513 C 0.35899 0.65942 0.28715 0.0
C514 C 0.36875 0.63974 0.26451 0.0
C515 C 0.35015 0.61005 0.25315 0.0
C516 C 0.33097 0.6482 0.29798 0.0
H517 H 0.3077 0.5777 0.25579 0.0
C518 C 0.25157 0.54431 0.27579 0.0
O519 O 0.17434 0.56429 0.22904 0.0
O520 O 0.21623 0.58459 0.20843 0.0
N521 N 0.29088 0.6546 0.32627 0.0
C522 C 0.27796 0.67085 0.3478 0.0
C523 C 0.29324 0.70124 0.36095 0.0
C524 C 0.32186 0.71453 0.35233 0.0
C525 C 0.33507 0.69719 0.33068 0.0
C526 C 0.31893 0.66686 0.31861 0.0
H527 H 0.25611 0.66075 0.35489 0.0
O528 O 0.20763 0.62891 0.2552 0.0
O529 O 0.25219 0.61701 0.27133 0.0
O530 O 0.20057 0.58559 0.29792 0.0
O531 O 0.24331 0.60599 0.33372 0.0
C532 C 0.36358 0.70882 0.32058 0.0
C533 C 0.37547 0.69 0.29871 0.0
H534 H 0.39012 0.64741 0.25518 0.0
H535 H 0.35714 0.59496 0.23514 0.0
H536 H 0.283 0.71434 0.37775 0.0
H537 H 0.33351 0.73799 0.36254 0.0
H538 H 0.37634 0.73228 0.32918 0.0
H539 H 0.39716 0.69938 0.29069 0.0
Mn540 Mn 0.85064 0.90001 0.5712 0.0
Mn541 Mn 0.85486 0.95583 0.52278 0.0
C542 C 0.89917 0.93274 0.56649 0.0
C543 C 0.84368 0.883 0.62304 0.0
C544 C 0.84232 0.88744 0.49616 0.0
O545 O 0.80576 0.9063 0.5643 0.0
O546 O 0.81367 0.94567 0.53573 0.0
C547 C 0.84811 1.00825 0.56831 0.0
N548 N 0.86443 0.99602 0.54723 0.0
C549 C 0.89888 0.04537 0.54861 0.0
C550 C 0.8825 0.05855 0.57038 0.0
C551 C 0.85717 0.03984 0.5805 0.0
C552 C 0.88929 1.01365 0.53795 0.0
H553 H 0.82813 0.99406 0.57546 0.0
C554 C 0.79652 0.92699 0.54998 0.0
O555 O 0.83851 0.86427 0.59631 0.0
O556 O 0.85305 0.91174 0.61994 0.0
N557 N 0.89357 0.96836 0.50783 0.0
C558 C 0.90633 0.95224 0.486 0.0
C559 C 0.93238 0.96743 0.47403 0.0
C560 C 0.94441 0.99918 0.48384 0.0
C561 C 0.93022 1.0155 0.50545 0.0
C562 C 0.90466 0.99903 0.51699 0.0
H563 H 0.89672 0.92799 0.47775 0.0
O564 O 0.89788 0.90636 0.57646 0.0
O565 O 0.87248 0.93918 0.55949 0.0
O566 O 0.84497 0.8771 0.52308 0.0
O567 O 0.84518 0.91602 0.49474 0.0
C568 C 0.94004 0.04755 0.51554 0.0
C569 C 0.92416 0.06249 0.53685 0.0
H570 H 0.88917 0.08299 0.5795 0.0
H571 H 0.84437 0.04983 0.59726 0.0
H572 H 0.94296 0.95477 0.45703 0.0
H573 H 0.96439 1.01076 0.47445 0.0
H574 H 0.95965 0.06096 0.50695 0.0
H575 H 0.9316 0.08721 0.54408 0.0
Mn576 Mn 0.97808 0.02203 0.28295 0.0
Mn577 Mn 0.92091 1.01903 0.33023 0.0
C578 C 0.94403 0.97433 0.28687 0.0
C579 C 0.99503 0.02942 0.23109 0.0
C580 C 0.98935 0.02943 0.35808 0.0
O581 O 0.97338 0.06684 0.2902 0.0
O582 O 0.9327 0.05984 0.3174 0.0
C583 C 0.86939 0.0272 0.28395 0.0
N584 N 0.88062 1.0109 0.30562 0.0
C585 C 0.82972 0.97936 0.30521 0.0
C586 C 0.81754 0.99574 0.28282 0.0
C587 C 0.83752 1.01959 0.27194 0.0
C588 C 0.86173 0.98753 0.31577 0.0
H589 H 0.8846 0.04607 0.27622 0.0
C590 C 0.95248 0.0765 0.3038 0.0
O591 O 1.01419 0.0336 0.25756 0.0
O592 O 0.96617 1.02041 0.23449 0.0
N593 N 0.90667 0.9808 0.34509 0.0
C594 C 0.92232 0.9665 0.36575 0.0
C595 C 0.90594 0.94114 0.37774 0.0
C596 C 0.87355 0.9314 0.36921 0.0
C597 C 0.85787 0.94699 0.34855 0.0
C598 C 0.8755 0.97169 0.33686 0.0
H599 H 0.94711 0.9744 0.37302 0.0
O600 O 0.97067 0.97523 0.27717 0.0
O601 O 0.93789 1.00099 0.29394 0.0
O602 O 1.00046 0.02674 0.33149 0.0
O603 O 0.96053 0.02734 0.3586 0.0
C604 C 0.82544 0.93902 0.33906 0.0
C605 C 0.81137 0.95535 0.31759 0.0
H606 H 0.79291 0.99017 0.2738 0.0
H607 H 0.8283 0.03239 0.25472 0.0
H608 H 0.9182 0.92935 0.3938 0.0
H609 H 0.86097 0.91197 0.37867 0.0
H610 H 0.81113 0.92017 0.34783 0.0
H611 H 0.78643 0.94891 0.31036 0.0
Mn612 Mn 0.28968 0.66702 0.60851 0.0
Mn613 Mn 0.2701 0.60282 0.55285 0.0
C614 C 0.23973 0.63818 0.59858 0.0
C615 C 0.30674 0.69436 0.65832 0.0
C616 C 0.27529 0.66696 0.53697 0.0
O617 O 0.33187 0.65995 0.60226 0.0
O618 O 0.31539 0.61703 0.56584 0.0
C619 C 0.29051 0.56154 0.59573 0.0
N620 N 0.26857 0.56752 0.57388 0.0
C621 C 0.23456 0.51812 0.57368 0.0
C622 C 0.25717 0.51106 0.5955 0.0
C623 C 0.28513 0.53301 0.60685 0.0
C624 C 0.24109 0.5471 0.56383 0.0
H625 H 0.31178 0.57853 0.60478 0.0
C626 C 0.33679 0.63786 0.58364 0.0
O627 O 0.30875 0.70749 0.63313 0.0
O628 O 0.29683 0.66458 0.6548 0.0
N629 N 0.2271 0.58528 0.53693 0.0
C630 C 0.20789 0.59541 0.51543 0.0
C631 C 0.17886 0.57625 0.50196 0.0
C632 C 0.16992 0.54676 0.5103 0.0
C633 C 0.19047 0.53639 0.53153 0.0
C634 C 0.21928 0.55634 0.54393 0.0
H635 H 0.21477 0.6178 0.5083 0.0
O636 O 0.24597 0.66676 0.61176 0.0
O637 O 0.26294 0.6264 0.59221 0.0
O638 O 0.28416 0.6807 0.56538 0.0
O639 O 0.26985 0.63779 0.52912 0.0
C640 C 0.18365 0.50688 0.54056 0.0
C641 C 0.20559 0.49779 0.56176 0.0
H642 H 0.25312 0.48904 0.60406 0.0
H643 H 0.30248 0.52796 0.62412 0.0
H644 H 0.1636 0.58394 0.48476 0.0
H645 H 0.14746 0.53212 0.49988 0.0
H646 H 0.16156 0.49105 0.53146 0.0
H647 H 0.19988 0.47518 0.56886 0.0
Mn648 Mn 0.47426 0.52322 0.78188 0.0
Mn649 Mn 0.41696 0.51966 0.8291 0.0
C650 C 0.44111 0.47505 0.78666 0.0
C651 C 0.49204 0.53038 0.73031 0.0
C652 C 0.48552 0.53154 0.85696 0.0
O653 O 0.46863 0.56794 0.78862 0.0
O654 O 0.42798 0.56025 0.8158 0.0
C655 C 0.36511 0.52634 0.78227 0.0
N656 N 0.37666 0.51065 0.80438 0.0
C657 C 0.32607 0.4787 0.80449 0.0
C658 C 0.31356 0.49443 0.78164 0.0
C659 C 0.33322 0.51817 0.77027 0.0
C660 C 0.35808 0.48738 0.81498 0.0
H661 H 0.38008 0.54515 0.7742 0.0
C662 C 0.44742 0.57718 0.80213 0.0
O663 O 0.51074 0.53518 0.75713 0.0
O664 O 0.46304 0.52096 0.73317 0.0
N665 N 0.40335 0.4817 0.84462 0.0
C666 C 0.41929 0.46814 0.86579 0.0
C667 C 0.40321 0.44318 0.87858 0.0
C668 C 0.37082 0.43312 0.87024 0.0
C669 C 0.35486 0.44785 0.84893 0.0
C670 C 0.37218 0.47222 0.83655 0.0
H671 H 0.44406 0.47638 0.87295 0.0
O672 O 0.46779 0.47642 0.7769 0.0
O673 O 0.43429 0.50151 0.79306 0.0
O674 O 0.4965 0.52873 0.83036 0.0
O675 O 0.45665 0.52901 0.85768 0.0
C676 C 0.32244 0.43937 0.83951 0.0
C677 C 0.30804 0.45489 0.81741 0.0
H678 H 0.28892 0.48846 0.77264 0.0
H679 H 0.32374 0.53047 0.75271 0.0
H680 H 0.41566 0.43204 0.89518 0.0
H681 H 0.35837 0.41416 0.88038 0.0
H682 H 0.30838 0.42075 0.84886 0.0
H683 H 0.28311 0.44805 0.8102 0.0
Mn684 Mn 0.7171 0.08435 0.74724 0.0
Mn685 Mn 0.78122 0.11184 0.80246 0.0
C686 C 0.73693 0.13634 0.76082 0.0
C687 C 0.68891 0.06904 0.69742 0.0
C688 C 0.71735 0.09285 0.81901 0.0
O689 O 0.73389 0.04618 0.74834 0.0
O690 O 0.77307 0.06688 0.78875 0.0
C691 C 0.82584 0.1002 0.75907 0.0
N692 N 0.81653 0.11962 0.78086 0.0
C693 C 0.86074 0.16058 0.77932 0.0
C694 C 0.87103 0.14085 0.75718 0.0
C695 C 0.85342 0.11057 0.74691 0.0
C696 C 0.83305 0.14895 0.79052 0.0
H697 H 0.81224 0.07706 0.75093 0.0
C698 C 0.75649 0.04425 0.76856 0.0
O699 O 0.67779 0.06042 0.72227 0.0
O700 O 0.71774 0.08408 0.70094 0.0
N701 N 0.79283 0.15494 0.8188 0.0
C702 C 0.77919 0.17132 0.83951 0.0
C703 C 0.79387 0.20201 0.85215 0.0
C704 C 0.82266 0.2154 0.8439 0.0
C705 C 0.83643 0.19803 0.82283 0.0
C706 C 0.82085 0.16742 0.81123 0.0
H707 H 0.75727 0.16108 0.84638 0.0
O708 O 0.70786 0.12551 0.74939 0.0
O709 O 0.75424 0.11661 0.76415 0.0
O710 O 0.70474 0.08084 0.7908 0.0
O711 O 0.74608 0.10591 0.82661 0.0
C712 C 0.86461 0.21007 0.8123 0.0
C713 C 0.87666 0.19143 0.7904 0.0
H714 H 0.89227 0.14879 0.74772 0.0
H715 H 0.86106 0.09528 0.72963 0.0
H716 H 0.78306 0.21524 0.8683 0.0
H717 H 0.83384 0.23907 0.85368 0.0
H718 H 0.8769 0.23377 0.82044 0.0
H719 H 0.89812 0.2011 0.78213 0.0
Mn720 Mn 0.77748 0.7232 0.04274 0.0
Mn721 Mn 0.76794 0.66378 0.98258 0.0
C722 C 0.72818 0.68895 0.02483 0.0
C723 C 0.78673 0.74142 0.10008 0.0
C724 C 0.78277 0.73111 0.97127 0.0
O725 O 0.82143 0.71545 0.04339 0.0
O726 O 0.81078 0.67279 1.00605 0.0
C727 C 0.77607 0.61152 0.01572 0.0
N728 N 0.75761 0.62481 0.99677 0.0
C729 C 0.71687 0.57862 0.98598 0.0
C730 C 0.73583 0.56425 1.00471 0.0
C731 C 0.76536 0.58084 0.01994 0.0
C732 C 0.72909 0.60903 0.98206 0.0
H733 H 0.79906 0.62399 0.02697 0.0
C734 C 0.82922 0.69242 0.02821 0.0
O735 O 0.79132 0.76001 0.07921 0.0
O736 O 0.77727 0.71268 0.08776 0.0
N737 N 0.7265 0.65323 0.9597 0.0
C738 C 0.71155 0.67042 0.94194 0.0
C739 C 0.68096 0.65776 0.9266 0.0
C740 C 0.66616 0.62755 0.92956 0.0
C741 C 0.68207 0.6103 0.94789 0.0
C742 C 0.71242 0.62422 0.96282 0.0
H743 H 0.72281 0.69365 0.93965 0.0
O744 O 0.73033 0.71699 0.0384 0.0
O745 O 0.75452 0.68305 0.02017 0.0
O746 O 0.78106 0.74343 0.99984 0.0
O747 O 0.77855 0.70201 0.96391 0.0
C748 C 0.66901 0.57987 0.95205 0.0
C749 C 0.68655 0.56391 0.97076 0.0
H750 H 0.72833 0.54036 1.0071 0.0
H751 H 0.78003 0.56982 0.03445 0.0
H752 H 0.66881 0.67126 0.91257 0.0
H753 H 0.64256 0.61788 0.91772 0.0
H754 H 0.64559 0.56845 0.94079 0.0
H755 H 0.6764 0.54043 0.97338 0.0
Mn756 Mn 0.92897 0.52969 0.81748 0.0
Mn757 Mn 0.87313 0.53367 0.86284 0.0
C758 C 0.90075 0.48532 0.83008 0.0
C759 C 0.94561 0.52539 0.76892 0.0
C760 C 0.94187 0.55116 0.88861 0.0
O761 O 0.92115 0.57183 0.81428 0.0
O762 O 0.88 0.57047 0.84053 0.0
C763 C 0.81846 0.52886 0.8139 0.0
N764 N 0.83286 0.51746 0.83816 0.0
C765 C 0.78805 0.47593 0.83554 0.0
C766 C 0.7727 0.48735 0.81068 0.0
C767 C 0.78801 0.51389 0.79977 0.0
C768 C 0.81831 0.49198 0.84887 0.0
H769 H 0.83006 0.54927 0.80541 0.0
C770 C 0.89904 0.58295 0.82311 0.0
O771 O 0.96501 0.53772 0.79473 0.0
O772 O 0.91634 0.51731 0.77127 0.0
N773 N 0.86406 0.49859 0.88432 0.0
C774 C 0.88231 0.49011 0.90803 0.0
C775 C 0.87069 0.46349 0.92091 0.0
C776 C 0.84045 0.44603 0.90938 0.0
C777 C 0.82209 0.45518 0.88509 0.0
C778 C 0.83486 0.48193 0.8732 0.0
H779 H 0.9056 0.50341 0.91695 0.0
O780 O 0.92803 0.48624 0.82211 0.0
O781 O 0.89086 0.51061 0.83064 0.0
O782 O 0.95091 0.54336 0.86254 0.0
O783 O 0.91351 0.55024 0.89129 0.0
C784 C 0.7917 0.43864 0.87205 0.0
C785 C 0.77466 0.44903 0.84732 0.0
H786 H 0.74928 0.47576 0.7996 0.0
H787 H 0.77637 0.52277 0.7805 0.0
H788 H 0.885 0.45641 0.93962 0.0
H789 H 0.83149 0.42564 0.91927 0.0
H790 H 0.78125 0.41786 0.8808 0.0
H791 H 0.75137 0.43605 0.83738 0.0
Mn792 Mn 0.85597 0.44647 0.5202 0.0
Mn793 Mn 0.85018 0.50231 0.4754 0.0
C794 C 0.89902 0.47284 0.50292 0.0
C795 C 0.86321 0.42819 0.56784 0.0
C796 C 0.82714 0.43454 0.45031 0.0
O797 O 0.81616 0.4574 0.52921 0.0
O798 O 0.81448 0.49584 0.49984 0.0
C799 C 0.85864 0.5562 0.52576 0.0
N800 N 0.8683 0.5419 0.50017 0.0
C801 C 0.91027 0.5858 0.50109 0.0
C802 C 0.90065 0.60108 0.5273 0.0
C803 C 0.87475 0.58618 0.53972 0.0
C804 C 0.8931 0.55611 0.48793 0.0
H805 H 0.83876 0.54487 0.53543 0.0
C806 C 0.804 0.47857 0.51975 0.0
O807 O 0.84779 0.41032 0.54226 0.0
O808 O 0.87384 0.4571 0.56597 0.0
N809 N 0.88409 0.51087 0.4518 0.0
C810 C 0.89153 0.49238 0.42765 0.0
C811 C 0.91743 0.50352 0.41319 0.0
C812 C 0.93562 0.53346 0.42393 0.0
C813 C 0.92777 0.55191 0.44911 0.0
C814 C 0.9015 0.53967 0.46237 0.0
H815 H 0.87826 0.4691 0.41995 0.0
O816 O 0.89801 0.44526 0.50967 0.0
O817 O 0.87447 0.48356 0.5056 0.0
O818 O 0.83581 0.42561 0.47615 0.0
O819 O 0.83142 0.46283 0.44683 0.0
C820 C 0.94534 0.58174 0.46198 0.0
C821 C 0.93653 0.5987 0.48787 0.0
H822 H 0.9132 0.62409 0.53831 0.0
H823 H 0.8673 0.59773 0.56007 0.0
H824 H 0.92359 0.48892 0.39411 0.0
H825 H 0.95583 0.54187 0.41303 0.0
H826 H 0.96579 0.59164 0.45228 0.0
H827 H 0.95022 0.62152 0.49774 0.0
Mn828 Mn 0.65025 0.59795 0.31033 0.0
Mn829 Mn 0.71142 0.61008 0.36942 0.0
C830 C 0.6836 0.64758 0.32684 0.0
C831 C 0.63109 0.5869 0.25332 0.0
C832 C 0.64421 0.59366 0.38193 0.0
O833 O 0.65869 0.5548 0.3115 0.0
O834 O 0.70334 0.56728 0.34686 0.0
C835 C 0.76355 0.60415 0.33462 0.0
N836 N 0.75005 0.62164 0.35429 0.0
C837 C 0.79584 0.66296 0.36493 0.0
C838 C 0.81071 0.64461 0.34621 0.0
C839 C 0.79439 0.61535 0.3305 0.0
C840 C 0.76541 0.65014 0.36896 0.0
H841 H 0.751 0.58175 0.32241 0.0
C842 C 0.68261 0.54799 0.3263 0.0
O843 O 0.61285 0.58253 0.27466 0.0
O844 O 0.66015 0.59696 0.26498 0.0
N845 N 0.72091 0.6514 0.39172 0.0
C846 C 0.70327 0.66565 0.40959 0.0
C847 C 0.71536 0.69614 0.42486 0.0
C848 C 0.74553 0.71153 0.42181 0.0
C849 C 0.76327 0.69634 0.40334 0.0
C850 C 0.74982 0.6661 0.38839 0.0
H851 H 0.68012 0.65388 0.41209 0.0
O852 O 0.65526 0.64456 0.31308 0.0
O853 O 0.69028 0.62189 0.33205 0.0
O854 O 0.631 0.59524 0.35367 0.0
O855 O 0.67361 0.59839 0.38881 0.0
C856 C 0.79369 0.71002 0.39902 0.0
C857 C 0.81012 0.69319 0.38015 0.0
H858 H 0.83477 0.65242 0.34416 0.0
H859 H 0.80566 0.60135 0.31557 0.0
H860 H 0.70149 0.70772 0.43901 0.0
H861 H 0.7548 0.73501 0.43368 0.0
H862 H 0.80473 0.73339 0.41026 0.0
H863 H 0.83361 0.70378 0.37731 0.0
C864 C 1.01752 0.96804 0.9872 0.0
C865 C 0.99946 0.93058 0.02124 0.0
C866 C 1.00914 0.96144 0.01631 0.0
C867 C 0.99826 0.90648 0.99658 0.0
C868 C 1.01591 0.94378 0.96224 0.0
C869 C 1.00647 0.91307 0.96719 0.0
N870 N 1.0269 0.99807 0.98319 0.0
C871 C 0.03303 1.00513 0.95402 0.0
C872 C 1.02351 0.95104 0.93288 0.0
C873 C 0.03183 0.98184 0.9287 0.0
Gd874 Gd 0.10221 0.08002 0.0756 0.0
Gd875 Gd 1.0267 0.03526 0.02745 0.0
N876 N 1.01132 0.98524 0.04013 0.0
C877 C 0.99143 0.92482 0.05092 0.0
C878 C 1.00222 0.97969 0.06862 0.0
C879 C 0.99262 0.9495 0.07462 0.0
H880 H 1.00186 0.99833 0.08672 0.0
H881 H 0.98584 0.9453 0.09744 0.0
H882 H 0.1254 0.11865 0.01697 0.0
H883 H 0.03766 0.02857 0.94949 0.0
H884 H 0.14192 0.17234 1.00797 0.0
H885 H 0.98398 0.90145 0.05565 0.0
H886 H 0.99097 0.88266 0.99997 0.0
H887 H 0.10323 0.08347 0.15524 0.0
H888 H 1.02241 0.93306 0.91311 0.0
H889 H 0.03684 0.98769 0.90576 0.0
H890 H 0.14496 0.23211 0.10977 0.0
H891 H 1.00538 0.8942 0.94843 0.0
H892 H 0.12288 0.17814 0.19713 0.0
H893 H 0.10977 0.12285 0.20242 0.0
N894 N 0.10903 0.11569 0.12269 0.0
C895 C 0.1178 0.14598 0.11957 0.0
C896 C 0.10704 0.10732 0.15218 0.0
C897 C 0.11908 0.16086 0.17611 0.0
C898 C 0.11156 0.12969 0.17917 0.0
C899 C 0.1228 0.16935 0.14615 0.0
H900 H 0.13569 0.21853 0.16216 0.0
N901 N 0.11874 0.13059 0.06483 0.0
C902 C 0.12329 0.15366 0.08994 0.0
C903 C 0.13945 0.19148 0.05604 0.0
C904 C 0.13337 0.18476 0.08607 0.0
C905 C 0.12659 0.13695 0.03607 0.0
C906 C 0.13641 0.16743 0.03104 0.0
O907 O 0.06193 1.00446 0.04079 0.0
O908 O 0.09065 0.02959 0.08802 0.0
O909 O 0.14267 0.06813 0.05874 0.0
O910 O 0.14633 0.09133 0.10702 0.0
O911 O 1.02297 0.05274 0.08015 0.0
O912 O 0.07099 0.05519 0.10719 0.0
O913 O 0.07069 0.11402 0.06033 0.0
O914 O 0.03401 0.0869 0.01858 0.0
O915 O 0.98059 0.03479 0.038 0.0
O916 O 0.98779 0.0258 0.98894 0.0
O917 O 0.10294 0.06168 0.02306 0.0
O918 O 0.05629 0.06366 0.99712 0.0
C919 C 0.07901 1.00314 0.06827 0.0
C920 C 0.04102 0.05214 0.10706 0.0
C921 C 0.17285 0.05168 0.099 0.0
C922 C 0.20323 1.01338 0.09023 0.0
C923 C 0.17794 1.01663 0.13725 0.0
C924 C 0.166 0.04083 0.12742 0.0
C925 C 0.19626 1.00274 0.11866 0.0
C926 C 0.1916 0.038 0.08067 0.0
C927 C 0.15925 0.07589 0.08705 0.0
C928 C 0.13738 0.20807 0.11227 0.0
C929 C 0.1321 0.20035 0.14218 0.0
H930 H 0.14716 0.21509 0.05211 0.0
C931 C 0.04913 0.11401 0.03567 0.0
C932 C 0.08593 0.06552 0.99704 0.0
C933 C 0.95493 0.05887 1.00069 0.0
C934 C 0.93129 0.10036 0.01939 0.0
C935 C 0.93879 0.09169 0.96398 0.0
C936 C 0.95172 0.06682 0.96985 0.0
C937 C 0.92832 0.10829 0.98853 0.0
C938 C 0.94547 0.07634 0.02532 0.0
C939 C 0.96932 0.03348 1.00809 0.0
H940 H 0.17308 1.00866 0.15937 0.0
H941 H 0.15132 0.05083 0.14194 0.0
H942 H 0.20531 0.98397 0.12668 0.0
H943 H 0.1975 0.04692 0.0592 0.0
H944 H 0.93614 0.09762 0.94016 0.0
H945 H 0.95925 0.05396 0.95037 0.0
H946 H 0.91657 0.12616 0.98295 0.0
H947 H 0.94806 0.07056 0.04926 0.0
C948 C 0.36735 0.78272 0.22793 0.0
C949 C 0.32552 0.76362 0.18384 0.0
C950 C 0.33708 0.78032 0.21473 0.0
C951 C 0.34575 0.75195 0.16559 0.0
C952 C 0.38707 0.76861 0.21083 0.0
C953 C 0.37652 0.75434 0.17914 0.0
N954 N 0.37644 0.79588 0.25879 0.0
C955 C 0.40431 0.79431 0.27464 0.0
C956 C 0.4161 0.7677 0.2267 0.0
C957 C 0.42437 0.77987 0.25898 0.0
Gd958 Gd 0.28209 0.81289 0.35058 0.0
Gd959 Gd 0.34316 0.8221 0.28322 0.0
N960 N 0.31802 0.79052 0.23382 0.0
C961 C 0.29362 0.7571 0.17315 0.0
C962 C 0.28655 0.78056 0.22475 0.0
C963 C 0.27397 0.76476 0.19413 0.0
H964 H 0.27062 0.78381 0.24096 0.0
H965 H 0.24904 0.75792 0.18701 0.0
H966 H 0.3525 0.84967 0.39699 0.0
H967 H 0.41125 0.80473 0.29921 0.0
H968 H 0.37036 0.87702 0.45137 0.0
H969 H 0.2838 0.7443 0.14967 0.0
H970 H 0.33737 0.73949 0.14168 0.0
H971 H 0.21138 0.82493 0.32894 0.0
H972 H 0.43175 0.75664 0.21462 0.0
H973 H 0.44621 0.77814 0.27172 0.0
H974 H 0.27842 0.89864 0.48661 0.0
H975 H 0.39149 0.74381 0.16547 0.0
H976 H 0.18616 0.87516 0.40937 0.0
H977 H 0.17326 0.84906 0.35338 0.0
N978 N 0.24586 0.83846 0.37001 0.0
C979 C 0.25367 0.85325 0.40055 0.0
C980 C 0.21761 0.83729 0.35291 0.0
C981 C 0.20311 0.865 0.39857 0.0
C982 C 0.19582 0.85048 0.3669 0.0
C983 C 0.23241 0.86678 0.41573 0.0
H984 H 0.22515 0.89256 0.45933 0.0
N985 N 0.3044 0.84594 0.39934 0.0
C986 C 0.28373 0.85669 0.4159 0.0
C987 C 0.32449 0.87969 0.46032 0.0
C988 C 0.29322 0.87377 0.44686 0.0
C989 C 0.33541 0.85459 0.41119 0.0
C990 C 0.34581 0.87087 0.442 0.0
O991 O 0.32773 0.77403 0.29137 0.0
O992 O 0.28394 0.78664 0.30261 0.0
O993 O 0.27853 0.77429 0.37673 0.0
O994 O 0.23715 0.78303 0.35101 0.0
O995 O 0.29721 0.83561 0.26678 0.0
O996 O 0.2602 0.82329 0.30128 0.0
O997 O 0.29981 0.86364 0.35368 0.0
O998 O 0.3232 0.83757 0.32389 0.0
O999 O 0.34961 0.86484 0.26418 0.0
O1000 O 0.38863 0.85365 0.2915 0.0
O1001 O 0.33019 0.80029 0.36554 0.0
O1002 O 0.36696 0.81319 0.33101 0.0
C1003 C 0.29986 0.7655 0.29834 0.0
C1004 C 0.26862 0.83316 0.27436 0.0
C1005 C 0.23198 0.76188 0.39862 0.0
C1006 C 0.22795 0.73714 0.44584 0.0
C1007 C 0.18775 0.76225 0.42646 0.0
C1008 C 0.2035 0.76993 0.40122 0.0
C1009 C 0.19977 0.74574 0.44862 0.0
C1010 C 0.24433 0.74631 0.42149 0.0
C1011 C 0.24826 0.7674 0.37129 0.0
C1012 C 0.2716 0.88573 0.46273 0.0
C1013 C 0.24129 0.88233 0.44717 0.0
H1014 H 0.33269 0.89271 0.48401 0.0
C1015 C 0.32088 0.86479 0.33582 0.0
C1016 C 0.35898 0.80323 0.35774 0.0
C1017 C 0.39704 0.87675 0.24538 0.0
C1018 C 0.3961 0.8896 0.19204 0.0
C1019 C 0.43654 0.8663 0.21389 0.0
C1020 C 0.42336 0.86488 0.24177 0.0
C1021 C 0.42272 0.87829 0.18881 0.0
C1022 C 0.38429 0.8902 0.22072 0.0
C1023 C 0.37968 0.87125 0.272 0.0
H1024 H 0.16589 0.76857 0.42849 0.0
H1025 H 0.19328 0.78189 0.38378 0.0
H1026 H 0.18685 0.73929 0.46756 0.0
H1027 H 0.26681 0.74114 0.42026 0.0
H1028 H 0.45667 0.85692 0.21122 0.0
H1029 H 0.43295 0.85333 0.25971 0.0
H1030 H 0.43224 0.87806 0.16667 0.0
H1031 H 0.36356 0.89885 0.22276 0.0
C1032 C 0.63267 0.10975 0.48635 0.0
C1033 C 0.67217 0.14942 0.5216 0.0
C1034 C 0.64764 0.1229 0.51693 0.0
C1035 C 0.68047 0.16336 0.49527 0.0
C1036 C 0.64149 0.12329 0.45979 0.0
C1037 C 0.66503 0.15045 0.46448 0.0
N1038 N 0.61069 0.08293 0.48243 0.0
C1039 C 0.59796 0.06755 0.45266 0.0
C1040 C 0.62704 0.10859 0.42922 0.0
C1041 C 0.60544 0.08042 0.42564 0.0
Gd1042 Gd 0.5222 0.06223 0.57032 0.0
Gd1043 Gd 0.59946 0.06414 0.52944 0.0
N1044 N 0.63892 0.10918 0.54203 0.0
C1045 C 0.68782 0.16096 0.5526 0.0
C1046 C 0.65527 0.11917 0.57192 0.0
C1047 C 0.67953 0.14555 0.57784 0.0
H1048 H 0.64974 0.10651 0.59094 0.0
H1049 H 0.69207 0.15371 0.60174 0.0
H1050 H 0.47647 0.03131 0.50069 0.0
H1051 H 0.58246 0.04507 0.44967 0.0
H1052 H 0.43371 0.98623 0.47972 0.0
H1053 H 0.70673 0.18133 0.55719 0.0
H1054 H 0.69901 0.18395 0.49843 0.0
H1055 H 0.54672 0.05495 0.64742 0.0
H1056 H 0.6331 0.1183 0.40822 0.0
H1057 H 0.59492 0.06837 0.40206 0.0
H1058 H 0.41804 0.93441 0.57015 0.0
H1059 H 0.67198 0.16125 0.44436 0.0
H1060 H 0.48679 0.97472 0.66822 0.0
H1061 H 0.53115 1.01967 0.68498 0.0
N1062 N 0.51291 0.02924 0.60838 0.0
C1063 C 0.48817 1.00472 0.59871 0.0
C1064 C 0.52812 0.03487 0.63903 0.0
C1065 C 0.49388 0.98982 0.65122 0.0
C1066 C 0.51903 1.0151 0.66073 0.0
C1067 C 0.47802 0.98442 0.61999 0.0
H1068 H 0.44429 0.94366 0.62563 0.0
N1069 N 0.48353 1.01897 0.54679 0.0
C1070 C 0.47303 0.99953 0.56721 0.0
C1071 C 0.4338 0.96895 0.52459 0.0
C1072 C 0.44782 0.97393 0.55653 0.0
C1073 C 0.46933 1.01483 0.51601 0.0
C1074 C 0.44463 0.98952 0.50429 0.0
O1075 O 0.59341 0.11447 0.5479 0.0
O1076 O 0.55257 0.11181 0.57762 0.0
O1077 O 0.48146 0.08057 0.55687 0.0
O1078 O 0.49793 0.07916 0.6071 0.0
O1079 O 0.58514 0.05044 0.57409 0.0
O1080 O 0.56547 0.08024 0.60611 0.0
O1081 O 0.53324 1.01326 0.55397 0.0
O1082 O 0.56288 1.01837 0.51309 0.0
O1083 O 0.62919 0.04133 0.557 0.0
O1084 O 0.63078 0.04042 0.50655 0.0
O1085 O 0.52659 0.07993 0.52334 0.0
O1086 O 0.55477 0.05197 0.49547 0.0
C1087 C 0.57607 0.12823 0.56606 0.0
C1088 C 0.58934 0.06982 0.59992 0.0
C1089 C 0.45282 0.10063 0.59682 0.0
C1090 C 0.41673 0.13433 0.58971 0.0
C1091 C 0.41939 0.10826 0.63634 0.0
C1092 C 0.44233 0.09473 0.62558 0.0
C1093 C 0.40664 0.12784 0.61861 0.0
C1094 C 0.44005 0.12058 0.57895 0.0
C1095 C 0.47801 0.08696 0.58664 0.0
C1096 C 0.43747 0.95409 0.57791 0.0
C1097 C 0.45245 0.95935 0.60953 0.0
H1098 H 0.41448 0.94946 0.51544 0.0
C1099 C 0.54646 1.0005 0.53071 0.0
C1100 C 0.53191 0.066 0.49648 0.0
C1101 C 0.67503 0.033 0.53914 0.0
C1102 C 0.71664 1.00639 0.55023 0.0
C1103 C 0.72856 0.062 0.55162 0.0
C1104 C 0.69705 0.06112 0.54358 0.0
C1105 C 0.73832 0.03487 0.55512 0.0
C1106 C 0.68492 1.00557 0.54212 0.0
C1107 C 0.64162 0.03178 0.53283 0.0
H1108 H 0.41132 0.10341 0.65846 0.0
H1109 H 0.45186 0.07956 0.63978 0.0
H1110 H 0.38837 0.13746 0.62727 0.0
H1111 H 0.44869 0.12579 0.55715 0.0
H1112 H 0.74549 0.08377 0.55508 0.0
H1113 H 0.68995 0.08233 0.54094 0.0
H1114 H 0.76291 0.036 0.56101 0.0
H1115 H 0.66801 0.98371 0.53841 0.0
C1116 C 0.24801 0.33873 0.7314 0.0
C1117 C 0.21779 0.2909 0.69956 0.0
C1118 C 0.23676 0.30705 0.72803 0.0
C1119 C 0.21089 0.30693 0.67441 0.0
C1120 C 0.24061 0.355 0.7064 0.0
C1121 C 0.22223 0.33889 0.67784 0.0
N1122 N 0.26623 0.35364 0.75906 0.0
C1123 C 0.27684 0.38486 0.76369 0.0
C1124 C 0.25202 0.38699 0.71081 0.0
C1125 C 0.27005 0.40201 0.7397 0.0
Gd1126 Gd 0.35184 0.28493 0.80277 0.0
Gd1127 Gd 0.27905 0.32274 0.79682 0.0
N1128 N 0.24452 0.29203 0.75254 0.0
C1129 C 0.20608 0.25914 0.6973 0.0
C1130 C 0.23142 0.26148 0.75111 0.0
C1131 C 0.21253 0.24448 0.72341 0.0
H1132 H 0.23481 0.25014 0.77128 0.0
H1133 H 0.2027 0.2201 0.72235 0.0
H1134 H 0.39539 0.34058 0.85971 0.0
H1135 H 0.2906 0.39648 0.78598 0.0
H1136 H 0.43222 0.34573 0.90914 0.0
H1137 H 0.19144 0.2459 0.67586 0.0
H1138 H 0.19656 0.29485 0.65231 0.0
H1139 H 0.33791 0.21231 0.76872 0.0
H1140 H 0.24689 0.40029 0.69218 0.0
H1141 H 0.27879 0.42676 0.74347 0.0
H1142 H 0.44076 0.24198 0.91619 0.0
H1143 H 0.21654 0.35097 0.6583 0.0
H1144 H 0.39004 0.1643 0.82744 0.0
H1145 H 0.35452 0.16451 0.7782 0.0
N1146 N 0.36294 0.23807 0.81251 0.0
C1147 C 0.38248 0.2385 0.83961 0.0
C1148 C 0.35278 0.21201 0.79059 0.0
C1149 C 0.38249 0.18512 0.82357 0.0
C1150 C 0.36243 0.18514 0.79573 0.0
C1151 C 0.39259 0.21192 0.84607 0.0
H1152 H 0.42073 0.19289 0.87982 0.0
N1153 N 0.38637 0.29186 0.85086 0.0
C1154 C 0.39424 0.26622 0.85966 0.0
C1155 C 0.42889 0.29685 0.90575 0.0
C1156 C 0.41575 0.26797 0.88733 0.0
C1157 C 0.40078 0.32024 0.86754 0.0
C1158 C 0.42162 0.32317 0.89558 0.0
O1159 O 0.29871 0.30933 0.75112 0.0
O1160 O 0.31442 0.26553 0.75947 0.0
O1161 O 0.37174 0.30699 0.76497 0.0
O1162 O 0.39257 0.27329 0.78612 0.0
O1163 O 0.27821 0.28052 0.8217 0.0
O1164 O 0.30543 0.25017 0.79582 0.0
O1165 O 0.33818 0.30186 0.85131 0.0
O1166 O 0.31312 0.34095 0.8426 0.0
O1167 O 0.23722 0.30815 0.81804 0.0
O1168 O 0.25466 0.35634 0.81564 0.0
O1169 O 0.36465 0.33671 0.80536 0.0
O1170 O 0.32307 0.36015 0.79789 0.0
C1171 C 0.30478 0.28299 0.73965 0.0
C1172 C 0.28231 0.2531 0.81154 0.0
C1173 C 0.39768 0.27739 0.73246 0.0
C1174 C 0.42968 0.27569 0.68975 0.0
C1175 C 0.38046 0.2382 0.68565 0.0
C1176 C 0.37588 0.25159 0.71537 0.0
C1177 C 0.40709 0.25006 0.67294 0.0
C1178 C 0.42455 0.28947 0.71958 0.0
C1179 C 0.39309 0.29109 0.76418 0.0
C1180 C 0.42443 0.24114 0.89494 0.0
C1181 C 0.41304 0.2132 0.87422 0.0
H1182 H 0.44541 0.29918 0.92723 0.0
C1183 C 0.32672 0.32546 0.862 0.0
C1184 C 0.35313 0.36071 0.8005 0.0
C1185 C 0.23074 0.34423 0.86109 0.0
C1186 C 0.19821 0.33852 0.90401 0.0
C1187 C 0.24699 0.37755 0.91227 0.0
C1188 C 0.25238 0.36809 0.88158 0.0
C1189 C 0.21999 0.3635 0.92313 0.0
C1190 C 0.20415 0.32897 0.87277 0.0
C1191 C 0.23508 0.33626 0.82723 0.0
H1192 H 0.36346 0.21829 0.67257 0.0
H1193 H 0.35547 0.24168 0.72516 0.0
H1194 H 0.4103 0.23876 0.65013 0.0
H1195 H 0.44131 0.30952 0.73277 0.0
H1196 H 0.26352 0.39651 0.9275 0.0
H1197 H 0.27326 0.37993 0.87374 0.0
H1198 H 0.21595 0.3732 0.9462 0.0
H1199 H 0.18791 0.31008 0.85715 0.0
C1200 C 0.04044 0.12814 0.62433 0.0
C1201 C 0.08781 0.16411 0.65111 0.0
C1202 C 0.07131 0.14221 0.62483 0.0
C1203 C 0.07317 0.1705 0.67759 0.0
C1204 C 1.02504 0.13615 0.64993 0.0
C1205 C 0.0418 0.1566 0.67696 0.0
N1206 N 1.02483 0.10865 0.59773 0.0
C1207 C 0.99329 0.09925 0.59382 0.0
C1208 C 0.99294 0.12461 0.6469 0.0
C1209 C 0.97689 0.10679 0.61834 0.0
Gd1210 Gd 0.08808 0.02129 0.55257 0.0
Gd1211 Gd 0.05428 0.09728 0.55757 0.0
N1212 N 0.08481 0.13551 0.59883 0.0
C1213 C 0.11816 0.17974 0.64948 0.0
C1214 C 0.11332 0.15268 0.596 0.0
C1215 C 0.13072 0.17445 0.62152 0.0
H1216 H 0.12277 0.14921 0.57426 0.0
H1217 H 0.1537 0.18726 0.61952 0.0
H1218 H 1.02729 0.9798 0.49751 0.0
H1219 H 0.98085 0.08595 0.57162 0.0
H1220 H 1.01873 0.94232 0.44864 0.0
H1221 H 0.13162 0.19673 0.66916 0.0
H1222 H 0.08557 0.18697 0.69817 0.0
H1223 H 0.16406 0.0385 0.57802 0.0
H1224 H 0.98019 0.13044 0.66587 0.0
H1225 H 0.95187 0.09895 0.61513 0.0
H1226 H 0.1208 0.93128 0.43378 0.0
H1227 H 0.03045 0.16266 0.69702 0.0
H1228 H 0.20609 0.98557 0.5136 0.0
H1229 H 0.21063 0.02271 0.56273 0.0
N1230 N 0.13407 1.01234 0.53692 0.0
C1231 C 0.13085 0.99123 0.51035 0.0
C1232 C 0.16219 0.02352 0.55574 0.0
C1233 C 0.18574 0.993 0.51985 0.0
C1234 C 0.18843 1.01408 0.5475 0.0
C1235 C 0.1568 0.98151 0.50071 0.0
H1236 H 0.17275 0.95271 0.4649 0.0
N1237 N 0.07645 0.9859 0.50489 0.0
C1238 C 0.10132 0.97806 0.49359 0.0
C1239 C 0.06733 0.94353 0.44936 0.0
C1240 C 0.09737 0.95636 0.46569 0.0
C1241 C 0.04701 0.97302 0.48925 0.0
C1242 C 0.04205 0.95197 0.46118 0.0
O1243 O 0.09055 0.09251 0.59807 0.0
O1244 O 0.07215 0.04213 0.59719 0.0
O1245 O 0.07883 0.97409 0.56326 0.0
O1246 O 0.11106 1.01113 0.59635 0.0
O1247 O 0.09428 0.09443 0.5305 0.0
O1248 O 0.12406 0.06745 0.55763 0.0
O1249 O 0.07379 0.03598 0.5039 0.0
O1250 O 0.03441 0.05983 0.51445 0.0
O1251 O 0.06725 0.13433 0.52986 0.0
O1252 O 1.02112 0.12367 0.54185 0.0
O1253 O 0.03642 1.00931 0.55005 0.0
O1254 O 1.01772 0.05328 0.5634 0.0
C1255 C 0.08656 0.06897 0.61349 0.0
C1256 C 0.12168 0.0908 0.54204 0.0
C1257 C 0.11253 0.95982 0.6044 0.0
C1258 C 0.11439 0.92267 0.6416 0.0
C1259 C 0.15847 0.93958 0.61461 0.0
C1260 C 0.14251 0.95834 0.59878 0.0
C1261 C 0.14466 0.92206 0.63611 0.0
C1262 C 0.09835 0.94157 0.62555 0.0
C1263 C 0.09658 0.98207 0.59098 0.0
C1264 C 0.12339 0.94785 0.45518 0.0
C1265 C 0.15299 0.96013 0.47284 0.0
H1266 H 0.06339 0.92703 0.4277 0.0
C1267 C 0.04939 0.04672 0.49382 0.0
C1268 C 1.01448 0.02267 0.55838 0.0
C1269 C 1.02777 0.14665 0.49489 0.0
C1270 C 0.03038 0.18068 0.45397 0.0
C1271 C 0.989 0.13415 0.44727 0.0
C1272 C 1.00061 0.12754 0.47681 0.0
C1273 C 1.00362 0.16052 0.43595 0.0
C1274 C 0.04272 0.17303 0.4832 0.0
C1275 C 0.04004 0.14055 0.52668 0.0
H1276 H 0.18171 0.93874 0.61032 0.0
H1277 H 0.15375 0.97187 0.58256 0.0
H1278 H 0.15742 0.90764 0.64811 0.0
H1279 H 0.07517 0.94259 0.63008 0.0
H1280 H 0.96812 0.11916 0.43341 0.0
H1281 H 0.98813 0.10775 0.48569 0.0
H1282 H 0.99335 0.16562 0.41351 0.0
H1283 H 0.06373 0.18778 0.49714 0.0
C1284 C 0.28458 0.75169 0.87456 0.0
C1285 C 0.23907 0.71276 0.84767 0.0
C1286 C 0.26572 0.73577 0.84641 0.0
C1287 C 0.23066 0.70714 0.87736 0.0
C1288 C 0.27672 0.74524 0.90437 0.0
C1289 C 0.24936 0.72338 0.90561 0.0
N1290 N 0.31123 0.7724 0.87284 0.0
C1291 C 0.33181 0.78625 0.89956 0.0
C1292 C 0.297 0.76042 0.93208 0.0
C1293 C 0.3248 0.78076 0.92965 0.0
Gd1294 Gd 0.32137 0.86127 0.78048 0.0
Gd1295 Gd 0.31926 0.7803 0.82143 0.0
N1296 N 0.27422 0.74159 0.81789 0.0
C1297 C 0.22201 0.69556 0.81902 0.0
C1298 C 0.25858 0.72391 0.78998 0.0
C1299 C 0.23199 0.70098 0.79008 0.0
H1300 H 0.26642 0.72795 0.76766 0.0
H1301 H 0.21927 0.68745 0.76788 0.0
H1302 H 0.37864 0.91497 0.82439 0.0
H1303 H 0.35322 0.80204 0.89751 0.0
H1304 H 0.42439 0.95404 0.81674 0.0
H1305 H 0.20141 0.67771 0.81903 0.0
H1306 H 0.21005 0.68983 0.87876 0.0
H1307 H 0.2772 0.84137 0.70651 0.0
H1308 H 0.29171 0.75615 0.95543 0.0
H1309 H 0.34078 0.79223 0.95094 0.0
H1310 H 0.42451 0.93852 0.70365 0.0
H1311 H 0.24283 0.71833 0.92832 0.0
H1312 H 0.33441 0.87275 0.63846 0.0
H1313 H 0.28428 0.84484 0.6508 0.0
N1314 N 0.32399 0.86455 0.72583 0.0
C1315 C 0.35085 0.88199 0.71965 0.0
C1316 C 0.29954 0.85305 0.70158 0.0
C1317 C 0.3317 0.87077 0.66302 0.0
C1318 C 0.30335 0.85507 0.66989 0.0
C1319 C 0.35549 0.88542 0.68805 0.0
H1320 H 0.38698 0.90737 0.65843 0.0
N1321 N 0.36629 0.89688 0.77515 0.0
C1322 C 0.3724 0.89909 0.74509 0.0
C1323 C 0.41726 0.94063 0.76573 0.0
C1324 C 0.39851 0.92062 0.73962 0.0
C1325 C 0.38424 0.91655 0.8007 0.0
C1326 C 0.41005 0.93862 0.79642 0.0
O1327 O 0.26917 0.7859 0.80004 0.0
O1328 O 0.27115 0.82973 0.77453 0.0
O1329 O 0.2908 0.88167 0.80797 0.0
O1330 O 0.31221 0.90585 0.77322 0.0
O1331 O 0.33357 0.80219 0.78132 0.0
O1332 O 0.30506 0.81809 0.74533 0.0
O1333 O 0.37215 0.85359 0.80101 0.0
O1334 O 0.36964 0.81284 0.83181 0.0
O1335 O 0.32652 0.74122 0.79094 0.0
O1336 O 0.35217 0.75451 0.83906 0.0
O1337 O 0.33636 0.85485 0.83025 0.0
O1338 O 0.31006 0.81866 0.8545 0.0
C1339 C 0.25496 0.80464 0.78426 0.0
C1340 C 0.31617 0.79582 0.75401 0.0
C1341 C 0.26092 0.90858 0.77822 0.0
C1342 C 0.21873 0.93557 0.77857 0.0
C1343 C 0.21415 0.8903 0.73915 0.0
C1344 C 0.24365 0.88774 0.75182 0.0
C1345 C 0.20166 0.91393 0.75246 0.0
C1346 C 0.24859 0.93271 0.79132 0.0
C1347 C 0.29149 0.90463 0.79215 0.0
C1348 C 0.40423 0.92255 0.70827 0.0
C1349 C 0.38287 0.90479 0.68252 0.0
H1350 H 0.43723 0.95783 0.76245 0.0
C1351 C 0.38628 0.83613 0.81943 0.0
C1352 C 0.31764 0.84752 0.8507 0.0
C1353 C 0.34662 0.70302 0.81418 0.0
C1354 C 0.37281 0.66063 0.81005 0.0
C1355 C 0.31963 0.65188 0.82085 0.0
C1356 C 0.31997 0.68293 0.82012 0.0
C1357 C 0.34588 0.64074 0.81583 0.0
C1358 C 0.3731 0.69181 0.80922 0.0
C1359 C 0.34725 0.73552 0.81225 0.0
H1360 H 0.20088 0.87387 0.71897 0.0
H1361 H 0.25302 0.86945 0.74106 0.0
H1362 H 0.17856 0.91519 0.74238 0.0
H1363 H 0.26252 0.94944 0.81094 0.0
H1364 H 0.29901 0.63642 0.82541 0.0
H1365 H 0.29948 0.69113 0.82412 0.0
H1366 H 0.34532 0.61664 0.81675 0.0
H1367 H 0.39385 0.70728 0.80483 0.0
C1368 C 0.61167 1.01589 0.11574 0.0
C1369 C 0.64078 0.05689 0.15733 0.0
C1370 C 0.61615 0.04554 0.13165 0.0
C1371 C 0.66035 0.03786 0.16678 0.0
C1372 C 0.63095 0.99647 0.12547 0.0
C1373 C 0.65541 1.00769 0.15092 0.0
N1374 N 0.58836 1.00591 0.09077 0.0
C1375 C 0.58159 0.97614 0.07593 0.0
C1376 C 0.62493 0.96626 0.10941 0.0
C1377 C 0.59986 0.95593 0.08476 0.0
Gd1378 Gd 0.56645 0.09974 1.00574 0.0
Gd1379 Gd 0.55956 0.04107 0.07526 0.0
N1380 N 0.59708 0.06352 0.12146 0.0
C1381 C 0.6454 0.08721 0.17245 0.0
C1382 C 0.60193 0.09332 0.13627 0.0
C1383 C 0.62589 0.10547 0.16184 0.0
H1384 H 0.58825 0.10858 0.12852 0.0
H1385 H 0.62948 0.12914 0.17313 0.0
H1386 H 0.53373 0.0318 0.95417 0.0
H1387 H 0.56182 0.9678 0.05755 0.0
H1388 H 0.5074 1.01676 0.89934 0.0
H1389 H 0.66411 0.09682 0.19211 0.0
H1390 H 0.67941 0.04629 0.18632 0.0
H1391 H 0.56191 0.1731 0.02669 0.0
H1392 H 0.63914 0.95062 0.11619 0.0
H1393 H 0.5945 0.9324 0.07263 0.0
H1394 H 0.48496 0.10961 0.86902 0.0
H1395 H 0.67058 0.9932 0.15857 0.0
H1396 H 0.51964 0.20227 0.94403 0.0
H1397 H 0.54964 0.21475 0.99793 0.0
N1398 N 0.54343 0.13795 0.98686 0.0
C1399 C 0.52842 0.13085 0.95628 0.0
C1400 C 0.54902 0.16733 1.00281 0.0
C1401 C 0.52564 0.18393 0.95596 0.0
C1402 C 0.54179 0.19093 0.98691 0.0
C1403 C 0.51842 0.15357 0.94035 0.0
H1404 H 0.49491 0.16287 0.89642 0.0
N1405 N 0.53386 0.07957 0.95618 0.0
C1406 C 0.52351 0.10091 0.9405 0.0
C1407 C 0.50238 0.06245 0.89378 0.0
C1408 C 0.50757 0.0929 0.90887 0.0
C1409 C 0.52761 0.04948 0.94177 0.0
C1410 C 0.51208 0.04058 0.91048 0.0
O1411 O 0.60724 0.0581 0.06487 0.0
O1412 O 0.59379 0.10157 0.05428 0.0
O1413 O 0.60567 0.0982 0.98063 0.0
O1414 O 0.59761 0.14195 1.00027 0.0
O1415 O 0.54448 0.08676 0.09071 0.0
O1416 O 0.55772 0.12305 0.05567 0.0
O1417 O 0.51548 0.07805 1.00038 0.0
O1418 O 0.54186 0.06273 0.03731 0.0
O1419 O 0.5282 0.02825 0.10861 0.0
O1420 O 0.52202 1.00011 0.06128 0.0
O1421 O 0.57846 0.05162 0.99236 0.0
O1422 O 0.56412 1.01555 0.02667 0.0
C1423 C 0.61545 0.08638 0.05923 0.0
C1424 C 0.54798 0.11539 0.08307 0.0
C1425 C 0.61773 0.14004 0.95192 0.0
C1426 C 0.6404 0.13717 0.90328 0.0
C1427 C 0.6158 0.17906 0.9175 0.0
C1428 C 0.60933 0.16738 0.94535 0.0
C1429 C 0.63152 0.16418 0.89658 0.0
C1430 C 0.6325 0.12474 0.93032 0.0
C1431 C 0.613 0.12808 0.98185 0.0
C1432 C 0.49718 0.11538 0.89328 0.0
C1433 C 0.50271 0.14566 0.90892 0.0
H1434 H 0.49026 0.05545 0.86955 0.0
C1435 C 0.51455 0.06014 0.02148 0.0
C1436 C 0.57376 0.02286 0.99964 0.0
C1437 C 0.48543 0.98307 0.09647 0.0
C1438 C 0.45129 0.96996 0.13494 0.0
C1439 C 0.4483 0.93363 0.08726 0.0
C1440 C 0.47179 0.95456 0.07722 0.0
C1441 C 0.43852 0.94101 0.11648 0.0
C1442 C 0.47445 0.99088 0.12476 0.0
C1443 C 0.51235 1.00405 0.08865 0.0
H1444 H 0.60926 0.20006 0.91252 0.0
H1445 H 0.59811 0.17994 0.96174 0.0
H1446 H 0.63739 0.1741 0.87564 0.0
H1447 H 0.63839 0.10328 0.93472 0.0
H1448 H 0.43817 0.91142 0.07276 0.0
H1449 H 0.4798 0.94817 0.05499 0.0
H1450 H 0.42134 0.92419 0.12463 0.0
H1451 H 0.48464 1.01295 0.13967 0.0
C1452 C 0.40513 0.35096 0.36 0.0
C1453 C 0.44164 0.36841 0.3245 0.0
C1454 C 0.41091 0.36058 0.33103 0.0
C1455 C 0.46642 0.36684 0.34739 0.0
C1456 C 0.43016 0.34957 0.38305 0.0
C1457 C 0.4607 0.35746 0.37654 0.0
N1458 N 0.37517 0.34271 0.36547 0.0
C1459 C 0.36919 0.33518 0.39451 0.0
C1460 C 0.42383 0.34043 0.41213 0.0
C1461 C 0.39326 0.3335 0.41796 0.0
Gd1462 Gd 0.2879 0.27371 0.27684 0.0
Gd1463 Gd 0.33701 0.34867 0.3246 0.0
N1464 N 0.38637 0.36091 0.3087 0.0
C1465 C 0.44659 0.37728 0.29495 0.0
C1466 C 0.39129 0.37073 0.28038 0.0
C1467 C 0.42131 0.37861 0.2729 0.0
H1468 H 0.37234 0.37322 0.26365 0.0
H1469 H 0.42496 0.38605 0.25024 0.0
H1470 H 0.25569 0.23813 0.33249 0.0
H1471 H 0.34615 0.33173 0.40053 0.0
H1472 H 0.20353 0.21581 0.34416 0.0
H1473 H 0.46983 0.38338 0.28904 0.0
H1474 H 0.49013 0.37275 0.34272 0.0
H1475 H 0.27633 0.28582 0.19901 0.0
H1476 H 0.44243 0.33923 0.43046 0.0
H1477 H 0.38822 0.32738 0.44079 0.0
H1478 H 0.13444 0.23124 0.25543 0.0
H1479 H 0.48012 0.35633 0.39391 0.0
H1480 H 0.17919 0.27416 0.17005 0.0
H1481 H 0.23312 0.28854 0.15916 0.0
N1482 N 0.24821 0.27374 0.23444 0.0
C1483 C 0.21855 0.26326 0.23972 0.0
C1484 C 0.2534 0.28128 0.20523 0.0
C1485 C 0.19828 0.27373 0.18817 0.0
C1486 C 0.22869 0.28202 0.18201 0.0
C1487 C 0.19285 0.26347 0.21699 0.0
H1488 H 0.1426 0.25412 0.20698 0.0
N1489 N 0.23894 0.25238 0.28951 0.0
C1490 C 0.21382 0.25124 0.26755 0.0
C1491 C 0.17985 0.22606 0.30118 0.0
C1492 C 0.18351 0.23866 0.27313 0.0
C1493 C 0.2356 0.23908 0.31627 0.0
C1494 C 0.20606 0.226 0.32268 0.0
O1495 O 0.36491 0.3107 0.31003 0.0
O1496 O 0.33767 0.2846 0.26283 0.0
O1497 O 0.30007 0.23198 0.28922 0.0
O1498 O 0.27555 0.23196 0.24217 0.0
O1499 O 0.31853 0.35414 0.27301 0.0
O1500 O 0.31216 0.30581 0.24518 0.0
O1501 O 0.25511 0.3027 0.29937 0.0
O1502 O 0.28431 0.34904 0.3273 0.0
O1503 O 0.34764 0.39698 0.31985 0.0
O1504 O 0.34733 0.38366 0.36668 0.0
O1505 O 0.30779 0.27343 0.32908 0.0
O1506 O 0.3071 0.32023 0.35494 0.0
C1507 C 0.36487 0.29419 0.28187 0.0
C1508 C 0.31676 0.33587 0.24571 0.0
C1509 C 0.3136 0.20247 0.24622 0.0
C1510 C 0.34967 0.16898 0.25084 0.0
C1511 C 0.34444 0.19441 0.20423 0.0
C1512 C 0.32226 0.20819 0.21657 0.0
C1513 C 0.35826 0.17502 0.22131 0.0
C1514 C 0.32747 0.18289 0.26323 0.0
C1515 C 0.29082 0.21715 0.26028 0.0
C1516 C 0.15792 0.23998 0.25115 0.0
C1517 C 0.16259 0.25286 0.22344 0.0
H1518 H 0.15696 0.21624 0.30637 0.0
C1519 C 0.25644 0.32985 0.31692 0.0
C1520 C 0.30346 0.29047 0.35479 0.0
C1521 C 0.33066 0.42871 0.3589 0.0
C1522 C 0.29649 0.46159 0.34339 0.0
C1523 C 0.31564 0.46304 0.39937 0.0
C1524 C 0.33215 0.44088 0.39106 0.0
C1525 C 0.29807 0.4736 0.37565 0.0
C1526 C 0.31229 0.43877 0.33524 0.0
C1527 C 0.34886 0.40617 0.35018 0.0
H1528 H 0.35086 0.19863 0.1813 0.0
H1529 H 0.31206 0.22336 0.20297 0.0
H1530 H 0.37541 0.16451 0.21136 0.0
H1531 H 0.32055 0.17802 0.28588 0.0
H1532 H 0.31692 0.47244 0.42418 0.0
H1533 H 0.34621 0.43339 0.4097 0.0
H1534 H 0.28628 0.49158 0.38241 0.0
H1535 H 0.31069 0.42941 0.31032 0.0
C1536 C 0.53138 0.62627 0.11977 0.0
C1537 C 0.57895 0.66013 0.14886 0.0
C1538 C 0.56291 0.63888 0.12183 0.0
C1539 C 0.56308 0.66778 0.17397 0.0
C1540 C 0.51521 0.63439 0.14469 0.0
C1541 C 0.53129 0.65497 0.17188 0.0
N1542 N 0.51643 0.60626 0.09332 0.0
C1543 C 0.4853 0.59405 0.09002 0.0
C1544 C 0.48332 0.62157 0.14156 0.0
C1545 C 0.46826 0.60142 0.11398 0.0
Gd1546 Gd 0.58865 0.52384 0.0494 0.0
Gd1547 Gd 0.54717 0.593 0.05542 0.0
N1548 N 0.57777 0.63071 0.09728 0.0
C1549 C 0.61039 0.67351 0.14965 0.0
C1550 C 0.60785 0.64541 0.09715 0.0
C1551 C 0.62474 0.66649 0.12342 0.0
H1552 H 0.61896 0.64185 0.07678 0.0
H1553 H 0.64874 0.67762 0.12323 0.0
H1554 H 0.52506 0.48372 0.99759 0.0
H1555 H 0.47363 0.57882 0.06868 0.0
H1556 H 0.5132 0.44662 0.94788 0.0
H1557 H 0.62352 0.68994 0.16993 0.0
H1558 H 0.57511 0.68388 0.19496 0.0
H1559 H 0.66453 0.53701 0.0722 0.0
H1560 H 0.47011 0.62721 0.16018 0.0
H1561 H 0.44356 0.59154 0.11114 0.0
H1562 H 0.61289 0.43368 0.92568 0.0
H1563 H 0.5193 0.66129 0.19134 0.0
H1564 H 0.70177 0.48302 1.00367 0.0
H1565 H 0.70918 0.51864 0.05449 0.0
N1566 N 0.63268 0.51185 0.03191 0.0
C1567 C 0.6279 0.49205 1.00411 0.0
C1568 C 0.6614 0.52184 0.04977 0.0
C1569 C 0.68221 0.4911 1.01126 0.0
C1570 C 0.68651 0.51126 0.03995 0.0
C1571 C 0.65271 0.48143 0.99281 0.0
H1572 H 0.66601 0.45271 0.95486 0.0
N1573 N 0.57405 0.48963 1.00089 0.0
C1574 C 0.59777 0.48074 0.98807 0.0
C1575 C 0.56121 0.44727 0.94499 0.0
C1576 C 0.59197 0.45929 0.95976 0.0
C1577 C 0.5439 0.47688 0.98731 0.0
C1578 C 0.53708 0.45599 0.95894 0.0
O1579 O 0.5634 0.57607 0.10167 0.0
O1580 O 0.60782 0.56123 0.09256 0.0
O1581 O 0.57098 0.50194 0.08857 0.0
O1582 O 0.60564 0.48531 0.06415 0.0
O1583 O 0.59216 0.59915 0.03386 0.0
O1584 O 0.62367 0.56979 0.05505 0.0
O1585 O 0.57207 0.53855 1.00134 0.0
O1586 O 0.52941 0.55548 0.01288 0.0
O1587 O 0.55581 0.62373 0.02051 0.0
O1588 O 0.51344 0.61934 0.04071 0.0
O1589 O 0.53789 0.50976 0.0542 0.0
O1590 O 0.51071 0.54842 0.05437 0.0
C1591 C 0.59021 0.57035 0.11266 0.0
C1592 C 0.61979 0.59322 0.04035 0.0
C1593 C 0.60294 0.47397 0.11662 0.0
C1594 C 0.60022 0.4356 0.15323 0.0
C1595 C 0.64872 0.47313 0.15307 0.0
C1596 C 0.63445 0.48579 0.1287 0.0
C1597 C 0.63206 0.44787 0.16473 0.0
C1598 C 0.58565 0.4503 0.13026 0.0
C1599 C 0.5887 0.48225 0.08683 0.0
C1600 C 0.61688 0.44995 0.94752 0.0
C1601 C 0.64715 0.46083 0.96411 0.0
H1602 H 0.55583 0.4309 0.92311 0.0
C1603 C 0.5464 0.54733 0.99175 0.0
C1604 C 0.51245 0.51964 0.05665 0.0
C1605 C 0.53499 0.66761 0.02503 0.0
C1606 C 0.5479 0.715 1.00155 0.0
C1607 C 0.53922 0.71728 0.05688 0.0
C1608 C 0.53373 0.68526 0.05408 0.0
C1609 C 0.54638 0.73207 0.03094 0.0
C1610 C 0.54189 0.68259 0.99865 0.0
C1611 C 0.53077 0.63382 0.02236 0.0
H1612 H 0.67318 0.48206 0.16202 0.0
H1613 H 0.64819 0.50409 0.11864 0.0
H1614 H 0.64456 0.43744 0.18202 0.0
H1615 H 0.56098 0.44285 0.12184 0.0
H1616 H 0.53822 0.73075 0.07936 0.0
H1617 H 0.52878 0.67436 0.0747 0.0
H1618 H 0.55079 0.75699 0.03384 0.0
H1619 H 0.54341 0.66915 0.97628 0.0
C1620 C 0.77823 0.23805 0.36384 0.0
C1621 C 0.73059 0.20764 0.33092 0.0
C1622 C 0.75977 0.2284 0.33398 0.0
C1623 C 0.7195 0.19805 0.35826 0.0
C1624 C 0.76778 0.22697 0.39103 0.0
C1625 C 0.73803 0.20766 0.38821 0.0
N1626 N 0.80713 0.25643 0.36599 0.0
C1627 C 0.82774 0.26209 0.39367 0.0
C1628 C 0.78799 0.23469 0.42008 0.0
C1629 C 0.81826 0.25187 0.42127 0.0
Gd1630 Gd 0.82015 0.35986 0.28389 0.0
Gd1631 Gd 0.81911 0.27339 0.31838 0.0
N1632 N 0.77113 0.23758 0.30774 0.0
C1633 C 0.71387 0.19623 0.30033 0.0
C1634 C 0.75599 0.22476 0.27777 0.0
C1635 C 0.72686 0.20445 0.27362 0.0
H1636 H 0.76595 0.23123 0.25716 0.0
H1637 H 0.71448 0.19513 0.24987 0.0
H1638 H 0.87901 0.40995 0.3351 0.0
H1639 H 0.85118 0.27539 0.39454 0.0
H1640 H 0.92401 0.45115 0.33215 0.0
H1641 H 0.69137 0.18031 0.29703 0.0
H1642 H 0.697 0.18239 0.35638 0.0
H1643 H 0.77786 0.34599 0.2101 0.0
H1644 H 0.78079 0.22663 0.44148 0.0
H1645 H 0.83431 0.25719 0.44342 0.0
H1646 H 0.92162 0.45481 0.22046 0.0
H1647 H 0.72951 0.19925 0.40892 0.0
H1648 H 0.83276 0.39452 0.14899 0.0
H1649 H 0.78426 0.35968 0.15686 0.0
N1650 N 0.82287 0.37176 0.23209 0.0
C1651 C 0.84901 0.39233 0.22871 0.0
C1652 C 0.79918 0.36122 0.20703 0.0
C1653 C 0.83018 0.38844 0.17244 0.0
C1654 C 0.80274 0.36885 0.17678 0.0
C1655 C 0.85343 0.40101 0.19863 0.0
H1656 H 0.88413 0.42943 0.17281 0.0
N1657 N 0.86493 0.39905 0.28472 0.0
C1658 C 0.87045 0.4065 0.25571 0.0
C1659 C 0.91579 0.44595 0.28089 0.0
C1660 C 0.89637 0.42988 0.25307 0.0
C1661 C 0.88339 0.41543 0.31201 0.0
C1662 C 0.90919 0.43876 0.31048 0.0
O1663 O 0.77073 0.285 0.29887 0.0
O1664 O 0.77345 0.32394 0.26609 0.0
O1665 O 0.78309 0.36888 0.30973 0.0
O1666 O 0.80906 0.405 0.28878 0.0
O1667 O 0.83485 0.3005 0.28128 0.0
O1668 O 0.81352 0.32089 0.24326 0.0
O1669 O 0.86992 0.35404 0.30757 0.0
O1670 O 0.86907 0.30663 0.3273 0.0
O1671 O 0.82387 0.23404 0.28601 0.0
O1672 O 0.85418 0.2486 0.33149 0.0
O1673 O 0.8223 0.3337 0.32353 0.0
O1674 O 0.81864 0.30729 0.36162 0.0
C1675 C 0.75704 0.30122 0.279 0.0
C1676 C 0.82198 0.29693 0.25206 0.0
C1677 C 0.7555 0.40175 0.2865 0.0
C1678 C 0.71662 0.43285 0.28416 0.0
C1679 C 0.71448 0.39135 0.241 0.0
C1680 C 0.74082 0.38459 0.25693 0.0
C1681 C 0.70278 0.41567 0.25413 0.0
C1682 C 0.74286 0.42518 0.30043 0.0
C1683 C 0.78471 0.39613 0.30206 0.0
C1684 C 0.90158 0.43727 0.22293 0.0
C1685 C 0.88023 0.42281 0.19578 0.0
H1686 H 0.93581 0.46411 0.27981 0.0
C1687 C 0.88447 0.33415 0.32136 0.0
C1688 C 0.81832 0.33378 0.35304 0.0
C1689 C 0.84668 0.19698 0.30852 0.0
C1690 C 0.87481 0.15623 0.30828 0.0
C1691 C 0.82306 0.14788 0.32302 0.0
C1692 C 0.8216 0.1778 0.31836 0.0
C1693 C 0.84957 0.13712 0.3181 0.0
C1694 C 0.87323 0.18612 0.30338 0.0
C1695 C 0.84666 0.22895 0.30519 0.0
H1696 H 0.70366 0.3783 0.21791 0.0
H1697 H 0.75001 0.36634 0.24588 0.0
H1698 H 0.68362 0.42157 0.2401 0.0
H1699 H 0.75403 0.43787 0.3236 0.0
H1700 H 0.80375 0.13309 0.33073 0.0
H1701 H 0.80115 0.18602 0.32272 0.0
H1702 H 0.85048 0.11395 0.32208 0.0
H1703 H 0.89281 0.20104 0.29613 0.0
C1704 C 0.08416 0.49705 0.61629 0.0
C1705 C 0.10999 0.53239 0.66397 0.0
C1706 C 0.09162 0.5264 0.63351 0.0
C1707 C 0.11912 0.5081 0.67739 0.0
C1708 C 0.09408 0.4727 0.62925 0.0
C1709 C 0.11112 0.47829 0.66008 0.0
N1710 N 0.06844 0.49256 0.58627 0.0
C1711 C 0.06207 0.46434 0.56774 0.0
C1712 C 0.08709 0.44358 0.61058 0.0
C1713 C 0.0711 0.43942 0.57963 0.0
Gd1714 Gd 0.07249 0.60017 0.50619 0.0
Gd1715 Gd 0.05075 0.53424 0.5689 0.0
N1716 N 0.0829 0.54947 0.61952 0.0
C1717 C 0.11973 0.56279 0.67953 0.0
C1718 C 0.09428 0.5794 0.63392 0.0
C1719 C 0.1123 0.58643 0.66415 0.0
H1720 H 0.09084 0.59834 0.62207 0.0
H1721 H 0.1209 0.6102 0.67533 0.0
H1722 H 0.09521 0.56768 0.44111 0.0
H1723 H 0.04935 0.46074 0.54389 0.0
H1724 H 0.08317 0.56357 0.38276 0.0
H1725 H 0.134 0.56836 0.70282 0.0
H1726 H 0.13303 0.51228 0.70081 0.0
H1727 H 1.02868 0.64766 0.53689 0.0
H1728 H 0.09422 0.42428 0.61968 0.0
H1729 H 0.06564 0.41701 0.56492 0.0
H1730 H 1.00878 0.6252 0.36706 0.0
H1731 H 0.11881 0.45986 0.67047 0.0
H1732 H 0.98122 0.67836 0.45914 0.0
H1733 H 0.9948 0.6793 0.51706 0.0
N1734 N 0.03613 0.62899 0.49085 0.0
C1735 C 0.02913 0.62841 0.45879 0.0
C1736 C 1.02379 0.64689 0.51161 0.0
C1737 C 0.99668 0.6645 0.4677 0.0
C1738 C 1.00429 0.66508 0.5004 0.0
C1739 C 1.00895 0.64594 0.44643 0.0
H1740 H 0.98592 0.6575 0.40347 0.0
N1741 N 0.06187 0.59386 0.45048 0.0
C1742 C 0.04204 0.61008 0.43811 0.0
C1743 C 0.04953 0.59145 0.38476 0.0
C1744 C 0.03508 0.609 0.40481 0.0
C1745 C 0.07735 0.57817 0.43113 0.0
C1746 C 0.07105 0.5763 0.39801 0.0
O1747 O 0.10141 0.54706 0.56725 0.0
O1748 O 0.09244 0.59108 0.55425 0.0
O1749 O 0.11924 0.61063 0.4953 0.0
O1750 O 0.09693 0.64775 0.50824 0.0
O1751 O 0.04223 0.58209 0.58814 0.0
O1752 O 0.06195 0.61898 0.55627 0.0
O1753 O 1.02313 0.57418 0.48827 0.0
O1754 O 0.04088 0.55953 0.53074 0.0
O1755 O 1.00939 0.53061 0.59051 0.0
O1756 O 1.01211 0.49411 0.5537 0.0
O1757 O 0.07957 0.55058 0.48927 0.0
O1758 O 0.06095 0.51257 0.52065 0.0
C1759 C 0.11231 0.57404 0.55955 0.0
C1760 C 0.04959 0.61121 0.58218 0.0
C1761 C 0.12903 0.65389 0.46837 0.0
C1762 C 0.14992 0.65012 0.41854 0.0
C1763 C 0.12934 0.69427 0.43538 0.0
C1764 C 0.12242 0.68222 0.46292 0.0
C1765 C 0.14308 0.67834 0.41322 0.0
C1766 C 0.14322 0.63827 0.44623 0.0
C1767 C 0.12017 0.63998 0.49632 0.0
C1768 C 1.01451 0.62592 0.39257 0.0
C1769 C 1.00155 0.64437 0.4133 0.0
H1770 H 0.04485 0.59013 0.35908 0.0
C1771 C 1.01725 0.55617 0.50882 0.0
C1772 C 0.07314 0.52132 0.49519 0.0
C1773 C 0.98908 0.48032 0.59861 0.0
C1774 C 0.97958 0.47459 0.65227 0.0
C1775 C 0.99332 0.43319 0.61945 0.0
C1776 C 0.99437 0.45042 0.59431 0.0
C1777 C 0.98685 0.44562 0.64878 0.0
C1778 C 0.97992 0.49135 0.62702 0.0
C1779 C 0.99745 0.50231 0.57663 0.0
H1780 H 0.12408 0.71601 0.43122 0.0
H1781 H 0.11162 0.69488 0.47973 0.0
H1782 H 0.14856 0.68813 0.3921 0.0
H1783 H 0.14828 0.61633 0.44988 0.0
H1784 H 0.99823 0.41053 0.61642 0.0
H1785 H 1.00036 0.44083 0.57209 0.0
H1786 H 0.98673 0.43243 0.66838 0.0
H1787 H 0.97498 0.51407 0.63035 0.0
C1788 C 0.74571 0.84095 0.23245 0.0
C1789 C 0.71232 0.79347 0.20309 0.0
C1790 C 0.73326 0.80964 0.23034 0.0
C1791 C 0.70472 0.80911 0.17783 0.0
C1792 C 0.73771 0.85688 0.20736 0.0
C1793 C 0.71736 0.84074 0.17998 0.0
N1794 N 0.76558 0.85588 0.25908 0.0
C1795 C 0.77769 0.88682 0.26243 0.0
C1796 C 0.75038 0.8886 0.21057 0.0
C1797 C 0.77035 0.90366 0.23834 0.0
Gd1798 Gd 0.85027 0.7856 0.30375 0.0
Gd1799 Gd 0.77882 0.82556 0.29733 0.0
N1800 N 0.74149 0.79505 0.25501 0.0
C1801 C 0.6993 0.76213 0.20221 0.0
C1802 C 0.72715 0.76505 0.25503 0.0
C1803 C 0.70639 0.74799 0.22854 0.0
H1804 H 0.73083 0.75423 0.27554 0.0
H1805 H 0.69556 0.72404 0.22864 0.0
H1806 H 0.88846 0.8475 0.3585 0.0
H1807 H 0.79298 0.8985 0.2838 0.0
H1808 H 0.92779 0.85894 0.40655 0.0
H1809 H 0.68313 0.74888 0.18174 0.0
H1810 H 0.68882 0.79701 0.15667 0.0
H1811 H 0.83728 0.71054 0.27977 0.0
H1812 H 0.74478 0.90165 0.19187 0.0
H1813 H 0.78017 0.92821 0.24119 0.0
H1814 H 0.94672 0.76034 0.42262 0.0
H1815 H 0.71108 0.85256 0.16041 0.0
H1816 H 0.89601 0.67318 0.34363 0.0
H1817 H 0.85778 0.66631 0.29461 0.0
N1818 N 0.86385 0.74174 0.31974 0.0
C1819 C 0.88508 0.74618 0.34648 0.0
C1820 C 0.85341 0.71339 0.30155 0.0
C1821 C 0.88704 0.69258 0.33726 0.0
C1822 C 0.86539 0.68858 0.3096 0.0
C1823 C 0.89692 0.72155 0.35627 0.0
H1824 H 0.92805 0.7081 0.3921 0.0
N1825 N 0.88565 0.7992 0.35189 0.0
C1826 C 0.89614 0.77573 0.36319 0.0
C1827 C 0.92993 0.81151 0.40662 0.0
C1828 C 0.91861 0.78125 0.39082 0.0
C1829 C 0.89723 0.82889 0.3669 0.0
C1830 C 0.91923 0.83544 0.39453 0.0
O1831 O 0.79594 0.81009 0.25073 0.0
O1832 O 0.81138 0.76681 0.26162 0.0
O1833 O 0.87244 0.80645 0.26642 0.0
O1834 O 0.88416 0.76559 0.2817 0.0
O1835 O 0.77477 0.78211 0.32093 0.0
O1836 O 0.80351 0.75176 0.29696 0.0
O1837 O 0.83562 0.80131 0.35234 0.0
O1838 O 0.81653 0.84248 0.34028 0.0
O1839 O 0.74031 0.81459 0.3247 0.0
O1840 O 0.75792 0.86189 0.31687 0.0
O1841 O 0.86428 0.83646 0.30157 0.0
O1842 O 0.82385 0.8617 0.29744 0.0
C1843 C 0.80253 0.78363 0.24064 0.0
C1844 C 0.78021 0.75481 0.31237 0.0
C1845 C 0.92358 0.80012 0.26394 0.0
C1846 C 0.96795 0.81259 0.23538 0.0
C1847 C 0.97506 0.82283 0.29344 0.0
C1848 C 0.94344 0.81112 0.29301 0.0
C1849 C 0.98724 0.82367 0.26494 0.0
C1850 C 0.9359 0.80075 0.23507 0.0
C1851 C 0.89032 0.78696 0.26388 0.0
C1852 C 0.92954 0.75655 0.40141 0.0
C1853 C 0.91886 0.7268 0.38407 0.0
H1854 H 0.94711 0.81666 0.42796 0.0
C1855 C 0.82539 0.82612 0.36163 0.0
C1856 C 0.85353 0.86108 0.29783 0.0
C1857 C 0.71598 0.85415 0.34916 0.0
C1858 C 0.6805 0.84809 0.38918 0.0
C1859 C 0.69589 0.89737 0.37049 0.0
C1860 C 0.71396 0.88504 0.35039 0.0
C1861 C 0.67945 0.87921 0.38973 0.0
C1862 C 0.69868 0.83544 0.36839 0.0
C1863 C 0.73875 0.84333 0.3304 0.0
H1864 H 0.99024 0.8312 0.316 0.0
H1865 H 0.9345 0.81053 0.31541 0.0
H1866 H 1.01196 0.83258 0.26604 0.0
H1867 H 0.92063 0.79217 0.21257 0.0
H1868 H 0.6947 0.92126 0.37124 0.0
H1869 H 0.72695 0.90003 0.33626 0.0
H1870 H 0.66521 0.88945 0.40467 0.0
H1871 H 0.69993 0.81157 0.36781 0.0
C1872 C 0.86454 0.26889 0.73033 0.0
C1873 C 0.82257 0.24563 0.68723 0.0
C1874 C 0.83474 0.26671 0.7156 0.0
C1875 C 0.84146 0.22821 0.67323 0.0
C1876 C 0.88308 0.25016 0.71733 0.0
C1877 C 0.87165 0.23038 0.68834 0.0
N1878 N 0.87472 0.28783 0.75853 0.0
C1879 C 0.90301 0.28882 0.77524 0.0
C1880 C 0.91214 0.25111 0.73442 0.0
C1881 C 0.92195 0.27024 0.76373 0.0
Gd1882 Gd 0.78392 0.31521 0.84649 0.0
Gd1883 Gd 0.84251 0.31893 0.7771 0.0
N1884 N 0.81677 0.28299 0.7306 0.0
C1885 C 0.79133 0.24145 0.67461 0.0
C1886 C 0.78555 0.27655 0.71965 0.0
C1887 C 0.7726 0.2565 0.69131 0.0
H1888 H 0.76979 0.28547 0.73293 0.0
H1889 H 0.74796 0.25213 0.68278 0.0
H1890 H 0.8563 0.35149 0.88962 0.0
H1891 H 0.91126 0.3046 0.7971 0.0
H1892 H 0.87689 0.37802 0.94383 0.0
H1893 H 0.78111 0.22548 0.65295 0.0
H1894 H 0.83255 0.21214 0.65136 0.0
H1895 H 0.71446 0.33153 0.82801 0.0
H1896 H 0.9269 0.2368 0.7255 0.0
H1897 H 0.94411 0.27072 0.77735 0.0
H1898 H 0.78765 0.39897 0.98576 0.0
H1899 H 0.88566 0.21604 0.67787 0.0
H1900 H 0.69339 0.3801 0.91201 0.0
H1901 H 0.67835 0.35634 0.85533 0.0
N1902 N 0.74981 0.34217 0.86834 0.0
C1903 C 0.75892 0.35598 0.89912 0.0
C1904 C 0.72159 0.34282 0.85235 0.0
C1905 C 0.70944 0.36961 0.89998 0.0
C1906 C 0.70094 0.35641 0.86793 0.0
C1907 C 0.73886 0.36985 0.91589 0.0
H1908 H 0.73388 0.39478 0.96097 0.0
N1909 N 0.80881 0.34772 0.89486 0.0
C1910 C 0.78927 0.35841 0.91303 0.0
C1911 C 0.8319 0.38023 0.95595 0.0
C1912 C 0.80022 0.3747 0.94417 0.0
C1913 C 0.84014 0.35632 0.90502 0.0
C1914 C 0.85208 0.37203 0.93581 0.0
O1915 O 0.82448 0.27204 0.78723 0.0
O1916 O 0.78162 0.28694 0.7983 0.0
O1917 O 0.78007 0.27516 0.87055 0.0
O1918 O 0.73868 0.28808 0.85016 0.0
O1919 O 0.79706 0.33407 0.76129 0.0
O1920 O 0.76124 0.32533 0.79757 0.0
O1921 O 0.80326 0.36569 0.84805 0.0
O1922 O 0.8242 0.33811 0.81731 0.0
O1923 O 0.84873 0.35587 0.74891 0.0
O1924 O 0.88763 0.35046 0.78152 0.0
O1925 O 0.83114 0.30094 0.86055 0.0
O1926 O 0.86787 0.314 0.82618 0.0
C1927 C 0.79621 0.26476 0.7935 0.0
C1928 C 0.769 0.33349 0.7698 0.0
C1929 C 0.73421 0.26087 0.89385 0.0
C1930 C 0.73357 0.23492 0.94038 0.0
C1931 C 0.6869 0.24868 0.91713 0.0
C1932 C 0.70271 0.26109 0.89378 0.0
C1933 C 0.70213 0.23537 0.94021 0.0
C1934 C 0.7496 0.2484 0.91766 0.0
C1935 C 0.74982 0.2697 0.867 0.0
C1936 C 0.7797 0.38667 0.96173 0.0
C1937 C 0.74911 0.38437 0.94757 0.0
H1938 H 0.84125 0.39272 0.97967 0.0
C1939 C 0.82322 0.3659 0.82893 0.0
C1940 C 0.85987 0.3037 0.85281 0.0
C1941 C 0.89682 0.36416 0.73099 0.0
C1942 C 0.90178 0.37556 0.67765 0.0
C1943 C 0.93675 0.34838 0.70333 0.0
C1944 C 0.92169 0.34959 0.73009 0.0
C1945 C 0.92685 0.36139 0.67707 0.0
C1946 C 0.88718 0.37735 0.70465 0.0
C1947 C 0.87871 0.36347 0.75754 0.0
H1948 H 0.66261 0.2487 0.91687 0.0
H1949 H 0.69013 0.27019 0.8753 0.0
H1950 H 0.68922 0.22495 0.95755 0.0
H1951 H 0.77398 0.24857 0.91814 0.0
H1952 H 0.95581 0.337 0.70281 0.0
H1953 H 0.92908 0.33867 0.7497 0.0
H1954 H 0.93842 0.36013 0.65625 0.0
H1955 H 0.86784 0.38846 0.70483 0.0
C1956 C 0.9111 0.86049 0.86096 0.0
C1957 C 0.94576 0.88203 0.82547 0.0
C1958 C 0.91543 0.87125 0.83214 0.0
C1959 C 0.97151 0.88208 0.84792 0.0
C1960 C 0.93711 0.86062 0.88351 0.0
C1961 C 0.9672 0.87138 0.87678 0.0
N1962 N 0.88161 0.84911 0.86651 0.0
C1963 C 0.87689 0.83981 0.89517 0.0
C1964 C 0.9322 0.8498 0.91219 0.0
C1965 C 0.90198 0.83961 0.91812 0.0
Gd1966 Gd 0.79569 0.77664 0.78023 0.0
Gd1967 Gd 0.84154 0.8532 0.82675 0.0
N1968 N 0.89007 0.86997 0.81016 0.0
C1969 C 0.94941 0.89213 0.79621 0.0
C1970 C 0.89369 0.88122 0.78224 0.0
C1971 C 0.92326 0.89194 0.77463 0.0
H1972 H 0.87407 0.88325 0.76619 0.0
H1973 H 0.92585 0.90055 0.75232 0.0
H1974 H 0.76317 0.73937 0.83448 0.0
H1975 H 0.85398 0.83366 0.90131 0.0
H1976 H 0.71093 0.71556 0.84501 0.0
H1977 H 0.97231 0.90049 0.79021 0.0
H1978 H 0.99491 0.89017 0.84309 0.0
H1979 H 0.78425 0.79224 0.70336 0.0
H1980 H 0.95158 0.84963 0.9301 0.0
H1981 H 0.89795 0.83203 0.94065 0.0
H1982 H 0.64222 0.73181 0.75644 0.0
H1983 H 0.98737 0.87131 0.89364 0.0
H1984 H 0.68725 0.77859 0.67337 0.0
H1985 H 0.74132 0.79509 0.6636 0.0
N1986 N 0.75613 0.77854 0.73825 0.0
C1987 C 0.72641 0.76707 0.74292 0.0
C1988 C 0.76138 0.78709 0.70942 0.0
C1989 C 0.70629 0.77833 0.69164 0.0
C1990 C 0.73675 0.78782 0.68612 0.0
C1991 C 0.70077 0.76709 0.71996 0.0
H1992 H 0.65055 0.75564 0.70851 0.0
N1993 N 0.74656 0.75473 0.79214 0.0
C1994 C 0.72154 0.75397 0.77016 0.0
C1995 C 0.68744 0.7268 0.80246 0.0
C1996 C 0.69121 0.74052 0.77507 0.0
C1997 C 0.74311 0.74045 0.81828 0.0
C1998 C 0.71354 0.72657 0.82403 0.0
O1999 O 0.87248 0.81744 0.81418 0.0
O2000 O 0.84718 0.78652 0.7683 0.0
O2001 O 0.80622 0.73377 0.79115 0.0
O2002 O 0.78265 0.73584 0.74434 0.0
O2003 O 0.82306 0.85647 0.77438 0.0
O2004 O 0.82127 0.80821 0.74924 0.0
O2005 O 0.76168 0.80393 0.80414 0.0
O2006 O 0.78836 0.85288 0.82708 0.0
O2007 O 0.85204 0.90187 0.82413 0.0
O2008 O 0.84773 0.88669 0.86973 0.0
O2009 O 0.81531 0.77668 0.83246 0.0
O2010 O 0.81305 0.8234 0.8575 0.0
C2011 C 0.87407 0.79938 0.78743 0.0
C2012 C 0.82409 0.83782 0.74819 0.0
C2013 C 0.81877 0.70429 0.7474 0.0
C2014 C 0.85457 0.67042 0.75193 0.0
C2015 C 0.84833 0.69488 0.70466 0.0
C2016 C 0.82666 0.70919 0.71728 0.0
C2017 C 0.86265 0.67602 0.72206 0.0
C2018 C 0.83258 0.68467 0.76439 0.0
C2019 C 0.79679 0.71979 0.76191 0.0
C2020 C 0.66571 0.74154 0.75282 0.0
C2021 C 0.67047 0.75509 0.72552 0.0
H2022 H 0.66454 0.71621 0.80708 0.0
C2023 C 0.76135 0.83182 0.81923 0.0
C2024 C 0.81029 0.79372 0.8578 0.0
C2025 C 0.83254 0.9326 0.8617 0.0
C2026 C 0.80004 0.9662 0.84391 0.0
C2027 C 0.81793 0.96889 0.90045 0.0
C2028 C 0.83378 0.94585 0.89344 0.0
C2029 C 0.80139 0.97931 0.87581 0.0
C2030 C 0.81495 0.94233 0.83716 0.0
C2031 C 0.85094 0.90996 0.85418 0.0
H2032 H 0.85425 0.69862 0.68143 0.0
H2033 H 0.81636 0.72421 0.70356 0.0
H2034 H 0.87995 0.66578 0.7121 0.0
H2035 H 0.82593 0.68027 0.78726 0.0
H2036 H 0.81902 0.97915 0.92495 0.0
H2037 H 0.84727 0.93861 0.91272 0.0
H2038 H 0.79015 0.99797 0.88161 0.0
H2039 H 0.81323 0.93177 0.81261 0.0
C2040 C 0.50666 0.469 0.48443 0.0
C2041 C 0.48627 0.43176 0.5177 0.0
C2042 C 0.49954 0.46233 0.51391 0.0
C2043 C 0.47994 0.40813 0.49145 0.0
C2044 C 0.50037 0.44519 0.45802 0.0
C2045 C 0.48698 0.41483 0.46171 0.0
N2046 N 0.51916 0.49875 0.48142 0.0
C2047 C 0.52496 0.50608 0.45226 0.0
C2048 C 0.5073 0.45259 0.4285 0.0
C2049 C 0.51955 0.48318 0.42562 0.0
Gd2050 Gd 0.60169 0.5769 0.5745 0.0
Gd2051 Gd 0.5245 0.53562 0.52754 0.0
N2052 N 0.50587 0.48566 0.53896 0.0
C2053 C 0.47961 0.42584 0.54778 0.0
C2054 C 0.49832 0.48008 0.56802 0.0
C2055 C 0.48559 0.45014 0.57302 0.0
H2056 H 0.50155 0.49857 0.58739 0.0
H2057 H 0.47997 0.4459 0.59624 0.0
H2058 H 0.6224 0.61811 0.51682 0.0
H2059 H 0.53255 0.5296 0.44878 0.0
H2060 H 0.64097 0.67231 0.51049 0.0
H2061 H 0.46952 0.40268 0.55166 0.0
H2062 H 0.46964 0.38457 0.49389 0.0
H2063 H 0.60686 0.57662 0.65387 0.0
H2064 H 0.50276 0.43496 0.40769 0.0
H2065 H 0.52426 0.48928 0.40268 0.0
H2066 H 0.65251 0.72787 0.61612 0.0
H2067 H 0.48194 0.39636 0.44168 0.0
H2068 H 0.63172 0.66988 0.7009 0.0
H2069 H 0.61678 0.61402 0.70323 0.0
N2070 N 0.61203 0.61068 0.62332 0.0
C2071 C 0.6216 0.64122 0.62167 0.0
C2072 C 0.61122 0.60083 0.65227 0.0
C2073 C 0.62625 0.65351 0.679 0.0
C2074 C 0.61771 0.62203 0.68041 0.0
C2075 C 0.62892 0.66343 0.64948 0.0
H2076 H 0.64525 0.71199 0.66817 0.0
N2077 N 0.61912 0.62814 0.56597 0.0
C2078 C 0.62582 0.65017 0.59227 0.0
C2079 C 0.64208 0.6895 0.56002 0.0
C2080 C 0.63726 0.68148 0.58992 0.0
C2081 C 0.62564 0.63568 0.53715 0.0
C2082 C 0.63654 0.66644 0.53358 0.0
O2083 O 0.5571 0.50196 0.5395 0.0
O2084 O 0.58867 0.52625 0.58577 0.0
O2085 O 0.64002 0.56294 0.5548 0.0
O2086 O 0.64692 0.58583 0.60363 0.0
O2087 O 0.5228 0.55341 0.58054 0.0
O2088 O 0.57025 0.55274 0.60657 0.0
O2089 O 0.57066 0.61216 0.56149 0.0
O2090 O 0.53491 0.58685 0.51825 0.0
O2091 O 0.48093 0.54074 0.54175 0.0
O2092 O 0.48388 0.52941 0.49161 0.0
O2093 O 0.60181 0.56043 0.52128 0.0
O2094 O 0.55459 0.56269 0.4967 0.0
C2095 C 0.57573 0.50018 0.56587 0.0
C2096 C 0.54061 0.55151 0.60705 0.0
C2097 C 0.67183 0.54544 0.59271 0.0
C2098 C 0.70684 0.51141 0.58505 0.0
C2099 C 0.67257 0.5046 0.62491 0.0
C2100 C 0.66078 0.5295 0.61686 0.0
C2101 C 0.69537 0.49542 0.60899 0.0
C2102 C 0.69484 0.53635 0.57697 0.0
C2103 C 0.6582 0.57019 0.58224 0.0
C2104 C 0.64383 0.7037 0.61745 0.0
C2105 C 0.6396 0.69469 0.64711 0.0
H2106 H 0.65069 0.71331 0.55721 0.0
C2107 C 0.54963 0.61324 0.53668 0.0
C2108 C 0.58409 0.56435 0.4958 0.0
C2109 C 0.45799 0.56844 0.50625 0.0
C2110 C 0.4363 0.6111 0.52617 0.0
C2111 C 0.44828 0.6058 0.47206 0.0
C2112 C 0.45832 0.57902 0.47664 0.0
C2113 C 0.43667 0.62145 0.49642 0.0
C2114 C 0.44864 0.58562 0.53116 0.0
C2115 C 0.46854 0.54048 0.51238 0.0
H2116 H 0.66382 0.49221 0.64332 0.0
H2117 H 0.64278 0.53599 0.62918 0.0
H2118 H 0.70386 0.47573 0.61522 0.0
H2119 H 0.70343 0.54876 0.55843 0.0
H2120 H 0.44837 0.61378 0.44918 0.0
H2121 H 0.46631 0.56672 0.45712 0.0
H2122 H 0.42652 0.64047 0.49123 0.0
H2123 H 0.44938 0.57809 0.55434 0.0
C2124 C 0.12695 0.61777 0.99053 0.0
C2125 C 0.16335 0.66008 0.02587 0.0
C2126 C 0.1422 0.63113 0.02099 0.0
C2127 C 0.16799 0.67601 0.99993 0.0
C2128 C 0.13248 0.63324 0.96428 0.0
C2129 C 0.15257 0.66266 0.96924 0.0
N2130 N 0.10794 0.5891 0.98637 0.0
C2131 C 0.09551 0.57377 0.95648 0.0
C2132 C 0.11827 0.61833 0.9337 0.0
C2133 C 0.10004 0.58832 0.92976 0.0
Gd2134 Gd 1.0228 0.56264 0.07518 0.0
Gd2135 Gd 0.10071 0.56802 0.03316 0.0
N2136 N 0.13678 0.61552 0.04581 0.0
C2137 C 0.17952 0.6719 0.05663 0.0
C2138 C 0.15404 0.62582 0.07528 0.0
C2139 C 0.17517 0.65447 0.08134 0.0
H2140 H 0.15105 0.61205 0.09407 0.0
H2141 H 0.18819 0.66301 0.10497 0.0
H2142 H 0.9757 0.52996 1.00681 0.0
H2143 H 0.08229 0.55018 0.95314 0.0
H2144 H 0.93711 0.48133 0.9856 0.0
H2145 H 0.19592 0.69409 0.06137 0.0
H2146 H 0.18389 0.69844 1.00327 0.0
H2147 H 0.04659 0.55905 0.15326 0.0
H2148 H 0.12192 0.62945 0.91292 0.0
H2149 H 0.08973 0.57626 0.90612 0.0
H2150 H 0.93255 0.4258 0.07457 0.0
H2151 H 0.15686 0.67499 0.94937 0.0
H2152 H 0.998 0.47249 0.17318 0.0
H2153 H 0.03614 0.52222 0.19068 0.0
N2154 N 1.01605 0.52983 0.11379 0.0
C2155 C 0.9941 0.50296 0.10392 0.0
C2156 C 0.03064 0.53709 0.14469 0.0
C2157 C 1.00276 0.48841 0.15633 0.0
C2158 C 1.02442 0.51641 0.16627 0.0
C2159 C 0.98716 0.48144 0.12494 0.0
H2160 H 0.95934 0.43693 0.12994 0.0
N2161 N 0.98617 0.51738 0.05232 0.0
C2162 C 0.97853 0.49671 0.07254 0.0
C2163 C 0.94158 0.46313 0.02988 0.0
C2164 C 0.9563 0.46879 0.06162 0.0
C2165 C 0.97104 0.51258 0.02182 0.0
C2166 C 0.94882 0.48523 1.00998 0.0
O2167 O 0.0922 0.61706 0.05299 0.0
O2168 O 0.05233 0.61277 0.08397 0.0
O2169 O 0.98146 0.57949 0.06034 0.0
O2170 O 0.99671 0.57829 0.11092 0.0
O2171 O 0.08708 0.55217 0.07717 0.0
O2172 O 0.06652 0.58055 0.11015 0.0
O2173 O 0.03491 0.51477 0.05721 0.0
O2174 O 0.06527 0.52126 0.01701 0.0
O2175 O 0.13587 0.54929 0.05919 0.0
O2176 O 0.13306 0.54776 1.00833 0.0
O2177 O 1.0286 0.58151 0.02921 0.0
O2178 O 0.05571 0.55391 0.99996 0.0
C2179 C 0.07504 0.63003 0.07201 0.0
C2180 C 0.09075 0.57104 0.10331 0.0
C2181 C 0.95082 0.59828 0.09889 0.0
C2182 C 0.91451 0.63168 0.09112 0.0
C2183 C 0.91525 0.60398 0.13664 0.0
C2184 C 0.93899 0.59121 0.12671 0.0
C2185 C 0.90309 0.62403 0.11908 0.0
C2186 C 0.93853 0.61858 0.08108 0.0
C2187 C 0.97699 0.58558 0.08981 0.0
C2188 C 0.94958 0.44737 0.08255 0.0
C2189 C 0.96489 0.45369 0.11409 0.0
H2190 H 0.92439 0.44193 0.02059 0.0
C2191 C 0.04784 0.50281 0.03342 0.0
C2192 C 0.0319 0.56635 1.00224 0.0
C2193 C 0.14734 0.5057 0.03001 0.0
C2194 C 0.17652 0.46564 0.03692 0.0
C2195 C 0.12292 0.45171 1.0107 0.0
C2196 C 0.12178 0.4827 0.01416 0.0
C2197 C 0.15004 0.44317 0.02193 0.0
C2198 C 0.17479 0.49703 0.04139 0.0
C2199 C 0.14556 0.53861 0.03352 0.0
H2200 H 0.90614 0.59823 0.15803 0.0
H2201 H 0.94811 0.57576 0.14081 0.0
H2202 H 0.88427 0.63313 0.12711 0.0
H2203 H 0.94808 0.62464 0.05998 0.0
H2204 H 0.10304 0.43426 0.99825 0.0
H2205 H 0.10117 0.48876 1.00368 0.0
H2206 H 0.15076 0.41912 0.01722 0.0
H2207 H 0.19502 0.51471 0.0528 0.0
C2208 C 0.04594 0.20342 0.03687 0.0
C2209 C 0.03175 0.2062 1.00575 0.0
C2210 C 0.05144 0.17466 0.04618 0.0
C2211 C 0.0429 0.14563 0.02547 0.0
H2212 H 0.05328 0.22397 0.05457 0.0
H2213 H 0.06248 0.17532 0.07034 0.0
S2214 S 1.00607 0.13848 0.94073 0.0
N2215 N 1.01028 0.17545 0.95401 0.0
N2216 N 1.01973 0.12321 0.97108 0.0
C2217 C 0.02873 0.14813 0.99434 0.0
C2218 C 1.0235 0.17742 0.98476 0.0
C2219 C 0.18838 0.83855 0.23078 0.0
C2220 C 0.19259 0.84059 0.19872 0.0
C2221 C 0.21278 0.8369 0.25474 0.0
C2222 C 0.24335 0.83776 0.24859 0.0
H2223 H 0.16554 0.83726 0.23744 0.0
H2224 H 0.20729 0.83459 0.27832 0.0
S2225 S 0.26818 0.846 0.16914 0.0
N2226 N 0.23062 0.84474 0.1626 0.0
N2227 N 0.2765 0.8434 0.20728 0.0
C2228 C 0.24825 0.84124 0.21678 0.0
C2229 C 0.22307 0.84211 0.19212 0.0
C2230 C 0.55426 0.92022 0.48891 0.0
C2231 C 0.53775 0.89674 0.50421 0.0
C2232 C 0.55663 0.95239 0.49774 0.0
C2233 C 0.54288 0.96466 0.52298 0.0
H2234 H 0.56527 0.91365 0.46878 0.0
H2235 H 0.56943 0.96792 0.48397 0.0
S2236 S 0.49926 0.91491 0.57421 0.0
N2237 N 0.50847 0.8895 0.54795 0.0
N2238 N 0.51382 0.94934 0.56533 0.0
C2239 C 0.52732 0.94175 0.53972 0.0
C2240 C 0.52461 0.90844 0.53034 0.0
C2241 C 0.48295 0.29754 0.6287 0.0
C2242 C 0.51308 0.30308 0.64611 0.0
C2243 C 0.45634 0.28984 0.64324 0.0
C2244 C 0.45848 0.2872 0.67591 0.0
H2245 H 0.47974 0.29861 0.60337 0.0
H2246 H 0.43381 0.28547 0.62857 0.0
S2247 S 0.53158 0.29951 0.73264 0.0
N2248 N 0.54325 0.30593 0.69838 0.0
N2249 N 0.49328 0.29098 0.72537 0.0
C2250 C 0.48836 0.2934 0.69387 0.0
C2251 C 0.51557 0.3014 0.67909 0.0
C2252 C 0.10141 0.88634 0.71619 0.0
C2253 C 0.07789 0.8595 0.70445 0.0
C2254 C 0.11238 0.90735 0.69601 0.0
C2255 C 0.0997 0.90281 0.66352 0.0
H2256 H 0.11258 0.8905 0.74076 0.0
H2257 H 0.1315 0.92688 0.70568 0.0
S2258 S 0.03552 0.83859 0.62138 0.0
N2259 N 0.04069 0.83119 0.65831 0.0
N2260 N 0.06104 0.87104 0.62094 0.0
C2261 C 0.07496 0.87731 0.65188 0.0
C2262 C 0.06409 0.85563 0.67219 0.0
C2263 C 0.47655 0.83819 0.81925 0.0
C2264 C 0.49206 0.85329 0.85014 0.0
C2265 C 0.44342 0.83404 0.80902 0.0
C2266 C 0.42282 0.84405 0.82898 0.0
H2267 H 0.48988 0.82837 0.80296 0.0
H2268 H 0.43366 0.82177 0.78533 0.0
S2269 S 0.45 0.88459 0.91218 0.0
N2270 N 0.48228 0.87836 0.90026 0.0
N2271 N 0.42196 0.87001 0.88175 0.0
C2272 C 0.43804 0.85914 0.8597 0.0
C2273 C 0.4716 0.86371 0.86994 0.0
C2274 C 0.52441 0.15797 0.15915 0.0
C2275 C 0.53998 0.1893 0.16134 0.0
C2276 C 0.52644 0.13472 0.13382 0.0
C2277 C 0.54438 0.14116 0.10906 0.0
H2278 H 0.51007 0.15132 0.17697 0.0
H2279 H 0.5137 0.11132 0.13369 0.0
S2280 S 0.59442 0.21829 0.10666 0.0
N2281 N 0.57707 0.22428 0.13807 0.0
N2282 N 0.58085 0.18159 0.09146 0.0
C2283 C 0.56095 0.17223 0.11182 0.0
C2284 C 0.55888 0.19578 0.13754 0.0
C2285 C 0.16666 0.32319 0.32718 0.0
C2286 C 0.16422 0.35186 0.34392 0.0
C2287 C 0.19548 0.31686 0.31877 0.0
C2288 C 0.22508 0.33816 0.32651 0.0
H2289 H 0.14572 0.3051 0.32002 0.0
H2290 H 0.19436 0.29446 0.30604 0.0
S2291 S 0.23365 0.41631 0.37303 0.0
N2292 N 0.19592 0.40168 0.36909 0.0
N2293 N 0.24871 0.38983 0.35453 0.0
C2294 C 0.22305 0.36682 0.34395 0.0
C2295 C 0.1935 0.3735 0.35214 0.0
C2296 C 0.0365 0.03529 0.19406 0.0
C2297 C 1.00565 0.03491 0.19891 0.0
C2298 C 0.0471 0.04029 0.16463 0.0
C2299 C 1.02795 0.04624 0.13813 0.0
H2300 H 0.05272 0.03116 0.21314 0.0
H2301 H 0.07076 0.03905 0.16272 0.0
S2302 S 0.94483 0.04787 0.13754 0.0
N2303 N 0.9557 0.0405 0.17362 0.0
N2304 N 0.97574 0.05087 0.11938 0.0
C2305 C 0.99692 0.04582 0.14257 0.0
C2306 C 0.98589 0.04007 0.17246 0.0
C2307 C 0.25371 0.71094 0.52322 0.0
C2308 C 0.26594 0.68556 0.5132 0.0
C2309 C 0.24127 0.72727 0.50123 0.0
C2310 C 0.24069 0.71892 0.46843 0.0
H2311 H 0.25293 0.71782 0.54825 0.0
H2312 H 0.23222 0.7467 0.51005 0.0
S2313 S 0.27225 0.65583 0.43026 0.0
N2314 N 0.2785 0.65396 0.46874 0.0
N2315 N 0.25441 0.68419 0.42693 0.0
C2316 C 0.25339 0.6939 0.45808 0.0
C2317 C 0.26614 0.67731 0.48059 0.0
C2318 C 0.65089 0.04298 0.65003 0.0
C2319 C 0.66693 0.07024 0.66985 0.0
C2320 C 0.62533 0.043 0.62764 0.0
C2321 C 0.61465 0.0701 0.6252 0.0
H2322 H 0.65776 0.02152 0.65231 0.0
H2323 H 0.61353 0.02154 0.61248 0.0
S2324 S 0.64807 0.14695 0.67311 0.0
N2325 N 0.67046 0.1248 0.68635 0.0
N2326 N 0.62133 0.12442 0.64498 0.0
C2327 C 0.62999 0.09725 0.64556 0.0
C2328 C 0.65662 0.09746 0.66759 0.0
C2329 C 0.36289 0.37407 0.94318 0.0
C2330 C 0.34101 0.36608 0.96386 0.0
C2331 C 0.3585 0.36028 0.91101 0.0
C2332 C 0.33203 0.33725 0.89734 0.0
H2333 H 0.38341 0.39216 0.95137 0.0
H2334 H 0.3756 0.36883 0.89646 0.0
S2335 S 0.26665 0.30735 0.93966 0.0
N2336 N 0.29102 0.33323 0.96726 0.0
N2337 N 0.28306 0.30684 0.907 0.0
C2338 C 0.30998 0.32829 0.91755 0.0
C2339 C 0.31442 0.34262 0.95061 0.0
C2340 C 0.99571 0.04863 0.41696 0.0
C2341 C 1.00867 0.03582 0.39131 0.0
C2342 C 1.00914 0.05181 0.44905 0.0
C2343 C 0.03687 0.0429 0.45832 0.0
H2344 H 0.97416 0.05594 0.41243 0.0
H2345 H 0.99695 0.06084 0.46692 0.0
S2346 S 0.0826 1.01004 0.40142 0.0
N2347 N 0.05235 1.01513 0.37794 0.0
N2348 N 0.07823 0.02208 0.43835 0.0
C2349 C 0.05109 0.03103 0.4331 0.0
C2350 C 0.03702 0.02741 0.39984 0.0
C2351 C 0.33581 0.72818 0.70706 0.0
C2352 C 0.30734 0.71389 0.68808 0.0
C2353 C 0.33818 0.75428 0.72948 0.0
C2354 C 0.31219 0.76675 0.73301 0.0
H2355 H 0.35659 0.7203 0.70323 0.0
H2356 H 0.3607 0.76556 0.74316 0.0
S2357 S 0.23257 0.73722 0.68888 0.0
N2358 N 0.25262 0.71316 0.67451 0.0
N2359 N 0.25735 0.76289 0.7162 0.0
C2360 C 0.28355 0.75228 0.71455 0.0
C2361 C 0.28101 0.72543 0.6923 0.0
C2362 C 0.6672 0.10365 0.82959 0.0
C2363 C 0.69618 0.09839 0.84166 0.0
C2364 C 0.649 0.11567 0.84978 0.0
C2365 C 0.65892 0.12244 0.88274 0.0
H2366 H 0.6592 0.10019 0.80414 0.0
H2367 H 0.62733 0.12029 0.83948 0.0
S2368 S 0.73026 0.10828 0.92677 0.0
N2369 N 0.73229 0.09771 0.88883 0.0
N2370 N 0.69786 0.12039 0.92713 0.0
C2371 C 0.68684 0.11553 0.89541 0.0
C2372 C 0.70555 0.10348 0.87475 0.0
C2373 C 0.33101 0.34095 0.15778 0.0
C2374 C 0.33289 0.37209 0.15392 0.0
C2375 C 0.32628 0.32994 0.18709 0.0
C2376 C 0.3222 0.34904 0.21454 0.0
H2377 H 0.33371 0.32476 0.13796 0.0
H2378 H 0.32602 0.30595 0.18811 0.0
S2379 S 0.32463 0.43264 0.21777 0.0
N2380 N 0.33047 0.42206 0.18105 0.0
N2381 N 0.32066 0.40143 0.2351 0.0
C2382 C 0.32403 0.3803 0.21103 0.0
C2383 C 0.32946 0.39168 0.18124 0.0
C2384 C 0.27686 0.9913 0.07277 0.0
C2385 C 0.27228 0.98521 0.03933 0.0
C2386 C 0.25384 0.99933 0.089 0.0
C2387 C 0.22534 1.00121 0.07231 0.0
H2388 H 0.29883 0.99076 0.08645 0.0
H2389 H 0.25886 1.00518 0.11475 0.0
S2390 S 0.20078 0.98322 0.9846 0.0
N2391 N 0.23693 0.97916 0.98994 0.0
N2392 N 0.19269 0.99341 0.02054 0.0
C2393 C 0.22 0.99384 0.03878 0.0
C2394 C 0.24377 0.98606 0.02222 0.0
C2395 C 0.7039 0.63861 0.04208 0.0
C2396 C 0.70045 0.66367 0.02606 0.0
C2397 C 0.67811 0.6154 0.04555 0.0
C2398 C 0.64749 0.61616 0.03329 0.0
H2399 H 0.72681 0.63725 0.05268 0.0
H2400 H 0.68225 0.59717 0.05869 0.0
S2401 S 0.62611 0.67633 0.98776 0.0
N2402 N 0.66422 0.68755 0.99735 0.0
N2403 N 0.61599 0.64401 1.00252 0.0
C2404 C 0.64398 0.64086 0.01639 0.0
C2405 C 0.67026 0.66464 0.01335 0.0
C2406 C 0.72013 0.51427 0.32304 0.0
C2407 C 0.6892 0.51726 0.31742 0.0
C2408 C 0.72842 0.487 0.31251 0.0
C2409 C 0.70607 0.4607 0.29695 0.0
H2410 H 0.7386 0.53345 0.33492 0.0
H2411 H 0.75288 0.48707 0.3159 0.0
S2412 S 0.62089 0.4545 0.28118 0.0
N2413 N 0.63557 0.49078 0.29751 0.0
N2414 N 0.65077 0.43833 0.27984 0.0
C2415 C 0.67464 0.46263 0.29283 0.0
C2416 C 0.6663 0.49106 0.30265 0.0
C2417 C 0.94982 0.48741 0.48347 0.0
C2418 C 0.92921 0.49389 0.50425 0.0
C2419 C 0.97856 0.50798 0.48474 0.0
C2420 C 0.98747 0.53485 0.50744 0.0
H2421 H 0.94341 0.46677 0.46582 0.0
H2422 H 0.99392 0.50283 0.46812 0.0
S2423 S 0.94387 0.55955 0.5701 0.0
N2424 N 0.92113 0.52708 0.55033 0.0
N2425 N 0.97476 0.56609 0.55204 0.0
C2426 C 0.96751 0.54104 0.52884 0.0
C2427 C 0.93848 0.52024 0.52762 0.0
C2428 C 0.38636 0.13262 0.31683 0.0
C2429 C 0.38388 0.10261 0.30137 0.0
C2430 C 0.37574 0.1544 0.30018 0.0
C2431 C 0.36221 0.14653 0.26782 0.0
H2432 H 0.39654 0.13922 0.34173 0.0
H2433 H 0.37802 0.17746 0.31263 0.0
S2434 S 0.34667 0.06958 0.21851 0.0
N2435 N 0.36485 0.06533 0.25314 0.0
N2436 N 0.34452 0.10602 0.22208 0.0
C2437 C 0.35904 0.11634 0.25255 0.0
C2438 C 0.36995 0.0944 0.26933 0.0
C2439 C 0.3732 0.19562 0.57069 0.0
C2440 C 0.35885 0.1846 0.53895 0.0
C2441 C 0.39403 0.18071 0.58618 0.0
C2442 C 0.40128 0.15416 0.57067 0.0
H2443 H 0.36643 0.21424 0.58458 0.0
H2444 H 0.40303 0.18891 0.61117 0.0
S2445 S 0.37476 0.11971 0.48572 0.0
N2446 N 0.35778 0.1488 0.4909 0.0
N2447 N 0.39556 0.12005 0.5205 0.0
C2448 C 0.38965 0.14491 0.53804 0.0
C2449 C 0.36883 0.16034 0.52209 0.0
C2450 C 0.70983 0.70453 0.33956 0.0
C2451 C 0.70864 0.67474 0.32413 0.0
C2452 C 0.73369 0.72992 0.33664 0.0
C2453 C 0.75704 0.72676 0.31761 0.0
H2454 H 0.69243 0.7082 0.35424 0.0
H2455 H 0.7335 0.75234 0.34911 0.0
S2456 S 0.76194 0.65377 0.26944 0.0
N2457 N 0.7315 0.64378 0.28751 0.0
N2458 N 0.77571 0.69103 0.28168 0.0
C2459 C 0.75557 0.697 0.30166 0.0
C2460 C 0.73148 0.67123 0.30485 0.0
C2461 C 0.89001 0.43456 0.84821 0.0
C2462 C 0.88019 0.45512 0.82938 0.0
C2463 C 0.87202 0.40468 0.84628 0.0
C2464 C 0.84418 0.39432 0.82494 0.0
H2465 H 0.91141 0.44188 0.86498 0.0
H2466 H 0.8794 0.38993 0.86233 0.0
S2467 S 0.81055 0.43783 0.7673 0.0
N2468 N 0.84263 0.46219 0.78625 0.0
N2469 N 0.80827 0.40597 0.7834 0.0
C2470 C 0.83458 0.41423 0.80519 0.0
C2471 C 0.85289 0.44468 0.80707 0.0
C2472 C 0.08224 0.9141 0.0611 0.0
C2473 C 0.09339 0.90847 0.09216 0.0
C2474 C 0.07833 0.94382 0.05384 0.0
C2475 C 0.08461 0.97098 0.07698 0.0
H2476 H 0.07633 0.89503 0.04162 0.0
H2477 H 0.07009 0.94535 0.02933 0.0
S2478 S 0.11097 0.97002 0.16318 0.0
N2479 N 0.10897 0.93423 0.14683 0.0
N2480 N 0.101 0.98839 0.13378 0.0
C2481 C 0.0953 0.96569 0.10832 0.0
C2482 C 0.09973 0.93538 0.11565 0.0
C2483 C 0.93786 0.28449 0.88719 0.0
C2484 C 0.94045 0.29118 0.9207 0.0
C2485 C 0.91219 0.28834 0.86601 0.0
C2486 C 0.88593 0.29693 0.87663 0.0
H2487 H 0.95613 0.27631 0.87701 0.0
H2488 H 0.91289 0.28378 0.84086 0.0
S2489 S 0.87506 0.30512 0.96215 0.0
N2490 N 0.91095 0.30056 0.9634 0.0
N2491 N 0.86142 0.30335 0.92408 0.0
C2492 C 0.88621 0.29908 0.91016 0.0
C2493 C 0.91337 0.29703 0.93188 0.0
C2494 C 0.57423 0.21057 0.60986 0.0
C2495 C 0.59218 0.23285 0.59454 0.0
C2496 C 0.56931 0.1779 0.60036 0.0
C2497 C 0.5827 0.16435 0.57527 0.0
H2498 H 0.5636 0.21852 0.62975 0.0
H2499 H 0.55493 0.163 0.61349 0.0
S2500 S 0.6343 0.21157 0.52836 0.0
N2501 N 0.62534 0.23792 0.55372 0.0
N2502 N 0.61582 0.17773 0.53564 0.0
C2503 C 0.60123 0.1864 0.56 0.0
C2504 C 0.60611 0.21989 0.56966 0.0
C2505 C 0.61063 0.79315 0.40835 0.0
C2506 C 0.6075 0.80695 0.43894 0.0
C2507 C 0.63645 0.80414 0.39351 0.0
C2508 C 0.66024 0.8294 0.40874 0.0
H2509 H 0.5915 0.77575 0.39442 0.0
H2510 H 0.63614 0.79484 0.36883 0.0
S2511 S 0.66688 0.86878 0.49177 0.0
N2512 N 0.63298 0.84371 0.48581 0.0
N2513 N 0.6819 0.86378 0.45858 0.0
C2514 C 0.65933 0.8406 0.44089 0.0
C2515 C 0.63292 0.8295 0.45586 0.0
C2516 C 0.05609 0.2387 0.39855 0.0
C2517 C 0.0638 0.26723 0.41886 0.0
C2518 C 0.04659 0.21082 0.41027 0.0
C2519 C 0.04403 0.21025 0.44278 0.0
H2520 H 0.05688 0.23789 0.37324 0.0
H2521 H 0.04065 0.18954 0.39357 0.0
S2522 S 0.06093 0.27874 0.50591 0.0
N2523 N 0.06855 0.29311 0.47327 0.0
N2524 N 0.04977 0.24106 0.49499 0.0
C2525 C 0.05223 0.23862 0.46344 0.0
C2526 C 0.06229 0.26697 0.45157 0.0
C2527 C 0.66624 0.27874 0.28319 0.0
C2528 C 0.65103 0.2817 0.25274 0.0
C2529 C 0.69964 0.28388 0.29117 0.0
C2530 C 0.72063 0.29327 0.26967 0.0
H2531 H 0.65216 0.27193 0.30115 0.0
H2532 H 0.70912 0.28103 0.31488 0.0
S2533 S 0.69409 0.30435 0.18664 0.0
N2534 N 0.66123 0.29425 0.20087 0.0
N2535 N 0.72213 0.30461 0.2158 0.0
C2536 C 0.70565 0.29636 0.23929 0.0
C2537 C 0.6718 0.29045 0.23095 0.0
C2538 C 0.59837 0.97671 0.92605 0.0
C2539 C 0.58698 0.94516 0.92843 0.0
C2540 C 0.59444 1.00142 0.94878 0.0
C2541 C 0.57828 0.99627 0.97506 0.0
H2542 H 0.61061 0.98248 0.90646 0.0
H2543 H 0.60412 0.02486 0.94553 0.0
S2544 S 0.53904 0.91822 0.98939 0.0
N2545 N 0.55643 0.91091 0.9584 0.0
N2546 N 0.54747 0.95608 0.99866 0.0
C2547 C 0.56569 0.9648 0.97666 0.0
C2548 C 0.57038 0.93983 0.9542 0.0
C2549 C 0.96543 0.79937 0.7947 0.0
C2550 C 0.97118 0.78526 0.76473 0.0
C2551 C 0.93514 0.80298 0.8016 0.0
C2552 C 0.90703 0.79359 0.77917 0.0
H2553 H 0.98491 0.80786 0.81374 0.0
H2554 H 0.93392 0.81335 0.82542 0.0
S2555 S 0.90705 0.75609 0.69602 0.0
N2556 N 0.94385 0.76195 0.71199 0.0
N2557 N 0.88878 0.76915 0.72423 0.0
C2558 C 0.91232 0.77938 0.74899 0.0
C2559 C 0.94328 0.77528 0.74207 0.0
C2560 C 0.09867 0.08868 0.91351 0.0
C2561 C 0.12864 0.08431 0.91007 0.0
C2562 C 0.08487 0.08232 0.94118 0.0
C2563 C 0.1002 0.07115 0.96689 0.0
H2564 H 0.08602 0.09776 0.8951 0.0
H2565 H 0.06211 0.08671 0.94263 0.0
S2566 S 0.17783 0.05312 0.96912 0.0
N2567 N 0.17205 0.06584 0.93483 0.0
N2568 N 0.14658 0.05461 0.98562 0.0
C2569 C 0.1297 0.06598 0.96327 0.0
C2570 C 0.14365 0.07228 0.93535 0.0
C2571 C 0.89769 0.43042 0.61854 0.0
C2572 C 0.87085 0.4154 0.59697 0.0
C2573 C 0.90732 0.41729 0.64485 0.0
C2574 C 0.89072 0.38877 0.65012 0.0
H2575 H 0.91182 0.45196 0.61449 0.0
H2576 H 0.92782 0.42927 0.66134 0.0
S2577 S 0.81805 0.3408 0.60208 0.0
N2578 N 0.82687 0.37096 0.58357 0.0
N2579 N 0.84561 0.3463 0.63319 0.0
C2580 C 0.86346 0.37378 0.62941 0.0
C2581 C 0.85344 0.38709 0.60264 0.0
C2582 C 0.49082 0.04206 0.41114 0.0
C2583 C 0.46751 0.05874 0.40977 0.0
C2584 C 0.51208 0.0453 0.43895 0.0
C2585 C 0.51135 0.06584 0.46634 0.0
H2586 H 0.49163 0.02505 0.39116 0.0
H2587 H 0.52825 0.03046 0.43927 0.0
S2588 S 0.45692 0.11758 0.47364 0.0
N2589 N 0.44599 0.09799 0.43725 0.0
N2590 N 0.48676 0.10511 0.48928 0.0
C2591 C 0.4891 0.0839 0.46469 0.0
C2592 C 0.467 0.08011 0.43649 0.0
C2593 C 0.79224 0.78275 0.14892 0.0
C2594 C 0.79133 0.752 0.13601 0.0
C2595 C 0.79546 0.79255 0.18234 0.0
C2596 C 0.79854 0.77233 0.20489 0.0
H2597 H 0.79001 0.79942 0.13303 0.0
H2598 H 0.79576 0.81641 0.19054 0.0
S2599 S 0.79782 0.68933 0.18413 0.0
N2600 N 0.79368 0.70133 0.14919 0.0
N2601 N 0.8003 0.71969 0.21114 0.0
C2602 C 0.79784 0.74157 0.19229 0.0
C2603 C 0.79411 0.73149 0.15829 0.0
C2604 C 0.13135 0.10238 0.69801 0.0
C2605 C 0.11671 0.08304 0.71811 0.0
C2606 C 0.12123 0.09793 0.66466 0.0
C2607 C 0.09646 0.07335 0.64933 0.0
H2608 H 0.15077 0.12143 0.7082 0.0
H2609 H 0.13339 0.11367 0.65065 0.0
S2610 S 0.05058 1.01533 0.69052 0.0
N2611 N 0.07588 0.03815 0.71972 0.0
N2612 N 0.05773 0.02913 0.65741 0.0
C2613 C 0.08182 0.05361 0.66908 0.0
C2614 C 0.09163 0.05863 0.70322 0.0
C2615 C 0.82517 0.41515 0.39291 0.0
C2616 C 0.81592 0.41028 0.42245 0.0
C2617 C 0.82455 0.39014 0.36973 0.0
C2618 C 0.81371 0.35977 0.37483 0.0
H2619 H 0.83516 0.43809 0.3885 0.0
H2620 H 0.83378 0.39452 0.34826 0.0
S2621 S 0.77907 0.33532 0.44477 0.0
N2622 N 0.7903 0.37323 0.45338 0.0
N2623 N 0.78819 0.32634 0.4091 0.0
C2624 C 0.80098 0.35481 0.4027 0.0
C2625 C 0.80205 0.38012 0.42656 0.0
C2626 C 0.45257 0.98158 0.22357 0.0
C2627 C 0.43602 1.00471 0.22773 0.0
C2628 C 0.45564 0.96867 0.19297 0.0
C2629 C 0.44246 0.97885 0.16594 0.0
H2630 H 0.4629 0.97324 0.24406 0.0
H2631 H 0.46918 0.95139 0.19045 0.0
S2632 S 0.39712 0.03884 0.16437 0.0
N2633 N 0.40576 0.03674 0.20265 0.0
N2634 N 0.41277 1.0134 0.14499 0.0
C2635 C 0.42582 1.00187 0.16984 0.0
C2636 C 0.42218 1.01453 0.20087 0.0
C2637 C 0.8007 0.73488 0.91718 0.0
C2638 C 0.79074 0.74957 0.94411 0.0
C2639 C 0.80712 0.7493 0.89029 0.0
C2640 C 0.80394 0.77955 0.888 0.0
H2641 H 0.80366 0.71153 0.9166 0.0
H2642 H 0.81454 0.73625 0.87087 0.0
S2643 S 0.77873 0.82931 0.95119 0.0
N2644 N 0.77842 0.79709 0.96626 0.0
N2645 N 0.79003 0.82402 0.91593 0.0
C2646 C 0.7943 0.7949 0.91477 0.0
C2647 C 0.78789 0.78011 0.94254 0.0
C2648 C 0.8741 0.10019 0.07666 0.0
C2649 C 0.86967 0.13022 0.07857 0.0
C2650 C 0.89608 0.09145 0.05947 0.0
C2651 C 0.91462 0.1126 0.0439 0.0
H2652 H 0.85826 0.08254 0.08557 0.0
H2653 H 0.89631 0.06722 0.05597 0.0
S2654 S 0.91708 0.19599 0.04897 0.0
N2655 N 0.88882 0.18257 0.06876 0.0
N2656 N 0.93139 0.16625 0.03698 0.0
C2657 C 0.91318 0.14369 0.04924 0.0
C2658 C 0.8905 0.15257 0.06673 0.0
C2659 C 0.43284 0.48441 0.0787 0.0
C2660 C 0.4281 0.45267 0.0676 0.0
C2661 C 0.46001 0.50573 0.07526 0.0
C2662 C 0.48408 0.49629 0.06115 0.0
H2663 H 0.4149 0.49303 0.08926 0.0
H2664 H 0.46192 0.52981 0.08361 0.0
S2665 S 0.48563 0.4146 0.0342 0.0
N2666 N 0.4514 0.41225 0.04594 0.0
N2667 N 0.50276 0.45165 0.04045 0.0
C2668 C 0.48072 0.46409 0.05275 0.0
C2669 C 0.45282 0.44247 0.05593 0.0
C2670 C 0.42485 0.61409 0.77422 0.0
C2671 C 0.44222 0.6084 0.80171 0.0
C2672 C 0.40427 0.63378 0.7766 0.0
C2673 C 0.40072 0.64844 0.80649 0.0
H2674 H 0.42421 0.60039 0.75134 0.0
H2675 H 0.38907 0.63533 0.75535 0.0
S2676 S 0.44318 0.64357 0.88494 0.0
N2677 N 0.45675 0.62144 0.85911 0.0
N2678 N 0.41816 0.65825 0.86353 0.0
C2679 C 0.42021 0.64539 0.83362 0.0
C2680 C 0.44118 0.62559 0.83119 0.0
C2681 C 0.18657 0.63526 0.57397 0.0
C2682 C 0.20756 0.62142 0.59039 0.0
C2683 C 0.15567 0.61982 0.56501 0.0
C2684 C 0.14496 0.58965 0.57103 0.0
H2685 H 0.19414 0.65805 0.56771 0.0
H2686 H 0.14007 0.63195 0.55372 0.0
S2687 S 0.18907 0.54856 0.62354 0.0
N2688 N 0.21457 0.58015 0.62019 0.0
N2689 N 0.15646 0.54964 0.60125 0.0
C2690 C 0.16529 0.57676 0.59019 0.0
C2691 C 0.1967 0.59308 0.60032 0.0
C2692 C 0.74292 1.0018 0.79773 0.0
C2693 C 0.76016 1.01417 0.77512 0.0
C2694 C 0.75526 0.98476 0.81902 0.0
C2695 C 0.78473 0.97871 0.81757 0.0
H2696 H 0.72168 1.00872 0.80174 0.0
H2697 H 0.74261 0.97831 0.83809 0.0
S2698 S 0.8362 1.00152 0.75837 0.0
N2699 N 0.8058 1.01609 0.74937 0.0
N2700 N 0.82903 0.98317 0.78881 0.0
C2701 C 0.80051 0.98796 0.79252 0.0
C2702 C 0.78805 1.00576 0.77122 0.0
C2703 C 0.76272 0.95148 0.58088 0.0
C2704 C 0.766 0.93404 0.55237 0.0
C2705 C 0.74426 0.97325 0.58055 0.0
C2706 C 0.72798 0.97777 0.55182 0.0
H2707 H 0.77752 0.95119 0.60288 0.0
H2708 H 0.7447 0.98836 0.60248 0.0
S2709 S 0.72594 0.9353 0.47143 0.0
N2710 N 0.74907 0.92066 0.49525 0.0
N2711 N 0.7138 0.96089 0.4948 0.0
C2712 C 0.72837 0.95813 0.52378 0.0
C2713 C 0.74739 0.93626 0.52407 0.0
C2714 C 0.38779 0.43894 0.77577 0.0
C2715 C 0.41951 0.44509 0.78869 0.0
C2716 C 0.3665 0.41212 0.78014 0.0
C2717 C 0.37605 0.38978 0.79701 0.0
H2718 H 0.3792 0.45535 0.76267 0.0
H2719 H 0.34242 0.40889 0.76997 0.0
S2720 S 0.45796 0.39286 0.83093 0.0
N2721 N 0.46006 0.42533 0.81609 0.0
N2722 N 0.42098 0.37471 0.82333 0.0
C2723 C 0.40832 0.39487 0.808 0.0
C2724 C 0.42978 0.42237 0.80389 0.0
C2725 C 0.23899 0.69151 0.29054 0.0
C2726 C 0.25158 0.67064 0.2723 0.0
C2727 C 0.2545 0.72248 0.29805 0.0
C2728 C 0.28298 0.73328 0.28771 0.0
H2729 H 0.21779 0.68364 0.30011 0.0
H2730 H 0.24439 0.73778 0.31255 0.0
S2731 S 0.31894 0.68896 0.2297 0.0
N2732 N 0.28916 0.6635 0.23726 0.0
N2733 N 0.31907 0.72173 0.25194 0.0
C2734 C 0.2939 0.71298 0.26651 0.0
C2735 C 0.27789 0.68155 0.25861 0.0
C2736 C 0.52415 0.67664 0.48721 0.0
C2737 C 0.53152 0.70529 0.50836 0.0
C2738 C 0.52963 0.64798 0.49642 0.0
C2739 C 0.54344 0.64509 0.52759 0.0
H2740 H 0.51382 0.67616 0.46283 0.0
H2741 H 0.52308 0.62768 0.47839 0.0
S2742 S 0.56613 0.71181 0.59374 0.0
N2743 N 0.55289 0.72731 0.56335 0.0
N2744 N 0.56291 0.67507 0.58006 0.0
C2745 C 0.55065 0.67346 0.54908 0.0
C2746 C 0.54485 0.70264 0.53978 0.0
C2747 C 0.68813 0.33977 0.72835 0.0
C2748 C 0.69089 0.33959 0.69566 0.0
C2749 C 0.71327 0.33872 0.75181 0.0
C2750 C 0.74319 0.33791 0.74445 0.0
H2751 H 0.66586 0.33977 0.73597 0.0
H2752 H 0.70884 0.33809 0.77599 0.0
S2753 S 0.76423 0.33964 0.66274 0.0
N2754 N 0.72695 0.33974 0.65757 0.0
N2755 N 0.77409 0.33925 0.70117 0.0
C2756 C 0.74667 0.33912 0.71194 0.0
C2757 C 0.72076 0.33951 0.68787 0.0
C2758 C 0.03429 0.41137 0.03194 0.0
C2759 C 0.0338 0.39926 0.99935 0.0
C2760 C 0.03777 0.44406 0.04306 0.0
C2761 C 0.04109 0.46707 0.02248 0.0
H2762 H 0.03216 0.3956 0.04918 0.0
H2763 H 0.03848 0.4514 0.06827 0.0
S2764 S 0.03907 0.44974 0.93495 0.0
N2765 N 0.0359 0.41587 0.9468 0.0
N2766 N 0.04134 0.47416 0.96757 0.0
C2767 C 0.03965 0.45525 0.99015 0.0
C2768 C 0.03638 0.42265 0.97881 0.0
C2769 C 1.02122 0.84045 0.17684 0.0
C2770 C 1.01908 0.8137 0.155 0.0
C2771 C 1.00307 0.84031 0.20142 0.0
C2772 C 0.98217 0.8133 0.2055 0.0
H2773 H 0.0381 0.86142 0.17574 0.0
H2774 H 1.0064 0.86127 0.21824 0.0
S2775 S 0.96717 0.73715 0.15434 0.0
N2776 N 0.99361 0.75965 0.13848 0.0
N2777 N 0.9596 0.75924 0.18481 0.0
C2778 C 0.97866 0.7867 0.18293 0.0
C2779 C 0.99713 0.78692 0.1577 0.0
C2780 C 0.57838 0.37067 0.20312 0.0
C2781 C 0.5556 0.34814 0.18204 0.0
C2782 C 0.59156 0.39921 0.1942 0.0
C2783 C 0.58333 0.40634 0.16341 0.0
H2784 H 0.58654 0.36613 0.22659 0.0
H2785 H 0.60879 0.41559 0.2116 0.0
S2786 S 0.5239 0.35547 0.09918 0.0
N2787 N 0.52334 0.33633 0.12966 0.0
N2788 N 0.55073 0.3875 0.11171 0.0
C2789 C 0.56017 0.38407 0.14228 0.0
C2790 C 0.54573 0.35572 0.15186 0.0
C2791 C 0.97297 0.33258 0.31969 0.0
C2792 C 0.98981 0.35194 0.34799 0.0
C2793 C 0.93976 0.32778 0.31091 0.0
C2794 C 0.92077 0.34209 0.32957 0.0
H2795 H 0.98533 0.31984 0.30472 0.0
H2796 H 0.9287 0.312 0.2894 0.0
S2797 S 0.95217 0.39512 0.40583 0.0
N2798 N 0.98335 0.38536 0.39456 0.0
N2799 N 0.92273 0.37707 0.37792 0.0
C2800 C 0.93739 0.36192 0.35743 0.0
C2801 C 0.97099 0.36648 0.36659 0.0
C2802 C 0.03286 0.65607 0.66061 0.0
C2803 C 0.04433 0.68755 0.65848 0.0
C2804 C 0.03406 0.63182 0.63601 0.0
C2805 C 0.04737 0.63751 0.60808 0.0
H2806 H 1.02246 0.65006 0.68125 0.0
H2807 H 1.02456 0.60828 0.6391 0.0
S2808 S 0.08448 0.71587 0.59282 0.0
N2809 N 0.07127 0.72257 0.62675 0.0
N2810 N 0.07485 0.67812 0.58225 0.0
C2811 C 0.05983 0.66898 0.60647 0.0
C2812 C 0.05798 0.69348 0.63103 0.0
C2813 C 0.67202 0.82245 0.83513 0.0
C2814 C 0.66791 0.85239 0.84674 0.0
C2815 C 0.70104 0.81633 0.82648 0.0
C2816 C 0.72937 0.83928 0.82886 0.0
H2817 H 0.65221 0.80309 0.83221 0.0
H2818 H 0.70122 0.79279 0.81817 0.0
S2819 S 0.73402 0.9213 0.86197 0.0
N2820 N 0.69717 0.9051 0.86191 0.0
N2821 N 0.75017 0.89393 0.84722 0.0
C2822 C 0.72576 0.86917 0.8415 0.0
C2823 C 0.69601 0.8755 0.84976 0.0
C2824 C 0.53432 0.53544 0.69416 0.0
C2825 C 0.50339 0.53556 0.69838 0.0
C2826 C 0.5456 0.54008 0.66495 0.0
C2827 C 0.52715 0.54627 0.6381 0.0
H2828 H 0.55004 0.53111 0.71357 0.0
H2829 H 0.56916 0.53827 0.66347 0.0
S2830 S 0.44415 0.54926 0.63585 0.0
N2831 N 0.45414 0.54184 0.6721 0.0
N2832 N 0.47545 0.55174 0.61838 0.0
C2833 C 0.49607 0.54645 0.64197 0.0
C2834 C 0.48431 0.54096 0.67157 0.0
C2835 C 0.76014 0.21209 0.01914 0.0
C2836 C 0.77709 0.1901 1.01057 0.0
C2837 C 0.74656 0.22675 0.99629 0.0
C2838 C 0.74962 0.22011 0.9641 0.0
H2839 H 0.75604 0.21698 0.04352 0.0
H2840 H 0.7332 0.24311 1.00382 0.0
S2841 S 0.79535 0.16739 0.93021 0.0
N2842 N 0.79878 0.16442 0.96857 0.0
N2843 N 0.77295 0.19185 0.92504 0.0
C2844 C 0.7678 0.19923 0.95539 0.0
C2845 C 0.78156 0.18417 0.97879 0.0
C2846 C 0.153 0.54575 0.15399 0.0
C2847 C 0.16647 0.57253 0.1757 0.0
C2848 C 0.12854 0.54561 0.13018 0.0
C2849 C 0.1165 0.572 0.12821 0.0
H2850 H 0.16076 0.5247 0.15601 0.0
H2851 H 0.11836 0.52443 0.11385 0.0
S2852 S 0.14438 0.64776 0.17966 0.0
N2853 N 0.167 0.62616 0.19367 0.0
N2854 N 0.12004 0.62546 0.14942 0.0
C2855 C 0.12989 0.59886 0.14981 0.0
C2856 C 0.15528 0.59925 0.17343 0.0
C2857 C 0.84904 0.84309 0.45449 0.0
C2858 C 0.83428 0.86699 0.46373 0.0
C2859 C 0.84541 0.82903 0.42192 0.0
C2860 C 0.82744 0.83868 0.39695 0.0
H2861 H 0.86452 0.83609 0.47221 0.0
H2862 H 0.85764 0.81119 0.4162 0.0
S2863 S 0.78104 0.89777 0.40909 0.0
N2864 N 0.79826 0.89695 0.44523 0.0
N2865 N 0.79269 0.87219 0.38537 0.0
C2866 C 0.81162 0.86155 0.40645 0.0
C2867 C 0.81474 0.8752 0.43926 0.0
C2868 C 0.49312 0.55205 0.91566 0.0
C2869 C 0.50526 0.53836 0.88987 0.0
C2870 C 0.50706 0.55535 0.94764 0.0
C2871 C 0.53415 0.54507 0.95643 0.0
H2872 H 0.47192 0.56 0.91126 0.0
H2873 H 0.49589 0.56574 0.96578 0.0
S2874 S 0.57856 0.51145 0.89862 0.0
N2875 N 0.54819 0.5169 0.87564 0.0
N2876 N 0.57484 0.52365 0.93572 0.0
C2877 C 0.54787 0.53299 0.93093 0.0
C2878 C 0.53342 0.52951 0.8979 0.0
C2879 C 0.78955 0.22977 0.18722 0.0
C2880 C 0.81505 0.21626 0.18529 0.0
C2881 C 0.79183 0.25607 0.20915 0.0
C2882 C 0.81938 0.26882 0.23022 0.0
H2883 H 0.76838 0.22111 0.17024 0.0
H2884 H 0.77213 0.2666 0.20947 0.0
S2885 S 0.8925 0.24174 0.23469 0.0
N2886 N 0.86844 0.21721 0.20576 0.0
N2887 N 0.87266 0.26643 0.24816 0.0
C2888 C 0.84479 0.25502 0.22915 0.0
C2889 C 0.84257 0.22853 0.20643 0.0
C2890 C 0.20591 0.60854 0.38263 0.0
C2891 C 0.1941 0.60332 0.34994 0.0
C2892 C 0.19091 0.62284 0.40495 0.0
C2893 C 0.16378 0.63257 0.39516 0.0
H2894 H 0.22752 0.60261 0.39081 0.0
H2895 H 0.20129 0.62749 0.42985 0.0
S2896 S 0.12013 0.61929 0.31336 0.0
N2897 N 0.15112 0.60542 0.30951 0.0
N2898 N 0.12315 0.63211 0.35173 0.0
C2899 C 0.15035 0.6253 0.36302 0.0
C2900 C 0.16539 0.61057 0.34032 0.0
C2901 C 0.8332 0.89087 0.6816 0.0
C2902 C 0.83934 0.87188 0.6552 0.0
C2903 C 0.8283 0.8801 0.71119 0.0
C2904 C 0.82982 0.84984 0.71648 0.0
H2905 H 0.83159 0.91422 0.67926 0.0
H2906 H 0.82317 0.89573 0.73008 0.0
S2907 S 0.84823 0.79162 0.65622 0.0
N2908 N 0.84784 0.82149 0.63739 0.0
N2909 N 0.84068 0.80208 0.69223 0.0
C2910 C 0.8371 0.83114 0.69047 0.0
C2911 C 0.84125 0.84184 0.66028 0.0
C2912 C 0.75198 0.49098 0.51904 0.0
C2913 C 0.77898 0.48615 0.53615 0.0
C2914 C 0.72844 0.49874 0.53502 0.0
C2915 C 0.7315 0.50235 0.56856 0.0
H2916 H 0.74895 0.48845 0.49323 0.0
H2917 H 0.70767 0.50186 0.52106 0.0
S2918 S 0.79971 0.49592 0.62411 0.0
N2919 N 0.80857 0.48749 0.58821 0.0
N2920 N 0.76475 0.50293 0.61827 0.0
C2921 C 0.75881 0.49831 0.58585 0.0
C2922 C 0.78249 0.49004 0.56962 0.0
C2923 C 0.17121 0.16037 0.51322 0.0
C2924 C 0.20145 0.16235 0.52843 0.0
C2925 C 0.14613 0.13648 0.51676 0.0
C2926 C 0.14984 0.11397 0.53659 0.0
H2927 H 0.16692 0.17721 0.49818 0.0
H2928 H 0.12343 0.13611 0.50419 0.0
S2929 S 0.22441 0.11076 0.58382 0.0
N2930 N 0.23372 0.14055 0.56495 0.0
N2931 N 0.18677 0.09671 0.57258 0.0
C2932 C 0.18008 0.11614 0.55224 0.0
C2933 C 0.20569 0.1401 0.5481 0.0
C2934 C 0.18044 1.00367 0.78088 0.0
C2935 C 0.18512 1.01541 0.81355 0.0
C2936 C 0.19076 0.97749 0.76992 0.0
C2937 C 0.2058 0.96177 0.79125 0.0
H2938 H 0.17035 1.0158 0.76347 0.0
H2939 H 0.18804 0.97031 0.7444 0.0
S2940 S 0.21898 0.98052 0.87962 0.0
N2941 N 0.20304 1.00788 0.86739 0.0
N2942 N 0.22122 0.95783 0.84695 0.0
C2943 C 0.2088 0.97221 0.82416 0.0
C2944 C 0.19873 0.99918 0.83526 0.0
C2945 C 0.44824 0.99028 1.00255 0.0
C2946 C 0.42772 0.99814 0.02277 0.0
C2947 C 0.47702 1.01032 1.00291 0.0
C2948 C 0.4864 0.03798 0.02443 0.0
H2949 H 0.4415 0.96915 0.98559 0.0
H2950 H 0.4918 1.00442 0.98596 0.0
S2951 S 0.44371 0.06556 0.08664 0.0
N2952 N 0.4203 0.03307 0.06774 0.0
N2953 N 0.47476 0.07064 0.06866 0.0
C2954 C 0.46701 0.04505 0.04618 0.0
C2955 C 0.43755 0.02495 0.04546 0.0
C2956 C 0.88881 0.63532 0.82053 0.0
C2957 C 0.89002 0.60626 0.80527 0.0
C2958 C 0.8782 0.65645 0.80292 0.0
C2959 C 0.86793 0.64879 0.76974 0.0
H2960 H 0.896 0.64165 0.84606 0.0
H2961 H 0.87773 0.6788 0.81539 0.0
S2962 S 0.86397 0.57401 0.71984 0.0
N2963 N 0.87914 0.57018 0.75591 0.0
N2964 N 0.85802 0.60921 0.72304 0.0
C2965 C 0.86878 0.61952 0.75451 0.0
C2966 C 0.88005 0.59838 0.77228 0.0
C2967 C 0.87215 0.69395 0.07268 0.0
C2968 C 0.85841 0.68369 0.04065 0.0
C2969 C 0.89245 0.67849 0.08817 0.0
C2970 C 0.8998 0.65215 0.07233 0.0
H2971 H 0.86526 0.71238 0.08673 0.0
H2972 H 0.90094 0.6861 0.11335 0.0
S2973 S 0.87473 0.6195 0.98677 0.0
N2974 N 0.85797 0.64872 0.99217 0.0
N2975 N 0.8948 0.61898 0.02172 0.0
C2976 C 0.88879 0.64363 0.03952 0.0
C2977 C 0.86847 0.6596 0.0236 0.0
C2978 C 0.21167 0.20371 0.83932 0.0
C2979 C 0.20972 0.17382 0.82366 0.0
C2980 C 0.23581 0.22878 0.83622 0.0
C2981 C 0.25877 0.22525 0.81677 0.0
H2982 H 0.19466 0.2077 0.8544 0.0
H2983 H 0.23618 0.25125 0.84897 0.0
S2984 S 0.26161 0.15206 0.76766 0.0
N2985 N 0.2314 0.14249 0.78617 0.0
N2986 N 0.2762 0.18918 0.78011 0.0
C2987 C 0.25652 0.19545 0.8005 0.0
C2988 C 0.23209 0.16999 0.80384 0.0
C2989 C 0.38768 0.93339 0.35122 0.0
C2990 C 0.37675 0.95336 0.33233 0.0
C2991 C 0.36962 0.90392 0.35121 0.0
C2992 C 0.34063 0.89367 0.33183 0.0
H2993 H 0.4101 0.94078 0.36632 0.0
H2994 H 0.37805 0.88931 0.36689 0.0
S2995 S 0.30395 0.93544 0.27452 0.0
N2996 N 0.33702 0.9597 0.29095 0.0
N2997 N 0.30239 0.90449 0.29206 0.0
C2998 C 0.32977 0.91303 0.31224 0.0
C2999 C 0.34822 0.94289 0.312 0.0
C3000 C 0.5989 0.43281 0.61132 0.0
C3001 C 0.59117 0.40541 0.58824 0.0
C3002 C 0.59422 0.46256 0.60427 0.0
C3003 C 0.58157 0.46779 0.57348 0.0
H3004 H 0.60818 0.4313 0.63553 0.0
H3005 H 0.60029 0.48173 0.62362 0.0
S3006 S 0.55992 0.40553 0.50295 0.0
N3007 N 0.5713 0.38754 0.53201 0.0
N3008 N 0.56365 0.44161 0.51929 0.0
C3009 C 0.57457 0.4408 0.55017 0.0
C3010 C 0.57904 0.41063 0.55731 0.0
C3011 C 0.43766 0.78485 0.3903 0.0
C3012 C 0.44064 0.79112 0.42386 0.0
C3013 C 0.41155 0.78854 0.36969 0.0
C3014 C 0.3853 0.79648 0.38102 0.0
H3015 H 0.4559 0.77708 0.37965 0.0
H3016 H 0.41191 0.78448 0.34437 0.0
S3017 S 0.37615 0.80486 0.46693 0.0
N3018 N 0.41195 0.80023 0.46736 0.0
N3019 N 0.36178 0.80307 0.42906 0.0
C3020 C 0.38621 0.79868 0.41457 0.0
C3021 C 0.41374 0.7967 0.4357 0.0
C3022 C 0.1047 0.72101 0.07422 0.0
C3023 C 0.09144 0.73507 0.09917 0.0
C3024 C 0.09964 0.68792 0.06557 0.0
C3025 C 0.0812 0.66619 0.08136 0.0
H3026 H 0.11965 0.73572 0.06141 0.0
H3027 H 0.11027 0.67937 0.04602 0.0
S3028 S 0.04123 0.6902 0.14876 0.0
N3029 N 0.05919 0.72335 0.13964 0.0
N3030 N 0.04962 0.66314 0.12389 0.0
C3031 C 0.06793 0.68021 0.10631 0.0
C3032 C 0.07322 0.71366 0.11511 0.0
C3033 C 0.11129 0.30807 0.90273 0.0
C3034 C 0.1075 0.30959 0.9352 0.0
C3035 C 0.14047 0.31584 0.89308 0.0
C3036 C 0.16795 0.32513 0.91528 0.0
H3037 H 0.09127 0.30252 0.88423 0.0
H3038 H 0.14098 0.31629 0.86791 0.0
S3039 S 0.17174 0.32733 1.00324 0.0
N3040 N 0.13414 0.31789 0.98957 0.0
N3041 N 0.18947 0.33049 0.97166 0.0
C3042 C 0.16482 0.32402 0.94787 0.0
C3043 C 0.13464 0.31661 0.95775 0.0
C3044 C 0.59133 0.77547 0.95854 0.0
C3045 C 0.57061 0.77398 0.93042 0.0
C3046 C 0.58466 0.75489 0.98027 0.0
C3047 C 0.55693 0.73191 0.97493 0.0
H3048 H 0.61227 0.79371 0.96463 0.0
H3049 H 0.60071 0.7579 1.00222 0.0
S3050 S 0.49571 0.71686 0.9042 0.0
N3051 N 0.52199 0.7464 0.89755 0.0
N3052 N 0.50936 0.70768 0.93855 0.0
C3053 C 0.53686 0.72884 0.94602 0.0
C3054 C 0.54373 0.74987 0.92372 0.0
C3055 C 0.16965 0.80319 0.74222 0.0
C3056 C 0.14812 0.78652 0.75953 0.0
C3057 C 0.20292 0.8086 0.75024 0.0
C3058 C 0.21816 0.79732 0.776 0.0
H3059 H 0.16058 0.81224 0.72164 0.0
H3060 H 0.21693 0.82126 0.73516 0.0
S3061 S 0.17391 0.74935 0.82811 0.0
N3062 N 0.14601 0.75657 0.80304 0.0
N3063 N 0.20711 0.76706 0.81834 0.0
C3064 C 0.19694 0.77997 0.79325 0.0
C3065 C 0.16283 0.77452 0.78506 0.0
C3066 C 0.0771 0.47066 0.41513 0.0
C3067 C 0.08642 0.44428 0.4244 0.0
C3068 C 0.07348 0.4954 0.43768 0.0
C3069 C 0.07932 0.49572 0.47106 0.0
H3070 H 0.07156 0.47195 0.39005 0.0
H3071 H 0.06489 0.51393 0.42865 0.0
S3072 S 0.10835 0.43481 0.50884 0.0
N3073 N 0.10367 0.42188 0.4703 0.0
N3074 N 0.09813 0.46815 0.51178 0.0
C3075 C 0.09001 0.47023 0.48063 0.0
C3076 C 0.09331 0.44486 0.45775 0.0
C3077 C 0.45262 0.28275 0.2789 0.0
C3078 C 0.45403 0.27306 0.24599 0.0
C3079 C 0.4248 0.28943 0.2905 0.0
C3080 C 0.39579 0.28702 0.27036 0.0
H3081 H 0.47334 0.28562 0.29611 0.0
H3082 H 0.4262 0.29658 0.31585 0.0
S3083 S 0.38531 0.26453 0.18221 0.0
N3084 N 0.42132 0.2625 0.19379 0.0
N3085 N 0.37208 0.27511 0.2151 0.0
C3086 C 0.39706 0.27761 0.23775 0.0
C3087 C 0.42488 0.27079 0.22595 0.0
C3088 C 0.64134 0.57352 0.43478 0.0
C3089 C 0.62639 0.58507 0.40917 0.0
C3090 C 0.62754 0.56678 0.46195 0.0
C3091 C 0.59771 0.57106 0.46557 0.0
H3092 H 0.66439 0.5696 0.43405 0.0
H3093 H 0.64063 0.55817 0.48044 0.0
S3094 S 0.54812 0.60161 0.40658 0.0
N3095 N 0.57953 0.60069 0.38994 0.0
N3096 N 0.55373 0.58856 0.44081 0.0
C3097 C 0.58223 0.58252 0.44019 0.0
C3098 C 0.59637 0.58927 0.41221 0.0
C3099 C 0.36285 0.93801 0.13767 0.0
C3100 C 0.35439 0.91761 0.10866 0.0
C3101 C 0.37479 0.92833 0.16542 0.0
C3102 C 0.37887 0.89819 0.16458 0.0
H3103 H 0.36197 0.96199 0.13854 0.0
H3104 H 0.38265 0.94491 0.18706 0.0
S3105 S 0.35177 0.83381 0.09747 0.0
N3106 N 0.34447 0.86426 0.08271 0.0
N3107 N 0.36744 0.84638 0.13508 0.0
C3108 C 0.36704 0.87671 0.13692 0.0
C3109 C 0.35452 0.88636 0.1088 0.0
C3110 C 0.98786 0.53995 0.91895 0.0
C3111 C 0.96517 0.55737 0.9175 0.0
C3112 C 1.00965 0.54358 0.94622 0.0
C3113 C 1.00989 0.56506 0.97309 0.0
H3114 H 0.98827 0.52259 0.89912 0.0
H3115 H 1.02587 0.52877 0.9464 0.0
S3116 S 0.95701 0.61836 0.98029 0.0
N3117 N 0.94489 0.59785 0.94443 0.0
N3118 N 0.98662 0.60549 0.99587 0.0
C3119 C 0.98784 0.58335 0.97169 0.0
C3120 C 0.96524 0.57927 0.94387 0.0
C3121 C 0.29206 0.23233 0.6568 0.0
C3122 C 0.29238 0.25343 0.63472 0.0
C3123 C 0.29614 0.2419 0.69027 0.0
C3124 C 0.30061 0.27315 0.7037 0.0
H3125 H 0.28865 0.20798 0.64817 0.0
H3126 H 0.29555 0.2245 0.70576 0.0
S3127 S 0.30321 0.33806 0.65698 0.0
N3128 N 0.29746 0.30741 0.62944 0.0
N3129 N 0.30511 0.32525 0.69159 0.0
C3130 C 0.30085 0.2945 0.68192 0.0
C3131 C 0.29685 0.28475 0.64784 0.0
C3132 C 0.64085 0.58015 0.19543 0.0
C3133 C 0.61983 0.58165 0.21754 0.0
C3134 C 0.63124 0.5761 0.16193 0.0
C3135 C 0.6001 0.57388 0.14858 0.0
H3136 H 0.66516 0.58207 0.20406 0.0
H3137 H 0.64855 0.57514 0.14639 0.0
S3138 S 0.53537 0.57599 0.19554 0.0
N3139 N 0.56602 0.58008 0.22299 0.0
N3140 N 0.5481 0.57286 0.1609 0.0
C3141 C 0.57881 0.57521 0.17045 0.0
C3142 C 0.58856 0.57896 0.2045 0.0
C3143 C 0.3319 0.92536 0.90189 0.0
C3144 C 0.32177 0.91762 0.93025 0.0
C3145 C 0.32914 0.90263 0.87566 0.0
C3146 C 0.31548 0.87155 0.87662 0.0
H3147 H 0.34368 0.94872 0.90045 0.0
H3148 H 0.33884 0.90944 0.85497 0.0
S3149 S 0.27737 0.84129 0.94247 0.0
N3150 N 0.29259 0.87812 0.95608 0.0
N3151 N 0.28595 0.83549 0.90608 0.0
C3152 C 0.30195 0.86423 0.90358 0.0
C3153 C 0.30545 0.88727 0.93058 0.0
C3154 C 0.93459 0.5079 0.71077 0.0
C3155 C 0.95633 0.5166 0.73884 0.0
C3156 C 0.94245 0.49442 0.68279 0.0
C3157 C 0.97197 0.48835 0.68223 0.0
H3158 H 0.91112 0.51099 0.71052 0.0
H3159 H 0.92516 0.48832 0.66159 0.0
S3160 S 0.03865 0.51076 0.74765 0.0
N3161 N 1.00984 0.52148 0.76335 0.0
N3162 N 1.02416 0.49513 0.71039 0.0
C3163 C 0.99443 0.49825 0.70949 0.0
C3164 C 0.98671 0.51268 0.73793 0.0
C3165 C 0.29637 0.23231 0.41486 0.0
C3166 C 0.28709 0.2472 0.44211 0.0
C3167 C 0.30164 0.24638 0.38753 0.0
C3168 C 0.29792 0.27645 0.38517 0.0
H3169 H 0.29973 0.2091 0.41439 0.0
H3170 H 0.30867 0.23328 0.36787 0.0
S3171 S 0.27366 0.3264 0.44892 0.0
N3172 N 0.27452 0.29455 0.46436 0.0
N3173 N 0.28392 0.32082 0.41319 0.0
C3174 C 0.28878 0.29192 0.41219 0.0
C3175 C 0.28357 0.2775 0.44038 0.0
C3176 C 0.3746 0.60636 0.57872 0.0
C3177 C 0.36847 0.63571 0.58054 0.0
C3178 C 0.3983 0.59943 0.56321 0.0
C3179 C 0.41741 0.62185 0.54948 0.0
H3180 H 0.35899 0.58766 0.58636 0.0
H3181 H 0.3994 0.57544 0.55951 0.0
S3182 S 0.41587 0.70456 0.55593 0.0
N3183 N 0.38618 0.68893 0.57284 0.0
N3184 N 0.43263 0.67635 0.5449 0.0
C3185 C 0.41415 0.65245 0.55502 0.0
C3186 C 0.38933 0.65937 0.57052 0.0
C3187 C 0.9511 0.94765 0.54805 0.0
C3188 C 0.92916 0.95526 0.56651 0.0
C3189 C 0.97797 0.96973 0.54543 0.0
C3190 C 0.98466 1.00049 0.56156 0.0
H3191 H 0.9469 0.92477 0.53448 0.0
H3192 H 0.99348 0.96239 0.53023 0.0
S3193 S 0.9386 0.02884 0.62048 0.0
N3194 N 0.91822 0.99368 0.60567 0.0
N3195 N 0.96928 0.03457 0.60198 0.0
C3196 C 0.96397 1.00739 0.58227 0.0
C3197 C 0.93628 0.98495 0.58455 0.0
C3198 C 0.94579 0.12596 0.32942 0.0
C3199 C 0.94642 0.10696 0.30088 0.0
C3200 C 0.9242 0.14446 0.33105 0.0
C3201 C 0.90289 0.1447 0.3041 0.0
H3202 H 0.95926 0.12352 0.35147 0.0
H3203 H 0.92233 0.15643 0.35408 0.0
S3204 S 0.8987 0.10347 0.22271 0.0
N3205 N 0.9269 0.09295 0.24427 0.0
N3206 N 0.88643 0.12798 0.2473 0.0
C3207 C 0.90576 0.12879 0.2747 0.0
C3208 C 0.9278 0.11003 0.27304 0.0
C3209 C 0.69987 0.10406 0.09651 0.0
C3210 C 0.71127 0.13304 0.08823 0.0
C3211 C 0.66861 0.08921 0.08749 0.0
C3212 C 0.64767 0.10356 0.07113 0.0
H3213 H 0.71543 0.09231 0.10888 0.0
H3214 H 0.66123 0.066 0.09256 0.0
S3215 S 0.66535 0.18371 0.05319 0.0
N3216 N 0.69921 0.17804 0.06815 0.0
N3217 N 0.63978 0.15142 0.05394 0.0
C3218 C 0.65839 0.13426 0.06655 0.0
C3219 C 0.69041 0.14884 0.07466 0.0
C3220 C 0.2383 0.49811 0.30039 0.0
C3221 C 0.25611 0.51383 0.28003 0.0
C3222 C 0.25062 0.47909 0.31943 0.0
C3223 C 0.28086 0.47506 0.31817 0.0
H3224 H 0.21641 0.50347 0.30453 0.0
H3225 H 0.23738 0.46946 0.33687 0.0
S3226 S 0.3343 0.50723 0.26437 0.0
N3227 N 0.30302 0.52058 0.25593 0.0
N3228 N 0.32669 0.48528 0.29201 0.0
C3229 C 0.29733 0.48784 0.29514 0.0
C3230 C 0.28469 0.50706 0.2758 0.0
C3231 C 0.26017 0.46344 0.03267 0.0
C3232 C 0.26417 0.43675 0.04563 0.0
C3233 C 0.23239 0.4731 0.0315 0.0
C3234 C 0.20683 0.45663 0.04305 0.0
H3235 H 0.27866 0.47734 0.02293 0.0
H3236 H 0.23066 0.49315 0.02029 0.0
S3237 S 0.20477 0.38642 0.08136 0.0
N3238 N 0.24007 0.3948 0.0718 0.0
N3239 N 0.18738 0.41299 0.06947 0.0
C3240 C 0.21033 0.43027 0.0568 0.0
C3241 C 0.23903 0.4204 0.05818 0.0
C3242 C 0.89017 0.93938 0.27466 0.0
C3243 C 0.9217 0.94468 0.28799 0.0
C3244 C 0.86826 0.91267 0.27818 0.0
C3245 C 0.87707 0.8897 0.29452 0.0
H3246 H 0.88222 0.95637 0.26196 0.0
H3247 H 0.8443 0.91005 0.26787 0.0
S3248 S 0.95813 0.89112 0.33003 0.0
N3249 N 0.96119 0.92391 0.31572 0.0
N3250 N 0.92107 0.87339 0.32118 0.0
C3251 C 0.90917 0.89403 0.30595 0.0
C3252 C 0.9312 0.92142 0.30278 0.0
C3253 C 0.77816 0.18113 0.75623 0.0
C3254 C 0.74972 0.16948 0.76595 0.0
C3255 C 0.7926 0.21231 0.76429 0.0
C3256 C 0.77846 0.23294 0.7814 0.0
H3257 H 0.78999 0.16583 0.74366 0.0
H3258 H 0.81548 0.21988 0.758 0.0
S3259 S 0.69871 0.21462 0.80168 0.0
N3260 N 0.7047 0.181 0.78709 0.0
N3261 N 0.73063 0.24037 0.79967 0.0
C3262 C 0.74791 0.22202 0.78688 0.0
C3263 C 0.73368 0.19003 0.77961 0.0
loop_
_geom_bond_atom_site_label_1
_geom_bond_atom_site_label_2
_geom_bond_distance
_geom_bond_site_symmetry_2
_ccdc_geom_bond_type
Mn0 O5 2.095 . S
Mn0 O15 2.162 . S
Mn0 O16 2.297 . S
Mn0 O24 2.385 1_455 S
Mn0 O25 2.209 . S
Mn0 O26 2.094 . S
Mn1 O6 2.121 . S
Mn1 N8 2.257 . S
Mn1 N17 2.282 . S
Mn1 O25 2.215 . S
Mn1 O27 2.117 . S
C2 O24 1.234 . S
C2 O25 1.283 1_655 S
C3 O15 1.281 . S
C3 O16 1.236 . S
C4 O26 1.240 . S
C4 O27 1.264 . S
O5 Mn0 2.095 . S
O5 C14 1.250 . S
O6 Mn1 2.121 . S
O6 C14 1.258 . S
C7 N8 1.326 . S
C7 C11 1.460 . S
C7 H13 0.929 . S
N8 Mn1 2.257 . S
N8 C7 1.326 . S
N8 C12 1.362 . S
C9 C10 1.258 1_655 S
C9 C12 1.431 1_655 S
C9 C29 1.449 . S
C10 C9 1.258 1_455 S
C10 C11 1.477 . S
C10 H30 0.931 1_455 S
C11 C7 1.460 . S
C11 C10 1.477 . S
C11 H31 0.930 . S
C12 N8 1.362 . S
C12 C9 1.431 1_455 S
C12 C22 1.476 1_455 S
H13 C7 0.929 . S
C14 O5 1.250 . S
C14 O6 1.258 . S
O15 Mn0 2.162 . S
O15 C3 1.281 . S
O16 Mn0 2.297 . S
O16 C3 1.236 . S
N17 Mn1 2.282 . S
N17 C18 1.328 1_455 S
N17 C22 1.318 1_455 S
C18 N17 1.328 1_655 S
C18 C19 1.457 . S
C18 H23 0.918 1_655 S
C19 C18 1.457 . S
C19 C20 1.291 . S
C19 H32 0.931 . S
C20 C19 1.291 . S
C20 C21 1.373 . S
C20 H33 0.929 . S
C21 C20 1.373 . S
C21 C22 1.396 . S
C21 C28 1.403 . S
C22 C12 1.476 1_655 S
C22 N17 1.318 1_655 S
C22 C21 1.396 . S
H23 C18 0.918 1_455 S
O24 Mn0 2.385 1_655 S
O24 C2 1.234 . S
O25 Mn0 2.209 . S
O25 Mn1 2.215 . S
O25 C2 1.283 1_455 S
O26 Mn0 2.094 . S
O26 C4 1.240 . S
O27 Mn1 2.117 . S
O27 C4 1.264 . S
C28 C21 1.403 . S
C28 C29 1.399 . S
C28 H34 0.929 . S
C29 C9 1.449 . S
C29 C28 1.399 . S
C29 H35 0.930 . S
H30 C10 0.931 1_655 S
H31 C11 0.930 . S
H32 C19 0.931 . S
H33 C20 0.929 . S
H34 C28 0.929 . S
H35 C29 0.930 . S
Mn36 O41 2.095 1_455 S
Mn36 O51 2.162 . S
Mn36 O52 2.297 . S
Mn36 O60 2.385 . S
Mn36 O61 2.209 . S
Mn36 O62 2.094 . S
Mn37 O42 2.121 1_455 S
Mn37 N44 2.257 . S
Mn37 N53 2.282 . S
Mn37 O61 2.215 . S
Mn37 O63 2.117 . S
C38 O60 1.234 . S
C38 O61 1.283 . S
C39 O51 1.281 . S
C39 O52 1.236 . S
C40 O62 1.240 . S
C40 O63 1.264 . S
O41 Mn36 2.095 1_655 S
O41 C50 1.250 . S
O42 Mn37 2.121 1_655 S
O42 C50 1.258 . S
C43 N44 1.326 . S
C43 C47 1.460 . S
C43 H49 0.929 . S
N44 Mn37 2.257 . S
N44 C43 1.326 . S
N44 C48 1.362 . S
C45 C46 1.258 . S
C45 C48 1.431 . S
C45 C65 1.449 . S
C46 C45 1.258 . S
C46 C47 1.477 . S
C46 H66 0.931 . S
C47 C43 1.460 . S
C47 C46 1.477 . S
C47 H67 0.930 . S
C48 N44 1.362 . S
C48 C45 1.431 . S
C48 C58 1.476 . S
H49 C43 0.929 . S
C50 O41 1.250 . S
C50 O42 1.258 . S
O51 Mn36 2.162 . S
O51 C39 1.281 . S
O52 Mn36 2.297 . S
O52 C39 1.236 . S
N53 Mn37 2.282 . S
N53 C54 1.328 . S
N53 C58 1.318 . S
C54 N53 1.328 . S
C54 C55 1.457 . S
C54 H59 0.929 . S
C55 C54 1.457 . S
C55 C56 1.291 . S
C55 H68 0.931 . S
C56 C55 1.291 . S
C56 C57 1.373 . S
C56 H69 0.929 . S
C57 C56 1.373 . S
C57 C58 1.396 . S
C57 C64 1.403 . S
C58 C48 1.476 . S
C58 N53 1.318 . S
C58 C57 1.396 . S
H59 C54 0.929 . S
O60 Mn36 2.385 . S
O60 C38 1.234 . S
O61 Mn36 2.209 . S
O61 Mn37 2.215 . S
O61 C38 1.283 . S
O62 Mn36 2.094 . S
O62 C40 1.240 . S
O63 Mn37 2.117 . S
O63 C40 1.264 . S
C64 C57 1.403 . S
C64 C65 1.399 . S
C64 H70 0.929 . S
C65 C45 1.449 . S
C65 C64 1.399 . S
C65 H71 0.930 . S
H66 C46 0.931 . S
H67 C47 0.930 . S
H68 C55 0.931 . S
H69 C56 0.929 . S
H70 C64 0.929 . S
H71 C65 0.930 . S
Mn72 O77 2.095 . S
Mn72 O87 2.162 . S
Mn72 O88 2.297 . S
Mn72 O96 2.385 . S
Mn72 O97 2.209 . S
Mn72 O98 2.094 . S
Mn73 O78 2.121 . S
Mn73 N80 2.257 . S
Mn73 N89 2.282 . S
Mn73 O97 2.215 . S
Mn73 O99 2.117 . S
C74 O96 1.234 . S
C74 O97 1.283 . S
C75 O87 1.281 . S
C75 O88 1.236 . S
C76 O98 1.240 . S
C76 O99 1.264 . S
O77 Mn72 2.095 . S
O77 C86 1.250 . S
O78 Mn73 2.121 . S
O78 C86 1.258 . S
C79 N80 1.326 . S
C79 C83 1.460 . S
C79 H85 0.929 . S
N80 Mn73 2.257 . S
N80 C79 1.326 . S
N80 C84 1.362 . S
C81 C82 1.258 . S
C81 C84 1.431 . S
C81 C101 1.449 . S
C82 C81 1.258 . S
C82 C83 1.477 . S
C82 H102 0.931 . S
C83 C79 1.460 . S
C83 C82 1.477 . S
C83 H103 0.930 . S
C84 N80 1.362 . S
C84 C81 1.431 . S
C84 C94 1.476 . S
H85 C79 0.929 . S
C86 O77 1.250 . S
C86 O78 1.258 . S
O87 Mn72 2.162 . S
O87 C75 1.281 . S
O88 Mn72 2.297 . S
O88 C75 1.236 . S
N89 Mn73 2.282 . S
N89 C90 1.328 . S
N89 C94 1.318 . S
C90 N89 1.328 . S
C90 C91 1.457 . S
C90 H95 0.929 . S
C91 C90 1.457 . S
C91 C92 1.291 . S
C91 H104 0.931 . S
C92 C91 1.291 . S
C92 C93 1.373 . S
C92 H105 0.929 . S
C93 C92 1.373 . S
C93 C94 1.396 . S
C93 C100 1.403 . S
C94 C84 1.476 . S
C94 N89 1.318 . S
C94 C93 1.396 . S
H95 C90 0.929 . S
O96 Mn72 2.385 . S
O96 C74 1.234 . S
O97 Mn72 2.209 . S
O97 Mn73 2.215 . S
O97 C74 1.283 . S
O98 Mn72 2.094 . S
O98 C76 1.240 . S
O99 Mn73 2.117 . S
O99 C76 1.264 . S
C100 C93 1.403 . S
C100 C101 1.399 . S
C100 H106 0.929 . S
C101 C81 1.449 . S
C101 C100 1.399 . S
C101 H107 0.930 . S
H102 C82 0.931 . S
H103 C83 0.930 . S
H104 C91 0.931 . S
H105 C92 0.929 . S
H106 C100 0.929 . S
H107 C101 0.930 . S
Mn108 O113 2.095 . S
Mn108 O123 2.162 . S
Mn108 O124 2.297 . S
Mn108 O132 2.385 . S
Mn108 O133 2.209 . S
Mn108 O134 2.094 . S
Mn109 O114 2.121 . S
Mn109 N116 2.257 . S
Mn109 N125 2.282 . S
Mn109 O133 2.215 . S
Mn109 O135 2.117 . S
C110 O132 1.234 . S
C110 O133 1.283 . S
C111 O123 1.281 . S
C111 O124 1.236 . S
C112 O134 1.240 . S
C112 O135 1.264 . S
O113 Mn108 2.095 . S
O113 C122 1.250 . S
O114 Mn109 2.121 . S
O114 C122 1.258 . S
C115 N116 1.326 . S
C115 C119 1.460 . S
C115 H121 0.929 . S
N116 Mn109 2.257 . S
N116 C115 1.326 . S
N116 C120 1.362 . S
C117 C118 1.258 . S
C117 C120 1.431 . S
C117 C137 1.449 . S
C118 C117 1.258 . S
C118 C119 1.477 . S
C118 H138 0.931 . S
C119 C115 1.460 . S
C119 C118 1.477 . S
C119 H139 0.930 . S
C120 N116 1.362 . S
C120 C117 1.431 . S
C120 C130 1.476 . S
H121 C115 0.929 . S
C122 O113 1.250 . S
C122 O114 1.258 . S
O123 Mn108 2.162 . S
O123 C111 1.281 . S
O124 Mn108 2.297 . S
O124 C111 1.236 . S
N125 Mn109 2.282 . S
N125 C126 1.328 . S
N125 C130 1.318 . S
C126 N125 1.328 . S
C126 C127 1.457 . S
C126 H131 0.929 . S
C127 C126 1.457 . S
C127 C128 1.291 . S
C127 H140 0.931 . S
C128 C127 1.291 . S
C128 C129 1.373 . S
C128 H141 0.929 . S
C129 C128 1.373 . S
C129 C130 1.396 . S
C129 C136 1.403 . S
C130 C120 1.476 . S
C130 N125 1.318 . S
C130 C129 1.396 . S
H131 C126 0.929 . S
O132 Mn108 2.385 . S
O132 C110 1.234 . S
O133 Mn108 2.209 . S
O133 Mn109 2.215 . S
O133 C110 1.283 . S
O134 Mn108 2.094 . S
O134 C112 1.240 . S
O135 Mn109 2.117 . S
O135 C112 1.264 . S
C136 C129 1.403 . S
C136 C137 1.399 . S
C136 H142 0.929 . S
C137 C117 1.449 . S
C137 C136 1.399 . S
C137 H143 0.930 . S
H138 C118 0.931 . S
H139 C119 0.930 . S
H140 C127 0.931 . S
H141 C128 0.929 . S
H142 C136 0.929 . S
H143 C137 0.930 . S
Mn144 O149 2.095 . S
Mn144 O159 2.162 . S
Mn144 O160 2.297 . S
Mn144 O168 2.385 . S
Mn144 O169 2.209 . S
Mn144 O170 2.094 . S
Mn145 O150 2.121 . S
Mn145 N152 2.257 . S
Mn145 N161 2.282 1_455 S
Mn145 O169 2.215 . S
Mn145 O171 2.117 . S
C146 O168 1.234 . S
C146 O169 1.283 . S
C147 O159 1.281 . S
C147 O160 1.236 . S
C148 O170 1.240 . S
C148 O171 1.264 . S
O149 Mn144 2.095 . S
O149 C158 1.250 . S
O150 Mn145 2.121 . S
O150 C158 1.258 . S
C151 N152 1.326 1_556 S
C151 C155 1.460 . S
C151 H157 0.929 1_556 S
N152 Mn145 2.257 . S
N152 C151 1.326 1_554 S
N152 C156 1.362 . S
C153 C154 1.258 . S
C153 C156 1.431 1_556 S
C153 C173 1.449 1_455 S
C154 C153 1.258 . S
C154 C155 1.477 . S
C154 H174 0.931 . S
C155 C151 1.460 . S
C155 C154 1.477 . S
C155 H175 0.930 . S
C156 N152 1.362 . S
C156 C153 1.431 1_554 S
C156 C166 1.476 1_455 S
H157 C151 0.929 1_554 S
C158 O149 1.250 . S
C158 O150 1.258 . S
O159 Mn144 2.162 . S
O159 C147 1.281 . S
O160 Mn144 2.297 . S
O160 C147 1.236 . S
N161 Mn145 2.282 1_655 S
N161 C162 1.328 . S
N161 C166 1.318 . S
C162 N161 1.328 . S
C162 C163 1.457 . S
C162 H167 0.929 . S
C163 C162 1.457 . S
C163 C164 1.291 . S
C163 H176 0.931 . S
C164 C163 1.291 . S
C164 C165 1.373 . S
C164 H177 0.929 . S
C165 C164 1.373 . S
C165 C166 1.396 . S
C165 C172 1.403 1_554 S
C166 C156 1.476 1_655 S
C166 N161 1.318 . S
C166 C165 1.396 . S
H167 C162 0.929 . S
O168 Mn144 2.385 . S
O168 C146 1.234 . S
O169 Mn144 2.209 . S
O169 Mn145 2.215 . S
O169 C146 1.283 . S
O170 Mn144 2.094 . S
O170 C148 1.240 . S
O171 Mn145 2.117 . S
O171 C148 1.264 . S
C172 C165 1.403 1_556 S
C172 C173 1.399 . S
C172 H178 0.929 . S
C173 C153 1.449 1_655 S
C173 C172 1.399 . S
C173 H179 0.930 . S
H174 C154 0.931 . S
H175 C155 0.930 . S
H176 C163 0.931 . S
H177 C164 0.929 . S
H178 C172 0.929 . S
H179 C173 0.930 . S
Mn180 O185 2.095 . S
Mn180 O195 2.162 . S
Mn180 O196 2.297 . S
Mn180 O204 2.385 . S
Mn180 O205 2.209 . S
Mn180 O206 2.094 . S
Mn181 O186 2.121 . S
Mn181 N188 2.257 . S
Mn181 N197 2.282 . S
Mn181 O205 2.215 . S
Mn181 O207 2.117 . S
C182 O204 1.234 . S
C182 O205 1.283 . S
C183 O195 1.281 . S
C183 O196 1.236 . S
C184 O206 1.240 . S
C184 O207 1.264 . S
O185 Mn180 2.095 . S
O185 C194 1.250 . S
O186 Mn181 2.121 . S
O186 C194 1.258 . S
C187 N188 1.326 . S
C187 C191 1.460 . S
C187 H193 0.929 . S
N188 Mn181 2.257 . S
N188 C187 1.326 . S
N188 C192 1.362 . S
C189 C190 1.258 . S
C189 C192 1.431 . S
C189 C209 1.449 . S
C190 C189 1.258 . S
C190 C191 1.477 . S
C190 H210 0.931 . S
C191 C187 1.460 . S
C191 C190 1.477 . S
C191 H211 0.930 . S
C192 N188 1.362 . S
C192 C189 1.431 . S
C192 C202 1.476 . S
H193 C187 0.929 . S
C194 O185 1.250 . S
C194 O186 1.258 . S
O195 Mn180 2.162 . S
O195 C183 1.281 . S
O196 Mn180 2.297 . S
O196 C183 1.236 . S
N197 Mn181 2.282 . S
N197 C198 1.328 . S
N197 C202 1.318 . S
C198 N197 1.328 . S
C198 C199 1.457 . S
C198 H203 0.929 . S
C199 C198 1.457 . S
C199 C200 1.291 . S
C199 H212 0.931 . S
C200 C199 1.291 . S
C200 C201 1.373 . S
C200 H213 0.929 . S
C201 C200 1.373 . S
C201 C202 1.396 . S
C201 C208 1.403 . S
C202 C192 1.476 . S
C202 N197 1.318 . S
C202 C201 1.396 . S
H203 C198 0.929 . S
O204 Mn180 2.385 . S
O204 C182 1.234 . S
O205 Mn180 2.209 . S
O205 Mn181 2.215 . S
O205 C182 1.283 . S
O206 Mn180 2.094 . S
O206 C184 1.240 . S
O207 Mn181 2.117 . S
O207 C184 1.264 . S
C208 C201 1.403 . S
C208 C209 1.399 . S
C208 H214 0.929 . S
C209 C189 1.449 . S
C209 C208 1.399 . S
C209 H215 0.930 . S
H210 C190 0.931 . S
H211 C191 0.930 . S
H212 C199 0.931 . S
H213 C200 0.929 . S
H214 C208 0.929 . S
H215 C209 0.930 . S
Mn216 O221 2.095 . S
Mn216 O231 2.162 . S
Mn216 O232 2.297 . S
Mn216 O240 2.385 . S
Mn216 O241 2.209 . S
Mn216 O242 2.094 . S
Mn217 O222 2.121 . S
Mn217 N224 2.257 . S
Mn217 N233 2.282 . S
Mn217 O241 2.215 . S
Mn217 O243 2.117 . S
C218 O240 1.234 . S
C218 O241 1.283 . S
C219 O231 1.281 . S
C219 O232 1.236 . S
C220 O242 1.240 . S
C220 O243 1.264 . S
O221 Mn216 2.095 . S
O221 C230 1.250 . S
O222 Mn217 2.121 . S
O222 C230 1.258 . S
C223 N224 1.326 . S
C223 C227 1.460 . S
C223 H229 0.929 . S
N224 Mn217 2.257 . S
N224 C223 1.326 . S
N224 C228 1.362 . S
C225 C226 1.258 . S
C225 C228 1.431 . S
C225 C245 1.449 . S
C226 C225 1.258 . S
C226 C227 1.477 . S
C226 H246 0.931 . S
C227 C223 1.460 . S
C227 C226 1.477 . S
C227 H247 0.930 . S
C228 N224 1.362 . S
C228 C225 1.431 . S
C228 C238 1.476 . S
H229 C223 0.929 . S
C230 O221 1.250 . S
C230 O222 1.258 . S
O231 Mn216 2.162 . S
O231 C219 1.281 . S
O232 Mn216 2.297 . S
O232 C219 1.236 . S
N233 Mn217 2.282 . S
N233 C234 1.328 . S
N233 C238 1.318 . S
C234 N233 1.328 . S
C234 C235 1.457 . S
C234 H239 0.929 . S
C235 C234 1.457 . S
C235 C236 1.291 . S
C235 H248 0.931 . S
C236 C235 1.291 . S
C236 C237 1.373 . S
C236 H249 0.929 . S
C237 C236 1.373 . S
C237 C238 1.396 . S
C237 C244 1.403 . S
C238 C228 1.476 . S
C238 N233 1.318 . S
C238 C237 1.396 . S
H239 C234 0.929 . S
O240 Mn216 2.385 . S
O240 C218 1.234 . S
O241 Mn216 2.209 . S
O241 Mn217 2.215 . S
O241 C218 1.283 . S
O242 Mn216 2.094 . S
O242 C220 1.240 . S
O243 Mn217 2.117 . S
O243 C220 1.264 . S
C244 C237 1.403 . S
C244 C245 1.399 . S
C244 H250 0.929 . S
C245 C225 1.449 . S
C245 C244 1.399 . S
C245 H251 0.930 . S
H246 C226 0.931 . S
H247 C227 0.930 . S
H248 C235 0.931 . S
H249 C236 0.929 . S
H250 C244 0.929 . S
H251 C245 0.930 . S
Mn252 O257 2.102 . S
Mn252 O267 2.162 1_556 S
Mn252 O268 2.298 1_455 S
Mn252 O276 2.377 1_455 S
Mn252 O277 2.205 1_455 S
Mn252 O278 2.078 1_556 S
Mn253 O258 2.121 1_655 S
Mn253 N260 2.257 . S
Mn253 N269 2.282 . S
Mn253 O277 2.215 . S
Mn253 O279 2.117 1_655 S
C254 O276 1.234 . S
C254 O277 1.283 . S
C255 O267 1.281 1_656 S
C255 O268 1.236 . S
C256 O278 1.224 1_556 S
C256 O279 1.264 . S
O257 Mn252 2.102 . S
O257 C266 1.250 . S
O258 Mn253 2.121 1_455 S
O258 C266 1.258 . S
C259 N260 1.326 . S
C259 C263 1.460 . S
C259 H265 0.929 1_655 S
N260 Mn253 2.257 . S
N260 C259 1.326 . S
N260 C264 1.362 . S
C261 C262 1.258 . S
C261 C264 1.431 . S
C261 C281 1.449 . S
C262 C261 1.258 . S
C262 C263 1.477 . S
C262 H282 0.931 . S
C263 C259 1.460 . S
C263 C262 1.477 . S
C263 H283 0.930 . S
C264 N260 1.362 . S
C264 C261 1.431 . S
C264 C274 1.476 . S
H265 C259 0.929 1_455 S
C266 O257 1.250 . S
C266 O258 1.258 . S
O267 Mn252 2.162 1_554 S
O267 C255 1.281 1_454 S
O268 Mn252 2.298 1_655 S
O268 C255 1.236 . S
N269 Mn253 2.282 . S
N269 C270 1.328 . S
N269 C274 1.318 . S
C270 N269 1.328 . S
C270 C271 1.457 . S
C270 H275 0.929 . S
C271 C270 1.457 . S
C271 C272 1.291 . S
C271 H284 0.931 . S
C272 C271 1.291 . S
C272 C273 1.373 . S
C272 H285 0.929 . S
C273 C272 1.373 . S
C273 C274 1.396 . S
C273 C280 1.403 . S
C274 C264 1.476 . S
C274 N269 1.318 . S
C274 C273 1.396 . S
H275 C270 0.929 . S
O276 Mn252 2.377 1_655 S
O276 C254 1.234 . S
O277 Mn252 2.205 1_655 S
O277 Mn253 2.215 . S
O277 C254 1.283 . S
O278 Mn252 2.078 1_554 S
O278 C256 1.224 1_554 S
O279 Mn253 2.117 1_455 S
O279 C256 1.264 . S
C280 C273 1.403 . S
C280 C281 1.399 . S
C280 H286 0.929 . S
C281 C261 1.449 . S
C281 C280 1.399 . S
C281 H287 0.930 . S
H282 C262 0.931 . S
H283 C263 0.930 . S
H284 C271 0.931 . S
H285 C272 0.929 . S
H286 C280 0.929 . S
H287 C281 0.930 . S
Mn288 O293 2.095 . S
Mn288 O303 2.162 . S
Mn288 O304 2.297 . S
Mn288 O312 2.385 1_545 S
Mn288 O313 2.209 1_545 S
Mn288 O314 2.094 . S
Mn289 O294 2.121 1_565 S
Mn289 N296 2.257 . S
Mn289 N305 2.282 . S
Mn289 O313 2.215 . S
Mn289 O315 2.117 1_565 S
C290 O312 1.234 . S
C290 O313 1.283 . S
C291 O303 1.281 . S
C291 O304 1.236 . S
C292 O314 1.240 . S
C292 O315 1.264 . S
O293 Mn288 2.095 . S
O293 C302 1.250 . S
O294 Mn289 2.121 1_545 S
O294 C302 1.258 . S
C295 N296 1.326 . S
C295 C299 1.460 . S
C295 H301 0.929 1_565 S
N296 Mn289 2.257 . S
N296 C295 1.326 . S
N296 C300 1.362 . S
C297 C298 1.258 . S
C297 C300 1.431 . S
C297 C317 1.449 . S
C298 C297 1.258 . S
C298 C299 1.477 . S
C298 H318 0.931 . S
C299 C295 1.460 . S
C299 C298 1.477 . S
C299 H319 0.930 . S
C300 N296 1.362 . S
C300 C297 1.431 . S
C300 C310 1.476 . S
H301 C295 0.929 1_545 S
C302 O293 1.250 . S
C302 O294 1.258 . S
O303 Mn288 2.162 . S
O303 C291 1.281 . S
O304 Mn288 2.297 . S
O304 C291 1.236 . S
N305 Mn289 2.282 . S
N305 C306 1.328 . S
N305 C310 1.318 . S
C306 N305 1.328 . S
C306 C307 1.457 . S
C306 H311 0.929 . S
C307 C306 1.457 . S
C307 C308 1.291 . S
C307 H320 0.931 . S
C308 C307 1.291 . S
C308 C309 1.373 . S
C308 H321 0.929 . S
C309 C308 1.373 . S
C309 C310 1.396 . S
C309 C316 1.403 . S
C310 C300 1.476 . S
C310 N305 1.318 . S
C310 C309 1.396 . S
H311 C306 0.929 . S
O312 Mn288 2.385 1_565 S
O312 C290 1.234 . S
O313 Mn288 2.209 1_565 S
O313 Mn289 2.215 . S
O313 C290 1.283 . S
O314 Mn288 2.094 . S
O314 C292 1.240 . S
O315 Mn289 2.117 1_545 S
O315 C292 1.264 . S
C316 C309 1.403 . S
C316 C317 1.399 . S
C316 H322 0.929 . S
C317 C297 1.449 . S
C317 C316 1.399 . S
C317 H323 0.930 . S
H318 C298 0.931 . S
H319 C299 0.930 . S
H320 C307 0.931 . S
H321 C308 0.929 . S
H322 C316 0.929 . S
H323 C317 0.930 . S
Mn324 O329 2.095 . S
Mn324 O339 2.162 . S
Mn324 O340 2.297 . S
Mn324 O348 2.385 . S
Mn324 O349 2.209 . S
Mn324 O350 2.094 . S
Mn325 O330 2.121 . S
Mn325 N332 2.257 . S
Mn325 N341 2.282 . S
Mn325 O349 2.215 . S
Mn325 O351 2.117 . S
C326 O348 1.234 . S
C326 O349 1.283 . S
C327 O339 1.281 . S
C327 O340 1.236 . S
C328 O350 1.240 . S
C328 O351 1.264 . S
O329 Mn324 2.095 . S
O329 C338 1.250 . S
O330 Mn325 2.121 . S
O330 C338 1.258 . S
C331 N332 1.326 . S
C331 C335 1.460 . S
C331 H337 0.929 . S
N332 Mn325 2.257 . S
N332 C331 1.326 . S
N332 C336 1.362 . S
C333 C334 1.258 . S
C333 C336 1.431 . S
C333 C353 1.449 . S
C334 C333 1.258 . S
C334 C335 1.477 . S
C334 H354 0.931 . S
C335 C331 1.460 . S
C335 C334 1.477 . S
C335 H355 0.930 . S
C336 N332 1.362 . S
C336 C333 1.431 . S
C336 C346 1.476 . S
H337 C331 0.929 . S
C338 O329 1.250 . S
C338 O330 1.258 . S
O339 Mn324 2.162 . S
O339 C327 1.281 . S
O340 Mn324 2.297 . S
O340 C327 1.236 . S
N341 Mn325 2.282 . S
N341 C342 1.328 . S
N341 C346 1.318 . S
C342 N341 1.328 . S
C342 C343 1.457 . S
C342 H347 0.929 . S
C343 C342 1.457 . S
C343 C344 1.291 . S
C343 H356 0.931 . S
C344 C343 1.291 . S
C344 C345 1.373 . S
C344 H357 0.929 . S
C345 C344 1.373 . S
C345 C346 1.396 . S
C345 C352 1.403 . S
C346 C336 1.476 . S
C346 N341 1.318 . S
C346 C345 1.396 . S
H347 C342 0.929 . S
O348 Mn324 2.385 . S
O348 C326 1.234 . S
O349 Mn324 2.209 . S
O349 Mn325 2.215 . S
O349 C326 1.283 . S
O350 Mn324 2.094 . S
O350 C328 1.240 . S
O351 Mn325 2.117 . S
O351 C328 1.264 . S
C352 C345 1.403 . S
C352 C353 1.399 . S
C352 H358 0.929 . S
C353 C333 1.449 . S
C353 C352 1.399 . S
C353 H359 0.930 . S
H354 C334 0.931 . S
H355 C335 0.930 . S
H356 C343 0.931 . S
H357 C344 0.929 . S
H358 C352 0.929 . S
H359 C353 0.930 . S
Mn360 O365 2.095 . S
Mn360 O375 2.162 . S
Mn360 O376 2.297 . S
Mn360 O384 2.385 . S
Mn360 O385 2.209 . S
Mn360 O386 2.094 . S
Mn361 O366 2.121 . S
Mn361 N368 2.257 . S
Mn361 N377 2.282 . S
Mn361 O385 2.215 . S
Mn361 O387 2.117 . S
C362 O384 1.234 . S
C362 O385 1.283 . S
C363 O375 1.281 . S
C363 O376 1.236 . S
C364 O386 1.240 . S
C364 O387 1.264 . S
O365 Mn360 2.095 . S
O365 C374 1.250 . S
O366 Mn361 2.121 . S
O366 C374 1.258 . S
C367 N368 1.326 . S
C367 C371 1.460 . S
C367 H373 0.929 . S
N368 Mn361 2.257 . S
N368 C367 1.326 . S
N368 C372 1.362 . S
C369 C370 1.258 . S
C369 C372 1.431 . S
C369 C389 1.449 . S
C370 C369 1.258 . S
C370 C371 1.477 . S
C370 H390 0.931 . S
C371 C367 1.460 . S
C371 C370 1.477 . S
C371 H391 0.930 . S
C372 N368 1.362 . S
C372 C369 1.431 . S
C372 C382 1.476 . S
H373 C367 0.929 . S
C374 O365 1.250 . S
C374 O366 1.258 . S
O375 Mn360 2.162 . S
O375 C363 1.281 . S
O376 Mn360 2.297 . S
O376 C363 1.236 . S
N377 Mn361 2.282 . S
N377 C378 1.328 . S
N377 C382 1.318 . S
C378 N377 1.328 . S
C378 C379 1.457 . S
C378 H383 0.929 . S
C379 C378 1.457 . S
C379 C380 1.291 . S
C379 H392 0.931 . S
C380 C379 1.291 . S
C380 C381 1.373 . S
C380 H393 0.929 . S
C381 C380 1.373 . S
C381 C382 1.396 . S
C381 C388 1.403 . S
C382 C372 1.476 . S
C382 N377 1.318 . S
C382 C381 1.396 . S
H383 C378 0.929 . S
O384 Mn360 2.385 . S
O384 C362 1.234 . S
O385 Mn360 2.209 . S
O385 Mn361 2.215 . S
O385 C362 1.283 . S
O386 Mn360 2.094 . S
O386 C364 1.240 . S
O387 Mn361 2.117 . S
O387 C364 1.264 . S
C388 C381 1.403 . S
C388 C389 1.399 . S
C388 H394 0.929 . S
C389 C369 1.449 . S
C389 C388 1.399 . S
C389 H395 0.930 . S
H390 C370 0.931 . S
H391 C371 0.930 . S
H392 C379 0.931 . S
H393 C380 0.929 . S
H394 C388 0.929 . S
H395 C389 0.930 . S
Mn396 O401 2.095 1_554 S
Mn396 O411 2.162 . S
Mn396 O412 2.297 . S
Mn396 O420 2.385 . S
Mn396 O421 2.214 . S
Mn396 O422 2.094 1_554 S
Mn397 O402 2.121 . S
Mn397 N404 2.257 1_565 S
Mn397 N413 2.282 1_565 S
Mn397 O421 2.196 1_556 S
Mn397 O423 2.117 . S
C398 O420 1.234 . S
C398 O421 1.286 . S
C399 O411 1.281 . S
C399 O412 1.236 . S
C400 O422 1.240 . S
C400 O423 1.264 . S
O401 Mn396 2.095 1_556 S
O401 C410 1.250 . S
O402 Mn397 2.121 . S
O402 C410 1.258 . S
C403 N404 1.326 . S
C403 C407 1.460 . S
C403 H409 0.929 . S
N404 Mn397 2.257 1_545 S
N404 C403 1.326 . S
N404 C408 1.362 . S
C405 C406 1.258 . S
C405 C408 1.431 . S
C405 C425 1.449 . S
C406 C405 1.258 . S
C406 C407 1.477 . S
C406 H426 0.931 . S
C407 C403 1.460 . S
C407 C406 1.477 . S
C407 H427 0.932 1_556 S
C408 N404 1.362 . S
C408 C405 1.431 . S
C408 C418 1.476 . S
H409 C403 0.929 . S
C410 O401 1.250 . S
C410 O402 1.258 . S
O411 Mn396 2.162 . S
O411 C399 1.281 . S
O412 Mn396 2.297 . S
O412 C399 1.236 . S
N413 Mn397 2.282 1_545 S
N413 C414 1.327 1_545 S
N413 C418 1.319 . S
C414 N413 1.327 1_565 S
C414 C415 1.457 . S
C414 H419 0.929 . S
C415 C414 1.457 . S
C415 C416 1.291 1_565 S
C415 H428 0.931 . S
C416 C415 1.291 1_545 S
C416 C417 1.373 . S
C416 H429 0.929 . S
C417 C416 1.373 . S
C417 C418 1.396 . S
C417 C424 1.403 . S
C418 C408 1.476 . S
C418 N413 1.319 . S
C418 C417 1.396 . S
H419 C414 0.929 . S
O420 Mn396 2.385 . S
O420 C398 1.234 . S
O421 Mn396 2.214 . S
O421 Mn397 2.196 1_554 S
O421 C398 1.286 . S
O422 Mn396 2.094 1_556 S
O422 C400 1.240 . S
O423 Mn397 2.117 . S
O423 C400 1.264 . S
C424 C417 1.403 . S
C424 C425 1.399 . S
C424 H430 0.929 . S
C425 C405 1.449 . S
C425 C424 1.399 . S
C425 H431 0.930 . S
H426 C406 0.931 . S
H427 C407 0.932 1_554 S
H428 C415 0.931 . S
H429 C416 0.929 . S
H430 C424 0.929 . S
H431 C425 0.930 . S
Mn432 O437 2.095 . S
Mn432 O447 2.162 . S
Mn432 O448 2.297 . S
Mn432 O456 2.385 . S
Mn432 O457 2.209 . S
Mn432 O458 2.094 . S
Mn433 O438 2.121 . S
Mn433 N440 2.257 . S
Mn433 N449 2.282 1_554 S
Mn433 O457 2.215 . S
Mn433 O459 2.117 1_554 S
C434 O456 1.234 . S
C434 O457 1.283 . S
C435 O447 1.281 . S
C435 O448 1.236 . S
C436 O458 1.240 1_556 S
C436 O459 1.264 . S
O437 Mn432 2.095 . S
O437 C446 1.250 . S
O438 Mn433 2.121 . S
O438 C446 1.258 . S
C439 N440 1.326 . S
C439 C443 1.460 . S
C439 H445 0.929 . S
N440 Mn433 2.257 . S
N440 C439 1.326 . S
N440 C444 1.362 . S
C441 C442 1.258 . S
C441 C444 1.431 . S
C441 C461 1.449 . S
C442 C441 1.258 . S
C442 C443 1.477 . S
C442 H462 0.931 . S
C443 C439 1.460 . S
C443 C442 1.477 . S
C443 H463 0.930 . S
C444 N440 1.362 . S
C444 C441 1.431 . S
C444 C454 1.476 1_554 S
H445 C439 0.929 . S
C446 O437 1.250 . S
C446 O438 1.258 . S
O447 Mn432 2.162 . S
O447 C435 1.281 . S
O448 Mn432 2.297 . S
O448 C435 1.236 . S
N449 Mn433 2.282 1_556 S
N449 C450 1.328 . S
N449 C454 1.318 . S
C450 N449 1.328 . S
C450 C451 1.457 . S
C450 H455 0.929 . S
C451 C450 1.457 . S
C451 C452 1.291 . S
C451 H464 0.931 . S
C452 C451 1.291 . S
C452 C453 1.373 . S
C452 H465 0.929 . S
C453 C452 1.373 . S
C453 C454 1.396 . S
C453 C460 1.403 . S
C454 C444 1.476 1_556 S
C454 N449 1.318 . S
C454 C453 1.396 . S
H455 C450 0.929 . S
O456 Mn432 2.385 . S
O456 C434 1.234 . S
O457 Mn432 2.209 . S
O457 Mn433 2.215 . S
O457 C434 1.283 . S
O458 Mn432 2.094 . S
O458 C436 1.240 1_554 S
O459 Mn433 2.117 1_556 S
O459 C436 1.264 . S
C460 C453 1.403 . S
C460 C461 1.399 1_556 S
C460 H466 0.929 . S
C461 C441 1.449 . S
C461 C460 1.399 1_554 S
C461 H467 0.930 . S
H462 C442 0.931 . S
H463 C443 0.930 . S
H464 C451 0.931 . S
H465 C452 0.929 . S
H466 C460 0.929 . S
H467 C461 0.930 . S
Mn468 O473 2.095 . S
Mn468 O483 2.162 . S
Mn468 O484 2.297 . S
Mn468 O492 2.385 . S
Mn468 O493 2.209 . S
Mn468 O494 2.094 . S
Mn469 O474 2.121 . S
Mn469 N476 2.257 . S
Mn469 N485 2.282 1_554 S
Mn469 O493 2.215 . S
Mn469 O495 2.117 . S
C470 O492 1.234 . S
C470 O493 1.283 . S
C471 O483 1.281 . S
C471 O484 1.236 . S
C472 O494 1.240 . S
C472 O495 1.264 . S
O473 Mn468 2.095 . S
O473 C482 1.250 . S
O474 Mn469 2.121 . S
O474 C482 1.258 . S
C475 N476 1.326 . S
C475 C479 1.460 1_545 S
C475 H481 0.929 . S
N476 Mn469 2.257 . S
N476 C475 1.326 . S
N476 C480 1.362 . S
C477 C478 1.258 . S
C477 C480 1.431 1_565 S
C477 C497 1.449 1_554 S
C478 C477 1.258 . S
C478 C479 1.477 . S
C478 H498 0.931 . S
C479 C475 1.460 1_565 S
C479 C478 1.477 . S
C479 H499 0.930 . S
C480 N476 1.362 . S
C480 C477 1.431 1_545 S
C480 C490 1.476 1_554 S
H481 C475 0.929 . S
C482 O473 1.250 . S
C482 O474 1.258 . S
O483 Mn468 2.162 . S
O483 C471 1.281 . S
O484 Mn468 2.297 . S
O484 C471 1.236 . S
N485 Mn469 2.282 1_556 S
N485 C486 1.328 . S
N485 C490 1.318 . S
C486 N485 1.328 . S
C486 C487 1.457 . S
C486 H491 0.929 . S
C487 C486 1.457 . S
C487 C488 1.291 . S
C487 H500 0.931 . S
C488 C487 1.291 . S
C488 C489 1.373 . S
C488 H501 0.929 . S
C489 C488 1.373 . S
C489 C490 1.396 . S
C489 C496 1.403 . S
C490 C480 1.476 1_556 S
C490 N485 1.318 . S
C490 C489 1.396 . S
H491 C486 0.929 . S
O492 Mn468 2.385 . S
O492 C470 1.234 . S
O493 Mn468 2.209 . S
O493 Mn469 2.215 . S
O493 C470 1.283 . S
O494 Mn468 2.094 . S
O494 C472 1.240 . S
O495 Mn469 2.117 . S
O495 C472 1.264 . S
C496 C489 1.403 . S
C496 C497 1.399 1_545 S
C496 H502 0.929 . S
C497 C477 1.449 1_556 S
C497 C496 1.399 1_565 S
C497 H503 0.930 . S
H498 C478 0.931 . S
H499 C479 0.930 . S
H500 C487 0.931 . S
H501 C488 0.929 . S
H502 C496 0.929 . S
H503 C497 0.930 . S
Mn504 O509 2.095 . S
Mn504 O519 2.162 . S
Mn504 O520 2.297 . S
Mn504 O528 2.385 . S
Mn504 O529 2.209 . S
Mn504 O530 2.094 . S
Mn505 O510 2.121 . S
Mn505 N512 2.257 . S
Mn505 N521 2.282 . S
Mn505 O529 2.215 . S
Mn505 O531 2.117 . S
C506 O528 1.234 . S
C506 O529 1.283 . S
C507 O519 1.281 . S
C507 O520 1.236 . S
C508 O530 1.240 . S
C508 O531 1.264 . S
O509 Mn504 2.095 . S
O509 C518 1.250 . S
O510 Mn505 2.121 . S
O510 C518 1.258 . S
C511 N512 1.326 . S
C511 C515 1.460 . S
C511 H517 0.929 . S
N512 Mn505 2.257 . S
N512 C511 1.326 . S
N512 C516 1.362 . S
C513 C514 1.258 . S
C513 C516 1.431 . S
C513 C533 1.449 . S
C514 C513 1.258 . S
C514 C515 1.477 . S
C514 H534 0.931 . S
C515 C511 1.460 . S
C515 C514 1.477 . S
C515 H535 0.930 . S
C516 N512 1.362 . S
C516 C513 1.431 . S
C516 C526 1.476 . S
H517 C511 0.929 . S
C518 O509 1.250 . S
C518 O510 1.258 . S
O519 Mn504 2.162 . S
O519 C507 1.281 . S
O520 Mn504 2.297 . S
O520 C507 1.236 . S
N521 Mn505 2.282 . S
N521 C522 1.328 . S
N521 C526 1.318 . S
C522 N521 1.328 . S
C522 C523 1.457 . S
C522 H527 0.929 . S
C523 C522 1.457 . S
C523 C524 1.291 . S
C523 H536 0.931 . S
C524 C523 1.291 . S
C524 C525 1.373 . S
C524 H537 0.929 . S
C525 C524 1.373 . S
C525 C526 1.396 . S
C525 C532 1.403 . S
C526 C516 1.476 . S
C526 N521 1.318 . S
C526 C525 1.396 . S
H527 C522 0.929 . S
O528 Mn504 2.385 . S
O528 C506 1.234 . S
O529 Mn504 2.209 . S
O529 Mn505 2.215 . S
O529 C506 1.283 . S
O530 Mn504 2.094 . S
O530 C508 1.240 . S
O531 Mn505 2.117 . S
O531 C508 1.264 . S
C532 C525 1.403 . S
C532 C533 1.399 . S
C532 H538 0.929 . S
C533 C513 1.449 . S
C533 C532 1.399 . S
C533 H539 0.930 . S
H534 C514 0.931 . S
H535 C515 0.930 . S
H536 C523 0.931 . S
H537 C524 0.929 . S
H538 C532 0.929 . S
H539 C533 0.930 . S
Mn540 O545 2.095 . S
Mn540 O555 2.162 . S
Mn540 O556 2.297 . S
Mn540 O564 2.385 . S
Mn540 O565 2.209 . S
Mn540 O566 2.094 . S
Mn541 O546 2.121 . S
Mn541 N548 2.257 . S
Mn541 N557 2.282 . S
Mn541 O565 2.215 . S
Mn541 O567 2.117 . S
C542 O564 1.234 . S
C542 O565 1.283 . S
C543 O555 1.281 . S
C543 O556 1.236 . S
C544 O566 1.240 . S
C544 O567 1.264 . S
O545 Mn540 2.095 . S
O545 C554 1.250 . S
O546 Mn541 2.121 . S
O546 C554 1.258 . S
C547 N548 1.326 1_545 S
C547 C551 1.460 . S
C547 H553 0.929 1_545 S
N548 Mn541 2.257 . S
N548 C547 1.326 1_565 S
N548 C552 1.362 . S
C549 C550 1.258 . S
C549 C552 1.431 1_545 S
C549 C569 1.449 . S
C550 C549 1.258 . S
C550 C551 1.477 . S
C550 H570 0.931 . S
C551 C547 1.460 . S
C551 C550 1.477 . S
C551 H571 0.930 . S
C552 N548 1.362 . S
C552 C549 1.431 1_565 S
C552 C562 1.476 . S
H553 C547 0.929 1_565 S
C554 O545 1.250 . S
C554 O546 1.258 . S
O555 Mn540 2.162 . S
O555 C543 1.281 . S
O556 Mn540 2.297 . S
O556 C543 1.236 . S
N557 Mn541 2.282 . S
N557 C558 1.328 . S
N557 C562 1.318 . S
C558 N557 1.328 . S
C558 C559 1.457 . S
C558 H563 0.929 . S
C559 C558 1.457 . S
C559 C560 1.291 . S
C559 H572 0.931 . S
C560 C559 1.291 . S
C560 C561 1.373 . S
C560 H573 0.929 . S
C561 C560 1.373 . S
C561 C562 1.396 . S
C561 C568 1.403 1_565 S
C562 C552 1.476 . S
C562 N557 1.318 . S
C562 C561 1.396 . S
H563 C558 0.929 . S
O564 Mn540 2.385 . S
O564 C542 1.234 . S
O565 Mn540 2.209 . S
O565 Mn541 2.215 . S
O565 C542 1.283 . S
O566 Mn540 2.094 . S
O566 C544 1.240 . S
O567 Mn541 2.117 . S
O567 C544 1.264 . S
C568 C561 1.403 1_545 S
C568 C569 1.399 . S
C568 H574 0.929 . S
C569 C549 1.449 . S
C569 C568 1.399 . S
C569 H575 0.930 . S
H570 C550 0.931 . S
H571 C551 0.930 . S
H572 C559 0.931 . S
H573 C560 0.929 . S
H574 C568 0.929 . S
H575 C569 0.930 . S
Mn576 O581 2.095 . S
Mn576 O591 2.162 . S
Mn576 O592 2.297 . S
Mn576 O600 2.385 1_545 S
Mn576 O601 2.209 1_545 S
Mn576 O602 2.094 . S
Mn577 O582 2.121 . S
Mn577 N584 2.257 1_545 S
Mn577 N593 2.282 1_545 S
Mn577 O601 2.215 1_545 S
Mn577 O603 2.117 . S
C578 O600 1.234 . S
C578 O601 1.283 . S
C579 O591 1.281 . S
C579 O592 1.236 . S
C580 O602 1.240 . S
C580 O603 1.264 . S
O581 Mn576 2.095 . S
O581 C590 1.250 . S
O582 Mn577 2.121 . S
O582 C590 1.258 . S
C583 N584 1.341 . S
C583 C587 1.464 . S
C583 H589 0.911 1_565 S
N584 Mn577 2.257 1_565 S
N584 C583 1.341 . S
N584 C588 1.362 . S
C585 C586 1.258 . S
C585 C588 1.431 . S
C585 C605 1.449 . S
C586 C585 1.258 . S
C586 C587 1.477 . S
C586 H606 0.931 . S
C587 C583 1.464 . S
C587 C586 1.477 . S
C587 H607 0.930 . S
C588 N584 1.362 . S
C588 C585 1.431 . S
C588 C598 1.476 . S
H589 C583 0.911 1_545 S
C590 O581 1.250 . S
C590 O582 1.258 . S
O591 Mn576 2.162 . S
O591 C579 1.281 . S
O592 Mn576 2.297 . S
O592 C579 1.236 . S
N593 Mn577 2.282 1_565 S
N593 C594 1.328 . S
N593 C598 1.318 . S
C594 N593 1.328 . S
C594 C595 1.457 . S
C594 H599 0.929 . S
C595 C594 1.457 . S
C595 C596 1.291 . S
C595 H608 0.931 . S
C596 C595 1.291 . S
C596 C597 1.373 . S
C596 H609 0.929 . S
C597 C596 1.373 . S
C597 C598 1.396 . S
C597 C604 1.403 . S
C598 C588 1.476 . S
C598 N593 1.318 . S
C598 C597 1.396 . S
H599 C594 0.929 . S
O600 Mn576 2.385 1_565 S
O600 C578 1.234 . S
O601 Mn576 2.209 1_565 S
O601 Mn577 2.215 1_565 S
O601 C578 1.283 . S
O602 Mn576 2.094 . S
O602 C580 1.240 . S
O603 Mn577 2.117 . S
O603 C580 1.264 . S
C604 C597 1.403 . S
C604 C605 1.399 . S
C604 H610 0.929 . S
C605 C585 1.449 . S
C605 C604 1.399 . S
C605 H611 0.930 . S
H606 C586 0.931 . S
H607 C587 0.930 . S
H608 C595 0.931 . S
H609 C596 0.929 . S
H610 C604 0.929 . S
H611 C605 0.930 . S
Mn612 O617 2.095 . S
Mn612 O627 2.162 . S
Mn612 O628 2.297 . S
Mn612 O636 2.385 . S
Mn612 O637 2.209 . S
Mn612 O638 2.094 . S
Mn613 O618 2.121 . S
Mn613 N620 2.257 . S
Mn613 N629 2.282 . S
Mn613 O637 2.215 . S
Mn613 O639 2.117 . S
C614 O636 1.234 . S
C614 O637 1.283 . S
C615 O627 1.281 . S
C615 O628 1.236 . S
C616 O638 1.240 . S
C616 O639 1.264 . S
O617 Mn612 2.095 . S
O617 C626 1.250 . S
O618 Mn613 2.121 . S
O618 C626 1.258 . S
C619 N620 1.326 . S
C619 C623 1.460 . S
C619 H625 0.929 . S
N620 Mn613 2.257 . S
N620 C619 1.326 . S
N620 C624 1.362 . S
C621 C622 1.258 . S
C621 C624 1.431 . S
C621 C641 1.449 . S
C622 C621 1.258 . S
C622 C623 1.477 . S
C622 H642 0.931 . S
C623 C619 1.460 . S
C623 C622 1.477 . S
C623 H643 0.930 . S
C624 N620 1.362 . S
C624 C621 1.431 . S
C624 C634 1.476 . S
H625 C619 0.929 . S
C626 O617 1.250 . S
C626 O618 1.258 . S
O627 Mn612 2.162 . S
O627 C615 1.281 . S
O628 Mn612 2.297 . S
O628 C615 1.236 . S
N629 Mn613 2.282 . S
N629 C630 1.328 . S
N629 C634 1.318 . S
C630 N629 1.328 . S
C630 C631 1.457 . S
C630 H635 0.929 . S
C631 C630 1.457 . S
C631 C632 1.291 . S
C631 H644 0.931 . S
C632 C631 1.291 . S
C632 C633 1.373 . S
C632 H645 0.929 . S
C633 C632 1.373 . S
C633 C634 1.396 . S
C633 C640 1.403 . S
C634 C624 1.476 . S
C634 N629 1.318 . S
C634 C633 1.396 . S
H635 C630 0.929 . S
O636 Mn612 2.385 . S
O636 C614 1.234 . S
O637 Mn612 2.209 . S
O637 Mn613 2.215 . S
O637 C614 1.283 . S
O638 Mn612 2.094 . S
O638 C616 1.240 . S
O639 Mn613 2.117 . S
O639 C616 1.264 . S
C640 C633 1.403 . S
C640 C641 1.399 . S
C640 H646 0.929 . S
C641 C621 1.449 . S
C641 C640 1.399 . S
C641 H647 0.930 . S
H642 C622 0.931 . S
H643 C623 0.930 . S
H644 C631 0.931 . S
H645 C632 0.929 . S
H646 C640 0.929 . S
H647 C641 0.930 . S
Mn648 O653 2.095 . S
Mn648 O663 2.162 . S
Mn648 O664 2.297 . S
Mn648 O672 2.385 . S
Mn648 O673 2.209 . S
Mn648 O674 2.094 . S
Mn649 O654 2.121 . S
Mn649 N656 2.257 . S
Mn649 N665 2.282 . S
Mn649 O673 2.215 . S
Mn649 O675 2.117 . S
C650 O672 1.234 . S
C650 O673 1.283 . S
C651 O663 1.281 . S
C651 O664 1.236 . S
C652 O674 1.240 . S
C652 O675 1.264 . S
O653 Mn648 2.095 . S
O653 C662 1.250 . S
O654 Mn649 2.121 . S
O654 C662 1.258 . S
C655 N656 1.326 . S
C655 C659 1.460 . S
C655 H661 0.929 . S
N656 Mn649 2.257 . S
N656 C655 1.326 . S
N656 C660 1.362 . S
C657 C658 1.258 . S
C657 C660 1.431 . S
C657 C677 1.449 . S
C658 C657 1.258 . S
C658 C659 1.477 . S
C658 H678 0.931 . S
C659 C655 1.460 . S
C659 C658 1.477 . S
C659 H679 0.930 . S
C660 N656 1.362 . S
C660 C657 1.431 . S
C660 C670 1.476 . S
H661 C655 0.929 . S
C662 O653 1.250 . S
C662 O654 1.258 . S
O663 Mn648 2.162 . S
O663 C651 1.281 . S
O664 Mn648 2.297 . S
O664 C651 1.236 . S
N665 Mn649 2.282 . S
N665 C666 1.328 . S
N665 C670 1.318 . S
C666 N665 1.328 . S
C666 C667 1.457 . S
C666 H671 0.929 . S
C667 C666 1.457 . S
C667 C668 1.291 . S
C667 H680 0.931 . S
C668 C667 1.291 . S
C668 C669 1.373 . S
C668 H681 0.929 . S
C669 C668 1.373 . S
C669 C670 1.396 . S
C669 C676 1.403 . S
C670 C660 1.476 . S
C670 N665 1.318 . S
C670 C669 1.396 . S
H671 C666 0.929 . S
O672 Mn648 2.385 . S
O672 C650 1.234 . S
O673 Mn648 2.209 . S
O673 Mn649 2.215 . S
O673 C650 1.283 . S
O674 Mn648 2.094 . S
O674 C652 1.240 . S
O675 Mn649 2.117 . S
O675 C652 1.264 . S
C676 C669 1.403 . S
C676 C677 1.399 . S
C676 H682 0.929 . S
C677 C657 1.449 . S
C677 C676 1.399 . S
C677 H683 0.930 . S
H678 C658 0.931 . S
H679 C659 0.930 . S
H680 C667 0.931 . S
H681 C668 0.929 . S
H682 C676 0.929 . S
H683 C677 0.930 . S
Mn684 O689 2.095 . S
Mn684 O699 2.162 . S
Mn684 O700 2.297 . S
Mn684 O708 2.385 . S
Mn684 O709 2.209 . S
Mn684 O710 2.094 . S
Mn685 O690 2.121 . S
Mn685 N692 2.257 . S
Mn685 N701 2.282 . S
Mn685 O709 2.215 . S
Mn685 O711 2.117 . S
C686 O708 1.234 . S
C686 O709 1.283 . S
C687 O699 1.281 . S
C687 O700 1.236 . S
C688 O710 1.240 . S
C688 O711 1.264 . S
O689 Mn684 2.095 . S
O689 C698 1.250 . S
O690 Mn685 2.121 . S
O690 C698 1.258 . S
C691 N692 1.326 . S
C691 C695 1.460 . S
C691 H697 0.929 . S
N692 Mn685 2.257 . S
N692 C691 1.326 . S
N692 C696 1.362 . S
C693 C694 1.258 . S
C693 C696 1.431 . S
C693 C713 1.449 . S
C694 C693 1.258 . S
C694 C695 1.477 . S
C694 H714 0.931 . S
C695 C691 1.460 . S
C695 C694 1.477 . S
C695 H715 0.930 . S
C696 N692 1.362 . S
C696 C693 1.431 . S
C696 C706 1.476 . S
H697 C691 0.929 . S
C698 O689 1.250 . S
C698 O690 1.258 . S
O699 Mn684 2.162 . S
O699 C687 1.281 . S
O700 Mn684 2.297 . S
O700 C687 1.236 . S
N701 Mn685 2.282 . S
N701 C702 1.328 . S
N701 C706 1.318 . S
C702 N701 1.328 . S
C702 C703 1.457 . S
C702 H707 0.929 . S
C703 C702 1.457 . S
C703 C704 1.291 . S
C703 H716 0.931 . S
C704 C703 1.291 . S
C704 C705 1.373 . S
C704 H717 0.929 . S
C705 C704 1.373 . S
C705 C706 1.396 . S
C705 C712 1.403 . S
C706 C696 1.476 . S
C706 N701 1.318 . S
C706 C705 1.396 . S
H707 C702 0.929 . S
O708 Mn684 2.385 . S
O708 C686 1.234 . S
O709 Mn684 2.209 . S
O709 Mn685 2.215 . S
O709 C686 1.283 . S
O710 Mn684 2.094 . S
O710 C688 1.240 . S
O711 Mn685 2.117 . S
O711 C688 1.264 . S
C712 C705 1.403 . S
C712 C713 1.399 . S
C712 H718 0.929 . S
C713 C693 1.449 . S
C713 C712 1.399 . S
C713 H719 0.930 . S
H714 C694 0.931 . S
H715 C695 0.930 . S
H716 C703 0.931 . S
H717 C704 0.929 . S
H718 C712 0.929 . S
H719 C713 0.930 . S
Mn720 O725 2.095 . S
Mn720 O735 2.162 . S
Mn720 O736 2.297 . S
Mn720 O744 2.385 . S
Mn720 O745 2.209 . S
Mn720 O746 2.094 1_554 S
Mn721 O726 2.121 . S
Mn721 N728 2.257 . S
Mn721 N737 2.282 . S
Mn721 O745 2.215 1_556 S
Mn721 O747 2.117 . S
C722 O744 1.234 . S
C722 O745 1.283 . S
C723 O735 1.281 . S
C723 O736 1.236 . S
C724 O746 1.240 . S
C724 O747 1.264 . S
O725 Mn720 2.095 . S
O725 C734 1.250 . S
O726 Mn721 2.121 . S
O726 C734 1.258 1_556 S
C727 N728 1.326 . S
C727 C731 1.460 . S
C727 H733 0.929 . S
N728 Mn721 2.257 . S
N728 C727 1.326 . S
N728 C732 1.362 . S
C729 C730 1.258 . S
C729 C732 1.431 . S
C729 C749 1.449 . S
C730 C729 1.258 . S
C730 C731 1.477 . S
C730 H750 0.931 . S
C731 C727 1.460 . S
C731 C730 1.477 . S
C731 H751 0.930 . S
C732 N728 1.362 . S
C732 C729 1.431 . S
C732 C742 1.476 . S
H733 C727 0.929 . S
C734 O725 1.250 . S
C734 O726 1.258 1_554 S
O735 Mn720 2.162 . S
O735 C723 1.281 . S
O736 Mn720 2.297 . S
O736 C723 1.236 . S
N737 Mn721 2.282 . S
N737 C738 1.328 . S
N737 C742 1.318 . S
C738 N737 1.328 . S
C738 C739 1.457 . S
C738 H743 0.929 . S
C739 C738 1.457 . S
C739 C740 1.291 . S
C739 H752 0.931 . S
C740 C739 1.291 . S
C740 C741 1.373 . S
C740 H753 0.929 . S
C741 C740 1.373 . S
C741 C742 1.396 . S
C741 C748 1.403 . S
C742 C732 1.476 . S
C742 N737 1.318 . S
C742 C741 1.396 . S
H743 C738 0.929 . S
O744 Mn720 2.385 . S
O744 C722 1.234 . S
O745 Mn720 2.209 . S
O745 Mn721 2.215 1_554 S
O745 C722 1.283 . S
O746 Mn720 2.094 1_556 S
O746 C724 1.240 . S
O747 Mn721 2.117 . S
O747 C724 1.264 . S
C748 C741 1.403 . S
C748 C749 1.399 . S
C748 H754 0.929 . S
C749 C729 1.449 . S
C749 C748 1.399 . S
C749 H755 0.930 . S
H750 C730 0.931 . S
H751 C731 0.930 . S
H752 C739 0.931 . S
H753 C740 0.929 . S
H754 C748 0.929 . S
H755 C749 0.930 . S
Mn756 O761 2.095 . S
Mn756 O771 2.162 . S
Mn756 O772 2.297 . S
Mn756 O780 2.385 . S
Mn756 O781 2.209 . S
Mn756 O782 2.094 . S
Mn757 O762 2.121 . S
Mn757 N764 2.257 . S
Mn757 N773 2.282 . S
Mn757 O781 2.215 . S
Mn757 O783 2.117 . S
C758 O780 1.234 . S
C758 O781 1.283 . S
C759 O771 1.281 . S
C759 O772 1.236 . S
C760 O782 1.240 . S
C760 O783 1.264 . S
O761 Mn756 2.095 . S
O761 C770 1.250 . S
O762 Mn757 2.121 . S
O762 C770 1.258 . S
C763 N764 1.326 . S
C763 C767 1.460 . S
C763 H769 0.929 . S
N764 Mn757 2.257 . S
N764 C763 1.326 . S
N764 C768 1.362 . S
C765 C766 1.258 . S
C765 C768 1.431 . S
C765 C785 1.449 . S
C766 C765 1.258 . S
C766 C767 1.477 . S
C766 H786 0.931 . S
C767 C763 1.460 . S
C767 C766 1.477 . S
C767 H787 0.930 . S
C768 N764 1.362 . S
C768 C765 1.431 . S
C768 C778 1.476 . S
H769 C763 0.929 . S
C770 O761 1.250 . S
C770 O762 1.258 . S
O771 Mn756 2.162 . S
O771 C759 1.281 . S
O772 Mn756 2.297 . S
O772 C759 1.236 . S
N773 Mn757 2.282 . S
N773 C774 1.328 . S
N773 C778 1.318 . S
C774 N773 1.328 . S
C774 C775 1.457 . S
C774 H779 0.929 . S
C775 C774 1.457 . S
C775 C776 1.291 . S
C775 H788 0.931 . S
C776 C775 1.291 . S
C776 C777 1.373 . S
C776 H789 0.929 . S
C777 C776 1.373 . S
C777 C778 1.396 . S
C777 C784 1.403 . S
C778 C768 1.476 . S
C778 N773 1.318 . S
C778 C777 1.396 . S
H779 C774 0.929 . S
O780 Mn756 2.385 . S
O780 C758 1.234 . S
O781 Mn756 2.209 . S
O781 Mn757 2.215 . S
O781 C758 1.283 . S
O782 Mn756 2.094 . S
O782 C760 1.240 . S
O783 Mn757 2.117 . S
O783 C760 1.264 . S
C784 C777 1.403 . S
C784 C785 1.399 . S
C784 H790 0.929 . S
C785 C765 1.449 . S
C785 C784 1.399 . S
C785 H791 0.930 . S
H786 C766 0.931 . S
H787 C767 0.930 . S
H788 C775 0.931 . S
H789 C776 0.929 . S
H790 C784 0.929 . S
H791 C785 0.930 . S
Mn792 O797 2.095 . S
Mn792 O807 2.162 . S
Mn792 O808 2.297 . S
Mn792 O816 2.385 . S
Mn792 O817 2.209 . S
Mn792 O818 2.094 . S
Mn793 O798 2.121 . S
Mn793 N800 2.257 . S
Mn793 N809 2.282 . S
Mn793 O817 2.215 . S
Mn793 O819 2.117 . S
C794 O816 1.234 . S
C794 O817 1.283 . S
C795 O807 1.281 . S
C795 O808 1.236 . S
C796 O818 1.240 . S
C796 O819 1.264 . S
O797 Mn792 2.095 . S
O797 C806 1.250 . S
O798 Mn793 2.121 . S
O798 C806 1.258 . S
C799 N800 1.326 . S
C799 C803 1.460 . S
C799 H805 0.929 . S
N800 Mn793 2.257 . S
N800 C799 1.326 . S
N800 C804 1.362 . S
C801 C802 1.258 . S
C801 C804 1.431 . S
C801 C821 1.449 . S
C802 C801 1.258 . S
C802 C803 1.477 . S
C802 H822 0.931 . S
C803 C799 1.460 . S
C803 C802 1.477 . S
C803 H823 0.930 . S
C804 N800 1.362 . S
C804 C801 1.431 . S
C804 C814 1.476 . S
H805 C799 0.929 . S
C806 O797 1.250 . S
C806 O798 1.258 . S
O807 Mn792 2.162 . S
O807 C795 1.281 . S
O808 Mn792 2.297 . S
O808 C795 1.236 . S
N809 Mn793 2.282 . S
N809 C810 1.328 . S
N809 C814 1.318 . S
C810 N809 1.328 . S
C810 C811 1.457 . S
C810 H815 0.929 . S
C811 C810 1.457 . S
C811 C812 1.291 . S
C811 H824 0.931 . S
C812 C811 1.291 . S
C812 C813 1.373 . S
C812 H825 0.929 . S
C813 C812 1.373 . S
C813 C814 1.396 . S
C813 C820 1.403 . S
C814 C804 1.476 . S
C814 N809 1.318 . S
C814 C813 1.396 . S
H815 C810 0.929 . S
O816 Mn792 2.385 . S
O816 C794 1.234 . S
O817 Mn792 2.209 . S
O817 Mn793 2.215 . S
O817 C794 1.283 . S
O818 Mn792 2.094 . S
O818 C796 1.240 . S
O819 Mn793 2.117 . S
O819 C796 1.264 . S
C820 C813 1.403 . S
C820 C821 1.399 . S
C820 H826 0.929 . S
C821 C801 1.449 . S
C821 C820 1.399 . S
C821 H827 0.930 . S
H822 C802 0.931 . S
H823 C803 0.930 . S
H824 C811 0.931 . S
H825 C812 0.929 . S
H826 C820 0.929 . S
H827 C821 0.930 . S
Mn828 O833 2.095 . S
Mn828 O843 2.162 . S
Mn828 O844 2.297 . S
Mn828 O852 2.385 . S
Mn828 O853 2.209 . S
Mn828 O854 2.094 . S
Mn829 O834 2.121 . S
Mn829 N836 2.257 . S
Mn829 N845 2.282 . S
Mn829 O853 2.215 . S
Mn829 O855 2.117 . S
C830 O852 1.234 . S
C830 O853 1.283 . S
C831 O843 1.281 . S
C831 O844 1.236 . S
C832 O854 1.240 . S
C832 O855 1.264 . S
O833 Mn828 2.095 . S
O833 C842 1.250 . S
O834 Mn829 2.121 . S
O834 C842 1.258 . S
C835 N836 1.326 . S
C835 C839 1.460 . S
C835 H841 0.929 . S
N836 Mn829 2.257 . S
N836 C835 1.326 . S
N836 C840 1.362 . S
C837 C838 1.258 . S
C837 C840 1.431 . S
C837 C857 1.449 . S
C838 C837 1.258 . S
C838 C839 1.477 . S
C838 H858 0.931 . S
C839 C835 1.460 . S
C839 C838 1.477 . S
C839 H859 0.930 . S
C840 N836 1.362 . S
C840 C837 1.431 . S
C840 C850 1.476 . S
H841 C835 0.929 . S
C842 O833 1.250 . S
C842 O834 1.258 . S
O843 Mn828 2.162 . S
O843 C831 1.281 . S
O844 Mn828 2.297 . S
O844 C831 1.236 . S
N845 Mn829 2.282 . S
N845 C846 1.328 . S
N845 C850 1.318 . S
C846 N845 1.328 . S
C846 C847 1.457 . S
C846 H851 0.929 . S
C847 C846 1.457 . S
C847 C848 1.291 . S
C847 H860 0.931 . S
C848 C847 1.291 . S
C848 C849 1.373 . S
C848 H861 0.929 . S
C849 C848 1.373 . S
C849 C850 1.396 . S
C849 C856 1.403 . S
C850 C840 1.476 . S
C850 N845 1.318 . S
C850 C849 1.396 . S
H851 C846 0.929 . S
O852 Mn828 2.385 . S
O852 C830 1.234 . S
O853 Mn828 2.209 . S
O853 Mn829 2.215 . S
O853 C830 1.283 . S
O854 Mn828 2.094 . S
O854 C832 1.240 . S
O855 Mn829 2.117 . S
O855 C832 1.264 . S
C856 C849 1.403 . S
C856 C857 1.399 . S
C856 H862 0.929 . S
C857 C837 1.449 . S
C857 C856 1.399 . S
C857 H863 0.930 . S
H858 C838 0.931 . S
H859 C839 0.930 . S
H860 C847 0.931 . S
H861 C848 0.929 . S
H862 C856 0.929 . S
H863 C857 0.930 . S
C864 C866 1.422 1_556 S
C864 C868 1.415 . S
C864 N870 1.369 . S
C865 C866 1.421 . S
C865 C867 1.417 1_554 S
C865 C877 1.422 . S
C866 C864 1.422 1_554 S
C866 C865 1.421 . S
C866 N876 1.359 . S
C867 C865 1.417 1_556 S
C867 C869 1.329 . S
C867 H886 0.930 . S
C868 C864 1.415 . S
C868 C869 1.437 . S
C868 C872 1.413 . S
C869 C867 1.329 . S
C869 C868 1.437 . S
C869 H891 0.929 . S
N870 C864 1.369 . S
N870 C871 1.338 . S
N870 Gd875 2.622 1_566 S
C871 N870 1.338 . S
C871 C873 1.378 . S
C871 H883 0.929 . S
C872 C868 1.413 . S
C872 C873 1.348 . S
C872 H888 0.931 . S
C873 C871 1.378 . S
C873 C872 1.348 . S
C873 H889 0.930 . S
Gd874 N894 2.622 . S
Gd874 N901 2.570 . S
Gd874 O908 2.381 . S
Gd874 O909 2.468 . S
Gd874 O910 2.427 . S
Gd874 O912 2.388 . S
Gd874 O913 2.386 . S
Gd874 O917 2.307 . S
Gd874 C927 2.805 . S
Gd875 N870 2.622 1_544 S
Gd875 N876 2.570 1_545 S
Gd875 O907 2.386 1_645 S
Gd875 O911 2.307 1_655 S
Gd875 O914 2.353 1_655 S
Gd875 O915 2.468 . S
Gd875 O916 2.427 1_554 S
Gd875 O918 2.388 1_654 S
Gd875 C939 2.805 . S
N876 C866 1.359 . S
N876 Gd875 2.570 1_565 S
N876 C878 1.343 . S
C877 C865 1.422 . S
C877 C879 1.321 . S
C877 H885 0.931 . S
C878 N876 1.343 . S
C878 C879 1.390 . S
C878 H880 0.931 . S
C879 C877 1.321 . S
C879 C878 1.390 . S
C879 H881 0.930 . S
H880 C878 0.931 . S
H881 C879 0.930 . S
H882 C905 0.931 . S
H883 C871 0.929 . S
H884 C906 0.930 1_556 S
H885 C877 0.931 . S
H886 C867 0.930 . S
H887 C896 0.929 . S
H888 C872 0.931 . S
H889 C873 0.930 . S
H890 C928 0.930 . S
H891 C869 0.929 . S
H892 C897 0.931 . S
H893 C898 0.930 . S
N894 Gd874 2.622 . S
N894 C895 1.369 . S
N894 C896 1.338 . S
C895 N894 1.369 . S
C895 C899 1.415 . S
C895 C902 1.422 . S
C896 H887 0.929 . S
C896 N894 1.338 . S
C896 C898 1.378 . S
C897 H892 0.931 . S
C897 C898 1.348 . S
C897 C899 1.413 . S
C898 H893 0.930 . S
C898 C896 1.378 . S
C898 C897 1.348 . S
C899 C895 1.415 . S
C899 C897 1.413 . S
C899 C929 1.437 . S
H900 C929 0.929 . S
N901 Gd874 2.570 . S
N901 C902 1.359 . S
N901 C905 1.343 . S
C902 C895 1.422 . S
C902 N901 1.359 . S
C902 C904 1.421 . S
C903 C904 1.422 . S
C903 C906 1.321 . S
C903 H930 0.931 . S
C904 C902 1.421 . S
C904 C903 1.422 . S
C904 C928 1.417 . S
C905 H882 0.931 . S
C905 N901 1.343 . S
C905 C906 1.390 . S
C906 H884 0.930 1_554 S
C906 C903 1.321 . S
C906 C905 1.390 . S
O907 Gd875 2.386 1_465 S
O907 C919 1.265 . S
O908 Gd874 2.381 . S
O908 C919 1.226 1_545 S
O909 Gd874 2.468 . S
O909 C927 1.263 . S
O910 Gd874 2.427 . S
O910 C927 1.252 . S
O911 Gd875 2.307 1_455 S
O911 C920 1.261 . S
O912 Gd874 2.388 . S
O912 C920 1.252 . S
O913 Gd874 2.386 . S
O913 C931 1.265 . S
O914 Gd875 2.353 1_455 S
O914 C931 1.242 . S
O915 Gd875 2.468 . S
O915 C939 1.263 . S
O916 Gd875 2.427 1_556 S
O916 C939 1.252 1_556 S
O917 Gd874 2.307 . S
O917 C932 1.261 1_554 S
O918 Gd875 2.388 1_456 S
O918 C932 1.252 . S
C919 O907 1.265 . S
C919 O908 1.226 1_565 S
C920 O911 1.261 . S
C920 O912 1.252 . S
C921 C924 1.394 . S
C921 C926 1.370 . S
C921 C927 1.500 . S
C922 C925 1.383 . S
C922 C926 1.395 . S
C923 C924 1.396 . S
C923 C925 1.365 . S
C923 H940 0.929 . S
C924 C921 1.394 . S
C924 C923 1.396 . S
C924 H941 0.930 . S
C925 C922 1.383 . S
C925 C923 1.365 . S
C925 H942 0.931 . S
C926 C921 1.370 . S
C926 C922 1.395 . S
C926 H943 0.930 . S
C927 Gd874 2.805 . S
C927 O909 1.263 . S
C927 O910 1.252 . S
C927 C921 1.500 . S
C928 H890 0.930 . S
C928 C904 1.417 . S
C928 C929 1.329 . S
C929 C899 1.437 . S
C929 H900 0.929 . S
C929 C928 1.329 . S
H930 C903 0.931 . S
C931 O913 1.265 . S
C931 O914 1.242 . S
C932 O917 1.261 1_556 S
C932 O918 1.252 . S
C933 C936 1.397 . S
C933 C938 1.367 1_556 S
C933 C939 1.500 1_556 S
C934 C937 1.383 1_554 S
C934 C938 1.395 . S
C935 C936 1.396 . S
C935 C937 1.365 . S
C935 H944 0.929 . S
C936 C933 1.397 . S
C936 C935 1.396 . S
C936 H945 0.930 . S
C937 C934 1.383 1_556 S
C937 C935 1.365 . S
C937 H946 0.931 . S
C938 C933 1.367 1_554 S
C938 C934 1.395 . S
C938 H947 0.930 . S
C939 Gd875 2.805 . S
C939 O915 1.263 . S
C939 O916 1.252 1_554 S
C939 C933 1.500 1_554 S
H940 C923 0.929 . S
H941 C924 0.930 . S
H942 C925 0.931 . S
H943 C926 0.930 . S
H944 C935 0.929 . S
H945 C936 0.930 . S
H946 C937 0.931 . S
H947 C938 0.930 . S
C948 C950 1.422 . S
C948 C952 1.415 . S
C948 N954 1.369 . S
C949 C950 1.421 . S
C949 C951 1.417 . S
C949 C961 1.422 . S
C950 C948 1.422 . S
C950 C949 1.421 . S
C950 N960 1.359 . S
C951 C949 1.417 . S
C951 C953 1.329 . S
C951 H970 0.930 . S
C952 C948 1.415 . S
C952 C953 1.437 . S
C952 C956 1.413 . S
C953 C951 1.329 . S
C953 C952 1.437 . S
C953 H975 0.929 . S
N954 C948 1.369 . S
N954 C955 1.338 . S
N954 Gd959 2.622 . S
C955 N954 1.338 . S
C955 C957 1.378 . S
C955 H967 0.929 . S
C956 C952 1.413 . S
C956 C957 1.348 . S
C956 H972 0.931 . S
C957 C955 1.378 . S
C957 C956 1.348 . S
C957 H973 0.930 . S
Gd958 N978 2.622 . S
Gd958 N985 2.570 . S
Gd958 O992 2.353 . S
Gd958 O993 2.468 . S
Gd958 O994 2.427 . S
Gd958 O996 2.388 . S
Gd958 O997 2.386 . S
Gd958 O1001 2.307 . S
Gd958 C1011 2.805 . S
Gd959 N954 2.622 . S
Gd959 N960 2.570 . S
Gd959 O991 2.386 . S
Gd959 O995 2.307 . S
Gd959 O998 2.353 . S
Gd959 O999 2.468 . S
Gd959 O1000 2.427 . S
Gd959 O1002 2.388 . S
Gd959 C1023 2.805 . S
N960 C950 1.359 . S
N960 Gd959 2.570 . S
N960 C962 1.343 . S
C961 C949 1.422 . S
C961 C963 1.321 . S
C961 H969 0.931 . S
C962 N960 1.343 . S
C962 C963 1.390 . S
C962 H964 0.931 . S
C963 C961 1.321 . S
C963 C962 1.390 . S
C963 H965 0.930 . S
H964 C962 0.931 . S
H965 C963 0.930 . S
H966 C989 0.931 . S
H967 C955 0.929 . S
H968 C990 0.930 . S
H969 C961 0.931 . S
H970 C951 0.930 . S
H971 C980 0.929 . S
H972 C956 0.931 . S
H973 C957 0.930 . S
H974 C1012 0.930 . S
H975 C953 0.929 . S
H976 C981 0.931 . S
H977 C982 0.930 . S
N978 Gd958 2.622 . S
N978 C979 1.369 . S
N978 C980 1.338 . S
C979 N978 1.369 . S
C979 C983 1.415 . S
C979 C986 1.422 . S
C980 H971 0.929 . S
C980 N978 1.338 . S
C980 C982 1.378 . S
C981 H976 0.931 . S
C981 C982 1.348 . S
C981 C983 1.413 . S
C982 H977 0.930 . S
C982 C980 1.378 . S
C982 C981 1.348 . S
C983 C979 1.415 . S
C983 C981 1.413 . S
C983 C1013 1.437 . S
H984 C1013 0.929 . S
N985 Gd958 2.570 . S
N985 C986 1.359 . S
N985 C989 1.343 . S
C986 C979 1.422 . S
C986 N985 1.359 . S
C986 C988 1.421 . S
C987 C988 1.422 . S
C987 C990 1.321 . S
C987 H1014 0.931 . S
C988 C986 1.421 . S
C988 C987 1.422 . S
C988 C1012 1.417 . S
C989 H966 0.931 . S
C989 N985 1.343 . S
C989 C990 1.390 . S
C990 H968 0.930 . S
C990 C987 1.321 . S
C990 C989 1.390 . S
O991 Gd959 2.386 . S
O991 C1003 1.265 . S
O992 Gd958 2.353 . S
O992 C1003 1.242 . S
O993 Gd958 2.468 . S
O993 C1011 1.263 . S
O994 Gd958 2.427 . S
O994 C1011 1.252 . S
O995 Gd959 2.307 . S
O995 C1004 1.261 . S
O996 Gd958 2.388 . S
O996 C1004 1.252 . S
O997 Gd958 2.386 . S
O997 C1015 1.265 . S
O998 Gd959 2.353 . S
O998 C1015 1.242 . S
O999 Gd959 2.468 . S
O999 C1023 1.263 . S
O1000 Gd959 2.427 . S
O1000 C1023 1.252 . S
O1001 Gd958 2.307 . S
O1001 C1016 1.261 . S
O1002 Gd959 2.388 . S
O1002 C1016 1.252 . S
C1003 O991 1.265 . S
C1003 O992 1.242 . S
C1004 O995 1.261 . S
C1004 O996 1.252 . S
C1005 C1008 1.394 . S
C1005 C1010 1.370 . S
C1005 C1011 1.500 . S
C1006 C1009 1.383 . S
C1006 C1010 1.395 . S
C1007 C1008 1.396 . S
C1007 C1009 1.365 . S
C1007 H1024 0.929 . S
C1008 C1005 1.394 . S
C1008 C1007 1.396 . S
C1008 H1025 0.930 . S
C1009 C1006 1.383 . S
C1009 C1007 1.365 . S
C1009 H1026 0.931 . S
C1010 C1005 1.370 . S
C1010 C1006 1.395 . S
C1010 H1027 0.930 . S
C1011 Gd958 2.805 . S
C1011 O993 1.263 . S
C1011 O994 1.252 . S
C1011 C1005 1.500 . S
C1012 H974 0.930 . S
C1012 C988 1.417 . S
C1012 C1013 1.329 . S
C1013 C983 1.437 . S
C1013 H984 0.929 . S
C1013 C1012 1.329 . S
H1014 C987 0.931 . S
C1015 O997 1.265 . S
C1015 O998 1.242 . S
C1016 O1001 1.261 . S
C1016 O1002 1.252 . S
C1017 C1020 1.394 . S
C1017 C1022 1.370 . S
C1017 C1023 1.500 . S
C1018 C1021 1.383 . S
C1018 C1022 1.395 . S
C1019 C1020 1.396 . S
C1019 C1021 1.365 . S
C1019 H1028 0.929 . S
C1020 C1017 1.394 . S
C1020 C1019 1.396 . S
C1020 H1029 0.930 . S
C1021 C1018 1.383 . S
C1021 C1019 1.365 . S
C1021 H1030 0.931 . S
C1022 C1017 1.370 . S
C1022 C1018 1.395 . S
C1022 H1031 0.930 . S
C1023 Gd959 2.805 . S
C1023 O999 1.263 . S
C1023 O1000 1.252 . S
C1023 C1017 1.500 . S
H1024 C1007 0.929 . S
H1025 C1008 0.930 . S
H1026 C1009 0.931 . S
H1027 C1010 0.930 . S
H1028 C1019 0.929 . S
H1029 C1020 0.930 . S
H1030 C1021 0.931 . S
H1031 C1022 0.930 . S
C1032 C1034 1.422 . S
C1032 C1036 1.415 . S
C1032 N1038 1.369 . S
C1033 C1034 1.421 . S
C1033 C1035 1.417 . S
C1033 C1045 1.422 . S
C1034 C1032 1.422 . S
C1034 C1033 1.421 . S
C1034 N1044 1.359 . S
C1035 C1033 1.417 . S
C1035 C1037 1.329 . S
C1035 H1054 0.930 . S
C1036 C1032 1.415 . S
C1036 C1037 1.437 . S
C1036 C1040 1.413 . S
C1037 C1035 1.329 . S
C1037 C1036 1.437 . S
C1037 H1059 0.929 . S
N1038 C1032 1.369 . S
N1038 C1039 1.338 . S
N1038 Gd1043 2.622 . S
C1039 N1038 1.338 . S
C1039 C1041 1.378 . S
C1039 H1051 0.929 . S
C1040 C1036 1.413 . S
C1040 C1041 1.348 . S
C1040 H1056 0.931 . S
C1041 C1039 1.378 . S
C1041 C1040 1.348 . S
C1041 H1057 0.930 . S
Gd1042 N1062 2.622 . S
Gd1042 N1069 2.570 1_545 S
Gd1042 O1076 2.353 . S
Gd1042 O1077 2.468 . S
Gd1042 O1078 2.427 . S
Gd1042 O1080 2.388 . S
Gd1042 O1081 2.386 1_545 S
Gd1042 O1085 2.307 . S
Gd1042 C1095 2.805 . S
Gd1043 N1038 2.622 . S
Gd1043 N1044 2.570 . S
Gd1043 O1075 2.386 . S
Gd1043 O1079 2.307 . S
Gd1043 O1082 2.353 . S
Gd1043 O1083 2.468 . S
Gd1043 O1084 2.427 . S
Gd1043 O1086 2.388 . S
Gd1043 C1107 2.805 . S
N1044 C1034 1.359 . S
N1044 Gd1043 2.570 . S
N1044 C1046 1.343 . S
C1045 C1033 1.422 . S
C1045 C1047 1.321 . S
C1045 H1053 0.931 . S
C1046 N1044 1.343 . S
C1046 C1047 1.390 . S
C1046 H1048 0.931 . S
C1047 C1045 1.321 . S
C1047 C1046 1.390 . S
C1047 H1049 0.930 . S
H1048 C1046 0.931 . S
H1049 C1047 0.930 . S
H1050 C1073 0.931 1_545 S
H1051 C1039 0.929 . S
H1052 C1074 0.930 . S
H1053 C1045 0.931 . S
H1054 C1035 0.930 . S
H1055 C1064 0.929 . S
H1056 C1040 0.931 . S
H1057 C1041 0.930 . S
H1058 C1096 0.930 . S
H1059 C1037 0.929 . S
H1060 C1065 0.931 . S
H1061 C1066 0.930 1_545 S
N1062 Gd1042 2.622 . S
N1062 C1063 1.369 1_545 S
N1062 C1064 1.338 . S
C1063 N1062 1.369 1_565 S
C1063 C1067 1.415 . S
C1063 C1070 1.422 . S
C1064 H1055 0.929 . S
C1064 N1062 1.338 . S
C1064 C1066 1.378 1_545 S
C1065 H1060 0.931 . S
C1065 C1066 1.348 . S
C1065 C1067 1.413 . S
C1066 H1061 0.930 1_565 S
C1066 C1064 1.378 1_565 S
C1066 C1065 1.348 . S
C1067 C1063 1.415 . S
C1067 C1065 1.413 . S
C1067 C1097 1.437 . S
H1068 C1097 0.929 . S
N1069 Gd1042 2.570 1_565 S
N1069 C1070 1.359 . S
N1069 C1073 1.343 . S
C1070 C1063 1.422 . S
C1070 N1069 1.359 . S
C1070 C1072 1.421 . S
C1071 C1072 1.422 . S
C1071 C1074 1.321 . S
C1071 H1098 0.931 . S
C1072 C1070 1.421 . S
C1072 C1071 1.422 . S
C1072 C1096 1.417 . S
C1073 H1050 0.931 1_565 S
C1073 N1069 1.343 . S
C1073 C1074 1.390 . S
C1074 H1052 0.930 . S
C1074 C1071 1.321 . S
C1074 C1073 1.390 . S
O1075 Gd1043 2.386 . S
O1075 C1087 1.265 . S
O1076 Gd1042 2.353 . S
O1076 C1087 1.242 . S
O1077 Gd1042 2.468 . S
O1077 C1095 1.263 . S
O1078 Gd1042 2.427 . S
O1078 C1095 1.252 . S
O1079 Gd1043 2.307 . S
O1079 C1088 1.261 . S
O1080 Gd1042 2.388 . S
O1080 C1088 1.252 . S
O1081 Gd1042 2.386 1_565 S
O1081 C1099 1.265 . S
O1082 Gd1043 2.353 . S
O1082 C1099 1.242 1_545 S
O1083 Gd1043 2.468 . S
O1083 C1107 1.263 . S
O1084 Gd1043 2.427 . S
O1084 C1107 1.252 . S
O1085 Gd1042 2.307 . S
O1085 C1100 1.261 . S
O1086 Gd1043 2.388 . S
O1086 C1100 1.252 . S
C1087 O1075 1.265 . S
C1087 O1076 1.242 . S
C1088 O1079 1.261 . S
C1088 O1080 1.252 . S
C1089 C1092 1.394 . S
C1089 C1094 1.370 . S
C1089 C1095 1.500 . S
C1090 C1093 1.383 . S
C1090 C1094 1.395 . S
C1091 C1092 1.396 . S
C1091 C1093 1.365 . S
C1091 H1108 0.929 . S
C1092 C1089 1.394 . S
C1092 C1091 1.396 . S
C1092 H1109 0.930 . S
C1093 C1090 1.383 . S
C1093 C1091 1.365 . S
C1093 H1110 0.931 . S
C1094 C1089 1.370 . S
C1094 C1090 1.395 . S
C1094 H1111 0.930 . S
C1095 Gd1042 2.805 . S
C1095 O1077 1.263 . S
C1095 O1078 1.252 . S
C1095 C1089 1.500 . S
C1096 H1058 0.930 . S
C1096 C1072 1.417 . S
C1096 C1097 1.329 . S
C1097 C1067 1.437 . S
C1097 H1068 0.929 . S
C1097 C1096 1.329 . S
H1098 C1071 0.931 . S
C1099 O1081 1.265 . S
C1099 O1082 1.242 1_565 S
C1100 O1085 1.261 . S
C1100 O1086 1.252 . S
C1101 C1104 1.394 1_545 S
C1101 C1106 1.370 1_545 S
C1101 C1107 1.500 . S
C1102 C1105 1.383 . S
C1102 C1106 1.395 . S
C1103 C1104 1.396 . S
C1103 C1105 1.365 . S
C1103 H1112 0.929 . S
C1104 C1101 1.394 1_565 S
C1104 C1103 1.396 . S
C1104 H1113 0.930 . S
C1105 C1102 1.383 . S
C1105 C1103 1.365 . S
C1105 H1114 0.931 . S
C1106 C1101 1.370 1_565 S
C1106 C1102 1.395 . S
C1106 H1115 0.930 1_565 S
C1107 Gd1043 2.805 . S
C1107 O1083 1.263 . S
C1107 O1084 1.252 . S
C1107 C1101 1.500 . S
H1108 C1091 0.929 . S
H1109 C1092 0.930 . S
H1110 C1093 0.931 . S
H1111 C1094 0.930 . S
H1112 C1103 0.929 . S
H1113 C1104 0.930 . S
H1114 C1105 0.931 . S
H1115 C1106 0.930 1_545 S
C1116 C1118 1.422 . S
C1116 C1120 1.415 . S
C1116 N1122 1.369 . S
C1117 C1118 1.421 . S
C1117 C1119 1.417 . S
C1117 C1129 1.422 . S
C1118 C1116 1.422 . S
C1118 C1117 1.421 . S
C1118 N1128 1.359 . S
C1119 C1117 1.417 . S
C1119 C1121 1.329 . S
C1119 H1138 0.930 . S
C1120 C1116 1.415 . S
C1120 C1121 1.437 . S
C1120 C1124 1.413 . S
C1121 C1119 1.329 . S
C1121 C1120 1.437 . S
C1121 H1143 0.929 . S
N1122 C1116 1.369 . S
N1122 C1123 1.338 . S
N1122 Gd1127 2.622 . S
C1123 N1122 1.338 . S
C1123 C1125 1.378 . S
C1123 H1135 0.929 . S
C1124 C1120 1.413 . S
C1124 C1125 1.348 . S
C1124 H1140 0.931 . S
C1125 C1123 1.378 . S
C1125 C1124 1.348 . S
C1125 H1141 0.930 . S
Gd1126 N1146 2.622 . S
Gd1126 N1153 2.570 . S
Gd1126 O1160 2.353 . S
Gd1126 O1161 2.468 . S
Gd1126 O1162 2.427 . S
Gd1126 O1164 2.388 . S
Gd1126 O1165 2.386 . S
Gd1126 O1169 2.307 . S
Gd1126 C1179 2.805 . S
Gd1127 N1122 2.622 . S
Gd1127 N1128 2.570 . S
Gd1127 O1159 2.386 . S
Gd1127 O1163 2.307 . S
Gd1127 O1166 2.353 . S
Gd1127 O1167 2.468 . S
Gd1127 O1168 2.427 . S
Gd1127 O1170 2.388 . S
Gd1127 C1191 2.805 . S
N1128 C1118 1.359 . S
N1128 Gd1127 2.570 . S
N1128 C1130 1.343 . S
C1129 C1117 1.422 . S
C1129 C1131 1.321 . S
C1129 H1137 0.931 . S
C1130 N1128 1.343 . S
C1130 C1131 1.390 . S
C1130 H1132 0.931 . S
C1131 C1129 1.321 . S
C1131 C1130 1.390 . S
C1131 H1133 0.930 . S
H1132 C1130 0.931 . S
H1133 C1131 0.930 . S
H1134 C1157 0.931 . S
H1135 C1123 0.929 . S
H1136 C1158 0.930 . S
H1137 C1129 0.931 . S
H1138 C1119 0.930 . S
H1139 C1148 0.929 . S
H1140 C1124 0.931 . S
H1141 C1125 0.930 . S
H1142 C1180 0.930 . S
H1143 C1121 0.929 . S
H1144 C1149 0.931 . S
H1145 C1150 0.930 . S
N1146 Gd1126 2.622 . S
N1146 C1147 1.369 . S
N1146 C1148 1.338 . S
C1147 N1146 1.369 . S
C1147 C1151 1.415 . S
C1147 C1154 1.422 . S
C1148 H1139 0.929 . S
C1148 N1146 1.338 . S
C1148 C1150 1.378 . S
C1149 H1144 0.931 . S
C1149 C1150 1.348 . S
C1149 C1151 1.413 . S
C1150 H1145 0.930 . S
C1150 C1148 1.378 . S
C1150 C1149 1.348 . S
C1151 C1147 1.415 . S
C1151 C1149 1.413 . S
C1151 C1181 1.437 . S
H1152 C1181 0.929 . S
N1153 Gd1126 2.570 . S
N1153 C1154 1.359 . S
N1153 C1157 1.343 . S
C1154 C1147 1.422 . S
C1154 N1153 1.359 . S
C1154 C1156 1.421 . S
C1155 C1156 1.422 . S
C1155 C1158 1.321 . S
C1155 H1182 0.931 . S
C1156 C1154 1.421 . S
C1156 C1155 1.422 . S
C1156 C1180 1.417 . S
C1157 H1134 0.931 . S
C1157 N1153 1.343 . S
C1157 C1158 1.390 . S
C1158 H1136 0.930 . S
C1158 C1155 1.321 . S
C1158 C1157 1.390 . S
O1159 Gd1127 2.386 . S
O1159 C1171 1.265 . S
O1160 Gd1126 2.353 . S
O1160 C1171 1.242 . S
O1161 Gd1126 2.468 . S
O1161 C1179 1.263 . S
O1162 Gd1126 2.427 . S
O1162 C1179 1.252 . S
O1163 Gd1127 2.307 . S
O1163 C1172 1.261 . S
O1164 Gd1126 2.388 . S
O1164 C1172 1.252 . S
O1165 Gd1126 2.386 . S
O1165 C1183 1.265 . S
O1166 Gd1127 2.353 . S
O1166 C1183 1.242 . S
O1167 Gd1127 2.468 . S
O1167 C1191 1.263 . S
O1168 Gd1127 2.427 . S
O1168 C1191 1.252 . S
O1169 Gd1126 2.307 . S
O1169 C1184 1.261 . S
O1170 Gd1127 2.388 . S
O1170 C1184 1.252 . S
C1171 O1159 1.265 . S
C1171 O1160 1.242 . S
C1172 O1163 1.261 . S
C1172 O1164 1.252 . S
C1173 C1176 1.394 . S
C1173 C1178 1.370 . S
C1173 C1179 1.500 . S
C1174 C1177 1.383 . S
C1174 C1178 1.395 . S
C1175 C1176 1.396 . S
C1175 C1177 1.365 . S
C1175 H1192 0.929 . S
C1176 C1173 1.394 . S
C1176 C1175 1.396 . S
C1176 H1193 0.930 . S
C1177 C1174 1.383 . S
C1177 C1175 1.365 . S
C1177 H1194 0.931 . S
C1178 C1173 1.370 . S
C1178 C1174 1.395 . S
C1178 H1195 0.930 . S
C1179 Gd1126 2.805 . S
C1179 O1161 1.263 . S
C1179 O1162 1.252 . S
C1179 C1173 1.500 . S
C1180 H1142 0.930 . S
C1180 C1156 1.417 . S
C1180 C1181 1.329 . S
C1181 C1151 1.437 . S
C1181 H1152 0.929 . S
C1181 C1180 1.329 . S
H1182 C1155 0.931 . S
C1183 O1165 1.265 . S
C1183 O1166 1.242 . S
C1184 O1169 1.261 . S
C1184 O1170 1.252 . S
C1185 C1188 1.394 . S
C1185 C1190 1.370 . S
C1185 C1191 1.500 . S
C1186 C1189 1.383 . S
C1186 C1190 1.395 . S
C1187 C1188 1.396 . S
C1187 C1189 1.365 . S
C1187 H1196 0.929 . S
C1188 C1185 1.394 . S
C1188 C1187 1.396 . S
C1188 H1197 0.930 . S
C1189 C1186 1.383 . S
C1189 C1187 1.365 . S
C1189 H1198 0.931 . S
C1190 C1185 1.370 . S
C1190 C1186 1.395 . S
C1190 H1199 0.930 . S
C1191 Gd1127 2.805 . S
C1191 O1167 1.263 . S
C1191 O1168 1.252 . S
C1191 C1185 1.500 . S
H1192 C1175 0.929 . S
H1193 C1176 0.930 . S
H1194 C1177 0.931 . S
H1195 C1178 0.930 . S
H1196 C1187 0.929 . S
H1197 C1188 0.930 . S
H1198 C1189 0.931 . S
H1199 C1190 0.930 . S
C1200 C1202 1.422 . S
C1200 C1204 1.415 1_455 S
C1200 N1206 1.369 1_455 S
C1201 C1202 1.421 . S
C1201 C1203 1.417 . S
C1201 C1213 1.422 . S
C1202 C1200 1.422 . S
C1202 C1201 1.421 . S
C1202 N1212 1.359 . S
C1203 C1201 1.417 . S
C1203 C1205 1.329 . S
C1203 H1222 0.930 . S
C1204 C1200 1.415 1_655 S
C1204 C1205 1.437 1_655 S
C1204 C1208 1.413 . S
C1205 C1203 1.329 . S
C1205 C1204 1.437 1_455 S
C1205 H1227 0.929 1_455 S
N1206 C1200 1.369 1_655 S
N1206 C1207 1.338 . S
N1206 Gd1211 2.622 1_655 S
C1207 N1206 1.338 . S
C1207 C1209 1.378 . S
C1207 H1219 0.929 . S
C1208 C1204 1.413 . S
C1208 C1209 1.348 . S
C1208 H1224 0.931 . S
C1209 C1207 1.378 . S
C1209 C1208 1.348 . S
C1209 H1225 0.930 . S
Gd1210 N1230 2.622 1_545 S
Gd1210 N1237 2.570 1_545 S
Gd1210 O1244 2.353 . S
Gd1210 O1245 2.468 1_545 S
Gd1210 O1246 2.427 1_545 S
Gd1210 O1248 2.388 . S
Gd1210 O1249 2.386 . S
Gd1210 O1253 2.307 . S
Gd1210 C1263 2.805 1_545 S
Gd1211 N1206 2.622 1_455 S
Gd1211 N1212 2.570 . S
Gd1211 O1243 2.386 . S
Gd1211 O1247 2.307 . S
Gd1211 O1250 2.353 . S
Gd1211 O1251 2.468 . S
Gd1211 O1252 2.427 1_455 S
Gd1211 O1254 2.388 1_455 S
Gd1211 C1275 2.805 . S
N1212 C1202 1.359 . S
N1212 Gd1211 2.570 . S
N1212 C1214 1.343 . S
C1213 C1201 1.422 . S
C1213 C1215 1.321 . S
C1213 H1221 0.931 . S
C1214 N1212 1.343 . S
C1214 C1215 1.390 . S
C1214 H1216 0.931 . S
C1215 C1213 1.321 . S
C1215 C1214 1.390 . S
C1215 H1217 0.930 . S
H1216 C1214 0.931 . S
H1217 C1215 0.930 . S
H1218 C1241 0.931 . S
H1219 C1207 0.929 . S
H1220 C1242 0.930 . S
H1221 C1213 0.931 . S
H1222 C1203 0.930 . S
H1223 C1232 0.929 1_545 S
H1224 C1208 0.931 . S
H1225 C1209 0.930 . S
H1226 C1264 0.930 . S
H1227 C1205 0.929 1_655 S
H1228 C1233 0.931 . S
H1229 C1234 0.930 1_545 S
N1230 Gd1210 2.622 1_565 S
N1230 C1231 1.369 . S
N1230 C1232 1.338 . S
C1231 N1230 1.369 . S
C1231 C1235 1.415 . S
C1231 C1238 1.422 . S
C1232 H1223 0.929 1_565 S
C1232 N1230 1.338 . S
C1232 C1234 1.378 . S
C1233 H1228 0.931 . S
C1233 C1234 1.348 . S
C1233 C1235 1.413 . S
C1234 H1229 0.930 1_565 S
C1234 C1232 1.378 . S
C1234 C1233 1.348 . S
C1235 C1231 1.415 . S
C1235 C1233 1.413 . S
C1235 C1265 1.437 . S
H1236 C1265 0.929 . S
N1237 Gd1210 2.570 1_565 S
N1237 C1238 1.359 . S
N1237 C1241 1.343 1_455 S
C1238 C1231 1.422 . S
C1238 N1237 1.359 . S
C1238 C1240 1.421 . S
C1239 C1240 1.422 1_655 S
C1239 C1242 1.321 . S
C1239 H1266 0.931 . S
C1240 C1238 1.421 . S
C1240 C1239 1.422 1_455 S
C1240 C1264 1.417 . S
C1241 H1218 0.931 . S
C1241 N1237 1.343 1_655 S
C1241 C1242 1.390 . S
C1242 H1220 0.930 . S
C1242 C1239 1.321 . S
C1242 C1241 1.390 . S
O1243 Gd1211 2.386 . S
O1243 C1255 1.265 . S
O1244 Gd1210 2.353 . S
O1244 C1255 1.242 . S
O1245 Gd1210 2.468 1_565 S
O1245 C1263 1.263 . S
O1246 Gd1210 2.427 1_565 S
O1246 C1263 1.252 . S
O1247 Gd1211 2.307 . S
O1247 C1256 1.261 . S
O1248 Gd1210 2.388 . S
O1248 C1256 1.252 . S
O1249 Gd1210 2.386 . S
O1249 C1267 1.265 . S
O1250 Gd1211 2.353 . S
O1250 C1267 1.242 . S
O1251 Gd1211 2.468 . S
O1251 C1275 1.263 . S
O1252 Gd1211 2.427 1_655 S
O1252 C1275 1.252 1_655 S
O1253 Gd1210 2.307 . S
O1253 C1268 1.261 1_455 S
O1254 Gd1211 2.388 1_655 S
O1254 C1268 1.252 . S
C1255 O1243 1.265 . S
C1255 O1244 1.242 . S
C1256 O1247 1.261 . S
C1256 O1248 1.252 . S
C1257 C1260 1.394 . S
C1257 C1262 1.370 . S
C1257 C1263 1.500 . S
C1258 C1261 1.383 . S
C1258 C1262 1.395 . S
C1259 C1260 1.396 . S
C1259 C1261 1.365 . S
C1259 H1276 0.929 . S
C1260 C1257 1.394 . S
C1260 C1259 1.396 . S
C1260 H1277 0.930 . S
C1261 C1258 1.383 . S
C1261 C1259 1.365 . S
C1261 H1278 0.931 . S
C1262 C1257 1.370 . S
C1262 C1258 1.395 . S
C1262 H1279 0.930 . S
C1263 Gd1210 2.805 1_565 S
C1263 O1245 1.263 . S
C1263 O1246 1.252 . S
C1263 C1257 1.500 . S
C1264 H1226 0.930 . S
C1264 C1240 1.417 . S
C1264 C1265 1.329 . S
C1265 C1235 1.437 . S
C1265 H1236 0.929 . S
C1265 C1264 1.329 . S
H1266 C1239 0.931 . S
C1267 O1249 1.265 . S
C1267 O1250 1.242 . S
C1268 O1253 1.261 1_655 S
C1268 O1254 1.252 . S
C1269 C1272 1.394 1_455 S
C1269 C1274 1.370 . S
C1269 C1275 1.500 . S
C1270 C1273 1.383 1_455 S
C1270 C1274 1.395 . S
C1271 C1272 1.396 . S
C1271 C1273 1.365 . S
C1271 H1280 0.929 . S
C1272 C1269 1.394 1_655 S
C1272 C1271 1.396 . S
C1272 H1281 0.930 . S
C1273 C1270 1.383 1_655 S
C1273 C1271 1.365 . S
C1273 H1282 0.931 . S
C1274 C1269 1.370 . S
C1274 C1270 1.395 . S
C1274 H1283 0.930 . S
C1275 Gd1211 2.805 . S
C1275 O1251 1.263 . S
C1275 O1252 1.252 1_455 S
C1275 C1269 1.500 . S
H1276 C1259 0.929 . S
H1277 C1260 0.930 . S
H1278 C1261 0.931 . S
H1279 C1262 0.930 . S
H1280 C1271 0.929 . S
H1281 C1272 0.930 . S
H1282 C1273 0.931 . S
H1283 C1274 0.930 . S
C1284 C1286 1.422 . S
C1284 C1288 1.415 . S
C1284 N1290 1.369 . S
C1285 C1286 1.421 . S
C1285 C1287 1.417 . S
C1285 C1297 1.422 . S
C1286 C1284 1.422 . S
C1286 C1285 1.421 . S
C1286 N1296 1.359 . S
C1287 C1285 1.417 . S
C1287 C1289 1.329 . S
C1287 H1306 0.930 . S
C1288 C1284 1.415 . S
C1288 C1289 1.437 . S
C1288 C1292 1.413 . S
C1289 C1287 1.329 . S
C1289 C1288 1.437 . S
C1289 H1311 0.929 . S
N1290 C1284 1.369 . S
N1290 C1291 1.338 . S
N1290 Gd1295 2.622 . S
C1291 N1290 1.338 . S
C1291 C1293 1.378 . S
C1291 H1303 0.929 . S
C1292 C1288 1.413 . S
C1292 C1293 1.348 . S
C1292 H1308 0.931 . S
C1293 C1291 1.378 . S
C1293 C1292 1.348 . S
C1293 H1309 0.930 . S
Gd1294 N1314 2.622 . S
Gd1294 N1321 2.570 . S
Gd1294 O1328 2.353 . S
Gd1294 O1329 2.468 . S
Gd1294 O1330 2.427 . S
Gd1294 O1332 2.388 . S
Gd1294 O1333 2.386 . S
Gd1294 O1337 2.307 . S
Gd1294 C1347 2.805 . S
Gd1295 N1290 2.622 . S
Gd1295 N1296 2.570 . S
Gd1295 O1327 2.386 . S
Gd1295 O1331 2.307 . S
Gd1295 O1334 2.353 . S
Gd1295 O1335 2.468 . S
Gd1295 O1336 2.427 . S
Gd1295 O1338 2.388 . S
Gd1295 C1359 2.805 . S
N1296 C1286 1.359 . S
N1296 Gd1295 2.570 . S
N1296 C1298 1.343 . S
C1297 C1285 1.422 . S
C1297 C1299 1.321 . S
C1297 H1305 0.931 . S
C1298 N1296 1.343 . S
C1298 C1299 1.390 . S
C1298 H1300 0.931 . S
C1299 C1297 1.321 . S
C1299 C1298 1.390 . S
C1299 H1301 0.930 . S
H1300 C1298 0.931 . S
H1301 C1299 0.930 . S
H1302 C1325 0.931 . S
H1303 C1291 0.929 . S
H1304 C1326 0.930 . S
H1305 C1297 0.931 . S
H1306 C1287 0.930 . S
H1307 C1316 0.929 . S
H1308 C1292 0.931 . S
H1309 C1293 0.930 . S
H1310 C1348 0.930 . S
H1311 C1289 0.929 . S
H1312 C1317 0.931 . S
H1313 C1318 0.930 . S
N1314 Gd1294 2.622 . S
N1314 C1315 1.369 . S
N1314 C1316 1.338 . S
C1315 N1314 1.369 . S
C1315 C1319 1.415 . S
C1315 C1322 1.422 . S
C1316 H1307 0.929 . S
C1316 N1314 1.338 . S
C1316 C1318 1.378 . S
C1317 H1312 0.931 . S
C1317 C1318 1.348 . S
C1317 C1319 1.413 . S
C1318 H1313 0.930 . S
C1318 C1316 1.378 . S
C1318 C1317 1.348 . S
C1319 C1315 1.415 . S
C1319 C1317 1.413 . S
C1319 C1349 1.437 . S
H1320 C1349 0.929 . S
N1321 Gd1294 2.570 . S
N1321 C1322 1.359 . S
N1321 C1325 1.343 . S
C1322 C1315 1.422 . S
C1322 N1321 1.359 . S
C1322 C1324 1.421 . S
C1323 C1324 1.422 . S
C1323 C1326 1.321 . S
C1323 H1350 0.931 . S
C1324 C1322 1.421 . S
C1324 C1323 1.422 . S
C1324 C1348 1.417 . S
C1325 H1302 0.931 . S
C1325 N1321 1.343 . S
C1325 C1326 1.390 . S
C1326 H1304 0.930 . S
C1326 C1323 1.321 . S
C1326 C1325 1.390 . S
O1327 Gd1295 2.386 . S
O1327 C1339 1.265 . S
O1328 Gd1294 2.353 . S
O1328 C1339 1.242 . S
O1329 Gd1294 2.468 . S
O1329 C1347 1.263 . S
O1330 Gd1294 2.427 . S
O1330 C1347 1.252 . S
O1331 Gd1295 2.307 . S
O1331 C1340 1.261 . S
O1332 Gd1294 2.388 . S
O1332 C1340 1.252 . S
O1333 Gd1294 2.386 . S
O1333 C1351 1.265 . S
O1334 Gd1295 2.353 . S
O1334 C1351 1.242 . S
O1335 Gd1295 2.468 . S
O1335 C1359 1.263 . S
O1336 Gd1295 2.427 . S
O1336 C1359 1.252 . S
O1337 Gd1294 2.307 . S
O1337 C1352 1.261 . S
O1338 Gd1295 2.388 . S
O1338 C1352 1.252 . S
C1339 O1327 1.265 . S
C1339 O1328 1.242 . S
C1340 O1331 1.261 . S
C1340 O1332 1.252 . S
C1341 C1344 1.394 . S
C1341 C1346 1.370 . S
C1341 C1347 1.500 . S
C1342 C1345 1.383 . S
C1342 C1346 1.395 . S
C1343 C1344 1.396 . S
C1343 C1345 1.365 . S
C1343 H1360 0.929 . S
C1344 C1341 1.394 . S
C1344 C1343 1.396 . S
C1344 H1361 0.930 . S
C1345 C1342 1.383 . S
C1345 C1343 1.365 . S
C1345 H1362 0.931 . S
C1346 C1341 1.370 . S
C1346 C1342 1.395 . S
C1346 H1363 0.930 . S
C1347 Gd1294 2.805 . S
C1347 O1329 1.263 . S
C1347 O1330 1.252 . S
C1347 C1341 1.500 . S
C1348 H1310 0.930 . S
C1348 C1324 1.417 . S
C1348 C1349 1.329 . S
C1349 C1319 1.437 . S
C1349 H1320 0.929 . S
C1349 C1348 1.329 . S
H1350 C1323 0.931 . S
C1351 O1333 1.265 . S
C1351 O1334 1.242 . S
C1352 O1337 1.261 . S
C1352 O1338 1.252 . S
C1353 C1356 1.394 . S
C1353 C1358 1.370 . S
C1353 C1359 1.500 . S
C1354 C1357 1.383 . S
C1354 C1358 1.395 . S
C1355 C1356 1.396 . S
C1355 C1357 1.365 . S
C1355 H1364 0.929 . S
C1356 C1353 1.394 . S
C1356 C1355 1.396 . S
C1356 H1365 0.930 . S
C1357 C1354 1.383 . S
C1357 C1355 1.365 . S
C1357 H1366 0.931 . S
C1358 C1353 1.370 . S
C1358 C1354 1.395 . S
C1358 H1367 0.930 . S
C1359 Gd1295 2.805 . S
C1359 O1335 1.263 . S
C1359 O1336 1.252 . S
C1359 C1353 1.500 . S
H1360 C1343 0.929 . S
H1361 C1344 0.930 . S
H1362 C1345 0.931 . S
H1363 C1346 0.930 . S
H1364 C1355 0.929 . S
H1365 C1356 0.930 . S
H1366 C1357 0.931 . S
H1367 C1358 0.930 . S
C1368 C1370 1.422 . S
C1368 C1372 1.415 1_545 S
C1368 N1374 1.369 1_545 S
C1369 C1370 1.421 . S
C1369 C1371 1.417 . S
C1369 C1381 1.422 . S
C1370 C1368 1.422 . S
C1370 C1369 1.421 . S
C1370 N1380 1.359 . S
C1371 C1369 1.417 . S
C1371 C1373 1.329 . S
C1371 H1390 0.930 . S
C1372 C1368 1.415 1_565 S
C1372 C1373 1.437 1_565 S
C1372 C1376 1.413 . S
C1373 C1371 1.329 . S
C1373 C1372 1.437 1_545 S
C1373 H1395 0.929 1_545 S
N1374 C1368 1.369 1_565 S
N1374 C1375 1.338 . S
N1374 Gd1379 2.622 1_565 S
C1375 N1374 1.338 . S
C1375 C1377 1.378 . S
C1375 H1387 0.929 . S
C1376 C1372 1.413 . S
C1376 C1377 1.348 . S
C1376 H1392 0.931 . S
C1377 C1375 1.378 . S
C1377 C1376 1.348 . S
C1377 H1393 0.930 . S
Gd1378 N1398 2.622 . S
Gd1378 N1405 2.571 . S
Gd1378 O1412 2.352 1_556 S
Gd1378 O1413 2.469 . S
Gd1378 O1414 2.428 . S
Gd1378 O1416 2.386 1_556 S
Gd1378 O1417 2.385 1_556 S
Gd1378 O1421 2.301 1_556 S
Gd1378 C1431 2.807 . S
Gd1379 N1374 2.622 1_545 S
Gd1379 N1380 2.570 . S
Gd1379 O1411 2.386 . S
Gd1379 O1415 2.307 . S
Gd1379 O1418 2.353 . S
Gd1379 O1419 2.468 . S
Gd1379 O1420 2.427 1_545 S
Gd1379 O1422 2.388 1_545 S
Gd1379 C1443 2.805 . S
N1380 C1370 1.359 . S
N1380 Gd1379 2.570 . S
N1380 C1382 1.343 . S
C1381 C1369 1.422 . S
C1381 C1383 1.321 . S
C1381 H1389 0.931 . S
C1382 N1380 1.343 . S
C1382 C1383 1.390 . S
C1382 H1384 0.931 . S
C1383 C1381 1.321 . S
C1383 C1382 1.390 . S
C1383 H1385 0.930 . S
H1384 C1382 0.931 . S
H1385 C1383 0.930 . S
H1386 C1409 0.931 . S
H1387 C1375 0.929 . S
H1388 C1410 0.930 1_565 S
H1389 C1381 0.931 . S
H1390 C1371 0.930 . S
H1391 C1400 0.909 1_554 S
H1392 C1376 0.931 . S
H1393 C1377 0.930 . S
H1394 C1432 0.930 . S
H1395 C1373 0.929 1_565 S
H1396 C1401 0.931 . S
H1397 C1402 0.930 1_554 S
N1398 Gd1378 2.622 . S
N1398 C1399 1.369 . S
N1398 C1400 1.352 . S
C1399 N1398 1.369 . S
C1399 C1403 1.415 . S
C1399 C1406 1.422 . S
C1400 H1391 0.909 1_556 S
C1400 N1398 1.352 . S
C1400 C1402 1.385 . S
C1401 H1396 0.931 . S
C1401 C1402 1.348 . S
C1401 C1403 1.413 . S
C1402 H1397 0.930 1_556 S
C1402 C1400 1.385 . S
C1402 C1401 1.348 . S
C1403 C1399 1.415 . S
C1403 C1401 1.413 . S
C1403 C1433 1.437 . S
H1404 C1433 0.929 . S
N1405 Gd1378 2.571 . S
N1405 C1406 1.359 . S
N1405 C1409 1.343 . S
C1406 C1399 1.422 . S
C1406 N1405 1.359 . S
C1406 C1408 1.421 . S
C1407 C1408 1.422 . S
C1407 C1410 1.321 . S
C1407 H1434 0.931 . S
C1408 C1406 1.421 . S
C1408 C1407 1.422 . S
C1408 C1432 1.417 . S
C1409 H1386 0.931 . S
C1409 N1405 1.343 . S
C1409 C1410 1.390 . S
C1410 H1388 0.930 1_545 S
C1410 C1407 1.321 . S
C1410 C1409 1.390 . S
O1411 Gd1379 2.386 . S
O1411 C1423 1.265 . S
O1412 Gd1378 2.352 1_554 S
O1412 C1423 1.242 . S
O1413 Gd1378 2.469 . S
O1413 C1431 1.263 . S
O1414 Gd1378 2.428 . S
O1414 C1431 1.252 . S
O1415 Gd1379 2.307 . S
O1415 C1424 1.261 . S
O1416 Gd1378 2.386 1_554 S
O1416 C1424 1.252 . S
O1417 Gd1378 2.385 1_554 S
O1417 C1435 1.265 . S
O1418 Gd1379 2.353 . S
O1418 C1435 1.242 . S
O1419 Gd1379 2.468 . S
O1419 C1443 1.263 . S
O1420 Gd1379 2.427 1_565 S
O1420 C1443 1.252 1_565 S
O1421 Gd1378 2.301 1_554 S
O1421 C1436 1.274 1_545 S
O1422 Gd1379 2.388 1_565 S
O1422 C1436 1.252 . S
C1423 O1411 1.265 . S
C1423 O1412 1.242 . S
C1424 O1415 1.261 . S
C1424 O1416 1.252 . S
C1425 C1428 1.394 . S
C1425 C1430 1.370 . S
C1425 C1431 1.500 . S
C1426 C1429 1.383 . S
C1426 C1430 1.395 . S
C1427 C1428 1.396 . S
C1427 C1429 1.365 . S
C1427 H1444 0.929 . S
C1428 C1425 1.394 . S
C1428 C1427 1.396 . S
C1428 H1445 0.930 . S
C1429 C1426 1.383 . S
C1429 C1427 1.365 . S
C1429 H1446 0.931 . S
C1430 C1425 1.370 . S
C1430 C1426 1.395 . S
C1430 H1447 0.930 . S
C1431 Gd1378 2.807 . S
C1431 O1413 1.263 . S
C1431 O1414 1.252 . S
C1431 C1425 1.500 . S
C1432 H1394 0.930 . S
C1432 C1408 1.417 . S
C1432 C1433 1.329 . S
C1433 C1403 1.437 . S
C1433 H1404 0.929 . S
C1433 C1432 1.329 . S
H1434 C1407 0.931 . S
C1435 O1417 1.265 . S
C1435 O1418 1.242 . S
C1436 O1421 1.274 1_565 S
C1436 O1422 1.252 . S
C1437 C1440 1.394 . S
C1437 C1442 1.370 1_565 S
C1437 C1443 1.500 1_565 S
C1438 C1441 1.383 1_545 S
C1438 C1442 1.395 . S
C1439 C1440 1.396 . S
C1439 C1441 1.365 . S
C1439 H1448 0.929 . S
C1440 C1437 1.394 . S
C1440 C1439 1.396 . S
C1440 H1449 0.930 . S
C1441 C1438 1.383 1_565 S
C1441 C1439 1.365 . S
C1441 H1450 0.931 . S
C1442 C1437 1.370 1_545 S
C1442 C1438 1.395 . S
C1442 H1451 0.930 . S
C1443 Gd1379 2.805 . S
C1443 O1419 1.263 . S
C1443 O1420 1.252 1_545 S
C1443 C1437 1.500 1_545 S
H1444 C1427 0.929 . S
H1445 C1428 0.930 . S
H1446 C1429 0.931 . S
H1447 C1430 0.930 . S
H1448 C1439 0.929 . S
H1449 C1440 0.930 . S
H1450 C1441 0.931 . S
H1451 C1442 0.930 . S
C1452 C1454 1.422 . S
C1452 C1456 1.415 . S
C1452 N1458 1.369 . S
C1453 C1454 1.421 . S
C1453 C1455 1.417 . S
C1453 C1465 1.422 . S
C1454 C1452 1.422 . S
C1454 C1453 1.421 . S
C1454 N1464 1.359 . S
C1455 C1453 1.417 . S
C1455 C1457 1.329 . S
C1455 H1474 0.930 . S
C1456 C1452 1.415 . S
C1456 C1457 1.437 . S
C1456 C1460 1.413 . S
C1457 C1455 1.329 . S
C1457 C1456 1.437 . S
C1457 H1479 0.929 . S
N1458 C1452 1.369 . S
N1458 C1459 1.338 . S
N1458 Gd1463 2.622 . S
C1459 N1458 1.338 . S
C1459 C1461 1.378 . S
C1459 H1471 0.929 . S
C1460 C1456 1.413 . S
C1460 C1461 1.348 . S
C1460 H1476 0.931 . S
C1461 C1459 1.378 . S
C1461 C1460 1.348 . S
C1461 H1477 0.930 . S
Gd1462 N1482 2.622 . S
Gd1462 N1489 2.570 . S
Gd1462 O1496 2.353 . S
Gd1462 O1497 2.468 . S
Gd1462 O1498 2.427 . S
Gd1462 O1500 2.388 . S
Gd1462 O1501 2.386 . S
Gd1462 O1505 2.307 . S
Gd1462 C1515 2.805 . S
Gd1463 N1458 2.622 . S
Gd1463 N1464 2.570 . S
Gd1463 O1495 2.386 . S
Gd1463 O1499 2.307 . S
Gd1463 O1502 2.353 . S
Gd1463 O1503 2.468 . S
Gd1463 O1504 2.427 . S
Gd1463 O1506 2.388 . S
Gd1463 C1527 2.805 . S
N1464 C1454 1.359 . S
N1464 Gd1463 2.570 . S
N1464 C1466 1.343 . S
C1465 C1453 1.422 . S
C1465 C1467 1.321 . S
C1465 H1473 0.931 . S
C1466 N1464 1.343 . S
C1466 C1467 1.390 . S
C1466 H1468 0.931 . S
C1467 C1465 1.321 . S
C1467 C1466 1.390 . S
C1467 H1469 0.930 . S
H1468 C1466 0.931 . S
H1469 C1467 0.930 . S
H1470 C1493 0.931 . S
H1471 C1459 0.929 . S
H1472 C1494 0.930 . S
H1473 C1465 0.931 . S
H1474 C1455 0.930 . S
H1475 C1484 0.929 . S
H1476 C1460 0.931 . S
H1477 C1461 0.930 . S
H1478 C1516 0.930 . S
H1479 C1457 0.929 . S
H1480 C1485 0.931 . S
H1481 C1486 0.930 . S
N1482 Gd1462 2.622 . S
N1482 C1483 1.369 . S
N1482 C1484 1.338 . S
C1483 N1482 1.369 . S
C1483 C1487 1.415 . S
C1483 C1490 1.422 . S
C1484 H1475 0.929 . S
C1484 N1482 1.338 . S
C1484 C1486 1.378 . S
C1485 H1480 0.931 . S
C1485 C1486 1.348 . S
C1485 C1487 1.413 . S
C1486 H1481 0.930 . S
C1486 C1484 1.378 . S
C1486 C1485 1.348 . S
C1487 C1483 1.415 . S
C1487 C1485 1.413 . S
C1487 C1517 1.437 . S
H1488 C1517 0.929 . S
N1489 Gd1462 2.570 . S
N1489 C1490 1.359 . S
N1489 C1493 1.343 . S
C1490 C1483 1.422 . S
C1490 N1489 1.359 . S
C1490 C1492 1.421 . S
C1491 C1492 1.422 . S
C1491 C1494 1.321 . S
C1491 H1518 0.931 . S
C1492 C1490 1.421 . S
C1492 C1491 1.422 . S
C1492 C1516 1.417 . S
C1493 H1470 0.931 . S
C1493 N1489 1.343 . S
C1493 C1494 1.390 . S
C1494 H1472 0.930 . S
C1494 C1491 1.321 . S
C1494 C1493 1.390 . S
O1495 Gd1463 2.386 . S
O1495 C1507 1.265 . S
O1496 Gd1462 2.353 . S
O1496 C1507 1.242 . S
O1497 Gd1462 2.468 . S
O1497 C1515 1.263 . S
O1498 Gd1462 2.427 . S
O1498 C1515 1.252 . S
O1499 Gd1463 2.307 . S
O1499 C1508 1.261 . S
O1500 Gd1462 2.388 . S
O1500 C1508 1.252 . S
O1501 Gd1462 2.386 . S
O1501 C1519 1.265 . S
O1502 Gd1463 2.353 . S
O1502 C1519 1.242 . S
O1503 Gd1463 2.468 . S
O1503 C1527 1.263 . S
O1504 Gd1463 2.427 . S
O1504 C1527 1.252 . S
O1505 Gd1462 2.307 . S
O1505 C1520 1.261 . S
O1506 Gd1463 2.388 . S
O1506 C1520 1.252 . S
C1507 O1495 1.265 . S
C1507 O1496 1.242 . S
C1508 O1499 1.261 . S
C1508 O1500 1.252 . S
C1509 C1512 1.394 . S
C1509 C1514 1.370 . S
C1509 C1515 1.500 . S
C1510 C1513 1.383 . S
C1510 C1514 1.395 . S
C1511 C1512 1.396 . S
C1511 C1513 1.365 . S
C1511 H1528 0.929 . S
C1512 C1509 1.394 . S
C1512 C1511 1.396 . S
C1512 H1529 0.930 . S
C1513 C1510 1.383 . S
C1513 C1511 1.365 . S
C1513 H1530 0.931 . S
C1514 C1509 1.370 . S
C1514 C1510 1.395 . S
C1514 H1531 0.930 . S
C1515 Gd1462 2.805 . S
C1515 O1497 1.263 . S
C1515 O1498 1.252 . S
C1515 C1509 1.500 . S
C1516 H1478 0.930 . S
C1516 C1492 1.417 . S
C1516 C1517 1.329 . S
C1517 C1487 1.437 . S
C1517 H1488 0.929 . S
C1517 C1516 1.329 . S
H1518 C1491 0.931 . S
C1519 O1501 1.265 . S
C1519 O1502 1.242 . S
C1520 O1505 1.261 . S
C1520 O1506 1.252 . S
C1521 C1524 1.394 . S
C1521 C1526 1.370 . S
C1521 C1527 1.500 . S
C1522 C1525 1.383 . S
C1522 C1526 1.395 . S
C1523 C1524 1.396 . S
C1523 C1525 1.365 . S
C1523 H1532 0.929 . S
C1524 C1521 1.394 . S
C1524 C1523 1.396 . S
C1524 H1533 0.930 . S
C1525 C1522 1.383 . S
C1525 C1523 1.365 . S
C1525 H1534 0.931 . S
C1526 C1521 1.370 . S
C1526 C1522 1.395 . S
C1526 H1535 0.930 . S
C1527 Gd1463 2.805 . S
C1527 O1503 1.263 . S
C1527 O1504 1.252 . S
C1527 C1521 1.500 . S
H1528 C1511 0.929 . S
H1529 C1512 0.930 . S
H1530 C1513 0.931 . S
H1531 C1514 0.930 . S
H1532 C1523 0.929 . S
H1533 C1524 0.930 . S
H1534 C1525 0.931 . S
H1535 C1526 0.930 . S
C1536 C1538 1.422 . S
C1536 C1540 1.415 . S
C1536 N1542 1.369 . S
C1537 C1538 1.421 . S
C1537 C1539 1.417 . S
C1537 C1549 1.422 . S
C1538 C1536 1.422 . S
C1538 C1537 1.421 . S
C1538 N1548 1.359 . S
C1539 C1537 1.417 . S
C1539 C1541 1.329 . S
C1539 H1558 0.930 . S
C1540 C1536 1.415 . S
C1540 C1541 1.437 . S
C1540 C1544 1.413 . S
C1541 C1539 1.329 . S
C1541 C1540 1.437 . S
C1541 H1563 0.929 . S
N1542 C1536 1.369 . S
N1542 C1543 1.338 . S
N1542 Gd1547 2.622 . S
C1543 N1542 1.338 . S
C1543 C1545 1.378 . S
C1543 H1555 0.929 . S
C1544 C1540 1.413 . S
C1544 C1545 1.348 . S
C1544 H1560 0.931 . S
C1545 C1543 1.378 . S
C1545 C1544 1.348 . S
C1545 H1561 0.930 . S
Gd1546 N1566 2.622 1_554 S
Gd1546 N1573 2.570 1_554 S
Gd1546 O1580 2.353 . S
Gd1546 O1581 2.468 . S
Gd1546 O1582 2.427 . S
Gd1546 O1584 2.388 . S
Gd1546 O1585 2.386 1_554 S
Gd1546 O1589 2.307 . S
Gd1546 C1599 2.805 . S
Gd1547 N1542 2.622 . S
Gd1547 N1548 2.570 . S
Gd1547 O1579 2.386 . S
Gd1547 O1583 2.307 . S
Gd1547 O1586 2.353 1_554 S
Gd1547 O1587 2.468 . S
Gd1547 O1588 2.427 . S
Gd1547 O1590 2.388 . S
Gd1547 C1611 2.805 . S
N1548 C1538 1.359 . S
N1548 Gd1547 2.570 . S
N1548 C1550 1.343 . S
C1549 C1537 1.422 . S
C1549 C1551 1.321 . S
C1549 H1557 0.931 . S
C1550 N1548 1.343 . S
C1550 C1551 1.390 . S
C1550 H1552 0.931 . S
C1551 C1549 1.321 . S
C1551 C1550 1.390 . S
C1551 H1553 0.930 . S
H1552 C1550 0.931 . S
H1553 C1551 0.930 . S
H1554 C1577 0.931 1_554 S
H1555 C1543 0.929 . S
H1556 C1578 0.930 . S
H1557 C1549 0.931 . S
H1558 C1539 0.930 . S
H1559 C1568 0.929 1_554 S
H1560 C1544 0.931 . S
H1561 C1545 0.930 . S
H1562 C1600 0.930 . S
H1563 C1541 0.929 . S
H1564 C1569 0.931 . S
H1565 C1570 0.930 . S
N1566 Gd1546 2.622 1_556 S
N1566 C1567 1.369 . S
N1566 C1568 1.338 . S
C1567 N1566 1.369 . S
C1567 C1571 1.415 . S
C1567 C1574 1.422 . S
C1568 H1559 0.929 1_556 S
C1568 N1566 1.338 . S
C1568 C1570 1.378 . S
C1569 H1564 0.931 . S
C1569 C1570 1.348 . S
C1569 C1571 1.413 . S
C1570 H1565 0.930 . S
C1570 C1568 1.378 . S
C1570 C1569 1.348 . S
C1571 C1567 1.415 . S
C1571 C1569 1.413 . S
C1571 C1601 1.437 . S
H1572 C1601 0.929 . S
N1573 Gd1546 2.570 1_556 S
N1573 C1574 1.359 . S
N1573 C1577 1.343 . S
C1574 C1567 1.422 . S
C1574 N1573 1.359 . S
C1574 C1576 1.421 . S
C1575 C1576 1.422 . S
C1575 C1578 1.321 . S
C1575 H1602 0.931 . S
C1576 C1574 1.421 . S
C1576 C1575 1.422 . S
C1576 C1600 1.417 . S
C1577 H1554 0.931 1_556 S
C1577 N1573 1.343 . S
C1577 C1578 1.390 . S
C1578 H1556 0.930 . S
C1578 C1575 1.321 . S
C1578 C1577 1.390 . S
O1579 Gd1547 2.386 . S
O1579 C1591 1.265 . S
O1580 Gd1546 2.353 . S
O1580 C1591 1.242 . S
O1581 Gd1546 2.468 . S
O1581 C1599 1.263 . S
O1582 Gd1546 2.427 . S
O1582 C1599 1.252 . S
O1583 Gd1547 2.307 . S
O1583 C1592 1.261 . S
O1584 Gd1546 2.388 . S
O1584 C1592 1.252 . S
O1585 Gd1546 2.386 1_556 S
O1585 C1603 1.265 . S
O1586 Gd1547 2.353 1_556 S
O1586 C1603 1.242 . S
O1587 Gd1547 2.468 . S
O1587 C1611 1.263 . S
O1588 Gd1547 2.427 . S
O1588 C1611 1.252 . S
O1589 Gd1546 2.307 . S
O1589 C1604 1.261 . S
O1590 Gd1547 2.388 . S
O1590 C1604 1.252 . S
C1591 O1579 1.265 . S
C1591 O1580 1.242 . S
C1592 O1583 1.261 . S
C1592 O1584 1.252 . S
C1593 C1596 1.394 . S
C1593 C1598 1.370 . S
C1593 C1599 1.500 . S
C1594 C1597 1.383 . S
C1594 C1598 1.395 . S
C1595 C1596 1.396 . S
C1595 C1597 1.365 . S
C1595 H1612 0.929 . S
C1596 C1593 1.394 . S
C1596 C1595 1.396 . S
C1596 H1613 0.930 . S
C1597 C1594 1.383 . S
C1597 C1595 1.365 . S
C1597 H1614 0.931 . S
C1598 C1593 1.370 . S
C1598 C1594 1.395 . S
C1598 H1615 0.930 . S
C1599 Gd1546 2.805 . S
C1599 O1581 1.263 . S
C1599 O1582 1.252 . S
C1599 C1593 1.500 . S
C1600 H1562 0.930 . S
C1600 C1576 1.417 . S
C1600 C1601 1.329 . S
C1601 C1571 1.437 . S
C1601 H1572 0.929 . S
C1601 C1600 1.329 . S
H1602 C1575 0.931 . S
C1603 O1585 1.265 . S
C1603 O1586 1.242 . S
C1604 O1589 1.261 . S
C1604 O1590 1.252 . S
C1605 C1608 1.394 . S
C1605 C1610 1.370 . S
C1605 C1611 1.500 1_556 S
C1606 C1609 1.383 . S
C1606 C1610 1.395 . S
C1607 C1608 1.396 . S
C1607 C1609 1.365 . S
C1607 H1616 0.929 . S
C1608 C1605 1.394 . S
C1608 C1607 1.396 . S
C1608 H1617 0.930 . S
C1609 C1606 1.383 . S
C1609 C1607 1.365 . S
C1609 H1618 0.931 . S
C1610 C1605 1.370 . S
C1610 C1606 1.395 . S
C1610 H1619 0.930 . S
C1611 Gd1547 2.805 . S
C1611 O1587 1.263 . S
C1611 O1588 1.252 . S
C1611 C1605 1.500 1_554 S
H1612 C1595 0.929 . S
H1613 C1596 0.930 . S
H1614 C1597 0.931 . S
H1615 C1598 0.930 . S
H1616 C1607 0.929 . S
H1617 C1608 0.930 . S
H1618 C1609 0.931 . S
H1619 C1610 0.930 . S
C1620 C1622 1.422 . S
C1620 C1624 1.415 . S
C1620 N1626 1.369 . S
C1621 C1622 1.421 . S
C1621 C1623 1.417 . S
C1621 C1633 1.422 . S
C1622 C1620 1.422 . S
C1622 C1621 1.421 . S
C1622 N1632 1.359 . S
C1623 C1621 1.417 . S
C1623 C1625 1.329 . S
C1623 H1642 0.930 . S
C1624 C1620 1.415 . S
C1624 C1625 1.437 . S
C1624 C1628 1.413 . S
C1625 C1623 1.329 . S
C1625 C1624 1.437 . S
C1625 H1647 0.929 . S
N1626 C1620 1.369 . S
N1626 C1627 1.338 . S
N1626 Gd1631 2.622 . S
C1627 N1626 1.338 . S
C1627 C1629 1.378 . S
C1627 H1639 0.929 . S
C1628 C1624 1.413 . S
C1628 C1629 1.348 . S
C1628 H1644 0.931 . S
C1629 C1627 1.378 . S
C1629 C1628 1.348 . S
C1629 H1645 0.930 . S
Gd1630 N1650 2.622 . S
Gd1630 N1657 2.570 . S
Gd1630 O1664 2.353 . S
Gd1630 O1665 2.468 . S
Gd1630 O1666 2.427 . S
Gd1630 O1668 2.388 . S
Gd1630 O1669 2.386 . S
Gd1630 O1673 2.307 . S
Gd1630 C1683 2.805 . S
Gd1631 N1626 2.622 . S
Gd1631 N1632 2.570 . S
Gd1631 O1663 2.386 . S
Gd1631 O1667 2.307 . S
Gd1631 O1670 2.353 . S
Gd1631 O1671 2.468 . S
Gd1631 O1672 2.427 . S
Gd1631 O1674 2.388 . S
Gd1631 C1695 2.805 . S
N1632 C1622 1.359 . S
N1632 Gd1631 2.570 . S
N1632 C1634 1.343 . S
C1633 C1621 1.422 . S
C1633 C1635 1.321 . S
C1633 H1641 0.931 . S
C1634 N1632 1.343 . S
C1634 C1635 1.390 . S
C1634 H1636 0.931 . S
C1635 C1633 1.321 . S
C1635 C1634 1.390 . S
C1635 H1637 0.930 . S
H1636 C1634 0.931 . S
H1637 C1635 0.930 . S
H1638 C1661 0.931 . S
H1639 C1627 0.929 . S
H1640 C1662 0.930 . S
H1641 C1633 0.931 . S
H1642 C1623 0.930 . S
H1643 C1652 0.929 . S
H1644 C1628 0.931 . S
H1645 C1629 0.930 . S
H1646 C1684 0.930 . S
H1647 C1625 0.929 . S
H1648 C1653 0.931 . S
H1649 C1654 0.930 . S
N1650 Gd1630 2.622 . S
N1650 C1651 1.369 . S
N1650 C1652 1.338 . S
C1651 N1650 1.369 . S
C1651 C1655 1.415 . S
C1651 C1658 1.422 . S
C1652 H1643 0.929 . S
C1652 N1650 1.338 . S
C1652 C1654 1.378 . S
C1653 H1648 0.931 . S
C1653 C1654 1.348 . S
C1653 C1655 1.413 . S
C1654 H1649 0.930 . S
C1654 C1652 1.378 . S
C1654 C1653 1.348 . S
C1655 C1651 1.415 . S
C1655 C1653 1.413 . S
C1655 C1685 1.437 . S
H1656 C1685 0.929 . S
N1657 Gd1630 2.570 . S
N1657 C1658 1.359 . S
N1657 C1661 1.343 . S
C1658 C1651 1.422 . S
C1658 N1657 1.359 . S
C1658 C1660 1.421 . S
C1659 C1660 1.422 . S
C1659 C1662 1.321 . S
C1659 H1686 0.931 . S
C1660 C1658 1.421 . S
C1660 C1659 1.422 . S
C1660 C1684 1.417 . S
C1661 H1638 0.931 . S
C1661 N1657 1.343 . S
C1661 C1662 1.390 . S
C1662 H1640 0.930 . S
C1662 C1659 1.321 . S
C1662 C1661 1.390 . S
O1663 Gd1631 2.386 . S
O1663 C1675 1.265 . S
O1664 Gd1630 2.353 . S
O1664 C1675 1.242 . S
O1665 Gd1630 2.468 . S
O1665 C1683 1.263 . S
O1666 Gd1630 2.427 . S
O1666 C1683 1.252 . S
O1667 Gd1631 2.307 . S
O1667 C1676 1.261 . S
O1668 Gd1630 2.388 . S
O1668 C1676 1.252 . S
O1669 Gd1630 2.386 . S
O1669 C1687 1.265 . S
O1670 Gd1631 2.353 . S
O1670 C1687 1.242 . S
O1671 Gd1631 2.468 . S
O1671 C1695 1.263 . S
O1672 Gd1631 2.427 . S
O1672 C1695 1.252 . S
O1673 Gd1630 2.307 . S
O1673 C1688 1.261 . S
O1674 Gd1631 2.388 . S
O1674 C1688 1.252 . S
C1675 O1663 1.265 . S
C1675 O1664 1.242 . S
C1676 O1667 1.261 . S
C1676 O1668 1.252 . S
C1677 C1680 1.394 . S
C1677 C1682 1.370 . S
C1677 C1683 1.500 . S
C1678 C1681 1.383 . S
C1678 C1682 1.395 . S
C1679 C1680 1.396 . S
C1679 C1681 1.365 . S
C1679 H1696 0.929 . S
C1680 C1677 1.394 . S
C1680 C1679 1.396 . S
C1680 H1697 0.930 . S
C1681 C1678 1.383 . S
C1681 C1679 1.365 . S
C1681 H1698 0.931 . S
C1682 C1677 1.370 . S
C1682 C1678 1.395 . S
C1682 H1699 0.930 . S
C1683 Gd1630 2.805 . S
C1683 O1665 1.263 . S
C1683 O1666 1.252 . S
C1683 C1677 1.500 . S
C1684 H1646 0.930 . S
C1684 C1660 1.417 . S
C1684 C1685 1.329 . S
C1685 C1655 1.437 . S
C1685 H1656 0.929 . S
C1685 C1684 1.329 . S
H1686 C1659 0.931 . S
C1687 O1669 1.265 . S
C1687 O1670 1.242 . S
C1688 O1673 1.261 . S
C1688 O1674 1.252 . S
C1689 C1692 1.394 . S
C1689 C1694 1.370 . S
C1689 C1695 1.500 . S
C1690 C1693 1.383 . S
C1690 C1694 1.395 . S
C1691 C1692 1.396 . S
C1691 C1693 1.365 . S
C1691 H1700 0.929 . S
C1692 C1689 1.394 . S
C1692 C1691 1.396 . S
C1692 H1701 0.930 . S
C1693 C1690 1.383 . S
C1693 C1691 1.365 . S
C1693 H1702 0.931 . S
C1694 C1689 1.370 . S
C1694 C1690 1.395 . S
C1694 H1703 0.930 . S
C1695 Gd1631 2.805 . S
C1695 O1671 1.263 . S
C1695 O1672 1.252 . S
C1695 C1689 1.500 . S
H1696 C1679 0.929 . S
H1697 C1680 0.930 . S
H1698 C1681 0.931 . S
H1699 C1682 0.930 . S
H1700 C1691 0.929 . S
H1701 C1692 0.930 . S
H1702 C1693 0.931 . S
H1703 C1694 0.930 . S
C1704 C1706 1.422 . S
C1704 C1708 1.415 . S
C1704 N1710 1.369 . S
C1705 C1706 1.421 . S
C1705 C1707 1.417 . S
C1705 C1717 1.422 . S
C1706 C1704 1.422 . S
C1706 C1705 1.421 . S
C1706 N1716 1.359 . S
C1707 C1705 1.417 . S
C1707 C1709 1.329 . S
C1707 H1726 0.930 . S
C1708 C1704 1.415 . S
C1708 C1709 1.437 . S
C1708 C1712 1.413 . S
C1709 C1707 1.329 . S
C1709 C1708 1.437 . S
C1709 H1731 0.929 . S
N1710 C1704 1.369 . S
N1710 C1711 1.338 . S
N1710 Gd1715 2.622 . S
C1711 N1710 1.338 . S
C1711 C1713 1.378 . S
C1711 H1723 0.929 . S
C1712 C1708 1.413 . S
C1712 C1713 1.348 . S
C1712 H1728 0.931 . S
C1713 C1711 1.378 . S
C1713 C1712 1.348 . S
C1713 H1729 0.930 . S
Gd1714 N1734 2.641 . S
Gd1714 N1741 2.570 1_455 S
Gd1714 O1748 2.353 . S
Gd1714 O1749 2.468 . S
Gd1714 O1750 2.427 . S
Gd1714 O1752 2.388 . S
Gd1714 O1753 2.386 1_455 S
Gd1714 O1757 2.307 . S
Gd1714 C1767 2.805 . S
Gd1715 N1710 2.622 . S
Gd1715 N1716 2.570 . S
Gd1715 O1747 2.386 . S
Gd1715 O1751 2.307 . S
Gd1715 O1754 2.353 1_455 S
Gd1715 O1755 2.468 . S
Gd1715 O1756 2.427 . S
Gd1715 O1758 2.388 . S
Gd1715 C1779 2.805 . S
N1716 C1706 1.359 . S
N1716 Gd1715 2.570 . S
N1716 C1718 1.343 . S
C1717 C1705 1.422 . S
C1717 C1719 1.321 . S
C1717 H1725 0.931 . S
C1718 N1716 1.343 . S
C1718 C1719 1.390 . S
C1718 H1720 0.931 . S
C1719 C1717 1.321 . S
C1719 C1718 1.390 . S
C1719 H1721 0.930 . S
H1720 C1718 0.931 . S
H1721 C1719 0.930 . S
H1722 C1745 0.931 1_455 S
H1723 C1711 0.929 . S
H1724 C1746 0.930 . S
H1725 C1717 0.931 . S
H1726 C1707 0.930 . S
H1727 C1736 0.929 . S
H1728 C1712 0.931 . S
H1729 C1713 0.930 . S
H1730 C1768 0.930 . S
H1731 C1709 0.929 . S
H1732 C1737 0.931 . S
H1733 C1738 0.930 . S
N1734 Gd1714 2.641 . S
N1734 C1735 1.353 1_455 S
N1734 C1736 1.332 . S
C1735 N1734 1.353 1_655 S
C1735 C1739 1.415 . S
C1735 C1742 1.422 . S
C1736 H1727 0.929 . S
C1736 N1734 1.332 . S
C1736 C1738 1.378 1_455 S
C1737 H1732 0.931 . S
C1737 C1738 1.348 . S
C1737 C1739 1.413 . S
C1738 H1733 0.930 . S
C1738 C1736 1.378 1_655 S
C1738 C1737 1.348 . S
C1739 C1735 1.415 . S
C1739 C1737 1.413 . S
C1739 C1769 1.437 . S
H1740 C1769 0.929 . S
N1741 Gd1714 2.570 1_655 S
N1741 C1742 1.359 . S
N1741 C1745 1.343 . S
C1742 C1735 1.422 . S
C1742 N1741 1.359 . S
C1742 C1744 1.421 . S
C1743 C1744 1.422 . S
C1743 C1746 1.321 . S
C1743 H1770 0.931 . S
C1744 C1742 1.421 . S
C1744 C1743 1.422 . S
C1744 C1768 1.417 . S
C1745 H1722 0.931 1_655 S
C1745 N1741 1.343 . S
C1745 C1746 1.390 . S
C1746 H1724 0.930 . S
C1746 C1743 1.321 . S
C1746 C1745 1.390 . S
O1747 Gd1715 2.386 . S
O1747 C1759 1.265 . S
O1748 Gd1714 2.353 . S
O1748 C1759 1.242 . S
O1749 Gd1714 2.468 . S
O1749 C1767 1.263 . S
O1750 Gd1714 2.427 . S
O1750 C1767 1.252 . S
O1751 Gd1715 2.307 . S
O1751 C1760 1.261 . S
O1752 Gd1714 2.388 . S
O1752 C1760 1.252 . S
O1753 Gd1714 2.386 1_655 S
O1753 C1771 1.265 . S
O1754 Gd1715 2.353 1_655 S
O1754 C1771 1.242 . S
O1755 Gd1715 2.468 . S
O1755 C1779 1.263 . S
O1756 Gd1715 2.427 . S
O1756 C1779 1.252 . S
O1757 Gd1714 2.307 . S
O1757 C1772 1.261 . S
O1758 Gd1715 2.388 . S
O1758 C1772 1.252 . S
C1759 O1747 1.265 . S
C1759 O1748 1.242 . S
C1760 O1751 1.261 . S
C1760 O1752 1.252 . S
C1761 C1764 1.394 . S
C1761 C1766 1.370 . S
C1761 C1767 1.500 . S
C1762 C1765 1.383 . S
C1762 C1766 1.395 . S
C1763 C1764 1.396 . S
C1763 C1765 1.365 . S
C1763 H1780 0.929 . S
C1764 C1761 1.394 . S
C1764 C1763 1.396 . S
C1764 H1781 0.930 . S
C1765 C1762 1.383 . S
C1765 C1763 1.365 . S
C1765 H1782 0.931 . S
C1766 C1761 1.370 . S
C1766 C1762 1.395 . S
C1766 H1783 0.930 . S
C1767 Gd1714 2.805 . S
C1767 O1749 1.263 . S
C1767 O1750 1.252 . S
C1767 C1761 1.500 . S
C1768 H1730 0.930 . S
C1768 C1744 1.417 . S
C1768 C1769 1.329 . S
C1769 C1739 1.437 . S
C1769 H1740 0.929 . S
C1769 C1768 1.329 . S
H1770 C1743 0.931 . S
C1771 O1753 1.265 . S
C1771 O1754 1.242 . S
C1772 O1757 1.261 . S
C1772 O1758 1.252 . S
C1773 C1776 1.394 . S
C1773 C1778 1.370 . S
C1773 C1779 1.500 1_655 S
C1774 C1777 1.383 . S
C1774 C1778 1.395 . S
C1775 C1776 1.396 . S
C1775 C1777 1.365 . S
C1775 H1784 0.929 . S
C1776 C1773 1.394 . S
C1776 C1775 1.396 . S
C1776 H1785 0.930 . S
C1777 C1774 1.383 . S
C1777 C1775 1.365 . S
C1777 H1786 0.931 . S
C1778 C1773 1.370 . S
C1778 C1774 1.395 . S
C1778 H1787 0.930 . S
C1779 Gd1715 2.805 . S
C1779 O1755 1.263 . S
C1779 O1756 1.252 . S
C1779 C1773 1.500 1_455 S
H1780 C1763 0.929 . S
H1781 C1764 0.930 . S
H1782 C1765 0.931 . S
H1783 C1766 0.930 . S
H1784 C1775 0.929 . S
H1785 C1776 0.930 . S
H1786 C1777 0.931 . S
H1787 C1778 0.930 . S
C1788 C1790 1.422 . S
C1788 C1792 1.415 . S
C1788 N1794 1.369 . S
C1789 C1790 1.421 . S
C1789 C1791 1.417 . S
C1789 C1801 1.422 . S
C1790 C1788 1.422 . S
C1790 C1789 1.421 . S
C1790 N1800 1.359 . S
C1791 C1789 1.417 . S
C1791 C1793 1.329 . S
C1791 H1810 0.930 . S
C1792 C1788 1.415 . S
C1792 C1793 1.437 . S
C1792 C1796 1.413 . S
C1793 C1791 1.329 . S
C1793 C1792 1.437 . S
C1793 H1815 0.929 . S
N1794 C1788 1.369 . S
N1794 C1795 1.338 . S
N1794 Gd1799 2.622 . S
C1795 N1794 1.338 . S
C1795 C1797 1.378 . S
C1795 H1807 0.929 . S
C1796 C1792 1.413 . S
C1796 C1797 1.348 . S
C1796 H1812 0.931 . S
C1797 C1795 1.378 . S
C1797 C1796 1.348 . S
C1797 H1813 0.930 . S
Gd1798 N1818 2.622 . S
Gd1798 N1825 2.570 . S
Gd1798 O1832 2.353 . S
Gd1798 O1833 2.468 . S
Gd1798 O1834 2.427 . S
Gd1798 O1836 2.388 . S
Gd1798 O1837 2.386 . S
Gd1798 O1841 2.307 . S
Gd1798 C1851 2.805 . S
Gd1799 N1794 2.622 . S
Gd1799 N1800 2.570 . S
Gd1799 O1831 2.386 . S
Gd1799 O1835 2.307 . S
Gd1799 O1838 2.353 . S
Gd1799 O1839 2.468 . S
Gd1799 O1840 2.427 . S
Gd1799 O1842 2.388 . S
Gd1799 C1863 2.805 . S
N1800 C1790 1.359 . S
N1800 Gd1799 2.570 . S
N1800 C1802 1.343 . S
C1801 C1789 1.422 . S
C1801 C1803 1.321 . S
C1801 H1809 0.931 . S
C1802 N1800 1.343 . S
C1802 C1803 1.390 . S
C1802 H1804 0.931 . S
C1803 C1801 1.321 . S
C1803 C1802 1.390 . S
C1803 H1805 0.930 . S
H1804 C1802 0.931 . S
H1805 C1803 0.930 . S
H1806 C1829 0.931 . S
H1807 C1795 0.929 . S
H1808 C1830 0.930 . S
H1809 C1801 0.931 . S
H1810 C1791 0.930 . S
H1811 C1820 0.929 . S
H1812 C1796 0.931 . S
H1813 C1797 0.930 . S
H1814 C1852 0.930 . S
H1815 C1793 0.929 . S
H1816 C1821 0.931 . S
H1817 C1822 0.930 . S
N1818 Gd1798 2.622 . S
N1818 C1819 1.369 . S
N1818 C1820 1.338 . S
C1819 N1818 1.369 . S
C1819 C1823 1.415 . S
C1819 C1826 1.422 . S
C1820 H1811 0.929 . S
C1820 N1818 1.338 . S
C1820 C1822 1.378 . S
C1821 H1816 0.931 . S
C1821 C1822 1.348 . S
C1821 C1823 1.413 . S
C1822 H1817 0.930 . S
C1822 C1820 1.378 . S
C1822 C1821 1.348 . S
C1823 C1819 1.415 . S
C1823 C1821 1.413 . S
C1823 C1853 1.437 . S
H1824 C1853 0.929 . S
N1825 Gd1798 2.570 . S
N1825 C1826 1.359 . S
N1825 C1829 1.343 . S
C1826 C1819 1.422 . S
C1826 N1825 1.359 . S
C1826 C1828 1.421 . S
C1827 C1828 1.422 . S
C1827 C1830 1.321 . S
C1827 H1854 0.931 . S
C1828 C1826 1.421 . S
C1828 C1827 1.422 . S
C1828 C1852 1.417 . S
C1829 H1806 0.931 . S
C1829 N1825 1.343 . S
C1829 C1830 1.390 . S
C1830 H1808 0.930 . S
C1830 C1827 1.321 . S
C1830 C1829 1.390 . S
O1831 Gd1799 2.386 . S
O1831 C1843 1.265 . S
O1832 Gd1798 2.353 . S
O1832 C1843 1.242 . S
O1833 Gd1798 2.468 . S
O1833 C1851 1.263 . S
O1834 Gd1798 2.427 . S
O1834 C1851 1.252 . S
O1835 Gd1799 2.307 . S
O1835 C1844 1.261 . S
O1836 Gd1798 2.388 . S
O1836 C1844 1.252 . S
O1837 Gd1798 2.386 . S
O1837 C1855 1.265 . S
O1838 Gd1799 2.353 . S
O1838 C1855 1.242 . S
O1839 Gd1799 2.468 . S
O1839 C1863 1.263 . S
O1840 Gd1799 2.427 . S
O1840 C1863 1.252 . S
O1841 Gd1798 2.307 . S
O1841 C1856 1.261 . S
O1842 Gd1799 2.388 . S
O1842 C1856 1.252 . S
C1843 O1831 1.265 . S
C1843 O1832 1.242 . S
C1844 O1835 1.261 . S
C1844 O1836 1.252 . S
C1845 C1848 1.394 . S
C1845 C1850 1.370 . S
C1845 C1851 1.500 . S
C1846 C1849 1.383 . S
C1846 C1850 1.395 . S
C1847 C1848 1.396 . S
C1847 C1849 1.365 . S
C1847 H1864 0.929 . S
C1848 C1845 1.394 . S
C1848 C1847 1.396 . S
C1848 H1865 0.930 . S
C1849 C1846 1.383 . S
C1849 C1847 1.365 . S
C1849 H1866 0.931 . S
C1850 C1845 1.370 . S
C1850 C1846 1.395 . S
C1850 H1867 0.930 . S
C1851 Gd1798 2.805 . S
C1851 O1833 1.263 . S
C1851 O1834 1.252 . S
C1851 C1845 1.500 . S
C1852 H1814 0.930 . S
C1852 C1828 1.417 . S
C1852 C1853 1.329 . S
C1853 C1823 1.437 . S
C1853 H1824 0.929 . S
C1853 C1852 1.329 . S
H1854 C1827 0.931 . S
C1855 O1837 1.265 . S
C1855 O1838 1.242 . S
C1856 O1841 1.261 . S
C1856 O1842 1.252 . S
C1857 C1860 1.394 . S
C1857 C1862 1.370 . S
C1857 C1863 1.500 . S
C1858 C1861 1.383 . S
C1858 C1862 1.395 . S
C1859 C1860 1.396 . S
C1859 C1861 1.365 . S
C1859 H1868 0.929 . S
C1860 C1857 1.394 . S
C1860 C1859 1.396 . S
C1860 H1869 0.930 . S
C1861 C1858 1.383 . S
C1861 C1859 1.365 . S
C1861 H1870 0.931 . S
C1862 C1857 1.370 . S
C1862 C1858 1.395 . S
C1862 H1871 0.930 . S
C1863 Gd1799 2.805 . S
C1863 O1839 1.263 . S
C1863 O1840 1.252 . S
C1863 C1857 1.500 . S
H1864 C1847 0.929 . S
H1865 C1848 0.930 . S
H1866 C1849 0.931 . S
H1867 C1850 0.930 . S
H1868 C1859 0.929 . S
H1869 C1860 0.930 . S
H1870 C1861 0.931 . S
H1871 C1862 0.930 . S
C1872 C1874 1.422 . S
C1872 C1876 1.415 . S
C1872 N1878 1.369 . S
C1873 C1874 1.421 . S
C1873 C1875 1.417 . S
C1873 C1885 1.422 . S
C1874 C1872 1.422 . S
C1874 C1873 1.421 . S
C1874 N1884 1.359 . S
C1875 C1873 1.417 . S
C1875 C1877 1.329 . S
C1875 H1894 0.930 . S
C1876 C1872 1.415 . S
C1876 C1877 1.437 . S
C1876 C1880 1.413 . S
C1877 C1875 1.329 . S
C1877 C1876 1.437 . S
C1877 H1899 0.929 . S
N1878 C1872 1.369 . S
N1878 C1879 1.338 . S
N1878 Gd1883 2.622 . S
C1879 N1878 1.338 . S
C1879 C1881 1.378 . S
C1879 H1891 0.929 . S
C1880 C1876 1.413 . S
C1880 C1881 1.348 . S
C1880 H1896 0.931 . S
C1881 C1879 1.378 . S
C1881 C1880 1.348 . S
C1881 H1897 0.930 . S
Gd1882 N1902 2.622 . S
Gd1882 N1909 2.570 . S
Gd1882 O1916 2.353 . S
Gd1882 O1917 2.468 . S
Gd1882 O1918 2.427 . S
Gd1882 O1920 2.388 . S
Gd1882 O1921 2.386 . S
Gd1882 O1925 2.307 . S
Gd1882 C1935 2.805 . S
Gd1883 N1878 2.622 . S
Gd1883 N1884 2.570 . S
Gd1883 O1915 2.386 . S
Gd1883 O1919 2.307 . S
Gd1883 O1922 2.353 . S
Gd1883 O1923 2.468 . S
Gd1883 O1924 2.427 . S
Gd1883 O1926 2.388 . S
Gd1883 C1947 2.805 . S
N1884 C1874 1.359 . S
N1884 Gd1883 2.570 . S
N1884 C1886 1.343 . S
C1885 C1873 1.422 . S
C1885 C1887 1.321 . S
C1885 H1893 0.931 . S
C1886 N1884 1.343 . S
C1886 C1887 1.390 . S
C1886 H1888 0.931 . S
C1887 C1885 1.321 . S
C1887 C1886 1.390 . S
C1887 H1889 0.930 . S
H1888 C1886 0.931 . S
H1889 C1887 0.930 . S
H1890 C1913 0.931 . S
H1891 C1879 0.929 . S
H1892 C1914 0.930 . S
H1893 C1885 0.931 . S
H1894 C1875 0.930 . S
H1895 C1904 0.929 . S
H1896 C1880 0.931 . S
H1897 C1881 0.930 . S
H1898 C1936 0.930 . S
H1899 C1877 0.929 . S
H1900 C1905 0.931 . S
H1901 C1906 0.930 . S
N1902 Gd1882 2.622 . S
N1902 C1903 1.369 . S
N1902 C1904 1.338 . S
C1903 N1902 1.369 . S
C1903 C1907 1.415 . S
C1903 C1910 1.422 . S
C1904 H1895 0.929 . S
C1904 N1902 1.338 . S
C1904 C1906 1.378 . S
C1905 H1900 0.931 . S
C1905 C1906 1.348 . S
C1905 C1907 1.413 . S
C1906 H1901 0.930 . S
C1906 C1904 1.378 . S
C1906 C1905 1.348 . S
C1907 C1903 1.415 . S
C1907 C1905 1.413 . S
C1907 C1937 1.437 . S
H1908 C1937 0.929 . S
N1909 Gd1882 2.570 . S
N1909 C1910 1.359 . S
N1909 C1913 1.343 . S
C1910 C1903 1.422 . S
C1910 N1909 1.359 . S
C1910 C1912 1.421 . S
C1911 C1912 1.422 . S
C1911 C1914 1.321 . S
C1911 H1938 0.931 . S
C1912 C1910 1.421 . S
C1912 C1911 1.422 . S
C1912 C1936 1.417 . S
C1913 H1890 0.931 . S
C1913 N1909 1.343 . S
C1913 C1914 1.390 . S
C1914 H1892 0.930 . S
C1914 C1911 1.321 . S
C1914 C1913 1.390 . S
O1915 Gd1883 2.386 . S
O1915 C1927 1.265 . S
O1916 Gd1882 2.353 . S
O1916 C1927 1.242 . S
O1917 Gd1882 2.468 . S
O1917 C1935 1.263 . S
O1918 Gd1882 2.427 . S
O1918 C1935 1.252 . S
O1919 Gd1883 2.307 . S
O1919 C1928 1.261 . S
O1920 Gd1882 2.388 . S
O1920 C1928 1.252 . S
O1921 Gd1882 2.386 . S
O1921 C1939 1.265 . S
O1922 Gd1883 2.353 . S
O1922 C1939 1.242 . S
O1923 Gd1883 2.468 . S
O1923 C1947 1.263 . S
O1924 Gd1883 2.427 . S
O1924 C1947 1.252 . S
O1925 Gd1882 2.307 . S
O1925 C1940 1.261 . S
O1926 Gd1883 2.388 . S
O1926 C1940 1.252 . S
C1927 O1915 1.265 . S
C1927 O1916 1.242 . S
C1928 O1919 1.261 . S
C1928 O1920 1.252 . S
C1929 C1932 1.394 . S
C1929 C1934 1.370 . S
C1929 C1935 1.500 . S
C1930 C1933 1.383 . S
C1930 C1934 1.395 . S
C1931 C1932 1.396 . S
C1931 C1933 1.365 . S
C1931 H1948 0.929 . S
C1932 C1929 1.394 . S
C1932 C1931 1.396 . S
C1932 H1949 0.930 . S
C1933 C1930 1.383 . S
C1933 C1931 1.365 . S
C1933 H1950 0.931 . S
C1934 C1929 1.370 . S
C1934 C1930 1.395 . S
C1934 H1951 0.930 . S
C1935 Gd1882 2.805 . S
C1935 O1917 1.263 . S
C1935 O1918 1.252 . S
C1935 C1929 1.500 . S
C1936 H1898 0.930 . S
C1936 C1912 1.417 . S
C1936 C1937 1.329 . S
C1937 C1907 1.437 . S
C1937 H1908 0.929 . S
C1937 C1936 1.329 . S
H1938 C1911 0.931 . S
C1939 O1921 1.265 . S
C1939 O1922 1.242 . S
C1940 O1925 1.261 . S
C1940 O1926 1.252 . S
C1941 C1944 1.394 . S
C1941 C1946 1.370 . S
C1941 C1947 1.500 . S
C1942 C1945 1.383 . S
C1942 C1946 1.395 . S
C1943 C1944 1.396 . S
C1943 C1945 1.365 . S
C1943 H1952 0.929 . S
C1944 C1941 1.394 . S
C1944 C1943 1.396 . S
C1944 H1953 0.930 . S
C1945 C1942 1.383 . S
C1945 C1943 1.365 . S
C1945 H1954 0.931 . S
C1946 C1941 1.370 . S
C1946 C1942 1.395 . S
C1946 H1955 0.930 . S
C1947 Gd1883 2.805 . S
C1947 O1923 1.263 . S
C1947 O1924 1.252 . S
C1947 C1941 1.500 . S
H1948 C1931 0.929 . S
H1949 C1932 0.930 . S
H1950 C1933 0.931 . S
H1951 C1934 0.930 . S
H1952 C1943 0.929 . S
H1953 C1944 0.930 . S
H1954 C1945 0.931 . S
H1955 C1946 0.930 . S
C1956 C1958 1.422 . S
C1956 C1960 1.415 . S
C1956 N1962 1.369 . S
C1957 C1958 1.421 . S
C1957 C1959 1.417 . S
C1957 C1969 1.422 . S
C1958 C1956 1.422 . S
C1958 C1957 1.421 . S
C1958 N1968 1.359 . S
C1959 C1957 1.417 . S
C1959 C1961 1.329 . S
C1959 H1978 0.930 . S
C1960 C1956 1.415 . S
C1960 C1961 1.437 . S
C1960 C1964 1.413 . S
C1961 C1959 1.329 . S
C1961 C1960 1.437 . S
C1961 H1983 0.929 . S
N1962 C1956 1.369 . S
N1962 C1963 1.338 . S
N1962 Gd1967 2.622 . S
C1963 N1962 1.338 . S
C1963 C1965 1.378 . S
C1963 H1975 0.929 . S
C1964 C1960 1.413 . S
C1964 C1965 1.348 . S
C1964 H1980 0.931 . S
C1965 C1963 1.378 . S
C1965 C1964 1.348 . S
C1965 H1981 0.930 . S
Gd1966 N1986 2.622 . S
Gd1966 N1993 2.570 . S
Gd1966 O2000 2.353 . S
Gd1966 O2001 2.468 . S
Gd1966 O2002 2.427 . S
Gd1966 O2004 2.388 . S
Gd1966 O2005 2.386 . S
Gd1966 O2009 2.307 . S
Gd1966 C2019 2.805 . S
Gd1967 N1962 2.622 . S
Gd1967 N1968 2.570 . S
Gd1967 O1999 2.386 . S
Gd1967 O2003 2.307 . S
Gd1967 O2006 2.353 . S
Gd1967 O2007 2.468 . S
Gd1967 O2008 2.427 . S
Gd1967 O2010 2.388 . S
Gd1967 C2031 2.805 . S
N1968 C1958 1.359 . S
N1968 Gd1967 2.570 . S
N1968 C1970 1.343 . S
C1969 C1957 1.422 . S
C1969 C1971 1.321 . S
C1969 H1977 0.931 . S
C1970 N1968 1.343 . S
C1970 C1971 1.390 . S
C1970 H1972 0.931 . S
C1971 C1969 1.321 . S
C1971 C1970 1.390 . S
C1971 H1973 0.930 . S
H1972 C1970 0.931 . S
H1973 C1971 0.930 . S
H1974 C1997 0.931 . S
H1975 C1963 0.929 . S
H1976 C1998 0.930 . S
H1977 C1969 0.931 . S
H1978 C1959 0.930 . S
H1979 C1988 0.929 . S
H1980 C1964 0.931 . S
H1981 C1965 0.930 . S
H1982 C2020 0.930 . S
H1983 C1961 0.929 . S
H1984 C1989 0.931 . S
H1985 C1990 0.930 . S
N1986 Gd1966 2.622 . S
N1986 C1987 1.369 . S
N1986 C1988 1.338 . S
C1987 N1986 1.369 . S
C1987 C1991 1.415 . S
C1987 C1994 1.422 . S
C1988 H1979 0.929 . S
C1988 N1986 1.338 . S
C1988 C1990 1.378 . S
C1989 H1984 0.931 . S
C1989 C1990 1.348 . S
C1989 C1991 1.413 . S
C1990 H1985 0.930 . S
C1990 C1988 1.378 . S
C1990 C1989 1.348 . S
C1991 C1987 1.415 . S
C1991 C1989 1.413 . S
C1991 C2021 1.437 . S
H1992 C2021 0.929 . S
N1993 Gd1966 2.570 . S
N1993 C1994 1.359 . S
N1993 C1997 1.343 . S
C1994 C1987 1.422 . S
C1994 N1993 1.359 . S
C1994 C1996 1.421 . S
C1995 C1996 1.422 . S
C1995 C1998 1.321 . S
C1995 H2022 0.931 . S
C1996 C1994 1.421 . S
C1996 C1995 1.422 . S
C1996 C2020 1.417 . S
C1997 H1974 0.931 . S
C1997 N1993 1.343 . S
C1997 C1998 1.390 . S
C1998 H1976 0.930 . S
C1998 C1995 1.321 . S
C1998 C1997 1.390 . S
O1999 Gd1967 2.386 . S
O1999 C2011 1.265 . S
O2000 Gd1966 2.353 . S
O2000 C2011 1.242 . S
O2001 Gd1966 2.468 . S
O2001 C2019 1.263 . S
O2002 Gd1966 2.427 . S
O2002 C2019 1.252 . S
O2003 Gd1967 2.307 . S
O2003 C2012 1.261 . S
O2004 Gd1966 2.388 . S
O2004 C2012 1.252 . S
O2005 Gd1966 2.386 . S
O2005 C2023 1.265 . S
O2006 Gd1967 2.353 . S
O2006 C2023 1.242 . S
O2007 Gd1967 2.468 . S
O2007 C2031 1.263 . S
O2008 Gd1967 2.427 . S
O2008 C2031 1.252 . S
O2009 Gd1966 2.307 . S
O2009 C2024 1.261 . S
O2010 Gd1967 2.388 . S
O2010 C2024 1.252 . S
C2011 O1999 1.265 . S
C2011 O2000 1.242 . S
C2012 O2003 1.261 . S
C2012 O2004 1.252 . S
C2013 C2016 1.394 . S
C2013 C2018 1.370 . S
C2013 C2019 1.500 . S
C2014 C2017 1.383 . S
C2014 C2018 1.395 . S
C2015 C2016 1.396 . S
C2015 C2017 1.365 . S
C2015 H2032 0.929 . S
C2016 C2013 1.394 . S
C2016 C2015 1.396 . S
C2016 H2033 0.930 . S
C2017 C2014 1.383 . S
C2017 C2015 1.365 . S
C2017 H2034 0.931 . S
C2018 C2013 1.370 . S
C2018 C2014 1.395 . S
C2018 H2035 0.930 . S
C2019 Gd1966 2.805 . S
C2019 O2001 1.263 . S
C2019 O2002 1.252 . S
C2019 C2013 1.500 . S
C2020 H1982 0.930 . S
C2020 C1996 1.417 . S
C2020 C2021 1.329 . S
C2021 C1991 1.437 . S
C2021 H1992 0.929 . S
C2021 C2020 1.329 . S
H2022 C1995 0.931 . S
C2023 O2005 1.265 . S
C2023 O2006 1.242 . S
C2024 O2009 1.261 . S
C2024 O2010 1.252 . S
C2025 C2028 1.394 . S
C2025 C2030 1.370 . S
C2025 C2031 1.500 . S
C2026 C2029 1.383 . S
C2026 C2030 1.395 . S
C2027 C2028 1.396 . S
C2027 C2029 1.365 . S
C2027 H2036 0.929 . S
C2028 C2025 1.394 . S
C2028 C2027 1.396 . S
C2028 H2037 0.930 . S
C2029 C2026 1.383 . S
C2029 C2027 1.365 . S
C2029 H2038 0.931 . S
C2030 C2025 1.370 . S
C2030 C2026 1.395 . S
C2030 H2039 0.930 . S
C2031 Gd1967 2.805 . S
C2031 O2007 1.263 . S
C2031 O2008 1.252 . S
C2031 C2025 1.500 . S
H2032 C2015 0.929 . S
H2033 C2016 0.930 . S
H2034 C2017 0.931 . S
H2035 C2018 0.930 . S
H2036 C2027 0.929 . S
H2037 C2028 0.930 . S
H2038 C2029 0.931 . S
H2039 C2030 0.930 . S
C2040 C2042 1.422 . S
C2040 C2044 1.415 . S
C2040 N2046 1.369 . S
C2041 C2042 1.421 . S
C2041 C2043 1.417 . S
C2041 C2053 1.422 . S
C2042 C2040 1.422 . S
C2042 C2041 1.421 . S
C2042 N2052 1.359 . S
C2043 C2041 1.417 . S
C2043 C2045 1.329 . S
C2043 H2062 0.930 . S
C2044 C2040 1.415 . S
C2044 C2045 1.437 . S
C2044 C2048 1.413 . S
C2045 C2043 1.329 . S
C2045 C2044 1.437 . S
C2045 H2067 0.929 . S
N2046 C2040 1.369 . S
N2046 C2047 1.338 . S
N2046 Gd2051 2.622 . S
C2047 N2046 1.338 . S
C2047 C2049 1.378 . S
C2047 H2059 0.929 . S
C2048 C2044 1.413 . S
C2048 C2049 1.348 . S
C2048 H2064 0.931 . S
C2049 C2047 1.378 . S
C2049 C2048 1.348 . S
C2049 H2065 0.930 . S
Gd2050 N2070 2.622 . S
Gd2050 N2077 2.570 . S
Gd2050 O2084 2.353 . S
Gd2050 O2085 2.468 . S
Gd2050 O2086 2.427 . S
Gd2050 O2088 2.388 . S
Gd2050 O2089 2.386 . S
Gd2050 O2093 2.307 . S
Gd2050 C2103 2.805 . S
Gd2051 N2046 2.622 . S
Gd2051 N2052 2.570 . S
Gd2051 O2083 2.386 . S
Gd2051 O2087 2.307 . S
Gd2051 O2090 2.353 . S
Gd2051 O2091 2.468 . S
Gd2051 O2092 2.427 . S
Gd2051 O2094 2.388 . S
Gd2051 C2115 2.805 . S
N2052 C2042 1.359 . S
N2052 Gd2051 2.570 . S
N2052 C2054 1.343 . S
C2053 C2041 1.422 . S
C2053 C2055 1.321 . S
C2053 H2061 0.931 . S
C2054 N2052 1.343 . S
C2054 C2055 1.390 . S
C2054 H2056 0.931 . S
C2055 C2053 1.321 . S
C2055 C2054 1.390 . S
C2055 H2057 0.930 . S
H2056 C2054 0.931 . S
H2057 C2055 0.930 . S
H2058 C2081 0.931 . S
H2059 C2047 0.929 . S
H2060 C2082 0.930 . S
H2061 C2053 0.931 . S
H2062 C2043 0.930 . S
H2063 C2072 0.929 . S
H2064 C2048 0.931 . S
H2065 C2049 0.930 . S
H2066 C2104 0.930 . S
H2067 C2045 0.929 . S
H2068 C2073 0.931 . S
H2069 C2074 0.930 . S
N2070 Gd2050 2.622 . S
N2070 C2071 1.369 . S
N2070 C2072 1.338 . S
C2071 N2070 1.369 . S
C2071 C2075 1.415 . S
C2071 C2078 1.422 . S
C2072 H2063 0.929 . S
C2072 N2070 1.338 . S
C2072 C2074 1.378 . S
C2073 H2068 0.931 . S
C2073 C2074 1.348 . S
C2073 C2075 1.413 . S
C2074 H2069 0.930 . S
C2074 C2072 1.378 . S
C2074 C2073 1.348 . S
C2075 C2071 1.415 . S
C2075 C2073 1.413 . S
C2075 C2105 1.437 . S
H2076 C2105 0.929 . S
N2077 Gd2050 2.570 . S
N2077 C2078 1.359 . S
N2077 C2081 1.343 . S
C2078 C2071 1.422 . S
C2078 N2077 1.359 . S
C2078 C2080 1.421 . S
C2079 C2080 1.422 . S
C2079 C2082 1.321 . S
C2079 H2106 0.931 . S
C2080 C2078 1.421 . S
C2080 C2079 1.422 . S
C2080 C2104 1.417 . S
C2081 H2058 0.931 . S
C2081 N2077 1.343 . S
C2081 C2082 1.390 . S
C2082 H2060 0.930 . S
C2082 C2079 1.321 . S
C2082 C2081 1.390 . S
O2083 Gd2051 2.386 . S
O2083 C2095 1.265 . S
O2084 Gd2050 2.353 . S
O2084 C2095 1.242 . S
O2085 Gd2050 2.468 . S
O2085 C2103 1.263 . S
O2086 Gd2050 2.427 . S
O2086 C2103 1.252 . S
O2087 Gd2051 2.307 . S
O2087 C2096 1.261 . S
O2088 Gd2050 2.388 . S
O2088 C2096 1.252 . S
O2089 Gd2050 2.386 . S
O2089 C2107 1.265 . S
O2090 Gd2051 2.353 . S
O2090 C2107 1.242 . S
O2091 Gd2051 2.468 . S
O2091 C2115 1.263 . S
O2092 Gd2051 2.427 . S
O2092 C2115 1.252 . S
O2093 Gd2050 2.307 . S
O2093 C2108 1.261 . S
O2094 Gd2051 2.388 . S
O2094 C2108 1.252 . S
C2095 O2083 1.265 . S
C2095 O2084 1.242 . S
C2096 O2087 1.261 . S
C2096 O2088 1.252 . S
C2097 C2100 1.394 . S
C2097 C2102 1.370 . S
C2097 C2103 1.500 . S
C2098 C2101 1.383 . S
C2098 C2102 1.395 . S
C2099 C2100 1.396 . S
C2099 C2101 1.365 . S
C2099 H2116 0.929 . S
C2100 C2097 1.394 . S
C2100 C2099 1.396 . S
C2100 H2117 0.930 . S
C2101 C2098 1.383 . S
C2101 C2099 1.365 . S
C2101 H2118 0.931 . S
C2102 C2097 1.370 . S
C2102 C2098 1.395 . S
C2102 H2119 0.930 . S
C2103 Gd2050 2.805 . S
C2103 O2085 1.263 . S
C2103 O2086 1.252 . S
C2103 C2097 1.500 . S
C2104 H2066 0.930 . S
C2104 C2080 1.417 . S
C2104 C2105 1.329 . S
C2105 C2075 1.437 . S
C2105 H2076 0.929 . S
C2105 C2104 1.329 . S
H2106 C2079 0.931 . S
C2107 O2089 1.265 . S
C2107 O2090 1.242 . S
C2108 O2093 1.261 . S
C2108 O2094 1.252 . S
C2109 C2112 1.394 . S
C2109 C2114 1.370 . S
C2109 C2115 1.500 . S
C2110 C2113 1.383 . S
C2110 C2114 1.395 . S
C2111 C2112 1.396 . S
C2111 C2113 1.365 . S
C2111 H2120 0.929 . S
C2112 C2109 1.394 . S
C2112 C2111 1.396 . S
C2112 H2121 0.930 . S
C2113 C2110 1.383 . S
C2113 C2111 1.365 . S
C2113 H2122 0.931 . S
C2114 C2109 1.370 . S
C2114 C2110 1.395 . S
C2114 H2123 0.930 . S
C2115 Gd2051 2.805 . S
C2115 O2091 1.263 . S
C2115 O2092 1.252 . S
C2115 C2109 1.500 . S
H2116 C2099 0.929 . S
H2117 C2100 0.930 . S
H2118 C2101 0.931 . S
H2119 C2102 0.930 . S
H2120 C2111 0.929 . S
H2121 C2112 0.930 . S
H2122 C2113 0.931 . S
H2123 C2114 0.930 . S
C2124 C2126 1.422 1_556 S
C2124 C2128 1.415 . S
C2124 N2130 1.369 . S
C2125 C2126 1.421 . S
C2125 C2127 1.417 1_554 S
C2125 C2137 1.422 . S
C2126 C2124 1.422 1_554 S
C2126 C2125 1.421 . S
C2126 N2136 1.359 . S
C2127 C2125 1.417 1_556 S
C2127 C2129 1.329 . S
C2127 H2146 0.930 1_556 S
C2128 C2124 1.415 . S
C2128 C2129 1.437 . S
C2128 C2132 1.413 . S
C2129 C2127 1.329 . S
C2129 C2128 1.437 . S
C2129 H2151 0.929 . S
N2130 C2124 1.369 . S
N2130 C2131 1.338 . S
N2130 Gd2135 2.622 1_556 S
C2131 N2130 1.338 . S
C2131 C2133 1.378 . S
C2131 H2143 0.929 . S
C2132 C2128 1.413 . S
C2132 C2133 1.348 . S
C2132 H2148 0.931 . S
C2133 C2131 1.378 . S
C2133 C2132 1.348 . S
C2133 H2149 0.930 . S
Gd2134 N2154 2.622 1_455 S
Gd2134 N2161 2.570 1_455 S
Gd2134 O2168 2.353 . S
Gd2134 O2169 2.468 1_455 S
Gd2134 O2170 2.427 1_455 S
Gd2134 O2172 2.388 . S
Gd2134 O2173 2.386 . S
Gd2134 O2177 2.307 . S
Gd2134 C2187 2.805 1_455 S
Gd2135 N2130 2.622 1_554 S
Gd2135 N2136 2.570 . S
Gd2135 O2167 2.386 . S
Gd2135 O2171 2.307 . S
Gd2135 O2174 2.353 . S
Gd2135 O2175 2.468 . S
Gd2135 O2176 2.427 1_554 S
Gd2135 O2178 2.388 1_554 S
Gd2135 C2199 2.805 . S
N2136 C2126 1.359 . S
N2136 Gd2135 2.570 . S
N2136 C2138 1.343 . S
C2137 C2125 1.422 . S
C2137 C2139 1.321 . S
C2137 H2145 0.931 . S
C2138 N2136 1.343 . S
C2138 C2139 1.390 . S
C2138 H2140 0.931 . S
C2139 C2137 1.321 . S
C2139 C2138 1.390 . S
C2139 H2141 0.930 . S
H2140 C2138 0.931 . S
H2141 C2139 0.930 . S
H2142 C2165 0.931 . S
H2143 C2131 0.929 . S
H2144 C2166 0.930 1_556 S
H2145 C2137 0.931 . S
H2146 C2127 0.930 1_554 S
H2147 C2156 0.929 . S
H2148 C2132 0.931 . S
H2149 C2133 0.930 . S
H2150 C2188 0.930 . S
H2151 C2129 0.929 . S
H2152 C2157 0.931 . S
H2153 C2158 0.930 1_455 S
N2154 Gd2134 2.622 1_655 S
N2154 C2155 1.369 . S
N2154 C2156 1.338 1_655 S
C2155 N2154 1.369 . S
C2155 C2159 1.415 . S
C2155 C2162 1.422 . S
C2156 H2147 0.929 . S
C2156 N2154 1.338 1_455 S
C2156 C2158 1.378 1_455 S
C2157 H2152 0.931 . S
C2157 C2158 1.348 . S
C2157 C2159 1.413 . S
C2158 H2153 0.930 1_655 S
C2158 C2156 1.378 1_655 S
C2158 C2157 1.348 . S
C2159 C2155 1.415 . S
C2159 C2157 1.413 . S
C2159 C2189 1.437 . S
H2160 C2189 0.929 . S
N2161 Gd2134 2.570 1_655 S
N2161 C2162 1.359 . S
N2161 C2165 1.343 . S
C2162 C2155 1.422 . S
C2162 N2161 1.359 . S
C2162 C2164 1.421 . S
C2163 C2164 1.422 . S
C2163 C2166 1.321 . S
C2163 H2190 0.931 . S
C2164 C2162 1.421 . S
C2164 C2163 1.422 . S
C2164 C2188 1.417 . S
C2165 H2142 0.931 . S
C2165 N2161 1.343 . S
C2165 C2166 1.390 . S
C2166 H2144 0.930 1_554 S
C2166 C2163 1.321 . S
C2166 C2165 1.390 . S
O2167 Gd2135 2.386 . S
O2167 C2179 1.265 . S
O2168 Gd2134 2.353 . S
O2168 C2179 1.242 . S
O2169 Gd2134 2.468 1_655 S
O2169 C2187 1.263 . S
O2170 Gd2134 2.427 1_655 S
O2170 C2187 1.252 . S
O2171 Gd2135 2.307 . S
O2171 C2180 1.261 . S
O2172 Gd2134 2.388 . S
O2172 C2180 1.252 . S
O2173 Gd2134 2.386 . S
O2173 C2191 1.265 . S
O2174 Gd2135 2.353 . S
O2174 C2191 1.242 . S
O2175 Gd2135 2.468 . S
O2175 C2199 1.263 . S
O2176 Gd2135 2.427 1_556 S
O2176 C2199 1.252 1_556 S
O2177 Gd2134 2.307 . S
O2177 C2192 1.261 1_554 S
O2178 Gd2135 2.388 1_556 S
O2178 C2192 1.252 . S
C2179 O2167 1.265 . S
C2179 O2168 1.242 . S
C2180 O2171 1.261 . S
C2180 O2172 1.252 . S
C2181 C2184 1.394 . S
C2181 C2186 1.370 . S
C2181 C2187 1.500 . S
C2182 C2185 1.383 . S
C2182 C2186 1.395 . S
C2183 C2184 1.396 . S
C2183 C2185 1.365 . S
C2183 H2200 0.929 . S
C2184 C2181 1.394 . S
C2184 C2183 1.396 . S
C2184 H2201 0.930 . S
C2185 C2182 1.383 . S
C2185 C2183 1.365 . S
C2185 H2202 0.931 . S
C2186 C2181 1.370 . S
C2186 C2182 1.395 . S
C2186 H2203 0.930 . S
C2187 Gd2134 2.805 1_655 S
C2187 O2169 1.263 . S
C2187 O2170 1.252 . S
C2187 C2181 1.500 . S
C2188 H2150 0.930 . S
C2188 C2164 1.417 . S
C2188 C2189 1.329 . S
C2189 C2159 1.437 . S
C2189 H2160 0.929 . S
C2189 C2188 1.329 . S
H2190 C2163 0.931 . S
C2191 O2173 1.265 . S
C2191 O2174 1.242 . S
C2192 O2177 1.261 1_556 S
C2192 O2178 1.252 . S
C2193 C2196 1.394 . S
C2193 C2198 1.370 1_556 S
C2193 C2199 1.500 1_556 S
C2194 C2197 1.383 1_554 S
C2194 C2198 1.395 . S
C2195 C2196 1.396 . S
C2195 C2197 1.365 . S
C2195 H2204 0.929 . S
C2196 C2193 1.394 . S
C2196 C2195 1.396 . S
C2196 H2205 0.930 . S
C2197 C2194 1.383 1_556 S
C2197 C2195 1.365 . S
C2197 H2206 0.931 . S
C2198 C2193 1.370 1_554 S
C2198 C2194 1.395 . S
C2198 H2207 0.930 . S
C2199 Gd2135 2.805 . S
C2199 O2175 1.263 . S
C2199 O2176 1.252 1_554 S
C2199 C2193 1.500 1_554 S
H2200 C2183 0.929 . S
H2201 C2184 0.930 . S
H2202 C2185 0.931 . S
H2203 C2186 0.930 . S
H2204 C2195 0.929 . S
H2205 C2196 0.930 . S
H2206 C2197 0.931 . S
H2207 C2198 0.930 . S
C2208 C2209 1.369 1_655 S
C2208 C2210 1.419 1_655 S
C2208 H2212 0.930 . S
C2209 C2208 1.369 1_455 S
C2209 C2218 1.429 1_554 S
C2210 C2208 1.419 1_455 S
C2210 C2211 1.363 . S
C2210 H2213 0.929 1_455 S
C2211 C2210 1.363 . S
C2211 C2217 1.428 1_554 S
H2212 C2208 0.930 . S
H2213 C2210 0.929 1_655 S
S2214 N2215 1.613 . S
S2214 N2216 1.610 . S
N2215 S2214 1.613 . S
N2215 C2218 1.350 . S
N2216 S2214 1.610 . S
N2216 C2217 1.351 . S
C2217 C2211 1.428 1_556 S
C2217 N2216 1.351 . S
C2217 C2218 1.434 . S
C2218 C2209 1.429 1_556 S
C2218 N2215 1.350 . S
C2218 C2217 1.434 . S
C2219 C2220 1.369 . S
C2219 C2221 1.419 . S
C2219 H2223 0.930 . S
C2220 C2219 1.369 . S
C2220 C2229 1.429 . S
C2221 C2219 1.419 . S
C2221 C2222 1.363 . S
C2221 H2224 0.929 . S
C2222 C2221 1.363 . S
C2222 C2228 1.428 . S
H2223 C2219 0.930 . S
H2224 C2221 0.929 . S
S2225 N2226 1.613 . S
S2225 N2227 1.610 . S
N2226 S2225 1.613 . S
N2226 C2229 1.350 . S
N2227 S2225 1.610 . S
N2227 C2228 1.351 . S
C2228 C2222 1.428 . S
C2228 N2227 1.351 . S
C2228 C2229 1.434 . S
C2229 C2220 1.429 . S
C2229 N2226 1.350 . S
C2229 C2228 1.434 . S
C2230 C2231 1.369 . S
C2230 C2232 1.419 . S
C2230 H2234 0.930 . S
C2231 C2230 1.369 . S
C2231 C2240 1.429 . S
C2232 C2230 1.419 . S
C2232 C2233 1.363 . S
C2232 H2235 0.929 . S
C2233 C2232 1.363 . S
C2233 C2239 1.428 . S
H2234 C2230 0.930 . S
H2235 C2232 0.929 . S
S2236 N2237 1.613 . S
S2236 N2238 1.610 . S
N2237 S2236 1.613 . S
N2237 C2240 1.350 . S
N2238 S2236 1.610 . S
N2238 C2239 1.351 . S
C2239 C2233 1.428 . S
C2239 N2238 1.351 . S
C2239 C2240 1.434 . S
C2240 C2231 1.429 . S
C2240 N2237 1.350 . S
C2240 C2239 1.434 . S
C2241 C2242 1.369 . S
C2241 C2243 1.419 . S
C2241 H2245 0.930 . S
C2242 C2241 1.369 . S
C2242 C2251 1.429 . S
C2243 C2241 1.419 . S
C2243 C2244 1.363 . S
C2243 H2246 0.929 . S
C2244 C2243 1.363 . S
C2244 C2250 1.428 . S
H2245 C2241 0.930 . S
H2246 C2243 0.929 . S
S2247 N2248 1.613 . S
S2247 N2249 1.610 . S
N2248 S2247 1.613 . S
N2248 C2251 1.350 . S
N2249 S2247 1.610 . S
N2249 C2250 1.351 . S
C2250 C2244 1.428 . S
C2250 N2249 1.351 . S
C2250 C2251 1.434 . S
C2251 C2242 1.429 . S
C2251 N2248 1.350 . S
C2251 C2250 1.434 . S
C2252 C2253 1.369 . S
C2252 C2254 1.419 . S
C2252 H2256 0.930 . S
C2253 C2252 1.369 . S
C2253 C2262 1.429 . S
C2254 C2252 1.419 . S
C2254 C2255 1.363 . S
C2254 H2257 0.929 . S
C2255 C2254 1.363 . S
C2255 C2261 1.428 . S
H2256 C2252 0.930 . S
H2257 C2254 0.929 . S
S2258 N2259 1.613 . S
S2258 N2260 1.610 . S
N2259 S2258 1.613 . S
N2259 C2262 1.350 . S
N2260 S2258 1.610 . S
N2260 C2261 1.351 . S
C2261 C2255 1.428 . S
C2261 N2260 1.351 . S
C2261 C2262 1.434 . S
C2262 C2253 1.429 . S
C2262 N2259 1.350 . S
C2262 C2261 1.434 . S
C2263 C2264 1.369 . S
C2263 C2265 1.419 . S
C2263 H2267 0.930 . S
C2264 C2263 1.369 . S
C2264 C2273 1.429 . S
C2265 C2263 1.419 . S
C2265 C2266 1.363 . S
C2265 H2268 0.929 . S
C2266 C2265 1.363 . S
C2266 C2272 1.428 . S
H2267 C2263 0.930 . S
H2268 C2265 0.929 . S
S2269 N2270 1.613 . S
S2269 N2271 1.610 . S
N2270 S2269 1.613 . S
N2270 C2273 1.350 . S
N2271 S2269 1.610 . S
N2271 C2272 1.351 . S
C2272 C2266 1.428 . S
C2272 N2271 1.351 . S
C2272 C2273 1.434 . S
C2273 C2264 1.429 . S
C2273 N2270 1.350 . S
C2273 C2272 1.434 . S
C2274 C2275 1.369 . S
C2274 C2276 1.419 . S
C2274 H2278 0.930 . S
C2275 C2274 1.369 . S
C2275 C2284 1.429 . S
C2276 C2274 1.419 . S
C2276 C2277 1.363 . S
C2276 H2279 0.929 . S
C2277 C2276 1.363 . S
C2277 C2283 1.428 . S
H2278 C2274 0.930 . S
H2279 C2276 0.929 . S
S2280 N2281 1.613 . S
S2280 N2282 1.610 . S
N2281 S2280 1.613 . S
N2281 C2284 1.350 . S
N2282 S2280 1.610 . S
N2282 C2283 1.351 . S
C2283 C2277 1.428 . S
C2283 N2282 1.351 . S
C2283 C2284 1.434 . S
C2284 C2275 1.429 . S
C2284 N2281 1.350 . S
C2284 C2283 1.434 . S
C2285 C2286 1.369 . S
C2285 C2287 1.419 . S
C2285 H2289 0.930 . S
C2286 C2285 1.369 . S
C2286 C2295 1.429 . S
C2287 C2285 1.419 . S
C2287 C2288 1.363 . S
C2287 H2290 0.929 . S
C2288 C2287 1.363 . S
C2288 C2294 1.428 . S
H2289 C2285 0.930 . S
H2290 C2287 0.929 . S
S2291 N2292 1.613 . S
S2291 N2293 1.610 . S
N2292 S2291 1.613 . S
N2292 C2295 1.350 . S
N2293 S2291 1.610 . S
N2293 C2294 1.351 . S
C2294 C2288 1.428 . S
C2294 N2293 1.351 . S
C2294 C2295 1.434 . S
C2295 C2286 1.429 . S
C2295 N2292 1.350 . S
C2295 C2294 1.434 . S
C2296 C2297 1.369 . S
C2296 C2298 1.419 1_655 S
C2296 H2300 0.943 1_545 S
C2297 C2296 1.369 . S
C2297 C2306 1.429 . S
C2298 C2296 1.419 1_455 S
C2298 C2299 1.363 . S
C2298 H2301 0.929 . S
C2299 C2298 1.363 . S
C2299 C2305 1.428 1_455 S
H2300 C2296 0.943 1_565 S
H2301 C2298 0.929 . S
S2302 N2303 1.613 . S
S2302 N2304 1.610 . S
N2303 S2302 1.613 . S
N2303 C2306 1.350 . S
N2304 S2302 1.610 . S
N2304 C2305 1.351 . S
C2305 C2299 1.428 1_655 S
C2305 N2304 1.351 . S
C2305 C2306 1.434 . S
C2306 C2297 1.429 . S
C2306 N2303 1.350 . S
C2306 C2305 1.434 . S
C2307 C2308 1.369 . S
C2307 C2309 1.419 . S
C2307 H2311 0.930 . S
C2308 C2307 1.369 . S
C2308 C2317 1.429 . S
C2309 C2307 1.419 . S
C2309 C2310 1.363 . S
C2309 H2312 0.929 . S
C2310 C2309 1.363 . S
C2310 C2316 1.428 . S
H2311 C2307 0.930 . S
H2312 C2309 0.929 . S
S2313 N2314 1.613 . S
S2313 N2315 1.610 . S
N2314 S2313 1.613 . S
N2314 C2317 1.350 . S
N2315 S2313 1.610 . S
N2315 C2316 1.351 . S
C2316 C2310 1.428 . S
C2316 N2315 1.351 . S
C2316 C2317 1.434 . S
C2317 C2308 1.429 . S
C2317 N2314 1.350 . S
C2317 C2316 1.434 . S
C2318 C2319 1.369 . S
C2318 C2320 1.419 . S
C2318 H2322 0.930 . S
C2319 C2318 1.369 . S
C2319 C2328 1.429 . S
C2320 C2318 1.419 . S
C2320 C2321 1.363 . S
C2320 H2323 0.929 . S
C2321 C2320 1.363 . S
C2321 C2327 1.428 . S
H2322 C2318 0.930 . S
H2323 C2320 0.929 . S
S2324 N2325 1.613 . S
S2324 N2326 1.610 . S
N2325 S2324 1.613 . S
N2325 C2328 1.350 . S
N2326 S2324 1.610 . S
N2326 C2327 1.351 . S
C2327 C2321 1.428 . S
C2327 N2326 1.351 . S
C2327 C2328 1.434 . S
C2328 C2319 1.429 . S
C2328 N2325 1.350 . S
C2328 C2327 1.434 . S
C2329 C2330 1.369 . S
C2329 C2331 1.419 . S
C2329 H2333 0.930 . S
C2330 C2329 1.369 . S
C2330 C2339 1.429 . S
C2331 C2329 1.419 . S
C2331 C2332 1.363 . S
C2331 H2334 0.929 . S
C2332 C2331 1.363 . S
C2332 C2338 1.428 . S
H2333 C2329 0.930 . S
H2334 C2331 0.929 . S
S2335 N2336 1.613 . S
S2335 N2337 1.610 . S
N2336 S2335 1.613 . S
N2336 C2339 1.350 . S
N2337 S2335 1.610 . S
N2337 C2338 1.351 . S
C2338 C2332 1.428 . S
C2338 N2337 1.351 . S
C2338 C2339 1.434 . S
C2339 C2330 1.429 . S
C2339 N2336 1.350 . S
C2339 C2338 1.434 . S
C2340 C2341 1.369 . S
C2340 C2342 1.419 . S
C2340 H2344 0.930 . S
C2341 C2340 1.369 . S
C2341 C2350 1.454 . S
C2342 C2340 1.419 . S
C2342 C2343 1.363 1_655 S
C2342 H2345 0.925 . S
C2343 C2342 1.363 1_455 S
C2343 C2349 1.422 . S
H2344 C2340 0.930 . S
H2345 C2342 0.925 . S
S2346 N2347 1.613 . S
S2346 N2348 1.610 1_655 S
N2347 S2346 1.613 . S
N2347 C2350 1.327 1_565 S
N2348 S2346 1.610 1_455 S
N2348 C2349 1.366 1_565 S
C2349 C2343 1.422 . S
C2349 N2348 1.366 1_545 S
C2349 C2350 1.421 1_455 S
C2350 C2341 1.454 . S
C2350 N2347 1.327 1_545 S
C2350 C2349 1.421 1_655 S
C2351 C2352 1.369 . S
C2351 C2353 1.419 . S
C2351 H2355 0.930 . S
C2352 C2351 1.369 . S
C2352 C2361 1.429 . S
C2353 C2351 1.419 . S
C2353 C2354 1.363 . S
C2353 H2356 0.929 . S
C2354 C2353 1.363 . S
C2354 C2360 1.428 . S
H2355 C2351 0.930 . S
H2356 C2353 0.929 . S
S2357 N2358 1.613 . S
S2357 N2359 1.610 . S
N2358 S2357 1.613 . S
N2358 C2361 1.350 . S
N2359 S2357 1.610 . S
N2359 C2360 1.351 . S
C2360 C2354 1.428 . S
C2360 N2359 1.351 . S
C2360 C2361 1.434 . S
C2361 C2352 1.429 . S
C2361 N2358 1.350 . S
C2361 C2360 1.434 . S
C2362 C2363 1.369 . S
C2362 C2364 1.419 . S
C2362 H2366 0.930 . S
C2363 C2362 1.369 . S
C2363 C2372 1.429 . S
C2364 C2362 1.419 . S
C2364 C2365 1.363 . S
C2364 H2367 0.929 . S
C2365 C2364 1.363 . S
C2365 C2371 1.428 . S
H2366 C2362 0.930 . S
H2367 C2364 0.929 . S
S2368 N2369 1.613 . S
S2368 N2370 1.610 . S
N2369 S2368 1.613 . S
N2369 C2372 1.350 . S
N2370 S2368 1.610 . S
N2370 C2371 1.351 . S
C2371 C2365 1.428 . S
C2371 N2370 1.351 . S
C2371 C2372 1.434 . S
C2372 C2363 1.429 . S
C2372 N2369 1.350 . S
C2372 C2371 1.434 . S
C2373 C2374 1.369 . S
C2373 C2375 1.419 . S
C2373 H2377 0.930 . S
C2374 C2373 1.369 . S
C2374 C2383 1.429 . S
C2375 C2373 1.419 . S
C2375 C2376 1.363 . S
C2375 H2378 0.929 . S
C2376 C2375 1.363 . S
C2376 C2382 1.428 . S
H2377 C2373 0.930 . S
H2378 C2375 0.929 . S
S2379 N2380 1.613 . S
S2379 N2381 1.610 . S
N2380 S2379 1.613 . S
N2380 C2383 1.350 . S
N2381 S2379 1.610 . S
N2381 C2382 1.351 . S
C2382 C2376 1.428 . S
C2382 N2381 1.351 . S
C2382 C2383 1.434 . S
C2383 C2374 1.429 . S
C2383 N2380 1.350 . S
C2383 C2382 1.434 . S
C2384 C2385 1.369 1_545 S
C2384 C2386 1.419 . S
C2384 H2388 0.930 . S
C2385 C2384 1.369 1_565 S
C2385 C2394 1.429 . S
C2386 C2384 1.419 . S
C2386 C2387 1.363 . S
C2386 H2389 0.929 . S
C2387 C2386 1.363 . S
C2387 C2393 1.428 1_545 S
H2388 C2384 0.930 . S
H2389 C2386 0.929 . S
S2390 N2391 1.613 . S
S2390 N2392 1.610 1_556 S
N2391 S2390 1.613 . S
N2391 C2394 1.350 1_556 S
N2392 S2390 1.610 1_554 S
N2392 C2393 1.351 . S
C2393 C2387 1.428 1_565 S
C2393 N2392 1.351 . S
C2393 C2394 1.434 . S
C2394 C2385 1.429 . S
C2394 N2391 1.350 1_554 S
C2394 C2393 1.434 . S
C2395 C2396 1.369 . S
C2395 C2397 1.419 . S
C2395 H2399 0.930 . S
C2396 C2395 1.369 . S
C2396 C2405 1.429 . S
C2397 C2395 1.419 . S
C2397 C2398 1.363 . S
C2397 H2400 0.929 . S
C2398 C2397 1.363 . S
C2398 C2404 1.428 . S
H2399 C2395 0.930 . S
H2400 C2397 0.929 . S
S2401 N2402 1.613 . S
S2401 N2403 1.610 . S
N2402 S2401 1.613 . S
N2402 C2405 1.350 . S
N2403 S2401 1.610 . S
N2403 C2404 1.351 . S
C2404 C2398 1.428 . S
C2404 N2403 1.351 . S
C2404 C2405 1.434 . S
C2405 C2396 1.429 . S
C2405 N2402 1.350 . S
C2405 C2404 1.434 . S
C2406 C2407 1.369 . S
C2406 C2408 1.419 . S
C2406 H2410 0.930 . S
C2407 C2406 1.369 . S
C2407 C2416 1.429 . S
C2408 C2406 1.419 . S
C2408 C2409 1.363 . S
C2408 H2411 0.929 . S
C2409 C2408 1.363 . S
C2409 C2415 1.428 . S
H2410 C2406 0.930 . S
H2411 C2408 0.929 . S
S2412 N2413 1.613 . S
S2412 N2414 1.610 . S
N2413 S2412 1.613 . S
N2413 C2416 1.350 . S
N2414 S2412 1.610 . S
N2414 C2415 1.351 . S
C2415 C2409 1.428 . S
C2415 N2414 1.351 . S
C2415 C2416 1.434 . S
C2416 C2407 1.429 . S
C2416 N2413 1.350 . S
C2416 C2415 1.434 . S
C2417 C2418 1.369 . S
C2417 C2419 1.419 . S
C2417 H2421 0.930 . S
C2418 C2417 1.369 . S
C2418 C2427 1.429 . S
C2419 C2417 1.419 . S
C2419 C2420 1.363 . S
C2419 H2422 0.929 . S
C2420 C2419 1.363 . S
C2420 C2426 1.428 . S
H2421 C2417 0.930 . S
H2422 C2419 0.929 . S
S2423 N2424 1.613 . S
S2423 N2425 1.610 . S
N2424 S2423 1.613 . S
N2424 C2427 1.350 . S
N2425 S2423 1.610 . S
N2425 C2426 1.351 . S
C2426 C2420 1.428 . S
C2426 N2425 1.351 . S
C2426 C2427 1.434 . S
C2427 C2418 1.429 . S
C2427 N2424 1.350 . S
C2427 C2426 1.434 . S
C2428 C2429 1.369 . S
C2428 C2430 1.419 . S
C2428 H2432 0.930 . S
C2429 C2428 1.369 . S
C2429 C2438 1.429 . S
C2430 C2428 1.419 . S
C2430 C2431 1.363 . S
C2430 H2433 0.929 . S
C2431 C2430 1.363 . S
C2431 C2437 1.428 . S
H2432 C2428 0.930 . S
H2433 C2430 0.929 . S
S2434 N2435 1.613 . S
S2434 N2436 1.610 . S
N2435 S2434 1.613 . S
N2435 C2438 1.350 . S
N2436 S2434 1.610 . S
N2436 C2437 1.351 . S
C2437 C2431 1.428 . S
C2437 N2436 1.351 . S
C2437 C2438 1.434 . S
C2438 C2429 1.429 . S
C2438 N2435 1.350 . S
C2438 C2437 1.434 . S
C2439 C2440 1.369 . S
C2439 C2441 1.419 . S
C2439 H2443 0.930 . S
C2440 C2439 1.369 . S
C2440 C2449 1.429 . S
C2441 C2439 1.419 . S
C2441 C2442 1.363 . S
C2441 H2444 0.929 . S
C2442 C2441 1.363 . S
C2442 C2448 1.428 . S
H2443 C2439 0.930 . S
H2444 C2441 0.929 . S
S2445 N2446 1.613 . S
S2445 N2447 1.610 . S
N2446 S2445 1.613 . S
N2446 C2449 1.350 . S
N2447 S2445 1.610 . S
N2447 C2448 1.351 . S
C2448 C2442 1.428 . S
C2448 N2447 1.351 . S
C2448 C2449 1.434 . S
C2449 C2440 1.429 . S
C2449 N2446 1.350 . S
C2449 C2448 1.434 . S
C2450 C2451 1.369 . S
C2450 C2452 1.419 . S
C2450 H2454 0.930 . S
C2451 C2450 1.369 . S
C2451 C2460 1.429 . S
C2452 C2450 1.419 . S
C2452 C2453 1.363 . S
C2452 H2455 0.929 . S
C2453 C2452 1.363 . S
C2453 C2459 1.428 . S
H2454 C2450 0.930 . S
H2455 C2452 0.929 . S
S2456 N2457 1.613 . S
S2456 N2458 1.610 . S
N2457 S2456 1.613 . S
N2457 C2460 1.350 . S
N2458 S2456 1.610 . S
N2458 C2459 1.351 . S
C2459 C2453 1.428 . S
C2459 N2458 1.351 . S
C2459 C2460 1.434 . S
C2460 C2451 1.429 . S
C2460 N2457 1.350 . S
C2460 C2459 1.434 . S
C2461 C2462 1.369 . S
C2461 C2463 1.419 . S
C2461 H2465 0.930 . S
C2462 C2461 1.369 . S
C2462 C2471 1.429 . S
C2463 C2461 1.419 . S
C2463 C2464 1.363 . S
C2463 H2466 0.929 . S
C2464 C2463 1.363 . S
C2464 C2470 1.428 . S
H2465 C2461 0.930 . S
H2466 C2463 0.929 . S
S2467 N2468 1.613 . S
S2467 N2469 1.610 . S
N2468 S2467 1.613 . S
N2468 C2471 1.350 . S
N2469 S2467 1.610 . S
N2469 C2470 1.351 . S
C2470 C2464 1.428 . S
C2470 N2469 1.351 . S
C2470 C2471 1.434 . S
C2471 C2462 1.429 . S
C2471 N2468 1.350 . S
C2471 C2470 1.434 . S
C2472 C2473 1.369 . S
C2472 C2474 1.419 . S
C2472 H2476 0.930 . S
C2473 C2472 1.369 . S
C2473 C2482 1.429 . S
C2474 C2472 1.419 . S
C2474 C2475 1.363 . S
C2474 H2477 0.929 . S
C2475 C2474 1.363 . S
C2475 C2481 1.428 . S
H2476 C2472 0.930 . S
H2477 C2474 0.929 . S
S2478 N2479 1.613 . S
S2478 N2480 1.610 . S
N2479 S2478 1.613 . S
N2479 C2482 1.350 . S
N2480 S2478 1.610 . S
N2480 C2481 1.351 . S
C2481 C2475 1.428 . S
C2481 N2480 1.351 . S
C2481 C2482 1.434 . S
C2482 C2473 1.429 . S
C2482 N2479 1.350 . S
C2482 C2481 1.434 . S
C2483 C2484 1.369 . S
C2483 C2485 1.419 . S
C2483 H2487 0.930 . S
C2484 C2483 1.369 . S
C2484 C2493 1.429 . S
C2485 C2483 1.419 . S
C2485 C2486 1.363 . S
C2485 H2488 0.929 . S
C2486 C2485 1.363 . S
C2486 C2492 1.428 . S
H2487 C2483 0.930 . S
H2488 C2485 0.929 . S
S2489 N2490 1.613 . S
S2489 N2491 1.610 . S
N2490 S2489 1.613 . S
N2490 C2493 1.350 . S
N2491 S2489 1.610 . S
N2491 C2492 1.351 . S
C2492 C2486 1.428 . S
C2492 N2491 1.351 . S
C2492 C2493 1.434 . S
C2493 C2484 1.429 . S
C2493 N2490 1.350 . S
C2493 C2492 1.434 . S
C2494 C2495 1.369 . S
C2494 C2496 1.419 . S
C2494 H2498 0.930 . S
C2495 C2494 1.369 . S
C2495 C2504 1.429 . S
C2496 C2494 1.419 . S
C2496 C2497 1.363 . S
C2496 H2499 0.929 . S
C2497 C2496 1.363 . S
C2497 C2503 1.428 . S
H2498 C2494 0.930 . S
H2499 C2496 0.929 . S
S2500 N2501 1.613 . S
S2500 N2502 1.610 . S
N2501 S2500 1.613 . S
N2501 C2504 1.350 . S
N2502 S2500 1.610 . S
N2502 C2503 1.351 . S
C2503 C2497 1.428 . S
C2503 N2502 1.351 . S
C2503 C2504 1.434 . S
C2504 C2495 1.429 . S
C2504 N2501 1.350 . S
C2504 C2503 1.434 . S
C2505 C2506 1.369 . S
C2505 C2507 1.419 . S
C2505 H2509 0.930 . S
C2506 C2505 1.369 . S
C2506 C2515 1.429 . S
C2507 C2505 1.419 . S
C2507 C2508 1.363 . S
C2507 H2510 0.929 . S
C2508 C2507 1.363 . S
C2508 C2514 1.428 . S
H2509 C2505 0.930 . S
H2510 C2507 0.929 . S
S2511 N2512 1.613 . S
S2511 N2513 1.610 . S
N2512 S2511 1.613 . S
N2512 C2515 1.350 . S
N2513 S2511 1.610 . S
N2513 C2514 1.351 . S
C2514 C2508 1.428 . S
C2514 N2513 1.351 . S
C2514 C2515 1.434 . S
C2515 C2506 1.429 . S
C2515 N2512 1.350 . S
C2515 C2514 1.434 . S
C2516 C2517 1.369 . S
C2516 C2518 1.419 . S
C2516 H2520 0.930 . S
C2517 C2516 1.369 . S
C2517 C2526 1.429 . S
C2518 C2516 1.419 . S
C2518 C2519 1.363 . S
C2518 H2521 0.929 . S
C2519 C2518 1.363 . S
C2519 C2525 1.428 . S
H2520 C2516 0.930 . S
H2521 C2518 0.929 . S
S2522 N2523 1.613 . S
S2522 N2524 1.610 . S
N2523 S2522 1.613 . S
N2523 C2526 1.350 1_655 S
N2524 S2522 1.610 . S
N2524 C2525 1.351 1_655 S
C2525 C2519 1.428 . S
C2525 N2524 1.351 1_455 S
C2525 C2526 1.434 . S
C2526 C2517 1.429 . S
C2526 N2523 1.350 1_455 S
C2526 C2525 1.434 . S
C2527 C2528 1.369 . S
C2527 C2529 1.419 . S
C2527 H2531 0.930 . S
C2528 C2527 1.369 . S
C2528 C2537 1.429 . S
C2529 C2527 1.419 . S
C2529 C2530 1.363 . S
C2529 H2532 0.929 . S
C2530 C2529 1.363 . S
C2530 C2536 1.428 . S
H2531 C2527 0.930 . S
H2532 C2529 0.929 . S
S2533 N2534 1.613 . S
S2533 N2535 1.610 . S
N2534 S2533 1.613 . S
N2534 C2537 1.350 . S
N2535 S2533 1.610 . S
N2535 C2536 1.351 . S
C2536 C2530 1.428 . S
C2536 N2535 1.351 . S
C2536 C2537 1.434 . S
C2537 C2528 1.429 . S
C2537 N2534 1.350 . S
C2537 C2536 1.434 . S
C2538 C2539 1.369 . S
C2538 C2540 1.419 . S
C2538 H2542 0.930 . S
C2539 C2538 1.369 . S
C2539 C2548 1.429 . S
C2540 C2538 1.419 . S
C2540 C2541 1.363 . S
C2540 H2543 0.929 . S
C2541 C2540 1.363 . S
C2541 C2547 1.428 . S
H2542 C2538 0.930 . S
H2543 C2540 0.929 . S
S2544 N2545 1.613 1_554 S
S2544 N2546 1.610 . S
N2545 S2544 1.613 1_556 S
N2545 C2548 1.350 . S
N2546 S2544 1.610 . S
N2546 C2547 1.351 1_554 S
C2547 C2541 1.428 . S
C2547 N2546 1.351 1_556 S
C2547 C2548 1.434 . S
C2548 C2539 1.429 . S
C2548 N2545 1.350 . S
C2548 C2547 1.434 . S
C2549 C2550 1.369 . S
C2549 C2551 1.419 . S
C2549 H2553 0.930 . S
C2550 C2549 1.369 . S
C2550 C2559 1.429 . S
C2551 C2549 1.419 . S
C2551 C2552 1.363 . S
C2551 H2554 0.929 . S
C2552 C2551 1.363 . S
C2552 C2558 1.428 . S
H2553 C2549 0.930 . S
H2554 C2551 0.929 . S
S2555 N2556 1.613 . S
S2555 N2557 1.610 . S
N2556 S2555 1.613 . S
N2556 C2559 1.350 . S
N2557 S2555 1.610 . S
N2557 C2558 1.351 . S
C2558 C2552 1.428 . S
C2558 N2557 1.351 . S
C2558 C2559 1.434 . S
C2559 C2550 1.429 . S
C2559 N2556 1.350 . S
C2559 C2558 1.434 . S
C2560 C2561 1.369 . S
C2560 C2562 1.419 . S
C2560 H2564 0.930 . S
C2561 C2560 1.369 . S
C2561 C2570 1.429 . S
C2562 C2560 1.419 . S
C2562 C2563 1.363 . S
C2562 H2565 0.929 . S
C2563 C2562 1.363 . S
C2563 C2569 1.428 . S
H2564 C2560 0.930 . S
H2565 C2562 0.929 . S
S2566 N2567 1.613 . S
S2566 N2568 1.610 . S
N2567 S2566 1.613 . S
N2567 C2570 1.350 . S
N2568 S2566 1.610 . S
N2568 C2569 1.351 . S
C2569 C2563 1.428 . S
C2569 N2568 1.351 . S
C2569 C2570 1.434 . S
C2570 C2561 1.429 . S
C2570 N2567 1.350 . S
C2570 C2569 1.434 . S
C2571 C2572 1.369 . S
C2571 C2573 1.419 . S
C2571 H2575 0.930 . S
C2572 C2571 1.369 . S
C2572 C2581 1.429 . S
C2573 C2571 1.419 . S
C2573 C2574 1.363 . S
C2573 H2576 0.929 . S
C2574 C2573 1.363 . S
C2574 C2580 1.428 . S
H2575 C2571 0.930 . S
H2576 C2573 0.929 . S
S2577 N2578 1.613 . S
S2577 N2579 1.610 . S
N2578 S2577 1.613 . S
N2578 C2581 1.350 . S
N2579 S2577 1.610 . S
N2579 C2580 1.351 . S
C2580 C2574 1.428 . S
C2580 N2579 1.351 . S
C2580 C2581 1.434 . S
C2581 C2572 1.429 . S
C2581 N2578 1.350 . S
C2581 C2580 1.434 . S
C2582 C2583 1.369 . S
C2582 C2584 1.419 . S
C2582 H2586 0.930 1_545 S
C2583 C2582 1.369 . S
C2583 C2592 1.429 . S
C2584 C2582 1.419 . S
C2584 C2585 1.363 . S
C2584 H2587 0.929 1_545 S
C2585 C2584 1.363 . S
C2585 C2591 1.428 . S
H2586 C2582 0.930 1_565 S
H2587 C2584 0.929 1_565 S
S2588 N2589 1.613 . S
S2588 N2590 1.610 . S
N2589 S2588 1.613 . S
N2589 C2592 1.350 . S
N2590 S2588 1.610 . S
N2590 C2591 1.351 . S
C2591 C2585 1.428 . S
C2591 N2590 1.351 . S
C2591 C2592 1.434 . S
C2592 C2583 1.429 . S
C2592 N2589 1.350 . S
C2592 C2591 1.434 . S
C2593 C2594 1.369 . S
C2593 C2595 1.419 . S
C2593 H2597 0.930 . S
C2594 C2593 1.369 . S
C2594 C2603 1.429 . S
C2595 C2593 1.419 . S
C2595 C2596 1.363 . S
C2595 H2598 0.929 . S
C2596 C2595 1.363 . S
C2596 C2602 1.428 . S
H2597 C2593 0.930 . S
H2598 C2595 0.929 . S
S2599 N2600 1.613 . S
S2599 N2601 1.610 . S
N2600 S2599 1.613 . S
N2600 C2603 1.350 . S
N2601 S2599 1.610 . S
N2601 C2602 1.351 . S
C2602 C2596 1.428 . S
C2602 N2601 1.351 . S
C2602 C2603 1.434 . S
C2603 C2594 1.429 . S
C2603 N2600 1.350 . S
C2603 C2602 1.434 . S
C2604 C2605 1.369 . S
C2604 C2606 1.419 . S
C2604 H2608 0.930 . S
C2605 C2604 1.369 . S
C2605 C2614 1.429 . S
C2606 C2604 1.419 . S
C2606 C2607 1.363 . S
C2606 H2609 0.929 . S
C2607 C2606 1.363 . S
C2607 C2613 1.428 . S
H2608 C2604 0.930 . S
H2609 C2606 0.929 . S
S2610 N2611 1.613 1_565 S
S2610 N2612 1.610 1_565 S
N2611 S2610 1.613 1_545 S
N2611 C2614 1.350 . S
N2612 S2610 1.610 1_545 S
N2612 C2613 1.351 . S
C2613 C2607 1.428 . S
C2613 N2612 1.351 . S
C2613 C2614 1.434 . S
C2614 C2605 1.429 . S
C2614 N2611 1.350 . S
C2614 C2613 1.434 . S
C2615 C2616 1.369 . S
C2615 C2617 1.419 . S
C2615 H2619 0.930 . S
C2616 C2615 1.369 . S
C2616 C2625 1.429 . S
C2617 C2615 1.419 . S
C2617 C2618 1.363 . S
C2617 H2620 0.929 . S
C2618 C2617 1.363 . S
C2618 C2624 1.428 . S
H2619 C2615 0.930 . S
H2620 C2617 0.929 . S
S2621 N2622 1.613 . S
S2621 N2623 1.610 . S
N2622 S2621 1.613 . S
N2622 C2625 1.350 . S
N2623 S2621 1.610 . S
N2623 C2624 1.351 . S
C2624 C2618 1.428 . S
C2624 N2623 1.351 . S
C2624 C2625 1.434 . S
C2625 C2616 1.429 . S
C2625 N2622 1.350 . S
C2625 C2624 1.434 . S
C2626 C2627 1.369 . S
C2626 C2628 1.419 . S
C2626 H2630 0.930 . S
C2627 C2626 1.369 . S
C2627 C2636 1.429 . S
C2628 C2626 1.419 . S
C2628 C2629 1.363 . S
C2628 H2631 0.929 . S
C2629 C2628 1.363 . S
C2629 C2635 1.428 . S
H2630 C2626 0.930 . S
H2631 C2628 0.929 . S
S2632 N2633 1.613 . S
S2632 N2634 1.610 . S
N2633 S2632 1.613 . S
N2633 C2636 1.350 . S
N2634 S2632 1.610 . S
N2634 C2635 1.351 . S
C2635 C2629 1.428 . S
C2635 N2634 1.351 . S
C2635 C2636 1.434 . S
C2636 C2627 1.429 . S
C2636 N2633 1.350 . S
C2636 C2635 1.434 . S
C2637 C2638 1.369 . S
C2637 C2639 1.419 . S
C2637 H2641 0.930 . S
C2638 C2637 1.369 . S
C2638 C2647 1.429 . S
C2639 C2637 1.419 . S
C2639 C2640 1.363 . S
C2639 H2642 0.929 . S
C2640 C2639 1.363 . S
C2640 C2646 1.428 . S
H2641 C2637 0.930 . S
H2642 C2639 0.929 . S
S2643 N2644 1.613 . S
S2643 N2645 1.610 . S
N2644 S2643 1.613 . S
N2644 C2647 1.350 . S
N2645 S2643 1.610 . S
N2645 C2646 1.351 . S
C2646 C2640 1.428 . S
C2646 N2645 1.351 . S
C2646 C2647 1.434 . S
C2647 C2638 1.429 . S
C2647 N2644 1.350 . S
C2647 C2646 1.434 . S
C2648 C2649 1.369 . S
C2648 C2650 1.419 . S
C2648 H2652 0.930 . S
C2649 C2648 1.369 . S
C2649 C2658 1.429 . S
C2650 C2648 1.419 . S
C2650 C2651 1.363 . S
C2650 H2653 0.929 . S
C2651 C2650 1.363 . S
C2651 C2657 1.428 . S
H2652 C2648 0.930 . S
H2653 C2650 0.929 . S
S2654 N2655 1.613 . S
S2654 N2656 1.610 . S
N2655 S2654 1.613 . S
N2655 C2658 1.350 . S
N2656 S2654 1.610 . S
N2656 C2657 1.351 . S
C2657 C2651 1.428 . S
C2657 N2656 1.351 . S
C2657 C2658 1.434 . S
C2658 C2649 1.429 . S
C2658 N2655 1.350 . S
C2658 C2657 1.434 . S
C2659 C2660 1.369 . S
C2659 C2661 1.419 . S
C2659 H2663 0.930 . S
C2660 C2659 1.369 . S
C2660 C2669 1.429 . S
C2661 C2659 1.419 . S
C2661 C2662 1.363 . S
C2661 H2664 0.929 . S
C2662 C2661 1.363 . S
C2662 C2668 1.428 . S
H2663 C2659 0.930 . S
H2664 C2661 0.929 . S
S2665 N2666 1.613 . S
S2665 N2667 1.610 . S
N2666 S2665 1.613 . S
N2666 C2669 1.350 . S
N2667 S2665 1.610 . S
N2667 C2668 1.351 . S
C2668 C2662 1.428 . S
C2668 N2667 1.351 . S
C2668 C2669 1.434 . S
C2669 C2660 1.429 . S
C2669 N2666 1.350 . S
C2669 C2668 1.434 . S
C2670 C2671 1.369 . S
C2670 C2672 1.419 . S
C2670 H2674 0.930 . S
C2671 C2670 1.369 . S
C2671 C2680 1.429 . S
C2672 C2670 1.419 . S
C2672 C2673 1.363 . S
C2672 H2675 0.929 . S
C2673 C2672 1.363 . S
C2673 C2679 1.428 . S
H2674 C2670 0.930 . S
H2675 C2672 0.929 . S
S2676 N2677 1.613 . S
S2676 N2678 1.610 . S
N2677 S2676 1.613 . S
N2677 C2680 1.350 . S
N2678 S2676 1.610 . S
N2678 C2679 1.351 . S
C2679 C2673 1.428 . S
C2679 N2678 1.351 . S
C2679 C2680 1.434 . S
C2680 C2671 1.429 . S
C2680 N2677 1.350 . S
C2680 C2679 1.434 . S
C2681 C2682 1.369 . S
C2681 C2683 1.419 . S
C2681 H2685 0.930 . S
C2682 C2681 1.369 . S
C2682 C2691 1.429 . S
C2683 C2681 1.419 . S
C2683 C2684 1.363 . S
C2683 H2686 0.929 . S
C2684 C2683 1.363 . S
C2684 C2690 1.428 . S
H2685 C2681 0.930 . S
H2686 C2683 0.929 . S
S2687 N2688 1.613 . S
S2687 N2689 1.610 . S
N2688 S2687 1.613 . S
N2688 C2691 1.350 . S
N2689 S2687 1.610 . S
N2689 C2690 1.351 . S
C2690 C2684 1.428 . S
C2690 N2689 1.351 . S
C2690 C2691 1.434 . S
C2691 C2682 1.429 . S
C2691 N2688 1.350 . S
C2691 C2690 1.434 . S
C2692 C2693 1.369 1_565 S
C2692 C2694 1.419 . S
C2692 H2696 0.930 . S
C2693 C2692 1.369 1_545 S
C2693 C2702 1.429 . S
C2694 C2692 1.419 . S
C2694 C2695 1.363 . S
C2694 H2697 0.929 . S
C2695 C2694 1.363 . S
C2695 C2701 1.428 . S
H2696 C2692 0.930 . S
H2697 C2694 0.929 . S
S2698 N2699 1.613 . S
S2698 N2700 1.610 1_545 S
N2699 S2698 1.613 . S
N2699 C2702 1.350 . S
N2700 S2698 1.610 1_565 S
N2700 C2701 1.351 . S
C2701 C2695 1.428 . S
C2701 N2700 1.351 . S
C2701 C2702 1.434 1_565 S
C2702 C2693 1.429 . S
C2702 N2699 1.350 . S
C2702 C2701 1.434 1_545 S
C2703 C2704 1.369 . S
C2703 C2705 1.419 . S
C2703 H2707 0.930 . S
C2704 C2703 1.369 . S
C2704 C2713 1.429 . S
C2705 C2703 1.419 . S
C2705 C2706 1.363 . S
C2705 H2708 0.892 1_565 S
C2706 C2705 1.363 . S
C2706 C2712 1.428 . S
H2707 C2703 0.930 . S
H2708 C2705 0.892 1_545 S
S2709 N2710 1.613 . S
S2709 N2711 1.610 . S
N2710 S2709 1.613 . S
N2710 C2713 1.350 . S
N2711 S2709 1.610 . S
N2711 C2712 1.351 . S
C2712 C2706 1.428 . S
C2712 N2711 1.351 . S
C2712 C2713 1.434 . S
C2713 C2704 1.429 . S
C2713 N2710 1.350 . S
C2713 C2712 1.434 . S
C2714 C2715 1.369 . S
C2714 C2716 1.419 . S
C2714 H2718 0.930 . S
C2715 C2714 1.369 . S
C2715 C2724 1.429 . S
C2716 C2714 1.419 . S
C2716 C2717 1.363 . S
C2716 H2719 0.929 . S
C2717 C2716 1.363 . S
C2717 C2723 1.428 . S
H2718 C2714 0.930 . S
H2719 C2716 0.929 . S
S2720 N2721 1.613 . S
S2720 N2722 1.610 . S
N2721 S2720 1.613 . S
N2721 C2724 1.350 . S
N2722 S2720 1.610 . S
N2722 C2723 1.351 . S
C2723 C2717 1.428 . S
C2723 N2722 1.351 . S
C2723 C2724 1.434 . S
C2724 C2715 1.429 . S
C2724 N2721 1.350 . S
C2724 C2723 1.434 . S
C2725 C2726 1.369 . S
C2725 C2727 1.419 . S
C2725 H2729 0.930 . S
C2726 C2725 1.369 . S
C2726 C2735 1.429 . S
C2727 C2725 1.419 . S
C2727 C2728 1.363 . S
C2727 H2730 0.929 . S
C2728 C2727 1.363 . S
C2728 C2734 1.428 . S
H2729 C2725 0.930 . S
H2730 C2727 0.929 . S
S2731 N2732 1.613 . S
S2731 N2733 1.610 . S
N2732 S2731 1.613 . S
N2732 C2735 1.350 . S
N2733 S2731 1.610 . S
N2733 C2734 1.351 . S
C2734 C2728 1.428 . S
C2734 N2733 1.351 . S
C2734 C2735 1.434 . S
C2735 C2726 1.429 . S
C2735 N2732 1.350 . S
C2735 C2734 1.434 . S
C2736 C2737 1.369 . S
C2736 C2738 1.419 . S
C2736 H2740 0.930 . S
C2737 C2736 1.369 . S
C2737 C2746 1.429 . S
C2738 C2736 1.419 . S
C2738 C2739 1.363 . S
C2738 H2741 0.929 . S
C2739 C2738 1.363 . S
C2739 C2745 1.428 . S
H2740 C2736 0.930 . S
H2741 C2738 0.929 . S
S2742 N2743 1.613 . S
S2742 N2744 1.610 . S
N2743 S2742 1.613 . S
N2743 C2746 1.350 . S
N2744 S2742 1.610 . S
N2744 C2745 1.351 . S
C2745 C2739 1.428 . S
C2745 N2744 1.351 . S
C2745 C2746 1.434 . S
C2746 C2737 1.429 . S
C2746 N2743 1.350 . S
C2746 C2745 1.434 . S
C2747 C2748 1.369 . S
C2747 C2749 1.419 . S
C2747 H2751 0.930 . S
C2748 C2747 1.369 . S
C2748 C2757 1.429 . S
C2749 C2747 1.419 . S
C2749 C2750 1.363 . S
C2749 H2752 0.929 . S
C2750 C2749 1.363 . S
C2750 C2756 1.428 . S
H2751 C2747 0.930 . S
H2752 C2749 0.929 . S
S2753 N2754 1.613 . S
S2753 N2755 1.610 . S
N2754 S2753 1.613 . S
N2754 C2757 1.350 . S
N2755 S2753 1.610 . S
N2755 C2756 1.351 . S
C2756 C2750 1.428 . S
C2756 N2755 1.351 . S
C2756 C2757 1.434 . S
C2757 C2748 1.429 . S
C2757 N2754 1.350 . S
C2757 C2756 1.434 . S
C2758 C2759 1.369 . S
C2758 C2760 1.419 . S
C2758 H2762 0.930 . S
C2759 C2758 1.369 . S
C2759 C2768 1.429 1_554 S
C2760 C2758 1.419 . S
C2760 C2761 1.363 . S
C2760 H2763 0.929 . S
C2761 C2760 1.363 . S
C2761 C2767 1.428 1_554 S
H2762 C2758 0.930 . S
H2763 C2760 0.929 . S
S2764 N2765 1.613 . S
S2764 N2766 1.610 1_655 S
N2765 S2764 1.613 . S
N2765 C2768 1.350 1_655 S
N2766 S2764 1.610 1_455 S
N2766 C2767 1.351 . S
C2767 C2761 1.428 1_556 S
C2767 N2766 1.351 . S
C2767 C2768 1.434 . S
C2768 C2759 1.429 1_556 S
C2768 N2765 1.350 1_455 S
C2768 C2767 1.434 . S
C2769 C2770 1.369 . S
C2769 C2771 1.419 . S
C2769 H2773 0.930 . S
C2770 C2769 1.369 . S
C2770 C2779 1.429 . S
C2771 C2769 1.419 . S
C2771 C2772 1.363 . S
C2771 H2774 0.929 . S
C2772 C2771 1.363 . S
C2772 C2778 1.428 . S
H2773 C2769 0.930 . S
H2774 C2771 0.929 . S
S2775 N2776 1.613 . S
S2775 N2777 1.610 . S
N2776 S2775 1.613 . S
N2776 C2779 1.350 . S
N2777 S2775 1.610 . S
N2777 C2778 1.351 . S
C2778 C2772 1.428 . S
C2778 N2777 1.351 . S
C2778 C2779 1.434 . S
C2779 C2770 1.429 . S
C2779 N2776 1.350 . S
C2779 C2778 1.434 . S
C2780 C2781 1.369 . S
C2780 C2782 1.419 . S
C2780 H2784 0.930 . S
C2781 C2780 1.369 . S
C2781 C2790 1.429 . S
C2782 C2780 1.419 . S
C2782 C2783 1.363 . S
C2782 H2785 0.929 . S
C2783 C2782 1.363 . S
C2783 C2789 1.428 . S
H2784 C2780 0.930 . S
H2785 C2782 0.929 . S
S2786 N2787 1.613 . S
S2786 N2788 1.610 . S
N2787 S2786 1.613 . S
N2787 C2790 1.350 . S
N2788 S2786 1.610 . S
N2788 C2789 1.351 . S
C2789 C2783 1.428 . S
C2789 N2788 1.351 . S
C2789 C2790 1.434 . S
C2790 C2781 1.429 . S
C2790 N2787 1.350 . S
C2790 C2789 1.434 . S
C2791 C2792 1.369 . S
C2791 C2793 1.419 . S
C2791 H2795 0.930 . S
C2792 C2791 1.369 . S
C2792 C2801 1.429 . S
C2793 C2791 1.419 . S
C2793 C2794 1.363 . S
C2793 H2796 0.929 . S
C2794 C2793 1.363 . S
C2794 C2800 1.428 . S
H2795 C2791 0.930 . S
H2796 C2793 0.929 . S
S2797 N2798 1.613 . S
S2797 N2799 1.610 . S
N2798 S2797 1.613 . S
N2798 C2801 1.350 . S
N2799 S2797 1.610 . S
N2799 C2800 1.351 . S
C2800 C2794 1.428 . S
C2800 N2799 1.351 . S
C2800 C2801 1.434 . S
C2801 C2792 1.429 . S
C2801 N2798 1.350 . S
C2801 C2800 1.434 . S
C2802 C2803 1.369 1_655 S
C2802 C2804 1.419 1_655 S
C2802 H2806 0.930 . S
C2803 C2802 1.369 1_455 S
C2803 C2812 1.429 . S
C2804 C2802 1.419 1_455 S
C2804 C2805 1.363 . S
C2804 H2807 0.929 1_455 S
C2805 C2804 1.363 . S
C2805 C2811 1.428 . S
H2806 C2802 0.930 . S
H2807 C2804 0.929 1_655 S
S2808 N2809 1.613 . S
S2808 N2810 1.610 . S
N2809 S2808 1.613 . S
N2809 C2812 1.350 . S
N2810 S2808 1.610 . S
N2810 C2811 1.351 . S
C2811 C2805 1.428 . S
C2811 N2810 1.351 . S
C2811 C2812 1.434 . S
C2812 C2803 1.429 . S
C2812 N2809 1.350 . S
C2812 C2811 1.434 . S
C2813 C2814 1.369 . S
C2813 C2815 1.419 . S
C2813 H2817 0.930 . S
C2814 C2813 1.369 . S
C2814 C2823 1.429 . S
C2815 C2813 1.419 . S
C2815 C2816 1.363 . S
C2815 H2818 0.929 . S
C2816 C2815 1.363 . S
C2816 C2822 1.428 . S
H2817 C2813 0.930 . S
H2818 C2815 0.929 . S
S2819 N2820 1.613 . S
S2819 N2821 1.610 . S
N2820 S2819 1.613 . S
N2820 C2823 1.350 . S
N2821 S2819 1.610 . S
N2821 C2822 1.351 . S
C2822 C2816 1.428 . S
C2822 N2821 1.351 . S
C2822 C2823 1.434 . S
C2823 C2814 1.429 . S
C2823 N2820 1.350 . S
C2823 C2822 1.434 . S
C2824 C2825 1.369 . S
C2824 C2826 1.419 . S
C2824 H2828 0.930 . S
C2825 C2824 1.369 . S
C2825 C2834 1.429 . S
C2826 C2824 1.419 . S
C2826 C2827 1.363 . S
C2826 H2829 0.929 . S
C2827 C2826 1.363 . S
C2827 C2833 1.428 . S
H2828 C2824 0.930 . S
H2829 C2826 0.929 . S
S2830 N2831 1.613 . S
S2830 N2832 1.610 . S
N2831 S2830 1.613 . S
N2831 C2834 1.350 . S
N2832 S2830 1.610 . S
N2832 C2833 1.351 . S
C2833 C2827 1.428 . S
C2833 N2832 1.351 . S
C2833 C2834 1.434 . S
C2834 C2825 1.429 . S
C2834 N2831 1.350 . S
C2834 C2833 1.434 . S
C2835 C2836 1.369 . S
C2835 C2837 1.419 1_554 S
C2835 H2839 0.930 . S
C2836 C2835 1.369 . S
C2836 C2845 1.429 1_554 S
C2837 C2835 1.419 1_556 S
C2837 C2838 1.363 . S
C2837 H2840 0.929 . S
C2838 C2837 1.363 . S
C2838 C2844 1.428 . S
H2839 C2835 0.930 . S
H2840 C2837 0.929 . S
S2841 N2842 1.613 . S
S2841 N2843 1.610 . S
N2842 S2841 1.613 . S
N2842 C2845 1.350 . S
N2843 S2841 1.610 . S
N2843 C2844 1.351 . S
C2844 C2838 1.428 . S
C2844 N2843 1.351 . S
C2844 C2845 1.434 . S
C2845 C2836 1.429 1_556 S
C2845 N2842 1.350 . S
C2845 C2844 1.434 . S
C2846 C2847 1.369 . S
C2846 C2848 1.419 . S
C2846 H2850 0.930 . S
C2847 C2846 1.369 . S
C2847 C2856 1.429 . S
C2848 C2846 1.419 . S
C2848 C2849 1.363 . S
C2848 H2851 0.929 . S
C2849 C2848 1.363 . S
C2849 C2855 1.428 . S
H2850 C2846 0.930 . S
H2851 C2848 0.929 . S
S2852 N2853 1.613 . S
S2852 N2854 1.610 . S
N2853 S2852 1.613 . S
N2853 C2856 1.350 . S
N2854 S2852 1.610 . S
N2854 C2855 1.351 . S
C2855 C2849 1.428 . S
C2855 N2854 1.351 . S
C2855 C2856 1.434 . S
C2856 C2847 1.429 . S
C2856 N2853 1.350 . S
C2856 C2855 1.434 . S
C2857 C2858 1.369 . S
C2857 C2859 1.419 . S
C2857 H2861 0.930 . S
C2858 C2857 1.369 . S
C2858 C2867 1.429 . S
C2859 C2857 1.419 . S
C2859 C2860 1.363 . S
C2859 H2862 0.929 . S
C2860 C2859 1.363 . S
C2860 C2866 1.428 . S
H2861 C2857 0.930 . S
H2862 C2859 0.929 . S
S2863 N2864 1.613 . S
S2863 N2865 1.610 . S
N2864 S2863 1.613 . S
N2864 C2867 1.350 . S
N2865 S2863 1.610 . S
N2865 C2866 1.351 . S
C2866 C2860 1.428 . S
C2866 N2865 1.351 . S
C2866 C2867 1.434 . S
C2867 C2858 1.429 . S
C2867 N2864 1.350 . S
C2867 C2866 1.434 . S
C2868 C2869 1.369 . S
C2868 C2870 1.419 . S
C2868 H2872 0.930 . S
C2869 C2868 1.369 . S
C2869 C2878 1.429 . S
C2870 C2868 1.419 . S
C2870 C2871 1.363 . S
C2870 H2873 0.929 . S
C2871 C2870 1.363 . S
C2871 C2877 1.428 . S
H2872 C2868 0.930 . S
H2873 C2870 0.929 . S
S2874 N2875 1.613 . S
S2874 N2876 1.610 . S
N2875 S2874 1.613 . S
N2875 C2878 1.350 . S
N2876 S2874 1.610 . S
N2876 C2877 1.351 . S
C2877 C2871 1.428 . S
C2877 N2876 1.351 . S
C2877 C2878 1.434 . S
C2878 C2869 1.429 . S
C2878 N2875 1.350 . S
C2878 C2877 1.434 . S
C2879 C2880 1.369 . S
C2879 C2881 1.419 . S
C2879 H2883 0.930 . S
C2880 C2879 1.369 . S
C2880 C2889 1.429 . S
C2881 C2879 1.419 . S
C2881 C2882 1.363 . S
C2881 H2884 0.929 . S
C2882 C2881 1.363 . S
C2882 C2888 1.428 . S
H2883 C2879 0.930 . S
H2884 C2881 0.929 . S
S2885 N2886 1.613 . S
S2885 N2887 1.610 . S
N2886 S2885 1.613 . S
N2886 C2889 1.350 . S
N2887 S2885 1.610 . S
N2887 C2888 1.351 . S
C2888 C2882 1.428 . S
C2888 N2887 1.351 . S
C2888 C2889 1.434 . S
C2889 C2880 1.429 . S
C2889 N2886 1.350 . S
C2889 C2888 1.434 . S
C2890 C2891 1.369 . S
C2890 C2892 1.419 . S
C2890 H2894 0.930 . S
C2891 C2890 1.369 . S
C2891 C2900 1.429 . S
C2892 C2890 1.419 . S
C2892 C2893 1.363 . S
C2892 H2895 0.929 . S
C2893 C2892 1.363 . S
C2893 C2899 1.428 . S
H2894 C2890 0.930 . S
H2895 C2892 0.929 . S
S2896 N2897 1.613 . S
S2896 N2898 1.610 . S
N2897 S2896 1.613 . S
N2897 C2900 1.350 . S
N2898 S2896 1.610 . S
N2898 C2899 1.351 . S
C2899 C2893 1.428 . S
C2899 N2898 1.351 . S
C2899 C2900 1.434 . S
C2900 C2891 1.429 . S
C2900 N2897 1.350 . S
C2900 C2899 1.434 . S
C2901 C2902 1.369 . S
C2901 C2903 1.419 . S
C2901 H2905 0.930 . S
C2902 C2901 1.369 . S
C2902 C2911 1.429 . S
C2903 C2901 1.419 . S
C2903 C2904 1.363 . S
C2903 H2906 0.929 . S
C2904 C2903 1.363 . S
C2904 C2910 1.428 . S
H2905 C2901 0.930 . S
H2906 C2903 0.929 . S
S2907 N2908 1.613 . S
S2907 N2909 1.610 . S
N2908 S2907 1.613 . S
N2908 C2911 1.350 . S
N2909 S2907 1.610 . S
N2909 C2910 1.351 . S
C2910 C2904 1.428 . S
C2910 N2909 1.351 . S
C2910 C2911 1.434 . S
C2911 C2902 1.429 . S
C2911 N2908 1.350 . S
C2911 C2910 1.434 . S
C2912 C2913 1.369 . S
C2912 C2914 1.419 . S
C2912 H2916 0.930 . S
C2913 C2912 1.369 . S
C2913 C2922 1.429 . S
C2914 C2912 1.419 . S
C2914 C2915 1.363 . S
C2914 H2917 0.929 . S
C2915 C2914 1.363 . S
C2915 C2921 1.428 . S
H2916 C2912 0.930 . S
H2917 C2914 0.929 . S
S2918 N2919 1.613 . S
S2918 N2920 1.610 . S
N2919 S2918 1.613 . S
N2919 C2922 1.350 . S
N2920 S2918 1.610 . S
N2920 C2921 1.351 . S
C2921 C2915 1.428 . S
C2921 N2920 1.351 . S
C2921 C2922 1.434 . S
C2922 C2913 1.429 . S
C2922 N2919 1.350 . S
C2922 C2921 1.434 . S
C2923 C2924 1.369 . S
C2923 C2925 1.419 . S
C2923 H2927 0.930 . S
C2924 C2923 1.369 . S
C2924 C2933 1.429 . S
C2925 C2923 1.419 . S
C2925 C2926 1.363 . S
C2925 H2928 0.929 . S
C2926 C2925 1.363 . S
C2926 C2932 1.428 . S
H2927 C2923 0.930 . S
H2928 C2925 0.929 . S
S2929 N2930 1.613 . S
S2929 N2931 1.610 . S
N2930 S2929 1.613 . S
N2930 C2933 1.350 . S
N2931 S2929 1.610 . S
N2931 C2932 1.351 . S
C2932 C2926 1.428 . S
C2932 N2931 1.351 . S
C2932 C2933 1.434 . S
C2933 C2924 1.429 . S
C2933 N2930 1.350 . S
C2933 C2932 1.434 . S
C2934 C2935 1.369 1_545 S
C2934 C2936 1.419 1_545 S
C2934 H2938 0.930 . S
C2935 C2934 1.369 1_565 S
C2935 C2944 1.429 . S
C2936 C2934 1.419 1_565 S
C2936 C2937 1.363 . S
C2936 H2939 0.929 . S
C2937 C2936 1.363 . S
C2937 C2943 1.428 . S
H2938 C2934 0.930 . S
H2939 C2936 0.929 . S
S2940 N2941 1.613 . S
S2940 N2942 1.610 . S
N2941 S2940 1.613 . S
N2941 C2944 1.350 . S
N2942 S2940 1.610 . S
N2942 C2943 1.351 . S
C2943 C2937 1.428 . S
C2943 N2942 1.351 . S
C2943 C2944 1.434 . S
C2944 C2935 1.429 . S
C2944 N2941 1.350 . S
C2944 C2943 1.434 . S
C2945 C2946 1.369 . S
C2945 C2947 1.419 . S
C2945 H2949 0.930 . S
C2946 C2945 1.369 . S
C2946 C2955 1.429 1_565 S
C2947 C2945 1.419 . S
C2947 C2948 1.363 1_565 S
C2947 H2950 0.929 . S
C2948 C2947 1.363 1_545 S
C2948 C2954 1.428 . S
H2949 C2945 0.930 . S
H2950 C2947 0.929 . S
S2951 N2952 1.613 . S
S2951 N2953 1.610 . S
N2952 S2951 1.613 . S
N2952 C2955 1.350 1_556 S
N2953 S2951 1.610 . S
N2953 C2954 1.351 1_556 S
C2954 C2948 1.428 . S
C2954 N2953 1.351 1_554 S
C2954 C2955 1.434 . S
C2955 C2946 1.429 1_545 S
C2955 N2952 1.350 1_554 S
C2955 C2954 1.434 . S
C2956 C2957 1.369 . S
C2956 C2958 1.419 . S
C2956 H2960 0.930 . S
C2957 C2956 1.369 . S
C2957 C2966 1.429 . S
C2958 C2956 1.419 . S
C2958 C2959 1.363 . S
C2958 H2961 0.929 . S
C2959 C2958 1.363 . S
C2959 C2965 1.428 . S
H2960 C2956 0.930 . S
H2961 C2958 0.929 . S
S2962 N2963 1.613 . S
S2962 N2964 1.610 . S
N2963 S2962 1.613 . S
N2963 C2966 1.350 . S
N2964 S2962 1.610 . S
N2964 C2965 1.351 . S
C2965 C2959 1.428 . S
C2965 N2964 1.351 . S
C2965 C2966 1.434 . S
C2966 C2957 1.429 . S
C2966 N2963 1.350 . S
C2966 C2965 1.434 . S
C2967 C2968 1.369 . S
C2967 C2969 1.419 . S
C2967 H2971 0.930 . S
C2968 C2967 1.369 . S
C2968 C2977 1.429 . S
C2969 C2967 1.419 . S
C2969 C2970 1.363 . S
C2969 H2972 0.929 . S
C2970 C2969 1.363 . S
C2970 C2976 1.428 . S
H2971 C2967 0.930 . S
H2972 C2969 0.929 . S
S2973 N2974 1.613 . S
S2973 N2975 1.610 . S
N2974 S2973 1.613 . S
N2974 C2977 1.350 1_556 S
N2975 S2973 1.610 . S
N2975 C2976 1.351 1_556 S
C2976 C2970 1.428 . S
C2976 N2975 1.351 1_554 S
C2976 C2977 1.434 . S
C2977 C2968 1.429 . S
C2977 N2974 1.350 1_554 S
C2977 C2976 1.434 . S
C2978 C2979 1.369 . S
C2978 C2980 1.419 . S
C2978 H2982 0.930 . S
C2979 C2978 1.369 . S
C2979 C2988 1.429 . S
C2980 C2978 1.419 . S
C2980 C2981 1.363 . S
C2980 H2983 0.929 . S
C2981 C2980 1.363 . S
C2981 C2987 1.428 . S
H2982 C2978 0.930 . S
H2983 C2980 0.929 . S
S2984 N2985 1.613 . S
S2984 N2986 1.610 . S
N2985 S2984 1.613 . S
N2985 C2988 1.350 . S
N2986 S2984 1.610 . S
N2986 C2987 1.351 . S
C2987 C2981 1.428 . S
C2987 N2986 1.351 . S
C2987 C2988 1.434 . S
C2988 C2979 1.429 . S
C2988 N2985 1.350 . S
C2988 C2987 1.434 . S
C2989 C2990 1.369 . S
C2989 C2991 1.419 . S
C2989 H2993 0.930 . S
C2990 C2989 1.369 . S
C2990 C2999 1.429 . S
C2991 C2989 1.419 . S
C2991 C2992 1.363 . S
C2991 H2994 0.929 . S
C2992 C2991 1.363 . S
C2992 C2998 1.428 . S
H2993 C2989 0.930 . S
H2994 C2991 0.929 . S
S2995 N2996 1.613 . S
S2995 N2997 1.610 . S
N2996 S2995 1.613 . S
N2996 C2999 1.350 . S
N2997 S2995 1.610 . S
N2997 C2998 1.351 . S
C2998 C2992 1.428 . S
C2998 N2997 1.351 . S
C2998 C2999 1.434 . S
C2999 C2990 1.429 . S
C2999 N2996 1.350 . S
C2999 C2998 1.434 . S
C3000 C3001 1.369 . S
C3000 C3002 1.419 . S
C3000 H3004 0.930 . S
C3001 C3000 1.369 . S
C3001 C3010 1.429 . S
C3002 C3000 1.419 . S
C3002 C3003 1.363 . S
C3002 H3005 0.929 . S
C3003 C3002 1.363 . S
C3003 C3009 1.428 . S
H3004 C3000 0.930 . S
H3005 C3002 0.929 . S
S3006 N3007 1.613 . S
S3006 N3008 1.610 . S
N3007 S3006 1.613 . S
N3007 C3010 1.350 . S
N3008 S3006 1.610 . S
N3008 C3009 1.351 . S
C3009 C3003 1.428 . S
C3009 N3008 1.351 . S
C3009 C3010 1.434 . S
C3010 C3001 1.429 . S
C3010 N3007 1.350 . S
C3010 C3009 1.434 . S
C3011 C3012 1.369 . S
C3011 C3013 1.419 . S
C3011 H3015 0.930 . S
C3012 C3011 1.369 . S
C3012 C3021 1.429 . S
C3013 C3011 1.419 . S
C3013 C3014 1.363 . S
C3013 H3016 0.929 . S
C3014 C3013 1.363 . S
C3014 C3020 1.428 . S
H3015 C3011 0.930 . S
H3016 C3013 0.929 . S
S3017 N3018 1.613 . S
S3017 N3019 1.610 . S
N3018 S3017 1.613 . S
N3018 C3021 1.350 . S
N3019 S3017 1.610 . S
N3019 C3020 1.351 . S
C3020 C3014 1.428 . S
C3020 N3019 1.351 . S
C3020 C3021 1.434 . S
C3021 C3012 1.429 . S
C3021 N3018 1.350 . S
C3021 C3020 1.434 . S
C3022 C3023 1.369 . S
C3022 C3024 1.419 . S
C3022 H3026 0.930 . S
C3023 C3022 1.369 . S
C3023 C3032 1.429 . S
C3024 C3022 1.419 . S
C3024 C3025 1.363 . S
C3024 H3027 0.929 . S
C3025 C3024 1.363 . S
C3025 C3031 1.428 . S
H3026 C3022 0.930 . S
H3027 C3024 0.929 . S
S3028 N3029 1.613 1_655 S
S3028 N3030 1.610 1_655 S
N3029 S3028 1.613 1_455 S
N3029 C3032 1.350 . S
N3030 S3028 1.610 1_455 S
N3030 C3031 1.351 . S
C3031 C3025 1.428 . S
C3031 N3030 1.351 . S
C3031 C3032 1.434 . S
C3032 C3023 1.429 . S
C3032 N3029 1.350 . S
C3032 C3031 1.434 . S
C3033 C3034 1.369 . S
C3033 C3035 1.419 . S
C3033 H3037 0.930 . S
C3034 C3033 1.369 . S
C3034 C3043 1.429 . S
C3035 C3033 1.419 . S
C3035 C3036 1.363 . S
C3035 H3038 0.929 . S
C3036 C3035 1.363 . S
C3036 C3042 1.428 . S
H3037 C3033 0.930 . S
H3038 C3035 0.929 . S
S3039 N3040 1.613 . S
S3039 N3041 1.610 . S
N3040 S3039 1.613 . S
N3040 C3043 1.350 . S
N3041 S3039 1.610 . S
N3041 C3042 1.351 . S
C3042 C3036 1.428 . S
C3042 N3041 1.351 . S
C3042 C3043 1.434 . S
C3043 C3034 1.429 . S
C3043 N3040 1.350 . S
C3043 C3042 1.434 . S
C3044 C3045 1.369 . S
C3044 C3046 1.419 . S
C3044 H3048 0.930 . S
C3045 C3044 1.369 . S
C3045 C3054 1.429 . S
C3046 C3044 1.419 . S
C3046 C3047 1.363 . S
C3046 H3049 0.929 . S
C3047 C3046 1.363 . S
C3047 C3053 1.428 . S
H3048 C3044 0.930 . S
H3049 C3046 0.929 . S
S3050 N3051 1.613 . S
S3050 N3052 1.610 . S
N3051 S3050 1.613 . S
N3051 C3054 1.350 . S
N3052 S3050 1.610 . S
N3052 C3053 1.351 . S
C3053 C3047 1.428 . S
C3053 N3052 1.351 . S
C3053 C3054 1.434 . S
C3054 C3045 1.429 . S
C3054 N3051 1.350 . S
C3054 C3053 1.434 . S
C3055 C3056 1.369 . S
C3055 C3057 1.419 . S
C3055 H3059 0.930 . S
C3056 C3055 1.369 . S
C3056 C3065 1.429 . S
C3057 C3055 1.419 . S
C3057 C3058 1.363 . S
C3057 H3060 0.929 . S
C3058 C3057 1.363 . S
C3058 C3064 1.428 . S
H3059 C3055 0.930 . S
H3060 C3057 0.929 . S
S3061 N3062 1.613 . S
S3061 N3063 1.610 . S
N3062 S3061 1.613 . S
N3062 C3065 1.350 . S
N3063 S3061 1.610 . S
N3063 C3064 1.351 . S
C3064 C3058 1.428 . S
C3064 N3063 1.351 . S
C3064 C3065 1.434 . S
C3065 C3056 1.429 . S
C3065 N3062 1.350 . S
C3065 C3064 1.434 . S
C3066 C3067 1.369 . S
C3066 C3068 1.419 . S
C3066 H3070 0.930 . S
C3067 C3066 1.369 . S
C3067 C3076 1.429 . S
C3068 C3066 1.419 . S
C3068 C3069 1.363 . S
C3068 H3071 0.929 . S
C3069 C3068 1.363 . S
C3069 C3075 1.428 . S
H3070 C3066 0.930 . S
H3071 C3068 0.929 . S
S3072 N3073 1.613 . S
S3072 N3074 1.610 . S
N3073 S3072 1.613 . S
N3073 C3076 1.350 . S
N3074 S3072 1.610 . S
N3074 C3075 1.351 . S
C3075 C3069 1.428 . S
C3075 N3074 1.351 . S
C3075 C3076 1.434 . S
C3076 C3067 1.429 . S
C3076 N3073 1.350 . S
C3076 C3075 1.434 . S
C3077 C3078 1.369 . S
C3077 C3079 1.419 . S
C3077 H3081 0.930 . S
C3078 C3077 1.369 . S
C3078 C3087 1.429 . S
C3079 C3077 1.419 . S
C3079 C3080 1.363 . S
C3079 H3082 0.929 . S
C3080 C3079 1.363 . S
C3080 C3086 1.428 . S
H3081 C3077 0.930 . S
H3082 C3079 0.929 . S
S3083 N3084 1.613 . S
S3083 N3085 1.610 . S
N3084 S3083 1.613 . S
N3084 C3087 1.350 . S
N3085 S3083 1.610 . S
N3085 C3086 1.351 . S
C3086 C3080 1.428 . S
C3086 N3085 1.351 . S
C3086 C3087 1.434 . S
C3087 C3078 1.429 . S
C3087 N3084 1.350 . S
C3087 C3086 1.434 . S
C3088 C3089 1.369 . S
C3088 C3090 1.419 . S
C3088 H3092 0.930 . S
C3089 C3088 1.369 . S
C3089 C3098 1.429 . S
C3090 C3088 1.419 . S
C3090 C3091 1.363 . S
C3090 H3093 0.929 . S
C3091 C3090 1.363 . S
C3091 C3097 1.428 . S
H3092 C3088 0.930 . S
H3093 C3090 0.929 . S
S3094 N3095 1.613 . S
S3094 N3096 1.610 . S
N3095 S3094 1.613 . S
N3095 C3098 1.350 . S
N3096 S3094 1.610 . S
N3096 C3097 1.351 . S
C3097 C3091 1.428 . S
C3097 N3096 1.351 . S
C3097 C3098 1.434 . S
C3098 C3089 1.429 . S
C3098 N3095 1.350 . S
C3098 C3097 1.434 . S
C3099 C3100 1.369 . S
C3099 C3101 1.419 . S
C3099 H3103 0.930 . S
C3100 C3099 1.369 . S
C3100 C3109 1.429 . S
C3101 C3099 1.419 . S
C3101 C3102 1.363 . S
C3101 H3104 0.929 . S
C3102 C3101 1.363 . S
C3102 C3108 1.428 . S
H3103 C3099 0.930 . S
H3104 C3101 0.929 . S
S3105 N3106 1.613 . S
S3105 N3107 1.610 . S
N3106 S3105 1.613 . S
N3106 C3109 1.350 . S
N3107 S3105 1.610 . S
N3107 C3108 1.351 . S
C3108 C3102 1.428 . S
C3108 N3107 1.351 . S
C3108 C3109 1.434 . S
C3109 C3100 1.429 . S
C3109 N3106 1.350 . S
C3109 C3108 1.434 . S
C3110 C3111 1.369 . S
C3110 C3112 1.419 . S
C3110 H3114 0.930 . S
C3111 C3110 1.369 . S
C3111 C3120 1.429 . S
C3112 C3110 1.419 . S
C3112 C3113 1.363 . S
C3112 H3115 0.929 1_655 S
C3113 C3112 1.363 . S
C3113 C3119 1.428 . S
H3114 C3110 0.930 . S
H3115 C3112 0.929 1_455 S
S3116 N3117 1.613 . S
S3116 N3118 1.610 . S
N3117 S3116 1.613 . S
N3117 C3120 1.350 . S
N3118 S3116 1.610 . S
N3118 C3119 1.351 . S
C3119 C3113 1.428 . S
C3119 N3118 1.351 . S
C3119 C3120 1.434 . S
C3120 C3111 1.429 . S
C3120 N3117 1.350 . S
C3120 C3119 1.434 . S
C3121 C3122 1.369 . S
C3121 C3123 1.419 . S
C3121 H3125 0.930 . S
C3122 C3121 1.369 . S
C3122 C3131 1.429 . S
C3123 C3121 1.419 . S
C3123 C3124 1.363 . S
C3123 H3126 0.929 . S
C3124 C3123 1.363 . S
C3124 C3130 1.428 . S
H3125 C3121 0.930 . S
H3126 C3123 0.929 . S
S3127 N3128 1.613 . S
S3127 N3129 1.610 . S
N3128 S3127 1.613 . S
N3128 C3131 1.350 . S
N3129 S3127 1.610 . S
N3129 C3130 1.351 . S
C3130 C3124 1.428 . S
C3130 N3129 1.351 . S
C3130 C3131 1.434 . S
C3131 C3122 1.429 . S
C3131 N3128 1.350 . S
C3131 C3130 1.434 . S
C3132 C3133 1.369 . S
C3132 C3134 1.419 . S
C3132 H3136 0.930 . S
C3133 C3132 1.369 . S
C3133 C3142 1.429 . S
C3134 C3132 1.419 . S
C3134 C3135 1.363 . S
C3134 H3137 0.929 . S
C3135 C3134 1.363 . S
C3135 C3141 1.428 . S
H3136 C3132 0.930 . S
H3137 C3134 0.929 . S
S3138 N3139 1.613 . S
S3138 N3140 1.610 . S
N3139 S3138 1.613 . S
N3139 C3142 1.350 . S
N3140 S3138 1.610 . S
N3140 C3141 1.351 . S
C3141 C3135 1.428 . S
C3141 N3140 1.351 . S
C3141 C3142 1.434 . S
C3142 C3133 1.429 . S
C3142 N3139 1.350 . S
C3142 C3141 1.434 . S
C3143 C3144 1.369 . S
C3143 C3145 1.419 . S
C3143 H3147 0.930 . S
C3144 C3143 1.369 . S
C3144 C3153 1.429 . S
C3145 C3143 1.419 . S
C3145 C3146 1.363 . S
C3145 H3148 0.929 . S
C3146 C3145 1.363 . S
C3146 C3152 1.428 . S
H3147 C3143 0.930 . S
H3148 C3145 0.929 . S
S3149 N3150 1.613 . S
S3149 N3151 1.610 . S
N3150 S3149 1.613 . S
N3150 C3153 1.350 . S
N3151 S3149 1.610 . S
N3151 C3152 1.351 . S
C3152 C3146 1.428 . S
C3152 N3151 1.351 . S
C3152 C3153 1.434 . S
C3153 C3144 1.429 . S
C3153 N3150 1.350 . S
C3153 C3152 1.434 . S
C3154 C3155 1.369 . S
C3154 C3156 1.419 . S
C3154 H3158 0.930 . S
C3155 C3154 1.369 . S
C3155 C3164 1.429 . S
C3156 C3154 1.419 . S
C3156 C3157 1.363 . S
C3156 H3159 0.929 . S
C3157 C3156 1.363 . S
C3157 C3163 1.428 . S
H3158 C3154 0.930 . S
H3159 C3156 0.929 . S
S3160 N3161 1.613 . S
S3160 N3162 1.610 . S
N3161 S3160 1.613 . S
N3161 C3164 1.350 . S
N3162 S3160 1.610 . S
N3162 C3163 1.351 . S
C3163 C3157 1.428 . S
C3163 N3162 1.351 . S
C3163 C3164 1.434 . S
C3164 C3155 1.429 . S
C3164 N3161 1.350 . S
C3164 C3163 1.434 . S
C3165 C3166 1.369 . S
C3165 C3167 1.419 . S
C3165 H3169 0.930 . S
C3166 C3165 1.369 . S
C3166 C3175 1.429 . S
C3167 C3165 1.419 . S
C3167 C3168 1.363 . S
C3167 H3170 0.929 . S
C3168 C3167 1.363 . S
C3168 C3174 1.428 . S
H3169 C3165 0.930 . S
H3170 C3167 0.929 . S
S3171 N3172 1.613 . S
S3171 N3173 1.610 . S
N3172 S3171 1.613 . S
N3172 C3175 1.350 . S
N3173 S3171 1.610 . S
N3173 C3174 1.351 . S
C3174 C3168 1.428 . S
C3174 N3173 1.351 . S
C3174 C3175 1.434 . S
C3175 C3166 1.429 . S
C3175 N3172 1.350 . S
C3175 C3174 1.434 . S
C3176 C3177 1.369 . S
C3176 C3178 1.419 . S
C3176 H3180 0.930 . S
C3177 C3176 1.369 . S
C3177 C3186 1.429 . S
C3178 C3176 1.419 . S
C3178 C3179 1.363 . S
C3178 H3181 0.929 . S
C3179 C3178 1.363 . S
C3179 C3185 1.428 . S
H3180 C3176 0.930 . S
H3181 C3178 0.929 . S
S3182 N3183 1.613 . S
S3182 N3184 1.610 . S
N3183 S3182 1.613 . S
N3183 C3186 1.350 . S
N3184 S3182 1.610 . S
N3184 C3185 1.351 . S
C3185 C3179 1.428 . S
C3185 N3184 1.351 . S
C3185 C3186 1.434 . S
C3186 C3177 1.429 . S
C3186 N3183 1.350 . S
C3186 C3185 1.434 . S
C3187 C3188 1.369 . S
C3187 C3189 1.419 . S
C3187 H3191 0.930 . S
C3188 C3187 1.369 . S
C3188 C3197 1.429 . S
C3189 C3187 1.419 . S
C3189 C3190 1.363 . S
C3189 H3192 0.929 . S
C3190 C3189 1.363 . S
C3190 C3196 1.428 . S
H3191 C3187 0.930 . S
H3192 C3189 0.929 . S
S3193 N3194 1.613 1_545 S
S3193 N3195 1.610 . S
N3194 S3193 1.613 1_565 S
N3194 C3197 1.350 . S
N3195 S3193 1.610 . S
N3195 C3196 1.351 1_545 S
C3196 C3190 1.428 . S
C3196 N3195 1.351 1_565 S
C3196 C3197 1.434 . S
C3197 C3188 1.429 . S
C3197 N3194 1.350 . S
C3197 C3196 1.434 . S
C3198 C3199 1.369 . S
C3198 C3200 1.419 . S
C3198 H3202 0.930 . S
C3199 C3198 1.369 . S
C3199 C3208 1.429 . S
C3200 C3198 1.419 . S
C3200 C3201 1.363 . S
C3200 H3203 0.929 . S
C3201 C3200 1.363 . S
C3201 C3207 1.428 . S
H3202 C3198 0.930 . S
H3203 C3200 0.929 . S
S3204 N3205 1.613 . S
S3204 N3206 1.610 . S
N3205 S3204 1.613 . S
N3205 C3208 1.350 . S
N3206 S3204 1.610 . S
N3206 C3207 1.351 . S
C3207 C3201 1.428 . S
C3207 N3206 1.351 . S
C3207 C3208 1.434 . S
C3208 C3199 1.429 . S
C3208 N3205 1.350 . S
C3208 C3207 1.434 . S
C3209 C3210 1.369 . S
C3209 C3211 1.419 . S
C3209 H3213 0.930 . S
C3210 C3209 1.369 . S
C3210 C3219 1.429 . S
C3211 C3209 1.419 . S
C3211 C3212 1.363 . S
C3211 H3214 0.929 . S
C3212 C3211 1.363 . S
C3212 C3218 1.428 . S
H3213 C3209 0.930 . S
H3214 C3211 0.929 . S
S3215 N3216 1.613 . S
S3215 N3217 1.610 . S
N3216 S3215 1.613 . S
N3216 C3219 1.350 . S
N3217 S3215 1.610 . S
N3217 C3218 1.351 . S
C3218 C3212 1.428 . S
C3218 N3217 1.351 . S
C3218 C3219 1.434 . S
C3219 C3210 1.429 . S
C3219 N3216 1.350 . S
C3219 C3218 1.434 . S
C3220 C3221 1.369 . S
C3220 C3222 1.419 . S
C3220 H3224 0.930 . S
C3221 C3220 1.369 . S
C3221 C3230 1.429 . S
C3222 C3220 1.419 . S
C3222 C3223 1.363 . S
C3222 H3225 0.929 . S
C3223 C3222 1.363 . S
C3223 C3229 1.428 . S
H3224 C3220 0.930 . S
H3225 C3222 0.929 . S
S3226 N3227 1.613 . S
S3226 N3228 1.610 . S
N3227 S3226 1.613 . S
N3227 C3230 1.350 . S
N3228 S3226 1.610 . S
N3228 C3229 1.351 . S
C3229 C3223 1.428 . S
C3229 N3228 1.351 . S
C3229 C3230 1.434 . S
C3230 C3221 1.429 . S
C3230 N3227 1.350 . S
C3230 C3229 1.434 . S
C3231 C3232 1.369 . S
C3231 C3233 1.419 . S
C3231 H3235 0.930 . S
C3232 C3231 1.369 . S
C3232 C3241 1.429 . S
C3233 C3231 1.419 . S
C3233 C3234 1.363 . S
C3233 H3236 0.929 . S
C3234 C3233 1.363 . S
C3234 C3240 1.428 . S
H3235 C3231 0.930 . S
H3236 C3233 0.929 . S
S3237 N3238 1.613 . S
S3237 N3239 1.610 . S
N3238 S3237 1.613 . S
N3238 C3241 1.350 . S
N3239 S3237 1.610 . S
N3239 C3240 1.351 . S
C3240 C3234 1.428 . S
C3240 N3239 1.351 . S
C3240 C3241 1.434 . S
C3241 C3232 1.429 . S
C3241 N3238 1.350 . S
C3241 C3240 1.434 . S
C3242 C3243 1.369 . S
C3242 C3244 1.419 . S
C3242 H3246 0.930 . S
C3243 C3242 1.369 . S
C3243 C3252 1.429 . S
C3244 C3242 1.419 . S
C3244 C3245 1.363 . S
C3244 H3247 0.929 . S
C3245 C3244 1.363 . S
C3245 C3251 1.428 . S
H3246 C3242 0.930 . S
H3247 C3244 0.929 . S
S3248 N3249 1.613 . S
S3248 N3250 1.610 . S
N3249 S3248 1.613 . S
N3249 C3252 1.350 . S
N3250 S3248 1.610 . S
N3250 C3251 1.351 . S
C3251 C3245 1.428 . S
C3251 N3250 1.351 . S
C3251 C3252 1.434 . S
C3252 C3243 1.429 . S
C3252 N3249 1.350 . S
C3252 C3251 1.434 . S
C3253 C3254 1.369 . S
C3253 C3255 1.419 . S
C3253 H3257 0.930 . S
C3254 C3253 1.369 . S
C3254 C3263 1.429 . S
C3255 C3253 1.419 . S
C3255 C3256 1.363 . S
C3255 H3258 0.929 . S
C3256 C3255 1.363 . S
C3256 C3262 1.428 . S
H3257 C3253 0.930 . S
H3258 C3255 0.929 . S
S3259 N3260 1.613 . S
S3259 N3261 1.610 . S
N3260 S3259 1.613 . S
N3260 C3263 1.350 . S
N3261 S3259 1.610 . S
N3261 C3262 1.351 . S
C3262 C3256 1.428 . S
C3262 N3261 1.351 . S
C3262 C3263 1.434 . S
C3263 C3254 1.429 . S
C3263 N3260 1.350 . S
C3263 C3262 1.434 . S
C2209 C255 2.204 1_454 S
C2211 C931 2.239 . S
C2220 C147 1.921 . S
C2222 C1004 1.961 . S
C2231 C184 1.840 . S
C2233 C1099 1.886 . S
C2244 C1174 1.332 . S
C2242 C220 1.427 . S
C2253 C40 1.411 . S
C2255 C1258 1.323 . S
C2266 C1351 1.992 . S
C2264 C74 1.920 . S
C2277 C1424 1.981 . S
C2275 C110 1.971 . S
C2286 C14 2.244 . S
C2288 C1519 2.228 . S
C2299 C920 1.862 . S
C2297 C579 1.901 . S
C2308 C616 0.996 . S
C2310 C1006 0.936 . S
C2321 C1088 1.298 . S
C2319 C687 1.273 . S
C2332 C1183 1.690 . S
C2330 C436 1.676 . S
C2341 C580 1.648 . S
C2343 C1267 1.668 . S
C2354 C1340 1.269 . S
C2352 C615 1.252 . S
C2365 C1426 0.955 . S
C2363 C688 1.004 . S
C2376 C1508 1.848 . S
C2374 C435 1.887 . S
C2387 C922 1.170 . S
C2385 C410 1.186 1_554 S
C2396 C722 1.743 . S
C2398 C1592 1.741 . S
C2409 C1678 1.409 . S
C2407 C842 1.442 . S
C2420 C1771 0.890 . S
C2418 C794 0.883 . S
C2429 C302 1.231 . S
C2431 C1510 1.221 . S
C2440 C338 1.408 . S
C2442 C1090 1.384 . S
C2451 C830 1.761 . S
C2453 C1844 1.756 . S
C2464 C1939 0.955 . S
C2462 C758 0.943 . S
C2475 C919 2.241 . S
C2473 C158 2.095 . S
C2486 C1940 1.944 . S
C2484 C254 1.927 . S
C2495 C218 1.868 . S
C2497 C1087 1.925 . S
C2506 C194 1.339 . S
C2508 C1858 1.330 . S
C2519 C1270 1.320 . S
C2517 C3 1.387 . S
C2528 C111 1.816 . S
C2530 C1675 1.823 . S
C2541 C1436 1.952 1_556 S
C2539 C76 1.921 . S
C2552 C2011 2.293 . S
C2550 C50 2.149 . S
C2563 C932 1.824 . S
C2561 C364 1.883 . S
C2574 C1942 0.951 . S
C2572 C795 0.974 . S
C2583 C292 1.272 . S
C2585 C1100 1.261 . S
C2594 C723 1.637 . S
C2596 C1843 1.632 . S
C2605 C363 1.650 . S
C2607 C1255 1.644 . S
C2618 C1688 1.272 . S
C2616 C796 1.282 . S
C2627 C291 0.979 . S
C2629 C1438 0.932 . S
C2638 C724 1.901 . S
C2640 C2024 1.839 . S
C2649 C482 1.075 . S
C2651 C934 1.208 . S
C2660 C434 1.708 . S
C2662 C1604 1.713 . S
C2671 C662 1.335 . S
C2673 C1354 1.397 . S
C2682 C614 0.875 . S
C2684 C1759 0.882 . S
C2695 C2026 1.204 . S
C2693 C698 1.091 . S
C2704 C554 1.344 . S
C2706 C1102 1.402 . S
C2717 C1184 1.724 . S
C2715 C650 1.721 . S
C2728 C1003 0.888 . S
C2726 C506 0.884 . S
C2737 C183 2.207 . S
C2739 C2107 2.241 . S
C2750 C1928 1.959 . S
C2748 C219 1.919 . S
C2759 C256 1.833 1_554 S
C2761 C2191 1.883 . S
C2770 C148 1.427 1_655 S
C2772 C1846 1.332 . S
C2781 C122 1.383 . S
C2783 C1594 1.358 . S
C2794 C1687 1.931 . S
C2792 C2 1.863 . S
C2805 C1760 1.915 . S
C2803 C39 1.862 . S
C2816 C2023 2.288 . S
C2814 C86 2.301 . S
C2827 C2096 1.866 . S
C2825 C651 1.911 . S
C2836 C472 0.995 . S
C2838 C1930 0.938 . S
C2849 C2180 1.281 . S
C2847 C507 1.258 . S
C2860 C1855 1.696 . S
C2858 C544 1.681 . S
C2871 C1603 1.663 . S
C2869 C652 1.645 . S
C2880 C471 1.253 . S
C2882 C1676 1.262 . S
C2893 C1762 0.944 . S
C2891 C508 0.994 . S
C2902 C543 1.899 . S
C2904 C2012 1.860 . S
C2915 C2098 1.183 . S
C2913 C806 1.202 . S
C2924 C326 1.720 . S
C2926 C1256 1.719 . S
C2937 C1342 1.391 . S
C2935 C374 1.420 1_565 S
C2948 C1435 0.899 . S
C2946 C398 0.895 . S
C2959 C2014 1.195 . S
C2957 C770 1.214 . S
C2968 C734 1.398 . S
C2970 C2182 1.375 . S
C2981 C1172 1.740 . S
C2979 C362 1.743 . S
C2992 C1015 0.973 . S
C2990 C290 0.954 . S
C3001 C230 2.088 . S
C3003 C2095 2.241 . S
C3014 C1016 1.947 . S
C3012 C182 1.930 . S
C3023 C146 1.863 . S
C3025 C2179 1.925 . S
C3034 C266 1.344 . S
C3036 C1186 1.335 . S
C3045 C75 1.413 . S
C3047 C1606 1.337 . S
C3058 C1339 1.984 . S
C3056 C38 1.917 . S
C3067 C4 1.869 . S
C3069 C1772 1.904 . S
C3078 C112 2.171 . S
C3080 C1507 2.192 . S
C3091 C2108 1.819 . S
C3089 C832 1.885 . S
C3100 C399 0.983 . S
C3102 C1018 0.958 . S
C3113 C2192 1.258 1_655 S
C3111 C760 1.276 . S
C3122 C327 1.634 . S
C3124 C1171 1.629 . S
C3133 C831 1.673 . S
C3135 C1591 1.668 . S
C3146 C1352 1.277 . S
C3144 C400 1.292 . S
C3155 C759 0.987 . S
C3157 C1774 0.959 . S
C3168 C1520 1.836 . S
C3166 C328 1.898 . S
C3179 C2110 1.219 . S
C3177 C626 1.093 . S
C3190 C1268 1.722 1_565 S
C3188 C542 1.720 . S
C3199 C590 1.321 . S
C3201 C1690 1.382 . S
C3212 C1423 0.900 . S
C3210 C470 0.881 . S
C3221 C518 1.059 . S
C3223 C1522 1.173 . S
C3232 C446 1.344 . S
C3234 C2194 1.397 . S
C3245 C1856 1.737 . S
C3243 C578 1.736 . S
C3256 C1927 0.869 . S
C3254 C686 0.859 . S
