# Generated by pormake.
# Topology pts, (4,4)-cn, num edge types: 1
# Building blocks:
#     Node 0, Type 0, BuildingBlock: ESEHIV_clean_sbu_0, # of connection points: 4
#     Node 1, Type 0, BuildingBlock: ESEHIV_clean_sbu_0, # of connection points: 4
#     Node 2, Type 1, BuildingBlock: UXUYUI_clean_sbu_0, # of connection points: 4
#     Node 3, Type 1, BuildingBlock: UXUYUI_clean_sbu_0, # of connection points: 4
#     Edge 4, Type (0, 1), BuildingBlock: ZUJKAS_clean_linker_0, # of connection points: 2
#     Edge 5, Type (0, 1), BuildingBlock: ZUJKAS_clean_linker_0, # of connection points: 2
#     Edge 6, Type (0, 1), BuildingBlock: ZUJKAS_clean_linker_0, # of connection points: 2
#     Edge 7, Type (0, 1), BuildingBlock: ZUJKAS_clean_linker_0, # of connection points: 2
#     Edge 8, Type (0, 1), BuildingBlock: ZUJKAS_clean_linker_0, # of connection points: 2
#     Edge 9, Type (0, 1), BuildingBlock: ZUJKAS_clean_linker_0, # of connection points: 2
#     Edge 10, Type (0, 1), BuildingBlock: ZUJKAS_clean_linker_0, # of connection points: 2
#     Edge 11, Type (0, 1), BuildingBlock: ZUJKAS_clean_linker_0, # of connection points: 2
# Relax obj value: 0.002
# Max RMSD: 0.096
# Mean RMSD: 0.062
data_MOF--net-pts--node1-ESEHIV_clean_sbu_0--node2-UXUYUI_clean_sbu_0--edge1-ZUJKAS_clean_linker_0
_symmetry_space_group_name_H-M    P1
_symmetry_Int_Tables_number       1
_symmetry_cell_setting            triclinic
loop_
_symmetry_equiv_pos_as_xyz
'x, y, z'
_cell_length_a     37.864372
_cell_length_b     37.821324
_cell_length_c     56.423006
_cell_angle_alpha  92.359433
_cell_angle_beta   92.353051
_cell_angle_gamma 90.009814
loop_
_atom_site_label
_atom_site_type_symbol
_atom_site_fract_x
_atom_site_fract_y
_atom_site_fract_z
_atom_type_partial_charge
Cu0 Cu 0.54199 0.02548 0.01959 0.0
N1 N 0.5701 0.99837 0.99929 0.0
N2 N 0.6141 0.98666 0.97478 0.0
C3 C 0.599 0.01101 0.98935 0.0
C4 C 0.59364 0.95747 0.97564 0.0
C5 C 0.56652 0.96479 0.99073 0.0
O6 O 0.57499 0.05285 0.0406 0.0
C7 C 0.48542 0.03193 0.98908 0.0
O8 O 0.4878 0.99759 0.99145 0.0
H9 H 0.60811 0.03798 0.99239 0.0
H10 H 0.54546 0.94704 0.99484 0.0
N11 N 0.51401 0.99856 0.03886 0.0
N12 N 0.47062 0.98725 0.06329 0.0
C13 C 0.48679 0.01197 0.05092 0.0
C14 C 0.51529 0.96404 0.04373 0.0
C15 C 0.4886 0.957 0.05884 0.0
C16 C 0.59284 0.03344 0.05465 0.0
O17 O 0.58685 0.99919 0.05354 0.0
H18 H 0.47933 0.03958 0.05074 0.0
H19 H 0.53433 0.94533 0.03693 0.0
O20 O 0.50859 0.05192 0.99985 0.0
H21 H 0.59785 0.93253 0.96611 0.0
H22 H 0.48271 0.93149 0.06575 0.0
Cu23 Cu 0.06645 0.554 0.51935 0.0
N24 N 0.09366 0.52917 0.54158 0.0
N25 N 0.10608 0.48817 0.56823 0.0
C26 C 0.08153 0.50129 0.55292 0.0
C27 C 0.13489 0.50887 0.56639 0.0
C28 C 0.12712 0.53417 0.54996 0.0
O29 O 0.03886 0.51866 0.50036 0.0
C30 C 0.05991 0.61456 0.54644 0.0
O31 O 0.09406 0.61295 0.54327 0.0
H32 H 0.05523 0.49061 0.54958 0.0
H33 H 0.14454 0.55479 0.54463 0.0
N34 N 0.0932 0.57848 0.49815 0.0
N35 N 0.1052 0.61943 0.47203 0.0
C36 C 0.08092 0.60634 0.48623 0.0
C37 C 0.12649 0.57348 0.4913 0.0
C38 C 0.13401 0.59877 0.47521 0.0
C39 C 0.05763 0.4933 0.49219 0.0
O40 O 0.09191 0.49398 0.49683 0.0
H41 H 0.05473 0.6171 0.48838 0.0
H42 H 0.14398 0.5529 0.49748 0.0
O43 O 0.0402 0.58978 0.53732 0.0
H44 H 0.1597 0.50635 0.57638 0.0
H45 H 0.15865 0.60138 0.46637 0.0
Li46 Li 0.03781 0.0895 0.28505 0.0
Li47 Li 0.03934 0.02392 0.28337 0.0
Li48 Li 0.07084 0.05764 0.25475 0.0
Li49 Li 1.00766 0.05679 0.2532 0.0
C50 C 0.09109 0.05644 0.31285 0.0
N51 N 0.11418 0.05342 0.35981 0.0
C52 C 0.06681 0.05847 0.33087 0.0
C53 C 0.12708 0.05282 0.3187 0.0
C54 C 0.07902 0.05691 0.3545 0.0
C55 C 0.13824 0.05137 0.34255 0.0
C56 C 0.96418 0.04306 0.28657 0.0
C57 C 0.92263 0.99531 0.27837 0.0
N58 N 0.89551 0.01808 0.28233 0.0
C59 C 0.93589 0.06598 0.29058 0.0
C60 C 0.95751 1.00744 0.2804 0.0
C61 C 0.90137 0.05284 0.28834 0.0
C62 C 1.00395 0.14877 0.30537 0.0
N63 N 0.03552 0.13172 0.30506 0.0
C64 C 0.06129 0.17532 0.33249 0.0
C65 C 0.06415 0.14463 0.31799 0.0
C66 C 0.02869 0.19308 0.33365 0.0
C67 C 0.99985 0.17944 0.31967 0.0
H68 H 0.98191 0.13854 0.29442 0.0
H69 H 0.0893 0.13125 0.317 0.0
C70 C 0.06769 0.95809 0.2952 0.0
N71 N 0.04318 0.98249 0.30166 0.0
C72 C 0.0733 0.92802 0.30844 0.0
C73 C 0.02813 0.94859 0.3347 0.0
C74 C 0.02348 0.97836 0.32098 0.0
C75 C 0.05348 0.92297 0.32858 0.0
H76 H 0.08313 0.9622 0.27983 0.0
H77 H 1.00448 0.99842 0.32592 0.0
C78 C 0.05762 0.12864 0.24773 0.0
N79 N 0.09621 0.18942 0.24175 0.0
C80 C 0.04452 0.15442 0.23268 0.0
C81 C 0.09038 0.13376 0.25974 0.0
C82 C 0.06443 0.18497 0.22988 0.0
C83 C 0.10947 0.16467 0.25649 0.0
C84 C 0.04091 1.00459 0.2252 0.0
C85 C 0.03679 0.02889 0.20728 0.0
C86 C 0.04674 0.96893 0.21919 0.0
C87 C 0.03855 0.01704 0.18359 0.0
C88 C 0.04831 0.95812 0.19527 0.0
N89 N 0.04423 0.9822 0.17812 0.0
C90 C 0.13924 0.03473 0.24442 0.0
C91 C 0.11426 0.07261 0.21583 0.0
C92 C 0.16942 0.02996 0.2312 0.0
N93 N 0.11242 0.05564 0.23654 0.0
C94 C 0.14391 0.06849 0.202 0.0
C95 C 0.17195 0.0467 0.20953 0.0
H96 H 0.13684 0.02118 0.2608 0.0
H97 H 0.09247 0.08888 0.20983 0.0
C98 C 0.95145 0.09069 0.22934 0.0
N99 N 0.96591 0.05834 0.23286 0.0
C100 C 0.92099 0.09398 0.21475 0.0
C101 C 0.92072 0.03052 0.20777 0.0
C102 C 0.95118 0.02846 0.22251 0.0
C103 C 0.90518 0.06364 0.20367 0.0
H104 H 0.96356 0.11398 0.23799 0.0
H105 H 0.9631 1.00302 0.22567 0.0
O106 O 0.07985 0.05751 0.28954 0.0
O107 O 0.99818 0.05553 0.28792 0.0
O108 O 0.03821 0.0987 0.25058 0.0
O109 O 0.03958 0.01547 0.24857 0.0
H110 H 0.03886 0.06128 0.32671 0.0
H111 H 0.14618 0.05114 0.30494 0.0
H112 H 0.06054 0.05847 0.36862 0.0
H113 H 0.16603 0.04859 0.34734 0.0
H114 H 0.91711 0.96785 0.27348 0.0
H115 H 0.94043 0.09362 0.2953 0.0
H116 H 0.97901 0.98944 0.27676 0.0
H117 H 0.87924 0.07031 0.29135 0.0
H118 H 0.08451 0.18521 0.34247 0.0
H119 H 0.97416 0.19197 0.32 0.0
H120 H 0.09283 0.90882 0.30289 0.0
H121 H 0.01259 0.94607 0.35023 0.0
H122 H 0.01922 0.15083 0.22324 0.0
H123 H 0.1011 0.11416 0.27141 0.0
H124 H 0.0546 0.20514 0.21828 0.0
H125 H 0.13485 0.16897 0.26567 0.0
H126 H 0.03231 0.0566 0.21158 0.0
H127 H 0.05004 0.94982 0.23287 0.0
H128 H 0.03543 0.03556 0.16955 0.0
H129 H 0.05281 0.93059 0.19035 0.0
H130 H 0.1901 0.01254 0.23756 0.0
H131 H 0.14484 0.08221 0.18556 0.0
H132 H 0.90972 0.11998 0.21243 0.0
H133 H 0.90975 1.00643 0.19942 0.0
Li134 Li 0.01421 0.05203 0.78539 0.0
Li135 Li 0.07925 0.05042 0.78564 0.0
Li136 Li 0.04513 0.08345 0.75415 0.0
Li137 Li 0.04659 0.01799 0.7535 0.0
C138 C 0.03508 0.12031 0.80244 0.0
N139 N 1.00935 0.17698 0.82896 0.0
C140 C 0.04583 0.12557 0.82632 0.0
C141 C 0.01177 0.14427 0.79194 0.0
C142 C 0.03236 0.15425 0.83947 0.0
C143 C 0.99892 0.17265 0.80567 0.0
C144 C 0.06179 0.99016 0.80512 0.0
C145 C 0.10792 0.95015 0.81749 0.0
N146 N 0.09513 0.95095 0.83969 0.0
C147 C 0.04891 0.99035 0.82798 0.0
C148 C 0.09134 0.96967 0.79975 0.0
C149 C 0.0662 0.97043 0.84523 0.0
C150 C 0.9433 0.03599 0.79451 0.0
N151 N 0.97345 0.05057 0.80455 0.0
C152 C 0.94623 0.05779 0.84201 0.0
C153 C 0.97541 0.06137 0.82786 0.0
C154 C 0.91466 0.04277 0.83214 0.0
C155 C 0.91345 0.03211 0.80794 0.0
H156 H 0.94257 0.02683 0.7761 0.0
H157 H 0.99996 0.07171 0.83571 0.0
C158 C 0.15308 0.05684 0.79587 0.0
N159 N 0.12131 0.05273 0.80584 0.0
C160 C 0.18404 0.06054 0.81017 0.0
C161 C 0.1491 0.05555 0.84475 0.0
C162 C 0.11882 0.05218 0.8298 0.0
C163 C 0.18231 0.05999 0.83499 0.0
H164 H 0.15435 0.05769 0.7768 0.0
H165 H 0.09323 0.04964 0.83735 0.0
C166 C 0.97637 0.06228 0.73747 0.0
N167 N 0.91896 0.08788 0.71169 0.0
C168 C 0.96825 0.04866 0.71449 0.0
C169 C 0.95497 0.08854 0.74746 0.0
C170 C 0.93921 0.06206 0.7017 0.0
C171 C 0.92615 0.10124 0.73412 0.0
C172 C 0.10533 0.03784 0.73253 0.0
C173 C 0.1015 0.05218 0.71013 0.0
C174 C 0.12814 1.00928 0.73591 0.0
C175 C 0.12018 0.03728 0.69135 0.0
C176 C 0.14632 0.99511 0.71668 0.0
N177 N 0.14197 1.00926 0.69498 0.0
C178 C 0.06882 0.15119 0.74422 0.0
C179 C 0.02925 0.12712 0.71419 0.0
C180 C 0.07358 0.18148 0.73132 0.0
N181 N 0.04697 0.12477 0.73554 0.0
C182 C 0.03309 0.15704 0.70074 0.0
C183 C 0.05572 0.18465 0.70918 0.0
H184 H 0.08288 0.14852 0.76113 0.0
H185 H 0.01284 0.10549 0.70725 0.0
C186 C 0.04092 0.94405 0.74272 0.0
N187 N 0.04408 0.97616 0.733 0.0
C188 C 0.03717 0.9133 0.72818 0.0
C189 C 0.04008 0.94913 0.69386 0.0
C190 C 0.04355 0.97918 0.70905 0.0
C191 C 0.03665 0.91558 0.70337 0.0
H192 H 0.04084 0.94232 0.76179 0.0
H193 H 0.04519 1.00501 0.70169 0.0
O194 O 0.04818 0.09245 0.78928 0.0
O195 O 0.04552 1.00987 0.78807 0.0
O196 O 1.00476 0.04946 0.75021 0.0
O197 O 0.08701 0.05184 0.75107 0.0
H198 H 0.06417 0.10756 0.83467 0.0
H199 H 1.00392 0.14126 0.77334 0.0
H200 H 0.04024 0.15845 0.85801 0.0
H201 H 0.98077 0.19132 0.79777 0.0
H202 H 0.13094 0.93433 0.81362 0.0
H203 H 0.02595 1.00586 0.8324 0.0
H204 H 0.10138 0.96892 0.78208 0.0
H205 H 0.05664 0.9705 0.86304 0.0
H206 H 0.94879 0.06571 0.86066 0.0
H207 H 0.8897 0.02076 0.79941 0.0
H208 H 0.20907 0.06362 0.80186 0.0
H209 H 0.14641 0.05549 0.86378 0.0
H210 H 0.98428 0.02809 0.70655 0.0
H211 H 0.96025 0.09869 0.76543 0.0
H212 H 0.93275 0.05191 0.68384 0.0
H213 H 0.90941 0.1216 0.74163 0.0
H214 H 0.08408 0.07435 0.70721 0.0
H215 H 0.13178 0.99818 0.75318 0.0
H216 H 0.11729 0.04796 0.67389 0.0
H217 H 0.16392 0.97289 0.71902 0.0
H218 H 0.09104 0.20221 0.73863 0.0
H219 H 0.01925 0.15808 0.6836 0.0
H220 H 0.03487 0.88799 0.7363 0.0
H221 H 0.03923 0.95226 0.67486 0.0
H222 H 0.42035 0.03831 0.06013 0.0
H223 H 0.37062 0.04796 0.08578 0.0
H224 H 0.40197 0.95743 0.12552 0.0
H225 H 0.45219 0.94775 0.10008 0.0
H226 H 0.32902 0.95958 0.11326 0.0
H227 H 0.37626 0.08739 0.15489 0.0
H228 H 0.37447 0.08601 0.12301 0.0
H229 H 0.40474 0.05772 0.13863 0.0
C230 C 0.41705 0.02065 0.07448 0.0
C231 C 0.44064 0.99241 0.07812 0.0
C232 C 0.3885 0.02621 0.08913 0.0
C233 C 0.38291 1.00378 0.10781 0.0
C234 C 0.4059 0.97517 0.11126 0.0
H235 H 0.24182 0.04333 0.22419 0.0
H236 H 0.29287 0.03174 0.19976 0.0
C237 C 0.43452 0.96958 0.09662 0.0
C238 C 0.35276 1.00992 0.1235 0.0
H239 H 0.31739 0.07055 0.16233 0.0
C240 C 0.32652 0.98377 0.12406 0.0
C241 C 0.34976 0.04133 0.1378 0.0
C242 C 0.37794 0.06962 0.1388 0.0
C243 C 0.29698 0.98851 0.13814 0.0
C244 C 0.29338 0.02043 0.15182 0.0
C245 C 0.32001 0.04625 0.15166 0.0
C246 C 0.26229 0.02746 0.16653 0.0
C247 C 0.27007 0.95913 0.13848 0.0
C248 C 0.22819 0.02939 0.15593 0.0
C249 C 0.19895 0.0359 0.16984 0.0
C250 C 0.20321 0.04074 0.19467 0.0
C251 C 0.23751 0.03925 0.20518 0.0
C252 C 0.26675 0.03283 0.19123 0.0
H253 H 0.28098 0.93341 0.13199 0.0
H254 H 0.26066 0.95613 0.15668 0.0
H255 H 0.24696 0.96558 0.12673 0.0
H256 H 0.22419 0.02591 0.13686 0.0
H257 H 0.17292 0.03656 0.16117 0.0
H258 H 0.04462 0.4594 0.58203 0.0
H259 H 0.03782 0.40793 0.60603 0.0
H260 H 0.15101 0.39731 0.61311 0.0
H261 H 0.15827 0.44843 0.58857 0.0
H262 H 0.06551 0.33718 0.59626 0.0
H263 H 0.11622 0.39764 0.68256 0.0
H264 H 0.10137 0.42386 0.65804 0.0
H265 H 0.14367 0.4025 0.65761 0.0
C266 C 0.0682 0.44613 0.58844 0.0
C267 C 0.10207 0.45828 0.58315 0.0
C268 C 0.06419 0.41673 0.60233 0.0
C269 C 0.09387 0.39898 0.61152 0.0
C270 C 0.12773 0.41097 0.60647 0.0
H271 H 0.11804 0.21853 0.70179 0.0
H272 H 0.12731 0.26982 0.67773 0.0
C273 C 0.13181 0.44031 0.59245 0.0
C274 C 0.08922 0.36742 0.62589 0.0
H275 H 0.10189 0.33684 0.68172 0.0
C276 C 0.07341 0.33705 0.61496 0.0
C277 C 0.0997 0.36734 0.65023 0.0
C278 C 0.11597 0.3996 0.66296 0.0
C279 C 0.06815 0.3064 0.62764 0.0
C280 C 0.07814 0.30644 0.65211 0.0
C281 C 0.09416 0.33681 0.663 0.0
C282 C 0.07222 0.27528 0.66675 0.0
C283 C 0.05269 0.27404 0.61454 0.0
C284 C 0.03809 0.26152 0.66891 0.0
C285 C 0.03271 0.23212 0.68262 0.0
C286 C 0.06131 0.21615 0.69475 0.0
C287 C 0.09538 0.23038 0.69288 0.0
C288 C 0.10076 0.25963 0.67905 0.0
H289 H 0.05623 0.27484 0.59512 0.0
H290 H 0.06499 0.24944 0.62108 0.0
H291 H 0.0239 0.27287 0.61739 0.0
H292 H 0.01551 0.2737 0.66013 0.0
H293 H 1.00607 0.2222 0.684 0.0
H294 H 0.6168 1.00411 0.09496 0.0
H295 H 0.66992 0.01931 0.11895 0.0
H296 H 0.68821 0.1082 0.07557 0.0
H297 H 0.63425 0.0931 0.05126 0.0
H298 H 0.73769 0.02109 0.09646 0.0
H299 H 0.70639 0.1463 0.14682 0.0
H300 H 0.67209 0.11625 0.13535 0.0
H301 H 0.69532 0.14268 0.11543 0.0
C302 C 0.63169 0.02732 0.0907 0.0
C303 C 0.62148 0.04729 0.07111 0.0
C304 C 0.66206 0.03596 0.10448 0.0
C305 C 0.68305 0.06478 0.09903 0.0
C306 C 0.67215 0.08601 0.0802 0.0
H307 H 0.889 0.11429 0.17136 0.0
H308 H 0.83627 0.11764 0.14487 0.0
C309 C 0.64136 0.07742 0.06636 0.0
C310 C 0.7178 0.06976 0.11187 0.0
H311 H 0.76171 0.12007 0.15534 0.0
C312 C 0.7431 0.04295 0.10914 0.0
C313 C 0.72487 0.0984 0.12825 0.0
C314 C 0.69832 0.12763 0.13186 0.0
C315 C 0.77478 0.04334 0.12292 0.0
C316 C 0.78112 0.07098 0.14021 0.0
C317 C 0.75661 0.09875 0.1422 0.0
C318 C 0.8122 0.07025 0.1571 0.0
C319 C 0.80104 0.01385 0.11906 0.0
C320 C 0.81579 0.04289 0.17309 0.0
C321 C 0.84573 0.04095 0.18831 0.0
C322 C 0.87275 0.06644 0.18795 0.0
C323 C 0.86863 0.09436 0.17227 0.0
C324 C 0.83857 0.09628 0.15705 0.0
H325 H 0.79701 1.00055 0.10122 0.0
H326 H 0.8286 0.02394 0.12095 0.0
H327 H 0.79763 0.99373 0.13255 0.0
H328 H 0.79542 0.02288 0.17373 0.0
H329 H 0.84759 0.01956 0.20048 0.0
H330 H 1.00115 0.61829 0.57387 0.0
H331 H 0.98426 0.66848 0.60041 0.0
H332 H 0.0712 0.72951 0.57658 0.0
H333 H 0.08819 0.68004 0.55055 0.0
H334 H 0.03367 0.70097 0.63745 0.0
H335 H 0.9846 0.79741 0.57262 0.0
H336 H 0.98574 0.7503 0.56583 0.0
H337 H 0.02529 0.77642 0.56481 0.0
C338 C 0.01613 0.6427 0.57404 0.0
C339 C 0.04601 0.64526 0.56021 0.0
C340 C 1.00659 0.67122 0.58923 0.0
C341 C 0.02633 0.7028 0.59027 0.0
C342 C 0.05532 0.70562 0.57583 0.0
H343 H 0.07142 0.8987 0.66286 0.0
H344 H 0.06388 0.84604 0.63654 0.0
C345 C 0.0651 0.6772 0.56104 0.0
C346 C 0.01908 0.73222 0.6076 0.0
H347 H 1.00462 0.82134 0.6109 0.0
C348 C 0.02649 0.72717 0.6318 0.0
C349 C 0.01001 0.76636 0.60011 0.0
C350 C 1.00063 0.77299 0.57444 0.0
C351 C 0.0273 0.75585 0.64852 0.0
C352 C 0.01979 0.79034 0.64083 0.0
C353 C 0.01061 0.79499 0.61678 0.0
C354 C 0.02372 0.82228 0.65702 0.0
C355 C 0.03826 0.74926 0.67397 0.0
C356 C 1.00346 0.82664 0.67723 0.0
C357 C 1.00781 0.85676 0.69237 0.0
C358 C 0.03222 0.88331 0.68746 0.0
C359 C 0.05216 0.87898 0.66706 0.0
C360 C 0.04793 0.84883 0.65202 0.0
H361 H 0.05056 0.72281 0.67588 0.0
H362 H 0.05728 0.76975 0.68114 0.0
H363 H 0.0146 0.75051 0.68494 0.0
H364 H 0.98406 0.80693 0.68118 0.0
H365 H 0.9916 0.85955 0.70771 0.0
H366 H 0.48022 0.09366 0.96451 0.0
H367 H 0.42996 0.11171 0.93841 0.0
H368 H 0.37212 0.01902 0.95637 0.0
H369 H 0.42164 1.00083 0.98185 0.0
H370 H 0.39813 0.0628 0.89834 0.0
H371 H 0.30278 0.10578 0.9657 0.0
H372 H 0.35008 0.10617 0.97163 0.0
H373 H 0.32575 0.06541 0.97196 0.0
C374 C 0.45654 0.07752 0.96306 0.0
C375 C 0.45489 0.04578 0.97511 0.0
C376 C 0.42798 0.08775 0.94815 0.0
C377 C 0.39727 0.06678 0.94564 0.0
C378 C 0.39539 0.03575 0.95823 0.0
H379 H 0.20072 0.02357 0.87454 0.0
H380 H 0.25387 0.03071 0.90037 0.0
C381 C 0.42385 0.02531 0.9727 0.0
C382 C 0.36759 0.07523 0.92887 0.0
H383 H 0.27844 0.08891 0.92705 0.0
C384 C 0.37207 0.06939 0.90446 0.0
C385 C 0.33366 0.08346 0.93701 0.0
C386 C 0.32768 0.09088 0.963 0.0
C387 C 0.343 0.0693 0.88809 0.0
C388 C 0.30871 0.07592 0.89638 0.0
C389 C 0.30464 0.08362 0.92069 0.0
C390 C 0.27641 0.07235 0.88053 0.0
C391 C 0.34899 0.05991 0.86231 0.0
C392 C 0.27118 0.09357 0.86085 0.0
C393 C 0.24079 0.08944 0.84597 0.0
C394 C 0.21482 0.06428 0.85064 0.0
C395 C 0.21999 0.0434 0.87054 0.0
C396 C 0.25042 0.04741 0.88531 0.0
H397 H 0.3755 0.0481 0.85975 0.0
H398 H 0.3286 0.04095 0.85491 0.0
H399 H 0.3471 0.08423 0.852 0.0
H400 H 0.29044 0.11352 0.8571 0.0
H401 H 0.23734 0.10636 0.83103 0.0
H402 H 1.00069 0.49206 0.46005 0.0
H403 H 0.98283 0.44234 0.43241 0.0
H404 H 0.06348 0.37709 0.46441 0.0
H405 H 0.08153 0.42621 0.49151 0.0
H406 H 0.03446 0.40697 0.40045 0.0
H407 H 0.97224 0.31405 0.45977 0.0
H408 H 0.97523 0.36113 0.46651 0.0
H409 H 0.01297 0.33324 0.47167 0.0
C410 C 0.01397 0.46683 0.46144 0.0
C411 C 0.0425 0.46294 0.47786 0.0
C412 C 1.0039 0.43857 0.44563 0.0
C413 C 0.02168 0.40597 0.44653 0.0
C414 C 0.04911 0.40182 0.4636 0.0
H415 H 0.05858 0.20656 0.37821 0.0
H416 H 0.05272 0.25962 0.40386 0.0
C417 C 0.05949 0.42999 0.47901 0.0
C418 C 0.0144 0.37691 0.42852 0.0
H419 H 0.99386 0.28896 0.42347 0.0
C420 C 0.02481 0.38133 0.40525 0.0
C421 C 1.00216 0.34349 0.43496 0.0
C422 C 0.9897 0.33764 0.45954 0.0
C423 C 0.02537 0.3526 0.38862 0.0
C424 C 0.01444 0.31874 0.39535 0.0
C425 C 1.00241 0.31482 0.41833 0.0
C426 C 0.0175 0.28661 0.37945 0.0
C427 C 0.03966 0.35834 0.36449 0.0
C428 C 0.99948 0.28393 0.3572 0.0
C429 C 1.00321 0.25375 0.34229 0.0
C430 C 0.02477 0.2254 0.34941 0.0
C431 C 0.04232 0.22804 0.37189 0.0
C432 C 0.0387 0.25827 0.38672 0.0
H433 H 0.05442 0.38368 0.36408 0.0
H434 H 0.05748 0.33638 0.35912 0.0
H435 H 0.01734 0.35915 0.35116 0.0
H436 H 0.98246 0.30515 0.35137 0.0
H437 H 0.98948 0.25285 0.32506 0.0
H438 H 0.66583 0.03644 0.98209 0.0
H439 H 0.71605 0.04623 0.95748 0.0
H440 H 0.68424 0.95681 0.9117 0.0
H441 H 0.63294 0.94776 0.93555 0.0
H442 H 0.77169 1.00449 0.94711 0.0
H443 H 0.69529 0.03232 0.86404 0.0
H444 H 0.67495 0.03062 0.89233 0.0
H445 H 0.68461 0.9904 0.8757 0.0
C446 C 0.66904 0.01909 0.96662 0.0
C447 C 0.6448 0.99152 0.96075 0.0
C448 C 0.69806 0.0246 0.95263 0.0
C449 C 0.70361 1.00272 0.93244 0.0
C450 C 0.68007 0.97462 0.92685 0.0
H451 H 0.86831 0.98672 0.83007 0.0
H452 H 0.81751 0.9778 0.85451 0.0
C453 C 0.65091 0.96919 0.94075 0.0
C454 C 0.73437 1.00903 0.91754 0.0
H455 H 0.75734 0.02494 0.86096 0.0
C456 C 0.76851 1.00915 0.9283 0.0
C457 C 0.73027 0.01525 0.89299 0.0
C458 C 0.6943 0.01752 0.8806 0.0
C459 C 0.79861 0.01463 0.91512 0.0
C460 C 0.79447 0.02041 0.89057 0.0
C461 C 0.76041 0.02037 0.87979 0.0
C462 C 0.82523 0.02631 0.8757 0.0
C463 C 0.83469 0.01351 0.92745 0.0
C464 C 0.84618 0.05682 0.87931 0.0
C465 C 0.87507 0.06228 0.86517 0.0
C466 C 0.88361 0.03731 0.84709 0.0
C467 C 0.86232 1.00684 0.84351 0.0
C468 C 0.83336 1.00153 0.85758 0.0
H469 H 0.83383 1.00171 0.94513 0.0
H470 H 0.85339 0.99805 0.91646 0.0
H471 H 0.84517 0.04085 0.93004 0.0
H472 H 0.84 0.07658 0.89296 0.0
H473 H 0.89042 0.08631 0.86821 0.0
H474 H 0.15704 0.66042 0.45522 0.0
H475 H 0.14931 0.71199 0.43068 0.0
H476 H 0.03629 0.69846 0.43021 0.0
H477 H 0.04363 0.64671 0.45427 0.0
H478 H 0.11341 0.71687 0.38485 0.0
H479 H 0.05197 0.80252 0.454 0.0
H480 H 0.07619 0.76286 0.46089 0.0
H481 H 0.03161 0.75984 0.44878 0.0
C482 C 0.13054 0.66816 0.44977 0.0
C483 C 0.10098 0.6494 0.45702 0.0
C484 C 0.12617 0.69779 0.43582 0.0
C485 C 0.09221 0.70943 0.42898 0.0
C486 C 0.06272 0.69043 0.43574 0.0
H487 H 1.00405 0.88181 0.34869 0.0
H488 H 0.01425 0.82995 0.37261 0.0
C489 C 0.06702 0.6608 0.44959 0.0
C490 C 0.08745 0.7412 0.41454 0.0
H491 H 0.05134 0.824 0.4151 0.0
C492 C 0.10006 0.74041 0.39148 0.0
C493 C 0.06987 0.77179 0.42322 0.0
C494 C 0.05686 0.7746 0.44814 0.0
C495 C 0.09482 0.76909 0.37664 0.0
C496 C 0.07718 0.79972 0.3853 0.0
C497 C 0.06478 0.80053 0.40844 0.0
C498 C 0.0712 0.83118 0.37066 0.0
C499 C 0.10731 0.76588 0.35159 0.0
C500 C 0.09981 0.84949 0.36187 0.0
C501 C 0.09405 0.87915 0.34819 0.0
C502 C 0.05955 0.8914 0.34319 0.0
C503 C 0.03096 0.8733 0.35233 0.0
C504 C 0.03675 0.84354 0.36594 0.0
H505 H 0.11119 0.7378 0.3457 0.0
H506 H 0.08821 0.7782 0.33896 0.0
H507 H 0.13306 0.7797 0.35078 0.0
H508 H 0.12667 0.84108 0.3658 0.0
H509 H 0.11671 0.89285 0.34185 0.0
loop_
_geom_bond_atom_site_label_1
_geom_bond_atom_site_label_2
_geom_bond_distance
_geom_bond_site_symmetry_2
_ccdc_geom_bond_type
Cu0 N1 1.999 1_554 S
Cu0 O6 1.974 . S
Cu0 N11 1.985 . S
Cu0 O20 1.959 1_554 S
N1 Cu0 1.999 1_556 S
N1 C3 1.263 . S
N1 C5 1.389 . S
N2 C3 1.358 . S
N2 C4 1.400 . S
C3 N1 1.263 . S
C3 N2 1.358 . S
C3 H9 0.930 . S
C4 N2 1.400 . S
C4 C5 1.351 . S
C4 H21 0.930 . S
C5 N1 1.389 . S
C5 C4 1.351 . S
C5 H10 0.930 . S
O6 Cu0 1.974 . S
O6 C16 1.282 . S
C7 O8 1.241 1_545 S
C7 O20 1.251 . S
O8 C7 1.241 1_565 S
H9 C3 0.930 . S
H10 C5 0.930 . S
N11 Cu0 1.985 . S
N11 C13 1.335 . S
N11 C14 1.390 . S
N12 C13 1.345 . S
N12 C15 1.336 . S
C13 N11 1.335 . S
C13 N12 1.345 . S
C13 H18 0.930 . S
C14 N11 1.390 . S
C14 C15 1.346 . S
C14 H19 0.930 . S
C15 N12 1.336 . S
C15 C14 1.346 . S
C15 H22 0.929 . S
C16 O6 1.282 . S
C16 O17 1.216 1_545 S
O17 C16 1.216 1_565 S
H18 C13 0.930 . S
H19 C14 0.930 . S
O20 Cu0 1.959 1_556 S
O20 C7 1.251 . S
H21 C4 0.930 . S
H22 C15 0.929 . S
Cu23 N24 1.999 . S
Cu23 O29 1.974 . S
Cu23 N34 1.985 . S
Cu23 O43 1.959 . S
N24 Cu23 1.999 . S
N24 C26 1.263 . S
N24 C28 1.389 . S
N25 C26 1.358 . S
N25 C27 1.400 . S
C26 N24 1.263 . S
C26 N25 1.358 . S
C26 H32 0.930 . S
C27 N25 1.400 . S
C27 C28 1.351 . S
C27 H44 0.930 1_455 S
C28 N24 1.389 . S
C28 C27 1.351 . S
C28 H33 0.930 1_455 S
O29 Cu23 1.974 . S
O29 C39 1.282 . S
C30 O31 1.261 . S
C30 O43 1.251 . S
O31 C30 1.261 . S
H32 C26 0.930 . S
H33 C28 0.930 1_655 S
N34 Cu23 1.985 . S
N34 C36 1.335 . S
N34 C37 1.390 . S
N35 C36 1.345 . S
N35 C38 1.336 . S
C36 N34 1.335 . S
C36 N35 1.345 . S
C36 H41 0.930 . S
C37 N34 1.390 . S
C37 C38 1.346 . S
C37 H42 0.930 . S
C38 N35 1.336 . S
C38 C37 1.346 . S
C38 H45 0.929 . S
C39 O29 1.282 . S
C39 O40 1.216 . S
O40 C39 1.216 . S
H41 C36 0.930 . S
H42 C37 0.930 . S
O43 Cu23 1.959 . S
O43 C30 1.251 . S
H44 C27 0.930 1_655 S
H45 C38 0.929 . S
Li46 N63 1.990 . S
Li46 O106 1.956 . S
Li46 O107 1.970 1_455 S
Li46 O108 1.961 . S
Li47 N71 1.990 1_545 S
Li47 O106 1.970 . S
Li47 O107 1.956 1_455 S
Li47 O109 1.961 . S
Li48 N93 1.990 . S
Li48 O106 1.961 . S
Li48 O108 1.956 . S
Li48 O109 1.970 . S
Li49 N99 1.990 . S
Li49 O107 1.961 . S
Li49 O108 1.970 1_655 S
Li49 O109 1.956 1_655 S
C50 C52 1.348 . S
C50 C53 1.356 . S
C50 O106 1.325 . S
N51 C54 1.314 . S
N51 C55 1.279 . S
C52 C50 1.348 . S
C52 C54 1.353 . S
C52 H110 0.929 . S
C53 C50 1.356 . S
C53 C55 1.358 . S
C53 H111 0.930 . S
C54 N51 1.314 . S
C54 C52 1.353 . S
C54 H112 0.930 . S
C55 N51 1.279 . S
C55 C53 1.358 . S
C55 H113 0.930 . S
C56 C59 1.348 . S
C56 C60 1.356 . S
C56 O107 1.325 . S
C57 N58 1.279 . S
C57 C60 1.358 . S
C57 H114 0.930 . S
N58 C57 1.279 . S
N58 C61 1.314 . S
C59 C56 1.348 . S
C59 C61 1.353 . S
C59 H115 0.929 . S
C60 C56 1.356 . S
C60 C57 1.358 . S
C60 H116 0.930 . S
C61 N58 1.314 . S
C61 C59 1.353 . S
C61 H117 0.930 . S
C62 N63 1.314 . S
C62 C67 1.353 . S
C62 H68 0.933 . S
N63 Li46 1.990 . S
N63 C62 1.314 . S
N63 C65 1.279 . S
C64 C65 1.358 . S
C64 C66 1.356 . S
C64 H118 0.930 . S
C65 N63 1.279 . S
C65 C64 1.358 . S
C65 H69 0.930 . S
C66 C64 1.356 . S
C66 C67 1.348 . S
C67 C62 1.353 . S
C67 C66 1.348 . S
C67 H119 0.929 1_455 S
H68 C62 0.933 . S
H69 C65 0.930 . S
C70 N71 1.314 . S
C70 C72 1.353 . S
C70 H76 0.930 . S
N71 Li47 1.990 1_565 S
N71 C70 1.314 . S
N71 C74 1.279 . S
C72 C70 1.353 . S
C72 C75 1.348 . S
C72 H120 0.929 . S
C73 C74 1.358 . S
C73 C75 1.356 . S
C73 H121 0.930 1_455 S
C74 N71 1.279 . S
C74 C73 1.358 . S
C74 H77 0.930 1_455 S
C75 C72 1.348 . S
C75 C73 1.356 . S
H76 C70 0.930 . S
H77 C74 0.930 1_655 S
C78 C80 1.348 . S
C78 C81 1.356 . S
C78 O108 1.325 . S
N79 C82 1.314 . S
N79 C83 1.279 . S
C80 C78 1.348 . S
C80 C82 1.353 . S
C80 H122 0.929 1_455 S
C81 C78 1.356 . S
C81 C83 1.358 . S
C81 H123 0.930 . S
C82 N79 1.314 . S
C82 C80 1.353 . S
C82 H124 0.930 1_455 S
C83 N79 1.279 . S
C83 C81 1.358 . S
C83 H125 0.930 . S
C84 C85 1.348 . S
C84 C86 1.356 . S
C84 O109 1.325 1_565 S
C85 C84 1.348 . S
C85 C87 1.353 . S
C85 H126 0.929 . S
C86 C84 1.356 . S
C86 C88 1.358 . S
C86 H127 0.930 1_455 S
C87 C85 1.353 . S
C87 N89 1.314 . S
C87 H128 0.930 . S
C88 C86 1.358 . S
C88 N89 1.279 . S
C88 H129 0.930 1_455 S
N89 C87 1.314 . S
N89 C88 1.279 . S
C90 C92 1.353 . S
C90 N93 1.314 . S
C90 H96 0.930 . S
C91 N93 1.279 . S
C91 C94 1.358 . S
C91 H97 0.930 . S
C92 C90 1.353 . S
C92 C95 1.348 . S
C92 H130 0.929 . S
N93 Li48 1.990 . S
N93 C90 1.314 . S
N93 C91 1.279 . S
C94 C91 1.358 . S
C94 C95 1.356 . S
C94 H131 0.930 . S
C95 C92 1.348 . S
C95 C94 1.356 . S
H96 C90 0.930 . S
H97 C91 0.930 . S
C98 N99 1.314 . S
C98 C100 1.353 . S
C98 H104 0.930 . S
N99 Li49 1.990 . S
N99 C98 1.314 . S
N99 C102 1.279 . S
C100 C98 1.353 . S
C100 C103 1.348 . S
C100 H132 0.929 . S
C101 C102 1.358 . S
C101 C103 1.356 . S
C101 H133 0.930 . S
C102 N99 1.279 . S
C102 C101 1.358 . S
C102 H105 0.930 . S
C103 C100 1.348 . S
C103 C101 1.356 . S
H104 C98 0.930 . S
H105 C102 0.930 . S
O106 Li46 1.956 . S
O106 Li47 1.970 . S
O106 Li48 1.961 . S
O106 C50 1.325 . S
O107 Li46 1.970 1_655 S
O107 Li47 1.956 1_655 S
O107 Li49 1.961 . S
O107 C56 1.325 . S
O108 Li46 1.961 . S
O108 Li48 1.956 . S
O108 Li49 1.970 1_455 S
O108 C78 1.325 . S
O109 Li47 1.961 . S
O109 Li48 1.970 . S
O109 Li49 1.956 1_455 S
O109 C84 1.325 1_545 S
H110 C52 0.929 . S
H111 C53 0.930 . S
H112 C54 0.930 . S
H113 C55 0.930 . S
H114 C57 0.930 . S
H115 C59 0.929 . S
H116 C60 0.930 . S
H117 C61 0.930 . S
H118 C64 0.930 . S
H119 C67 0.929 1_655 S
H120 C72 0.929 . S
H121 C73 0.930 1_655 S
H122 C80 0.929 1_655 S
H123 C81 0.930 . S
H124 C82 0.930 1_655 S
H125 C83 0.930 . S
H126 C85 0.929 . S
H127 C86 0.930 1_655 S
H128 C87 0.930 . S
H129 C88 0.930 1_655 S
H130 C92 0.929 . S
H131 C94 0.930 . S
H132 C100 0.929 . S
H133 C101 0.930 . S
Li134 N151 1.990 1_455 S
Li134 O194 1.956 . S
Li134 O195 1.970 1_545 S
Li134 O196 1.961 . S
Li135 N159 1.990 . S
Li135 O194 1.970 . S
Li135 O195 1.956 1_545 S
Li135 O197 1.961 . S
Li136 N181 1.990 . S
Li136 O194 1.961 . S
Li136 O196 1.956 . S
Li136 O197 1.970 . S
Li137 N187 1.990 . S
Li137 O195 1.961 . S
Li137 O196 1.970 1_565 S
Li137 O197 1.956 1_565 S
C138 C140 1.348 . S
C138 C141 1.356 . S
C138 O194 1.325 . S
N139 C142 1.314 . S
N139 C143 1.279 . S
C140 C138 1.348 . S
C140 C142 1.353 . S
C140 H198 0.929 . S
C141 C138 1.356 . S
C141 C143 1.358 . S
C141 H199 0.930 . S
C142 N139 1.314 . S
C142 C140 1.353 . S
C142 H200 0.930 . S
C143 N139 1.279 . S
C143 C141 1.358 . S
C143 H201 0.930 . S
C144 C147 1.348 . S
C144 C148 1.356 . S
C144 O195 1.325 . S
C145 N146 1.279 . S
C145 C148 1.358 . S
C145 H202 0.930 . S
N146 C145 1.279 . S
N146 C149 1.314 . S
C147 C144 1.348 . S
C147 C149 1.353 . S
C147 H203 0.929 . S
C148 C144 1.356 . S
C148 C145 1.358 . S
C148 H204 0.930 . S
C149 N146 1.314 . S
C149 C147 1.353 . S
C149 H205 0.930 . S
C150 N151 1.314 . S
C150 C155 1.353 . S
C150 H156 0.928 1_545 S
N151 Li134 1.990 1_655 S
N151 C150 1.314 . S
N151 C153 1.279 . S
C152 C153 1.358 . S
C152 C154 1.356 . S
C152 H206 0.930 . S
C153 N151 1.279 . S
C153 C152 1.358 . S
C153 H157 0.930 . S
C154 C152 1.356 . S
C154 C155 1.348 . S
C155 C150 1.353 . S
C155 C154 1.348 . S
C155 H207 0.929 1_545 S
H156 C150 0.928 1_565 S
H157 C153 0.930 . S
C158 N159 1.314 . S
C158 C160 1.353 . S
C158 H164 0.930 . S
N159 Li135 1.990 . S
N159 C158 1.314 . S
N159 C162 1.279 . S
C160 C158 1.353 . S
C160 C163 1.348 . S
C160 H208 0.929 . S
C161 C162 1.358 . S
C161 C163 1.356 . S
C161 H209 0.930 1_545 S
C162 N159 1.279 . S
C162 C161 1.358 . S
C162 H165 0.930 1_545 S
C163 C160 1.348 . S
C163 C161 1.356 . S
H164 C158 0.930 . S
H165 C162 0.930 1_565 S
C166 C168 1.348 . S
C166 C169 1.356 . S
C166 O196 1.325 1_655 S
N167 C170 1.314 . S
N167 C171 1.279 . S
C168 C166 1.348 . S
C168 C170 1.353 . S
C168 H210 0.929 1_545 S
C169 C166 1.356 . S
C169 C171 1.358 . S
C169 H211 0.930 . S
C170 N167 1.314 . S
C170 C168 1.353 . S
C170 H212 0.930 1_545 S
C171 N167 1.279 . S
C171 C169 1.358 . S
C171 H213 0.930 . S
C172 C173 1.348 . S
C172 C174 1.356 . S
C172 O197 1.325 . S
C173 C172 1.348 . S
C173 C175 1.353 . S
C173 H214 0.929 . S
C174 C172 1.356 . S
C174 C176 1.358 . S
C174 H215 0.930 1_545 S
C175 C173 1.353 . S
C175 N177 1.314 . S
C175 H216 0.930 . S
C176 C174 1.358 . S
C176 N177 1.279 . S
C176 H217 0.930 1_545 S
N177 C175 1.314 . S
N177 C176 1.279 . S
C178 C180 1.353 . S
C178 N181 1.314 . S
C178 H184 0.930 . S
C179 N181 1.279 . S
C179 C182 1.358 . S
C179 H185 0.930 . S
C180 C178 1.353 . S
C180 C183 1.348 . S
C180 H218 0.929 . S
N181 Li136 1.990 . S
N181 C178 1.314 . S
N181 C179 1.279 . S
C182 C179 1.358 . S
C182 C183 1.356 . S
C182 H219 0.930 . S
C183 C180 1.348 . S
C183 C182 1.356 . S
H184 C178 0.930 . S
H185 C179 0.930 . S
C186 N187 1.314 . S
C186 C188 1.353 . S
C186 H192 0.930 . S
N187 Li137 1.990 . S
N187 C186 1.314 . S
N187 C190 1.279 . S
C188 C186 1.353 . S
C188 C191 1.348 . S
C188 H220 0.929 . S
C189 C190 1.358 . S
C189 C191 1.356 . S
C189 H221 0.930 . S
C190 N187 1.279 . S
C190 C189 1.358 . S
C190 H193 0.930 . S
C191 C188 1.348 . S
C191 C189 1.356 . S
H192 C186 0.930 . S
H193 C190 0.930 . S
O194 Li134 1.956 . S
O194 Li135 1.970 . S
O194 Li136 1.961 . S
O194 C138 1.325 . S
O195 Li134 1.970 1_565 S
O195 Li135 1.956 1_565 S
O195 Li137 1.961 . S
O195 C144 1.325 . S
O196 Li134 1.961 . S
O196 Li136 1.956 . S
O196 Li137 1.970 1_545 S
O196 C166 1.325 1_455 S
O197 Li135 1.961 . S
O197 Li136 1.970 . S
O197 Li137 1.956 1_545 S
O197 C172 1.325 . S
H198 C140 0.929 . S
H199 C141 0.930 . S
H200 C142 0.930 . S
H201 C143 0.930 . S
H202 C145 0.930 . S
H203 C147 0.929 . S
H204 C148 0.930 . S
H205 C149 0.930 . S
H206 C152 0.930 . S
H207 C155 0.929 1_565 S
H208 C160 0.929 . S
H209 C161 0.930 1_565 S
H210 C168 0.929 1_565 S
H211 C169 0.930 . S
H212 C170 0.930 1_565 S
H213 C171 0.930 . S
H214 C173 0.929 . S
H215 C174 0.930 1_565 S
H216 C175 0.930 . S
H217 C176 0.930 1_565 S
H218 C180 0.929 . S
H219 C182 0.930 . S
H220 C188 0.929 . S
H221 C189 0.930 . S
H222 C230 0.929 . S
H223 C232 0.930 . S
H224 C234 0.930 . S
H225 C237 0.929 . S
H226 C240 0.930 . S
H227 C242 0.960 . S
H228 C242 0.960 . S
H229 C242 0.960 . S
C230 H222 0.929 . S
C230 C231 1.377 . S
C230 C232 1.384 . S
C231 C230 1.377 . S
C231 C237 1.390 . S
C232 H223 0.930 . S
C232 C230 1.384 . S
C232 C233 1.372 . S
C233 C232 1.372 . S
C233 C234 1.400 . S
C233 C238 1.490 . S
C234 H224 0.930 . S
C234 C233 1.400 . S
C234 C237 1.386 . S
H235 C251 0.930 . S
H236 C252 0.931 . S
C237 H225 0.929 . S
C237 C231 1.390 . S
C237 C234 1.386 . S
C238 C233 1.490 . S
C238 C240 1.395 . S
C238 C241 1.403 . S
H239 C245 0.930 . S
C240 H226 0.930 . S
C240 C238 1.395 . S
C240 C243 1.403 . S
C241 C238 1.403 . S
C241 C242 1.524 . S
C241 C245 1.400 . S
C242 H227 0.960 . S
C242 H228 0.960 . S
C242 H229 0.960 . S
C242 C241 1.524 . S
C243 C240 1.403 . S
C243 C244 1.392 . S
C243 C247 1.495 1_545 S
C244 C243 1.392 . S
C244 C245 1.385 . S
C244 C246 1.478 . S
C245 H239 0.930 . S
C245 C241 1.400 . S
C245 C244 1.385 . S
C246 C244 1.478 . S
C246 C248 1.381 . S
C246 C252 1.383 . S
C247 C243 1.495 1_565 S
C247 H253 0.959 . S
C247 H254 0.961 . S
C247 H255 0.960 1_565 S
C248 C246 1.381 . S
C248 C249 1.394 . S
C248 H256 0.930 . S
C249 C248 1.394 . S
C249 C250 1.383 . S
C249 H257 0.929 . S
C250 C249 1.383 . S
C250 C251 1.377 . S
C251 H235 0.930 . S
C251 C250 1.377 . S
C251 C252 1.379 . S
C252 H236 0.931 . S
C252 C246 1.383 . S
C252 C251 1.379 . S
H253 C247 0.959 . S
H254 C247 0.961 . S
H255 C247 0.960 1_545 S
H256 C248 0.930 . S
H257 C249 0.929 . S
H258 C266 0.929 1_655 S
H259 C268 0.930 1_655 S
H260 C270 0.930 . S
H261 C273 0.929 . S
H262 C276 0.930 1_655 S
H263 C278 0.960 . S
H264 C278 0.960 . S
H265 C278 0.960 . S
C266 H258 0.929 1_455 S
C266 C267 1.377 . S
C266 C268 1.384 . S
C267 C266 1.377 . S
C267 C273 1.390 . S
C268 H259 0.930 1_455 S
C268 C266 1.384 . S
C268 C269 1.372 . S
C269 C268 1.372 . S
C269 C270 1.400 . S
C269 C274 1.490 . S
C270 H260 0.930 . S
C270 C269 1.400 . S
C270 C273 1.386 . S
H271 C287 0.930 . S
H272 C288 0.931 . S
C273 H261 0.929 . S
C273 C267 1.390 . S
C273 C270 1.386 . S
C274 C269 1.490 . S
C274 C276 1.395 . S
C274 C277 1.403 . S
H275 C281 0.930 . S
C276 H262 0.930 1_455 S
C276 C274 1.395 . S
C276 C279 1.403 . S
C277 C274 1.403 . S
C277 C278 1.524 . S
C277 C281 1.400 . S
C278 H263 0.960 . S
C278 H264 0.960 . S
C278 H265 0.960 . S
C278 C277 1.524 . S
C279 C276 1.403 . S
C279 C280 1.392 . S
C279 C283 1.495 1_455 S
C280 C279 1.392 . S
C280 C281 1.385 . S
C280 C282 1.478 . S
C281 H275 0.930 . S
C281 C277 1.400 . S
C281 C280 1.385 . S
C282 C280 1.478 . S
C282 C284 1.381 . S
C282 C288 1.383 . S
C283 C279 1.495 1_655 S
C283 H289 0.959 . S
C283 H290 0.961 . S
C283 H291 0.960 . S
C284 C282 1.381 . S
C284 C285 1.394 . S
C284 H292 0.930 1_455 S
C285 C284 1.394 . S
C285 C286 1.383 . S
C285 H293 0.929 1_455 S
C286 C285 1.383 . S
C286 C287 1.377 . S
C287 H271 0.930 . S
C287 C286 1.377 . S
C287 C288 1.379 . S
C288 H272 0.931 . S
C288 C282 1.383 . S
C288 C287 1.379 . S
H289 C283 0.959 . S
H290 C283 0.961 . S
H291 C283 0.960 . S
H292 C284 0.930 1_655 S
H293 C285 0.929 1_655 S
H294 C302 0.924 1_565 S
H295 C304 0.930 1_565 S
H296 C306 0.930 . S
H297 C309 0.929 . S
H298 C312 0.930 1_565 S
H299 C314 0.960 . S
H300 C314 0.960 . S
H301 C314 0.960 . S
C302 H294 0.924 1_545 S
C302 C303 1.383 . S
C302 C304 1.384 . S
C303 C302 1.383 . S
C303 C309 1.390 . S
C304 H295 0.930 1_545 S
C304 C302 1.384 . S
C304 C305 1.372 . S
C305 C304 1.372 . S
C305 C306 1.400 . S
C305 C310 1.490 . S
C306 H296 0.930 . S
C306 C305 1.400 . S
C306 C309 1.386 . S
H307 C323 0.930 . S
H308 C324 0.931 . S
C309 H297 0.929 . S
C309 C303 1.390 . S
C309 C306 1.386 . S
C310 C305 1.490 . S
C310 C312 1.395 . S
C310 C313 1.403 . S
H311 C317 0.930 . S
C312 H298 0.930 1_545 S
C312 C310 1.395 . S
C312 C315 1.403 . S
C313 C310 1.403 . S
C313 C314 1.524 . S
C313 C317 1.400 . S
C314 H299 0.960 . S
C314 H300 0.960 . S
C314 H301 0.960 . S
C314 C313 1.524 . S
C315 C312 1.403 . S
C315 C316 1.392 . S
C315 C319 1.495 1_545 S
C316 C315 1.392 . S
C316 C317 1.385 . S
C316 C318 1.478 . S
C317 H311 0.930 . S
C317 C313 1.400 . S
C317 C316 1.385 . S
C318 C316 1.478 . S
C318 C320 1.381 . S
C318 C324 1.383 . S
C319 C315 1.495 1_565 S
C319 H325 0.959 . S
C319 H326 0.961 1_565 S
C319 H327 0.960 . S
C320 C318 1.381 . S
C320 C321 1.394 . S
C320 H328 0.930 1_545 S
C321 C320 1.394 . S
C321 C322 1.383 . S
C321 H329 0.929 1_545 S
C322 C321 1.383 . S
C322 C323 1.377 . S
C323 H307 0.930 . S
C323 C322 1.377 . S
C323 C324 1.379 . S
C324 H308 0.931 . S
C324 C318 1.383 . S
C324 C323 1.379 . S
H325 C319 0.959 . S
H326 C319 0.961 1_545 S
H327 C319 0.960 . S
H328 C320 0.930 1_565 S
H329 C321 0.929 1_565 S
H330 C338 0.929 . S
H331 C340 0.930 . S
H332 C342 0.930 . S
H333 C345 0.929 . S
H334 C348 0.930 . S
H335 C350 0.960 . S
H336 C350 0.960 . S
H337 C350 0.960 . S
C338 H330 0.929 . S
C338 C339 1.377 . S
C338 C340 1.384 . S
C339 C338 1.377 . S
C339 C345 1.390 . S
C340 H331 0.930 . S
C340 C338 1.384 . S
C340 C341 1.372 . S
C341 C340 1.372 . S
C341 C342 1.400 . S
C341 C346 1.490 . S
C342 H332 0.930 . S
C342 C341 1.400 . S
C342 C345 1.386 . S
H343 C359 0.930 . S
H344 C360 0.931 . S
C345 H333 0.929 . S
C345 C339 1.390 . S
C345 C342 1.386 . S
C346 C341 1.490 . S
C346 C348 1.395 . S
C346 C349 1.403 . S
H347 C353 0.930 . S
C348 H334 0.930 . S
C348 C346 1.395 . S
C348 C351 1.403 . S
C349 C346 1.403 . S
C349 C350 1.524 . S
C349 C353 1.400 . S
C350 H335 0.960 . S
C350 H336 0.960 . S
C350 H337 0.960 . S
C350 C349 1.524 . S
C351 C348 1.403 . S
C351 C352 1.392 . S
C351 C355 1.495 . S
C352 C351 1.392 . S
C352 C353 1.385 . S
C352 C354 1.478 . S
C353 H347 0.930 . S
C353 C349 1.400 . S
C353 C352 1.385 . S
C354 C352 1.478 . S
C354 C356 1.381 . S
C354 C360 1.383 . S
C355 C351 1.495 . S
C355 H361 0.959 . S
C355 H362 0.961 . S
C355 H363 0.960 . S
C356 C354 1.381 . S
C356 C357 1.394 . S
C356 H364 0.930 . S
C357 C356 1.394 . S
C357 C358 1.383 . S
C357 H365 0.929 . S
C358 C357 1.383 . S
C358 C359 1.377 . S
C359 H343 0.930 . S
C359 C358 1.377 . S
C359 C360 1.379 . S
C360 H344 0.931 . S
C360 C354 1.383 . S
C360 C359 1.379 . S
H361 C355 0.959 . S
H362 C355 0.961 . S
H363 C355 0.960 . S
H364 C356 0.930 . S
H365 C357 0.929 . S
H366 C374 0.929 . S
H367 C376 0.930 . S
H368 C378 0.930 1_565 S
H369 C381 0.929 1_565 S
H370 C384 0.930 . S
H371 C386 0.960 . S
H372 C386 0.960 . S
H373 C386 0.960 . S
C374 H366 0.929 . S
C374 C375 1.377 . S
C374 C376 1.384 . S
C375 C374 1.377 . S
C375 C381 1.390 . S
C376 H367 0.930 . S
C376 C374 1.384 . S
C376 C377 1.372 . S
C377 C376 1.372 . S
C377 C378 1.400 . S
C377 C382 1.490 . S
C378 H368 0.930 1_545 S
C378 C377 1.400 . S
C378 C381 1.386 . S
H379 C395 0.930 1_565 S
H380 C396 0.931 1_565 S
C381 H369 0.929 1_545 S
C381 C375 1.390 . S
C381 C378 1.386 . S
C382 C377 1.490 . S
C382 C384 1.395 . S
C382 C385 1.403 . S
H383 C389 0.930 . S
C384 H370 0.930 . S
C384 C382 1.395 . S
C384 C387 1.403 . S
C385 C382 1.403 . S
C385 C386 1.524 . S
C385 C389 1.400 . S
C386 H371 0.960 . S
C386 H372 0.960 . S
C386 H373 0.960 . S
C386 C385 1.524 . S
C387 C384 1.403 . S
C387 C388 1.392 . S
C387 C391 1.495 . S
C388 C387 1.392 . S
C388 C389 1.385 . S
C388 C390 1.478 . S
C389 H383 0.930 . S
C389 C385 1.400 . S
C389 C388 1.385 . S
C390 C388 1.478 . S
C390 C392 1.381 . S
C390 C396 1.383 . S
C391 C387 1.495 . S
C391 H397 0.959 . S
C391 H398 0.961 . S
C391 H399 0.960 . S
C392 C390 1.381 . S
C392 C393 1.394 . S
C392 H400 0.930 . S
C393 C392 1.394 . S
C393 C394 1.383 . S
C393 H401 0.929 . S
C394 C393 1.383 . S
C394 C395 1.377 . S
C395 H379 0.930 1_545 S
C395 C394 1.377 . S
C395 C396 1.379 . S
C396 H380 0.931 1_545 S
C396 C390 1.383 . S
C396 C395 1.379 . S
H397 C391 0.959 . S
H398 C391 0.961 . S
H399 C391 0.960 . S
H400 C392 0.930 . S
H401 C393 0.929 . S
H402 C410 0.929 . S
H403 C412 0.930 . S
H404 C414 0.930 . S
H405 C417 0.929 . S
H406 C420 0.930 . S
H407 C422 0.960 . S
H408 C422 0.960 . S
H409 C422 0.960 . S
C410 H402 0.929 . S
C410 C411 1.377 . S
C410 C412 1.384 . S
C411 C410 1.377 . S
C411 C417 1.390 . S
C412 H403 0.930 . S
C412 C410 1.384 . S
C412 C413 1.372 . S
C413 C412 1.372 . S
C413 C414 1.400 . S
C413 C418 1.490 . S
C414 H404 0.930 . S
C414 C413 1.400 . S
C414 C417 1.386 . S
H415 C431 0.930 . S
H416 C432 0.931 . S
C417 H405 0.929 . S
C417 C411 1.390 . S
C417 C414 1.386 . S
C418 C413 1.490 . S
C418 C420 1.395 . S
C418 C421 1.403 . S
H419 C425 0.930 . S
C420 H406 0.930 . S
C420 C418 1.395 . S
C420 C423 1.403 . S
C421 C418 1.403 . S
C421 C422 1.524 1_455 S
C421 C425 1.400 . S
C422 H407 0.960 . S
C422 H408 0.960 . S
C422 H409 0.960 . S
C422 C421 1.524 1_655 S
C423 C420 1.403 . S
C423 C424 1.392 . S
C423 C427 1.495 . S
C424 C423 1.392 . S
C424 C425 1.385 . S
C424 C426 1.478 . S
C425 H419 0.930 . S
C425 C421 1.400 . S
C425 C424 1.385 . S
C426 C424 1.478 . S
C426 C428 1.381 . S
C426 C432 1.383 . S
C427 C423 1.495 . S
C427 H433 0.959 . S
C427 H434 0.961 . S
C427 H435 0.960 . S
C428 C426 1.381 . S
C428 C429 1.394 . S
C428 H436 0.930 . S
C429 C428 1.394 . S
C429 C430 1.383 . S
C429 H437 0.929 . S
C430 C429 1.383 . S
C430 C431 1.377 . S
C431 H415 0.930 . S
C431 C430 1.377 . S
C431 C432 1.379 . S
C432 H416 0.931 . S
C432 C426 1.383 . S
C432 C431 1.379 . S
H433 C427 0.959 . S
H434 C427 0.961 . S
H435 C427 0.960 . S
H436 C428 0.930 . S
H437 C429 0.929 . S
H438 C446 0.929 . S
H439 C448 0.930 . S
H440 C450 0.930 . S
H441 C453 0.929 . S
H442 C456 0.930 . S
H443 C458 0.960 . S
H444 C458 0.960 . S
H445 C458 0.960 . S
C446 H438 0.929 . S
C446 C447 1.377 . S
C446 C448 1.384 . S
C447 C446 1.377 . S
C447 C453 1.390 . S
C448 H439 0.930 . S
C448 C446 1.384 . S
C448 C449 1.372 . S
C449 C448 1.372 . S
C449 C450 1.400 . S
C449 C454 1.490 . S
C450 H440 0.930 . S
C450 C449 1.400 . S
C450 C453 1.386 . S
H451 C467 0.930 1_565 S
H452 C468 0.931 1_565 S
C453 H441 0.929 . S
C453 C447 1.390 . S
C453 C450 1.386 . S
C454 C449 1.490 . S
C454 C456 1.395 . S
C454 C457 1.403 . S
H455 C461 0.930 . S
C456 H442 0.930 . S
C456 C454 1.395 . S
C456 C459 1.403 . S
C457 C454 1.403 . S
C457 C458 1.524 . S
C457 C461 1.400 . S
C458 H443 0.960 . S
C458 H444 0.960 . S
C458 H445 0.960 . S
C458 C457 1.524 . S
C459 C456 1.403 . S
C459 C460 1.392 . S
C459 C463 1.495 . S
C460 C459 1.392 . S
C460 C461 1.385 . S
C460 C462 1.478 . S
C461 H455 0.930 . S
C461 C457 1.400 . S
C461 C460 1.385 . S
C462 C460 1.478 . S
C462 C464 1.381 . S
C462 C468 1.383 . S
C463 C459 1.495 . S
C463 H469 0.959 . S
C463 H470 0.961 1_545 S
C463 H471 0.960 . S
C464 C462 1.381 . S
C464 C465 1.394 . S
C464 H472 0.930 . S
C465 C464 1.394 . S
C465 C466 1.383 . S
C465 H473 0.929 . S
C466 C465 1.383 . S
C466 C467 1.377 . S
C467 H451 0.930 1_545 S
C467 C466 1.377 . S
C467 C468 1.379 . S
C468 H452 0.931 1_545 S
C468 C462 1.383 . S
C468 C467 1.379 . S
H469 C463 0.959 . S
H470 C463 0.961 1_565 S
H471 C463 0.960 . S
H472 C464 0.930 . S
H473 C465 0.929 . S
H474 C482 0.929 . S
H475 C484 0.930 . S
H476 C486 0.930 . S
H477 C489 0.929 . S
H478 C492 0.930 . S
H479 C494 0.960 . S
H480 C494 0.960 1_455 S
H481 C494 0.960 . S
C482 H474 0.929 . S
C482 C483 1.377 . S
C482 C484 1.384 . S
C483 C482 1.377 . S
C483 C489 1.390 1_455 S
C484 H475 0.930 . S
C484 C482 1.384 . S
C484 C485 1.372 . S
C485 C484 1.372 . S
C485 C486 1.400 1_455 S
C485 C490 1.490 . S
C486 H476 0.930 . S
C486 C485 1.400 1_655 S
C486 C489 1.386 . S
H487 C503 0.930 1_655 S
H488 C504 0.931 1_655 S
C489 H477 0.929 . S
C489 C483 1.390 1_655 S
C489 C486 1.386 . S
C490 C485 1.490 . S
C490 C492 1.395 . S
C490 C493 1.403 . S
H491 C497 0.930 . S
C492 H478 0.930 . S
C492 C490 1.395 . S
C492 C495 1.403 . S
C493 C490 1.403 . S
C493 C494 1.524 1_455 S
C493 C497 1.400 . S
C494 H479 0.960 . S
C494 H480 0.960 1_655 S
C494 H481 0.960 . S
C494 C493 1.524 1_655 S
C495 C492 1.403 . S
C495 C496 1.392 . S
C495 C499 1.495 . S
C496 C495 1.392 . S
C496 C497 1.385 . S
C496 C498 1.478 . S
C497 H491 0.930 . S
C497 C493 1.400 . S
C497 C496 1.385 . S
C498 C496 1.478 . S
C498 C500 1.381 . S
C498 C504 1.383 . S
C499 C495 1.495 . S
C499 H505 0.959 . S
C499 H506 0.961 . S
C499 H507 0.960 . S
C500 C498 1.381 . S
C500 C501 1.394 . S
C500 H508 0.930 . S
C501 C500 1.394 . S
C501 C502 1.383 . S
C501 H509 0.929 . S
C502 C501 1.383 . S
C502 C503 1.377 . S
C503 H487 0.930 1_455 S
C503 C502 1.377 . S
C503 C504 1.379 . S
C504 H488 0.931 1_455 S
C504 C498 1.383 . S
C504 C503 1.379 . S
H505 C499 0.959 . S
H506 C499 0.961 . S
H507 C499 0.960 . S
H508 C500 0.930 . S
H509 C501 0.929 . S
C250 C95 1.450 . S
C231 N12 1.421 . S
C286 C183 1.490 . S
C267 N25 1.462 . S
C322 C103 1.427 . S
C303 C16 1.428 . S
C358 C191 1.483 . S
C339 C30 1.486 . S
C394 C163 1.484 . S
C375 C7 1.486 . S
C430 C66 1.429 . S
C411 C39 1.430 . S
C466 C154 1.494 . S
C447 N2 1.462 . S
C483 N35 1.421 . S
C502 C75 1.452 . S
