# Generated by pormake.
# Topology llj, (12,3)-cn, num edge types: 1
# Building blocks:
#     Node 0, Type 0, BuildingBlock: QEWDON_clean_sbu_0, # of connection points: 12
#     Node 1, Type 0, BuildingBlock: QEWDON_clean_sbu_0, # of connection points: 12
#     Node 2, Type 1, BuildingBlock: WUSLED_clean_sbu_0, # of connection points: 3
#     Node 3, Type 1, BuildingBlock: WUSLED_clean_sbu_0, # of connection points: 3
#     Node 4, Type 1, BuildingBlock: WUSLED_clean_sbu_0, # of connection points: 3
#     Node 5, Type 1, BuildingBlock: WUSLED_clean_sbu_0, # of connection points: 3
#     Node 6, Type 1, BuildingBlock: WUSLED_clean_sbu_0, # of connection points: 3
#     Node 7, Type 1, BuildingBlock: WUSLED_clean_sbu_0, # of connection points: 3
#     Node 8, Type 1, BuildingBlock: WUSLED_clean_sbu_0, # of connection points: 3
#     Node 9, Type 1, BuildingBlock: WUSLED_clean_sbu_0, # of connection points: 3
#     Edge 10, Type (0, 1), BuildingBlock: KIFKEQ_clean_linker_1, # of connection points: 2
#     Edge 11, Type (0, 1), BuildingBlock: KIFKEQ_clean_linker_1, # of connection points: 2
#     Edge 12, Type (0, 1), BuildingBlock: KIFKEQ_clean_linker_1, # of connection points: 2
#     Edge 13, Type (0, 1), BuildingBlock: KIFKEQ_clean_linker_1, # of connection points: 2
#     Edge 14, Type (0, 1), BuildingBlock: KIFKEQ_clean_linker_1, # of connection points: 2
#     Edge 15, Type (0, 1), BuildingBlock: KIFKEQ_clean_linker_1, # of connection points: 2
#     Edge 16, Type (0, 1), BuildingBlock: KIFKEQ_clean_linker_1, # of connection points: 2
#     Edge 17, Type (0, 1), BuildingBlock: KIFKEQ_clean_linker_1, # of connection points: 2
#     Edge 18, Type (0, 1), BuildingBlock: KIFKEQ_clean_linker_1, # of connection points: 2
#     Edge 19, Type (0, 1), BuildingBlock: KIFKEQ_clean_linker_1, # of connection points: 2
#     Edge 20, Type (0, 1), BuildingBlock: KIFKEQ_clean_linker_1, # of connection points: 2
#     Edge 21, Type (0, 1), BuildingBlock: KIFKEQ_clean_linker_1, # of connection points: 2
#     Edge 22, Type (0, 1), BuildingBlock: KIFKEQ_clean_linker_1, # of connection points: 2
#     Edge 23, Type (0, 1), BuildingBlock: KIFKEQ_clean_linker_1, # of connection points: 2
#     Edge 24, Type (0, 1), BuildingBlock: KIFKEQ_clean_linker_1, # of connection points: 2
#     Edge 25, Type (0, 1), BuildingBlock: KIFKEQ_clean_linker_1, # of connection points: 2
#     Edge 26, Type (0, 1), BuildingBlock: KIFKEQ_clean_linker_1, # of connection points: 2
#     Edge 27, Type (0, 1), BuildingBlock: KIFKEQ_clean_linker_1, # of connection points: 2
#     Edge 28, Type (0, 1), BuildingBlock: KIFKEQ_clean_linker_1, # of connection points: 2
#     Edge 29, Type (0, 1), BuildingBlock: KIFKEQ_clean_linker_1, # of connection points: 2
#     Edge 30, Type (0, 1), BuildingBlock: KIFKEQ_clean_linker_1, # of connection points: 2
#     Edge 31, Type (0, 1), BuildingBlock: KIFKEQ_clean_linker_1, # of connection points: 2
#     Edge 32, Type (0, 1), BuildingBlock: KIFKEQ_clean_linker_1, # of connection points: 2
#     Edge 33, Type (0, 1), BuildingBlock: KIFKEQ_clean_linker_1, # of connection points: 2
# Relax obj value: 0.010
# Max RMSD: 0.048
# Mean RMSD: 0.045
data_MOF--net-llj--node1-QEWDON_clean_sbu_0--node2-WUSLED_clean_sbu_0--edge1-KIFKEQ_clean_linker_1
_symmetry_space_group_name_H-M    P1
_symmetry_Int_Tables_number       1
_symmetry_cell_setting            triclinic
loop_
_symmetry_equiv_pos_as_xyz
'x, y, z'
_cell_length_a     48.708159
_cell_length_b     48.636487
_cell_length_c     33.716805
_cell_angle_alpha  90.277948
_cell_angle_beta   90.234392
_cell_angle_gamma 89.860476
loop_
_atom_site_label
_atom_site_type_symbol
_atom_site_fract_x
_atom_site_fract_y
_atom_site_fract_z
_atom_type_partial_charge
Zn0 Zn 0.97023 0.06567 0.98374 0.0
Zn1 Zn 0.96209 0.05791 0.07778 0.0
O2 O 0.98751 0.04934 0.03275 0.0
H3 H 1.00045 0.03428 0.03218 0.0
C4 C 0.90736 0.00878 0.92728 0.0
O5 O 0.89883 0.01491 0.96319 0.0
Zn6 Zn 0.03812 0.95067 0.08379 0.0
Zn7 Zn 0.03806 0.94862 0.98873 0.0
O8 O 0.01575 0.96066 0.0359 0.0
H9 H 0.00291 0.9758 0.03503 0.0
Zn10 Zn 0.93544 0.96607 0.9723 0.0
O11 O 0.94744 0.98662 0.02174 0.0
Zn12 Zn 0.93947 0.96266 0.06854 0.0
H13 H 0.95896 1.00269 0.02155 0.0
Zn14 Zn 0.07248 0.0418 0.98551 0.0
O15 O 0.05727 0.0212 0.0324 0.0
H16 H 0.04545 0.00546 0.03 0.0
Zn17 Zn 0.0618 0.04529 0.08023 0.0
C18 C 0.09101 0.99424 0.93886 0.0
O19 O 0.09073 0.98288 0.97414 0.0
O20 O 0.93775 0.09116 0.99645 0.0
O21 O 0.93351 0.08723 0.06195 0.0
O22 O 0.06831 0.92123 0.00389 0.0
O23 O 0.06704 0.92107 0.06993 0.0
O24 O 0.91248 0.93191 0.98532 0.0
O25 O 0.91468 0.9304 0.05129 0.0
C26 C 0.01132 0.06823 0.12545 0.0
O27 O 0.09494 0.07586 0.00203 0.0
O28 O 0.08755 0.07754 0.06723 0.0
O29 O 0.01821 0.94238 0.93484 0.0
C30 C 0.92606 0.09781 0.02889 0.0
O31 O 0.99506 0.07595 0.93609 0.0
C32 C 0.98591 0.94007 0.1226 0.0
O33 O 0.92378 0.98868 0.92271 0.0
C34 C 0.0769 0.91217 0.03712 0.0
O35 O 0.08403 0.01934 0.93549 0.0
C36 C 0.92602 0.01117 0.1144 0.0
O37 O 0.98531 0.07088 0.12415 0.0
O38 O 0.02339 0.05777 0.09546 0.0
C39 C 0.90598 0.92083 0.01814 0.0
O40 O 0.01185 0.93754 0.12628 0.0
O41 O 0.97646 0.95026 0.09054 0.0
C42 C 0.07167 0.99686 0.12746 0.0
O43 O 0.92054 0.98574 0.11023 0.0
O44 O 0.94325 0.02179 0.09063 0.0
C45 C 0.09881 0.08703 0.0359 0.0
O46 O 0.07749 0.02228 0.12469 0.0
O47 O 0.05637 0.98635 0.10071 0.0
C48 C 0.9943 0.93199 0.9335 0.0
O49 O 0.98191 0.92584 0.96684 0.0
C50 C 0.0177 0.08838 0.94163 0.0
O51 O 0.02557 0.09408 0.97807 0.0
Zn52 Zn 0.47148 0.56478 0.4828 0.0
Zn53 Zn 0.46645 0.55814 0.57751 0.0
O54 O 0.49014 0.5487 0.53083 0.0
H55 H 0.50282 0.53342 0.52961 0.0
C56 C 0.43742 0.50565 0.41032 0.0
O57 O 0.46007 0.51417 0.42768 0.0
Zn58 Zn 0.53884 0.45191 0.57998 0.0
Zn59 Zn 0.53425 0.44866 0.48508 0.0
O60 O 0.51488 0.46251 0.53402 0.0
H61 H 0.50307 0.47849 0.53408 0.0
Zn62 Zn 0.43784 0.46442 0.47499 0.0
O63 O 0.44758 0.48721 0.5233 0.0
Zn64 Zn 0.44038 0.46421 0.57147 0.0
H65 H 0.45809 0.50394 0.52206 0.0
Zn66 Zn 0.57789 0.54366 0.4826 0.0
O67 O 0.56303 0.52145 0.52836 0.0
H68 H 0.55071 0.50612 0.52488 0.0
Zn69 Zn 0.56632 0.54548 0.57659 0.0
C70 C 0.57888 0.50173 0.41932 0.0
O71 O 0.55583 0.49429 0.43624 0.0
O72 O 0.44046 0.59152 0.49759 0.0
O73 O 0.43801 0.58809 0.56337 0.0
O74 O 0.5647 0.42075 0.49746 0.0
O75 O 0.56687 0.42204 0.56343 0.0
O76 O 0.41565 0.43024 0.49001 0.0
O77 O 0.41567 0.43146 0.55609 0.0
C78 C 0.51733 0.56762 0.62071 0.0
O79 O 0.60024 0.57725 0.50105 0.0
O80 O 0.59341 0.57692 0.56633 0.0
O81 O 0.51233 0.4438 0.43255 0.0
C82 C 0.42995 0.59873 0.53063 0.0
O83 O 0.49496 0.57382 0.43326 0.0
C84 C 0.48838 0.44099 0.6228 0.0
O85 O 0.42482 0.48507 0.42446 0.0
C86 C 0.5749 0.41229 0.53008 0.0
O87 O 0.59189 0.52229 0.43316 0.0
C88 C 0.4296 0.51344 0.61568 0.0
O89 O 0.49138 0.5704 0.62241 0.0
O90 O 0.52803 0.55913 0.58854 0.0
C91 C 0.40819 0.42044 0.52325 0.0
O92 O 0.5144 0.4384 0.62437 0.0
O93 O 0.47785 0.45207 0.59209 0.0
C94 C 0.57072 0.49754 0.62539 0.0
O95 O 0.42219 0.48844 0.61289 0.0
O96 O 0.44753 0.52225 0.59151 0.0
C97 C 0.6046 0.58722 0.53554 0.0
O98 O 0.57816 0.52256 0.62344 0.0
O99 O 0.55777 0.48735 0.59597 0.0
C100 C 0.4894 0.4314 0.432 0.0
O101 O 0.47929 0.42214 0.46543 0.0
C102 C 0.51958 0.58205 0.43718 0.0
O103 O 0.53015 0.58421 0.47298 0.0
C104 C 0.3527 0.331 0.91039 0.0
C105 C 0.38021 0.339 0.91503 0.0
C106 C 0.38079 0.35658 0.84752 0.0
C107 C 0.39416 0.35152 0.88383 0.0
C108 C 0.35312 0.34887 0.84317 0.0
C109 C 0.33923 0.3361 0.87433 0.0
U110 U 0.34265 0.32069 0.02065 0.0
O111 O 0.30513 0.31771 0.05652 0.0
O112 O 0.3346 0.28352 0.05558 0.0
C113 C 0.31047 0.29235 0.0675 0.0
C114 C 0.33781 0.31793 0.94322 0.0
C115 C 0.28777 0.27271 0.06299 0.0
C116 C 0.25727 0.24513 0.02187 0.0
C117 C 0.2787 0.26415 0.02539 0.0
C118 C 0.25377 0.24322 0.09347 0.0
C119 C 0.24455 0.23442 0.0559 0.0
C120 C 0.27518 0.26218 0.09693 0.0
C121 C 0.39004 0.36061 0.09108 0.0
C122 C 0.38501 0.36034 0.16275 0.0
C123 C 0.42232 0.38558 0.13268 0.0
C124 C 0.41328 0.37728 0.09512 0.0
C125 C 0.40821 0.37736 0.16697 0.0
C126 C 0.37599 0.35205 0.12508 0.0
C127 C 0.38058 0.35279 0.0512 0.0
O128 O 0.35201 0.30005 0.96414 0.0
O129 O 0.3231 0.33472 0.96524 0.0
O130 O 0.35589 0.36144 0.0415 0.0
O131 O 0.38522 0.32713 0.04074 0.0
H132 H 0.39091 0.33561 0.94283 0.0
H133 H 0.41534 0.35757 0.88828 0.0
H134 H 0.34234 0.35233 0.81548 0.0
H135 H 0.31796 0.33021 0.87028 0.0
H136 H 0.25049 0.23903 0.9925 0.0
H137 H 0.28821 0.27214 0.99885 0.0
H138 H 0.24475 0.23511 0.12027 0.0
H139 H 0.28203 0.2685 0.12619 0.0
H140 H 0.37356 0.35383 0.1885 0.0
H141 H 0.44052 0.39824 0.13486 0.0
H142 H 0.42443 0.38397 0.06915 0.0
H143 H 0.35795 0.33916 0.12242 0.0
C144 C 0.68476 0.35825 0.13432 0.0
C145 C 0.66428 0.37771 0.12587 0.0
C146 C 0.66084 0.3893 0.19604 0.0
C147 C 0.65239 0.39309 0.15647 0.0
C148 C 0.68139 0.36971 0.20426 0.0
C149 C 0.69323 0.35431 0.17361 0.0
U150 U 0.69269 0.34313 0.02473 0.0
O151 O 0.72962 0.33464 0.98936 0.0
O152 O 0.69679 0.30391 0.99251 0.0
C153 C 0.7219 0.30941 0.98087 0.0
C154 C 0.69754 0.34229 0.10223 0.0
C155 C 0.74246 0.28799 0.98906 0.0
C156 C 0.76859 0.25996 0.03539 0.0
C157 C 0.74865 0.28013 0.0281 0.0
C158 C 0.77626 0.2554 0.96469 0.0
C159 C 0.78273 0.24746 0.00374 0.0
C160 C 0.75632 0.27548 0.95747 0.0
C161 C 0.64918 0.3875 0.95309 0.0
C162 C 0.63585 0.37811 0.88471 0.0
C163 C 0.63182 0.42426 0.91144 0.0
C164 C 0.64211 0.41516 0.94777 0.0
C165 C 0.62821 0.40582 0.87956 0.0
C166 C 0.64626 0.36901 0.92121 0.0
C167 C 0.65871 0.37865 0.99253 0.0
O168 O 0.68084 0.32602 0.08242 0.0
O169 O 0.71399 0.35635 0.07918 0.0
O170 O 0.6843 0.38457 1.00152 0.0
O171 O 0.65123 0.35399 0.00403 0.0
H172 H 0.65762 0.3811 0.09558 0.0
H173 H 0.6369 0.40825 0.14907 0.0
H174 H 0.68814 0.36607 0.23443 0.0
H175 H 0.70902 0.33934 0.18059 0.0
H176 H 0.77325 0.25449 0.06578 0.0
H177 H 0.73817 0.28971 0.05288 0.0
H178 H 0.78644 0.2459 0.93961 0.0
H179 H 0.75174 0.28128 0.92716 0.0
H180 H 0.63326 0.36336 0.86083 0.0
H181 H 0.6268 0.44585 0.90832 0.0
H182 H 0.64438 0.42977 0.97194 0.0
H183 H 0.6517 0.34754 0.92466 0.0
C184 C 0.64996 0.68037 0.13657 0.0
C185 C 0.62551 0.66576 0.13023 0.0
C186 C 0.62206 0.65667 0.20102 0.0
C187 C 0.61162 0.6541 0.16221 0.0
C188 C 0.64666 0.67124 0.20711 0.0
C189 C 0.66045 0.68302 0.17513 0.0
U190 U 0.66321 0.68615 0.02591 0.0
O191 O 0.67099 0.72244 0.98898 0.0
O192 O 0.70203 0.68979 0.9933 0.0
C193 C 0.69613 0.71459 0.98045 0.0
C194 C 0.66486 0.69257 0.1032 0.0
C195 C 0.71751 0.73539 0.98707 0.0
C196 C 0.74497 0.76398 0.03122 0.0
C197 C 0.72457 0.74409 0.02552 0.0
C198 C 0.75137 0.76655 0.96009 0.0
C199 C 0.75855 0.77552 0.99851 0.0
C200 C 0.73104 0.74668 0.95447 0.0
C201 C 0.62104 0.64103 0.95485 0.0
C202 C 0.62848 0.63923 0.88363 0.0
C203 C 0.59114 0.61357 0.91283 0.0
C204 C 0.59863 0.62332 0.95037 0.0
C205 C 0.60598 0.62133 0.87896 0.0
C206 C 0.63595 0.649 0.9213 0.0
C207 C 0.62848 0.65085 0.99474 0.0
O208 O 0.68115 0.67563 0.08392 0.0
O209 O 0.65012 0.70827 0.07963 0.0
O210 O 0.62203 0.67654 0.00269 0.0
O211 O 0.65314 0.64399 0.00721 0.0
H212 H 0.61723 0.66333 0.10054 0.0
H213 H 0.5929 0.64274 0.15649 0.0
H214 H 0.65506 0.67385 0.23668 0.0
H215 H 0.67932 0.69422 0.18052 0.0
H216 H 0.74982 0.77061 0.06114 0.0
H217 H 0.71424 0.73556 0.05105 0.0
H218 H 0.7617 0.77466 0.93429 0.0
H219 H 0.7259 0.7401 0.9246 0.0
H220 H 0.64046 0.64547 0.85824 0.0
H221 H 0.5734 0.60028 0.91031 0.0
H222 H 0.58682 0.61708 0.97595 0.0
H223 H 0.65335 0.6627 0.9243 0.0
C224 C 0.32154 0.64616 0.13111 0.0
C225 C 0.34262 0.62776 0.12089 0.0
C226 C 0.34847 0.61534 0.19037 0.0
C227 C 0.35603 0.61252 0.15029 0.0
C228 C 0.32739 0.63394 0.20034 0.0
C229 C 0.31406 0.6492 0.17094 0.0
U230 U 0.30686 0.66213 0.02267 0.0
O231 O 0.26761 0.67026 0.99238 0.0
O232 O 0.29985 0.70171 0.993 0.0
C233 C 0.27433 0.69568 0.98371 0.0
C234 C 0.30688 0.66187 0.10051 0.0
C235 C 0.25381 0.71674 0.99384 0.0
C236 C 0.2284 0.74382 0.04225 0.0
C237 C 0.24813 0.72368 0.03344 0.0
C238 C 0.22 0.75013 0.97199 0.0
C239 C 0.214 0.75719 0.01157 0.0
C240 C 0.23968 0.73009 0.96327 0.0
C241 C 0.34562 0.62164 0.94172 0.0
C242 C 0.33266 0.60248 0.87746 0.0
C243 C 0.37968 0.61632 0.88957 0.0
C244 C 0.37265 0.62449 0.92805 0.0
C245 C 0.35985 0.60485 0.86403 0.0
C246 C 0.32559 0.61085 0.91586 0.0
C247 C 0.33929 0.62851 0.98354 0.0
O248 O 0.32209 0.67862 0.07947 0.0
O249 O 0.28949 0.64757 0.07886 0.0
O250 O 0.31491 0.62143 0.9966 0.0
O251 O 0.34712 0.65293 0.99602 0.0
H252 H 0.34853 0.62507 0.09017 0.0
H253 H 0.37194 0.59815 0.14157 0.0
H254 H 0.32131 0.63686 0.23093 0.0
H255 H 0.29783 0.66334 0.17931 0.0
H256 H 0.22415 0.74863 0.07301 0.0
H257 H 0.25889 0.71349 0.05744 0.0
H258 H 0.2097 0.76034 0.94761 0.0
H259 H 0.24391 0.72506 0.93254 0.0
H260 H 0.31687 0.59399 0.85834 0.0
H261 H 0.40086 0.61812 0.88029 0.0
H262 H 0.38852 0.63255 0.94746 0.0
H263 H 0.30453 0.60842 0.9254 0.0
C264 C 0.85111 0.83491 0.41302 0.0
C265 C 0.87755 0.84593 0.41741 0.0
C266 C 0.8765 0.86209 0.34907 0.0
C267 C 0.89017 0.85925 0.38572 0.0
C268 C 0.84988 0.85114 0.34499 0.0
C269 C 0.83734 0.83766 0.37669 0.0
U270 U 0.84533 0.8227 0.52343 0.0
O271 O 0.80923 0.81856 0.56195 0.0
O272 O 0.8391 0.78484 0.55757 0.0
C273 C 0.81526 0.79306 0.57144 0.0
C274 C 0.83767 0.82106 0.4464 0.0
C275 C 0.79274 0.77323 0.56725 0.0
C276 C 0.76196 0.74589 0.5263 0.0
C277 C 0.78314 0.76515 0.52971 0.0
C278 C 0.75969 0.74278 0.59793 0.0
C279 C 0.75001 0.73443 0.5604 0.0
C280 C 0.78088 0.762 0.60128 0.0
C281 C 0.89436 0.86157 0.59223 0.0
C282 C 0.88996 0.86154 0.66399 0.0
C283 C 0.92942 0.88286 0.63333 0.0
C284 C 0.91921 0.87577 0.59589 0.0
C285 C 0.91489 0.8759 0.66783 0.0
C286 C 0.87981 0.85435 0.62646 0.0
C287 C 0.88384 0.8547 0.55254 0.0
O288 O 0.85298 0.80317 0.46558 0.0
O289 O 0.82359 0.83729 0.4701 0.0
O290 O 0.85878 0.86325 0.5448 0.0
O291 O 0.88848 0.82937 0.54051 0.0
H292 H 0.88849 0.84413 0.44533 0.0
H293 H 0.91082 0.86699 0.38984 0.0
H294 H 0.83859 0.85325 0.31744 0.0
H295 H 0.81682 0.82948 0.3729 0.0
H296 H 0.75477 0.74015 0.49698 0.0
H297 H 0.79207 0.77371 0.50311 0.0
H298 H 0.75123 0.73411 0.62475 0.0
H299 H 0.78815 0.76797 0.63049 0.0
H300 H 0.87846 0.85562 0.68999 0.0
H301 H 0.9485 0.8942 0.63523 0.0
H302 H 0.93066 0.88152 0.56973 0.0
H303 H 0.86061 0.84324 0.62412 0.0
C304 C 0.18753 0.85857 0.63918 0.0
C305 C 0.17449 0.88392 0.63265 0.0
C306 C 0.16381 0.88772 0.70302 0.0
C307 C 0.16283 0.89843 0.66434 0.0
C308 C 0.17663 0.86213 0.70924 0.0
C309 C 0.18843 0.84773 0.67758 0.0
U310 U 0.19544 0.8436 0.52875 0.0
O311 O 0.23267 0.8358 0.49366 0.0
O312 O 0.20067 0.80424 0.49726 0.0
C313 C 0.22563 0.81031 0.48556 0.0
C314 C 0.20027 0.84325 0.60631 0.0
C315 C 0.24673 0.78945 0.49401 0.0
C316 C 0.27272 0.76141 0.54052 0.0
C317 C 0.25247 0.78125 0.53305 0.0
C318 C 0.28169 0.75797 0.47003 0.0
C319 C 0.28765 0.74962 0.50907 0.0
C320 C 0.26143 0.77769 0.46262 0.0
C321 C 0.15061 0.88537 0.45588 0.0
C322 C 0.15677 0.88856 0.38447 0.0
C323 C 0.11698 0.90937 0.41548 0.0
C324 C 0.12601 0.90012 0.45244 0.0
C325 C 0.13246 0.90414 0.38109 0.0
C326 C 0.1658 0.87925 0.42163 0.0
C327 C 0.16025 0.87757 0.49569 0.0
O328 O 0.18386 0.82657 0.58673 0.0
O329 O 0.21625 0.85771 0.58306 0.0
O330 O 0.18564 0.88437 0.50465 0.0
O331 O 0.15358 0.85279 0.5076 0.0
H332 H 0.1734 0.89251 0.60309 0.0
H333 H 0.15282 0.91792 0.65852 0.0
H334 H 0.17799 0.85347 0.73872 0.0
H335 H 0.1984 0.82818 0.68313 0.0
H336 H 0.27697 0.75562 0.57091 0.0
H337 H 0.24134 0.79024 0.55769 0.0
H338 H 0.29248 0.74901 0.44508 0.0
H339 H 0.25721 0.78375 0.43231 0.0
H340 H 0.16925 0.88432 0.35864 0.0
H341 H 0.09794 0.92086 0.41389 0.0
H342 H 0.11394 0.90488 0.47853 0.0
H343 H 0.18485 0.8678 0.42375 0.0
C344 C 0.14971 0.18465 0.64093 0.0
C345 C 0.12721 0.16715 0.63501 0.0
C346 C 0.12154 0.16278 0.70651 0.0
C347 C 0.11323 0.15631 0.66752 0.0
C348 C 0.14414 0.18039 0.71213 0.0
C349 C 0.15808 0.19122 0.6796 0.0
U350 U 0.16159 0.19057 0.52972 0.0
O351 O 0.17062 0.22689 0.49355 0.0
O352 O 0.20018 0.1928 0.49621 0.0
C353 C 0.19529 0.21803 0.48423 0.0
C354 C 0.16465 0.19609 0.60709 0.0
C355 C 0.2176 0.23774 0.49109 0.0
C356 C 0.2448 0.2665 0.53533 0.0
C357 C 0.22378 0.2473 0.52944 0.0
C358 C 0.25373 0.26646 0.46466 0.0
C359 C 0.25991 0.27644 0.50294 0.0
C360 C 0.23275 0.24731 0.45884 0.0
C361 C 0.11587 0.14977 0.4578 0.0
C362 C 0.12573 0.13881 0.38877 0.0
C363 C 0.07896 0.1371 0.41278 0.0
C364 C 0.08798 0.14487 0.45055 0.0
C365 C 0.0977 0.13398 0.38143 0.0
C366 C 0.13474 0.14681 0.42663 0.0
C367 C 0.12457 0.158 0.49803 0.0
O368 O 0.17958 0.17837 0.58697 0.0
O369 O 0.15037 0.21273 0.58432 0.0
O370 O 0.11953 0.18372 0.50774 0.0
O371 O 0.14891 0.14941 0.5097 0.0
H372 H 0.12046 0.16193 0.60525 0.0
H373 H 0.09571 0.14313 0.66211 0.0
H374 H 0.15134 0.18551 0.74168 0.0
H375 H 0.17547 0.20465 0.68464 0.0
H376 H 0.24887 0.27393 0.5651 0.0
H377 H 0.21221 0.24008 0.5547 0.0
H378 H 0.26525 0.27331 0.43916 0.0
H379 H 0.22831 0.24003 0.42908 0.0
H380 H 0.14061 0.1368 0.36514 0.0
H381 H 0.05728 0.13317 0.40825 0.0
H382 H 0.07312 0.14702 0.4742 0.0
H383 H 0.15639 0.1507 0.4315 0.0
C384 C 0.80683 0.14271 0.62929 0.0
C385 C 0.82629 0.122 0.62198 0.0
C386 C 0.82944 0.11248 0.6928 0.0
C387 C 0.83753 0.10701 0.65348 0.0
C388 C 0.80993 0.13333 0.69979 0.0
C389 C 0.79874 0.14828 0.6683 0.0
U390 U 0.79957 0.15852 0.51906 0.0
O391 O 0.76262 0.16815 0.48399 0.0
O392 O 0.79597 0.19827 0.48866 0.0
C393 C 0.77073 0.19337 0.47666 0.0
C394 C 0.79474 0.15857 0.59659 0.0
C395 C 0.75059 0.21507 0.48563 0.0
C396 C 0.72534 0.24324 0.53291 0.0
C397 C 0.74466 0.22258 0.52494 0.0
C398 C 0.71772 0.24897 0.46237 0.0
C399 C 0.71155 0.25662 0.50168 0.0
C400 C 0.73705 0.2284 0.45447 0.0
C401 C 0.84226 0.11554 0.44514 0.0
C402 C 0.83767 0.11687 0.37328 0.0
C403 C 0.87238 0.08801 0.40371 0.0
C404 C 0.86399 0.09687 0.4412 0.0
C405 C 0.8591 0.09757 0.36926 0.0
C406 C 0.82927 0.12577 0.41099 0.0
C407 C 0.8332 0.12331 0.48521 0.0
O408 O 0.8118 0.17466 0.57756 0.0
O409 O 0.77834 0.1447 0.57282 0.0
O410 O 0.80757 0.11754 0.4938 0.0
O411 O 0.84095 0.14768 0.49793 0.0
H412 H 0.83269 0.11739 0.59193 0.0
H413 H 0.85226 0.09091 0.647 0.0
H414 H 0.80354 0.13837 0.72969 0.0
H415 H 0.78378 0.16426 0.67444 0.0
H416 H 0.7209 0.24846 0.56349 0.0
H417 H 0.75492 0.21239 0.5494 0.0
H418 H 0.70783 0.25913 0.4376 0.0
H419 H 0.74144 0.22291 0.42396 0.0
H420 H 0.8269 0.12451 0.34741 0.0
H421 H 0.88927 0.07355 0.40175 0.0
H422 H 0.87433 0.08887 0.46724 0.0
H423 H 0.81243 0.14026 0.41355 0.0
H424 H 0.11808 0.1126 0.10325 0.0
H425 H 0.1232 0.11491 0.97532 0.0
H426 H 0.15249 0.14889 0.10778 0.0
H427 H 0.15711 0.15142 0.97992 0.0
H428 H 0.24094 0.19068 0.00469 0.0
H429 H 0.20461 0.15647 0.99994 0.0
H430 H 0.16078 0.19731 0.09458 0.0
H431 H 0.19717 0.23156 0.09935 0.0
C432 C 0.12628 0.12103 0.07609 0.0
C433 C 0.11799 0.11064 0.03894 0.0
C434 C 0.14596 0.14192 0.07869 0.0
C435 C 0.15775 0.15293 0.04421 0.0
C436 C 0.14886 0.14305 0.00708 0.0
C437 C 0.12926 0.12219 0.00447 0.0
C438 C 0.22341 0.19257 0.02417 0.0
C439 C 0.222 0.2139 0.05239 0.0
C440 C 0.20255 0.17294 0.02146 0.0
C441 C 0.17972 0.17414 0.04685 0.0
C442 C 0.17824 0.19554 0.07495 0.0
C443 C 0.19911 0.21518 0.07767 0.0
H444 H 0.89851 0.12198 0.09135 0.0
H445 H 0.90343 0.12146 0.96332 0.0
H446 H 0.86406 0.15872 0.08798 0.0
H447 H 0.8691 0.15751 0.96013 0.0
H448 H 0.83248 0.24237 0.96742 0.0
H449 H 0.86665 0.2063 0.976 0.0
H450 H 0.81624 0.16851 0.0655 0.0
H451 H 0.78185 0.20479 0.05688 0.0
C452 C 0.89216 0.12952 0.06256 0.0
C453 C 0.90398 0.1189 0.02765 0.0
C454 C 0.87238 0.15051 0.06063 0.0
C455 C 0.86412 0.1613 0.0238 0.0
C456 C 0.87545 0.15014 0.98902 0.0
C457 C 0.89508 0.12928 0.9909 0.0
C458 C 0.82858 0.22632 0.98881 0.0
C459 C 0.80425 0.22628 0.01107 0.0
C460 C 0.84819 0.20564 0.99376 0.0
C461 C 0.84401 0.18431 0.02107 0.0
C462 C 0.82013 0.18472 0.04437 0.0
C463 C 0.80044 0.2055 0.03941 0.0
H464 H 0.88691 0.89301 0.95327 0.0
H465 H 0.88064 0.89571 0.08113 0.0
H466 H 0.85187 0.85763 0.95068 0.0
H467 H 0.84504 0.86033 0.07832 0.0
H468 H 0.79957 0.77736 0.05469 0.0
H469 H 0.83615 0.81148 0.06135 0.0
H470 H 0.80256 0.85603 0.96177 0.0
H471 H 0.76615 0.82216 0.95518 0.0
C472 C 0.87813 0.88602 0.98091 0.0
C473 C 0.88646 0.89744 0.01741 0.0
C474 C 0.85787 0.86582 0.97936 0.0
C475 C 0.84534 0.85646 0.01422 0.0
C476 C 0.85434 0.86707 0.05092 0.0
C477 C 0.8747 0.88737 0.05251 0.0
C478 C 0.79985 0.79462 0.03451 0.0
C479 C 0.78009 0.79687 0.00411 0.0
C480 C 0.82082 0.81414 0.03832 0.0
C481 C 0.82248 0.83628 0.01178 0.0
C482 C 0.80228 0.83887 0.98211 0.0
C483 C 0.78138 0.81944 0.97833 0.0
H484 H 0.10056 0.88517 0.10061 0.0
H485 H 0.10115 0.88891 0.97246 0.0
H486 H 0.13331 0.84677 0.09808 0.0
H487 H 0.13353 0.85109 0.97022 0.0
H488 H 0.16421 0.76405 0.97549 0.0
H489 H 0.13136 0.80126 0.9849 0.0
H490 H 0.18254 0.8358 0.07725 0.0
H491 H 0.21579 0.79851 0.06757 0.0
C492 C 0.10772 0.87797 0.07201 0.0
C493 C 0.09797 0.89003 0.03676 0.0
C494 C 0.1265 0.85604 0.07059 0.0
C495 C 0.13567 0.84567 0.03392 0.0
C496 C 0.12642 0.85821 0.9989 0.0
C497 C 0.10791 0.88007 1.00028 0.0
C498 C 0.16856 0.77958 0.99775 0.0
C499 C 0.19287 0.77853 0.0203 0.0
C500 C 0.1497 0.80088 0.0032 0.0
C501 C 0.15457 0.82168 0.03142 0.0
C502 C 0.1782 0.82002 0.05536 0.0
C503 C 0.19721 0.79865 0.0498 0.0
H504 H 0.62914 0.6163 0.47639 0.0
H505 H 0.62421 0.61089 0.60413 0.0
H506 H 0.66313 0.65255 0.4827 0.0
H507 H 0.65879 0.64694 0.61036 0.0
H508 H 0.70321 0.73023 0.60487 0.0
H509 H 0.66706 0.69574 0.59937 0.0
H510 H 0.71063 0.65689 0.50274 0.0
H511 H 0.74666 0.69134 0.50818 0.0
C512 C 0.63529 0.62282 0.50587 0.0
C513 C 0.62403 0.6105 0.53977 0.0
C514 C 0.65494 0.64354 0.50946 0.0
C515 C 0.66392 0.65248 0.54702 0.0
C516 C 0.65218 0.64067 0.58098 0.0
C517 C 0.63243 0.61992 0.5774 0.0
C518 C 0.70514 0.71422 0.58261 0.0
C519 C 0.7278 0.7136 0.55688 0.0
C520 C 0.68442 0.69444 0.57948 0.0
C521 C 0.68588 0.67359 0.55054 0.0
C522 C 0.70858 0.67296 0.52489 0.0
C523 C 0.72926 0.69272 0.52799 0.0
H524 H 0.40842 0.6247 0.46618 0.0
H525 H 0.40268 0.62217 0.59406 0.0
H526 H 0.37468 0.6613 0.46436 0.0
H527 H 0.36877 0.65951 0.59208 0.0
H528 H 0.28647 0.70614 0.56083 0.0
H529 H 0.32099 0.66993 0.56907 0.0
H530 H 0.3724 0.70975 0.48263 0.0
H531 H 0.33809 0.74575 0.47444 0.0
C532 C 0.40002 0.63196 0.49403 0.0
C533 C 0.40848 0.6205 0.53033 0.0
C534 C 0.38074 0.65316 0.49294 0.0
C535 C 0.36929 0.66361 0.52808 0.0
C536 C 0.3772 0.65185 0.56447 0.0
C537 C 0.39667 0.63054 0.5656 0.0
C538 C 0.30532 0.70733 0.54401 0.0
C539 C 0.30935 0.72863 0.51655 0.0
C540 C 0.32509 0.68659 0.54875 0.0
C541 C 0.34927 0.68675 0.52612 0.0
C542 C 0.35371 0.70865 0.49986 0.0
C543 C 0.33402 0.72929 0.49512 0.0
H544 H 0.39216 0.38959 0.45961 0.0
H545 H 0.38035 0.39796 0.58615 0.0
H546 H 0.35709 0.35429 0.45705 0.0
H547 H 0.34472 0.36257 0.58331 0.0
H548 H 0.29889 0.27924 0.56203 0.0
H549 H 0.33592 0.31286 0.56927 0.0
H550 H 0.30716 0.35452 0.46412 0.0
H551 H 0.27029 0.32123 0.45701 0.0
C552 C 0.38218 0.38384 0.48699 0.0
C553 C 0.3889 0.39689 0.52305 0.0
C554 C 0.36192 0.36367 0.48543 0.0
C555 C 0.34778 0.35597 0.51984 0.0
C556 C 0.35527 0.36806 0.55628 0.0
C557 C 0.37565 0.38836 0.55788 0.0
C558 C 0.30035 0.29575 0.54071 0.0
C559 C 0.28182 0.29736 0.50866 0.0
C560 C 0.32156 0.31497 0.54486 0.0
C561 C 0.32469 0.33612 0.51698 0.0
C562 C 0.30573 0.33808 0.48557 0.0
C563 C 0.28458 0.31898 0.48148 0.0
H564 H 0.60064 0.38583 0.59228 0.0
H565 H 0.59673 0.38821 0.46419 0.0
H566 H 0.63331 0.3475 0.58827 0.0
H567 H 0.62927 0.35056 0.4604 0.0
H568 H 0.66206 0.26413 0.46492 0.0
H569 H 0.62935 0.30145 0.47444 0.0
H570 H 0.68097 0.33594 0.56637 0.0
H571 H 0.7139 0.29843 0.55677 0.0
C572 C 0.60682 0.37835 0.56335 0.0
C573 C 0.59584 0.39003 0.52859 0.0
C574 C 0.62559 0.35645 0.56106 0.0
C575 C 0.63362 0.34574 0.52401 0.0
C576 C 0.62308 0.35787 0.48942 0.0
C577 C 0.60449 0.37966 0.49166 0.0
C578 C 0.66653 0.27971 0.48707 0.0
C579 C 0.6908 0.27847 0.50969 0.0
C580 C 0.64776 0.30111 0.49256 0.0
C581 C 0.65272 0.32189 0.52081 0.0
C582 C 0.67648 0.32018 0.54451 0.0
C583 C 0.69534 0.29869 0.53899 0.0
H584 H 0.067 0.07627 0.13703 0.0
H585 H 0.98897 0.07949 0.19722 0.0
H586 H 0.08991 0.0926 0.19738 0.0
H587 H 0.01165 0.09558 0.25702 0.0
H588 H 0.05298 0.15359 0.34174 0.0
H589 H 0.03411 0.13763 0.27881 0.0
H590 H 0.10085 0.07952 0.26732 0.0
H591 H 0.11992 0.09573 0.33057 0.0
C592 C 0.05479 0.08009 0.16309 0.0
C593 C 0.02616 0.07659 0.16208 0.0
C594 C 0.0679 0.0895 0.19771 0.0
C595 C 0.05255 0.09576 0.23186 0.0
C596 C 0.02403 0.09159 0.231 0.0
C597 C 0.01104 0.0822 0.19664 0.0
C598 C 0.06364 0.13739 0.32583 0.0
C599 C 0.08773 0.12566 0.34141 0.0
C600 C 0.05282 0.12822 0.28977 0.0
C601 C 0.06574 0.10699 0.26835 0.0
C602 C 0.09047 0.09597 0.28305 0.0
C603 C 0.10137 0.10524 0.31925 0.0
H604 H 0.93519 0.06481 0.13901 0.0
H605 H 0.88671 0.99291 0.16459 0.0
H606 H 0.91785 0.08702 0.19912 0.0
H607 H 0.86838 0.01541 0.22294 0.0
H608 H 0.87142 0.04447 0.35006 0.0
H609 H 0.88616 0.02601 0.28675 0.0
H610 H 0.8785 0.10657 0.23428 0.0
H611 H 0.8648 0.12544 0.29877 0.0
C612 C 0.92078 0.05381 0.15717 0.0
C613 C 0.9131 0.02676 0.14748 0.0
C614 C 0.91054 0.06666 0.19145 0.0
C615 C 0.89213 0.05278 0.21643 0.0
C616 C 0.88317 0.02642 0.20518 0.0
C617 C 0.89359 0.01357 0.1714 0.0
C618 C 0.87311 0.05839 0.32521 0.0
C619 C 0.86712 0.0865 0.32967 0.0
C620 C 0.88122 0.0477 0.28862 0.0
C621 C 0.88335 0.06473 0.25518 0.0
C622 C 0.87724 0.09289 0.25945 0.0
C623 C 0.86912 0.10365 0.29629 0.0
H624 H 1.00094 0.93127 0.19928 0.0
H625 H 0.9304 0.92969 0.12151 0.0
H626 H 0.97274 0.91467 0.25349 0.0
H627 H 0.90199 0.91329 0.17594 0.0
H628 H 0.87471 0.84816 0.27006 0.0
H629 H 0.89902 0.86975 0.21536 0.0
H630 H 0.93399 0.92902 0.29668 0.0
H631 H 0.9093 0.90786 0.35133 0.0
C632 C 0.97932 0.92762 0.19374 0.0
C633 C 0.96791 0.93182 0.15585 0.0
C634 C 0.96312 0.91827 0.22495 0.0
C635 C 0.93513 0.91266 0.21902 0.0
C636 C 0.92356 0.91725 0.18135 0.0
C637 C 0.93978 0.92686 0.15017 0.0
C638 C 0.88717 0.86609 0.27624 0.0
C639 C 0.89017 0.8761 0.31526 0.0
C640 C 0.90112 0.87845 0.24484 0.0
C641 C 0.91852 0.901 0.25175 0.0
C642 C 0.92104 0.91141 0.29053 0.0
C643 C 0.90696 0.89919 0.32186 0.0
H644 H 0.10394 0.016 0.18723 0.0
H645 H 0.06366 0.94205 0.14616 0.0
H646 H 0.11943 0.99226 0.24614 0.0
H647 H 0.0786 0.9183 0.20642 0.0
H648 H 0.13317 0.88015 0.30683 0.0
H649 H 0.11945 0.90098 0.24366 0.0
H650 H 0.09783 0.97587 0.30557 0.0
H651 H 0.11233 0.95562 0.36785 0.0
C652 C 0.09829 0.99462 0.1907 0.0
C653 C 0.08212 0.98108 0.16202 0.0
C654 C 0.10708 0.98103 0.22477 0.0
C655 C 0.09987 0.95351 0.23142 0.0
C656 C 0.08451 0.93953 0.20219 0.0
C657 C 0.07573 0.9532 0.16778 0.0
C658 C 0.12565 0.90112 0.30679 0.0
C659 C 0.1238 0.91619 0.34244 0.0
C660 C 0.11754 0.91294 0.27069 0.0
C661 C 0.10766 0.94014 0.26951 0.0
C662 C 0.10569 0.95502 0.30524 0.0
C663 C 0.1137 0.94326 0.34112 0.0
H664 H 0.09188 0.01065 0.86134 0.0
H665 H 0.11068 0.94154 0.93689 0.0
H666 H 0.1079 0.9847 0.80392 0.0
H667 H 0.12746 0.91589 0.87969 0.0
H668 H 0.1324 0.8679 0.7636 0.0
H669 H 0.11344 0.8933 0.81976 0.0
H670 H 0.14969 0.96807 0.77543 0.0
H671 H 0.16822 0.9427 0.71903 0.0
C672 C 0.0995 0.98994 0.86573 0.0
C673 C 0.1001 0.97823 0.90376 0.0
C674 C 0.10885 0.9751 0.83281 0.0
C675 C 0.11914 0.94822 0.8371 0.0
C676 C 0.11939 0.9364 0.87512 0.0
C677 C 0.10992 0.9512 0.90802 0.0
C678 C 0.13637 0.88975 0.76596 0.0
C679 C 0.15182 0.90328 0.73687 0.0
C680 C 0.12555 0.90432 0.79819 0.0
C681 C 0.13003 0.93277 0.80224 0.0
C682 C 0.14539 0.94629 0.77298 0.0
C683 C 0.15608 0.93174 0.74064 0.0
H684 H 0.00748 0.07944 0.86281 0.0
H685 H 0.06516 0.11842 0.94287 0.0
H686 H 0.03309 0.09688 0.80636 0.0
H687 H 0.09092 0.13562 0.88627 0.0
H688 H 0.10812 0.18877 0.7761 0.0
H689 H 0.08422 0.16972 0.83307 0.0
H690 H 0.07742 0.09161 0.77243 0.0
H691 H 0.10155 0.11055 0.71552 0.0
C692 C 0.02573 0.09156 0.86839 0.0
C693 C 0.03417 0.09766 0.90737 0.0
C694 C 0.04048 0.10145 0.836 0.0
C695 C 0.06397 0.11773 0.84182 0.0
C696 C 0.07268 0.12345 0.88081 0.0
C697 C 0.058 0.11345 0.91323 0.0
C698 C 0.10181 0.16744 0.77505 0.0
C699 C 0.10679 0.15119 0.7412 0.0
C700 C 0.08811 0.15653 0.80773 0.0
C701 C 0.07898 0.12913 0.80732 0.0
C702 C 0.08391 0.11289 0.77348 0.0
C703 C 0.09768 0.12377 0.74083 0.0
H704 H 0.87126 0.05185 0.92719 0.0
H705 H 0.92002 1.00104 0.84886 0.0
H706 H 0.85304 0.07664 0.87023 0.0
H707 H 0.90146 0.0257 0.79177 0.0
H708 H 0.88288 0.09611 0.70383 0.0
H709 H 0.9023 0.07112 0.76001 0.0
H710 H 0.82217 0.06801 0.81416 0.0
H711 H 0.80274 0.09282 0.75803 0.0
C712 C 0.8781 0.04595 0.89782 0.0
C713 C 0.89704 0.02439 0.8926 0.0
C714 C 0.86752 0.06007 0.86514 0.0
C715 C 0.87566 0.05304 0.82642 0.0
C716 C 0.89493 0.03177 0.82121 0.0
C717 C 0.90548 0.01756 0.85394 0.0
C718 C 0.86935 0.08984 0.72752 0.0
C719 C 0.84126 0.09661 0.72648 0.0
C720 C 0.88049 0.07554 0.75974 0.0
C721 C 0.86382 0.06772 0.79169 0.0
C722 C 0.83569 0.0742 0.7904 0.0
C723 C 0.82455 0.08843 0.7582 0.0
H724 H 0.94455 0.90748 0.91986 0.0
H725 H 0.01479 0.94139 0.85951 0.0
H726 H 0.92479 0.89386 0.85616 0.0
H727 H 0.99477 0.92834 0.79593 0.0
H728 H 0.96783 0.87248 0.69449 0.0
H729 H 0.98605 0.88673 0.75871 0.0
H730 H 0.90475 0.91167 0.79528 0.0
H731 H 0.88649 0.89717 0.73096 0.0
C732 C 0.95566 0.91226 0.89302 0.0
C733 C 0.98135 0.92535 0.89481 0.0
C734 C 0.94426 0.90456 0.85647 0.0
C735 C 0.9583 0.90979 0.82092 0.0
C736 C 0.98366 0.9235 0.82276 0.0
C737 C 0.99506 0.93117 0.85924 0.0
C738 C 0.95387 0.88115 0.71615 0.0
C739 C 0.92573 0.88381 0.70754 0.0
C740 C 0.96431 0.88938 0.75296 0.0
C741 C 0.9469 0.90056 0.78208 0.0
C742 C 0.91869 0.90288 0.77369 0.0
C743 C 0.90821 0.89457 0.73683 0.0
H744 H 0.5678 0.59174 0.62717 0.0
H745 H 0.50346 0.55477 0.69604 0.0
H746 H 0.59336 0.60209 0.68816 0.0
H747 H 0.52843 0.56552 0.75691 0.0
H748 H 0.58861 0.56965 0.85837 0.0
H749 H 0.57057 0.55415 0.79451 0.0
H750 H 0.58624 0.6343 0.74509 0.0
H751 H 0.60407 0.64994 0.80905 0.0
C752 C 0.5595 0.58526 0.65524 0.0
C753 C 0.5339 0.57217 0.65688 0.0
C754 C 0.57388 0.59151 0.69019 0.0
C755 C 0.56294 0.58459 0.72738 0.0
C756 C 0.53762 0.57083 0.72877 0.0
C757 C 0.5232 0.56486 0.69394 0.0
C758 C 0.58822 0.58399 0.83391 0.0
C759 C 0.59748 0.61116 0.83902 0.0
C760 C 0.57795 0.57507 0.79729 0.0
C761 C 0.57679 0.59306 0.76484 0.0
C762 C 0.58713 0.61986 0.76941 0.0
C763 C 0.59733 0.62883 0.80611 0.0
H764 H 0.45612 0.54968 0.66387 0.0
H765 H 0.37652 0.51506 0.63991 0.0
H766 H 0.43775 0.57445 0.72087 0.0
H767 H 0.35764 0.53998 0.69668 0.0
H768 H 0.34488 0.55622 0.82962 0.0
H769 H 0.36024 0.53696 0.76681 0.0
H770 H 0.40827 0.60999 0.74547 0.0
H771 H 0.39321 0.629 0.80897 0.0
C772 C 0.43446 0.54835 0.66985 0.0
C773 C 0.41768 0.53107 0.64695 0.0
C774 C 0.42386 0.56232 0.7028 0.0
C775 C 0.39614 0.55924 0.71357 0.0
C776 C 0.37916 0.54254 0.68973 0.0
C777 C 0.38988 0.52842 0.65701 0.0
C778 C 0.35839 0.56835 0.81125 0.0
C779 C 0.36784 0.59413 0.82432 0.0
C780 C 0.36717 0.55733 0.7751 0.0
C781 C 0.38551 0.5719 0.75088 0.0
C782 C 0.39448 0.598 0.76357 0.0
C783 C 0.38582 0.60893 0.79993 0.0
H784 H 0.50632 0.42642 0.69632 0.0
H785 H 0.43242 0.4332 0.62604 0.0
H786 H 0.47993 0.40752 0.75065 0.0
H787 H 0.406 0.41335 0.67985 0.0
H788 H 0.3632 0.39809 0.79885 0.0
H789 H 0.38851 0.4202 0.74539 0.0
H790 H 0.45739 0.36608 0.76728 0.0
H791 H 0.43233 0.34456 0.8211 0.0
C792 C 0.48439 0.42383 0.69232 0.0
C793 C 0.47152 0.43118 0.65648 0.0
C794 C 0.46926 0.41278 0.72348 0.0
C795 C 0.44083 0.40849 0.71959 0.0
C796 C 0.42781 0.41652 0.68412 0.0
C797 C 0.44299 0.42782 0.65303 0.0
C798 C 0.38371 0.39088 0.79204 0.0
C799 C 0.39583 0.36969 0.81432 0.0
C800 C 0.39822 0.40351 0.76135 0.0
C801 C 0.42512 0.39509 0.75207 0.0
C802 C 0.437 0.3736 0.77411 0.0
C803 C 0.4226 0.36115 0.80492 0.0
H804 H 0.58062 0.51842 0.69866 0.0
H805 H 0.5735 0.44139 0.63524 0.0
H806 H 0.59186 0.49376 0.7591 0.0
H807 H 0.58476 0.41648 0.69629 0.0
H808 H 0.64374 0.39201 0.80363 0.0
H809 H 0.62687 0.41174 0.74148 0.0
H810 H 0.56952 0.46203 0.80702 0.0
H811 H 0.58591 0.44211 0.86888 0.0
C812 C 0.58136 0.49615 0.69763 0.0
C813 C 0.57625 0.48183 0.66206 0.0
C814 C 0.5876 0.48201 0.7324 0.0
C815 C 0.58914 0.45317 0.73248 0.0
C816 C 0.58383 0.43873 0.69702 0.0
C817 C 0.57722 0.45295 0.66216 0.0
C818 C 0.62718 0.40689 0.80472 0.0
C819 C 0.6165 0.41579 0.84134 0.0
C820 C 0.61752 0.41817 0.76911 0.0
C821 C 0.59709 0.43865 0.76945 0.0
C822 C 0.58563 0.44665 0.80589 0.0
C823 C 0.59513 0.43531 0.84134 0.0
H824 H 0.55741 0.45565 0.38419 0.0
H825 H 0.62595 0.5117 0.378 0.0
H826 H 0.57693 0.42854 0.33015 0.0
H827 H 0.64521 0.48485 0.32361 0.0
H828 H 0.68691 0.4132 0.2594 0.0
H829 H 0.66661 0.44015 0.31294 0.0
H830 H 0.58652 0.43075 0.2591 0.0
H831 H 0.60671 0.40296 0.20623 0.0
C832 C 0.57653 0.4623 0.37116 0.0
C833 C 0.59015 0.4858 0.38552 0.0
C834 C 0.58767 0.44682 0.34005 0.0
C835 C 0.61269 0.45447 0.32266 0.0
C836 C 0.62612 0.47815 0.33675 0.0
C837 C 0.61498 0.49364 0.36779 0.0
C838 C 0.66493 0.41665 0.25918 0.0
C839 C 0.64843 0.40588 0.22856 0.0
C840 C 0.65333 0.43237 0.28963 0.0
C841 C 0.62495 0.43768 0.29024 0.0
C842 C 0.60842 0.42685 0.25969 0.0
C843 C 0.62004 0.41117 0.22917 0.0
H844 H 0.57085 0.60482 0.43574 0.0
H845 H 0.50433 0.57895 0.35911 0.0
H846 H 0.59574 0.62183 0.37842 0.0
H847 H 0.52955 0.59528 0.30166 0.0
H848 H 0.5669 0.65748 0.21578 0.0
H849 H 0.54279 0.63804 0.27224 0.0
H850 H 0.61981 0.60814 0.31953 0.0
H851 H 0.64393 0.62796 0.26325 0.0
C852 C 0.56166 0.60248 0.40662 0.0
C853 C 0.53551 0.59068 0.40207 0.0
C854 C 0.57601 0.61211 0.37368 0.0
C855 C 0.56461 0.61008 0.33536 0.0
C856 C 0.53874 0.59765 0.33077 0.0
C857 C 0.52434 0.58811 0.36372 0.0
C858 C 0.57864 0.64654 0.23806 0.0
C859 C 0.60733 0.64431 0.23507 0.0
C860 C 0.56482 0.63533 0.27042 0.0
C861 C 0.57933 0.62147 0.30049 0.0
C862 C 0.60802 0.61904 0.29727 0.0
C863 C 0.62185 0.63038 0.265 0.0
H864 H 0.45718 0.55218 0.37499 0.0
H865 H 0.39114 0.49315 0.36794 0.0
H866 H 0.43628 0.57826 0.321 0.0
H867 H 0.37057 0.51894 0.31369 0.0
H868 H 0.32468 0.58937 0.25316 0.0
H869 H 0.34706 0.56275 0.30509 0.0
H870 H 0.42568 0.57617 0.24972 0.0
H871 H 0.40334 0.60364 0.19832 0.0
C872 C 0.43834 0.54464 0.36174 0.0
C873 C 0.42574 0.52068 0.376 0.0
C874 C 0.42643 0.55953 0.33066 0.0
C875 C 0.40164 0.55079 0.3132 0.0
C876 C 0.38941 0.5265 0.32693 0.0
C877 C 0.40131 0.51162 0.35791 0.0
C878 C 0.34677 0.58686 0.25222 0.0
C879 C 0.36222 0.59872 0.22164 0.0
C880 C 0.35957 0.57131 0.28175 0.0
C881 C 0.38816 0.56724 0.2815 0.0
C882 C 0.40365 0.5791 0.25094 0.0
C883 C 0.39082 0.59459 0.22128 0.0
H884 H 0.44103 0.40397 0.41986 0.0
H885 H 0.50585 0.44604 0.35765 0.0
H886 H 0.4194 0.3923 0.35658 0.0
H887 H 0.48451 0.43397 0.29456 0.0
H888 H 0.42684 0.4283 0.18881 0.0
H889 H 0.44442 0.44293 0.25329 0.0
H890 H 0.42882 0.36194 0.30001 0.0
H891 H 0.41126 0.34727 0.23545 0.0
C892 C 0.45062 0.41082 0.39273 0.0
C893 C 0.47526 0.42581 0.39382 0.0
C894 C 0.43829 0.40399 0.35646 0.0
C895 C 0.45029 0.41207 0.32049 0.0
C896 C 0.47456 0.42766 0.32169 0.0
C897 C 0.48689 0.43446 0.35791 0.0
C898 C 0.42727 0.41356 0.21278 0.0
C899 C 0.4178 0.38654 0.20685 0.0
C900 C 0.43732 0.42197 0.24976 0.0
C901 C 0.43813 0.40358 0.28178 0.0
C902 C 0.42815 0.37673 0.27612 0.0
C903 C 0.4181 0.36831 0.23909 0.0
loop_
_geom_bond_atom_site_label_1
_geom_bond_atom_site_label_2
_geom_bond_distance
_geom_bond_site_symmetry_2
_ccdc_geom_bond_type
Zn0 O2 1.933 1_556 S
Zn0 O20 1.985 . S
Zn0 O31 1.955 . S
Zn1 O2 1.911 . S
Zn1 O21 1.970 . S
Zn1 O37 1.945 . S
Zn1 O44 1.981 . S
O2 Zn0 1.933 1_554 S
O2 Zn1 1.911 . S
O2 H3 0.841 1_655 S
H3 O2 0.841 1_455 S
C4 O5 1.246 . S
C4 O33 1.276 1_545 S
O5 C4 1.246 . S
Zn6 O8 1.911 . S
Zn6 O23 1.970 . S
Zn6 O40 1.945 . S
Zn6 O47 1.981 . S
Zn7 O8 1.933 1_556 S
Zn7 O22 1.985 . S
Zn7 O29 1.955 . S
O8 Zn6 1.911 . S
O8 Zn7 1.933 1_554 S
O8 H9 0.841 1_455 S
H9 O8 0.841 1_655 S
Zn10 O11 1.933 1_556 S
Zn10 O24 1.985 . S
Zn10 O33 1.955 . S
O11 Zn10 1.933 1_554 S
O11 Zn12 1.911 . S
O11 H13 0.841 1_565 S
Zn12 O11 1.911 . S
Zn12 O25 1.970 . S
Zn12 O41 1.981 . S
Zn12 O43 1.945 . S
H13 O11 0.841 1_545 S
Zn14 O15 1.933 1_556 S
Zn14 O27 1.985 . S
Zn14 O35 1.955 . S
O15 Zn14 1.933 1_554 S
O15 H16 0.841 1_545 S
O15 Zn17 1.911 . S
H16 O15 0.841 1_565 S
Zn17 O15 1.911 . S
Zn17 O28 1.970 . S
Zn17 O38 1.981 . S
Zn17 O46 1.945 . S
C18 O19 1.246 . S
C18 O35 1.276 1_565 S
O19 C18 1.246 . S
O20 Zn0 1.985 . S
O20 C30 1.245 1_556 S
O21 Zn1 1.970 . S
O21 C30 1.263 . S
O22 Zn7 1.985 . S
O22 C34 1.245 1_556 S
O23 Zn6 1.970 . S
O23 C34 1.263 . S
O24 Zn10 1.985 . S
O24 C39 1.245 1_556 S
O25 Zn12 1.970 . S
O25 C39 1.263 . S
C26 O37 1.262 1_455 S
C26 O38 1.245 . S
O27 Zn14 1.985 . S
O27 C45 1.245 1_556 S
O28 Zn17 1.970 . S
O28 C45 1.263 . S
O29 Zn7 1.955 . S
O29 C48 1.276 1_455 S
C30 O20 1.245 1_554 S
C30 O21 1.263 . S
O31 Zn0 1.955 . S
O31 C50 1.276 1_655 S
C32 O40 1.262 1_655 S
C32 O41 1.245 . S
O33 C4 1.276 1_565 S
O33 Zn10 1.955 . S
C34 O22 1.245 1_554 S
C34 O23 1.263 . S
O35 Zn14 1.955 . S
O35 C18 1.276 1_545 S
C36 O43 1.262 1_545 S
C36 O44 1.245 . S
O37 Zn1 1.945 . S
O37 C26 1.262 1_655 S
O38 Zn17 1.981 . S
O38 C26 1.245 . S
C39 O24 1.245 1_554 S
C39 O25 1.263 . S
O40 Zn6 1.945 . S
O40 C32 1.262 1_455 S
O41 Zn12 1.981 . S
O41 C32 1.245 . S
C42 O46 1.262 1_565 S
C42 O47 1.245 . S
O43 Zn12 1.945 . S
O43 C36 1.262 1_565 S
O44 Zn1 1.981 . S
O44 C36 1.245 . S
C45 O27 1.245 1_554 S
C45 O28 1.263 . S
O46 Zn17 1.945 . S
O46 C42 1.262 1_545 S
O47 Zn6 1.981 . S
O47 C42 1.245 . S
C48 O29 1.276 1_655 S
C48 O49 1.246 . S
O49 C48 1.246 . S
C50 O31 1.276 1_455 S
C50 O51 1.246 . S
O51 C50 1.246 . S
Zn52 O54 1.933 . S
Zn52 O72 1.985 . S
Zn52 O83 1.955 . S
Zn53 O54 1.911 . S
Zn53 O73 1.970 . S
Zn53 O89 1.945 . S
Zn53 O96 1.981 . S
O54 Zn52 1.933 . S
O54 Zn53 1.911 . S
O54 H55 0.841 . S
H55 O54 0.841 . S
C56 O57 1.246 . S
C56 O85 1.276 . S
O57 C56 1.246 . S
Zn58 O60 1.911 . S
Zn58 O75 1.970 . S
Zn58 O92 1.945 . S
Zn58 O99 1.981 . S
Zn59 O60 1.933 . S
Zn59 O74 1.985 . S
Zn59 O81 1.955 . S
O60 Zn58 1.911 . S
O60 Zn59 1.933 . S
O60 H61 0.841 . S
H61 O60 0.841 . S
Zn62 O63 1.933 . S
Zn62 O76 1.985 . S
Zn62 O85 1.955 . S
O63 Zn62 1.933 . S
O63 Zn64 1.911 . S
O63 H65 0.841 . S
Zn64 O63 1.911 . S
Zn64 O77 1.970 . S
Zn64 O93 1.981 . S
Zn64 O95 1.945 . S
H65 O63 0.841 . S
Zn66 O67 1.933 . S
Zn66 O79 1.985 . S
Zn66 O87 1.955 . S
O67 Zn66 1.933 . S
O67 H68 0.841 . S
O67 Zn69 1.911 . S
H68 O67 0.841 . S
Zn69 O67 1.911 . S
Zn69 O80 1.970 . S
Zn69 O90 1.981 . S
Zn69 O98 1.945 . S
C70 O71 1.246 . S
C70 O87 1.276 . S
O71 C70 1.246 . S
O72 Zn52 1.985 . S
O72 C82 1.245 . S
O73 Zn53 1.970 . S
O73 C82 1.263 . S
O74 Zn59 1.985 . S
O74 C86 1.245 . S
O75 Zn58 1.970 . S
O75 C86 1.263 . S
O76 Zn62 1.985 . S
O76 C91 1.245 . S
O77 Zn64 1.970 . S
O77 C91 1.263 . S
C78 O89 1.262 . S
C78 O90 1.245 . S
O79 Zn66 1.985 . S
O79 C97 1.245 . S
O80 Zn69 1.970 . S
O80 C97 1.263 . S
O81 Zn59 1.955 . S
O81 C100 1.276 . S
C82 O72 1.245 . S
C82 O73 1.263 . S
O83 Zn52 1.955 . S
O83 C102 1.276 . S
C84 O92 1.262 . S
C84 O93 1.245 . S
O85 C56 1.276 . S
O85 Zn62 1.955 . S
C86 O74 1.245 . S
C86 O75 1.263 . S
O87 Zn66 1.955 . S
O87 C70 1.276 . S
C88 O95 1.262 . S
C88 O96 1.245 . S
O89 Zn53 1.945 . S
O89 C78 1.262 . S
O90 Zn69 1.981 . S
O90 C78 1.245 . S
C91 O76 1.245 . S
C91 O77 1.263 . S
O92 Zn58 1.945 . S
O92 C84 1.262 . S
O93 Zn64 1.981 . S
O93 C84 1.245 . S
C94 O98 1.262 . S
C94 O99 1.245 . S
O95 Zn64 1.945 . S
O95 C88 1.262 . S
O96 Zn53 1.981 . S
O96 C88 1.245 . S
C97 O79 1.245 . S
C97 O80 1.263 . S
O98 Zn69 1.945 . S
O98 C94 1.262 . S
O99 Zn58 1.981 . S
O99 C94 1.245 . S
C100 O81 1.276 . S
C100 O101 1.246 . S
O101 C100 1.246 . S
C102 O83 1.276 . S
C102 O103 1.246 . S
O103 C102 1.246 . S
C104 C105 1.264 . S
C104 C109 1.479 . S
C104 C114 1.465 . S
C105 C104 1.264 . S
C105 C107 1.339 . S
C105 H132 0.931 . S
C106 C107 1.395 . S
C106 C108 1.320 . S
C107 C105 1.339 . S
C107 C106 1.395 . S
C107 H133 0.929 . S
C108 C106 1.320 . S
C108 C109 1.405 . S
C108 H134 0.930 . S
C109 C104 1.479 . S
C109 C108 1.405 . S
C109 H135 0.931 . S
U110 O111 2.454 1_554 S
U110 O112 2.458 . S
U110 C113 2.984 . S
U110 C114 2.847 1_554 S
U110 C127 2.882 . S
U110 O128 2.441 1_554 S
U110 O129 2.420 1_554 S
U110 O130 2.455 . S
U110 O131 2.449 . S
O111 U110 2.454 1_556 S
O111 C113 1.353 1_556 S
O112 U110 2.458 . S
O112 C113 1.286 . S
C113 U110 2.984 . S
C113 O111 1.353 1_554 S
C113 O112 1.286 . S
C113 C115 1.363 . S
C114 C104 1.465 . S
C114 U110 2.847 1_556 S
C114 O128 1.249 . S
C114 O129 1.202 . S
C115 C113 1.363 . S
C115 C117 1.408 1_554 S
C115 C120 1.342 . S
C116 C117 1.310 . S
C116 C119 1.461 1_556 S
C116 H136 0.932 . S
C117 C115 1.408 1_556 S
C117 C116 1.310 . S
C117 H137 0.930 . S
C118 C119 1.474 . S
C118 C120 1.285 . S
C118 H138 0.929 . S
C119 C116 1.461 1_554 S
C119 C118 1.474 . S
C120 C115 1.342 . S
C120 C118 1.285 . S
C120 H139 0.930 . S
C121 C124 1.424 . S
C121 C126 1.245 . S
C121 C127 1.428 . S
C122 C125 1.260 . S
C122 C126 1.477 . S
C122 H140 0.932 . S
C123 C124 1.384 . S
C123 C125 1.479 . S
C123 H141 0.929 . S
C124 C121 1.424 . S
C124 C123 1.384 . S
C124 H142 0.928 . S
C125 C122 1.260 . S
C125 C123 1.479 . S
C126 C121 1.245 . S
C126 C122 1.477 . S
C126 H143 0.932 . S
C127 U110 2.882 . S
C127 C121 1.428 . S
C127 O130 1.301 . S
C127 O131 1.282 . S
O128 U110 2.441 1_556 S
O128 C114 1.249 . S
O129 U110 2.420 1_556 S
O129 C114 1.202 . S
O130 U110 2.455 . S
O130 C127 1.301 . S
O131 U110 2.449 . S
O131 C127 1.282 . S
H132 C105 0.931 . S
H133 C107 0.929 . S
H134 C108 0.930 . S
H135 C109 0.931 . S
H136 C116 0.932 . S
H137 C117 0.930 . S
H138 C118 0.929 . S
H139 C120 0.930 . S
H140 C122 0.932 . S
H141 C123 0.929 . S
H142 C124 0.928 . S
H143 C126 0.932 . S
C144 C145 1.264 . S
C144 C149 1.479 . S
C144 C154 1.465 . S
C145 C144 1.264 . S
C145 C147 1.339 . S
C145 H172 0.931 . S
C146 C147 1.395 . S
C146 C148 1.320 . S
C147 C145 1.339 . S
C147 C146 1.395 . S
C147 H173 0.929 . S
C148 C146 1.320 . S
C148 C149 1.405 . S
C148 H174 0.930 . S
C149 C144 1.479 . S
C149 C148 1.405 . S
C149 H175 0.931 . S
U150 O151 2.454 . S
U150 O152 2.458 1_554 S
U150 C153 2.984 . S
U150 C154 2.847 . S
U150 C167 2.882 1_554 S
U150 O168 2.441 . S
U150 O169 2.420 . S
U150 O170 2.455 1_554 S
U150 O171 2.449 1_554 S
O151 U150 2.454 . S
O151 C153 1.353 . S
O152 U150 2.458 1_556 S
O152 C153 1.286 1_556 S
C153 U150 2.984 . S
C153 O151 1.353 . S
C153 O152 1.286 1_554 S
C153 C155 1.363 . S
C154 C144 1.465 . S
C154 U150 2.847 . S
C154 O168 1.249 . S
C154 O169 1.202 . S
C155 C153 1.363 . S
C155 C157 1.408 . S
C155 C160 1.342 1_554 S
C156 C157 1.310 . S
C156 C159 1.461 . S
C156 H176 0.932 . S
C157 C155 1.408 . S
C157 C156 1.310 . S
C157 H177 0.930 . S
C158 C159 1.474 1_556 S
C158 C160 1.285 . S
C158 H178 0.929 . S
C159 C156 1.461 . S
C159 C158 1.474 1_554 S
C160 C155 1.342 1_556 S
C160 C158 1.285 . S
C160 H179 0.930 . S
C161 C164 1.424 . S
C161 C166 1.245 . S
C161 C167 1.428 . S
C162 C165 1.260 . S
C162 C166 1.477 . S
C162 H180 0.932 . S
C163 C164 1.384 . S
C163 C165 1.479 . S
C163 H181 0.929 . S
C164 C161 1.424 . S
C164 C163 1.384 . S
C164 H182 0.928 . S
C165 C162 1.260 . S
C165 C163 1.479 . S
C166 C161 1.245 . S
C166 C162 1.477 . S
C166 H183 0.932 . S
C167 U150 2.882 1_556 S
C167 C161 1.428 . S
C167 O170 1.301 . S
C167 O171 1.282 . S
O168 U150 2.441 . S
O168 C154 1.249 . S
O169 U150 2.420 . S
O169 C154 1.202 . S
O170 U150 2.455 1_556 S
O170 C167 1.301 . S
O171 U150 2.449 1_556 S
O171 C167 1.282 . S
H172 C145 0.931 . S
H173 C147 0.929 . S
H174 C148 0.930 . S
H175 C149 0.931 . S
H176 C156 0.932 . S
H177 C157 0.930 . S
H178 C158 0.929 . S
H179 C160 0.930 . S
H180 C162 0.932 . S
H181 C163 0.929 . S
H182 C164 0.928 . S
H183 C166 0.932 . S
C184 C185 1.264 . S
C184 C189 1.479 . S
C184 C194 1.465 . S
C185 C184 1.264 . S
C185 C187 1.339 . S
C185 H212 0.931 . S
C186 C187 1.395 . S
C186 C188 1.320 . S
C187 C185 1.339 . S
C187 C186 1.395 . S
C187 H213 0.929 . S
C188 C186 1.320 . S
C188 C189 1.405 . S
C188 H214 0.930 . S
C189 C184 1.479 . S
C189 C188 1.405 . S
C189 H215 0.931 . S
U190 O191 2.454 . S
U190 O192 2.458 1_554 S
U190 C193 2.984 . S
U190 C194 2.847 . S
U190 C207 2.882 1_554 S
U190 O208 2.441 . S
U190 O209 2.420 . S
U190 O210 2.455 1_554 S
U190 O211 2.449 1_554 S
O191 U190 2.454 . S
O191 C193 1.353 . S
O192 U190 2.458 1_556 S
O192 C193 1.286 1_556 S
C193 U190 2.984 . S
C193 O191 1.353 . S
C193 O192 1.286 1_554 S
C193 C195 1.363 . S
C194 C184 1.465 . S
C194 U190 2.847 . S
C194 O208 1.249 . S
C194 O209 1.202 . S
C195 C193 1.363 . S
C195 C197 1.408 . S
C195 C200 1.342 1_554 S
C196 C197 1.310 . S
C196 C199 1.461 . S
C196 H216 0.932 . S
C197 C195 1.408 . S
C197 C196 1.310 . S
C197 H217 0.930 . S
C198 C199 1.474 1_556 S
C198 C200 1.285 . S
C198 H218 0.929 . S
C199 C196 1.461 . S
C199 C198 1.474 1_554 S
C200 C195 1.342 1_556 S
C200 C198 1.285 . S
C200 H219 0.930 . S
C201 C204 1.424 . S
C201 C206 1.245 . S
C201 C207 1.428 . S
C202 C205 1.260 . S
C202 C206 1.477 . S
C202 H220 0.932 . S
C203 C204 1.384 . S
C203 C205 1.479 . S
C203 H221 0.929 . S
C204 C201 1.424 . S
C204 C203 1.384 . S
C204 H222 0.928 . S
C205 C202 1.260 . S
C205 C203 1.479 . S
C206 C201 1.245 . S
C206 C202 1.477 . S
C206 H223 0.932 . S
C207 U190 2.882 1_556 S
C207 C201 1.428 . S
C207 O210 1.301 . S
C207 O211 1.282 . S
O208 U190 2.441 . S
O208 C194 1.249 . S
O209 U190 2.420 . S
O209 C194 1.202 . S
O210 U190 2.455 1_556 S
O210 C207 1.301 . S
O211 U190 2.449 1_556 S
O211 C207 1.282 . S
H212 C185 0.931 . S
H213 C187 0.929 . S
H214 C188 0.930 . S
H215 C189 0.931 . S
H216 C196 0.932 . S
H217 C197 0.930 . S
H218 C198 0.929 . S
H219 C200 0.930 . S
H220 C202 0.932 . S
H221 C203 0.929 . S
H222 C204 0.928 . S
H223 C206 0.932 . S
C224 C225 1.264 . S
C224 C229 1.479 . S
C224 C234 1.465 . S
C225 C224 1.264 . S
C225 C227 1.339 . S
C225 H252 0.931 . S
C226 C227 1.395 . S
C226 C228 1.320 . S
C227 C225 1.339 . S
C227 C226 1.395 . S
C227 H253 0.929 . S
C228 C226 1.320 . S
C228 C229 1.405 . S
C228 H254 0.930 . S
C229 C224 1.479 . S
C229 C228 1.405 . S
C229 H255 0.931 . S
U230 O231 2.454 . S
U230 O232 2.458 1_554 S
U230 C233 2.984 . S
U230 C234 2.847 . S
U230 C247 2.882 1_554 S
U230 O248 2.441 . S
U230 O249 2.420 . S
U230 O250 2.455 1_554 S
U230 O251 2.449 1_554 S
O231 U230 2.454 . S
O231 C233 1.353 . S
O232 U230 2.458 1_556 S
O232 C233 1.286 1_556 S
C233 U230 2.984 . S
C233 O231 1.353 . S
C233 O232 1.286 1_554 S
C233 C235 1.363 . S
C234 C224 1.465 . S
C234 U230 2.847 . S
C234 O248 1.249 . S
C234 O249 1.202 . S
C235 C233 1.363 . S
C235 C237 1.408 . S
C235 C240 1.342 1_554 S
C236 C237 1.310 . S
C236 C239 1.461 . S
C236 H256 0.932 . S
C237 C235 1.408 . S
C237 C236 1.310 . S
C237 H257 0.930 . S
C238 C239 1.474 1_556 S
C238 C240 1.285 . S
C238 H258 0.929 . S
C239 C236 1.461 . S
C239 C238 1.474 1_554 S
C240 C235 1.342 1_556 S
C240 C238 1.285 . S
C240 H259 0.930 . S
C241 C244 1.424 . S
C241 C246 1.245 . S
C241 C247 1.428 . S
C242 C245 1.260 . S
C242 C246 1.477 . S
C242 H260 0.932 . S
C243 C244 1.384 . S
C243 C245 1.479 . S
C243 H261 0.929 . S
C244 C241 1.424 . S
C244 C243 1.384 . S
C244 H262 0.928 . S
C245 C242 1.260 . S
C245 C243 1.479 . S
C246 C241 1.245 . S
C246 C242 1.477 . S
C246 H263 0.932 . S
C247 U230 2.882 1_556 S
C247 C241 1.428 . S
C247 O250 1.301 . S
C247 O251 1.282 . S
O248 U230 2.441 . S
O248 C234 1.249 . S
O249 U230 2.420 . S
O249 C234 1.202 . S
O250 U230 2.455 1_556 S
O250 C247 1.301 . S
O251 U230 2.449 1_556 S
O251 C247 1.282 . S
H252 C225 0.931 . S
H253 C227 0.929 . S
H254 C228 0.930 . S
H255 C229 0.931 . S
H256 C236 0.932 . S
H257 C237 0.930 . S
H258 C238 0.929 . S
H259 C240 0.930 . S
H260 C242 0.932 . S
H261 C243 0.929 . S
H262 C244 0.928 . S
H263 C246 0.932 . S
C264 C265 1.264 . S
C264 C269 1.479 . S
C264 C274 1.465 . S
C265 C264 1.264 . S
C265 C267 1.339 . S
C265 H292 0.931 . S
C266 C267 1.395 . S
C266 C268 1.320 . S
C267 C265 1.339 . S
C267 C266 1.395 . S
C267 H293 0.929 . S
C268 C266 1.320 . S
C268 C269 1.405 . S
C268 H294 0.930 . S
C269 C264 1.479 . S
C269 C268 1.405 . S
C269 H295 0.931 . S
U270 O271 2.454 . S
U270 O272 2.458 . S
U270 C273 2.984 . S
U270 C274 2.847 . S
U270 C287 2.882 . S
U270 O288 2.441 . S
U270 O289 2.420 . S
U270 O290 2.455 . S
U270 O291 2.449 . S
O271 U270 2.454 . S
O271 C273 1.353 . S
O272 U270 2.458 . S
O272 C273 1.286 . S
C273 U270 2.984 . S
C273 O271 1.353 . S
C273 O272 1.286 . S
C273 C275 1.363 . S
C274 C264 1.465 . S
C274 U270 2.847 . S
C274 O288 1.249 . S
C274 O289 1.202 . S
C275 C273 1.363 . S
C275 C277 1.408 . S
C275 C280 1.342 . S
C276 C277 1.310 . S
C276 C279 1.461 . S
C276 H296 0.932 . S
C277 C275 1.408 . S
C277 C276 1.310 . S
C277 H297 0.930 . S
C278 C279 1.474 . S
C278 C280 1.285 . S
C278 H298 0.929 . S
C279 C276 1.461 . S
C279 C278 1.474 . S
C280 C275 1.342 . S
C280 C278 1.285 . S
C280 H299 0.930 . S
C281 C284 1.424 . S
C281 C286 1.245 . S
C281 C287 1.428 . S
C282 C285 1.260 . S
C282 C286 1.477 . S
C282 H300 0.932 . S
C283 C284 1.384 . S
C283 C285 1.479 . S
C283 H301 0.929 . S
C284 C281 1.424 . S
C284 C283 1.384 . S
C284 H302 0.928 . S
C285 C282 1.260 . S
C285 C283 1.479 . S
C286 C281 1.245 . S
C286 C282 1.477 . S
C286 H303 0.932 . S
C287 U270 2.882 . S
C287 C281 1.428 . S
C287 O290 1.301 . S
C287 O291 1.282 . S
O288 U270 2.441 . S
O288 C274 1.249 . S
O289 U270 2.420 . S
O289 C274 1.202 . S
O290 U270 2.455 . S
O290 C287 1.301 . S
O291 U270 2.449 . S
O291 C287 1.282 . S
H292 C265 0.931 . S
H293 C267 0.929 . S
H294 C268 0.930 . S
H295 C269 0.931 . S
H296 C276 0.932 . S
H297 C277 0.930 . S
H298 C278 0.929 . S
H299 C280 0.930 . S
H300 C282 0.932 . S
H301 C283 0.929 . S
H302 C284 0.928 . S
H303 C286 0.932 . S
C304 C305 1.264 . S
C304 C309 1.479 . S
C304 C314 1.465 . S
C305 C304 1.264 . S
C305 C307 1.339 . S
C305 H332 0.931 . S
C306 C307 1.395 . S
C306 C308 1.320 . S
C307 C305 1.339 . S
C307 C306 1.395 . S
C307 H333 0.929 . S
C308 C306 1.320 . S
C308 C309 1.405 . S
C308 H334 0.930 . S
C309 C304 1.479 . S
C309 C308 1.405 . S
C309 H335 0.931 . S
U310 O311 2.454 . S
U310 O312 2.458 . S
U310 C313 2.984 . S
U310 C314 2.847 . S
U310 C327 2.882 . S
U310 O328 2.441 . S
U310 O329 2.420 . S
U310 O330 2.455 . S
U310 O331 2.449 . S
O311 U310 2.454 . S
O311 C313 1.353 . S
O312 U310 2.458 . S
O312 C313 1.286 . S
C313 U310 2.984 . S
C313 O311 1.353 . S
C313 O312 1.286 . S
C313 C315 1.363 . S
C314 C304 1.465 . S
C314 U310 2.847 . S
C314 O328 1.249 . S
C314 O329 1.202 . S
C315 C313 1.363 . S
C315 C317 1.408 . S
C315 C320 1.342 . S
C316 C317 1.310 . S
C316 C319 1.461 . S
C316 H336 0.932 . S
C317 C315 1.408 . S
C317 C316 1.310 . S
C317 H337 0.930 . S
C318 C319 1.474 . S
C318 C320 1.285 . S
C318 H338 0.929 . S
C319 C316 1.461 . S
C319 C318 1.474 . S
C320 C315 1.342 . S
C320 C318 1.285 . S
C320 H339 0.930 . S
C321 C324 1.424 . S
C321 C326 1.245 . S
C321 C327 1.428 . S
C322 C325 1.260 . S
C322 C326 1.477 . S
C322 H340 0.932 . S
C323 C324 1.384 . S
C323 C325 1.479 . S
C323 H341 0.929 . S
C324 C321 1.424 . S
C324 C323 1.384 . S
C324 H342 0.928 . S
C325 C322 1.260 . S
C325 C323 1.479 . S
C326 C321 1.245 . S
C326 C322 1.477 . S
C326 H343 0.932 . S
C327 U310 2.882 . S
C327 C321 1.428 . S
C327 O330 1.301 . S
C327 O331 1.282 . S
O328 U310 2.441 . S
O328 C314 1.249 . S
O329 U310 2.420 . S
O329 C314 1.202 . S
O330 U310 2.455 . S
O330 C327 1.301 . S
O331 U310 2.449 . S
O331 C327 1.282 . S
H332 C305 0.931 . S
H333 C307 0.929 . S
H334 C308 0.930 . S
H335 C309 0.931 . S
H336 C316 0.932 . S
H337 C317 0.930 . S
H338 C318 0.929 . S
H339 C320 0.930 . S
H340 C322 0.932 . S
H341 C323 0.929 . S
H342 C324 0.928 . S
H343 C326 0.932 . S
C344 C345 1.264 . S
C344 C349 1.479 . S
C344 C354 1.465 . S
C345 C344 1.264 . S
C345 C347 1.339 . S
C345 H372 0.931 . S
C346 C347 1.395 . S
C346 C348 1.320 . S
C347 C345 1.339 . S
C347 C346 1.395 . S
C347 H373 0.929 . S
C348 C346 1.320 . S
C348 C349 1.405 . S
C348 H374 0.930 . S
C349 C344 1.479 . S
C349 C348 1.405 . S
C349 H375 0.931 . S
U350 O351 2.454 . S
U350 O352 2.458 . S
U350 C353 2.984 . S
U350 C354 2.847 . S
U350 C367 2.882 . S
U350 O368 2.441 . S
U350 O369 2.420 . S
U350 O370 2.455 . S
U350 O371 2.449 . S
O351 U350 2.454 . S
O351 C353 1.353 . S
O352 U350 2.458 . S
O352 C353 1.286 . S
C353 U350 2.984 . S
C353 O351 1.353 . S
C353 O352 1.286 . S
C353 C355 1.363 . S
C354 C344 1.465 . S
C354 U350 2.847 . S
C354 O368 1.249 . S
C354 O369 1.202 . S
C355 C353 1.363 . S
C355 C357 1.408 . S
C355 C360 1.342 . S
C356 C357 1.310 . S
C356 C359 1.461 . S
C356 H376 0.932 . S
C357 C355 1.408 . S
C357 C356 1.310 . S
C357 H377 0.930 . S
C358 C359 1.474 . S
C358 C360 1.285 . S
C358 H378 0.929 . S
C359 C356 1.461 . S
C359 C358 1.474 . S
C360 C355 1.342 . S
C360 C358 1.285 . S
C360 H379 0.930 . S
C361 C364 1.424 . S
C361 C366 1.245 . S
C361 C367 1.428 . S
C362 C365 1.260 . S
C362 C366 1.477 . S
C362 H380 0.932 . S
C363 C364 1.384 . S
C363 C365 1.479 . S
C363 H381 0.929 . S
C364 C361 1.424 . S
C364 C363 1.384 . S
C364 H382 0.928 . S
C365 C362 1.260 . S
C365 C363 1.479 . S
C366 C361 1.245 . S
C366 C362 1.477 . S
C366 H383 0.932 . S
C367 U350 2.882 . S
C367 C361 1.428 . S
C367 O370 1.301 . S
C367 O371 1.282 . S
O368 U350 2.441 . S
O368 C354 1.249 . S
O369 U350 2.420 . S
O369 C354 1.202 . S
O370 U350 2.455 . S
O370 C367 1.301 . S
O371 U350 2.449 . S
O371 C367 1.282 . S
H372 C345 0.931 . S
H373 C347 0.929 . S
H374 C348 0.930 . S
H375 C349 0.931 . S
H376 C356 0.932 . S
H377 C357 0.930 . S
H378 C358 0.929 . S
H379 C360 0.930 . S
H380 C362 0.932 . S
H381 C363 0.929 . S
H382 C364 0.928 . S
H383 C366 0.932 . S
C384 C385 1.264 . S
C384 C389 1.479 . S
C384 C394 1.465 . S
C385 C384 1.264 . S
C385 C387 1.339 . S
C385 H412 0.931 . S
C386 C387 1.395 . S
C386 C388 1.320 . S
C387 C385 1.339 . S
C387 C386 1.395 . S
C387 H413 0.929 . S
C388 C386 1.320 . S
C388 C389 1.405 . S
C388 H414 0.930 . S
C389 C384 1.479 . S
C389 C388 1.405 . S
C389 H415 0.931 . S
U390 O391 2.454 . S
U390 O392 2.458 . S
U390 C393 2.984 . S
U390 C394 2.847 . S
U390 C407 2.882 . S
U390 O408 2.441 . S
U390 O409 2.420 . S
U390 O410 2.455 . S
U390 O411 2.449 . S
O391 U390 2.454 . S
O391 C393 1.353 . S
O392 U390 2.458 . S
O392 C393 1.286 . S
C393 U390 2.984 . S
C393 O391 1.353 . S
C393 O392 1.286 . S
C393 C395 1.363 . S
C394 C384 1.465 . S
C394 U390 2.847 . S
C394 O408 1.249 . S
C394 O409 1.202 . S
C395 C393 1.363 . S
C395 C397 1.408 . S
C395 C400 1.342 . S
C396 C397 1.310 . S
C396 C399 1.461 . S
C396 H416 0.932 . S
C397 C395 1.408 . S
C397 C396 1.310 . S
C397 H417 0.930 . S
C398 C399 1.474 . S
C398 C400 1.285 . S
C398 H418 0.929 . S
C399 C396 1.461 . S
C399 C398 1.474 . S
C400 C395 1.342 . S
C400 C398 1.285 . S
C400 H419 0.930 . S
C401 C404 1.424 . S
C401 C406 1.245 . S
C401 C407 1.428 . S
C402 C405 1.260 . S
C402 C406 1.477 . S
C402 H420 0.932 . S
C403 C404 1.384 . S
C403 C405 1.479 . S
C403 H421 0.929 . S
C404 C401 1.424 . S
C404 C403 1.384 . S
C404 H422 0.928 . S
C405 C402 1.260 . S
C405 C403 1.479 . S
C406 C401 1.245 . S
C406 C402 1.477 . S
C406 H423 0.932 . S
C407 U390 2.882 . S
C407 C401 1.428 . S
C407 O410 1.301 . S
C407 O411 1.282 . S
O408 U390 2.441 . S
O408 C394 1.249 . S
O409 U390 2.420 . S
O409 C394 1.202 . S
O410 U390 2.455 . S
O410 C407 1.301 . S
O411 U390 2.449 . S
O411 C407 1.282 . S
H412 C385 0.931 . S
H413 C387 0.929 . S
H414 C388 0.930 . S
H415 C389 0.931 . S
H416 C396 0.932 . S
H417 C397 0.930 . S
H418 C398 0.929 . S
H419 C400 0.930 . S
H420 C402 0.932 . S
H421 C403 0.929 . S
H422 C404 0.928 . S
H423 C406 0.932 . S
H424 C432 0.950 . S
H425 C437 0.950 1_556 S
H426 C434 0.950 . S
H427 C436 0.950 1_556 S
H428 C438 0.950 1_556 S
H429 C440 0.944 1_556 S
H430 C442 0.950 . S
H431 C443 0.950 . S
C432 H424 0.950 . S
C432 C433 1.386 . S
C432 C434 1.391 . S
C433 C432 1.386 . S
C433 C437 1.393 . S
C434 H426 0.950 . S
C434 C432 1.391 . S
C434 C435 1.400 . S
C435 C434 1.400 . S
C435 C436 1.398 . S
C435 C441 1.491 . S
C436 H427 0.950 1_554 S
C436 C435 1.398 . S
C436 C437 1.391 . S
C437 H425 0.950 1_554 S
C437 C433 1.393 . S
C437 C436 1.391 . S
C438 H428 0.950 1_554 S
C438 C439 1.385 . S
C438 C440 1.391 . S
C439 C438 1.385 . S
C439 C443 1.393 . S
C440 H429 0.944 1_554 S
C440 C438 1.391 . S
C440 C441 1.406 . S
C441 C435 1.491 . S
C441 C440 1.406 . S
C441 C442 1.398 . S
C442 H430 0.950 . S
C442 C441 1.398 . S
C442 C443 1.391 . S
C443 H431 0.950 . S
C443 C439 1.393 . S
C443 C442 1.391 . S
H444 C452 0.950 . S
H445 C457 0.939 1_556 S
H446 C454 0.950 . S
H447 C456 0.940 1_556 S
H448 C458 0.950 1_556 S
H449 C460 0.950 1_556 S
H450 C462 0.950 . S
H451 C463 0.950 . S
C452 H444 0.950 . S
C452 C453 1.386 . S
C452 C454 1.391 . S
C453 C452 1.386 . S
C453 C457 1.393 . S
C454 H446 0.950 . S
C454 C452 1.391 . S
C454 C455 1.400 . S
C455 C454 1.400 . S
C455 C456 1.398 . S
C455 C461 1.491 . S
C456 H447 0.940 1_554 S
C456 C455 1.398 . S
C456 C457 1.391 . S
C457 H445 0.939 1_554 S
C457 C453 1.393 . S
C457 C456 1.391 . S
C458 H448 0.950 1_554 S
C458 C459 1.386 . S
C458 C460 1.391 . S
C459 C458 1.386 . S
C459 C463 1.393 . S
C460 H449 0.950 1_554 S
C460 C458 1.391 . S
C460 C461 1.400 . S
C461 C455 1.491 . S
C461 C460 1.400 . S
C461 C462 1.398 . S
C462 H450 0.950 . S
C462 C461 1.398 . S
C462 C463 1.391 . S
C463 H451 0.950 . S
C463 C459 1.393 . S
C463 C462 1.391 . S
H464 C472 0.950 . S
H465 C477 0.950 . S
H466 C474 0.950 . S
H467 C476 0.950 . S
H468 C478 0.950 . S
H469 C480 0.950 . S
H470 C482 0.950 . S
H471 C483 0.950 . S
C472 H464 0.950 . S
C472 C473 1.386 1_556 S
C472 C474 1.391 . S
C473 C472 1.386 1_554 S
C473 C477 1.393 . S
C474 H466 0.950 . S
C474 C472 1.391 . S
C474 C475 1.400 1_556 S
C475 C474 1.400 1_554 S
C475 C476 1.398 . S
C475 C481 1.491 . S
C476 H467 0.950 . S
C476 C475 1.398 . S
C476 C477 1.391 . S
C477 H465 0.950 . S
C477 C473 1.393 . S
C477 C476 1.391 . S
C478 H468 0.950 . S
C478 C479 1.386 . S
C478 C480 1.391 . S
C479 C478 1.386 . S
C479 C483 1.393 1_554 S
C480 H469 0.950 . S
C480 C478 1.391 . S
C480 C481 1.400 . S
C481 C475 1.491 . S
C481 C480 1.400 . S
C481 C482 1.398 1_554 S
C482 H470 0.950 . S
C482 C481 1.398 1_556 S
C482 C483 1.391 . S
C483 H471 0.950 . S
C483 C479 1.393 1_556 S
C483 C482 1.391 . S
H484 C492 0.950 . S
H485 C497 0.950 . S
H486 C494 0.950 . S
H487 C496 0.950 . S
H488 C498 0.950 1_556 S
H489 C500 0.950 1_556 S
H490 C502 0.950 . S
H491 C503 0.950 . S
C492 H484 0.950 . S
C492 C493 1.386 . S
C492 C494 1.391 . S
C493 C492 1.386 . S
C493 C497 1.393 . S
C494 H486 0.950 . S
C494 C492 1.391 . S
C494 C495 1.400 . S
C495 C494 1.400 . S
C495 C496 1.398 . S
C495 C501 1.491 . S
C496 H487 0.950 . S
C496 C495 1.398 . S
C496 C497 1.391 . S
C497 H485 0.950 . S
C497 C493 1.393 . S
C497 C496 1.391 . S
C498 H488 0.950 1_554 S
C498 C499 1.386 . S
C498 C500 1.391 . S
C499 C498 1.386 . S
C499 C503 1.393 . S
C500 H489 0.950 1_554 S
C500 C498 1.391 . S
C500 C501 1.400 . S
C501 C495 1.491 . S
C501 C500 1.400 . S
C501 C502 1.398 . S
C502 H490 0.950 . S
C502 C501 1.398 . S
C502 C503 1.391 . S
C503 H491 0.950 . S
C503 C499 1.393 . S
C503 C502 1.391 . S
H504 C512 0.950 . S
H505 C517 0.950 . S
H506 C514 0.950 . S
H507 C516 0.950 . S
H508 C518 0.950 . S
H509 C520 0.950 . S
H510 C522 0.950 . S
H511 C523 0.950 . S
C512 H504 0.950 . S
C512 C513 1.386 . S
C512 C514 1.391 . S
C513 C512 1.386 . S
C513 C517 1.393 . S
C514 H506 0.950 . S
C514 C512 1.391 . S
C514 C515 1.400 . S
C515 C514 1.400 . S
C515 C516 1.398 . S
C515 C521 1.491 . S
C516 H507 0.950 . S
C516 C515 1.398 . S
C516 C517 1.391 . S
C517 H505 0.950 . S
C517 C513 1.393 . S
C517 C516 1.391 . S
C518 H508 0.950 . S
C518 C519 1.386 . S
C518 C520 1.391 . S
C519 C518 1.386 . S
C519 C523 1.393 . S
C520 H509 0.950 . S
C520 C518 1.391 . S
C520 C521 1.400 . S
C521 C515 1.491 . S
C521 C520 1.400 . S
C521 C522 1.398 . S
C522 H510 0.950 . S
C522 C521 1.398 . S
C522 C523 1.391 . S
C523 H511 0.950 . S
C523 C519 1.393 . S
C523 C522 1.391 . S
H524 C532 0.950 . S
H525 C537 0.950 . S
H526 C534 0.950 . S
H527 C536 0.950 . S
H528 C538 0.950 . S
H529 C540 0.950 . S
H530 C542 0.950 . S
H531 C543 0.950 . S
C532 H524 0.950 . S
C532 C533 1.386 . S
C532 C534 1.391 . S
C533 C532 1.386 . S
C533 C537 1.393 . S
C534 H526 0.950 . S
C534 C532 1.391 . S
C534 C535 1.400 . S
C535 C534 1.400 . S
C535 C536 1.398 . S
C535 C541 1.491 . S
C536 H527 0.950 . S
C536 C535 1.398 . S
C536 C537 1.391 . S
C537 H525 0.950 . S
C537 C533 1.393 . S
C537 C536 1.391 . S
C538 H528 0.950 . S
C538 C539 1.386 . S
C538 C540 1.391 . S
C539 C538 1.386 . S
C539 C543 1.393 . S
C540 H529 0.950 . S
C540 C538 1.391 . S
C540 C541 1.400 . S
C541 C535 1.491 . S
C541 C540 1.400 . S
C541 C542 1.398 . S
C542 H530 0.950 . S
C542 C541 1.398 . S
C542 C543 1.391 . S
C543 H531 0.950 . S
C543 C539 1.393 . S
C543 C542 1.391 . S
H544 C552 0.950 . S
H545 C557 0.950 . S
H546 C554 0.950 . S
H547 C556 0.950 . S
H548 C558 0.950 . S
H549 C560 0.950 . S
H550 C562 0.950 . S
H551 C563 0.950 . S
C552 H544 0.950 . S
C552 C553 1.386 . S
C552 C554 1.391 . S
C553 C552 1.386 . S
C553 C557 1.393 . S
C554 H546 0.950 . S
C554 C552 1.391 . S
C554 C555 1.400 . S
C555 C554 1.400 . S
C555 C556 1.398 . S
C555 C561 1.491 . S
C556 H547 0.950 . S
C556 C555 1.398 . S
C556 C557 1.391 . S
C557 H545 0.950 . S
C557 C553 1.393 . S
C557 C556 1.391 . S
C558 H548 0.950 . S
C558 C559 1.386 . S
C558 C560 1.391 . S
C559 C558 1.386 . S
C559 C563 1.393 . S
C560 H549 0.950 . S
C560 C558 1.391 . S
C560 C561 1.400 . S
C561 C555 1.491 . S
C561 C560 1.400 . S
C561 C562 1.398 . S
C562 H550 0.950 . S
C562 C561 1.398 . S
C562 C563 1.391 . S
C563 H551 0.950 . S
C563 C559 1.393 . S
C563 C562 1.391 . S
H564 C572 0.950 . S
H565 C577 0.950 . S
H566 C574 0.950 . S
H567 C576 0.950 . S
H568 C578 0.950 . S
H569 C580 0.950 . S
H570 C582 0.950 . S
H571 C583 0.950 . S
C572 H564 0.950 . S
C572 C573 1.386 . S
C572 C574 1.391 . S
C573 C572 1.386 . S
C573 C577 1.393 . S
C574 H566 0.950 . S
C574 C572 1.391 . S
C574 C575 1.400 . S
C575 C574 1.400 . S
C575 C576 1.398 . S
C575 C581 1.491 . S
C576 H567 0.950 . S
C576 C575 1.398 . S
C576 C577 1.391 . S
C577 H565 0.950 . S
C577 C573 1.393 . S
C577 C576 1.391 . S
C578 H568 0.950 . S
C578 C579 1.386 . S
C578 C580 1.391 . S
C579 C578 1.386 . S
C579 C583 1.393 . S
C580 H569 0.950 . S
C580 C578 1.391 . S
C580 C581 1.400 . S
C581 C575 1.491 . S
C581 C580 1.400 . S
C581 C582 1.398 . S
C582 H570 0.950 . S
C582 C581 1.398 . S
C582 C583 1.391 . S
C583 H571 0.950 . S
C583 C579 1.393 . S
C583 C582 1.391 . S
H584 C592 0.950 . S
H585 C597 0.950 1_655 S
H586 C594 0.950 . S
H587 C596 0.950 1_655 S
H588 C598 0.950 . S
H589 C600 0.950 . S
H590 C602 0.950 . S
H591 C603 0.950 . S
C592 H584 0.950 . S
C592 C593 1.386 . S
C592 C594 1.391 . S
C593 C592 1.386 . S
C593 C597 1.393 . S
C594 H586 0.950 . S
C594 C592 1.391 . S
C594 C595 1.400 . S
C595 C594 1.400 . S
C595 C596 1.398 . S
C595 C601 1.491 . S
C596 H587 0.950 1_455 S
C596 C595 1.398 . S
C596 C597 1.391 . S
C597 H585 0.950 1_455 S
C597 C593 1.393 . S
C597 C596 1.391 . S
C598 H588 0.950 . S
C598 C599 1.386 . S
C598 C600 1.391 . S
C599 C598 1.386 . S
C599 C603 1.393 . S
C600 H589 0.950 . S
C600 C598 1.391 . S
C600 C601 1.400 . S
C601 C595 1.491 . S
C601 C600 1.400 . S
C601 C602 1.398 . S
C602 H590 0.950 . S
C602 C601 1.398 . S
C602 C603 1.391 . S
C603 H591 0.950 . S
C603 C599 1.393 . S
C603 C602 1.391 . S
H604 C612 0.950 . S
H605 C617 0.950 . S
H606 C614 0.950 . S
H607 C616 0.950 . S
H608 C618 0.950 . S
H609 C620 0.950 . S
H610 C622 0.950 . S
H611 C623 0.950 . S
C612 H604 0.950 . S
C612 C613 1.386 . S
C612 C614 1.391 . S
C613 C612 1.386 . S
C613 C617 1.393 . S
C614 H606 0.950 . S
C614 C612 1.391 . S
C614 C615 1.400 . S
C615 C614 1.400 . S
C615 C616 1.398 . S
C615 C621 1.491 . S
C616 H607 0.950 . S
C616 C615 1.398 . S
C616 C617 1.391 . S
C617 H605 0.950 . S
C617 C613 1.393 . S
C617 C616 1.391 . S
C618 H608 0.950 . S
C618 C619 1.386 . S
C618 C620 1.391 . S
C619 C618 1.386 . S
C619 C623 1.393 . S
C620 H609 0.950 . S
C620 C618 1.391 . S
C620 C621 1.400 . S
C621 C615 1.491 . S
C621 C620 1.400 . S
C621 C622 1.398 . S
C622 H610 0.950 . S
C622 C621 1.398 . S
C622 C623 1.391 . S
C623 H611 0.950 . S
C623 C619 1.393 . S
C623 C622 1.391 . S
H624 C632 0.950 . S
H625 C637 0.950 . S
H626 C634 0.950 . S
H627 C636 0.950 . S
H628 C638 0.950 . S
H629 C640 0.950 . S
H630 C642 0.950 . S
H631 C643 0.950 . S
C632 H624 0.950 . S
C632 C633 1.386 . S
C632 C634 1.391 . S
C633 C632 1.386 . S
C633 C637 1.393 . S
C634 H626 0.950 . S
C634 C632 1.391 . S
C634 C635 1.400 . S
C635 C634 1.400 . S
C635 C636 1.398 . S
C635 C641 1.491 . S
C636 H627 0.950 . S
C636 C635 1.398 . S
C636 C637 1.391 . S
C637 H625 0.950 . S
C637 C633 1.393 . S
C637 C636 1.391 . S
C638 H628 0.950 . S
C638 C639 1.386 . S
C638 C640 1.391 . S
C639 C638 1.386 . S
C639 C643 1.393 . S
C640 H629 0.950 . S
C640 C638 1.391 . S
C640 C641 1.400 . S
C641 C635 1.491 . S
C641 C640 1.400 . S
C641 C642 1.398 . S
C642 H630 0.950 . S
C642 C641 1.398 . S
C642 C643 1.391 . S
C643 H631 0.950 . S
C643 C639 1.393 . S
C643 C642 1.391 . S
H644 C652 0.950 1_545 S
H645 C657 0.950 . S
H646 C654 0.950 . S
H647 C656 0.950 . S
H648 C658 0.950 . S
H649 C660 0.950 . S
H650 C662 0.950 . S
H651 C663 0.950 . S
C652 H644 0.950 1_565 S
C652 C653 1.386 . S
C652 C654 1.391 . S
C653 C652 1.386 . S
C653 C657 1.393 . S
C654 H646 0.950 . S
C654 C652 1.391 . S
C654 C655 1.400 . S
C655 C654 1.400 . S
C655 C656 1.398 . S
C655 C661 1.491 . S
C656 H647 0.950 . S
C656 C655 1.398 . S
C656 C657 1.391 . S
C657 H645 0.950 . S
C657 C653 1.393 . S
C657 C656 1.391 . S
C658 H648 0.950 . S
C658 C659 1.386 . S
C658 C660 1.391 . S
C659 C658 1.386 . S
C659 C663 1.393 . S
C660 H649 0.950 . S
C660 C658 1.391 . S
C660 C661 1.400 . S
C661 C655 1.491 . S
C661 C660 1.400 . S
C661 C662 1.398 . S
C662 H650 0.950 . S
C662 C661 1.398 . S
C662 C663 1.391 . S
C663 H651 0.950 . S
C663 C659 1.393 . S
C663 C662 1.391 . S
H664 C672 0.950 1_545 S
H665 C677 0.950 . S
H666 C674 0.950 . S
H667 C676 0.950 . S
H668 C678 0.950 . S
H669 C680 0.950 . S
H670 C682 0.950 . S
H671 C683 0.950 . S
C672 H664 0.950 1_565 S
C672 C673 1.386 . S
C672 C674 1.391 . S
C673 C672 1.386 . S
C673 C677 1.393 . S
C674 H666 0.950 . S
C674 C672 1.391 . S
C674 C675 1.400 . S
C675 C674 1.400 . S
C675 C676 1.398 . S
C675 C681 1.491 . S
C676 H667 0.950 . S
C676 C675 1.398 . S
C676 C677 1.391 . S
C677 H665 0.950 . S
C677 C673 1.393 . S
C677 C676 1.391 . S
C678 H668 0.950 . S
C678 C679 1.386 . S
C678 C680 1.391 . S
C679 C678 1.386 . S
C679 C683 1.393 . S
C680 H669 0.950 . S
C680 C678 1.391 . S
C680 C681 1.400 . S
C681 C675 1.491 . S
C681 C680 1.400 . S
C681 C682 1.398 . S
C682 H670 0.950 . S
C682 C681 1.398 . S
C682 C683 1.391 . S
C683 H671 0.950 . S
C683 C679 1.393 . S
C683 C682 1.391 . S
H684 C692 0.950 . S
H685 C697 0.950 . S
H686 C694 0.950 . S
H687 C696 0.950 . S
H688 C698 0.950 . S
H689 C700 0.950 . S
H690 C702 0.950 . S
H691 C703 0.950 . S
C692 H684 0.950 . S
C692 C693 1.386 . S
C692 C694 1.391 . S
C693 C692 1.386 . S
C693 C697 1.393 . S
C694 H686 0.950 . S
C694 C692 1.391 . S
C694 C695 1.400 . S
C695 C694 1.400 . S
C695 C696 1.398 . S
C695 C701 1.491 . S
C696 H687 0.950 . S
C696 C695 1.398 . S
C696 C697 1.391 . S
C697 H685 0.950 . S
C697 C693 1.393 . S
C697 C696 1.391 . S
C698 H688 0.950 . S
C698 C699 1.386 . S
C698 C700 1.391 . S
C699 C698 1.386 . S
C699 C703 1.393 . S
C700 H689 0.950 . S
C700 C698 1.391 . S
C700 C701 1.400 . S
C701 C695 1.491 . S
C701 C700 1.400 . S
C701 C702 1.398 . S
C702 H690 0.950 . S
C702 C701 1.398 . S
C702 C703 1.391 . S
C703 H691 0.950 . S
C703 C699 1.393 . S
C703 C702 1.391 . S
H704 C712 0.950 . S
H705 C717 0.950 . S
H706 C714 0.950 . S
H707 C716 0.950 . S
H708 C718 0.950 . S
H709 C720 0.950 . S
H710 C722 0.950 . S
H711 C723 0.950 . S
C712 H704 0.950 . S
C712 C713 1.386 . S
C712 C714 1.391 . S
C713 C712 1.386 . S
C713 C717 1.393 . S
C714 H706 0.950 . S
C714 C712 1.391 . S
C714 C715 1.400 . S
C715 C714 1.400 . S
C715 C716 1.398 . S
C715 C721 1.491 . S
C716 H707 0.950 . S
C716 C715 1.398 . S
C716 C717 1.391 . S
C717 H705 0.950 . S
C717 C713 1.393 . S
C717 C716 1.391 . S
C718 H708 0.950 . S
C718 C719 1.386 . S
C718 C720 1.391 . S
C719 C718 1.386 . S
C719 C723 1.393 . S
C720 H709 0.950 . S
C720 C718 1.391 . S
C720 C721 1.400 . S
C721 C715 1.491 . S
C721 C720 1.400 . S
C721 C722 1.398 . S
C722 H710 0.950 . S
C722 C721 1.398 . S
C722 C723 1.391 . S
C723 H711 0.950 . S
C723 C719 1.393 . S
C723 C722 1.391 . S
H724 C732 0.950 . S
H725 C737 0.950 1_455 S
H726 C734 0.950 . S
H727 C736 0.969 . S
H728 C738 0.950 . S
H729 C740 0.950 . S
H730 C742 0.950 . S
H731 C743 0.950 . S
C732 H724 0.950 . S
C732 C733 1.386 . S
C732 C734 1.391 . S
C733 C732 1.386 . S
C733 C737 1.393 . S
C734 H726 0.950 . S
C734 C732 1.391 . S
C734 C735 1.400 . S
C735 C734 1.400 . S
C735 C736 1.398 . S
C735 C741 1.491 . S
C736 H727 0.969 . S
C736 C735 1.398 . S
C736 C737 1.391 . S
C737 H725 0.950 1_655 S
C737 C733 1.393 . S
C737 C736 1.391 . S
C738 H728 0.950 . S
C738 C739 1.386 . S
C738 C740 1.391 . S
C739 C738 1.386 . S
C739 C743 1.393 . S
C740 H729 0.950 . S
C740 C738 1.391 . S
C740 C741 1.400 . S
C741 C735 1.491 . S
C741 C740 1.400 . S
C741 C742 1.398 . S
C742 H730 0.950 . S
C742 C741 1.398 . S
C742 C743 1.391 . S
C743 H731 0.950 . S
C743 C739 1.393 . S
C743 C742 1.391 . S
H744 C752 0.950 . S
H745 C757 0.950 . S
H746 C754 0.950 . S
H747 C756 0.950 . S
H748 C758 0.950 . S
H749 C760 0.950 . S
H750 C762 0.950 . S
H751 C763 0.950 . S
C752 H744 0.950 . S
C752 C753 1.386 . S
C752 C754 1.391 . S
C753 C752 1.386 . S
C753 C757 1.393 . S
C754 H746 0.950 . S
C754 C752 1.391 . S
C754 C755 1.400 . S
C755 C754 1.400 . S
C755 C756 1.398 . S
C755 C761 1.491 . S
C756 H747 0.950 . S
C756 C755 1.398 . S
C756 C757 1.391 . S
C757 H745 0.950 . S
C757 C753 1.393 . S
C757 C756 1.391 . S
C758 H748 0.950 . S
C758 C759 1.386 . S
C758 C760 1.391 . S
C759 C758 1.386 . S
C759 C763 1.393 . S
C760 H749 0.950 . S
C760 C758 1.391 . S
C760 C761 1.400 . S
C761 C755 1.491 . S
C761 C760 1.400 . S
C761 C762 1.398 . S
C762 H750 0.950 . S
C762 C761 1.398 . S
C762 C763 1.391 . S
C763 H751 0.950 . S
C763 C759 1.393 . S
C763 C762 1.391 . S
H764 C772 0.950 . S
H765 C777 0.950 . S
H766 C774 0.950 . S
H767 C776 0.950 . S
H768 C778 0.950 . S
H769 C780 0.950 . S
H770 C782 0.950 . S
H771 C783 0.950 . S
C772 H764 0.950 . S
C772 C773 1.386 . S
C772 C774 1.391 . S
C773 C772 1.386 . S
C773 C777 1.393 . S
C774 H766 0.950 . S
C774 C772 1.391 . S
C774 C775 1.400 . S
C775 C774 1.400 . S
C775 C776 1.398 . S
C775 C781 1.491 . S
C776 H767 0.950 . S
C776 C775 1.398 . S
C776 C777 1.391 . S
C777 H765 0.950 . S
C777 C773 1.393 . S
C777 C776 1.391 . S
C778 H768 0.950 . S
C778 C779 1.386 . S
C778 C780 1.391 . S
C779 C778 1.386 . S
C779 C783 1.393 . S
C780 H769 0.950 . S
C780 C778 1.391 . S
C780 C781 1.400 . S
C781 C775 1.491 . S
C781 C780 1.400 . S
C781 C782 1.398 . S
C782 H770 0.950 . S
C782 C781 1.398 . S
C782 C783 1.391 . S
C783 H771 0.950 . S
C783 C779 1.393 . S
C783 C782 1.391 . S
H784 C792 0.950 . S
H785 C797 0.950 . S
H786 C794 0.950 . S
H787 C796 0.950 . S
H788 C798 0.950 . S
H789 C800 0.950 . S
H790 C802 0.950 . S
H791 C803 0.950 . S
C792 H784 0.950 . S
C792 C793 1.386 . S
C792 C794 1.391 . S
C793 C792 1.386 . S
C793 C797 1.393 . S
C794 H786 0.950 . S
C794 C792 1.391 . S
C794 C795 1.400 . S
C795 C794 1.400 . S
C795 C796 1.398 . S
C795 C801 1.491 . S
C796 H787 0.950 . S
C796 C795 1.398 . S
C796 C797 1.391 . S
C797 H785 0.950 . S
C797 C793 1.393 . S
C797 C796 1.391 . S
C798 H788 0.950 . S
C798 C799 1.386 . S
C798 C800 1.391 . S
C799 C798 1.386 . S
C799 C803 1.393 . S
C800 H789 0.950 . S
C800 C798 1.391 . S
C800 C801 1.400 . S
C801 C795 1.491 . S
C801 C800 1.400 . S
C801 C802 1.398 . S
C802 H790 0.950 . S
C802 C801 1.398 . S
C802 C803 1.391 . S
C803 H791 0.950 . S
C803 C799 1.393 . S
C803 C802 1.391 . S
H804 C812 0.950 . S
H805 C817 0.950 . S
H806 C814 0.950 . S
H807 C816 0.950 . S
H808 C818 0.950 . S
H809 C820 0.950 . S
H810 C822 0.950 . S
H811 C823 0.950 . S
C812 H804 0.950 . S
C812 C813 1.386 . S
C812 C814 1.391 . S
C813 C812 1.386 . S
C813 C817 1.393 . S
C814 H806 0.950 . S
C814 C812 1.391 . S
C814 C815 1.400 . S
C815 C814 1.400 . S
C815 C816 1.398 . S
C815 C821 1.491 . S
C816 H807 0.950 . S
C816 C815 1.398 . S
C816 C817 1.391 . S
C817 H805 0.950 . S
C817 C813 1.393 . S
C817 C816 1.391 . S
C818 H808 0.950 . S
C818 C819 1.386 . S
C818 C820 1.391 . S
C819 C818 1.386 . S
C819 C823 1.393 . S
C820 H809 0.950 . S
C820 C818 1.391 . S
C820 C821 1.400 . S
C821 C815 1.491 . S
C821 C820 1.400 . S
C821 C822 1.398 . S
C822 H810 0.950 . S
C822 C821 1.398 . S
C822 C823 1.391 . S
C823 H811 0.950 . S
C823 C819 1.393 . S
C823 C822 1.391 . S
H824 C832 0.950 . S
H825 C837 0.950 . S
H826 C834 0.950 . S
H827 C836 0.950 . S
H828 C838 0.950 . S
H829 C840 0.950 . S
H830 C842 0.950 . S
H831 C843 0.950 . S
C832 H824 0.950 . S
C832 C833 1.386 . S
C832 C834 1.391 . S
C833 C832 1.386 . S
C833 C837 1.393 . S
C834 H826 0.950 . S
C834 C832 1.391 . S
C834 C835 1.400 . S
C835 C834 1.400 . S
C835 C836 1.398 . S
C835 C841 1.491 . S
C836 H827 0.950 . S
C836 C835 1.398 . S
C836 C837 1.391 . S
C837 H825 0.950 . S
C837 C833 1.393 . S
C837 C836 1.391 . S
C838 H828 0.950 . S
C838 C839 1.386 . S
C838 C840 1.391 . S
C839 C838 1.386 . S
C839 C843 1.393 . S
C840 H829 0.950 . S
C840 C838 1.391 . S
C840 C841 1.400 . S
C841 C835 1.491 . S
C841 C840 1.400 . S
C841 C842 1.398 . S
C842 H830 0.950 . S
C842 C841 1.398 . S
C842 C843 1.391 . S
C843 H831 0.950 . S
C843 C839 1.393 . S
C843 C842 1.391 . S
H844 C852 0.950 . S
H845 C857 0.950 . S
H846 C854 0.950 . S
H847 C856 0.950 . S
H848 C858 0.950 . S
H849 C860 0.950 . S
H850 C862 0.950 . S
H851 C863 0.950 . S
C852 H844 0.950 . S
C852 C853 1.386 . S
C852 C854 1.391 . S
C853 C852 1.386 . S
C853 C857 1.393 . S
C854 H846 0.950 . S
C854 C852 1.391 . S
C854 C855 1.400 . S
C855 C854 1.400 . S
C855 C856 1.398 . S
C855 C861 1.491 . S
C856 H847 0.950 . S
C856 C855 1.398 . S
C856 C857 1.391 . S
C857 H845 0.950 . S
C857 C853 1.393 . S
C857 C856 1.391 . S
C858 H848 0.950 . S
C858 C859 1.386 . S
C858 C860 1.391 . S
C859 C858 1.386 . S
C859 C863 1.393 . S
C860 H849 0.950 . S
C860 C858 1.391 . S
C860 C861 1.400 . S
C861 C855 1.491 . S
C861 C860 1.400 . S
C861 C862 1.398 . S
C862 H850 0.950 . S
C862 C861 1.398 . S
C862 C863 1.391 . S
C863 H851 0.950 . S
C863 C859 1.393 . S
C863 C862 1.391 . S
H864 C872 0.950 . S
H865 C877 0.950 . S
H866 C874 0.950 . S
H867 C876 0.950 . S
H868 C878 0.950 . S
H869 C880 0.950 . S
H870 C882 0.950 . S
H871 C883 0.950 . S
C872 H864 0.950 . S
C872 C873 1.386 . S
C872 C874 1.391 . S
C873 C872 1.386 . S
C873 C877 1.393 . S
C874 H866 0.950 . S
C874 C872 1.391 . S
C874 C875 1.400 . S
C875 C874 1.400 . S
C875 C876 1.398 . S
C875 C881 1.491 . S
C876 H867 0.950 . S
C876 C875 1.398 . S
C876 C877 1.391 . S
C877 H865 0.950 . S
C877 C873 1.393 . S
C877 C876 1.391 . S
C878 H868 0.950 . S
C878 C879 1.386 . S
C878 C880 1.391 . S
C879 C878 1.386 . S
C879 C883 1.393 . S
C880 H869 0.950 . S
C880 C878 1.391 . S
C880 C881 1.400 . S
C881 C875 1.491 . S
C881 C880 1.400 . S
C881 C882 1.398 . S
C882 H870 0.950 . S
C882 C881 1.398 . S
C882 C883 1.391 . S
C883 H871 0.950 . S
C883 C879 1.393 . S
C883 C882 1.391 . S
H884 C892 0.950 . S
H885 C897 0.950 . S
H886 C894 0.950 . S
H887 C896 0.950 . S
H888 C898 0.950 . S
H889 C900 0.950 . S
H890 C902 0.950 . S
H891 C903 0.950 . S
C892 H884 0.950 . S
C892 C893 1.386 . S
C892 C894 1.391 . S
C893 C892 1.386 . S
C893 C897 1.393 . S
C894 H886 0.950 . S
C894 C892 1.391 . S
C894 C895 1.400 . S
C895 C894 1.400 . S
C895 C896 1.398 . S
C895 C901 1.491 . S
C896 H887 0.950 . S
C896 C895 1.398 . S
C896 C897 1.391 . S
C897 H885 0.950 . S
C897 C893 1.393 . S
C897 C896 1.391 . S
C898 H888 0.950 . S
C898 C899 1.386 . S
C898 C900 1.391 . S
C899 C898 1.386 . S
C899 C903 1.393 . S
C900 H889 0.950 . S
C900 C898 1.391 . S
C900 C901 1.400 . S
C901 C895 1.491 . S
C901 C900 1.400 . S
C901 C902 1.398 . S
C902 H890 0.950 . S
C902 C901 1.398 . S
C902 C903 1.391 . S
C903 H891 0.950 . S
C903 C899 1.393 . S
C903 C902 1.391 . S
C433 C45 1.658 . S
C439 C119 1.669 . S
C453 C30 1.662 . S
C459 C159 1.680 . S
C473 C39 1.676 . S
C479 C199 1.691 . S
C499 C239 1.680 . S
C493 C34 1.662 . S
C513 C97 1.675 . S
C519 C279 1.684 . S
C539 C319 1.688 . S
C533 C82 1.673 . S
C559 C359 1.690 . S
C553 C91 1.675 . S
C579 C399 1.682 . S
C573 C86 1.665 . S
C599 C365 1.604 . S
C593 C26 1.514 . S
C619 C405 1.630 . S
C613 C36 1.549 . S
C639 C266 1.540 . S
C633 C32 1.521 . S
C659 C325 1.637 . S
C653 C42 1.559 . S
C673 C18 1.561 . S
C679 C306 1.680 . S
C699 C346 1.704 . S
C693 C50 1.592 . S
C713 C4 1.582 . S
C719 C386 1.684 . S
C733 C48 1.617 . S
C739 C285 1.633 . S
C759 C205 1.609 . S
C753 C78 1.521 . S
C773 C88 1.551 . S
C779 C245 1.631 . S
C799 C106 1.539 . S
C793 C84 1.529 . S
C819 C165 1.633 . S
C813 C94 1.561 . S
C839 C146 1.682 . S
C833 C70 1.575 . S
C859 C186 1.707 . S
C853 C102 1.605 . S
C873 C56 1.569 . S
C879 C226 1.679 . S
C893 C100 1.626 . S
C899 C125 1.643 . S
