# Generated by pormake.
# Topology gar, (4,6)-cn, num edge types: 1
# Building blocks:
#     Node 0, Type 0, BuildingBlock: KUFVIS_clean_sbu_0, # of connection points: 4
#     Node 1, Type 0, BuildingBlock: KUFVIS_clean_sbu_0, # of connection points: 4
#     Node 2, Type 0, BuildingBlock: KUFVIS_clean_sbu_0, # of connection points: 4
#     Node 3, Type 0, BuildingBlock: KUFVIS_clean_sbu_0, # of connection points: 4
#     Node 4, Type 0, BuildingBlock: KUFVIS_clean_sbu_0, # of connection points: 4
#     Node 5, Type 0, BuildingBlock: KUFVIS_clean_sbu_0, # of connection points: 4
#     Node 6, Type 0, BuildingBlock: KUFVIS_clean_sbu_0, # of connection points: 4
#     Node 7, Type 0, BuildingBlock: KUFVIS_clean_sbu_0, # of connection points: 4
#     Node 8, Type 0, BuildingBlock: KUFVIS_clean_sbu_0, # of connection points: 4
#     Node 9, Type 0, BuildingBlock: KUFVIS_clean_sbu_0, # of connection points: 4
#     Node 10, Type 0, BuildingBlock: KUFVIS_clean_sbu_0, # of connection points: 4
#     Node 11, Type 0, BuildingBlock: KUFVIS_clean_sbu_0, # of connection points: 4
#     Node 12, Type 0, BuildingBlock: KUFVIS_clean_sbu_0, # of connection points: 4
#     Node 13, Type 0, BuildingBlock: KUFVIS_clean_sbu_0, # of connection points: 4
#     Node 14, Type 0, BuildingBlock: KUFVIS_clean_sbu_0, # of connection points: 4
#     Node 15, Type 0, BuildingBlock: KUFVIS_clean_sbu_0, # of connection points: 4
#     Node 16, Type 0, BuildingBlock: KUFVIS_clean_sbu_0, # of connection points: 4
#     Node 17, Type 0, BuildingBlock: KUFVIS_clean_sbu_0, # of connection points: 4
#     Node 18, Type 0, BuildingBlock: KUFVIS_clean_sbu_0, # of connection points: 4
#     Node 19, Type 0, BuildingBlock: KUFVIS_clean_sbu_0, # of connection points: 4
#     Node 20, Type 0, BuildingBlock: KUFVIS_clean_sbu_0, # of connection points: 4
#     Node 21, Type 0, BuildingBlock: KUFVIS_clean_sbu_0, # of connection points: 4
#     Node 22, Type 0, BuildingBlock: KUFVIS_clean_sbu_0, # of connection points: 4
#     Node 23, Type 0, BuildingBlock: KUFVIS_clean_sbu_0, # of connection points: 4
#     Node 24, Type 1, BuildingBlock: MIFKUJ_clean_sbu_0, # of connection points: 6
#     Node 25, Type 1, BuildingBlock: MIFKUJ_clean_sbu_0, # of connection points: 6
#     Node 26, Type 1, BuildingBlock: MIFKUJ_clean_sbu_0, # of connection points: 6
#     Node 27, Type 1, BuildingBlock: MIFKUJ_clean_sbu_0, # of connection points: 6
#     Node 28, Type 1, BuildingBlock: MIFKUJ_clean_sbu_0, # of connection points: 6
#     Node 29, Type 1, BuildingBlock: MIFKUJ_clean_sbu_0, # of connection points: 6
#     Node 30, Type 1, BuildingBlock: MIFKUJ_clean_sbu_0, # of connection points: 6
#     Node 31, Type 1, BuildingBlock: MIFKUJ_clean_sbu_0, # of connection points: 6
#     Node 32, Type 1, BuildingBlock: MIFKUJ_clean_sbu_0, # of connection points: 6
#     Node 33, Type 1, BuildingBlock: MIFKUJ_clean_sbu_0, # of connection points: 6
#     Node 34, Type 1, BuildingBlock: MIFKUJ_clean_sbu_0, # of connection points: 6
#     Node 35, Type 1, BuildingBlock: MIFKUJ_clean_sbu_0, # of connection points: 6
#     Node 36, Type 1, BuildingBlock: MIFKUJ_clean_sbu_0, # of connection points: 6
#     Node 37, Type 1, BuildingBlock: MIFKUJ_clean_sbu_0, # of connection points: 6
#     Node 38, Type 1, BuildingBlock: MIFKUJ_clean_sbu_0, # of connection points: 6
#     Node 39, Type 1, BuildingBlock: MIFKUJ_clean_sbu_0, # of connection points: 6
#     Edge 40, Type (0, 1), BuildingBlock: ZUJKAS_clean_linker_0, # of connection points: 2
#     Edge 41, Type (0, 1), BuildingBlock: ZUJKAS_clean_linker_0, # of connection points: 2
#     Edge 42, Type (0, 1), BuildingBlock: ZUJKAS_clean_linker_0, # of connection points: 2
#     Edge 43, Type (0, 1), BuildingBlock: ZUJKAS_clean_linker_0, # of connection points: 2
#     Edge 44, Type (0, 1), BuildingBlock: ZUJKAS_clean_linker_0, # of connection points: 2
#     Edge 45, Type (0, 1), BuildingBlock: ZUJKAS_clean_linker_0, # of connection points: 2
#     Edge 46, Type (0, 1), BuildingBlock: ZUJKAS_clean_linker_0, # of connection points: 2
#     Edge 47, Type (0, 1), BuildingBlock: ZUJKAS_clean_linker_0, # of connection points: 2
#     Edge 48, Type (0, 1), BuildingBlock: ZUJKAS_clean_linker_0, # of connection points: 2
#     Edge 49, Type (0, 1), BuildingBlock: ZUJKAS_clean_linker_0, # of connection points: 2
#     Edge 50, Type (0, 1), BuildingBlock: ZUJKAS_clean_linker_0, # of connection points: 2
#     Edge 51, Type (0, 1), BuildingBlock: ZUJKAS_clean_linker_0, # of connection points: 2
#     Edge 52, Type (0, 1), BuildingBlock: ZUJKAS_clean_linker_0, # of connection points: 2
#     Edge 53, Type (0, 1), BuildingBlock: ZUJKAS_clean_linker_0, # of connection points: 2
#     Edge 54, Type (0, 1), BuildingBlock: ZUJKAS_clean_linker_0, # of connection points: 2
#     Edge 55, Type (0, 1), BuildingBlock: ZUJKAS_clean_linker_0, # of connection points: 2
#     Edge 56, Type (0, 1), BuildingBlock: ZUJKAS_clean_linker_0, # of connection points: 2
#     Edge 57, Type (0, 1), BuildingBlock: ZUJKAS_clean_linker_0, # of connection points: 2
#     Edge 58, Type (0, 1), BuildingBlock: ZUJKAS_clean_linker_0, # of connection points: 2
#     Edge 59, Type (0, 1), BuildingBlock: ZUJKAS_clean_linker_0, # of connection points: 2
#     Edge 60, Type (0, 1), BuildingBlock: ZUJKAS_clean_linker_0, # of connection points: 2
#     Edge 61, Type (0, 1), BuildingBlock: ZUJKAS_clean_linker_0, # of connection points: 2
#     Edge 62, Type (0, 1), BuildingBlock: ZUJKAS_clean_linker_0, # of connection points: 2
#     Edge 63, Type (0, 1), BuildingBlock: ZUJKAS_clean_linker_0, # of connection points: 2
#     Edge 64, Type (0, 1), BuildingBlock: ZUJKAS_clean_linker_0, # of connection points: 2
#     Edge 65, Type (0, 1), BuildingBlock: ZUJKAS_clean_linker_0, # of connection points: 2
#     Edge 66, Type (0, 1), BuildingBlock: ZUJKAS_clean_linker_0, # of connection points: 2
#     Edge 67, Type (0, 1), BuildingBlock: ZUJKAS_clean_linker_0, # of connection points: 2
#     Edge 68, Type (0, 1), BuildingBlock: ZUJKAS_clean_linker_0, # of connection points: 2
#     Edge 69, Type (0, 1), BuildingBlock: ZUJKAS_clean_linker_0, # of connection points: 2
#     Edge 70, Type (0, 1), BuildingBlock: ZUJKAS_clean_linker_0, # of connection points: 2
#     Edge 71, Type (0, 1), BuildingBlock: ZUJKAS_clean_linker_0, # of connection points: 2
#     Edge 72, Type (0, 1), BuildingBlock: ZUJKAS_clean_linker_0, # of connection points: 2
#     Edge 73, Type (0, 1), BuildingBlock: ZUJKAS_clean_linker_0, # of connection points: 2
#     Edge 74, Type (0, 1), BuildingBlock: ZUJKAS_clean_linker_0, # of connection points: 2
#     Edge 75, Type (0, 1), BuildingBlock: ZUJKAS_clean_linker_0, # of connection points: 2
#     Edge 76, Type (0, 1), BuildingBlock: ZUJKAS_clean_linker_0, # of connection points: 2
#     Edge 77, Type (0, 1), BuildingBlock: ZUJKAS_clean_linker_0, # of connection points: 2
#     Edge 78, Type (0, 1), BuildingBlock: ZUJKAS_clean_linker_0, # of connection points: 2
#     Edge 79, Type (0, 1), BuildingBlock: ZUJKAS_clean_linker_0, # of connection points: 2
#     Edge 80, Type (0, 1), BuildingBlock: ZUJKAS_clean_linker_0, # of connection points: 2
#     Edge 81, Type (0, 1), BuildingBlock: ZUJKAS_clean_linker_0, # of connection points: 2
#     Edge 82, Type (0, 1), BuildingBlock: ZUJKAS_clean_linker_0, # of connection points: 2
#     Edge 83, Type (0, 1), BuildingBlock: ZUJKAS_clean_linker_0, # of connection points: 2
#     Edge 84, Type (0, 1), BuildingBlock: ZUJKAS_clean_linker_0, # of connection points: 2
#     Edge 85, Type (0, 1), BuildingBlock: ZUJKAS_clean_linker_0, # of connection points: 2
#     Edge 86, Type (0, 1), BuildingBlock: ZUJKAS_clean_linker_0, # of connection points: 2
#     Edge 87, Type (0, 1), BuildingBlock: ZUJKAS_clean_linker_0, # of connection points: 2
#     Edge 88, Type (0, 1), BuildingBlock: ZUJKAS_clean_linker_0, # of connection points: 2
#     Edge 89, Type (0, 1), BuildingBlock: ZUJKAS_clean_linker_0, # of connection points: 2
#     Edge 90, Type (0, 1), BuildingBlock: ZUJKAS_clean_linker_0, # of connection points: 2
#     Edge 91, Type (0, 1), BuildingBlock: ZUJKAS_clean_linker_0, # of connection points: 2
#     Edge 92, Type (0, 1), BuildingBlock: ZUJKAS_clean_linker_0, # of connection points: 2
#     Edge 93, Type (0, 1), BuildingBlock: ZUJKAS_clean_linker_0, # of connection points: 2
#     Edge 94, Type (0, 1), BuildingBlock: ZUJKAS_clean_linker_0, # of connection points: 2
#     Edge 95, Type (0, 1), BuildingBlock: ZUJKAS_clean_linker_0, # of connection points: 2
#     Edge 96, Type (0, 1), BuildingBlock: ZUJKAS_clean_linker_0, # of connection points: 2
#     Edge 97, Type (0, 1), BuildingBlock: ZUJKAS_clean_linker_0, # of connection points: 2
#     Edge 98, Type (0, 1), BuildingBlock: ZUJKAS_clean_linker_0, # of connection points: 2
#     Edge 99, Type (0, 1), BuildingBlock: ZUJKAS_clean_linker_0, # of connection points: 2
#     Edge 100, Type (0, 1), BuildingBlock: ZUJKAS_clean_linker_0, # of connection points: 2
#     Edge 101, Type (0, 1), BuildingBlock: ZUJKAS_clean_linker_0, # of connection points: 2
#     Edge 102, Type (0, 1), BuildingBlock: ZUJKAS_clean_linker_0, # of connection points: 2
#     Edge 103, Type (0, 1), BuildingBlock: ZUJKAS_clean_linker_0, # of connection points: 2
#     Edge 104, Type (0, 1), BuildingBlock: ZUJKAS_clean_linker_0, # of connection points: 2
#     Edge 105, Type (0, 1), BuildingBlock: ZUJKAS_clean_linker_0, # of connection points: 2
#     Edge 106, Type (0, 1), BuildingBlock: ZUJKAS_clean_linker_0, # of connection points: 2
#     Edge 107, Type (0, 1), BuildingBlock: ZUJKAS_clean_linker_0, # of connection points: 2
#     Edge 108, Type (0, 1), BuildingBlock: ZUJKAS_clean_linker_0, # of connection points: 2
#     Edge 109, Type (0, 1), BuildingBlock: ZUJKAS_clean_linker_0, # of connection points: 2
#     Edge 110, Type (0, 1), BuildingBlock: ZUJKAS_clean_linker_0, # of connection points: 2
#     Edge 111, Type (0, 1), BuildingBlock: ZUJKAS_clean_linker_0, # of connection points: 2
#     Edge 112, Type (0, 1), BuildingBlock: ZUJKAS_clean_linker_0, # of connection points: 2
#     Edge 113, Type (0, 1), BuildingBlock: ZUJKAS_clean_linker_0, # of connection points: 2
#     Edge 114, Type (0, 1), BuildingBlock: ZUJKAS_clean_linker_0, # of connection points: 2
#     Edge 115, Type (0, 1), BuildingBlock: ZUJKAS_clean_linker_0, # of connection points: 2
#     Edge 116, Type (0, 1), BuildingBlock: ZUJKAS_clean_linker_0, # of connection points: 2
#     Edge 117, Type (0, 1), BuildingBlock: ZUJKAS_clean_linker_0, # of connection points: 2
#     Edge 118, Type (0, 1), BuildingBlock: ZUJKAS_clean_linker_0, # of connection points: 2
#     Edge 119, Type (0, 1), BuildingBlock: ZUJKAS_clean_linker_0, # of connection points: 2
#     Edge 120, Type (0, 1), BuildingBlock: ZUJKAS_clean_linker_0, # of connection points: 2
#     Edge 121, Type (0, 1), BuildingBlock: ZUJKAS_clean_linker_0, # of connection points: 2
#     Edge 122, Type (0, 1), BuildingBlock: ZUJKAS_clean_linker_0, # of connection points: 2
#     Edge 123, Type (0, 1), BuildingBlock: ZUJKAS_clean_linker_0, # of connection points: 2
#     Edge 124, Type (0, 1), BuildingBlock: ZUJKAS_clean_linker_0, # of connection points: 2
#     Edge 125, Type (0, 1), BuildingBlock: ZUJKAS_clean_linker_0, # of connection points: 2
#     Edge 126, Type (0, 1), BuildingBlock: ZUJKAS_clean_linker_0, # of connection points: 2
#     Edge 127, Type (0, 1), BuildingBlock: ZUJKAS_clean_linker_0, # of connection points: 2
#     Edge 128, Type (0, 1), BuildingBlock: ZUJKAS_clean_linker_0, # of connection points: 2
#     Edge 129, Type (0, 1), BuildingBlock: ZUJKAS_clean_linker_0, # of connection points: 2
#     Edge 130, Type (0, 1), BuildingBlock: ZUJKAS_clean_linker_0, # of connection points: 2
#     Edge 131, Type (0, 1), BuildingBlock: ZUJKAS_clean_linker_0, # of connection points: 2
#     Edge 132, Type (0, 1), BuildingBlock: ZUJKAS_clean_linker_0, # of connection points: 2
#     Edge 133, Type (0, 1), BuildingBlock: ZUJKAS_clean_linker_0, # of connection points: 2
#     Edge 134, Type (0, 1), BuildingBlock: ZUJKAS_clean_linker_0, # of connection points: 2
#     Edge 135, Type (0, 1), BuildingBlock: ZUJKAS_clean_linker_0, # of connection points: 2
# Relax obj value: 0.091
# Max RMSD: 0.263
# Mean RMSD: 0.122
data_MOF--net-gar--node1-KUFVIS_clean_sbu_0--node2-MIFKUJ_clean_sbu_0--edge1-ZUJKAS_clean_linker_0
_symmetry_space_group_name_H-M    P1
_symmetry_Int_Tables_number       1
_symmetry_cell_setting            triclinic
loop_
_symmetry_equiv_pos_as_xyz
'x, y, z'
_cell_length_a     71.268196
_cell_length_b     71.569039
_cell_length_c     70.836069
_cell_angle_alpha  94.213514
_cell_angle_beta   94.321733
_cell_angle_gamma 98.721349
loop_
_atom_site_label
_atom_site_type_symbol
_atom_site_fract_x
_atom_site_fract_y
_atom_site_fract_z
_atom_type_partial_charge
Mn0 Mn 0.01936 0.27048 0.4016 0.0
Mn1 Mn 0.02148 0.29966 0.36613 0.0
C2 C 0.99171 0.27874 0.38754 0.0
C3 C 0.01757 0.24083 0.41363 0.0
C4 C 0.03121 0.31369 0.40754 0.0
O5 O 0.04576 0.26912 0.39275 0.0
O6 O 0.04527 0.28852 0.36908 0.0
C7 C 0.02127 0.27075 0.33393 0.0
N8 N 0.01356 0.28518 0.34236 0.0
C9 C 0.99033 0.28406 0.31566 0.0
C10 C 0.99807 0.26925 0.30665 0.0
C11 C 0.01356 0.26252 0.31586 0.0
C12 C 0.99854 0.29162 0.33371 0.0
H13 H 0.03322 0.26559 0.34094 0.0
C14 C 0.05335 0.27737 0.37917 0.0
O15 O 0.02472 0.25637 0.4239 0.0
O16 O 0.01179 0.2424 0.39604 0.0
N17 N 0.99941 0.31141 0.36144 0.0
C18 C 0.99316 0.32525 0.37241 0.0
C19 C 0.97783 0.33361 0.36526 0.0
C20 C 0.96921 0.32779 0.34687 0.0
C21 C 0.97573 0.31335 0.33592 0.0
C22 C 0.99119 0.30568 0.34373 0.0
H23 H 0.9999 0.32998 0.38646 0.0
O24 O 0.99218 0.27307 0.40454 0.0
O25 O 0.00739 0.27933 0.37918 0.0
O26 O 0.02808 0.29743 0.41389 0.0
O27 O 0.0294 0.31613 0.38987 0.0
C28 C 0.96754 0.30628 0.31756 0.0
C29 C 0.97472 0.29153 0.30752 0.0
H30 H 0.99219 0.26288 0.2927 0.0
H31 H 0.01957 0.25105 0.30902 0.0
H32 H 0.9728 0.34468 0.37381 0.0
H33 H 0.95765 0.33458 0.3413 0.0
H34 H 0.95561 0.31197 0.31109 0.0
H35 H 0.96814 0.28604 0.29353 0.0
Mn36 Mn 0.00405 0.74903 0.64268 0.0
Mn37 Mn 0.02387 0.77829 0.681 0.0
C38 C 0.03598 0.75072 0.65233 0.0
C39 C 0.98844 0.71996 0.62824 0.0
C40 C 0.01561 0.79207 0.64234 0.0
O41 O 0.98087 0.75461 0.65586 0.0
O42 O 0.99561 0.77374 0.681 0.0
C43 C 0.01334 0.75237 0.71055 0.0
N44 N 0.02691 0.76365 0.70221 0.0
C45 C 0.05162 0.75746 0.72488 0.0
C46 C 0.0379 0.74586 0.73378 0.0
C47 C 0.01869 0.74326 0.72654 0.0
C48 C 0.04544 0.76614 0.70897 0.0
H49 H 0.99857 0.75033 0.70504 0.0
C50 C 0.98055 0.76489 0.67132 0.0
O51 O 0.98784 0.73561 0.62023 0.0
O52 O 0.99734 0.72133 0.6451 0.0
N53 N 0.05111 0.78399 0.68324 0.0
C54 C 0.06267 0.79499 0.67254 0.0
C55 C 0.08234 0.79896 0.67785 0.0
C56 C 0.08989 0.79174 0.69417 0.0
C57 C 0.07774 0.78044 0.70493 0.0
C58 C 0.05823 0.77713 0.69908 0.0
H59 H 0.05694 0.80068 0.66005 0.0
O60 O 0.0295 0.74484 0.63497 0.0
O61 O 0.0236 0.75542 0.66367 0.0
O62 O 0.00832 0.77589 0.63411 0.0
O63 O 0.02187 0.79462 0.65985 0.0
C64 C 0.08424 0.77213 0.72111 0.0
C65 C 0.0712 0.76057 0.73102 0.0
H66 H 0.04197 0.7388 0.74611 0.0
H67 H 0.00803 0.73427 0.73329 0.0
H68 H 0.09166 0.80763 0.66943 0.0
H69 H 0.10505 0.79494 0.6983 0.0
H70 H 0.09927 0.77434 0.72591 0.0
H71 H 0.0764 0.75406 0.7433 0.0
Mn72 Mn 0.5153 0.7644 0.90153 0.0
Mn73 Mn 0.51237 0.79146 0.86462 0.0
C74 C 0.48599 0.77037 0.88939 0.0
C75 C 0.51652 0.73548 0.91418 0.0
C76 C 0.5254 0.8076 0.90508 0.0
O77 O 0.54107 0.76458 0.89079 0.0
O78 O 0.53666 0.78099 0.86527 0.0
C79 C 0.50954 0.76141 0.83302 0.0
N80 N 0.50226 0.77583 0.84201 0.0
C81 C 0.47559 0.77219 0.81836 0.0
C82 C 0.48287 0.75739 0.80878 0.0
C83 C 0.49988 0.75195 0.81617 0.0
C84 C 0.48585 0.78112 0.83507 0.0
H85 H 0.52259 0.75715 0.83867 0.0
C86 C 0.54656 0.77143 0.8756 0.0
O87 O 0.52348 0.75147 0.92379 0.0
O88 O 0.50928 0.73623 0.89691 0.0
N89 N 0.48944 0.80231 0.8621 0.0
C90 C 0.48392 0.81631 0.87349 0.0
C91 C 0.46706 0.82326 0.86822 0.0
C92 C 0.45611 0.81583 0.85127 0.0
C93 C 0.4621 0.80148 0.83975 0.0
C94 C 0.47915 0.79527 0.84563 0.0
H95 H 0.49228 0.82213 0.88651 0.0
O96 O 0.48821 0.76534 0.90655 0.0
O97 O 0.5009 0.77157 0.8798 0.0
O98 O 0.52306 0.79181 0.91242 0.0
O99 O 0.52237 0.80905 0.88728 0.0
C100 C 0.45172 0.79293 0.8228 0.0
C101 C 0.45842 0.77825 0.81215 0.0
H102 H 0.47543 0.75001 0.79582 0.0
H103 H 0.50554 0.74047 0.8089 0.0
H104 H 0.46251 0.83432 0.8772 0.0
H105 H 0.44312 0.82124 0.84727 0.0
H106 H 0.43843 0.79737 0.81795 0.0
H107 H 0.45018 0.77161 0.79928 0.0
Mn108 Mn 0.5031 0.24441 0.14005 0.0
Mn109 Mn 0.47104 0.2451 0.10258 0.0
C110 C 0.48863 0.21642 0.12305 0.0
C111 C 0.53407 0.24541 0.15359 0.0
C112 C 0.46206 0.25124 0.14346 0.0
O113 O 0.50856 0.27187 0.13346 0.0
O114 O 0.48728 0.27025 0.10788 0.0
C115 C 0.49757 0.25012 0.07247 0.0
N116 N 0.48224 0.24002 0.07945 0.0
C117 C 0.4772 0.21751 0.05191 0.0
C118 C 0.49288 0.22771 0.04438 0.0
C119 C 0.50314 0.24406 0.05473 0.0
C120 C 0.47232 0.22424 0.06965 0.0
H121 H 0.50549 0.26268 0.08039 0.0
C122 C 0.50075 0.27926 0.11962 0.0
O123 O 0.52065 0.24993 0.16357 0.0
O124 O 0.52962 0.24072 0.13556 0.0
N125 N 0.45457 0.22149 0.09585 0.0
C126 C 0.44049 0.21272 0.1056 0.0
C127 C 0.42902 0.196 0.09734 0.0
C128 C 0.43207 0.18856 0.07913 0.0
C129 C 0.44674 0.19778 0.06941 0.0
C130 C 0.45758 0.21449 0.07828 0.0
H131 H 0.438 0.21845 0.11955 0.0
O132 O 0.49568 0.21632 0.14048 0.0
O133 O 0.49012 0.23285 0.11621 0.0
O134 O 0.47833 0.24912 0.15094 0.0
O135 O 0.45788 0.25014 0.12554 0.0
C136 C 0.45112 0.19097 0.05135 0.0
C137 C 0.46641 0.20077 0.04266 0.0
H138 H 0.49726 0.22306 0.03072 0.0
H139 H 0.51531 0.25197 0.04905 0.0
H140 H 0.41778 0.18892 0.10496 0.0
H141 H 0.42309 0.17573 0.07278 0.0
H142 H 0.44297 0.17809 0.04412 0.0
H143 H 0.46982 0.19524 0.0289 0.0
Mn144 Mn 0.01954 0.76671 0.14318 0.0
Mn145 Mn 0.9861 0.75263 0.1065 0.0
C146 C 0.01591 0.73612 0.12883 0.0
C147 C 0.04974 0.78057 0.15653 0.0
C148 C 0.97696 0.75539 0.14746 0.0
O149 O 0.01326 0.79183 0.13475 0.0
O150 O 0.99145 0.78074 0.11032 0.0
C151 C 0.00857 0.76708 0.07564 0.0
N152 N 0.998 0.75248 0.08323 0.0
C153 C 0.99911 0.73137 0.05546 0.0
C154 C 0.00998 0.74619 0.0473 0.0
C155 C 0.01484 0.76409 0.0575 0.0
C156 C 0.9936 0.73511 0.07373 0.0
H157 H 0.01212 0.78092 0.08334 0.0
C158 C 0.00154 0.79437 0.121 0.0
O159 O 0.03491 0.77973 0.16614 0.0
O160 O 0.04697 0.77391 0.13879 0.0
N161 N 0.97934 0.72584 0.10076 0.0
C162 C 0.9693 0.71294 0.11092 0.0
C163 C 0.96331 0.69432 0.10277 0.0
C164 C 0.96734 0.68927 0.08415 0.0
C165 C 0.97772 0.70279 0.07398 0.0
C166 C 0.98348 0.72107 0.08291 0.0
H167 H 0.96574 0.71689 0.12506 0.0
O168 O 0.0238 0.74017 0.14606 0.0
O169 O 0.01055 0.75016 0.12026 0.0
O170 O 0.994 0.76119 0.15439 0.0
O171 O 0.97228 0.75188 0.12967 0.0
C172 C 0.98247 0.6989 0.05529 0.0
C173 C 0.99341 0.71309 0.04615 0.0
H174 H 0.01466 0.74398 0.03322 0.0
H175 H 0.02324 0.77559 0.05131 0.0
H176 H 0.95534 0.68395 0.11071 0.0
H177 H 0.96243 0.67496 0.07781 0.0
H178 H 0.97796 0.68497 0.04787 0.0
H179 H 0.99725 0.70981 0.03191 0.0
Mn180 Mn 0.49624 0.74449 0.38039 0.0
Mn181 Mn 0.48554 0.76942 0.34334 0.0
C182 C 0.46485 0.7424 0.3681 0.0
C183 C 0.50554 0.71783 0.39315 0.0
C184 C 0.49494 0.78708 0.38385 0.0
O185 O 0.52201 0.7517 0.36982 0.0
O186 O 0.51254 0.76568 0.34407 0.0
C187 C 0.48964 0.74119 0.31181 0.0
N188 N 0.479 0.75293 0.32059 0.0
C189 C 0.45346 0.745 0.29575 0.0
C190 C 0.46417 0.73289 0.28638 0.0
C191 C 0.4823 0.73091 0.29449 0.0
C192 C 0.46147 0.75477 0.31302 0.0
H193 H 0.5036 0.73969 0.31798 0.0
C194 C 0.5253 0.75943 0.35445 0.0
O195 O 0.50834 0.7343 0.40274 0.0
O196 O 0.49776 0.71691 0.37584 0.0
N197 N 0.45981 0.77413 0.34051 0.0
C198 C 0.45099 0.78574 0.35176 0.0
C199 C 0.43278 0.78934 0.34565 0.0
C200 C 0.42392 0.78113 0.32797 0.0
C201 C 0.43318 0.76909 0.31672 0.0
C202 C 0.45141 0.76623 0.32344 0.0
H203 H 0.45786 0.79238 0.36521 0.0
O204 O 0.46882 0.73798 0.38523 0.0
O205 O 0.47932 0.74769 0.35852 0.0
O206 O 0.49671 0.77174 0.39134 0.0
O207 O 0.49156 0.78786 0.36599 0.0
C208 C 0.42498 0.75973 0.29917 0.0
C209 C 0.43507 0.74758 0.28875 0.0
H210 H 0.45858 0.72496 0.27301 0.0
H211 H 0.49063 0.72155 0.28738 0.0
H212 H 0.42566 0.79858 0.35444 0.0
H213 H 0.41 0.78416 0.32317 0.0
H214 H 0.41084 0.76157 0.29368 0.0
H215 H 0.42851 0.74024 0.27541 0.0
Mn216 Mn 0.52432 0.2648 0.63937 0.0
Mn217 Mn 0.49206 0.24703 0.60257 0.0
C218 C 0.52204 0.23351 0.62766 0.0
C219 C 0.55413 0.28005 0.65247 0.0
C220 C 0.48167 0.25256 0.64296 0.0
O221 O 0.5174 0.28867 0.62852 0.0
O222 O 0.49623 0.27523 0.60435 0.0
C223 C 0.51499 0.26003 0.57148 0.0
N224 N 0.50476 0.24572 0.57982 0.0
C225 C 0.50865 0.22289 0.55434 0.0
C226 C 0.51915 0.23738 0.54542 0.0
C227 C 0.52241 0.25602 0.55409 0.0
C228 C 0.50175 0.22771 0.57173 0.0
H229 H 0.51744 0.27439 0.57804 0.0
C230 C 0.50576 0.28979 0.6142 0.0
O231 O 0.5391 0.27981 0.66174 0.0
O232 O 0.55171 0.27216 0.63516 0.0
N233 N 0.48653 0.21995 0.59868 0.0
C234 C 0.47678 0.20749 0.60949 0.0
C235 C 0.47272 0.18816 0.60305 0.0
C236 C 0.47838 0.1819 0.5854 0.0
C237 C 0.48815 0.19503 0.5744 0.0
C238 C 0.49191 0.21409 0.58162 0.0
H239 H 0.47219 0.21226 0.62296 0.0
O240 O 0.52939 0.23907 0.64483 0.0
O241 O 0.51635 0.24647 0.61761 0.0
O242 O 0.49843 0.25952 0.65006 0.0
O243 O 0.47757 0.24741 0.6253 0.0
C244 C 0.49442 0.18995 0.55661 0.0
C245 C 0.50482 0.20383 0.54667 0.0
H246 H 0.52483 0.23436 0.53197 0.0
H247 H 0.53054 0.26728 0.54733 0.0
H248 H 0.46516 0.17811 0.61161 0.0
H249 H 0.4752 0.16698 0.58048 0.0
H250 H 0.49148 0.17538 0.5505 0.0
H251 H 0.50983 0.19969 0.53316 0.0
Mn252 Mn 0.00023 0.24918 0.88565 0.0
Mn253 Mn 0.99362 0.27557 0.84863 0.0
C254 C 0.96983 0.24815 0.87113 0.0
C255 C 0.0081 0.22201 0.89849 0.0
C256 C 0.999 0.29187 0.88973 0.0
O257 O 0.02707 0.25616 0.87765 0.0
O258 O 0.02069 0.27213 0.8524 0.0
C259 C 0.00154 0.24819 0.81796 0.0
N260 N 0.98987 0.25971 0.82534 0.0
C261 C 0.96746 0.25254 0.79767 0.0
C262 C 0.97928 0.24067 0.78972 0.0
C263 C 0.99635 0.23842 0.79995 0.0
C264 C 0.97334 0.26182 0.81571 0.0
H265 H 0.0147 0.24649 0.82576 0.0
C266 C 0.03222 0.26505 0.86349 0.0
O267 O 0.01025 0.23821 0.90852 0.0
O268 O 0.00158 0.2216 0.8808 0.0
N269 N 0.96828 0.28035 0.84269 0.0
C270 C 0.95827 0.29192 0.8526 0.0
C271 C 0.941 0.29591 0.84425 0.0
C272 C 0.93415 0.28794 0.82584 0.0
C273 C 0.94471 0.27614 0.8159 0.0
C274 C 0.96205 0.27303 0.82477 0.0
H275 H 0.96354 0.29826 0.86667 0.0
O276 O 0.97242 0.24308 0.88823 0.0
O277 O 0.98518 0.25331 0.86264 0.0
O278 O 0.00042 0.27631 0.89694 0.0
O279 O 0.99691 0.29323 0.87185 0.0
C280 C 0.93867 0.26725 0.79758 0.0
C281 C 0.94998 0.25535 0.78852 0.0
H282 H 0.97534 0.23312 0.77582 0.0
H283 H 0.00551 0.22923 0.79394 0.0
H284 H 0.93297 0.30513 0.85199 0.0
H285 H 0.92072 0.29093 0.81952 0.0
H286 H 0.92526 0.26931 0.79041 0.0
H287 H 0.94507 0.2484 0.77454 0.0
Mn288 Mn 0.39162 0.01976 0.28048 0.0
Mn289 Mn 0.35601 0.01086 0.30901 0.0
C290 C 0.38208 0.98931 0.28862 0.0
C291 C 0.40304 0.02249 0.2507 0.0
C292 C 0.39625 0.02881 0.32366 0.0
O293 O 0.37857 0.04317 0.27899 0.0
O294 O 0.35476 0.03522 0.29753 0.0
C295 C 0.3234 0.00521 0.27957 0.0
N296 N 0.33344 0.99859 0.29408 0.0
C297 C 0.31156 0.96921 0.29145 0.0
C298 C 0.30094 0.97576 0.27656 0.0
C299 C 0.30691 0.99383 0.27057 0.0
C300 C 0.32784 0.98121 0.29991 0.0
H301 H 0.32797 0.01906 0.27486 0.0
C302 C 0.36353 0.04639 0.28658 0.0
O303 O 0.41278 0.0309 0.26601 0.0
O304 O 0.38627 0.0132 0.2526 0.0
N305 N 0.35532 0.98753 0.32076 0.0
C306 C 0.36758 0.983 0.33478 0.0
C307 C 0.36381 0.96527 0.34217 0.0
C308 C 0.34743 0.95244 0.33516 0.0
C309 C 0.33495 0.95747 0.32084 0.0
C310 C 0.33935 0.97541 0.31415 0.0
H311 H 0.38019 0.99279 0.34023 0.0
O312 O 0.39898 0.99415 0.28319 0.0
O313 O 0.37129 0.00239 0.28912 0.0
O314 O 0.40303 0.02866 0.30753 0.0
O315 O 0.37876 0.02288 0.32578 0.0
C316 C 0.31845 0.94528 0.31275 0.0
C317 C 0.3068 0.95112 0.29803 0.0
H318 H 0.28825 0.96699 0.26953 0.0
H319 H 0.29883 0.99895 0.25903 0.0
H320 H 0.37352 0.96148 0.35321 0.0
H321 H 0.34464 0.93874 0.34083 0.0
H322 H 0.3147 0.9313 0.31759 0.0
H323 H 0.29429 0.94153 0.29175 0.0
Mn324 Mn 0.26122 0.13516 0.50048 0.0
Mn325 Mn 0.25598 0.09944 0.46571 0.0
C326 C 0.23102 0.12035 0.48848 0.0
C327 C 0.26483 0.14634 0.53255 0.0
C328 C 0.26712 0.14084 0.45878 0.0
O329 O 0.2874 0.12663 0.50189 0.0
O330 O 0.28165 0.10186 0.47951 0.0
C331 C 0.25682 0.06694 0.48916 0.0
N332 N 0.24769 0.07577 0.47568 0.0
C333 C 0.22127 0.05012 0.47136 0.0
C334 C 0.23044 0.0407 0.48513 0.0
C335 C 0.24827 0.04917 0.4941 0.0
C336 C 0.23052 0.06776 0.46698 0.0
H337 H 0.27052 0.0734 0.49611 0.0
C338 C 0.29244 0.11243 0.49267 0.0
O339 O 0.27043 0.1572 0.51951 0.0
O340 O 0.25767 0.12886 0.52704 0.0
N341 N 0.23153 0.09548 0.4516 0.0
C342 C 0.22403 0.107 0.43959 0.0
C343 C 0.20601 0.10085 0.42983 0.0
C344 C 0.19595 0.08291 0.43244 0.0
C345 C 0.20392 0.07134 0.44495 0.0
C346 C 0.22198 0.07818 0.45419 0.0
H347 H 0.23173 0.12077 0.43748 0.0
O348 O 0.23351 0.13743 0.49681 0.0
O349 O 0.2463 0.11266 0.48724 0.0
O350 O 0.26616 0.14761 0.47577 0.0
O351 O 0.26416 0.12308 0.45368 0.0
C352 C 0.19456 0.05341 0.44879 0.0
C353 C 0.20319 0.04284 0.46205 0.0
H354 H 0.22385 0.02704 0.48904 0.0
H355 H 0.25539 0.04204 0.5048 0.0
H356 H 0.19991 0.10989 0.42028 0.0
H357 H 0.18207 0.07822 0.42486 0.0
H358 H 0.18061 0.0477 0.44181 0.0
H359 H 0.19571 0.02921 0.46511 0.0
Mn360 Mn 0.13146 0.00395 0.78101 0.0
Mn361 Mn 0.16849 0.01203 0.8148 0.0
C362 C 0.14659 0.03463 0.79029 0.0
C363 C 0.11884 0.99832 0.74928 0.0
C364 C 0.1273 0.00212 0.82371 0.0
O365 O 0.14014 0.97797 0.78139 0.0
O366 O 0.16529 0.98538 0.80342 0.0
C367 C 0.19987 0.00816 0.79037 0.0
N368 N 0.19172 0.01872 0.80329 0.0
C369 C 0.2174 0.04487 0.80383 0.0
C370 C 0.22611 0.03423 0.79063 0.0
C371 C 0.21729 0.01582 0.78386 0.0
C372 C 0.2001 0.03645 0.80991 0.0
H373 H 0.19311 0.99403 0.78505 0.0
C374 C 0.15452 0.97368 0.79112 0.0
O375 O 0.10858 0.99384 0.76314 0.0
O376 O 0.13664 0.00527 0.75382 0.0
N377 N 0.17328 0.03746 0.82655 0.0
C378 C 0.16248 0.04625 0.8384 0.0
C379 C 0.16904 0.06499 0.846 0.0
C380 C 0.18663 0.07446 0.84141 0.0
C381 C 0.19755 0.06509 0.82931 0.0
C382 C 0.19036 0.04636 0.82228 0.0
H383 H 0.14892 0.03907 0.84193 0.0
O384 O 0.12917 0.03162 0.78261 0.0
O385 O 0.15443 0.01963 0.79256 0.0
O386 O 0.12 0.00102 0.80658 0.0
O387 O 0.14526 0.00579 0.82823 0.0
C388 C 0.21511 0.07371 0.82366 0.0
C389 C 0.22501 0.06362 0.81091 0.0
H390 H 0.23949 0.04013 0.78547 0.0
H391 H 0.22388 0.00756 0.77359 0.0
H392 H 0.16051 0.07214 0.8553 0.0
H393 H 0.19154 0.08898 0.84716 0.0
H394 H 0.22102 0.08818 0.82884 0.0
H395 H 0.23836 0.0705 0.80646 0.0
Mn396 Mn 0.25017 0.87272 0.00308 0.0
Mn397 Mn 0.25774 0.90868 0.97489 0.0
C398 C 0.28033 0.88268 0.99428 0.0
C399 C 0.24816 0.86116 0.03281 0.0
C400 C 0.23954 0.86869 0.96023 0.0
O401 O 0.22649 0.8853 0.00515 0.0
O402 O 0.23396 0.90992 0.98752 0.0
C403 C 0.26477 0.9409 0.00459 0.0
N404 N 0.27074 0.93097 0.98964 0.0
C405 C 0.30035 0.95252 0.99138 0.0
C406 C 0.29446 0.96304 0.00671 0.0
C407 C 0.27661 0.95718 0.01336 0.0
C408 C 0.2879 0.93648 0.98314 0.0
H409 H 0.25111 0.93641 0.00981 0.0
C410 C 0.22308 0.90065 0.99841 0.0
O411 O 0.23959 0.85143 0.01757 0.0
O412 O 0.25725 0.87796 0.03086 0.0
N413 N 0.28056 0.9093 0.96214 0.0
C414 C 0.28453 0.89706 0.94787 0.0
C415 C 0.30206 0.90063 0.93994 0.0
C416 C 0.31528 0.91678 0.94668 0.0
C417 C 0.31082 0.92927 0.96126 0.0
C418 C 0.29306 0.92506 0.96851 0.0
H419 H 0.27444 0.8846 0.94264 0.0
O420 O 0.27592 0.86579 0.99976 0.0
O421 O 0.26702 0.89323 0.99422 0.0
O422 O 0.24091 0.86155 0.97612 0.0
O423 O 0.24477 0.88626 0.95822 0.0
C424 C 0.32343 0.94554 0.9691 0.0
C425 C 0.31822 0.95713 0.98418 0.0
H426 H 0.3036 0.97555 0.01358 0.0
H427 H 0.27201 0.96517 0.02525 0.0
H428 H 0.30541 0.89092 0.92871 0.0
H429 H 0.32886 0.9194 0.94064 0.0
H430 H 0.33727 0.94915 0.96381 0.0
H431 H 0.32814 0.96946 0.99027 0.0
Mn432 Mn 0.26564 0.37939 0.03598 0.0
Mn433 Mn 0.27526 0.41821 0.01148 0.0
C434 C 0.29704 0.39394 0.03503 0.0
C435 C 0.25764 0.36432 0.06324 0.0
C436 C 0.26645 0.37818 0.99254 0.0
O437 O 0.23958 0.38809 0.03241 0.0
O438 O 0.24816 0.41376 0.0167 0.0
C439 C 0.2693 0.44689 0.04184 0.0
N440 N 0.28045 0.44048 0.02879 0.0
C441 C 0.30446 0.46808 0.03612 0.0
C442 C 0.2932 0.47503 0.04958 0.0
C443 C 0.27558 0.46434 0.0525 0.0
C444 C 0.2975 0.45055 0.02601 0.0
H445 H 0.25572 0.43874 0.04405 0.0
C446 C 0.23572 0.40254 0.02424 0.0
O447 O 0.25412 0.35561 0.04635 0.0
O448 O 0.26536 0.38207 0.06433 0.0
N449 N 0.30083 0.4249 0.00504 0.0
C450 C 0.31008 0.416 0.99178 0.0
C451 C 0.32773 0.42495 0.98687 0.0
C452 C 0.33573 0.44292 0.99568 0.0
C453 C 0.3259 0.45186 0.00918 0.0
C454 C 0.30814 0.44244 0.01316 0.0
H455 H 0.30391 0.40229 0.98479 0.0
O456 O 0.2931 0.37641 0.03891 0.0
O457 O 0.2825 0.40276 0.03206 0.0
O458 O 0.26401 0.36993 0.00773 0.0
O459 O 0.27052 0.39615 0.99237 0.0
C460 C 0.33304 0.46971 0.01891 0.0
C461 C 0.32239 0.47775 0.03247 0.0
H462 H 0.29797 0.4885 0.05781 0.0
H463 H 0.26684 0.46958 0.0629 0.0
H464 H 0.33515 0.41803 0.9763 0.0
H465 H 0.34946 0.4497 0.99199 0.0
H466 H 0.3468 0.47727 0.01622 0.0
H467 H 0.32813 0.49136 0.04004 0.0
Mn468 Mn 0.76769 0.1467 0.02586 0.0
Mn469 Mn 0.74657 0.10826 0.99713 0.0
C470 C 0.73551 0.13611 0.0263 0.0
C471 C 0.78382 0.16118 0.05422 0.0
C472 C 0.7566 0.14729 0.98334 0.0
O473 O 0.79025 0.13439 0.01824 0.0
O474 O 0.7746 0.10873 1.00019 0.0
C475 C 0.7548 0.07862 0.02219 0.0
N476 N 0.74201 0.08685 0.01169 0.0
C477 C 0.71596 0.0636 0.01876 0.0
C478 C 0.72886 0.05481 0.02956 0.0
C479 C 0.74835 0.06239 0.03133 0.0
C480 C 0.72322 0.07975 0.01001 0.0
H481 H 0.76979 0.08439 0.02356 0.0
C482 C 0.78997 0.11886 0.00804 0.0
O483 O 0.78473 0.16939 0.03851 0.0
O484 O 0.7743 0.14411 0.05325 0.0
N485 N 0.71943 0.10562 0.99284 0.0
C486 C 0.70877 0.11622 0.98253 0.0
C487 C 0.68896 0.11057 0.97943 0.0
C488 C 0.68035 0.094 0.98678 0.0
C489 C 0.69159 0.08334 0.99736 0.0
C490 C 0.71129 0.08955 0.9998 0.0
H491 H 0.71533 0.12886 0.97666 0.0
O492 O 0.74268 0.1535 0.03218 0.0
O493 O 0.74738 0.12527 0.02044 0.0
O494 O 0.76372 0.15558 0.99936 0.0
O495 O 0.75011 0.12957 0.98084 0.0
C496 C 0.68401 0.06691 0.00574 0.0
C497 C 0.69618 0.0571 0.01651 0.0
H498 H 0.72395 0.0423 0.03665 0.0
H499 H 0.75839 0.05573 0.0397 0.0
H500 H 0.68036 0.1189 0.9713 0.0
H501 H 0.66509 0.08959 0.98423 0.0
H502 H 0.66881 0.06185 0.00419 0.0
H503 H 0.69015 0.04463 0.0231 0.0
Mn504 Mn 0.13092 0.50068 0.26693 0.0
Mn505 Mn 0.1672 0.52284 0.29801 0.0
C506 C 0.13913 0.5333 0.26847 0.0
C507 C 0.11784 0.48552 0.23766 0.0
C508 C 0.12783 0.50917 0.30953 0.0
O509 O 0.14496 0.47899 0.2736 0.0
O510 O 0.16842 0.49529 0.29412 0.0
C511 C 0.19884 0.51749 0.27435 0.0
N512 N 0.18939 0.52918 0.28479 0.0
C513 C 0.21224 0.55647 0.2801 0.0
C514 C 0.22228 0.54471 0.26938 0.0
C515 C 0.2155 0.52515 0.26644 0.0
C516 C 0.19572 0.54804 0.2876 0.0
H517 H 0.1937 0.50244 0.27207 0.0
C518 C 0.15995 0.47988 0.2849 0.0
O519 O 0.10945 0.4829 0.25308 0.0
O520 O 0.13445 0.49619 0.23939 0.0
N521 N 0.16834 0.54961 0.30322 0.0
C522 C 0.15652 0.5591 0.31314 0.0
C523 C 0.16125 0.57881 0.3173 0.0
C524 C 0.17812 0.58853 0.31132 0.0
C525 C 0.18999 0.57849 0.30106 0.0
C526 C 0.18469 0.55882 0.29758 0.0
H527 H 0.14365 0.55167 0.31794 0.0
O528 O 0.12218 0.52508 0.26187 0.0
O529 O 0.151 0.5222 0.27402 0.0
O530 O 0.12091 0.50196 0.29307 0.0
O531 O 0.14505 0.51739 0.3131 0.0
C532 C 0.20678 0.58725 0.29398 0.0
C533 C 0.21785 0.57626 0.28342 0.0
H534 H 0.23512 0.55056 0.26324 0.0
H535 H 0.22312 0.51599 0.25813 0.0
H536 H 0.15196 0.5865 0.32515 0.0
H537 H 0.18174 0.60374 0.31457 0.0
H538 H 0.21118 0.60246 0.29637 0.0
H539 H 0.23058 0.58319 0.27782 0.0
Mn540 Mn 0.76337 0.87751 0.53486 0.0
Mn541 Mn 0.77195 0.91639 0.51023 0.0
C542 C 0.7945 0.89267 0.53375 0.0
C543 C 0.75579 0.86252 0.56226 0.0
C544 C 0.76402 0.87627 0.49142 0.0
O545 O 0.737 0.88548 0.53124 0.0
O546 O 0.74494 0.91135 0.51564 0.0
C547 C 0.76559 0.94478 0.54069 0.0
N548 N 0.77678 0.93868 0.52752 0.0
C549 C 0.80024 0.96673 0.53465 0.0
C550 C 0.78893 0.97338 0.54823 0.0
C551 C 0.77157 0.96231 0.55132 0.0
C552 C 0.7936 0.9491 0.52461 0.0
H553 H 0.7522 0.93634 0.54302 0.0
C554 C 0.73276 0.89983 0.52314 0.0
O555 O 0.75247 0.85362 0.54544 0.0
O556 O 0.76307 0.88038 0.56318 0.0
N557 N 0.79734 0.92365 0.50357 0.0
C558 C 0.80657 0.91513 0.49003 0.0
C559 C 0.82387 0.92458 0.48479 0.0
C560 C 0.8316 0.94261 0.49362 0.0
C561 C 0.82178 0.95118 0.50738 0.0
C562 C 0.80432 0.94131 0.51163 0.0
H563 H 0.80062 0.90137 0.48303 0.0
O564 O 0.79097 0.87517 0.5378 0.0
O565 O 0.77972 0.90114 0.53079 0.0
O566 O 0.7619 0.86798 0.50663 0.0
O567 O 0.76757 0.89428 0.49122 0.0
C568 C 0.82861 0.96911 0.51706 0.0
C569 C 0.81791 0.97682 0.5308 0.0
H570 H 0.79347 0.98691 0.55643 0.0
H571 H 0.76279 0.96731 0.56182 0.0
H572 H 0.83123 0.91797 0.47395 0.0
H573 H 0.84509 0.94975 0.4897 0.0
H574 H 0.84214 0.97702 0.51417 0.0
H575 H 0.82341 0.99052 0.53831 0.0
Mn576 Mn 0.88964 0.00284 0.2446 0.0
Mn577 Mn 0.84918 0.9921 0.26638 0.0
C578 C 0.87548 0.97133 0.2446 0.0
C579 C 0.90558 0.01181 0.21813 0.0
C580 C 0.88852 0.00289 0.2876 0.0
O581 O 0.88021 0.02847 0.24846 0.0
O582 O 0.85166 0.01853 0.25912 0.0
C583 C 0.82124 0.99324 0.23352 0.0
N584 N 0.82786 0.98398 0.24811 0.0
C585 C 0.8023 0.95772 0.24099 0.0
C586 C 0.79499 0.96713 0.22609 0.0
C587 C 0.80459 0.98491 0.22225 0.0
C588 C 0.81899 0.96669 0.25165 0.0
H589 H 0.82868 0.00681 0.23046 0.0
C590 C 0.86394 0.03137 0.25342 0.0
O591 O 0.91381 0.01504 0.23526 0.0
O592 O 0.88782 0.00386 0.21636 0.0
N593 N 0.84444 0.96695 0.27431 0.0
C594 C 0.85394 0.95929 0.28849 0.0
C595 C 0.8463 0.9415 0.29407 0.0
C596 C 0.82888 0.93186 0.28518 0.0
C597 C 0.81946 0.9399 0.27051 0.0
C598 C 0.82762 0.9578 0.26575 0.0
H599 H 0.86714 0.96678 0.29565 0.0
O600 O 0.89322 0.97557 0.2413 0.0
O601 O 0.86637 0.98559 0.24733 0.0
O602 O 0.89787 0.00387 0.27296 0.0
O603 O 0.87032 0.99971 0.28664 0.0
C604 C 0.80236 0.93082 0.26033 0.0
C605 C 0.79387 0.93966 0.24548 0.0
H606 H 0.78216 0.96075 0.21736 0.0
H607 H 0.79917 0.99217 0.21064 0.0
H608 H 0.8537 0.93532 0.30535 0.0
H609 H 0.82288 0.91827 0.28971 0.0
H610 H 0.7958 0.91691 0.26362 0.0
H611 H 0.78092 0.93238 0.23752 0.0
Mn612 Mn 0.26977 0.64123 0.52349 0.0
Mn613 Mn 0.25112 0.60181 0.49493 0.0
C614 C 0.2379 0.62876 0.52337 0.0
C615 C 0.28478 0.65732 0.55167 0.0
C616 C 0.25803 0.64077 0.48079 0.0
O617 O 0.29354 0.63042 0.51685 0.0
O618 O 0.27935 0.6052 0.49734 0.0
C619 C 0.26359 0.5739 0.52007 0.0
N620 N 0.24943 0.58047 0.50976 0.0
C621 C 0.22627 0.5543 0.5166 0.0
C622 C 0.24061 0.5472 0.52722 0.0
C623 C 0.25933 0.55711 0.52906 0.0
C624 C 0.23132 0.57124 0.5082 0.0
H625 H 0.27803 0.58137 0.52138 0.0
C626 C 0.29418 0.61572 0.50573 0.0
O627 O 0.2853 0.66499 0.53567 0.0
O628 O 0.27624 0.63987 0.55119 0.0
N629 N 0.22394 0.59611 0.49108 0.0
C630 C 0.21171 0.60503 0.48062 0.0
C631 C 0.19236 0.59706 0.4776 0.0
C632 C 0.18589 0.57975 0.48493 0.0
C633 C 0.1988 0.57065 0.49535 0.0
C634 C 0.21787 0.57938 0.49807 0.0
H635 H 0.21669 0.61815 0.47464 0.0
O636 O 0.24398 0.64645 0.52895 0.0
O637 O 0.25064 0.61863 0.51815 0.0
O638 O 0.2656 0.64925 0.49659 0.0
O639 O 0.2519 0.62298 0.47851 0.0
C640 C 0.19352 0.55324 0.50314 0.0
C641 C 0.20719 0.5452 0.51394 0.0
H642 H 0.2374 0.53417 0.53404 0.0
H643 H 0.27047 0.55174 0.53726 0.0
H644 H 0.1825 0.60414 0.4695 0.0
H645 H 0.17097 0.57359 0.48247 0.0
H646 H 0.17895 0.54598 0.50103 0.0
H647 H 0.20289 0.53196 0.52009 0.0
Mn648 Mn 0.39003 0.50276 0.75286 0.0
Mn649 Mn 0.35093 0.49277 0.77705 0.0
C650 C 0.37562 0.47141 0.75358 0.0
C651 C 0.40513 0.51115 0.72571 0.0
C652 C 0.39109 0.50151 0.79625 0.0
O653 O 0.38121 0.52862 0.75662 0.0
O654 O 0.35524 0.51981 0.77191 0.0
C655 C 0.32226 0.49865 0.74646 0.0
N656 N 0.32867 0.48754 0.75955 0.0
C657 C 0.30115 0.46347 0.75189 0.0
C658 C 0.29419 0.47468 0.73839 0.0
C659 C 0.30484 0.49231 0.73561 0.0
C660 C 0.31865 0.47048 0.76218 0.0
H661 H 0.33038 0.51223 0.74435 0.0
C662 C 0.36653 0.53231 0.76456 0.0
O663 O 0.41389 0.51443 0.74261 0.0
O664 O 0.38732 0.50341 0.72454 0.0
N665 N 0.3443 0.46726 0.7834 0.0
C666 C 0.35313 0.45813 0.79684 0.0
C667 C 0.34414 0.44054 0.80172 0.0
C668 C 0.32623 0.43244 0.79267 0.0
C669 C 0.31734 0.44216 0.779 0.0
C670 C 0.32677 0.4599 0.7751 0.0
H671 H 0.3668 0.46435 0.80401 0.0
O672 O 0.3932 0.4755 0.7497 0.0
O673 O 0.36663 0.48578 0.75658 0.0
O674 O 0.39946 0.50408 0.78114 0.0
O675 O 0.37302 0.4975 0.79629 0.0
C676 C 0.29953 0.43496 0.76908 0.0
C677 C 0.2915 0.44554 0.75543 0.0
H678 H 0.28074 0.46986 0.73002 0.0
H679 H 0.29959 0.50102 0.72517 0.0
H680 H 0.351 0.43324 0.81246 0.0
H681 H 0.31944 0.41875 0.79632 0.0
H682 H 0.29197 0.42122 0.77171 0.0
H683 H 0.27791 0.43976 0.74772 0.0
Mn684 Mn 0.63157 0.99981 0.75959 0.0
Mn685 Mn 0.67008 0.02264 0.78745 0.0
C686 C 0.64037 0.0322 0.75926 0.0
C687 C 0.61645 0.98359 0.7315 0.0
C688 C 0.63192 0.01035 0.80238 0.0
O689 O 0.64577 0.97815 0.76622 0.0
O690 O 0.67089 0.99497 0.78437 0.0
C691 C 0.69954 0.01595 0.7615 0.0
N692 N 0.69095 0.02817 0.77225 0.0
C693 C 0.71285 0.05499 0.76456 0.0
C694 C 0.72199 0.04268 0.75348 0.0
C695 C 0.71526 0.02308 0.75189 0.0
C696 C 0.69722 0.04706 0.77376 0.0
H697 H 0.69443 0.00087 0.76026 0.0
C698 C 0.66154 0.97931 0.77641 0.0
O699 O 0.60909 0.98195 0.74761 0.0
O700 O 0.63317 0.99388 0.73187 0.0
N701 N 0.67154 0.04955 0.79171 0.0
C702 C 0.66068 0.05956 0.80237 0.0
C703 C 0.6655 0.07938 0.80535 0.0
C704 C 0.68152 0.08867 0.79753 0.0
C705 C 0.69246 0.07809 0.7866 0.0
C706 C 0.6871 0.05836 0.78429 0.0
H707 H 0.64848 0.05247 0.8086 0.0
O708 O 0.62298 0.02424 0.75404 0.0
O709 O 0.65221 0.02103 0.76455 0.0
O710 O 0.62355 0.00271 0.78657 0.0
O711 O 0.64938 0.0181 0.80438 0.0
C712 C 0.70836 0.08637 0.77776 0.0
C713 C 0.71849 0.07483 0.76666 0.0
H714 H 0.73412 0.04813 0.74604 0.0
H715 H 0.7222 0.0135 0.74331 0.0
H716 H 0.65695 0.08746 0.81375 0.0
H717 H 0.68529 0.10394 0.79999 0.0
H718 H 0.71276 0.10161 0.7792 0.0
H719 H 0.73054 0.08137 0.75973 0.0
Mn720 Mn 0.76399 0.63874 0.00308 0.0
Mn721 Mn 0.75944 0.60215 0.96932 0.0
C722 C 0.73401 0.62267 0.9919 0.0
C723 C 0.76781 0.65103 0.0349 0.0
C724 C 0.76883 0.64337 0.96098 0.0
O725 O 0.79066 0.63124 0.00439 0.0
O726 O 0.78536 0.60577 0.98282 0.0
C727 C 0.76187 0.57062 0.99378 0.0
N728 N 0.75215 0.57869 0.98009 0.0
C729 C 0.72651 0.55228 0.97679 0.0
C730 C 0.73628 0.54364 0.99078 0.0
C731 C 0.75401 0.55288 0.99934 0.0
C732 C 0.73507 0.56995 0.97178 0.0
H733 H 0.77549 0.57768 1.00042 0.0
C734 C 0.79605 0.617 0.99557 0.0
O735 O 0.77262 0.66153 0.02133 0.0
O736 O 0.76136 0.63324 0.03004 0.0
N737 N 0.73482 0.59703 0.95554 0.0
C738 C 0.72668 0.60784 0.94321 0.0
C739 C 0.70868 0.60086 0.93376 0.0
C740 C 0.69928 0.58283 0.93701 0.0
C741 C 0.70789 0.572 0.94983 0.0
C742 C 0.72591 0.57963 0.95873 0.0
H743 H 0.73386 0.62169 0.9406 0.0
O744 O 0.73602 0.63991 0.99975 0.0
O745 O 0.74961 0.61552 0.99067 0.0
O746 O 0.76787 0.65052 0.97783 0.0
O747 O 0.76657 0.62552 0.95646 0.0
C748 C 0.69921 0.55402 0.95431 0.0
C749 C 0.70847 0.54422 0.96784 0.0
H750 H 0.73023 0.53 0.99517 0.0
H751 H 0.7616 0.54634 0.0102 0.0
H752 H 0.70208 0.60934 0.92395 0.0
H753 H 0.68542 0.5775 0.92965 0.0
H754 H 0.68531 0.54771 0.94762 0.0
H755 H 0.70151 0.53055 0.97139 0.0
Mn756 Mn 0.89551 0.51883 0.78191 0.0
Mn757 Mn 0.858 0.51041 0.80815 0.0
C758 C 0.8849 0.48846 0.78945 0.0
C759 C 0.90855 0.52199 0.75303 0.0
C760 C 0.89777 0.52756 0.82502 0.0
O761 O 0.88309 0.54244 0.7797 0.0
O762 O 0.85793 0.53499 0.7967 0.0
C763 C 0.82705 0.50549 0.777 0.0
N764 N 0.83607 0.49858 0.79199 0.0
C765 C 0.81382 0.46941 0.78798 0.0
C766 C 0.80423 0.47627 0.77258 0.0
C767 C 0.8109 0.49437 0.76705 0.0
C768 C 0.82979 0.48116 0.79741 0.0
H769 H 0.83217 0.51935 0.77263 0.0
C770 C 0.8677 0.54599 0.78629 0.0
O771 O 0.91765 0.53 0.76882 0.0
O772 O 0.89161 0.51261 0.75395 0.0
N773 N 0.8561 0.48693 0.81976 0.0
C774 C 0.86743 0.48207 0.83438 0.0
C775 C 0.8629 0.46425 0.84142 0.0
C776 C 0.84673 0.45166 0.83343 0.0
C777 C 0.8352 0.45703 0.8185 0.0
C778 C 0.84031 0.47505 0.81221 0.0
H779 H 0.87991 0.49165 0.84057 0.0
O780 O 0.90222 0.49306 0.78498 0.0
O781 O 0.87431 0.50172 0.78931 0.0
O782 O 0.90548 0.52735 0.80939 0.0
O783 O 0.88002 0.52196 0.82614 0.0
C784 C 0.81899 0.44509 0.80942 0.0
C785 C 0.80834 0.45126 0.79414 0.0
H786 H 0.79182 0.46771 0.76481 0.0
H787 H 0.80363 0.49973 0.75512 0.0
H788 H 0.87189 0.46021 0.85293 0.0
H789 H 0.84335 0.43789 0.83882 0.0
H790 H 0.81473 0.43104 0.81393 0.0
H791 H 0.79606 0.44185 0.78712 0.0
Mn792 Mn 0.75261 0.37629 0.50828 0.0
Mn793 Mn 0.75192 0.4126 0.48056 0.0
C794 C 0.78051 0.39098 0.4975 0.0
C795 C 0.7546 0.36314 0.53729 0.0
C796 C 0.74014 0.37162 0.46554 0.0
O797 O 0.7272 0.3846 0.51308 0.0
O798 O 0.72799 0.4079 0.49333 0.0
C799 C 0.7525 0.44318 0.51126 0.0
N800 N 0.7602 0.43596 0.49583 0.0
C801 C 0.78342 0.46417 0.49628 0.0
C802 C 0.77569 0.47195 0.51212 0.0
C803 C 0.76024 0.46135 0.51971 0.0
C804 C 0.77527 0.44589 0.48863 0.0
H805 H 0.7405 0.43518 0.51704 0.0
C806 C 0.71987 0.39771 0.50543 0.0
O807 O 0.74627 0.3534 0.52199 0.0
O808 O 0.76147 0.38084 0.5359 0.0
N809 N 0.77418 0.41919 0.46748 0.0
C810 C 0.78051 0.40931 0.45272 0.0
C811 C 0.79622 0.41772 0.44381 0.0
C812 C 0.80497 0.43634 0.44989 0.0
C813 C 0.79808 0.4463 0.465 0.0
C814 C 0.78256 0.43708 0.4735 0.0
H815 H 0.77363 0.3951 0.44779 0.0
O816 O 0.77908 0.37372 0.50237 0.0
O817 O 0.76561 0.39926 0.49913 0.0
O818 O 0.74231 0.36496 0.48158 0.0
O819 O 0.74358 0.38932 0.46335 0.0
C820 C 0.80597 0.46502 0.47195 0.0
C821 C 0.79883 0.47385 0.48773 0.0
H822 H 0.78154 0.48602 0.51858 0.0
H823 H 0.75422 0.46723 0.53196 0.0
H824 H 0.80145 0.40995 0.43217 0.0
H825 H 0.81699 0.44284 0.44289 0.0
H826 H 0.81771 0.47268 0.4654 0.0
H827 H 0.80528 0.4881 0.49317 0.0
Mn828 Mn 0.63452 0.5072 0.28938 0.0
Mn829 Mn 0.67145 0.51138 0.32292 0.0
C830 C 0.65111 0.5369 0.30067 0.0
C831 C 0.622 0.50375 0.2576 0.0
C832 C 0.63012 0.50304 0.33172 0.0
O833 O 0.6416 0.48048 0.28787 0.0
O834 O 0.66681 0.48538 0.30987 0.0
C835 C 0.70243 0.5073 0.29804 0.0
N836 N 0.69489 0.51758 0.31167 0.0
C837 C 0.72283 0.54149 0.31541 0.0
C838 C 0.73093 0.53115 0.30146 0.0
C839 C 0.72063 0.51404 0.29265 0.0
C840 C 0.70452 0.53424 0.31995 0.0
H841 H 0.69466 0.49402 0.2914 0.0
C842 C 0.65556 0.47484 0.29705 0.0
O843 O 0.61145 0.4991 0.2712 0.0
O844 O 0.63994 0.50984 0.26242 0.0
N845 N 0.67769 0.53599 0.33639 0.0
C846 C 0.66757 0.54459 0.34908 0.0
C847 C 0.67564 0.56215 0.35872 0.0
C848 C 0.69414 0.57049 0.35549 0.0
C849 C 0.70435 0.56124 0.34255 0.0
C850 C 0.69545 0.54394 0.33312 0.0
H851 H 0.65346 0.53813 0.35182 0.0
O852 O 0.63377 0.53514 0.2929 0.0
O853 O 0.65812 0.52128 0.30164 0.0
O854 O 0.62284 0.50325 0.31474 0.0
O855 O 0.64808 0.50552 0.33614 0.0
C856 C 0.72305 0.56846 0.33872 0.0
C857 C 0.73225 0.55865 0.32507 0.0
H858 H 0.74503 0.53621 0.29738 0.0
H859 H 0.72677 0.50598 0.28185 0.0
H860 H 0.66768 0.56917 0.36872 0.0
H861 H 0.70037 0.58397 0.36306 0.0
H862 H 0.73038 0.58172 0.34594 0.0
H863 H 0.7465 0.56454 0.32199 0.0
Zn864 Zn 0.02815 0.00392 0.02994 0.0
Zn865 Zn 0.99385 0.02138 0.00558 0.0
C866 C 0.01093 0.97744 0.05238 0.0
O867 O 0.02087 0.99058 0.06465 0.0
C868 C 0.00992 0.04829 0.98321 0.0
O869 O 0.00036 0.03472 0.97116 0.0
O870 O 0.05405 0.99754 0.03857 0.0
O871 O 0.03098 0.00699 0.00211 0.0
O872 O 0.00178 0.0007 0.98814 0.0
C873 C 0.05591 0.9814 0.03072 0.0
O874 O 0.04181 0.97205 0.01909 0.0
O875 O 0.01038 0.98014 0.03479 0.0
C876 C 0.96446 0.04178 0.0066 0.0
O877 O 0.97792 0.05072 0.01919 0.0
O878 O 0.96751 0.02678 0.99726 0.0
O879 O 0.99149 0.01772 0.03342 0.0
O880 O 0.02079 0.02519 0.04689 0.0
O881 O 0.01057 0.0459 0.00087 0.0
C882 C 0.01966 0.00151 0.98735 0.0
C883 C 0.0029 0.02376 0.048 0.0
Zn884 Zn 0.24518 0.75541 0.28123 0.0
Zn885 Zn 0.26593 0.76786 0.24609 0.0
C886 C 0.21561 0.72742 0.26397 0.0
O887 O 0.20597 0.73968 0.27193 0.0
C888 C 0.29522 0.79599 0.26305 0.0
O889 O 0.30473 0.78403 0.25444 0.0
O890 O 0.23789 0.74985 0.30748 0.0
O891 O 0.27365 0.75784 0.2844 0.0
O892 O 0.27915 0.74695 0.25582 0.0
C893 C 0.24153 0.73366 0.31151 0.0
O894 O 0.249 0.72332 0.29888 0.0
O895 O 0.23367 0.73147 0.26485 0.0
C896 C 0.2659 0.78856 0.21523 0.0
O897 O 0.25813 0.79815 0.22824 0.0
O898 O 0.27199 0.77344 0.2195 0.0
O899 O 0.23734 0.76438 0.24342 0.0
O900 O 0.23298 0.77696 0.2716 0.0
O901 O 0.27716 0.79194 0.26233 0.0
C902 C 0.28341 0.74888 0.2737 0.0
C903 C 0.22823 0.77436 0.25384 0.0
Zn904 Zn 0.49111 0.01005 0.53281 0.0
Zn905 Zn 0.52777 0.99542 0.51766 0.0
C906 C 0.5075 0.04091 0.55787 0.0
O907 O 0.4969 0.03019 0.56856 0.0
C908 C 0.51226 0.96588 0.4909 0.0
O909 O 0.52186 0.97819 0.48091 0.0
O910 O 0.46484 0.01715 0.53593 0.0
O911 O 0.49071 0.00312 0.50476 0.0
O912 O 0.52019 0.01485 0.5003 0.0
C913 C 0.46222 0.0309 0.5261 0.0
O914 O 0.47598 0.03802 0.51611 0.0
O915 O 0.50859 0.03477 0.54074 0.0
C916 C 0.55759 0.97593 0.52456 0.0
O917 O 0.54414 0.96849 0.53474 0.0
O918 O 0.55441 0.98949 0.51467 0.0
O919 O 0.52784 0.00164 0.54583 0.0
O920 O 0.49819 0.99086 0.55066 0.0
O921 O 0.51149 0.97024 0.50854 0.0
C922 C 0.5025 0.01218 0.49482 0.0
C923 C 0.51589 0.9932 0.55603 0.0
Zn924 Zn 0.2842 0.24244 0.76234 0.0
Zn925 Zn 0.247 0.25867 0.77474 0.0
C926 C 0.27657 0.21893 0.72907 0.0
O927 O 0.28576 0.20937 0.74081 0.0
C928 C 0.26028 0.2836 0.80651 0.0
O929 O 0.25394 0.29449 0.79414 0.0
O930 O 0.3117 0.23913 0.75985 0.0
O931 O 0.28666 0.27061 0.76953 0.0
O932 O 0.25939 0.27656 0.75681 0.0
C933 C 0.31843 0.2495 0.74731 0.0
O934 O 0.30745 0.26024 0.73903 0.0
O935 O 0.27222 0.23472 0.73532 0.0
C936 C 0.21344 0.25367 0.79164 0.0
O937 O 0.22376 0.24214 0.79957 0.0
O938 O 0.22027 0.26335 0.77866 0.0
O939 O 0.24368 0.23048 0.76756 0.0
O940 O 0.27116 0.22394 0.77934 0.0
O941 O 0.26019 0.26618 0.80126 0.0
C942 C 0.27722 0.28151 0.76077 0.0
C943 C 0.25329 0.21912 0.77538 0.0
Zn944 Zn 0.02138 0.99002 0.52294 0.0
Zn945 Zn 0.00447 0.02682 0.50809 0.0
C946 C 0.04495 0.00345 0.55606 0.0
O947 O 0.05708 0.99837 0.54435 0.0
C948 C 0.97944 0.01304 0.47634 0.0
O949 O 0.96841 0.01951 0.48849 0.0
O950 O 0.02603 0.96337 0.52701 0.0
O951 O 0.99338 0.98688 0.5145 0.0
O952 O 0.98649 0.01416 0.52597 0.0
C953 C 0.01479 0.95599 0.53854 0.0
O954 O 0.00236 0.9659 0.54534 0.0
O955 O 0.02763 0.00273 0.54973 0.0
C956 C 0.00963 0.05989 0.49062 0.0
O957 O 0.02057 0.04898 0.4826 0.0
O958 O 0.99993 0.05358 0.50386 0.0
O959 O 0.03291 0.03039 0.51523 0.0
O960 O 0.03986 0.00248 0.5057 0.0
O961 O 0.99695 0.01334 0.48174 0.0
C962 C 0.98202 0.99626 0.5226 0.0
C963 C 0.04446 0.02039 0.50837 0.0
Zn964 Zn 0.25824 0.77502 0.75429 0.0
Zn965 Zn 0.27014 0.73655 0.76693 0.0
C966 C 0.22814 0.76056 0.72746 0.0
O967 O 0.24012 0.77082 0.71763 0.0
C968 C 0.29883 0.74913 0.79563 0.0
O969 O 0.28605 0.73821 0.804 0.0
O970 O 0.25215 0.80187 0.75298 0.0
O971 O 0.26467 0.77285 0.78211 0.0
O972 O 0.2497 0.74378 0.78329 0.0
C973 C 0.23888 0.8047 0.76346 0.0
O974 O 0.23167 0.79089 0.77328 0.0
O975 O 0.23302 0.75897 0.74484 0.0
C976 C 0.28942 0.7065 0.76012 0.0
O977 O 0.29819 0.72036 0.75131 0.0
O978 O 0.27506 0.70947 0.76895 0.0
O979 O 0.26612 0.73846 0.73882 0.0
O980 O 0.27758 0.76843 0.73631 0.0
O981 O 0.29524 0.7518 0.77825 0.0
C982 C 0.25428 0.76077 0.79065 0.0
C983 C 0.27523 0.75109 0.72983 0.0
Zn984 Zn 0.51588 0.01727 0.00377 0.0
Zn985 Zn 0.50157 0.99905 0.04014 0.0
C986 C 0.54373 0.04706 0.01978 0.0
O987 O 0.53168 0.05593 0.01036 0.0
C988 C 0.47338 0.9698 0.02334 0.0
O989 O 0.48488 0.96044 0.03287 0.0
O990 O 0.5224 0.0223 0.97716 0.0
O991 O 0.5122 0.98893 0.0028 0.0
O992 O 0.5224 0.98472 0.03202 0.0
C993 C 0.53767 0.01598 0.97373 0.0
O994 O 0.5465 0.00808 0.98723 0.0
O995 O 0.53978 0.02915 0.0201 0.0
C996 C 0.4801 0.00171 0.07043 0.0
O997 O 0.47114 0.00922 0.05672 0.0
O998 O 0.49505 0.9948 0.06693 0.0
O999 O 0.50584 0.02745 0.04081 0.0
O1000 O 0.49458 0.03077 0.01175 0.0
O1001 O 0.47766 0.98773 0.0236 0.0
C1002 C 0.5208 0.97964 0.01432 0.0
C1003 C 0.49677 0.03639 0.02932 0.0
Zn1004 Zn 0.26388 0.23971 0.25495 0.0
Zn1005 Zn 0.25774 0.27786 0.27644 0.0
C1006 C 0.29482 0.25245 0.23565 0.0
O1007 O 0.28184 0.24407 0.22229 0.0
C1008 C 0.22884 0.26953 0.29925 0.0
O1009 O 0.24327 0.27909 0.31033 0.0
O1010 O 0.26637 0.21272 0.24606 0.0
O1011 O 0.25792 0.23901 0.28241 0.0
O1012 O 0.27596 0.26582 0.29348 0.0
C1013 C 0.26041 0.19861 0.25511 0.0
O1014 O 0.2495 0.20101 0.26895 0.0
O1015 O 0.2906 0.25322 0.25281 0.0
C1016 C 0.24482 0.31169 0.27422 0.0
O1017 O 0.23509 0.30015 0.26041 0.0
O1018 O 0.25734 0.30552 0.28483 0.0
O1019 O 0.26159 0.27886 0.24848 0.0
O1020 O 0.24655 0.251 0.2363 0.0
O1021 O 0.23114 0.26581 0.28178 0.0
C1022 C 0.26851 0.24895 0.29588 0.0
C1023 C 0.25212 0.2685 0.23459 0.0
Zn1024 Zn 0.5271 0.49042 0.03016 0.0
Zn1025 Zn 0.50919 0.52537 0.01476 0.0
C1026 C 0.55112 0.50562 0.06256 0.0
O1027 O 0.5632 0.50039 0.05087 0.0
C1028 C 0.48483 0.51019 0.98286 0.0
O1029 O 0.47333 0.51641 0.99465 0.0
O1030 O 0.53355 0.46467 0.03514 0.0
O1031 O 0.49875 0.48535 0.02311 0.0
O1032 O 0.49112 0.51295 0.03266 0.0
C1033 C 0.52421 0.45789 0.04837 0.0
O1034 O 0.51192 0.46762 0.05578 0.0
O1035 O 0.5337 0.50442 0.05638 0.0
C1036 C 0.51343 0.55755 0.99612 0.0
O1037 O 0.52469 0.54669 0.98857 0.0
O1038 O 0.50389 0.55159 0.00959 0.0
O1039 O 0.53759 0.53007 0.02229 0.0
O1040 O 0.54444 0.50254 0.01172 0.0
O1041 O 0.50234 0.51112 0.98862 0.0
C1042 C 0.48693 0.49497 0.03005 0.0
C1043 C 0.54904 0.52042 0.01474 0.0
Zn1044 Zn 0.75641 0.27603 0.25758 0.0
Zn1045 Zn 0.77148 0.23854 0.27221 0.0
C1046 C 0.7256 0.25812 0.23252 0.0
O1047 O 0.73671 0.26708 0.22099 0.0
C1048 C 0.80162 0.2515 0.29909 0.0
O1049 O 0.78918 0.24131 0.30851 0.0
O1050 O 0.74907 0.30218 0.25476 0.0
O1051 O 0.76426 0.27603 0.28533 0.0
O1052 O 0.75233 0.24666 0.2897 0.0
C1053 C 0.73526 0.30475 0.26459 0.0
O1054 O 0.72825 0.29109 0.27469 0.0
O1055 O 0.73148 0.25864 0.24998 0.0
C1056 C 0.78833 0.20682 0.26391 0.0
O1057 O 0.79573 0.21925 0.2527 0.0
O1058 O 0.77617 0.21147 0.27496 0.0
O1059 O 0.76585 0.23945 0.24394 0.0
O1060 O 0.77555 0.26941 0.23961 0.0
O1061 O 0.7971 0.25368 0.28176 0.0
C1062 C 0.75523 0.26426 0.29528 0.0
C1063 C 0.77393 0.25189 0.23402 0.0
Zn1064 Zn 0.00956 0.52055 0.50183 0.0
Zn1065 Zn 0.00501 0.50965 0.54129 0.0
C1066 C 0.04273 0.54746 0.50981 0.0
O1067 O 0.03171 0.55681 0.49966 0.0
C1068 C 0.97097 0.4837 0.53571 0.0
O1069 O 0.98057 0.47628 0.54902 0.0
O1070 O 0.01146 0.52428 0.47409 0.0
O1071 O 0.00436 0.49232 0.50362 0.0
O1072 O 0.02224 0.4924 0.53029 0.0
C1073 C 0.00618 0.51099 0.46101 0.0
O1074 O 0.99647 0.49495 0.4652 0.0
O1075 O 0.03628 0.53062 0.51329 0.0
C1076 C 0.992 0.51838 0.57576 0.0
O1077 O 0.98311 0.52797 0.56383 0.0
O1078 O 0.00343 0.50785 0.56949 0.0
O1079 O 0.01088 0.53782 0.53913 0.0
O1080 O 0.9921 0.53733 0.51312 0.0
O1081 O 0.97845 0.49908 0.52952 0.0
C1082 C 0.01523 0.48418 0.51421 0.0
C1083 C 0.9992 0.54558 0.52912 0.0
Zn1084 Zn 0.78016 0.74661 0.2636 0.0
Zn1085 Zn 0.74245 0.76102 0.27102 0.0
C1086 C 0.77138 0.72261 0.23023 0.0
O1087 O 0.77842 0.71187 0.24235 0.0
C1088 C 0.75392 0.78504 0.30412 0.0
O1089 O 0.74798 0.79653 0.29215 0.0
O1090 O 0.80743 0.74234 0.26238 0.0
O1091 O 0.78277 0.77469 0.27057 0.0
O1092 O 0.75671 0.77919 0.25428 0.0
C1093 C 0.81548 0.75292 0.25069 0.0
O1094 O 0.80564 0.76443 0.24209 0.0
O1095 O 0.76918 0.73928 0.23625 0.0
C1096 C 0.70081 0.75526 0.26823 0.0
O1097 O 0.70201 0.73912 0.25865 0.0
O1098 O 0.7159 0.76701 0.27323 0.0
O1099 O 0.73957 0.73261 0.26451 0.0
O1100 O 0.76617 0.7288 0.28049 0.0
O1101 O 0.75394 0.76782 0.29818 0.0
C1102 C 0.77399 0.78502 0.26039 0.0
C1103 C 0.74896 0.72251 0.27444 0.0
Zn1104 Zn 0.74958 0.25498 0.77884 0.0
Zn1105 Zn 0.77054 0.26563 0.74365 0.0
C1106 C 0.72104 0.22598 0.76238 0.0
O1107 O 0.71118 0.23817 0.77009 0.0
C1108 C 0.79919 0.29471 0.76012 0.0
O1109 O 0.80924 0.28262 0.75254 0.0
O1110 O 0.74238 0.25009 0.80529 0.0
O1111 O 0.77806 0.25883 0.78264 0.0
O1112 O 0.7832 0.24517 0.75519 0.0
C1113 C 0.74872 0.23533 0.8103 0.0
O1114 O 0.75742 0.22582 0.79802 0.0
O1115 O 0.73908 0.23034 0.76321 0.0
C1116 C 0.76936 0.26217 0.70275 0.0
O1117 O 0.75447 0.24923 0.70417 0.0
O1118 O 0.77925 0.26979 0.71778 0.0
O1119 O 0.74193 0.26322 0.73979 0.0
O1120 O 0.73675 0.2755 0.76793 0.0
O1121 O 0.78113 0.29042 0.75876 0.0
C1122 C 0.78765 0.24874 0.77294 0.0
C1123 C 0.73225 0.27269 0.75012 0.0
Zn1124 Zn 0.76509 0.74153 0.75601 0.0
Zn1125 Zn 0.75503 0.77932 0.77831 0.0
C1126 C 0.79619 0.75747 0.73845 0.0
O1127 O 0.78408 0.74895 0.72443 0.0
C1128 C 0.72673 0.7688 0.80258 0.0
O1129 O 0.74138 0.77618 0.81461 0.0
O1130 O 0.77084 0.71508 0.7491 0.0
O1131 O 0.75612 0.7399 0.78232 0.0
O1132 O 0.77386 0.76651 0.794 0.0
C1133 C 0.78375 0.71146 0.76111 0.0
O1134 O 0.79053 0.72438 0.77508 0.0
O1135 O 0.79111 0.75746 0.75531 0.0
C1136 C 0.76211 0.82024 0.77831 0.0
O1137 O 0.77107 0.81657 0.76326 0.0
O1138 O 0.75617 0.80672 0.78812 0.0
O1139 O 0.75491 0.77988 0.7496 0.0
O1140 O 0.74782 0.75062 0.73594 0.0
O1141 O 0.72881 0.76793 0.78486 0.0
C1142 C 0.7664 0.74958 0.79611 0.0
C1143 C 0.74949 0.76847 0.73488 0.0
Zn1144 Zn 0.52981 0.50498 0.53716 0.0
Zn1145 Zn 0.49483 0.52203 0.51232 0.0
C1146 C 0.50912 0.4755 0.55364 0.0
O1147 O 0.5169 0.48725 0.56821 0.0
C1148 C 0.50618 0.54788 0.48652 0.0
O1149 O 0.4978 0.5327 0.47581 0.0
O1150 O 0.55463 0.49635 0.54571 0.0
O1151 O 0.53446 0.5134 0.51114 0.0
O1152 O 0.50614 0.50172 0.49732 0.0
C1153 C 0.55729 0.48246 0.53445 0.0
O1154 O 0.54461 0.47663 0.51996 0.0
O1155 O 0.51121 0.48052 0.53695 0.0
C1156 C 0.45353 0.51685 0.51144 0.0
O1157 O 0.45618 0.50817 0.5269 0.0
O1158 O 0.46768 0.52205 0.50212 0.0
O1159 O 0.49386 0.52306 0.5411 0.0
O1160 O 0.52206 0.52359 0.55663 0.0
O1161 O 0.50771 0.54716 0.50448 0.0
C1162 C 0.52404 0.50566 0.49648 0.0
C1163 C 0.50458 0.52542 0.55658 0.0
Zn1164 Zn 0.99535 0.51609 0.03841 0.0
Zn1165 Zn 0.03107 0.49981 0.02196 0.0
C1166 C 0.01446 0.54677 0.06239 0.0
O1167 O 0.00459 0.53656 0.07402 0.0
C1168 C 0.01476 0.46984 0.99615 0.0
O1169 O 0.02409 0.48185 0.98567 0.0
O1170 O 0.96958 0.52429 0.04215 0.0
O1171 O 0.99363 0.50808 0.01058 0.0
O1172 O 0.02285 0.51874 0.00426 0.0
C1173 C 0.96709 0.53794 0.03211 0.0
O1174 O 0.98075 0.5445 0.02175 0.0
O1175 O 0.01393 0.54034 0.04511 0.0
C1176 C 0.06104 0.4801 0.02802 0.0
O1177 O 0.04791 0.47263 0.03852 0.0
O1178 O 0.05758 0.49369 0.01829 0.0
O1179 O 0.03193 0.5065 0.05015 0.0
O1180 O 0.00237 0.49692 0.05621 0.0
O1181 O 0.01449 0.4746 0.01378 0.0
C1182 C 0.00498 0.51629 0.99968 0.0
C1183 C 0.02018 0.49841 0.06076 0.0
H1184 H 0.00691 0.1864 0.88096 0.0
H1185 H 0.01166 0.15752 0.89597 0.0
H1186 H 0.02278 0.18959 0.9507 0.0
H1187 H 0.01851 0.21855 0.93577 0.0
H1188 H 0.04714 0.1634 0.94599 0.0
H1189 H 0.97198 0.13004 0.92676 0.0
H1190 H 0.98445 0.13689 0.90666 0.0
H1191 H 0.98026 0.15477 0.92437 0.0
C1192 C 0.01048 0.18731 0.89617 0.0
C1193 C 0.01215 0.20472 0.9072 0.0
C1194 C 0.01311 0.1708 0.90474 0.0
C1195 C 0.0172 0.17135 0.92451 0.0
C1196 C 0.01954 0.18882 0.93544 0.0
H1197 H 0.01835 0.08333 0.00329 0.0
H1198 H 0.02303 0.11418 0.98979 0.0
C1199 C 0.01705 0.20535 0.92688 0.0
C1200 C 0.01834 0.15364 0.9339 0.0
H1201 H 0.99266 0.1106 0.94016 0.0
C1202 C 0.03522 0.15187 0.94478 0.0
C1203 C 0.00269 0.13871 0.93251 0.0
C1204 C 0.98376 0.14022 0.92211 0.0
C1205 C 0.037 0.13531 0.95386 0.0
C1206 C 0.02149 0.12028 0.95204 0.0
C1207 C 0.00458 0.12215 0.94138 0.0
C1208 C 0.02235 0.10221 0.96074 0.0
C1209 C 0.05549 0.13378 0.96501 0.0
C1210 C 0.0209 0.08539 0.94893 0.0
C1211 C 0.01822 0.06786 0.95655 0.0
C1212 C 0.01681 0.06681 0.97615 0.0
C1213 C 0.01949 0.08371 0.98816 0.0
C1214 C 0.02217 0.10133 0.98047 0.0
H1215 H 0.06705 0.14544 0.9627 0.0
H1216 H 0.05335 0.13437 0.98039 0.0
H1217 H 0.06006 0.11997 0.96102 0.0
H1218 H 0.021 0.08579 0.93367 0.0
H1219 H 0.01636 0.0551 0.94694 0.0
H1220 H 0.0841 0.77706 0.14287 0.0
H1221 H 0.11537 0.78263 0.1611 0.0
H1222 H 0.09017 0.80405 0.21005 0.0
H1223 H 0.05891 0.79832 0.19209 0.0
H1224 H 0.1382 0.81523 0.1831 0.0
H1225 H 0.11213 0.75717 0.22733 0.0
H1226 H 0.09949 0.76092 0.20524 0.0
H1227 H 0.09818 0.77605 0.22633 0.0
C1228 C 0.08529 0.78329 0.1574 0.0
C1229 C 0.06902 0.78701 0.16613 0.0
C1230 C 0.10314 0.78646 0.16779 0.0
C1231 C 0.10496 0.7934 0.18701 0.0
C1232 C 0.08898 0.79836 0.19534 0.0
H1233 H 0.2001 0.78901 0.27187 0.0
H1234 H 0.17065 0.7974 0.25688 0.0
C1235 C 0.07115 0.79512 0.18502 0.0
C1236 C 0.12315 0.79392 0.19873 0.0
H1237 H 0.14366 0.77241 0.23457 0.0
C1238 C 0.13941 0.80599 0.19445 0.0
C1239 C 0.12463 0.78188 0.21357 0.0
C1240 C 0.10775 0.76814 0.21837 0.0
C1241 C 0.1572 0.80616 0.2045 0.0
C1242 C 0.15877 0.79368 0.21895 0.0
C1243 C 0.14239 0.78205 0.22359 0.0
C1244 C 0.17745 0.79094 0.22809 0.0
C1245 C 0.17414 0.81964 0.19951 0.0
C1246 C 0.19098 0.78458 0.21688 0.0
C1247 C 0.20768 0.77978 0.22535 0.0
C1248 C 0.21116 0.78106 0.24526 0.0
C1249 C 0.19783 0.78791 0.25651 0.0
C1250 C 0.18103 0.7927 0.24798 0.0
H1251 H 0.16966 0.83227 0.19332 0.0
H1252 H 0.18437 0.82449 0.21215 0.0
H1253 H 0.18162 0.81231 0.18871 0.0
H1254 H 0.18833 0.78265 0.20155 0.0
H1255 H 0.21767 0.77463 0.21624 0.0
H1256 H 0.49383 0.82316 0.37372 0.0
H1257 H 0.49404 0.85186 0.39467 0.0
H1258 H 0.49758 0.81967 0.44359 0.0
H1259 H 0.49779 0.79093 0.42282 0.0
H1260 H 0.46829 0.85913 0.42051 0.0
H1261 H 0.54091 0.86365 0.45695 0.0
H1262 H 0.53291 0.84831 0.43559 0.0
H1263 H 0.52554 0.84152 0.45815 0.0
C1264 C 0.49485 0.82216 0.38894 0.0
C1265 C 0.49594 0.80471 0.39655 0.0
C1266 C 0.49489 0.83859 0.40089 0.0
C1267 C 0.49604 0.83794 0.42069 0.0
C1268 C 0.49707 0.82058 0.42837 0.0
H1269 H 0.50427 0.93299 0.50838 0.0
H1270 H 0.49723 0.90057 0.49283 0.0
C1271 C 0.49713 0.80414 0.41643 0.0
C1272 C 0.49578 0.85544 0.43319 0.0
H1273 H 0.52239 0.88631 0.46759 0.0
C1274 C 0.48008 0.86503 0.43087 0.0
C1275 C 0.51112 0.86303 0.44679 0.0
C1276 C 0.52866 0.85372 0.44947 0.0
C1277 C 0.47947 0.88221 0.44153 0.0
C1278 C 0.49503 0.89006 0.45473 0.0
C1279 C 0.51043 0.88016 0.45753 0.0
C1280 C 0.49661 0.90941 0.46426 0.0
C1281 C 0.46227 0.89194 0.43848 0.0
C1282 C 0.49833 0.92503 0.45333 0.0
C1283 C 0.50243 0.94344 0.46211 0.0
C1284 C 0.50488 0.94659 0.48202 0.0
C1285 C 0.5023 0.93098 0.49301 0.0
C1286 C 0.49837 0.91248 0.48417 0.0
H1287 H 0.44955 0.88178 0.43234 0.0
H1288 H 0.4589 0.89902 0.45201 0.0
H1289 H 0.46529 0.90294 0.42838 0.0
H1290 H 0.49734 0.92297 0.43796 0.0
H1291 H 0.50434 0.95519 0.45328 0.0
H1292 H 0.44308 0.24498 0.63363 0.0
H1293 H 0.41787 0.24232 0.65532 0.0
H1294 H 0.46017 0.2513 0.7033 0.0
H1295 H 0.48545 0.25451 0.68181 0.0
H1296 H 0.40896 0.2181 0.68268 0.0
H1297 H 0.42847 0.29229 0.7151 0.0
H1298 H 0.43835 0.28389 0.69399 0.0
H1299 H 0.44731 0.27831 0.71697 0.0
C1300 C 0.44704 0.24641 0.6488 0.0
C1301 C 0.4663 0.25023 0.65597 0.0
C1302 C 0.43261 0.24482 0.66117 0.0
C1303 C 0.43715 0.24694 0.68093 0.0
C1304 C 0.45634 0.25009 0.68812 0.0
H1305 H 0.34342 0.22481 0.7559 0.0
H1306 H 0.37404 0.22301 0.74252 0.0
C1307 C 0.47077 0.25187 0.67579 0.0
C1308 C 0.42172 0.2463 0.69391 0.0
H1309 H 0.40305 0.27326 0.72724 0.0
C1310 C 0.40771 0.23008 0.69254 0.0
C1311 C 0.42014 0.26202 0.70671 0.0
C1312 C 0.43425 0.28019 0.70822 0.0
C1313 C 0.39182 0.22936 0.70321 0.0
C1314 C 0.39015 0.24516 0.71585 0.0
C1315 C 0.4045 0.2611 0.71768 0.0
C1316 C 0.37248 0.24657 0.72525 0.0
C1317 C 0.37649 0.21213 0.70016 0.0
C1318 C 0.36187 0.26075 0.72048 0.0
C1319 C 0.34464 0.2619 0.72816 0.0
C1320 C 0.33757 0.24888 0.74082 0.0
C1321 C 0.34849 0.235 0.74614 0.0
C1322 C 0.36588 0.23387 0.73841 0.0
H1323 H 0.37843 0.20263 0.68757 0.0
H1324 H 0.37688 0.20394 0.71284 0.0
H1325 H 0.36218 0.21643 0.69824 0.0
H1326 H 0.36671 0.27072 0.7104 0.0
H1327 H 0.33669 0.27287 0.72385 0.0
H1328 H 0.99783 0.79474 0.60723 0.0
H1329 H 0.00084 0.82203 0.58832 0.0
H1330 H 0.04086 0.85397 0.63206 0.0
H1331 H 0.03741 0.82698 0.65139 0.0
H1332 H 0.01548 0.87445 0.62072 0.0
H1333 H 0.04241 0.84234 0.55684 0.0
H1334 H 0.0204 0.82892 0.56219 0.0
H1335 H 0.04126 0.83092 0.5787 0.0
C1336 C 0.00735 0.80753 0.61281 0.0
C1337 C 0.0174 0.80863 0.63083 0.0
C1338 C 0.00921 0.82308 0.60187 0.0
C1339 C 0.02144 0.83991 0.60854 0.0
C1340 C 0.03146 0.84107 0.62654 0.0
H1341 H 0.04581 0.93735 0.54027 0.0
H1342 H 0.04893 0.90881 0.55687 0.0
C1343 C 0.02943 0.82562 0.6376 0.0
C1344 C 0.02278 0.85673 0.59734 0.0
H1345 H 0.02975 0.87136 0.55317 0.0
C1346 C 0.01883 0.8738 0.60602 0.0
C1347 C 0.0275 0.85604 0.57824 0.0
C1348 C 0.03334 0.83862 0.56852 0.0
C1349 C 0.01871 0.88993 0.59596 0.0
C1350 C 0.02208 0.88882 0.5765 0.0
C1351 C 0.02685 0.87205 0.56799 0.0
C1352 C 0.01991 0.90477 0.56474 0.0
C1353 C 0.01498 0.90802 0.60632 0.0
C1354 C 0.00238 0.91139 0.56299 0.0
C1355 C 0.00063 0.92762 0.55372 0.0
C1356 C 0.01629 0.93739 0.54571 0.0
C1357 C 0.03352 0.93006 0.54632 0.0
C1358 C 0.03533 0.91384 0.55583 0.0
H1359 H 0.01862 0.90827 0.62188 0.0
H1360 H 0.02328 0.92069 0.60104 0.0
H1361 H 0.9996 0.90902 0.604 0.0
H1362 H 0.99016 0.90428 0.56928 0.0
H1363 H 0.98709 0.93278 0.55322 0.0
H1364 H 0.45856 0.78977 0.90174 0.0
H1365 H 0.42615 0.78869 0.88647 0.0
H1366 H 0.43782 0.74866 0.842 0.0
H1367 H 0.47 0.74962 0.85729 0.0
H1368 H 0.41499 0.7969 0.84797 0.0
H1369 H 0.38848 0.72282 0.86265 0.0
H1370 H 0.40978 0.73656 0.87502 0.0
H1371 H 0.41038 0.72579 0.85139 0.0
C1372 C 0.4541 0.7808 0.88869 0.0
C1373 C 0.46675 0.77017 0.88032 0.0
C1374 C 0.4357 0.78022 0.87999 0.0
C1375 C 0.42964 0.76857 0.86315 0.0
C1376 C 0.4422 0.75764 0.85505 0.0
H1377 H 0.33201 0.76358 0.78091 0.0
H1378 H 0.36394 0.77065 0.7978 0.0
C1379 C 0.46057 0.75832 0.86367 0.0
C1380 C 0.41012 0.76763 0.85406 0.0
H1381 H 0.36873 0.73713 0.8415 0.0
C1382 C 0.40483 0.78388 0.84658 0.0
C1383 C 0.39687 0.75065 0.85249 0.0
C1384 C 0.40154 0.73298 0.86095 0.0
C1385 C 0.38669 0.78349 0.83717 0.0
C1386 C 0.37362 0.76637 0.83518 0.0
C1387 C 0.37883 0.75022 0.84297 0.0
C1388 C 0.3543 0.76473 0.82532 0.0
C1389 C 0.38157 0.8014 0.82963 0.0
C1390 C 0.33834 0.75927 0.83523 0.0
C1391 C 0.3202 0.75512 0.82564 0.0
C1392 C 0.31765 0.75629 0.80591 0.0
C1393 C 0.33353 0.76264 0.79612 0.0
C1394 C 0.35176 0.76674 0.80576 0.0
H1395 H 0.39135 0.8142 0.83614 0.0
H1396 H 0.38258 0.80061 0.81404 0.0
H1397 H 0.36672 0.80303 0.8323 0.0
H1398 H 0.34001 0.75765 0.85033 0.0
H1399 H 0.30823 0.75041 0.83361 0.0
H1400 H 0.50324 0.20984 0.08967 0.0
H1401 H 0.49964 0.17997 0.06977 0.0
H1402 H 0.46438 0.15248 0.10982 0.0
H1403 H 0.46723 0.18281 0.12931 0.0
H1404 H 0.5124 0.14927 0.08076 0.0
H1405 H 0.43478 0.13063 0.06011 0.0
H1406 H 0.44598 0.15418 0.06923 0.0
H1407 H 0.44057 0.13615 0.08522 0.0
C1408 C 0.49414 0.19757 0.09383 0.0
C1409 C 0.48492 0.19868 0.11059 0.0
C1410 C 0.49223 0.18048 0.08256 0.0
C1411 C 0.48143 0.16404 0.08808 0.0
C1412 C 0.47227 0.16509 0.10494 0.0
H1413 H 0.49497 0.049 0.06607 0.0
H1414 H 0.48961 0.08024 0.07847 0.0
C1415 C 0.47405 0.18232 0.11616 0.0
C1416 C 0.4817 0.14551 0.07734 0.0
H1417 H 0.45348 0.1059 0.05519 0.0
C1418 C 0.4995 0.13994 0.07496 0.0
C1419 C 0.46488 0.13332 0.06974 0.0
C1420 C 0.44545 0.13889 0.07103 0.0
C1421 C 0.50091 0.12232 0.06567 0.0
C1422 C 0.4841 0.10991 0.05873 0.0
C1423 C 0.4663 0.11555 0.0606 0.0
C1424 C 0.48497 0.09048 0.05082 0.0
C1425 C 0.52034 0.11684 0.06367 0.0
C1426 C 0.48364 0.08587 0.03112 0.0
C1427 C 0.48675 0.06795 0.02391 0.0
C1428 C 0.49129 0.05456 0.03637 0.0
C1429 C 0.49173 0.05907 0.05608 0.0
C1430 C 0.4886 0.07687 0.06322 0.0
H1431 H 0.53195 0.12912 0.06711 0.0
H1432 H 0.52262 0.10582 0.07347 0.0
H1433 H 0.52129 0.11069 0.04898 0.0
H1434 H 0.48086 0.09632 0.0214 0.0
H1435 H 0.4863 0.06485 0.00867 0.0
H1436 H 0.06742 0.24382 0.37979 0.0
H1437 H 0.0961 0.23625 0.36571 0.0
H1438 H 0.10984 0.29431 0.35221 0.0
H1439 H 0.08093 0.30164 0.36544 0.0
H1440 H 0.11163 0.27072 0.32224 0.0
H1441 H 0.15147 0.24735 0.3844 0.0
H1442 H 0.12797 0.23425 0.37839 0.0
H1443 H 0.1309 0.25895 0.38672 0.0
C1444 C 0.07681 0.255 0.37415 0.0
C1445 C 0.07201 0.27332 0.37373 0.0
C1446 C 0.0932 0.25068 0.36612 0.0
C1447 C 0.10522 0.26474 0.35797 0.0
C1448 C 0.10075 0.28319 0.35829 0.0
H1449 H 0.21951 0.28124 0.33407 0.0
H1450 H 0.18862 0.27617 0.34667 0.0
C1451 C 0.08428 0.2874 0.36595 0.0
C1452 C 0.122 0.26038 0.3482 0.0
H1453 H 0.16543 0.24623 0.35534 0.0
C1454 C 0.12337 0.26525 0.32943 0.0
C1455 C 0.13724 0.25315 0.35757 0.0
C1456 C 0.13697 0.24826 0.37793 0.0
C1457 C 0.13994 0.26416 0.32016 0.0
C1458 C 0.15536 0.25729 0.32966 0.0
C1459 C 0.15357 0.25141 0.34804 0.0
C1460 C 0.17433 0.25866 0.322 0.0
C1461 C 0.14116 0.27152 0.30078 0.0
C1462 C 0.1768 0.25021 0.30396 0.0
C1463 C 0.19458 0.25341 0.29647 0.0
C1464 C 0.21019 0.2648 0.30707 0.0
C1465 C 0.20781 0.27245 0.32544 0.0
C1466 C 0.19011 0.26949 0.33275 0.0
H1467 H 0.12969 0.27996 0.2973 0.0
H1468 H 0.15512 0.28056 0.29987 0.0
H1469 H 0.13967 0.25937 0.28982 0.0
H1470 H 0.16495 0.2414 0.29558 0.0
H1471 H 0.19604 0.24715 0.28237 0.0
H1472 H 0.94373 0.0243 0.21774 0.0
H1473 H 0.9619 0.02936 0.19007 0.0
H1474 H 0.91023 0.01368 0.15298 0.0
H1475 H 0.89191 0.00851 0.18059 0.0
H1476 H 0.96334 0.00107 0.15877 0.0
H1477 H 0.93606 0.06503 0.13522 0.0
H1478 H 0.93417 0.0577 0.15896 0.0
H1479 H 0.91813 0.04568 0.13958 0.0
C1480 C 0.93617 0.0221 0.20371 0.0
C1481 C 0.91634 0.01605 0.20138 0.0
C1482 C 0.94661 0.02496 0.18791 0.0
C1483 C 0.93741 0.02206 0.16948 0.0
C1484 C 0.91758 0.01625 0.16709 0.0
H1485 H 0.96551 0.02233 0.05429 0.0
H1486 H 0.95144 0.02305 0.08451 0.0
C1487 C 0.90714 0.01325 0.18289 0.0
C1488 C 0.94864 0.02436 0.15271 0.0
H1489 H 0.95452 0.04989 0.11411 0.0
C1490 C 0.96158 0.01185 0.14908 0.0
C1491 C 0.94629 0.03843 0.14011 0.0
C1492 C 0.93304 0.05261 0.14367 0.0
C1493 C 0.9717 0.01254 0.13276 0.0
C1494 C 0.96918 0.02648 0.12 0.0
C1495 C 0.95653 0.03926 0.12391 0.0
C1496 C 0.97833 0.02711 0.10178 0.0
C1497 C 0.98434 0.99781 0.12893 0.0
C1498 C 0.99825 0.02961 0.10132 0.0
C1499 C 0.00645 0.02912 0.0839 0.0
C1500 C 0.99484 0.02619 0.06664 0.0
C1501 C 0.97494 0.02444 0.06725 0.0
C1502 C 0.96682 0.02489 0.08456 0.0
H1503 H 0.98129 0.98561 0.13766 0.0
H1504 H 0.98254 0.99239 0.1137 0.0
H1505 H 0.99945 0.00433 0.13247 0.0
H1506 H 0.00746 0.03178 0.11442 0.0
H1507 H 0.0218 0.03062 0.08397 0.0
H1508 H 0.24676 0.62822 0.4436 0.0
H1509 H 0.24173 0.64738 0.41706 0.0
H1510 H 0.25756 0.69847 0.45467 0.0
H1511 H 0.26312 0.6795 0.4812 0.0
H1512 H 0.21683 0.67264 0.41233 0.0
H1513 H 0.29148 0.7091 0.41217 0.0
H1514 H 0.28524 0.68882 0.42543 0.0
H1515 H 0.28131 0.71193 0.43443 0.0
C1516 C 0.24934 0.64354 0.44623 0.0
C1517 C 0.25552 0.6523 0.46452 0.0
C1518 C 0.24639 0.65446 0.43105 0.0
C1519 C 0.24951 0.67435 0.43385 0.0
C1520 C 0.25548 0.68316 0.4521 0.0
H1521 H 0.24066 0.75419 0.34567 0.0
H1522 H 0.24001 0.74174 0.37716 0.0
C1523 C 0.2586 0.67226 0.46726 0.0
C1524 C 0.24622 0.68575 0.41764 0.0
H1525 H 0.26861 0.71809 0.39028 0.0
C1526 C 0.22812 0.68267 0.40759 0.0
C1527 C 0.26095 0.69893 0.41155 0.0
C1528 C 0.28089 0.70232 0.42133 0.0
C1529 C 0.22449 0.69204 0.39131 0.0
C1530 C 0.23936 0.70474 0.38493 0.0
C1531 C 0.25722 0.70844 0.39537 0.0
C1532 C 0.23746 0.71236 0.36619 0.0
C1533 C 0.20492 0.688 0.38079 0.0
C1534 C 0.23611 0.69992 0.34976 0.0
C1535 C 0.2367 0.70694 0.33196 0.0
C1536 C 0.23854 0.72655 0.33023 0.0
C1537 C 0.2391 0.739 0.34663 0.0
C1538 C 0.23879 0.73194 0.36456 0.0
H1539 H 0.19395 0.68204 0.38999 0.0
H1540 H 0.20084 0.70109 0.37527 0.0
H1541 H 0.20499 0.67748 0.36849 0.0
H1542 H 0.23535 0.68479 0.35076 0.0
H1543 H 0.23617 0.697 0.31955 0.0
H1544 H 0.57995 0.96461 0.72666 0.0
H1545 H 0.55929 0.95806 0.69701 0.0
H1546 H 0.60623 0.98028 0.66588 0.0
H1547 H 0.62701 0.98679 0.69542 0.0
H1548 H 0.55174 0.98709 0.6751 0.0
H1549 H 0.58142 0.93279 0.63205 0.0
H1550 H 0.58669 0.93704 0.6575 0.0
H1551 H 0.5993 0.95218 0.64187 0.0
C1552 C 0.58602 0.96765 0.71345 0.0
C1553 C 0.60512 0.9763 0.71339 0.0
C1554 C 0.57417 0.96391 0.69652 0.0
C1555 C 0.58124 0.96855 0.67923 0.0
C1556 C 0.60056 0.97625 0.67902 0.0
H1557 H 0.55282 0.99658 0.57021 0.0
H1558 H 0.56538 0.98744 0.60033 0.0
C1559 C 0.61241 0.98004 0.69594 0.0
C1560 C 0.56808 0.96766 0.66185 0.0
H1561 H 0.56231 0.95207 0.61479 0.0
C1562 C 0.55372 0.9791 0.66198 0.0
C1563 C 0.5707 0.95719 0.64481 0.0
C1564 C 0.58524 0.94396 0.64405 0.0
C1565 C 0.54284 0.98146 0.64521 0.0
C1566 C 0.5462 0.97181 0.62795 0.0
C1567 C 0.55977 0.95947 0.62805 0.0
C1568 C 0.53786 0.97637 0.60936 0.0
C1569 C 0.52876 0.99522 0.64588 0.0
C1570 C 0.5181 0.97306 0.60431 0.0
C1571 C 0.51073 0.97844 0.58695 0.0
C1572 C 0.52306 0.98713 0.57442 0.0
C1573 C 0.54283 0.99005 0.5795 0.0
C1574 C 0.5501 0.98473 0.59672 0.0
H1575 H 0.53003 0.0037 0.65983 0.0
H1576 H 0.53087 0.0051 0.63457 0.0
H1577 H 0.51407 0.98724 0.64337 0.0
H1578 H 0.50841 0.96637 0.61378 0.0
H1579 H 0.49546 0.97588 0.58339 0.0
H1580 H 0.26865 0.39039 0.95693 0.0
H1581 H 0.26778 0.37128 0.92685 0.0
H1582 H 0.26092 0.32023 0.95601 0.0
H1583 H 0.26184 0.33925 0.9864 0.0
H1584 H 0.28955 0.32247 0.92887 0.0
H1585 H 0.22015 0.33781 0.89826 0.0
H1586 H 0.23656 0.35862 0.90748 0.0
H1587 H 0.22755 0.34164 0.92338 0.0
C1588 C 0.26683 0.3751 0.95704 0.0
C1589 C 0.26519 0.3664 0.97416 0.0
C1590 C 0.26629 0.36419 0.93978 0.0
C1591 C 0.26407 0.34434 0.93918 0.0
C1592 C 0.26255 0.33554 0.95618 0.0
H1593 H 0.26233 0.26379 0.83827 0.0
H1594 H 0.26417 0.27686 0.87153 0.0
C1595 C 0.26301 0.34645 0.97351 0.0
C1596 C 0.26362 0.33297 0.92074 0.0
H1597 H 0.23962 0.3245 0.87667 0.0
C1598 C 0.27853 0.32267 0.91749 0.0
C1599 C 0.24917 0.33321 0.906 0.0
C1600 C 0.23234 0.34326 0.90895 0.0
C1601 C 0.27984 0.31337 0.89954 0.0
C1602 C 0.26575 0.31425 0.8846 0.0
C1603 C 0.2505 0.32397 0.8881 0.0
C1604 C 0.26692 0.30615 0.86491 0.0
C1605 C 0.29666 0.30338 0.89644 0.0
C1606 C 0.26809 0.31825 0.85021 0.0
C1607 C 0.26697 0.31086 0.83131 0.0
C1608 C 0.26461 0.29117 0.82665 0.0
C1609 C 0.26432 0.27904 0.84142 0.0
C1610 C 0.26537 0.28648 0.86043 0.0
H1611 H 0.30804 0.30701 0.90832 0.0
H1612 H 0.29189 0.28781 0.89531 0.0
H1613 H 0.30277 0.30707 0.88298 0.0
H1614 H 0.26933 0.33346 0.85334 0.0
H1615 H 0.26733 0.32061 0.82029 0.0
H1616 H 0.92733 0.00795 0.29601 0.0
H1617 H 0.94475 0.00757 0.32703 0.0
H1618 H 0.89178 0.00068 0.35329 0.0
H1619 H 0.87418 0.00076 0.32238 0.0
H1620 H 0.94612 0.03081 0.36044 0.0
H1621 H 0.91658 0.95657 0.3713 0.0
H1622 H 0.91425 0.9662 0.34854 0.0
H1623 H 0.89855 0.97098 0.3664 0.0
C1624 C 0.91934 0.00642 0.30837 0.0
C1625 C 0.89928 0.00427 0.30661 0.0
C1626 C 0.92935 0.00618 0.3261 0.0
C1627 C 0.91955 0.00368 0.34241 0.0
C1628 C 0.89962 0.00215 0.34082 0.0
H1629 H 0.94228 0.00611 0.46229 0.0
H1630 H 0.92956 0.00245 0.42905 0.0
C1631 C 0.88958 0.00237 0.32312 0.0
C1632 C 0.93013 0.00287 0.36114 0.0
H1633 H 0.93317 0.97545 0.39843 0.0
C1634 C 0.94349 0.01862 0.36866 0.0
C1635 C 0.92676 0.98689 0.37179 0.0
C1636 C 0.9134 0.96912 0.36404 0.0
C1637 C 0.9529 0.01919 0.38691 0.0
C1638 C 0.94905 0.00345 0.39779 0.0
C1639 C 0.9361 0.98749 0.39005 0.0
C1640 C 0.95708 0.00395 0.4178 0.0
C1641 C 0.96626 0.03693 0.39475 0.0
C1642 C 0.97678 0.00539 0.42253 0.0
C1643 C 0.98415 0.00742 0.44163 0.0
C1644 C 0.97189 0.00809 0.45624 0.0
C1645 C 0.95213 0.00577 0.45138 0.0
C1646 C 0.94481 0.00366 0.43238 0.0
H1647 H 0.96506 0.04899 0.38594 0.0
H1648 H 0.96335 0.04119 0.40951 0.0
H1649 H 0.98116 0.0341 0.39512 0.0
H1650 H 0.98647 0.00533 0.41147 0.0
H1651 H 0.99944 0.00919 0.44491 0.0
H1652 H 0.28203 0.64652 0.58773 0.0
H1653 H 0.28815 0.66712 0.61738 0.0
H1654 H 0.3087 0.7146 0.58638 0.0
H1655 H 0.30247 0.69417 0.55662 0.0
H1656 H 0.32146 0.69221 0.63562 0.0
H1657 H 0.26247 0.7305 0.61204 0.0
H1658 H 0.26569 0.70809 0.60033 0.0
H1659 H 0.28121 0.72944 0.59655 0.0
C1660 C 0.28818 0.66126 0.58725 0.0
C1661 C 0.29156 0.66876 0.56981 0.0
C1662 C 0.29167 0.67301 0.6042 0.0
C1663 C 0.29855 0.69243 0.60399 0.0
C1664 C 0.30309 0.69971 0.58677 0.0
H1665 H 0.28989 0.77332 0.70242 0.0
H1666 H 0.29982 0.76213 0.67156 0.0
C1667 C 0.29959 0.68798 0.56981 0.0
C1668 C 0.29951 0.70516 0.6216 0.0
H1669 H 0.27646 0.73825 0.64315 0.0
C1670 C 0.31184 0.7025 0.6372 0.0
C1671 C 0.28705 0.71869 0.62356 0.0
C1672 C 0.27324 0.72187 0.60732 0.0
C1673 C 0.31148 0.71244 0.65497 0.0
C1674 C 0.29818 0.72507 0.65722 0.0
C1675 C 0.28666 0.72859 0.64135 0.0
C1676 C 0.29387 0.73235 0.67628 0.0
C1677 C 0.32497 0.70892 0.6713 0.0
C1678 C 0.28705 0.71933 0.68894 0.0
C1679 C 0.28128 0.7256 0.7063 0.0
C1680 C 0.28212 0.74509 0.71148 0.0
C1681 C 0.28914 0.75823 0.69887 0.0
C1682 C 0.29483 0.75187 0.68129 0.0
H1683 H 0.3382 0.7047 0.66617 0.0
H1684 H 0.32887 0.7217 0.68153 0.0
H1685 H 0.318 0.69712 0.67892 0.0
H1686 H 0.28567 0.70421 0.68517 0.0
H1687 H 0.27593 0.71503 0.71558 0.0
H1688 H 0.64405 0.02542 0.83875 0.0
H1689 H 0.62512 0.02691 0.86601 0.0
H1690 H 0.57518 0.99874 0.83117 0.0
H1691 H 0.59398 0.99688 0.80386 0.0
H1692 H 0.59242 0.0441 0.8703 0.0
H1693 H 0.57769 0.96631 0.8764 0.0
H1694 H 0.5958 0.97698 0.86229 0.0
H1695 H 0.57111 0.97374 0.85348 0.0
C1696 C 0.62907 0.01941 0.83686 0.0
C1697 C 0.62061 0.01087 0.8191 0.0
C1698 C 0.61826 0.02037 0.85245 0.0
C1699 C 0.59881 0.01277 0.85063 0.0
C1700 C 0.59025 0.00441 0.83294 0.0
H1701 H 0.52326 0.03031 0.94158 0.0
H1702 H 0.53631 0.03025 0.91041 0.0
C1703 C 0.60104 0.0034 0.81734 0.0
C1704 C 0.58758 0.01356 0.86734 0.0
H1705 H 0.56356 0.98574 0.89762 0.0
C1706 C 0.58598 0.03137 0.87624 0.0
C1707 C 0.57929 0.99688 0.87502 0.0
C1708 C 0.58114 0.97738 0.86644 0.0
C1709 C 0.57659 0.03295 0.89287 0.0
C1710 C 0.56845 0.01627 0.90063 0.0
C1711 C 0.5697 0.99848 0.89149 0.0
C1712 C 0.56039 0.01683 0.91926 0.0
C1713 C 0.5761 0.05237 0.90248 0.0
C1714 C 0.56953 0.0092 0.9344 0.0
C1715 C 0.56215 0.00918 0.95204 0.0
C1716 C 0.5454 0.01673 0.95495 0.0
C1717 C 0.53623 0.02446 0.93978 0.0
C1718 C 0.54368 0.02449 0.92202 0.0
H1719 H 0.58556 0.06367 0.89626 0.0
H1720 H 0.56132 0.05554 0.9009 0.0
H1721 H 0.58046 0.05282 0.91791 0.0
H1722 H 0.58244 0.00325 0.93255 0.0
H1723 H 0.5696 0.00309 0.96337 0.0
H1724 H 0.26506 0.37801 0.10073 0.0
H1725 H 0.26108 0.36011 0.12878 0.0
H1726 H 0.23796 0.30951 0.09262 0.0
H1727 H 0.24203 0.32718 0.06458 0.0
H1728 H 0.22805 0.33883 0.14148 0.0
H1729 H 0.28206 0.29305 0.12478 0.0
H1730 H 0.28012 0.31445 0.11328 0.0
H1731 H 0.26354 0.29314 0.10613 0.0
C1732 C 0.25904 0.3631 0.09875 0.0
C1733 C 0.25398 0.35402 0.08039 0.0
C1734 C 0.25677 0.35288 0.1148 0.0
C1735 C 0.24953 0.33338 0.1128 0.0
C1736 C 0.24394 0.32443 0.09452 0.0
H1737 H 0.23887 0.25049 0.19915 0.0
H1738 H 0.23608 0.26523 0.16896 0.0
C1739 C 0.24618 0.33462 0.07849 0.0
C1740 C 0.248 0.32239 0.12982 0.0
H1741 H 0.26509 0.28648 0.15151 0.0
C1742 C 0.23612 0.32736 0.14366 0.0
C1743 C 0.25842 0.30732 0.13259 0.0
C1744 C 0.27189 0.30171 0.11852 0.0
C1745 C 0.23444 0.31774 0.16021 0.0
C1746 C 0.24522 0.30298 0.16321 0.0
C1747 C 0.25677 0.29772 0.14917 0.0
C1748 C 0.2459 0.2939 0.18146 0.0
C1749 C 0.22104 0.32344 0.1743 0.0
C1750 C 0.25249 0.30504 0.19845 0.0
C1751 C 0.25409 0.29672 0.21558 0.0
C1752 C 0.24928 0.27695 0.21622 0.0
C1753 C 0.24258 0.26574 0.1992 0.0
C1754 C 0.24102 0.27414 0.18194 0.0
H1755 H 0.20962 0.33025 0.16739 0.0
H1756 H 0.21432 0.31102 0.18126 0.0
H1757 H 0.22915 0.33388 0.18547 0.0
H1758 H 0.25677 0.32022 0.19842 0.0
H1759 H 0.25936 0.30585 0.22834 0.0
H1760 H 0.21254 0.93404 0.98867 0.0
H1761 H 0.18542 0.94822 0.99817 0.0
H1762 H 0.16792 0.90052 0.03009 0.0
H1763 H 0.19536 0.88617 0.02086 0.0
H1764 H 0.14772 0.93326 0.99036 0.0
H1765 H 0.16633 0.94625 0.06828 0.0
H1766 H 0.1834 0.941 0.05186 0.0
H1767 H 0.16617 0.92226 0.0587 0.0
C1768 C 0.203 0.92647 0.99774 0.0
C1769 C 0.20617 0.90887 0.00395 0.0
C1770 C 0.18751 0.93469 0.00321 0.0
C1771 C 0.17481 0.92558 0.01505 0.0
C1772 C 0.17779 0.90798 0.02126 0.0
H1773 H 0.05995 0.94456 0.0244 0.0
H1774 H 0.08951 0.93148 0.02292 0.0
C1775 C 0.19338 0.89972 0.01582 0.0
C1776 C 0.15792 0.93413 0.01986 0.0
H1777 H 0.13554 0.95173 0.05671 0.0
C1778 C 0.14511 0.93735 0.00487 0.0
C1779 C 0.15467 0.93966 0.03879 0.0
C1780 C 0.16843 0.9373 0.05536 0.0
C1781 C 0.12898 0.94566 0.00827 0.0
C1782 C 0.1254 0.95064 0.0272 0.0
C1783 C 0.13833 0.94777 0.04224 0.0
C1784 C 0.10783 0.95819 0.03134 0.0
C1785 C 0.11585 0.94907 0.99157 0.0
C1786 C 0.10839 0.97741 0.03742 0.0
C1787 C 0.09142 0.98499 0.03836 0.0
C1788 C 0.07377 0.97339 0.03312 0.0
C1789 C 0.07334 0.95392 0.02824 0.0
C1790 C 0.0902 0.94639 0.02743 0.0
H1791 H 0.12274 0.94836 0.97803 0.0
H1792 H 0.10295 0.93805 0.99017 0.0
H1793 H 0.1112 0.96314 0.99374 0.0
H1794 H 0.12193 0.9867 0.04052 0.0
H1795 H 0.09214 1.00004 0.04217 0.0
H1796 H 0.72533 0.58895 0.00646 0.0
H1797 H 0.69391 0.56993 0.00705 0.0
H1798 H 0.6684 0.61155 0.97726 0.0
H1799 H 0.70015 0.6302 0.97591 0.0
H1800 H 0.66528 0.58067 0.02484 0.0
H1801 H 0.64126 0.56295 0.94847 0.0
H1802 H 0.66549 0.57299 0.95669 0.0
H1803 H 0.64752 0.588 0.95486 0.0
C1804 C 0.71308 0.59367 0.99943 0.0
C1805 C 0.71517 0.61062 0.99048 0.0
C1806 C 0.69511 0.58291 0.99997 0.0
C1807 C 0.67877 0.58911 0.99193 0.0
C1808 C 0.68081 0.60618 0.98308 0.0
H1809 H 0.56367 0.55798 0.02195 0.0
H1810 H 0.59512 0.57401 0.01597 0.0
C1811 C 0.6989 0.61689 0.98242 0.0
C1812 C 0.65961 0.57847 0.99437 0.0
H1813 H 0.61777 0.55623 0.97045 0.0
C1814 C 0.65496 0.57524 0.01291 0.0
C1815 C 0.64611 0.57135 0.97883 0.0
C1816 C 0.65036 0.57384 0.95857 0.0
C1817 C 0.63719 0.5653 0.01634 0.0
C1818 C 0.62362 0.55853 0.00084 0.0
C1819 C 0.62825 0.5615 0.98229 0.0
C1820 C 0.60438 0.54872 0.0038 0.0
C1821 C 0.63302 0.56204 0.03651 0.0
C1822 C 0.59909 0.52921 0.99865 0.0
C1823 C 0.5811 0.51991 0.00215 0.0
C1824 C 0.56806 0.53004 0.01069 0.0
C1825 C 0.57336 0.54968 0.01546 0.0
C1826 C 0.59134 0.5589 0.01207 0.0
H1827 H 0.64616 0.56489 0.04645 0.0
H1828 H 0.62313 0.57166 0.04125 0.0
H1829 H 0.626 0.54722 0.03741 0.0
H1830 H 0.609 0.52115 0.99221 0.0
H1831 H 0.57744 0.50481 0.99823 0.0
H1832 H 0.67748 0.45474 0.31829 0.0
H1833 H 0.68962 0.42591 0.30828 0.0
H1834 H 0.65765 0.42299 0.25372 0.0
H1835 H 0.64509 0.45194 0.26376 0.0
H1836 H 0.65679 0.38774 0.2679 0.0
H1837 H 0.73099 0.42507 0.27175 0.0
H1838 H 0.72042 0.42861 0.29366 0.0
H1839 H 0.71081 0.43752 0.27249 0.0
C1840 C 0.67284 0.44793 0.3042 0.0
C1841 C 0.66042 0.45579 0.29177 0.0
C1842 C 0.67994 0.4315 0.29845 0.0
C1843 C 0.67503 0.42262 0.28006 0.0
C1844 C 0.66183 0.42977 0.2679 0.0
H1845 H 0.74231 0.33482 0.24245 0.0
H1846 H 0.72702 0.36344 0.24299 0.0
C1847 C 0.65458 0.44624 0.2737 0.0
C1848 C 0.68387 0.40596 0.27373 0.0
H1849 H 0.72706 0.39106 0.27143 0.0
C1850 C 0.67214 0.38851 0.26841 0.0
C1851 C 0.7039 0.40703 0.27391 0.0
C1852 C 0.71725 0.42562 0.27805 0.0
C1853 C 0.67994 0.37189 0.26443 0.0
C1854 C 0.69999 0.3727 0.26619 0.0
C1855 C 0.7117 0.39036 0.27034 0.0
C1856 C 0.70904 0.35527 0.26527 0.0
C1857 C 0.66657 0.3536 0.25855 0.0
C1858 C 0.70436 0.34141 0.27787 0.0
C1859 C 0.71299 0.32517 0.27757 0.0
C1860 C 0.72673 0.32243 0.26481 0.0
C1861 C 0.73175 0.33648 0.25241 0.0
C1862 C 0.723 0.3528 0.25268 0.0
H1863 H 0.65289 0.35633 0.25154 0.0
H1864 H 0.67301 0.34411 0.2487 0.0
H1865 H 0.66328 0.34613 0.27138 0.0
H1866 H 0.69412 0.34324 0.28814 0.0
H1867 H 0.70891 0.31478 0.28749 0.0
H1868 H 0.79635 0.42522 0.51493 0.0
H1869 H 0.82923 0.44091 0.51492 0.0
H1870 H 0.8407 0.39572 0.47581 0.0
H1871 H 0.8077 0.37975 0.47621 0.0
H1872 H 0.86679 0.40214 0.50471 0.0
H1873 H 0.85873 0.47183 0.47908 0.0
H1874 H 0.84266 0.46536 0.49667 0.0
H1875 H 0.84075 0.45106 0.47432 0.0
C1876 C 0.80574 0.41898 0.50586 0.0
C1877 C 0.79944 0.40159 0.49516 0.0
C1878 C 0.82453 0.42797 0.5058 0.0
C1879 C 0.8374 0.41976 0.495 0.0
C1880 C 0.831 0.40244 0.48408 0.0
H1881 H 0.95252 0.48593 0.50084 0.0
H1882 H 0.92116 0.46874 0.48814 0.0
C1883 C 0.8122 0.39335 0.48429 0.0
C1884 C 0.8579 0.42822 0.4969 0.0
H1885 H 0.88762 0.47048 0.49799 0.0
C1886 C 0.87139 0.41701 0.50291 0.0
C1887 C 0.8641 0.44746 0.4941 0.0
C1888 C 0.85084 0.45961 0.48549 0.0
C1889 C 0.89066 0.42482 0.50724 0.0
C1890 C 0.89644 0.44454 0.50629 0.0
C1891 C 0.88317 0.45546 0.49918 0.0
C1892 C 0.91581 0.45432 0.51351 0.0
C1893 C 0.90454 0.41179 0.51278 0.0
C1894 C 0.92312 0.45219 0.53206 0.0
C1895 C 0.94109 0.4617 0.53916 0.0
C1896 C 0.95188 0.474 0.52808 0.0
C1897 C 0.94443 0.47657 0.5097 0.0
C1898 C 0.92657 0.46671 0.50243 0.0
H1899 H 0.89982 0.3972 0.50589 0.0
H1900 H 0.91907 0.41697 0.50881 0.0
H1901 H 0.90518 0.41085 0.52838 0.0
H1902 H 0.91483 0.44335 0.54119 0.0
H1903 H 0.94639 0.45966 0.55348 0.0
H1904 H 0.37356 0.07149 0.25995 0.0
H1905 H 0.35676 0.09715 0.25014 0.0
H1906 H 0.31678 0.08468 0.29197 0.0
H1907 H 0.3332 0.0591 0.30176 0.0
H1908 H 0.29965 0.08716 0.25499 0.0
H1909 H 0.35544 0.14945 0.27862 0.0
H1910 H 0.36252 0.13075 0.26374 0.0
H1911 H 0.3561 0.1264 0.28722 0.0
C1912 C 0.36135 0.07437 0.26724 0.0
C1913 C 0.35478 0.06317 0.28166 0.0
C1914 C 0.35178 0.08906 0.26162 0.0
C1915 C 0.33556 0.09285 0.27038 0.0
C1916 C 0.32923 0.08196 0.28499 0.0
H1917 H 0.25262 0.16657 0.27369 0.0
H1918 H 0.27042 0.14003 0.27417 0.0
C1919 C 0.33872 0.06734 0.2906 0.0
C1920 C 0.32463 0.10769 0.26412 0.0
H1921 H 0.32646 0.15563 0.26421 0.0
C1922 C 0.30555 0.10214 0.25686 0.0
C1923 C 0.3324 0.12718 0.26644 0.0
C1924 C 0.35269 0.13393 0.27454 0.0
C1925 C 0.29388 0.11558 0.25226 0.0
C1926 C 0.30141 0.13511 0.25532 0.0
C1927 C 0.32071 0.14064 0.26189 0.0
C1928 C 0.28925 0.15006 0.2532 0.0
C1929 C 0.27358 0.10874 0.24427 0.0
C1930 C 0.29383 0.16451 0.24119 0.0
C1931 C 0.28368 0.17978 0.24092 0.0
C1932 C 0.26888 0.18097 0.25283 0.0
C1933 C 0.26385 0.16608 0.26428 0.0
C1934 C 0.27398 0.15082 0.26451 0.0
H1935 H 0.27187 0.09413 0.2372 0.0
H1936 H 0.26413 0.10846 0.25604 0.0
H1937 H 0.26878 0.11829 0.23388 0.0
H1938 H 0.30561 0.16423 0.23241 0.0
H1939 H 0.28799 0.19103 0.23198 0.0
H1940 H 0.31548 0.12209 0.52601 0.0
H1941 H 0.3443 0.10917 0.53592 0.0
H1942 H 0.34038 0.07689 0.48151 0.0
H1943 H 0.31156 0.08934 0.47169 0.0
H1944 H 0.34531 0.05512 0.51094 0.0
H1945 H 0.39832 0.12136 0.52043 0.0
H1946 H 0.37785 0.12159 0.53374 0.0
H1947 H 0.37496 0.12024 0.50824 0.0
C1948 C 0.32096 0.11249 0.51605 0.0
C1949 C 0.31119 0.10677 0.49805 0.0
C1950 C 0.33744 0.10512 0.52174 0.0
C1951 C 0.34456 0.0921 0.50943 0.0
C1952 C 0.33511 0.08683 0.49129 0.0
H1953 H 0.45156 0.05588 0.50199 0.0
H1954 H 0.42272 0.07019 0.50071 0.0
C1955 C 0.31865 0.09404 0.48568 0.0
C1956 C 0.36142 0.08331 0.51538 0.0
H1957 H 0.40942 0.09305 0.52738 0.0
C1958 C 0.35932 0.06341 0.51469 0.0
C1959 C 0.37968 0.09415 0.52022 0.0
C1960 C 0.38298 0.11551 0.52058 0.0
C1961 C 0.37504 0.05403 0.51803 0.0
C1962 C 0.39335 0.06486 0.52262 0.0
C1963 C 0.39535 0.08477 0.52397 0.0
C1964 C 0.41087 0.05591 0.52402 0.0
C1965 C 0.37205 0.03263 0.51568 0.0
C1966 C 0.41387 0.04303 0.53759 0.0
C1967 C 0.43044 0.03459 0.53826 0.0
C1968 C 0.44432 0.0391 0.52552 0.0
C1969 C 0.44123 0.0521 0.51208 0.0
C1970 C 0.42473 0.06037 0.51135 0.0
H1971 H 0.35785 0.02661 0.50836 0.0
H1972 H 0.38319 0.02748 0.50744 0.0
H1973 H 0.37302 0.0271 0.52988 0.0
H1974 H 0.40351 0.0396 0.54772 0.0
H1975 H 0.43248 0.02475 0.54886 0.0
H1976 H 0.68202 0.54636 0.28169 0.0
H1977 H 0.6995 0.57801 0.27936 0.0
H1978 H 0.66579 0.601 0.32086 0.0
H1979 H 0.64694 0.56942 0.32151 0.0
H1980 H 0.66802 0.62298 0.29597 0.0
H1981 H 0.74165 0.60938 0.30907 0.0
H1982 H 0.7307 0.59495 0.28826 0.0
H1983 H 0.7215 0.59143 0.31096 0.0
C1984 C 0.6786 0.55818 0.29052 0.0
C1985 C 0.66342 0.55551 0.30204 0.0
C1986 C 0.68874 0.5763 0.28934 0.0
C1987 C 0.68447 0.59207 0.30031 0.0
C1988 C 0.66952 0.5892 0.31225 0.0
H1989 H 0.75879 0.70189 0.3036 0.0
H1990 H 0.74256 0.671 0.31111 0.0
C1991 C 0.65882 0.57115 0.31277 0.0
C1992 C 0.69444 0.61167 0.29814 0.0
H1993 H 0.73798 0.63768 0.29347 0.0
C1994 C 0.68337 0.62617 0.29577 0.0
C1995 C 0.71452 0.61619 0.29792 0.0
C1996 C 0.72777 0.60217 0.30188 0.0
C1997 C 0.69167 0.64473 0.29294 0.0
C1998 C 0.71156 0.64884 0.29156 0.0
C1999 C 0.72269 0.63454 0.29428 0.0
C2000 C 0.72117 0.66779 0.28718 0.0
C2001 C 0.67897 0.65977 0.29181 0.0
C2002 C 0.71481 0.67618 0.27108 0.0
C2003 C 0.72384 0.69396 0.267 0.0
C2004 C 0.73979 0.70349 0.27861 0.0
C2005 C 0.74655 0.69486 0.29438 0.0
C2006 C 0.73726 0.67722 0.29869 0.0
H2007 H 0.6661 0.65616 0.29957 0.0
H2008 H 0.68661 0.67389 0.2978 0.0
H2009 H 0.67407 0.66072 0.27672 0.0
H2010 H 0.70292 0.66893 0.26156 0.0
H2011 H 0.71846 0.70015 0.25459 0.0
H2012 H 0.89806 0.46177 0.81016 0.0
H2013 H 0.88471 0.42779 0.80867 0.0
H2014 H 0.84091 0.43619 0.76612 0.0
H2015 H 0.85419 0.46996 0.76757 0.0
H2016 H 0.84382 0.41058 0.8135 0.0
H2017 H 0.86938 0.39327 0.74305 0.0
H2018 H 0.87964 0.41426 0.75828 0.0
H2019 H 0.85718 0.41348 0.74471 0.0
C2020 C 0.88551 0.45627 0.80063 0.0
C2021 C 0.87675 0.46837 0.78937 0.0
C2022 C 0.87792 0.43699 0.79981 0.0
C2023 C 0.86185 0.4296 0.78731 0.0
C2024 C 0.85332 0.44168 0.77584 0.0
H2025 H 0.7827 0.32521 0.77202 0.0
H2026 H 0.79881 0.35762 0.78138 0.0
C2027 C 0.8608 0.46091 0.77677 0.0
C2028 C 0.85416 0.40917 0.78575 0.0
H2029 H 0.84749 0.36952 0.75477 0.0
C2030 C 0.8447 0.40151 0.80076 0.0
C2031 C 0.85555 0.39745 0.76915 0.0
C2032 C 0.86611 0.40492 0.75289 0.0
C2033 C 0.83606 0.38241 0.79934 0.0
C2034 C 0.83688 0.37085 0.78245 0.0
C2035 C 0.84683 0.37844 0.76769 0.0
C2036 C 0.82725 0.35091 0.77942 0.0
C2037 C 0.82616 0.37476 0.81589 0.0
C2038 C 0.83791 0.33641 0.77532 0.0
C2039 C 0.82876 0.31796 0.76984 0.0
C2040 C 0.80876 0.31367 0.76825 0.0
C2041 C 0.79813 0.32805 0.77314 0.0
C2042 C 0.80731 0.34656 0.7786 0.0
H2043 H 0.83104 0.38377 0.82933 0.0
H2044 H 0.81059 0.37451 0.81311 0.0
H2045 H 0.82866 0.36005 0.8178 0.0
H2046 H 0.85331 0.33951 0.77582 0.0
H2047 H 0.83738 0.30718 0.76628 0.0
H2048 H 0.02469 0.82769 0.13467 0.0
H2049 H 0.02313 0.8595 0.12455 0.0
H2050 H 0.97351 0.83708 0.0864 0.0
H2051 H 0.9748 0.80544 0.09641 0.0
H2052 H 0.02539 0.86923 0.08665 0.0
H2053 H 0.95792 0.88406 0.11445 0.0
H2054 H 0.97066 0.86594 0.12302 0.0
H2055 H 0.95596 0.86151 0.10091 0.0
C2056 C 0.01327 0.82957 0.12435 0.0
C2057 C 0.9999 0.81397 0.11635 0.0
C2058 C 0.01243 0.84774 0.11856 0.0
C2059 C 0.99807 0.85064 0.10489 0.0
C2060 C 0.98449 0.83521 0.09721 0.0
H2061 H 0.00244 0.94306 0.03133 0.0
H2062 H 0.99732 0.91174 0.04373 0.0
C2063 C 0.98536 0.81708 0.10289 0.0
C2064 C 0.99803 0.86948 0.09754 0.0
H2065 H 0.97107 0.90466 0.0922 0.0
C2066 C 0.01357 0.87703 0.08793 0.0
C2067 C 0.9826 0.87962 0.09931 0.0
C2068 C 0.9659 0.87249 0.11013 0.0
C2069 C 0.01397 0.89434 0.07977 0.0
C2070 C 0.99829 0.90422 0.08105 0.0
C2071 C 0.9829 0.89686 0.09096 0.0
C2072 C 0.99828 0.92278 0.07312 0.0
C2073 C 0.03131 0.90209 0.0701 0.0
C2074 C 0.9995 0.93923 0.08545 0.0
C2075 C 0.00235 0.95706 0.07843 0.0
C2076 C 0.00391 0.95874 0.05893 0.0
C2077 C 0.00127 0.94221 0.04641 0.0
C2078 C 0.99851 0.92433 0.05348 0.0
H2079 H 0.04362 0.89478 0.07371 0.0
H2080 H 0.02788 0.90005 0.05447 0.0
H2081 H 0.03558 0.91753 0.07412 0.0
H2082 H 0.99922 0.93831 0.10063 0.0
H2083 H 0.00417 0.96956 0.0884 0.0
H2084 H 0.95769 0.23247 0.83531 0.0
H2085 H 0.92578 0.22999 0.81905 0.0
H2086 H 0.90524 0.25028 0.87136 0.0
H2087 H 0.93773 0.25526 0.88667 0.0
H2088 H 0.89398 0.21184 0.8203 0.0
H2089 H 0.88445 0.27242 0.8612 0.0
H2090 H 0.8846 0.28573 0.84078 0.0
H2091 H 0.90569 0.27694 0.84907 0.0
C2092 C 0.94647 0.23725 0.84297 0.0
C2093 C 0.95038 0.24556 0.86165 0.0
C2094 C 0.9281 0.23539 0.83386 0.0
C2095 C 0.91307 0.2409 0.84362 0.0
C2096 C 0.91668 0.24711 0.86305 0.0
H2097 H 0.79495 0.24551 0.81051 0.0
H2098 H 0.82467 0.24041 0.82712 0.0
C2099 C 0.93522 0.24977 0.87188 0.0
C2100 C 0.8938 0.24002 0.83342 0.0
H2101 H 0.85739 0.26532 0.82549 0.0
C2102 C 0.88611 0.22365 0.82137 0.0
C2103 C 0.88317 0.25527 0.83487 0.0
C2104 C 0.89002 0.27359 0.84705 0.0
C2105 C 0.86834 0.22215 0.81083 0.0
C2106 C 0.85799 0.23743 0.81228 0.0
C2107 C 0.86544 0.25363 0.8244 0.0
C2108 C 0.83922 0.23715 0.80165 0.0
C2109 C 0.86063 0.20413 0.79852 0.0
C2110 C 0.83736 0.23654 0.7817 0.0
C2111 C 0.82022 0.23932 0.77207 0.0
C2112 C 0.80487 0.24306 0.78232 0.0
C2113 C 0.80658 0.24283 0.80221 0.0
C2114 C 0.82354 0.23987 0.81174 0.0
H2115 H 0.86799 0.19217 0.80243 0.0
H2116 H 0.8451 0.20004 0.79961 0.0
H2117 H 0.86279 0.20647 0.78347 0.0
H2118 H 0.84941 0.23481 0.77366 0.0
H2119 H 0.81932 0.23952 0.75676 0.0
H2120 H 0.51232 0.2005 0.64348 0.0
H2121 H 0.51572 0.1685 0.6307 0.0
H2122 H 0.53955 0.19161 0.58157 0.0
H2123 H 0.53627 0.22367 0.59446 0.0
H2124 H 0.50983 0.16049 0.57323 0.0
H2125 H 0.56453 0.14457 0.62678 0.0
H2126 H 0.54462 0.15288 0.63689 0.0
H2127 H 0.56003 0.1684 0.6238 0.0
C2128 C 0.51827 0.19867 0.62996 0.0
C2129 C 0.52345 0.21432 0.61959 0.0
C2130 C 0.52037 0.18048 0.62277 0.0
C2131 C 0.5281 0.17774 0.60531 0.0
C2132 C 0.53362 0.19345 0.5951 0.0
H2133 H 0.52646 0.06872 0.53845 0.0
H2134 H 0.53515 0.1025 0.54917 0.0
C2135 C 0.53154 0.21166 0.60233 0.0
C2136 C 0.52932 0.15832 0.59727 0.0
H2137 H 0.5473 0.11811 0.60679 0.0
C2138 C 0.5182 0.1513 0.58037 0.0
C2139 C 0.54036 0.1464 0.60666 0.0
C2140 C 0.55321 0.15347 0.62445 0.0
C2141 C 0.5169 0.13235 0.57311 0.0
C2142 C 0.5275 0.12022 0.5828 0.0
C2143 C 0.53923 0.12744 0.59935 0.0
C2144 C 0.52506 0.09961 0.57704 0.0
C2145 C 0.50337 0.12527 0.55575 0.0
C2146 C 0.5175 0.08669 0.5895 0.0
C2147 C 0.51274 0.06744 0.58352 0.0
C2148 C 0.51541 0.06071 0.56492 0.0
C2149 C 0.52408 0.07349 0.55281 0.0
C2150 C 0.52894 0.0928 0.55887 0.0
H2151 H 0.49337 0.13533 0.5525 0.0
H2152 H 0.51167 0.1235 0.54328 0.0
H2153 H 0.4949 0.11129 0.55769 0.0
H2154 H 0.51449 0.09163 0.60362 0.0
H2155 H 0.50625 0.05797 0.59328 0.0
H2156 H 0.53538 0.76873 0.3196 0.0
H2157 H 0.56612 0.76924 0.30694 0.0
H2158 H 0.58989 0.75369 0.36028 0.0
H2159 H 0.55871 0.75257 0.37307 0.0
H2160 H 0.60003 0.79034 0.31752 0.0
H2161 H 0.60467 0.71408 0.32298 0.0
H2162 H 0.58312 0.72373 0.3265 0.0
H2163 H 0.60225 0.7271 0.34508 0.0
C2164 C 0.54708 0.76544 0.32877 0.0
C2165 C 0.54449 0.76053 0.3474 0.0
C2166 C 0.56471 0.76576 0.32145 0.0
C2167 C 0.58027 0.76128 0.33254 0.0
C2168 C 0.57796 0.7568 0.35131 0.0
H2169 H 0.69545 0.78233 0.29572 0.0
H2170 H 0.6666 0.78453 0.31168 0.0
C2171 C 0.56017 0.75629 0.35865 0.0
C2172 C 0.59871 0.76128 0.3241 0.0
H2173 H 0.6308 0.73279 0.31141 0.0
C2174 C 0.60681 0.77777 0.31624 0.0
C2175 C 0.60738 0.7448 0.32221 0.0
C2176 C 0.59886 0.72636 0.32947 0.0
C2177 C 0.62316 0.77817 0.30631 0.0
C2178 C 0.63198 0.76177 0.30464 0.0
C2179 C 0.62403 0.74536 0.31272 0.0
C2180 C 0.64925 0.76114 0.2943 0.0
C2181 C 0.63038 0.79594 0.29714 0.0
C2182 C 0.6492 0.74714 0.27931 0.0
C2183 C 0.66576 0.74568 0.27029 0.0
C2184 C 0.68271 0.75824 0.27607 0.0
C2185 C 0.68259 0.77257 0.29075 0.0
C2186 C 0.66607 0.77389 0.29988 0.0
H2187 H 0.61911 0.80493 0.29499 0.0
H2188 H 0.6423 0.80444 0.30652 0.0
H2189 H 0.63571 0.79249 0.28318 0.0
H2190 H 0.63638 0.73715 0.27477 0.0
H2191 H 0.66539 0.73446 0.25908 0.0
H2192 H 0.00469 0.20531 0.3958 0.0
H2193 H 0.00149 0.17499 0.41023 0.0
H2194 H 0.02243 0.20445 0.46482 0.0
H2195 H 0.02606 0.2346 0.45051 0.0
H2196 H 0.03983 0.17431 0.45731 0.0
H2197 H 0.96158 0.15292 0.44398 0.0
H2198 H 0.97317 0.15788 0.42286 0.0
H2199 H 0.97334 0.17663 0.44126 0.0
C2200 C 0.00857 0.2053 0.41088 0.0
C2201 C 0.01563 0.22235 0.422 0.0
C2202 C 0.00657 0.18799 0.41914 0.0
C2203 C 0.0114 0.18748 0.43869 0.0
C2204 C 0.01851 0.2045 0.44975 0.0
H2205 H 0.98916 0.08728 0.50363 0.0
H2206 H 0.98899 0.11891 0.4922 0.0
C2207 C 0.0206 0.22174 0.44151 0.0
C2208 C 0.00998 0.1692 0.44756 0.0
H2209 H 0.97927 0.12928 0.45465 0.0
C2210 C 0.02655 0.16455 0.45683 0.0
C2211 C 0.99259 0.15659 0.44722 0.0
C2212 C 0.97411 0.1613 0.43847 0.0
C2213 C 0.02633 0.14741 0.46528 0.0
C2214 C 0.00916 0.13439 0.46412 0.0
C2215 C 0.99244 0.13925 0.45539 0.0
C2216 C 0.00867 0.11523 0.47091 0.0
C2217 C 0.04452 0.14339 0.47537 0.0
C2218 C 0.01949 0.10265 0.4625 0.0
C2219 C 0.01966 0.08476 0.46898 0.0
C2220 C 0.00889 0.07893 0.48396 0.0
C2221 C 0.99769 0.09139 0.49215 0.0
C2222 C 0.99754 0.10942 0.48562 0.0
H2223 H 0.05463 0.15667 0.4798 0.0
H2224 H 0.04159 0.13567 0.48813 0.0
H2225 H 0.05159 0.13442 0.46559 0.0
H2226 H 0.02787 0.1067 0.45089 0.0
H2227 H 0.02833 0.07551 0.46218 0.0
H2228 H 0.5456 0.24921 0.19144 0.0
H2229 H 0.57727 0.24773 0.20646 0.0
H2230 H 0.59795 0.23934 0.15127 0.0
H2231 H 0.56609 0.24027 0.13611 0.0
H2232 H 0.61026 0.21534 0.17621 0.0
H2233 H 0.62285 0.28924 0.20978 0.0
H2234 H 0.60157 0.27523 0.21617 0.0
H2235 H 0.60345 0.28068 0.19193 0.0
C2236 C 0.5569 0.24715 0.18248 0.0
C2237 C 0.5534 0.24502 0.16258 0.0
C2238 C 0.57502 0.24637 0.1911 0.0
C2239 C 0.59006 0.24377 0.17999 0.0
C2240 C 0.58656 0.24144 0.16011 0.0
H2241 H 0.71068 0.24931 0.19592 0.0
H2242 H 0.677 0.24265 0.1843 0.0
C2243 C 0.56838 0.24205 0.15147 0.0
C2244 C 0.60942 0.2434 0.18908 0.0
H2245 H 0.64577 0.26989 0.21807 0.0
C2246 C 0.61803 0.22726 0.18537 0.0
C2247 C 0.61952 0.25896 0.20106 0.0
C2248 C 0.61147 0.27708 0.20486 0.0
C2249 C 0.63649 0.22629 0.1933 0.0
C2250 C 0.64658 0.2419 0.20513 0.0
C2251 C 0.63787 0.25787 0.20913 0.0
C2252 C 0.66676 0.24273 0.21229 0.0
C2253 C 0.64509 0.20863 0.18897 0.0
C2254 C 0.67215 0.2447 0.23189 0.0
C2255 C 0.69144 0.24843 0.2386 0.0
C2256 C 0.70558 0.25059 0.22576 0.0
C2257 C 0.70011 0.24775 0.20615 0.0
C2258 C 0.68087 0.24384 0.19948 0.0
H2259 H 0.634 0.19628 0.18384 0.0
H2260 H 0.65494 0.21114 0.17769 0.0
H2261 H 0.6534 0.20505 0.20174 0.0
H2262 H 0.66143 0.24403 0.24198 0.0
H2263 H 0.69522 0.25068 0.25378 0.0
H2264 H 0.53528 0.81059 0.94346 0.0
H2265 H 0.53874 0.83907 0.96551 0.0
H2266 H 0.53 0.87274 0.91857 0.0
H2267 H 0.52646 0.84441 0.89633 0.0
H2268 H 0.56364 0.87766 0.96636 0.0
H2269 H 0.48551 0.87709 0.9546 0.0
H2270 H 0.49651 0.85651 0.94875 0.0
H2271 H 0.49776 0.87546 0.9334 0.0
C2272 C 0.53436 0.82408 0.93774 0.0
C2273 C 0.53033 0.82515 0.91809 0.0
C2274 C 0.53641 0.84033 0.95039 0.0
C2275 C 0.5344 0.85788 0.94363 0.0
C2276 C 0.53144 0.85923 0.92401 0.0
H2277 H 0.52733 0.97046 0.97797 0.0
H2278 H 0.53288 0.94 0.96384 0.0
C2279 C 0.52945 0.84302 0.91133 0.0
C2280 C 0.53376 0.8745 0.95708 0.0
H2281 H 0.50378 0.90447 0.97163 0.0
C2282 C 0.55054 0.88343 0.96775 0.0
C2283 C 0.51657 0.88175 0.95898 0.0
C2284 C 0.49799 0.87216 0.94847 0.0
C2285 C 0.55071 0.90015 0.97956 0.0
C2286 C 0.53369 0.90784 0.98071 0.0
C2287 C 0.51679 0.89843 0.97068 0.0
C2288 C 0.53337 0.92677 0.99029 0.0
C2289 C 0.56912 0.91002 0.99008 0.0
C2290 C 0.53223 0.92947 0.00998 0.0
C2291 C 0.52909 0.94703 0.01823 0.0
C2292 C 0.52683 0.96191 0.00676 0.0
C2293 C 0.52885 0.95926 0.98719 0.0
C2294 C 0.53208 0.94188 0.97907 0.0
H2295 H 0.58114 0.9021 0.98785 0.0
H2296 H 0.57274 0.92445 0.98527 0.0
H2297 H 0.56738 0.91171 0.00553 0.0
H2298 H 0.53305 0.91782 0.01879 0.0
H2299 H 0.52753 0.94867 0.03333 0.0
H2300 H 0.94513 0.7456 0.65802 0.0
H2301 H 0.91476 0.74768 0.67144 0.0
H2302 H 0.94337 0.78947 0.71528 0.0
H2303 H 0.97373 0.7876 0.70205 0.0
H2304 H 0.90624 0.74083 0.70989 0.0
H2305 H 0.89835 0.81383 0.69217 0.0
H2306 H 0.9141 0.8001 0.68053 0.0
H2307 H 0.92086 0.81121 0.70411 0.0
C2308 C 0.94498 0.75535 0.67043 0.0
C2309 C 0.96192 0.76647 0.67889 0.0
C2310 C 0.92761 0.75648 0.6781 0.0
C2311 C 0.92683 0.76887 0.69422 0.0
C2312 C 0.94364 0.78002 0.70266 0.0
H2313 H 0.82865 0.76176 0.76288 0.0
H2314 H 0.86165 0.76672 0.75408 0.0
C2315 C 0.961 0.77885 0.69509 0.0
C2316 C 0.9085 0.76969 0.70257 0.0
H2317 H 0.87538 0.79853 0.71069 0.0
C2318 C 0.89952 0.75346 0.71017 0.0
C2319 C 0.8998 0.78619 0.70283 0.0
C2320 C 0.90864 0.80382 0.69436 0.0
C2321 C 0.88193 0.75322 0.7179 0.0
C2322 C 0.87322 0.76973 0.7182 0.0
C2323 C 0.88226 0.78601 0.71069 0.0
C2324 C 0.85384 0.76963 0.72444 0.0
C2325 C 0.87246 0.73512 0.72512 0.0
C2326 C 0.83871 0.77051 0.71088 0.0
C2327 C 0.81998 0.7677 0.71584 0.0
C2328 C 0.81604 0.76412 0.7345 0.0
C2329 C 0.83128 0.76455 0.74841 0.0
C2330 C 0.85009 0.76723 0.74338 0.0
H2331 H 0.87958 0.72283 0.72107 0.0
H2332 H 0.87301 0.73693 0.74086 0.0
H2333 H 0.85724 0.73184 0.71951 0.0
H2334 H 0.84132 0.77243 0.69622 0.0
H2335 H 0.80852 0.76758 0.70485 0.0
H2336 H 0.08803 0.9962 0.82092 0.0
H2337 H 0.06715 0.99486 0.84689 0.0
H2338 H 0.11623 0.0015 0.88767 0.0
H2339 H 0.1372 0.00313 0.86198 0.0
H2340 H 0.06246 0.97059 0.87637 0.0
H2341 H 0.08858 0.04481 0.90523 0.0
H2342 H 0.09347 0.03567 0.88199 0.0
H2343 H 0.10739 0.03096 0.90287 0.0
C2344 C 0.09442 0.99731 0.83541 0.0
C2345 C 0.11438 0.99994 0.83928 0.0
C2346 C 0.08243 0.99652 0.85024 0.0
C2347 C 0.09012 0.99844 0.86925 0.0
C2348 C 0.10997 0.00041 0.87314 0.0
H2349 H 0.05664 0.99901 0.98209 0.0
H2350 H 0.07156 0.99737 0.95234 0.0
C2351 C 0.12195 0.00123 0.85837 0.0
C2352 C 0.07756 0.99865 0.88512 0.0
H2353 H 0.07021 0.0252 0.92518 0.0
C2354 C 0.06397 0.9826 0.88694 0.0
C2355 C 0.07941 0.01441 0.89881 0.0
C2356 C 0.09286 0.03251 0.89707 0.0
C2357 C 0.05287 0.98157 0.90258 0.0
C2358 C 0.05531 0.99704 0.91664 0.0
C2359 C 0.06843 0.0133 0.91446 0.0
C2360 C 0.04544 0.99633 0.9344 0.0
C2361 C 0.03916 0.96369 0.90442 0.0
C2362 C 0.02565 0.99601 0.93424 0.0
C2363 C 0.01696 0.99696 0.95138 0.0
C2364 C 0.02797 0.99838 0.96894 0.0
C2365 C 0.04768 0.99809 0.96889 0.0
C2366 C 0.05629 0.99714 0.95187 0.0
H2367 H 0.041 0.95197 0.89387 0.0
H2368 H 0.0411 0.95895 0.91892 0.0
H2369 H 0.02434 0.96659 0.90216 0.0
H2370 H 0.01703 0.99561 0.92091 0.0
H2371 H 0.00178 0.99721 0.95088 0.0
H2372 H 0.73751 0.32824 0.54488 0.0
H2373 H 0.74284 0.31186 0.57334 0.0
H2374 H 0.78283 0.36035 0.59819 0.0
H2375 H 0.7772 0.37708 0.56981 0.0
H2376 H 0.77624 0.30195 0.58765 0.0
H2377 H 0.74875 0.3496 0.64078 0.0
H2378 H 0.74432 0.35083 0.61552 0.0
H2379 H 0.76699 0.36124 0.6276 0.0
C2380 C 0.74728 0.33553 0.55648 0.0
C2381 C 0.7569 0.35398 0.55515 0.0
C2382 C 0.75035 0.32611 0.57271 0.0
C2383 C 0.76311 0.33492 0.58794 0.0
C2384 C 0.77264 0.35342 0.58675 0.0
H2385 H 0.79515 0.29293 0.69628 0.0
H2386 H 0.79604 0.31008 0.66769 0.0
C2387 C 0.76946 0.36294 0.57052 0.0
C2388 C 0.76678 0.32434 0.60469 0.0
H2389 H 0.76302 0.32452 0.65246 0.0
C2390 C 0.77338 0.3069 0.60183 0.0
C2391 C 0.76308 0.33085 0.62318 0.0
C2392 C 0.75523 0.34907 0.62701 0.0
C2393 C 0.77624 0.29573 0.61694 0.0
C2394 C 0.77229 0.30212 0.63533 0.0
C2395 C 0.7661 0.31973 0.6383 0.0
C2396 C 0.77349 0.29038 0.65157 0.0
C2397 C 0.78348 0.27718 0.61315 0.0
C2398 C 0.76075 0.27342 0.65179 0.0
C2399 C 0.76015 0.26358 0.66811 0.0
C2400 C 0.77225 0.27059 0.68452 0.0
C2401 C 0.78564 0.28711 0.6839 0.0
C2402 C 0.78615 0.29698 0.6676 0.0
H2403 H 0.79021 0.27652 0.59952 0.0
H2404 H 0.794 0.27499 0.62484 0.0
H2405 H 0.77134 0.26534 0.61231 0.0
H2406 H 0.75069 0.26824 0.63962 0.0
H2407 H 0.74965 0.25095 0.66813 0.0
H2408 H 0.3883 0.02881 0.36092 0.0
H2409 H 0.41101 0.03321 0.38897 0.0
H2410 H 0.45743 0.04549 0.35384 0.0
H2411 H 0.43484 0.04089 0.32556 0.0
H2412 H 0.46245 0.01756 0.37706 0.0
H2413 H 0.44317 0.0788 0.41919 0.0
H2414 H 0.42273 0.0612 0.41178 0.0
H2415 H 0.43559 0.07343 0.39421 0.0
C2416 C 0.40329 0.03285 0.35912 0.0
C2417 C 0.40969 0.0344 0.3409 0.0
C2418 C 0.41628 0.03548 0.37524 0.0
C2419 C 0.43592 0.0399 0.37353 0.0
C2420 C 0.44233 0.04219 0.35548 0.0
H2421 H 0.52292 0.02791 0.46669 0.0
H2422 H 0.50991 0.03774 0.43647 0.0
C2423 C 0.42935 0.03956 0.33933 0.0
C2424 C 0.44968 0.03999 0.39034 0.0
H2425 H 0.45949 0.05735 0.43678 0.0
C2426 C 0.46217 0.02657 0.39001 0.0
C2427 C 0.44935 0.05181 0.40716 0.0
C2428 C 0.43712 0.06726 0.40807 0.0
C2429 C 0.47329 0.0237 0.40645 0.0
C2430 C 0.47201 0.03471 0.42357 0.0
C2431 C 0.4604 0.0489 0.42362 0.0
C2432 C 0.48042 0.02993 0.44201 0.0
C2433 C 0.48532 0.00808 0.40573 0.0
C2434 C 0.46816 0.02262 0.45516 0.0
C2435 C 0.47547 0.01699 0.47224 0.0
C2436 C 0.49526 0.01866 0.47667 0.0
C2437 C 0.50761 0.02637 0.46365 0.0
C2438 C 0.50022 0.03195 0.4464 0.0
H2439 H 0.48298 0.99938 0.39186 0.0
H2440 H 0.50061 0.0144 0.40804 0.0
H2441 H 0.48214 0.99861 0.4172 0.0
H2442 H 0.45284 0.02093 0.45204 0.0
H2443 H 0.46549 0.01124 0.48194 0.0
H2444 H 0.7547 0.63336 0.06536 0.0
H2445 H 0.75422 0.64738 0.09787 0.0
H2446 H 0.78188 0.70112 0.08212 0.0
H2447 H 0.78242 0.68722 0.04953 0.0
H2448 H 0.79776 0.689 0.11692 0.0
H2449 H 0.7193 0.68608 0.11488 0.0
H2450 H 0.72697 0.66412 0.1074 0.0
H2451 H 0.73166 0.68415 0.09364 0.0
C2452 C 0.76075 0.64815 0.06881 0.0
C2453 C 0.76856 0.65919 0.05484 0.0
C2454 C 0.76033 0.65617 0.08736 0.0
C2455 C 0.76772 0.67536 0.09231 0.0
C2456 C 0.77596 0.68631 0.07854 0.0
H2457 H 0.75945 0.74165 0.20025 0.0
H2458 H 0.75794 0.73131 0.1662 0.0
C2459 C 0.77628 0.67834 0.05994 0.0
C2460 C 0.76717 0.68388 0.11197 0.0
H2461 H 0.73679 0.69364 0.14518 0.0
C2462 C 0.78444 0.69015 0.12305 0.0
C2463 C 0.74977 0.68557 0.11987 0.0
C2464 C 0.73084 0.67979 0.10832 0.0
C2465 C 0.78476 0.69742 0.14206 0.0
C2466 C 0.76736 0.69841 0.15017 0.0
C2467 C 0.75009 0.69277 0.13892 0.0
C2468 C 0.76695 0.70431 0.17061 0.0
C2469 C 0.80368 0.70383 0.15346 0.0
C2470 C 0.77202 0.69234 0.18425 0.0
C2471 C 0.77276 0.69809 0.20358 0.0
C2472 C 0.7685 0.71601 0.20972 0.0
C2473 C 0.76282 0.72778 0.196 0.0
C2474 C 0.76198 0.72192 0.17657 0.0
H2475 H 0.81565 0.70571 0.14424 0.0
H2476 H 0.80357 0.71742 0.16207 0.0
H2477 H 0.80632 0.69302 0.16339 0.0
H2478 H 0.77571 0.67862 0.17991 0.0
H2479 H 0.77712 0.68862 0.21371 0.0
H2480 H 0.0812 0.98887 0.73625 0.0
H2481 H 0.06683 0.99051 0.70406 0.0
H2482 H 0.12261 0.00714 0.68522 0.0
H2483 H 0.13705 0.00592 0.71745 0.0
H2484 H 0.09752 0.03025 0.67388 0.0
H2485 H 0.06472 0.95491 0.65657 0.0
H2486 H 0.05775 0.96555 0.67815 0.0
H2487 H 0.08217 0.96245 0.67653 0.0
C2488 C 0.09044 0.99259 0.72519 0.0
C2489 C 0.11029 0.99721 0.72941 0.0
C2490 C 0.08219 0.99346 0.70676 0.0
C2491 C 0.09364 0.99875 0.69214 0.0
C2492 C 0.11348 0.00299 0.69625 0.0
H2493 H 0.08117 0.01201 0.57277 0.0
H2494 H 0.09168 0.01258 0.60645 0.0
C2495 C 0.12173 0.00222 0.71468 0.0
C2496 C 0.08495 0.00081 0.67278 0.0
H2497 H 0.05712 0.97667 0.63464 0.0
C2498 C 0.0887 0.01852 0.66531 0.0
C2499 C 0.07332 0.98554 0.66163 0.0
C2500 C 0.06936 0.96599 0.66852 0.0
C2501 C 0.08123 0.02135 0.64699 0.0
C2502 C 0.06985 0.00602 0.63576 0.0
C2503 C 0.06576 0.98842 0.64334 0.0
C2504 C 0.06322 0.00755 0.61564 0.0
C2505 C 0.08555 0.04073 0.63981 0.0
C2506 C 0.04369 0.00465 0.60959 0.0
C2507 C 0.0376 0.00442 0.59027 0.0
C2508 C 0.05098 0.00678 0.57667 0.0
C2509 C 0.0705 0.0102 0.58288 0.0
C2510 C 0.07655 0.01059 0.60215 0.0
H2511 H 0.08988 0.05198 0.65167 0.0
H2512 H 0.09747 0.04093 0.63058 0.0
H2513 H 0.073 0.04416 0.63127 0.0
H2514 H 0.03317 0.00217 0.61977 0.0
H2515 H 0.02247 0.00155 0.58592 0.0
H2516 H 0.73918 0.37903 0.42808 0.0
H2517 H 0.73461 0.35603 0.40032 0.0
H2518 H 0.72466 0.31024 0.43645 0.0
H2519 H 0.72948 0.3331 0.46438 0.0
H2520 H 0.75185 0.30537 0.4126 0.0
H2521 H 0.68868 0.32286 0.37165 0.0
H2522 H 0.70622 0.34351 0.37823 0.0
H2523 H 0.69475 0.33095 0.39643 0.0
C2524 C 0.73564 0.36411 0.43015 0.0
C2525 C 0.7348 0.35796 0.44851 0.0
C2526 C 0.73291 0.35095 0.41421 0.0
C2527 C 0.72905 0.33141 0.41629 0.0
C2528 C 0.72752 0.32525 0.43453 0.0
H2529 H 0.73982 0.24395 0.32363 0.0
H2530 H 0.73024 0.25698 0.35394 0.0
C2531 C 0.7303 0.33837 0.45048 0.0
C2532 C 0.72871 0.31751 0.39964 0.0
H2533 H 0.70995 0.30664 0.3537 0.0
C2534 C 0.74239 0.30528 0.39986 0.0
C2535 C 0.71627 0.31734 0.38309 0.0
C2536 C 0.70052 0.32924 0.38238 0.0
C2537 C 0.7449 0.29395 0.3835 0.0
C2538 C 0.73329 0.29475 0.3666 0.0
C2539 C 0.71885 0.30609 0.36671 0.0
C2540 C 0.73779 0.28631 0.34812 0.0
C2541 C 0.76078 0.2822 0.38401 0.0
C2542 C 0.74489 0.29849 0.33484 0.0
C2543 C 0.75039 0.29118 0.31775 0.0
C2544 C 0.7488 0.27146 0.31343 0.0
C2545 C 0.74127 0.25919 0.32658 0.0
C2546 C 0.73584 0.26659 0.34387 0.0
H2547 H 0.76974 0.28465 0.39776 0.0
H2548 H 0.75463 0.26692 0.38179 0.0
H2549 H 0.77004 0.28549 0.37238 0.0
H2550 H 0.74653 0.31374 0.33788 0.0
H2551 H 0.756 0.30109 0.30795 0.0
H2552 H 0.38668 0.00466 0.21668 0.0
H2553 H 0.4018 0.00116 0.18702 0.0
H2554 H 0.45361 0.03508 0.21341 0.0
H2555 H 0.43853 0.03888 0.24307 0.0
H2556 H 0.44377 0.04457 0.1772 0.0
H2557 H 0.44196 0.9669 0.17795 0.0
H2558 H 0.41906 0.97412 0.17969 0.0
H2559 H 0.43769 0.98169 0.19846 0.0
C2560 C 0.40124 0.01151 0.21614 0.0
C2561 C 0.41144 0.02198 0.23225 0.0
C2562 C 0.40992 0.00934 0.19923 0.0
C2563 C 0.42896 0.01748 0.19818 0.0
C2564 C 0.43896 0.02852 0.21401 0.0
H2565 H 0.49635 0.99065 0.1035 0.0
H2566 H 0.48552 0.99454 0.1355 0.0
C2567 C 0.43029 0.03072 0.23092 0.0
C2568 C 0.4384 0.01461 0.18049 0.0
H2569 H 0.44969 0.98035 0.14909 0.0
C2570 C 0.44521 0.03055 0.17113 0.0
C2571 C 0.4406 0.99632 0.17279 0.0
C2572 C 0.43462 0.97878 0.18283 0.0
C2573 C 0.45344 0.02863 0.15387 0.0
C2574 C 0.45465 0.01028 0.14563 0.0
C2575 C 0.44858 0.99439 0.15536 0.0
C2576 C 0.46108 0.00731 0.12641 0.0
C2577 C 0.46071 0.04628 0.14452 0.0
C2578 C 0.45064 0.01273 0.11075 0.0
C2579 C 0.45671 0.01051 0.0926 0.0
C2580 C 0.47333 0.0027 0.08967 0.0
C2581 C 0.48352 0.99674 0.10531 0.0
C2582 C 0.47738 0.99898 0.12357 0.0
H2583 H 0.46381 0.05897 0.15494 0.0
H2584 H 0.47383 0.04464 0.13747 0.0
H2585 H 0.44966 0.04887 0.13355 0.0
H2586 H 0.43779 0.01879 0.11259 0.0
H2587 H 0.44842 0.01513 0.08088 0.0
H2588 H 0.75811 0.67835 0.95903 0.0
H2589 H 0.75924 0.69785 0.93203 0.0
H2590 H 0.78754 0.65746 0.90147 0.0
H2591 H 0.78544 0.63742 0.92799 0.0
H2592 H 0.78522 0.71625 0.91363 0.0
H2593 H 0.7445 0.65899 0.86336 0.0
H2594 H 0.74764 0.65663 0.88848 0.0
H2595 H 0.76608 0.6523 0.87339 0.0
C2596 C 0.76466 0.67368 0.94658 0.0
C2597 C 0.77149 0.65623 0.94556 0.0
C2598 C 0.7653 0.68484 0.93113 0.0
C2599 C 0.773 0.67893 0.91441 0.0
C2600 C 0.78086 0.66204 0.91385 0.0
H2601 H 0.7973 0.75325 0.82239 0.0
H2602 H 0.79968 0.73697 0.85162 0.0
C2603 C 0.77982 0.65066 0.92911 0.0
C2604 C 0.77239 0.69017 0.89748 0.0
H2605 H 0.75876 0.68646 0.8499 0.0
C2606 C 0.77934 0.70975 0.89971 0.0
C2607 C 0.76439 0.68185 0.87931 0.0
C2608 C 0.75505 0.66135 0.87601 0.0
C2609 C 0.7786 0.72115 0.88436 0.0
C2610 C 0.77138 0.71264 0.86603 0.0
C2611 C 0.76446 0.69306 0.86385 0.0
C2612 C 0.77006 0.72364 0.84895 0.0
C2613 C 0.785 0.74227 0.88816 0.0
C2614 C 0.75281 0.72138 0.8374 0.0
C2615 C 0.75166 0.73013 0.82046 0.0
C2616 C 0.76761 0.74171 0.81481 0.0
C2617 C 0.78474 0.74458 0.82658 0.0
C2618 C 0.78604 0.73536 0.84336 0.0
H2619 H 0.78422 0.7471 0.90331 0.0
H2620 H 0.80006 0.74577 0.88494 0.0
H2621 H 0.77619 0.75032 0.87919 0.0
H2622 H 0.74022 0.71254 0.84133 0.0
H2623 H 0.73824 0.72776 0.81171 0.0
H2624 H 0.79536 0.08728 0.98616 0.0
H2625 H 0.82466 0.07382 0.98404 0.0
H2626 H 0.85511 0.12005 0.02218 0.0
H2627 H 0.82579 0.13366 0.0246 0.0
H2628 H 0.86091 0.08945 0.97274 0.0
H2629 H 0.86451 0.07184 0.04786 0.0
H2630 H 0.84328 0.07786 0.03583 0.0
H2631 H 0.86269 0.0962 0.04472 0.0
C2632 C 0.80827 0.09471 0.99407 0.0
C2633 C 0.80813 0.11152 0.0057 0.0
C2634 C 0.82502 0.08696 0.99278 0.0
C2635 C 0.84195 0.09578 0.00316 0.0
C2636 C 0.84207 0.11286 0.0143 0.0
H2637 H 0.95602 0.0745 0.02321 0.0
H2638 H 0.92592 0.08656 0.02072 0.0
C2639 C 0.82532 0.12067 0.01558 0.0
C2640 C 0.85935 0.08682 0.00269 0.0
H2641 H 0.89116 0.06773 0.03082 0.0
C2642 C 0.86751 0.0846 0.98539 0.0
C2643 C 0.86775 0.08034 0.01919 0.0
C2644 C 0.85905 0.08149 0.03793 0.0
C2645 C 0.88432 0.07667 0.98432 0.0
C2646 C 0.89294 0.07057 0.00093 0.0
C2647 C 0.88452 0.07245 0.01811 0.0
C2648 C 0.91134 0.06333 0.00121 0.0
C2649 C 0.89308 0.07544 0.96563 0.0
C2650 C 0.91319 0.04623 0.99095 0.0
C2651 C 0.93054 0.03921 0.99232 0.0
C2652 C 0.94621 0.04917 0.00406 0.0
C2653 C 0.94427 0.06639 0.01408 0.0
C2654 C 0.92704 0.07335 0.01269 0.0
H2655 H 0.88671 0.08399 0.95513 0.0
H2656 H 0.90869 0.08037 0.9677 0.0
H2657 H 0.89072 0.06043 0.95959 0.0
H2658 H 0.90113 0.03813 0.98223 0.0
H2659 H 0.93158 0.02588 0.98449 0.0
H2660 H 0.31185 0.42879 0.05238 0.0
H2661 H 0.34448 0.44542 0.05276 0.0
H2662 H 0.36105 0.39479 0.02636 0.0
H2663 H 0.3278 0.37927 0.02361 0.0
H2664 H 0.37592 0.44409 0.06741 0.0
H2665 H 0.38378 0.42752 0.99116 0.0
H2666 H 0.36233 0.4185 0.00132 0.0
H2667 H 0.38262 0.40643 0.00341 0.0
C2668 C 0.32236 0.4216 0.04589 0.0
C2669 C 0.31708 0.40341 0.03654 0.0
C2670 C 0.34116 0.43092 0.04649 0.0
C2671 C 0.35533 0.42183 0.03862 0.0
C2672 C 0.35034 0.40272 0.03133 0.0
H2673 H 0.47578 0.45684 0.02951 0.0
H2674 H 0.44429 0.43976 0.03345 0.0
C2675 C 0.33136 0.39373 0.02997 0.0
C2676 C 0.37514 0.43238 0.03833 0.0
H2677 H 0.41179 0.44227 0.01022 0.0
C2678 C 0.38358 0.44378 0.05477 0.0
C2679 C 0.38558 0.43193 0.02199 0.0
C2680 C 0.378 0.42056 0.00348 0.0
C2681 C 0.40184 0.45463 0.0553 0.0
C2682 C 0.41202 0.45417 0.03898 0.0
C2683 C 0.40385 0.44267 0.02269 0.0
C2684 C 0.43145 0.46497 0.03846 0.0
C2685 C 0.41027 0.46622 0.07344 0.0
C2686 C 0.43477 0.48492 0.0401 0.0
C2687 C 0.4529 0.49485 0.03783 0.0
C2688 C 0.46793 0.48494 0.03374 0.0
C2689 C 0.46455 0.46498 0.03252 0.0
C2690 C 0.44654 0.45514 0.03481 0.0
H2691 H 0.40251 0.46189 0.08584 0.0
H2692 H 0.42551 0.46486 0.07637 0.0
H2693 H 0.40945 0.4814 0.07192 0.0
H2694 H 0.42323 0.4928 0.04257 0.0
H2695 H 0.45501 0.5102 0.03879 0.0
H2696 H 0.37979 0.56195 0.74369 0.0
H2697 H 0.36864 0.59282 0.74312 0.0
H2698 H 0.33018 0.57693 0.78544 0.0
H2699 H 0.34123 0.54653 0.78631 0.0
H2700 H 0.33065 0.59846 0.73391 0.0
H2701 H 0.35636 0.62969 0.80685 0.0
H2702 H 0.36541 0.60978 0.7957 0.0
H2703 H 0.34311 0.60622 0.80628 0.0
C2704 C 0.3692 0.56519 0.75309 0.0
C2705 C 0.36145 0.55172 0.76504 0.0
C2706 C 0.36279 0.58278 0.7527 0.0
C2707 C 0.34875 0.58727 0.76443 0.0
C2708 C 0.34128 0.57397 0.77655 0.0
H2709 H 0.27916 0.67608 0.78095 0.0
H2710 H 0.29327 0.6468 0.78135 0.0
C2711 C 0.34757 0.55648 0.7769 0.0
C2712 C 0.34088 0.60526 0.76336 0.0
H2713 H 0.33243 0.64408 0.79052 0.0
C2714 C 0.33123 0.60857 0.74621 0.0
C2715 C 0.34149 0.61833 0.77948 0.0
C2716 C 0.3523 0.61595 0.79807 0.0
C2717 C 0.32174 0.62433 0.7449 0.0
C2718 C 0.32213 0.63725 0.7611 0.0
C2719 C 0.33197 0.63406 0.77818 0.0
C2720 C 0.31303 0.65455 0.76042 0.0
C2721 C 0.31092 0.62673 0.72631 0.0
C2722 C 0.31951 0.66859 0.74862 0.0
C2723 C 0.31152 0.68521 0.74837 0.0
C2724 C 0.29691 0.68826 0.76 0.0
C2725 C 0.29031 0.67413 0.77176 0.0
C2726 C 0.2984 0.65744 0.77204 0.0
H2727 H 0.30776 0.61325 0.71702 0.0
H2728 H 0.2973 0.6319 0.72875 0.0
H2729 H 0.31966 0.63736 0.71864 0.0
H2730 H 0.331 0.66683 0.73981 0.0
H2731 H 0.31699 0.69578 0.73914 0.0
H2732 H 0.20586 0.64248 0.51216 0.0
H2733 H 0.17286 0.62882 0.51606 0.0
H2734 H 0.19276 0.58374 0.5453 0.0
H2735 H 0.22579 0.59726 0.54101 0.0
H2736 H 0.16525 0.57018 0.51841 0.0
H2737 H 0.14161 0.6285 0.56094 0.0
H2738 H 0.15147 0.63662 0.5399 0.0
H2739 H 0.16642 0.62787 0.55777 0.0
C2740 C 0.2031 0.62971 0.51948 0.0
C2741 C 0.21815 0.62054 0.5258 0.0
C2742 C 0.18431 0.62204 0.52192 0.0
C2743 C 0.18033 0.60543 0.53128 0.0
C2744 C 0.19549 0.59662 0.53813 0.0
H2745 H 0.06888 0.53323 0.53278 0.0
H2746 H 0.10231 0.54707 0.54144 0.0
C2747 C 0.21428 0.6042 0.53553 0.0
C2748 C 0.16031 0.59642 0.53235 0.0
H2749 H 0.11669 0.60544 0.54385 0.0
C2750 C 0.15469 0.57781 0.5241 0.0
C2751 C 0.14655 0.60631 0.54013 0.0
C2752 C 0.15187 0.62586 0.55037 0.0
C2753 C 0.13555 0.56926 0.52211 0.0
C2754 C 0.12166 0.57941 0.52921 0.0
C2755 C 0.12736 0.59771 0.53833 0.0
C2756 C 0.10106 0.57186 0.5259 0.0
C2757 C 0.13029 0.54986 0.51149 0.0
C2758 C 0.08914 0.5816 0.51499 0.0
C2759 C 0.07006 0.57385 0.51019 0.0
C2760 C 0.06255 0.55617 0.5162 0.0
C2761 C 0.07432 0.54676 0.52776 0.0
C2762 C 0.09342 0.55462 0.53267 0.0
H2763 H 0.14199 0.54598 0.50323 0.0
H2764 H 0.12726 0.53909 0.5218 0.0
H2765 H 0.11734 0.54917 0.50155 0.0
H2766 H 0.09475 0.59494 0.50966 0.0
H2767 H 0.06136 0.58152 0.50136 0.0
H2768 H 0.68837 0.97377 0.80404 0.0
H2769 H 0.70548 0.94686 0.80595 0.0
H2770 H 0.67241 0.91898 0.75543 0.0
H2771 H 0.65477 0.94578 0.75366 0.0
H2772 H 0.67773 0.8943 0.78223 0.0
H2773 H 0.74672 0.93791 0.77176 0.0
H2774 H 0.73576 0.94686 0.79178 0.0
H2775 H 0.72429 0.94646 0.76819 0.0
C2776 C 0.68461 0.96188 0.79337 0.0
C2777 C 0.67033 0.96202 0.77856 0.0
C2778 C 0.69452 0.94655 0.79443 0.0
C2779 C 0.69061 0.93116 0.78054 0.0
C2780 C 0.67578 0.93081 0.76621 0.0
H2781 H 0.7643 0.84891 0.75475 0.0
H2782 H 0.7473 0.87606 0.75617 0.0
C2783 C 0.66568 0.94611 0.76523 0.0
C2784 C 0.70224 0.91563 0.78085 0.0
H2785 H 0.748 0.90672 0.7807 0.0
C2786 C 0.69309 0.89698 0.78185 0.0
C2787 C 0.72226 0.91913 0.78005 0.0
C2788 C 0.73283 0.93864 0.77769 0.0
C2789 C 0.70342 0.88177 0.78233 0.0
C2790 C 0.72352 0.88539 0.7823 0.0
C2791 C 0.73264 0.904 0.78104 0.0
C2792 C 0.73525 0.86992 0.78259 0.0
C2793 C 0.69262 0.86192 0.78235 0.0
C2794 C 0.73481 0.8579 0.79741 0.0
C2795 C 0.74445 0.84227 0.7966 0.0
C2796 C 0.75492 0.83853 0.78106 0.0
C2797 C 0.75637 0.85134 0.76691 0.0
C2798 C 0.7466 0.86686 0.76766 0.0
H2799 H 0.67737 0.86109 0.77722 0.0
H2800 H 0.69895 0.85164 0.77328 0.0
H2801 H 0.69325 0.85758 0.79707 0.0
H2802 H 0.72661 0.86032 0.80936 0.0
H2803 H 0.74316 0.83277 0.80781 0.0
H2804 H 0.71725 0.92327 0.50014 0.0
H2805 H 0.6864 0.93366 0.50095 0.0
H2806 H 0.67232 0.89712 0.54528 0.0
H2807 H 0.70365 0.88669 0.54479 0.0
H2808 H 0.64937 0.91361 0.49539 0.0
H2809 H 0.66544 0.9501 0.56823 0.0
H2810 H 0.68366 0.94217 0.5547 0.0
H2811 H 0.66771 0.92537 0.56587 0.0
C2812 C 0.70764 0.91732 0.51007 0.0
C2813 C 0.71306 0.90427 0.52258 0.0
C2814 C 0.68994 0.92326 0.51044 0.0
C2815 C 0.67719 0.91641 0.52335 0.0
C2816 C 0.68213 0.90282 0.53541 0.0
H2817 H 0.56872 0.94977 0.54711 0.0
H2818 H 0.59737 0.9351 0.54649 0.0
C2819 C 0.69994 0.89676 0.53502 0.0
C2820 C 0.65906 0.92411 0.52429 0.0
H2821 H 0.63554 0.95185 0.55248 0.0
C2822 C 0.64627 0.92189 0.5079 0.0
C2823 C 0.65515 0.93502 0.54058 0.0
C2824 C 0.66873 0.9385 0.55833 0.0
C2825 C 0.62967 0.93027 0.50736 0.0
C2826 C 0.62593 0.94143 0.52355 0.0
C2827 C 0.63853 0.94339 0.54005 0.0
C2828 C 0.60873 0.95079 0.52385 0.0
C2829 C 0.61616 0.92692 0.48956 0.0
C2830 C 0.60574 0.96478 0.51151 0.0
C2831 C 0.58927 0.97329 0.51181 0.0
C2832 C 0.57558 0.96792 0.52449 0.0
C2833 C 0.57888 0.95418 0.53706 0.0
C2834 C 0.59529 0.94577 0.53677 0.0
H2835 H 0.6187 0.91453 0.48025 0.0
H2836 H 0.60112 0.92453 0.49311 0.0
H2837 H 0.61826 0.93963 0.48142 0.0
H2838 H 0.61614 0.96913 0.50166 0.0
H2839 H 0.58717 0.98386 0.50201 0.0
H2840 H 0.34076 0.45599 0.73618 0.0
H2841 H 0.32465 0.42327 0.73597 0.0
H2842 H 0.37586 0.408 0.76303 0.0
H2843 H 0.39087 0.44128 0.76551 0.0
H2844 H 0.32699 0.39182 0.72162 0.0
H2845 H 0.34284 0.38554 0.79834 0.0
H2846 H 0.35184 0.40672 0.78784 0.0
H2847 H 0.36422 0.38669 0.78644 0.0
C2848 C 0.34818 0.44574 0.74283 0.0
C2849 C 0.36639 0.45138 0.75226 0.0
C2850 C 0.33917 0.4269 0.74234 0.0
C2851 C 0.34858 0.41309 0.75045 0.0
C2852 C 0.3677 0.41843 0.75784 0.0
H2853 H 0.31543 0.29372 0.76363 0.0
H2854 H 0.33217 0.32501 0.75893 0.0
C2855 C 0.37639 0.43744 0.75906 0.0
C2856 C 0.33835 0.39325 0.75091 0.0
H2857 H 0.32869 0.35722 0.77963 0.0
C2858 C 0.32728 0.38441 0.73442 0.0
C2859 C 0.3388 0.38316 0.76747 0.0
C2860 C 0.34994 0.39112 0.78601 0.0
C2861 C 0.31679 0.36605 0.73402 0.0
C2862 C 0.31718 0.35623 0.75059 0.0
C2863 C 0.32832 0.36485 0.76696 0.0
C2864 C 0.30667 0.33676 0.75138 0.0
C2865 C 0.30572 0.35715 0.71575 0.0
C2866 C 0.28667 0.33282 0.74853 0.0
C2867 C 0.27695 0.31474 0.75109 0.0
C2868 C 0.28709 0.3004 0.75679 0.0
C2869 C 0.30711 0.30439 0.75931 0.0
C2870 C 0.31676 0.32231 0.7566 0.0
H2871 H 0.31065 0.36442 0.70327 0.0
H2872 H 0.30699 0.34189 0.71347 0.0
H2873 H 0.29043 0.35824 0.71653 0.0
H2874 H 0.27855 0.34387 0.74489 0.0
H2875 H 0.26153 0.31215 0.74913 0.0
H2876 H 0.17197 0.54953 0.25533 0.0
H2877 H 0.18214 0.58308 0.25146 0.0
H2878 H 0.12748 0.59516 0.26698 0.0
H2879 H 0.1184 0.56192 0.27315 0.0
H2880 H 0.17185 0.60601 0.22957 0.0
H2881 H 0.15836 0.6345 0.3013 0.0
H2882 H 0.15356 0.60951 0.29437 0.0
H2883 H 0.13656 0.62445 0.28757 0.0
C2884 C 0.16256 0.55957 0.25877 0.0
C2885 C 0.14505 0.5535 0.26589 0.0
C2886 C 0.16814 0.57868 0.25612 0.0
C2887 C 0.15589 0.59197 0.25963 0.0
C2888 C 0.13764 0.5855 0.26514 0.0
H2889 H 0.17735 0.71509 0.25854 0.0
H2890 H 0.16125 0.68224 0.25364 0.0
C2891 C 0.13238 0.56649 0.26851 0.0
C2892 C 0.16231 0.6124 0.25719 0.0
H2893 H 0.16775 0.65707 0.27956 0.0
C2894 C 0.17097 0.61712 0.24058 0.0
C2895 C 0.16088 0.62713 0.27132 0.0
C2896 C 0.15199 0.6236 0.28967 0.0
C2897 C 0.17866 0.63592 0.23797 0.0
C2898 C 0.17774 0.6504 0.25235 0.0
C2899 C 0.16847 0.64588 0.26857 0.0
C2900 C 0.18718 0.67021 0.25161 0.0
C2901 C 0.18767 0.64011 0.21984 0.0
C2902 C 0.20707 0.67437 0.25158 0.0
C2903 C 0.21633 0.69316 0.25433 0.0
C2904 C 0.20584 0.70807 0.25738 0.0
C2905 C 0.18585 0.70391 0.25633 0.0
C2906 C 0.17661 0.68515 0.25352 0.0
H2907 H 0.18225 0.62894 0.20816 0.0
H2908 H 0.18498 0.65404 0.21523 0.0
H2909 H 0.20331 0.6406 0.22229 0.0
H2910 H 0.21554 0.66305 0.25051 0.0
H2911 H 0.23176 0.69588 0.25515 0.0
H2912 H 0.50198 0.68147 0.37671 0.0
H2913 H 0.50611 0.65289 0.39254 0.0
H2914 H 0.52227 0.68687 0.44575 0.0
H2915 H 0.51862 0.71551 0.42998 0.0
H2916 H 0.5442 0.6585 0.44062 0.0
H2917 H 0.46716 0.62976 0.42675 0.0
H2918 H 0.47871 0.63475 0.40562 0.0
H2919 H 0.47677 0.65386 0.42298 0.0
C2920 C 0.5066 0.68287 0.39173 0.0
C2921 C 0.50978 0.70073 0.40212 0.0
C2922 C 0.50885 0.66652 0.40079 0.0
C2923 C 0.5141 0.66772 0.42041 0.0
C2924 C 0.51811 0.68561 0.43062 0.0
H2925 H 0.51672 0.58402 0.50393 0.0
H2926 H 0.52094 0.61372 0.4883 0.0
C2927 C 0.51597 0.70196 0.42157 0.0
C2928 C 0.51461 0.6503 0.43048 0.0
H2929 H 0.48689 0.60948 0.44016 0.0
C2930 C 0.53167 0.64779 0.44057 0.0
C2931 C 0.49818 0.63646 0.43059 0.0
C2932 C 0.47912 0.63888 0.42108 0.0
C2933 C 0.53284 0.63153 0.45036 0.0
C2934 C 0.5165 0.61758 0.45011 0.0
C2935 C 0.49943 0.62018 0.44019 0.0
C2936 C 0.51665 0.59991 0.45975 0.0
C2937 C 0.55156 0.62917 0.46057 0.0
C2938 C 0.5131 0.58239 0.44887 0.0
C2939 C 0.51066 0.56551 0.4577 0.0
C2940 C 0.51157 0.56578 0.47763 0.0
C2941 C 0.51598 0.58335 0.48856 0.0
C2942 C 0.51844 0.60031 0.47966 0.0
H2943 H 0.56359 0.63949 0.45661 0.0
H2944 H 0.55069 0.63141 0.47613 0.0
H2945 H 0.55463 0.61457 0.45739 0.0
H2946 H 0.51165 0.58179 0.43349 0.0
H2947 H 0.50743 0.55224 0.44884 0.0
H2948 H 0.58856 0.27642 0.63919 0.0
H2949 H 0.61964 0.28188 0.65764 0.0
H2950 H 0.59425 0.30415 0.70608 0.0
H2951 H 0.56309 0.29848 0.68786 0.0
H2952 H 0.64281 0.31389 0.67911 0.0
H2953 H 0.6152 0.25738 0.72446 0.0
H2954 H 0.60268 0.26109 0.7023 0.0
H2955 H 0.60193 0.27674 0.72315 0.0
C2956 C 0.58966 0.28283 0.65364 0.0
C2957 C 0.57334 0.28677 0.66215 0.0
C2958 C 0.60742 0.28594 0.66416 0.0
C2959 C 0.60912 0.29304 0.68332 0.0
C2960 C 0.59313 0.29831 0.69142 0.0
H2961 H 0.70454 0.28826 0.7679 0.0
H2962 H 0.67513 0.29665 0.7529 0.0
C2963 C 0.57537 0.29513 0.68095 0.0
C2964 C 0.62721 0.29334 0.69518 0.0
H2965 H 0.64712 0.2716 0.73121 0.0
C2966 C 0.64375 0.30479 0.69062 0.0
C2967 C 0.62836 0.28145 0.7102 0.0
C2968 C 0.61117 0.26834 0.71529 0.0
C2969 C 0.66151 0.30444 0.70052 0.0
C2970 C 0.66275 0.29207 0.71511 0.0
C2971 C 0.6461 0.28112 0.72008 0.0
C2972 C 0.68128 0.28885 0.72418 0.0
C2973 C 0.6788 0.31721 0.6952 0.0
C2974 C 0.6944 0.28162 0.71301 0.0
C2975 C 0.71109 0.27679 0.72149 0.0
C2976 C 0.71499 0.27895 0.74137 0.0
C2977 C 0.70198 0.28648 0.75256 0.0
C2978 C 0.68519 0.29129 0.74402 0.0
H2979 H 0.67477 0.32983 0.68863 0.0
H2980 H 0.68911 0.32209 0.70777 0.0
H2981 H 0.68601 0.30927 0.68463 0.0
H2982 H 0.69146 0.27916 0.69773 0.0
H2983 H 0.72079 0.27104 0.71243 0.0
H2984 H 0.00158 0.29498 0.92873 0.0
H2985 H 0.99982 0.32308 0.94994 0.0
H2986 H 0.99455 0.35576 0.9016 0.0
H2987 H 0.99598 0.32779 0.88024 0.0
H2988 H 0.02344 0.35753 0.95434 0.0
H2989 H 0.94997 0.36719 0.9308 0.0
H2990 H 0.95921 0.34555 0.92493 0.0
H2991 H 0.96462 0.36571 0.9114 0.0
C2992 C 1.00002 0.30813 0.92256 0.0
C2993 C 0.99885 0.30906 0.90273 0.0
C2994 C 0.99897 0.32416 0.93474 0.0
C2995 C 0.99663 0.34138 0.92733 0.0
C2996 C 0.99584 0.34247 0.90759 0.0
H2997 H 0.00715 0.45799 0.95873 0.0
H2998 H 1.00005 0.42537 0.94444 0.0
C2999 C 0.99685 0.32648 0.89541 0.0
C3000 C 0.99584 0.35848 0.94018 0.0
H3001 H 0.96976 0.39409 0.94824 0.0
C3002 C 0.01157 0.36536 0.95329 0.0
C3003 C 0.98026 0.36857 0.93884 0.0
C3004 C 0.96247 0.36128 0.92587 0.0
C3005 C 0.01263 0.38268 0.96428 0.0
C3006 C 0.99745 0.39322 0.96224 0.0
C3007 C 0.98137 0.38595 0.94975 0.0
C3008 C 0.99907 0.41277 0.97125 0.0
C3009 C 0.03043 0.3901 0.97721 0.0
C3010 C 1.00016 0.41649 0.99108 0.0
C3011 C 0.00417 0.43521 0.99934 0.0
C3012 C 0.00723 0.45039 0.98783 0.0
C3013 C 0.00503 0.44659 0.96797 0.0
C3014 C 0.00093 0.42796 0.95977 0.0
H3015 H 0.04193 0.38146 0.97513 0.0
H3016 H 0.03586 0.40502 0.97474 0.0
H3017 H 0.02702 0.38985 0.99223 0.0
H3018 H 0.99854 0.40491 1.00015 0.0
H3019 H 0.00579 0.43772 0.01468 0.0
H3020 H 0.98183 0.75484 0.18608 0.0
H3021 H 0.95725 0.75013 0.2082 0.0
H3022 H 0.91372 0.74474 0.16152 0.0
H3023 H 0.9382 0.7489 0.13919 0.0
H3024 H 0.93149 0.77177 0.21578 0.0
H3025 H 0.89406 0.70018 0.18979 0.0
H3026 H 0.91703 0.7097 0.1824 0.0
H3027 H 0.89551 0.71555 0.1709 0.0
C3028 C 0.96703 0.75251 0.18046 0.0
C3029 C 0.96199 0.75228 0.16082 0.0
C3030 C 0.95299 0.74976 0.19315 0.0
C3031 C 0.93365 0.74673 0.18651 0.0
C3032 C 0.92856 0.74649 0.16693 0.0
H3033 H 0.83744 0.77799 0.23161 0.0
H3034 H 0.86808 0.77509 0.21981 0.0
C3035 C 0.94259 0.74907 0.15419 0.0
C3036 C 0.91878 0.74533 0.20013 0.0
H3037 H 0.87606 0.71992 0.20823 0.0
C3038 C 0.91956 0.76023 0.21435 0.0
C3039 C 0.90344 0.73007 0.19861 0.0
C3040 C 0.90256 0.71288 0.18473 0.0
C3041 C 0.90475 0.76095 0.22618 0.0
C3042 C 0.88856 0.74663 0.22343 0.0
C3043 C 0.88839 0.73103 0.21016 0.0
C3044 C 0.87078 0.74881 0.2323 0.0
C3045 C 0.90636 0.77734 0.24119 0.0
C3046 C 0.86196 0.73485 0.24311 0.0
C3047 C 0.84422 0.73642 0.24986 0.0
C3048 C 0.83502 0.75183 0.24561 0.0
C3049 C 0.84413 0.76592 0.23512 0.0
C3050 C 0.86176 0.76438 0.22849 0.0
H3051 H 0.9215 0.78282 0.24609 0.0
H3052 H 0.90012 0.7891 0.23507 0.0
H3053 H 0.89864 0.77318 0.25366 0.0
H3054 H 0.86864 0.72262 0.24604 0.0
H3055 H 0.83746 0.7253 0.25781 0.0
H3056 H 0.53664 0.29963 0.12881 0.0
H3057 H 0.54905 0.33077 0.11823 0.0
H3058 H 0.49339 0.33417 0.09151 0.0
H3059 H 0.48106 0.3033 0.1017 0.0
H3060 H 0.52393 0.33974 0.06746 0.0
H3061 H 0.53852 0.38488 0.13614 0.0
H3062 H 0.54789 0.36289 0.13399 0.0
H3063 H 0.52267 0.36246 0.13391 0.0
C3064 C 0.52702 0.30723 0.12099 0.0
C3065 C 0.50792 0.29901 0.11598 0.0
C3066 C 0.53413 0.32496 0.11494 0.0
C3067 C 0.52212 0.33467 0.10403 0.0
C3068 C 0.50291 0.3268 0.09977 0.0
H3069 H 0.50383 0.43929 0.07401 0.0
H3070 H 0.50848 0.4098 0.08726 0.0
C3071 C 0.49588 0.30917 0.10564 0.0
C3072 C 0.52927 0.35269 0.09613 0.0
H3073 H 0.54023 0.40032 0.1081 0.0
C3074 C 0.52794 0.353 0.07629 0.0
C3075 C 0.53449 0.36984 0.10777 0.0
C3076 C 0.53596 0.37019 0.12916 0.0
C3077 C 0.53026 0.37016 0.06774 0.0
C3078 C 0.53438 0.38741 0.07941 0.0
C3079 C 0.5371 0.38703 0.09923 0.0
C3080 C 0.53271 0.40578 0.07164 0.0
C3081 C 0.52681 0.36973 0.04641 0.0
C3082 C 0.54483 0.41332 0.05839 0.0
C3083 C 0.54208 0.43024 0.05057 0.0
C3084 C 0.52726 0.43984 0.05603 0.0
C3085 C 0.51537 0.43228 0.06946 0.0
C3086 C 0.51807 0.41545 0.07716 0.0
H3087 H 0.52124 0.35523 0.03971 0.0
H3088 H 0.51651 0.37928 0.04251 0.0
H3089 H 0.5404 0.37482 0.04038 0.0
H3090 H 0.55634 0.40614 0.0541 0.0
H3091 H 0.55156 0.43582 0.04037 0.0
H3092 H 0.97813 0.26183 0.35274 0.0
H3093 H 0.94647 0.26125 0.33642 0.0
H3094 H 0.93118 0.2954 0.38385 0.0
H3095 H 0.96321 0.29661 0.39988 0.0
H3096 H 0.91282 0.24607 0.35267 0.0
H3097 H 0.9103 0.32155 0.33929 0.0
H3098 H 0.93078 0.31079 0.3342 0.0
H3099 H 0.92608 0.31595 0.3584 0.0
C3100 C 0.96821 0.26977 0.35934 0.0
C3101 C 0.97325 0.27986 0.37719 0.0
C3102 C 0.95011 0.26931 0.3501 0.0
C3103 C 0.93662 0.27867 0.35871 0.0
C3104 C 0.94157 0.2886 0.37668 0.0
H3105 H 0.81424 0.25065 0.33619 0.0
H3106 H 0.84698 0.25817 0.35055 0.0
C3107 C 0.95976 0.28916 0.38588 0.0
C3108 C 0.91677 0.27613 0.34985 0.0
H3109 H 0.88284 0.29946 0.32994 0.0
C3110 C 0.90626 0.25775 0.34773 0.0
C3111 C 0.90829 0.29137 0.34331 0.0
C3112 C 0.91935 0.31109 0.34391 0.0
C3113 C 0.88746 0.25422 0.33935 0.0
C3114 C 0.87887 0.26952 0.33316 0.0
C3115 C 0.88942 0.28785 0.33501 0.0
C3116 C 0.85891 0.26665 0.32474 0.0
C3117 C 0.87703 0.23408 0.33693 0.0
C3118 C 0.8547 0.26972 0.30564 0.0
C3119 C 0.83592 0.26551 0.29735 0.0
C3120 C 0.82111 0.25823 0.30809 0.0
C3121 C 0.82533 0.25605 0.32745 0.0
C3122 C 0.84404 0.26026 0.33569 0.0
H3123 H 0.88697 0.22359 0.33817 0.0
H3124 H 0.86705 0.23201 0.34816 0.0
H3125 H 0.86859 0.2311 0.32291 0.0
H3126 H 0.86602 0.27477 0.29701 0.0
H3127 H 0.83311 0.26737 0.28242 0.0
H3128 H 0.96966 0.71281 0.59272 0.0
H3129 H 0.96326 0.68247 0.57325 0.0
H3130 H 0.9862 0.65489 0.61989 0.0
H3131 H 0.99222 0.68498 0.63951 0.0
H3132 H 0.99055 0.66318 0.56274 0.0
H3133 H 0.94044 0.61636 0.60091 0.0
H3134 H 0.94462 0.64183 0.60592 0.0
H3135 H 0.96056 0.62751 0.61661 0.0
C3136 C 0.97287 0.70018 0.59899 0.0
C3137 C 0.98149 0.70129 0.61765 0.0
C3138 C 0.96922 0.68286 0.58782 0.0
C3139 C 0.97406 0.66634 0.59514 0.0
C3140 C 0.98189 0.66731 0.61405 0.0
H3141 H 0.01002 0.56413 0.56403 0.0
H3142 H 0.00062 0.59322 0.57744 0.0
C3143 C 0.98545 0.68458 0.62524 0.0
C3144 C 0.9732 0.64869 0.58249 0.0
H3145 H 0.96036 0.6006 0.58056 0.0
C3146 C 0.98352 0.64954 0.56635 0.0
C3147 C 0.96399 0.6309 0.58715 0.0
C3148 C 0.95161 0.62912 0.60349 0.0
C3149 C 0.98599 0.63298 0.55555 0.0
C3150 C 0.97785 0.61516 0.56101 0.0
C3151 C 0.96664 0.61433 0.57648 0.0
C3152 C 0.98286 0.59731 0.55245 0.0
C3153 C 0.99827 0.6345 0.53912 0.0
C3154 C 0.97594 0.58997 0.53388 0.0
C3155 C 0.98126 0.57316 0.52609 0.0
C3156 C 0.99364 0.56358 0.53677 0.0
C3157 C 0.00052 0.57112 0.55534 0.0
C3158 C 0.9951 0.58773 0.56311 0.0
H3159 H 0.00466 0.6494 0.53753 0.0
H3160 H 0.00991 0.62593 0.54109 0.0
H3161 H 0.98954 0.62872 0.52574 0.0
H3162 H 0.96641 0.59719 0.52548 0.0
H3163 H 0.9757 0.56769 0.51177 0.0
H3164 H 0.57527 0.75709 0.8952 0.0
H3165 H 0.60604 0.75194 0.88408 0.0
H3166 H 0.59047 0.77238 0.83027 0.0
H3167 H 0.55988 0.77762 0.84109 0.0
H3168 H 0.60735 0.73617 0.82957 0.0
H3169 H 0.64918 0.79761 0.875 0.0
H3170 H 0.63267 0.78111 0.88605 0.0
H3171 H 0.62383 0.79579 0.8691 0.0
C3172 C 0.57837 0.76046 0.88099 0.0
C3173 C 0.56514 0.76793 0.86912 0.0
C3174 C 0.59594 0.75752 0.87469 0.0
C3175 C 0.60048 0.76187 0.85641 0.0
C3176 C 0.5872 0.76895 0.84443 0.0
H3177 H 0.69148 0.76538 0.78326 0.0
H3178 H 0.66065 0.76086 0.79674 0.0
C3179 C 0.56975 0.77202 0.85072 0.0
C3180 C 0.61927 0.75969 0.84977 0.0
H3181 H 0.66581 0.78064 0.85419 0.0
C3182 C 0.62022 0.74574 0.83504 0.0
C3183 C 0.63594 0.77219 0.857 0.0
C3184 C 0.63551 0.78762 0.8726 0.0
C3185 C 0.63747 0.74407 0.82718 0.0
C3186 C 0.65405 0.75704 0.83393 0.0
C3187 C 0.65312 0.77069 0.84901 0.0
C3188 C 0.67237 0.7574 0.82516 0.0
C3189 C 0.63776 0.72837 0.81183 0.0
C3190 C 0.68924 0.75703 0.83661 0.0
C3191 C 0.70685 0.75995 0.82901 0.0
C3192 C 0.70795 0.76322 0.80977 0.0
C3193 C 0.69104 0.76273 0.79809 0.0
C3194 C 0.6734 0.76004 0.80577 0.0
H3195 H 0.62619 0.71628 0.81283 0.0
H3196 H 0.63545 0.73386 0.79773 0.0
H3197 H 0.65162 0.72306 0.81262 0.0
H3198 H 0.68881 0.75502 0.8516 0.0
H3199 H 0.71966 0.7601 0.83833 0.0
H3200 H 0.44326 0.52268 0.72423 0.0
H3201 H 0.46066 0.52757 0.69606 0.0
H3202 H 0.40798 0.51358 0.66029 0.0
H3203 H 0.39039 0.50846 0.68846 0.0
H3204 H 0.45882 0.49808 0.66318 0.0
H3205 H 0.43641 0.56587 0.64387 0.0
H3206 H 0.43574 0.55837 0.66766 0.0
H3207 H 0.41804 0.54732 0.64924 0.0
C3208 C 0.43531 0.52078 0.7104 0.0
C3209 C 0.4154 0.51519 0.70861 0.0
C3210 C 0.44531 0.52355 0.69431 0.0
C3211 C 0.43561 0.52106 0.67611 0.0
C3212 C 0.41572 0.51576 0.67424 0.0
H3213 H 0.46746 0.52868 0.56144 0.0
H3214 H 0.45183 0.5283 0.59084 0.0
C3215 C 0.40569 0.5128 0.69034 0.0
C3216 C 0.44645 0.52324 0.65908 0.0
H3217 H 0.45497 0.5513 0.6227 0.0
C3218 C 0.45808 0.50975 0.65435 0.0
C3219 C 0.44536 0.53842 0.64759 0.0
C3220 C 0.43333 0.55345 0.65231 0.0
C3221 C 0.46831 0.51076 0.63813 0.0
C3222 C 0.46739 0.52607 0.62665 0.0
C3223 C 0.45582 0.53964 0.63153 0.0
C3224 C 0.47749 0.5277 0.60901 0.0
C3225 C 0.47943 0.49501 0.6331 0.0
C3226 C 0.49732 0.52813 0.60938 0.0
C3227 C 0.50636 0.52815 0.59245 0.0
C3228 C 0.49577 0.52799 0.57482 0.0
C3229 C 0.4761 0.52862 0.57467 0.0
C3230 C 0.46709 0.52844 0.59153 0.0
H3231 H 0.4745 0.48202 0.64017 0.0
H3232 H 0.47817 0.49128 0.61751 0.0
H3233 H 0.4947 0.49973 0.6379 0.0
H3234 H 0.50578 0.52813 0.62273 0.0
H3235 H 0.52153 0.52779 0.59316 0.0
H3236 H 0.76762 0.18565 0.98287 0.0
H3237 H 0.76392 0.20498 0.95623 0.0
H3238 H 0.73852 0.15494 0.92025 0.0
H3239 H 0.74183 0.13549 0.94682 0.0
H3240 H 0.77933 0.20274 0.9223 0.0
H3241 H 0.70066 0.19111 0.91038 0.0
H3242 H 0.71308 0.18528 0.9318 0.0
H3243 H 0.71003 0.16923 0.91061 0.0
C3244 C 0.76119 0.17871 0.96932 0.0
C3245 C 0.755 0.15897 0.96703 0.0
C3246 C 0.75904 0.18982 0.95413 0.0
C3247 C 0.75058 0.18146 0.93639 0.0
C3248 C 0.74461 0.16176 0.93397 0.0
H3249 H 0.76354 0.20603 0.82445 0.0
H3250 H 0.76334 0.1962 0.85653 0.0
C3251 C 0.74672 0.15063 0.94914 0.0
C3252 C 0.74904 0.19308 0.92006 0.0
H3253 H 0.71785 0.20249 0.88432 0.0
C3254 C 0.76584 0.20296 0.9142 0.0
C3255 C 0.7314 0.19367 0.9097 0.0
C3256 C 0.71275 0.18442 0.91606 0.0
C3257 C 0.76562 0.21237 0.89754 0.0
C3258 C 0.74818 0.21164 0.88638 0.0
C3259 C 0.73121 0.20285 0.89285 0.0
C3260 C 0.74773 0.2179 0.86696 0.0
C3261 C 0.78413 0.2225 0.89167 0.0
C3262 C 0.73852 0.2331 0.86207 0.0
C3263 C 0.73858 0.23884 0.84356 0.0
C3264 C 0.74767 0.22926 0.82974 0.0
C3265 C 0.75645 0.21379 0.83472 0.0
C3266 C 0.75646 0.20817 0.8531 0.0
H3267 H 0.7949 0.22654 0.90404 0.0
H3268 H 0.78998 0.21292 0.8814 0.0
H3269 H 0.78192 0.23548 0.88466 0.0
H3270 H 0.73156 0.24065 0.87262 0.0
H3271 H 0.73166 0.25078 0.84013 0.0
H3272 H 0.12956 0.49265 0.20263 0.0
H3273 H 0.10985 0.48735 0.17231 0.0
H3274 H 0.06314 0.45872 0.19984 0.0
H3275 H 0.08266 0.46399 0.23022 0.0
H3276 H 0.0868 0.45323 0.15075 0.0
H3277 H 0.04423 0.50658 0.17899 0.0
H3278 H 0.06729 0.5042 0.19009 0.0
H3279 H 0.04687 0.48693 0.19287 0.0
C3280 C 0.11525 0.48483 0.20216 0.0
C3281 C 0.10759 0.47894 0.21886 0.0
C3282 C 0.10401 0.48183 0.18483 0.0
C3283 C 0.08497 0.47294 0.18396 0.0
C3284 C 0.07773 0.46583 0.20031 0.0
H3285 H 0.00029 0.4824 0.08909 0.0
H3286 H 0.0138 0.47234 0.11897 0.0
C3287 C 0.08895 0.46881 0.21763 0.0
C3288 C 0.07232 0.47277 0.1664 0.0
H3289 H 0.03707 0.49479 0.14713 0.0
C3290 C 0.07575 0.46211 0.14997 0.0
C3291 C 0.05783 0.48427 0.16552 0.0
C3292 C 0.05381 0.49627 0.18273 0.0
C3293 C 0.06543 0.4631 0.13249 0.0
C3294 C 0.05167 0.47542 0.13139 0.0
C3295 C 0.0476 0.48534 0.14802 0.0
C3296 C 0.04316 0.48007 0.11293 0.0
C3297 C 0.06958 0.45116 0.11531 0.0
C3298 C 0.05517 0.48799 0.09985 0.0
C3299 C 0.04757 0.49375 0.08297 0.0
C3300 C 0.02772 0.49191 0.07878 0.0
C3301 C 0.01562 0.48397 0.09189 0.0
C3302 C 0.02331 0.47819 0.10891 0.0
H3303 H 0.07479 0.43805 0.11948 0.0
H3304 H 0.05675 0.44711 0.1051 0.0
H3305 H 0.08094 0.45938 0.10802 0.0
H3306 H 0.07051 0.49013 0.10288 0.0
H3307 H 0.05737 0.49984 0.07327 0.0
H3308 H 0.75903 0.83733 0.48514 0.0
H3309 H 0.75984 0.81845 0.455 0.0
H3310 H 0.768 0.86964 0.42611 0.0
H3311 H 0.76745 0.8886 0.45599 0.0
H3312 H 0.73686 0.81619 0.42083 0.0
H3313 H 0.81201 0.84321 0.41038 0.0
H3314 H 0.80213 0.84654 0.4329 0.0
H3315 H 0.79826 0.86191 0.41447 0.0
C3316 C 0.76096 0.84459 0.47238 0.0
C3317 C 0.76329 0.86454 0.47308 0.0
C3318 C 0.76145 0.83376 0.45517 0.0
C3319 C 0.7644 0.84267 0.4384 0.0
C3320 C 0.7662 0.86249 0.43897 0.0
H3321 H 0.76028 0.82163 0.31941 0.0
H3322 H 0.76429 0.83316 0.35296 0.0
C3323 C 0.76573 0.87331 0.45609 0.0
C3324 C 0.76524 0.83138 0.42013 0.0
H3325 H 0.79256 0.82769 0.38284 0.0
C3326 C 0.74915 0.81842 0.41265 0.0
C3327 C 0.78136 0.83423 0.40954 0.0
C3328 C 0.79949 0.84709 0.41731 0.0
C3329 C 0.74832 0.80909 0.39436 0.0
C3330 C 0.76409 0.81268 0.38343 0.0
C3331 C 0.78048 0.82501 0.39124 0.0
C3332 C 0.76312 0.80531 0.36321 0.0
C3333 C 0.73024 0.79623 0.38646 0.0
C3334 C 0.76164 0.78582 0.35783 0.0
C3335 C 0.75943 0.77914 0.33856 0.0
C3336 C 0.75856 0.79188 0.32442 0.0
C3337 C 0.76076 0.81142 0.32992 0.0
C3338 C 0.76308 0.81806 0.3491 0.0
H3339 H 0.71842 0.79707 0.39569 0.0
H3340 H 0.72566 0.79991 0.37205 0.0
H3341 H 0.73292 0.78133 0.38516 0.0
H3342 H 0.7619 0.77578 0.36854 0.0
H3343 H 0.75778 0.76401 0.33476 0.0
H3344 H 0.43021 0.50768 0.8028 0.0
H3345 H 0.44923 0.50665 0.83289 0.0
H3346 H 0.3978 0.49596 0.86137 0.0
H3347 H 0.37869 0.49672 0.83151 0.0
H3348 H 0.4508 0.52849 0.86753 0.0
H3349 H 0.42582 0.45272 0.87606 0.0
H3350 H 0.42212 0.46308 0.85386 0.0
H3351 H 0.4066 0.46598 0.8724 0.0
C3352 C 0.42292 0.50514 0.81546 0.0
C3353 C 0.40286 0.50217 0.81463 0.0
C3354 C 0.43384 0.50453 0.83265 0.0
C3355 C 0.42493 0.50081 0.84929 0.0
C3356 C 0.40498 0.49837 0.84861 0.0
H3357 H 0.44795 0.50127 0.9682 0.0
H3358 H 0.43575 0.49752 0.93481 0.0
C3359 C 0.39406 0.49897 0.8315 0.0
C3360 C 0.43636 0.49981 0.86751 0.0
H3361 H 0.44141 0.47157 0.90382 0.0
C3362 C 0.44901 0.51596 0.87535 0.0
C3363 C 0.43408 0.48339 0.87763 0.0
C3364 C 0.42156 0.46525 0.86948 0.0
C3365 C 0.45863 0.51648 0.89351 0.0
C3366 C 0.4557 0.50032 0.90395 0.0
C3367 C 0.44362 0.48394 0.8958 0.0
C3368 C 0.46355 0.50079 0.92403 0.0
C3369 C 0.47109 0.53461 0.90178 0.0
C3370 C 0.48328 0.50324 0.92908 0.0
C3371 C 0.49035 0.50531 0.94827 0.0
C3372 C 0.47777 0.50502 0.96266 0.0
C3373 C 0.45803 0.50167 0.95748 0.0
C3374 C 0.45101 0.49951 0.93838 0.0
H3375 H 0.46939 0.54671 0.89317 0.0
H3376 H 0.46773 0.53835 0.91651 0.0
H3377 H 0.48624 0.53259 0.90236 0.0
H3378 H 0.49319 0.50398 0.91819 0.0
H3379 H 0.50562 0.50792 0.95181 0.0
H3380 H 0.78029 0.14917 0.08966 0.0
H3381 H 0.78648 0.16874 0.1199 0.0
H3382 H 0.80961 0.21679 0.0909 0.0
H3383 H 0.80321 0.19739 0.06051 0.0
H3384 H 0.81918 0.19193 0.13991 0.0
H3385 H 0.76361 0.23389 0.1153 0.0
H3386 H 0.76656 0.21173 0.10291 0.0
H3387 H 0.7831 0.23288 0.10076 0.0
C3388 C 0.78704 0.16379 0.08974 0.0
C3389 C 0.79102 0.1718 0.07267 0.0
C3390 C 0.79057 0.17496 0.10703 0.0
C3391 C 0.79813 0.19429 0.10755 0.0
C3392 C 0.80342 0.20199 0.09073 0.0
H3393 H 0.79016 0.27371 0.20717 0.0
H3394 H 0.8 0.26232 0.1764 0.0
C3395 C 0.79985 0.19084 0.0734 0.0
C3396 C 0.79884 0.20653 0.12545 0.0
H3397 H 0.77643 0.2402 0.14693 0.0
C3398 C 0.81007 0.2027 0.1414 0.0
C3399 C 0.78699 0.22065 0.12732 0.0
C3400 C 0.77426 0.22503 0.11074 0.0
C3401 C 0.80919 0.21208 0.15934 0.0
C3402 C 0.79652 0.22537 0.16139 0.0
C3403 C 0.78614 0.23001 0.14527 0.0
C3404 C 0.79186 0.23258 0.18032 0.0
C3405 C 0.82148 0.2073 0.17604 0.0
C3406 C 0.78373 0.21965 0.19247 0.0
C3407 C 0.77801 0.22604 0.20982 0.0
C3408 C 0.78021 0.24558 0.21547 0.0
C3409 C 0.78833 0.25859 0.20327 0.0
C3410 C 0.794 0.25212 0.18574 0.0
H3411 H 0.83456 0.20231 0.1714 0.0
H3412 H 0.82569 0.21974 0.18664 0.0
H3413 H 0.81336 0.19569 0.18306 0.0
H3414 H 0.78143 0.20454 0.18835 0.0
H3415 H 0.77169 0.21557 0.21873 0.0
H3416 H 0.08987 0.49456 0.30706 0.0
H3417 H 0.06798 0.49561 0.33181 0.0
H3418 H 0.11399 0.524 0.37162 0.0
H3419 H 0.13619 0.52308 0.34692 0.0
H3420 H 0.08936 0.49223 0.38503 0.0
H3421 H 0.04939 0.54494 0.35339 0.0
H3422 H 0.05219 0.52494 0.33753 0.0
H3423 H 0.07278 0.54159 0.34696 0.0
C3424 C 0.09545 0.501 0.32107 0.0
C3425 C 0.11484 0.50881 0.32495 0.0
C3426 C 0.08285 0.50166 0.33516 0.0
C3427 C 0.08935 0.51014 0.3534 0.0
C3428 C 0.10873 0.51752 0.35754 0.0
H3429 H 0.02779 0.54159 0.44811 0.0
H3430 H 0.04682 0.54147 0.42079 0.0
C3431 C 0.12138 0.51694 0.34342 0.0
C3432 C 0.07588 0.51109 0.36818 0.0
H3433 H 0.03689 0.53046 0.37982 0.0
C3434 C 0.0779 0.50059 0.38394 0.0
C3435 C 0.06106 0.52215 0.36669 0.0
C3436 C 0.05873 0.53419 0.35033 0.0
C3437 C 0.06527 0.50063 0.39819 0.0
C3438 C 0.05019 0.51134 0.3965 0.0
C3439 C 0.04835 0.5221 0.3809 0.0
C3440 C 0.03668 0.51202 0.41126 0.0
C3441 C 0.06829 0.48944 0.41511 0.0
C3442 C 0.0241 0.49571 0.41438 0.0
C3443 C 0.01313 0.49573 0.42992 0.0
C3444 C 0.01464 0.51207 0.4426 0.0
C3445 C 0.02635 0.52874 0.43867 0.0
C3446 C 0.03725 0.52872 0.42309 0.0
H3447 H 0.08258 0.48497 0.41605 0.0
H3448 H 0.06672 0.49791 0.42851 0.0
H3449 H 0.05736 0.4765 0.41386 0.0
H3450 H 0.02331 0.48277 0.40521 0.0
H3451 H 0.00421 0.48267 0.43249 0.0
H3452 H 0.74415 0.8246 0.56417 0.0
H3453 H 0.74029 0.80744 0.59261 0.0
H3454 H 0.756 0.86003 0.62788 0.0
H3455 H 0.75995 0.87735 0.59946 0.0
H3456 H 0.76945 0.80721 0.62309 0.0
H3457 H 0.70583 0.83438 0.64807 0.0
H3458 H 0.71236 0.83583 0.624 0.0
H3459 H 0.7249 0.85221 0.64282 0.0
C3460 C 0.74662 0.83258 0.57796 0.0
C3461 C 0.75232 0.85238 0.57953 0.0
C3462 C 0.74443 0.82272 0.59421 0.0
C3463 C 0.74768 0.83246 0.61236 0.0
C3464 C 0.75315 0.85225 0.614 0.0
H3465 H 0.75032 0.80571 0.72851 0.0
H3466 H 0.74898 0.81965 0.69824 0.0
C3467 C 0.75546 0.86213 0.59774 0.0
C3468 C 0.74616 0.82179 0.62957 0.0
H3469 H 0.72182 0.81646 0.66907 0.0
C3470 C 0.75895 0.80909 0.63309 0.0
C3471 C 0.73245 0.82429 0.64257 0.0
C3472 C 0.71797 0.83729 0.63918 0.0
C3473 C 0.75886 0.7993 0.64961 0.0
C3474 C 0.74524 0.80191 0.66274 0.0
C3475 C 0.73222 0.81438 0.659 0.0
C3476 C 0.74507 0.79287 0.68104 0.0
C3477 C 0.77387 0.78689 0.6532 0.0
C3478 C 0.74289 0.77305 0.68158 0.0
C3479 C 0.7438 0.76494 0.69902 0.0
C3480 C 0.74676 0.77651 0.71625 0.0
C3481 C 0.7482 0.7963 0.71559 0.0
C3482 C 0.74738 0.80435 0.69823 0.0
H3483 H 0.78595 0.79009 0.6443 0.0
H3484 H 0.77956 0.78868 0.66837 0.0
H3485 H 0.76744 0.77181 0.64968 0.0
H3486 H 0.74063 0.76384 0.66851 0.0
H3487 H 0.74255 0.74966 0.69898 0.0
H3488 H 0.70364 0.39012 0.53863 0.0
H3489 H 0.67641 0.40303 0.55072 0.0
H3490 H 0.66851 0.42995 0.49883 0.0
H3491 H 0.69563 0.41744 0.48682 0.0
H3492 H 0.67083 0.45457 0.53192 0.0
H3493 H 0.61871 0.38871 0.5351 0.0
H3494 H 0.64217 0.38969 0.54684 0.0
H3495 H 0.63913 0.38914 0.52143 0.0
C3496 C 0.69585 0.39848 0.52967 0.0
C3497 C 0.70184 0.4028 0.51179 0.0
C3498 C 0.68032 0.40586 0.53661 0.0
C3499 C 0.67048 0.41747 0.52567 0.0
C3500 C 0.676 0.42114 0.50755 0.0
H3501 H 0.56612 0.45369 0.51146 0.0
H3502 H 0.59409 0.4382 0.51425 0.0
C3503 C 0.69149 0.41391 0.50069 0.0
C3504 C 0.65492 0.42667 0.53305 0.0
H3505 H 0.60824 0.41777 0.54218 0.0
C3506 C 0.65721 0.44657 0.53449 0.0
C3507 C 0.63726 0.41614 0.53645 0.0
C3508 C 0.63399 0.39473 0.53481 0.0
C3509 C 0.64194 0.45623 0.53802 0.0
C3510 C 0.624 0.44567 0.54055 0.0
C3511 C 0.62205 0.42581 0.54031 0.0
C3512 C 0.60653 0.45459 0.54028 0.0
C3513 C 0.6448 0.47754 0.53765 0.0
C3514 C 0.60408 0.46891 0.55414 0.0
C3515 C 0.58802 0.47804 0.55248 0.0
C3516 C 0.57417 0.47285 0.53701 0.0
C3517 C 0.57651 0.45814 0.52353 0.0
C3518 C 0.59248 0.44915 0.52514 0.0
H3519 H 0.65878 0.48319 0.53264 0.0
H3520 H 0.63334 0.48189 0.52825 0.0
H3521 H 0.64418 0.48418 0.5522 0.0
H3522 H 0.61465 0.47313 0.56609 0.0
H3523 H 0.58652 0.4892 0.56318 0.0
H3524 H 0.22135 0.08637 0.50213 0.0
H3525 H 0.18959 0.06794 0.50208 0.0
H3526 H 0.16547 0.11115 0.4735 0.0
H3527 H 0.19762 0.12921 0.47272 0.0
H3528 H 0.16124 0.07882 0.52004 0.0
H3529 H 0.13755 0.0637 0.44334 0.0
H3530 H 0.16179 0.07342 0.45184 0.0
H3531 H 0.14394 0.0886 0.45052 0.0
C3532 C 0.20933 0.09158 0.49522 0.0
C3533 C 0.21193 0.10879 0.48676 0.0
C3534 C 0.19116 0.08116 0.4954 0.0
C3535 C 0.17512 0.08797 0.48751 0.0
C3536 C 0.17766 0.10532 0.47918 0.0
H3537 H 0.05906 0.05802 0.5148 0.0
H3538 H 0.09074 0.07375 0.50921 0.0
C3539 C 0.19596 0.11569 0.47886 0.0
C3540 C 0.15577 0.0776 0.48959 0.0
H3541 H 0.11382 0.05657 0.46504 0.0
C3542 C 0.15095 0.07387 0.50797 0.0
C3543 C 0.14228 0.07114 0.47387 0.0
C3544 C 0.14667 0.07426 0.45375 0.0
C3545 C 0.13303 0.06403 0.51106 0.0
C3546 C 0.11953 0.05783 0.49539 0.0
C3547 C 0.12429 0.06136 0.477 0.0
C3548 C 0.10018 0.04817 0.49805 0.0
C3549 C 0.12859 0.06027 0.53106 0.0
C3550 C 0.09499 0.02858 0.49342 0.0
C3551 C 0.07687 0.01943 0.49672 0.0
C3552 C 0.06364 0.02981 0.50457 0.0
C3553 C 0.06889 0.04953 0.50884 0.0
C3554 C 0.08698 0.05859 0.50565 0.0
H3555 H 0.14154 0.06327 0.54124 0.0
H3556 H 0.11829 0.06945 0.53575 0.0
H3557 H 0.12189 0.04528 0.53158 0.0
H3558 H 0.10506 0.02034 0.48753 0.0
H3559 H 0.07327 0.00426 0.4932 0.0
H3560 H 0.14438 0.94816 0.75961 0.0
H3561 H 0.15781 0.91924 0.75178 0.0
H3562 H 0.1915 0.92777 0.80578 0.0
H3563 H 0.17849 0.95666 0.81355 0.0
H3564 H 0.21287 0.92122 0.77627 0.0
H3565 H 0.14766 0.86695 0.77151 0.0
H3566 H 0.14632 0.88611 0.75669 0.0
H3567 H 0.1484 0.8908 0.78209 0.0
C3568 C 0.15437 0.94367 0.76996 0.0
C3569 C 0.16033 0.95477 0.78722 0.0
C3570 C 0.16206 0.92713 0.76546 0.0
C3571 C 0.17564 0.92128 0.77822 0.0
C3572 C 0.18112 0.93203 0.79566 0.0
H3573 H 0.21581 0.81611 0.7893 0.0
H3574 H 0.2011 0.84467 0.79076 0.0
C3575 C 0.17358 0.94854 0.80011 0.0
C3576 C 0.18488 0.90445 0.77336 0.0
H3577 H 0.17622 0.85623 0.76433 0.0
C3578 C 0.20485 0.90701 0.77353 0.0
C3579 C 0.17442 0.88591 0.76987 0.0
C3580 C 0.15303 0.88216 0.77016 0.0
C3581 C 0.21467 0.89154 0.77081 0.0
C3582 C 0.20422 0.87299 0.76744 0.0
C3583 C 0.18422 0.87047 0.76679 0.0
C3584 C 0.21373 0.85585 0.76628 0.0
C3585 C 0.23617 0.89512 0.7724 0.0
C3586 C 0.22592 0.85262 0.75206 0.0
C3587 C 0.23456 0.83623 0.75126 0.0
C3588 C 0.23096 0.82273 0.76454 0.0
C3589 C 0.21884 0.82613 0.77876 0.0
C3590 C 0.21035 0.84247 0.77961 0.0
H3591 H 0.24205 0.90959 0.77901 0.0
H3592 H 0.24203 0.88459 0.78094 0.0
H3593 H 0.24119 0.89371 0.75799 0.0
H3594 H 0.22852 0.86261 0.74144 0.0
H3595 H 0.2437 0.83394 0.74005 0.0
H3596 H 0.30659 0.86871 0.9735 0.0
H3597 H 0.3407 0.88182 0.97404 0.0
H3598 H 0.33316 0.92701 0.01515 0.0
H3599 H 0.2993 0.91397 0.01466 0.0
H3600 H 0.35831 0.92255 0.96785 0.0
H3601 H 0.37604 0.89838 0.03889 0.0
H3602 H 0.35487 0.88799 0.02386 0.0
H3603 H 0.35576 0.91054 0.03707 0.0
C3604 C 0.3123 0.88152 0.98248 0.0
C3605 C 0.30042 0.89072 0.99363 0.0
C3606 C 0.33165 0.88899 0.98275 0.0
C3607 C 0.33931 0.90537 0.9946 0.0
C3608 C 0.32745 0.91437 0.00591 0.0
H3609 H 0.44278 0.98519 0.00937 0.0
H3610 H 0.41074 0.96827 0.9991 0.0
C3611 C 0.30817 0.90701 0.00553 0.0
C3612 C 0.35986 0.91282 0.99587 0.0
H3613 H 0.39969 0.92021 0.0269 0.0
C3614 C 0.36746 0.92194 0.98065 0.0
C3615 C 0.3717 0.91173 0.01252 0.0
C3616 C 0.36428 0.90151 0.029 0.0
C3617 C 0.3866 0.93069 0.98197 0.0
C3618 C 0.39824 0.93029 0.99897 0.0
C3619 C 0.39072 0.92055 0.01389 0.0
C3620 C 0.41811 0.94031 0.00208 0.0
C3621 C 0.39418 0.94031 0.96525 0.0
C3622 C 0.43288 0.9302 0.00701 0.0
C3623 C 0.4511 0.93981 0.01305 0.0
C3624 C 0.45488 0.95974 0.01434 0.0
C3625 C 0.44032 0.96982 0.00847 0.0
C3626 C 0.42203 0.96017 0.00249 0.0
H3627 H 0.38534 0.93491 0.95181 0.0
H3628 H 0.39394 0.95577 0.96757 0.0
H3629 H 0.40912 0.93822 0.96363 0.0
H3630 H 0.43012 0.91487 0.00684 0.0
H3631 H 0.46205 0.93163 0.01734 0.0
H3632 H 0.83938 0.56197 0.80195 0.0
H3633 H 0.82521 0.58889 0.79179 0.0
H3634 H 0.86359 0.59544 0.74763 0.0
H3635 H 0.87827 0.5687 0.75803 0.0
H3636 H 0.86109 0.62884 0.76537 0.0
H3637 H 0.78817 0.59038 0.7465 0.0
H3638 H 0.79619 0.58703 0.77043 0.0
H3639 H 0.80829 0.57824 0.751 0.0
C3640 C 0.84486 0.5691 0.79007 0.0
C3641 C 0.85994 0.56309 0.78077 0.0
C3642 C 0.83658 0.58439 0.78414 0.0
C3643 C 0.84294 0.59383 0.76858 0.0
C3644 C 0.85828 0.5882 0.75952 0.0
H3645 H 0.77792 0.683 0.73176 0.0
H3646 H 0.79277 0.65408 0.72983 0.0
C3647 C 0.86672 0.57297 0.76555 0.0
C3648 C 0.83411 0.61018 0.76252 0.0
H3649 H 0.79101 0.62448 0.7531 0.0
C3650 C 0.8458 0.6278 0.76235 0.0
C3651 C 0.81421 0.6088 0.75805 0.0
C3652 C 0.80104 0.59003 0.75628 0.0
C3653 C 0.83799 0.64427 0.75921 0.0
C3654 C 0.81795 0.64317 0.75664 0.0
C3655 C 0.80635 0.62537 0.7554 0.0
C3656 C 0.80882 0.66046 0.75733 0.0
C3657 C 0.8513 0.66279 0.75911 0.0
C3658 C 0.8125 0.67327 0.77359 0.0
C3659 C 0.80414 0.68962 0.77471 0.0
C3660 C 0.79167 0.6935 0.75967 0.0
C3661 C 0.7875 0.68041 0.74354 0.0
C3662 C 0.796 0.66395 0.7424 0.0
H3663 H 0.86536 0.6604 0.75448 0.0
H3664 H 0.84525 0.67244 0.74959 0.0
H3665 H 0.85375 0.66991 0.77373 0.0
H3666 H 0.82186 0.67058 0.78553 0.0
H3667 H 0.80751 0.69923 0.78747 0.0
H3668 H 0.8189 0.62749 0.02891 0.0
H3669 H 0.84804 0.61529 0.03918 0.0
H3670 H 0.84514 0.58278 0.98501 0.0
H3671 H 0.81598 0.5945 0.97485 0.0
H3672 H 0.85021 0.56126 0.01434 0.0
H3673 H 0.90223 0.62814 0.02474 0.0
H3674 H 0.88158 0.62804 0.03781 0.0
H3675 H 0.87895 0.62673 0.01229 0.0
C3676 C 0.82468 0.61803 0.01907 0.0
C3677 C 0.81508 0.61199 0.00105 0.0
C3678 C 0.84136 0.61105 0.02496 0.0
C3679 C 0.84886 0.59815 0.01284 0.0
C3680 C 0.8396 0.59263 0.99466 0.0
H3681 H 0.95714 0.56354 0.00833 0.0
H3682 H 0.92823 0.5777 0.0064 0.0
C3683 C 0.82294 0.59943 0.98884 0.0
C3684 C 0.86585 0.58964 0.01909 0.0
H3685 H 0.91362 0.6001 0.03227 0.0
C3686 C 0.86406 0.56976 0.0184 0.0
C3687 C 0.88392 0.60072 0.02434 0.0
C3688 C 0.88692 0.62208 0.02472 0.0
C3689 C 0.87991 0.56065 0.02216 0.0
C3690 C 0.89803 0.57172 0.02722 0.0
C3691 C 0.89971 0.59162 0.02852 0.0
C3692 C 0.91572 0.56305 0.02918 0.0
C3693 C 0.87725 0.53925 0.01977 0.0
C3694 C 0.91845 0.55006 0.04272 0.0
C3695 C 0.93507 0.5417 0.04378 0.0
C3696 C 0.9493 0.54639 0.03143 0.0
C3697 C 0.94655 0.55959 0.01811 0.0
C3698 C 0.92999 0.56778 0.017 0.0
H3699 H 0.86331 0.53306 0.01199 0.0
H3700 H 0.88878 0.53431 0.01196 0.0
H3701 H 0.8778 0.53369 0.03398 0.0
H3702 H 0.90778 0.54642 0.05251 0.0
H3703 H 0.93682 0.5317 0.05428 0.0
H3704 H 0.13935 0.06837 0.80652 0.0
H3705 H 0.15858 0.09993 0.80562 0.0
H3706 H 0.19835 0.07471 0.77286 0.0
H3707 H 0.17915 0.04341 0.77358 0.0
H3708 H 0.19916 0.11265 0.81794 0.0
H3709 H 0.18128 0.11634 0.74071 0.0
H3710 H 0.16762 0.09984 0.75449 0.0
H3711 H 0.19007 0.09515 0.7469 0.0
C3712 C 0.15225 0.06967 0.79923 0.0
C3713 C 0.15812 0.05354 0.79055 0.0
C3714 C 0.16322 0.0876 0.79876 0.0
C3715 C 0.17985 0.08961 0.78915 0.0
C3716 C 0.18552 0.07348 0.78026 0.0
H3717 H 0.26873 0.189 0.78876 0.0
H3718 H 0.25165 0.15737 0.79336 0.0
C3719 C 0.17465 0.05563 0.78082 0.0
C3720 C 0.19108 0.10859 0.78786 0.0
H3721 H 0.20494 0.14052 0.75614 0.0
C3722 C 0.20048 0.11878 0.80446 0.0
C3723 C 0.1926 0.11655 0.77024 0.0
C3724 C 0.18225 0.10652 0.75207 0.0
C3725 C 0.21154 0.13673 0.80386 0.0
C3726 C 0.21324 0.14457 0.7862 0.0
C3727 C 0.20374 0.13438 0.76964 0.0
C3728 C 0.22377 0.16383 0.78457 0.0
C3729 C 0.22097 0.14736 0.82212 0.0
C3730 C 0.21379 0.17783 0.77799 0.0
C3731 C 0.22344 0.19575 0.77528 0.0
C3732 C 0.24338 0.2001 0.77899 0.0
C3733 C 0.25339 0.18612 0.7858 0.0
C3734 C 0.24365 0.16809 0.78853 0.0
H3735 H 0.21546 0.14092 0.83482 0.0
H3736 H 0.23654 0.14716 0.82271 0.0
H3737 H 0.21874 0.16241 0.82275 0.0
H3738 H 0.19846 0.17484 0.77482 0.0
H3739 H 0.2152 0.20615 0.77012 0.0
H3740 H 0.39676 0.96287 0.30857 0.0
H3741 H 0.38375 0.92886 0.30787 0.0
H3742 H 0.33763 0.9366 0.26762 0.0
H3743 H 0.35056 0.97039 0.26831 0.0
H3744 H 0.3433 0.91169 0.31507 0.0
H3745 H 0.36498 0.89335 0.24313 0.0
H3746 H 0.37601 0.91445 0.2578 0.0
H3747 H 0.35298 0.91367 0.24533 0.0
C3748 C 0.3838 0.95722 0.2997 0.0
C3749 C 0.37429 0.96915 0.2889 0.0
C3750 C 0.37639 0.93791 0.29933 0.0
C3751 C 0.35975 0.93033 0.28772 0.0
C3752 C 0.3505 0.94223 0.27666 0.0
H3753 H 0.27969 0.82679 0.27599 0.0
H3754 H 0.29651 0.85904 0.2849 0.0
C3755 C 0.35779 0.96148 0.27715 0.0
C3756 C 0.35212 0.90989 0.28669 0.0
H3757 H 0.34369 0.86992 0.25608 0.0
C3758 C 0.34347 0.90248 0.30226 0.0
C3759 C 0.3526 0.89795 0.27001 0.0
C3760 C 0.36226 0.90515 0.25313 0.0
C3761 C 0.33468 0.88344 0.30133 0.0
C3762 C 0.33455 0.87168 0.28437 0.0
C3763 C 0.34375 0.879 0.26904 0.0
C3764 C 0.32461 0.85183 0.28184 0.0
C3765 C 0.32559 0.87608 0.31843 0.0
C3766 C 0.33484 0.83709 0.27734 0.0
C3767 C 0.32529 0.81872 0.27215 0.0
C3768 C 0.30528 0.81477 0.27123 0.0
C3769 C 0.2951 0.82937 0.27661 0.0
C3770 C 0.3047 0.84779 0.28179 0.0
H3771 H 0.3311 0.88523 0.33165 0.0
H3772 H 0.30997 0.8759 0.31635 0.0
H3773 H 0.32813 0.86137 0.32031 0.0
H3774 H 0.3502 0.83993 0.27725 0.0
H3775 H 0.33356 0.80776 0.26821 0.0
H3776 H 0.52509 0.32471 0.62873 0.0
H3777 H 0.52194 0.35565 0.61727 0.0
H3778 H 0.47843 0.32875 0.57406 0.0
H3779 H 0.48127 0.29789 0.58539 0.0
H3780 H 0.52757 0.36645 0.58024 0.0
H3781 H 0.45422 0.372 0.59903 0.0
H3782 H 0.46811 0.35549 0.60915 0.0
H3783 H 0.45652 0.35033 0.58553 0.0
C3784 C 0.51471 0.32537 0.61691 0.0
C3785 C 0.50341 0.30876 0.60805 0.0
C3786 C 0.51296 0.34306 0.61036 0.0
C3787 C 0.49979 0.3445 0.59497 0.0
C3788 C 0.48843 0.32801 0.58618 0.0
H3789 H 0.50589 0.44364 0.52883 0.0
H3790 H 0.5012 0.41066 0.53716 0.0
C3791 C 0.49018 0.31034 0.59266 0.0
C3792 C 0.49854 0.36312 0.58751 0.0
H3793 H 0.46851 0.39534 0.58019 0.0
C3794 C 0.51466 0.37278 0.5802 0.0
C3795 C 0.48169 0.37132 0.58756 0.0
C3796 C 0.46417 0.36187 0.59588 0.0
C3797 C 0.51441 0.39047 0.57294 0.0
C3798 C 0.49748 0.39856 0.57273 0.0
C3799 C 0.48135 0.38893 0.58008 0.0
C3800 C 0.49691 0.41783 0.56658 0.0
C3801 C 0.53245 0.40061 0.56607 0.0
C3802 C 0.49494 0.43258 0.58006 0.0
C3803 C 0.4975 0.45132 0.57534 0.0
C3804 C 0.50198 0.45565 0.557 0.0
C3805 C 0.50242 0.44073 0.54306 0.0
C3806 C 0.49993 0.42192 0.54784 0.0
H3807 H 0.54512 0.39416 0.57057 0.0
H3808 H 0.53099 0.39985 0.55031 0.0
H3809 H 0.53501 0.41582 0.5715 0.0
H3810 H 0.49249 0.4297 0.59456 0.0
H3811 H 0.49693 0.46252 0.58634 0.0
H3812 H 0.43349 0.75248 0.38306 0.0
H3813 H 0.40085 0.74754 0.36789 0.0
H3814 H 0.41954 0.71889 0.31857 0.0
H3815 H 0.45174 0.72269 0.33438 0.0
H3816 H 0.38939 0.76246 0.33934 0.0
H3817 H 0.37112 0.6854 0.32044 0.0
H3818 H 0.39182 0.69554 0.33614 0.0
H3819 H 0.39282 0.69436 0.31071 0.0
C3820 C 0.43044 0.74485 0.36911 0.0
C3821 C 0.4451 0.73865 0.35946 0.0
C3822 C 0.41183 0.74202 0.36044 0.0
C3823 C 0.40759 0.73279 0.34202 0.0
C3824 C 0.42218 0.72566 0.33289 0.0
H3825 H 0.31476 0.74037 0.25631 0.0
H3826 H 0.34493 0.73434 0.2722 0.0
C3827 C 0.4407 0.72824 0.34171 0.0
C3828 C 0.3886 0.73262 0.33164 0.0
H3829 H 0.35235 0.70499 0.30321 0.0
C3830 C 0.38149 0.74987 0.33135 0.0
C3831 C 0.37784 0.71612 0.32154 0.0
C3832 C 0.38372 0.6968 0.3224 0.0
C3833 C 0.36447 0.7513 0.32073 0.0
C3834 C 0.35394 0.73493 0.31047 0.0
C3835 C 0.36071 0.71756 0.31089 0.0
C3836 C 0.33519 0.73565 0.30039 0.0
C3837 C 0.35786 0.77036 0.32051 0.0
C3838 C 0.31975 0.73783 0.31098 0.0
C3839 C 0.3027 0.74134 0.30205 0.0
C3840 C 0.30073 0.74268 0.28231 0.0
C3841 C 0.31588 0.73942 0.27153 0.0
C3842 C 0.33307 0.73597 0.28056 0.0
H3843 H 0.36934 0.78218 0.3261 0.0
H3844 H 0.35276 0.77289 0.30585 0.0
H3845 H 0.34577 0.77055 0.32949 0.0
H3846 H 0.32114 0.73754 0.3263 0.0
H3847 H 0.29122 0.74354 0.31074 0.0
H3848 H 0.02902 0.72901 0.09433 0.0
H3849 H 0.0351 0.69839 0.0802 0.0
H3850 H 0.01261 0.67102 0.12781 0.0
H3851 H 0.00678 0.70166 0.14201 0.0
H3852 H 0.04825 0.66198 0.11931 0.0
H3853 H 0.99828 0.65333 0.0537 0.0
H3854 H 0.01363 0.67574 0.05921 0.0
H3855 H 0.99527 0.66839 0.07438 0.0
C3856 C 0.02487 0.71633 0.10144 0.0
C3857 C 0.01692 0.7175 0.11895 0.0
C3858 C 0.02843 0.69887 0.09342 0.0
C3859 C 0.02412 0.68235 0.10284 0.0
C3860 C 0.01601 0.68356 0.12027 0.0
H3861 H 0.016 0.56472 0.09782 0.0
H3862 H 0.02403 0.59856 0.1068 0.0
C3863 C 0.01258 0.701 0.12832 0.0
C3864 C 0.02862 0.66384 0.0951 0.0
H3865 H 0.0149 0.62856 0.05953 0.0
C3866 C 0.04113 0.65474 0.10612 0.0
C3867 C 0.01971 0.65455 0.07771 0.0
C3868 C 0.00591 0.66338 0.06548 0.0
C3869 C 0.04421 0.63626 0.10063 0.0
C3870 C 0.03417 0.62649 0.08392 0.0
C3871 C 0.02263 0.63604 0.07233 0.0
C3872 C 0.03318 0.60577 0.07941 0.0
C3873 C 0.05796 0.62734 0.11296 0.0
C3874 C 0.0357 0.59839 0.06099 0.0
C3875 C 0.03075 0.57893 0.05567 0.0
C3876 C 0.02312 0.56657 0.06867 0.0
C3877 C 0.0218 0.57384 0.08742 0.0
C3878 C 0.02662 0.59324 0.09268 0.0
H3879 H 0.06964 0.63826 0.11999 0.0
H3880 H 0.05031 0.62045 0.12433 0.0
H3881 H 0.0643 0.6165 0.10464 0.0
H3882 H 0.04063 0.6078 0.05048 0.0
H3883 H 0.03198 0.57377 0.04112 0.0
H3884 H 0.04952 0.28653 0.83748 0.0
H3885 H 0.081 0.28577 0.82646 0.0
H3886 H 0.09183 0.24574 0.86697 0.0
H3887 H 0.06016 0.24622 0.87809 0.0
H3888 H 0.11849 0.29304 0.84623 0.0
H3889 H 0.098 0.2187 0.8143 0.0
H3890 H 0.08066 0.23313 0.82151 0.0
H3891 H 0.09426 0.22257 0.839 0.0
C3892 C 0.0586 0.27766 0.84422 0.0
C3893 C 0.0522 0.26627 0.85857 0.0
C3894 C 0.07663 0.27729 0.8379 0.0
C3895 C 0.08857 0.26548 0.8457 0.0
C3896 C 0.08265 0.25473 0.86059 0.0
H3897 H 0.19601 0.23441 0.81882 0.0
H3898 H 0.16594 0.23825 0.83161 0.0
C3899 C 0.0646 0.25512 0.867 0.0
C3900 C 0.10685 0.26387 0.83759 0.0
H3901 H 0.12991 0.23294 0.81284 0.0
C3902 C 0.12103 0.27993 0.83892 0.0
C3903 C 0.10999 0.24676 0.82794 0.0
C3904 C 0.0949 0.22932 0.82541 0.0
C3905 C 0.13852 0.27921 0.8312 0.0
C3906 C 0.14167 0.26207 0.82158 0.0
C3907 C 0.12742 0.24606 0.82018 0.0
C3908 C 0.15996 0.26012 0.81358 0.0
C3909 C 0.15364 0.29662 0.8338 0.0
C3910 C 0.16648 0.27101 0.79898 0.0
C3911 C 0.1838 0.26888 0.79159 0.0
C3912 C 0.19476 0.25574 0.79865 0.0
C3913 C 0.18797 0.2447 0.81307 0.0
C3914 C 0.17076 0.24685 0.82042 0.0
H3915 H 0.15068 0.30706 0.84515 0.0
H3916 H 0.16791 0.29275 0.8374 0.0
H3917 H 0.15408 0.3036 0.82033 0.0
H3918 H 0.15815 0.28107 0.79324 0.0
H3919 H 0.18863 0.27754 0.78045 0.0
H3920 H 0.52838 0.73045 0.95067 0.0
H3921 H 0.52661 0.7007 0.96573 0.0
H3922 H 0.502 0.66975 0.9129 0.0
H3923 H 0.50338 0.69958 0.89774 0.0
H3924 H 0.48311 0.6584 0.94442 0.0
H3925 H 0.56129 0.66097 0.95763 0.0
H3926 H 0.55277 0.68176 0.96713 0.0
H3927 H 0.55095 0.67606 0.94184 0.0
C3928 C 0.52269 0.71731 0.94219 0.0
C3929 C 0.51614 0.71734 0.92296 0.0
C3930 C 0.52174 0.70032 0.95083 0.0
C3931 C 0.51441 0.68302 0.94037 0.0
C3932 C 0.50775 0.68298 0.9212 0.0
H3933 H 0.52954 0.57117 0.96541 0.0
H3934 H 0.52838 0.6017 0.95286 0.0
C3935 C 0.50863 0.7 0.91254 0.0
C3936 C 0.51366 0.66497 0.94947 0.0
H3937 H 0.54165 0.63687 0.97135 0.0
C3938 C 0.49589 0.65365 0.95032 0.0
C3939 C 0.53038 0.65881 0.95704 0.0
C3940 C 0.54995 0.66992 0.95575 0.0
C3941 C 0.49439 0.63626 0.95853 0.0
C3942 C 0.5111 0.63024 0.96631 0.0
C3943 C 0.52884 0.64163 0.96554 0.0
C3944 C 0.51082 0.61149 0.97393 0.0
C3945 C 0.47506 0.62421 0.95829 0.0
C3946 C 0.50125 0.6068 0.98999 0.0
C3947 C 0.50181 0.58916 0.99725 0.0
C3948 C 0.51209 0.57609 0.98861 0.0
C3949 C 0.52155 0.5809 0.9725 0.0
C3950 C 0.52091 0.59838 0.96527 0.0
H3951 H 0.46429 0.62901 0.94838 0.0
H3952 H 0.47583 0.6091 0.95409 0.0
H3953 H 0.47012 0.6251 0.97276 0.0
H3954 H 0.49363 0.61686 0.99707 0.0
H3955 H 0.49444 0.58587 0.00971 0.0
H3956 H 0.06842 0.76178 0.63573 0.0
H3957 H 0.10098 0.75827 0.64702 0.0
H3958 H 0.07956 0.73083 0.69511 0.0
H3959 H 0.047 0.73348 0.68321 0.0
H3960 H 0.12015 0.7741 0.6781 0.0
H3961 H 0.1158 0.69649 0.68027 0.0
H3962 H 0.09716 0.707 0.6685 0.0
H3963 H 0.09841 0.70555 0.69384 0.0
C3964 C 0.07076 0.75486 0.64861 0.0
C3965 C 0.05546 0.74856 0.65907 0.0
C3966 C 0.08929 0.75282 0.65504 0.0
C3967 C 0.09277 0.74417 0.67187 0.0
C3968 C 0.07729 0.73718 0.6819 0.0
H3969 H 0.19673 0.74719 0.7456 0.0
H3970 H 0.16347 0.74102 0.73187 0.0
C3971 C 0.05875 0.73908 0.67535 0.0
C3972 C 0.11264 0.74399 0.67973 0.0
H3973 H 0.14334 0.71571 0.6971 0.0
C3974 C 0.12512 0.76132 0.68229 0.0
C3975 C 0.1193 0.72726 0.68498 0.0
C3976 C 0.10701 0.70801 0.68158 0.0
C3977 C 0.14384 0.76251 0.69037 0.0
C3978 C 0.15046 0.74584 0.69565 0.0
C3979 C 0.13812 0.72845 0.69309 0.0
C3980 C 0.1704 0.74641 0.70336 0.0
C3981 C 0.15638 0.78166 0.69338 0.0
C3982 C 0.18519 0.75075 0.69168 0.0
C3983 C 0.20409 0.75431 0.69943 0.0
C3984 C 0.20852 0.75353 0.719 0.0
C3985 C 0.19374 0.74792 0.73047 0.0
C3986 C 0.17477 0.74439 0.72267 0.0
H3987 H 0.14798 0.79348 0.69243 0.0
H3988 H 0.16471 0.7834 0.70747 0.0
H3989 H 0.16661 0.78279 0.6823 0.0
H3990 H 0.18205 0.75217 0.67669 0.0
H3991 H 0.21515 0.75839 0.69018 0.0
H3992 H 0.03737 0.31487 0.44637 0.0
H3993 H 0.03992 0.3426 0.46927 0.0
H3994 H 0.03677 0.37859 0.4233 0.0
H3995 H 0.03453 0.35109 0.40027 0.0
H3996 H 0.06305 0.3948 0.45434 0.0
H3997 H 0.9919 0.36657 0.47714 0.0
H3998 H 0.0097 0.35136 0.47918 0.0
H3999 H 0.0009 0.35675 0.4561 0.0
C4000 C 0.03749 0.32871 0.44108 0.0
C4001 C 0.03547 0.33067 0.42142 0.0
C4002 C 0.03889 0.34453 0.45423 0.0
C4003 C 0.03817 0.36257 0.44797 0.0
C4004 C 0.03728 0.36476 0.42842 0.0
H4005 H 0.99663 0.46075 0.48459 0.0
H4006 H 0.00426 0.43068 0.4716 0.0
C4007 C 0.03596 0.34898 0.41527 0.0
C4008 C 0.0368 0.37898 0.46156 0.0
H4009 H 0.00643 0.39663 0.49069 0.0
C4010 C 0.05085 0.39514 0.46254 0.0
C4011 C 0.02074 0.37938 0.4721 0.0
C4012 C 0.00484 0.36268 0.47105 0.0
C4013 C 0.04894 0.41193 0.47333 0.0
C4014 C 0.03265 0.41244 0.48346 0.0
C4015 C 0.01898 0.39607 0.48303 0.0
C4016 C 0.02813 0.43044 0.49227 0.0
C4017 C 0.06377 0.42931 0.47299 0.0
C4018 C 0.0389 0.44016 0.50843 0.0
C4019 C 0.03454 0.4575 0.51601 0.0
C4020 C 0.01942 0.46532 0.50741 0.0
C4021 C 0.00849 0.45525 0.49148 0.0
C4022 C 0.01278 0.438 0.48404 0.0
H4023 H 0.07455 0.42708 0.46285 0.0
H4024 H 0.05687 0.44155 0.46902 0.0
H4025 H 0.07124 0.43308 0.4874 0.0
H4026 H 0.0507 0.4344 0.51509 0.0
H4027 H 0.0432 0.46493 0.5283 0.0
H4028 H 0.46534 0.25621 0.18246 0.0
H4029 H 0.44053 0.26189 0.20325 0.0
H4030 H 0.40041 0.26042 0.15427 0.0
H4031 H 0.42505 0.25494 0.13333 0.0
H4032 H 0.39991 0.29096 0.1826 0.0
H4033 H 0.39575 0.22089 0.21284 0.0
H4034 H 0.41886 0.23533 0.21443 0.0
H4035 H 0.4074 0.22578 0.19159 0.0
C4036 C 0.45125 0.2571 0.17607 0.0
C4037 C 0.4472 0.255 0.15618 0.0
C4038 C 0.43709 0.26031 0.188 0.0
C4039 C 0.41862 0.26138 0.18028 0.0
C4040 C 0.4146 0.25963 0.16049 0.0
H4041 H 0.30516 0.2606 0.20082 0.0
H4042 H 0.33727 0.26668 0.19078 0.0
C4043 C 0.42871 0.25645 0.14855 0.0
C4044 C 0.4032 0.26387 0.19267 0.0
H4045 H 0.37402 0.24049 0.22228 0.0
C4046 C 0.39439 0.28006 0.19149 0.0
C4047 C 0.39617 0.2497 0.20439 0.0
C4048 C 0.40489 0.23186 0.20588 0.0
C4049 C 0.37823 0.28209 0.20112 0.0
C4050 C 0.37054 0.26741 0.21195 0.0
C4051 C 0.37999 0.25174 0.21401 0.0
C4052 C 0.35139 0.26663 0.21892 0.0
C4053 C 0.36926 0.29972 0.19925 0.0
C4054 C 0.34861 0.26462 0.23814 0.0
C4055 C 0.33013 0.26109 0.24397 0.0
C4056 C 0.31424 0.25918 0.23055 0.0
C4057 C 0.31713 0.26193 0.21148 0.0
C4058 C 0.3355 0.26559 0.20573 0.0
H4059 H 0.37999 0.31195 0.19648 0.0
H4060 H 0.35821 0.29717 0.18705 0.0
H4061 H 0.3624 0.30352 0.21226 0.0
H4062 H 0.36072 0.2652 0.2485 0.0
H4063 H 0.32831 0.25893 0.25873 0.0
H4064 H 0.59082 0.49679 0.32919 0.0
H4065 H 0.57017 0.49581 0.35542 0.0
H4066 H 0.6196 0.5036 0.39582 0.0
H4067 H 0.64032 0.50463 0.36994 0.0
H4068 H 0.56805 0.47138 0.38749 0.0
H4069 H 0.58997 0.54796 0.41024 0.0
H4070 H 0.5937 0.53768 0.38703 0.0
H4071 H 0.60939 0.53496 0.40737 0.0
C4072 C 0.59732 0.49817 0.34365 0.0
C4073 C 0.6173 0.50091 0.34737 0.0
C4074 C 0.58547 0.49758 0.35861 0.0
C4075 C 0.59337 0.49989 0.37756 0.0
C4076 C 0.61322 0.50205 0.38131 0.0
H4077 H 0.56187 0.5098 0.4913 0.0
H4078 H 0.57678 0.50747 0.46156 0.0
C4079 C 0.62505 0.50256 0.36642 0.0
C4080 C 0.58107 0.50056 0.39355 0.0
H4081 H 0.57265 0.52939 0.43154 0.0
C4082 C 0.56885 0.48409 0.39703 0.0
C4083 C 0.58211 0.5172 0.40592 0.0
C4084 C 0.59436 0.53552 0.40242 0.0
C4085 C 0.55831 0.48359 0.41309 0.0
C4086 C 0.5598 0.5001 0.42577 0.0
C4087 C 0.57157 0.51671 0.42189 0.0
C4088 C 0.55026 0.50031 0.44376 0.0
C4089 C 0.5463 0.4652 0.41678 0.0
C4090 C 0.5303 0.49693 0.44373 0.0
C4091 C 0.52164 0.49818 0.46085 0.0
C4092 C 0.53281 0.50304 0.47827 0.0
C4093 C 0.55278 0.50615 0.47818 0.0
C4094 C 0.56137 0.50482 0.46116 0.0
H4095 H 0.54987 0.45291 0.40802 0.0
H4096 H 0.54818 0.46255 0.43201 0.0
H4097 H 0.53106 0.46609 0.41321 0.0
H4098 H 0.5214 0.49375 0.43046 0.0
H4099 H 0.50624 0.49576 0.46039 0.0
H4100 H 0.26648 0.8775 0.06662 0.0
H4101 H 0.26992 0.86268 0.09645 0.0
H4102 H 0.23543 0.81113 0.07055 0.0
H4103 H 0.23171 0.8259 0.0407 0.0
H4104 H 0.22572 0.82196 0.10655 0.0
H4105 H 0.30356 0.82211 0.10663 0.0
H4106 H 0.29677 0.84503 0.10419 0.0
H4107 H 0.28896 0.82615 0.08582 0.0
C4108 C 0.25952 0.86305 0.06729 0.0
C4109 C 0.24888 0.85284 0.05128 0.0
C4110 C 0.26166 0.85455 0.0843 0.0
C4111 C 0.25329 0.83568 0.08555 0.0
C4112 C 0.24216 0.82565 0.06979 0.0
H4113 H 0.27688 0.77059 0.18309 0.0
H4114 H 0.27397 0.78032 0.15054 0.0
C4115 C 0.24001 0.83413 0.05278 0.0
C4116 C 0.25586 0.82655 0.10345 0.0
H4117 H 0.28975 0.81555 0.13566 0.0
C4118 C 0.2397 0.82038 0.11282 0.0
C4119 C 0.27408 0.8242 0.11143 0.0
C4120 C 0.29183 0.82954 0.10142 0.0
C4121 C 0.24135 0.8127 0.1304 0.0
C4122 C 0.25966 0.81139 0.1389 0.0
C4123 C 0.27576 0.81675 0.12916 0.0
C4124 C 0.26236 0.80573 0.15845 0.0
C4125 C 0.22349 0.80623 0.13986 0.0
C4126 C 0.25732 0.8171 0.1736 0.0
C4127 C 0.25901 0.81166 0.19204 0.0
C4128 C 0.26585 0.79475 0.19577 0.0
C4129 C 0.27153 0.78366 0.18065 0.0
C4130 C 0.26985 0.78917 0.16209 0.0
H4131 H 0.21074 0.8032 0.12943 0.0
H4132 H 0.22477 0.7933 0.14731 0.0
H4133 H 0.22118 0.81762 0.15052 0.0
H4134 H 0.25189 0.83013 0.17112 0.0
H4135 H 0.25464 0.82063 0.20335 0.0
H4136 H 0.93645 0.53935 0.82896 0.0
H4137 H 0.95779 0.54149 0.85798 0.0
H4138 H 0.90943 0.52877 0.89051 0.0
H4139 H 0.8879 0.52647 0.86165 0.0
H4140 H 0.95966 0.5629 0.89632 0.0
H4141 H 0.94191 0.48451 0.89565 0.0
H4142 H 0.93708 0.49709 0.8751 0.0
H4143 H 0.92169 0.49675 0.89407 0.0
C4144 C 0.93027 0.53735 0.84232 0.0
C4145 C 0.91041 0.53244 0.84288 0.0
C4146 C 0.94253 0.53862 0.85889 0.0
C4147 C 0.93516 0.53499 0.87626 0.0
C4148 C 0.91535 0.5314 0.87713 0.0
H4149 H 0.96777 0.51685 0.98899 0.0
H4150 H 0.95355 0.52307 0.95832 0.0
C4151 C 0.90307 0.53014 0.86061 0.0
C4152 C 0.94806 0.53315 0.89313 0.0
H4153 H 0.9595 0.50083 0.92333 0.0
C4154 C 0.95984 0.54934 0.90217 0.0
C4155 C 0.9484 0.51536 0.90048 0.0
C4156 C 0.93674 0.49738 0.89077 0.0
C4157 C 0.97123 0.54829 0.91905 0.0
C4158 C 0.97087 0.53062 0.92681 0.0
C4159 C 0.95969 0.51436 0.91731 0.0
C4160 C 0.98031 0.52882 0.94575 0.0
C4161 C 0.98291 0.56611 0.92897 0.0
C4162 C 1.0002 0.53022 0.94891 0.0
C4163 C 0.00851 0.52663 0.96661 0.0
C4164 C 0.99697 0.52147 0.98125 0.0
C4165 C 0.97712 0.52061 0.97803 0.0
C4166 C 0.96891 0.52422 0.9605 0.0
H4167 H 0.98039 0.57899 0.92193 0.0
H4168 H 0.97951 0.56782 0.94399 0.0
H4169 H 0.99828 0.56497 0.92908 0.0
H4170 H 0.00919 0.53357 0.93757 0.0
H4171 H 0.02383 0.5274 0.96866 0.0
H4172 H 0.28796 0.17754 0.55051 0.0
H4173 H 0.28888 0.18996 0.58379 0.0
H4174 H 0.24328 0.14532 0.59271 0.0
H4175 H 0.24312 0.13226 0.55984 0.0
H4176 H 0.2646 0.20423 0.6036 0.0
H4177 H 0.27929 0.13943 0.63613 0.0
H4178 H 0.28016 0.14177 0.61106 0.0
H4179 H 0.25769 0.13492 0.62075 0.0
C4180 C 0.2783 0.17027 0.55967 0.0
C4181 C 0.26567 0.15378 0.55268 0.0
C4182 C 0.27877 0.17742 0.57866 0.0
C4183 C 0.26642 0.16838 0.59096 0.0
C4184 C 0.25343 0.15219 0.58378 0.0
H4185 H 0.24885 0.22507 0.70199 0.0
H4186 H 0.245 0.21308 0.66826 0.0
C4187 C 0.25327 0.14479 0.56493 0.0
C4188 C 0.267 0.17603 0.61119 0.0
H4189 H 0.27032 0.16357 0.65678 0.0
C4190 C 0.26597 0.19536 0.61524 0.0
C4191 C 0.269 0.16455 0.62645 0.0
C4192 C 0.27181 0.14409 0.6234 0.0
C4193 C 0.26699 0.20353 0.63405 0.0
C4194 C 0.2683 0.19189 0.64928 0.0
C4195 C 0.26913 0.17252 0.64517 0.0
C4196 C 0.27024 0.19951 0.66961 0.0
C4197 C 0.26736 0.22466 0.63733 0.0
C4198 C 0.28528 0.19545 0.68179 0.0
C4199 C 0.28707 0.2017 0.70104 0.0
C4200 C 0.27406 0.21248 0.7086 0.0
C4201 C 0.25912 0.21687 0.69647 0.0
C4202 C 0.25704 0.21016 0.67717 0.0
H4203 H 0.27185 0.2321 0.62479 0.0
H4204 H 0.25282 0.22749 0.63982 0.0
H4205 H 0.27719 0.23081 0.6499 0.0
H4206 H 0.29572 0.18737 0.6764 0.0
H4207 H 0.29888 0.19827 0.70997 0.0
H4208 H 0.64099 0.51095 0.22615 0.0
H4209 H 0.62729 0.51197 0.19357 0.0
H4210 H 0.57086 0.49663 0.21129 0.0
H4211 H 0.58442 0.49558 0.24396 0.0
H4212 H 0.60266 0.48206 0.16974 0.0
H4213 H 0.56842 0.54597 0.18387 0.0
H4214 H 0.58701 0.53991 0.19998 0.0
H4215 H 0.5632 0.52716 0.19909 0.0
C4216 C 0.62566 0.50772 0.22313 0.0
C4217 C 0.61379 0.50323 0.23767 0.0
C4218 C 0.61787 0.50834 0.2045 0.0
C4219 C 0.59806 0.50467 0.20008 0.0
C4220 C 0.58617 0.49983 0.21447 0.0
H4221 H 0.52878 0.5045 0.09255 0.0
H4222 H 0.53957 0.50476 0.12632 0.0
C4223 C 0.59396 0.4991 0.2331 0.0
C4224 C 0.58994 0.50569 0.18033 0.0
H4225 H 0.56333 0.53093 0.15268 0.0
C4226 C 0.59406 0.49274 0.166 0.0
C4227 C 0.5786 0.51955 0.17553 0.0
C4228 C 0.5741 0.53406 0.19035 0.0
C4229 C 0.58714 0.49322 0.14698 0.0
C4230 C 0.5762 0.50739 0.14207 0.0
C4231 C 0.57179 0.52016 0.15645 0.0
C4232 C 0.5696 0.5093 0.12199 0.0
C4233 C 0.59137 0.47835 0.13236 0.0
C4234 C 0.58289 0.51261 0.1085 0.0
C4235 C 0.57679 0.51243 0.08927 0.0
C4236 C 0.55725 0.50918 0.08314 0.0
C4237 C 0.54392 0.5071 0.09682 0.0
C4238 C 0.55007 0.50716 0.11611 0.0
H4239 H 0.59498 0.46562 0.13902 0.0
H4240 H 0.57905 0.47384 0.1216 0.0
H4241 H 0.60378 0.48434 0.12493 0.0
H4242 H 0.59803 0.5148 0.11278 0.0
H4243 H 0.58742 0.51426 0.07912 0.0
H4244 H 0.2223 0.87635 0.92638 0.0
H4245 H 0.21571 0.85536 0.89695 0.0
H4246 H 0.23831 0.81125 0.92552 0.0
H4247 H 0.24369 0.83163 0.95502 0.0
H4248 H 0.23945 0.8437 0.87703 0.0
H4249 H 0.19572 0.77879 0.89554 0.0
H4250 H 0.19956 0.80034 0.91117 0.0
H4251 H 0.21637 0.78383 0.91217 0.0
C4252 C 0.22535 0.86198 0.92644 0.0
C4253 C 0.23341 0.8556 0.94301 0.0
C4254 C 0.22159 0.84998 0.90963 0.0
C4255 C 0.22618 0.83151 0.90898 0.0
C4256 C 0.2339 0.82508 0.92568 0.0
H4257 H 0.27707 0.7805 0.81966 0.0
H4258 H 0.26728 0.79642 0.8481 0.0
C4259 C 0.23717 0.83686 0.94257 0.0
C4260 C 0.22547 0.81995 0.8905 0.0
H4261 H 0.21682 0.7743 0.87017 0.0
C4262 C 0.23405 0.82862 0.87546 0.0
C4263 C 0.21808 0.80029 0.88803 0.0
C4264 C 0.20672 0.79039 0.90256 0.0
C4265 C 0.23666 0.81801 0.85872 0.0
C4266 C 0.23135 0.79806 0.85726 0.0
C4267 C 0.22145 0.78953 0.87157 0.0
C4268 C 0.23718 0.78596 0.84155 0.0
C4269 C 0.24538 0.82834 0.84286 0.0
C4270 C 0.22365 0.7736 0.82921 0.0
C4271 C 0.22934 0.76401 0.81316 0.0
C4272 C 0.24856 0.76685 0.80931 0.0
C4273 C 0.26215 0.77822 0.82232 0.0
C4274 C 0.25654 0.78746 0.83844 0.0
H4275 H 0.24231 0.84312 0.84324 0.0
H4276 H 0.26109 0.82909 0.84461 0.0
H4277 H 0.23998 0.82097 0.82871 0.0
H4278 H 0.20866 0.77209 0.83149 0.0
H4279 H 0.21864 0.75541 0.80317 0.0
H4280 H 0.94178 0.54374 0.74605 0.0
H4281 H 0.95751 0.54356 0.71652 0.0
H4282 H 0.91209 0.5007 0.69015 0.0
H4283 H 0.89602 0.5012 0.71942 0.0
H4284 H 0.97111 0.51492 0.6974 0.0
H4285 H 0.91481 0.53976 0.65184 0.0
H4286 H 0.91493 0.54085 0.67737 0.0
H4287 H 0.90615 0.51893 0.66316 0.0
C4288 C 0.93505 0.53443 0.73389 0.0
C4289 C 0.91759 0.52261 0.73497 0.0
C4290 C 0.94409 0.53428 0.71707 0.0
C4291 C 0.93585 0.52229 0.70108 0.0
C4292 C 0.91848 0.51038 0.70218 0.0
H4293 H 0.99226 0.491 0.60084 0.0
H4294 H 0.98016 0.4919 0.6324 0.0
C4295 C 0.90933 0.51065 0.71893 0.0
C4296 C 0.94559 0.52205 0.68334 0.0
H4297 H 0.9394 0.52793 0.6361 0.0
C4298 C 0.96425 0.51786 0.68398 0.0
C4299 C 0.93667 0.5261 0.66594 0.0
C4300 C 0.91712 0.53185 0.66452 0.0
C4301 C 0.97419 0.51747 0.66761 0.0
C4302 C 0.96501 0.52091 0.6501 0.0
C4303 C 0.94639 0.52517 0.64952 0.0
C4304 C 0.97446 0.52079 0.63217 0.0
C4305 C 0.99451 0.51378 0.66933 0.0
C4306 C 0.9753 0.53668 0.62161 0.0
C4307 C 0.98179 0.53602 0.60356 0.0
C4308 C 0.98778 0.51954 0.59578 0.0
C4309 C 0.98789 0.50393 0.60666 0.0
C4310 C 0.98105 0.50447 0.62469 0.0
H4311 H 0.00106 0.51678 0.68419 0.0
H4312 H 0.99475 0.49862 0.66494 0.0
H4313 H 0.00338 0.52256 0.66001 0.0
H4314 H 0.97036 0.54943 0.62711 0.0
H4315 H 0.9817 0.54831 0.59549 0.0
H4316 H 0.25809 0.17659 0.45781 0.0
H4317 H 0.26038 0.19681 0.43139 0.0
H4318 H 0.28723 0.15576 0.40004 0.0
H4319 H 0.284 0.13506 0.42596 0.0
H4320 H 0.28732 0.21467 0.41317 0.0
H4321 H 0.24411 0.1593 0.36247 0.0
H4322 H 0.24717 0.15659 0.38753 0.0
H4323 H 0.26525 0.15158 0.37227 0.0
C4324 C 0.26459 0.17194 0.44532 0.0
C4325 C 0.27064 0.15412 0.44386 0.0
C4326 C 0.2659 0.18352 0.43021 0.0
C4327 C 0.2735 0.17762 0.41343 0.0
C4328 C 0.28066 0.16035 0.41249 0.0
H4329 H 0.29971 0.25175 0.32169 0.0
H4330 H 0.30182 0.23549 0.35098 0.0
C4331 C 0.27895 0.14858 0.42739 0.0
C4332 C 0.2733 0.18918 0.39675 0.0
H4333 H 0.25917 0.18659 0.34937 0.0
C4334 C 0.28108 0.20856 0.39922 0.0
C4335 C 0.26486 0.18135 0.37858 0.0
C4336 C 0.25469 0.16113 0.37508 0.0
C4337 C 0.28072 0.22025 0.38408 0.0
C4338 C 0.27295 0.21221 0.36575 0.0
C4339 C 0.26525 0.19282 0.36333 0.0
C4340 C 0.27183 0.22352 0.34892 0.0
C4341 C 0.28809 0.24117 0.3881 0.0
C4342 C 0.25441 0.22211 0.3378 0.0
C4343 C 0.25338 0.23084 0.32086 0.0
C4344 C 0.26964 0.24155 0.31479 0.0
C4345 C 0.28694 0.24373 0.32621 0.0
C4346 C 0.28809 0.23453 0.34301 0.0
H4347 H 0.28786 0.24591 0.40336 0.0
H4348 H 0.30309 0.24405 0.38452 0.0
H4349 H 0.27956 0.24978 0.3795 0.0
H4350 H 0.24161 0.21383 0.342 0.0
H4351 H 0.23983 0.22903 0.31236 0.0
H4352 H 0.32657 0.62237 0.53035 0.0
H4353 H 0.35452 0.60631 0.5287 0.0
H4354 H 0.33117 0.57794 0.47428 0.0
H4355 H 0.30317 0.59356 0.476 0.0
H4356 H 0.34044 0.55325 0.49915 0.0
H4357 H 0.40078 0.61195 0.49812 0.0
H4358 H 0.38623 0.61496 0.5174 0.0
H4359 H 0.37625 0.61507 0.49333 0.0
C4360 C 0.32765 0.6131 0.51782 0.0
C4361 C 0.31263 0.60916 0.50336 0.0
C4362 C 0.34364 0.60394 0.51688 0.0
C4363 C 0.34495 0.59096 0.50133 0.0
C4364 C 0.33043 0.58784 0.48644 0.0
H4365 H 0.44402 0.53692 0.48169 0.0
H4366 H 0.41673 0.55371 0.47793 0.0
C4367 C 0.31444 0.59682 0.48744 0.0
C4368 C 0.36044 0.57927 0.50127 0.0
H4369 H 0.40875 0.58155 0.50377 0.0
C4370 C 0.35538 0.55944 0.50003 0.0
C4371 C 0.3799 0.58735 0.50224 0.0
C4372 C 0.38616 0.60849 0.50266 0.0
C4373 C 0.36924 0.54746 0.50004 0.0
C4374 C 0.38871 0.55556 0.5017 0.0
C4375 C 0.39379 0.57538 0.5026 0.0
C4376 C 0.40409 0.54377 0.50291 0.0
C4377 C 0.36289 0.52627 0.49805 0.0
C4378 C 0.40582 0.5323 0.51799 0.0
C4379 C 0.42132 0.52256 0.52012 0.0
C4380 C 0.43551 0.5243 0.50731 0.0
C4381 C 0.43335 0.53524 0.4918 0.0
C4382 C 0.41781 0.54493 0.48967 0.0
H4383 H 0.34801 0.52243 0.49148 0.0
H4384 H 0.37235 0.51897 0.48931 0.0
H4385 H 0.36344 0.52089 0.51235 0.0
H4386 H 0.39556 0.53145 0.52855 0.0
H4387 H 0.42261 0.51439 0.53229 0.0
H4388 H 0.80903 0.92776 0.55072 0.0
H4389 H 0.84139 0.94487 0.55032 0.0
H4390 H 0.8583 0.89447 0.5238 0.0
H4391 H 0.82527 0.87843 0.52186 0.0
H4392 H 0.8735 0.94405 0.56418 0.0
H4393 H 0.87862 0.92734 0.48741 0.0
H4394 H 0.858 0.9176 0.49849 0.0
H4395 H 0.87891 0.90645 0.4998 0.0
C4396 C 0.81954 0.92071 0.54405 0.0
C4397 C 0.81439 0.90244 0.53487 0.0
C4398 C 0.83819 0.9303 0.54421 0.0
C4399 C 0.85232 0.92141 0.53603 0.0
C4400 C 0.84756 0.90222 0.529 0.0
H4401 H 0.97062 0.95809 0.52 0.0
H4402 H 0.93981 0.94075 0.52549 0.0
C4403 C 0.82871 0.89295 0.52809 0.0
C4404 C 0.87184 0.93229 0.53503 0.0
H4405 H 0.90696 0.9429 0.50539 0.0
C4406 C 0.88066 0.94387 0.55121 0.0
C4407 C 0.88161 0.93201 0.51825 0.0
C4408 C 0.87368 0.92029 0.50002 0.0
C4409 C 0.8987 0.955 0.55109 0.0
C4410 C 0.90817 0.95476 0.53429 0.0
C4411 C 0.89957 0.94315 0.51823 0.0
C4412 C 0.92739 0.96575 0.53301 0.0
C4413 C 0.90764 0.96656 0.56907 0.0
C4414 C 0.93081 0.98569 0.53558 0.0
C4415 C 0.94867 0.99579 0.53262 0.0
C4416 C 0.96328 0.98607 0.5268 0.0
C4417 C 0.95977 0.96611 0.52448 0.0
C4418 C 0.94211 0.95611 0.52762 0.0
H4419 H 0.90081 0.96164 0.58179 0.0
H4420 H 0.92312 0.96589 0.57112 0.0
H4421 H 0.90593 0.98161 0.56802 0.0
H4422 H 0.91953 0.99346 0.53934 0.0
H4423 H 0.95088 0.01114 0.53443 0.0
H4424 H 0.8296 0.03947 0.24072 0.0
H4425 H 0.81853 0.07001 0.24276 0.0
H4426 H 0.87386 0.09669 0.26848 0.0
H4427 H 0.88535 0.06602 0.26531 0.0
H4428 H 0.81394 0.09058 0.27257 0.0
H4429 H 0.86483 0.13427 0.23184 0.0
H4430 H 0.86359 0.10892 0.23167 0.0
H4431 H 0.87635 0.12435 0.25122 0.0
C4432 C 0.83956 0.05191 0.24639 0.0
C4433 C 0.85839 0.0504 0.25269 0.0
C4434 C 0.83318 0.06939 0.24768 0.0
C4435 C 0.84532 0.08581 0.25569 0.0
C4436 C 0.8643 0.0844 0.2618 0.0
H4437 H 0.7928 0.18481 0.29356 0.0
H4438 H 0.80724 0.15575 0.29314 0.0
C4439 C 0.87087 0.06687 0.26004 0.0
C4440 C 0.83752 0.10393 0.25844 0.0
H4441 H 0.84381 0.15041 0.24878 0.0
C4442 C 0.82046 0.10365 0.26728 0.0
C4443 C 0.84593 0.12101 0.25152 0.0
C4444 C 0.86357 0.12216 0.24087 0.0
C4445 C 0.81133 0.11969 0.26894 0.0
C4446 C 0.81991 0.13688 0.26235 0.0
C4447 C 0.83722 0.13729 0.25392 0.0
C4448 C 0.81075 0.1543 0.26295 0.0
C4449 C 0.79217 0.11771 0.27698 0.0
C4450 C 0.80825 0.16347 0.2463 0.0
C4451 C 0.80052 0.18027 0.24666 0.0
C4452 C 0.79477 0.18814 0.26361 0.0
C4453 C 0.7968 0.17882 0.28024 0.0
C4454 C 0.805 0.16219 0.27997 0.0
H4455 H 0.78514 0.10267 0.27593 0.0
H4456 H 0.79414 0.12294 0.29224 0.0
H4457 H 0.78247 0.12607 0.26949 0.0
H4458 H 0.81246 0.15772 0.23297 0.0
H4459 H 0.79912 0.18718 0.23363 0.0
H4460 H 0.70412 0.15202 0.01765 0.0
H4461 H 0.67105 0.13963 0.02275 0.0
H4462 H 0.68978 0.09159 0.0477 0.0
H4463 H 0.72285 0.10464 0.04361 0.0
H4464 H 0.65113 0.10917 0.00677 0.0
H4465 H 0.65274 0.10271 0.08402 0.0
H4466 H 0.67235 0.11565 0.07333 0.0
H4467 H 0.67 0.09025 0.07378 0.0
C4468 C 0.70108 0.13893 0.02441 0.0
C4469 C 0.71574 0.1288 0.02954 0.0
C4470 C 0.68225 0.13188 0.02736 0.0
C4471 C 0.67786 0.11471 0.03573 0.0
C4472 C 0.69274 0.10505 0.04163 0.0
H4473 H 0.57554 0.03236 0.03164 0.0
H4474 H 0.60808 0.04972 0.03814 0.0
C4475 C 0.71157 0.11225 0.03887 0.0
C4476 C 0.65768 0.10598 0.03644 0.0
H4477 H 0.62584 0.08433 0.06491 0.0
C4478 C 0.64568 0.10378 0.01951 0.0
C4479 C 0.65036 0.0992 0.05315 0.0
C4480 C 0.66201 0.10226 0.07212 0.0
C4481 C 0.62691 0.09433 0.01859 0.0
C4482 C 0.61974 0.08727 0.03517 0.0
C4483 C 0.6315 0.0897 0.05222 0.0
C4484 C 0.59998 0.07728 0.03474 0.0
C4485 C 0.615 0.09159 0.99975 0.0
C4486 C 0.5847 0.08719 0.03145 0.0
C4487 C 0.56619 0.07737 0.02769 0.0
C4488 C 0.56265 0.05746 0.0272 0.0
C4489 C 0.57783 0.04769 0.03187 0.0
C4490 C 0.5964 0.05756 0.0356 0.0
H4491 H 0.62381 0.09443 0.98767 0.0
H4492 H 0.60706 0.0769 0.99729 0.0
H4493 H 0.60443 0.10149 0.99986 0.0
H4494 H 0.58723 0.10245 0.03093 0.0
H4495 H 0.55476 0.08532 0.02437 0.0
H4496 H 0.19297 0.47684 0.30595 0.0
H4497 H 0.20912 0.44924 0.30731 0.0
H4498 H 0.16386 0.41612 0.26972 0.0
H4499 H 0.1474 0.44373 0.2682 0.0
H4500 H 0.17801 0.39804 0.30376 0.0
H4501 H 0.23477 0.42875 0.25997 0.0
H4502 H 0.2299 0.44364 0.28002 0.0
H4503 H 0.21211 0.4371 0.26039 0.0
C4504 C 0.18627 0.46368 0.29805 0.0
C4505 C 0.16887 0.46259 0.28684 0.0
C4506 C 0.19561 0.44794 0.29884 0.0
C4507 C 0.18777 0.43076 0.28847 0.0
C4508 C 0.17013 0.42933 0.27779 0.0
H4509 H 0.22866 0.33166 0.24835 0.0
H4510 H 0.21672 0.36158 0.25392 0.0
C4511 C 0.16077 0.44512 0.27692 0.0
C4512 C 0.19838 0.41453 0.2882 0.0
H4513 H 0.23744 0.39904 0.27128 0.0
C4514 C 0.19109 0.39826 0.29681 0.0
C4515 C 0.21539 0.41495 0.27905 0.0
C4516 C 0.22352 0.43196 0.2692 0.0
C4517 C 0.2003 0.38224 0.29632 0.0
C4518 C 0.21721 0.38261 0.28702 0.0
C4519 C 0.22461 0.39897 0.27862 0.0
C4520 C 0.22608 0.36539 0.28389 0.0
C4521 C 0.19158 0.36475 0.30509 0.0
C4522 C 0.23578 0.35792 0.29887 0.0
C4523 C 0.24283 0.3408 0.29569 0.0
C4524 C 0.24003 0.33094 0.27754 0.0
C4525 C 0.2309 0.33888 0.26252 0.0
C4526 C 0.22409 0.35598 0.26565 0.0
H4527 H 0.17744 0.36616 0.31016 0.0
H4528 H 0.18991 0.35216 0.29461 0.0
H4529 H 0.2012 0.36214 0.31734 0.0
H4530 H 0.23754 0.36512 0.31303 0.0
H4531 H 0.24973 0.33493 0.30751 0.0
H4532 H 0.20657 0.39067 0.04636 0.0
H4533 H 0.17591 0.40238 0.04722 0.0
H4534 H 0.19035 0.43745 0.00185 0.0
H4535 H 0.22075 0.42611 0.00098 0.0
H4536 H 0.179 0.45726 0.0331 0.0
H4537 H 0.12741 0.39173 0.01006 0.0
H4538 H 0.14458 0.38991 0.0295 0.0
H4539 H 0.15241 0.39376 0.0064 0.0
C4540 C 0.20305 0.40063 0.03638 0.0
C4541 C 0.2162 0.40751 0.0237 0.0
C4542 C 0.18552 0.40729 0.03686 0.0
C4543 C 0.18083 0.42076 0.02455 0.0
C4544 C 0.19368 0.42712 0.01152 0.0
H4545 H 0.09036 0.48872 0.00531 0.0
H4546 H 0.11958 0.47447 0.00448 0.0
C4547 C 0.2111 0.42058 0.01107 0.0
C4548 C 0.16314 0.42925 0.02576 0.0
H4549 H 0.11457 0.41925 0.01929 0.0
C4550 C 0.1649 0.44895 0.03008 0.0
C4551 C 0.14478 0.41839 0.02182 0.0
C4552 C 0.14206 0.39729 0.01653 0.0
C4553 C 0.14883 0.45808 0.03067 0.0
C4554 C 0.13047 0.44728 0.02649 0.0
C4555 C 0.12868 0.42753 0.02237 0.0
C4556 C 0.1129 0.45609 0.02682 0.0
C4557 C 0.15165 0.47917 0.03614 0.0
C4558 C 0.09933 0.45029 0.03939 0.0
C4559 C 0.08267 0.45829 0.03981 0.0
C4560 C 0.07913 0.47226 0.0276 0.0
C4561 C 0.09273 0.4781 0.01498 0.0
C4562 C 0.10945 0.47001 0.01454 0.0
H4563 H 0.16601 0.48441 0.0435 0.0
H4564 H 0.15023 0.48674 0.02311 0.0
H4565 H 0.14073 0.48285 0.04555 0.0
H4566 H 0.10168 0.43958 0.04898 0.0
H4567 H 0.07255 0.45345 0.04975 0.0
H4568 H 0.8879 0.94213 0.26157 0.0
H4569 H 0.87169 0.90924 0.26032 0.0
H4570 H 0.826 0.92307 0.22294 0.0
H4571 H 0.84289 0.95554 0.22331 0.0
H4572 H 0.84074 0.89748 0.27357 0.0
H4573 H 0.82997 0.87366 0.19715 0.0
H4574 H 0.84537 0.89535 0.20609 0.0
H4575 H 0.82004 0.8949 0.2017 0.0
C4576 C 0.87453 0.93796 0.25287 0.0
C4577 C 0.86618 0.95139 0.24313 0.0
C4578 C 0.86526 0.91921 0.25215 0.0
C4579 C 0.84757 0.91351 0.24149 0.0
C4580 C 0.83977 0.92683 0.23095 0.0
H4581 H 0.75946 0.81353 0.24274 0.0
H4582 H 0.77675 0.8449 0.23741 0.0
C4583 C 0.84919 0.94551 0.2315 0.0
C4584 C 0.8365 0.89432 0.243 0.0
H4585 H 0.81051 0.8552 0.21748 0.0
C4586 C 0.83401 0.88842 0.26125 0.0
C4587 C 0.828 0.8821 0.22696 0.0
C4588 C 0.83116 0.88676 0.2069 0.0
C4589 C 0.8228 0.87116 0.26399 0.0
C4590 C 0.81432 0.85899 0.24801 0.0
C4591 C 0.81685 0.86468 0.22971 0.0
C4592 C 0.80387 0.83982 0.25018 0.0
C4593 C 0.81995 0.86621 0.28404 0.0
C4594 C 0.81347 0.82651 0.25874 0.0
C4595 C 0.80369 0.80878 0.26189 0.0
C4596 C 0.78406 0.80382 0.25637 0.0
C4597 C 0.77453 0.81695 0.24724 0.0
C4598 C 0.78439 0.83483 0.24415 0.0
H4599 H 0.82254 0.87906 0.29427 0.0
H4600 H 0.8053 0.85868 0.28508 0.0
H4601 H 0.83019 0.85675 0.28837 0.0
H4602 H 0.82857 0.82991 0.26316 0.0
H4603 H 0.81159 0.79898 0.26875 0.0
H4604 H 0.62308 0.06253 0.76834 0.0
H4605 H 0.63388 0.09575 0.76293 0.0
H4606 H 0.68229 0.07935 0.73653 0.0
H4607 H 0.67078 0.04612 0.74093 0.0
H4608 H 0.66402 0.11687 0.77805 0.0
H4609 H 0.66844 0.11545 0.70054 0.0
H4610 H 0.65665 0.0955 0.71156 0.0
H4611 H 0.68213 0.09895 0.71045 0.0
C4612 C 0.63588 0.06611 0.76118 0.0
C4613 C 0.64659 0.05206 0.75572 0.0
C4614 C 0.64204 0.08503 0.75806 0.0
C4615 C 0.65887 0.09013 0.74921 0.0
C4616 C 0.66905 0.07584 0.74298 0.0
H4617 H 0.73751 0.19493 0.75207 0.0
H4618 H 0.72157 0.1619 0.74646 0.0
C4619 C 0.66275 0.05692 0.7459 0.0
C4620 C 0.66674 0.11045 0.74827 0.0
H4621 H 0.68653 0.14274 0.71924 0.0
C4622 C 0.6689 0.12244 0.76515 0.0
C4623 C 0.67284 0.11794 0.73137 0.0
C4624 C 0.6697 0.1063 0.71244 0.0
C4625 C 0.67766 0.14138 0.76583 0.0
C4626 C 0.6841 0.1487 0.74908 0.0
C4627 C 0.68168 0.13695 0.73207 0.0
C4628 C 0.69329 0.16865 0.74923 0.0
C4629 C 0.68032 0.15337 0.78457 0.0
C4630 C 0.68251 0.1833 0.75194 0.0
C4631 C 0.69152 0.2021 0.75515 0.0
C4632 C 0.71148 0.20657 0.75571 0.0
C4633 C 0.72212 0.19194 0.75177 0.0
C4634 C 0.71306 0.17309 0.74855 0.0
H4635 H 0.67775 0.14467 0.79676 0.0
H4636 H 0.69496 0.16155 0.78687 0.0
H4637 H 0.67015 0.16367 0.78439 0.0
H4638 H 0.6672 0.18009 0.75238 0.0
H4639 H 0.68288 0.21304 0.75797 0.0
loop_
_geom_bond_atom_site_label_1
_geom_bond_atom_site_label_2
_geom_bond_distance
_geom_bond_site_symmetry_2
_ccdc_geom_bond_type
Mn0 O5 2.095 . S
Mn0 O15 2.162 . S
Mn0 O16 2.297 . S
Mn0 O24 2.385 1_455 S
Mn0 O25 2.209 . S
Mn0 O26 2.094 . S
Mn1 O6 2.121 . S
Mn1 N8 2.257 . S
Mn1 N17 2.282 1_455 S
Mn1 O25 2.215 . S
Mn1 O27 2.117 . S
C2 O24 1.234 . S
C2 O25 1.283 1_655 S
C3 O15 1.281 . S
C3 O16 1.236 . S
C4 O26 1.240 . S
C4 O27 1.264 . S
O5 Mn0 2.095 . S
O5 C14 1.250 . S
O6 Mn1 2.121 . S
O6 C14 1.258 . S
C7 N8 1.326 . S
C7 C11 1.460 . S
C7 H13 0.929 . S
N8 Mn1 2.257 . S
N8 C7 1.326 . S
N8 C12 1.362 1_455 S
C9 C10 1.258 . S
C9 C12 1.431 . S
C9 C29 1.449 . S
C10 C9 1.258 . S
C10 C11 1.477 1_655 S
C10 H30 0.931 . S
C11 C7 1.460 . S
C11 C10 1.477 1_455 S
C11 H31 0.930 . S
C12 N8 1.362 1_655 S
C12 C9 1.431 . S
C12 C22 1.476 . S
H13 C7 0.929 . S
C14 O5 1.250 . S
C14 O6 1.258 . S
O15 Mn0 2.162 . S
O15 C3 1.281 . S
O16 Mn0 2.297 . S
O16 C3 1.236 . S
N17 Mn1 2.282 1_655 S
N17 C18 1.328 . S
N17 C22 1.318 . S
C18 N17 1.328 . S
C18 C19 1.457 . S
C18 H23 0.929 . S
C19 C18 1.457 . S
C19 C20 1.291 . S
C19 H32 0.931 . S
C20 C19 1.291 . S
C20 C21 1.373 . S
C20 H33 0.929 . S
C21 C20 1.373 . S
C21 C22 1.396 . S
C21 C28 1.403 . S
C22 C12 1.476 . S
C22 N17 1.318 . S
C22 C21 1.396 . S
H23 C18 0.929 . S
O24 Mn0 2.385 1_655 S
O24 C2 1.234 . S
O25 Mn0 2.209 . S
O25 Mn1 2.215 . S
O25 C2 1.283 1_455 S
O26 Mn0 2.094 . S
O26 C4 1.240 . S
O27 Mn1 2.117 . S
O27 C4 1.264 . S
C28 C21 1.403 . S
C28 C29 1.399 . S
C28 H34 0.929 . S
C29 C9 1.449 . S
C29 C28 1.399 . S
C29 H35 0.930 . S
H30 C10 0.931 . S
H31 C11 0.930 . S
H32 C19 0.931 . S
H33 C20 0.929 . S
H34 C28 0.929 . S
H35 C29 0.930 . S
Mn36 O41 2.095 1_455 S
Mn36 O51 2.161 . S
Mn36 O52 2.297 . S
Mn36 O60 2.385 . S
Mn36 O61 2.209 . S
Mn36 O62 2.094 . S
Mn37 O42 2.121 1_455 S
Mn37 N44 2.257 . S
Mn37 N53 2.282 . S
Mn37 O61 2.215 . S
Mn37 O63 2.117 . S
C38 O60 1.234 . S
C38 O61 1.283 . S
C39 O51 1.288 . S
C39 O52 1.236 . S
C40 O62 1.240 . S
C40 O63 1.264 . S
O41 Mn36 2.095 1_655 S
O41 C50 1.250 . S
O42 Mn37 2.121 1_655 S
O42 C50 1.258 . S
C43 N44 1.326 . S
C43 C47 1.460 . S
C43 H49 0.929 1_455 S
N44 Mn37 2.257 . S
N44 C43 1.326 . S
N44 C48 1.362 . S
C45 C46 1.258 . S
C45 C48 1.431 . S
C45 C65 1.449 . S
C46 C45 1.258 . S
C46 C47 1.477 . S
C46 H66 0.931 . S
C47 C43 1.460 . S
C47 C46 1.477 . S
C47 H67 0.930 . S
C48 N44 1.362 . S
C48 C45 1.431 . S
C48 C58 1.476 . S
H49 C43 0.929 1_655 S
C50 O41 1.250 . S
C50 O42 1.258 . S
O51 Mn36 2.161 . S
O51 C39 1.288 . S
O52 Mn36 2.297 . S
O52 C39 1.236 . S
N53 Mn37 2.282 . S
N53 C54 1.328 . S
N53 C58 1.318 . S
C54 N53 1.328 . S
C54 C55 1.457 . S
C54 H59 0.929 . S
C55 C54 1.457 . S
C55 C56 1.291 . S
C55 H68 0.931 . S
C56 C55 1.291 . S
C56 C57 1.373 . S
C56 H69 0.929 . S
C57 C56 1.373 . S
C57 C58 1.396 . S
C57 C64 1.403 . S
C58 C48 1.476 . S
C58 N53 1.318 . S
C58 C57 1.396 . S
H59 C54 0.929 . S
O60 Mn36 2.385 . S
O60 C38 1.234 . S
O61 Mn36 2.209 . S
O61 Mn37 2.215 . S
O61 C38 1.283 . S
O62 Mn36 2.094 . S
O62 C40 1.240 . S
O63 Mn37 2.117 . S
O63 C40 1.264 . S
C64 C57 1.403 . S
C64 C65 1.399 . S
C64 H70 0.929 . S
C65 C45 1.449 . S
C65 C64 1.399 . S
C65 H71 0.930 . S
H66 C46 0.931 . S
H67 C47 0.930 . S
H68 C55 0.931 . S
H69 C56 0.929 . S
H70 C64 0.929 . S
H71 C65 0.930 . S
Mn72 O77 2.095 . S
Mn72 O87 2.162 . S
Mn72 O88 2.297 . S
Mn72 O96 2.385 . S
Mn72 O97 2.209 . S
Mn72 O98 2.094 . S
Mn73 O78 2.121 . S
Mn73 N80 2.257 . S
Mn73 N89 2.282 . S
Mn73 O97 2.215 . S
Mn73 O99 2.117 . S
C74 O96 1.234 . S
C74 O97 1.283 . S
C75 O87 1.281 . S
C75 O88 1.236 . S
C76 O98 1.240 . S
C76 O99 1.264 . S
O77 Mn72 2.095 . S
O77 C86 1.250 . S
O78 Mn73 2.121 . S
O78 C86 1.258 . S
C79 N80 1.326 . S
C79 C83 1.460 . S
C79 H85 0.929 . S
N80 Mn73 2.257 . S
N80 C79 1.326 . S
N80 C84 1.362 . S
C81 C82 1.258 . S
C81 C84 1.431 . S
C81 C101 1.449 . S
C82 C81 1.258 . S
C82 C83 1.477 . S
C82 H102 0.931 . S
C83 C79 1.460 . S
C83 C82 1.477 . S
C83 H103 0.930 . S
C84 N80 1.362 . S
C84 C81 1.431 . S
C84 C94 1.476 . S
H85 C79 0.929 . S
C86 O77 1.250 . S
C86 O78 1.258 . S
O87 Mn72 2.162 . S
O87 C75 1.281 . S
O88 Mn72 2.297 . S
O88 C75 1.236 . S
N89 Mn73 2.282 . S
N89 C90 1.328 . S
N89 C94 1.318 . S
C90 N89 1.328 . S
C90 C91 1.457 . S
C90 H95 0.929 . S
C91 C90 1.457 . S
C91 C92 1.291 . S
C91 H104 0.931 . S
C92 C91 1.291 . S
C92 C93 1.373 . S
C92 H105 0.929 . S
C93 C92 1.373 . S
C93 C94 1.396 . S
C93 C100 1.403 . S
C94 C84 1.476 . S
C94 N89 1.318 . S
C94 C93 1.396 . S
H95 C90 0.929 . S
O96 Mn72 2.385 . S
O96 C74 1.234 . S
O97 Mn72 2.209 . S
O97 Mn73 2.215 . S
O97 C74 1.283 . S
O98 Mn72 2.094 . S
O98 C76 1.240 . S
O99 Mn73 2.117 . S
O99 C76 1.264 . S
C100 C93 1.403 . S
C100 C101 1.399 . S
C100 H106 0.929 . S
C101 C81 1.449 . S
C101 C100 1.399 . S
C101 H107 0.930 . S
H102 C82 0.931 . S
H103 C83 0.930 . S
H104 C91 0.931 . S
H105 C92 0.929 . S
H106 C100 0.929 . S
H107 C101 0.930 . S
Mn108 O113 2.095 . S
Mn108 O123 2.162 . S
Mn108 O124 2.297 . S
Mn108 O132 2.385 . S
Mn108 O133 2.209 . S
Mn108 O134 2.094 . S
Mn109 O114 2.121 . S
Mn109 N116 2.257 . S
Mn109 N125 2.282 . S
Mn109 O133 2.215 . S
Mn109 O135 2.117 . S
C110 O132 1.234 . S
C110 O133 1.283 . S
C111 O123 1.281 . S
C111 O124 1.236 . S
C112 O134 1.240 . S
C112 O135 1.264 . S
O113 Mn108 2.095 . S
O113 C122 1.250 . S
O114 Mn109 2.121 . S
O114 C122 1.258 . S
C115 N116 1.326 . S
C115 C119 1.460 . S
C115 H121 0.929 . S
N116 Mn109 2.257 . S
N116 C115 1.326 . S
N116 C120 1.362 . S
C117 C118 1.258 . S
C117 C120 1.431 . S
C117 C137 1.449 . S
C118 C117 1.258 . S
C118 C119 1.477 . S
C118 H138 0.931 . S
C119 C115 1.460 . S
C119 C118 1.477 . S
C119 H139 0.930 . S
C120 N116 1.362 . S
C120 C117 1.431 . S
C120 C130 1.476 . S
H121 C115 0.929 . S
C122 O113 1.250 . S
C122 O114 1.258 . S
O123 Mn108 2.162 . S
O123 C111 1.281 . S
O124 Mn108 2.297 . S
O124 C111 1.236 . S
N125 Mn109 2.282 . S
N125 C126 1.328 . S
N125 C130 1.318 . S
C126 N125 1.328 . S
C126 C127 1.457 . S
C126 H131 0.929 . S
C127 C126 1.457 . S
C127 C128 1.291 . S
C127 H140 0.931 . S
C128 C127 1.291 . S
C128 C129 1.373 . S
C128 H141 0.929 . S
C129 C128 1.373 . S
C129 C130 1.396 . S
C129 C136 1.403 . S
C130 C120 1.476 . S
C130 N125 1.318 . S
C130 C129 1.396 . S
H131 C126 0.929 . S
O132 Mn108 2.385 . S
O132 C110 1.234 . S
O133 Mn108 2.209 . S
O133 Mn109 2.215 . S
O133 C110 1.283 . S
O134 Mn108 2.094 . S
O134 C112 1.240 . S
O135 Mn109 2.117 . S
O135 C112 1.264 . S
C136 C129 1.403 . S
C136 C137 1.399 . S
C136 H142 0.929 . S
C137 C117 1.449 . S
C137 C136 1.399 . S
C137 H143 0.930 . S
H138 C118 0.931 . S
H139 C119 0.930 . S
H140 C127 0.931 . S
H141 C128 0.929 . S
H142 C136 0.929 . S
H143 C137 0.930 . S
Mn144 O149 2.095 . S
Mn144 O159 2.162 . S
Mn144 O160 2.297 . S
Mn144 O168 2.385 . S
Mn144 O169 2.209 . S
Mn144 O170 2.094 . S
Mn145 O150 2.121 1_655 S
Mn145 N152 2.257 . S
Mn145 N161 2.282 . S
Mn145 O169 2.215 1_655 S
Mn145 O171 2.117 . S
C146 O168 1.234 . S
C146 O169 1.283 . S
C147 O159 1.281 . S
C147 O160 1.236 . S
C148 O170 1.240 1_655 S
C148 O171 1.264 . S
O149 Mn144 2.095 . S
O149 C158 1.250 . S
O150 Mn145 2.121 1_455 S
O150 C158 1.258 . S
C151 N152 1.326 1_455 S
C151 C155 1.459 . S
C151 H157 0.929 . S
N152 Mn145 2.257 . S
N152 C151 1.326 1_655 S
N152 C156 1.362 . S
C153 C154 1.258 . S
C153 C156 1.431 . S
C153 C173 1.449 . S
C154 C153 1.258 . S
C154 C155 1.475 1_655 S
C154 H174 0.931 . S
C155 C151 1.459 . S
C155 C154 1.475 1_455 S
C155 H175 0.932 . S
C156 N152 1.362 . S
C156 C153 1.431 . S
C156 C166 1.476 . S
H157 C151 0.929 . S
C158 O149 1.250 . S
C158 O150 1.258 . S
O159 Mn144 2.162 . S
O159 C147 1.281 . S
O160 Mn144 2.297 . S
O160 C147 1.236 . S
N161 Mn145 2.282 . S
N161 C162 1.328 . S
N161 C166 1.318 . S
C162 N161 1.328 . S
C162 C163 1.457 . S
C162 H167 0.929 . S
C163 C162 1.457 . S
C163 C164 1.291 . S
C163 H176 0.931 . S
C164 C163 1.291 . S
C164 C165 1.373 . S
C164 H177 0.929 . S
C165 C164 1.373 . S
C165 C166 1.396 . S
C165 C172 1.403 . S
C166 C156 1.476 . S
C166 N161 1.318 . S
C166 C165 1.396 . S
H167 C162 0.929 . S
O168 Mn144 2.385 . S
O168 C146 1.234 . S
O169 Mn144 2.209 . S
O169 Mn145 2.215 1_455 S
O169 C146 1.283 . S
O170 Mn144 2.094 . S
O170 C148 1.240 1_455 S
O171 Mn145 2.117 . S
O171 C148 1.264 . S
C172 C165 1.403 . S
C172 C173 1.399 . S
C172 H178 0.929 . S
C173 C153 1.449 . S
C173 C172 1.399 . S
C173 H179 0.930 . S
H174 C154 0.931 . S
H175 C155 0.932 . S
H176 C163 0.931 . S
H177 C164 0.929 . S
H178 C172 0.929 . S
H179 C173 0.930 . S
Mn180 O185 2.095 . S
Mn180 O195 2.162 . S
Mn180 O196 2.297 . S
Mn180 O204 2.385 . S
Mn180 O205 2.209 . S
Mn180 O206 2.094 . S
Mn181 O186 2.121 . S
Mn181 N188 2.257 . S
Mn181 N197 2.282 . S
Mn181 O205 2.215 . S
Mn181 O207 2.117 . S
C182 O204 1.234 . S
C182 O205 1.283 . S
C183 O195 1.281 . S
C183 O196 1.236 . S
C184 O206 1.240 . S
C184 O207 1.264 . S
O185 Mn180 2.095 . S
O185 C194 1.250 . S
O186 Mn181 2.121 . S
O186 C194 1.258 . S
C187 N188 1.326 . S
C187 C191 1.460 . S
C187 H193 0.929 . S
N188 Mn181 2.257 . S
N188 C187 1.326 . S
N188 C192 1.362 . S
C189 C190 1.258 . S
C189 C192 1.431 . S
C189 C209 1.449 . S
C190 C189 1.258 . S
C190 C191 1.477 . S
C190 H210 0.931 . S
C191 C187 1.460 . S
C191 C190 1.477 . S
C191 H211 0.930 . S
C192 N188 1.362 . S
C192 C189 1.431 . S
C192 C202 1.476 . S
H193 C187 0.929 . S
C194 O185 1.250 . S
C194 O186 1.258 . S
O195 Mn180 2.162 . S
O195 C183 1.281 . S
O196 Mn180 2.297 . S
O196 C183 1.236 . S
N197 Mn181 2.282 . S
N197 C198 1.328 . S
N197 C202 1.318 . S
C198 N197 1.328 . S
C198 C199 1.457 . S
C198 H203 0.929 . S
C199 C198 1.457 . S
C199 C200 1.291 . S
C199 H212 0.931 . S
C200 C199 1.291 . S
C200 C201 1.373 . S
C200 H213 0.929 . S
C201 C200 1.373 . S
C201 C202 1.396 . S
C201 C208 1.403 . S
C202 C192 1.476 . S
C202 N197 1.318 . S
C202 C201 1.396 . S
H203 C198 0.929 . S
O204 Mn180 2.385 . S
O204 C182 1.234 . S
O205 Mn180 2.209 . S
O205 Mn181 2.215 . S
O205 C182 1.283 . S
O206 Mn180 2.094 . S
O206 C184 1.240 . S
O207 Mn181 2.117 . S
O207 C184 1.264 . S
C208 C201 1.403 . S
C208 C209 1.399 . S
C208 H214 0.929 . S
C209 C189 1.449 . S
C209 C208 1.399 . S
C209 H215 0.930 . S
H210 C190 0.931 . S
H211 C191 0.930 . S
H212 C199 0.931 . S
H213 C200 0.929 . S
H214 C208 0.929 . S
H215 C209 0.930 . S
Mn216 O221 2.095 . S
Mn216 O231 2.162 . S
Mn216 O232 2.297 . S
Mn216 O240 2.385 . S
Mn216 O241 2.209 . S
Mn216 O242 2.094 . S
Mn217 O222 2.121 . S
Mn217 N224 2.257 . S
Mn217 N233 2.282 . S
Mn217 O241 2.215 . S
Mn217 O243 2.117 . S
C218 O240 1.234 . S
C218 O241 1.283 . S
C219 O231 1.281 . S
C219 O232 1.236 . S
C220 O242 1.240 . S
C220 O243 1.264 . S
O221 Mn216 2.095 . S
O221 C230 1.250 . S
O222 Mn217 2.121 . S
O222 C230 1.258 . S
C223 N224 1.326 . S
C223 C227 1.460 . S
C223 H229 0.929 . S
N224 Mn217 2.257 . S
N224 C223 1.326 . S
N224 C228 1.362 . S
C225 C226 1.258 . S
C225 C228 1.431 . S
C225 C245 1.449 . S
C226 C225 1.258 . S
C226 C227 1.477 . S
C226 H246 0.931 . S
C227 C223 1.460 . S
C227 C226 1.477 . S
C227 H247 0.930 . S
C228 N224 1.362 . S
C228 C225 1.431 . S
C228 C238 1.476 . S
H229 C223 0.929 . S
C230 O221 1.250 . S
C230 O222 1.258 . S
O231 Mn216 2.162 . S
O231 C219 1.281 . S
O232 Mn216 2.297 . S
O232 C219 1.236 . S
N233 Mn217 2.282 . S
N233 C234 1.328 . S
N233 C238 1.318 . S
C234 N233 1.328 . S
C234 C235 1.457 . S
C234 H239 0.929 . S
C235 C234 1.457 . S
C235 C236 1.291 . S
C235 H248 0.931 . S
C236 C235 1.291 . S
C236 C237 1.373 . S
C236 H249 0.929 . S
C237 C236 1.373 . S
C237 C238 1.396 . S
C237 C244 1.403 . S
C238 C228 1.476 . S
C238 N233 1.318 . S
C238 C237 1.396 . S
H239 C234 0.929 . S
O240 Mn216 2.385 . S
O240 C218 1.234 . S
O241 Mn216 2.209 . S
O241 Mn217 2.215 . S
O241 C218 1.283 . S
O242 Mn216 2.094 . S
O242 C220 1.240 . S
O243 Mn217 2.117 . S
O243 C220 1.264 . S
C244 C237 1.403 . S
C244 C245 1.399 . S
C244 H250 0.929 . S
C245 C225 1.449 . S
C245 C244 1.399 . S
C245 H251 0.930 . S
H246 C226 0.931 . S
H247 C227 0.930 . S
H248 C235 0.931 . S
H249 C236 0.929 . S
H250 C244 0.929 . S
H251 C245 0.930 . S
Mn252 O257 2.094 . S
Mn252 O267 2.161 . S
Mn252 O268 2.297 1_455 S
Mn252 O276 2.386 1_455 S
Mn252 O277 2.209 1_455 S
Mn252 O278 2.094 . S
Mn253 O258 2.111 1_655 S
Mn253 N260 2.259 . S
Mn253 N269 2.293 . S
Mn253 O277 2.219 . S
Mn253 O279 2.118 1_655 S
C254 O276 1.234 . S
C254 O277 1.283 . S
C255 O267 1.281 1_655 S
C255 O268 1.236 . S
C256 O278 1.240 . S
C256 O279 1.264 . S
O257 Mn252 2.094 . S
O257 C266 1.250 . S
O258 Mn253 2.111 1_455 S
O258 C266 1.258 . S
C259 N260 1.346 . S
C259 C263 1.467 . S
C259 H265 0.903 1_655 S
N260 Mn253 2.259 . S
N260 C259 1.346 . S
N260 C264 1.362 . S
C261 C262 1.258 . S
C261 C264 1.431 . S
C261 C281 1.449 . S
C262 C261 1.258 . S
C262 C263 1.477 . S
C262 H282 0.931 . S
C263 C259 1.467 . S
C263 C262 1.477 . S
C263 H283 0.930 . S
C264 N260 1.362 . S
C264 C261 1.431 . S
C264 C274 1.476 . S
H265 C259 0.903 1_455 S
C266 O257 1.250 . S
C266 O258 1.258 . S
O267 Mn252 2.161 . S
O267 C255 1.281 1_455 S
O268 Mn252 2.297 1_655 S
O268 C255 1.236 . S
N269 Mn253 2.293 . S
N269 C270 1.328 . S
N269 C274 1.318 . S
C270 N269 1.328 . S
C270 C271 1.457 . S
C270 H275 0.929 . S
C271 C270 1.457 . S
C271 C272 1.291 . S
C271 H284 0.931 . S
C272 C271 1.291 . S
C272 C273 1.373 . S
C272 H285 0.929 . S
C273 C272 1.373 . S
C273 C274 1.396 . S
C273 C280 1.403 . S
C274 C264 1.476 . S
C274 N269 1.318 . S
C274 C273 1.396 . S
H275 C270 0.929 . S
O276 Mn252 2.386 1_655 S
O276 C254 1.234 . S
O277 Mn252 2.209 1_655 S
O277 Mn253 2.219 . S
O277 C254 1.283 . S
O278 Mn252 2.094 . S
O278 C256 1.240 . S
O279 Mn253 2.118 1_455 S
O279 C256 1.264 . S
C280 C273 1.403 . S
C280 C281 1.399 . S
C280 H286 0.929 . S
C281 C261 1.449 . S
C281 C280 1.399 . S
C281 H287 0.930 . S
H282 C262 0.931 . S
H283 C263 0.930 . S
H284 C271 0.931 . S
H285 C272 0.929 . S
H286 C280 0.929 . S
H287 C281 0.930 . S
Mn288 O293 2.095 . S
Mn288 O303 2.162 . S
Mn288 O304 2.297 . S
Mn288 O312 2.385 1_545 S
Mn288 O313 2.209 . S
Mn288 O314 2.094 . S
Mn289 O294 2.121 . S
Mn289 N296 2.257 . S
Mn289 N305 2.282 1_545 S
Mn289 O313 2.215 . S
Mn289 O315 2.117 . S
C290 O312 1.234 . S
C290 O313 1.283 1_565 S
C291 O303 1.281 . S
C291 O304 1.236 . S
C292 O314 1.240 . S
C292 O315 1.264 . S
O293 Mn288 2.095 . S
O293 C302 1.250 . S
O294 Mn289 2.121 . S
O294 C302 1.258 . S
C295 N296 1.326 . S
C295 C299 1.460 . S
C295 H301 0.929 . S
N296 Mn289 2.257 . S
N296 C295 1.326 . S
N296 C300 1.362 1_545 S
C297 C298 1.258 . S
C297 C300 1.431 . S
C297 C317 1.449 . S
C298 C297 1.258 . S
C298 C299 1.477 1_565 S
C298 H318 0.931 . S
C299 C295 1.460 . S
C299 C298 1.477 1_545 S
C299 H319 0.930 . S
C300 N296 1.362 1_565 S
C300 C297 1.431 . S
C300 C310 1.476 . S
H301 C295 0.929 . S
C302 O293 1.250 . S
C302 O294 1.258 . S
O303 Mn288 2.162 . S
O303 C291 1.281 . S
O304 Mn288 2.297 . S
O304 C291 1.236 . S
N305 Mn289 2.282 1_565 S
N305 C306 1.328 . S
N305 C310 1.318 . S
C306 N305 1.328 . S
C306 C307 1.457 . S
C306 H311 0.929 . S
C307 C306 1.457 . S
C307 C308 1.291 . S
C307 H320 0.931 . S
C308 C307 1.291 . S
C308 C309 1.373 . S
C308 H321 0.929 . S
C309 C308 1.373 . S
C309 C310 1.396 . S
C309 C316 1.403 . S
C310 C300 1.476 . S
C310 N305 1.318 . S
C310 C309 1.396 . S
H311 C306 0.929 . S
O312 Mn288 2.385 1_565 S
O312 C290 1.234 . S
O313 Mn288 2.209 . S
O313 Mn289 2.215 . S
O313 C290 1.283 1_545 S
O314 Mn288 2.094 . S
O314 C292 1.240 . S
O315 Mn289 2.117 . S
O315 C292 1.264 . S
C316 C309 1.403 . S
C316 C317 1.399 . S
C316 H322 0.929 . S
C317 C297 1.449 . S
C317 C316 1.399 . S
C317 H323 0.930 . S
H318 C298 0.931 . S
H319 C299 0.930 . S
H320 C307 0.931 . S
H321 C308 0.929 . S
H322 C316 0.929 . S
H323 C317 0.930 . S
Mn324 O329 2.095 . S
Mn324 O339 2.162 . S
Mn324 O340 2.297 . S
Mn324 O348 2.385 . S
Mn324 O349 2.209 . S
Mn324 O350 2.094 . S
Mn325 O330 2.121 . S
Mn325 N332 2.257 . S
Mn325 N341 2.282 . S
Mn325 O349 2.215 . S
Mn325 O351 2.117 . S
C326 O348 1.234 . S
C326 O349 1.283 . S
C327 O339 1.281 . S
C327 O340 1.236 . S
C328 O350 1.240 . S
C328 O351 1.264 . S
O329 Mn324 2.095 . S
O329 C338 1.250 . S
O330 Mn325 2.121 . S
O330 C338 1.258 . S
C331 N332 1.326 . S
C331 C335 1.460 . S
C331 H337 0.929 . S
N332 Mn325 2.257 . S
N332 C331 1.326 . S
N332 C336 1.362 . S
C333 C334 1.258 . S
C333 C336 1.431 . S
C333 C353 1.449 . S
C334 C333 1.258 . S
C334 C335 1.477 . S
C334 H354 0.931 . S
C335 C331 1.460 . S
C335 C334 1.477 . S
C335 H355 0.930 . S
C336 N332 1.362 . S
C336 C333 1.431 . S
C336 C346 1.476 . S
H337 C331 0.929 . S
C338 O329 1.250 . S
C338 O330 1.258 . S
O339 Mn324 2.162 . S
O339 C327 1.281 . S
O340 Mn324 2.297 . S
O340 C327 1.236 . S
N341 Mn325 2.282 . S
N341 C342 1.328 . S
N341 C346 1.318 . S
C342 N341 1.328 . S
C342 C343 1.457 . S
C342 H347 0.929 . S
C343 C342 1.457 . S
C343 C344 1.291 . S
C343 H356 0.931 . S
C344 C343 1.291 . S
C344 C345 1.373 . S
C344 H357 0.929 . S
C345 C344 1.373 . S
C345 C346 1.396 . S
C345 C352 1.403 . S
C346 C336 1.476 . S
C346 N341 1.318 . S
C346 C345 1.396 . S
H347 C342 0.929 . S
O348 Mn324 2.385 . S
O348 C326 1.234 . S
O349 Mn324 2.209 . S
O349 Mn325 2.215 . S
O349 C326 1.283 . S
O350 Mn324 2.094 . S
O350 C328 1.240 . S
O351 Mn325 2.117 . S
O351 C328 1.264 . S
C352 C345 1.403 . S
C352 C353 1.399 . S
C352 H358 0.929 . S
C353 C333 1.449 . S
C353 C352 1.399 . S
C353 H359 0.930 . S
H354 C334 0.931 . S
H355 C335 0.930 . S
H356 C343 0.931 . S
H357 C344 0.929 . S
H358 C352 0.929 . S
H359 C353 0.930 . S
Mn360 O365 2.095 1_545 S
Mn360 O375 2.162 1_545 S
Mn360 O376 2.297 . S
Mn360 O384 2.385 . S
Mn360 O385 2.209 . S
Mn360 O386 2.094 . S
Mn361 O366 2.121 1_545 S
Mn361 N368 2.257 . S
Mn361 N377 2.282 . S
Mn361 O385 2.215 . S
Mn361 O387 2.117 . S
C362 O384 1.234 . S
C362 O385 1.283 . S
C363 O375 1.284 . S
C363 O376 1.237 1_565 S
C364 O386 1.240 . S
C364 O387 1.264 . S
O365 Mn360 2.095 1_565 S
O365 C374 1.250 . S
O366 Mn361 2.121 1_565 S
O366 C374 1.258 . S
C367 N368 1.326 . S
C367 C371 1.460 . S
C367 H373 0.929 1_545 S
N368 Mn361 2.257 . S
N368 C367 1.326 . S
N368 C372 1.362 . S
C369 C370 1.258 . S
C369 C372 1.431 . S
C369 C389 1.449 . S
C370 C369 1.258 . S
C370 C371 1.477 . S
C370 H390 0.931 . S
C371 C367 1.460 . S
C371 C370 1.477 . S
C371 H391 0.930 . S
C372 N368 1.362 . S
C372 C369 1.431 . S
C372 C382 1.476 . S
H373 C367 0.929 1_565 S
C374 O365 1.250 . S
C374 O366 1.258 . S
O375 Mn360 2.162 1_565 S
O375 C363 1.284 . S
O376 Mn360 2.297 . S
O376 C363 1.237 1_545 S
N377 Mn361 2.282 . S
N377 C378 1.328 . S
N377 C382 1.318 . S
C378 N377 1.328 . S
C378 C379 1.457 . S
C378 H383 0.929 . S
C379 C378 1.457 . S
C379 C380 1.291 . S
C379 H392 0.931 . S
C380 C379 1.291 . S
C380 C381 1.373 . S
C380 H393 0.929 . S
C381 C380 1.373 . S
C381 C382 1.396 . S
C381 C388 1.403 . S
C382 C372 1.476 . S
C382 N377 1.318 . S
C382 C381 1.396 . S
H383 C378 0.929 . S
O384 Mn360 2.385 . S
O384 C362 1.234 . S
O385 Mn360 2.209 . S
O385 Mn361 2.215 . S
O385 C362 1.283 . S
O386 Mn360 2.094 . S
O386 C364 1.240 . S
O387 Mn361 2.117 . S
O387 C364 1.264 . S
C388 C381 1.403 . S
C388 C389 1.399 . S
C388 H394 0.929 . S
C389 C369 1.449 . S
C389 C388 1.399 . S
C389 H395 0.930 . S
H390 C370 0.931 . S
H391 C371 0.930 . S
H392 C379 0.931 . S
H393 C380 0.929 . S
H394 C388 0.929 . S
H395 C389 0.930 . S
Mn396 O401 2.095 . S
Mn396 O411 2.162 . S
Mn396 O412 2.297 . S
Mn396 O420 2.385 . S
Mn396 O421 2.209 . S
Mn396 O422 2.094 1_554 S
Mn397 O402 2.121 1_556 S
Mn397 N404 2.257 . S
Mn397 N413 2.282 . S
Mn397 O421 2.215 1_556 S
Mn397 O423 2.117 . S
C398 O420 1.234 . S
C398 O421 1.283 . S
C399 O411 1.281 . S
C399 O412 1.236 . S
C400 O422 1.240 . S
C400 O423 1.264 . S
O401 Mn396 2.095 . S
O401 C410 1.250 . S
O402 Mn397 2.121 1_554 S
O402 C410 1.258 . S
C403 N404 1.326 1_554 S
C403 C407 1.460 . S
C403 H409 0.929 . S
N404 Mn397 2.257 . S
N404 C403 1.326 1_556 S
N404 C408 1.362 . S
C405 C406 1.258 . S
C405 C408 1.431 . S
C405 C425 1.449 . S
C406 C405 1.258 . S
C406 C407 1.477 1_556 S
C406 H426 0.931 . S
C407 C403 1.460 . S
C407 C406 1.477 1_554 S
C407 H427 0.930 . S
C408 N404 1.362 . S
C408 C405 1.431 . S
C408 C418 1.476 . S
H409 C403 0.929 . S
C410 O401 1.250 . S
C410 O402 1.258 . S
O411 Mn396 2.162 . S
O411 C399 1.281 . S
O412 Mn396 2.297 . S
O412 C399 1.236 . S
N413 Mn397 2.282 . S
N413 C414 1.328 . S
N413 C418 1.318 . S
C414 N413 1.328 . S
C414 C415 1.457 . S
C414 H419 0.929 . S
C415 C414 1.457 . S
C415 C416 1.291 . S
C415 H428 0.931 . S
C416 C415 1.291 . S
C416 C417 1.373 . S
C416 H429 0.929 . S
C417 C416 1.373 . S
C417 C418 1.396 . S
C417 C424 1.403 . S
C418 C408 1.476 . S
C418 N413 1.318 . S
C418 C417 1.396 . S
H419 C414 0.929 . S
O420 Mn396 2.385 . S
O420 C398 1.234 . S
O421 Mn396 2.209 . S
O421 Mn397 2.215 1_554 S
O421 C398 1.283 . S
O422 Mn396 2.094 1_556 S
O422 C400 1.240 . S
O423 Mn397 2.117 . S
O423 C400 1.264 . S
C424 C417 1.403 . S
C424 C425 1.399 . S
C424 H430 0.929 . S
C425 C405 1.449 . S
C425 C424 1.399 . S
C425 H431 0.930 . S
H426 C406 0.931 . S
H427 C407 0.930 . S
H428 C415 0.931 . S
H429 C416 0.929 . S
H430 C424 0.929 . S
H431 C425 0.930 . S
Mn432 O437 2.095 . S
Mn432 O447 2.162 . S
Mn432 O448 2.297 . S
Mn432 O456 2.385 . S
Mn432 O457 2.209 . S
Mn432 O458 2.094 . S
Mn433 O438 2.121 . S
Mn433 N440 2.257 . S
Mn433 N449 2.282 1_554 S
Mn433 O457 2.215 . S
Mn433 O459 2.117 1_554 S
C434 O456 1.234 . S
C434 O457 1.283 . S
C435 O447 1.281 . S
C435 O448 1.236 . S
C436 O458 1.240 1_556 S
C436 O459 1.264 . S
O437 Mn432 2.095 . S
O437 C446 1.250 . S
O438 Mn433 2.121 . S
O438 C446 1.258 . S
C439 N440 1.326 . S
C439 C443 1.460 . S
C439 H445 0.929 . S
N440 Mn433 2.257 . S
N440 C439 1.326 . S
N440 C444 1.362 . S
C441 C442 1.258 . S
C441 C444 1.431 . S
C441 C461 1.463 . S
C442 C441 1.258 . S
C442 C443 1.477 . S
C442 H462 0.931 . S
C443 C439 1.460 . S
C443 C442 1.477 . S
C443 H463 0.930 . S
C444 N440 1.362 . S
C444 C441 1.431 . S
C444 C454 1.476 1_554 S
H445 C439 0.929 . S
C446 O437 1.250 . S
C446 O438 1.258 . S
O447 Mn432 2.162 . S
O447 C435 1.281 . S
O448 Mn432 2.297 . S
O448 C435 1.236 . S
N449 Mn433 2.282 1_556 S
N449 C450 1.328 . S
N449 C454 1.318 . S
C450 N449 1.328 . S
C450 C451 1.457 . S
C450 H455 0.929 . S
C451 C450 1.457 . S
C451 C452 1.291 . S
C451 H464 0.931 . S
C452 C451 1.291 . S
C452 C453 1.373 . S
C452 H465 0.929 . S
C453 C452 1.373 . S
C453 C454 1.396 . S
C453 C460 1.403 . S
C454 C444 1.476 1_556 S
C454 N449 1.318 . S
C454 C453 1.396 . S
H455 C450 0.929 . S
O456 Mn432 2.385 . S
O456 C434 1.234 . S
O457 Mn432 2.209 . S
O457 Mn433 2.215 . S
O457 C434 1.283 . S
O458 Mn432 2.094 . S
O458 C436 1.240 1_554 S
O459 Mn433 2.117 1_556 S
O459 C436 1.264 . S
C460 C453 1.403 . S
C460 C461 1.388 1_556 S
C460 H466 0.929 . S
C461 C441 1.463 . S
C461 C460 1.388 1_554 S
C461 H467 0.929 . S
H462 C442 0.931 . S
H463 C443 0.930 . S
H464 C451 0.931 . S
H465 C452 0.929 . S
H466 C460 0.929 . S
H467 C461 0.929 . S
Mn468 O473 2.095 . S
Mn468 O483 2.162 . S
Mn468 O484 2.297 . S
Mn468 O492 2.385 . S
Mn468 O493 2.209 . S
Mn468 O494 2.094 1_554 S
Mn469 O474 2.121 1_556 S
Mn469 N476 2.257 . S
Mn469 N485 2.282 . S
Mn469 O493 2.215 1_556 S
Mn469 O495 2.117 . S
C470 O492 1.234 . S
C470 O493 1.283 . S
C471 O483 1.281 . S
C471 O484 1.236 . S
C472 O494 1.240 . S
C472 O495 1.264 . S
O473 Mn468 2.095 . S
O473 C482 1.250 . S
O474 Mn469 2.121 1_554 S
O474 C482 1.258 . S
C475 N476 1.326 . S
C475 C479 1.460 . S
C475 H481 0.929 1_556 S
N476 Mn469 2.257 . S
N476 C475 1.326 . S
N476 C480 1.362 . S
C477 C478 1.258 . S
C477 C480 1.431 . S
C477 C497 1.449 . S
C478 C477 1.258 . S
C478 C479 1.477 . S
C478 H498 0.931 . S
C479 C475 1.460 . S
C479 C478 1.477 . S
C479 H499 0.930 1_556 S
C480 N476 1.362 . S
C480 C477 1.431 . S
C480 C490 1.476 . S
H481 C475 0.929 1_554 S
C482 O473 1.250 . S
C482 O474 1.258 . S
O483 Mn468 2.162 . S
O483 C471 1.281 . S
O484 Mn468 2.297 . S
O484 C471 1.236 . S
N485 Mn469 2.282 . S
N485 C486 1.328 . S
N485 C490 1.318 . S
C486 N485 1.328 . S
C486 C487 1.457 . S
C486 H491 0.929 . S
C487 C486 1.457 . S
C487 C488 1.291 . S
C487 H500 0.931 . S
C488 C487 1.291 . S
C488 C489 1.373 . S
C488 H501 0.929 . S
C489 C488 1.373 . S
C489 C490 1.396 . S
C489 C496 1.403 . S
C490 C480 1.476 . S
C490 N485 1.318 . S
C490 C489 1.396 . S
H491 C486 0.929 . S
O492 Mn468 2.385 . S
O492 C470 1.234 . S
O493 Mn468 2.209 . S
O493 Mn469 2.215 1_554 S
O493 C470 1.283 . S
O494 Mn468 2.094 1_556 S
O494 C472 1.240 . S
O495 Mn469 2.117 . S
O495 C472 1.264 . S
C496 C489 1.403 . S
C496 C497 1.399 . S
C496 H502 0.929 . S
C497 C477 1.449 . S
C497 C496 1.399 . S
C497 H503 0.930 . S
H498 C478 0.931 . S
H499 C479 0.930 1_554 S
H500 C487 0.931 . S
H501 C488 0.929 . S
H502 C496 0.929 . S
H503 C497 0.930 . S
Mn504 O509 2.095 . S
Mn504 O519 2.162 . S
Mn504 O520 2.297 . S
Mn504 O528 2.385 . S
Mn504 O529 2.209 . S
Mn504 O530 2.094 . S
Mn505 O510 2.121 . S
Mn505 N512 2.257 . S
Mn505 N521 2.282 . S
Mn505 O529 2.215 . S
Mn505 O531 2.117 . S
C506 O528 1.234 . S
C506 O529 1.283 . S
C507 O519 1.281 . S
C507 O520 1.236 . S
C508 O530 1.240 . S
C508 O531 1.264 . S
O509 Mn504 2.095 . S
O509 C518 1.250 . S
O510 Mn505 2.121 . S
O510 C518 1.258 . S
C511 N512 1.326 . S
C511 C515 1.460 . S
C511 H517 0.929 . S
N512 Mn505 2.257 . S
N512 C511 1.326 . S
N512 C516 1.362 . S
C513 C514 1.258 . S
C513 C516 1.431 . S
C513 C533 1.449 . S
C514 C513 1.258 . S
C514 C515 1.477 . S
C514 H534 0.931 . S
C515 C511 1.460 . S
C515 C514 1.477 . S
C515 H535 0.930 . S
C516 N512 1.362 . S
C516 C513 1.431 . S
C516 C526 1.476 . S
H517 C511 0.929 . S
C518 O509 1.250 . S
C518 O510 1.258 . S
O519 Mn504 2.162 . S
O519 C507 1.281 . S
O520 Mn504 2.297 . S
O520 C507 1.236 . S
N521 Mn505 2.282 . S
N521 C522 1.328 . S
N521 C526 1.318 . S
C522 N521 1.328 . S
C522 C523 1.457 . S
C522 H527 0.929 . S
C523 C522 1.457 . S
C523 C524 1.291 . S
C523 H536 0.931 . S
C524 C523 1.291 . S
C524 C525 1.373 . S
C524 H537 0.929 . S
C525 C524 1.373 . S
C525 C526 1.396 . S
C525 C532 1.403 . S
C526 C516 1.476 . S
C526 N521 1.318 . S
C526 C525 1.396 . S
H527 C522 0.929 . S
O528 Mn504 2.385 . S
O528 C506 1.234 . S
O529 Mn504 2.209 . S
O529 Mn505 2.215 . S
O529 C506 1.283 . S
O530 Mn504 2.094 . S
O530 C508 1.240 . S
O531 Mn505 2.117 . S
O531 C508 1.264 . S
C532 C525 1.403 . S
C532 C533 1.399 . S
C532 H538 0.929 . S
C533 C513 1.449 . S
C533 C532 1.399 . S
C533 H539 0.930 . S
H534 C514 0.931 . S
H535 C515 0.930 . S
H536 C523 0.931 . S
H537 C524 0.929 . S
H538 C532 0.929 . S
H539 C533 0.930 . S
Mn540 O545 2.095 . S
Mn540 O555 2.162 . S
Mn540 O556 2.297 . S
Mn540 O564 2.385 . S
Mn540 O565 2.209 . S
Mn540 O566 2.094 . S
Mn541 O546 2.121 . S
Mn541 N548 2.257 . S
Mn541 N557 2.282 . S
Mn541 O565 2.215 . S
Mn541 O567 2.117 . S
C542 O564 1.234 . S
C542 O565 1.283 . S
C543 O555 1.281 . S
C543 O556 1.236 . S
C544 O566 1.240 . S
C544 O567 1.264 . S
O545 Mn540 2.095 . S
O545 C554 1.250 . S
O546 Mn541 2.121 . S
O546 C554 1.258 . S
C547 N548 1.326 . S
C547 C551 1.460 . S
C547 H553 0.929 . S
N548 Mn541 2.257 . S
N548 C547 1.326 . S
N548 C552 1.362 . S
C549 C550 1.258 . S
C549 C552 1.431 . S
C549 C569 1.449 . S
C550 C549 1.258 . S
C550 C551 1.477 . S
C550 H570 0.931 . S
C551 C547 1.460 . S
C551 C550 1.477 . S
C551 H571 0.930 . S
C552 N548 1.362 . S
C552 C549 1.431 . S
C552 C562 1.476 . S
H553 C547 0.929 . S
C554 O545 1.250 . S
C554 O546 1.258 . S
O555 Mn540 2.162 . S
O555 C543 1.281 . S
O556 Mn540 2.297 . S
O556 C543 1.236 . S
N557 Mn541 2.282 . S
N557 C558 1.328 . S
N557 C562 1.318 . S
C558 N557 1.328 . S
C558 C559 1.457 . S
C558 H563 0.929 . S
C559 C558 1.457 . S
C559 C560 1.291 . S
C559 H572 0.931 . S
C560 C559 1.291 . S
C560 C561 1.373 . S
C560 H573 0.929 . S
C561 C560 1.373 . S
C561 C562 1.396 . S
C561 C568 1.403 . S
C562 C552 1.476 . S
C562 N557 1.318 . S
C562 C561 1.396 . S
H563 C558 0.929 . S
O564 Mn540 2.385 . S
O564 C542 1.234 . S
O565 Mn540 2.209 . S
O565 Mn541 2.215 . S
O565 C542 1.283 . S
O566 Mn540 2.094 . S
O566 C544 1.240 . S
O567 Mn541 2.117 . S
O567 C544 1.264 . S
C568 C561 1.403 . S
C568 C569 1.399 . S
C568 H574 0.929 . S
C569 C549 1.449 . S
C569 C568 1.399 . S
C569 H575 0.930 . S
H570 C550 0.931 . S
H571 C551 0.930 . S
H572 C559 0.931 . S
H573 C560 0.929 . S
H574 C568 0.929 . S
H575 C569 0.930 . S
Mn576 O581 2.095 . S
Mn576 O591 2.162 . S
Mn576 O592 2.297 . S
Mn576 O600 2.385 1_545 S
Mn576 O601 2.209 1_545 S
Mn576 O602 2.094 . S
Mn577 O582 2.121 . S
Mn577 N584 2.257 1_545 S
Mn577 N593 2.282 1_545 S
Mn577 O601 2.215 1_545 S
Mn577 O603 2.117 . S
C578 O600 1.234 . S
C578 O601 1.283 . S
C579 O591 1.281 . S
C579 O592 1.236 . S
C580 O602 1.240 . S
C580 O603 1.264 . S
O581 Mn576 2.095 . S
O581 C590 1.250 . S
O582 Mn577 2.121 . S
O582 C590 1.258 . S
C583 N584 1.326 1_545 S
C583 C587 1.460 1_545 S
C583 H589 0.929 . S
N584 Mn577 2.257 1_565 S
N584 C583 1.326 1_565 S
N584 C588 1.362 . S
C585 C586 1.258 . S
C585 C588 1.431 . S
C585 C605 1.449 . S
C586 C585 1.258 . S
C586 C587 1.477 . S
C586 H606 0.931 . S
C587 C583 1.460 1_565 S
C587 C586 1.477 . S
C587 H607 0.930 1_565 S
C588 N584 1.362 . S
C588 C585 1.431 . S
C588 C598 1.476 . S
H589 C583 0.929 . S
C590 O581 1.250 . S
C590 O582 1.258 . S
O591 Mn576 2.162 . S
O591 C579 1.281 . S
O592 Mn576 2.297 . S
O592 C579 1.236 . S
N593 Mn577 2.282 1_565 S
N593 C594 1.328 . S
N593 C598 1.318 . S
C594 N593 1.328 . S
C594 C595 1.457 . S
C594 H599 0.929 . S
C595 C594 1.457 . S
C595 C596 1.291 . S
C595 H608 0.931 . S
C596 C595 1.291 . S
C596 C597 1.373 . S
C596 H609 0.929 . S
C597 C596 1.373 . S
C597 C598 1.396 . S
C597 C604 1.403 . S
C598 C588 1.476 . S
C598 N593 1.318 . S
C598 C597 1.396 . S
H599 C594 0.929 . S
O600 Mn576 2.385 1_565 S
O600 C578 1.234 . S
O601 Mn576 2.209 1_565 S
O601 Mn577 2.215 1_565 S
O601 C578 1.283 . S
O602 Mn576 2.094 . S
O602 C580 1.240 . S
O603 Mn577 2.117 . S
O603 C580 1.264 . S
C604 C597 1.403 . S
C604 C605 1.399 . S
C604 H610 0.929 . S
C605 C585 1.449 . S
C605 C604 1.399 . S
C605 H611 0.930 . S
H606 C586 0.931 . S
H607 C587 0.930 1_545 S
H608 C595 0.931 . S
H609 C596 0.929 . S
H610 C604 0.929 . S
H611 C605 0.930 . S
Mn612 O617 2.095 . S
Mn612 O627 2.162 . S
Mn612 O628 2.297 . S
Mn612 O636 2.385 . S
Mn612 O637 2.209 . S
Mn612 O638 2.094 . S
Mn613 O618 2.121 . S
Mn613 N620 2.257 . S
Mn613 N629 2.282 . S
Mn613 O637 2.215 . S
Mn613 O639 2.117 . S
C614 O636 1.234 . S
C614 O637 1.283 . S
C615 O627 1.281 . S
C615 O628 1.236 . S
C616 O638 1.240 . S
C616 O639 1.264 . S
O617 Mn612 2.095 . S
O617 C626 1.250 . S
O618 Mn613 2.121 . S
O618 C626 1.258 . S
C619 N620 1.326 . S
C619 C623 1.460 . S
C619 H625 0.929 . S
N620 Mn613 2.257 . S
N620 C619 1.326 . S
N620 C624 1.362 . S
C621 C622 1.258 . S
C621 C624 1.431 . S
C621 C641 1.449 . S
C622 C621 1.258 . S
C622 C623 1.477 . S
C622 H642 0.931 . S
C623 C619 1.460 . S
C623 C622 1.477 . S
C623 H643 0.930 . S
C624 N620 1.362 . S
C624 C621 1.431 . S
C624 C634 1.476 . S
H625 C619 0.929 . S
C626 O617 1.250 . S
C626 O618 1.258 . S
O627 Mn612 2.162 . S
O627 C615 1.281 . S
O628 Mn612 2.297 . S
O628 C615 1.236 . S
N629 Mn613 2.282 . S
N629 C630 1.328 . S
N629 C634 1.318 . S
C630 N629 1.328 . S
C630 C631 1.457 . S
C630 H635 0.929 . S
C631 C630 1.457 . S
C631 C632 1.291 . S
C631 H644 0.931 . S
C632 C631 1.291 . S
C632 C633 1.373 . S
C632 H645 0.929 . S
C633 C632 1.373 . S
C633 C634 1.396 . S
C633 C640 1.403 . S
C634 C624 1.476 . S
C634 N629 1.318 . S
C634 C633 1.396 . S
H635 C630 0.929 . S
O636 Mn612 2.385 . S
O636 C614 1.234 . S
O637 Mn612 2.209 . S
O637 Mn613 2.215 . S
O637 C614 1.283 . S
O638 Mn612 2.094 . S
O638 C616 1.240 . S
O639 Mn613 2.117 . S
O639 C616 1.264 . S
C640 C633 1.403 . S
C640 C641 1.399 . S
C640 H646 0.929 . S
C641 C621 1.449 . S
C641 C640 1.399 . S
C641 H647 0.930 . S
H642 C622 0.931 . S
H643 C623 0.930 . S
H644 C631 0.931 . S
H645 C632 0.929 . S
H646 C640 0.929 . S
H647 C641 0.930 . S
Mn648 O653 2.095 . S
Mn648 O663 2.162 . S
Mn648 O664 2.297 . S
Mn648 O672 2.385 . S
Mn648 O673 2.209 . S
Mn648 O674 2.094 . S
Mn649 O654 2.121 . S
Mn649 N656 2.257 . S
Mn649 N665 2.282 . S
Mn649 O673 2.215 . S
Mn649 O675 2.117 . S
C650 O672 1.234 . S
C650 O673 1.283 . S
C651 O663 1.281 . S
C651 O664 1.236 . S
C652 O674 1.240 . S
C652 O675 1.264 . S
O653 Mn648 2.095 . S
O653 C662 1.250 . S
O654 Mn649 2.121 . S
O654 C662 1.258 . S
C655 N656 1.326 . S
C655 C659 1.460 . S
C655 H661 0.929 . S
N656 Mn649 2.257 . S
N656 C655 1.326 . S
N656 C660 1.362 . S
C657 C658 1.258 . S
C657 C660 1.431 . S
C657 C677 1.449 . S
C658 C657 1.258 . S
C658 C659 1.477 . S
C658 H678 0.931 . S
C659 C655 1.460 . S
C659 C658 1.477 . S
C659 H679 0.930 . S
C660 N656 1.362 . S
C660 C657 1.431 . S
C660 C670 1.476 . S
H661 C655 0.929 . S
C662 O653 1.250 . S
C662 O654 1.258 . S
O663 Mn648 2.162 . S
O663 C651 1.281 . S
O664 Mn648 2.297 . S
O664 C651 1.236 . S
N665 Mn649 2.282 . S
N665 C666 1.328 . S
N665 C670 1.318 . S
C666 N665 1.328 . S
C666 C667 1.457 . S
C666 H671 0.929 . S
C667 C666 1.457 . S
C667 C668 1.291 . S
C667 H680 0.931 . S
C668 C667 1.291 . S
C668 C669 1.373 . S
C668 H681 0.929 . S
C669 C668 1.373 . S
C669 C670 1.396 . S
C669 C676 1.403 . S
C670 C660 1.476 . S
C670 N665 1.318 . S
C670 C669 1.396 . S
H671 C666 0.929 . S
O672 Mn648 2.385 . S
O672 C650 1.234 . S
O673 Mn648 2.209 . S
O673 Mn649 2.215 . S
O673 C650 1.283 . S
O674 Mn648 2.094 . S
O674 C652 1.240 . S
O675 Mn649 2.117 . S
O675 C652 1.264 . S
C676 C669 1.403 . S
C676 C677 1.399 . S
C676 H682 0.929 . S
C677 C657 1.449 . S
C677 C676 1.399 . S
C677 H683 0.930 . S
H678 C658 0.931 . S
H679 C659 0.930 . S
H680 C667 0.931 . S
H681 C668 0.929 . S
H682 C676 0.929 . S
H683 C677 0.930 . S
Mn684 O689 2.078 1_545 S
Mn684 O699 2.162 1_545 S
Mn684 O700 2.298 1_545 S
Mn684 O708 2.403 . S
Mn684 O709 2.216 . S
Mn684 O710 2.094 1_545 S
Mn685 O690 2.121 1_545 S
Mn685 N692 2.257 . S
Mn685 N701 2.282 . S
Mn685 O709 2.215 . S
Mn685 O711 2.117 . S
C686 O708 1.234 . S
C686 O709 1.283 . S
C687 O699 1.281 . S
C687 O700 1.235 . S
C688 O710 1.247 1_545 S
C688 O711 1.265 . S
O689 Mn684 2.078 1_565 S
O689 C698 1.250 . S
O690 Mn685 2.121 1_565 S
O690 C698 1.258 . S
C691 N692 1.326 . S
C691 C695 1.460 . S
C691 H697 0.929 1_545 S
N692 Mn685 2.257 . S
N692 C691 1.326 . S
N692 C696 1.362 . S
C693 C694 1.258 . S
C693 C696 1.431 . S
C693 C713 1.449 . S
C694 C693 1.258 . S
C694 C695 1.477 . S
C694 H714 0.931 . S
C695 C691 1.460 . S
C695 C694 1.477 . S
C695 H715 0.930 . S
C696 N692 1.362 . S
C696 C693 1.431 . S
C696 C706 1.476 . S
H697 C691 0.929 1_565 S
C698 O689 1.250 . S
C698 O690 1.258 . S
O699 Mn684 2.162 1_565 S
O699 C687 1.281 . S
O700 Mn684 2.298 1_565 S
O700 C687 1.235 . S
N701 Mn685 2.282 . S
N701 C702 1.328 . S
N701 C706 1.318 . S
C702 N701 1.328 . S
C702 C703 1.457 . S
C702 H707 0.929 . S
C703 C702 1.457 . S
C703 C704 1.291 . S
C703 H716 0.931 . S
C704 C703 1.291 . S
C704 C705 1.373 . S
C704 H717 0.929 . S
C705 C704 1.373 . S
C705 C706 1.396 . S
C705 C712 1.403 . S
C706 C696 1.476 . S
C706 N701 1.318 . S
C706 C705 1.396 . S
H707 C702 0.929 . S
O708 Mn684 2.403 . S
O708 C686 1.234 . S
O709 Mn684 2.216 . S
O709 Mn685 2.215 . S
O709 C686 1.283 . S
O710 Mn684 2.094 1_565 S
O710 C688 1.247 1_565 S
O711 Mn685 2.117 . S
O711 C688 1.265 . S
C712 C705 1.403 . S
C712 C713 1.399 . S
C712 H718 0.929 . S
C713 C693 1.449 . S
C713 C712 1.399 . S
C713 H719 0.930 . S
H714 C694 0.931 . S
H715 C695 0.930 . S
H716 C703 0.931 . S
H717 C704 0.929 . S
H718 C712 0.929 . S
H719 C713 0.930 . S
Mn720 O725 2.095 1_554 S
Mn720 O735 2.162 . S
Mn720 O736 2.297 . S
Mn720 O744 2.385 . S
Mn720 O745 2.209 1_554 S
Mn720 O746 2.094 1_554 S
Mn721 O726 2.121 . S
Mn721 N728 2.257 . S
Mn721 N737 2.282 . S
Mn721 O745 2.215 . S
Mn721 O747 2.117 . S
C722 O744 1.234 1_556 S
C722 O745 1.283 . S
C723 O735 1.281 . S
C723 O736 1.236 . S
C724 O746 1.240 . S
C724 O747 1.264 . S
O725 Mn720 2.095 1_556 S
O725 C734 1.250 . S
O726 Mn721 2.121 . S
O726 C734 1.258 . S
C727 N728 1.326 . S
C727 C731 1.460 . S
C727 H733 0.929 . S
N728 Mn721 2.257 . S
N728 C727 1.326 . S
N728 C732 1.362 . S
C729 C730 1.258 . S
C729 C732 1.431 . S
C729 C749 1.449 . S
C730 C729 1.258 . S
C730 C731 1.477 . S
C730 H750 0.931 . S
C731 C727 1.460 . S
C731 C730 1.477 . S
C731 H751 0.930 . S
C732 N728 1.362 . S
C732 C729 1.431 . S
C732 C742 1.476 . S
H733 C727 0.929 . S
C734 O725 1.250 . S
C734 O726 1.258 . S
O735 Mn720 2.162 . S
O735 C723 1.281 . S
O736 Mn720 2.297 . S
O736 C723 1.236 . S
N737 Mn721 2.282 . S
N737 C738 1.328 . S
N737 C742 1.318 . S
C738 N737 1.328 . S
C738 C739 1.457 . S
C738 H743 0.929 . S
C739 C738 1.457 . S
C739 C740 1.291 . S
C739 H752 0.931 . S
C740 C739 1.291 . S
C740 C741 1.373 . S
C740 H753 0.929 . S
C741 C740 1.373 . S
C741 C742 1.396 . S
C741 C748 1.403 . S
C742 C732 1.476 . S
C742 N737 1.318 . S
C742 C741 1.396 . S
H743 C738 0.929 . S
O744 Mn720 2.385 . S
O744 C722 1.234 1_554 S
O745 Mn720 2.209 1_556 S
O745 Mn721 2.215 . S
O745 C722 1.283 . S
O746 Mn720 2.094 1_556 S
O746 C724 1.240 . S
O747 Mn721 2.117 . S
O747 C724 1.264 . S
C748 C741 1.403 . S
C748 C749 1.399 . S
C748 H754 0.929 . S
C749 C729 1.449 . S
C749 C748 1.399 . S
C749 H755 0.930 . S
H750 C730 0.931 . S
H751 C731 0.930 . S
H752 C739 0.931 . S
H753 C740 0.929 . S
H754 C748 0.929 . S
H755 C749 0.930 . S
Mn756 O761 2.095 . S
Mn756 O771 2.162 . S
Mn756 O772 2.297 . S
Mn756 O780 2.385 . S
Mn756 O781 2.209 . S
Mn756 O782 2.094 . S
Mn757 O762 2.121 . S
Mn757 N764 2.257 . S
Mn757 N773 2.282 . S
Mn757 O781 2.215 . S
Mn757 O783 2.117 . S
C758 O780 1.234 . S
C758 O781 1.283 . S
C759 O771 1.281 . S
C759 O772 1.236 . S
C760 O782 1.240 . S
C760 O783 1.264 . S
O761 Mn756 2.095 . S
O761 C770 1.250 . S
O762 Mn757 2.121 . S
O762 C770 1.258 . S
C763 N764 1.326 . S
C763 C767 1.460 . S
C763 H769 0.929 . S
N764 Mn757 2.257 . S
N764 C763 1.326 . S
N764 C768 1.362 . S
C765 C766 1.258 . S
C765 C768 1.431 . S
C765 C785 1.449 . S
C766 C765 1.258 . S
C766 C767 1.477 . S
C766 H786 0.931 . S
C767 C763 1.460 . S
C767 C766 1.477 . S
C767 H787 0.930 . S
C768 N764 1.362 . S
C768 C765 1.431 . S
C768 C778 1.476 . S
H769 C763 0.929 . S
C770 O761 1.250 . S
C770 O762 1.258 . S
O771 Mn756 2.162 . S
O771 C759 1.281 . S
O772 Mn756 2.297 . S
O772 C759 1.236 . S
N773 Mn757 2.282 . S
N773 C774 1.328 . S
N773 C778 1.318 . S
C774 N773 1.328 . S
C774 C775 1.457 . S
C774 H779 0.929 . S
C775 C774 1.457 . S
C775 C776 1.291 . S
C775 H788 0.931 . S
C776 C775 1.291 . S
C776 C777 1.373 . S
C776 H789 0.929 . S
C777 C776 1.373 . S
C777 C778 1.396 . S
C777 C784 1.403 . S
C778 C768 1.476 . S
C778 N773 1.318 . S
C778 C777 1.396 . S
H779 C774 0.929 . S
O780 Mn756 2.385 . S
O780 C758 1.234 . S
O781 Mn756 2.209 . S
O781 Mn757 2.215 . S
O781 C758 1.283 . S
O782 Mn756 2.094 . S
O782 C760 1.240 . S
O783 Mn757 2.117 . S
O783 C760 1.264 . S
C784 C777 1.403 . S
C784 C785 1.399 . S
C784 H790 0.929 . S
C785 C765 1.449 . S
C785 C784 1.399 . S
C785 H791 0.930 . S
H786 C766 0.931 . S
H787 C767 0.930 . S
H788 C775 0.931 . S
H789 C776 0.929 . S
H790 C784 0.929 . S
H791 C785 0.930 . S
Mn792 O797 2.095 . S
Mn792 O807 2.162 . S
Mn792 O808 2.297 . S
Mn792 O816 2.385 . S
Mn792 O817 2.209 . S
Mn792 O818 2.094 . S
Mn793 O798 2.121 . S
Mn793 N800 2.257 . S
Mn793 N809 2.282 . S
Mn793 O817 2.215 . S
Mn793 O819 2.117 . S
C794 O816 1.234 . S
C794 O817 1.283 . S
C795 O807 1.281 . S
C795 O808 1.236 . S
C796 O818 1.240 . S
C796 O819 1.264 . S
O797 Mn792 2.095 . S
O797 C806 1.250 . S
O798 Mn793 2.121 . S
O798 C806 1.258 . S
C799 N800 1.326 . S
C799 C803 1.460 . S
C799 H805 0.929 . S
N800 Mn793 2.257 . S
N800 C799 1.326 . S
N800 C804 1.362 . S
C801 C802 1.258 . S
C801 C804 1.431 . S
C801 C821 1.449 . S
C802 C801 1.258 . S
C802 C803 1.477 . S
C802 H822 0.931 . S
C803 C799 1.460 . S
C803 C802 1.477 . S
C803 H823 0.930 . S
C804 N800 1.362 . S
C804 C801 1.431 . S
C804 C814 1.476 . S
H805 C799 0.929 . S
C806 O797 1.250 . S
C806 O798 1.258 . S
O807 Mn792 2.162 . S
O807 C795 1.281 . S
O808 Mn792 2.297 . S
O808 C795 1.236 . S
N809 Mn793 2.282 . S
N809 C810 1.328 . S
N809 C814 1.318 . S
C810 N809 1.328 . S
C810 C811 1.457 . S
C810 H815 0.929 . S
C811 C810 1.457 . S
C811 C812 1.291 . S
C811 H824 0.931 . S
C812 C811 1.291 . S
C812 C813 1.373 . S
C812 H825 0.929 . S
C813 C812 1.373 . S
C813 C814 1.396 . S
C813 C820 1.403 . S
C814 C804 1.476 . S
C814 N809 1.318 . S
C814 C813 1.396 . S
H815 C810 0.929 . S
O816 Mn792 2.385 . S
O816 C794 1.234 . S
O817 Mn792 2.209 . S
O817 Mn793 2.215 . S
O817 C794 1.283 . S
O818 Mn792 2.094 . S
O818 C796 1.240 . S
O819 Mn793 2.117 . S
O819 C796 1.264 . S
C820 C813 1.403 . S
C820 C821 1.399 . S
C820 H826 0.929 . S
C821 C801 1.449 . S
C821 C820 1.399 . S
C821 H827 0.930 . S
H822 C802 0.931 . S
H823 C803 0.930 . S
H824 C811 0.931 . S
H825 C812 0.929 . S
H826 C820 0.929 . S
H827 C821 0.930 . S
Mn828 O833 2.095 . S
Mn828 O843 2.162 . S
Mn828 O844 2.297 . S
Mn828 O852 2.385 . S
Mn828 O853 2.209 . S
Mn828 O854 2.094 . S
Mn829 O834 2.121 . S
Mn829 N836 2.257 . S
Mn829 N845 2.282 . S
Mn829 O853 2.215 . S
Mn829 O855 2.117 . S
C830 O852 1.234 . S
C830 O853 1.283 . S
C831 O843 1.281 . S
C831 O844 1.236 . S
C832 O854 1.240 . S
C832 O855 1.264 . S
O833 Mn828 2.095 . S
O833 C842 1.250 . S
O834 Mn829 2.121 . S
O834 C842 1.258 . S
C835 N836 1.326 . S
C835 C839 1.460 . S
C835 H841 0.929 . S
N836 Mn829 2.257 . S
N836 C835 1.326 . S
N836 C840 1.362 . S
C837 C838 1.258 . S
C837 C840 1.431 . S
C837 C857 1.449 . S
C838 C837 1.258 . S
C838 C839 1.477 . S
C838 H858 0.931 . S
C839 C835 1.460 . S
C839 C838 1.477 . S
C839 H859 0.930 . S
C840 N836 1.362 . S
C840 C837 1.431 . S
C840 C850 1.476 . S
H841 C835 0.929 . S
C842 O833 1.250 . S
C842 O834 1.258 . S
O843 Mn828 2.162 . S
O843 C831 1.281 . S
O844 Mn828 2.297 . S
O844 C831 1.236 . S
N845 Mn829 2.282 . S
N845 C846 1.328 . S
N845 C850 1.318 . S
C846 N845 1.328 . S
C846 C847 1.457 . S
C846 H851 0.929 . S
C847 C846 1.457 . S
C847 C848 1.291 . S
C847 H860 0.931 . S
C848 C847 1.291 . S
C848 C849 1.373 . S
C848 H861 0.929 . S
C849 C848 1.373 . S
C849 C850 1.396 . S
C849 C856 1.403 . S
C850 C840 1.476 . S
C850 N845 1.318 . S
C850 C849 1.396 . S
H851 C846 0.929 . S
O852 Mn828 2.385 . S
O852 C830 1.234 . S
O853 Mn828 2.209 . S
O853 Mn829 2.215 . S
O853 C830 1.283 . S
O854 Mn828 2.094 . S
O854 C832 1.240 . S
O855 Mn829 2.117 . S
O855 C832 1.264 . S
C856 C849 1.403 . S
C856 C857 1.399 . S
C856 H862 0.929 . S
C857 C837 1.449 . S
C857 C856 1.399 . S
C857 H863 0.930 . S
H858 C838 0.931 . S
H859 C839 0.930 . S
H860 C847 0.931 . S
H861 C848 0.929 . S
H862 C856 0.929 . S
H863 C857 0.930 . S
Zn864 O870 1.969 . S
Zn864 O871 1.965 . S
Zn864 O875 2.024 . S
Zn864 O880 1.969 . S
Zn865 O872 1.969 1_654 S
Zn865 O878 1.969 1_554 S
Zn865 O879 1.965 . S
Zn865 O881 2.024 1_655 S
C866 O867 1.229 . S
C866 O875 1.058 . S
O867 C866 1.229 . S
C868 O869 1.193 1_454 S
C868 O881 1.096 . S
O869 C868 1.193 1_656 S
O870 Zn864 1.969 . S
O870 C873 1.267 . S
O871 Zn864 1.965 . S
O871 C882 1.260 1_554 S
O872 Zn865 1.969 1_456 S
O872 C882 1.258 1_545 S
C873 O870 1.267 . S
C873 O874 1.228 . S
O874 C873 1.228 . S
O875 Zn864 2.024 . S
O875 C866 1.058 . S
C876 O877 1.228 . S
C876 O878 1.267 1_554 S
O877 C876 1.228 . S
O878 Zn865 1.969 1_556 S
O878 C876 1.267 1_556 S
O879 Zn865 1.965 . S
O879 C883 1.269 . S
O880 Zn864 1.969 . S
O880 C883 1.243 1_465 S
O881 Zn865 2.024 1_455 S
O881 C868 1.096 . S
C882 O871 1.260 1_556 S
C882 O872 1.258 1_565 S
C883 O879 1.269 . S
C883 O880 1.243 1_645 S
Zn884 O890 1.969 . S
Zn884 O891 1.965 . S
Zn884 O895 2.024 . S
Zn884 O900 1.969 . S
Zn885 O892 1.969 . S
Zn885 O898 1.969 . S
Zn885 O899 1.965 . S
Zn885 O901 2.024 . S
C886 O887 1.229 . S
C886 O895 1.058 . S
O887 C886 1.229 . S
C888 O889 1.229 . S
C888 O901 1.058 . S
O889 C888 1.229 . S
O890 Zn884 1.969 . S
O890 C893 1.267 . S
O891 Zn884 1.965 . S
O891 C902 1.260 . S
O892 Zn885 1.969 . S
O892 C902 1.258 . S
C893 O890 1.267 . S
C893 O894 1.228 . S
O894 C893 1.228 . S
O895 Zn884 2.024 . S
O895 C886 1.058 . S
C896 O897 1.228 . S
C896 O898 1.267 . S
O897 C896 1.228 . S
O898 Zn885 1.969 . S
O898 C896 1.267 . S
O899 Zn885 1.965 . S
O899 C903 1.260 . S
O900 Zn884 1.969 . S
O900 C903 1.258 . S
O901 Zn885 2.024 . S
O901 C888 1.058 . S
C902 O891 1.260 . S
C902 O892 1.258 . S
C903 O899 1.260 . S
C903 O900 1.258 . S
Zn904 O910 1.969 . S
Zn904 O911 1.965 . S
Zn904 O915 2.024 . S
Zn904 O920 1.969 . S
Zn905 O912 1.969 1_565 S
Zn905 O918 1.969 . S
Zn905 O919 1.965 1_565 S
Zn905 O921 2.024 . S
C906 O907 1.229 . S
C906 O915 1.058 . S
O907 C906 1.229 . S
C908 O909 1.229 . S
C908 O921 1.058 . S
O909 C908 1.229 . S
O910 Zn904 1.969 . S
O910 C913 1.267 . S
O911 Zn904 1.965 . S
O911 C922 1.260 . S
O912 Zn905 1.969 1_545 S
O912 C922 1.258 . S
C913 O910 1.267 . S
C913 O914 1.228 . S
O914 C913 1.228 . S
O915 Zn904 2.024 . S
O915 C906 1.058 . S
C916 O917 1.228 . S
C916 O918 1.267 . S
O917 C916 1.228 . S
O918 Zn905 1.969 . S
O918 C916 1.267 . S
O919 Zn905 1.965 1_545 S
O919 C923 1.260 . S
O920 Zn904 1.969 . S
O920 C923 1.258 . S
O921 Zn905 2.024 . S
O921 C908 1.058 . S
C922 O911 1.260 . S
C922 O912 1.258 . S
C923 O919 1.260 . S
C923 O920 1.258 . S
Zn924 O930 1.969 . S
Zn924 O931 1.965 . S
Zn924 O935 2.024 . S
Zn924 O940 1.969 . S
Zn925 O932 1.969 . S
Zn925 O938 1.969 . S
Zn925 O939 1.965 . S
Zn925 O941 2.024 . S
C926 O927 1.229 . S
C926 O935 1.058 . S
O927 C926 1.229 . S
C928 O929 1.229 . S
C928 O941 1.058 . S
O929 C928 1.229 . S
O930 Zn924 1.969 . S
O930 C933 1.267 . S
O931 Zn924 1.965 . S
O931 C942 1.260 . S
O932 Zn925 1.969 . S
O932 C942 1.258 . S
C933 O930 1.267 . S
C933 O934 1.228 . S
O934 C933 1.228 . S
O935 Zn924 2.024 . S
O935 C926 1.058 . S
C936 O937 1.228 . S
C936 O938 1.267 . S
O937 C936 1.228 . S
O938 Zn925 1.969 . S
O938 C936 1.267 . S
O939 Zn925 1.965 . S
O939 C943 1.260 . S
O940 Zn924 1.969 . S
O940 C943 1.258 . S
O941 Zn925 2.024 . S
O941 C928 1.058 . S
C942 O931 1.260 . S
C942 O932 1.258 . S
C943 O939 1.260 . S
C943 O940 1.258 . S
Zn944 O950 1.969 . S
Zn944 O951 1.965 1_455 S
Zn944 O955 2.024 1_565 S
Zn944 O960 1.969 1_565 S
Zn945 O952 1.926 1_455 S
Zn945 O958 1.944 1_455 S
Zn945 O959 2.013 . S
Zn945 O961 2.041 . S
C946 O947 1.229 1_545 S
C946 O955 1.058 . S
O947 C946 1.229 1_565 S
C948 O949 1.229 . S
C948 O961 1.058 1_655 S
O949 C948 1.229 . S
O950 Zn944 1.969 . S
O950 C953 1.267 . S
O951 Zn944 1.965 1_655 S
O951 C962 1.260 . S
O952 Zn945 1.926 1_655 S
O952 C962 1.258 1_545 S
C953 O950 1.267 . S
C953 O954 1.228 . S
O954 C953 1.228 . S
O955 Zn944 2.024 1_545 S
O955 C946 1.058 . S
C956 O957 1.228 . S
C956 O958 1.267 1_455 S
O957 C956 1.228 . S
O958 Zn945 1.944 1_655 S
O958 C956 1.267 1_655 S
O959 Zn945 2.013 . S
O959 C963 1.260 . S
O960 Zn944 1.969 1_545 S
O960 C963 1.258 . S
O961 Zn945 2.041 . S
O961 C948 1.058 1_455 S
C962 O951 1.260 . S
C962 O952 1.258 1_565 S
C963 O959 1.260 . S
C963 O960 1.258 . S
Zn964 O970 1.969 . S
Zn964 O971 1.965 . S
Zn964 O975 2.024 . S
Zn964 O980 1.969 . S
Zn965 O972 1.969 . S
Zn965 O978 1.969 . S
Zn965 O979 1.965 . S
Zn965 O981 2.024 . S
C966 O967 1.229 . S
C966 O975 1.058 . S
O967 C966 1.229 . S
C968 O969 1.229 . S
C968 O981 1.058 . S
O969 C968 1.229 . S
O970 Zn964 1.969 . S
O970 C973 1.267 . S
O971 Zn964 1.965 . S
O971 C982 1.260 . S
O972 Zn965 1.969 . S
O972 C982 1.258 . S
C973 O970 1.267 . S
C973 O974 1.228 . S
O974 C973 1.228 . S
O975 Zn964 2.024 . S
O975 C966 1.058 . S
C976 O977 1.228 . S
C976 O978 1.267 . S
O977 C976 1.228 . S
O978 Zn965 1.969 . S
O978 C976 1.267 . S
O979 Zn965 1.965 . S
O979 C983 1.260 . S
O980 Zn964 1.969 . S
O980 C983 1.258 . S
O981 Zn965 2.024 . S
O981 C968 1.058 . S
C982 O971 1.260 . S
C982 O972 1.258 . S
C983 O979 1.260 . S
C983 O980 1.258 . S
Zn984 O990 1.970 . S
Zn984 O991 1.964 1_545 S
Zn984 O995 2.023 1_556 S
Zn984 O1000 1.969 1_556 S
Zn985 O992 1.969 1_545 S
Zn985 O998 1.969 1_545 S
Zn985 O999 1.965 . S
Zn985 O1001 2.024 . S
C986 O987 1.229 . S
C986 O995 1.058 . S
O987 C986 1.229 . S
C988 O989 1.229 . S
C988 O1001 1.058 1_565 S
O989 C988 1.229 . S
O990 Zn984 1.970 . S
O990 C993 1.267 . S
O991 Zn984 1.964 1_565 S
O991 C1002 1.263 1_556 S
O992 Zn985 1.969 1_565 S
O992 C1002 1.258 . S
C993 O990 1.267 . S
C993 O994 1.228 . S
O994 C993 1.228 . S
O995 Zn984 2.023 1_554 S
O995 C986 1.058 . S
C996 O997 1.228 . S
C996 O998 1.267 1_545 S
O997 C996 1.228 . S
O998 Zn985 1.969 1_565 S
O998 C996 1.267 1_565 S
O999 Zn985 1.965 . S
O999 C1003 1.260 . S
O1000 Zn984 1.969 1_554 S
O1000 C1003 1.258 . S
O1001 Zn985 2.024 . S
O1001 C988 1.058 1_545 S
C1002 O991 1.263 1_554 S
C1002 O992 1.258 . S
C1003 O999 1.260 . S
C1003 O1000 1.258 . S
Zn1004 O1010 1.969 . S
Zn1004 O1011 1.965 . S
Zn1004 O1015 2.024 . S
Zn1004 O1020 1.969 . S
Zn1005 O1012 1.969 . S
Zn1005 O1018 1.969 . S
Zn1005 O1019 1.965 . S
Zn1005 O1021 2.024 . S
C1006 O1007 1.229 . S
C1006 O1015 1.058 . S
O1007 C1006 1.229 . S
C1008 O1009 1.229 . S
C1008 O1021 1.058 . S
O1009 C1008 1.229 . S
O1010 Zn1004 1.969 . S
O1010 C1013 1.267 . S
O1011 Zn1004 1.965 . S
O1011 C1022 1.260 . S
O1012 Zn1005 1.969 . S
O1012 C1022 1.258 . S
C1013 O1010 1.267 . S
C1013 O1014 1.228 . S
O1014 C1013 1.228 . S
O1015 Zn1004 2.024 . S
O1015 C1006 1.058 . S
C1016 O1017 1.228 . S
C1016 O1018 1.267 . S
O1017 C1016 1.228 . S
O1018 Zn1005 1.969 . S
O1018 C1016 1.267 . S
O1019 Zn1005 1.965 . S
O1019 C1023 1.260 . S
O1020 Zn1004 1.969 . S
O1020 C1023 1.258 . S
O1021 Zn1005 2.024 . S
O1021 C1008 1.058 . S
C1022 O1011 1.260 . S
C1022 O1012 1.258 . S
C1023 O1019 1.260 . S
C1023 O1020 1.258 . S
Zn1024 O1030 1.969 . S
Zn1024 O1031 1.965 . S
Zn1024 O1035 2.024 . S
Zn1024 O1040 1.969 . S
Zn1025 O1032 1.969 1_556 S
Zn1025 O1038 1.969 1_556 S
Zn1025 O1039 1.965 1_556 S
Zn1025 O1041 2.024 . S
C1026 O1027 1.229 . S
C1026 O1035 1.058 . S
O1027 C1026 1.229 . S
C1028 O1029 1.229 . S
C1028 O1041 1.058 . S
O1029 C1028 1.229 . S
O1030 Zn1024 1.969 . S
O1030 C1033 1.267 . S
O1031 Zn1024 1.965 . S
O1031 C1042 1.260 . S
O1032 Zn1025 1.969 1_554 S
O1032 C1042 1.258 . S
C1033 O1030 1.267 . S
C1033 O1034 1.228 . S
O1034 C1033 1.228 . S
O1035 Zn1024 2.024 . S
O1035 C1026 1.058 . S
C1036 O1037 1.228 . S
C1036 O1038 1.267 1_556 S
O1037 C1036 1.228 . S
O1038 Zn1025 1.969 1_554 S
O1038 C1036 1.267 1_554 S
O1039 Zn1025 1.965 1_554 S
O1039 C1043 1.260 . S
O1040 Zn1024 1.969 . S
O1040 C1043 1.258 . S
O1041 Zn1025 2.024 . S
O1041 C1028 1.058 . S
C1042 O1031 1.260 . S
C1042 O1032 1.258 . S
C1043 O1039 1.260 . S
C1043 O1040 1.258 . S
Zn1044 O1050 1.969 . S
Zn1044 O1051 1.965 . S
Zn1044 O1055 2.024 . S
Zn1044 O1060 1.969 . S
Zn1045 O1052 1.969 . S
Zn1045 O1058 1.969 . S
Zn1045 O1059 1.965 . S
Zn1045 O1061 2.024 . S
C1046 O1047 1.229 . S
C1046 O1055 1.058 . S
O1047 C1046 1.229 . S
C1048 O1049 1.229 . S
C1048 O1061 1.058 . S
O1049 C1048 1.229 . S
O1050 Zn1044 1.969 . S
O1050 C1053 1.267 . S
O1051 Zn1044 1.965 . S
O1051 C1062 1.260 . S
O1052 Zn1045 1.969 . S
O1052 C1062 1.258 . S
C1053 O1050 1.267 . S
C1053 O1054 1.228 . S
O1054 C1053 1.228 . S
O1055 Zn1044 2.024 . S
O1055 C1046 1.058 . S
C1056 O1057 1.228 . S
C1056 O1058 1.267 . S
O1057 C1056 1.228 . S
O1058 Zn1045 1.969 . S
O1058 C1056 1.267 . S
O1059 Zn1045 1.965 . S
O1059 C1063 1.260 . S
O1060 Zn1044 1.969 . S
O1060 C1063 1.258 . S
O1061 Zn1045 2.024 . S
O1061 C1048 1.058 . S
C1062 O1051 1.260 . S
C1062 O1052 1.258 . S
C1063 O1059 1.260 . S
C1063 O1060 1.258 . S
Zn1064 O1070 1.969 . S
Zn1064 O1071 1.965 . S
Zn1064 O1075 2.024 . S
Zn1064 O1080 1.969 . S
Zn1065 O1072 1.969 1_655 S
Zn1065 O1078 1.969 . S
Zn1065 O1079 1.965 1_655 S
Zn1065 O1081 2.024 . S
C1066 O1067 1.229 . S
C1066 O1075 1.058 . S
O1067 C1066 1.229 . S
C1068 O1069 1.229 . S
C1068 O1081 1.058 . S
O1069 C1068 1.229 . S
O1070 Zn1064 1.969 . S
O1070 C1073 1.267 . S
O1071 Zn1064 1.965 . S
O1071 C1082 1.260 . S
O1072 Zn1065 1.969 1_455 S
O1072 C1082 1.258 . S
C1073 O1070 1.267 . S
C1073 O1074 1.228 . S
O1074 C1073 1.228 . S
O1075 Zn1064 2.024 . S
O1075 C1066 1.058 . S
C1076 O1077 1.228 . S
C1076 O1078 1.267 . S
O1077 C1076 1.228 . S
O1078 Zn1065 1.969 . S
O1078 C1076 1.267 . S
O1079 Zn1065 1.965 1_455 S
O1079 C1083 1.260 . S
O1080 Zn1064 1.969 . S
O1080 C1083 1.258 . S
O1081 Zn1065 2.024 . S
O1081 C1068 1.058 . S
C1082 O1071 1.260 . S
C1082 O1072 1.258 . S
C1083 O1079 1.260 . S
C1083 O1080 1.258 . S
Zn1084 O1090 1.969 . S
Zn1084 O1091 1.965 . S
Zn1084 O1095 2.024 . S
Zn1084 O1100 1.969 . S
Zn1085 O1092 1.969 . S
Zn1085 O1098 1.969 . S
Zn1085 O1099 1.965 . S
Zn1085 O1101 2.024 . S
C1086 O1087 1.229 . S
C1086 O1095 1.058 . S
O1087 C1086 1.229 . S
C1088 O1089 1.229 . S
C1088 O1101 1.058 . S
O1089 C1088 1.229 . S
O1090 Zn1084 1.969 . S
O1090 C1093 1.267 . S
O1091 Zn1084 1.965 . S
O1091 C1102 1.260 . S
O1092 Zn1085 1.969 . S
O1092 C1102 1.258 . S
C1093 O1090 1.267 . S
C1093 O1094 1.228 . S
O1094 C1093 1.228 . S
O1095 Zn1084 2.024 . S
O1095 C1086 1.058 . S
C1096 O1097 1.228 . S
C1096 O1098 1.267 . S
O1097 C1096 1.228 . S
O1098 Zn1085 1.969 . S
O1098 C1096 1.267 . S
O1099 Zn1085 1.965 . S
O1099 C1103 1.260 . S
O1100 Zn1084 1.969 . S
O1100 C1103 1.258 . S
O1101 Zn1085 2.024 . S
O1101 C1088 1.058 . S
C1102 O1091 1.260 . S
C1102 O1092 1.258 . S
C1103 O1099 1.260 . S
C1103 O1100 1.258 . S
Zn1104 O1110 1.969 . S
Zn1104 O1111 1.965 . S
Zn1104 O1115 2.024 . S
Zn1104 O1120 1.969 . S
Zn1105 O1112 1.969 . S
Zn1105 O1118 1.969 . S
Zn1105 O1119 1.965 . S
Zn1105 O1121 2.024 . S
C1106 O1107 1.229 . S
C1106 O1115 1.058 . S
O1107 C1106 1.229 . S
C1108 O1109 1.229 . S
C1108 O1121 1.058 . S
O1109 C1108 1.229 . S
O1110 Zn1104 1.969 . S
O1110 C1113 1.267 . S
O1111 Zn1104 1.965 . S
O1111 C1122 1.260 . S
O1112 Zn1105 1.969 . S
O1112 C1122 1.258 . S
C1113 O1110 1.267 . S
C1113 O1114 1.228 . S
O1114 C1113 1.228 . S
O1115 Zn1104 2.024 . S
O1115 C1106 1.058 . S
C1116 O1117 1.228 . S
C1116 O1118 1.267 . S
O1117 C1116 1.228 . S
O1118 Zn1105 1.969 . S
O1118 C1116 1.267 . S
O1119 Zn1105 1.965 . S
O1119 C1123 1.260 . S
O1120 Zn1104 1.969 . S
O1120 C1123 1.258 . S
O1121 Zn1105 2.024 . S
O1121 C1108 1.058 . S
C1122 O1111 1.260 . S
C1122 O1112 1.258 . S
C1123 O1119 1.260 . S
C1123 O1120 1.258 . S
Zn1124 O1130 1.969 . S
Zn1124 O1131 1.965 . S
Zn1124 O1135 2.024 . S
Zn1124 O1140 1.969 . S
Zn1125 O1132 1.969 . S
Zn1125 O1138 1.969 . S
Zn1125 O1139 1.965 . S
Zn1125 O1141 2.024 . S
C1126 O1127 1.229 . S
C1126 O1135 1.058 . S
O1127 C1126 1.229 . S
C1128 O1129 1.229 . S
C1128 O1141 1.058 . S
O1129 C1128 1.229 . S
O1130 Zn1124 1.969 . S
O1130 C1133 1.267 . S
O1131 Zn1124 1.965 . S
O1131 C1142 1.260 . S
O1132 Zn1125 1.969 . S
O1132 C1142 1.258 . S
C1133 O1130 1.267 . S
C1133 O1134 1.228 . S
O1134 C1133 1.228 . S
O1135 Zn1124 2.024 . S
O1135 C1126 1.058 . S
C1136 O1137 1.228 . S
C1136 O1138 1.267 . S
O1137 C1136 1.228 . S
O1138 Zn1125 1.969 . S
O1138 C1136 1.267 . S
O1139 Zn1125 1.965 . S
O1139 C1143 1.260 . S
O1140 Zn1124 1.969 . S
O1140 C1143 1.258 . S
O1141 Zn1125 2.024 . S
O1141 C1128 1.058 . S
C1142 O1131 1.260 . S
C1142 O1132 1.258 . S
C1143 O1139 1.260 . S
C1143 O1140 1.258 . S
Zn1144 O1150 1.969 . S
Zn1144 O1151 1.965 . S
Zn1144 O1155 2.024 . S
Zn1144 O1160 1.969 . S
Zn1145 O1152 1.969 . S
Zn1145 O1158 1.969 . S
Zn1145 O1159 1.965 . S
Zn1145 O1161 2.024 . S
C1146 O1147 1.229 . S
C1146 O1155 1.058 . S
O1147 C1146 1.229 . S
C1148 O1149 1.229 . S
C1148 O1161 1.058 . S
O1149 C1148 1.229 . S
O1150 Zn1144 1.969 . S
O1150 C1153 1.267 . S
O1151 Zn1144 1.965 . S
O1151 C1162 1.260 . S
O1152 Zn1145 1.969 . S
O1152 C1162 1.258 . S
C1153 O1150 1.267 . S
C1153 O1154 1.228 . S
O1154 C1153 1.228 . S
O1155 Zn1144 2.024 . S
O1155 C1146 1.058 . S
C1156 O1157 1.228 . S
C1156 O1158 1.267 . S
O1157 C1156 1.228 . S
O1158 Zn1145 1.969 . S
O1158 C1156 1.267 . S
O1159 Zn1145 1.965 . S
O1159 C1163 1.260 . S
O1160 Zn1144 1.969 . S
O1160 C1163 1.258 . S
O1161 Zn1145 2.024 . S
O1161 C1148 1.058 . S
C1162 O1151 1.260 . S
C1162 O1152 1.258 . S
C1163 O1159 1.260 . S
C1163 O1160 1.258 . S
Zn1164 O1170 1.969 . S
Zn1164 O1171 1.965 . S
Zn1164 O1175 2.024 1_655 S
Zn1164 O1180 1.969 1_655 S
Zn1165 O1172 1.969 1_554 S
Zn1165 O1178 1.980 . S
Zn1165 O1179 1.965 . S
Zn1165 O1181 2.024 . S
C1166 O1167 1.229 . S
C1166 O1175 1.058 . S
O1167 C1166 1.229 . S
C1168 O1169 1.277 . S
C1168 O1181 1.014 1_556 S
O1169 C1168 1.277 . S
O1170 Zn1164 1.969 . S
O1170 C1173 1.267 . S
O1171 Zn1164 1.965 . S
O1171 C1182 1.260 1_654 S
O1172 Zn1165 1.969 1_556 S
O1172 C1182 1.258 . S
C1173 O1170 1.267 . S
C1173 O1174 1.228 . S
O1174 C1173 1.228 . S
O1175 Zn1164 2.024 1_455 S
O1175 C1166 1.058 . S
C1176 O1177 1.228 . S
C1176 O1178 1.284 . S
O1177 C1176 1.228 . S
O1178 Zn1165 1.980 . S
O1178 C1176 1.284 . S
O1179 Zn1165 1.965 . S
O1179 C1183 1.260 . S
O1180 Zn1164 1.969 1_455 S
O1180 C1183 1.258 . S
O1181 Zn1165 2.024 . S
O1181 C1168 1.014 1_554 S
C1182 O1171 1.260 1_456 S
C1182 O1172 1.258 . S
C1183 O1179 1.260 . S
C1183 O1180 1.258 . S
H1184 C1192 0.929 . S
H1185 C1194 0.930 . S
H1186 C1196 0.930 . S
H1187 C1199 0.929 . S
H1188 C1202 0.930 . S
H1189 C1204 0.960 . S
H1190 C1204 0.960 . S
H1191 C1204 0.960 . S
C1192 H1184 0.929 . S
C1192 C1193 1.377 1_455 S
C1192 C1194 1.384 . S
C1193 C1192 1.377 1_655 S
C1193 C1199 1.390 . S
C1194 H1185 0.930 . S
C1194 C1192 1.384 . S
C1194 C1195 1.372 . S
C1195 C1194 1.372 . S
C1195 C1196 1.400 1_455 S
C1195 C1200 1.490 . S
C1196 H1186 0.930 . S
C1196 C1195 1.400 1_655 S
C1196 C1199 1.386 . S
H1197 C1213 0.969 . S
H1198 C1214 0.931 . S
C1199 H1187 0.929 . S
C1199 C1193 1.390 . S
C1199 C1196 1.386 . S
C1200 C1195 1.490 . S
C1200 C1202 1.395 . S
C1200 C1203 1.403 1_455 S
H1201 C1207 0.930 . S
C1202 H1188 0.930 . S
C1202 C1200 1.395 . S
C1202 C1205 1.403 . S
C1203 C1200 1.403 1_655 S
C1203 C1204 1.524 . S
C1203 C1207 1.400 . S
C1204 H1189 0.960 . S
C1204 H1190 0.960 . S
C1204 H1191 0.960 . S
C1204 C1203 1.524 . S
C1205 C1202 1.403 . S
C1205 C1206 1.392 . S
C1205 C1209 1.495 . S
C1206 C1205 1.392 . S
C1206 C1207 1.385 1_455 S
C1206 C1208 1.478 . S
C1207 H1201 0.930 . S
C1207 C1203 1.400 . S
C1207 C1206 1.385 1_655 S
C1208 C1206 1.478 . S
C1208 C1210 1.381 . S
C1208 C1214 1.383 1_455 S
C1209 C1205 1.495 . S
C1209 H1215 0.959 . S
C1209 H1216 0.961 1_556 S
C1209 H1217 0.960 . S
C1210 C1208 1.381 . S
C1210 C1211 1.394 . S
C1210 H1218 0.930 . S
C1211 C1210 1.394 . S
C1211 C1212 1.411 . S
C1211 H1219 0.929 . S
C1212 C1211 1.411 . S
C1212 C1213 1.370 1_456 S
C1213 H1197 0.969 . S
C1213 C1212 1.370 1_654 S
C1213 C1214 1.349 1_554 S
C1214 H1198 0.931 . S
C1214 C1208 1.383 1_655 S
C1214 C1213 1.349 1_556 S
H1215 C1209 0.959 . S
H1216 C1209 0.961 1_554 S
H1217 C1209 0.960 . S
H1218 C1210 0.930 . S
H1219 C1211 0.929 . S
H1220 C1228 0.929 . S
H1221 C1230 0.930 . S
H1222 C1232 0.930 . S
H1223 C1235 0.929 . S
H1224 C1238 0.930 . S
H1225 C1240 0.960 . S
H1226 C1240 0.960 . S
H1227 C1240 0.960 . S
C1228 H1220 0.929 . S
C1228 C1229 1.377 . S
C1228 C1230 1.384 . S
C1229 C1228 1.377 . S
C1229 C1235 1.390 . S
C1230 H1221 0.930 . S
C1230 C1228 1.384 . S
C1230 C1231 1.372 . S
C1231 C1230 1.372 . S
C1231 C1232 1.400 . S
C1231 C1236 1.490 . S
C1232 H1222 0.930 . S
C1232 C1231 1.400 . S
C1232 C1235 1.386 . S
H1233 C1249 0.930 . S
H1234 C1250 0.931 . S
C1235 H1223 0.929 . S
C1235 C1229 1.390 . S
C1235 C1232 1.386 . S
C1236 C1231 1.490 . S
C1236 C1238 1.395 . S
C1236 C1239 1.403 . S
H1237 C1243 0.930 . S
C1238 H1224 0.930 . S
C1238 C1236 1.395 . S
C1238 C1241 1.403 . S
C1239 C1236 1.403 . S
C1239 C1240 1.524 . S
C1239 C1243 1.400 . S
C1240 H1225 0.960 . S
C1240 H1226 0.960 . S
C1240 H1227 0.960 . S
C1240 C1239 1.524 . S
C1241 C1238 1.403 . S
C1241 C1242 1.392 . S
C1241 C1245 1.495 . S
C1242 C1241 1.392 . S
C1242 C1243 1.385 . S
C1242 C1244 1.478 . S
C1243 H1237 0.930 . S
C1243 C1239 1.400 . S
C1243 C1242 1.385 . S
C1244 C1242 1.478 . S
C1244 C1246 1.381 . S
C1244 C1250 1.383 . S
C1245 C1241 1.495 . S
C1245 H1251 0.959 . S
C1245 H1252 0.961 . S
C1245 H1253 0.960 . S
C1246 C1244 1.381 . S
C1246 C1247 1.394 . S
C1246 H1254 0.930 . S
C1247 C1246 1.394 . S
C1247 C1248 1.383 . S
C1247 H1255 0.929 . S
C1248 C1247 1.383 . S
C1248 C1249 1.377 . S
C1249 H1233 0.930 . S
C1249 C1248 1.377 . S
C1249 C1250 1.379 . S
C1250 H1234 0.931 . S
C1250 C1244 1.383 . S
C1250 C1249 1.379 . S
H1251 C1245 0.959 . S
H1252 C1245 0.961 . S
H1253 C1245 0.960 . S
H1254 C1246 0.930 . S
H1255 C1247 0.929 . S
H1256 C1264 0.929 . S
H1257 C1266 0.930 . S
H1258 C1268 0.930 . S
H1259 C1271 0.929 . S
H1260 C1274 0.930 . S
H1261 C1276 0.960 . S
H1262 C1276 0.960 . S
H1263 C1276 0.960 . S
C1264 H1256 0.929 . S
C1264 C1265 1.377 . S
C1264 C1266 1.384 . S
C1265 C1264 1.377 . S
C1265 C1271 1.390 . S
C1266 H1257 0.930 . S
C1266 C1264 1.384 . S
C1266 C1267 1.372 . S
C1267 C1266 1.372 . S
C1267 C1268 1.400 . S
C1267 C1272 1.490 . S
C1268 H1258 0.930 . S
C1268 C1267 1.400 . S
C1268 C1271 1.386 . S
H1269 C1285 0.930 . S
H1270 C1286 0.931 . S
C1271 H1259 0.929 . S
C1271 C1265 1.390 . S
C1271 C1268 1.386 . S
C1272 C1267 1.490 . S
C1272 C1274 1.395 . S
C1272 C1275 1.403 . S
H1273 C1279 0.930 . S
C1274 H1260 0.930 . S
C1274 C1272 1.395 . S
C1274 C1277 1.403 . S
C1275 C1272 1.403 . S
C1275 C1276 1.524 . S
C1275 C1279 1.400 . S
C1276 H1261 0.960 . S
C1276 H1262 0.960 . S
C1276 H1263 0.960 . S
C1276 C1275 1.524 . S
C1277 C1274 1.403 . S
C1277 C1278 1.392 . S
C1277 C1281 1.495 . S
C1278 C1277 1.392 . S
C1278 C1279 1.385 . S
C1278 C1280 1.478 . S
C1279 H1273 0.930 . S
C1279 C1275 1.400 . S
C1279 C1278 1.385 . S
C1280 C1278 1.478 . S
C1280 C1282 1.381 . S
C1280 C1286 1.383 . S
C1281 C1277 1.495 . S
C1281 H1287 0.959 . S
C1281 H1288 0.961 . S
C1281 H1289 0.960 . S
C1282 C1280 1.381 . S
C1282 C1283 1.394 . S
C1282 H1290 0.930 . S
C1283 C1282 1.394 . S
C1283 C1284 1.383 . S
C1283 H1291 0.929 . S
C1284 C1283 1.383 . S
C1284 C1285 1.377 . S
C1285 H1269 0.930 . S
C1285 C1284 1.377 . S
C1285 C1286 1.379 . S
C1286 H1270 0.931 . S
C1286 C1280 1.383 . S
C1286 C1285 1.379 . S
H1287 C1281 0.959 . S
H1288 C1281 0.961 . S
H1289 C1281 0.960 . S
H1290 C1282 0.930 . S
H1291 C1283 0.929 . S
H1292 C1300 0.929 . S
H1293 C1302 0.930 . S
H1294 C1304 0.930 . S
H1295 C1307 0.929 . S
H1296 C1310 0.930 . S
H1297 C1312 0.960 . S
H1298 C1312 0.960 . S
H1299 C1312 0.960 . S
C1300 H1292 0.929 . S
C1300 C1301 1.377 . S
C1300 C1302 1.384 . S
C1301 C1300 1.377 . S
C1301 C1307 1.390 . S
C1302 H1293 0.930 . S
C1302 C1300 1.384 . S
C1302 C1303 1.372 . S
C1303 C1302 1.372 . S
C1303 C1304 1.400 . S
C1303 C1308 1.490 . S
C1304 H1294 0.930 . S
C1304 C1303 1.400 . S
C1304 C1307 1.386 . S
H1305 C1321 0.930 . S
H1306 C1322 0.931 . S
C1307 H1295 0.929 . S
C1307 C1301 1.390 . S
C1307 C1304 1.386 . S
C1308 C1303 1.490 . S
C1308 C1310 1.395 . S
C1308 C1311 1.403 . S
H1309 C1315 0.930 . S
C1310 H1296 0.930 . S
C1310 C1308 1.395 . S
C1310 C1313 1.403 . S
C1311 C1308 1.403 . S
C1311 C1312 1.524 . S
C1311 C1315 1.400 . S
C1312 H1297 0.960 . S
C1312 H1298 0.960 . S
C1312 H1299 0.960 . S
C1312 C1311 1.524 . S
C1313 C1310 1.403 . S
C1313 C1314 1.392 . S
C1313 C1317 1.495 . S
C1314 C1313 1.392 . S
C1314 C1315 1.385 . S
C1314 C1316 1.478 . S
C1315 H1309 0.930 . S
C1315 C1311 1.400 . S
C1315 C1314 1.385 . S
C1316 C1314 1.478 . S
C1316 C1318 1.381 . S
C1316 C1322 1.383 . S
C1317 C1313 1.495 . S
C1317 H1323 0.959 . S
C1317 H1324 0.961 . S
C1317 H1325 0.960 . S
C1318 C1316 1.381 . S
C1318 C1319 1.394 . S
C1318 H1326 0.930 . S
C1319 C1318 1.394 . S
C1319 C1320 1.383 . S
C1319 H1327 0.929 . S
C1320 C1319 1.383 . S
C1320 C1321 1.377 . S
C1321 H1305 0.930 . S
C1321 C1320 1.377 . S
C1321 C1322 1.379 . S
C1322 H1306 0.931 . S
C1322 C1316 1.383 . S
C1322 C1321 1.379 . S
H1323 C1317 0.959 . S
H1324 C1317 0.961 . S
H1325 C1317 0.960 . S
H1326 C1318 0.930 . S
H1327 C1319 0.929 . S
H1328 C1336 0.929 . S
H1329 C1338 0.930 . S
H1330 C1340 0.930 . S
H1331 C1343 0.929 . S
H1332 C1346 0.930 . S
H1333 C1348 0.960 . S
H1334 C1348 0.960 . S
H1335 C1348 0.960 . S
C1336 H1328 0.929 . S
C1336 C1337 1.377 1_655 S
C1336 C1338 1.384 . S
C1337 C1336 1.377 1_455 S
C1337 C1343 1.390 . S
C1338 H1329 0.930 . S
C1338 C1336 1.384 . S
C1338 C1339 1.372 1_655 S
C1339 C1338 1.372 1_455 S
C1339 C1340 1.400 . S
C1339 C1344 1.490 . S
C1340 H1330 0.930 . S
C1340 C1339 1.400 . S
C1340 C1343 1.386 . S
H1341 C1357 0.930 . S
H1342 C1358 0.931 . S
C1343 H1331 0.929 . S
C1343 C1337 1.390 . S
C1343 C1340 1.386 . S
C1344 C1339 1.490 . S
C1344 C1346 1.395 1_455 S
C1344 C1347 1.403 . S
H1345 C1351 0.930 . S
C1346 H1332 0.930 . S
C1346 C1344 1.395 1_655 S
C1346 C1349 1.403 . S
C1347 C1344 1.403 . S
C1347 C1348 1.524 . S
C1347 C1351 1.400 . S
C1348 H1333 0.960 . S
C1348 H1334 0.960 . S
C1348 H1335 0.960 . S
C1348 C1347 1.524 . S
C1349 C1346 1.403 . S
C1349 C1350 1.392 1_655 S
C1349 C1353 1.495 . S
C1350 C1349 1.392 1_455 S
C1350 C1351 1.385 . S
C1350 C1352 1.478 . S
C1351 H1345 0.930 . S
C1351 C1347 1.400 . S
C1351 C1350 1.385 . S
C1352 C1350 1.478 . S
C1352 C1354 1.381 1_455 S
C1352 C1358 1.383 . S
C1353 C1349 1.495 . S
C1353 H1359 0.959 . S
C1353 H1360 0.961 . S
C1353 H1361 0.960 . S
C1354 C1352 1.381 1_655 S
C1354 C1355 1.394 1_655 S
C1354 H1362 0.930 . S
C1355 C1354 1.394 1_455 S
C1355 C1356 1.381 . S
C1355 H1363 0.931 1_455 S
C1356 C1355 1.381 . S
C1356 C1357 1.377 . S
C1357 H1341 0.930 . S
C1357 C1356 1.377 . S
C1357 C1358 1.379 . S
C1358 H1342 0.931 . S
C1358 C1352 1.383 . S
C1358 C1357 1.379 . S
H1359 C1353 0.959 . S
H1360 C1353 0.961 . S
H1361 C1353 0.960 . S
H1362 C1354 0.930 . S
H1363 C1355 0.931 1_655 S
H1364 C1372 0.929 . S
H1365 C1374 0.930 . S
H1366 C1376 0.930 . S
H1367 C1379 0.929 . S
H1368 C1382 0.930 . S
H1369 C1384 0.960 . S
H1370 C1384 0.960 . S
H1371 C1384 0.960 . S
C1372 H1364 0.929 . S
C1372 C1373 1.377 . S
C1372 C1374 1.384 . S
C1373 C1372 1.377 . S
C1373 C1379 1.390 . S
C1374 H1365 0.930 . S
C1374 C1372 1.384 . S
C1374 C1375 1.372 . S
C1375 C1374 1.372 . S
C1375 C1376 1.400 . S
C1375 C1380 1.490 . S
C1376 H1366 0.930 . S
C1376 C1375 1.400 . S
C1376 C1379 1.386 . S
H1377 C1393 0.930 . S
H1378 C1394 0.931 . S
C1379 H1367 0.929 . S
C1379 C1373 1.390 . S
C1379 C1376 1.386 . S
C1380 C1375 1.490 . S
C1380 C1382 1.395 . S
C1380 C1383 1.403 . S
H1381 C1387 0.930 . S
C1382 H1368 0.930 . S
C1382 C1380 1.395 . S
C1382 C1385 1.403 . S
C1383 C1380 1.403 . S
C1383 C1384 1.524 . S
C1383 C1387 1.400 . S
C1384 H1369 0.960 . S
C1384 H1370 0.960 . S
C1384 H1371 0.960 . S
C1384 C1383 1.524 . S
C1385 C1382 1.403 . S
C1385 C1386 1.392 . S
C1385 C1389 1.495 . S
C1386 C1385 1.392 . S
C1386 C1387 1.385 . S
C1386 C1388 1.478 . S
C1387 H1381 0.930 . S
C1387 C1383 1.400 . S
C1387 C1386 1.385 . S
C1388 C1386 1.478 . S
C1388 C1390 1.381 . S
C1388 C1394 1.383 . S
C1389 C1385 1.495 . S
C1389 H1395 0.959 . S
C1389 H1396 0.961 . S
C1389 H1397 0.960 . S
C1390 C1388 1.381 . S
C1390 C1391 1.394 . S
C1390 H1398 0.930 . S
C1391 C1390 1.394 . S
C1391 C1392 1.383 . S
C1391 H1399 0.929 . S
C1392 C1391 1.383 . S
C1392 C1393 1.377 . S
C1393 H1377 0.930 . S
C1393 C1392 1.377 . S
C1393 C1394 1.379 . S
C1394 H1378 0.931 . S
C1394 C1388 1.383 . S
C1394 C1393 1.379 . S
H1395 C1389 0.959 . S
H1396 C1389 0.961 . S
H1397 C1389 0.960 . S
H1398 C1390 0.930 . S
H1399 C1391 0.929 . S
H1400 C1408 0.929 . S
H1401 C1410 0.930 . S
H1402 C1412 0.930 . S
H1403 C1415 0.929 . S
H1404 C1418 0.930 . S
H1405 C1420 0.960 . S
H1406 C1420 0.960 . S
H1407 C1420 0.960 . S
C1408 H1400 0.929 . S
C1408 C1409 1.377 . S
C1408 C1410 1.384 . S
C1409 C1408 1.377 . S
C1409 C1415 1.390 . S
C1410 H1401 0.930 . S
C1410 C1408 1.384 . S
C1410 C1411 1.372 . S
C1411 C1410 1.372 . S
C1411 C1412 1.400 . S
C1411 C1416 1.490 . S
C1412 H1402 0.930 . S
C1412 C1411 1.400 . S
C1412 C1415 1.386 . S
H1413 C1429 0.930 . S
H1414 C1430 0.931 . S
C1415 H1403 0.929 . S
C1415 C1409 1.390 . S
C1415 C1412 1.386 . S
C1416 C1411 1.490 . S
C1416 C1418 1.395 . S
C1416 C1419 1.403 . S
H1417 C1423 0.930 . S
C1418 H1404 0.930 . S
C1418 C1416 1.395 . S
C1418 C1421 1.403 . S
C1419 C1416 1.403 . S
C1419 C1420 1.524 . S
C1419 C1423 1.400 . S
C1420 H1405 0.960 . S
C1420 H1406 0.960 . S
C1420 H1407 0.960 . S
C1420 C1419 1.524 . S
C1421 C1418 1.403 . S
C1421 C1422 1.392 . S
C1421 C1425 1.495 . S
C1422 C1421 1.392 . S
C1422 C1423 1.385 . S
C1422 C1424 1.478 . S
C1423 H1417 0.930 . S
C1423 C1419 1.400 . S
C1423 C1422 1.385 . S
C1424 C1422 1.478 . S
C1424 C1426 1.381 . S
C1424 C1430 1.383 . S
C1425 C1421 1.495 . S
C1425 H1431 0.959 . S
C1425 H1432 0.961 . S
C1425 H1433 0.960 . S
C1426 C1424 1.381 . S
C1426 C1427 1.394 . S
C1426 H1434 0.930 . S
C1427 C1426 1.394 . S
C1427 C1428 1.383 . S
C1427 H1435 0.929 . S
C1428 C1427 1.383 . S
C1428 C1429 1.377 . S
C1429 H1413 0.930 . S
C1429 C1428 1.377 . S
C1429 C1430 1.379 . S
C1430 H1414 0.931 . S
C1430 C1424 1.383 . S
C1430 C1429 1.379 . S
H1431 C1425 0.959 . S
H1432 C1425 0.961 . S
H1433 C1425 0.960 . S
H1434 C1426 0.930 . S
H1435 C1427 0.929 . S
H1436 C1444 0.929 . S
H1437 C1446 0.930 . S
H1438 C1448 0.930 . S
H1439 C1451 0.929 . S
H1440 C1454 0.930 . S
H1441 C1456 0.960 . S
H1442 C1456 0.960 . S
H1443 C1456 0.960 . S
C1444 H1436 0.929 . S
C1444 C1445 1.377 . S
C1444 C1446 1.384 . S
C1445 C1444 1.377 . S
C1445 C1451 1.390 . S
C1446 H1437 0.930 . S
C1446 C1444 1.384 . S
C1446 C1447 1.372 . S
C1447 C1446 1.372 . S
C1447 C1448 1.400 . S
C1447 C1452 1.490 . S
C1448 H1438 0.930 . S
C1448 C1447 1.400 . S
C1448 C1451 1.386 . S
H1449 C1465 0.930 . S
H1450 C1466 0.931 . S
C1451 H1439 0.929 . S
C1451 C1445 1.390 . S
C1451 C1448 1.386 . S
C1452 C1447 1.490 . S
C1452 C1454 1.395 . S
C1452 C1455 1.403 . S
H1453 C1459 0.930 . S
C1454 H1440 0.930 . S
C1454 C1452 1.395 . S
C1454 C1457 1.403 . S
C1455 C1452 1.403 . S
C1455 C1456 1.524 . S
C1455 C1459 1.400 . S
C1456 H1441 0.960 . S
C1456 H1442 0.960 . S
C1456 H1443 0.960 . S
C1456 C1455 1.524 . S
C1457 C1454 1.403 . S
C1457 C1458 1.392 . S
C1457 C1461 1.495 . S
C1458 C1457 1.392 . S
C1458 C1459 1.385 . S
C1458 C1460 1.478 . S
C1459 H1453 0.930 . S
C1459 C1455 1.400 . S
C1459 C1458 1.385 . S
C1460 C1458 1.478 . S
C1460 C1462 1.381 . S
C1460 C1466 1.383 . S
C1461 C1457 1.495 . S
C1461 H1467 0.959 . S
C1461 H1468 0.961 . S
C1461 H1469 0.960 . S
C1462 C1460 1.381 . S
C1462 C1463 1.394 . S
C1462 H1470 0.930 . S
C1463 C1462 1.394 . S
C1463 C1464 1.383 . S
C1463 H1471 0.929 . S
C1464 C1463 1.383 . S
C1464 C1465 1.377 . S
C1465 H1449 0.930 . S
C1465 C1464 1.377 . S
C1465 C1466 1.379 . S
C1466 H1450 0.931 . S
C1466 C1460 1.383 . S
C1466 C1465 1.379 . S
H1467 C1461 0.959 . S
H1468 C1461 0.961 . S
H1469 C1461 0.960 . S
H1470 C1462 0.930 . S
H1471 C1463 0.929 . S
H1472 C1480 0.929 . S
H1473 C1482 0.930 . S
H1474 C1484 0.930 . S
H1475 C1487 0.929 . S
H1476 C1490 0.930 . S
H1477 C1492 0.962 . S
H1478 C1492 0.950 1_545 S
H1479 C1492 0.970 . S
C1480 H1472 0.929 . S
C1480 C1481 1.377 . S
C1480 C1482 1.384 . S
C1481 C1480 1.377 . S
C1481 C1487 1.390 1_545 S
C1482 H1473 0.930 . S
C1482 C1480 1.384 . S
C1482 C1483 1.372 . S
C1483 C1482 1.372 . S
C1483 C1484 1.400 1_545 S
C1483 C1488 1.490 . S
C1484 H1474 0.930 . S
C1484 C1483 1.400 1_565 S
C1484 C1487 1.386 . S
H1485 C1501 0.930 . S
H1486 C1502 0.931 . S
C1487 H1475 0.929 . S
C1487 C1481 1.390 1_565 S
C1487 C1484 1.386 . S
C1488 C1483 1.490 . S
C1488 C1490 1.395 . S
C1488 C1491 1.403 . S
H1489 C1495 0.930 . S
C1490 H1476 0.930 . S
C1490 C1488 1.395 . S
C1490 C1493 1.403 . S
C1491 C1488 1.403 . S
C1491 C1492 1.523 1_545 S
C1491 C1495 1.400 . S
C1492 H1477 0.962 . S
C1492 H1478 0.950 1_565 S
C1492 H1479 0.970 . S
C1492 C1491 1.523 1_565 S
C1493 C1490 1.403 . S
C1493 C1494 1.392 . S
C1493 C1497 1.495 . S
C1494 C1493 1.392 . S
C1494 C1495 1.385 . S
C1494 C1496 1.478 . S
C1495 H1489 0.930 . S
C1495 C1491 1.400 . S
C1495 C1494 1.385 . S
C1496 C1494 1.478 . S
C1496 C1498 1.381 . S
C1496 C1502 1.383 1_545 S
C1497 C1493 1.495 . S
C1497 H1503 0.959 1_655 S
C1497 H1504 0.961 1_655 S
C1497 H1505 0.960 1_655 S
C1498 C1496 1.381 . S
C1498 C1499 1.394 . S
C1498 H1506 0.930 . S
C1499 C1498 1.394 . S
C1499 C1500 1.383 . S
C1499 H1507 0.929 . S
C1500 C1499 1.383 . S
C1500 C1501 1.377 1_545 S
C1501 H1485 0.930 . S
C1501 C1500 1.377 1_565 S
C1501 C1502 1.379 . S
C1502 H1486 0.931 . S
C1502 C1496 1.383 1_565 S
C1502 C1501 1.379 . S
H1503 C1497 0.959 1_455 S
H1504 C1497 0.961 1_455 S
H1505 C1497 0.960 1_455 S
H1506 C1498 0.930 . S
H1507 C1499 0.929 . S
H1508 C1516 0.929 . S
H1509 C1518 0.930 . S
H1510 C1520 0.930 . S
H1511 C1523 0.929 . S
H1512 C1526 0.930 . S
H1513 C1528 0.960 . S
H1514 C1528 0.960 . S
H1515 C1528 0.960 . S
C1516 H1508 0.929 . S
C1516 C1517 1.377 . S
C1516 C1518 1.384 . S
C1517 C1516 1.377 . S
C1517 C1523 1.390 . S
C1518 H1509 0.930 . S
C1518 C1516 1.384 . S
C1518 C1519 1.372 . S
C1519 C1518 1.372 . S
C1519 C1520 1.400 . S
C1519 C1524 1.490 . S
C1520 H1510 0.930 . S
C1520 C1519 1.400 . S
C1520 C1523 1.386 . S
H1521 C1537 0.930 . S
H1522 C1538 0.931 . S
C1523 H1511 0.929 . S
C1523 C1517 1.390 . S
C1523 C1520 1.386 . S
C1524 C1519 1.490 . S
C1524 C1526 1.395 . S
C1524 C1527 1.403 . S
H1525 C1531 0.930 . S
C1526 H1512 0.930 . S
C1526 C1524 1.395 . S
C1526 C1529 1.403 . S
C1527 C1524 1.403 . S
C1527 C1528 1.524 . S
C1527 C1531 1.400 . S
C1528 H1513 0.960 . S
C1528 H1514 0.960 . S
C1528 H1515 0.960 . S
C1528 C1527 1.524 . S
C1529 C1526 1.403 . S
C1529 C1530 1.392 . S
C1529 C1533 1.495 . S
C1530 C1529 1.392 . S
C1530 C1531 1.385 . S
C1530 C1532 1.478 . S
C1531 H1525 0.930 . S
C1531 C1527 1.400 . S
C1531 C1530 1.385 . S
C1532 C1530 1.478 . S
C1532 C1534 1.381 . S
C1532 C1538 1.383 . S
C1533 C1529 1.495 . S
C1533 H1539 0.959 . S
C1533 H1540 0.961 . S
C1533 H1541 0.960 . S
C1534 C1532 1.381 . S
C1534 C1535 1.394 . S
C1534 H1542 0.930 . S
C1535 C1534 1.394 . S
C1535 C1536 1.383 . S
C1535 H1543 0.929 . S
C1536 C1535 1.383 . S
C1536 C1537 1.377 . S
C1537 H1521 0.930 . S
C1537 C1536 1.377 . S
C1537 C1538 1.379 . S
C1538 H1522 0.931 . S
C1538 C1532 1.383 . S
C1538 C1537 1.379 . S
H1539 C1533 0.959 . S
H1540 C1533 0.961 . S
H1541 C1533 0.960 . S
H1542 C1534 0.930 . S
H1543 C1535 0.929 . S
H1544 C1552 0.929 . S
H1545 C1554 0.930 . S
H1546 C1556 0.930 . S
H1547 C1559 0.929 . S
H1548 C1562 0.930 . S
H1549 C1564 0.960 . S
H1550 C1564 0.960 . S
H1551 C1564 0.960 . S
C1552 H1544 0.929 . S
C1552 C1553 1.377 . S
C1552 C1554 1.384 . S
C1553 C1552 1.377 . S
C1553 C1559 1.390 1_565 S
C1554 H1545 0.930 . S
C1554 C1552 1.384 . S
C1554 C1555 1.374 . S
C1555 C1554 1.374 . S
C1555 C1556 1.401 1_565 S
C1555 C1560 1.487 1_565 S
C1556 H1546 0.930 . S
C1556 C1555 1.401 1_545 S
C1556 C1559 1.386 . S
H1557 C1573 0.930 . S
H1558 C1574 0.931 . S
C1559 H1547 0.929 . S
C1559 C1553 1.390 1_545 S
C1559 C1556 1.386 . S
C1560 C1555 1.487 1_545 S
C1560 C1562 1.395 . S
C1560 C1563 1.403 1_545 S
H1561 C1567 0.930 . S
C1562 H1548 0.930 . S
C1562 C1560 1.395 . S
C1562 C1565 1.403 . S
C1563 C1560 1.403 1_565 S
C1563 C1564 1.524 . S
C1563 C1567 1.400 . S
C1564 H1549 0.960 . S
C1564 H1550 0.960 . S
C1564 H1551 0.960 . S
C1564 C1563 1.524 . S
C1565 C1562 1.403 . S
C1565 C1566 1.392 . S
C1565 C1569 1.495 . S
C1566 C1565 1.392 . S
C1566 C1567 1.385 1_545 S
C1566 C1568 1.478 . S
C1567 H1561 0.930 . S
C1567 C1563 1.400 . S
C1567 C1566 1.385 1_565 S
C1568 C1566 1.478 . S
C1568 C1570 1.381 . S
C1568 C1574 1.383 . S
C1569 C1565 1.495 . S
C1569 H1575 0.959 . S
C1569 H1576 0.961 . S
C1569 H1577 0.960 . S
C1570 C1568 1.381 . S
C1570 C1571 1.394 . S
C1570 H1578 0.926 1_545 S
C1571 C1570 1.394 . S
C1571 C1572 1.383 . S
C1571 H1579 0.927 1_545 S
C1572 C1571 1.383 . S
C1572 C1573 1.377 . S
C1573 H1557 0.930 . S
C1573 C1572 1.377 . S
C1573 C1574 1.379 . S
C1574 H1558 0.931 . S
C1574 C1568 1.383 . S
C1574 C1573 1.379 . S
H1575 C1569 0.959 . S
H1576 C1569 0.961 . S
H1577 C1569 0.960 . S
H1578 C1570 0.926 1_565 S
H1579 C1571 0.927 1_565 S
H1580 C1588 0.929 . S
H1581 C1590 0.930 . S
H1582 C1592 0.930 . S
H1583 C1595 0.929 . S
H1584 C1598 0.930 . S
H1585 C1600 0.960 . S
H1586 C1600 0.960 . S
H1587 C1600 0.960 . S
C1588 H1580 0.929 . S
C1588 C1589 1.377 . S
C1588 C1590 1.384 . S
C1589 C1588 1.377 . S
C1589 C1595 1.390 . S
C1590 H1581 0.930 . S
C1590 C1588 1.384 . S
C1590 C1591 1.372 . S
C1591 C1590 1.372 . S
C1591 C1592 1.400 . S
C1591 C1596 1.490 . S
C1592 H1582 0.930 . S
C1592 C1591 1.400 . S
C1592 C1595 1.386 . S
H1593 C1609 0.930 . S
H1594 C1610 0.931 . S
C1595 H1583 0.929 . S
C1595 C1589 1.390 . S
C1595 C1592 1.386 . S
C1596 C1591 1.490 . S
C1596 C1598 1.395 . S
C1596 C1599 1.403 . S
H1597 C1603 0.930 . S
C1598 H1584 0.930 . S
C1598 C1596 1.395 . S
C1598 C1601 1.403 . S
C1599 C1596 1.403 . S
C1599 C1600 1.524 . S
C1599 C1603 1.400 . S
C1600 H1585 0.960 . S
C1600 H1586 0.960 . S
C1600 H1587 0.960 . S
C1600 C1599 1.524 . S
C1601 C1598 1.403 . S
C1601 C1602 1.392 . S
C1601 C1605 1.495 . S
C1602 C1601 1.392 . S
C1602 C1603 1.385 . S
C1602 C1604 1.478 . S
C1603 H1597 0.930 . S
C1603 C1599 1.400 . S
C1603 C1602 1.385 . S
C1604 C1602 1.478 . S
C1604 C1606 1.381 . S
C1604 C1610 1.383 . S
C1605 C1601 1.495 . S
C1605 H1611 0.959 . S
C1605 H1612 0.961 . S
C1605 H1613 0.960 . S
C1606 C1604 1.381 . S
C1606 C1607 1.394 . S
C1606 H1614 0.930 . S
C1607 C1606 1.394 . S
C1607 C1608 1.383 . S
C1607 H1615 0.929 . S
C1608 C1607 1.383 . S
C1608 C1609 1.377 . S
C1609 H1593 0.930 . S
C1609 C1608 1.377 . S
C1609 C1610 1.379 . S
C1610 H1594 0.931 . S
C1610 C1604 1.383 . S
C1610 C1609 1.379 . S
H1611 C1605 0.959 . S
H1612 C1605 0.961 . S
H1613 C1605 0.960 . S
H1614 C1606 0.930 . S
H1615 C1607 0.929 . S
H1616 C1624 0.929 . S
H1617 C1626 0.930 . S
H1618 C1628 0.930 . S
H1619 C1631 0.929 . S
H1620 C1634 0.930 . S
H1621 C1636 0.960 . S
H1622 C1636 0.960 . S
H1623 C1636 0.960 . S
C1624 H1616 0.929 . S
C1624 C1625 1.377 . S
C1624 C1626 1.384 . S
C1625 C1624 1.377 . S
C1625 C1631 1.390 . S
C1626 H1617 0.930 . S
C1626 C1624 1.384 . S
C1626 C1627 1.372 . S
C1627 C1626 1.372 . S
C1627 C1628 1.400 . S
C1627 C1632 1.490 . S
C1628 H1618 0.930 . S
C1628 C1627 1.400 . S
C1628 C1631 1.386 . S
H1629 C1645 0.930 . S
H1630 C1646 0.931 . S
C1631 H1619 0.929 . S
C1631 C1625 1.390 . S
C1631 C1628 1.386 . S
C1632 C1627 1.490 . S
C1632 C1634 1.395 . S
C1632 C1635 1.403 1_545 S
H1633 C1639 0.941 . S
C1634 H1620 0.930 . S
C1634 C1632 1.395 . S
C1634 C1637 1.403 . S
C1635 C1632 1.403 1_565 S
C1635 C1636 1.524 . S
C1635 C1639 1.398 . S
C1636 H1621 0.960 . S
C1636 H1622 0.960 . S
C1636 H1623 0.960 . S
C1636 C1635 1.524 . S
C1637 C1634 1.403 . S
C1637 C1638 1.392 . S
C1637 C1641 1.495 . S
C1638 C1637 1.392 . S
C1638 C1639 1.377 1_545 S
C1638 C1640 1.478 . S
C1639 H1633 0.941 . S
C1639 C1635 1.398 . S
C1639 C1638 1.377 1_565 S
C1640 C1638 1.478 . S
C1640 C1642 1.381 . S
C1640 C1646 1.383 . S
C1641 C1637 1.495 . S
C1641 H1647 0.959 . S
C1641 H1648 0.961 . S
C1641 H1649 0.960 1_655 S
C1642 C1640 1.381 . S
C1642 C1643 1.393 . S
C1642 H1650 0.930 . S
C1643 C1642 1.393 . S
C1643 C1644 1.381 . S
C1643 H1651 0.933 1_645 S
C1644 C1643 1.381 . S
C1644 C1645 1.377 . S
C1645 H1629 0.930 . S
C1645 C1644 1.377 . S
C1645 C1646 1.379 . S
C1646 H1630 0.931 . S
C1646 C1640 1.383 . S
C1646 C1645 1.379 . S
H1647 C1641 0.959 . S
H1648 C1641 0.961 . S
H1649 C1641 0.960 1_455 S
H1650 C1642 0.930 . S
H1651 C1643 0.933 1_465 S
H1652 C1660 0.929 . S
H1653 C1662 0.930 . S
H1654 C1664 0.930 . S
H1655 C1667 0.929 . S
H1656 C1670 0.930 . S
H1657 C1672 0.960 . S
H1658 C1672 0.960 . S
H1659 C1672 0.960 . S
C1660 H1652 0.929 . S
C1660 C1661 1.377 . S
C1660 C1662 1.384 . S
C1661 C1660 1.377 . S
C1661 C1667 1.390 . S
C1662 H1653 0.930 . S
C1662 C1660 1.384 . S
C1662 C1663 1.372 . S
C1663 C1662 1.372 . S
C1663 C1664 1.400 . S
C1663 C1668 1.490 . S
C1664 H1654 0.930 . S
C1664 C1663 1.400 . S
C1664 C1667 1.386 . S
H1665 C1681 0.930 . S
H1666 C1682 0.931 . S
C1667 H1655 0.929 . S
C1667 C1661 1.390 . S
C1667 C1664 1.386 . S
C1668 C1663 1.490 . S
C1668 C1670 1.395 . S
C1668 C1671 1.403 . S
H1669 C1675 0.930 . S
C1670 H1656 0.930 . S
C1670 C1668 1.395 . S
C1670 C1673 1.403 . S
C1671 C1668 1.403 . S
C1671 C1672 1.524 . S
C1671 C1675 1.400 . S
C1672 H1657 0.960 . S
C1672 H1658 0.960 . S
C1672 H1659 0.960 . S
C1672 C1671 1.524 . S
C1673 C1670 1.403 . S
C1673 C1674 1.392 . S
C1673 C1677 1.495 . S
C1674 C1673 1.392 . S
C1674 C1675 1.385 . S
C1674 C1676 1.478 . S
C1675 H1669 0.930 . S
C1675 C1671 1.400 . S
C1675 C1674 1.385 . S
C1676 C1674 1.478 . S
C1676 C1678 1.381 . S
C1676 C1682 1.383 . S
C1677 C1673 1.495 . S
C1677 H1683 0.959 . S
C1677 H1684 0.961 . S
C1677 H1685 0.960 . S
C1678 C1676 1.381 . S
C1678 C1679 1.394 . S
C1678 H1686 0.930 . S
C1679 C1678 1.394 . S
C1679 C1680 1.383 . S
C1679 H1687 0.929 . S
C1680 C1679 1.383 . S
C1680 C1681 1.377 . S
C1681 H1665 0.930 . S
C1681 C1680 1.377 . S
C1681 C1682 1.379 . S
C1682 H1666 0.931 . S
C1682 C1676 1.383 . S
C1682 C1681 1.379 . S
H1683 C1677 0.959 . S
H1684 C1677 0.961 . S
H1685 C1677 0.960 . S
H1686 C1678 0.930 . S
H1687 C1679 0.929 . S
H1688 C1696 0.929 . S
H1689 C1698 0.930 . S
H1690 C1700 0.930 . S
H1691 C1703 0.929 . S
H1692 C1706 0.930 . S
H1693 C1708 0.960 . S
H1694 C1708 0.960 . S
H1695 C1708 0.960 . S
C1696 H1688 0.929 . S
C1696 C1697 1.376 1_565 S
C1696 C1698 1.384 . S
C1697 C1696 1.376 1_545 S
C1697 C1703 1.391 . S
C1698 H1689 0.930 . S
C1698 C1696 1.384 . S
C1698 C1699 1.372 1_565 S
C1699 C1698 1.372 1_545 S
C1699 C1700 1.400 . S
C1699 C1704 1.490 . S
C1700 H1690 0.930 . S
C1700 C1699 1.400 . S
C1700 C1703 1.386 . S
H1701 C1717 0.930 . S
H1702 C1718 0.931 . S
C1703 H1691 0.929 . S
C1703 C1697 1.391 . S
C1703 C1700 1.386 . S
C1704 C1699 1.490 . S
C1704 C1706 1.395 . S
C1704 C1707 1.416 . S
H1705 C1711 0.933 . S
C1706 H1692 0.930 . S
C1706 C1704 1.395 . S
C1706 C1709 1.403 . S
C1707 C1704 1.416 . S
C1707 C1708 1.502 1_545 S
C1707 C1711 1.411 . S
C1708 H1693 0.960 . S
C1708 H1694 0.960 . S
C1708 H1695 0.960 . S
C1708 C1707 1.502 1_565 S
C1709 C1706 1.403 . S
C1709 C1710 1.392 . S
C1709 C1713 1.495 . S
C1710 C1709 1.392 . S
C1710 C1711 1.385 . S
C1710 C1712 1.478 . S
C1711 H1705 0.933 . S
C1711 C1707 1.411 . S
C1711 C1710 1.385 . S
C1712 C1710 1.478 . S
C1712 C1714 1.381 . S
C1712 C1718 1.383 . S
C1713 C1709 1.495 . S
C1713 H1719 0.959 . S
C1713 H1720 0.961 . S
C1713 H1721 0.960 . S
C1714 C1712 1.381 . S
C1714 C1715 1.394 . S
C1714 H1722 0.930 . S
C1715 C1714 1.394 . S
C1715 C1716 1.383 . S
C1715 H1723 0.929 . S
C1716 C1715 1.383 . S
C1716 C1717 1.377 . S
C1717 H1701 0.930 . S
C1717 C1716 1.377 . S
C1717 C1718 1.379 . S
C1718 H1702 0.931 . S
C1718 C1712 1.383 . S
C1718 C1717 1.379 . S
H1719 C1713 0.959 . S
H1720 C1713 0.961 . S
H1721 C1713 0.960 . S
H1722 C1714 0.930 . S
H1723 C1715 0.929 . S
H1724 C1732 0.929 . S
H1725 C1734 0.930 . S
H1726 C1736 0.930 . S
H1727 C1739 0.929 . S
H1728 C1742 0.930 . S
H1729 C1744 0.960 . S
H1730 C1744 0.960 . S
H1731 C1744 0.960 . S
C1732 H1724 0.929 . S
C1732 C1733 1.377 . S
C1732 C1734 1.384 . S
C1733 C1732 1.377 . S
C1733 C1739 1.390 . S
C1734 H1725 0.930 . S
C1734 C1732 1.384 . S
C1734 C1735 1.372 . S
C1735 C1734 1.372 . S
C1735 C1736 1.400 . S
C1735 C1740 1.490 . S
C1736 H1726 0.930 . S
C1736 C1735 1.400 . S
C1736 C1739 1.386 . S
H1737 C1753 0.930 . S
H1738 C1754 0.931 . S
C1739 H1727 0.929 . S
C1739 C1733 1.390 . S
C1739 C1736 1.386 . S
C1740 C1735 1.490 . S
C1740 C1742 1.395 . S
C1740 C1743 1.403 . S
H1741 C1747 0.930 . S
C1742 H1728 0.930 . S
C1742 C1740 1.395 . S
C1742 C1745 1.403 . S
C1743 C1740 1.403 . S
C1743 C1744 1.524 . S
C1743 C1747 1.400 . S
C1744 H1729 0.960 . S
C1744 H1730 0.960 . S
C1744 H1731 0.960 . S
C1744 C1743 1.524 . S
C1745 C1742 1.403 . S
C1745 C1746 1.392 . S
C1745 C1749 1.495 . S
C1746 C1745 1.392 . S
C1746 C1747 1.385 . S
C1746 C1748 1.478 . S
C1747 H1741 0.930 . S
C1747 C1743 1.400 . S
C1747 C1746 1.385 . S
C1748 C1746 1.478 . S
C1748 C1750 1.381 . S
C1748 C1754 1.383 . S
C1749 C1745 1.495 . S
C1749 H1755 0.959 . S
C1749 H1756 0.961 . S
C1749 H1757 0.960 . S
C1750 C1748 1.381 . S
C1750 C1751 1.394 . S
C1750 H1758 0.930 . S
C1751 C1750 1.394 . S
C1751 C1752 1.383 . S
C1751 H1759 0.929 . S
C1752 C1751 1.383 . S
C1752 C1753 1.377 . S
C1753 H1737 0.930 . S
C1753 C1752 1.377 . S
C1753 C1754 1.379 . S
C1754 H1738 0.931 . S
C1754 C1748 1.383 . S
C1754 C1753 1.379 . S
H1755 C1749 0.959 . S
H1756 C1749 0.961 . S
H1757 C1749 0.960 . S
H1758 C1750 0.930 . S
H1759 C1751 0.929 . S
H1760 C1768 0.929 . S
H1761 C1770 0.930 . S
H1762 C1772 0.930 . S
H1763 C1775 0.929 . S
H1764 C1778 0.930 1_556 S
H1765 C1780 0.960 . S
H1766 C1780 0.960 . S
H1767 C1780 0.960 . S
C1768 H1760 0.929 . S
C1768 C1769 1.377 . S
C1768 C1770 1.384 . S
C1769 C1768 1.377 . S
C1769 C1775 1.390 . S
C1770 H1761 0.930 . S
C1770 C1768 1.384 . S
C1770 C1771 1.372 . S
C1771 C1770 1.372 . S
C1771 C1772 1.400 . S
C1771 C1776 1.490 . S
C1772 H1762 0.930 . S
C1772 C1771 1.400 . S
C1772 C1775 1.386 . S
H1773 C1789 0.930 . S
H1774 C1790 0.931 . S
C1775 H1763 0.929 . S
C1775 C1769 1.390 . S
C1775 C1772 1.386 . S
C1776 C1771 1.490 . S
C1776 C1778 1.395 . S
C1776 C1779 1.403 . S
H1777 C1783 0.930 . S
C1778 H1764 0.930 1_554 S
C1778 C1776 1.395 . S
C1778 C1781 1.403 . S
C1779 C1776 1.403 . S
C1779 C1780 1.524 . S
C1779 C1783 1.400 . S
C1780 H1765 0.960 . S
C1780 H1766 0.960 . S
C1780 H1767 0.960 . S
C1780 C1779 1.524 . S
C1781 C1778 1.403 . S
C1781 C1782 1.392 . S
C1781 C1785 1.495 1_554 S
C1782 C1781 1.392 . S
C1782 C1783 1.385 . S
C1782 C1784 1.478 . S
C1783 H1777 0.930 . S
C1783 C1779 1.400 . S
C1783 C1782 1.385 . S
C1784 C1782 1.478 . S
C1784 C1786 1.381 . S
C1784 C1790 1.383 . S
C1785 C1781 1.495 1_556 S
C1785 H1791 0.959 . S
C1785 H1792 0.961 . S
C1785 H1793 0.960 . S
C1786 C1784 1.381 . S
C1786 C1787 1.394 . S
C1786 H1794 0.930 . S
C1787 C1786 1.394 . S
C1787 C1788 1.383 . S
C1787 H1795 0.946 . S
C1788 C1787 1.383 . S
C1788 C1789 1.377 . S
C1789 H1773 0.930 . S
C1789 C1788 1.377 . S
C1789 C1790 1.379 . S
C1790 H1774 0.931 . S
C1790 C1784 1.383 . S
C1790 C1789 1.379 . S
H1791 C1785 0.959 . S
H1792 C1785 0.961 . S
H1793 C1785 0.960 . S
H1794 C1786 0.930 . S
H1795 C1787 0.946 . S
H1796 C1804 0.929 . S
H1797 C1806 0.930 . S
H1798 C1808 0.930 . S
H1799 C1811 0.929 . S
H1800 C1814 0.930 . S
H1801 C1816 0.960 . S
H1802 C1816 0.960 . S
H1803 C1816 0.960 . S
C1804 H1796 0.929 . S
C1804 C1805 1.377 1_554 S
C1804 C1806 1.384 . S
C1805 C1804 1.377 1_556 S
C1805 C1811 1.390 . S
C1806 H1797 0.930 . S
C1806 C1804 1.384 . S
C1806 C1807 1.372 . S
C1807 C1806 1.372 . S
C1807 C1808 1.400 1_554 S
C1807 C1812 1.490 . S
C1808 H1798 0.930 . S
C1808 C1807 1.400 1_556 S
C1808 C1811 1.386 . S
H1809 C1825 0.930 . S
H1810 C1826 0.931 . S
C1811 H1799 0.929 . S
C1811 C1805 1.390 . S
C1811 C1808 1.386 . S
C1812 C1807 1.490 . S
C1812 C1814 1.395 . S
C1812 C1815 1.403 1_554 S
H1813 C1819 0.930 . S
C1814 H1800 0.930 . S
C1814 C1812 1.395 . S
C1814 C1817 1.403 . S
C1815 C1812 1.403 1_556 S
C1815 C1816 1.524 . S
C1815 C1819 1.400 . S
C1816 H1801 0.960 . S
C1816 H1802 0.960 . S
C1816 H1803 0.960 . S
C1816 C1815 1.524 . S
C1817 C1814 1.403 . S
C1817 C1818 1.392 . S
C1817 C1821 1.495 . S
C1818 C1817 1.392 . S
C1818 C1819 1.385 1_554 S
C1818 C1820 1.478 . S
C1819 H1813 0.930 . S
C1819 C1815 1.400 . S
C1819 C1818 1.385 1_556 S
C1820 C1818 1.478 . S
C1820 C1822 1.381 . S
C1820 C1826 1.383 . S
C1821 C1817 1.495 . S
C1821 H1827 0.959 . S
C1821 H1828 0.961 . S
C1821 H1829 0.960 . S
C1822 C1820 1.381 . S
C1822 C1823 1.394 . S
C1822 H1830 0.930 . S
C1823 C1822 1.394 . S
C1823 C1824 1.383 . S
C1823 H1831 0.929 . S
C1824 C1823 1.383 . S
C1824 C1825 1.377 . S
C1825 H1809 0.930 . S
C1825 C1824 1.377 . S
C1825 C1826 1.379 . S
C1826 H1810 0.931 . S
C1826 C1820 1.383 . S
C1826 C1825 1.379 . S
H1827 C1821 0.959 . S
H1828 C1821 0.961 . S
H1829 C1821 0.960 . S
H1830 C1822 0.930 . S
H1831 C1823 0.929 . S
H1832 C1840 0.929 . S
H1833 C1842 0.930 . S
H1834 C1844 0.930 . S
H1835 C1847 0.929 . S
H1836 C1850 0.930 . S
H1837 C1852 0.960 . S
H1838 C1852 0.960 . S
H1839 C1852 0.960 . S
C1840 H1832 0.929 . S
C1840 C1841 1.377 . S
C1840 C1842 1.384 . S
C1841 C1840 1.377 . S
C1841 C1847 1.390 . S
C1842 H1833 0.930 . S
C1842 C1840 1.384 . S
C1842 C1843 1.372 . S
C1843 C1842 1.372 . S
C1843 C1844 1.400 . S
C1843 C1848 1.490 . S
C1844 H1834 0.930 . S
C1844 C1843 1.400 . S
C1844 C1847 1.386 . S
H1845 C1861 0.930 . S
H1846 C1862 0.931 . S
C1847 H1835 0.929 . S
C1847 C1841 1.390 . S
C1847 C1844 1.386 . S
C1848 C1843 1.490 . S
C1848 C1850 1.395 . S
C1848 C1851 1.403 . S
H1849 C1855 0.930 . S
C1850 H1836 0.930 . S
C1850 C1848 1.395 . S
C1850 C1853 1.403 . S
C1851 C1848 1.403 . S
C1851 C1852 1.524 . S
C1851 C1855 1.400 . S
C1852 H1837 0.960 . S
C1852 H1838 0.960 . S
C1852 H1839 0.960 . S
C1852 C1851 1.524 . S
C1853 C1850 1.403 . S
C1853 C1854 1.392 . S
C1853 C1857 1.495 . S
C1854 C1853 1.392 . S
C1854 C1855 1.385 . S
C1854 C1856 1.478 . S
C1855 H1849 0.930 . S
C1855 C1851 1.400 . S
C1855 C1854 1.385 . S
C1856 C1854 1.478 . S
C1856 C1858 1.381 . S
C1856 C1862 1.383 . S
C1857 C1853 1.495 . S
C1857 H1863 0.959 . S
C1857 H1864 0.961 . S
C1857 H1865 0.960 . S
C1858 C1856 1.381 . S
C1858 C1859 1.394 . S
C1858 H1866 0.930 . S
C1859 C1858 1.394 . S
C1859 C1860 1.383 . S
C1859 H1867 0.929 . S
C1860 C1859 1.383 . S
C1860 C1861 1.377 . S
C1861 H1845 0.930 . S
C1861 C1860 1.377 . S
C1861 C1862 1.379 . S
C1862 H1846 0.931 . S
C1862 C1856 1.383 . S
C1862 C1861 1.379 . S
H1863 C1857 0.959 . S
H1864 C1857 0.961 . S
H1865 C1857 0.960 . S
H1866 C1858 0.930 . S
H1867 C1859 0.929 . S
H1868 C1876 0.929 . S
H1869 C1878 0.930 . S
H1870 C1880 0.930 . S
H1871 C1883 0.929 . S
H1872 C1886 0.930 . S
H1873 C1888 0.960 . S
H1874 C1888 0.960 . S
H1875 C1888 0.960 . S
C1876 H1868 0.929 . S
C1876 C1877 1.377 . S
C1876 C1878 1.384 . S
C1877 C1876 1.377 . S
C1877 C1883 1.390 . S
C1878 H1869 0.930 . S
C1878 C1876 1.384 . S
C1878 C1879 1.372 . S
C1879 C1878 1.372 . S
C1879 C1880 1.400 . S
C1879 C1884 1.490 . S
C1880 H1870 0.930 . S
C1880 C1879 1.400 . S
C1880 C1883 1.386 . S
H1881 C1897 0.930 . S
H1882 C1898 0.931 . S
C1883 H1871 0.929 . S
C1883 C1877 1.390 . S
C1883 C1880 1.386 . S
C1884 C1879 1.490 . S
C1884 C1886 1.395 . S
C1884 C1887 1.403 . S
H1885 C1891 0.930 . S
C1886 H1872 0.930 . S
C1886 C1884 1.395 . S
C1886 C1889 1.403 . S
C1887 C1884 1.403 . S
C1887 C1888 1.524 . S
C1887 C1891 1.400 . S
C1888 H1873 0.960 . S
C1888 H1874 0.960 . S
C1888 H1875 0.960 . S
C1888 C1887 1.524 . S
C1889 C1886 1.403 . S
C1889 C1890 1.392 . S
C1889 C1893 1.495 . S
C1890 C1889 1.392 . S
C1890 C1891 1.385 . S
C1890 C1892 1.478 . S
C1891 H1885 0.930 . S
C1891 C1887 1.400 . S
C1891 C1890 1.385 . S
C1892 C1890 1.478 . S
C1892 C1894 1.381 . S
C1892 C1898 1.383 . S
C1893 C1889 1.495 . S
C1893 H1899 0.959 . S
C1893 H1900 0.961 . S
C1893 H1901 0.960 . S
C1894 C1892 1.381 . S
C1894 C1895 1.394 . S
C1894 H1902 0.930 . S
C1895 C1894 1.394 . S
C1895 C1896 1.383 . S
C1895 H1903 0.929 . S
C1896 C1895 1.383 . S
C1896 C1897 1.377 . S
C1897 H1881 0.930 . S
C1897 C1896 1.377 . S
C1897 C1898 1.379 . S
C1898 H1882 0.931 . S
C1898 C1892 1.383 . S
C1898 C1897 1.379 . S
H1899 C1893 0.959 . S
H1900 C1893 0.961 . S
H1901 C1893 0.960 . S
H1902 C1894 0.930 . S
H1903 C1895 0.929 . S
H1904 C1912 0.929 . S
H1905 C1914 0.930 . S
H1906 C1916 0.930 . S
H1907 C1919 0.929 . S
H1908 C1922 0.930 . S
H1909 C1924 0.960 . S
H1910 C1924 0.960 . S
H1911 C1924 0.960 . S
C1912 H1904 0.929 . S
C1912 C1913 1.377 . S
C1912 C1914 1.384 . S
C1913 C1912 1.377 . S
C1913 C1919 1.390 . S
C1914 H1905 0.930 . S
C1914 C1912 1.384 . S
C1914 C1915 1.372 . S
C1915 C1914 1.372 . S
C1915 C1916 1.400 . S
C1915 C1920 1.490 . S
C1916 H1906 0.930 . S
C1916 C1915 1.400 . S
C1916 C1919 1.386 . S
H1917 C1933 0.930 . S
H1918 C1934 0.931 . S
C1919 H1907 0.929 . S
C1919 C1913 1.390 . S
C1919 C1916 1.386 . S
C1920 C1915 1.490 . S
C1920 C1922 1.395 . S
C1920 C1923 1.403 . S
H1921 C1927 0.930 . S
C1922 H1908 0.930 . S
C1922 C1920 1.395 . S
C1922 C1925 1.403 . S
C1923 C1920 1.403 . S
C1923 C1924 1.524 . S
C1923 C1927 1.400 . S
C1924 H1909 0.960 . S
C1924 H1910 0.960 . S
C1924 H1911 0.960 . S
C1924 C1923 1.524 . S
C1925 C1922 1.403 . S
C1925 C1926 1.392 . S
C1925 C1929 1.495 . S
C1926 C1925 1.392 . S
C1926 C1927 1.385 . S
C1926 C1928 1.478 . S
C1927 H1921 0.930 . S
C1927 C1923 1.400 . S
C1927 C1926 1.385 . S
C1928 C1926 1.478 . S
C1928 C1930 1.381 . S
C1928 C1934 1.383 . S
C1929 C1925 1.495 . S
C1929 H1935 0.959 . S
C1929 H1936 0.961 . S
C1929 H1937 0.960 . S
C1930 C1928 1.381 . S
C1930 C1931 1.394 . S
C1930 H1938 0.930 . S
C1931 C1930 1.394 . S
C1931 C1932 1.383 . S
C1931 H1939 0.929 . S
C1932 C1931 1.383 . S
C1932 C1933 1.377 . S
C1933 H1917 0.930 . S
C1933 C1932 1.377 . S
C1933 C1934 1.379 . S
C1934 H1918 0.931 . S
C1934 C1928 1.383 . S
C1934 C1933 1.379 . S
H1935 C1929 0.959 . S
H1936 C1929 0.961 . S
H1937 C1929 0.960 . S
H1938 C1930 0.930 . S
H1939 C1931 0.929 . S
H1940 C1948 0.929 . S
H1941 C1950 0.930 . S
H1942 C1952 0.930 . S
H1943 C1955 0.929 . S
H1944 C1958 0.930 . S
H1945 C1960 0.960 . S
H1946 C1960 0.960 . S
H1947 C1960 0.960 . S
C1948 H1940 0.929 . S
C1948 C1949 1.377 . S
C1948 C1950 1.384 . S
C1949 C1948 1.377 . S
C1949 C1955 1.390 . S
C1950 H1941 0.930 . S
C1950 C1948 1.384 . S
C1950 C1951 1.372 . S
C1951 C1950 1.372 . S
C1951 C1952 1.400 . S
C1951 C1956 1.490 . S
C1952 H1942 0.930 . S
C1952 C1951 1.400 . S
C1952 C1955 1.386 . S
H1953 C1969 0.930 . S
H1954 C1970 0.931 . S
C1955 H1943 0.929 . S
C1955 C1949 1.390 . S
C1955 C1952 1.386 . S
C1956 C1951 1.490 . S
C1956 C1958 1.395 . S
C1956 C1959 1.403 . S
H1957 C1963 0.930 . S
C1958 H1944 0.930 . S
C1958 C1956 1.395 . S
C1958 C1961 1.403 . S
C1959 C1956 1.403 . S
C1959 C1960 1.524 . S
C1959 C1963 1.400 . S
C1960 H1945 0.960 . S
C1960 H1946 0.960 . S
C1960 H1947 0.960 . S
C1960 C1959 1.524 . S
C1961 C1958 1.403 . S
C1961 C1962 1.392 . S
C1961 C1965 1.495 . S
C1962 C1961 1.392 . S
C1962 C1963 1.385 . S
C1962 C1964 1.478 . S
C1963 H1957 0.930 . S
C1963 C1959 1.400 . S
C1963 C1962 1.385 . S
C1964 C1962 1.478 . S
C1964 C1966 1.381 . S
C1964 C1970 1.383 . S
C1965 C1961 1.495 . S
C1965 H1971 0.959 . S
C1965 H1972 0.961 . S
C1965 H1973 0.960 . S
C1966 C1964 1.381 . S
C1966 C1967 1.394 . S
C1966 H1974 0.930 . S
C1967 C1966 1.394 . S
C1967 C1968 1.383 . S
C1967 H1975 0.929 . S
C1968 C1967 1.383 . S
C1968 C1969 1.377 . S
C1969 H1953 0.930 . S
C1969 C1968 1.377 . S
C1969 C1970 1.379 . S
C1970 H1954 0.931 . S
C1970 C1964 1.383 . S
C1970 C1969 1.379 . S
H1971 C1965 0.959 . S
H1972 C1965 0.961 . S
H1973 C1965 0.960 . S
H1974 C1966 0.930 . S
H1975 C1967 0.929 . S
H1976 C1984 0.929 . S
H1977 C1986 0.930 . S
H1978 C1988 0.930 . S
H1979 C1991 0.929 . S
H1980 C1994 0.930 . S
H1981 C1996 0.960 . S
H1982 C1996 0.960 . S
H1983 C1996 0.960 . S
C1984 H1976 0.929 . S
C1984 C1985 1.377 . S
C1984 C1986 1.384 . S
C1985 C1984 1.377 . S
C1985 C1991 1.390 . S
C1986 H1977 0.930 . S
C1986 C1984 1.384 . S
C1986 C1987 1.372 . S
C1987 C1986 1.372 . S
C1987 C1988 1.400 . S
C1987 C1992 1.490 . S
C1988 H1978 0.930 . S
C1988 C1987 1.400 . S
C1988 C1991 1.386 . S
H1989 C2005 0.930 . S
H1990 C2006 0.931 . S
C1991 H1979 0.929 . S
C1991 C1985 1.390 . S
C1991 C1988 1.386 . S
C1992 C1987 1.490 . S
C1992 C1994 1.395 . S
C1992 C1995 1.403 . S
H1993 C1999 0.930 . S
C1994 H1980 0.930 . S
C1994 C1992 1.395 . S
C1994 C1997 1.403 . S
C1995 C1992 1.403 . S
C1995 C1996 1.524 . S
C1995 C1999 1.400 . S
C1996 H1981 0.960 . S
C1996 H1982 0.960 . S
C1996 H1983 0.960 . S
C1996 C1995 1.524 . S
C1997 C1994 1.403 . S
C1997 C1998 1.392 . S
C1997 C2001 1.495 . S
C1998 C1997 1.392 . S
C1998 C1999 1.385 . S
C1998 C2000 1.478 . S
C1999 H1993 0.930 . S
C1999 C1995 1.400 . S
C1999 C1998 1.385 . S
C2000 C1998 1.478 . S
C2000 C2002 1.381 . S
C2000 C2006 1.383 . S
C2001 C1997 1.495 . S
C2001 H2007 0.959 . S
C2001 H2008 0.961 . S
C2001 H2009 0.960 . S
C2002 C2000 1.381 . S
C2002 C2003 1.394 . S
C2002 H2010 0.930 . S
C2003 C2002 1.394 . S
C2003 C2004 1.383 . S
C2003 H2011 0.929 . S
C2004 C2003 1.383 . S
C2004 C2005 1.377 . S
C2005 H1989 0.930 . S
C2005 C2004 1.377 . S
C2005 C2006 1.379 . S
C2006 H1990 0.931 . S
C2006 C2000 1.383 . S
C2006 C2005 1.379 . S
H2007 C2001 0.959 . S
H2008 C2001 0.961 . S
H2009 C2001 0.960 . S
H2010 C2002 0.930 . S
H2011 C2003 0.929 . S
H2012 C2020 0.929 . S
H2013 C2022 0.930 . S
H2014 C2024 0.930 . S
H2015 C2027 0.929 . S
H2016 C2030 0.930 . S
H2017 C2032 0.960 . S
H2018 C2032 0.960 . S
H2019 C2032 0.960 . S
C2020 H2012 0.929 . S
C2020 C2021 1.377 . S
C2020 C2022 1.384 . S
C2021 C2020 1.377 . S
C2021 C2027 1.390 . S
C2022 H2013 0.930 . S
C2022 C2020 1.384 . S
C2022 C2023 1.372 . S
C2023 C2022 1.372 . S
C2023 C2024 1.400 . S
C2023 C2028 1.490 . S
C2024 H2014 0.930 . S
C2024 C2023 1.400 . S
C2024 C2027 1.386 . S
H2025 C2041 0.930 . S
H2026 C2042 0.931 . S
C2027 H2015 0.929 . S
C2027 C2021 1.390 . S
C2027 C2024 1.386 . S
C2028 C2023 1.490 . S
C2028 C2030 1.395 . S
C2028 C2031 1.403 . S
H2029 C2035 0.930 . S
C2030 H2016 0.930 . S
C2030 C2028 1.395 . S
C2030 C2033 1.403 . S
C2031 C2028 1.403 . S
C2031 C2032 1.524 . S
C2031 C2035 1.400 . S
C2032 H2017 0.960 . S
C2032 H2018 0.960 . S
C2032 H2019 0.960 . S
C2032 C2031 1.524 . S
C2033 C2030 1.403 . S
C2033 C2034 1.392 . S
C2033 C2037 1.495 . S
C2034 C2033 1.392 . S
C2034 C2035 1.385 . S
C2034 C2036 1.478 . S
C2035 H2029 0.930 . S
C2035 C2031 1.400 . S
C2035 C2034 1.385 . S
C2036 C2034 1.478 . S
C2036 C2038 1.381 . S
C2036 C2042 1.383 . S
C2037 C2033 1.495 . S
C2037 H2043 0.959 . S
C2037 H2044 0.961 . S
C2037 H2045 0.960 . S
C2038 C2036 1.381 . S
C2038 C2039 1.394 . S
C2038 H2046 0.930 . S
C2039 C2038 1.394 . S
C2039 C2040 1.383 . S
C2039 H2047 0.929 . S
C2040 C2039 1.383 . S
C2040 C2041 1.377 . S
C2041 H2025 0.930 . S
C2041 C2040 1.377 . S
C2041 C2042 1.379 . S
C2042 H2026 0.931 . S
C2042 C2036 1.383 . S
C2042 C2041 1.379 . S
H2043 C2037 0.959 . S
H2044 C2037 0.961 . S
H2045 C2037 0.960 . S
H2046 C2038 0.930 . S
H2047 C2039 0.929 . S
H2048 C2056 0.929 . S
H2049 C2058 0.930 . S
H2050 C2060 0.930 1_655 S
H2051 C2063 0.909 1_655 S
H2052 C2066 0.930 . S
H2053 C2068 0.960 . S
H2054 C2068 0.960 . S
H2055 C2068 0.960 . S
C2056 H2048 0.929 . S
C2056 C2057 1.377 . S
C2056 C2058 1.384 . S
C2057 C2056 1.377 . S
C2057 C2063 1.390 . S
C2058 H2049 0.930 . S
C2058 C2056 1.384 . S
C2058 C2059 1.372 . S
C2059 C2058 1.372 . S
C2059 C2060 1.400 . S
C2059 C2064 1.490 . S
C2060 H2050 0.930 1_455 S
C2060 C2059 1.400 . S
C2060 C2063 1.386 . S
H2061 C2077 0.930 . S
H2062 C2078 0.931 . S
C2063 H2051 0.909 1_455 S
C2063 C2057 1.390 . S
C2063 C2060 1.386 . S
C2064 C2059 1.490 . S
C2064 C2066 1.395 . S
C2064 C2067 1.403 . S
H2065 C2071 0.902 1_655 S
C2066 H2052 0.930 . S
C2066 C2064 1.395 . S
C2066 C2069 1.403 . S
C2067 C2064 1.403 . S
C2067 C2068 1.524 1_455 S
C2067 C2071 1.403 . S
C2068 H2053 0.960 . S
C2068 H2054 0.960 . S
C2068 H2055 0.960 . S
C2068 C2067 1.524 1_655 S
C2069 C2066 1.403 . S
C2069 C2070 1.392 . S
C2069 C2073 1.495 . S
C2070 C2069 1.392 . S
C2070 C2071 1.409 . S
C2070 C2072 1.478 . S
C2071 H2065 0.902 1_455 S
C2071 C2067 1.403 . S
C2071 C2070 1.409 . S
C2072 C2070 1.478 . S
C2072 C2074 1.381 . S
C2072 C2078 1.383 1_455 S
C2073 C2069 1.495 . S
C2073 H2079 0.959 . S
C2073 H2080 0.961 . S
C2073 H2081 0.960 . S
C2074 C2072 1.381 . S
C2074 C2075 1.394 . S
C2074 H2082 0.930 . S
C2075 C2074 1.394 . S
C2075 C2076 1.383 . S
C2075 H2083 0.929 . S
C2076 C2075 1.383 . S
C2076 C2077 1.377 1_455 S
C2077 H2061 0.930 . S
C2077 C2076 1.377 1_655 S
C2077 C2078 1.379 . S
C2078 H2062 0.931 . S
C2078 C2072 1.383 1_655 S
C2078 C2077 1.379 . S
H2079 C2073 0.959 . S
H2080 C2073 0.961 . S
H2081 C2073 0.960 . S
H2082 C2074 0.930 . S
H2083 C2075 0.929 . S
H2084 C2092 0.929 . S
H2085 C2094 0.930 . S
H2086 C2096 0.930 . S
H2087 C2099 0.929 . S
H2088 C2102 0.930 . S
H2089 C2104 0.960 . S
H2090 C2104 0.960 . S
H2091 C2104 0.960 . S
C2092 H2084 0.929 . S
C2092 C2093 1.377 . S
C2092 C2094 1.384 . S
C2093 C2092 1.377 . S
C2093 C2099 1.390 . S
C2094 H2085 0.930 . S
C2094 C2092 1.384 . S
C2094 C2095 1.372 . S
C2095 C2094 1.372 . S
C2095 C2096 1.400 . S
C2095 C2100 1.490 . S
C2096 H2086 0.930 . S
C2096 C2095 1.400 . S
C2096 C2099 1.386 . S
H2097 C2113 0.930 . S
H2098 C2114 0.931 . S
C2099 H2087 0.929 . S
C2099 C2093 1.390 . S
C2099 C2096 1.386 . S
C2100 C2095 1.490 . S
C2100 C2102 1.395 . S
C2100 C2103 1.403 . S
H2101 C2107 0.930 . S
C2102 H2088 0.930 . S
C2102 C2100 1.395 . S
C2102 C2105 1.403 . S
C2103 C2100 1.403 . S
C2103 C2104 1.524 . S
C2103 C2107 1.400 . S
C2104 H2089 0.960 . S
C2104 H2090 0.960 . S
C2104 H2091 0.960 . S
C2104 C2103 1.524 . S
C2105 C2102 1.403 . S
C2105 C2106 1.392 . S
C2105 C2109 1.495 . S
C2106 C2105 1.392 . S
C2106 C2107 1.385 . S
C2106 C2108 1.478 . S
C2107 H2101 0.930 . S
C2107 C2103 1.400 . S
C2107 C2106 1.385 . S
C2108 C2106 1.478 . S
C2108 C2110 1.381 . S
C2108 C2114 1.383 . S
C2109 C2105 1.495 . S
C2109 H2115 0.959 . S
C2109 H2116 0.961 . S
C2109 H2117 0.960 . S
C2110 C2108 1.381 . S
C2110 C2111 1.394 . S
C2110 H2118 0.930 . S
C2111 C2110 1.394 . S
C2111 C2112 1.383 . S
C2111 H2119 0.929 . S
C2112 C2111 1.383 . S
C2112 C2113 1.377 . S
C2113 H2097 0.930 . S
C2113 C2112 1.377 . S
C2113 C2114 1.379 . S
C2114 H2098 0.931 . S
C2114 C2108 1.383 . S
C2114 C2113 1.379 . S
H2115 C2109 0.959 . S
H2116 C2109 0.961 . S
H2117 C2109 0.960 . S
H2118 C2110 0.930 . S
H2119 C2111 0.929 . S
H2120 C2128 0.929 . S
H2121 C2130 0.930 . S
H2122 C2132 0.930 . S
H2123 C2135 0.929 . S
H2124 C2138 0.930 . S
H2125 C2140 0.960 . S
H2126 C2140 0.960 . S
H2127 C2140 0.960 . S
C2128 H2120 0.929 . S
C2128 C2129 1.377 . S
C2128 C2130 1.384 . S
C2129 C2128 1.377 . S
C2129 C2135 1.390 . S
C2130 H2121 0.930 . S
C2130 C2128 1.384 . S
C2130 C2131 1.372 . S
C2131 C2130 1.372 . S
C2131 C2132 1.400 . S
C2131 C2136 1.490 . S
C2132 H2122 0.930 . S
C2132 C2131 1.400 . S
C2132 C2135 1.386 . S
H2133 C2149 0.930 . S
H2134 C2150 0.931 . S
C2135 H2123 0.929 . S
C2135 C2129 1.390 . S
C2135 C2132 1.386 . S
C2136 C2131 1.490 . S
C2136 C2138 1.395 . S
C2136 C2139 1.403 . S
H2137 C2143 0.930 . S
C2138 H2124 0.930 . S
C2138 C2136 1.395 . S
C2138 C2141 1.403 . S
C2139 C2136 1.403 . S
C2139 C2140 1.524 . S
C2139 C2143 1.400 . S
C2140 H2125 0.960 . S
C2140 H2126 0.960 . S
C2140 H2127 0.960 . S
C2140 C2139 1.524 . S
C2141 C2138 1.403 . S
C2141 C2142 1.392 . S
C2141 C2145 1.495 . S
C2142 C2141 1.392 . S
C2142 C2143 1.385 . S
C2142 C2144 1.478 . S
C2143 H2137 0.930 . S
C2143 C2139 1.400 . S
C2143 C2142 1.385 . S
C2144 C2142 1.478 . S
C2144 C2146 1.381 . S
C2144 C2150 1.383 . S
C2145 C2141 1.495 . S
C2145 H2151 0.959 . S
C2145 H2152 0.961 . S
C2145 H2153 0.960 . S
C2146 C2144 1.381 . S
C2146 C2147 1.394 . S
C2146 H2154 0.930 . S
C2147 C2146 1.394 . S
C2147 C2148 1.383 . S
C2147 H2155 0.929 . S
C2148 C2147 1.383 . S
C2148 C2149 1.377 . S
C2149 H2133 0.930 . S
C2149 C2148 1.377 . S
C2149 C2150 1.379 . S
C2150 H2134 0.931 . S
C2150 C2144 1.383 . S
C2150 C2149 1.379 . S
H2151 C2145 0.959 . S
H2152 C2145 0.961 . S
H2153 C2145 0.960 . S
H2154 C2146 0.930 . S
H2155 C2147 0.929 . S
H2156 C2164 0.929 . S
H2157 C2166 0.930 . S
H2158 C2168 0.930 . S
H2159 C2171 0.929 . S
H2160 C2174 0.930 . S
H2161 C2176 0.960 . S
H2162 C2176 0.960 . S
H2163 C2176 0.960 . S
C2164 H2156 0.929 . S
C2164 C2165 1.377 . S
C2164 C2166 1.384 . S
C2165 C2164 1.377 . S
C2165 C2171 1.390 . S
C2166 H2157 0.930 . S
C2166 C2164 1.384 . S
C2166 C2167 1.372 . S
C2167 C2166 1.372 . S
C2167 C2168 1.400 . S
C2167 C2172 1.490 . S
C2168 H2158 0.930 . S
C2168 C2167 1.400 . S
C2168 C2171 1.386 . S
H2169 C2185 0.930 . S
H2170 C2186 0.931 . S
C2171 H2159 0.929 . S
C2171 C2165 1.390 . S
C2171 C2168 1.386 . S
C2172 C2167 1.490 . S
C2172 C2174 1.395 . S
C2172 C2175 1.403 . S
H2173 C2179 0.930 . S
C2174 H2160 0.930 . S
C2174 C2172 1.395 . S
C2174 C2177 1.403 . S
C2175 C2172 1.403 . S
C2175 C2176 1.524 . S
C2175 C2179 1.400 . S
C2176 H2161 0.960 . S
C2176 H2162 0.960 . S
C2176 H2163 0.960 . S
C2176 C2175 1.524 . S
C2177 C2174 1.403 . S
C2177 C2178 1.392 . S
C2177 C2181 1.495 . S
C2178 C2177 1.392 . S
C2178 C2179 1.385 . S
C2178 C2180 1.478 . S
C2179 H2173 0.930 . S
C2179 C2175 1.400 . S
C2179 C2178 1.385 . S
C2180 C2178 1.478 . S
C2180 C2182 1.381 . S
C2180 C2186 1.383 . S
C2181 C2177 1.495 . S
C2181 H2187 0.959 . S
C2181 H2188 0.961 . S
C2181 H2189 0.960 . S
C2182 C2180 1.381 . S
C2182 C2183 1.394 . S
C2182 H2190 0.930 . S
C2183 C2182 1.394 . S
C2183 C2184 1.383 . S
C2183 H2191 0.929 . S
C2184 C2183 1.383 . S
C2184 C2185 1.377 . S
C2185 H2169 0.930 . S
C2185 C2184 1.377 . S
C2185 C2186 1.379 . S
C2186 H2170 0.931 . S
C2186 C2180 1.383 . S
C2186 C2185 1.379 . S
H2187 C2181 0.959 . S
H2188 C2181 0.961 . S
H2189 C2181 0.960 . S
H2190 C2182 0.930 . S
H2191 C2183 0.929 . S
H2192 C2200 0.929 . S
H2193 C2202 0.930 . S
H2194 C2204 0.930 . S
H2195 C2207 0.925 . S
H2196 C2210 0.930 . S
H2197 C2212 0.960 . S
H2198 C2212 0.960 . S
H2199 C2212 0.960 . S
C2200 H2192 0.929 . S
C2200 C2201 1.377 . S
C2200 C2202 1.384 . S
C2201 C2200 1.377 . S
C2201 C2207 1.394 1_455 S
C2202 H2193 0.930 . S
C2202 C2200 1.384 . S
C2202 C2203 1.372 . S
C2203 C2202 1.372 . S
C2203 C2204 1.400 1_455 S
C2203 C2208 1.490 . S
C2204 H2194 0.930 . S
C2204 C2203 1.400 1_655 S
C2204 C2207 1.386 . S
H2205 C2221 0.930 . S
H2206 C2222 0.931 . S
C2207 H2195 0.925 . S
C2207 C2201 1.394 1_655 S
C2207 C2204 1.386 . S
C2208 C2203 1.490 . S
C2208 C2210 1.395 . S
C2208 C2211 1.403 1_455 S
H2209 C2215 0.930 . S
C2210 H2196 0.930 . S
C2210 C2208 1.395 . S
C2210 C2213 1.403 . S
C2211 C2208 1.403 1_655 S
C2211 C2212 1.524 . S
C2211 C2215 1.400 . S
C2212 H2197 0.960 . S
C2212 H2198 0.960 . S
C2212 H2199 0.960 . S
C2212 C2211 1.524 . S
C2213 C2210 1.403 . S
C2213 C2214 1.392 . S
C2213 C2217 1.495 . S
C2214 C2213 1.392 . S
C2214 C2215 1.385 1_455 S
C2214 C2216 1.478 . S
C2215 H2209 0.930 . S
C2215 C2211 1.400 . S
C2215 C2214 1.385 1_655 S
C2216 C2214 1.478 . S
C2216 C2218 1.381 . S
C2216 C2222 1.383 1_455 S
C2217 C2213 1.495 . S
C2217 H2223 0.959 . S
C2217 H2224 0.961 . S
C2217 H2225 0.960 . S
C2218 C2216 1.381 . S
C2218 C2219 1.394 . S
C2218 H2226 0.930 . S
C2219 C2218 1.394 . S
C2219 C2220 1.383 . S
C2219 H2227 0.929 . S
C2220 C2219 1.383 . S
C2220 C2221 1.377 1_455 S
C2221 H2205 0.930 . S
C2221 C2220 1.377 1_655 S
C2221 C2222 1.379 . S
C2222 H2206 0.931 . S
C2222 C2216 1.383 1_655 S
C2222 C2221 1.379 . S
H2223 C2217 0.959 . S
H2224 C2217 0.961 . S
H2225 C2217 0.960 . S
H2226 C2218 0.930 . S
H2227 C2219 0.929 . S
H2228 C2236 0.929 . S
H2229 C2238 0.930 . S
H2230 C2240 0.930 . S
H2231 C2243 0.929 . S
H2232 C2246 0.930 . S
H2233 C2248 0.960 . S
H2234 C2248 0.960 . S
H2235 C2248 0.960 . S
C2236 H2228 0.929 . S
C2236 C2237 1.377 . S
C2236 C2238 1.384 . S
C2237 C2236 1.377 . S
C2237 C2243 1.390 . S
C2238 H2229 0.930 . S
C2238 C2236 1.384 . S
C2238 C2239 1.372 . S
C2239 C2238 1.372 . S
C2239 C2240 1.400 . S
C2239 C2244 1.490 . S
C2240 H2230 0.930 . S
C2240 C2239 1.400 . S
C2240 C2243 1.386 . S
H2241 C2257 0.930 . S
H2242 C2258 0.931 . S
C2243 H2231 0.929 . S
C2243 C2237 1.390 . S
C2243 C2240 1.386 . S
C2244 C2239 1.490 . S
C2244 C2246 1.395 . S
C2244 C2247 1.403 . S
H2245 C2251 0.930 . S
C2246 H2232 0.930 . S
C2246 C2244 1.395 . S
C2246 C2249 1.403 . S
C2247 C2244 1.403 . S
C2247 C2248 1.524 . S
C2247 C2251 1.400 . S
C2248 H2233 0.960 . S
C2248 H2234 0.960 . S
C2248 H2235 0.960 . S
C2248 C2247 1.524 . S
C2249 C2246 1.403 . S
C2249 C2250 1.392 . S
C2249 C2253 1.495 . S
C2250 C2249 1.392 . S
C2250 C2251 1.385 . S
C2250 C2252 1.478 . S
C2251 H2245 0.930 . S
C2251 C2247 1.400 . S
C2251 C2250 1.385 . S
C2252 C2250 1.478 . S
C2252 C2254 1.381 . S
C2252 C2258 1.383 . S
C2253 C2249 1.495 . S
C2253 H2259 0.959 . S
C2253 H2260 0.961 . S
C2253 H2261 0.960 . S
C2254 C2252 1.381 . S
C2254 C2255 1.394 . S
C2254 H2262 0.930 . S
C2255 C2254 1.394 . S
C2255 C2256 1.383 . S
C2255 H2263 0.929 . S
C2256 C2255 1.383 . S
C2256 C2257 1.377 . S
C2257 H2241 0.930 . S
C2257 C2256 1.377 . S
C2257 C2258 1.379 . S
C2258 H2242 0.931 . S
C2258 C2252 1.383 . S
C2258 C2257 1.379 . S
H2259 C2253 0.959 . S
H2260 C2253 0.961 . S
H2261 C2253 0.960 . S
H2262 C2254 0.930 . S
H2263 C2255 0.929 . S
H2264 C2272 0.929 . S
H2265 C2274 0.930 . S
H2266 C2276 0.930 . S
H2267 C2279 0.929 . S
H2268 C2282 0.930 . S
H2269 C2284 0.960 . S
H2270 C2284 0.960 . S
H2271 C2284 0.960 . S
C2272 H2264 0.929 . S
C2272 C2273 1.377 . S
C2272 C2274 1.384 . S
C2273 C2272 1.377 . S
C2273 C2279 1.390 . S
C2274 H2265 0.930 . S
C2274 C2272 1.384 . S
C2274 C2275 1.372 . S
C2275 C2274 1.372 . S
C2275 C2276 1.400 . S
C2275 C2280 1.490 . S
C2276 H2266 0.930 . S
C2276 C2275 1.400 . S
C2276 C2279 1.386 . S
H2277 C2293 0.930 . S
H2278 C2294 0.931 . S
C2279 H2267 0.929 . S
C2279 C2273 1.390 . S
C2279 C2276 1.386 . S
C2280 C2275 1.490 . S
C2280 C2282 1.395 . S
C2280 C2283 1.403 . S
H2281 C2287 0.930 . S
C2282 H2268 0.930 . S
C2282 C2280 1.395 . S
C2282 C2285 1.403 . S
C2283 C2280 1.403 . S
C2283 C2284 1.524 . S
C2283 C2287 1.400 . S
C2284 H2269 0.960 . S
C2284 H2270 0.960 . S
C2284 H2271 0.960 . S
C2284 C2283 1.524 . S
C2285 C2282 1.403 . S
C2285 C2286 1.392 . S
C2285 C2289 1.495 . S
C2286 C2285 1.392 . S
C2286 C2287 1.385 . S
C2286 C2288 1.478 . S
C2287 H2281 0.930 . S
C2287 C2283 1.400 . S
C2287 C2286 1.385 . S
C2288 C2286 1.478 . S
C2288 C2290 1.381 1_556 S
C2288 C2294 1.383 . S
C2289 C2285 1.495 . S
C2289 H2295 0.959 . S
C2289 H2296 0.961 . S
C2289 H2297 0.960 . S
C2290 C2288 1.381 1_554 S
C2290 C2291 1.394 . S
C2290 H2298 0.930 . S
C2291 C2290 1.394 . S
C2291 C2292 1.383 . S
C2291 H2299 0.929 . S
C2292 C2291 1.383 . S
C2292 C2293 1.377 1_554 S
C2293 H2277 0.930 . S
C2293 C2292 1.377 1_556 S
C2293 C2294 1.379 . S
C2294 H2278 0.931 . S
C2294 C2288 1.383 . S
C2294 C2293 1.379 . S
H2295 C2289 0.959 . S
H2296 C2289 0.961 . S
H2297 C2289 0.960 . S
H2298 C2290 0.930 . S
H2299 C2291 0.929 . S
H2300 C2308 0.929 . S
H2301 C2310 0.930 . S
H2302 C2312 0.930 . S
H2303 C2315 0.929 . S
H2304 C2318 0.930 . S
H2305 C2320 0.960 . S
H2306 C2320 0.960 . S
H2307 C2320 0.960 . S
C2308 H2300 0.929 . S
C2308 C2309 1.377 . S
C2308 C2310 1.384 . S
C2309 C2308 1.377 . S
C2309 C2315 1.390 . S
C2310 H2301 0.930 . S
C2310 C2308 1.384 . S
C2310 C2311 1.372 . S
C2311 C2310 1.372 . S
C2311 C2312 1.400 . S
C2311 C2316 1.490 . S
C2312 H2302 0.930 . S
C2312 C2311 1.400 . S
C2312 C2315 1.386 . S
H2313 C2329 0.930 . S
H2314 C2330 0.931 . S
C2315 H2303 0.929 . S
C2315 C2309 1.390 . S
C2315 C2312 1.386 . S
C2316 C2311 1.490 . S
C2316 C2318 1.395 . S
C2316 C2319 1.403 . S
H2317 C2323 0.930 . S
C2318 H2304 0.930 . S
C2318 C2316 1.395 . S
C2318 C2321 1.403 . S
C2319 C2316 1.403 . S
C2319 C2320 1.524 . S
C2319 C2323 1.400 . S
C2320 H2305 0.960 . S
C2320 H2306 0.960 . S
C2320 H2307 0.960 . S
C2320 C2319 1.524 . S
C2321 C2318 1.403 . S
C2321 C2322 1.392 . S
C2321 C2325 1.495 . S
C2322 C2321 1.392 . S
C2322 C2323 1.385 . S
C2322 C2324 1.478 . S
C2323 H2317 0.930 . S
C2323 C2319 1.400 . S
C2323 C2322 1.385 . S
C2324 C2322 1.478 . S
C2324 C2326 1.381 . S
C2324 C2330 1.383 . S
C2325 C2321 1.495 . S
C2325 H2331 0.959 . S
C2325 H2332 0.961 . S
C2325 H2333 0.960 . S
C2326 C2324 1.381 . S
C2326 C2327 1.394 . S
C2326 H2334 0.930 . S
C2327 C2326 1.394 . S
C2327 C2328 1.383 . S
C2327 H2335 0.929 . S
C2328 C2327 1.383 . S
C2328 C2329 1.377 . S
C2329 H2313 0.930 . S
C2329 C2328 1.377 . S
C2329 C2330 1.379 . S
C2330 H2314 0.931 . S
C2330 C2324 1.383 . S
C2330 C2329 1.379 . S
H2331 C2325 0.959 . S
H2332 C2325 0.961 . S
H2333 C2325 0.960 . S
H2334 C2326 0.930 . S
H2335 C2327 0.929 . S
H2336 C2344 0.929 . S
H2337 C2346 0.930 . S
H2338 C2348 0.930 . S
H2339 C2351 0.929 . S
H2340 C2354 0.930 . S
H2341 C2356 0.960 . S
H2342 C2356 0.960 . S
H2343 C2356 0.960 . S
C2344 H2336 0.929 . S
C2344 C2345 1.377 . S
C2344 C2346 1.384 . S
C2345 C2344 1.377 . S
C2345 C2351 1.390 1_545 S
C2346 H2337 0.930 . S
C2346 C2344 1.384 . S
C2346 C2347 1.365 1_545 S
C2347 C2346 1.365 1_565 S
C2347 C2348 1.407 . S
C2347 C2352 1.491 . S
C2348 H2338 0.930 . S
C2348 C2347 1.407 . S
C2348 C2351 1.386 . S
H2349 C2365 0.930 . S
H2350 C2366 0.931 . S
C2351 H2339 0.929 . S
C2351 C2345 1.390 1_565 S
C2351 C2348 1.386 . S
C2352 C2347 1.491 . S
C2352 C2354 1.395 . S
C2352 C2355 1.403 1_565 S
H2353 C2359 0.930 . S
C2354 H2340 0.930 . S
C2354 C2352 1.395 . S
C2354 C2357 1.403 . S
C2355 C2352 1.403 1_545 S
C2355 C2356 1.524 . S
C2355 C2359 1.400 . S
C2356 H2341 0.960 . S
C2356 H2342 0.960 . S
C2356 H2343 0.960 . S
C2356 C2355 1.524 . S
C2357 C2354 1.403 . S
C2357 C2358 1.392 . S
C2357 C2361 1.495 . S
C2358 C2357 1.392 . S
C2358 C2359 1.385 1_565 S
C2358 C2360 1.478 . S
C2359 H2353 0.930 . S
C2359 C2355 1.400 . S
C2359 C2358 1.385 1_545 S
C2360 C2358 1.478 . S
C2360 C2362 1.355 1_565 S
C2360 C2366 1.383 . S
C2361 C2357 1.495 . S
C2361 H2367 0.959 . S
C2361 H2368 0.961 . S
C2361 H2369 0.960 . S
C2362 C2360 1.355 1_545 S
C2362 C2363 1.394 . S
C2362 H2370 0.958 . S
C2363 C2362 1.394 . S
C2363 C2364 1.359 1_545 S
C2363 H2371 0.955 . S
C2364 C2363 1.359 1_565 S
C2364 C2365 1.377 . S
C2365 H2349 0.930 . S
C2365 C2364 1.377 . S
C2365 C2366 1.379 . S
C2366 H2350 0.931 . S
C2366 C2360 1.383 . S
C2366 C2365 1.379 . S
H2367 C2361 0.959 . S
H2368 C2361 0.961 . S
H2369 C2361 0.960 . S
H2370 C2362 0.958 . S
H2371 C2363 0.955 . S
H2372 C2380 0.929 . S
H2373 C2382 0.930 . S
H2374 C2384 0.930 . S
H2375 C2387 0.929 . S
H2376 C2390 0.930 . S
H2377 C2392 0.960 . S
H2378 C2392 0.960 . S
H2379 C2392 0.960 . S
C2380 H2372 0.929 . S
C2380 C2381 1.377 . S
C2380 C2382 1.384 . S
C2381 C2380 1.377 . S
C2381 C2387 1.390 . S
C2382 H2373 0.930 . S
C2382 C2380 1.384 . S
C2382 C2383 1.372 . S
C2383 C2382 1.372 . S
C2383 C2384 1.400 . S
C2383 C2388 1.490 . S
C2384 H2374 0.930 . S
C2384 C2383 1.400 . S
C2384 C2387 1.386 . S
H2385 C2401 0.930 . S
H2386 C2402 0.931 . S
C2387 H2375 0.929 . S
C2387 C2381 1.390 . S
C2387 C2384 1.386 . S
C2388 C2383 1.490 . S
C2388 C2390 1.395 . S
C2388 C2391 1.403 . S
H2389 C2395 0.930 . S
C2390 H2376 0.930 . S
C2390 C2388 1.395 . S
C2390 C2393 1.403 . S
C2391 C2388 1.403 . S
C2391 C2392 1.524 . S
C2391 C2395 1.400 . S
C2392 H2377 0.960 . S
C2392 H2378 0.960 . S
C2392 H2379 0.960 . S
C2392 C2391 1.524 . S
C2393 C2390 1.403 . S
C2393 C2394 1.392 . S
C2393 C2397 1.495 . S
C2394 C2393 1.392 . S
C2394 C2395 1.385 . S
C2394 C2396 1.478 . S
C2395 H2389 0.930 . S
C2395 C2391 1.400 . S
C2395 C2394 1.385 . S
C2396 C2394 1.478 . S
C2396 C2398 1.381 . S
C2396 C2402 1.383 . S
C2397 C2393 1.495 . S
C2397 H2403 0.959 . S
C2397 H2404 0.961 . S
C2397 H2405 0.960 . S
C2398 C2396 1.381 . S
C2398 C2399 1.394 . S
C2398 H2406 0.930 . S
C2399 C2398 1.394 . S
C2399 C2400 1.383 . S
C2399 H2407 0.929 . S
C2400 C2399 1.383 . S
C2400 C2401 1.377 . S
C2401 H2385 0.930 . S
C2401 C2400 1.377 . S
C2401 C2402 1.379 . S
C2402 H2386 0.931 . S
C2402 C2396 1.383 . S
C2402 C2401 1.379 . S
H2403 C2397 0.959 . S
H2404 C2397 0.961 . S
H2405 C2397 0.960 . S
H2406 C2398 0.930 . S
H2407 C2399 0.929 . S
H2408 C2416 0.929 1_565 S
H2409 C2418 0.930 1_565 S
H2410 C2420 0.930 . S
H2411 C2423 0.929 . S
H2412 C2426 0.930 1_565 S
H2413 C2428 0.960 . S
H2414 C2428 0.960 . S
H2415 C2428 0.960 . S
C2416 H2408 0.929 1_545 S
C2416 C2417 1.377 . S
C2416 C2418 1.384 . S
C2417 C2416 1.377 . S
C2417 C2423 1.390 . S
C2418 H2409 0.930 1_545 S
C2418 C2416 1.384 . S
C2418 C2419 1.372 . S
C2419 C2418 1.372 . S
C2419 C2420 1.400 . S
C2419 C2424 1.490 . S
C2420 H2410 0.930 . S
C2420 C2419 1.400 . S
C2420 C2423 1.386 . S
H2421 C2437 0.930 . S
H2422 C2438 0.931 . S
C2423 H2411 0.929 . S
C2423 C2417 1.390 . S
C2423 C2420 1.386 . S
C2424 C2419 1.490 . S
C2424 C2426 1.395 . S
C2424 C2427 1.403 . S
H2425 C2431 0.930 . S
C2426 H2412 0.930 1_545 S
C2426 C2424 1.395 . S
C2426 C2429 1.403 . S
C2427 C2424 1.403 . S
C2427 C2428 1.524 . S
C2427 C2431 1.400 . S
C2428 H2413 0.960 . S
C2428 H2414 0.960 . S
C2428 H2415 0.960 . S
C2428 C2427 1.524 . S
C2429 C2426 1.403 . S
C2429 C2430 1.392 . S
C2429 C2433 1.495 1_545 S
C2430 C2429 1.392 . S
C2430 C2431 1.385 . S
C2430 C2432 1.478 . S
C2431 H2425 0.930 . S
C2431 C2427 1.400 . S
C2431 C2430 1.385 . S
C2432 C2430 1.478 . S
C2432 C2434 1.381 . S
C2432 C2438 1.383 . S
C2433 C2429 1.495 1_565 S
C2433 H2439 0.959 . S
C2433 H2440 0.961 . S
C2433 H2441 0.960 . S
C2434 C2432 1.381 . S
C2434 C2435 1.394 . S
C2434 H2442 0.930 1_545 S
C2435 C2434 1.394 . S
C2435 C2436 1.383 . S
C2435 H2443 0.929 1_545 S
C2436 C2435 1.383 . S
C2436 C2437 1.377 . S
C2437 H2421 0.930 . S
C2437 C2436 1.377 . S
C2437 C2438 1.379 . S
C2438 H2422 0.931 . S
C2438 C2432 1.383 . S
C2438 C2437 1.379 . S
H2439 C2433 0.959 . S
H2440 C2433 0.961 . S
H2441 C2433 0.960 . S
H2442 C2434 0.930 1_565 S
H2443 C2435 0.929 1_565 S
H2444 C2452 0.929 . S
H2445 C2454 0.930 . S
H2446 C2456 0.930 . S
H2447 C2459 0.929 . S
H2448 C2462 0.930 . S
H2449 C2464 0.960 . S
H2450 C2464 0.960 . S
H2451 C2464 0.960 . S
C2452 H2444 0.929 . S
C2452 C2453 1.377 . S
C2452 C2454 1.384 . S
C2453 C2452 1.377 . S
C2453 C2459 1.390 . S
C2454 H2445 0.930 . S
C2454 C2452 1.384 . S
C2454 C2455 1.372 . S
C2455 C2454 1.372 . S
C2455 C2456 1.400 . S
C2455 C2460 1.490 . S
C2456 H2446 0.930 . S
C2456 C2455 1.400 . S
C2456 C2459 1.386 . S
H2457 C2473 0.930 . S
H2458 C2474 0.931 . S
C2459 H2447 0.929 . S
C2459 C2453 1.390 . S
C2459 C2456 1.386 . S
C2460 C2455 1.490 . S
C2460 C2462 1.395 . S
C2460 C2463 1.403 . S
H2461 C2467 0.930 . S
C2462 H2448 0.930 . S
C2462 C2460 1.395 . S
C2462 C2465 1.403 . S
C2463 C2460 1.403 . S
C2463 C2464 1.524 . S
C2463 C2467 1.400 . S
C2464 H2449 0.960 . S
C2464 H2450 0.960 . S
C2464 H2451 0.960 . S
C2464 C2463 1.524 . S
C2465 C2462 1.403 . S
C2465 C2466 1.392 . S
C2465 C2469 1.495 . S
C2466 C2465 1.392 . S
C2466 C2467 1.385 . S
C2466 C2468 1.478 . S
C2467 H2461 0.930 . S
C2467 C2463 1.400 . S
C2467 C2466 1.385 . S
C2468 C2466 1.478 . S
C2468 C2470 1.381 . S
C2468 C2474 1.383 . S
C2469 C2465 1.495 . S
C2469 H2475 0.959 . S
C2469 H2476 0.961 . S
C2469 H2477 0.960 . S
C2470 C2468 1.381 . S
C2470 C2471 1.394 . S
C2470 H2478 0.930 . S
C2471 C2470 1.394 . S
C2471 C2472 1.383 . S
C2471 H2479 0.929 . S
C2472 C2471 1.383 . S
C2472 C2473 1.377 . S
C2473 H2457 0.930 . S
C2473 C2472 1.377 . S
C2473 C2474 1.379 . S
C2474 H2458 0.931 . S
C2474 C2468 1.383 . S
C2474 C2473 1.379 . S
H2475 C2469 0.959 . S
H2476 C2469 0.961 . S
H2477 C2469 0.960 . S
H2478 C2470 0.930 . S
H2479 C2471 0.929 . S
H2480 C2488 0.929 . S
H2481 C2490 0.930 . S
H2482 C2492 0.930 . S
H2483 C2495 0.929 . S
H2484 C2498 0.930 . S
H2485 C2500 0.960 . S
H2486 C2500 0.960 . S
H2487 C2500 0.960 . S
C2488 H2480 0.929 . S
C2488 C2489 1.364 1_545 S
C2488 C2490 1.384 . S
C2489 C2488 1.364 1_565 S
C2489 C2495 1.400 . S
C2490 H2481 0.930 . S
C2490 C2488 1.384 . S
C2490 C2491 1.372 . S
C2491 C2490 1.372 . S
C2491 C2492 1.400 1_545 S
C2491 C2496 1.490 . S
C2492 H2482 0.930 . S
C2492 C2491 1.400 1_565 S
C2492 C2495 1.386 . S
H2493 C2509 0.930 1_565 S
H2494 C2510 0.931 1_565 S
C2495 H2483 0.929 . S
C2495 C2489 1.400 . S
C2495 C2492 1.386 . S
C2496 C2491 1.490 . S
C2496 C2498 1.395 . S
C2496 C2499 1.403 1_545 S
H2497 C2503 0.930 . S
C2498 H2484 0.930 . S
C2498 C2496 1.395 . S
C2498 C2501 1.403 . S
C2499 C2496 1.403 1_565 S
C2499 C2500 1.524 . S
C2499 C2503 1.400 . S
C2500 H2485 0.960 . S
C2500 H2486 0.960 . S
C2500 H2487 0.960 . S
C2500 C2499 1.524 . S
C2501 C2498 1.403 . S
C2501 C2502 1.392 . S
C2501 C2505 1.495 . S
C2502 C2501 1.392 . S
C2502 C2503 1.385 1_545 S
C2502 C2504 1.478 . S
C2503 H2497 0.930 . S
C2503 C2499 1.400 . S
C2503 C2502 1.385 1_565 S
C2504 C2502 1.478 . S
C2504 C2506 1.381 . S
C2504 C2510 1.383 . S
C2505 C2501 1.495 . S
C2505 H2511 0.959 . S
C2505 H2512 0.961 . S
C2505 H2513 0.960 . S
C2506 C2504 1.381 . S
C2506 C2507 1.394 . S
C2506 H2514 0.930 . S
C2507 C2506 1.394 . S
C2507 C2508 1.383 . S
C2507 H2515 0.929 . S
C2508 C2507 1.383 . S
C2508 C2509 1.377 . S
C2509 H2493 0.930 1_545 S
C2509 C2508 1.377 . S
C2509 C2510 1.379 . S
C2510 H2494 0.931 1_545 S
C2510 C2504 1.383 . S
C2510 C2509 1.379 . S
H2511 C2505 0.959 . S
H2512 C2505 0.961 . S
H2513 C2505 0.960 . S
H2514 C2506 0.930 . S
H2515 C2507 0.929 . S
H2516 C2524 0.929 . S
H2517 C2526 0.930 . S
H2518 C2528 0.930 . S
H2519 C2531 0.929 . S
H2520 C2534 0.930 . S
H2521 C2536 0.960 . S
H2522 C2536 0.960 . S
H2523 C2536 0.960 . S
C2524 H2516 0.929 . S
C2524 C2525 1.377 . S
C2524 C2526 1.384 . S
C2525 C2524 1.377 . S
C2525 C2531 1.390 . S
C2526 H2517 0.930 . S
C2526 C2524 1.384 . S
C2526 C2527 1.372 . S
C2527 C2526 1.372 . S
C2527 C2528 1.400 . S
C2527 C2532 1.490 . S
C2528 H2518 0.930 . S
C2528 C2527 1.400 . S
C2528 C2531 1.386 . S
H2529 C2545 0.930 . S
H2530 C2546 0.931 . S
C2531 H2519 0.929 . S
C2531 C2525 1.390 . S
C2531 C2528 1.386 . S
C2532 C2527 1.490 . S
C2532 C2534 1.395 . S
C2532 C2535 1.403 . S
H2533 C2539 0.930 . S
C2534 H2520 0.930 . S
C2534 C2532 1.395 . S
C2534 C2537 1.403 . S
C2535 C2532 1.403 . S
C2535 C2536 1.524 . S
C2535 C2539 1.400 . S
C2536 H2521 0.960 . S
C2536 H2522 0.960 . S
C2536 H2523 0.960 . S
C2536 C2535 1.524 . S
C2537 C2534 1.403 . S
C2537 C2538 1.392 . S
C2537 C2541 1.495 . S
C2538 C2537 1.392 . S
C2538 C2539 1.385 . S
C2538 C2540 1.478 . S
C2539 H2533 0.930 . S
C2539 C2535 1.400 . S
C2539 C2538 1.385 . S
C2540 C2538 1.478 . S
C2540 C2542 1.381 . S
C2540 C2546 1.383 . S
C2541 C2537 1.495 . S
C2541 H2547 0.959 . S
C2541 H2548 0.961 . S
C2541 H2549 0.960 . S
C2542 C2540 1.381 . S
C2542 C2543 1.394 . S
C2542 H2550 0.930 . S
C2543 C2542 1.394 . S
C2543 C2544 1.383 . S
C2543 H2551 0.929 . S
C2544 C2543 1.383 . S
C2544 C2545 1.377 . S
C2545 H2529 0.930 . S
C2545 C2544 1.377 . S
C2545 C2546 1.379 . S
C2546 H2530 0.931 . S
C2546 C2540 1.383 . S
C2546 C2545 1.379 . S
H2547 C2541 0.959 . S
H2548 C2541 0.961 . S
H2549 C2541 0.960 . S
H2550 C2542 0.930 . S
H2551 C2543 0.929 . S
H2552 C2560 0.929 . S
H2553 C2562 0.930 . S
H2554 C2564 0.930 1_565 S
H2555 C2567 0.929 1_565 S
H2556 C2570 0.930 . S
H2557 C2572 0.960 . S
H2558 C2572 0.960 . S
H2559 C2572 0.960 . S
C2560 H2552 0.929 . S
C2560 C2561 1.377 . S
C2560 C2562 1.384 . S
C2561 C2560 1.377 . S
C2561 C2567 1.390 . S
C2562 H2553 0.930 . S
C2562 C2560 1.384 . S
C2562 C2563 1.372 . S
C2563 C2562 1.372 . S
C2563 C2564 1.400 . S
C2563 C2568 1.490 . S
C2564 H2554 0.930 1_545 S
C2564 C2563 1.400 . S
C2564 C2567 1.386 . S
H2565 C2581 0.930 . S
H2566 C2582 0.931 . S
C2567 H2555 0.929 1_545 S
C2567 C2561 1.390 . S
C2567 C2564 1.386 . S
C2568 C2563 1.490 . S
C2568 C2570 1.395 . S
C2568 C2571 1.403 1_545 S
H2569 C2575 0.930 . S
C2570 H2556 0.930 . S
C2570 C2568 1.395 . S
C2570 C2573 1.403 . S
C2571 C2568 1.403 1_565 S
C2571 C2572 1.524 . S
C2571 C2575 1.400 . S
C2572 H2557 0.960 . S
C2572 H2558 0.960 . S
C2572 H2559 0.960 . S
C2572 C2571 1.524 . S
C2573 C2570 1.403 . S
C2573 C2574 1.392 . S
C2573 C2577 1.495 . S
C2574 C2573 1.392 . S
C2574 C2575 1.385 1_545 S
C2574 C2576 1.478 . S
C2575 H2569 0.930 . S
C2575 C2571 1.400 . S
C2575 C2574 1.385 1_565 S
C2576 C2574 1.478 . S
C2576 C2578 1.381 . S
C2576 C2582 1.383 1_545 S
C2577 C2573 1.495 . S
C2577 H2583 0.959 . S
C2577 H2584 0.961 . S
C2577 H2585 0.960 . S
C2578 C2576 1.381 . S
C2578 C2579 1.394 . S
C2578 H2586 0.930 . S
C2579 C2578 1.394 . S
C2579 C2580 1.383 . S
C2579 H2587 0.929 . S
C2580 C2579 1.383 . S
C2580 C2581 1.377 1_545 S
C2581 H2565 0.930 . S
C2581 C2580 1.377 1_565 S
C2581 C2582 1.379 . S
C2582 H2566 0.931 . S
C2582 C2576 1.383 1_565 S
C2582 C2581 1.379 . S
H2583 C2577 0.959 . S
H2584 C2577 0.961 . S
H2585 C2577 0.960 . S
H2586 C2578 0.930 . S
H2587 C2579 0.929 . S
H2588 C2596 0.929 . S
H2589 C2598 0.930 . S
H2590 C2600 0.930 . S
H2591 C2603 0.929 . S
H2592 C2606 0.930 . S
H2593 C2608 0.960 . S
H2594 C2608 0.960 . S
H2595 C2608 0.960 . S
C2596 H2588 0.929 . S
C2596 C2597 1.377 . S
C2596 C2598 1.384 . S
C2597 C2596 1.377 . S
C2597 C2603 1.390 . S
C2598 H2589 0.930 . S
C2598 C2596 1.384 . S
C2598 C2599 1.372 . S
C2599 C2598 1.372 . S
C2599 C2600 1.400 . S
C2599 C2604 1.490 . S
C2600 H2590 0.930 . S
C2600 C2599 1.400 . S
C2600 C2603 1.386 . S
H2601 C2617 0.930 . S
H2602 C2618 0.931 . S
C2603 H2591 0.929 . S
C2603 C2597 1.390 . S
C2603 C2600 1.386 . S
C2604 C2599 1.490 . S
C2604 C2606 1.395 . S
C2604 C2607 1.403 . S
H2605 C2611 0.930 . S
C2606 H2592 0.930 . S
C2606 C2604 1.395 . S
C2606 C2609 1.403 . S
C2607 C2604 1.403 . S
C2607 C2608 1.524 . S
C2607 C2611 1.400 . S
C2608 H2593 0.960 . S
C2608 H2594 0.960 . S
C2608 H2595 0.960 . S
C2608 C2607 1.524 . S
C2609 C2606 1.403 . S
C2609 C2610 1.392 . S
C2609 C2613 1.495 . S
C2610 C2609 1.392 . S
C2610 C2611 1.385 . S
C2610 C2612 1.478 . S
C2611 H2605 0.930 . S
C2611 C2607 1.400 . S
C2611 C2610 1.385 . S
C2612 C2610 1.478 . S
C2612 C2614 1.381 . S
C2612 C2618 1.383 . S
C2613 C2609 1.495 . S
C2613 H2619 0.959 . S
C2613 H2620 0.961 . S
C2613 H2621 0.960 . S
C2614 C2612 1.381 . S
C2614 C2615 1.394 . S
C2614 H2622 0.930 . S
C2615 C2614 1.394 . S
C2615 C2616 1.383 . S
C2615 H2623 0.929 . S
C2616 C2615 1.383 . S
C2616 C2617 1.377 . S
C2617 H2601 0.930 . S
C2617 C2616 1.377 . S
C2617 C2618 1.379 . S
C2618 H2602 0.931 . S
C2618 C2612 1.383 . S
C2618 C2617 1.379 . S
H2619 C2613 0.959 . S
H2620 C2613 0.961 . S
H2621 C2613 0.960 . S
H2622 C2614 0.930 . S
H2623 C2615 0.929 . S
H2624 C2632 0.922 1_556 S
H2625 C2634 0.930 . S
H2626 C2636 0.930 . S
H2627 C2639 0.929 . S
H2628 C2642 0.930 . S
H2629 C2644 0.960 . S
H2630 C2644 0.960 . S
H2631 C2644 0.960 . S
C2632 H2624 0.922 1_554 S
C2632 C2633 1.386 . S
C2632 C2634 1.382 1_554 S
C2633 C2632 1.386 . S
C2633 C2639 1.390 . S
C2634 H2625 0.930 . S
C2634 C2632 1.382 1_556 S
C2634 C2635 1.372 1_556 S
C2635 C2634 1.372 1_554 S
C2635 C2636 1.400 . S
C2635 C2640 1.490 . S
C2636 H2626 0.930 . S
C2636 C2635 1.400 . S
C2636 C2639 1.386 . S
H2637 C2653 0.930 . S
H2638 C2654 0.931 . S
C2639 H2627 0.929 . S
C2639 C2633 1.390 . S
C2639 C2636 1.386 . S
C2640 C2635 1.490 . S
C2640 C2642 1.395 1_554 S
C2640 C2643 1.403 . S
H2641 C2647 0.930 . S
C2642 H2628 0.930 . S
C2642 C2640 1.395 1_556 S
C2642 C2645 1.403 . S
C2643 C2640 1.403 . S
C2643 C2644 1.524 . S
C2643 C2647 1.400 . S
C2644 H2629 0.960 . S
C2644 H2630 0.960 . S
C2644 H2631 0.960 . S
C2644 C2643 1.524 . S
C2645 C2642 1.403 . S
C2645 C2646 1.392 1_556 S
C2645 C2649 1.495 . S
C2646 C2645 1.392 1_554 S
C2646 C2647 1.385 . S
C2646 C2648 1.478 . S
C2647 H2641 0.930 . S
C2647 C2643 1.400 . S
C2647 C2646 1.385 . S
C2648 C2646 1.478 . S
C2648 C2650 1.381 1_554 S
C2648 C2654 1.383 . S
C2649 C2645 1.495 . S
C2649 H2655 0.959 . S
C2649 H2656 0.961 . S
C2649 H2657 0.960 . S
C2650 C2648 1.381 1_556 S
C2650 C2651 1.394 . S
C2650 H2658 0.930 . S
C2651 C2650 1.394 . S
C2651 C2652 1.383 . S
C2651 H2659 0.929 . S
C2652 C2651 1.383 . S
C2652 C2653 1.377 1_556 S
C2653 H2637 0.930 . S
C2653 C2652 1.377 1_554 S
C2653 C2654 1.379 . S
C2654 H2638 0.931 . S
C2654 C2648 1.383 . S
C2654 C2653 1.379 . S
H2655 C2649 0.959 . S
H2656 C2649 0.961 . S
H2657 C2649 0.960 . S
H2658 C2650 0.930 . S
H2659 C2651 0.929 . S
H2660 C2668 0.929 . S
H2661 C2670 0.930 . S
H2662 C2672 0.930 . S
H2663 C2675 0.929 . S
H2664 C2678 0.930 . S
H2665 C2680 0.960 . S
H2666 C2680 0.960 . S
H2667 C2680 0.960 . S
C2668 H2660 0.929 . S
C2668 C2669 1.377 . S
C2668 C2670 1.384 . S
C2669 C2668 1.377 . S
C2669 C2675 1.390 . S
C2670 H2661 0.930 . S
C2670 C2668 1.384 . S
C2670 C2671 1.372 . S
C2671 C2670 1.372 . S
C2671 C2672 1.400 . S
C2671 C2676 1.490 . S
C2672 H2662 0.930 . S
C2672 C2671 1.400 . S
C2672 C2675 1.386 . S
H2673 C2689 0.930 . S
H2674 C2690 0.931 . S
C2675 H2663 0.929 . S
C2675 C2669 1.390 . S
C2675 C2672 1.386 . S
C2676 C2671 1.490 . S
C2676 C2678 1.395 . S
C2676 C2679 1.403 . S
H2677 C2683 0.930 . S
C2678 H2664 0.930 . S
C2678 C2676 1.395 . S
C2678 C2681 1.403 . S
C2679 C2676 1.403 . S
C2679 C2680 1.524 . S
C2679 C2683 1.400 . S
C2680 H2665 0.960 . S
C2680 H2666 0.960 . S
C2680 H2667 0.960 . S
C2680 C2679 1.524 . S
C2681 C2678 1.403 . S
C2681 C2682 1.392 . S
C2681 C2685 1.495 . S
C2682 C2681 1.392 . S
C2682 C2683 1.385 . S
C2682 C2684 1.478 . S
C2683 H2677 0.930 . S
C2683 C2679 1.400 . S
C2683 C2682 1.385 . S
C2684 C2682 1.478 . S
C2684 C2686 1.381 . S
C2684 C2690 1.383 . S
C2685 C2681 1.495 . S
C2685 H2691 0.959 . S
C2685 H2692 0.961 . S
C2685 H2693 0.960 . S
C2686 C2684 1.381 . S
C2686 C2687 1.394 . S
C2686 H2694 0.930 . S
C2687 C2686 1.394 . S
C2687 C2688 1.383 . S
C2687 H2695 0.874 1_554 S
C2688 C2687 1.383 . S
C2688 C2689 1.377 . S
C2689 H2673 0.930 . S
C2689 C2688 1.377 . S
C2689 C2690 1.379 . S
C2690 H2674 0.931 . S
C2690 C2684 1.383 . S
C2690 C2689 1.379 . S
H2691 C2685 0.959 . S
H2692 C2685 0.961 . S
H2693 C2685 0.960 . S
H2694 C2686 0.930 . S
H2695 C2687 0.874 1_556 S
H2696 C2704 0.929 . S
H2697 C2706 0.930 . S
H2698 C2708 0.930 . S
H2699 C2711 0.929 . S
H2700 C2714 0.930 . S
H2701 C2716 0.960 . S
H2702 C2716 0.960 . S
H2703 C2716 0.960 . S
C2704 H2696 0.929 . S
C2704 C2705 1.377 . S
C2704 C2706 1.384 . S
C2705 C2704 1.377 . S
C2705 C2711 1.390 . S
C2706 H2697 0.930 . S
C2706 C2704 1.384 . S
C2706 C2707 1.372 . S
C2707 C2706 1.372 . S
C2707 C2708 1.400 . S
C2707 C2712 1.490 . S
C2708 H2698 0.930 . S
C2708 C2707 1.400 . S
C2708 C2711 1.386 . S
H2709 C2725 0.930 . S
H2710 C2726 0.931 . S
C2711 H2699 0.929 . S
C2711 C2705 1.390 . S
C2711 C2708 1.386 . S
C2712 C2707 1.490 . S
C2712 C2714 1.395 . S
C2712 C2715 1.403 . S
H2713 C2719 0.930 . S
C2714 H2700 0.930 . S
C2714 C2712 1.395 . S
C2714 C2717 1.403 . S
C2715 C2712 1.403 . S
C2715 C2716 1.524 . S
C2715 C2719 1.400 . S
C2716 H2701 0.960 . S
C2716 H2702 0.960 . S
C2716 H2703 0.960 . S
C2716 C2715 1.524 . S
C2717 C2714 1.403 . S
C2717 C2718 1.392 . S
C2717 C2721 1.495 . S
C2718 C2717 1.392 . S
C2718 C2719 1.385 . S
C2718 C2720 1.478 . S
C2719 H2713 0.930 . S
C2719 C2715 1.400 . S
C2719 C2718 1.385 . S
C2720 C2718 1.478 . S
C2720 C2722 1.381 . S
C2720 C2726 1.383 . S
C2721 C2717 1.495 . S
C2721 H2727 0.959 . S
C2721 H2728 0.961 . S
C2721 H2729 0.960 . S
C2722 C2720 1.381 . S
C2722 C2723 1.394 . S
C2722 H2730 0.930 . S
C2723 C2722 1.394 . S
C2723 C2724 1.383 . S
C2723 H2731 0.929 . S
C2724 C2723 1.383 . S
C2724 C2725 1.377 . S
C2725 H2709 0.930 . S
C2725 C2724 1.377 . S
C2725 C2726 1.379 . S
C2726 H2710 0.931 . S
C2726 C2720 1.383 . S
C2726 C2725 1.379 . S
H2727 C2721 0.959 . S
H2728 C2721 0.961 . S
H2729 C2721 0.960 . S
H2730 C2722 0.930 . S
H2731 C2723 0.929 . S
H2732 C2740 0.929 . S
H2733 C2742 0.930 . S
H2734 C2744 0.930 . S
H2735 C2747 0.929 . S
H2736 C2750 0.930 . S
H2737 C2752 0.960 . S
H2738 C2752 0.960 . S
H2739 C2752 0.960 . S
C2740 H2732 0.929 . S
C2740 C2741 1.377 . S
C2740 C2742 1.384 . S
C2741 C2740 1.377 . S
C2741 C2747 1.390 . S
C2742 H2733 0.930 . S
C2742 C2740 1.384 . S
C2742 C2743 1.372 . S
C2743 C2742 1.372 . S
C2743 C2744 1.400 . S
C2743 C2748 1.490 . S
C2744 H2734 0.930 . S
C2744 C2743 1.400 . S
C2744 C2747 1.386 . S
H2745 C2761 0.930 . S
H2746 C2762 0.931 . S
C2747 H2735 0.929 . S
C2747 C2741 1.390 . S
C2747 C2744 1.386 . S
C2748 C2743 1.490 . S
C2748 C2750 1.395 . S
C2748 C2751 1.403 . S
H2749 C2755 0.930 . S
C2750 H2736 0.930 . S
C2750 C2748 1.395 . S
C2750 C2753 1.403 . S
C2751 C2748 1.403 . S
C2751 C2752 1.524 . S
C2751 C2755 1.400 . S
C2752 H2737 0.960 . S
C2752 H2738 0.960 . S
C2752 H2739 0.960 . S
C2752 C2751 1.524 . S
C2753 C2750 1.403 . S
C2753 C2754 1.392 . S
C2753 C2757 1.495 . S
C2754 C2753 1.392 . S
C2754 C2755 1.385 . S
C2754 C2756 1.478 . S
C2755 H2749 0.930 . S
C2755 C2751 1.400 . S
C2755 C2754 1.385 . S
C2756 C2754 1.478 . S
C2756 C2758 1.381 . S
C2756 C2762 1.383 . S
C2757 C2753 1.495 . S
C2757 H2763 0.959 . S
C2757 H2764 0.961 . S
C2757 H2765 0.960 . S
C2758 C2756 1.381 . S
C2758 C2759 1.394 . S
C2758 H2766 0.930 . S
C2759 C2758 1.394 . S
C2759 C2760 1.383 . S
C2759 H2767 0.929 . S
C2760 C2759 1.383 . S
C2760 C2761 1.377 . S
C2761 H2745 0.930 . S
C2761 C2760 1.377 . S
C2761 C2762 1.379 . S
C2762 H2746 0.931 . S
C2762 C2756 1.383 . S
C2762 C2761 1.379 . S
H2763 C2757 0.959 . S
H2764 C2757 0.961 . S
H2765 C2757 0.960 . S
H2766 C2758 0.930 . S
H2767 C2759 0.929 . S
H2768 C2776 0.929 . S
H2769 C2778 0.930 . S
H2770 C2780 0.930 . S
H2771 C2783 0.929 . S
H2772 C2786 0.930 . S
H2773 C2788 0.960 . S
H2774 C2788 0.960 . S
H2775 C2788 0.960 . S
C2776 H2768 0.929 . S
C2776 C2777 1.377 . S
C2776 C2778 1.384 . S
C2777 C2776 1.377 . S
C2777 C2783 1.390 . S
C2778 H2769 0.930 . S
C2778 C2776 1.384 . S
C2778 C2779 1.372 . S
C2779 C2778 1.372 . S
C2779 C2780 1.400 . S
C2779 C2784 1.490 . S
C2780 H2770 0.930 . S
C2780 C2779 1.400 . S
C2780 C2783 1.386 . S
H2781 C2797 0.930 . S
H2782 C2798 0.931 . S
C2783 H2771 0.929 . S
C2783 C2777 1.390 . S
C2783 C2780 1.386 . S
C2784 C2779 1.490 . S
C2784 C2786 1.395 . S
C2784 C2787 1.403 . S
H2785 C2791 0.930 . S
C2786 H2772 0.930 . S
C2786 C2784 1.395 . S
C2786 C2789 1.403 . S
C2787 C2784 1.403 . S
C2787 C2788 1.524 . S
C2787 C2791 1.400 . S
C2788 H2773 0.960 . S
C2788 H2774 0.960 . S
C2788 H2775 0.960 . S
C2788 C2787 1.524 . S
C2789 C2786 1.403 . S
C2789 C2790 1.392 . S
C2789 C2793 1.495 . S
C2790 C2789 1.392 . S
C2790 C2791 1.385 . S
C2790 C2792 1.478 . S
C2791 H2785 0.930 . S
C2791 C2787 1.400 . S
C2791 C2790 1.385 . S
C2792 C2790 1.478 . S
C2792 C2794 1.381 . S
C2792 C2798 1.383 . S
C2793 C2789 1.495 . S
C2793 H2799 0.959 . S
C2793 H2800 0.961 . S
C2793 H2801 0.960 . S
C2794 C2792 1.381 . S
C2794 C2795 1.394 . S
C2794 H2802 0.930 . S
C2795 C2794 1.394 . S
C2795 C2796 1.383 . S
C2795 H2803 0.929 . S
C2796 C2795 1.383 . S
C2796 C2797 1.377 . S
C2797 H2781 0.930 . S
C2797 C2796 1.377 . S
C2797 C2798 1.379 . S
C2798 H2782 0.931 . S
C2798 C2792 1.383 . S
C2798 C2797 1.379 . S
H2799 C2793 0.959 . S
H2800 C2793 0.961 . S
H2801 C2793 0.960 . S
H2802 C2794 0.930 . S
H2803 C2795 0.929 . S
H2804 C2812 0.929 . S
H2805 C2814 0.930 . S
H2806 C2816 0.930 . S
H2807 C2819 0.929 . S
H2808 C2822 0.930 . S
H2809 C2824 0.960 . S
H2810 C2824 0.960 . S
H2811 C2824 0.960 . S
C2812 H2804 0.929 . S
C2812 C2813 1.377 . S
C2812 C2814 1.384 . S
C2813 C2812 1.377 . S
C2813 C2819 1.390 . S
C2814 H2805 0.930 . S
C2814 C2812 1.384 . S
C2814 C2815 1.372 . S
C2815 C2814 1.372 . S
C2815 C2816 1.400 . S
C2815 C2820 1.490 . S
C2816 H2806 0.930 . S
C2816 C2815 1.400 . S
C2816 C2819 1.386 . S
H2817 C2833 0.930 . S
H2818 C2834 0.931 . S
C2819 H2807 0.929 . S
C2819 C2813 1.390 . S
C2819 C2816 1.386 . S
C2820 C2815 1.490 . S
C2820 C2822 1.395 . S
C2820 C2823 1.403 . S
H2821 C2827 0.930 . S
C2822 H2808 0.930 . S
C2822 C2820 1.395 . S
C2822 C2825 1.403 . S
C2823 C2820 1.403 . S
C2823 C2824 1.524 . S
C2823 C2827 1.400 . S
C2824 H2809 0.960 . S
C2824 H2810 0.960 . S
C2824 H2811 0.960 . S
C2824 C2823 1.524 . S
C2825 C2822 1.403 . S
C2825 C2826 1.392 . S
C2825 C2829 1.495 . S
C2826 C2825 1.392 . S
C2826 C2827 1.385 . S
C2826 C2828 1.478 . S
C2827 H2821 0.930 . S
C2827 C2823 1.400 . S
C2827 C2826 1.385 . S
C2828 C2826 1.478 . S
C2828 C2830 1.381 . S
C2828 C2834 1.383 . S
C2829 C2825 1.495 . S
C2829 H2835 0.959 . S
C2829 H2836 0.961 . S
C2829 H2837 0.960 . S
C2830 C2828 1.381 . S
C2830 C2831 1.394 . S
C2830 H2838 0.930 . S
C2831 C2830 1.394 . S
C2831 C2832 1.383 . S
C2831 H2839 0.929 . S
C2832 C2831 1.383 . S
C2832 C2833 1.377 . S
C2833 H2817 0.930 . S
C2833 C2832 1.377 . S
C2833 C2834 1.379 . S
C2834 H2818 0.931 . S
C2834 C2828 1.383 . S
C2834 C2833 1.379 . S
H2835 C2829 0.959 . S
H2836 C2829 0.961 . S
H2837 C2829 0.960 . S
H2838 C2830 0.930 . S
H2839 C2831 0.929 . S
H2840 C2848 0.929 . S
H2841 C2850 0.930 . S
H2842 C2852 0.930 . S
H2843 C2855 0.929 . S
H2844 C2858 0.930 . S
H2845 C2860 0.960 . S
H2846 C2860 0.960 . S
H2847 C2860 0.960 . S
C2848 H2840 0.929 . S
C2848 C2849 1.377 . S
C2848 C2850 1.384 . S
C2849 C2848 1.377 . S
C2849 C2855 1.390 . S
C2850 H2841 0.930 . S
C2850 C2848 1.384 . S
C2850 C2851 1.372 . S
C2851 C2850 1.372 . S
C2851 C2852 1.400 . S
C2851 C2856 1.490 . S
C2852 H2842 0.930 . S
C2852 C2851 1.400 . S
C2852 C2855 1.386 . S
H2853 C2869 0.930 . S
H2854 C2870 0.931 . S
C2855 H2843 0.929 . S
C2855 C2849 1.390 . S
C2855 C2852 1.386 . S
C2856 C2851 1.490 . S
C2856 C2858 1.395 . S
C2856 C2859 1.403 . S
H2857 C2863 0.930 . S
C2858 H2844 0.930 . S
C2858 C2856 1.395 . S
C2858 C2861 1.403 . S
C2859 C2856 1.403 . S
C2859 C2860 1.524 . S
C2859 C2863 1.400 . S
C2860 H2845 0.960 . S
C2860 H2846 0.960 . S
C2860 H2847 0.960 . S
C2860 C2859 1.524 . S
C2861 C2858 1.403 . S
C2861 C2862 1.392 . S
C2861 C2865 1.495 . S
C2862 C2861 1.392 . S
C2862 C2863 1.385 . S
C2862 C2864 1.478 . S
C2863 H2857 0.930 . S
C2863 C2859 1.400 . S
C2863 C2862 1.385 . S
C2864 C2862 1.478 . S
C2864 C2866 1.381 . S
C2864 C2870 1.383 . S
C2865 C2861 1.495 . S
C2865 H2871 0.959 . S
C2865 H2872 0.961 . S
C2865 H2873 0.960 . S
C2866 C2864 1.381 . S
C2866 C2867 1.394 . S
C2866 H2874 0.930 . S
C2867 C2866 1.394 . S
C2867 C2868 1.383 . S
C2867 H2875 0.929 . S
C2868 C2867 1.383 . S
C2868 C2869 1.377 . S
C2869 H2853 0.930 . S
C2869 C2868 1.377 . S
C2869 C2870 1.379 . S
C2870 H2854 0.931 . S
C2870 C2864 1.383 . S
C2870 C2869 1.379 . S
H2871 C2865 0.959 . S
H2872 C2865 0.961 . S
H2873 C2865 0.960 . S
H2874 C2866 0.930 . S
H2875 C2867 0.929 . S
H2876 C2884 0.929 . S
H2877 C2886 0.930 . S
H2878 C2888 0.930 . S
H2879 C2891 0.929 . S
H2880 C2894 0.930 . S
H2881 C2896 0.960 . S
H2882 C2896 0.960 . S
H2883 C2896 0.960 . S
C2884 H2876 0.929 . S
C2884 C2885 1.377 . S
C2884 C2886 1.384 . S
C2885 C2884 1.377 . S
C2885 C2891 1.390 . S
C2886 H2877 0.930 . S
C2886 C2884 1.384 . S
C2886 C2887 1.372 . S
C2887 C2886 1.372 . S
C2887 C2888 1.400 . S
C2887 C2892 1.490 . S
C2888 H2878 0.930 . S
C2888 C2887 1.400 . S
C2888 C2891 1.386 . S
H2889 C2905 0.930 . S
H2890 C2906 0.931 . S
C2891 H2879 0.929 . S
C2891 C2885 1.390 . S
C2891 C2888 1.386 . S
C2892 C2887 1.490 . S
C2892 C2894 1.395 . S
C2892 C2895 1.403 . S
H2893 C2899 0.930 . S
C2894 H2880 0.930 . S
C2894 C2892 1.395 . S
C2894 C2897 1.403 . S
C2895 C2892 1.403 . S
C2895 C2896 1.524 . S
C2895 C2899 1.400 . S
C2896 H2881 0.960 . S
C2896 H2882 0.960 . S
C2896 H2883 0.960 . S
C2896 C2895 1.524 . S
C2897 C2894 1.403 . S
C2897 C2898 1.392 . S
C2897 C2901 1.495 . S
C2898 C2897 1.392 . S
C2898 C2899 1.385 . S
C2898 C2900 1.478 . S
C2899 H2893 0.930 . S
C2899 C2895 1.400 . S
C2899 C2898 1.385 . S
C2900 C2898 1.478 . S
C2900 C2902 1.381 . S
C2900 C2906 1.383 . S
C2901 C2897 1.495 . S
C2901 H2907 0.959 . S
C2901 H2908 0.961 . S
C2901 H2909 0.960 . S
C2902 C2900 1.381 . S
C2902 C2903 1.394 . S
C2902 H2910 0.930 . S
C2903 C2902 1.394 . S
C2903 C2904 1.383 . S
C2903 H2911 0.929 . S
C2904 C2903 1.383 . S
C2904 C2905 1.377 . S
C2905 H2889 0.930 . S
C2905 C2904 1.377 . S
C2905 C2906 1.379 . S
C2906 H2890 0.931 . S
C2906 C2900 1.383 . S
C2906 C2905 1.379 . S
H2907 C2901 0.959 . S
H2908 C2901 0.961 . S
H2909 C2901 0.960 . S
H2910 C2902 0.930 . S
H2911 C2903 0.929 . S
H2912 C2920 0.929 . S
H2913 C2922 0.930 . S
H2914 C2924 0.930 . S
H2915 C2927 0.929 . S
H2916 C2930 0.930 . S
H2917 C2932 0.960 . S
H2918 C2932 0.960 . S
H2919 C2932 0.960 . S
C2920 H2912 0.929 . S
C2920 C2921 1.377 . S
C2920 C2922 1.384 . S
C2921 C2920 1.377 . S
C2921 C2927 1.390 . S
C2922 H2913 0.930 . S
C2922 C2920 1.384 . S
C2922 C2923 1.372 . S
C2923 C2922 1.372 . S
C2923 C2924 1.400 . S
C2923 C2928 1.490 . S
C2924 H2914 0.930 . S
C2924 C2923 1.400 . S
C2924 C2927 1.386 . S
H2925 C2941 0.930 . S
H2926 C2942 0.931 . S
C2927 H2915 0.929 . S
C2927 C2921 1.390 . S
C2927 C2924 1.386 . S
C2928 C2923 1.490 . S
C2928 C2930 1.395 . S
C2928 C2931 1.403 . S
H2929 C2935 0.930 . S
C2930 H2916 0.930 . S
C2930 C2928 1.395 . S
C2930 C2933 1.403 . S
C2931 C2928 1.403 . S
C2931 C2932 1.524 . S
C2931 C2935 1.400 . S
C2932 H2917 0.960 . S
C2932 H2918 0.960 . S
C2932 H2919 0.960 . S
C2932 C2931 1.524 . S
C2933 C2930 1.403 . S
C2933 C2934 1.392 . S
C2933 C2937 1.495 . S
C2934 C2933 1.392 . S
C2934 C2935 1.385 . S
C2934 C2936 1.478 . S
C2935 H2929 0.930 . S
C2935 C2931 1.400 . S
C2935 C2934 1.385 . S
C2936 C2934 1.478 . S
C2936 C2938 1.381 . S
C2936 C2942 1.383 . S
C2937 C2933 1.495 . S
C2937 H2943 0.959 . S
C2937 H2944 0.961 . S
C2937 H2945 0.960 . S
C2938 C2936 1.381 . S
C2938 C2939 1.394 . S
C2938 H2946 0.930 . S
C2939 C2938 1.394 . S
C2939 C2940 1.383 . S
C2939 H2947 0.929 . S
C2940 C2939 1.383 . S
C2940 C2941 1.377 . S
C2941 H2925 0.930 . S
C2941 C2940 1.377 . S
C2941 C2942 1.379 . S
C2942 H2926 0.931 . S
C2942 C2936 1.383 . S
C2942 C2941 1.379 . S
H2943 C2937 0.959 . S
H2944 C2937 0.961 . S
H2945 C2937 0.960 . S
H2946 C2938 0.930 . S
H2947 C2939 0.929 . S
H2948 C2956 0.929 . S
H2949 C2958 0.930 . S
H2950 C2960 0.930 . S
H2951 C2963 0.929 . S
H2952 C2966 0.930 . S
H2953 C2968 0.960 . S
H2954 C2968 0.960 . S
H2955 C2968 0.960 . S
C2956 H2948 0.929 . S
C2956 C2957 1.377 . S
C2956 C2958 1.384 . S
C2957 C2956 1.377 . S
C2957 C2963 1.390 . S
C2958 H2949 0.930 . S
C2958 C2956 1.384 . S
C2958 C2959 1.372 . S
C2959 C2958 1.372 . S
C2959 C2960 1.400 . S
C2959 C2964 1.490 . S
C2960 H2950 0.930 . S
C2960 C2959 1.400 . S
C2960 C2963 1.386 . S
H2961 C2977 0.930 . S
H2962 C2978 0.931 . S
C2963 H2951 0.929 . S
C2963 C2957 1.390 . S
C2963 C2960 1.386 . S
C2964 C2959 1.490 . S
C2964 C2966 1.395 . S
C2964 C2967 1.403 . S
H2965 C2971 0.930 . S
C2966 H2952 0.930 . S
C2966 C2964 1.395 . S
C2966 C2969 1.403 . S
C2967 C2964 1.403 . S
C2967 C2968 1.524 . S
C2967 C2971 1.400 . S
C2968 H2953 0.960 . S
C2968 H2954 0.960 . S
C2968 H2955 0.960 . S
C2968 C2967 1.524 . S
C2969 C2966 1.403 . S
C2969 C2970 1.392 . S
C2969 C2973 1.495 . S
C2970 C2969 1.392 . S
C2970 C2971 1.385 . S
C2970 C2972 1.478 . S
C2971 H2965 0.930 . S
C2971 C2967 1.400 . S
C2971 C2970 1.385 . S
C2972 C2970 1.478 . S
C2972 C2974 1.381 . S
C2972 C2978 1.383 . S
C2973 C2969 1.495 . S
C2973 H2979 0.959 . S
C2973 H2980 0.961 . S
C2973 H2981 0.960 . S
C2974 C2972 1.381 . S
C2974 C2975 1.394 . S
C2974 H2982 0.930 . S
C2975 C2974 1.394 . S
C2975 C2976 1.383 . S
C2975 H2983 0.929 . S
C2976 C2975 1.383 . S
C2976 C2977 1.377 . S
C2977 H2961 0.930 . S
C2977 C2976 1.377 . S
C2977 C2978 1.379 . S
C2978 H2962 0.931 . S
C2978 C2972 1.383 . S
C2978 C2977 1.379 . S
H2979 C2973 0.959 . S
H2980 C2973 0.961 . S
H2981 C2973 0.960 . S
H2982 C2974 0.930 . S
H2983 C2975 0.929 . S
H2984 C2992 0.929 . S
H2985 C2994 0.930 . S
H2986 C2996 0.930 . S
H2987 C2999 0.929 . S
H2988 C3002 0.930 . S
H2989 C3004 0.960 . S
H2990 C3004 0.960 . S
H2991 C3004 0.960 . S
C2992 H2984 0.929 . S
C2992 C2993 1.377 . S
C2992 C2994 1.384 . S
C2993 C2992 1.377 . S
C2993 C2999 1.390 1_455 S
C2994 H2985 0.930 . S
C2994 C2992 1.384 . S
C2994 C2995 1.372 . S
C2995 C2994 1.372 . S
C2995 C2996 1.400 1_455 S
C2995 C3000 1.490 . S
C2996 H2986 0.930 . S
C2996 C2995 1.400 1_655 S
C2996 C2999 1.386 . S
H2997 C3013 0.930 . S
H2998 C3014 0.931 . S
C2999 H2987 0.929 . S
C2999 C2993 1.390 1_655 S
C2999 C2996 1.386 . S
C3000 C2995 1.490 . S
C3000 C3002 1.395 . S
C3000 C3003 1.403 1_455 S
H3001 C3007 0.930 . S
C3002 H2988 0.930 . S
C3002 C3000 1.395 . S
C3002 C3005 1.403 . S
C3003 C3000 1.403 1_655 S
C3003 C3004 1.524 . S
C3003 C3007 1.400 . S
C3004 H2989 0.960 . S
C3004 H2990 0.960 . S
C3004 H2991 0.960 . S
C3004 C3003 1.524 . S
C3005 C3002 1.403 . S
C3005 C3006 1.392 . S
C3005 C3009 1.495 . S
C3006 C3005 1.392 . S
C3006 C3007 1.385 1_455 S
C3006 C3008 1.478 . S
C3007 H3001 0.930 . S
C3007 C3003 1.400 . S
C3007 C3006 1.385 1_655 S
C3008 C3006 1.478 . S
C3008 C3010 1.381 . S
C3008 C3014 1.383 1_455 S
C3009 C3005 1.495 . S
C3009 H3015 0.959 . S
C3009 H3016 0.961 . S
C3009 H3017 0.960 . S
C3010 C3008 1.381 . S
C3010 C3011 1.394 1_556 S
C3010 H3018 0.930 . S
C3011 C3010 1.394 1_554 S
C3011 C3012 1.383 1_554 S
C3011 H3019 0.929 . S
C3012 C3011 1.383 1_556 S
C3012 C3013 1.377 1_455 S
C3013 H2997 0.930 . S
C3013 C3012 1.377 1_655 S
C3013 C3014 1.379 . S
C3014 H2998 0.931 . S
C3014 C3008 1.383 1_655 S
C3014 C3013 1.379 . S
H3015 C3009 0.959 . S
H3016 C3009 0.961 . S
H3017 C3009 0.960 . S
H3018 C3010 0.930 . S
H3019 C3011 0.929 . S
H3020 C3028 0.929 . S
H3021 C3030 0.930 . S
H3022 C3032 0.930 . S
H3023 C3035 0.929 . S
H3024 C3038 0.930 . S
H3025 C3040 0.960 . S
H3026 C3040 0.960 . S
H3027 C3040 0.960 . S
C3028 H3020 0.929 . S
C3028 C3029 1.377 . S
C3028 C3030 1.384 . S
C3029 C3028 1.377 . S
C3029 C3035 1.390 . S
C3030 H3021 0.930 . S
C3030 C3028 1.384 . S
C3030 C3031 1.372 . S
C3031 C3030 1.372 . S
C3031 C3032 1.400 . S
C3031 C3036 1.490 . S
C3032 H3022 0.930 . S
C3032 C3031 1.400 . S
C3032 C3035 1.386 . S
H3033 C3049 0.930 . S
H3034 C3050 0.931 . S
C3035 H3023 0.929 . S
C3035 C3029 1.390 . S
C3035 C3032 1.386 . S
C3036 C3031 1.490 . S
C3036 C3038 1.395 . S
C3036 C3039 1.403 . S
H3037 C3043 0.930 . S
C3038 H3024 0.930 . S
C3038 C3036 1.395 . S
C3038 C3041 1.403 . S
C3039 C3036 1.403 . S
C3039 C3040 1.524 . S
C3039 C3043 1.400 . S
C3040 H3025 0.960 . S
C3040 H3026 0.960 . S
C3040 H3027 0.960 . S
C3040 C3039 1.524 . S
C3041 C3038 1.403 . S
C3041 C3042 1.392 . S
C3041 C3045 1.495 . S
C3042 C3041 1.392 . S
C3042 C3043 1.385 . S
C3042 C3044 1.478 . S
C3043 H3037 0.930 . S
C3043 C3039 1.400 . S
C3043 C3042 1.385 . S
C3044 C3042 1.478 . S
C3044 C3046 1.381 . S
C3044 C3050 1.383 . S
C3045 C3041 1.495 . S
C3045 H3051 0.959 . S
C3045 H3052 0.961 . S
C3045 H3053 0.960 . S
C3046 C3044 1.381 . S
C3046 C3047 1.394 . S
C3046 H3054 0.930 . S
C3047 C3046 1.394 . S
C3047 C3048 1.383 . S
C3047 H3055 0.929 . S
C3048 C3047 1.383 . S
C3048 C3049 1.377 . S
C3049 H3033 0.930 . S
C3049 C3048 1.377 . S
C3049 C3050 1.379 . S
C3050 H3034 0.931 . S
C3050 C3044 1.383 . S
C3050 C3049 1.379 . S
H3051 C3045 0.959 . S
H3052 C3045 0.961 . S
H3053 C3045 0.960 . S
H3054 C3046 0.930 . S
H3055 C3047 0.929 . S
H3056 C3064 0.929 . S
H3057 C3066 0.930 . S
H3058 C3068 0.930 . S
H3059 C3071 0.929 . S
H3060 C3074 0.930 . S
H3061 C3076 0.960 . S
H3062 C3076 0.960 . S
H3063 C3076 0.960 . S
C3064 H3056 0.929 . S
C3064 C3065 1.377 . S
C3064 C3066 1.384 . S
C3065 C3064 1.377 . S
C3065 C3071 1.390 . S
C3066 H3057 0.930 . S
C3066 C3064 1.384 . S
C3066 C3067 1.372 . S
C3067 C3066 1.372 . S
C3067 C3068 1.400 . S
C3067 C3072 1.490 . S
C3068 H3058 0.930 . S
C3068 C3067 1.400 . S
C3068 C3071 1.386 . S
H3069 C3085 0.930 . S
H3070 C3086 0.931 . S
C3071 H3059 0.929 . S
C3071 C3065 1.390 . S
C3071 C3068 1.386 . S
C3072 C3067 1.490 . S
C3072 C3074 1.395 . S
C3072 C3075 1.403 . S
H3073 C3079 0.930 . S
C3074 H3060 0.930 . S
C3074 C3072 1.395 . S
C3074 C3077 1.403 . S
C3075 C3072 1.403 . S
C3075 C3076 1.524 . S
C3075 C3079 1.400 . S
C3076 H3061 0.960 . S
C3076 H3062 0.960 . S
C3076 H3063 0.960 . S
C3076 C3075 1.524 . S
C3077 C3074 1.403 . S
C3077 C3078 1.392 . S
C3077 C3081 1.495 . S
C3078 C3077 1.392 . S
C3078 C3079 1.385 . S
C3078 C3080 1.478 . S
C3079 H3073 0.930 . S
C3079 C3075 1.400 . S
C3079 C3078 1.385 . S
C3080 C3078 1.478 . S
C3080 C3082 1.381 . S
C3080 C3086 1.383 . S
C3081 C3077 1.495 . S
C3081 H3087 0.959 . S
C3081 H3088 0.961 . S
C3081 H3089 0.960 . S
C3082 C3080 1.381 . S
C3082 C3083 1.394 . S
C3082 H3090 0.930 . S
C3083 C3082 1.394 . S
C3083 C3084 1.383 . S
C3083 H3091 0.929 . S
C3084 C3083 1.383 . S
C3084 C3085 1.377 . S
C3085 H3069 0.930 . S
C3085 C3084 1.377 . S
C3085 C3086 1.379 . S
C3086 H3070 0.931 . S
C3086 C3080 1.383 . S
C3086 C3085 1.379 . S
H3087 C3081 0.959 . S
H3088 C3081 0.961 . S
H3089 C3081 0.960 . S
H3090 C3082 0.930 . S
H3091 C3083 0.929 . S
H3092 C3100 0.929 . S
H3093 C3102 0.930 . S
H3094 C3104 0.930 . S
H3095 C3107 0.929 . S
H3096 C3110 0.930 . S
H3097 C3112 0.960 . S
H3098 C3112 0.960 . S
H3099 C3112 0.960 . S
C3100 H3092 0.929 . S
C3100 C3101 1.377 . S
C3100 C3102 1.384 . S
C3101 C3100 1.377 . S
C3101 C3107 1.390 . S
C3102 H3093 0.930 . S
C3102 C3100 1.384 . S
C3102 C3103 1.372 . S
C3103 C3102 1.372 . S
C3103 C3104 1.400 . S
C3103 C3108 1.490 . S
C3104 H3094 0.930 . S
C3104 C3103 1.400 . S
C3104 C3107 1.386 . S
H3105 C3121 0.930 . S
H3106 C3122 0.931 . S
C3107 H3095 0.929 . S
C3107 C3101 1.390 . S
C3107 C3104 1.386 . S
C3108 C3103 1.490 . S
C3108 C3110 1.395 . S
C3108 C3111 1.403 . S
H3109 C3115 0.930 . S
C3110 H3096 0.930 . S
C3110 C3108 1.395 . S
C3110 C3113 1.403 . S
C3111 C3108 1.403 . S
C3111 C3112 1.524 . S
C3111 C3115 1.400 . S
C3112 H3097 0.960 . S
C3112 H3098 0.960 . S
C3112 H3099 0.960 . S
C3112 C3111 1.524 . S
C3113 C3110 1.403 . S
C3113 C3114 1.392 . S
C3113 C3117 1.495 . S
C3114 C3113 1.392 . S
C3114 C3115 1.385 . S
C3114 C3116 1.478 . S
C3115 H3109 0.930 . S
C3115 C3111 1.400 . S
C3115 C3114 1.385 . S
C3116 C3114 1.478 . S
C3116 C3118 1.381 . S
C3116 C3122 1.383 . S
C3117 C3113 1.495 . S
C3117 H3123 0.959 . S
C3117 H3124 0.961 . S
C3117 H3125 0.960 . S
C3118 C3116 1.381 . S
C3118 C3119 1.394 . S
C3118 H3126 0.930 . S
C3119 C3118 1.394 . S
C3119 C3120 1.383 . S
C3119 H3127 0.929 . S
C3120 C3119 1.383 . S
C3120 C3121 1.377 . S
C3121 H3105 0.930 . S
C3121 C3120 1.377 . S
C3121 C3122 1.379 . S
C3122 H3106 0.931 . S
C3122 C3116 1.383 . S
C3122 C3121 1.379 . S
H3123 C3117 0.959 . S
H3124 C3117 0.961 . S
H3125 C3117 0.960 . S
H3126 C3118 0.930 . S
H3127 C3119 0.929 . S
H3128 C3136 0.929 . S
H3129 C3138 0.930 . S
H3130 C3140 0.930 . S
H3131 C3143 0.929 . S
H3132 C3146 0.930 . S
H3133 C3148 0.960 . S
H3134 C3148 0.960 . S
H3135 C3148 0.960 . S
C3136 H3128 0.929 . S
C3136 C3137 1.377 1_655 S
C3136 C3138 1.384 . S
C3137 C3136 1.377 1_455 S
C3137 C3143 1.390 . S
C3138 H3129 0.930 . S
C3138 C3136 1.384 . S
C3138 C3139 1.372 1_655 S
C3139 C3138 1.372 1_455 S
C3139 C3140 1.400 . S
C3139 C3144 1.490 . S
C3140 H3130 0.930 . S
C3140 C3139 1.400 . S
C3140 C3143 1.386 . S
H3141 C3157 0.930 . S
H3142 C3158 0.931 . S
C3143 H3131 0.929 . S
C3143 C3137 1.390 . S
C3143 C3140 1.386 . S
C3144 C3139 1.490 . S
C3144 C3146 1.395 . S
C3144 C3147 1.403 1_455 S
H3145 C3151 0.936 . S
C3146 H3132 0.930 . S
C3146 C3144 1.395 . S
C3146 C3149 1.403 . S
C3147 C3144 1.403 1_655 S
C3147 C3148 1.524 . S
C3147 C3151 1.410 . S
C3148 H3133 0.960 . S
C3148 H3134 0.960 . S
C3148 H3135 0.960 . S
C3148 C3147 1.524 . S
C3149 C3146 1.403 . S
C3149 C3150 1.392 . S
C3149 C3153 1.495 . S
C3150 C3149 1.392 . S
C3150 C3151 1.371 1_455 S
C3150 C3152 1.478 . S
C3151 H3145 0.936 . S
C3151 C3147 1.410 . S
C3151 C3150 1.371 1_655 S
C3152 C3150 1.478 . S
C3152 C3154 1.381 1_455 S
C3152 C3158 1.383 . S
C3153 C3149 1.495 . S
C3153 H3159 0.959 . S
C3153 H3160 0.961 . S
C3153 H3161 0.960 . S
C3154 C3152 1.381 1_655 S
C3154 C3155 1.394 . S
C3154 H3162 0.930 . S
C3155 C3154 1.394 . S
C3155 C3156 1.383 1_655 S
C3155 H3163 0.929 . S
C3156 C3155 1.383 1_455 S
C3156 C3157 1.377 . S
C3157 H3141 0.930 . S
C3157 C3156 1.377 . S
C3157 C3158 1.379 . S
C3158 H3142 0.931 . S
C3158 C3152 1.383 . S
C3158 C3157 1.379 . S
H3159 C3153 0.959 . S
H3160 C3153 0.961 . S
H3161 C3153 0.960 . S
H3162 C3154 0.930 . S
H3163 C3155 0.929 . S
H3164 C3172 0.929 . S
H3165 C3174 0.930 . S
H3166 C3176 0.930 . S
H3167 C3179 0.929 . S
H3168 C3182 0.930 . S
H3169 C3184 0.960 . S
H3170 C3184 0.960 . S
H3171 C3184 0.960 . S
C3172 H3164 0.929 . S
C3172 C3173 1.377 . S
C3172 C3174 1.384 . S
C3173 C3172 1.377 . S
C3173 C3179 1.390 . S
C3174 H3165 0.930 . S
C3174 C3172 1.384 . S
C3174 C3175 1.372 . S
C3175 C3174 1.372 . S
C3175 C3176 1.400 . S
C3175 C3180 1.490 . S
C3176 H3166 0.930 . S
C3176 C3175 1.400 . S
C3176 C3179 1.386 . S
H3177 C3193 0.930 . S
H3178 C3194 0.931 . S
C3179 H3167 0.929 . S
C3179 C3173 1.390 . S
C3179 C3176 1.386 . S
C3180 C3175 1.490 . S
C3180 C3182 1.395 . S
C3180 C3183 1.403 . S
H3181 C3187 0.930 . S
C3182 H3168 0.930 . S
C3182 C3180 1.395 . S
C3182 C3185 1.403 . S
C3183 C3180 1.403 . S
C3183 C3184 1.524 . S
C3183 C3187 1.400 . S
C3184 H3169 0.960 . S
C3184 H3170 0.960 . S
C3184 H3171 0.960 . S
C3184 C3183 1.524 . S
C3185 C3182 1.403 . S
C3185 C3186 1.392 . S
C3185 C3189 1.495 . S
C3186 C3185 1.392 . S
C3186 C3187 1.385 . S
C3186 C3188 1.478 . S
C3187 H3181 0.930 . S
C3187 C3183 1.400 . S
C3187 C3186 1.385 . S
C3188 C3186 1.478 . S
C3188 C3190 1.381 . S
C3188 C3194 1.383 . S
C3189 C3185 1.495 . S
C3189 H3195 0.959 . S
C3189 H3196 0.961 . S
C3189 H3197 0.960 . S
C3190 C3188 1.381 . S
C3190 C3191 1.394 . S
C3190 H3198 0.930 . S
C3191 C3190 1.394 . S
C3191 C3192 1.383 . S
C3191 H3199 0.929 . S
C3192 C3191 1.383 . S
C3192 C3193 1.377 . S
C3193 H3177 0.930 . S
C3193 C3192 1.377 . S
C3193 C3194 1.379 . S
C3194 H3178 0.931 . S
C3194 C3188 1.383 . S
C3194 C3193 1.379 . S
H3195 C3189 0.959 . S
H3196 C3189 0.961 . S
H3197 C3189 0.960 . S
H3198 C3190 0.930 . S
H3199 C3191 0.929 . S
H3200 C3208 0.929 . S
H3201 C3210 0.930 . S
H3202 C3212 0.930 . S
H3203 C3215 0.929 . S
H3204 C3218 0.930 . S
H3205 C3220 0.960 . S
H3206 C3220 0.960 . S
H3207 C3220 0.960 . S
C3208 H3200 0.929 . S
C3208 C3209 1.377 . S
C3208 C3210 1.384 . S
C3209 C3208 1.377 . S
C3209 C3215 1.390 . S
C3210 H3201 0.930 . S
C3210 C3208 1.384 . S
C3210 C3211 1.372 . S
C3211 C3210 1.372 . S
C3211 C3212 1.400 . S
C3211 C3216 1.490 . S
C3212 H3202 0.930 . S
C3212 C3211 1.400 . S
C3212 C3215 1.386 . S
H3213 C3229 0.930 . S
H3214 C3230 0.931 . S
C3215 H3203 0.929 . S
C3215 C3209 1.390 . S
C3215 C3212 1.386 . S
C3216 C3211 1.490 . S
C3216 C3218 1.395 . S
C3216 C3219 1.403 . S
H3217 C3223 0.930 . S
C3218 H3204 0.930 . S
C3218 C3216 1.395 . S
C3218 C3221 1.403 . S
C3219 C3216 1.403 . S
C3219 C3220 1.524 . S
C3219 C3223 1.400 . S
C3220 H3205 0.960 . S
C3220 H3206 0.960 . S
C3220 H3207 0.960 . S
C3220 C3219 1.524 . S
C3221 C3218 1.403 . S
C3221 C3222 1.392 . S
C3221 C3225 1.495 . S
C3222 C3221 1.392 . S
C3222 C3223 1.385 . S
C3222 C3224 1.478 . S
C3223 H3217 0.930 . S
C3223 C3219 1.400 . S
C3223 C3222 1.385 . S
C3224 C3222 1.478 . S
C3224 C3226 1.381 . S
C3224 C3230 1.383 . S
C3225 C3221 1.495 . S
C3225 H3231 0.959 . S
C3225 H3232 0.961 . S
C3225 H3233 0.960 . S
C3226 C3224 1.381 . S
C3226 C3227 1.394 . S
C3226 H3234 0.930 . S
C3227 C3226 1.394 . S
C3227 C3228 1.383 . S
C3227 H3235 0.929 . S
C3228 C3227 1.383 . S
C3228 C3229 1.377 . S
C3229 H3213 0.930 . S
C3229 C3228 1.377 . S
C3229 C3230 1.379 . S
C3230 H3214 0.931 . S
C3230 C3224 1.383 . S
C3230 C3229 1.379 . S
H3231 C3225 0.959 . S
H3232 C3225 0.961 . S
H3233 C3225 0.960 . S
H3234 C3226 0.930 . S
H3235 C3227 0.929 . S
H3236 C3244 0.929 . S
H3237 C3246 0.930 . S
H3238 C3248 0.930 . S
H3239 C3251 0.929 . S
H3240 C3254 0.930 . S
H3241 C3256 0.960 . S
H3242 C3256 0.960 . S
H3243 C3256 0.960 . S
C3244 H3236 0.929 . S
C3244 C3245 1.377 . S
C3244 C3246 1.384 . S
C3245 C3244 1.377 . S
C3245 C3251 1.390 . S
C3246 H3237 0.930 . S
C3246 C3244 1.384 . S
C3246 C3247 1.372 . S
C3247 C3246 1.372 . S
C3247 C3248 1.400 . S
C3247 C3252 1.490 . S
C3248 H3238 0.930 . S
C3248 C3247 1.400 . S
C3248 C3251 1.386 . S
H3249 C3265 0.930 . S
H3250 C3266 0.931 . S
C3251 H3239 0.929 . S
C3251 C3245 1.390 . S
C3251 C3248 1.386 . S
C3252 C3247 1.490 . S
C3252 C3254 1.395 . S
C3252 C3255 1.403 . S
H3253 C3259 0.930 . S
C3254 H3240 0.930 . S
C3254 C3252 1.395 . S
C3254 C3257 1.403 . S
C3255 C3252 1.403 . S
C3255 C3256 1.524 . S
C3255 C3259 1.400 . S
C3256 H3241 0.960 . S
C3256 H3242 0.960 . S
C3256 H3243 0.960 . S
C3256 C3255 1.524 . S
C3257 C3254 1.403 . S
C3257 C3258 1.392 . S
C3257 C3261 1.495 . S
C3258 C3257 1.392 . S
C3258 C3259 1.385 . S
C3258 C3260 1.478 . S
C3259 H3253 0.930 . S
C3259 C3255 1.400 . S
C3259 C3258 1.385 . S
C3260 C3258 1.478 . S
C3260 C3262 1.381 . S
C3260 C3266 1.383 . S
C3261 C3257 1.495 . S
C3261 H3267 0.959 . S
C3261 H3268 0.961 . S
C3261 H3269 0.960 . S
C3262 C3260 1.381 . S
C3262 C3263 1.394 . S
C3262 H3270 0.930 . S
C3263 C3262 1.394 . S
C3263 C3264 1.383 . S
C3263 H3271 0.929 . S
C3264 C3263 1.383 . S
C3264 C3265 1.377 . S
C3265 H3249 0.930 . S
C3265 C3264 1.377 . S
C3265 C3266 1.379 . S
C3266 H3250 0.931 . S
C3266 C3260 1.383 . S
C3266 C3265 1.379 . S
H3267 C3261 0.959 . S
H3268 C3261 0.961 . S
H3269 C3261 0.960 . S
H3270 C3262 0.930 . S
H3271 C3263 0.929 . S
H3272 C3280 0.929 . S
H3273 C3282 0.930 . S
H3274 C3284 0.930 . S
H3275 C3287 0.929 . S
H3276 C3290 0.930 . S
H3277 C3292 0.960 . S
H3278 C3292 0.960 . S
H3279 C3292 0.960 . S
C3280 H3272 0.929 . S
C3280 C3281 1.377 . S
C3280 C3282 1.384 . S
C3281 C3280 1.377 . S
C3281 C3287 1.390 . S
C3282 H3273 0.930 . S
C3282 C3280 1.384 . S
C3282 C3283 1.372 . S
C3283 C3282 1.372 . S
C3283 C3284 1.400 . S
C3283 C3288 1.490 . S
C3284 H3274 0.930 . S
C3284 C3283 1.400 . S
C3284 C3287 1.386 . S
H3285 C3301 0.930 . S
H3286 C3302 0.931 . S
C3287 H3275 0.929 . S
C3287 C3281 1.390 . S
C3287 C3284 1.386 . S
C3288 C3283 1.490 . S
C3288 C3290 1.395 . S
C3288 C3291 1.403 . S
H3289 C3295 0.930 . S
C3290 H3276 0.930 . S
C3290 C3288 1.395 . S
C3290 C3293 1.403 . S
C3291 C3288 1.403 . S
C3291 C3292 1.524 . S
C3291 C3295 1.400 . S
C3292 H3277 0.960 . S
C3292 H3278 0.960 . S
C3292 H3279 0.960 . S
C3292 C3291 1.524 . S
C3293 C3290 1.403 . S
C3293 C3294 1.392 . S
C3293 C3297 1.495 . S
C3294 C3293 1.392 . S
C3294 C3295 1.385 . S
C3294 C3296 1.478 . S
C3295 H3289 0.930 . S
C3295 C3291 1.400 . S
C3295 C3294 1.385 . S
C3296 C3294 1.478 . S
C3296 C3298 1.381 . S
C3296 C3302 1.383 . S
C3297 C3293 1.495 . S
C3297 H3303 0.959 . S
C3297 H3304 0.961 . S
C3297 H3305 0.960 . S
C3298 C3296 1.381 . S
C3298 C3299 1.394 . S
C3298 H3306 0.930 . S
C3299 C3298 1.394 . S
C3299 C3300 1.383 . S
C3299 H3307 0.929 . S
C3300 C3299 1.383 . S
C3300 C3301 1.377 . S
C3301 H3285 0.930 . S
C3301 C3300 1.377 . S
C3301 C3302 1.379 . S
C3302 H3286 0.931 . S
C3302 C3296 1.383 . S
C3302 C3301 1.379 . S
H3303 C3297 0.959 . S
H3304 C3297 0.961 . S
H3305 C3297 0.960 . S
H3306 C3298 0.930 . S
H3307 C3299 0.929 . S
H3308 C3316 0.929 . S
H3309 C3318 0.930 . S
H3310 C3320 0.930 . S
H3311 C3323 0.929 . S
H3312 C3326 0.930 . S
H3313 C3328 0.960 . S
H3314 C3328 0.960 . S
H3315 C3328 0.960 . S
C3316 H3308 0.929 . S
C3316 C3317 1.377 . S
C3316 C3318 1.384 . S
C3317 C3316 1.377 . S
C3317 C3323 1.390 . S
C3318 H3309 0.930 . S
C3318 C3316 1.384 . S
C3318 C3319 1.372 . S
C3319 C3318 1.372 . S
C3319 C3320 1.400 . S
C3319 C3324 1.490 . S
C3320 H3310 0.930 . S
C3320 C3319 1.400 . S
C3320 C3323 1.386 . S
H3321 C3337 0.930 . S
H3322 C3338 0.931 . S
C3323 H3311 0.929 . S
C3323 C3317 1.390 . S
C3323 C3320 1.386 . S
C3324 C3319 1.490 . S
C3324 C3326 1.395 . S
C3324 C3327 1.403 . S
H3325 C3331 0.930 . S
C3326 H3312 0.930 . S
C3326 C3324 1.395 . S
C3326 C3329 1.403 . S
C3327 C3324 1.403 . S
C3327 C3328 1.524 . S
C3327 C3331 1.400 . S
C3328 H3313 0.960 . S
C3328 H3314 0.960 . S
C3328 H3315 0.960 . S
C3328 C3327 1.524 . S
C3329 C3326 1.403 . S
C3329 C3330 1.392 . S
C3329 C3333 1.495 . S
C3330 C3329 1.392 . S
C3330 C3331 1.385 . S
C3330 C3332 1.478 . S
C3331 H3325 0.930 . S
C3331 C3327 1.400 . S
C3331 C3330 1.385 . S
C3332 C3330 1.478 . S
C3332 C3334 1.381 . S
C3332 C3338 1.383 . S
C3333 C3329 1.495 . S
C3333 H3339 0.959 . S
C3333 H3340 0.961 . S
C3333 H3341 0.960 . S
C3334 C3332 1.381 . S
C3334 C3335 1.394 . S
C3334 H3342 0.930 . S
C3335 C3334 1.394 . S
C3335 C3336 1.383 . S
C3335 H3343 0.929 . S
C3336 C3335 1.383 . S
C3336 C3337 1.377 . S
C3337 H3321 0.930 . S
C3337 C3336 1.377 . S
C3337 C3338 1.379 . S
C3338 H3322 0.931 . S
C3338 C3332 1.383 . S
C3338 C3337 1.379 . S
H3339 C3333 0.959 . S
H3340 C3333 0.961 . S
H3341 C3333 0.960 . S
H3342 C3334 0.930 . S
H3343 C3335 0.929 . S
H3344 C3352 0.929 . S
H3345 C3354 0.930 . S
H3346 C3356 0.930 . S
H3347 C3359 0.929 . S
H3348 C3362 0.930 . S
H3349 C3364 0.960 . S
H3350 C3364 0.960 . S
H3351 C3364 0.960 . S
C3352 H3344 0.929 . S
C3352 C3353 1.377 . S
C3352 C3354 1.384 . S
C3353 C3352 1.377 . S
C3353 C3359 1.390 . S
C3354 H3345 0.930 . S
C3354 C3352 1.384 . S
C3354 C3355 1.372 . S
C3355 C3354 1.372 . S
C3355 C3356 1.400 . S
C3355 C3360 1.490 . S
C3356 H3346 0.930 . S
C3356 C3355 1.400 . S
C3356 C3359 1.386 . S
H3357 C3373 0.930 . S
H3358 C3374 0.931 . S
C3359 H3347 0.929 . S
C3359 C3353 1.390 . S
C3359 C3356 1.386 . S
C3360 C3355 1.490 . S
C3360 C3362 1.395 . S
C3360 C3363 1.403 . S
H3361 C3367 0.930 . S
C3362 H3348 0.930 . S
C3362 C3360 1.395 . S
C3362 C3365 1.403 . S
C3363 C3360 1.403 . S
C3363 C3364 1.524 . S
C3363 C3367 1.400 . S
C3364 H3349 0.960 . S
C3364 H3350 0.960 . S
C3364 H3351 0.960 . S
C3364 C3363 1.524 . S
C3365 C3362 1.403 . S
C3365 C3366 1.392 . S
C3365 C3369 1.495 . S
C3366 C3365 1.392 . S
C3366 C3367 1.385 . S
C3366 C3368 1.478 . S
C3367 H3361 0.930 . S
C3367 C3363 1.400 . S
C3367 C3366 1.385 . S
C3368 C3366 1.478 . S
C3368 C3370 1.381 . S
C3368 C3374 1.383 . S
C3369 C3365 1.495 . S
C3369 H3375 0.959 . S
C3369 H3376 0.961 . S
C3369 H3377 0.960 . S
C3370 C3368 1.381 . S
C3370 C3371 1.394 . S
C3370 H3378 0.930 . S
C3371 C3370 1.394 . S
C3371 C3372 1.383 . S
C3371 H3379 0.929 . S
C3372 C3371 1.383 . S
C3372 C3373 1.377 . S
C3373 H3357 0.930 . S
C3373 C3372 1.377 . S
C3373 C3374 1.379 . S
C3374 H3358 0.931 . S
C3374 C3368 1.383 . S
C3374 C3373 1.379 . S
H3375 C3369 0.959 . S
H3376 C3369 0.961 . S
H3377 C3369 0.960 . S
H3378 C3370 0.930 . S
H3379 C3371 0.929 . S
H3380 C3388 0.929 . S
H3381 C3390 0.930 . S
H3382 C3392 0.930 . S
H3383 C3395 0.929 . S
H3384 C3398 0.930 . S
H3385 C3400 0.960 . S
H3386 C3400 0.960 . S
H3387 C3400 0.960 . S
C3388 H3380 0.929 . S
C3388 C3389 1.377 . S
C3388 C3390 1.384 . S
C3389 C3388 1.377 . S
C3389 C3395 1.390 . S
C3390 H3381 0.930 . S
C3390 C3388 1.384 . S
C3390 C3391 1.372 . S
C3391 C3390 1.372 . S
C3391 C3392 1.400 . S
C3391 C3396 1.490 . S
C3392 H3382 0.930 . S
C3392 C3391 1.400 . S
C3392 C3395 1.386 . S
H3393 C3409 0.930 . S
H3394 C3410 0.931 . S
C3395 H3383 0.929 . S
C3395 C3389 1.390 . S
C3395 C3392 1.386 . S
C3396 C3391 1.490 . S
C3396 C3398 1.395 . S
C3396 C3399 1.403 . S
H3397 C3403 0.930 . S
C3398 H3384 0.930 . S
C3398 C3396 1.395 . S
C3398 C3401 1.403 . S
C3399 C3396 1.403 . S
C3399 C3400 1.524 . S
C3399 C3403 1.400 . S
C3400 H3385 0.960 . S
C3400 H3386 0.960 . S
C3400 H3387 0.960 . S
C3400 C3399 1.524 . S
C3401 C3398 1.403 . S
C3401 C3402 1.392 . S
C3401 C3405 1.495 . S
C3402 C3401 1.392 . S
C3402 C3403 1.385 . S
C3402 C3404 1.478 . S
C3403 H3397 0.930 . S
C3403 C3399 1.400 . S
C3403 C3402 1.385 . S
C3404 C3402 1.478 . S
C3404 C3406 1.381 . S
C3404 C3410 1.383 . S
C3405 C3401 1.495 . S
C3405 H3411 0.959 . S
C3405 H3412 0.961 . S
C3405 H3413 0.960 . S
C3406 C3404 1.381 . S
C3406 C3407 1.394 . S
C3406 H3414 0.930 . S
C3407 C3406 1.394 . S
C3407 C3408 1.383 . S
C3407 H3415 0.929 . S
C3408 C3407 1.383 . S
C3408 C3409 1.377 . S
C3409 H3393 0.930 . S
C3409 C3408 1.377 . S
C3409 C3410 1.379 . S
C3410 H3394 0.931 . S
C3410 C3404 1.383 . S
C3410 C3409 1.379 . S
H3411 C3405 0.959 . S
H3412 C3405 0.961 . S
H3413 C3405 0.960 . S
H3414 C3406 0.930 . S
H3415 C3407 0.929 . S
H3416 C3424 0.929 . S
H3417 C3426 0.930 . S
H3418 C3428 0.930 . S
H3419 C3431 0.929 . S
H3420 C3434 0.930 . S
H3421 C3436 0.960 . S
H3422 C3436 0.960 . S
H3423 C3436 0.960 . S
C3424 H3416 0.929 . S
C3424 C3425 1.377 . S
C3424 C3426 1.384 . S
C3425 C3424 1.377 . S
C3425 C3431 1.390 . S
C3426 H3417 0.930 . S
C3426 C3424 1.384 . S
C3426 C3427 1.372 . S
C3427 C3426 1.372 . S
C3427 C3428 1.400 . S
C3427 C3432 1.490 . S
C3428 H3418 0.930 . S
C3428 C3427 1.400 . S
C3428 C3431 1.386 . S
H3429 C3445 0.930 . S
H3430 C3446 0.931 . S
C3431 H3419 0.929 . S
C3431 C3425 1.390 . S
C3431 C3428 1.386 . S
C3432 C3427 1.490 . S
C3432 C3434 1.395 . S
C3432 C3435 1.403 . S
H3433 C3439 0.930 . S
C3434 H3420 0.930 . S
C3434 C3432 1.395 . S
C3434 C3437 1.403 . S
C3435 C3432 1.403 . S
C3435 C3436 1.524 . S
C3435 C3439 1.400 . S
C3436 H3421 0.960 . S
C3436 H3422 0.960 . S
C3436 H3423 0.960 . S
C3436 C3435 1.524 . S
C3437 C3434 1.403 . S
C3437 C3438 1.392 . S
C3437 C3441 1.495 . S
C3438 C3437 1.392 . S
C3438 C3439 1.385 . S
C3438 C3440 1.478 . S
C3439 H3433 0.930 . S
C3439 C3435 1.400 . S
C3439 C3438 1.385 . S
C3440 C3438 1.478 . S
C3440 C3442 1.381 . S
C3440 C3446 1.383 . S
C3441 C3437 1.495 . S
C3441 H3447 0.959 . S
C3441 H3448 0.961 . S
C3441 H3449 0.960 . S
C3442 C3440 1.381 . S
C3442 C3443 1.394 . S
C3442 H3450 0.930 . S
C3443 C3442 1.394 . S
C3443 C3444 1.383 . S
C3443 H3451 0.929 . S
C3444 C3443 1.383 . S
C3444 C3445 1.377 . S
C3445 H3429 0.930 . S
C3445 C3444 1.377 . S
C3445 C3446 1.379 . S
C3446 H3430 0.931 . S
C3446 C3440 1.383 . S
C3446 C3445 1.379 . S
H3447 C3441 0.959 . S
H3448 C3441 0.961 . S
H3449 C3441 0.960 . S
H3450 C3442 0.930 . S
H3451 C3443 0.929 . S
H3452 C3460 0.929 . S
H3453 C3462 0.930 . S
H3454 C3464 0.930 . S
H3455 C3467 0.929 . S
H3456 C3470 0.930 . S
H3457 C3472 0.960 . S
H3458 C3472 0.960 . S
H3459 C3472 0.960 . S
C3460 H3452 0.929 . S
C3460 C3461 1.377 . S
C3460 C3462 1.384 . S
C3461 C3460 1.377 . S
C3461 C3467 1.390 . S
C3462 H3453 0.930 . S
C3462 C3460 1.384 . S
C3462 C3463 1.372 . S
C3463 C3462 1.372 . S
C3463 C3464 1.400 . S
C3463 C3468 1.490 . S
C3464 H3454 0.930 . S
C3464 C3463 1.400 . S
C3464 C3467 1.386 . S
H3465 C3481 0.930 . S
H3466 C3482 0.931 . S
C3467 H3455 0.929 . S
C3467 C3461 1.390 . S
C3467 C3464 1.386 . S
C3468 C3463 1.490 . S
C3468 C3470 1.395 . S
C3468 C3471 1.403 . S
H3469 C3475 0.930 . S
C3470 H3456 0.930 . S
C3470 C3468 1.395 . S
C3470 C3473 1.403 . S
C3471 C3468 1.403 . S
C3471 C3472 1.524 . S
C3471 C3475 1.400 . S
C3472 H3457 0.960 . S
C3472 H3458 0.960 . S
C3472 H3459 0.960 . S
C3472 C3471 1.524 . S
C3473 C3470 1.403 . S
C3473 C3474 1.392 . S
C3473 C3477 1.495 . S
C3474 C3473 1.392 . S
C3474 C3475 1.385 . S
C3474 C3476 1.478 . S
C3475 H3469 0.930 . S
C3475 C3471 1.400 . S
C3475 C3474 1.385 . S
C3476 C3474 1.478 . S
C3476 C3478 1.381 . S
C3476 C3482 1.383 . S
C3477 C3473 1.495 . S
C3477 H3483 0.959 . S
C3477 H3484 0.961 . S
C3477 H3485 0.960 . S
C3478 C3476 1.381 . S
C3478 C3479 1.394 . S
C3478 H3486 0.930 . S
C3479 C3478 1.394 . S
C3479 C3480 1.383 . S
C3479 H3487 0.929 . S
C3480 C3479 1.383 . S
C3480 C3481 1.377 . S
C3481 H3465 0.930 . S
C3481 C3480 1.377 . S
C3481 C3482 1.379 . S
C3482 H3466 0.931 . S
C3482 C3476 1.383 . S
C3482 C3481 1.379 . S
H3483 C3477 0.959 . S
H3484 C3477 0.961 . S
H3485 C3477 0.960 . S
H3486 C3478 0.930 . S
H3487 C3479 0.929 . S
H3488 C3496 0.929 . S
H3489 C3498 0.930 . S
H3490 C3500 0.930 . S
H3491 C3503 0.929 . S
H3492 C3506 0.930 . S
H3493 C3508 0.960 . S
H3494 C3508 0.960 . S
H3495 C3508 0.960 . S
C3496 H3488 0.929 . S
C3496 C3497 1.377 . S
C3496 C3498 1.384 . S
C3497 C3496 1.377 . S
C3497 C3503 1.390 . S
C3498 H3489 0.930 . S
C3498 C3496 1.384 . S
C3498 C3499 1.372 . S
C3499 C3498 1.372 . S
C3499 C3500 1.400 . S
C3499 C3504 1.490 . S
C3500 H3490 0.930 . S
C3500 C3499 1.400 . S
C3500 C3503 1.386 . S
H3501 C3517 0.930 . S
H3502 C3518 0.931 . S
C3503 H3491 0.929 . S
C3503 C3497 1.390 . S
C3503 C3500 1.386 . S
C3504 C3499 1.490 . S
C3504 C3506 1.395 . S
C3504 C3507 1.403 . S
H3505 C3511 0.930 . S
C3506 H3492 0.930 . S
C3506 C3504 1.395 . S
C3506 C3509 1.403 . S
C3507 C3504 1.403 . S
C3507 C3508 1.524 . S
C3507 C3511 1.400 . S
C3508 H3493 0.960 . S
C3508 H3494 0.960 . S
C3508 H3495 0.960 . S
C3508 C3507 1.524 . S
C3509 C3506 1.403 . S
C3509 C3510 1.392 . S
C3509 C3513 1.495 . S
C3510 C3509 1.392 . S
C3510 C3511 1.385 . S
C3510 C3512 1.478 . S
C3511 H3505 0.930 . S
C3511 C3507 1.400 . S
C3511 C3510 1.385 . S
C3512 C3510 1.478 . S
C3512 C3514 1.381 . S
C3512 C3518 1.383 . S
C3513 C3509 1.495 . S
C3513 H3519 0.959 . S
C3513 H3520 0.961 . S
C3513 H3521 0.960 . S
C3514 C3512 1.381 . S
C3514 C3515 1.394 . S
C3514 H3522 0.930 . S
C3515 C3514 1.394 . S
C3515 C3516 1.383 . S
C3515 H3523 0.929 . S
C3516 C3515 1.383 . S
C3516 C3517 1.377 . S
C3517 H3501 0.930 . S
C3517 C3516 1.377 . S
C3517 C3518 1.379 . S
C3518 H3502 0.931 . S
C3518 C3512 1.383 . S
C3518 C3517 1.379 . S
H3519 C3513 0.959 . S
H3520 C3513 0.961 . S
H3521 C3513 0.960 . S
H3522 C3514 0.930 . S
H3523 C3515 0.929 . S
H3524 C3532 0.929 . S
H3525 C3534 0.930 . S
H3526 C3536 0.930 . S
H3527 C3539 0.929 . S
H3528 C3542 0.930 . S
H3529 C3544 0.960 . S
H3530 C3544 0.960 . S
H3531 C3544 0.960 . S
C3532 H3524 0.929 . S
C3532 C3533 1.377 . S
C3532 C3534 1.384 . S
C3533 C3532 1.377 . S
C3533 C3539 1.390 . S
C3534 H3525 0.930 . S
C3534 C3532 1.384 . S
C3534 C3535 1.372 . S
C3535 C3534 1.372 . S
C3535 C3536 1.400 . S
C3535 C3540 1.490 . S
C3536 H3526 0.930 . S
C3536 C3535 1.400 . S
C3536 C3539 1.386 . S
H3537 C3553 0.930 . S
H3538 C3554 0.931 . S
C3539 H3527 0.929 . S
C3539 C3533 1.390 . S
C3539 C3536 1.386 . S
C3540 C3535 1.490 . S
C3540 C3542 1.395 . S
C3540 C3543 1.403 . S
H3541 C3547 0.930 . S
C3542 H3528 0.930 . S
C3542 C3540 1.395 . S
C3542 C3545 1.403 . S
C3543 C3540 1.403 . S
C3543 C3544 1.524 . S
C3543 C3547 1.400 . S
C3544 H3529 0.960 . S
C3544 H3530 0.960 . S
C3544 H3531 0.960 . S
C3544 C3543 1.524 . S
C3545 C3542 1.403 . S
C3545 C3546 1.392 . S
C3545 C3549 1.495 . S
C3546 C3545 1.392 . S
C3546 C3547 1.385 . S
C3546 C3548 1.478 . S
C3547 H3541 0.930 . S
C3547 C3543 1.400 . S
C3547 C3546 1.385 . S
C3548 C3546 1.478 . S
C3548 C3550 1.381 . S
C3548 C3554 1.383 . S
C3549 C3545 1.495 . S
C3549 H3555 0.959 . S
C3549 H3556 0.961 . S
C3549 H3557 0.960 . S
C3550 C3548 1.381 . S
C3550 C3551 1.394 . S
C3550 H3558 0.930 . S
C3551 C3550 1.394 . S
C3551 C3552 1.383 . S
C3551 H3559 0.929 . S
C3552 C3551 1.383 . S
C3552 C3553 1.377 . S
C3553 H3537 0.930 . S
C3553 C3552 1.377 . S
C3553 C3554 1.379 . S
C3554 H3538 0.931 . S
C3554 C3548 1.383 . S
C3554 C3553 1.379 . S
H3555 C3549 0.959 . S
H3556 C3549 0.961 . S
H3557 C3549 0.960 . S
H3558 C3550 0.930 . S
H3559 C3551 0.929 . S
H3560 C3568 0.929 . S
H3561 C3570 0.930 . S
H3562 C3572 0.930 . S
H3563 C3575 0.929 . S
H3564 C3578 0.930 . S
H3565 C3580 0.960 . S
H3566 C3580 0.960 . S
H3567 C3580 0.960 . S
C3568 H3560 0.929 . S
C3568 C3569 1.377 . S
C3568 C3570 1.384 . S
C3569 C3568 1.377 . S
C3569 C3575 1.390 . S
C3570 H3561 0.930 . S
C3570 C3568 1.384 . S
C3570 C3571 1.372 . S
C3571 C3570 1.372 . S
C3571 C3572 1.400 . S
C3571 C3576 1.490 . S
C3572 H3562 0.930 . S
C3572 C3571 1.400 . S
C3572 C3575 1.386 . S
H3573 C3589 0.930 . S
H3574 C3590 0.931 . S
C3575 H3563 0.929 . S
C3575 C3569 1.390 . S
C3575 C3572 1.386 . S
C3576 C3571 1.490 . S
C3576 C3578 1.395 . S
C3576 C3579 1.403 . S
H3577 C3583 0.930 . S
C3578 H3564 0.930 . S
C3578 C3576 1.395 . S
C3578 C3581 1.403 . S
C3579 C3576 1.403 . S
C3579 C3580 1.524 . S
C3579 C3583 1.400 . S
C3580 H3565 0.960 . S
C3580 H3566 0.960 . S
C3580 H3567 0.960 . S
C3580 C3579 1.524 . S
C3581 C3578 1.403 . S
C3581 C3582 1.392 . S
C3581 C3585 1.495 . S
C3582 C3581 1.392 . S
C3582 C3583 1.385 . S
C3582 C3584 1.478 . S
C3583 H3577 0.930 . S
C3583 C3579 1.400 . S
C3583 C3582 1.385 . S
C3584 C3582 1.478 . S
C3584 C3586 1.381 . S
C3584 C3590 1.383 . S
C3585 C3581 1.495 . S
C3585 H3591 0.959 . S
C3585 H3592 0.961 . S
C3585 H3593 0.960 . S
C3586 C3584 1.381 . S
C3586 C3587 1.394 . S
C3586 H3594 0.930 . S
C3587 C3586 1.394 . S
C3587 C3588 1.383 . S
C3587 H3595 0.929 . S
C3588 C3587 1.383 . S
C3588 C3589 1.377 . S
C3589 H3573 0.930 . S
C3589 C3588 1.377 . S
C3589 C3590 1.379 . S
C3590 H3574 0.931 . S
C3590 C3584 1.383 . S
C3590 C3589 1.379 . S
H3591 C3585 0.959 . S
H3592 C3585 0.961 . S
H3593 C3585 0.960 . S
H3594 C3586 0.930 . S
H3595 C3587 0.929 . S
H3596 C3604 0.933 1_556 S
H3597 C3606 0.930 1_556 S
H3598 C3608 0.930 . S
H3599 C3611 0.929 . S
H3600 C3614 0.957 . S
H3601 C3616 0.960 . S
H3602 C3616 0.960 . S
H3603 C3616 0.960 . S
C3604 H3596 0.933 1_554 S
C3604 C3605 1.377 . S
C3604 C3606 1.384 . S
C3605 C3604 1.377 . S
C3605 C3611 1.390 . S
C3606 H3597 0.930 1_554 S
C3606 C3604 1.384 . S
C3606 C3607 1.372 . S
C3607 C3606 1.372 . S
C3607 C3608 1.400 . S
C3607 C3612 1.490 . S
C3608 H3598 0.930 . S
C3608 C3607 1.400 . S
C3608 C3611 1.386 . S
H3609 C3625 0.930 1_545 S
H3610 C3626 0.931 . S
C3611 H3599 0.929 . S
C3611 C3605 1.390 . S
C3611 C3608 1.386 . S
C3612 C3607 1.490 . S
C3612 C3614 1.361 1_554 S
C3612 C3615 1.403 . S
H3613 C3619 0.930 . S
C3614 H3600 0.957 . S
C3614 C3612 1.361 1_556 S
C3614 C3617 1.411 . S
C3615 C3612 1.403 . S
C3615 C3616 1.524 . S
C3615 C3619 1.400 . S
C3616 H3601 0.960 . S
C3616 H3602 0.960 . S
C3616 H3603 0.960 . S
C3616 C3615 1.524 . S
C3617 C3614 1.411 . S
C3617 C3618 1.392 1_556 S
C3617 C3621 1.495 . S
C3618 C3617 1.392 1_554 S
C3618 C3619 1.385 . S
C3618 C3620 1.478 . S
C3619 H3613 0.930 . S
C3619 C3615 1.400 . S
C3619 C3618 1.385 . S
C3620 C3618 1.478 . S
C3620 C3622 1.381 . S
C3620 C3626 1.383 . S
C3621 C3617 1.495 . S
C3621 H3627 0.959 . S
C3621 H3628 0.961 . S
C3621 H3629 0.960 . S
C3622 C3620 1.381 . S
C3622 C3623 1.394 . S
C3622 H3630 0.930 1_554 S
C3623 C3622 1.394 . S
C3623 C3624 1.383 . S
C3623 H3631 0.929 1_554 S
C3624 C3623 1.383 . S
C3624 C3625 1.377 . S
C3625 H3609 0.930 1_565 S
C3625 C3624 1.377 . S
C3625 C3626 1.379 . S
C3626 H3610 0.931 . S
C3626 C3620 1.383 . S
C3626 C3625 1.379 . S
H3627 C3621 0.959 . S
H3628 C3621 0.961 . S
H3629 C3621 0.960 . S
H3630 C3622 0.930 1_556 S
H3631 C3623 0.929 1_556 S
H3632 C3640 0.929 . S
H3633 C3642 0.930 . S
H3634 C3644 0.930 . S
H3635 C3647 0.929 . S
H3636 C3650 0.930 . S
H3637 C3652 0.960 . S
H3638 C3652 0.960 . S
H3639 C3652 0.960 . S
C3640 H3632 0.929 . S
C3640 C3641 1.377 . S
C3640 C3642 1.384 . S
C3641 C3640 1.377 . S
C3641 C3647 1.390 . S
C3642 H3633 0.930 . S
C3642 C3640 1.384 . S
C3642 C3643 1.372 . S
C3643 C3642 1.372 . S
C3643 C3644 1.400 . S
C3643 C3648 1.490 . S
C3644 H3634 0.930 . S
C3644 C3643 1.400 . S
C3644 C3647 1.386 . S
H3645 C3661 0.930 . S
H3646 C3662 0.931 . S
C3647 H3635 0.929 . S
C3647 C3641 1.390 . S
C3647 C3644 1.386 . S
C3648 C3643 1.490 . S
C3648 C3650 1.395 . S
C3648 C3651 1.403 . S
H3649 C3655 0.930 . S
C3650 H3636 0.930 . S
C3650 C3648 1.395 . S
C3650 C3653 1.403 . S
C3651 C3648 1.403 . S
C3651 C3652 1.524 . S
C3651 C3655 1.400 . S
C3652 H3637 0.960 . S
C3652 H3638 0.960 . S
C3652 H3639 0.960 . S
C3652 C3651 1.524 . S
C3653 C3650 1.403 . S
C3653 C3654 1.392 . S
C3653 C3657 1.495 . S
C3654 C3653 1.392 . S
C3654 C3655 1.385 . S
C3654 C3656 1.478 . S
C3655 H3649 0.930 . S
C3655 C3651 1.400 . S
C3655 C3654 1.385 . S
C3656 C3654 1.478 . S
C3656 C3658 1.381 . S
C3656 C3662 1.383 . S
C3657 C3653 1.495 . S
C3657 H3663 0.959 . S
C3657 H3664 0.961 . S
C3657 H3665 0.960 . S
C3658 C3656 1.381 . S
C3658 C3659 1.394 . S
C3658 H3666 0.930 . S
C3659 C3658 1.394 . S
C3659 C3660 1.383 . S
C3659 H3667 0.929 . S
C3660 C3659 1.383 . S
C3660 C3661 1.377 . S
C3661 H3645 0.930 . S
C3661 C3660 1.377 . S
C3661 C3662 1.379 . S
C3662 H3646 0.931 . S
C3662 C3656 1.383 . S
C3662 C3661 1.379 . S
H3663 C3657 0.959 . S
H3664 C3657 0.961 . S
H3665 C3657 0.960 . S
H3666 C3658 0.930 . S
H3667 C3659 0.929 . S
H3668 C3676 0.929 . S
H3669 C3678 0.930 . S
H3670 C3680 0.930 . S
H3671 C3683 0.929 . S
H3672 C3686 0.930 . S
H3673 C3688 0.960 . S
H3674 C3688 0.960 . S
H3675 C3688 0.960 . S
C3676 H3668 0.929 . S
C3676 C3677 1.377 . S
C3676 C3678 1.384 . S
C3677 C3676 1.377 . S
C3677 C3683 1.390 1_554 S
C3678 H3669 0.930 . S
C3678 C3676 1.384 . S
C3678 C3679 1.372 . S
C3679 C3678 1.372 . S
C3679 C3680 1.400 1_554 S
C3679 C3684 1.490 . S
C3680 H3670 0.930 . S
C3680 C3679 1.400 1_556 S
C3680 C3683 1.386 . S
H3681 C3697 0.964 . S
H3682 C3698 0.931 1_556 S
C3683 H3671 0.929 . S
C3683 C3677 1.390 1_556 S
C3683 C3680 1.386 . S
C3684 C3679 1.490 . S
C3684 C3686 1.395 . S
C3684 C3687 1.403 1_554 S
H3685 C3691 0.930 1_556 S
C3686 H3672 0.930 . S
C3686 C3684 1.395 . S
C3686 C3689 1.403 . S
C3687 C3684 1.403 1_556 S
C3687 C3688 1.524 . S
C3687 C3691 1.400 1_556 S
C3688 H3673 0.960 . S
C3688 H3674 0.960 . S
C3688 H3675 0.960 . S
C3688 C3687 1.524 . S
C3689 C3686 1.403 . S
C3689 C3690 1.392 . S
C3689 C3693 1.495 . S
C3690 C3689 1.392 . S
C3690 C3691 1.385 . S
C3690 C3692 1.478 . S
C3691 H3685 0.930 1_554 S
C3691 C3687 1.400 1_554 S
C3691 C3690 1.385 . S
C3692 C3690 1.478 . S
C3692 C3694 1.381 . S
C3692 C3698 1.383 . S
C3693 C3689 1.495 . S
C3693 H3699 0.959 . S
C3693 H3700 0.961 . S
C3693 H3701 0.960 . S
C3694 C3692 1.381 . S
C3694 C3695 1.394 . S
C3694 H3702 0.930 . S
C3695 C3694 1.394 . S
C3695 C3696 1.383 . S
C3695 H3703 0.929 . S
C3696 C3695 1.383 . S
C3696 C3697 1.377 . S
C3697 H3681 0.964 . S
C3697 C3696 1.377 . S
C3697 C3698 1.379 . S
C3698 H3682 0.931 1_554 S
C3698 C3692 1.383 . S
C3698 C3697 1.379 . S
H3699 C3693 0.959 . S
H3700 C3693 0.961 . S
H3701 C3693 0.960 . S
H3702 C3694 0.930 . S
H3703 C3695 0.929 . S
H3704 C3712 0.929 . S
H3705 C3714 0.930 . S
H3706 C3716 0.930 . S
H3707 C3719 0.929 . S
H3708 C3722 0.930 . S
H3709 C3724 0.960 . S
H3710 C3724 0.960 . S
H3711 C3724 0.960 . S
C3712 H3704 0.929 . S
C3712 C3713 1.377 . S
C3712 C3714 1.384 . S
C3713 C3712 1.377 . S
C3713 C3719 1.390 . S
C3714 H3705 0.930 . S
C3714 C3712 1.384 . S
C3714 C3715 1.372 . S
C3715 C3714 1.372 . S
C3715 C3716 1.400 . S
C3715 C3720 1.490 . S
C3716 H3706 0.930 . S
C3716 C3715 1.400 . S
C3716 C3719 1.386 . S
H3717 C3733 0.930 . S
H3718 C3734 0.931 . S
C3719 H3707 0.929 . S
C3719 C3713 1.390 . S
C3719 C3716 1.386 . S
C3720 C3715 1.490 . S
C3720 C3722 1.395 . S
C3720 C3723 1.403 . S
H3721 C3727 0.930 . S
C3722 H3708 0.930 . S
C3722 C3720 1.395 . S
C3722 C3725 1.403 . S
C3723 C3720 1.403 . S
C3723 C3724 1.524 . S
C3723 C3727 1.400 . S
C3724 H3709 0.960 . S
C3724 H3710 0.960 . S
C3724 H3711 0.960 . S
C3724 C3723 1.524 . S
C3725 C3722 1.403 . S
C3725 C3726 1.392 . S
C3725 C3729 1.495 . S
C3726 C3725 1.392 . S
C3726 C3727 1.385 . S
C3726 C3728 1.478 . S
C3727 H3721 0.930 . S
C3727 C3723 1.400 . S
C3727 C3726 1.385 . S
C3728 C3726 1.478 . S
C3728 C3730 1.381 . S
C3728 C3734 1.383 . S
C3729 C3725 1.495 . S
C3729 H3735 0.959 . S
C3729 H3736 0.961 . S
C3729 H3737 0.960 . S
C3730 C3728 1.381 . S
C3730 C3731 1.394 . S
C3730 H3738 0.930 . S
C3731 C3730 1.394 . S
C3731 C3732 1.383 . S
C3731 H3739 0.929 . S
C3732 C3731 1.383 . S
C3732 C3733 1.377 . S
C3733 H3717 0.930 . S
C3733 C3732 1.377 . S
C3733 C3734 1.379 . S
C3734 H3718 0.931 . S
C3734 C3728 1.383 . S
C3734 C3733 1.379 . S
H3735 C3729 0.959 . S
H3736 C3729 0.961 . S
H3737 C3729 0.960 . S
H3738 C3730 0.930 . S
H3739 C3731 0.929 . S
H3740 C3748 0.929 . S
H3741 C3750 0.930 . S
H3742 C3752 0.930 . S
H3743 C3755 0.929 . S
H3744 C3758 0.930 . S
H3745 C3760 0.960 . S
H3746 C3760 0.960 . S
H3747 C3760 0.960 . S
C3748 H3740 0.929 . S
C3748 C3749 1.377 . S
C3748 C3750 1.384 . S
C3749 C3748 1.377 . S
C3749 C3755 1.390 . S
C3750 H3741 0.930 . S
C3750 C3748 1.384 . S
C3750 C3751 1.372 . S
C3751 C3750 1.372 . S
C3751 C3752 1.400 . S
C3751 C3756 1.490 . S
C3752 H3742 0.930 . S
C3752 C3751 1.400 . S
C3752 C3755 1.386 . S
H3753 C3769 0.930 . S
H3754 C3770 0.931 . S
C3755 H3743 0.929 . S
C3755 C3749 1.390 . S
C3755 C3752 1.386 . S
C3756 C3751 1.490 . S
C3756 C3758 1.395 . S
C3756 C3759 1.403 . S
H3757 C3763 0.930 . S
C3758 H3744 0.930 . S
C3758 C3756 1.395 . S
C3758 C3761 1.403 . S
C3759 C3756 1.403 . S
C3759 C3760 1.524 . S
C3759 C3763 1.400 . S
C3760 H3745 0.960 . S
C3760 H3746 0.960 . S
C3760 H3747 0.960 . S
C3760 C3759 1.524 . S
C3761 C3758 1.403 . S
C3761 C3762 1.392 . S
C3761 C3765 1.495 . S
C3762 C3761 1.392 . S
C3762 C3763 1.385 . S
C3762 C3764 1.478 . S
C3763 H3757 0.930 . S
C3763 C3759 1.400 . S
C3763 C3762 1.385 . S
C3764 C3762 1.478 . S
C3764 C3766 1.381 . S
C3764 C3770 1.383 . S
C3765 C3761 1.495 . S
C3765 H3771 0.959 . S
C3765 H3772 0.961 . S
C3765 H3773 0.960 . S
C3766 C3764 1.381 . S
C3766 C3767 1.394 . S
C3766 H3774 0.930 . S
C3767 C3766 1.394 . S
C3767 C3768 1.383 . S
C3767 H3775 0.929 . S
C3768 C3767 1.383 . S
C3768 C3769 1.377 . S
C3769 H3753 0.930 . S
C3769 C3768 1.377 . S
C3769 C3770 1.379 . S
C3770 H3754 0.931 . S
C3770 C3764 1.383 . S
C3770 C3769 1.379 . S
H3771 C3765 0.959 . S
H3772 C3765 0.961 . S
H3773 C3765 0.960 . S
H3774 C3766 0.930 . S
H3775 C3767 0.929 . S
H3776 C3784 0.929 . S
H3777 C3786 0.930 . S
H3778 C3788 0.930 . S
H3779 C3791 0.929 . S
H3780 C3794 0.930 . S
H3781 C3796 0.960 . S
H3782 C3796 0.960 . S
H3783 C3796 0.960 . S
C3784 H3776 0.929 . S
C3784 C3785 1.377 . S
C3784 C3786 1.384 . S
C3785 C3784 1.377 . S
C3785 C3791 1.390 . S
C3786 H3777 0.930 . S
C3786 C3784 1.384 . S
C3786 C3787 1.372 . S
C3787 C3786 1.372 . S
C3787 C3788 1.400 . S
C3787 C3792 1.490 . S
C3788 H3778 0.930 . S
C3788 C3787 1.400 . S
C3788 C3791 1.386 . S
H3789 C3805 0.930 . S
H3790 C3806 0.931 . S
C3791 H3779 0.929 . S
C3791 C3785 1.390 . S
C3791 C3788 1.386 . S
C3792 C3787 1.490 . S
C3792 C3794 1.395 . S
C3792 C3795 1.403 . S
H3793 C3799 0.930 . S
C3794 H3780 0.930 . S
C3794 C3792 1.395 . S
C3794 C3797 1.403 . S
C3795 C3792 1.403 . S
C3795 C3796 1.524 . S
C3795 C3799 1.400 . S
C3796 H3781 0.960 . S
C3796 H3782 0.960 . S
C3796 H3783 0.960 . S
C3796 C3795 1.524 . S
C3797 C3794 1.403 . S
C3797 C3798 1.392 . S
C3797 C3801 1.495 . S
C3798 C3797 1.392 . S
C3798 C3799 1.385 . S
C3798 C3800 1.478 . S
C3799 H3793 0.930 . S
C3799 C3795 1.400 . S
C3799 C3798 1.385 . S
C3800 C3798 1.478 . S
C3800 C3802 1.381 . S
C3800 C3806 1.383 . S
C3801 C3797 1.495 . S
C3801 H3807 0.959 . S
C3801 H3808 0.961 . S
C3801 H3809 0.960 . S
C3802 C3800 1.381 . S
C3802 C3803 1.394 . S
C3802 H3810 0.930 . S
C3803 C3802 1.394 . S
C3803 C3804 1.383 . S
C3803 H3811 0.929 . S
C3804 C3803 1.383 . S
C3804 C3805 1.377 . S
C3805 H3789 0.930 . S
C3805 C3804 1.377 . S
C3805 C3806 1.379 . S
C3806 H3790 0.931 . S
C3806 C3800 1.383 . S
C3806 C3805 1.379 . S
H3807 C3801 0.959 . S
H3808 C3801 0.961 . S
H3809 C3801 0.960 . S
H3810 C3802 0.930 . S
H3811 C3803 0.929 . S
H3812 C3820 0.929 . S
H3813 C3822 0.930 . S
H3814 C3824 0.930 . S
H3815 C3827 0.929 . S
H3816 C3830 0.930 . S
H3817 C3832 0.960 . S
H3818 C3832 0.960 . S
H3819 C3832 0.960 . S
C3820 H3812 0.929 . S
C3820 C3821 1.377 . S
C3820 C3822 1.384 . S
C3821 C3820 1.377 . S
C3821 C3827 1.390 . S
C3822 H3813 0.930 . S
C3822 C3820 1.384 . S
C3822 C3823 1.372 . S
C3823 C3822 1.372 . S
C3823 C3824 1.400 . S
C3823 C3828 1.490 . S
C3824 H3814 0.930 . S
C3824 C3823 1.400 . S
C3824 C3827 1.386 . S
H3825 C3841 0.930 . S
H3826 C3842 0.931 . S
C3827 H3815 0.929 . S
C3827 C3821 1.390 . S
C3827 C3824 1.386 . S
C3828 C3823 1.490 . S
C3828 C3830 1.395 . S
C3828 C3831 1.403 . S
H3829 C3835 0.930 . S
C3830 H3816 0.930 . S
C3830 C3828 1.395 . S
C3830 C3833 1.403 . S
C3831 C3828 1.403 . S
C3831 C3832 1.524 . S
C3831 C3835 1.400 . S
C3832 H3817 0.960 . S
C3832 H3818 0.960 . S
C3832 H3819 0.960 . S
C3832 C3831 1.524 . S
C3833 C3830 1.403 . S
C3833 C3834 1.392 . S
C3833 C3837 1.495 . S
C3834 C3833 1.392 . S
C3834 C3835 1.385 . S
C3834 C3836 1.478 . S
C3835 H3829 0.930 . S
C3835 C3831 1.400 . S
C3835 C3834 1.385 . S
C3836 C3834 1.478 . S
C3836 C3838 1.381 . S
C3836 C3842 1.383 . S
C3837 C3833 1.495 . S
C3837 H3843 0.959 . S
C3837 H3844 0.961 . S
C3837 H3845 0.960 . S
C3838 C3836 1.381 . S
C3838 C3839 1.394 . S
C3838 H3846 0.930 . S
C3839 C3838 1.394 . S
C3839 C3840 1.383 . S
C3839 H3847 0.929 . S
C3840 C3839 1.383 . S
C3840 C3841 1.377 . S
C3841 H3825 0.930 . S
C3841 C3840 1.377 . S
C3841 C3842 1.379 . S
C3842 H3826 0.931 . S
C3842 C3836 1.383 . S
C3842 C3841 1.379 . S
H3843 C3837 0.959 . S
H3844 C3837 0.961 . S
H3845 C3837 0.960 . S
H3846 C3838 0.930 . S
H3847 C3839 0.929 . S
H3848 C3856 0.929 . S
H3849 C3858 0.930 . S
H3850 C3860 0.930 1_655 S
H3851 C3863 0.929 1_655 S
H3852 C3866 0.930 . S
H3853 C3868 0.960 . S
H3854 C3868 0.960 1_455 S
H3855 C3868 0.960 . S
C3856 H3848 0.929 . S
C3856 C3857 1.377 . S
C3856 C3858 1.384 . S
C3857 C3856 1.377 . S
C3857 C3863 1.390 . S
C3858 H3849 0.930 . S
C3858 C3856 1.384 . S
C3858 C3859 1.372 . S
C3859 C3858 1.372 . S
C3859 C3860 1.400 . S
C3859 C3864 1.490 . S
C3860 H3850 0.930 1_455 S
C3860 C3859 1.400 . S
C3860 C3863 1.386 . S
H3861 C3877 0.930 1_655 S
H3862 C3878 0.931 1_655 S
C3863 H3851 0.929 1_455 S
C3863 C3857 1.390 . S
C3863 C3860 1.386 . S
C3864 C3859 1.490 . S
C3864 C3866 1.395 . S
C3864 C3867 1.403 . S
H3865 C3871 0.930 . S
C3866 H3852 0.930 . S
C3866 C3864 1.395 . S
C3866 C3869 1.403 . S
C3867 C3864 1.403 . S
C3867 C3868 1.524 1_455 S
C3867 C3871 1.400 . S
C3868 H3853 0.960 . S
C3868 H3854 0.960 1_655 S
C3868 H3855 0.960 . S
C3868 C3867 1.524 1_655 S
C3869 C3866 1.403 . S
C3869 C3870 1.392 . S
C3869 C3873 1.495 . S
C3870 C3869 1.392 . S
C3870 C3871 1.385 . S
C3870 C3872 1.478 . S
C3871 H3865 0.930 . S
C3871 C3867 1.400 . S
C3871 C3870 1.385 . S
C3872 C3870 1.478 . S
C3872 C3874 1.381 . S
C3872 C3878 1.383 . S
C3873 C3869 1.495 . S
C3873 H3879 0.959 . S
C3873 H3880 0.961 . S
C3873 H3881 0.960 . S
C3874 C3872 1.381 . S
C3874 C3875 1.394 . S
C3874 H3882 0.930 . S
C3875 C3874 1.394 . S
C3875 C3876 1.383 . S
C3875 H3883 0.929 . S
C3876 C3875 1.383 . S
C3876 C3877 1.377 . S
C3877 H3861 0.930 1_455 S
C3877 C3876 1.377 . S
C3877 C3878 1.379 . S
C3878 H3862 0.931 1_455 S
C3878 C3872 1.383 . S
C3878 C3877 1.379 . S
H3879 C3873 0.959 . S
H3880 C3873 0.961 . S
H3881 C3873 0.960 . S
H3882 C3874 0.930 . S
H3883 C3875 0.929 . S
H3884 C3892 0.929 . S
H3885 C3894 0.930 . S
H3886 C3896 0.930 . S
H3887 C3899 0.929 . S
H3888 C3902 0.930 . S
H3889 C3904 0.960 . S
H3890 C3904 0.960 . S
H3891 C3904 0.960 . S
C3892 H3884 0.929 . S
C3892 C3893 1.377 . S
C3892 C3894 1.384 . S
C3893 C3892 1.377 . S
C3893 C3899 1.390 . S
C3894 H3885 0.930 . S
C3894 C3892 1.384 . S
C3894 C3895 1.372 . S
C3895 C3894 1.372 . S
C3895 C3896 1.400 . S
C3895 C3900 1.490 . S
C3896 H3886 0.930 . S
C3896 C3895 1.400 . S
C3896 C3899 1.386 . S
H3897 C3913 0.930 . S
H3898 C3914 0.931 . S
C3899 H3887 0.929 . S
C3899 C3893 1.390 . S
C3899 C3896 1.386 . S
C3900 C3895 1.490 . S
C3900 C3902 1.395 . S
C3900 C3903 1.403 . S
H3901 C3907 0.930 . S
C3902 H3888 0.930 . S
C3902 C3900 1.395 . S
C3902 C3905 1.403 . S
C3903 C3900 1.403 . S
C3903 C3904 1.524 . S
C3903 C3907 1.400 . S
C3904 H3889 0.960 . S
C3904 H3890 0.960 . S
C3904 H3891 0.960 . S
C3904 C3903 1.524 . S
C3905 C3902 1.403 . S
C3905 C3906 1.392 . S
C3905 C3909 1.495 . S
C3906 C3905 1.392 . S
C3906 C3907 1.385 . S
C3906 C3908 1.478 . S
C3907 H3901 0.930 . S
C3907 C3903 1.400 . S
C3907 C3906 1.385 . S
C3908 C3906 1.478 . S
C3908 C3910 1.381 . S
C3908 C3914 1.383 . S
C3909 C3905 1.495 . S
C3909 H3915 0.959 . S
C3909 H3916 0.961 . S
C3909 H3917 0.960 . S
C3910 C3908 1.381 . S
C3910 C3911 1.394 . S
C3910 H3918 0.930 . S
C3911 C3910 1.394 . S
C3911 C3912 1.383 . S
C3911 H3919 0.929 . S
C3912 C3911 1.383 . S
C3912 C3913 1.377 . S
C3913 H3897 0.930 . S
C3913 C3912 1.377 . S
C3913 C3914 1.379 . S
C3914 H3898 0.931 . S
C3914 C3908 1.383 . S
C3914 C3913 1.379 . S
H3915 C3909 0.959 . S
H3916 C3909 0.961 . S
H3917 C3909 0.960 . S
H3918 C3910 0.930 . S
H3919 C3911 0.929 . S
H3920 C3928 0.929 . S
H3921 C3930 0.930 . S
H3922 C3932 0.930 . S
H3923 C3935 0.929 . S
H3924 C3938 0.930 . S
H3925 C3940 0.960 . S
H3926 C3940 0.960 . S
H3927 C3940 0.960 . S
C3928 H3920 0.929 . S
C3928 C3929 1.377 . S
C3928 C3930 1.384 . S
C3929 C3928 1.377 . S
C3929 C3935 1.390 . S
C3930 H3921 0.930 . S
C3930 C3928 1.384 . S
C3930 C3931 1.372 . S
C3931 C3930 1.372 . S
C3931 C3932 1.400 . S
C3931 C3936 1.490 . S
C3932 H3922 0.930 . S
C3932 C3931 1.400 . S
C3932 C3935 1.386 . S
H3933 C3949 0.930 . S
H3934 C3950 0.931 . S
C3935 H3923 0.929 . S
C3935 C3929 1.390 . S
C3935 C3932 1.386 . S
C3936 C3931 1.490 . S
C3936 C3938 1.395 . S
C3936 C3939 1.403 . S
H3937 C3943 0.930 . S
C3938 H3924 0.930 . S
C3938 C3936 1.395 . S
C3938 C3941 1.403 . S
C3939 C3936 1.403 . S
C3939 C3940 1.524 . S
C3939 C3943 1.400 . S
C3940 H3925 0.960 . S
C3940 H3926 0.960 . S
C3940 H3927 0.960 . S
C3940 C3939 1.524 . S
C3941 C3938 1.403 . S
C3941 C3942 1.392 . S
C3941 C3945 1.495 . S
C3942 C3941 1.392 . S
C3942 C3943 1.385 . S
C3942 C3944 1.478 . S
C3943 H3937 0.930 . S
C3943 C3939 1.400 . S
C3943 C3942 1.385 . S
C3944 C3942 1.478 . S
C3944 C3946 1.381 . S
C3944 C3950 1.383 . S
C3945 C3941 1.495 . S
C3945 H3951 0.959 . S
C3945 H3952 0.961 . S
C3945 H3953 0.960 . S
C3946 C3944 1.381 . S
C3946 C3947 1.394 . S
C3946 H3954 0.930 . S
C3947 C3946 1.394 . S
C3947 C3948 1.383 . S
C3947 H3955 0.929 1_556 S
C3948 C3947 1.383 . S
C3948 C3949 1.377 . S
C3949 H3933 0.930 . S
C3949 C3948 1.377 . S
C3949 C3950 1.379 . S
C3950 H3934 0.931 . S
C3950 C3944 1.383 . S
C3950 C3949 1.379 . S
H3951 C3945 0.959 . S
H3952 C3945 0.961 . S
H3953 C3945 0.960 . S
H3954 C3946 0.930 . S
H3955 C3947 0.929 1_554 S
H3956 C3964 0.929 . S
H3957 C3966 0.930 . S
H3958 C3968 0.930 . S
H3959 C3971 0.929 . S
H3960 C3974 0.930 . S
H3961 C3976 0.960 . S
H3962 C3976 0.960 . S
H3963 C3976 0.960 . S
C3964 H3956 0.929 . S
C3964 C3965 1.377 . S
C3964 C3966 1.384 . S
C3965 C3964 1.377 . S
C3965 C3971 1.390 . S
C3966 H3957 0.930 . S
C3966 C3964 1.384 . S
C3966 C3967 1.372 . S
C3967 C3966 1.372 . S
C3967 C3968 1.400 . S
C3967 C3972 1.490 . S
C3968 H3958 0.930 . S
C3968 C3967 1.400 . S
C3968 C3971 1.386 . S
H3969 C3985 0.930 . S
H3970 C3986 0.931 . S
C3971 H3959 0.929 . S
C3971 C3965 1.390 . S
C3971 C3968 1.386 . S
C3972 C3967 1.490 . S
C3972 C3974 1.395 . S
C3972 C3975 1.403 . S
H3973 C3979 0.930 . S
C3974 H3960 0.930 . S
C3974 C3972 1.395 . S
C3974 C3977 1.403 . S
C3975 C3972 1.403 . S
C3975 C3976 1.524 . S
C3975 C3979 1.400 . S
C3976 H3961 0.960 . S
C3976 H3962 0.960 . S
C3976 H3963 0.960 . S
C3976 C3975 1.524 . S
C3977 C3974 1.403 . S
C3977 C3978 1.392 . S
C3977 C3981 1.495 . S
C3978 C3977 1.392 . S
C3978 C3979 1.385 . S
C3978 C3980 1.478 . S
C3979 H3973 0.930 . S
C3979 C3975 1.400 . S
C3979 C3978 1.385 . S
C3980 C3978 1.478 . S
C3980 C3982 1.381 . S
C3980 C3986 1.383 . S
C3981 C3977 1.495 . S
C3981 H3987 0.959 . S
C3981 H3988 0.961 . S
C3981 H3989 0.960 . S
C3982 C3980 1.381 . S
C3982 C3983 1.394 . S
C3982 H3990 0.930 . S
C3983 C3982 1.394 . S
C3983 C3984 1.383 . S
C3983 H3991 0.929 . S
C3984 C3983 1.383 . S
C3984 C3985 1.377 . S
C3985 H3969 0.930 . S
C3985 C3984 1.377 . S
C3985 C3986 1.379 . S
C3986 H3970 0.931 . S
C3986 C3980 1.383 . S
C3986 C3985 1.379 . S
H3987 C3981 0.959 . S
H3988 C3981 0.961 . S
H3989 C3981 0.960 . S
H3990 C3982 0.930 . S
H3991 C3983 0.929 . S
H3992 C4000 0.929 . S
H3993 C4002 0.930 . S
H3994 C4004 0.930 . S
H3995 C4007 0.929 . S
H3996 C4010 0.930 . S
H3997 C4012 0.948 1_655 S
H3998 C4012 0.944 1_655 S
H3999 C4012 0.978 . S
C4000 H3992 0.929 . S
C4000 C4001 1.377 . S
C4000 C4002 1.384 . S
C4001 C4000 1.377 . S
C4001 C4007 1.390 . S
C4002 H3993 0.930 . S
C4002 C4000 1.384 . S
C4002 C4003 1.372 . S
C4003 C4002 1.372 . S
C4003 C4004 1.400 . S
C4003 C4008 1.490 . S
C4004 H3994 0.930 . S
C4004 C4003 1.400 . S
C4004 C4007 1.386 . S
H4005 C4021 0.930 . S
H4006 C4022 0.931 . S
C4007 H3995 0.929 . S
C4007 C4001 1.390 . S
C4007 C4004 1.386 . S
C4008 C4003 1.490 . S
C4008 C4010 1.395 . S
C4008 C4011 1.403 . S
H4009 C4015 0.930 . S
C4010 H3996 0.930 . S
C4010 C4008 1.395 . S
C4010 C4013 1.403 . S
C4011 C4008 1.403 . S
C4011 C4012 1.535 . S
C4011 C4015 1.400 . S
C4012 H3997 0.948 1_455 S
C4012 H3998 0.944 1_455 S
C4012 H3999 0.978 . S
C4012 C4011 1.535 . S
C4013 C4010 1.403 . S
C4013 C4014 1.392 . S
C4013 C4017 1.495 . S
C4014 C4013 1.392 . S
C4014 C4015 1.385 . S
C4014 C4016 1.478 . S
C4015 H4009 0.930 . S
C4015 C4011 1.400 . S
C4015 C4014 1.385 . S
C4016 C4014 1.478 . S
C4016 C4018 1.381 . S
C4016 C4022 1.383 . S
C4017 C4013 1.495 . S
C4017 H4023 0.959 . S
C4017 H4024 0.961 . S
C4017 H4025 0.960 . S
C4018 C4016 1.381 . S
C4018 C4019 1.394 . S
C4018 H4026 0.930 . S
C4019 C4018 1.394 . S
C4019 C4020 1.383 . S
C4019 H4027 0.929 . S
C4020 C4019 1.383 . S
C4020 C4021 1.377 . S
C4021 H4005 0.930 . S
C4021 C4020 1.377 . S
C4021 C4022 1.379 . S
C4022 H4006 0.931 . S
C4022 C4016 1.383 . S
C4022 C4021 1.379 . S
H4023 C4017 0.959 . S
H4024 C4017 0.961 . S
H4025 C4017 0.960 . S
H4026 C4018 0.930 . S
H4027 C4019 0.929 . S
H4028 C4036 0.929 . S
H4029 C4038 0.930 . S
H4030 C4040 0.930 . S
H4031 C4043 0.929 . S
H4032 C4046 0.930 . S
H4033 C4048 0.960 . S
H4034 C4048 0.960 . S
H4035 C4048 0.960 . S
C4036 H4028 0.929 . S
C4036 C4037 1.377 . S
C4036 C4038 1.384 . S
C4037 C4036 1.377 . S
C4037 C4043 1.390 . S
C4038 H4029 0.930 . S
C4038 C4036 1.384 . S
C4038 C4039 1.372 . S
C4039 C4038 1.372 . S
C4039 C4040 1.400 . S
C4039 C4044 1.490 . S
C4040 H4030 0.930 . S
C4040 C4039 1.400 . S
C4040 C4043 1.386 . S
H4041 C4057 0.930 . S
H4042 C4058 0.931 . S
C4043 H4031 0.929 . S
C4043 C4037 1.390 . S
C4043 C4040 1.386 . S
C4044 C4039 1.490 . S
C4044 C4046 1.395 . S
C4044 C4047 1.403 . S
H4045 C4051 0.930 . S
C4046 H4032 0.930 . S
C4046 C4044 1.395 . S
C4046 C4049 1.403 . S
C4047 C4044 1.403 . S
C4047 C4048 1.524 . S
C4047 C4051 1.400 . S
C4048 H4033 0.960 . S
C4048 H4034 0.960 . S
C4048 H4035 0.960 . S
C4048 C4047 1.524 . S
C4049 C4046 1.403 . S
C4049 C4050 1.392 . S
C4049 C4053 1.495 . S
C4050 C4049 1.392 . S
C4050 C4051 1.385 . S
C4050 C4052 1.478 . S
C4051 H4045 0.930 . S
C4051 C4047 1.400 . S
C4051 C4050 1.385 . S
C4052 C4050 1.478 . S
C4052 C4054 1.381 . S
C4052 C4058 1.383 . S
C4053 C4049 1.495 . S
C4053 H4059 0.959 . S
C4053 H4060 0.961 . S
C4053 H4061 0.960 . S
C4054 C4052 1.381 . S
C4054 C4055 1.394 . S
C4054 H4062 0.930 . S
C4055 C4054 1.394 . S
C4055 C4056 1.383 . S
C4055 H4063 0.929 . S
C4056 C4055 1.383 . S
C4056 C4057 1.377 . S
C4057 H4041 0.930 . S
C4057 C4056 1.377 . S
C4057 C4058 1.379 . S
C4058 H4042 0.931 . S
C4058 C4052 1.383 . S
C4058 C4057 1.379 . S
H4059 C4053 0.959 . S
H4060 C4053 0.961 . S
H4061 C4053 0.960 . S
H4062 C4054 0.930 . S
H4063 C4055 0.929 . S
H4064 C4072 0.929 . S
H4065 C4074 0.930 . S
H4066 C4076 0.930 . S
H4067 C4079 0.929 . S
H4068 C4082 0.930 . S
H4069 C4084 0.960 . S
H4070 C4084 0.960 . S
H4071 C4084 0.960 . S
C4072 H4064 0.929 . S
C4072 C4073 1.377 . S
C4072 C4074 1.384 . S
C4073 C4072 1.377 . S
C4073 C4079 1.390 . S
C4074 H4065 0.930 . S
C4074 C4072 1.384 . S
C4074 C4075 1.372 . S
C4075 C4074 1.372 . S
C4075 C4076 1.400 . S
C4075 C4080 1.490 . S
C4076 H4066 0.930 . S
C4076 C4075 1.400 . S
C4076 C4079 1.386 . S
H4077 C4093 0.930 . S
H4078 C4094 0.931 . S
C4079 H4067 0.929 . S
C4079 C4073 1.390 . S
C4079 C4076 1.386 . S
C4080 C4075 1.490 . S
C4080 C4082 1.395 . S
C4080 C4083 1.403 . S
H4081 C4087 0.930 . S
C4082 H4068 0.930 . S
C4082 C4080 1.395 . S
C4082 C4085 1.403 . S
C4083 C4080 1.403 . S
C4083 C4084 1.524 . S
C4083 C4087 1.400 . S
C4084 H4069 0.960 . S
C4084 H4070 0.960 . S
C4084 H4071 0.960 . S
C4084 C4083 1.524 . S
C4085 C4082 1.403 . S
C4085 C4086 1.392 . S
C4085 C4089 1.495 . S
C4086 C4085 1.392 . S
C4086 C4087 1.385 . S
C4086 C4088 1.478 . S
C4087 H4081 0.930 . S
C4087 C4083 1.400 . S
C4087 C4086 1.385 . S
C4088 C4086 1.478 . S
C4088 C4090 1.381 . S
C4088 C4094 1.383 . S
C4089 C4085 1.495 . S
C4089 H4095 0.959 . S
C4089 H4096 0.961 . S
C4089 H4097 0.960 . S
C4090 C4088 1.381 . S
C4090 C4091 1.394 . S
C4090 H4098 0.930 . S
C4091 C4090 1.394 . S
C4091 C4092 1.383 . S
C4091 H4099 0.929 . S
C4092 C4091 1.383 . S
C4092 C4093 1.377 . S
C4093 H4077 0.930 . S
C4093 C4092 1.377 . S
C4093 C4094 1.379 . S
C4094 H4078 0.931 . S
C4094 C4088 1.383 . S
C4094 C4093 1.379 . S
H4095 C4089 0.959 . S
H4096 C4089 0.961 . S
H4097 C4089 0.960 . S
H4098 C4090 0.930 . S
H4099 C4091 0.929 . S
H4100 C4108 0.929 . S
H4101 C4110 0.930 . S
H4102 C4112 0.930 . S
H4103 C4115 0.929 . S
H4104 C4118 0.930 . S
H4105 C4120 0.960 . S
H4106 C4120 0.960 . S
H4107 C4120 0.960 . S
C4108 H4100 0.929 . S
C4108 C4109 1.377 . S
C4108 C4110 1.384 . S
C4109 C4108 1.377 . S
C4109 C4115 1.390 . S
C4110 H4101 0.930 . S
C4110 C4108 1.384 . S
C4110 C4111 1.372 . S
C4111 C4110 1.372 . S
C4111 C4112 1.400 . S
C4111 C4116 1.490 . S
C4112 H4102 0.930 . S
C4112 C4111 1.400 . S
C4112 C4115 1.386 . S
H4113 C4129 0.930 . S
H4114 C4130 0.931 . S
C4115 H4103 0.929 . S
C4115 C4109 1.390 . S
C4115 C4112 1.386 . S
C4116 C4111 1.490 . S
C4116 C4118 1.395 . S
C4116 C4119 1.403 . S
H4117 C4123 0.930 . S
C4118 H4104 0.930 . S
C4118 C4116 1.395 . S
C4118 C4121 1.403 . S
C4119 C4116 1.403 . S
C4119 C4120 1.524 . S
C4119 C4123 1.400 . S
C4120 H4105 0.960 . S
C4120 H4106 0.960 . S
C4120 H4107 0.960 . S
C4120 C4119 1.524 . S
C4121 C4118 1.403 . S
C4121 C4122 1.392 . S
C4121 C4125 1.495 . S
C4122 C4121 1.392 . S
C4122 C4123 1.385 . S
C4122 C4124 1.478 . S
C4123 H4117 0.930 . S
C4123 C4119 1.400 . S
C4123 C4122 1.385 . S
C4124 C4122 1.478 . S
C4124 C4126 1.381 . S
C4124 C4130 1.383 . S
C4125 C4121 1.495 . S
C4125 H4131 0.959 . S
C4125 H4132 0.961 . S
C4125 H4133 0.960 . S
C4126 C4124 1.381 . S
C4126 C4127 1.394 . S
C4126 H4134 0.930 . S
C4127 C4126 1.394 . S
C4127 C4128 1.383 . S
C4127 H4135 0.929 . S
C4128 C4127 1.383 . S
C4128 C4129 1.377 . S
C4129 H4113 0.930 . S
C4129 C4128 1.377 . S
C4129 C4130 1.379 . S
C4130 H4114 0.931 . S
C4130 C4124 1.383 . S
C4130 C4129 1.379 . S
H4131 C4125 0.959 . S
H4132 C4125 0.961 . S
H4133 C4125 0.960 . S
H4134 C4126 0.930 . S
H4135 C4127 0.929 . S
H4136 C4144 0.929 . S
H4137 C4146 0.930 . S
H4138 C4148 0.930 . S
H4139 C4151 0.929 . S
H4140 C4154 0.930 . S
H4141 C4156 0.960 . S
H4142 C4156 0.960 . S
H4143 C4156 0.960 . S
C4144 H4136 0.929 . S
C4144 C4145 1.377 . S
C4144 C4146 1.384 . S
C4145 C4144 1.377 . S
C4145 C4151 1.390 . S
C4146 H4137 0.930 . S
C4146 C4144 1.384 . S
C4146 C4147 1.372 . S
C4147 C4146 1.372 . S
C4147 C4148 1.400 . S
C4147 C4152 1.490 . S
C4148 H4138 0.930 . S
C4148 C4147 1.400 . S
C4148 C4151 1.386 . S
H4149 C4165 0.930 . S
H4150 C4166 0.931 . S
C4151 H4139 0.929 . S
C4151 C4145 1.390 . S
C4151 C4148 1.386 . S
C4152 C4147 1.490 . S
C4152 C4154 1.395 . S
C4152 C4155 1.403 . S
H4153 C4159 0.930 . S
C4154 H4140 0.930 . S
C4154 C4152 1.395 . S
C4154 C4157 1.403 . S
C4155 C4152 1.403 . S
C4155 C4156 1.524 . S
C4155 C4159 1.400 . S
C4156 H4141 0.960 . S
C4156 H4142 0.960 . S
C4156 H4143 0.960 . S
C4156 C4155 1.524 . S
C4157 C4154 1.403 . S
C4157 C4158 1.392 . S
C4157 C4161 1.495 1_655 S
C4158 C4157 1.392 . S
C4158 C4159 1.385 . S
C4158 C4160 1.478 . S
C4159 H4153 0.930 . S
C4159 C4155 1.400 . S
C4159 C4158 1.385 . S
C4160 C4158 1.478 . S
C4160 C4162 1.381 . S
C4160 C4166 1.383 . S
C4161 C4157 1.495 1_455 S
C4161 H4167 0.959 . S
C4161 H4168 0.961 . S
C4161 H4169 0.960 . S
C4162 C4160 1.381 . S
C4162 C4163 1.394 1_655 S
C4162 H4170 0.930 . S
C4163 C4162 1.394 1_455 S
C4163 C4164 1.377 1_455 S
C4163 H4171 0.929 . S
C4164 C4163 1.377 1_655 S
C4164 C4165 1.391 . S
C4165 H4149 0.930 . S
C4165 C4164 1.391 . S
C4165 C4166 1.379 . S
C4166 H4150 0.931 . S
C4166 C4160 1.383 . S
C4166 C4165 1.379 . S
H4167 C4161 0.959 . S
H4168 C4161 0.961 . S
H4169 C4161 0.960 . S
H4170 C4162 0.930 . S
H4171 C4163 0.929 . S
H4172 C4180 0.929 . S
H4173 C4182 0.930 . S
H4174 C4184 0.930 . S
H4175 C4187 0.929 . S
H4176 C4190 0.930 . S
H4177 C4192 0.960 . S
H4178 C4192 0.960 . S
H4179 C4192 0.960 . S
C4180 H4172 0.929 . S
C4180 C4181 1.377 . S
C4180 C4182 1.384 . S
C4181 C4180 1.377 . S
C4181 C4187 1.390 . S
C4182 H4173 0.930 . S
C4182 C4180 1.384 . S
C4182 C4183 1.372 . S
C4183 C4182 1.372 . S
C4183 C4184 1.400 . S
C4183 C4188 1.490 . S
C4184 H4174 0.930 . S
C4184 C4183 1.400 . S
C4184 C4187 1.386 . S
H4185 C4201 0.930 . S
H4186 C4202 0.931 . S
C4187 H4175 0.929 . S
C4187 C4181 1.390 . S
C4187 C4184 1.386 . S
C4188 C4183 1.490 . S
C4188 C4190 1.395 . S
C4188 C4191 1.403 . S
H4189 C4195 0.930 . S
C4190 H4176 0.930 . S
C4190 C4188 1.395 . S
C4190 C4193 1.403 . S
C4191 C4188 1.403 . S
C4191 C4192 1.524 . S
C4191 C4195 1.400 . S
C4192 H4177 0.960 . S
C4192 H4178 0.960 . S
C4192 H4179 0.960 . S
C4192 C4191 1.524 . S
C4193 C4190 1.403 . S
C4193 C4194 1.392 . S
C4193 C4197 1.495 . S
C4194 C4193 1.392 . S
C4194 C4195 1.385 . S
C4194 C4196 1.478 . S
C4195 H4189 0.930 . S
C4195 C4191 1.400 . S
C4195 C4194 1.385 . S
C4196 C4194 1.478 . S
C4196 C4198 1.381 . S
C4196 C4202 1.383 . S
C4197 C4193 1.495 . S
C4197 H4203 0.959 . S
C4197 H4204 0.961 . S
C4197 H4205 0.960 . S
C4198 C4196 1.381 . S
C4198 C4199 1.394 . S
C4198 H4206 0.930 . S
C4199 C4198 1.394 . S
C4199 C4200 1.383 . S
C4199 H4207 0.929 . S
C4200 C4199 1.383 . S
C4200 C4201 1.377 . S
C4201 H4185 0.930 . S
C4201 C4200 1.377 . S
C4201 C4202 1.379 . S
C4202 H4186 0.931 . S
C4202 C4196 1.383 . S
C4202 C4201 1.379 . S
H4203 C4197 0.959 . S
H4204 C4197 0.961 . S
H4205 C4197 0.960 . S
H4206 C4198 0.930 . S
H4207 C4199 0.929 . S
H4208 C4216 0.929 . S
H4209 C4218 0.930 . S
H4210 C4220 0.930 . S
H4211 C4223 0.929 . S
H4212 C4226 0.930 . S
H4213 C4228 0.960 . S
H4214 C4228 0.960 . S
H4215 C4228 0.960 . S
C4216 H4208 0.929 . S
C4216 C4217 1.377 . S
C4216 C4218 1.384 . S
C4217 C4216 1.377 . S
C4217 C4223 1.390 . S
C4218 H4209 0.930 . S
C4218 C4216 1.384 . S
C4218 C4219 1.372 . S
C4219 C4218 1.372 . S
C4219 C4220 1.400 . S
C4219 C4224 1.490 . S
C4220 H4210 0.930 . S
C4220 C4219 1.400 . S
C4220 C4223 1.386 . S
H4221 C4237 0.930 . S
H4222 C4238 0.931 . S
C4223 H4211 0.929 . S
C4223 C4217 1.390 . S
C4223 C4220 1.386 . S
C4224 C4219 1.490 . S
C4224 C4226 1.395 . S
C4224 C4227 1.403 . S
H4225 C4231 0.930 . S
C4226 H4212 0.930 . S
C4226 C4224 1.395 . S
C4226 C4229 1.403 . S
C4227 C4224 1.403 . S
C4227 C4228 1.524 . S
C4227 C4231 1.400 . S
C4228 H4213 0.960 . S
C4228 H4214 0.960 . S
C4228 H4215 0.960 . S
C4228 C4227 1.524 . S
C4229 C4226 1.403 . S
C4229 C4230 1.392 . S
C4229 C4233 1.495 . S
C4230 C4229 1.392 . S
C4230 C4231 1.385 . S
C4230 C4232 1.478 . S
C4231 H4225 0.930 . S
C4231 C4227 1.400 . S
C4231 C4230 1.385 . S
C4232 C4230 1.478 . S
C4232 C4234 1.381 . S
C4232 C4238 1.383 . S
C4233 C4229 1.495 . S
C4233 H4239 0.959 . S
C4233 H4240 0.961 . S
C4233 H4241 0.960 . S
C4234 C4232 1.381 . S
C4234 C4235 1.394 . S
C4234 H4242 0.930 . S
C4235 C4234 1.394 . S
C4235 C4236 1.383 . S
C4235 H4243 0.929 . S
C4236 C4235 1.383 . S
C4236 C4237 1.377 . S
C4237 H4221 0.930 . S
C4237 C4236 1.377 . S
C4237 C4238 1.379 . S
C4238 H4222 0.931 . S
C4238 C4232 1.383 . S
C4238 C4237 1.379 . S
H4239 C4233 0.959 . S
H4240 C4233 0.961 . S
H4241 C4233 0.960 . S
H4242 C4234 0.930 . S
H4243 C4235 0.929 . S
H4244 C4252 0.929 . S
H4245 C4254 0.930 . S
H4246 C4256 0.930 . S
H4247 C4259 0.929 . S
H4248 C4262 0.930 . S
H4249 C4264 0.960 . S
H4250 C4264 0.960 . S
H4251 C4264 0.960 . S
C4252 H4244 0.929 . S
C4252 C4253 1.377 . S
C4252 C4254 1.384 . S
C4253 C4252 1.377 . S
C4253 C4259 1.390 . S
C4254 H4245 0.930 . S
C4254 C4252 1.384 . S
C4254 C4255 1.372 . S
C4255 C4254 1.372 . S
C4255 C4256 1.400 . S
C4255 C4260 1.490 . S
C4256 H4246 0.930 . S
C4256 C4255 1.400 . S
C4256 C4259 1.386 . S
H4257 C4273 0.930 . S
H4258 C4274 0.931 . S
C4259 H4247 0.929 . S
C4259 C4253 1.390 . S
C4259 C4256 1.386 . S
C4260 C4255 1.490 . S
C4260 C4262 1.395 . S
C4260 C4263 1.403 . S
H4261 C4267 0.930 . S
C4262 H4248 0.930 . S
C4262 C4260 1.395 . S
C4262 C4265 1.403 . S
C4263 C4260 1.403 . S
C4263 C4264 1.524 . S
C4263 C4267 1.400 . S
C4264 H4249 0.960 . S
C4264 H4250 0.960 . S
C4264 H4251 0.960 . S
C4264 C4263 1.524 . S
C4265 C4262 1.403 . S
C4265 C4266 1.392 . S
C4265 C4269 1.495 . S
C4266 C4265 1.392 . S
C4266 C4267 1.385 . S
C4266 C4268 1.478 . S
C4267 H4261 0.930 . S
C4267 C4263 1.400 . S
C4267 C4266 1.385 . S
C4268 C4266 1.478 . S
C4268 C4270 1.381 . S
C4268 C4274 1.383 . S
C4269 C4265 1.495 . S
C4269 H4275 0.959 . S
C4269 H4276 0.961 . S
C4269 H4277 0.960 . S
C4270 C4268 1.381 . S
C4270 C4271 1.394 . S
C4270 H4278 0.930 . S
C4271 C4270 1.394 . S
C4271 C4272 1.383 . S
C4271 H4279 0.929 . S
C4272 C4271 1.383 . S
C4272 C4273 1.377 . S
C4273 H4257 0.930 . S
C4273 C4272 1.377 . S
C4273 C4274 1.379 . S
C4274 H4258 0.931 . S
C4274 C4268 1.383 . S
C4274 C4273 1.379 . S
H4275 C4269 0.959 . S
H4276 C4269 0.961 . S
H4277 C4269 0.960 . S
H4278 C4270 0.930 . S
H4279 C4271 0.929 . S
H4280 C4288 0.929 . S
H4281 C4290 0.930 . S
H4282 C4292 0.930 . S
H4283 C4295 0.929 . S
H4284 C4298 0.930 . S
H4285 C4300 0.960 . S
H4286 C4300 0.960 . S
H4287 C4300 0.960 . S
C4288 H4280 0.929 . S
C4288 C4289 1.377 . S
C4288 C4290 1.384 . S
C4289 C4288 1.377 . S
C4289 C4295 1.390 . S
C4290 H4281 0.930 . S
C4290 C4288 1.384 . S
C4290 C4291 1.372 . S
C4291 C4290 1.372 . S
C4291 C4292 1.400 . S
C4291 C4296 1.490 . S
C4292 H4282 0.930 . S
C4292 C4291 1.400 . S
C4292 C4295 1.386 . S
H4293 C4309 0.930 . S
H4294 C4310 0.931 . S
C4295 H4283 0.929 . S
C4295 C4289 1.390 . S
C4295 C4292 1.386 . S
C4296 C4291 1.490 . S
C4296 C4298 1.395 . S
C4296 C4299 1.403 . S
H4297 C4303 0.930 . S
C4298 H4284 0.930 . S
C4298 C4296 1.395 . S
C4298 C4301 1.403 . S
C4299 C4296 1.403 . S
C4299 C4300 1.524 . S
C4299 C4303 1.400 . S
C4300 H4285 0.960 . S
C4300 H4286 0.960 . S
C4300 H4287 0.960 . S
C4300 C4299 1.524 . S
C4301 C4298 1.403 . S
C4301 C4302 1.392 . S
C4301 C4305 1.495 . S
C4302 C4301 1.392 . S
C4302 C4303 1.385 . S
C4302 C4304 1.478 . S
C4303 H4297 0.930 . S
C4303 C4299 1.400 . S
C4303 C4302 1.385 . S
C4304 C4302 1.478 . S
C4304 C4306 1.381 . S
C4304 C4310 1.383 . S
C4305 C4301 1.495 . S
C4305 H4311 0.959 . S
C4305 H4312 0.961 . S
C4305 H4313 0.960 . S
C4306 C4304 1.381 . S
C4306 C4307 1.394 . S
C4306 H4314 0.930 . S
C4307 C4306 1.394 . S
C4307 C4308 1.383 . S
C4307 H4315 0.929 . S
C4308 C4307 1.383 . S
C4308 C4309 1.377 . S
C4309 H4293 0.930 . S
C4309 C4308 1.377 . S
C4309 C4310 1.379 . S
C4310 H4294 0.931 . S
C4310 C4304 1.383 . S
C4310 C4309 1.379 . S
H4311 C4305 0.959 . S
H4312 C4305 0.961 . S
H4313 C4305 0.960 . S
H4314 C4306 0.930 . S
H4315 C4307 0.929 . S
H4316 C4324 0.929 . S
H4317 C4326 0.930 . S
H4318 C4328 0.930 . S
H4319 C4331 0.929 . S
H4320 C4334 0.930 . S
H4321 C4336 0.960 . S
H4322 C4336 0.960 . S
H4323 C4336 0.960 . S
C4324 H4316 0.929 . S
C4324 C4325 1.377 . S
C4324 C4326 1.384 . S
C4325 C4324 1.377 . S
C4325 C4331 1.390 . S
C4326 H4317 0.930 . S
C4326 C4324 1.384 . S
C4326 C4327 1.372 . S
C4327 C4326 1.372 . S
C4327 C4328 1.400 . S
C4327 C4332 1.490 . S
C4328 H4318 0.930 . S
C4328 C4327 1.400 . S
C4328 C4331 1.386 . S
H4329 C4345 0.930 . S
H4330 C4346 0.931 . S
C4331 H4319 0.929 . S
C4331 C4325 1.390 . S
C4331 C4328 1.386 . S
C4332 C4327 1.490 . S
C4332 C4334 1.395 . S
C4332 C4335 1.403 . S
H4333 C4339 0.930 . S
C4334 H4320 0.930 . S
C4334 C4332 1.395 . S
C4334 C4337 1.403 . S
C4335 C4332 1.403 . S
C4335 C4336 1.524 . S
C4335 C4339 1.400 . S
C4336 H4321 0.960 . S
C4336 H4322 0.960 . S
C4336 H4323 0.960 . S
C4336 C4335 1.524 . S
C4337 C4334 1.403 . S
C4337 C4338 1.392 . S
C4337 C4341 1.495 . S
C4338 C4337 1.392 . S
C4338 C4339 1.385 . S
C4338 C4340 1.478 . S
C4339 H4333 0.930 . S
C4339 C4335 1.400 . S
C4339 C4338 1.385 . S
C4340 C4338 1.478 . S
C4340 C4342 1.381 . S
C4340 C4346 1.383 . S
C4341 C4337 1.495 . S
C4341 H4347 0.959 . S
C4341 H4348 0.961 . S
C4341 H4349 0.960 . S
C4342 C4340 1.381 . S
C4342 C4343 1.394 . S
C4342 H4350 0.930 . S
C4343 C4342 1.394 . S
C4343 C4344 1.383 . S
C4343 H4351 0.929 . S
C4344 C4343 1.383 . S
C4344 C4345 1.377 . S
C4345 H4329 0.930 . S
C4345 C4344 1.377 . S
C4345 C4346 1.379 . S
C4346 H4330 0.931 . S
C4346 C4340 1.383 . S
C4346 C4345 1.379 . S
H4347 C4341 0.959 . S
H4348 C4341 0.961 . S
H4349 C4341 0.960 . S
H4350 C4342 0.930 . S
H4351 C4343 0.929 . S
H4352 C4360 0.929 . S
H4353 C4362 0.930 . S
H4354 C4364 0.930 . S
H4355 C4367 0.929 . S
H4356 C4370 0.930 . S
H4357 C4372 0.960 . S
H4358 C4372 0.960 . S
H4359 C4372 0.960 . S
C4360 H4352 0.929 . S
C4360 C4361 1.377 . S
C4360 C4362 1.384 . S
C4361 C4360 1.377 . S
C4361 C4367 1.390 . S
C4362 H4353 0.930 . S
C4362 C4360 1.384 . S
C4362 C4363 1.372 . S
C4363 C4362 1.372 . S
C4363 C4364 1.400 . S
C4363 C4368 1.490 . S
C4364 H4354 0.930 . S
C4364 C4363 1.400 . S
C4364 C4367 1.386 . S
H4365 C4381 0.930 . S
H4366 C4382 0.931 . S
C4367 H4355 0.929 . S
C4367 C4361 1.390 . S
C4367 C4364 1.386 . S
C4368 C4363 1.490 . S
C4368 C4370 1.395 . S
C4368 C4371 1.403 . S
H4369 C4375 0.930 . S
C4370 H4356 0.930 . S
C4370 C4368 1.395 . S
C4370 C4373 1.403 . S
C4371 C4368 1.403 . S
C4371 C4372 1.524 . S
C4371 C4375 1.400 . S
C4372 H4357 0.960 . S
C4372 H4358 0.960 . S
C4372 H4359 0.960 . S
C4372 C4371 1.524 . S
C4373 C4370 1.403 . S
C4373 C4374 1.392 . S
C4373 C4377 1.495 . S
C4374 C4373 1.392 . S
C4374 C4375 1.385 . S
C4374 C4376 1.478 . S
C4375 H4369 0.930 . S
C4375 C4371 1.400 . S
C4375 C4374 1.385 . S
C4376 C4374 1.478 . S
C4376 C4378 1.381 . S
C4376 C4382 1.383 . S
C4377 C4373 1.495 . S
C4377 H4383 0.959 . S
C4377 H4384 0.961 . S
C4377 H4385 0.960 . S
C4378 C4376 1.381 . S
C4378 C4379 1.394 . S
C4378 H4386 0.930 . S
C4379 C4378 1.394 . S
C4379 C4380 1.383 . S
C4379 H4387 0.929 . S
C4380 C4379 1.383 . S
C4380 C4381 1.377 . S
C4381 H4365 0.930 . S
C4381 C4380 1.377 . S
C4381 C4382 1.379 . S
C4382 H4366 0.931 . S
C4382 C4376 1.383 . S
C4382 C4381 1.379 . S
H4383 C4377 0.959 . S
H4384 C4377 0.961 . S
H4385 C4377 0.960 . S
H4386 C4378 0.930 . S
H4387 C4379 0.929 . S
H4388 C4396 0.929 . S
H4389 C4398 0.930 . S
H4390 C4400 0.930 . S
H4391 C4403 0.929 . S
H4392 C4406 0.930 . S
H4393 C4408 0.960 . S
H4394 C4408 0.960 . S
H4395 C4408 0.960 . S
C4396 H4388 0.929 . S
C4396 C4397 1.377 . S
C4396 C4398 1.384 . S
C4397 C4396 1.377 . S
C4397 C4403 1.390 . S
C4398 H4389 0.930 . S
C4398 C4396 1.384 . S
C4398 C4399 1.372 . S
C4399 C4398 1.372 . S
C4399 C4400 1.400 . S
C4399 C4404 1.490 . S
C4400 H4390 0.930 . S
C4400 C4399 1.400 . S
C4400 C4403 1.386 . S
H4401 C4417 0.930 . S
H4402 C4418 0.931 . S
C4403 H4391 0.929 . S
C4403 C4397 1.390 . S
C4403 C4400 1.386 . S
C4404 C4399 1.490 . S
C4404 C4406 1.395 . S
C4404 C4407 1.403 . S
H4405 C4411 0.930 . S
C4406 H4392 0.930 . S
C4406 C4404 1.395 . S
C4406 C4409 1.403 . S
C4407 C4404 1.403 . S
C4407 C4408 1.524 . S
C4407 C4411 1.400 . S
C4408 H4393 0.960 . S
C4408 H4394 0.960 . S
C4408 H4395 0.960 . S
C4408 C4407 1.524 . S
C4409 C4406 1.403 . S
C4409 C4410 1.392 . S
C4409 C4413 1.495 . S
C4410 C4409 1.392 . S
C4410 C4411 1.385 . S
C4410 C4412 1.478 . S
C4411 H4405 0.930 . S
C4411 C4407 1.400 . S
C4411 C4410 1.385 . S
C4412 C4410 1.478 . S
C4412 C4414 1.381 . S
C4412 C4418 1.383 . S
C4413 C4409 1.495 . S
C4413 H4419 0.959 . S
C4413 H4420 0.961 . S
C4413 H4421 0.960 . S
C4414 C4412 1.381 . S
C4414 C4415 1.394 . S
C4414 H4422 0.930 . S
C4415 C4414 1.394 . S
C4415 C4416 1.383 . S
C4415 H4423 0.929 1_565 S
C4416 C4415 1.383 . S
C4416 C4417 1.377 . S
C4417 H4401 0.930 . S
C4417 C4416 1.377 . S
C4417 C4418 1.379 . S
C4418 H4402 0.931 . S
C4418 C4412 1.383 . S
C4418 C4417 1.379 . S
H4419 C4413 0.959 . S
H4420 C4413 0.961 . S
H4421 C4413 0.960 . S
H4422 C4414 0.930 . S
H4423 C4415 0.929 1_545 S
H4424 C4432 0.929 . S
H4425 C4434 0.930 . S
H4426 C4436 0.930 . S
H4427 C4439 0.929 . S
H4428 C4442 0.930 . S
H4429 C4444 0.960 . S
H4430 C4444 0.960 . S
H4431 C4444 0.960 . S
C4432 H4424 0.929 . S
C4432 C4433 1.377 . S
C4432 C4434 1.384 . S
C4433 C4432 1.377 . S
C4433 C4439 1.390 . S
C4434 H4425 0.930 . S
C4434 C4432 1.384 . S
C4434 C4435 1.372 . S
C4435 C4434 1.372 . S
C4435 C4436 1.400 . S
C4435 C4440 1.490 . S
C4436 H4426 0.930 . S
C4436 C4435 1.400 . S
C4436 C4439 1.386 . S
H4437 C4453 0.930 . S
H4438 C4454 0.931 . S
C4439 H4427 0.929 . S
C4439 C4433 1.390 . S
C4439 C4436 1.386 . S
C4440 C4435 1.490 . S
C4440 C4442 1.395 . S
C4440 C4443 1.403 . S
H4441 C4447 0.930 . S
C4442 H4428 0.930 . S
C4442 C4440 1.395 . S
C4442 C4445 1.403 . S
C4443 C4440 1.403 . S
C4443 C4444 1.524 . S
C4443 C4447 1.400 . S
C4444 H4429 0.960 . S
C4444 H4430 0.960 . S
C4444 H4431 0.960 . S
C4444 C4443 1.524 . S
C4445 C4442 1.403 . S
C4445 C4446 1.392 . S
C4445 C4449 1.495 . S
C4446 C4445 1.392 . S
C4446 C4447 1.385 . S
C4446 C4448 1.478 . S
C4447 H4441 0.930 . S
C4447 C4443 1.400 . S
C4447 C4446 1.385 . S
C4448 C4446 1.478 . S
C4448 C4450 1.381 . S
C4448 C4454 1.383 . S
C4449 C4445 1.495 . S
C4449 H4455 0.959 . S
C4449 H4456 0.961 . S
C4449 H4457 0.960 . S
C4450 C4448 1.381 . S
C4450 C4451 1.394 . S
C4450 H4458 0.930 . S
C4451 C4450 1.394 . S
C4451 C4452 1.383 . S
C4451 H4459 0.929 . S
C4452 C4451 1.383 . S
C4452 C4453 1.377 . S
C4453 H4437 0.930 . S
C4453 C4452 1.377 . S
C4453 C4454 1.379 . S
C4454 H4438 0.931 . S
C4454 C4448 1.383 . S
C4454 C4453 1.379 . S
H4455 C4449 0.959 . S
H4456 C4449 0.961 . S
H4457 C4449 0.960 . S
H4458 C4450 0.930 . S
H4459 C4451 0.929 . S
H4460 C4468 0.929 . S
H4461 C4470 0.930 . S
H4462 C4472 0.930 1_556 S
H4463 C4475 0.929 1_556 S
H4464 C4478 0.930 . S
H4465 C4480 0.960 . S
H4466 C4480 0.960 . S
H4467 C4480 0.960 . S
C4468 H4460 0.929 . S
C4468 C4469 1.377 . S
C4468 C4470 1.384 . S
C4469 C4468 1.377 . S
C4469 C4475 1.390 . S
C4470 H4461 0.930 . S
C4470 C4468 1.384 . S
C4470 C4471 1.372 . S
C4471 C4470 1.372 . S
C4471 C4472 1.400 . S
C4471 C4476 1.490 . S
C4472 H4462 0.930 1_554 S
C4472 C4471 1.400 . S
C4472 C4475 1.386 . S
H4473 C4489 0.930 1_556 S
H4474 C4490 0.931 1_556 S
C4475 H4463 0.929 1_554 S
C4475 C4469 1.390 . S
C4475 C4472 1.386 . S
C4476 C4471 1.490 . S
C4476 C4478 1.395 . S
C4476 C4479 1.403 . S
H4477 C4483 0.930 . S
C4478 H4464 0.930 . S
C4478 C4476 1.395 . S
C4478 C4481 1.403 . S
C4479 C4476 1.403 . S
C4479 C4480 1.524 . S
C4479 C4483 1.400 . S
C4480 H4465 0.960 . S
C4480 H4466 0.960 . S
C4480 H4467 0.960 . S
C4480 C4479 1.524 . S
C4481 C4478 1.403 . S
C4481 C4482 1.392 . S
C4481 C4485 1.495 . S
C4482 C4481 1.392 . S
C4482 C4483 1.385 . S
C4482 C4484 1.478 . S
C4483 H4477 0.930 . S
C4483 C4479 1.400 . S
C4483 C4482 1.385 . S
C4484 C4482 1.478 . S
C4484 C4486 1.381 . S
C4484 C4490 1.383 . S
C4485 C4481 1.495 . S
C4485 H4491 0.959 . S
C4485 H4492 0.961 . S
C4485 H4493 0.960 . S
C4486 C4484 1.381 . S
C4486 C4487 1.394 . S
C4486 H4494 0.930 . S
C4487 C4486 1.394 . S
C4487 C4488 1.383 . S
C4487 H4495 0.929 . S
C4488 C4487 1.383 . S
C4488 C4489 1.377 . S
C4489 H4473 0.930 1_554 S
C4489 C4488 1.377 . S
C4489 C4490 1.379 . S
C4490 H4474 0.931 1_554 S
C4490 C4484 1.383 . S
C4490 C4489 1.379 . S
H4491 C4485 0.959 . S
H4492 C4485 0.961 . S
H4493 C4485 0.960 . S
H4494 C4486 0.930 . S
H4495 C4487 0.929 . S
H4496 C4504 0.929 . S
H4497 C4506 0.930 . S
H4498 C4508 0.930 . S
H4499 C4511 0.929 . S
H4500 C4514 0.930 . S
H4501 C4516 0.960 . S
H4502 C4516 0.960 . S
H4503 C4516 0.960 . S
C4504 H4496 0.929 . S
C4504 C4505 1.377 . S
C4504 C4506 1.384 . S
C4505 C4504 1.377 . S
C4505 C4511 1.390 . S
C4506 H4497 0.930 . S
C4506 C4504 1.384 . S
C4506 C4507 1.372 . S
C4507 C4506 1.372 . S
C4507 C4508 1.400 . S
C4507 C4512 1.490 . S
C4508 H4498 0.930 . S
C4508 C4507 1.400 . S
C4508 C4511 1.386 . S
H4509 C4525 0.930 . S
H4510 C4526 0.931 . S
C4511 H4499 0.929 . S
C4511 C4505 1.390 . S
C4511 C4508 1.386 . S
C4512 C4507 1.490 . S
C4512 C4514 1.395 . S
C4512 C4515 1.403 . S
H4513 C4519 0.930 . S
C4514 H4500 0.930 . S
C4514 C4512 1.395 . S
C4514 C4517 1.403 . S
C4515 C4512 1.403 . S
C4515 C4516 1.524 . S
C4515 C4519 1.400 . S
C4516 H4501 0.960 . S
C4516 H4502 0.960 . S
C4516 H4503 0.960 . S
C4516 C4515 1.524 . S
C4517 C4514 1.403 . S
C4517 C4518 1.392 . S
C4517 C4521 1.495 . S
C4518 C4517 1.392 . S
C4518 C4519 1.385 . S
C4518 C4520 1.478 . S
C4519 H4513 0.930 . S
C4519 C4515 1.400 . S
C4519 C4518 1.385 . S
C4520 C4518 1.478 . S
C4520 C4522 1.381 . S
C4520 C4526 1.383 . S
C4521 C4517 1.495 . S
C4521 H4527 0.959 . S
C4521 H4528 0.961 . S
C4521 H4529 0.960 . S
C4522 C4520 1.381 . S
C4522 C4523 1.394 . S
C4522 H4530 0.930 . S
C4523 C4522 1.394 . S
C4523 C4524 1.383 . S
C4523 H4531 0.929 . S
C4524 C4523 1.383 . S
C4524 C4525 1.377 . S
C4525 H4509 0.930 . S
C4525 C4524 1.377 . S
C4525 C4526 1.379 . S
C4526 H4510 0.931 . S
C4526 C4520 1.383 . S
C4526 C4525 1.379 . S
H4527 C4521 0.959 . S
H4528 C4521 0.961 . S
H4529 C4521 0.960 . S
H4530 C4522 0.930 . S
H4531 C4523 0.929 . S
H4532 C4540 0.929 . S
H4533 C4542 0.930 . S
H4534 C4544 0.930 . S
H4535 C4547 0.929 . S
H4536 C4550 0.930 . S
H4537 C4552 0.960 . S
H4538 C4552 0.960 . S
H4539 C4552 0.960 . S
C4540 H4532 0.929 . S
C4540 C4541 1.377 . S
C4540 C4542 1.384 . S
C4541 C4540 1.377 . S
C4541 C4547 1.390 . S
C4542 H4533 0.930 . S
C4542 C4540 1.384 . S
C4542 C4543 1.372 . S
C4543 C4542 1.372 . S
C4543 C4544 1.400 . S
C4543 C4548 1.490 . S
C4544 H4534 0.930 . S
C4544 C4543 1.400 . S
C4544 C4547 1.386 . S
H4545 C4561 0.930 . S
H4546 C4562 0.908 1_556 S
C4547 H4535 0.929 . S
C4547 C4541 1.390 . S
C4547 C4544 1.386 . S
C4548 C4543 1.490 . S
C4548 C4550 1.395 . S
C4548 C4551 1.403 . S
H4549 C4555 0.930 . S
C4550 H4536 0.930 . S
C4550 C4548 1.395 . S
C4550 C4553 1.403 . S
C4551 C4548 1.403 . S
C4551 C4552 1.524 . S
C4551 C4555 1.400 . S
C4552 H4537 0.960 . S
C4552 H4538 0.960 . S
C4552 H4539 0.960 . S
C4552 C4551 1.524 . S
C4553 C4550 1.403 . S
C4553 C4554 1.392 . S
C4553 C4557 1.495 . S
C4554 C4553 1.392 . S
C4554 C4555 1.385 . S
C4554 C4556 1.478 . S
C4555 H4549 0.930 . S
C4555 C4551 1.400 . S
C4555 C4554 1.385 . S
C4556 C4554 1.478 . S
C4556 C4558 1.381 . S
C4556 C4562 1.411 . S
C4557 C4553 1.495 . S
C4557 H4563 0.959 . S
C4557 H4564 0.961 1_554 S
C4557 H4565 0.960 . S
C4558 C4556 1.381 . S
C4558 C4559 1.394 . S
C4558 H4566 0.930 . S
C4559 C4558 1.394 . S
C4559 C4560 1.383 . S
C4559 H4567 0.929 . S
C4560 C4559 1.383 . S
C4560 C4561 1.377 1_554 S
C4561 H4545 0.930 . S
C4561 C4560 1.377 1_556 S
C4561 C4562 1.376 1_556 S
C4562 H4546 0.908 1_554 S
C4562 C4556 1.411 . S
C4562 C4561 1.376 1_554 S
H4563 C4557 0.959 . S
H4564 C4557 0.961 1_556 S
H4565 C4557 0.960 . S
H4566 C4558 0.930 . S
H4567 C4559 0.929 . S
H4568 C4576 0.929 . S
H4569 C4578 0.930 . S
H4570 C4580 0.930 . S
H4571 C4583 0.929 . S
H4572 C4586 0.930 . S
H4573 C4588 0.960 . S
H4574 C4588 0.960 . S
H4575 C4588 0.960 . S
C4576 H4568 0.929 . S
C4576 C4577 1.377 . S
C4576 C4578 1.384 . S
C4577 C4576 1.377 . S
C4577 C4583 1.390 . S
C4578 H4569 0.930 . S
C4578 C4576 1.384 . S
C4578 C4579 1.372 . S
C4579 C4578 1.372 . S
C4579 C4580 1.400 . S
C4579 C4584 1.490 . S
C4580 H4570 0.930 . S
C4580 C4579 1.400 . S
C4580 C4583 1.386 . S
H4581 C4597 0.930 . S
H4582 C4598 0.931 . S
C4583 H4571 0.929 . S
C4583 C4577 1.390 . S
C4583 C4580 1.386 . S
C4584 C4579 1.490 . S
C4584 C4586 1.395 . S
C4584 C4587 1.403 . S
H4585 C4591 0.930 . S
C4586 H4572 0.930 . S
C4586 C4584 1.395 . S
C4586 C4589 1.403 . S
C4587 C4584 1.403 . S
C4587 C4588 1.524 . S
C4587 C4591 1.400 . S
C4588 H4573 0.960 . S
C4588 H4574 0.960 . S
C4588 H4575 0.960 . S
C4588 C4587 1.524 . S
C4589 C4586 1.403 . S
C4589 C4590 1.392 . S
C4589 C4593 1.495 . S
C4590 C4589 1.392 . S
C4590 C4591 1.385 . S
C4590 C4592 1.478 . S
C4591 H4585 0.930 . S
C4591 C4587 1.400 . S
C4591 C4590 1.385 . S
C4592 C4590 1.478 . S
C4592 C4594 1.381 . S
C4592 C4598 1.383 . S
C4593 C4589 1.495 . S
C4593 H4599 0.959 . S
C4593 H4600 0.961 . S
C4593 H4601 0.960 . S
C4594 C4592 1.381 . S
C4594 C4595 1.394 . S
C4594 H4602 0.930 . S
C4595 C4594 1.394 . S
C4595 C4596 1.383 . S
C4595 H4603 0.929 . S
C4596 C4595 1.383 . S
C4596 C4597 1.377 . S
C4597 H4581 0.930 . S
C4597 C4596 1.377 . S
C4597 C4598 1.379 . S
C4598 H4582 0.931 . S
C4598 C4592 1.383 . S
C4598 C4597 1.379 . S
H4599 C4593 0.959 . S
H4600 C4593 0.961 . S
H4601 C4593 0.960 . S
H4602 C4594 0.930 . S
H4603 C4595 0.929 . S
H4604 C4612 0.929 . S
H4605 C4614 0.930 . S
H4606 C4616 0.930 . S
H4607 C4619 0.929 . S
H4608 C4622 0.930 . S
H4609 C4624 0.960 . S
H4610 C4624 0.960 . S
H4611 C4624 0.960 . S
C4612 H4604 0.929 . S
C4612 C4613 1.377 . S
C4612 C4614 1.384 . S
C4613 C4612 1.377 . S
C4613 C4619 1.390 . S
C4614 H4605 0.930 . S
C4614 C4612 1.384 . S
C4614 C4615 1.372 . S
C4615 C4614 1.372 . S
C4615 C4616 1.400 . S
C4615 C4620 1.490 . S
C4616 H4606 0.930 . S
C4616 C4615 1.400 . S
C4616 C4619 1.386 . S
H4617 C4633 0.930 . S
H4618 C4634 0.931 . S
C4619 H4607 0.929 . S
C4619 C4613 1.390 . S
C4619 C4616 1.386 . S
C4620 C4615 1.490 . S
C4620 C4622 1.395 . S
C4620 C4623 1.403 . S
H4621 C4627 0.930 . S
C4622 H4608 0.930 . S
C4622 C4620 1.395 . S
C4622 C4625 1.403 . S
C4623 C4620 1.403 . S
C4623 C4624 1.524 . S
C4623 C4627 1.400 . S
C4624 H4609 0.960 . S
C4624 H4610 0.960 . S
C4624 H4611 0.960 . S
C4624 C4623 1.524 . S
C4625 C4622 1.403 . S
C4625 C4626 1.392 . S
C4625 C4629 1.495 . S
C4626 C4625 1.392 . S
C4626 C4627 1.385 . S
C4626 C4628 1.478 . S
C4627 H4621 0.930 . S
C4627 C4623 1.400 . S
C4627 C4626 1.385 . S
C4628 C4626 1.478 . S
C4628 C4630 1.381 . S
C4628 C4634 1.383 . S
C4629 C4625 1.495 . S
C4629 H4635 0.959 . S
C4629 H4636 0.961 . S
C4629 H4637 0.960 . S
C4630 C4628 1.381 . S
C4630 C4631 1.394 . S
C4630 H4638 0.930 . S
C4631 C4630 1.394 . S
C4631 C4632 1.383 . S
C4631 H4639 0.929 . S
C4632 C4631 1.383 . S
C4632 C4633 1.377 . S
C4633 H4617 0.930 . S
C4633 C4632 1.377 . S
C4633 C4634 1.379 . S
C4634 H4618 0.931 . S
C4634 C4628 1.383 . S
C4634 C4633 1.379 . S
H4635 C4629 0.959 . S
H4636 C4629 0.961 . S
H4637 C4629 0.960 . S
H4638 C4630 0.930 . S
H4639 C4631 0.929 . S
C1193 C255 1.280 . S
C1212 C868 1.191 1_556 S
C1229 C147 1.421 . S
C1248 C903 1.403 . S
C1265 C184 0.932 . S
C1284 C908 0.938 . S
C1320 C933 1.348 . S
C1301 C220 1.451 . S
C1337 C40 1.402 . S
C1356 C953 1.287 . S
C1392 C968 1.004 . S
C1373 C74 1.005 . S
C1428 C1003 1.405 . S
C1409 C110 1.467 . S
C1445 C14 1.221 . S
C1464 C1008 1.122 . S
C1500 C883 1.478 . S
C1481 C579 1.517 . S
C1517 C616 0.946 . S
C1536 C893 0.939 . S
C1572 C923 1.435 . S
C1553 C687 1.491 . S
C1608 C928 1.112 . S
C1589 C436 1.140 . S
C1625 C580 1.116 . S
C1644 C948 1.023 . S
C1680 C983 1.428 . S
C1661 C615 1.471 . S
C1716 C993 0.886 . S
C1697 C688 0.948 . S
C1752 C1023 1.411 . S
C1733 C435 1.487 . S
C1788 C873 1.265 . S
C1769 C410 1.341 . S
C1805 C722 1.793 . S
C1824 C1043 1.740 . S
C1860 C1053 1.420 . S
C1841 C842 1.523 . S
C1896 C1068 0.891 . S
C1877 C794 0.996 . S
C1913 C302 1.367 . S
C1932 C1013 1.303 . S
C1949 C338 1.492 . S
C1968 C913 1.458 . S
C1985 C830 1.826 . S
C2004 C1103 1.794 . S
C2040 C1108 0.970 . S
C2021 C758 1.031 . S
C2076 C866 1.089 . S
C2057 C158 1.198 . S
C2112 C1122 1.391 . S
C2093 C254 1.404 . S
C2129 C218 0.925 . S
C2148 C906 0.856 . S
C2165 C194 1.371 . S
C2184 C1096 1.366 . S
C2220 C956 1.302 . S
C2201 C3 1.382 . S
C2237 C111 0.867 . S
C2256 C1046 0.860 . S
C2292 C1002 1.400 . S
C2273 C76 1.410 . S
C2328 C1126 1.127 . S
C2309 C50 1.242 . S
C2364 C882 1.418 . S
C2345 C364 1.461 . S
C2400 C1116 0.926 . S
C2381 C795 0.903 . S
C2417 C292 1.415 . S
C2436 C922 1.366 . S
C2453 C723 1.084 . S
C2472 C1086 0.979 . S
C2489 C363 1.086 . S
C2508 C946 1.041 . S
C2544 C1062 1.384 . S
C2525 C796 1.439 . S
C2561 C291 0.916 . S
C2580 C996 0.889 . S
C2597 C724 1.482 . S
C2616 C1142 1.434 . S
C2633 C482 1.281 . S
C2652 C876 1.225 1_556 S
C2669 C434 1.759 . S
C2688 C1042 1.740 . S
C2705 C662 1.437 . S
C2724 C976 1.388 . S
C2741 C614 0.975 . S
C2760 C1066 0.924 . S
C2796 C1136 1.235 . S
C2777 C698 1.320 . S
C2813 C554 1.425 . S
C2832 C916 1.380 . S
C2868 C942 1.742 . S
C2849 C650 1.753 . S
C2904 C886 0.977 . S
C2885 C506 0.985 . S
C2921 C183 1.279 . S
C2940 C1148 1.203 . S
C2976 C1123 1.379 . S
C2957 C219 1.420 . S
C2993 C256 0.932 . S
C3012 C1168 0.821 . S
C3029 C148 1.446 . S
C3048 C1093 1.382 . S
C3065 C122 1.434 . S
C3084 C1033 1.403 . S
C3120 C1048 0.821 . S
C3101 C2 0.940 . S
C3156 C1083 1.308 . S
C3137 C39 1.347 . S
C3192 C1128 1.219 . S
C3173 C86 1.293 . S
C3228 C1163 1.484 . S
C3209 C651 1.530 . S
C3245 C472 0.941 . S
C3264 C1113 0.958 . S
C3300 C1183 1.430 . S
C3281 C507 1.478 . S
C3336 C1088 1.104 . S
C3317 C544 1.145 . S
C3372 C1028 1.055 . S
C3353 C652 1.114 . S
C3389 C471 1.450 . S
C3408 C1063 1.395 . S
C3444 C1073 0.850 . S
C3425 C508 0.939 . S
C3461 C543 1.508 . S
C3480 C1143 1.444 . S
C3516 C1153 1.337 . S
C3497 C806 1.366 . S
C3533 C326 1.770 . S
C3552 C963 1.726 . S
C3588 C973 1.459 . S
C3569 C374 1.506 . S
C3624 C988 1.007 . S
C3605 C398 1.012 . S
C3660 C1133 1.266 . S
C3641 C770 1.356 . S
C3677 C734 1.481 1_554 S
C3696 C1173 1.448 . S
C3732 C943 1.799 . S
C3713 C362 1.815 . S
C3768 C888 0.978 . S
C3749 C290 1.047 . S
C3785 C230 1.197 . S
C3804 C1146 1.097 . S
C3840 C902 1.353 . S
C3821 C182 1.411 . S
C3857 C146 0.930 . S
C3876 C1166 0.887 . S
C3893 C266 1.361 . S
C3912 C936 1.297 . S
C3929 C75 1.445 . S
C3948 C1036 1.375 . S
C3984 C966 0.858 . S
C3965 C38 0.981 . S
C4001 C4 1.325 . S
C4020 C1082 1.316 . S
C4037 C112 1.239 . S
C4056 C1006 1.106 . S
C4092 C1162 1.426 . S
C4073 C832 1.466 . S
C4109 C399 0.917 . S
C4128 C896 0.837 . S
C4164 C1182 1.386 1_655 S
C4145 C760 1.409 . S
C4181 C327 1.079 . S
C4200 C926 0.998 . S
C4217 C831 1.115 . S
C4236 C1026 0.972 . S
C4272 C982 1.407 . S
C4253 C400 1.442 . S
C4289 C759 0.923 . S
C4308 C1076 0.898 . S
C4344 C1022 1.427 . S
C4325 C328 1.488 . S
C4380 C1156 1.294 . S
C4361 C626 1.304 . S
C4416 C962 1.747 . S
C4397 C542 1.760 . S
C4433 C590 1.419 . S
C4452 C1056 1.428 . S
C4488 C986 0.890 . S
C4469 C470 0.979 . S
C4505 C518 1.293 . S
C4524 C1016 1.223 . S
C4541 C446 1.426 . S
C4560 C1176 1.429 . S
C4596 C1102 1.721 . S
C4577 C578 1.763 . S
C4632 C1106 0.864 . S
C4613 C686 0.957 . S
