# Generated by pormake.
# Topology rtl, (3,6)-cn, num edge types: 1
# Building blocks:
#     Node 0, Type 0, BuildingBlock: WUSLED_clean_sbu_0, # of connection points: 3
#     Node 1, Type 0, BuildingBlock: WUSLED_clean_sbu_0, # of connection points: 3
#     Node 2, Type 0, BuildingBlock: WUSLED_clean_sbu_0, # of connection points: 3
#     Node 3, Type 0, BuildingBlock: WUSLED_clean_sbu_0, # of connection points: 3
#     Node 4, Type 1, BuildingBlock: KUMBOL_clean_sbu_1, # of connection points: 6
#     Node 5, Type 1, BuildingBlock: KUMBOL_clean_sbu_1, # of connection points: 6
#     Edge 6, Type (0, 1), BuildingBlock: MIFKUJ_clean_linker_0, # of connection points: 2
#     Edge 7, Type (0, 1), BuildingBlock: MIFKUJ_clean_linker_0, # of connection points: 2
#     Edge 8, Type (0, 1), BuildingBlock: MIFKUJ_clean_linker_0, # of connection points: 2
#     Edge 9, Type (0, 1), BuildingBlock: MIFKUJ_clean_linker_0, # of connection points: 2
#     Edge 10, Type (0, 1), BuildingBlock: MIFKUJ_clean_linker_0, # of connection points: 2
#     Edge 11, Type (0, 1), BuildingBlock: MIFKUJ_clean_linker_0, # of connection points: 2
#     Edge 12, Type (0, 1), BuildingBlock: MIFKUJ_clean_linker_0, # of connection points: 2
#     Edge 13, Type (0, 1), BuildingBlock: MIFKUJ_clean_linker_0, # of connection points: 2
#     Edge 14, Type (0, 1), BuildingBlock: MIFKUJ_clean_linker_0, # of connection points: 2
#     Edge 15, Type (0, 1), BuildingBlock: MIFKUJ_clean_linker_0, # of connection points: 2
#     Edge 16, Type (0, 1), BuildingBlock: MIFKUJ_clean_linker_0, # of connection points: 2
#     Edge 17, Type (0, 1), BuildingBlock: MIFKUJ_clean_linker_0, # of connection points: 2
# Relax obj value: 0.016
# Max RMSD: 0.092
# Mean RMSD: 0.053
data_MOF--net-rtl--node1-WUSLED_clean_sbu_0--node2-KUMBOL_clean_sbu_1--edge1-MIFKUJ_clean_linker_0
_symmetry_space_group_name_H-M    P1
_symmetry_Int_Tables_number       1
_symmetry_cell_setting            triclinic
loop_
_symmetry_equiv_pos_as_xyz
'x, y, z'
_cell_length_a     52.023031
_cell_length_b     52.366931
_cell_length_c     44.192429
_cell_angle_alpha  82.931404
_cell_angle_beta   99.401579
_cell_angle_gamma 90.320268
loop_
_atom_site_label
_atom_site_type_symbol
_atom_site_fract_x
_atom_site_fract_y
_atom_site_fract_z
_atom_type_partial_charge
C0 C 0.19349 0.84 0.10443 0.0
C1 C 0.16776 0.8496 0.09762 0.0
C2 C 0.17035 0.86007 0.15032 0.0
C3 C 0.15626 0.85943 0.12039 0.0
C4 C 0.19629 0.85089 0.15681 0.0
C5 C 0.2077 0.8409 0.1341 0.0
U6 U 0.20045 0.83515 0.02051 0.0
O7 O 0.23537 0.8305 0.99943 0.0
O8 O 0.20501 0.8012 0.99688 0.0
C9 C 0.22813 0.80807 0.99074 0.0
C10 C 0.20568 0.82874 0.08111 0.0
C11 C 0.2483 0.78765 0.99653 0.0
C12 C 0.28158 0.76049 0.03049 0.0
C13 C 0.26204 0.7796 0.02622 0.0
C14 C 0.27352 0.75725 0.97555 0.0
C15 C 0.2877 0.74924 1.00511 0.0
C16 C 0.25408 0.77624 0.97136 0.0
C17 C 0.15825 0.87848 0.95544 0.0
C18 C 0.15697 0.87394 0.90111 0.0
C19 C 0.13473 0.90992 0.91568 0.0
C20 C 0.14297 0.90095 0.9469 0.0
C21 C 0.1416 0.89652 0.89238 0.0
C22 C 0.16529 0.86504 0.93237 0.0
C23 C 0.16671 0.86941 0.98842 0.0
O24 O 0.19051 0.8145 0.06335 0.0
O25 O 0.22035 0.8443 0.06582 0.0
O26 O 0.19074 0.87504 0.99974 0.0
O27 O 0.1605 0.84567 0.99756 0.0
H28 H 0.15649 0.84934 0.07476 0.0
H29 H 0.13638 0.86664 0.11452 0.0
H30 H 0.2076 0.85087 0.17968 0.0
H31 H 0.22758 0.83363 0.13981 0.0
H32 H 0.2922 0.75488 0.05353 0.0
H33 H 0.2578 0.78821 0.04596 0.0
H34 H 0.27729 0.7487 0.95559 0.0
H35 H 0.24358 0.78211 0.94829 0.0
H36 H 0.16286 0.86334 0.88377 0.0
H37 H 0.12266 0.92717 0.90981 0.0
H38 H 0.13734 0.91156 0.9644 0.0
H39 H 0.17722 0.8477 0.93856 0.0
C40 C 0.6834 0.6861 0.68563 0.0
C41 C 0.66025 0.67296 0.67712 0.0
C42 C 0.65707 0.66028 0.73146 0.0
C43 C 0.64715 0.66024 0.69982 0.0
C44 C 0.6803 0.6735 0.73974 0.0
C45 C 0.69329 0.68627 0.71706 0.0
U46 U 0.69615 0.69959 0.60234 0.0
O47 O 0.70499 0.7356 0.57506 0.0
O48 O 0.73319 0.70337 0.58406 0.0
C49 C 0.72804 0.72729 0.57168 0.0
C50 C 0.69766 0.69936 0.66214 0.0
C51 C 0.74974 0.74561 0.5746 0.0
C52 C 0.77021 0.78413 0.59269 0.0
C53 C 0.75081 0.76541 0.59352 0.0
C54 C 0.78799 0.76301 0.55475 0.0
C55 C 0.7887 0.78342 0.57277 0.0
C56 C 0.76874 0.74436 0.55568 0.0
C57 C 0.65593 0.66568 0.5389 0.0
C58 C 0.66891 0.65473 0.49151 0.0
C59 C 0.62315 0.65826 0.49504 0.0
C60 C 0.62975 0.66446 0.52521 0.0
C61 C 0.64263 0.65293 0.47791 0.0
C62 C 0.67549 0.66113 0.52162 0.0
C63 C 0.66233 0.67108 0.5713 0.0
O64 O 0.71266 0.68452 0.65028 0.0
O65 O 0.68411 0.71632 0.64126 0.0
O66 O 0.65687 0.69451 0.57637 0.0
O67 O 0.68498 0.66228 0.58663 0.0
H68 H 0.65238 0.67245 0.65294 0.0
H69 H 0.62949 0.65003 0.69259 0.0
H70 H 0.68833 0.67425 0.76382 0.0
H71 H 0.71113 0.6963 0.72409 0.0
H72 H 0.77017 0.79965 0.60678 0.0
H73 H 0.73631 0.76681 0.60828 0.0
H74 H 0.80217 0.7616 0.53959 0.0
H75 H 0.76828 0.72927 0.54088 0.0
H76 H 0.68446 0.6505 0.47924 0.0
H77 H 0.60272 0.65758 0.48519 0.0
H78 H 0.61434 0.66808 0.53801 0.0
H79 H 0.69589 0.6621 0.53154 0.0
C80 C 0.83043 0.16616 0.12301 0.0
C81 C 0.84874 0.14688 0.12183 0.0
C82 C 0.85616 0.13802 0.17813 0.0
C83 C 0.86154 0.13292 0.14921 0.0
C84 C 0.83773 0.15739 0.17897 0.0
C85 C 0.82501 0.17128 0.15169 0.0
U86 U 0.81608 0.18453 0.03487 0.0
O87 O 0.77864 0.19529 1.00508 0.0
O88 O 0.81024 0.2232 1.00861 0.0
C89 C 0.78551 0.21928 0.99854 0.0
C90 C 0.817 0.18147 0.09482 0.0
C91 C 0.76725 0.23895 1.00401 0.0
C92 C 0.74225 0.25757 0.03805 0.0
C93 C 0.75965 0.23881 0.03309 0.0
C94 C 0.74007 0.277 0.98502 0.0
C95 C 0.73224 0.27692 0.01407 0.0
C96 C 0.75739 0.25817 0.98006 0.0
C97 C 0.8515 0.14786 0.98226 0.0
C98 C 0.86599 0.1613 0.93312 0.0
C99 C 0.86011 0.11606 0.94924 0.0
C100 C 0.85233 0.12219 0.97634 0.0
C101 C 0.8674 0.1355 0.92749 0.0
C102 C 0.85804 0.16744 0.9602 0.0
C103 C 0.84539 0.15333 0.01238 0.0
O104 O 0.83174 0.19714 0.07983 0.0
O105 O 0.80027 0.16905 0.07653 0.0
O106 O 0.82186 0.14744 0.01791 0.0
O107 O 0.85362 0.17526 0.02183 0.0
H108 H 0.85315 0.1427 0.0998 0.0
H109 H 0.87547 0.11802 0.14772 0.0
H110 H 0.83344 0.16219 0.20079 0.0
H111 H 0.81103 0.1862 0.153 0.0
H112 H 0.7369 0.25712 0.06078 0.0
H113 H 0.76722 0.2242 0.05195 0.0
H114 H 0.73252 0.29142 0.96595 0.0
H115 H 0.76304 0.25858 0.95747 0.0
H116 H 0.87116 0.17675 0.91666 0.0
H117 H 0.86125 0.09599 0.94583 0.0
H118 H 0.84752 0.10676 0.99309 0.0
H119 H 0.85747 0.18744 0.96408 0.0
C120 C 0.34648 0.33909 0.36439 0.0
C121 C 0.37065 0.35096 0.37126 0.0
C122 C 0.37213 0.36182 0.31618 0.0
C123 C 0.38338 0.36214 0.34739 0.0
C124 C 0.34781 0.35005 0.30952 0.0
C125 C 0.33517 0.33879 0.33338 0.0
U126 U 0.3346 0.32902 0.44855 0.0
O127 O 0.29773 0.32481 0.46711 0.0
O128 O 0.32703 0.29356 0.47778 0.0
C129 C 0.30358 0.30127 0.48048 0.0
C130 C 0.33285 0.32685 0.38909 0.0
C131 C 0.28247 0.28224 0.47781 0.0
C132 C 0.26447 0.24167 0.46298 0.0
C133 C 0.28356 0.26068 0.46197 0.0
C134 C 0.24267 0.26589 0.49486 0.0
C135 C 0.24406 0.24383 0.47996 0.0
C136 C 0.26166 0.28482 0.49381 0.0
C137 C 0.37376 0.36613 0.50939 0.0
C138 C 0.37422 0.35549 0.56465 0.0
C139 C 0.3919 0.39593 0.54507 0.0
C140 C 0.38571 0.38954 0.51492 0.0
C141 C 0.38632 0.37894 0.57034 0.0
C142 C 0.3679 0.34919 0.53444 0.0
C143 C 0.36746 0.35977 0.47744 0.0
O144 O 0.34693 0.31094 0.41076 0.0
O145 O 0.31768 0.34212 0.40009 0.0
O146 O 0.34427 0.36733 0.46258 0.0
O147 O 0.37367 0.3363 0.47327 0.0
H148 H 0.37965 0.35155 0.39506 0.0
H149 H 0.40191 0.37133 0.35339 0.0
H150 H 0.3387 0.34918 0.28583 0.0
H151 H 0.31654 0.3297 0.3276 0.0
H152 H 0.2662 0.22487 0.45136 0.0
H153 H 0.29946 0.25819 0.44949 0.0
H154 H 0.227 0.26844 0.50766 0.0
H155 H 0.26041 0.30126 0.50621 0.0
H156 H 0.36935 0.34212 0.58352 0.0
H157 H 0.40145 0.414 0.54865 0.0
H158 H 0.39036 0.40288 0.49588 0.0
H159 H 0.35844 0.33111 0.53064 0.0
C160 C 0.97689 0.09095 0.51543 0.0
C161 C 0.93058 0.08556 0.49828 0.0
C162 C 0.95514 0.07537 0.51291 0.0
C163 C 0.92831 0.11149 0.48551 0.0
C164 C 0.97447 0.11722 0.50341 0.0
C165 C 0.95018 0.12729 0.48816 0.0
N166 N 0.9999 0.08095 0.53157 0.0
C167 C 0.02051 0.09668 0.53848 0.0
C168 C 0.99623 0.1329 0.50829 0.0
C169 C 0.01927 0.12264 0.52624 0.0
Gd170 Gd 0.03372 0.98931 0.50378 0.0
Gd171 Gd 0.99945 0.03713 0.55132 0.0
N172 N 0.95783 0.0504 0.52578 0.0
C173 C 0.90888 0.06955 0.4978 0.0
C174 C 0.93657 0.0351 0.52696 0.0
C175 C 0.91186 0.0443 0.5125 0.0
H176 H 0.93879 0.01576 0.53887 0.0
H177 H 0.89511 0.03198 0.51291 0.0
H178 H 0.08965 0.01949 0.49184 0.0
H179 H 0.03766 0.08961 0.55431 0.0
H180 H 0.13657 0.01432 0.51126 0.0
H181 H 0.88969 0.07668 0.48678 0.0
H182 H 0.90959 0.11968 0.47426 0.0
H183 H 1.00655 0.93427 0.52823 0.0
H184 H 0.99512 0.15316 0.4994 0.0
H185 H 0.03585 0.13487 0.53136 0.0
H186 H 0.14428 0.93282 0.57478 0.0
H187 H 0.948 0.14748 0.47918 0.0
H188 H 0.06654 0.88464 0.58229 0.0
H189 H 0.02009 0.89301 0.56029 0.0
N190 N 0.04472 0.94956 0.53367 0.0
C191 C 0.07045 0.94505 0.54463 0.0
C192 C 0.02677 0.93095 0.53825 0.0
C193 C 0.06066 0.90286 0.56851 0.0
C194 C 0.03441 0.90749 0.5561 0.0
C195 C 0.07909 0.92162 0.56259 0.0
H196 H 0.11275 0.89959 0.58741 0.0
N197 N 0.07921 0.98592 0.51928 0.0
C198 C 0.08814 0.96392 0.5376 0.0
C199 C 0.13251 0.97837 0.53934 0.0
C200 C 0.11503 0.95962 0.54823 0.0
C201 C 0.09636 1.00338 0.50885 0.0
C202 C 0.12314 1.00019 0.51924 0.0
O203 O 0.98158 0.03205 0.50182 0.0
O204 O 0.01787 0.02775 0.4801 0.0
O205 O 0.05306 0.97787 0.46728 0.0
O206 O 0.01193 0.97132 0.46603 0.0
O207 O 0.98643 0.99573 0.55465 0.0
O208 O 0.99145 0.98168 0.50814 0.0
O209 O 0.03438 0.98019 0.5555 0.0
O210 O 0.03885 0.01971 0.57227 0.0
O211 O 0.98468 0.02257 0.59338 0.0
O212 O 0.99347 0.06277 0.58474 0.0
O213 O 0.04723 0.03087 0.50045 0.0
O214 O 0.04176 0.04569 0.54641 0.0
C215 C 0.9935 0.03491 0.47763 0.0
C216 C 0.98009 0.98066 0.53286 0.0
C217 C 0.0355 0.94238 0.44299 0.0
C218 C 0.0502 0.91676 0.40611 0.0
C219 C 0.02869 0.89627 0.44756 0.0
C220 C 0.02594 0.92002 0.45803 0.0
C221 C 0.04066 0.8946 0.42178 0.0
C222 C 0.04772 0.94063 0.41712 0.0
C223 C 0.03228 0.96778 0.45325 0.0
C224 C 0.12369 0.93647 0.56656 0.0
C225 C 0.10577 0.91753 0.57371 0.0
H226 H 0.1533 0.97579 0.54705 0.0
C227 C 0.04405 0.99493 0.57639 0.0
C228 C 0.05341 0.04641 0.52187 0.0
C229 C 0.99772 0.04468 0.6367 0.0
C230 C 0.99418 0.05379 0.68879 0.0
C231 C 0.03517 0.03819 0.67757 0.0
C232 C 0.02392 0.03762 0.64675 0.0
C233 C 0.02047 0.04631 0.69849 0.0
C234 C 0.98284 0.05264 0.65778 0.0
C235 C 0.98598 0.04468 0.60409 0.0
H236 H 0.02138 0.8791 0.45937 0.0
H237 H 0.01613 0.92088 0.47763 0.0
H238 H 0.04261 0.8759 0.41422 0.0
H239 H 0.05472 0.95795 0.40517 0.0
H240 H 0.0554 0.03255 0.68521 0.0
H241 H 0.03559 0.03197 0.63059 0.0
H242 H 0.02962 0.04665 0.72229 0.0
H243 H 0.96268 0.05856 0.64985 0.0
C244 C 0.58436 0.5638 0.02288 0.0
C245 C 0.56674 0.60654 1.00328 0.0
C246 C 0.5639 0.58161 0.01849 0.0
C247 C 0.58975 0.61287 0.99145 0.0
C248 C 0.60767 0.57025 1.01153 0.0
C249 C 0.61015 0.59479 0.99558 0.0
N250 N 0.58109 0.53982 0.03736 0.0
C251 C 0.60056 0.52169 0.04225 0.0
C252 C 0.62764 0.55166 0.01612 0.0
C253 C 0.6241 0.52732 0.03165 0.0
Gd254 Gd 0.4891 0.49682 0.99578 0.0
Gd255 Gd 0.54111 0.53221 0.0544 0.0
N256 N 0.54164 0.57486 0.02989 0.0
C257 C 0.54666 0.62464 1.00116 0.0
C258 C 0.5234 0.59332 0.03072 0.0
C259 C 0.52517 0.61815 0.01555 0.0
H260 H 0.50787 0.58947 0.04394 0.0
H261 H 0.51024 0.63246 0.01561 0.0
H262 H 0.51531 0.43855 0.02802 0.0
H263 H 0.59792 0.50294 0.05443 0.0
H264 H 0.50205 0.39951 0.05788 0.0
H265 H 0.5481 0.64399 0.98969 0.0
H266 H 0.59213 0.63185 0.97948 0.0
H267 H 0.43574 0.53438 0.97573 0.0
H268 H 0.64582 0.55588 1.00771 0.0
H269 H 0.63946 0.51287 0.0354 0.0
H270 H 0.41194 0.41474 0.0619 0.0
H271 H 0.62783 0.60002 0.98646 0.0
H272 H 0.3731 0.49515 0.01263 0.0
H273 H 0.38996 0.53357 0.98431 0.0
N274 N 0.4449 0.4972 1.00026 0.0
C275 C 0.43602 0.47574 0.01572 0.0
C276 C 0.42868 0.51768 0.98863 0.0
C277 C 0.39325 0.49542 1.00916 0.0
C278 C 0.40269 0.51718 0.99312 0.0
C279 C 0.40993 0.47433 0.02066 0.0
H280 H 0.38146 0.45081 0.04142 0.0
N281 N 0.47875 0.45782 0.02356 0.0
C282 C 0.45337 0.45545 0.02762 0.0
C283 C 0.4627 0.41303 0.05559 0.0
C284 C 0.44482 0.43315 0.04422 0.0
C285 C 0.49589 0.43772 0.03331 0.0
C286 C 0.48825 0.41523 0.04981 0.0
O287 O 0.54848 0.5284 1.00574 0.0
O288 O 0.50791 0.53285 0.97659 0.0
O289 O 0.49962 0.47477 0.96099 0.0
O290 O 0.46268 0.49507 0.95239 0.0
O291 O 0.49829 0.54444 0.04663 0.0
O292 O 0.4839 0.53952 0.99551 0.0
O293 O 0.48218 0.49648 0.04533 0.0
O294 O 0.52244 0.49687 0.07608 0.0
O295 O 0.53842 0.55301 0.09362 0.0
O296 O 0.57336 0.53166 0.09239 0.0
O297 O 0.5305 0.48078 1.00715 0.0
O298 O 0.54931 0.48977 0.05609 0.0
C299 C 0.53319 0.53588 0.97947 0.0
C300 C 0.48188 0.55006 0.02054 0.0
C301 C 0.46485 0.45657 0.92986 0.0
C302 C 0.45066 0.43244 0.88615 0.0
C303 C 0.44545 0.41456 0.93824 0.0
C304 C 0.45663 0.43637 0.94977 0.0
C305 C 0.4425 0.41254 0.90671 0.0
C306 C 0.46169 0.45463 0.89793 0.0
C307 C 0.47752 0.4792 0.94237 0.0
C308 C 0.4188 0.43166 0.04904 0.0
C309 C 0.40142 0.4522 0.03733 0.0
H310 H 0.4569 0.3956 0.06848 0.0
C311 C 0.49762 0.49097 0.07202 0.0
C312 C 0.5482 0.47653 0.03238 0.0
C313 C 0.56237 0.53469 0.14128 0.0
C314 C 0.57079 0.54078 0.1959 0.0
C315 C 0.55924 0.4986 0.18047 0.0
C316 C 0.55737 0.50862 0.14946 0.0
C317 C 0.56611 0.51449 0.20355 0.0
C318 C 0.5691 0.55077 0.16455 0.0
C319 C 0.56115 0.54503 0.10859 0.0
H320 H 0.43913 0.39911 0.95384 0.0
H321 H 0.459 0.43728 0.97425 0.0
H322 H 0.43358 0.39545 0.89835 0.0
H323 H 0.46828 0.47006 0.88247 0.0
H324 H 0.55558 0.47841 0.18666 0.0
H325 H 0.55244 0.49596 0.13187 0.0
H326 H 0.56818 0.50613 0.22748 0.0
H327 H 0.57282 0.57096 0.15827 0.0
H328 H 0.22506 0.22451 0.53215 0.0
H329 H 0.19321 0.19061 0.53789 0.0
H330 H 0.18795 0.18103 0.44155 0.0
H331 H 0.21953 0.21551 0.43543 0.0
H332 H 0.13974 0.1816 0.45917 0.0
H333 H 0.22157 0.13772 0.49622 0.0
H334 H 0.26515 0.13065 0.52789 0.0
H335 H 0.23117 0.12497 0.61068 0.0
H336 H 0.1874 0.13237 0.57949 0.0
H337 H 0.06972 0.06521 0.46786 0.0
H338 H 0.10264 0.09768 0.4601 0.0
H339 H 0.11512 0.10528 0.55751 0.0
H340 H 0.08301 0.07182 0.56565 0.0
H341 H 0.16011 0.10534 0.53798 0.0
H342 H 0.07867 0.15067 0.50182 0.0
H343 H 0.03491 0.15821 0.47072 0.0
H344 H 0.0676 0.16146 0.38726 0.0
H345 H 0.11159 0.15384 0.41783 0.0
C346 C 0.21699 0.21538 0.51206 0.0
C347 C 0.22482 0.22283 0.48327 0.0
C348 C 0.19894 0.1958 0.51547 0.0
C349 C 0.18834 0.18306 0.49024 0.0
C350 C 0.19592 0.19053 0.46138 0.0
C351 C 0.21411 0.21011 0.45796 0.0
C352 C 0.16922 0.16211 0.49411 0.0
C353 C 0.14431 0.16473 0.47607 0.0
C354 C 0.17494 0.14038 0.5167 0.0
C355 C 0.20123 0.13583 0.53551 0.0
C356 C 0.22341 0.13517 0.52118 0.0
C357 C 0.24814 0.13106 0.53905 0.0
C358 C 0.25093 0.12743 0.57128 0.0
C359 C 0.22898 0.12782 0.58571 0.0
C360 C 0.2042 0.13194 0.56795 0.0
C361 C 0.07958 0.07366 0.4877 0.0
C362 C 0.07356 0.06607 0.51736 0.0
C363 C 0.09826 0.09243 0.48317 0.0
C364 C 0.11107 0.10437 0.5081 0.0
C365 C 0.10541 0.09651 0.53784 0.0
C366 C 0.0869 0.07751 0.54244 0.0
C367 C 0.1305 0.12488 0.50319 0.0
C368 C 0.1555 0.12218 0.52103 0.0
C369 C 0.12481 0.1466 0.48054 0.0
C370 C 0.0984 0.15145 0.46212 0.0
C371 C 0.07652 0.15284 0.47684 0.0
C372 C 0.05167 0.15714 0.45931 0.0
C373 C 0.04846 0.16017 0.42706 0.0
C374 C 0.07011 0.15906 0.41225 0.0
C375 C 0.09502 0.15482 0.42965 0.0
H376 H 0.02919 0.16346 0.41355 0.0
H377 H 0.27009 0.12425 0.58507 0.0
H378 H 0.29907 0.70863 0.05119 0.0
H379 H 0.33217 0.67468 0.05542 0.0
H380 H 0.35685 0.71071 0.97202 0.0
H381 H 0.32408 0.74468 0.96778 0.0
H382 H 0.35013 0.66031 0.96999 0.0
H383 H 0.39357 0.71355 0.04337 0.0
H384 H 0.39832 0.73691 0.08909 0.0
H385 H 0.39047 0.66621 0.14711 0.0
H386 H 0.38532 0.64247 0.10165 0.0
H387 H 0.46509 0.58762 0.97335 0.0
H388 H 0.43233 0.62123 0.97182 0.0
H389 H 0.41828 0.58911 0.06237 0.0
H390 H 0.45247 0.55661 0.06467 0.0
H391 H 0.4183 0.63688 0.06147 0.0
H392 H 0.37344 0.58354 0.9877 0.0
H393 H 0.36693 0.56074 0.94131 0.0
H394 H 0.37705 0.63129 0.88425 0.0
H395 H 0.38331 0.65457 0.93009 0.0
C396 C 0.3118 0.70952 0.03401 0.0
C397 C 0.30876 0.72932 1.00902 0.0
C398 C 0.3307 0.69007 0.03642 0.0
C399 C 0.34707 0.69013 0.01405 0.0
C400 C 0.34436 0.71012 0.98944 0.0
C401 C 0.32552 0.7295 0.98701 0.0
C402 C 0.36644 0.669 0.01548 0.0
C403 C 0.36521 0.65533 0.98989 0.0
C404 C 0.3857 0.66202 0.04172 0.0
C405 C 0.38877 0.67628 0.06905 0.0
C406 C 0.39263 0.70302 0.06583 0.0
C407 C 0.39544 0.71632 0.09171 0.0
C408 C 0.39462 0.70306 0.12097 0.0
C409 C 0.39106 0.67646 0.12443 0.0
C410 C 0.38821 0.66307 0.09862 0.0
C411 C 0.45485 0.58773 0.9928 0.0
C412 C 0.46117 0.56956 0.01908 0.0
C413 C 0.43593 0.60682 0.99185 0.0
C414 C 0.42217 0.60752 0.01667 0.0
C415 C 0.42846 0.58911 0.04286 0.0
C416 C 0.44796 0.5705 0.04418 0.0
C417 C 0.40205 0.62798 0.01592 0.0
C418 C 0.40313 0.6416 0.04163 0.0
C419 C 0.38252 0.63485 0.98981 0.0
C420 C 0.37906 0.62074 0.96235 0.0
C421 C 0.37443 0.59414 0.96527 0.0
C422 C 0.37075 0.58115 0.9391 0.0
C423 C 0.37179 0.59451 0.90996 0.0
C424 C 0.37631 0.62095 0.90685 0.0
C425 C 0.37981 0.63407 0.93288 0.0
H426 H 0.36897 0.58439 0.88976 0.0
H427 H 0.39682 0.71339 0.14098 0.0
H428 H 0.81831 0.80686 0.6187 0.0
H429 H 0.85077 0.84047 0.61292 0.0
H430 H 0.83496 0.84094 0.51392 0.0
H431 H 0.80284 0.8073 0.51959 0.0
H432 H 0.88544 0.84158 0.53239 0.0
H433 H 0.81192 0.88905 0.5514 0.0
H434 H 0.77729 0.89928 0.58021 0.0
H435 H 0.83486 0.91082 0.65859 0.0
H436 H 0.86983 0.90032 0.63037 0.0
H437 H 0.95028 0.95618 0.48852 0.0
H438 H 0.91746 0.92339 0.49579 0.0
H439 H 0.93253 0.92693 0.59416 0.0
H440 H 0.96447 0.96054 0.58681 0.0
H441 H 0.88305 0.9237 0.57711 0.0
H442 H 0.95689 0.87676 0.55715 0.0
H443 H 0.99108 0.86708 0.52735 0.0
H444 H 0.93268 0.85501 0.45008 0.0
H445 H 0.89812 0.86478 0.47925 0.0
C446 C 0.82164 0.81428 0.59571 0.0
C447 C 0.80806 0.80429 0.56963 0.0
C448 C 0.84019 0.83351 0.59241 0.0
C449 C 0.84525 0.84344 0.56293 0.0
C450 C 0.83158 0.83355 0.53692 0.0
C451 C 0.81323 0.81425 0.54021 0.0
C452 C 0.86494 0.86388 0.55897 0.0
C453 C 0.88474 0.85965 0.54192 0.0
C454 C 0.86448 0.88728 0.57192 0.0
C455 C 0.84347 0.89363 0.58888 0.0
C456 C 0.81718 0.89357 0.57486 0.0
C457 C 0.7975 0.89945 0.59107 0.0
C458 C 0.80387 0.90563 0.62125 0.0
C459 C 0.82995 0.90599 0.63524 0.0
C460 C 0.84971 0.9001 0.61914 0.0
C461 C 0.94657 0.94997 0.51169 0.0
C462 C 0.96002 0.96092 0.53708 0.0
C463 C 0.92789 0.93109 0.51587 0.0
C464 C 0.92279 0.9222 0.54564 0.0
C465 C 0.93606 0.93335 0.57097 0.0
C466 C 0.95437 0.95258 0.56673 0.0
C467 C 0.90355 0.90144 0.55046 0.0
C468 C 0.88385 0.90559 0.5677 0.0
C469 C 0.90411 0.87796 0.53766 0.0
C470 C 0.92492 0.87169 0.52032 0.0
C471 C 0.95134 0.87216 0.53376 0.0
C472 C 0.97079 0.86668 0.51698 0.0
C473 C 0.96406 0.86056 0.48683 0.0
C474 C 0.93786 0.85979 0.47343 0.0
C475 C 0.91834 0.86525 0.49008 0.0
H476 H 0.97914 0.85633 0.4739 0.0
H477 H 0.7886 0.91018 0.63376 0.0
H478 H 0.73139 0.32864 0.99416 0.0
H479 H 0.70042 0.36124 1.00184 0.0
H480 H 0.6604 0.3033 0.05385 0.0
H481 H 0.69096 0.27044 0.04562 0.0
H482 H 0.62628 0.33368 0.01361 0.0
H483 H 0.69914 0.34588 0.09071 0.0
H484 H 0.74523 0.35257 0.11174 0.0
H485 H 0.74402 0.42448 0.05316 0.0
H486 H 0.698 0.41804 0.03143 0.0
H487 H 0.58257 0.45433 0.08267 0.0
H488 H 0.61391 0.41921 0.08413 0.0
H489 H 0.58989 0.41722 0.98631 0.0
H490 H 0.55838 0.45172 0.98474 0.0
H491 H 0.65534 0.41416 0.05668 0.0
H492 H 0.5912 0.35724 0.96874 0.0
H493 H 0.54453 0.34984 0.9514 0.0
H494 H 0.52747 0.36438 0.0396 0.0
H495 H 0.57404 0.37163 0.05759 0.0
C496 C 0.71592 0.32279 1.00709 0.0
C497 C 0.71368 0.2969 0.01927 0.0
C498 C 0.69836 0.3415 1.01172 0.0
C499 C 0.67821 0.33479 0.0287 0.0
C500 C 0.67584 0.30896 0.04077 0.0
C501 C 0.69345 0.29023 0.03624 0.0
C502 C 0.65932 0.35467 0.03322 0.0
C503 C 0.63265 0.35122 0.02312 0.0
C504 C 0.6675 0.37737 0.04623 0.0
C505 C 0.69517 0.38136 0.05926 0.0
C506 C 0.70875 0.36302 0.08213 0.0
C507 C 0.73486 0.36679 0.09421 0.0
C508 C 0.74756 0.38891 0.08374 0.0
C509 C 0.73416 0.40734 0.06122 0.0
C510 C 0.70805 0.40366 0.04904 0.0
C511 C 0.58396 0.44639 0.06149 0.0
C512 C 0.56776 0.45572 0.03366 0.0
C513 C 0.60193 0.42635 0.06235 0.0
C514 C 0.60398 0.41526 0.03544 0.0
C515 C 0.58828 0.42503 1.00753 0.0
C516 C 0.57028 0.44486 1.00668 0.0
C517 C 0.62242 0.39346 0.03626 0.0
C518 C 0.64898 0.39654 0.04735 0.0
C519 C 0.61409 0.37019 0.02472 0.0
C520 C 0.58611 0.36514 0.01442 0.0
C521 C 0.57751 0.3587 0.9845 0.0
C522 C 0.55106 0.3546 0.97453 0.0
C523 C 0.53303 0.35675 0.99435 0.0
C524 C 0.54143 0.36287 0.02423 0.0
C525 C 0.56785 0.36699 0.03431 0.0
H526 H 0.51256 0.35361 0.98656 0.0
H527 H 0.76777 0.3918 0.09313 0.0
H528 H 0.12147 0.84994 0.16359 0.0
H529 H 0.10161 0.86413 0.20518 0.0
H530 H 0.17103 0.90605 0.23442 0.0
H531 H 0.19115 0.89158 0.19301 0.0
H532 H 0.15593 0.88087 0.28272 0.0
H533 H 0.11308 0.93699 0.19671 0.0
H534 H 0.08826 0.94944 0.14452 0.0
H535 H 0.02345 0.90492 0.1688 0.0
H536 H 0.04801 0.89188 0.22103 0.0
H537 H 0.09467 0.93982 0.39079 0.0
H538 H 0.11539 0.93484 0.34578 0.0
H539 H 0.05413 0.88408 0.31361 0.0
H540 H 0.03314 0.88932 0.35811 0.0
H541 H 0.06663 0.91832 0.26633 0.0
H542 H 0.11238 0.86009 0.35165 0.0
H543 H 0.13776 0.84916 0.40387 0.0
H544 H 0.19799 0.90055 0.38018 0.0
H545 H 0.17279 0.91204 0.32793 0.0
C546 C 0.13239 0.86247 0.17861 0.0
C547 C 0.15789 0.86967 0.17491 0.0
C548 C 0.12099 0.87062 0.20241 0.0
C549 C 0.13464 0.8865 0.2228 0.0
C550 C 0.16007 0.89383 0.21905 0.0
C551 C 0.17157 0.8855 0.19538 0.0
C552 C 0.12275 0.8945 0.24875 0.0
C553 C 0.13659 0.8895 0.27899 0.0
C554 C 0.09736 0.90551 0.24413 0.0
C555 C 0.08249 0.91328 0.21273 0.0
C556 C 0.09361 0.92968 0.19086 0.0
C557 C 0.07957 0.93688 0.16127 0.0
C558 C 0.05431 0.92793 0.15333 0.0
C559 C 0.04302 0.91181 0.17498 0.0
C560 C 0.05699 0.90454 0.20459 0.0
C561 C 0.08548 0.92784 0.37393 0.0
C562 C 0.06236 0.9148 0.37818 0.0
C563 C 0.09742 0.92487 0.34833 0.0
C564 C 0.08646 0.90886 0.32646 0.0
C565 C 0.063 0.89646 0.3302 0.0
C566 C 0.05114 0.8993 0.35581 0.0
C567 C 0.09968 0.9043 0.30013 0.0
C568 C 0.08608 0.90994 0.26988 0.0
C569 C 0.12537 0.89415 0.30469 0.0
C570 C 0.14058 0.88712 0.33602 0.0
C571 C 0.13095 0.8692 0.35766 0.0
C572 C 0.14531 0.86288 0.38725 0.0
C573 C 0.16944 0.87421 0.39537 0.0
C574 C 0.17928 0.89182 0.37388 0.0
C575 C 0.16498 0.89823 0.34428 0.0
H576 H 0.18053 0.86929 0.41828 0.0
H577 H 0.04347 0.93353 0.13042 0.0
H578 H 0.60444 0.6585 0.73278 0.0
H579 H 0.58224 0.63661 0.77321 0.0
H580 H 0.65633 0.60961 0.82587 0.0
H581 H 0.6786 0.63089 0.78525 0.0
H582 H 0.62058 0.57183 0.82574 0.0
H583 H 0.62432 0.6606 0.84472 0.0
H584 H 0.61688 0.70736 0.83099 0.0
H585 H 0.53441 0.69565 0.81066 0.0
H586 H 0.5414 0.64876 0.82387 0.0
H587 H 0.5838 0.53292 0.97077 0.0
H588 H 0.60363 0.55436 0.92838 0.0
H589 H 0.52844 0.58544 0.88351 0.0
H590 H 0.50881 0.56543 0.92723 0.0
H591 H 0.56321 0.62087 0.87794 0.0
H592 H 0.55863 0.53252 0.85996 0.0
H593 H 0.56547 0.48569 0.87371 0.0
H594 H 0.64827 0.4961 0.89106 0.0
H595 H 0.64191 0.54305 0.87782 0.0
C596 C 0.61601 0.6477 0.75282 0.0
C597 C 0.64336 0.6466 0.75578 0.0
C598 C 0.60329 0.63537 0.77607 0.0
C599 C 0.61761 0.62168 0.80282 0.0
C600 C 0.64484 0.62012 0.80554 0.0
C601 C 0.65758 0.6325 0.78238 0.0
C602 C 0.60432 0.60911 0.82809 0.0
C603 C 0.60824 0.58261 0.83736 0.0
C604 C 0.58764 0.62297 0.84277 0.0
C605 C 0.58341 0.65116 0.83497 0.0
C606 C 0.60462 0.66798 0.83709 0.0
C607 C 0.60048 0.69451 0.82944 0.0
C608 C 0.57519 0.70446 0.81988 0.0
C609 C 0.55398 0.68791 0.81803 0.0
C610 C 0.55802 0.66136 0.82561 0.0
C611 C 0.57154 0.54468 0.95217 0.0
C612 C 0.54481 0.5478 0.95268 0.0
C613 C 0.58285 0.55663 0.9276 0.0
C614 C 0.56753 0.57127 0.90233 0.0
C615 C 0.54073 0.57425 0.90266 0.0
C616 C 0.52948 0.56263 0.92756 0.0
C617 C 0.57953 0.58354 0.87575 0.0
C618 C 0.57539 0.61001 0.86622 0.0
C619 C 0.59587 0.5696 0.86067 0.0
C620 C 0.59978 0.54132 0.86811 0.0
C621 C 0.57829 0.52483 0.86685 0.0
C622 C 0.58208 0.49827 0.87455 0.0
C623 C 0.60728 0.48793 0.88331 0.0
C624 C 0.62876 0.50414 0.88428 0.0
C625 C 0.62508 0.53073 0.87665 0.0
H626 H 0.61018 0.46736 0.8893 0.0
H627 H 0.57203 0.725 0.81397 0.0
H628 H 0.90787 0.1238 0.19309 0.0
H629 H 0.93093 0.10365 0.243 0.0
H630 H 0.8589 0.10025 0.27962 0.0
H631 H 0.83567 0.12001 0.22979 0.0
H632 H 0.89716 0.12215 0.31636 0.0
H633 H 0.88763 0.04598 0.26532 0.0
H634 H 0.89172 0.01929 0.22408 0.0
H635 H 0.97494 0.02633 0.24178 0.0
H636 H 0.97133 0.0534 0.28285 0.0
H637 H 0.94102 0.04464 0.45999 0.0
H638 H 0.9181 0.06215 0.40893 0.0
H639 H 0.99079 0.06548 0.37375 0.0
H640 H 0.01392 0.0488 0.42494 0.0
H641 H 0.95272 0.04331 0.33592 0.0
H642 H 0.96346 0.12038 0.38358 0.0
H643 H 0.96092 0.15199 0.42001 0.0
H644 H 0.87761 0.14567 0.4067 0.0
H645 H 0.87966 0.11389 0.37029 0.0
C646 C 0.89684 0.11829 0.21157 0.0
C647 C 0.86994 0.12373 0.20748 0.0
C648 C 0.91007 0.1068 0.24011 0.0
C649 C 0.89663 0.10041 0.26505 0.0
C650 C 0.86968 0.10513 0.26075 0.0
C651 C 0.85646 0.11655 0.23228 0.0
C652 C 0.91083 0.09049 0.29623 0.0
C653 C 0.90891 0.10462 0.32077 0.0
C654 C 0.92697 0.06819 0.30168 0.0
C655 C 0.92918 0.05195 0.27696 0.0
C656 C 0.90679 0.04204 0.26023 0.0
C657 C 0.90902 0.0268 0.23692 0.0
C658 C 0.93357 0.02118 0.23025 0.0
C659 C 0.95593 0.03074 0.24694 0.0
C660 C 0.95381 0.04601 0.27025 0.0
C661 C 0.95221 0.04963 0.44163 0.0
C662 C 0.97935 0.04567 0.44679 0.0
C663 C 0.93906 0.0595 0.41235 0.0
C664 C 0.95275 0.06528 0.38753 0.0
C665 C 0.97982 0.06116 0.39254 0.0
C666 C 0.993 0.05161 0.42187 0.0
C667 C 0.93876 0.07486 0.35614 0.0
C668 C 0.94078 0.06071 0.33156 0.0
C669 C 0.92286 0.0973 0.35051 0.0
C670 C 0.92174 0.11459 0.37443 0.0
C671 C 0.94463 0.12542 0.38879 0.0
C672 C 0.94326 0.14353 0.40923 0.0
C673 C 0.91909 0.15097 0.41545 0.0
C674 C 0.89629 0.13999 0.40169 0.0
C675 C 0.89755 0.12194 0.38116 0.0
H676 H 0.91802 0.16519 0.43104 0.0
H677 H 0.93526 0.00936 0.21221 0.0
H678 H 0.38022 0.42539 0.59121 0.0
H679 H 0.39206 0.4363 0.6439 0.0
H680 H 0.42016 0.3586 0.67489 0.0
H681 H 0.40815 0.34753 0.6223 0.0
H682 H 0.39251 0.37395 0.71431 0.0
H683 H 0.46199 0.41007 0.66395 0.0
H684 H 0.481 0.43689 0.62356 0.0
H685 H 0.44656 0.50457 0.64708 0.0
H686 H 0.42704 0.47809 0.68736 0.0
H687 H 0.46245 0.39039 0.85996 0.0
H688 H 0.45268 0.38358 0.80563 0.0
H689 H 0.42167 0.46097 0.78194 0.0
H690 H 0.4316 0.46798 0.83656 0.0
H691 H 0.44958 0.44745 0.73861 0.0
H692 H 0.38092 0.4111 0.78981 0.0
H693 H 0.3625 0.38409 0.83054 0.0
H694 H 0.39585 0.31653 0.80533 0.0
H695 H 0.41481 0.34319 0.76472 0.0
C696 C 0.3891 0.41067 0.6092 0.0
C697 C 0.3933 0.38559 0.60249 0.0
C698 C 0.39589 0.41695 0.63935 0.0
C699 C 0.40735 0.39838 0.6634 0.0
C700 C 0.41134 0.37327 0.65679 0.0
C701 C 0.4044 0.36694 0.6267 0.0
C702 C 0.41488 0.40494 0.69552 0.0
C703 C 0.40526 0.38983 0.7196 0.0
C704 C 0.43096 0.42609 0.70249 0.0
C705 C 0.44285 0.44206 0.67846 0.0
C706 C 0.45832 0.43065 0.66036 0.0
C707 C 0.46921 0.44579 0.63751 0.0
C708 C 0.46494 0.47241 0.6327 0.0
C709 C 0.44982 0.48394 0.65081 0.0
C710 C 0.43886 0.46888 0.67367 0.0
C711 C 0.45364 0.40602 0.84319 0.0
C712 C 0.44744 0.42961 0.85263 0.0
C713 C 0.44807 0.4021 0.81212 0.0
C714 C 0.43591 0.42157 0.78975 0.0
C715 C 0.43092 0.44562 0.79881 0.0
C716 C 0.43664 0.44962 0.83 0.0
C717 C 0.42746 0.41625 0.7573 0.0
C718 C 0.43681 0.43162 0.73322 0.0
C719 C 0.41115 0.3953 0.75027 0.0
C720 C 0.39946 0.37917 0.77439 0.0
C721 C 0.38446 0.3905 0.79307 0.0
C722 C 0.37391 0.37525 0.81613 0.0
C723 C 0.37805 0.34862 0.82056 0.0
C724 C 0.39268 0.33717 0.80188 0.0
C725 C 0.40331 0.35233 0.77882 0.0
H726 H 0.36987 0.33685 0.83843 0.0
H727 H 0.47338 0.4841 0.61499 0.0
H728 H 0.60275 0.62153 0.45787 0.0
H729 H 0.59191 0.60651 0.40743 0.0
H730 H 0.65618 0.64877 0.37659 0.0
H731 H 0.66645 0.66505 0.42675 0.0
H732 H 0.6149 0.65226 0.33117 0.0
H733 H 0.66155 0.58399 0.39852 0.0
H734 H 0.67246 0.55309 0.44568 0.0
H735 H 0.59719 0.51893 0.42724 0.0
H736 H 0.58567 0.54988 0.38017 0.0
H737 H 0.61123 0.57456 0.20422 0.0
H738 H 0.62467 0.59765 0.24935 0.0
H739 H 0.55889 0.56698 0.28919 0.0
H740 H 0.54519 0.54459 0.24408 0.0
H741 H 0.60584 0.55813 0.32886 0.0
H742 H 0.55949 0.62883 0.26154 0.0
H743 H 0.55038 0.65958 0.21402 0.0
H744 H 0.62812 0.68843 0.2317 0.0
H745 H 0.63781 0.65758 0.27914 0.0
C746 C 0.61436 0.62809 0.44028 0.0
C747 C 0.63557 0.6445 0.44657 0.0
C748 C 0.6083 0.61919 0.41148 0.0
C749 C 0.62351 0.6261 0.38834 0.0
C750 C 0.64426 0.64302 0.39414 0.0
C751 C 0.65026 0.65211 0.42296 0.0
C752 C 0.61797 0.61504 0.35852 0.0
C753 C 0.61332 0.63165 0.33063 0.0
C754 C 0.6158 0.58815 0.35771 0.0
C755 C 0.62268 0.5694 0.38594 0.0
C756 C 0.64725 0.57001 0.40463 0.0
C757 C 0.65356 0.55247 0.43133 0.0
C758 C 0.63551 0.53409 0.43949 0.0
C759 C 0.61114 0.53319 0.42091 0.0
C760 C 0.60472 0.55071 0.3942 0.0
C761 C 0.59944 0.57318 0.22239 0.0
C762 C 0.57745 0.55734 0.22099 0.0
C763 C 0.60714 0.5863 0.24815 0.0
C764 C 0.59289 0.58383 0.27277 0.0
C765 C 0.57035 0.5689 0.27067 0.0
C766 C 0.56263 0.55597 0.24499 0.0
C767 C 0.60204 0.59535 0.30165 0.0
C768 C 0.60756 0.57873 0.3294 0.0
C769 C 0.6053 0.62214 0.30218 0.0
C770 C 0.59947 0.64068 0.27369 0.0
C771 C 0.57472 0.64156 0.25514 0.0
C772 C 0.56944 0.65905 0.22826 0.0
C773 C 0.58869 0.67589 0.21979 0.0
C774 C 0.61324 0.67534 0.23825 0.0
C775 C 0.61864 0.65786 0.26515 0.0
H776 H 0.58455 0.68943 0.19897 0.0
H777 H 0.64043 0.52053 0.46017 0.0
H778 H 0.90939 0.1556 0.90328 0.0
H779 H 0.92761 0.14273 0.85981 0.0
H780 H 0.86684 0.08697 0.84566 0.0
H781 H 0.84863 0.09965 0.88939 0.0
H782 H 0.9118 0.0658 0.84312 0.0
H783 H 0.86767 0.14349 0.79565 0.0
H784 H 0.85496 0.18934 0.78979 0.0
H785 H 0.93429 0.21097 0.78657 0.0
H786 H 0.94756 0.16522 0.79286 0.0
H787 H 0.94496 0.0402 0.69846 0.0
H788 H 0.92049 0.05506 0.73617 0.0
H789 H 0.98438 0.10358 0.76656 0.0
H790 H 1.00891 0.0888 0.72901 0.0
H791 H 0.93481 0.12812 0.75807 0.0
H792 H 0.97821 0.04906 0.80798 0.0
H793 H 0.98937 1.00297 0.81181 0.0
H794 H 0.90869 0.9838 0.80835 0.0
H795 H 0.89695 0.02988 0.80382 0.0
C796 C 0.89964 0.14088 0.89062 0.0
C797 C 0.8775 0.12871 0.89978 0.0
C798 C 0.9101 0.13352 0.86573 0.0
C799 C 0.89847 0.11404 0.84915 0.0
C800 C 0.87621 0.10201 0.85808 0.0
C801 C 0.86583 0.10926 0.88311 0.0
C802 C 0.91015 0.10561 0.82331 0.0
C803 C 0.91638 0.07942 0.82425 0.0
C804 C 0.91653 0.12334 0.79882 0.0
C805 C 0.90865 0.1509 0.79501 0.0
C806 C 0.88245 0.15801 0.79394 0.0
C807 C 0.87514 0.18399 0.7905 0.0
C808 C 0.89382 0.20305 0.78789 0.0
C809 C 0.91985 0.19618 0.78864 0.0
C810 C 0.92727 0.17022 0.79211 0.0
C811 C 0.95368 0.05418 0.71304 0.0
C812 C 0.9789 0.06323 0.71093 0.0
C813 C 0.93974 0.06257 0.73462 0.0
C814 C 0.95068 0.08034 0.75425 0.0
C815 C 0.97558 0.08987 0.75164 0.0
C816 C 0.98964 0.08126 0.73036 0.0
C817 C 0.93658 0.08848 0.77818 0.0
C818 C 0.92996 0.11458 0.77685 0.0
C819 C 0.92959 0.07065 0.80211 0.0
C820 C 0.93667 0.04294 0.80521 0.0
C821 C 0.96282 0.03504 0.80776 0.0
C822 C 0.96926 0.00892 0.81011 0.0
C823 C 0.94976 0.99047 0.81028 0.0
C824 C 0.92377 0.99812 0.80817 0.0
C825 C 0.91721 0.02424 0.8057 0.0
H826 H 0.9548 0.97025 0.81211 0.0
H827 H 0.88811 0.22316 0.78522 0.0
H828 H 0.35081 0.39121 0.26221 0.0
H829 H 0.37306 0.41086 0.22073 0.0
H830 H 0.44631 0.37892 0.2707 0.0
H831 H 0.42417 0.35934 0.31235 0.0
H832 H 0.45219 0.42703 0.24997 0.0
H833 H 0.41347 0.35489 0.2048 0.0
H834 H 0.37801 0.32591 0.18761 0.0
H835 H 0.3385 0.38829 0.1256 0.0
H836 H 0.37353 0.41776 0.14275 0.0
H837 H 0.52243 0.46095 0.12396 0.0
H838 H 0.50263 0.43802 0.16597 0.0
H839 H 0.4269 0.46741 0.12085 0.0
H840 H 0.44657 0.49054 0.07927 0.0
H841 H 0.4237 0.41821 0.13917 0.0
H842 H 0.46163 0.49066 0.1871 0.0
H843 H 0.4943 0.5202 0.20994 0.0
H844 H 0.53483 0.45652 0.26845 0.0
H845 H 0.50271 0.42656 0.24566 0.0
C846 C 0.37162 0.38811 0.26424 0.0
C847 C 0.38567 0.37365 0.29068 0.0
C848 C 0.38434 0.39933 0.24042 0.0
C849 C 0.41138 0.39613 0.24226 0.0
C850 C 0.42545 0.3817 0.26864 0.0
C851 C 0.41277 0.37059 0.29254 0.0
C852 C 0.42519 0.40877 0.21742 0.0
C853 C 0.44627 0.42469 0.22578 0.0
C854 C 0.4171 0.40629 0.18572 0.0
C855 C 0.39602 0.3886 0.1753 0.0
C856 C 0.39711 0.36249 0.18768 0.0
C857 C 0.37711 0.34596 0.17791 0.0
C858 C 0.35598 0.35527 0.15559 0.0
C859 C 0.35485 0.38111 0.14292 0.0
C860 C 0.3748 0.39774 0.15265 0.0
C861 C 0.50164 0.46287 0.12329 0.0
C862 C 0.48613 0.47767 0.09827 0.0
C863 C 0.49029 0.44968 0.1473 0.0
C864 C 0.46321 0.45107 0.14682 0.0
C865 C 0.44779 0.46591 0.12184 0.0
C866 C 0.45909 0.47912 0.09798 0.0
C867 C 0.45068 0.43666 0.17175 0.0
C868 C 0.4298 0.42037 0.16338 0.0
C869 C 0.45903 0.4387 0.20351 0.0
C870 C 0.47986 0.45636 0.21453 0.0
C871 C 0.47779 0.48291 0.20439 0.0
C872 C 0.49612 0.49973 0.21747 0.0
C873 C 0.51642 0.49021 0.24082 0.0
C874 C 0.51898 0.46383 0.25049 0.0
C875 C 0.50077 0.44694 0.23746 0.0
H876 H 0.5301 0.50321 0.25168 0.0
H877 H 0.34051 0.34244 0.14805 0.0
H878 H 0.14022 0.94624 0.86424 0.0
H879 H 0.12489 0.96201 0.80993 0.0
H880 H 0.10745 0.88436 0.79094 0.0
H881 H 0.12286 0.86845 0.84527 0.0
H882 H 0.13077 0.90871 0.7471 0.0
H883 H 0.05975 0.92787 0.79729 0.0
H884 H 0.03759 0.94614 0.83513 0.0
H885 H 0.058 0.02232 0.79986 0.0
H886 H 0.08074 1.00449 0.76218 0.0
H887 H 0.0425 0.94508 0.60339 0.0
H888 H 0.06246 0.92726 0.65579 0.0
H889 H 0.09596 1.00098 0.67113 0.0
H890 H 0.07732 0.01851 0.61821 0.0
H891 H 0.064 0.97838 0.71609 0.0
H892 H 0.13705 0.95913 0.66872 0.0
H893 H 0.16051 0.94107 0.6319 0.0
H894 H 0.13467 0.86536 0.66114 0.0
H895 H 0.11101 0.88303 0.69818 0.0
C896 C 0.13293 0.93253 0.84856 0.0
C897 C 0.13265 0.90608 0.85916 0.0
C898 C 0.12416 0.94158 0.81749 0.0
C899 C 0.11464 0.92443 0.79636 0.0
C900 C 0.11468 0.89798 0.80677 0.0
C901 C 0.12357 0.8889 0.83784 0.0
C902 C 0.10497 0.93405 0.76334 0.0
C903 C 0.11587 0.92366 0.74037 0.0
C904 C 0.08591 0.954 0.75445 0.0
C905 C 0.07231 0.96478 0.77719 0.0
C906 C 0.05979 0.9485 0.79782 0.0
C907 C 0.04708 0.95878 0.81921 0.0
C908 C 0.04654 0.98535 0.82003 0.0
C909 C 0.05855 1.00172 0.79931 0.0
C910 C 0.07137 0.99154 0.77793 0.0
C911 C 0.05468 0.9573 0.61761 0.0
C912 C 0.05806 0.98329 0.6068 0.0
C913 C 0.06594 0.94713 0.6476 0.0
C914 C 0.08048 0.96289 0.66736 0.0
C915 C 0.08464 0.98857 0.65628 0.0
C916 C 0.07388 0.99856 0.62611 0.0
C917 C 0.08991 0.95307 0.70018 0.0
C918 C 0.07885 0.96338 0.723 0.0
C919 C 0.10869 0.93303 0.70895 0.0
C920 C 0.12207 0.92243 0.68599 0.0
C921 C 0.13614 0.93867 0.66706 0.0
C922 C 0.1496 0.92849 0.64629 0.0
C923 C 0.14911 0.90207 0.64421 0.0
C924 C 0.13508 0.88581 0.66284 0.0
C925 C 0.12169 0.89589 0.68377 0.0
H926 H 0.15954 0.89423 0.6281 0.0
H927 H 0.03675 0.99327 0.83667 0.0
loop_
_geom_bond_atom_site_label_1
_geom_bond_atom_site_label_2
_geom_bond_distance
_geom_bond_site_symmetry_2
_ccdc_geom_bond_type
C0 C1 1.264 . S
C0 C5 1.479 . S
C0 C10 1.465 . S
C1 C0 1.264 . S
C1 C3 1.339 . S
C1 H28 0.931 . S
C2 C3 1.395 . S
C2 C4 1.320 . S
C3 C1 1.339 . S
C3 C2 1.395 . S
C3 H29 0.929 . S
C4 C2 1.320 . S
C4 C5 1.405 . S
C4 H30 0.930 . S
C5 C0 1.479 . S
C5 C4 1.405 . S
C5 H31 0.931 . S
U6 O7 2.454 . S
U6 O8 2.458 . S
U6 C9 2.984 . S
U6 C10 2.847 . S
U6 C23 2.882 1_554 S
U6 O24 2.441 . S
U6 O25 2.420 . S
U6 O26 2.455 1_554 S
U6 O27 2.449 1_554 S
O7 U6 2.454 . S
O7 C9 1.353 . S
O8 U6 2.458 . S
O8 C9 1.286 . S
C9 U6 2.984 . S
C9 O7 1.353 . S
C9 O8 1.286 . S
C9 C11 1.363 . S
C10 C0 1.465 . S
C10 U6 2.847 . S
C10 O24 1.249 . S
C10 O25 1.202 . S
C11 C9 1.363 . S
C11 C13 1.408 . S
C11 C16 1.342 . S
C12 C13 1.310 . S
C12 C15 1.461 . S
C12 H32 0.932 . S
C13 C11 1.408 . S
C13 C12 1.310 . S
C13 H33 0.930 . S
C14 C15 1.474 . S
C14 C16 1.285 . S
C14 H34 0.929 1_554 S
C15 C12 1.461 . S
C15 C14 1.474 . S
C16 C11 1.342 . S
C16 C14 1.285 . S
C16 H35 0.930 1_554 S
C17 C20 1.424 . S
C17 C22 1.245 . S
C17 C23 1.428 . S
C18 C21 1.260 . S
C18 C22 1.477 . S
C18 H36 0.932 . S
C19 C20 1.384 . S
C19 C21 1.479 . S
C19 H37 0.929 . S
C20 C17 1.424 . S
C20 C19 1.384 . S
C20 H38 0.928 . S
C21 C18 1.260 . S
C21 C19 1.479 . S
C22 C17 1.245 . S
C22 C18 1.477 . S
C22 H39 0.932 . S
C23 U6 2.882 1_556 S
C23 C17 1.428 . S
C23 O26 1.301 . S
C23 O27 1.282 . S
O24 U6 2.441 . S
O24 C10 1.249 . S
O25 U6 2.420 . S
O25 C10 1.202 . S
O26 U6 2.455 1_556 S
O26 C23 1.301 . S
O27 U6 2.449 1_556 S
O27 C23 1.282 . S
H28 C1 0.931 . S
H29 C3 0.929 . S
H30 C4 0.930 . S
H31 C5 0.931 . S
H32 C12 0.932 . S
H33 C13 0.930 . S
H34 C14 0.929 1_556 S
H35 C16 0.930 1_556 S
H36 C18 0.932 . S
H37 C19 0.929 . S
H38 C20 0.928 . S
H39 C22 0.932 . S
C40 C41 1.264 . S
C40 C45 1.479 . S
C40 C50 1.465 . S
C41 C40 1.264 . S
C41 C43 1.339 . S
C41 H68 0.931 . S
C42 C43 1.395 . S
C42 C44 1.320 . S
C43 C41 1.339 . S
C43 C42 1.395 . S
C43 H69 0.929 . S
C44 C42 1.320 . S
C44 C45 1.405 . S
C44 H70 0.930 . S
C45 C40 1.479 . S
C45 C44 1.405 . S
C45 H71 0.931 . S
U46 O47 2.454 . S
U46 O48 2.458 . S
U46 C49 2.984 . S
U46 C50 2.847 . S
U46 C63 2.882 . S
U46 O64 2.441 . S
U46 O65 2.420 . S
U46 O66 2.455 . S
U46 O67 2.449 . S
O47 U46 2.454 . S
O47 C49 1.353 . S
O48 U46 2.458 . S
O48 C49 1.286 . S
C49 U46 2.984 . S
C49 O47 1.353 . S
C49 O48 1.286 . S
C49 C51 1.363 . S
C50 C40 1.465 . S
C50 U46 2.847 . S
C50 O64 1.249 . S
C50 O65 1.202 . S
C51 C49 1.363 . S
C51 C53 1.408 . S
C51 C56 1.342 . S
C52 C53 1.310 . S
C52 C55 1.461 . S
C52 H72 0.932 . S
C53 C51 1.408 . S
C53 C52 1.310 . S
C53 H73 0.930 . S
C54 C55 1.474 . S
C54 C56 1.285 . S
C54 H74 0.929 . S
C55 C52 1.461 . S
C55 C54 1.474 . S
C56 C51 1.342 . S
C56 C54 1.285 . S
C56 H75 0.930 . S
C57 C60 1.424 . S
C57 C62 1.245 . S
C57 C63 1.428 . S
C58 C61 1.260 . S
C58 C62 1.477 . S
C58 H76 0.932 . S
C59 C60 1.384 . S
C59 C61 1.479 . S
C59 H77 0.929 . S
C60 C57 1.424 . S
C60 C59 1.384 . S
C60 H78 0.928 . S
C61 C58 1.260 . S
C61 C59 1.479 . S
C62 C57 1.245 . S
C62 C58 1.477 . S
C62 H79 0.932 . S
C63 U46 2.882 . S
C63 C57 1.428 . S
C63 O66 1.301 . S
C63 O67 1.282 . S
O64 U46 2.441 . S
O64 C50 1.249 . S
O65 U46 2.420 . S
O65 C50 1.202 . S
O66 U46 2.455 . S
O66 C63 1.301 . S
O67 U46 2.449 . S
O67 C63 1.282 . S
H68 C41 0.931 . S
H69 C43 0.929 . S
H70 C44 0.930 . S
H71 C45 0.931 . S
H72 C52 0.932 . S
H73 C53 0.930 . S
H74 C54 0.929 . S
H75 C56 0.930 . S
H76 C58 0.932 . S
H77 C59 0.929 . S
H78 C60 0.928 . S
H79 C62 0.932 . S
C80 C81 1.264 . S
C80 C85 1.479 . S
C80 C90 1.465 . S
C81 C80 1.264 . S
C81 C83 1.339 . S
C81 H108 0.931 . S
C82 C83 1.395 . S
C82 C84 1.320 . S
C83 C81 1.339 . S
C83 C82 1.395 . S
C83 H109 0.929 . S
C84 C82 1.320 . S
C84 C85 1.405 . S
C84 H110 0.930 . S
C85 C80 1.479 . S
C85 C84 1.405 . S
C85 H111 0.931 . S
U86 O87 2.454 . S
U86 O88 2.458 1_554 S
U86 C89 2.984 . S
U86 C90 2.847 . S
U86 C103 2.882 1_554 S
U86 O104 2.441 . S
U86 O105 2.420 . S
U86 O106 2.455 1_554 S
U86 O107 2.449 1_554 S
O87 U86 2.454 . S
O87 C89 1.353 . S
O88 U86 2.458 1_556 S
O88 C89 1.286 1_556 S
C89 U86 2.984 . S
C89 O87 1.353 . S
C89 O88 1.286 1_554 S
C89 C91 1.363 . S
C90 C80 1.465 . S
C90 U86 2.847 . S
C90 O104 1.249 . S
C90 O105 1.202 . S
C91 C89 1.363 . S
C91 C93 1.408 . S
C91 C96 1.342 1_554 S
C92 C93 1.310 . S
C92 C95 1.461 1_554 S
C92 H112 0.932 . S
C93 C91 1.408 . S
C93 C92 1.310 . S
C93 H113 0.930 . S
C94 C95 1.474 . S
C94 C96 1.285 . S
C94 H114 0.929 . S
C95 C92 1.461 1_556 S
C95 C94 1.474 . S
C96 C91 1.342 1_556 S
C96 C94 1.285 . S
C96 H115 0.930 . S
C97 C100 1.424 . S
C97 C102 1.245 . S
C97 C103 1.428 . S
C98 C101 1.260 . S
C98 C102 1.477 . S
C98 H116 0.932 . S
C99 C100 1.384 . S
C99 C101 1.479 . S
C99 H117 0.929 . S
C100 C97 1.424 . S
C100 C99 1.384 . S
C100 H118 0.928 . S
C101 C98 1.260 . S
C101 C99 1.479 . S
C102 C97 1.245 . S
C102 C98 1.477 . S
C102 H119 0.932 . S
C103 U86 2.882 1_556 S
C103 C97 1.428 . S
C103 O106 1.301 . S
C103 O107 1.282 . S
O104 U86 2.441 . S
O104 C90 1.249 . S
O105 U86 2.420 . S
O105 C90 1.202 . S
O106 U86 2.455 1_556 S
O106 C103 1.301 . S
O107 U86 2.449 1_556 S
O107 C103 1.282 . S
H108 C81 0.931 . S
H109 C83 0.929 . S
H110 C84 0.930 . S
H111 C85 0.931 . S
H112 C92 0.932 . S
H113 C93 0.930 . S
H114 C94 0.929 . S
H115 C96 0.930 . S
H116 C98 0.932 . S
H117 C99 0.929 . S
H118 C100 0.928 . S
H119 C102 0.932 . S
C120 C121 1.264 . S
C120 C125 1.479 . S
C120 C130 1.465 . S
C121 C120 1.264 . S
C121 C123 1.339 . S
C121 H148 0.931 . S
C122 C123 1.395 . S
C122 C124 1.320 . S
C123 C121 1.339 . S
C123 C122 1.395 . S
C123 H149 0.929 . S
C124 C122 1.320 . S
C124 C125 1.405 . S
C124 H150 0.930 . S
C125 C120 1.479 . S
C125 C124 1.405 . S
C125 H151 0.931 . S
U126 O127 2.454 . S
U126 O128 2.458 . S
U126 C129 2.984 . S
U126 C130 2.847 . S
U126 C143 2.882 . S
U126 O144 2.441 . S
U126 O145 2.420 . S
U126 O146 2.455 . S
U126 O147 2.449 . S
O127 U126 2.454 . S
O127 C129 1.353 . S
O128 U126 2.458 . S
O128 C129 1.286 . S
C129 U126 2.984 . S
C129 O127 1.353 . S
C129 O128 1.286 . S
C129 C131 1.363 . S
C130 C120 1.465 . S
C130 U126 2.847 . S
C130 O144 1.249 . S
C130 O145 1.202 . S
C131 C129 1.363 . S
C131 C133 1.408 . S
C131 C136 1.342 . S
C132 C133 1.310 . S
C132 C135 1.461 . S
C132 H152 0.932 . S
C133 C131 1.408 . S
C133 C132 1.310 . S
C133 H153 0.930 . S
C134 C135 1.474 . S
C134 C136 1.285 . S
C134 H154 0.929 . S
C135 C132 1.461 . S
C135 C134 1.474 . S
C136 C131 1.342 . S
C136 C134 1.285 . S
C136 H155 0.930 . S
C137 C140 1.424 . S
C137 C142 1.245 . S
C137 C143 1.428 . S
C138 C141 1.260 . S
C138 C142 1.477 . S
C138 H156 0.932 . S
C139 C140 1.384 . S
C139 C141 1.479 . S
C139 H157 0.929 . S
C140 C137 1.424 . S
C140 C139 1.384 . S
C140 H158 0.928 . S
C141 C138 1.260 . S
C141 C139 1.479 . S
C142 C137 1.245 . S
C142 C138 1.477 . S
C142 H159 0.932 . S
C143 U126 2.882 . S
C143 C137 1.428 . S
C143 O146 1.301 . S
C143 O147 1.282 . S
O144 U126 2.441 . S
O144 C130 1.249 . S
O145 U126 2.420 . S
O145 C130 1.202 . S
O146 U126 2.455 . S
O146 C143 1.301 . S
O147 U126 2.449 . S
O147 C143 1.282 . S
H148 C121 0.931 . S
H149 C123 0.929 . S
H150 C124 0.930 . S
H151 C125 0.931 . S
H152 C132 0.932 . S
H153 C133 0.930 . S
H154 C134 0.929 . S
H155 C136 0.930 . S
H156 C138 0.932 . S
H157 C139 0.929 . S
H158 C140 0.928 . S
H159 C142 0.932 . S
C160 C162 1.422 . S
C160 C164 1.415 . S
C160 N166 1.369 . S
C161 C162 1.421 . S
C161 C163 1.417 . S
C161 C173 1.422 . S
C162 C160 1.422 . S
C162 C161 1.421 . S
C162 N172 1.359 . S
C163 C161 1.417 . S
C163 C165 1.329 . S
C163 H182 0.930 . S
C164 C160 1.415 . S
C164 C165 1.437 . S
C164 C168 1.413 . S
C165 C163 1.329 . S
C165 C164 1.437 . S
C165 H187 0.929 . S
N166 C160 1.369 . S
N166 C167 1.338 1_655 S
N166 Gd171 2.622 . S
C167 N166 1.338 1_455 S
C167 C169 1.378 . S
C167 H179 0.929 . S
C168 C164 1.413 . S
C168 C169 1.348 1_655 S
C168 H184 0.931 . S
C169 C167 1.378 . S
C169 C168 1.348 1_455 S
C169 H185 0.930 . S
Gd170 N190 2.622 . S
Gd170 N197 2.570 . S
Gd170 O204 2.351 1_455 S
Gd170 O205 2.468 . S
Gd170 O206 2.427 . S
Gd170 O208 2.388 1_455 S
Gd170 O209 2.386 . S
Gd170 O213 2.307 1_565 S
Gd170 C223 2.805 . S
Gd171 N166 2.622 . S
Gd171 N172 2.570 . S
Gd171 O203 2.386 . S
Gd171 O207 2.307 1_545 S
Gd171 O210 2.353 1_655 S
Gd171 O211 2.468 . S
Gd171 O212 2.427 . S
Gd171 O214 2.388 1_655 S
Gd171 C235 2.805 . S
N172 C162 1.359 . S
N172 Gd171 2.570 . S
N172 C174 1.343 . S
C173 C161 1.422 . S
C173 C175 1.321 . S
C173 H181 0.931 . S
C174 N172 1.343 . S
C174 C175 1.390 . S
C174 H176 0.931 . S
C175 C173 1.321 . S
C175 C174 1.390 . S
C175 H177 0.930 . S
H176 C174 0.931 . S
H177 C175 0.930 . S
H178 C201 0.931 . S
H179 C167 0.929 . S
H180 C202 0.930 . S
H181 C173 0.931 . S
H182 C163 0.930 . S
H183 C192 0.929 1_655 S
H184 C168 0.931 . S
H185 C169 0.930 . S
H186 C224 0.930 . S
H187 C165 0.929 . S
H188 C193 0.931 . S
H189 C194 0.930 1_655 S
N190 Gd170 2.622 . S
N190 C191 1.369 . S
N190 C192 1.338 . S
C191 N190 1.369 . S
C191 C195 1.415 . S
C191 C198 1.422 . S
C192 H183 0.929 1_455 S
C192 N190 1.338 . S
C192 C194 1.378 . S
C193 H188 0.931 . S
C193 C194 1.348 . S
C193 C195 1.413 . S
C194 H189 0.930 1_455 S
C194 C192 1.378 . S
C194 C193 1.348 . S
C195 C191 1.415 . S
C195 C193 1.413 . S
C195 C225 1.437 . S
H196 C225 0.929 . S
N197 Gd170 2.570 . S
N197 C198 1.359 . S
N197 C201 1.343 . S
C198 C191 1.422 . S
C198 N197 1.359 . S
C198 C200 1.421 . S
C199 C200 1.422 . S
C199 C202 1.321 . S
C199 H226 0.931 . S
C200 C198 1.421 . S
C200 C199 1.422 . S
C200 C224 1.417 . S
C201 H178 0.931 . S
C201 N197 1.343 . S
C201 C202 1.390 . S
C202 H180 0.930 . S
C202 C199 1.321 . S
C202 C201 1.390 . S
O203 Gd171 2.386 . S
O203 C215 1.265 . S
O204 Gd170 2.351 1_655 S
O204 C215 1.245 1_565 S
O205 Gd170 2.468 . S
O205 C223 1.263 . S
O206 Gd170 2.427 . S
O206 C223 1.252 . S
O207 Gd171 2.307 1_565 S
O207 C216 1.261 . S
O208 Gd170 2.388 1_655 S
O208 C216 1.252 . S
O209 Gd170 2.386 . S
O209 C227 1.265 . S
O210 Gd171 2.353 1_455 S
O210 C227 1.242 1_545 S
O211 Gd171 2.468 . S
O211 C235 1.263 . S
O212 Gd171 2.427 . S
O212 C235 1.252 . S
O213 Gd170 2.307 1_545 S
O213 C228 1.261 . S
O214 Gd171 2.388 1_455 S
O214 C228 1.252 . S
C215 O203 1.265 . S
C215 O204 1.245 1_545 S
C216 O207 1.261 . S
C216 O208 1.252 . S
C217 C220 1.394 . S
C217 C222 1.370 . S
C217 C223 1.500 . S
C218 C221 1.383 . S
C218 C222 1.395 . S
C219 C220 1.396 . S
C219 C221 1.365 . S
C219 H236 0.929 . S
C220 C217 1.394 . S
C220 C219 1.396 . S
C220 H237 0.930 . S
C221 C218 1.383 . S
C221 C219 1.365 . S
C221 H238 0.931 . S
C222 C217 1.370 . S
C222 C218 1.395 . S
C222 H239 0.930 . S
C223 Gd170 2.805 . S
C223 O205 1.263 . S
C223 O206 1.252 . S
C223 C217 1.500 . S
C224 H186 0.930 . S
C224 C200 1.417 . S
C224 C225 1.329 . S
C225 C195 1.437 . S
C225 H196 0.929 . S
C225 C224 1.329 . S
H226 C199 0.931 . S
C227 O209 1.265 . S
C227 O210 1.242 1_565 S
C228 O213 1.261 . S
C228 O214 1.252 . S
C229 C232 1.394 . S
C229 C234 1.370 . S
C229 C235 1.500 . S
C230 C233 1.383 . S
C230 C234 1.395 . S
C231 C232 1.396 . S
C231 C233 1.365 . S
C231 H240 0.929 . S
C232 C229 1.394 . S
C232 C231 1.396 . S
C232 H241 0.930 . S
C233 C230 1.383 . S
C233 C231 1.365 . S
C233 H242 0.931 . S
C234 C229 1.370 . S
C234 C230 1.395 . S
C234 H243 0.930 . S
C235 Gd171 2.805 . S
C235 O211 1.263 . S
C235 O212 1.252 . S
C235 C229 1.500 . S
H236 C219 0.929 . S
H237 C220 0.930 . S
H238 C221 0.931 . S
H239 C222 0.930 . S
H240 C231 0.929 . S
H241 C232 0.930 . S
H242 C233 0.931 . S
H243 C234 0.930 . S
C244 C246 1.422 . S
C244 C248 1.415 . S
C244 N250 1.369 . S
C245 C246 1.421 . S
C245 C247 1.417 . S
C245 C257 1.422 . S
C246 C244 1.422 . S
C246 C245 1.421 . S
C246 N256 1.359 . S
C247 C245 1.417 . S
C247 C249 1.329 . S
C247 H266 0.936 . S
C248 C244 1.415 . S
C248 C249 1.437 . S
C248 C252 1.413 . S
C249 C247 1.329 . S
C249 C248 1.437 . S
C249 H271 0.929 . S
N250 C244 1.369 . S
N250 C251 1.338 . S
N250 Gd255 2.622 . S
C251 N250 1.338 . S
C251 C253 1.378 . S
C251 H263 0.929 . S
C252 C248 1.413 . S
C252 C253 1.348 . S
C252 H268 0.931 . S
C253 C251 1.378 . S
C253 C252 1.348 . S
C253 H269 0.930 . S
Gd254 N274 2.622 . S
Gd254 N281 2.570 . S
Gd254 O288 2.353 . S
Gd254 O289 2.468 . S
Gd254 O290 2.427 . S
Gd254 O292 2.388 . S
Gd254 O293 2.386 1_556 S
Gd254 O297 2.307 1_556 S
Gd254 C307 2.805 . S
Gd255 N250 2.622 . S
Gd255 N256 2.570 . S
Gd255 O287 2.386 1_554 S
Gd255 O291 2.307 . S
Gd255 O294 2.353 . S
Gd255 O295 2.468 . S
Gd255 O296 2.427 . S
Gd255 O298 2.388 . S
Gd255 C319 2.805 . S
N256 C246 1.359 . S
N256 Gd255 2.570 . S
N256 C258 1.343 . S
C257 C245 1.422 . S
C257 C259 1.321 . S
C257 H265 0.931 1_554 S
C258 N256 1.343 . S
C258 C259 1.390 . S
C258 H260 0.931 . S
C259 C257 1.321 . S
C259 C258 1.390 . S
C259 H261 0.930 . S
H260 C258 0.931 . S
H261 C259 0.930 . S
H262 C285 0.944 . S
H263 C251 0.929 . S
H264 C286 0.930 . S
H265 C257 0.931 1_556 S
H266 C247 0.936 . S
H267 C276 0.929 . S
H268 C252 0.931 . S
H269 C253 0.930 . S
H270 C308 0.930 . S
H271 C249 0.929 . S
H272 C277 0.931 . S
H273 C278 0.930 . S
N274 Gd254 2.622 . S
N274 C275 1.369 1_556 S
N274 C276 1.338 . S
C275 N274 1.369 1_554 S
C275 C279 1.415 . S
C275 C282 1.422 . S
C276 H267 0.929 . S
C276 N274 1.338 . S
C276 C278 1.378 . S
C277 H272 0.931 . S
C277 C278 1.348 1_554 S
C277 C279 1.413 . S
C278 H273 0.930 . S
C278 C276 1.378 . S
C278 C277 1.348 1_556 S
C279 C275 1.415 . S
C279 C277 1.413 . S
C279 C309 1.437 . S
H280 C309 0.929 . S
N281 Gd254 2.570 . S
N281 C282 1.358 1_556 S
N281 C285 1.343 1_556 S
C282 C275 1.422 . S
C282 N281 1.358 1_554 S
C282 C284 1.421 . S
C283 C284 1.422 . S
C283 C286 1.321 . S
C283 H310 0.931 . S
C284 C282 1.421 . S
C284 C283 1.422 . S
C284 C308 1.417 . S
C285 H262 0.944 . S
C285 N281 1.343 1_554 S
C285 C286 1.390 . S
C286 H264 0.930 . S
C286 C283 1.321 . S
C286 C285 1.390 . S
O287 Gd255 2.386 1_556 S
O287 C299 1.265 . S
O288 Gd254 2.353 . S
O288 C299 1.242 . S
O289 Gd254 2.468 . S
O289 C307 1.263 . S
O290 Gd254 2.427 . S
O290 C307 1.252 . S
O291 Gd255 2.307 . S
O291 C300 1.261 . S
O292 Gd254 2.388 . S
O292 C300 1.252 1_556 S
O293 Gd254 2.386 1_554 S
O293 C311 1.265 . S
O294 Gd255 2.353 . S
O294 C311 1.242 . S
O295 Gd255 2.468 . S
O295 C319 1.263 . S
O296 Gd255 2.427 . S
O296 C319 1.252 . S
O297 Gd254 2.307 1_554 S
O297 C312 1.261 . S
O298 Gd255 2.388 . S
O298 C312 1.252 . S
C299 O287 1.265 . S
C299 O288 1.242 . S
C300 O291 1.261 . S
C300 O292 1.252 1_554 S
C301 C304 1.394 . S
C301 C306 1.370 . S
C301 C307 1.500 . S
C302 C305 1.383 . S
C302 C306 1.395 . S
C303 C304 1.396 . S
C303 C305 1.365 . S
C303 H320 0.929 . S
C304 C301 1.394 . S
C304 C303 1.396 . S
C304 H321 0.930 . S
C305 C302 1.383 . S
C305 C303 1.365 . S
C305 H322 0.931 . S
C306 C301 1.370 . S
C306 C302 1.395 . S
C306 H323 0.930 . S
C307 Gd254 2.805 . S
C307 O289 1.263 . S
C307 O290 1.252 . S
C307 C301 1.500 . S
C308 H270 0.930 . S
C308 C284 1.417 . S
C308 C309 1.329 . S
C309 C279 1.437 . S
C309 H280 0.929 . S
C309 C308 1.329 . S
H310 C283 0.931 . S
C311 O293 1.265 . S
C311 O294 1.242 . S
C312 O297 1.261 . S
C312 O298 1.252 . S
C313 C316 1.394 . S
C313 C318 1.370 . S
C313 C319 1.500 . S
C314 C317 1.383 . S
C314 C318 1.395 . S
C315 C316 1.396 . S
C315 C317 1.365 . S
C315 H324 0.929 . S
C316 C313 1.394 . S
C316 C315 1.396 . S
C316 H325 0.930 . S
C317 C314 1.383 . S
C317 C315 1.365 . S
C317 H326 0.931 . S
C318 C313 1.370 . S
C318 C314 1.395 . S
C318 H327 0.930 . S
C319 Gd255 2.805 . S
C319 O295 1.263 . S
C319 O296 1.252 . S
C319 C313 1.500 . S
H320 C303 0.929 . S
H321 C304 0.930 . S
H322 C305 0.931 . S
H323 C306 0.930 . S
H324 C315 0.929 . S
H325 C316 0.930 . S
H326 C317 0.931 . S
H327 C318 0.930 . S
H328 C346 0.951 . S
H329 C348 0.951 . S
H330 C350 0.950 . S
H331 C351 0.950 . S
H332 C353 0.950 . S
H333 C356 0.950 . S
H334 C357 0.950 . S
H335 C359 0.950 . S
H336 C360 0.950 . S
H337 C361 0.951 . S
H338 C363 0.951 . S
H339 C365 0.950 . S
H340 C366 0.950 . S
H341 C368 0.950 . S
H342 C371 0.950 . S
H343 C372 0.950 . S
H344 C374 0.950 . S
H345 C375 0.950 . S
C346 H328 0.951 . S
C346 C347 1.366 . S
C346 C348 1.388 . S
C347 C346 1.366 . S
C347 C351 1.385 . S
C348 H329 0.951 . S
C348 C346 1.388 . S
C348 C349 1.366 . S
C349 C348 1.366 . S
C349 C350 1.414 . S
C349 C352 1.499 . S
C350 H330 0.950 . S
C350 C349 1.414 . S
C350 C351 1.374 . S
C351 H331 0.950 . S
C351 C347 1.385 . S
C351 C350 1.374 . S
C352 C349 1.499 . S
C352 C353 1.373 . S
C352 C354 1.389 . S
C353 H332 0.950 . S
C353 C352 1.373 . S
C353 C369 1.377 . S
C354 C352 1.389 . S
C354 C355 1.524 . S
C354 C368 1.377 . S
C355 C354 1.524 . S
C355 C356 1.397 . S
C355 C360 1.363 . S
C356 H333 0.950 . S
C356 C355 1.397 . S
C356 C357 1.334 . S
C357 H334 0.950 . S
C357 C356 1.334 . S
C357 C358 1.287 . S
C358 C357 1.287 . S
C358 C359 1.524 . S
C358 H377 0.913 . S
C359 H335 0.950 . S
C359 C358 1.524 . S
C359 C360 1.415 . S
C360 H336 0.950 . S
C360 C355 1.363 . S
C360 C359 1.415 . S
C361 H337 0.951 . S
C361 C362 1.366 . S
C361 C363 1.388 . S
C362 C361 1.366 . S
C362 C366 1.385 . S
C363 H338 0.951 . S
C363 C361 1.388 . S
C363 C364 1.366 . S
C364 C363 1.366 . S
C364 C365 1.414 . S
C364 C367 1.499 . S
C365 H339 0.950 . S
C365 C364 1.414 . S
C365 C366 1.374 . S
C366 H340 0.950 . S
C366 C362 1.385 . S
C366 C365 1.374 . S
C367 C364 1.499 . S
C367 C368 1.373 . S
C367 C369 1.389 . S
C368 H341 0.950 . S
C368 C354 1.377 . S
C368 C367 1.373 . S
C369 C353 1.377 . S
C369 C367 1.389 . S
C369 C370 1.524 . S
C370 C369 1.524 . S
C370 C371 1.397 . S
C370 C375 1.363 . S
C371 H342 0.950 . S
C371 C370 1.397 . S
C371 C372 1.334 . S
C372 H343 0.950 . S
C372 C371 1.334 . S
C372 C373 1.287 . S
C373 C372 1.287 . S
C373 C374 1.524 . S
C373 H376 0.999 . S
C374 H344 0.950 . S
C374 C373 1.524 . S
C374 C375 1.415 . S
C375 H345 0.950 . S
C375 C370 1.363 . S
C375 C374 1.415 . S
H376 C373 0.999 . S
H377 C358 0.913 . S
H378 C396 0.951 . S
H379 C398 0.951 . S
H380 C400 0.950 . S
H381 C401 0.950 . S
H382 C403 0.950 1_556 S
H383 C406 0.950 . S
H384 C407 0.950 . S
H385 C409 0.950 . S
H386 C410 0.950 . S
H387 C411 0.951 . S
H388 C413 0.951 . S
H389 C415 0.950 . S
H390 C416 0.950 . S
H391 C418 0.950 . S
H392 C421 0.950 . S
H393 C422 0.950 . S
H394 C424 0.950 . S
H395 C425 0.950 . S
C396 H378 0.951 . S
C396 C397 1.366 . S
C396 C398 1.388 . S
C397 C396 1.366 . S
C397 C401 1.385 . S
C398 H379 0.951 . S
C398 C396 1.388 . S
C398 C399 1.366 . S
C399 C398 1.366 . S
C399 C400 1.414 . S
C399 C402 1.499 . S
C400 H380 0.950 . S
C400 C399 1.414 . S
C400 C401 1.374 . S
C401 H381 0.950 . S
C401 C397 1.385 . S
C401 C400 1.374 . S
C402 C399 1.499 . S
C402 C403 1.373 . S
C402 C404 1.389 . S
C403 H382 0.950 1_554 S
C403 C402 1.373 . S
C403 C419 1.377 . S
C404 C402 1.389 . S
C404 C405 1.524 . S
C404 C418 1.377 . S
C405 C404 1.524 . S
C405 C406 1.397 . S
C405 C410 1.363 . S
C406 H383 0.950 . S
C406 C405 1.397 . S
C406 C407 1.334 . S
C407 H384 0.950 . S
C407 C406 1.334 . S
C407 C408 1.287 . S
C408 C407 1.287 . S
C408 C409 1.524 . S
C408 H427 0.913 . S
C409 H385 0.950 . S
C409 C408 1.524 . S
C409 C410 1.415 . S
C410 H386 0.950 . S
C410 C405 1.363 . S
C410 C409 1.415 . S
C411 H387 0.951 . S
C411 C412 1.366 . S
C411 C413 1.388 . S
C412 C411 1.366 . S
C412 C416 1.385 . S
C413 H388 0.951 . S
C413 C411 1.388 . S
C413 C414 1.366 . S
C414 C413 1.366 . S
C414 C415 1.414 . S
C414 C417 1.499 . S
C415 H389 0.950 . S
C415 C414 1.414 . S
C415 C416 1.374 . S
C416 H390 0.950 . S
C416 C412 1.385 . S
C416 C415 1.374 . S
C417 C414 1.499 . S
C417 C418 1.373 . S
C417 C419 1.389 . S
C418 H391 0.950 . S
C418 C404 1.377 . S
C418 C417 1.373 . S
C419 C403 1.377 . S
C419 C417 1.389 . S
C419 C420 1.524 1_554 S
C420 C419 1.524 1_556 S
C420 C421 1.397 . S
C420 C425 1.363 . S
C421 H392 0.950 . S
C421 C420 1.397 . S
C421 C422 1.334 . S
C422 H393 0.950 . S
C422 C421 1.334 . S
C422 C423 1.287 . S
C423 C422 1.287 . S
C423 C424 1.524 . S
C423 H426 0.999 . S
C424 H394 0.950 . S
C424 C423 1.524 . S
C424 C425 1.415 . S
C425 H395 0.950 . S
C425 C420 1.363 . S
C425 C424 1.415 . S
H426 C423 0.999 . S
H427 C408 0.913 . S
H428 C446 0.951 . S
H429 C448 0.951 . S
H430 C450 0.950 . S
H431 C451 0.950 . S
H432 C453 0.950 . S
H433 C456 0.950 . S
H434 C457 0.950 . S
H435 C459 0.950 . S
H436 C460 0.950 . S
H437 C461 0.951 . S
H438 C463 0.951 . S
H439 C465 0.950 . S
H440 C466 0.950 . S
H441 C468 0.950 . S
H442 C471 0.950 . S
H443 C472 0.950 . S
H444 C474 0.950 . S
H445 C475 0.950 . S
C446 H428 0.951 . S
C446 C447 1.366 . S
C446 C448 1.388 . S
C447 C446 1.366 . S
C447 C451 1.385 . S
C448 H429 0.951 . S
C448 C446 1.388 . S
C448 C449 1.366 . S
C449 C448 1.366 . S
C449 C450 1.414 . S
C449 C452 1.499 . S
C450 H430 0.950 . S
C450 C449 1.414 . S
C450 C451 1.374 . S
C451 H431 0.950 . S
C451 C447 1.385 . S
C451 C450 1.374 . S
C452 C449 1.499 . S
C452 C453 1.373 . S
C452 C454 1.389 . S
C453 H432 0.950 . S
C453 C452 1.373 . S
C453 C469 1.377 . S
C454 C452 1.389 . S
C454 C455 1.524 . S
C454 C468 1.377 . S
C455 C454 1.524 . S
C455 C456 1.397 . S
C455 C460 1.363 . S
C456 H433 0.950 . S
C456 C455 1.397 . S
C456 C457 1.334 . S
C457 H434 0.950 . S
C457 C456 1.334 . S
C457 C458 1.287 . S
C458 C457 1.287 . S
C458 C459 1.524 . S
C458 H477 0.913 . S
C459 H435 0.950 . S
C459 C458 1.524 . S
C459 C460 1.415 . S
C460 H436 0.950 . S
C460 C455 1.363 . S
C460 C459 1.415 . S
C461 H437 0.951 . S
C461 C462 1.366 . S
C461 C463 1.388 . S
C462 C461 1.366 . S
C462 C466 1.385 . S
C463 H438 0.951 . S
C463 C461 1.388 . S
C463 C464 1.366 . S
C464 C463 1.366 . S
C464 C465 1.414 . S
C464 C467 1.499 . S
C465 H439 0.950 . S
C465 C464 1.414 . S
C465 C466 1.374 . S
C466 H440 0.950 . S
C466 C462 1.385 . S
C466 C465 1.374 . S
C467 C464 1.499 . S
C467 C468 1.373 . S
C467 C469 1.389 . S
C468 H441 0.950 . S
C468 C454 1.377 . S
C468 C467 1.373 . S
C469 C453 1.377 . S
C469 C467 1.389 . S
C469 C470 1.524 . S
C470 C469 1.524 . S
C470 C471 1.397 . S
C470 C475 1.363 . S
C471 H442 0.950 . S
C471 C470 1.397 . S
C471 C472 1.334 . S
C472 H443 0.950 . S
C472 C471 1.334 . S
C472 C473 1.287 . S
C473 C472 1.287 . S
C473 C474 1.524 . S
C473 H476 0.999 . S
C474 H444 0.950 . S
C474 C473 1.524 . S
C474 C475 1.415 . S
C475 H445 0.950 . S
C475 C470 1.363 . S
C475 C474 1.415 . S
H476 C473 0.999 . S
H477 C458 0.913 . S
H478 C496 0.951 . S
H479 C498 0.951 . S
H480 C500 0.950 . S
H481 C501 0.950 . S
H482 C503 0.950 . S
H483 C506 0.950 . S
H484 C507 0.950 . S
H485 C509 0.950 . S
H486 C510 0.950 1_556 S
H487 C511 0.951 . S
H488 C513 0.951 . S
H489 C515 0.950 . S
H490 C516 0.950 . S
H491 C518 0.950 . S
H492 C521 0.950 . S
H493 C522 0.950 . S
H494 C524 0.950 . S
H495 C525 0.950 1_554 S
C496 H478 0.951 . S
C496 C497 1.366 . S
C496 C498 1.388 . S
C497 C496 1.366 . S
C497 C501 1.385 1_556 S
C498 H479 0.951 . S
C498 C496 1.388 . S
C498 C499 1.347 1_556 S
C499 C498 1.347 1_554 S
C499 C500 1.424 . S
C499 C502 1.507 . S
C500 H480 0.950 . S
C500 C499 1.424 . S
C500 C501 1.374 . S
C501 H481 0.950 . S
C501 C497 1.385 1_554 S
C501 C500 1.374 . S
C502 C499 1.507 . S
C502 C503 1.373 1_554 S
C502 C504 1.389 . S
C503 H482 0.950 . S
C503 C502 1.373 1_556 S
C503 C519 1.377 . S
C504 C502 1.389 . S
C504 C505 1.524 . S
C504 C518 1.377 . S
C505 C504 1.524 . S
C505 C506 1.397 . S
C505 C510 1.363 . S
C506 H483 0.950 . S
C506 C505 1.397 . S
C506 C507 1.334 . S
C507 H484 0.950 . S
C507 C506 1.334 . S
C507 C508 1.287 . S
C508 C507 1.287 . S
C508 C509 1.524 . S
C508 H527 0.913 . S
C509 H485 0.950 . S
C509 C508 1.524 . S
C509 C510 1.415 . S
C510 H486 0.950 1_554 S
C510 C505 1.363 . S
C510 C509 1.415 . S
C511 H487 0.951 . S
C511 C512 1.366 . S
C511 C513 1.388 . S
C512 C511 1.366 . S
C512 C516 1.385 1_554 S
C513 H488 0.951 . S
C513 C511 1.388 . S
C513 C514 1.366 . S
C514 C513 1.366 . S
C514 C515 1.414 1_554 S
C514 C517 1.499 . S
C515 H489 0.950 . S
C515 C514 1.414 1_556 S
C515 C516 1.374 . S
C516 H490 0.950 . S
C516 C512 1.385 1_556 S
C516 C515 1.374 . S
C517 C514 1.499 . S
C517 C518 1.373 . S
C517 C519 1.389 1_554 S
C518 H491 0.950 . S
C518 C504 1.377 . S
C518 C517 1.373 . S
C519 C503 1.377 . S
C519 C517 1.389 1_556 S
C519 C520 1.524 . S
C520 C519 1.524 . S
C520 C521 1.397 . S
C520 C525 1.363 . S
C521 H492 0.950 . S
C521 C520 1.397 . S
C521 C522 1.334 . S
C522 H493 0.950 . S
C522 C521 1.334 . S
C522 C523 1.287 . S
C523 C522 1.287 . S
C523 C524 1.524 . S
C523 H526 0.999 . S
C524 H494 0.950 . S
C524 C523 1.524 . S
C524 C525 1.415 . S
C525 H495 0.950 1_556 S
C525 C520 1.363 . S
C525 C524 1.415 . S
H526 C523 0.999 . S
H527 C508 0.913 . S
H528 C546 0.951 . S
H529 C548 0.951 . S
H530 C550 0.950 . S
H531 C551 0.950 . S
H532 C553 0.950 . S
H533 C556 0.950 . S
H534 C557 0.950 1_545 S
H535 C559 0.950 . S
H536 C560 0.950 . S
H537 C561 0.951 . S
H538 C563 0.951 . S
H539 C565 0.950 . S
H540 C566 0.950 . S
H541 C568 0.950 . S
H542 C571 0.950 . S
H543 C572 0.950 . S
H544 C574 0.950 . S
H545 C575 0.950 . S
C546 H528 0.951 . S
C546 C547 1.366 . S
C546 C548 1.388 . S
C547 C546 1.366 . S
C547 C551 1.385 . S
C548 H529 0.951 . S
C548 C546 1.388 . S
C548 C549 1.366 . S
C549 C548 1.366 . S
C549 C550 1.414 . S
C549 C552 1.499 . S
C550 H530 0.950 . S
C550 C549 1.414 . S
C550 C551 1.374 . S
C551 H531 0.950 . S
C551 C547 1.385 . S
C551 C550 1.374 . S
C552 C549 1.499 . S
C552 C553 1.373 . S
C552 C554 1.389 . S
C553 H532 0.950 . S
C553 C552 1.373 . S
C553 C569 1.377 . S
C554 C552 1.389 . S
C554 C555 1.524 . S
C554 C568 1.377 . S
C555 C554 1.524 . S
C555 C556 1.397 . S
C555 C560 1.363 . S
C556 H533 0.950 . S
C556 C555 1.397 . S
C556 C557 1.334 . S
C557 H534 0.950 1_565 S
C557 C556 1.334 . S
C557 C558 1.287 . S
C558 C557 1.287 . S
C558 C559 1.524 . S
C558 H577 0.913 . S
C559 H535 0.950 . S
C559 C558 1.524 . S
C559 C560 1.415 . S
C560 H536 0.950 . S
C560 C555 1.363 . S
C560 C559 1.415 . S
C561 H537 0.951 . S
C561 C562 1.366 . S
C561 C563 1.388 . S
C562 C561 1.366 . S
C562 C566 1.385 . S
C563 H538 0.951 . S
C563 C561 1.388 . S
C563 C564 1.366 . S
C564 C563 1.366 . S
C564 C565 1.414 . S
C564 C567 1.499 . S
C565 H539 0.950 . S
C565 C564 1.414 . S
C565 C566 1.374 . S
C566 H540 0.950 . S
C566 C562 1.385 . S
C566 C565 1.374 . S
C567 C564 1.499 . S
C567 C568 1.373 . S
C567 C569 1.389 . S
C568 H541 0.950 . S
C568 C554 1.377 . S
C568 C567 1.373 . S
C569 C553 1.377 . S
C569 C567 1.389 . S
C569 C570 1.524 . S
C570 C569 1.524 . S
C570 C571 1.397 . S
C570 C575 1.363 . S
C571 H542 0.950 . S
C571 C570 1.397 . S
C571 C572 1.334 . S
C572 H543 0.950 . S
C572 C571 1.334 . S
C572 C573 1.287 . S
C573 C572 1.287 . S
C573 C574 1.524 . S
C573 H576 0.999 . S
C574 H544 0.950 . S
C574 C573 1.524 . S
C574 C575 1.415 . S
C575 H545 0.950 . S
C575 C570 1.363 . S
C575 C574 1.415 . S
H576 C573 0.999 . S
H577 C558 0.913 . S
H578 C596 0.951 . S
H579 C598 0.951 . S
H580 C600 0.950 . S
H581 C601 0.950 . S
H582 C603 0.950 . S
H583 C606 0.950 . S
H584 C607 0.950 . S
H585 C609 0.950 . S
H586 C610 0.950 . S
H587 C611 0.951 . S
H588 C613 0.951 . S
H589 C615 0.950 . S
H590 C616 0.950 . S
H591 C618 0.950 . S
H592 C621 0.950 . S
H593 C622 0.950 . S
H594 C624 0.950 . S
H595 C625 0.950 . S
C596 H578 0.951 . S
C596 C597 1.366 . S
C596 C598 1.388 . S
C597 C596 1.366 . S
C597 C601 1.385 . S
C598 H579 0.951 . S
C598 C596 1.388 . S
C598 C599 1.366 . S
C599 C598 1.366 . S
C599 C600 1.414 . S
C599 C602 1.499 . S
C600 H580 0.950 . S
C600 C599 1.414 . S
C600 C601 1.374 . S
C601 H581 0.950 . S
C601 C597 1.385 . S
C601 C600 1.374 . S
C602 C599 1.499 . S
C602 C603 1.373 . S
C602 C604 1.389 . S
C603 H582 0.950 . S
C603 C602 1.373 . S
C603 C619 1.377 . S
C604 C602 1.389 . S
C604 C605 1.524 . S
C604 C618 1.377 . S
C605 C604 1.524 . S
C605 C606 1.397 . S
C605 C610 1.363 . S
C606 H583 0.950 . S
C606 C605 1.397 . S
C606 C607 1.334 . S
C607 H584 0.950 . S
C607 C606 1.334 . S
C607 C608 1.287 . S
C608 C607 1.287 . S
C608 C609 1.524 . S
C608 H627 0.913 . S
C609 H585 0.950 . S
C609 C608 1.524 . S
C609 C610 1.415 . S
C610 H586 0.950 . S
C610 C605 1.363 . S
C610 C609 1.415 . S
C611 H587 0.951 . S
C611 C612 1.366 . S
C611 C613 1.388 . S
C612 C611 1.366 . S
C612 C616 1.385 . S
C613 H588 0.951 . S
C613 C611 1.388 . S
C613 C614 1.366 . S
C614 C613 1.366 . S
C614 C615 1.414 . S
C614 C617 1.499 . S
C615 H589 0.950 . S
C615 C614 1.414 . S
C615 C616 1.374 . S
C616 H590 0.950 . S
C616 C612 1.385 . S
C616 C615 1.374 . S
C617 C614 1.499 . S
C617 C618 1.373 . S
C617 C619 1.389 . S
C618 H591 0.950 . S
C618 C604 1.377 . S
C618 C617 1.373 . S
C619 C603 1.377 . S
C619 C617 1.389 . S
C619 C620 1.524 . S
C620 C619 1.524 . S
C620 C621 1.397 . S
C620 C625 1.363 . S
C621 H592 0.950 . S
C621 C620 1.397 . S
C621 C622 1.334 . S
C622 H593 0.950 . S
C622 C621 1.334 . S
C622 C623 1.287 . S
C623 C622 1.287 . S
C623 C624 1.524 . S
C623 H626 0.999 . S
C624 H594 0.950 . S
C624 C623 1.524 . S
C624 C625 1.415 . S
C625 H595 0.950 . S
C625 C620 1.363 . S
C625 C624 1.415 . S
H626 C623 0.999 . S
H627 C608 0.913 . S
H628 C646 0.951 . S
H629 C648 0.951 . S
H630 C650 0.950 . S
H631 C651 0.950 . S
H632 C653 0.950 . S
H633 C656 0.950 1_545 S
H634 C657 0.950 . S
H635 C659 0.950 . S
H636 C660 0.950 . S
H637 C661 0.951 . S
H638 C663 0.951 . S
H639 C665 0.950 . S
H640 C666 0.950 . S
H641 C668 0.950 . S
H642 C671 0.950 . S
H643 C672 0.950 . S
H644 C674 0.950 . S
H645 C675 0.950 . S
C646 H628 0.951 . S
C646 C647 1.366 . S
C646 C648 1.388 . S
C647 C646 1.366 . S
C647 C651 1.385 . S
C648 H629 0.951 . S
C648 C646 1.388 . S
C648 C649 1.366 . S
C649 C648 1.366 . S
C649 C650 1.414 . S
C649 C652 1.499 . S
C650 H630 0.950 . S
C650 C649 1.414 . S
C650 C651 1.374 . S
C651 H631 0.950 . S
C651 C647 1.385 . S
C651 C650 1.374 . S
C652 C649 1.499 . S
C652 C653 1.373 . S
C652 C654 1.389 . S
C653 H632 0.950 . S
C653 C652 1.373 . S
C653 C669 1.377 . S
C654 C652 1.389 . S
C654 C655 1.524 . S
C654 C668 1.377 . S
C655 C654 1.524 . S
C655 C656 1.397 1_545 S
C655 C660 1.363 . S
C656 H633 0.950 1_565 S
C656 C655 1.397 1_565 S
C656 C657 1.334 . S
C657 H634 0.950 . S
C657 C656 1.334 . S
C657 C658 1.287 . S
C658 C657 1.287 . S
C658 C659 1.524 . S
C658 H677 0.913 . S
C659 H635 0.950 . S
C659 C658 1.524 . S
C659 C660 1.415 1_565 S
C660 H636 0.950 . S
C660 C655 1.363 . S
C660 C659 1.415 1_545 S
C661 H637 0.951 . S
C661 C662 1.366 . S
C661 C663 1.388 . S
C662 C661 1.366 . S
C662 C666 1.385 . S
C663 H638 0.951 . S
C663 C661 1.388 . S
C663 C664 1.366 . S
C664 C663 1.366 . S
C664 C665 1.414 . S
C664 C667 1.499 . S
C665 H639 0.950 . S
C665 C664 1.414 . S
C665 C666 1.374 . S
C666 H640 0.950 . S
C666 C662 1.385 . S
C666 C665 1.374 . S
C667 C664 1.499 . S
C667 C668 1.373 . S
C667 C669 1.389 . S
C668 H641 0.950 . S
C668 C654 1.377 . S
C668 C667 1.373 . S
C669 C653 1.377 . S
C669 C667 1.389 . S
C669 C670 1.524 . S
C670 C669 1.524 . S
C670 C671 1.397 . S
C670 C675 1.363 . S
C671 H642 0.950 . S
C671 C670 1.397 . S
C671 C672 1.334 . S
C672 H643 0.950 . S
C672 C671 1.334 . S
C672 C673 1.287 . S
C673 C672 1.287 . S
C673 C674 1.524 . S
C673 H676 0.999 . S
C674 H644 0.950 . S
C674 C673 1.524 . S
C674 C675 1.415 . S
C675 H645 0.950 . S
C675 C670 1.363 . S
C675 C674 1.415 . S
H676 C673 0.999 . S
H677 C658 0.913 . S
H678 C696 0.951 . S
H679 C698 0.951 . S
H680 C700 0.950 . S
H681 C701 0.950 . S
H682 C703 0.950 . S
H683 C706 0.950 . S
H684 C707 0.950 . S
H685 C709 0.950 . S
H686 C710 0.950 . S
H687 C711 0.951 . S
H688 C713 0.951 . S
H689 C715 0.950 . S
H690 C716 0.950 . S
H691 C718 0.950 . S
H692 C721 0.950 . S
H693 C722 0.950 . S
H694 C724 0.950 . S
H695 C725 0.950 . S
C696 H678 0.951 . S
C696 C697 1.366 . S
C696 C698 1.388 . S
C697 C696 1.366 . S
C697 C701 1.385 . S
C698 H679 0.951 . S
C698 C696 1.388 . S
C698 C699 1.366 . S
C699 C698 1.366 . S
C699 C700 1.414 . S
C699 C702 1.499 . S
C700 H680 0.950 . S
C700 C699 1.414 . S
C700 C701 1.374 . S
C701 H681 0.950 . S
C701 C697 1.385 . S
C701 C700 1.374 . S
C702 C699 1.499 . S
C702 C703 1.373 . S
C702 C704 1.389 . S
C703 H682 0.950 . S
C703 C702 1.373 . S
C703 C719 1.377 . S
C704 C702 1.389 . S
C704 C705 1.524 . S
C704 C718 1.377 . S
C705 C704 1.524 . S
C705 C706 1.397 . S
C705 C710 1.363 . S
C706 H683 0.950 . S
C706 C705 1.397 . S
C706 C707 1.334 . S
C707 H684 0.950 . S
C707 C706 1.334 . S
C707 C708 1.287 . S
C708 C707 1.287 . S
C708 C709 1.524 . S
C708 H727 0.913 . S
C709 H685 0.950 . S
C709 C708 1.524 . S
C709 C710 1.415 . S
C710 H686 0.950 . S
C710 C705 1.363 . S
C710 C709 1.415 . S
C711 H687 0.951 . S
C711 C712 1.366 . S
C711 C713 1.388 . S
C712 C711 1.366 . S
C712 C716 1.385 . S
C713 H688 0.951 . S
C713 C711 1.388 . S
C713 C714 1.366 . S
C714 C713 1.366 . S
C714 C715 1.414 . S
C714 C717 1.499 . S
C715 H689 0.950 . S
C715 C714 1.414 . S
C715 C716 1.374 . S
C716 H690 0.950 . S
C716 C712 1.385 . S
C716 C715 1.374 . S
C717 C714 1.499 . S
C717 C718 1.373 . S
C717 C719 1.389 . S
C718 H691 0.950 . S
C718 C704 1.377 . S
C718 C717 1.373 . S
C719 C703 1.377 . S
C719 C717 1.389 . S
C719 C720 1.524 . S
C720 C719 1.524 . S
C720 C721 1.397 . S
C720 C725 1.363 . S
C721 H692 0.950 . S
C721 C720 1.397 . S
C721 C722 1.334 . S
C722 H693 0.950 . S
C722 C721 1.334 . S
C722 C723 1.287 . S
C723 C722 1.287 . S
C723 C724 1.524 . S
C723 H726 0.999 . S
C724 H694 0.950 . S
C724 C723 1.524 . S
C724 C725 1.415 . S
C725 H695 0.950 . S
C725 C720 1.363 . S
C725 C724 1.415 . S
H726 C723 0.999 . S
H727 C708 0.913 . S
H728 C746 0.951 . S
H729 C748 0.951 . S
H730 C750 0.950 . S
H731 C751 0.950 . S
H732 C753 0.950 . S
H733 C756 0.950 . S
H734 C757 0.950 . S
H735 C759 0.950 . S
H736 C760 0.950 . S
H737 C761 0.951 . S
H738 C763 0.951 . S
H739 C765 0.950 . S
H740 C766 0.950 . S
H741 C768 0.950 . S
H742 C771 0.950 . S
H743 C772 0.950 . S
H744 C774 0.950 . S
H745 C775 0.950 . S
C746 H728 0.951 . S
C746 C747 1.366 . S
C746 C748 1.388 . S
C747 C746 1.366 . S
C747 C751 1.385 . S
C748 H729 0.951 . S
C748 C746 1.388 . S
C748 C749 1.366 . S
C749 C748 1.366 . S
C749 C750 1.414 . S
C749 C752 1.499 . S
C750 H730 0.950 . S
C750 C749 1.414 . S
C750 C751 1.374 . S
C751 H731 0.950 . S
C751 C747 1.385 . S
C751 C750 1.374 . S
C752 C749 1.499 . S
C752 C753 1.373 . S
C752 C754 1.389 . S
C753 H732 0.950 . S
C753 C752 1.373 . S
C753 C769 1.377 . S
C754 C752 1.389 . S
C754 C755 1.524 . S
C754 C768 1.377 . S
C755 C754 1.524 . S
C755 C756 1.397 . S
C755 C760 1.363 . S
C756 H733 0.950 . S
C756 C755 1.397 . S
C756 C757 1.334 . S
C757 H734 0.950 . S
C757 C756 1.334 . S
C757 C758 1.287 . S
C758 C757 1.287 . S
C758 C759 1.524 . S
C758 H777 0.913 . S
C759 H735 0.950 . S
C759 C758 1.524 . S
C759 C760 1.415 . S
C760 H736 0.950 . S
C760 C755 1.363 . S
C760 C759 1.415 . S
C761 H737 0.951 . S
C761 C762 1.366 . S
C761 C763 1.388 . S
C762 C761 1.366 . S
C762 C766 1.385 . S
C763 H738 0.951 . S
C763 C761 1.388 . S
C763 C764 1.366 . S
C764 C763 1.366 . S
C764 C765 1.414 . S
C764 C767 1.499 . S
C765 H739 0.950 . S
C765 C764 1.414 . S
C765 C766 1.374 . S
C766 H740 0.950 . S
C766 C762 1.385 . S
C766 C765 1.374 . S
C767 C764 1.499 . S
C767 C768 1.373 . S
C767 C769 1.389 . S
C768 H741 0.950 . S
C768 C754 1.377 . S
C768 C767 1.373 . S
C769 C753 1.377 . S
C769 C767 1.389 . S
C769 C770 1.524 . S
C770 C769 1.524 . S
C770 C771 1.397 . S
C770 C775 1.363 . S
C771 H742 0.950 . S
C771 C770 1.397 . S
C771 C772 1.334 . S
C772 H743 0.950 . S
C772 C771 1.334 . S
C772 C773 1.287 . S
C773 C772 1.287 . S
C773 C774 1.524 . S
C773 H776 0.999 . S
C774 H744 0.950 . S
C774 C773 1.524 . S
C774 C775 1.415 . S
C775 H745 0.950 . S
C775 C770 1.363 . S
C775 C774 1.415 . S
H776 C773 0.999 . S
H777 C758 0.913 . S
H778 C796 0.951 . S
H779 C798 0.951 . S
H780 C800 0.950 . S
H781 C801 0.950 . S
H782 C803 0.950 . S
H783 C806 0.950 . S
H784 C807 0.950 . S
H785 C809 0.950 . S
H786 C810 0.950 . S
H787 C811 0.951 . S
H788 C813 0.951 . S
H789 C815 0.950 . S
H790 C816 0.950 . S
H791 C818 0.950 . S
H792 C821 0.950 . S
H793 C822 0.950 . S
H794 C824 0.950 . S
H795 C825 0.950 . S
C796 H778 0.951 . S
C796 C797 1.366 . S
C796 C798 1.388 . S
C797 C796 1.366 . S
C797 C801 1.385 . S
C798 H779 0.951 . S
C798 C796 1.388 . S
C798 C799 1.366 . S
C799 C798 1.366 . S
C799 C800 1.414 . S
C799 C802 1.499 . S
C800 H780 0.950 . S
C800 C799 1.414 . S
C800 C801 1.374 . S
C801 H781 0.950 . S
C801 C797 1.385 . S
C801 C800 1.374 . S
C802 C799 1.499 . S
C802 C803 1.373 . S
C802 C804 1.389 . S
C803 H782 0.950 . S
C803 C802 1.373 . S
C803 C819 1.377 . S
C804 C802 1.389 . S
C804 C805 1.524 . S
C804 C818 1.377 . S
C805 C804 1.524 . S
C805 C806 1.397 . S
C805 C810 1.363 . S
C806 H783 0.950 . S
C806 C805 1.397 . S
C806 C807 1.334 . S
C807 H784 0.950 . S
C807 C806 1.334 . S
C807 C808 1.287 . S
C808 C807 1.287 . S
C808 C809 1.524 . S
C808 H827 0.913 . S
C809 H785 0.950 . S
C809 C808 1.524 . S
C809 C810 1.415 . S
C810 H786 0.950 . S
C810 C805 1.363 . S
C810 C809 1.415 . S
C811 H787 0.951 . S
C811 C812 1.366 . S
C811 C813 1.388 . S
C812 C811 1.366 . S
C812 C816 1.385 . S
C813 H788 0.951 . S
C813 C811 1.388 . S
C813 C814 1.366 . S
C814 C813 1.366 . S
C814 C815 1.414 . S
C814 C817 1.499 . S
C815 H789 0.950 . S
C815 C814 1.414 . S
C815 C816 1.374 . S
C816 H790 0.950 . S
C816 C812 1.385 . S
C816 C815 1.374 . S
C817 C814 1.499 . S
C817 C818 1.373 . S
C817 C819 1.389 . S
C818 H791 0.950 . S
C818 C804 1.377 . S
C818 C817 1.373 . S
C819 C803 1.377 . S
C819 C817 1.389 . S
C819 C820 1.524 . S
C820 C819 1.524 . S
C820 C821 1.397 . S
C820 C825 1.363 1_545 S
C821 H792 0.950 . S
C821 C820 1.397 . S
C821 C822 1.334 1_545 S
C822 H793 0.950 . S
C822 C821 1.334 1_565 S
C822 C823 1.287 . S
C823 C822 1.287 . S
C823 C824 1.524 . S
C823 H826 0.999 . S
C824 H794 0.950 . S
C824 C823 1.524 . S
C824 C825 1.415 . S
C825 H795 0.950 . S
C825 C820 1.363 1_565 S
C825 C824 1.415 . S
H826 C823 0.999 . S
H827 C808 0.913 . S
H828 C846 0.951 . S
H829 C848 0.951 . S
H830 C850 0.950 . S
H831 C851 0.950 . S
H832 C853 0.950 . S
H833 C856 0.950 . S
H834 C857 0.950 . S
H835 C859 0.950 . S
H836 C860 0.950 . S
H837 C861 0.951 . S
H838 C863 0.951 . S
H839 C865 0.950 . S
H840 C866 0.950 . S
H841 C868 0.950 . S
H842 C871 0.950 . S
H843 C872 0.950 . S
H844 C874 0.950 . S
H845 C875 0.950 . S
C846 H828 0.951 . S
C846 C847 1.366 . S
C846 C848 1.388 . S
C847 C846 1.366 . S
C847 C851 1.385 . S
C848 H829 0.951 . S
C848 C846 1.388 . S
C848 C849 1.366 . S
C849 C848 1.366 . S
C849 C850 1.414 . S
C849 C852 1.499 . S
C850 H830 0.950 . S
C850 C849 1.414 . S
C850 C851 1.374 . S
C851 H831 0.950 . S
C851 C847 1.385 . S
C851 C850 1.374 . S
C852 C849 1.499 . S
C852 C853 1.373 . S
C852 C854 1.389 . S
C853 H832 0.950 . S
C853 C852 1.373 . S
C853 C869 1.377 . S
C854 C852 1.389 . S
C854 C855 1.524 . S
C854 C868 1.377 . S
C855 C854 1.524 . S
C855 C856 1.397 . S
C855 C860 1.363 . S
C856 H833 0.950 . S
C856 C855 1.397 . S
C856 C857 1.334 . S
C857 H834 0.950 . S
C857 C856 1.334 . S
C857 C858 1.287 . S
C858 C857 1.287 . S
C858 C859 1.524 . S
C858 H877 0.913 . S
C859 H835 0.950 . S
C859 C858 1.524 . S
C859 C860 1.415 . S
C860 H836 0.950 . S
C860 C855 1.363 . S
C860 C859 1.415 . S
C861 H837 0.951 . S
C861 C862 1.366 . S
C861 C863 1.388 . S
C862 C861 1.366 . S
C862 C866 1.385 . S
C863 H838 0.951 . S
C863 C861 1.388 . S
C863 C864 1.366 . S
C864 C863 1.366 . S
C864 C865 1.414 . S
C864 C867 1.499 . S
C865 H839 0.950 . S
C865 C864 1.414 . S
C865 C866 1.374 . S
C866 H840 0.950 . S
C866 C862 1.385 . S
C866 C865 1.374 . S
C867 C864 1.499 . S
C867 C868 1.373 . S
C867 C869 1.389 . S
C868 H841 0.950 . S
C868 C854 1.377 . S
C868 C867 1.373 . S
C869 C853 1.377 . S
C869 C867 1.389 . S
C869 C870 1.524 . S
C870 C869 1.524 . S
C870 C871 1.397 . S
C870 C875 1.363 . S
C871 H842 0.950 . S
C871 C870 1.397 . S
C871 C872 1.334 . S
C872 H843 0.950 . S
C872 C871 1.334 . S
C872 C873 1.287 . S
C873 C872 1.287 . S
C873 C874 1.524 . S
C873 H876 0.999 . S
C874 H844 0.950 . S
C874 C873 1.524 . S
C874 C875 1.415 . S
C875 H845 0.950 . S
C875 C870 1.363 . S
C875 C874 1.415 . S
H876 C873 0.999 . S
H877 C858 0.913 . S
H878 C896 0.951 . S
H879 C898 0.951 . S
H880 C900 0.950 . S
H881 C901 0.950 . S
H882 C903 0.950 . S
H883 C906 0.950 . S
H884 C907 0.950 . S
H885 C909 0.950 . S
H886 C910 0.950 . S
H887 C911 0.951 . S
H888 C913 0.951 . S
H889 C915 0.950 1_545 S
H890 C916 0.950 1_545 S
H891 C918 0.950 . S
H892 C921 0.950 . S
H893 C922 0.950 . S
H894 C924 0.950 . S
H895 C925 0.950 . S
C896 H878 0.951 . S
C896 C897 1.366 . S
C896 C898 1.388 . S
C897 C896 1.366 . S
C897 C901 1.385 . S
C898 H879 0.951 . S
C898 C896 1.388 . S
C898 C899 1.366 . S
C899 C898 1.366 . S
C899 C900 1.414 . S
C899 C902 1.499 . S
C900 H880 0.950 . S
C900 C899 1.414 . S
C900 C901 1.374 . S
C901 H881 0.950 . S
C901 C897 1.385 . S
C901 C900 1.374 . S
C902 C899 1.499 . S
C902 C903 1.373 . S
C902 C904 1.389 . S
C903 H882 0.950 . S
C903 C902 1.373 . S
C903 C919 1.377 . S
C904 C902 1.389 . S
C904 C905 1.524 . S
C904 C918 1.377 . S
C905 C904 1.524 . S
C905 C906 1.397 . S
C905 C910 1.363 1_565 S
C906 H883 0.950 . S
C906 C905 1.397 . S
C906 C907 1.334 . S
C907 H884 0.950 . S
C907 C906 1.334 . S
C907 C908 1.287 1_565 S
C908 C907 1.287 1_545 S
C908 C909 1.524 . S
C908 H927 0.913 . S
C909 H885 0.950 . S
C909 C908 1.524 . S
C909 C910 1.415 . S
C910 H886 0.950 . S
C910 C905 1.363 1_545 S
C910 C909 1.415 . S
C911 H887 0.951 . S
C911 C912 1.366 . S
C911 C913 1.388 . S
C912 C911 1.366 . S
C912 C916 1.385 . S
C913 H888 0.951 . S
C913 C911 1.388 . S
C913 C914 1.366 . S
C914 C913 1.366 . S
C914 C915 1.414 . S
C914 C917 1.499 . S
C915 H889 0.950 1_565 S
C915 C914 1.414 . S
C915 C916 1.374 . S
C916 H890 0.950 1_565 S
C916 C912 1.385 . S
C916 C915 1.374 . S
C917 C914 1.499 . S
C917 C918 1.373 . S
C917 C919 1.389 . S
C918 H891 0.950 . S
C918 C904 1.377 . S
C918 C917 1.373 . S
C919 C903 1.377 . S
C919 C917 1.389 . S
C919 C920 1.524 . S
C920 C919 1.524 . S
C920 C921 1.397 . S
C920 C925 1.363 . S
C921 H892 0.950 . S
C921 C920 1.397 . S
C921 C922 1.334 . S
C922 H893 0.950 . S
C922 C921 1.334 . S
C922 C923 1.287 . S
C923 C922 1.287 . S
C923 C924 1.524 . S
C923 H926 0.999 . S
C924 H894 0.950 . S
C924 C923 1.524 . S
C924 C925 1.415 . S
C925 H895 0.950 . S
C925 C920 1.363 . S
C925 C924 1.415 . S
H926 C923 0.999 . S
H927 C908 0.913 . S
C362 C228 1.647 . S
C347 C135 1.649 . S
C397 C15 1.636 . S
C412 C300 1.630 . S
C447 C55 1.646 . S
C462 C216 1.638 . S
C497 C95 1.646 . S
C512 C312 1.643 . S
C562 C218 1.415 . S
C547 C2 1.561 . S
C612 C299 1.610 . S
C597 C42 1.610 . S
C647 C82 1.596 . S
C662 C215 1.605 . S
C697 C141 1.521 . S
C712 C302 1.403 . S
C762 C314 1.422 . S
C747 C61 1.566 . S
C812 C230 1.443 . S
C797 C101 1.591 . S
C862 C311 1.641 . S
C847 C122 1.607 . S
C897 C21 1.638 . S
C912 C227 1.638 . S
