# Generated by pormake.
# Topology nia, (6,6)-cn, num edge types: 1
# Building blocks:
#     Node 0, Type 0, BuildingBlock: CUKXOW_clean_sbu_0, # of connection points: 6
#     Node 1, Type 0, BuildingBlock: CUKXOW_clean_sbu_0, # of connection points: 6
#     Node 2, Type 1, BuildingBlock: MIDCAF_clean_sbu_0, # of connection points: 6
#     Node 3, Type 1, BuildingBlock: MIDCAF_clean_sbu_0, # of connection points: 6
#     Edge 4, Type (0, 1), BuildingBlock: MIFKUJ_clean_linker_0, # of connection points: 2
#     Edge 5, Type (0, 1), BuildingBlock: MIFKUJ_clean_linker_0, # of connection points: 2
#     Edge 6, Type (0, 1), BuildingBlock: MIFKUJ_clean_linker_0, # of connection points: 2
#     Edge 7, Type (0, 1), BuildingBlock: MIFKUJ_clean_linker_0, # of connection points: 2
#     Edge 8, Type (0, 1), BuildingBlock: MIFKUJ_clean_linker_0, # of connection points: 2
#     Edge 9, Type (0, 1), BuildingBlock: MIFKUJ_clean_linker_0, # of connection points: 2
#     Edge 10, Type (0, 1), BuildingBlock: MIFKUJ_clean_linker_0, # of connection points: 2
#     Edge 11, Type (0, 1), BuildingBlock: MIFKUJ_clean_linker_0, # of connection points: 2
#     Edge 12, Type (0, 1), BuildingBlock: MIFKUJ_clean_linker_0, # of connection points: 2
#     Edge 13, Type (0, 1), BuildingBlock: MIFKUJ_clean_linker_0, # of connection points: 2
#     Edge 14, Type (0, 1), BuildingBlock: MIFKUJ_clean_linker_0, # of connection points: 2
#     Edge 15, Type (0, 1), BuildingBlock: MIFKUJ_clean_linker_0, # of connection points: 2
# Relax obj value: 0.191
# Max RMSD: 0.252
# Mean RMSD: 0.207
data_MOF--net-nia--node1-CUKXOW_clean_sbu_0--node2-MIDCAF_clean_sbu_0--edge1-MIFKUJ_clean_linker_0
_symmetry_space_group_name_H-M    P1
_symmetry_Int_Tables_number       1
_symmetry_cell_setting            triclinic
loop_
_symmetry_equiv_pos_as_xyz
'x, y, z'
_cell_length_a     31.447446
_cell_length_b     31.441872
_cell_length_c     39.064041
_cell_angle_alpha  88.71574
_cell_angle_beta   88.955576
_cell_angle_gamma 126.54995
loop_
_atom_site_label
_atom_site_type_symbol
_atom_site_fract_x
_atom_site_fract_y
_atom_site_fract_z
_atom_type_partial_charge
Tb0 Tb 0.02855 0.06905 0.02952 0.0
C1 C 0.0962 0.06581 0.97161 0.0
Tb2 Tb 0.97986 0.96326 0.99279 0.0
O3 O 0.08638 0.0603 0.05091 0.0
O4 O 0.01023 0.99299 0.04161 0.0
O5 O 0.08722 0.09703 0.98748 0.0
C6 C 0.95222 0.86964 0.9739 0.0
O7 O 0.06264 0.0131 0.97406 0.0
C8 C 0.96701 0.02716 0.9573 0.0
C9 C 0.90833 0.97151 0.045 0.0
O10 O 0.92098 0.8837 0.97597 0.0
O11 O -0.00083 0.90809 0.98332 0.0
O12 O 0.95174 0.98125 0.9471 0.0
O13 O 0.98838 0.0336 0.98528 0.0
O14 O 0.9171 0.93915 0.03094 0.0
O15 O 0.94411 0.02385 0.04338 0.0
C16 C 0.04925 0.14856 0.06661 0.0
O17 O 0.03626 0.10338 0.07854 0.0
O18 O 0.05069 0.14953 0.03319 0.0
C19 C 0.05538 0.00902 0.05124 0.0
Tb20 Tb 0.95846 0.99378 0.48824 0.0
C21 C 0.96029 0.92123 0.54462 0.0
Tb22 Tb 0.04833 0.04177 0.53337 0.0
O23 O 0.01109 0.01178 0.44421 0.0
O24 O 0.02467 0.99171 0.49161 0.0
O25 O 0.9298 0.92845 0.52621 0.0
C26 C 0.13881 0.08568 0.56539 0.0
O27 O 0.01157 0.95922 0.54676 0.0
C28 C 0.96417 0.02794 0.56152 0.0
C29 C 0.04579 0.11546 0.47781 0.0
O30 O 0.10005 0.087 0.57498 0.0
O31 O 0.12734 0.0608 0.53708 0.0
O32 O 0.99647 0.02268 0.57768 0.0
O33 O 0.98121 0.04294 0.53084 0.0
O34 O 0.07549 0.10977 0.49832 0.0
O35 O 0.99573 0.0759 0.47276 0.0
C36 C 0.86812 0.94409 0.45533 0.0
O37 O 0.90299 0.93489 0.45269 0.0
O38 O 0.88348 0.98072 0.47717 0.0
C39 C 0.04241 0.00591 0.46111 0.0
Zn40 Zn 0.28709 0.70442 0.1981 0.0
Zn41 Zn 0.34056 0.74335 0.32544 0.0
Zn42 Zn 0.30956 0.72127 0.26198 0.0
C43 C 0.43147 0.79222 0.28481 0.0
C44 C 0.27858 0.63235 0.32156 0.0
O45 O 0.27103 0.75939 0.24796 0.0
O46 O 0.2736 0.7577 0.19132 0.0
C47 C 0.39137 0.74692 0.19763 0.0
O48 O 0.3965 0.7666 0.26212 0.0
O49 O 0.41762 0.79148 0.31542 0.0
O50 O 0.30842 0.66892 0.34161 0.0
O51 O 0.272 0.64396 0.29115 0.0
O52 O 0.35367 0.7197 0.17783 0.0
O53 O 0.38203 0.7539 0.22853 0.0
O54 O 0.25465 0.63555 0.25726 0.0
O55 O 0.22472 0.62966 0.20543 0.0
C56 C 0.22277 0.60783 0.2335 0.0
O57 O 0.28214 0.76676 0.28315 0.0
O58 O 0.30645 0.77744 0.33699 0.0
C59 C 0.26366 0.77217 0.21825 0.0
C60 C 0.28452 0.78447 0.31308 0.0
Zn61 Zn 0.70801 0.32864 0.82071 0.0
Zn62 Zn 0.6997 0.30804 0.69682 0.0
Zn63 Zn 0.70098 0.31435 0.75934 0.0
C64 C 0.73667 0.40898 0.70231 0.0
C65 C 0.59602 0.23432 0.72086 0.0
O66 O 0.73813 0.27818 0.78162 0.0
O67 O 0.71559 0.27376 0.83606 0.0
C68 C 0.78148 0.42599 0.79231 0.0
O69 O 0.74028 0.39467 0.73274 0.0
O70 O 0.71343 0.37494 0.6798 0.0
O71 O 0.62598 0.2437 0.69533 0.0
O72 O 0.61612 0.26104 0.74804 0.0
O73 O 0.77389 0.40146 0.82036 0.0
O74 O 0.75324 0.40071 0.76658 0.0
O75 O 0.61966 0.27729 0.78243 0.0
O76 O 0.64004 0.31708 0.83179 0.0
C77 C 0.60577 0.28779 0.81048 0.0
O78 O 0.7374 0.27418 0.74476 0.0
O79 O 0.75564 0.29821 0.68976 0.0
C80 C 0.73599 0.26301 0.81298 0.0
C81 C 0.75893 0.276 0.71579 0.0
H82 H 0.15364 0.0369 0.05954 0.0
H83 H 0.17876 0.98717 0.0906 0.0
H84 H 0.01389 0.85788 0.11029 0.0
H85 H 0.98834 0.9075 0.07838 0.0
H86 H 0.08235 0.89771 0.17027 0.0
H87 H 0.07145 0.83175 0.05955 0.0
H88 H 0.08654 0.83831 0.9969 0.0
H89 H 0.25467 0.93571 0.00915 0.0
H90 H 0.24064 0.93034 0.0719 0.0
H91 H 0.1629 0.73675 0.23373 0.0
H92 H 0.11906 0.7738 0.21007 0.0
H93 H 0.26896 0.90696 0.16577 0.0
H94 H 0.31263 0.87012 0.18969 0.0
H95 H 0.19449 0.85184 0.11801 0.0
H96 H 0.20774 0.93042 0.22527 0.0
H97 H 0.19666 0.93442 0.28732 0.0
H98 H 0.0284 0.81831 0.2818 0.0
H99 H 0.03855 0.81405 0.21938 0.0
C100 C 0.12274 0.99759 0.0701 0.0
C101 C 0.06916 0.97592 0.06672 0.0
C102 C 0.13711 0.96928 0.0878 0.0
C103 C 0.09814 0.91903 0.10273 0.0
C104 C 0.04441 0.8967 0.09893 0.0
C105 C 0.02994 0.9248 0.0806 0.0
C106 C 0.11468 0.89148 0.12319 0.0
C107 C 0.10571 0.88627 0.15887 0.0
C108 C 0.14625 0.87809 0.10821 0.0
C109 C 0.15497 0.88088 0.07047 0.0
C110 C 0.11167 0.85487 0.04889 0.0
C111 C 0.12002 0.85834 0.01335 0.0
C112 C 0.17153 0.88751 0.99905 0.0
C113 C 0.21478 0.91313 0.02027 0.0
C114 C 0.20665 0.9098 0.05584 0.0
C115 C 0.18673 0.77531 0.22051 0.0
C116 C 0.24119 0.80146 0.21418 0.0
C117 C 0.16166 0.79617 0.20671 0.0
C118 C 0.19077 0.84298 0.18603 0.0
C119 C 0.24581 0.87076 0.18163 0.0
C120 C 0.2708 0.85005 0.19552 0.0
C121 C 0.16342 0.85933 0.16531 0.0
C122 C 0.17028 0.86223 0.12948 0.0
C123 C 0.13018 0.87081 0.18018 0.0
C124 C 0.12397 0.8715 0.21779 0.0
C125 C 0.16844 0.9053 0.23735 0.0
C126 C 0.16228 0.9078 0.27258 0.0
C127 C 0.11184 0.87649 0.28859 0.0
C128 C 0.06745 0.84253 0.26936 0.0
C129 C 0.07335 0.8402 0.23403 0.0
H130 H 0.10707 0.87877 0.31581 0.0
H131 H 0.17791 0.89018 0.97152 0.0
H132 H 0.22177 0.08332 0.54912 0.0
H133 H 0.2873 0.09413 0.58809 0.0
H134 H 0.21696 0.1254 0.6703 0.0
H135 H 0.1526 0.11649 0.63106 0.0
H136 H 0.31924 0.18872 0.67322 0.0
H137 H 0.19352 0.00388 0.66618 0.0
H138 H 0.1336 0.91875 0.63855 0.0
H139 H 0.26688 0.93799 0.58814 0.0
H140 H 0.32761 0.02368 0.61503 0.0
H141 H 0.51575 0.20658 0.76678 0.0
H142 H 0.42223 0.16015 0.75537 0.0
H143 H 0.45223 0.13192 0.65322 0.0
H144 H 0.54483 0.1765 0.66528 0.0
H145 H 0.3525 0.0529 0.67661 0.0
H146 H 0.47123 0.24967 0.67396 0.0
H147 H 0.53002 0.3334 0.70345 0.0
H148 H 0.40364 0.28706 0.77589 0.0
H149 H 0.34447 0.20237 0.74735 0.0
C150 C 0.2209 0.09327 0.57537 0.0
C151 C 0.18231 0.099 0.5872 0.0
C152 C 0.25781 0.09876 0.59772 0.0
C153 C 0.25595 0.10902 0.63234 0.0
C154 C 0.21871 0.11693 0.6438 0.0
C155 C 0.18218 0.11205 0.62134 0.0
C156 C 0.29358 0.11223 0.65627 0.0
C157 C 0.32559 0.15838 0.67463 0.0
C158 C 0.30141 0.07234 0.65851 0.0
C159 C 0.26515 0.0204 0.64256 0.0
C160 C 0.21007 0.99012 0.64907 0.0
C161 C 0.17595 0.94174 0.63354 0.0
C162 C 0.19642 0.923 0.61158 0.0
C163 C 0.25108 0.95255 0.60517 0.0
C164 C 0.28539 0.001 0.6206 0.0
C165 C 0.50212 0.18923 0.74249 0.0
C166 C 0.53812 0.19684 0.71694 0.0
C167 C 0.4486 0.16253 0.73588 0.0
C168 C 0.43065 0.14385 0.70312 0.0
C169 C 0.46532 0.14639 0.67866 0.0
C170 C 0.51855 0.17248 0.68551 0.0
C171 C 0.37955 0.13039 0.69187 0.0
C172 C 0.34481 0.08227 0.67601 0.0
C173 C 0.36867 0.1681 0.69229 0.0
C174 C 0.40368 0.21961 0.70874 0.0
C175 C 0.45608 0.25731 0.69625 0.0
C176 C 0.48949 0.3048 0.71287 0.0
C177 C 0.47063 0.31537 0.74165 0.0
C178 C 0.41824 0.2786 0.75375 0.0
C179 C 0.38479 0.23083 0.7374 0.0
H180 H 0.49656 0.35212 0.75452 0.0
H181 H 0.16993 0.88555 0.59957 0.0
H182 H 0.0548 0.14949 0.13551 0.0
H183 H 0.07674 0.22056 0.17284 0.0
H184 H 0.09222 0.31523 0.08498 0.0
H185 H 0.07146 0.24424 0.04718 0.0
H186 H 0.17333 0.37157 0.12635 0.0
H187 H 0.98217 0.25039 0.14111 0.0
H188 H 0.89753 0.16312 0.15487 0.0
H189 H 0.94836 0.16327 0.25616 0.0
H190 H 0.03357 0.25026 0.2429 0.0
H191 H 0.12079 0.5379 0.21567 0.0
H192 H 0.08001 0.44648 0.20002 0.0
H193 H 0.21533 0.45887 0.23652 0.0
H194 H 0.25553 0.54923 0.25269 0.0
H195 H 0.05681 0.34591 0.22476 0.0
H196 H 0.26282 0.43416 0.16956 0.0
H197 H 0.34754 0.52219 0.1573 0.0
H198 H 0.26332 0.58749 0.13538 0.0
H199 H 0.1782 0.49969 0.14698 0.0
C200 C 0.06272 0.18541 0.12413 0.0
C201 C 0.06144 0.19158 0.08851 0.0
C202 C 0.07496 0.22581 0.14553 0.0
C203 C 0.08534 0.27278 0.13173 0.0
C204 C 0.08411 0.27909 0.09609 0.0
C205 C 0.07223 0.23868 0.07457 0.0
C206 C 0.09928 0.31606 0.15438 0.0
C207 C 0.14774 0.36579 0.14781 0.0
C208 C 0.06616 0.30839 0.18268 0.0
C209 C 0.01445 0.25664 0.19089 0.0
C210 C 0.97541 0.23169 0.16626 0.0
C211 C 0.92732 0.18229 0.17398 0.0
C212 C 0.91765 0.15763 0.20633 0.0
C213 C 0.95594 0.18241 0.2311 0.0
C214 C 0.00412 0.23179 0.22351 0.0
C215 C 0.1403 0.51984 0.22197 0.0
C216 C 0.191 0.55005 0.23539 0.0
C217 C 0.11695 0.46768 0.21321 0.0
C218 C 0.1448 0.44602 0.2171 0.0
C219 C 0.19283 0.47439 0.23393 0.0
C220 C 0.21593 0.52624 0.24296 0.0
C221 C 0.13047 0.40089 0.19645 0.0
C222 C 0.08224 0.35115 0.20338 0.0
C223 C 0.16355 0.40833 0.16833 0.0
C224 C 0.21431 0.46055 0.1594 0.0
C225 C 0.26246 0.46725 0.16186 0.0
C226 C 0.31051 0.5171 0.15507 0.0
C227 C 0.31081 0.56043 0.14565 0.0
C228 C 0.26304 0.55392 0.14273 0.0
C229 C 0.21491 0.50414 0.14937 0.0
H230 H 0.34805 0.59903 0.14056 0.0
H231 H 0.88045 0.1194 0.21224 0.0
H232 H 0.93911 0.01273 0.62956 0.0
H233 H 0.8975 0.04499 0.66236 0.0
H234 H 0.8727 0.1014 0.5687 0.0
H235 H 0.91504 0.06953 0.53553 0.0
H236 H 0.93844 0.15174 0.66212 0.0
H237 H 0.7581 0.09339 0.58442 0.0
H238 H 0.69337 0.02195 0.54741 0.0
H239 H 0.71211 0.91316 0.60026 0.0
H240 H 0.77635 0.98372 0.6379 0.0
H241 H 0.84959 0.31233 0.67983 0.0
H242 H 0.8809 0.26102 0.66185 0.0
H243 H 0.75188 0.12456 0.72054 0.0
H244 H 0.72052 0.17621 0.73877 0.0
H245 H 0.75838 0.10511 0.6517 0.0
H246 H 0.87443 0.18309 0.74606 0.0
H247 H 0.9416 0.25585 0.78142 0.0
H248 H 0.05261 0.32504 0.6955 0.0
H249 H 0.98599 0.25355 0.65934 0.0
C250 C 0.92405 0.03125 0.61585 0.0
C251 C 0.93075 0.03915 0.58003 0.0
C252 C 0.90043 0.04976 0.63466 0.0
C253 C 0.88235 0.0758 0.61798 0.0
C254 C 0.88626 0.08117 0.58202 0.0
C255 C 0.91034 0.06295 0.56312 0.0
C256 C 0.86334 0.10092 0.63846 0.0
C257 C 0.89898 0.14143 0.66001 0.0
C258 C 0.81179 0.08705 0.63579 0.0
C259 C 0.77238 0.044 0.61378 0.0
C260 C 0.7482 0.05415 0.58826 0.0
C261 C 0.71164 0.01383 0.56715 0.0
C262 C 0.69876 0.96309 0.57142 0.0
C263 C 0.72227 0.95253 0.5969 0.0
C264 C 0.75881 0.9927 0.6181 0.0
C265 C 0.8288 0.2718 0.68961 0.0
C266 C 0.78308 0.24826 0.71094 0.0
C267 C 0.84668 0.24255 0.67935 0.0
C268 C 0.81877 0.18905 0.68992 0.0
C269 C 0.77401 0.16587 0.7122 0.0
C270 C 0.75638 0.19537 0.72277 0.0
C271 C 0.83378 0.15657 0.67504 0.0
C272 C 0.79759 0.11497 0.65424 0.0
C273 C 0.88504 0.1697 0.67822 0.0
C274 C 0.92499 0.21307 0.69991 0.0
C275 C 0.91296 0.21411 0.73459 0.0
C276 C 0.95094 0.25507 0.7548 0.0
C277 C 0.00122 0.29494 0.74075 0.0
C278 C 0.01364 0.2941 0.70638 0.0
C279 C 0.97579 0.25338 0.68601 0.0
H280 H 0.03058 0.32644 0.75651 0.0
H281 H 0.6705 0.93195 0.55502 0.0
H282 H 0.87633 0.02416 0.07878 0.0
H283 H 0.79052 0.9866 0.10748 0.0
H284 H 0.73719 0.82981 0.08138 0.0
H285 H 0.82269 0.86697 0.05227 0.0
H286 H 0.66522 0.84845 0.0667 0.0
H287 H 0.7765 0.87877 0.16131 0.0
H288 H 0.85407 0.93504 0.19659 0.0
H289 H 0.79862 0.02642 0.22332 0.0
H290 H 0.72202 0.97238 0.18698 0.0
H291 H 0.42453 0.6977 0.16241 0.0
H292 H 0.5141 0.73565 0.14004 0.0
H293 H 0.56985 0.88633 0.18116 0.0
H294 H 0.48038 0.84742 0.20484 0.0
H295 H 0.64181 0.87274 0.18888 0.0
H296 H 0.54195 0.85813 0.09366 0.0
H297 H 0.46736 0.81417 0.05479 0.0
H298 H 0.50235 0.7062 0.02752 0.0
H299 H 0.57677 0.7491 0.0666 0.0
C300 C 0.8465 0.98163 0.07919 0.0
C301 C 0.85658 0.94861 0.06316 0.0
C302 C 0.79747 0.96021 0.0958 0.0
C303 C 0.75756 0.90532 0.09692 0.0
C304 C 0.76746 0.87228 0.08094 0.0
C305 C 0.81646 0.89363 0.06434 0.0
C306 C 0.70476 0.88227 0.11362 0.0
C307 C 0.66006 0.85313 0.09355 0.0
C308 C 0.69823 0.89034 0.14833 0.0
C309 C 0.74386 0.92197 0.17086 0.0
C310 C 0.78116 0.9113 0.17431 0.0
C311 C 0.82508 0.94292 0.19446 0.0
C312 C 0.83158 0.98466 0.21188 0.0
C313 C 0.79388 0.99449 0.20951 0.0
C314 C 0.7503 0.96347 0.18904 0.0
C315 C 0.45607 0.73885 0.16675 0.0
C316 C 0.44583 0.76976 0.18526 0.0
C317 C 0.50719 0.76063 0.15384 0.0
C318 C 0.54873 0.8143 0.15816 0.0
C319 C 0.53859 0.84492 0.17733 0.0
C320 C 0.48754 0.82278 0.19081 0.0
C321 C 0.60223 0.83862 0.14197 0.0
C322 C 0.64698 0.86798 0.16205 0.0
C323 C 0.60918 0.83228 0.10697 0.0
C324 C 0.56461 0.8065 0.08331 0.0
C325 C 0.53352 0.82478 0.07955 0.0
C326 C 0.4913 0.80009 0.05746 0.0
C327 C 0.48004 0.75733 0.03877 0.0
C328 C 0.51108 0.73928 0.04206 0.0
C329 C 0.55331 0.76379 0.06415 0.0
H330 H 0.44733 0.73826 0.02168 0.0
H331 H 0.86572 0.00932 0.2273 0.0
H332 H 0.85818 0.83025 0.54437 0.0
H333 H 0.82123 0.74624 0.57593 0.0
H334 H 0.97277 0.8128 0.61984 0.0
H335 H 0.01018 0.8962 0.58798 0.0
H336 H 0.93283 0.7173 0.59957 0.0
H337 H 0.86856 0.79444 0.66689 0.0
H338 H 0.82406 0.83643 0.67761 0.0
H339 H 0.67806 0.69851 0.64343 0.0
H340 H 0.7219 0.65597 0.63202 0.0
H341 H 0.83322 0.49897 0.71771 0.0
H342 H 0.87215 0.59014 0.69715 0.0
H343 H 0.7302 0.53392 0.6431 0.0
H344 H 0.69099 0.44343 0.66431 0.0
H345 H 0.76849 0.62751 0.67296 0.0
H346 H 0.83623 0.55429 0.60183 0.0
H347 H 0.88168 0.51321 0.59128 0.0
H348 H 0.02286 0.64591 0.63412 0.0
H349 H 0.97795 0.68745 0.64534 0.0
C350 C 0.88362 0.82702 0.56076 0.0
C351 C 0.93714 0.87005 0.5636 0.0
C352 C 0.86237 0.77903 0.57896 0.0
C353 C 0.89405 0.77333 0.60064 0.0
C354 C 0.94751 0.81617 0.60333 0.0
C355 C 0.96881 0.86395 0.58507 0.0
C356 C 0.87194 0.72244 0.61997 0.0
C357 C 0.89738 0.69818 0.61606 0.0
C358 C 0.8253 0.69698 0.64119 0.0
C359 C 0.79865 0.72221 0.64831 0.0
C360 C 0.82705 0.7732 0.66143 0.0
C361 C 0.80194 0.79709 0.66766 0.0
C362 C 0.7483 0.7702 0.66113 0.0
C363 C 0.71963 0.71931 0.64844 0.0
C364 C 0.74457 0.69527 0.64212 0.0
C365 C 0.80994 0.5065 0.70227 0.0
C366 C 0.75892 0.4645 0.69299 0.0
C367 C 0.83234 0.55839 0.69021 0.0
C368 C 0.80418 0.5688 0.66836 0.0
C369 C 0.75258 0.52693 0.65999 0.0
C370 C 0.73035 0.47526 0.67197 0.0
C371 C 0.8292 0.62241 0.6523 0.0
C372 C 0.80426 0.64706 0.65675 0.0
C373 C 0.87647 0.64844 0.63172 0.0
C374 C 0.90357 0.62367 0.62477 0.0
C375 C 0.87684 0.57451 0.60923 0.0
C376 C 0.90252 0.55117 0.60309 0.0
C377 C 0.95508 0.57685 0.61212 0.0
C378 C 0.98212 0.62601 0.62721 0.0
C379 C 0.95659 0.64948 0.63344 0.0
H380 H 0.97489 0.55873 0.60735 0.0
H381 H 0.72893 0.78877 0.66596 0.0
H382 H 0.08357 0.95854 0.48994 0.0
H383 H 0.12845 0.9269 0.46012 0.0
H384 H 0.12055 0.99234 0.3643 0.0
H385 H 0.07538 0.02387 0.39395 0.0
H386 H 0.08627 0.85467 0.4073 0.0
H387 H 0.23338 0.03099 0.31571 0.0
H388 H 0.28414 0.12835 0.31219 0.0
H389 H 0.28771 0.1321 0.42197 0.0
H390 H 0.23762 0.03489 0.4261 0.0
H391 H 0.19326 0.76721 0.29122 0.0
H392 H 0.1553 0.8128 0.30959 0.0
H393 H 0.28984 0.91288 0.37211 0.0
H394 H 0.32828 0.86892 0.35282 0.0
H395 H 0.2593 0.96852 0.34305 0.0
H396 H 0.17526 0.79911 0.40633 0.0
H397 H 0.12504 0.70181 0.41003 0.0
H398 H 0.99646 0.68474 0.35851 0.0
H399 H 0.04625 0.782 0.3542 0.0
C400 C 0.09209 0.96684 0.46261 0.0
C401 C 0.07587 0.99346 0.44419 0.0
C402 C 0.11737 0.94846 0.4456 0.0
C403 C 0.12754 0.95709 0.41002 0.0
C404 C 0.11319 0.98544 0.39178 0.0
C405 C 0.0875 0.00346 0.40874 0.0
C406 C 0.15147 0.93474 0.39192 0.0
C407 C 0.12401 0.87956 0.39314 0.0
C408 C 0.20048 0.96716 0.37329 0.0
C409 C 0.23131 0.02566 0.37119 0.0
C410 C 0.24519 0.05265 0.33907 0.0
C411 C 0.2738 0.10779 0.33698 0.0
C412 C 0.28898 0.13637 0.36684 0.0
C413 C 0.27575 0.10989 0.39887 0.0
C414 C 0.24718 0.05477 0.4011 0.0
C415 C 0.21539 0.80024 0.30779 0.0
C416 C 0.26374 0.81491 0.32032 0.0
C417 C 0.19347 0.82577 0.3187 0.0
C418 C 0.21955 0.86592 0.34255 0.0
C419 C 0.26905 0.88213 0.35371 0.0
C420 C 0.29079 0.85674 0.34284 0.0
C421 C 0.19406 0.88841 0.35835 0.0
C422 C 0.22127 0.9436 0.35688 0.0
C423 C 0.14472 0.85602 0.37668 0.0
C424 C 0.11453 0.79768 0.37978 0.0
C425 C 0.13635 0.77455 0.3957 0.0
C426 C 0.10798 0.71945 0.3979 0.0
C427 C 0.05762 0.68712 0.38447 0.0
C428 C 0.03547 0.70983 0.36889 0.0
C429 C 0.0637 0.76491 0.3666 0.0
H430 H 0.03574 0.64447 0.38617 0.0
H431 H 0.31109 0.17905 0.36517 0.0
H432 H 0.16661 0.16865 0.94615 0.0
H433 H 0.25094 0.20714 0.91419 0.0
H434 H 0.22454 0.05596 0.92062 0.0
H435 H 0.14059 0.01723 0.95197 0.0
H436 H 0.32525 0.14108 0.94084 0.0
H437 H 0.20792 0.09509 0.84805 0.0
H438 H 0.14319 0.09676 0.8146 0.0
H439 H 0.25522 0.26526 0.79788 0.0
H440 H 0.32038 0.26473 0.83174 0.0
H441 H 0.53197 0.18733 0.83473 0.0
H442 H 0.44225 0.14929 0.85731 0.0
H443 H 0.46629 0.29701 0.83301 0.0
H444 H 0.55551 0.3343 0.80928 0.0
H445 H 0.36673 0.21634 0.82162 0.0
H446 H 0.48304 0.26546 0.91462 0.0
H447 H 0.5492 0.26703 0.94867 0.0
H448 H 0.44121 0.09836 0.96647 0.0
H449 H 0.37465 0.09568 0.9321 0.0
C450 C 0.17871 0.14362 0.94061 0.0
C451 C 0.14675 0.08985 0.9516 0.0
C452 C 0.22676 0.16559 0.92224 0.0
C453 C 0.24389 0.13432 0.91493 0.0
C454 C 0.21206 0.08077 0.92591 0.0
C455 C 0.16391 0.05868 0.94377 0.0
C456 C 0.29585 0.1574 0.89703 0.0
C457 C 0.33416 0.15714 0.91466 0.0
C458 C 0.30797 0.17964 0.86319 0.0
C459 C 0.26875 0.17997 0.8429 0.0
C460 C 0.21855 0.1326 0.83761 0.0
C461 C 0.18182 0.13331 0.81848 0.0
C462 C 0.19499 0.18112 0.80425 0.0
C463 C 0.24501 0.22828 0.80901 0.0
C464 C 0.28185 0.22779 0.82816 0.0
C465 C 0.5175 0.21114 0.83369 0.0
C466 C 0.54998 0.26333 0.82 0.0
C467 C 0.46649 0.18964 0.84676 0.0
C468 C 0.44775 0.22059 0.84751 0.0
C469 C 0.47979 0.27235 0.83281 0.0
C470 C 0.53068 0.29367 0.81934 0.0
C471 C 0.39622 0.19999 0.86539 0.0
C472 C 0.35802 0.2007 0.84785 0.0
C473 C 0.38433 0.17878 0.89955 0.0
C474 C 0.42405 0.18033 0.92054 0.0
C475 C 0.47353 0.22866 0.92562 0.0
C476 C 0.51109 0.22976 0.94499 0.0
C477 C 0.49946 0.18281 0.95965 0.0
C478 C 0.45018 0.13468 0.95506 0.0
C479 C 0.41251 0.13336 0.93566 0.0
H480 H 0.5286 0.18373 0.97464 0.0
H481 H 0.16651 0.18159 0.78944 0.0
H482 H 0.13914 0.21158 0.49015 0.0
H483 H 0.17575 0.29738 0.4612 0.0
H484 H 0.04137 0.22324 0.39655 0.0
H485 H 0.00437 0.13744 0.42535 0.0
H486 H 0.13687 0.29179 0.36025 0.0
H487 H 0.04723 0.29391 0.45978 0.0
H488 H 0.02464 0.28568 0.52151 0.0
H489 H 0.18623 0.41279 0.54063 0.0
H490 H 0.20999 0.42126 0.47903 0.0
H491 H 0.18114 0.54168 0.30666 0.0
H492 H 0.14175 0.45042 0.32757 0.0
H493 H 0.27896 0.50778 0.38718 0.0
H494 H 0.31959 0.598 0.36483 0.0
H495 H 0.17767 0.44564 0.42435 0.0
H496 H 0.26923 0.44094 0.32723 0.0
H497 H 0.29738 0.44037 0.26804 0.0
H498 H 0.13657 0.31619 0.24518 0.0
H499 H 0.10721 0.31658 0.30409 0.0
C500 C 0.11736 0.21347 0.46977 0.0
C501 C 0.06871 0.16759 0.46018 0.0
C502 C 0.13824 0.2626 0.45334 0.0
C503 C 0.11106 0.26678 0.42689 0.0
C504 C 0.06294 0.22096 0.41693 0.0
C505 C 0.04178 0.17195 0.43354 0.0
C506 C 0.13304 0.3189 0.40946 0.0
C507 C 0.14484 0.32526 0.37407 0.0
C508 C 0.14464 0.36276 0.42775 0.0
C509 C 0.13049 0.35787 0.46481 0.0
C510 C 0.07806 0.31981 0.47718 0.0
C511 C 0.06502 0.31515 0.51214 0.0
C512 C 0.104 0.3486 0.53499 0.0
C513 C 0.15609 0.38686 0.5229 0.0
C514 C 0.16936 0.39164 0.48796 0.0
C515 C 0.20362 0.53442 0.32315 0.0
C516 C 0.25398 0.57679 0.33333 0.0
C517 C 0.18094 0.48241 0.33533 0.0
C518 C 0.20774 0.47228 0.35864 0.0
C519 C 0.25782 0.51463 0.36898 0.0
C520 C 0.2808 0.56621 0.35634 0.0
C521 C 0.18183 0.41876 0.37503 0.0
C522 C 0.16909 0.4121 0.41034 0.0
C523 C 0.16958 0.37471 0.3566 0.0
C524 C 0.18592 0.37934 0.32002 0.0
C525 C 0.23965 0.41439 0.30939 0.0
C526 C 0.25591 0.41365 0.27598 0.0
C527 C 0.21881 0.37795 0.25296 0.0
C528 C 0.16524 0.34367 0.26308 0.0
C529 C 0.14877 0.34424 0.29645 0.0
H530 H 0.23148 0.37726 0.22716 0.0
H531 H 0.09382 0.34495 0.56205 0.0
H532 H 0.94682 0.0272 0.89054 0.0
H533 H 0.91549 0.07378 0.86256 0.0
H534 H 0.92871 0.1486 0.95695 0.0
H535 H 0.9617 0.10306 0.98497 0.0
H536 H 0.81691 0.06723 0.91094 0.0
H537 H 0.0 0.23385 0.91656 0.0
H538 H 0.09607 0.28484 0.90366 0.0
H539 H 0.06702 0.25319 0.79693 0.0
H540 H 0.97075 0.20101 0.80942 0.0
H541 H 0.72017 0.21186 0.87405 0.0
H542 H 0.7653 0.1761 0.89509 0.0
H543 H 0.84884 0.21448 0.79721 0.0
H544 H 0.80892 0.25735 0.77773 0.0
H545 H 0.91383 0.23616 0.84168 0.0
H546 H 0.74012 0.08075 0.82795 0.0
H547 H 0.64253 0.02088 0.83287 0.0
H548 H 0.64833 0.01523 0.9425 0.0
H549 H 0.74596 0.07566 0.93828 0.0
C550 C 0.94429 0.05462 0.90507 0.0
C551 C 0.95658 0.06174 0.93982 0.0
C552 C 0.92649 0.08113 0.88907 0.0
C553 C 0.92009 0.11457 0.90772 0.0
C554 C 0.93403 0.12324 0.94217 0.0
C555 C 0.95289 0.09743 0.95807 0.0
C556 C 0.89313 0.1353 0.89218 0.0
C557 C 0.83789 0.10451 0.89615 0.0
C558 C 0.92053 0.18209 0.87125 0.0
C559 C 0.97831 0.21341 0.86393 0.0
C560 C 0.01413 0.23737 0.89042 0.0
C561 C 0.0686 0.26651 0.88318 0.0
C562 C 0.08765 0.27218 0.84951 0.0
C563 C 0.05226 0.24876 0.823 0.0
C564 C -0.00223 0.21946 0.83014 0.0
C565 C 0.74795 0.21255 0.85679 0.0
C566 C 0.75947 0.23584 0.82354 0.0
C567 C 0.77338 0.19138 0.86881 0.0
C568 C 0.80944 0.19085 0.84747 0.0
C569 C 0.82081 0.21377 0.81412 0.0
C570 C 0.7968 0.23695 0.80253 0.0
C571 C 0.83686 0.16871 0.86086 0.0
C572 C 0.89224 0.19875 0.85628 0.0
C573 C 0.80919 0.11986 0.88011 0.0
C574 C 0.75041 0.08306 0.88279 0.0
C575 C 0.72059 0.06699 0.85312 0.0
C576 C 0.66526 0.03293 0.85579 0.0
C577 C 0.63925 0.01435 0.88798 0.0
C578 C 0.66853 0.02967 0.91758 0.0
C579 C 0.72387 0.06377 0.91506 0.0
H580 H 0.59641 0.98801 0.88999 0.0
H581 H 0.12983 0.29478 0.84395 0.0
H582 H 0.83933 0.87421 0.4052 0.0
H583 H 0.77103 0.84611 0.36336 0.0
H584 H 0.72966 0.93954 0.41189 0.0
H585 H 0.79757 0.96734 0.45397 0.0
H586 H 0.64294 0.84061 0.39685 0.0
H587 H 0.80752 0.98769 0.33706 0.0
H588 H 0.89992 0.02934 0.3173 0.0
H589 H 0.84896 0.89259 0.25988 0.0
H590 H 0.75621 0.85044 0.27907 0.0
H591 H 0.51363 0.8925 0.29716 0.0
H592 H 0.60315 0.92095 0.30744 0.0
H593 H 0.56433 0.77508 0.26831 0.0
H594 H 0.47464 0.74684 0.25732 0.0
H595 H 0.69157 0.889 0.27287 0.0
H596 H 0.52867 0.73802 0.33592 0.0
H597 H 0.43635 0.695 0.35662 0.0
H598 H 0.4849 0.83521 0.40893 0.0
H599 H 0.57738 0.87918 0.38811 0.0
C600 C 0.8152 0.88824 0.40712 0.0
C601 C 0.8235 0.9229 0.4327 0.0
C602 C 0.77661 0.87252 0.38308 0.0
C603 C 0.74602 0.89146 0.38427 0.0
C604 C 0.75314 0.92473 0.41051 0.0
C605 C 0.79172 0.94046 0.43454 0.0
C606 C 0.70631 0.87677 0.35833 0.0
C607 C 0.65367 0.85099 0.36979 0.0
C608 C 0.72006 0.88917 0.32288 0.0
C609 C 0.77516 0.91586 0.30964 0.0
C610 C 0.81609 0.96666 0.32012 0.0
C611 C 0.86848 0.99032 0.30905 0.0
C612 C 0.88034 0.96349 0.28752 0.0
C613 C 0.83974 0.91323 0.27667 0.0
C614 C 0.78723 0.8896 0.28744 0.0
C615 C 0.52529 0.86805 0.2888 0.0
C616 C 0.48758 0.81737 0.27699 0.0
C617 C 0.57652 0.88447 0.29438 0.0
C618 C 0.58978 0.84965 0.28912 0.0
C619 C 0.55472 0.80249 0.27234 0.0
C620 C 0.50344 0.78626 0.26631 0.0
C621 C 0.62879 0.85359 0.31175 0.0
C622 C 0.68095 0.8775 0.29982 0.0
C623 C 0.61471 0.83866 0.34687 0.0
C624 C 0.55965 0.81185 0.36036 0.0
C625 C 0.51953 0.75961 0.3518 0.0
C626 C 0.46724 0.73509 0.36353 0.0
C627 C 0.45478 0.76234 0.3841 0.0
C628 C 0.49462 0.81413 0.39303 0.0
C629 C 0.54696 0.83884 0.38131 0.0
H630 H 0.41425 0.74336 0.39307 0.0
H631 H 0.92093 0.98178 0.27906 0.0
H632 H 0.0155 0.8382 0.96231 0.0
H633 H -0.00306 0.76745 0.92515 0.0
H634 H 0.84243 0.72803 0.9068 0.0
H635 H 0.85993 0.79669 0.94477 0.0
H636 H 0.83446 0.64224 0.91335 0.0
H637 H 0.95302 0.80868 0.84964 0.0
H638 H 0.0354 0.89907 0.83969 0.0
H639 H 0.12656 0.83816 0.84236 0.0
H640 H 0.04472 0.74744 0.85277 0.0
H641 H 0.75972 0.4942 0.7732 0.0
H642 H 0.8056 0.58407 0.79359 0.0
H643 H 0.92812 0.57639 0.83309 0.0
H644 H 0.88231 0.48657 0.81276 0.0
H645 H 0.95728 0.68744 0.81393 0.0
H646 H 0.83668 0.52264 0.8848 0.0
H647 H 0.75312 0.43226 0.89107 0.0
H648 H 0.66452 0.49348 0.87168 0.0
H649 H 0.74775 0.58417 0.8648 0.0
C650 C 0.97725 0.81357 0.95084 0.0
C651 C 0.93916 0.82279 0.95621 0.0
C652 C 0.96691 0.77367 0.92935 0.0
C653 C 0.91876 0.74331 0.91257 0.0
C654 C 0.87993 0.7511 0.91932 0.0
C655 C 0.88994 0.79031 0.94106 0.0
C656 C 0.9085 0.70397 0.88741 0.0
C657 C 0.86125 0.65254 0.89153 0.0
C658 C 0.94367 0.71699 0.85906 0.0
C659 C 0.99282 0.77137 0.85231 0.0
C660 C 0.99067 0.81461 0.8483 0.0
C661 C 0.03725 0.8659 0.84256 0.0
C662 C 0.0862 0.87437 0.84049 0.0
C663 C 0.08863 0.83155 0.84402 0.0
C664 C 0.04216 0.78018 0.84981 0.0
C665 C 0.79801 0.51297 0.78441 0.0
C666 C 0.81761 0.48388 0.7917 0.0
C667 C 0.8242 0.56424 0.796 0.0
C668 C 0.86975 0.58627 0.81516 0.0
C669 C 0.89317 0.56002 0.81819 0.0
C670 C 0.86685 0.50868 0.80679 0.0
C671 C 0.8831 0.62691 0.83981 0.0
C672 C 0.9308 0.67785 0.83578 0.0
C673 C 0.84831 0.61392 0.8682 0.0
C674 C 0.79828 0.55996 0.87409 0.0
C675 C 0.79934 0.51674 0.88183 0.0
C676 C 0.75209 0.46549 0.88545 0.0
C677 C 0.70354 0.45711 0.8817 0.0
C678 C 0.70215 0.50003 0.87455 0.0
C679 C 0.74933 0.55135 0.87083 0.0
H680 H 0.667 0.41739 0.88439 0.0
H681 H 0.12222 0.91411 0.83607 0.0
loop_
_geom_bond_atom_site_label_1
_geom_bond_atom_site_label_2
_geom_bond_distance
_geom_bond_site_symmetry_2
_ccdc_geom_bond_type
Tb0 O3 2.453 1_545 S
Tb0 O4 2.596 1_545 S
Tb0 O5 2.374 1_554 S
Tb0 O13 2.359 1_554 S
Tb0 O15 2.353 1_455 S
Tb0 O17 2.427 . S
Tb0 O18 2.513 . S
C1 O5 1.251 . S
C1 O7 1.263 . S
Tb2 O4 2.343 1_656 S
Tb2 O7 2.353 1_665 S
Tb2 O10 2.427 . S
Tb2 O11 2.513 . S
Tb2 O12 2.453 1_565 S
Tb2 O13 2.604 1_665 S
Tb2 O14 2.374 1_556 S
O3 Tb0 2.453 1_565 S
O3 C19 1.245 . S
O4 Tb0 2.596 1_565 S
O4 Tb2 2.343 1_454 S
O4 C19 1.259 . S
O5 Tb0 2.374 1_556 S
O5 C1 1.251 . S
C6 O10 1.275 . S
C6 O11 1.246 . S
O7 C1 1.263 . S
O7 Tb2 2.353 1_445 S
C8 O12 1.245 . S
C8 O13 1.240 1_655 S
C9 O14 1.250 . S
C9 O15 1.263 1_565 S
O10 Tb2 2.427 . S
O10 C6 1.275 . S
O11 Tb2 2.513 . S
O11 C6 1.246 . S
O12 Tb2 2.453 1_545 S
O12 C8 1.245 . S
O13 Tb0 2.359 1_556 S
O13 Tb2 2.604 1_445 S
O13 C8 1.240 1_455 S
O14 Tb2 2.374 1_554 S
O14 C9 1.250 . S
O15 Tb0 2.353 1_655 S
O15 C9 1.263 1_545 S
C16 O17 1.275 . S
C16 O18 1.246 . S
O17 Tb0 2.427 . S
O17 C16 1.275 . S
O18 Tb0 2.513 . S
O18 C16 1.246 . S
C19 O3 1.245 . S
C19 O4 1.259 . S
Tb20 O23 2.453 1_655 S
Tb20 O24 2.596 1_665 S
Tb20 O25 2.374 . S
Tb20 O33 2.343 1_565 S
Tb20 O35 2.353 1_665 S
Tb20 O37 2.430 . S
Tb20 O38 2.513 . S
C21 O25 1.251 . S
C21 O27 1.263 . S
Tb22 O24 2.343 . S
Tb22 O27 2.353 1_445 S
Tb22 O30 2.427 . S
Tb22 O31 2.513 . S
Tb22 O32 2.453 1_455 S
Tb22 O33 2.596 1_455 S
Tb22 O34 2.374 . S
O23 Tb20 2.453 1_455 S
O23 C39 1.245 . S
O24 Tb20 2.596 1_445 S
O24 Tb22 2.343 . S
O24 C39 1.259 1_545 S
O25 Tb20 2.374 . S
O25 C21 1.251 . S
C26 O30 1.275 . S
C26 O31 1.246 . S
O27 C21 1.263 . S
O27 Tb22 2.353 1_665 S
C28 O32 1.245 . S
C28 O33 1.259 . S
C29 O34 1.250 . S
C29 O35 1.263 . S
O30 Tb22 2.427 . S
O30 C26 1.275 . S
O31 Tb22 2.513 . S
O31 C26 1.246 . S
O32 Tb22 2.453 1_655 S
O32 C28 1.245 . S
O33 Tb20 2.343 1_545 S
O33 Tb22 2.596 1_655 S
O33 C28 1.259 . S
O34 Tb22 2.374 . S
O34 C29 1.250 . S
O35 Tb20 2.353 1_445 S
O35 C29 1.263 . S
C36 O37 1.276 . S
C36 O38 1.246 . S
O37 Tb20 2.430 . S
O37 C36 1.276 . S
O38 Tb20 2.513 . S
O38 C36 1.246 . S
C39 O23 1.245 . S
C39 O24 1.259 1_565 S
Zn40 O46 1.920 . S
Zn40 O52 1.898 . S
Zn40 O55 1.905 . S
Zn41 O49 1.905 . S
Zn41 O50 1.898 . S
Zn41 O58 1.920 . S
Zn42 O45 2.080 . S
Zn42 O48 2.114 . S
Zn42 O51 2.120 . S
Zn42 O53 2.120 . S
Zn42 O54 2.114 . S
Zn42 O57 2.080 . S
C43 O48 1.166 . S
C43 O49 1.182 . S
C44 O50 1.167 . S
C44 O51 1.299 . S
O45 Zn42 2.080 . S
O45 C59 1.305 . S
O46 Zn40 1.920 . S
O46 C59 1.234 . S
C47 O52 1.167 . S
C47 O53 1.299 . S
O48 Zn42 2.114 . S
O48 C43 1.166 . S
O49 Zn41 1.905 . S
O49 C43 1.182 . S
O50 Zn41 1.898 . S
O50 C44 1.167 . S
O51 Zn42 2.120 . S
O51 C44 1.299 . S
O52 Zn40 1.898 . S
O52 C47 1.167 . S
O53 Zn42 2.120 . S
O53 C47 1.299 . S
O54 Zn42 2.114 . S
O54 C56 1.166 . S
O55 Zn40 1.905 . S
O55 C56 1.182 . S
C56 O54 1.166 . S
C56 O55 1.182 . S
O57 Zn42 2.080 . S
O57 C60 1.305 . S
O58 Zn41 1.920 . S
O58 C60 1.234 . S
C59 O45 1.305 . S
C59 O46 1.234 . S
C60 O57 1.305 . S
C60 O58 1.234 . S
Zn61 O67 1.920 . S
Zn61 O73 1.898 . S
Zn61 O76 1.905 . S
Zn62 O70 1.905 . S
Zn62 O71 1.898 . S
Zn62 O79 1.920 . S
Zn63 O66 2.080 . S
Zn63 O69 2.114 . S
Zn63 O72 2.120 . S
Zn63 O74 2.120 . S
Zn63 O75 2.114 . S
Zn63 O78 2.080 . S
C64 O69 1.166 . S
C64 O70 1.182 . S
C65 O71 1.167 . S
C65 O72 1.299 . S
O66 Zn63 2.080 . S
O66 C80 1.305 . S
O67 Zn61 1.920 . S
O67 C80 1.234 . S
C68 O73 1.167 . S
C68 O74 1.299 . S
O69 Zn63 2.114 . S
O69 C64 1.166 . S
O70 Zn62 1.905 . S
O70 C64 1.182 . S
O71 Zn62 1.898 . S
O71 C65 1.167 . S
O72 Zn63 2.120 . S
O72 C65 1.299 . S
O73 Zn61 1.898 . S
O73 C68 1.167 . S
O74 Zn63 2.120 . S
O74 C68 1.299 . S
O75 Zn63 2.114 . S
O75 C77 1.166 . S
O76 Zn61 1.905 . S
O76 C77 1.182 . S
C77 O75 1.166 . S
C77 O76 1.182 . S
O78 Zn63 2.080 . S
O78 C81 1.305 . S
O79 Zn62 1.920 . S
O79 C81 1.234 . S
C80 O66 1.305 . S
C80 O67 1.234 . S
C81 O78 1.305 . S
C81 O79 1.234 . S
H82 C100 0.951 . S
H83 C102 0.951 . S
H84 C104 0.950 . S
H85 C105 0.950 1_655 S
H86 C107 0.950 . S
H87 C110 0.950 . S
H88 C111 0.947 1_556 S
H89 C113 0.950 . S
H90 C114 0.950 . S
H91 C115 0.951 . S
H92 C117 0.951 . S
H93 C119 0.950 . S
H94 C120 0.950 . S
H95 C122 0.950 . S
H96 C125 0.950 . S
H97 C126 0.950 . S
H98 C128 0.950 . S
H99 C129 0.950 . S
C100 H82 0.951 . S
C100 C101 1.366 . S
C100 C102 1.388 . S
C101 C100 1.366 . S
C101 C105 1.385 . S
C102 H83 0.951 . S
C102 C100 1.388 . S
C102 C103 1.366 . S
C103 C102 1.366 . S
C103 C104 1.414 . S
C103 C106 1.499 . S
C104 H84 0.950 . S
C104 C103 1.414 . S
C104 C105 1.374 . S
C105 H85 0.950 1_455 S
C105 C101 1.385 . S
C105 C104 1.374 . S
C106 C103 1.499 . S
C106 C107 1.373 . S
C106 C108 1.389 . S
C107 H86 0.950 . S
C107 C106 1.373 . S
C107 C123 1.377 . S
C108 C106 1.389 . S
C108 C109 1.524 . S
C108 C122 1.377 . S
C109 C108 1.524 . S
C109 C110 1.397 . S
C109 C114 1.363 . S
C110 H87 0.950 . S
C110 C109 1.397 . S
C110 C111 1.342 . S
C111 H88 0.947 1_554 S
C111 C110 1.342 . S
C111 C112 1.283 1_554 S
C112 C111 1.283 1_556 S
C112 C113 1.524 . S
C112 H131 0.913 . S
C113 H89 0.950 . S
C113 C112 1.524 . S
C113 C114 1.415 1_556 S
C114 H90 0.950 . S
C114 C109 1.363 . S
C114 C113 1.415 1_554 S
C115 H91 0.951 . S
C115 C116 1.366 . S
C115 C117 1.388 . S
C116 C115 1.366 . S
C116 C120 1.385 . S
C117 H92 0.951 . S
C117 C115 1.388 . S
C117 C118 1.366 . S
C118 C117 1.366 . S
C118 C119 1.414 . S
C118 C121 1.499 . S
C119 H93 0.950 . S
C119 C118 1.414 . S
C119 C120 1.374 . S
C120 H94 0.950 . S
C120 C116 1.385 . S
C120 C119 1.374 . S
C121 C118 1.499 . S
C121 C122 1.373 . S
C121 C123 1.389 . S
C122 H95 0.950 . S
C122 C108 1.377 . S
C122 C121 1.373 . S
C123 C107 1.377 . S
C123 C121 1.389 . S
C123 C124 1.524 . S
C124 C123 1.524 . S
C124 C125 1.397 . S
C124 C129 1.363 . S
C125 H96 0.950 . S
C125 C124 1.397 . S
C125 C126 1.334 . S
C126 H97 0.950 . S
C126 C125 1.334 . S
C126 C127 1.287 . S
C127 C126 1.287 . S
C127 C128 1.524 . S
C127 H130 0.999 . S
C128 H98 0.950 . S
C128 C127 1.524 . S
C128 C129 1.415 . S
C129 H99 0.950 . S
C129 C124 1.363 . S
C129 C128 1.415 . S
H130 C127 0.999 . S
H131 C112 0.913 . S
H132 C150 0.951 . S
H133 C152 0.951 . S
H134 C154 0.950 . S
H135 C155 0.950 . S
H136 C157 0.950 . S
H137 C160 0.950 . S
H138 C161 0.950 . S
H139 C163 0.950 . S
H140 C164 0.950 . S
H141 C165 0.951 . S
H142 C167 0.951 . S
H143 C169 0.950 . S
H144 C170 0.950 . S
H145 C172 0.950 . S
H146 C175 0.950 . S
H147 C176 0.950 . S
H148 C178 0.950 . S
H149 C179 0.950 . S
C150 H132 0.951 . S
C150 C151 1.366 . S
C150 C152 1.388 . S
C151 C150 1.366 . S
C151 C155 1.385 . S
C152 H133 0.951 . S
C152 C150 1.388 . S
C152 C153 1.366 . S
C153 C152 1.366 . S
C153 C154 1.414 . S
C153 C156 1.499 . S
C154 H134 0.950 . S
C154 C153 1.414 . S
C154 C155 1.374 . S
C155 H135 0.950 . S
C155 C151 1.385 . S
C155 C154 1.374 . S
C156 C153 1.499 . S
C156 C157 1.373 . S
C156 C158 1.389 . S
C157 H136 0.950 . S
C157 C156 1.373 . S
C157 C173 1.377 . S
C158 C156 1.389 . S
C158 C159 1.524 . S
C158 C172 1.377 . S
C159 C158 1.524 . S
C159 C160 1.397 . S
C159 C164 1.363 . S
C160 H137 0.950 . S
C160 C159 1.397 . S
C160 C161 1.334 1_545 S
C161 H138 0.950 . S
C161 C160 1.334 1_565 S
C161 C162 1.287 . S
C162 C161 1.287 . S
C162 C163 1.524 . S
C162 H181 0.913 . S
C163 H139 0.950 . S
C163 C162 1.524 . S
C163 C164 1.415 1_565 S
C164 H140 0.950 . S
C164 C159 1.363 . S
C164 C163 1.415 1_545 S
C165 H141 0.951 . S
C165 C166 1.366 . S
C165 C167 1.388 . S
C166 C165 1.366 . S
C166 C170 1.385 . S
C167 H142 0.951 . S
C167 C165 1.388 . S
C167 C168 1.366 . S
C168 C167 1.366 . S
C168 C169 1.414 . S
C168 C171 1.499 . S
C169 H143 0.950 . S
C169 C168 1.414 . S
C169 C170 1.374 . S
C170 H144 0.950 . S
C170 C166 1.385 . S
C170 C169 1.374 . S
C171 C168 1.499 . S
C171 C172 1.373 . S
C171 C173 1.389 . S
C172 H145 0.950 . S
C172 C158 1.377 . S
C172 C171 1.373 . S
C173 C157 1.377 . S
C173 C171 1.389 . S
C173 C174 1.524 . S
C174 C173 1.524 . S
C174 C175 1.397 . S
C174 C179 1.363 . S
C175 H146 0.950 . S
C175 C174 1.397 . S
C175 C176 1.334 . S
C176 H147 0.950 . S
C176 C175 1.334 . S
C176 C177 1.287 . S
C177 C176 1.287 . S
C177 C178 1.524 . S
C177 H180 0.999 . S
C178 H148 0.950 . S
C178 C177 1.524 . S
C178 C179 1.415 . S
C179 H149 0.950 . S
C179 C174 1.363 . S
C179 C178 1.415 . S
H180 C177 0.999 . S
H181 C162 0.913 . S
H182 C200 0.951 . S
H183 C202 0.951 . S
H184 C204 0.950 . S
H185 C205 0.950 . S
H186 C207 0.950 . S
H187 C210 0.950 . S
H188 C211 0.950 . S
H189 C213 0.950 . S
H190 C214 0.950 . S
H191 C215 0.951 . S
H192 C217 0.951 . S
H193 C219 0.950 . S
H194 C220 0.950 . S
H195 C222 0.950 . S
H196 C225 0.950 . S
H197 C226 0.950 . S
H198 C228 0.950 . S
H199 C229 0.950 . S
C200 H182 0.951 . S
C200 C201 1.366 . S
C200 C202 1.388 . S
C201 C200 1.366 . S
C201 C205 1.385 . S
C202 H183 0.951 . S
C202 C200 1.388 . S
C202 C203 1.366 . S
C203 C202 1.366 . S
C203 C204 1.414 . S
C203 C206 1.499 . S
C204 H184 0.950 . S
C204 C203 1.414 . S
C204 C205 1.374 . S
C205 H185 0.950 . S
C205 C201 1.385 . S
C205 C204 1.374 . S
C206 C203 1.499 . S
C206 C207 1.373 . S
C206 C208 1.389 . S
C207 H186 0.950 . S
C207 C206 1.373 . S
C207 C223 1.377 . S
C208 C206 1.389 . S
C208 C209 1.524 . S
C208 C222 1.377 . S
C209 C208 1.524 . S
C209 C210 1.397 . S
C209 C214 1.363 . S
C210 H187 0.950 . S
C210 C209 1.397 . S
C210 C211 1.334 1_455 S
C211 H188 0.950 . S
C211 C210 1.334 1_655 S
C211 C212 1.287 . S
C212 C211 1.287 . S
C212 C213 1.524 1_655 S
C212 H231 0.913 . S
C213 H189 0.950 . S
C213 C212 1.524 1_455 S
C213 C214 1.415 . S
C214 H190 0.950 . S
C214 C209 1.363 . S
C214 C213 1.415 . S
C215 H191 0.951 . S
C215 C216 1.366 . S
C215 C217 1.388 . S
C216 C215 1.366 . S
C216 C220 1.385 . S
C217 H192 0.951 . S
C217 C215 1.388 . S
C217 C218 1.366 . S
C218 C217 1.366 . S
C218 C219 1.414 . S
C218 C221 1.499 . S
C219 H193 0.950 . S
C219 C218 1.414 . S
C219 C220 1.374 . S
C220 H194 0.950 . S
C220 C216 1.385 . S
C220 C219 1.374 . S
C221 C218 1.499 . S
C221 C222 1.373 . S
C221 C223 1.389 . S
C222 H195 0.950 . S
C222 C208 1.377 . S
C222 C221 1.373 . S
C223 C207 1.377 . S
C223 C221 1.389 . S
C223 C224 1.524 . S
C224 C223 1.524 . S
C224 C225 1.397 . S
C224 C229 1.363 . S
C225 H196 0.950 . S
C225 C224 1.397 . S
C225 C226 1.334 . S
C226 H197 0.950 . S
C226 C225 1.334 . S
C226 C227 1.287 . S
C227 C226 1.287 . S
C227 C228 1.524 . S
C227 H230 0.999 . S
C228 H198 0.950 . S
C228 C227 1.524 . S
C228 C229 1.415 . S
C229 H199 0.950 . S
C229 C224 1.363 . S
C229 C228 1.415 . S
H230 C227 0.999 . S
H231 C212 0.913 . S
H232 C250 0.951 . S
H233 C252 0.951 . S
H234 C254 0.950 . S
H235 C255 0.950 1_455 S
H236 C257 0.950 . S
H237 C260 0.950 . S
H238 C261 0.950 . S
H239 C263 0.950 . S
H240 C264 0.950 . S
H241 C265 0.951 . S
H242 C267 0.951 . S
H243 C269 0.950 . S
H244 C270 0.950 . S
H245 C272 0.950 . S
H246 C275 0.950 . S
H247 C276 0.950 . S
H248 C278 0.950 1_455 S
H249 C279 0.950 . S
C250 H232 0.951 . S
C250 C251 1.366 . S
C250 C252 1.388 . S
C251 C250 1.366 . S
C251 C255 1.385 . S
C252 H233 0.951 . S
C252 C250 1.388 . S
C252 C253 1.366 . S
C253 C252 1.366 . S
C253 C254 1.414 . S
C253 C256 1.499 . S
C254 H234 0.950 . S
C254 C253 1.414 . S
C254 C255 1.374 . S
C255 H235 0.950 1_655 S
C255 C251 1.385 . S
C255 C254 1.374 . S
C256 C253 1.499 . S
C256 C257 1.373 . S
C256 C258 1.389 . S
C257 H236 0.950 . S
C257 C256 1.373 . S
C257 C273 1.377 . S
C258 C256 1.389 . S
C258 C259 1.524 . S
C258 C272 1.377 . S
C259 C258 1.524 . S
C259 C260 1.397 . S
C259 C264 1.363 . S
C260 H237 0.950 . S
C260 C259 1.397 . S
C260 C261 1.334 . S
C261 H238 0.950 . S
C261 C260 1.334 . S
C261 C262 1.287 . S
C262 C261 1.287 . S
C262 C263 1.524 . S
C262 H281 0.913 . S
C263 H239 0.950 . S
C263 C262 1.524 . S
C263 C264 1.415 . S
C264 H240 0.950 . S
C264 C259 1.363 . S
C264 C263 1.415 . S
C265 H241 0.951 . S
C265 C266 1.366 . S
C265 C267 1.388 . S
C266 C265 1.366 . S
C266 C270 1.385 . S
C267 H242 0.951 . S
C267 C265 1.388 . S
C267 C268 1.366 . S
C268 C267 1.366 . S
C268 C269 1.414 . S
C268 C271 1.499 . S
C269 H243 0.950 . S
C269 C268 1.414 . S
C269 C270 1.374 . S
C270 H244 0.950 . S
C270 C266 1.385 . S
C270 C269 1.374 . S
C271 C268 1.499 . S
C271 C272 1.373 . S
C271 C273 1.389 . S
C272 H245 0.950 . S
C272 C258 1.377 . S
C272 C271 1.373 . S
C273 C257 1.377 . S
C273 C271 1.389 . S
C273 C274 1.524 . S
C274 C273 1.524 . S
C274 C275 1.397 . S
C274 C279 1.363 . S
C275 H246 0.950 . S
C275 C274 1.397 . S
C275 C276 1.334 . S
C276 H247 0.950 . S
C276 C275 1.334 . S
C276 C277 1.287 . S
C277 C276 1.287 . S
C277 C278 1.524 . S
C277 H280 0.999 . S
C278 H248 0.950 1_655 S
C278 C277 1.524 . S
C278 C279 1.415 . S
C279 H249 0.950 . S
C279 C274 1.363 . S
C279 C278 1.415 . S
H280 C277 0.999 . S
H281 C262 0.913 . S
H282 C300 0.951 1_545 S
H283 C302 0.951 . S
H284 C304 0.950 . S
H285 C305 0.950 . S
H286 C307 0.950 . S
H287 C310 0.950 . S
H288 C311 0.950 . S
H289 C313 0.950 . S
H290 C314 0.950 . S
H291 C315 0.951 . S
H292 C317 0.951 . S
H293 C319 0.950 . S
H294 C320 0.950 . S
H295 C322 0.950 . S
H296 C325 0.950 . S
H297 C326 0.950 . S
H298 C328 0.950 . S
H299 C329 0.950 . S
C300 H282 0.951 1_565 S
C300 C301 1.366 . S
C300 C302 1.388 . S
C301 C300 1.366 . S
C301 C305 1.385 . S
C302 H283 0.951 . S
C302 C300 1.388 . S
C302 C303 1.366 . S
C303 C302 1.366 . S
C303 C304 1.414 . S
C303 C306 1.499 . S
C304 H284 0.950 . S
C304 C303 1.414 . S
C304 C305 1.374 . S
C305 H285 0.950 . S
C305 C301 1.385 . S
C305 C304 1.374 . S
C306 C303 1.499 . S
C306 C307 1.373 . S
C306 C308 1.389 . S
C307 H286 0.950 . S
C307 C306 1.373 . S
C307 C323 1.377 . S
C308 C306 1.389 . S
C308 C309 1.524 . S
C308 C322 1.377 . S
C309 C308 1.524 . S
C309 C310 1.397 . S
C309 C314 1.363 . S
C310 H287 0.950 . S
C310 C309 1.397 . S
C310 C311 1.334 . S
C311 H288 0.950 . S
C311 C310 1.334 . S
C311 C312 1.287 . S
C312 C311 1.287 . S
C312 C313 1.524 . S
C312 H331 0.913 . S
C313 H289 0.950 . S
C313 C312 1.524 . S
C313 C314 1.415 . S
C314 H290 0.950 . S
C314 C309 1.363 . S
C314 C313 1.415 . S
C315 H291 0.951 . S
C315 C316 1.366 . S
C315 C317 1.388 . S
C316 C315 1.366 . S
C316 C320 1.385 . S
C317 H292 0.951 . S
C317 C315 1.388 . S
C317 C318 1.366 . S
C318 C317 1.366 . S
C318 C319 1.414 . S
C318 C321 1.499 . S
C319 H293 0.950 . S
C319 C318 1.414 . S
C319 C320 1.374 . S
C320 H294 0.950 . S
C320 C316 1.385 . S
C320 C319 1.374 . S
C321 C318 1.499 . S
C321 C322 1.373 . S
C321 C323 1.389 . S
C322 H295 0.950 . S
C322 C308 1.377 . S
C322 C321 1.373 . S
C323 C307 1.377 . S
C323 C321 1.389 . S
C323 C324 1.524 . S
C324 C323 1.524 . S
C324 C325 1.397 . S
C324 C329 1.363 . S
C325 H296 0.950 . S
C325 C324 1.397 . S
C325 C326 1.334 . S
C326 H297 0.950 . S
C326 C325 1.334 . S
C326 C327 1.287 . S
C327 C326 1.287 . S
C327 C328 1.524 . S
C327 H330 0.999 . S
C328 H298 0.950 . S
C328 C327 1.524 . S
C328 C329 1.415 . S
C329 H299 0.950 . S
C329 C324 1.363 . S
C329 C328 1.415 . S
H330 C327 0.999 . S
H331 C312 0.913 . S
H332 C350 0.951 . S
H333 C352 0.951 . S
H334 C354 0.950 . S
H335 C355 0.950 1_455 S
H336 C357 0.950 . S
H337 C360 0.950 . S
H338 C361 0.950 . S
H339 C363 0.950 . S
H340 C364 0.950 . S
H341 C365 0.951 . S
H342 C367 0.951 . S
H343 C369 0.950 . S
H344 C370 0.950 . S
H345 C372 0.950 . S
H346 C375 0.950 . S
H347 C376 0.950 . S
H348 C378 0.950 1_455 S
H349 C379 0.950 . S
C350 H332 0.951 . S
C350 C351 1.366 . S
C350 C352 1.388 . S
C351 C350 1.366 . S
C351 C355 1.385 . S
C352 H333 0.951 . S
C352 C350 1.388 . S
C352 C353 1.366 . S
C353 C352 1.366 . S
C353 C354 1.414 . S
C353 C356 1.499 . S
C354 H334 0.950 . S
C354 C353 1.414 . S
C354 C355 1.374 . S
C355 H335 0.950 1_655 S
C355 C351 1.385 . S
C355 C354 1.374 . S
C356 C353 1.499 . S
C356 C357 1.373 . S
C356 C358 1.389 . S
C357 H336 0.950 . S
C357 C356 1.373 . S
C357 C373 1.377 . S
C358 C356 1.389 . S
C358 C359 1.524 . S
C358 C372 1.377 . S
C359 C358 1.524 . S
C359 C360 1.397 . S
C359 C364 1.363 . S
C360 H337 0.950 . S
C360 C359 1.397 . S
C360 C361 1.334 . S
C361 H338 0.950 . S
C361 C360 1.334 . S
C361 C362 1.287 . S
C362 C361 1.287 . S
C362 C363 1.524 . S
C362 H381 0.913 . S
C363 H339 0.950 . S
C363 C362 1.524 . S
C363 C364 1.415 . S
C364 H340 0.950 . S
C364 C359 1.363 . S
C364 C363 1.415 . S
C365 H341 0.951 . S
C365 C366 1.366 . S
C365 C367 1.388 . S
C366 C365 1.366 . S
C366 C370 1.385 . S
C367 H342 0.951 . S
C367 C365 1.388 . S
C367 C368 1.366 . S
C368 C367 1.366 . S
C368 C369 1.414 . S
C368 C371 1.499 . S
C369 H343 0.950 . S
C369 C368 1.414 . S
C369 C370 1.374 . S
C370 H344 0.950 . S
C370 C366 1.385 . S
C370 C369 1.374 . S
C371 C368 1.499 . S
C371 C372 1.373 . S
C371 C373 1.389 . S
C372 H345 0.950 . S
C372 C358 1.377 . S
C372 C371 1.373 . S
C373 C357 1.377 . S
C373 C371 1.389 . S
C373 C374 1.524 . S
C374 C373 1.524 . S
C374 C375 1.397 . S
C374 C379 1.363 . S
C375 H346 0.950 . S
C375 C374 1.397 . S
C375 C376 1.334 . S
C376 H347 0.950 . S
C376 C375 1.334 . S
C376 C377 1.287 . S
C377 C376 1.287 . S
C377 C378 1.524 . S
C377 H380 0.999 . S
C378 H348 0.950 1_655 S
C378 C377 1.524 . S
C378 C379 1.415 . S
C379 H349 0.950 . S
C379 C374 1.363 . S
C379 C378 1.415 . S
H380 C377 0.999 . S
H381 C362 0.913 . S
H382 C400 0.951 1_545 S
H383 C402 0.951 . S
H384 C404 0.950 . S
H385 C405 0.950 . S
H386 C407 0.950 . S
H387 C410 0.950 1_565 S
H388 C411 0.950 . S
H389 C413 0.950 . S
H390 C414 0.950 . S
H391 C415 0.951 . S
H392 C417 0.951 . S
H393 C419 0.950 . S
H394 C420 0.950 . S
H395 C422 0.950 . S
H396 C425 0.950 . S
H397 C426 0.950 . S
H398 C428 0.950 . S
H399 C429 0.950 . S
C400 H382 0.951 1_565 S
C400 C401 1.366 . S
C400 C402 1.388 . S
C401 C400 1.366 . S
C401 C405 1.385 . S
C402 H383 0.951 . S
C402 C400 1.388 . S
C402 C403 1.366 . S
C403 C402 1.366 . S
C403 C404 1.414 . S
C403 C406 1.499 . S
C404 H384 0.950 . S
C404 C403 1.414 . S
C404 C405 1.374 . S
C405 H385 0.950 . S
C405 C401 1.385 . S
C405 C404 1.374 . S
C406 C403 1.499 . S
C406 C407 1.373 . S
C406 C408 1.389 . S
C407 H386 0.950 . S
C407 C406 1.373 . S
C407 C423 1.377 . S
C408 C406 1.389 . S
C408 C409 1.524 . S
C408 C422 1.377 . S
C409 C408 1.524 . S
C409 C410 1.397 1_565 S
C409 C414 1.363 1_565 S
C410 H387 0.950 1_545 S
C410 C409 1.397 1_545 S
C410 C411 1.334 . S
C411 H388 0.950 . S
C411 C410 1.334 . S
C411 C412 1.287 . S
C412 C411 1.287 . S
C412 C413 1.524 . S
C412 H431 0.913 . S
C413 H389 0.950 . S
C413 C412 1.524 . S
C413 C414 1.415 . S
C414 H390 0.950 . S
C414 C409 1.363 1_545 S
C414 C413 1.415 . S
C415 H391 0.951 . S
C415 C416 1.366 . S
C415 C417 1.388 . S
C416 C415 1.366 . S
C416 C420 1.385 . S
C417 H392 0.951 . S
C417 C415 1.388 . S
C417 C418 1.366 . S
C418 C417 1.366 . S
C418 C419 1.414 . S
C418 C421 1.499 . S
C419 H393 0.950 . S
C419 C418 1.414 . S
C419 C420 1.374 . S
C420 H394 0.950 . S
C420 C416 1.385 . S
C420 C419 1.374 . S
C421 C418 1.499 . S
C421 C422 1.373 . S
C421 C423 1.389 . S
C422 H395 0.950 . S
C422 C408 1.377 . S
C422 C421 1.373 . S
C423 C407 1.377 . S
C423 C421 1.389 . S
C423 C424 1.524 . S
C424 C423 1.524 . S
C424 C425 1.397 . S
C424 C429 1.363 . S
C425 H396 0.950 . S
C425 C424 1.397 . S
C425 C426 1.334 . S
C426 H397 0.950 . S
C426 C425 1.334 . S
C426 C427 1.287 . S
C427 C426 1.287 . S
C427 C428 1.524 . S
C427 H430 0.999 . S
C428 H398 0.950 . S
C428 C427 1.524 . S
C428 C429 1.415 . S
C429 H399 0.950 . S
C429 C424 1.363 . S
C429 C428 1.415 . S
H430 C427 0.999 . S
H431 C412 0.913 . S
H432 C450 0.951 . S
H433 C452 0.951 . S
H434 C454 0.950 . S
H435 C455 0.950 . S
H436 C457 0.950 . S
H437 C460 0.950 . S
H438 C461 0.950 . S
H439 C463 0.950 . S
H440 C464 0.950 . S
H441 C465 0.951 . S
H442 C467 0.951 . S
H443 C469 0.950 . S
H444 C470 0.950 . S
H445 C472 0.950 . S
H446 C475 0.950 . S
H447 C476 0.950 . S
H448 C478 0.950 . S
H449 C479 0.950 . S
C450 H432 0.951 . S
C450 C451 1.366 . S
C450 C452 1.388 . S
C451 C450 1.366 . S
C451 C455 1.385 . S
C452 H433 0.951 . S
C452 C450 1.388 . S
C452 C453 1.366 . S
C453 C452 1.366 . S
C453 C454 1.414 . S
C453 C456 1.499 . S
C454 H434 0.950 . S
C454 C453 1.414 . S
C454 C455 1.374 . S
C455 H435 0.950 . S
C455 C451 1.385 . S
C455 C454 1.374 . S
C456 C453 1.499 . S
C456 C457 1.373 . S
C456 C458 1.389 . S
C457 H436 0.950 . S
C457 C456 1.373 . S
C457 C473 1.377 . S
C458 C456 1.389 . S
C458 C459 1.524 . S
C458 C472 1.377 . S
C459 C458 1.524 . S
C459 C460 1.397 . S
C459 C464 1.363 . S
C460 H437 0.950 . S
C460 C459 1.397 . S
C460 C461 1.334 . S
C461 H438 0.950 . S
C461 C460 1.334 . S
C461 C462 1.287 . S
C462 C461 1.287 . S
C462 C463 1.524 . S
C462 H481 0.913 . S
C463 H439 0.950 . S
C463 C462 1.524 . S
C463 C464 1.415 . S
C464 H440 0.950 . S
C464 C459 1.363 . S
C464 C463 1.415 . S
C465 H441 0.951 . S
C465 C466 1.366 . S
C465 C467 1.388 . S
C466 C465 1.366 . S
C466 C470 1.385 . S
C467 H442 0.951 . S
C467 C465 1.388 . S
C467 C468 1.366 . S
C468 C467 1.366 . S
C468 C469 1.414 . S
C468 C471 1.499 . S
C469 H443 0.950 . S
C469 C468 1.414 . S
C469 C470 1.374 . S
C470 H444 0.950 . S
C470 C466 1.385 . S
C470 C469 1.374 . S
C471 C468 1.499 . S
C471 C472 1.373 . S
C471 C473 1.389 . S
C472 H445 0.950 . S
C472 C458 1.377 . S
C472 C471 1.373 . S
C473 C457 1.377 . S
C473 C471 1.389 . S
C473 C474 1.524 . S
C474 C473 1.524 . S
C474 C475 1.397 . S
C474 C479 1.363 . S
C475 H446 0.950 . S
C475 C474 1.397 . S
C475 C476 1.334 . S
C476 H447 0.950 . S
C476 C475 1.334 . S
C476 C477 1.287 . S
C477 C476 1.287 . S
C477 C478 1.524 . S
C477 H480 0.999 . S
C478 H448 0.950 . S
C478 C477 1.524 . S
C478 C479 1.415 . S
C479 H449 0.950 . S
C479 C474 1.363 . S
C479 C478 1.415 . S
H480 C477 0.999 . S
H481 C462 0.913 . S
H482 C500 0.951 . S
H483 C502 0.951 . S
H484 C504 0.950 . S
H485 C505 0.950 . S
H486 C507 0.950 . S
H487 C510 0.950 . S
H488 C511 0.950 . S
H489 C513 0.950 . S
H490 C514 0.950 . S
H491 C515 0.951 . S
H492 C517 0.951 . S
H493 C519 0.950 . S
H494 C520 0.950 . S
H495 C522 0.950 . S
H496 C525 0.950 . S
H497 C526 0.950 . S
H498 C528 0.950 . S
H499 C529 0.950 . S
C500 H482 0.951 . S
C500 C501 1.366 . S
C500 C502 1.388 . S
C501 C500 1.366 . S
C501 C505 1.385 . S
C502 H483 0.951 . S
C502 C500 1.388 . S
C502 C503 1.366 . S
C503 C502 1.366 . S
C503 C504 1.414 . S
C503 C506 1.499 . S
C504 H484 0.950 . S
C504 C503 1.414 . S
C504 C505 1.374 . S
C505 H485 0.950 . S
C505 C501 1.385 . S
C505 C504 1.374 . S
C506 C503 1.499 . S
C506 C507 1.373 . S
C506 C508 1.389 . S
C507 H486 0.950 . S
C507 C506 1.373 . S
C507 C523 1.377 . S
C508 C506 1.389 . S
C508 C509 1.524 . S
C508 C522 1.377 . S
C509 C508 1.524 . S
C509 C510 1.397 . S
C509 C514 1.363 . S
C510 H487 0.950 . S
C510 C509 1.397 . S
C510 C511 1.334 1_455 S
C511 H488 0.950 . S
C511 C510 1.334 1_655 S
C511 C512 1.287 . S
C512 C511 1.287 . S
C512 C513 1.524 1_655 S
C512 H531 0.913 . S
C513 H489 0.950 . S
C513 C512 1.524 1_455 S
C513 C514 1.415 . S
C514 H490 0.950 . S
C514 C509 1.363 . S
C514 C513 1.415 . S
C515 H491 0.951 . S
C515 C516 1.366 . S
C515 C517 1.388 . S
C516 C515 1.366 . S
C516 C520 1.385 . S
C517 H492 0.951 . S
C517 C515 1.388 . S
C517 C518 1.366 . S
C518 C517 1.366 . S
C518 C519 1.414 . S
C518 C521 1.499 . S
C519 H493 0.950 . S
C519 C518 1.414 . S
C519 C520 1.374 . S
C520 H494 0.950 . S
C520 C516 1.385 . S
C520 C519 1.374 . S
C521 C518 1.499 . S
C521 C522 1.373 . S
C521 C523 1.389 . S
C522 H495 0.950 . S
C522 C508 1.377 . S
C522 C521 1.373 . S
C523 C507 1.377 . S
C523 C521 1.389 . S
C523 C524 1.524 . S
C524 C523 1.524 . S
C524 C525 1.397 . S
C524 C529 1.363 . S
C525 H496 0.950 . S
C525 C524 1.397 . S
C525 C526 1.334 . S
C526 H497 0.950 . S
C526 C525 1.334 . S
C526 C527 1.287 . S
C527 C526 1.287 . S
C527 C528 1.524 . S
C527 H530 0.999 . S
C528 H498 0.950 . S
C528 C527 1.524 . S
C528 C529 1.415 . S
C529 H499 0.950 . S
C529 C524 1.363 . S
C529 C528 1.415 . S
H530 C527 0.999 . S
H531 C512 0.913 . S
H532 C550 0.951 . S
H533 C552 0.951 . S
H534 C554 0.950 . S
H535 C555 0.950 1_554 S
H536 C557 0.950 . S
H537 C560 0.950 . S
H538 C561 0.950 . S
H539 C563 0.950 . S
H540 C564 0.950 . S
H541 C565 0.951 . S
H542 C567 0.951 . S
H543 C569 0.950 . S
H544 C570 0.950 . S
H545 C572 0.950 . S
H546 C575 0.950 . S
H547 C576 0.950 . S
H548 C578 0.950 . S
H549 C579 0.950 . S
C550 H532 0.951 . S
C550 C551 1.366 . S
C550 C552 1.388 . S
C551 C550 1.366 . S
C551 C555 1.385 . S
C552 H533 0.951 . S
C552 C550 1.388 . S
C552 C553 1.366 . S
C553 C552 1.366 . S
C553 C554 1.414 . S
C553 C556 1.499 . S
C554 H534 0.950 . S
C554 C553 1.414 . S
C554 C555 1.374 . S
C555 H535 0.950 1_556 S
C555 C551 1.385 . S
C555 C554 1.374 . S
C556 C553 1.499 . S
C556 C557 1.373 . S
C556 C558 1.389 . S
C557 H536 0.950 . S
C557 C556 1.373 . S
C557 C573 1.377 . S
C558 C556 1.389 . S
C558 C559 1.524 . S
C558 C572 1.377 . S
C559 C558 1.524 . S
C559 C560 1.397 . S
C559 C564 1.363 . S
C560 H537 0.950 . S
C560 C559 1.397 . S
C560 C561 1.334 1_655 S
C561 H538 0.950 . S
C561 C560 1.334 1_455 S
C561 C562 1.287 . S
C562 C561 1.287 . S
C562 C563 1.524 . S
C562 H581 0.913 . S
C563 H539 0.950 . S
C563 C562 1.524 . S
C563 C564 1.415 1_455 S
C564 H540 0.950 . S
C564 C559 1.363 . S
C564 C563 1.415 1_655 S
C565 H541 0.951 . S
C565 C566 1.366 . S
C565 C567 1.388 . S
C566 C565 1.366 . S
C566 C570 1.385 . S
C567 H542 0.951 . S
C567 C565 1.388 . S
C567 C568 1.366 . S
C568 C567 1.366 . S
C568 C569 1.414 . S
C568 C571 1.499 . S
C569 H543 0.950 . S
C569 C568 1.414 . S
C569 C570 1.374 . S
C570 H544 0.950 . S
C570 C566 1.385 . S
C570 C569 1.374 . S
C571 C568 1.499 . S
C571 C572 1.373 . S
C571 C573 1.389 . S
C572 H545 0.950 . S
C572 C558 1.377 . S
C572 C571 1.373 . S
C573 C557 1.377 . S
C573 C571 1.389 . S
C573 C574 1.524 . S
C574 C573 1.524 . S
C574 C575 1.397 . S
C574 C579 1.363 . S
C575 H546 0.950 . S
C575 C574 1.397 . S
C575 C576 1.334 . S
C576 H547 0.950 . S
C576 C575 1.334 . S
C576 C577 1.287 . S
C577 C576 1.287 . S
C577 C578 1.524 . S
C577 H580 0.999 . S
C578 H548 0.950 . S
C578 C577 1.524 . S
C578 C579 1.415 . S
C579 H549 0.950 . S
C579 C574 1.363 . S
C579 C578 1.415 . S
H580 C577 0.999 . S
H581 C562 0.913 . S
H582 C600 0.951 . S
H583 C602 0.951 . S
H584 C604 0.950 . S
H585 C605 0.950 . S
H586 C607 0.950 . S
H587 C610 0.950 . S
H588 C611 0.950 1_545 S
H589 C613 0.950 . S
H590 C614 0.950 . S
H591 C615 0.951 . S
H592 C617 0.951 . S
H593 C619 0.950 . S
H594 C620 0.950 . S
H595 C622 0.950 . S
H596 C625 0.950 . S
H597 C626 0.950 . S
H598 C628 0.950 . S
H599 C629 0.950 . S
C600 H582 0.951 . S
C600 C601 1.366 . S
C600 C602 1.388 . S
C601 C600 1.366 . S
C601 C605 1.385 . S
C602 H583 0.951 . S
C602 C600 1.388 . S
C602 C603 1.366 . S
C603 C602 1.366 . S
C603 C604 1.414 . S
C603 C606 1.499 . S
C604 H584 0.950 . S
C604 C603 1.414 . S
C604 C605 1.374 . S
C605 H585 0.950 . S
C605 C601 1.385 . S
C605 C604 1.374 . S
C606 C603 1.499 . S
C606 C607 1.373 . S
C606 C608 1.389 . S
C607 H586 0.950 . S
C607 C606 1.373 . S
C607 C623 1.377 . S
C608 C606 1.389 . S
C608 C609 1.524 . S
C608 C622 1.377 . S
C609 C608 1.524 . S
C609 C610 1.397 . S
C609 C614 1.363 . S
C610 H587 0.950 . S
C610 C609 1.397 . S
C610 C611 1.334 . S
C611 H588 0.950 1_565 S
C611 C610 1.334 . S
C611 C612 1.287 . S
C612 C611 1.287 . S
C612 C613 1.524 . S
C612 H631 0.913 . S
C613 H589 0.950 . S
C613 C612 1.524 . S
C613 C614 1.415 . S
C614 H590 0.950 . S
C614 C609 1.363 . S
C614 C613 1.415 . S
C615 H591 0.951 . S
C615 C616 1.366 . S
C615 C617 1.388 . S
C616 C615 1.366 . S
C616 C620 1.385 . S
C617 H592 0.951 . S
C617 C615 1.388 . S
C617 C618 1.366 . S
C618 C617 1.366 . S
C618 C619 1.414 . S
C618 C621 1.499 . S
C619 H593 0.950 . S
C619 C618 1.414 . S
C619 C620 1.374 . S
C620 H594 0.950 . S
C620 C616 1.385 . S
C620 C619 1.374 . S
C621 C618 1.499 . S
C621 C622 1.373 . S
C621 C623 1.389 . S
C622 H595 0.950 . S
C622 C608 1.377 . S
C622 C621 1.373 . S
C623 C607 1.377 . S
C623 C621 1.389 . S
C623 C624 1.524 . S
C624 C623 1.524 . S
C624 C625 1.397 . S
C624 C629 1.363 . S
C625 H596 0.950 . S
C625 C624 1.397 . S
C625 C626 1.334 . S
C626 H597 0.950 . S
C626 C625 1.334 . S
C626 C627 1.287 . S
C627 C626 1.287 . S
C627 C628 1.524 . S
C627 H630 0.999 . S
C628 H598 0.950 . S
C628 C627 1.524 . S
C628 C629 1.415 . S
C629 H599 0.950 . S
C629 C624 1.363 . S
C629 C628 1.415 . S
H630 C627 0.999 . S
H631 C612 0.913 . S
H632 C650 0.951 1_455 S
H633 C652 0.951 . S
H634 C654 0.950 . S
H635 C655 0.950 . S
H636 C657 0.950 . S
H637 C660 0.950 . S
H638 C661 0.950 . S
H639 C663 0.950 . S
H640 C664 0.950 . S
H641 C665 0.951 . S
H642 C667 0.951 . S
H643 C669 0.950 . S
H644 C670 0.950 . S
H645 C672 0.950 . S
H646 C675 0.950 . S
H647 C676 0.950 . S
H648 C678 0.950 . S
H649 C679 0.950 . S
C650 H632 0.951 1_655 S
C650 C651 1.366 . S
C650 C652 1.388 . S
C651 C650 1.366 . S
C651 C655 1.385 . S
C652 H633 0.951 . S
C652 C650 1.388 . S
C652 C653 1.366 . S
C653 C652 1.366 . S
C653 C654 1.414 . S
C653 C656 1.499 . S
C654 H634 0.950 . S
C654 C653 1.414 . S
C654 C655 1.374 . S
C655 H635 0.950 . S
C655 C651 1.385 . S
C655 C654 1.374 . S
C656 C653 1.499 . S
C656 C657 1.373 . S
C656 C658 1.389 . S
C657 H636 0.950 . S
C657 C656 1.373 . S
C657 C673 1.377 . S
C658 C656 1.389 . S
C658 C659 1.524 . S
C658 C672 1.377 . S
C659 C658 1.524 . S
C659 C660 1.397 . S
C659 C664 1.363 1_655 S
C660 H637 0.950 . S
C660 C659 1.397 . S
C660 C661 1.334 1_655 S
C661 H638 0.950 . S
C661 C660 1.334 1_455 S
C661 C662 1.287 . S
C662 C661 1.287 . S
C662 C663 1.524 . S
C662 H681 0.913 . S
C663 H639 0.950 . S
C663 C662 1.524 . S
C663 C664 1.415 . S
C664 H640 0.950 . S
C664 C659 1.363 1_455 S
C664 C663 1.415 . S
C665 H641 0.951 . S
C665 C666 1.366 . S
C665 C667 1.388 . S
C666 C665 1.366 . S
C666 C670 1.385 . S
C667 H642 0.951 . S
C667 C665 1.388 . S
C667 C668 1.366 . S
C668 C667 1.366 . S
C668 C669 1.414 . S
C668 C671 1.499 . S
C669 H643 0.950 . S
C669 C668 1.414 . S
C669 C670 1.374 . S
C670 H644 0.950 . S
C670 C666 1.385 . S
C670 C669 1.374 . S
C671 C668 1.499 . S
C671 C672 1.373 . S
C671 C673 1.389 . S
C672 H645 0.950 . S
C672 C658 1.377 . S
C672 C671 1.373 . S
C673 C657 1.377 . S
C673 C671 1.389 . S
C673 C674 1.524 . S
C674 C673 1.524 . S
C674 C675 1.397 . S
C674 C679 1.363 . S
C675 H646 0.950 . S
C675 C674 1.397 . S
C675 C676 1.334 . S
C676 H647 0.950 . S
C676 C675 1.334 . S
C676 C677 1.287 . S
C677 C676 1.287 . S
C677 C678 1.524 . S
C677 H680 0.999 . S
C678 H648 0.950 . S
C678 C677 1.524 . S
C678 C679 1.415 . S
C679 H649 0.950 . S
C679 C674 1.363 . S
C679 C678 1.415 . S
H680 C677 0.999 . S
H681 C662 0.913 . S
C101 C19 1.476 . S
C116 C59 1.445 . S
C151 C26 1.196 . S
C166 C65 1.128 . S
C201 C16 1.132 . S
C216 C56 1.102 . S
C251 C28 1.514 . S
C266 C81 1.492 . S
C301 C9 1.823 . S
C316 C47 1.673 . S
C366 C64 1.592 . S
C351 C21 1.684 . S
C401 C39 1.477 . S
C416 C60 1.446 . S
C466 C77 1.593 . S
C451 C1 1.684 . S
C516 C44 1.673 . S
C501 C29 1.823 . S
C566 C80 1.492 . S
C551 C8 1.515 . S
C616 C43 1.102 . S
C601 C36 1.133 . S
C666 C68 1.129 . S
C651 C6 1.197 . S
