# Generated by pormake.
# Topology soc, (4,6)-cn, num edge types: 1
# Building blocks:
#     Node 0, Type 0, BuildingBlock: ESEHIV_clean_sbu_0, # of connection points: 4
#     Node 1, Type 0, BuildingBlock: ESEHIV_clean_sbu_0, # of connection points: 4
#     Node 2, Type 0, BuildingBlock: ESEHIV_clean_sbu_0, # of connection points: 4
#     Node 3, Type 0, BuildingBlock: ESEHIV_clean_sbu_0, # of connection points: 4
#     Node 4, Type 0, BuildingBlock: ESEHIV_clean_sbu_0, # of connection points: 4
#     Node 5, Type 0, BuildingBlock: ESEHIV_clean_sbu_0, # of connection points: 4
#     Node 6, Type 0, BuildingBlock: ESEHIV_clean_sbu_0, # of connection points: 4
#     Node 7, Type 0, BuildingBlock: ESEHIV_clean_sbu_0, # of connection points: 4
#     Node 8, Type 0, BuildingBlock: ESEHIV_clean_sbu_0, # of connection points: 4
#     Node 9, Type 0, BuildingBlock: ESEHIV_clean_sbu_0, # of connection points: 4
#     Node 10, Type 0, BuildingBlock: ESEHIV_clean_sbu_0, # of connection points: 4
#     Node 11, Type 0, BuildingBlock: ESEHIV_clean_sbu_0, # of connection points: 4
#     Node 12, Type 1, BuildingBlock: BETFAJ_clean_sbu_0, # of connection points: 6
#     Node 13, Type 1, BuildingBlock: BETFAJ_clean_sbu_0, # of connection points: 6
#     Node 14, Type 1, BuildingBlock: BETFAJ_clean_sbu_0, # of connection points: 6
#     Node 15, Type 1, BuildingBlock: BETFAJ_clean_sbu_0, # of connection points: 6
#     Node 16, Type 1, BuildingBlock: BETFAJ_clean_sbu_0, # of connection points: 6
#     Node 17, Type 1, BuildingBlock: BETFAJ_clean_sbu_0, # of connection points: 6
#     Node 18, Type 1, BuildingBlock: BETFAJ_clean_sbu_0, # of connection points: 6
#     Node 19, Type 1, BuildingBlock: BETFAJ_clean_sbu_0, # of connection points: 6
#     Edge 20, Type (0, 1), BuildingBlock: MIFKUJ_clean_linker_0, # of connection points: 2
#     Edge 21, Type (0, 1), BuildingBlock: MIFKUJ_clean_linker_0, # of connection points: 2
#     Edge 22, Type (0, 1), BuildingBlock: MIFKUJ_clean_linker_0, # of connection points: 2
#     Edge 23, Type (0, 1), BuildingBlock: MIFKUJ_clean_linker_0, # of connection points: 2
#     Edge 24, Type (0, 1), BuildingBlock: MIFKUJ_clean_linker_0, # of connection points: 2
#     Edge 25, Type (0, 1), BuildingBlock: MIFKUJ_clean_linker_0, # of connection points: 2
#     Edge 26, Type (0, 1), BuildingBlock: MIFKUJ_clean_linker_0, # of connection points: 2
#     Edge 27, Type (0, 1), BuildingBlock: MIFKUJ_clean_linker_0, # of connection points: 2
#     Edge 28, Type (0, 1), BuildingBlock: MIFKUJ_clean_linker_0, # of connection points: 2
#     Edge 29, Type (0, 1), BuildingBlock: MIFKUJ_clean_linker_0, # of connection points: 2
#     Edge 30, Type (0, 1), BuildingBlock: MIFKUJ_clean_linker_0, # of connection points: 2
#     Edge 31, Type (0, 1), BuildingBlock: MIFKUJ_clean_linker_0, # of connection points: 2
#     Edge 32, Type (0, 1), BuildingBlock: MIFKUJ_clean_linker_0, # of connection points: 2
#     Edge 33, Type (0, 1), BuildingBlock: MIFKUJ_clean_linker_0, # of connection points: 2
#     Edge 34, Type (0, 1), BuildingBlock: MIFKUJ_clean_linker_0, # of connection points: 2
#     Edge 35, Type (0, 1), BuildingBlock: MIFKUJ_clean_linker_0, # of connection points: 2
#     Edge 36, Type (0, 1), BuildingBlock: MIFKUJ_clean_linker_0, # of connection points: 2
#     Edge 37, Type (0, 1), BuildingBlock: MIFKUJ_clean_linker_0, # of connection points: 2
#     Edge 38, Type (0, 1), BuildingBlock: MIFKUJ_clean_linker_0, # of connection points: 2
#     Edge 39, Type (0, 1), BuildingBlock: MIFKUJ_clean_linker_0, # of connection points: 2
#     Edge 40, Type (0, 1), BuildingBlock: MIFKUJ_clean_linker_0, # of connection points: 2
#     Edge 41, Type (0, 1), BuildingBlock: MIFKUJ_clean_linker_0, # of connection points: 2
#     Edge 42, Type (0, 1), BuildingBlock: MIFKUJ_clean_linker_0, # of connection points: 2
#     Edge 43, Type (0, 1), BuildingBlock: MIFKUJ_clean_linker_0, # of connection points: 2
#     Edge 44, Type (0, 1), BuildingBlock: MIFKUJ_clean_linker_0, # of connection points: 2
#     Edge 45, Type (0, 1), BuildingBlock: MIFKUJ_clean_linker_0, # of connection points: 2
#     Edge 46, Type (0, 1), BuildingBlock: MIFKUJ_clean_linker_0, # of connection points: 2
#     Edge 47, Type (0, 1), BuildingBlock: MIFKUJ_clean_linker_0, # of connection points: 2
#     Edge 48, Type (0, 1), BuildingBlock: MIFKUJ_clean_linker_0, # of connection points: 2
#     Edge 49, Type (0, 1), BuildingBlock: MIFKUJ_clean_linker_0, # of connection points: 2
#     Edge 50, Type (0, 1), BuildingBlock: MIFKUJ_clean_linker_0, # of connection points: 2
#     Edge 51, Type (0, 1), BuildingBlock: MIFKUJ_clean_linker_0, # of connection points: 2
#     Edge 52, Type (0, 1), BuildingBlock: MIFKUJ_clean_linker_0, # of connection points: 2
#     Edge 53, Type (0, 1), BuildingBlock: MIFKUJ_clean_linker_0, # of connection points: 2
#     Edge 54, Type (0, 1), BuildingBlock: MIFKUJ_clean_linker_0, # of connection points: 2
#     Edge 55, Type (0, 1), BuildingBlock: MIFKUJ_clean_linker_0, # of connection points: 2
#     Edge 56, Type (0, 1), BuildingBlock: MIFKUJ_clean_linker_0, # of connection points: 2
#     Edge 57, Type (0, 1), BuildingBlock: MIFKUJ_clean_linker_0, # of connection points: 2
#     Edge 58, Type (0, 1), BuildingBlock: MIFKUJ_clean_linker_0, # of connection points: 2
#     Edge 59, Type (0, 1), BuildingBlock: MIFKUJ_clean_linker_0, # of connection points: 2
#     Edge 60, Type (0, 1), BuildingBlock: MIFKUJ_clean_linker_0, # of connection points: 2
#     Edge 61, Type (0, 1), BuildingBlock: MIFKUJ_clean_linker_0, # of connection points: 2
#     Edge 62, Type (0, 1), BuildingBlock: MIFKUJ_clean_linker_0, # of connection points: 2
#     Edge 63, Type (0, 1), BuildingBlock: MIFKUJ_clean_linker_0, # of connection points: 2
#     Edge 64, Type (0, 1), BuildingBlock: MIFKUJ_clean_linker_0, # of connection points: 2
#     Edge 65, Type (0, 1), BuildingBlock: MIFKUJ_clean_linker_0, # of connection points: 2
#     Edge 66, Type (0, 1), BuildingBlock: MIFKUJ_clean_linker_0, # of connection points: 2
#     Edge 67, Type (0, 1), BuildingBlock: MIFKUJ_clean_linker_0, # of connection points: 2
# Relax obj value: 0.162
# Max RMSD: 0.247
# Mean RMSD: 0.166
data_MOF--net-soc--node1-ESEHIV_clean_sbu_0--node2-BETFAJ_clean_sbu_0--edge1-MIFKUJ_clean_linker_0
_symmetry_space_group_name_H-M    P1
_symmetry_Int_Tables_number       1
_symmetry_cell_setting            triclinic
loop_
_symmetry_equiv_pos_as_xyz
'x, y, z'
_cell_length_a     64.632324
_cell_length_b     62.168184
_cell_length_c     56.369105
_cell_angle_alpha  83.861391
_cell_angle_beta   84.593603
_cell_angle_gamma 74.191822
loop_
_atom_site_label
_atom_site_type_symbol
_atom_site_fract_x
_atom_site_fract_y
_atom_site_fract_z
_atom_type_partial_charge
Cu0 Cu 0.03136 0.03315 0.34167 0.0
N1 N 0.04081 0.05156 0.35976 0.0
N2 N 0.05939 0.07511 0.3678 0.0
C3 C 0.05869 0.05869 0.35428 0.0
C4 C 0.04119 0.0784 0.38238 0.0
C5 C 0.0297 0.06396 0.37726 0.0
O6 O 0.0571 0.01353 0.32617 0.0
C7 C 0.99091 0.05443 0.32061 0.0
O8 O 0.9847 0.03696 0.33053 0.0
H9 H 0.07016 0.05305 0.3395 0.0
H10 H 1.01376 0.06355 0.38471 0.0
N11 N 1.01781 0.01406 0.36126 0.0
N12 N 1.00113 0.9869 0.37118 0.0
C13 C 1.0115 0.99725 0.35356 0.0
C14 C 1.01186 0.01396 0.38479 0.0
C15 C 1.00143 0.99731 0.39094 0.0
C16 C 0.07056 1.00201 0.34097 0.0
O17 O 0.06592 1.00466 0.36386 0.0
H18 H 1.01347 0.99361 0.33501 0.0
H19 H 1.0146 0.02531 0.39663 0.0
O20 O 1.01059 0.05458 0.3212 0.0
H21 H 0.03612 0.09091 0.3952 0.0
H22 H 0.99439 0.99343 0.40851 0.0
Cu23 Cu 0.03988 0.03481 0.74556 0.0
N24 N 0.02766 0.01843 0.72777 0.0
N25 N 1.0081 0.99588 0.7196 0.0
C26 C 1.01225 0.00819 0.73602 0.0
C27 C 0.02147 0.99856 0.70026 0.0
C28 C 0.03356 0.01241 0.7054 0.0
O29 O 1.01641 0.05558 0.76343 0.0
C30 C 0.0792 1.00335 0.75092 0.0
O31 O 0.08033 0.00935 0.72787 0.0
H32 H 1.00493 0.00902 0.75409 0.0
H33 H 0.04621 0.01718 0.69388 0.0
N34 N 0.05385 0.05312 0.72539 0.0
N35 N 0.07589 0.07501 0.71442 0.0
C36 C 0.0694 0.06135 0.73202 0.0
C37 C 0.0503 0.0619 0.70276 0.0
C38 C 0.06387 0.07553 0.69596 0.0
C39 C 1.00302 0.06939 0.75002 0.0
O40 O 1.00532 0.06718 0.72694 0.0
H41 H 0.07538 0.05784 0.74971 0.0
H42 H 0.03841 0.059 0.69211 0.0
O43 O 0.06222 0.01261 0.76356 0.0
H44 H 0.02267 0.99085 0.68369 0.0
H45 H 0.06476 0.08511 0.67887 0.0
Cu46 Cu 0.30644 0.04348 0.07266 0.0
N47 N 0.32212 0.0165 0.06115 0.0
N48 N 0.32771 0.98548 0.04237 0.0
C49 C 0.31516 1.0064 0.04486 0.0
C50 C 0.34339 0.9823 0.05758 0.0
C51 C 0.33997 1.00162 0.06908 0.0
O52 O 0.27651 0.04239 0.07825 0.0
C53 C 0.2999 0.07118 0.02874 0.0
O54 O 0.28872 0.05727 0.02494 0.0
H55 H 0.30013 0.01354 0.03649 0.0
H56 H 0.34926 1.00421 0.08298 0.0
N57 N 0.31613 0.04678 0.10182 0.0
N58 N 0.32164 0.06254 0.1336 0.0
C59 C 0.31613 0.06604 0.1107 0.0
C60 C 0.32187 0.03059 0.11965 0.0
C61 C 0.32528 0.04026 0.13928 0.0
C62 C 0.26765 0.02874 0.09128 0.0
O63 O 0.24658 0.03282 0.09211 0.0
H64 H 0.31113 0.08238 0.10098 0.0
H65 H 0.32277 0.01307 0.11874 0.0
O66 O 0.30877 0.06851 0.04857 0.0
H67 H 0.35596 0.96693 0.06069 0.0
H68 H 0.3297 0.03165 0.15651 0.0
Cu69 Cu 0.0699 0.29067 0.08354 0.0
N70 N 0.07719 0.31003 0.05842 0.0
N71 N 0.0958 0.32092 0.02605 0.0
C72 C 0.09676 0.30761 0.04671 0.0
C73 C 0.07487 0.33231 0.02486 0.0
C74 C 0.06344 0.3256 0.04489 0.0
O75 O 0.09558 0.27876 0.10227 0.0
C76 C 0.06063 0.26616 0.04712 0.0
O77 O 0.07733 0.27093 0.03481 0.0
H78 H 0.11103 0.2949 0.05212 0.0
H79 H 0.04613 0.3305 0.04848 0.0
N80 N 0.0473 0.30649 0.10331 0.0
N81 N 1.01565 0.31472 0.12487 0.0
C82 C 0.02867 0.30091 0.10946 0.0
C83 C 0.04615 0.32449 0.1151 0.0
C84 C 0.02663 0.32964 0.1284 0.0
C85 C 0.09504 0.27317 0.12477 0.0
O86 O 0.07666 0.27189 0.13613 0.0
H87 H 0.02484 0.28691 0.10272 0.0
H88 H 0.05876 0.333 0.11441 0.0
O89 O 0.05722 0.27009 0.06914 0.0
H90 H 0.06815 0.34383 0.01002 0.0
H91 H 0.02128 0.34299 0.14022 0.0
Cu92 Cu 0.8002 0.99211 0.01102 0.0
N93 N 0.81798 1.00706 0.99204 0.0
N94 N 0.8256 0.03584 0.96894 0.0
C95 C 0.81248 0.0294 0.98671 0.0
C96 C 0.84004 0.01668 0.96294 0.0
C97 C 0.83524 0.99892 0.97717 0.0
O98 O 0.78301 0.01408 0.03225 0.0
C99 C 0.77355 0.96753 0.99402 0.0
O100 O 0.77033 0.96052 0.01652 0.0
H101 H 0.79806 0.04049 0.99444 0.0
H102 H 0.8429 0.9813 0.97569 0.0
N103 N 0.81562 0.96717 0.0297 0.0
N104 N 0.82188 0.94014 0.05972 0.0
C105 C 0.80696 0.95677 0.04867 0.0
C106 C 0.83687 0.95686 0.02877 0.0
C107 C 0.84079 0.94015 0.04733 0.0
C108 C 0.79265 0.01729 0.04975 0.0
O109 O 0.81236 1.00499 0.05297 0.0
H110 H 0.7901 0.96187 0.05478 0.0
H111 H 0.84874 0.96138 0.01583 0.0
O112 O 0.78426 0.982 0.98879 0.0
H113 H 0.85262 0.01546 0.94865 0.0
H114 H 0.85628 0.92887 0.05133 0.0
Cu115 Cu 0.02075 0.75065 0.00854 0.0
N116 N 1.0089 0.73708 0.98701 0.0
N117 N 0.98692 0.7326 0.9605 0.0
C118 C 0.99175 0.74701 0.97411 0.0
C119 C 1.00173 0.71286 0.96508 0.0
C120 C 1.01522 0.71568 0.98139 0.0
O121 O 0.99591 0.76841 0.02745 0.0
C122 C 0.0592 0.75058 0.98197 0.0
O123 O 0.06024 0.7291 0.98579 0.0
H124 H 0.98279 0.76439 0.97507 0.0
H125 H 0.02866 0.70301 0.98867 0.0
N126 N 0.03585 0.7293 0.03105 0.0
N127 N 0.0583 0.71562 0.06013 0.0
C128 C 0.05302 0.73121 0.04159 0.0
C129 C 0.03001 0.71184 0.04329 0.0
C130 C 0.04386 0.70334 0.06129 0.0
C131 C 0.99689 0.77416 0.04833 0.0
O132 O 1.0158 0.77302 0.05588 0.0
H133 H 0.06051 0.74481 0.0368 0.0
H134 H 1.01601 0.70646 0.04015 0.0
O135 O 0.04228 0.76466 0.99019 0.0
H136 H 1.00296 0.69747 0.95705 0.0
H137 H 0.04293 0.68972 0.07466 0.0
Cu138 Cu 0.52709 0.52255 0.83878 0.0
N139 N 0.5363 0.54463 0.85142 0.0
N140 N 0.55418 0.56987 0.85591 0.0
C141 C 0.55545 0.54964 0.84825 0.0
C142 C 0.53358 0.57765 0.8645 0.0
C143 C 0.52262 0.56219 0.86152 0.0
O144 O 0.55158 0.49864 0.8268 0.0
C145 C 0.48633 0.53959 0.81712 0.0
O146 O 0.48048 0.52305 0.82992 0.0
H147 H 0.56959 0.53951 0.83906 0.0
H148 H 0.50546 0.5643 0.86497 0.0
N149 N 0.51298 0.50847 0.86359 0.0
N150 N 0.49709 0.48345 0.88318 0.0
C151 C 0.50847 0.48864 0.8631 0.0
C152 C 0.50449 0.51588 0.88492 0.0
C153 C 0.49455 0.50054 0.89698 0.0
C154 C 0.56772 0.50041 0.81259 0.0
O155 O 0.56813 0.52015 0.80192 0.0
H156 H 0.51258 0.47878 0.84779 0.0
H157 H 0.50514 0.53147 0.89121 0.0
O158 O 0.50603 0.54012 0.81619 0.0
H159 H 0.52664 0.59382 0.87147 0.0
H160 H 0.48593 0.50197 0.9144 0.0
Cu161 Cu 0.54046 0.5457 0.25289 0.0
N162 N 0.52964 0.52775 0.23559 0.0
N163 N 0.51212 0.50301 0.22839 0.0
C164 C 0.5175 0.51414 0.24511 0.0
C165 C 0.52134 0.50991 0.2075 0.0
C166 C 0.53223 0.52513 0.21202 0.0
O167 O 0.51643 0.56628 0.26997 0.0
C168 C 0.57869 0.51375 0.25979 0.0
O169 O 0.57954 0.5176 0.2364 0.0
H170 H 0.51241 0.51281 0.26394 0.0
H171 H 0.54143 0.53362 0.1991 0.0
N172 N 0.55421 0.56395 0.23254 0.0
N173 N 0.57802 0.58346 0.21992 0.0
C174 C 0.57302 0.56791 0.23628 0.0
C175 C 0.54688 0.57765 0.21324 0.0
C176 C 0.56158 0.5898 0.20541 0.0
C177 C 0.499 0.574 0.25928 0.0
O178 O 0.49763 0.56681 0.23858 0.0
H179 H 0.58243 0.56021 0.25135 0.0
H180 H 0.53165 0.57916 0.20585 0.0
O181 O 0.56232 0.52468 0.27209 0.0
H182 H 0.52053 0.50419 0.19022 0.0
H183 H 0.56017 0.60248 0.19047 0.0
Cu184 Cu 0.82415 0.5491 0.55866 0.0
N185 N 0.84134 0.5603 0.53422 0.0
N186 N 0.85105 0.57896 0.5007 0.0
C187 C 0.83527 0.57101 0.51287 0.0
C188 C 0.86774 0.57292 0.51483 0.0
C189 C 0.86173 0.56147 0.5354 0.0
O190 O 0.81108 0.57256 0.58016 0.0
C191 C 0.78899 0.54589 0.53092 0.0
O192 O 0.78423 0.5676 0.52501 0.0
H193 H 0.81932 0.57389 0.5068 0.0
H194 H 0.8714 0.55519 0.55054 0.0
N195 N 0.84072 0.52425 0.5763 0.0
N196 N 0.84737 0.49245 0.60039 0.0
C197 C 0.83259 0.51159 0.59363 0.0
C198 C 0.86137 0.51271 0.57187 0.0
C199 C 0.86555 0.49321 0.58681 0.0
C200 C 0.82425 0.57997 0.59029 0.0
O201 O 0.84499 0.57098 0.58625 0.0
H202 H 0.81574 0.51567 0.59992 0.0
H203 H 0.87229 0.51731 0.55781 0.0
O204 O 0.80384 0.53683 0.54493 0.0
H205 H 0.88306 0.57689 0.51081 0.0
H206 H 0.88063 0.48025 0.587 0.0
Cu207 Cu 0.56429 0.77644 0.57057 0.0
N208 N 0.58712 0.76061 0.55001 0.0
N209 N 0.61406 0.75457 0.52086 0.0
C210 C 0.59749 0.76988 0.53131 0.0
C211 C 0.614 0.7349 0.53369 0.0
C212 C 0.59759 0.73868 0.55157 0.0
O213 O 0.57829 0.78701 0.59461 0.0
C214 C 0.54022 0.79218 0.53229 0.0
O215 O 0.54835 0.7709 0.5287 0.0
H216 H 0.59322 0.78768 0.52591 0.0
H217 H 0.5939 0.7263 0.56507 0.0
N218 N 0.54569 0.75974 0.58655 0.0
N219 N 0.51676 0.75279 0.60851 0.0
C220 C 0.52806 0.76808 0.60118 0.0
C221 C 0.54543 0.73849 0.58438 0.0
C222 C 0.52781 0.73414 0.59791 0.0
C223 C 0.58821 0.77182 0.60974 0.0
O224 O 0.58707 0.75115 0.60885 0.0
H225 H 0.52354 0.78518 0.60609 0.0
H226 H 0.55681 0.7271 0.57315 0.0
O227 O 0.54543 0.79961 0.55046 0.0
H228 H 0.62505 0.71878 0.53055 0.0
H229 H 0.52315 0.71859 0.59909 0.0
Cu230 Cu 0.2808 0.50701 0.51937 0.0
N231 N 0.29664 0.5256 0.50176 0.0
N232 N 0.30315 0.55543 0.47903 0.0
C233 C 0.28806 0.54495 0.48853 0.0
C234 C 0.32199 0.54203 0.48658 0.0
C235 C 0.31795 0.52373 0.50051 0.0
O236 O 0.25622 0.52827 0.53318 0.0
C237 C 0.28622 0.47961 0.4821 0.0
O238 O 0.3059 0.48189 0.48133 0.0
H239 H 0.27095 0.55149 0.48645 0.0
H240 H 0.32972 0.5101 0.50925 0.0
N241 N 0.2957 0.4883 0.54459 0.0
N242 N 0.30266 0.46264 0.57636 0.0
C243 C 0.29133 0.46976 0.55656 0.0
C244 C 0.31041 0.49295 0.55709 0.0
C245 C 0.31476 0.47729 0.57646 0.0
C246 C 0.2467 0.52505 0.55346 0.0
O247 O 0.25009 0.50461 0.56393 0.0
H248 H 0.27932 0.46234 0.55133 0.0
H249 H 0.31675 0.50742 0.55312 0.0
O250 O 0.27229 0.48912 0.49783 0.0
H251 H 0.33764 0.54517 0.4823 0.0
H252 H 0.3253 0.47755 0.59017 0.0
Cu253 Cu 0.52111 0.2532 0.51328 0.0
N254 N 0.54401 0.23753 0.49332 0.0
N255 N 0.5748 0.23141 0.46997 0.0
C256 C 0.55993 0.2462 0.48291 0.0
C257 C 0.56772 0.21267 0.47231 0.0
C258 C 0.54878 0.21651 0.48663 0.0
O259 O 0.53465 0.26974 0.53267 0.0
C260 C 0.49153 0.25673 0.47981 0.0
O261 O 0.5006 0.23506 0.4825 0.0
H262 H 0.56038 0.26318 0.48485 0.0
H263 H 0.53921 0.20475 0.49164 0.0
N264 N 0.50925 0.23429 0.53537 0.0
N265 N 0.48781 0.22472 0.56599 0.0
C266 C 0.49228 0.2416 0.55097 0.0
C267 C 0.51589 0.21197 0.54068 0.0
C268 C 0.50267 0.20602 0.55944 0.0
C269 C 0.55032 0.25659 0.54376 0.0
O270 O 0.55455 0.23499 0.54141 0.0
H271 H 0.48393 0.25916 0.55172 0.0
H272 H 0.52974 0.20083 0.53214 0.0
O273 O 0.49783 0.26951 0.49232 0.0
H274 H 0.57567 0.19712 0.46452 0.0
H275 H 0.50415 0.18919 0.56769 0.0
Sm276 Sm 0.2755 0.27514 0.31998 0.0
Sm277 Sm 0.30543 0.29392 0.28032 0.0
C278 C 0.24708 0.25674 0.34486 0.0
C279 C 0.23369 0.24148 0.3418 0.0
C280 C 0.21453 0.2492 0.32984 0.0
C281 C 0.20123 0.23508 0.3286 0.0
C282 C 0.20681 0.21295 0.3392 0.0
C283 C 0.22618 0.20507 0.35062 0.0
C284 C 0.23942 0.21924 0.35203 0.0
C285 C 0.31206 0.28185 0.3365 0.0
C286 C 0.30411 0.24234 0.27894 0.0
C287 C 0.33752 0.30749 0.25655 0.0
C288 C 0.35217 0.3214 0.25863 0.0
C289 C 0.34798 0.337 0.27591 0.0
C290 C 0.36079 0.35191 0.27569 0.0
C291 C 0.37792 0.35136 0.25821 0.0
C292 C 0.38243 0.33518 0.24151 0.0
C293 C 0.36965 0.32033 0.24173 0.0
C294 C 0.26693 0.29418 0.26109 0.0
C295 C 0.27395 0.32738 0.31776 0.0
O296 O 0.24191 0.27676 0.33339 0.0
O297 O 0.26797 0.24795 0.34528 0.0
O298 O 0.31126 0.27419 0.31673 0.0
O299 O 0.29367 0.2846 0.34875 0.0
O300 O 0.28841 0.24567 0.29613 0.0
O301 O 0.31449 0.25756 0.27111 0.0
O302 O 0.34047 0.2885 0.26999 0.0
O303 O 0.31719 0.31826 0.25496 0.0
O304 O 0.27238 0.28818 0.28211 0.0
O305 O 0.28228 0.30126 0.24918 0.0
O306 O 0.29261 0.32244 0.30501 0.0
O307 O 0.26188 0.31312 0.32181 0.0
H308 H 0.20959 0.26626 0.32176 0.0
H309 H 0.18648 0.24151 0.31949 0.0
H310 H 0.23076 0.18818 0.35919 0.0
H311 H 0.25396 0.21289 0.36154 0.0
H312 H 0.33448 0.33804 0.28908 0.0
H313 H 0.35697 0.36424 0.28875 0.0
H314 H 0.39572 0.33419 0.22807 0.0
H315 H 0.37307 0.30839 0.22828 0.0
Sm316 Sm 0.79229 0.30005 0.30536 0.0
Sm317 Sm 0.77814 0.27244 0.27228 0.0
C318 C 0.79993 0.33275 0.32705 0.0
C319 C 0.79176 0.34776 0.34652 0.0
C320 C 0.77278 0.36537 0.34472 0.0
C321 C 0.76677 0.38108 0.36183 0.0
C322 C 0.77954 0.3795 0.38113 0.0
C323 C 0.79812 0.36146 0.38331 0.0
C324 C 0.8042 0.34584 0.36615 0.0
C325 C 0.81468 0.25505 0.30892 0.0
C326 C 0.75821 0.27284 0.32674 0.0
C327 C 0.76951 0.24588 0.24318 0.0
C328 C 0.77443 0.23066 0.22386 0.0
C329 C 0.79193 0.21143 0.22408 0.0
C330 C 0.79407 0.19562 0.20741 0.0
C331 C 0.77867 0.1987 0.19035 0.0
C332 C 0.76166 0.21844 0.18974 0.0
C333 C 0.75961 0.23421 0.20627 0.0
C334 C 0.74846 0.31286 0.28076 0.0
C335 C 0.81733 0.29549 0.25199 0.0
O336 O 0.78864 0.33613 0.30832 0.0
O337 O 0.80863 0.31149 0.3329 0.0
O338 O 0.80926 0.26691 0.28981 0.0
O339 O 0.80877 0.26706 0.32711 0.0
O340 O 0.76277 0.29229 0.32681 0.0
O341 O 0.76677 0.25939 0.30969 0.0
O342 O 0.77738 0.23861 0.26407 0.0
O343 O 0.76667 0.26747 0.23774 0.0
O344 O 0.7685 0.30985 0.27675 0.0
O345 O 0.74336 0.29431 0.27975 0.0
O346 O 0.80563 0.28204 0.24765 0.0
O347 O 0.81502 0.3046 0.2725 0.0
H348 H 0.76283 0.36741 0.32978 0.0
H349 H 0.75226 0.39466 0.35978 0.0
H350 H 0.80848 0.35992 0.39777 0.0
H351 H 0.81903 0.33263 0.36783 0.0
H352 H 0.80358 0.20829 0.23751 0.0
H353 H 0.80757 0.1808 0.20817 0.0
H354 H 0.74929 0.2213 0.17721 0.0
H355 H 0.74583 0.24879 0.20596 0.0
Sm356 Sm 0.80132 0.74838 0.27786 0.0
Sm357 Sm 0.8052 0.79382 0.2914 0.0
C358 C 0.79837 0.70678 0.2772 0.0
C359 C 0.78175 0.69667 0.27096 0.0
C360 C 0.77934 0.67668 0.28343 0.0
C361 C 0.76319 0.66726 0.27802 0.0
C362 C 0.74926 0.67765 0.25992 0.0
C363 C 0.75186 0.69769 0.24743 0.0
C364 C 0.76785 0.70718 0.253 0.0
C365 C 0.77845 0.78482 0.2501 0.0
C366 C 0.76846 0.77429 0.32074 0.0
C367 C 0.80957 0.83457 0.29462 0.0
C368 C 0.82594 0.84455 0.30211 0.0
C369 C 0.83462 0.85892 0.28568 0.0
C370 C 0.85031 0.86836 0.29229 0.0
C371 C 0.85748 0.86376 0.31554 0.0
C372 C 0.84869 0.84946 0.33202 0.0
C373 C 0.83313 0.83987 0.32536 0.0
C374 C 0.82781 0.75633 0.31828 0.0
C375 C 0.83678 0.76949 0.24662 0.0
O376 O 0.79388 0.71765 0.29644 0.0
O377 O 0.80736 0.71722 0.25955 0.0
O378 O 0.78074 0.7842 0.27213 0.0
O379 O 0.785 0.76464 0.24339 0.0
O380 O 0.77991 0.75479 0.31333 0.0
O381 O 0.77212 0.79327 0.31075 0.0
O382 O 0.81445 0.82434 0.27496 0.0
O383 O 0.79964 0.82401 0.31129 0.0
O384 O 0.82619 0.75814 0.29611 0.0
O385 O 0.81927 0.77561 0.32665 0.0
O386 O 0.82652 0.78853 0.25588 0.0
O387 O 0.83266 0.7503 0.25524 0.0
H388 H 0.78981 0.66846 0.2975 0.0
H389 H 0.76143 0.65203 0.28827 0.0
H390 H 0.74165 0.70599 0.23318 0.0
H391 H 0.76933 0.72274 0.24326 0.0
H392 H 0.82927 0.86283 0.26769 0.0
H393 H 0.85661 0.87953 0.27929 0.0
H394 H 0.85406 0.84546 0.34999 0.0
H395 H 0.82684 0.82875 0.33841 0.0
Sm396 Sm 0.2722 0.79004 0.27441 0.0
Sm397 Sm 0.30943 0.80063 0.30279 0.0
C398 C 0.23817 0.79127 0.2512 0.0
C399 C 0.22619 0.77759 0.24119 0.0
C400 C 0.20384 0.78197 0.24637 0.0
C401 C 0.1916 0.77157 0.23456 0.0
C402 C 0.20148 0.75669 0.21717 0.0
C403 C 0.224 0.75163 0.21271 0.0
C404 C 0.23625 0.76192 0.22464 0.0
C405 C 0.31231 0.76027 0.27028 0.0
C406 C 0.29528 0.83039 0.25285 0.0
C407 C 0.34665 0.79962 0.3195 0.0
C408 C 0.35727 0.80378 0.34 0.0
C409 C 0.37517 0.78721 0.34825 0.0
C410 C 0.38719 0.79144 0.36571 0.0
C411 C 0.38165 0.81243 0.37525 0.0
C412 C 0.3632 0.82877 0.36762 0.0
C413 C 0.35114 0.8245 0.35012 0.0
C414 C 0.26843 0.82784 0.3149 0.0
C415 C 0.28508 0.76112 0.32545 0.0
O416 O 0.25701 0.7918 0.24057 0.0
O417 O 0.23731 0.79155 0.27455 0.0
O418 O 0.30882 0.78124 0.27118 0.0
O419 O 0.29441 0.75506 0.26841 0.0
O420 O 0.27769 0.82309 0.25508 0.0
O421 O 0.31159 0.82145 0.26652 0.0
O422 O 0.33865 0.7822 0.32176 0.0
O423 O 0.3351 0.81703 0.30704 0.0
O424 O 0.27403 0.81217 0.30158 0.0
O425 O 0.28564 0.82906 0.32436 0.0
O426 O 0.30201 0.76949 0.3247 0.0
O427 O 0.26969 0.76856 0.31018 0.0
H428 H 0.1957 0.79412 0.25892 0.0
H429 H 0.17428 0.77598 0.23824 0.0
H430 H 0.2321 0.74002 0.19963 0.0
H431 H 0.25348 0.75814 0.22033 0.0
H432 H 0.38022 0.77112 0.34071 0.0
H433 H 0.40104 0.77832 0.3715 0.0
H434 H 0.35855 0.84514 0.37452 0.0
H435 H 0.33739 0.83762 0.34407 0.0
Sm436 Sm 0.28881 0.78741 0.80551 0.0
Sm437 Sm 0.27445 0.75654 0.77902 0.0
C438 C 0.2921 0.81984 0.83046 0.0
C439 C 0.28073 0.83229 0.85065 0.0
C440 C 0.28108 0.85462 0.85115 0.0
C441 C 0.27345 0.8658 0.87167 0.0
C442 C 0.26541 0.85475 0.89211 0.0
C443 C 0.26373 0.83282 0.89099 0.0
C444 C 0.27125 0.82168 0.87032 0.0
C445 C 0.3169 0.74515 0.80763 0.0
C446 C 0.24967 0.76527 0.8305 0.0
C447 C 0.26675 0.72753 0.7522 0.0
C448 C 0.27385 0.71313 0.73221 0.0
C449 C 0.28693 0.69108 0.73567 0.0
C450 C 0.28951 0.6762 0.71799 0.0
C451 C 0.27894 0.68309 0.69664 0.0
C452 C 0.26712 0.70559 0.69265 0.0
C453 C 0.2646 0.7204 0.71022 0.0
C454 C 0.24723 0.79942 0.77797 0.0
C455 C 0.31567 0.77557 0.75571 0.0
O456 O 0.28254 0.82377 0.81041 0.0
O457 O 0.30173 0.79866 0.83546 0.0
O458 O 0.29649 0.7489 0.80938 0.0
O459 O 0.32264 0.76367 0.80629 0.0
O460 O 0.25891 0.78193 0.82951 0.0
O461 O 0.25547 0.75034 0.8145 0.0
O462 O 0.27568 0.72143 0.77263 0.0
O463 O 0.26144 0.74922 0.74689 0.0
O464 O 0.26755 0.79479 0.77481 0.0
O465 O 0.24081 0.78131 0.78146 0.0
O466 O 0.30633 0.75895 0.75739 0.0
O467 O 0.30907 0.7918 0.77022 0.0
H468 H 0.28828 0.86307 0.8361 0.0
H469 H 0.27525 0.88258 0.87205 0.0
H470 H 0.25751 0.82398 0.90643 0.0
H471 H 0.2706 0.80447 0.87015 0.0
H472 H 0.29429 0.68498 0.75245 0.0
H473 H 0.299 0.65906 0.72146 0.0
H474 H 0.25846 0.71147 0.67666 0.0
H475 H 0.25422 0.73721 0.70711 0.0
Sm476 Sm 0.28928 0.25246 0.79629 0.0
Sm477 Sm 0.31004 0.28592 0.81087 0.0
C478 C 0.27224 0.21858 0.79381 0.0
C479 C 0.25344 0.21252 0.78649 0.0
C480 C 0.24393 0.1984 0.80225 0.0
C481 C 0.22793 0.18995 0.79482 0.0
C482 C 0.22125 0.19532 0.77138 0.0
C483 C 0.23012 0.2103 0.75593 0.0
C484 C 0.2461 0.21883 0.76342 0.0
C485 C 0.28186 0.29105 0.76521 0.0
C486 C 0.26355 0.28705 0.8369 0.0
C487 C 0.33277 0.3152 0.81261 0.0
C488 C 0.34612 0.32288 0.82782 0.0
C489 C 0.36614 0.32533 0.81796 0.0
C490 C 0.37944 0.33265 0.83146 0.0
C491 C 0.37299 0.33774 0.85517 0.0
C492 C 0.35287 0.3353 0.86513 0.0
C493 C 0.33954 0.32778 0.85157 0.0
C494 C 0.31564 0.24771 0.84233 0.0
C495 C 0.3326 0.25514 0.76818 0.0
O496 O 0.26969 0.22957 0.81286 0.0
O497 O 0.28505 0.22504 0.77691 0.0
O498 O 0.28229 0.29052 0.78766 0.0
O499 O 0.28255 0.27136 0.75907 0.0
O500 O 0.26528 0.26841 0.82666 0.0
O501 O 0.27773 0.29894 0.8319 0.0
O502 O 0.34094 0.29516 0.80541 0.0
O503 O 0.31191 0.31995 0.81763 0.0
O504 O 0.31674 0.24789 0.81978 0.0
O505 O 0.31394 0.26759 0.84854 0.0
O506 O 0.32619 0.27588 0.77415 0.0
O507 O 0.32376 0.23992 0.77953 0.0
H508 H 0.24934 0.19335 0.82012 0.0
H509 H 0.22109 0.17883 0.80731 0.0
H510 H 0.22538 0.21468 0.73775 0.0
H511 H 0.25318 0.22976 0.75091 0.0
H512 H 0.37145 0.32173 0.79964 0.0
H513 H 0.3946 0.33488 0.82308 0.0
H514 H 0.34752 0.33915 0.88336 0.0
H515 H 0.32415 0.3259 0.85956 0.0
Sm516 Sm 0.77343 0.28109 0.78777 0.0
Sm517 Sm 0.80749 0.29368 0.81945 0.0
C518 C 0.7369 0.28358 0.76795 0.0
C519 C 0.72511 0.28342 0.7464 0.0
C520 C 0.71515 0.30361 0.73332 0.0
C521 C 0.70147 0.30386 0.71527 0.0
C522 C 0.6972 0.28394 0.70982 0.0
C523 C 0.70755 0.2637 0.7226 0.0
C524 C 0.72122 0.26346 0.74063 0.0
C525 C 0.81449 0.25244 0.78081 0.0
C526 C 0.80428 0.31396 0.76407 0.0
C527 C 0.83694 0.2978 0.84733 0.0
C528 C 0.85343 0.2891 0.86527 0.0
C529 C 0.87247 0.27217 0.86068 0.0
C530 C 0.88897 0.26658 0.87668 0.0
C531 C 0.88693 0.27784 0.8976 0.0
C532 C 0.86758 0.29436 0.90231 0.0
C533 C 0.85114 0.29987 0.88641 0.0
C534 C 0.76705 0.32363 0.81616 0.0
C535 C 0.78528 0.2526 0.83905 0.0
O536 O 0.74378 0.30116 0.77049 0.0
O537 O 0.74949 0.26474 0.77691 0.0
O538 O 0.80858 0.26877 0.79352 0.0
O539 O 0.79806 0.25153 0.76956 0.0
O540 O 0.78612 0.30796 0.76347 0.0
O541 O 0.81694 0.30758 0.78209 0.0
O542 O 0.84145 0.29225 0.82524 0.0
O543 O 0.81645 0.30124 0.85434 0.0
O544 O 0.77093 0.30249 0.81847 0.0
O545 O 0.78472 0.32958 0.81678 0.0
O546 O 0.80161 0.26156 0.83934 0.0
O547 O 0.7703 0.25971 0.82335 0.0
H548 H 0.71746 0.31939 0.73745 0.0
H549 H 0.69408 0.31976 0.70572 0.0
H550 H 0.70449 0.24803 0.71932 0.0
H551 H 0.72819 0.24765 0.7506 0.0
H552 H 0.87484 0.2636 0.8445 0.0
H553 H 0.90341 0.25353 0.87249 0.0
H554 H 0.86537 0.30376 0.91787 0.0
H555 H 0.83683 0.31323 0.89027 0.0
Sm556 Sm 0.76581 0.77037 0.80707 0.0
Sm557 Sm 0.79119 0.7965 0.7693 0.0
C558 C 0.73733 0.75523 0.83596 0.0
C559 C 0.72355 0.74004 0.8351 0.0
C560 C 0.71042 0.74203 0.81604 0.0
C561 C 0.69795 0.72696 0.81543 0.0
C562 C 0.69857 0.70961 0.83371 0.0
C563 C 0.71177 0.70763 0.85266 0.0
C564 C 0.72409 0.72278 0.85339 0.0
C565 C 0.80891 0.76337 0.81397 0.0
C566 C 0.7862 0.74715 0.75872 0.0
C567 C 0.82312 0.81084 0.7465 0.0
C568 C 0.83853 0.82368 0.75027 0.0
C569 C 0.86075 0.81364 0.74737 0.0
C570 C 0.87555 0.82618 0.74847 0.0
C571 C 0.86841 0.84913 0.75225 0.0
C572 C 0.84615 0.85895 0.75594 0.0
C573 C 0.83138 0.84636 0.75504 0.0
C574 C 0.75133 0.79941 0.75274 0.0
C575 C 0.76654 0.82213 0.81612 0.0
O576 O 0.73239 0.77444 0.82293 0.0
O577 O 0.75807 0.74574 0.83558 0.0
O578 O 0.79607 0.78191 0.80757 0.0
O579 O 0.79891 0.74767 0.81722 0.0
O580 O 0.77012 0.74936 0.77531 0.0
O581 O 0.799 0.76082 0.75608 0.0
O582 O 0.826 0.79063 0.75751 0.0
O583 O 0.80278 0.82204 0.7457 0.0
O584 O 0.7587 0.78966 0.77206 0.0
O585 O 0.76504 0.80946 0.74161 0.0
O586 O 0.77946 0.82296 0.79658 0.0
O587 O 0.75897 0.80452 0.82303 0.0
H588 H 0.70988 0.75507 0.80156 0.0
H589 H 0.6881 0.7286 0.80049 0.0
H590 H 0.71237 0.6945 0.86706 0.0
H591 H 0.73414 0.72096 0.8682 0.0
H592 H 0.86667 0.79618 0.74371 0.0
H593 H 0.89259 0.81796 0.74598 0.0
H594 H 0.84001 0.87661 0.75861 0.0
H595 H 0.81434 0.85464 0.75738 0.0
H596 H 0.10124 0.06167 0.35133 0.0
H597 H 0.12696 0.08452 0.34431 0.0
H598 H 0.07857 0.14106 0.37072 0.0
H599 H 0.05262 0.1185 0.37718 0.0
H600 H 0.10006 0.15276 0.32923 0.0
H601 H 0.11841 0.11129 0.40542 0.0
H602 H 0.12858 0.07686 0.43262 0.0
H603 H 0.18591 0.05261 0.38761 0.0
H604 H 0.17594 0.08681 0.36 0.0
H605 H 0.16341 0.22421 0.34989 0.0
H606 H 0.13915 0.19992 0.35265 0.0
H607 H 0.19231 0.14472 0.33185 0.0
H608 H 0.21678 0.16894 0.32958 0.0
H609 H 0.16939 0.13105 0.36807 0.0
H610 H 0.15307 0.17285 0.29312 0.0
H611 H 0.14366 0.207 0.26544 0.0
H612 H 0.08335 0.22987 0.30598 0.0
H613 H 0.09255 0.19604 0.33418 0.0
C614 C 0.09605 0.07898 0.35557 0.0
C615 C 0.07488 0.08823 0.36487 0.0
C616 C 0.1108 0.09198 0.35168 0.0
C617 C 0.1047 0.11445 0.35712 0.0
C618 C 0.0836 0.12374 0.36642 0.0
C619 C 0.06886 0.11074 0.37035 0.0
C620 C 0.12027 0.12834 0.35312 0.0
C621 C 0.11512 0.14817 0.3379 0.0
C622 C 0.14022 0.12194 0.36383 0.0
C623 C 0.14633 0.1015 0.38055 0.0
C624 C 0.13311 0.09855 0.40125 0.0
C625 C 0.13885 0.07909 0.41675 0.0
C626 C 0.15785 0.06254 0.41182 0.0
C627 C 0.17119 0.06544 0.3914 0.0
C628 C 0.16552 0.08486 0.37584 0.0
C629 C 0.16987 0.20698 0.34559 0.0
C630 C 0.19196 0.19848 0.33943 0.0
C631 C 0.15599 0.1931 0.34716 0.0
C632 C 0.16383 0.17055 0.34215 0.0
C633 C 0.18589 0.16206 0.3358 0.0
C634 C 0.19984 0.17589 0.3345 0.0
C635 C 0.14912 0.15568 0.34436 0.0
C636 C 0.15441 0.13563 0.35923 0.0
C637 C 0.1294 0.1618 0.33312 0.0
C638 C 0.12359 0.18196 0.31589 0.0
C639 C 0.13785 0.18521 0.29622 0.0
C640 C 0.13256 0.20452 0.28043 0.0
C641 C 0.11295 0.22061 0.28398 0.0
C642 C 0.09855 0.21739 0.30327 0.0
C643 C 0.10379 0.19814 0.31915 0.0
H644 H 0.1089 0.23556 0.27175 0.0
H645 H 0.16226 0.04748 0.42383 0.0
H646 H 0.99419 0.09798 0.31363 0.0
H647 H 0.96452 0.13221 0.30926 0.0
H648 H 0.91996 0.09209 0.30686 0.0
H649 H 0.94932 0.05797 0.31162 0.0
H650 H 0.93426 0.15258 0.27847 0.0
H651 H 0.87385 0.11388 0.33939 0.0
H652 H 0.87445 0.08426 0.37237 0.0
H653 H 0.93497 0.09071 0.39193 0.0
H654 H 0.93457 0.12058 0.35932 0.0
H655 H 0.83041 0.2286 0.27212 0.0
H656 H 0.86025 0.19445 0.27209 0.0
H657 H 0.86755 0.19883 0.34658 0.0
H658 H 0.83728 0.23258 0.34685 0.0
H659 H 0.87318 0.15718 0.33979 0.0
H660 H 0.90148 0.21594 0.30043 0.0
H661 H 0.90223 0.24787 0.27083 0.0
H662 H 0.90941 0.20534 0.21371 0.0
H663 H 0.90839 0.17313 0.24308 0.0
C664 C 0.97815 0.09645 0.31165 0.0
C665 C 0.97415 0.07517 0.3132 0.0
C666 C 0.96116 0.11607 0.3092 0.0
C667 C 0.93986 0.1148 0.30825 0.0
C668 C 0.93614 0.09358 0.30809 0.0
C669 C 0.95301 0.07403 0.31069 0.0
C670 C 0.92135 0.13537 0.30906 0.0
C671 C 0.92088 0.15354 0.29182 0.0
C672 C 0.90406 0.13701 0.32684 0.0
C673 C 0.90427 0.11929 0.34675 0.0
C674 C 0.88724 0.10903 0.3508 0.0
C675 C 0.88755 0.0922 0.36942 0.0
C676 C 0.90477 0.08556 0.38418 0.0
C677 C 0.92168 0.09581 0.38043 0.0
C678 C 0.92142 0.11268 0.36187 0.0
C679 C 0.83827 0.22215 0.28855 0.0
C680 C 0.83157 0.23336 0.30947 0.0
C681 C 0.85545 0.20269 0.28847 0.0
C682 C 0.86656 0.19419 0.30921 0.0
C683 C 0.85938 0.205 0.33031 0.0
C684 C 0.84206 0.22434 0.33045 0.0
C685 C 0.8858 0.17427 0.30888 0.0
C686 C 0.88646 0.15621 0.3263 0.0
C687 C 0.90351 0.17303 0.29167 0.0
C688 C 0.90467 0.19218 0.27395 0.0
C689 C 0.90312 0.21341 0.28156 0.0
C690 C 0.90359 0.23157 0.26481 0.0
C691 C 0.90581 0.22868 0.24037 0.0
C692 C 0.90767 0.20757 0.23265 0.0
C693 C 0.90717 0.18934 0.24934 0.0
H694 H 0.90615 0.24278 0.22741 0.0
H695 H 0.90499 0.0725 0.39856 0.0
H696 H 0.96689 0.97873 0.39897 0.0
H697 H 0.9452 0.95395 0.39133 0.0
H698 H 0.98717 0.93331 0.32908 0.0
H699 H 1.00924 0.95767 0.33685 0.0
H700 H 0.94459 0.94784 0.31936 0.0
H701 H 0.98742 0.89701 0.37713 0.0
H702 H 1.00377 0.88522 0.41581 0.0
H703 H 0.94086 0.89755 0.4524 0.0
H704 H 0.92411 0.90973 0.41395 0.0
H705 H 0.89497 0.86686 0.29046 0.0
H706 H 0.9216 0.88474 0.30153 0.0
H707 H 0.88378 0.90176 0.36745 0.0
H708 H 0.85725 0.88358 0.3566 0.0
H709 H 0.92538 0.88797 0.37533 0.0
H710 H 0.88241 0.94066 0.31896 0.0
H711 H 0.86521 0.95354 0.28088 0.0
H712 H 0.92734 0.93928 0.24244 0.0
H713 H 0.94491 0.92602 0.28029 0.0
C714 C 0.97186 0.96856 0.38398 0.0
C715 C 0.98974 0.97041 0.36839 0.0
C716 C 0.95937 0.95442 0.3796 0.0
C717 C 0.96456 0.94183 0.35962 0.0
C718 C 0.98282 0.943 0.34453 0.0
C719 C 0.99536 0.95703 0.34895 0.0
C720 C 0.95008 0.92874 0.35344 0.0
C721 C 0.94067 0.93447 0.33142 0.0
C722 C 0.94449 0.91181 0.36952 0.0
C723 C 0.95451 0.90449 0.39267 0.0
C724 C 0.97707 0.8974 0.39344 0.0
C725 C 0.98641 0.89061 0.41532 0.0
C726 C 0.97336 0.89069 0.43655 0.0
C727 C 0.95094 0.89752 0.43594 0.0
C728 C 0.94152 0.90435 0.41411 0.0
C729 C 0.89233 0.87447 0.30728 0.0
C730 C 0.87396 0.87398 0.32258 0.0
C731 C 0.90755 0.88465 0.3136 0.0
C732 C 0.90453 0.89489 0.33517 0.0
C733 C 0.88645 0.89397 0.35074 0.0
C734 C 0.87131 0.88359 0.34452 0.0
C735 C 0.91991 0.90705 0.3412 0.0
C736 C 0.92941 0.90123 0.36321 0.0
C737 C 0.92547 0.92408 0.32521 0.0
C738 C 0.91496 0.93213 0.30243 0.0
C739 C 0.8924 0.94011 0.30237 0.0
C740 C 0.88259 0.94751 0.28083 0.0
C741 C 0.89518 0.94717 0.25925 0.0
C742 C 0.91761 0.9395 0.25917 0.0
C743 C 0.9275 0.93205 0.28066 0.0
H744 H 0.88755 0.95291 0.24259 0.0
H745 H 0.98063 0.88542 0.45348 0.0
H746 H 0.10531 0.98508 0.36715 0.0
H747 H 0.13822 0.95649 0.35761 0.0
H748 H 0.11583 0.9525 0.28896 0.0
H749 H 0.08234 0.98155 0.29852 0.0
H750 H 0.13291 0.90991 0.31363 0.0
H751 H 0.15521 0.97668 0.29033 0.0
H752 H 0.15889 0.01443 0.29492 0.0
H753 H 0.19529 0.98866 0.35647 0.0
H754 H 0.19157 0.95079 0.35247 0.0
H755 H 0.23635 0.83554 0.28421 0.0
H756 H 0.20286 0.8657 0.2838 0.0
H757 H 0.2191 0.88852 0.34754 0.0
H758 H 0.25308 0.85901 0.34721 0.0
H759 H 0.20464 0.92296 0.31898 0.0
H760 H 0.17874 0.85771 0.34561 0.0
H761 H 0.17479 0.81981 0.34227 0.0
H762 H 0.14507 0.84244 0.27586 0.0
H763 H 0.14904 0.88045 0.2787 0.0
C764 C 0.10731 0.97831 0.34991 0.0
C765 C 0.09111 0.98568 0.33358 0.0
C766 C 0.12626 0.96194 0.34445 0.0
C767 C 0.12966 0.95238 0.32251 0.0
C768 C 0.1136 0.95967 0.30601 0.0
C769 C 0.09454 0.97636 0.3114 0.0
C770 C 0.14992 0.93453 0.3175 0.0
C771 C 0.14864 0.91284 0.3143 0.0
C772 C 0.17046 0.93818 0.31887 0.0
C773 C 0.17299 0.96089 0.32117 0.0
C774 C 0.16389 0.97907 0.30493 0.0
C775 C 0.166 1.0005 0.30742 0.0
C776 C 0.17728 1.00395 0.326 0.0
C777 C 0.18655 0.98596 0.34209 0.0
C778 C 0.18447 0.9645 0.33969 0.0
C779 C 0.23263 0.84685 0.29828 0.0
C780 C 0.24724 0.8448 0.31588 0.0
C781 C 0.21341 0.86411 0.29808 0.0
C782 C 0.2081 0.87938 0.31585 0.0
C783 C 0.22269 0.87709 0.33358 0.0
C784 C 0.24207 0.86011 0.33351 0.0
C785 C 0.18772 0.89806 0.31582 0.0
C786 C 0.18898 0.91997 0.31805 0.0
C787 C 0.16718 0.89455 0.31372 0.0
C788 C 0.16438 0.87185 0.31225 0.0
C789 C 0.17145 0.85457 0.33025 0.0
C790 C 0.16919 0.83308 0.32845 0.0
C791 C 0.15974 0.8287 0.30883 0.0
C792 C 0.15241 0.84585 0.29103 0.0
C793 C 0.15463 0.86737 0.29274 0.0
H794 H 0.15806 0.81204 0.30743 0.0
H795 H 0.17888 0.02055 0.32791 0.0
H796 H 0.12138 0.9976 0.73729 0.0
H797 H 0.1514 0.96516 0.7466 0.0
H798 H 0.1089 0.93547 0.79473 0.0
H799 H 0.07865 0.96862 0.78589 0.0
H800 H 0.1496 0.92475 0.81126 0.0
H801 H 0.12001 0.92129 0.73741 0.0
H802 H 0.10741 0.93519 0.69725 0.0
H803 H 0.17076 0.94076 0.67232 0.0
H804 H 0.18366 0.92719 0.71246 0.0
H805 H 0.20657 0.81006 0.79851 0.0
H806 H 0.18033 0.84676 0.79824 0.0
H807 H 0.227 0.87702 0.75845 0.0
H808 H 0.2537 0.84009 0.75913 0.0
H809 H 0.18531 0.88786 0.73872 0.0
H810 H 0.21532 0.88851 0.81275 0.0
H811 H 0.22767 0.87242 0.85248 0.0
H812 H 0.16329 0.87005 0.87687 0.0
H813 H 0.15061 0.8858 0.83712 0.0
C814 C 0.11847 0.9844 0.75028 0.0
C815 C 0.09759 0.98562 0.76074 0.0
C816 C 0.13567 0.96576 0.75551 0.0
C817 C 0.13242 0.94748 0.77089 0.0
C818 C 0.11186 0.94926 0.78267 0.0
C819 C 0.09457 0.96823 0.77768 0.0
C820 C 0.15006 0.92608 0.77287 0.0
C821 C 0.15724 0.91659 0.79542 0.0
C822 C 0.16041 0.91544 0.75221 0.0
C823 C 0.15275 0.92343 0.728 0.0
C824 C 0.13122 0.92562 0.7234 0.0
C825 C 0.12402 0.93343 0.70064 0.0
C826 C 0.13826 0.93891 0.68226 0.0
C827 C 0.15974 0.93654 0.68659 0.0
C828 C 0.16701 0.92878 0.70934 0.0
C829 C 0.21135 0.82455 0.78983 0.0
C830 C 0.23217 0.82218 0.7787 0.0
C831 C 0.19633 0.84555 0.7898 0.0
C832 C 0.20165 0.8647 0.77837 0.0
C833 C 0.22254 0.86248 0.7674 0.0
C834 C 0.23779 0.84142 0.76784 0.0
C835 C 0.18493 0.88669 0.777 0.0
C836 C 0.17782 0.89617 0.75454 0.0
C837 C 0.17461 0.89712 0.79772 0.0
C838 C 0.18203 0.88818 0.82186 0.0
C839 C 0.20381 0.88443 0.82653 0.0
C840 C 0.21088 0.87539 0.84906 0.0
C841 C 0.19629 0.87018 0.86718 0.0
C842 C 0.17458 0.87409 0.86281 0.0
C843 C 0.16743 0.88311 0.84028 0.0
H844 H 0.2018 0.86314 0.8846 0.0
H845 H 0.13266 0.94495 0.66465 0.0
H846 H 0.07569 0.11625 0.69311 0.0
H847 H 0.10047 0.1385 0.69921 0.0
H848 H 0.1362 0.08371 0.74526 0.0
H849 H 0.11141 0.06162 0.73937 0.0
H850 H 0.12643 0.12154 0.76615 0.0
H851 H 0.15622 0.0981 0.68858 0.0
H852 H 0.15532 0.09376 0.64575 0.0
H853 H 0.13459 0.16533 0.63129 0.0
H854 H 0.13508 0.17009 0.67412 0.0
H855 H 0.22095 0.15144 0.77986 0.0
H856 H 0.19552 0.13321 0.76691 0.0
H857 H 0.16204 0.19551 0.72987 0.0
H858 H 0.1874 0.21411 0.74309 0.0
H859 H 0.16818 0.15769 0.70347 0.0
H860 H 0.14037 0.18068 0.78129 0.0
H861 H 0.14238 0.18439 0.82407 0.0
H862 H 0.16012 0.11268 0.8379 0.0
H863 H 0.15854 0.10853 0.79512 0.0
C864 C 0.08906 0.10887 0.70418 0.0
C865 C 0.09154 0.0873 0.71595 0.0
C866 C 0.10319 0.12157 0.70766 0.0
C867 C 0.12018 0.11275 0.7227 0.0
C868 C 0.1231 0.09091 0.73374 0.0
C869 C 0.10892 0.07833 0.73041 0.0
C870 C 0.13419 0.1266 0.72829 0.0
C871 C 0.13572 0.12923 0.75242 0.0
C872 C 0.14574 0.13727 0.71035 0.0
C873 C 0.14544 0.13444 0.6846 0.0
C874 C 0.15128 0.1129 0.6763 0.0
C875 C 0.15089 0.11037 0.65202 0.0
C876 C 0.14484 0.12925 0.63582 0.0
C877 C 0.13923 0.15071 0.64387 0.0
C878 C 0.13958 0.15334 0.66814 0.0
C879 C 0.20807 0.16137 0.76916 0.0
C880 C 0.20598 0.18432 0.76283 0.0
C881 C 0.19364 0.15088 0.76164 0.0
C882 C 0.17678 0.16309 0.7477 0.0
C883 C 0.17497 0.18583 0.74066 0.0
C884 C 0.18944 0.19641 0.74822 0.0
C885 C 0.16075 0.15205 0.74129 0.0
C886 C 0.15874 0.15009 0.7171 0.0
C887 C 0.14877 0.14187 0.75916 0.0
C888 C 0.14948 0.1443 0.78496 0.0
C889 C 0.14484 0.1657 0.79342 0.0
C890 C 0.14589 0.16788 0.81768 0.0
C891 C 0.15141 0.14878 0.83369 0.0
C892 C 0.15585 0.12746 0.82548 0.0
C893 C 0.15486 0.12519 0.80123 0.0
H894 H 0.15222 0.15051 0.85246 0.0
H895 H 0.14455 0.12725 0.61702 0.0
H896 H 0.98185 0.07441 0.79526 0.0
H897 H 0.95138 0.10596 0.8072 0.0
H898 H 0.95527 0.13938 0.73649 0.0
H899 H 0.98512 0.10833 0.7246 0.0
H900 H 0.94877 0.16903 0.77047 0.0
H901 H 0.91969 0.10888 0.7517 0.0
H902 H 0.91446 0.07077 0.7574 0.0
H903 H 0.88882 0.08186 0.82948 0.0
H904 H 0.89425 0.11995 0.82431 0.0
H905 H 0.82683 0.21631 0.75474 0.0
H906 H 0.86 0.18595 0.75595 0.0
H907 H 0.88252 0.21777 0.80894 0.0
H908 H 0.84913 0.24847 0.80765 0.0
H909 H 0.87686 0.15537 0.79098 0.0
H910 H 0.93833 0.20413 0.80109 0.0
H911 H 0.94279 0.24249 0.79292 0.0
H912 H 0.90253 0.25437 0.7339 0.0
H913 H 0.89804 0.21602 0.74158 0.0
C914 C 0.97631 0.08862 0.78242 0.0
C915 C 0.98584 0.08872 0.75892 0.0
C916 C 0.95886 0.10662 0.78921 0.0
C917 C 0.95092 0.12511 0.77271 0.0
C918 C 0.96104 0.12545 0.74961 0.0
C919 C 0.97809 0.10751 0.74279 0.0
C920 C 0.93144 0.14375 0.77849 0.0
C921 C 0.93311 0.16599 0.77534 0.0
C922 C 0.91087 0.13998 0.78466 0.0
C923 C 0.9077 0.11709 0.78775 0.0
C924 C 0.91316 0.1031 0.76885 0.0
C925 C 0.91013 0.08153 0.77197 0.0
C926 C 0.90142 0.07386 0.79383 0.0
C927 C 0.89566 0.08778 0.8126 0.0
C928 C 0.89873 0.10935 0.80959 0.0
C929 C 0.83888 0.21696 0.76656 0.0
C930 C 0.8354 0.23491 0.78095 0.0
C931 C 0.85782 0.19946 0.76738 0.0
C932 C 0.87388 0.19942 0.78252 0.0
C933 C 0.8705 0.21741 0.79695 0.0
C934 C 0.85144 0.235 0.79615 0.0
C935 C 0.89415 0.18065 0.78261 0.0
C936 C 0.89261 0.1584 0.78679 0.0
C937 C 0.9148 0.18441 0.77718 0.0
C938 C 0.91768 0.20733 0.77209 0.0
C939 C 0.9305 0.21492 0.78633 0.0
C940 C 0.93302 0.23666 0.78179 0.0
C941 C 0.92289 0.25088 0.76295 0.0
C942 C 0.9103 0.24337 0.74854 0.0
C943 C 0.90774 0.22165 0.753 0.0
H944 H 0.92483 0.26771 0.75949 0.0
H945 H 0.89905 0.05717 0.7962 0.0
H946 H 0.97225 1.00038 0.74987 0.0
H947 H 0.94862 0.97529 0.75638 0.0
H948 H 0.98727 0.93396 0.70311 0.0
H949 H 1.01106 0.95882 0.69663 0.0
H950 H 0.94458 0.94147 0.6979 0.0
H951 H 0.99204 0.9179 0.76227 0.0
H952 H 1.00987 0.92339 0.7971 0.0
H953 H 0.94825 0.94632 0.83512 0.0
H954 H 0.93003 0.94125 0.80038 0.0
H955 H 0.90448 0.84659 0.72181 0.0
H956 H 0.92853 0.87109 0.7177 0.0
H957 H 0.891 0.90883 0.7743 0.0
H958 H 0.8675 0.88358 0.77947 0.0
H959 H 0.93249 0.90391 0.77821 0.0
H960 H 0.88479 0.92762 0.71474 0.0
H961 H 0.86628 0.92304 0.68005 0.0
H962 H 0.92726 0.90118 0.64043 0.0
H963 H 0.94616 0.90534 0.67502 0.0
C964 C 0.97583 0.98588 0.73965 0.0
C965 C 0.99365 0.98159 0.72281 0.0
C966 C 0.96228 0.97157 0.74337 0.0
C967 C 0.96634 0.95261 0.73043 0.0
C968 C 0.98384 0.9485 0.71328 0.0
C969 C 0.99738 0.96281 0.70954 0.0
C970 C 0.95237 0.93701 0.73471 0.0
C971 C 0.94215 0.93303 0.71539 0.0
C972 C 0.94873 0.9265 0.75768 0.0
C973 C 0.95967 0.9294 0.77864 0.0
C974 C 0.98229 0.92427 0.778 0.0
C975 C 0.99246 0.92728 0.79773 0.0
C976 C 0.9802 0.93525 0.81829 0.0
C977 C 0.95773 0.94017 0.81918 0.0
C978 C 0.94747 0.93721 0.79948 0.0
C979 C 0.90155 0.85978 0.73376 0.0
C980 C 0.88393 0.86314 0.7509 0.0
C981 C 0.91518 0.87399 0.73115 0.0
C982 C 0.91129 0.89211 0.74533 0.0
C983 C 0.8942 0.89507 0.76302 0.0
C984 C 0.88066 0.88073 0.76579 0.0
C985 C 0.9248 0.90822 0.74134 0.0
C986 C 0.9349 0.91234 0.76071 0.0
C987 C 0.92822 0.919 0.71843 0.0
C988 C 0.91689 0.91659 0.69755 0.0
C989 C 0.89426 0.92168 0.69869 0.0
C990 C 0.8837 0.91919 0.67904 0.0
C991 C 0.89559 0.91177 0.65807 0.0
C992 C 0.91807 0.9069 0.65669 0.0
C993 C 0.92871 0.90934 0.67631 0.0
H994 H 0.88739 0.90985 0.64287 0.0
H995 H 0.98811 0.93757 0.83355 0.0
H996 H 0.31107 0.06134 0.18122 0.0
H997 H 0.3102 0.09028 0.20779 0.0
H998 H 0.33146 0.13058 0.14838 0.0
H999 H 0.33233 0.10162 0.12164 0.0
H1000 H 0.35329 0.12716 0.19157 0.0
H1001 H 0.28128 0.14449 0.16476 0.0
H1002 H 0.24727 0.13596 0.15816 0.0
H1003 H 0.23681 0.12014 0.23361 0.0
H1004 H 0.27094 0.12827 0.24061 0.0
H1005 H 0.3274 0.23371 0.23643 0.0
H1006 H 0.33245 0.20109 0.21405 0.0
H1007 H 0.29739 0.17087 0.271 0.0
H1008 H 0.29154 0.20398 0.29319 0.0
H1009 H 0.28344 0.16714 0.23076 0.0
H1010 H 0.35374 0.15129 0.25886 0.0
H1011 H 0.38796 0.15877 0.26656 0.0
H1012 H 0.40242 0.17002 0.19108 0.0
H1013 H 0.36814 0.16291 0.18292 0.0
C1014 C 0.31577 0.07625 0.17386 0.0
C1015 C 0.32175 0.07926 0.14935 0.0
C1016 C 0.31516 0.0928 0.18903 0.0
C1017 C 0.32068 0.11256 0.17999 0.0
C1018 C 0.32714 0.11542 0.15565 0.0
C1019 C 0.32748 0.09898 0.1404 0.0
C1020 C 0.31917 0.1305 0.19585 0.0
C1021 C 0.33803 0.13611 0.2 0.0
C1022 C 0.29932 0.14158 0.20736 0.0
C1023 C 0.27878 0.13674 0.20317 0.0
C1024 C 0.27183 0.13899 0.17991 0.0
C1025 C 0.25251 0.13427 0.17611 0.0
C1026 C 0.23992 0.12744 0.19545 0.0
C1027 C 0.2466 0.12539 0.21864 0.0
C1028 C 0.26592 0.13006 0.22254 0.0
C1029 C 0.321 0.22002 0.2444 0.0
C1030 C 0.30909 0.22146 0.26665 0.0
C1031 C 0.324 0.20127 0.23159 0.0
C1032 C 0.31557 0.18332 0.24094 0.0
C1033 C 0.30407 0.18449 0.26341 0.0
C1034 C 0.3008 0.2034 0.27612 0.0
C1035 C 0.31762 0.16404 0.22658 0.0
C1036 C 0.29881 0.15814 0.22261 0.0
C1037 C 0.33759 0.15253 0.21547 0.0
C1038 C 0.35827 0.15674 0.22029 0.0
C1039 C 0.36414 0.15552 0.2439 0.0
C1040 C 0.38356 0.15966 0.24835 0.0
C1041 C 0.39733 0.16491 0.22932 0.0
C1042 C 0.39173 0.16597 0.2058 0.0
C1043 C 0.37231 0.16185 0.20125 0.0
H1044 H 0.41236 0.16812 0.2328 0.0
H1045 H 0.22497 0.12381 0.19247 0.0
H1046 H 0.99938 0.27823 0.12996 0.0
H1047 H 0.96445 0.27579 0.14866 0.0
H1048 H 0.94944 0.34503 0.16399 0.0
H1049 H 0.98427 0.3478 0.14495 0.0
H1050 H 0.9407 0.31796 0.20274 0.0
H1051 H 0.92605 0.32943 0.11941 0.0
H1052 H 0.9325 0.32097 0.07716 0.0
H1053 H 0.92333 0.25535 0.09665 0.0
H1054 H 0.91713 0.2633 0.13908 0.0
H1055 H 0.83284 0.33228 0.24404 0.0
H1056 H 0.86503 0.33622 0.21951 0.0
H1057 H 0.87536 0.2694 0.19776 0.0
H1058 H 0.84244 0.26585 0.22149 0.0
H1059 H 0.88673 0.29462 0.1617 0.0
H1060 H 0.90237 0.28139 0.24374 0.0
H1061 H 0.8975 0.28739 0.28671 0.0
H1062 H 0.90681 0.35333 0.27059 0.0
H1063 H 0.91143 0.34779 0.22751 0.0
C1064 C 0.98862 0.2931 0.13694 0.0
C1065 C 0.9948 0.31328 0.13578 0.0
C1066 C 0.96859 0.29163 0.14771 0.0
C1067 C 0.9542 0.31028 0.15754 0.0
C1068 C 0.96028 0.3304 0.15652 0.0
C1069 C 0.98029 0.33193 0.14569 0.0
C1070 C 0.93312 0.3086 0.1696 0.0
C1071 C 0.92875 0.31322 0.19365 0.0
C1072 C 0.91785 0.30159 0.15801 0.0
C1073 C 0.92132 0.29689 0.13246 0.0
C1074 C 0.92556 0.31314 0.11471 0.0
C1075 C 0.92915 0.30844 0.09073 0.0
C1076 C 0.92839 0.28761 0.08423 0.0
C1077 C 0.92395 0.27147 0.10171 0.0
C1078 C 0.92037 0.27607 0.12573 0.0
C1079 C 0.8418 0.31856 0.23373 0.0
C1080 C 0.83517 0.29874 0.23472 0.0
C1081 C 0.86031 0.32075 0.21983 0.0
C1082 C 0.87304 0.30288 0.20724 0.0
C1083 C 0.86591 0.28341 0.20737 0.0
C1084 C 0.84707 0.2814 0.2209 0.0
C1085 C 0.89416 0.30426 0.19484 0.0
C1086 C 0.89862 0.29947 0.17079 0.0
C1087 C 0.9097 0.31082 0.20651 0.0
C1088 C 0.90705 0.31421 0.23241 0.0
C1089 C 0.90325 0.29719 0.24938 0.0
C1090 C 0.90055 0.30051 0.27374 0.0
C1091 C 0.9018 0.32075 0.28137 0.0
C1092 C 0.90582 0.33767 0.26465 0.0
C1093 C 0.90849 0.33444 0.24026 0.0
H1094 H 0.89971 0.3233 0.30023 0.0
H1095 H 0.93119 0.284 0.06566 0.0
H1096 H 0.84881 0.92201 0.09504 0.0
H1097 H 0.84156 0.89844 0.13089 0.0
H1098 H 0.77921 0.90175 0.10686 0.0
H1099 H 0.78624 0.92562 0.07149 0.0
H1100 H 0.77478 0.90702 0.15209 0.0
H1101 H 0.82508 0.8532 0.1025 0.0
H1102 H 0.85943 0.83659 0.08009 0.0
H1103 H 0.89379 0.83321 0.14256 0.0
H1104 H 0.85964 0.85006 0.16526 0.0
H1105 H 0.78122 0.78553 0.2019 0.0
H1106 H 0.7879 0.81523 0.17294 0.0
H1107 H 0.78304 0.85803 0.2297 0.0
H1108 H 0.77566 0.82824 0.25906 0.0
H1109 H 0.82373 0.8322 0.17317 0.0
H1110 H 0.76481 0.91359 0.2006 0.0
H1111 H 0.72914 0.92676 0.22196 0.0
H1112 H 0.7099 0.8712 0.20058 0.0
H1113 H 0.74534 0.85789 0.17887 0.0
C1114 C 0.83364 0.91755 0.09739 0.0
C1115 C 0.81808 0.92569 0.08048 0.0
C1116 C 0.82949 0.90408 0.11788 0.0
C1117 C 0.80986 0.89816 0.12158 0.0
C1118 C 0.7944 0.90621 0.10459 0.0
C1119 C 0.79843 0.91986 0.08433 0.0
C1120 C 0.80517 0.88355 0.14298 0.0
C1121 C 0.78556 0.89068 0.15669 0.0
C1122 C 0.81928 0.86232 0.14934 0.0
C1123 C 0.83988 0.85319 0.13543 0.0
C1124 C 0.84 0.84921 0.11134 0.0
C1125 C 0.85942 0.83969 0.09862 0.0
C1126 C 0.87879 0.83402 0.10984 0.0
C1127 C 0.87879 0.83782 0.13383 0.0
C1128 C 0.85943 0.84737 0.14662 0.0
C1129 C 0.7812 0.80137 0.20827 0.0
C1130 C 0.77833 0.80445 0.2328 0.0
C1131 C 0.78526 0.81825 0.19169 0.0
C1132 C 0.78648 0.83861 0.19921 0.0
C1133 C 0.78232 0.84234 0.22356 0.0
C1134 C 0.77813 0.82537 0.24027 0.0
C1135 C 0.793 0.85523 0.18131 0.0
C1136 C 0.8131 0.84862 0.16858 0.0
C1137 C 0.77923 0.87671 0.17562 0.0
C1138 C 0.7578 0.88461 0.1884 0.0
C1139 C 0.75294 0.90422 0.20044 0.0
C1140 C 0.73277 0.91171 0.2126 0.0
C1141 C 0.71729 0.89977 0.21271 0.0
C1142 C 0.72193 0.88037 0.20058 0.0
C1143 C 0.74207 0.87283 0.18838 0.0
H1144 H 0.70169 0.90559 0.22213 0.0
H1145 H 0.89379 0.82656 0.1 0.0
H1146 H 0.09624 0.7262 0.05051 0.0
H1147 H 0.12158 0.72806 0.07933 0.0
H1148 H 0.08163 0.70493 0.13657 0.0
H1149 H 0.05606 0.7033 0.10776 0.0
H1150 H 0.09275 0.74244 0.14643 0.0
H1151 H 0.12919 0.67058 0.11928 0.0
H1152 H 0.1452 0.64347 0.0894 0.0
H1153 H 0.19013 0.68165 0.06326 0.0
H1154 H 0.17418 0.70918 0.09278 0.0
H1155 H 0.16727 0.73935 0.23237 0.0
H1156 H 0.14389 0.72742 0.20766 0.0
H1157 H 0.18191 0.74275 0.14423 0.0
H1158 H 0.20546 0.75429 0.16883 0.0
H1159 H 0.17124 0.70564 0.14001 0.0
H1160 H 0.13324 0.77916 0.16304 0.0
H1161 H 0.11705 0.80784 0.19127 0.0
H1162 H 0.07492 0.76839 0.22318 0.0
H1163 H 0.09108 0.73931 0.19534 0.0
C1164 C 0.09294 0.72137 0.06921 0.0
C1165 C 0.07415 0.71462 0.07686 0.0
C1166 C 0.1075 0.72229 0.08565 0.0
C1167 C 0.10358 0.71649 0.1101 0.0
C1168 C 0.08501 0.70939 0.11777 0.0
C1169 C 0.07051 0.7083 0.10128 0.0
C1170 C 0.11827 0.71912 0.12768 0.0
C1171 C 0.10985 0.73404 0.14535 0.0
C1172 C 0.14066 0.70863 0.12585 0.0
C1173 C 0.15037 0.69204 0.10814 0.0
C1174 C 0.14237 0.67329 0.10705 0.0
C1175 C 0.15146 0.65783 0.09019 0.0
C1176 C 0.16864 0.66086 0.07441 0.0
C1177 C 0.17681 0.67933 0.07549 0.0
C1178 C 0.16777 0.69485 0.0923 0.0
C1179 C 0.17067 0.74007 0.21316 0.0
C1180 C 0.18817 0.74782 0.20255 0.0
C1181 C 0.15729 0.73328 0.19904 0.0
C1182 C 0.16092 0.7345 0.17401 0.0
C1183 C 0.17877 0.7416 0.16348 0.0
C1184 C 0.19226 0.74817 0.17758 0.0
C1185 C 0.14577 0.72918 0.15862 0.0
C1186 C 0.1541 0.71382 0.14132 0.0
C1187 C 0.12331 0.73947 0.16059 0.0
C1188 C 0.11355 0.75694 0.17731 0.0
C1189 C 0.12064 0.77652 0.17621 0.0
C1190 C 0.11146 0.79286 0.19211 0.0
C1191 C 0.09502 0.78991 0.20906 0.0
C1192 C 0.08769 0.77063 0.21008 0.0
C1193 C 0.09685 0.75422 0.19424 0.0
H1194 H 0.08792 0.80258 0.22135 0.0
H1195 H 0.17566 0.64887 0.06137 0.0
H1196 H 0.30944 0.99396 1.00033 0.0
H1197 H 0.29665 0.96801 0.97974 0.0
H1198 H 0.32237 0.91443 0.03292 0.0
H1199 H 0.33467 0.94073 0.05408 0.0
H1200 H 0.31647 0.93082 0.95937 0.0
H1201 H 0.28722 0.87961 0.04069 0.0
H1202 H 0.27571 0.88349 0.08341 0.0
H1203 H 0.25407 0.95502 0.06919 0.0
H1204 H 0.26504 0.95154 0.02637 0.0
H1205 H 0.28007 0.83459 0.93492 0.0
H1206 H 0.28648 0.85387 0.96793 0.0
H1207 H 0.25157 0.91716 0.93411 0.0
H1208 H 0.24485 0.898 0.90114 0.0
H1209 H 0.26374 0.89181 1.00052 0.0
H1210 H 0.29056 0.94379 0.92015 0.0
H1211 H 0.30024 0.94094 0.87695 0.0
H1212 H 0.32535 0.86958 0.88952 0.0
H1213 H 0.31624 0.8721 0.9328 0.0
C1214 C 0.31244 0.97663 1.00757 0.0
C1215 C 0.32291 0.96936 0.02883 0.0
C1216 C 0.30522 0.9618 0.99576 0.0
C1217 C 0.30831 0.93938 1.00498 0.0
C1218 C 0.31958 0.93176 0.0257 0.0
C1219 C 0.32682 0.94669 0.03759 0.0
C1220 C 0.29925 0.92438 0.99286 0.0
C1221 C 0.30492 0.92237 0.96842 0.0
C1222 C 0.28442 0.91304 1.00476 0.0
C1223 C 0.2772 0.9153 0.03037 0.0
C1224 C 0.2799 0.89615 0.04667 0.0
C1225 C 0.27347 0.89828 0.0709 0.0
C1226 C 0.26421 0.91949 0.07899 0.0
C1227 C 0.26129 0.93861 0.06289 0.0
C1228 C 0.26761 0.93656 0.03865 0.0
C1229 C 0.27277 0.85246 0.93511 0.0
C1230 C 0.26239 0.86491 0.9152 0.0
C1231 C 0.27643 0.86344 0.95404 0.0
C1232 C 0.26982 0.8869 0.95315 0.0
C1233 C 0.2569 0.89901 0.93496 0.0
C1234 C 0.25321 0.88808 0.91607 0.0
C1235 C 0.28068 0.89886 0.96711 0.0
C1236 C 0.27547 0.90013 0.99171 0.0
C1237 C 0.29593 0.90967 0.95546 0.0
C1238 C 0.30253 0.90812 0.92964 0.0
C1239 C 0.29831 0.92753 0.91369 0.0
C1240 C 0.30368 0.92597 0.88919 0.0
C1241 C 0.31335 0.90509 0.88049 0.0
C1242 C 0.31783 0.88574 0.89627 0.0
C1243 C 0.31257 0.88723 0.92078 0.0
H1244 H 0.31739 0.9039 0.86151 0.0
H1245 H 0.2592 0.92113 0.09771 0.0
H1246 H 0.09217 0.32247 0.97846 0.0
H1247 H 0.12142 0.3184 0.94685 0.0
H1248 H 0.16714 0.31315 0.99952 0.0
H1249 H 0.13789 0.31673 0.03137 0.0
H1250 H 0.16829 0.34484 0.95209 0.0
H1251 H 0.17031 0.26851 0.98467 0.0
H1252 H 0.15323 0.23779 0.99729 0.0
H1253 H 0.13271 0.24083 0.92645 0.0
H1254 H 0.14938 0.27184 0.91352 0.0
H1255 H 0.26406 0.30769 0.87718 0.0
H1256 H 0.23617 0.31474 0.91004 0.0
H1257 H 0.19498 0.28891 0.87115 0.0
H1258 H 0.22341 0.28054 0.83908 0.0
H1259 H 0.19178 0.27329 0.91342 0.0
H1260 H 0.18777 0.34805 0.8792 0.0
H1261 H 0.20122 0.38089 0.86445 0.0
H1262 H 0.22125 0.38385 0.93425 0.0
H1263 H 0.20816 0.35084 0.94936 0.0
C1264 C 0.1084 0.32075 0.98326 0.0
C1265 C 0.11279 0.31999 1.00735 0.0
C1266 C 0.12509 0.31834 0.96522 0.0
C1267 C 0.14639 0.31551 0.97088 0.0
C1268 C 0.15077 0.31539 0.99482 0.0
C1269 C 0.13413 0.31733 0.01295 0.0
C1270 C 0.16414 0.31172 0.95181 0.0
C1271 C 0.17371 0.32912 0.94378 0.0
C1272 C 0.17062 0.29149 0.94054 0.0
C1273 C 0.16089 0.27264 0.94821 0.0
C1274 C 0.16198 0.26276 0.97185 0.0
C1275 C 0.15242 0.24527 0.97905 0.0
C1276 C 0.14184 0.2374 0.9627 0.0
C1277 C 0.14088 0.24696 0.9391 0.0
C1278 C 0.1504 0.26448 0.93183 0.0
C1279 C 0.24892 0.30382 0.87556 0.0
C1280 C 0.24582 0.29375 0.85549 0.0
C1281 C 0.23291 0.30791 0.89434 0.0
C1282 C 0.21317 0.30272 0.89309 0.0
C1283 C 0.21 0.29305 0.87274 0.0
C1284 C 0.22621 0.28839 0.8543 0.0
C1285 C 0.19611 0.30655 0.91321 0.0
C1286 C 0.18657 0.28909 0.92156 0.0
C1287 C 0.18931 0.32699 0.92436 0.0
C1288 C 0.19719 0.34683 0.91534 0.0
C1289 C 0.19519 0.35561 0.89136 0.0
C1290 C 0.20272 0.37427 0.88294 0.0
C1291 C 0.21214 0.38441 0.89839 0.0
C1292 C 0.21398 0.37595 0.9223 0.0
C1293 C 0.20649 0.35728 0.93081 0.0
H1294 H 0.21796 0.39886 0.89183 0.0
H1295 H 0.13443 0.22386 0.96831 0.0
H1296 H 0.83679 0.04689 0.92244 0.0
H1297 H 0.82888 0.08443 0.9015 0.0
H1298 H 0.79897 0.1128 0.96684 0.0
H1299 H 0.80689 0.07534 0.98789 0.0
H1300 H 0.77423 0.13037 0.93052 0.0
H1301 H 0.84882 0.11724 0.94518 0.0
H1302 H 0.88731 0.09671 0.94411 0.0
H1303 H 0.89039 0.10208 0.86738 0.0
H1304 H 0.8518 0.12238 0.86796 0.0
H1305 H 0.80875 0.23789 0.87806 0.0
H1306 H 0.8139 0.20186 0.90152 0.0
H1307 H 0.76824 0.18473 0.86086 0.0
H1308 H 0.76284 0.22107 0.8372 0.0
H1309 H 0.83052 0.16171 0.88521 0.0
H1310 H 0.74541 0.14728 0.89715 0.0
H1311 H 0.70739 0.16928 0.90109 0.0
H1312 H 0.7263 0.22175 0.92984 0.0
H1313 H 0.76438 0.19994 0.92637 0.0
C1314 C 0.82884 0.06112 0.93246 0.0
C1315 C 0.82247 0.05806 0.95687 0.0
C1316 C 0.82423 0.08259 0.92042 0.0
C1317 C 0.81334 0.10146 0.9326 0.0
C1318 C 0.80723 0.09849 0.95702 0.0
C1319 C 0.81178 0.07705 0.96904 0.0
C1320 C 0.80811 0.1243 0.91989 0.0
C1321 C 0.78654 0.13721 0.92057 0.0
C1322 C 0.82416 0.13334 0.90709 0.0
C1323 C 0.84736 0.12111 0.90664 0.0
C1324 C 0.85765 0.11387 0.92808 0.0
C1325 C 0.8795 0.10231 0.92755 0.0
C1326 C 0.89126 0.09803 0.90568 0.0
C1327 C 0.88122 0.10537 0.88429 0.0
C1328 C 0.85937 0.11691 0.88471 0.0
C1329 C 0.79951 0.22666 0.87425 0.0
C1330 C 0.78544 0.23236 0.85562 0.0
C1331 C 0.80257 0.20598 0.88766 0.0
C1332 C 0.79159 0.19051 0.88287 0.0
C1333 C 0.77679 0.19647 0.86498 0.0
C1334 C 0.77368 0.21728 0.85151 0.0
C1335 C 0.79664 0.16779 0.89582 0.0
C1336 C 0.81818 0.15484 0.89507 0.0
C1337 C 0.78062 0.15889 0.90887 0.0
C1338 C 0.75776 0.17208 0.91123 0.0
C1339 C 0.74144 0.16348 0.90437 0.0
C1340 C 0.71988 0.17592 0.90652 0.0
C1341 C 0.71444 0.19693 0.91563 0.0
C1342 C 0.73054 0.20552 0.92269 0.0
C1343 C 0.75212 0.19314 0.9206 0.0
H1344 H 0.69775 0.20654 0.91727 0.0
H1345 H 0.90817 0.08909 0.90531 0.0
H1346 H 0.96799 0.70259 0.94608 0.0
H1347 H 0.93922 0.71002 0.91887 0.0
H1348 H 0.93708 0.78032 0.91153 0.0
H1349 H 0.96603 0.77299 0.93877 0.0
H1350 H 0.89703 0.77498 0.91649 0.0
H1351 H 0.96055 0.74654 0.86678 0.0
H1352 H 0.99512 0.72013 0.85508 0.0
H1353 H 0.9634 0.66776 0.85514 0.0
H1354 H 0.92867 0.69378 0.86718 0.0
H1355 H 0.82778 0.79686 0.81977 0.0
H1356 H 0.85927 0.79385 0.84234 0.0
H1357 H 0.8673 0.72256 0.8563 0.0
H1358 H 0.83605 0.72545 0.83367 0.0
H1359 H 0.90553 0.73143 0.84576 0.0
H1360 H 0.84241 0.75961 0.89778 0.0
H1361 H 0.80803 0.78597 0.91021 0.0
H1362 H 0.83919 0.8392 0.90584 0.0
H1363 H 0.87372 0.81323 0.89297 0.0
C1364 C 0.96163 0.71962 0.93855 0.0
C1365 C 0.96957 0.73713 0.94459 0.0
C1366 C 0.94508 0.72386 0.92295 0.0
C1367 C 0.93612 0.7457 0.91279 0.0
C1368 C 0.94372 0.76331 0.91907 0.0
C1369 C 0.96028 0.75909 0.93474 0.0
C1370 C 0.91878 0.75002 0.89576 0.0
C1371 C 0.89904 0.76574 0.90078 0.0
C1372 C 0.92119 0.73778 0.87541 0.0
C1373 C 0.94203 0.72208 0.86808 0.0
C1374 C 0.96097 0.72935 0.86447 0.0
C1375 C 0.98059 0.71445 0.85775 0.0
C1376 C 0.98146 0.69226 0.85442 0.0
C1377 C 0.9627 0.68494 0.85775 0.0
C1378 C 0.94304 0.69977 0.86449 0.0
C1379 C 0.83643 0.78051 0.82743 0.0
C1380 C 0.82935 0.7614 0.82507 0.0
C1381 C 0.85434 0.77883 0.84047 0.0
C1382 C 0.8655 0.75802 0.8514 0.0
C1383 C 0.85896 0.73881 0.84815 0.0
C1384 C 0.84106 0.74049 0.8352 0.0
C1385 C 0.88367 0.7561 0.8667 0.0
C1386 C 0.9036 0.74084 0.86133 0.0
C1387 C 0.88142 0.76882 0.88668 0.0
C1388 C 0.8606 0.78453 0.89411 0.0
C1389 C 0.84189 0.77699 0.8992 0.0
C1390 C 0.82239 0.79185 0.90638 0.0
C1391 C 0.82142 0.81425 0.90875 0.0
C1392 C 0.83996 0.82185 0.90394 0.0
C1393 C 0.8595 0.80707 0.89669 0.0
H1394 H 0.80634 0.82568 0.91444 0.0
H1395 H 0.99667 0.68075 0.84922 0.0
H1396 H 0.12945 0.29096 0.11239 0.0
H1397 H 0.15824 0.29161 0.13716 0.0
H1398 H 0.13309 0.25127 0.1937 0.0
H1399 H 0.10346 0.2518 0.16939 0.0
H1400 H 0.14413 0.27928 0.21414 0.0
H1401 H 0.18291 0.23129 0.15602 0.0
H1402 H 0.19543 0.21831 0.11601 0.0
H1403 H 0.22272 0.27417 0.09826 0.0
H1404 H 0.21013 0.28765 0.13807 0.0
H1405 H 0.23952 0.2679 0.27846 0.0
H1406 H 0.21093 0.2603 0.25739 0.0
H1407 H 0.22325 0.30571 0.19766 0.0
H1408 H 0.25211 0.31256 0.21819 0.0
H1409 H 0.21962 0.26974 0.18123 0.0
H1410 H 0.1771 0.31704 0.24278 0.0
H1411 H 0.16646 0.32481 0.28487 0.0
H1412 H 0.14849 0.26278 0.29833 0.0
H1413 H 0.15924 0.25453 0.2564 0.0
C1414 C 0.1302 0.28195 0.12996 0.0
C1415 C 0.11416 0.27117 0.13875 0.0
C1416 C 0.14683 0.28223 0.1442 0.0
C1417 C 0.14837 0.27114 0.16741 0.0
C1418 C 0.1325 0.26003 0.176 0.0
C1419 C 0.11557 0.26019 0.16196 0.0
C1420 C 0.16597 0.27186 0.1829 0.0
C1421 C 0.16067 0.27685 0.2069 0.0
C1422 C 0.18778 0.2686 0.17395 0.0
C1423 C 0.1954 0.26058 0.14997 0.0
C1424 C 0.19145 0.24089 0.14353 0.0
C1425 C 0.19858 0.23343 0.12089 0.0
C1426 C 0.20982 0.24544 0.10459 0.0
C1427 C 0.214 0.2649 0.11091 0.0
C1428 C 0.20689 0.27244 0.13351 0.0
C1429 C 0.2359 0.27642 0.26095 0.0
C1430 C 0.24804 0.29092 0.25005 0.0
C1431 C 0.2195 0.2721 0.24887 0.0
C1432 C 0.21461 0.28254 0.22581 0.0
C1433 C 0.22658 0.2973 0.21528 0.0
C1434 C 0.24306 0.30134 0.22714 0.0
C1435 C 0.19758 0.27798 0.21204 0.0
C1436 C 0.20305 0.27211 0.18838 0.0
C1437 C 0.17612 0.27977 0.22155 0.0
C1438 C 0.16914 0.2851 0.24653 0.0
C1439 C 0.17094 0.30504 0.25475 0.0
C1440 C 0.1649 0.30952 0.27858 0.0
C1441 C 0.15687 0.29427 0.29428 0.0
C1442 C 0.15473 0.27457 0.28616 0.0
C1443 C 0.16078 0.26999 0.26237 0.0
H1444 H 0.15226 0.29774 0.31273 0.0
H1445 H 0.21532 0.23963 0.08707 0.0
H1446 H 0.06069 0.78831 0.9511 0.0
H1447 H 0.09242 0.79481 0.92635 0.0
H1448 H 0.13223 0.73345 0.9589 0.0
H1449 H 0.10095 0.72689 0.98316 0.0
H1450 H 0.15343 0.76595 0.95364 0.0
H1451 H 0.11279 0.73465 0.905 0.0
H1452 H 0.08046 0.73414 0.88528 0.0
H1453 H 0.08057 0.7973 0.84615 0.0
H1454 H 0.11276 0.79831 0.86591 0.0
H1455 H 0.22417 0.73589 0.83539 0.0
H1456 H 0.19169 0.73711 0.86185 0.0
H1457 H 0.19891 0.7957 0.89119 0.0
H1458 H 0.23153 0.7945 0.86489 0.0
H1459 H 0.15333 0.76777 0.86548 0.0
H1460 H 0.17844 0.79588 0.94972 0.0
H1461 H 0.21148 0.79388 0.9695 0.0
H1462 H 0.24363 0.73277 0.9376 0.0
H1463 H 0.21072 0.73428 0.91787 0.0
C1464 C 0.07629 0.77646 0.95322 0.0
C1465 C 0.07821 0.75704 0.96908 0.0
C1466 C 0.09442 0.78009 0.93895 0.0
C1467 C 0.11485 0.76452 0.94054 0.0
C1468 C 0.11681 0.74575 0.95721 0.0
C1469 C 0.09879 0.74199 0.97108 0.0
C1470 C 0.13412 0.76678 0.92427 0.0
C1471 C 0.15327 0.76664 0.93434 0.0
C1472 C 0.13427 0.76732 0.89904 0.0
C1473 C 0.115 0.76668 0.88713 0.0
C1474 C 0.10581 0.74851 0.89233 0.0
C1475 C 0.08754 0.74811 0.88113 0.0
C1476 C 0.07843 0.76571 0.86453 0.0
C1477 C 0.08761 0.78371 0.85905 0.0
C1478 C 0.10587 0.7842 0.87024 0.0
C1479 C 0.21904 0.74893 0.84762 0.0
C1480 C 0.23075 0.76496 0.84802 0.0
C1481 C 0.20028 0.74971 0.86267 0.0
C1482 C 0.1927 0.76644 0.87872 0.0
C1483 C 0.20441 0.78243 0.87926 0.0
C1484 C 0.22317 0.78169 0.86415 0.0
C1485 C 0.17265 0.76699 0.89484 0.0
C1486 C 0.15338 0.76754 0.88474 0.0
C1487 C 0.17244 0.76665 0.92007 0.0
C1488 C 0.1922 0.76534 0.93214 0.0
C1489 C 0.19255 0.78198 0.94701 0.0
C1490 C 0.21125 0.78094 0.95819 0.0
C1491 C 0.22967 0.76325 0.95474 0.0
C1492 C 0.22939 0.74651 0.94019 0.0
C1493 C 0.21072 0.74747 0.92898 0.0
H1494 H 0.24413 0.76249 0.9634 0.0
H1495 H 0.06428 0.76537 0.85587 0.0
H1496 H 0.28717 0.07691 0.98308 0.0
H1497 H 0.29065 0.10603 0.95153 0.0
H1498 H 0.32109 0.13602 0.99902 0.0
H1499 H 0.3177 0.10667 0.03094 0.0
H1500 H 0.28931 0.16773 0.97298 0.0
H1501 H 0.35109 0.10564 0.95583 0.0
H1502 H 0.36892 0.06634 0.94812 0.0
H1503 H 0.33194 0.07299 0.88707 0.0
H1504 H 0.31367 0.11224 0.8946 0.0
H1505 H 0.3247 0.24372 0.88882 0.0
H1506 H 0.3231 0.21331 0.91939 0.0
H1507 H 0.30505 0.17696 0.86725 0.0
H1508 H 0.30782 0.20717 0.83608 0.0
H1509 H 0.32969 0.14813 0.89551 0.0
H1510 H 0.26758 0.20786 0.91038 0.0
H1511 H 0.24684 0.24671 0.91667 0.0
H1512 H 0.27955 0.24426 0.98016 0.0
H1513 H 0.30074 0.20551 0.97406 0.0
C1514 C 0.29464 0.08964 0.98695 0.0
C1515 C 0.3022 0.0893 0.00969 0.0
C1516 C 0.29668 0.10631 0.96875 0.0
C1517 C 0.30631 0.12322 0.97268 0.0
C1518 C 0.31363 0.12317 0.99545 0.0
C1519 C 0.31175 0.10631 0.0137 0.0
C1520 C 0.30864 0.14084 0.95298 0.0
C1521 C 0.29843 0.16348 0.95619 0.0
C1522 C 0.31973 0.13533 0.93059 0.0
C1523 C 0.33089 0.11182 0.9259 0.0
C1524 C 0.34666 0.09867 0.94086 0.0
C1525 C 0.35686 0.07641 0.9365 0.0
C1526 C 0.35153 0.06716 0.91715 0.0
C1527 C 0.33603 0.08017 0.90206 0.0
C1528 C 0.32578 0.10243 0.90635 0.0
C1529 C 0.32058 0.22918 0.88376 0.0
C1530 C 0.31627 0.22796 0.86001 0.0
C1531 C 0.31945 0.2118 0.90138 0.0
C1532 C 0.3133 0.19293 0.89603 0.0
C1533 C 0.30966 0.19132 0.87206 0.0
C1534 C 0.31124 0.20861 0.85422 0.0
C1535 C 0.31056 0.17518 0.91552 0.0
C1536 C 0.32059 0.15249 0.91228 0.0
C1537 C 0.29882 0.1806 0.93769 0.0
C1538 C 0.28589 0.20382 0.94164 0.0
C1539 C 0.27044 0.21564 0.92561 0.0
C1540 C 0.2586 0.23764 0.92914 0.0
C1541 C 0.26191 0.24795 0.94877 0.0
C1542 C 0.27702 0.23625 0.96495 0.0
C1543 C 0.28894 0.21426 0.96148 0.0
H1544 H 0.25273 0.26499 0.95147 0.0
H1545 H 0.35943 0.04992 0.91382 0.0
H1546 H 0.06382 0.25386 1.00146 0.0
H1547 H 0.0347 0.25235 0.97758 0.0
H1548 H 0.98919 0.26719 0.0385 0.0
H1549 H 1.01843 0.26824 0.06272 0.0
H1550 H 0.97857 0.23815 0.0129 0.0
H1551 H 0.99594 0.30853 0.99498 0.0
H1552 H 1.02015 0.33301 0.98346 0.0
H1553 H 0.03684 0.30467 0.9158 0.0
H1554 H 1.01299 0.27974 0.92709 0.0
H1555 H 0.88455 0.27796 0.9468 0.0
H1556 H 0.91381 0.27335 0.97283 0.0
H1557 H 0.96002 0.26174 0.9121 0.0
H1558 H 0.93074 0.2675 0.88572 0.0
H1559 H 0.97013 0.28889 0.93825 0.0
H1560 H 0.95195 0.21864 0.95642 0.0
H1561 H 0.92795 0.19407 0.96874 0.0
H1562 H 0.91234 0.22262 0.03635 0.0
H1563 H 0.93603 0.24758 0.02431 0.0
C1564 C 0.0477 0.25641 0.00997 0.0
C1565 C 0.04355 0.2613 0.03405 0.0
C1566 C 0.03097 0.2557 0.99619 0.0
C1567 C 1.00954 0.2602 1.00597 0.0
C1568 C 1.00551 0.26378 0.0304 0.0
C1569 C 0.02231 0.26433 0.04429 0.0
C1570 C 0.99136 0.26236 0.99039 0.0
C1571 C 0.9766 0.24944 0.99672 0.0
C1572 C 0.9888 0.27683 0.96901 0.0
C1573 C 1.00282 0.29212 0.96197 0.0
C1574 C 1.00486 0.30743 0.9777 0.0
C1575 C 1.01852 0.32139 0.97121 0.0
C1576 C 0.03006 0.32036 0.94894 0.0
C1577 C 0.02791 0.30542 0.93307 0.0
C1578 C 1.01431 0.29138 0.93949 0.0
C1579 C 0.9009 0.27454 0.93885 0.0
C1580 C 0.90507 0.27319 0.91395 0.0
C1581 C 0.91774 0.2716 0.95391 0.0
C1582 C 0.93934 0.26689 0.94464 0.0
C1583 C 0.94359 0.26528 0.91985 0.0
C1584 C 0.92674 0.26835 0.90475 0.0
C1585 C 0.9574 0.26446 0.96054 0.0
C1586 C 0.97211 0.27749 0.95434 0.0
C1587 C 0.95982 0.25015 0.98207 0.0
C1588 C 0.9456 0.23513 0.98936 0.0
C1589 C 0.94327 0.2198 0.97384 0.0
C1590 C 0.92975 0.20578 0.98079 0.0
C1591 C 0.91859 0.20682 1.00329 0.0
C1592 C 0.92097 0.22185 0.01892 0.0
C1593 C 0.93446 0.23592 0.01205 0.0
H1594 H 0.90812 0.19595 0.00863 0.0
H1595 H 0.04065 0.33116 0.94396 0.0
H1596 H 0.75323 0.93381 0.99861 0.0
H1597 H 0.74833 0.91174 0.96723 0.0
H1598 H 0.7767 0.95269 0.91441 0.0
H1599 H 0.78136 0.97508 0.94561 0.0
H1600 H 0.74398 0.9425 0.89671 0.0
H1601 H 0.80639 0.90221 0.93724 0.0
H1602 H 0.82792 0.88404 0.97128 0.0
H1603 H 0.788 0.83864 0.98764 0.0
H1604 H 0.76599 0.85679 0.95391 0.0
H1605 H 0.77866 0.86154 0.80887 0.0
H1606 H 0.77561 0.88905 0.83787 0.0
H1607 H 0.74258 0.85131 0.88936 0.0
H1608 H 0.74548 0.82379 0.86062 0.0
H1609 H 0.77694 0.86042 0.90722 0.0
H1610 H 0.7155 0.90109 0.86405 0.0
H1611 H 0.69645 0.9188 0.82815 0.0
H1612 H 0.73785 0.96294 0.81455 0.0
H1613 H 0.75735 0.94526 0.85021 0.0
C1614 C 0.75815 0.93836 0.98029 0.0
C1615 C 0.76786 0.95612 0.9747 0.0
C1616 C 0.75544 0.92563 0.96236 0.0
C1617 C 0.76253 0.93027 0.9385 0.0
C1618 C 0.77119 0.94871 0.93269 0.0
C1619 C 0.77387 0.96149 0.95059 0.0
C1620 C 0.76184 0.91529 0.91985 0.0
C1621 C 0.75137 0.92458 0.89891 0.0
C1622 C 0.77134 0.89184 0.92273 0.0
C1623 C 0.78435 0.88109 0.94325 0.0
C1624 C 0.80204 0.88852 0.94826 0.0
C1625 C 0.81437 0.87819 0.96746 0.0
C1626 C 0.80928 0.86025 0.98167 0.0
C1627 C 0.79188 0.85258 0.97666 0.0
C1628 C 0.77947 0.86289 0.95751 0.0
C1629 C 0.77043 0.85926 0.82622 0.0
C1630 C 0.76238 0.84036 0.83238 0.0
C1631 C 0.76865 0.87505 0.84276 0.0
C1632 C 0.75883 0.87225 0.86577 0.0
C1633 C 0.75023 0.8538 0.87171 0.0
C1634 C 0.75186 0.8381 0.85517 0.0
C1635 C 0.75891 0.88756 0.88426 0.0
C1636 C 0.76943 0.87831 0.90511 0.0
C1637 C 0.74977 0.91101 0.88109 0.0
C1638 C 0.73802 0.9217 0.85968 0.0
C1639 C 0.72067 0.91444 0.85329 0.0
C1640 C 0.70976 0.9245 0.83301 0.0
C1641 C 0.71597 0.94195 0.81904 0.0
C1642 C 0.73307 0.9494 0.82537 0.0
C1643 C 0.74404 0.93939 0.84563 0.0
H1644 H 0.70751 0.94972 0.80334 0.0
H1645 H 0.81886 0.85225 0.99651 0.0
H1646 H 0.98727 0.80033 0.08611 0.0
H1647 H 0.95858 0.8016 0.11793 0.0
H1648 H 0.93589 0.75428 0.08368 0.0
H1649 H 0.96355 0.75443 0.05095 0.0
H1650 H 0.90326 0.77842 0.10281 0.0
H1651 H 0.97031 0.74066 0.13509 0.0
H1652 H 1.00789 0.73506 0.14495 0.0
H1653 H 0.98822 0.79168 0.18712 0.0
H1654 H 0.95054 0.79781 0.17723 0.0
H1655 H 0.85315 0.73798 0.21398 0.0
H1656 H 0.8784 0.7402 0.1789 0.0
H1657 H 0.8821 0.80464 0.1968 0.0
H1658 H 0.85658 0.80282 0.23146 0.0
H1659 H 0.92371 0.77145 0.18642 0.0
H1660 H 0.85407 0.80379 0.15515 0.0
H1661 H 0.81777 0.80561 0.14371 0.0
H1662 H 0.84421 0.75061 0.10035 0.0
H1663 H 0.88077 0.74865 0.11129 0.0
C1664 C 0.97588 0.79055 0.08515 0.0
C1665 C 0.97772 0.77734 0.06591 0.0
C1666 C 0.95959 0.791 0.1036 0.0
C1667 C 0.94525 0.77742 0.10397 0.0
C1668 C 0.94661 0.76489 0.08419 0.0
C1669 C 0.96249 0.765 0.06534 0.0
C1670 C 0.92932 0.77582 0.12506 0.0
C1671 C 0.90795 0.77651 0.12104 0.0
C1672 C 0.93503 0.77349 0.14915 0.0
C1673 C 0.95764 0.76983 0.15522 0.0
C1674 C 0.97402 0.752 0.14634 0.0
C1675 C 0.99534 0.74872 0.15194 0.0
C1676 C 1.00045 0.76304 0.1666 0.0
C1677 C 0.98424 0.78063 0.17573 0.0
C1678 C 0.9629 0.78401 0.17015 0.0
C1679 C 0.85939 0.75259 0.21053 0.0
C1680 C 0.85286 0.77014 0.22575 0.0
C1681 C 0.87376 0.75389 0.19036 0.0
C1682 C 0.8822 0.7726 0.18512 0.0
C1683 C 0.87589 0.79 0.20043 0.0
C1684 C 0.86125 0.78892 0.22029 0.0
C1685 C 0.89789 0.77397 0.16401 0.0
C1686 C 0.91918 0.77322 0.16812 0.0
C1687 C 0.8923 0.77535 0.14007 0.0
C1688 C 0.8702 0.77602 0.13419 0.0
C1689 C 0.85216 0.79199 0.14332 0.0
C1690 C 0.83152 0.79309 0.13689 0.0
C1691 C 0.82865 0.77816 0.12146 0.0
C1692 C 0.84645 0.76216 0.11234 0.0
C1693 C 0.86715 0.76112 0.11858 0.0
H1694 H 0.81265 0.77903 0.11651 0.0
H1695 H 1.01696 0.76047 0.17091 0.0
H1696 H 0.26966 0.02436 0.1393 0.0
H1697 H 0.28004 0.98943 0.16494 0.0
H1698 H 0.30104 0.95264 0.10239 0.0
H1699 H 0.28923 0.98753 0.07691 0.0
H1700 H 0.27914 0.93159 0.12899 0.0
H1701 H 0.33681 0.95933 0.14545 0.0
H1702 H 0.35507 0.98666 0.156 0.0
H1703 H 0.32057 0.98972 0.22501 0.0
H1704 H 0.30186 0.96261 0.21478 0.0
H1705 H 0.3302 0.84692 0.23695 0.0
H1706 H 0.33121 0.87872 0.2075 0.0
H1707 H 0.26325 0.89022 0.19944 0.0
H1708 H 0.26234 0.85817 0.22804 0.0
H1709 H 0.31493 0.92099 0.20499 0.0
H1710 H 0.24835 0.91301 0.14608 0.0
H1711 H 0.23539 0.88342 0.13123 0.0
H1712 H 0.29708 0.83644 0.14072 0.0
H1713 H 0.3105 0.86582 0.1553 0.0
C1714 C 0.27724 0.0089 0.13109 0.0
C1715 C 0.27963 0.00888 0.10606 0.0
C1716 C 0.2832 0.98883 0.14578 0.0
C1717 C 0.29176 0.96812 0.13585 0.0
C1718 C 0.29471 0.96823 0.11073 0.0
C1719 C 0.28846 0.98832 0.09605 0.0
C1720 C 0.29563 0.9464 0.15151 0.0
C1721 C 0.28708 0.92932 0.14552 0.0
C1722 C 0.3065 0.94284 0.17292 0.0
C1723 C 0.31783 0.95901 0.17928 0.0
C1724 C 0.33302 0.96591 0.16284 0.0
C1725 C 0.34348 0.98134 0.16877 0.0
C1726 C 0.33898 0.98992 0.19116 0.0
C1727 C 0.32405 0.98305 0.20768 0.0
C1728 C 0.31354 0.96761 0.20184 0.0
C1729 C 0.3155 0.85612 0.22877 0.0
C1730 C 0.29624 0.84971 0.23481 0.0
C1731 C 0.31607 0.87442 0.21193 0.0
C1732 C 0.29739 0.88687 0.20072 0.0
C1733 C 0.27809 0.88068 0.20712 0.0
C1734 C 0.27756 0.8623 0.2237 0.0
C1735 C 0.29783 0.90654 0.18276 0.0
C1736 C 0.30714 0.92323 0.18835 0.0
C1737 C 0.28837 0.9094 0.16051 0.0
C1738 C 0.28035 0.89158 0.15197 0.0
C1739 C 0.25915 0.89637 0.14497 0.0
C1740 C 0.25173 0.87964 0.13659 0.0
C1741 C 0.26538 0.85805 0.13511 0.0
C1742 C 0.2865 0.85315 0.14196 0.0
C1743 C 0.29401 0.86983 0.1503 0.0
H1744 H 0.25961 0.84512 0.1286 0.0
H1745 H 0.34706 1.00191 0.19569 0.0
H1746 H 0.79888 0.0184 0.09625 0.0
H1747 H 0.7907 0.05132 0.11898 0.0
H1748 H 0.75931 0.09242 0.05923 0.0
H1749 H 0.76732 0.05918 0.03636 0.0
H1750 H 0.79161 0.10821 0.07599 0.0
H1751 H 0.72931 0.08553 0.10849 0.0
H1752 H 0.70882 0.0592 0.12701 0.0
H1753 H 0.74565 0.04691 0.18892 0.0
H1754 H 0.76659 0.07292 0.17064 0.0
H1755 H 0.76832 0.20388 0.14346 0.0
H1756 H 0.76596 0.17485 0.1187 0.0
H1757 H 0.78882 0.12407 0.17557 0.0
H1758 H 0.79006 0.15307 0.20093 0.0
H1759 H 0.75614 0.11588 0.15774 0.0
H1760 H 0.82116 0.13405 0.12418 0.0
H1761 H 0.84344 0.15875 0.10589 0.0
H1762 H 0.80345 0.17783 0.04641 0.0
H1763 H 0.78075 0.15345 0.06451 0.0
C1764 C 0.78972 0.03434 0.08818 0.0
C1765 C 0.78364 0.03626 0.06461 0.0
C1766 C 0.78504 0.05314 0.10119 0.0
C1767 C 0.77436 0.07432 0.09083 0.0
C1768 C 0.7675 0.07619 0.06758 0.0
C1769 C 0.7719 0.05721 0.05462 0.0
C1770 C 0.77236 0.09451 0.10367 0.0
C1771 C 0.78341 0.11022 0.09364 0.0
C1772 C 0.76224 0.0967 0.12697 0.0
C1773 C 0.74962 0.08109 0.1381 0.0
C1774 C 0.73316 0.07708 0.12597 0.0
C1775 C 0.72144 0.06224 0.13645 0.0
C1776 C 0.72595 0.05136 0.15911 0.0
C1777 C 0.74217 0.05535 0.17136 0.0
C1778 C 0.75395 0.07017 0.16097 0.0
C1779 C 0.77277 0.18655 0.15078 0.0
C1780 C 0.77936 0.18089 0.17428 0.0
C1781 C 0.77162 0.16992 0.13647 0.0
C1782 C 0.77736 0.1472 0.14516 0.0
C1783 C 0.78428 0.14147 0.16844 0.0
C1784 C 0.78527 0.15809 0.18283 0.0
C1785 C 0.77576 0.12939 0.13027 0.0
C1786 C 0.76407 0.1141 0.13994 0.0
C1787 C 0.78551 0.12744 0.10672 0.0
C1788 C 0.79911 0.14214 0.09584 0.0
C1789 C 0.81701 0.14366 0.1073 0.0
C1790 C 0.82973 0.15758 0.09695 0.0
C1791 C 0.82482 0.16991 0.07504 0.0
C1792 C 0.80721 0.16831 0.06341 0.0
C1793 C 0.79442 0.15443 0.0737 0.0
H1794 H 0.8347 0.18067 0.06706 0.0
H1795 H 0.71686 0.03987 0.16718 0.0
H1796 H 0.59762 0.55286 0.85403 0.0
H1797 H 0.62481 0.57417 0.84716 0.0
H1798 H 0.57431 0.636 0.84248 0.0
H1799 H 0.54726 0.61495 0.84874 0.0
H1800 H 0.60638 0.63569 0.80724 0.0
H1801 H 0.59985 0.61854 0.89316 0.0
H1802 H 0.60085 0.59328 0.93013 0.0
H1803 H 0.66707 0.56012 0.9119 0.0
H1804 H 0.66636 0.58502 0.87465 0.0
H1805 H 0.65574 0.71955 0.82704 0.0
H1806 H 0.63341 0.69336 0.82831 0.0
H1807 H 0.68938 0.63767 0.84005 0.0
H1808 H 0.71159 0.66396 0.83966 0.0
H1809 H 0.65758 0.63149 0.86893 0.0
H1810 H 0.66552 0.65124 0.78495 0.0
H1811 H 0.6649 0.67745 0.7488 0.0
H1812 H 0.59692 0.70554 0.76266 0.0
H1813 H 0.59718 0.67973 0.79912 0.0
C1814 C 0.59237 0.57098 0.85141 0.0
C1815 C 0.57029 0.58221 0.8522 0.0
C1816 C 0.60788 0.58312 0.84759 0.0
C1817 C 0.60153 0.60667 0.84445 0.0
C1818 C 0.57954 0.61785 0.84487 0.0
C1819 C 0.56409 0.60577 0.84876 0.0
C1820 C 0.61763 0.61991 0.84126 0.0
C1821 C 0.61754 0.63487 0.82074 0.0
C1822 C 0.63254 0.61837 0.85859 0.0
C1823 C 0.63297 0.60345 0.881 0.0
C1824 C 0.61456 0.60573 0.89694 0.0
C1825 C 0.61509 0.59151 0.91797 0.0
C1826 C 0.63399 0.57505 0.92333 0.0
C1827 C 0.65243 0.57284 0.9077 0.0
C1828 C 0.65198 0.587 0.88664 0.0
C1829 C 0.66326 0.7017 0.82967 0.0
C1830 C 0.68533 0.69371 0.83322 0.0
C1831 C 0.65053 0.68673 0.83031 0.0
C1832 C 0.65978 0.66348 0.83389 0.0
C1833 C 0.6819 0.65551 0.83724 0.0
C1834 C 0.69456 0.6705 0.837 0.0
C1835 C 0.64618 0.64759 0.83502 0.0
C1836 C 0.64672 0.63211 0.85517 0.0
C1837 C 0.63177 0.64858 0.81725 0.0
C1838 C 0.6314 0.66362 0.79487 0.0
C1839 C 0.65045 0.66305 0.78034 0.0
C1840 C 0.65016 0.67785 0.7598 0.0
C1841 C 0.63089 0.69319 0.75347 0.0
C1842 C 0.61184 0.69366 0.76759 0.0
C1843 C 0.61203 0.67892 0.78818 0.0
H1844 H 0.63072 0.70468 0.7376 0.0
H1845 H 0.63437 0.56406 0.93961 0.0
H1846 H 0.48965 0.58263 0.80532 0.0
H1847 H 0.46008 0.61666 0.79965 0.0
H1848 H 0.41466 0.57662 0.8049 0.0
H1849 H 0.44411 0.54248 0.8108 0.0
H1850 H 0.40522 0.61632 0.76959 0.0
H1851 H 0.42079 0.59553 0.85297 0.0
H1852 H 0.44564 0.58495 0.88545 0.0
H1853 H 0.46277 0.64732 0.87039 0.0
H1854 H 0.43827 0.6581 0.83753 0.0
H1855 H 0.31065 0.70325 0.80399 0.0
H1856 H 0.33867 0.66734 0.80214 0.0
H1857 H 0.38747 0.70139 0.80878 0.0
H1858 H 0.35989 0.73686 0.81052 0.0
H1859 H 0.39439 0.66366 0.83761 0.0
H1860 H 0.38143 0.68556 0.75559 0.0
H1861 H 0.35951 0.69774 0.72068 0.0
H1862 H 0.33999 0.63647 0.73034 0.0
H1863 H 0.36167 0.62401 0.76551 0.0
C1864 C 0.47347 0.58096 0.80461 0.0
C1865 C 0.4693 0.55974 0.80864 0.0
C1866 C 0.45654 0.60049 0.80145 0.0
C1867 C 0.43507 0.59926 0.80203 0.0
C1868 C 0.43104 0.57803 0.80433 0.0
C1869 C 0.44794 0.5585 0.80777 0.0
C1870 C 0.41681 0.62001 0.80312 0.0
C1871 C 0.40265 0.62652 0.7846 0.0
C1872 C 0.41369 0.63366 0.82242 0.0
C1873 C 0.42784 0.62753 0.84268 0.0
C1874 C 0.42994 0.60694 0.85652 0.0
C1875 C 0.44396 0.6009 0.87499 0.0
C1876 C 0.45581 0.61543 0.87994 0.0
C1877 C 0.45359 0.63607 0.86651 0.0
C1878 C 0.43963 0.64216 0.84798 0.0
C1879 C 0.32734 0.70296 0.80519 0.0
C1880 C 0.333 0.72289 0.80754 0.0
C1881 C 0.34337 0.68248 0.80399 0.0
C1882 C 0.36528 0.6816 0.80527 0.0
C1883 C 0.37076 0.70151 0.80786 0.0
C1884 C 0.3549 0.72184 0.80883 0.0
C1885 C 0.38269 0.66013 0.80406 0.0
C1886 C 0.39677 0.65344 0.82263 0.0
C1887 C 0.38593 0.64664 0.78458 0.0
C1888 C 0.373 0.65394 0.76335 0.0
C1889 C 0.37234 0.67475 0.75039 0.0
C1890 C 0.35998 0.68169 0.73053 0.0
C1891 C 0.34831 0.66792 0.72334 0.0
C1892 C 0.34902 0.64714 0.73596 0.0
C1893 C 0.36137 0.6401 0.75584 0.0
H1894 H 0.33875 0.67332 0.70795 0.0
H1895 H 0.4667 0.6107 0.89421 0.0
H1896 H 0.45919 0.48294 0.90783 0.0
H1897 H 0.44113 0.4529 0.91109 0.0
H1898 H 0.49535 0.41176 0.87165 0.0
H1899 H 0.51331 0.44199 0.86803 0.0
H1900 H 0.46009 0.41327 0.8526 0.0
H1901 H 0.4824 0.39868 0.93209 0.0
H1902 H 0.48738 0.40725 0.97253 0.0
H1903 H 0.41877 0.42918 0.98678 0.0
H1904 H 0.41337 0.42105 0.94627 0.0
H1905 H 0.41648 0.32233 0.85819 0.0
H1906 H 0.44027 0.34237 0.87177 0.0
H1907 H 0.38499 0.39376 0.89573 0.0
H1908 H 0.36102 0.37393 0.88188 0.0
H1909 H 0.42294 0.38386 0.92483 0.0
H1910 H 0.40203 0.40235 0.8429 0.0
H1911 H 0.39767 0.39229 0.80287 0.0
H1912 H 0.4657 0.36159 0.79401 0.0
H1913 H 0.47038 0.37111 0.83423 0.0
C1914 C 0.46746 0.46731 0.90033 0.0
C1915 C 0.4876 0.46485 0.88754 0.0
C1916 C 0.45715 0.4501 0.90226 0.0
C1917 C 0.46693 0.42998 0.89176 0.0
C1918 C 0.48746 0.42715 0.87984 0.0
C1919 C 0.49767 0.44444 0.87771 0.0
C1920 C 0.45484 0.41294 0.89099 0.0
C1921 C 0.4524 0.40652 0.86852 0.0
C1922 C 0.44434 0.40447 0.91166 0.0
C1923 C 0.44749 0.40942 0.93604 0.0
C1924 C 0.46837 0.4055 0.94376 0.0
C1925 C 0.47127 0.41025 0.96672 0.0
C1926 C 0.4534 0.4188 0.9822 0.0
C1927 C 0.4326 0.42258 0.97476 0.0
C1928 C 0.42961 0.41787 0.95181 0.0
C1929 C 0.40938 0.33765 0.86684 0.0
C1930 C 0.38692 0.34684 0.86854 0.0
C1931 C 0.42298 0.34897 0.87473 0.0
C1932 C 0.41433 0.36964 0.88442 0.0
C1933 C 0.39192 0.37777 0.88832 0.0
C1934 C 0.37826 0.36644 0.88038 0.0
C1935 C 0.42841 0.38439 0.88657 0.0
C1936 C 0.43102 0.39046 0.90912 0.0
C1937 C 0.43925 0.3925 0.86604 0.0
C1938 C 0.43652 0.38722 0.84166 0.0
C1939 C 0.41603 0.39331 0.83248 0.0
C1940 C 0.4135 0.38771 0.80976 0.0
C1941 C 0.43139 0.37625 0.79593 0.0
C1942 C 0.45185 0.37043 0.80477 0.0
C1943 C 0.45445 0.37592 0.82752 0.0
H1944 H 0.4294 0.37193 0.77834 0.0
H1945 H 0.45568 0.42246 0.99996 0.0
H1946 H 0.6083 0.50012 0.79304 0.0
H1947 H 0.64043 0.46854 0.79185 0.0
H1948 H 0.6031 0.42414 0.825 0.0
H1949 H 0.57101 0.45596 0.82712 0.0
H1950 H 0.6387 0.41341 0.84476 0.0
H1951 H 0.62275 0.42522 0.7629 0.0
H1952 H 0.61434 0.44632 0.72385 0.0
H1953 H 0.67474 0.46342 0.71877 0.0
H1954 H 0.68339 0.44268 0.75795 0.0
H1955 H 0.72679 0.31577 0.82291 0.0
H1956 H 0.69156 0.34365 0.82036 0.0
H1957 H 0.72362 0.396 0.80061 0.0
H1958 H 0.75861 0.36841 0.80337 0.0
H1959 H 0.68927 0.39996 0.77276 0.0
H1960 H 0.70325 0.38908 0.85671 0.0
H1961 H 0.71114 0.36657 0.89514 0.0
H1962 H 0.65312 0.3456 0.89479 0.0
H1963 H 0.64504 0.36778 0.85617 0.0
C1964 C 0.60682 0.48361 0.79986 0.0
C1965 C 0.58693 0.48068 0.81006 0.0
C1966 C 0.62529 0.46542 0.79906 0.0
C1967 C 0.62436 0.44363 0.80796 0.0
C1968 C 0.60443 0.44065 0.81796 0.0
C1969 C 0.58599 0.45891 0.81906 0.0
C1970 C 0.64429 0.42423 0.80764 0.0
C1971 C 0.64948 0.4103 0.82882 0.0
C1972 C 0.65876 0.42004 0.78705 0.0
C1973 C 0.65363 0.43255 0.76347 0.0
C1974 C 0.63417 0.43362 0.75354 0.0
C1975 C 0.62937 0.44549 0.73137 0.0
C1976 C 0.64397 0.45625 0.71886 0.0
C1977 C 0.66343 0.45511 0.72849 0.0
C1978 C 0.6683 0.44327 0.75066 0.0
C1979 C 0.72628 0.33321 0.81794 0.0
C1980 C 0.74551 0.33988 0.81349 0.0
C1981 C 0.70614 0.34916 0.81654 0.0
C1982 C 0.70484 0.37205 0.81044 0.0
C1983 C 0.72409 0.37853 0.80535 0.0
C1984 C 0.74413 0.3627 0.80703 0.0
C1985 C 0.68362 0.38947 0.80985 0.0
C1986 C 0.67827 0.40302 0.78854 0.0
C1987 C 0.66887 0.39311 0.83019 0.0
C1988 C 0.67367 0.37987 0.85343 0.0
C1989 C 0.69227 0.37952 0.86473 0.0
C1990 C 0.69676 0.36685 0.88656 0.0
C1991 C 0.68268 0.3546 0.89736 0.0
C1992 C 0.66404 0.35506 0.88638 0.0
C1993 C 0.65949 0.36769 0.86453 0.0
H1994 H 0.68618 0.34481 0.91426 0.0
H1995 H 0.64023 0.46543 0.7017 0.0
H1996 H 0.57705 0.47742 0.29139 0.0
H1997 H 0.60733 0.44471 0.30057 0.0
H1998 H 0.65133 0.47889 0.26107 0.0
H1999 H 0.62101 0.51085 0.25093 0.0
H2000 H 0.65935 0.44083 0.24615 0.0
H2001 H 0.64961 0.46479 0.32517 0.0
H2002 H 0.62994 0.47662 0.36326 0.0
H2003 H 0.614 0.41353 0.37664 0.0
H2004 H 0.63334 0.40143 0.33847 0.0
H2005 H 0.75463 0.3551 0.27288 0.0
H2006 H 0.72703 0.39108 0.27506 0.0
H2007 H 0.67876 0.3558 0.29821 0.0
H2008 H 0.70616 0.31992 0.29583 0.0
H2009 H 0.67436 0.39469 0.32307 0.0
H2010 H 0.68263 0.37277 0.2421 0.0
H2011 H 0.7034 0.36127 0.20445 0.0
H2012 H 0.72344 0.42223 0.19582 0.0
H2013 H 0.70301 0.43394 0.23363 0.0
C2014 C 0.59329 0.47812 0.28535 0.0
C2015 C 0.59676 0.49666 0.27061 0.0
C2016 C 0.61065 0.4594 0.29056 0.0
C2017 C 0.63182 0.45916 0.28156 0.0
C2018 C 0.63526 0.47842 0.26811 0.0
C2019 C 0.61794 0.4968 0.26248 0.0
C2020 C 0.65005 0.43832 0.28394 0.0
C2021 C 0.6628 0.4311 0.26316 0.0
C2022 C 0.65446 0.42506 0.3059 0.0
C2023 C 0.64276 0.43229 0.32883 0.0
C2024 C 0.64176 0.45351 0.33614 0.0
C2025 C 0.6307 0.46025 0.35776 0.0
C2026 C 0.62068 0.44586 0.37233 0.0
C2027 C 0.62175 0.42467 0.36532 0.0
C2028 C 0.63278 0.41785 0.3437 0.0
C2029 C 0.73817 0.35506 0.27865 0.0
C2030 C 0.73249 0.33472 0.28391 0.0
C2031 C 0.72243 0.3756 0.27989 0.0
C2032 C 0.70078 0.37614 0.28666 0.0
C2033 C 0.69532 0.35583 0.29298 0.0
C2034 C 0.71098 0.33533 0.29146 0.0
C2035 C 0.68354 0.39767 0.28543 0.0
C2036 C 0.67094 0.40479 0.30627 0.0
C2037 C 0.67936 0.41105 0.26361 0.0
C2038 C 0.6915 0.40411 0.24081 0.0
C2039 C 0.69161 0.38363 0.23227 0.0
C2040 C 0.70329 0.37709 0.21089 0.0
C2041 C 0.71479 0.39098 0.19778 0.0
C2042 C 0.71456 0.41147 0.20601 0.0
C2043 C 0.70293 0.41808 0.2274 0.0
H2044 H 0.72382 0.38589 0.18123 0.0
H2045 H 0.61213 0.45111 0.38907 0.0
H2046 H 0.57917 0.62651 0.20842 0.0
H2047 H 0.60936 0.64232 0.2124 0.0
H2048 H 0.64845 0.57632 0.23469 0.0
H2049 H 0.61809 0.5607 0.23135 0.0
H2050 H 0.65172 0.60422 0.26385 0.0
H2051 H 0.65674 0.60469 0.17854 0.0
H2052 H 0.64373 0.6131 0.13796 0.0
H2053 H 0.62784 0.68369 0.14639 0.0
H2054 H 0.64049 0.67569 0.18717 0.0
H2055 H 0.75133 0.63318 0.25818 0.0
H2056 H 0.72272 0.61703 0.24923 0.0
H2057 H 0.67985 0.68337 0.23887 0.0
H2058 H 0.7081 0.69969 0.24848 0.0
H2059 H 0.67918 0.6553 0.20296 0.0
H2060 H 0.67395 0.65379 0.28896 0.0
H2061 H 0.68791 0.6446 0.32907 0.0
H2062 H 0.70542 0.57442 0.31824 0.0
H2063 H 0.69185 0.58322 0.27789 0.0
C2064 C 0.59434 0.61539 0.21375 0.0
C2065 C 0.59632 0.59243 0.21966 0.0
C2066 C 0.6116 0.6244 0.216 0.0
C2067 C 0.63127 0.61049 0.22371 0.0
C2068 C 0.63343 0.58741 0.22884 0.0
C2069 C 0.61611 0.57849 0.22692 0.0
C2070 C 0.64915 0.62009 0.2279 0.0
C2071 C 0.65793 0.61508 0.25034 0.0
C2072 C 0.65697 0.63471 0.21053 0.0
C2073 C 0.64937 0.63958 0.186 0.0
C2074 C 0.65031 0.622 0.17182 0.0
C2075 C 0.64304 0.6267 0.14876 0.0
C2076 C 0.63491 0.64891 0.13963 0.0
C2077 C 0.63411 0.66649 0.15351 0.0
C2078 C 0.64135 0.66188 0.17658 0.0
C2079 C 0.73576 0.64435 0.25426 0.0
C2080 C 0.73202 0.66775 0.25414 0.0
C2081 C 0.71949 0.63509 0.24899 0.0
C2082 C 0.69919 0.64903 0.24347 0.0
C2083 C 0.69547 0.67236 0.24296 0.0
C2084 C 0.71167 0.68164 0.24839 0.0
C2085 C 0.68168 0.63924 0.23873 0.0
C2086 C 0.67297 0.64431 0.2163 0.0
C2087 C 0.67403 0.62451 0.256 0.0
C2088 C 0.68209 0.61918 0.28031 0.0
C2089 C 0.68095 0.63641 0.29505 0.0
C2090 C 0.68876 0.63127 0.31784 0.0
C2091 C 0.6976 0.60894 0.32617 0.0
C2092 C 0.6986 0.59171 0.31175 0.0
C2093 C 0.69084 0.59676 0.28892 0.0
H2094 H 0.70364 0.605 0.34383 0.0
H2095 H 0.62929 0.65251 0.12177 0.0
H2096 H 0.50064 0.6105 0.28215 0.0
H2097 H 0.47099 0.64445 0.28789 0.0
H2098 H 0.42709 0.6128 0.26137 0.0
H2099 H 0.45661 0.57952 0.2549 0.0
H2100 H 0.42333 0.65136 0.23828 0.0
H2101 H 0.42615 0.62495 0.32194 0.0
H2102 H 0.44328 0.61275 0.36015 0.0
H2103 H 0.45783 0.67623 0.35942 0.0
H2104 H 0.44102 0.6887 0.32103 0.0
H2105 H 0.31964 0.71549 0.26888 0.0
H2106 H 0.35368 0.68661 0.27077 0.0
H2107 H 0.38689 0.73676 0.27804 0.0
H2108 H 0.35246 0.76619 0.27585 0.0
H2109 H 0.39936 0.6936 0.31018 0.0
H2110 H 0.39327 0.72039 0.2273 0.0
H2111 H 0.37439 0.73192 0.19011 0.0
H2112 H 0.36481 0.66619 0.1905 0.0
H2113 H 0.38335 0.65436 0.2279 0.0
C2114 C 0.48452 0.61065 0.27819 0.0
C2115 C 0.48092 0.59238 0.26806 0.0
C2116 C 0.46757 0.63009 0.2814 0.0
C2117 C 0.4467 0.63137 0.27493 0.0
C2118 C 0.443 0.61247 0.26625 0.0
C2119 C 0.45989 0.59334 0.2627 0.0
C2120 C 0.42896 0.65267 0.27513 0.0
C2121 C 0.41808 0.66041 0.25414 0.0
C2122 C 0.42242 0.66516 0.29546 0.0
C2123 C 0.43258 0.65765 0.31847 0.0
C2124 C 0.43318 0.63623 0.32982 0.0
C2125 C 0.44279 0.62928 0.35153 0.0
C2126 C 0.45171 0.64368 0.36217 0.0
C2127 C 0.45097 0.66508 0.35114 0.0
C2128 C 0.44139 0.6721 0.32941 0.0
C2129 C 0.33413 0.7205 0.27089 0.0
C2130 C 0.33337 0.7432 0.27199 0.0
C2131 C 0.3536 0.7039 0.27206 0.0
C2132 C 0.37286 0.70949 0.27444 0.0
C2133 C 0.37219 0.73208 0.27624 0.0
C2134 C 0.35257 0.74886 0.27487 0.0
C2135 C 0.39355 0.69158 0.27362 0.0
C2136 C 0.40493 0.68459 0.29434 0.0
C2137 C 0.40054 0.67956 0.25313 0.0
C2138 C 0.38958 0.68654 0.23049 0.0
C2139 C 0.387 0.70844 0.21955 0.0
C2140 C 0.37638 0.71502 0.19841 0.0
C2141 C 0.36837 0.69981 0.18797 0.0
C2142 C 0.37101 0.67796 0.19861 0.0
C2143 C 0.3816 0.6713 0.21976 0.0
H2144 H 0.36015 0.70494 0.17161 0.0
H2145 H 0.45913 0.63827 0.37898 0.0
H2146 H 0.48811 0.49314 0.1962 0.0
H2147 H 0.46499 0.46756 0.20309 0.0
H2148 H 0.48245 0.45243 0.27619 0.0
H2149 H 0.50619 0.47736 0.2692 0.0
H2150 H 0.48212 0.41511 0.25708 0.0
H2151 H 0.4342 0.48798 0.26307 0.0
H2152 H 0.4176 0.52772 0.25056 0.0
H2153 H 0.39574 0.50855 0.18839 0.0
H2154 H 0.41251 0.46869 0.20035 0.0
H2155 H 0.39599 0.36427 0.29454 0.0
H2156 H 0.41833 0.39081 0.29127 0.0
H2157 H 0.41065 0.40266 0.21541 0.0
H2158 H 0.38844 0.37617 0.21852 0.0
H2159 H 0.40526 0.44217 0.23864 0.0
H2160 H 0.45513 0.3688 0.23306 0.0
H2161 H 0.47078 0.32931 0.24738 0.0
H2162 H 0.48795 0.35018 0.3113 0.0
H2163 H 0.47207 0.38982 0.29752 0.0
C2164 C 0.48724 0.48419 0.21365 0.0
C2165 C 0.49891 0.48745 0.23218 0.0
C2166 C 0.47385 0.46974 0.21764 0.0
C2167 C 0.47173 0.45835 0.24027 0.0
C2168 C 0.48373 0.46115 0.25863 0.0
C2169 C 0.49715 0.47558 0.25465 0.0
C2170 C 0.45694 0.44361 0.24476 0.0
C2171 C 0.46524 0.42113 0.25338 0.0
C2172 C 0.43495 0.4514 0.23975 0.0
C2173 C 0.4248 0.47535 0.23249 0.0
C2174 C 0.42601 0.49224 0.24663 0.0
C2175 C 0.41654 0.51479 0.23965 0.0
C2176 C 0.40567 0.52066 0.21866 0.0
C2177 C 0.4042 0.50398 0.20463 0.0
C2178 C 0.41367 0.48141 0.21151 0.0
C2179 C 0.39899 0.37264 0.27722 0.0
C2180 C 0.3907 0.368 0.25673 0.0
C2181 C 0.41177 0.38772 0.27537 0.0
C2182 C 0.41622 0.39854 0.25307 0.0
C2183 C 0.40742 0.39444 0.23275 0.0
C2184 C 0.39489 0.37919 0.23453 0.0
C2185 C 0.43053 0.41372 0.25064 0.0
C2186 C 0.42211 0.43626 0.24244 0.0
C2187 C 0.45233 0.40605 0.25627 0.0
C2188 C 0.4622 0.38226 0.26438 0.0
C2189 C 0.46209 0.36496 0.25026 0.0
C2190 C 0.47102 0.34255 0.25826 0.0
C2191 C 0.4803 0.33724 0.28027 0.0
C2192 C 0.48073 0.35433 0.29428 0.0
C2193 C 0.47177 0.37677 0.28637 0.0
H2194 H 0.4872 0.31987 0.28644 0.0
H2195 H 0.39834 0.53813 0.21329 0.0
H2196 H 0.84682 0.60856 0.59943 0.0
H2197 H 0.83728 0.6371 0.6278 0.0
H2198 H 0.77628 0.62169 0.64634 0.0
H2199 H 0.78556 0.59335 0.61694 0.0
H2200 H 0.77119 0.66576 0.64649 0.0
H2201 H 0.8186 0.60087 0.68237 0.0
H2202 H 0.85077 0.56873 0.6856 0.0
H2203 H 0.89138 0.61373 0.67836 0.0
H2204 H 0.85947 0.64615 0.67474 0.0
H2205 H 0.75964 0.72031 0.75492 0.0
H2206 H 0.76347 0.69227 0.7265 0.0
H2207 H 0.82247 0.70636 0.69554 0.0
H2208 H 0.81888 0.73443 0.72407 0.0
H2209 H 0.82593 0.66113 0.70429 0.0
H2210 H 0.7751 0.72662 0.66854 0.0
H2211 H 0.74118 0.75685 0.66863 0.0
H2212 H 0.70471 0.70792 0.68003 0.0
H2213 H 0.73838 0.6774 0.68046 0.0
C2214 C 0.83129 0.61128 0.60941 0.0
C2215 C 0.81705 0.59848 0.60619 0.0
C2216 C 0.82588 0.6276 0.62572 0.0
C2217 C 0.80632 0.63116 0.63976 0.0
C2218 C 0.79156 0.61912 0.63587 0.0
C2219 C 0.79686 0.60293 0.61911 0.0
C2220 C 0.80198 0.64691 0.65893 0.0
C2221 C 0.783 0.66455 0.65935 0.0
C2222 C 0.81736 0.64539 0.67582 0.0
C2223 C 0.83663 0.62595 0.67809 0.0
C2224 C 0.8344 0.60392 0.6813 0.0
C2225 C 0.85259 0.58565 0.68322 0.0
C2226 C 0.87311 0.58919 0.68214 0.0
C2227 C 0.87547 0.61101 0.67918 0.0
C2228 C 0.85734 0.62935 0.67722 0.0
C2229 C 0.77352 0.71743 0.74216 0.0
C2230 C 0.78902 0.72963 0.74185 0.0
C2231 C 0.77557 0.70147 0.72579 0.0
C2232 C 0.79311 0.69739 0.70871 0.0
C2233 C 0.80875 0.70931 0.70852 0.0
C2234 C 0.80668 0.72536 0.72484 0.0
C2235 C 0.79551 0.68032 0.69136 0.0
C2236 C 0.8141 0.66231 0.69144 0.0
C2237 C 0.77953 0.68128 0.6754 0.0
C2238 C 0.75929 0.6997 0.67474 0.0
C2239 C 0.75985 0.72229 0.67124 0.0
C2240 C 0.74067 0.73949 0.67118 0.0
C2241 C 0.72082 0.73429 0.67437 0.0
C2242 C 0.7201 0.71191 0.67758 0.0
C2243 C 0.73923 0.69466 0.67773 0.0
H2244 H 0.70599 0.74758 0.67429 0.0
H2245 H 0.88717 0.57502 0.68363 0.0
H2246 H 0.48654 0.79204 0.61734 0.0
H2247 H 0.45251 0.79665 0.64176 0.0
H2248 H 0.46684 0.72504 0.65839 0.0
H2249 H 0.5008 0.72032 0.63404 0.0
H2250 H 0.42622 0.74004 0.64896 0.0
H2251 H 0.471 0.76242 0.6995 0.0
H2252 H 0.49503 0.78414 0.7101 0.0
H2253 H 0.44534 0.84536 0.69836 0.0
H2254 H 0.4211 0.82401 0.68739 0.0
H2255 H 0.34531 0.7377 0.74235 0.0
H2256 H 0.37921 0.73443 0.7183 0.0
H2257 H 0.3655 0.8066 0.70805 0.0
H2258 H 0.33208 0.80983 0.7337 0.0
H2259 H 0.40548 0.79196 0.71327 0.0
H2260 H 0.36061 0.76901 0.66237 0.0
H2261 H 0.33647 0.7466 0.6537 0.0
H2262 H 0.38638 0.68591 0.66719 0.0
H2263 H 0.41078 0.70797 0.67607 0.0
C2264 C 0.48264 0.77725 0.62635 0.0
C2265 C 0.49669 0.75577 0.62353 0.0
C2266 C 0.46304 0.77992 0.6404 0.0
C2267 C 0.45694 0.76123 0.65227 0.0
C2268 C 0.47093 0.7398 0.64945 0.0
C2269 C 0.49047 0.73711 0.63539 0.0
C2270 C 0.43601 0.76386 0.66741 0.0
C2271 C 0.42184 0.75126 0.66316 0.0
C2272 C 0.4298 0.77878 0.68575 0.0
C2273 C 0.44432 0.79164 0.69238 0.0
C2274 C 0.46526 0.78053 0.699 0.0
C2275 C 0.4789 0.79277 0.70511 0.0
C2276 C 0.47174 0.81612 0.70484 0.0
C2277 C 0.45088 0.82728 0.69853 0.0
C2278 C 0.43718 0.81511 0.69238 0.0
C2279 C 0.34937 0.75292 0.73477 0.0
C2280 C 0.33571 0.77406 0.73965 0.0
C2281 C 0.36884 0.75103 0.72081 0.0
C2282 C 0.37495 0.77024 0.71046 0.0
C2283 C 0.36133 0.79142 0.71552 0.0
C2284 C 0.34209 0.7933 0.73011 0.0
C2285 C 0.39558 0.76822 0.69479 0.0
C2286 C 0.40974 0.78088 0.69895 0.0
C2287 C 0.40179 0.75335 0.67634 0.0
C2288 C 0.38747 0.74014 0.66998 0.0
C2289 C 0.36643 0.75089 0.66346 0.0
C2290 C 0.3527 0.73825 0.65853 0.0
C2291 C 0.35988 0.71484 0.65993 0.0
C2292 C 0.38086 0.70404 0.66609 0.0
C2293 C 0.39466 0.7166 0.671 0.0
H2294 H 0.34919 0.70508 0.65623 0.0
H2295 H 0.48232 0.82557 0.70957 0.0
H2296 H 0.32936 0.44493 0.61257 0.0
H2297 H 0.32526 0.41701 0.64485 0.0
H2298 H 0.26864 0.4102 0.61489 0.0
H2299 H 0.27192 0.43915 0.58304 0.0
H2300 H 0.26066 0.40988 0.66013 0.0
H2301 H 0.32004 0.36972 0.61202 0.0
H2302 H 0.35546 0.36111 0.58943 0.0
H2303 H 0.38671 0.36028 0.65356 0.0
H2304 H 0.35144 0.36915 0.67652 0.0
H2305 H 0.26888 0.29768 0.71991 0.0
H2306 H 0.27179 0.32798 0.68923 0.0
H2307 H 0.29966 0.35817 0.73899 0.0
H2308 H 0.29606 0.32818 0.77018 0.0
H2309 H 0.32207 0.34641 0.68489 0.0
H2310 H 0.25963 0.38776 0.73201 0.0
H2311 H 0.22347 0.39266 0.75261 0.0
H2312 H 0.19758 0.38703 0.68682 0.0
H2313 H 0.2337 0.38173 0.66591 0.0
C2314 C 0.31588 0.43776 0.61269 0.0
C2315 C 0.30092 0.44476 0.59486 0.0
C2316 C 0.31372 0.4214 0.63123 0.0
C2317 C 0.29678 0.41104 0.63241 0.0
C2318 C 0.28191 0.41779 0.61457 0.0
C2319 C 0.28393 0.43436 0.59609 0.0
C2320 C 0.29432 0.3937 0.65251 0.0
C2321 C 0.27414 0.39595 0.66527 0.0
C2322 C 0.31181 0.37541 0.65973 0.0
C2323 C 0.33305 0.37041 0.64593 0.0
C2324 C 0.33444 0.36794 0.62127 0.0
C2325 C 0.3545 0.36294 0.60841 0.0
C2326 C 0.37331 0.3602 0.62005 0.0
C2327 C 0.37211 0.36242 0.64458 0.0
C2328 C 0.35209 0.36743 0.65753 0.0
C2329 C 0.27533 0.31095 0.72447 0.0
C2330 C 0.28205 0.31063 0.74757 0.0
C2331 C 0.27703 0.32823 0.70687 0.0
C2332 C 0.28592 0.34537 0.71176 0.0
C2333 C 0.29266 0.34516 0.73482 0.0
C2334 C 0.29048 0.32811 0.75268 0.0
C2335 C 0.28866 0.36298 0.69241 0.0
C2336 C 0.30879 0.36058 0.67972 0.0
C2337 C 0.27111 0.38084 0.68497 0.0
C2338 C 0.24941 0.38407 0.69748 0.0
C2339 C 0.24628 0.3873 0.722 0.0
C2340 C 0.22578 0.39022 0.73372 0.0
C2341 C 0.20825 0.39008 0.72105 0.0
C2342 C 0.21118 0.38709 0.69662 0.0
C2343 C 0.23166 0.38415 0.68483 0.0
H2344 H 0.19239 0.39235 0.73014 0.0
H2345 H 0.38883 0.35631 0.61007 0.0
H2346 H 0.5425 0.29639 0.56601 0.0
H2347 H 0.56547 0.30531 0.59412 0.0
H2348 H 0.61291 0.24266 0.5832 0.0
H2349 H 0.59032 0.23371 0.55584 0.0
H2350 H 0.60526 0.24675 0.62905 0.0
H2351 H 0.61975 0.29506 0.55989 0.0
H2352 H 0.61003 0.32577 0.52807 0.0
H2353 H 0.58377 0.37256 0.58095 0.0
H2354 H 0.5931 0.34204 0.61309 0.0
H2355 H 0.69959 0.2529 0.67754 0.0
H2356 H 0.67311 0.25226 0.64963 0.0
H2357 H 0.63269 0.31507 0.6722 0.0
H2358 H 0.65902 0.31574 0.70044 0.0
H2359 H 0.63293 0.31419 0.62374 0.0
H2360 H 0.62067 0.26642 0.69279 0.0
H2361 H 0.63049 0.23582 0.72468 0.0
H2362 H 0.65204 0.18802 0.672 0.0
H2363 H 0.64263 0.2184 0.63977 0.0
C2364 C 0.55794 0.28472 0.56943 0.0
C2365 C 0.56439 0.26423 0.55879 0.0
C2366 C 0.5711 0.2898 0.58553 0.0
C2367 C 0.59101 0.27458 0.59103 0.0
C2368 C 0.59762 0.25461 0.57964 0.0
C2369 C 0.58458 0.24953 0.56386 0.0
C2370 C 0.60488 0.27845 0.60923 0.0
C2371 C 0.61141 0.26146 0.62767 0.0
C2372 C 0.61248 0.29791 0.60816 0.0
C2373 C 0.60688 0.31623 0.58887 0.0
C2374 C 0.61173 0.31186 0.56472 0.0
C2375 C 0.60633 0.32923 0.54663 0.0
C2376 C 0.59622 0.35109 0.55248 0.0
C2377 C 0.59156 0.35561 0.57645 0.0
C2378 C 0.5969 0.33829 0.5946 0.0
C2379 C 0.68504 0.26656 0.67675 0.0
C2380 C 0.68152 0.28427 0.69157 0.0
C2381 C 0.66988 0.26621 0.66065 0.0
C2382 C 0.65064 0.28346 0.65893 0.0
C2383 C 0.64734 0.30154 0.6731 0.0
C2384 C 0.66253 0.30191 0.68925 0.0
C2385 C 0.6338 0.28211 0.64294 0.0
C2386 C 0.62664 0.29958 0.62512 0.0
C2387 C 0.62555 0.26306 0.64451 0.0
C2388 C 0.6311 0.24472 0.66386 0.0
C2389 C 0.62764 0.24941 0.688 0.0
C2390 C 0.63311 0.2321 0.70614 0.0
C2391 C 0.64193 0.21 0.70037 0.0
C2392 C 0.64523 0.20515 0.67644 0.0
C2393 C 0.63981 0.22241 0.65823 0.0
H2394 H 0.64616 0.19662 0.71444 0.0
H2395 H 0.59206 0.36452 0.53846 0.0
H2396 H 0.77037 0.55469 0.48788 0.0
H2397 H 0.76248 0.52733 0.4643 0.0
H2398 H 0.77954 0.47606 0.52236 0.0
H2399 H 0.78787 0.50311 0.54568 0.0
H2400 H 0.80153 0.4627 0.48285 0.0
H2401 H 0.72703 0.49637 0.50446 0.0
H2402 H 0.69394 0.52727 0.50854 0.0
H2403 H 0.69635 0.54271 0.43241 0.0
H2404 H 0.72964 0.51209 0.42789 0.0
H2405 H 0.78097 0.37421 0.42988 0.0
H2406 H 0.77648 0.40351 0.45712 0.0
H2407 H 0.76234 0.45422 0.3981 0.0
H2408 H 0.76667 0.42501 0.37078 0.0
H2409 H 0.73748 0.46795 0.43829 0.0
H2410 H 0.81267 0.43625 0.41697 0.0
H2411 H 0.84596 0.40566 0.41236 0.0
H2412 H 0.84239 0.38729 0.48797 0.0
H2413 H 0.80889 0.41758 0.49297 0.0
C2414 C 0.77189 0.53773 0.49583 0.0
C2415 C 0.77992 0.53101 0.51856 0.0
C2416 C 0.76736 0.52208 0.48234 0.0
C2417 C 0.77048 0.49956 0.4915 0.0
C2418 C 0.77715 0.49327 0.51481 0.0
C2419 C 0.78186 0.50878 0.52816 0.0
C2420 C 0.76916 0.48202 0.4761 0.0
C2421 C 0.78733 0.4637 0.4735 0.0
C2422 C 0.75095 0.48363 0.4632 0.0
C2423 C 0.73095 0.50207 0.46587 0.0
C2424 C 0.72061 0.50648 0.48861 0.0
C2425 C 0.7018 0.52392 0.49099 0.0
C2426 C 0.69308 0.53698 0.47075 0.0
C2427 C 0.70314 0.5326 0.44808 0.0
C2428 C 0.72197 0.51519 0.44559 0.0
C2429 C 0.77675 0.39161 0.42273 0.0
C2430 C 0.7744 0.39727 0.39812 0.0
C2431 C 0.77414 0.40834 0.43832 0.0
C2432 C 0.76942 0.43106 0.42959 0.0
C2433 C 0.76598 0.43682 0.40524 0.0
C2434 C 0.76845 0.42009 0.38965 0.0
C2435 C 0.7697 0.44859 0.44546 0.0
C2436 C 0.75152 0.46694 0.44792 0.0
C2437 C 0.78792 0.44713 0.45824 0.0
C2438 C 0.80816 0.42903 0.4553 0.0
C2439 C 0.81891 0.42558 0.43258 0.0
C2440 C 0.83782 0.40831 0.42991 0.0
C2441 C 0.84625 0.3945 0.44985 0.0
C2442 C 0.83582 0.39798 0.47253 0.0
C2443 C 0.81687 0.4152 0.4753 0.0
H2444 H 0.86089 0.38114 0.44775 0.0
H2445 H 0.67851 0.55047 0.47264 0.0
H2446 H 0.6537 0.72728 0.50861 0.0
H2447 H 0.67859 0.73307 0.47494 0.0
H2448 H 0.63453 0.79638 0.45364 0.0
H2449 H 0.60899 0.79031 0.48697 0.0
H2450 H 0.65115 0.77514 0.41498 0.0
H2451 H 0.68131 0.7929 0.48198 0.0
H2452 H 0.69454 0.78699 0.52242 0.0
H2453 H 0.74347 0.72849 0.50243 0.0
H2454 H 0.73032 0.73384 0.46196 0.0
H2455 H 0.73179 0.80766 0.33195 0.0
H2456 H 0.70491 0.8069 0.36578 0.0
H2457 H 0.74167 0.7409 0.39063 0.0
H2458 H 0.76818 0.74124 0.35666 0.0
H2459 H 0.72799 0.76671 0.42755 0.0
H2460 H 0.6962 0.74805 0.36135 0.0
H2461 H 0.68282 0.75409 0.32097 0.0
H2462 H 0.63702 0.81518 0.33967 0.0
H2463 H 0.65034 0.80965 0.38009 0.0
C2464 C 0.64904 0.7424 0.49678 0.0
C2465 C 0.62908 0.7583 0.50084 0.0
C2466 C 0.66355 0.74582 0.47751 0.0
C2467 C 0.65878 0.76537 0.46172 0.0
C2468 C 0.63879 0.78119 0.4655 0.0
C2469 C 0.62419 0.77776 0.48481 0.0
C2470 C 0.67461 0.76906 0.44132 0.0
C2471 C 0.66785 0.77368 0.41786 0.0
C2472 C 0.69662 0.76686 0.44472 0.0
C2473 C 0.7047 0.76367 0.46899 0.0
C2474 C 0.6948 0.77868 0.48625 0.0
C2475 C 0.70229 0.77545 0.50918 0.0
C2476 C 0.7198 0.75735 0.51501 0.0
C2477 C 0.72989 0.74249 0.4979 0.0
C2478 C 0.72244 0.74563 0.47495 0.0
C2479 C 0.73409 0.79294 0.34457 0.0
C2480 C 0.75203 0.77439 0.34134 0.0
C2481 C 0.71866 0.79248 0.36391 0.0
C2482 C 0.72101 0.77363 0.38073 0.0
C2483 C 0.73927 0.75546 0.37783 0.0
C2484 C 0.7544 0.75568 0.3583 0.0
C2485 C 0.70456 0.77255 0.40126 0.0
C2486 C 0.71123 0.76838 0.42474 0.0
C2487 C 0.68249 0.77526 0.39789 0.0
C2488 C 0.67443 0.77858 0.37364 0.0
C2489 C 0.6834 0.76287 0.35678 0.0
C2490 C 0.6758 0.76618 0.3339 0.0
C2491 C 0.65912 0.78504 0.32774 0.0
C2492 C 0.64996 0.8006 0.34446 0.0
C2493 C 0.65752 0.79738 0.36736 0.0
H2494 H 0.65326 0.78757 0.31001 0.0
H2495 H 0.72558 0.75487 0.53277 0.0
H2496 H 0.32712 0.58551 0.47652 0.0
H2497 H 0.32206 0.62094 0.45142 0.0
H2498 H 0.26679 0.60931 0.42302 0.0
H2499 H 0.27186 0.57371 0.44809 0.0
H2500 H 0.2938 0.62391 0.38734 0.0
H2501 H 0.25959 0.64713 0.46302 0.0
H2502 H 0.25713 0.64929 0.50667 0.0
H2503 H 0.30972 0.67989 0.49952 0.0
H2504 H 0.3127 0.67762 0.45584 0.0
H2505 H 0.25766 0.73362 0.32863 0.0
H2506 H 0.25886 0.69968 0.35551 0.0
H2507 H 0.31237 0.70971 0.38902 0.0
H2508 H 0.31122 0.74364 0.36239 0.0
H2509 H 0.28478 0.69608 0.42235 0.0
H2510 H 0.32039 0.67184 0.34783 0.0
H2511 H 0.32404 0.6696 0.30417 0.0
H2512 H 0.27052 0.64048 0.30908 0.0
H2513 H 0.26632 0.6429 0.35277 0.0
C2514 C 0.31393 0.59039 0.46488 0.0
C2515 C 0.29991 0.57663 0.46439 0.0
C2516 C 0.31095 0.6108 0.45061 0.0
C2517 C 0.29395 0.618 0.43532 0.0
C2518 C 0.28002 0.60423 0.43463 0.0
C2519 C 0.28284 0.58391 0.44913 0.0
C2520 C 0.29083 0.63982 0.42005 0.0
C2521 C 0.29147 0.63972 0.39506 0.0
C2522 C 0.28833 0.6605 0.42992 0.0
C2523 C 0.28648 0.66203 0.45617 0.0
C2524 C 0.27073 0.65418 0.47077 0.0
C2525 C 0.2692 0.65547 0.49551 0.0
C2526 C 0.28326 0.66471 0.50586 0.0
C2527 C 0.29884 0.67273 0.49148 0.0
C2528 C 0.30044 0.67147 0.46672 0.0
C2529 C 0.26954 0.72879 0.34187 0.0
C2530 C 0.28436 0.74151 0.34317 0.0
C2531 C 0.2703 0.70922 0.3572 0.0
C2532 C 0.28588 0.70183 0.37424 0.0
C2533 C 0.3002 0.71492 0.3761 0.0
C2534 C 0.29953 0.73438 0.36072 0.0
C2535 C 0.28774 0.68019 0.38962 0.0
C2536 C 0.28695 0.68029 0.41464 0.0
C2537 C 0.29028 0.65949 0.37976 0.0
C2538 C 0.29288 0.65778 0.35354 0.0
C2539 C 0.30929 0.66512 0.33958 0.0
C2540 C 0.31147 0.6638 0.31483 0.0
C2541 C 0.29748 0.65495 0.30385 0.0
C2542 C 0.28132 0.64736 0.31761 0.0
C2543 C 0.27903 0.6487 0.34237 0.0
H2544 H 0.2992 0.65394 0.28469 0.0
H2545 H 0.28209 0.66564 0.52502 0.0
H2546 H 0.45656 0.29459 0.47957 0.0
H2547 H 0.42658 0.30397 0.45293 0.0
H2548 H 0.45808 0.24631 0.41433 0.0
H2549 H 0.48764 0.23697 0.44059 0.0
H2550 H 0.44014 0.28182 0.38363 0.0
H2551 H 0.41819 0.24427 0.45792 0.0
H2552 H 0.41061 0.24011 0.50163 0.0
H2553 H 0.36359 0.30407 0.49841 0.0
H2554 H 0.37113 0.30873 0.45469 0.0
H2555 H 0.35469 0.25928 0.32649 0.0
H2556 H 0.38575 0.25929 0.34846 0.0
H2557 H 0.34475 0.30938 0.39194 0.0
H2558 H 0.31373 0.30838 0.37092 0.0
H2559 H 0.36739 0.28142 0.42007 0.0
H2560 H 0.38642 0.3187 0.34609 0.0
H2561 H 0.39408 0.32449 0.30262 0.0
H2562 H 0.44604 0.26438 0.30458 0.0
H2563 H 0.43855 0.25799 0.34812 0.0
C2564 C 0.45721 0.28419 0.46514 0.0
C2565 C 0.47448 0.26496 0.46235 0.0
C2566 C 0.44 0.28945 0.44999 0.0
C2567 C 0.43987 0.27571 0.43164 0.0
C2568 C 0.45765 0.2572 0.42824 0.0
C2569 C 0.47457 0.25183 0.44342 0.0
C2570 C 0.42096 0.27953 0.41666 0.0
C2571 C 0.42422 0.28166 0.39158 0.0
C2572 C 0.40001 0.27984 0.42687 0.0
C2573 C 0.3954 0.27696 0.4531 0.0
C2574 C 0.40636 0.25752 0.46656 0.0
C2575 C 0.40205 0.25506 0.49133 0.0
C2576 C 0.38668 0.27185 0.5028 0.0
C2577 C 0.37553 0.2911 0.48951 0.0
C2578 C 0.37981 0.29366 0.46474 0.0
C2579 C 0.35244 0.27048 0.34052 0.0
C2580 C 0.33174 0.28375 0.34703 0.0
C2581 C 0.37025 0.27059 0.35309 0.0
C2582 C 0.36789 0.28447 0.372 0.0
C2583 C 0.34724 0.29833 0.37772 0.0
C2584 C 0.32945 0.29785 0.36556 0.0
C2585 C 0.38641 0.28373 0.38677 0.0
C2586 C 0.38314 0.28198 0.41191 0.0
C2587 C 0.40728 0.28406 0.37656 0.0
C2588 C 0.41178 0.28776 0.35036 0.0
C2589 C 0.39937 0.30661 0.33725 0.0
C2590 C 0.4037 0.31002 0.31258 0.0
C2591 C 0.42047 0.29482 0.3008 0.0
C2592 C 0.43302 0.27614 0.31371 0.0
C2593 C 0.42876 0.27262 0.3384 0.0
H2594 H 0.42377 0.29754 0.28169 0.0
H2595 H 0.38336 0.26992 0.52198 0.0
H2596 H 0.60092 0.81042 0.61238 0.0
H2597 H 0.62669 0.81592 0.63898 0.0
H2598 H 0.6336 0.74874 0.6721 0.0
H2599 H 0.60782 0.74327 0.646 0.0
H2600 H 0.63247 0.77591 0.70527 0.0
H2601 H 0.67197 0.76031 0.63047 0.0
H2602 H 0.67997 0.76484 0.58684 0.0
H2603 H 0.68333 0.8322 0.59202 0.0
H2604 H 0.67508 0.82815 0.63567 0.0
H2605 H 0.73089 0.76561 0.76067 0.0
H2606 H 0.70191 0.76092 0.73835 0.0
H2607 H 0.69787 0.82558 0.6996 0.0
H2608 H 0.72787 0.82937 0.72059 0.0
H2609 H 0.69715 0.79877 0.66966 0.0
H2610 H 0.65922 0.81118 0.74786 0.0
H2611 H 0.65322 0.80274 0.79133 0.0
H2612 H 0.64878 0.73701 0.77979 0.0
H2613 H 0.6552 0.74489 0.73631 0.0
C2614 C 0.60776 0.79693 0.6255 0.0
C2615 C 0.60234 0.77638 0.62692 0.0
C2616 C 0.62261 0.80003 0.64061 0.0
C2617 C 0.63236 0.78263 0.65741 0.0
C2618 C 0.62638 0.76242 0.65934 0.0
C2619 C 0.61163 0.75931 0.64428 0.0
C2620 C 0.64919 0.78513 0.67255 0.0
C2621 C 0.64669 0.7808 0.6975 0.0
C2622 C 0.66779 0.79147 0.66251 0.0
C2623 C 0.67264 0.79403 0.63627 0.0
C2624 C 0.67422 0.77616 0.62227 0.0
C2625 C 0.67884 0.77862 0.59755 0.0
C2626 C 0.68208 0.79882 0.58666 0.0
C2627 C 0.68077 0.81658 0.60048 0.0
C2628 C 0.67613 0.81421 0.6252 0.0
C2629 C 0.7236 0.77891 0.74761 0.0
C2630 C 0.7316 0.79789 0.7424 0.0
C2631 C 0.7069 0.7763 0.73488 0.0
C2632 C 0.69731 0.79303 0.71735 0.0
C2633 C 0.70491 0.81234 0.71288 0.0
C2634 C 0.72198 0.8146 0.72503 0.0
C2635 C 0.68025 0.79019 0.70263 0.0
C2636 C 0.6828 0.79425 0.67761 0.0
C2637 C 0.66191 0.78319 0.71266 0.0
C2638 C 0.65789 0.77858 0.73883 0.0
C2639 C 0.65711 0.79488 0.7546 0.0
C2640 C 0.65363 0.79019 0.77925 0.0
C2641 C 0.65066 0.76934 0.78832 0.0
C2642 C 0.65109 0.75316 0.77275 0.0
C2643 C 0.65468 0.75772 0.74811 0.0
H2644 H 0.64801 0.76573 0.8074 0.0
H2645 H 0.68567 0.80069 0.56752 0.0
H2646 H 0.59369 0.26534 0.47271 0.0
H2647 H 0.62556 0.27159 0.44959 0.0
H2648 H 0.6327 0.21164 0.41423 0.0
H2649 H 0.60043 0.20544 0.4367 0.0
H2650 H 0.67158 0.21532 0.42978 0.0
H2651 H 0.61292 0.25993 0.38487 0.0
H2652 H 0.57842 0.28833 0.37873 0.0
H2653 H 0.60478 0.33904 0.40022 0.0
H2654 H 0.63936 0.31085 0.40684 0.0
H2655 H 0.74446 0.23451 0.33191 0.0
H2656 H 0.71464 0.22679 0.35829 0.0
H2657 H 0.7043 0.29039 0.38781 0.0
H2658 H 0.73393 0.29839 0.36127 0.0
H2659 H 0.66721 0.28485 0.3761 0.0
H2660 H 0.72604 0.24093 0.42032 0.0
H2661 H 0.76062 0.21279 0.42687 0.0
H2662 H 0.73435 0.1612 0.40744 0.0
H2663 H 0.69968 0.1891 0.40044 0.0
C2664 C 0.60173 0.25352 0.4599 0.0
C2665 C 0.5941 0.23491 0.45663 0.0
C2666 C 0.62012 0.25711 0.44673 0.0
C2667 C 0.63143 0.24216 0.43008 0.0
C2668 C 0.62423 0.22337 0.42704 0.0
C2669 C 0.60571 0.21984 0.44002 0.0
C2670 C 0.65064 0.24632 0.41566 0.0
C2671 C 0.67062 0.23038 0.41781 0.0
C2672 C 0.64944 0.26624 0.40053 0.0
C2673 C 0.62865 0.28322 0.39661 0.0
C2674 C 0.6113 0.27709 0.38851 0.0
C2675 C 0.59174 0.29316 0.3849 0.0
C2676 C 0.58939 0.31546 0.38915 0.0
C2677 C 0.60661 0.32175 0.39697 0.0
C2678 C 0.6262 0.30573 0.40065 0.0
C2679 C 0.73603 0.24676 0.34421 0.0
C2680 C 0.74163 0.26708 0.34445 0.0
C2681 C 0.719 0.24228 0.35936 0.0
C2682 C 0.70727 0.25795 0.37517 0.0
C2683 C 0.71309 0.27805 0.37577 0.0
C2684 C 0.73014 0.28254 0.36064 0.0
C2685 C 0.68827 0.25386 0.39019 0.0
C2686 C 0.66827 0.26981 0.38813 0.0
C2687 C 0.68949 0.23399 0.40547 0.0
C2688 C 0.71032 0.21716 0.40962 0.0
C2689 C 0.72769 0.22362 0.41724 0.0
C2690 C 0.7473 0.20771 0.42108 0.0
C2691 C 0.7497 0.18524 0.41752 0.0
C2692 C 0.73247 0.17862 0.41016 0.0
C2693 C 0.71284 0.19448 0.40628 0.0
H2694 H 0.76489 0.17294 0.42051 0.0
H2695 H 0.57424 0.32788 0.38632 0.0
H2696 H 0.82813 0.57777 0.46319 0.0
H2697 H 0.82527 0.60233 0.42588 0.0
H2698 H 0.86712 0.63706 0.45141 0.0
H2699 H 0.87041 0.61231 0.48816 0.0
H2700 H 0.80927 0.64422 0.41667 0.0
H2701 H 0.89594 0.6579 0.40839 0.0
H2702 H 0.93306 0.63575 0.41558 0.0
H2703 H 0.91557 0.57493 0.40885 0.0
H2704 H 0.87843 0.59671 0.40127 0.0
H2705 H 0.81504 0.75019 0.36522 0.0
H2706 H 0.81863 0.71472 0.38981 0.0
H2707 H 0.85154 0.6785 0.33005 0.0
H2708 H 0.84751 0.71416 0.30503 0.0
H2709 H 0.87234 0.66477 0.37285 0.0
H2710 H 0.80484 0.67503 0.34386 0.0
H2711 H 0.76762 0.69281 0.33304 0.0
H2712 H 0.74674 0.699 0.40714 0.0
H2713 H 0.78396 0.68215 0.41844 0.0
C2714 C 0.83679 0.59058 0.4607 0.0
C2715 C 0.84964 0.59298 0.47851 0.0
C2716 C 0.83519 0.60458 0.43938 0.0
C2717 C 0.8463 0.62133 0.43555 0.0
C2718 C 0.85893 0.62385 0.4535 0.0
C2719 C 0.86076 0.60971 0.4746 0.0
C2720 C 0.84389 0.63707 0.41351 0.0
C2721 C 0.82306 0.64863 0.40702 0.0
C2722 C 0.86192 0.64218 0.40016 0.0
C2723 C 0.88434 0.62897 0.4044 0.0
C2724 C 0.90004 0.63982 0.40829 0.0
C2725 C 0.92108 0.62731 0.41247 0.0
C2726 C 0.92666 0.60394 0.41272 0.0
C2727 C 0.91122 0.59303 0.40872 0.0
C2728 C 0.89016 0.60544 0.40451 0.0
C2729 C 0.82315 0.7347 0.35732 0.0
C2730 C 0.83121 0.73489 0.3333 0.0
C2731 C 0.82501 0.71444 0.37133 0.0
C2732 C 0.83521 0.694 0.36169 0.0
C2733 C 0.84357 0.69412 0.33777 0.0
C2734 C 0.84134 0.71443 0.32357 0.0
C2735 C 0.83773 0.67275 0.37716 0.0
C2736 C 0.85858 0.66015 0.38235 0.0
C2737 C 0.81972 0.66626 0.38877 0.0
C2738 C 0.79736 0.67741 0.38202 0.0
C2739 C 0.79243 0.68052 0.35787 0.0
C2740 C 0.77128 0.69038 0.35163 0.0
C2741 C 0.75483 0.69695 0.36938 0.0
C2742 C 0.7595 0.69384 0.3934 0.0
C2743 C 0.78065 0.68423 0.39973 0.0
H2744 H 0.73846 0.70454 0.36452 0.0
H2745 H 0.94295 0.5943 0.41598 0.0
H2746 H 0.54019 0.78992 0.48489 0.0
H2747 H 0.51007 0.80511 0.45975 0.0
H2748 H 0.47236 0.83934 0.51857 0.0
H2749 H 0.50289 0.82401 0.54401 0.0
H2750 H 0.45176 0.81296 0.49968 0.0
H2751 H 0.48465 0.87014 0.46857 0.0
H2752 H 0.51405 0.88693 0.45252 0.0
H2753 H 0.52473 0.84849 0.3915 0.0
H2754 H 0.49561 0.83119 0.40733 0.0
H2755 H 0.36963 0.83521 0.41581 0.0
H2756 H 0.39327 0.84256 0.44379 0.0
H2757 H 0.44898 0.80808 0.40113 0.0
H2758 H 0.42561 0.80132 0.37288 0.0
H2759 H 0.45508 0.84549 0.41559 0.0
H2760 H 0.42878 0.78238 0.45208 0.0
H2761 H 0.4005 0.76405 0.46848 0.0
H2762 H 0.37829 0.81326 0.51961 0.0
H2763 H 0.40631 0.83204 0.50329 0.0
C2764 C 0.52571 0.80124 0.49227 0.0
C2765 C 0.52385 0.80585 0.51634 0.0
C2766 C 0.5085 0.81 0.47785 0.0
C2767 C 0.48894 0.82349 0.48719 0.0
C2768 C 0.48735 0.82907 0.51096 0.0
C2769 C 0.50481 0.82048 0.5254 0.0
C2770 C 0.46977 0.8291 0.47276 0.0
C2771 C 0.45217 0.82072 0.48152 0.0
C2772 C 0.47043 0.83889 0.44894 0.0
C2773 C 0.48794 0.84931 0.43921 0.0
C2774 C 0.49334 0.86515 0.4518 0.0
C2775 C 0.50996 0.87478 0.44273 0.0
C2776 C 0.52126 0.86877 0.42102 0.0
C2777 C 0.51595 0.85315 0.40831 0.0
C2778 C 0.49935 0.84346 0.4173 0.0
C2779 C 0.38692 0.82941 0.41228 0.0
C2780 C 0.39571 0.81743 0.39224 0.0
C2781 C 0.40041 0.83352 0.42836 0.0
C2782 C 0.42293 0.82571 0.42469 0.0
C2783 C 0.43168 0.81427 0.40438 0.0
C2784 C 0.41827 0.81017 0.38837 0.0
C2785 C 0.43763 0.82849 0.44223 0.0
C2786 C 0.45437 0.83841 0.43399 0.0
C2787 C 0.43624 0.82005 0.46651 0.0
C2788 C 0.41942 0.80878 0.47627 0.0
C2789 C 0.41774 0.78939 0.46669 0.0
C2790 C 0.40179 0.7789 0.47599 0.0
C2791 C 0.38755 0.78754 0.49501 0.0
C2792 C 0.38929 0.80663 0.50483 0.0
C2793 C 0.4052 0.8172 0.49557 0.0
H2794 H 0.37522 0.77939 0.50219 0.0
H2795 H 0.53412 0.87624 0.41403 0.0
H2796 H 0.24964 0.46512 0.48258 0.0
H2797 H 0.24094 0.44275 0.45349 0.0
H2798 H 0.30103 0.44229 0.41291 0.0
H2799 H 0.30988 0.46441 0.44179 0.0
H2800 H 0.26608 0.45158 0.38436 0.0
H2801 H 0.29745 0.3978 0.44879 0.0
H2802 H 0.29964 0.3818 0.49074 0.0
H2803 H 0.2359 0.37317 0.49119 0.0
H2804 H 0.23325 0.3894 0.44931 0.0
H2805 H 0.29614 0.35919 0.31573 0.0
H2806 H 0.291 0.38881 0.34223 0.0
H2807 H 0.23429 0.37182 0.37649 0.0
H2808 H 0.23966 0.34152 0.35027 0.0
H2809 H 0.26 0.37437 0.40886 0.0
H2810 H 0.23088 0.42256 0.34216 0.0
H2811 H 0.22886 0.43817 0.3001 0.0
H2812 H 0.28725 0.45771 0.30346 0.0
H2813 H 0.2898 0.44194 0.34545 0.0
C2814 C 0.26095 0.46029 0.46742 0.0
C2815 C 0.28049 0.46645 0.46454 0.0
C2816 C 0.25597 0.44751 0.45085 0.0
C2817 C 0.27037 0.44085 0.43108 0.0
C2818 C 0.28967 0.44732 0.42799 0.0
C2819 C 0.29475 0.45986 0.44461 0.0
C2820 C 0.26584 0.42658 0.41382 0.0
C2821 C 0.26479 0.43467 0.38964 0.0
C2822 C 0.26345 0.40483 0.4209 0.0
C2823 C 0.26504 0.39508 0.44605 0.0
C2824 C 0.28383 0.39269 0.45792 0.0
C2825 C 0.28517 0.38353 0.48166 0.0
C2826 C 0.26789 0.37655 0.49365 0.0
C2827 C 0.24926 0.37864 0.4819 0.0
C2828 C 0.24783 0.3878 0.45816 0.0
C2829 C 0.28229 0.36195 0.32854 0.0
C2830 C 0.26835 0.34786 0.33089 0.0
C2831 C 0.2793 0.37905 0.34366 0.0
C2832 C 0.26215 0.38272 0.36128 0.0
C2833 C 0.24764 0.36933 0.36301 0.0
C2834 C 0.25067 0.35208 0.34791 0.0
C2835 C 0.26075 0.39912 0.37913 0.0
C2836 C 0.26075 0.39145 0.4035 0.0
C2837 C 0.26208 0.42131 0.3722 0.0
C2838 C 0.26058 0.43095 0.34695 0.0
C2839 C 0.24337 0.43006 0.33389 0.0
C2840 C 0.24212 0.43896 0.31006 0.0
C2841 C 0.25793 0.4489 0.2991 0.0
C2842 C 0.27501 0.45001 0.31197 0.0
C2843 C 0.27634 0.44113 0.33581 0.0
H2844 H 0.25694 0.45577 0.28065 0.0
H2845 H 0.26896 0.36946 0.51203 0.0
H2846 H 0.48609 0.19426 0.60427 0.0
H2847 H 0.45908 0.19799 0.63789 0.0
H2848 H 0.42552 0.26315 0.60695 0.0
H2849 H 0.45209 0.25943 0.57291 0.0
H2850 H 0.43153 0.26325 0.65464 0.0
H2851 H 0.40502 0.21975 0.60525 0.0
H2852 H 0.4073 0.18798 0.58152 0.0
H2853 H 0.42257 0.14193 0.64375 0.0
H2854 H 0.42067 0.17342 0.66779 0.0
H2855 H 0.3371 0.28376 0.72964 0.0
H2856 H 0.36265 0.27691 0.69495 0.0
H2857 H 0.38868 0.20875 0.72412 0.0
H2858 H 0.36206 0.21531 0.75858 0.0
H2859 H 0.38757 0.20924 0.67796 0.0
H2860 H 0.41428 0.25253 0.7275 0.0
H2861 H 0.41171 0.28426 0.75143 0.0
H2862 H 0.39657 0.33046 0.68931 0.0
H2863 H 0.39883 0.29903 0.66504 0.0
C2864 C 0.47286 0.20928 0.6043 0.0
C2865 C 0.47147 0.22656 0.58568 0.0
C2866 C 0.45741 0.21139 0.62367 0.0
C2867 C 0.44023 0.23082 0.62492 0.0
C2868 C 0.4387 0.24805 0.60641 0.0
C2869 C 0.45403 0.2459 0.58696 0.0
C2870 C 0.42415 0.23344 0.64582 0.0
C2871 C 0.42174 0.25159 0.65958 0.0
C2872 C 0.4118 0.21788 0.65266 0.0
C2873 C 0.41293 0.19892 0.63826 0.0
C2874 C 0.40905 0.20283 0.61383 0.0
C2875 C 0.41024 0.18488 0.60033 0.0
C2876 C 0.41514 0.16295 0.61111 0.0
C2877 C 0.41881 0.15893 0.63542 0.0
C2878 C 0.41766 0.17682 0.64899 0.0
C2879 C 0.34826 0.26728 0.72871 0.0
C2880 C 0.34784 0.25014 0.74699 0.0
C2881 C 0.36297 0.26341 0.70887 0.0
C2882 C 0.37813 0.24252 0.70718 0.0
C2883 C 0.3773 0.22509 0.72509 0.0
C2884 C 0.36215 0.22883 0.74479 0.0
C2885 C 0.39486 0.23913 0.68682 0.0
C2886 C 0.39743 0.22084 0.67314 0.0
C2887 C 0.40749 0.25451 0.68009 0.0
C2888 C 0.40661 0.27342 0.6945 0.0
C2889 C 0.41034 0.26946 0.71896 0.0
C2890 C 0.40894 0.28739 0.73258 0.0
C2891 C 0.40395 0.30936 0.72189 0.0
C2892 C 0.40044 0.31344 0.69754 0.0
C2893 C 0.40182 0.29557 0.68384 0.0
H2894 H 0.40283 0.32322 0.73248 0.0
H2895 H 0.41604 0.14907 0.60063 0.0
H2896 H 0.81717 0.49438 0.63754 0.0
H2897 H 0.81023 0.46292 0.66399 0.0
H2898 H 0.86235 0.41715 0.62664 0.0
H2899 H 0.86895 0.44837 0.5997 0.0
H2900 H 0.82785 0.40052 0.63492 0.0
H2901 H 0.869 0.43291 0.68059 0.0
H2902 H 0.87746 0.46337 0.69919 0.0
H2903 H 0.81733 0.47425 0.74158 0.0
H2904 H 0.80838 0.44403 0.72299 0.0
H2905 H 0.8412 0.3279 0.75751 0.0
H2906 H 0.84928 0.35674 0.72816 0.0
H2907 H 0.78846 0.36557 0.69768 0.0
H2908 H 0.78026 0.33647 0.72692 0.0
H2909 H 0.8285 0.39995 0.72292 0.0
H2910 H 0.79385 0.3831 0.63788 0.0
H2911 H 0.78827 0.35123 0.61909 0.0
H2912 H 0.84089 0.30634 0.65529 0.0
H2913 H 0.84697 0.33797 0.67403 0.0
C2914 C 0.82708 0.47762 0.63485 0.0
C2915 C 0.84369 0.47398 0.61652 0.0
C2916 C 0.82318 0.45966 0.65009 0.0
C2917 C 0.83588 0.43768 0.64741 0.0
C2918 C 0.85236 0.43396 0.62906 0.0
C2919 C 0.85627 0.4519 0.61383 0.0
C2920 C 0.83212 0.41858 0.66385 0.0
C2921 C 0.82795 0.4004 0.65416 0.0
C2922 C 0.83254 0.41826 0.68894 0.0
C2923 C 0.83793 0.43636 0.70023 0.0
C2924 C 0.85751 0.44191 0.69375 0.0
C2925 C 0.86241 0.45911 0.70431 0.0
C2926 C 0.84792 0.47078 0.72151 0.0
C2927 C 0.82852 0.46522 0.72823 0.0
C2928 C 0.82354 0.44805 0.71771 0.0
C2929 C 0.82958 0.33576 0.74444 0.0
C2930 C 0.81003 0.32985 0.74466 0.0
C2931 C 0.83422 0.35233 0.7277 0.0
C2932 C 0.81949 0.36334 0.71073 0.0
C2933 C 0.80018 0.35714 0.71046 0.0
C2934 C 0.79551 0.34049 0.72722 0.0
C2935 C 0.82406 0.38192 0.69402 0.0
C2936 C 0.82832 0.40006 0.70368 0.0
C2937 C 0.82407 0.382 0.6689 0.0
C2938 C 0.8207 0.36288 0.65755 0.0
C2939 C 0.80427 0.36644 0.64176 0.0
C2940 C 0.80101 0.34841 0.63113 0.0
C2941 C 0.81417 0.32676 0.63606 0.0
C2942 C 0.83066 0.3231 0.65157 0.0
C2943 C 0.83399 0.34107 0.66222 0.0
H2944 H 0.81161 0.31283 0.62783 0.0
H2945 H 0.85174 0.4841 0.72966 0.0
H2946 H 0.23552 0.56942 0.53737 0.0
H2947 H 0.23504 0.60047 0.56071 0.0
H2948 H 0.24047 0.5558 0.6252 0.0
H2949 H 0.24059 0.52476 0.60212 0.0
H2950 H 0.21789 0.59907 0.63359 0.0
H2951 H 0.28513 0.5609 0.59135 0.0
H2952 H 0.30769 0.54811 0.55511 0.0
H2953 H 0.2965 0.61615 0.5245 0.0
H2954 H 0.27348 0.6294 0.56039 0.0
H2955 H 0.27473 0.64058 0.70825 0.0
H2956 H 0.26587 0.61616 0.68205 0.0
H2957 H 0.26926 0.66425 0.62167 0.0
H2958 H 0.27942 0.68827 0.64757 0.0
H2959 H 0.28435 0.62334 0.60842 0.0
H2960 H 0.22064 0.6625 0.6514 0.0
H2961 H 0.19752 0.6763 0.6869 0.0
H2962 H 0.20075 0.60854 0.71489 0.0
H2963 H 0.22417 0.59431 0.6797 0.0
C2964 C 0.23578 0.56638 0.55664 0.0
C2965 C 0.23866 0.54452 0.56785 0.0
C2966 C 0.23559 0.58413 0.56992 0.0
C2967 C 0.23846 0.5802 0.59452 0.0
C2968 C 0.2385 0.55908 0.60617 0.0
C2969 C 0.23853 0.54134 0.59292 0.0
C2970 C 0.24469 0.59674 0.6074 0.0
C2971 C 0.23243 0.60435 0.62818 0.0
C2972 C 0.26342 0.60402 0.59993 0.0
C2973 C 0.27742 0.59611 0.57846 0.0
C2974 C 0.28734 0.57313 0.57682 0.0
C2975 C 0.30019 0.56581 0.55635 0.0
C2976 C 0.30344 0.58132 0.53751 0.0
C2977 C 0.29387 0.60419 0.53909 0.0
C2978 C 0.28093 0.61162 0.55949 0.0
C2979 C 0.27429 0.64571 0.68929 0.0
C2980 C 0.27755 0.66656 0.68008 0.0
C2981 C 0.26885 0.63186 0.67438 0.0
C2982 C 0.26619 0.63874 0.65007 0.0
C2983 C 0.27089 0.65878 0.64046 0.0
C2984 C 0.27658 0.67254 0.65532 0.0
C2985 C 0.25776 0.6254 0.63494 0.0
C2986 C 0.26962 0.61837 0.61372 0.0
C2987 C 0.23854 0.61887 0.64188 0.0
C2988 C 0.2243 0.62734 0.66299 0.0
C2989 C 0.21653 0.65054 0.66519 0.0
C2990 C 0.20336 0.65844 0.68525 0.0
C2991 C 0.1977 0.64331 0.70316 0.0
C2992 C 0.20516 0.62024 0.70101 0.0
C2993 C 0.21837 0.61225 0.681 0.0
H2994 H 0.1875 0.64945 0.71868 0.0
H2995 H 0.31349 0.57564 0.52175 0.0
loop_
_geom_bond_atom_site_label_1
_geom_bond_atom_site_label_2
_geom_bond_distance
_geom_bond_site_symmetry_2
_ccdc_geom_bond_type
Cu0 N1 2.011 . S
Cu0 O6 1.966 1_545 S
Cu0 N11 1.973 1_545 S
Cu0 O20 1.967 . S
N1 Cu0 2.011 . S
N1 C3 1.263 . S
N1 C5 1.389 . S
N2 C3 1.358 . S
N2 C4 1.400 . S
C3 N1 1.263 . S
C3 N2 1.358 . S
C3 H9 0.930 . S
C4 N2 1.400 . S
C4 C5 1.351 . S
C4 H21 0.930 . S
C5 N1 1.389 . S
C5 C4 1.351 . S
C5 H10 0.930 . S
O6 Cu0 1.966 1_565 S
O6 C16 1.282 . S
C7 O8 1.261 1_655 S
C7 O20 1.251 1_655 S
O8 C7 1.261 1_455 S
H9 C3 0.930 . S
H10 C5 0.930 . S
N11 Cu0 1.973 1_565 S
N11 C13 1.335 1_455 S
N11 C14 1.390 . S
N12 C13 1.345 . S
N12 C15 1.336 1_655 S
C13 N11 1.335 1_655 S
C13 N12 1.345 . S
C13 H18 0.930 . S
C14 N11 1.390 . S
C14 C15 1.346 . S
C14 H19 0.930 . S
C15 N12 1.336 1_455 S
C15 C14 1.346 . S
C15 H22 0.929 . S
C16 O6 1.282 . S
C16 O17 1.216 . S
O17 C16 1.216 . S
H18 C13 0.930 . S
H19 C14 0.930 . S
O20 Cu0 1.967 . S
O20 C7 1.251 1_455 S
H21 C4 0.930 . S
H22 C15 0.929 . S
Cu23 N24 1.999 1_455 S
Cu23 O29 1.974 1_455 S
Cu23 N34 1.985 . S
Cu23 O43 1.959 . S
N24 Cu23 1.999 1_655 S
N24 C26 1.263 . S
N24 C28 1.389 1_645 S
N25 C26 1.358 1_565 S
N25 C27 1.400 . S
C26 N24 1.263 . S
C26 N25 1.358 1_545 S
C26 H32 0.930 . S
C27 N25 1.400 . S
C27 C28 1.351 1_655 S
C27 H44 0.930 . S
C28 N24 1.389 1_465 S
C28 C27 1.351 1_455 S
C28 H33 0.930 . S
O29 Cu23 1.974 1_655 S
O29 C39 1.282 . S
C30 O31 1.261 . S
C30 O43 1.251 . S
O31 C30 1.261 . S
H32 C26 0.930 . S
H33 C28 0.930 . S
N34 Cu23 1.985 . S
N34 C36 1.335 . S
N34 C37 1.390 . S
N35 C36 1.345 . S
N35 C38 1.336 . S
C36 N34 1.335 . S
C36 N35 1.345 . S
C36 H41 0.930 . S
C37 N34 1.390 . S
C37 C38 1.346 . S
C37 H42 0.930 . S
C38 N35 1.336 . S
C38 C37 1.346 . S
C38 H45 0.929 . S
C39 O29 1.282 . S
C39 O40 1.216 . S
O40 C39 1.216 . S
H41 C36 0.930 . S
H42 C37 0.930 . S
O43 Cu23 1.959 . S
O43 C30 1.251 . S
H44 C27 0.930 . S
H45 C38 0.929 . S
Cu46 N47 1.999 . S
Cu46 O52 1.974 . S
Cu46 N57 1.985 . S
Cu46 O66 1.959 . S
N47 Cu46 1.999 . S
N47 C49 1.263 1_545 S
N47 C51 1.389 . S
N48 C49 1.358 . S
N48 C50 1.400 . S
C49 N47 1.263 1_565 S
C49 N48 1.358 . S
C49 H55 0.930 . S
C50 N48 1.400 . S
C50 C51 1.351 1_565 S
C50 H67 0.930 1_554 S
C51 N47 1.389 . S
C51 C50 1.351 1_545 S
C51 H56 0.930 . S
O52 Cu46 1.974 . S
O52 C62 1.282 . S
C53 O54 1.261 . S
C53 O66 1.251 . S
O54 C53 1.261 . S
H55 C49 0.930 . S
H56 C51 0.930 . S
N57 Cu46 1.985 . S
N57 C59 1.335 . S
N57 C60 1.390 . S
N58 C59 1.345 . S
N58 C61 1.336 . S
C59 N57 1.335 . S
C59 N58 1.345 . S
C59 H64 0.930 . S
C60 N57 1.390 . S
C60 C61 1.346 . S
C60 H65 0.930 . S
C61 N58 1.336 . S
C61 C60 1.346 . S
C61 H68 0.929 . S
C62 O52 1.282 . S
C62 O63 1.216 . S
O63 C62 1.216 . S
H64 C59 0.930 . S
H65 C60 0.930 . S
O66 Cu46 1.959 . S
O66 C53 1.251 . S
H67 C50 0.930 1_556 S
H68 C61 0.929 . S
Cu69 N70 1.999 . S
Cu69 O75 1.974 . S
Cu69 N80 1.985 . S
Cu69 O89 1.959 . S
N70 Cu69 1.999 . S
N70 C72 1.263 . S
N70 C74 1.389 . S
N71 C72 1.358 . S
N71 C73 1.400 1_554 S
C72 N70 1.263 . S
C72 N71 1.358 . S
C72 H78 0.930 . S
C73 N71 1.400 1_556 S
C73 C74 1.351 1_556 S
C73 H90 0.930 . S
C74 N70 1.389 . S
C74 C73 1.351 1_554 S
C74 H79 0.945 . S
O75 Cu69 1.974 . S
O75 C85 1.282 . S
C76 O77 1.261 . S
C76 O89 1.251 . S
O77 C76 1.261 . S
H78 C72 0.930 . S
H79 C74 0.945 . S
N80 Cu69 1.985 . S
N80 C82 1.335 1_455 S
N80 C83 1.390 . S
N81 C82 1.345 . S
N81 C84 1.336 . S
C82 N80 1.335 1_655 S
C82 N81 1.345 . S
C82 H87 0.930 . S
C83 N80 1.390 . S
C83 C84 1.346 1_455 S
C83 H88 0.930 . S
C84 N81 1.336 . S
C84 C83 1.346 1_655 S
C84 H91 0.929 . S
C85 O75 1.282 . S
C85 O86 1.216 . S
O86 C85 1.216 . S
H87 C82 0.930 . S
H88 C83 0.930 . S
O89 Cu69 1.959 . S
O89 C76 1.251 . S
H90 C73 0.930 . S
H91 C84 0.929 . S
Cu92 N93 1.999 1_554 S
Cu92 O98 1.974 . S
Cu92 N103 1.985 1_545 S
Cu92 O112 1.959 1_544 S
N93 Cu92 1.999 1_556 S
N93 C95 1.263 . S
N93 C97 1.389 . S
N94 C95 1.358 . S
N94 C96 1.400 . S
C95 N93 1.263 . S
C95 N94 1.358 . S
C95 H101 0.930 . S
C96 N94 1.400 . S
C96 C97 1.351 . S
C96 H113 0.930 . S
C97 N93 1.389 . S
C97 C96 1.351 . S
C97 H102 0.930 . S
O98 Cu92 1.974 . S
O98 C108 1.282 . S
C99 O100 1.261 . S
C99 O112 1.251 . S
O100 C99 1.261 . S
H101 C95 0.930 . S
H102 C97 0.930 . S
N103 Cu92 1.985 1_565 S
N103 C105 1.335 . S
N103 C106 1.390 . S
N104 C105 1.345 . S
N104 C107 1.336 . S
C105 N103 1.335 . S
C105 N104 1.345 . S
C105 H110 0.930 . S
C106 N103 1.390 . S
C106 C107 1.346 . S
C106 H111 0.930 . S
C107 N104 1.336 . S
C107 C106 1.346 . S
C107 H114 0.929 . S
C108 O98 1.282 . S
C108 O109 1.216 . S
O109 C108 1.216 . S
H110 C105 0.930 . S
H111 C106 0.930 . S
O112 Cu92 1.959 1_566 S
O112 C99 1.251 . S
H113 C96 0.930 . S
H114 C107 0.929 . S
Cu115 N116 1.999 1_454 S
Cu115 O121 1.974 1_455 S
Cu115 N126 1.985 . S
Cu115 O135 1.959 1_554 S
N116 Cu115 1.999 1_656 S
N116 C118 1.263 . S
N116 C120 1.389 1_655 S
N117 C118 1.358 . S
N117 C119 1.400 . S
C118 N116 1.263 . S
C118 N117 1.358 . S
C118 H124 0.916 1_556 S
C119 N117 1.400 . S
C119 C120 1.351 1_655 S
C119 H136 0.930 . S
C120 N116 1.389 1_455 S
C120 C119 1.351 1_455 S
C120 H125 0.930 . S
O121 Cu115 1.974 1_655 S
O121 C131 1.282 . S
C122 O123 1.261 . S
C122 O135 1.251 . S
O123 C122 1.261 . S
H124 C118 0.916 1_554 S
H125 C120 0.930 . S
N126 Cu115 1.985 . S
N126 C128 1.335 . S
N126 C129 1.390 . S
N127 C128 1.345 . S
N127 C130 1.336 . S
C128 N126 1.335 . S
C128 N127 1.345 . S
C128 H133 0.930 . S
C129 N126 1.390 . S
C129 C130 1.346 . S
C129 H134 0.930 . S
C130 N127 1.336 . S
C130 C129 1.346 . S
C130 H137 0.929 . S
C131 O121 1.282 . S
C131 O132 1.216 . S
O132 C131 1.216 . S
H133 C128 0.930 . S
H134 C129 0.930 . S
O135 Cu115 1.959 1_556 S
O135 C122 1.251 . S
H136 C119 0.930 . S
H137 C130 0.929 . S
Cu138 N139 1.999 . S
Cu138 O144 1.974 . S
Cu138 N149 1.985 . S
Cu138 O158 1.959 . S
N139 Cu138 1.999 . S
N139 C141 1.263 . S
N139 C143 1.389 . S
N140 C141 1.358 . S
N140 C142 1.400 . S
C141 N139 1.263 . S
C141 N140 1.358 . S
C141 H147 0.930 . S
C142 N140 1.400 . S
C142 C143 1.351 . S
C142 H159 0.930 . S
C143 N139 1.389 . S
C143 C142 1.351 . S
C143 H148 0.930 . S
O144 Cu138 1.974 . S
O144 C154 1.282 . S
C145 O146 1.261 . S
C145 O158 1.251 . S
O146 C145 1.261 . S
H147 C141 0.930 . S
H148 C143 0.930 . S
N149 Cu138 1.985 . S
N149 C151 1.335 . S
N149 C152 1.390 . S
N150 C151 1.345 . S
N150 C153 1.336 . S
C151 N149 1.335 . S
C151 N150 1.345 . S
C151 H156 0.930 . S
C152 N149 1.390 . S
C152 C153 1.346 . S
C152 H157 0.930 . S
C153 N150 1.336 . S
C153 C152 1.346 . S
C153 H160 0.929 . S
C154 O144 1.282 . S
C154 O155 1.216 . S
O155 C154 1.216 . S
H156 C151 0.930 . S
H157 C152 0.930 . S
O158 Cu138 1.959 . S
O158 C145 1.251 . S
H159 C142 0.930 . S
H160 C153 0.929 . S
Cu161 N162 1.999 . S
Cu161 O167 1.974 . S
Cu161 N172 1.985 . S
Cu161 O181 1.959 . S
N162 Cu161 1.999 . S
N162 C164 1.263 . S
N162 C166 1.389 . S
N163 C164 1.358 . S
N163 C165 1.400 . S
C164 N162 1.263 . S
C164 N163 1.358 . S
C164 H170 0.930 . S
C165 N163 1.400 . S
C165 C166 1.351 . S
C165 H182 0.930 . S
C166 N162 1.389 . S
C166 C165 1.351 . S
C166 H171 0.930 . S
O167 Cu161 1.974 . S
O167 C177 1.282 . S
C168 O169 1.261 . S
C168 O181 1.251 . S
O169 C168 1.261 . S
H170 C164 0.930 . S
H171 C166 0.930 . S
N172 Cu161 1.985 . S
N172 C174 1.335 . S
N172 C175 1.390 . S
N173 C174 1.345 . S
N173 C176 1.336 . S
C174 N172 1.335 . S
C174 N173 1.345 . S
C174 H179 0.930 . S
C175 N172 1.390 . S
C175 C176 1.346 . S
C175 H180 0.930 . S
C176 N173 1.336 . S
C176 C175 1.346 . S
C176 H183 0.929 . S
C177 O167 1.282 . S
C177 O178 1.216 . S
O178 C177 1.216 . S
H179 C174 0.930 . S
H180 C175 0.930 . S
O181 Cu161 1.959 . S
O181 C168 1.251 . S
H182 C165 0.930 . S
H183 C176 0.929 . S
Cu184 N185 1.999 . S
Cu184 O190 1.974 . S
Cu184 N195 1.985 . S
Cu184 O204 1.959 . S
N185 Cu184 1.999 . S
N185 C187 1.263 . S
N185 C189 1.389 . S
N186 C187 1.358 . S
N186 C188 1.400 . S
C187 N185 1.263 . S
C187 N186 1.358 . S
C187 H193 0.930 . S
C188 N186 1.400 . S
C188 C189 1.351 . S
C188 H205 0.930 . S
C189 N185 1.389 . S
C189 C188 1.351 . S
C189 H194 0.930 . S
O190 Cu184 1.974 . S
O190 C200 1.282 . S
C191 O192 1.261 . S
C191 O204 1.251 . S
O192 C191 1.261 . S
H193 C187 0.930 . S
H194 C189 0.930 . S
N195 Cu184 1.985 . S
N195 C197 1.335 . S
N195 C198 1.390 . S
N196 C197 1.345 . S
N196 C199 1.336 . S
C197 N195 1.335 . S
C197 N196 1.345 . S
C197 H202 0.930 . S
C198 N195 1.390 . S
C198 C199 1.346 . S
C198 H203 0.930 . S
C199 N196 1.336 . S
C199 C198 1.346 . S
C199 H206 0.929 . S
C200 O190 1.282 . S
C200 O201 1.216 . S
O201 C200 1.216 . S
H202 C197 0.930 . S
H203 C198 0.930 . S
O204 Cu184 1.959 . S
O204 C191 1.251 . S
H205 C188 0.930 . S
H206 C199 0.929 . S
Cu207 N208 1.999 . S
Cu207 O213 1.974 . S
Cu207 N218 1.985 . S
Cu207 O227 1.959 . S
N208 Cu207 1.999 . S
N208 C210 1.263 . S
N208 C212 1.389 . S
N209 C210 1.358 . S
N209 C211 1.400 . S
C210 N208 1.263 . S
C210 N209 1.358 . S
C210 H216 0.930 . S
C211 N209 1.400 . S
C211 C212 1.351 . S
C211 H228 0.930 . S
C212 N208 1.389 . S
C212 C211 1.351 . S
C212 H217 0.930 . S
O213 Cu207 1.974 . S
O213 C223 1.282 . S
C214 O215 1.261 . S
C214 O227 1.251 . S
O215 C214 1.261 . S
H216 C210 0.930 . S
H217 C212 0.930 . S
N218 Cu207 1.985 . S
N218 C220 1.335 . S
N218 C221 1.390 . S
N219 C220 1.345 . S
N219 C222 1.336 . S
C220 N218 1.335 . S
C220 N219 1.345 . S
C220 H225 0.930 . S
C221 N218 1.390 . S
C221 C222 1.346 . S
C221 H226 0.930 . S
C222 N219 1.336 . S
C222 C221 1.346 . S
C222 H229 0.929 . S
C223 O213 1.282 . S
C223 O224 1.216 . S
O224 C223 1.216 . S
H225 C220 0.930 . S
H226 C221 0.930 . S
O227 Cu207 1.959 . S
O227 C214 1.251 . S
H228 C211 0.930 . S
H229 C222 0.929 . S
Cu230 N231 1.999 . S
Cu230 O236 1.974 . S
Cu230 N241 1.985 . S
Cu230 O250 1.959 . S
N231 Cu230 1.999 . S
N231 C233 1.263 . S
N231 C235 1.389 . S
N232 C233 1.358 . S
N232 C234 1.400 . S
C233 N231 1.263 . S
C233 N232 1.358 . S
C233 H239 0.930 . S
C234 N232 1.400 . S
C234 C235 1.351 . S
C234 H251 0.930 . S
C235 N231 1.389 . S
C235 C234 1.351 . S
C235 H240 0.930 . S
O236 Cu230 1.974 . S
O236 C246 1.282 . S
C237 O238 1.261 . S
C237 O250 1.251 . S
O238 C237 1.261 . S
H239 C233 0.930 . S
H240 C235 0.930 . S
N241 Cu230 1.985 . S
N241 C243 1.335 . S
N241 C244 1.390 . S
N242 C243 1.345 . S
N242 C245 1.336 . S
C243 N241 1.335 . S
C243 N242 1.345 . S
C243 H248 0.930 . S
C244 N241 1.390 . S
C244 C245 1.346 . S
C244 H249 0.930 . S
C245 N242 1.336 . S
C245 C244 1.346 . S
C245 H252 0.929 . S
C246 O236 1.282 . S
C246 O247 1.216 . S
O247 C246 1.216 . S
H248 C243 0.930 . S
H249 C244 0.930 . S
O250 Cu230 1.959 . S
O250 C237 1.251 . S
H251 C234 0.930 . S
H252 C245 0.929 . S
Cu253 N254 1.999 . S
Cu253 O259 1.974 . S
Cu253 N264 1.985 . S
Cu253 O273 1.959 . S
N254 Cu253 1.999 . S
N254 C256 1.263 . S
N254 C258 1.389 . S
N255 C256 1.358 . S
N255 C257 1.400 . S
C256 N254 1.263 . S
C256 N255 1.358 . S
C256 H262 0.930 . S
C257 N255 1.400 . S
C257 C258 1.351 . S
C257 H274 0.930 . S
C258 N254 1.389 . S
C258 C257 1.351 . S
C258 H263 0.930 . S
O259 Cu253 1.974 . S
O259 C269 1.282 . S
C260 O261 1.261 . S
C260 O273 1.251 . S
O261 C260 1.261 . S
H262 C256 0.930 . S
H263 C258 0.930 . S
N264 Cu253 1.985 . S
N264 C266 1.335 . S
N264 C267 1.390 . S
N265 C266 1.345 . S
N265 C268 1.336 . S
C266 N264 1.335 . S
C266 N265 1.345 . S
C266 H271 0.930 . S
C267 N264 1.390 . S
C267 C268 1.346 . S
C267 H272 0.930 . S
C268 N265 1.336 . S
C268 C267 1.346 . S
C268 H275 0.929 . S
C269 O259 1.282 . S
C269 O270 1.216 . S
O270 C269 1.216 . S
H271 C266 0.930 . S
H272 C267 0.930 . S
O273 Cu253 1.959 . S
O273 C260 1.251 . S
H274 C257 0.930 . S
H275 C268 0.929 . S
Sm276 C278 2.846 . S
Sm276 O296 2.543 . S
Sm276 O297 2.450 . S
Sm276 O298 2.681 . S
Sm276 O299 2.464 . S
Sm276 O300 2.396 . S
Sm276 O304 2.386 . S
Sm276 O307 2.408 . S
Sm277 C287 2.846 . S
Sm277 O298 2.386 . S
Sm277 O301 2.408 . S
Sm277 O302 2.543 . S
Sm277 O303 2.450 . S
Sm277 O304 2.681 . S
Sm277 O305 2.464 . S
Sm277 O306 2.396 . S
C278 Sm276 2.846 . S
C278 C279 1.506 . S
C278 O296 1.261 . S
C278 O297 1.242 . S
C279 C278 1.506 . S
C279 C280 1.358 . S
C279 C284 1.382 . S
C280 C279 1.358 . S
C280 C281 1.385 . S
C280 H308 0.930 . S
C281 C280 1.385 . S
C281 C282 1.395 . S
C281 H309 0.929 . S
C282 C281 1.395 . S
C282 C283 1.335 . S
C283 C282 1.335 . S
C283 C284 1.398 . S
C283 H310 0.930 . S
C284 C279 1.382 . S
C284 C283 1.398 . S
C284 H311 0.929 . S
C285 O298 1.271 . S
C285 O299 1.251 . S
C286 O300 1.252 . S
C286 O301 1.272 . S
C287 Sm277 2.846 . S
C287 C288 1.506 . S
C287 O302 1.261 . S
C287 O303 1.242 . S
C288 C287 1.506 . S
C288 C289 1.358 . S
C288 C293 1.382 . S
C289 C288 1.358 . S
C289 C290 1.385 . S
C289 H312 0.930 . S
C290 C289 1.385 . S
C290 C291 1.395 . S
C290 H313 0.929 . S
C291 C290 1.395 . S
C291 C292 1.335 . S
C292 C291 1.335 . S
C292 C293 1.398 . S
C292 H314 0.930 . S
C293 C288 1.382 . S
C293 C292 1.398 . S
C293 H315 0.929 . S
C294 O304 1.271 . S
C294 O305 1.251 . S
C295 O306 1.252 . S
C295 O307 1.272 . S
O296 Sm276 2.543 . S
O296 C278 1.261 . S
O297 Sm276 2.450 . S
O297 C278 1.242 . S
O298 Sm276 2.681 . S
O298 Sm277 2.386 . S
O298 C285 1.271 . S
O299 Sm276 2.464 . S
O299 C285 1.251 . S
O300 Sm276 2.396 . S
O300 C286 1.252 . S
O301 Sm277 2.408 . S
O301 C286 1.272 . S
O302 Sm277 2.543 . S
O302 C287 1.261 . S
O303 Sm277 2.450 . S
O303 C287 1.242 . S
O304 Sm276 2.386 . S
O304 Sm277 2.681 . S
O304 C294 1.271 . S
O305 Sm277 2.464 . S
O305 C294 1.251 . S
O306 Sm277 2.396 . S
O306 C295 1.252 . S
O307 Sm276 2.408 . S
O307 C295 1.272 . S
H308 C280 0.930 . S
H309 C281 0.929 . S
H310 C283 0.930 . S
H311 C284 0.929 . S
H312 C289 0.930 . S
H313 C290 0.929 . S
H314 C292 0.930 . S
H315 C293 0.929 . S
Sm316 C318 2.846 . S
Sm316 O336 2.543 . S
Sm316 O337 2.450 . S
Sm316 O338 2.681 . S
Sm316 O339 2.464 . S
Sm316 O340 2.396 . S
Sm316 O344 2.386 . S
Sm316 O347 2.408 . S
Sm317 C327 2.846 . S
Sm317 O338 2.386 . S
Sm317 O341 2.408 . S
Sm317 O342 2.543 . S
Sm317 O343 2.450 . S
Sm317 O344 2.681 . S
Sm317 O345 2.464 . S
Sm317 O346 2.396 . S
C318 Sm316 2.846 . S
C318 C319 1.506 . S
C318 O336 1.261 . S
C318 O337 1.242 . S
C319 C318 1.506 . S
C319 C320 1.358 . S
C319 C324 1.382 . S
C320 C319 1.358 . S
C320 C321 1.385 . S
C320 H348 0.930 . S
C321 C320 1.385 . S
C321 C322 1.395 . S
C321 H349 0.929 . S
C322 C321 1.395 . S
C322 C323 1.335 . S
C323 C322 1.335 . S
C323 C324 1.398 . S
C323 H350 0.930 . S
C324 C319 1.382 . S
C324 C323 1.398 . S
C324 H351 0.929 . S
C325 O338 1.271 . S
C325 O339 1.251 . S
C326 O340 1.252 . S
C326 O341 1.272 . S
C327 Sm317 2.846 . S
C327 C328 1.506 . S
C327 O342 1.261 . S
C327 O343 1.242 . S
C328 C327 1.506 . S
C328 C329 1.358 . S
C328 C333 1.382 . S
C329 C328 1.358 . S
C329 C330 1.385 . S
C329 H352 0.930 . S
C330 C329 1.385 . S
C330 C331 1.395 . S
C330 H353 0.929 . S
C331 C330 1.395 . S
C331 C332 1.335 . S
C332 C331 1.335 . S
C332 C333 1.398 . S
C332 H354 0.930 . S
C333 C328 1.382 . S
C333 C332 1.398 . S
C333 H355 0.929 . S
C334 O344 1.271 . S
C334 O345 1.251 . S
C335 O346 1.252 . S
C335 O347 1.272 . S
O336 Sm316 2.543 . S
O336 C318 1.261 . S
O337 Sm316 2.450 . S
O337 C318 1.242 . S
O338 Sm316 2.681 . S
O338 Sm317 2.386 . S
O338 C325 1.271 . S
O339 Sm316 2.464 . S
O339 C325 1.251 . S
O340 Sm316 2.396 . S
O340 C326 1.252 . S
O341 Sm317 2.408 . S
O341 C326 1.272 . S
O342 Sm317 2.543 . S
O342 C327 1.261 . S
O343 Sm317 2.450 . S
O343 C327 1.242 . S
O344 Sm316 2.386 . S
O344 Sm317 2.681 . S
O344 C334 1.271 . S
O345 Sm317 2.464 . S
O345 C334 1.251 . S
O346 Sm317 2.396 . S
O346 C335 1.252 . S
O347 Sm316 2.408 . S
O347 C335 1.272 . S
H348 C320 0.930 . S
H349 C321 0.929 . S
H350 C323 0.930 . S
H351 C324 0.929 . S
H352 C329 0.930 . S
H353 C330 0.929 . S
H354 C332 0.930 . S
H355 C333 0.929 . S
Sm356 C358 2.846 . S
Sm356 O376 2.543 . S
Sm356 O377 2.450 . S
Sm356 O378 2.681 . S
Sm356 O379 2.464 . S
Sm356 O380 2.396 . S
Sm356 O384 2.386 . S
Sm356 O387 2.408 . S
Sm357 C367 2.846 . S
Sm357 O378 2.386 . S
Sm357 O381 2.408 . S
Sm357 O382 2.543 . S
Sm357 O383 2.450 . S
Sm357 O384 2.681 . S
Sm357 O385 2.464 . S
Sm357 O386 2.396 . S
C358 Sm356 2.846 . S
C358 C359 1.506 . S
C358 O376 1.261 . S
C358 O377 1.242 . S
C359 C358 1.506 . S
C359 C360 1.358 . S
C359 C364 1.382 . S
C360 C359 1.358 . S
C360 C361 1.385 . S
C360 H388 0.930 . S
C361 C360 1.385 . S
C361 C362 1.395 . S
C361 H389 0.929 . S
C362 C361 1.395 . S
C362 C363 1.335 . S
C363 C362 1.335 . S
C363 C364 1.398 . S
C363 H390 0.930 . S
C364 C359 1.382 . S
C364 C363 1.398 . S
C364 H391 0.929 . S
C365 O378 1.271 . S
C365 O379 1.251 . S
C366 O380 1.252 . S
C366 O381 1.272 . S
C367 Sm357 2.846 . S
C367 C368 1.506 . S
C367 O382 1.261 . S
C367 O383 1.242 . S
C368 C367 1.506 . S
C368 C369 1.358 . S
C368 C373 1.382 . S
C369 C368 1.358 . S
C369 C370 1.385 . S
C369 H392 0.930 . S
C370 C369 1.385 . S
C370 C371 1.395 . S
C370 H393 0.929 . S
C371 C370 1.395 . S
C371 C372 1.335 . S
C372 C371 1.335 . S
C372 C373 1.398 . S
C372 H394 0.930 . S
C373 C368 1.382 . S
C373 C372 1.398 . S
C373 H395 0.929 . S
C374 O384 1.271 . S
C374 O385 1.251 . S
C375 O386 1.252 . S
C375 O387 1.272 . S
O376 Sm356 2.543 . S
O376 C358 1.261 . S
O377 Sm356 2.450 . S
O377 C358 1.242 . S
O378 Sm356 2.681 . S
O378 Sm357 2.386 . S
O378 C365 1.271 . S
O379 Sm356 2.464 . S
O379 C365 1.251 . S
O380 Sm356 2.396 . S
O380 C366 1.252 . S
O381 Sm357 2.408 . S
O381 C366 1.272 . S
O382 Sm357 2.543 . S
O382 C367 1.261 . S
O383 Sm357 2.450 . S
O383 C367 1.242 . S
O384 Sm356 2.386 . S
O384 Sm357 2.681 . S
O384 C374 1.271 . S
O385 Sm357 2.464 . S
O385 C374 1.251 . S
O386 Sm357 2.396 . S
O386 C375 1.252 . S
O387 Sm356 2.408 . S
O387 C375 1.272 . S
H388 C360 0.930 . S
H389 C361 0.929 . S
H390 C363 0.930 . S
H391 C364 0.929 . S
H392 C369 0.930 . S
H393 C370 0.929 . S
H394 C372 0.930 . S
H395 C373 0.929 . S
Sm396 C398 2.846 . S
Sm396 O416 2.543 . S
Sm396 O417 2.450 . S
Sm396 O418 2.681 . S
Sm396 O419 2.464 . S
Sm396 O420 2.396 . S
Sm396 O424 2.386 . S
Sm396 O427 2.408 . S
Sm397 C407 2.846 . S
Sm397 O418 2.386 . S
Sm397 O421 2.408 . S
Sm397 O422 2.543 . S
Sm397 O423 2.450 . S
Sm397 O424 2.681 . S
Sm397 O425 2.464 . S
Sm397 O426 2.396 . S
C398 Sm396 2.846 . S
C398 C399 1.506 . S
C398 O416 1.261 . S
C398 O417 1.242 . S
C399 C398 1.506 . S
C399 C400 1.358 . S
C399 C404 1.382 . S
C400 C399 1.358 . S
C400 C401 1.385 . S
C400 H428 0.930 . S
C401 C400 1.385 . S
C401 C402 1.395 . S
C401 H429 0.929 . S
C402 C401 1.395 . S
C402 C403 1.335 . S
C403 C402 1.335 . S
C403 C404 1.398 . S
C403 H430 0.930 . S
C404 C399 1.382 . S
C404 C403 1.398 . S
C404 H431 0.929 . S
C405 O418 1.271 . S
C405 O419 1.251 . S
C406 O420 1.252 . S
C406 O421 1.272 . S
C407 Sm397 2.846 . S
C407 C408 1.506 . S
C407 O422 1.261 . S
C407 O423 1.242 . S
C408 C407 1.506 . S
C408 C409 1.358 . S
C408 C413 1.382 . S
C409 C408 1.358 . S
C409 C410 1.385 . S
C409 H432 0.930 . S
C410 C409 1.385 . S
C410 C411 1.395 . S
C410 H433 0.929 . S
C411 C410 1.395 . S
C411 C412 1.335 . S
C412 C411 1.335 . S
C412 C413 1.398 . S
C412 H434 0.930 . S
C413 C408 1.382 . S
C413 C412 1.398 . S
C413 H435 0.929 . S
C414 O424 1.271 . S
C414 O425 1.251 . S
C415 O426 1.252 . S
C415 O427 1.272 . S
O416 Sm396 2.543 . S
O416 C398 1.261 . S
O417 Sm396 2.450 . S
O417 C398 1.242 . S
O418 Sm396 2.681 . S
O418 Sm397 2.386 . S
O418 C405 1.271 . S
O419 Sm396 2.464 . S
O419 C405 1.251 . S
O420 Sm396 2.396 . S
O420 C406 1.252 . S
O421 Sm397 2.408 . S
O421 C406 1.272 . S
O422 Sm397 2.543 . S
O422 C407 1.261 . S
O423 Sm397 2.450 . S
O423 C407 1.242 . S
O424 Sm396 2.386 . S
O424 Sm397 2.681 . S
O424 C414 1.271 . S
O425 Sm397 2.464 . S
O425 C414 1.251 . S
O426 Sm397 2.396 . S
O426 C415 1.252 . S
O427 Sm396 2.408 . S
O427 C415 1.272 . S
H428 C400 0.930 . S
H429 C401 0.929 . S
H430 C403 0.930 . S
H431 C404 0.929 . S
H432 C409 0.930 . S
H433 C410 0.929 . S
H434 C412 0.930 . S
H435 C413 0.929 . S
Sm436 C438 2.846 . S
Sm436 O456 2.543 . S
Sm436 O457 2.450 . S
Sm436 O458 2.681 . S
Sm436 O459 2.464 . S
Sm436 O460 2.396 . S
Sm436 O464 2.386 . S
Sm436 O467 2.408 . S
Sm437 C447 2.846 . S
Sm437 O458 2.386 . S
Sm437 O461 2.408 . S
Sm437 O462 2.543 . S
Sm437 O463 2.450 . S
Sm437 O464 2.681 . S
Sm437 O465 2.464 . S
Sm437 O466 2.396 . S
C438 Sm436 2.846 . S
C438 C439 1.506 . S
C438 O456 1.261 . S
C438 O457 1.242 . S
C439 C438 1.506 . S
C439 C440 1.358 . S
C439 C444 1.382 . S
C440 C439 1.358 . S
C440 C441 1.385 . S
C440 H468 0.930 . S
C441 C440 1.385 . S
C441 C442 1.395 . S
C441 H469 0.929 . S
C442 C441 1.395 . S
C442 C443 1.335 . S
C443 C442 1.335 . S
C443 C444 1.398 . S
C443 H470 0.930 . S
C444 C439 1.382 . S
C444 C443 1.398 . S
C444 H471 0.929 . S
C445 O458 1.271 . S
C445 O459 1.251 . S
C446 O460 1.252 . S
C446 O461 1.272 . S
C447 Sm437 2.846 . S
C447 C448 1.506 . S
C447 O462 1.261 . S
C447 O463 1.242 . S
C448 C447 1.506 . S
C448 C449 1.358 . S
C448 C453 1.382 . S
C449 C448 1.358 . S
C449 C450 1.385 . S
C449 H472 0.930 . S
C450 C449 1.385 . S
C450 C451 1.395 . S
C450 H473 0.929 . S
C451 C450 1.395 . S
C451 C452 1.335 . S
C452 C451 1.335 . S
C452 C453 1.398 . S
C452 H474 0.930 . S
C453 C448 1.382 . S
C453 C452 1.398 . S
C453 H475 0.929 . S
C454 O464 1.271 . S
C454 O465 1.251 . S
C455 O466 1.252 . S
C455 O467 1.272 . S
O456 Sm436 2.543 . S
O456 C438 1.261 . S
O457 Sm436 2.450 . S
O457 C438 1.242 . S
O458 Sm436 2.681 . S
O458 Sm437 2.386 . S
O458 C445 1.271 . S
O459 Sm436 2.464 . S
O459 C445 1.251 . S
O460 Sm436 2.396 . S
O460 C446 1.252 . S
O461 Sm437 2.408 . S
O461 C446 1.272 . S
O462 Sm437 2.543 . S
O462 C447 1.261 . S
O463 Sm437 2.450 . S
O463 C447 1.242 . S
O464 Sm436 2.386 . S
O464 Sm437 2.681 . S
O464 C454 1.271 . S
O465 Sm437 2.464 . S
O465 C454 1.251 . S
O466 Sm437 2.396 . S
O466 C455 1.252 . S
O467 Sm436 2.408 . S
O467 C455 1.272 . S
H468 C440 0.930 . S
H469 C441 0.929 . S
H470 C443 0.930 . S
H471 C444 0.929 . S
H472 C449 0.930 . S
H473 C450 0.929 . S
H474 C452 0.930 . S
H475 C453 0.929 . S
Sm476 C478 2.846 . S
Sm476 O496 2.543 . S
Sm476 O497 2.450 . S
Sm476 O498 2.681 . S
Sm476 O499 2.464 . S
Sm476 O500 2.396 . S
Sm476 O504 2.386 . S
Sm476 O507 2.408 . S
Sm477 C487 2.846 . S
Sm477 O498 2.386 . S
Sm477 O501 2.408 . S
Sm477 O502 2.543 . S
Sm477 O503 2.450 . S
Sm477 O504 2.681 . S
Sm477 O505 2.464 . S
Sm477 O506 2.396 . S
C478 Sm476 2.846 . S
C478 C479 1.506 . S
C478 O496 1.261 . S
C478 O497 1.242 . S
C479 C478 1.506 . S
C479 C480 1.358 . S
C479 C484 1.382 . S
C480 C479 1.358 . S
C480 C481 1.385 . S
C480 H508 0.930 . S
C481 C480 1.385 . S
C481 C482 1.395 . S
C481 H509 0.929 . S
C482 C481 1.395 . S
C482 C483 1.335 . S
C483 C482 1.335 . S
C483 C484 1.398 . S
C483 H510 0.930 . S
C484 C479 1.382 . S
C484 C483 1.398 . S
C484 H511 0.929 . S
C485 O498 1.271 . S
C485 O499 1.251 . S
C486 O500 1.252 . S
C486 O501 1.272 . S
C487 Sm477 2.846 . S
C487 C488 1.506 . S
C487 O502 1.261 . S
C487 O503 1.242 . S
C488 C487 1.506 . S
C488 C489 1.358 . S
C488 C493 1.382 . S
C489 C488 1.358 . S
C489 C490 1.385 . S
C489 H512 0.930 . S
C490 C489 1.385 . S
C490 C491 1.395 . S
C490 H513 0.929 . S
C491 C490 1.395 . S
C491 C492 1.335 . S
C492 C491 1.335 . S
C492 C493 1.398 . S
C492 H514 0.930 . S
C493 C488 1.382 . S
C493 C492 1.398 . S
C493 H515 0.929 . S
C494 O504 1.271 . S
C494 O505 1.251 . S
C495 O506 1.252 . S
C495 O507 1.272 . S
O496 Sm476 2.543 . S
O496 C478 1.261 . S
O497 Sm476 2.450 . S
O497 C478 1.242 . S
O498 Sm476 2.681 . S
O498 Sm477 2.386 . S
O498 C485 1.271 . S
O499 Sm476 2.464 . S
O499 C485 1.251 . S
O500 Sm476 2.396 . S
O500 C486 1.252 . S
O501 Sm477 2.408 . S
O501 C486 1.272 . S
O502 Sm477 2.543 . S
O502 C487 1.261 . S
O503 Sm477 2.450 . S
O503 C487 1.242 . S
O504 Sm476 2.386 . S
O504 Sm477 2.681 . S
O504 C494 1.271 . S
O505 Sm477 2.464 . S
O505 C494 1.251 . S
O506 Sm477 2.396 . S
O506 C495 1.252 . S
O507 Sm476 2.408 . S
O507 C495 1.272 . S
H508 C480 0.930 . S
H509 C481 0.929 . S
H510 C483 0.930 . S
H511 C484 0.929 . S
H512 C489 0.930 . S
H513 C490 0.929 . S
H514 C492 0.930 . S
H515 C493 0.929 . S
Sm516 C518 2.846 . S
Sm516 O536 2.543 . S
Sm516 O537 2.450 . S
Sm516 O538 2.681 . S
Sm516 O539 2.464 . S
Sm516 O540 2.396 . S
Sm516 O544 2.386 . S
Sm516 O547 2.408 . S
Sm517 C527 2.846 . S
Sm517 O538 2.386 . S
Sm517 O541 2.408 . S
Sm517 O542 2.543 . S
Sm517 O543 2.450 . S
Sm517 O544 2.681 . S
Sm517 O545 2.464 . S
Sm517 O546 2.396 . S
C518 Sm516 2.846 . S
C518 C519 1.506 . S
C518 O536 1.261 . S
C518 O537 1.242 . S
C519 C518 1.506 . S
C519 C520 1.358 . S
C519 C524 1.382 . S
C520 C519 1.358 . S
C520 C521 1.385 . S
C520 H548 0.930 . S
C521 C520 1.385 . S
C521 C522 1.395 . S
C521 H549 0.929 . S
C522 C521 1.395 . S
C522 C523 1.335 . S
C523 C522 1.335 . S
C523 C524 1.398 . S
C523 H550 0.930 . S
C524 C519 1.382 . S
C524 C523 1.398 . S
C524 H551 0.929 . S
C525 O538 1.271 . S
C525 O539 1.251 . S
C526 O540 1.252 . S
C526 O541 1.272 . S
C527 Sm517 2.846 . S
C527 C528 1.506 . S
C527 O542 1.261 . S
C527 O543 1.242 . S
C528 C527 1.506 . S
C528 C529 1.358 . S
C528 C533 1.382 . S
C529 C528 1.358 . S
C529 C530 1.385 . S
C529 H552 0.930 . S
C530 C529 1.385 . S
C530 C531 1.395 . S
C530 H553 0.929 . S
C531 C530 1.395 . S
C531 C532 1.335 . S
C532 C531 1.335 . S
C532 C533 1.398 . S
C532 H554 0.930 . S
C533 C528 1.382 . S
C533 C532 1.398 . S
C533 H555 0.929 . S
C534 O544 1.271 . S
C534 O545 1.251 . S
C535 O546 1.252 . S
C535 O547 1.272 . S
O536 Sm516 2.543 . S
O536 C518 1.261 . S
O537 Sm516 2.450 . S
O537 C518 1.242 . S
O538 Sm516 2.681 . S
O538 Sm517 2.386 . S
O538 C525 1.271 . S
O539 Sm516 2.464 . S
O539 C525 1.251 . S
O540 Sm516 2.396 . S
O540 C526 1.252 . S
O541 Sm517 2.408 . S
O541 C526 1.272 . S
O542 Sm517 2.543 . S
O542 C527 1.261 . S
O543 Sm517 2.450 . S
O543 C527 1.242 . S
O544 Sm516 2.386 . S
O544 Sm517 2.681 . S
O544 C534 1.271 . S
O545 Sm517 2.464 . S
O545 C534 1.251 . S
O546 Sm517 2.396 . S
O546 C535 1.252 . S
O547 Sm516 2.408 . S
O547 C535 1.272 . S
H548 C520 0.930 . S
H549 C521 0.929 . S
H550 C523 0.930 . S
H551 C524 0.929 . S
H552 C529 0.930 . S
H553 C530 0.929 . S
H554 C532 0.930 . S
H555 C533 0.929 . S
Sm556 C558 2.846 . S
Sm556 O576 2.543 . S
Sm556 O577 2.450 . S
Sm556 O578 2.681 . S
Sm556 O579 2.464 . S
Sm556 O580 2.396 . S
Sm556 O584 2.386 . S
Sm556 O587 2.408 . S
Sm557 C567 2.846 . S
Sm557 O578 2.386 . S
Sm557 O581 2.408 . S
Sm557 O582 2.543 . S
Sm557 O583 2.450 . S
Sm557 O584 2.681 . S
Sm557 O585 2.464 . S
Sm557 O586 2.396 . S
C558 Sm556 2.846 . S
C558 C559 1.506 . S
C558 O576 1.261 . S
C558 O577 1.242 . S
C559 C558 1.506 . S
C559 C560 1.358 . S
C559 C564 1.382 . S
C560 C559 1.358 . S
C560 C561 1.385 . S
C560 H588 0.930 . S
C561 C560 1.385 . S
C561 C562 1.395 . S
C561 H589 0.929 . S
C562 C561 1.395 . S
C562 C563 1.335 . S
C563 C562 1.335 . S
C563 C564 1.398 . S
C563 H590 0.930 . S
C564 C559 1.382 . S
C564 C563 1.398 . S
C564 H591 0.929 . S
C565 O578 1.271 . S
C565 O579 1.251 . S
C566 O580 1.252 . S
C566 O581 1.272 . S
C567 Sm557 2.846 . S
C567 C568 1.506 . S
C567 O582 1.261 . S
C567 O583 1.242 . S
C568 C567 1.506 . S
C568 C569 1.358 . S
C568 C573 1.382 . S
C569 C568 1.358 . S
C569 C570 1.385 . S
C569 H592 0.930 . S
C570 C569 1.385 . S
C570 C571 1.395 . S
C570 H593 0.929 . S
C571 C570 1.395 . S
C571 C572 1.335 . S
C572 C571 1.335 . S
C572 C573 1.398 . S
C572 H594 0.930 . S
C573 C568 1.382 . S
C573 C572 1.398 . S
C573 H595 0.929 . S
C574 O584 1.271 . S
C574 O585 1.251 . S
C575 O586 1.252 . S
C575 O587 1.272 . S
O576 Sm556 2.543 . S
O576 C558 1.261 . S
O577 Sm556 2.450 . S
O577 C558 1.242 . S
O578 Sm556 2.681 . S
O578 Sm557 2.386 . S
O578 C565 1.271 . S
O579 Sm556 2.464 . S
O579 C565 1.251 . S
O580 Sm556 2.396 . S
O580 C566 1.252 . S
O581 Sm557 2.408 . S
O581 C566 1.272 . S
O582 Sm557 2.543 . S
O582 C567 1.261 . S
O583 Sm557 2.450 . S
O583 C567 1.242 . S
O584 Sm556 2.386 . S
O584 Sm557 2.681 . S
O584 C574 1.271 . S
O585 Sm557 2.464 . S
O585 C574 1.251 . S
O586 Sm557 2.396 . S
O586 C575 1.252 . S
O587 Sm556 2.408 . S
O587 C575 1.272 . S
H588 C560 0.930 . S
H589 C561 0.929 . S
H590 C563 0.930 . S
H591 C564 0.929 . S
H592 C569 0.930 . S
H593 C570 0.929 . S
H594 C572 0.930 . S
H595 C573 0.929 . S
H596 C614 0.951 . S
H597 C616 0.951 . S
H598 C618 0.950 . S
H599 C619 0.950 . S
H600 C621 0.950 . S
H601 C624 0.950 . S
H602 C625 0.950 . S
H603 C627 0.950 . S
H604 C628 0.950 . S
H605 C629 0.951 . S
H606 C631 0.951 . S
H607 C633 0.950 . S
H608 C634 0.950 . S
H609 C636 0.950 . S
H610 C639 0.950 . S
H611 C640 0.950 . S
H612 C642 0.950 . S
H613 C643 0.950 . S
C614 H596 0.951 . S
C614 C615 1.366 . S
C614 C616 1.388 . S
C615 C614 1.366 . S
C615 C619 1.385 . S
C616 H597 0.951 . S
C616 C614 1.388 . S
C616 C617 1.366 . S
C617 C616 1.366 . S
C617 C618 1.414 . S
C617 C620 1.499 . S
C618 H598 0.950 . S
C618 C617 1.414 . S
C618 C619 1.374 . S
C619 H599 0.950 . S
C619 C615 1.385 . S
C619 C618 1.374 . S
C620 C617 1.499 . S
C620 C621 1.373 . S
C620 C622 1.389 . S
C621 H600 0.950 . S
C621 C620 1.373 . S
C621 C637 1.377 . S
C622 C620 1.389 . S
C622 C623 1.524 . S
C622 C636 1.377 . S
C623 C622 1.524 . S
C623 C624 1.397 . S
C623 C628 1.363 . S
C624 H601 0.950 . S
C624 C623 1.397 . S
C624 C625 1.334 . S
C625 H602 0.950 . S
C625 C624 1.334 . S
C625 C626 1.287 . S
C626 C625 1.287 . S
C626 C627 1.524 . S
C626 H645 0.913 . S
C627 H603 0.950 . S
C627 C626 1.524 . S
C627 C628 1.415 . S
C628 H604 0.950 . S
C628 C623 1.363 . S
C628 C627 1.415 . S
C629 H605 0.951 . S
C629 C630 1.366 . S
C629 C631 1.388 . S
C630 C629 1.366 . S
C630 C634 1.385 . S
C631 H606 0.951 . S
C631 C629 1.388 . S
C631 C632 1.366 . S
C632 C631 1.366 . S
C632 C633 1.414 . S
C632 C635 1.499 . S
C633 H607 0.950 . S
C633 C632 1.414 . S
C633 C634 1.374 . S
C634 H608 0.950 . S
C634 C630 1.385 . S
C634 C633 1.374 . S
C635 C632 1.499 . S
C635 C636 1.373 . S
C635 C637 1.389 . S
C636 H609 0.950 . S
C636 C622 1.377 . S
C636 C635 1.373 . S
C637 C621 1.377 . S
C637 C635 1.389 . S
C637 C638 1.524 . S
C638 C637 1.524 . S
C638 C639 1.397 . S
C638 C643 1.363 . S
C639 H610 0.950 . S
C639 C638 1.397 . S
C639 C640 1.334 . S
C640 H611 0.950 . S
C640 C639 1.334 . S
C640 C641 1.287 . S
C641 C640 1.287 . S
C641 C642 1.524 . S
C641 H644 0.999 . S
C642 H612 0.950 . S
C642 C641 1.524 . S
C642 C643 1.415 . S
C643 H613 0.950 . S
C643 C638 1.363 . S
C643 C642 1.415 . S
H644 C641 0.999 . S
H645 C626 0.913 . S
H646 C664 0.951 . S
H647 C666 0.951 . S
H648 C668 0.950 . S
H649 C669 0.950 . S
H650 C671 0.950 . S
H651 C674 0.950 . S
H652 C675 0.950 . S
H653 C677 0.950 . S
H654 C678 0.950 . S
H655 C679 0.951 . S
H656 C681 0.951 . S
H657 C683 0.950 . S
H658 C684 0.950 . S
H659 C686 0.950 . S
H660 C689 0.950 . S
H661 C690 0.950 . S
H662 C692 0.950 . S
H663 C693 0.950 . S
C664 H646 0.951 . S
C664 C665 1.366 . S
C664 C666 1.388 . S
C665 C664 1.366 . S
C665 C669 1.385 . S
C666 H647 0.951 . S
C666 C664 1.388 . S
C666 C667 1.366 . S
C667 C666 1.366 . S
C667 C668 1.414 . S
C667 C670 1.499 . S
C668 H648 0.950 . S
C668 C667 1.414 . S
C668 C669 1.374 . S
C669 H649 0.950 . S
C669 C665 1.385 . S
C669 C668 1.374 . S
C670 C667 1.499 . S
C670 C671 1.373 . S
C670 C672 1.389 . S
C671 H650 0.950 . S
C671 C670 1.373 . S
C671 C687 1.377 . S
C672 C670 1.389 . S
C672 C673 1.524 . S
C672 C686 1.377 . S
C673 C672 1.524 . S
C673 C674 1.397 . S
C673 C678 1.363 . S
C674 H651 0.950 . S
C674 C673 1.397 . S
C674 C675 1.334 . S
C675 H652 0.950 . S
C675 C674 1.334 . S
C675 C676 1.287 . S
C676 C675 1.287 . S
C676 C677 1.524 . S
C676 H695 0.913 . S
C677 H653 0.950 . S
C677 C676 1.524 . S
C677 C678 1.415 . S
C678 H654 0.950 . S
C678 C673 1.363 . S
C678 C677 1.415 . S
C679 H655 0.951 . S
C679 C680 1.366 . S
C679 C681 1.388 . S
C680 C679 1.366 . S
C680 C684 1.385 . S
C681 H656 0.951 . S
C681 C679 1.388 . S
C681 C682 1.366 . S
C682 C681 1.366 . S
C682 C683 1.414 . S
C682 C685 1.499 . S
C683 H657 0.950 . S
C683 C682 1.414 . S
C683 C684 1.374 . S
C684 H658 0.950 . S
C684 C680 1.385 . S
C684 C683 1.374 . S
C685 C682 1.499 . S
C685 C686 1.373 . S
C685 C687 1.389 . S
C686 H659 0.950 . S
C686 C672 1.377 . S
C686 C685 1.373 . S
C687 C671 1.377 . S
C687 C685 1.389 . S
C687 C688 1.524 . S
C688 C687 1.524 . S
C688 C689 1.397 . S
C688 C693 1.363 . S
C689 H660 0.950 . S
C689 C688 1.397 . S
C689 C690 1.334 . S
C690 H661 0.950 . S
C690 C689 1.334 . S
C690 C691 1.287 . S
C691 C690 1.287 . S
C691 C692 1.524 . S
C691 H694 0.999 . S
C692 H662 0.950 . S
C692 C691 1.524 . S
C692 C693 1.415 . S
C693 H663 0.950 . S
C693 C688 1.363 . S
C693 C692 1.415 . S
H694 C691 0.999 . S
H695 C676 0.913 . S
H696 C714 0.951 . S
H697 C716 0.951 . S
H698 C718 0.950 . S
H699 C719 0.950 . S
H700 C721 0.950 . S
H701 C724 0.950 . S
H702 C725 0.950 . S
H703 C727 0.950 . S
H704 C728 0.950 . S
H705 C729 0.951 . S
H706 C731 0.951 . S
H707 C733 0.950 . S
H708 C734 0.950 . S
H709 C736 0.950 . S
H710 C739 0.950 . S
H711 C740 0.950 . S
H712 C742 0.950 . S
H713 C743 0.950 . S
C714 H696 0.951 . S
C714 C715 1.366 . S
C714 C716 1.388 . S
C715 C714 1.366 . S
C715 C719 1.385 . S
C716 H697 0.951 . S
C716 C714 1.388 . S
C716 C717 1.366 . S
C717 C716 1.366 . S
C717 C718 1.414 . S
C717 C720 1.499 . S
C718 H698 0.950 . S
C718 C717 1.414 . S
C718 C719 1.374 . S
C719 H699 0.950 . S
C719 C715 1.385 . S
C719 C718 1.374 . S
C720 C717 1.499 . S
C720 C721 1.373 . S
C720 C722 1.389 . S
C721 H700 0.950 . S
C721 C720 1.373 . S
C721 C737 1.377 . S
C722 C720 1.389 . S
C722 C723 1.524 . S
C722 C736 1.377 . S
C723 C722 1.524 . S
C723 C724 1.397 . S
C723 C728 1.363 . S
C724 H701 0.950 . S
C724 C723 1.397 . S
C724 C725 1.334 . S
C725 H702 0.950 . S
C725 C724 1.334 . S
C725 C726 1.287 . S
C726 C725 1.287 . S
C726 C727 1.524 . S
C726 H745 0.913 . S
C727 H703 0.950 . S
C727 C726 1.524 . S
C727 C728 1.415 . S
C728 H704 0.950 . S
C728 C723 1.363 . S
C728 C727 1.415 . S
C729 H705 0.951 . S
C729 C730 1.366 . S
C729 C731 1.388 . S
C730 C729 1.366 . S
C730 C734 1.385 . S
C731 H706 0.951 . S
C731 C729 1.388 . S
C731 C732 1.366 . S
C732 C731 1.366 . S
C732 C733 1.414 . S
C732 C735 1.499 . S
C733 H707 0.950 . S
C733 C732 1.414 . S
C733 C734 1.374 . S
C734 H708 0.950 . S
C734 C730 1.385 . S
C734 C733 1.374 . S
C735 C732 1.499 . S
C735 C736 1.373 . S
C735 C737 1.389 . S
C736 H709 0.950 . S
C736 C722 1.377 . S
C736 C735 1.373 . S
C737 C721 1.377 . S
C737 C735 1.389 . S
C737 C738 1.524 . S
C738 C737 1.524 . S
C738 C739 1.397 . S
C738 C743 1.363 . S
C739 H710 0.950 . S
C739 C738 1.397 . S
C739 C740 1.334 . S
C740 H711 0.950 . S
C740 C739 1.334 . S
C740 C741 1.287 . S
C741 C740 1.287 . S
C741 C742 1.524 . S
C741 H744 0.999 . S
C742 H712 0.950 . S
C742 C741 1.524 . S
C742 C743 1.415 . S
C743 H713 0.950 . S
C743 C738 1.363 . S
C743 C742 1.415 . S
H744 C741 0.999 . S
H745 C726 0.913 . S
H746 C764 0.951 . S
H747 C766 0.951 . S
H748 C768 0.950 . S
H749 C769 0.950 . S
H750 C771 0.950 . S
H751 C774 0.950 . S
H752 C775 0.950 . S
H753 C777 0.950 . S
H754 C778 0.950 . S
H755 C779 0.951 . S
H756 C781 0.951 . S
H757 C783 0.950 . S
H758 C784 0.950 . S
H759 C786 0.950 . S
H760 C789 0.950 . S
H761 C790 0.950 . S
H762 C792 0.950 . S
H763 C793 0.950 . S
C764 H746 0.951 . S
C764 C765 1.366 . S
C764 C766 1.388 . S
C765 C764 1.366 . S
C765 C769 1.385 . S
C766 H747 0.951 . S
C766 C764 1.388 . S
C766 C767 1.366 . S
C767 C766 1.366 . S
C767 C768 1.414 . S
C767 C770 1.499 . S
C768 H748 0.950 . S
C768 C767 1.414 . S
C768 C769 1.374 . S
C769 H749 0.950 . S
C769 C765 1.385 . S
C769 C768 1.374 . S
C770 C767 1.499 . S
C770 C771 1.373 . S
C770 C772 1.389 . S
C771 H750 0.950 . S
C771 C770 1.373 . S
C771 C787 1.377 . S
C772 C770 1.389 . S
C772 C773 1.524 . S
C772 C786 1.377 . S
C773 C772 1.524 . S
C773 C774 1.397 . S
C773 C778 1.363 . S
C774 H751 0.950 . S
C774 C773 1.397 . S
C774 C775 1.334 . S
C775 H752 0.950 . S
C775 C774 1.334 . S
C775 C776 1.287 . S
C776 C775 1.287 . S
C776 C777 1.524 . S
C776 H795 0.913 . S
C777 H753 0.950 . S
C777 C776 1.524 . S
C777 C778 1.415 . S
C778 H754 0.950 . S
C778 C773 1.363 . S
C778 C777 1.415 . S
C779 H755 0.951 . S
C779 C780 1.366 . S
C779 C781 1.388 . S
C780 C779 1.366 . S
C780 C784 1.385 . S
C781 H756 0.951 . S
C781 C779 1.388 . S
C781 C782 1.366 . S
C782 C781 1.366 . S
C782 C783 1.414 . S
C782 C785 1.499 . S
C783 H757 0.950 . S
C783 C782 1.414 . S
C783 C784 1.374 . S
C784 H758 0.950 . S
C784 C780 1.385 . S
C784 C783 1.374 . S
C785 C782 1.499 . S
C785 C786 1.373 . S
C785 C787 1.389 . S
C786 H759 0.950 . S
C786 C772 1.377 . S
C786 C785 1.373 . S
C787 C771 1.377 . S
C787 C785 1.389 . S
C787 C788 1.524 . S
C788 C787 1.524 . S
C788 C789 1.397 . S
C788 C793 1.363 . S
C789 H760 0.950 . S
C789 C788 1.397 . S
C789 C790 1.334 . S
C790 H761 0.950 . S
C790 C789 1.334 . S
C790 C791 1.287 . S
C791 C790 1.287 . S
C791 C792 1.524 . S
C791 H794 0.999 . S
C792 H762 0.950 . S
C792 C791 1.524 . S
C792 C793 1.415 . S
C793 H763 0.950 . S
C793 C788 1.363 . S
C793 C792 1.415 . S
H794 C791 0.999 . S
H795 C776 0.913 . S
H796 C814 0.951 . S
H797 C816 0.951 . S
H798 C818 0.950 . S
H799 C819 0.950 . S
H800 C821 0.950 . S
H801 C824 0.950 . S
H802 C825 0.950 . S
H803 C827 0.950 . S
H804 C828 0.950 . S
H805 C829 0.951 . S
H806 C831 0.951 . S
H807 C833 0.950 . S
H808 C834 0.950 . S
H809 C836 0.950 . S
H810 C839 0.950 . S
H811 C840 0.950 . S
H812 C842 0.950 . S
H813 C843 0.950 . S
C814 H796 0.951 . S
C814 C815 1.366 . S
C814 C816 1.388 . S
C815 C814 1.366 . S
C815 C819 1.385 . S
C816 H797 0.951 . S
C816 C814 1.388 . S
C816 C817 1.366 . S
C817 C816 1.366 . S
C817 C818 1.414 . S
C817 C820 1.499 . S
C818 H798 0.950 . S
C818 C817 1.414 . S
C818 C819 1.374 . S
C819 H799 0.950 . S
C819 C815 1.385 . S
C819 C818 1.374 . S
C820 C817 1.499 . S
C820 C821 1.373 . S
C820 C822 1.389 . S
C821 H800 0.950 . S
C821 C820 1.373 . S
C821 C837 1.377 . S
C822 C820 1.389 . S
C822 C823 1.524 . S
C822 C836 1.377 . S
C823 C822 1.524 . S
C823 C824 1.397 . S
C823 C828 1.363 . S
C824 H801 0.950 . S
C824 C823 1.397 . S
C824 C825 1.334 . S
C825 H802 0.950 . S
C825 C824 1.334 . S
C825 C826 1.287 . S
C826 C825 1.287 . S
C826 C827 1.524 . S
C826 H845 0.913 . S
C827 H803 0.950 . S
C827 C826 1.524 . S
C827 C828 1.415 . S
C828 H804 0.950 . S
C828 C823 1.363 . S
C828 C827 1.415 . S
C829 H805 0.951 . S
C829 C830 1.366 . S
C829 C831 1.388 . S
C830 C829 1.366 . S
C830 C834 1.385 . S
C831 H806 0.951 . S
C831 C829 1.388 . S
C831 C832 1.366 . S
C832 C831 1.366 . S
C832 C833 1.414 . S
C832 C835 1.499 . S
C833 H807 0.950 . S
C833 C832 1.414 . S
C833 C834 1.374 . S
C834 H808 0.950 . S
C834 C830 1.385 . S
C834 C833 1.374 . S
C835 C832 1.499 . S
C835 C836 1.373 . S
C835 C837 1.389 . S
C836 H809 0.950 . S
C836 C822 1.377 . S
C836 C835 1.373 . S
C837 C821 1.377 . S
C837 C835 1.389 . S
C837 C838 1.524 . S
C838 C837 1.524 . S
C838 C839 1.397 . S
C838 C843 1.363 . S
C839 H810 0.950 . S
C839 C838 1.397 . S
C839 C840 1.334 . S
C840 H811 0.950 . S
C840 C839 1.334 . S
C840 C841 1.287 . S
C841 C840 1.287 . S
C841 C842 1.524 . S
C841 H844 0.999 . S
C842 H812 0.950 . S
C842 C841 1.524 . S
C842 C843 1.415 . S
C843 H813 0.950 . S
C843 C838 1.363 . S
C843 C842 1.415 . S
H844 C841 0.999 . S
H845 C826 0.913 . S
H846 C864 0.951 . S
H847 C866 0.951 . S
H848 C868 0.950 . S
H849 C869 0.950 . S
H850 C871 0.950 . S
H851 C874 0.950 . S
H852 C875 0.950 . S
H853 C877 0.950 . S
H854 C878 0.950 . S
H855 C879 0.951 . S
H856 C881 0.951 . S
H857 C883 0.950 . S
H858 C884 0.950 . S
H859 C886 0.950 . S
H860 C889 0.950 . S
H861 C890 0.950 . S
H862 C892 0.950 . S
H863 C893 0.950 . S
C864 H846 0.951 . S
C864 C865 1.366 . S
C864 C866 1.388 . S
C865 C864 1.366 . S
C865 C869 1.385 . S
C866 H847 0.951 . S
C866 C864 1.388 . S
C866 C867 1.366 . S
C867 C866 1.366 . S
C867 C868 1.414 . S
C867 C870 1.499 . S
C868 H848 0.950 . S
C868 C867 1.414 . S
C868 C869 1.374 . S
C869 H849 0.950 . S
C869 C865 1.385 . S
C869 C868 1.374 . S
C870 C867 1.499 . S
C870 C871 1.373 . S
C870 C872 1.389 . S
C871 H850 0.950 . S
C871 C870 1.373 . S
C871 C887 1.377 . S
C872 C870 1.389 . S
C872 C873 1.524 . S
C872 C886 1.377 . S
C873 C872 1.524 . S
C873 C874 1.397 . S
C873 C878 1.363 . S
C874 H851 0.950 . S
C874 C873 1.397 . S
C874 C875 1.334 . S
C875 H852 0.950 . S
C875 C874 1.334 . S
C875 C876 1.287 . S
C876 C875 1.287 . S
C876 C877 1.524 . S
C876 H895 0.913 . S
C877 H853 0.950 . S
C877 C876 1.524 . S
C877 C878 1.415 . S
C878 H854 0.950 . S
C878 C873 1.363 . S
C878 C877 1.415 . S
C879 H855 0.951 . S
C879 C880 1.366 . S
C879 C881 1.388 . S
C880 C879 1.366 . S
C880 C884 1.385 . S
C881 H856 0.951 . S
C881 C879 1.388 . S
C881 C882 1.366 . S
C882 C881 1.366 . S
C882 C883 1.414 . S
C882 C885 1.499 . S
C883 H857 0.950 . S
C883 C882 1.414 . S
C883 C884 1.374 . S
C884 H858 0.950 . S
C884 C880 1.385 . S
C884 C883 1.374 . S
C885 C882 1.499 . S
C885 C886 1.373 . S
C885 C887 1.389 . S
C886 H859 0.950 . S
C886 C872 1.377 . S
C886 C885 1.373 . S
C887 C871 1.377 . S
C887 C885 1.389 . S
C887 C888 1.524 . S
C888 C887 1.524 . S
C888 C889 1.397 . S
C888 C893 1.363 . S
C889 H860 0.950 . S
C889 C888 1.397 . S
C889 C890 1.334 . S
C890 H861 0.950 . S
C890 C889 1.334 . S
C890 C891 1.287 . S
C891 C890 1.287 . S
C891 C892 1.524 . S
C891 H894 0.999 . S
C892 H862 0.950 . S
C892 C891 1.524 . S
C892 C893 1.415 . S
C893 H863 0.950 . S
C893 C888 1.363 . S
C893 C892 1.415 . S
H894 C891 0.999 . S
H895 C876 0.913 . S
H896 C914 0.951 . S
H897 C916 0.951 . S
H898 C918 0.950 . S
H899 C919 0.950 . S
H900 C921 0.950 . S
H901 C924 0.950 . S
H902 C925 0.950 . S
H903 C927 0.950 . S
H904 C928 0.950 . S
H905 C929 0.951 . S
H906 C931 0.951 . S
H907 C933 0.950 . S
H908 C934 0.950 . S
H909 C936 0.950 . S
H910 C939 0.950 . S
H911 C940 0.950 . S
H912 C942 0.950 . S
H913 C943 0.950 . S
C914 H896 0.951 . S
C914 C915 1.366 . S
C914 C916 1.388 . S
C915 C914 1.366 . S
C915 C919 1.385 . S
C916 H897 0.951 . S
C916 C914 1.388 . S
C916 C917 1.366 . S
C917 C916 1.366 . S
C917 C918 1.414 . S
C917 C920 1.499 . S
C918 H898 0.950 . S
C918 C917 1.414 . S
C918 C919 1.374 . S
C919 H899 0.950 . S
C919 C915 1.385 . S
C919 C918 1.374 . S
C920 C917 1.499 . S
C920 C921 1.373 . S
C920 C922 1.389 . S
C921 H900 0.950 . S
C921 C920 1.373 . S
C921 C937 1.377 . S
C922 C920 1.389 . S
C922 C923 1.524 . S
C922 C936 1.377 . S
C923 C922 1.524 . S
C923 C924 1.397 . S
C923 C928 1.363 . S
C924 H901 0.950 . S
C924 C923 1.397 . S
C924 C925 1.334 . S
C925 H902 0.950 . S
C925 C924 1.334 . S
C925 C926 1.287 . S
C926 C925 1.287 . S
C926 C927 1.524 . S
C926 H945 0.913 . S
C927 H903 0.950 . S
C927 C926 1.524 . S
C927 C928 1.415 . S
C928 H904 0.950 . S
C928 C923 1.363 . S
C928 C927 1.415 . S
C929 H905 0.951 . S
C929 C930 1.366 . S
C929 C931 1.388 . S
C930 C929 1.366 . S
C930 C934 1.385 . S
C931 H906 0.951 . S
C931 C929 1.388 . S
C931 C932 1.366 . S
C932 C931 1.366 . S
C932 C933 1.414 . S
C932 C935 1.499 . S
C933 H907 0.950 . S
C933 C932 1.414 . S
C933 C934 1.374 . S
C934 H908 0.950 . S
C934 C930 1.385 . S
C934 C933 1.374 . S
C935 C932 1.499 . S
C935 C936 1.373 . S
C935 C937 1.389 . S
C936 H909 0.950 . S
C936 C922 1.377 . S
C936 C935 1.373 . S
C937 C921 1.377 . S
C937 C935 1.389 . S
C937 C938 1.524 . S
C938 C937 1.524 . S
C938 C939 1.397 . S
C938 C943 1.363 . S
C939 H910 0.950 . S
C939 C938 1.397 . S
C939 C940 1.334 . S
C940 H911 0.950 . S
C940 C939 1.334 . S
C940 C941 1.287 . S
C941 C940 1.287 . S
C941 C942 1.524 . S
C941 H944 0.999 . S
C942 H912 0.950 . S
C942 C941 1.524 . S
C942 C943 1.415 . S
C943 H913 0.950 . S
C943 C938 1.363 . S
C943 C942 1.415 . S
H944 C941 0.999 . S
H945 C926 0.913 . S
H946 C964 0.998 . S
H947 C966 0.951 . S
H948 C968 0.950 . S
H949 C969 0.950 . S
H950 C971 0.950 . S
H951 C974 0.950 . S
H952 C975 0.950 . S
H953 C977 0.950 . S
H954 C978 0.950 . S
H955 C979 0.951 . S
H956 C981 0.951 . S
H957 C983 0.950 . S
H958 C984 0.950 . S
H959 C986 0.950 . S
H960 C989 0.950 . S
H961 C990 0.950 . S
H962 C992 0.950 . S
H963 C993 0.950 . S
C964 H946 0.998 . S
C964 C965 1.355 1_545 S
C964 C966 1.354 1_545 S
C965 C964 1.355 1_565 S
C965 C969 1.385 . S
C966 H947 0.951 . S
C966 C964 1.354 1_565 S
C966 C967 1.366 . S
C967 C966 1.366 . S
C967 C968 1.414 . S
C967 C970 1.499 . S
C968 H948 0.950 . S
C968 C967 1.414 . S
C968 C969 1.374 . S
C969 H949 0.950 . S
C969 C965 1.385 . S
C969 C968 1.374 . S
C970 C967 1.499 . S
C970 C971 1.373 . S
C970 C972 1.389 . S
C971 H950 0.950 . S
C971 C970 1.373 . S
C971 C987 1.377 . S
C972 C970 1.389 . S
C972 C973 1.524 . S
C972 C986 1.377 . S
C973 C972 1.524 . S
C973 C974 1.397 . S
C973 C978 1.363 . S
C974 H951 0.950 . S
C974 C973 1.397 . S
C974 C975 1.334 . S
C975 H952 0.950 . S
C975 C974 1.334 . S
C975 C976 1.287 1_565 S
C976 C975 1.287 1_545 S
C976 C977 1.524 . S
C976 H995 0.913 . S
C977 H953 0.950 . S
C977 C976 1.524 . S
C977 C978 1.415 1_545 S
C978 H954 0.950 . S
C978 C973 1.363 . S
C978 C977 1.415 1_565 S
C979 H955 0.951 . S
C979 C980 1.366 . S
C979 C981 1.388 . S
C980 C979 1.366 . S
C980 C984 1.385 . S
C981 H956 0.951 . S
C981 C979 1.388 . S
C981 C982 1.366 . S
C982 C981 1.366 . S
C982 C983 1.414 . S
C982 C985 1.499 . S
C983 H957 0.950 . S
C983 C982 1.414 . S
C983 C984 1.374 . S
C984 H958 0.950 . S
C984 C980 1.385 . S
C984 C983 1.374 . S
C985 C982 1.499 . S
C985 C986 1.373 . S
C985 C987 1.389 . S
C986 H959 0.950 . S
C986 C972 1.377 . S
C986 C985 1.373 . S
C987 C971 1.377 . S
C987 C985 1.389 . S
C987 C988 1.524 . S
C988 C987 1.524 . S
C988 C989 1.397 . S
C988 C993 1.363 . S
C989 H960 0.950 . S
C989 C988 1.397 . S
C989 C990 1.334 . S
C990 H961 0.950 . S
C990 C989 1.334 . S
C990 C991 1.287 . S
C991 C990 1.287 . S
C991 C992 1.524 . S
C991 H994 0.999 . S
C992 H962 0.950 . S
C992 C991 1.524 . S
C992 C993 1.415 . S
C993 H963 0.950 . S
C993 C988 1.363 . S
C993 C992 1.415 . S
H994 C991 0.999 . S
H995 C976 0.913 . S
H996 C1014 0.951 . S
H997 C1016 0.951 . S
H998 C1018 0.950 . S
H999 C1019 0.950 . S
H1000 C1021 0.950 . S
H1001 C1024 0.950 . S
H1002 C1025 0.950 . S
H1003 C1027 0.950 . S
H1004 C1028 0.950 . S
H1005 C1029 0.951 . S
H1006 C1031 0.951 . S
H1007 C1033 0.950 . S
H1008 C1034 0.950 . S
H1009 C1036 0.950 . S
H1010 C1039 0.950 . S
H1011 C1040 0.950 . S
H1012 C1042 0.950 . S
H1013 C1043 0.950 . S
C1014 H996 0.951 . S
C1014 C1015 1.366 . S
C1014 C1016 1.388 . S
C1015 C1014 1.366 . S
C1015 C1019 1.385 . S
C1016 H997 0.951 . S
C1016 C1014 1.388 . S
C1016 C1017 1.366 . S
C1017 C1016 1.366 . S
C1017 C1018 1.414 . S
C1017 C1020 1.499 . S
C1018 H998 0.950 . S
C1018 C1017 1.414 . S
C1018 C1019 1.374 . S
C1019 H999 0.950 . S
C1019 C1015 1.385 . S
C1019 C1018 1.374 . S
C1020 C1017 1.499 . S
C1020 C1021 1.373 . S
C1020 C1022 1.389 . S
C1021 H1000 0.950 . S
C1021 C1020 1.373 . S
C1021 C1037 1.377 . S
C1022 C1020 1.389 . S
C1022 C1023 1.524 . S
C1022 C1036 1.377 . S
C1023 C1022 1.524 . S
C1023 C1024 1.397 . S
C1023 C1028 1.363 . S
C1024 H1001 0.950 . S
C1024 C1023 1.397 . S
C1024 C1025 1.334 . S
C1025 H1002 0.950 . S
C1025 C1024 1.334 . S
C1025 C1026 1.287 . S
C1026 C1025 1.287 . S
C1026 C1027 1.524 . S
C1026 H1045 0.913 . S
C1027 H1003 0.950 . S
C1027 C1026 1.524 . S
C1027 C1028 1.415 . S
C1028 H1004 0.950 . S
C1028 C1023 1.363 . S
C1028 C1027 1.415 . S
C1029 H1005 0.951 . S
C1029 C1030 1.366 . S
C1029 C1031 1.388 . S
C1030 C1029 1.366 . S
C1030 C1034 1.385 . S
C1031 H1006 0.951 . S
C1031 C1029 1.388 . S
C1031 C1032 1.366 . S
C1032 C1031 1.366 . S
C1032 C1033 1.414 . S
C1032 C1035 1.499 . S
C1033 H1007 0.950 . S
C1033 C1032 1.414 . S
C1033 C1034 1.374 . S
C1034 H1008 0.950 . S
C1034 C1030 1.385 . S
C1034 C1033 1.374 . S
C1035 C1032 1.499 . S
C1035 C1036 1.373 . S
C1035 C1037 1.389 . S
C1036 H1009 0.950 . S
C1036 C1022 1.377 . S
C1036 C1035 1.373 . S
C1037 C1021 1.377 . S
C1037 C1035 1.389 . S
C1037 C1038 1.524 . S
C1038 C1037 1.524 . S
C1038 C1039 1.397 . S
C1038 C1043 1.363 . S
C1039 H1010 0.950 . S
C1039 C1038 1.397 . S
C1039 C1040 1.334 . S
C1040 H1011 0.950 . S
C1040 C1039 1.334 . S
C1040 C1041 1.287 . S
C1041 C1040 1.287 . S
C1041 C1042 1.524 . S
C1041 H1044 0.999 . S
C1042 H1012 0.950 . S
C1042 C1041 1.524 . S
C1042 C1043 1.415 . S
C1043 H1013 0.950 . S
C1043 C1038 1.363 . S
C1043 C1042 1.415 . S
H1044 C1041 0.999 . S
H1045 C1026 0.913 . S
H1046 C1064 0.951 . S
H1047 C1066 0.951 . S
H1048 C1068 0.950 . S
H1049 C1069 0.950 . S
H1050 C1071 0.950 . S
H1051 C1074 0.950 . S
H1052 C1075 0.950 . S
H1053 C1077 0.950 . S
H1054 C1078 0.950 . S
H1055 C1079 0.951 . S
H1056 C1081 0.951 . S
H1057 C1083 0.950 . S
H1058 C1084 0.950 . S
H1059 C1086 0.950 . S
H1060 C1089 0.950 . S
H1061 C1090 0.950 . S
H1062 C1092 0.950 . S
H1063 C1093 0.950 . S
C1064 H1046 0.951 . S
C1064 C1065 1.366 . S
C1064 C1066 1.388 . S
C1065 C1064 1.366 . S
C1065 C1069 1.385 . S
C1066 H1047 0.951 . S
C1066 C1064 1.388 . S
C1066 C1067 1.366 . S
C1067 C1066 1.366 . S
C1067 C1068 1.414 . S
C1067 C1070 1.499 . S
C1068 H1048 0.950 . S
C1068 C1067 1.414 . S
C1068 C1069 1.374 . S
C1069 H1049 0.950 . S
C1069 C1065 1.385 . S
C1069 C1068 1.374 . S
C1070 C1067 1.499 . S
C1070 C1071 1.373 . S
C1070 C1072 1.389 . S
C1071 H1050 0.950 . S
C1071 C1070 1.373 . S
C1071 C1087 1.377 . S
C1072 C1070 1.389 . S
C1072 C1073 1.524 . S
C1072 C1086 1.377 . S
C1073 C1072 1.524 . S
C1073 C1074 1.397 . S
C1073 C1078 1.363 . S
C1074 H1051 0.950 . S
C1074 C1073 1.397 . S
C1074 C1075 1.334 . S
C1075 H1052 0.950 . S
C1075 C1074 1.334 . S
C1075 C1076 1.287 . S
C1076 C1075 1.287 . S
C1076 C1077 1.524 . S
C1076 H1095 0.913 . S
C1077 H1053 0.950 . S
C1077 C1076 1.524 . S
C1077 C1078 1.415 . S
C1078 H1054 0.950 . S
C1078 C1073 1.363 . S
C1078 C1077 1.415 . S
C1079 H1055 0.951 . S
C1079 C1080 1.366 . S
C1079 C1081 1.388 . S
C1080 C1079 1.366 . S
C1080 C1084 1.385 . S
C1081 H1056 0.951 . S
C1081 C1079 1.388 . S
C1081 C1082 1.366 . S
C1082 C1081 1.366 . S
C1082 C1083 1.414 . S
C1082 C1085 1.499 . S
C1083 H1057 0.950 . S
C1083 C1082 1.414 . S
C1083 C1084 1.374 . S
C1084 H1058 0.950 . S
C1084 C1080 1.385 . S
C1084 C1083 1.374 . S
C1085 C1082 1.499 . S
C1085 C1086 1.373 . S
C1085 C1087 1.389 . S
C1086 H1059 0.950 . S
C1086 C1072 1.377 . S
C1086 C1085 1.373 . S
C1087 C1071 1.377 . S
C1087 C1085 1.389 . S
C1087 C1088 1.524 . S
C1088 C1087 1.524 . S
C1088 C1089 1.397 . S
C1088 C1093 1.363 . S
C1089 H1060 0.950 . S
C1089 C1088 1.397 . S
C1089 C1090 1.334 . S
C1090 H1061 0.950 . S
C1090 C1089 1.334 . S
C1090 C1091 1.287 . S
C1091 C1090 1.287 . S
C1091 C1092 1.524 . S
C1091 H1094 0.999 . S
C1092 H1062 0.950 . S
C1092 C1091 1.524 . S
C1092 C1093 1.415 . S
C1093 H1063 0.950 . S
C1093 C1088 1.363 . S
C1093 C1092 1.415 . S
H1094 C1091 0.999 . S
H1095 C1076 0.913 . S
H1096 C1114 0.951 . S
H1097 C1116 0.951 . S
H1098 C1118 0.950 . S
H1099 C1119 0.950 . S
H1100 C1121 0.950 . S
H1101 C1124 0.950 . S
H1102 C1125 0.950 . S
H1103 C1127 0.950 . S
H1104 C1128 0.950 . S
H1105 C1129 0.951 . S
H1106 C1131 0.951 . S
H1107 C1133 0.950 . S
H1108 C1134 0.950 . S
H1109 C1136 0.950 . S
H1110 C1139 0.950 . S
H1111 C1140 0.950 . S
H1112 C1142 0.950 . S
H1113 C1143 0.950 . S
C1114 H1096 0.951 . S
C1114 C1115 1.366 . S
C1114 C1116 1.388 . S
C1115 C1114 1.366 . S
C1115 C1119 1.385 . S
C1116 H1097 0.951 . S
C1116 C1114 1.388 . S
C1116 C1117 1.366 . S
C1117 C1116 1.366 . S
C1117 C1118 1.414 . S
C1117 C1120 1.499 . S
C1118 H1098 0.950 . S
C1118 C1117 1.414 . S
C1118 C1119 1.374 . S
C1119 H1099 0.950 . S
C1119 C1115 1.385 . S
C1119 C1118 1.374 . S
C1120 C1117 1.499 . S
C1120 C1121 1.373 . S
C1120 C1122 1.389 . S
C1121 H1100 0.950 . S
C1121 C1120 1.373 . S
C1121 C1137 1.377 . S
C1122 C1120 1.389 . S
C1122 C1123 1.524 . S
C1122 C1136 1.377 . S
C1123 C1122 1.524 . S
C1123 C1124 1.397 . S
C1123 C1128 1.363 . S
C1124 H1101 0.950 . S
C1124 C1123 1.397 . S
C1124 C1125 1.334 . S
C1125 H1102 0.950 . S
C1125 C1124 1.334 . S
C1125 C1126 1.287 . S
C1126 C1125 1.287 . S
C1126 C1127 1.524 . S
C1126 H1145 0.913 . S
C1127 H1103 0.950 . S
C1127 C1126 1.524 . S
C1127 C1128 1.415 . S
C1128 H1104 0.950 . S
C1128 C1123 1.363 . S
C1128 C1127 1.415 . S
C1129 H1105 0.951 . S
C1129 C1130 1.366 . S
C1129 C1131 1.388 . S
C1130 C1129 1.366 . S
C1130 C1134 1.385 . S
C1131 H1106 0.951 . S
C1131 C1129 1.388 . S
C1131 C1132 1.366 . S
C1132 C1131 1.366 . S
C1132 C1133 1.414 . S
C1132 C1135 1.499 . S
C1133 H1107 0.950 . S
C1133 C1132 1.414 . S
C1133 C1134 1.374 . S
C1134 H1108 0.950 . S
C1134 C1130 1.385 . S
C1134 C1133 1.374 . S
C1135 C1132 1.499 . S
C1135 C1136 1.373 . S
C1135 C1137 1.389 . S
C1136 H1109 0.950 . S
C1136 C1122 1.377 . S
C1136 C1135 1.373 . S
C1137 C1121 1.377 . S
C1137 C1135 1.389 . S
C1137 C1138 1.524 . S
C1138 C1137 1.524 . S
C1138 C1139 1.397 . S
C1138 C1143 1.363 . S
C1139 H1110 0.950 . S
C1139 C1138 1.397 . S
C1139 C1140 1.334 . S
C1140 H1111 0.950 . S
C1140 C1139 1.334 . S
C1140 C1141 1.287 . S
C1141 C1140 1.287 . S
C1141 C1142 1.524 . S
C1141 H1144 0.999 . S
C1142 H1112 0.950 . S
C1142 C1141 1.524 . S
C1142 C1143 1.415 . S
C1143 H1113 0.950 . S
C1143 C1138 1.363 . S
C1143 C1142 1.415 . S
H1144 C1141 0.999 . S
H1145 C1126 0.913 . S
H1146 C1164 0.951 . S
H1147 C1166 0.951 . S
H1148 C1168 0.950 . S
H1149 C1169 0.950 . S
H1150 C1171 0.950 . S
H1151 C1174 0.950 . S
H1152 C1175 0.950 . S
H1153 C1177 0.950 . S
H1154 C1178 0.950 . S
H1155 C1179 0.951 . S
H1156 C1181 0.951 . S
H1157 C1183 0.950 . S
H1158 C1184 0.950 . S
H1159 C1186 0.950 . S
H1160 C1189 0.950 . S
H1161 C1190 0.950 . S
H1162 C1192 0.950 . S
H1163 C1193 0.950 . S
C1164 H1146 0.951 . S
C1164 C1165 1.366 . S
C1164 C1166 1.388 . S
C1165 C1164 1.366 . S
C1165 C1169 1.385 . S
C1166 H1147 0.951 . S
C1166 C1164 1.388 . S
C1166 C1167 1.366 . S
C1167 C1166 1.366 . S
C1167 C1168 1.414 . S
C1167 C1170 1.499 . S
C1168 H1148 0.950 . S
C1168 C1167 1.414 . S
C1168 C1169 1.374 . S
C1169 H1149 0.950 . S
C1169 C1165 1.385 . S
C1169 C1168 1.374 . S
C1170 C1167 1.499 . S
C1170 C1171 1.373 . S
C1170 C1172 1.389 . S
C1171 H1150 0.950 . S
C1171 C1170 1.373 . S
C1171 C1187 1.377 . S
C1172 C1170 1.389 . S
C1172 C1173 1.524 . S
C1172 C1186 1.377 . S
C1173 C1172 1.524 . S
C1173 C1174 1.397 . S
C1173 C1178 1.363 . S
C1174 H1151 0.950 . S
C1174 C1173 1.397 . S
C1174 C1175 1.334 . S
C1175 H1152 0.950 . S
C1175 C1174 1.334 . S
C1175 C1176 1.287 . S
C1176 C1175 1.287 . S
C1176 C1177 1.524 . S
C1176 H1195 0.913 . S
C1177 H1153 0.950 . S
C1177 C1176 1.524 . S
C1177 C1178 1.415 . S
C1178 H1154 0.950 . S
C1178 C1173 1.363 . S
C1178 C1177 1.415 . S
C1179 H1155 0.951 . S
C1179 C1180 1.366 . S
C1179 C1181 1.388 . S
C1180 C1179 1.366 . S
C1180 C1184 1.385 . S
C1181 H1156 0.951 . S
C1181 C1179 1.388 . S
C1181 C1182 1.366 . S
C1182 C1181 1.366 . S
C1182 C1183 1.414 . S
C1182 C1185 1.499 . S
C1183 H1157 0.950 . S
C1183 C1182 1.414 . S
C1183 C1184 1.374 . S
C1184 H1158 0.950 . S
C1184 C1180 1.385 . S
C1184 C1183 1.374 . S
C1185 C1182 1.499 . S
C1185 C1186 1.373 . S
C1185 C1187 1.389 . S
C1186 H1159 0.950 . S
C1186 C1172 1.377 . S
C1186 C1185 1.373 . S
C1187 C1171 1.377 . S
C1187 C1185 1.389 . S
C1187 C1188 1.524 . S
C1188 C1187 1.524 . S
C1188 C1189 1.397 . S
C1188 C1193 1.363 . S
C1189 H1160 0.950 . S
C1189 C1188 1.397 . S
C1189 C1190 1.334 . S
C1190 H1161 0.950 . S
C1190 C1189 1.334 . S
C1190 C1191 1.287 . S
C1191 C1190 1.287 . S
C1191 C1192 1.524 . S
C1191 H1194 0.999 . S
C1192 H1162 0.950 . S
C1192 C1191 1.524 . S
C1192 C1193 1.415 . S
C1193 H1163 0.950 . S
C1193 C1188 1.363 . S
C1193 C1192 1.415 . S
H1194 C1191 0.999 . S
H1195 C1176 0.913 . S
H1196 C1214 0.951 . S
H1197 C1216 0.951 . S
H1198 C1218 0.950 1_556 S
H1199 C1219 0.950 . S
H1200 C1221 0.950 . S
H1201 C1224 0.950 . S
H1202 C1225 0.950 . S
H1203 C1227 0.950 . S
H1204 C1228 0.950 . S
H1205 C1229 0.951 . S
H1206 C1231 0.951 . S
H1207 C1233 0.950 . S
H1208 C1234 0.950 . S
H1209 C1236 0.950 . S
H1210 C1239 0.950 . S
H1211 C1240 0.950 . S
H1212 C1242 0.950 . S
H1213 C1243 0.950 . S
C1214 H1196 0.951 . S
C1214 C1215 1.366 . S
C1214 C1216 1.388 . S
C1215 C1214 1.366 . S
C1215 C1219 1.385 . S
C1216 H1197 0.951 . S
C1216 C1214 1.388 . S
C1216 C1217 1.348 1_554 S
C1217 C1216 1.348 1_556 S
C1217 C1218 1.407 1_556 S
C1217 C1220 1.525 . S
C1218 H1198 0.950 1_554 S
C1218 C1217 1.407 1_554 S
C1218 C1219 1.374 . S
C1219 H1199 0.950 . S
C1219 C1215 1.385 . S
C1219 C1218 1.374 . S
C1220 C1217 1.525 . S
C1220 C1221 1.373 . S
C1220 C1222 1.389 . S
C1221 H1200 0.950 . S
C1221 C1220 1.373 . S
C1221 C1237 1.377 . S
C1222 C1220 1.389 . S
C1222 C1223 1.524 1_556 S
C1222 C1236 1.377 . S
C1223 C1222 1.524 1_554 S
C1223 C1224 1.397 . S
C1223 C1228 1.363 . S
C1224 H1201 0.950 . S
C1224 C1223 1.397 . S
C1224 C1225 1.334 . S
C1225 H1202 0.950 . S
C1225 C1224 1.334 . S
C1225 C1226 1.287 . S
C1226 C1225 1.287 . S
C1226 C1227 1.524 . S
C1226 H1245 0.913 . S
C1227 H1203 0.950 . S
C1227 C1226 1.524 . S
C1227 C1228 1.415 . S
C1228 H1204 0.950 . S
C1228 C1223 1.363 . S
C1228 C1227 1.415 . S
C1229 H1205 0.951 . S
C1229 C1230 1.366 . S
C1229 C1231 1.388 . S
C1230 C1229 1.366 . S
C1230 C1234 1.385 . S
C1231 H1206 0.951 . S
C1231 C1229 1.388 . S
C1231 C1232 1.366 . S
C1232 C1231 1.366 . S
C1232 C1233 1.414 . S
C1232 C1235 1.499 . S
C1233 H1207 0.950 . S
C1233 C1232 1.414 . S
C1233 C1234 1.374 . S
C1234 H1208 0.950 . S
C1234 C1230 1.385 . S
C1234 C1233 1.374 . S
C1235 C1232 1.499 . S
C1235 C1236 1.373 . S
C1235 C1237 1.389 . S
C1236 H1209 0.950 . S
C1236 C1222 1.377 . S
C1236 C1235 1.373 . S
C1237 C1221 1.377 . S
C1237 C1235 1.389 . S
C1237 C1238 1.524 . S
C1238 C1237 1.524 . S
C1238 C1239 1.397 . S
C1238 C1243 1.363 . S
C1239 H1210 0.950 . S
C1239 C1238 1.397 . S
C1239 C1240 1.334 . S
C1240 H1211 0.950 . S
C1240 C1239 1.334 . S
C1240 C1241 1.287 . S
C1241 C1240 1.287 . S
C1241 C1242 1.524 . S
C1241 H1244 0.999 . S
C1242 H1212 0.950 . S
C1242 C1241 1.524 . S
C1242 C1243 1.415 . S
C1243 H1213 0.950 . S
C1243 C1238 1.363 . S
C1243 C1242 1.415 . S
H1244 C1241 0.999 . S
H1245 C1226 0.913 . S
H1246 C1264 0.951 . S
H1247 C1266 0.951 . S
H1248 C1268 0.950 . S
H1249 C1269 0.950 1_554 S
H1250 C1271 0.950 . S
H1251 C1274 0.950 . S
H1252 C1275 0.950 . S
H1253 C1277 0.950 . S
H1254 C1278 0.950 . S
H1255 C1279 0.951 . S
H1256 C1281 0.951 . S
H1257 C1283 0.950 . S
H1258 C1284 0.950 . S
H1259 C1286 0.950 . S
H1260 C1289 0.950 . S
H1261 C1290 0.950 . S
H1262 C1292 0.950 . S
H1263 C1293 0.950 . S
C1264 H1246 0.951 . S
C1264 C1265 1.366 . S
C1264 C1266 1.388 . S
C1265 C1264 1.366 . S
C1265 C1269 1.385 . S
C1266 H1247 0.951 . S
C1266 C1264 1.388 . S
C1266 C1267 1.366 . S
C1267 C1266 1.366 . S
C1267 C1268 1.414 . S
C1267 C1270 1.499 . S
C1268 H1248 0.950 . S
C1268 C1267 1.414 . S
C1268 C1269 1.374 . S
C1269 H1249 0.950 1_556 S
C1269 C1265 1.385 . S
C1269 C1268 1.374 . S
C1270 C1267 1.499 . S
C1270 C1271 1.373 . S
C1270 C1272 1.389 . S
C1271 H1250 0.950 . S
C1271 C1270 1.373 . S
C1271 C1287 1.377 . S
C1272 C1270 1.389 . S
C1272 C1273 1.524 . S
C1272 C1286 1.377 . S
C1273 C1272 1.524 . S
C1273 C1274 1.397 . S
C1273 C1278 1.363 . S
C1274 H1251 0.950 . S
C1274 C1273 1.397 . S
C1274 C1275 1.334 . S
C1275 H1252 0.950 . S
C1275 C1274 1.334 . S
C1275 C1276 1.287 . S
C1276 C1275 1.287 . S
C1276 C1277 1.524 . S
C1276 H1295 0.913 . S
C1277 H1253 0.950 . S
C1277 C1276 1.524 . S
C1277 C1278 1.415 . S
C1278 H1254 0.950 . S
C1278 C1273 1.363 . S
C1278 C1277 1.415 . S
C1279 H1255 0.951 . S
C1279 C1280 1.366 . S
C1279 C1281 1.388 . S
C1280 C1279 1.366 . S
C1280 C1284 1.385 . S
C1281 H1256 0.951 . S
C1281 C1279 1.388 . S
C1281 C1282 1.366 . S
C1282 C1281 1.366 . S
C1282 C1283 1.414 . S
C1282 C1285 1.499 . S
C1283 H1257 0.950 . S
C1283 C1282 1.414 . S
C1283 C1284 1.374 . S
C1284 H1258 0.950 . S
C1284 C1280 1.385 . S
C1284 C1283 1.374 . S
C1285 C1282 1.499 . S
C1285 C1286 1.373 . S
C1285 C1287 1.389 . S
C1286 H1259 0.950 . S
C1286 C1272 1.377 . S
C1286 C1285 1.373 . S
C1287 C1271 1.377 . S
C1287 C1285 1.389 . S
C1287 C1288 1.524 . S
C1288 C1287 1.524 . S
C1288 C1289 1.397 . S
C1288 C1293 1.363 . S
C1289 H1260 0.950 . S
C1289 C1288 1.397 . S
C1289 C1290 1.334 . S
C1290 H1261 0.950 . S
C1290 C1289 1.334 . S
C1290 C1291 1.287 . S
C1291 C1290 1.287 . S
C1291 C1292 1.524 . S
C1291 H1294 0.999 . S
C1292 H1262 0.950 . S
C1292 C1291 1.524 . S
C1292 C1293 1.415 . S
C1293 H1263 0.950 . S
C1293 C1288 1.363 . S
C1293 C1292 1.415 . S
H1294 C1291 0.999 . S
H1295 C1276 0.913 . S
H1296 C1314 0.951 . S
H1297 C1316 0.951 . S
H1298 C1318 0.950 . S
H1299 C1319 0.950 . S
H1300 C1321 0.950 . S
H1301 C1324 0.950 . S
H1302 C1325 0.950 . S
H1303 C1327 0.950 . S
H1304 C1328 0.950 . S
H1305 C1329 0.951 . S
H1306 C1331 0.951 . S
H1307 C1333 0.950 . S
H1308 C1334 0.950 . S
H1309 C1336 0.950 . S
H1310 C1339 0.950 . S
H1311 C1340 0.950 . S
H1312 C1342 0.950 . S
H1313 C1343 0.950 . S
C1314 H1296 0.951 . S
C1314 C1315 1.366 . S
C1314 C1316 1.388 . S
C1315 C1314 1.366 . S
C1315 C1319 1.385 . S
C1316 H1297 0.951 . S
C1316 C1314 1.388 . S
C1316 C1317 1.366 . S
C1317 C1316 1.366 . S
C1317 C1318 1.414 . S
C1317 C1320 1.499 . S
C1318 H1298 0.950 . S
C1318 C1317 1.414 . S
C1318 C1319 1.374 . S
C1319 H1299 0.950 . S
C1319 C1315 1.385 . S
C1319 C1318 1.374 . S
C1320 C1317 1.499 . S
C1320 C1321 1.373 . S
C1320 C1322 1.389 . S
C1321 H1300 0.950 . S
C1321 C1320 1.373 . S
C1321 C1337 1.377 . S
C1322 C1320 1.389 . S
C1322 C1323 1.524 . S
C1322 C1336 1.377 . S
C1323 C1322 1.524 . S
C1323 C1324 1.397 . S
C1323 C1328 1.363 . S
C1324 H1301 0.950 . S
C1324 C1323 1.397 . S
C1324 C1325 1.334 . S
C1325 H1302 0.950 . S
C1325 C1324 1.334 . S
C1325 C1326 1.287 . S
C1326 C1325 1.287 . S
C1326 C1327 1.524 . S
C1326 H1345 0.913 . S
C1327 H1303 0.950 . S
C1327 C1326 1.524 . S
C1327 C1328 1.415 . S
C1328 H1304 0.950 . S
C1328 C1323 1.363 . S
C1328 C1327 1.415 . S
C1329 H1305 0.951 . S
C1329 C1330 1.366 . S
C1329 C1331 1.388 . S
C1330 C1329 1.366 . S
C1330 C1334 1.385 . S
C1331 H1306 0.951 . S
C1331 C1329 1.388 . S
C1331 C1332 1.366 . S
C1332 C1331 1.366 . S
C1332 C1333 1.414 . S
C1332 C1335 1.499 . S
C1333 H1307 0.950 . S
C1333 C1332 1.414 . S
C1333 C1334 1.374 . S
C1334 H1308 0.950 . S
C1334 C1330 1.385 . S
C1334 C1333 1.374 . S
C1335 C1332 1.499 . S
C1335 C1336 1.373 . S
C1335 C1337 1.389 . S
C1336 H1309 0.950 . S
C1336 C1322 1.377 . S
C1336 C1335 1.373 . S
C1337 C1321 1.377 . S
C1337 C1335 1.389 . S
C1337 C1338 1.524 . S
C1338 C1337 1.524 . S
C1338 C1339 1.397 . S
C1338 C1343 1.363 . S
C1339 H1310 0.950 . S
C1339 C1338 1.397 . S
C1339 C1340 1.334 . S
C1340 H1311 0.950 . S
C1340 C1339 1.334 . S
C1340 C1341 1.287 . S
C1341 C1340 1.287 . S
C1341 C1342 1.524 . S
C1341 H1344 0.999 . S
C1342 H1312 0.950 . S
C1342 C1341 1.524 . S
C1342 C1343 1.415 . S
C1343 H1313 0.950 . S
C1343 C1338 1.363 . S
C1343 C1342 1.415 . S
H1344 C1341 0.999 . S
H1345 C1326 0.913 . S
H1346 C1364 0.951 . S
H1347 C1366 0.951 . S
H1348 C1368 0.950 . S
H1349 C1369 0.950 . S
H1350 C1371 0.950 . S
H1351 C1374 0.950 . S
H1352 C1375 0.950 . S
H1353 C1377 0.950 . S
H1354 C1378 0.950 . S
H1355 C1379 0.951 . S
H1356 C1381 0.951 . S
H1357 C1383 0.950 . S
H1358 C1384 0.950 . S
H1359 C1386 0.950 . S
H1360 C1389 0.950 . S
H1361 C1390 0.950 . S
H1362 C1392 0.950 . S
H1363 C1393 0.950 . S
C1364 H1346 0.951 . S
C1364 C1365 1.366 . S
C1364 C1366 1.388 . S
C1365 C1364 1.366 . S
C1365 C1369 1.385 . S
C1366 H1347 0.951 . S
C1366 C1364 1.388 . S
C1366 C1367 1.366 . S
C1367 C1366 1.366 . S
C1367 C1368 1.414 . S
C1367 C1370 1.499 . S
C1368 H1348 0.950 . S
C1368 C1367 1.414 . S
C1368 C1369 1.374 . S
C1369 H1349 0.950 . S
C1369 C1365 1.385 . S
C1369 C1368 1.374 . S
C1370 C1367 1.499 . S
C1370 C1371 1.373 . S
C1370 C1372 1.389 . S
C1371 H1350 0.950 . S
C1371 C1370 1.373 . S
C1371 C1387 1.377 . S
C1372 C1370 1.389 . S
C1372 C1373 1.524 . S
C1372 C1386 1.377 . S
C1373 C1372 1.524 . S
C1373 C1374 1.397 . S
C1373 C1378 1.363 . S
C1374 H1351 0.950 . S
C1374 C1373 1.397 . S
C1374 C1375 1.334 . S
C1375 H1352 0.950 . S
C1375 C1374 1.334 . S
C1375 C1376 1.287 . S
C1376 C1375 1.287 . S
C1376 C1377 1.524 . S
C1376 H1395 0.913 . S
C1377 H1353 0.950 . S
C1377 C1376 1.524 . S
C1377 C1378 1.415 . S
C1378 H1354 0.950 . S
C1378 C1373 1.363 . S
C1378 C1377 1.415 . S
C1379 H1355 0.951 . S
C1379 C1380 1.366 . S
C1379 C1381 1.388 . S
C1380 C1379 1.366 . S
C1380 C1384 1.385 . S
C1381 H1356 0.951 . S
C1381 C1379 1.388 . S
C1381 C1382 1.366 . S
C1382 C1381 1.366 . S
C1382 C1383 1.414 . S
C1382 C1385 1.499 . S
C1383 H1357 0.950 . S
C1383 C1382 1.414 . S
C1383 C1384 1.374 . S
C1384 H1358 0.950 . S
C1384 C1380 1.385 . S
C1384 C1383 1.374 . S
C1385 C1382 1.499 . S
C1385 C1386 1.373 . S
C1385 C1387 1.389 . S
C1386 H1359 0.950 . S
C1386 C1372 1.377 . S
C1386 C1385 1.373 . S
C1387 C1371 1.377 . S
C1387 C1385 1.389 . S
C1387 C1388 1.524 . S
C1388 C1387 1.524 . S
C1388 C1389 1.397 . S
C1388 C1393 1.363 . S
C1389 H1360 0.950 . S
C1389 C1388 1.397 . S
C1389 C1390 1.334 . S
C1390 H1361 0.950 . S
C1390 C1389 1.334 . S
C1390 C1391 1.287 . S
C1391 C1390 1.287 . S
C1391 C1392 1.524 . S
C1391 H1394 0.999 . S
C1392 H1362 0.950 . S
C1392 C1391 1.524 . S
C1392 C1393 1.415 . S
C1393 H1363 0.950 . S
C1393 C1388 1.363 . S
C1393 C1392 1.415 . S
H1394 C1391 0.999 . S
H1395 C1376 0.913 . S
H1396 C1414 0.951 . S
H1397 C1416 0.951 . S
H1398 C1418 0.950 . S
H1399 C1419 0.950 . S
H1400 C1421 0.950 . S
H1401 C1424 0.950 . S
H1402 C1425 0.950 . S
H1403 C1427 0.950 . S
H1404 C1428 0.950 . S
H1405 C1429 0.951 . S
H1406 C1431 0.951 . S
H1407 C1433 0.950 . S
H1408 C1434 0.950 . S
H1409 C1436 0.950 . S
H1410 C1439 0.950 . S
H1411 C1440 0.950 . S
H1412 C1442 0.950 . S
H1413 C1443 0.950 . S
C1414 H1396 0.951 . S
C1414 C1415 1.366 . S
C1414 C1416 1.388 . S
C1415 C1414 1.366 . S
C1415 C1419 1.385 . S
C1416 H1397 0.951 . S
C1416 C1414 1.388 . S
C1416 C1417 1.366 . S
C1417 C1416 1.366 . S
C1417 C1418 1.414 . S
C1417 C1420 1.499 . S
C1418 H1398 0.950 . S
C1418 C1417 1.414 . S
C1418 C1419 1.374 . S
C1419 H1399 0.950 . S
C1419 C1415 1.385 . S
C1419 C1418 1.374 . S
C1420 C1417 1.499 . S
C1420 C1421 1.373 . S
C1420 C1422 1.389 . S
C1421 H1400 0.950 . S
C1421 C1420 1.373 . S
C1421 C1437 1.377 . S
C1422 C1420 1.389 . S
C1422 C1423 1.524 . S
C1422 C1436 1.377 . S
C1423 C1422 1.524 . S
C1423 C1424 1.397 . S
C1423 C1428 1.363 . S
C1424 H1401 0.950 . S
C1424 C1423 1.397 . S
C1424 C1425 1.334 . S
C1425 H1402 0.950 . S
C1425 C1424 1.334 . S
C1425 C1426 1.287 . S
C1426 C1425 1.287 . S
C1426 C1427 1.524 . S
C1426 H1445 0.913 . S
C1427 H1403 0.950 . S
C1427 C1426 1.524 . S
C1427 C1428 1.415 . S
C1428 H1404 0.950 . S
C1428 C1423 1.363 . S
C1428 C1427 1.415 . S
C1429 H1405 0.951 . S
C1429 C1430 1.366 . S
C1429 C1431 1.388 . S
C1430 C1429 1.366 . S
C1430 C1434 1.385 . S
C1431 H1406 0.951 . S
C1431 C1429 1.388 . S
C1431 C1432 1.366 . S
C1432 C1431 1.366 . S
C1432 C1433 1.414 . S
C1432 C1435 1.499 . S
C1433 H1407 0.950 . S
C1433 C1432 1.414 . S
C1433 C1434 1.374 . S
C1434 H1408 0.950 . S
C1434 C1430 1.385 . S
C1434 C1433 1.374 . S
C1435 C1432 1.499 . S
C1435 C1436 1.373 . S
C1435 C1437 1.389 . S
C1436 H1409 0.950 . S
C1436 C1422 1.377 . S
C1436 C1435 1.373 . S
C1437 C1421 1.377 . S
C1437 C1435 1.389 . S
C1437 C1438 1.524 . S
C1438 C1437 1.524 . S
C1438 C1439 1.397 . S
C1438 C1443 1.363 . S
C1439 H1410 0.950 . S
C1439 C1438 1.397 . S
C1439 C1440 1.334 . S
C1440 H1411 0.950 . S
C1440 C1439 1.334 . S
C1440 C1441 1.287 . S
C1441 C1440 1.287 . S
C1441 C1442 1.524 . S
C1441 H1444 0.999 . S
C1442 H1412 0.950 . S
C1442 C1441 1.524 . S
C1442 C1443 1.415 . S
C1443 H1413 0.950 . S
C1443 C1438 1.363 . S
C1443 C1442 1.415 . S
H1444 C1441 0.999 . S
H1445 C1426 0.913 . S
H1446 C1464 0.951 . S
H1447 C1466 0.951 . S
H1448 C1468 0.950 . S
H1449 C1469 0.950 . S
H1450 C1471 0.950 . S
H1451 C1474 0.950 . S
H1452 C1475 0.950 . S
H1453 C1477 0.950 . S
H1454 C1478 0.950 . S
H1455 C1479 0.951 . S
H1456 C1481 0.951 . S
H1457 C1483 0.950 . S
H1458 C1484 0.950 . S
H1459 C1486 0.950 . S
H1460 C1489 0.950 . S
H1461 C1490 0.950 . S
H1462 C1492 0.950 . S
H1463 C1493 0.950 . S
C1464 H1446 0.951 . S
C1464 C1465 1.366 . S
C1464 C1466 1.388 . S
C1465 C1464 1.366 . S
C1465 C1469 1.385 . S
C1466 H1447 0.951 . S
C1466 C1464 1.388 . S
C1466 C1467 1.366 . S
C1467 C1466 1.366 . S
C1467 C1468 1.414 . S
C1467 C1470 1.499 . S
C1468 H1448 0.950 . S
C1468 C1467 1.414 . S
C1468 C1469 1.374 . S
C1469 H1449 0.950 . S
C1469 C1465 1.385 . S
C1469 C1468 1.374 . S
C1470 C1467 1.499 . S
C1470 C1471 1.373 . S
C1470 C1472 1.389 . S
C1471 H1450 0.950 . S
C1471 C1470 1.373 . S
C1471 C1487 1.377 . S
C1472 C1470 1.389 . S
C1472 C1473 1.524 . S
C1472 C1486 1.377 . S
C1473 C1472 1.524 . S
C1473 C1474 1.397 . S
C1473 C1478 1.363 . S
C1474 H1451 0.950 . S
C1474 C1473 1.397 . S
C1474 C1475 1.334 . S
C1475 H1452 0.950 . S
C1475 C1474 1.334 . S
C1475 C1476 1.287 . S
C1476 C1475 1.287 . S
C1476 C1477 1.524 . S
C1476 H1495 0.913 . S
C1477 H1453 0.950 . S
C1477 C1476 1.524 . S
C1477 C1478 1.415 . S
C1478 H1454 0.950 . S
C1478 C1473 1.363 . S
C1478 C1477 1.415 . S
C1479 H1455 0.951 . S
C1479 C1480 1.366 . S
C1479 C1481 1.388 . S
C1480 C1479 1.366 . S
C1480 C1484 1.385 . S
C1481 H1456 0.951 . S
C1481 C1479 1.388 . S
C1481 C1482 1.366 . S
C1482 C1481 1.366 . S
C1482 C1483 1.414 . S
C1482 C1485 1.499 . S
C1483 H1457 0.950 . S
C1483 C1482 1.414 . S
C1483 C1484 1.374 . S
C1484 H1458 0.950 . S
C1484 C1480 1.385 . S
C1484 C1483 1.374 . S
C1485 C1482 1.499 . S
C1485 C1486 1.373 . S
C1485 C1487 1.389 . S
C1486 H1459 0.950 . S
C1486 C1472 1.377 . S
C1486 C1485 1.373 . S
C1487 C1471 1.377 . S
C1487 C1485 1.389 . S
C1487 C1488 1.524 . S
C1488 C1487 1.524 . S
C1488 C1489 1.397 . S
C1488 C1493 1.363 . S
C1489 H1460 0.950 . S
C1489 C1488 1.397 . S
C1489 C1490 1.334 . S
C1490 H1461 0.950 . S
C1490 C1489 1.334 . S
C1490 C1491 1.287 . S
C1491 C1490 1.287 . S
C1491 C1492 1.524 . S
C1491 H1494 0.999 . S
C1492 H1462 0.950 . S
C1492 C1491 1.524 . S
C1492 C1493 1.415 . S
C1493 H1463 0.950 . S
C1493 C1488 1.363 . S
C1493 C1492 1.415 . S
H1494 C1491 0.999 . S
H1495 C1476 0.913 . S
H1496 C1514 0.951 . S
H1497 C1516 0.951 . S
H1498 C1518 0.950 . S
H1499 C1519 0.950 . S
H1500 C1521 0.950 . S
H1501 C1524 0.950 . S
H1502 C1525 0.950 . S
H1503 C1527 0.950 . S
H1504 C1528 0.950 . S
H1505 C1529 0.951 . S
H1506 C1531 0.951 . S
H1507 C1533 0.950 . S
H1508 C1534 0.950 . S
H1509 C1536 0.950 . S
H1510 C1539 0.950 . S
H1511 C1540 0.950 . S
H1512 C1542 0.950 . S
H1513 C1543 0.950 . S
C1514 H1496 0.951 . S
C1514 C1515 1.366 . S
C1514 C1516 1.388 1_554 S
C1515 C1514 1.366 . S
C1515 C1519 1.385 . S
C1516 H1497 0.951 . S
C1516 C1514 1.388 1_556 S
C1516 C1517 1.366 . S
C1517 C1516 1.366 . S
C1517 C1518 1.414 . S
C1517 C1520 1.499 . S
C1518 H1498 0.950 . S
C1518 C1517 1.414 . S
C1518 C1519 1.374 1_556 S
C1519 H1499 0.950 . S
C1519 C1515 1.385 . S
C1519 C1518 1.374 1_554 S
C1520 C1517 1.499 . S
C1520 C1521 1.373 . S
C1520 C1522 1.389 . S
C1521 H1500 0.950 . S
C1521 C1520 1.373 . S
C1521 C1537 1.377 . S
C1522 C1520 1.389 . S
C1522 C1523 1.524 . S
C1522 C1536 1.377 . S
C1523 C1522 1.524 . S
C1523 C1524 1.397 . S
C1523 C1528 1.363 . S
C1524 H1501 0.950 . S
C1524 C1523 1.397 . S
C1524 C1525 1.334 . S
C1525 H1502 0.950 . S
C1525 C1524 1.334 . S
C1525 C1526 1.287 . S
C1526 C1525 1.287 . S
C1526 C1527 1.524 . S
C1526 H1545 0.913 . S
C1527 H1503 0.950 . S
C1527 C1526 1.524 . S
C1527 C1528 1.415 . S
C1528 H1504 0.950 . S
C1528 C1523 1.363 . S
C1528 C1527 1.415 . S
C1529 H1505 0.951 . S
C1529 C1530 1.366 . S
C1529 C1531 1.388 . S
C1530 C1529 1.366 . S
C1530 C1534 1.385 . S
C1531 H1506 0.951 . S
C1531 C1529 1.388 . S
C1531 C1532 1.366 . S
C1532 C1531 1.366 . S
C1532 C1533 1.414 . S
C1532 C1535 1.499 . S
C1533 H1507 0.950 . S
C1533 C1532 1.414 . S
C1533 C1534 1.374 . S
C1534 H1508 0.950 . S
C1534 C1530 1.385 . S
C1534 C1533 1.374 . S
C1535 C1532 1.499 . S
C1535 C1536 1.373 . S
C1535 C1537 1.389 . S
C1536 H1509 0.950 . S
C1536 C1522 1.377 . S
C1536 C1535 1.373 . S
C1537 C1521 1.377 . S
C1537 C1535 1.389 . S
C1537 C1538 1.524 . S
C1538 C1537 1.524 . S
C1538 C1539 1.397 . S
C1538 C1543 1.363 . S
C1539 H1510 0.950 . S
C1539 C1538 1.397 . S
C1539 C1540 1.334 . S
C1540 H1511 0.950 . S
C1540 C1539 1.334 . S
C1540 C1541 1.287 . S
C1541 C1540 1.287 . S
C1541 C1542 1.524 . S
C1541 H1544 0.999 . S
C1542 H1512 0.950 . S
C1542 C1541 1.524 . S
C1542 C1543 1.415 . S
C1543 H1513 0.950 . S
C1543 C1538 1.363 . S
C1543 C1542 1.415 . S
H1544 C1541 0.999 . S
H1545 C1526 0.913 . S
H1546 C1564 0.951 1_455 S
H1547 C1566 0.951 . S
H1548 C1568 0.950 . S
H1549 C1569 0.950 . S
H1550 C1571 0.950 1_554 S
H1551 C1574 0.950 . S
H1552 C1575 0.950 . S
H1553 C1577 0.937 1_455 S
H1554 C1578 0.950 . S
H1555 C1579 0.951 . S
H1556 C1581 0.951 . S
H1557 C1583 0.950 . S
H1558 C1584 0.950 . S
H1559 C1586 0.950 . S
H1560 C1589 0.950 . S
H1561 C1590 0.950 . S
H1562 C1592 0.950 . S
H1563 C1593 0.950 . S
C1564 H1546 0.951 1_655 S
C1564 C1565 1.366 . S
C1564 C1566 1.388 1_554 S
C1565 C1564 1.366 . S
C1565 C1569 1.385 . S
C1566 H1547 0.951 . S
C1566 C1564 1.388 1_556 S
C1566 C1567 1.366 . S
C1567 C1566 1.366 . S
C1567 C1568 1.414 1_556 S
C1567 C1570 1.499 . S
C1568 H1548 0.950 . S
C1568 C1567 1.414 1_554 S
C1568 C1569 1.374 . S
C1569 H1549 0.950 . S
C1569 C1565 1.385 . S
C1569 C1568 1.374 . S
C1570 C1567 1.499 . S
C1570 C1571 1.373 . S
C1570 C1572 1.389 . S
C1571 H1550 0.950 1_556 S
C1571 C1570 1.373 . S
C1571 C1587 1.377 . S
C1572 C1570 1.389 . S
C1572 C1573 1.524 . S
C1572 C1586 1.377 . S
C1573 C1572 1.524 . S
C1573 C1574 1.397 . S
C1573 C1578 1.363 . S
C1574 H1551 0.950 . S
C1574 C1573 1.397 . S
C1574 C1575 1.334 . S
C1575 H1552 0.950 . S
C1575 C1574 1.334 . S
C1575 C1576 1.287 . S
C1576 C1575 1.287 . S
C1576 C1577 1.524 . S
C1576 H1595 0.913 1_655 S
C1577 H1553 0.937 1_655 S
C1577 C1576 1.524 . S
C1577 C1578 1.415 . S
C1578 H1554 0.950 . S
C1578 C1573 1.363 . S
C1578 C1577 1.415 . S
C1579 H1555 0.951 . S
C1579 C1580 1.366 . S
C1579 C1581 1.388 . S
C1580 C1579 1.366 . S
C1580 C1584 1.385 . S
C1581 H1556 0.951 . S
C1581 C1579 1.388 . S
C1581 C1582 1.366 . S
C1582 C1581 1.366 . S
C1582 C1583 1.414 . S
C1582 C1585 1.499 . S
C1583 H1557 0.950 . S
C1583 C1582 1.414 . S
C1583 C1584 1.374 . S
C1584 H1558 0.950 . S
C1584 C1580 1.385 . S
C1584 C1583 1.374 . S
C1585 C1582 1.499 . S
C1585 C1586 1.373 . S
C1585 C1587 1.389 . S
C1586 H1559 0.950 . S
C1586 C1572 1.377 . S
C1586 C1585 1.373 . S
C1587 C1571 1.377 . S
C1587 C1585 1.389 . S
C1587 C1588 1.524 . S
C1588 C1587 1.524 . S
C1588 C1589 1.397 . S
C1588 C1593 1.363 1_556 S
C1589 H1560 0.950 . S
C1589 C1588 1.397 . S
C1589 C1590 1.334 1_556 S
C1590 H1561 0.950 . S
C1590 C1589 1.334 1_554 S
C1590 C1591 1.287 . S
C1591 C1590 1.287 . S
C1591 C1592 1.524 . S
C1591 H1594 0.999 . S
C1592 H1562 0.950 . S
C1592 C1591 1.524 . S
C1592 C1593 1.415 . S
C1593 H1563 0.950 . S
C1593 C1588 1.363 1_554 S
C1593 C1592 1.415 . S
H1594 C1591 0.999 . S
H1595 C1576 0.913 1_455 S
H1596 C1614 0.951 . S
H1597 C1616 0.951 . S
H1598 C1618 0.950 . S
H1599 C1619 0.950 . S
H1600 C1621 0.950 . S
H1601 C1624 0.950 . S
H1602 C1625 0.950 . S
H1603 C1627 0.950 . S
H1604 C1628 0.950 . S
H1605 C1629 0.951 . S
H1606 C1631 0.951 . S
H1607 C1633 0.950 . S
H1608 C1634 0.950 . S
H1609 C1636 0.950 . S
H1610 C1639 0.950 . S
H1611 C1640 0.950 . S
H1612 C1642 0.950 . S
H1613 C1643 0.950 . S
C1614 H1596 0.951 . S
C1614 C1615 1.366 . S
C1614 C1616 1.388 . S
C1615 C1614 1.366 . S
C1615 C1619 1.385 . S
C1616 H1597 0.951 . S
C1616 C1614 1.388 . S
C1616 C1617 1.366 . S
C1617 C1616 1.366 . S
C1617 C1618 1.414 . S
C1617 C1620 1.499 . S
C1618 H1598 0.950 . S
C1618 C1617 1.414 . S
C1618 C1619 1.374 . S
C1619 H1599 0.950 . S
C1619 C1615 1.385 . S
C1619 C1618 1.374 . S
C1620 C1617 1.499 . S
C1620 C1621 1.373 . S
C1620 C1622 1.389 . S
C1621 H1600 0.950 . S
C1621 C1620 1.373 . S
C1621 C1637 1.377 . S
C1622 C1620 1.389 . S
C1622 C1623 1.524 . S
C1622 C1636 1.377 . S
C1623 C1622 1.524 . S
C1623 C1624 1.397 . S
C1623 C1628 1.363 . S
C1624 H1601 0.950 . S
C1624 C1623 1.397 . S
C1624 C1625 1.334 . S
C1625 H1602 0.950 . S
C1625 C1624 1.334 . S
C1625 C1626 1.287 . S
C1626 C1625 1.287 . S
C1626 C1627 1.524 . S
C1626 H1645 0.913 . S
C1627 H1603 0.950 . S
C1627 C1626 1.524 . S
C1627 C1628 1.415 . S
C1628 H1604 0.950 . S
C1628 C1623 1.363 . S
C1628 C1627 1.415 . S
C1629 H1605 0.951 . S
C1629 C1630 1.366 . S
C1629 C1631 1.388 . S
C1630 C1629 1.366 . S
C1630 C1634 1.385 . S
C1631 H1606 0.951 . S
C1631 C1629 1.388 . S
C1631 C1632 1.366 . S
C1632 C1631 1.366 . S
C1632 C1633 1.414 . S
C1632 C1635 1.499 . S
C1633 H1607 0.950 . S
C1633 C1632 1.414 . S
C1633 C1634 1.374 . S
C1634 H1608 0.950 . S
C1634 C1630 1.385 . S
C1634 C1633 1.374 . S
C1635 C1632 1.499 . S
C1635 C1636 1.373 . S
C1635 C1637 1.389 . S
C1636 H1609 0.950 . S
C1636 C1622 1.377 . S
C1636 C1635 1.373 . S
C1637 C1621 1.377 . S
C1637 C1635 1.389 . S
C1637 C1638 1.524 . S
C1638 C1637 1.524 . S
C1638 C1639 1.397 . S
C1638 C1643 1.363 . S
C1639 H1610 0.950 . S
C1639 C1638 1.397 . S
C1639 C1640 1.334 . S
C1640 H1611 0.950 . S
C1640 C1639 1.334 . S
C1640 C1641 1.287 . S
C1641 C1640 1.287 . S
C1641 C1642 1.524 . S
C1641 H1644 0.999 . S
C1642 H1612 0.950 . S
C1642 C1641 1.524 . S
C1642 C1643 1.415 . S
C1643 H1613 0.950 . S
C1643 C1638 1.363 . S
C1643 C1642 1.415 . S
H1644 C1641 0.999 . S
H1645 C1626 0.913 . S
H1646 C1664 0.951 . S
H1647 C1666 0.951 . S
H1648 C1668 0.950 . S
H1649 C1669 0.950 . S
H1650 C1671 0.950 . S
H1651 C1674 0.950 . S
H1652 C1675 0.950 . S
H1653 C1677 0.950 . S
H1654 C1678 0.950 . S
H1655 C1679 0.951 . S
H1656 C1681 0.951 . S
H1657 C1683 0.950 . S
H1658 C1684 0.950 . S
H1659 C1686 0.950 . S
H1660 C1689 0.950 . S
H1661 C1690 0.950 . S
H1662 C1692 0.950 . S
H1663 C1693 0.950 . S
C1664 H1646 0.951 . S
C1664 C1665 1.366 . S
C1664 C1666 1.388 . S
C1665 C1664 1.366 . S
C1665 C1669 1.385 . S
C1666 H1647 0.951 . S
C1666 C1664 1.388 . S
C1666 C1667 1.366 . S
C1667 C1666 1.366 . S
C1667 C1668 1.414 . S
C1667 C1670 1.499 . S
C1668 H1648 0.950 . S
C1668 C1667 1.414 . S
C1668 C1669 1.374 . S
C1669 H1649 0.950 . S
C1669 C1665 1.385 . S
C1669 C1668 1.374 . S
C1670 C1667 1.499 . S
C1670 C1671 1.373 . S
C1670 C1672 1.389 . S
C1671 H1650 0.950 . S
C1671 C1670 1.373 . S
C1671 C1687 1.377 . S
C1672 C1670 1.389 . S
C1672 C1673 1.524 . S
C1672 C1686 1.377 . S
C1673 C1672 1.524 . S
C1673 C1674 1.397 . S
C1673 C1678 1.363 . S
C1674 H1651 0.950 . S
C1674 C1673 1.397 . S
C1674 C1675 1.334 . S
C1675 H1652 0.950 . S
C1675 C1674 1.334 . S
C1675 C1676 1.287 . S
C1676 C1675 1.287 . S
C1676 C1677 1.524 . S
C1676 H1695 0.913 . S
C1677 H1653 0.950 . S
C1677 C1676 1.524 . S
C1677 C1678 1.415 . S
C1678 H1654 0.950 . S
C1678 C1673 1.363 . S
C1678 C1677 1.415 . S
C1679 H1655 0.951 . S
C1679 C1680 1.366 . S
C1679 C1681 1.388 . S
C1680 C1679 1.366 . S
C1680 C1684 1.385 . S
C1681 H1656 0.951 . S
C1681 C1679 1.388 . S
C1681 C1682 1.366 . S
C1682 C1681 1.366 . S
C1682 C1683 1.414 . S
C1682 C1685 1.499 . S
C1683 H1657 0.950 . S
C1683 C1682 1.414 . S
C1683 C1684 1.374 . S
C1684 H1658 0.950 . S
C1684 C1680 1.385 . S
C1684 C1683 1.374 . S
C1685 C1682 1.499 . S
C1685 C1686 1.373 . S
C1685 C1687 1.389 . S
C1686 H1659 0.950 . S
C1686 C1672 1.377 . S
C1686 C1685 1.373 . S
C1687 C1671 1.377 . S
C1687 C1685 1.389 . S
C1687 C1688 1.524 . S
C1688 C1687 1.524 . S
C1688 C1689 1.397 . S
C1688 C1693 1.363 . S
C1689 H1660 0.950 . S
C1689 C1688 1.397 . S
C1689 C1690 1.334 . S
C1690 H1661 0.950 . S
C1690 C1689 1.334 . S
C1690 C1691 1.287 . S
C1691 C1690 1.287 . S
C1691 C1692 1.524 . S
C1691 H1694 0.999 . S
C1692 H1662 0.950 . S
C1692 C1691 1.524 . S
C1692 C1693 1.415 . S
C1693 H1663 0.950 . S
C1693 C1688 1.363 . S
C1693 C1692 1.415 . S
H1694 C1691 0.999 . S
H1695 C1676 0.913 . S
H1696 C1714 0.951 . S
H1697 C1716 0.951 . S
H1698 C1718 0.950 . S
H1699 C1719 0.950 . S
H1700 C1721 0.950 . S
H1701 C1724 0.950 . S
H1702 C1725 0.950 . S
H1703 C1727 0.950 . S
H1704 C1728 0.950 . S
H1705 C1729 0.951 . S
H1706 C1731 0.951 . S
H1707 C1733 0.950 . S
H1708 C1734 0.950 . S
H1709 C1736 0.950 . S
H1710 C1739 0.950 . S
H1711 C1740 0.950 . S
H1712 C1742 0.950 . S
H1713 C1743 0.950 . S
C1714 H1696 0.951 . S
C1714 C1715 1.366 . S
C1714 C1716 1.388 . S
C1715 C1714 1.366 . S
C1715 C1719 1.385 . S
C1716 H1697 0.951 . S
C1716 C1714 1.388 . S
C1716 C1717 1.366 . S
C1717 C1716 1.366 . S
C1717 C1718 1.414 . S
C1717 C1720 1.499 . S
C1718 H1698 0.950 . S
C1718 C1717 1.414 . S
C1718 C1719 1.374 . S
C1719 H1699 0.950 . S
C1719 C1715 1.385 . S
C1719 C1718 1.374 . S
C1720 C1717 1.499 . S
C1720 C1721 1.373 . S
C1720 C1722 1.389 . S
C1721 H1700 0.950 . S
C1721 C1720 1.373 . S
C1721 C1737 1.377 . S
C1722 C1720 1.389 . S
C1722 C1723 1.524 . S
C1722 C1736 1.377 . S
C1723 C1722 1.524 . S
C1723 C1724 1.397 . S
C1723 C1728 1.363 . S
C1724 H1701 0.950 . S
C1724 C1723 1.397 . S
C1724 C1725 1.334 . S
C1725 H1702 0.950 . S
C1725 C1724 1.334 . S
C1725 C1726 1.287 . S
C1726 C1725 1.287 . S
C1726 C1727 1.524 . S
C1726 H1745 0.913 . S
C1727 H1703 0.950 . S
C1727 C1726 1.524 . S
C1727 C1728 1.415 . S
C1728 H1704 0.950 . S
C1728 C1723 1.363 . S
C1728 C1727 1.415 . S
C1729 H1705 0.951 . S
C1729 C1730 1.366 . S
C1729 C1731 1.388 . S
C1730 C1729 1.366 . S
C1730 C1734 1.385 . S
C1731 H1706 0.951 . S
C1731 C1729 1.388 . S
C1731 C1732 1.366 . S
C1732 C1731 1.366 . S
C1732 C1733 1.414 . S
C1732 C1735 1.499 . S
C1733 H1707 0.950 . S
C1733 C1732 1.414 . S
C1733 C1734 1.374 . S
C1734 H1708 0.950 . S
C1734 C1730 1.385 . S
C1734 C1733 1.374 . S
C1735 C1732 1.499 . S
C1735 C1736 1.373 . S
C1735 C1737 1.389 . S
C1736 H1709 0.950 . S
C1736 C1722 1.377 . S
C1736 C1735 1.373 . S
C1737 C1721 1.377 . S
C1737 C1735 1.389 . S
C1737 C1738 1.524 . S
C1738 C1737 1.524 . S
C1738 C1739 1.397 . S
C1738 C1743 1.363 . S
C1739 H1710 0.950 . S
C1739 C1738 1.397 . S
C1739 C1740 1.334 . S
C1740 H1711 0.950 . S
C1740 C1739 1.334 . S
C1740 C1741 1.287 . S
C1741 C1740 1.287 . S
C1741 C1742 1.524 . S
C1741 H1744 0.999 . S
C1742 H1712 0.950 . S
C1742 C1741 1.524 . S
C1742 C1743 1.415 . S
C1743 H1713 0.950 . S
C1743 C1738 1.363 . S
C1743 C1742 1.415 . S
H1744 C1741 0.999 . S
H1745 C1726 0.913 . S
H1746 C1764 0.951 . S
H1747 C1766 0.951 . S
H1748 C1768 0.950 . S
H1749 C1769 0.950 . S
H1750 C1771 0.950 . S
H1751 C1774 0.950 . S
H1752 C1775 0.950 . S
H1753 C1777 0.950 . S
H1754 C1778 0.950 . S
H1755 C1779 0.951 . S
H1756 C1781 0.951 . S
H1757 C1783 0.950 . S
H1758 C1784 0.950 . S
H1759 C1786 0.950 . S
H1760 C1789 0.950 . S
H1761 C1790 0.950 . S
H1762 C1792 0.950 . S
H1763 C1793 0.950 . S
C1764 H1746 0.951 . S
C1764 C1765 1.366 . S
C1764 C1766 1.388 . S
C1765 C1764 1.366 . S
C1765 C1769 1.385 . S
C1766 H1747 0.951 . S
C1766 C1764 1.388 . S
C1766 C1767 1.366 . S
C1767 C1766 1.366 . S
C1767 C1768 1.414 . S
C1767 C1770 1.499 . S
C1768 H1748 0.950 . S
C1768 C1767 1.414 . S
C1768 C1769 1.374 . S
C1769 H1749 0.950 . S
C1769 C1765 1.385 . S
C1769 C1768 1.374 . S
C1770 C1767 1.499 . S
C1770 C1771 1.373 . S
C1770 C1772 1.389 . S
C1771 H1750 0.950 . S
C1771 C1770 1.373 . S
C1771 C1787 1.377 . S
C1772 C1770 1.389 . S
C1772 C1773 1.524 . S
C1772 C1786 1.377 . S
C1773 C1772 1.524 . S
C1773 C1774 1.397 . S
C1773 C1778 1.363 . S
C1774 H1751 0.950 . S
C1774 C1773 1.397 . S
C1774 C1775 1.334 . S
C1775 H1752 0.950 . S
C1775 C1774 1.334 . S
C1775 C1776 1.287 . S
C1776 C1775 1.287 . S
C1776 C1777 1.524 . S
C1776 H1795 0.913 . S
C1777 H1753 0.950 . S
C1777 C1776 1.524 . S
C1777 C1778 1.415 . S
C1778 H1754 0.950 . S
C1778 C1773 1.363 . S
C1778 C1777 1.415 . S
C1779 H1755 0.951 . S
C1779 C1780 1.366 . S
C1779 C1781 1.388 . S
C1780 C1779 1.366 . S
C1780 C1784 1.385 . S
C1781 H1756 0.951 . S
C1781 C1779 1.388 . S
C1781 C1782 1.366 . S
C1782 C1781 1.366 . S
C1782 C1783 1.414 . S
C1782 C1785 1.499 . S
C1783 H1757 0.950 . S
C1783 C1782 1.414 . S
C1783 C1784 1.374 . S
C1784 H1758 0.950 . S
C1784 C1780 1.385 . S
C1784 C1783 1.374 . S
C1785 C1782 1.499 . S
C1785 C1786 1.373 . S
C1785 C1787 1.389 . S
C1786 H1759 0.950 . S
C1786 C1772 1.377 . S
C1786 C1785 1.373 . S
C1787 C1771 1.377 . S
C1787 C1785 1.389 . S
C1787 C1788 1.524 . S
C1788 C1787 1.524 . S
C1788 C1789 1.397 . S
C1788 C1793 1.363 . S
C1789 H1760 0.950 . S
C1789 C1788 1.397 . S
C1789 C1790 1.334 . S
C1790 H1761 0.950 . S
C1790 C1789 1.334 . S
C1790 C1791 1.287 . S
C1791 C1790 1.287 . S
C1791 C1792 1.524 . S
C1791 H1794 0.999 . S
C1792 H1762 0.950 . S
C1792 C1791 1.524 . S
C1792 C1793 1.415 . S
C1793 H1763 0.950 . S
C1793 C1788 1.363 . S
C1793 C1792 1.415 . S
H1794 C1791 0.999 . S
H1795 C1776 0.913 . S
H1796 C1814 0.951 . S
H1797 C1816 0.951 . S
H1798 C1818 0.950 . S
H1799 C1819 0.950 . S
H1800 C1821 0.950 . S
H1801 C1824 0.950 . S
H1802 C1825 0.950 . S
H1803 C1827 0.950 . S
H1804 C1828 0.950 . S
H1805 C1829 0.951 . S
H1806 C1831 0.951 . S
H1807 C1833 0.950 . S
H1808 C1834 0.950 . S
H1809 C1836 0.950 . S
H1810 C1839 0.950 . S
H1811 C1840 0.950 . S
H1812 C1842 0.950 . S
H1813 C1843 0.950 . S
C1814 H1796 0.951 . S
C1814 C1815 1.366 . S
C1814 C1816 1.388 . S
C1815 C1814 1.366 . S
C1815 C1819 1.385 . S
C1816 H1797 0.951 . S
C1816 C1814 1.388 . S
C1816 C1817 1.366 . S
C1817 C1816 1.366 . S
C1817 C1818 1.414 . S
C1817 C1820 1.499 . S
C1818 H1798 0.950 . S
C1818 C1817 1.414 . S
C1818 C1819 1.374 . S
C1819 H1799 0.950 . S
C1819 C1815 1.385 . S
C1819 C1818 1.374 . S
C1820 C1817 1.499 . S
C1820 C1821 1.373 . S
C1820 C1822 1.389 . S
C1821 H1800 0.950 . S
C1821 C1820 1.373 . S
C1821 C1837 1.377 . S
C1822 C1820 1.389 . S
C1822 C1823 1.524 . S
C1822 C1836 1.377 . S
C1823 C1822 1.524 . S
C1823 C1824 1.397 . S
C1823 C1828 1.363 . S
C1824 H1801 0.950 . S
C1824 C1823 1.397 . S
C1824 C1825 1.334 . S
C1825 H1802 0.950 . S
C1825 C1824 1.334 . S
C1825 C1826 1.287 . S
C1826 C1825 1.287 . S
C1826 C1827 1.524 . S
C1826 H1845 0.913 . S
C1827 H1803 0.950 . S
C1827 C1826 1.524 . S
C1827 C1828 1.415 . S
C1828 H1804 0.950 . S
C1828 C1823 1.363 . S
C1828 C1827 1.415 . S
C1829 H1805 0.951 . S
C1829 C1830 1.366 . S
C1829 C1831 1.388 . S
C1830 C1829 1.366 . S
C1830 C1834 1.385 . S
C1831 H1806 0.951 . S
C1831 C1829 1.388 . S
C1831 C1832 1.366 . S
C1832 C1831 1.366 . S
C1832 C1833 1.414 . S
C1832 C1835 1.499 . S
C1833 H1807 0.950 . S
C1833 C1832 1.414 . S
C1833 C1834 1.374 . S
C1834 H1808 0.950 . S
C1834 C1830 1.385 . S
C1834 C1833 1.374 . S
C1835 C1832 1.499 . S
C1835 C1836 1.373 . S
C1835 C1837 1.389 . S
C1836 H1809 0.950 . S
C1836 C1822 1.377 . S
C1836 C1835 1.373 . S
C1837 C1821 1.377 . S
C1837 C1835 1.389 . S
C1837 C1838 1.524 . S
C1838 C1837 1.524 . S
C1838 C1839 1.397 . S
C1838 C1843 1.363 . S
C1839 H1810 0.950 . S
C1839 C1838 1.397 . S
C1839 C1840 1.334 . S
C1840 H1811 0.950 . S
C1840 C1839 1.334 . S
C1840 C1841 1.287 . S
C1841 C1840 1.287 . S
C1841 C1842 1.524 . S
C1841 H1844 0.999 . S
C1842 H1812 0.950 . S
C1842 C1841 1.524 . S
C1842 C1843 1.415 . S
C1843 H1813 0.950 . S
C1843 C1838 1.363 . S
C1843 C1842 1.415 . S
H1844 C1841 0.999 . S
H1845 C1826 0.913 . S
H1846 C1864 0.951 . S
H1847 C1866 0.951 . S
H1848 C1868 0.950 . S
H1849 C1869 0.950 . S
H1850 C1871 0.950 . S
H1851 C1874 0.950 . S
H1852 C1875 0.950 . S
H1853 C1877 0.950 . S
H1854 C1878 0.950 . S
H1855 C1879 0.951 . S
H1856 C1881 0.951 . S
H1857 C1883 0.950 . S
H1858 C1884 0.950 . S
H1859 C1886 0.950 . S
H1860 C1889 0.950 . S
H1861 C1890 0.950 . S
H1862 C1892 0.950 . S
H1863 C1893 0.950 . S
C1864 H1846 0.951 . S
C1864 C1865 1.366 . S
C1864 C1866 1.388 . S
C1865 C1864 1.366 . S
C1865 C1869 1.385 . S
C1866 H1847 0.951 . S
C1866 C1864 1.388 . S
C1866 C1867 1.366 . S
C1867 C1866 1.366 . S
C1867 C1868 1.414 . S
C1867 C1870 1.499 . S
C1868 H1848 0.950 . S
C1868 C1867 1.414 . S
C1868 C1869 1.374 . S
C1869 H1849 0.950 . S
C1869 C1865 1.385 . S
C1869 C1868 1.374 . S
C1870 C1867 1.499 . S
C1870 C1871 1.373 . S
C1870 C1872 1.389 . S
C1871 H1850 0.950 . S
C1871 C1870 1.373 . S
C1871 C1887 1.377 . S
C1872 C1870 1.389 . S
C1872 C1873 1.524 . S
C1872 C1886 1.377 . S
C1873 C1872 1.524 . S
C1873 C1874 1.397 . S
C1873 C1878 1.363 . S
C1874 H1851 0.950 . S
C1874 C1873 1.397 . S
C1874 C1875 1.334 . S
C1875 H1852 0.950 . S
C1875 C1874 1.334 . S
C1875 C1876 1.287 . S
C1876 C1875 1.287 . S
C1876 C1877 1.524 . S
C1876 H1895 0.913 . S
C1877 H1853 0.950 . S
C1877 C1876 1.524 . S
C1877 C1878 1.415 . S
C1878 H1854 0.950 . S
C1878 C1873 1.363 . S
C1878 C1877 1.415 . S
C1879 H1855 0.951 . S
C1879 C1880 1.366 . S
C1879 C1881 1.388 . S
C1880 C1879 1.366 . S
C1880 C1884 1.385 . S
C1881 H1856 0.951 . S
C1881 C1879 1.388 . S
C1881 C1882 1.366 . S
C1882 C1881 1.366 . S
C1882 C1883 1.414 . S
C1882 C1885 1.499 . S
C1883 H1857 0.950 . S
C1883 C1882 1.414 . S
C1883 C1884 1.374 . S
C1884 H1858 0.950 . S
C1884 C1880 1.385 . S
C1884 C1883 1.374 . S
C1885 C1882 1.499 . S
C1885 C1886 1.373 . S
C1885 C1887 1.389 . S
C1886 H1859 0.950 . S
C1886 C1872 1.377 . S
C1886 C1885 1.373 . S
C1887 C1871 1.377 . S
C1887 C1885 1.389 . S
C1887 C1888 1.524 . S
C1888 C1887 1.524 . S
C1888 C1889 1.397 . S
C1888 C1893 1.363 . S
C1889 H1860 0.950 . S
C1889 C1888 1.397 . S
C1889 C1890 1.334 . S
C1890 H1861 0.950 . S
C1890 C1889 1.334 . S
C1890 C1891 1.287 . S
C1891 C1890 1.287 . S
C1891 C1892 1.524 . S
C1891 H1894 0.999 . S
C1892 H1862 0.950 . S
C1892 C1891 1.524 . S
C1892 C1893 1.415 . S
C1893 H1863 0.950 . S
C1893 C1888 1.363 . S
C1893 C1892 1.415 . S
H1894 C1891 0.999 . S
H1895 C1876 0.913 . S
H1896 C1914 0.951 . S
H1897 C1916 0.951 . S
H1898 C1918 0.950 . S
H1899 C1919 0.950 . S
H1900 C1921 0.950 . S
H1901 C1924 0.950 . S
H1902 C1925 0.950 . S
H1903 C1927 0.950 . S
H1904 C1928 0.950 . S
H1905 C1929 0.951 . S
H1906 C1931 0.951 . S
H1907 C1933 0.950 . S
H1908 C1934 0.950 . S
H1909 C1936 0.950 . S
H1910 C1939 0.950 . S
H1911 C1940 0.950 . S
H1912 C1942 0.950 . S
H1913 C1943 0.950 . S
C1914 H1896 0.951 . S
C1914 C1915 1.366 . S
C1914 C1916 1.388 . S
C1915 C1914 1.366 . S
C1915 C1919 1.385 . S
C1916 H1897 0.951 . S
C1916 C1914 1.388 . S
C1916 C1917 1.366 . S
C1917 C1916 1.366 . S
C1917 C1918 1.414 . S
C1917 C1920 1.499 . S
C1918 H1898 0.950 . S
C1918 C1917 1.414 . S
C1918 C1919 1.374 . S
C1919 H1899 0.950 . S
C1919 C1915 1.385 . S
C1919 C1918 1.374 . S
C1920 C1917 1.499 . S
C1920 C1921 1.373 . S
C1920 C1922 1.389 . S
C1921 H1900 0.950 . S
C1921 C1920 1.373 . S
C1921 C1937 1.377 . S
C1922 C1920 1.389 . S
C1922 C1923 1.524 . S
C1922 C1936 1.377 . S
C1923 C1922 1.524 . S
C1923 C1924 1.397 . S
C1923 C1928 1.363 . S
C1924 H1901 0.950 . S
C1924 C1923 1.397 . S
C1924 C1925 1.334 . S
C1925 H1902 0.950 . S
C1925 C1924 1.334 . S
C1925 C1926 1.287 . S
C1926 C1925 1.287 . S
C1926 C1927 1.524 . S
C1926 H1945 0.913 . S
C1927 H1903 0.950 . S
C1927 C1926 1.524 . S
C1927 C1928 1.415 . S
C1928 H1904 0.950 . S
C1928 C1923 1.363 . S
C1928 C1927 1.415 . S
C1929 H1905 0.951 . S
C1929 C1930 1.366 . S
C1929 C1931 1.388 . S
C1930 C1929 1.366 . S
C1930 C1934 1.385 . S
C1931 H1906 0.951 . S
C1931 C1929 1.388 . S
C1931 C1932 1.366 . S
C1932 C1931 1.366 . S
C1932 C1933 1.414 . S
C1932 C1935 1.499 . S
C1933 H1907 0.950 . S
C1933 C1932 1.414 . S
C1933 C1934 1.374 . S
C1934 H1908 0.950 . S
C1934 C1930 1.385 . S
C1934 C1933 1.374 . S
C1935 C1932 1.499 . S
C1935 C1936 1.373 . S
C1935 C1937 1.389 . S
C1936 H1909 0.950 . S
C1936 C1922 1.377 . S
C1936 C1935 1.373 . S
C1937 C1921 1.377 . S
C1937 C1935 1.389 . S
C1937 C1938 1.524 . S
C1938 C1937 1.524 . S
C1938 C1939 1.397 . S
C1938 C1943 1.363 . S
C1939 H1910 0.950 . S
C1939 C1938 1.397 . S
C1939 C1940 1.334 . S
C1940 H1911 0.950 . S
C1940 C1939 1.334 . S
C1940 C1941 1.287 . S
C1941 C1940 1.287 . S
C1941 C1942 1.524 . S
C1941 H1944 0.999 . S
C1942 H1912 0.950 . S
C1942 C1941 1.524 . S
C1942 C1943 1.415 . S
C1943 H1913 0.950 . S
C1943 C1938 1.363 . S
C1943 C1942 1.415 . S
H1944 C1941 0.999 . S
H1945 C1926 0.913 . S
H1946 C1964 0.951 . S
H1947 C1966 0.951 . S
H1948 C1968 0.950 . S
H1949 C1969 0.950 . S
H1950 C1971 0.950 . S
H1951 C1974 0.950 . S
H1952 C1975 0.950 . S
H1953 C1977 0.950 . S
H1954 C1978 0.950 . S
H1955 C1979 0.951 . S
H1956 C1981 0.951 . S
H1957 C1983 0.950 . S
H1958 C1984 0.950 . S
H1959 C1986 0.950 . S
H1960 C1989 0.950 . S
H1961 C1990 0.950 . S
H1962 C1992 0.950 . S
H1963 C1993 0.950 . S
C1964 H1946 0.951 . S
C1964 C1965 1.366 . S
C1964 C1966 1.388 . S
C1965 C1964 1.366 . S
C1965 C1969 1.385 . S
C1966 H1947 0.951 . S
C1966 C1964 1.388 . S
C1966 C1967 1.366 . S
C1967 C1966 1.366 . S
C1967 C1968 1.414 . S
C1967 C1970 1.499 . S
C1968 H1948 0.950 . S
C1968 C1967 1.414 . S
C1968 C1969 1.374 . S
C1969 H1949 0.950 . S
C1969 C1965 1.385 . S
C1969 C1968 1.374 . S
C1970 C1967 1.499 . S
C1970 C1971 1.373 . S
C1970 C1972 1.389 . S
C1971 H1950 0.950 . S
C1971 C1970 1.373 . S
C1971 C1987 1.377 . S
C1972 C1970 1.389 . S
C1972 C1973 1.524 . S
C1972 C1986 1.377 . S
C1973 C1972 1.524 . S
C1973 C1974 1.397 . S
C1973 C1978 1.363 . S
C1974 H1951 0.950 . S
C1974 C1973 1.397 . S
C1974 C1975 1.334 . S
C1975 H1952 0.950 . S
C1975 C1974 1.334 . S
C1975 C1976 1.287 . S
C1976 C1975 1.287 . S
C1976 C1977 1.524 . S
C1976 H1995 0.913 . S
C1977 H1953 0.950 . S
C1977 C1976 1.524 . S
C1977 C1978 1.415 . S
C1978 H1954 0.950 . S
C1978 C1973 1.363 . S
C1978 C1977 1.415 . S
C1979 H1955 0.951 . S
C1979 C1980 1.366 . S
C1979 C1981 1.388 . S
C1980 C1979 1.366 . S
C1980 C1984 1.385 . S
C1981 H1956 0.951 . S
C1981 C1979 1.388 . S
C1981 C1982 1.366 . S
C1982 C1981 1.366 . S
C1982 C1983 1.414 . S
C1982 C1985 1.499 . S
C1983 H1957 0.950 . S
C1983 C1982 1.414 . S
C1983 C1984 1.374 . S
C1984 H1958 0.950 . S
C1984 C1980 1.385 . S
C1984 C1983 1.374 . S
C1985 C1982 1.499 . S
C1985 C1986 1.373 . S
C1985 C1987 1.389 . S
C1986 H1959 0.950 . S
C1986 C1972 1.377 . S
C1986 C1985 1.373 . S
C1987 C1971 1.377 . S
C1987 C1985 1.389 . S
C1987 C1988 1.524 . S
C1988 C1987 1.524 . S
C1988 C1989 1.397 . S
C1988 C1993 1.363 . S
C1989 H1960 0.950 . S
C1989 C1988 1.397 . S
C1989 C1990 1.334 . S
C1990 H1961 0.950 . S
C1990 C1989 1.334 . S
C1990 C1991 1.287 . S
C1991 C1990 1.287 . S
C1991 C1992 1.524 . S
C1991 H1994 0.999 . S
C1992 H1962 0.950 . S
C1992 C1991 1.524 . S
C1992 C1993 1.415 . S
C1993 H1963 0.950 . S
C1993 C1988 1.363 . S
C1993 C1992 1.415 . S
H1994 C1991 0.999 . S
H1995 C1976 0.913 . S
H1996 C2014 0.951 . S
H1997 C2016 0.951 . S
H1998 C2018 0.950 . S
H1999 C2019 0.950 . S
H2000 C2021 0.950 . S
H2001 C2024 0.950 . S
H2002 C2025 0.950 . S
H2003 C2027 0.950 . S
H2004 C2028 0.950 . S
H2005 C2029 0.951 . S
H2006 C2031 0.951 . S
H2007 C2033 0.950 . S
H2008 C2034 0.950 . S
H2009 C2036 0.950 . S
H2010 C2039 0.950 . S
H2011 C2040 0.950 . S
H2012 C2042 0.950 . S
H2013 C2043 0.950 . S
C2014 H1996 0.951 . S
C2014 C2015 1.366 . S
C2014 C2016 1.388 . S
C2015 C2014 1.366 . S
C2015 C2019 1.385 . S
C2016 H1997 0.951 . S
C2016 C2014 1.388 . S
C2016 C2017 1.366 . S
C2017 C2016 1.366 . S
C2017 C2018 1.414 . S
C2017 C2020 1.499 . S
C2018 H1998 0.950 . S
C2018 C2017 1.414 . S
C2018 C2019 1.374 . S
C2019 H1999 0.950 . S
C2019 C2015 1.385 . S
C2019 C2018 1.374 . S
C2020 C2017 1.499 . S
C2020 C2021 1.373 . S
C2020 C2022 1.389 . S
C2021 H2000 0.950 . S
C2021 C2020 1.373 . S
C2021 C2037 1.377 . S
C2022 C2020 1.389 . S
C2022 C2023 1.524 . S
C2022 C2036 1.377 . S
C2023 C2022 1.524 . S
C2023 C2024 1.397 . S
C2023 C2028 1.363 . S
C2024 H2001 0.950 . S
C2024 C2023 1.397 . S
C2024 C2025 1.334 . S
C2025 H2002 0.950 . S
C2025 C2024 1.334 . S
C2025 C2026 1.287 . S
C2026 C2025 1.287 . S
C2026 C2027 1.524 . S
C2026 H2045 0.913 . S
C2027 H2003 0.950 . S
C2027 C2026 1.524 . S
C2027 C2028 1.415 . S
C2028 H2004 0.950 . S
C2028 C2023 1.363 . S
C2028 C2027 1.415 . S
C2029 H2005 0.951 . S
C2029 C2030 1.366 . S
C2029 C2031 1.388 . S
C2030 C2029 1.366 . S
C2030 C2034 1.385 . S
C2031 H2006 0.951 . S
C2031 C2029 1.388 . S
C2031 C2032 1.366 . S
C2032 C2031 1.366 . S
C2032 C2033 1.414 . S
C2032 C2035 1.499 . S
C2033 H2007 0.950 . S
C2033 C2032 1.414 . S
C2033 C2034 1.374 . S
C2034 H2008 0.950 . S
C2034 C2030 1.385 . S
C2034 C2033 1.374 . S
C2035 C2032 1.499 . S
C2035 C2036 1.373 . S
C2035 C2037 1.389 . S
C2036 H2009 0.950 . S
C2036 C2022 1.377 . S
C2036 C2035 1.373 . S
C2037 C2021 1.377 . S
C2037 C2035 1.389 . S
C2037 C2038 1.524 . S
C2038 C2037 1.524 . S
C2038 C2039 1.397 . S
C2038 C2043 1.363 . S
C2039 H2010 0.950 . S
C2039 C2038 1.397 . S
C2039 C2040 1.334 . S
C2040 H2011 0.950 . S
C2040 C2039 1.334 . S
C2040 C2041 1.287 . S
C2041 C2040 1.287 . S
C2041 C2042 1.524 . S
C2041 H2044 0.999 . S
C2042 H2012 0.950 . S
C2042 C2041 1.524 . S
C2042 C2043 1.415 . S
C2043 H2013 0.950 . S
C2043 C2038 1.363 . S
C2043 C2042 1.415 . S
H2044 C2041 0.999 . S
H2045 C2026 0.913 . S
H2046 C2064 0.951 . S
H2047 C2066 0.951 . S
H2048 C2068 0.950 . S
H2049 C2069 0.950 . S
H2050 C2071 0.950 . S
H2051 C2074 0.950 . S
H2052 C2075 0.950 . S
H2053 C2077 0.950 . S
H2054 C2078 0.950 . S
H2055 C2079 0.951 . S
H2056 C2081 0.951 . S
H2057 C2083 0.950 . S
H2058 C2084 0.950 . S
H2059 C2086 0.950 . S
H2060 C2089 0.950 . S
H2061 C2090 0.950 . S
H2062 C2092 0.950 . S
H2063 C2093 0.950 . S
C2064 H2046 0.951 . S
C2064 C2065 1.366 . S
C2064 C2066 1.388 . S
C2065 C2064 1.366 . S
C2065 C2069 1.385 . S
C2066 H2047 0.951 . S
C2066 C2064 1.388 . S
C2066 C2067 1.366 . S
C2067 C2066 1.366 . S
C2067 C2068 1.414 . S
C2067 C2070 1.499 . S
C2068 H2048 0.950 . S
C2068 C2067 1.414 . S
C2068 C2069 1.374 . S
C2069 H2049 0.950 . S
C2069 C2065 1.385 . S
C2069 C2068 1.374 . S
C2070 C2067 1.499 . S
C2070 C2071 1.373 . S
C2070 C2072 1.389 . S
C2071 H2050 0.950 . S
C2071 C2070 1.373 . S
C2071 C2087 1.377 . S
C2072 C2070 1.389 . S
C2072 C2073 1.524 . S
C2072 C2086 1.377 . S
C2073 C2072 1.524 . S
C2073 C2074 1.397 . S
C2073 C2078 1.363 . S
C2074 H2051 0.950 . S
C2074 C2073 1.397 . S
C2074 C2075 1.334 . S
C2075 H2052 0.950 . S
C2075 C2074 1.334 . S
C2075 C2076 1.287 . S
C2076 C2075 1.287 . S
C2076 C2077 1.524 . S
C2076 H2095 0.913 . S
C2077 H2053 0.950 . S
C2077 C2076 1.524 . S
C2077 C2078 1.415 . S
C2078 H2054 0.950 . S
C2078 C2073 1.363 . S
C2078 C2077 1.415 . S
C2079 H2055 0.951 . S
C2079 C2080 1.366 . S
C2079 C2081 1.388 . S
C2080 C2079 1.366 . S
C2080 C2084 1.385 . S
C2081 H2056 0.951 . S
C2081 C2079 1.388 . S
C2081 C2082 1.366 . S
C2082 C2081 1.366 . S
C2082 C2083 1.414 . S
C2082 C2085 1.499 . S
C2083 H2057 0.950 . S
C2083 C2082 1.414 . S
C2083 C2084 1.374 . S
C2084 H2058 0.950 . S
C2084 C2080 1.385 . S
C2084 C2083 1.374 . S
C2085 C2082 1.499 . S
C2085 C2086 1.373 . S
C2085 C2087 1.389 . S
C2086 H2059 0.950 . S
C2086 C2072 1.377 . S
C2086 C2085 1.373 . S
C2087 C2071 1.377 . S
C2087 C2085 1.389 . S
C2087 C2088 1.524 . S
C2088 C2087 1.524 . S
C2088 C2089 1.397 . S
C2088 C2093 1.363 . S
C2089 H2060 0.950 . S
C2089 C2088 1.397 . S
C2089 C2090 1.334 . S
C2090 H2061 0.950 . S
C2090 C2089 1.334 . S
C2090 C2091 1.287 . S
C2091 C2090 1.287 . S
C2091 C2092 1.524 . S
C2091 H2094 0.999 . S
C2092 H2062 0.950 . S
C2092 C2091 1.524 . S
C2092 C2093 1.415 . S
C2093 H2063 0.950 . S
C2093 C2088 1.363 . S
C2093 C2092 1.415 . S
H2094 C2091 0.999 . S
H2095 C2076 0.913 . S
H2096 C2114 0.951 . S
H2097 C2116 0.951 . S
H2098 C2118 0.950 . S
H2099 C2119 0.950 . S
H2100 C2121 0.950 . S
H2101 C2124 0.950 . S
H2102 C2125 0.950 . S
H2103 C2127 0.950 . S
H2104 C2128 0.950 . S
H2105 C2129 0.951 . S
H2106 C2131 0.951 . S
H2107 C2133 0.950 . S
H2108 C2134 0.950 . S
H2109 C2136 0.950 . S
H2110 C2139 0.950 . S
H2111 C2140 0.950 . S
H2112 C2142 0.950 . S
H2113 C2143 0.950 . S
C2114 H2096 0.951 . S
C2114 C2115 1.366 . S
C2114 C2116 1.388 . S
C2115 C2114 1.366 . S
C2115 C2119 1.385 . S
C2116 H2097 0.951 . S
C2116 C2114 1.388 . S
C2116 C2117 1.366 . S
C2117 C2116 1.366 . S
C2117 C2118 1.414 . S
C2117 C2120 1.499 . S
C2118 H2098 0.950 . S
C2118 C2117 1.414 . S
C2118 C2119 1.374 . S
C2119 H2099 0.950 . S
C2119 C2115 1.385 . S
C2119 C2118 1.374 . S
C2120 C2117 1.499 . S
C2120 C2121 1.373 . S
C2120 C2122 1.389 . S
C2121 H2100 0.950 . S
C2121 C2120 1.373 . S
C2121 C2137 1.377 . S
C2122 C2120 1.389 . S
C2122 C2123 1.524 . S
C2122 C2136 1.377 . S
C2123 C2122 1.524 . S
C2123 C2124 1.397 . S
C2123 C2128 1.363 . S
C2124 H2101 0.950 . S
C2124 C2123 1.397 . S
C2124 C2125 1.334 . S
C2125 H2102 0.950 . S
C2125 C2124 1.334 . S
C2125 C2126 1.287 . S
C2126 C2125 1.287 . S
C2126 C2127 1.524 . S
C2126 H2145 0.913 . S
C2127 H2103 0.950 . S
C2127 C2126 1.524 . S
C2127 C2128 1.415 . S
C2128 H2104 0.950 . S
C2128 C2123 1.363 . S
C2128 C2127 1.415 . S
C2129 H2105 0.951 . S
C2129 C2130 1.366 . S
C2129 C2131 1.388 . S
C2130 C2129 1.366 . S
C2130 C2134 1.385 . S
C2131 H2106 0.951 . S
C2131 C2129 1.388 . S
C2131 C2132 1.366 . S
C2132 C2131 1.366 . S
C2132 C2133 1.414 . S
C2132 C2135 1.499 . S
C2133 H2107 0.950 . S
C2133 C2132 1.414 . S
C2133 C2134 1.374 . S
C2134 H2108 0.950 . S
C2134 C2130 1.385 . S
C2134 C2133 1.374 . S
C2135 C2132 1.499 . S
C2135 C2136 1.373 . S
C2135 C2137 1.389 . S
C2136 H2109 0.950 . S
C2136 C2122 1.377 . S
C2136 C2135 1.373 . S
C2137 C2121 1.377 . S
C2137 C2135 1.389 . S
C2137 C2138 1.524 . S
C2138 C2137 1.524 . S
C2138 C2139 1.397 . S
C2138 C2143 1.363 . S
C2139 H2110 0.950 . S
C2139 C2138 1.397 . S
C2139 C2140 1.334 . S
C2140 H2111 0.950 . S
C2140 C2139 1.334 . S
C2140 C2141 1.287 . S
C2141 C2140 1.287 . S
C2141 C2142 1.524 . S
C2141 H2144 0.999 . S
C2142 H2112 0.950 . S
C2142 C2141 1.524 . S
C2142 C2143 1.415 . S
C2143 H2113 0.950 . S
C2143 C2138 1.363 . S
C2143 C2142 1.415 . S
H2144 C2141 0.999 . S
H2145 C2126 0.913 . S
H2146 C2164 0.951 . S
H2147 C2166 0.951 . S
H2148 C2168 0.950 . S
H2149 C2169 0.950 . S
H2150 C2171 0.950 . S
H2151 C2174 0.950 . S
H2152 C2175 0.950 . S
H2153 C2177 0.950 . S
H2154 C2178 0.950 . S
H2155 C2179 0.951 . S
H2156 C2181 0.951 . S
H2157 C2183 0.950 . S
H2158 C2184 0.950 . S
H2159 C2186 0.950 . S
H2160 C2189 0.950 . S
H2161 C2190 0.950 . S
H2162 C2192 0.950 . S
H2163 C2193 0.950 . S
C2164 H2146 0.951 . S
C2164 C2165 1.366 . S
C2164 C2166 1.388 . S
C2165 C2164 1.366 . S
C2165 C2169 1.385 . S
C2166 H2147 0.951 . S
C2166 C2164 1.388 . S
C2166 C2167 1.366 . S
C2167 C2166 1.366 . S
C2167 C2168 1.414 . S
C2167 C2170 1.499 . S
C2168 H2148 0.950 . S
C2168 C2167 1.414 . S
C2168 C2169 1.374 . S
C2169 H2149 0.950 . S
C2169 C2165 1.385 . S
C2169 C2168 1.374 . S
C2170 C2167 1.499 . S
C2170 C2171 1.373 . S
C2170 C2172 1.389 . S
C2171 H2150 0.950 . S
C2171 C2170 1.373 . S
C2171 C2187 1.377 . S
C2172 C2170 1.389 . S
C2172 C2173 1.524 . S
C2172 C2186 1.377 . S
C2173 C2172 1.524 . S
C2173 C2174 1.397 . S
C2173 C2178 1.363 . S
C2174 H2151 0.950 . S
C2174 C2173 1.397 . S
C2174 C2175 1.334 . S
C2175 H2152 0.950 . S
C2175 C2174 1.334 . S
C2175 C2176 1.287 . S
C2176 C2175 1.287 . S
C2176 C2177 1.524 . S
C2176 H2195 0.913 . S
C2177 H2153 0.950 . S
C2177 C2176 1.524 . S
C2177 C2178 1.415 . S
C2178 H2154 0.950 . S
C2178 C2173 1.363 . S
C2178 C2177 1.415 . S
C2179 H2155 0.951 . S
C2179 C2180 1.366 . S
C2179 C2181 1.388 . S
C2180 C2179 1.366 . S
C2180 C2184 1.385 . S
C2181 H2156 0.951 . S
C2181 C2179 1.388 . S
C2181 C2182 1.366 . S
C2182 C2181 1.366 . S
C2182 C2183 1.414 . S
C2182 C2185 1.499 . S
C2183 H2157 0.950 . S
C2183 C2182 1.414 . S
C2183 C2184 1.374 . S
C2184 H2158 0.950 . S
C2184 C2180 1.385 . S
C2184 C2183 1.374 . S
C2185 C2182 1.499 . S
C2185 C2186 1.373 . S
C2185 C2187 1.389 . S
C2186 H2159 0.950 . S
C2186 C2172 1.377 . S
C2186 C2185 1.373 . S
C2187 C2171 1.377 . S
C2187 C2185 1.389 . S
C2187 C2188 1.524 . S
C2188 C2187 1.524 . S
C2188 C2189 1.397 . S
C2188 C2193 1.363 . S
C2189 H2160 0.950 . S
C2189 C2188 1.397 . S
C2189 C2190 1.334 . S
C2190 H2161 0.950 . S
C2190 C2189 1.334 . S
C2190 C2191 1.287 . S
C2191 C2190 1.287 . S
C2191 C2192 1.524 . S
C2191 H2194 0.999 . S
C2192 H2162 0.950 . S
C2192 C2191 1.524 . S
C2192 C2193 1.415 . S
C2193 H2163 0.950 . S
C2193 C2188 1.363 . S
C2193 C2192 1.415 . S
H2194 C2191 0.999 . S
H2195 C2176 0.913 . S
H2196 C2214 0.951 . S
H2197 C2216 0.951 . S
H2198 C2218 0.950 . S
H2199 C2219 0.950 . S
H2200 C2221 0.950 . S
H2201 C2224 0.950 . S
H2202 C2225 0.950 . S
H2203 C2227 0.950 . S
H2204 C2228 0.950 . S
H2205 C2229 0.951 . S
H2206 C2231 0.951 . S
H2207 C2233 0.950 . S
H2208 C2234 0.950 . S
H2209 C2236 0.950 . S
H2210 C2239 0.950 . S
H2211 C2240 0.950 . S
H2212 C2242 0.950 . S
H2213 C2243 0.950 . S
C2214 H2196 0.951 . S
C2214 C2215 1.366 . S
C2214 C2216 1.388 . S
C2215 C2214 1.366 . S
C2215 C2219 1.385 . S
C2216 H2197 0.951 . S
C2216 C2214 1.388 . S
C2216 C2217 1.366 . S
C2217 C2216 1.366 . S
C2217 C2218 1.414 . S
C2217 C2220 1.499 . S
C2218 H2198 0.950 . S
C2218 C2217 1.414 . S
C2218 C2219 1.374 . S
C2219 H2199 0.950 . S
C2219 C2215 1.385 . S
C2219 C2218 1.374 . S
C2220 C2217 1.499 . S
C2220 C2221 1.373 . S
C2220 C2222 1.389 . S
C2221 H2200 0.950 . S
C2221 C2220 1.373 . S
C2221 C2237 1.377 . S
C2222 C2220 1.389 . S
C2222 C2223 1.524 . S
C2222 C2236 1.377 . S
C2223 C2222 1.524 . S
C2223 C2224 1.397 . S
C2223 C2228 1.363 . S
C2224 H2201 0.950 . S
C2224 C2223 1.397 . S
C2224 C2225 1.334 . S
C2225 H2202 0.950 . S
C2225 C2224 1.334 . S
C2225 C2226 1.287 . S
C2226 C2225 1.287 . S
C2226 C2227 1.524 . S
C2226 H2245 0.913 . S
C2227 H2203 0.950 . S
C2227 C2226 1.524 . S
C2227 C2228 1.415 . S
C2228 H2204 0.950 . S
C2228 C2223 1.363 . S
C2228 C2227 1.415 . S
C2229 H2205 0.951 . S
C2229 C2230 1.366 . S
C2229 C2231 1.388 . S
C2230 C2229 1.366 . S
C2230 C2234 1.385 . S
C2231 H2206 0.951 . S
C2231 C2229 1.388 . S
C2231 C2232 1.366 . S
C2232 C2231 1.366 . S
C2232 C2233 1.414 . S
C2232 C2235 1.499 . S
C2233 H2207 0.950 . S
C2233 C2232 1.414 . S
C2233 C2234 1.374 . S
C2234 H2208 0.950 . S
C2234 C2230 1.385 . S
C2234 C2233 1.374 . S
C2235 C2232 1.499 . S
C2235 C2236 1.373 . S
C2235 C2237 1.389 . S
C2236 H2209 0.950 . S
C2236 C2222 1.377 . S
C2236 C2235 1.373 . S
C2237 C2221 1.377 . S
C2237 C2235 1.389 . S
C2237 C2238 1.524 . S
C2238 C2237 1.524 . S
C2238 C2239 1.397 . S
C2238 C2243 1.363 . S
C2239 H2210 0.950 . S
C2239 C2238 1.397 . S
C2239 C2240 1.334 . S
C2240 H2211 0.950 . S
C2240 C2239 1.334 . S
C2240 C2241 1.287 . S
C2241 C2240 1.287 . S
C2241 C2242 1.524 . S
C2241 H2244 0.999 . S
C2242 H2212 0.950 . S
C2242 C2241 1.524 . S
C2242 C2243 1.415 . S
C2243 H2213 0.950 . S
C2243 C2238 1.363 . S
C2243 C2242 1.415 . S
H2244 C2241 0.999 . S
H2245 C2226 0.913 . S
H2246 C2264 0.951 . S
H2247 C2266 0.951 . S
H2248 C2268 0.950 . S
H2249 C2269 0.950 . S
H2250 C2271 0.950 . S
H2251 C2274 0.950 . S
H2252 C2275 0.950 . S
H2253 C2277 0.950 . S
H2254 C2278 0.950 . S
H2255 C2279 0.951 . S
H2256 C2281 0.951 . S
H2257 C2283 0.950 . S
H2258 C2284 0.950 . S
H2259 C2286 0.950 . S
H2260 C2289 0.950 . S
H2261 C2290 0.950 . S
H2262 C2292 0.950 . S
H2263 C2293 0.950 . S
C2264 H2246 0.951 . S
C2264 C2265 1.366 . S
C2264 C2266 1.388 . S
C2265 C2264 1.366 . S
C2265 C2269 1.385 . S
C2266 H2247 0.951 . S
C2266 C2264 1.388 . S
C2266 C2267 1.366 . S
C2267 C2266 1.366 . S
C2267 C2268 1.414 . S
C2267 C2270 1.499 . S
C2268 H2248 0.950 . S
C2268 C2267 1.414 . S
C2268 C2269 1.374 . S
C2269 H2249 0.950 . S
C2269 C2265 1.385 . S
C2269 C2268 1.374 . S
C2270 C2267 1.499 . S
C2270 C2271 1.373 . S
C2270 C2272 1.389 . S
C2271 H2250 0.950 . S
C2271 C2270 1.373 . S
C2271 C2287 1.377 . S
C2272 C2270 1.389 . S
C2272 C2273 1.524 . S
C2272 C2286 1.377 . S
C2273 C2272 1.524 . S
C2273 C2274 1.397 . S
C2273 C2278 1.363 . S
C2274 H2251 0.950 . S
C2274 C2273 1.397 . S
C2274 C2275 1.334 . S
C2275 H2252 0.950 . S
C2275 C2274 1.334 . S
C2275 C2276 1.287 . S
C2276 C2275 1.287 . S
C2276 C2277 1.524 . S
C2276 H2295 0.913 . S
C2277 H2253 0.950 . S
C2277 C2276 1.524 . S
C2277 C2278 1.415 . S
C2278 H2254 0.950 . S
C2278 C2273 1.363 . S
C2278 C2277 1.415 . S
C2279 H2255 0.951 . S
C2279 C2280 1.366 . S
C2279 C2281 1.388 . S
C2280 C2279 1.366 . S
C2280 C2284 1.385 . S
C2281 H2256 0.951 . S
C2281 C2279 1.388 . S
C2281 C2282 1.366 . S
C2282 C2281 1.366 . S
C2282 C2283 1.414 . S
C2282 C2285 1.499 . S
C2283 H2257 0.950 . S
C2283 C2282 1.414 . S
C2283 C2284 1.374 . S
C2284 H2258 0.950 . S
C2284 C2280 1.385 . S
C2284 C2283 1.374 . S
C2285 C2282 1.499 . S
C2285 C2286 1.373 . S
C2285 C2287 1.389 . S
C2286 H2259 0.950 . S
C2286 C2272 1.377 . S
C2286 C2285 1.373 . S
C2287 C2271 1.377 . S
C2287 C2285 1.389 . S
C2287 C2288 1.524 . S
C2288 C2287 1.524 . S
C2288 C2289 1.397 . S
C2288 C2293 1.363 . S
C2289 H2260 0.950 . S
C2289 C2288 1.397 . S
C2289 C2290 1.334 . S
C2290 H2261 0.950 . S
C2290 C2289 1.334 . S
C2290 C2291 1.287 . S
C2291 C2290 1.287 . S
C2291 C2292 1.524 . S
C2291 H2294 0.999 . S
C2292 H2262 0.950 . S
C2292 C2291 1.524 . S
C2292 C2293 1.415 . S
C2293 H2263 0.950 . S
C2293 C2288 1.363 . S
C2293 C2292 1.415 . S
H2294 C2291 0.999 . S
H2295 C2276 0.913 . S
H2296 C2314 0.951 . S
H2297 C2316 0.951 . S
H2298 C2318 0.950 . S
H2299 C2319 0.950 . S
H2300 C2321 0.950 . S
H2301 C2324 0.950 . S
H2302 C2325 0.950 . S
H2303 C2327 0.950 . S
H2304 C2328 0.950 . S
H2305 C2329 0.951 . S
H2306 C2331 0.951 . S
H2307 C2333 0.950 . S
H2308 C2334 0.950 . S
H2309 C2336 0.950 . S
H2310 C2339 0.950 . S
H2311 C2340 0.950 . S
H2312 C2342 0.950 . S
H2313 C2343 0.950 . S
C2314 H2296 0.951 . S
C2314 C2315 1.366 . S
C2314 C2316 1.388 . S
C2315 C2314 1.366 . S
C2315 C2319 1.385 . S
C2316 H2297 0.951 . S
C2316 C2314 1.388 . S
C2316 C2317 1.366 . S
C2317 C2316 1.366 . S
C2317 C2318 1.414 . S
C2317 C2320 1.499 . S
C2318 H2298 0.950 . S
C2318 C2317 1.414 . S
C2318 C2319 1.374 . S
C2319 H2299 0.950 . S
C2319 C2315 1.385 . S
C2319 C2318 1.374 . S
C2320 C2317 1.499 . S
C2320 C2321 1.373 . S
C2320 C2322 1.389 . S
C2321 H2300 0.950 . S
C2321 C2320 1.373 . S
C2321 C2337 1.377 . S
C2322 C2320 1.389 . S
C2322 C2323 1.524 . S
C2322 C2336 1.377 . S
C2323 C2322 1.524 . S
C2323 C2324 1.397 . S
C2323 C2328 1.363 . S
C2324 H2301 0.950 . S
C2324 C2323 1.397 . S
C2324 C2325 1.334 . S
C2325 H2302 0.950 . S
C2325 C2324 1.334 . S
C2325 C2326 1.287 . S
C2326 C2325 1.287 . S
C2326 C2327 1.524 . S
C2326 H2345 0.913 . S
C2327 H2303 0.950 . S
C2327 C2326 1.524 . S
C2327 C2328 1.415 . S
C2328 H2304 0.950 . S
C2328 C2323 1.363 . S
C2328 C2327 1.415 . S
C2329 H2305 0.951 . S
C2329 C2330 1.366 . S
C2329 C2331 1.388 . S
C2330 C2329 1.366 . S
C2330 C2334 1.385 . S
C2331 H2306 0.951 . S
C2331 C2329 1.388 . S
C2331 C2332 1.366 . S
C2332 C2331 1.366 . S
C2332 C2333 1.414 . S
C2332 C2335 1.499 . S
C2333 H2307 0.950 . S
C2333 C2332 1.414 . S
C2333 C2334 1.374 . S
C2334 H2308 0.950 . S
C2334 C2330 1.385 . S
C2334 C2333 1.374 . S
C2335 C2332 1.499 . S
C2335 C2336 1.373 . S
C2335 C2337 1.389 . S
C2336 H2309 0.950 . S
C2336 C2322 1.377 . S
C2336 C2335 1.373 . S
C2337 C2321 1.377 . S
C2337 C2335 1.389 . S
C2337 C2338 1.524 . S
C2338 C2337 1.524 . S
C2338 C2339 1.397 . S
C2338 C2343 1.363 . S
C2339 H2310 0.950 . S
C2339 C2338 1.397 . S
C2339 C2340 1.334 . S
C2340 H2311 0.950 . S
C2340 C2339 1.334 . S
C2340 C2341 1.287 . S
C2341 C2340 1.287 . S
C2341 C2342 1.524 . S
C2341 H2344 0.999 . S
C2342 H2312 0.950 . S
C2342 C2341 1.524 . S
C2342 C2343 1.415 . S
C2343 H2313 0.950 . S
C2343 C2338 1.363 . S
C2343 C2342 1.415 . S
H2344 C2341 0.999 . S
H2345 C2326 0.913 . S
H2346 C2364 0.951 . S
H2347 C2366 0.951 . S
H2348 C2368 0.950 . S
H2349 C2369 0.950 . S
H2350 C2371 0.950 . S
H2351 C2374 0.950 . S
H2352 C2375 0.950 . S
H2353 C2377 0.950 . S
H2354 C2378 0.950 . S
H2355 C2379 0.951 . S
H2356 C2381 0.951 . S
H2357 C2383 0.950 . S
H2358 C2384 0.950 . S
H2359 C2386 0.950 . S
H2360 C2389 0.950 . S
H2361 C2390 0.950 . S
H2362 C2392 0.950 . S
H2363 C2393 0.950 . S
C2364 H2346 0.951 . S
C2364 C2365 1.366 . S
C2364 C2366 1.388 . S
C2365 C2364 1.366 . S
C2365 C2369 1.385 . S
C2366 H2347 0.951 . S
C2366 C2364 1.388 . S
C2366 C2367 1.366 . S
C2367 C2366 1.366 . S
C2367 C2368 1.414 . S
C2367 C2370 1.499 . S
C2368 H2348 0.950 . S
C2368 C2367 1.414 . S
C2368 C2369 1.374 . S
C2369 H2349 0.950 . S
C2369 C2365 1.385 . S
C2369 C2368 1.374 . S
C2370 C2367 1.499 . S
C2370 C2371 1.373 . S
C2370 C2372 1.389 . S
C2371 H2350 0.950 . S
C2371 C2370 1.373 . S
C2371 C2387 1.377 . S
C2372 C2370 1.389 . S
C2372 C2373 1.524 . S
C2372 C2386 1.377 . S
C2373 C2372 1.524 . S
C2373 C2374 1.397 . S
C2373 C2378 1.363 . S
C2374 H2351 0.950 . S
C2374 C2373 1.397 . S
C2374 C2375 1.334 . S
C2375 H2352 0.950 . S
C2375 C2374 1.334 . S
C2375 C2376 1.287 . S
C2376 C2375 1.287 . S
C2376 C2377 1.524 . S
C2376 H2395 0.913 . S
C2377 H2353 0.950 . S
C2377 C2376 1.524 . S
C2377 C2378 1.415 . S
C2378 H2354 0.950 . S
C2378 C2373 1.363 . S
C2378 C2377 1.415 . S
C2379 H2355 0.951 . S
C2379 C2380 1.366 . S
C2379 C2381 1.388 . S
C2380 C2379 1.366 . S
C2380 C2384 1.385 . S
C2381 H2356 0.951 . S
C2381 C2379 1.388 . S
C2381 C2382 1.366 . S
C2382 C2381 1.366 . S
C2382 C2383 1.414 . S
C2382 C2385 1.499 . S
C2383 H2357 0.950 . S
C2383 C2382 1.414 . S
C2383 C2384 1.374 . S
C2384 H2358 0.950 . S
C2384 C2380 1.385 . S
C2384 C2383 1.374 . S
C2385 C2382 1.499 . S
C2385 C2386 1.373 . S
C2385 C2387 1.389 . S
C2386 H2359 0.950 . S
C2386 C2372 1.377 . S
C2386 C2385 1.373 . S
C2387 C2371 1.377 . S
C2387 C2385 1.389 . S
C2387 C2388 1.524 . S
C2388 C2387 1.524 . S
C2388 C2389 1.397 . S
C2388 C2393 1.363 . S
C2389 H2360 0.950 . S
C2389 C2388 1.397 . S
C2389 C2390 1.334 . S
C2390 H2361 0.950 . S
C2390 C2389 1.334 . S
C2390 C2391 1.287 . S
C2391 C2390 1.287 . S
C2391 C2392 1.524 . S
C2391 H2394 0.999 . S
C2392 H2362 0.950 . S
C2392 C2391 1.524 . S
C2392 C2393 1.415 . S
C2393 H2363 0.950 . S
C2393 C2388 1.363 . S
C2393 C2392 1.415 . S
H2394 C2391 0.999 . S
H2395 C2376 0.913 . S
H2396 C2414 0.951 . S
H2397 C2416 0.951 . S
H2398 C2418 0.950 . S
H2399 C2419 0.950 . S
H2400 C2421 0.950 . S
H2401 C2424 0.950 . S
H2402 C2425 0.950 . S
H2403 C2427 0.950 . S
H2404 C2428 0.950 . S
H2405 C2429 0.951 . S
H2406 C2431 0.951 . S
H2407 C2433 0.950 . S
H2408 C2434 0.950 . S
H2409 C2436 0.950 . S
H2410 C2439 0.950 . S
H2411 C2440 0.950 . S
H2412 C2442 0.950 . S
H2413 C2443 0.950 . S
C2414 H2396 0.951 . S
C2414 C2415 1.366 . S
C2414 C2416 1.388 . S
C2415 C2414 1.366 . S
C2415 C2419 1.385 . S
C2416 H2397 0.951 . S
C2416 C2414 1.388 . S
C2416 C2417 1.366 . S
C2417 C2416 1.366 . S
C2417 C2418 1.414 . S
C2417 C2420 1.499 . S
C2418 H2398 0.950 . S
C2418 C2417 1.414 . S
C2418 C2419 1.374 . S
C2419 H2399 0.950 . S
C2419 C2415 1.385 . S
C2419 C2418 1.374 . S
C2420 C2417 1.499 . S
C2420 C2421 1.373 . S
C2420 C2422 1.389 . S
C2421 H2400 0.950 . S
C2421 C2420 1.373 . S
C2421 C2437 1.377 . S
C2422 C2420 1.389 . S
C2422 C2423 1.524 . S
C2422 C2436 1.377 . S
C2423 C2422 1.524 . S
C2423 C2424 1.397 . S
C2423 C2428 1.363 . S
C2424 H2401 0.950 . S
C2424 C2423 1.397 . S
C2424 C2425 1.334 . S
C2425 H2402 0.950 . S
C2425 C2424 1.334 . S
C2425 C2426 1.287 . S
C2426 C2425 1.287 . S
C2426 C2427 1.524 . S
C2426 H2445 0.913 . S
C2427 H2403 0.950 . S
C2427 C2426 1.524 . S
C2427 C2428 1.415 . S
C2428 H2404 0.950 . S
C2428 C2423 1.363 . S
C2428 C2427 1.415 . S
C2429 H2405 0.951 . S
C2429 C2430 1.366 . S
C2429 C2431 1.388 . S
C2430 C2429 1.366 . S
C2430 C2434 1.385 . S
C2431 H2406 0.951 . S
C2431 C2429 1.388 . S
C2431 C2432 1.366 . S
C2432 C2431 1.366 . S
C2432 C2433 1.414 . S
C2432 C2435 1.499 . S
C2433 H2407 0.950 . S
C2433 C2432 1.414 . S
C2433 C2434 1.374 . S
C2434 H2408 0.950 . S
C2434 C2430 1.385 . S
C2434 C2433 1.374 . S
C2435 C2432 1.499 . S
C2435 C2436 1.373 . S
C2435 C2437 1.389 . S
C2436 H2409 0.950 . S
C2436 C2422 1.377 . S
C2436 C2435 1.373 . S
C2437 C2421 1.377 . S
C2437 C2435 1.389 . S
C2437 C2438 1.524 . S
C2438 C2437 1.524 . S
C2438 C2439 1.397 . S
C2438 C2443 1.363 . S
C2439 H2410 0.950 . S
C2439 C2438 1.397 . S
C2439 C2440 1.334 . S
C2440 H2411 0.950 . S
C2440 C2439 1.334 . S
C2440 C2441 1.287 . S
C2441 C2440 1.287 . S
C2441 C2442 1.524 . S
C2441 H2444 0.999 . S
C2442 H2412 0.950 . S
C2442 C2441 1.524 . S
C2442 C2443 1.415 . S
C2443 H2413 0.950 . S
C2443 C2438 1.363 . S
C2443 C2442 1.415 . S
H2444 C2441 0.999 . S
H2445 C2426 0.913 . S
H2446 C2464 0.951 . S
H2447 C2466 0.951 . S
H2448 C2468 0.950 . S
H2449 C2469 0.950 . S
H2450 C2471 0.950 . S
H2451 C2474 0.950 . S
H2452 C2475 0.950 . S
H2453 C2477 0.950 . S
H2454 C2478 0.950 . S
H2455 C2479 0.951 . S
H2456 C2481 0.951 . S
H2457 C2483 0.950 . S
H2458 C2484 0.950 . S
H2459 C2486 0.950 . S
H2460 C2489 0.950 . S
H2461 C2490 0.950 . S
H2462 C2492 0.950 . S
H2463 C2493 0.950 . S
C2464 H2446 0.951 . S
C2464 C2465 1.366 . S
C2464 C2466 1.388 . S
C2465 C2464 1.366 . S
C2465 C2469 1.385 . S
C2466 H2447 0.951 . S
C2466 C2464 1.388 . S
C2466 C2467 1.366 . S
C2467 C2466 1.366 . S
C2467 C2468 1.414 . S
C2467 C2470 1.499 . S
C2468 H2448 0.950 . S
C2468 C2467 1.414 . S
C2468 C2469 1.374 . S
C2469 H2449 0.950 . S
C2469 C2465 1.385 . S
C2469 C2468 1.374 . S
C2470 C2467 1.499 . S
C2470 C2471 1.373 . S
C2470 C2472 1.389 . S
C2471 H2450 0.950 . S
C2471 C2470 1.373 . S
C2471 C2487 1.377 . S
C2472 C2470 1.389 . S
C2472 C2473 1.524 . S
C2472 C2486 1.377 . S
C2473 C2472 1.524 . S
C2473 C2474 1.397 . S
C2473 C2478 1.363 . S
C2474 H2451 0.950 . S
C2474 C2473 1.397 . S
C2474 C2475 1.334 . S
C2475 H2452 0.950 . S
C2475 C2474 1.334 . S
C2475 C2476 1.287 . S
C2476 C2475 1.287 . S
C2476 C2477 1.524 . S
C2476 H2495 0.913 . S
C2477 H2453 0.950 . S
C2477 C2476 1.524 . S
C2477 C2478 1.415 . S
C2478 H2454 0.950 . S
C2478 C2473 1.363 . S
C2478 C2477 1.415 . S
C2479 H2455 0.951 . S
C2479 C2480 1.366 . S
C2479 C2481 1.388 . S
C2480 C2479 1.366 . S
C2480 C2484 1.385 . S
C2481 H2456 0.951 . S
C2481 C2479 1.388 . S
C2481 C2482 1.366 . S
C2482 C2481 1.366 . S
C2482 C2483 1.414 . S
C2482 C2485 1.499 . S
C2483 H2457 0.950 . S
C2483 C2482 1.414 . S
C2483 C2484 1.374 . S
C2484 H2458 0.950 . S
C2484 C2480 1.385 . S
C2484 C2483 1.374 . S
C2485 C2482 1.499 . S
C2485 C2486 1.373 . S
C2485 C2487 1.389 . S
C2486 H2459 0.950 . S
C2486 C2472 1.377 . S
C2486 C2485 1.373 . S
C2487 C2471 1.377 . S
C2487 C2485 1.389 . S
C2487 C2488 1.524 . S
C2488 C2487 1.524 . S
C2488 C2489 1.397 . S
C2488 C2493 1.363 . S
C2489 H2460 0.950 . S
C2489 C2488 1.397 . S
C2489 C2490 1.334 . S
C2490 H2461 0.950 . S
C2490 C2489 1.334 . S
C2490 C2491 1.287 . S
C2491 C2490 1.287 . S
C2491 C2492 1.524 . S
C2491 H2494 0.999 . S
C2492 H2462 0.950 . S
C2492 C2491 1.524 . S
C2492 C2493 1.415 . S
C2493 H2463 0.950 . S
C2493 C2488 1.363 . S
C2493 C2492 1.415 . S
H2494 C2491 0.999 . S
H2495 C2476 0.913 . S
H2496 C2514 0.951 . S
H2497 C2516 0.951 . S
H2498 C2518 0.950 . S
H2499 C2519 0.950 . S
H2500 C2521 0.950 . S
H2501 C2524 0.950 . S
H2502 C2525 0.950 . S
H2503 C2527 0.950 . S
H2504 C2528 0.950 . S
H2505 C2529 0.951 . S
H2506 C2531 0.951 . S
H2507 C2533 0.950 . S
H2508 C2534 0.950 . S
H2509 C2536 0.950 . S
H2510 C2539 0.950 . S
H2511 C2540 0.950 . S
H2512 C2542 0.950 . S
H2513 C2543 0.950 . S
C2514 H2496 0.951 . S
C2514 C2515 1.366 . S
C2514 C2516 1.388 . S
C2515 C2514 1.366 . S
C2515 C2519 1.385 . S
C2516 H2497 0.951 . S
C2516 C2514 1.388 . S
C2516 C2517 1.366 . S
C2517 C2516 1.366 . S
C2517 C2518 1.414 . S
C2517 C2520 1.499 . S
C2518 H2498 0.950 . S
C2518 C2517 1.414 . S
C2518 C2519 1.374 . S
C2519 H2499 0.950 . S
C2519 C2515 1.385 . S
C2519 C2518 1.374 . S
C2520 C2517 1.499 . S
C2520 C2521 1.373 . S
C2520 C2522 1.389 . S
C2521 H2500 0.950 . S
C2521 C2520 1.373 . S
C2521 C2537 1.377 . S
C2522 C2520 1.389 . S
C2522 C2523 1.524 . S
C2522 C2536 1.377 . S
C2523 C2522 1.524 . S
C2523 C2524 1.397 . S
C2523 C2528 1.363 . S
C2524 H2501 0.950 . S
C2524 C2523 1.397 . S
C2524 C2525 1.334 . S
C2525 H2502 0.950 . S
C2525 C2524 1.334 . S
C2525 C2526 1.287 . S
C2526 C2525 1.287 . S
C2526 C2527 1.524 . S
C2526 H2545 0.913 . S
C2527 H2503 0.950 . S
C2527 C2526 1.524 . S
C2527 C2528 1.415 . S
C2528 H2504 0.950 . S
C2528 C2523 1.363 . S
C2528 C2527 1.415 . S
C2529 H2505 0.951 . S
C2529 C2530 1.366 . S
C2529 C2531 1.388 . S
C2530 C2529 1.366 . S
C2530 C2534 1.385 . S
C2531 H2506 0.951 . S
C2531 C2529 1.388 . S
C2531 C2532 1.366 . S
C2532 C2531 1.366 . S
C2532 C2533 1.414 . S
C2532 C2535 1.499 . S
C2533 H2507 0.950 . S
C2533 C2532 1.414 . S
C2533 C2534 1.374 . S
C2534 H2508 0.950 . S
C2534 C2530 1.385 . S
C2534 C2533 1.374 . S
C2535 C2532 1.499 . S
C2535 C2536 1.373 . S
C2535 C2537 1.389 . S
C2536 H2509 0.950 . S
C2536 C2522 1.377 . S
C2536 C2535 1.373 . S
C2537 C2521 1.377 . S
C2537 C2535 1.389 . S
C2537 C2538 1.524 . S
C2538 C2537 1.524 . S
C2538 C2539 1.397 . S
C2538 C2543 1.363 . S
C2539 H2510 0.950 . S
C2539 C2538 1.397 . S
C2539 C2540 1.334 . S
C2540 H2511 0.950 . S
C2540 C2539 1.334 . S
C2540 C2541 1.287 . S
C2541 C2540 1.287 . S
C2541 C2542 1.524 . S
C2541 H2544 0.999 . S
C2542 H2512 0.950 . S
C2542 C2541 1.524 . S
C2542 C2543 1.415 . S
C2543 H2513 0.950 . S
C2543 C2538 1.363 . S
C2543 C2542 1.415 . S
H2544 C2541 0.999 . S
H2545 C2526 0.913 . S
H2546 C2564 0.951 . S
H2547 C2566 0.951 . S
H2548 C2568 0.950 . S
H2549 C2569 0.950 . S
H2550 C2571 0.950 . S
H2551 C2574 0.950 . S
H2552 C2575 0.950 . S
H2553 C2577 0.950 . S
H2554 C2578 0.950 . S
H2555 C2579 0.951 . S
H2556 C2581 0.951 . S
H2557 C2583 0.950 . S
H2558 C2584 0.950 . S
H2559 C2586 0.950 . S
H2560 C2589 0.950 . S
H2561 C2590 0.950 . S
H2562 C2592 0.950 . S
H2563 C2593 0.950 . S
C2564 H2546 0.951 . S
C2564 C2565 1.366 . S
C2564 C2566 1.388 . S
C2565 C2564 1.366 . S
C2565 C2569 1.385 . S
C2566 H2547 0.951 . S
C2566 C2564 1.388 . S
C2566 C2567 1.366 . S
C2567 C2566 1.366 . S
C2567 C2568 1.414 . S
C2567 C2570 1.499 . S
C2568 H2548 0.950 . S
C2568 C2567 1.414 . S
C2568 C2569 1.374 . S
C2569 H2549 0.950 . S
C2569 C2565 1.385 . S
C2569 C2568 1.374 . S
C2570 C2567 1.499 . S
C2570 C2571 1.373 . S
C2570 C2572 1.389 . S
C2571 H2550 0.950 . S
C2571 C2570 1.373 . S
C2571 C2587 1.377 . S
C2572 C2570 1.389 . S
C2572 C2573 1.524 . S
C2572 C2586 1.377 . S
C2573 C2572 1.524 . S
C2573 C2574 1.397 . S
C2573 C2578 1.363 . S
C2574 H2551 0.950 . S
C2574 C2573 1.397 . S
C2574 C2575 1.334 . S
C2575 H2552 0.950 . S
C2575 C2574 1.334 . S
C2575 C2576 1.287 . S
C2576 C2575 1.287 . S
C2576 C2577 1.524 . S
C2576 H2595 0.913 . S
C2577 H2553 0.950 . S
C2577 C2576 1.524 . S
C2577 C2578 1.415 . S
C2578 H2554 0.950 . S
C2578 C2573 1.363 . S
C2578 C2577 1.415 . S
C2579 H2555 0.951 . S
C2579 C2580 1.366 . S
C2579 C2581 1.388 . S
C2580 C2579 1.366 . S
C2580 C2584 1.385 . S
C2581 H2556 0.951 . S
C2581 C2579 1.388 . S
C2581 C2582 1.366 . S
C2582 C2581 1.366 . S
C2582 C2583 1.414 . S
C2582 C2585 1.499 . S
C2583 H2557 0.950 . S
C2583 C2582 1.414 . S
C2583 C2584 1.374 . S
C2584 H2558 0.950 . S
C2584 C2580 1.385 . S
C2584 C2583 1.374 . S
C2585 C2582 1.499 . S
C2585 C2586 1.373 . S
C2585 C2587 1.389 . S
C2586 H2559 0.950 . S
C2586 C2572 1.377 . S
C2586 C2585 1.373 . S
C2587 C2571 1.377 . S
C2587 C2585 1.389 . S
C2587 C2588 1.524 . S
C2588 C2587 1.524 . S
C2588 C2589 1.397 . S
C2588 C2593 1.363 . S
C2589 H2560 0.950 . S
C2589 C2588 1.397 . S
C2589 C2590 1.334 . S
C2590 H2561 0.950 . S
C2590 C2589 1.334 . S
C2590 C2591 1.287 . S
C2591 C2590 1.287 . S
C2591 C2592 1.524 . S
C2591 H2594 0.999 . S
C2592 H2562 0.950 . S
C2592 C2591 1.524 . S
C2592 C2593 1.415 . S
C2593 H2563 0.950 . S
C2593 C2588 1.363 . S
C2593 C2592 1.415 . S
H2594 C2591 0.999 . S
H2595 C2576 0.913 . S
H2596 C2614 0.951 . S
H2597 C2616 0.951 . S
H2598 C2618 0.950 . S
H2599 C2619 0.950 . S
H2600 C2621 0.950 . S
H2601 C2624 0.950 . S
H2602 C2625 0.950 . S
H2603 C2627 0.950 . S
H2604 C2628 0.950 . S
H2605 C2629 0.951 . S
H2606 C2631 0.951 . S
H2607 C2633 0.950 . S
H2608 C2634 0.950 . S
H2609 C2636 0.950 . S
H2610 C2639 0.950 . S
H2611 C2640 0.950 . S
H2612 C2642 0.950 . S
H2613 C2643 0.950 . S
C2614 H2596 0.951 . S
C2614 C2615 1.366 . S
C2614 C2616 1.388 . S
C2615 C2614 1.366 . S
C2615 C2619 1.385 . S
C2616 H2597 0.951 . S
C2616 C2614 1.388 . S
C2616 C2617 1.366 . S
C2617 C2616 1.366 . S
C2617 C2618 1.414 . S
C2617 C2620 1.499 . S
C2618 H2598 0.950 . S
C2618 C2617 1.414 . S
C2618 C2619 1.374 . S
C2619 H2599 0.950 . S
C2619 C2615 1.385 . S
C2619 C2618 1.374 . S
C2620 C2617 1.499 . S
C2620 C2621 1.373 . S
C2620 C2622 1.389 . S
C2621 H2600 0.950 . S
C2621 C2620 1.373 . S
C2621 C2637 1.377 . S
C2622 C2620 1.389 . S
C2622 C2623 1.524 . S
C2622 C2636 1.377 . S
C2623 C2622 1.524 . S
C2623 C2624 1.397 . S
C2623 C2628 1.363 . S
C2624 H2601 0.950 . S
C2624 C2623 1.397 . S
C2624 C2625 1.334 . S
C2625 H2602 0.950 . S
C2625 C2624 1.334 . S
C2625 C2626 1.287 . S
C2626 C2625 1.287 . S
C2626 C2627 1.524 . S
C2626 H2645 0.913 . S
C2627 H2603 0.950 . S
C2627 C2626 1.524 . S
C2627 C2628 1.415 . S
C2628 H2604 0.950 . S
C2628 C2623 1.363 . S
C2628 C2627 1.415 . S
C2629 H2605 0.951 . S
C2629 C2630 1.366 . S
C2629 C2631 1.388 . S
C2630 C2629 1.366 . S
C2630 C2634 1.385 . S
C2631 H2606 0.951 . S
C2631 C2629 1.388 . S
C2631 C2632 1.366 . S
C2632 C2631 1.366 . S
C2632 C2633 1.414 . S
C2632 C2635 1.499 . S
C2633 H2607 0.950 . S
C2633 C2632 1.414 . S
C2633 C2634 1.374 . S
C2634 H2608 0.950 . S
C2634 C2630 1.385 . S
C2634 C2633 1.374 . S
C2635 C2632 1.499 . S
C2635 C2636 1.373 . S
C2635 C2637 1.389 . S
C2636 H2609 0.950 . S
C2636 C2622 1.377 . S
C2636 C2635 1.373 . S
C2637 C2621 1.377 . S
C2637 C2635 1.389 . S
C2637 C2638 1.524 . S
C2638 C2637 1.524 . S
C2638 C2639 1.397 . S
C2638 C2643 1.363 . S
C2639 H2610 0.950 . S
C2639 C2638 1.397 . S
C2639 C2640 1.334 . S
C2640 H2611 0.950 . S
C2640 C2639 1.334 . S
C2640 C2641 1.287 . S
C2641 C2640 1.287 . S
C2641 C2642 1.524 . S
C2641 H2644 0.999 . S
C2642 H2612 0.950 . S
C2642 C2641 1.524 . S
C2642 C2643 1.415 . S
C2643 H2613 0.950 . S
C2643 C2638 1.363 . S
C2643 C2642 1.415 . S
H2644 C2641 0.999 . S
H2645 C2626 0.913 . S
H2646 C2664 0.951 . S
H2647 C2666 0.951 . S
H2648 C2668 0.950 . S
H2649 C2669 0.950 . S
H2650 C2671 0.950 . S
H2651 C2674 0.950 . S
H2652 C2675 0.950 . S
H2653 C2677 0.950 . S
H2654 C2678 0.950 . S
H2655 C2679 0.951 . S
H2656 C2681 0.951 . S
H2657 C2683 0.950 . S
H2658 C2684 0.950 . S
H2659 C2686 0.950 . S
H2660 C2689 0.950 . S
H2661 C2690 0.950 . S
H2662 C2692 0.950 . S
H2663 C2693 0.950 . S
C2664 H2646 0.951 . S
C2664 C2665 1.366 . S
C2664 C2666 1.388 . S
C2665 C2664 1.366 . S
C2665 C2669 1.385 . S
C2666 H2647 0.951 . S
C2666 C2664 1.388 . S
C2666 C2667 1.366 . S
C2667 C2666 1.366 . S
C2667 C2668 1.414 . S
C2667 C2670 1.499 . S
C2668 H2648 0.950 . S
C2668 C2667 1.414 . S
C2668 C2669 1.374 . S
C2669 H2649 0.950 . S
C2669 C2665 1.385 . S
C2669 C2668 1.374 . S
C2670 C2667 1.499 . S
C2670 C2671 1.373 . S
C2670 C2672 1.389 . S
C2671 H2650 0.950 . S
C2671 C2670 1.373 . S
C2671 C2687 1.377 . S
C2672 C2670 1.389 . S
C2672 C2673 1.524 . S
C2672 C2686 1.377 . S
C2673 C2672 1.524 . S
C2673 C2674 1.397 . S
C2673 C2678 1.363 . S
C2674 H2651 0.950 . S
C2674 C2673 1.397 . S
C2674 C2675 1.334 . S
C2675 H2652 0.950 . S
C2675 C2674 1.334 . S
C2675 C2676 1.287 . S
C2676 C2675 1.287 . S
C2676 C2677 1.524 . S
C2676 H2695 0.913 . S
C2677 H2653 0.950 . S
C2677 C2676 1.524 . S
C2677 C2678 1.415 . S
C2678 H2654 0.950 . S
C2678 C2673 1.363 . S
C2678 C2677 1.415 . S
C2679 H2655 0.951 . S
C2679 C2680 1.366 . S
C2679 C2681 1.388 . S
C2680 C2679 1.366 . S
C2680 C2684 1.385 . S
C2681 H2656 0.951 . S
C2681 C2679 1.388 . S
C2681 C2682 1.366 . S
C2682 C2681 1.366 . S
C2682 C2683 1.414 . S
C2682 C2685 1.499 . S
C2683 H2657 0.950 . S
C2683 C2682 1.414 . S
C2683 C2684 1.374 . S
C2684 H2658 0.950 . S
C2684 C2680 1.385 . S
C2684 C2683 1.374 . S
C2685 C2682 1.499 . S
C2685 C2686 1.373 . S
C2685 C2687 1.389 . S
C2686 H2659 0.950 . S
C2686 C2672 1.377 . S
C2686 C2685 1.373 . S
C2687 C2671 1.377 . S
C2687 C2685 1.389 . S
C2687 C2688 1.524 . S
C2688 C2687 1.524 . S
C2688 C2689 1.397 . S
C2688 C2693 1.363 . S
C2689 H2660 0.950 . S
C2689 C2688 1.397 . S
C2689 C2690 1.334 . S
C2690 H2661 0.950 . S
C2690 C2689 1.334 . S
C2690 C2691 1.287 . S
C2691 C2690 1.287 . S
C2691 C2692 1.524 . S
C2691 H2694 0.999 . S
C2692 H2662 0.950 . S
C2692 C2691 1.524 . S
C2692 C2693 1.415 . S
C2693 H2663 0.950 . S
C2693 C2688 1.363 . S
C2693 C2692 1.415 . S
H2694 C2691 0.999 . S
H2695 C2676 0.913 . S
H2696 C2714 0.951 . S
H2697 C2716 0.951 . S
H2698 C2718 0.950 . S
H2699 C2719 0.950 . S
H2700 C2721 0.950 . S
H2701 C2724 0.950 . S
H2702 C2725 0.950 . S
H2703 C2727 0.950 . S
H2704 C2728 0.950 . S
H2705 C2729 0.951 . S
H2706 C2731 0.951 . S
H2707 C2733 0.950 . S
H2708 C2734 0.950 . S
H2709 C2736 0.950 . S
H2710 C2739 0.950 . S
H2711 C2740 0.950 . S
H2712 C2742 0.950 . S
H2713 C2743 0.950 . S
C2714 H2696 0.951 . S
C2714 C2715 1.366 . S
C2714 C2716 1.388 . S
C2715 C2714 1.366 . S
C2715 C2719 1.385 . S
C2716 H2697 0.951 . S
C2716 C2714 1.388 . S
C2716 C2717 1.366 . S
C2717 C2716 1.366 . S
C2717 C2718 1.414 . S
C2717 C2720 1.499 . S
C2718 H2698 0.950 . S
C2718 C2717 1.414 . S
C2718 C2719 1.374 . S
C2719 H2699 0.950 . S
C2719 C2715 1.385 . S
C2719 C2718 1.374 . S
C2720 C2717 1.499 . S
C2720 C2721 1.373 . S
C2720 C2722 1.389 . S
C2721 H2700 0.950 . S
C2721 C2720 1.373 . S
C2721 C2737 1.377 . S
C2722 C2720 1.389 . S
C2722 C2723 1.524 . S
C2722 C2736 1.377 . S
C2723 C2722 1.524 . S
C2723 C2724 1.397 . S
C2723 C2728 1.363 . S
C2724 H2701 0.950 . S
C2724 C2723 1.397 . S
C2724 C2725 1.334 . S
C2725 H2702 0.950 . S
C2725 C2724 1.334 . S
C2725 C2726 1.287 . S
C2726 C2725 1.287 . S
C2726 C2727 1.524 . S
C2726 H2745 0.913 . S
C2727 H2703 0.950 . S
C2727 C2726 1.524 . S
C2727 C2728 1.415 . S
C2728 H2704 0.950 . S
C2728 C2723 1.363 . S
C2728 C2727 1.415 . S
C2729 H2705 0.951 . S
C2729 C2730 1.366 . S
C2729 C2731 1.388 . S
C2730 C2729 1.366 . S
C2730 C2734 1.385 . S
C2731 H2706 0.951 . S
C2731 C2729 1.388 . S
C2731 C2732 1.366 . S
C2732 C2731 1.366 . S
C2732 C2733 1.414 . S
C2732 C2735 1.499 . S
C2733 H2707 0.950 . S
C2733 C2732 1.414 . S
C2733 C2734 1.374 . S
C2734 H2708 0.950 . S
C2734 C2730 1.385 . S
C2734 C2733 1.374 . S
C2735 C2732 1.499 . S
C2735 C2736 1.373 . S
C2735 C2737 1.389 . S
C2736 H2709 0.950 . S
C2736 C2722 1.377 . S
C2736 C2735 1.373 . S
C2737 C2721 1.377 . S
C2737 C2735 1.389 . S
C2737 C2738 1.524 . S
C2738 C2737 1.524 . S
C2738 C2739 1.397 . S
C2738 C2743 1.363 . S
C2739 H2710 0.950 . S
C2739 C2738 1.397 . S
C2739 C2740 1.334 . S
C2740 H2711 0.950 . S
C2740 C2739 1.334 . S
C2740 C2741 1.287 . S
C2741 C2740 1.287 . S
C2741 C2742 1.524 . S
C2741 H2744 0.999 . S
C2742 H2712 0.950 . S
C2742 C2741 1.524 . S
C2742 C2743 1.415 . S
C2743 H2713 0.950 . S
C2743 C2738 1.363 . S
C2743 C2742 1.415 . S
H2744 C2741 0.999 . S
H2745 C2726 0.913 . S
H2746 C2764 0.951 . S
H2747 C2766 0.951 . S
H2748 C2768 0.950 . S
H2749 C2769 0.950 . S
H2750 C2771 0.950 . S
H2751 C2774 0.950 . S
H2752 C2775 0.950 . S
H2753 C2777 0.950 . S
H2754 C2778 0.950 . S
H2755 C2779 0.951 . S
H2756 C2781 0.951 . S
H2757 C2783 0.950 . S
H2758 C2784 0.950 . S
H2759 C2786 0.950 . S
H2760 C2789 0.950 . S
H2761 C2790 0.950 . S
H2762 C2792 0.950 . S
H2763 C2793 0.950 . S
C2764 H2746 0.951 . S
C2764 C2765 1.366 . S
C2764 C2766 1.388 . S
C2765 C2764 1.366 . S
C2765 C2769 1.385 . S
C2766 H2747 0.951 . S
C2766 C2764 1.388 . S
C2766 C2767 1.366 . S
C2767 C2766 1.366 . S
C2767 C2768 1.414 . S
C2767 C2770 1.499 . S
C2768 H2748 0.950 . S
C2768 C2767 1.414 . S
C2768 C2769 1.374 . S
C2769 H2749 0.950 . S
C2769 C2765 1.385 . S
C2769 C2768 1.374 . S
C2770 C2767 1.499 . S
C2770 C2771 1.373 . S
C2770 C2772 1.389 . S
C2771 H2750 0.950 . S
C2771 C2770 1.373 . S
C2771 C2787 1.377 . S
C2772 C2770 1.389 . S
C2772 C2773 1.524 . S
C2772 C2786 1.377 . S
C2773 C2772 1.524 . S
C2773 C2774 1.397 . S
C2773 C2778 1.363 . S
C2774 H2751 0.950 . S
C2774 C2773 1.397 . S
C2774 C2775 1.334 . S
C2775 H2752 0.950 . S
C2775 C2774 1.334 . S
C2775 C2776 1.287 . S
C2776 C2775 1.287 . S
C2776 C2777 1.524 . S
C2776 H2795 0.913 . S
C2777 H2753 0.950 . S
C2777 C2776 1.524 . S
C2777 C2778 1.415 . S
C2778 H2754 0.950 . S
C2778 C2773 1.363 . S
C2778 C2777 1.415 . S
C2779 H2755 0.951 . S
C2779 C2780 1.366 . S
C2779 C2781 1.388 . S
C2780 C2779 1.366 . S
C2780 C2784 1.385 . S
C2781 H2756 0.951 . S
C2781 C2779 1.388 . S
C2781 C2782 1.366 . S
C2782 C2781 1.366 . S
C2782 C2783 1.414 . S
C2782 C2785 1.499 . S
C2783 H2757 0.950 . S
C2783 C2782 1.414 . S
C2783 C2784 1.374 . S
C2784 H2758 0.950 . S
C2784 C2780 1.385 . S
C2784 C2783 1.374 . S
C2785 C2782 1.499 . S
C2785 C2786 1.373 . S
C2785 C2787 1.389 . S
C2786 H2759 0.950 . S
C2786 C2772 1.377 . S
C2786 C2785 1.373 . S
C2787 C2771 1.377 . S
C2787 C2785 1.389 . S
C2787 C2788 1.524 . S
C2788 C2787 1.524 . S
C2788 C2789 1.397 . S
C2788 C2793 1.363 . S
C2789 H2760 0.950 . S
C2789 C2788 1.397 . S
C2789 C2790 1.334 . S
C2790 H2761 0.950 . S
C2790 C2789 1.334 . S
C2790 C2791 1.287 . S
C2791 C2790 1.287 . S
C2791 C2792 1.524 . S
C2791 H2794 0.999 . S
C2792 H2762 0.950 . S
C2792 C2791 1.524 . S
C2792 C2793 1.415 . S
C2793 H2763 0.950 . S
C2793 C2788 1.363 . S
C2793 C2792 1.415 . S
H2794 C2791 0.999 . S
H2795 C2776 0.913 . S
H2796 C2814 0.951 . S
H2797 C2816 0.951 . S
H2798 C2818 0.950 . S
H2799 C2819 0.950 . S
H2800 C2821 0.950 . S
H2801 C2824 0.950 . S
H2802 C2825 0.950 . S
H2803 C2827 0.950 . S
H2804 C2828 0.950 . S
H2805 C2829 0.951 . S
H2806 C2831 0.951 . S
H2807 C2833 0.950 . S
H2808 C2834 0.950 . S
H2809 C2836 0.950 . S
H2810 C2839 0.950 . S
H2811 C2840 0.950 . S
H2812 C2842 0.950 . S
H2813 C2843 0.950 . S
C2814 H2796 0.951 . S
C2814 C2815 1.366 . S
C2814 C2816 1.388 . S
C2815 C2814 1.366 . S
C2815 C2819 1.385 . S
C2816 H2797 0.951 . S
C2816 C2814 1.388 . S
C2816 C2817 1.366 . S
C2817 C2816 1.366 . S
C2817 C2818 1.414 . S
C2817 C2820 1.499 . S
C2818 H2798 0.950 . S
C2818 C2817 1.414 . S
C2818 C2819 1.374 . S
C2819 H2799 0.950 . S
C2819 C2815 1.385 . S
C2819 C2818 1.374 . S
C2820 C2817 1.499 . S
C2820 C2821 1.373 . S
C2820 C2822 1.389 . S
C2821 H2800 0.950 . S
C2821 C2820 1.373 . S
C2821 C2837 1.377 . S
C2822 C2820 1.389 . S
C2822 C2823 1.524 . S
C2822 C2836 1.377 . S
C2823 C2822 1.524 . S
C2823 C2824 1.397 . S
C2823 C2828 1.363 . S
C2824 H2801 0.950 . S
C2824 C2823 1.397 . S
C2824 C2825 1.334 . S
C2825 H2802 0.950 . S
C2825 C2824 1.334 . S
C2825 C2826 1.287 . S
C2826 C2825 1.287 . S
C2826 C2827 1.524 . S
C2826 H2845 0.913 . S
C2827 H2803 0.950 . S
C2827 C2826 1.524 . S
C2827 C2828 1.415 . S
C2828 H2804 0.950 . S
C2828 C2823 1.363 . S
C2828 C2827 1.415 . S
C2829 H2805 0.951 . S
C2829 C2830 1.366 . S
C2829 C2831 1.388 . S
C2830 C2829 1.366 . S
C2830 C2834 1.385 . S
C2831 H2806 0.951 . S
C2831 C2829 1.388 . S
C2831 C2832 1.366 . S
C2832 C2831 1.366 . S
C2832 C2833 1.414 . S
C2832 C2835 1.499 . S
C2833 H2807 0.950 . S
C2833 C2832 1.414 . S
C2833 C2834 1.374 . S
C2834 H2808 0.950 . S
C2834 C2830 1.385 . S
C2834 C2833 1.374 . S
C2835 C2832 1.499 . S
C2835 C2836 1.373 . S
C2835 C2837 1.389 . S
C2836 H2809 0.950 . S
C2836 C2822 1.377 . S
C2836 C2835 1.373 . S
C2837 C2821 1.377 . S
C2837 C2835 1.389 . S
C2837 C2838 1.524 . S
C2838 C2837 1.524 . S
C2838 C2839 1.397 . S
C2838 C2843 1.363 . S
C2839 H2810 0.950 . S
C2839 C2838 1.397 . S
C2839 C2840 1.334 . S
C2840 H2811 0.950 . S
C2840 C2839 1.334 . S
C2840 C2841 1.287 . S
C2841 C2840 1.287 . S
C2841 C2842 1.524 . S
C2841 H2844 0.999 . S
C2842 H2812 0.950 . S
C2842 C2841 1.524 . S
C2842 C2843 1.415 . S
C2843 H2813 0.950 . S
C2843 C2838 1.363 . S
C2843 C2842 1.415 . S
H2844 C2841 0.999 . S
H2845 C2826 0.913 . S
H2846 C2864 0.951 . S
H2847 C2866 0.951 . S
H2848 C2868 0.950 . S
H2849 C2869 0.950 . S
H2850 C2871 0.950 . S
H2851 C2874 0.950 . S
H2852 C2875 0.950 . S
H2853 C2877 0.950 . S
H2854 C2878 0.950 . S
H2855 C2879 0.951 . S
H2856 C2881 0.951 . S
H2857 C2883 0.950 . S
H2858 C2884 0.950 . S
H2859 C2886 0.950 . S
H2860 C2889 0.950 . S
H2861 C2890 0.950 . S
H2862 C2892 0.950 . S
H2863 C2893 0.950 . S
C2864 H2846 0.951 . S
C2864 C2865 1.366 . S
C2864 C2866 1.388 . S
C2865 C2864 1.366 . S
C2865 C2869 1.385 . S
C2866 H2847 0.951 . S
C2866 C2864 1.388 . S
C2866 C2867 1.366 . S
C2867 C2866 1.366 . S
C2867 C2868 1.414 . S
C2867 C2870 1.499 . S
C2868 H2848 0.950 . S
C2868 C2867 1.414 . S
C2868 C2869 1.374 . S
C2869 H2849 0.950 . S
C2869 C2865 1.385 . S
C2869 C2868 1.374 . S
C2870 C2867 1.499 . S
C2870 C2871 1.373 . S
C2870 C2872 1.389 . S
C2871 H2850 0.950 . S
C2871 C2870 1.373 . S
C2871 C2887 1.377 . S
C2872 C2870 1.389 . S
C2872 C2873 1.524 . S
C2872 C2886 1.377 . S
C2873 C2872 1.524 . S
C2873 C2874 1.397 . S
C2873 C2878 1.363 . S
C2874 H2851 0.950 . S
C2874 C2873 1.397 . S
C2874 C2875 1.334 . S
C2875 H2852 0.950 . S
C2875 C2874 1.334 . S
C2875 C2876 1.287 . S
C2876 C2875 1.287 . S
C2876 C2877 1.524 . S
C2876 H2895 0.913 . S
C2877 H2853 0.950 . S
C2877 C2876 1.524 . S
C2877 C2878 1.415 . S
C2878 H2854 0.950 . S
C2878 C2873 1.363 . S
C2878 C2877 1.415 . S
C2879 H2855 0.951 . S
C2879 C2880 1.366 . S
C2879 C2881 1.388 . S
C2880 C2879 1.366 . S
C2880 C2884 1.385 . S
C2881 H2856 0.951 . S
C2881 C2879 1.388 . S
C2881 C2882 1.366 . S
C2882 C2881 1.366 . S
C2882 C2883 1.414 . S
C2882 C2885 1.499 . S
C2883 H2857 0.950 . S
C2883 C2882 1.414 . S
C2883 C2884 1.374 . S
C2884 H2858 0.950 . S
C2884 C2880 1.385 . S
C2884 C2883 1.374 . S
C2885 C2882 1.499 . S
C2885 C2886 1.373 . S
C2885 C2887 1.389 . S
C2886 H2859 0.950 . S
C2886 C2872 1.377 . S
C2886 C2885 1.373 . S
C2887 C2871 1.377 . S
C2887 C2885 1.389 . S
C2887 C2888 1.524 . S
C2888 C2887 1.524 . S
C2888 C2889 1.397 . S
C2888 C2893 1.363 . S
C2889 H2860 0.950 . S
C2889 C2888 1.397 . S
C2889 C2890 1.334 . S
C2890 H2861 0.950 . S
C2890 C2889 1.334 . S
C2890 C2891 1.287 . S
C2891 C2890 1.287 . S
C2891 C2892 1.524 . S
C2891 H2894 0.999 . S
C2892 H2862 0.950 . S
C2892 C2891 1.524 . S
C2892 C2893 1.415 . S
C2893 H2863 0.950 . S
C2893 C2888 1.363 . S
C2893 C2892 1.415 . S
H2894 C2891 0.999 . S
H2895 C2876 0.913 . S
H2896 C2914 0.951 . S
H2897 C2916 0.951 . S
H2898 C2918 0.950 . S
H2899 C2919 0.950 . S
H2900 C2921 0.950 . S
H2901 C2924 0.950 . S
H2902 C2925 0.950 . S
H2903 C2927 0.950 . S
H2904 C2928 0.950 . S
H2905 C2929 0.951 . S
H2906 C2931 0.951 . S
H2907 C2933 0.950 . S
H2908 C2934 0.950 . S
H2909 C2936 0.950 . S
H2910 C2939 0.950 . S
H2911 C2940 0.950 . S
H2912 C2942 0.950 . S
H2913 C2943 0.950 . S
C2914 H2896 0.951 . S
C2914 C2915 1.366 . S
C2914 C2916 1.388 . S
C2915 C2914 1.366 . S
C2915 C2919 1.385 . S
C2916 H2897 0.951 . S
C2916 C2914 1.388 . S
C2916 C2917 1.366 . S
C2917 C2916 1.366 . S
C2917 C2918 1.414 . S
C2917 C2920 1.499 . S
C2918 H2898 0.950 . S
C2918 C2917 1.414 . S
C2918 C2919 1.374 . S
C2919 H2899 0.950 . S
C2919 C2915 1.385 . S
C2919 C2918 1.374 . S
C2920 C2917 1.499 . S
C2920 C2921 1.373 . S
C2920 C2922 1.389 . S
C2921 H2900 0.950 . S
C2921 C2920 1.373 . S
C2921 C2937 1.377 . S
C2922 C2920 1.389 . S
C2922 C2923 1.524 . S
C2922 C2936 1.377 . S
C2923 C2922 1.524 . S
C2923 C2924 1.397 . S
C2923 C2928 1.363 . S
C2924 H2901 0.950 . S
C2924 C2923 1.397 . S
C2924 C2925 1.334 . S
C2925 H2902 0.950 . S
C2925 C2924 1.334 . S
C2925 C2926 1.287 . S
C2926 C2925 1.287 . S
C2926 C2927 1.524 . S
C2926 H2945 0.913 . S
C2927 H2903 0.950 . S
C2927 C2926 1.524 . S
C2927 C2928 1.415 . S
C2928 H2904 0.950 . S
C2928 C2923 1.363 . S
C2928 C2927 1.415 . S
C2929 H2905 0.951 . S
C2929 C2930 1.366 . S
C2929 C2931 1.388 . S
C2930 C2929 1.366 . S
C2930 C2934 1.385 . S
C2931 H2906 0.951 . S
C2931 C2929 1.388 . S
C2931 C2932 1.366 . S
C2932 C2931 1.366 . S
C2932 C2933 1.414 . S
C2932 C2935 1.499 . S
C2933 H2907 0.950 . S
C2933 C2932 1.414 . S
C2933 C2934 1.374 . S
C2934 H2908 0.950 . S
C2934 C2930 1.385 . S
C2934 C2933 1.374 . S
C2935 C2932 1.499 . S
C2935 C2936 1.373 . S
C2935 C2937 1.389 . S
C2936 H2909 0.950 . S
C2936 C2922 1.377 . S
C2936 C2935 1.373 . S
C2937 C2921 1.377 . S
C2937 C2935 1.389 . S
C2937 C2938 1.524 . S
C2938 C2937 1.524 . S
C2938 C2939 1.397 . S
C2938 C2943 1.363 . S
C2939 H2910 0.950 . S
C2939 C2938 1.397 . S
C2939 C2940 1.334 . S
C2940 H2911 0.950 . S
C2940 C2939 1.334 . S
C2940 C2941 1.287 . S
C2941 C2940 1.287 . S
C2941 C2942 1.524 . S
C2941 H2944 0.999 . S
C2942 H2912 0.950 . S
C2942 C2941 1.524 . S
C2942 C2943 1.415 . S
C2943 H2913 0.950 . S
C2943 C2938 1.363 . S
C2943 C2942 1.415 . S
H2944 C2941 0.999 . S
H2945 C2926 0.913 . S
H2946 C2964 0.951 . S
H2947 C2966 0.951 . S
H2948 C2968 0.950 . S
H2949 C2969 0.950 . S
H2950 C2971 0.950 . S
H2951 C2974 0.950 . S
H2952 C2975 0.950 . S
H2953 C2977 0.950 . S
H2954 C2978 0.950 . S
H2955 C2979 0.951 . S
H2956 C2981 0.951 . S
H2957 C2983 0.950 . S
H2958 C2984 0.950 . S
H2959 C2986 0.950 . S
H2960 C2989 0.950 . S
H2961 C2990 0.950 . S
H2962 C2992 0.950 . S
H2963 C2993 0.950 . S
C2964 H2946 0.951 . S
C2964 C2965 1.366 . S
C2964 C2966 1.388 . S
C2965 C2964 1.366 . S
C2965 C2969 1.385 . S
C2966 H2947 0.951 . S
C2966 C2964 1.388 . S
C2966 C2967 1.366 . S
C2967 C2966 1.366 . S
C2967 C2968 1.414 . S
C2967 C2970 1.499 . S
C2968 H2948 0.950 . S
C2968 C2967 1.414 . S
C2968 C2969 1.374 . S
C2969 H2949 0.950 . S
C2969 C2965 1.385 . S
C2969 C2968 1.374 . S
C2970 C2967 1.499 . S
C2970 C2971 1.373 . S
C2970 C2972 1.389 . S
C2971 H2950 0.950 . S
C2971 C2970 1.373 . S
C2971 C2987 1.377 . S
C2972 C2970 1.389 . S
C2972 C2973 1.524 . S
C2972 C2986 1.377 . S
C2973 C2972 1.524 . S
C2973 C2974 1.397 . S
C2973 C2978 1.363 . S
C2974 H2951 0.950 . S
C2974 C2973 1.397 . S
C2974 C2975 1.334 . S
C2975 H2952 0.950 . S
C2975 C2974 1.334 . S
C2975 C2976 1.287 . S
C2976 C2975 1.287 . S
C2976 C2977 1.524 . S
C2976 H2995 0.913 . S
C2977 H2953 0.950 . S
C2977 C2976 1.524 . S
C2977 C2978 1.415 . S
C2978 H2954 0.950 . S
C2978 C2973 1.363 . S
C2978 C2977 1.415 . S
C2979 H2955 0.951 . S
C2979 C2980 1.366 . S
C2979 C2981 1.388 . S
C2980 C2979 1.366 . S
C2980 C2984 1.385 . S
C2981 H2956 0.951 . S
C2981 C2979 1.388 . S
C2981 C2982 1.366 . S
C2982 C2981 1.366 . S
C2982 C2983 1.414 . S
C2982 C2985 1.499 . S
C2983 H2957 0.950 . S
C2983 C2982 1.414 . S
C2983 C2984 1.374 . S
C2984 H2958 0.950 . S
C2984 C2980 1.385 . S
C2984 C2983 1.374 . S
C2985 C2982 1.499 . S
C2985 C2986 1.373 . S
C2985 C2987 1.389 . S
C2986 H2959 0.950 . S
C2986 C2972 1.377 . S
C2986 C2985 1.373 . S
C2987 C2971 1.377 . S
C2987 C2985 1.389 . S
C2987 C2988 1.524 . S
C2988 C2987 1.524 . S
C2988 C2989 1.397 . S
C2988 C2993 1.363 . S
C2989 H2960 0.950 . S
C2989 C2988 1.397 . S
C2989 C2990 1.334 . S
C2990 H2961 0.950 . S
C2990 C2989 1.334 . S
C2990 C2991 1.287 . S
C2991 C2990 1.287 . S
C2991 C2992 1.524 . S
C2991 H2994 0.999 . S
C2992 H2962 0.950 . S
C2992 C2991 1.524 . S
C2992 C2993 1.415 . S
C2993 H2963 0.950 . S
C2993 C2988 1.363 . S
C2993 C2992 1.415 . S
H2994 C2991 0.999 . S
H2995 C2976 0.913 . S
C630 C282 1.408 . S
C615 N2 1.391 . S
C680 C325 2.816 . S
C665 C7 2.850 . S
C730 C371 1.696 . S
C715 N12 1.602 . S
C765 C16 1.853 . S
C780 C414 1.874 . S
C830 C454 2.902 . S
C815 C30 2.919 1_565 S
C880 C482 1.495 . S
C865 N35 1.457 . S
C915 C39 2.021 . S
C930 C525 1.975 . S
C980 C571 1.266 . S
C965 N25 1.197 . S
C1030 C286 1.183 . S
C1015 N58 1.147 . S
C1065 N81 1.860 . S
C1080 C335 1.861 . S
C1130 C365 1.417 . S
C1115 N104 1.397 . S
C1165 N127 1.061 . S
C1180 C402 1.061 . S
C1230 C442 0.690 . S
C1215 N48 0.683 . S
C1280 C486 1.623 . S
C1265 N71 1.590 1_556 S
C1315 N94 1.069 . S
C1330 C535 1.056 . S
C1380 C565 2.020 . S
C1365 N117 2.036 . S
C1415 C85 2.564 . S
C1430 C294 2.506 . S
C1465 C122 2.345 . S
C1480 C446 2.313 . S
C1515 C53 2.040 . S
C1530 C494 1.974 . S
C1580 C531 1.301 . S
C1565 C76 1.330 1_655 S
C1630 C575 1.762 . S
C1615 C99 1.761 . S
C1680 C375 2.026 . S
C1665 C131 2.011 . S
C1730 C406 1.420 . S
C1715 C62 1.439 1_565 S
C1765 C108 0.955 . S
C1780 C331 0.947 . S
C1830 C562 1.469 . S
C1815 N140 1.456 . S
C1865 C145 2.845 . S
C1880 C445 2.810 . S
C1930 C491 1.593 . S
C1915 N150 1.499 . S
C1965 C154 1.861 . S
C1980 C534 1.882 . S
C2030 C334 2.905 . S
C2015 C168 2.924 . S
C2065 N173 1.347 . S
C2080 C362 1.387 . S
C2130 C405 1.978 . S
C2115 C177 2.027 . S
C2180 C291 1.336 . S
C2165 N163 1.258 . S
C2230 C566 1.647 . S
C2215 C200 1.644 . S
C2280 C455 2.157 . S
C2265 N219 2.155 . S
C2315 N242 1.642 . S
C2330 C485 1.664 . S
C2380 C522 1.308 . S
C2365 C269 1.354 . S
C2430 C322 0.972 . S
C2415 C191 0.991 . S
C2465 N209 1.837 . S
C2480 C366 1.875 . S
C2515 N232 1.380 . S
C2530 C415 1.360 . S
C2565 C260 2.577 . S
C2580 C285 2.525 . S
C2615 C223 2.276 . S
C2630 C574 2.224 . S
C2665 N255 1.879 . S
C2680 C326 1.899 . S
C2715 N186 1.511 . S
C2730 C374 1.503 . S
C2780 C411 1.004 . S
C2765 C214 1.023 . S
C2830 C295 1.452 . S
C2815 C237 1.451 . S
C2880 C495 1.593 . S
C2865 N265 1.533 . S
C2930 C526 1.066 . S
C2915 N196 1.069 . S
C2980 C451 0.658 . S
C2965 C246 0.653 . S
