# Generated by pormake.
# Topology zzz, (3,6)-cn, num edge types: 1
# Building blocks:
#     Node 0, Type 0, BuildingBlock: OLANEW_clean_sbu_2, # of connection points: 3
#     Node 1, Type 0, BuildingBlock: OLANEW_clean_sbu_2, # of connection points: 3
#     Node 2, Type 0, BuildingBlock: OLANEW_clean_sbu_2, # of connection points: 3
#     Node 3, Type 0, BuildingBlock: OLANEW_clean_sbu_2, # of connection points: 3
#     Node 4, Type 0, BuildingBlock: OLANEW_clean_sbu_2, # of connection points: 3
#     Node 5, Type 0, BuildingBlock: OLANEW_clean_sbu_2, # of connection points: 3
#     Node 6, Type 0, BuildingBlock: OLANEW_clean_sbu_2, # of connection points: 3
#     Node 7, Type 0, BuildingBlock: OLANEW_clean_sbu_2, # of connection points: 3
#     Node 8, Type 1, BuildingBlock: LEVNOQ01_clean_sbu_1, # of connection points: 6
#     Node 9, Type 1, BuildingBlock: LEVNOQ01_clean_sbu_1, # of connection points: 6
#     Node 10, Type 1, BuildingBlock: LEVNOQ01_clean_sbu_1, # of connection points: 6
#     Node 11, Type 1, BuildingBlock: LEVNOQ01_clean_sbu_1, # of connection points: 6
#     Edge 12, Type (0, 1), BuildingBlock: ZUJKAS_clean_linker_0, # of connection points: 2
#     Edge 13, Type (0, 1), BuildingBlock: ZUJKAS_clean_linker_0, # of connection points: 2
#     Edge 14, Type (0, 1), BuildingBlock: ZUJKAS_clean_linker_0, # of connection points: 2
#     Edge 15, Type (0, 1), BuildingBlock: ZUJKAS_clean_linker_0, # of connection points: 2
#     Edge 16, Type (0, 1), BuildingBlock: ZUJKAS_clean_linker_0, # of connection points: 2
#     Edge 17, Type (0, 1), BuildingBlock: ZUJKAS_clean_linker_0, # of connection points: 2
#     Edge 18, Type (0, 1), BuildingBlock: ZUJKAS_clean_linker_0, # of connection points: 2
#     Edge 19, Type (0, 1), BuildingBlock: ZUJKAS_clean_linker_0, # of connection points: 2
#     Edge 20, Type (0, 1), BuildingBlock: ZUJKAS_clean_linker_0, # of connection points: 2
#     Edge 21, Type (0, 1), BuildingBlock: ZUJKAS_clean_linker_0, # of connection points: 2
#     Edge 22, Type (0, 1), BuildingBlock: ZUJKAS_clean_linker_0, # of connection points: 2
#     Edge 23, Type (0, 1), BuildingBlock: ZUJKAS_clean_linker_0, # of connection points: 2
#     Edge 24, Type (0, 1), BuildingBlock: ZUJKAS_clean_linker_0, # of connection points: 2
#     Edge 25, Type (0, 1), BuildingBlock: ZUJKAS_clean_linker_0, # of connection points: 2
#     Edge 26, Type (0, 1), BuildingBlock: ZUJKAS_clean_linker_0, # of connection points: 2
#     Edge 27, Type (0, 1), BuildingBlock: ZUJKAS_clean_linker_0, # of connection points: 2
#     Edge 28, Type (0, 1), BuildingBlock: ZUJKAS_clean_linker_0, # of connection points: 2
#     Edge 29, Type (0, 1), BuildingBlock: ZUJKAS_clean_linker_0, # of connection points: 2
#     Edge 30, Type (0, 1), BuildingBlock: ZUJKAS_clean_linker_0, # of connection points: 2
#     Edge 31, Type (0, 1), BuildingBlock: ZUJKAS_clean_linker_0, # of connection points: 2
#     Edge 32, Type (0, 1), BuildingBlock: ZUJKAS_clean_linker_0, # of connection points: 2
#     Edge 33, Type (0, 1), BuildingBlock: ZUJKAS_clean_linker_0, # of connection points: 2
#     Edge 34, Type (0, 1), BuildingBlock: ZUJKAS_clean_linker_0, # of connection points: 2
#     Edge 35, Type (0, 1), BuildingBlock: ZUJKAS_clean_linker_0, # of connection points: 2
# Relax obj value: 0.138
# Max RMSD: 0.185
# Mean RMSD: 0.112
data_MOF--net-zzz--node1-OLANEW_clean_sbu_2--node2-LEVNOQ01_clean_sbu_1--edge1-ZUJKAS_clean_linker_0
_symmetry_space_group_name_H-M    P1
_symmetry_Int_Tables_number       1
_symmetry_cell_setting            triclinic
loop_
_symmetry_equiv_pos_as_xyz
'x, y, z'
_cell_length_a     67.106215
_cell_length_b     67.215198
_cell_length_c     22.469355
_cell_angle_alpha  89.922586
_cell_angle_beta   89.884161
_cell_angle_gamma 89.999296
loop_
_atom_site_label
_atom_site_type_symbol
_atom_site_fract_x
_atom_site_fract_y
_atom_site_fract_z
_atom_type_partial_charge
O0 O 0.77315 0.57167 0.0519 0.0
Cd1 Cd 0.77662 0.59801 0.9794 0.0
O2 O 0.77824 0.54398 0.09975 0.0
Cd3 Cd 0.79732 0.52095 0.13468 0.0
O4 O 0.82069 0.52189 0.20001 0.0
C5 C 0.83407 0.53504 0.19289 0.0
O6 O 0.83395 0.54617 0.14486 0.0
C7 C 0.78452 0.55715 0.06371 0.0
C8 C 0.73933 0.59447 0.92876 0.0
O9 O 0.74234 0.60697 0.97084 0.0
O10 O 0.75439 0.58519 0.90718 0.0
O11 O 0.92888 0.78656 0.05303 0.0
Cd12 Cd 0.92146 0.75841 0.11832 0.0
O13 O 0.95785 0.78263 0.09514 0.0
Cd14 Cd 0.98775 0.79011 0.12583 0.0
O15 O 0.99612 0.81087 0.19534 0.0
C16 C 0.98157 0.81469 0.22982 0.0
O17 O 0.96481 0.80489 0.22255 0.0
C18 C 0.94657 0.79269 0.06092 0.0
C19 C 0.9357 0.72304 0.07149 0.0
O20 O 0.91708 0.72719 0.06962 0.0
O21 O 0.94759 0.7355 0.09583 0.0
O22 O 0.749 0.9341 0.01373 0.0
Cd23 Cd 0.74458 0.93692 0.90755 0.0
O24 O 0.74556 0.94566 0.10355 0.0
Cd25 Cd 0.73108 0.96172 0.17449 0.0
O26 O 0.71011 0.96745 0.24473 0.0
C27 C 0.69427 0.97694 0.23299 0.0
O28 O 0.69188 0.98455 0.17963 0.0
C29 C 0.73885 0.94396 0.051 0.0
C30 C 0.78333 0.9474 0.88097 0.0
O31 O 0.7772 0.92964 0.87135 0.0
O32 O 0.77068 0.96055 0.8976 0.0
O33 O 0.60208 0.73113 0.08283 0.0
Cd34 Cd 0.61308 0.76305 0.12151 0.0
O35 O 0.57131 0.73989 0.10339 0.0
Cd36 Cd 0.54095 0.73043 0.12287 0.0
O37 O 0.53036 0.70901 0.18836 0.0
C38 C 0.53041 0.69078 0.17368 0.0
O39 O 0.53409 0.68606 0.11812 0.0
C40 C 0.58359 0.72715 0.08325 0.0
C41 C 0.59692 0.79363 0.05377 0.0
O42 O 0.6136 0.78562 0.03971 0.0
O43 O 0.58793 0.78729 0.10049 0.0
O44 O 0.24372 0.47202 0.34827 0.0
Cd45 Cd 0.27227 0.46422 0.28508 0.0
O46 O 0.23535 0.4409 0.3356 0.0
Cd47 Cd 0.213 0.41764 0.32527 0.0
O48 O 0.18918 0.41648 0.25977 0.0
C49 C 0.17842 0.43199 0.26176 0.0
O50 O 0.18173 0.445 0.30396 0.0
C51 C 0.23147 0.45794 0.35731 0.0
C52 C 0.30661 0.46208 0.35302 0.0
O53 O 0.30112 0.47847 0.32882 0.0
O54 O 0.29595 0.44655 0.34416 0.0
O55 O 0.06518 0.24653 0.36292 0.0
Cd56 Cd 0.07688 0.27501 0.30523 0.0
O57 O 0.0938 0.23412 0.33555 0.0
Cd58 Cd 0.11229 0.20897 0.30994 0.0
O59 O 0.10538 0.18485 0.24946 0.0
C60 C 0.087 0.18461 0.23595 0.0
O61 O 0.07518 0.19816 0.25887 0.0
C62 C 0.0772 0.23197 0.36226 0.0
C63 C 0.07303 0.30985 0.36967 0.0
O64 O 0.05923 0.30417 0.33418 0.0
O65 O 0.08874 0.29911 0.37398 0.0
O66 O 0.28702 0.05373 0.32715 0.0
Cd67 Cd 0.258 0.06313 0.26783 0.0
O68 O 0.29135 0.08505 0.35151 0.0
Cd69 Cd 0.27766 0.09375 0.26763 0.0
O70 O 0.29834 0.0879 0.19433 0.0
C71 C 0.31641 0.08926 0.2109 0.0
O72 O 0.32012 0.09523 0.2654 0.0
C73 C 0.29577 0.0668 0.35859 0.0
C74 C 0.22372 0.06133 0.33764 0.0
O75 O 0.2278 0.04747 0.30045 0.0
O76 O 0.23567 0.07613 0.34136 0.0
O77 O 0.47836 0.27883 0.35743 0.0
Cd78 Cd 0.47298 0.24965 0.29527 0.0
O79 O 0.44719 0.28584 0.33875 0.0
Cd80 Cd 0.42329 0.30721 0.32383 0.0
O81 O 0.42107 0.33157 0.26046 0.0
C82 C 0.43677 0.3421 0.25932 0.0
O83 O 0.45104 0.33807 0.29726 0.0
C84 C 0.46362 0.29051 0.3632 0.0
C85 C 0.46876 0.21625 0.36649 0.0
O86 O 0.48585 0.22143 0.34608 0.0
O87 O 0.45355 0.22674 0.35218 0.0
O88 O 0.03131 0.97856 0.82964 0.0
Mg89 Mg 0.04381 0.98223 0.7444 0.0
O90 O 0.00393 0.98939 0.78707 0.0
Mg91 Mg 0.01095 0.01347 0.7134 0.0
O92 O 0.04523 0.01073 0.71532 0.0
O93 O 0.07236 0.99309 0.73732 0.0
O94 O 0.01562 0.03784 0.6386 0.0
O95 O 0.01304 0.03802 0.78412 0.0
Mg96 Mg 0.97251 0.0461 0.70086 0.0
O97 O 0.97823 0.0171 0.71131 0.0
O98 O 0.98703 0.05365 0.62017 0.0
O99 O 0.98674 0.0584 0.77828 0.0
O100 O 0.9473 0.02722 0.71046 0.0
C101 C 0.01698 0.97181 0.63697 0.0
C102 C 0.01252 0.97935 0.82793 0.0
C103 C 0.06449 0.00916 0.71646 0.0
C104 C 0.0053 0.0504 0.60845 0.0
C105 C 0.00306 0.05302 0.80249 0.0
C106 C 0.9598 0.01302 0.7194 0.0
O107 O 0.03065 0.96607 0.67241 0.0
O108 O 0.00853 0.98873 0.64289 0.0
O109 O 0.46484 0.00175 0.82497 0.0
Mg110 Mg 0.47761 0.98277 0.76184 0.0
O111 O 0.49093 0.02184 0.82644 0.0
Mg112 Mg 0.51092 0.00947 0.74887 0.0
O113 O 0.50676 0.97534 0.77239 0.0
O114 O 0.481 0.95446 0.78718 0.0
O115 O 0.52988 0.99688 0.6703 0.0
O116 O 0.53819 0.00667 0.8168 0.0
Mg117 Mg 0.5449 0.03699 0.71444 0.0
O118 O 0.51555 0.04335 0.72679 0.0
O119 O 0.54976 0.0206 0.63651 0.0
O120 O 0.56042 0.0295 0.79155 0.0
O121 O 0.53885 0.06613 0.70463 0.0
C122 C 0.47126 0.00212 0.65365 0.0
C123 C 0.47365 0.01692 0.84516 0.0
C124 C 0.49997 0.95759 0.78483 0.0
C125 C 0.54232 0.00339 0.63208 0.0
C126 C 0.55477 0.01566 0.82578 0.0
C127 C 0.5204 0.06169 0.7144 0.0
O128 O 0.46756 0.9852 0.67515 0.0
O129 O 0.48453 0.01308 0.67805 0.0
O130 O 0.52192 0.46072 0.76083 0.0
Mg131 Mg 0.54012 0.47647 0.69849 0.0
O132 O 0.50474 0.48675 0.79405 0.0
Mg133 Mg 0.51192 0.51093 0.72468 0.0
O134 O 0.54567 0.50399 0.73115 0.0
O135 O 0.56958 0.48151 0.71639 0.0
O136 O 0.5188 0.53514 0.65442 0.0
O137 O 0.52044 0.53397 0.80023 0.0
Mg138 Mg 0.48384 0.54547 0.75212 0.0
O139 O 0.47822 0.51776 0.72028 0.0
O140 O 0.50113 0.56096 0.68687 0.0
O141 O 0.4933 0.54594 0.8412 0.0
O142 O 0.45428 0.5401 0.73647 0.0
C143 C 0.51256 0.47856 0.60699 0.0
C144 C 0.50925 0.4683 0.79639 0.0
C145 C 0.56437 0.49908 0.73347 0.0
C146 C 0.51371 0.55342 0.65088 0.0
C147 C 0.51197 0.5439 0.84163 0.0
C148 C 0.4595 0.52256 0.7191 0.0
O149 O 0.53128 0.47707 0.60916 0.0
O150 O 0.50341 0.48799 0.64823 0.0
O151 O 0.97608 0.497 0.8471 0.0
Mg152 Mg 0.97819 0.48411 0.76206 0.0
O153 O 0.98941 0.5243 0.80922 0.0
Mg154 Mg 0.01347 0.51634 0.73522 0.0
O155 O 0.00712 0.48332 0.73791 0.0
O156 O 0.99003 0.45557 0.75084 0.0
O157 O 0.03703 0.50858 0.66055 0.0
O158 O 0.03794 0.51133 0.80434 0.0
Mg159 Mg 0.0497 0.54961 0.71636 0.0
O160 O 0.0202 0.5492 0.73282 0.0
O161 O 0.05425 0.53539 0.63362 0.0
O162 O 0.06193 0.53405 0.79173 0.0
O163 O 0.03618 0.57768 0.72399 0.0
C164 C 0.97153 0.5145 0.65855 0.0
C165 C 0.97834 0.51569 0.84802 0.0
C166 C 0.00645 0.46417 0.73574 0.0
C167 C 0.04962 0.51725 0.62632 0.0
C168 C 0.0547 0.51894 0.81857 0.0
C169 C 0.01993 0.56832 0.73637 0.0
O170 O 0.96438 0.50075 0.69151 0.0
O171 O 0.98918 0.52118 0.66545 0.0
H172 H 0.18784 0.04483 0.31075 0.0
H173 H 0.15857 0.04204 0.37534 0.0
H174 H 0.19102 0.07058 0.51735 0.0
H175 H 0.21978 0.07459 0.45137 0.0
H176 H 0.15406 0.0219 0.4702 0.0
H177 H 0.14081 0.10043 0.53274 0.0
H178 H 0.1581 0.09358 0.47474 0.0
H179 H 0.16548 0.09254 0.5518 0.0
C180 C 0.18856 0.05076 0.3555 0.0
C181 C 0.20594 0.06006 0.37606 0.0
C182 C 0.17186 0.04918 0.39242 0.0
C183 C 0.17236 0.05646 0.45105 0.0
C184 C 0.18989 0.06553 0.47177 0.0
H185 H 0.10086 0.02235 0.75122 0.0
H186 H 0.12618 0.03749 0.68663 0.0
C187 C 0.20641 0.06764 0.43424 0.0
C188 C 0.15507 0.05316 0.49143 0.0
H189 H 0.12382 0.07576 0.59126 0.0
C190 C 0.14734 0.03378 0.49595 0.0
C191 C 0.14625 0.06862 0.52546 0.0
C192 C 0.15297 0.08998 0.5205 0.0
C193 C 0.13133 0.0294 0.53384 0.0
C194 C 0.12289 0.04472 0.56862 0.0
C195 C 0.13043 0.0641 0.56437 0.0
C196 C 0.10659 0.04034 0.61083 0.0
C197 C 0.12363 0.00832 0.5372 0.0
C198 C 0.08708 0.03771 0.58999 0.0
C199 C 0.07261 0.02915 0.62688 0.0
C200 C 0.07749 0.02327 0.68495 0.0
C201 C 0.09668 0.02714 0.70689 0.0
C202 C 0.11112 0.03574 0.67012 0.0
H203 H 0.13274 0.99784 0.51032 0.0
H204 H 0.12348 0.00313 0.58413 0.0
H205 H 0.10806 0.00784 0.52066 0.0
H206 H 0.08344 0.04096 0.54405 0.0
H207 H 0.05818 0.02553 0.60834 0.0
H208 H 0.49801 0.19069 0.40149 0.0
H209 H 0.49523 0.16322 0.47229 0.0
H210 H 0.43265 0.17551 0.49516 0.0
H211 H 0.43518 0.20307 0.42371 0.0
H212 H 0.46234 0.17177 0.60647 0.0
H213 H 0.45965 0.10897 0.44603 0.0
H214 H 0.4766 0.12889 0.42819 0.0
H215 H 0.45027 0.13353 0.42867 0.0
C216 C 0.4836 0.18749 0.4211 0.0
C217 C 0.46681 0.19904 0.407 0.0
C218 C 0.48205 0.17179 0.46146 0.0
C219 C 0.46373 0.16739 0.48849 0.0
C220 C 0.44688 0.17873 0.47444 0.0
H221 H 0.48034 0.05773 0.69173 0.0
H222 H 0.45881 0.0836 0.64817 0.0
C223 C 0.44837 0.19441 0.43365 0.0
C224 C 0.46274 0.15127 0.53293 0.0
H225 H 0.47003 0.10132 0.54497 0.0
C226 C 0.46345 0.15627 0.5934 0.0
C227 C 0.46385 0.13114 0.51561 0.0
C228 C 0.46241 0.12518 0.4511 0.0
C229 C 0.46708 0.1417 0.63682 0.0
C230 C 0.4703 0.12177 0.61888 0.0
C231 C 0.46761 0.11658 0.55888 0.0
C232 C 0.48053 0.10722 0.65791 0.0
C233 C 0.46851 0.14799 0.70105 0.0
C234 C 0.49951 0.11202 0.67944 0.0
C235 C 0.51175 0.09734 0.70312 0.0
C236 C 0.50537 0.07744 0.70538 0.0
C237 C 0.48569 0.07289 0.68928 0.0
C238 C 0.4734 0.08766 0.66476 0.0
H239 H 0.45798 0.16034 0.71058 0.0
H240 H 0.46533 0.13546 0.73185 0.0
H241 H 0.48378 0.15359 0.70996 0.0
H242 H 0.50558 0.12684 0.67359 0.0
H243 H 0.52678 0.10139 0.71585 0.0
H244 H 0.33151 0.49265 0.38102 0.0
H245 H 0.35904 0.4923 0.45183 0.0
H246 H 0.34916 0.42994 0.48546 0.0
H247 H 0.32145 0.43003 0.41416 0.0
H248 H 0.35023 0.47052 0.58681 0.0
H249 H 0.41442 0.44776 0.44509 0.0
H250 H 0.39492 0.46243 0.41141 0.0
H251 H 0.38969 0.43756 0.43565 0.0
C252 C 0.33528 0.47878 0.40282 0.0
C253 C 0.32425 0.46138 0.39217 0.0
C254 C 0.35103 0.47861 0.44316 0.0
C255 C 0.35606 0.46109 0.47342 0.0
C256 C 0.34547 0.44355 0.4621 0.0
H257 H 0.46087 0.482 0.70312 0.0
H258 H 0.43579 0.46122 0.65233 0.0
C259 C 0.32967 0.44367 0.42151 0.0
C260 C 0.3715 0.46194 0.51981 0.0
H261 H 0.42194 0.46476 0.53518 0.0
C262 C 0.36591 0.46871 0.57631 0.0
C263 C 0.39184 0.45922 0.50607 0.0
C264 C 0.39824 0.45124 0.44639 0.0
C265 C 0.38029 0.47455 0.61785 0.0
C266 C 0.40067 0.47403 0.60164 0.0
C267 C 0.40629 0.46536 0.5473 0.0
C268 C 0.41565 0.4857 0.63497 0.0
C269 C 0.37343 0.48233 0.67742 0.0
C270 C 0.41273 0.50624 0.64107 0.0
C271 C 0.42683 0.51794 0.66965 0.0
C272 C 0.44442 0.50945 0.69194 0.0
C273 C 0.44749 0.48887 0.6858 0.0
C274 C 0.43318 0.47703 0.65721 0.0
H275 H 0.35941 0.47492 0.69169 0.0
H276 H 0.38491 0.48006 0.71228 0.0
H277 H 0.37031 0.4985 0.67361 0.0
H278 H 0.39964 0.51335 0.62256 0.0
H279 H 0.42414 0.5338 0.67281 0.0
H280 H 0.09669 0.32244 0.46088 0.0
H281 H 0.09079 0.3506 0.52754 0.0
H282 H 0.03822 0.36624 0.42775 0.0
H283 H 0.04375 0.33791 0.3616 0.0
H284 H 0.08641 0.39207 0.50795 0.0
H285 H 0.01749 0.35746 0.59762 0.0
H286 H 0.03515 0.34386 0.55275 0.0
H287 H 0.01748 0.36033 0.51819 0.0
C288 C 0.08396 0.33197 0.45283 0.0
C289 C 0.07054 0.32784 0.40647 0.0
C290 C 0.08065 0.34806 0.49086 0.0
C291 C 0.06391 0.36025 0.48303 0.0
C292 C 0.05102 0.35673 0.43511 0.0
H293 H 0.02645 0.4709 0.63266 0.0
H294 H 0.04536 0.44615 0.57621 0.0
C295 C 0.05422 0.34059 0.39733 0.0
C296 C 0.05933 0.37602 0.52668 0.0
H297 H 0.02372 0.39091 0.62512 0.0
C298 C 0.0728 0.3918 0.53404 0.0
C299 C 0.04173 0.37539 0.56123 0.0
C300 C 0.02721 0.35826 0.5576 0.0
C301 C 0.06876 0.40739 0.57389 0.0
C302 C 0.05073 0.40717 0.60659 0.0
C303 C 0.03758 0.39107 0.60017 0.0
C304 C 0.04437 0.42375 0.64559 0.0
C305 C 0.08378 0.42392 0.58032 0.0
C306 C 0.03809 0.41965 0.70398 0.0
C307 C 0.02714 0.4337 0.73584 0.0
C308 C 0.02258 0.45217 0.71018 0.0
C309 C 0.03029 0.45695 0.6539 0.0
C310 C 0.04106 0.44278 0.62159 0.0
H311 H 0.09907 0.41871 0.56937 0.0
H312 H 0.07996 0.43601 0.5487 0.0
H313 H 0.08376 0.43011 0.6261 0.0
H314 H 0.04044 0.40506 0.72327 0.0
H315 H 0.02114 0.42967 0.77902 0.0
H316 H 0.80339 0.97169 0.95598 0.0
H317 H 0.8394 0.97697 0.96091 0.0
H318 H 0.84734 0.93902 0.80775 0.0
H319 H 0.81146 0.93249 0.80587 0.0
H320 H 0.87561 0.93191 0.88479 0.0
H321 H 0.86916 0.01417 0.85959 0.0
H322 H 0.85765 0.00423 0.92516 0.0
H323 H 0.84787 0.99808 0.85288 0.0
C324 C 0.81287 0.96465 0.92306 0.0
C325 C 0.80473 0.95201 0.87971 0.0
C326 C 0.83343 0.96768 0.92592 0.0
C327 C 0.8461 0.95877 0.88389 0.0
C328 C 0.8379 0.94606 0.84071 0.0
H329 H 0.93841 0.98163 0.67896 0.0
H330 H 0.91584 0.96197 0.74122 0.0
C331 C 0.81741 0.9425 0.83913 0.0
C332 C 0.86778 0.96306 0.88271 0.0
H333 H 0.90099 0.00057 0.8579 0.0
C334 C 0.88118 0.94696 0.8797 0.0
C335 C 0.87518 0.98274 0.87734 0.0
C336 C 0.86174 0.00078 0.87844 0.0
C337 C 0.90139 0.94994 0.86623 0.0
C338 C 0.90832 0.96944 0.85648 0.0
C339 C 0.89547 0.98561 0.86552 0.0
C340 C 0.92706 0.97358 0.82444 0.0
C341 C 0.91499 0.93228 0.85932 0.0
C342 C 0.94169 0.98548 0.85102 0.0
C343 C 0.95487 0.99634 0.81542 0.0
C344 C 0.95325 0.99561 0.75316 0.0
C345 C 0.94013 0.98206 0.72688 0.0
C346 C 0.92727 0.97084 0.76249 0.0
H347 H 0.90946 0.91925 0.88499 0.0
H348 H 0.91572 0.92808 0.81161 0.0
H349 H 0.9303 0.93598 0.87423 0.0
H350 H 0.94155 0.98797 0.89864 0.0
H351 H 0.9647 0.00703 0.83639 0.0
H352 H 0.61106 0.80819 0.94836 0.0
H353 H 0.59783 0.83601 0.89022 0.0
H354 H 0.55036 0.84341 0.01787 0.0
H355 H 0.56348 0.81566 0.07652 0.0
H356 H 0.55862 0.84187 0.83986 0.0
H357 H 0.57872 0.89853 0.00901 0.0
H358 H 0.58903 0.87371 0.0092 0.0
H359 H 0.56432 0.87804 0.03732 0.0
C360 C 0.59779 0.81572 0.96409 0.0
C361 C 0.58845 0.80989 0.01741 0.0
C362 C 0.59024 0.83155 0.9307 0.0
C363 C 0.57335 0.84189 0.95033 0.0
C364 C 0.56363 0.83577 0.0026 0.0
H365 H 0.48946 0.91891 0.79861 0.0
H366 H 0.51034 0.89118 0.8275 0.0
C367 C 0.57112 0.8199 0.03592 0.0
C368 C 0.56608 0.85937 0.91688 0.0
H369 H 0.55736 0.90911 0.93074 0.0
C370 C 0.55853 0.85663 0.85931 0.0
C371 C 0.56639 0.87863 0.94199 0.0
C372 C 0.57521 0.88252 0.00257 0.0
C373 C 0.55031 0.87258 0.82729 0.0
C374 C 0.54951 0.89164 0.85399 0.0
C375 C 0.558 0.89451 0.91031 0.0
C376 C 0.53775 0.90814 0.82822 0.0
C377 C 0.54229 0.86878 0.76567 0.0
C378 C 0.54617 0.92709 0.81936 0.0
C379 C 0.53412 0.94324 0.80321 0.0
C380 C 0.51346 0.94067 0.79675 0.0
C381 C 0.50529 0.92152 0.80375 0.0
C382 C 0.51727 0.9055 0.81952 0.0
H383 H 0.55027 0.85626 0.7439 0.0
H384 H 0.52632 0.8646 0.76895 0.0
H385 H 0.54356 0.88219 0.737 0.0
H386 H 0.56197 0.92945 0.82637 0.0
H387 H 0.54083 0.95776 0.79747 0.0
H388 H 0.70421 0.61154 0.96457 0.0
H389 H 0.67034 0.59993 0.9423 0.0
H390 H 0.69449 0.55332 0.83215 0.0
H391 H 0.72826 0.56473 0.85365 0.0
H392 H 0.65917 0.58332 0.78844 0.0
H393 H 0.64901 0.53957 -0.00263 0.0
H394 H 0.66211 0.56306 0.99703 0.0
H395 H 0.67346 0.5416 0.96413 0.0
C396 C 0.70229 0.59899 0.93492 0.0
C397 C 0.7189 0.58917 0.91034 0.0
C398 C 0.68298 0.59234 0.92264 0.0
C399 C 0.68009 0.57578 0.8859 0.0
C400 C 0.69655 0.56617 0.86058 0.0
H401 H 0.60347 0.49073 0.75276 0.0
H402 H 0.62862 0.51195 0.79792 0.0
C403 C 0.7158 0.5728 0.87262 0.0
C404 C 0.65994 0.56831 0.87294 0.0
H405 H 0.62561 0.53433 0.92023 0.0
C406 C 0.65149 0.57302 0.81776 0.0
C407 C 0.65023 0.5548 0.91143 0.0
C408 C 0.65903 0.54937 0.971 0.0
C409 C 0.63391 0.56378 0.79868 0.0
C410 C 0.62467 0.54954 0.83585 0.0
C411 C 0.63267 0.54546 0.89225 0.0
C412 C 0.60865 0.53668 0.81282 0.0
C413 C 0.62602 0.56823 0.73729 0.0
C414 C 0.58908 0.54368 0.8062 0.0
C415 C 0.57457 0.53156 0.77994 0.0
C416 C 0.57949 0.51236 0.76008 0.0
C417 C 0.59913 0.50546 0.76736 0.0
C418 C 0.61353 0.51749 0.79359 0.0
H419 H 0.63513 0.57956 0.71359 0.0
H420 H 0.62581 0.55438 0.71039 0.0
H421 H 0.61046 0.57373 0.74057 0.0
H422 H 0.58514 0.55854 0.82065 0.0
H423 H 0.55961 0.53721 0.77477 0.0
H424 H 0.92016 0.68581 0.07973 0.0
H425 H 0.93218 0.65565 0.02994 0.0
H426 H 0.97915 0.68984 0.9469 0.0
H427 H 0.96807 0.71949 0.00036 0.0
H428 H 0.93324 0.64686 0.91993 0.0
H429 H 0.01121 0.64425 -0.00239 0.0
H430 H 0.99324 0.66098 0.03006 0.0
H431 H 0.00633 0.66767 0.96268 0.0
C432 C 0.93327 0.68668 0.05162 0.0
C433 C 0.94334 0.70478 0.04399 0.0
C434 C 0.9401 0.66951 0.02313 0.0
C435 C 0.95683 0.67032 0.98543 0.0
C436 C 0.96672 0.68857 0.97746 0.0
H437 H 0.00431 0.60345 0.70018 0.0
H438 H 0.98461 0.62626 0.76181 0.0
C439 C 0.96029 0.70556 0.00753 0.0
C440 C 0.96311 0.65247 0.95137 0.0
H441 H 0.00397 0.6259 0.908 0.0
C442 C 0.94867 0.64212 0.91817 0.0
C443 C 0.98321 0.64603 0.94944 0.0
C444 C -0.00071 0.65521 0.98744 0.0
C445 C 0.95397 0.62615 0.88121 0.0
C446 C 0.97416 0.62069 0.87669 0.0
C447 C 0.98849 0.63043 0.91126 0.0
C448 C 0.98111 0.60545 0.83454 0.0
C449 C 0.93817 0.61531 0.84643 0.0
C450 C 0.98495 0.58609 0.85458 0.0
C451 C 0.99606 0.57305 0.81935 0.0
C452 C 0.00342 0.57927 0.76386 0.0
C453 C 0.99843 0.59823 0.74234 0.0
C454 C 0.98725 0.61123 0.77744 0.0
H455 H 0.92292 0.62056 0.85757 0.0
H456 H 0.94081 0.61747 0.79806 0.0
H457 H 0.93914 0.5991 0.85563 0.0
H458 H 0.98059 0.58158 0.89905 0.0
H459 H 0.00053 0.55892 0.83806 0.0
H460 H 0.10077 0.20302 0.41067 0.0
H461 H 0.09077 0.16956 0.44206 0.0
H462 H 0.02954 0.1835 0.40174 0.0
H463 H 0.03954 0.21681 0.36866 0.0
H464 H 0.06339 0.15899 0.5319 0.0
H465 H 0.03927 0.13091 0.31121 0.0
H466 H 0.05494 0.15256 0.31983 0.0
H467 H 0.02856 0.15435 0.33256 0.0
C468 C 0.08523 0.19883 0.40753 0.0
C469 C 0.07101 0.21234 0.38577 0.0
C470 C 0.07952 0.17978 0.42589 0.0
C471 C 0.0595 0.17389 0.4228 0.0
C472 C 0.04515 0.18758 0.40302 0.0
H473 H 0.98751 0.07516 0.52795 0.0
H474 H 0.00267 0.10355 0.47775 0.0
C475 C 0.05085 0.20666 0.38481 0.0
C476 C 0.05351 0.15368 0.44235 0.0
H477 H 0.0312 0.11084 0.39523 0.0
C478 C 0.05653 0.14835 0.50199 0.0
C479 C 0.04458 0.1399 0.40308 0.0
C480 C 0.04177 0.14458 0.33794 0.0
C481 C 0.05016 0.12988 0.52416 0.0
C482 C 0.04098 0.11611 0.48508 0.0
C483 C 0.03832 0.12133 0.42505 0.0
C484 C 0.03266 0.09696 0.50697 0.0
C485 C 0.05252 0.12571 0.58984 0.0
C486 C 0.04461 0.08316 0.53747 0.0
C487 C 0.0359 0.06704 0.56722 0.0
C488 C 0.01517 0.06415 0.56582 0.0
C489 C 0.00353 0.07697 0.53045 0.0
C490 C 0.01218 0.09323 0.50154 0.0
H491 H 0.0553 0.13953 0.61562 0.0
H492 H 0.03905 0.11833 0.60825 0.0
H493 H 0.06546 0.11568 0.59662 0.0
H494 H 0.06054 0.08542 0.54094 0.0
H495 H 0.04523 0.05775 0.59465 0.0
H496 H 0.30834 0.02941 0.38897 0.0
H497 H 0.33985 0.02037 0.43647 0.0
H498 H 0.35454 0.0825 0.45567 0.0
H499 H 0.32293 0.09166 0.40987 0.0
H500 H 0.37665 0.02911 0.39241 0.0
H501 H 0.36855 0.06142 0.61829 0.0
H502 H 0.34766 0.05828 0.56874 0.0
H503 H 0.36435 0.07901 0.5595 0.0
C504 C 0.31807 0.04115 0.40457 0.0
C505 C 0.31309 0.06125 0.39574 0.0
C506 C 0.33611 0.03596 0.43144 0.0
C507 C 0.3495 0.05076 0.44994 0.0
C508 C 0.34428 0.07083 0.44291 0.0
H509 H 0.46799 0.04043 0.61067 0.0
H510 H 0.44031 0.05386 0.55181 0.0
C511 C 0.32618 0.07604 0.41655 0.0
C512 C 0.36948 0.04517 0.47259 0.0
H513 H 0.40063 0.0496 0.59176 0.0
C514 C 0.38188 0.03358 0.43604 0.0
C515 C 0.37638 0.0512 0.52922 0.0
C516 C 0.36349 0.06301 0.57147 0.0
C517 C 0.40091 0.02767 0.45483 0.0
C518 C 0.40766 0.0334 0.51183 0.0
C519 C 0.39549 0.04542 0.54777 0.0
C520 C 0.4262 0.02528 0.53804 0.0
C521 C 0.41359 0.01527 0.41358 0.0
C522 C 0.42771 0.00478 0.54831 0.0
C523 C 0.44333 0.99716 0.58214 0.0
C524 C 0.45772 0.0099 0.60701 0.0
C525 C 0.457 0.03028 0.59306 0.0
C526 C 0.44122 0.03796 0.55934 0.0
H527 H 0.40929 0.01753 0.36631 0.0
H528 H 0.42965 0.01885 0.41868 0.0
H529 H 0.41142 -0.0007 0.42434 0.0
H530 H 0.41615 0.99475 0.53313 0.0
H531 H 0.44344 0.98134 0.59152 0.0
H532 H 0.4363 0.31186 0.4273 0.0
H533 H 0.44039 0.34537 0.46874 0.0
H534 H 0.50115 0.34664 0.40577 0.0
H535 H 0.49719 0.31316 0.36488 0.0
H536 H 0.49716 0.36018 0.52073 0.0
H537 H 0.44176 0.39716 0.37346 0.0
H538 H 0.43268 0.37628 0.41559 0.0
H539 H 0.45119 0.37252 0.35898 0.0
C540 C 0.45047 0.31939 0.422 0.0
C541 C 0.4663 0.31011 0.3918 0.0
C542 C 0.45277 0.33852 0.44554 0.0
C543 C 0.47091 0.34871 0.43899 0.0
C544 C 0.48695 0.33913 0.41081 0.0
H545 H 0.52657 0.46012 0.50739 0.0
H546 H 0.51365 0.4294 0.46424 0.0
C547 C 0.4847 0.31999 0.38765 0.0
C548 C 0.4735 0.36924 0.46206 0.0
H549 H 0.45795 0.41738 0.44434 0.0
C550 C 0.48852 0.37265 0.50416 0.0
C551 C 0.46212 0.38551 0.44066 0.0
C552 C 0.44611 0.38282 0.39437 0.0
C553 C 0.49271 0.39189 0.52466 0.0
C554 C 0.48177 0.40818 0.50193 0.0
C555 C 0.46634 0.40481 0.46129 0.0
C556 C 0.48703 0.42881 0.51851 0.0
C557 C 0.50899 0.39474 0.57013 0.0
C558 C 0.47569 0.43922 0.56072 0.0
C559 C 0.48304 0.45686 0.58549 0.0
C560 C 0.50182 0.46427 0.56843 0.0
C561 C 0.51212 0.45477 0.52183 0.0
C562 C 0.5048 0.43717 0.49723 0.0
H563 H 0.5134 0.38048 0.59141 0.0
H564 H 0.52231 0.40118 0.54798 0.0
H565 H 0.50413 0.40527 0.60533 0.0
H566 H 0.46188 0.43299 0.57749 0.0
H567 H 0.47484 0.46367 0.62148 0.0
H568 H 0.21004 0.4334 0.4305 0.0
H569 H 0.17717 0.43984 0.47459 0.0
H570 H 0.17648 0.49799 0.39306 0.0
H571 H 0.20948 0.49183 0.35048 0.0
H572 H 0.16459 0.49925 0.50729 0.0
H573 H 0.12361 0.43861 0.39211 0.0
H574 H 0.14533 0.43085 0.43251 0.0
H575 H 0.14799 0.44678 0.36874 0.0
C576 C 0.20279 0.44751 0.42195 0.0
C577 C 0.21213 0.46201 0.3864 0.0
C578 C 0.18397 0.45113 0.44675 0.0
C579 C 0.17408 0.46919 0.43576 0.0
C580 C 0.18371 0.48387 0.40167 0.0
H581 H 0.06402 0.52827 0.51797 0.0
H582 H 0.09307 0.51395 0.46759 0.0
C583 C 0.20259 0.48037 0.37754 0.0
C584 C 0.15402 0.47326 0.46122 0.0
H585 H 0.10548 0.45752 0.46248 0.0
C586 C 0.1517 0.49012 0.49736 0.0
C587 C 0.13716 0.46128 0.44846 0.0
C588 C 0.13851 0.44345 0.40798 0.0
C589 C 0.13305 0.49541 0.52071 0.0
C590 C 0.1162 0.48363 0.50728 0.0
C591 C 0.11847 0.46653 0.47232 0.0
C592 C 0.09616 0.48935 0.529 0.0
C593 C 0.13145 0.51363 0.55966 0.0
C594 C 0.08773 0.47964 0.57825 0.0
C595 C 0.07095 0.48763 0.60657 0.0
C596 C 0.0625 0.50553 0.5862 0.0
C597 C 0.07011 0.51436 0.53419 0.0
C598 C 0.08674 0.50626 0.50561 0.0
H599 H 0.14629 0.51898 0.57459 0.0
H600 H 0.12416 0.52577 0.53426 0.0
H601 H 0.12214 0.51046 0.59948 0.0
H602 H 0.09502 0.46679 0.59746 0.0
H603 H 0.06583 0.48088 0.64761 0.0
H604 H 0.97185 0.82022 0.10849 0.0
H605 H 0.98162 0.85228 0.06741 0.0
H606 H 0.94419 0.84185 0.91491 0.0
H607 H 0.93485 0.80917 0.95547 0.0
H608 H -0.0007 0.86112 0.95024 0.0
H609 H 0.92518 0.89626 0.98759 0.0
H610 H 0.93269 0.87373 0.02538 0.0
H611 H 0.92563 0.87292 0.94846 0.0
C612 C 0.96628 0.82431 0.06535 0.0
C613 C 0.95308 0.81183 0.03456 0.0
C614 C 0.97161 0.84285 0.04228 0.0
C615 C 0.96355 0.84947 0.98831 0.0
C616 C 0.95042 0.83707 0.95699 0.0
H617 H 0.97854 0.96021 0.79455 0.0
H618 H 0.96547 0.9293 0.83646 0.0
C619 C 0.94516 0.81841 0.98009 0.0
C620 C 0.96881 0.86951 0.96575 0.0
H621 H 0.95017 0.91626 0.94447 0.0
C622 C 0.98857 0.87319 0.94871 0.0
C623 C 0.95472 0.88515 0.96377 0.0
C624 C 0.93337 0.88199 0.98257 0.0
C625 C 0.99465 0.89209 0.92927 0.0
C626 C 0.98068 0.90792 0.9287 0.0
C627 C 0.96085 0.90416 0.94519 0.0
C628 C 0.98639 0.92829 0.90956 0.0
C629 C 0.01588 0.89481 0.90841 0.0
C630 C 0.00175 0.93859 0.93863 0.0
C631 C 0.00925 0.9563 0.91475 0.0
C632 C 0.00127 0.9642 0.86198 0.0
C633 C 0.98475 0.95476 0.8359 0.0
C634 C 0.97738 0.93695 0.8595 0.0
H635 H 0.02289 0.88039 0.89631 0.0
H636 H 0.01663 0.90488 0.86924 0.0
H637 H 0.02478 0.90149 0.94482 0.0
H638 H 0.00857 0.93244 0.97824 0.0
H639 H 0.02198 0.96324 0.93579 0.0
H640 H 0.72366 0.98048 0.08301 0.0
H641 H 0.69086 0.99425 0.05637 0.0
H642 H 0.67851 0.94215 0.95125 0.0
H643 H 0.71116 0.92837 0.97737 0.0
H644 H 0.67337 0.99086 0.90752 0.0
H645 H 0.63251 0.95965 0.10267 0.0
H646 H 0.65775 0.96871 0.10953 0.0
H647 H 0.65304 0.94609 0.06998 0.0
C648 C 0.71386 0.97192 0.05468 0.0
C649 C 0.7198 0.95322 0.03294 0.0
C650 C 0.69522 0.97982 0.03935 0.0
C651 C 0.68222 0.96903 0.00273 0.0
C652 C 0.6883 0.9506 0.97998 0.0
H653 H 0.56262 0.97753 0.8635 0.0
H654 H 0.59304 0.96658 0.91485 0.0
C655 C 0.70697 0.94281 0.99469 0.0
C656 C 0.66232 0.97694 0.98712 0.0
H657 H 0.61332 0.97587 0.02907 0.0
C658 C 0.66024 0.98778 0.93425 0.0
C659 C 0.6453 0.97271 0.02207 0.0
C660 C 0.64705 0.96117 0.0794 0.0
C661 C 0.64146 0.99428 0.91476 0.0
C662 C 0.62432 0.98994 0.94944 0.0
C663 C 0.62645 0.97918 0.00265 0.0
C664 C 0.60417 0.99637 0.92998 0.0
C665 C 0.64006 0.0053 0.85632 0.0
C666 C 0.59982 0.01668 0.92467 0.0
C667 C 0.58258 0.02291 0.89541 0.0
C668 C 0.56919 0.00895 0.87141 0.0
C669 C 0.57256 0.98861 0.88186 0.0
C670 C 0.59 0.98235 0.91085 0.0
H671 H 0.65378 0.00355 0.82907 0.0
H672 H 0.62712 0.0 0.83 0.0
H673 H 0.63794 0.0214 0.86522 0.0
H674 H 0.61036 0.02774 0.94005 0.0
H675 H 0.58033 0.0387 0.88831 0.0
H676 H 0.5968 0.69088 0.11894 0.0
H677 H 0.58558 0.65826 0.08371 0.0
H678 H 0.54448 0.68699 0.96353 0.0
H679 H 0.55474 0.71956 0.00207 0.0
H680 H 0.52717 0.65664 0.01235 0.0
H681 H 0.60103 0.63162 0.93313 0.0
H682 H 0.60154 0.6375 0.01087 0.0
H683 H 0.59647 0.65678 0.95714 0.0
C684 C 0.58534 0.69012 0.08514 0.0
C685 C 0.57661 0.70757 0.06299 0.0
C686 C 0.57908 0.67153 0.06455 0.0
C687 C 0.56456 0.67012 0.01973 0.0
C688 C 0.55579 0.68766 -0.0022 0.0
H689 H 0.54242 0.56677 0.80208 0.0
H690 H 0.55555 0.59665 0.84882 0.0
C691 C 0.56162 0.70623 0.01977 0.0
C692 C 0.55821 0.65038 0.99667 0.0
H693 H 0.5758 0.60674 0.93934 0.0
C694 C 0.5378 0.64577 0.99608 0.0
C695 C 0.57201 0.63629 0.97433 0.0
C696 C 0.59394 0.64088 0.96823 0.0
C697 C 0.53082 0.62751 0.97402 0.0
C698 C 0.54473 0.61296 0.95477 0.0
C699 C 0.56513 0.61765 0.95518 0.0
C700 C 0.53843 0.59338 0.93012 0.0
C701 C 0.50858 0.62444 0.96947 0.0
C702 C 0.52513 0.58093 0.96116 0.0
C703 C 0.51744 0.56383 0.93404 0.0
C704 C 0.52351 0.5585 0.87637 0.0
C705 C 0.53796 0.57011 0.84731 0.0
C706 C 0.54529 0.5874 0.87379 0.0
H707 H 0.50046 0.63884 0.96832 0.0
H708 H 0.50463 0.6159 0.92892 0.0
H709 H 0.50328 0.61609 0.00907 0.0
H710 H 0.52013 0.58479 0.00549 0.0
H711 H 0.50618 0.55521 0.95714 0.0
H712 H 0.81054 0.5874 0.0409 0.0
H713 H 0.84495 0.58468 0.00423 0.0
H714 H 0.83832 0.52101 0.99118 0.0
H715 H 0.80391 0.52371 0.0267 0.0
H716 H 0.87637 0.56232 0.0585 0.0
H717 H 0.86119 0.53705 0.82786 0.0
H718 H 0.84228 0.5483 0.8742 0.0
H719 H 0.84901 0.52265 0.88465 0.0
C720 C 0.81638 0.57288 0.02941 0.0
C721 C 0.80468 0.55573 0.03736 0.0
C722 C 0.83604 0.57132 0.00883 0.0
C723 C 0.84418 0.55266 0.99479 0.0
C724 C 0.8323 0.53558 0.00122 0.0
H725 H 0.96223 0.50646 0.95594 0.0
H726 H 0.93066 0.51895 0.99579 0.0
C727 C 0.81272 0.53712 0.02212 0.0
C728 C 0.86528 0.55089 0.97542 0.0
H729 H 0.89475 0.53463 0.86136 0.0
C730 C 0.88041 0.55646 0.01517 0.0
C731 C 0.87051 0.54331 0.91881 0.0
C732 C 0.85492 0.53763 0.87363 0.0
C733 C 0.90066 0.55411 0.00038 0.0
C734 C 0.90587 0.54598 0.9445 0.0
C735 C 0.89073 0.54091 0.90418 0.0
C736 C 0.92682 0.54145 0.92786 0.0
C737 C 0.91635 0.56026 0.04462 0.0
C738 C 0.93549 0.55037 0.87753 0.0
C739 C 0.95367 0.5434 0.85506 0.0
C740 C 0.96336 0.52719 0.8821 0.0
C741 C 0.95527 0.51916 0.93471 0.0
C742 C 0.9372 0.52626 0.95745 0.0
H743 H 0.91021 0.57038 0.07916 0.0
H744 H 0.92225 0.54682 0.06723 0.0
H745 H 0.92897 0.56779 0.02181 0.0
H746 H 0.92763 0.56198 0.8537 0.0
H747 H 0.95917 0.54952 0.81355 0.0
H748 H 0.04814 0.17472 0.22056 0.0
H749 H 0.03427 0.15117 0.14915 0.0
H750 H 0.09338 0.13845 0.08355 0.0
H751 H 0.10747 0.16161 0.15632 0.0
H752 H 0.037 0.15269 0.02695 0.0
H753 H 0.07105 0.08315 0.11374 0.0
H754 H 0.0707 0.106 0.15589 0.0
H755 H 0.08853 0.10259 0.09693 0.0
C756 C 0.05821 0.16679 0.19123 0.0
C757 C 0.0789 0.16988 0.19412 0.0
C758 C 0.05026 0.15337 0.15048 0.0
C759 C 0.06282 0.14291 0.11168 0.0
C760 C 0.08348 0.14604 0.11414 0.0
H761 H 0.04213 0.05817 0.82981 0.0
H762 H 0.0562 0.08028 0.90497 0.0
C763 C 0.0915 0.1593 0.1555 0.0
C764 C 0.05412 0.12922 0.06743 0.0
H765 H 0.05354 0.08079 0.0226 0.0
C766 C 0.04054 0.13694 0.02601 0.0
C767 C 0.05887 0.10874 0.06637 0.0
C768 C 0.07295 0.09955 0.1109 0.0
C769 C 0.03177 0.12478 0.98276 0.0
C770 C 0.03637 0.10423 0.98199 0.0
C771 C 0.04999 0.09653 0.02343 0.0
C772 C 0.02762 0.0905 0.93773 0.0
C773 C 0.01811 0.13421 0.93746 0.0
C774 C 0.00687 0.08861 0.93201 0.0
C775 C 0.99879 0.07627 0.8883 0.0
C776 C 0.01136 0.0652 0.85086 0.0
C777 C 0.0321 0.06647 0.85831 0.0
C778 C 0.04015 0.07912 0.90113 0.0
H779 H 0.02082 0.15047 0.93334 0.0
H780 H 0.02001 0.12732 0.89293 0.0
H781 H 0.00242 0.13212 0.95179 0.0
H782 H 0.99691 0.09676 0.9611 0.0
H783 H 0.98275 0.07534 0.8839 0.0
H784 H 0.35556 0.08676 0.24059 0.0
H785 H 0.38342 0.0766 0.17793 0.0
H786 H 0.34335 0.06758 0.03068 0.0
H787 H 0.3151 0.07778 0.09342 0.0
H788 H 0.38708 0.03863 0.1119 0.0
H789 H 0.38857 0.10644 0.96926 0.0
H790 H 0.37635 0.10601 0.04098 0.0
H791 H 0.36506 0.09392 0.97845 0.0
C792 C 0.35259 0.08273 0.1948 0.0
C793 C 0.33311 0.08328 0.17177 0.0
C794 C 0.36855 0.07685 0.15918 0.0
C795 C 0.36544 0.07157 0.09971 0.0
C796 C 0.34603 0.07188 0.07642 0.0
H797 H 0.44005 0.03497 0.81282 0.0
H798 H 0.41532 0.05027 0.8777 0.0
C799 C 0.32995 0.07767 0.11225 0.0
C800 C 0.38266 0.06572 0.0626 0.0
H801 H 0.4121 0.0814 0.9479 0.0
C802 C 0.39264 0.04795 0.07606 0.0
C803 C 0.38973 0.07795 0.01601 0.0
C804 C 0.37951 0.09723 0.00022 0.0
C805 C 0.40933 0.04181 0.04312 0.0
C806 C 0.41667 0.05421 0.99696 0.0
C807 C 0.40669 0.07208 0.98391 0.0
C808 C 0.43323 0.04788 0.95744 0.0
C809 C 0.41838 0.02174 0.05658 0.0
C810 C 0.45203 0.04239 0.98001 0.0
C811 C 0.46627 0.03355 0.94263 0.0
C812 C 0.46181 0.03036 0.88246 0.0
C813 C 0.44371 0.0373 0.85927 0.0
C814 C 0.42958 0.04602 0.89631 0.0
H815 H 0.40806 0.01216 0.08263 0.0
H816 H 0.42243 0.0138 0.01497 0.0
H817 H 0.43211 0.02383 0.08327 0.0
H818 H 0.45534 0.04418 0.02684 0.0
H819 H 0.48013 0.02817 0.9613 0.0
H820 H 0.41657 0.34645 0.15423 0.0
H821 H 0.42628 0.36742 0.06958 0.0
H822 H 0.47474 0.39162 0.17251 0.0
H823 H 0.46557 0.37041 0.2562 0.0
H824 H 0.43075 0.40776 0.05341 0.0
H825 H 0.50316 0.3693 0.02765 0.0
H826 H 0.48349 0.35979 0.07458 0.0
H827 H 0.49986 0.37901 0.10131 0.0
C828 C 0.42913 0.35643 0.15896 0.0
C829 C 0.44043 0.35668 0.21155 0.0
C830 C 0.43469 0.36834 0.1106 0.0
C831 C 0.45153 0.38065 0.11444 0.0
C832 C 0.46204 0.38179 0.16816 0.0
H833 H 0.4897 0.47914 0.89823 0.0
H834 H 0.47411 0.45712 0.97154 0.0
C835 C 0.45666 0.36978 0.21611 0.0
C836 C 0.45854 0.39202 0.06215 0.0
H837 H 0.49978 0.40044 0.97702 0.0
C838 C 0.44577 0.40607 0.03621 0.0
C839 C 0.47797 0.38938 0.03891 0.0
C840 C 0.49183 0.3734 0.06162 0.0
C841 C 0.45224 0.41822 0.98919 0.0
C842 C 0.47215 0.41657 0.9689 0.0
C843 C 0.48461 0.40192 0.99325 0.0
C844 C 0.4806 0.43002 0.92319 0.0
C845 C 0.43767 0.43259 0.96154 0.0
C846 C 0.48987 0.42205 0.87256 0.0
C847 C 0.49916 0.43454 0.83144 0.0
C848 C 0.49925 0.45525 0.84 0.0
C849 C 0.48975 0.46325 0.89032 0.0
C850 C 0.48068 0.4507 0.93193 0.0
H851 H 0.42204 0.42756 0.96807 0.0
H852 H 0.43924 0.44733 0.98318 0.0
H853 H 0.44047 0.4344 0.91311 0.0
H854 H 0.49004 0.40613 0.86509 0.0
H855 H 0.50621 0.42794 0.7928 0.0
H856 H 0.15184 0.46236 0.2604 0.0
H857 H 0.1313 0.47338 0.17728 0.0
H858 H 0.15295 0.4247 0.07053 0.0
H859 H 0.17373 0.41337 0.15398 0.0
H860 H 0.15359 0.47448 0.03344 0.0
H861 H 0.08328 0.4345 0.08955 0.0
H862 H 0.09865 0.44366 0.14938 0.0
H863 H 0.10756 0.42381 0.10332 0.0
C864 C 0.15211 0.45381 0.21956 0.0
C865 C 0.1644 0.43698 0.21366 0.0
C866 C 0.14041 0.46018 0.17218 0.0
C867 C 0.14078 0.44987 0.11818 0.0
C868 C 0.1526 0.43279 0.11218 0.0
H869 H 0.0573 0.47917 0.83556 0.0
H870 H 0.07964 0.4614 0.90286 0.0
C871 C 0.16431 0.42631 0.15986 0.0
C872 C 0.12899 0.45749 0.06808 0.0
H873 H 0.08135 0.45984 0.01708 0.0
C874 C 0.13785 0.47112 0.02897 0.0
C875 C 0.10861 0.45287 0.06265 0.0
C876 C 0.09883 0.43785 0.10315 0.0
C877 C 0.12657 0.4808 0.98515 0.0
C878 C 0.1058 0.47713 0.982 0.0
C879 C 0.0972 0.46284 0.01987 0.0
C880 C 0.0926 0.48807 0.94054 0.0
C881 C 0.13708 0.49477 0.94281 0.0
C882 C 0.09223 0.50898 0.93995 0.0
C883 C 0.07978 0.51916 0.90054 0.0
C884 C 0.06701 0.50856 0.86278 0.0
C885 C 0.06688 0.48768 0.86483 0.0
C886 C 0.07968 0.47752 0.90302 0.0
H887 H 0.15305 0.49073 0.93766 0.0
H888 H 0.13001 0.49473 0.89818 0.0
H889 H 0.13647 0.51011 0.96094 0.0
H890 H 0.10151 0.51745 0.97003 0.0
H891 H 0.08 0.53527 0.89991 0.0
H892 H 0.01368 0.83812 0.25631 0.0
H893 H 0.01441 0.86692 0.32278 0.0
H894 H 0.95215 0.85835 0.36342 0.0
H895 H 0.95134 0.82936 0.29804 0.0
H896 H 0.99078 0.90216 0.31645 0.0
H897 H 0.97874 0.8603 0.52774 0.0
H898 H 0.98591 0.8481 0.45946 0.0
H899 H 0.96073 0.85644 0.46982 0.0
C900 C 0.0002 0.84226 0.27978 0.0
C901 C 0.9825 0.83139 0.27226 0.0
C902 C 0.0006 0.85876 0.31741 0.0
C903 C 0.98336 0.86464 0.34814 0.0
C904 C 0.96567 0.85386 0.3407 0.0
H905 H 0.98307 0.97389 0.56881 0.0
H906 H 0.97162 0.94949 0.49499 0.0
C907 C 0.96526 0.83731 0.3033 0.0
C908 C 0.9841 0.88198 0.38833 0.0
H909 H 0.98343 0.89482 0.53512 0.0
C910 C 0.98891 0.90066 0.36422 0.0
C911 C 0.98151 0.8799 0.45049 0.0
C912 C 0.97656 0.86011 0.47874 0.0
C913 C 0.99207 0.91719 0.40108 0.0
C914 C 0.99039 0.91484 0.46328 0.0
C915 C 0.98463 0.89644 0.4872 0.0
C916 C 0.99731 0.93033 0.50471 0.0
C917 C 0.99824 0.93677 0.37388 0.0
C918 C 0.0155 0.92756 0.5339 0.0
C919 C 0.02204 0.94131 0.5758 0.0
C920 C 0.01047 0.95813 0.58938 0.0
C921 C 0.99237 0.96113 0.55904 0.0
C922 C 0.98579 0.94725 0.51701 0.0
H923 H -0.00099 0.93608 0.32453 0.0
H924 H 0.98744 0.94851 0.38679 0.0
H925 H 0.01306 0.9412 0.39127 0.0
H926 H 0.02457 0.91458 0.52467 0.0
H927 H 0.0361 0.93861 0.598 0.0
H928 H 0.65729 0.99342 0.22002 0.0
H929 H 0.6291 0.99062 0.28875 0.0
H930 H 0.66539 0.9565 0.40995 0.0
H931 H 0.69373 0.9597 0.34273 0.0
H932 H 0.61031 0.95648 0.32931 0.0
H933 H 0.64294 -0.00063 0.51674 0.0
H934 H 0.65357 -0.00038 0.443 0.0
H935 H 0.65804 0.97894 0.49207 0.0
C936 C 0.65934 0.98558 0.26172 0.0
C937 C 0.67774 0.97687 0.27614 0.0
C938 C 0.64321 0.98387 0.30065 0.0
C939 C 0.64525 0.97345 0.35444 0.0
C940 C 0.66362 0.96486 0.36907 0.0
H941 H 0.56046 0.9677 0.64591 0.0
H942 H 0.58349 0.95273 0.57367 0.0
C943 C 0.67978 0.96669 0.3305 0.0
C944 C 0.62811 0.97152 0.39517 0.0
H945 H 0.61185 0.98423 0.53365 0.0
C946 C 0.61065 0.96242 0.37417 0.0
C947 C 0.62873 0.97918 0.45369 0.0
C948 C 0.64674 0.98998 0.47766 0.0
C949 C 0.5935 0.96134 0.4098 0.0
C950 C 0.59401 0.96946 0.46756 0.0
C951 C 0.61171 0.97772 0.48947 0.0
C952 C 0.57579 0.973 0.50248 0.0
C953 C 0.57482 0.95207 0.38518 0.0
C954 C 0.56335 0.98872 0.48518 0.0
C955 C 0.55066 0.99753 0.52656 0.0
C956 C 0.54998 0.99041 0.58517 0.0
C957 C 0.56064 0.97321 0.60056 0.0
C958 C 0.57374 0.96467 0.55946 0.0
H959 H 0.57806 0.94236 0.34638 0.0
H960 H 0.56707 0.94319 0.41996 0.0
H961 H 0.56454 0.96404 0.37049 0.0
H962 H 0.56499 0.99553 0.44169 0.0
H963 H 0.5426 0.01088 0.51418 0.0
H964 H 0.5364 0.65092 0.1592 0.0
H965 H 0.53808 0.62547 0.23679 0.0
H966 H 0.52453 0.66964 0.36989 0.0
H967 H 0.52312 0.69531 0.29272 0.0
H968 H 0.55704 0.64481 0.3993 0.0
H969 H 0.49097 0.60112 0.32709 0.0
H970 H 0.50944 0.60551 0.2706 0.0
H971 H 0.49572 0.62608 0.30104 0.0
C972 C 0.53351 0.6552 0.20488 0.0
C973 C 0.52947 0.67512 0.21979 0.0
C974 C 0.5345 0.64062 0.24914 0.0
C975 C 0.53127 0.64566 0.30893 0.0
C976 C 0.52707 0.66548 0.32392 0.0
H977 H 0.51471 0.59385 0.64716 0.0
H978 H 0.52323 0.61491 0.56244 0.0
C979 C 0.52615 0.68009 0.27975 0.0
C980 C 0.53234 0.63034 0.35613 0.0
H981 H 0.50919 0.58862 0.40835 0.0
C982 C 0.54666 0.63245 0.40117 0.0
C983 C 0.51887 0.61418 0.3581 0.0
C984 C 0.50276 0.61158 0.31197 0.0
C985 C 0.54759 0.61899 0.4489 0.0
C986 C 0.53372 0.60321 0.45175 0.0
C987 C 0.51988 0.60069 0.40567 0.0
C988 C 0.53171 0.59049 0.50511 0.0
C989 C 0.56323 0.62186 0.49623 0.0
C990 C 0.53384 0.56976 0.50105 0.0
C991 C 0.529 0.55762 0.54963 0.0
C992 C 0.52159 0.56607 0.60244 0.0
C993 C 0.52024 0.58689 0.60694 0.0
C994 C 0.52527 0.59897 0.55874 0.0
H995 H 0.57601 0.63078 0.47944 0.0
H996 H 0.55656 0.62993 0.53444 0.0
H997 H 0.56887 0.60733 0.51265 0.0
H998 H 0.53865 0.56296 0.45975 0.0
H999 H 0.53015 0.54163 0.54485 0.0
H1000 H 0.87113 0.55125 0.1802 0.0
H1001 H 0.89685 0.55416 0.25741 0.0
H1002 H 0.85584 0.53027 0.38718 0.0
H1003 H 0.83041 0.52676 0.31039 0.0
H1004 H 0.89812 0.57249 0.37764 0.0
H1005 H 0.90266 0.49004 0.37714 0.0
H1006 H 0.89049 0.50388 0.31871 0.0
H1007 H 0.87786 0.49934 0.38812 0.0
C1008 C 0.86762 0.54678 0.22537 0.0
C1009 C 0.84904 0.53833 0.23933 0.0
C1010 C 0.88223 0.54858 0.26929 0.0
C1011 C 0.87822 0.54216 0.32747 0.0
C1012 C 0.85922 0.53499 0.34215 0.0
H1013 H 0.93113 0.51474 0.65486 0.0
H1014 H 0.90997 0.5258 0.57313 0.0
C1015 C 0.8448 0.53287 0.29828 0.0
C1016 C 0.89428 0.54073 0.3717 0.0
H1017 H 0.91826 0.50668 0.45792 0.0
C1018 C 0.90278 0.55816 0.39489 0.0
C1019 C 0.90042 0.52195 0.39315 0.0
C1020 C 0.89254 0.50273 0.36762 0.0
C1021 C 0.91658 0.5572 0.44182 0.0
C1022 C 0.92179 0.53842 0.46523 0.0
C1023 C 0.91397 0.52106 0.44005 0.0
C1024 C 0.93443 0.53599 0.51813 0.0
C1025 C 0.9249 0.57613 0.46767 0.0
C1026 C 0.95513 0.53852 0.5144 0.0
C1027 C 0.9673 0.5322 0.56119 0.0
C1028 C 0.95886 0.523 0.61156 0.0
C1029 C 0.93806 0.52142 0.6161 0.0
C1030 C 0.92595 0.52792 0.56981 0.0
H1031 H 0.91805 0.58961 0.44764 0.0
H1032 H 0.92245 0.57641 0.51655 0.0
H1033 H 0.94123 0.57666 0.45979 0.0
H1034 H 0.96189 0.54442 0.4743 0.0
H1035 H 0.98331 0.53365 0.55674 0.0
loop_
_geom_bond_atom_site_label_1
_geom_bond_atom_site_label_2
_geom_bond_distance
_geom_bond_site_symmetry_2
_ccdc_geom_bond_type
O0 Cd1 2.300 . S
O0 C7 1.275 . S
Cd1 O0 2.300 . S
Cd1 O9 2.381 . S
Cd1 O10 2.378 . S
O2 Cd3 2.385 . S
O2 C7 1.255 . S
Cd3 O2 2.385 . S
Cd3 O4 2.317 . S
O4 Cd3 2.317 . S
O4 C5 1.232 . S
C5 O4 1.232 . S
C5 O6 1.218 . S
O6 C5 1.218 . S
C7 O0 1.275 . S
C7 O2 1.255 . S
C8 O9 1.258 . S
C8 O10 1.256 . S
O9 Cd1 2.381 . S
O9 C8 1.258 . S
O10 Cd1 2.378 . S
O10 C8 1.256 . S
O11 Cd12 2.300 . S
O11 C18 1.275 . S
Cd12 O11 2.300 . S
Cd12 O20 2.381 . S
Cd12 O21 2.378 . S
O13 Cd14 2.385 1_655 S
O13 C18 1.255 . S
Cd14 O13 2.385 1_455 S
Cd14 O15 2.317 1_455 S
O15 Cd14 2.317 1_655 S
O15 C16 1.232 . S
C16 O15 1.232 . S
C16 O17 1.218 . S
O17 C16 1.218 . S
C18 O11 1.275 . S
C18 O13 1.255 . S
C19 O20 1.258 . S
C19 O21 1.256 . S
O20 Cd12 2.381 . S
O20 C19 1.258 . S
O21 Cd12 2.378 . S
O21 C19 1.256 . S
O22 Cd23 2.300 . S
O22 C29 1.275 . S
Cd23 O22 2.300 . S
Cd23 O31 2.381 . S
Cd23 O32 2.378 . S
O24 Cd25 2.385 1_565 S
O24 C29 1.255 . S
Cd25 O24 2.385 1_545 S
Cd25 O26 2.317 1_545 S
O26 Cd25 2.317 1_565 S
O26 C27 1.232 . S
C27 O26 1.232 . S
C27 O28 1.218 . S
O28 C27 1.218 . S
C29 O22 1.275 . S
C29 O24 1.255 . S
C30 O31 1.258 . S
C30 O32 1.256 . S
O31 Cd23 2.381 . S
O31 C30 1.258 . S
O32 Cd23 2.378 . S
O32 C30 1.256 . S
O33 Cd34 2.300 . S
O33 C40 1.275 . S
Cd34 O33 2.300 . S
Cd34 O42 2.381 . S
Cd34 O43 2.378 . S
O35 Cd36 2.385 . S
O35 C40 1.255 . S
Cd36 O35 2.385 . S
Cd36 O37 2.317 . S
O37 Cd36 2.317 . S
O37 C38 1.232 . S
C38 O37 1.232 . S
C38 O39 1.218 . S
O39 C38 1.218 . S
C40 O33 1.275 . S
C40 O35 1.255 . S
C41 O42 1.258 . S
C41 O43 1.256 . S
O42 Cd34 2.381 . S
O42 C41 1.258 . S
O43 Cd34 2.378 . S
O43 C41 1.256 . S
O44 Cd45 2.300 . S
O44 C51 1.275 . S
Cd45 O44 2.300 . S
Cd45 O53 2.381 . S
Cd45 O54 2.378 . S
O46 Cd47 2.385 . S
O46 C51 1.255 . S
Cd47 O46 2.385 . S
Cd47 O48 2.317 . S
O48 Cd47 2.317 . S
O48 C49 1.232 . S
C49 O48 1.232 . S
C49 O50 1.218 . S
O50 C49 1.218 . S
C51 O44 1.275 . S
C51 O46 1.255 . S
C52 O53 1.258 . S
C52 O54 1.256 . S
O53 Cd45 2.381 . S
O53 C52 1.258 . S
O54 Cd45 2.378 . S
O54 C52 1.256 . S
O55 Cd56 2.300 . S
O55 C62 1.275 . S
Cd56 O55 2.300 . S
Cd56 O64 2.381 . S
Cd56 O65 2.378 . S
O57 Cd58 2.385 . S
O57 C62 1.255 . S
Cd58 O57 2.385 . S
Cd58 O59 2.317 . S
O59 Cd58 2.317 . S
O59 C60 1.232 . S
C60 O59 1.232 . S
C60 O61 1.218 . S
O61 C60 1.218 . S
C62 O55 1.275 . S
C62 O57 1.255 . S
C63 O64 1.258 . S
C63 O65 1.256 . S
O64 Cd56 2.381 . S
O64 C63 1.258 . S
O65 Cd56 2.378 . S
O65 C63 1.256 . S
O66 Cd67 2.300 . S
O66 C73 1.275 . S
Cd67 O66 2.300 . S
Cd67 O75 2.381 . S
Cd67 O76 2.378 . S
O68 Cd69 2.385 . S
O68 C73 1.255 . S
Cd69 O68 2.385 . S
Cd69 O70 2.317 . S
O70 Cd69 2.317 . S
O70 C71 1.232 . S
C71 O70 1.232 . S
C71 O72 1.218 . S
O72 C71 1.218 . S
C73 O66 1.275 . S
C73 O68 1.255 . S
C74 O75 1.258 . S
C74 O76 1.256 . S
O75 Cd67 2.381 . S
O75 C74 1.258 . S
O76 Cd67 2.378 . S
O76 C74 1.256 . S
O77 Cd78 2.300 . S
O77 C84 1.275 . S
Cd78 O77 2.300 . S
Cd78 O86 2.381 . S
Cd78 O87 2.378 . S
O79 Cd80 2.385 . S
O79 C84 1.255 . S
Cd80 O79 2.385 . S
Cd80 O81 2.317 . S
O81 Cd80 2.317 . S
O81 C82 1.232 . S
C82 O81 1.232 . S
C82 O83 1.218 . S
O83 C82 1.218 . S
C84 O77 1.275 . S
C84 O79 1.255 . S
C85 O86 1.258 . S
C85 O87 1.256 . S
O86 Cd78 2.381 . S
O86 C85 1.258 . S
O87 Cd78 2.378 . S
O87 C85 1.256 . S
O88 Mg89 1.990 . S
O88 C102 1.253 . S
Mg89 O88 1.990 . S
Mg89 O92 2.180 1_565 S
Mg89 O93 2.117 . S
Mg89 O107 2.030 . S
O90 Mg91 2.072 1_565 S
O90 C102 1.260 . S
Mg91 O90 2.072 1_545 S
Mg91 O92 2.099 . S
Mg91 O94 2.079 . S
Mg91 O95 2.072 . S
Mg91 O97 2.099 1_455 S
Mg91 O108 2.079 1_545 S
O92 Mg89 2.180 1_545 S
O92 Mg91 2.099 . S
O92 C103 1.279 . S
O93 Mg89 2.117 . S
O93 C103 1.250 1_565 S
O94 Mg91 2.079 . S
O94 C104 1.264 . S
O95 Mg91 2.072 . S
O95 C105 1.260 . S
Mg96 O97 2.180 . S
Mg96 O98 2.030 . S
Mg96 O99 1.990 1_655 S
Mg96 O100 2.117 . S
O97 Mg91 2.099 1_655 S
O97 Mg96 2.180 . S
O97 C106 1.279 . S
O98 Mg96 2.030 . S
O98 C104 1.248 1_655 S
O99 Mg96 1.990 1_455 S
O99 C105 1.253 . S
O100 Mg96 2.117 . S
O100 C106 1.250 . S
C101 O107 1.248 . S
C101 O108 1.264 . S
C102 O88 1.253 . S
C102 O90 1.260 . S
C103 O92 1.279 . S
C103 O93 1.250 1_545 S
C104 O94 1.264 . S
C104 O98 1.248 1_455 S
C105 O95 1.260 . S
C105 O99 1.253 . S
C106 O97 1.279 . S
C106 O100 1.250 . S
O107 Mg89 2.030 . S
O107 C101 1.248 . S
O108 Mg91 2.079 1_565 S
O108 C101 1.264 . S
O109 Mg110 1.990 1_545 S
O109 C123 1.253 . S
Mg110 O109 1.990 1_565 S
Mg110 O113 2.180 . S
Mg110 O114 2.117 . S
Mg110 O128 2.030 . S
O111 Mg112 2.072 . S
O111 C123 1.260 . S
Mg112 O111 2.072 . S
Mg112 O113 2.099 1_545 S
Mg112 O115 2.079 . S
Mg112 O116 2.072 . S
Mg112 O118 2.099 . S
Mg112 O129 2.079 . S
O113 Mg110 2.180 . S
O113 Mg112 2.099 1_565 S
O113 C124 1.279 . S
O114 Mg110 2.117 . S
O114 C124 1.250 . S
O115 Mg112 2.079 . S
O115 C125 1.264 . S
O116 Mg112 2.072 . S
O116 C126 1.260 . S
Mg117 O118 2.180 . S
Mg117 O119 2.030 . S
Mg117 O120 1.990 . S
Mg117 O121 2.117 . S
O118 Mg112 2.099 . S
O118 Mg117 2.180 . S
O118 C127 1.279 . S
O119 Mg117 2.030 . S
O119 C125 1.248 . S
O120 Mg117 1.990 . S
O120 C126 1.253 . S
O121 Mg117 2.117 . S
O121 C127 1.250 . S
C122 O128 1.248 1_545 S
C122 O129 1.264 . S
C123 O109 1.253 . S
C123 O111 1.260 . S
C124 O113 1.279 . S
C124 O114 1.250 . S
C125 O115 1.264 . S
C125 O119 1.248 . S
C126 O116 1.260 . S
C126 O120 1.253 . S
C127 O118 1.279 . S
C127 O121 1.250 . S
O128 Mg110 2.030 . S
O128 C122 1.248 1_565 S
O129 Mg112 2.079 . S
O129 C122 1.264 . S
O130 Mg131 1.990 . S
O130 C144 1.253 . S
Mg131 O130 1.990 . S
Mg131 O134 2.180 . S
Mg131 O135 2.117 . S
Mg131 O149 2.030 . S
O132 Mg133 2.072 . S
O132 C144 1.260 . S
Mg133 O132 2.072 . S
Mg133 O134 2.099 . S
Mg133 O136 2.079 . S
Mg133 O137 2.072 . S
Mg133 O139 2.099 . S
Mg133 O150 2.079 . S
O134 Mg131 2.180 . S
O134 Mg133 2.099 . S
O134 C145 1.279 . S
O135 Mg131 2.117 . S
O135 C145 1.250 . S
O136 Mg133 2.079 . S
O136 C146 1.264 . S
O137 Mg133 2.072 . S
O137 C147 1.260 . S
Mg138 O139 2.180 . S
Mg138 O140 2.030 . S
Mg138 O141 1.990 . S
Mg138 O142 2.117 . S
O139 Mg133 2.099 . S
O139 Mg138 2.180 . S
O139 C148 1.279 . S
O140 Mg138 2.030 . S
O140 C146 1.248 . S
O141 Mg138 1.990 . S
O141 C147 1.253 . S
O142 Mg138 2.117 . S
O142 C148 1.250 . S
C143 O149 1.248 . S
C143 O150 1.264 . S
C144 O130 1.253 . S
C144 O132 1.260 . S
C145 O134 1.279 . S
C145 O135 1.250 . S
C146 O136 1.264 . S
C146 O140 1.248 . S
C147 O137 1.260 . S
C147 O141 1.253 . S
C148 O139 1.279 . S
C148 O142 1.250 . S
O149 Mg131 2.030 . S
O149 C143 1.248 . S
O150 Mg133 2.079 . S
O150 C143 1.264 . S
O151 Mg152 1.990 . S
O151 C165 1.253 . S
Mg152 O151 1.990 . S
Mg152 O155 2.180 1_655 S
Mg152 O156 2.117 . S
Mg152 O170 2.030 . S
O153 Mg154 2.072 1_655 S
O153 C165 1.260 . S
Mg154 O153 2.072 1_455 S
Mg154 O155 2.099 . S
Mg154 O157 2.079 . S
Mg154 O158 2.072 . S
Mg154 O160 2.099 . S
Mg154 O171 2.079 1_455 S
O155 Mg152 2.180 1_455 S
O155 Mg154 2.099 . S
O155 C166 1.279 . S
O156 Mg152 2.117 . S
O156 C166 1.250 1_655 S
O157 Mg154 2.079 . S
O157 C167 1.264 . S
O158 Mg154 2.072 . S
O158 C168 1.260 . S
Mg159 O160 2.180 . S
Mg159 O161 2.030 . S
Mg159 O162 1.990 . S
Mg159 O163 2.117 . S
O160 Mg154 2.099 . S
O160 Mg159 2.180 . S
O160 C169 1.279 . S
O161 Mg159 2.030 . S
O161 C167 1.248 . S
O162 Mg159 1.990 . S
O162 C168 1.253 . S
O163 Mg159 2.117 . S
O163 C169 1.250 . S
C164 O170 1.248 . S
C164 O171 1.264 . S
C165 O151 1.253 . S
C165 O153 1.260 . S
C166 O155 1.279 . S
C166 O156 1.250 1_455 S
C167 O157 1.264 . S
C167 O161 1.248 . S
C168 O158 1.260 . S
C168 O162 1.253 . S
C169 O160 1.279 . S
C169 O163 1.250 . S
O170 Mg152 2.030 . S
O170 C164 1.248 . S
O171 Mg154 2.079 1_655 S
O171 C164 1.264 . S
H172 C180 0.929 . S
H173 C182 0.930 . S
H174 C184 0.930 . S
H175 C187 0.929 . S
H176 C190 0.930 . S
H177 C192 0.960 . S
H178 C192 0.960 . S
H179 C192 0.960 . S
C180 H172 0.929 . S
C180 C181 1.377 . S
C180 C182 1.384 . S
C181 C180 1.377 . S
C181 C187 1.390 . S
C182 H173 0.930 . S
C182 C180 1.384 . S
C182 C183 1.372 . S
C183 C182 1.372 . S
C183 C184 1.400 . S
C183 C188 1.490 . S
C184 H174 0.930 . S
C184 C183 1.400 . S
C184 C187 1.386 . S
H185 C201 0.930 . S
H186 C202 0.931 . S
C187 H175 0.929 . S
C187 C181 1.390 . S
C187 C184 1.386 . S
C188 C183 1.490 . S
C188 C190 1.395 . S
C188 C191 1.403 . S
H189 C195 0.930 . S
C190 H176 0.930 . S
C190 C188 1.395 . S
C190 C193 1.403 . S
C191 C188 1.403 . S
C191 C192 1.524 . S
C191 C195 1.400 . S
C192 H177 0.960 . S
C192 H178 0.960 . S
C192 H179 0.960 . S
C192 C191 1.524 . S
C193 C190 1.403 . S
C193 C194 1.392 . S
C193 C197 1.495 1_545 S
C194 C193 1.392 . S
C194 C195 1.385 . S
C194 C196 1.478 . S
C195 H189 0.930 . S
C195 C191 1.400 . S
C195 C194 1.385 . S
C196 C194 1.478 . S
C196 C198 1.381 . S
C196 C202 1.383 . S
C197 C193 1.495 1_565 S
C197 H203 0.959 . S
C197 H204 0.961 . S
C197 H205 0.960 1_565 S
C198 C196 1.381 . S
C198 C199 1.394 . S
C198 H206 0.930 . S
C199 C198 1.394 . S
C199 C200 1.383 . S
C199 H207 0.929 . S
C200 C199 1.383 . S
C200 C201 1.377 . S
C201 H185 0.930 . S
C201 C200 1.377 . S
C201 C202 1.379 . S
C202 H186 0.931 . S
C202 C196 1.383 . S
C202 C201 1.379 . S
H203 C197 0.959 . S
H204 C197 0.961 . S
H205 C197 0.960 1_545 S
H206 C198 0.930 . S
H207 C199 0.929 . S
H208 C216 0.929 . S
H209 C218 0.930 . S
H210 C220 0.930 . S
H211 C223 0.929 . S
H212 C226 0.930 . S
H213 C228 0.960 . S
H214 C228 0.960 . S
H215 C228 0.960 . S
C216 H208 0.929 . S
C216 C217 1.377 . S
C216 C218 1.384 . S
C217 C216 1.377 . S
C217 C223 1.390 . S
C218 H209 0.930 . S
C218 C216 1.384 . S
C218 C219 1.372 . S
C219 C218 1.372 . S
C219 C220 1.400 . S
C219 C224 1.490 . S
C220 H210 0.930 . S
C220 C219 1.400 . S
C220 C223 1.386 . S
H221 C237 0.930 . S
H222 C238 0.931 . S
C223 H211 0.929 . S
C223 C217 1.390 . S
C223 C220 1.386 . S
C224 C219 1.490 . S
C224 C226 1.395 . S
C224 C227 1.403 . S
H225 C231 0.930 . S
C226 H212 0.930 . S
C226 C224 1.395 . S
C226 C229 1.403 . S
C227 C224 1.403 . S
C227 C228 1.524 . S
C227 C231 1.400 . S
C228 H213 0.960 . S
C228 H214 0.960 . S
C228 H215 0.960 . S
C228 C227 1.524 . S
C229 C226 1.403 . S
C229 C230 1.392 . S
C229 C233 1.495 . S
C230 C229 1.392 . S
C230 C231 1.385 . S
C230 C232 1.478 . S
C231 H225 0.930 . S
C231 C227 1.400 . S
C231 C230 1.385 . S
C232 C230 1.478 . S
C232 C234 1.381 . S
C232 C238 1.383 . S
C233 C229 1.495 . S
C233 H239 0.959 . S
C233 H240 0.961 . S
C233 H241 0.960 . S
C234 C232 1.381 . S
C234 C235 1.394 . S
C234 H242 0.930 . S
C235 C234 1.394 . S
C235 C236 1.383 . S
C235 H243 0.929 . S
C236 C235 1.383 . S
C236 C237 1.377 . S
C237 H221 0.930 . S
C237 C236 1.377 . S
C237 C238 1.379 . S
C238 H222 0.931 . S
C238 C232 1.383 . S
C238 C237 1.379 . S
H239 C233 0.959 . S
H240 C233 0.961 . S
H241 C233 0.960 . S
H242 C234 0.930 . S
H243 C235 0.929 . S
H244 C252 0.929 . S
H245 C254 0.930 . S
H246 C256 0.930 . S
H247 C259 0.929 . S
H248 C262 0.930 . S
H249 C264 0.960 . S
H250 C264 0.960 . S
H251 C264 0.960 . S
C252 H244 0.929 . S
C252 C253 1.377 . S
C252 C254 1.384 . S
C253 C252 1.377 . S
C253 C259 1.390 . S
C254 H245 0.930 . S
C254 C252 1.384 . S
C254 C255 1.372 . S
C255 C254 1.372 . S
C255 C256 1.400 . S
C255 C260 1.490 . S
C256 H246 0.930 . S
C256 C255 1.400 . S
C256 C259 1.386 . S
H257 C273 0.930 . S
H258 C274 0.931 . S
C259 H247 0.929 . S
C259 C253 1.390 . S
C259 C256 1.386 . S
C260 C255 1.490 . S
C260 C262 1.395 . S
C260 C263 1.403 . S
H261 C267 0.930 . S
C262 H248 0.930 . S
C262 C260 1.395 . S
C262 C265 1.403 . S
C263 C260 1.403 . S
C263 C264 1.524 . S
C263 C267 1.400 . S
C264 H249 0.960 . S
C264 H250 0.960 . S
C264 H251 0.960 . S
C264 C263 1.524 . S
C265 C262 1.403 . S
C265 C266 1.392 . S
C265 C269 1.495 . S
C266 C265 1.392 . S
C266 C267 1.385 . S
C266 C268 1.478 . S
C267 H261 0.930 . S
C267 C263 1.400 . S
C267 C266 1.385 . S
C268 C266 1.478 . S
C268 C270 1.381 . S
C268 C274 1.383 . S
C269 C265 1.495 . S
C269 H275 0.959 . S
C269 H276 0.961 . S
C269 H277 0.960 . S
C270 C268 1.381 . S
C270 C271 1.394 . S
C270 H278 0.930 . S
C271 C270 1.394 . S
C271 C272 1.383 . S
C271 H279 0.929 . S
C272 C271 1.383 . S
C272 C273 1.377 . S
C273 H257 0.930 . S
C273 C272 1.377 . S
C273 C274 1.379 . S
C274 H258 0.931 . S
C274 C268 1.383 . S
C274 C273 1.379 . S
H275 C269 0.959 . S
H276 C269 0.961 . S
H277 C269 0.960 . S
H278 C270 0.930 . S
H279 C271 0.929 . S
H280 C288 0.929 . S
H281 C290 0.930 . S
H282 C292 0.930 . S
H283 C295 0.929 . S
H284 C298 0.930 . S
H285 C300 0.960 1_655 S
H286 C300 0.960 . S
H287 C300 0.960 . S
C288 H280 0.929 . S
C288 C289 1.377 . S
C288 C290 1.384 . S
C289 C288 1.377 . S
C289 C295 1.390 . S
C290 H281 0.930 . S
C290 C288 1.384 . S
C290 C291 1.372 . S
C291 C290 1.372 . S
C291 C292 1.400 . S
C291 C296 1.490 . S
C292 H282 0.930 . S
C292 C291 1.400 . S
C292 C295 1.386 . S
H293 C309 0.930 . S
H294 C310 0.931 . S
C295 H283 0.929 . S
C295 C289 1.390 . S
C295 C292 1.386 . S
C296 C291 1.490 . S
C296 C298 1.395 . S
C296 C299 1.403 . S
H297 C303 0.930 . S
C298 H284 0.930 . S
C298 C296 1.395 . S
C298 C301 1.403 . S
C299 C296 1.403 . S
C299 C300 1.524 . S
C299 C303 1.400 . S
C300 H285 0.960 1_455 S
C300 H286 0.960 . S
C300 H287 0.960 . S
C300 C299 1.524 . S
C301 C298 1.403 . S
C301 C302 1.392 . S
C301 C305 1.495 . S
C302 C301 1.392 . S
C302 C303 1.385 . S
C302 C304 1.478 . S
C303 H297 0.930 . S
C303 C299 1.400 . S
C303 C302 1.385 . S
C304 C302 1.478 . S
C304 C306 1.381 . S
C304 C310 1.383 . S
C305 C301 1.495 . S
C305 H311 0.959 . S
C305 H312 0.961 . S
C305 H313 0.960 . S
C306 C304 1.381 . S
C306 C307 1.394 . S
C306 H314 0.930 . S
C307 C306 1.394 . S
C307 C308 1.383 . S
C307 H315 0.929 . S
C308 C307 1.383 . S
C308 C309 1.377 . S
C309 H293 0.930 . S
C309 C308 1.377 . S
C309 C310 1.379 . S
C310 H294 0.931 . S
C310 C304 1.383 . S
C310 C309 1.379 . S
H311 C305 0.959 . S
H312 C305 0.961 . S
H313 C305 0.960 . S
H314 C306 0.930 . S
H315 C307 0.929 . S
H316 C324 0.929 . S
H317 C326 0.930 . S
H318 C328 0.930 . S
H319 C331 0.929 . S
H320 C334 0.930 . S
H321 C336 0.960 . S
H322 C336 0.960 . S
H323 C336 0.960 . S
C324 H316 0.929 . S
C324 C325 1.377 . S
C324 C326 1.384 . S
C325 C324 1.377 . S
C325 C331 1.390 1_554 S
C326 H317 0.930 . S
C326 C324 1.384 . S
C326 C327 1.372 1_554 S
C327 C326 1.372 1_556 S
C327 C328 1.400 . S
C327 C332 1.490 . S
C328 H318 0.930 . S
C328 C327 1.400 . S
C328 C331 1.386 . S
H329 C345 0.929 1_545 S
H330 C346 0.931 . S
C331 H319 0.929 . S
C331 C325 1.390 1_556 S
C331 C328 1.386 . S
C332 C327 1.490 . S
C332 C334 1.395 . S
C332 C335 1.403 1_565 S
H333 C339 0.930 . S
C334 H320 0.930 . S
C334 C332 1.395 . S
C334 C337 1.403 . S
C335 C332 1.403 1_545 S
C335 C336 1.524 . S
C335 C339 1.400 . S
C336 H321 0.960 . S
C336 H322 0.960 . S
C336 H323 0.960 . S
C336 C335 1.524 . S
C337 C334 1.403 . S
C337 C338 1.392 . S
C337 C341 1.495 . S
C338 C337 1.392 . S
C338 C339 1.385 1_565 S
C338 C340 1.478 . S
C339 H333 0.930 . S
C339 C335 1.400 . S
C339 C338 1.385 1_545 S
C340 C338 1.478 . S
C340 C342 1.381 . S
C340 C346 1.383 . S
C341 C337 1.495 . S
C341 H347 0.959 . S
C341 H348 0.961 . S
C341 H349 0.960 . S
C342 C340 1.381 . S
C342 C343 1.394 1_565 S
C342 H350 0.930 . S
C343 C342 1.394 1_545 S
C343 C344 1.383 . S
C343 H351 0.929 . S
C344 C343 1.383 . S
C344 C345 1.376 1_545 S
C345 H329 0.929 1_565 S
C345 C344 1.376 1_565 S
C345 C346 1.380 . S
C346 H330 0.931 . S
C346 C340 1.383 . S
C346 C345 1.380 . S
H347 C341 0.959 . S
H348 C341 0.961 . S
H349 C341 0.960 . S
H350 C342 0.930 . S
H351 C343 0.929 . S
H352 C360 0.929 . S
H353 C362 0.930 . S
H354 C364 0.930 . S
H355 C367 0.929 . S
H356 C370 0.930 . S
H357 C372 0.960 . S
H358 C372 0.960 . S
H359 C372 0.960 . S
C360 H352 0.929 . S
C360 C361 1.377 1_556 S
C360 C362 1.384 . S
C361 C360 1.377 1_554 S
C361 C367 1.390 . S
C362 H353 0.930 . S
C362 C360 1.384 . S
C362 C363 1.372 . S
C363 C362 1.372 . S
C363 C364 1.400 1_556 S
C363 C368 1.490 . S
C364 H354 0.930 . S
C364 C363 1.400 1_554 S
C364 C367 1.386 . S
H365 C381 0.930 . S
H366 C382 0.931 . S
C367 H355 0.929 . S
C367 C361 1.390 . S
C367 C364 1.386 . S
C368 C363 1.490 . S
C368 C370 1.395 . S
C368 C371 1.403 . S
H369 C375 0.930 . S
C370 H356 0.930 . S
C370 C368 1.395 . S
C370 C373 1.403 . S
C371 C368 1.403 . S
C371 C372 1.524 1_556 S
C371 C375 1.400 . S
C372 H357 0.960 . S
C372 H358 0.960 . S
C372 H359 0.960 . S
C372 C371 1.524 1_554 S
C373 C370 1.403 . S
C373 C374 1.392 . S
C373 C377 1.495 . S
C374 C373 1.392 . S
C374 C375 1.385 . S
C374 C376 1.478 . S
C375 H369 0.930 . S
C375 C371 1.400 . S
C375 C374 1.385 . S
C376 C374 1.478 . S
C376 C378 1.381 . S
C376 C382 1.383 . S
C377 C373 1.495 . S
C377 H383 0.959 . S
C377 H384 0.961 . S
C377 H385 0.960 . S
C378 C376 1.381 . S
C378 C379 1.394 . S
C378 H386 0.930 . S
C379 C378 1.394 . S
C379 C380 1.383 . S
C379 H387 0.929 . S
C380 C379 1.383 . S
C380 C381 1.377 . S
C381 H365 0.930 . S
C381 C380 1.377 . S
C381 C382 1.379 . S
C382 H366 0.931 . S
C382 C376 1.383 . S
C382 C381 1.379 . S
H383 C377 0.959 . S
H384 C377 0.961 . S
H385 C377 0.960 . S
H386 C378 0.930 . S
H387 C379 0.929 . S
H388 C396 0.929 . S
H389 C398 0.930 . S
H390 C400 0.930 . S
H391 C403 0.929 . S
H392 C406 0.930 . S
H393 C408 0.960 . S
H394 C408 0.960 . S
H395 C408 0.960 . S
C396 H388 0.929 . S
C396 C397 1.377 1_556 S
C396 C398 1.384 . S
C397 C396 1.377 1_554 S
C397 C403 1.390 . S
C398 H389 0.930 . S
C398 C396 1.384 . S
C398 C399 1.372 . S
C399 C398 1.372 . S
C399 C400 1.400 . S
C399 C404 1.490 . S
C400 H390 0.930 . S
C400 C399 1.400 . S
C400 C403 1.386 1_556 S
H401 C417 0.930 . S
H402 C418 0.931 . S
C403 H391 0.929 . S
C403 C397 1.390 . S
C403 C400 1.386 1_554 S
C404 C399 1.490 . S
C404 C406 1.395 . S
C404 C407 1.403 . S
H405 C411 0.930 . S
C406 H392 0.930 . S
C406 C404 1.395 . S
C406 C409 1.403 . S
C407 C404 1.403 . S
C407 C408 1.524 1_556 S
C407 C411 1.400 . S
C408 H393 0.960 . S
C408 H394 0.960 . S
C408 H395 0.960 . S
C408 C407 1.524 1_554 S
C409 C406 1.403 . S
C409 C410 1.392 . S
C409 C413 1.495 . S
C410 C409 1.392 . S
C410 C411 1.385 . S
C410 C412 1.478 . S
C411 H405 0.930 . S
C411 C407 1.400 . S
C411 C410 1.385 . S
C412 C410 1.478 . S
C412 C414 1.381 . S
C412 C418 1.383 . S
C413 C409 1.495 . S
C413 H419 0.959 . S
C413 H420 0.961 . S
C413 H421 0.960 . S
C414 C412 1.381 . S
C414 C415 1.394 . S
C414 H422 0.930 . S
C415 C414 1.394 . S
C415 C416 1.383 . S
C415 H423 0.929 . S
C416 C415 1.383 . S
C416 C417 1.377 . S
C417 H401 0.930 . S
C417 C416 1.377 . S
C417 C418 1.379 . S
C418 H402 0.931 . S
C418 C412 1.383 . S
C418 C417 1.379 . S
H419 C413 0.959 . S
H420 C413 0.961 . S
H421 C413 0.960 . S
H422 C414 0.930 . S
H423 C415 0.929 . S
H424 C432 0.929 . S
H425 C434 0.930 . S
H426 C436 0.930 . S
H427 C439 0.929 . S
H428 C442 0.930 . S
H429 C444 0.960 . S
H430 C444 0.960 . S
H431 C444 0.960 . S
C432 H424 0.929 . S
C432 C433 1.377 . S
C432 C434 1.384 . S
C433 C432 1.377 . S
C433 C439 1.390 1_554 S
C434 H425 0.930 . S
C434 C432 1.384 . S
C434 C435 1.372 1_554 S
C435 C434 1.372 1_556 S
C435 C436 1.400 . S
C435 C440 1.490 . S
C436 H426 0.930 . S
C436 C435 1.400 . S
C436 C439 1.386 . S
H437 C453 0.930 . S
H438 C454 0.931 . S
C439 H427 0.929 . S
C439 C433 1.390 1_556 S
C439 C436 1.386 . S
C440 C435 1.490 . S
C440 C442 1.395 . S
C440 C443 1.403 1_655 S
H441 C447 0.930 . S
C442 H428 0.930 . S
C442 C440 1.395 . S
C442 C445 1.403 . S
C443 C440 1.403 1_455 S
C443 C444 1.524 . S
C443 C447 1.400 . S
C444 H429 0.960 . S
C444 H430 0.960 . S
C444 H431 0.960 . S
C444 C443 1.524 . S
C445 C442 1.403 . S
C445 C446 1.392 . S
C445 C449 1.495 . S
C446 C445 1.392 . S
C446 C447 1.385 1_655 S
C446 C448 1.478 . S
C447 H441 0.930 . S
C447 C443 1.400 . S
C447 C446 1.385 1_455 S
C448 C446 1.478 . S
C448 C450 1.381 . S
C448 C454 1.383 1_655 S
C449 C445 1.495 . S
C449 H455 0.959 . S
C449 H456 0.961 . S
C449 H457 0.960 . S
C450 C448 1.381 . S
C450 C451 1.394 . S
C450 H458 0.930 . S
C451 C450 1.394 . S
C451 C452 1.383 1_655 S
C451 H459 0.929 . S
C452 C451 1.383 1_455 S
C452 C453 1.377 . S
C453 H437 0.930 . S
C453 C452 1.377 . S
C453 C454 1.379 . S
C454 H438 0.931 . S
C454 C448 1.383 1_455 S
C454 C453 1.379 . S
H455 C449 0.959 . S
H456 C449 0.961 . S
H457 C449 0.960 . S
H458 C450 0.930 . S
H459 C451 0.929 . S
H460 C468 0.929 . S
H461 C470 0.930 . S
H462 C472 0.930 . S
H463 C475 0.929 . S
H464 C478 0.930 . S
H465 C480 0.966 . S
H466 C480 0.960 . S
H467 C480 0.960 . S
C468 H460 0.929 . S
C468 C469 1.377 . S
C468 C470 1.384 . S
C469 C468 1.377 . S
C469 C475 1.390 . S
C470 H461 0.930 . S
C470 C468 1.384 . S
C470 C471 1.372 . S
C471 C470 1.372 . S
C471 C472 1.400 . S
C471 C476 1.490 . S
C472 H462 0.930 . S
C472 C471 1.400 . S
C472 C475 1.386 . S
H473 C489 0.930 . S
H474 C490 0.931 1_655 S
C475 H463 0.929 . S
C475 C469 1.390 . S
C475 C472 1.386 . S
C476 C471 1.490 . S
C476 C478 1.395 . S
C476 C479 1.403 . S
H477 C483 0.930 . S
C478 H464 0.930 . S
C478 C476 1.395 . S
C478 C481 1.403 . S
C479 C476 1.403 . S
C479 C480 1.524 . S
C479 C483 1.400 . S
C480 H465 0.966 . S
C480 H466 0.960 . S
C480 H467 0.960 . S
C480 C479 1.524 . S
C481 C478 1.403 . S
C481 C482 1.392 . S
C481 C485 1.495 . S
C482 C481 1.392 . S
C482 C483 1.385 . S
C482 C484 1.478 . S
C483 H477 0.930 . S
C483 C479 1.400 . S
C483 C482 1.385 . S
C484 C482 1.478 . S
C484 C486 1.381 . S
C484 C490 1.383 . S
C485 C481 1.495 . S
C485 H491 0.959 . S
C485 H492 0.961 . S
C485 H493 0.960 . S
C486 C484 1.381 . S
C486 C487 1.394 . S
C486 H494 0.930 . S
C487 C486 1.394 . S
C487 C488 1.383 . S
C487 H495 0.929 . S
C488 C487 1.383 . S
C488 C489 1.377 1_455 S
C489 H473 0.930 . S
C489 C488 1.377 1_655 S
C489 C490 1.379 1_655 S
C490 H474 0.931 1_455 S
C490 C484 1.383 . S
C490 C489 1.379 1_455 S
H491 C485 0.959 . S
H492 C485 0.961 . S
H493 C485 0.960 . S
H494 C486 0.930 . S
H495 C487 0.929 . S
H496 C504 0.929 . S
H497 C506 0.930 . S
H498 C508 0.930 . S
H499 C511 0.929 . S
H500 C514 0.930 . S
H501 C516 0.960 . S
H502 C516 0.960 . S
H503 C516 0.960 . S
C504 H496 0.929 . S
C504 C505 1.377 . S
C504 C506 1.384 . S
C505 C504 1.377 . S
C505 C511 1.390 . S
C506 H497 0.930 . S
C506 C504 1.384 . S
C506 C507 1.372 . S
C507 C506 1.372 . S
C507 C508 1.400 . S
C507 C512 1.490 . S
C508 H498 0.930 . S
C508 C507 1.400 . S
C508 C511 1.386 . S
H509 C525 0.930 . S
H510 C526 0.931 . S
C511 H499 0.929 . S
C511 C505 1.390 . S
C511 C508 1.386 . S
C512 C507 1.490 . S
C512 C514 1.395 . S
C512 C515 1.403 . S
H513 C519 0.930 . S
C514 H500 0.930 . S
C514 C512 1.395 . S
C514 C517 1.403 . S
C515 C512 1.403 . S
C515 C516 1.524 . S
C515 C519 1.400 . S
C516 H501 0.960 . S
C516 H502 0.960 . S
C516 H503 0.960 . S
C516 C515 1.524 . S
C517 C514 1.403 . S
C517 C518 1.392 . S
C517 C521 1.495 . S
C518 C517 1.392 . S
C518 C519 1.385 . S
C518 C520 1.478 . S
C519 H513 0.930 . S
C519 C515 1.400 . S
C519 C518 1.385 . S
C520 C518 1.478 . S
C520 C522 1.381 1_545 S
C520 C526 1.383 . S
C521 C517 1.495 . S
C521 H527 0.959 . S
C521 H528 0.961 . S
C521 H529 0.960 1_545 S
C522 C520 1.381 1_565 S
C522 C523 1.394 . S
C522 H530 0.930 . S
C523 C522 1.394 . S
C523 C524 1.383 1_565 S
C523 H531 0.929 . S
C524 C523 1.383 1_545 S
C524 C525 1.377 . S
C525 H509 0.930 . S
C525 C524 1.377 . S
C525 C526 1.379 . S
C526 H510 0.931 . S
C526 C520 1.383 . S
C526 C525 1.379 . S
H527 C521 0.959 . S
H528 C521 0.961 . S
H529 C521 0.960 1_565 S
H530 C522 0.930 . S
H531 C523 0.929 . S
H532 C540 0.929 . S
H533 C542 0.930 . S
H534 C544 0.930 . S
H535 C547 0.929 . S
H536 C550 0.930 . S
H537 C552 0.960 . S
H538 C552 0.960 . S
H539 C552 0.960 . S
C540 H532 0.929 . S
C540 C541 1.377 . S
C540 C542 1.384 . S
C541 C540 1.377 . S
C541 C547 1.390 . S
C542 H533 0.930 . S
C542 C540 1.384 . S
C542 C543 1.372 . S
C543 C542 1.372 . S
C543 C544 1.400 . S
C543 C548 1.490 . S
C544 H534 0.930 . S
C544 C543 1.400 . S
C544 C547 1.386 . S
H545 C561 0.930 . S
H546 C562 0.931 . S
C547 H535 0.929 . S
C547 C541 1.390 . S
C547 C544 1.386 . S
C548 C543 1.490 . S
C548 C550 1.395 . S
C548 C551 1.403 . S
H549 C555 0.930 . S
C550 H536 0.930 . S
C550 C548 1.395 . S
C550 C553 1.403 . S
C551 C548 1.403 . S
C551 C552 1.524 . S
C551 C555 1.400 . S
C552 H537 0.960 . S
C552 H538 0.960 . S
C552 H539 0.960 . S
C552 C551 1.524 . S
C553 C550 1.403 . S
C553 C554 1.392 . S
C553 C557 1.495 . S
C554 C553 1.392 . S
C554 C555 1.385 . S
C554 C556 1.478 . S
C555 H549 0.930 . S
C555 C551 1.400 . S
C555 C554 1.385 . S
C556 C554 1.478 . S
C556 C558 1.381 . S
C556 C562 1.383 . S
C557 C553 1.495 . S
C557 H563 0.959 . S
C557 H564 0.961 . S
C557 H565 0.960 . S
C558 C556 1.381 . S
C558 C559 1.394 . S
C558 H566 0.930 . S
C559 C558 1.394 . S
C559 C560 1.383 . S
C559 H567 0.929 . S
C560 C559 1.383 . S
C560 C561 1.377 . S
C561 H545 0.930 . S
C561 C560 1.377 . S
C561 C562 1.379 . S
C562 H546 0.931 . S
C562 C556 1.383 . S
C562 C561 1.379 . S
H563 C557 0.959 . S
H564 C557 0.961 . S
H565 C557 0.960 . S
H566 C558 0.930 . S
H567 C559 0.929 . S
H568 C576 0.929 . S
H569 C578 0.930 . S
H570 C580 0.930 . S
H571 C583 0.929 . S
H572 C586 0.930 . S
H573 C588 0.960 . S
H574 C588 0.960 . S
H575 C588 0.960 . S
C576 H568 0.929 . S
C576 C577 1.377 . S
C576 C578 1.384 . S
C577 C576 1.377 . S
C577 C583 1.390 . S
C578 H569 0.930 . S
C578 C576 1.384 . S
C578 C579 1.372 . S
C579 C578 1.372 . S
C579 C580 1.400 . S
C579 C584 1.490 . S
C580 H570 0.930 . S
C580 C579 1.400 . S
C580 C583 1.386 . S
H581 C597 0.930 . S
H582 C598 0.931 . S
C583 H571 0.929 . S
C583 C577 1.390 . S
C583 C580 1.386 . S
C584 C579 1.490 . S
C584 C586 1.395 . S
C584 C587 1.403 . S
H585 C591 0.930 . S
C586 H572 0.930 . S
C586 C584 1.395 . S
C586 C589 1.403 . S
C587 C584 1.403 . S
C587 C588 1.524 . S
C587 C591 1.400 . S
C588 H573 0.960 . S
C588 H574 0.960 . S
C588 H575 0.960 . S
C588 C587 1.524 . S
C589 C586 1.403 . S
C589 C590 1.392 . S
C589 C593 1.495 . S
C590 C589 1.392 . S
C590 C591 1.385 . S
C590 C592 1.478 . S
C591 H585 0.930 . S
C591 C587 1.400 . S
C591 C590 1.385 . S
C592 C590 1.478 . S
C592 C594 1.381 . S
C592 C598 1.383 . S
C593 C589 1.495 . S
C593 H599 0.959 . S
C593 H600 0.961 . S
C593 H601 0.960 . S
C594 C592 1.381 . S
C594 C595 1.394 . S
C594 H602 0.930 . S
C595 C594 1.394 . S
C595 C596 1.383 . S
C595 H603 0.929 . S
C596 C595 1.383 . S
C596 C597 1.377 . S
C597 H581 0.930 . S
C597 C596 1.377 . S
C597 C598 1.379 . S
C598 H582 0.931 . S
C598 C592 1.383 . S
C598 C597 1.379 . S
H599 C593 0.959 . S
H600 C593 0.961 . S
H601 C593 0.960 . S
H602 C594 0.930 . S
H603 C595 0.929 . S
H604 C612 0.929 . S
H605 C614 0.930 . S
H606 C616 0.930 . S
H607 C619 0.929 . S
H608 C622 0.930 . S
H609 C624 0.960 . S
H610 C624 0.960 . S
H611 C624 0.960 . S
C612 H604 0.929 . S
C612 C613 1.377 . S
C612 C614 1.384 . S
C613 C612 1.377 . S
C613 C619 1.390 1_554 S
C614 H605 0.930 . S
C614 C612 1.384 . S
C614 C615 1.372 1_554 S
C615 C614 1.372 1_556 S
C615 C616 1.400 . S
C615 C620 1.490 . S
C616 H606 0.930 . S
C616 C615 1.400 . S
C616 C619 1.386 . S
H617 C633 0.930 . S
H618 C634 0.924 1_655 S
C619 H607 0.929 . S
C619 C613 1.390 1_556 S
C619 C616 1.386 . S
C620 C615 1.490 . S
C620 C622 1.395 1_655 S
C620 C623 1.403 . S
H621 C627 0.930 . S
C622 H608 0.930 . S
C622 C620 1.395 1_455 S
C622 C625 1.403 . S
C623 C620 1.403 . S
C623 C624 1.524 . S
C623 C627 1.400 . S
C624 H609 0.960 . S
C624 H610 0.960 . S
C624 H611 0.960 . S
C624 C623 1.524 . S
C625 C622 1.403 . S
C625 C626 1.392 . S
C625 C629 1.495 . S
C626 C625 1.392 . S
C626 C627 1.385 1_455 S
C626 C628 1.478 . S
C627 H621 0.930 . S
C627 C623 1.400 . S
C627 C626 1.385 1_655 S
C628 C626 1.478 . S
C628 C630 1.381 . S
C628 C634 1.383 . S
C629 C625 1.495 . S
C629 H635 0.959 . S
C629 H636 0.961 . S
C629 H637 0.960 . S
C630 C628 1.381 . S
C630 C631 1.394 . S
C630 H638 0.930 . S
C631 C630 1.394 . S
C631 C632 1.383 . S
C631 H639 0.929 . S
C632 C631 1.383 . S
C632 C633 1.377 . S
C633 H617 0.930 . S
C633 C632 1.377 . S
C633 C634 1.379 . S
C634 H618 0.924 1_455 S
C634 C628 1.383 . S
C634 C633 1.379 . S
H635 C629 0.959 . S
H636 C629 0.961 . S
H637 C629 0.960 . S
H638 C630 0.930 . S
H639 C631 0.929 . S
H640 C648 0.929 . S
H641 C650 0.930 1_545 S
H642 C652 0.930 . S
H643 C655 0.929 . S
H644 C658 0.951 . S
H645 C660 0.960 . S
H646 C660 0.960 . S
H647 C660 0.962 . S
C648 H640 0.929 . S
C648 C649 1.377 . S
C648 C650 1.384 1_554 S
C649 C648 1.377 . S
C649 C655 1.390 1_554 S
C650 H641 0.930 1_565 S
C650 C648 1.384 1_556 S
C650 C651 1.372 . S
C651 C650 1.372 . S
C651 C652 1.400 . S
C651 C656 1.490 . S
C652 H642 0.930 . S
C652 C651 1.400 . S
C652 C655 1.386 . S
H653 C669 0.930 . S
H654 C670 0.931 . S
C655 H643 0.929 . S
C655 C649 1.390 1_556 S
C655 C652 1.386 . S
C656 C651 1.490 . S
C656 C658 1.359 1_565 S
C656 C659 1.403 . S
H657 C663 0.930 . S
C658 H644 0.951 . S
C658 C656 1.359 1_545 S
C658 C661 1.421 . S
C659 C656 1.403 . S
C659 C660 1.524 1_556 S
C659 C663 1.400 . S
C660 H645 0.960 . S
C660 H646 0.960 . S
C660 H647 0.962 . S
C660 C659 1.524 1_554 S
C661 C658 1.421 . S
C661 C662 1.385 1_545 S
C661 C665 1.495 . S
C662 C661 1.385 1_565 S
C662 C663 1.398 . S
C662 C664 1.473 1_565 S
C663 H657 0.930 . S
C663 C659 1.400 . S
C663 C662 1.398 . S
C664 C662 1.473 1_545 S
C664 C666 1.381 . S
C664 C670 1.383 1_545 S
C665 C661 1.495 . S
C665 H671 0.959 . S
C665 H672 0.961 . S
C665 H673 0.960 . S
C666 C664 1.381 . S
C666 C667 1.394 . S
C666 H674 0.930 . S
C667 C666 1.394 . S
C667 C668 1.383 . S
C667 H675 0.929 . S
C668 C667 1.383 . S
C668 C669 1.377 1_545 S
C669 H653 0.930 . S
C669 C668 1.377 1_565 S
C669 C670 1.379 . S
C670 H654 0.931 . S
C670 C664 1.383 1_565 S
C670 C669 1.379 . S
H671 C665 0.959 . S
H672 C665 0.961 . S
H673 C665 0.960 . S
H674 C666 0.930 . S
H675 C667 0.929 . S
H676 C684 0.929 . S
H677 C686 0.930 . S
H678 C688 0.930 . S
H679 C691 0.929 . S
H680 C694 0.930 . S
H681 C696 0.960 . S
H682 C696 0.960 . S
H683 C696 0.960 . S
C684 H676 0.929 . S
C684 C685 1.377 . S
C684 C686 1.384 . S
C685 C684 1.377 . S
C685 C691 1.390 1_554 S
C686 H677 0.930 . S
C686 C684 1.384 . S
C686 C687 1.372 1_554 S
C687 C686 1.372 1_556 S
C687 C688 1.400 . S
C687 C692 1.490 . S
C688 H678 0.930 . S
C688 C687 1.400 . S
C688 C691 1.386 . S
H689 C705 0.930 . S
H690 C706 0.931 . S
C691 H679 0.929 . S
C691 C685 1.390 1_556 S
C691 C688 1.386 . S
C692 C687 1.490 . S
C692 C694 1.395 . S
C692 C695 1.403 . S
H693 C699 0.930 . S
C694 H680 0.930 . S
C694 C692 1.395 . S
C694 C697 1.403 . S
C695 C692 1.403 . S
C695 C696 1.524 . S
C695 C699 1.400 . S
C696 H681 0.960 . S
C696 H682 0.960 . S
C696 H683 0.960 . S
C696 C695 1.524 . S
C697 C694 1.403 . S
C697 C698 1.392 . S
C697 C701 1.495 . S
C698 C697 1.392 . S
C698 C699 1.385 . S
C698 C700 1.478 . S
C699 H693 0.930 . S
C699 C695 1.400 . S
C699 C698 1.385 . S
C700 C698 1.478 . S
C700 C702 1.381 . S
C700 C706 1.383 . S
C701 C697 1.495 . S
C701 H707 0.959 . S
C701 H708 0.961 . S
C701 H709 0.960 . S
C702 C700 1.381 . S
C702 C703 1.394 . S
C702 H710 0.930 . S
C703 C702 1.394 . S
C703 C704 1.383 . S
C703 H711 0.929 . S
C704 C703 1.383 . S
C704 C705 1.377 . S
C705 H689 0.930 . S
C705 C704 1.377 . S
C705 C706 1.379 . S
C706 H690 0.931 . S
C706 C700 1.383 . S
C706 C705 1.379 . S
H707 C701 0.959 . S
H708 C701 0.961 . S
H709 C701 0.960 . S
H710 C702 0.930 . S
H711 C703 0.929 . S
H712 C720 0.929 1_554 S
H713 C722 0.930 . S
H714 C724 0.930 . S
H715 C727 0.929 . S
H716 C730 0.930 . S
H717 C732 0.960 . S
H718 C732 0.960 . S
H719 C732 0.960 . S
C720 H712 0.929 1_556 S
C720 C721 1.377 1_556 S
C720 C722 1.384 . S
C721 C720 1.377 1_554 S
C721 C727 1.390 . S
C722 H713 0.930 . S
C722 C720 1.384 . S
C722 C723 1.372 . S
C723 C722 1.372 . S
C723 C724 1.400 . S
C723 C728 1.490 . S
C724 H714 0.930 . S
C724 C723 1.400 . S
C724 C727 1.386 1_556 S
H725 C741 0.930 . S
H726 C742 0.931 . S
C727 H715 0.929 . S
C727 C721 1.390 . S
C727 C724 1.386 1_554 S
C728 C723 1.490 . S
C728 C730 1.395 . S
C728 C731 1.403 . S
H729 C735 0.930 . S
C730 H716 0.930 . S
C730 C728 1.395 . S
C730 C733 1.403 . S
C731 C728 1.403 . S
C731 C732 1.524 . S
C731 C735 1.400 . S
C732 H717 0.960 . S
C732 H718 0.960 . S
C732 H719 0.960 . S
C732 C731 1.524 . S
C733 C730 1.403 . S
C733 C734 1.392 . S
C733 C737 1.495 . S
C734 C733 1.392 . S
C734 C735 1.385 . S
C734 C736 1.478 . S
C735 H729 0.930 . S
C735 C731 1.400 . S
C735 C734 1.385 . S
C736 C734 1.478 . S
C736 C738 1.381 . S
C736 C742 1.383 . S
C737 C733 1.495 . S
C737 H743 0.959 1_556 S
C737 H744 0.961 . S
C737 H745 0.960 . S
C738 C736 1.381 . S
C738 C739 1.394 . S
C738 H746 0.930 . S
C739 C738 1.394 . S
C739 C740 1.383 . S
C739 H747 0.929 . S
C740 C739 1.383 . S
C740 C741 1.377 . S
C741 H725 0.930 . S
C741 C740 1.377 . S
C741 C742 1.379 . S
C742 H726 0.931 . S
C742 C736 1.383 . S
C742 C741 1.379 . S
H743 C737 0.959 1_554 S
H744 C737 0.961 . S
H745 C737 0.960 . S
H746 C738 0.930 . S
H747 C739 0.929 . S
H748 C756 0.929 . S
H749 C758 0.930 . S
H750 C760 0.930 . S
H751 C763 0.929 . S
H752 C766 0.930 . S
H753 C768 0.960 . S
H754 C768 0.960 . S
H755 C768 0.960 . S
C756 H748 0.929 . S
C756 C757 1.377 . S
C756 C758 1.384 . S
C757 C756 1.377 . S
C757 C763 1.390 . S
C758 H749 0.930 . S
C758 C756 1.384 . S
C758 C759 1.372 . S
C759 C758 1.372 . S
C759 C760 1.400 . S
C759 C764 1.490 . S
C760 H750 0.930 . S
C760 C759 1.400 . S
C760 C763 1.386 . S
H761 C777 0.930 . S
H762 C778 0.931 . S
C763 H751 0.929 . S
C763 C757 1.390 . S
C763 C760 1.386 . S
C764 C759 1.490 . S
C764 C766 1.395 . S
C764 C767 1.403 . S
H765 C771 0.928 1_556 S
C766 H752 0.930 . S
C766 C764 1.395 . S
C766 C769 1.403 1_554 S
C767 C764 1.403 . S
C767 C768 1.524 . S
C767 C771 1.400 . S
C768 H753 0.960 . S
C768 H754 0.960 . S
C768 H755 0.960 . S
C768 C767 1.524 . S
C769 C766 1.403 1_556 S
C769 C770 1.392 . S
C769 C773 1.495 . S
C770 C769 1.392 . S
C770 C771 1.385 1_556 S
C770 C772 1.478 . S
C771 H765 0.928 1_554 S
C771 C767 1.400 . S
C771 C770 1.385 1_554 S
C772 C770 1.478 . S
C772 C774 1.381 . S
C772 C778 1.383 . S
C773 C769 1.495 . S
C773 H779 0.959 1_455 S
C773 H780 0.961 . S
C773 H781 0.960 1_455 S
C774 C772 1.381 . S
C774 C775 1.394 . S
C774 H782 0.930 . S
C775 C774 1.394 . S
C775 C776 1.383 . S
C775 H783 0.929 . S
C776 C775 1.383 . S
C776 C777 1.377 . S
C777 H761 0.930 . S
C777 C776 1.377 . S
C777 C778 1.379 . S
C778 H762 0.931 . S
C778 C772 1.383 . S
C778 C777 1.379 . S
H779 C773 0.959 1_655 S
H780 C773 0.961 . S
H781 C773 0.960 1_655 S
H782 C774 0.930 . S
H783 C775 0.929 . S
H784 C792 0.929 . S
H785 C794 0.930 . S
H786 C796 0.930 . S
H787 C799 0.929 . S
H788 C802 0.930 . S
H789 C804 0.960 . S
H790 C804 0.960 . S
H791 C804 0.960 . S
C792 H784 0.929 . S
C792 C793 1.377 . S
C792 C794 1.384 . S
C793 C792 1.377 . S
C793 C799 1.390 . S
C794 H785 0.930 . S
C794 C792 1.384 . S
C794 C795 1.372 . S
C795 C794 1.372 . S
C795 C796 1.400 . S
C795 C800 1.490 . S
C796 H786 0.930 . S
C796 C795 1.400 . S
C796 C799 1.386 . S
H797 C813 0.930 . S
H798 C814 0.931 . S
C799 H787 0.929 . S
C799 C793 1.390 . S
C799 C796 1.386 . S
C800 C795 1.490 . S
C800 C802 1.395 . S
C800 C803 1.403 1_554 S
H801 C807 0.930 . S
C802 H788 0.930 . S
C802 C800 1.395 . S
C802 C805 1.403 . S
C803 C800 1.403 1_556 S
C803 C804 1.524 . S
C803 C807 1.400 . S
C804 H789 0.960 . S
C804 H790 0.960 . S
C804 H791 0.960 . S
C804 C803 1.524 . S
C805 C802 1.403 . S
C805 C806 1.392 1_554 S
C805 C809 1.495 . S
C806 C805 1.392 1_556 S
C806 C807 1.385 . S
C806 C808 1.478 . S
C807 H801 0.930 . S
C807 C803 1.400 . S
C807 C806 1.385 . S
C808 C806 1.478 . S
C808 C810 1.381 . S
C808 C814 1.383 . S
C809 C805 1.495 . S
C809 H815 0.959 . S
C809 H816 0.961 . S
C809 H817 0.960 . S
C810 C808 1.381 . S
C810 C811 1.394 . S
C810 H818 0.930 . S
C811 C810 1.394 . S
C811 C812 1.383 . S
C811 H819 0.929 . S
C812 C811 1.383 . S
C812 C813 1.377 . S
C813 H797 0.930 . S
C813 C812 1.377 . S
C813 C814 1.379 . S
C814 H798 0.931 . S
C814 C808 1.383 . S
C814 C813 1.379 . S
H815 C809 0.959 . S
H816 C809 0.961 . S
H817 C809 0.960 . S
H818 C810 0.930 . S
H819 C811 0.929 . S
H820 C828 0.929 . S
H821 C830 0.930 . S
H822 C832 0.930 . S
H823 C835 0.929 . S
H824 C838 0.930 . S
H825 C840 0.960 . S
H826 C840 0.960 . S
H827 C840 0.960 . S
C828 H820 0.929 . S
C828 C829 1.377 . S
C828 C830 1.384 . S
C829 C828 1.377 . S
C829 C835 1.390 . S
C830 H821 0.930 . S
C830 C828 1.384 . S
C830 C831 1.372 . S
C831 C830 1.372 . S
C831 C832 1.400 . S
C831 C836 1.490 . S
C832 H822 0.930 . S
C832 C831 1.400 . S
C832 C835 1.386 . S
H833 C849 0.930 . S
H834 C850 0.931 . S
C835 H823 0.929 . S
C835 C829 1.390 . S
C835 C832 1.386 . S
C836 C831 1.490 . S
C836 C838 1.395 . S
C836 C839 1.403 . S
H837 C843 0.930 . S
C838 H824 0.930 . S
C838 C836 1.395 . S
C838 C841 1.405 1_554 S
C839 C836 1.403 . S
C839 C840 1.524 . S
C839 C843 1.400 1_554 S
C840 H825 0.960 . S
C840 H826 0.960 . S
C840 H827 0.960 . S
C840 C839 1.524 . S
C841 C838 1.405 1_556 S
C841 C842 1.391 . S
C841 C845 1.495 . S
C842 C841 1.391 . S
C842 C843 1.385 . S
C842 C844 1.478 . S
C843 H837 0.930 . S
C843 C839 1.400 1_556 S
C843 C842 1.385 . S
C844 C842 1.478 . S
C844 C846 1.381 . S
C844 C850 1.383 . S
C845 C841 1.495 . S
C845 H851 0.959 1_556 S
C845 H852 0.961 1_556 S
C845 H853 0.960 . S
C846 C844 1.381 . S
C846 C847 1.394 . S
C846 H854 0.930 . S
C847 C846 1.394 . S
C847 C848 1.383 . S
C847 H855 0.929 . S
C848 C847 1.383 . S
C848 C849 1.377 . S
C849 H833 0.930 . S
C849 C848 1.377 . S
C849 C850 1.379 . S
C850 H834 0.931 . S
C850 C844 1.383 . S
C850 C849 1.379 . S
H851 C845 0.959 1_554 S
H852 C845 0.961 1_554 S
H853 C845 0.960 . S
H854 C846 0.930 . S
H855 C847 0.929 . S
H856 C864 0.929 . S
H857 C866 0.930 . S
H858 C868 0.930 . S
H859 C871 0.929 . S
H860 C874 0.930 . S
H861 C876 0.960 . S
H862 C876 0.960 . S
H863 C876 0.960 . S
C864 H856 0.929 . S
C864 C865 1.377 . S
C864 C866 1.384 . S
C865 C864 1.377 . S
C865 C871 1.390 . S
C866 H857 0.930 . S
C866 C864 1.384 . S
C866 C867 1.372 . S
C867 C866 1.372 . S
C867 C868 1.400 . S
C867 C872 1.490 . S
C868 H858 0.930 . S
C868 C867 1.400 . S
C868 C871 1.386 . S
H869 C885 0.930 . S
H870 C886 0.931 . S
C871 H859 0.929 . S
C871 C865 1.390 . S
C871 C868 1.386 . S
C872 C867 1.490 . S
C872 C874 1.395 . S
C872 C875 1.403 . S
H873 C879 0.930 . S
C874 H860 0.930 . S
C874 C872 1.395 . S
C874 C877 1.403 1_554 S
C875 C872 1.403 . S
C875 C876 1.524 . S
C875 C879 1.400 . S
C876 H861 0.960 . S
C876 H862 0.960 . S
C876 H863 0.960 . S
C876 C875 1.524 . S
C877 C874 1.403 1_556 S
C877 C878 1.392 . S
C877 C881 1.495 . S
C878 C877 1.392 . S
C878 C879 1.385 1_556 S
C878 C880 1.478 . S
C879 H873 0.930 . S
C879 C875 1.400 . S
C879 C878 1.385 1_554 S
C880 C878 1.478 . S
C880 C882 1.381 . S
C880 C886 1.383 . S
C881 C877 1.495 . S
C881 H887 0.959 . S
C881 H888 0.961 . S
C881 H889 0.960 . S
C882 C880 1.381 . S
C882 C883 1.394 . S
C882 H890 0.930 . S
C883 C882 1.394 . S
C883 C884 1.383 . S
C883 H891 0.929 . S
C884 C883 1.383 . S
C884 C885 1.377 . S
C885 H869 0.930 . S
C885 C884 1.377 . S
C885 C886 1.379 . S
C886 H870 0.931 . S
C886 C880 1.383 . S
C886 C885 1.379 . S
H887 C881 0.959 . S
H888 C881 0.961 . S
H889 C881 0.960 . S
H890 C882 0.930 . S
H891 C883 0.929 . S
H892 C900 0.929 1_455 S
H893 C902 0.930 1_455 S
H894 C904 0.930 . S
H895 C907 0.929 . S
H896 C910 0.930 . S
H897 C912 0.960 . S
H898 C912 0.960 . S
H899 C912 0.960 . S
C900 H892 0.929 1_655 S
C900 C901 1.377 . S
C900 C902 1.384 . S
C901 C900 1.377 . S
C901 C907 1.390 . S
C902 H893 0.930 1_655 S
C902 C900 1.384 . S
C902 C903 1.372 . S
C903 C902 1.372 . S
C903 C904 1.400 . S
C903 C908 1.490 . S
C904 H894 0.930 . S
C904 C903 1.400 . S
C904 C907 1.386 . S
H905 C921 0.930 . S
H906 C922 0.931 . S
C907 H895 0.929 . S
C907 C901 1.390 . S
C907 C904 1.386 . S
C908 C903 1.490 . S
C908 C910 1.395 . S
C908 C911 1.403 . S
H909 C915 0.930 . S
C910 H896 0.930 . S
C910 C908 1.395 . S
C910 C913 1.403 . S
C911 C908 1.403 . S
C911 C912 1.524 . S
C911 C915 1.400 . S
C912 H897 0.960 . S
C912 H898 0.960 . S
C912 H899 0.960 . S
C912 C911 1.524 . S
C913 C910 1.403 . S
C913 C914 1.392 . S
C913 C917 1.495 . S
C914 C913 1.392 . S
C914 C915 1.385 . S
C914 C916 1.478 . S
C915 H909 0.930 . S
C915 C911 1.400 . S
C915 C914 1.385 . S
C916 C914 1.478 . S
C916 C918 1.381 1_655 S
C916 C922 1.383 . S
C917 C913 1.495 . S
C917 H923 0.959 . S
C917 H924 0.961 . S
C917 H925 0.960 1_655 S
C918 C916 1.381 1_455 S
C918 C919 1.394 . S
C918 H926 0.930 . S
C919 C918 1.394 . S
C919 C920 1.383 1_455 S
C919 H927 0.929 . S
C920 C919 1.383 1_655 S
C920 C921 1.377 . S
C921 H905 0.930 . S
C921 C920 1.377 . S
C921 C922 1.379 . S
C922 H906 0.931 . S
C922 C916 1.383 . S
C922 C921 1.379 . S
H923 C917 0.959 . S
H924 C917 0.961 . S
H925 C917 0.960 1_455 S
H926 C918 0.930 . S
H927 C919 0.929 . S
H928 C936 0.929 . S
H929 C938 0.930 . S
H930 C940 0.930 . S
H931 C943 0.929 . S
H932 C946 0.930 . S
H933 C948 0.960 . S
H934 C948 0.960 . S
H935 C948 0.960 1_565 S
C936 H928 0.929 . S
C936 C937 1.377 . S
C936 C938 1.384 . S
C937 C936 1.377 . S
C937 C943 1.390 . S
C938 H929 0.930 . S
C938 C936 1.384 . S
C938 C939 1.372 . S
C939 C938 1.372 . S
C939 C940 1.400 . S
C939 C944 1.490 . S
C940 H930 0.930 . S
C940 C939 1.400 . S
C940 C943 1.386 . S
H941 C957 0.930 . S
H942 C958 0.931 . S
C943 H931 0.929 . S
C943 C937 1.390 . S
C943 C940 1.386 . S
C944 C939 1.490 . S
C944 C946 1.395 . S
C944 C947 1.403 . S
H945 C951 0.935 . S
C946 H932 0.930 . S
C946 C944 1.395 . S
C946 C949 1.403 . S
C947 C944 1.403 . S
C947 C948 1.524 1_565 S
C947 C951 1.400 . S
C948 H933 0.960 . S
C948 H934 0.960 . S
C948 H935 0.960 1_545 S
C948 C947 1.524 1_545 S
C949 C946 1.403 . S
C949 C950 1.392 . S
C949 C953 1.495 . S
C950 C949 1.392 . S
C950 C951 1.385 . S
C950 C952 1.478 . S
C951 H945 0.935 . S
C951 C947 1.400 . S
C951 C950 1.385 . S
C952 C950 1.478 . S
C952 C954 1.381 . S
C952 C958 1.383 . S
C953 C949 1.495 . S
C953 H959 0.959 . S
C953 H960 0.961 . S
C953 H961 0.960 . S
C954 C952 1.381 . S
C954 C955 1.394 1_565 S
C954 H962 0.930 1_565 S
C955 C954 1.394 1_545 S
C955 C956 1.383 1_545 S
C955 H963 0.929 . S
C956 C955 1.383 1_565 S
C956 C957 1.377 . S
C957 H941 0.930 . S
C957 C956 1.377 . S
C957 C958 1.379 . S
C958 H942 0.931 . S
C958 C952 1.383 . S
C958 C957 1.379 . S
H959 C953 0.959 . S
H960 C953 0.961 . S
H961 C953 0.960 . S
H962 C954 0.930 1_545 S
H963 C955 0.929 . S
H964 C972 0.929 . S
H965 C974 0.930 . S
H966 C976 0.930 . S
H967 C979 0.929 . S
H968 C982 0.930 . S
H969 C984 0.960 . S
H970 C984 0.960 . S
H971 C984 0.960 . S
C972 H964 0.929 . S
C972 C973 1.377 . S
C972 C974 1.384 . S
C973 C972 1.377 . S
C973 C979 1.390 . S
C974 H965 0.930 . S
C974 C972 1.384 . S
C974 C975 1.372 . S
C975 C974 1.372 . S
C975 C976 1.400 . S
C975 C980 1.490 . S
C976 H966 0.930 . S
C976 C975 1.400 . S
C976 C979 1.386 . S
H977 C993 0.930 . S
H978 C994 0.931 . S
C979 H967 0.929 . S
C979 C973 1.390 . S
C979 C976 1.386 . S
C980 C975 1.490 . S
C980 C982 1.395 . S
C980 C983 1.403 . S
H981 C987 0.930 . S
C982 H968 0.930 . S
C982 C980 1.395 . S
C982 C985 1.403 . S
C983 C980 1.403 . S
C983 C984 1.524 . S
C983 C987 1.400 . S
C984 H969 0.960 . S
C984 H970 0.960 . S
C984 H971 0.960 . S
C984 C983 1.524 . S
C985 C982 1.403 . S
C985 C986 1.392 . S
C985 C989 1.495 . S
C986 C985 1.392 . S
C986 C987 1.385 . S
C986 C988 1.478 . S
C987 H981 0.930 . S
C987 C983 1.400 . S
C987 C986 1.385 . S
C988 C986 1.478 . S
C988 C990 1.381 . S
C988 C994 1.383 . S
C989 C985 1.495 . S
C989 H995 0.959 . S
C989 H996 0.961 . S
C989 H997 0.960 . S
C990 C988 1.381 . S
C990 C991 1.394 . S
C990 H998 0.930 . S
C991 C990 1.394 . S
C991 C992 1.383 . S
C991 H999 0.929 . S
C992 C991 1.383 . S
C992 C993 1.377 . S
C993 H977 0.930 . S
C993 C992 1.377 . S
C993 C994 1.379 . S
C994 H978 0.931 . S
C994 C988 1.383 . S
C994 C993 1.379 . S
H995 C989 0.959 . S
H996 C989 0.961 . S
H997 C989 0.960 . S
H998 C990 0.930 . S
H999 C991 0.929 . S
H1000 C1008 0.929 . S
H1001 C1010 0.930 . S
H1002 C1012 0.930 . S
H1003 C1015 0.929 . S
H1004 C1018 0.930 . S
H1005 C1020 0.960 . S
H1006 C1020 0.960 . S
H1007 C1020 0.960 . S
C1008 H1000 0.929 . S
C1008 C1009 1.377 . S
C1008 C1010 1.384 . S
C1009 C1008 1.377 . S
C1009 C1015 1.390 . S
C1010 H1001 0.930 . S
C1010 C1008 1.384 . S
C1010 C1011 1.372 . S
C1011 C1010 1.372 . S
C1011 C1012 1.400 . S
C1011 C1016 1.490 . S
C1012 H1002 0.930 . S
C1012 C1011 1.400 . S
C1012 C1015 1.386 . S
H1013 C1029 0.930 . S
H1014 C1030 0.931 . S
C1015 H1003 0.929 . S
C1015 C1009 1.390 . S
C1015 C1012 1.386 . S
C1016 C1011 1.490 . S
C1016 C1018 1.395 . S
C1016 C1019 1.403 . S
H1017 C1023 0.930 . S
C1018 H1004 0.930 . S
C1018 C1016 1.395 . S
C1018 C1021 1.403 . S
C1019 C1016 1.403 . S
C1019 C1020 1.524 . S
C1019 C1023 1.400 . S
C1020 H1005 0.960 . S
C1020 H1006 0.960 . S
C1020 H1007 0.960 . S
C1020 C1019 1.524 . S
C1021 C1018 1.403 . S
C1021 C1022 1.392 . S
C1021 C1025 1.495 . S
C1022 C1021 1.392 . S
C1022 C1023 1.385 . S
C1022 C1024 1.478 . S
C1023 H1017 0.930 . S
C1023 C1019 1.400 . S
C1023 C1022 1.385 . S
C1024 C1022 1.478 . S
C1024 C1026 1.381 . S
C1024 C1030 1.383 . S
C1025 C1021 1.495 . S
C1025 H1031 0.959 . S
C1025 H1032 0.961 . S
C1025 H1033 0.960 . S
C1026 C1024 1.381 . S
C1026 C1027 1.394 . S
C1026 H1034 0.930 . S
C1027 C1026 1.394 . S
C1027 C1028 1.383 . S
C1027 H1035 0.929 . S
C1028 C1027 1.383 . S
C1028 C1029 1.377 . S
C1029 H1013 0.930 . S
C1029 C1028 1.377 . S
C1029 C1030 1.379 . S
C1030 H1014 0.931 . S
C1030 C1024 1.383 . S
C1030 C1029 1.379 . S
H1031 C1025 0.959 . S
H1032 C1025 0.961 . S
H1033 C1025 0.960 . S
H1034 C1026 0.930 . S
H1035 C1027 0.929 . S
C181 C74 1.545 . S
C200 C103 1.330 . S
C236 C127 1.381 . S
C217 C85 1.544 . S
C272 C148 1.369 . S
C253 C52 1.546 . S
C308 C166 1.414 . S
C289 C63 1.539 . S
C344 C106 1.347 . S
C325 C30 1.441 . S
C361 C41 1.446 . S
C380 C124 1.300 . S
C397 C8 1.447 . S
C416 C145 1.336 . S
C433 C19 1.442 . S
C452 C169 1.354 . S
C488 C104 0.392 . S
C469 C62 0.355 . S
C524 C122 0.507 . S
C505 C73 0.351 . S
C560 C143 0.374 . S
C541 C84 0.348 . S
C577 C51 0.348 . S
C596 C167 0.401 . S
C613 C18 0.570 . S
C632 C102 0.497 . S
C668 C126 0.471 . S
C649 C29 0.556 . S
C704 C147 0.502 . S
C685 C40 0.571 . S
C721 C7 0.569 . S
C740 C165 0.578 . S
C757 C60 1.427 . S
C776 C105 1.532 . S
C793 C71 1.426 . S
C812 C123 1.549 . S
C848 C144 1.591 . S
C829 C82 1.438 . S
C884 C168 1.536 . S
C865 C49 1.431 . S
C901 C16 1.176 . S
C920 C101 1.420 1_655 S
C956 C125 1.438 1_565 S
C937 C27 1.170 . S
C992 C146 1.424 . S
C973 C38 1.176 . S
C1009 C5 1.170 . S
C1028 C164 1.439 . S
