# Generated by pormake.
# Topology pth, (4,4)-cn, num edge types: 1
# Building blocks:
#     Node 0, Type 0, BuildingBlock: NAHDIM_clean_sbu_0, # of connection points: 4
#     Node 1, Type 0, BuildingBlock: NAHDIM_clean_sbu_0, # of connection points: 4
#     Node 2, Type 0, BuildingBlock: NAHDIM_clean_sbu_0, # of connection points: 4
#     Node 3, Type 1, BuildingBlock: KOZSID_clean_sbu_0, # of connection points: 4
#     Node 4, Type 1, BuildingBlock: KOZSID_clean_sbu_0, # of connection points: 4
#     Node 5, Type 1, BuildingBlock: KOZSID_clean_sbu_0, # of connection points: 4
#     Edge 6, Type (0, 1), BuildingBlock: FUNLAD_clean_linker_0, # of connection points: 2
#     Edge 7, Type (0, 1), BuildingBlock: FUNLAD_clean_linker_0, # of connection points: 2
#     Edge 8, Type (0, 1), BuildingBlock: FUNLAD_clean_linker_0, # of connection points: 2
#     Edge 9, Type (0, 1), BuildingBlock: FUNLAD_clean_linker_0, # of connection points: 2
#     Edge 10, Type (0, 1), BuildingBlock: FUNLAD_clean_linker_0, # of connection points: 2
#     Edge 11, Type (0, 1), BuildingBlock: FUNLAD_clean_linker_0, # of connection points: 2
#     Edge 12, Type (0, 1), BuildingBlock: FUNLAD_clean_linker_0, # of connection points: 2
#     Edge 13, Type (0, 1), BuildingBlock: FUNLAD_clean_linker_0, # of connection points: 2
#     Edge 14, Type (0, 1), BuildingBlock: FUNLAD_clean_linker_0, # of connection points: 2
#     Edge 15, Type (0, 1), BuildingBlock: FUNLAD_clean_linker_0, # of connection points: 2
#     Edge 16, Type (0, 1), BuildingBlock: FUNLAD_clean_linker_0, # of connection points: 2
#     Edge 17, Type (0, 1), BuildingBlock: FUNLAD_clean_linker_0, # of connection points: 2
# Relax obj value: 0.042
# Max RMSD: 0.169
# Mean RMSD: 0.085
data_MOF--net-pth--node1-NAHDIM_clean_sbu_0--node2-KOZSID_clean_sbu_0--edge1-FUNLAD_clean_linker_0
_symmetry_space_group_name_H-M    P1
_symmetry_Int_Tables_number       1
_symmetry_cell_setting            triclinic
loop_
_symmetry_equiv_pos_as_xyz
'x, y, z'
_cell_length_a     30.537817
_cell_length_b     30.694779
_cell_length_c     68.485951
_cell_angle_alpha  89.539772
_cell_angle_beta   87.678663
_cell_angle_gamma 120.64822
loop_
_atom_site_label
_atom_site_type_symbol
_atom_site_fract_x
_atom_site_fract_y
_atom_site_fract_z
_atom_type_partial_charge
C0 C 0.02322 0.96448 0.06077 0.0
O1 O 0.97971 0.96234 0.05834 0.0
O2 O 0.04185 0.09501 0.06332 0.0
Zn3 Zn 0.05549 0.05809 0.04201 0.0
O4 O 0.99579 0.02265 0.02492 0.0
C5 C 0.12541 0.15292 0.0233 0.0
O6 O 0.09291 0.16386 0.03169 0.0
O7 O 0.06443 0.00401 0.05477 0.0
C8 C 0.98776 0.0401 0.00946 0.0
O9 O 0.02025 0.08684 0.00333 0.0
C10 C 0.00403 0.10166 0.06403 0.0
O11 O 0.97026 0.0822 0.05059 0.0
O12 O 0.11798 0.10845 0.02567 0.0
C13 C 0.03826 0.16283 0.34582 0.0
O14 O 0.99729 0.11747 0.34757 0.0
O15 O 0.05057 0.05434 0.35272 0.0
Zn16 Zn 0.0663 0.11125 0.37085 0.0
O17 O 0.00661 0.09434 0.38943 0.0
C18 C 0.13149 0.08808 0.3909 0.0
O19 O 0.09612 0.04263 0.38602 0.0
O20 O 0.07754 0.17121 0.35465 0.0
C21 C -0.00164 0.07493 0.40661 0.0
O22 O 0.02981 0.06203 0.4135 0.0
C23 C 0.01283 0.00954 0.35529 0.0
O24 O 0.98055 -0.00123 0.37036 0.0
O25 O 0.12778 0.12599 0.38584 0.0
C26 C 0.14381 0.06154 0.68618 0.0
O27 O 0.15138 0.10614 0.69096 0.0
O28 O 0.00979 0.04595 0.68925 0.0
Zn29 Zn 0.05118 0.03212 0.70754 0.0
O30 O 0.08867 0.0903 0.72521 0.0
C31 C 0.96629 0.93214 0.71645 0.0
O32 O 0.96204 0.93225 0.69744 0.0
O33 O 0.10216 0.02203 0.69179 0.0
C34 C 0.11223 0.08449 0.73891 0.0
O35 O 0.10958 0.04064 0.74123 0.0
C36 C 0.01968 0.08974 0.68366 0.0
O37 O 0.05983 0.12999 0.69 0.0
O38 O 0.00297 0.97033 0.724 0.0
C39 C 0.07048 0.64337 0.17479 0.0
C40 C 0.11862 0.67503 0.16602 0.0
C41 C 0.15177 0.6672 0.17606 0.0
C42 C 0.12209 0.63115 0.19022 0.0
N43 N 0.07184 0.61502 0.18974 0.0
Co44 Co 0.01511 0.56234 0.20742 0.0
N45 N 0.06445 0.55345 0.22301 0.0
C46 C 0.11589 0.57936 0.22051 0.0
C47 C 0.13945 0.56418 0.23318 0.0
C48 C 0.1008 0.52585 0.24433 0.0
C49 C 0.05565 0.51995 0.23779 0.0
N50 N 0.95832 0.50876 0.22484 0.0
C51 C 0.95966 0.47863 0.23908 0.0
C52 C 0.91132 0.44466 0.24713 0.0
C53 C 0.87804 0.45295 0.23737 0.0
C54 C 0.90785 0.49137 0.224 0.0
N55 N 0.96589 0.57204 0.19205 0.0
C56 C 0.91462 0.54793 0.19517 0.0
C57 C 0.89131 0.56433 0.18288 0.0
C58 C 0.92997 0.60158 0.17134 0.0
C59 C 0.97484 0.60558 0.17722 0.0
N60 N 0.00841 0.50877 0.18967 0.0
C61 C 0.99732 0.42897 0.16634 0.0
C62 C 0.95531 0.43328 0.17197 0.0
C63 C 0.96166 0.4731 0.18351 0.0
C64 C 0.04519 0.46582 0.17228 0.0
C65 C 0.04987 0.5052 0.18378 0.0
N66 N 0.02159 0.61577 0.22524 0.0
C67 C 0.98246 0.65225 0.24538 0.0
C68 C 0.03007 0.69262 0.24982 0.0
C69 C 0.07348 0.69378 0.24181 0.0
C70 C 0.0684 0.65526 0.22967 0.0
C71 C 0.97914 0.61463 0.23322 0.0
H72 H 0.10288 0.65837 0.22399 0.0
H73 H 0.94171 0.58531 0.23039 0.0
H74 H 0.92799 0.47371 0.18748 0.0
H75 H 0.08731 0.53202 0.18787 0.0
C76 C 0.14064 0.61421 0.20493 0.0
C77 C 0.02512 0.64322 0.16888 0.0
C78 C 0.00542 0.47971 0.24507 0.0
C79 C 0.88955 0.51078 0.21006 0.0
H80 H 0.12882 0.70174 0.15385 0.0
H81 H 0.19277 0.68637 0.17362 0.0
H82 H 0.17981 0.57794 0.23373 0.0
H83 H 0.10545 0.50375 0.25555 0.0
H84 H 0.9012 0.41629 0.25866 0.0
H85 H 0.83693 0.43269 0.23949 0.0
H86 H 0.85109 0.55139 0.18258 0.0
H87 H 0.9256 0.62387 0.16011 0.0
H88 H 0.91734 0.40538 0.16789 0.0
H89 H 0.07902 0.46447 0.16801 0.0
H90 H 0.94764 0.65002 0.25097 0.0
H91 H 0.11128 0.72404 0.24499 0.0
C92 C 0.4801 0.03162 0.57186 0.0
C93 C 0.44231 0.98519 0.57997 0.0
C94 C 0.44494 0.9488 0.56961 0.0
C95 C 0.48415 0.97493 0.55592 0.0
N96 N 0.50713 0.02592 0.55696 0.0
Co97 Co 0.56609 0.07826 0.53997 0.0
N98 N 0.56955 0.02447 0.52464 0.0
C99 C 0.53909 0.97365 0.52723 0.0
C100 C 0.55174 0.94637 0.51493 0.0
C101 C 0.59311 0.98178 0.50391 0.0
C102 C 0.60319 0.02884 0.51013 0.0
N103 N 0.62489 0.13054 0.52289 0.0
C104 C 0.65311 0.12472 0.50852 0.0
C105 C 0.69086 0.17101 0.50033 0.0
C106 C 0.6869 0.20749 0.51009 0.0
C107 C 0.64703 0.1815 0.52357 0.0
N108 N 0.5629 0.13201 0.55541 0.0
C109 C 0.59327 0.18283 0.55274 0.0
C110 C 0.58134 0.21012 0.56533 0.0
C111 C 0.5408 0.17472 0.57671 0.0
C112 C 0.53043 0.12762 0.57043 0.0
N113 N 0.61456 0.07808 0.55833 0.0
C114 C 0.68552 0.07795 0.58331 0.0
C115 C 0.69169 0.12335 0.5759 0.0
C116 C 0.656 0.12255 0.56359 0.0
C117 C 0.64291 0.03263 0.57819 0.0
C118 C 0.60824 0.03355 0.56578 0.0
N119 N 0.51771 0.07856 0.52151 0.0
C120 C 0.48958 0.12429 0.50164 0.0
C121 C 0.44962 0.07907 0.49506 0.0
C122 C 0.4441 0.03356 0.50202 0.0
C123 C 0.47815 0.03417 0.51516 0.0
C124 C 0.52291 0.12317 0.51471 0.0
H125 H 0.47153 0.99823 0.52002 0.0
H126 H 0.55259 0.15895 0.51903 0.0
H127 H 0.66292 0.15841 0.55845 0.0
H128 H 0.57691 0.99775 0.56228 0.0
C129 C 0.50024 0.95263 0.54191 0.0
C130 C 0.48822 0.07993 0.5787 0.0
C131 C 0.64651 0.07644 0.50245 0.0
C132 C 0.63136 0.20385 0.53775 0.0
H133 H 0.41543 0.97829 0.59208 0.0
H134 H 0.42104 0.90815 0.57178 0.0
H135 H 0.53374 0.90559 0.51435 0.0
H136 H 0.61407 0.97374 0.49284 0.0
H137 H 0.71884 0.17769 0.48868 0.0
H138 H 0.7109 0.24814 0.50791 0.0
H139 H 0.59937 0.2509 0.56592 0.0
H140 H 0.52069 0.18282 0.58813 0.0
H141 H 0.72376 0.15947 0.57968 0.0
H142 H 0.63677 0.99642 0.58341 0.0
H143 H 0.49564 0.16054 0.49653 0.0
H144 H 0.41319 0.99749 0.49756 0.0
C145 C 0.6325 0.60737 0.84628 0.0
C146 C 0.6735 0.60108 0.84144 0.0
C147 C 0.67059 0.56551 0.85433 0.0
C148 C 0.62824 0.55225 0.86624 0.0
N149 N 0.60346 0.57673 0.86163 0.0
Co150 Co 0.54136 0.57052 0.8756 0.0
N151 N 0.53797 0.51916 0.89488 0.0
C152 C 0.56973 0.50059 0.89544 0.0
C153 C 0.55716 0.46502 0.91014 0.0
C154 C 0.5144 0.45998 0.9194 0.0
C155 C 0.50329 0.49285 0.90972 0.0
N156 N 0.47994 0.56511 0.88985 0.0
C157 C 0.45128 0.53498 0.90539 0.0
C158 C 0.41143 0.54274 0.91065 0.0
C159 C 0.41494 0.57896 0.89794 0.0
C160 C 0.45646 0.59116 0.88569 0.0
N161 N 0.54411 0.62101 0.85602 0.0
C162 C 0.51126 0.63816 0.85502 0.0
C163 C 0.52321 0.67284 0.84001 0.0
C164 C 0.56649 0.67848 0.83094 0.0
C165 C 0.57847 0.64685 0.84103 0.0
N166 N 0.49655 0.51464 0.85861 0.0
C167 C 0.42985 0.43238 0.83626 0.0
C168 C 0.42 0.47103 0.84063 0.0
C169 C 0.45361 0.51149 0.85167 0.0
C170 C 0.47424 0.43617 0.84294 0.0
C171 C 0.50676 0.47725 0.85399 0.0
N172 N 0.58596 0.62633 0.89266 0.0
C173 C 0.61022 0.70646 0.90735 0.0
C174 C 0.64796 0.70451 0.91745 0.0
C175 C 0.65465 0.66322 0.91477 0.0
C176 C 0.62372 0.62505 0.90232 0.0
C177 C 0.57973 0.66716 0.8952 0.0
H178 H 0.63117 0.59496 0.90075 0.0
H179 H 0.55129 0.67064 0.8881 0.0
H180 H 0.44361 0.53937 0.85459 0.0
H181 H 0.53969 0.47765 0.85874 0.0
C182 C 0.61102 0.51725 0.88194 0.0
C183 C 0.62386 0.64411 0.83625 0.0
C184 C 0.45881 0.49687 0.91497 0.0
C185 C 0.47187 0.62387 0.86926 0.0
H186 H 0.70286 0.62067 0.82994 0.0
H187 H 0.69657 0.55143 0.85507 0.0
H188 H 0.57656 0.44487 0.9136 0.0
H189 H 0.49347 0.43464 0.93179 0.0
H190 H 0.38214 0.52344 0.92219 0.0
H191 H 0.38938 0.59358 0.89735 0.0
H192 H 0.50356 0.69265 0.83642 0.0
H193 H 0.58745 0.7037 0.81852 0.0
H194 H 0.38587 0.46965 0.83594 0.0
H195 H 0.48407 0.40765 0.83963 0.0
H196 H 0.60355 0.7377 0.90909 0.0
H197 H 0.68406 0.66059 0.92208 0.0
C198 C 0.9641 0.1493 0.07788 0.0
C199 C 0.00122 0.13534 0.07869 0.0
C200 C 0.96425 0.18457 0.0907 0.0
C201 C 0.00144 0.20639 0.10476 0.0
C202 C 0.03765 0.19127 0.10582 0.0
C203 C 0.03756 0.15618 0.09298 0.0
C204 C 0.00604 0.24682 0.11786 0.0
C205 C 0.97055 0.26026 0.1204 0.0
C206 C 0.97804 0.30318 0.13255 0.0
C207 C 0.95147 0.32797 0.12826 0.0
C208 C 0.95797 0.369 0.13911 0.0
C209 C 0.99097 0.38589 0.15462 0.0
H210 H 0.03014 0.30032 0.15259 0.0
C211 C 0.01698 0.36062 0.15914 0.0
C212 C 0.01044 0.31954 0.1483 0.0
H213 H 0.04168 0.37198 0.17131 0.0
H214 H 0.93569 0.13407 0.06698 0.0
H215 H 0.93602 0.19538 0.08899 0.0
H216 H 0.06677 0.20732 0.11645 0.0
H217 H 0.06668 0.14617 0.09403 0.0
H218 H 0.04134 0.26734 0.12533 0.0
H219 H 0.93547 0.24098 0.11279 0.0
H220 H 0.92607 0.31599 0.11629 0.0
H221 H 0.93759 0.38787 0.1352 0.0
C222 C 0.92564 0.08963 0.41231 0.0
C223 C 0.95529 0.0701 0.41905 0.0
C224 C 0.88672 0.08786 0.42432 0.0
C225 C 0.87601 0.06582 0.44331 0.0
C226 C 0.90544 0.04596 0.44996 0.0
C227 C 0.94462 0.04797 0.43796 0.0
C228 C 0.8365 0.06528 0.45689 0.0
C229 C 0.79791 0.07063 0.45094 0.0
C230 C 0.75968 0.07219 0.46457 0.0
C231 C 0.71256 0.06083 0.45748 0.0
C232 C 0.6758 0.06248 0.46974 0.0
C233 C 0.68571 0.07574 0.48927 0.0
H234 H 0.80619 0.09747 0.48998 0.0
C235 C 0.73293 0.08812 0.49636 0.0
C236 C 0.76978 0.08657 0.48412 0.0
H237 H 0.74122 0.09896 0.51138 0.0
H238 H 0.93317 0.10742 0.39788 0.0
H239 H 0.86635 0.10519 0.41875 0.0
H240 H 0.89834 0.02912 0.46457 0.0
H241 H 0.96685 0.03268 0.44361 0.0
H242 H 0.83886 0.05892 0.47233 0.0
H243 H 0.79261 0.07215 0.43543 0.0
H244 H 0.70403 0.05032 0.44244 0.0
H245 H 0.63954 0.05318 0.46405 0.0
C246 C 0.92796 0.89345 0.7496 0.0
C247 C 0.92612 0.89062 0.72915 0.0
C248 C 0.88798 0.85659 0.76167 0.0
C249 C 0.84513 0.81611 0.75352 0.0
C250 C 0.84433 0.81203 0.73313 0.0
C251 C 0.88425 0.84908 0.72104 0.0
C252 C 0.80103 0.77746 0.76591 0.0
C253 C 0.78687 0.78825 0.78325 0.0
C254 C 0.74337 0.75067 0.79623 0.0
C255 C 0.74158 0.76216 0.81596 0.0
C256 C 0.70219 0.7278 0.82889 0.0
C257 C 0.6637 0.68153 0.82224 0.0
H258 H 0.70257 0.69464 0.77438 0.0
C259 C 0.66435 0.67013 0.80252 0.0
C260 C 0.70377 0.70448 0.78954 0.0
H261 H 0.63457 0.6345 0.79722 0.0
H262 H 0.95993 0.92464 0.75634 0.0
H263 H 0.89092 0.85992 0.77734 0.0
H264 H 0.8121 0.78081 0.72651 0.0
H265 H 0.88182 0.84559 0.70534 0.0
H266 H 0.77936 0.73979 0.7602 0.0
H267 H 0.80864 0.8265 0.78849 0.0
H268 H 0.77123 0.79753 0.8215 0.0
H269 H 0.70206 0.73699 0.84412 0.0
C270 C 0.06902 0.92674 0.07707 0.0
C271 C 0.02357 0.92171 0.07066 0.0
C272 C 0.06832 0.88669 0.08727 0.0
C273 C 0.0221 0.84082 0.09115 0.0
C274 C 0.97713 0.83531 0.08412 0.0
C275 C 0.97773 0.87541 0.07413 0.0
C276 C 0.01912 0.79803 0.10255 0.0
C277 C 0.05046 0.80471 0.11696 0.0
C278 C 0.0439 0.76243 0.12982 0.0
C279 C 0.06044 0.77285 0.14896 0.0
C280 C 0.05378 0.73394 0.16169 0.0
C281 C 0.03096 0.68403 0.1554 0.0
H282 H 0.01007 0.70312 0.10863 0.0
C283 C 0.01543 0.67348 0.13618 0.0
C284 C 0.02181 0.71235 0.12346 0.0
H285 H -0.0014 0.63522 0.13103 0.0
H286 H 0.10499 0.96183 0.07446 0.0
H287 H 0.10396 0.8917 0.09199 0.0
H288 H 0.94114 0.80022 0.08675 0.0
H289 H 0.94211 0.87012 0.06921 0.0
H290 H 0.98712 0.76041 0.10018 0.0
H291 H 0.07925 0.84288 0.1206 0.0
H292 H 0.07793 0.8111 0.15418 0.0
H293 H 0.06645 0.74272 0.17645 0.0
C294 C 0.17373 0.05102 0.4097 0.0
C295 C 0.17342 0.0941 0.40282 0.0
C296 C 0.21227 0.05583 0.42134 0.0
C297 C 0.25199 0.10401 0.4262 0.0
C298 C 0.25152 0.1471 0.41943 0.0
C299 C 0.21271 0.14226 0.40781 0.0
C300 C 0.29289 0.11039 0.43902 0.0
C301 C 0.30617 0.07499 0.44122 0.0
C302 C 0.34461 0.0788 0.45483 0.0
C303 C 0.36389 0.04616 0.45246 0.0
C304 C 0.39815 0.04644 0.46542 0.0
C305 C 0.41387 0.07937 0.48111 0.0
H306 H 0.34531 0.13641 0.4734 0.0
C307 C 0.39479 0.11218 0.48351 0.0
C308 C 0.36032 0.11177 0.47059 0.0
H309 H 0.40554 0.13736 0.49568 0.0
H310 H 0.1437 0.0133 0.40634 0.0
H311 H 0.20986 0.02151 0.42683 0.0
H312 H 0.28128 0.18464 0.42313 0.0
H313 H 0.21341 0.17619 0.40281 0.0
H314 H 0.31325 0.14595 0.44641 0.0
H315 H 0.28888 0.04168 0.43235 0.0
H316 H 0.35228 0.02014 0.44054 0.0
H317 H 0.41258 0.02105 0.46308 0.0
C318 C 0.17019 0.12049 0.76657 0.0
C319 C 0.14478 0.12729 0.75126 0.0
C320 C 0.20304 0.16139 0.77764 0.0
C321 C 0.21157 0.2102 0.7735 0.0
C322 C 0.18488 0.21659 0.75859 0.0
C323 C 0.15195 0.17565 0.74754 0.0
C324 C 0.24747 0.25522 0.78441 0.0
C325 C 0.28655 0.25813 0.79397 0.0
C326 C 0.32298 0.30354 0.80452 0.0
C327 C 0.34809 0.29735 0.82006 0.0
C328 C 0.38281 0.33909 0.83032 0.0
C329 C 0.39366 0.38812 0.8251 0.0
H330 H 0.31731 0.35929 0.78671 0.0
C331 C 0.36925 0.39445 0.80929 0.0
C332 C 0.33436 0.35267 0.79907 0.0
H333 H 0.37762 0.43184 0.80461 0.0
H334 H 0.16496 0.08355 0.76998 0.0
H335 H 0.22117 0.15424 0.78947 0.0
H336 H 0.19024 0.25361 0.75523 0.0
H337 H 0.13274 0.18212 0.7359 0.0
H338 H 0.24193 0.28745 0.78409 0.0
H339 H 0.29225 0.22603 0.79441 0.0
H340 H 0.34032 0.25997 0.82446 0.0
H341 H 0.40052 0.33278 0.84256 0.0
C342 C 0.94359 0.05124 0.66325 0.0
C343 C 0.98529 0.09476 0.67044 0.0
C344 C 0.91008 0.05534 0.65118 0.0
C345 C 0.91715 0.10312 0.64617 0.0
C346 C 0.95958 0.1467 0.6529 0.0
C347 C 0.99326 0.14261 0.66499 0.0
C348 C 0.88162 0.10865 0.63361 0.0
C349 C 0.83226 0.07225 0.63264 0.0
C350 C 0.79581 0.07614 0.62006 0.0
C351 C 0.74338 0.04376 0.62433 0.0
C352 C 0.7076 0.04463 0.61253 0.0
C353 C 0.72349 0.07781 0.5961 0.0
H354 H 0.85172 0.13374 0.59934 0.0
C355 C 0.77594 0.11026 0.59178 0.0
C356 C 0.81177 0.10933 0.60356 0.0
H357 H 0.78935 0.13555 0.57899 0.0
H358 H 0.93672 0.0138 0.66693 0.0
H359 H 0.87911 0.02092 0.64566 0.0
H360 H 0.9663 0.184 0.64904 0.0
H361 H 0.02522 0.17688 0.67018 0.0
H362 H 0.8962 0.14463 0.62575 0.0
H363 H 0.81694 0.03844 0.64203 0.0
H364 H 0.72998 0.01761 0.63686 0.0
H365 H 0.66746 0.01949 0.61635 0.0
C366 C 0.91022 0.95608 0.00451 0.0
C367 C 0.94323 0.0066 -0.00191 0.0
C368 C 0.86983 0.9231 0.99339 0.0
C369 C 0.86099 0.93997 0.97561 0.0
C370 C 0.89365 0.99066 0.9693 0.0
C371 C 0.93429 0.02375 0.98045 0.0
C372 C 0.82078 0.90488 0.96264 0.0
C373 C 0.78017 0.86033 0.96902 0.0
C374 C 0.74455 0.8217 0.95575 0.0
C375 C 0.72084 0.77048 0.96173 0.0
C376 C 0.68928 0.73251 0.94933 0.0
C377 C 0.6801 0.74504 0.93079 0.0
H378 H 0.75079 0.87352 0.93251 0.0
C379 C 0.70227 0.79634 0.92503 0.0
C380 C 0.73434 0.8344 0.93738 0.0
H381 H 0.69566 0.80701 0.91082 0.0
H382 H 0.91619 0.94147 0.01796 0.0
H383 H 0.84704 0.88407 -0.00145 0.0
H384 H 0.8881 0.00457 0.95558 0.0
H385 H 0.95911 0.06244 0.97508 0.0
H386 H 0.82629 0.91547 0.94718 0.0
H387 H 0.77432 0.84973 0.98447 0.0
H388 H 0.72771 0.75971 0.97588 0.0
H389 H 0.67198 0.69328 0.95426 0.0
C390 C 0.04285 0.98114 0.32625 0.0
C391 C 0.00803 0.96926 0.3423 0.0
C392 C 0.04051 0.94297 0.3146 0.0
C393 C 0.00347 0.89189 0.31887 0.0
C394 C 0.96761 0.88024 0.33449 0.0
C395 C 0.96993 0.91847 0.34615 0.0
C396 C 0.00058 0.84991 0.30725 0.0
C397 C 0.0408 0.85329 0.29692 0.0
C398 C 0.03789 0.81123 0.28539 0.0
C399 C 0.07248 0.82287 0.26932 0.0
C400 C 0.07045 0.78444 0.25789 0.0
C401 C 0.03401 0.73343 0.26245 0.0
H402 H 0.9764 0.7494 0.30302 0.0
C403 C 0.0004 0.72169 0.27891 0.0
C404 C 0.00234 0.7601 0.29029 0.0
H405 H 0.97273 0.68268 0.2831 0.0
H406 H 0.07228 0.01999 0.32272 0.0
H407 H 0.06758 0.95392 0.30224 0.0
H408 H 0.93827 0.84129 0.33795 0.0
H409 H 0.94236 0.90807 0.35834 0.0
H410 H 0.96407 0.81478 0.30761 0.0
H411 H 0.07735 0.88835 0.29649 0.0
H412 H 0.10057 0.86193 0.26535 0.0
H413 H 0.09665 0.79481 0.24523 0.0
C414 C 0.23056 0.10133 0.66956 0.0
C415 C 0.18276 0.05787 0.67397 0.0
C416 C 0.26696 0.09868 0.65746 0.0
C417 C 0.25633 0.05238 0.6495 0.0
C418 C 0.20859 0.00894 0.65391 0.0
C419 C 0.17226 0.01151 0.66616 0.0
C420 C 0.29293 0.04895 0.63561 0.0
C421 C 0.34372 0.08066 0.63564 0.0
C422 C 0.3799 0.07911 0.62095 0.0
C423 C 0.43004 0.09584 0.62601 0.0
C424 C 0.46533 0.09598 0.61233 0.0
C425 C 0.45119 0.08028 0.59327 0.0
H426 H 0.3282 0.052 0.59716 0.0
C427 C 0.4014 0.06419 0.58807 0.0
C428 C 0.36599 0.06359 0.60177 0.0
H429 H 0.39006 0.05225 0.57335 0.0
H430 H 0.23978 0.13768 0.67529 0.0
H431 H 0.3027 0.1333 0.65394 0.0
H432 H 0.19929 0.97292 0.64782 0.0
H433 H 0.13569 0.97738 0.66921 0.0
H434 H 0.27742 0.01847 0.62534 0.0
H435 H 0.35974 0.10779 0.64714 0.0
H436 H 0.44181 0.10845 0.64062 0.0
H437 H 0.50366 0.10842 0.61656 0.0
C438 C 0.17487 0.23975 0.00778 0.0
C439 C 0.16835 0.19134 0.01055 0.0
C440 C 0.214 0.27579 0.99521 0.0
C441 C 0.24793 0.2644 0.98522 0.0
C442 C 0.24143 0.21601 0.988 0.0
C443 C 0.20218 0.17987 0.00059 0.0
C444 C 0.28855 0.30099 0.97104 0.0
C445 C 0.30838 0.35151 0.97152 0.0
C446 C 0.34711 0.38794 0.95678 0.0
C447 C 0.37859 0.43862 0.96184 0.0
C448 C 0.41481 0.47422 0.94824 0.0
C449 C 0.4196 0.45976 0.9293 0.0
H450 H 0.32717 0.33564 0.93293 0.0
C451 C 0.38792 0.40948 0.92405 0.0
C452 C 0.3518 0.37382 0.93763 0.0
H453 H 0.39113 0.3979 0.90941 0.0
H454 H 0.14922 0.24972 0.0151 0.0
H455 H 0.21645 0.31192 0.99302 0.0
H456 H 0.26669 0.20605 0.98034 0.0
H457 H 0.19805 0.14283 0.00235 0.0
H458 H 0.30338 0.28559 0.96017 0.0
H459 H 0.29725 0.36735 0.98351 0.0
H460 H 0.37542 0.45063 0.9764 0.0
H461 H 0.43918 0.51297 0.95249 0.0
C462 C 0.99258 0.1935 0.32555 0.0
C463 C 0.03724 0.20353 0.33453 0.0
C464 C 0.9904 0.23188 0.3154 0.0
C465 C 0.0331 0.28123 0.31383 0.0
C466 C 0.07765 0.29134 0.32289 0.0
C467 C 0.07983 0.25286 0.33308 0.0
C468 C 0.0319 0.32327 0.30345 0.0
C469 C 0.0 0.31584 0.28914 0.0
C470 C -0.00032 0.35795 0.27849 0.0
C471 C 0.98399 0.35089 0.2592 0.0
C472 C 0.98487 0.39024 0.24848 0.0
C473 C 0.00088 0.43703 0.25699 0.0
H474 H 0.0245 0.41065 0.30226 0.0
C475 C 0.01449 0.44367 0.2765 0.0
C476 C 0.01395 0.40445 0.2872 0.0
H477 H 0.02635 0.4795 0.28331 0.0
H478 H 0.95887 0.15602 0.32656 0.0
H479 H 0.95478 0.22278 0.30923 0.0
H480 H 0.11095 0.32912 0.32206 0.0
H481 H 0.11471 0.26188 0.33992 0.0
H482 H 0.06002 0.36166 0.30712 0.0
H483 H 0.97538 0.27787 0.28407 0.0
H484 H 0.97217 0.31524 0.25224 0.0
H485 H 0.97401 0.38454 0.23343 0.0
loop_
_geom_bond_atom_site_label_1
_geom_bond_atom_site_label_2
_geom_bond_distance
_geom_bond_site_symmetry_2
_ccdc_geom_bond_type
C0 O1 1.160 . S
C0 O7 1.185 1_565 S
O1 C0 1.160 . S
O2 Zn3 1.899 . S
O2 C10 1.284 . S
Zn3 O2 1.899 . S
Zn3 O4 2.032 . S
Zn3 O7 2.086 . S
Zn3 O12 1.977 . S
O4 Zn3 2.032 . S
O4 C8 1.278 1_455 S
C5 O6 1.203 . S
C5 O12 1.267 . S
O6 C5 1.203 . S
O7 C0 1.185 1_545 S
O7 Zn3 2.086 . S
C8 O4 1.278 1_655 S
C8 O9 1.211 1_655 S
O9 C8 1.211 1_455 S
C10 O2 1.284 . S
C10 O11 1.273 . S
O11 C10 1.273 . S
O12 Zn3 1.977 . S
O12 C5 1.267 . S
C13 O14 1.160 . S
C13 O20 1.185 . S
O14 C13 1.160 . S
O15 Zn16 1.899 . S
O15 C23 1.284 . S
Zn16 O15 1.899 . S
Zn16 O17 2.032 1_455 S
Zn16 O20 2.086 . S
Zn16 O25 1.977 . S
O17 Zn16 2.032 1_655 S
O17 C21 1.278 . S
C18 O19 1.203 . S
C18 O25 1.267 . S
O19 C18 1.203 . S
O20 C13 1.185 . S
O20 Zn16 2.086 . S
C21 O17 1.278 . S
C21 O22 1.218 . S
O22 C21 1.218 . S
C23 O15 1.284 . S
C23 O24 1.273 1_455 S
O24 C23 1.273 1_655 S
O25 Zn16 1.977 . S
O25 C18 1.267 . S
C26 O27 1.160 . S
C26 O33 1.185 . S
O27 C26 1.160 . S
O28 Zn29 1.899 . S
O28 C36 1.284 1_455 S
Zn29 O28 1.899 . S
Zn29 O30 2.032 . S
Zn29 O33 2.084 . S
Zn29 O38 1.977 1_545 S
O30 Zn29 2.032 . S
O30 C34 1.278 . S
C31 O32 1.203 . S
C31 O38 1.267 1_655 S
O32 C31 1.203 . S
O33 C26 1.185 . S
O33 Zn29 2.084 . S
C34 O30 1.278 . S
C34 O35 1.211 . S
O35 C34 1.211 . S
C36 O28 1.284 1_655 S
C36 O37 1.273 1_655 S
O37 C36 1.273 1_455 S
O38 Zn29 1.977 1_565 S
O38 C31 1.267 1_455 S
C39 C40 1.443 . S
C39 N43 1.376 . S
C39 C77 1.389 . S
C40 C39 1.443 . S
C40 C41 1.340 . S
C40 H80 0.951 . S
C41 C40 1.340 . S
C41 C42 1.439 . S
C41 H81 0.950 . S
C42 C41 1.439 . S
C42 N43 1.374 . S
C42 C76 1.395 . S
N43 C39 1.376 . S
N43 C42 1.374 . S
N43 Co44 2.008 . S
Co44 N43 2.008 . S
Co44 N45 1.995 . S
Co44 N50 2.008 1_455 S
Co44 N55 1.995 1_455 S
Co44 N60 2.282 . S
Co44 N66 2.282 . S
N45 Co44 1.995 . S
N45 C46 1.376 . S
N45 C49 1.383 . S
C46 N45 1.376 . S
C46 C47 1.446 . S
C46 C76 1.391 . S
C47 C46 1.446 . S
C47 C48 1.339 . S
C47 H82 0.949 . S
C48 C47 1.339 . S
C48 C49 1.439 . S
C48 H83 0.950 . S
C49 N45 1.383 . S
C49 C48 1.439 . S
C49 C78 1.392 . S
N50 Co44 2.008 1_655 S
N50 C51 1.376 . S
N50 C54 1.374 . S
C51 N50 1.376 . S
C51 C52 1.443 . S
C51 C78 1.389 1_655 S
C52 C51 1.443 . S
C52 C53 1.340 . S
C52 H84 0.951 . S
C53 C52 1.340 . S
C53 C54 1.439 . S
C53 H85 0.950 . S
C54 N50 1.374 . S
C54 C53 1.439 . S
C54 C79 1.395 . S
N55 Co44 1.995 1_655 S
N55 C56 1.376 . S
N55 C59 1.383 . S
C56 N55 1.376 . S
C56 C57 1.446 . S
C56 C79 1.391 . S
C57 C56 1.446 . S
C57 C58 1.339 . S
C57 H86 0.949 . S
C58 C57 1.339 . S
C58 C59 1.439 . S
C58 H87 0.950 . S
C59 N55 1.383 . S
C59 C58 1.439 . S
C59 C77 1.392 1_655 S
N60 Co44 2.282 . S
N60 C63 1.332 1_455 S
N60 C65 1.332 . S
C61 C62 1.386 1_455 S
C61 C64 1.388 . S
C62 C61 1.386 1_655 S
C62 C63 1.382 . S
C62 H88 0.950 . S
C63 N60 1.332 1_655 S
C63 C62 1.382 . S
C63 H74 0.952 . S
C64 C61 1.388 . S
C64 C65 1.382 . S
C64 H89 0.950 . S
C65 N60 1.332 . S
C65 C64 1.382 . S
C65 H75 0.948 . S
N66 Co44 2.282 . S
N66 C70 1.332 . S
N66 C71 1.332 1_455 S
C67 C68 1.388 1_655 S
C67 C71 1.382 . S
C67 H90 0.950 . S
C68 C67 1.388 1_455 S
C68 C69 1.386 . S
C69 C68 1.386 . S
C69 C70 1.382 . S
C69 H91 0.950 . S
C70 N66 1.332 . S
C70 C69 1.382 . S
C70 H72 0.952 . S
C71 N66 1.332 1_655 S
C71 C67 1.382 . S
C71 H73 0.948 . S
H72 C70 0.952 . S
H73 C71 0.948 . S
H74 C63 0.952 . S
H75 C65 0.948 . S
C76 C42 1.395 . S
C76 C46 1.391 . S
C77 C39 1.389 . S
C77 C59 1.392 1_455 S
C78 C49 1.392 . S
C78 C51 1.389 1_455 S
C79 C54 1.395 . S
C79 C56 1.391 . S
H80 C40 0.951 . S
H81 C41 0.950 . S
H82 C47 0.949 . S
H83 C48 0.950 . S
H84 C52 0.951 . S
H85 C53 0.950 . S
H86 C57 0.949 . S
H87 C58 0.950 . S
H88 C62 0.950 . S
H89 C64 0.950 . S
H90 C67 0.950 . S
H91 C69 0.950 . S
C92 C93 1.443 1_545 S
C92 N96 1.376 . S
C92 C130 1.389 . S
C93 C92 1.443 1_565 S
C93 C94 1.340 . S
C93 H133 0.951 . S
C94 C93 1.340 . S
C94 C95 1.439 . S
C94 H134 0.950 . S
C95 C94 1.439 . S
C95 N96 1.374 1_565 S
C95 C129 1.395 . S
N96 C92 1.376 . S
N96 C95 1.374 1_545 S
N96 Co97 2.008 . S
Co97 N96 2.008 . S
Co97 N98 1.995 . S
Co97 N103 2.008 . S
Co97 N108 1.995 . S
Co97 N113 2.282 . S
Co97 N119 2.282 . S
N98 Co97 1.995 . S
N98 C99 1.376 1_545 S
N98 C102 1.383 . S
C99 N98 1.376 1_565 S
C99 C100 1.446 . S
C99 C129 1.391 . S
C100 C99 1.446 . S
C100 C101 1.339 . S
C100 H135 0.949 . S
C101 C100 1.339 . S
C101 C102 1.439 1_565 S
C101 H136 0.950 . S
C102 N98 1.383 . S
C102 C101 1.439 1_545 S
C102 C131 1.392 . S
N103 Co97 2.008 . S
N103 C104 1.376 . S
N103 C107 1.374 . S
C104 N103 1.376 . S
C104 C105 1.443 . S
C104 C131 1.389 . S
C105 C104 1.443 . S
C105 C106 1.340 . S
C105 H137 0.951 . S
C106 C105 1.340 . S
C106 C107 1.439 . S
C106 H138 0.950 . S
C107 N103 1.374 . S
C107 C106 1.439 . S
C107 C132 1.395 . S
N108 Co97 1.995 . S
N108 C109 1.376 . S
N108 C112 1.383 . S
C109 N108 1.376 . S
C109 C110 1.446 . S
C109 C132 1.391 . S
C110 C109 1.446 . S
C110 C111 1.339 . S
C110 H139 0.949 . S
C111 C110 1.339 . S
C111 C112 1.439 . S
C111 H140 0.950 . S
C112 N108 1.383 . S
C112 C111 1.439 . S
C112 C130 1.392 . S
N113 Co97 2.282 . S
N113 C116 1.332 . S
N113 C118 1.332 . S
C114 C115 1.386 . S
C114 C117 1.388 . S
C115 C114 1.386 . S
C115 C116 1.382 . S
C115 H141 0.950 . S
C116 N113 1.332 . S
C116 C115 1.382 . S
C116 H127 0.952 . S
C117 C114 1.388 . S
C117 C118 1.382 . S
C117 H142 0.950 1_545 S
C118 N113 1.332 . S
C118 C117 1.382 . S
C118 H128 0.948 1_545 S
N119 Co97 2.282 . S
N119 C123 1.332 . S
N119 C124 1.332 . S
C120 C121 1.388 . S
C120 C124 1.382 . S
C120 H143 0.950 . S
C121 C120 1.388 . S
C121 C122 1.386 . S
C122 C121 1.386 . S
C122 C123 1.382 . S
C122 H144 0.950 . S
C123 N119 1.332 . S
C123 C122 1.382 . S
C123 H125 0.952 . S
C124 N119 1.332 . S
C124 C120 1.382 . S
C124 H126 0.948 . S
H125 C123 0.952 . S
H126 C124 0.948 . S
H127 C116 0.952 . S
H128 C118 0.948 1_565 S
C129 C95 1.395 . S
C129 C99 1.391 . S
C130 C92 1.389 . S
C130 C112 1.392 . S
C131 C102 1.392 . S
C131 C104 1.389 . S
C132 C107 1.395 . S
C132 C109 1.391 . S
H133 C93 0.951 . S
H134 C94 0.950 . S
H135 C100 0.949 . S
H136 C101 0.950 . S
H137 C105 0.951 . S
H138 C106 0.950 . S
H139 C110 0.949 . S
H140 C111 0.950 . S
H141 C115 0.950 . S
H142 C117 0.950 1_565 S
H143 C120 0.950 . S
H144 C122 0.950 . S
C145 C146 1.443 . S
C145 N149 1.376 . S
C145 C183 1.389 . S
C146 C145 1.443 . S
C146 C147 1.340 . S
C146 H186 0.951 . S
C147 C146 1.340 . S
C147 C148 1.439 . S
C147 H187 0.950 . S
C148 C147 1.439 . S
C148 N149 1.374 . S
C148 C182 1.395 . S
N149 C145 1.376 . S
N149 C148 1.374 . S
N149 Co150 2.008 . S
Co150 N149 2.008 . S
Co150 N151 1.995 . S
Co150 N156 2.008 . S
Co150 N161 1.995 . S
Co150 N166 2.282 . S
Co150 N172 2.282 . S
N151 Co150 1.995 . S
N151 C152 1.376 . S
N151 C155 1.383 . S
C152 N151 1.376 . S
C152 C153 1.446 . S
C152 C182 1.391 . S
C153 C152 1.446 . S
C153 C154 1.339 . S
C153 H188 0.949 . S
C154 C153 1.339 . S
C154 C155 1.439 . S
C154 H189 0.950 . S
C155 N151 1.383 . S
C155 C154 1.439 . S
C155 C184 1.392 . S
N156 Co150 2.008 . S
N156 C157 1.376 . S
N156 C160 1.374 . S
C157 N156 1.376 . S
C157 C158 1.443 . S
C157 C184 1.389 . S
C158 C157 1.443 . S
C158 C159 1.340 . S
C158 H190 0.951 . S
C159 C158 1.340 . S
C159 C160 1.439 . S
C159 H191 0.950 . S
C160 N156 1.374 . S
C160 C159 1.439 . S
C160 C185 1.395 . S
N161 Co150 1.995 . S
N161 C162 1.376 . S
N161 C165 1.383 . S
C162 N161 1.376 . S
C162 C163 1.446 . S
C162 C185 1.391 . S
C163 C162 1.446 . S
C163 C164 1.339 . S
C163 H192 0.949 . S
C164 C163 1.339 . S
C164 C165 1.439 . S
C164 H193 0.950 . S
C165 N161 1.383 . S
C165 C164 1.439 . S
C165 C183 1.392 . S
N166 Co150 2.282 . S
N166 C169 1.332 . S
N166 C171 1.332 . S
C167 C168 1.386 . S
C167 C170 1.388 . S
C168 C167 1.386 . S
C168 C169 1.382 . S
C168 H194 0.950 . S
C169 N166 1.332 . S
C169 C168 1.382 . S
C169 H180 0.952 . S
C170 C167 1.388 . S
C170 C171 1.382 . S
C170 H195 0.950 . S
C171 N166 1.332 . S
C171 C170 1.382 . S
C171 H181 0.948 . S
N172 Co150 2.282 . S
N172 C176 1.332 . S
N172 C177 1.332 . S
C173 C174 1.388 . S
C173 C177 1.382 . S
C173 H196 0.950 . S
C174 C173 1.388 . S
C174 C175 1.386 . S
C175 C174 1.386 . S
C175 C176 1.382 . S
C175 H197 0.950 . S
C176 N172 1.332 . S
C176 C175 1.382 . S
C176 H178 0.952 . S
C177 N172 1.332 . S
C177 C173 1.382 . S
C177 H179 0.948 . S
H178 C176 0.952 . S
H179 C177 0.948 . S
H180 C169 0.952 . S
H181 C171 0.948 . S
C182 C148 1.395 . S
C182 C152 1.391 . S
C183 C145 1.389 . S
C183 C165 1.392 . S
C184 C155 1.392 . S
C184 C157 1.389 . S
C185 C160 1.395 . S
C185 C162 1.391 . S
H186 C146 0.951 . S
H187 C147 0.950 . S
H188 C153 0.949 . S
H189 C154 0.950 . S
H190 C158 0.951 . S
H191 C159 0.950 . S
H192 C163 0.949 . S
H193 C164 0.950 . S
H194 C168 0.950 . S
H195 C170 0.950 . S
H196 C173 0.950 . S
H197 C175 0.950 . S
C198 C199 1.386 . S
C198 C200 1.383 . S
C198 H214 0.951 1_455 S
C199 C198 1.386 . S
C199 C203 1.383 . S
C200 C198 1.383 . S
C200 C201 1.402 . S
C200 H215 0.951 1_455 S
C201 C200 1.402 . S
C201 C202 1.375 . S
C201 C204 1.481 . S
C202 C201 1.375 . S
C202 C203 1.367 . S
C202 H216 0.951 . S
C203 C199 1.383 . S
C203 C202 1.367 . S
C203 H217 0.950 . S
C204 C201 1.481 . S
C204 C205 1.297 . S
C204 H218 0.950 . S
C205 C204 1.297 . S
C205 C206 1.479 . S
C205 H219 0.950 1_455 S
C206 C205 1.479 . S
C206 C207 1.375 1_455 S
C206 C212 1.404 . S
C207 C206 1.375 1_655 S
C207 C208 1.369 . S
C207 H220 0.950 . S
C208 C207 1.369 . S
C208 C209 1.392 1_655 S
C208 H221 0.951 . S
C209 C208 1.392 1_455 S
C209 C211 1.384 . S
H210 C212 0.949 . S
C211 C209 1.384 . S
C211 C212 1.385 . S
C211 H213 0.950 . S
C212 C206 1.404 . S
C212 H210 0.949 . S
C212 C211 1.385 . S
H213 C211 0.950 . S
H214 C198 0.951 1_655 S
H215 C200 0.951 1_655 S
H216 C202 0.951 . S
H217 C203 0.950 . S
H218 C204 0.950 . S
H219 C205 0.950 1_655 S
H220 C207 0.950 . S
H221 C208 0.951 . S
C222 C223 1.386 . S
C222 C224 1.383 . S
C222 H238 0.951 . S
C223 C222 1.386 . S
C223 C227 1.383 . S
C224 C222 1.383 . S
C224 C225 1.402 . S
C224 H239 0.951 . S
C225 C224 1.402 . S
C225 C226 1.375 . S
C225 C228 1.481 . S
C226 C225 1.375 . S
C226 C227 1.367 . S
C226 H240 0.951 . S
C227 C223 1.383 . S
C227 C226 1.367 . S
C227 H241 0.950 . S
C228 C225 1.481 . S
C228 C229 1.297 . S
C228 H242 0.950 . S
C229 C228 1.297 . S
C229 C230 1.479 . S
C229 H243 0.950 . S
C230 C229 1.479 . S
C230 C231 1.375 . S
C230 C236 1.404 . S
C231 C230 1.375 . S
C231 C232 1.369 . S
C231 H244 0.950 . S
C232 C231 1.369 . S
C232 C233 1.392 . S
C232 H245 0.951 . S
C233 C232 1.392 . S
C233 C235 1.384 . S
H234 C236 0.949 . S
C235 C233 1.384 . S
C235 C236 1.385 . S
C235 H237 0.950 . S
C236 C230 1.404 . S
C236 H234 0.949 . S
C236 C235 1.385 . S
H237 C235 0.950 . S
H238 C222 0.951 . S
H239 C224 0.951 . S
H240 C226 0.951 . S
H241 C227 0.950 . S
H242 C228 0.950 . S
H243 C229 0.950 . S
H244 C231 0.950 . S
H245 C232 0.951 . S
C246 C247 1.386 . S
C246 C248 1.383 . S
C246 H262 0.951 . S
C247 C246 1.386 . S
C247 C251 1.383 . S
C248 C246 1.383 . S
C248 C249 1.402 . S
C248 H263 0.951 . S
C249 C248 1.402 . S
C249 C250 1.375 . S
C249 C252 1.481 . S
C250 C249 1.375 . S
C250 C251 1.367 . S
C250 H264 0.951 . S
C251 C247 1.383 . S
C251 C250 1.367 . S
C251 H265 0.950 . S
C252 C249 1.481 . S
C252 C253 1.297 . S
C252 H266 0.950 . S
C253 C252 1.297 . S
C253 C254 1.479 . S
C253 H267 0.950 . S
C254 C253 1.479 . S
C254 C255 1.375 . S
C254 C260 1.404 . S
C255 C254 1.375 . S
C255 C256 1.369 . S
C255 H268 0.950 . S
C256 C255 1.369 . S
C256 C257 1.392 . S
C256 H269 0.951 . S
C257 C256 1.392 . S
C257 C259 1.384 . S
H258 C260 0.949 . S
C259 C257 1.384 . S
C259 C260 1.385 . S
C259 H261 0.950 . S
C260 C254 1.404 . S
C260 H258 0.949 . S
C260 C259 1.385 . S
H261 C259 0.950 . S
H262 C246 0.951 . S
H263 C248 0.951 . S
H264 C250 0.951 . S
H265 C251 0.950 . S
H266 C252 0.950 . S
H267 C253 0.950 . S
H268 C255 0.950 . S
H269 C256 0.951 . S
C270 C271 1.386 . S
C270 C272 1.383 . S
C270 H286 0.951 . S
C271 C270 1.386 . S
C271 C275 1.383 . S
C272 C270 1.383 . S
C272 C273 1.402 . S
C272 H287 0.951 . S
C273 C272 1.402 . S
C273 C274 1.375 . S
C273 C276 1.481 . S
C274 C273 1.375 . S
C274 C275 1.367 . S
C274 H288 0.951 1_455 S
C275 C271 1.383 . S
C275 C274 1.367 . S
C275 H289 0.963 . S
C276 C273 1.481 . S
C276 C277 1.297 . S
C276 H290 0.950 1_455 S
C277 C276 1.297 . S
C277 C278 1.479 . S
C277 H291 0.950 . S
C278 C277 1.479 . S
C278 C279 1.375 . S
C278 C284 1.404 1_455 S
C279 C278 1.375 . S
C279 C280 1.369 . S
C279 H292 0.950 . S
C280 C279 1.369 . S
C280 C281 1.392 . S
C280 H293 0.951 . S
C281 C280 1.392 . S
C281 C283 1.384 1_455 S
H282 C284 0.949 . S
C283 C281 1.384 1_655 S
C283 C284 1.385 . S
C283 H285 0.950 . S
C284 C278 1.404 1_655 S
C284 H282 0.949 . S
C284 C283 1.385 . S
H285 C283 0.950 . S
H286 C270 0.951 . S
H287 C272 0.951 . S
H288 C274 0.951 1_655 S
H289 C275 0.963 . S
H290 C276 0.950 1_655 S
H291 C277 0.950 . S
H292 C279 0.950 . S
H293 C280 0.951 . S
C294 C295 1.386 . S
C294 C296 1.383 . S
C294 H310 0.951 . S
C295 C294 1.386 . S
C295 C299 1.383 . S
C296 C294 1.383 . S
C296 C297 1.402 . S
C296 H311 0.951 . S
C297 C296 1.402 . S
C297 C298 1.375 . S
C297 C300 1.481 . S
C298 C297 1.375 . S
C298 C299 1.367 . S
C298 H312 0.951 . S
C299 C295 1.383 . S
C299 C298 1.367 . S
C299 H313 0.950 . S
C300 C297 1.481 . S
C300 C301 1.297 . S
C300 H314 0.950 . S
C301 C300 1.297 . S
C301 C302 1.479 . S
C301 H315 0.950 . S
C302 C301 1.479 . S
C302 C303 1.375 . S
C302 C308 1.404 . S
C303 C302 1.375 . S
C303 C304 1.369 . S
C303 H316 0.950 . S
C304 C303 1.369 . S
C304 C305 1.392 . S
C304 H317 0.951 . S
C305 C304 1.392 . S
C305 C307 1.384 . S
H306 C308 0.949 . S
C307 C305 1.384 . S
C307 C308 1.385 . S
C307 H309 0.950 . S
C308 C302 1.404 . S
C308 H306 0.949 . S
C308 C307 1.385 . S
H309 C307 0.950 . S
H310 C294 0.951 . S
H311 C296 0.951 . S
H312 C298 0.951 . S
H313 C299 0.950 . S
H314 C300 0.950 . S
H315 C301 0.950 . S
H316 C303 0.950 . S
H317 C304 0.951 . S
C318 C319 1.386 . S
C318 C320 1.383 . S
C318 H334 0.951 . S
C319 C318 1.386 . S
C319 C323 1.383 . S
C320 C318 1.383 . S
C320 C321 1.402 . S
C320 H335 0.951 . S
C321 C320 1.402 . S
C321 C322 1.375 . S
C321 C324 1.481 . S
C322 C321 1.375 . S
C322 C323 1.367 . S
C322 H336 0.951 . S
C323 C319 1.383 . S
C323 C322 1.367 . S
C323 H337 0.950 . S
C324 C321 1.481 . S
C324 C325 1.297 . S
C324 H338 0.950 . S
C325 C324 1.297 . S
C325 C326 1.479 . S
C325 H339 0.950 . S
C326 C325 1.479 . S
C326 C327 1.375 . S
C326 C332 1.404 . S
C327 C326 1.375 . S
C327 C328 1.369 . S
C327 H340 0.950 . S
C328 C327 1.369 . S
C328 C329 1.392 . S
C328 H341 0.951 . S
C329 C328 1.392 . S
C329 C331 1.384 . S
H330 C332 0.949 . S
C331 C329 1.384 . S
C331 C332 1.385 . S
C331 H333 0.950 . S
C332 C326 1.404 . S
C332 H330 0.949 . S
C332 C331 1.385 . S
H333 C331 0.950 . S
H334 C318 0.951 . S
H335 C320 0.951 . S
H336 C322 0.951 . S
H337 C323 0.950 . S
H338 C324 0.950 . S
H339 C325 0.950 . S
H340 C327 0.950 . S
H341 C328 0.951 . S
C342 C343 1.386 . S
C342 C344 1.383 . S
C342 H358 0.951 . S
C343 C342 1.386 . S
C343 C347 1.383 . S
C344 C342 1.383 . S
C344 C345 1.402 . S
C344 H359 0.951 . S
C345 C344 1.402 . S
C345 C346 1.375 . S
C345 C348 1.481 . S
C346 C345 1.375 . S
C346 C347 1.367 . S
C346 H360 0.951 . S
C347 C343 1.383 . S
C347 C346 1.367 . S
C347 H361 0.950 1_655 S
C348 C345 1.481 . S
C348 C349 1.297 . S
C348 H362 0.950 . S
C349 C348 1.297 . S
C349 C350 1.479 . S
C349 H363 0.950 . S
C350 C349 1.479 . S
C350 C351 1.375 . S
C350 C356 1.404 . S
C351 C350 1.375 . S
C351 C352 1.369 . S
C351 H364 0.950 . S
C352 C351 1.369 . S
C352 C353 1.392 . S
C352 H365 0.951 . S
C353 C352 1.392 . S
C353 C355 1.384 . S
H354 C356 0.949 . S
C355 C353 1.384 . S
C355 C356 1.385 . S
C355 H357 0.950 . S
C356 C350 1.404 . S
C356 H354 0.949 . S
C356 C355 1.385 . S
H357 C355 0.950 . S
H358 C342 0.951 . S
H359 C344 0.951 . S
H360 C346 0.951 . S
H361 C347 0.950 1_455 S
H362 C348 0.950 . S
H363 C349 0.950 . S
H364 C351 0.950 . S
H365 C352 0.951 . S
C366 C367 1.386 . S
C366 C368 1.383 . S
C366 H382 0.951 . S
C367 C366 1.386 . S
C367 C371 1.399 1_554 S
C368 C366 1.383 . S
C368 C369 1.402 1_554 S
C368 H383 0.951 . S
C369 C368 1.402 1_556 S
C369 C370 1.375 . S
C369 C372 1.481 . S
C370 C369 1.375 . S
C370 C371 1.373 . S
C370 H384 0.951 . S
C371 C367 1.399 1_556 S
C371 C370 1.373 . S
C371 H385 0.928 1_565 S
C372 C369 1.481 . S
C372 C373 1.297 . S
C372 H386 0.950 . S
C373 C372 1.297 . S
C373 C374 1.479 . S
C373 H387 0.950 . S
C374 C373 1.479 . S
C374 C375 1.375 . S
C374 C380 1.404 . S
C375 C374 1.375 . S
C375 C376 1.369 . S
C375 H388 0.950 . S
C376 C375 1.369 . S
C376 C377 1.392 . S
C376 H389 0.951 . S
C377 C376 1.392 . S
C377 C379 1.384 . S
H378 C380 0.949 . S
C379 C377 1.384 . S
C379 C380 1.385 . S
C379 H381 0.950 . S
C380 C374 1.404 . S
C380 H378 0.949 . S
C380 C379 1.385 . S
H381 C379 0.950 . S
H382 C366 0.951 . S
H383 C368 0.951 . S
H384 C370 0.951 . S
H385 C371 0.928 1_545 S
H386 C372 0.950 . S
H387 C373 0.950 . S
H388 C375 0.950 . S
H389 C376 0.951 . S
C390 C391 1.386 . S
C390 C392 1.383 . S
C390 H406 0.951 1_565 S
C391 C390 1.386 . S
C391 C395 1.383 1_455 S
C392 C390 1.383 . S
C392 C393 1.402 . S
C392 H407 0.951 . S
C393 C392 1.402 . S
C393 C394 1.375 1_455 S
C393 C396 1.481 1_455 S
C394 C393 1.375 1_655 S
C394 C395 1.367 . S
C394 H408 0.951 . S
C395 C391 1.383 1_655 S
C395 C394 1.367 . S
C395 H409 0.950 . S
C396 C393 1.481 1_655 S
C396 C397 1.297 1_655 S
C396 H410 0.950 . S
C397 C396 1.297 1_455 S
C397 C398 1.479 . S
C397 H411 0.950 . S
C398 C397 1.479 . S
C398 C399 1.375 . S
C398 C404 1.404 1_455 S
C399 C398 1.375 . S
C399 C400 1.369 . S
C399 H412 0.950 . S
C400 C399 1.369 . S
C400 C401 1.392 . S
C400 H413 0.951 . S
C401 C400 1.392 . S
C401 C403 1.384 1_455 S
H402 C404 0.949 . S
C403 C401 1.384 1_655 S
C403 C404 1.385 . S
C403 H405 0.950 . S
C404 C398 1.404 1_655 S
C404 H402 0.949 . S
C404 C403 1.385 . S
H405 C403 0.950 . S
H406 C390 0.951 1_545 S
H407 C392 0.951 . S
H408 C394 0.951 . S
H409 C395 0.950 . S
H410 C396 0.950 . S
H411 C397 0.950 . S
H412 C399 0.950 . S
H413 C400 0.951 . S
C414 C415 1.386 . S
C414 C416 1.383 . S
C414 H430 0.951 . S
C415 C414 1.386 . S
C415 C419 1.383 1_545 S
C416 C414 1.383 . S
C416 C417 1.402 . S
C416 H431 0.951 . S
C417 C416 1.402 . S
C417 C418 1.375 1_545 S
C417 C420 1.481 . S
C418 C417 1.375 1_565 S
C418 C419 1.367 . S
C418 H432 0.951 . S
C419 C415 1.383 1_565 S
C419 C418 1.367 . S
C419 H433 0.950 . S
C420 C417 1.481 . S
C420 C421 1.297 . S
C420 H434 0.950 1_545 S
C421 C420 1.297 . S
C421 C422 1.479 . S
C421 H435 0.950 . S
C422 C421 1.479 . S
C422 C423 1.375 . S
C422 C428 1.404 . S
C423 C422 1.375 . S
C423 C424 1.369 . S
C423 H436 0.950 . S
C424 C423 1.369 . S
C424 C425 1.392 . S
C424 H437 0.951 . S
C425 C424 1.392 . S
C425 C427 1.384 . S
H426 C428 0.949 1_565 S
C427 C425 1.384 . S
C427 C428 1.385 . S
C427 H429 0.950 1_545 S
C428 C422 1.404 . S
C428 H426 0.949 1_545 S
C428 C427 1.385 . S
H429 C427 0.950 1_565 S
H430 C414 0.951 . S
H431 C416 0.951 . S
H432 C418 0.951 . S
H433 C419 0.950 . S
H434 C420 0.950 1_565 S
H435 C421 0.950 . S
H436 C423 0.950 . S
H437 C424 0.951 . S
C438 C439 1.386 . S
C438 C440 1.383 1_554 S
C438 H454 0.951 . S
C439 C438 1.386 . S
C439 C443 1.383 1_554 S
C440 C438 1.383 1_556 S
C440 C441 1.402 . S
C440 H455 0.951 . S
C441 C440 1.402 . S
C441 C442 1.375 . S
C441 C444 1.481 . S
C442 C441 1.375 . S
C442 C443 1.367 . S
C442 H456 0.951 . S
C443 C439 1.383 1_556 S
C443 C442 1.367 . S
C443 H457 0.950 . S
C444 C441 1.481 . S
C444 C445 1.297 . S
C444 H458 0.950 . S
C445 C444 1.297 . S
C445 C446 1.479 . S
C445 H459 0.950 . S
C446 C445 1.479 . S
C446 C447 1.375 . S
C446 C452 1.404 . S
C447 C446 1.375 . S
C447 C448 1.369 . S
C447 H460 0.950 . S
C448 C447 1.369 . S
C448 C449 1.392 . S
C448 H461 0.951 . S
C449 C448 1.392 . S
C449 C451 1.384 . S
H450 C452 0.949 . S
C451 C449 1.384 . S
C451 C452 1.385 . S
C451 H453 0.950 . S
C452 C446 1.404 . S
C452 H450 0.949 . S
C452 C451 1.385 . S
H453 C451 0.950 . S
H454 C438 0.951 . S
H455 C440 0.951 . S
H456 C442 0.951 . S
H457 C443 0.950 . S
H458 C444 0.950 . S
H459 C445 0.950 . S
H460 C447 0.950 . S
H461 C448 0.951 . S
C462 C463 1.386 . S
C462 C464 1.383 . S
C462 H478 0.951 . S
C463 C462 1.386 . S
C463 C467 1.383 . S
C464 C462 1.383 . S
C464 C465 1.402 . S
C464 H479 0.951 1_455 S
C465 C464 1.402 . S
C465 C466 1.375 . S
C465 C468 1.481 . S
C466 C465 1.375 . S
C466 C467 1.367 . S
C466 H480 0.951 . S
C467 C463 1.383 . S
C467 C466 1.367 . S
C467 H481 0.950 . S
C468 C465 1.481 . S
C468 C469 1.297 . S
C468 H482 0.950 . S
C469 C468 1.297 . S
C469 C470 1.479 . S
C469 H483 0.950 1_455 S
C470 C469 1.479 . S
C470 C471 1.375 1_455 S
C470 C476 1.404 . S
C471 C470 1.375 1_655 S
C471 C472 1.369 . S
C471 H484 0.950 . S
C472 C471 1.369 . S
C472 C473 1.392 1_655 S
C472 H485 0.951 . S
C473 C472 1.392 1_455 S
C473 C475 1.384 . S
H474 C476 0.949 . S
C475 C473 1.384 . S
C475 C476 1.385 . S
C475 H477 0.950 . S
C476 C470 1.404 . S
C476 H474 0.949 . S
C476 C475 1.385 . S
H477 C475 0.950 . S
H478 C462 0.951 . S
H479 C464 0.951 1_655 S
H480 C466 0.951 . S
H481 C467 0.950 . S
H482 C468 0.950 . S
H483 C469 0.950 1_655 S
H484 C471 0.950 . S
H485 C472 0.951 . S
C209 C61 1.402 . S
C199 C10 1.405 . S
C223 C21 1.424 . S
C233 C131 1.430 . S
C247 C31 1.337 . S
C257 C183 1.440 . S
C271 C0 1.346 . S
C281 C77 1.418 . S
C305 C121 1.412 . S
C295 C18 1.398 . S
C319 C34 1.411 . S
C329 C167 1.398 . S
C353 C114 1.369 . S
C343 C36 1.377 . S
C367 C8 1.392 1_565 S
C377 C174 1.406 . S
C401 C68 1.390 . S
C391 C23 1.396 1_565 S
C425 C130 1.340 . S
C415 C26 1.333 . S
C449 C184 1.411 . S
C439 C5 1.399 . S
C463 C13 1.400 . S
C473 C78 1.411 . S
