# Generated by pormake.
# Topology ibd, (4,6)-cn, num edge types: 1
# Building blocks:
#     Node 0, Type 0, BuildingBlock: KUFVIS_clean_sbu_0, # of connection points: 4
#     Node 1, Type 0, BuildingBlock: KUFVIS_clean_sbu_0, # of connection points: 4
#     Node 2, Type 0, BuildingBlock: KUFVIS_clean_sbu_0, # of connection points: 4
#     Node 3, Type 0, BuildingBlock: KUFVIS_clean_sbu_0, # of connection points: 4
#     Node 4, Type 0, BuildingBlock: KUFVIS_clean_sbu_0, # of connection points: 4
#     Node 5, Type 0, BuildingBlock: KUFVIS_clean_sbu_0, # of connection points: 4
#     Node 6, Type 0, BuildingBlock: KUFVIS_clean_sbu_0, # of connection points: 4
#     Node 7, Type 0, BuildingBlock: KUFVIS_clean_sbu_0, # of connection points: 4
#     Node 8, Type 0, BuildingBlock: KUFVIS_clean_sbu_0, # of connection points: 4
#     Node 9, Type 0, BuildingBlock: KUFVIS_clean_sbu_0, # of connection points: 4
#     Node 10, Type 0, BuildingBlock: KUFVIS_clean_sbu_0, # of connection points: 4
#     Node 11, Type 0, BuildingBlock: KUFVIS_clean_sbu_0, # of connection points: 4
#     Node 12, Type 0, BuildingBlock: KUFVIS_clean_sbu_0, # of connection points: 4
#     Node 13, Type 0, BuildingBlock: KUFVIS_clean_sbu_0, # of connection points: 4
#     Node 14, Type 0, BuildingBlock: KUFVIS_clean_sbu_0, # of connection points: 4
#     Node 15, Type 0, BuildingBlock: KUFVIS_clean_sbu_0, # of connection points: 4
#     Node 16, Type 0, BuildingBlock: KUFVIS_clean_sbu_0, # of connection points: 4
#     Node 17, Type 0, BuildingBlock: KUFVIS_clean_sbu_0, # of connection points: 4
#     Node 18, Type 0, BuildingBlock: KUFVIS_clean_sbu_0, # of connection points: 4
#     Node 19, Type 0, BuildingBlock: KUFVIS_clean_sbu_0, # of connection points: 4
#     Node 20, Type 0, BuildingBlock: KUFVIS_clean_sbu_0, # of connection points: 4
#     Node 21, Type 0, BuildingBlock: KUFVIS_clean_sbu_0, # of connection points: 4
#     Node 22, Type 0, BuildingBlock: KUFVIS_clean_sbu_0, # of connection points: 4
#     Node 23, Type 0, BuildingBlock: KUFVIS_clean_sbu_0, # of connection points: 4
#     Node 24, Type 1, BuildingBlock: CIFDUS_clean_sbu_1, # of connection points: 6
#     Node 25, Type 1, BuildingBlock: CIFDUS_clean_sbu_1, # of connection points: 6
#     Node 26, Type 1, BuildingBlock: CIFDUS_clean_sbu_1, # of connection points: 6
#     Node 27, Type 1, BuildingBlock: CIFDUS_clean_sbu_1, # of connection points: 6
#     Node 28, Type 1, BuildingBlock: CIFDUS_clean_sbu_1, # of connection points: 6
#     Node 29, Type 1, BuildingBlock: CIFDUS_clean_sbu_1, # of connection points: 6
#     Node 30, Type 1, BuildingBlock: CIFDUS_clean_sbu_1, # of connection points: 6
#     Node 31, Type 1, BuildingBlock: CIFDUS_clean_sbu_1, # of connection points: 6
#     Node 32, Type 1, BuildingBlock: CIFDUS_clean_sbu_1, # of connection points: 6
#     Node 33, Type 1, BuildingBlock: CIFDUS_clean_sbu_1, # of connection points: 6
#     Node 34, Type 1, BuildingBlock: CIFDUS_clean_sbu_1, # of connection points: 6
#     Node 35, Type 1, BuildingBlock: CIFDUS_clean_sbu_1, # of connection points: 6
#     Node 36, Type 1, BuildingBlock: CIFDUS_clean_sbu_1, # of connection points: 6
#     Node 37, Type 1, BuildingBlock: CIFDUS_clean_sbu_1, # of connection points: 6
#     Node 38, Type 1, BuildingBlock: CIFDUS_clean_sbu_1, # of connection points: 6
#     Node 39, Type 1, BuildingBlock: CIFDUS_clean_sbu_1, # of connection points: 6
#     Edge 40, Type (0, 1), BuildingBlock: UVAHIK_clean_linker_0, # of connection points: 2
#     Edge 41, Type (0, 1), BuildingBlock: UVAHIK_clean_linker_0, # of connection points: 2
#     Edge 42, Type (0, 1), BuildingBlock: UVAHIK_clean_linker_0, # of connection points: 2
#     Edge 43, Type (0, 1), BuildingBlock: UVAHIK_clean_linker_0, # of connection points: 2
#     Edge 44, Type (0, 1), BuildingBlock: UVAHIK_clean_linker_0, # of connection points: 2
#     Edge 45, Type (0, 1), BuildingBlock: UVAHIK_clean_linker_0, # of connection points: 2
#     Edge 46, Type (0, 1), BuildingBlock: UVAHIK_clean_linker_0, # of connection points: 2
#     Edge 47, Type (0, 1), BuildingBlock: UVAHIK_clean_linker_0, # of connection points: 2
#     Edge 48, Type (0, 1), BuildingBlock: UVAHIK_clean_linker_0, # of connection points: 2
#     Edge 49, Type (0, 1), BuildingBlock: UVAHIK_clean_linker_0, # of connection points: 2
#     Edge 50, Type (0, 1), BuildingBlock: UVAHIK_clean_linker_0, # of connection points: 2
#     Edge 51, Type (0, 1), BuildingBlock: UVAHIK_clean_linker_0, # of connection points: 2
#     Edge 52, Type (0, 1), BuildingBlock: UVAHIK_clean_linker_0, # of connection points: 2
#     Edge 53, Type (0, 1), BuildingBlock: UVAHIK_clean_linker_0, # of connection points: 2
#     Edge 54, Type (0, 1), BuildingBlock: UVAHIK_clean_linker_0, # of connection points: 2
#     Edge 55, Type (0, 1), BuildingBlock: UVAHIK_clean_linker_0, # of connection points: 2
#     Edge 56, Type (0, 1), BuildingBlock: UVAHIK_clean_linker_0, # of connection points: 2
#     Edge 57, Type (0, 1), BuildingBlock: UVAHIK_clean_linker_0, # of connection points: 2
#     Edge 58, Type (0, 1), BuildingBlock: UVAHIK_clean_linker_0, # of connection points: 2
#     Edge 59, Type (0, 1), BuildingBlock: UVAHIK_clean_linker_0, # of connection points: 2
#     Edge 60, Type (0, 1), BuildingBlock: UVAHIK_clean_linker_0, # of connection points: 2
#     Edge 61, Type (0, 1), BuildingBlock: UVAHIK_clean_linker_0, # of connection points: 2
#     Edge 62, Type (0, 1), BuildingBlock: UVAHIK_clean_linker_0, # of connection points: 2
#     Edge 63, Type (0, 1), BuildingBlock: UVAHIK_clean_linker_0, # of connection points: 2
#     Edge 64, Type (0, 1), BuildingBlock: UVAHIK_clean_linker_0, # of connection points: 2
#     Edge 65, Type (0, 1), BuildingBlock: UVAHIK_clean_linker_0, # of connection points: 2
#     Edge 66, Type (0, 1), BuildingBlock: UVAHIK_clean_linker_0, # of connection points: 2
#     Edge 67, Type (0, 1), BuildingBlock: UVAHIK_clean_linker_0, # of connection points: 2
#     Edge 68, Type (0, 1), BuildingBlock: UVAHIK_clean_linker_0, # of connection points: 2
#     Edge 69, Type (0, 1), BuildingBlock: UVAHIK_clean_linker_0, # of connection points: 2
#     Edge 70, Type (0, 1), BuildingBlock: UVAHIK_clean_linker_0, # of connection points: 2
#     Edge 71, Type (0, 1), BuildingBlock: UVAHIK_clean_linker_0, # of connection points: 2
#     Edge 72, Type (0, 1), BuildingBlock: UVAHIK_clean_linker_0, # of connection points: 2
#     Edge 73, Type (0, 1), BuildingBlock: UVAHIK_clean_linker_0, # of connection points: 2
#     Edge 74, Type (0, 1), BuildingBlock: UVAHIK_clean_linker_0, # of connection points: 2
#     Edge 75, Type (0, 1), BuildingBlock: UVAHIK_clean_linker_0, # of connection points: 2
#     Edge 76, Type (0, 1), BuildingBlock: UVAHIK_clean_linker_0, # of connection points: 2
#     Edge 77, Type (0, 1), BuildingBlock: UVAHIK_clean_linker_0, # of connection points: 2
#     Edge 78, Type (0, 1), BuildingBlock: UVAHIK_clean_linker_0, # of connection points: 2
#     Edge 79, Type (0, 1), BuildingBlock: UVAHIK_clean_linker_0, # of connection points: 2
#     Edge 80, Type (0, 1), BuildingBlock: UVAHIK_clean_linker_0, # of connection points: 2
#     Edge 81, Type (0, 1), BuildingBlock: UVAHIK_clean_linker_0, # of connection points: 2
#     Edge 82, Type (0, 1), BuildingBlock: UVAHIK_clean_linker_0, # of connection points: 2
#     Edge 83, Type (0, 1), BuildingBlock: UVAHIK_clean_linker_0, # of connection points: 2
#     Edge 84, Type (0, 1), BuildingBlock: UVAHIK_clean_linker_0, # of connection points: 2
#     Edge 85, Type (0, 1), BuildingBlock: UVAHIK_clean_linker_0, # of connection points: 2
#     Edge 86, Type (0, 1), BuildingBlock: UVAHIK_clean_linker_0, # of connection points: 2
#     Edge 87, Type (0, 1), BuildingBlock: UVAHIK_clean_linker_0, # of connection points: 2
#     Edge 88, Type (0, 1), BuildingBlock: UVAHIK_clean_linker_0, # of connection points: 2
#     Edge 89, Type (0, 1), BuildingBlock: UVAHIK_clean_linker_0, # of connection points: 2
#     Edge 90, Type (0, 1), BuildingBlock: UVAHIK_clean_linker_0, # of connection points: 2
#     Edge 91, Type (0, 1), BuildingBlock: UVAHIK_clean_linker_0, # of connection points: 2
#     Edge 92, Type (0, 1), BuildingBlock: UVAHIK_clean_linker_0, # of connection points: 2
#     Edge 93, Type (0, 1), BuildingBlock: UVAHIK_clean_linker_0, # of connection points: 2
#     Edge 94, Type (0, 1), BuildingBlock: UVAHIK_clean_linker_0, # of connection points: 2
#     Edge 95, Type (0, 1), BuildingBlock: UVAHIK_clean_linker_0, # of connection points: 2
#     Edge 96, Type (0, 1), BuildingBlock: UVAHIK_clean_linker_0, # of connection points: 2
#     Edge 97, Type (0, 1), BuildingBlock: UVAHIK_clean_linker_0, # of connection points: 2
#     Edge 98, Type (0, 1), BuildingBlock: UVAHIK_clean_linker_0, # of connection points: 2
#     Edge 99, Type (0, 1), BuildingBlock: UVAHIK_clean_linker_0, # of connection points: 2
#     Edge 100, Type (0, 1), BuildingBlock: UVAHIK_clean_linker_0, # of connection points: 2
#     Edge 101, Type (0, 1), BuildingBlock: UVAHIK_clean_linker_0, # of connection points: 2
#     Edge 102, Type (0, 1), BuildingBlock: UVAHIK_clean_linker_0, # of connection points: 2
#     Edge 103, Type (0, 1), BuildingBlock: UVAHIK_clean_linker_0, # of connection points: 2
#     Edge 104, Type (0, 1), BuildingBlock: UVAHIK_clean_linker_0, # of connection points: 2
#     Edge 105, Type (0, 1), BuildingBlock: UVAHIK_clean_linker_0, # of connection points: 2
#     Edge 106, Type (0, 1), BuildingBlock: UVAHIK_clean_linker_0, # of connection points: 2
#     Edge 107, Type (0, 1), BuildingBlock: UVAHIK_clean_linker_0, # of connection points: 2
#     Edge 108, Type (0, 1), BuildingBlock: UVAHIK_clean_linker_0, # of connection points: 2
#     Edge 109, Type (0, 1), BuildingBlock: UVAHIK_clean_linker_0, # of connection points: 2
#     Edge 110, Type (0, 1), BuildingBlock: UVAHIK_clean_linker_0, # of connection points: 2
#     Edge 111, Type (0, 1), BuildingBlock: UVAHIK_clean_linker_0, # of connection points: 2
#     Edge 112, Type (0, 1), BuildingBlock: UVAHIK_clean_linker_0, # of connection points: 2
#     Edge 113, Type (0, 1), BuildingBlock: UVAHIK_clean_linker_0, # of connection points: 2
#     Edge 114, Type (0, 1), BuildingBlock: UVAHIK_clean_linker_0, # of connection points: 2
#     Edge 115, Type (0, 1), BuildingBlock: UVAHIK_clean_linker_0, # of connection points: 2
#     Edge 116, Type (0, 1), BuildingBlock: UVAHIK_clean_linker_0, # of connection points: 2
#     Edge 117, Type (0, 1), BuildingBlock: UVAHIK_clean_linker_0, # of connection points: 2
#     Edge 118, Type (0, 1), BuildingBlock: UVAHIK_clean_linker_0, # of connection points: 2
#     Edge 119, Type (0, 1), BuildingBlock: UVAHIK_clean_linker_0, # of connection points: 2
#     Edge 120, Type (0, 1), BuildingBlock: UVAHIK_clean_linker_0, # of connection points: 2
#     Edge 121, Type (0, 1), BuildingBlock: UVAHIK_clean_linker_0, # of connection points: 2
#     Edge 122, Type (0, 1), BuildingBlock: UVAHIK_clean_linker_0, # of connection points: 2
#     Edge 123, Type (0, 1), BuildingBlock: UVAHIK_clean_linker_0, # of connection points: 2
#     Edge 124, Type (0, 1), BuildingBlock: UVAHIK_clean_linker_0, # of connection points: 2
#     Edge 125, Type (0, 1), BuildingBlock: UVAHIK_clean_linker_0, # of connection points: 2
#     Edge 126, Type (0, 1), BuildingBlock: UVAHIK_clean_linker_0, # of connection points: 2
#     Edge 127, Type (0, 1), BuildingBlock: UVAHIK_clean_linker_0, # of connection points: 2
#     Edge 128, Type (0, 1), BuildingBlock: UVAHIK_clean_linker_0, # of connection points: 2
#     Edge 129, Type (0, 1), BuildingBlock: UVAHIK_clean_linker_0, # of connection points: 2
#     Edge 130, Type (0, 1), BuildingBlock: UVAHIK_clean_linker_0, # of connection points: 2
#     Edge 131, Type (0, 1), BuildingBlock: UVAHIK_clean_linker_0, # of connection points: 2
#     Edge 132, Type (0, 1), BuildingBlock: UVAHIK_clean_linker_0, # of connection points: 2
#     Edge 133, Type (0, 1), BuildingBlock: UVAHIK_clean_linker_0, # of connection points: 2
#     Edge 134, Type (0, 1), BuildingBlock: UVAHIK_clean_linker_0, # of connection points: 2
#     Edge 135, Type (0, 1), BuildingBlock: UVAHIK_clean_linker_0, # of connection points: 2
# Relax obj value: 0.350
# Max RMSD: 0.307
# Mean RMSD: 0.278
data_MOF--net-ibd--node1-KUFVIS_clean_sbu_0--node2-CIFDUS_clean_sbu_1--edge1-UVAHIK_clean_linker_0
_symmetry_space_group_name_H-M    P1
_symmetry_Int_Tables_number       1
_symmetry_cell_setting            triclinic
loop_
_symmetry_equiv_pos_as_xyz
'x, y, z'
_cell_length_a     59.591815
_cell_length_b     61.272922
_cell_length_c     62.075929
_cell_angle_alpha  91.76724
_cell_angle_beta   90.340354
_cell_angle_gamma 94.392101
loop_
_atom_site_label
_atom_site_type_symbol
_atom_site_fract_x
_atom_site_fract_y
_atom_site_fract_z
_atom_type_partial_charge
Mn0 Mn 0.01911 0.33477 0.38011 0.0
Mn1 Mn 0.07063 0.35483 0.36512 0.0
C2 C 0.05075 0.32617 0.3987 0.0
C3 C 0.98752 0.3353 0.4021 0.0
C4 C 0.0445 0.31748 0.34109 0.0
O5 O 0.01169 0.36003 0.36132 0.0
O6 O 0.04702 0.37117 0.35133 0.0
C7 C 0.07081 0.39836 0.38715 0.0
N8 N 0.08022 0.37895 0.38407 0.0
C9 C 0.10931 0.38938 0.41027 0.0
C10 C 0.10002 0.40954 0.41362 0.0
C11 C 0.08069 0.41404 0.402 0.0
C12 C 0.09892 0.37452 0.39503 0.0
H13 H 0.05585 0.40181 0.37837 0.0
C14 C 0.02559 0.37212 0.35037 0.0
O15 O 0.98689 0.32417 0.3839 0.0
O16 O 0.00565 0.34783 0.40623 0.0
N17 N 0.09475 0.34036 0.37742 0.0
C18 C 0.1006 0.31957 0.37341 0.0
C19 C 0.11907 0.31211 0.38438 0.0
C20 C 0.13133 0.32609 0.39931 0.0
C21 C 0.12504 0.34746 0.40308 0.0
C22 C 0.10662 0.35406 0.39151 0.0
H23 H 0.09108 0.30872 0.36209 0.0
O24 O 0.03253 0.31322 0.39875 0.0
O25 O 0.05007 0.34352 0.38721 0.0
O26 O 0.027 0.31732 0.35284 0.0
O27 O 0.06226 0.3301 0.34488 0.0
C28 C 0.13597 0.36228 0.41826 0.0
C29 C 0.12813 0.38323 0.42183 0.0
H30 H 0.10745 0.42159 0.42523 0.0
H31 H 0.07335 0.42952 0.40459 0.0
H32 H 0.12376 0.29557 0.38144 0.0
H33 H 0.14541 0.3202 0.40791 0.0
H34 H 0.15023 0.35762 0.42749 0.0
H35 H 0.13649 0.39437 0.43375 0.0
Mn36 Mn 0.00975 0.78412 0.66347 0.0
Mn37 Mn 0.95641 0.77771 0.68078 0.0
C38 C 0.98228 0.7658 0.64192 0.0
C39 C 0.03721 0.80445 0.64462 0.0
C40 C 0.99423 0.7522 0.69788 0.0
O41 O 0.00941 0.80625 0.68869 0.0
O42 O 0.97219 0.8035 0.69619 0.0
C43 C 0.93905 0.81784 0.66385 0.0
N44 N 0.93798 0.79559 0.66461 0.0
C45 C 0.90746 0.79191 0.63888 0.0
C46 C 0.9081 0.81479 0.63797 0.0
C47 C 0.92397 0.8278 0.65051 0.0
C48 C 0.92272 0.78292 0.65267 0.0
H49 H 0.95142 0.82788 0.67325 0.0
C50 C 0.99231 0.81225 0.69905 0.0
O51 O 0.04276 0.79017 0.65836 0.0
O52 O 0.01608 0.80771 0.64289 0.0
N53 N 0.93975 0.75339 0.66658 0.0
C54 C 0.94233 0.73161 0.66825 0.0
C55 C 0.92822 0.71633 0.65619 0.0
C56 C 0.91165 0.72362 0.64253 0.0
C57 C 0.90927 0.74612 0.64113 0.0
C58 C 0.92363 0.76056 0.65375 0.0
H59 H 0.95518 0.72594 0.67857 0.0
O60 O 0.0033 0.76276 0.63885 0.0
O61 O 0.97814 0.77941 0.65756 0.0
O62 O 0.00924 0.75935 0.68472 0.0
O63 O 0.9742 0.75839 0.69815 0.0
C64 C 0.89357 0.7548 0.62736 0.0
C65 C 0.89265 0.77768 0.62624 0.0
H66 H 0.89665 0.82253 0.62753 0.0
H67 H 0.92469 0.84546 0.64977 0.0
H68 H 0.93021 0.699 0.6573 0.0
H69 H 0.90098 0.7118 0.63306 0.0
H70 H 0.88231 0.74404 0.61735 0.0
H71 H 0.8807 0.78417 0.61538 0.0
Mn72 Mn 0.51652 0.82238 0.87954 0.0
Mn73 Mn 0.56914 0.84095 0.86652 0.0
C74 C 0.54698 0.81258 0.89926 0.0
C75 C 0.4842 0.82363 0.90041 0.0
C76 C 0.5425 0.80488 0.84105 0.0
O77 O 0.51081 0.84824 0.86085 0.0
O78 O 0.54685 0.85868 0.85249 0.0
C79 C 0.57065 0.88413 0.88938 0.0
N80 N 0.57917 0.8643 0.8862 0.0
C81 C 0.6077 0.87288 0.9134 0.0
C82 C 0.59931 0.89346 0.91687 0.0
C83 C 0.58071 0.8991 0.9048 0.0
C84 C 0.59719 0.85877 0.89759 0.0
H85 H 0.55624 0.88845 0.88025 0.0
C86 C 0.52555 0.86031 0.85082 0.0
O87 O 0.48393 0.81268 0.88212 0.0
O88 O 0.50249 0.83564 0.90525 0.0
N89 N 0.59198 0.82507 0.87922 0.0
C90 C 0.59684 0.80399 0.87507 0.0
C91 C 0.6144 0.79541 0.88647 0.0
C92 C 0.62677 0.80857 0.90199 0.0
C93 C 0.62148 0.83024 0.90594 0.0
C94 C 0.60394 0.83796 0.89393 0.0
H95 H 0.58721 0.79377 0.86331 0.0
O96 O 0.52839 0.80015 0.89842 0.0
O97 O 0.54739 0.83006 0.88783 0.0
O98 O 0.52476 0.80492 0.85243 0.0
O99 O 0.56045 0.817 0.84542 0.0
C100 C 0.63254 0.84429 0.92169 0.0
C101 C 0.62568 0.8656 0.9254 0.0
H102 H 0.60687 0.90496 0.92892 0.0
H103 H 0.57407 0.9149 0.90747 0.0
H104 H 0.61831 0.77864 0.88341 0.0
H105 H 0.64015 0.80181 0.91091 0.0
H106 H 0.64614 0.83875 0.93126 0.0
H107 H 0.6341 0.87614 0.93776 0.0
Mn108 Mn 0.50011 0.28346 0.16062 0.0
Mn109 Mn 0.44959 0.26269 0.17732 0.0
C110 C 0.47833 0.25877 0.13909 0.0
C111 C 0.52158 0.30904 0.14083 0.0
C112 C 0.49332 0.24729 0.19365 0.0
O113 O 0.49381 0.30471 0.18528 0.0
O114 O 0.46027 0.28885 0.19549 0.0
C115 C 0.4236 0.29965 0.16484 0.0
N116 N 0.42726 0.278 0.16313 0.0
C117 C 0.39762 0.27133 0.13671 0.0
C118 C 0.39344 0.29354 0.1383 0.0
C119 C 0.40649 0.30775 0.15243 0.0
C120 C 0.41476 0.26417 0.14964 0.0
H121 H 0.43375 0.31067 0.17553 0.0
C122 C 0.47686 0.30343 0.19782 0.0
O123 O 0.53097 0.29771 0.15529 0.0
O124 O 0.49987 0.30666 0.13929 0.0
N125 N 0.43764 0.2375 0.16084 0.0
C126 C 0.44432 0.21673 0.16074 0.0
C127 C 0.43319 0.20052 0.14721 0.0
C128 C 0.41533 0.20585 0.13396 0.0
C129 C 0.40864 0.22731 0.1345 0.0
C130 C 0.42017 0.24269 0.14851 0.0
H131 H 0.45817 0.21262 0.17075 0.0
O132 O 0.49992 0.26113 0.13662 0.0
O133 O 0.47025 0.27075 0.15434 0.0
O134 O 0.50615 0.26045 0.18278 0.0
O135 O 0.47183 0.24599 0.1922 0.0
C136 C 0.3912 0.23411 0.12147 0.0
C137 C 0.3857 0.25611 0.12256 0.0
H138 H 0.38036 0.29988 0.12863 0.0
H139 H 0.40344 0.32493 0.15366 0.0
H140 H 0.43846 0.18401 0.14686 0.0
H141 H 0.40696 0.19337 0.12336 0.0
H142 H 0.38204 0.2226 0.11041 0.0
H143 H 0.37239 0.26119 0.11233 0.0
Mn144 Mn 0.00754 0.78119 0.13381 0.0
Mn145 Mn 0.03743 0.82733 0.11994 0.0
C146 C 0.03543 0.79709 0.15638 0.0
C147 C 0.9776 0.76421 0.15242 0.0
C148 C 0.04538 0.7827 0.10051 0.0
O149 O 0.98805 0.7921 0.10996 0.0
O150 O 0.00942 0.82286 0.10222 0.0
C151 C 0.00576 0.85907 0.1356 0.0
N152 N 0.02657 0.85132 0.13613 0.0
C153 C 0.03914 0.87803 0.16369 0.0
C154 C 0.01789 0.88639 0.16333 0.0
C155 C 0.00114 0.87687 0.14922 0.0
C156 C 0.04286 0.86044 0.14956 0.0
H157 H 0.99277 0.85165 0.12493 0.0
C158 C 0.99211 0.80928 0.09905 0.0
O159 O 0.98775 0.75359 0.13736 0.0
O160 O 0.98375 0.78479 0.15533 0.0
N161 N 0.06473 0.8333 0.13618 0.0
C162 C 0.08387 0.82249 0.13539 0.0
C163 C 0.10208 0.82955 0.14899 0.0
C164 C 0.10041 0.84762 0.16323 0.0
C165 C 0.08058 0.85855 0.16366 0.0
C166 C 0.06309 0.85093 0.14955 0.0
H167 H 0.08512 0.80846 0.12463 0.0
O168 O 0.0291 0.77648 0.15751 0.0
O169 O 0.02537 0.8077 0.14182 0.0
O170 O 0.03023 0.7719 0.1112 0.0
O171 O 0.0498 0.80339 0.10283 0.0
C172 C 0.07731 0.8764 0.17784 0.0
C173 C 0.05661 0.88615 0.17785 0.0
H174 H 0.01418 0.89998 0.17396 0.0
H175 H 0.98465 0.88314 0.14893 0.0
H176 H 0.1173 0.82099 0.14862 0.0
H177 H 0.1144 0.85285 0.17387 0.0
H178 H 0.09051 0.8826 0.18899 0.0
H179 H 0.0542 0.8997 0.18901 0.0
Mn180 Mn 0.51246 0.79 0.38753 0.0
Mn181 Mn 0.48769 0.74166 0.40225 0.0
C182 C 0.51202 0.75979 0.36435 0.0
C183 C 0.51061 0.82274 0.36964 0.0
C184 C 0.53311 0.76008 0.41956 0.0
O185 O 0.49323 0.79888 0.41267 0.0
O186 O 0.47726 0.76569 0.4213 0.0
C187 C 0.44079 0.74857 0.38992 0.0
N188 N 0.45917 0.73678 0.38797 0.0
C189 C 0.44022 0.71192 0.36183 0.0
C190 C 0.42102 0.72372 0.36366 0.0
C191 C 0.42132 0.74212 0.37777 0.0
C192 C 0.45902 0.71894 0.37458 0.0
H193 H 0.44103 0.76284 0.40061 0.0
C194 C 0.48059 0.78651 0.4245 0.0
O195 O 0.5263 0.82049 0.38389 0.0
O196 O 0.49534 0.80667 0.36712 0.0
N197 N 0.4964 0.71734 0.38501 0.0
C198 C 0.51681 0.70877 0.384 0.0
C199 C 0.51967 0.6908 0.36997 0.0
C200 C 0.50154 0.68184 0.35716 0.0
C201 C 0.48066 0.69089 0.35856 0.0
C202 C 0.47875 0.70865 0.373 0.0
H203 H 0.53085 0.71577 0.39366 0.0
O204 O 0.52733 0.77582 0.36269 0.0
O205 O 0.49774 0.76178 0.37993 0.0
O206 O 0.53418 0.77776 0.4091 0.0
O207 O 0.51692 0.74521 0.41747 0.0
C208 C 0.46185 0.68334 0.3458 0.0
C209 C 0.44163 0.69383 0.34746 0.0
H210 H 0.40606 0.71895 0.35414 0.0
H211 H 0.40662 0.75138 0.37918 0.0
H212 H 0.53586 0.68396 0.36891 0.0
H213 H 0.50388 0.66813 0.34618 0.0
H214 H 0.46284 0.66968 0.33444 0.0
H215 H 0.42738 0.68807 0.33735 0.0
Mn216 Mn 0.51816 0.28767 0.62777 0.0
Mn217 Mn 0.54002 0.33682 0.61253 0.0
C218 C 0.54369 0.30812 0.6499 0.0
C219 C 0.49037 0.26759 0.64657 0.0
C220 C 0.55349 0.29359 0.5929 0.0
O221 O 0.49708 0.29495 0.60341 0.0
O222 O 0.51046 0.32988 0.59765 0.0
C223 C 0.50689 0.36482 0.63225 0.0
N224 N 0.52851 0.3593 0.63038 0.0
C225 C 0.5412 0.38628 0.65766 0.0
C226 C 0.51912 0.39246 0.65964 0.0
C227 C 0.50189 0.38166 0.64689 0.0
C228 C 0.54523 0.36958 0.64258 0.0
H229 H 0.49354 0.35629 0.62279 0.0
C230 C 0.49621 0.31329 0.59425 0.0
O231 O 0.50229 0.25808 0.63206 0.0
O232 O 0.4937 0.28862 0.64899 0.0
N233 N 0.56834 0.345 0.6264 0.0
C234 C 0.58839 0.33603 0.62366 0.0
C235 C 0.60724 0.34445 0.63579 0.0
C236 C 0.60526 0.36193 0.65065 0.0
C237 C 0.58446 0.37091 0.65319 0.0
C238 C 0.56634 0.36205 0.64043 0.0
H239 H 0.58997 0.32245 0.61241 0.0
O240 O 0.54046 0.28713 0.6519 0.0
O241 O 0.53199 0.31622 0.63483 0.0
O242 O 0.54219 0.28113 0.60568 0.0
O243 O 0.55322 0.31447 0.59357 0.0
C244 C 0.58087 0.38796 0.66823 0.0
C245 C 0.55926 0.39564 0.67046 0.0
H246 H 0.51515 0.40526 0.67109 0.0
H247 H 0.48475 0.38616 0.64849 0.0
H248 H 0.62322 0.33737 0.6338 0.0
H249 H 0.61977 0.3682 0.66017 0.0
H250 H 0.59455 0.39508 0.67837 0.0
H251 H 0.55664 0.40854 0.6823 0.0
Mn252 Mn 0.01331 0.28462 0.88481 0.0
Mn253 Mn 0.98877 0.23634 0.89985 0.0
C254 C 0.01223 0.25454 0.86144 0.0
C255 C 0.01145 0.31755 0.86732 0.0
C256 C 0.03501 0.25399 0.91549 0.0
O257 O 0.99465 0.29357 0.91027 0.0
O258 O 0.97942 0.2604 0.91966 0.0
C259 C 0.94156 0.24419 0.88957 0.0
N260 N 0.95963 0.23212 0.88668 0.0
C261 C 0.93923 0.20796 0.86087 0.0
C262 C 0.92035 0.22005 0.86368 0.0
C263 C 0.92154 0.23824 0.87809 0.0
C264 C 0.95863 0.21449 0.87297 0.0
H265 H 0.94246 0.2583 0.90049 0.0
C266 C 0.98252 0.28128 0.92257 0.0
O267 O 0.02734 0.31502 0.88127 0.0
O268 O 0.99599 0.30163 0.86487 0.0
N269 N 0.9963 0.21203 0.88194 0.0
C270 C 0.01645 0.20306 0.88001 0.0
C271 C 0.01839 0.1852 0.8656 0.0
C272 C 0.99962 0.17674 0.85336 0.0
C273 C 0.97904 0.1862 0.85569 0.0
C274 C 0.97806 0.20384 0.87045 0.0
H275 H 0.03098 0.20966 0.88921 0.0
O276 O 0.02757 0.27053 0.85966 0.0
O277 O 0.9982 0.2565 0.87728 0.0
O278 O 0.03545 0.27204 0.9057 0.0
O279 O 0.01874 0.23916 0.91379 0.0
C280 C 0.95962 0.17915 0.84357 0.0
C281 C 0.93972 0.19001 0.84618 0.0
H282 H 0.90495 0.21565 0.8547 0.0
H283 H 0.90708 0.24773 0.88026 0.0
H284 H 0.03435 0.17805 0.86382 0.0
H285 H 0.00125 0.16311 0.8421 0.0
H286 H 0.95988 0.16559 0.83199 0.0
H287 H 0.92498 0.18461 0.83657 0.0
Mn288 Mn 0.38377 0.03336 0.25227 0.0
Mn289 Mn 0.37918 0.07548 0.2876 0.0
C290 C 0.41313 0.06003 0.25735 0.0
C291 C 0.3958 0.99886 0.24372 0.0
C292 C 0.35553 0.07196 0.24414 0.0
O293 O 0.35736 0.02229 0.27068 0.0
O294 O 0.35624 0.05121 0.29407 0.0
C295 C 0.39383 0.05429 0.32694 0.0
N296 N 0.3967 0.07069 0.31267 0.0
C297 C 0.42976 0.0863 0.33161 0.0
C298 C 0.42706 0.06965 0.34659 0.0
C299 C 0.40901 0.05359 0.34424 0.0
C300 C 0.41394 0.0863 0.31484 0.0
H301 H 0.38011 0.04179 0.32506 0.0
C302 C 0.34873 0.03219 0.28671 0.0
O303 O 0.3807 0.00732 0.23204 0.0
O304 O 0.40233 0.00963 0.26121 0.0
N305 N 0.40064 0.0997 0.2829 0.0
C306 C 0.40156 0.11388 0.26639 0.0
C307 C 0.41898 0.13065 0.26601 0.0
C308 C 0.43527 0.13264 0.28256 0.0
C309 C 0.4339 0.11791 0.29943 0.0
C310 C 0.41599 0.10171 0.29911 0.0
H311 H 0.38921 0.11226 0.25353 0.0
O312 O 0.4113 0.04856 0.23946 0.0
O313 O 0.39735 0.05586 0.27128 0.0
O314 O 0.36318 0.05395 0.23793 0.0
O315 O 0.36094 0.08178 0.26213 0.0
C316 C 0.44988 0.11837 0.31629 0.0
C317 C 0.4478 0.10258 0.33238 0.0
H318 H 0.43887 0.06892 0.35984 0.0
H319 H 0.4069 0.04062 0.35567 0.0
H320 H 0.41997 0.14191 0.25289 0.0
H321 H 0.44884 0.14542 0.28205 0.0
H322 H 0.46398 0.13064 0.3169 0.0
H323 H 0.46034 0.10295 0.34511 0.0
Mn324 Mn 0.26318 0.16042 0.54158 0.0
Mn325 Mn 0.25477 0.17309 0.48992 0.0
C326 C 0.24184 0.13632 0.51907 0.0
C327 C 0.28464 0.14414 0.56708 0.0
C328 C 0.23158 0.19409 0.5279 0.0
O329 O 0.28666 0.18589 0.53692 0.0
O330 O 0.28286 0.18938 0.50093 0.0
C331 C 0.29347 0.15329 0.4696 0.0
N332 N 0.27084 0.15471 0.47109 0.0
C333 C 0.26366 0.12709 0.44297 0.0
C334 C 0.28691 0.12546 0.44101 0.0
C335 C 0.30187 0.13861 0.4544 0.0
C336 C 0.25629 0.14217 0.45826 0.0
H337 H 0.305 0.16325 0.47998 0.0
C338 C 0.29263 0.19442 0.51909 0.0
O339 O 0.27091 0.1587 0.57284 0.0
O340 O 0.28681 0.14012 0.54663 0.0
N341 N 0.22813 0.15815 0.47758 0.0
C342 C 0.20621 0.16079 0.48239 0.0
C343 C 0.18907 0.1483 0.47094 0.0
C344 C 0.19464 0.13329 0.45463 0.0
C345 C 0.21732 0.13099 0.44985 0.0
C346 C 0.23366 0.14404 0.46165 0.0
H347 H 0.20184 0.17222 0.49498 0.0
O348 O 0.24012 0.13506 0.5398 0.0
O349 O 0.25625 0.15147 0.5122 0.0
O350 O 0.23858 0.18189 0.5424 0.0
O351 O 0.23728 0.19276 0.5081 0.0
C352 C 0.22435 0.11594 0.43414 0.0
C353 C 0.2475 0.11399 0.43071 0.0
H354 H 0.29345 0.11402 0.42944 0.0
H355 H 0.31983 0.13734 0.45308 0.0
H356 H 0.1716 0.15014 0.47475 0.0
H357 H 0.18137 0.12351 0.44601 0.0
H358 H 0.21209 0.10557 0.42483 0.0
H359 H 0.2527 0.10215 0.41879 0.0
Mn360 Mn 0.13174 0.05367 0.73861 0.0
Mn361 Mn 0.12459 0.08349 0.78417 0.0
C362 C 0.16158 0.07486 0.75388 0.0
C363 C 0.14227 0.02218 0.7209 0.0
C364 C 0.10862 0.09665 0.74047 0.0
O365 O 0.10241 0.03945 0.74998 0.0
O366 O 0.09931 0.06039 0.78027 0.0
C367 C 0.13073 0.04911 0.81567 0.0
N368 N 0.13707 0.06916 0.80785 0.0
C369 C 0.16662 0.07526 0.83444 0.0
C370 C 0.16031 0.05474 0.84287 0.0
C371 C 0.1423 0.04161 0.83343 0.0
C372 C 0.1543 0.08198 0.81688 0.0
H373 H 0.11701 0.0389 0.80836 0.0
C374 C 0.09204 0.04484 0.76707 0.0
O375 O 0.12997 0.0356 0.71125 0.0
O376 O 0.14677 0.02624 0.74114 0.0
N377 N 0.14806 0.10612 0.78967 0.0
C378 C 0.15298 0.12477 0.77868 0.0
C379 C 0.17114 0.13934 0.78552 0.0
C380 C 0.184 0.13461 0.80359 0.0
C381 C 0.17852 0.11538 0.81472 0.0
C382 C 0.1601 0.10158 0.80727 0.0
H383 H 0.14326 0.12837 0.76466 0.0
O384 O 0.1615 0.06956 0.73352 0.0
O385 O 0.14391 0.06792 0.76464 0.0
O386 O 0.11546 0.08026 0.72992 0.0
O387 O 0.11152 0.09969 0.76077 0.0
C388 C 0.19094 0.10911 0.83258 0.0
C389 C 0.18498 0.08907 0.84245 0.0
H390 H 0.16933 0.0488 0.85643 0.0
H391 H 0.13741 0.0257 0.83976 0.0
H392 H 0.17531 0.15411 0.7768 0.0
H393 H 0.19816 0.14576 0.80866 0.0
H394 H 0.20531 0.11942 0.83866 0.0
H395 H 0.19485 0.08429 0.85598 0.0
Mn396 Mn 0.26034 0.90819 0.01839 0.0
Mn397 Mn 0.21329 0.91703 0.99076 0.0
C398 C 0.22985 0.88267 0.01853 0.0
C399 C 0.29537 0.89398 0.02031 0.0
C400 C 0.22663 0.94058 0.0331 0.0
O401 O 0.27101 0.93212 0.99819 0.0
O402 O 0.23902 0.93609 0.97951 0.0
C403 C 0.22541 0.89893 0.94803 0.0
N404 N 0.21131 0.89876 0.96521 0.0
C405 C 0.18761 0.86895 0.94922 0.0
C406 C 0.2018 0.8689 0.93129 0.0
C407 C 0.22078 0.88395 0.9307 0.0
C408 C 0.1929 0.88446 0.96588 0.0
H409 H 0.24012 0.91035 0.94761 0.0
C410 C 0.25992 0.94122 0.98374 0.0
O411 O 0.28993 0.90947 0.0336 0.0
O412 O 0.28091 0.88761 0.00529 0.0
N413 N 0.18741 0.89953 0.00013 0.0
C414 C 0.17649 0.90063 0.0193 0.0
C415 C 0.15765 0.88603 0.02292 0.0
C416 C 0.15025 0.87049 0.0068 0.0
C417 C 0.16172 0.86974 0.98717 0.0
C418 C 0.18025 0.88485 0.98439 0.0
H419 H 0.18226 0.91241 0.03181 0.0
O420 O 0.2447 0.88352 0.03395 0.0
O421 O 0.23327 0.89703 0.00363 0.0
O422 O 0.24433 0.93069 0.0364 0.0
O423 O 0.21367 0.93643 0.01677 0.0
C424 C 0.15586 0.85422 0.97046 0.0
C425 C 0.16878 0.85385 0.95149 0.0
H426 H 0.19843 0.85722 0.91799 0.0
H427 H 0.23189 0.88393 0.91697 0.0
H428 H 0.14895 0.88665 0.03815 0.0
H429 H 0.13588 0.85909 0.00975 0.0
H430 H 0.14166 0.84229 0.97216 0.0
H431 H 0.1643 0.84163 0.9389 0.0
Mn432 Mn 0.29323 0.42856 0.00728 0.0
Mn433 Mn 0.32321 0.42338 0.05267 0.0
C434 C 0.2918 0.45411 0.03521 0.0
C435 C 0.28945 0.44302 0.9733 0.0
C436 C 0.27988 0.39595 0.04224 0.0
O437 O 0.31564 0.40688 0.99784 0.0
O438 O 0.33479 0.40449 0.02905 0.0
C439 C 0.36671 0.44433 0.03829 0.0
N440 N 0.34927 0.44358 0.05238 0.0
C441 C 0.36548 0.47539 0.07218 0.0
C442 C 0.38371 0.4764 0.05797 0.0
C443 C 0.38432 0.4608 0.04095 0.0
C444 C 0.34857 0.45842 0.06889 0.0
H445 H 0.36713 0.43248 0.02508 0.0
C446 C 0.33079 0.39888 0.0092 0.0
O447 O 0.27678 0.42601 0.97908 0.0
O448 O 0.30528 0.45041 0.9866 0.0
N449 N 0.3137 0.44078 0.07655 0.0
C450 C 0.2942 0.43839 0.08788 0.0
C451 C 0.29051 0.4532 0.10497 0.0
C452 C 0.3069 0.47027 0.11025 0.0
C453 C 0.32689 0.47231 0.09844 0.0
C454 C 0.32974 0.45692 0.08172 0.0
H455 H 0.28147 0.42542 0.08373 0.0
O456 O 0.27555 0.4513 0.02122 0.0
O457 O 0.30835 0.44161 0.03252 0.0
O458 O 0.27612 0.40446 0.02419 0.0
O459 O 0.29665 0.40223 0.05444 0.0
C460 C 0.34385 0.48933 0.10224 0.0
C461 C 0.36314 0.49086 0.08914 0.0
H462 H 0.3972 0.48921 0.05983 0.0
H463 H 0.39826 0.46155 0.02984 0.0
H464 H 0.275 0.45157 0.11396 0.0
H465 H 0.30387 0.48183 0.12327 0.0
H466 H 0.34208 0.50153 0.11501 0.0
H467 H 0.37592 0.50419 0.09204 0.0
Mn468 Mn 0.72722 0.16003 0.01002 0.0
Mn469 Mn 0.7824 0.15182 0.01064 0.0
C470 C 0.75248 0.1848 0.02796 0.0
C471 C 0.6975 0.17583 0.99352 0.0
C472 C 0.74723 0.12523 0.03647 0.0
O473 O 0.72998 0.13688 0.98602 0.0
O474 O 0.7679 0.13632 0.98498 0.0
C475 C 0.7972 0.17582 0.97196 0.0
N476 N 0.79879 0.17289 0.99355 0.0
C477 C 0.82746 0.20262 0.99758 0.0
C478 C 0.82626 0.20585 0.97535 0.0
C479 C 0.81105 0.1924 0.96249 0.0
C480 C 0.81341 0.18569 0.00607 0.0
H481 H 0.7854 0.16561 0.96207 0.0
C482 C 0.74804 0.13036 0.97782 0.0
O483 O 0.6937 0.1599 0.00671 0.0
O484 O 0.71827 0.18161 0.98919 0.0
N485 N 0.79801 0.16626 0.03475 0.0
C486 C 0.79602 0.16192 0.05608 0.0
C487 C 0.80951 0.17444 0.07124 0.0
C488 C 0.8249 0.19125 0.06433 0.0
C489 C 0.82673 0.19533 0.04228 0.0
C490 C 0.81303 0.18216 0.02789 0.0
H491 H 0.78413 0.1491 0.06149 0.0
O492 O 0.73131 0.18391 0.03274 0.0
O493 O 0.75809 0.17114 0.01293 0.0
O494 O 0.73058 0.1364 0.03225 0.0
O495 O 0.76696 0.12947 0.0289 0.0
C496 C 0.84126 0.21225 0.03406 0.0
C497 C 0.84164 0.21588 0.01172 0.0
H498 H 0.83676 0.21875 0.96802 0.0
H499 H 0.80993 0.19488 0.94535 0.0
H500 H 0.80795 0.17124 0.08824 0.0
H501 H 0.83507 0.20105 0.07609 0.0
H502 H 0.85198 0.22276 0.0448 0.0
H503 H 0.85265 0.22914 0.00563 0.0
Mn504 Mn 0.1408 0.56788 0.27849 0.0
Mn505 Mn 0.1518 0.51565 0.26649 0.0
C506 C 0.11654 0.54581 0.25668 0.0
C507 C 0.12342 0.59379 0.29939 0.0
C508 C 0.17615 0.55463 0.24575 0.0
O509 O 0.16427 0.56226 0.30137 0.0
O510 O 0.1697 0.52705 0.29205 0.0
C511 C 0.1314 0.49536 0.30512 0.0
N512 N 0.13245 0.49666 0.28328 0.0
C513 C 0.10254 0.4682 0.27842 0.0
C514 C 0.10124 0.46646 0.30086 0.0
C515 C 0.11572 0.48011 0.31426 0.0
C516 C 0.1186 0.48359 0.27024 0.0
H517 H 0.1424 0.50593 0.31547 0.0
C518 C 0.17377 0.54448 0.30383 0.0
O519 O 0.14029 0.59951 0.28709 0.0
O520 O 0.11779 0.57302 0.30067 0.0
N521 N 0.13551 0.50271 0.24206 0.0
C522 C 0.13843 0.50698 0.2208 0.0
C523 C 0.12496 0.49499 0.20525 0.0
C524 C 0.10874 0.47868 0.2117 0.0
C525 C 0.10628 0.47437 0.23364 0.0
C526 C 0.12034 0.48668 0.24839 0.0
H527 H 0.1508 0.51957 0.21579 0.0
O528 O 0.11689 0.56692 0.25582 0.0
O529 O 0.1305 0.5382 0.2702 0.0
O530 O 0.16544 0.56916 0.25558 0.0
O531 O 0.17226 0.53407 0.24833 0.0
C532 C 0.09016 0.4586 0.2415 0.0
C533 C 0.08828 0.45554 0.26387 0.0
H534 H 0.08908 0.45481 0.30798 0.0
H535 H 0.11475 0.47894 0.33159 0.0
H536 H 0.12696 0.49841 0.18834 0.0
H537 H 0.0982 0.46965 0.19967 0.0
H538 H 0.07896 0.44892 0.23049 0.0
H539 H 0.07566 0.44353 0.26973 0.0
Mn540 Mn 0.803 0.93458 0.51884 0.0
Mn541 Mn 0.83684 0.92969 0.56175 0.0
C542 C 0.80198 0.95887 0.54779 0.0
C543 C 0.79609 0.94976 0.4857 0.0
C544 C 0.79395 0.9009 0.55387 0.0
O545 O 0.82568 0.91433 0.50706 0.0
O546 O 0.84698 0.91159 0.53684 0.0
C547 C 0.87806 0.95244 0.54428 0.0
N548 N 0.86205 0.95074 0.55983 0.0
C549 C 0.87912 0.98235 0.57933 0.0
C550 C 0.89589 0.98435 0.56361 0.0
C551 C 0.89535 0.96933 0.54601 0.0
C552 C 0.86247 0.96504 0.57688 0.0
H553 H 0.87758 0.94103 0.53065 0.0
C554 C 0.84175 0.90637 0.51716 0.0
O555 O 0.78469 0.93204 0.49167 0.0
O556 O 0.8124 0.95753 0.49824 0.0
N557 N 0.82898 0.94616 0.5869 0.0
C558 C 0.81077 0.94275 0.59988 0.0
C559 C 0.8083 0.95685 0.61783 0.0
C560 C 0.82461 0.97422 0.62229 0.0
C561 C 0.84332 0.97725 0.60882 0.0
C562 C 0.84499 0.96256 0.59127 0.0
H563 H 0.79812 0.92951 0.5964 0.0
O564 O 0.78503 0.95573 0.53462 0.0
O565 O 0.81927 0.94768 0.54353 0.0
O566 O 0.78845 0.90928 0.53618 0.0
O567 O 0.81129 0.90778 0.56506 0.0
C568 C 0.86008 0.99461 0.61178 0.0
C569 C 0.87797 0.99715 0.59706 0.0
H570 H 0.90914 0.99747 0.56478 0.0
H571 H 0.90816 0.97084 0.53375 0.0
H572 H 0.79378 0.95443 0.62812 0.0
H573 H 0.82251 0.98521 0.63601 0.0
H574 H 0.8592 0.00628 0.62516 0.0
H575 H 0.89059 0.01073 0.59935 0.0
Mn576 Mn 0.86573 0.01588 0.2758 0.0
Mn577 Mn 0.87508 0.98724 0.22997 0.0
C578 C 0.84231 0.01794 0.24632 0.0
C579 C 0.84782 0.01951 0.30888 0.0
C580 C 0.90266 0.029 0.24348 0.0
O581 O 0.88687 0.99367 0.28587 0.0
O582 O 0.89203 0.97552 0.25431 0.0
C583 C 0.85178 0.94491 0.24162 0.0
N584 N 0.85413 0.96203 0.22813 0.0
C585 C 0.82372 0.94647 0.20549 0.0
C586 C 0.82107 0.92859 0.21906 0.0
C587 C 0.83516 0.92782 0.23721 0.0
C588 C 0.84073 0.96289 0.21056 0.0
H589 H 0.86248 0.94434 0.25566 0.0
C590 C 0.89602 0.97905 0.27452 0.0
O591 O 0.86613 0.03142 0.30454 0.0
O592 O 0.84105 0.00443 0.29471 0.0
N593 N 0.8597 0.9969 0.20527 0.0
C594 C 0.86349 0.01595 0.19467 0.0
C595 C 0.85025 0.0197 0.17656 0.0
C596 C 0.83333 0.00381 0.16952 0.0
C597 C 0.82987 0.98425 0.1806 0.0
C598 C 0.84373 0.98134 0.19842 0.0
H599 H 0.87638 0.02826 0.20013 0.0
O600 O 0.84393 0.03356 0.26093 0.0
O601 O 0.85466 0.00166 0.24934 0.0
O602 O 0.89232 0.03244 0.26107 0.0
O603 O 0.89715 0.01295 0.23038 0.0
C604 C 0.81288 0.96776 0.17497 0.0
C605 C 0.80981 0.94888 0.18741 0.0
H606 H 0.80814 0.91548 0.21582 0.0
H607 H 0.83314 0.91414 0.24782 0.0
H608 H 0.85298 0.03486 0.16813 0.0
H609 H 0.82297 0.00687 0.1557 0.0
H610 H 0.80188 0.96956 0.16129 0.0
H611 H 0.79648 0.93647 0.1831 0.0
Mn612 Mn 0.23402 0.66655 0.51352 0.0
Mn613 Mn 0.28797 0.65477 0.50805 0.0
C614 C 0.26255 0.69051 0.52746 0.0
C615 C 0.2034 0.68287 0.4994 0.0
C616 C 0.25527 0.6319 0.53921 0.0
O617 O 0.23227 0.64187 0.49073 0.0
O618 O 0.26935 0.63873 0.48508 0.0
C619 C 0.29845 0.67584 0.46669 0.0
N620 N 0.30287 0.67393 0.48807 0.0
C621 C 0.33329 0.70206 0.48711 0.0
C622 C 0.32917 0.70423 0.46504 0.0
C623 C 0.31166 0.69108 0.4548 0.0
C624 C 0.3197 0.68647 0.49808 0.0
H625 H 0.28491 0.66585 0.45881 0.0
C626 C 0.24848 0.63355 0.48082 0.0
O627 O 0.20053 0.66805 0.51389 0.0
O628 O 0.22369 0.68739 0.49268 0.0
N629 N 0.30756 0.6694 0.52936 0.0
C630 C 0.30859 0.66601 0.55092 0.0
C631 C 0.32484 0.67829 0.56367 0.0
C632 C 0.33988 0.69385 0.55412 0.0
C633 C 0.33863 0.69689 0.53186 0.0
C634 C 0.32225 0.684 0.51993 0.0
H635 H 0.29702 0.65413 0.55834 0.0
O636 O 0.24217 0.69135 0.53443 0.0
O637 O 0.26546 0.67583 0.51244 0.0
O638 O 0.23896 0.64394 0.53641 0.0
O639 O 0.27395 0.63443 0.52916 0.0
C640 C 0.35271 0.71247 0.5211 0.0
C641 C 0.35004 0.71506 0.49874 0.0
H642 H 0.33921 0.71608 0.45585 0.0
H643 H 0.30829 0.69274 0.43781 0.0
H644 H 0.32569 0.67587 0.58084 0.0
H645 H 0.35221 0.70348 0.56405 0.0
H646 H 0.36546 0.72275 0.52992 0.0
H647 H 0.36078 0.72729 0.4907 0.0
Mn648 Mn 0.37474 0.52888 0.77935 0.0
Mn649 Mn 0.37639 0.49112 0.73896 0.0
C650 C 0.34711 0.52597 0.75309 0.0
C651 C 0.36188 0.53884 0.81337 0.0
C652 C 0.4059 0.53371 0.74054 0.0
O653 O 0.39741 0.50876 0.79046 0.0
O654 O 0.39663 0.48368 0.76297 0.0
C655 C 0.35417 0.45362 0.76155 0.0
N656 N 0.35475 0.46742 0.74475 0.0
C657 C 0.32014 0.45006 0.73011 0.0
C658 C 0.31927 0.43555 0.74717 0.0
C659 C 0.33636 0.43735 0.76296 0.0
C660 C 0.33841 0.46581 0.72945 0.0
H661 H 0.36716 0.45509 0.77383 0.0
C662 C 0.40407 0.49146 0.78131 0.0
O663 O 0.37899 0.54972 0.80478 0.0
O664 O 0.35358 0.52145 0.80291 0.0
N665 N 0.35758 0.49632 0.71483 0.0
C666 C 0.36052 0.51206 0.69986 0.0
C667 C 0.34466 0.5128 0.68312 0.0
C668 C 0.32599 0.49733 0.68193 0.0
C669 C 0.32348 0.48112 0.69738 0.0
C670 C 0.33999 0.48103 0.71352 0.0
H671 H 0.37474 0.52409 0.7008 0.0
O672 O 0.35079 0.54392 0.76453 0.0
O673 O 0.35966 0.51021 0.75752 0.0
O674 O 0.39843 0.54126 0.75829 0.0
O675 O 0.39864 0.51532 0.73176 0.0
C676 C 0.30505 0.46529 0.69761 0.0
C677 C 0.30338 0.44978 0.71397 0.0
H678 H 0.30547 0.4231 0.74841 0.0
H679 H 0.33574 0.4263 0.77625 0.0
H680 H 0.34671 0.52537 0.67127 0.0
H681 H 0.31364 0.49813 0.66917 0.0
H682 H 0.29195 0.46505 0.68541 0.0
H683 H 0.28901 0.43783 0.7141 0.0
Mn684 Mn 0.65008 0.06654 0.77914 0.0
Mn685 Mn 0.65736 0.01468 0.76245 0.0
C686 C 0.62547 0.04849 0.75444 0.0
C687 C 0.63341 0.09165 0.80154 0.0
C688 C 0.68678 0.05409 0.74794 0.0
O689 O 0.67145 0.05648 0.80211 0.0
O690 O 0.6727 0.0211 0.79073 0.0
C691 C 0.63082 0.99118 0.79592 0.0
N692 N 0.63471 0.99516 0.77476 0.0
C693 C 0.60359 0.96988 0.76365 0.0
C694 C 0.59945 0.96528 0.78532 0.0
C695 C 0.6131 0.97602 0.80152 0.0
C696 C 0.62165 0.98496 0.75903 0.0
H697 H 0.64105 0.99963 0.80843 0.0
C698 C 0.6779 0.03717 0.80406 0.0
O699 O 0.65147 0.09731 0.79082 0.0
O700 O 0.62623 0.07112 0.8006 0.0
N701 N 0.64293 0.00669 0.73541 0.0
C702 C 0.64813 0.01415 0.71546 0.0
C703 C 0.63545 0.00573 0.69751 0.0
C704 C 0.6176 0.98974 0.70026 0.0
C705 C 0.61265 0.98222 0.72093 0.0
C706 C 0.62603 0.99103 0.73818 0.0
H707 H 0.66173 0.02655 0.71329 0.0
O708 O 0.62763 0.06969 0.75556 0.0
O709 O 0.63805 0.03859 0.76752 0.0
O710 O 0.67603 0.06844 0.75789 0.0
O711 O 0.68134 0.03352 0.74853 0.0
C712 C 0.59464 0.96672 0.72516 0.0
C713 C 0.59012 0.96054 0.7465 0.0
H714 H 0.58566 0.95376 0.78971 0.0
H715 H 0.60988 0.97272 0.81829 0.0
H716 H 0.63933 0.01167 0.68162 0.0
H717 H 0.60768 0.98349 0.68641 0.0
H718 H 0.58394 0.95971 0.71215 0.0
H719 H 0.57601 0.94887 0.74958 0.0
Mn720 Mn 0.76174 0.65975 0.0413 0.0
Mn721 Mn 0.755 0.67128 0.98914 0.0
C722 C 0.74271 0.63442 0.01812 0.0
C723 C 0.78243 0.64421 0.06798 0.0
C724 C 0.72933 0.69198 0.02573 0.0
O725 O 0.78462 0.68584 0.03726 0.0
O726 O 0.7817 0.68921 0.00113 0.0
C727 C 0.79587 0.6538 0.97066 0.0
N728 N 0.77303 0.65376 0.97129 0.0
C729 C 0.76872 0.62532 0.94364 0.0
C730 C 0.79221 0.62518 0.94256 0.0
C731 C 0.80583 0.63947 0.95614 0.0
C732 C 0.75976 0.64017 0.95822 0.0
H733 H 0.80638 0.66461 0.98122 0.0
C734 C 0.7907 0.69464 0.01958 0.0
O735 O 0.768 0.65839 0.07294 0.0
O736 O 0.7858 0.64029 0.0477 0.0
N737 N 0.72975 0.65458 0.9761 0.0
C738 C 0.70745 0.65559 0.98034 0.0
C739 C 0.69153 0.64166 0.9688 0.0
C740 C 0.69871 0.62684 0.95305 0.0
C741 C 0.72176 0.62612 0.94894 0.0
C742 C 0.73683 0.64058 0.96078 0.0
H743 H 0.70186 0.66682 0.99257 0.0
O744 O 0.73962 0.63364 0.03872 0.0
O745 O 0.75676 0.65014 0.01178 0.0
O746 O 0.73646 0.68048 0.04076 0.0
O747 O 0.73552 0.6901 0.00612 0.0
C748 C 0.73039 0.61128 0.93393 0.0
C749 C 0.75386 0.61089 0.93126 0.0
H750 H 0.79996 0.61398 0.93156 0.0
H751 H 0.82397 0.63935 0.95551 0.0
H752 H 0.67378 0.64224 0.97213 0.0
H753 H 0.6864 0.61594 0.94435 0.0
H754 H 0.71915 0.59986 0.92459 0.0
H755 H 0.7603 0.59919 0.91991 0.0
Mn756 Mn 0.88977 0.53404 0.74905 0.0
Mn757 Mn 0.88488 0.5766 0.78381 0.0
C758 C 0.91911 0.56068 0.75399 0.0
C759 C 0.90136 0.4991 0.74189 0.0
C760 C 0.86188 0.57263 0.73995 0.0
O761 O 0.86302 0.5235 0.76722 0.0
O762 O 0.86197 0.5524 0.79059 0.0
C763 C 0.89942 0.5561 0.82357 0.0
N764 N 0.90227 0.5723 0.80908 0.0
C765 C 0.93499 0.5885 0.82815 0.0
C766 C 0.93232 0.57207 0.84336 0.0
C767 C 0.91445 0.5558 0.84105 0.0
C768 C 0.91935 0.58808 0.81119 0.0
H769 H 0.88584 0.54344 0.82173 0.0
C770 C 0.85443 0.53339 0.78326 0.0
O771 O 0.8869 0.50748 0.7294 0.0
O772 O 0.90776 0.51041 0.7591 0.0
N773 N 0.90626 0.60083 0.77888 0.0
C774 C 0.9072 0.61477 0.76217 0.0
C775 C 0.92445 0.6317 0.76172 0.0
C776 C 0.94054 0.63411 0.77843 0.0
C777 C 0.93915 0.61963 0.79551 0.0
C778 C 0.92142 0.60325 0.79523 0.0
H779 H 0.89497 0.61286 0.7492 0.0
O780 O 0.9176 0.54873 0.73638 0.0
O781 O 0.90317 0.55682 0.76783 0.0
O782 O 0.86969 0.55462 0.73389 0.0
O783 O 0.86684 0.58237 0.75808 0.0
C784 C 0.95493 0.62054 0.81258 0.0
C785 C 0.95286 0.60498 0.82888 0.0
H786 H 0.944 0.57166 0.85675 0.0
H787 H 0.91236 0.54299 0.85265 0.0
H788 H 0.92545 0.64277 0.74845 0.0
H789 H 0.95399 0.64701 0.77789 0.0
H790 H 0.96888 0.63296 0.81318 0.0
H791 H 0.96526 0.60567 0.84176 0.0
Mn792 Mn 0.75541 0.40599 0.51877 0.0
Mn793 Mn 0.70608 0.41679 0.49634 0.0
C794 C 0.72488 0.3806 0.52 0.0
C795 C 0.7903 0.39149 0.51658 0.0
C796 C 0.72294 0.43688 0.53913 0.0
O797 O 0.76449 0.43109 0.49941 0.0
O798 O 0.73078 0.43722 0.48503 0.0
C799 C 0.71522 0.40272 0.45143 0.0
N800 N 0.70236 0.40088 0.46944 0.0
C801 C 0.6777 0.3724 0.45246 0.0
C802 C 0.69059 0.3741 0.43368 0.0
C803 C 0.70944 0.38932 0.43317 0.0
C804 C 0.68412 0.38637 0.47007 0.0
H805 H 0.72982 0.41428 0.45104 0.0
C806 C 0.75209 0.44171 0.48731 0.0
O807 O 0.78626 0.40624 0.53126 0.0
O808 O 0.77445 0.38608 0.50259 0.0
N809 N 0.68099 0.39825 0.50581 0.0
C810 C 0.67132 0.39761 0.52564 0.0
C811 C 0.65276 0.38263 0.52914 0.0
C812 C 0.64431 0.36853 0.51222 0.0
C813 C 0.65445 0.3696 0.49191 0.0
C814 C 0.67277 0.385 0.48933 0.0
H815 H 0.67788 0.4083 0.53873 0.0
O816 O 0.74108 0.38046 0.53402 0.0
O817 O 0.72701 0.39582 0.5058 0.0
O818 O 0.74132 0.42752 0.53954 0.0
O819 O 0.70829 0.43356 0.52402 0.0
C820 C 0.64745 0.35564 0.47429 0.0
C821 C 0.65906 0.35703 0.45458 0.0
H822 H 0.68632 0.36364 0.41963 0.0
H823 H 0.71955 0.39063 0.41878 0.0
H824 H 0.64508 0.38185 0.54487 0.0
H825 H 0.63016 0.35683 0.51505 0.0
H826 H 0.63335 0.34355 0.47582 0.0
H827 H 0.65372 0.34599 0.44125 0.0
Mn828 Mn 0.62734 0.55013 0.2521 0.0
Mn829 Mn 0.61909 0.5773 0.29892 0.0
C830 C 0.6569 0.57049 0.26896 0.0
C831 C 0.63846 0.51934 0.23355 0.0
C832 C 0.60276 0.59179 0.2555 0.0
O833 O 0.5974 0.53586 0.26222 0.0
O834 O 0.59537 0.55269 0.29509 0.0
C835 C 0.62849 0.54306 0.32961 0.0
N836 N 0.6332 0.56353 0.32208 0.0
C837 C 0.66327 0.57098 0.34794 0.0
C838 C 0.65857 0.55007 0.35613 0.0
C839 C 0.64111 0.53605 0.34691 0.0
C840 C 0.6499 0.57719 0.33089 0.0
H841 H 0.61531 0.53213 0.32237 0.0
C842 C 0.5879 0.53871 0.28041 0.0
O843 O 0.62647 0.53314 0.22407 0.0
O844 O 0.64203 0.52247 0.25406 0.0
N845 N 0.64135 0.60113 0.30417 0.0
C846 C 0.64495 0.61998 0.2932 0.0
C847 C 0.66253 0.63538 0.29971 0.0
C848 C 0.67623 0.63124 0.31739 0.0
C849 C 0.67219 0.61173 0.32844 0.0
C850 C 0.65425 0.5971 0.32137 0.0
H851 H 0.63461 0.62314 0.27948 0.0
O852 O 0.65748 0.56602 0.24845 0.0
O853 O 0.63883 0.56317 0.27883 0.0
O854 O 0.61167 0.57717 0.2441 0.0
O855 O 0.60415 0.59305 0.27607 0.0
C856 C 0.68561 0.60598 0.34582 0.0
C857 C 0.68114 0.58563 0.35558 0.0
H858 H 0.66845 0.54449 0.3693 0.0
H859 H 0.63751 0.51981 0.35302 0.0
H860 H 0.66562 0.65035 0.29103 0.0
H861 H 0.68995 0.64304 0.32219 0.0
H862 H 0.69965 0.61693 0.35158 0.0
H863 H 0.69182 0.58124 0.3687 0.0
O864 O 0.15142 0.19399 0.12445 0.0
Mn865 Mn 0.13122 0.17101 0.14135 0.0
O866 O 0.17113 0.2152 0.14959 0.0
Mn867 Mn 0.15732 0.20392 0.17403 0.0
O868 O 0.11044 0.14894 0.1591 0.0
O869 O 0.11192 0.16546 0.11514 0.0
Mn870 Mn 0.10217 0.13776 0.11178 0.0
O871 O 0.1509 0.146 0.13122 0.0
O872 O 0.08506 0.13212 0.13585 0.0
O873 O 0.11068 0.19528 0.15223 0.0
O874 O 0.12936 0.21371 0.17981 0.0
O875 O 0.09188 0.15213 0.08814 0.0
O876 O 0.128 0.1226 0.11065 0.0
C877 C 0.16518 0.17102 0.18134 0.0
C878 C 0.16614 0.20967 0.13002 0.0
C879 C 0.09239 0.13656 0.15493 0.0
C880 C 0.10272 0.1692 0.09701 0.0
C881 C 0.14684 0.12814 0.12 0.0
C882 C 0.11182 0.20938 0.16808 0.0
O883 O 0.15117 0.1762 0.167 0.0
O884 O 0.17353 0.18769 0.19279 0.0
O885 O 0.11072 0.87693 0.3786 0.0
Mn886 Mn 0.12278 0.8994 0.40256 0.0
O887 O 0.14176 0.86438 0.36319 0.0
Mn888 Mn 0.16396 0.87863 0.38095 0.0
O889 O 0.13599 0.92308 0.42533 0.0
O890 O 0.094 0.91433 0.40004 0.0
Mn891 Mn 0.08487 0.92254 0.42586 0.0
O892 O 0.10883 0.88021 0.42701 0.0
O893 O 0.10736 0.94264 0.43599 0.0
O894 O 0.13818 0.91963 0.37906 0.0
O895 O 0.17232 0.90681 0.37316 0.0
O896 O 0.06323 0.93007 0.40672 0.0
O897 O 0.08027 0.89738 0.44162 0.0
C898 C 0.16147 0.86862 0.41398 0.0
C899 C 0.12041 0.86539 0.36423 0.0
C900 C 0.12828 0.93966 0.43525 0.0
C901 C 0.07581 0.9214 0.3924 0.0
C902 C 0.09277 0.88143 0.44058 0.0
C903 C 0.1583 0.92139 0.37134 0.0
O904 O 0.15036 0.88328 0.40533 0.0
O905 O 0.17728 0.86226 0.40168 0.0
O906 O 0.4096 0.94651 0.65337 0.0
Mn907 Mn 0.386 0.92353 0.63907 0.0
O908 O 0.42782 0.96217 0.62524 0.0
Mn909 Mn 0.41051 0.94955 0.60236 0.0
O910 O 0.36378 0.89969 0.62343 0.0
O911 O 0.38769 0.90545 0.66525 0.0
Mn912 Mn 0.36151 0.89193 0.67113 0.0
O913 O 0.35892 0.93872 0.65258 0.0
O914 O 0.35583 0.87352 0.64748 0.0
O915 O 0.41164 0.90653 0.62449 0.0
O916 O 0.41887 0.92268 0.59283 0.0
O917 O 0.38074 0.88659 0.69353 0.0
O918 O 0.34198 0.91394 0.67463 0.0
C919 C 0.37602 0.95801 0.60345 0.0
C920 C 0.42522 0.95957 0.64549 0.0
C921 C 0.35598 0.88027 0.62826 0.0
C922 C 0.39511 0.89939 0.68346 0.0
C923 C 0.34313 0.93243 0.6656 0.0
C924 C 0.4201 0.90675 0.6054 0.0
O925 O 0.38429 0.94264 0.61382 0.0
O926 O 0.38981 0.9664 0.58942 0.0
O927 O 0.41157 0.19179 0.91176 0.0
Mn928 Mn 0.39651 0.17287 0.88648 0.0
O929 O 0.43631 0.17116 0.92765 0.0
Mn930 Mn 0.43058 0.14603 0.91034 0.0
O931 O 0.38033 0.15291 0.86195 0.0
O932 O 0.37074 0.19168 0.8887 0.0
Mn933 Mn 0.35791 0.19579 0.86397 0.0
O934 O 0.41092 0.19321 0.86315 0.0
O935 O 0.34744 0.16774 0.85567 0.0
O936 O 0.3805 0.15125 0.90835 0.0
O937 O 0.40601 0.12809 0.91808 0.0
O938 O 0.34472 0.21354 0.88445 0.0
O939 O 0.38138 0.20761 0.84714 0.0
C940 C 0.44164 0.14756 0.87757 0.0
C941 C 0.4263 0.18876 0.92631 0.0
C942 C 0.3603 0.1521 0.85387 0.0
C943 C 0.35947 0.20662 0.89741 0.0
C944 C 0.4024 0.20477 0.84863 0.0
C945 C 0.38589 0.13374 0.91745 0.0
O946 O 0.42351 0.15527 0.88478 0.0
O947 O 0.45226 0.13703 0.89166 0.0
O948 O 0.60782 0.38511 0.87736 0.0
Mn949 Mn 0.62662 0.40196 0.90194 0.0
O950 O 0.63186 0.36412 0.85969 0.0
Mn951 Mn 0.6578 0.37213 0.87577 0.0
O952 O 0.6468 0.41997 0.92517 0.0
O953 O 0.60399 0.42465 0.90226 0.0
Mn954 Mn 0.5986 0.43352 0.92884 0.0
O955 O 0.60885 0.38497 0.92612 0.0
O956 O 0.6258 0.44585 0.93929 0.0
O957 O 0.64564 0.41959 0.87879 0.0
O958 O 0.67271 0.39802 0.86774 0.0
O959 O 0.58054 0.44865 0.91128 0.0
O960 O 0.58723 0.40886 0.94284 0.0
C961 C 0.65691 0.36158 0.90861 0.0
C962 C 0.61252 0.37147 0.86216 0.0
C963 C 0.64447 0.43727 0.937 0.0
C964 C 0.58907 0.43728 0.89591 0.0
C965 C 0.59439 0.38984 0.94048 0.0
C966 C 0.66393 0.41638 0.86854 0.0
O967 O 0.64804 0.37848 0.90159 0.0
O968 O 0.66892 0.35219 0.8943 0.0
O969 O 0.9043 0.44135 0.15292 0.0
Mn970 Mn 0.87927 0.42008 0.13844 0.0
O971 O 0.92191 0.45844 0.12529 0.0
Mn972 Mn 0.90347 0.44741 0.10252 0.0
O973 O 0.85528 0.39782 0.12284 0.0
O974 O 0.8812 0.4005 0.16344 0.0
Mn975 Mn 0.8548 0.38818 0.17044 0.0
O976 O 0.85378 0.43593 0.15391 0.0
O977 O 0.84669 0.37117 0.14636 0.0
O978 O 0.90351 0.4027 0.12179 0.0
O979 O 0.91086 0.42087 0.09123 0.0
O980 O 0.87495 0.38147 0.19164 0.0
O981 O 0.83686 0.41117 0.17598 0.0
C982 C 0.8693 0.45664 0.10471 0.0
C983 C 0.92002 0.45448 0.14536 0.0
C984 C 0.84627 0.37874 0.12747 0.0
C985 C 0.88918 0.3942 0.18132 0.0
C986 C 0.83854 0.42999 0.16759 0.0
C987 C 0.91182 0.40403 0.10266 0.0
O988 O 0.87739 0.44071 0.1144 0.0
O989 O 0.88306 0.46539 0.09083 0.0
O990 O 0.90418 0.69451 0.42157 0.0
Mn991 Mn 0.88959 0.67548 0.3961 0.0
O992 O 0.92847 0.67402 0.43829 0.0
Mn993 Mn 0.92321 0.64881 0.42094 0.0
O994 O 0.87373 0.65531 0.37155 0.0
O995 O 0.8638 0.69432 0.39746 0.0
Mn996 Mn 0.85176 0.69861 0.3724 0.0
O997 O 0.90469 0.69553 0.37284 0.0
O998 O 0.84138 0.67061 0.36385 0.0
O999 O 0.87305 0.65396 0.41778 0.0
O1000 O 0.89837 0.63082 0.42806 0.0
O1001 O 0.83872 0.71697 0.39244 0.0
O1002 O 0.87572 0.71013 0.35609 0.0
C1003 C 0.93469 0.65006 0.38819 0.0
C1004 C 0.91847 0.69159 0.43659 0.0
C1005 C 0.85406 0.65477 0.36267 0.0
C1006 C 0.8532 0.71002 0.40566 0.0
C1007 C 0.89664 0.70713 0.35808 0.0
C1008 C 0.87822 0.63635 0.42686 0.0
O1009 O 0.91655 0.65786 0.39519 0.0
O1010 O 0.94526 0.63984 0.40255 0.0
O1011 O 0.86618 0.8963 0.92248 0.0
Mn1012 Mn 0.88017 0.92073 0.90305 0.0
O1013 O 0.85355 0.86848 0.89989 0.0
Mn1014 Mn 0.85874 0.88197 0.87366 0.0
O1015 O 0.89579 0.94459 0.88336 0.0
O1016 O 0.90016 0.93099 0.92734 0.0
Mn1017 Mn 0.90568 0.95946 0.92967 0.0
O1018 O 0.85676 0.94197 0.91363 0.0
O1019 O 0.92215 0.96298 0.90467 0.0
O1020 O 0.9044 0.90045 0.89117 0.0
O1021 O 0.88774 0.87995 0.86376 0.0
O1022 O 0.91538 0.94714 0.95517 0.0
O1023 O 0.87751 0.97087 0.92884 0.0
C1024 C 0.84116 0.91145 0.86857 0.0
C1025 C 0.8577 0.87663 0.91883 0.0
C1026 C 0.9144 0.95662 0.88607 0.0
C1027 C 0.9074 0.92875 0.94646 0.0
C1028 C 0.85877 0.96142 0.92209 0.0
C1029 C 0.9052 0.88761 0.87439 0.0
O1030 O 0.85937 0.91029 0.87932 0.0
O1031 O 0.83455 0.89299 0.8591 0.0
O1032 O 0.92428 0.20326 0.64129 0.0
Mn1033 Mn 0.89833 0.19159 0.62019 0.0
O1034 O 0.90837 0.22444 0.66664 0.0
Mn1035 Mn 0.8785 0.22001 0.6575 0.0
O1036 O 0.87119 0.17843 0.60098 0.0
O1037 O 0.91691 0.16797 0.61014 0.0
Mn1038 Mn 0.91359 0.16046 0.58275 0.0
O1039 O 0.91111 0.21069 0.59502 0.0
O1040 O 0.88379 0.14979 0.58213 0.0
O1041 O 0.88434 0.17182 0.64448 0.0
O1042 O 0.86423 0.19363 0.66563 0.0
O1043 O 0.93734 0.14562 0.59384 0.0
O1044 O 0.91907 0.18653 0.56834 0.0
C1045 C 0.87018 0.23315 0.62664 0.0
C1046 C 0.92524 0.21541 0.65866 0.0
C1047 C 0.86785 0.16053 0.58958 0.0
C1048 C 0.93364 0.15629 0.61156 0.0
C1049 C 0.91724 0.20606 0.57565 0.0
C1050 C 0.86999 0.17472 0.65957 0.0
O1051 O 0.8805 0.21599 0.62963 0.0
O1052 O 0.86378 0.24219 0.6444 0.0
O1053 O 0.6533 0.17093 0.41861 0.0
Mn1054 Mn 0.64081 0.14696 0.3962 0.0
O1055 O 0.66875 0.19805 0.39837 0.0
Mn1056 Mn 0.66806 0.18378 0.37143 0.0
O1057 O 0.62677 0.12405 0.37308 0.0
O1058 O 0.61671 0.13833 0.41679 0.0
Mn1059 Mn 0.60957 0.11002 0.41702 0.0
O1060 O 0.66083 0.12395 0.40894 0.0
O1061 O 0.59784 0.10541 0.3895 0.0
O1062 O 0.62012 0.16892 0.38193 0.0
O1063 O 0.64145 0.18614 0.35671 0.0
O1064 O 0.59547 0.12315 0.44045 0.0
O1065 O 0.63656 0.09725 0.42138 0.0
C1066 C 0.68569 0.15404 0.36961 0.0
C1067 C 0.66218 0.19051 0.41644 0.0
C1068 C 0.60841 0.11142 0.37256 0.0
C1069 C 0.60583 0.14113 0.43423 0.0
C1070 C 0.6565 0.10507 0.41712 0.0
C1071 C 0.62235 0.18057 0.36498 0.0
O1072 O 0.66559 0.15565 0.37631 0.0
O1073 O 0.69431 0.17201 0.36166 0.0
O1074 O 0.60529 0.8784 0.11421 0.0
Mn1075 Mn 0.61794 0.90343 0.13576 0.0
O1076 O 0.58703 0.89502 0.08802 0.0
Mn1077 Mn 0.59374 0.92391 0.09732 0.0
O1078 O 0.63157 0.92902 0.15618 0.0
O1079 O 0.64055 0.88364 0.14612 0.0
Mn1080 Mn 0.64447 0.88558 0.17423 0.0
O1081 O 0.59555 0.89267 0.15972 0.0
O1082 O 0.65562 0.91435 0.17888 0.0
O1083 O 0.64108 0.91576 0.11296 0.0
O1084 O 0.62206 0.93613 0.09056 0.0
O1085 O 0.66138 0.86326 0.1639 0.0
O1086 O 0.61627 0.87868 0.1858 0.0
C1087 C 0.57746 0.93386 0.12662 0.0
C1088 C 0.59351 0.87789 0.09669 0.0
C1089 C 0.64719 0.9308 0.1707 0.0
C1090 C 0.65309 0.86748 0.14534 0.0
C1091 C 0.59752 0.88356 0.17796 0.0
C1092 C 0.64042 0.92991 0.09808 0.0
O1093 O 0.59468 0.92251 0.1255 0.0
O1094 O 0.57105 0.94033 0.10811 0.0
O1095 O 0.42298 0.69954 0.14592 0.0
Mn1096 Mn 0.39857 0.68736 0.12343 0.0
O1097 O 0.4055 0.71995 0.17068 0.0
Mn1098 Mn 0.37632 0.7148 0.15996 0.0
O1099 O 0.37353 0.67342 0.10218 0.0
O1100 O 0.41873 0.66443 0.11482 0.0
Mn1101 Mn 0.41944 0.65833 0.08709 0.0
O1102 O 0.4122 0.70725 0.09914 0.0
O1103 O 0.38991 0.64786 0.08185 0.0
O1104 O 0.38341 0.66693 0.14677 0.0
O1105 O 0.36226 0.68822 0.16751 0.0
O1106 O 0.44127 0.64277 0.10046 0.0
O1107 O 0.42781 0.68496 0.07469 0.0
C1108 C 0.3696 0.72879 0.12922 0.0
C1109 C 0.42295 0.71153 0.16331 0.0
C1110 C 0.37256 0.65697 0.08862 0.0
C1111 C 0.43521 0.65269 0.11788 0.0
C1112 C 0.42272 0.70385 0.08142 0.0
C1113 C 0.36854 0.66952 0.16148 0.0
O1114 O 0.37934 0.71118 0.13206 0.0
O1115 O 0.36231 0.73727 0.1469 0.0
O1116 O 0.15733 0.67206 0.91947 0.0
Mn1117 Mn 0.14363 0.64995 0.89564 0.0
O1118 O 0.17473 0.69991 0.90132 0.0
Mn1119 Mn 0.169 0.6898 0.8731 0.0
O1120 O 0.12928 0.62912 0.87108 0.0
O1121 O 0.12105 0.63809 0.91684 0.0
Mn1122 Mn 0.11641 0.60935 0.91409 0.0
O1123 O 0.16542 0.62666 0.90429 0.0
O1124 O 0.10438 0.60508 0.88662 0.0
O1125 O 0.12125 0.67236 0.88526 0.0
O1126 O 0.14079 0.69455 0.86244 0.0
O1127 O 0.09973 0.61816 0.93753 0.0
O1128 O 0.14434 0.59839 0.91819 0.0
C1129 C 0.18507 0.66003 0.86482 0.0
C1130 C 0.16888 0.69069 0.91887 0.0
C1131 C 0.11289 0.61417 0.87002 0.0
C1132 C 0.10833 0.63763 0.93352 0.0
C1133 C 0.1632 0.60768 0.91258 0.0
C1134 C 0.1223 0.68682 0.87056 0.0
O1135 O 0.16675 0.66136 0.87522 0.0
O1136 O 0.19266 0.67862 0.85747 0.0
O1137 O 0.11361 0.38482 0.61582 0.0
Mn1138 Mn 0.12378 0.40824 0.63964 0.0
O1139 O 0.09509 0.40232 0.59044 0.0
Mn1140 Mn 0.09886 0.43058 0.6025 0.0
O1141 O 0.13541 0.43227 0.66264 0.0
O1142 O 0.14703 0.38887 0.64878 0.0
Mn1143 Mn 0.15061 0.38778 0.67674 0.0
O1144 O 0.10133 0.39421 0.66187 0.0
O1145 O 0.16024 0.41651 0.68381 0.0
O1146 O 0.14669 0.42396 0.61854 0.0
O1147 O 0.12666 0.44521 0.59776 0.0
O1148 O 0.16813 0.36701 0.66389 0.0
O1149 O 0.12221 0.37899 0.68708 0.0
C1150 C 0.08129 0.43581 0.63252 0.0
C1151 C 0.10281 0.38514 0.59786 0.0
C1152 C 0.15087 0.43325 0.67733 0.0
C1153 C 0.15952 0.37295 0.64606 0.0
C1154 C 0.10336 0.38375 0.67934 0.0
C1155 C 0.14534 0.43929 0.60492 0.0
O1156 O 0.09981 0.42673 0.63034 0.0
O1157 O 0.07418 0.44333 0.61473 0.0
O1158 O 0.66043 0.69871 0.6322 0.0
Mn1159 Mn 0.63926 0.67151 0.63965 0.0
O1160 O 0.66716 0.71708 0.66404 0.0
Mn1161 Mn 0.65237 0.69752 0.68267 0.0
O1162 O 0.6171 0.64512 0.64804 0.0
O1163 O 0.62684 0.67067 0.60968 0.0
Mn1164 Mn 0.6221 0.64361 0.59934 0.0
O1165 O 0.66343 0.65036 0.63009 0.0
O1166 O 0.60063 0.63091 0.6175 0.0
O1167 O 0.61413 0.6918 0.64987 0.0
O1168 O 0.62193 0.70031 0.68493 0.0
O1169 O 0.61505 0.6618 0.57741 0.0
O1170 O 0.65003 0.63221 0.59997 0.0
C1171 C 0.66556 0.66554 0.68349 0.0
C1172 C 0.66903 0.71526 0.64352 0.0
C1173 C 0.60198 0.6325 0.63802 0.0
C1174 C 0.62107 0.67742 0.5912 0.0
C1175 C 0.66518 0.63644 0.61442 0.0
C1176 C 0.60872 0.69921 0.66864 0.0
O1177 O 0.65267 0.67224 0.66895 0.0
O1178 O 0.66892 0.67947 0.69942 0.0
O1179 O 0.36437 0.39962 0.42672 0.0
Mn1180 Mn 0.37313 0.42636 0.40795 0.0
O1181 O 0.35059 0.37273 0.40351 0.0
Mn1182 Mn 0.35089 0.38853 0.37821 0.0
O1183 O 0.38339 0.45252 0.38854 0.0
O1184 O 0.396 0.43694 0.42983 0.0
Mn1185 Mn 0.3978 0.46548 0.43464 0.0
O1186 O 0.34942 0.44413 0.42357 0.0
O1187 O 0.40833 0.47472 0.40811 0.0
O1188 O 0.39726 0.40925 0.39124 0.0
O1189 O 0.3781 0.39079 0.36405 0.0
O1190 O 0.41427 0.45288 0.45623 0.0
O1191 O 0.36859 0.47239 0.44123 0.0
C1192 C 0.3307 0.41667 0.37643 0.0
C1193 C 0.35679 0.37978 0.42242 0.0
C1194 C 0.39915 0.46812 0.39014 0.0
C1195 C 0.40696 0.43439 0.4472 0.0
C1196 C 0.35015 0.46168 0.43547 0.0
C1197 C 0.3964 0.39904 0.37276 0.0
O1198 O 0.34931 0.41592 0.38673 0.0
O1199 O 0.32461 0.39835 0.36642 0.0
C1200 C 0.02699 0.28653 0.31743 0.0
C1201 C 0.04354 0.30398 0.32087 0.0
C1202 C 0.0253 0.27506 0.29752 0.0
C1203 C 0.03893 0.28112 0.24043 0.0
H1204 H 0.04898 0.21937 0.23842 0.0
C1205 C 0.09418 0.24288 0.17956 0.0
C1206 C 0.09179 0.22037 0.17458 0.0
C1207 C 0.07846 0.25253 0.1925 0.0
C1208 C 0.04538 0.23643 0.23852 0.0
H1209 H 0.0712 0.32303 0.30603 0.0
H1210 H 0.06806 0.30326 0.27151 0.0
H1211 H 0.04049 0.23728 0.27273 0.0
H1212 H 0.07021 0.19056 0.17732 0.0
H1213 H 0.04256 0.20744 0.20034 0.0
H1214 H 0.04495 0.28065 0.20649 0.0
C1215 C 0.0564 0.29847 0.28416 0.0
C1216 C 0.04064 0.24669 0.25824 0.0
C1217 C 0.05836 0.30961 0.30405 0.0
C1218 C 0.07226 0.20801 0.1809 0.0
C1219 C 0.0566 0.21763 0.1942 0.0
C1220 C 0.04343 0.27086 0.22072 0.0
C1221 C 0.03978 0.28122 0.28063 0.0
C1222 C 0.03864 0.26935 0.25949 0.0
C1223 C 0.06018 0.23977 0.20101 0.0
C1224 C 0.04805 0.24869 0.21976 0.0
H1225 H 0.0153 0.28182 0.33006 0.0
H1226 H 0.01249 0.26166 0.29519 0.0
H1227 H 0.03705 0.29858 0.24098 0.0
H1228 H 0.10921 0.25265 0.17493 0.0
H1229 H 0.08194 0.26955 0.19751 0.0
C1230 C 0.05034 0.8347 0.62117 0.0
C1231 C 0.05292 0.81364 0.62849 0.0
C1232 C 0.05941 0.84114 0.60148 0.0
C1233 C 0.09406 0.82437 0.55452 0.0
H1234 H 0.04996 0.85508 0.5237 0.0
C1235 C 0.10946 0.86322 0.47134 0.0
C1236 C 0.09073 0.8658 0.4581 0.0
C1237 C 0.10676 0.85321 0.49119 0.0
C1238 C 0.06233 0.84614 0.53184 0.0
H1239 H 0.06834 0.7833 0.62197 0.0
H1240 H 0.08361 0.7942 0.58713 0.0
H1241 H 0.0438 0.84683 0.561 0.0
H1242 H 0.05481 0.85875 0.4543 0.0
H1243 H 0.05006 0.84035 0.48849 0.0
H1244 H 0.11216 0.82312 0.52477 0.0
C1245 C 0.07505 0.80601 0.59673 0.0
C1246 C 0.05905 0.84186 0.55353 0.0
C1247 C 0.06639 0.79976 0.61675 0.0
C1248 C 0.06949 0.85685 0.46425 0.0
C1249 C 0.0668 0.84657 0.48394 0.0
C1250 C 0.09728 0.82853 0.5326 0.0
C1251 C 0.07061 0.82636 0.58836 0.0
C1252 C 0.07494 0.83115 0.56529 0.0
C1253 C 0.0852 0.84565 0.49817 0.0
C1254 C 0.08144 0.83955 0.52101 0.0
H1255 H 0.04003 0.84568 0.62999 0.0
H1256 H 0.05638 0.85725 0.59594 0.0
H1257 H 0.10663 0.81604 0.56304 0.0
H1258 H 0.12592 0.87052 0.46716 0.0
H1259 H 0.1213 0.85294 0.50169 0.0
C1260 C 0.49543 0.88061 0.83333 0.0
C1261 C 0.51789 0.87515 0.83428 0.0
C1262 C 0.4877 0.89181 0.81575 0.0
C1263 C 0.49491 0.89332 0.7591 0.0
H1264 H 0.45889 0.94336 0.76103 0.0
C1265 C 0.43689 0.90655 0.68808 0.0
C1266 C 0.41497 0.90951 0.69503 0.0
C1267 C 0.45507 0.91055 0.70255 0.0
C1268 C 0.46889 0.92934 0.76015 0.0
H1269 H 0.55007 0.87812 0.81783 0.0
H1270 H 0.53627 0.89699 0.78702 0.0
H1271 H 0.47912 0.93377 0.79334 0.0
H1272 H 0.39482 0.9207 0.72141 0.0
H1273 H 0.42584 0.92732 0.74645 0.0
H1274 H 0.48318 0.88739 0.72677 0.0
C1275 C 0.52482 0.89284 0.80002 0.0
C1276 C 0.48052 0.92396 0.77865 0.0
C1277 C 0.53266 0.88207 0.81774 0.0
C1278 C 0.41166 0.91834 0.71574 0.0
C1279 C 0.42962 0.9223 0.73009 0.0
C1280 C 0.48283 0.89834 0.74076 0.0
C1281 C 0.50218 0.8974 0.79866 0.0
C1282 C 0.49303 0.90549 0.77844 0.0
C1283 C 0.45144 0.9174 0.72411 0.0
C1284 C 0.46885 0.91586 0.7413 0.0
H1285 H 0.48364 0.87557 0.84577 0.0
H1286 H 0.47009 0.89503 0.81494 0.0
H1287 H 0.50445 0.87896 0.75858 0.0
H1288 H 0.43974 0.89966 0.67214 0.0
H1289 H 0.47172 0.90705 0.69721 0.0
C1290 C 0.46827 0.22951 0.11149 0.0
C1291 C 0.46462 0.25006 0.12065 0.0
C1292 C 0.45984 0.22351 0.09095 0.0
C1293 C 0.42561 0.24184 0.04479 0.0
H1294 H 0.46923 0.21106 0.0121 0.0
C1295 C 0.45058 0.2116 0.95225 0.0
C1296 C 0.42902 0.20434 0.94472 0.0
C1297 C 0.45347 0.22117 0.97288 0.0
C1298 C 0.45704 0.2201 0.02077 0.0
H1299 H 0.44898 0.28034 0.11614 0.0
H1300 H 0.43501 0.27037 0.07996 0.0
H1301 H 0.47501 0.21776 0.0502 0.0
H1302 H 0.39352 0.20202 0.95218 0.0
H1303 H 0.39846 0.21804 0.98837 0.0
H1304 H 0.4083 0.2451 0.01485 0.0
C1305 C 0.44356 0.25841 0.08873 0.0
C1306 C 0.46005 0.22343 0.04291 0.0
C1307 C 0.45155 0.26416 0.10949 0.0
C1308 C 0.41028 0.20801 0.95751 0.0
C1309 C 0.41317 0.21714 0.97833 0.0
C1310 C 0.42277 0.23881 0.02245 0.0
C1311 C 0.44848 0.23839 0.07882 0.0
C1312 C 0.44432 0.23416 0.05531 0.0
C1313 C 0.43491 0.22287 0.98666 0.0
C1314 C 0.43845 0.22782 0.01015 0.0
H1315 H 0.47847 0.2185 0.11983 0.0
H1316 H 0.4633 0.20764 0.08417 0.0
H1317 H 0.41308 0.25012 0.05378 0.0
H1318 H 0.46525 0.20881 0.94262 0.0
H1319 H 0.47041 0.22611 0.97843 0.0
C1320 C 0.03615 0.82446 0.18672 0.0
C1321 C 0.04671 0.80803 0.17531 0.0
C1322 C 0.04384 0.83155 0.20725 0.0
C1323 C 0.07227 0.81005 0.25362 0.0
H1324 H 0.07564 0.87004 0.27584 0.0
C1325 C 0.11552 0.8378 0.33387 0.0
C1326 C 0.10691 0.85482 0.3462 0.0
C1327 C 0.10577 0.83104 0.31406 0.0
C1328 C 0.07439 0.85316 0.26996 0.0
H1329 H 0.07348 0.78617 0.17605 0.0
H1330 H 0.08726 0.79875 0.21188 0.0
H1331 H 0.06565 0.86207 0.23802 0.0
H1332 H 0.08055 0.8772 0.34799 0.0
H1333 H 0.06321 0.8652 0.31341 0.0
H1334 H 0.08109 0.8011 0.28544 0.0
C1335 C 0.07307 0.80619 0.205 0.0
C1336 C 0.06881 0.84863 0.24828 0.0
C1337 C 0.06538 0.79915 0.18446 0.0
C1338 C 0.08741 0.86394 0.33896 0.0
C1339 C 0.0777 0.85727 0.31901 0.0
C1340 C 0.07781 0.81457 0.27526 0.0
C1341 C 0.06193 0.82197 0.21688 0.0
C1342 C 0.06796 0.82704 0.23982 0.0
C1343 C 0.08722 0.84121 0.30606 0.0
C1344 C 0.07917 0.83619 0.28364 0.0
H1345 H 0.02116 0.83092 0.18029 0.0
H1346 H 0.03476 0.84356 0.21605 0.0
H1347 H 0.07117 0.79317 0.24774 0.0
H1348 H 0.13053 0.83042 0.33904 0.0
H1349 H 0.11361 0.81871 0.30447 0.0
C1350 C 0.45584 0.78405 0.45718 0.0
C1351 C 0.47156 0.7962 0.44454 0.0
C1352 C 0.45009 0.79187 0.47769 0.0
C1353 C 0.4738 0.82719 0.52195 0.0
H1354 H 0.41243 0.83256 0.54054 0.0
C1355 C 0.45003 0.89106 0.58396 0.0
C1356 C 0.43065 0.88757 0.59646 0.0
C1357 C 0.45651 0.87473 0.56974 0.0
C1358 C 0.42967 0.83063 0.53588 0.0
H1359 H 0.4928 0.82656 0.44334 0.0
H1360 H 0.48282 0.84003 0.47901 0.0
H1361 H 0.41947 0.81476 0.5057 0.0
H1362 H 0.40379 0.86384 0.60532 0.0
H1363 H 0.41508 0.83501 0.58019 0.0
H1364 H 0.48412 0.84337 0.55179 0.0
C1365 C 0.47512 0.82438 0.47309 0.0
C1366 C 0.43367 0.82058 0.51585 0.0
C1367 C 0.48064 0.81674 0.45254 0.0
C1368 C 0.41891 0.86681 0.59591 0.0
C1369 C 0.42523 0.85045 0.58137 0.0
C1370 C 0.46984 0.837 0.54202 0.0
C1371 C 0.4602 0.81182 0.48606 0.0
C1372 C 0.45577 0.81955 0.50838 0.0
C1373 C 0.4436 0.85459 0.56751 0.0
C1374 C 0.44773 0.83964 0.54886 0.0
H1375 H 0.44847 0.76819 0.4515 0.0
H1376 H 0.43844 0.78195 0.48734 0.0
H1377 H 0.49102 0.82613 0.51677 0.0
H1378 H 0.45925 0.90701 0.58404 0.0
H1379 H 0.4706 0.87866 0.55923 0.0
C1380 C 0.46013 0.2661 0.67386 0.0
C1381 C 0.47654 0.25536 0.66246 0.0
C1382 C 0.45113 0.25756 0.69278 0.0
C1383 C 0.46786 0.22495 0.73757 0.0
H1384 H 0.40677 0.23163 0.75631 0.0
C1385 C 0.43204 0.1992 0.82116 0.0
C1386 C 0.41651 0.21268 0.83057 0.0
C1387 C 0.44081 0.20359 0.80073 0.0
C1388 C 0.42397 0.22989 0.7514 0.0
H1389 H 0.49539 0.2265 0.66108 0.0
H1390 H 0.47949 0.21135 0.69429 0.0
H1391 H 0.41676 0.23795 0.71893 0.0
H1392 H 0.39917 0.24214 0.82673 0.0
H1393 H 0.41481 0.25011 0.79137 0.0
H1394 H 0.47505 0.21711 0.77023 0.0
C1395 C 0.47374 0.22652 0.68861 0.0
C1396 C 0.42964 0.23337 0.72993 0.0
C1397 C 0.4826 0.23501 0.66946 0.0
C1398 C 0.41114 0.23147 0.81986 0.0
C1399 C 0.41988 0.23588 0.79951 0.0
C1400 C 0.46215 0.22141 0.75911 0.0
C1401 C 0.45848 0.23811 0.70085 0.0
C1402 C 0.45175 0.23137 0.72284 0.0
C1403 C 0.43407 0.22149 0.78933 0.0
C1404 C 0.44024 0.22432 0.76635 0.0
H1405 H 0.45522 0.28186 0.66886 0.0
H1406 H 0.43954 0.267 0.70183 0.0
H1407 H 0.48512 0.22354 0.73269 0.0
H1408 H 0.43589 0.18425 0.82868 0.0
H1409 H 0.45163 0.19214 0.7933 0.0
C1410 C 0.05655 0.22946 0.93788 0.0
C1411 C 0.05304 0.25068 0.9313 0.0
C1412 C 0.07055 0.22635 0.95543 0.0
C1413 C 0.08764 0.2533 0.00633 0.0
H1414 H 0.12157 0.20219 0.0114 0.0
C1415 C 0.08839 0.20186 0.08109 0.0
C1416 C 0.10659 0.18936 0.08509 0.0
C1417 C 0.0891 0.2162 0.06401 0.0
C1418 C 0.11266 0.21687 0.01032 0.0
H1419 H 0.06249 0.28524 0.93727 0.0
H1420 H 0.08689 0.27974 0.96819 0.0
H1421 H 0.11045 0.21348 0.97593 0.0
H1422 H 0.14019 0.18258 0.07536 0.0
H1423 H 0.14169 0.20793 0.04556 0.0
H1424 H 0.08897 0.25608 0.04083 0.0
C1425 C 0.07875 0.26556 0.95969 0.0
C1426 C 0.10608 0.22319 0.98994 0.0
C1427 C 0.0649 0.26868 0.9419 0.0
C1428 C 0.12614 0.19245 0.07276 0.0
C1429 C 0.12686 0.20674 0.05558 0.0
C1430 C 0.09418 0.24694 0.02675 0.0
C1431 C 0.08125 0.24437 0.96697 0.0
C1432 C 0.09266 0.24089 0.98779 0.0
C1433 C 0.10791 0.21796 0.05037 0.0
C1434 C 0.10593 0.22809 0.02903 0.0
H1435 H 0.04772 0.21525 0.93001 0.0
H1436 H 0.07191 0.20982 0.96073 0.0
H1437 H 0.07727 0.267 0.00524 0.0
H1438 H 0.07294 0.19923 0.09009 0.0
H1439 H 0.07409 0.22431 0.06034 0.0
C1440 C 0.32418 0.06654 0.21688 0.0
C1441 C 0.33722 0.08049 0.23133 0.0
C1442 C 0.30411 0.07308 0.20821 0.0
C1443 C 0.2609 0.11078 0.22223 0.0
H1444 H 0.2371 0.09635 0.16484 0.0
C1445 C 0.17591 0.13879 0.2008 0.0
C1446 C 0.17573 0.15019 0.18162 0.0
C1447 C 0.19242 0.1243 0.20443 0.0
C1448 C 0.2435 0.10045 0.18095 0.0
H1449 H 0.34044 0.11298 0.24643 0.0
H1450 H 0.3059 0.1246 0.23086 0.0
H1451 H 0.27441 0.08558 0.17486 0.0
H1452 H 0.19156 0.15462 0.15064 0.0
H1453 H 0.22061 0.12967 0.15696 0.0
H1454 H 0.23083 0.12645 0.22823 0.0
C1455 C 0.31073 0.1083 0.2268 0.0
C1456 C 0.26484 0.0942 0.18671 0.0
C1457 C 0.33065 0.10171 0.2356 0.0
C1458 C 0.191 0.1455 0.16533 0.0
C1459 C 0.20778 0.13128 0.16907 0.0
C1460 C 0.23976 0.11705 0.21649 0.0
C1461 C 0.29676 0.09376 0.21371 0.0
C1462 C 0.27393 0.09966 0.20733 0.0
C1463 C 0.20952 0.12159 0.18922 0.0
C1464 C 0.23081 0.11221 0.19572 0.0
H1465 H 0.32871 0.05004 0.21328 0.0
H1466 H 0.29377 0.06148 0.19819 0.0
H1467 H 0.2671 0.1148 0.23841 0.0
H1468 H 0.16441 0.1424 0.21366 0.0
H1469 H 0.19283 0.11659 0.21988 0.0
C1470 C 0.24566 0.10544 0.49276 0.0
C1471 C 0.23183 0.11823 0.50531 0.0
C1472 C 0.23659 0.08642 0.48191 0.0
C1473 C 0.21554 0.03955 0.47529 0.0
H1474 H 0.1551 0.03621 0.45135 0.0
C1475 C 0.13564 0.97315 0.45869 0.0
C1476 C 0.144 0.95736 0.44461 0.0
C1477 C 0.1487 0.99227 0.46438 0.0
C1478 C 0.17201 0.03691 0.45798 0.0
H1479 H 0.19814 0.12104 0.51722 0.0
H1480 H 0.18213 0.08787 0.49831 0.0
H1481 H 0.17337 0.07171 0.46263 0.0
H1482 H 0.17331 0.94859 0.42668 0.0
H1483 H 0.19642 0.98226 0.43698 0.0
H1484 H 0.21388 0.00455 0.47083 0.0
C1485 C 0.19982 0.09277 0.49622 0.0
C1486 C 0.18245 0.05721 0.46445 0.0
C1487 C 0.20892 0.11168 0.50712 0.0
C1488 C 0.16639 0.96045 0.43757 0.0
C1489 C 0.17958 0.97972 0.44337 0.0
C1490 C 0.20509 0.01917 0.46867 0.0
C1491 C 0.21359 0.07978 0.48369 0.0
C1492 C 0.20404 0.05869 0.47381 0.0
C1493 C 0.17049 0.9961 0.45622 0.0
C1494 C 0.18296 0.01764 0.4606 0.0
H1495 H 0.26357 0.10988 0.4918 0.0
H1496 H 0.24761 0.0768 0.47236 0.0
H1497 H 0.23215 0.04014 0.48255 0.0
H1498 H 0.11859 0.97117 0.46469 0.0
H1499 H 0.1415 0.00439 0.47478 0.0
C1500 C 0.16043 0.00932 0.68715 0.0
C1501 C 0.15497 0.00612 0.70888 0.0
C1502 C 0.17821 0.99885 0.67778 0.0
C1503 C 0.21907 0.95681 0.68736 0.0
H1504 H 0.2619 0.99857 0.6609 0.0
C1505 C 0.31275 0.94533 0.68883 0.0
C1506 C 0.32377 0.94574 0.66891 0.0
C1507 C 0.29145 0.95306 0.69086 0.0
C1508 C 0.25 0.98669 0.66804 0.0
H1509 H 0.16204 0.98777 0.73708 0.0
H1510 H 0.19273 0.96951 0.72089 0.0
H1511 H 0.22352 0.00838 0.66781 0.0
H1512 H 0.32128 0.95488 0.63565 0.0
H1513 H 0.28438 0.96952 0.63944 0.0
H1514 H 0.24588 0.93557 0.68854 0.0
C1515 C 0.18354 0.98007 0.71096 0.0
C1516 C 0.22797 0.99219 0.67184 0.0
C1517 C 0.16592 0.99058 0.72031 0.0
C1518 C 0.31363 0.95523 0.65137 0.0
C1519 C 0.29234 0.96323 0.65345 0.0
C1520 C 0.24108 0.95144 0.68378 0.0
C1521 C 0.19062 0.98488 0.68994 0.0
C1522 C 0.21243 0.97753 0.68213 0.0
C1523 C 0.28072 0.96139 0.67301 0.0
C1524 C 0.25692 0.96656 0.67467 0.0
H1525 H 0.1523 0.02127 0.67796 0.0
H1526 H 0.183 0.00258 0.66142 0.0
H1527 H 0.20743 0.94498 0.6949 0.0
H1528 H 0.32014 0.938 0.70258 0.0
H1529 H 0.28299 0.95182 0.70622 0.0
C1530 C 0.2591 0.97329 0.95946 0.0
C1531 C 0.27136 0.95997 0.97254 0.0
C1532 C 0.2694 0.99249 0.95109 0.0
C1533 C 0.32533 0.02075 0.94069 0.0
H1534 H 0.29459 0.07419 0.94679 0.0
C1535 C 0.37466 0.10316 0.94138 0.0
C1536 C 0.36834 0.1182 0.92626 0.0
C1537 C 0.36024 0.08507 0.94621 0.0
C1538 C 0.30321 0.05934 0.94477 0.0
H1539 H 0.30432 0.95609 0.98634 0.0
H1540 H 0.32211 0.98938 0.97192 0.0
H1541 H 0.27471 0.03894 0.95515 0.0
H1542 H 0.3411 0.12723 0.90589 0.0
H1543 H 0.31558 0.09522 0.91447 0.0
H1544 H 0.354 0.0411 0.93104 0.0
C1545 C 0.30459 0.98497 0.96796 0.0
C1546 C 0.29187 0.03917 0.94946 0.0
C1547 C 0.29433 0.96588 0.97635 0.0
C1548 C 0.34643 0.11581 0.91751 0.0
C1549 C 0.33189 0.09753 0.92236 0.0
C1550 C 0.33664 0.04081 0.93617 0.0
C1551 C 0.29219 0.99868 0.9555 0.0
C1552 C 0.30303 0.01972 0.94799 0.0
C1553 C 0.33914 0.08155 0.93606 0.0
C1554 C 0.32591 0.06035 0.9387 0.0
H1555 H 0.24137 0.96928 0.95618 0.0
H1556 H 0.25947 0.00257 0.94135 0.0
H1557 H 0.33424 0.00605 0.93888 0.0
H1558 H 0.39127 0.10474 0.94872 0.0
H1559 H 0.366 0.0733 0.95725 0.0
C1560 C 0.31909 0.03157 0.31526 0.0
C1561 C 0.32769 0.02232 0.29628 0.0
C1562 C 0.29797 0.02413 0.32295 0.0
C1563 C 0.24406 0.99544 0.30501 0.0
H1564 H 0.23523 0.98548 0.36584 0.0
C1565 C 0.17382 0.93749 0.33831 0.0
C1566 C 0.16645 0.94071 0.35949 0.0
C1567 C 0.18957 0.9525 0.32931 0.0
C1568 C 0.23717 0.9887 0.34887 0.0
H1569 H 0.32094 0.99752 0.27087 0.0
H1570 H 0.28419 0.98437 0.2845 0.0
H1571 H 0.27178 0.00011 0.35333 0.0
H1572 H 0.16811 0.96286 0.38734 0.0
H1573 H 0.19547 0.98954 0.3715 0.0
H1574 H 0.20956 0.98354 0.30049 0.0
C1575 C 0.29371 0.99763 0.29321 0.0
C1576 C 0.25824 0.99694 0.34168 0.0
C1577 C 0.31491 0.00499 0.28555 0.0
C1578 C 0.17333 0.96024 0.37083 0.0
C1579 C 0.18925 0.97529 0.36187 0.0
C1580 C 0.22295 0.98726 0.31221 0.0
C1581 C 0.28487 0.00733 0.31183 0.0
C1582 C 0.26207 -6e-05 0.31961 0.0
C1583 C 0.19844 0.97095 0.34145 0.0
C1584 C 0.21939 0.98331 0.33418 0.0
H1585 H 0.32845 0.04493 0.32398 0.0
H1586 H 0.29163 0.032 0.3373 0.0
H1587 H 0.24634 0.99803 0.28796 0.0
H1588 H 0.16899 0.92231 0.32944 0.0
H1589 H 0.19631 0.94848 0.31364 0.0
C1590 C 0.28191 0.12211 0.60024 0.0
C1591 C 0.29457 0.1299 0.58265 0.0
C1592 C 0.28847 0.10414 0.61149 0.0
C1593 C 0.29698 0.05489 0.61307 0.0
H1594 H 0.35866 0.0461 0.62863 0.0
C1595 C 0.34104 0.97631 0.59738 0.0
C1596 C 0.35805 0.97102 0.61154 0.0
C1597 C 0.32867 0.99437 0.60191 0.0
C1598 C 0.34122 0.0483 0.62487 0.0
H1599 H 0.32475 0.12629 0.56407 0.0
H1600 H 0.33672 0.0956 0.58424 0.0
H1601 H 0.3479 0.083 0.62234 0.0
H1602 H 0.37522 0.9799 0.64174 0.0
H1603 H 0.35359 0.01146 0.64973 0.0
H1604 H 0.29073 0.01995 0.61405 0.0
C1605 C 0.32163 0.10313 0.58921 0.0
C1606 C 0.33513 0.06943 0.62114 0.0
C1607 C 0.3148 0.12067 0.57766 0.0
C1608 C 0.36164 0.98323 0.63093 0.0
C1609 C 0.34947 0.00144 0.63536 0.0
C1610 C 0.30315 0.03367 0.61652 0.0
C1611 C 0.30808 0.09413 0.60566 0.0
C1612 C 0.31317 0.07283 0.61447 0.0
C1613 C 0.3336 0.00778 0.6204 0.0
C1614 C 0.32554 0.03011 0.62172 0.0
H1615 H 0.26606 0.12877 0.6042 0.0
H1616 H 0.27775 0.09748 0.62412 0.0
H1617 H 0.27996 0.05705 0.60779 0.0
H1618 H 0.33847 0.96749 0.58206 0.0
H1619 H 0.31677 0.999 0.58993 0.0
C1620 C 0.19084 0.07001 0.78163 0.0
C1621 C 0.18322 0.08177 0.76436 0.0
C1622 C 0.21251 0.07472 0.79004 0.0
C1623 C 0.26089 0.11685 0.78955 0.0
H1624 H 0.29367 0.07003 0.81202 0.0
C1625 C 0.33729 0.11703 0.85008 0.0
C1626 C 0.35142 0.13329 0.84052 0.0
C1627 C 0.32013 0.10553 0.83796 0.0
C1628 C 0.28472 0.08317 0.80562 0.0
H1629 H 0.19247 0.10653 0.7413 0.0
H1630 H 0.23061 0.11442 0.7554 0.0
H1631 H 0.2558 0.06176 0.797 0.0
H1632 H 0.36054 0.14876 0.81066 0.0
H1633 H 0.33077 0.12851 0.78937 0.0
H1634 H 0.28986 0.13817 0.79795 0.0
C1635 C 0.21961 0.1023 0.76327 0.0
C1636 C 0.26294 0.07855 0.79726 0.0
C1637 C 0.19782 0.09778 0.75511 0.0
C1638 C 0.35003 0.13601 0.81823 0.0
C1639 C 0.33285 0.12464 0.80615 0.0
C1640 C 0.28271 0.12136 0.7975 0.0
C1641 C 0.22729 0.09079 0.78083 0.0
C1642 C 0.25066 0.0954 0.78929 0.0
C1643 C 0.31687 0.11043 0.81625 0.0
C1644 C 0.29479 0.10462 0.80574 0.0
H1645 H 0.18019 0.05686 0.78836 0.0
H1646 H 0.21765 0.06569 0.80371 0.0
H1647 H 0.25186 0.13036 0.78409 0.0
H1648 H 0.33783 0.11502 0.86734 0.0
H1649 H 0.30799 0.09469 0.84613 0.0
C1650 C 0.20663 0.97424 0.04117 0.0
C1651 C 0.22223 0.95952 0.04749 0.0
C1652 C 0.20466 0.99379 0.05283 0.0
C1653 C 0.21179 0.02103 0.10508 0.0
H1654 H 0.20964 0.07337 0.0717 0.0
C1655 C 0.18556 0.11681 0.11188 0.0
C1656 C 0.16365 0.11183 0.11933 0.0
C1657 C 0.19974 0.09991 0.10786 0.0
C1658 C 0.21078 0.05909 0.08139 0.0
H1659 H 0.24722 0.95342 0.07174 0.0
H1660 H 0.24319 0.98754 0.09253 0.0
H1661 H 0.22008 0.03945 0.05425 0.0
H1662 H 0.13997 0.08612 0.13042 0.0
H1663 H 0.16462 0.05686 0.12382 0.0
H1664 H 0.20112 0.04041 0.13193 0.0
C1665 C 0.23284 0.98392 0.07827 0.0
C1666 C 0.21647 0.03961 0.07134 0.0
C1667 C 0.23507 0.9644 0.06639 0.0
C1668 C 0.15678 0.09023 0.12445 0.0
C1669 C 0.17099 0.07353 0.12089 0.0
C1670 C 0.20586 0.0405 0.11511 0.0
C1671 C 0.21802 0.99901 0.07124 0.0
C1672 C 0.21614 0.02023 0.08288 0.0
C1673 C 0.19226 0.07802 0.11175 0.0
C1674 C 0.20443 0.05948 0.10314 0.0
H1675 H 0.19644 0.97109 0.02674 0.0
H1676 H 0.19275 0.00496 0.04734 0.0
H1677 H 0.2115 0.00631 0.11433 0.0
H1678 H 0.19116 0.13344 0.10794 0.0
H1679 H 0.21611 0.10379 0.10085 0.0
C1680 C 0.24525 0.36996 0.03731 0.0
C1681 C 0.26535 0.3765 0.04857 0.0
C1682 C 0.23294 0.3503 0.04201 0.0
C1683 C 0.24068 0.29653 0.06339 0.0
H1684 H 0.17753 0.29374 0.07849 0.0
C1685 C 0.2002 0.2299 0.11578 0.0
C1686 C 0.17728 0.22317 0.11342 0.0
C1687 C 0.21016 0.24607 0.10286 0.0
C1688 C 0.19502 0.29405 0.07379 0.0
H1689 H 0.28789 0.36767 0.07398 0.0
H1690 H 0.26657 0.3335 0.08191 0.0
H1691 H 0.19597 0.328 0.06599 0.0
H1692 H 0.14676 0.22789 0.09576 0.0
H1693 H 0.16431 0.25571 0.0724 0.0
H1694 H 0.24 0.2628 0.07136 0.0
C1695 C 0.26042 0.34352 0.06941 0.0
C1696 C 0.20558 0.31373 0.06675 0.0
C1697 C 0.27251 0.36323 0.06497 0.0
C1698 C 0.16465 0.23223 0.09729 0.0
C1699 C 0.17461 0.24848 0.08427 0.0
C1700 C 0.23012 0.27684 0.07016 0.0
C1701 C 0.24073 0.3367 0.05778 0.0
C1702 C 0.22868 0.3153 0.06222 0.0
C1703 C 0.19737 0.25601 0.08732 0.0
C1704 C 0.20736 0.27556 0.0762 0.0
H1705 H 0.23924 0.37981 0.02461 0.0
H1706 H 0.21773 0.34541 0.03289 0.0
H1707 H 0.25844 0.29724 0.05958 0.0
H1708 H 0.21021 0.22332 0.12832 0.0
H1709 H 0.22759 0.25166 0.10598 0.0
C1710 C 0.66393 0.19679 0.00086 0.0
C1711 C 0.67977 0.18941 0.98619 0.0
C1712 C 0.65164 0.21466 0.99598 0.0
C1713 C 0.63586 0.25038 0.95222 0.0
H1714 H 0.65087 0.29875 0.99285 0.0
C1715 C 0.62793 0.33726 0.92585 0.0
C1716 C 0.64897 0.34922 0.92729 0.0
C1717 C 0.62339 0.31889 0.93841 0.0
C1718 C 0.64617 0.28536 0.98152 0.0
H1719 H 0.69397 0.19358 0.95445 0.0
H1720 H 0.67192 0.22402 0.94555 0.0
H1721 H 0.65718 0.26136 0.0028 0.0
H1722 H 0.6812 0.35235 0.94364 0.0
H1723 H 0.67322 0.32066 0.96597 0.0
H1724 H 0.62625 0.27436 0.9304 0.0
C1725 C 0.66906 0.21628 0.96086 0.0
C1726 C 0.64963 0.26394 0.98725 0.0
C1727 C 0.6817 0.19885 0.96592 0.0
C1728 C 0.66464 0.34372 0.94273 0.0
C1729 C 0.66004 0.3255 0.95545 0.0
C1730 C 0.63218 0.27173 0.94657 0.0
C1731 C 0.65462 0.22498 0.97616 0.0
C1732 C 0.64546 0.24638 0.97228 0.0
C1733 C 0.63988 0.31216 0.95253 0.0
C1734 C 0.63824 0.28957 0.96079 0.0
H1735 H 0.66243 0.19 0.01673 0.0
H1736 H 0.64061 0.22105 0.00805 0.0
H1737 H 0.63243 0.23714 0.94041 0.0
H1738 H 0.61583 0.34086 0.91361 0.0
H1739 H 0.60766 0.30904 0.93592 0.0
C1740 C 0.08298 0.51946 0.25997 0.0
C1741 C 0.09749 0.53238 0.24696 0.0
C1742 C 0.06357 0.50827 0.25115 0.0
C1743 C 0.03826 0.48767 0.1997 0.0
H1744 H 0.98072 0.49567 0.22663 0.0
C1745 C 0.95719 0.47558 0.15107 0.0
C1746 C 0.93828 0.46407 0.15992 0.0
C1747 C 0.97596 0.48207 0.16379 0.0
C1748 C 0.99667 0.49297 0.21911 0.0
H1749 H 0.10285 0.54481 0.21504 0.0
H1750 H 0.06916 0.52493 0.19937 0.0
H1751 H 0.01566 0.50945 0.24509 0.0
H1752 H 0.92369 0.45203 0.18959 0.0
H1753 H 0.95689 0.46328 0.21197 0.0
H1754 H 0.01949 0.47154 0.17361 0.0
C1755 C 0.07296 0.52303 0.21626 0.0
C1756 C 0.01664 0.50084 0.22966 0.0
C1757 C 0.09215 0.53442 0.22516 0.0
C1758 C 0.93816 0.46041 0.18219 0.0
C1759 C 0.9571 0.46694 0.19501 0.0
C1760 C 0.01839 0.47975 0.18924 0.0
C1761 C 0.05843 0.50993 0.22918 0.0
C1762 C 0.03756 0.49886 0.2197 0.0
C1763 C 0.97644 0.47726 0.18574 0.0
C1764 C 0.99735 0.48298 0.19846 0.0
H1765 H 0.08648 0.5183 0.27703 0.0
H1766 H 0.05263 0.49834 0.26145 0.0
H1767 H 0.05419 0.48551 0.19189 0.0
H1768 H 0.9579 0.47905 0.13408 0.0
H1769 H 0.99029 0.49066 0.1563 0.0
C1770 C 0.84837 0.88204 0.48487 0.0
C1771 C 0.85298 0.88809 0.50657 0.0
C1772 C 0.85551 0.86252 0.47601 0.0
C1773 C 0.87897 0.82333 0.45875 0.0
H1774 H 0.86352 0.77271 0.49328 0.0
C1775 C 0.88184 0.73708 0.42179 0.0
C1776 C 0.86144 0.7243 0.42388 0.0
C1777 C 0.88684 0.75552 0.43528 0.0
C1778 C 0.86811 0.78669 0.48352 0.0
H1779 H 0.87003 0.87885 0.53557 0.0
H1780 H 0.88244 0.84482 0.52003 0.0
H1781 H 0.86146 0.80954 0.50906 0.0
H1782 H 0.83046 0.72038 0.44173 0.0
H1783 H 0.83921 0.75242 0.46559 0.0
H1784 H 0.8845 0.80058 0.43289 0.0
C1785 C 0.87308 0.85513 0.50998 0.0
C1786 C 0.86711 0.80779 0.49259 0.0
C1787 C 0.8661 0.87475 0.5188 0.0
C1788 C 0.8466 0.72961 0.44031 0.0
C1789 C 0.85163 0.74799 0.4539 0.0
C1790 C 0.88008 0.80227 0.44972 0.0
C1791 C 0.86735 0.84851 0.48866 0.0
C1792 C 0.87188 0.82634 0.4801 0.0
C1793 C 0.87137 0.76167 0.45093 0.0
C1794 C 0.87403 0.7837 0.46181 0.0
H1795 H 0.83836 0.8919 0.47493 0.0
H1796 H 0.85067 0.85785 0.45956 0.0
H1797 H 0.88298 0.83728 0.44878 0.0
H1798 H 0.89315 0.73377 0.40868 0.0
H1799 H 0.90224 0.76564 0.43268 0.0
C1800 C 0.93775 0.03676 0.22231 0.0
C1801 C 0.92327 0.04313 0.23876 0.0
C1802 C 0.95837 0.04848 0.21916 0.0
C1803 C 0.00641 0.06679 0.22682 0.0
H1804 H 0.01037 0.1285 0.21403 0.0
C1805 C 0.07019 0.10466 0.16938 0.0
C1806 C 0.07939 0.12628 0.17251 0.0
C1807 C 0.05461 0.09556 0.18378 0.0
C1808 C 0.0097 0.11142 0.21816 0.0
H1809 H 0.91886 0.06747 0.26425 0.0
H1810 H 0.95494 0.08836 0.25824 0.0
H1811 H 0.97483 0.11089 0.22684 0.0
H1812 H 0.08048 0.15512 0.19366 0.0
H1813 H 0.05249 0.13922 0.21894 0.0
H1814 H 0.04086 0.06697 0.21736 0.0
C1815 C 0.95024 0.07403 0.24808 0.0
C1816 C 0.98934 0.10134 0.22538 0.0
C1817 C 0.92962 0.06207 0.25147 0.0
C1818 C 0.07362 0.13837 0.19099 0.0
C1819 C 0.05757 0.12934 0.20532 0.0
C1820 C 0.02671 0.07685 0.21977 0.0
C1821 C 0.96498 0.06702 0.23218 0.0
C1822 C 0.98729 0.07873 0.22882 0.0
C1823 C 0.0476 0.10796 0.20156 0.0
C1824 C 0.02828 0.09901 0.21439 0.0
H1825 H 0.9335 0.02231 0.21217 0.0
H1826 H 0.96924 0.04298 0.2065 0.0
H1827 H 0.00536 0.04941 0.22979 0.0
H1828 H 0.07442 0.09501 0.15526 0.0
H1829 H 0.04707 0.07918 0.18023 0.0
C1830 C 0.28796 0.72219 0.51646 0.0
C1831 C 0.27925 0.7087 0.53278 0.0
C1832 C 0.30168 0.74117 0.5217 0.0
C1833 C 0.33526 0.76913 0.56615 0.0
H1834 H 0.31446 0.82281 0.54432 0.0
C1835 C 0.35606 0.86524 0.58999 0.0
C1836 C 0.3478 0.86425 0.61117 0.0
C1837 C 0.35143 0.84751 0.57535 0.0
C1838 C 0.32088 0.80796 0.55007 0.0
H1839 H 0.27717 0.70449 0.56715 0.0
H1840 H 0.30134 0.73749 0.57645 0.0
H1841 H 0.30047 0.78739 0.52794 0.0
H1842 H 0.32677 0.84482 0.63301 0.0
H1843 H 0.31881 0.81425 0.60762 0.0
H1844 H 0.3543 0.78961 0.58932 0.0
C1845 C 0.29814 0.73321 0.5596 0.0
C1846 C 0.3129 0.78772 0.54077 0.0
C1847 C 0.28424 0.71443 0.55435 0.0
C1848 C 0.33367 0.84598 0.61694 0.0
C1849 C 0.32914 0.82845 0.60246 0.0
C1850 C 0.34315 0.78928 0.57544 0.0
C1851 C 0.30677 0.74694 0.54335 0.0
C1852 C 0.31921 0.7681 0.54944 0.0
C1853 C 0.33851 0.82876 0.58184 0.0
C1854 C 0.33526 0.80874 0.56807 0.0
H1855 H 0.28367 0.71833 0.49972 0.0
H1856 H 0.30802 0.7515 0.50889 0.0
H1857 H 0.34069 0.75428 0.57289 0.0
H1858 H 0.36708 0.87909 0.58515 0.0
H1859 H 0.35869 0.84802 0.5594 0.0
C1860 C 0.09564 0.60488 0.32668 0.0
C1861 C 0.10856 0.60988 0.30841 0.0
C1862 C 0.07803 0.61756 0.3326 0.0
C1863 C 0.04751 0.65459 0.34492 0.0
H1864 H 0.99944 0.64839 0.30217 0.0
C1865 C 0.96038 0.67578 0.36895 0.0
C1866 C 0.94633 0.65631 0.36835 0.0
C1867 C 0.97965 0.67763 0.35618 0.0
C1868 C 0.01286 0.65069 0.31407 0.0
H1869 H 0.11371 0.63243 0.28235 0.0
H1870 H 0.08227 0.65423 0.29235 0.0
H1871 H 0.03713 0.63777 0.29272 0.0
H1872 H 0.93992 0.62448 0.35262 0.0
H1873 H 0.97304 0.62796 0.32967 0.0
H1874 H 0.02319 0.66656 0.36657 0.0
C1875 C 0.08616 0.64076 0.30228 0.0
C1876 C 0.03438 0.64468 0.30868 0.0
C1877 C 0.10421 0.62841 0.2967 0.0
C1878 C 0.95023 0.63985 0.35295 0.0
C1879 C 0.9693 0.64182 0.33993 0.0
C1880 C 0.02618 0.66102 0.35017 0.0
C1881 C 0.07266 0.63513 0.32002 0.0
C1882 C 0.05163 0.64584 0.32431 0.0
C1883 C 0.98499 0.66007 0.34254 0.0
C1884 C 0.00841 0.65838 0.33505 0.0
H1885 H 0.09854 0.59058 0.33586 0.0
H1886 H 0.06774 0.61282 0.34627 0.0
H1887 H 0.06054 0.65555 0.35723 0.0
H1888 H 0.95792 0.68849 0.38106 0.0
H1889 H 0.9914 0.69192 0.35841 0.0
C1890 C 0.42746 0.45942 0.78572 0.0
C1891 C 0.42325 0.48122 0.79108 0.0
C1892 C 0.44722 0.45078 0.79279 0.0
C1893 C 0.5053 0.46699 0.80572 0.0
H1894 H 0.5052 0.41856 0.84441 0.0
C1895 C 0.57647 0.45765 0.86516 0.0
C1896 C 0.57945 0.43736 0.87411 0.0
C1897 C 0.56041 0.45943 0.84901 0.0
C1898 C 0.50572 0.43168 0.83309 0.0
H1899 H 0.43635 0.51089 0.80831 0.0
H1900 H 0.47095 0.4959 0.8202 0.0
H1901 H 0.4698 0.42845 0.82888 0.0
H1902 H 0.5689 0.40279 0.87258 0.0
H1903 H 0.54154 0.40556 0.84347 0.0
H1904 H 0.54105 0.47045 0.8098 0.0
C1905 C 0.45886 0.48552 0.81068 0.0
C1906 C 0.48535 0.43742 0.82437 0.0
C1907 C 0.43895 0.494 0.80405 0.0
C1908 C 0.56743 0.41852 0.86544 0.0
C1909 C 0.55137 0.42024 0.84911 0.0
C1910 C 0.5257 0.46101 0.81406 0.0
C1911 C 0.46331 0.46397 0.80487 0.0
C1912 C 0.48493 0.45564 0.8113 0.0
C1913 C 0.54683 0.4409 0.84151 0.0
C1914 C 0.52611 0.44388 0.82862 0.0
H1915 H 0.41568 0.44919 0.77574 0.0
H1916 H 0.4503 0.43407 0.78823 0.0
H1917 H 0.50537 0.48091 0.79536 0.0
H1918 H 0.5852 0.47247 0.87197 0.0
H1919 H 0.55736 0.47568 0.8439 0.0
C1920 C 0.01476 0.8294 0.73026 0.0
C1921 C 0.99573 0.82891 0.71671 0.0
C1922 C 0.01547 0.84167 0.74972 0.0
C1923 C 0.98636 0.88324 0.7818 0.0
H1924 H 0.99038 0.84312 0.82852 0.0
C1925 C 0.94382 0.89996 0.86227 0.0
C1926 C 0.92719 0.88287 0.86542 0.0
C1927 C 0.96173 0.89684 0.84826 0.0
C1928 C 0.98968 0.85473 0.81577 0.0
H1929 H 0.96356 0.84231 0.71181 0.0
H1930 H 0.96495 0.86394 0.74535 0.0
H1931 H 0.00471 0.83344 0.79305 0.0
H1932 H 0.91722 0.84871 0.85829 0.0
H1933 H 0.94869 0.84297 0.83454 0.0
H1934 H 0.96969 0.90374 0.80409 0.0
C1935 C 0.97928 0.85485 0.74116 0.0
C1936 C 0.99801 0.84927 0.79547 0.0
C1937 C 0.97839 0.84232 0.72199 0.0
C1938 C 0.92989 0.86211 0.85614 0.0
C1939 C 0.94799 0.85884 0.8426 0.0
C1940 C 0.97819 0.8888 0.80215 0.0
C1941 C 0.99738 0.85397 0.75566 0.0
C1942 C 0.99524 0.86289 0.77799 0.0
C1943 C 0.9635 0.8764 0.8377 0.0
C1944 C 0.97857 0.87398 0.81897 0.0
H1945 H 0.02832 0.8191 0.72661 0.0
H1946 H 0.02963 0.84072 0.76058 0.0
H1947 H 0.98424 0.89416 0.76866 0.0
H1948 H 0.94197 0.91616 0.86917 0.0
H1949 H 0.97344 0.91066 0.84477 0.0
C1950 C 0.95387 0.31332 0.41614 0.0
C1951 C 0.97132 0.32983 0.41952 0.0
C1952 C 0.94291 0.30354 0.43368 0.0
C1953 C 0.93754 0.30544 0.4939 0.0
H1954 H 0.93525 0.24235 0.48573 0.0
C1955 C 0.93312 0.24314 0.56382 0.0
C1956 C 0.91978 0.22353 0.5598 0.0
C1957 C 0.93637 0.25848 0.54752 0.0
C1958 C 0.93543 0.25993 0.48827 0.0
H1959 H 0.98928 0.3506 0.44391 0.0
H1960 H 0.97049 0.33338 0.47436 0.0
H1961 H 0.94435 0.26543 0.45558 0.0
H1962 H 0.89836 0.20507 0.53631 0.0
H1963 H 0.90354 0.23177 0.50828 0.0
H1964 H 0.9291 0.29959 0.52698 0.0
C1965 C 0.96513 0.32796 0.45824 0.0
C1966 C 0.94056 0.27323 0.47088 0.0
C1967 C 0.97597 0.33784 0.4407 0.0
C1968 C 0.90903 0.21992 0.53969 0.0
C1969 C 0.91204 0.23521 0.52362 0.0
C1970 C 0.93238 0.29204 0.51142 0.0
C1971 C 0.94928 0.30994 0.45498 0.0
C1972 C 0.94176 0.29617 0.4734 0.0
C1973 C 0.92618 0.25441 0.52708 0.0
C1974 C 0.93132 0.2691 0.50878 0.0
H1975 H 0.94972 0.30688 0.40004 0.0
H1976 H 0.9303 0.29011 0.43055 0.0
H1977 H 0.93826 0.32305 0.49642 0.0
H1978 H 0.94152 0.24627 0.57925 0.0
H1979 H 0.94741 0.27311 0.55066 0.0
C1980 C 0.52575 0.24121 0.21785 0.0
C1981 C 0.50365 0.23498 0.21084 0.0
C1982 C 0.53418 0.23287 0.23664 0.0
C1983 C 0.53258 0.18977 0.27419 0.0
H1984 H 0.55137 0.23629 0.31577 0.0
C1985 C 0.58226 0.17381 0.35221 0.0
C1986 C 0.60229 0.18747 0.3538 0.0
C1987 C 0.56518 0.17857 0.33782 0.0
C1988 C 0.5461 0.22309 0.30441 0.0
H1989 H 0.47372 0.21371 0.21722 0.0
H1990 H 0.48892 0.19869 0.24997 0.0
H1991 H 0.53229 0.245 0.28262 0.0
H1992 H 0.61947 0.2176 0.34305 0.0
H1993 H 0.58984 0.22611 0.31855 0.0
H1994 H 0.54781 0.16804 0.29536 0.0
C1995 C 0.4994 0.21034 0.24095 0.0
C1996 C 0.53521 0.22808 0.28548 0.0
C1997 C 0.49078 0.21895 0.22224 0.0
C1998 C 0.60426 0.20672 0.34207 0.0
C1999 C 0.58717 0.21165 0.3281 0.0
C2000 C 0.54381 0.18476 0.29311 0.0
C2001 C 0.52087 0.21786 0.24865 0.0
C2002 C 0.52907 0.21161 0.26991 0.0
C2003 C 0.56771 0.19737 0.32532 0.0
C2004 C 0.55143 0.20154 0.30801 0.0
H2005 H 0.53618 0.25348 0.20954 0.0
H2006 H 0.55091 0.23869 0.24221 0.0
H2007 H 0.52789 0.17683 0.26237 0.0
H2008 H 0.58036 0.15884 0.36108 0.0
H2009 H 0.55031 0.16731 0.33606 0.0
C2010 C 0.56775 0.83012 0.93079 0.0
C2011 C 0.56175 0.81114 0.91821 0.0
C2012 C 0.57765 0.82873 0.95104 0.0
C2013 C 0.60504 0.81942 0.99156 0.0
H2014 H 0.55774 0.7964 0.02918 0.0
C2015 C 0.60684 0.84326 0.08101 0.0
C2016 C 0.58943 0.85719 0.08398 0.0
C2017 C 0.60626 0.82826 0.06349 0.0
C2018 C 0.57141 0.8023 0.01893 0.0
H2019 H 0.56075 0.77573 0.91717 0.0
H2020 H 0.57702 0.7732 0.95345 0.0
H2021 H 0.55498 0.78846 0.9903 0.0
H2022 H 0.55633 0.86436 0.07294 0.0
H2023 H 0.55474 0.83757 0.04304 0.0
H2024 H 0.62073 0.83446 0.01996 0.0
C2025 C 0.57512 0.78918 0.94698 0.0
C2026 C 0.56987 0.79773 0.99673 0.0
C2027 C 0.56585 0.79064 0.92632 0.0
C2028 C 0.57006 0.85388 0.07094 0.0
C2029 C 0.56915 0.8385 0.05385 0.0
C2030 C 0.60681 0.8236 0.01379 0.0
C2031 C 0.58072 0.80824 0.95961 0.0
C2032 C 0.58609 0.8072 0.9828 0.0
C2033 C 0.58779 0.8265 0.04921 0.0
C2034 C 0.58941 0.81605 0.02752 0.0
H2035 H 0.56344 0.84599 0.92561 0.0
H2036 H 0.58125 0.84364 0.9607 0.0
H2037 H 0.61764 0.827 0.98108 0.0
H2038 H 0.62176 0.84546 0.09092 0.0
H2039 H 0.62082 0.81915 0.06026 0.0
C2040 C 0.98479 0.23884 0.83373 0.0
C2041 C 0.00679 0.24049 0.84212 0.0
C2042 C 0.98028 0.2299 0.81305 0.0
C2043 C 0.97516 0.20345 0.77031 0.0
H2044 H 0.00906 0.23694 0.72765 0.0
C2045 C 0.95023 0.19508 0.68119 0.0
C2046 C 0.94494 0.21519 0.67302 0.0
C2047 C 0.96334 0.19446 0.69987 0.0
C2048 C 0.99968 0.22724 0.73935 0.0
H2049 H 0.0414 0.2344 0.83546 0.0
H2050 H 0.03363 0.21929 0.79886 0.0
H2051 H 0.02027 0.24068 0.76569 0.0
H2052 H 0.94984 0.25038 0.67734 0.0
H2053 H 0.97338 0.2494 0.70971 0.0
H2054 H 0.95405 0.19064 0.74416 0.0
C2055 C 0.01979 0.22427 0.80861 0.0
C2056 C 0.00616 0.22926 0.76107 0.0
C2057 C 0.0242 0.23278 0.82953 0.0
C2058 C 0.95422 0.2347 0.68301 0.0
C2059 C 0.9676 0.23409 0.70156 0.0
C2060 C 0.96891 0.20116 0.74857 0.0
C2061 C 0.99786 0.22323 0.80002 0.0
C2062 C 0.99353 0.21789 0.77683 0.0
C2063 C 0.97143 0.21396 0.71071 0.0
C2064 C 0.98069 0.21353 0.73294 0.0
H2065 H 0.97129 0.24575 0.84259 0.0
H2066 H 0.96329 0.22968 0.8067 0.0
H2067 H 0.96516 0.19452 0.78214 0.0
H2068 H 0.94253 0.17985 0.67428 0.0
H2069 H 0.96596 0.17874 0.70659 0.0
C2070 C 0.57247 0.2615 0.57775 0.0
C2071 C 0.56676 0.28318 0.57583 0.0
C2072 C 0.58318 0.2509 0.56092 0.0
C2073 C 0.58639 0.24928 0.5027 0.0
H2074 H 0.63122 0.20813 0.51314 0.0
C2075 C 0.6077 0.1822 0.43917 0.0
C2076 C 0.60738 0.16131 0.4479 0.0
C2077 C 0.60781 0.20092 0.45282 0.0
C2078 C 0.61876 0.21961 0.5099 0.0
H2079 H 0.56847 0.31097 0.55489 0.0
H2080 H 0.58687 0.29218 0.52523 0.0
H2081 H 0.62264 0.23465 0.54143 0.0
H2082 H 0.60723 0.14351 0.47749 0.0
H2083 H 0.60768 0.17583 0.50114 0.0
H2084 H 0.58162 0.23343 0.47157 0.0
C2085 C 0.58311 0.28351 0.53989 0.0
C2086 C 0.61389 0.23481 0.5261 0.0
C2087 C 0.57266 0.29426 0.5569 0.0
C2088 C 0.60756 0.15944 0.47035 0.0
C2089 C 0.60805 0.17801 0.4839 0.0
C2090 C 0.59121 0.23398 0.48648 0.0
C2091 C 0.58822 0.26163 0.54164 0.0
C2092 C 0.59695 0.24914 0.52301 0.0
C2093 C 0.60803 0.19899 0.47537 0.0
C2094 C 0.60669 0.2183 0.4903 0.0
H2095 H 0.56829 0.25252 0.59213 0.0
H2096 H 0.58665 0.23395 0.56268 0.0
H2097 H 0.57324 0.26013 0.49986 0.0
H2098 H 0.60734 0.18402 0.42188 0.0
H2099 H 0.60777 0.21687 0.44576 0.0
C2100 C 0.49418 0.84236 0.33951 0.0
C2101 C 0.51233 0.84018 0.35366 0.0
C2102 C 0.49744 0.85343 0.32031 0.0
C2103 C 0.51525 0.85548 0.27495 0.0
H2104 H 0.55876 0.90417 0.26433 0.0
C2105 C 0.57206 0.86054 0.20097 0.0
C2106 C 0.57804 0.88099 0.19227 0.0
C2107 C 0.5579 0.85893 0.21879 0.0
C2108 C 0.54622 0.89079 0.26697 0.0
H2109 H 0.54755 0.84987 0.35991 0.0
H2110 H 0.55332 0.86912 0.32635 0.0
H2111 H 0.54567 0.89784 0.30102 0.0
H2112 H 0.57392 0.91574 0.19505 0.0
H2113 H 0.5489 0.91295 0.22618 0.0
H2114 H 0.51653 0.84787 0.24109 0.0
C2115 C 0.53652 0.86234 0.33007 0.0
C2116 C 0.5389 0.88706 0.28802 0.0
C2117 C 0.53323 0.8513 0.34936 0.0
C2118 C 0.5689 0.8997 0.20106 0.0
C2119 C 0.55489 0.89814 0.21906 0.0
C2120 C 0.52268 0.85913 0.25397 0.0
C2121 C 0.51894 0.8625 0.31483 0.0
C2122 C 0.5238 0.86899 0.29233 0.0
C2123 C 0.54984 0.87782 0.22852 0.0
C2124 C 0.53875 0.87642 0.24985 0.0
H2125 H 0.47779 0.83415 0.3425 0.0
H2126 H 0.48343 0.85371 0.30915 0.0
H2127 H 0.5038 0.84126 0.27767 0.0
H2128 H 0.57939 0.846 0.19473 0.0
H2129 H 0.55459 0.84307 0.22586 0.0
C2130 C 0.98502 0.8274 0.06458 0.0
C2131 C 0.97701 0.81341 0.08081 0.0
C2132 C 0.97148 0.83133 0.04702 0.0
C2133 C 0.91402 0.83577 0.03115 0.0
H2134 H 0.94248 0.84375 0.97562 0.0
C2135 C 0.90279 0.90897 0.98056 0.0
C2136 C 0.90576 0.90817 0.95819 0.0
C2137 C 0.90383 0.89016 0.99247 0.0
C2138 C 0.93384 0.84111 0.99073 0.0
H2139 H 0.94836 0.79248 0.09122 0.0
H2140 H 0.9242 0.8 0.06045 0.0
H2141 H 0.96004 0.82264 0.00262 0.0
H2142 H 0.91139 0.88702 0.9305 0.0
H2143 H 0.91331 0.85389 0.95135 0.0
H2144 H 0.88836 0.85523 0.01958 0.0
C2145 C 0.94121 0.80761 0.0614 0.0
C2146 C 0.94406 0.82916 0.00629 0.0
C2147 C 0.955 0.80336 0.07898 0.0
C2148 C 0.90888 0.88801 0.94774 0.0
C2149 C 0.9101 0.8691 0.95969 0.0
C2150 C 0.90372 0.84771 0.01552 0.0
C2151 C 0.94943 0.82156 0.0452 0.0
C2152 C 0.93504 0.82764 0.0271 0.0
C2153 C 0.90818 0.87011 0.98229 0.0
C2154 C 0.91436 0.85174 0.99568 0.0
H2155 H 0.00191 0.83531 0.06531 0.0
H2156 H 0.97815 0.84254 0.03506 0.0
H2157 H 0.90657 0.83467 0.04699 0.0
H2158 H 0.90033 0.92435 0.98899 0.0
H2159 H 0.90267 0.89171 0.00985 0.0
C2160 C 0.69159 0.01222 0.83111 0.0
C2161 C 0.69349 0.03279 0.8217 0.0
C2162 C 0.70884 0.00561 0.84404 0.0
C2163 C 0.76953 0.01226 0.84683 0.0
H2164 H 0.75972 0.96989 0.89154 0.0
C2165 C 0.83619 0.95191 0.86931 0.0
C2166 C 0.82697 0.93012 0.86943 0.0
C2167 C 0.82203 0.96919 0.86899 0.0
C2168 C 0.76283 0.98181 0.87918 0.0
H2169 H 0.71431 0.06318 0.81943 0.0
H2170 H 0.74492 0.05144 0.842 0.0
H2171 H 0.73013 0.99355 0.8828 0.0
H2172 H 0.79599 0.90923 0.86965 0.0
H2173 H 0.77143 0.93907 0.86936 0.0
H2174 H 0.8019 0.99978 0.84257 0.0
C2175 C 0.72993 0.0405 0.83941 0.0
C2176 C 0.74589 0.99539 0.8742 0.0
C2177 C 0.71237 0.04728 0.82666 0.0
C2178 C 0.80352 0.92589 0.8696 0.0
C2179 C 0.78946 0.94303 0.86966 0.0
C2180 C 0.7866 0.99875 0.85194 0.0
C2181 C 0.72862 0.01929 0.84764 0.0
C2182 C 0.74858 0.00992 0.85717 0.0
C2183 C 0.79848 0.96488 0.8692 0.0
C2184 C 0.78296 0.98263 0.86742 0.0
H2185 H 0.67725 0.00071 0.82753 0.0
H2186 H 0.70733 0.98908 0.84986 0.0
H2187 H 0.77212 0.02322 0.83356 0.0
H2188 H 0.85425 0.95554 0.86898 0.0
H2189 H 0.82945 0.98586 0.86862 0.0
C2190 C 0.82184 0.99385 0.56111 0.0
C2191 C 0.80315 0.97857 0.56203 0.0
C2192 C 0.82141 0.01441 0.57133 0.0
C2193 C 0.81527 0.05338 0.60415 0.0
H2194 H 0.78037 0.0892 0.56818 0.0
C2195 C 0.83336 0.14522 0.60743 0.0
C2196 C 0.84517 0.14923 0.58826 0.0
C2197 C 0.81835 0.12659 0.6088 0.0
C2198 C 0.7896 0.07937 0.57884 0.0
H2199 H 0.76902 0.97295 0.57352 0.0
H2200 H 0.76788 0.00958 0.59063 0.0
H2201 H 0.77525 0.04917 0.56445 0.0
H2202 H 0.84781 0.13951 0.55464 0.0
H2203 H 0.82058 0.10793 0.55658 0.0
H2204 H 0.83063 0.08349 0.61763 0.0
C2205 C 0.78321 0.00511 0.58293 0.0
C2206 C 0.78671 0.05654 0.5767 0.0
C2207 C 0.78389 0.98428 0.57318 0.0
C2208 C 0.83891 0.13671 0.56959 0.0
C2209 C 0.82336 0.11859 0.57076 0.0
C2210 C 0.81777 0.07618 0.60665 0.0
C2211 C 0.80189 0.02039 0.58181 0.0
C2212 C 0.80032 0.04348 0.5886 0.0
C2213 C 0.81431 0.11245 0.59072 0.0
C2214 C 0.80581 0.08937 0.59322 0.0
H2215 H 0.83635 0.99033 0.55156 0.0
H2216 H 0.83581 0.02617 0.56984 0.0
H2217 H 0.82602 0.04356 0.61333 0.0
H2218 H 0.83781 0.1548 0.62198 0.0
H2219 H 0.81147 0.12222 0.62434 0.0
C2220 C 0.81017 0.0175 0.3265 0.0
C2221 C 0.83286 0.02578 0.32662 0.0
C2222 C 0.79434 0.0277 0.33904 0.0
C2223 C 0.78756 0.08344 0.35925 0.0
H2224 H 0.72929 0.05883 0.37794 0.0
C2225 C 0.72113 0.14081 0.38279 0.0
C2226 C 0.69965 0.13585 0.37385 0.0
C2227 C 0.7366 0.12493 0.38337 0.0
C2228 C 0.74552 0.06592 0.37285 0.0
H2229 H 0.85723 0.04936 0.34205 0.0
H2230 H 0.8298 0.06663 0.36457 0.0
H2231 H 0.75901 0.03452 0.36932 0.0
H2232 H 0.67676 0.11023 0.35963 0.0
H2233 H 0.70429 0.08231 0.35974 0.0
H2234 H 0.77418 0.1146 0.36192 0.0
C2235 C 0.82404 0.05281 0.35414 0.0
C2236 C 0.76255 0.05202 0.3679 0.0
C2237 C 0.83983 0.04281 0.34137 0.0
C2238 C 0.6933 0.11434 0.36662 0.0
C2239 C 0.70905 0.09841 0.36674 0.0
C2240 C 0.7707 0.09723 0.36425 0.0
C2241 C 0.80092 0.04625 0.35214 0.0
C2242 C 0.78371 0.06063 0.36068 0.0
C2243 C 0.7312 0.10383 0.37436 0.0
C2244 C 0.74936 0.08871 0.37088 0.0
H2245 H 0.80425 0.00431 0.31539 0.0
H2246 H 0.77674 0.02214 0.33704 0.0
H2247 H 0.80329 0.09074 0.35315 0.0
H2248 H 0.72625 0.15728 0.38872 0.0
H2249 H 0.75319 0.12949 0.39005 0.0
C2250 C 0.759 0.08901 0.04835 0.0
C2251 C 0.74311 0.1049 0.04879 0.0
C2252 C 0.75382 0.06835 0.05676 0.0
C2253 C 0.71523 0.03602 0.09182 0.0
H2254 H 0.72063 0.98891 0.04938 0.0
C2255 C 0.6622 0.95227 0.07139 0.0
C2256 C 0.66144 0.94222 0.09144 0.0
C2257 C 0.67857 0.96913 0.06734 0.0
C2258 C 0.71939 0.00183 0.06153 0.0
H2259 H 0.70986 0.11188 0.05983 0.0
H2260 H 0.70101 0.07587 0.07486 0.0
H2261 H 0.73665 0.02584 0.042 0.0
H2262 H 0.67862 0.94036 0.12212 0.0
H2263 H 0.70678 0.97066 0.11536 0.0
H2264 H 0.69727 0.01208 0.11101 0.0
C2265 C 0.71742 0.07946 0.06783 0.0
C2266 C 0.72858 0.02294 0.05736 0.0
C2267 C 0.72246 0.10006 0.05912 0.0
C2268 C 0.67868 0.94795 0.10659 0.0
C2269 C 0.69472 0.96533 0.10279 0.0
C2270 C 0.70637 0.0148 0.09616 0.0
C2271 C 0.73279 0.06319 0.06614 0.0
C2272 C 0.726 0.04038 0.07217 0.0
C2273 C 0.69426 0.97657 0.0834 0.0
C2274 C 0.70776 0.99765 0.08076 0.0
H2275 H 0.7751 0.0921 0.04055 0.0
H2276 H 0.76603 0.05618 0.05539 0.0
H2277 H 0.71311 0.04915 0.10355 0.0
H2278 H 0.64921 0.94811 0.05935 0.0
H2279 H 0.6778 0.97751 0.05227 0.0
C2280 C 0.71808 0.08261 0.74169 0.0
C2281 C 0.70764 0.06172 0.73659 0.0
C2282 C 0.73872 0.08942 0.73273 0.0
C2283 C 0.77508 0.08465 0.68724 0.0
H2284 H 0.82097 0.10916 0.72755 0.0
C2285 C 0.85564 0.13487 0.65907 0.0
C2286 C 0.85825 0.15552 0.66975 0.0
C2287 C 0.84088 0.11817 0.66714 0.0
C2288 C 0.80842 0.10227 0.71605 0.0
H2289 H 0.71047 0.03187 0.71738 0.0
H2290 H 0.74659 0.04424 0.70112 0.0
H2291 H 0.78673 0.09013 0.74105 0.0
H2292 H 0.84904 0.17412 0.69823 0.0
H2293 H 0.82388 0.14525 0.7123 0.0
H2294 H 0.79619 0.09809 0.66227 0.0
C2295 C 0.73871 0.05507 0.71238 0.0
C2296 C 0.78886 0.09136 0.7238 0.0
C2297 C 0.7181 0.04804 0.72169 0.0
C2298 C 0.84725 0.15852 0.68945 0.0
C2299 C 0.8329 0.14184 0.69762 0.0
C2300 C 0.79467 0.09579 0.67945 0.0
C2301 C 0.74937 0.07567 0.71819 0.0
C2302 C 0.77164 0.08321 0.70953 0.0
C2303 C 0.82901 0.12167 0.68631 0.0
C2304 C 0.8111 0.10552 0.69387 0.0
H2305 H 0.71063 0.09358 0.75314 0.0
H2306 H 0.74645 0.10551 0.73723 0.0
H2307 H 0.76202 0.07847 0.67594 0.0
H2308 H 0.86399 0.13202 0.6439 0.0
H2309 H 0.83834 0.10274 0.65813 0.0
C2310 C 0.76667 0.95862 0.45908 0.0
C2311 C 0.78828 0.96308 0.46806 0.0
C2312 C 0.75684 0.97438 0.44707 0.0
C2313 C 0.75882 0.03402 0.44608 0.0
H2314 H 0.71307 0.02242 0.40175 0.0
C2315 C 0.69764 0.09879 0.42153 0.0
C2316 C 0.67499 0.09056 0.42012 0.0
C2317 C 0.7148 0.08446 0.42325 0.0
C2318 C 0.72582 0.02592 0.41414 0.0
H2319 H 0.81748 0.98653 0.46948 0.0
H2320 H 0.80044 0.01384 0.44831 0.0
H2321 H 0.73799 0.99403 0.41035 0.0
H2322 H 0.65265 0.06081 0.41939 0.0
H2323 H 0.68224 0.03616 0.42259 0.0
H2324 H 0.74606 0.06557 0.45048 0.0
C2325 C 0.79088 0.99842 0.45098 0.0
C2326 C 0.74011 0.00968 0.41902 0.0
C2327 C 0.80069 0.98269 0.46299 0.0
C2328 C 0.66989 0.06779 0.42056 0.0
C2329 C 0.68692 0.05357 0.42207 0.0
C2330 C 0.74453 0.05026 0.44119 0.0
C2331 C 0.76847 0.99487 0.44377 0.0
C2332 C 0.75626 0.01326 0.43558 0.0
C2333 C 0.70958 0.06165 0.42332 0.0
C2334 C 0.72732 0.04609 0.42574 0.0
H2335 H 0.75667 0.94369 0.4627 0.0
H2336 H 0.73951 0.97111 0.44182 0.0
H2337 H 0.77093 0.03729 0.45908 0.0
H2338 H 0.70209 0.11625 0.42128 0.0
H2339 H 0.73213 0.09118 0.42421 0.0
C2340 C 0.81587 0.03427 0.22104 0.0
C2341 C 0.8225 0.01603 0.23195 0.0
C2342 C 0.79534 0.03307 0.20978 0.0
C2343 C 0.74062 0.01906 0.21217 0.0
H2344 H 0.72918 0.98399 0.15962 0.0
C2345 C 0.66746 0.95628 0.19729 0.0
C2346 C 0.65827 0.95253 0.17653 0.0
C2347 C 0.68405 0.97323 0.2013 0.0
C2348 C 0.73207 0.99441 0.17394 0.0
H2349 H 0.81245 0.98284 0.24087 0.0
H2350 H 0.77711 0.98042 0.22044 0.0
H2351 H 0.76798 0.9953 0.17061 0.0
H2352 H 0.6571 0.96507 0.14435 0.0
H2353 H 0.68726 0.99413 0.15104 0.0
H2354 H 0.70489 0.01624 0.21674 0.0
C2355 C 0.78799 0.99542 0.22022 0.0
C2356 C 0.75424 0.00078 0.18022 0.0
C2357 C 0.80825 0.99673 0.23167 0.0
C2358 C 0.66419 0.96747 0.16041 0.0
C2359 C 0.68139 0.98407 0.16423 0.0
C2360 C 0.71847 0.01243 0.20607 0.0
C2361 C 0.7813 0.01363 0.20942 0.0
C2362 C 0.75862 0.01243 0.19976 0.0
C2363 C 0.6921 0.98644 0.18449 0.0
C2364 C 0.71407 0.99922 0.18739 0.0
H2365 H 0.82636 0.04953 0.22161 0.0
H2366 H 0.7902 0.04737 0.2018 0.0
H2367 H 0.74375 0.02783 0.22745 0.0
H2368 H 0.66308 0.94505 0.21002 0.0
H2369 H 0.69207 0.9746 0.21705 0.0
C2370 C 0.76405 0.11149 0.94613 0.0
C2371 C 0.74646 0.11285 0.9609 0.0
C2372 C 0.76647 0.09212 0.9343 0.0
C2373 C 0.75756 0.03442 0.94403 0.0
H2374 H 0.7922 0.03112 0.89156 0.0
C2375 C 0.81707 0.96525 0.92488 0.0
C2376 C 0.8391 0.97465 0.9221 0.0
C2377 C 0.79881 0.97841 0.92461 0.0
C2378 C 0.7822 0.03161 0.90606 0.0
H2379 H 0.71635 0.09581 0.97343 0.0
H2380 H 0.72066 0.06171 0.95275 0.0
H2381 H 0.76969 0.06222 0.89826 0.0
H2382 H 0.85922 0.00476 0.91588 0.0
H2383 H 0.82756 0.02739 0.91486 0.0
H2384 H 0.77115 0.00436 0.95231 0.0
C2385 C 0.73261 0.07564 0.95038 0.0
C2386 C 0.76935 0.04941 0.90992 0.0
C2387 C 0.73004 0.09521 0.96208 0.0
C2388 C 0.84247 0.99713 0.9184 0.0
C2389 C 0.8243 0.01004 0.9175 0.0
C2390 C 0.77024 0.01646 0.94003 0.0
C2391 C 0.75147 0.07358 0.93715 0.0
C2392 C 0.75812 0.05175 0.92961 0.0
C2393 C 0.80231 0.0009 0.92071 0.0
C2394 C 0.78375 0.01563 0.92165 0.0
H2395 H 0.7769 0.12488 0.94487 0.0
H2396 H 0.78131 0.09116 0.92443 0.0
H2397 H 0.74918 0.03568 0.9594 0.0
H2398 H 0.81405 0.9479 0.92757 0.0
H2399 H 0.782 0.97104 0.92729 0.0
C2400 C 0.80677 0.73012 0.03642 0.0
C2401 C 0.80746 0.71369 0.02018 0.0
C2402 C 0.81872 0.75052 0.03408 0.0
C2403 C 0.86171 0.78074 0.00061 0.0
H2404 H 0.81924 0.82562 0.9995 0.0
C2405 C 0.85743 0.83921 0.93311 0.0
C2406 C 0.85515 0.86163 0.93703 0.0
C2407 C 0.85689 0.82479 0.94999 0.0
C2408 C 0.83158 0.81357 0.00032 0.0
H2409 H 0.82256 0.70491 0.98979 0.0
H2410 H 0.84371 0.74007 0.98593 0.0
H2411 H 0.80975 0.79195 0.01862 0.0
H2412 H 0.8506 0.88653 0.96187 0.0
H2413 H 0.84851 0.86072 0.99163 0.0
H2414 H 0.88273 0.80168 0.98085 0.0
C2415 C 0.83396 0.73743 0.00042 0.0
C2416 C 0.82616 0.79426 0.01127 0.0
C2417 C 0.82174 0.71729 0.00255 0.0
C2418 C 0.85214 0.86929 0.95836 0.0
C2419 C 0.85109 0.85462 0.97534 0.0
C2420 C 0.8671 0.8 0.98969 0.0
C2421 C 0.83189 0.75458 0.0157 0.0
C2422 C 0.84061 0.77713 0.01041 0.0
C2423 C 0.85372 0.83227 0.97125 0.0
C2424 C 0.85148 0.81597 0.98837 0.0
H2425 H 0.7957 0.72781 0.05008 0.0
H2426 H 0.81684 0.76342 0.04611 0.0
H2427 H 0.87334 0.76799 1e-05 0.0
H2428 H 0.86011 0.83278 0.91696 0.0
H2429 H 0.85853 0.80758 0.94631 0.0
C2430 C 0.32169 0.86609 0.00872 0.0
C2431 C 0.31517 0.88151 0.02421 0.0
C2432 C 0.33655 0.85054 0.01422 0.0
C2433 C 0.37133 0.83211 0.06013 0.0
H2434 H 0.34714 0.77464 0.03964 0.0
C2435 C 0.35166 0.74252 0.0968 0.0
C2436 C 0.37092 0.74128 0.10953 0.0
C2437 C 0.35116 0.75839 0.08117 0.0
C2438 C 0.35412 0.79055 0.04556 0.0
H2439 H 0.3206 0.89403 0.057 0.0
H2440 H 0.34566 0.86662 0.06687 0.0
H2441 H 0.33589 0.80688 0.02211 0.0
H2442 H 0.40485 0.75507 0.11609 0.0
H2443 H 0.4043 0.78263 0.08845 0.0
H2444 H 0.3878 0.81583 0.08491 0.0
C2445 C 0.33984 0.86658 0.05032 0.0
C2446 C 0.34797 0.80915 0.03523 0.0
C2447 C 0.32529 0.88233 0.0447 0.0
C2448 C 0.38996 0.75559 0.10607 0.0
C2449 C 0.38948 0.77155 0.09049 0.0
C2450 C 0.37716 0.81352 0.0707 0.0
C2451 C 0.34486 0.84985 0.03544 0.0
C2452 C 0.35568 0.83026 0.043 0.0
C2453 C 0.36986 0.77351 0.07817 0.0
C2454 C 0.36779 0.79257 0.06415 0.0
H2455 H 0.31435 0.86527 0.99268 0.0
H2456 H 0.34055 0.83836 0.00212 0.0
H2457 H 0.37815 0.84802 0.06619 0.0
H2458 H 0.33661 0.732 0.09974 0.0
H2459 H 0.33555 0.75965 0.07245 0.0
C2460 C 0.95129 0.56289 0.77932 0.0
C2461 C 0.94131 0.57061 0.76082 0.0
C2462 C 0.97327 0.57009 0.78507 0.0
C2463 C 0.01586 0.61231 0.78691 0.0
H2464 H 0.05672 0.56605 0.78941 0.0
C2465 C 0.10018 0.6248 0.83348 0.0
C2466 C 0.10145 0.60881 0.84913 0.0
C2467 C 0.0847 0.62155 0.81639 0.0
C2468 C 0.04564 0.57922 0.78861 0.0
H2469 H 0.94639 0.5914 0.73345 0.0
H2470 H 0.98522 0.60471 0.74401 0.0
H2471 H 0.01998 0.55878 0.77194 0.0
H2472 H 0.08925 0.57611 0.85802 0.0
H2473 H 0.06281 0.57024 0.8282 0.0
H2474 H 0.04075 0.63227 0.80514 0.0
C2475 C 0.97576 0.59316 0.75401 0.0
C2476 C 0.02471 0.57507 0.77855 0.0
C2477 C 0.95372 0.58562 0.74802 0.0
C2478 C 0.08856 0.58878 0.84628 0.0
C2479 C 0.07345 0.58539 0.82908 0.0
C2480 C 0.03682 0.61644 0.79719 0.0
C2481 C 0.98573 0.58512 0.7724 0.0
C2482 C 0.00938 0.59131 0.77835 0.0
C2483 C 0.07071 0.60202 0.8144 0.0
C2484 C 0.05149 0.59961 0.79896 0.0
H2485 H 0.94223 0.55083 0.78908 0.0
H2486 H 0.98069 0.56372 0.79933 0.0
H2487 H 0.00414 0.62498 0.78701 0.0
H2488 H 0.10996 0.6404 0.83527 0.0
H2489 H 0.08305 0.6346 0.80524 0.0
C2490 C 0.20158 0.20873 0.55094 0.0
C2491 C 0.21768 0.21192 0.53475 0.0
C2492 C 0.19021 0.22631 0.55904 0.0
C2493 C 0.18248 0.28621 0.5514 0.0
H2494 H 0.17066 0.28458 0.61268 0.0
C2495 C 0.17729 0.3604 0.61216 0.0
C2496 C 0.15937 0.3587 0.62669 0.0
C2497 C 0.18015 0.34339 0.59706 0.0
C2498 C 0.1736 0.28516 0.59549 0.0
H2499 H 0.23429 0.23573 0.51395 0.0
H2500 H 0.21567 0.26664 0.52889 0.0
H2501 H 0.18382 0.25266 0.59424 0.0
H2502 H 0.13006 0.33867 0.63671 0.0
H2503 H 0.13521 0.30877 0.61055 0.0
H2504 H 0.17384 0.31964 0.55349 0.0
C2505 C 0.21092 0.25056 0.53487 0.0
C2506 C 0.18101 0.26675 0.58478 0.0
C2507 C 0.22177 0.23283 0.52633 0.0
C2508 C 0.14377 0.34038 0.62536 0.0
C2509 C 0.14679 0.32328 0.61054 0.0
C2510 C 0.17559 0.30488 0.56232 0.0
C2511 C 0.19529 0.24767 0.55168 0.0
C2512 C 0.18571 0.26696 0.56257 0.0
C2513 C 0.1654 0.32433 0.59673 0.0
C2514 C 0.17115 0.30448 0.58447 0.0
H2515 H 0.19796 0.19267 0.55751 0.0
H2516 H 0.17778 0.22314 0.57141 0.0
H2517 H 0.18546 0.28701 0.53426 0.0
H2518 H 0.18974 0.37424 0.61331 0.0
H2519 H 0.19474 0.34444 0.58672 0.0
C2520 C 0.06434 0.01178 0.76321 0.0
C2521 C 0.0702 0.03292 0.77195 0.0
C2522 C 0.04399 0.00042 0.76878 0.0
C2523 C 0.98816 0.00773 0.7928 0.0
H2524 H 0.99479 0.95194 0.81899 0.0
C2525 C 0.91967 0.96348 0.84645 0.0
C2526 C 0.92868 0.96193 0.86728 0.0
C2527 C 0.93396 0.9685 0.82908 0.0
C2528 C 0.99254 0.96727 0.8113 0.0
H2529 H 0.05886 0.05905 0.79259 0.0
H2530 H 0.02356 0.03937 0.80213 0.0
H2531 H 0.02567 0.96883 0.79802 0.0
H2532 H 0.95965 0.96324 0.88605 0.0
H2533 H 0.98427 0.97144 0.85594 0.0
H2534 H 0.95554 0.00676 0.8073 0.0
C2535 C 0.03459 0.03155 0.79099 0.0
C2536 C 0.01016 0.9769 0.79925 0.0
C2537 C 0.05498 0.04272 0.78572 0.0
C2538 C 0.95213 0.96471 0.87028 0.0
C2539 C 0.96629 0.9691 0.85298 0.0
C2540 C 0.97044 0.99798 0.80468 0.0
C2541 C 0.02899 0.01019 0.78283 0.0
C2542 C 0.00854 0.99772 0.79078 0.0
C2543 C 0.9574 0.97125 0.83228 0.0
C2544 C 0.97294 0.97819 0.81487 0.0
H2545 H 0.0757 0.00381 0.75252 0.0
H2546 H 0.04009 0.98394 0.7623 0.0
H2547 H 0.9864 0.02369 0.78622 0.0
H2548 H 0.90167 0.96126 0.84369 0.0
H2549 H 0.92677 0.97024 0.81322 0.0
C2550 C 0.70856 0.35046 0.49588 0.0
C2551 C 0.70995 0.36053 0.51648 0.0
C2552 C 0.69679 0.33009 0.4926 0.0
C2553 C 0.69012 0.27893 0.50844 0.0
H2554 H 0.63413 0.2711 0.47603 0.0
C2555 C 0.66536 0.20038 0.45629 0.0
C2556 C 0.66231 0.20638 0.43485 0.0
C2557 C 0.6655 0.21627 0.47312 0.0
C2558 C 0.64956 0.2729 0.48546 0.0
H2559 H 0.70134 0.35678 0.55007 0.0
H2560 H 0.68097 0.32043 0.54432 0.0
H2561 H 0.64539 0.30666 0.4935 0.0
H2562 H 0.65567 0.23327 0.41437 0.0
H2563 H 0.65567 0.26052 0.44333 0.0
H2564 H 0.69556 0.24598 0.49848 0.0
C2565 C 0.6883 0.32889 0.53069 0.0
C2566 C 0.65589 0.29318 0.49551 0.0
C2567 C 0.69987 0.34956 0.53393 0.0
C2568 C 0.6585 0.22819 0.43067 0.0
C2569 C 0.65809 0.24377 0.44735 0.0
C2570 C 0.68389 0.25868 0.49823 0.0
C2571 C 0.68682 0.31907 0.50998 0.0
C2572 C 0.67672 0.29659 0.50612 0.0
C2573 C 0.66181 0.23814 0.46874 0.0
C2574 C 0.66424 0.25596 0.48551 0.0
H2575 H 0.71718 0.35805 0.4824 0.0
H2576 H 0.69615 0.32254 0.47656 0.0
H2577 H 0.70638 0.28138 0.51642 0.0
H2578 H 0.66805 0.1836 0.45994 0.0
H2579 H 0.66855 0.21155 0.48948 0.0
C2580 C 0.91502 0.47415 0.71307 0.0
C2581 C 0.91363 0.48004 0.73503 0.0
C2582 C 0.93179 0.461 0.70582 0.0
C2583 C 0.96827 0.43123 0.69334 0.0
H2584 H 0.0251 0.45226 0.72024 0.0
C2585 C 0.05233 0.41472 0.65337 0.0
C2586 C 0.06666 0.43378 0.65132 0.0
C2587 C 0.03432 0.41445 0.66773 0.0
C2588 C 0.00937 0.4461 0.71262 0.0
H2589 H 0.92678 0.47461 0.76689 0.0
H2590 H 0.9555 0.4511 0.75434 0.0
H2591 H 0.99001 0.46117 0.73687 0.0
H2592 H 0.07406 0.46724 0.66265 0.0
H2593 H 0.04291 0.46684 0.68807 0.0
H2594 H 0.98779 0.41752 0.66825 0.0
C2595 C 0.94424 0.45724 0.7426 0.0
C2596 C 0.98917 0.45096 0.7223 0.0
C2597 C 0.92764 0.47056 0.74982 0.0
C2598 C 0.06348 0.45223 0.66444 0.0
C2599 C 0.04563 0.45194 0.67895 0.0
C2600 C 0.98851 0.42643 0.68361 0.0
C2601 C 0.94734 0.45331 0.72042 0.0
C2602 C 0.96835 0.44426 0.71238 0.0
C2603 C 0.0304 0.43328 0.68027 0.0
C2604 C 0.00928 0.43453 0.69274 0.0
H2605 H 0.90449 0.48124 0.70128 0.0
H2606 H 0.93365 0.45842 0.68861 0.0
H2607 H 0.95257 0.4255 0.68544 0.0
H2608 H 0.05434 0.40044 0.64303 0.0
H2609 H 0.02305 0.39977 0.66852 0.0
C2610 C 0.58817 0.60716 0.22172 0.0
C2611 C 0.58849 0.60679 0.24435 0.0
C2612 C 0.5724 0.61864 0.21096 0.0
C2613 C 0.54166 0.64962 0.19118 0.0
H2614 H 0.48051 0.6374 0.21095 0.0
C2615 C 0.4662 0.671 0.13996 0.0
C2616 C 0.44928 0.65393 0.13734 0.0
C2617 C 0.48265 0.67023 0.156 0.0
C2618 C 0.49749 0.64103 0.20526 0.0
H2619 H 0.57331 0.6194 0.27344 0.0
H2620 H 0.54577 0.63952 0.25454 0.0
H2621 H 0.51193 0.62773 0.23315 0.0
H2622 H 0.43578 0.62288 0.14916 0.0
H2623 H 0.46427 0.62152 0.17753 0.0
H2624 H 0.52726 0.6617 0.16274 0.0
C2625 C 0.5576 0.63067 0.24518 0.0
C2626 C 0.51553 0.63574 0.21811 0.0
C2627 C 0.57349 0.61924 0.25599 0.0
C2628 C 0.44847 0.63641 0.15131 0.0
C2629 C 0.46477 0.63571 0.16752 0.0
C2630 C 0.52365 0.65489 0.17835 0.0
C2631 C 0.55653 0.63003 0.22254 0.0
C2632 C 0.53779 0.6393 0.21087 0.0
C2633 C 0.48236 0.65236 0.16973 0.0
C2634 C 0.50134 0.65001 0.18493 0.0
H2635 H 0.59954 0.59788 0.21222 0.0
H2636 H 0.57193 0.6176 0.19351 0.0
H2637 H 0.55863 0.65287 0.1853 0.0
H2638 H 0.46723 0.68449 0.12904 0.0
H2639 H 0.49577 0.68344 0.15744 0.0
C2640 C 0.52562 0.77384 0.8172 0.0
C2641 C 0.5416 0.79176 0.82059 0.0
C2642 C 0.52403 0.76255 0.79719 0.0
C2643 C 0.53603 0.76893 0.73985 0.0
H2644 H 0.54836 0.70776 0.73809 0.0
C2645 C 0.58689 0.73114 0.67428 0.0
C2646 C 0.58702 0.70833 0.6722 0.0
C2647 C 0.57134 0.74055 0.6877 0.0
C2648 C 0.54411 0.72462 0.73805 0.0
H2649 H 0.56819 0.81204 0.80555 0.0
H2650 H 0.56515 0.79258 0.77075 0.0
H2651 H 0.54093 0.72578 0.77244 0.0
H2652 H 0.56955 0.67744 0.68012 0.0
H2653 H 0.54154 0.69382 0.70279 0.0
H2654 H 0.53975 0.76807 0.7056 0.0
C2655 C 0.55393 0.78723 0.78355 0.0
C2656 C 0.54002 0.73497 0.75786 0.0
C2657 C 0.55585 0.79818 0.80358 0.0
C2658 C 0.56955 0.69512 0.68132 0.0
C2659 C 0.5538 0.70453 0.69462 0.0
C2660 C 0.53973 0.75851 0.71998 0.0
C2661 C 0.53798 0.76938 0.78013 0.0
C2662 C 0.53705 0.75744 0.75902 0.0
C2663 C 0.55563 0.72725 0.69929 0.0
C2664 C 0.54505 0.73651 0.71893 0.0
H2665 H 0.51437 0.76855 0.82998 0.0
H2666 H 0.51172 0.7487 0.79495 0.0
H2667 H 0.53341 0.78624 0.74035 0.0
H2668 H 0.6005 0.74158 0.66769 0.0
H2669 H 0.57347 0.75807 0.69079 0.0
C2670 C 0.52314 0.33413 0.11016 0.0
C2671 C 0.53445 0.32064 0.12378 0.0
C2672 C 0.53226 0.34008 0.09038 0.0
C2673 C 0.58211 0.34495 0.05654 0.0
H2674 H 0.53872 0.331 0.01033 0.0
C2675 C 0.60413 0.36332 0.96813 0.0
C2676 C 0.5877 0.37407 0.95719 0.0
C2677 C 0.59893 0.35283 0.98741 0.0
C2678 C 0.55104 0.33509 0.023 0.0
H2679 H 0.56517 0.30445 0.12821 0.0
H2680 H 0.58144 0.31536 0.09354 0.0
H2681 H 0.5284 0.32323 0.04735 0.0
H2682 H 0.55288 0.38179 0.95736 0.0
H2683 H 0.54375 0.36377 0.99088 0.0
H2684 H 0.60446 0.35765 0.03227 0.0
C2685 C 0.56535 0.32106 0.09822 0.0
C2686 C 0.54511 0.33064 0.04422 0.0
C2687 C 0.55612 0.31496 0.11811 0.0
C2688 C 0.56575 0.37329 0.96529 0.0
C2689 C 0.56055 0.3629 0.98452 0.0
C2690 C 0.58799 0.34964 0.03525 0.0
C2691 C 0.55297 0.3328 0.08379 0.0
C2692 C 0.56037 0.336 0.06125 0.0
C2693 C 0.57723 0.35312 0.9962 0.0
C2694 C 0.57231 0.34523 0.01828 0.0
H2695 H 0.50649 0.33893 0.11414 0.0
H2696 H 0.52261 0.34959 0.07977 0.0
H2697 H 0.59419 0.34917 0.06939 0.0
H2698 H 0.62139 0.36444 0.96273 0.0
H2699 H 0.61214 0.3453 0.99585 0.0
C2700 C 0.9938 0.38964 0.33237 0.0
C2701 C 0.01674 0.38579 0.33339 0.0
C2702 C 0.985 0.39918 0.31425 0.0
C2703 C 0.99123 0.39737 0.2575 0.0
H2704 H 0.95131 0.44436 0.25662 0.0
C2705 C 0.93087 0.40283 0.18597 0.0
C2706 C 0.90878 0.40492 0.19289 0.0
C2707 C 0.94899 0.40816 0.20027 0.0
C2708 C 0.9624 0.43116 0.25654 0.0
H2709 H 0.04859 0.39012 0.3165 0.0
H2710 H 0.03296 0.40606 0.2848 0.0
H2711 H 0.97299 0.43865 0.28925 0.0
H2712 H 0.88813 0.41568 0.2191 0.0
H2713 H 0.91906 0.42467 0.24382 0.0
H2714 H 0.97925 0.38839 0.22574 0.0
C2715 C 0.02195 0.40191 0.29813 0.0
C2716 C 0.97486 0.42802 0.27521 0.0
C2717 C 0.03084 0.39282 0.31638 0.0
C2718 C 0.9051 0.41397 0.21344 0.0
C2719 C 0.92298 0.4193 0.2276 0.0
C2720 C 0.97836 0.40014 0.23902 0.0
C2721 C 0.99889 0.40468 0.29669 0.0
C2722 C 0.9888 0.41065 0.27605 0.0
C2723 C 0.94512 0.41562 0.22161 0.0
C2724 C 0.963 0.41648 0.23863 0.0
H2725 H 0.98248 0.38449 0.34515 0.0
H2726 H 0.96709 0.40105 0.3134 0.0
H2727 H 0.00188 0.38382 0.25781 0.0
H2728 H 0.93401 0.39577 0.17016 0.0
H2729 H 0.96586 0.4055 0.19496 0.0
C2730 C 0.95703 0.77756 0.61341 0.0
C2731 C 0.96636 0.76048 0.62407 0.0
C2732 C 0.94606 0.77355 0.59359 0.0
C2733 C 0.94662 0.76141 0.54525 0.0
H2734 H 0.90462 0.71176 0.5301 0.0
C2735 C 0.94222 0.71412 0.46342 0.0
C2736 C 0.92089 0.70755 0.45478 0.0
C2737 C 0.94422 0.72545 0.48332 0.0
C2738 C 0.91608 0.7259 0.53413 0.0
H2739 H 0.97135 0.7259 0.62287 0.0
H2740 H 0.95159 0.71864 0.58834 0.0
H2741 H 0.91288 0.72115 0.56811 0.0
H2742 H 0.885 0.7075 0.45996 0.0
H2743 H 0.88847 0.72736 0.49476 0.0
H2744 H 0.95089 0.76533 0.51126 0.0
C2745 C 0.95253 0.73507 0.59541 0.0
C2746 C 0.92087 0.73116 0.55582 0.0
C2747 C 0.96384 0.73918 0.61508 0.0
C2748 C 0.90161 0.71309 0.46596 0.0
C2749 C 0.90359 0.72415 0.48598 0.0
C2750 C 0.94215 0.7559 0.52356 0.0
C2751 C 0.94425 0.75237 0.58415 0.0
C2752 C 0.93651 0.7487 0.56155 0.0
C2753 C 0.92491 0.72987 0.4951 0.0
C2754 C 0.92717 0.73784 0.51781 0.0
H2755 H 0.95934 0.79424 0.61982 0.0
H2756 H 0.93982 0.78713 0.5852 0.0
H2757 H 0.95892 0.77488 0.54926 0.0
H2758 H 0.95728 0.70966 0.45523 0.0
H2759 H 0.96086 0.72947 0.49014 0.0
C2760 C 0.53759 0.33426 0.68008 0.0
C2761 C 0.55227 0.32135 0.66873 0.0
C2762 C 0.54318 0.34255 0.70079 0.0
C2763 C 0.5792 0.32941 0.74678 0.0
H2764 H 0.55622 0.38129 0.77305 0.0
C2765 C 0.59026 0.34541 0.83739 0.0
C2766 C 0.59666 0.36703 0.84409 0.0
C2767 C 0.58123 0.34083 0.81675 0.0
C2768 C 0.56292 0.36681 0.76599 0.0
H2769 H 0.58459 0.30766 0.66943 0.0
H2770 H 0.59516 0.32319 0.70512 0.0
H2771 H 0.55128 0.37398 0.73449 0.0
H2772 H 0.59835 0.40087 0.83492 0.0
H2773 H 0.58316 0.39307 0.79886 0.0
H2774 H 0.59198 0.32279 0.77781 0.0
C2775 C 0.57897 0.32643 0.69843 0.0
C2776 C 0.55988 0.36248 0.74383 0.0
C2777 C 0.57315 0.31779 0.67787 0.0
C2778 C 0.59279 0.38411 0.83034 0.0
C2779 C 0.5842 0.37955 0.80955 0.0
C2780 C 0.58257 0.33391 0.76878 0.0
C2781 C 0.56363 0.3381 0.71058 0.0
C2782 C 0.56794 0.34367 0.73391 0.0
C2783 C 0.57921 0.35776 0.80213 0.0
C2784 C 0.5744 0.35261 0.77879 0.0
H2785 H 0.52111 0.33671 0.67353 0.0
H2786 H 0.53079 0.35122 0.70956 0.0
H2787 H 0.58523 0.31449 0.73999 0.0
H2788 H 0.59341 0.33197 0.84766 0.0
H2789 H 0.57692 0.3239 0.81193 0.0
C2790 C 0.97843 0.31374 0.94738 0.0
C2791 C 0.97271 0.29156 0.94199 0.0
C2792 C 0.97073 0.3232 0.9664 0.0
C2793 C 0.94848 0.31 0.02047 0.0
H2794 H 0.93464 0.37079 0.02015 0.0
C2795 C 0.9108 0.36473 0.09009 0.0
C2796 C 0.92248 0.3855 0.09238 0.0
C2797 C 0.91712 0.34977 0.07405 0.0
C2798 C 0.93848 0.35379 0.02048 0.0
H2799 H 0.95393 0.26203 0.95241 0.0
H2800 H 0.94006 0.27877 0.9855 0.0
H2801 H 0.94317 0.35206 0.98646 0.0
H2802 H 0.9512 0.40602 0.08168 0.0
H2803 H 0.96241 0.37991 0.05418 0.0
H2804 H 0.94339 0.31205 0.05479 0.0
C2805 C 0.95088 0.28871 0.97509 0.0
C2806 C 0.94347 0.34307 0.00119 0.0
C2807 C 0.9587 0.27917 0.95602 0.0
C2808 C 0.94191 0.39013 0.08017 0.0
C2809 C 0.94822 0.37527 0.06434 0.0
C2810 C 0.94318 0.32076 0.03988 0.0
C2811 C 0.95689 0.31084 0.98055 0.0
C2812 C 0.94916 0.32123 0.00095 0.0
C2813 C 0.93519 0.3555 0.06034 0.0
C2814 C 0.93874 0.34293 0.04005 0.0
H2815 H 0.98934 0.3238 0.93715 0.0
H2816 H 0.97611 0.34017 0.97023 0.0
H2817 H 0.95284 0.29319 0.02089 0.0
H2818 H 0.89567 0.36089 0.09924 0.0
H2819 H 0.90684 0.33457 0.07124 0.0
C2820 C 0.94893 0.76553 0.18114 0.0
C2821 C 0.96328 0.75316 0.16873 0.0
C2822 C 0.9405 0.75785 0.20064 0.0
C2823 C 0.95715 0.72376 0.24432 0.0
H2824 H 0.89897 0.73601 0.26734 0.0
C2825 C 0.92507 0.70027 0.32987 0.0
C2826 C 0.9111 0.71474 0.34019 0.0
C2827 C 0.93312 0.70439 0.30911 0.0
C2828 C 0.91541 0.73273 0.26124 0.0
H2829 H 0.9788 0.72236 0.16619 0.0
H2830 H 0.96386 0.70876 0.20037 0.0
H2831 H 0.90667 0.74154 0.22936 0.0
H2832 H 0.89607 0.74564 0.33775 0.0
H2833 H 0.91063 0.75322 0.3019 0.0
H2834 H 0.96592 0.71518 0.27638 0.0
C2835 C 0.95932 0.72452 0.19504 0.0
C2836 C 0.91974 0.73575 0.23942 0.0
C2837 C 0.96758 0.73214 0.17533 0.0
C2838 C 0.90687 0.73425 0.33017 0.0
C2839 C 0.91495 0.73841 0.30953 0.0
C2840 C 0.95279 0.72071 0.26622 0.0
C2841 C 0.94638 0.73768 0.20827 0.0
C2842 C 0.94078 0.73167 0.23075 0.0
C2843 C 0.92723 0.72303 0.29834 0.0
C2844 C 0.93201 0.72559 0.27501 0.0
H2845 H 0.94544 0.78184 0.17648 0.0
H2846 H 0.93068 0.76847 0.21043 0.0
H2847 H 0.97365 0.72075 0.23821 0.0
H2848 H 0.928 0.68481 0.3369 0.0
H2849 H 0.94251 0.6922 0.30094 0.0
C2850 C 0.56291 0.7759 0.44582 0.0
C2851 C 0.54964 0.75766 0.43715 0.0
C2852 C 0.57466 0.77445 0.46532 0.0
C2853 C 0.56915 0.74408 0.51468 0.0
H2854 H 0.63254 0.75938 0.52587 0.0
C2855 C 0.60548 0.71367 0.5902 0.0
C2856 C 0.62266 0.70024 0.58462 0.0
C2857 C 0.60028 0.73043 0.57659 0.0
C2858 C 0.61472 0.75534 0.5231 0.0
H2859 H 0.54002 0.72314 0.44124 0.0
H2860 H 0.56038 0.72073 0.47499 0.0
H2861 H 0.61604 0.76752 0.49097 0.0
H2862 H 0.6498 0.69532 0.5625 0.0
H2863 H 0.64094 0.7243 0.53886 0.0
H2864 H 0.56772 0.73075 0.54593 0.0
C2865 C 0.56133 0.73623 0.46697 0.0
C2866 C 0.60532 0.76003 0.50315 0.0
C2867 C 0.54976 0.73761 0.44755 0.0
C2868 C 0.63654 0.70565 0.56713 0.0
C2869 C 0.63139 0.72232 0.55355 0.0
C2870 C 0.57843 0.73952 0.53454 0.0
C2871 C 0.57319 0.7548 0.47646 0.0
C2872 C 0.58266 0.75353 0.49848 0.0
C2873 C 0.61208 0.73369 0.55718 0.0
C2874 C 0.60155 0.74423 0.53873 0.0
H2875 H 0.56319 0.79161 0.43825 0.0
H2876 H 0.58385 0.78895 0.47225 0.0
H2877 H 0.55151 0.73927 0.51162 0.0
H2878 H 0.59446 0.70964 0.60357 0.0
H2879 H 0.58562 0.73929 0.58013 0.0
C2880 C 0.83598 0.60176 0.73241 0.0
C2881 C 0.84401 0.5814 0.72673 0.0
C2882 C 0.81618 0.60812 0.72324 0.0
C2883 C 0.77417 0.59844 0.67976 0.0
H2884 H 0.73386 0.6176 0.72414 0.0
C2885 C 0.69846 0.65016 0.66637 0.0
C2886 C 0.68018 0.64755 0.68044 0.0
C2887 C 0.71652 0.63701 0.66804 0.0
C2888 C 0.74468 0.61192 0.71153 0.0
H2889 H 0.83844 0.5526 0.70551 0.0
H2890 H 0.80377 0.56391 0.68942 0.0
H2891 H 0.77059 0.60652 0.73421 0.0
H2892 H 0.66567 0.62875 0.70648 0.0
H2893 H 0.69693 0.60528 0.7091 0.0
H2894 H 0.74811 0.60434 0.65703 0.0
C2895 C 0.81285 0.57481 0.70109 0.0
C2896 C 0.76591 0.60591 0.7173 0.0
C2897 C 0.83272 0.56837 0.71032 0.0
C2898 C 0.67944 0.63072 0.69522 0.0
C2899 C 0.69741 0.61748 0.69681 0.0
C2900 C 0.75285 0.60468 0.67392 0.0
C2901 C 0.80394 0.59433 0.70814 0.0
C2902 C 0.78105 0.59953 0.7015 0.0
C2903 C 0.71665 0.62124 0.684 0.0
C2904 C 0.738 0.61174 0.68978 0.0
H2905 H 0.84438 0.61238 0.74473 0.0
H2906 H 0.80994 0.62351 0.72861 0.0
H2907 H 0.7855 0.59345 0.66728 0.0
H2908 H 0.69966 0.66353 0.65531 0.0
H2909 H 0.73114 0.64049 0.65807 0.0
C2910 C 0.75273 0.60412 0.99325 0.0
C2911 C 0.73621 0.61476 0.00468 0.0
C2912 C 0.74763 0.58338 0.98363 0.0
C2913 C 0.71775 0.54384 0.95707 0.0
H2914 H 0.71019 0.49998 0.00077 0.0
C2915 C 0.66187 0.45958 0.96738 0.0
C2916 C 0.66422 0.44959 0.94698 0.0
C2917 C 0.6769 0.47688 0.97443 0.0
C2918 C 0.71234 0.51197 0.98835 0.0
H2919 H 0.70173 0.61207 0.01556 0.0
H2920 H 0.69287 0.57548 0.99904 0.0
H2921 H 0.72247 0.5378 0.01125 0.0
H2922 H 0.68513 0.44846 0.91864 0.0
H2923 H 0.71168 0.47897 0.93098 0.0
H2924 H 0.7062 0.51844 0.93427 0.0
C2925 C 0.70951 0.58354 0.997 0.0
C2926 C 0.71937 0.53355 0.99436 0.0
C2927 C 0.71453 0.60438 0.00636 0.0
C2928 C 0.68308 0.45585 0.93451 0.0
C2929 C 0.69807 0.47346 0.94146 0.0
C2930 C 0.71044 0.52223 0.95103 0.0
C2931 C 0.72614 0.57278 0.98591 0.0
C2932 C 0.72153 0.5497 0.97886 0.0
C2933 C 0.69456 0.48475 0.96112 0.0
C2934 C 0.70695 0.5062 0.96672 0.0
H2935 H 0.76984 0.61141 0.99258 0.0
H2936 H 0.76073 0.57517 0.97538 0.0
H2937 H 0.71936 0.55617 0.94491 0.0
H2938 H 0.64737 0.4551 0.97721 0.0
H2939 H 0.67349 0.48522 0.98955 0.0
C2940 C 0.65857 0.50888 0.20001 0.0
C2941 C 0.65237 0.50441 0.22135 0.0
C2942 C 0.67775 0.50032 0.19116 0.0
C2943 C 0.7319 0.48777 0.21131 0.0
H2944 H 0.74258 0.46011 0.15573 0.0
C2945 C 0.81194 0.44498 0.19377 0.0
C2946 C 0.82062 0.44451 0.17283 0.0
C2947 C 0.79211 0.45489 0.19812 0.0
C2948 C 0.73996 0.46825 0.17114 0.0
H2949 H 0.65947 0.4853 0.24905 0.0
H2950 H 0.69265 0.47029 0.23356 0.0
H2951 H 0.70451 0.46949 0.16509 0.0
H2952 H 0.8154 0.45401 0.14002 0.0
H2953 H 0.78121 0.4724 0.14774 0.0
H2954 H 0.7671 0.48692 0.21746 0.0
C2955 C 0.68308 0.48076 0.22387 0.0
C2956 C 0.71814 0.47341 0.17652 0.0
C2957 C 0.66398 0.48921 0.23266 0.0
C2958 C 0.80956 0.45491 0.15645 0.0
C2959 C 0.78968 0.46496 0.1608 0.0
C2960 C 0.75364 0.48289 0.20587 0.0
C2961 C 0.69084 0.48723 0.20357 0.0
C2962 C 0.71387 0.48267 0.1969 0.0
C2963 C 0.78042 0.46455 0.18159 0.0
C2964 C 0.75788 0.47254 0.18596 0.0
H2965 H 0.64999 0.52061 0.19093 0.0
H2966 H 0.68336 0.50542 0.17539 0.0
H2967 H 0.72914 0.49548 0.22692 0.0
H2968 H 0.81999 0.43679 0.20662 0.0
H2969 H 0.78535 0.45392 0.21425 0.0
C2970 C 0.78604 0.46645 0.47857 0.0
C2971 C 0.76272 0.46123 0.47663 0.0
C2972 C 0.79591 0.48591 0.47058 0.0
C2973 C 0.78303 0.54169 0.4567 0.0
H2974 H 0.84348 0.54331 0.43375 0.0
C2975 C 0.83844 0.61894 0.42607 0.0
C2976 C 0.86039 0.62047 0.43479 0.0
C2977 C 0.8235 0.60067 0.43011 0.0
C2978 C 0.82655 0.54309 0.44008 0.0
H2979 H 0.73159 0.47228 0.46406 0.0
H2980 H 0.74898 0.50624 0.44986 0.0
H2981 H 0.82338 0.50817 0.44068 0.0
H2982 H 0.88301 0.60522 0.45627 0.0
H2983 H 0.85713 0.57374 0.46321 0.0
H2984 H 0.78658 0.57689 0.4561 0.0
C2985 C 0.75953 0.4953 0.45786 0.0
C2986 C 0.81507 0.52298 0.44414 0.0
C2987 C 0.74961 0.47574 0.46586 0.0
C2988 C 0.86639 0.6044 0.44898 0.0
C2989 C 0.85161 0.58629 0.45292 0.0
C2990 C 0.79453 0.56192 0.45242 0.0
C2991 C 0.78278 0.50072 0.46034 0.0
C2992 C 0.79346 0.52201 0.45316 0.0
C2993 C 0.8304 0.5838 0.44289 0.0
C2994 C 0.81666 0.56276 0.44471 0.0
H2995 H 0.79672 0.45577 0.48678 0.0
H2996 H 0.8138 0.48966 0.47311 0.0
H2997 H 0.76644 0.54154 0.46373 0.0
H2998 H 0.83332 0.63107 0.41509 0.0
H2999 H 0.80713 0.59912 0.42229 0.0
C3000 C 0.82233 0.50432 0.78358 0.0
C3001 C 0.83361 0.52327 0.79302 0.0
C3002 C 0.80154 0.49613 0.79148 0.0
C3003 C 0.76496 0.49682 0.83916 0.0
H3004 H 0.71884 0.47512 0.79787 0.0
C3005 C 0.68032 0.45523 0.86691 0.0
C3006 C 0.67608 0.43435 0.85714 0.0
C3007 C 0.6964 0.47032 0.85816 0.0
C3008 C 0.73151 0.48121 0.80961 0.0
H3009 H 0.83207 0.54802 0.8187 0.0
H3010 H 0.79587 0.53366 0.8324 0.0
H3011 H 0.75443 0.49214 0.78509 0.0
H3012 H 0.68361 0.41346 0.82976 0.0
H3013 H 0.71109 0.43966 0.81435 0.0
H3014 H 0.74227 0.48525 0.86365 0.0
C3015 C 0.80313 0.52516 0.8189 0.0
C3016 C 0.75195 0.49081 0.80229 0.0
C3017 C 0.82389 0.5334 0.81097 0.0
C3018 C 0.68665 0.42946 0.83763 0.0
C3019 C 0.70234 0.44453 0.82875 0.0
C3020 C 0.74449 0.48717 0.84649 0.0
C3021 C 0.79156 0.50663 0.80904 0.0
C3022 C 0.76914 0.4982 0.81696 0.0
C3023 C 0.70804 0.46482 0.83931 0.0
C3024 C 0.72778 0.47872 0.83177 0.0
H3025 H 0.82927 0.49605 0.76977 0.0
H3026 H 0.79326 0.48154 0.7838 0.0
H3027 H 0.77789 0.50227 0.85088 0.0
H3028 H 0.67237 0.45934 0.882 0.0
H3029 H 0.70032 0.48593 0.86653 0.0
C3030 C 0.77815 0.62198 0.10095 0.0
C3031 C 0.79168 0.63002 0.08404 0.0
C3032 C 0.78414 0.60385 0.11232 0.0
C3033 C 0.83031 0.56853 0.12305 0.0
H3034 H 0.78517 0.5198 0.11516 0.0
C3035 C 0.83423 0.47492 0.09925 0.0
C3036 C 0.85137 0.46949 0.1132 0.0
C3037 C 0.82225 0.49324 0.1038 0.0
C3038 C 0.79781 0.5333 0.11784 0.0
H3039 H 0.8228 0.62668 0.06688 0.0
H3040 H 0.83371 0.59572 0.08722 0.0
H3041 H 0.77525 0.55712 0.10879 0.0
H3042 H 0.86896 0.47824 0.14321 0.0
H3043 H 0.84794 0.51022 0.15129 0.0
H3044 H 0.85325 0.54474 0.13083 0.0
C3045 C 0.8184 0.60316 0.0916 0.0
C3046 C 0.79211 0.55466 0.11434 0.0
C3047 C 0.81217 0.6209 0.07995 0.0
C3048 C 0.85532 0.48172 0.13253 0.0
C3049 C 0.84351 0.50019 0.137 0.0
C3050 C 0.83594 0.54725 0.1268 0.0
C3051 C 0.80401 0.59388 0.10729 0.0
C3052 C 0.80857 0.57237 0.11604 0.0
C3053 C 0.82764 0.50675 0.12214 0.0
C3054 C 0.82 0.5293 0.12337 0.0
H3055 H 0.76209 0.62853 0.10421 0.0
H3056 H 0.77278 0.59703 0.12436 0.0
H3057 H 0.84329 0.58189 0.12455 0.0
H3058 H 0.83139 0.46608 0.08397 0.0
H3059 H 0.81033 0.49797 0.0919 0.0
C3060 C 0.68525 0.56301 0.2967 0.0
C3061 C 0.67826 0.57637 0.28037 0.0
C3062 C 0.70683 0.56652 0.30562 0.0
C3063 C 0.74931 0.58814 0.32863 0.0
H3064 H 0.7991 0.59451 0.28875 0.0
C3065 C 0.83642 0.6168 0.36081 0.0
C3066 C 0.84499 0.63543 0.35013 0.0
C3067 C 0.81963 0.60257 0.35096 0.0
C3068 C 0.78541 0.5927 0.30012 0.0
H3069 H 0.68839 0.6031 0.25974 0.0
H3070 H 0.7264 0.60924 0.27521 0.0
H3071 H 0.76092 0.58571 0.27495 0.0
H3072 H 0.84486 0.65277 0.32035 0.0
H3073 H 0.81601 0.62811 0.30307 0.0
H3074 H 0.77339 0.59643 0.35374 0.0
C3075 C 0.71501 0.59633 0.2814 0.0
C3076 C 0.76358 0.58774 0.2922 0.0
C3077 C 0.69331 0.59299 0.27271 0.0
C3078 C 0.83862 0.63829 0.32872 0.0
C3079 C 0.82199 0.62411 0.31886 0.0
C3080 C 0.77111 0.59339 0.33656 0.0
C3081 C 0.72202 0.58298 0.29779 0.0
C3082 C 0.74529 0.58604 0.30635 0.0
C3083 C 0.81129 0.60688 0.33036 0.0
C3084 C 0.78935 0.59641 0.32234 0.0
H3085 H 0.67424 0.54942 0.30212 0.0
H3086 H 0.71191 0.5559 0.3181 0.0
H3087 H 0.73545 0.58688 0.33986 0.0
H3088 H 0.84101 0.61446 0.37743 0.0
H3089 H 0.81202 0.58919 0.36009 0.0
C3090 C 0.69877 0.46382 0.55655 0.0
C3091 C 0.71963 0.45463 0.55527 0.0
C3092 C 0.69686 0.48365 0.56775 0.0
C3093 C 0.72333 0.52562 0.60553 0.0
H3094 H 0.69532 0.56472 0.56742 0.0
C3095 C 0.68524 0.60674 0.63012 0.0
C3096 C 0.68392 0.62228 0.61411 0.0
C3097 C 0.6966 0.5879 0.62609 0.0
C3098 C 0.70359 0.55422 0.57817 0.0
H3099 H 0.75432 0.45803 0.56659 0.0
H3100 H 0.75088 0.49284 0.58613 0.0
H3101 H 0.69887 0.52711 0.55582 0.0
H3102 H 0.69538 0.63192 0.58259 0.0
H3103 H 0.71601 0.59953 0.57582 0.0
H3104 H 0.72765 0.55303 0.62806 0.0
C3105 C 0.73608 0.48463 0.57839 0.0
C3106 C 0.70523 0.5325 0.57164 0.0
C3107 C 0.73802 0.4647 0.56717 0.0
C3108 C 0.69629 0.62013 0.59516 0.0
C3109 C 0.70788 0.6015 0.59125 0.0
C3110 C 0.72149 0.54751 0.61221 0.0
C3111 C 0.71575 0.49476 0.57789 0.0
C3112 C 0.71476 0.51787 0.58532 0.0
C3113 C 0.7067 0.58445 0.60597 0.0
C3114 C 0.71146 0.56199 0.59859 0.0
H3115 H 0.68418 0.45633 0.54789 0.0
H3116 H 0.68084 0.4909 0.56753 0.0
H3117 H 0.73088 0.51465 0.61631 0.0
H3118 H 0.67549 0.60796 0.64473 0.0
H3119 H 0.6954 0.57511 0.63779 0.0
C3120 C 0.75819 0.87621 0.55421 0.0
C3121 C 0.78037 0.88149 0.56153 0.0
C3122 C 0.74572 0.85769 0.5617 0.0
C3123 C 0.74484 0.81962 0.60701 0.0
H3124 H 0.70258 0.78363 0.57079 0.0
C3125 C 0.68803 0.73174 0.61098 0.0
C3126 C 0.68102 0.73375 0.6325 0.0
C3127 C 0.6996 0.74949 0.60109 0.0
C3128 C 0.7145 0.7934 0.58103 0.0
H3129 H 0.80715 0.87097 0.5817 0.0
H3130 H 0.78583 0.83864 0.59413 0.0
H3131 H 0.72431 0.81487 0.55555 0.0
H3132 H 0.67962 0.75632 0.66007 0.0
H3133 H 0.69901 0.78704 0.6428 0.0
H3134 H 0.73587 0.79791 0.63223 0.0
C3135 C 0.77767 0.84908 0.58326 0.0
C3136 C 0.72672 0.81147 0.57239 0.0
C3137 C 0.78995 0.86765 0.57605 0.0
C3138 C 0.68519 0.75398 0.64363 0.0
C3139 C 0.69643 0.77166 0.63373 0.0
C3140 C 0.73288 0.80153 0.61554 0.0
C3141 C 0.75529 0.844 0.57645 0.0
C3142 C 0.74203 0.82481 0.58531 0.0
C3143 C 0.70415 0.76958 0.61249 0.0
C3144 C 0.71739 0.78829 0.60276 0.0
H3145 H 0.75037 0.88654 0.54297 0.0
H3146 H 0.72846 0.85437 0.55627 0.0
H3147 H 0.75618 0.82966 0.61758 0.0
H3148 H 0.68491 0.71641 0.60191 0.0
H3149 H 0.70539 0.74731 0.58472 0.0
C3150 C 0.16993 0.70394 0.50738 0.0
C3151 C 0.18535 0.69626 0.49245 0.0
C3152 C 0.15697 0.72125 0.5022 0.0
C3153 C 0.15204 0.76958 0.49201 0.0
H3154 H 0.13105 0.77796 0.43388 0.0
C3155 C 0.16674 0.84979 0.44823 0.0
C3156 C 0.15273 0.8542 0.43095 0.0
C3157 C 0.16183 0.83129 0.46052 0.0
C3158 C 0.13624 0.77597 0.4504 0.0
H3159 H 0.19809 0.69921 0.46002 0.0
H3160 H 0.17522 0.72877 0.45075 0.0
H3161 H 0.13722 0.74137 0.44527 0.0
H3162 H 0.1226 0.84298 0.41295 0.0
H3163 H 0.11335 0.81135 0.43498 0.0
H3164 H 0.15197 0.80439 0.49682 0.0
C3165 C 0.17306 0.72171 0.46646 0.0
C3166 C 0.13998 0.75492 0.45684 0.0
C3167 C 0.18624 0.7048 0.47176 0.0
C3168 C 0.13315 0.84047 0.4268 0.0
C3169 C 0.12811 0.82209 0.43916 0.0
C3170 C 0.14825 0.79071 0.48557 0.0
C3171 C 0.15894 0.73073 0.48187 0.0
C3172 C 0.14901 0.75164 0.47732 0.0
C3173 C 0.14299 0.81666 0.45548 0.0
C3174 C 0.14137 0.79426 0.46433 0.0
H3175 H 0.16917 0.69777 0.52355 0.0
H3176 H 0.14618 0.72785 0.51435 0.0
H3177 H 0.15902 0.76759 0.50792 0.0
H3178 H 0.18231 0.85976 0.45124 0.0
H3179 H 0.17389 0.82752 0.47271 0.0
C3180 C 0.59031 0.02422 0.7564 0.0
C3181 C 0.60534 0.03739 0.74412 0.0
C3182 C 0.57032 0.01468 0.74723 0.0
C3183 C 0.54326 -0.00013 0.6947 0.0
H3184 H 0.48733 0.00154 0.72625 0.0
C3185 C 0.45905 0.98573 0.65128 0.0
C3186 C 0.44267 0.97081 0.65997 0.0
C3187 C 0.47794 0.99345 0.66331 0.0
C3188 C 0.50285 0.00073 0.71737 0.0
H3189 H 0.61095 0.05212 0.71324 0.0
H3190 H 0.57597 0.0354 0.69698 0.0
H3191 H 0.52287 0.0152 0.74363 0.0
H3192 H 0.43233 0.9541 0.68894 0.0
H3193 H 0.46579 0.96743 0.71005 0.0
H3194 H 0.52334 0.98575 0.66836 0.0
C3195 C 0.57988 0.03189 0.71352 0.0
C3196 C 0.52319 0.00852 0.72729 0.0
C3197 C 0.59981 0.04152 0.72277 0.0
C3198 C 0.44485 0.96516 0.68163 0.0
C3199 C 0.46395 0.97287 0.69374 0.0
C3200 C 0.523 0.99217 0.6848 0.0
C3201 C 0.56491 0.01837 0.72566 0.0
C3202 C 0.54354 0.00857 0.71588 0.0
C3203 C 0.48103 0.9865 0.68437 0.0
C3204 C 0.50253 0.99296 0.69584 0.0
H3205 H 0.59396 0.02144 0.77317 0.0
H3206 H 0.5592 0.00431 0.75697 0.0
H3207 H 0.55872 0.99917 0.68569 0.0
H3208 H 0.45779 0.99089 0.63482 0.0
H3209 H 0.49047 0.00449 0.65589 0.0
C3210 C 0.33989 0.37429 0.97781 0.0
C3211 C 0.34283 0.38057 0.99969 0.0
C3212 C 0.34854 0.35519 0.96959 0.0
C3213 C 0.37588 0.31799 0.95403 0.0
H3214 H 0.36142 0.26624 0.98725 0.0
C3215 C 0.3864 0.23354 0.91621 0.0
C3216 C 0.36644 0.21985 0.91675 0.0
C3217 C 0.38973 0.25158 0.93054 0.0
C3218 C 0.36577 0.28056 0.97788 0.0
H3219 H 0.35822 0.37205 0.02981 0.0
H3220 H 0.37323 0.33873 0.01538 0.0
H3221 H 0.35555 0.30244 0.0029 0.0
H3222 H 0.33472 0.21363 0.93296 0.0
H3223 H 0.34051 0.24494 0.95819 0.0
H3224 H 0.38496 0.29616 0.92861 0.0
C3225 C 0.36406 0.34855 0.00468 0.0
C3226 C 0.36256 0.30131 0.98688 0.0
C3227 C 0.35556 0.36776 0.01288 0.0
C3228 C 0.35052 0.22362 0.93269 0.0
C3229 C 0.35386 0.2416 0.94709 0.0
C3230 C 0.37919 0.29729 0.94509 0.0
C3231 C 0.36026 0.34182 0.98304 0.0
C3232 C 0.36693 0.32021 0.9748 0.0
C3233 C 0.373 0.2564 0.94546 0.0
C3234 C 0.37354 0.27827 0.95665 0.0
H3235 H 0.33023 0.38372 0.96715 0.0
H3236 H 0.34513 0.35038 0.95288 0.0
H3237 H 0.37966 0.33224 0.94441 0.0
H3238 H 0.39855 0.23143 0.90354 0.0
H3239 H 0.40473 0.26255 0.92901 0.0
C3240 C 0.43144 0.54017 0.70911 0.0
C3241 C 0.42487 0.54621 0.73004 0.0
C3242 C 0.45048 0.5506 0.69984 0.0
C3243 C 0.50427 0.58082 0.71404 0.0
H3244 H 0.50432 0.59538 0.65371 0.0
C3245 C 0.57993 0.62713 0.67202 0.0
C3246 C 0.58417 0.62064 0.65059 0.0
C3247 C 0.56098 0.6181 0.68272 0.0
C3248 C 0.50468 0.59116 0.67052 0.0
H3249 H 0.43295 0.56837 0.75744 0.0
H3250 H 0.46622 0.58664 0.74111 0.0
H3251 H 0.46959 0.58075 0.67013 0.0
H3252 H 0.57265 0.59856 0.62411 0.0
H3253 H 0.54005 0.58251 0.6429 0.0
H3254 H 0.53948 0.59105 0.71432 0.0
C3255 C 0.45666 0.57368 0.73201 0.0
C3256 C 0.48474 0.58286 0.67993 0.0
C3257 C 0.4375 0.56333 0.74127 0.0
C3258 C 0.56975 0.60412 0.64052 0.0
C3259 C 0.55095 0.59503 0.65123 0.0
C3260 C 0.52428 0.58909 0.70459 0.0
C3261 C 0.46346 0.56726 0.71128 0.0
C3262 C 0.48436 0.57738 0.70173 0.0
C3263 C 0.54599 0.60234 0.67223 0.0
C3264 C 0.52475 0.59411 0.68264 0.0
H3265 H 0.42211 0.52709 0.69997 0.0
H3266 H 0.4554 0.54515 0.68391 0.0
H3267 H 0.50454 0.57652 0.73083 0.0
H3268 H 0.59066 0.6399 0.68021 0.0
H3269 H 0.55759 0.62414 0.69887 0.0
C3270 C 0.76925 0.21041 0.05652 0.0
C3271 C 0.76705 0.2042 0.03469 0.0
C3272 C 0.78142 0.22999 0.06273 0.0
C3273 C 0.79786 0.28464 0.04335 0.0
H3274 H 0.83416 0.28864 0.09555 0.0
C3275 C 0.81838 0.34847 0.11639 0.0
C3276 C 0.83573 0.36391 0.11052 0.0
C3277 C 0.81195 0.33065 0.10277 0.0
C3278 C 0.82434 0.28768 0.08076 0.0
H3279 H 0.77448 0.21381 0.00208 0.0
H3280 H 0.796 0.2481 0.0129 0.0
H3281 H 0.82084 0.25267 0.08041 0.0
H3282 H 0.85856 0.37396 0.08499 0.0
H3283 H 0.84702 0.34233 0.0608 0.0
H3284 H 0.80087 0.31987 0.04433 0.0
C3285 C 0.78871 0.23771 0.02524 0.0
C3286 C 0.81658 0.26717 0.07221 0.0
C3287 C 0.77665 0.21804 0.01908 0.0
C3288 C 0.84512 0.36227 0.08985 0.0
C3289 C 0.83864 0.34422 0.07611 0.0
C3290 C 0.80576 0.30524 0.0519 0.0
C3291 C 0.79115 0.24393 0.04715 0.0
C3292 C 0.80254 0.26544 0.05389 0.0
C3293 C 0.82264 0.32791 0.08296 0.0
C3294 C 0.81841 0.30683 0.07106 0.0
H3295 H 0.76143 0.20018 0.06874 0.0
H3296 H 0.78258 0.23455 0.07972 0.0
H3297 H 0.78699 0.28381 0.02926 0.0
H3298 H 0.81067 0.34947 0.13212 0.0
H3299 H 0.79938 0.31834 0.10819 0.0
C3300 C 0.61663 0.12757 0.79965 0.0
C3301 C 0.61883 0.10802 0.81049 0.0
C3302 C 0.59862 0.14032 0.80421 0.0
C3303 C 0.55591 0.15325 0.84305 0.0
H3304 H 0.51237 0.14923 0.79604 0.0
C3305 C 0.45871 0.13889 0.84271 0.0
C3306 C 0.45367 0.1548 0.85828 0.0
C3307 C 0.47869 0.14139 0.83104 0.0
C3308 C 0.52454 0.15096 0.80913 0.0
H3309 H 0.60507 0.08729 0.83557 0.0
H3310 H 0.5743 0.11022 0.84433 0.0
H3311 H 0.55065 0.13831 0.78981 0.0
H3312 H 0.46406 0.18673 0.87236 0.0
H3313 H 0.49908 0.19107 0.85207 0.0
H3314 H 0.5297 0.16491 0.86265 0.0
C3315 C 0.58625 0.11545 0.83209 0.0
C3316 C 0.54639 0.14477 0.80558 0.0
C3317 C 0.60385 0.10238 0.82713 0.0
C3318 C 0.46741 0.17443 0.86011 0.0
C3319 C 0.48757 0.1768 0.8487 0.0
C3320 C 0.53427 0.15988 0.84648 0.0
C3321 C 0.583 0.13404 0.82011 0.0
C3322 C 0.56194 0.1451 0.82273 0.0
C3323 C 0.49407 0.15962 0.83518 0.0
C3324 C 0.51811 0.15803 0.82977 0.0
H3325 H 0.62775 0.1321 0.78651 0.0
H3326 H 0.59637 0.15458 0.79477 0.0
H3327 H 0.56761 0.15353 0.8565 0.0
H3328 H 0.44863 0.12342 0.84143 0.0
H3329 H 0.4833 0.12783 0.8208 0.0
C3330 C 0.92282 0.97378 0.30496 0.0
C3331 C 0.91422 0.96731 0.28441 0.0
C3332 C 0.94242 0.96547 0.31271 0.0
C3333 C 0.99197 0.95893 0.31697 0.0
H3334 H 0.0045 0.89778 0.31298 0.0
C3335 C 0.07202 0.93394 0.35521 0.0
C3336 C 0.0673 0.91773 0.37031 0.0
C3337 C 0.05671 0.93664 0.33847 0.0
C3338 C 0.00133 0.91494 0.31402 0.0
H3339 H 0.91885 0.94586 0.25651 0.0
H3340 H 0.95298 0.93138 0.27015 0.0
H3341 H 0.96908 0.90915 0.29844 0.0
H3342 H 0.04432 0.89042 0.37886 0.0
H3343 H 0.01781 0.89483 0.3497 0.0
H3344 H 0.02355 0.96476 0.3333 0.0
C3345 C 0.94458 0.94297 0.28019 0.0
C3346 C 0.98107 0.92146 0.30567 0.0
C3347 C 0.925 0.95133 0.27238 0.0
C3348 C 0.04849 0.90277 0.3671 0.0
C3349 C 0.03324 0.9054 0.35039 0.0
C3350 C 0.01218 0.95247 0.32521 0.0
C3351 C 0.95388 0.95045 0.30016 0.0
C3352 C 0.97593 0.94346 0.30757 0.0
C3353 C 0.0364 0.92329 0.3368 0.0
C3354 C 0.01693 0.93033 0.3243 0.0
H3355 H 0.91498 0.98596 0.31475 0.0
H3356 H 0.94888 0.97119 0.3284 0.0
H3357 H 0.98875 0.97608 0.31828 0.0
H3358 H 0.08621 0.94592 0.35766 0.0
H3359 H 0.05985 0.95033 0.32799 0.0
C3360 C 0.49377 0.33531 0.22092 0.0
C3361 C 0.47696 0.31811 0.21731 0.0
C3362 C 0.49448 0.34776 0.24032 0.0
C3363 C 0.47523 0.34498 0.29659 0.0
H3364 H 0.46998 0.40753 0.29481 0.0
C3365 C 0.43617 0.38904 0.36739 0.0
C3366 C 0.41683 0.39806 0.35972 0.0
C3367 C 0.45335 0.38422 0.35301 0.0
C3368 C 0.47193 0.39014 0.29568 0.0
H3369 H 0.4476 0.30081 0.2313 0.0
H3370 H 0.44897 0.32228 0.26469 0.0
H3371 H 0.48094 0.38745 0.26235 0.0
H3372 H 0.40099 0.41098 0.33187 0.0
H3373 H 0.43081 0.40325 0.30716 0.0
H3374 H 0.46436 0.34718 0.32925 0.0
C3375 C 0.46174 0.32602 0.25272 0.0
C3376 C 0.47828 0.37869 0.27712 0.0
C3377 C 0.46082 0.31386 0.23338 0.0
C3378 C 0.41578 0.40398 0.33813 0.0
C3379 C 0.43301 0.39971 0.32399 0.0
C3380 C 0.46894 0.3564 0.31512 0.0
C3381 C 0.47867 0.34292 0.25652 0.0
C3382 C 0.47863 0.35581 0.27712 0.0
C3383 C 0.45152 0.38886 0.33098 0.0
C3384 C 0.46584 0.37887 0.31446 0.0
H3385 H 0.50648 0.33901 0.2089 0.0
H3386 H 0.50757 0.36088 0.24281 0.0
H3387 H 0.47578 0.32737 0.29708 0.0
H3388 H 0.43726 0.38432 0.38402 0.0
H3389 H 0.46745 0.37587 0.35884 0.0
C3390 C 0.46952 0.82901 0.93771 0.0
C3391 C 0.46748 0.81818 0.91738 0.0
C3392 C 0.45921 0.81967 0.95579 0.0
C3393 C 0.44715 0.76486 0.97433 0.0
H3394 H 0.42158 0.79228 0.02472 0.0
C3395 C 0.44801 0.72472 0.05624 0.0
C3396 C 0.42714 0.72194 0.06653 0.0
C3397 C 0.45093 0.73886 0.03906 0.0
C3398 C 0.42867 0.78446 0.01072 0.0
H3399 H 0.45088 0.79035 0.89971 0.0
H3400 H 0.43292 0.7741 0.93125 0.0
H3401 H 0.42714 0.81299 0.99158 0.0
H3402 H 0.39281 0.73101 0.06649 0.0
H3403 H 0.39813 0.75664 0.03706 0.0
H3404 H 0.44933 0.73663 0.99342 0.0
C3405 C 0.44275 0.78967 0.93323 0.0
C3406 C 0.43184 0.79626 0.99181 0.0
C3407 C 0.4529 0.79909 0.91512 0.0
C3408 C 0.40939 0.73388 0.05964 0.0
C3409 C 0.41235 0.74824 0.04258 0.0
C3410 C 0.44436 0.75327 0.99323 0.0
C3411 C 0.44677 0.79928 0.95389 0.0
C3412 C 0.44119 0.78657 0.97343 0.0
C3413 C 0.43298 0.7504 0.03174 0.0
C3414 C 0.43533 0.76297 0.0117 0.0
H3415 H 0.48057 0.84379 0.93999 0.0
H3416 H 0.4626 0.82748 0.97149 0.0
H3417 H 0.45472 0.75704 0.96059 0.0
H3418 H 0.46181 0.71534 0.06098 0.0
H3419 H 0.46705 0.74029 0.03105 0.0
C3420 C 0.98968 0.73705 0.73485 0.0
C3421 C 0.00127 0.73796 0.71516 0.0
C3422 C 0.99899 0.72748 0.7527 0.0
C3423 C 0.05527 0.71942 0.77305 0.0
H3424 H 0.02428 0.68994 0.82002 0.0
C3425 C 0.08395 0.67727 0.85477 0.0
C3426 C 0.10143 0.69318 0.8604 0.0
C3427 C 0.06796 0.68157 0.83908 0.0
C3428 C 0.03312 0.69811 0.80698 0.0
H3429 H 0.03044 0.72745 0.69815 0.0
H3430 H 0.04632 0.71034 0.72904 0.0
H3431 H 0.00359 0.69653 0.78675 0.0
H3432 H 0.11421 0.72683 0.8564 0.0
H3433 H 0.08581 0.73471 0.83004 0.0
H3434 H 0.08472 0.72099 0.79283 0.0
C3435 C 0.03043 0.71765 0.73092 0.0
C3436 C 0.02129 0.70195 0.788 0.0
C3437 C 0.02128 0.72737 0.71318 0.0
C3438 C 0.10108 0.71419 0.85213 0.0
C3439 C 0.08495 0.71861 0.83686 0.0
C3440 C 0.06696 0.71569 0.79189 0.0
C3441 C 0.01996 0.71851 0.75115 0.0
C3442 C 0.03228 0.71275 0.77085 0.0
C3443 C 0.06909 0.70197 0.82918 0.0
C3444 C 0.05603 0.70531 0.80922 0.0
H3445 H 0.9742 0.74502 0.73692 0.0
H3446 H 0.99049 0.72846 0.76804 0.0
H3447 H 0.06424 0.7281 0.76039 0.0
H3448 H 0.08383 0.66094 0.86098 0.0
H3449 H 0.05587 0.66845 0.83358 0.0
C3450 C 0.07272 0.30492 0.42399 0.0
C3451 C 0.06675 0.32519 0.41672 0.0
C3452 C 0.08389 0.30372 0.44379 0.0
C3453 C 0.11494 0.33626 0.48676 0.0
H3454 H 0.07553 0.30505 0.52689 0.0
C3455 C 0.08189 0.35857 0.57261 0.0
C3456 C 0.10205 0.36583 0.58319 0.0
C3457 C 0.08217 0.34471 0.55433 0.0
C3458 C 0.08701 0.31345 0.51587 0.0
H3459 H 0.06697 0.35984 0.42468 0.0
H3460 H 0.08769 0.35803 0.45832 0.0
H3461 H 0.07 0.2984 0.48809 0.0
H3462 H 0.13811 0.36398 0.58359 0.0
H3463 H 0.13869 0.33967 0.55166 0.0
H3464 H 0.13092 0.35251 0.51436 0.0
C3465 C 0.08421 0.34313 0.44864 0.0
C3466 C 0.08395 0.30954 0.4937 0.0
C3467 C 0.07256 0.34422 0.42925 0.0
C3468 C 0.12231 0.35793 0.57612 0.0
C3469 C 0.12266 0.34427 0.5577 0.0
C3470 C 0.11819 0.33995 0.5089 0.0
C3471 C 0.08939 0.32282 0.45641 0.0
C3472 C 0.09714 0.32179 0.47899 0.0
C3473 C 0.1027 0.33831 0.54609 0.0
C3474 C 0.10348 0.32945 0.52364 0.0
H3475 H 0.06782 0.28995 0.41485 0.0
H3476 H 0.08745 0.28786 0.44963 0.0
H3477 H 0.1253 0.34588 0.47569 0.0
H3478 H 0.06614 0.36479 0.5776 0.0
H3479 H 0.06655 0.34067 0.54559 0.0
C3480 C 0.52419 0.73734 0.33291 0.0
C3481 C 0.50679 0.7456 0.34511 0.0
C3482 C 0.51975 0.72791 0.31234 0.0
C3483 C 0.50547 0.73024 0.26442 0.0
H3484 H 0.45308 0.69076 0.25046 0.0
C3485 C 0.45188 0.73182 0.18701 0.0
C3486 C 0.44225 0.71192 0.17818 0.0
C3487 C 0.46558 0.73207 0.20543 0.0
C3488 C 0.46804 0.70148 0.25403 0.0
H3489 H 0.47139 0.75132 0.3451 0.0
H3490 H 0.46333 0.73371 0.30991 0.0
H3491 H 0.46516 0.69662 0.288 0.0
H3492 H 0.43921 0.67678 0.18143 0.0
H3493 H 0.46331 0.67713 0.21343 0.0
H3494 H 0.50749 0.73615 0.23056 0.0
C3495 C 0.48031 0.73411 0.31632 0.0
C3496 C 0.47484 0.70489 0.27552 0.0
C3497 C 0.48485 0.74395 0.33659 0.0
C3498 C 0.4472 0.69226 0.18748 0.0
C3499 C 0.4607 0.69248 0.20596 0.0
C3500 C 0.49845 0.72707 0.24292 0.0
C3501 C 0.4978 0.72654 0.30376 0.0
C3502 C 0.49326 0.71973 0.28096 0.0
C3503 C 0.46938 0.71243 0.21557 0.0
C3504 C 0.47931 0.71308 0.23758 0.0
H3505 H 0.54136 0.739 0.33894 0.0
H3506 H 0.53353 0.72232 0.30288 0.0
H3507 H 0.51962 0.74192 0.26822 0.0
H3508 H 0.44772 0.7472 0.18045 0.0
H3509 H 0.47176 0.74772 0.21265 0.0
C3510 C 0.06701 0.78231 0.06601 0.0
C3511 C 0.0575 0.77094 0.08354 0.0
C3512 C 0.07662 0.77101 0.04891 0.0
C3513 C 0.10139 0.71991 0.03407 0.0
H3514 H 0.07639 0.72628 0.97694 0.0
C3515 C 0.10219 0.65156 0.97058 0.0
C3516 C 0.10592 0.65616 0.94885 0.0
C3517 C 0.09982 0.66834 0.98577 0.0
C3518 C 0.08394 0.72465 0.99266 0.0
H3519 H 0.05139 0.73891 0.0972 0.0
H3520 H 0.06868 0.71926 0.06757 0.0
H3521 H 0.06639 0.75086 0.00661 0.0
H3522 H 0.10941 0.68193 0.92574 0.0
H3523 H 0.10497 0.71171 0.95257 0.0
H3524 H 0.11876 0.69365 0.02039 0.0
C3525 C 0.06851 0.7369 0.06704 0.0
C3526 C 0.07816 0.73866 0.00965 0.0
C3527 C 0.05853 0.74813 0.08394 0.0
C3528 C 0.10677 0.67799 0.94245 0.0
C3529 C 0.10408 0.69496 0.95777 0.0
C3530 C 0.10738 0.70613 0.0171 0.0
C3531 C 0.07733 0.74819 0.04922 0.0
C3532 C 0.0862 0.73586 0.03065 0.0
C3533 C 0.10093 0.69027 0.97968 0.0
C3534 C 0.09798 0.70771 0.9964 0.0
H3535 H 0.06638 0.79988 0.06514 0.0
H3536 H 0.08336 0.78008 0.03538 0.0
H3537 H 0.10815 0.7177 0.05003 0.0
H3538 H 0.10128 0.63486 0.97597 0.0
H3539 H 0.09672 0.66402 0.00234 0.0
C3540 C 0.03383 0.34698 0.84796 0.0
C3541 C 0.01312 0.33517 0.85153 0.0
C3542 C 0.03738 0.35834 0.82891 0.0
C3543 C 0.04001 0.38363 0.78714 0.0
H3544 H 0.02191 0.34339 0.73957 0.0
C3545 C 0.07274 0.39781 0.70135 0.0
C3546 C 0.08368 0.37986 0.69322 0.0
C3547 C 0.05805 0.39542 0.71876 0.0
C3548 C 0.02683 0.35494 0.75263 0.0
H3549 H 0.97904 0.32827 0.83932 0.0
H3550 H 0.98518 0.34826 0.80629 0.0
H3551 H 0.00781 0.3362 0.77562 0.0
H3552 H 0.08761 0.34531 0.69629 0.0
H3553 H 0.06164 0.34089 0.72645 0.0
H3554 H 0.05999 0.40171 0.76421 0.0
C3555 C 0.99883 0.34833 0.8179 0.0
C3556 C 0.01862 0.35095 0.77327 0.0
C3557 C 0.9953 0.33699 0.8369 0.0
C3558 C 0.07893 0.35924 0.70201 0.0
C3559 C 0.06408 0.35677 0.71925 0.0
C3560 C 0.04806 0.38773 0.76641 0.0
C3561 C 0.02024 0.35811 0.81317 0.0
C3562 C 0.02568 0.36486 0.79089 0.0
C3563 C 0.05413 0.37499 0.72829 0.0
C3564 C 0.04214 0.37301 0.7491 0.0
H3565 H 0.04789 0.34588 0.85892 0.0
H3566 H 0.05409 0.3657 0.82574 0.0
H3567 H 0.04563 0.39469 0.80036 0.0
H3568 H 0.07681 0.41402 0.69531 0.0
H3569 H 0.05059 0.40972 0.72538 0.0
C3570 C 0.46667 0.3349 0.57895 0.0
C3571 C 0.47812 0.31575 0.57842 0.0
C3572 C 0.45155 0.33883 0.56256 0.0
C3573 C 0.4456 0.33266 0.50607 0.0
H3574 H 0.38953 0.35915 0.5167 0.0
C3575 C 0.41098 0.39375 0.44724 0.0
C3576 C 0.40767 0.41356 0.45833 0.0
C3577 C 0.41323 0.37462 0.45872 0.0
C3578 C 0.40498 0.35151 0.51331 0.0
H3579 H 0.48254 0.2854 0.56069 0.0
H3580 H 0.45659 0.29282 0.5312 0.0
H3581 H 0.40541 0.33734 0.54441 0.0
H3582 H 0.40319 0.4289 0.48973 0.0
H3583 H 0.40691 0.39591 0.5096 0.0
H3584 H 0.4463 0.34856 0.4758 0.0
C3585 C 0.45896 0.30444 0.54468 0.0
C3586 C 0.41401 0.33898 0.52914 0.0
C3587 C 0.47369 0.30021 0.5615 0.0
C3588 C 0.40582 0.41383 0.48082 0.0
C3589 C 0.40766 0.39483 0.49217 0.0
C3590 C 0.43665 0.34538 0.49025 0.0
C3591 C 0.44797 0.32394 0.54499 0.0
C3592 C 0.43504 0.33054 0.52615 0.0
C3593 C 0.41176 0.37505 0.48137 0.0
C3594 C 0.41699 0.35606 0.49432 0.0
H3595 H 0.46981 0.34713 0.59179 0.0
H3596 H 0.44357 0.35414 0.56304 0.0
H3597 H 0.46188 0.32634 0.50339 0.0
H3598 H 0.41254 0.39321 0.42987 0.0
H3599 H 0.4164 0.35961 0.44998 0.0
C3600 C 0.21402 0.54157 0.31086 0.0
C3601 C 0.19254 0.54405 0.31916 0.0
C3602 C 0.23121 0.53534 0.3241 0.0
C3603 C 0.23639 0.50191 0.37124 0.0
H3604 H 0.29943 0.51025 0.35615 0.0
C3605 C 0.29342 0.43165 0.37244 0.0
C3606 C 0.31656 0.43545 0.37664 0.0
C3607 C 0.2797 0.44904 0.37158 0.0
C3608 C 0.28201 0.50791 0.361 0.0
H3609 H 0.17222 0.54333 0.34789 0.0
H3610 H 0.20255 0.53273 0.37148 0.0
H3611 H 0.27354 0.53663 0.345 0.0
H3612 H 0.3435 0.46056 0.38307 0.0
H3613 H 0.31951 0.49111 0.38189 0.0
H3614 H 0.24483 0.47318 0.38719 0.0
C3615 C 0.20611 0.53544 0.35465 0.0
C3616 C 0.26708 0.52297 0.3544 0.0
C3617 C 0.18882 0.54174 0.34127 0.0
C3618 C 0.32573 0.45709 0.38004 0.0
C3619 C 0.31196 0.47461 0.37917 0.0
C3620 C 0.25136 0.48702 0.37807 0.0
C3621 C 0.22726 0.53128 0.346 0.0
C3622 C 0.24386 0.51944 0.35833 0.0
C3623 C 0.28875 0.47078 0.37483 0.0
C3624 C 0.27411 0.48915 0.37197 0.0
H3625 H 0.21711 0.54303 0.29375 0.0
H3626 H 0.24703 0.532 0.31666 0.0
H3627 H 0.21869 0.49862 0.37472 0.0
H3628 H 0.28587 0.41515 0.3696 0.0
H3629 H 0.26206 0.44538 0.36764 0.0
C3630 C 0.314 0.48857 0.04634 0.0
C3631 C 0.29415 0.47488 0.04787 0.0
C3632 C 0.31522 0.50986 0.05513 0.0
C3633 C 0.30829 0.54952 0.08991 0.0
H3634 H 0.29047 0.58978 0.04703 0.0
C3635 C 0.33483 0.64074 0.09935 0.0
C3636 C 0.35062 0.6453 0.08306 0.0
C3637 C 0.3192 0.62251 0.09711 0.0
C3638 C 0.29497 0.57878 0.0594 0.0
H3639 H 0.2597 0.47284 0.05895 0.0
H3640 H 0.26167 0.51064 0.07396 0.0
H3641 H 0.2812 0.55031 0.04147 0.0
H3642 H 0.36005 0.63694 0.05039 0.0
H3643 H 0.33203 0.6061 0.04593 0.0
H3644 H 0.32327 0.57776 0.10726 0.0
C3645 C 0.27648 0.50443 0.06669 0.0
C3646 C 0.28968 0.55628 0.05622 0.0
C3647 C 0.27539 0.48293 0.05817 0.0
C3648 C 0.34817 0.63366 0.06325 0.0
C3649 C 0.33213 0.61595 0.06074 0.0
C3650 C 0.31327 0.57206 0.09327 0.0
C3651 C 0.29635 0.51805 0.06498 0.0
C3652 C 0.29705 0.54151 0.07106 0.0
C3653 C 0.31856 0.60932 0.07814 0.0
C3654 C 0.3075 0.58681 0.07759 0.0
H3655 H 0.32827 0.48316 0.03748 0.0
H3656 H 0.33056 0.52031 0.05332 0.0
H3657 H 0.31434 0.53829 0.10137 0.0
H3658 H 0.33614 0.64976 0.11463 0.0
H3659 H 0.30875 0.61784 0.11068 0.0
C3660 C 0.33177 0.53473 0.8409 0.0
C3661 C 0.34897 0.548 0.8313 0.0
C3662 C 0.31465 0.54414 0.85234 0.0
C3663 C 0.29421 0.59688 0.87302 0.0
H3664 H 0.2374 0.57251 0.84839 0.0
C3665 C 0.21184 0.6395 0.8853 0.0
C3666 C 0.19958 0.64185 0.86626 0.0
C3667 C 0.2291 0.62529 0.88573 0.0
C3668 C 0.25308 0.57944 0.85554 0.0
H3669 H 0.36313 0.58138 0.82822 0.0
H3670 H 0.33319 0.59786 0.84799 0.0
H3671 H 0.27113 0.55316 0.84303 0.0
H3672 H 0.19546 0.63152 0.8328 0.0
H3673 H 0.2253 0.60623 0.83349 0.0
H3674 H 0.27621 0.62376 0.8846 0.0
C3675 C 0.33289 0.58017 0.8468 0.0
C3676 C 0.27242 0.56822 0.8527 0.0
C3677 C 0.35013 0.57072 0.83545 0.0
C3678 C 0.20437 0.62946 0.84778 0.0
C3679 C 0.22146 0.61505 0.84823 0.0
C3680 C 0.27479 0.60806 0.87599 0.0
C3681 C 0.31432 0.56702 0.85429 0.0
C3682 C 0.29336 0.5771 0.86085 0.0
C3683 C 0.23435 0.61316 0.86708 0.0
C3684 C 0.25414 0.59978 0.86671 0.0
H3685 H 0.33058 0.51712 0.83818 0.0
H3686 H 0.30089 0.53353 0.85841 0.0
H3687 H 0.31003 0.60408 0.87965 0.0
H3688 H 0.20869 0.64935 0.89961 0.0
H3689 H 0.23855 0.62404 0.90053 0.0
C3690 C 0.26679 0.5959 0.55194 0.0
C3691 C 0.25153 0.61236 0.55272 0.0
C3692 C 0.26143 0.57568 0.56121 0.0
C3693 C 0.23491 0.53125 0.56365 0.0
H3694 H 0.20416 0.52246 0.61795 0.0
C3695 C 0.16665 0.46276 0.57883 0.0
C3696 C 0.16592 0.45258 0.5988 0.0
C3697 C 0.18317 0.47946 0.57475 0.0
C3698 C 0.2131 0.52459 0.60292 0.0
H3699 H 0.21941 0.62093 0.56543 0.0
H3700 H 0.21022 0.58571 0.58183 0.0
H3701 H 0.22154 0.55879 0.60982 0.0
H3702 H 0.18291 0.45071 0.62957 0.0
H3703 H 0.21143 0.48074 0.62275 0.0
H3704 H 0.22533 0.49741 0.55622 0.0
C3705 C 0.22628 0.58847 0.5739 0.0
C3706 C 0.22285 0.54539 0.5982 0.0
C3707 C 0.23152 0.60864 0.56441 0.0
C3708 C 0.18304 0.45836 0.61407 0.0
C3709 C 0.19927 0.47556 0.61022 0.0
C3710 C 0.22489 0.51056 0.56824 0.0
C3711 C 0.24083 0.57154 0.57174 0.0
C3712 C 0.23339 0.54904 0.5783 0.0
C3713 C 0.19907 0.48664 0.59072 0.0
C3714 C 0.2134 0.50716 0.58768 0.0
H3715 H 0.28242 0.59813 0.54317 0.0
H3716 H 0.27306 0.563 0.5595 0.0
H3717 H 0.24275 0.53358 0.54811 0.0
H3718 H 0.1537 0.45858 0.56674 0.0
H3719 H 0.18253 0.48777 0.55963 0.0
C3720 C 0.21377 0.54926 0.22933 0.0
C3721 C 0.19543 0.56218 0.23221 0.0
C3722 C 0.23356 0.55782 0.21964 0.0
C3723 C 0.26355 0.61176 0.21096 0.0
H3724 H 0.30478 0.5785 0.17762 0.0
C3725 C 0.34781 0.63239 0.15805 0.0
C3726 C 0.35638 0.65032 0.17104 0.0
C3727 C 0.33016 0.61817 0.16552 0.0
C3728 C 0.2934 0.58803 0.18684 0.0
H3729 H 0.18277 0.59352 0.22556 0.0
H3730 H 0.2168 0.60814 0.20792 0.0
H3731 H 0.2682 0.56111 0.18795 0.0
H3732 H 0.35601 0.66542 0.20301 0.0
H3733 H 0.32668 0.63984 0.21657 0.0
H3734 H 0.28798 0.63883 0.20934 0.0
C3735 C 0.21633 0.59169 0.2139 0.0
C3736 C 0.2725 0.57802 0.19291 0.0
C3737 C 0.19672 0.58327 0.22387 0.0
C3738 C 0.34932 0.652 0.1925 0.0
C3739 C 0.33228 0.6375 0.20015 0.0
C3740 C 0.28421 0.62173 0.20483 0.0
C3741 C 0.23533 0.57941 0.21239 0.0
C3742 C 0.2573 0.58981 0.20506 0.0
C3743 C 0.32138 0.62137 0.18631 0.0
C3744 C 0.29956 0.61001 0.19288 0.0
H3745 H 0.21334 0.53295 0.23566 0.0
H3746 H 0.24783 0.54791 0.21888 0.0
H3747 H 0.25259 0.62132 0.22066 0.0
H3748 H 0.35338 0.63045 0.1416 0.0
H3749 H 0.3224 0.60575 0.15447 0.0
C3750 C 0.29764 0.47463 0.94948 0.0
C3751 C 0.28329 0.45645 0.95511 0.0
C3752 C 0.28947 0.49129 0.9375 0.0
C3753 C 0.23915 0.50863 0.90818 0.0
H3754 H 0.25369 0.56348 0.93992 0.0
C3755 C 0.19057 0.5851 0.89436 0.0
C3756 C 0.18279 0.59467 0.91343 0.0
C3757 C 0.20691 0.56993 0.89513 0.0
C3758 C 0.24956 0.54833 0.93079 0.0
H3759 H 0.24989 0.44027 0.95055 0.0
H3760 H 0.23555 0.46939 0.92989 0.0
H3761 H 0.27501 0.5321 0.9468 0.0
H3762 H 0.18572 0.59633 0.94816 0.0
H3763 H 0.21467 0.57013 0.94965 0.0
H3764 H 0.21277 0.52465 0.89312 0.0
C3765 C 0.25314 0.47084 0.93461 0.0
C3766 C 0.26196 0.53037 0.93451 0.0
C3767 C 0.26136 0.45409 0.9465 0.0
C3768 C 0.19188 0.58938 0.93326 0.0
C3769 C 0.20845 0.57446 0.93405 0.0
C3770 C 0.22675 0.52665 0.90441 0.0
C3771 C 0.26676 0.49016 0.93101 0.0
C3772 C 0.25644 0.51008 0.92377 0.0
C3773 C 0.21584 0.56425 0.91501 0.0
C3774 C 0.23134 0.54646 0.91624 0.0
H3775 H 0.31472 0.47678 0.95567 0.0
H3776 H 0.30056 0.50571 0.93452 0.0
H3777 H 0.23462 0.49331 0.89947 0.0
H3778 H 0.18344 0.58877 0.87891 0.0
H3779 H 0.21221 0.56233 0.88024 0.0
C3780 C 0.31906 0.53676 0.72619 0.0
C3781 C 0.32556 0.52211 0.74159 0.0
C3782 C 0.29735 0.53439 0.71725 0.0
C3783 C 0.24058 0.51715 0.73058 0.0
H3784 H 0.22904 0.4959 0.67179 0.0
C3785 C 0.16888 0.45637 0.70688 0.0
C3786 C 0.16055 0.45468 0.68568 0.0
C3787 C 0.18473 0.47327 0.7131 0.0
C3788 C 0.23182 0.50255 0.68804 0.0
H3789 H 0.31451 0.49442 0.76072 0.0
H3790 H 0.27647 0.49044 0.74534 0.0
H3791 H 0.26745 0.50808 0.6832 0.0
H3792 H 0.15994 0.47071 0.65511 0.0
H3793 H 0.1883 0.50024 0.66584 0.0
H3794 H 0.20529 0.51077 0.73586 0.0
C3795 C 0.28828 0.50335 0.73978 0.0
C3796 C 0.25384 0.50936 0.69455 0.0
C3797 C 0.31002 0.50545 0.74836 0.0
C3798 C 0.16634 0.47159 0.6715 0.0
C3799 C 0.18262 0.48839 0.67761 0.0
C3800 C 0.21859 0.51061 0.72405 0.0
C3801 C 0.28174 0.51789 0.72431 0.0
C3802 C 0.25842 0.51571 0.71611 0.0
C3803 C 0.19279 0.48872 0.69815 0.0
C3804 C 0.21415 0.50209 0.70303 0.0
H3805 H 0.33073 0.55004 0.7212 0.0
H3806 H 0.29255 0.54576 0.70534 0.0
H3807 H 0.24382 0.52222 0.74725 0.0
H3808 H 0.16455 0.44356 0.71814 0.0
H3809 H 0.19221 0.47289 0.72901 0.0
C3810 C 0.25901 0.60888 0.45056 0.0
C3811 C 0.24343 0.61419 0.46638 0.0
C3812 C 0.25885 0.58753 0.44202 0.0
C3813 C 0.25651 0.53984 0.42696 0.0
H3814 H 0.26509 0.50828 0.47925 0.0
C3815 C 0.30825 0.46339 0.43131 0.0
C3816 C 0.32877 0.47125 0.44119 0.0
C3817 C 0.28924 0.4754 0.43314 0.0
C3818 C 0.26213 0.51653 0.46443 0.0
H3819 H 0.2138 0.60212 0.48377 0.0
H3820 H 0.21379 0.56466 0.46909 0.0
H3821 H 0.24455 0.54118 0.48067 0.0
H3822 H 0.34446 0.49634 0.46307 0.0
H3823 H 0.31108 0.51652 0.46706 0.0
H3824 H 0.27607 0.51618 0.4113 0.0
C3825 C 0.22607 0.57701 0.46327 0.0
C3826 C 0.25028 0.53532 0.46516 0.0
C3827 C 0.22602 0.59849 0.47158 0.0
C3828 C 0.32912 0.48998 0.45489 0.0
C3829 C 0.30999 0.50153 0.45726 0.0
C3830 C 0.26819 0.52089 0.42622 0.0
C3831 C 0.2433 0.57107 0.44941 0.0
C3832 C 0.2485 0.54787 0.4467 0.0
C3833 C 0.29021 0.49481 0.44576 0.0
C3834 C 0.27203 0.50979 0.44518 0.0
H3835 H 0.27252 0.62073 0.44617 0.0
H3836 H 0.27242 0.5835 0.43143 0.0
H3837 H 0.25535 0.54915 0.41249 0.0
H3838 H 0.30717 0.44864 0.42121 0.0
H3839 H 0.27406 0.46992 0.42422 0.0
C3840 C 0.31131 0.22884 0.53591 0.0
C3841 C 0.31021 0.21277 0.51921 0.0
C3842 C 0.32393 0.24886 0.5334 0.0
C3843 C 0.33154 0.29304 0.51174 0.0
H3844 H 0.38575 0.29957 0.47757 0.0
C3845 C 0.36001 0.34174 0.43422 0.0
C3846 C 0.35684 0.36369 0.43967 0.0
C3847 C 0.36065 0.32627 0.45012 0.0
C3848 C 0.37076 0.2981 0.48738 0.0
H3849 H 0.32297 0.20411 0.48774 0.0
H3850 H 0.34518 0.23862 0.48349 0.0
H3851 H 0.37639 0.26532 0.49582 0.0
H3852 H 0.35235 0.38679 0.46616 0.0
H3853 H 0.35236 0.35922 0.49415 0.0
H3854 H 0.32512 0.32525 0.50202 0.0
C3855 C 0.33633 0.236 0.4985 0.0
C3856 C 0.36541 0.27853 0.49781 0.0
C3857 C 0.32349 0.21624 0.50085 0.0
C3858 C 0.35457 0.36991 0.4615 0.0
C3859 C 0.3547 0.35422 0.47749 0.0
C3860 C 0.33691 0.31264 0.50128 0.0
C3861 C 0.33595 0.2529 0.51432 0.0
C3862 C 0.34509 0.27534 0.50908 0.0
C3863 C 0.35779 0.33224 0.47189 0.0
C3864 C 0.35588 0.31483 0.48799 0.0
H3865 H 0.3011 0.22664 0.55018 0.0
H3866 H 0.32339 0.26155 0.54588 0.0
H3867 H 0.31573 0.2911 0.52023 0.0
H3868 H 0.36216 0.33648 0.41758 0.0
H3869 H 0.36264 0.3094 0.44525 0.0
C3870 C 0.8136 0.3622 0.50226 0.0
C3871 C 0.81019 0.37863 0.51795 0.0
C3872 C 0.82842 0.34616 0.50626 0.0
C3873 C 0.86907 0.3279 0.54715 0.0
H3874 H 0.83564 0.27167 0.53699 0.0
C3875 C 0.84752 0.24678 0.59707 0.0
C3876 C 0.86865 0.2438 0.60596 0.0
C3877 C 0.84568 0.26051 0.57971 0.0
C3878 C 0.8453 0.28721 0.53986 0.0
H3879 H 0.82145 0.3926 0.54901 0.0
H3880 H 0.84677 0.36452 0.55624 0.0
H3881 H 0.82472 0.30338 0.51821 0.0
H3882 H 0.90438 0.25271 0.6042 0.0
H3883 H 0.90128 0.27665 0.57367 0.0
H3884 H 0.88833 0.31208 0.57028 0.0
C3885 C 0.83827 0.36395 0.54074 0.0
C3886 C 0.83925 0.30541 0.52883 0.0
C3887 C 0.82361 0.38007 0.53666 0.0
C3888 C 0.88799 0.25424 0.59701 0.0
C3889 C 0.88617 0.2681 0.57973 0.0
C3890 C 0.87499 0.30972 0.55832 0.0
C3891 C 0.83996 0.34616 0.52609 0.0
C3892 C 0.85034 0.32621 0.53316 0.0
C3893 C 0.86495 0.27181 0.57119 0.0
C3894 C 0.86242 0.28942 0.5556 0.0
H3895 H 0.80372 0.36085 0.48751 0.0
H3896 H 0.82975 0.333 0.49439 0.0
H3897 H 0.87828 0.34358 0.5505 0.0
H3898 H 0.83238 0.23923 0.60414 0.0
H3899 H 0.829 0.26333 0.57394 0.0
C3900 C 0.44831 0.08443 0.2519 0.0
C3901 C 0.43558 0.0693 0.26432 0.0
C3902 C 0.47052 0.09132 0.25798 0.0
C3903 C 0.51148 0.10911 0.28983 0.0
H3904 H 0.55048 0.06147 0.29399 0.0
C3905 C 0.59664 0.12048 0.3353 0.0
C3906 C 0.59731 0.10522 0.35171 0.0
C3907 C 0.58089 0.11704 0.31842 0.0
C3908 C 0.53992 0.07501 0.29273 0.0
H3909 H 0.43607 0.04872 0.29203 0.0
H3910 H 0.47477 0.06043 0.30242 0.0
H3911 H 0.51349 0.05484 0.27687 0.0
H3912 H 0.58382 0.07355 0.36225 0.0
H3913 H 0.55706 0.06719 0.33271 0.0
H3914 H 0.53717 0.12888 0.30726 0.0
C3915 C 0.46753 0.06737 0.28837 0.0
C3916 C 0.51882 0.07122 0.28289 0.0
C3917 C 0.44539 0.06085 0.28255 0.0
C3918 C 0.58363 0.08558 0.34983 0.0
C3919 C 0.56831 0.08194 0.33283 0.0
C3920 C 0.53259 0.11289 0.2999 0.0
C3921 C 0.48034 0.08248 0.27606 0.0
C3922 C 0.50414 0.08801 0.28207 0.0
C3923 C 0.56609 0.09799 0.31741 0.0
C3924 C 0.54663 0.09561 0.30222 0.0
H3925 H 0.44112 0.09081 0.23754 0.0
H3926 H 0.48021 0.10295 0.24827 0.0
H3927 H 0.5003 0.12224 0.28947 0.0
H3928 H 0.607 0.13579 0.3364 0.0
H3929 H 0.57964 0.12963 0.3067 0.0
C3930 C 0.71479 0.72853 0.01905 0.0
C3931 C 0.7149 0.70985 0.0317 0.0
C3932 C 0.70394 0.74683 0.02623 0.0
C3933 C 0.66172 0.76572 0.06409 0.0
H3934 H 0.70075 0.81925 0.06999 0.0
C3935 C 0.64906 0.82986 0.13007 0.0
C3936 C 0.65461 0.85213 0.12686 0.0
C3937 C 0.65283 0.81424 0.11401 0.0
C3938 C 0.68937 0.80466 0.06801 0.0
H3939 H 0.70261 0.69532 0.0612 0.0
H3940 H 0.6832 0.72707 0.07346 0.0
H3941 H 0.71339 0.78787 0.04951 0.0
H3942 H 0.66846 0.87586 0.10447 0.0
H3943 H 0.67535 0.84828 0.07598 0.0
H3944 H 0.63783 0.78225 0.08281 0.0
C3945 C 0.69168 0.72759 0.05807 0.0
C3946 C 0.69666 0.78665 0.05633 0.0
C3947 C 0.70288 0.70945 0.0511 0.0
C3948 C 0.6638 0.85872 0.10712 0.0
C3949 C 0.66791 0.84294 0.09098 0.0
C3950 C 0.65431 0.78378 0.07551 0.0
C3951 C 0.69258 0.74666 0.04598 0.0
C3952 C 0.68324 0.76676 0.05495 0.0
C3953 C 0.66255 0.82046 0.09433 0.0
C3954 C 0.66843 0.80317 0.07841 0.0
H3955 H 0.724 0.72944 0.00407 0.0
H3956 H 0.70481 0.76129 0.01657 0.0
H3957 H 0.65089 0.75069 0.06296 0.0
H3958 H 0.64223 0.82444 0.14532 0.0
H3959 H 0.64898 0.79715 0.11746 0.0
C3960 C 0.5494 0.52374 0.26868 0.0
C3961 C 0.56634 0.52621 0.28462 0.0
C3962 C 0.52777 0.51495 0.27379 0.0
C3963 C 0.49495 0.48035 0.30984 0.0
H3964 H 0.45106 0.52395 0.31333 0.0
C3965 C 0.41026 0.46278 0.35175 0.0
C3966 C 0.40957 0.47658 0.37022 0.0
C3967 C 0.42525 0.46807 0.33511 0.0
C3968 C 0.46297 0.51148 0.31201 0.0
H3969 H 0.57443 0.52047 0.31793 0.0
H3970 H 0.53694 0.5042 0.32656 0.0
H3971 H 0.48706 0.53243 0.29527 0.0
H3972 H 0.4221 0.50782 0.38469 0.0
H3973 H 0.44758 0.51748 0.35525 0.0
H3974 H 0.47132 0.45968 0.32728 0.0
C3975 C 0.54031 0.50935 0.31028 0.0
C3976 C 0.48346 0.51629 0.30166 0.0
C3977 C 0.56168 0.51868 0.30536 0.0
C3978 C 0.42235 0.49683 0.3707 0.0
C3979 C 0.43689 0.50237 0.35383 0.0
C3980 C 0.47428 0.47536 0.31976 0.0
C3981 C 0.52306 0.50791 0.2947 0.0
C3982 C 0.49988 0.50103 0.3012 0.0
C3983 C 0.43922 0.48759 0.33639 0.0
C3984 C 0.45847 0.49118 0.32164 0.0
H3985 H 0.55255 0.52968 0.25264 0.0
H3986 H 0.5146 0.51409 0.26162 0.0
H3987 H 0.50748 0.46843 0.30976 0.0
H3988 H 0.40056 0.44711 0.35094 0.0
H3989 H 0.42673 0.45643 0.32179 0.0
C3990 C 0.20424 0.85182 0.0319 0.0
C3991 C 0.21561 0.86219 0.01478 0.0
C3992 C 0.19384 0.83062 0.02893 0.0
C3993 C 0.16715 0.79052 0.99377 0.0
H3994 H 0.21019 0.74752 0.00422 0.0
C3995 C 0.19115 0.72103 0.93872 0.0
C3996 C 0.17451 0.70349 0.9391 0.0
C3997 C 0.19346 0.73633 0.95576 0.0
C3998 C 0.19761 0.75912 0.00197 0.0
H3999 H 0.22613 0.85824 0.98166 0.0
H4000 H 0.20703 0.82179 0.97616 0.0
H4001 H 0.21691 0.78481 0.01959 0.0
H4002 H 0.14948 0.68664 0.95902 0.0
H4003 H 0.15231 0.71471 0.98842 0.0
H4004 H 0.14879 0.7653 0.97469 0.0
C4005 C 0.20576 0.8302 0.99167 0.0
C4006 C 0.20146 0.7804 0.01067 0.0
C4007 C 0.21644 0.8511 0.99475 0.0
C4008 C 0.16168 0.7005 0.95788 0.0
C4009 C 0.16347 0.71635 0.97476 0.0
C4010 C 0.16309 0.76912 0.98538 0.0
C4011 C 0.19474 0.81968 0.0088 0.0
C4012 C 0.1868 0.79645 0.00578 0.0
C4013 C 0.17901 0.73464 0.97343 0.0
C4014 C 0.17887 0.75361 0.98857 0.0
H4015 H 0.20399 0.85986 0.04767 0.0
H4016 H 0.18573 0.82254 0.04241 0.0
H4017 H 0.1559 0.80282 0.98953 0.0
H4018 H 0.20172 0.72359 0.92474 0.0
H4019 H 0.20561 0.75033 0.95449 0.0
C4020 C 0.40641 0.97373 0.21359 0.0
C4021 C 0.40885 0.9809 0.23524 0.0
C4022 C 0.42318 0.96233 0.20363 0.0
C4023 C 0.4696 0.96266 0.18475 0.0
H4024 H 0.50845 0.92134 0.20862 0.0
C4025 C 0.55793 0.95715 0.15242 0.0
C4026 C 0.56329 0.93618 0.14565 0.0
C4027 C 0.53968 0.95975 0.166 0.0
C4028 C 0.49769 0.93285 0.20179 0.0
H4029 H 0.42928 0.97933 0.26413 0.0
H4030 H 0.45848 0.95959 0.24673 0.0
H4031 H 0.47266 0.92786 0.2263 0.0
H4032 H 0.55409 0.90146 0.14771 0.0
H4033 H 0.52223 0.90595 0.17182 0.0
H4034 H 0.49453 0.96801 0.16053 0.0
C4035 C 0.44375 0.96281 0.23739 0.0
C4036 C 0.47725 0.93657 0.21187 0.0
C4037 C 0.427 0.9742 0.24735 0.0
C4038 C 0.55078 0.91777 0.15342 0.0
C4039 C 0.53242 0.92035 0.16701 0.0
C4040 C 0.48999 0.95913 0.17489 0.0
C4041 C 0.44265 0.95788 0.21514 0.0
C4042 C 0.46306 0.95166 0.2035 0.0
C4043 C 0.52621 0.94141 0.17275 0.0
C4044 C 0.50442 0.94446 0.18344 0.0
H4045 H 0.39255 0.97845 0.20386 0.0
H4046 H 0.42163 0.95829 0.18655 0.0
H4047 H 0.45932 0.97466 0.17807 0.0
H4048 H 0.56706 0.97155 0.1462 0.0
H4049 H 0.53539 0.97617 0.17034 0.0
C4050 C 0.0819 0.12635 0.74057 0.0
C4051 C 0.09476 0.11171 0.72897 0.0
C4052 C 0.06594 0.13784 0.73001 0.0
C4053 C 0.04589 0.15321 0.67632 0.0
H4054 H 0.98648 0.14403 0.70121 0.0
C4055 C 0.95015 0.14039 0.64367 0.0
C4056 C 0.94967 0.15769 0.62955 0.0
C4057 C 0.96771 0.14 0.65862 0.0
C4058 C 0.00298 0.14691 0.69416 0.0
H4059 H 0.10212 0.09903 0.69696 0.0
H4060 H 0.07437 0.11907 0.67863 0.0
H4061 H 0.01938 0.13482 0.72159 0.0
H4062 H 0.96656 0.18823 0.6197 0.0
H4063 H 0.99749 0.18761 0.64586 0.0
H4064 H 0.02939 0.16427 0.64846 0.0
C4065 C 0.07659 0.12164 0.69587 0.0
C4066 C 0.02185 0.14183 0.7059 0.0
C4067 C 0.09241 0.11003 0.70642 0.0
C4068 C 0.9666 0.17488 0.63075 0.0
C4069 C 0.98432 0.1744 0.64552 0.0
C4070 C 0.02703 0.15844 0.66464 0.0
C4071 C 0.0627 0.13512 0.70764 0.0
C4072 C 0.04342 0.14426 0.69681 0.0
C4073 C 0.98526 0.15675 0.65937 0.0
C4074 C 0.00533 0.15469 0.67317 0.0
H4075 H 0.08333 0.12815 0.75795 0.0
H4076 H 0.05563 0.14832 0.73944 0.0
H4077 H 0.06233 0.15543 0.66901 0.0
H4078 H 0.93737 0.12682 0.64265 0.0
H4079 H 0.96813 0.12601 0.66883 0.0
loop_
_geom_bond_atom_site_label_1
_geom_bond_atom_site_label_2
_geom_bond_distance
_geom_bond_site_symmetry_2
_ccdc_geom_bond_type
Mn0 O5 2.095 . S
Mn0 O15 2.162 . S
Mn0 O16 2.297 1_455 S
Mn0 O24 2.385 . S
Mn0 O25 2.209 . S
Mn0 O26 2.094 . S
Mn1 O6 2.121 . S
Mn1 N8 2.257 . S
Mn1 N17 2.282 . S
Mn1 O25 2.215 . S
Mn1 O27 2.117 . S
C2 O24 1.234 . S
C2 O25 1.283 . S
C3 O15 1.281 1_655 S
C3 O16 1.236 . S
C4 O26 1.240 . S
C4 O27 1.264 . S
O5 Mn0 2.095 . S
O5 C14 1.250 . S
O6 Mn1 2.121 . S
O6 C14 1.258 . S
C7 N8 1.326 . S
C7 C11 1.460 . S
C7 H13 0.929 . S
N8 Mn1 2.257 . S
N8 C7 1.326 . S
N8 C12 1.362 . S
C9 C10 1.258 . S
C9 C12 1.431 . S
C9 C29 1.449 . S
C10 C9 1.258 . S
C10 C11 1.477 . S
C10 H30 0.931 . S
C11 C7 1.460 . S
C11 C10 1.477 . S
C11 H31 0.930 . S
C12 N8 1.362 . S
C12 C9 1.431 . S
C12 C22 1.476 . S
H13 C7 0.929 . S
C14 O5 1.250 . S
C14 O6 1.258 . S
O15 Mn0 2.162 . S
O15 C3 1.281 1_455 S
O16 Mn0 2.297 1_655 S
O16 C3 1.236 . S
N17 Mn1 2.282 . S
N17 C18 1.328 . S
N17 C22 1.318 . S
C18 N17 1.328 . S
C18 C19 1.457 . S
C18 H23 0.929 . S
C19 C18 1.457 . S
C19 C20 1.291 . S
C19 H32 0.931 . S
C20 C19 1.291 . S
C20 C21 1.373 . S
C20 H33 0.929 . S
C21 C20 1.373 . S
C21 C22 1.396 . S
C21 C28 1.403 . S
C22 C12 1.476 . S
C22 N17 1.318 . S
C22 C21 1.396 . S
H23 C18 0.929 . S
O24 Mn0 2.385 . S
O24 C2 1.234 . S
O25 Mn0 2.209 . S
O25 Mn1 2.215 . S
O25 C2 1.283 . S
O26 Mn0 2.094 . S
O26 C4 1.240 . S
O27 Mn1 2.117 . S
O27 C4 1.264 . S
C28 C21 1.403 . S
C28 C29 1.399 . S
C28 H34 0.929 . S
C29 C9 1.449 . S
C29 C28 1.399 . S
C29 H35 0.930 . S
H30 C10 0.931 . S
H31 C11 0.930 . S
H32 C19 0.931 . S
H33 C20 0.929 . S
H34 C28 0.929 . S
H35 C29 0.930 . S
Mn36 O41 2.095 . S
Mn36 O51 2.162 . S
Mn36 O52 2.297 . S
Mn36 O60 2.385 . S
Mn36 O61 2.209 1_455 S
Mn36 O62 2.094 . S
Mn37 O42 2.121 . S
Mn37 N44 2.257 . S
Mn37 N53 2.282 . S
Mn37 O61 2.215 . S
Mn37 O63 2.117 1_655 S
C38 O60 1.234 1_655 S
C38 O61 1.283 . S
C39 O51 1.281 . S
C39 O52 1.236 . S
C40 O62 1.240 . S
C40 O63 1.264 . S
O41 Mn36 2.095 . S
O41 C50 1.250 1_455 S
O42 Mn37 2.121 . S
O42 C50 1.258 . S
C43 N44 1.326 . S
C43 C47 1.460 . S
C43 H49 0.929 . S
N44 Mn37 2.257 . S
N44 C43 1.326 . S
N44 C48 1.362 . S
C45 C46 1.258 . S
C45 C48 1.431 . S
C45 C65 1.449 . S
C46 C45 1.258 . S
C46 C47 1.477 . S
C46 H66 0.931 . S
C47 C43 1.460 . S
C47 C46 1.477 . S
C47 H67 0.930 . S
C48 N44 1.362 . S
C48 C45 1.431 . S
C48 C58 1.476 . S
H49 C43 0.929 . S
C50 O41 1.250 1_655 S
C50 O42 1.258 . S
O51 Mn36 2.162 . S
O51 C39 1.281 . S
O52 Mn36 2.297 . S
O52 C39 1.236 . S
N53 Mn37 2.282 . S
N53 C54 1.328 . S
N53 C58 1.318 . S
C54 N53 1.328 . S
C54 C55 1.457 . S
C54 H59 0.929 . S
C55 C54 1.457 . S
C55 C56 1.291 . S
C55 H68 0.931 . S
C56 C55 1.291 . S
C56 C57 1.373 . S
C56 H69 0.929 . S
C57 C56 1.373 . S
C57 C58 1.396 . S
C57 C64 1.403 . S
C58 C48 1.476 . S
C58 N53 1.318 . S
C58 C57 1.396 . S
H59 C54 0.929 . S
O60 Mn36 2.385 . S
O60 C38 1.234 1_455 S
O61 Mn36 2.209 1_655 S
O61 Mn37 2.215 . S
O61 C38 1.283 . S
O62 Mn36 2.094 . S
O62 C40 1.240 . S
O63 Mn37 2.117 1_455 S
O63 C40 1.264 . S
C64 C57 1.403 . S
C64 C65 1.399 . S
C64 H70 0.929 . S
C65 C45 1.449 . S
C65 C64 1.399 . S
C65 H71 0.930 . S
H66 C46 0.931 . S
H67 C47 0.930 . S
H68 C55 0.931 . S
H69 C56 0.929 . S
H70 C64 0.929 . S
H71 C65 0.930 . S
Mn72 O77 2.095 . S
Mn72 O87 2.162 . S
Mn72 O88 2.297 . S
Mn72 O96 2.385 . S
Mn72 O97 2.209 . S
Mn72 O98 2.094 . S
Mn73 O78 2.121 . S
Mn73 N80 2.257 . S
Mn73 N89 2.282 . S
Mn73 O97 2.215 . S
Mn73 O99 2.117 . S
C74 O96 1.234 . S
C74 O97 1.283 . S
C75 O87 1.281 . S
C75 O88 1.236 . S
C76 O98 1.240 . S
C76 O99 1.264 . S
O77 Mn72 2.095 . S
O77 C86 1.250 . S
O78 Mn73 2.121 . S
O78 C86 1.258 . S
C79 N80 1.326 . S
C79 C83 1.460 . S
C79 H85 0.929 . S
N80 Mn73 2.257 . S
N80 C79 1.326 . S
N80 C84 1.362 . S
C81 C82 1.258 . S
C81 C84 1.431 . S
C81 C101 1.449 . S
C82 C81 1.258 . S
C82 C83 1.477 . S
C82 H102 0.931 . S
C83 C79 1.460 . S
C83 C82 1.477 . S
C83 H103 0.930 . S
C84 N80 1.362 . S
C84 C81 1.431 . S
C84 C94 1.476 . S
H85 C79 0.929 . S
C86 O77 1.250 . S
C86 O78 1.258 . S
O87 Mn72 2.162 . S
O87 C75 1.281 . S
O88 Mn72 2.297 . S
O88 C75 1.236 . S
N89 Mn73 2.282 . S
N89 C90 1.328 . S
N89 C94 1.318 . S
C90 N89 1.328 . S
C90 C91 1.457 . S
C90 H95 0.929 . S
C91 C90 1.457 . S
C91 C92 1.291 . S
C91 H104 0.931 . S
C92 C91 1.291 . S
C92 C93 1.373 . S
C92 H105 0.929 . S
C93 C92 1.373 . S
C93 C94 1.396 . S
C93 C100 1.403 . S
C94 C84 1.476 . S
C94 N89 1.318 . S
C94 C93 1.396 . S
H95 C90 0.929 . S
O96 Mn72 2.385 . S
O96 C74 1.234 . S
O97 Mn72 2.209 . S
O97 Mn73 2.215 . S
O97 C74 1.283 . S
O98 Mn72 2.094 . S
O98 C76 1.240 . S
O99 Mn73 2.117 . S
O99 C76 1.264 . S
C100 C93 1.403 . S
C100 C101 1.399 . S
C100 H106 0.929 . S
C101 C81 1.449 . S
C101 C100 1.399 . S
C101 H107 0.930 . S
H102 C82 0.931 . S
H103 C83 0.930 . S
H104 C91 0.931 . S
H105 C92 0.929 . S
H106 C100 0.929 . S
H107 C101 0.930 . S
Mn108 O113 2.095 . S
Mn108 O123 2.162 . S
Mn108 O124 2.297 . S
Mn108 O132 2.385 . S
Mn108 O133 2.209 . S
Mn108 O134 2.094 . S
Mn109 O114 2.121 . S
Mn109 N116 2.257 . S
Mn109 N125 2.282 . S
Mn109 O133 2.215 . S
Mn109 O135 2.117 . S
C110 O132 1.234 . S
C110 O133 1.283 . S
C111 O123 1.281 . S
C111 O124 1.236 . S
C112 O134 1.240 . S
C112 O135 1.264 . S
O113 Mn108 2.095 . S
O113 C122 1.250 . S
O114 Mn109 2.121 . S
O114 C122 1.258 . S
C115 N116 1.326 . S
C115 C119 1.460 . S
C115 H121 0.929 . S
N116 Mn109 2.257 . S
N116 C115 1.326 . S
N116 C120 1.362 . S
C117 C118 1.258 . S
C117 C120 1.431 . S
C117 C137 1.449 . S
C118 C117 1.258 . S
C118 C119 1.477 . S
C118 H138 0.931 . S
C119 C115 1.460 . S
C119 C118 1.477 . S
C119 H139 0.930 . S
C120 N116 1.362 . S
C120 C117 1.431 . S
C120 C130 1.476 . S
H121 C115 0.929 . S
C122 O113 1.250 . S
C122 O114 1.258 . S
O123 Mn108 2.162 . S
O123 C111 1.281 . S
O124 Mn108 2.297 . S
O124 C111 1.236 . S
N125 Mn109 2.282 . S
N125 C126 1.328 . S
N125 C130 1.318 . S
C126 N125 1.328 . S
C126 C127 1.457 . S
C126 H131 0.929 . S
C127 C126 1.457 . S
C127 C128 1.291 . S
C127 H140 0.931 . S
C128 C127 1.291 . S
C128 C129 1.373 . S
C128 H141 0.929 . S
C129 C128 1.373 . S
C129 C130 1.396 . S
C129 C136 1.403 . S
C130 C120 1.476 . S
C130 N125 1.318 . S
C130 C129 1.396 . S
H131 C126 0.929 . S
O132 Mn108 2.385 . S
O132 C110 1.234 . S
O133 Mn108 2.209 . S
O133 Mn109 2.215 . S
O133 C110 1.283 . S
O134 Mn108 2.094 . S
O134 C112 1.240 . S
O135 Mn109 2.117 . S
O135 C112 1.264 . S
C136 C129 1.403 . S
C136 C137 1.399 . S
C136 H142 0.929 . S
C137 C117 1.449 . S
C137 C136 1.399 . S
C137 H143 0.930 . S
H138 C118 0.931 . S
H139 C119 0.930 . S
H140 C127 0.931 . S
H141 C128 0.929 . S
H142 C136 0.929 . S
H143 C137 0.930 . S
Mn144 O149 2.095 . S
Mn144 O159 2.162 . S
Mn144 O160 2.297 . S
Mn144 O168 2.385 1_655 S
Mn144 O169 2.209 1_655 S
Mn144 O170 2.094 1_655 S
Mn145 O150 2.121 1_455 S
Mn145 N152 2.257 . S
Mn145 N161 2.282 . S
Mn145 O169 2.215 . S
Mn145 O171 2.117 . S
C146 O168 1.234 . S
C146 O169 1.283 . S
C147 O159 1.281 . S
C147 O160 1.236 . S
C148 O170 1.240 . S
C148 O171 1.264 . S
O149 Mn144 2.095 . S
O149 C158 1.250 . S
O150 Mn145 2.121 1_655 S
O150 C158 1.258 . S
C151 N152 1.326 . S
C151 C155 1.460 . S
C151 H157 0.929 . S
N152 Mn145 2.257 . S
N152 C151 1.326 . S
N152 C156 1.362 . S
C153 C154 1.258 . S
C153 C156 1.431 . S
C153 C173 1.449 . S
C154 C153 1.258 . S
C154 C155 1.477 . S
C154 H174 0.931 . S
C155 C151 1.460 . S
C155 C154 1.477 . S
C155 H175 0.930 . S
C156 N152 1.362 . S
C156 C153 1.431 . S
C156 C166 1.476 . S
H157 C151 0.929 . S
C158 O149 1.250 . S
C158 O150 1.258 . S
O159 Mn144 2.162 . S
O159 C147 1.281 . S
O160 Mn144 2.297 . S
O160 C147 1.236 . S
N161 Mn145 2.282 . S
N161 C162 1.328 . S
N161 C166 1.318 . S
C162 N161 1.328 . S
C162 C163 1.457 . S
C162 H167 0.929 . S
C163 C162 1.457 . S
C163 C164 1.291 . S
C163 H176 0.931 . S
C164 C163 1.291 . S
C164 C165 1.373 . S
C164 H177 0.929 . S
C165 C164 1.373 . S
C165 C166 1.396 . S
C165 C172 1.403 . S
C166 C156 1.476 . S
C166 N161 1.318 . S
C166 C165 1.396 . S
H167 C162 0.929 . S
O168 Mn144 2.385 1_455 S
O168 C146 1.234 . S
O169 Mn144 2.209 1_455 S
O169 Mn145 2.215 . S
O169 C146 1.283 . S
O170 Mn144 2.094 1_455 S
O170 C148 1.240 . S
O171 Mn145 2.117 . S
O171 C148 1.264 . S
C172 C165 1.403 . S
C172 C173 1.399 . S
C172 H178 0.929 . S
C173 C153 1.449 . S
C173 C172 1.399 . S
C173 H179 0.930 . S
H174 C154 0.931 . S
H175 C155 0.930 . S
H176 C163 0.931 . S
H177 C164 0.929 . S
H178 C172 0.929 . S
H179 C173 0.930 . S
Mn180 O185 2.095 . S
Mn180 O195 2.162 . S
Mn180 O196 2.297 . S
Mn180 O204 2.385 . S
Mn180 O205 2.209 . S
Mn180 O206 2.094 . S
Mn181 O186 2.121 . S
Mn181 N188 2.257 . S
Mn181 N197 2.282 . S
Mn181 O205 2.215 . S
Mn181 O207 2.117 . S
C182 O204 1.234 . S
C182 O205 1.283 . S
C183 O195 1.281 . S
C183 O196 1.236 . S
C184 O206 1.240 . S
C184 O207 1.264 . S
O185 Mn180 2.095 . S
O185 C194 1.250 . S
O186 Mn181 2.121 . S
O186 C194 1.258 . S
C187 N188 1.326 . S
C187 C191 1.460 . S
C187 H193 0.929 . S
N188 Mn181 2.257 . S
N188 C187 1.326 . S
N188 C192 1.362 . S
C189 C190 1.258 . S
C189 C192 1.431 . S
C189 C209 1.449 . S
C190 C189 1.258 . S
C190 C191 1.477 . S
C190 H210 0.931 . S
C191 C187 1.460 . S
C191 C190 1.477 . S
C191 H211 0.930 . S
C192 N188 1.362 . S
C192 C189 1.431 . S
C192 C202 1.476 . S
H193 C187 0.929 . S
C194 O185 1.250 . S
C194 O186 1.258 . S
O195 Mn180 2.162 . S
O195 C183 1.281 . S
O196 Mn180 2.297 . S
O196 C183 1.236 . S
N197 Mn181 2.282 . S
N197 C198 1.328 . S
N197 C202 1.318 . S
C198 N197 1.328 . S
C198 C199 1.457 . S
C198 H203 0.929 . S
C199 C198 1.457 . S
C199 C200 1.291 . S
C199 H212 0.931 . S
C200 C199 1.291 . S
C200 C201 1.373 . S
C200 H213 0.929 . S
C201 C200 1.373 . S
C201 C202 1.396 . S
C201 C208 1.403 . S
C202 C192 1.476 . S
C202 N197 1.318 . S
C202 C201 1.396 . S
H203 C198 0.929 . S
O204 Mn180 2.385 . S
O204 C182 1.234 . S
O205 Mn180 2.209 . S
O205 Mn181 2.215 . S
O205 C182 1.283 . S
O206 Mn180 2.094 . S
O206 C184 1.240 . S
O207 Mn181 2.117 . S
O207 C184 1.264 . S
C208 C201 1.403 . S
C208 C209 1.399 . S
C208 H214 0.929 . S
C209 C189 1.449 . S
C209 C208 1.399 . S
C209 H215 0.930 . S
H210 C190 0.931 . S
H211 C191 0.930 . S
H212 C199 0.931 . S
H213 C200 0.929 . S
H214 C208 0.929 . S
H215 C209 0.930 . S
Mn216 O221 2.095 . S
Mn216 O231 2.162 . S
Mn216 O232 2.297 . S
Mn216 O240 2.385 . S
Mn216 O241 2.209 . S
Mn216 O242 2.094 . S
Mn217 O222 2.121 . S
Mn217 N224 2.257 . S
Mn217 N233 2.282 . S
Mn217 O241 2.215 . S
Mn217 O243 2.117 . S
C218 O240 1.234 . S
C218 O241 1.283 . S
C219 O231 1.281 . S
C219 O232 1.236 . S
C220 O242 1.240 . S
C220 O243 1.264 . S
O221 Mn216 2.095 . S
O221 C230 1.250 . S
O222 Mn217 2.121 . S
O222 C230 1.258 . S
C223 N224 1.326 . S
C223 C227 1.460 . S
C223 H229 0.929 . S
N224 Mn217 2.257 . S
N224 C223 1.326 . S
N224 C228 1.362 . S
C225 C226 1.258 . S
C225 C228 1.431 . S
C225 C245 1.449 . S
C226 C225 1.258 . S
C226 C227 1.477 . S
C226 H246 0.931 . S
C227 C223 1.460 . S
C227 C226 1.477 . S
C227 H247 0.930 . S
C228 N224 1.362 . S
C228 C225 1.431 . S
C228 C238 1.476 . S
H229 C223 0.929 . S
C230 O221 1.250 . S
C230 O222 1.258 . S
O231 Mn216 2.162 . S
O231 C219 1.281 . S
O232 Mn216 2.297 . S
O232 C219 1.236 . S
N233 Mn217 2.282 . S
N233 C234 1.328 . S
N233 C238 1.318 . S
C234 N233 1.328 . S
C234 C235 1.457 . S
C234 H239 0.929 . S
C235 C234 1.457 . S
C235 C236 1.291 . S
C235 H248 0.931 . S
C236 C235 1.291 . S
C236 C237 1.373 . S
C236 H249 0.929 . S
C237 C236 1.373 . S
C237 C238 1.396 . S
C237 C244 1.403 . S
C238 C228 1.476 . S
C238 N233 1.318 . S
C238 C237 1.396 . S
H239 C234 0.929 . S
O240 Mn216 2.385 . S
O240 C218 1.234 . S
O241 Mn216 2.209 . S
O241 Mn217 2.215 . S
O241 C218 1.283 . S
O242 Mn216 2.094 . S
O242 C220 1.240 . S
O243 Mn217 2.117 . S
O243 C220 1.264 . S
C244 C237 1.403 . S
C244 C245 1.399 . S
C244 H250 0.929 . S
C245 C225 1.449 . S
C245 C244 1.399 . S
C245 H251 0.930 . S
H246 C226 0.931 . S
H247 C227 0.930 . S
H248 C235 0.931 . S
H249 C236 0.929 . S
H250 C244 0.929 . S
H251 C245 0.930 . S
Mn252 O257 2.095 . S
Mn252 O267 2.162 . S
Mn252 O268 2.297 . S
Mn252 O276 2.385 . S
Mn252 O277 2.209 . S
Mn252 O278 2.094 . S
Mn253 O258 2.121 . S
Mn253 N260 2.257 1_455 S
Mn253 N269 2.282 1_455 S
Mn253 O277 2.215 . S
Mn253 O279 2.117 . S
C254 O276 1.234 . S
C254 O277 1.283 . S
C255 O267 1.281 . S
C255 O268 1.236 . S
C256 O278 1.240 . S
C256 O279 1.264 . S
O257 Mn252 2.095 . S
O257 C266 1.250 . S
O258 Mn253 2.121 . S
O258 C266 1.258 . S
C259 N260 1.326 . S
C259 C263 1.460 . S
C259 H265 0.929 . S
N260 Mn253 2.257 1_655 S
N260 C259 1.326 . S
N260 C264 1.362 . S
C261 C262 1.258 . S
C261 C264 1.431 . S
C261 C281 1.449 . S
C262 C261 1.258 . S
C262 C263 1.477 . S
C262 H282 0.931 . S
C263 C259 1.460 . S
C263 C262 1.477 . S
C263 H283 0.930 . S
C264 N260 1.362 . S
C264 C261 1.431 . S
C264 C274 1.476 . S
H265 C259 0.929 . S
C266 O257 1.250 . S
C266 O258 1.258 . S
O267 Mn252 2.162 . S
O267 C255 1.281 . S
O268 Mn252 2.297 . S
O268 C255 1.236 . S
N269 Mn253 2.282 1_655 S
N269 C270 1.328 1_655 S
N269 C274 1.318 . S
C270 N269 1.328 1_455 S
C270 C271 1.457 . S
C270 H275 0.929 . S
C271 C270 1.457 . S
C271 C272 1.291 1_455 S
C271 H284 0.931 . S
C272 C271 1.291 1_655 S
C272 C273 1.373 . S
C272 H285 0.929 . S
C273 C272 1.373 . S
C273 C274 1.396 . S
C273 C280 1.403 . S
C274 C264 1.476 . S
C274 N269 1.318 . S
C274 C273 1.396 . S
H275 C270 0.929 . S
O276 Mn252 2.385 . S
O276 C254 1.234 . S
O277 Mn252 2.209 . S
O277 Mn253 2.215 . S
O277 C254 1.283 . S
O278 Mn252 2.094 . S
O278 C256 1.240 . S
O279 Mn253 2.117 . S
O279 C256 1.264 . S
C280 C273 1.403 . S
C280 C281 1.399 . S
C280 H286 0.929 . S
C281 C261 1.449 . S
C281 C280 1.399 . S
C281 H287 0.930 . S
H282 C262 0.931 . S
H283 C263 0.930 . S
H284 C271 0.931 . S
H285 C272 0.929 . S
H286 C280 0.929 . S
H287 C281 0.930 . S
Mn288 O293 2.096 1_545 S
Mn288 O303 2.162 1_545 S
Mn288 O304 2.298 1_545 S
Mn288 O312 2.384 . S
Mn288 O313 2.208 . S
Mn288 O314 2.093 . S
Mn289 O294 2.121 1_545 S
Mn289 N296 2.257 . S
Mn289 N305 2.282 . S
Mn289 O313 2.215 . S
Mn289 O315 2.117 . S
C290 O312 1.234 . S
C290 O313 1.283 . S
C291 O303 1.281 . S
C291 O304 1.236 . S
C292 O314 1.240 . S
C292 O315 1.264 . S
O293 Mn288 2.096 1_565 S
O293 C302 1.250 . S
O294 Mn289 2.121 1_565 S
O294 C302 1.258 . S
C295 N296 1.326 . S
C295 C299 1.460 . S
C295 H301 0.914 1_545 S
N296 Mn289 2.257 . S
N296 C295 1.326 . S
N296 C300 1.362 . S
C297 C298 1.258 . S
C297 C300 1.431 . S
C297 C317 1.449 . S
C298 C297 1.258 . S
C298 C299 1.477 . S
C298 H318 0.931 . S
C299 C295 1.460 . S
C299 C298 1.477 . S
C299 H319 0.930 . S
C300 N296 1.362 . S
C300 C297 1.431 . S
C300 C310 1.476 . S
H301 C295 0.914 1_565 S
C302 O293 1.250 . S
C302 O294 1.258 . S
O303 Mn288 2.162 1_565 S
O303 C291 1.281 . S
O304 Mn288 2.298 1_565 S
O304 C291 1.236 . S
N305 Mn289 2.282 . S
N305 C306 1.328 . S
N305 C310 1.318 . S
C306 N305 1.328 . S
C306 C307 1.457 . S
C306 H311 0.929 . S
C307 C306 1.457 . S
C307 C308 1.291 . S
C307 H320 0.931 . S
C308 C307 1.291 . S
C308 C309 1.373 . S
C308 H321 0.929 . S
C309 C308 1.373 . S
C309 C310 1.396 . S
C309 C316 1.403 . S
C310 C300 1.476 . S
C310 N305 1.318 . S
C310 C309 1.396 . S
H311 C306 0.929 . S
O312 Mn288 2.384 . S
O312 C290 1.234 . S
O313 Mn288 2.208 . S
O313 Mn289 2.215 . S
O313 C290 1.283 . S
O314 Mn288 2.093 . S
O314 C292 1.240 . S
O315 Mn289 2.117 . S
O315 C292 1.264 . S
C316 C309 1.403 . S
C316 C317 1.399 . S
C316 H322 0.929 . S
C317 C297 1.449 . S
C317 C316 1.399 . S
C317 H323 0.930 . S
H318 C298 0.931 . S
H319 C299 0.930 . S
H320 C307 0.931 . S
H321 C308 0.929 . S
H322 C316 0.929 . S
H323 C317 0.930 . S
Mn324 O329 2.095 . S
Mn324 O339 2.162 . S
Mn324 O340 2.297 . S
Mn324 O348 2.385 . S
Mn324 O349 2.209 . S
Mn324 O350 2.094 . S
Mn325 O330 2.121 . S
Mn325 N332 2.257 . S
Mn325 N341 2.282 . S
Mn325 O349 2.215 . S
Mn325 O351 2.117 . S
C326 O348 1.234 . S
C326 O349 1.283 . S
C327 O339 1.281 . S
C327 O340 1.236 . S
C328 O350 1.240 . S
C328 O351 1.264 . S
O329 Mn324 2.095 . S
O329 C338 1.250 . S
O330 Mn325 2.121 . S
O330 C338 1.258 . S
C331 N332 1.326 . S
C331 C335 1.460 . S
C331 H337 0.929 . S
N332 Mn325 2.257 . S
N332 C331 1.326 . S
N332 C336 1.362 . S
C333 C334 1.258 . S
C333 C336 1.431 . S
C333 C353 1.449 . S
C334 C333 1.258 . S
C334 C335 1.477 . S
C334 H354 0.931 . S
C335 C331 1.460 . S
C335 C334 1.477 . S
C335 H355 0.930 . S
C336 N332 1.362 . S
C336 C333 1.431 . S
C336 C346 1.476 . S
H337 C331 0.929 . S
C338 O329 1.250 . S
C338 O330 1.258 . S
O339 Mn324 2.162 . S
O339 C327 1.281 . S
O340 Mn324 2.297 . S
O340 C327 1.236 . S
N341 Mn325 2.282 . S
N341 C342 1.328 . S
N341 C346 1.318 . S
C342 N341 1.328 . S
C342 C343 1.457 . S
C342 H347 0.929 . S
C343 C342 1.457 . S
C343 C344 1.291 . S
C343 H356 0.931 . S
C344 C343 1.291 . S
C344 C345 1.373 . S
C344 H357 0.929 . S
C345 C344 1.373 . S
C345 C346 1.396 . S
C345 C352 1.403 . S
C346 C336 1.476 . S
C346 N341 1.318 . S
C346 C345 1.396 . S
H347 C342 0.929 . S
O348 Mn324 2.385 . S
O348 C326 1.234 . S
O349 Mn324 2.209 . S
O349 Mn325 2.215 . S
O349 C326 1.283 . S
O350 Mn324 2.094 . S
O350 C328 1.240 . S
O351 Mn325 2.117 . S
O351 C328 1.264 . S
C352 C345 1.403 . S
C352 C353 1.399 . S
C352 H358 0.929 . S
C353 C333 1.449 . S
C353 C352 1.399 . S
C353 H359 0.930 . S
H354 C334 0.931 . S
H355 C335 0.930 . S
H356 C343 0.931 . S
H357 C344 0.929 . S
H358 C352 0.929 . S
H359 C353 0.930 . S
Mn360 O365 2.095 . S
Mn360 O375 2.162 . S
Mn360 O376 2.297 . S
Mn360 O384 2.385 . S
Mn360 O385 2.209 . S
Mn360 O386 2.094 . S
Mn361 O366 2.121 . S
Mn361 N368 2.257 . S
Mn361 N377 2.282 . S
Mn361 O385 2.215 . S
Mn361 O387 2.117 . S
C362 O384 1.234 . S
C362 O385 1.283 . S
C363 O375 1.281 . S
C363 O376 1.236 . S
C364 O386 1.240 . S
C364 O387 1.264 . S
O365 Mn360 2.095 . S
O365 C374 1.250 . S
O366 Mn361 2.121 . S
O366 C374 1.258 . S
C367 N368 1.326 . S
C367 C371 1.460 . S
C367 H373 0.929 . S
N368 Mn361 2.257 . S
N368 C367 1.326 . S
N368 C372 1.362 . S
C369 C370 1.258 . S
C369 C372 1.431 . S
C369 C389 1.449 . S
C370 C369 1.258 . S
C370 C371 1.477 . S
C370 H390 0.931 . S
C371 C367 1.460 . S
C371 C370 1.477 . S
C371 H391 0.930 . S
C372 N368 1.362 . S
C372 C369 1.431 . S
C372 C382 1.476 . S
H373 C367 0.929 . S
C374 O365 1.250 . S
C374 O366 1.258 . S
O375 Mn360 2.162 . S
O375 C363 1.281 . S
O376 Mn360 2.297 . S
O376 C363 1.236 . S
N377 Mn361 2.282 . S
N377 C378 1.328 . S
N377 C382 1.318 . S
C378 N377 1.328 . S
C378 C379 1.457 . S
C378 H383 0.929 . S
C379 C378 1.457 . S
C379 C380 1.291 . S
C379 H392 0.931 . S
C380 C379 1.291 . S
C380 C381 1.373 . S
C380 H393 0.929 . S
C381 C380 1.373 . S
C381 C382 1.396 . S
C381 C388 1.403 . S
C382 C372 1.476 . S
C382 N377 1.318 . S
C382 C381 1.396 . S
H383 C378 0.929 . S
O384 Mn360 2.385 . S
O384 C362 1.234 . S
O385 Mn360 2.209 . S
O385 Mn361 2.215 . S
O385 C362 1.283 . S
O386 Mn360 2.094 . S
O386 C364 1.240 . S
O387 Mn361 2.117 . S
O387 C364 1.264 . S
C388 C381 1.403 . S
C388 C389 1.399 . S
C388 H394 0.929 . S
C389 C369 1.449 . S
C389 C388 1.399 . S
C389 H395 0.930 . S
H390 C370 0.931 . S
H391 C371 0.930 . S
H392 C379 0.931 . S
H393 C380 0.929 . S
H394 C388 0.929 . S
H395 C389 0.930 . S
Mn396 O401 2.095 . S
Mn396 O411 2.162 . S
Mn396 O412 2.297 . S
Mn396 O420 2.385 . S
Mn396 O421 2.209 . S
Mn396 O422 2.094 . S
Mn397 O402 2.121 . S
Mn397 N404 2.257 . S
Mn397 N413 2.282 . S
Mn397 O421 2.215 1_556 S
Mn397 O423 2.117 1_556 S
C398 O420 1.234 . S
C398 O421 1.283 . S
C399 O411 1.281 . S
C399 O412 1.236 . S
C400 O422 1.240 . S
C400 O423 1.264 . S
O401 Mn396 2.095 . S
O401 C410 1.250 . S
O402 Mn397 2.121 . S
O402 C410 1.258 1_556 S
C403 N404 1.326 . S
C403 C407 1.460 . S
C403 H409 0.929 . S
N404 Mn397 2.257 . S
N404 C403 1.326 . S
N404 C408 1.362 . S
C405 C406 1.258 . S
C405 C408 1.431 . S
C405 C425 1.449 . S
C406 C405 1.258 . S
C406 C407 1.477 . S
C406 H426 0.931 . S
C407 C403 1.460 . S
C407 C406 1.477 . S
C407 H427 0.930 . S
C408 N404 1.362 . S
C408 C405 1.431 . S
C408 C418 1.476 . S
H409 C403 0.929 . S
C410 O401 1.250 . S
C410 O402 1.258 1_554 S
O411 Mn396 2.162 . S
O411 C399 1.281 . S
O412 Mn396 2.297 . S
O412 C399 1.236 . S
N413 Mn397 2.282 . S
N413 C414 1.328 1_556 S
N413 C418 1.318 . S
C414 N413 1.328 1_554 S
C414 C415 1.457 . S
C414 H419 0.929 . S
C415 C414 1.457 . S
C415 C416 1.291 1_554 S
C415 H428 0.931 . S
C416 C415 1.291 1_556 S
C416 C417 1.373 . S
C416 H429 0.929 . S
C417 C416 1.373 . S
C417 C418 1.396 . S
C417 C424 1.403 . S
C418 C408 1.476 . S
C418 N413 1.318 . S
C418 C417 1.396 . S
H419 C414 0.929 . S
O420 Mn396 2.385 . S
O420 C398 1.234 . S
O421 Mn396 2.209 . S
O421 Mn397 2.215 1_554 S
O421 C398 1.283 . S
O422 Mn396 2.094 . S
O422 C400 1.240 . S
O423 Mn397 2.117 1_554 S
O423 C400 1.264 . S
C424 C417 1.403 . S
C424 C425 1.399 . S
C424 H430 0.929 . S
C425 C405 1.449 . S
C425 C424 1.399 . S
C425 H431 0.930 . S
H426 C406 0.931 . S
H427 C407 0.930 . S
H428 C415 0.931 . S
H429 C416 0.929 . S
H430 C424 0.929 . S
H431 C425 0.930 . S
Mn432 O437 2.095 1_554 S
Mn432 O447 2.162 1_554 S
Mn432 O448 2.297 1_554 S
Mn432 O456 2.385 . S
Mn432 O457 2.209 . S
Mn432 O458 2.094 . S
Mn433 O438 2.121 . S
Mn433 N440 2.257 . S
Mn433 N449 2.282 . S
Mn433 O457 2.215 . S
Mn433 O459 2.117 . S
C434 O456 1.234 . S
C434 O457 1.283 . S
C435 O447 1.281 . S
C435 O448 1.236 . S
C436 O458 1.240 . S
C436 O459 1.264 . S
O437 Mn432 2.095 1_556 S
O437 C446 1.250 . S
O438 Mn433 2.121 . S
O438 C446 1.258 1_554 S
C439 N440 1.326 . S
C439 C443 1.460 . S
C439 H445 0.929 . S
N440 Mn433 2.257 . S
N440 C439 1.326 . S
N440 C444 1.362 . S
C441 C442 1.258 . S
C441 C444 1.431 . S
C441 C461 1.449 . S
C442 C441 1.258 . S
C442 C443 1.477 . S
C442 H462 0.931 . S
C443 C439 1.460 . S
C443 C442 1.477 . S
C443 H463 0.930 . S
C444 N440 1.362 . S
C444 C441 1.431 . S
C444 C454 1.476 . S
H445 C439 0.929 . S
C446 O437 1.250 . S
C446 O438 1.258 1_556 S
O447 Mn432 2.162 1_556 S
O447 C435 1.281 . S
O448 Mn432 2.297 1_556 S
O448 C435 1.236 . S
N449 Mn433 2.282 . S
N449 C450 1.328 . S
N449 C454 1.318 . S
C450 N449 1.328 . S
C450 C451 1.457 . S
C450 H455 0.929 . S
C451 C450 1.457 . S
C451 C452 1.291 . S
C451 H464 0.931 . S
C452 C451 1.291 . S
C452 C453 1.373 . S
C452 H465 0.929 . S
C453 C452 1.373 . S
C453 C454 1.396 . S
C453 C460 1.403 . S
C454 C444 1.476 . S
C454 N449 1.318 . S
C454 C453 1.396 . S
H455 C450 0.929 . S
O456 Mn432 2.385 . S
O456 C434 1.234 . S
O457 Mn432 2.209 . S
O457 Mn433 2.215 . S
O457 C434 1.283 . S
O458 Mn432 2.094 . S
O458 C436 1.240 . S
O459 Mn433 2.117 . S
O459 C436 1.264 . S
C460 C453 1.403 . S
C460 C461 1.399 . S
C460 H466 0.929 . S
C461 C441 1.449 . S
C461 C460 1.399 . S
C461 H467 0.930 . S
H462 C442 0.931 . S
H463 C443 0.930 . S
H464 C451 0.931 . S
H465 C452 0.929 . S
H466 C460 0.929 . S
H467 C461 0.930 . S
Mn468 O473 2.085 1_554 S
Mn468 O483 2.151 1_554 S
Mn468 O484 2.283 1_554 S
Mn468 O492 2.398 . S
Mn468 O493 2.217 . S
Mn468 O494 2.106 . S
Mn469 O474 2.121 1_554 S
Mn469 N476 2.257 . S
Mn469 N485 2.282 . S
Mn469 O493 2.215 . S
Mn469 O495 2.117 . S
C470 O492 1.234 . S
C470 O493 1.283 . S
C471 O483 1.281 . S
C471 O484 1.236 . S
C472 O494 1.240 . S
C472 O495 1.264 . S
O473 Mn468 2.085 1_556 S
O473 C482 1.250 . S
O474 Mn469 2.121 1_556 S
O474 C482 1.258 . S
C475 N476 1.326 . S
C475 C479 1.460 . S
C475 H481 0.885 1_554 S
N476 Mn469 2.257 . S
N476 C475 1.326 . S
N476 C480 1.362 . S
C477 C478 1.258 . S
C477 C480 1.431 . S
C477 C497 1.449 . S
C478 C477 1.258 . S
C478 C479 1.477 . S
C478 H498 0.931 . S
C479 C475 1.460 . S
C479 C478 1.477 . S
C479 H499 0.930 . S
C480 N476 1.362 . S
C480 C477 1.431 . S
C480 C490 1.476 . S
H481 C475 0.885 1_556 S
C482 O473 1.250 . S
C482 O474 1.258 . S
O483 Mn468 2.151 1_556 S
O483 C471 1.281 . S
O484 Mn468 2.283 1_556 S
O484 C471 1.236 . S
N485 Mn469 2.282 . S
N485 C486 1.328 . S
N485 C490 1.318 . S
C486 N485 1.328 . S
C486 C487 1.457 . S
C486 H491 0.929 . S
C487 C486 1.457 . S
C487 C488 1.291 . S
C487 H500 0.931 . S
C488 C487 1.291 . S
C488 C489 1.373 . S
C488 H501 0.929 . S
C489 C488 1.373 . S
C489 C490 1.396 . S
C489 C496 1.403 . S
C490 C480 1.476 . S
C490 N485 1.318 . S
C490 C489 1.396 . S
H491 C486 0.929 . S
O492 Mn468 2.398 . S
O492 C470 1.234 . S
O493 Mn468 2.217 . S
O493 Mn469 2.215 . S
O493 C470 1.283 . S
O494 Mn468 2.106 . S
O494 C472 1.240 . S
O495 Mn469 2.117 . S
O495 C472 1.264 . S
C496 C489 1.403 . S
C496 C497 1.399 . S
C496 H502 0.929 . S
C497 C477 1.449 . S
C497 C496 1.399 . S
C497 H503 0.930 . S
H498 C478 0.931 . S
H499 C479 0.930 . S
H500 C487 0.931 . S
H501 C488 0.929 . S
H502 C496 0.929 . S
H503 C497 0.930 . S
Mn504 O509 2.095 . S
Mn504 O519 2.162 . S
Mn504 O520 2.297 . S
Mn504 O528 2.385 . S
Mn504 O529 2.209 . S
Mn504 O530 2.094 . S
Mn505 O510 2.121 . S
Mn505 N512 2.257 . S
Mn505 N521 2.282 . S
Mn505 O529 2.215 . S
Mn505 O531 2.117 . S
C506 O528 1.234 . S
C506 O529 1.283 . S
C507 O519 1.281 . S
C507 O520 1.236 . S
C508 O530 1.240 . S
C508 O531 1.264 . S
O509 Mn504 2.095 . S
O509 C518 1.250 . S
O510 Mn505 2.121 . S
O510 C518 1.258 . S
C511 N512 1.326 . S
C511 C515 1.460 . S
C511 H517 0.929 . S
N512 Mn505 2.257 . S
N512 C511 1.326 . S
N512 C516 1.362 . S
C513 C514 1.258 . S
C513 C516 1.431 . S
C513 C533 1.449 . S
C514 C513 1.258 . S
C514 C515 1.477 . S
C514 H534 0.931 . S
C515 C511 1.460 . S
C515 C514 1.477 . S
C515 H535 0.930 . S
C516 N512 1.362 . S
C516 C513 1.431 . S
C516 C526 1.476 . S
H517 C511 0.929 . S
C518 O509 1.250 . S
C518 O510 1.258 . S
O519 Mn504 2.162 . S
O519 C507 1.281 . S
O520 Mn504 2.297 . S
O520 C507 1.236 . S
N521 Mn505 2.282 . S
N521 C522 1.328 . S
N521 C526 1.318 . S
C522 N521 1.328 . S
C522 C523 1.457 . S
C522 H527 0.929 . S
C523 C522 1.457 . S
C523 C524 1.291 . S
C523 H536 0.931 . S
C524 C523 1.291 . S
C524 C525 1.373 . S
C524 H537 0.929 . S
C525 C524 1.373 . S
C525 C526 1.396 . S
C525 C532 1.403 . S
C526 C516 1.476 . S
C526 N521 1.318 . S
C526 C525 1.396 . S
H527 C522 0.929 . S
O528 Mn504 2.385 . S
O528 C506 1.234 . S
O529 Mn504 2.209 . S
O529 Mn505 2.215 . S
O529 C506 1.283 . S
O530 Mn504 2.094 . S
O530 C508 1.240 . S
O531 Mn505 2.117 . S
O531 C508 1.264 . S
C532 C525 1.403 . S
C532 C533 1.399 . S
C532 H538 0.929 . S
C533 C513 1.449 . S
C533 C532 1.399 . S
C533 H539 0.930 . S
H534 C514 0.931 . S
H535 C515 0.930 . S
H536 C523 0.931 . S
H537 C524 0.929 . S
H538 C532 0.929 . S
H539 C533 0.930 . S
Mn540 O545 2.095 . S
Mn540 O555 2.162 . S
Mn540 O556 2.297 . S
Mn540 O564 2.385 . S
Mn540 O565 2.209 . S
Mn540 O566 2.094 . S
Mn541 O546 2.121 . S
Mn541 N548 2.257 . S
Mn541 N557 2.282 . S
Mn541 O565 2.215 . S
Mn541 O567 2.117 . S
C542 O564 1.234 . S
C542 O565 1.283 . S
C543 O555 1.281 . S
C543 O556 1.236 . S
C544 O566 1.240 . S
C544 O567 1.264 . S
O545 Mn540 2.095 . S
O545 C554 1.250 . S
O546 Mn541 2.121 . S
O546 C554 1.258 . S
C547 N548 1.326 . S
C547 C551 1.460 . S
C547 H553 0.929 . S
N548 Mn541 2.257 . S
N548 C547 1.326 . S
N548 C552 1.362 . S
C549 C550 1.258 . S
C549 C552 1.431 . S
C549 C569 1.449 . S
C550 C549 1.258 . S
C550 C551 1.477 . S
C550 H570 0.931 . S
C551 C547 1.460 . S
C551 C550 1.477 . S
C551 H571 0.930 . S
C552 N548 1.362 . S
C552 C549 1.431 . S
C552 C562 1.476 . S
H553 C547 0.929 . S
C554 O545 1.250 . S
C554 O546 1.258 . S
O555 Mn540 2.162 . S
O555 C543 1.281 . S
O556 Mn540 2.297 . S
O556 C543 1.236 . S
N557 Mn541 2.282 . S
N557 C558 1.328 . S
N557 C562 1.318 . S
C558 N557 1.328 . S
C558 C559 1.457 . S
C558 H563 0.929 . S
C559 C558 1.457 . S
C559 C560 1.291 . S
C559 H572 0.931 . S
C560 C559 1.291 . S
C560 C561 1.373 . S
C560 H573 0.929 . S
C561 C560 1.373 . S
C561 C562 1.396 . S
C561 C568 1.403 . S
C562 C552 1.476 . S
C562 N557 1.318 . S
C562 C561 1.396 . S
H563 C558 0.929 . S
O564 Mn540 2.385 . S
O564 C542 1.234 . S
O565 Mn540 2.209 . S
O565 Mn541 2.215 . S
O565 C542 1.283 . S
O566 Mn540 2.094 . S
O566 C544 1.240 . S
O567 Mn541 2.117 . S
O567 C544 1.264 . S
C568 C561 1.403 . S
C568 C569 1.399 . S
C568 H574 0.929 . S
C569 C549 1.449 . S
C569 C568 1.399 . S
C569 H575 0.930 . S
H570 C550 0.931 . S
H571 C551 0.930 . S
H572 C559 0.931 . S
H573 C560 0.929 . S
H574 C568 0.929 . S
H575 C569 0.930 . S
Mn576 O581 2.095 . S
Mn576 O591 2.162 . S
Mn576 O592 2.297 . S
Mn576 O600 2.385 . S
Mn576 O601 2.209 1_545 S
Mn576 O602 2.094 . S
Mn577 O582 2.121 . S
Mn577 N584 2.257 . S
Mn577 N593 2.282 . S
Mn577 O601 2.215 . S
Mn577 O603 2.117 1_565 S
C578 O600 1.234 1_565 S
C578 O601 1.283 . S
C579 O591 1.281 . S
C579 O592 1.236 . S
C580 O602 1.240 . S
C580 O603 1.264 . S
O581 Mn576 2.095 . S
O581 C590 1.250 1_545 S
O582 Mn577 2.121 . S
O582 C590 1.258 . S
C583 N584 1.326 . S
C583 C587 1.460 . S
C583 H589 0.929 . S
N584 Mn577 2.257 . S
N584 C583 1.326 . S
N584 C588 1.362 . S
C585 C586 1.258 . S
C585 C588 1.431 . S
C585 C605 1.449 . S
C586 C585 1.258 . S
C586 C587 1.477 . S
C586 H606 0.931 . S
C587 C583 1.460 . S
C587 C586 1.477 . S
C587 H607 0.930 . S
C588 N584 1.362 . S
C588 C585 1.431 . S
C588 C598 1.476 . S
H589 C583 0.929 . S
C590 O581 1.250 1_565 S
C590 O582 1.258 . S
O591 Mn576 2.162 . S
O591 C579 1.281 . S
O592 Mn576 2.297 . S
O592 C579 1.236 . S
N593 Mn577 2.282 . S
N593 C594 1.328 . S
N593 C598 1.318 . S
C594 N593 1.328 . S
C594 C595 1.457 . S
C594 H599 0.929 1_565 S
C595 C594 1.457 . S
C595 C596 1.291 . S
C595 H608 0.931 . S
C596 C595 1.291 . S
C596 C597 1.373 . S
C596 H609 0.929 . S
C597 C596 1.373 . S
C597 C598 1.396 . S
C597 C604 1.403 . S
C598 C588 1.476 . S
C598 N593 1.318 . S
C598 C597 1.396 . S
H599 C594 0.929 1_545 S
O600 Mn576 2.385 . S
O600 C578 1.234 1_545 S
O601 Mn576 2.209 1_565 S
O601 Mn577 2.215 . S
O601 C578 1.283 . S
O602 Mn576 2.094 . S
O602 C580 1.240 . S
O603 Mn577 2.117 1_545 S
O603 C580 1.264 . S
C604 C597 1.403 . S
C604 C605 1.399 . S
C604 H610 0.929 . S
C605 C585 1.449 . S
C605 C604 1.399 . S
C605 H611 0.930 . S
H606 C586 0.931 . S
H607 C587 0.930 . S
H608 C595 0.931 . S
H609 C596 0.929 . S
H610 C604 0.929 . S
H611 C605 0.930 . S
Mn612 O617 2.095 . S
Mn612 O627 2.162 . S
Mn612 O628 2.297 . S
Mn612 O636 2.385 . S
Mn612 O637 2.209 . S
Mn612 O638 2.094 . S
Mn613 O618 2.121 . S
Mn613 N620 2.257 . S
Mn613 N629 2.282 . S
Mn613 O637 2.215 . S
Mn613 O639 2.117 . S
C614 O636 1.234 . S
C614 O637 1.283 . S
C615 O627 1.281 . S
C615 O628 1.236 . S
C616 O638 1.240 . S
C616 O639 1.264 . S
O617 Mn612 2.095 . S
O617 C626 1.250 . S
O618 Mn613 2.121 . S
O618 C626 1.258 . S
C619 N620 1.326 . S
C619 C623 1.460 . S
C619 H625 0.929 . S
N620 Mn613 2.257 . S
N620 C619 1.326 . S
N620 C624 1.362 . S
C621 C622 1.258 . S
C621 C624 1.431 . S
C621 C641 1.449 . S
C622 C621 1.258 . S
C622 C623 1.477 . S
C622 H642 0.931 . S
C623 C619 1.460 . S
C623 C622 1.477 . S
C623 H643 0.930 . S
C624 N620 1.362 . S
C624 C621 1.431 . S
C624 C634 1.476 . S
H625 C619 0.929 . S
C626 O617 1.250 . S
C626 O618 1.258 . S
O627 Mn612 2.162 . S
O627 C615 1.281 . S
O628 Mn612 2.297 . S
O628 C615 1.236 . S
N629 Mn613 2.282 . S
N629 C630 1.328 . S
N629 C634 1.318 . S
C630 N629 1.328 . S
C630 C631 1.457 . S
C630 H635 0.929 . S
C631 C630 1.457 . S
C631 C632 1.291 . S
C631 H644 0.931 . S
C632 C631 1.291 . S
C632 C633 1.373 . S
C632 H645 0.929 . S
C633 C632 1.373 . S
C633 C634 1.396 . S
C633 C640 1.403 . S
C634 C624 1.476 . S
C634 N629 1.318 . S
C634 C633 1.396 . S
H635 C630 0.929 . S
O636 Mn612 2.385 . S
O636 C614 1.234 . S
O637 Mn612 2.209 . S
O637 Mn613 2.215 . S
O637 C614 1.283 . S
O638 Mn612 2.094 . S
O638 C616 1.240 . S
O639 Mn613 2.117 . S
O639 C616 1.264 . S
C640 C633 1.403 . S
C640 C641 1.399 . S
C640 H646 0.929 . S
C641 C621 1.449 . S
C641 C640 1.399 . S
C641 H647 0.930 . S
H642 C622 0.931 . S
H643 C623 0.930 . S
H644 C631 0.931 . S
H645 C632 0.929 . S
H646 C640 0.929 . S
H647 C641 0.930 . S
Mn648 O653 2.095 . S
Mn648 O663 2.162 . S
Mn648 O664 2.297 . S
Mn648 O672 2.385 . S
Mn648 O673 2.209 . S
Mn648 O674 2.094 . S
Mn649 O654 2.121 . S
Mn649 N656 2.257 . S
Mn649 N665 2.282 . S
Mn649 O673 2.215 . S
Mn649 O675 2.117 . S
C650 O672 1.234 . S
C650 O673 1.283 . S
C651 O663 1.281 . S
C651 O664 1.236 . S
C652 O674 1.240 . S
C652 O675 1.264 . S
O653 Mn648 2.095 . S
O653 C662 1.250 . S
O654 Mn649 2.121 . S
O654 C662 1.258 . S
C655 N656 1.326 . S
C655 C659 1.460 . S
C655 H661 0.929 . S
N656 Mn649 2.257 . S
N656 C655 1.326 . S
N656 C660 1.362 . S
C657 C658 1.258 . S
C657 C660 1.431 . S
C657 C677 1.449 . S
C658 C657 1.258 . S
C658 C659 1.477 . S
C658 H678 0.931 . S
C659 C655 1.460 . S
C659 C658 1.477 . S
C659 H679 0.930 . S
C660 N656 1.362 . S
C660 C657 1.431 . S
C660 C670 1.476 . S
H661 C655 0.929 . S
C662 O653 1.250 . S
C662 O654 1.258 . S
O663 Mn648 2.162 . S
O663 C651 1.281 . S
O664 Mn648 2.297 . S
O664 C651 1.236 . S
N665 Mn649 2.282 . S
N665 C666 1.328 . S
N665 C670 1.318 . S
C666 N665 1.328 . S
C666 C667 1.457 . S
C666 H671 0.929 . S
C667 C666 1.457 . S
C667 C668 1.291 . S
C667 H680 0.931 . S
C668 C667 1.291 . S
C668 C669 1.373 . S
C668 H681 0.929 . S
C669 C668 1.373 . S
C669 C670 1.396 . S
C669 C676 1.403 . S
C670 C660 1.476 . S
C670 N665 1.318 . S
C670 C669 1.396 . S
H671 C666 0.929 . S
O672 Mn648 2.385 . S
O672 C650 1.234 . S
O673 Mn648 2.209 . S
O673 Mn649 2.215 . S
O673 C650 1.283 . S
O674 Mn648 2.094 . S
O674 C652 1.240 . S
O675 Mn649 2.117 . S
O675 C652 1.264 . S
C676 C669 1.403 . S
C676 C677 1.399 . S
C676 H682 0.929 . S
C677 C657 1.449 . S
C677 C676 1.399 . S
C677 H683 0.930 . S
H678 C658 0.931 . S
H679 C659 0.930 . S
H680 C667 0.931 . S
H681 C668 0.929 . S
H682 C676 0.929 . S
H683 C677 0.930 . S
Mn684 O689 2.095 . S
Mn684 O699 2.162 . S
Mn684 O700 2.297 . S
Mn684 O708 2.385 . S
Mn684 O709 2.209 . S
Mn684 O710 2.094 . S
Mn685 O690 2.121 . S
Mn685 N692 2.257 1_545 S
Mn685 N701 2.282 . S
Mn685 O709 2.215 . S
Mn685 O711 2.117 . S
C686 O708 1.234 . S
C686 O709 1.283 . S
C687 O699 1.281 . S
C687 O700 1.236 . S
C688 O710 1.240 . S
C688 O711 1.264 . S
O689 Mn684 2.095 . S
O689 C698 1.250 . S
O690 Mn685 2.121 . S
O690 C698 1.258 . S
C691 N692 1.326 . S
C691 C695 1.460 . S
C691 H697 0.929 . S
N692 Mn685 2.257 1_565 S
N692 C691 1.326 . S
N692 C696 1.362 . S
C693 C694 1.258 . S
C693 C696 1.431 . S
C693 C713 1.449 . S
C694 C693 1.258 . S
C694 C695 1.477 . S
C694 H714 0.931 . S
C695 C691 1.460 . S
C695 C694 1.477 . S
C695 H715 0.930 . S
C696 N692 1.362 . S
C696 C693 1.431 . S
C696 C706 1.486 . S
H697 C691 0.929 . S
C698 O689 1.250 . S
C698 O690 1.258 . S
O699 Mn684 2.162 . S
O699 C687 1.281 . S
O700 Mn684 2.297 . S
O700 C687 1.236 . S
N701 Mn685 2.282 . S
N701 C702 1.328 . S
N701 C706 1.305 1_545 S
C702 N701 1.328 . S
C702 C703 1.457 . S
C702 H707 0.929 . S
C703 C702 1.457 . S
C703 C704 1.291 . S
C703 H716 0.931 . S
C704 C703 1.291 . S
C704 C705 1.373 1_545 S
C704 H717 0.929 . S
C705 C704 1.373 1_565 S
C705 C706 1.399 . S
C705 C712 1.403 . S
C706 C696 1.486 . S
C706 N701 1.305 1_565 S
C706 C705 1.399 . S
H707 C702 0.929 . S
O708 Mn684 2.385 . S
O708 C686 1.234 . S
O709 Mn684 2.209 . S
O709 Mn685 2.215 . S
O709 C686 1.283 . S
O710 Mn684 2.094 . S
O710 C688 1.240 . S
O711 Mn685 2.117 . S
O711 C688 1.264 . S
C712 C705 1.403 . S
C712 C713 1.399 . S
C712 H718 0.929 . S
C713 C693 1.449 . S
C713 C712 1.399 . S
C713 H719 0.930 . S
H714 C694 0.931 . S
H715 C695 0.930 . S
H716 C703 0.931 . S
H717 C704 0.929 . S
H718 C712 0.929 . S
H719 C713 0.930 . S
Mn720 O725 2.095 . S
Mn720 O735 2.162 . S
Mn720 O736 2.297 . S
Mn720 O744 2.385 . S
Mn720 O745 2.209 1_554 S
Mn720 O746 2.094 . S
Mn721 O726 2.121 . S
Mn721 N728 2.257 . S
Mn721 N737 2.282 . S
Mn721 O745 2.215 . S
Mn721 O747 2.117 1_556 S
C722 O744 1.234 1_556 S
C722 O745 1.283 . S
C723 O735 1.281 . S
C723 O736 1.236 . S
C724 O746 1.240 . S
C724 O747 1.264 . S
O725 Mn720 2.095 . S
O725 C734 1.250 1_554 S
O726 Mn721 2.121 . S
O726 C734 1.258 . S
C727 N728 1.326 . S
C727 C731 1.460 . S
C727 H733 0.929 . S
N728 Mn721 2.257 . S
N728 C727 1.326 . S
N728 C732 1.362 . S
C729 C730 1.258 . S
C729 C732 1.431 . S
C729 C749 1.449 . S
C730 C729 1.258 . S
C730 C731 1.477 . S
C730 H750 0.931 . S
C731 C727 1.460 . S
C731 C730 1.477 . S
C731 H751 0.930 . S
C732 N728 1.362 . S
C732 C729 1.431 . S
C732 C742 1.476 . S
H733 C727 0.929 . S
C734 O725 1.250 1_556 S
C734 O726 1.258 . S
O735 Mn720 2.162 . S
O735 C723 1.281 . S
O736 Mn720 2.297 . S
O736 C723 1.236 . S
N737 Mn721 2.282 . S
N737 C738 1.328 . S
N737 C742 1.318 . S
C738 N737 1.328 . S
C738 C739 1.457 . S
C738 H743 0.929 1_556 S
C739 C738 1.457 . S
C739 C740 1.291 . S
C739 H752 0.931 . S
C740 C739 1.291 . S
C740 C741 1.373 . S
C740 H753 0.929 . S
C741 C740 1.373 . S
C741 C742 1.396 . S
C741 C748 1.403 . S
C742 C732 1.476 . S
C742 N737 1.318 . S
C742 C741 1.396 . S
H743 C738 0.929 1_554 S
O744 Mn720 2.385 . S
O744 C722 1.234 1_554 S
O745 Mn720 2.209 1_556 S
O745 Mn721 2.215 . S
O745 C722 1.283 . S
O746 Mn720 2.094 . S
O746 C724 1.240 . S
O747 Mn721 2.117 1_554 S
O747 C724 1.264 . S
C748 C741 1.403 . S
C748 C749 1.399 . S
C748 H754 0.929 . S
C749 C729 1.449 . S
C749 C748 1.399 . S
C749 H755 0.930 . S
H750 C730 0.931 . S
H751 C731 0.930 . S
H752 C739 0.931 . S
H753 C740 0.929 . S
H754 C748 0.929 . S
H755 C749 0.930 . S
Mn756 O761 2.095 . S
Mn756 O771 2.162 . S
Mn756 O772 2.297 . S
Mn756 O780 2.385 . S
Mn756 O781 2.209 . S
Mn756 O782 2.094 . S
Mn757 O762 2.121 . S
Mn757 N764 2.257 . S
Mn757 N773 2.282 . S
Mn757 O781 2.215 . S
Mn757 O783 2.117 . S
C758 O780 1.234 . S
C758 O781 1.283 . S
C759 O771 1.281 . S
C759 O772 1.236 . S
C760 O782 1.240 . S
C760 O783 1.264 . S
O761 Mn756 2.095 . S
O761 C770 1.250 . S
O762 Mn757 2.121 . S
O762 C770 1.258 . S
C763 N764 1.326 . S
C763 C767 1.460 . S
C763 H769 0.929 . S
N764 Mn757 2.257 . S
N764 C763 1.326 . S
N764 C768 1.362 . S
C765 C766 1.258 . S
C765 C768 1.431 . S
C765 C785 1.449 . S
C766 C765 1.258 . S
C766 C767 1.477 . S
C766 H786 0.931 . S
C767 C763 1.460 . S
C767 C766 1.477 . S
C767 H787 0.930 . S
C768 N764 1.362 . S
C768 C765 1.431 . S
C768 C778 1.476 . S
H769 C763 0.929 . S
C770 O761 1.250 . S
C770 O762 1.258 . S
O771 Mn756 2.162 . S
O771 C759 1.281 . S
O772 Mn756 2.297 . S
O772 C759 1.236 . S
N773 Mn757 2.282 . S
N773 C774 1.328 . S
N773 C778 1.318 . S
C774 N773 1.328 . S
C774 C775 1.457 . S
C774 H779 0.929 . S
C775 C774 1.457 . S
C775 C776 1.291 . S
C775 H788 0.931 . S
C776 C775 1.291 . S
C776 C777 1.373 . S
C776 H789 0.929 . S
C777 C776 1.373 . S
C777 C778 1.396 . S
C777 C784 1.403 . S
C778 C768 1.476 . S
C778 N773 1.318 . S
C778 C777 1.396 . S
H779 C774 0.929 . S
O780 Mn756 2.385 . S
O780 C758 1.234 . S
O781 Mn756 2.209 . S
O781 Mn757 2.215 . S
O781 C758 1.283 . S
O782 Mn756 2.094 . S
O782 C760 1.240 . S
O783 Mn757 2.117 . S
O783 C760 1.264 . S
C784 C777 1.403 . S
C784 C785 1.399 . S
C784 H790 0.929 . S
C785 C765 1.449 . S
C785 C784 1.399 . S
C785 H791 0.930 . S
H786 C766 0.931 . S
H787 C767 0.930 . S
H788 C775 0.931 . S
H789 C776 0.929 . S
H790 C784 0.929 . S
H791 C785 0.930 . S
Mn792 O797 2.095 . S
Mn792 O807 2.162 . S
Mn792 O808 2.297 . S
Mn792 O816 2.385 . S
Mn792 O817 2.209 . S
Mn792 O818 2.094 . S
Mn793 O798 2.121 . S
Mn793 N800 2.257 . S
Mn793 N809 2.282 . S
Mn793 O817 2.215 . S
Mn793 O819 2.117 . S
C794 O816 1.234 . S
C794 O817 1.283 . S
C795 O807 1.281 . S
C795 O808 1.236 . S
C796 O818 1.240 . S
C796 O819 1.264 . S
O797 Mn792 2.095 . S
O797 C806 1.250 . S
O798 Mn793 2.121 . S
O798 C806 1.258 . S
C799 N800 1.326 . S
C799 C803 1.460 . S
C799 H805 0.929 . S
N800 Mn793 2.257 . S
N800 C799 1.326 . S
N800 C804 1.362 . S
C801 C802 1.258 . S
C801 C804 1.431 . S
C801 C821 1.449 . S
C802 C801 1.258 . S
C802 C803 1.477 . S
C802 H822 0.931 . S
C803 C799 1.460 . S
C803 C802 1.477 . S
C803 H823 0.930 . S
C804 N800 1.362 . S
C804 C801 1.431 . S
C804 C814 1.476 . S
H805 C799 0.929 . S
C806 O797 1.250 . S
C806 O798 1.258 . S
O807 Mn792 2.162 . S
O807 C795 1.281 . S
O808 Mn792 2.297 . S
O808 C795 1.236 . S
N809 Mn793 2.282 . S
N809 C810 1.328 . S
N809 C814 1.318 . S
C810 N809 1.328 . S
C810 C811 1.457 . S
C810 H815 0.929 . S
C811 C810 1.457 . S
C811 C812 1.291 . S
C811 H824 0.931 . S
C812 C811 1.291 . S
C812 C813 1.373 . S
C812 H825 0.929 . S
C813 C812 1.373 . S
C813 C814 1.396 . S
C813 C820 1.403 . S
C814 C804 1.476 . S
C814 N809 1.318 . S
C814 C813 1.396 . S
H815 C810 0.929 . S
O816 Mn792 2.385 . S
O816 C794 1.234 . S
O817 Mn792 2.209 . S
O817 Mn793 2.215 . S
O817 C794 1.283 . S
O818 Mn792 2.094 . S
O818 C796 1.240 . S
O819 Mn793 2.117 . S
O819 C796 1.264 . S
C820 C813 1.403 . S
C820 C821 1.399 . S
C820 H826 0.929 . S
C821 C801 1.449 . S
C821 C820 1.399 . S
C821 H827 0.930 . S
H822 C802 0.931 . S
H823 C803 0.930 . S
H824 C811 0.931 . S
H825 C812 0.929 . S
H826 C820 0.929 . S
H827 C821 0.930 . S
Mn828 O833 2.095 . S
Mn828 O843 2.162 . S
Mn828 O844 2.297 . S
Mn828 O852 2.385 . S
Mn828 O853 2.209 . S
Mn828 O854 2.094 . S
Mn829 O834 2.121 . S
Mn829 N836 2.257 . S
Mn829 N845 2.282 . S
Mn829 O853 2.215 . S
Mn829 O855 2.117 . S
C830 O852 1.234 . S
C830 O853 1.283 . S
C831 O843 1.281 . S
C831 O844 1.236 . S
C832 O854 1.240 . S
C832 O855 1.264 . S
O833 Mn828 2.095 . S
O833 C842 1.250 . S
O834 Mn829 2.121 . S
O834 C842 1.258 . S
C835 N836 1.326 . S
C835 C839 1.460 . S
C835 H841 0.929 . S
N836 Mn829 2.257 . S
N836 C835 1.326 . S
N836 C840 1.362 . S
C837 C838 1.258 . S
C837 C840 1.431 . S
C837 C857 1.449 . S
C838 C837 1.258 . S
C838 C839 1.477 . S
C838 H858 0.931 . S
C839 C835 1.460 . S
C839 C838 1.477 . S
C839 H859 0.930 . S
C840 N836 1.362 . S
C840 C837 1.431 . S
C840 C850 1.476 . S
H841 C835 0.929 . S
C842 O833 1.250 . S
C842 O834 1.258 . S
O843 Mn828 2.162 . S
O843 C831 1.281 . S
O844 Mn828 2.297 . S
O844 C831 1.236 . S
N845 Mn829 2.282 . S
N845 C846 1.328 . S
N845 C850 1.318 . S
C846 N845 1.328 . S
C846 C847 1.457 . S
C846 H851 0.929 . S
C847 C846 1.457 . S
C847 C848 1.291 . S
C847 H860 0.931 . S
C848 C847 1.291 . S
C848 C849 1.373 . S
C848 H861 0.929 . S
C849 C848 1.373 . S
C849 C850 1.396 . S
C849 C856 1.403 . S
C850 C840 1.476 . S
C850 N845 1.318 . S
C850 C849 1.396 . S
H851 C846 0.929 . S
O852 Mn828 2.385 . S
O852 C830 1.234 . S
O853 Mn828 2.209 . S
O853 Mn829 2.215 . S
O853 C830 1.283 . S
O854 Mn828 2.094 . S
O854 C832 1.240 . S
O855 Mn829 2.117 . S
O855 C832 1.264 . S
C856 C849 1.403 . S
C856 C857 1.399 . S
C856 H862 0.929 . S
C857 C837 1.449 . S
C857 C856 1.399 . S
C857 H863 0.930 . S
H858 C838 0.931 . S
H859 C839 0.930 . S
H860 C847 0.931 . S
H861 C848 0.929 . S
H862 C856 0.929 . S
H863 C857 0.930 . S
O864 Mn865 2.163 . S
O864 C878 1.244 . S
Mn865 O864 2.163 . S
Mn865 O868 2.160 . S
Mn865 O869 2.221 . S
Mn865 O871 2.163 . S
Mn865 O873 2.160 . S
Mn865 O883 2.221 . S
O866 Mn867 2.087 . S
O866 C878 1.256 . S
Mn867 O866 2.087 . S
Mn867 O874 2.089 . S
Mn867 O883 2.290 . S
Mn867 O884 2.251 . S
O868 Mn865 2.160 . S
O868 C879 1.239 . S
O869 Mn865 2.221 . S
O869 Mn870 2.290 . S
O869 C880 1.278 . S
Mn870 O869 2.290 . S
Mn870 O872 2.089 . S
Mn870 O875 2.251 . S
Mn870 O876 2.087 . S
O871 Mn865 2.163 . S
O871 C881 1.244 . S
O872 Mn870 2.089 . S
O872 C879 1.256 . S
O873 Mn865 2.160 . S
O873 C882 1.239 . S
O874 Mn867 2.089 . S
O874 C882 1.256 . S
O875 Mn870 2.251 . S
O875 C880 1.241 . S
O876 Mn870 2.087 . S
O876 C881 1.256 . S
C877 O883 1.278 . S
C877 O884 1.241 . S
C878 O864 1.244 . S
C878 O866 1.256 . S
C879 O868 1.239 . S
C879 O872 1.256 . S
C880 O869 1.278 . S
C880 O875 1.241 . S
C881 O871 1.244 . S
C881 O876 1.256 . S
C882 O873 1.239 . S
C882 O874 1.256 . S
O883 Mn865 2.221 . S
O883 Mn867 2.290 . S
O883 C877 1.278 . S
O884 Mn867 2.251 . S
O884 C877 1.241 . S
O885 Mn886 2.163 . S
O885 C899 1.244 . S
Mn886 O885 2.163 . S
Mn886 O889 2.160 . S
Mn886 O890 2.221 . S
Mn886 O892 2.163 . S
Mn886 O894 2.160 . S
Mn886 O904 2.221 . S
O887 Mn888 2.087 . S
O887 C899 1.256 . S
Mn888 O887 2.087 . S
Mn888 O895 2.089 . S
Mn888 O904 2.290 . S
Mn888 O905 2.251 . S
O889 Mn886 2.160 . S
O889 C900 1.239 . S
O890 Mn886 2.221 . S
O890 Mn891 2.290 . S
O890 C901 1.278 . S
Mn891 O890 2.290 . S
Mn891 O893 2.089 . S
Mn891 O896 2.251 . S
Mn891 O897 2.087 . S
O892 Mn886 2.163 . S
O892 C902 1.244 . S
O893 Mn891 2.089 . S
O893 C900 1.256 . S
O894 Mn886 2.160 . S
O894 C903 1.239 . S
O895 Mn888 2.089 . S
O895 C903 1.256 . S
O896 Mn891 2.251 . S
O896 C901 1.241 . S
O897 Mn891 2.087 . S
O897 C902 1.256 . S
C898 O904 1.278 . S
C898 O905 1.241 . S
C899 O885 1.244 . S
C899 O887 1.256 . S
C900 O889 1.239 . S
C900 O893 1.256 . S
C901 O890 1.278 . S
C901 O896 1.241 . S
C902 O892 1.244 . S
C902 O897 1.256 . S
C903 O894 1.239 . S
C903 O895 1.256 . S
O904 Mn886 2.221 . S
O904 Mn888 2.290 . S
O904 C898 1.278 . S
O905 Mn888 2.251 . S
O905 C898 1.241 . S
O906 Mn907 2.163 . S
O906 C920 1.244 . S
Mn907 O906 2.163 . S
Mn907 O910 2.160 . S
Mn907 O911 2.221 . S
Mn907 O913 2.163 . S
Mn907 O915 2.160 . S
Mn907 O925 2.221 . S
O908 Mn909 2.087 . S
O908 C920 1.256 . S
Mn909 O908 2.087 . S
Mn909 O916 2.089 . S
Mn909 O925 2.290 . S
Mn909 O926 2.251 . S
O910 Mn907 2.160 . S
O910 C921 1.239 . S
O911 Mn907 2.221 . S
O911 Mn912 2.290 . S
O911 C922 1.278 . S
Mn912 O911 2.290 . S
Mn912 O914 2.089 . S
Mn912 O917 2.251 . S
Mn912 O918 2.087 . S
O913 Mn907 2.163 . S
O913 C923 1.244 . S
O914 Mn912 2.089 . S
O914 C921 1.256 . S
O915 Mn907 2.160 . S
O915 C924 1.239 . S
O916 Mn909 2.089 . S
O916 C924 1.256 . S
O917 Mn912 2.251 . S
O917 C922 1.241 . S
O918 Mn912 2.087 . S
O918 C923 1.256 . S
C919 O925 1.278 . S
C919 O926 1.241 . S
C920 O906 1.244 . S
C920 O908 1.256 . S
C921 O910 1.239 . S
C921 O914 1.256 . S
C922 O911 1.278 . S
C922 O917 1.241 . S
C923 O913 1.244 . S
C923 O918 1.256 . S
C924 O915 1.239 . S
C924 O916 1.256 . S
O925 Mn907 2.221 . S
O925 Mn909 2.290 . S
O925 C919 1.278 . S
O926 Mn909 2.251 . S
O926 C919 1.241 . S
O927 Mn928 2.163 . S
O927 C941 1.244 . S
Mn928 O927 2.163 . S
Mn928 O931 2.160 . S
Mn928 O932 2.221 . S
Mn928 O934 2.163 . S
Mn928 O936 2.160 . S
Mn928 O946 2.221 . S
O929 Mn930 2.087 . S
O929 C941 1.256 . S
Mn930 O929 2.087 . S
Mn930 O937 2.089 . S
Mn930 O946 2.290 . S
Mn930 O947 2.251 . S
O931 Mn928 2.160 . S
O931 C942 1.239 . S
O932 Mn928 2.221 . S
O932 Mn933 2.290 . S
O932 C943 1.278 . S
Mn933 O932 2.290 . S
Mn933 O935 2.089 . S
Mn933 O938 2.251 . S
Mn933 O939 2.087 . S
O934 Mn928 2.163 . S
O934 C944 1.244 . S
O935 Mn933 2.089 . S
O935 C942 1.256 . S
O936 Mn928 2.160 . S
O936 C945 1.239 . S
O937 Mn930 2.089 . S
O937 C945 1.256 . S
O938 Mn933 2.251 . S
O938 C943 1.241 . S
O939 Mn933 2.087 . S
O939 C944 1.256 . S
C940 O946 1.278 . S
C940 O947 1.241 . S
C941 O927 1.244 . S
C941 O929 1.256 . S
C942 O931 1.239 . S
C942 O935 1.256 . S
C943 O932 1.278 . S
C943 O938 1.241 . S
C944 O934 1.244 . S
C944 O939 1.256 . S
C945 O936 1.239 . S
C945 O937 1.256 . S
O946 Mn928 2.221 . S
O946 Mn930 2.290 . S
O946 C940 1.278 . S
O947 Mn930 2.251 . S
O947 C940 1.241 . S
O948 Mn949 2.163 . S
O948 C962 1.244 . S
Mn949 O948 2.163 . S
Mn949 O952 2.160 . S
Mn949 O953 2.221 . S
Mn949 O955 2.163 . S
Mn949 O957 2.160 . S
Mn949 O967 2.221 . S
O950 Mn951 2.087 . S
O950 C962 1.256 . S
Mn951 O950 2.087 . S
Mn951 O958 2.089 . S
Mn951 O967 2.290 . S
Mn951 O968 2.251 . S
O952 Mn949 2.160 . S
O952 C963 1.239 . S
O953 Mn949 2.221 . S
O953 Mn954 2.290 . S
O953 C964 1.278 . S
Mn954 O953 2.290 . S
Mn954 O956 2.089 . S
Mn954 O959 2.251 . S
Mn954 O960 2.087 . S
O955 Mn949 2.163 . S
O955 C965 1.244 . S
O956 Mn954 2.089 . S
O956 C963 1.256 . S
O957 Mn949 2.160 . S
O957 C966 1.239 . S
O958 Mn951 2.089 . S
O958 C966 1.256 . S
O959 Mn954 2.251 . S
O959 C964 1.241 . S
O960 Mn954 2.087 . S
O960 C965 1.256 . S
C961 O967 1.278 . S
C961 O968 1.241 . S
C962 O948 1.244 . S
C962 O950 1.256 . S
C963 O952 1.239 . S
C963 O956 1.256 . S
C964 O953 1.278 . S
C964 O959 1.241 . S
C965 O955 1.244 . S
C965 O960 1.256 . S
C966 O957 1.239 . S
C966 O958 1.256 . S
O967 Mn949 2.221 . S
O967 Mn951 2.290 . S
O967 C961 1.278 . S
O968 Mn951 2.251 . S
O968 C961 1.241 . S
O969 Mn970 2.163 . S
O969 C983 1.244 . S
Mn970 O969 2.163 . S
Mn970 O973 2.160 . S
Mn970 O974 2.221 . S
Mn970 O976 2.163 . S
Mn970 O978 2.160 . S
Mn970 O988 2.221 . S
O971 Mn972 2.087 . S
O971 C983 1.256 . S
Mn972 O971 2.087 . S
Mn972 O979 2.089 . S
Mn972 O988 2.290 . S
Mn972 O989 2.251 . S
O973 Mn970 2.160 . S
O973 C984 1.239 . S
O974 Mn970 2.221 . S
O974 Mn975 2.290 . S
O974 C985 1.278 . S
Mn975 O974 2.290 . S
Mn975 O977 2.089 . S
Mn975 O980 2.251 . S
Mn975 O981 2.087 . S
O976 Mn970 2.163 . S
O976 C986 1.244 . S
O977 Mn975 2.089 . S
O977 C984 1.256 . S
O978 Mn970 2.160 . S
O978 C987 1.239 . S
O979 Mn972 2.089 . S
O979 C987 1.256 . S
O980 Mn975 2.251 . S
O980 C985 1.241 . S
O981 Mn975 2.087 . S
O981 C986 1.256 . S
C982 O988 1.278 . S
C982 O989 1.241 . S
C983 O969 1.244 . S
C983 O971 1.256 . S
C984 O973 1.239 . S
C984 O977 1.256 . S
C985 O974 1.278 . S
C985 O980 1.241 . S
C986 O976 1.244 . S
C986 O981 1.256 . S
C987 O978 1.239 . S
C987 O979 1.256 . S
O988 Mn970 2.221 . S
O988 Mn972 2.290 . S
O988 C982 1.278 . S
O989 Mn972 2.251 . S
O989 C982 1.241 . S
O990 Mn991 2.163 . S
O990 C1004 1.244 . S
Mn991 O990 2.163 . S
Mn991 O994 2.160 . S
Mn991 O995 2.221 . S
Mn991 O997 2.163 . S
Mn991 O999 2.160 . S
Mn991 O1009 2.221 . S
O992 Mn993 2.087 . S
O992 C1004 1.256 . S
Mn993 O992 2.087 . S
Mn993 O1000 2.089 . S
Mn993 O1009 2.290 . S
Mn993 O1010 2.251 . S
O994 Mn991 2.160 . S
O994 C1005 1.239 . S
O995 Mn991 2.221 . S
O995 Mn996 2.290 . S
O995 C1006 1.278 . S
Mn996 O995 2.290 . S
Mn996 O998 2.089 . S
Mn996 O1001 2.251 . S
Mn996 O1002 2.087 . S
O997 Mn991 2.163 . S
O997 C1007 1.244 . S
O998 Mn996 2.089 . S
O998 C1005 1.256 . S
O999 Mn991 2.160 . S
O999 C1008 1.239 . S
O1000 Mn993 2.089 . S
O1000 C1008 1.256 . S
O1001 Mn996 2.251 . S
O1001 C1006 1.241 . S
O1002 Mn996 2.087 . S
O1002 C1007 1.256 . S
C1003 O1009 1.278 . S
C1003 O1010 1.241 . S
C1004 O990 1.244 . S
C1004 O992 1.256 . S
C1005 O994 1.239 . S
C1005 O998 1.256 . S
C1006 O995 1.278 . S
C1006 O1001 1.241 . S
C1007 O997 1.244 . S
C1007 O1002 1.256 . S
C1008 O999 1.239 . S
C1008 O1000 1.256 . S
O1009 Mn991 2.221 . S
O1009 Mn993 2.290 . S
O1009 C1003 1.278 . S
O1010 Mn993 2.251 . S
O1010 C1003 1.241 . S
O1011 Mn1012 2.163 . S
O1011 C1025 1.244 . S
Mn1012 O1011 2.163 . S
Mn1012 O1015 2.160 . S
Mn1012 O1016 2.221 . S
Mn1012 O1018 2.163 . S
Mn1012 O1020 2.160 . S
Mn1012 O1030 2.221 . S
O1013 Mn1014 2.087 . S
O1013 C1025 1.256 . S
Mn1014 O1013 2.087 . S
Mn1014 O1021 2.089 . S
Mn1014 O1030 2.290 . S
Mn1014 O1031 2.251 . S
O1015 Mn1012 2.160 . S
O1015 C1026 1.239 . S
O1016 Mn1012 2.221 . S
O1016 Mn1017 2.290 . S
O1016 C1027 1.278 . S
Mn1017 O1016 2.290 . S
Mn1017 O1019 2.089 . S
Mn1017 O1022 2.251 . S
Mn1017 O1023 2.087 . S
O1018 Mn1012 2.163 . S
O1018 C1028 1.244 . S
O1019 Mn1017 2.089 . S
O1019 C1026 1.256 . S
O1020 Mn1012 2.160 . S
O1020 C1029 1.239 . S
O1021 Mn1014 2.089 . S
O1021 C1029 1.256 . S
O1022 Mn1017 2.251 . S
O1022 C1027 1.241 . S
O1023 Mn1017 2.087 . S
O1023 C1028 1.256 . S
C1024 O1030 1.278 . S
C1024 O1031 1.241 . S
C1025 O1011 1.244 . S
C1025 O1013 1.256 . S
C1026 O1015 1.239 . S
C1026 O1019 1.256 . S
C1027 O1016 1.278 . S
C1027 O1022 1.241 . S
C1028 O1018 1.244 . S
C1028 O1023 1.256 . S
C1029 O1020 1.239 . S
C1029 O1021 1.256 . S
O1030 Mn1012 2.221 . S
O1030 Mn1014 2.290 . S
O1030 C1024 1.278 . S
O1031 Mn1014 2.251 . S
O1031 C1024 1.241 . S
O1032 Mn1033 2.163 . S
O1032 C1046 1.244 . S
Mn1033 O1032 2.163 . S
Mn1033 O1036 2.160 . S
Mn1033 O1037 2.221 . S
Mn1033 O1039 2.163 . S
Mn1033 O1041 2.160 . S
Mn1033 O1051 2.221 . S
O1034 Mn1035 2.087 . S
O1034 C1046 1.256 . S
Mn1035 O1034 2.087 . S
Mn1035 O1042 2.089 . S
Mn1035 O1051 2.290 . S
Mn1035 O1052 2.251 . S
O1036 Mn1033 2.160 . S
O1036 C1047 1.239 . S
O1037 Mn1033 2.221 . S
O1037 Mn1038 2.290 . S
O1037 C1048 1.278 . S
Mn1038 O1037 2.290 . S
Mn1038 O1040 2.089 . S
Mn1038 O1043 2.251 . S
Mn1038 O1044 2.087 . S
O1039 Mn1033 2.163 . S
O1039 C1049 1.244 . S
O1040 Mn1038 2.089 . S
O1040 C1047 1.256 . S
O1041 Mn1033 2.160 . S
O1041 C1050 1.239 . S
O1042 Mn1035 2.089 . S
O1042 C1050 1.256 . S
O1043 Mn1038 2.251 . S
O1043 C1048 1.241 . S
O1044 Mn1038 2.087 . S
O1044 C1049 1.256 . S
C1045 O1051 1.278 . S
C1045 O1052 1.241 . S
C1046 O1032 1.244 . S
C1046 O1034 1.256 . S
C1047 O1036 1.239 . S
C1047 O1040 1.256 . S
C1048 O1037 1.278 . S
C1048 O1043 1.241 . S
C1049 O1039 1.244 . S
C1049 O1044 1.256 . S
C1050 O1041 1.239 . S
C1050 O1042 1.256 . S
O1051 Mn1033 2.221 . S
O1051 Mn1035 2.290 . S
O1051 C1045 1.278 . S
O1052 Mn1035 2.251 . S
O1052 C1045 1.241 . S
O1053 Mn1054 2.163 . S
O1053 C1067 1.244 . S
Mn1054 O1053 2.163 . S
Mn1054 O1057 2.160 . S
Mn1054 O1058 2.221 . S
Mn1054 O1060 2.163 . S
Mn1054 O1062 2.160 . S
Mn1054 O1072 2.221 . S
O1055 Mn1056 2.087 . S
O1055 C1067 1.256 . S
Mn1056 O1055 2.087 . S
Mn1056 O1063 2.089 . S
Mn1056 O1072 2.290 . S
Mn1056 O1073 2.251 . S
O1057 Mn1054 2.160 . S
O1057 C1068 1.239 . S
O1058 Mn1054 2.221 . S
O1058 Mn1059 2.290 . S
O1058 C1069 1.278 . S
Mn1059 O1058 2.290 . S
Mn1059 O1061 2.089 . S
Mn1059 O1064 2.251 . S
Mn1059 O1065 2.087 . S
O1060 Mn1054 2.163 . S
O1060 C1070 1.244 . S
O1061 Mn1059 2.089 . S
O1061 C1068 1.256 . S
O1062 Mn1054 2.160 . S
O1062 C1071 1.239 . S
O1063 Mn1056 2.089 . S
O1063 C1071 1.256 . S
O1064 Mn1059 2.251 . S
O1064 C1069 1.241 . S
O1065 Mn1059 2.087 . S
O1065 C1070 1.256 . S
C1066 O1072 1.278 . S
C1066 O1073 1.241 . S
C1067 O1053 1.244 . S
C1067 O1055 1.256 . S
C1068 O1057 1.239 . S
C1068 O1061 1.256 . S
C1069 O1058 1.278 . S
C1069 O1064 1.241 . S
C1070 O1060 1.244 . S
C1070 O1065 1.256 . S
C1071 O1062 1.239 . S
C1071 O1063 1.256 . S
O1072 Mn1054 2.221 . S
O1072 Mn1056 2.290 . S
O1072 C1066 1.278 . S
O1073 Mn1056 2.251 . S
O1073 C1066 1.241 . S
O1074 Mn1075 2.163 . S
O1074 C1088 1.244 . S
Mn1075 O1074 2.163 . S
Mn1075 O1078 2.160 . S
Mn1075 O1079 2.221 . S
Mn1075 O1081 2.163 . S
Mn1075 O1083 2.160 . S
Mn1075 O1093 2.221 . S
O1076 Mn1077 2.087 . S
O1076 C1088 1.256 . S
Mn1077 O1076 2.087 . S
Mn1077 O1084 2.089 . S
Mn1077 O1093 2.290 . S
Mn1077 O1094 2.251 . S
O1078 Mn1075 2.160 . S
O1078 C1089 1.239 . S
O1079 Mn1075 2.221 . S
O1079 Mn1080 2.290 . S
O1079 C1090 1.278 . S
Mn1080 O1079 2.290 . S
Mn1080 O1082 2.089 . S
Mn1080 O1085 2.251 . S
Mn1080 O1086 2.087 . S
O1081 Mn1075 2.163 . S
O1081 C1091 1.244 . S
O1082 Mn1080 2.089 . S
O1082 C1089 1.256 . S
O1083 Mn1075 2.160 . S
O1083 C1092 1.239 . S
O1084 Mn1077 2.089 . S
O1084 C1092 1.256 . S
O1085 Mn1080 2.251 . S
O1085 C1090 1.241 . S
O1086 Mn1080 2.087 . S
O1086 C1091 1.256 . S
C1087 O1093 1.278 . S
C1087 O1094 1.241 . S
C1088 O1074 1.244 . S
C1088 O1076 1.256 . S
C1089 O1078 1.239 . S
C1089 O1082 1.256 . S
C1090 O1079 1.278 . S
C1090 O1085 1.241 . S
C1091 O1081 1.244 . S
C1091 O1086 1.256 . S
C1092 O1083 1.239 . S
C1092 O1084 1.256 . S
O1093 Mn1075 2.221 . S
O1093 Mn1077 2.290 . S
O1093 C1087 1.278 . S
O1094 Mn1077 2.251 . S
O1094 C1087 1.241 . S
O1095 Mn1096 2.163 . S
O1095 C1109 1.244 . S
Mn1096 O1095 2.163 . S
Mn1096 O1099 2.160 . S
Mn1096 O1100 2.221 . S
Mn1096 O1102 2.163 . S
Mn1096 O1104 2.160 . S
Mn1096 O1114 2.221 . S
O1097 Mn1098 2.087 . S
O1097 C1109 1.256 . S
Mn1098 O1097 2.087 . S
Mn1098 O1105 2.089 . S
Mn1098 O1114 2.290 . S
Mn1098 O1115 2.251 . S
O1099 Mn1096 2.160 . S
O1099 C1110 1.239 . S
O1100 Mn1096 2.221 . S
O1100 Mn1101 2.290 . S
O1100 C1111 1.278 . S
Mn1101 O1100 2.290 . S
Mn1101 O1103 2.089 . S
Mn1101 O1106 2.251 . S
Mn1101 O1107 2.087 . S
O1102 Mn1096 2.163 . S
O1102 C1112 1.244 . S
O1103 Mn1101 2.089 . S
O1103 C1110 1.256 . S
O1104 Mn1096 2.160 . S
O1104 C1113 1.239 . S
O1105 Mn1098 2.089 . S
O1105 C1113 1.256 . S
O1106 Mn1101 2.251 . S
O1106 C1111 1.241 . S
O1107 Mn1101 2.087 . S
O1107 C1112 1.256 . S
C1108 O1114 1.278 . S
C1108 O1115 1.241 . S
C1109 O1095 1.244 . S
C1109 O1097 1.256 . S
C1110 O1099 1.239 . S
C1110 O1103 1.256 . S
C1111 O1100 1.278 . S
C1111 O1106 1.241 . S
C1112 O1102 1.244 . S
C1112 O1107 1.256 . S
C1113 O1104 1.239 . S
C1113 O1105 1.256 . S
O1114 Mn1096 2.221 . S
O1114 Mn1098 2.290 . S
O1114 C1108 1.278 . S
O1115 Mn1098 2.251 . S
O1115 C1108 1.241 . S
O1116 Mn1117 2.163 . S
O1116 C1130 1.244 . S
Mn1117 O1116 2.163 . S
Mn1117 O1120 2.160 . S
Mn1117 O1121 2.221 . S
Mn1117 O1123 2.163 . S
Mn1117 O1125 2.160 . S
Mn1117 O1135 2.221 . S
O1118 Mn1119 2.087 . S
O1118 C1130 1.256 . S
Mn1119 O1118 2.087 . S
Mn1119 O1126 2.089 . S
Mn1119 O1135 2.290 . S
Mn1119 O1136 2.251 . S
O1120 Mn1117 2.160 . S
O1120 C1131 1.239 . S
O1121 Mn1117 2.221 . S
O1121 Mn1122 2.290 . S
O1121 C1132 1.278 . S
Mn1122 O1121 2.290 . S
Mn1122 O1124 2.089 . S
Mn1122 O1127 2.251 . S
Mn1122 O1128 2.087 . S
O1123 Mn1117 2.163 . S
O1123 C1133 1.244 . S
O1124 Mn1122 2.089 . S
O1124 C1131 1.256 . S
O1125 Mn1117 2.160 . S
O1125 C1134 1.239 . S
O1126 Mn1119 2.089 . S
O1126 C1134 1.256 . S
O1127 Mn1122 2.251 . S
O1127 C1132 1.241 . S
O1128 Mn1122 2.087 . S
O1128 C1133 1.256 . S
C1129 O1135 1.278 . S
C1129 O1136 1.241 . S
C1130 O1116 1.244 . S
C1130 O1118 1.256 . S
C1131 O1120 1.239 . S
C1131 O1124 1.256 . S
C1132 O1121 1.278 . S
C1132 O1127 1.241 . S
C1133 O1123 1.244 . S
C1133 O1128 1.256 . S
C1134 O1125 1.239 . S
C1134 O1126 1.256 . S
O1135 Mn1117 2.221 . S
O1135 Mn1119 2.290 . S
O1135 C1129 1.278 . S
O1136 Mn1119 2.251 . S
O1136 C1129 1.241 . S
O1137 Mn1138 2.163 . S
O1137 C1151 1.244 . S
Mn1138 O1137 2.163 . S
Mn1138 O1141 2.160 . S
Mn1138 O1142 2.221 . S
Mn1138 O1144 2.163 . S
Mn1138 O1146 2.160 . S
Mn1138 O1156 2.221 . S
O1139 Mn1140 2.087 . S
O1139 C1151 1.256 . S
Mn1140 O1139 2.087 . S
Mn1140 O1147 2.089 . S
Mn1140 O1156 2.290 . S
Mn1140 O1157 2.251 . S
O1141 Mn1138 2.160 . S
O1141 C1152 1.239 . S
O1142 Mn1138 2.221 . S
O1142 Mn1143 2.290 . S
O1142 C1153 1.278 . S
Mn1143 O1142 2.290 . S
Mn1143 O1145 2.089 . S
Mn1143 O1148 2.251 . S
Mn1143 O1149 2.087 . S
O1144 Mn1138 2.163 . S
O1144 C1154 1.244 . S
O1145 Mn1143 2.089 . S
O1145 C1152 1.256 . S
O1146 Mn1138 2.160 . S
O1146 C1155 1.239 . S
O1147 Mn1140 2.089 . S
O1147 C1155 1.256 . S
O1148 Mn1143 2.251 . S
O1148 C1153 1.241 . S
O1149 Mn1143 2.087 . S
O1149 C1154 1.256 . S
C1150 O1156 1.278 . S
C1150 O1157 1.241 . S
C1151 O1137 1.244 . S
C1151 O1139 1.256 . S
C1152 O1141 1.239 . S
C1152 O1145 1.256 . S
C1153 O1142 1.278 . S
C1153 O1148 1.241 . S
C1154 O1144 1.244 . S
C1154 O1149 1.256 . S
C1155 O1146 1.239 . S
C1155 O1147 1.256 . S
O1156 Mn1138 2.221 . S
O1156 Mn1140 2.290 . S
O1156 C1150 1.278 . S
O1157 Mn1140 2.251 . S
O1157 C1150 1.241 . S
O1158 Mn1159 2.163 . S
O1158 C1172 1.244 . S
Mn1159 O1158 2.163 . S
Mn1159 O1162 2.160 . S
Mn1159 O1163 2.221 . S
Mn1159 O1165 2.163 . S
Mn1159 O1167 2.160 . S
Mn1159 O1177 2.221 . S
O1160 Mn1161 2.087 . S
O1160 C1172 1.256 . S
Mn1161 O1160 2.087 . S
Mn1161 O1168 2.089 . S
Mn1161 O1177 2.290 . S
Mn1161 O1178 2.251 . S
O1162 Mn1159 2.160 . S
O1162 C1173 1.239 . S
O1163 Mn1159 2.221 . S
O1163 Mn1164 2.290 . S
O1163 C1174 1.278 . S
Mn1164 O1163 2.290 . S
Mn1164 O1166 2.089 . S
Mn1164 O1169 2.251 . S
Mn1164 O1170 2.087 . S
O1165 Mn1159 2.163 . S
O1165 C1175 1.244 . S
O1166 Mn1164 2.089 . S
O1166 C1173 1.256 . S
O1167 Mn1159 2.160 . S
O1167 C1176 1.239 . S
O1168 Mn1161 2.089 . S
O1168 C1176 1.256 . S
O1169 Mn1164 2.251 . S
O1169 C1174 1.241 . S
O1170 Mn1164 2.087 . S
O1170 C1175 1.256 . S
C1171 O1177 1.278 . S
C1171 O1178 1.241 . S
C1172 O1158 1.244 . S
C1172 O1160 1.256 . S
C1173 O1162 1.239 . S
C1173 O1166 1.256 . S
C1174 O1163 1.278 . S
C1174 O1169 1.241 . S
C1175 O1165 1.244 . S
C1175 O1170 1.256 . S
C1176 O1167 1.239 . S
C1176 O1168 1.256 . S
O1177 Mn1159 2.221 . S
O1177 Mn1161 2.290 . S
O1177 C1171 1.278 . S
O1178 Mn1161 2.251 . S
O1178 C1171 1.241 . S
O1179 Mn1180 2.163 . S
O1179 C1193 1.244 . S
Mn1180 O1179 2.163 . S
Mn1180 O1183 2.160 . S
Mn1180 O1184 2.221 . S
Mn1180 O1186 2.163 . S
Mn1180 O1188 2.160 . S
Mn1180 O1198 2.221 . S
O1181 Mn1182 2.087 . S
O1181 C1193 1.256 . S
Mn1182 O1181 2.087 . S
Mn1182 O1189 2.089 . S
Mn1182 O1198 2.290 . S
Mn1182 O1199 2.251 . S
O1183 Mn1180 2.160 . S
O1183 C1194 1.239 . S
O1184 Mn1180 2.221 . S
O1184 Mn1185 2.290 . S
O1184 C1195 1.278 . S
Mn1185 O1184 2.290 . S
Mn1185 O1187 2.089 . S
Mn1185 O1190 2.251 . S
Mn1185 O1191 2.087 . S
O1186 Mn1180 2.163 . S
O1186 C1196 1.244 . S
O1187 Mn1185 2.089 . S
O1187 C1194 1.256 . S
O1188 Mn1180 2.160 . S
O1188 C1197 1.239 . S
O1189 Mn1182 2.089 . S
O1189 C1197 1.256 . S
O1190 Mn1185 2.251 . S
O1190 C1195 1.241 . S
O1191 Mn1185 2.087 . S
O1191 C1196 1.256 . S
C1192 O1198 1.278 . S
C1192 O1199 1.241 . S
C1193 O1179 1.244 . S
C1193 O1181 1.256 . S
C1194 O1183 1.239 . S
C1194 O1187 1.256 . S
C1195 O1184 1.278 . S
C1195 O1190 1.241 . S
C1196 O1186 1.244 . S
C1196 O1191 1.256 . S
C1197 O1188 1.239 . S
C1197 O1189 1.256 . S
O1198 Mn1180 2.221 . S
O1198 Mn1182 2.290 . S
O1198 C1192 1.278 . S
O1199 Mn1182 2.251 . S
O1199 C1192 1.241 . S
C1200 C1201 1.349 . S
C1200 C1202 1.327 . S
C1200 H1225 0.950 . S
C1201 C1200 1.349 . S
C1201 C1217 1.349 . S
C1202 C1200 1.327 . S
C1202 C1221 1.429 . S
C1202 H1226 0.950 . S
C1203 C1220 1.574 . S
C1203 C1222 1.368 . S
C1203 H1227 0.949 . S
H1204 C1208 0.949 . S
C1205 C1206 1.349 . S
C1205 C1207 1.327 . S
C1205 H1228 0.950 . S
C1206 C1205 1.349 . S
C1206 C1218 1.349 . S
C1207 C1205 1.327 . S
C1207 C1223 1.429 . S
C1207 H1229 0.950 . S
C1208 H1204 0.949 . S
C1208 C1216 1.574 . S
C1208 C1224 1.368 . S
H1209 C1217 0.950 . S
H1210 C1215 0.950 . S
H1211 C1216 0.949 . S
H1212 C1218 0.950 . S
H1213 C1219 0.950 . S
H1214 C1220 0.949 . S
C1215 H1210 0.950 . S
C1215 C1217 1.327 . S
C1215 C1221 1.429 . S
C1216 C1208 1.574 . S
C1216 H1211 0.949 . S
C1216 C1222 1.368 . S
C1217 C1201 1.349 . S
C1217 H1209 0.950 . S
C1217 C1215 1.327 . S
C1218 C1206 1.349 . S
C1218 H1212 0.950 . S
C1218 C1219 1.327 . S
C1219 H1213 0.950 . S
C1219 C1218 1.327 . S
C1219 C1223 1.429 . S
C1220 C1203 1.574 . S
C1220 H1214 0.949 . S
C1220 C1224 1.368 . S
C1221 C1202 1.429 . S
C1221 C1215 1.429 . S
C1221 C1222 1.523 . S
C1222 C1203 1.368 . S
C1222 C1216 1.368 . S
C1222 C1221 1.523 . S
C1223 C1207 1.429 . S
C1223 C1219 1.429 . S
C1223 C1224 1.523 . S
C1224 C1208 1.368 . S
C1224 C1220 1.368 . S
C1224 C1223 1.523 . S
H1225 C1200 0.950 . S
H1226 C1202 0.950 . S
H1227 C1203 0.949 . S
H1228 C1205 0.950 . S
H1229 C1207 0.950 . S
C1230 C1231 1.349 . S
C1230 C1232 1.327 . S
C1230 H1255 0.950 . S
C1231 C1230 1.349 . S
C1231 C1247 1.349 . S
C1232 C1230 1.327 . S
C1232 C1251 1.429 . S
C1232 H1256 0.950 . S
C1233 C1250 1.574 . S
C1233 C1252 1.368 . S
C1233 H1257 0.949 . S
H1234 C1238 0.949 . S
C1235 C1236 1.349 . S
C1235 C1237 1.327 . S
C1235 H1258 0.950 . S
C1236 C1235 1.349 . S
C1236 C1248 1.349 . S
C1237 C1235 1.327 . S
C1237 C1253 1.429 . S
C1237 H1259 0.950 . S
C1238 H1234 0.949 . S
C1238 C1246 1.574 . S
C1238 C1254 1.368 . S
H1239 C1247 0.950 . S
H1240 C1245 0.950 . S
H1241 C1246 0.949 . S
H1242 C1248 0.950 . S
H1243 C1249 0.950 . S
H1244 C1250 0.949 . S
C1245 H1240 0.950 . S
C1245 C1247 1.327 . S
C1245 C1251 1.429 . S
C1246 C1238 1.574 . S
C1246 H1241 0.949 . S
C1246 C1252 1.368 . S
C1247 C1231 1.349 . S
C1247 H1239 0.950 . S
C1247 C1245 1.327 . S
C1248 C1236 1.349 . S
C1248 H1242 0.950 . S
C1248 C1249 1.327 . S
C1249 H1243 0.950 . S
C1249 C1248 1.327 . S
C1249 C1253 1.429 . S
C1250 C1233 1.574 . S
C1250 H1244 0.949 . S
C1250 C1254 1.368 . S
C1251 C1232 1.429 . S
C1251 C1245 1.429 . S
C1251 C1252 1.523 . S
C1252 C1233 1.368 . S
C1252 C1246 1.368 . S
C1252 C1251 1.523 . S
C1253 C1237 1.429 . S
C1253 C1249 1.429 . S
C1253 C1254 1.523 . S
C1254 C1238 1.368 . S
C1254 C1250 1.368 . S
C1254 C1253 1.523 . S
H1255 C1230 0.950 . S
H1256 C1232 0.950 . S
H1257 C1233 0.949 . S
H1258 C1235 0.950 . S
H1259 C1237 0.950 . S
C1260 C1261 1.349 . S
C1260 C1262 1.327 . S
C1260 H1285 0.950 . S
C1261 C1260 1.349 . S
C1261 C1277 1.349 . S
C1262 C1260 1.327 . S
C1262 C1281 1.429 . S
C1262 H1286 0.950 . S
C1263 C1280 1.574 . S
C1263 C1282 1.368 . S
C1263 H1287 0.949 . S
H1264 C1268 0.949 . S
C1265 C1266 1.349 . S
C1265 C1267 1.327 . S
C1265 H1288 0.950 . S
C1266 C1265 1.349 . S
C1266 C1278 1.349 . S
C1267 C1265 1.327 . S
C1267 C1283 1.429 . S
C1267 H1289 0.950 . S
C1268 H1264 0.949 . S
C1268 C1276 1.574 . S
C1268 C1284 1.368 . S
H1269 C1277 0.950 . S
H1270 C1275 0.950 . S
H1271 C1276 0.949 . S
H1272 C1278 0.950 . S
H1273 C1279 0.950 . S
H1274 C1280 0.949 . S
C1275 H1270 0.950 . S
C1275 C1277 1.327 . S
C1275 C1281 1.429 . S
C1276 C1268 1.574 . S
C1276 H1271 0.949 . S
C1276 C1282 1.368 . S
C1277 C1261 1.349 . S
C1277 H1269 0.950 . S
C1277 C1275 1.327 . S
C1278 C1266 1.349 . S
C1278 H1272 0.950 . S
C1278 C1279 1.327 . S
C1279 H1273 0.950 . S
C1279 C1278 1.327 . S
C1279 C1283 1.429 . S
C1280 C1263 1.574 . S
C1280 H1274 0.949 . S
C1280 C1284 1.368 . S
C1281 C1262 1.429 . S
C1281 C1275 1.429 . S
C1281 C1282 1.523 . S
C1282 C1263 1.368 . S
C1282 C1276 1.368 . S
C1282 C1281 1.523 . S
C1283 C1267 1.429 . S
C1283 C1279 1.429 . S
C1283 C1284 1.523 . S
C1284 C1268 1.368 . S
C1284 C1280 1.368 . S
C1284 C1283 1.523 . S
H1285 C1260 0.950 . S
H1286 C1262 0.950 . S
H1287 C1263 0.949 . S
H1288 C1265 0.950 . S
H1289 C1267 0.950 . S
C1290 C1291 1.349 . S
C1290 C1292 1.327 . S
C1290 H1315 0.950 . S
C1291 C1290 1.349 . S
C1291 C1307 1.349 . S
C1292 C1290 1.327 . S
C1292 C1311 1.429 . S
C1292 H1316 0.950 . S
C1293 C1310 1.574 . S
C1293 C1312 1.368 . S
C1293 H1317 0.949 . S
H1294 C1298 0.949 . S
C1295 C1296 1.349 . S
C1295 C1297 1.327 . S
C1295 H1318 0.950 . S
C1296 C1295 1.349 . S
C1296 C1308 1.349 . S
C1297 C1295 1.327 . S
C1297 C1313 1.429 . S
C1297 H1319 0.950 . S
C1298 H1294 0.949 . S
C1298 C1306 1.574 . S
C1298 C1314 1.368 . S
H1299 C1307 0.950 . S
H1300 C1305 0.950 . S
H1301 C1306 0.949 . S
H1302 C1308 0.950 . S
H1303 C1309 0.950 . S
H1304 C1310 0.949 . S
C1305 H1300 0.950 . S
C1305 C1307 1.327 . S
C1305 C1311 1.429 . S
C1306 C1298 1.574 . S
C1306 H1301 0.949 . S
C1306 C1312 1.368 . S
C1307 C1291 1.349 . S
C1307 H1299 0.950 . S
C1307 C1305 1.327 . S
C1308 C1296 1.349 . S
C1308 H1302 0.950 . S
C1308 C1309 1.327 . S
C1309 H1303 0.950 . S
C1309 C1308 1.327 . S
C1309 C1313 1.429 . S
C1310 C1293 1.574 . S
C1310 H1304 0.949 . S
C1310 C1314 1.368 . S
C1311 C1292 1.429 . S
C1311 C1305 1.429 . S
C1311 C1312 1.523 . S
C1312 C1293 1.368 . S
C1312 C1306 1.368 . S
C1312 C1311 1.523 . S
C1313 C1297 1.429 . S
C1313 C1309 1.429 . S
C1313 C1314 1.523 1_556 S
C1314 C1298 1.368 . S
C1314 C1310 1.368 . S
C1314 C1313 1.523 1_554 S
H1315 C1290 0.950 . S
H1316 C1292 0.950 . S
H1317 C1293 0.949 . S
H1318 C1295 0.950 . S
H1319 C1297 0.950 . S
C1320 C1321 1.349 . S
C1320 C1322 1.327 . S
C1320 H1345 0.950 . S
C1321 C1320 1.349 . S
C1321 C1337 1.349 . S
C1322 C1320 1.327 . S
C1322 C1341 1.429 . S
C1322 H1346 0.950 . S
C1323 C1340 1.574 . S
C1323 C1342 1.368 . S
C1323 H1347 0.949 . S
H1324 C1328 0.949 . S
C1325 C1326 1.349 . S
C1325 C1327 1.327 . S
C1325 H1348 0.950 . S
C1326 C1325 1.349 . S
C1326 C1338 1.349 . S
C1327 C1325 1.327 . S
C1327 C1343 1.429 . S
C1327 H1349 0.950 . S
C1328 H1324 0.949 . S
C1328 C1336 1.574 . S
C1328 C1344 1.368 . S
H1329 C1337 0.950 . S
H1330 C1335 0.950 . S
H1331 C1336 0.949 . S
H1332 C1338 0.950 . S
H1333 C1339 0.950 . S
H1334 C1340 0.949 . S
C1335 H1330 0.950 . S
C1335 C1337 1.327 . S
C1335 C1341 1.429 . S
C1336 C1328 1.574 . S
C1336 H1331 0.949 . S
C1336 C1342 1.368 . S
C1337 C1321 1.349 . S
C1337 H1329 0.950 . S
C1337 C1335 1.327 . S
C1338 C1326 1.349 . S
C1338 H1332 0.950 . S
C1338 C1339 1.327 . S
C1339 H1333 0.950 . S
C1339 C1338 1.327 . S
C1339 C1343 1.429 . S
C1340 C1323 1.574 . S
C1340 H1334 0.949 . S
C1340 C1344 1.368 . S
C1341 C1322 1.429 . S
C1341 C1335 1.429 . S
C1341 C1342 1.523 . S
C1342 C1323 1.368 . S
C1342 C1336 1.368 . S
C1342 C1341 1.523 . S
C1343 C1327 1.429 . S
C1343 C1339 1.429 . S
C1343 C1344 1.523 . S
C1344 C1328 1.368 . S
C1344 C1340 1.368 . S
C1344 C1343 1.523 . S
H1345 C1320 0.950 . S
H1346 C1322 0.950 . S
H1347 C1323 0.949 . S
H1348 C1325 0.950 . S
H1349 C1327 0.950 . S
C1350 C1351 1.349 . S
C1350 C1352 1.327 . S
C1350 H1375 0.950 . S
C1351 C1350 1.349 . S
C1351 C1367 1.349 . S
C1352 C1350 1.327 . S
C1352 C1371 1.429 . S
C1352 H1376 0.950 . S
C1353 C1370 1.574 . S
C1353 C1372 1.368 . S
C1353 H1377 0.949 . S
H1354 C1358 0.949 . S
C1355 C1356 1.349 . S
C1355 C1357 1.327 . S
C1355 H1378 0.950 . S
C1356 C1355 1.349 . S
C1356 C1368 1.349 . S
C1357 C1355 1.327 . S
C1357 C1373 1.429 . S
C1357 H1379 0.950 . S
C1358 H1354 0.949 . S
C1358 C1366 1.574 . S
C1358 C1374 1.368 . S
H1359 C1367 0.950 . S
H1360 C1365 0.950 . S
H1361 C1366 0.949 . S
H1362 C1368 0.950 . S
H1363 C1369 0.950 . S
H1364 C1370 0.949 . S
C1365 H1360 0.950 . S
C1365 C1367 1.327 . S
C1365 C1371 1.429 . S
C1366 C1358 1.574 . S
C1366 H1361 0.949 . S
C1366 C1372 1.368 . S
C1367 C1351 1.349 . S
C1367 H1359 0.950 . S
C1367 C1365 1.327 . S
C1368 C1356 1.349 . S
C1368 H1362 0.950 . S
C1368 C1369 1.327 . S
C1369 H1363 0.950 . S
C1369 C1368 1.327 . S
C1369 C1373 1.429 . S
C1370 C1353 1.574 . S
C1370 H1364 0.949 . S
C1370 C1374 1.368 . S
C1371 C1352 1.429 . S
C1371 C1365 1.429 . S
C1371 C1372 1.523 . S
C1372 C1353 1.368 . S
C1372 C1366 1.368 . S
C1372 C1371 1.523 . S
C1373 C1357 1.429 . S
C1373 C1369 1.429 . S
C1373 C1374 1.523 . S
C1374 C1358 1.368 . S
C1374 C1370 1.368 . S
C1374 C1373 1.523 . S
H1375 C1350 0.950 . S
H1376 C1352 0.950 . S
H1377 C1353 0.949 . S
H1378 C1355 0.950 . S
H1379 C1357 0.950 . S
C1380 C1381 1.349 . S
C1380 C1382 1.327 . S
C1380 H1405 0.950 . S
C1381 C1380 1.349 . S
C1381 C1397 1.349 . S
C1382 C1380 1.327 . S
C1382 C1401 1.429 . S
C1382 H1406 0.950 . S
C1383 C1400 1.574 . S
C1383 C1402 1.368 . S
C1383 H1407 0.949 . S
H1384 C1388 0.949 . S
C1385 C1386 1.349 . S
C1385 C1387 1.327 . S
C1385 H1408 0.950 . S
C1386 C1385 1.349 . S
C1386 C1398 1.349 . S
C1387 C1385 1.327 . S
C1387 C1403 1.429 . S
C1387 H1409 0.950 . S
C1388 H1384 0.949 . S
C1388 C1396 1.574 . S
C1388 C1404 1.368 . S
H1389 C1397 0.950 . S
H1390 C1395 0.950 . S
H1391 C1396 0.949 . S
H1392 C1398 0.950 . S
H1393 C1399 0.950 . S
H1394 C1400 0.949 . S
C1395 H1390 0.950 . S
C1395 C1397 1.327 . S
C1395 C1401 1.429 . S
C1396 C1388 1.574 . S
C1396 H1391 0.949 . S
C1396 C1402 1.368 . S
C1397 C1381 1.349 . S
C1397 H1389 0.950 . S
C1397 C1395 1.327 . S
C1398 C1386 1.349 . S
C1398 H1392 0.950 . S
C1398 C1399 1.327 . S
C1399 H1393 0.950 . S
C1399 C1398 1.327 . S
C1399 C1403 1.429 . S
C1400 C1383 1.574 . S
C1400 H1394 0.949 . S
C1400 C1404 1.368 . S
C1401 C1382 1.429 . S
C1401 C1395 1.429 . S
C1401 C1402 1.523 . S
C1402 C1383 1.368 . S
C1402 C1396 1.368 . S
C1402 C1401 1.523 . S
C1403 C1387 1.429 . S
C1403 C1399 1.429 . S
C1403 C1404 1.523 . S
C1404 C1388 1.368 . S
C1404 C1400 1.368 . S
C1404 C1403 1.523 . S
H1405 C1380 0.950 . S
H1406 C1382 0.950 . S
H1407 C1383 0.949 . S
H1408 C1385 0.950 . S
H1409 C1387 0.950 . S
C1410 C1411 1.349 . S
C1410 C1412 1.327 . S
C1410 H1435 0.950 . S
C1411 C1410 1.349 . S
C1411 C1427 1.349 . S
C1412 C1410 1.327 . S
C1412 C1431 1.429 . S
C1412 H1436 0.950 . S
C1413 C1430 1.574 . S
C1413 C1432 1.368 . S
C1413 H1437 0.949 . S
H1414 C1418 0.949 . S
C1415 C1416 1.349 . S
C1415 C1417 1.327 . S
C1415 H1438 0.950 . S
C1416 C1415 1.349 . S
C1416 C1428 1.349 . S
C1417 C1415 1.327 . S
C1417 C1433 1.429 . S
C1417 H1439 0.950 . S
C1418 H1414 0.949 . S
C1418 C1426 1.574 . S
C1418 C1434 1.368 . S
H1419 C1427 0.950 . S
H1420 C1425 0.950 . S
H1421 C1426 0.949 1_556 S
H1422 C1428 0.950 . S
H1423 C1429 0.950 . S
H1424 C1430 0.949 . S
C1425 H1420 0.950 . S
C1425 C1427 1.327 . S
C1425 C1431 1.429 . S
C1426 C1418 1.574 . S
C1426 H1421 0.949 1_554 S
C1426 C1432 1.368 . S
C1427 C1411 1.349 . S
C1427 H1419 0.950 . S
C1427 C1425 1.327 . S
C1428 C1416 1.349 . S
C1428 H1422 0.950 . S
C1428 C1429 1.327 . S
C1429 H1423 0.950 . S
C1429 C1428 1.327 . S
C1429 C1433 1.429 . S
C1430 C1413 1.574 . S
C1430 H1424 0.949 . S
C1430 C1434 1.368 . S
C1431 C1412 1.429 . S
C1431 C1425 1.429 . S
C1431 C1432 1.523 1_556 S
C1432 C1413 1.368 . S
C1432 C1426 1.368 . S
C1432 C1431 1.523 1_554 S
C1433 C1417 1.429 . S
C1433 C1429 1.429 . S
C1433 C1434 1.523 . S
C1434 C1418 1.368 . S
C1434 C1430 1.368 . S
C1434 C1433 1.523 . S
H1435 C1410 0.950 . S
H1436 C1412 0.950 . S
H1437 C1413 0.949 . S
H1438 C1415 0.950 . S
H1439 C1417 0.950 . S
C1440 C1441 1.349 . S
C1440 C1442 1.327 . S
C1440 H1465 0.950 . S
C1441 C1440 1.349 . S
C1441 C1457 1.349 . S
C1442 C1440 1.327 . S
C1442 C1461 1.429 . S
C1442 H1466 0.950 . S
C1443 C1460 1.574 . S
C1443 C1462 1.368 . S
C1443 H1467 0.949 . S
H1444 C1448 0.949 . S
C1445 C1446 1.349 . S
C1445 C1447 1.327 . S
C1445 H1468 0.950 . S
C1446 C1445 1.349 . S
C1446 C1458 1.349 . S
C1447 C1445 1.327 . S
C1447 C1463 1.429 . S
C1447 H1469 0.950 . S
C1448 H1444 0.949 . S
C1448 C1456 1.574 . S
C1448 C1464 1.368 . S
H1449 C1457 0.950 . S
H1450 C1455 0.950 . S
H1451 C1456 0.949 . S
H1452 C1458 0.950 . S
H1453 C1459 0.950 . S
H1454 C1460 0.949 . S
C1455 H1450 0.950 . S
C1455 C1457 1.327 . S
C1455 C1461 1.429 . S
C1456 C1448 1.574 . S
C1456 H1451 0.949 . S
C1456 C1462 1.368 . S
C1457 C1441 1.349 . S
C1457 H1449 0.950 . S
C1457 C1455 1.327 . S
C1458 C1446 1.349 . S
C1458 H1452 0.950 . S
C1458 C1459 1.327 . S
C1459 H1453 0.950 . S
C1459 C1458 1.327 . S
C1459 C1463 1.429 . S
C1460 C1443 1.574 . S
C1460 H1454 0.949 . S
C1460 C1464 1.368 . S
C1461 C1442 1.429 . S
C1461 C1455 1.429 . S
C1461 C1462 1.523 . S
C1462 C1443 1.368 . S
C1462 C1456 1.368 . S
C1462 C1461 1.523 . S
C1463 C1447 1.429 . S
C1463 C1459 1.429 . S
C1463 C1464 1.523 . S
C1464 C1448 1.368 . S
C1464 C1460 1.368 . S
C1464 C1463 1.523 . S
H1465 C1440 0.950 . S
H1466 C1442 0.950 . S
H1467 C1443 0.949 . S
H1468 C1445 0.950 . S
H1469 C1447 0.950 . S
C1470 C1471 1.349 . S
C1470 C1472 1.327 . S
C1470 H1495 0.950 . S
C1471 C1470 1.349 . S
C1471 C1487 1.349 . S
C1472 C1470 1.327 . S
C1472 C1491 1.429 . S
C1472 H1496 0.950 . S
C1473 C1490 1.574 . S
C1473 C1492 1.368 . S
C1473 H1497 0.949 . S
H1474 C1478 0.949 . S
C1475 C1476 1.349 . S
C1475 C1477 1.327 . S
C1475 H1498 0.950 . S
C1476 C1475 1.349 . S
C1476 C1488 1.349 . S
C1477 C1475 1.327 . S
C1477 C1493 1.429 . S
C1477 H1499 0.950 . S
C1478 H1474 0.949 . S
C1478 C1486 1.574 . S
C1478 C1494 1.368 . S
H1479 C1487 0.950 . S
H1480 C1485 0.950 . S
H1481 C1486 0.949 . S
H1482 C1488 0.950 . S
H1483 C1489 0.948 1_545 S
H1484 C1490 0.949 . S
C1485 H1480 0.950 . S
C1485 C1487 1.327 . S
C1485 C1491 1.429 . S
C1486 C1478 1.574 . S
C1486 H1481 0.949 . S
C1486 C1492 1.368 . S
C1487 C1471 1.349 . S
C1487 H1479 0.950 . S
C1487 C1485 1.327 . S
C1488 C1476 1.349 . S
C1488 H1482 0.950 . S
C1488 C1489 1.327 . S
C1489 H1483 0.948 1_565 S
C1489 C1488 1.327 . S
C1489 C1493 1.429 . S
C1490 C1473 1.574 . S
C1490 H1484 0.949 . S
C1490 C1494 1.368 . S
C1491 C1472 1.429 . S
C1491 C1485 1.429 . S
C1491 C1492 1.523 . S
C1492 C1473 1.368 . S
C1492 C1486 1.368 . S
C1492 C1491 1.523 . S
C1493 C1477 1.429 . S
C1493 C1489 1.429 . S
C1493 C1494 1.523 1_565 S
C1494 C1478 1.368 . S
C1494 C1490 1.368 . S
C1494 C1493 1.523 1_545 S
H1495 C1470 0.950 . S
H1496 C1472 0.950 . S
H1497 C1473 0.949 . S
H1498 C1475 0.950 . S
H1499 C1477 0.950 . S
C1500 C1501 1.349 . S
C1500 C1502 1.327 . S
C1500 H1525 0.950 . S
C1501 C1500 1.349 . S
C1501 C1517 1.349 . S
C1502 C1500 1.327 . S
C1502 C1521 1.429 . S
C1502 H1526 0.950 . S
C1503 C1520 1.574 . S
C1503 C1522 1.368 . S
C1503 H1527 0.949 . S
H1504 C1508 0.949 1_545 S
C1505 C1506 1.349 . S
C1505 C1507 1.327 . S
C1505 H1528 0.950 . S
C1506 C1505 1.349 . S
C1506 C1518 1.349 . S
C1507 C1505 1.327 . S
C1507 C1523 1.429 . S
C1507 H1529 0.950 . S
C1508 H1504 0.949 1_565 S
C1508 C1516 1.574 1_565 S
C1508 C1524 1.368 . S
H1509 C1517 0.950 1_565 S
H1510 C1515 0.950 . S
H1511 C1516 0.949 . S
H1512 C1518 0.950 . S
H1513 C1519 0.950 . S
H1514 C1520 0.949 . S
C1515 H1510 0.950 . S
C1515 C1517 1.327 1_565 S
C1515 C1521 1.429 1_565 S
C1516 C1508 1.574 1_545 S
C1516 H1511 0.949 . S
C1516 C1522 1.368 1_545 S
C1517 C1501 1.349 . S
C1517 H1509 0.950 1_545 S
C1517 C1515 1.327 1_545 S
C1518 C1506 1.349 . S
C1518 H1512 0.950 . S
C1518 C1519 1.327 . S
C1519 H1513 0.950 . S
C1519 C1518 1.327 . S
C1519 C1523 1.429 . S
C1520 C1503 1.574 . S
C1520 H1514 0.949 . S
C1520 C1524 1.368 . S
C1521 C1502 1.429 . S
C1521 C1515 1.429 1_545 S
C1521 C1522 1.523 1_545 S
C1522 C1503 1.368 . S
C1522 C1516 1.368 1_565 S
C1522 C1521 1.523 1_565 S
C1523 C1507 1.429 . S
C1523 C1519 1.429 . S
C1523 C1524 1.523 . S
C1524 C1508 1.368 . S
C1524 C1520 1.368 . S
C1524 C1523 1.523 . S
H1525 C1500 0.950 . S
H1526 C1502 0.950 . S
H1527 C1503 0.949 . S
H1528 C1505 0.950 . S
H1529 C1507 0.950 . S
C1530 C1531 1.323 1_556 S
C1530 C1532 1.327 . S
C1530 H1555 0.950 . S
C1531 C1530 1.323 1_554 S
C1531 C1547 1.361 . S
C1532 C1530 1.327 . S
C1532 C1551 1.429 1_565 S
C1532 H1556 0.950 1_565 S
C1533 C1550 1.574 . S
C1533 C1552 1.368 . S
C1533 H1557 0.949 . S
H1534 C1538 0.949 . S
C1535 C1536 1.349 . S
C1535 C1537 1.327 . S
C1535 H1558 0.950 . S
C1536 C1535 1.349 . S
C1536 C1548 1.349 . S
C1537 C1535 1.327 . S
C1537 C1553 1.429 . S
C1537 H1559 0.950 . S
C1538 H1534 0.949 . S
C1538 C1546 1.574 . S
C1538 C1554 1.368 . S
H1539 C1547 0.950 . S
H1540 C1545 0.951 . S
H1541 C1546 0.949 . S
H1542 C1548 0.950 . S
H1543 C1549 0.950 . S
H1544 C1550 0.949 . S
C1545 H1540 0.951 . S
C1545 C1547 1.329 . S
C1545 C1551 1.425 1_564 S
C1546 C1538 1.574 . S
C1546 H1541 0.949 . S
C1546 C1552 1.368 . S
C1547 C1531 1.361 . S
C1547 H1539 0.950 . S
C1547 C1545 1.329 . S
C1548 C1536 1.349 . S
C1548 H1542 0.950 . S
C1548 C1549 1.327 . S
C1549 H1543 0.950 . S
C1549 C1548 1.327 . S
C1549 C1553 1.429 . S
C1550 C1533 1.574 . S
C1550 H1544 0.949 . S
C1550 C1554 1.368 . S
C1551 C1532 1.429 1_545 S
C1551 C1545 1.425 1_546 S
C1551 C1552 1.523 . S
C1552 C1533 1.368 . S
C1552 C1546 1.368 . S
C1552 C1551 1.523 . S
C1553 C1537 1.429 . S
C1553 C1549 1.429 . S
C1553 C1554 1.523 . S
C1554 C1538 1.368 . S
C1554 C1550 1.368 . S
C1554 C1553 1.523 . S
H1555 C1530 0.950 . S
H1556 C1532 0.950 1_545 S
H1557 C1533 0.949 . S
H1558 C1535 0.950 . S
H1559 C1537 0.950 . S
C1560 C1561 1.349 . S
C1560 C1562 1.327 . S
C1560 H1585 0.950 . S
C1561 C1560 1.349 . S
C1561 C1577 1.349 . S
C1562 C1560 1.327 . S
C1562 C1581 1.429 . S
C1562 H1586 0.950 . S
C1563 C1580 1.574 . S
C1563 C1582 1.368 . S
C1563 H1587 0.949 . S
H1564 C1568 0.949 . S
C1565 C1566 1.349 . S
C1565 C1567 1.327 . S
C1565 H1588 0.950 . S
C1566 C1565 1.349 . S
C1566 C1578 1.349 . S
C1567 C1565 1.327 . S
C1567 C1583 1.429 . S
C1567 H1589 0.950 . S
C1568 H1564 0.949 . S
C1568 C1576 1.574 . S
C1568 C1584 1.368 . S
H1569 C1577 0.950 . S
H1570 C1575 0.950 . S
H1571 C1576 0.949 . S
H1572 C1578 0.950 . S
H1573 C1579 0.950 . S
H1574 C1580 0.949 . S
C1575 H1570 0.950 . S
C1575 C1577 1.327 . S
C1575 C1581 1.429 . S
C1576 C1568 1.574 . S
C1576 H1571 0.949 . S
C1576 C1582 1.368 . S
C1577 C1561 1.349 . S
C1577 H1569 0.950 . S
C1577 C1575 1.327 . S
C1578 C1566 1.349 . S
C1578 H1572 0.950 . S
C1578 C1579 1.327 . S
C1579 H1573 0.950 . S
C1579 C1578 1.327 . S
C1579 C1583 1.429 . S
C1580 C1563 1.574 . S
C1580 H1574 0.949 . S
C1580 C1584 1.368 . S
C1581 C1562 1.429 . S
C1581 C1575 1.429 . S
C1581 C1582 1.523 . S
C1582 C1563 1.368 . S
C1582 C1576 1.368 . S
C1582 C1581 1.523 . S
C1583 C1567 1.429 . S
C1583 C1579 1.429 . S
C1583 C1584 1.523 . S
C1584 C1568 1.368 . S
C1584 C1580 1.368 . S
C1584 C1583 1.523 . S
H1585 C1560 0.950 . S
H1586 C1562 0.950 . S
H1587 C1563 0.949 . S
H1588 C1565 0.950 . S
H1589 C1567 0.950 . S
C1590 C1591 1.349 . S
C1590 C1592 1.327 . S
C1590 H1615 0.950 . S
C1591 C1590 1.349 . S
C1591 C1607 1.349 . S
C1592 C1590 1.327 . S
C1592 C1611 1.429 . S
C1592 H1616 0.950 . S
C1593 C1610 1.574 . S
C1593 C1612 1.368 . S
C1593 H1617 0.949 . S
H1594 C1598 0.949 . S
C1595 C1596 1.349 . S
C1595 C1597 1.327 . S
C1595 H1618 0.950 . S
C1596 C1595 1.349 . S
C1596 C1608 1.349 . S
C1597 C1595 1.327 . S
C1597 C1613 1.429 1_565 S
C1597 H1619 0.950 . S
C1598 H1594 0.949 . S
C1598 C1606 1.574 . S
C1598 C1614 1.368 . S
H1599 C1607 0.950 . S
H1600 C1605 0.950 . S
H1601 C1606 0.949 . S
H1602 C1608 0.950 . S
H1603 C1609 0.950 . S
H1604 C1610 0.949 . S
C1605 H1600 0.950 . S
C1605 C1607 1.327 . S
C1605 C1611 1.429 . S
C1606 C1598 1.574 . S
C1606 H1601 0.949 . S
C1606 C1612 1.368 . S
C1607 C1591 1.349 . S
C1607 H1599 0.950 . S
C1607 C1605 1.327 . S
C1608 C1596 1.349 . S
C1608 H1602 0.950 . S
C1608 C1609 1.327 1_565 S
C1609 H1603 0.950 . S
C1609 C1608 1.327 1_545 S
C1609 C1613 1.429 . S
C1610 C1593 1.574 . S
C1610 H1604 0.949 . S
C1610 C1614 1.368 . S
C1611 C1592 1.429 . S
C1611 C1605 1.429 . S
C1611 C1612 1.523 . S
C1612 C1593 1.368 . S
C1612 C1606 1.368 . S
C1612 C1611 1.523 . S
C1613 C1597 1.429 1_545 S
C1613 C1609 1.429 . S
C1613 C1614 1.523 . S
C1614 C1598 1.368 . S
C1614 C1610 1.368 . S
C1614 C1613 1.523 . S
H1615 C1590 0.950 . S
H1616 C1592 0.950 . S
H1617 C1593 0.949 . S
H1618 C1595 0.950 . S
H1619 C1597 0.950 . S
C1620 C1621 1.349 . S
C1620 C1622 1.327 . S
C1620 H1645 0.950 . S
C1621 C1620 1.349 . S
C1621 C1637 1.349 . S
C1622 C1620 1.327 . S
C1622 C1641 1.429 . S
C1622 H1646 0.950 . S
C1623 C1640 1.574 . S
C1623 C1642 1.368 . S
C1623 H1647 0.949 . S
H1624 C1628 0.949 . S
C1625 C1626 1.349 . S
C1625 C1627 1.327 . S
C1625 H1648 0.950 . S
C1626 C1625 1.349 . S
C1626 C1638 1.349 . S
C1627 C1625 1.327 . S
C1627 C1643 1.429 . S
C1627 H1649 0.950 . S
C1628 H1624 0.949 . S
C1628 C1636 1.574 . S
C1628 C1644 1.368 . S
H1629 C1637 0.950 . S
H1630 C1635 0.950 . S
H1631 C1636 0.949 . S
H1632 C1638 0.950 . S
H1633 C1639 0.950 . S
H1634 C1640 0.949 . S
C1635 H1630 0.950 . S
C1635 C1637 1.327 . S
C1635 C1641 1.429 . S
C1636 C1628 1.574 . S
C1636 H1631 0.949 . S
C1636 C1642 1.368 . S
C1637 C1621 1.349 . S
C1637 H1629 0.950 . S
C1637 C1635 1.327 . S
C1638 C1626 1.349 . S
C1638 H1632 0.950 . S
C1638 C1639 1.327 . S
C1639 H1633 0.950 . S
C1639 C1638 1.327 . S
C1639 C1643 1.429 . S
C1640 C1623 1.574 . S
C1640 H1634 0.949 . S
C1640 C1644 1.368 . S
C1641 C1622 1.429 . S
C1641 C1635 1.429 . S
C1641 C1642 1.523 . S
C1642 C1623 1.368 . S
C1642 C1636 1.368 . S
C1642 C1641 1.523 . S
C1643 C1627 1.429 . S
C1643 C1639 1.429 . S
C1643 C1644 1.523 . S
C1644 C1628 1.368 . S
C1644 C1640 1.368 . S
C1644 C1643 1.523 . S
H1645 C1620 0.950 . S
H1646 C1622 0.950 . S
H1647 C1623 0.949 . S
H1648 C1625 0.950 . S
H1649 C1627 0.950 . S
C1650 C1651 1.349 . S
C1650 C1652 1.327 . S
C1650 H1675 0.950 . S
C1651 C1650 1.349 . S
C1651 C1667 1.349 . S
C1652 C1650 1.327 . S
C1652 C1671 1.429 . S
C1652 H1676 0.950 . S
C1653 C1670 1.574 . S
C1653 C1672 1.368 . S
C1653 H1677 0.949 . S
H1654 C1658 0.949 . S
C1655 C1656 1.349 . S
C1655 C1657 1.327 . S
C1655 H1678 0.950 . S
C1656 C1655 1.349 . S
C1656 C1668 1.349 . S
C1657 C1655 1.327 . S
C1657 C1673 1.429 . S
C1657 H1679 0.950 . S
C1658 H1654 0.949 . S
C1658 C1666 1.574 . S
C1658 C1674 1.368 . S
H1659 C1667 0.950 . S
H1660 C1665 0.950 . S
H1661 C1666 0.949 . S
H1662 C1668 0.950 . S
H1663 C1669 0.950 . S
H1664 C1670 0.949 . S
C1665 H1660 0.950 . S
C1665 C1667 1.327 . S
C1665 C1671 1.429 . S
C1666 C1658 1.574 . S
C1666 H1661 0.949 . S
C1666 C1672 1.368 . S
C1667 C1651 1.349 . S
C1667 H1659 0.950 . S
C1667 C1665 1.327 . S
C1668 C1656 1.349 . S
C1668 H1662 0.950 . S
C1668 C1669 1.327 . S
C1669 H1663 0.950 . S
C1669 C1668 1.327 . S
C1669 C1673 1.429 . S
C1670 C1653 1.574 . S
C1670 H1664 0.949 . S
C1670 C1674 1.368 . S
C1671 C1652 1.429 . S
C1671 C1665 1.429 . S
C1671 C1672 1.523 1_565 S
C1672 C1653 1.368 . S
C1672 C1666 1.368 . S
C1672 C1671 1.523 1_545 S
C1673 C1657 1.429 . S
C1673 C1669 1.429 . S
C1673 C1674 1.523 . S
C1674 C1658 1.368 . S
C1674 C1670 1.368 . S
C1674 C1673 1.523 . S
H1675 C1650 0.950 . S
H1676 C1652 0.950 . S
H1677 C1653 0.949 . S
H1678 C1655 0.950 . S
H1679 C1657 0.950 . S
C1680 C1681 1.349 . S
C1680 C1682 1.327 . S
C1680 H1705 0.950 . S
C1681 C1680 1.349 . S
C1681 C1697 1.349 . S
C1682 C1680 1.327 . S
C1682 C1701 1.429 . S
C1682 H1706 0.950 . S
C1683 C1700 1.574 . S
C1683 C1702 1.368 . S
C1683 H1707 0.949 . S
H1684 C1688 0.949 . S
C1685 C1686 1.349 . S
C1685 C1687 1.327 . S
C1685 H1708 0.950 . S
C1686 C1685 1.349 . S
C1686 C1698 1.349 . S
C1687 C1685 1.327 . S
C1687 C1703 1.429 . S
C1687 H1709 0.950 . S
C1688 H1684 0.949 . S
C1688 C1696 1.574 . S
C1688 C1704 1.368 . S
H1689 C1697 0.950 . S
H1690 C1695 0.950 . S
H1691 C1696 0.949 . S
H1692 C1698 0.950 . S
H1693 C1699 0.950 . S
H1694 C1700 0.949 . S
C1695 H1690 0.950 . S
C1695 C1697 1.327 . S
C1695 C1701 1.429 . S
C1696 C1688 1.574 . S
C1696 H1691 0.949 . S
C1696 C1702 1.368 . S
C1697 C1681 1.349 . S
C1697 H1689 0.950 . S
C1697 C1695 1.327 . S
C1698 C1686 1.349 . S
C1698 H1692 0.950 . S
C1698 C1699 1.327 . S
C1699 H1693 0.950 . S
C1699 C1698 1.327 . S
C1699 C1703 1.429 . S
C1700 C1683 1.574 . S
C1700 H1694 0.949 . S
C1700 C1704 1.368 . S
C1701 C1682 1.429 . S
C1701 C1695 1.429 . S
C1701 C1702 1.523 . S
C1702 C1683 1.368 . S
C1702 C1696 1.368 . S
C1702 C1701 1.523 . S
C1703 C1687 1.429 . S
C1703 C1699 1.429 . S
C1703 C1704 1.523 . S
C1704 C1688 1.368 . S
C1704 C1700 1.368 . S
C1704 C1703 1.523 . S
H1705 C1680 0.950 . S
H1706 C1682 0.950 . S
H1707 C1683 0.949 . S
H1708 C1685 0.950 . S
H1709 C1687 0.950 . S
C1710 C1711 1.349 . S
C1710 C1712 1.327 . S
C1710 H1735 0.950 . S
C1711 C1710 1.349 . S
C1711 C1727 1.349 . S
C1712 C1710 1.327 . S
C1712 C1731 1.429 . S
C1712 H1736 0.950 . S
C1713 C1730 1.574 . S
C1713 C1732 1.368 . S
C1713 H1737 0.949 . S
H1714 C1718 0.949 . S
C1715 C1716 1.349 . S
C1715 C1717 1.327 . S
C1715 H1738 0.950 . S
C1716 C1715 1.349 . S
C1716 C1728 1.349 . S
C1717 C1715 1.327 . S
C1717 C1733 1.429 . S
C1717 H1739 0.950 . S
C1718 H1714 0.949 . S
C1718 C1726 1.574 . S
C1718 C1734 1.368 . S
H1719 C1727 0.950 . S
H1720 C1725 0.950 . S
H1721 C1726 0.949 . S
H1722 C1728 0.950 . S
H1723 C1729 0.950 . S
H1724 C1730 0.949 . S
C1725 H1720 0.950 . S
C1725 C1727 1.327 . S
C1725 C1731 1.429 . S
C1726 C1718 1.574 . S
C1726 H1721 0.949 . S
C1726 C1732 1.368 . S
C1727 C1711 1.349 . S
C1727 H1719 0.950 . S
C1727 C1725 1.327 . S
C1728 C1716 1.349 . S
C1728 H1722 0.950 . S
C1728 C1729 1.327 . S
C1729 H1723 0.950 . S
C1729 C1728 1.327 . S
C1729 C1733 1.429 . S
C1730 C1713 1.574 . S
C1730 H1724 0.949 . S
C1730 C1734 1.368 . S
C1731 C1712 1.429 . S
C1731 C1725 1.429 . S
C1731 C1732 1.523 . S
C1732 C1713 1.368 . S
C1732 C1726 1.368 . S
C1732 C1731 1.523 . S
C1733 C1717 1.429 . S
C1733 C1729 1.429 . S
C1733 C1734 1.523 . S
C1734 C1718 1.368 . S
C1734 C1730 1.368 . S
C1734 C1733 1.523 . S
H1735 C1710 0.950 . S
H1736 C1712 0.950 . S
H1737 C1713 0.949 . S
H1738 C1715 0.950 . S
H1739 C1717 0.950 . S
C1740 C1741 1.349 . S
C1740 C1742 1.327 . S
C1740 H1765 0.950 . S
C1741 C1740 1.349 . S
C1741 C1757 1.349 . S
C1742 C1740 1.327 . S
C1742 C1761 1.429 . S
C1742 H1766 0.950 . S
C1743 C1760 1.574 . S
C1743 C1762 1.368 . S
C1743 H1767 0.949 . S
H1744 C1748 0.949 1_655 S
C1745 C1746 1.349 . S
C1745 C1747 1.327 . S
C1745 H1768 0.950 . S
C1746 C1745 1.349 . S
C1746 C1758 1.349 . S
C1747 C1745 1.327 . S
C1747 C1763 1.429 . S
C1747 H1769 0.950 1_655 S
C1748 H1744 0.949 1_455 S
C1748 C1756 1.574 . S
C1748 C1764 1.368 . S
H1749 C1757 0.950 . S
H1750 C1755 0.950 . S
H1751 C1756 0.949 . S
H1752 C1758 0.950 . S
H1753 C1759 0.950 . S
H1754 C1760 0.949 . S
C1755 H1750 0.950 . S
C1755 C1757 1.327 . S
C1755 C1761 1.429 . S
C1756 C1748 1.574 . S
C1756 H1751 0.949 . S
C1756 C1762 1.368 . S
C1757 C1741 1.349 . S
C1757 H1749 0.950 . S
C1757 C1755 1.327 . S
C1758 C1746 1.349 . S
C1758 H1752 0.950 . S
C1758 C1759 1.327 . S
C1759 H1753 0.950 . S
C1759 C1758 1.327 . S
C1759 C1763 1.429 . S
C1760 C1743 1.574 . S
C1760 H1754 0.949 . S
C1760 C1764 1.368 . S
C1761 C1742 1.429 . S
C1761 C1755 1.429 . S
C1761 C1762 1.523 . S
C1762 C1743 1.368 . S
C1762 C1756 1.368 . S
C1762 C1761 1.523 . S
C1763 C1747 1.429 . S
C1763 C1759 1.429 . S
C1763 C1764 1.523 1_655 S
C1764 C1748 1.368 . S
C1764 C1760 1.368 . S
C1764 C1763 1.523 1_455 S
H1765 C1740 0.950 . S
H1766 C1742 0.950 . S
H1767 C1743 0.949 . S
H1768 C1745 0.950 . S
H1769 C1747 0.950 1_455 S
C1770 C1771 1.349 . S
C1770 C1772 1.327 . S
C1770 H1795 0.950 . S
C1771 C1770 1.349 . S
C1771 C1787 1.349 . S
C1772 C1770 1.327 . S
C1772 C1791 1.429 . S
C1772 H1796 0.950 . S
C1773 C1790 1.574 . S
C1773 C1792 1.368 . S
C1773 H1797 0.949 . S
H1774 C1778 0.949 . S
C1775 C1776 1.349 . S
C1775 C1777 1.327 . S
C1775 H1798 0.950 . S
C1776 C1775 1.349 . S
C1776 C1788 1.349 . S
C1777 C1775 1.327 . S
C1777 C1793 1.429 . S
C1777 H1799 0.950 . S
C1778 H1774 0.949 . S
C1778 C1786 1.574 . S
C1778 C1794 1.368 . S
H1779 C1787 0.950 . S
H1780 C1785 0.950 . S
H1781 C1786 0.949 . S
H1782 C1788 0.950 . S
H1783 C1789 0.950 . S
H1784 C1790 0.949 . S
C1785 H1780 0.950 . S
C1785 C1787 1.327 . S
C1785 C1791 1.429 . S
C1786 C1778 1.574 . S
C1786 H1781 0.949 . S
C1786 C1792 1.368 . S
C1787 C1771 1.349 . S
C1787 H1779 0.950 . S
C1787 C1785 1.327 . S
C1788 C1776 1.349 . S
C1788 H1782 0.950 . S
C1788 C1789 1.327 . S
C1789 H1783 0.950 . S
C1789 C1788 1.327 . S
C1789 C1793 1.429 . S
C1790 C1773 1.574 . S
C1790 H1784 0.949 . S
C1790 C1794 1.368 . S
C1791 C1772 1.429 . S
C1791 C1785 1.429 . S
C1791 C1792 1.523 . S
C1792 C1773 1.368 . S
C1792 C1786 1.368 . S
C1792 C1791 1.523 . S
C1793 C1777 1.429 . S
C1793 C1789 1.429 . S
C1793 C1794 1.523 . S
C1794 C1778 1.368 . S
C1794 C1790 1.368 . S
C1794 C1793 1.523 . S
H1795 C1770 0.950 . S
H1796 C1772 0.950 . S
H1797 C1773 0.949 . S
H1798 C1775 0.950 . S
H1799 C1777 0.950 . S
C1800 C1801 1.349 . S
C1800 C1802 1.327 . S
C1800 H1825 0.950 . S
C1801 C1800 1.349 . S
C1801 C1817 1.349 . S
C1802 C1800 1.327 . S
C1802 C1821 1.429 . S
C1802 H1826 0.950 . S
C1803 C1820 1.574 . S
C1803 C1822 1.368 1_455 S
C1803 H1827 0.949 . S
H1804 C1808 0.949 . S
C1805 C1806 1.349 . S
C1805 C1807 1.327 . S
C1805 H1828 0.950 . S
C1806 C1805 1.349 . S
C1806 C1818 1.349 . S
C1807 C1805 1.327 . S
C1807 C1823 1.429 . S
C1807 H1829 0.950 . S
C1808 H1804 0.949 . S
C1808 C1816 1.574 1_455 S
C1808 C1824 1.368 . S
H1809 C1817 0.950 . S
H1810 C1815 0.950 . S
H1811 C1816 0.949 . S
H1812 C1818 0.950 . S
H1813 C1819 0.950 . S
H1814 C1820 0.949 . S
C1815 H1810 0.950 . S
C1815 C1817 1.327 . S
C1815 C1821 1.429 . S
C1816 C1808 1.574 1_655 S
C1816 H1811 0.949 . S
C1816 C1822 1.368 . S
C1817 C1801 1.349 . S
C1817 H1809 0.950 . S
C1817 C1815 1.327 . S
C1818 C1806 1.349 . S
C1818 H1812 0.950 . S
C1818 C1819 1.327 . S
C1819 H1813 0.950 . S
C1819 C1818 1.327 . S
C1819 C1823 1.429 . S
C1820 C1803 1.574 . S
C1820 H1814 0.949 . S
C1820 C1824 1.368 . S
C1821 C1802 1.429 . S
C1821 C1815 1.429 . S
C1821 C1822 1.523 . S
C1822 C1803 1.368 1_655 S
C1822 C1816 1.368 . S
C1822 C1821 1.523 . S
C1823 C1807 1.429 . S
C1823 C1819 1.429 . S
C1823 C1824 1.523 . S
C1824 C1808 1.368 . S
C1824 C1820 1.368 . S
C1824 C1823 1.523 . S
H1825 C1800 0.950 . S
H1826 C1802 0.950 . S
H1827 C1803 0.949 . S
H1828 C1805 0.950 . S
H1829 C1807 0.950 . S
C1830 C1831 1.349 . S
C1830 C1832 1.327 . S
C1830 H1855 0.950 . S
C1831 C1830 1.349 . S
C1831 C1847 1.349 . S
C1832 C1830 1.327 . S
C1832 C1851 1.429 . S
C1832 H1856 0.950 . S
C1833 C1850 1.574 . S
C1833 C1852 1.368 . S
C1833 H1857 0.949 . S
H1834 C1838 0.949 . S
C1835 C1836 1.349 . S
C1835 C1837 1.327 . S
C1835 H1858 0.950 . S
C1836 C1835 1.349 . S
C1836 C1848 1.349 . S
C1837 C1835 1.327 . S
C1837 C1853 1.429 . S
C1837 H1859 0.950 . S
C1838 H1834 0.949 . S
C1838 C1846 1.574 . S
C1838 C1854 1.368 . S
H1839 C1847 0.950 . S
H1840 C1845 0.950 . S
H1841 C1846 0.949 . S
H1842 C1848 0.950 . S
H1843 C1849 0.950 . S
H1844 C1850 0.949 . S
C1845 H1840 0.950 . S
C1845 C1847 1.327 . S
C1845 C1851 1.429 . S
C1846 C1838 1.574 . S
C1846 H1841 0.949 . S
C1846 C1852 1.368 . S
C1847 C1831 1.349 . S
C1847 H1839 0.950 . S
C1847 C1845 1.327 . S
C1848 C1836 1.349 . S
C1848 H1842 0.950 . S
C1848 C1849 1.327 . S
C1849 H1843 0.950 . S
C1849 C1848 1.327 . S
C1849 C1853 1.429 . S
C1850 C1833 1.574 . S
C1850 H1844 0.949 . S
C1850 C1854 1.368 . S
C1851 C1832 1.429 . S
C1851 C1845 1.429 . S
C1851 C1852 1.523 . S
C1852 C1833 1.368 . S
C1852 C1846 1.368 . S
C1852 C1851 1.523 . S
C1853 C1837 1.429 . S
C1853 C1849 1.429 . S
C1853 C1854 1.523 . S
C1854 C1838 1.368 . S
C1854 C1850 1.368 . S
C1854 C1853 1.523 . S
H1855 C1830 0.950 . S
H1856 C1832 0.950 . S
H1857 C1833 0.949 . S
H1858 C1835 0.950 . S
H1859 C1837 0.950 . S
C1860 C1861 1.349 . S
C1860 C1862 1.327 . S
C1860 H1885 0.950 . S
C1861 C1860 1.349 . S
C1861 C1877 1.349 . S
C1862 C1860 1.327 . S
C1862 C1881 1.429 . S
C1862 H1886 0.950 . S
C1863 C1880 1.574 . S
C1863 C1882 1.368 . S
C1863 H1887 0.949 . S
H1864 C1868 0.973 . S
C1865 C1866 1.349 . S
C1865 C1867 1.327 . S
C1865 H1888 0.950 . S
C1866 C1865 1.349 . S
C1866 C1878 1.349 . S
C1867 C1865 1.327 . S
C1867 C1883 1.429 . S
C1867 H1889 0.950 . S
C1868 H1864 0.973 . S
C1868 C1876 1.545 1_655 S
C1868 C1884 1.370 . S
H1869 C1877 0.950 . S
H1870 C1875 0.950 . S
H1871 C1876 0.949 . S
H1872 C1878 0.950 . S
H1873 C1879 0.950 . S
H1874 C1880 0.949 . S
C1875 H1870 0.950 . S
C1875 C1877 1.327 . S
C1875 C1881 1.429 . S
C1876 C1868 1.545 1_455 S
C1876 H1871 0.949 . S
C1876 C1882 1.368 . S
C1877 C1861 1.349 . S
C1877 H1869 0.950 . S
C1877 C1875 1.327 . S
C1878 C1866 1.349 . S
C1878 H1872 0.950 . S
C1878 C1879 1.327 . S
C1879 H1873 0.950 . S
C1879 C1878 1.327 . S
C1879 C1883 1.429 . S
C1880 C1863 1.574 . S
C1880 H1874 0.949 . S
C1880 C1884 1.368 1_455 S
C1881 C1862 1.429 . S
C1881 C1875 1.429 . S
C1881 C1882 1.523 . S
C1882 C1863 1.368 . S
C1882 C1876 1.368 . S
C1882 C1881 1.523 . S
C1883 C1867 1.429 . S
C1883 C1879 1.429 . S
C1883 C1884 1.523 . S
C1884 C1868 1.370 . S
C1884 C1880 1.368 1_655 S
C1884 C1883 1.523 . S
H1885 C1860 0.950 . S
H1886 C1862 0.950 . S
H1887 C1863 0.949 . S
H1888 C1865 0.950 . S
H1889 C1867 0.950 . S
C1890 C1891 1.349 . S
C1890 C1892 1.327 . S
C1890 H1915 0.950 . S
C1891 C1890 1.349 . S
C1891 C1907 1.349 . S
C1892 C1890 1.327 . S
C1892 C1911 1.429 . S
C1892 H1916 0.950 . S
C1893 C1910 1.574 . S
C1893 C1912 1.368 . S
C1893 H1917 0.949 . S
H1894 C1898 0.949 . S
C1895 C1896 1.349 . S
C1895 C1897 1.327 . S
C1895 H1918 0.950 . S
C1896 C1895 1.349 . S
C1896 C1908 1.349 . S
C1897 C1895 1.327 . S
C1897 C1913 1.429 . S
C1897 H1919 0.950 . S
C1898 H1894 0.949 . S
C1898 C1906 1.574 . S
C1898 C1914 1.368 . S
H1899 C1907 0.950 . S
H1900 C1905 0.950 . S
H1901 C1906 0.949 . S
H1902 C1908 0.950 . S
H1903 C1909 0.950 . S
H1904 C1910 0.949 . S
C1905 H1900 0.950 . S
C1905 C1907 1.327 . S
C1905 C1911 1.429 . S
C1906 C1898 1.574 . S
C1906 H1901 0.949 . S
C1906 C1912 1.368 . S
C1907 C1891 1.349 . S
C1907 H1899 0.950 . S
C1907 C1905 1.327 . S
C1908 C1896 1.349 . S
C1908 H1902 0.950 . S
C1908 C1909 1.327 . S
C1909 H1903 0.950 . S
C1909 C1908 1.327 . S
C1909 C1913 1.429 . S
C1910 C1893 1.574 . S
C1910 H1904 0.949 . S
C1910 C1914 1.368 . S
C1911 C1892 1.429 . S
C1911 C1905 1.429 . S
C1911 C1912 1.523 . S
C1912 C1893 1.368 . S
C1912 C1906 1.368 . S
C1912 C1911 1.523 . S
C1913 C1897 1.429 . S
C1913 C1909 1.429 . S
C1913 C1914 1.523 . S
C1914 C1898 1.368 . S
C1914 C1910 1.368 . S
C1914 C1913 1.523 . S
H1915 C1890 0.950 . S
H1916 C1892 0.950 . S
H1917 C1893 0.949 . S
H1918 C1895 0.950 . S
H1919 C1897 0.950 . S
C1920 C1921 1.349 . S
C1920 C1922 1.327 . S
C1920 H1945 0.950 . S
C1921 C1920 1.349 . S
C1921 C1937 1.349 . S
C1922 C1920 1.327 . S
C1922 C1941 1.429 . S
C1922 H1946 0.950 . S
C1923 C1940 1.574 . S
C1923 C1942 1.368 . S
C1923 H1947 0.949 . S
H1924 C1928 0.949 . S
C1925 C1926 1.349 . S
C1925 C1927 1.327 . S
C1925 H1948 0.950 . S
C1926 C1925 1.349 . S
C1926 C1938 1.349 . S
C1927 C1925 1.327 . S
C1927 C1943 1.429 . S
C1927 H1949 0.950 . S
C1928 H1924 0.949 . S
C1928 C1936 1.574 . S
C1928 C1944 1.368 . S
H1929 C1937 0.950 . S
H1930 C1935 0.950 . S
H1931 C1936 0.949 . S
H1932 C1938 0.950 . S
H1933 C1939 0.950 . S
H1934 C1940 0.949 . S
C1935 H1930 0.950 . S
C1935 C1937 1.327 . S
C1935 C1941 1.429 . S
C1936 C1928 1.574 . S
C1936 H1931 0.949 . S
C1936 C1942 1.368 . S
C1937 C1921 1.349 . S
C1937 H1929 0.950 . S
C1937 C1935 1.327 . S
C1938 C1926 1.349 . S
C1938 H1932 0.950 . S
C1938 C1939 1.327 . S
C1939 H1933 0.950 . S
C1939 C1938 1.327 . S
C1939 C1943 1.429 . S
C1940 C1923 1.574 . S
C1940 H1934 0.949 . S
C1940 C1944 1.368 . S
C1941 C1922 1.429 . S
C1941 C1935 1.429 . S
C1941 C1942 1.523 . S
C1942 C1923 1.368 . S
C1942 C1936 1.368 . S
C1942 C1941 1.523 . S
C1943 C1927 1.429 . S
C1943 C1939 1.429 . S
C1943 C1944 1.523 . S
C1944 C1928 1.368 . S
C1944 C1940 1.368 . S
C1944 C1943 1.523 . S
H1945 C1920 0.950 . S
H1946 C1922 0.950 . S
H1947 C1923 0.949 . S
H1948 C1925 0.950 . S
H1949 C1927 0.950 . S
C1950 C1951 1.349 . S
C1950 C1952 1.327 . S
C1950 H1975 0.950 . S
C1951 C1950 1.349 . S
C1951 C1967 1.349 . S
C1952 C1950 1.327 . S
C1952 C1971 1.429 . S
C1952 H1976 0.950 . S
C1953 C1970 1.574 . S
C1953 C1972 1.368 . S
C1953 H1977 0.949 . S
H1954 C1958 0.949 . S
C1955 C1956 1.349 . S
C1955 C1957 1.327 . S
C1955 H1978 0.950 . S
C1956 C1955 1.349 . S
C1956 C1968 1.349 . S
C1957 C1955 1.327 . S
C1957 C1973 1.429 . S
C1957 H1979 0.950 . S
C1958 H1954 0.949 . S
C1958 C1966 1.574 . S
C1958 C1974 1.368 . S
H1959 C1967 0.950 . S
H1960 C1965 0.950 . S
H1961 C1966 0.949 . S
H1962 C1968 0.950 . S
H1963 C1969 0.950 . S
H1964 C1970 0.949 . S
C1965 H1960 0.950 . S
C1965 C1967 1.327 . S
C1965 C1971 1.429 . S
C1966 C1958 1.574 . S
C1966 H1961 0.949 . S
C1966 C1972 1.368 . S
C1967 C1951 1.349 . S
C1967 H1959 0.950 . S
C1967 C1965 1.327 . S
C1968 C1956 1.349 . S
C1968 H1962 0.950 . S
C1968 C1969 1.327 . S
C1969 H1963 0.950 . S
C1969 C1968 1.327 . S
C1969 C1973 1.429 . S
C1970 C1953 1.574 . S
C1970 H1964 0.949 . S
C1970 C1974 1.368 . S
C1971 C1952 1.429 . S
C1971 C1965 1.429 . S
C1971 C1972 1.523 . S
C1972 C1953 1.368 . S
C1972 C1966 1.368 . S
C1972 C1971 1.523 . S
C1973 C1957 1.429 . S
C1973 C1969 1.429 . S
C1973 C1974 1.523 . S
C1974 C1958 1.368 . S
C1974 C1970 1.368 . S
C1974 C1973 1.523 . S
H1975 C1950 0.950 . S
H1976 C1952 0.950 . S
H1977 C1953 0.949 . S
H1978 C1955 0.950 . S
H1979 C1957 0.950 . S
C1980 C1981 1.349 . S
C1980 C1982 1.327 . S
C1980 H2005 0.950 . S
C1981 C1980 1.349 . S
C1981 C1997 1.349 . S
C1982 C1980 1.327 . S
C1982 C2001 1.429 . S
C1982 H2006 0.950 . S
C1983 C2000 1.574 . S
C1983 C2002 1.368 . S
C1983 H2007 0.949 . S
H1984 C1988 0.949 . S
C1985 C1986 1.349 . S
C1985 C1987 1.327 . S
C1985 H2008 0.950 . S
C1986 C1985 1.349 . S
C1986 C1998 1.349 . S
C1987 C1985 1.327 . S
C1987 C2003 1.429 . S
C1987 H2009 0.950 . S
C1988 H1984 0.949 . S
C1988 C1996 1.574 . S
C1988 C2004 1.368 . S
H1989 C1997 0.950 . S
H1990 C1995 0.950 . S
H1991 C1996 0.949 . S
H1992 C1998 0.950 . S
H1993 C1999 0.950 . S
H1994 C2000 0.949 . S
C1995 H1990 0.950 . S
C1995 C1997 1.327 . S
C1995 C2001 1.429 . S
C1996 C1988 1.574 . S
C1996 H1991 0.949 . S
C1996 C2002 1.368 . S
C1997 C1981 1.349 . S
C1997 H1989 0.950 . S
C1997 C1995 1.327 . S
C1998 C1986 1.349 . S
C1998 H1992 0.950 . S
C1998 C1999 1.327 . S
C1999 H1993 0.950 . S
C1999 C1998 1.327 . S
C1999 C2003 1.429 . S
C2000 C1983 1.574 . S
C2000 H1994 0.949 . S
C2000 C2004 1.368 . S
C2001 C1982 1.429 . S
C2001 C1995 1.429 . S
C2001 C2002 1.523 . S
C2002 C1983 1.368 . S
C2002 C1996 1.368 . S
C2002 C2001 1.523 . S
C2003 C1987 1.429 . S
C2003 C1999 1.429 . S
C2003 C2004 1.523 . S
C2004 C1988 1.368 . S
C2004 C2000 1.368 . S
C2004 C2003 1.523 . S
H2005 C1980 0.950 . S
H2006 C1982 0.950 . S
H2007 C1983 0.949 . S
H2008 C1985 0.950 . S
H2009 C1987 0.950 . S
C2010 C2011 1.349 . S
C2010 C2012 1.327 . S
C2010 H2035 0.950 . S
C2011 C2010 1.349 . S
C2011 C2027 1.349 . S
C2012 C2010 1.327 . S
C2012 C2031 1.429 . S
C2012 H2036 0.950 . S
C2013 C2030 1.574 1_556 S
C2013 C2032 1.368 . S
C2013 H2037 0.949 . S
H2014 C2018 0.949 . S
C2015 C2016 1.349 . S
C2015 C2017 1.327 . S
C2015 H2038 0.950 . S
C2016 C2015 1.349 . S
C2016 C2028 1.349 . S
C2017 C2015 1.327 . S
C2017 C2033 1.429 . S
C2017 H2039 0.950 . S
C2018 H2014 0.949 . S
C2018 C2026 1.574 1_554 S
C2018 C2034 1.368 . S
H2019 C2027 0.950 . S
H2020 C2025 0.950 . S
H2021 C2026 0.949 . S
H2022 C2028 0.950 . S
H2023 C2029 0.950 . S
H2024 C2030 0.949 . S
C2025 H2020 0.950 . S
C2025 C2027 1.327 . S
C2025 C2031 1.429 . S
C2026 C2018 1.574 1_556 S
C2026 H2021 0.949 . S
C2026 C2032 1.368 . S
C2027 C2011 1.349 . S
C2027 H2019 0.950 . S
C2027 C2025 1.327 . S
C2028 C2016 1.349 . S
C2028 H2022 0.950 . S
C2028 C2029 1.327 . S
C2029 H2023 0.950 . S
C2029 C2028 1.327 . S
C2029 C2033 1.429 . S
C2030 C2013 1.574 1_554 S
C2030 H2024 0.949 . S
C2030 C2034 1.368 . S
C2031 C2012 1.429 . S
C2031 C2025 1.429 . S
C2031 C2032 1.523 . S
C2032 C2013 1.368 . S
C2032 C2026 1.368 . S
C2032 C2031 1.523 . S
C2033 C2017 1.429 . S
C2033 C2029 1.429 . S
C2033 C2034 1.523 . S
C2034 C2018 1.368 . S
C2034 C2030 1.368 . S
C2034 C2033 1.523 . S
H2035 C2010 0.950 . S
H2036 C2012 0.950 . S
H2037 C2013 0.949 . S
H2038 C2015 0.950 . S
H2039 C2017 0.950 . S
C2040 C2041 1.349 . S
C2040 C2042 1.327 1_455 S
C2040 H2065 0.950 . S
C2041 C2040 1.349 . S
C2041 C2057 1.336 1_455 S
C2042 C2040 1.327 1_655 S
C2042 C2061 1.429 . S
C2042 H2066 0.950 . S
C2043 C2060 1.574 . S
C2043 C2062 1.368 . S
C2043 H2067 0.949 . S
H2044 C2048 0.949 . S
C2045 C2046 1.349 . S
C2045 C2047 1.327 . S
C2045 H2068 0.950 . S
C2046 C2045 1.349 . S
C2046 C2058 1.349 . S
C2047 C2045 1.327 . S
C2047 C2063 1.429 . S
C2047 H2069 0.950 . S
C2048 H2044 0.949 . S
C2048 C2056 1.574 . S
C2048 C2064 1.368 . S
H2049 C2057 0.948 . S
H2050 C2055 0.950 . S
H2051 C2056 0.949 . S
H2052 C2058 0.950 . S
H2053 C2059 0.950 . S
H2054 C2060 0.949 . S
C2055 H2050 0.950 . S
C2055 C2057 1.344 . S
C2055 C2061 1.429 . S
C2056 C2048 1.574 . S
C2056 H2051 0.949 . S
C2056 C2062 1.368 . S
C2057 C2041 1.336 1_655 S
C2057 H2049 0.948 . S
C2057 C2055 1.344 . S
C2058 C2046 1.349 . S
C2058 H2052 0.950 . S
C2058 C2059 1.327 . S
C2059 H2053 0.950 . S
C2059 C2058 1.327 . S
C2059 C2063 1.429 . S
C2060 C2043 1.574 . S
C2060 H2054 0.949 . S
C2060 C2064 1.368 . S
C2061 C2042 1.429 . S
C2061 C2055 1.429 . S
C2061 C2062 1.523 . S
C2062 C2043 1.368 . S
C2062 C2056 1.368 . S
C2062 C2061 1.523 . S
C2063 C2047 1.429 . S
C2063 C2059 1.429 . S
C2063 C2064 1.523 . S
C2064 C2048 1.368 . S
C2064 C2060 1.368 . S
C2064 C2063 1.523 . S
H2065 C2040 0.950 . S
H2066 C2042 0.950 . S
H2067 C2043 0.949 . S
H2068 C2045 0.950 . S
H2069 C2047 0.950 . S
C2070 C2071 1.349 . S
C2070 C2072 1.327 . S
C2070 H2095 0.950 . S
C2071 C2070 1.349 . S
C2071 C2087 1.349 . S
C2072 C2070 1.327 . S
C2072 C2091 1.429 . S
C2072 H2096 0.950 . S
C2073 C2090 1.574 . S
C2073 C2092 1.368 . S
C2073 H2097 0.949 . S
H2074 C2078 0.949 . S
C2075 C2076 1.349 . S
C2075 C2077 1.327 . S
C2075 H2098 0.950 . S
C2076 C2075 1.349 . S
C2076 C2088 1.349 . S
C2077 C2075 1.327 . S
C2077 C2093 1.429 . S
C2077 H2099 0.950 . S
C2078 H2074 0.949 . S
C2078 C2086 1.574 . S
C2078 C2094 1.368 . S
H2079 C2087 0.950 . S
H2080 C2085 0.950 . S
H2081 C2086 0.949 . S
H2082 C2088 0.950 . S
H2083 C2089 0.950 . S
H2084 C2090 0.949 . S
C2085 H2080 0.950 . S
C2085 C2087 1.327 . S
C2085 C2091 1.429 . S
C2086 C2078 1.574 . S
C2086 H2081 0.949 . S
C2086 C2092 1.368 . S
C2087 C2071 1.349 . S
C2087 H2079 0.950 . S
C2087 C2085 1.327 . S
C2088 C2076 1.349 . S
C2088 H2082 0.950 . S
C2088 C2089 1.327 . S
C2089 H2083 0.950 . S
C2089 C2088 1.327 . S
C2089 C2093 1.429 . S
C2090 C2073 1.574 . S
C2090 H2084 0.949 . S
C2090 C2094 1.368 . S
C2091 C2072 1.429 . S
C2091 C2085 1.429 . S
C2091 C2092 1.523 . S
C2092 C2073 1.368 . S
C2092 C2086 1.368 . S
C2092 C2091 1.523 . S
C2093 C2077 1.429 . S
C2093 C2089 1.429 . S
C2093 C2094 1.523 . S
C2094 C2078 1.368 . S
C2094 C2090 1.368 . S
C2094 C2093 1.523 . S
H2095 C2070 0.950 . S
H2096 C2072 0.950 . S
H2097 C2073 0.949 . S
H2098 C2075 0.950 . S
H2099 C2077 0.950 . S
C2100 C2101 1.349 . S
C2100 C2102 1.327 . S
C2100 H2125 0.950 . S
C2101 C2100 1.349 . S
C2101 C2117 1.349 . S
C2102 C2100 1.327 . S
C2102 C2121 1.429 . S
C2102 H2126 0.950 . S
C2103 C2120 1.574 . S
C2103 C2122 1.368 . S
C2103 H2127 0.949 . S
H2104 C2108 0.949 . S
C2105 C2106 1.349 . S
C2105 C2107 1.327 . S
C2105 H2128 0.950 . S
C2106 C2105 1.349 . S
C2106 C2118 1.349 . S
C2107 C2105 1.327 . S
C2107 C2123 1.429 . S
C2107 H2129 0.950 . S
C2108 H2104 0.949 . S
C2108 C2116 1.574 . S
C2108 C2124 1.368 . S
H2109 C2117 0.950 . S
H2110 C2115 0.950 . S
H2111 C2116 0.949 . S
H2112 C2118 0.950 . S
H2113 C2119 0.950 . S
H2114 C2120 0.949 . S
C2115 H2110 0.950 . S
C2115 C2117 1.327 . S
C2115 C2121 1.429 . S
C2116 C2108 1.574 . S
C2116 H2111 0.949 . S
C2116 C2122 1.368 . S
C2117 C2101 1.349 . S
C2117 H2109 0.950 . S
C2117 C2115 1.327 . S
C2118 C2106 1.349 . S
C2118 H2112 0.950 . S
C2118 C2119 1.327 . S
C2119 H2113 0.950 . S
C2119 C2118 1.327 . S
C2119 C2123 1.429 . S
C2120 C2103 1.574 . S
C2120 H2114 0.949 . S
C2120 C2124 1.368 . S
C2121 C2102 1.429 . S
C2121 C2115 1.429 . S
C2121 C2122 1.523 . S
C2122 C2103 1.368 . S
C2122 C2116 1.368 . S
C2122 C2121 1.523 . S
C2123 C2107 1.429 . S
C2123 C2119 1.429 . S
C2123 C2124 1.523 . S
C2124 C2108 1.368 . S
C2124 C2120 1.368 . S
C2124 C2123 1.523 . S
H2125 C2100 0.950 . S
H2126 C2102 0.950 . S
H2127 C2103 0.949 . S
H2128 C2105 0.950 . S
H2129 C2107 0.950 . S
C2130 C2131 1.349 . S
C2130 C2132 1.327 . S
C2130 H2155 0.950 . S
C2131 C2130 1.349 . S
C2131 C2147 1.349 . S
C2132 C2130 1.327 . S
C2132 C2151 1.429 . S
C2132 H2156 0.950 . S
C2133 C2150 1.574 . S
C2133 C2152 1.368 . S
C2133 H2157 0.949 . S
H2134 C2138 0.949 . S
C2135 C2136 1.349 . S
C2135 C2137 1.327 . S
C2135 H2158 0.950 . S
C2136 C2135 1.349 . S
C2136 C2148 1.349 . S
C2137 C2135 1.327 . S
C2137 C2153 1.429 . S
C2137 H2159 0.950 . S
C2138 H2134 0.949 . S
C2138 C2146 1.574 . S
C2138 C2154 1.354 1_554 S
H2139 C2147 0.950 . S
H2140 C2145 0.950 . S
H2141 C2146 0.949 . S
H2142 C2148 0.950 . S
H2143 C2149 0.950 . S
H2144 C2150 0.949 1_556 S
C2145 H2140 0.950 . S
C2145 C2147 1.327 . S
C2145 C2151 1.429 . S
C2146 C2138 1.574 . S
C2146 H2141 0.949 . S
C2146 C2152 1.368 . S
C2147 C2131 1.349 . S
C2147 H2139 0.950 . S
C2147 C2145 1.327 . S
C2148 C2136 1.349 . S
C2148 H2142 0.950 . S
C2148 C2149 1.327 . S
C2149 H2143 0.950 . S
C2149 C2148 1.327 . S
C2149 C2153 1.429 . S
C2150 C2133 1.574 . S
C2150 H2144 0.949 1_554 S
C2150 C2154 1.363 1_554 S
C2151 C2132 1.429 . S
C2151 C2145 1.429 . S
C2151 C2152 1.523 . S
C2152 C2133 1.368 . S
C2152 C2146 1.368 . S
C2152 C2151 1.523 . S
C2153 C2137 1.429 . S
C2153 C2149 1.429 . S
C2153 C2154 1.548 . S
C2154 C2138 1.354 1_556 S
C2154 C2150 1.363 1_556 S
C2154 C2153 1.548 . S
H2155 C2130 0.950 . S
H2156 C2132 0.950 . S
H2157 C2133 0.949 . S
H2158 C2135 0.950 . S
H2159 C2137 0.950 . S
C2160 C2161 1.349 . S
C2160 C2162 1.327 . S
C2160 H2185 0.950 . S
C2161 C2160 1.349 . S
C2161 C2177 1.349 . S
C2162 C2160 1.327 . S
C2162 C2181 1.429 . S
C2162 H2186 0.950 . S
C2163 C2180 1.574 . S
C2163 C2182 1.373 . S
C2163 H2187 0.947 . S
H2164 C2168 0.949 . S
C2165 C2166 1.349 . S
C2165 C2167 1.327 . S
C2165 H2188 0.950 . S
C2166 C2165 1.349 . S
C2166 C2178 1.349 . S
C2167 C2165 1.327 . S
C2167 C2183 1.429 . S
C2167 H2189 0.950 . S
C2168 H2164 0.949 . S
C2168 C2176 1.574 . S
C2168 C2184 1.368 . S
H2169 C2177 0.950 . S
H2170 C2175 0.950 . S
H2171 C2176 0.949 . S
H2172 C2178 0.950 . S
H2173 C2179 0.950 . S
H2174 C2180 0.949 . S
C2175 H2170 0.950 . S
C2175 C2177 1.327 . S
C2175 C2181 1.429 . S
C2176 C2168 1.574 . S
C2176 H2171 0.949 . S
C2176 C2182 1.374 . S
C2177 C2161 1.349 . S
C2177 H2169 0.950 . S
C2177 C2175 1.327 . S
C2178 C2166 1.349 . S
C2178 H2172 0.950 . S
C2178 C2179 1.327 . S
C2179 H2173 0.950 . S
C2179 C2178 1.327 . S
C2179 C2183 1.429 . S
C2180 C2163 1.574 . S
C2180 H2174 0.949 . S
C2180 C2184 1.368 . S
C2181 C2162 1.429 . S
C2181 C2175 1.429 . S
C2181 C2182 1.511 1_545 S
C2182 C2163 1.373 . S
C2182 C2176 1.374 . S
C2182 C2181 1.511 1_565 S
C2183 C2167 1.429 . S
C2183 C2179 1.429 . S
C2183 C2184 1.523 . S
C2184 C2168 1.368 . S
C2184 C2180 1.368 . S
C2184 C2183 1.523 . S
H2185 C2160 0.950 . S
H2186 C2162 0.950 . S
H2187 C2163 0.947 . S
H2188 C2165 0.950 . S
H2189 C2167 0.950 . S
C2190 C2191 1.349 . S
C2190 C2192 1.327 1_565 S
C2190 H2215 0.950 . S
C2191 C2190 1.349 . S
C2191 C2207 1.349 . S
C2192 C2190 1.327 1_545 S
C2192 C2211 1.429 . S
C2192 H2216 0.950 . S
C2193 C2210 1.574 . S
C2193 C2212 1.368 . S
C2193 H2217 0.949 . S
H2194 C2198 0.949 . S
C2195 C2196 1.349 . S
C2195 C2197 1.327 . S
C2195 H2218 0.950 . S
C2196 C2195 1.349 . S
C2196 C2208 1.349 . S
C2197 C2195 1.327 . S
C2197 C2213 1.429 . S
C2197 H2219 0.950 . S
C2198 H2194 0.949 . S
C2198 C2206 1.574 . S
C2198 C2214 1.368 . S
H2199 C2207 0.950 . S
H2200 C2205 0.950 . S
H2201 C2206 0.949 . S
H2202 C2208 0.950 . S
H2203 C2209 0.950 . S
H2204 C2210 0.949 . S
C2205 H2200 0.950 . S
C2205 C2207 1.327 . S
C2205 C2211 1.429 1_565 S
C2206 C2198 1.574 . S
C2206 H2201 0.949 . S
C2206 C2212 1.368 . S
C2207 C2191 1.349 . S
C2207 H2199 0.950 . S
C2207 C2205 1.327 . S
C2208 C2196 1.349 . S
C2208 H2202 0.950 . S
C2208 C2209 1.327 . S
C2209 H2203 0.950 . S
C2209 C2208 1.327 . S
C2209 C2213 1.429 . S
C2210 C2193 1.574 . S
C2210 H2204 0.949 . S
C2210 C2214 1.368 . S
C2211 C2192 1.429 . S
C2211 C2205 1.429 1_545 S
C2211 C2212 1.523 . S
C2212 C2193 1.368 . S
C2212 C2206 1.368 . S
C2212 C2211 1.523 . S
C2213 C2197 1.429 . S
C2213 C2209 1.429 . S
C2213 C2214 1.523 . S
C2214 C2198 1.368 . S
C2214 C2210 1.368 . S
C2214 C2213 1.523 . S
H2215 C2190 0.950 . S
H2216 C2192 0.950 . S
H2217 C2193 0.949 . S
H2218 C2195 0.950 . S
H2219 C2197 0.950 . S
C2220 C2221 1.349 . S
C2220 C2222 1.327 . S
C2220 H2245 0.950 . S
C2221 C2220 1.349 . S
C2221 C2237 1.349 . S
C2222 C2220 1.327 . S
C2222 C2241 1.429 . S
C2222 H2246 0.950 . S
C2223 C2240 1.574 . S
C2223 C2242 1.368 . S
C2223 H2247 0.949 . S
H2224 C2228 0.949 . S
C2225 C2226 1.349 . S
C2225 C2227 1.327 . S
C2225 H2248 0.950 . S
C2226 C2225 1.349 . S
C2226 C2238 1.349 . S
C2227 C2225 1.327 . S
C2227 C2243 1.429 . S
C2227 H2249 0.950 . S
C2228 H2224 0.949 . S
C2228 C2236 1.574 . S
C2228 C2244 1.368 . S
H2229 C2237 0.950 . S
H2230 C2235 0.950 . S
H2231 C2236 0.949 . S
H2232 C2238 0.950 . S
H2233 C2239 0.950 . S
H2234 C2240 0.949 . S
C2235 H2230 0.950 . S
C2235 C2237 1.327 . S
C2235 C2241 1.429 . S
C2236 C2228 1.574 . S
C2236 H2231 0.949 . S
C2236 C2242 1.368 . S
C2237 C2221 1.349 . S
C2237 H2229 0.950 . S
C2237 C2235 1.327 . S
C2238 C2226 1.349 . S
C2238 H2232 0.950 . S
C2238 C2239 1.327 . S
C2239 H2233 0.950 . S
C2239 C2238 1.327 . S
C2239 C2243 1.429 . S
C2240 C2223 1.574 . S
C2240 H2234 0.949 . S
C2240 C2244 1.368 . S
C2241 C2222 1.429 . S
C2241 C2235 1.429 . S
C2241 C2242 1.523 . S
C2242 C2223 1.368 . S
C2242 C2236 1.368 . S
C2242 C2241 1.523 . S
C2243 C2227 1.429 . S
C2243 C2239 1.429 . S
C2243 C2244 1.523 . S
C2244 C2228 1.368 . S
C2244 C2240 1.368 . S
C2244 C2243 1.523 . S
H2245 C2220 0.950 . S
H2246 C2222 0.950 . S
H2247 C2223 0.949 . S
H2248 C2225 0.950 . S
H2249 C2227 0.950 . S
C2250 C2251 1.349 . S
C2250 C2252 1.327 . S
C2250 H2275 0.950 . S
C2251 C2250 1.349 . S
C2251 C2267 1.349 . S
C2252 C2250 1.327 . S
C2252 C2271 1.429 . S
C2252 H2276 0.950 . S
C2253 C2270 1.574 . S
C2253 C2272 1.368 . S
C2253 H2277 0.949 . S
H2254 C2258 0.949 . S
C2255 C2256 1.349 . S
C2255 C2257 1.327 . S
C2255 H2278 0.950 . S
C2256 C2255 1.349 . S
C2256 C2268 1.349 . S
C2257 C2255 1.327 . S
C2257 C2273 1.429 . S
C2257 H2279 0.950 . S
C2258 H2254 0.949 . S
C2258 C2266 1.574 . S
C2258 C2274 1.368 . S
H2259 C2267 0.950 . S
H2260 C2265 0.950 . S
H2261 C2266 0.949 . S
H2262 C2268 0.950 . S
H2263 C2269 0.950 . S
H2264 C2270 0.949 . S
C2265 H2260 0.950 . S
C2265 C2267 1.327 . S
C2265 C2271 1.429 . S
C2266 C2258 1.574 . S
C2266 H2261 0.949 . S
C2266 C2272 1.368 . S
C2267 C2251 1.349 . S
C2267 H2259 0.950 . S
C2267 C2265 1.327 . S
C2268 C2256 1.349 . S
C2268 H2262 0.950 . S
C2268 C2269 1.327 . S
C2269 H2263 0.950 . S
C2269 C2268 1.327 . S
C2269 C2273 1.429 . S
C2270 C2253 1.574 . S
C2270 H2264 0.949 . S
C2270 C2274 1.368 . S
C2271 C2252 1.429 . S
C2271 C2265 1.429 . S
C2271 C2272 1.523 . S
C2272 C2253 1.368 . S
C2272 C2266 1.368 . S
C2272 C2271 1.523 . S
C2273 C2257 1.429 . S
C2273 C2269 1.429 . S
C2273 C2274 1.523 1_565 S
C2274 C2258 1.368 . S
C2274 C2270 1.368 . S
C2274 C2273 1.523 1_545 S
H2275 C2250 0.950 . S
H2276 C2252 0.950 . S
H2277 C2253 0.949 . S
H2278 C2255 0.950 . S
H2279 C2257 0.950 . S
C2280 C2281 1.349 . S
C2280 C2282 1.327 . S
C2280 H2305 0.950 . S
C2281 C2280 1.349 . S
C2281 C2297 1.349 . S
C2282 C2280 1.327 . S
C2282 C2301 1.429 . S
C2282 H2306 0.950 . S
C2283 C2300 1.574 . S
C2283 C2302 1.368 . S
C2283 H2307 0.949 . S
H2284 C2288 0.949 . S
C2285 C2286 1.349 . S
C2285 C2287 1.327 . S
C2285 H2308 0.950 . S
C2286 C2285 1.349 . S
C2286 C2298 1.349 . S
C2287 C2285 1.327 . S
C2287 C2303 1.429 . S
C2287 H2309 0.950 . S
C2288 H2284 0.949 . S
C2288 C2296 1.574 . S
C2288 C2304 1.368 . S
H2289 C2297 0.950 . S
H2290 C2295 0.950 . S
H2291 C2296 0.949 . S
H2292 C2298 0.950 . S
H2293 C2299 0.950 . S
H2294 C2300 0.949 . S
C2295 H2290 0.950 . S
C2295 C2297 1.327 . S
C2295 C2301 1.429 . S
C2296 C2288 1.574 . S
C2296 H2291 0.949 . S
C2296 C2302 1.368 . S
C2297 C2281 1.349 . S
C2297 H2289 0.950 . S
C2297 C2295 1.327 . S
C2298 C2286 1.349 . S
C2298 H2292 0.950 . S
C2298 C2299 1.327 . S
C2299 H2293 0.950 . S
C2299 C2298 1.327 . S
C2299 C2303 1.429 . S
C2300 C2283 1.574 . S
C2300 H2294 0.949 . S
C2300 C2304 1.368 . S
C2301 C2282 1.429 . S
C2301 C2295 1.429 . S
C2301 C2302 1.523 . S
C2302 C2283 1.368 . S
C2302 C2296 1.368 . S
C2302 C2301 1.523 . S
C2303 C2287 1.429 . S
C2303 C2299 1.429 . S
C2303 C2304 1.523 . S
C2304 C2288 1.368 . S
C2304 C2300 1.368 . S
C2304 C2303 1.523 . S
H2305 C2280 0.950 . S
H2306 C2282 0.950 . S
H2307 C2283 0.949 . S
H2308 C2285 0.950 . S
H2309 C2287 0.950 . S
C2310 C2311 1.349 . S
C2310 C2312 1.327 . S
C2310 H2335 0.950 . S
C2311 C2310 1.349 . S
C2311 C2327 1.349 . S
C2312 C2310 1.327 . S
C2312 C2331 1.429 . S
C2312 H2336 0.950 . S
C2313 C2330 1.574 . S
C2313 C2332 1.368 . S
C2313 H2337 0.949 . S
H2314 C2318 0.949 . S
C2315 C2316 1.349 . S
C2315 C2317 1.327 . S
C2315 H2338 0.950 . S
C2316 C2315 1.349 . S
C2316 C2328 1.349 . S
C2317 C2315 1.327 . S
C2317 C2333 1.429 . S
C2317 H2339 0.950 . S
C2318 H2314 0.949 . S
C2318 C2326 1.574 . S
C2318 C2334 1.368 . S
H2319 C2327 0.950 . S
H2320 C2325 0.950 1_545 S
H2321 C2326 0.965 . S
H2322 C2328 0.950 . S
H2323 C2329 0.950 . S
H2324 C2330 0.949 . S
C2325 H2320 0.950 1_565 S
C2325 C2327 1.327 . S
C2325 C2331 1.429 . S
C2326 C2318 1.574 . S
C2326 H2321 0.965 . S
C2326 C2332 1.368 . S
C2327 C2311 1.349 . S
C2327 H2319 0.950 . S
C2327 C2325 1.327 . S
C2328 C2316 1.349 . S
C2328 H2322 0.950 . S
C2328 C2329 1.327 . S
C2329 H2323 0.950 . S
C2329 C2328 1.327 . S
C2329 C2333 1.429 . S
C2330 C2313 1.574 . S
C2330 H2324 0.949 . S
C2330 C2334 1.368 . S
C2331 C2312 1.429 . S
C2331 C2325 1.429 . S
C2331 C2332 1.523 1_565 S
C2332 C2313 1.368 . S
C2332 C2326 1.368 . S
C2332 C2331 1.523 1_545 S
C2333 C2317 1.429 . S
C2333 C2329 1.429 . S
C2333 C2334 1.523 . S
C2334 C2318 1.368 . S
C2334 C2330 1.368 . S
C2334 C2333 1.523 . S
H2335 C2310 0.950 . S
H2336 C2312 0.950 . S
H2337 C2313 0.949 . S
H2338 C2315 0.950 . S
H2339 C2317 0.950 . S
C2340 C2341 1.349 . S
C2340 C2342 1.327 . S
C2340 H2365 0.950 . S
C2341 C2340 1.349 . S
C2341 C2357 1.349 . S
C2342 C2340 1.327 . S
C2342 C2361 1.429 . S
C2342 H2366 0.950 . S
C2343 C2360 1.574 . S
C2343 C2362 1.368 . S
C2343 H2367 0.949 . S
H2344 C2348 0.949 . S
C2345 C2346 1.349 . S
C2345 C2347 1.327 . S
C2345 H2368 0.950 . S
C2346 C2345 1.349 . S
C2346 C2358 1.349 . S
C2347 C2345 1.327 . S
C2347 C2363 1.429 . S
C2347 H2369 0.950 . S
C2348 H2344 0.949 . S
C2348 C2356 1.574 . S
C2348 C2364 1.368 . S
H2349 C2357 0.950 1_545 S
H2350 C2355 0.926 1_545 S
H2351 C2356 0.949 . S
H2352 C2358 0.950 . S
H2353 C2359 0.950 . S
H2354 C2360 0.949 . S
C2355 H2350 0.926 1_565 S
C2355 C2357 1.327 . S
C2355 C2361 1.429 . S
C2356 C2348 1.574 . S
C2356 H2351 0.949 . S
C2356 C2362 1.368 . S
C2357 C2341 1.349 . S
C2357 H2349 0.950 1_565 S
C2357 C2355 1.327 . S
C2358 C2346 1.349 . S
C2358 H2352 0.950 . S
C2358 C2359 1.327 . S
C2359 H2353 0.950 . S
C2359 C2358 1.327 . S
C2359 C2363 1.429 . S
C2360 C2343 1.574 . S
C2360 H2354 0.949 . S
C2360 C2364 1.368 . S
C2361 C2342 1.429 . S
C2361 C2355 1.429 . S
C2361 C2362 1.523 . S
C2362 C2343 1.368 . S
C2362 C2356 1.368 . S
C2362 C2361 1.523 . S
C2363 C2347 1.429 . S
C2363 C2359 1.429 . S
C2363 C2364 1.523 . S
C2364 C2348 1.368 . S
C2364 C2360 1.368 . S
C2364 C2363 1.523 . S
H2365 C2340 0.950 . S
H2366 C2342 0.950 . S
H2367 C2343 0.949 . S
H2368 C2345 0.950 . S
H2369 C2347 0.950 . S
C2370 C2371 1.349 . S
C2370 C2372 1.327 . S
C2370 H2395 0.950 . S
C2371 C2370 1.349 . S
C2371 C2387 1.349 . S
C2372 C2370 1.327 . S
C2372 C2391 1.429 . S
C2372 H2396 0.950 . S
C2373 C2390 1.574 . S
C2373 C2392 1.368 . S
C2373 H2397 0.949 . S
H2374 C2378 0.949 . S
C2375 C2376 1.349 . S
C2375 C2377 1.327 . S
C2375 H2398 0.950 . S
C2376 C2375 1.349 . S
C2376 C2388 1.349 . S
C2377 C2375 1.327 . S
C2377 C2393 1.429 1_565 S
C2377 H2399 0.950 . S
C2378 H2374 0.949 . S
C2378 C2386 1.574 . S
C2378 C2394 1.368 . S
H2379 C2387 0.950 . S
H2380 C2385 0.950 . S
H2381 C2386 0.949 . S
H2382 C2388 0.950 . S
H2383 C2389 0.950 . S
H2384 C2390 0.949 . S
C2385 H2380 0.950 . S
C2385 C2387 1.327 . S
C2385 C2391 1.429 . S
C2386 C2378 1.574 . S
C2386 H2381 0.949 . S
C2386 C2392 1.368 . S
C2387 C2371 1.349 . S
C2387 H2379 0.950 . S
C2387 C2385 1.327 . S
C2388 C2376 1.349 . S
C2388 H2382 0.950 . S
C2388 C2389 1.327 1_565 S
C2389 H2383 0.950 . S
C2389 C2388 1.327 1_545 S
C2389 C2393 1.429 . S
C2390 C2373 1.574 . S
C2390 H2384 0.949 . S
C2390 C2394 1.368 . S
C2391 C2372 1.429 . S
C2391 C2385 1.429 . S
C2391 C2392 1.523 . S
C2392 C2373 1.368 . S
C2392 C2386 1.368 . S
C2392 C2391 1.523 . S
C2393 C2377 1.429 1_545 S
C2393 C2389 1.429 . S
C2393 C2394 1.523 . S
C2394 C2378 1.368 . S
C2394 C2390 1.368 . S
C2394 C2393 1.523 . S
H2395 C2370 0.950 . S
H2396 C2372 0.950 . S
H2397 C2373 0.949 . S
H2398 C2375 0.950 . S
H2399 C2377 0.950 . S
C2400 C2401 1.349 . S
C2400 C2402 1.327 . S
C2400 H2425 0.950 1_556 S
C2401 C2400 1.349 . S
C2401 C2417 1.349 . S
C2402 C2400 1.327 . S
C2402 C2421 1.429 . S
C2402 H2426 0.953 1_556 S
C2403 C2420 1.574 . S
C2403 C2422 1.368 . S
C2403 H2427 0.949 . S
H2404 C2408 0.949 . S
C2405 C2406 1.349 . S
C2405 C2407 1.327 . S
C2405 H2428 0.950 . S
C2406 C2405 1.349 . S
C2406 C2418 1.349 . S
C2407 C2405 1.327 . S
C2407 C2423 1.429 . S
C2407 H2429 0.950 . S
C2408 H2404 0.949 . S
C2408 C2416 1.574 . S
C2408 C2424 1.368 . S
H2409 C2417 0.950 . S
H2410 C2415 0.950 . S
H2411 C2416 0.949 . S
H2412 C2418 0.950 . S
H2413 C2419 0.950 . S
H2414 C2420 0.949 . S
C2415 H2410 0.950 . S
C2415 C2417 1.327 . S
C2415 C2421 1.429 . S
C2416 C2408 1.574 . S
C2416 H2411 0.949 . S
C2416 C2422 1.368 . S
C2417 C2401 1.349 . S
C2417 H2409 0.950 . S
C2417 C2415 1.327 . S
C2418 C2406 1.349 . S
C2418 H2412 0.950 . S
C2418 C2419 1.327 . S
C2419 H2413 0.950 . S
C2419 C2418 1.327 . S
C2419 C2423 1.429 . S
C2420 C2403 1.574 . S
C2420 H2414 0.949 . S
C2420 C2424 1.368 . S
C2421 C2402 1.429 . S
C2421 C2415 1.429 . S
C2421 C2422 1.523 . S
C2422 C2403 1.368 . S
C2422 C2416 1.368 . S
C2422 C2421 1.523 . S
C2423 C2407 1.429 . S
C2423 C2419 1.429 . S
C2423 C2424 1.523 . S
C2424 C2408 1.368 . S
C2424 C2420 1.368 . S
C2424 C2423 1.523 . S
H2425 C2400 0.950 1_554 S
H2426 C2402 0.953 1_554 S
H2427 C2403 0.949 . S
H2428 C2405 0.950 . S
H2429 C2407 0.950 . S
C2430 C2431 1.349 . S
C2430 C2432 1.327 . S
C2430 H2455 0.950 . S
C2431 C2430 1.349 . S
C2431 C2447 1.349 . S
C2432 C2430 1.327 . S
C2432 C2451 1.429 . S
C2432 H2456 0.950 . S
C2433 C2450 1.574 . S
C2433 C2452 1.368 . S
C2433 H2457 0.949 . S
H2434 C2438 0.949 . S
C2435 C2436 1.349 . S
C2435 C2437 1.327 . S
C2435 H2458 0.950 . S
C2436 C2435 1.349 . S
C2436 C2448 1.349 . S
C2437 C2435 1.327 . S
C2437 C2453 1.429 . S
C2437 H2459 0.950 . S
C2438 H2434 0.949 . S
C2438 C2446 1.574 . S
C2438 C2454 1.368 . S
H2439 C2447 0.950 . S
H2440 C2445 0.950 . S
H2441 C2446 0.949 . S
H2442 C2448 0.950 . S
H2443 C2449 0.950 . S
H2444 C2450 0.949 . S
C2445 H2440 0.950 . S
C2445 C2447 1.327 . S
C2445 C2451 1.429 . S
C2446 C2438 1.574 . S
C2446 H2441 0.949 . S
C2446 C2452 1.368 . S
C2447 C2431 1.349 . S
C2447 H2439 0.950 . S
C2447 C2445 1.327 . S
C2448 C2436 1.349 . S
C2448 H2442 0.950 . S
C2448 C2449 1.327 . S
C2449 H2443 0.950 . S
C2449 C2448 1.327 . S
C2449 C2453 1.429 . S
C2450 C2433 1.574 . S
C2450 H2444 0.949 . S
C2450 C2454 1.368 . S
C2451 C2432 1.429 . S
C2451 C2445 1.429 . S
C2451 C2452 1.523 . S
C2452 C2433 1.368 . S
C2452 C2446 1.368 . S
C2452 C2451 1.523 . S
C2453 C2437 1.429 . S
C2453 C2449 1.429 . S
C2453 C2454 1.523 . S
C2454 C2438 1.368 . S
C2454 C2450 1.368 . S
C2454 C2453 1.523 . S
H2455 C2430 0.950 . S
H2456 C2432 0.950 . S
H2457 C2433 0.949 . S
H2458 C2435 0.950 . S
H2459 C2437 0.950 . S
C2460 C2461 1.349 . S
C2460 C2462 1.327 . S
C2460 H2485 0.950 . S
C2461 C2460 1.349 . S
C2461 C2477 1.349 . S
C2462 C2460 1.327 . S
C2462 C2481 1.429 . S
C2462 H2486 0.950 . S
C2463 C2480 1.574 1_655 S
C2463 C2482 1.368 . S
C2463 H2487 0.949 . S
H2464 C2468 0.949 . S
C2465 C2466 1.349 . S
C2465 C2467 1.327 . S
C2465 H2488 0.950 . S
C2466 C2465 1.349 . S
C2466 C2478 1.349 . S
C2467 C2465 1.327 . S
C2467 C2483 1.429 . S
C2467 H2489 0.950 . S
C2468 H2464 0.949 . S
C2468 C2476 1.574 . S
C2468 C2484 1.368 . S
H2469 C2477 0.950 . S
H2470 C2475 0.950 . S
H2471 C2476 0.949 . S
H2472 C2478 0.950 . S
H2473 C2479 0.950 . S
H2474 C2480 0.949 . S
C2475 H2470 0.950 . S
C2475 C2477 1.327 . S
C2475 C2481 1.429 . S
C2476 C2468 1.574 . S
C2476 H2471 0.949 . S
C2476 C2482 1.368 1_455 S
C2477 C2461 1.349 . S
C2477 H2469 0.950 . S
C2477 C2475 1.327 . S
C2478 C2466 1.349 . S
C2478 H2472 0.950 . S
C2478 C2479 1.327 . S
C2479 H2473 0.950 . S
C2479 C2478 1.327 . S
C2479 C2483 1.429 . S
C2480 C2463 1.574 1_455 S
C2480 H2474 0.949 . S
C2480 C2484 1.368 . S
C2481 C2462 1.429 . S
C2481 C2475 1.429 . S
C2481 C2482 1.523 . S
C2482 C2463 1.368 . S
C2482 C2476 1.368 1_655 S
C2482 C2481 1.523 . S
C2483 C2467 1.429 . S
C2483 C2479 1.429 . S
C2483 C2484 1.523 . S
C2484 C2468 1.368 . S
C2484 C2480 1.368 . S
C2484 C2483 1.523 . S
H2485 C2460 0.950 . S
H2486 C2462 0.950 . S
H2487 C2463 0.949 . S
H2488 C2465 0.950 . S
H2489 C2467 0.950 . S
C2490 C2491 1.349 . S
C2490 C2492 1.327 . S
C2490 H2515 0.950 . S
C2491 C2490 1.349 . S
C2491 C2507 1.349 . S
C2492 C2490 1.327 . S
C2492 C2511 1.429 . S
C2492 H2516 0.950 . S
C2493 C2510 1.574 . S
C2493 C2512 1.368 . S
C2493 H2517 0.949 . S
H2494 C2498 0.949 . S
C2495 C2496 1.349 . S
C2495 C2497 1.327 . S
C2495 H2518 0.950 . S
C2496 C2495 1.349 . S
C2496 C2508 1.349 . S
C2497 C2495 1.327 . S
C2497 C2513 1.429 . S
C2497 H2519 0.950 . S
C2498 H2494 0.949 . S
C2498 C2506 1.574 . S
C2498 C2514 1.368 . S
H2499 C2507 0.950 . S
H2500 C2505 0.950 . S
H2501 C2506 0.949 . S
H2502 C2508 0.950 . S
H2503 C2509 0.950 . S
H2504 C2510 0.949 . S
C2505 H2500 0.950 . S
C2505 C2507 1.327 . S
C2505 C2511 1.429 . S
C2506 C2498 1.574 . S
C2506 H2501 0.949 . S
C2506 C2512 1.368 . S
C2507 C2491 1.349 . S
C2507 H2499 0.950 . S
C2507 C2505 1.327 . S
C2508 C2496 1.349 . S
C2508 H2502 0.950 . S
C2508 C2509 1.327 . S
C2509 H2503 0.950 . S
C2509 C2508 1.327 . S
C2509 C2513 1.429 . S
C2510 C2493 1.574 . S
C2510 H2504 0.949 . S
C2510 C2514 1.368 . S
C2511 C2492 1.429 . S
C2511 C2505 1.429 . S
C2511 C2512 1.523 . S
C2512 C2493 1.368 . S
C2512 C2506 1.368 . S
C2512 C2511 1.523 . S
C2513 C2497 1.429 . S
C2513 C2509 1.429 . S
C2513 C2514 1.523 . S
C2514 C2498 1.368 . S
C2514 C2510 1.368 . S
C2514 C2513 1.523 . S
H2515 C2490 0.950 . S
H2516 C2492 0.950 . S
H2517 C2493 0.949 . S
H2518 C2495 0.950 . S
H2519 C2497 0.950 . S
C2520 C2521 1.349 . S
C2520 C2522 1.327 . S
C2520 H2545 0.950 . S
C2521 C2520 1.349 . S
C2521 C2537 1.349 . S
C2522 C2520 1.327 . S
C2522 C2541 1.429 . S
C2522 H2546 0.950 . S
C2523 C2540 1.581 1_455 S
C2523 C2542 1.368 . S
C2523 H2547 0.949 . S
H2524 C2528 0.949 . S
C2525 C2526 1.349 . S
C2525 C2527 1.327 . S
C2525 H2548 0.950 . S
C2526 C2525 1.349 . S
C2526 C2538 1.349 . S
C2527 C2525 1.327 . S
C2527 C2543 1.429 . S
C2527 H2549 0.950 . S
C2528 H2524 0.949 . S
C2528 C2536 1.574 . S
C2528 C2544 1.368 1_455 S
H2529 C2537 0.950 . S
H2530 C2535 0.950 . S
H2531 C2536 0.949 . S
H2532 C2538 0.950 . S
H2533 C2539 0.950 . S
H2534 C2540 0.949 . S
C2535 H2530 0.950 . S
C2535 C2537 1.327 . S
C2535 C2541 1.429 . S
C2536 C2528 1.574 . S
C2536 H2531 0.949 . S
C2536 C2542 1.368 1_565 S
C2537 C2521 1.349 . S
C2537 H2529 0.950 . S
C2537 C2535 1.327 . S
C2538 C2526 1.349 . S
C2538 H2532 0.950 . S
C2538 C2539 1.327 . S
C2539 H2533 0.950 . S
C2539 C2538 1.327 . S
C2539 C2543 1.429 . S
C2540 C2523 1.581 1_655 S
C2540 H2534 0.949 . S
C2540 C2544 1.359 1_545 S
C2541 C2522 1.429 . S
C2541 C2535 1.429 . S
C2541 C2542 1.523 . S
C2542 C2523 1.368 . S
C2542 C2536 1.368 1_545 S
C2542 C2541 1.523 . S
C2543 C2527 1.429 . S
C2543 C2539 1.429 . S
C2543 C2544 1.523 . S
C2544 C2528 1.368 1_655 S
C2544 C2540 1.359 1_565 S
C2544 C2543 1.523 . S
H2545 C2520 0.950 . S
H2546 C2522 0.950 . S
H2547 C2523 0.949 . S
H2548 C2525 0.950 . S
H2549 C2527 0.950 . S
C2550 C2551 1.349 . S
C2550 C2552 1.327 . S
C2550 H2575 0.950 . S
C2551 C2550 1.349 . S
C2551 C2567 1.349 . S
C2552 C2550 1.327 . S
C2552 C2571 1.429 . S
C2552 H2576 0.950 . S
C2553 C2570 1.574 . S
C2553 C2572 1.368 . S
C2553 H2577 0.949 . S
H2554 C2558 0.949 . S
C2555 C2556 1.349 . S
C2555 C2557 1.327 . S
C2555 H2578 0.950 . S
C2556 C2555 1.349 . S
C2556 C2568 1.349 . S
C2557 C2555 1.327 . S
C2557 C2573 1.429 . S
C2557 H2579 0.950 . S
C2558 H2554 0.949 . S
C2558 C2566 1.574 . S
C2558 C2574 1.368 . S
H2559 C2567 0.950 . S
H2560 C2565 0.950 . S
H2561 C2566 0.949 . S
H2562 C2568 0.950 . S
H2563 C2569 0.950 . S
H2564 C2570 0.949 . S
C2565 H2560 0.950 . S
C2565 C2567 1.327 . S
C2565 C2571 1.429 . S
C2566 C2558 1.574 . S
C2566 H2561 0.949 . S
C2566 C2572 1.368 . S
C2567 C2551 1.349 . S
C2567 H2559 0.950 . S
C2567 C2565 1.327 . S
C2568 C2556 1.349 . S
C2568 H2562 0.950 . S
C2568 C2569 1.327 . S
C2569 H2563 0.950 . S
C2569 C2568 1.327 . S
C2569 C2573 1.429 . S
C2570 C2553 1.574 . S
C2570 H2564 0.949 . S
C2570 C2574 1.368 . S
C2571 C2552 1.429 . S
C2571 C2565 1.429 . S
C2571 C2572 1.523 . S
C2572 C2553 1.368 . S
C2572 C2566 1.368 . S
C2572 C2571 1.523 . S
C2573 C2557 1.429 . S
C2573 C2569 1.429 . S
C2573 C2574 1.523 . S
C2574 C2558 1.368 . S
C2574 C2570 1.368 . S
C2574 C2573 1.523 . S
H2575 C2550 0.950 . S
H2576 C2552 0.950 . S
H2577 C2553 0.949 . S
H2578 C2555 0.950 . S
H2579 C2557 0.950 . S
C2580 C2581 1.349 . S
C2580 C2582 1.327 . S
C2580 H2605 0.950 . S
C2581 C2580 1.349 . S
C2581 C2597 1.349 . S
C2582 C2580 1.327 . S
C2582 C2601 1.429 . S
C2582 H2606 0.950 . S
C2583 C2600 1.574 1_655 S
C2583 C2602 1.368 . S
C2583 H2607 0.949 . S
H2584 C2588 0.949 . S
C2585 C2586 1.349 . S
C2585 C2587 1.327 . S
C2585 H2608 0.950 . S
C2586 C2585 1.349 . S
C2586 C2598 1.349 . S
C2587 C2585 1.327 . S
C2587 C2603 1.429 . S
C2587 H2609 0.950 . S
C2588 H2584 0.949 . S
C2588 C2596 1.574 . S
C2588 C2604 1.368 . S
H2589 C2597 0.950 . S
H2590 C2595 0.950 . S
H2591 C2596 0.949 1_655 S
H2592 C2598 0.950 . S
H2593 C2599 0.950 . S
H2594 C2600 0.949 . S
C2595 H2590 0.950 . S
C2595 C2597 1.327 . S
C2595 C2601 1.429 . S
C2596 C2588 1.574 . S
C2596 H2591 0.949 1_455 S
C2596 C2602 1.368 1_455 S
C2597 C2581 1.349 . S
C2597 H2589 0.950 . S
C2597 C2595 1.327 . S
C2598 C2586 1.349 . S
C2598 H2592 0.950 . S
C2598 C2599 1.327 . S
C2599 H2593 0.950 . S
C2599 C2598 1.327 . S
C2599 C2603 1.429 . S
C2600 C2583 1.574 1_455 S
C2600 H2594 0.949 . S
C2600 C2604 1.368 . S
C2601 C2582 1.429 . S
C2601 C2595 1.429 . S
C2601 C2602 1.523 . S
C2602 C2583 1.368 . S
C2602 C2596 1.368 1_655 S
C2602 C2601 1.523 . S
C2603 C2587 1.429 . S
C2603 C2599 1.429 . S
C2603 C2604 1.523 . S
C2604 C2588 1.368 . S
C2604 C2600 1.368 . S
C2604 C2603 1.523 . S
H2605 C2580 0.950 . S
H2606 C2582 0.950 . S
H2607 C2583 0.949 . S
H2608 C2585 0.950 . S
H2609 C2587 0.950 . S
C2610 C2611 1.349 . S
C2610 C2612 1.327 . S
C2610 H2635 0.950 . S
C2611 C2610 1.349 . S
C2611 C2627 1.349 . S
C2612 C2610 1.327 . S
C2612 C2631 1.429 . S
C2612 H2636 0.950 . S
C2613 C2630 1.574 . S
C2613 C2632 1.368 . S
C2613 H2637 0.949 . S
H2614 C2618 0.949 . S
C2615 C2616 1.349 . S
C2615 C2617 1.327 . S
C2615 H2638 0.950 . S
C2616 C2615 1.349 . S
C2616 C2628 1.349 . S
C2617 C2615 1.327 . S
C2617 C2633 1.429 . S
C2617 H2639 0.950 . S
C2618 H2614 0.949 . S
C2618 C2626 1.574 . S
C2618 C2634 1.368 . S
H2619 C2627 0.950 . S
H2620 C2625 0.950 . S
H2621 C2626 0.949 . S
H2622 C2628 0.950 . S
H2623 C2629 0.950 . S
H2624 C2630 0.949 . S
C2625 H2620 0.950 . S
C2625 C2627 1.327 . S
C2625 C2631 1.429 . S
C2626 C2618 1.574 . S
C2626 H2621 0.949 . S
C2626 C2632 1.368 . S
C2627 C2611 1.349 . S
C2627 H2619 0.950 . S
C2627 C2625 1.327 . S
C2628 C2616 1.349 . S
C2628 H2622 0.950 . S
C2628 C2629 1.327 . S
C2629 H2623 0.950 . S
C2629 C2628 1.327 . S
C2629 C2633 1.429 . S
C2630 C2613 1.574 . S
C2630 H2624 0.949 . S
C2630 C2634 1.368 . S
C2631 C2612 1.429 . S
C2631 C2625 1.429 . S
C2631 C2632 1.523 . S
C2632 C2613 1.368 . S
C2632 C2626 1.368 . S
C2632 C2631 1.523 . S
C2633 C2617 1.429 . S
C2633 C2629 1.429 . S
C2633 C2634 1.523 . S
C2634 C2618 1.368 . S
C2634 C2630 1.368 . S
C2634 C2633 1.523 . S
H2635 C2610 0.950 . S
H2636 C2612 0.950 . S
H2637 C2613 0.949 . S
H2638 C2615 0.950 . S
H2639 C2617 0.950 . S
C2640 C2641 1.349 . S
C2640 C2642 1.327 . S
C2640 H2665 0.950 . S
C2641 C2640 1.349 . S
C2641 C2657 1.349 . S
C2642 C2640 1.327 . S
C2642 C2661 1.429 . S
C2642 H2666 0.950 . S
C2643 C2660 1.574 . S
C2643 C2662 1.368 . S
C2643 H2667 0.949 . S
H2644 C2648 0.949 . S
C2645 C2646 1.349 . S
C2645 C2647 1.327 . S
C2645 H2668 0.950 . S
C2646 C2645 1.349 . S
C2646 C2658 1.349 . S
C2647 C2645 1.327 . S
C2647 C2663 1.429 . S
C2647 H2669 0.950 . S
C2648 H2644 0.949 . S
C2648 C2656 1.574 . S
C2648 C2664 1.368 . S
H2649 C2657 0.950 . S
H2650 C2655 0.950 . S
H2651 C2656 0.949 . S
H2652 C2658 0.950 . S
H2653 C2659 0.950 . S
H2654 C2660 0.949 . S
C2655 H2650 0.950 . S
C2655 C2657 1.327 . S
C2655 C2661 1.429 . S
C2656 C2648 1.574 . S
C2656 H2651 0.949 . S
C2656 C2662 1.368 . S
C2657 C2641 1.349 . S
C2657 H2649 0.950 . S
C2657 C2655 1.327 . S
C2658 C2646 1.349 . S
C2658 H2652 0.950 . S
C2658 C2659 1.327 . S
C2659 H2653 0.950 . S
C2659 C2658 1.327 . S
C2659 C2663 1.429 . S
C2660 C2643 1.574 . S
C2660 H2654 0.949 . S
C2660 C2664 1.368 . S
C2661 C2642 1.429 . S
C2661 C2655 1.429 . S
C2661 C2662 1.523 . S
C2662 C2643 1.368 . S
C2662 C2656 1.368 . S
C2662 C2661 1.523 . S
C2663 C2647 1.429 . S
C2663 C2659 1.429 . S
C2663 C2664 1.523 . S
C2664 C2648 1.368 . S
C2664 C2660 1.368 . S
C2664 C2663 1.523 . S
H2665 C2640 0.950 . S
H2666 C2642 0.950 . S
H2667 C2643 0.949 . S
H2668 C2645 0.950 . S
H2669 C2647 0.950 . S
C2670 C2671 1.349 . S
C2670 C2672 1.327 . S
C2670 H2695 0.950 . S
C2671 C2670 1.349 . S
C2671 C2687 1.349 . S
C2672 C2670 1.327 . S
C2672 C2691 1.429 . S
C2672 H2696 0.950 . S
C2673 C2690 1.574 . S
C2673 C2692 1.368 . S
C2673 H2697 0.949 . S
H2674 C2678 0.949 1_556 S
C2675 C2676 1.349 . S
C2675 C2677 1.327 . S
C2675 H2698 0.950 . S
C2676 C2675 1.349 . S
C2676 C2688 1.349 . S
C2677 C2675 1.327 . S
C2677 C2693 1.429 . S
C2677 H2699 0.950 . S
C2678 H2674 0.949 1_554 S
C2678 C2686 1.574 . S
C2678 C2694 1.368 . S
H2679 C2687 0.950 . S
H2680 C2685 0.950 . S
H2681 C2686 0.949 . S
H2682 C2688 0.950 . S
H2683 C2689 0.950 . S
H2684 C2690 0.949 . S
C2685 H2680 0.950 . S
C2685 C2687 1.327 . S
C2685 C2691 1.429 . S
C2686 C2678 1.574 . S
C2686 H2681 0.949 . S
C2686 C2692 1.368 . S
C2687 C2671 1.349 . S
C2687 H2679 0.950 . S
C2687 C2685 1.327 . S
C2688 C2676 1.349 . S
C2688 H2682 0.950 . S
C2688 C2689 1.327 . S
C2689 H2683 0.950 . S
C2689 C2688 1.327 . S
C2689 C2693 1.429 . S
C2690 C2673 1.574 . S
C2690 H2684 0.949 . S
C2690 C2694 1.368 . S
C2691 C2672 1.429 . S
C2691 C2685 1.429 . S
C2691 C2692 1.523 . S
C2692 C2673 1.368 . S
C2692 C2686 1.368 . S
C2692 C2691 1.523 . S
C2693 C2677 1.429 . S
C2693 C2689 1.429 . S
C2693 C2694 1.523 1_556 S
C2694 C2678 1.368 . S
C2694 C2690 1.368 . S
C2694 C2693 1.523 1_554 S
H2695 C2670 0.950 . S
H2696 C2672 0.950 . S
H2697 C2673 0.949 . S
H2698 C2675 0.950 . S
H2699 C2677 0.950 . S
C2700 C2701 1.349 . S
C2700 C2702 1.327 . S
C2700 H2725 0.950 . S
C2701 C2700 1.349 . S
C2701 C2717 1.349 . S
C2702 C2700 1.327 . S
C2702 C2721 1.429 . S
C2702 H2726 0.950 . S
C2703 C2720 1.574 . S
C2703 C2722 1.368 . S
C2703 H2727 0.949 . S
H2704 C2708 0.949 . S
C2705 C2706 1.349 . S
C2705 C2707 1.327 . S
C2705 H2728 0.950 . S
C2706 C2705 1.349 . S
C2706 C2718 1.349 . S
C2707 C2705 1.327 . S
C2707 C2723 1.429 . S
C2707 H2729 0.950 . S
C2708 H2704 0.949 . S
C2708 C2716 1.574 . S
C2708 C2724 1.368 . S
H2709 C2717 0.950 1_455 S
H2710 C2715 0.950 . S
H2711 C2716 0.949 . S
H2712 C2718 0.950 . S
H2713 C2719 0.950 . S
H2714 C2720 0.949 . S
C2715 H2710 0.950 . S
C2715 C2717 1.327 . S
C2715 C2721 1.429 . S
C2716 C2708 1.574 . S
C2716 H2711 0.949 . S
C2716 C2722 1.368 . S
C2717 C2701 1.349 . S
C2717 H2709 0.950 1_655 S
C2717 C2715 1.327 . S
C2718 C2706 1.349 . S
C2718 H2712 0.950 . S
C2718 C2719 1.327 . S
C2719 H2713 0.950 . S
C2719 C2718 1.327 . S
C2719 C2723 1.429 . S
C2720 C2703 1.574 . S
C2720 H2714 0.949 . S
C2720 C2724 1.368 . S
C2721 C2702 1.429 . S
C2721 C2715 1.429 . S
C2721 C2722 1.523 . S
C2722 C2703 1.368 . S
C2722 C2716 1.368 . S
C2722 C2721 1.523 . S
C2723 C2707 1.429 . S
C2723 C2719 1.429 . S
C2723 C2724 1.523 . S
C2724 C2708 1.368 . S
C2724 C2720 1.368 . S
C2724 C2723 1.523 . S
H2725 C2700 0.950 . S
H2726 C2702 0.950 . S
H2727 C2703 0.949 . S
H2728 C2705 0.950 . S
H2729 C2707 0.950 . S
C2730 C2731 1.349 . S
C2730 C2732 1.327 . S
C2730 H2755 0.950 . S
C2731 C2730 1.349 . S
C2731 C2747 1.349 . S
C2732 C2730 1.327 . S
C2732 C2751 1.429 . S
C2732 H2756 0.950 . S
C2733 C2750 1.574 . S
C2733 C2752 1.368 . S
C2733 H2757 0.949 . S
H2734 C2738 0.949 . S
C2735 C2736 1.349 . S
C2735 C2737 1.327 . S
C2735 H2758 0.950 . S
C2736 C2735 1.349 . S
C2736 C2748 1.349 . S
C2737 C2735 1.327 . S
C2737 C2753 1.429 . S
C2737 H2759 0.950 . S
C2738 H2734 0.949 . S
C2738 C2746 1.574 . S
C2738 C2754 1.368 . S
H2739 C2747 0.950 . S
H2740 C2745 0.950 . S
H2741 C2746 0.949 . S
H2742 C2748 0.950 . S
H2743 C2749 0.950 . S
H2744 C2750 0.949 . S
C2745 H2740 0.950 . S
C2745 C2747 1.327 . S
C2745 C2751 1.429 . S
C2746 C2738 1.574 . S
C2746 H2741 0.949 . S
C2746 C2752 1.368 . S
C2747 C2731 1.349 . S
C2747 H2739 0.950 . S
C2747 C2745 1.327 . S
C2748 C2736 1.349 . S
C2748 H2742 0.950 . S
C2748 C2749 1.327 . S
C2749 H2743 0.950 . S
C2749 C2748 1.327 . S
C2749 C2753 1.429 . S
C2750 C2733 1.574 . S
C2750 H2744 0.949 . S
C2750 C2754 1.368 . S
C2751 C2732 1.429 . S
C2751 C2745 1.429 . S
C2751 C2752 1.523 . S
C2752 C2733 1.368 . S
C2752 C2746 1.368 . S
C2752 C2751 1.523 . S
C2753 C2737 1.429 . S
C2753 C2749 1.429 . S
C2753 C2754 1.523 . S
C2754 C2738 1.368 . S
C2754 C2750 1.368 . S
C2754 C2753 1.523 . S
H2755 C2730 0.950 . S
H2756 C2732 0.950 . S
H2757 C2733 0.949 . S
H2758 C2735 0.950 . S
H2759 C2737 0.950 . S
C2760 C2761 1.349 . S
C2760 C2762 1.327 . S
C2760 H2785 0.950 . S
C2761 C2760 1.349 . S
C2761 C2777 1.349 . S
C2762 C2760 1.327 . S
C2762 C2781 1.429 . S
C2762 H2786 0.950 . S
C2763 C2780 1.574 . S
C2763 C2782 1.368 . S
C2763 H2787 0.949 . S
H2764 C2768 0.949 . S
C2765 C2766 1.349 . S
C2765 C2767 1.327 . S
C2765 H2788 0.950 . S
C2766 C2765 1.349 . S
C2766 C2778 1.349 . S
C2767 C2765 1.327 . S
C2767 C2783 1.429 . S
C2767 H2789 0.950 . S
C2768 H2764 0.949 . S
C2768 C2776 1.574 . S
C2768 C2784 1.368 . S
H2769 C2777 0.950 . S
H2770 C2775 0.950 . S
H2771 C2776 0.949 . S
H2772 C2778 0.950 . S
H2773 C2779 0.950 . S
H2774 C2780 0.949 . S
C2775 H2770 0.950 . S
C2775 C2777 1.327 . S
C2775 C2781 1.429 . S
C2776 C2768 1.574 . S
C2776 H2771 0.949 . S
C2776 C2782 1.368 . S
C2777 C2761 1.349 . S
C2777 H2769 0.950 . S
C2777 C2775 1.327 . S
C2778 C2766 1.349 . S
C2778 H2772 0.950 . S
C2778 C2779 1.327 . S
C2779 H2773 0.950 . S
C2779 C2778 1.327 . S
C2779 C2783 1.429 . S
C2780 C2763 1.574 . S
C2780 H2774 0.949 . S
C2780 C2784 1.368 . S
C2781 C2762 1.429 . S
C2781 C2775 1.429 . S
C2781 C2782 1.523 . S
C2782 C2763 1.368 . S
C2782 C2776 1.368 . S
C2782 C2781 1.523 . S
C2783 C2767 1.429 . S
C2783 C2779 1.429 . S
C2783 C2784 1.523 . S
C2784 C2768 1.368 . S
C2784 C2780 1.368 . S
C2784 C2783 1.523 . S
H2785 C2760 0.950 . S
H2786 C2762 0.950 . S
H2787 C2763 0.949 . S
H2788 C2765 0.950 . S
H2789 C2767 0.950 . S
C2790 C2791 1.349 . S
C2790 C2792 1.327 . S
C2790 H2815 0.950 . S
C2791 C2790 1.349 . S
C2791 C2807 1.349 1_455 S
C2792 C2790 1.327 . S
C2792 C2811 1.429 1_455 S
C2792 H2816 0.950 . S
C2793 C2810 1.574 . S
C2793 C2812 1.368 . S
C2793 H2817 0.949 1_554 S
H2794 C2798 0.949 1_455 S
C2795 C2796 1.349 . S
C2795 C2797 1.327 . S
C2795 H2818 0.950 . S
C2796 C2795 1.349 . S
C2796 C2808 1.349 . S
C2797 C2795 1.327 . S
C2797 C2813 1.429 . S
C2797 H2819 0.950 . S
C2798 H2794 0.949 1_655 S
C2798 C2806 1.574 1_655 S
C2798 C2814 1.368 . S
H2799 C2807 0.950 . S
H2800 C2805 0.950 . S
H2801 C2806 0.949 . S
H2802 C2808 0.950 . S
H2803 C2809 0.950 . S
H2804 C2810 0.949 . S
C2805 H2800 0.950 . S
C2805 C2807 1.327 . S
C2805 C2811 1.429 . S
C2806 C2798 1.574 1_455 S
C2806 H2801 0.949 . S
C2806 C2812 1.368 1_455 S
C2807 C2791 1.349 1_655 S
C2807 H2799 0.950 . S
C2807 C2805 1.327 . S
C2808 C2796 1.349 . S
C2808 H2802 0.950 . S
C2808 C2809 1.327 . S
C2809 H2803 0.950 . S
C2809 C2808 1.327 . S
C2809 C2813 1.429 . S
C2810 C2793 1.574 . S
C2810 H2804 0.949 . S
C2810 C2814 1.368 . S
C2811 C2792 1.429 1_655 S
C2811 C2805 1.429 . S
C2811 C2812 1.523 1_556 S
C2812 C2793 1.368 . S
C2812 C2806 1.368 1_655 S
C2812 C2811 1.523 1_554 S
C2813 C2797 1.429 . S
C2813 C2809 1.429 . S
C2813 C2814 1.523 . S
C2814 C2798 1.368 . S
C2814 C2810 1.368 . S
C2814 C2813 1.523 . S
H2815 C2790 0.950 . S
H2816 C2792 0.950 . S
H2817 C2793 0.949 1_556 S
H2818 C2795 0.950 . S
H2819 C2797 0.950 . S
C2820 C2821 1.349 . S
C2820 C2822 1.327 . S
C2820 H2845 0.950 . S
C2821 C2820 1.349 . S
C2821 C2837 1.349 . S
C2822 C2820 1.327 . S
C2822 C2841 1.429 . S
C2822 H2846 0.950 . S
C2823 C2840 1.574 . S
C2823 C2842 1.368 . S
C2823 H2847 0.949 . S
H2824 C2828 0.949 . S
C2825 C2826 1.349 . S
C2825 C2827 1.327 . S
C2825 H2848 0.950 . S
C2826 C2825 1.349 . S
C2826 C2838 1.349 . S
C2827 C2825 1.327 . S
C2827 C2843 1.429 . S
C2827 H2849 0.950 . S
C2828 H2824 0.949 . S
C2828 C2836 1.574 . S
C2828 C2844 1.368 . S
H2829 C2837 0.950 . S
H2830 C2835 0.950 . S
H2831 C2836 0.949 . S
H2832 C2838 0.950 . S
H2833 C2839 0.950 . S
H2834 C2840 0.949 . S
C2835 H2830 0.950 . S
C2835 C2837 1.327 . S
C2835 C2841 1.429 . S
C2836 C2828 1.574 . S
C2836 H2831 0.949 . S
C2836 C2842 1.368 . S
C2837 C2821 1.349 . S
C2837 H2829 0.950 . S
C2837 C2835 1.327 . S
C2838 C2826 1.349 . S
C2838 H2832 0.950 . S
C2838 C2839 1.327 . S
C2839 H2833 0.950 . S
C2839 C2838 1.327 . S
C2839 C2843 1.429 . S
C2840 C2823 1.574 . S
C2840 H2834 0.949 . S
C2840 C2844 1.368 . S
C2841 C2822 1.429 . S
C2841 C2835 1.429 . S
C2841 C2842 1.523 . S
C2842 C2823 1.368 . S
C2842 C2836 1.368 . S
C2842 C2841 1.523 . S
C2843 C2827 1.429 . S
C2843 C2839 1.429 . S
C2843 C2844 1.523 . S
C2844 C2828 1.368 . S
C2844 C2840 1.368 . S
C2844 C2843 1.523 . S
H2845 C2820 0.950 . S
H2846 C2822 0.950 . S
H2847 C2823 0.949 . S
H2848 C2825 0.950 . S
H2849 C2827 0.950 . S
C2850 C2851 1.349 . S
C2850 C2852 1.327 . S
C2850 H2875 0.950 . S
C2851 C2850 1.349 . S
C2851 C2867 1.349 . S
C2852 C2850 1.327 . S
C2852 C2871 1.429 . S
C2852 H2876 0.950 . S
C2853 C2870 1.574 . S
C2853 C2872 1.368 . S
C2853 H2877 0.949 . S
H2854 C2858 0.949 . S
C2855 C2856 1.349 . S
C2855 C2857 1.327 . S
C2855 H2878 0.950 . S
C2856 C2855 1.349 . S
C2856 C2868 1.349 . S
C2857 C2855 1.327 . S
C2857 C2873 1.429 . S
C2857 H2879 0.950 . S
C2858 H2854 0.949 . S
C2858 C2866 1.574 . S
C2858 C2874 1.368 . S
H2859 C2867 0.950 . S
H2860 C2865 0.950 . S
H2861 C2866 0.949 . S
H2862 C2868 0.950 . S
H2863 C2869 0.950 . S
H2864 C2870 0.949 . S
C2865 H2860 0.950 . S
C2865 C2867 1.327 . S
C2865 C2871 1.429 . S
C2866 C2858 1.574 . S
C2866 H2861 0.949 . S
C2866 C2872 1.368 . S
C2867 C2851 1.349 . S
C2867 H2859 0.950 . S
C2867 C2865 1.327 . S
C2868 C2856 1.349 . S
C2868 H2862 0.950 . S
C2868 C2869 1.327 . S
C2869 H2863 0.950 . S
C2869 C2868 1.327 . S
C2869 C2873 1.429 . S
C2870 C2853 1.574 . S
C2870 H2864 0.949 . S
C2870 C2874 1.368 . S
C2871 C2852 1.429 . S
C2871 C2865 1.429 . S
C2871 C2872 1.523 . S
C2872 C2853 1.368 . S
C2872 C2866 1.368 . S
C2872 C2871 1.523 . S
C2873 C2857 1.429 . S
C2873 C2869 1.429 . S
C2873 C2874 1.523 . S
C2874 C2858 1.368 . S
C2874 C2870 1.368 . S
C2874 C2873 1.523 . S
H2875 C2850 0.950 . S
H2876 C2852 0.950 . S
H2877 C2853 0.949 . S
H2878 C2855 0.950 . S
H2879 C2857 0.950 . S
C2880 C2881 1.349 . S
C2880 C2882 1.327 . S
C2880 H2905 0.950 . S
C2881 C2880 1.349 . S
C2881 C2897 1.349 . S
C2882 C2880 1.327 . S
C2882 C2901 1.429 . S
C2882 H2906 0.950 . S
C2883 C2900 1.574 . S
C2883 C2902 1.368 . S
C2883 H2907 0.949 . S
H2884 C2888 0.949 . S
C2885 C2886 1.349 . S
C2885 C2887 1.327 . S
C2885 H2908 0.950 . S
C2886 C2885 1.349 . S
C2886 C2898 1.349 . S
C2887 C2885 1.327 . S
C2887 C2903 1.429 . S
C2887 H2909 0.950 . S
C2888 H2884 0.949 . S
C2888 C2896 1.574 . S
C2888 C2904 1.368 . S
H2889 C2897 0.950 . S
H2890 C2895 0.950 . S
H2891 C2896 0.949 . S
H2892 C2898 0.950 . S
H2893 C2899 0.950 . S
H2894 C2900 0.949 . S
C2895 H2890 0.950 . S
C2895 C2897 1.327 . S
C2895 C2901 1.429 . S
C2896 C2888 1.574 . S
C2896 H2891 0.949 . S
C2896 C2902 1.368 . S
C2897 C2881 1.349 . S
C2897 H2889 0.950 . S
C2897 C2895 1.327 . S
C2898 C2886 1.349 . S
C2898 H2892 0.950 . S
C2898 C2899 1.327 . S
C2899 H2893 0.950 . S
C2899 C2898 1.327 . S
C2899 C2903 1.429 . S
C2900 C2883 1.574 . S
C2900 H2894 0.949 . S
C2900 C2904 1.368 . S
C2901 C2882 1.429 . S
C2901 C2895 1.429 . S
C2901 C2902 1.523 . S
C2902 C2883 1.368 . S
C2902 C2896 1.368 . S
C2902 C2901 1.523 . S
C2903 C2887 1.429 . S
C2903 C2899 1.429 . S
C2903 C2904 1.523 . S
C2904 C2888 1.368 . S
C2904 C2900 1.368 . S
C2904 C2903 1.523 . S
H2905 C2880 0.950 . S
H2906 C2882 0.950 . S
H2907 C2883 0.949 . S
H2908 C2885 0.950 . S
H2909 C2887 0.950 . S
C2910 C2911 1.349 . S
C2910 C2912 1.327 . S
C2910 H2935 0.950 . S
C2911 C2910 1.349 . S
C2911 C2927 1.349 . S
C2912 C2910 1.327 . S
C2912 C2931 1.429 . S
C2912 H2936 0.950 . S
C2913 C2930 1.574 . S
C2913 C2932 1.368 . S
C2913 H2937 0.949 . S
H2914 C2918 0.949 . S
C2915 C2916 1.349 . S
C2915 C2917 1.327 . S
C2915 H2938 0.950 . S
C2916 C2915 1.349 . S
C2916 C2928 1.349 . S
C2917 C2915 1.327 . S
C2917 C2933 1.429 . S
C2917 H2939 0.950 . S
C2918 H2914 0.949 . S
C2918 C2926 1.574 . S
C2918 C2934 1.368 . S
H2919 C2927 0.950 1_554 S
H2920 C2925 0.950 . S
H2921 C2926 0.949 . S
H2922 C2928 0.950 . S
H2923 C2929 0.950 . S
H2924 C2930 0.949 . S
C2925 H2920 0.950 . S
C2925 C2927 1.327 . S
C2925 C2931 1.429 . S
C2926 C2918 1.574 . S
C2926 H2921 0.949 . S
C2926 C2932 1.368 . S
C2927 C2911 1.349 . S
C2927 H2919 0.950 1_556 S
C2927 C2925 1.327 . S
C2928 C2916 1.349 . S
C2928 H2922 0.950 . S
C2928 C2929 1.327 . S
C2929 H2923 0.950 . S
C2929 C2928 1.327 . S
C2929 C2933 1.429 . S
C2930 C2913 1.574 . S
C2930 H2924 0.949 . S
C2930 C2934 1.368 . S
C2931 C2912 1.429 . S
C2931 C2925 1.429 . S
C2931 C2932 1.523 . S
C2932 C2913 1.368 . S
C2932 C2926 1.368 . S
C2932 C2931 1.523 . S
C2933 C2917 1.429 . S
C2933 C2929 1.429 . S
C2933 C2934 1.523 . S
C2934 C2918 1.368 . S
C2934 C2930 1.368 . S
C2934 C2933 1.523 . S
H2935 C2910 0.950 . S
H2936 C2912 0.950 . S
H2937 C2913 0.949 . S
H2938 C2915 0.950 . S
H2939 C2917 0.950 . S
C2940 C2941 1.349 . S
C2940 C2942 1.327 . S
C2940 H2965 0.950 . S
C2941 C2940 1.349 . S
C2941 C2957 1.349 . S
C2942 C2940 1.327 . S
C2942 C2961 1.429 . S
C2942 H2966 0.950 . S
C2943 C2960 1.574 . S
C2943 C2962 1.368 . S
C2943 H2967 0.949 . S
H2944 C2948 0.949 . S
C2945 C2946 1.349 . S
C2945 C2947 1.327 . S
C2945 H2968 0.950 . S
C2946 C2945 1.349 . S
C2946 C2958 1.349 . S
C2947 C2945 1.327 . S
C2947 C2963 1.429 . S
C2947 H2969 0.950 . S
C2948 H2944 0.949 . S
C2948 C2956 1.574 . S
C2948 C2964 1.368 . S
H2949 C2957 0.950 . S
H2950 C2955 0.950 . S
H2951 C2956 0.949 . S
H2952 C2958 0.950 . S
H2953 C2959 0.950 . S
H2954 C2960 0.949 . S
C2955 H2950 0.950 . S
C2955 C2957 1.327 . S
C2955 C2961 1.429 . S
C2956 C2948 1.574 . S
C2956 H2951 0.949 . S
C2956 C2962 1.368 . S
C2957 C2941 1.349 . S
C2957 H2949 0.950 . S
C2957 C2955 1.327 . S
C2958 C2946 1.349 . S
C2958 H2952 0.950 . S
C2958 C2959 1.327 . S
C2959 H2953 0.950 . S
C2959 C2958 1.327 . S
C2959 C2963 1.429 . S
C2960 C2943 1.574 . S
C2960 H2954 0.949 . S
C2960 C2964 1.368 . S
C2961 C2942 1.429 . S
C2961 C2955 1.429 . S
C2961 C2962 1.523 . S
C2962 C2943 1.368 . S
C2962 C2956 1.368 . S
C2962 C2961 1.523 . S
C2963 C2947 1.429 . S
C2963 C2959 1.429 . S
C2963 C2964 1.523 . S
C2964 C2948 1.368 . S
C2964 C2960 1.368 . S
C2964 C2963 1.523 . S
H2965 C2940 0.950 . S
H2966 C2942 0.950 . S
H2967 C2943 0.949 . S
H2968 C2945 0.950 . S
H2969 C2947 0.950 . S
C2970 C2971 1.349 . S
C2970 C2972 1.327 . S
C2970 H2995 0.950 . S
C2971 C2970 1.349 . S
C2971 C2987 1.349 . S
C2972 C2970 1.327 . S
C2972 C2991 1.429 . S
C2972 H2996 0.950 . S
C2973 C2990 1.574 . S
C2973 C2992 1.368 . S
C2973 H2997 0.949 . S
H2974 C2978 0.949 . S
C2975 C2976 1.349 . S
C2975 C2977 1.327 . S
C2975 H2998 0.950 . S
C2976 C2975 1.349 . S
C2976 C2988 1.349 . S
C2977 C2975 1.327 . S
C2977 C2993 1.429 . S
C2977 H2999 0.950 . S
C2978 H2974 0.949 . S
C2978 C2986 1.574 . S
C2978 C2994 1.368 . S
H2979 C2987 0.950 . S
H2980 C2985 0.950 . S
H2981 C2986 0.949 . S
H2982 C2988 0.950 . S
H2983 C2989 0.950 . S
H2984 C2990 0.949 . S
C2985 H2980 0.950 . S
C2985 C2987 1.327 . S
C2985 C2991 1.429 . S
C2986 C2978 1.574 . S
C2986 H2981 0.949 . S
C2986 C2992 1.368 . S
C2987 C2971 1.349 . S
C2987 H2979 0.950 . S
C2987 C2985 1.327 . S
C2988 C2976 1.349 . S
C2988 H2982 0.950 . S
C2988 C2989 1.327 . S
C2989 H2983 0.950 . S
C2989 C2988 1.327 . S
C2989 C2993 1.429 . S
C2990 C2973 1.574 . S
C2990 H2984 0.949 . S
C2990 C2994 1.368 . S
C2991 C2972 1.429 . S
C2991 C2985 1.429 . S
C2991 C2992 1.523 . S
C2992 C2973 1.368 . S
C2992 C2986 1.368 . S
C2992 C2991 1.523 . S
C2993 C2977 1.429 . S
C2993 C2989 1.429 . S
C2993 C2994 1.523 . S
C2994 C2978 1.368 . S
C2994 C2990 1.368 . S
C2994 C2993 1.523 . S
H2995 C2970 0.950 . S
H2996 C2972 0.950 . S
H2997 C2973 0.949 . S
H2998 C2975 0.950 . S
H2999 C2977 0.950 . S
C3000 C3001 1.349 . S
C3000 C3002 1.327 . S
C3000 H3025 0.950 . S
C3001 C3000 1.349 . S
C3001 C3017 1.349 . S
C3002 C3000 1.327 . S
C3002 C3021 1.429 . S
C3002 H3026 0.950 . S
C3003 C3020 1.574 . S
C3003 C3022 1.368 . S
C3003 H3027 0.949 . S
H3004 C3008 0.949 . S
C3005 C3006 1.349 . S
C3005 C3007 1.327 . S
C3005 H3028 0.950 . S
C3006 C3005 1.349 . S
C3006 C3018 1.349 . S
C3007 C3005 1.327 . S
C3007 C3023 1.429 . S
C3007 H3029 0.950 . S
C3008 H3004 0.949 . S
C3008 C3016 1.574 . S
C3008 C3024 1.368 . S
H3009 C3017 0.950 . S
H3010 C3015 0.950 . S
H3011 C3016 0.949 . S
H3012 C3018 0.950 . S
H3013 C3019 0.950 . S
H3014 C3020 0.949 . S
C3015 H3010 0.950 . S
C3015 C3017 1.327 . S
C3015 C3021 1.429 . S
C3016 C3008 1.574 . S
C3016 H3011 0.949 . S
C3016 C3022 1.368 . S
C3017 C3001 1.349 . S
C3017 H3009 0.950 . S
C3017 C3015 1.327 . S
C3018 C3006 1.349 . S
C3018 H3012 0.950 . S
C3018 C3019 1.327 . S
C3019 H3013 0.950 . S
C3019 C3018 1.327 . S
C3019 C3023 1.429 . S
C3020 C3003 1.574 . S
C3020 H3014 0.949 . S
C3020 C3024 1.368 . S
C3021 C3002 1.429 . S
C3021 C3015 1.429 . S
C3021 C3022 1.523 . S
C3022 C3003 1.368 . S
C3022 C3016 1.368 . S
C3022 C3021 1.523 . S
C3023 C3007 1.429 . S
C3023 C3019 1.429 . S
C3023 C3024 1.523 . S
C3024 C3008 1.368 . S
C3024 C3020 1.368 . S
C3024 C3023 1.523 . S
H3025 C3000 0.950 . S
H3026 C3002 0.950 . S
H3027 C3003 0.949 . S
H3028 C3005 0.950 . S
H3029 C3007 0.950 . S
C3030 C3031 1.349 . S
C3030 C3032 1.327 . S
C3030 H3055 0.950 . S
C3031 C3030 1.349 . S
C3031 C3047 1.349 . S
C3032 C3030 1.327 . S
C3032 C3051 1.429 . S
C3032 H3056 0.950 . S
C3033 C3050 1.574 . S
C3033 C3052 1.368 . S
C3033 H3057 0.949 . S
H3034 C3038 0.949 . S
C3035 C3036 1.349 . S
C3035 C3037 1.327 . S
C3035 H3058 0.950 . S
C3036 C3035 1.349 . S
C3036 C3048 1.349 . S
C3037 C3035 1.327 . S
C3037 C3053 1.429 . S
C3037 H3059 0.950 . S
C3038 H3034 0.949 . S
C3038 C3046 1.574 . S
C3038 C3054 1.368 . S
H3039 C3047 0.950 . S
H3040 C3045 0.950 . S
H3041 C3046 0.949 . S
H3042 C3048 0.950 . S
H3043 C3049 0.950 . S
H3044 C3050 0.949 . S
C3045 H3040 0.950 . S
C3045 C3047 1.327 . S
C3045 C3051 1.429 . S
C3046 C3038 1.574 . S
C3046 H3041 0.949 . S
C3046 C3052 1.368 . S
C3047 C3031 1.349 . S
C3047 H3039 0.950 . S
C3047 C3045 1.327 . S
C3048 C3036 1.349 . S
C3048 H3042 0.950 . S
C3048 C3049 1.327 . S
C3049 H3043 0.950 . S
C3049 C3048 1.327 . S
C3049 C3053 1.429 . S
C3050 C3033 1.574 . S
C3050 H3044 0.949 . S
C3050 C3054 1.368 . S
C3051 C3032 1.429 . S
C3051 C3045 1.429 . S
C3051 C3052 1.523 . S
C3052 C3033 1.368 . S
C3052 C3046 1.368 . S
C3052 C3051 1.523 . S
C3053 C3037 1.429 . S
C3053 C3049 1.429 . S
C3053 C3054 1.523 . S
C3054 C3038 1.368 . S
C3054 C3050 1.368 . S
C3054 C3053 1.523 . S
H3055 C3030 0.950 . S
H3056 C3032 0.950 . S
H3057 C3033 0.949 . S
H3058 C3035 0.950 . S
H3059 C3037 0.950 . S
C3060 C3061 1.349 . S
C3060 C3062 1.327 . S
C3060 H3085 0.950 . S
C3061 C3060 1.349 . S
C3061 C3077 1.349 . S
C3062 C3060 1.327 . S
C3062 C3081 1.429 . S
C3062 H3086 0.950 . S
C3063 C3080 1.574 . S
C3063 C3082 1.368 . S
C3063 H3087 0.949 . S
H3064 C3068 0.949 . S
C3065 C3066 1.349 . S
C3065 C3067 1.327 . S
C3065 H3088 0.950 . S
C3066 C3065 1.349 . S
C3066 C3078 1.349 . S
C3067 C3065 1.327 . S
C3067 C3083 1.429 . S
C3067 H3089 0.950 . S
C3068 H3064 0.949 . S
C3068 C3076 1.574 . S
C3068 C3084 1.368 . S
H3069 C3077 0.950 . S
H3070 C3075 0.950 . S
H3071 C3076 0.949 . S
H3072 C3078 0.950 . S
H3073 C3079 0.950 . S
H3074 C3080 0.949 . S
C3075 H3070 0.950 . S
C3075 C3077 1.327 . S
C3075 C3081 1.429 . S
C3076 C3068 1.574 . S
C3076 H3071 0.949 . S
C3076 C3082 1.368 . S
C3077 C3061 1.349 . S
C3077 H3069 0.950 . S
C3077 C3075 1.327 . S
C3078 C3066 1.349 . S
C3078 H3072 0.950 . S
C3078 C3079 1.327 . S
C3079 H3073 0.950 . S
C3079 C3078 1.327 . S
C3079 C3083 1.429 . S
C3080 C3063 1.574 . S
C3080 H3074 0.949 . S
C3080 C3084 1.368 . S
C3081 C3062 1.429 . S
C3081 C3075 1.429 . S
C3081 C3082 1.523 . S
C3082 C3063 1.368 . S
C3082 C3076 1.368 . S
C3082 C3081 1.523 . S
C3083 C3067 1.429 . S
C3083 C3079 1.429 . S
C3083 C3084 1.523 . S
C3084 C3068 1.368 . S
C3084 C3080 1.368 . S
C3084 C3083 1.523 . S
H3085 C3060 0.950 . S
H3086 C3062 0.950 . S
H3087 C3063 0.949 . S
H3088 C3065 0.950 . S
H3089 C3067 0.950 . S
C3090 C3091 1.349 . S
C3090 C3092 1.327 . S
C3090 H3115 0.950 . S
C3091 C3090 1.349 . S
C3091 C3107 1.349 . S
C3092 C3090 1.327 . S
C3092 C3111 1.429 . S
C3092 H3116 0.950 . S
C3093 C3110 1.574 . S
C3093 C3112 1.368 . S
C3093 H3117 0.949 . S
H3094 C3098 0.949 . S
C3095 C3096 1.349 . S
C3095 C3097 1.327 . S
C3095 H3118 0.950 . S
C3096 C3095 1.349 . S
C3096 C3108 1.349 . S
C3097 C3095 1.327 . S
C3097 C3113 1.429 . S
C3097 H3119 0.950 . S
C3098 H3094 0.949 . S
C3098 C3106 1.574 . S
C3098 C3114 1.368 . S
H3099 C3107 0.950 . S
H3100 C3105 0.950 . S
H3101 C3106 0.949 . S
H3102 C3108 0.950 . S
H3103 C3109 0.950 . S
H3104 C3110 0.949 . S
C3105 H3100 0.950 . S
C3105 C3107 1.327 . S
C3105 C3111 1.429 . S
C3106 C3098 1.574 . S
C3106 H3101 0.949 . S
C3106 C3112 1.368 . S
C3107 C3091 1.349 . S
C3107 H3099 0.950 . S
C3107 C3105 1.327 . S
C3108 C3096 1.349 . S
C3108 H3102 0.950 . S
C3108 C3109 1.327 . S
C3109 H3103 0.950 . S
C3109 C3108 1.327 . S
C3109 C3113 1.429 . S
C3110 C3093 1.574 . S
C3110 H3104 0.949 . S
C3110 C3114 1.368 . S
C3111 C3092 1.429 . S
C3111 C3105 1.429 . S
C3111 C3112 1.523 . S
C3112 C3093 1.368 . S
C3112 C3106 1.368 . S
C3112 C3111 1.523 . S
C3113 C3097 1.429 . S
C3113 C3109 1.429 . S
C3113 C3114 1.523 . S
C3114 C3098 1.368 . S
C3114 C3110 1.368 . S
C3114 C3113 1.523 . S
H3115 C3090 0.950 . S
H3116 C3092 0.950 . S
H3117 C3093 0.949 . S
H3118 C3095 0.950 . S
H3119 C3097 0.950 . S
C3120 C3121 1.349 . S
C3120 C3122 1.327 . S
C3120 H3145 0.950 . S
C3121 C3120 1.349 . S
C3121 C3137 1.349 . S
C3122 C3120 1.327 . S
C3122 C3141 1.429 . S
C3122 H3146 0.950 . S
C3123 C3140 1.574 . S
C3123 C3142 1.368 . S
C3123 H3147 0.949 . S
H3124 C3128 0.949 . S
C3125 C3126 1.349 . S
C3125 C3127 1.327 . S
C3125 H3148 0.950 . S
C3126 C3125 1.349 . S
C3126 C3138 1.349 . S
C3127 C3125 1.327 . S
C3127 C3143 1.429 . S
C3127 H3149 0.950 . S
C3128 H3124 0.949 . S
C3128 C3136 1.574 . S
C3128 C3144 1.368 . S
H3129 C3137 0.950 . S
H3130 C3135 0.950 . S
H3131 C3136 0.949 . S
H3132 C3138 0.950 . S
H3133 C3139 0.950 . S
H3134 C3140 0.949 . S
C3135 H3130 0.950 . S
C3135 C3137 1.327 . S
C3135 C3141 1.429 . S
C3136 C3128 1.574 . S
C3136 H3131 0.949 . S
C3136 C3142 1.368 . S
C3137 C3121 1.349 . S
C3137 H3129 0.950 . S
C3137 C3135 1.327 . S
C3138 C3126 1.349 . S
C3138 H3132 0.950 . S
C3138 C3139 1.327 . S
C3139 H3133 0.950 . S
C3139 C3138 1.327 . S
C3139 C3143 1.429 . S
C3140 C3123 1.574 . S
C3140 H3134 0.949 . S
C3140 C3144 1.368 . S
C3141 C3122 1.429 . S
C3141 C3135 1.429 . S
C3141 C3142 1.523 . S
C3142 C3123 1.368 . S
C3142 C3136 1.368 . S
C3142 C3141 1.523 . S
C3143 C3127 1.429 . S
C3143 C3139 1.429 . S
C3143 C3144 1.523 . S
C3144 C3128 1.368 . S
C3144 C3140 1.368 . S
C3144 C3143 1.523 . S
H3145 C3120 0.950 . S
H3146 C3122 0.950 . S
H3147 C3123 0.949 . S
H3148 C3125 0.950 . S
H3149 C3127 0.950 . S
C3150 C3151 1.349 . S
C3150 C3152 1.327 . S
C3150 H3175 0.950 . S
C3151 C3150 1.349 . S
C3151 C3167 1.349 . S
C3152 C3150 1.327 . S
C3152 C3171 1.429 . S
C3152 H3176 0.950 . S
C3153 C3170 1.574 . S
C3153 C3172 1.368 . S
C3153 H3177 0.949 . S
H3154 C3158 0.949 . S
C3155 C3156 1.349 . S
C3155 C3157 1.327 . S
C3155 H3178 0.950 . S
C3156 C3155 1.349 . S
C3156 C3168 1.349 . S
C3157 C3155 1.327 . S
C3157 C3173 1.429 . S
C3157 H3179 0.950 . S
C3158 H3154 0.949 . S
C3158 C3166 1.574 . S
C3158 C3174 1.368 . S
H3159 C3167 0.950 . S
H3160 C3165 0.950 . S
H3161 C3166 0.949 . S
H3162 C3168 0.950 . S
H3163 C3169 0.950 . S
H3164 C3170 0.949 . S
C3165 H3160 0.950 . S
C3165 C3167 1.327 . S
C3165 C3171 1.429 . S
C3166 C3158 1.574 . S
C3166 H3161 0.949 . S
C3166 C3172 1.368 . S
C3167 C3151 1.349 . S
C3167 H3159 0.950 . S
C3167 C3165 1.327 . S
C3168 C3156 1.349 . S
C3168 H3162 0.950 . S
C3168 C3169 1.327 . S
C3169 H3163 0.950 . S
C3169 C3168 1.327 . S
C3169 C3173 1.429 . S
C3170 C3153 1.574 . S
C3170 H3164 0.949 . S
C3170 C3174 1.368 . S
C3171 C3152 1.429 . S
C3171 C3165 1.429 . S
C3171 C3172 1.523 . S
C3172 C3153 1.368 . S
C3172 C3166 1.368 . S
C3172 C3171 1.523 . S
C3173 C3157 1.429 . S
C3173 C3169 1.429 . S
C3173 C3174 1.523 . S
C3174 C3158 1.368 . S
C3174 C3170 1.368 . S
C3174 C3173 1.523 . S
H3175 C3150 0.950 . S
H3176 C3152 0.950 . S
H3177 C3153 0.949 . S
H3178 C3155 0.950 . S
H3179 C3157 0.950 . S
C3180 C3181 1.349 . S
C3180 C3182 1.327 . S
C3180 H3205 0.950 . S
C3181 C3180 1.349 . S
C3181 C3197 1.349 . S
C3182 C3180 1.327 . S
C3182 C3201 1.429 . S
C3182 H3206 0.950 . S
C3183 C3200 1.574 1_545 S
C3183 C3202 1.368 . S
C3183 H3207 0.949 . S
H3184 C3188 0.949 . S
C3185 C3186 1.349 . S
C3185 C3187 1.327 . S
C3185 H3208 0.950 . S
C3186 C3185 1.349 . S
C3186 C3198 1.349 . S
C3187 C3185 1.327 . S
C3187 C3203 1.429 . S
C3187 H3209 0.950 . S
C3188 H3184 0.949 . S
C3188 C3196 1.574 1_565 S
C3188 C3204 1.368 . S
H3189 C3197 0.950 . S
H3190 C3195 0.950 . S
H3191 C3196 0.949 . S
H3192 C3198 0.950 . S
H3193 C3199 0.950 . S
H3194 C3200 0.949 . S
C3195 H3190 0.950 . S
C3195 C3197 1.327 . S
C3195 C3201 1.429 . S
C3196 C3188 1.574 1_545 S
C3196 H3191 0.949 . S
C3196 C3202 1.368 . S
C3197 C3181 1.349 . S
C3197 H3189 0.950 . S
C3197 C3195 1.327 . S
C3198 C3186 1.349 . S
C3198 H3192 0.950 . S
C3198 C3199 1.327 . S
C3199 H3193 0.950 . S
C3199 C3198 1.327 . S
C3199 C3203 1.429 . S
C3200 C3183 1.574 1_565 S
C3200 H3194 0.949 . S
C3200 C3204 1.368 . S
C3201 C3182 1.429 . S
C3201 C3195 1.429 . S
C3201 C3202 1.523 . S
C3202 C3183 1.368 . S
C3202 C3196 1.368 . S
C3202 C3201 1.523 . S
C3203 C3187 1.429 . S
C3203 C3199 1.429 . S
C3203 C3204 1.523 . S
C3204 C3188 1.368 . S
C3204 C3200 1.368 . S
C3204 C3203 1.523 . S
H3205 C3180 0.950 . S
H3206 C3182 0.950 . S
H3207 C3183 0.949 . S
H3208 C3185 0.950 . S
H3209 C3187 0.950 . S
C3210 C3211 1.349 . S
C3210 C3212 1.327 . S
C3210 H3235 0.908 1_556 S
C3211 C3210 1.349 . S
C3211 C3227 1.349 . S
C3212 C3210 1.327 . S
C3212 C3231 1.429 . S
C3212 H3236 0.950 . S
C3213 C3230 1.574 . S
C3213 C3232 1.368 . S
C3213 H3237 0.949 . S
H3214 C3218 0.949 . S
C3215 C3216 1.349 . S
C3215 C3217 1.327 . S
C3215 H3238 0.950 . S
C3216 C3215 1.349 . S
C3216 C3228 1.349 . S
C3217 C3215 1.327 . S
C3217 C3233 1.429 . S
C3217 H3239 0.950 . S
C3218 H3214 0.949 . S
C3218 C3226 1.574 . S
C3218 C3234 1.368 . S
H3219 C3227 0.950 . S
H3220 C3225 0.950 . S
H3221 C3226 0.949 . S
H3222 C3228 0.950 . S
H3223 C3229 0.950 . S
H3224 C3230 0.949 . S
C3225 H3220 0.950 . S
C3225 C3227 1.327 . S
C3225 C3231 1.429 . S
C3226 C3218 1.574 . S
C3226 H3221 0.949 . S
C3226 C3232 1.368 . S
C3227 C3211 1.349 . S
C3227 H3219 0.950 . S
C3227 C3225 1.327 . S
C3228 C3216 1.349 . S
C3228 H3222 0.950 . S
C3228 C3229 1.327 . S
C3229 H3223 0.950 . S
C3229 C3228 1.327 . S
C3229 C3233 1.429 . S
C3230 C3213 1.574 . S
C3230 H3224 0.949 . S
C3230 C3234 1.368 . S
C3231 C3212 1.429 . S
C3231 C3225 1.429 . S
C3231 C3232 1.523 . S
C3232 C3213 1.368 . S
C3232 C3226 1.368 . S
C3232 C3231 1.523 . S
C3233 C3217 1.429 . S
C3233 C3229 1.429 . S
C3233 C3234 1.523 . S
C3234 C3218 1.368 . S
C3234 C3230 1.368 . S
C3234 C3233 1.523 . S
H3235 C3210 0.908 1_554 S
H3236 C3212 0.950 . S
H3237 C3213 0.949 . S
H3238 C3215 0.950 . S
H3239 C3217 0.950 . S
C3240 C3241 1.349 . S
C3240 C3242 1.327 . S
C3240 H3265 0.950 . S
C3241 C3240 1.349 . S
C3241 C3257 1.349 . S
C3242 C3240 1.327 . S
C3242 C3261 1.429 . S
C3242 H3266 0.950 . S
C3243 C3260 1.574 . S
C3243 C3262 1.368 . S
C3243 H3267 0.949 . S
H3244 C3248 0.949 . S
C3245 C3246 1.349 . S
C3245 C3247 1.327 . S
C3245 H3268 0.950 . S
C3246 C3245 1.349 . S
C3246 C3258 1.349 . S
C3247 C3245 1.327 . S
C3247 C3263 1.429 . S
C3247 H3269 0.950 . S
C3248 H3244 0.949 . S
C3248 C3256 1.574 . S
C3248 C3264 1.368 . S
H3249 C3257 0.950 . S
H3250 C3255 0.950 . S
H3251 C3256 0.949 . S
H3252 C3258 0.950 . S
H3253 C3259 0.950 . S
H3254 C3260 0.949 . S
C3255 H3250 0.950 . S
C3255 C3257 1.327 . S
C3255 C3261 1.429 . S
C3256 C3248 1.574 . S
C3256 H3251 0.949 . S
C3256 C3262 1.368 . S
C3257 C3241 1.349 . S
C3257 H3249 0.950 . S
C3257 C3255 1.327 . S
C3258 C3246 1.349 . S
C3258 H3252 0.950 . S
C3258 C3259 1.327 . S
C3259 H3253 0.950 . S
C3259 C3258 1.327 . S
C3259 C3263 1.429 . S
C3260 C3243 1.574 . S
C3260 H3254 0.949 . S
C3260 C3264 1.368 . S
C3261 C3242 1.429 . S
C3261 C3255 1.429 . S
C3261 C3262 1.523 . S
C3262 C3243 1.368 . S
C3262 C3256 1.368 . S
C3262 C3261 1.523 . S
C3263 C3247 1.429 . S
C3263 C3259 1.429 . S
C3263 C3264 1.523 . S
C3264 C3248 1.368 . S
C3264 C3260 1.368 . S
C3264 C3263 1.523 . S
H3265 C3240 0.950 . S
H3266 C3242 0.950 . S
H3267 C3243 0.949 . S
H3268 C3245 0.950 . S
H3269 C3247 0.950 . S
C3270 C3271 1.349 . S
C3270 C3272 1.327 . S
C3270 H3295 0.950 . S
C3271 C3270 1.349 . S
C3271 C3287 1.349 . S
C3272 C3270 1.327 . S
C3272 C3291 1.429 . S
C3272 H3296 0.950 . S
C3273 C3290 1.574 . S
C3273 C3292 1.368 . S
C3273 H3297 0.949 . S
H3274 C3278 0.949 . S
C3275 C3276 1.349 . S
C3275 C3277 1.327 . S
C3275 H3298 0.950 . S
C3276 C3275 1.349 . S
C3276 C3288 1.349 . S
C3277 C3275 1.327 . S
C3277 C3293 1.429 . S
C3277 H3299 0.950 . S
C3278 H3274 0.949 . S
C3278 C3286 1.574 . S
C3278 C3294 1.368 . S
H3279 C3287 0.950 . S
H3280 C3285 0.950 . S
H3281 C3286 0.949 . S
H3282 C3288 0.950 . S
H3283 C3289 0.950 . S
H3284 C3290 0.949 . S
C3285 H3280 0.950 . S
C3285 C3287 1.327 . S
C3285 C3291 1.429 . S
C3286 C3278 1.574 . S
C3286 H3281 0.949 . S
C3286 C3292 1.368 . S
C3287 C3271 1.349 . S
C3287 H3279 0.950 . S
C3287 C3285 1.327 . S
C3288 C3276 1.349 . S
C3288 H3282 0.950 . S
C3288 C3289 1.327 . S
C3289 H3283 0.950 . S
C3289 C3288 1.327 . S
C3289 C3293 1.429 . S
C3290 C3273 1.574 . S
C3290 H3284 0.949 . S
C3290 C3294 1.368 . S
C3291 C3272 1.429 . S
C3291 C3285 1.429 . S
C3291 C3292 1.523 . S
C3292 C3273 1.368 . S
C3292 C3286 1.368 . S
C3292 C3291 1.523 . S
C3293 C3277 1.429 . S
C3293 C3289 1.429 . S
C3293 C3294 1.523 . S
C3294 C3278 1.368 . S
C3294 C3290 1.368 . S
C3294 C3293 1.523 . S
H3295 C3270 0.950 . S
H3296 C3272 0.950 . S
H3297 C3273 0.949 . S
H3298 C3275 0.950 . S
H3299 C3277 0.950 . S
C3300 C3301 1.349 . S
C3300 C3302 1.327 . S
C3300 H3325 0.950 . S
C3301 C3300 1.349 . S
C3301 C3317 1.349 . S
C3302 C3300 1.327 . S
C3302 C3321 1.429 . S
C3302 H3326 0.950 . S
C3303 C3320 1.574 . S
C3303 C3322 1.368 . S
C3303 H3327 0.949 . S
H3304 C3308 0.949 . S
C3305 C3306 1.349 . S
C3305 C3307 1.327 . S
C3305 H3328 0.950 . S
C3306 C3305 1.349 . S
C3306 C3318 1.349 . S
C3307 C3305 1.327 . S
C3307 C3323 1.429 . S
C3307 H3329 0.950 . S
C3308 H3304 0.949 . S
C3308 C3316 1.574 . S
C3308 C3324 1.368 . S
H3309 C3317 0.950 . S
H3310 C3315 0.950 . S
H3311 C3316 0.949 . S
H3312 C3318 0.950 . S
H3313 C3319 0.950 . S
H3314 C3320 0.949 . S
C3315 H3310 0.950 . S
C3315 C3317 1.327 . S
C3315 C3321 1.429 . S
C3316 C3308 1.574 . S
C3316 H3311 0.949 . S
C3316 C3322 1.368 . S
C3317 C3301 1.349 . S
C3317 H3309 0.950 . S
C3317 C3315 1.327 . S
C3318 C3306 1.349 . S
C3318 H3312 0.950 . S
C3318 C3319 1.327 . S
C3319 H3313 0.950 . S
C3319 C3318 1.327 . S
C3319 C3323 1.429 . S
C3320 C3303 1.574 . S
C3320 H3314 0.949 . S
C3320 C3324 1.368 . S
C3321 C3302 1.429 . S
C3321 C3315 1.429 . S
C3321 C3322 1.523 . S
C3322 C3303 1.368 . S
C3322 C3316 1.368 . S
C3322 C3321 1.523 . S
C3323 C3307 1.429 . S
C3323 C3319 1.429 . S
C3323 C3324 1.523 . S
C3324 C3308 1.368 . S
C3324 C3320 1.368 . S
C3324 C3323 1.523 . S
H3325 C3300 0.950 . S
H3326 C3302 0.950 . S
H3327 C3303 0.949 . S
H3328 C3305 0.950 . S
H3329 C3307 0.950 . S
C3330 C3331 1.349 . S
C3330 C3332 1.327 . S
C3330 H3355 0.950 1_565 S
C3331 C3330 1.349 . S
C3331 C3347 1.349 . S
C3332 C3330 1.327 . S
C3332 C3351 1.429 . S
C3332 H3356 0.950 . S
C3333 C3350 1.574 1_655 S
C3333 C3352 1.368 . S
C3333 H3357 0.949 . S
H3334 C3338 0.949 . S
C3335 C3336 1.349 . S
C3335 C3337 1.327 . S
C3335 H3358 0.950 . S
C3336 C3335 1.349 . S
C3336 C3348 1.349 . S
C3337 C3335 1.327 . S
C3337 C3353 1.429 . S
C3337 H3359 0.950 . S
C3338 H3334 0.949 . S
C3338 C3346 1.574 1_455 S
C3338 C3354 1.368 . S
H3339 C3347 0.950 . S
H3340 C3345 0.950 . S
H3341 C3346 0.949 . S
H3342 C3348 0.950 . S
H3343 C3349 0.950 . S
H3344 C3350 0.949 . S
C3345 H3340 0.950 . S
C3345 C3347 1.327 . S
C3345 C3351 1.429 . S
C3346 C3338 1.574 1_655 S
C3346 H3341 0.949 . S
C3346 C3352 1.368 . S
C3347 C3331 1.349 . S
C3347 H3339 0.950 . S
C3347 C3345 1.327 . S
C3348 C3336 1.349 . S
C3348 H3342 0.950 . S
C3348 C3349 1.327 . S
C3349 H3343 0.950 . S
C3349 C3348 1.327 . S
C3349 C3353 1.429 . S
C3350 C3333 1.574 1_455 S
C3350 H3344 0.949 . S
C3350 C3354 1.368 . S
C3351 C3332 1.429 . S
C3351 C3345 1.429 . S
C3351 C3352 1.523 . S
C3352 C3333 1.368 . S
C3352 C3346 1.368 . S
C3352 C3351 1.523 . S
C3353 C3337 1.429 . S
C3353 C3349 1.429 . S
C3353 C3354 1.523 . S
C3354 C3338 1.368 . S
C3354 C3350 1.368 . S
C3354 C3353 1.523 . S
H3355 C3330 0.950 1_545 S
H3356 C3332 0.950 . S
H3357 C3333 0.949 . S
H3358 C3335 0.950 . S
H3359 C3337 0.950 . S
C3360 C3361 1.349 . S
C3360 C3362 1.327 . S
C3360 H3385 0.950 . S
C3361 C3360 1.349 . S
C3361 C3377 1.349 . S
C3362 C3360 1.327 . S
C3362 C3381 1.429 . S
C3362 H3386 0.950 . S
C3363 C3380 1.574 . S
C3363 C3382 1.368 . S
C3363 H3387 0.949 . S
H3364 C3368 0.949 . S
C3365 C3366 1.349 . S
C3365 C3367 1.327 . S
C3365 H3388 0.950 . S
C3366 C3365 1.349 . S
C3366 C3378 1.349 . S
C3367 C3365 1.327 . S
C3367 C3383 1.429 . S
C3367 H3389 0.950 . S
C3368 H3364 0.949 . S
C3368 C3376 1.574 . S
C3368 C3384 1.368 . S
H3369 C3377 0.950 . S
H3370 C3375 0.950 . S
H3371 C3376 0.949 . S
H3372 C3378 0.950 . S
H3373 C3379 0.950 . S
H3374 C3380 0.949 . S
C3375 H3370 0.950 . S
C3375 C3377 1.327 . S
C3375 C3381 1.429 . S
C3376 C3368 1.574 . S
C3376 H3371 0.949 . S
C3376 C3382 1.368 . S
C3377 C3361 1.349 . S
C3377 H3369 0.950 . S
C3377 C3375 1.327 . S
C3378 C3366 1.349 . S
C3378 H3372 0.950 . S
C3378 C3379 1.327 . S
C3379 H3373 0.950 . S
C3379 C3378 1.327 . S
C3379 C3383 1.429 . S
C3380 C3363 1.574 . S
C3380 H3374 0.949 . S
C3380 C3384 1.368 . S
C3381 C3362 1.429 . S
C3381 C3375 1.429 . S
C3381 C3382 1.523 . S
C3382 C3363 1.368 . S
C3382 C3376 1.368 . S
C3382 C3381 1.523 . S
C3383 C3367 1.429 . S
C3383 C3379 1.429 . S
C3383 C3384 1.523 . S
C3384 C3368 1.368 . S
C3384 C3380 1.368 . S
C3384 C3383 1.523 . S
H3385 C3360 0.950 . S
H3386 C3362 0.950 . S
H3387 C3363 0.949 . S
H3388 C3365 0.950 . S
H3389 C3367 0.950 . S
C3390 C3391 1.349 . S
C3390 C3392 1.327 . S
C3390 H3415 0.950 . S
C3391 C3390 1.349 . S
C3391 C3407 1.349 . S
C3392 C3390 1.327 . S
C3392 C3411 1.429 . S
C3392 H3416 0.950 . S
C3393 C3410 1.574 1_556 S
C3393 C3412 1.368 . S
C3393 H3417 0.949 . S
H3394 C3398 0.949 . S
C3395 C3396 1.349 . S
C3395 C3397 1.327 . S
C3395 H3418 0.950 . S
C3396 C3395 1.349 . S
C3396 C3408 1.349 . S
C3397 C3395 1.327 . S
C3397 C3413 1.429 . S
C3397 H3419 0.950 . S
C3398 H3394 0.949 . S
C3398 C3406 1.574 1_554 S
C3398 C3414 1.368 . S
H3399 C3407 0.950 . S
H3400 C3405 0.950 . S
H3401 C3406 0.949 . S
H3402 C3408 0.950 . S
H3403 C3409 0.950 . S
H3404 C3410 0.949 . S
C3405 H3400 0.950 . S
C3405 C3407 1.327 . S
C3405 C3411 1.429 . S
C3406 C3398 1.574 1_556 S
C3406 H3401 0.949 . S
C3406 C3412 1.368 . S
C3407 C3391 1.349 . S
C3407 H3399 0.950 . S
C3407 C3405 1.327 . S
C3408 C3396 1.349 . S
C3408 H3402 0.950 . S
C3408 C3409 1.327 . S
C3409 H3403 0.950 . S
C3409 C3408 1.327 . S
C3409 C3413 1.429 . S
C3410 C3393 1.574 1_554 S
C3410 H3404 0.949 . S
C3410 C3414 1.368 . S
C3411 C3392 1.429 . S
C3411 C3405 1.429 . S
C3411 C3412 1.523 . S
C3412 C3393 1.368 . S
C3412 C3406 1.368 . S
C3412 C3411 1.523 . S
C3413 C3397 1.429 . S
C3413 C3409 1.429 . S
C3413 C3414 1.523 . S
C3414 C3398 1.368 . S
C3414 C3410 1.368 . S
C3414 C3413 1.523 . S
H3415 C3390 0.950 . S
H3416 C3392 0.950 . S
H3417 C3393 0.949 . S
H3418 C3395 0.950 . S
H3419 C3397 0.950 . S
C3420 C3421 1.349 . S
C3420 C3422 1.327 . S
C3420 H3445 0.950 . S
C3421 C3420 1.349 . S
C3421 C3437 1.349 . S
C3422 C3420 1.327 . S
C3422 C3441 1.429 . S
C3422 H3446 0.950 . S
C3423 C3440 1.574 . S
C3423 C3442 1.368 . S
C3423 H3447 0.949 . S
H3424 C3428 0.949 . S
C3425 C3426 1.349 . S
C3425 C3427 1.327 . S
C3425 H3448 0.950 . S
C3426 C3425 1.349 . S
C3426 C3438 1.349 . S
C3427 C3425 1.327 . S
C3427 C3443 1.429 . S
C3427 H3449 0.950 . S
C3428 H3424 0.949 . S
C3428 C3436 1.574 . S
C3428 C3444 1.368 . S
H3429 C3437 0.950 . S
H3430 C3435 0.950 . S
H3431 C3436 0.949 . S
H3432 C3438 0.950 . S
H3433 C3439 0.950 . S
H3434 C3440 0.949 . S
C3435 H3430 0.950 . S
C3435 C3437 1.327 . S
C3435 C3441 1.429 . S
C3436 C3428 1.574 . S
C3436 H3431 0.949 . S
C3436 C3442 1.368 . S
C3437 C3421 1.349 . S
C3437 H3429 0.950 . S
C3437 C3435 1.327 . S
C3438 C3426 1.349 . S
C3438 H3432 0.950 . S
C3438 C3439 1.327 . S
C3439 H3433 0.950 . S
C3439 C3438 1.327 . S
C3439 C3443 1.429 . S
C3440 C3423 1.574 . S
C3440 H3434 0.949 . S
C3440 C3444 1.368 . S
C3441 C3422 1.429 . S
C3441 C3435 1.429 . S
C3441 C3442 1.523 . S
C3442 C3423 1.368 . S
C3442 C3436 1.368 . S
C3442 C3441 1.523 . S
C3443 C3427 1.429 . S
C3443 C3439 1.429 . S
C3443 C3444 1.523 . S
C3444 C3428 1.368 . S
C3444 C3440 1.368 . S
C3444 C3443 1.523 . S
H3445 C3420 0.950 . S
H3446 C3422 0.950 . S
H3447 C3423 0.949 . S
H3448 C3425 0.950 . S
H3449 C3427 0.950 . S
C3450 C3451 1.349 . S
C3450 C3452 1.327 . S
C3450 H3475 0.950 . S
C3451 C3450 1.349 . S
C3451 C3467 1.349 . S
C3452 C3450 1.327 . S
C3452 C3471 1.429 . S
C3452 H3476 0.950 . S
C3453 C3470 1.574 . S
C3453 C3472 1.368 . S
C3453 H3477 0.949 . S
H3454 C3458 0.949 . S
C3455 C3456 1.349 . S
C3455 C3457 1.327 . S
C3455 H3478 0.950 . S
C3456 C3455 1.349 . S
C3456 C3468 1.349 . S
C3457 C3455 1.327 . S
C3457 C3473 1.429 . S
C3457 H3479 0.950 . S
C3458 H3454 0.949 . S
C3458 C3466 1.574 . S
C3458 C3474 1.368 . S
H3459 C3467 0.950 . S
H3460 C3465 0.950 . S
H3461 C3466 0.949 . S
H3462 C3468 0.950 . S
H3463 C3469 0.950 . S
H3464 C3470 0.949 . S
C3465 H3460 0.950 . S
C3465 C3467 1.327 . S
C3465 C3471 1.429 . S
C3466 C3458 1.574 . S
C3466 H3461 0.949 . S
C3466 C3472 1.368 . S
C3467 C3451 1.349 . S
C3467 H3459 0.950 . S
C3467 C3465 1.327 . S
C3468 C3456 1.349 . S
C3468 H3462 0.950 . S
C3468 C3469 1.327 . S
C3469 H3463 0.950 . S
C3469 C3468 1.327 . S
C3469 C3473 1.429 . S
C3470 C3453 1.574 . S
C3470 H3464 0.949 . S
C3470 C3474 1.368 . S
C3471 C3452 1.429 . S
C3471 C3465 1.429 . S
C3471 C3472 1.523 . S
C3472 C3453 1.368 . S
C3472 C3466 1.368 . S
C3472 C3471 1.523 . S
C3473 C3457 1.429 . S
C3473 C3469 1.429 . S
C3473 C3474 1.523 . S
C3474 C3458 1.368 . S
C3474 C3470 1.368 . S
C3474 C3473 1.523 . S
H3475 C3450 0.950 . S
H3476 C3452 0.950 . S
H3477 C3453 0.949 . S
H3478 C3455 0.950 . S
H3479 C3457 0.950 . S
C3480 C3481 1.349 . S
C3480 C3482 1.327 . S
C3480 H3505 0.950 . S
C3481 C3480 1.349 . S
C3481 C3497 1.349 . S
C3482 C3480 1.327 . S
C3482 C3501 1.429 . S
C3482 H3506 0.950 . S
C3483 C3500 1.574 . S
C3483 C3502 1.368 . S
C3483 H3507 0.949 . S
H3484 C3488 0.949 . S
C3485 C3486 1.349 . S
C3485 C3487 1.327 . S
C3485 H3508 0.950 . S
C3486 C3485 1.349 . S
C3486 C3498 1.349 . S
C3487 C3485 1.327 . S
C3487 C3503 1.429 . S
C3487 H3509 0.950 . S
C3488 H3484 0.949 . S
C3488 C3496 1.574 . S
C3488 C3504 1.368 . S
H3489 C3497 0.950 . S
H3490 C3495 0.950 . S
H3491 C3496 0.949 . S
H3492 C3498 0.950 . S
H3493 C3499 0.950 . S
H3494 C3500 0.949 . S
C3495 H3490 0.950 . S
C3495 C3497 1.327 . S
C3495 C3501 1.429 . S
C3496 C3488 1.574 . S
C3496 H3491 0.949 . S
C3496 C3502 1.368 . S
C3497 C3481 1.349 . S
C3497 H3489 0.950 . S
C3497 C3495 1.327 . S
C3498 C3486 1.349 . S
C3498 H3492 0.950 . S
C3498 C3499 1.327 . S
C3499 H3493 0.950 . S
C3499 C3498 1.327 . S
C3499 C3503 1.429 . S
C3500 C3483 1.574 . S
C3500 H3494 0.949 . S
C3500 C3504 1.368 . S
C3501 C3482 1.429 . S
C3501 C3495 1.429 . S
C3501 C3502 1.523 . S
C3502 C3483 1.368 . S
C3502 C3496 1.368 . S
C3502 C3501 1.523 . S
C3503 C3487 1.429 . S
C3503 C3499 1.429 . S
C3503 C3504 1.523 . S
C3504 C3488 1.368 . S
C3504 C3500 1.368 . S
C3504 C3503 1.523 . S
H3505 C3480 0.950 . S
H3506 C3482 0.950 . S
H3507 C3483 0.949 . S
H3508 C3485 0.950 . S
H3509 C3487 0.950 . S
C3510 C3511 1.349 . S
C3510 C3512 1.327 . S
C3510 H3535 0.950 . S
C3511 C3510 1.349 . S
C3511 C3527 1.349 . S
C3512 C3510 1.327 . S
C3512 C3531 1.429 . S
C3512 H3536 0.950 . S
C3513 C3530 1.574 . S
C3513 C3532 1.368 . S
C3513 H3537 0.949 . S
H3514 C3518 0.949 . S
C3515 C3516 1.349 . S
C3515 C3517 1.327 . S
C3515 H3538 0.950 . S
C3516 C3515 1.349 . S
C3516 C3528 1.349 . S
C3517 C3515 1.327 . S
C3517 C3533 1.429 . S
C3517 H3539 0.950 . S
C3518 H3514 0.949 . S
C3518 C3526 1.574 1_556 S
C3518 C3534 1.368 . S
H3519 C3527 0.950 . S
H3520 C3525 0.950 . S
H3521 C3526 0.949 . S
H3522 C3528 0.950 . S
H3523 C3529 0.950 . S
H3524 C3530 0.949 . S
C3525 H3520 0.950 . S
C3525 C3527 1.327 . S
C3525 C3531 1.429 . S
C3526 C3518 1.574 1_554 S
C3526 H3521 0.949 . S
C3526 C3532 1.368 . S
C3527 C3511 1.349 . S
C3527 H3519 0.950 . S
C3527 C3525 1.327 . S
C3528 C3516 1.349 . S
C3528 H3522 0.950 . S
C3528 C3529 1.327 . S
C3529 H3523 0.950 . S
C3529 C3528 1.327 . S
C3529 C3533 1.429 . S
C3530 C3513 1.574 . S
C3530 H3524 0.949 . S
C3530 C3534 1.368 1_554 S
C3531 C3512 1.429 . S
C3531 C3525 1.429 . S
C3531 C3532 1.523 . S
C3532 C3513 1.368 . S
C3532 C3526 1.368 . S
C3532 C3531 1.523 . S
C3533 C3517 1.429 . S
C3533 C3529 1.429 . S
C3533 C3534 1.523 . S
C3534 C3518 1.368 . S
C3534 C3530 1.368 1_556 S
C3534 C3533 1.523 . S
H3535 C3510 0.950 . S
H3536 C3512 0.950 . S
H3537 C3513 0.949 . S
H3538 C3515 0.950 . S
H3539 C3517 0.950 . S
C3540 C3541 1.349 . S
C3540 C3542 1.327 . S
C3540 H3565 0.950 . S
C3541 C3540 1.349 . S
C3541 C3557 1.349 . S
C3542 C3540 1.327 . S
C3542 C3561 1.429 . S
C3542 H3566 0.950 . S
C3543 C3560 1.574 . S
C3543 C3562 1.368 . S
C3543 H3567 0.949 . S
H3544 C3548 0.949 . S
C3545 C3546 1.349 . S
C3545 C3547 1.327 . S
C3545 H3568 0.950 . S
C3546 C3545 1.349 . S
C3546 C3558 1.349 . S
C3547 C3545 1.327 . S
C3547 C3563 1.429 . S
C3547 H3569 0.950 . S
C3548 H3544 0.949 . S
C3548 C3556 1.574 . S
C3548 C3564 1.368 . S
H3549 C3557 0.950 . S
H3550 C3555 0.950 . S
H3551 C3556 0.949 . S
H3552 C3558 0.950 . S
H3553 C3559 0.950 . S
H3554 C3560 0.949 . S
C3555 H3550 0.950 . S
C3555 C3557 1.327 . S
C3555 C3561 1.429 . S
C3556 C3548 1.574 . S
C3556 H3551 0.949 . S
C3556 C3562 1.368 . S
C3557 C3541 1.349 . S
C3557 H3549 0.950 . S
C3557 C3555 1.327 . S
C3558 C3546 1.349 . S
C3558 H3552 0.950 . S
C3558 C3559 1.327 . S
C3559 H3553 0.950 . S
C3559 C3558 1.327 . S
C3559 C3563 1.429 . S
C3560 C3543 1.574 . S
C3560 H3554 0.949 . S
C3560 C3564 1.368 . S
C3561 C3542 1.429 . S
C3561 C3555 1.429 . S
C3561 C3562 1.523 . S
C3562 C3543 1.368 . S
C3562 C3556 1.368 . S
C3562 C3561 1.523 . S
C3563 C3547 1.429 . S
C3563 C3559 1.429 . S
C3563 C3564 1.523 . S
C3564 C3548 1.368 . S
C3564 C3560 1.368 . S
C3564 C3563 1.523 . S
H3565 C3540 0.950 . S
H3566 C3542 0.950 . S
H3567 C3543 0.949 . S
H3568 C3545 0.950 . S
H3569 C3547 0.950 . S
C3570 C3571 1.349 . S
C3570 C3572 1.327 . S
C3570 H3595 0.950 . S
C3571 C3570 1.349 . S
C3571 C3587 1.349 . S
C3572 C3570 1.327 . S
C3572 C3591 1.429 . S
C3572 H3596 0.950 . S
C3573 C3590 1.574 . S
C3573 C3592 1.368 . S
C3573 H3597 0.949 . S
H3574 C3578 0.949 . S
C3575 C3576 1.349 . S
C3575 C3577 1.327 . S
C3575 H3598 0.950 . S
C3576 C3575 1.349 . S
C3576 C3588 1.349 . S
C3577 C3575 1.327 . S
C3577 C3593 1.429 . S
C3577 H3599 0.950 . S
C3578 H3574 0.949 . S
C3578 C3586 1.574 . S
C3578 C3594 1.368 . S
H3579 C3587 0.950 . S
H3580 C3585 0.950 . S
H3581 C3586 0.949 . S
H3582 C3588 0.950 . S
H3583 C3589 0.950 . S
H3584 C3590 0.949 . S
C3585 H3580 0.950 . S
C3585 C3587 1.327 . S
C3585 C3591 1.429 . S
C3586 C3578 1.574 . S
C3586 H3581 0.949 . S
C3586 C3592 1.368 . S
C3587 C3571 1.349 . S
C3587 H3579 0.950 . S
C3587 C3585 1.327 . S
C3588 C3576 1.349 . S
C3588 H3582 0.950 . S
C3588 C3589 1.327 . S
C3589 H3583 0.950 . S
C3589 C3588 1.327 . S
C3589 C3593 1.429 . S
C3590 C3573 1.574 . S
C3590 H3584 0.949 . S
C3590 C3594 1.368 . S
C3591 C3572 1.429 . S
C3591 C3585 1.429 . S
C3591 C3592 1.523 . S
C3592 C3573 1.368 . S
C3592 C3586 1.368 . S
C3592 C3591 1.523 . S
C3593 C3577 1.429 . S
C3593 C3589 1.429 . S
C3593 C3594 1.523 . S
C3594 C3578 1.368 . S
C3594 C3590 1.368 . S
C3594 C3593 1.523 . S
H3595 C3570 0.950 . S
H3596 C3572 0.950 . S
H3597 C3573 0.949 . S
H3598 C3575 0.950 . S
H3599 C3577 0.950 . S
C3600 C3601 1.349 . S
C3600 C3602 1.327 . S
C3600 H3625 0.950 . S
C3601 C3600 1.349 . S
C3601 C3617 1.349 . S
C3602 C3600 1.327 . S
C3602 C3621 1.429 . S
C3602 H3626 0.950 . S
C3603 C3620 1.574 . S
C3603 C3622 1.368 . S
C3603 H3627 0.949 . S
H3604 C3608 0.949 . S
C3605 C3606 1.349 . S
C3605 C3607 1.327 . S
C3605 H3628 0.950 . S
C3606 C3605 1.349 . S
C3606 C3618 1.349 . S
C3607 C3605 1.327 . S
C3607 C3623 1.429 . S
C3607 H3629 0.950 . S
C3608 H3604 0.949 . S
C3608 C3616 1.574 . S
C3608 C3624 1.368 . S
H3609 C3617 0.950 . S
H3610 C3615 0.950 . S
H3611 C3616 0.949 . S
H3612 C3618 0.950 . S
H3613 C3619 0.950 . S
H3614 C3620 0.949 . S
C3615 H3610 0.950 . S
C3615 C3617 1.327 . S
C3615 C3621 1.429 . S
C3616 C3608 1.574 . S
C3616 H3611 0.949 . S
C3616 C3622 1.368 . S
C3617 C3601 1.349 . S
C3617 H3609 0.950 . S
C3617 C3615 1.327 . S
C3618 C3606 1.349 . S
C3618 H3612 0.950 . S
C3618 C3619 1.327 . S
C3619 H3613 0.950 . S
C3619 C3618 1.327 . S
C3619 C3623 1.429 . S
C3620 C3603 1.574 . S
C3620 H3614 0.949 . S
C3620 C3624 1.368 . S
C3621 C3602 1.429 . S
C3621 C3615 1.429 . S
C3621 C3622 1.523 . S
C3622 C3603 1.368 . S
C3622 C3616 1.368 . S
C3622 C3621 1.523 . S
C3623 C3607 1.429 . S
C3623 C3619 1.429 . S
C3623 C3624 1.523 . S
C3624 C3608 1.368 . S
C3624 C3620 1.368 . S
C3624 C3623 1.523 . S
H3625 C3600 0.950 . S
H3626 C3602 0.950 . S
H3627 C3603 0.949 . S
H3628 C3605 0.950 . S
H3629 C3607 0.950 . S
C3630 C3631 1.349 . S
C3630 C3632 1.327 . S
C3630 H3655 0.950 . S
C3631 C3630 1.349 . S
C3631 C3647 1.349 . S
C3632 C3630 1.327 . S
C3632 C3651 1.429 . S
C3632 H3656 0.950 . S
C3633 C3650 1.574 . S
C3633 C3652 1.368 . S
C3633 H3657 0.949 . S
H3634 C3638 0.949 . S
C3635 C3636 1.349 . S
C3635 C3637 1.327 . S
C3635 H3658 0.950 . S
C3636 C3635 1.349 . S
C3636 C3648 1.349 . S
C3637 C3635 1.327 . S
C3637 C3653 1.429 . S
C3637 H3659 0.950 . S
C3638 H3634 0.949 . S
C3638 C3646 1.574 . S
C3638 C3654 1.368 . S
H3639 C3647 0.950 . S
H3640 C3645 0.950 . S
H3641 C3646 0.949 . S
H3642 C3648 0.950 . S
H3643 C3649 0.950 . S
H3644 C3650 0.949 . S
C3645 H3640 0.950 . S
C3645 C3647 1.327 . S
C3645 C3651 1.429 . S
C3646 C3638 1.574 . S
C3646 H3641 0.949 . S
C3646 C3652 1.368 . S
C3647 C3631 1.349 . S
C3647 H3639 0.950 . S
C3647 C3645 1.327 . S
C3648 C3636 1.349 . S
C3648 H3642 0.950 . S
C3648 C3649 1.327 . S
C3649 H3643 0.950 . S
C3649 C3648 1.327 . S
C3649 C3653 1.429 . S
C3650 C3633 1.574 . S
C3650 H3644 0.949 . S
C3650 C3654 1.368 . S
C3651 C3632 1.429 . S
C3651 C3645 1.429 . S
C3651 C3652 1.523 . S
C3652 C3633 1.368 . S
C3652 C3646 1.368 . S
C3652 C3651 1.523 . S
C3653 C3637 1.429 . S
C3653 C3649 1.429 . S
C3653 C3654 1.523 . S
C3654 C3638 1.368 . S
C3654 C3650 1.368 . S
C3654 C3653 1.523 . S
H3655 C3630 0.950 . S
H3656 C3632 0.950 . S
H3657 C3633 0.949 . S
H3658 C3635 0.950 . S
H3659 C3637 0.950 . S
C3660 C3661 1.349 . S
C3660 C3662 1.327 . S
C3660 H3685 0.950 . S
C3661 C3660 1.349 . S
C3661 C3677 1.349 . S
C3662 C3660 1.327 . S
C3662 C3681 1.429 . S
C3662 H3686 0.950 . S
C3663 C3680 1.574 . S
C3663 C3682 1.368 . S
C3663 H3687 0.949 . S
H3664 C3668 0.949 . S
C3665 C3666 1.349 . S
C3665 C3667 1.327 . S
C3665 H3688 0.950 . S
C3666 C3665 1.349 . S
C3666 C3678 1.349 . S
C3667 C3665 1.327 . S
C3667 C3683 1.429 . S
C3667 H3689 0.950 . S
C3668 H3664 0.949 . S
C3668 C3676 1.574 . S
C3668 C3684 1.368 . S
H3669 C3677 0.950 . S
H3670 C3675 0.950 . S
H3671 C3676 0.949 . S
H3672 C3678 0.950 . S
H3673 C3679 0.950 . S
H3674 C3680 0.949 . S
C3675 H3670 0.950 . S
C3675 C3677 1.327 . S
C3675 C3681 1.429 . S
C3676 C3668 1.574 . S
C3676 H3671 0.949 . S
C3676 C3682 1.368 . S
C3677 C3661 1.349 . S
C3677 H3669 0.950 . S
C3677 C3675 1.327 . S
C3678 C3666 1.349 . S
C3678 H3672 0.950 . S
C3678 C3679 1.327 . S
C3679 H3673 0.950 . S
C3679 C3678 1.327 . S
C3679 C3683 1.429 . S
C3680 C3663 1.574 . S
C3680 H3674 0.949 . S
C3680 C3684 1.368 . S
C3681 C3662 1.429 . S
C3681 C3675 1.429 . S
C3681 C3682 1.523 . S
C3682 C3663 1.368 . S
C3682 C3676 1.368 . S
C3682 C3681 1.523 . S
C3683 C3667 1.429 . S
C3683 C3679 1.429 . S
C3683 C3684 1.523 . S
C3684 C3668 1.368 . S
C3684 C3680 1.368 . S
C3684 C3683 1.523 . S
H3685 C3660 0.950 . S
H3686 C3662 0.950 . S
H3687 C3663 0.949 . S
H3688 C3665 0.950 . S
H3689 C3667 0.950 . S
C3690 C3691 1.349 . S
C3690 C3692 1.327 . S
C3690 H3715 0.950 . S
C3691 C3690 1.349 . S
C3691 C3707 1.349 . S
C3692 C3690 1.327 . S
C3692 C3711 1.429 . S
C3692 H3716 0.950 . S
C3693 C3710 1.574 . S
C3693 C3712 1.368 . S
C3693 H3717 0.949 . S
H3694 C3698 0.949 . S
C3695 C3696 1.349 . S
C3695 C3697 1.327 . S
C3695 H3718 0.950 . S
C3696 C3695 1.349 . S
C3696 C3708 1.349 . S
C3697 C3695 1.327 . S
C3697 C3713 1.429 . S
C3697 H3719 0.950 . S
C3698 H3694 0.949 . S
C3698 C3706 1.574 . S
C3698 C3714 1.368 . S
H3699 C3707 0.950 . S
H3700 C3705 0.950 . S
H3701 C3706 0.949 . S
H3702 C3708 0.950 . S
H3703 C3709 0.950 . S
H3704 C3710 0.949 . S
C3705 H3700 0.950 . S
C3705 C3707 1.327 . S
C3705 C3711 1.429 . S
C3706 C3698 1.574 . S
C3706 H3701 0.949 . S
C3706 C3712 1.368 . S
C3707 C3691 1.349 . S
C3707 H3699 0.950 . S
C3707 C3705 1.327 . S
C3708 C3696 1.349 . S
C3708 H3702 0.950 . S
C3708 C3709 1.327 . S
C3709 H3703 0.950 . S
C3709 C3708 1.327 . S
C3709 C3713 1.429 . S
C3710 C3693 1.574 . S
C3710 H3704 0.949 . S
C3710 C3714 1.368 . S
C3711 C3692 1.429 . S
C3711 C3705 1.429 . S
C3711 C3712 1.523 . S
C3712 C3693 1.368 . S
C3712 C3706 1.368 . S
C3712 C3711 1.523 . S
C3713 C3697 1.429 . S
C3713 C3709 1.429 . S
C3713 C3714 1.523 . S
C3714 C3698 1.368 . S
C3714 C3710 1.368 . S
C3714 C3713 1.523 . S
H3715 C3690 0.950 . S
H3716 C3692 0.950 . S
H3717 C3693 0.949 . S
H3718 C3695 0.950 . S
H3719 C3697 0.950 . S
C3720 C3721 1.349 . S
C3720 C3722 1.327 . S
C3720 H3745 0.950 . S
C3721 C3720 1.349 . S
C3721 C3737 1.349 . S
C3722 C3720 1.327 . S
C3722 C3741 1.429 . S
C3722 H3746 0.950 . S
C3723 C3740 1.574 . S
C3723 C3742 1.368 . S
C3723 H3747 0.949 . S
H3724 C3728 0.949 . S
C3725 C3726 1.349 . S
C3725 C3727 1.327 . S
C3725 H3748 0.950 . S
C3726 C3725 1.349 . S
C3726 C3738 1.349 . S
C3727 C3725 1.327 . S
C3727 C3743 1.429 . S
C3727 H3749 0.950 . S
C3728 H3724 0.949 . S
C3728 C3736 1.574 . S
C3728 C3744 1.368 . S
H3729 C3737 0.950 . S
H3730 C3735 0.950 . S
H3731 C3736 0.949 . S
H3732 C3738 0.950 . S
H3733 C3739 0.950 . S
H3734 C3740 0.949 . S
C3735 H3730 0.950 . S
C3735 C3737 1.327 . S
C3735 C3741 1.429 . S
C3736 C3728 1.574 . S
C3736 H3731 0.949 . S
C3736 C3742 1.368 . S
C3737 C3721 1.349 . S
C3737 H3729 0.950 . S
C3737 C3735 1.327 . S
C3738 C3726 1.349 . S
C3738 H3732 0.950 . S
C3738 C3739 1.327 . S
C3739 H3733 0.950 . S
C3739 C3738 1.327 . S
C3739 C3743 1.429 . S
C3740 C3723 1.574 . S
C3740 H3734 0.949 . S
C3740 C3744 1.368 . S
C3741 C3722 1.429 . S
C3741 C3735 1.429 . S
C3741 C3742 1.523 . S
C3742 C3723 1.368 . S
C3742 C3736 1.368 . S
C3742 C3741 1.523 . S
C3743 C3727 1.429 . S
C3743 C3739 1.429 . S
C3743 C3744 1.523 . S
C3744 C3728 1.368 . S
C3744 C3740 1.368 . S
C3744 C3743 1.523 . S
H3745 C3720 0.950 . S
H3746 C3722 0.950 . S
H3747 C3723 0.949 . S
H3748 C3725 0.950 . S
H3749 C3727 0.950 . S
C3750 C3751 1.349 . S
C3750 C3752 1.327 . S
C3750 H3775 0.950 . S
C3751 C3750 1.349 . S
C3751 C3767 1.349 . S
C3752 C3750 1.327 . S
C3752 C3771 1.429 . S
C3752 H3776 0.950 . S
C3753 C3770 1.574 . S
C3753 C3772 1.368 . S
C3753 H3777 0.949 . S
H3754 C3758 0.949 . S
C3755 C3756 1.349 . S
C3755 C3757 1.327 . S
C3755 H3778 0.950 . S
C3756 C3755 1.349 . S
C3756 C3768 1.349 . S
C3757 C3755 1.327 . S
C3757 C3773 1.429 . S
C3757 H3779 0.950 . S
C3758 H3754 0.949 . S
C3758 C3766 1.574 . S
C3758 C3774 1.368 . S
H3759 C3767 0.950 . S
H3760 C3765 0.950 . S
H3761 C3766 0.949 . S
H3762 C3768 0.950 . S
H3763 C3769 0.950 . S
H3764 C3770 0.949 . S
C3765 H3760 0.950 . S
C3765 C3767 1.327 . S
C3765 C3771 1.429 . S
C3766 C3758 1.574 . S
C3766 H3761 0.949 . S
C3766 C3772 1.368 . S
C3767 C3751 1.349 . S
C3767 H3759 0.950 . S
C3767 C3765 1.327 . S
C3768 C3756 1.349 . S
C3768 H3762 0.950 . S
C3768 C3769 1.327 . S
C3769 H3763 0.950 . S
C3769 C3768 1.327 . S
C3769 C3773 1.429 . S
C3770 C3753 1.574 . S
C3770 H3764 0.949 . S
C3770 C3774 1.368 . S
C3771 C3752 1.429 . S
C3771 C3765 1.429 . S
C3771 C3772 1.523 . S
C3772 C3753 1.368 . S
C3772 C3766 1.368 . S
C3772 C3771 1.523 . S
C3773 C3757 1.429 . S
C3773 C3769 1.429 . S
C3773 C3774 1.523 . S
C3774 C3758 1.368 . S
C3774 C3770 1.368 . S
C3774 C3773 1.523 . S
H3775 C3750 0.950 . S
H3776 C3752 0.950 . S
H3777 C3753 0.949 . S
H3778 C3755 0.950 . S
H3779 C3757 0.950 . S
C3780 C3781 1.349 . S
C3780 C3782 1.327 . S
C3780 H3805 0.950 . S
C3781 C3780 1.349 . S
C3781 C3797 1.349 . S
C3782 C3780 1.327 . S
C3782 C3801 1.429 . S
C3782 H3806 0.950 . S
C3783 C3800 1.574 . S
C3783 C3802 1.368 . S
C3783 H3807 0.949 . S
H3784 C3788 0.949 . S
C3785 C3786 1.349 . S
C3785 C3787 1.327 . S
C3785 H3808 0.950 . S
C3786 C3785 1.349 . S
C3786 C3798 1.349 . S
C3787 C3785 1.327 . S
C3787 C3803 1.429 . S
C3787 H3809 0.950 . S
C3788 H3784 0.949 . S
C3788 C3796 1.574 . S
C3788 C3804 1.368 . S
H3789 C3797 0.950 . S
H3790 C3795 0.950 . S
H3791 C3796 0.949 . S
H3792 C3798 0.950 . S
H3793 C3799 0.950 . S
H3794 C3800 0.949 . S
C3795 H3790 0.950 . S
C3795 C3797 1.327 . S
C3795 C3801 1.429 . S
C3796 C3788 1.574 . S
C3796 H3791 0.949 . S
C3796 C3802 1.368 . S
C3797 C3781 1.349 . S
C3797 H3789 0.950 . S
C3797 C3795 1.327 . S
C3798 C3786 1.349 . S
C3798 H3792 0.950 . S
C3798 C3799 1.327 . S
C3799 H3793 0.950 . S
C3799 C3798 1.327 . S
C3799 C3803 1.429 . S
C3800 C3783 1.574 . S
C3800 H3794 0.949 . S
C3800 C3804 1.368 . S
C3801 C3782 1.429 . S
C3801 C3795 1.429 . S
C3801 C3802 1.523 . S
C3802 C3783 1.368 . S
C3802 C3796 1.368 . S
C3802 C3801 1.523 . S
C3803 C3787 1.429 . S
C3803 C3799 1.429 . S
C3803 C3804 1.523 . S
C3804 C3788 1.368 . S
C3804 C3800 1.368 . S
C3804 C3803 1.523 . S
H3805 C3780 0.950 . S
H3806 C3782 0.950 . S
H3807 C3783 0.949 . S
H3808 C3785 0.950 . S
H3809 C3787 0.950 . S
C3810 C3811 1.349 . S
C3810 C3812 1.327 . S
C3810 H3835 0.950 . S
C3811 C3810 1.349 . S
C3811 C3827 1.349 . S
C3812 C3810 1.327 . S
C3812 C3831 1.429 . S
C3812 H3836 0.950 . S
C3813 C3830 1.574 . S
C3813 C3832 1.368 . S
C3813 H3837 0.949 . S
H3814 C3818 0.949 . S
C3815 C3816 1.349 . S
C3815 C3817 1.327 . S
C3815 H3838 0.950 . S
C3816 C3815 1.349 . S
C3816 C3828 1.349 . S
C3817 C3815 1.327 . S
C3817 C3833 1.429 . S
C3817 H3839 0.950 . S
C3818 H3814 0.949 . S
C3818 C3826 1.574 . S
C3818 C3834 1.368 . S
H3819 C3827 0.950 . S
H3820 C3825 0.950 . S
H3821 C3826 0.949 . S
H3822 C3828 0.950 . S
H3823 C3829 0.950 . S
H3824 C3830 0.949 . S
C3825 H3820 0.950 . S
C3825 C3827 1.327 . S
C3825 C3831 1.429 . S
C3826 C3818 1.574 . S
C3826 H3821 0.949 . S
C3826 C3832 1.368 . S
C3827 C3811 1.349 . S
C3827 H3819 0.950 . S
C3827 C3825 1.327 . S
C3828 C3816 1.349 . S
C3828 H3822 0.950 . S
C3828 C3829 1.327 . S
C3829 H3823 0.950 . S
C3829 C3828 1.327 . S
C3829 C3833 1.429 . S
C3830 C3813 1.574 . S
C3830 H3824 0.949 . S
C3830 C3834 1.368 . S
C3831 C3812 1.429 . S
C3831 C3825 1.429 . S
C3831 C3832 1.523 . S
C3832 C3813 1.368 . S
C3832 C3826 1.368 . S
C3832 C3831 1.523 . S
C3833 C3817 1.429 . S
C3833 C3829 1.429 . S
C3833 C3834 1.523 . S
C3834 C3818 1.368 . S
C3834 C3830 1.368 . S
C3834 C3833 1.523 . S
H3835 C3810 0.950 . S
H3836 C3812 0.950 . S
H3837 C3813 0.949 . S
H3838 C3815 0.950 . S
H3839 C3817 0.950 . S
C3840 C3841 1.349 . S
C3840 C3842 1.327 . S
C3840 H3865 0.950 . S
C3841 C3840 1.349 . S
C3841 C3857 1.349 . S
C3842 C3840 1.327 . S
C3842 C3861 1.429 . S
C3842 H3866 0.950 . S
C3843 C3860 1.574 . S
C3843 C3862 1.368 . S
C3843 H3867 0.949 . S
H3844 C3848 0.949 . S
C3845 C3846 1.349 . S
C3845 C3847 1.327 . S
C3845 H3868 0.950 . S
C3846 C3845 1.349 . S
C3846 C3858 1.349 . S
C3847 C3845 1.327 . S
C3847 C3863 1.429 . S
C3847 H3869 0.950 . S
C3848 H3844 0.949 . S
C3848 C3856 1.574 . S
C3848 C3864 1.368 . S
H3849 C3857 0.950 . S
H3850 C3855 0.950 . S
H3851 C3856 0.949 . S
H3852 C3858 0.950 . S
H3853 C3859 0.950 . S
H3854 C3860 0.949 . S
C3855 H3850 0.950 . S
C3855 C3857 1.327 . S
C3855 C3861 1.429 . S
C3856 C3848 1.574 . S
C3856 H3851 0.949 . S
C3856 C3862 1.368 . S
C3857 C3841 1.349 . S
C3857 H3849 0.950 . S
C3857 C3855 1.327 . S
C3858 C3846 1.349 . S
C3858 H3852 0.950 . S
C3858 C3859 1.327 . S
C3859 H3853 0.950 . S
C3859 C3858 1.327 . S
C3859 C3863 1.429 . S
C3860 C3843 1.574 . S
C3860 H3854 0.949 . S
C3860 C3864 1.368 . S
C3861 C3842 1.429 . S
C3861 C3855 1.429 . S
C3861 C3862 1.523 . S
C3862 C3843 1.368 . S
C3862 C3856 1.368 . S
C3862 C3861 1.523 . S
C3863 C3847 1.429 . S
C3863 C3859 1.429 . S
C3863 C3864 1.523 . S
C3864 C3848 1.368 . S
C3864 C3860 1.368 . S
C3864 C3863 1.523 . S
H3865 C3840 0.950 . S
H3866 C3842 0.950 . S
H3867 C3843 0.949 . S
H3868 C3845 0.950 . S
H3869 C3847 0.950 . S
C3870 C3871 1.349 . S
C3870 C3872 1.327 . S
C3870 H3895 0.950 . S
C3871 C3870 1.349 . S
C3871 C3887 1.349 . S
C3872 C3870 1.327 . S
C3872 C3891 1.429 . S
C3872 H3896 0.950 . S
C3873 C3890 1.574 . S
C3873 C3892 1.368 . S
C3873 H3897 0.949 . S
H3874 C3878 0.949 . S
C3875 C3876 1.349 . S
C3875 C3877 1.327 . S
C3875 H3898 0.950 . S
C3876 C3875 1.349 . S
C3876 C3888 1.349 . S
C3877 C3875 1.327 . S
C3877 C3893 1.429 . S
C3877 H3899 0.950 . S
C3878 H3874 0.949 . S
C3878 C3886 1.574 . S
C3878 C3894 1.368 . S
H3879 C3887 0.950 . S
H3880 C3885 0.950 . S
H3881 C3886 0.949 . S
H3882 C3888 0.950 . S
H3883 C3889 0.950 . S
H3884 C3890 0.949 . S
C3885 H3880 0.950 . S
C3885 C3887 1.327 . S
C3885 C3891 1.429 . S
C3886 C3878 1.574 . S
C3886 H3881 0.949 . S
C3886 C3892 1.368 . S
C3887 C3871 1.349 . S
C3887 H3879 0.950 . S
C3887 C3885 1.327 . S
C3888 C3876 1.349 . S
C3888 H3882 0.950 . S
C3888 C3889 1.327 . S
C3889 H3883 0.950 . S
C3889 C3888 1.327 . S
C3889 C3893 1.429 . S
C3890 C3873 1.574 . S
C3890 H3884 0.949 . S
C3890 C3894 1.368 . S
C3891 C3872 1.429 . S
C3891 C3885 1.429 . S
C3891 C3892 1.523 . S
C3892 C3873 1.368 . S
C3892 C3886 1.368 . S
C3892 C3891 1.523 . S
C3893 C3877 1.429 . S
C3893 C3889 1.429 . S
C3893 C3894 1.523 . S
C3894 C3878 1.368 . S
C3894 C3890 1.368 . S
C3894 C3893 1.523 . S
H3895 C3870 0.950 . S
H3896 C3872 0.950 . S
H3897 C3873 0.949 . S
H3898 C3875 0.950 . S
H3899 C3877 0.950 . S
C3900 C3901 1.349 . S
C3900 C3902 1.327 . S
C3900 H3925 0.950 . S
C3901 C3900 1.349 . S
C3901 C3917 1.349 . S
C3902 C3900 1.327 . S
C3902 C3921 1.429 . S
C3902 H3926 0.950 . S
C3903 C3920 1.574 . S
C3903 C3922 1.368 . S
C3903 H3927 0.949 . S
H3904 C3908 0.949 . S
C3905 C3906 1.349 . S
C3905 C3907 1.327 . S
C3905 H3928 0.950 . S
C3906 C3905 1.349 . S
C3906 C3918 1.349 . S
C3907 C3905 1.327 . S
C3907 C3923 1.429 . S
C3907 H3929 0.950 . S
C3908 H3904 0.949 . S
C3908 C3916 1.574 . S
C3908 C3924 1.368 . S
H3909 C3917 0.950 . S
H3910 C3915 0.950 . S
H3911 C3916 0.949 . S
H3912 C3918 0.950 . S
H3913 C3919 0.950 . S
H3914 C3920 0.949 . S
C3915 H3910 0.950 . S
C3915 C3917 1.327 . S
C3915 C3921 1.429 . S
C3916 C3908 1.574 . S
C3916 H3911 0.949 . S
C3916 C3922 1.368 . S
C3917 C3901 1.349 . S
C3917 H3909 0.950 . S
C3917 C3915 1.327 . S
C3918 C3906 1.349 . S
C3918 H3912 0.950 . S
C3918 C3919 1.327 . S
C3919 H3913 0.950 . S
C3919 C3918 1.327 . S
C3919 C3923 1.429 . S
C3920 C3903 1.574 . S
C3920 H3914 0.949 . S
C3920 C3924 1.368 . S
C3921 C3902 1.429 . S
C3921 C3915 1.429 . S
C3921 C3922 1.523 . S
C3922 C3903 1.368 . S
C3922 C3916 1.368 . S
C3922 C3921 1.523 . S
C3923 C3907 1.429 . S
C3923 C3919 1.429 . S
C3923 C3924 1.523 . S
C3924 C3908 1.368 . S
C3924 C3920 1.368 . S
C3924 C3923 1.523 . S
H3925 C3900 0.950 . S
H3926 C3902 0.950 . S
H3927 C3903 0.949 . S
H3928 C3905 0.950 . S
H3929 C3907 0.950 . S
C3930 C3931 1.349 . S
C3930 C3932 1.327 . S
C3930 H3955 0.950 . S
C3931 C3930 1.349 . S
C3931 C3947 1.349 . S
C3932 C3930 1.327 . S
C3932 C3951 1.429 . S
C3932 H3956 0.950 . S
C3933 C3950 1.574 . S
C3933 C3952 1.368 . S
C3933 H3957 0.949 . S
H3934 C3938 0.949 . S
C3935 C3936 1.349 . S
C3935 C3937 1.327 . S
C3935 H3958 0.950 . S
C3936 C3935 1.349 . S
C3936 C3948 1.349 . S
C3937 C3935 1.327 . S
C3937 C3953 1.429 . S
C3937 H3959 0.950 . S
C3938 H3934 0.949 . S
C3938 C3946 1.574 . S
C3938 C3954 1.368 . S
H3939 C3947 0.950 . S
H3940 C3945 0.950 . S
H3941 C3946 0.949 . S
H3942 C3948 0.950 . S
H3943 C3949 0.950 . S
H3944 C3950 0.949 . S
C3945 H3940 0.950 . S
C3945 C3947 1.327 . S
C3945 C3951 1.429 . S
C3946 C3938 1.574 . S
C3946 H3941 0.949 . S
C3946 C3952 1.368 . S
C3947 C3931 1.349 . S
C3947 H3939 0.950 . S
C3947 C3945 1.327 . S
C3948 C3936 1.349 . S
C3948 H3942 0.950 . S
C3948 C3949 1.327 . S
C3949 H3943 0.950 . S
C3949 C3948 1.327 . S
C3949 C3953 1.429 . S
C3950 C3933 1.574 . S
C3950 H3944 0.949 . S
C3950 C3954 1.368 . S
C3951 C3932 1.429 . S
C3951 C3945 1.429 . S
C3951 C3952 1.523 . S
C3952 C3933 1.368 . S
C3952 C3946 1.368 . S
C3952 C3951 1.523 . S
C3953 C3937 1.429 . S
C3953 C3949 1.429 . S
C3953 C3954 1.523 . S
C3954 C3938 1.368 . S
C3954 C3950 1.368 . S
C3954 C3953 1.523 . S
H3955 C3930 0.950 . S
H3956 C3932 0.950 . S
H3957 C3933 0.949 . S
H3958 C3935 0.950 . S
H3959 C3937 0.950 . S
C3960 C3961 1.349 . S
C3960 C3962 1.327 . S
C3960 H3985 0.950 . S
C3961 C3960 1.349 . S
C3961 C3977 1.349 . S
C3962 C3960 1.327 . S
C3962 C3981 1.429 . S
C3962 H3986 0.950 . S
C3963 C3980 1.574 . S
C3963 C3982 1.368 . S
C3963 H3987 0.949 . S
H3964 C3968 0.949 . S
C3965 C3966 1.349 . S
C3965 C3967 1.327 . S
C3965 H3988 0.950 . S
C3966 C3965 1.349 . S
C3966 C3978 1.349 . S
C3967 C3965 1.327 . S
C3967 C3983 1.429 . S
C3967 H3989 0.950 . S
C3968 H3964 0.949 . S
C3968 C3976 1.574 . S
C3968 C3984 1.368 . S
H3969 C3977 0.950 . S
H3970 C3975 0.950 . S
H3971 C3976 0.949 . S
H3972 C3978 0.950 . S
H3973 C3979 0.950 . S
H3974 C3980 0.949 . S
C3975 H3970 0.950 . S
C3975 C3977 1.327 . S
C3975 C3981 1.429 . S
C3976 C3968 1.574 . S
C3976 H3971 0.949 . S
C3976 C3982 1.368 . S
C3977 C3961 1.349 . S
C3977 H3969 0.950 . S
C3977 C3975 1.327 . S
C3978 C3966 1.349 . S
C3978 H3972 0.950 . S
C3978 C3979 1.327 . S
C3979 H3973 0.950 . S
C3979 C3978 1.327 . S
C3979 C3983 1.429 . S
C3980 C3963 1.574 . S
C3980 H3974 0.949 . S
C3980 C3984 1.368 . S
C3981 C3962 1.429 . S
C3981 C3975 1.429 . S
C3981 C3982 1.523 . S
C3982 C3963 1.368 . S
C3982 C3976 1.368 . S
C3982 C3981 1.523 . S
C3983 C3967 1.429 . S
C3983 C3979 1.429 . S
C3983 C3984 1.523 . S
C3984 C3968 1.368 . S
C3984 C3980 1.368 . S
C3984 C3983 1.523 . S
H3985 C3960 0.950 . S
H3986 C3962 0.950 . S
H3987 C3963 0.949 . S
H3988 C3965 0.950 . S
H3989 C3967 0.950 . S
C3990 C3991 1.349 . S
C3990 C3992 1.327 . S
C3990 H4015 0.950 . S
C3991 C3990 1.349 . S
C3991 C4007 1.349 1_554 S
C3992 C3990 1.327 . S
C3992 C4011 1.429 1_554 S
C3992 H4016 0.950 . S
C3993 C4010 1.574 . S
C3993 C4012 1.368 . S
C3993 H4017 0.949 . S
H3994 C3998 0.949 . S
C3995 C3996 1.349 . S
C3995 C3997 1.327 . S
C3995 H4018 0.950 . S
C3996 C3995 1.349 . S
C3996 C4008 1.349 . S
C3997 C3995 1.327 . S
C3997 C4013 1.429 . S
C3997 H4019 0.950 . S
C3998 H3994 0.949 . S
C3998 C4006 1.574 . S
C3998 C4014 1.368 . S
H3999 C4007 0.950 . S
H4000 C4005 0.950 . S
H4001 C4006 0.949 . S
H4002 C4008 0.950 . S
H4003 C4009 0.950 . S
H4004 C4010 0.949 . S
C4005 H4000 0.950 . S
C4005 C4007 1.327 . S
C4005 C4011 1.429 . S
C4006 C3998 1.574 . S
C4006 H4001 0.949 . S
C4006 C4012 1.368 . S
C4007 C3991 1.349 1_556 S
C4007 H3999 0.950 . S
C4007 C4005 1.327 . S
C4008 C3996 1.349 . S
C4008 H4002 0.950 . S
C4008 C4009 1.327 . S
C4009 H4003 0.950 . S
C4009 C4008 1.327 . S
C4009 C4013 1.429 . S
C4010 C3993 1.574 . S
C4010 H4004 0.949 . S
C4010 C4014 1.368 . S
C4011 C3992 1.429 1_556 S
C4011 C4005 1.429 . S
C4011 C4012 1.523 . S
C4012 C3993 1.368 . S
C4012 C4006 1.368 . S
C4012 C4011 1.523 . S
C4013 C3997 1.429 . S
C4013 C4009 1.429 . S
C4013 C4014 1.523 . S
C4014 C3998 1.368 . S
C4014 C4010 1.368 . S
C4014 C4013 1.523 . S
H4015 C3990 0.950 . S
H4016 C3992 0.950 . S
H4017 C3993 0.949 . S
H4018 C3995 0.950 . S
H4019 C3997 0.950 . S
C4020 C4021 1.349 . S
C4020 C4022 1.327 . S
C4020 H4045 0.950 . S
C4021 C4020 1.349 . S
C4021 C4037 1.349 . S
C4022 C4020 1.327 . S
C4022 C4041 1.429 . S
C4022 H4046 0.950 . S
C4023 C4040 1.574 . S
C4023 C4042 1.368 . S
C4023 H4047 0.949 . S
H4024 C4028 0.949 . S
C4025 C4026 1.349 . S
C4025 C4027 1.327 . S
C4025 H4048 0.950 . S
C4026 C4025 1.349 . S
C4026 C4038 1.349 . S
C4027 C4025 1.327 . S
C4027 C4043 1.429 . S
C4027 H4049 0.950 . S
C4028 H4024 0.949 . S
C4028 C4036 1.574 . S
C4028 C4044 1.368 . S
H4029 C4037 0.950 . S
H4030 C4035 0.950 . S
H4031 C4036 0.949 . S
H4032 C4038 0.950 . S
H4033 C4039 0.950 . S
H4034 C4040 0.949 . S
C4035 H4030 0.950 . S
C4035 C4037 1.327 . S
C4035 C4041 1.429 . S
C4036 C4028 1.574 . S
C4036 H4031 0.949 . S
C4036 C4042 1.368 . S
C4037 C4021 1.349 . S
C4037 H4029 0.950 . S
C4037 C4035 1.327 . S
C4038 C4026 1.349 . S
C4038 H4032 0.950 . S
C4038 C4039 1.327 . S
C4039 H4033 0.950 . S
C4039 C4038 1.327 . S
C4039 C4043 1.429 . S
C4040 C4023 1.574 . S
C4040 H4034 0.949 . S
C4040 C4044 1.368 . S
C4041 C4022 1.429 . S
C4041 C4035 1.429 . S
C4041 C4042 1.523 . S
C4042 C4023 1.368 . S
C4042 C4036 1.368 . S
C4042 C4041 1.523 . S
C4043 C4027 1.429 . S
C4043 C4039 1.429 . S
C4043 C4044 1.523 . S
C4044 C4028 1.368 . S
C4044 C4040 1.368 . S
C4044 C4043 1.523 . S
H4045 C4020 0.950 . S
H4046 C4022 0.950 . S
H4047 C4023 0.949 . S
H4048 C4025 0.950 . S
H4049 C4027 0.950 . S
C4050 C4051 1.349 . S
C4050 C4052 1.327 . S
C4050 H4075 0.950 . S
C4051 C4050 1.349 . S
C4051 C4067 1.349 . S
C4052 C4050 1.327 . S
C4052 C4071 1.429 . S
C4052 H4076 0.950 . S
C4053 C4070 1.574 . S
C4053 C4072 1.368 . S
C4053 H4077 0.949 . S
H4054 C4058 0.949 . S
C4055 C4056 1.349 . S
C4055 C4057 1.327 . S
C4055 H4078 0.950 . S
C4056 C4055 1.349 . S
C4056 C4068 1.349 . S
C4057 C4055 1.327 . S
C4057 C4073 1.429 . S
C4057 H4079 0.950 . S
C4058 H4054 0.949 . S
C4058 C4066 1.574 . S
C4058 C4074 1.364 1_455 S
H4059 C4067 0.950 . S
H4060 C4065 0.950 . S
H4061 C4066 0.949 . S
H4062 C4068 0.950 . S
H4063 C4069 0.950 . S
H4064 C4070 0.949 1_655 S
C4065 H4060 0.950 . S
C4065 C4067 1.327 . S
C4065 C4071 1.429 . S
C4066 C4058 1.574 . S
C4066 H4061 0.949 . S
C4066 C4072 1.368 . S
C4067 C4051 1.349 . S
C4067 H4059 0.950 . S
C4067 C4065 1.327 . S
C4068 C4056 1.349 . S
C4068 H4062 0.950 . S
C4068 C4069 1.327 . S
C4069 H4063 0.950 . S
C4069 C4068 1.327 . S
C4069 C4073 1.429 . S
C4070 C4053 1.574 . S
C4070 H4064 0.949 1_455 S
C4070 C4074 1.366 1_455 S
C4071 C4052 1.429 . S
C4071 C4065 1.429 . S
C4071 C4072 1.523 . S
C4072 C4053 1.368 . S
C4072 C4066 1.368 . S
C4072 C4071 1.523 . S
C4073 C4057 1.429 . S
C4073 C4069 1.429 . S
C4073 C4074 1.532 . S
C4074 C4058 1.364 1_655 S
C4074 C4070 1.366 1_655 S
C4074 C4073 1.532 . S
H4075 C4050 0.950 . S
H4076 C4052 0.950 . S
H4077 C4053 0.949 . S
H4078 C4055 0.950 . S
H4079 C4057 0.950 . S
C1206 C882 0.843 . S
C1201 C4 0.858 . S
C1231 C39 1.403 . S
C1236 C902 1.399 . S
C1266 C922 0.898 . S
C1261 C86 0.938 . S
C1296 C941 1.286 . S
C1291 C110 1.264 . S
C1326 C899 1.178 . S
C1321 C146 1.158 . S
C1351 C194 0.974 . S
C1356 C924 0.992 . S
C1386 C944 1.266 . S
C1381 C219 1.278 . S
C1411 C256 0.951 . S
C1416 C880 0.884 . S
C1441 C292 1.248 . S
C1446 C877 1.133 . S
C1476 C900 1.002 . S
C1471 C326 1.036 . S
C1506 C923 1.218 . S
C1501 C363 1.220 . S
C1536 C945 1.228 . S
C1531 C410 1.229 . S
C1566 C903 0.818 . S
C1561 C302 0.808 . S
C1596 C919 0.902 . S
C1591 C327 0.996 . S
C1621 C362 0.923 . S
C1626 C942 0.896 . S
C1656 C881 0.656 . S
C1651 C400 0.661 . S
C1681 C436 1.126 . S
C1686 C878 1.137 . S
C1711 C471 0.744 . S
C1716 C961 0.748 . S
C1746 C983 1.161 . S
C1741 C506 1.149 . S
C1776 C1006 0.974 . S
C1771 C554 1.046 . S
C1801 C580 1.188 . S
C1806 C879 1.146 . S
C1831 C614 1.284 . S
C1836 C921 1.240 . S
C1866 C1003 1.086 . S
C1861 C507 1.272 . S
C1896 C964 0.764 . S
C1891 C662 0.771 . S
C1926 C1029 0.831 . S
C1921 C50 0.818 . S
C1956 C1049 1.547 . S
C1951 C3 1.535 . S
C1981 C112 0.888 . S
C1986 C1071 0.870 . S
C2011 C74 0.955 . S
C2016 C1088 0.975 . S
C2041 C254 1.598 . S
C2046 C1046 1.622 . S
C2071 C220 1.006 . S
C2076 C1069 0.920 . S
C2106 C1091 1.142 . S
C2101 C183 1.141 . S
C2131 C158 1.077 . S
C2136 C1027 1.055 . S
C2161 C698 0.883 . S
C2166 C1024 0.878 . S
C2196 C1047 1.351 . S
C2191 C542 1.414 . S
C2226 C1066 1.216 . S
C2221 C579 1.334 . S
C2256 C1092 1.087 . S
C2251 C472 1.138 . S
C2286 C1050 0.800 . S
C2281 C688 0.811 . S
C2316 C1070 0.822 . S
C2311 C543 0.820 . S
C2346 C1089 0.663 . S
C2341 C578 0.637 . S
C2371 C482 1.122 . S
C2376 C1028 1.256 . S
C2406 C1025 1.286 . S
C2401 C734 1.172 . S
C2431 C399 1.042 . S
C2436 C1108 0.931 . S
C2466 C1131 1.208 . S
C2461 C758 1.252 . S
C2491 C328 1.103 . S
C2496 C1153 0.970 . S
C2526 C1026 1.253 . S
C2521 C374 1.189 . S
C2556 C1067 1.321 . S
C2551 C794 1.299 . S
C2586 C1150 0.844 . S
C2581 C759 0.916 . S
C2611 C832 0.665 . S
C2616 C1111 0.710 . S
C2641 C76 0.858 . S
C2646 C1176 0.843 . S
C2671 C111 1.403 . S
C2676 C965 1.400 . S
C2706 C985 0.898 . S
C2701 C14 0.938 1_655 S
C2731 C38 1.264 . S
C2736 C1004 1.286 . S
C2761 C218 1.160 . S
C2766 C962 1.178 . S
C2791 C266 0.973 . S
C2796 C987 0.992 . S
C2826 C1007 1.266 . S
C2821 C147 1.281 . S
C2856 C1174 0.884 . S
C2851 C184 0.951 . S
C2886 C1171 1.132 . S
C2881 C760 1.247 . S
C2916 C963 1.002 . S
C2911 C722 1.037 . S
C2946 C986 1.218 . S
C2941 C831 1.220 . S
C2971 C806 1.213 . S
C2976 C1008 1.228 . S
C3006 C966 0.817 . S
C3001 C770 0.808 . S
C3031 C723 0.997 . S
C3036 C982 0.902 . S
C3066 C1005 0.896 . S
C3061 C830 0.923 . S
C3091 C796 0.661 . S
C3096 C1175 0.655 . S
C3126 C1172 1.138 . S
C3121 C544 1.126 . S
C3151 C615 0.744 . S
C3156 C898 0.748 . S
C3186 C920 1.162 . S
C3181 C686 1.149 . S
C3211 C446 1.046 . S
C3216 C943 0.974 . S
C3246 C1173 1.146 . S
C3241 C652 1.188 . S
C3276 C984 1.240 . S
C3271 C470 1.284 . S
C3306 C940 1.086 . S
C3301 C687 1.272 . S
C3336 C901 0.764 . S
C3331 C590 0.771 . S
C3361 C122 0.818 . S
C3366 C1197 0.831 . S
C3391 C75 1.535 . S
C3396 C1112 1.546 . S
C3421 C40 0.888 . S
C3426 C1134 0.870 . S
C3456 C1151 0.975 . S
C3451 C2 0.955 . S
C3486 C1109 1.622 . S
C3481 C182 1.598 . S
C3511 C148 1.006 . S
C3516 C1132 0.919 . S
C3546 C1154 1.143 . S
C3541 C255 1.141 . S
C3571 C230 1.078 . S
C3576 C1195 1.055 . S
C3606 C1192 0.878 . S
C3601 C518 0.883 . S
C3631 C434 1.414 . S
C3636 C1110 1.351 . S
C3661 C651 1.333 . S
C3666 C1129 1.215 . S
C3696 C1155 1.087 . S
C3691 C616 1.138 . S
C3726 C1113 0.800 . S
C3721 C508 0.811 . S
C3751 C435 0.820 . S
C3756 C1133 0.822 . S
C3786 C1152 0.663 . S
C3781 C650 0.637 . S
C3816 C1196 1.255 . S
C3811 C626 1.121 . S
C3846 C1193 1.287 . S
C3841 C338 1.172 . S
C3876 C1045 0.931 . S
C3871 C795 1.042 . S
C3901 C290 1.252 . S
C3906 C1068 1.207 . S
C3931 C724 1.103 . S
C3936 C1090 0.969 . S
C3966 C1194 1.253 . S
C3961 C842 1.189 . S
C3996 C1130 1.321 . S
C3991 C398 1.299 . S
C4026 C1087 0.844 . S
C4021 C291 0.916 . S
C4056 C1048 0.710 . S
C4051 C364 0.666 . S
