# Generated by pormake.
# Topology bcu-b, (8,8)-cn, num edge types: 1
# Building blocks:
#     Node 0, Type 0, BuildingBlock: TAGTUT_clean_sbu_3, # of connection points: 8
#     Node 1, Type 1, BuildingBlock: TAGTUT_clean_sbu_1, # of connection points: 8
#     Edge 2, Type (0, 1), BuildingBlock: UVAHIK_clean_linker_0, # of connection points: 2
#     Edge 3, Type (0, 1), BuildingBlock: UVAHIK_clean_linker_0, # of connection points: 2
#     Edge 4, Type (0, 1), BuildingBlock: UVAHIK_clean_linker_0, # of connection points: 2
#     Edge 5, Type (0, 1), BuildingBlock: UVAHIK_clean_linker_0, # of connection points: 2
#     Edge 6, Type (0, 1), BuildingBlock: UVAHIK_clean_linker_0, # of connection points: 2
#     Edge 7, Type (0, 1), BuildingBlock: UVAHIK_clean_linker_0, # of connection points: 2
#     Edge 8, Type (0, 1), BuildingBlock: UVAHIK_clean_linker_0, # of connection points: 2
#     Edge 9, Type (0, 1), BuildingBlock: UVAHIK_clean_linker_0, # of connection points: 2
# Relax obj value: 0.021
# Max RMSD: 0.091
# Mean RMSD: 0.081
data_MOF--net-bcu-b--node1-TAGTUT_clean_sbu_3--node2-TAGTUT_clean_sbu_1--edge1-UVAHIK_clean_linker_0
_symmetry_space_group_name_H-M    P1
_symmetry_Int_Tables_number       1
_symmetry_cell_setting            triclinic
loop_
_symmetry_equiv_pos_as_xyz
'x, y, z'
_cell_length_a     24.825738
_cell_length_b     23.871434
_cell_length_c     26.344681
_cell_angle_alpha  91.414348
_cell_angle_beta   91.764219
_cell_angle_gamma 107.20615
loop_
_atom_site_label
_atom_site_type_symbol
_atom_site_fract_x
_atom_site_fract_y
_atom_site_fract_z
_atom_type_partial_charge
C0 C 0.0846 0.09286 0.07957 0.0
C1 C 0.15555 0.90008 0.06409 0.0
C2 C 0.10007 0.90315 0.90869 0.0
Mg3 Mg 0.98523 0.12263 0.01183 0.0
Mg4 Mg 0.87806 0.0137 0.96669 0.0
O5 O 0.95646 0.04965 0.96722 0.0
Mg6 Mg 0.00459 0.00285 -0.00434 0.0
O7 O 0.05636 0.96097 0.02512 0.0
Mg8 Mg 0.13025 0.01159 0.00012 0.0
Mg9 Mg 0.0386 0.88088 0.00745 0.0
C10 C 0.91989 0.91624 0.90919 0.0
O11 O 0.93362 0.94194 0.04029 0.0
O12 O 0.92711 0.16253 0.96017 0.0
O13 O 0.95196 0.85509 0.03194 0.0
O14 O 0.91384 0.09501 0.06692 0.0
O15 O 0.8564 0.08385 0.93139 0.0
O16 O 0.84709 0.01285 0.04281 0.0
O17 O 0.07804 0.05985 0.95335 0.0
O18 O 0.05979 0.14606 0.95876 0.0
C19 C 0.09093 0.11468 0.94432 0.0
C20 C 0.88049 0.13933 0.93419 0.0
O21 O 0.96982 0.93582 0.92976 0.0
O22 O 0.17258 0.95349 0.04947 0.0
O23 O 0.87907 0.93652 0.92083 0.0
O24 O 0.13001 0.95107 0.93057 0.0
O25 O 0.10592 0.86596 0.05256 0.0
O26 O 0.05699 0.87008 0.92942 0.0
O27 O 0.03547 0.07196 0.0582 0.0
O28 O 0.12604 0.0742 0.06695 0.0
C29 C 0.86842 0.05483 0.07525 0.0
C30 C 0.92027 0.88617 0.04586 0.0
C31 C 0.39727 0.64378 0.56486 0.0
C32 C 0.43534 0.6217 0.40926 0.0
C33 C 0.39401 0.39196 0.45596 0.0
Mg34 Mg 0.50468 0.63781 0.51096 0.0
O35 O 0.47386 0.55736 0.52084 0.0
Mg36 Mg 0.39318 0.51915 0.49854 0.0
Mg37 Mg 0.5066 0.49726 0.49112 0.0
O38 O 0.53846 0.43613 0.4626 0.0
Mg39 Mg 0.50735 0.3592 0.48464 0.0
Mg40 Mg 0.62037 0.47506 0.48031 0.0
C41 C 0.61888 0.60312 0.53214 0.0
C42 C 0.5791 0.5487 0.39299 0.0
O43 O 0.37215 0.59291 0.54459 0.0
O44 O 0.45001 0.66935 0.55961 0.0
O45 O 0.40085 0.5755 0.4265 0.0
O46 O 0.47992 0.65077 0.4346 0.0
O47 O 0.59301 0.64259 0.52965 0.0
O48 O 0.59314 0.54836 0.52337 0.0
C49 C 0.43027 0.44249 0.58615 0.0
O50 O 0.4766 0.44721 0.56377 0.0
O51 O 0.39325 0.46591 0.56922 0.0
O52 O 0.63614 0.39498 0.43551 0.0
O53 O 0.5553 0.3204 0.43604 0.0
O54 O 0.61934 0.42727 0.55434 0.0
C55 C 0.60626 0.34217 0.42254 0.0
O56 O 0.53916 0.35564 0.56192 0.0
O57 O 0.41832 0.35241 0.46586 0.0
C58 C 0.5874 0.38679 0.57984 0.0
O59 O 0.42133 0.44684 0.45747 0.0
O60 O 0.53516 0.54665 0.41819 0.0
O61 O 0.61591 0.52405 0.40796 0.0
C62 C 0.05023 0.14372 0.15024 0.0
C63 C 0.09421 0.13944 0.11945 0.0
C64 C 0.0612 0.18422 0.1914 0.0
C65 C 0.16847 0.31554 0.24755 0.0
H66 H 0.13678 0.23905 0.37604 0.0
C67 C 0.30422 0.31331 0.4328 0.0
C68 C 0.33419 0.37326 0.4376 0.0
C69 C 0.25324 0.29463 0.40457 0.0
C70 C 0.14521 0.26148 0.34059 0.0
H71 H 0.18308 0.17611 0.10537 0.0
H72 H 0.20216 0.24685 0.17652 0.0
H73 H 0.08798 0.18952 0.29811 0.0
H74 H 0.33044 0.46096 0.42197 0.0
H75 H 0.24125 0.42827 0.3732 0.0
H76 H 0.2294 0.38493 0.28869 0.0
C77 C 0.15925 0.21916 0.16914 0.0
C78 C 0.1169 0.23334 0.29603 0.0
C79 C 0.14852 0.17821 0.12874 0.0
C80 C 0.30898 0.41438 0.41842 0.0
C81 C 0.25782 0.39567 0.39031 0.0
C82 C 0.19674 0.34361 0.29195 0.0
C83 C 0.11606 0.22176 0.20156 0.0
C84 C 0.13099 0.25864 0.24882 0.0
C85 C 0.23105 0.33552 0.38068 0.0
C86 C 0.18802 0.31522 0.33848 0.0
H87 H 0.00803 0.11403 0.14387 0.0
H88 H 0.02728 0.18524 0.21597 0.0
H89 H 0.17941 0.3363 0.21162 0.0
H90 H 0.32196 0.28043 0.4477 0.0
H91 H 0.23405 0.24791 0.39785 0.0
C92 C 0.86774 0.10177 0.16053 0.0
C93 C 0.8386 0.06179 0.12174 0.0
C94 C 0.83882 0.11905 0.19948 0.0
C95 C 0.69947 0.1364 0.22103 0.0
H96 H 0.76729 0.19163 0.35461 0.0
C97 C 0.59544 0.25224 0.36739 0.0
C98 C 0.6308 0.30434 0.39088 0.0
C99 C 0.61785 0.21565 0.33809 0.0
C100 C 0.74797 0.17657 0.31737 0.0
H101 H 0.75657 0.00465 0.09591 0.0
H102 H 0.70563 0.03442 0.16482 0.0
H103 H 0.80953 0.13302 0.30042 0.0
H104 H 0.71767 0.35855 0.40201 0.0
H105 H 0.75693 0.29419 0.35089 0.0
H106 H 0.63811 0.18037 0.23806 0.0
C107 C 0.751 0.05329 0.16429 0.0
C108 C 0.77204 0.14289 0.28632 0.0
C109 C 0.78018 0.03579 0.12509 0.0
C110 C 0.68925 0.31888 0.38439 0.0
C111 C 0.71176 0.28181 0.35546 0.0
C112 C 0.67508 0.16958 0.25232 0.0
C113 C 0.77984 0.09672 0.20092 0.0
C114 C 0.74897 0.12367 0.2372 0.0
C115 C 0.67623 0.22987 0.33195 0.0
C116 C 0.69984 0.19114 0.30033 0.0
H117 H 0.91282 0.12239 0.15943 0.0
H118 H 0.8626 0.15287 0.22655 0.0
H119 H 0.68099 0.12323 0.18322 0.0
H120 H 0.55018 0.23965 0.37142 0.0
H121 H 0.58949 0.1758 0.32067 0.0
C122 C 0.84443 0.79508 0.06566 0.0
C123 C 0.86703 0.85637 0.07025 0.0
C124 C 0.79656 0.76619 0.09163 0.0
C125 C 0.68527 0.7123 0.13895 0.0
H126 H 0.68871 0.76639 0.27932 0.0
C127 C 0.57688 0.63569 0.3432 0.0
C128 C 0.58942 0.58226 0.34634 0.0
C129 C 0.59405 0.67145 0.30192 0.0
C130 C 0.68622 0.75139 0.23992 0.0
H131 H 0.85671 0.93533 0.10543 0.0
H132 H 0.77149 0.88544 0.14867 0.0
H133 H 0.75179 0.82717 0.22035 0.0
H134 H 0.62669 0.52244 0.30784 0.0
H135 H 0.65641 0.5846 0.23551 0.0
H136 H 0.62254 0.63427 0.1602 0.0
C137 C 0.79121 0.8595 0.12556 0.0
C138 C 0.72237 0.7863 0.20595 0.0
C139 C 0.8396 0.88831 0.10007 0.0
C140 C 0.61663 0.56357 0.30629 0.0
C141 C 0.63312 0.59885 0.26473 0.0
C142 C 0.64965 0.67703 0.17318 0.0
C143 C 0.76981 0.79792 0.12256 0.0
C144 C 0.72385 0.76622 0.1555 0.0
C145 C 0.62349 0.65388 0.26293 0.0
C146 C 0.65125 0.69548 0.22434 0.0
H147 H 0.86448 0.76912 0.04291 0.0
H148 H 0.78214 0.71871 0.08909 0.0
H149 H 0.68426 0.69616 0.10005 0.0
H150 H 0.55707 0.65152 0.37404 0.0
H151 H 0.58631 0.71379 0.30144 0.0
C152 C 0.17477 0.8164 0.10868 0.0
C153 C 0.19403 0.87519 0.09428 0.0
C154 C 0.21005 0.79111 0.1358 0.0
C155 C 0.33521 0.8252 0.2215 0.0
H156 H 0.32466 0.66234 0.19084 0.0
C157 C 0.45397 0.70075 0.34532 0.0
C158 C 0.42008 0.64629 0.36158 0.0
C159 C 0.43524 0.72894 0.3056 0.0
C160 C 0.32807 0.7078 0.19991 0.0
H161 H 0.26603 0.95352 0.09776 0.0
H162 H 0.32812 0.90892 0.14576 0.0
H163 H 0.276 0.71342 0.13519 0.0
H164 H 0.34146 0.57715 0.34633 0.0
H165 H 0.30883 0.62635 0.27721 0.0
H166 H 0.38615 0.81905 0.28698 0.0
C167 C 0.28528 0.8827 0.13576 0.0
C168 C 0.30019 0.73709 0.16807 0.0
C169 C 0.24977 0.9082 0.10824 0.0
C170 C 0.36862 0.61908 0.33499 0.0
C171 C 0.34998 0.64724 0.29516 0.0
C172 C 0.36326 0.79588 0.25334 0.0
C173 C 0.26581 0.82365 0.14947 0.0
C174 C 0.3021 0.79563 0.17926 0.0
C175 C 0.38233 0.70327 0.281 0.0
C176 C 0.35881 0.73639 0.2436 0.0
H177 H 0.13212 0.7894 0.099 0.0
H178 H 0.19318 0.746 0.14673 0.0
H179 H 0.33721 0.87009 0.23142 0.0
H180 H 0.49405 0.72295 0.36461 0.0
H181 H 0.46157 0.7716 0.29501 0.0
C182 C 0.09127 0.82784 0.83828 0.0
C183 C 0.11987 0.88286 0.86117 0.0
C184 C 0.11537 0.80458 0.79882 0.0
C185 C 0.23251 0.83987 0.70834 0.0
H186 H 0.22694 0.67762 0.72673 0.0
C187 C 0.38679 0.73078 0.61516 0.0
C188 C 0.36341 0.67323 0.59507 0.0
C189 C 0.35403 0.7579 0.64342 0.0
C190 C 0.22837 0.72274 0.72063 0.0
H191 H 0.19419 0.95851 0.85779 0.0
H192 H 0.23646 0.91754 0.79 0.0
H193 H 0.17216 0.72256 0.78039 0.0
H194 H 0.28694 0.59937 0.58873 0.0
H195 H 0.23035 0.64662 0.63772 0.0
H196 H 0.29011 0.84009 0.6493 0.0
C197 C 0.19532 0.8924 0.80213 0.0
C198 C 0.1967 0.74847 0.75124 0.0
C199 C 0.17114 0.91577 0.84135 0.0
C200 C 0.30656 0.64364 0.60371 0.0
C201 C 0.27404 0.67061 0.63201 0.0
C202 C 0.26444 0.81412 0.67781 0.0
C203 C 0.16863 0.83574 0.78154 0.0
C204 C 0.19863 0.80745 0.74574 0.0
C205 C 0.2974 0.72789 0.65236 0.0
C206 C 0.26292 0.75536 0.68387 0.0
H207 H 0.05143 0.80159 0.85222 0.0
H208 H 0.0931 0.76134 0.78294 0.0
H209 H 0.2345 0.88522 0.70277 0.0
H210 H 0.43036 0.75487 0.60916 0.0
H211 H 0.37332 0.80194 0.65908 0.0
C212 C 0.16171 0.20467 0.91523 0.0
C213 C 0.14296 0.14324 0.91758 0.0
C214 C 0.20859 0.23225 0.88763 0.0
C215 C 0.3211 0.28429 0.84184 0.0
H216 H 0.31743 0.22264 0.70383 0.0
C217 C 0.42789 0.35354 0.63529 0.0
C218 C 0.41779 0.40821 0.63229 0.0
C219 C 0.4095 0.31809 0.6766 0.0
C220 C 0.32002 0.23981 0.74257 0.0
H221 H 0.16005 0.06264 0.89408 0.0
H222 H 0.24236 0.11111 0.84551 0.0
H223 H 0.25628 0.16396 0.76577 0.0
H224 H 0.38247 0.46983 0.67043 0.0
H225 H 0.35053 0.40832 0.74263 0.0
H226 H 0.3824 0.36162 0.81763 0.0
C227 C 0.22036 0.13776 0.865 0.0
C228 C 0.28498 0.20615 0.77811 0.0
C229 C 0.17336 0.11004 0.89293 0.0
C230 C 0.39092 0.42788 0.67203 0.0
C231 C 0.37311 0.39288 0.71351 0.0
C232 C 0.35587 0.31802 0.80626 0.0
C233 C 0.23803 0.19918 0.86158 0.0
C234 C 0.28348 0.22905 0.82754 0.0
C235 C 0.38107 0.33707 0.7157 0.0
C236 C 0.35403 0.29701 0.75579 0.0
H237 H 0.13953 0.23169 0.93395 0.0
H238 H 0.22035 0.27952 0.8851 0.0
H239 H 0.3218 0.30258 0.87998 0.0
H240 H 0.44696 0.33671 0.60444 0.0
H241 H 0.41598 0.27518 0.67726 0.0
C242 C 0.8768 0.23671 0.90068 0.0
C243 C 0.85105 0.1766 0.90752 0.0
C244 C 0.84761 0.26993 0.87428 0.0
C245 C 0.70304 0.26734 0.8297 0.0
H246 H 0.77887 0.36112 0.72042 0.0
C247 C 0.58618 0.32048 0.65283 0.0
C248 C 0.60982 0.37408 0.6296 0.0
C249 C 0.61357 0.30529 0.69526 0.0
C250 C 0.7572 0.33607 0.75138 0.0
H251 H 0.77377 0.10489 0.89296 0.0
H252 H 0.72413 0.16204 0.8473 0.0
H253 H 0.8328 0.31998 0.77982 0.0
H254 H 0.67802 0.45596 0.63553 0.0
H255 H 0.72488 0.42984 0.7095 0.0
H256 H 0.62704 0.28175 0.80016 0.0
C257 C 0.76637 0.18395 0.86253 0.0
C258 C 0.78824 0.31257 0.78548 0.0
C259 C 0.79536 0.15095 0.88833 0.0
C260 C 0.65909 0.41381 0.65186 0.0
C261 C 0.68621 0.39879 0.69421 0.0
C262 C 0.67198 0.29077 0.79557 0.0
C263 C 0.79203 0.24371 0.85492 0.0
C264 C 0.76123 0.27662 0.82417 0.0
C265 C 0.66489 0.3436 0.71539 0.0
C266 C 0.69846 0.32426 0.75528 0.0
H267 H 0.91953 0.25782 0.91508 0.0
H268 H 0.86845 0.31603 0.86902 0.0
H269 H 0.68118 0.24058 0.85969 0.0
H270 H 0.5482 0.28902 0.63674 0.0
H271 H 0.59609 0.26229 0.71058 0.0
C272 C 0.92988 0.82412 0.86799 0.0
C273 C 0.91045 0.87369 0.86615 0.0
C274 C 0.92096 0.78488 0.82592 0.0
C275 C 0.84229 0.69755 0.74345 0.0
H276 H 0.87497 0.75761 0.60875 0.0
C277 C 0.70937 0.68125 0.55222 0.0
C278 C 0.67838 0.6216 0.55117 0.0
C279 C 0.75951 0.70165 0.58138 0.0
C280 C 0.86602 0.73974 0.64601 0.0
H281 H 0.86815 0.92235 0.81928 0.0
H282 H 0.85361 0.85476 0.74574 0.0
H283 H 0.92314 0.81608 0.68325 0.0
H284 H 0.67891 0.53565 0.57517 0.0
H285 H 0.76684 0.57119 0.62621 0.0
H286 H 0.7808 0.62424 0.70714 0.0
C287 C 0.87544 0.84597 0.77948 0.0
C288 C 0.89385 0.77306 0.68853 0.0
C289 C 0.88308 0.88414 0.82166 0.0
C290 C 0.70162 0.58189 0.57556 0.0
C291 C 0.75186 0.60234 0.60505 0.0
C292 C 0.81383 0.66451 0.70095 0.0
C293 C 0.89402 0.79593 0.78126 0.0
C294 C 0.87981 0.75362 0.73759 0.0
C295 C 0.77984 0.66285 0.61029 0.0
C296 C 0.82284 0.68704 0.65198 0.0
H297 H 0.95059 0.81505 0.90222 0.0
H298 H 0.93487 0.74604 0.8282 0.0
H299 H 0.83071 0.68185 0.78101 0.0
H300 H 0.69298 0.71291 0.53327 0.0
H301 H 0.77946 0.74859 0.58458 0.0
loop_
_geom_bond_atom_site_label_1
_geom_bond_atom_site_label_2
_geom_bond_distance
_geom_bond_site_symmetry_2
_ccdc_geom_bond_type
C0 O27 1.312 . S
C0 O28 1.208 . S
C1 O22 1.331 . S
C1 O25 1.244 . S
C2 O24 1.264 . S
C2 O26 1.273 . S
Mg3 O5 1.936 1_554 S
Mg3 O12 2.081 1_554 S
Mg3 O14 2.023 . S
Mg3 O18 2.031 1_654 S
Mg3 O27 2.291 1_655 S
Mg4 O5 1.963 . S
Mg4 O15 1.942 . S
Mg4 O16 1.955 1_556 S
Mg4 O23 1.986 1_545 S
O5 Mg3 1.936 1_556 S
O5 Mg4 1.963 . S
O5 Mg6 1.915 1_546 S
Mg6 O5 1.915 1_564 S
Mg6 O7 1.915 1_655 S
Mg6 O11 2.013 . S
Mg6 O17 2.114 1_664 S
Mg6 O21 2.013 1_554 S
Mg6 O27 2.114 1_665 S
O7 Mg6 1.915 1_455 S
O7 Mg8 1.936 . S
O7 Mg9 1.963 . S
Mg8 O7 1.936 . S
Mg8 O17 2.291 1_564 S
Mg8 O22 2.081 . S
Mg8 O24 2.023 1_554 S
Mg8 O28 2.031 1_565 S
Mg9 O7 1.963 . S
Mg9 O13 1.986 1_455 S
Mg9 O25 1.942 . S
Mg9 O26 1.955 1_554 S
C10 O21 1.191 . S
C10 O23 1.307 . S
O11 Mg6 2.013 . S
O11 C30 1.191 . S
O12 Mg3 2.081 1_556 S
O12 C20 1.331 . S
O13 Mg9 1.986 1_655 S
O13 C30 1.307 . S
O14 Mg3 2.023 . S
O14 C29 1.264 . S
O15 Mg4 1.942 . S
O15 C20 1.244 . S
O16 Mg4 1.955 1_554 S
O16 C29 1.273 . S
O17 Mg6 2.114 1_446 S
O17 Mg8 2.291 1_546 S
O17 C19 1.312 . S
O18 Mg3 2.031 1_456 S
O18 C19 1.208 . S
C19 O17 1.312 . S
C19 O18 1.208 . S
C20 O12 1.331 . S
C20 O15 1.244 . S
O21 Mg6 2.013 1_556 S
O21 C10 1.191 . S
O22 C1 1.331 . S
O22 Mg8 2.081 . S
O23 Mg4 1.986 1_565 S
O23 C10 1.307 . S
O24 C2 1.264 . S
O24 Mg8 2.023 1_556 S
O25 C1 1.244 . S
O25 Mg9 1.942 . S
O26 C2 1.273 . S
O26 Mg9 1.955 1_556 S
O27 C0 1.312 . S
O27 Mg3 2.291 1_455 S
O27 Mg6 2.114 1_445 S
O28 C0 1.208 . S
O28 Mg8 2.031 1_545 S
C29 O14 1.264 . S
C29 O16 1.273 . S
C30 O11 1.191 . S
C30 O13 1.307 . S
C31 O43 1.241 . S
C31 O44 1.280 . S
C32 O45 1.277 . S
C32 O46 1.245 . S
C33 O57 1.247 . S
C33 O59 1.289 . S
Mg34 O35 1.926 . S
Mg34 O44 1.984 . S
Mg34 O46 1.988 . S
Mg34 O47 2.061 . S
O35 Mg34 1.926 . S
O35 Mg36 1.986 . S
O35 Mg37 1.917 . S
Mg36 O35 1.986 . S
Mg36 O43 2.042 . S
Mg36 O45 2.041 . S
Mg36 O51 2.038 . S
Mg36 O59 2.238 . S
Mg37 O35 1.917 . S
Mg37 O38 1.917 . S
Mg37 O48 2.106 . S
Mg37 O50 2.079 . S
Mg37 O59 2.106 . S
Mg37 O60 2.079 . S
O38 Mg37 1.917 . S
O38 Mg39 1.926 . S
O38 Mg40 1.986 . S
Mg39 O38 1.926 . S
Mg39 O53 1.984 . S
Mg39 O56 1.988 . S
Mg39 O57 2.061 . S
Mg40 O38 1.986 . S
Mg40 O48 2.238 . S
Mg40 O52 2.042 . S
Mg40 O54 2.041 . S
Mg40 O61 2.038 . S
C41 O47 1.247 . S
C41 O48 1.289 . S
C42 O60 1.245 . S
C42 O61 1.274 . S
O43 C31 1.241 . S
O43 Mg36 2.042 . S
O44 C31 1.280 . S
O44 Mg34 1.984 . S
O45 C32 1.277 . S
O45 Mg36 2.041 . S
O46 C32 1.245 . S
O46 Mg34 1.988 . S
O47 Mg34 2.061 . S
O47 C41 1.247 . S
O48 Mg37 2.106 . S
O48 Mg40 2.238 . S
O48 C41 1.289 . S
C49 O50 1.245 . S
C49 O51 1.274 . S
O50 Mg37 2.079 . S
O50 C49 1.245 . S
O51 Mg36 2.038 . S
O51 C49 1.274 . S
O52 Mg40 2.042 . S
O52 C55 1.241 . S
O53 Mg39 1.984 . S
O53 C55 1.280 . S
O54 Mg40 2.041 . S
O54 C58 1.277 . S
C55 O52 1.241 . S
C55 O53 1.280 . S
O56 Mg39 1.988 . S
O56 C58 1.245 . S
O57 C33 1.247 . S
O57 Mg39 2.061 . S
C58 O54 1.277 . S
C58 O56 1.245 . S
O59 C33 1.289 . S
O59 Mg36 2.238 . S
O59 Mg37 2.106 . S
O60 Mg37 2.079 . S
O60 C42 1.245 . S
O61 Mg40 2.038 . S
O61 C42 1.274 . S
C62 C63 1.349 . S
C62 C64 1.327 . S
C62 H87 0.950 . S
C63 C62 1.349 . S
C63 C79 1.349 . S
C64 C62 1.327 . S
C64 C83 1.429 . S
C64 H88 0.950 . S
C65 C82 1.574 . S
C65 C84 1.368 . S
C65 H89 0.949 . S
H66 C70 0.949 . S
C67 C68 1.349 . S
C67 C69 1.327 . S
C67 H90 0.950 . S
C68 C67 1.349 . S
C68 C80 1.349 . S
C69 C67 1.327 . S
C69 C85 1.429 . S
C69 H91 0.950 . S
C70 H66 0.949 . S
C70 C78 1.574 . S
C70 C86 1.368 . S
H71 C79 0.950 . S
H72 C77 0.950 . S
H73 C78 0.949 . S
H74 C80 0.950 . S
H75 C81 0.950 . S
H76 C82 0.949 . S
C77 H72 0.950 . S
C77 C79 1.327 . S
C77 C83 1.429 . S
C78 C70 1.574 . S
C78 H73 0.949 . S
C78 C84 1.368 . S
C79 C63 1.349 . S
C79 H71 0.950 . S
C79 C77 1.327 . S
C80 C68 1.349 . S
C80 H74 0.950 . S
C80 C81 1.327 . S
C81 H75 0.950 . S
C81 C80 1.327 . S
C81 C85 1.429 . S
C82 C65 1.574 . S
C82 H76 0.949 . S
C82 C86 1.368 . S
C83 C64 1.429 . S
C83 C77 1.429 . S
C83 C84 1.523 . S
C84 C65 1.368 . S
C84 C78 1.368 . S
C84 C83 1.523 . S
C85 C69 1.429 . S
C85 C81 1.429 . S
C85 C86 1.523 . S
C86 C70 1.368 . S
C86 C82 1.368 . S
C86 C85 1.523 . S
H87 C62 0.950 . S
H88 C64 0.950 . S
H89 C65 0.949 . S
H90 C67 0.950 . S
H91 C69 0.950 . S
C92 C93 1.349 . S
C92 C94 1.327 . S
C92 H117 0.950 . S
C93 C92 1.349 . S
C93 C109 1.349 . S
C94 C92 1.327 . S
C94 C113 1.429 . S
C94 H118 0.950 . S
C95 C112 1.574 . S
C95 C114 1.368 . S
C95 H119 0.949 . S
H96 C100 0.949 . S
C97 C98 1.349 . S
C97 C99 1.327 . S
C97 H120 0.950 . S
C98 C97 1.349 . S
C98 C110 1.349 . S
C99 C97 1.327 . S
C99 C115 1.429 . S
C99 H121 0.950 . S
C100 H96 0.949 . S
C100 C108 1.574 . S
C100 C116 1.368 . S
H101 C109 0.950 . S
H102 C107 0.950 . S
H103 C108 0.949 . S
H104 C110 0.950 . S
H105 C111 0.950 . S
H106 C112 0.949 . S
C107 H102 0.950 . S
C107 C109 1.327 . S
C107 C113 1.429 . S
C108 C100 1.574 . S
C108 H103 0.949 . S
C108 C114 1.368 . S
C109 C93 1.349 . S
C109 H101 0.950 . S
C109 C107 1.327 . S
C110 C98 1.349 . S
C110 H104 0.950 . S
C110 C111 1.327 . S
C111 H105 0.950 . S
C111 C110 1.327 . S
C111 C115 1.429 . S
C112 C95 1.574 . S
C112 H106 0.949 . S
C112 C116 1.368 . S
C113 C94 1.429 . S
C113 C107 1.429 . S
C113 C114 1.523 . S
C114 C95 1.368 . S
C114 C108 1.368 . S
C114 C113 1.523 . S
C115 C99 1.429 . S
C115 C111 1.429 . S
C115 C116 1.523 . S
C116 C100 1.368 . S
C116 C112 1.368 . S
C116 C115 1.523 . S
H117 C92 0.950 . S
H118 C94 0.950 . S
H119 C95 0.949 . S
H120 C97 0.950 . S
H121 C99 0.950 . S
C122 C123 1.349 . S
C122 C124 1.327 . S
C122 H147 0.950 . S
C123 C122 1.349 . S
C123 C139 1.349 . S
C124 C122 1.327 . S
C124 C143 1.429 . S
C124 H148 0.950 . S
C125 C142 1.574 . S
C125 C144 1.368 . S
C125 H149 0.949 . S
H126 C130 0.949 . S
C127 C128 1.349 . S
C127 C129 1.327 . S
C127 H150 0.950 . S
C128 C127 1.349 . S
C128 C140 1.349 . S
C129 C127 1.327 . S
C129 C145 1.429 . S
C129 H151 0.950 . S
C130 H126 0.949 . S
C130 C138 1.574 . S
C130 C146 1.368 . S
H131 C139 0.950 . S
H132 C137 0.950 . S
H133 C138 0.949 . S
H134 C140 0.950 . S
H135 C141 0.950 . S
H136 C142 0.949 . S
C137 H132 0.950 . S
C137 C139 1.327 . S
C137 C143 1.429 . S
C138 C130 1.574 . S
C138 H133 0.949 . S
C138 C144 1.368 . S
C139 C123 1.349 . S
C139 H131 0.950 . S
C139 C137 1.327 . S
C140 C128 1.349 . S
C140 H134 0.950 . S
C140 C141 1.327 . S
C141 H135 0.950 . S
C141 C140 1.327 . S
C141 C145 1.429 . S
C142 C125 1.574 . S
C142 H136 0.949 . S
C142 C146 1.368 . S
C143 C124 1.429 . S
C143 C137 1.429 . S
C143 C144 1.523 . S
C144 C125 1.368 . S
C144 C138 1.368 . S
C144 C143 1.523 . S
C145 C129 1.429 . S
C145 C141 1.429 . S
C145 C146 1.523 . S
C146 C130 1.368 . S
C146 C142 1.368 . S
C146 C145 1.523 . S
H147 C122 0.950 . S
H148 C124 0.950 . S
H149 C125 0.949 . S
H150 C127 0.950 . S
H151 C129 0.950 . S
C152 C153 1.349 . S
C152 C154 1.327 . S
C152 H177 0.950 . S
C153 C152 1.349 . S
C153 C169 1.349 . S
C154 C152 1.327 . S
C154 C173 1.429 . S
C154 H178 0.950 . S
C155 C172 1.574 . S
C155 C174 1.368 . S
C155 H179 0.949 . S
H156 C160 0.949 . S
C157 C158 1.349 . S
C157 C159 1.327 . S
C157 H180 0.950 . S
C158 C157 1.349 . S
C158 C170 1.349 . S
C159 C157 1.327 . S
C159 C175 1.429 . S
C159 H181 0.950 . S
C160 H156 0.949 . S
C160 C168 1.574 . S
C160 C176 1.368 . S
H161 C169 0.950 . S
H162 C167 0.950 . S
H163 C168 0.949 . S
H164 C170 0.950 . S
H165 C171 0.950 . S
H166 C172 0.949 . S
C167 H162 0.950 . S
C167 C169 1.327 . S
C167 C173 1.429 . S
C168 C160 1.574 . S
C168 H163 0.949 . S
C168 C174 1.368 . S
C169 C153 1.349 . S
C169 H161 0.950 . S
C169 C167 1.327 . S
C170 C158 1.349 . S
C170 H164 0.950 . S
C170 C171 1.327 . S
C171 H165 0.950 . S
C171 C170 1.327 . S
C171 C175 1.429 . S
C172 C155 1.574 . S
C172 H166 0.949 . S
C172 C176 1.368 . S
C173 C154 1.429 . S
C173 C167 1.429 . S
C173 C174 1.523 . S
C174 C155 1.368 . S
C174 C168 1.368 . S
C174 C173 1.523 . S
C175 C159 1.429 . S
C175 C171 1.429 . S
C175 C176 1.523 . S
C176 C160 1.368 . S
C176 C172 1.368 . S
C176 C175 1.523 . S
H177 C152 0.950 . S
H178 C154 0.950 . S
H179 C155 0.949 . S
H180 C157 0.950 . S
H181 C159 0.950 . S
C182 C183 1.349 . S
C182 C184 1.327 . S
C182 H207 0.950 . S
C183 C182 1.349 . S
C183 C199 1.349 . S
C184 C182 1.327 . S
C184 C203 1.429 . S
C184 H208 0.950 . S
C185 C202 1.574 . S
C185 C204 1.368 . S
C185 H209 0.949 . S
H186 C190 0.949 . S
C187 C188 1.349 . S
C187 C189 1.327 . S
C187 H210 0.950 . S
C188 C187 1.349 . S
C188 C200 1.349 . S
C189 C187 1.327 . S
C189 C205 1.429 . S
C189 H211 0.950 . S
C190 H186 0.949 . S
C190 C198 1.574 . S
C190 C206 1.368 . S
H191 C199 0.950 . S
H192 C197 0.950 . S
H193 C198 0.949 . S
H194 C200 0.950 . S
H195 C201 0.950 . S
H196 C202 0.949 . S
C197 H192 0.950 . S
C197 C199 1.327 . S
C197 C203 1.429 . S
C198 C190 1.574 . S
C198 H193 0.949 . S
C198 C204 1.368 . S
C199 C183 1.349 . S
C199 H191 0.950 . S
C199 C197 1.327 . S
C200 C188 1.349 . S
C200 H194 0.950 . S
C200 C201 1.327 . S
C201 H195 0.950 . S
C201 C200 1.327 . S
C201 C205 1.429 . S
C202 C185 1.574 . S
C202 H196 0.949 . S
C202 C206 1.368 . S
C203 C184 1.429 . S
C203 C197 1.429 . S
C203 C204 1.523 . S
C204 C185 1.368 . S
C204 C198 1.368 . S
C204 C203 1.523 . S
C205 C189 1.429 . S
C205 C201 1.429 . S
C205 C206 1.523 . S
C206 C190 1.368 . S
C206 C202 1.368 . S
C206 C205 1.523 . S
H207 C182 0.950 . S
H208 C184 0.950 . S
H209 C185 0.949 . S
H210 C187 0.950 . S
H211 C189 0.950 . S
C212 C213 1.349 . S
C212 C214 1.327 . S
C212 H237 0.950 . S
C213 C212 1.349 . S
C213 C229 1.349 . S
C214 C212 1.327 . S
C214 C233 1.429 . S
C214 H238 0.950 . S
C215 C232 1.574 . S
C215 C234 1.368 . S
C215 H239 0.949 . S
H216 C220 0.949 . S
C217 C218 1.349 . S
C217 C219 1.327 . S
C217 H240 0.950 . S
C218 C217 1.349 . S
C218 C230 1.349 . S
C219 C217 1.327 . S
C219 C235 1.429 . S
C219 H241 0.950 . S
C220 H216 0.949 . S
C220 C228 1.574 . S
C220 C236 1.368 . S
H221 C229 0.950 . S
H222 C227 0.950 . S
H223 C228 0.949 . S
H224 C230 0.950 . S
H225 C231 0.950 . S
H226 C232 0.949 . S
C227 H222 0.950 . S
C227 C229 1.327 . S
C227 C233 1.429 . S
C228 C220 1.574 . S
C228 H223 0.949 . S
C228 C234 1.368 . S
C229 C213 1.349 . S
C229 H221 0.950 . S
C229 C227 1.327 . S
C230 C218 1.349 . S
C230 H224 0.950 . S
C230 C231 1.327 . S
C231 H225 0.950 . S
C231 C230 1.327 . S
C231 C235 1.429 . S
C232 C215 1.574 . S
C232 H226 0.949 . S
C232 C236 1.368 . S
C233 C214 1.429 . S
C233 C227 1.429 . S
C233 C234 1.523 . S
C234 C215 1.368 . S
C234 C228 1.368 . S
C234 C233 1.523 . S
C235 C219 1.429 . S
C235 C231 1.429 . S
C235 C236 1.523 . S
C236 C220 1.368 . S
C236 C232 1.368 . S
C236 C235 1.523 . S
H237 C212 0.950 . S
H238 C214 0.950 . S
H239 C215 0.949 . S
H240 C217 0.950 . S
H241 C219 0.950 . S
C242 C243 1.349 . S
C242 C244 1.327 . S
C242 H267 0.950 . S
C243 C242 1.349 . S
C243 C259 1.349 . S
C244 C242 1.327 . S
C244 C263 1.429 . S
C244 H268 0.950 . S
C245 C262 1.574 . S
C245 C264 1.368 . S
C245 H269 0.949 . S
H246 C250 0.949 . S
C247 C248 1.349 . S
C247 C249 1.327 . S
C247 H270 0.950 . S
C248 C247 1.349 . S
C248 C260 1.349 . S
C249 C247 1.327 . S
C249 C265 1.429 . S
C249 H271 0.950 . S
C250 H246 0.949 . S
C250 C258 1.574 . S
C250 C266 1.368 . S
H251 C259 0.950 . S
H252 C257 0.950 . S
H253 C258 0.949 . S
H254 C260 0.950 . S
H255 C261 0.950 . S
H256 C262 0.949 . S
C257 H252 0.950 . S
C257 C259 1.327 . S
C257 C263 1.429 . S
C258 C250 1.574 . S
C258 H253 0.949 . S
C258 C264 1.368 . S
C259 C243 1.349 . S
C259 H251 0.950 . S
C259 C257 1.327 . S
C260 C248 1.349 . S
C260 H254 0.950 . S
C260 C261 1.327 . S
C261 H255 0.950 . S
C261 C260 1.327 . S
C261 C265 1.429 . S
C262 C245 1.574 . S
C262 H256 0.949 . S
C262 C266 1.368 . S
C263 C244 1.429 . S
C263 C257 1.429 . S
C263 C264 1.523 . S
C264 C245 1.368 . S
C264 C258 1.368 . S
C264 C263 1.523 . S
C265 C249 1.429 . S
C265 C261 1.429 . S
C265 C266 1.523 . S
C266 C250 1.368 . S
C266 C262 1.368 . S
C266 C265 1.523 . S
H267 C242 0.950 . S
H268 C244 0.950 . S
H269 C245 0.949 . S
H270 C247 0.950 . S
H271 C249 0.950 . S
C272 C273 1.349 . S
C272 C274 1.327 . S
C272 H297 0.950 . S
C273 C272 1.349 . S
C273 C289 1.349 . S
C274 C272 1.327 . S
C274 C293 1.429 . S
C274 H298 0.950 . S
C275 C292 1.574 . S
C275 C294 1.368 . S
C275 H299 0.949 . S
H276 C280 0.949 . S
C277 C278 1.349 . S
C277 C279 1.327 . S
C277 H300 0.950 . S
C278 C277 1.349 . S
C278 C290 1.349 . S
C279 C277 1.327 . S
C279 C295 1.429 . S
C279 H301 0.950 . S
C280 H276 0.949 . S
C280 C288 1.574 . S
C280 C296 1.368 . S
H281 C289 0.950 . S
H282 C287 0.950 . S
H283 C288 0.949 . S
H284 C290 0.950 . S
H285 C291 0.950 . S
H286 C292 0.949 . S
C287 H282 0.950 . S
C287 C289 1.327 . S
C287 C293 1.429 . S
C288 C280 1.574 . S
C288 H283 0.949 . S
C288 C294 1.368 . S
C289 C273 1.349 . S
C289 H281 0.950 . S
C289 C287 1.327 . S
C290 C278 1.349 . S
C290 H284 0.950 . S
C290 C291 1.327 . S
C291 H285 0.950 . S
C291 C290 1.327 . S
C291 C295 1.429 . S
C292 C275 1.574 . S
C292 H286 0.949 . S
C292 C296 1.368 . S
C293 C274 1.429 . S
C293 C287 1.429 . S
C293 C294 1.523 . S
C294 C275 1.368 . S
C294 C288 1.368 . S
C294 C293 1.523 . S
C295 C279 1.429 . S
C295 C291 1.429 . S
C295 C296 1.523 . S
C296 C280 1.368 . S
C296 C292 1.368 . S
C296 C295 1.523 . S
H297 C272 0.950 . S
H298 C274 0.950 . S
H299 C275 0.949 . S
H300 C277 0.950 . S
H301 C279 0.950 . S
C63 C0 0.944 . S
C68 C33 0.949 . S
C93 C29 1.739 . S
C98 C55 1.719 . S
C123 C30 1.309 . S
C128 C42 1.290 . S
C153 C1 1.736 . S
C158 C32 1.730 . S
C183 C2 1.737 . S
C188 C31 1.720 . S
C218 C49 1.341 . S
C213 C19 1.338 . S
C243 C20 1.743 . S
C248 C58 1.740 . S
C278 C41 0.898 . S
C273 C10 0.902 . S
