# Generated by pormake.
# Topology iac, (4,6)-cn, num edge types: 1
# Building blocks:
#     Node 0, Type 0, BuildingBlock: KUFVIS_clean_sbu_0, # of connection points: 4
#     Node 1, Type 0, BuildingBlock: KUFVIS_clean_sbu_0, # of connection points: 4
#     Node 2, Type 0, BuildingBlock: KUFVIS_clean_sbu_0, # of connection points: 4
#     Node 3, Type 0, BuildingBlock: KUFVIS_clean_sbu_0, # of connection points: 4
#     Node 4, Type 0, BuildingBlock: KUFVIS_clean_sbu_0, # of connection points: 4
#     Node 5, Type 0, BuildingBlock: KUFVIS_clean_sbu_0, # of connection points: 4
#     Node 6, Type 0, BuildingBlock: KUFVIS_clean_sbu_0, # of connection points: 4
#     Node 7, Type 0, BuildingBlock: KUFVIS_clean_sbu_0, # of connection points: 4
#     Node 8, Type 0, BuildingBlock: KUFVIS_clean_sbu_0, # of connection points: 4
#     Node 9, Type 0, BuildingBlock: KUFVIS_clean_sbu_0, # of connection points: 4
#     Node 10, Type 0, BuildingBlock: KUFVIS_clean_sbu_0, # of connection points: 4
#     Node 11, Type 0, BuildingBlock: KUFVIS_clean_sbu_0, # of connection points: 4
#     Node 12, Type 0, BuildingBlock: KUFVIS_clean_sbu_0, # of connection points: 4
#     Node 13, Type 0, BuildingBlock: KUFVIS_clean_sbu_0, # of connection points: 4
#     Node 14, Type 0, BuildingBlock: KUFVIS_clean_sbu_0, # of connection points: 4
#     Node 15, Type 0, BuildingBlock: KUFVIS_clean_sbu_0, # of connection points: 4
#     Node 16, Type 0, BuildingBlock: KUFVIS_clean_sbu_0, # of connection points: 4
#     Node 17, Type 0, BuildingBlock: KUFVIS_clean_sbu_0, # of connection points: 4
#     Node 18, Type 0, BuildingBlock: KUFVIS_clean_sbu_0, # of connection points: 4
#     Node 19, Type 0, BuildingBlock: KUFVIS_clean_sbu_0, # of connection points: 4
#     Node 20, Type 0, BuildingBlock: KUFVIS_clean_sbu_0, # of connection points: 4
#     Node 21, Type 0, BuildingBlock: KUFVIS_clean_sbu_0, # of connection points: 4
#     Node 22, Type 0, BuildingBlock: KUFVIS_clean_sbu_0, # of connection points: 4
#     Node 23, Type 0, BuildingBlock: KUFVIS_clean_sbu_0, # of connection points: 4
#     Node 24, Type 1, BuildingBlock: JUFBIX_clean_sbu_0, # of connection points: 6
#     Node 25, Type 1, BuildingBlock: JUFBIX_clean_sbu_0, # of connection points: 6
#     Node 26, Type 1, BuildingBlock: JUFBIX_clean_sbu_0, # of connection points: 6
#     Node 27, Type 1, BuildingBlock: JUFBIX_clean_sbu_0, # of connection points: 6
#     Node 28, Type 1, BuildingBlock: JUFBIX_clean_sbu_0, # of connection points: 6
#     Node 29, Type 1, BuildingBlock: JUFBIX_clean_sbu_0, # of connection points: 6
#     Node 30, Type 1, BuildingBlock: JUFBIX_clean_sbu_0, # of connection points: 6
#     Node 31, Type 1, BuildingBlock: JUFBIX_clean_sbu_0, # of connection points: 6
#     Node 32, Type 1, BuildingBlock: JUFBIX_clean_sbu_0, # of connection points: 6
#     Node 33, Type 1, BuildingBlock: JUFBIX_clean_sbu_0, # of connection points: 6
#     Node 34, Type 1, BuildingBlock: JUFBIX_clean_sbu_0, # of connection points: 6
#     Node 35, Type 1, BuildingBlock: JUFBIX_clean_sbu_0, # of connection points: 6
#     Node 36, Type 1, BuildingBlock: JUFBIX_clean_sbu_0, # of connection points: 6
#     Node 37, Type 1, BuildingBlock: JUFBIX_clean_sbu_0, # of connection points: 6
#     Node 38, Type 1, BuildingBlock: JUFBIX_clean_sbu_0, # of connection points: 6
#     Node 39, Type 1, BuildingBlock: JUFBIX_clean_sbu_0, # of connection points: 6
#     Edge 40, Type (0, 1), BuildingBlock: AJUNOK_clean_linker_0, # of connection points: 2
#     Edge 41, Type (0, 1), BuildingBlock: AJUNOK_clean_linker_0, # of connection points: 2
#     Edge 42, Type (0, 1), BuildingBlock: AJUNOK_clean_linker_0, # of connection points: 2
#     Edge 43, Type (0, 1), BuildingBlock: AJUNOK_clean_linker_0, # of connection points: 2
#     Edge 44, Type (0, 1), BuildingBlock: AJUNOK_clean_linker_0, # of connection points: 2
#     Edge 45, Type (0, 1), BuildingBlock: AJUNOK_clean_linker_0, # of connection points: 2
#     Edge 46, Type (0, 1), BuildingBlock: AJUNOK_clean_linker_0, # of connection points: 2
#     Edge 47, Type (0, 1), BuildingBlock: AJUNOK_clean_linker_0, # of connection points: 2
#     Edge 48, Type (0, 1), BuildingBlock: AJUNOK_clean_linker_0, # of connection points: 2
#     Edge 49, Type (0, 1), BuildingBlock: AJUNOK_clean_linker_0, # of connection points: 2
#     Edge 50, Type (0, 1), BuildingBlock: AJUNOK_clean_linker_0, # of connection points: 2
#     Edge 51, Type (0, 1), BuildingBlock: AJUNOK_clean_linker_0, # of connection points: 2
#     Edge 52, Type (0, 1), BuildingBlock: AJUNOK_clean_linker_0, # of connection points: 2
#     Edge 53, Type (0, 1), BuildingBlock: AJUNOK_clean_linker_0, # of connection points: 2
#     Edge 54, Type (0, 1), BuildingBlock: AJUNOK_clean_linker_0, # of connection points: 2
#     Edge 55, Type (0, 1), BuildingBlock: AJUNOK_clean_linker_0, # of connection points: 2
#     Edge 56, Type (0, 1), BuildingBlock: AJUNOK_clean_linker_0, # of connection points: 2
#     Edge 57, Type (0, 1), BuildingBlock: AJUNOK_clean_linker_0, # of connection points: 2
#     Edge 58, Type (0, 1), BuildingBlock: AJUNOK_clean_linker_0, # of connection points: 2
#     Edge 59, Type (0, 1), BuildingBlock: AJUNOK_clean_linker_0, # of connection points: 2
#     Edge 60, Type (0, 1), BuildingBlock: AJUNOK_clean_linker_0, # of connection points: 2
#     Edge 61, Type (0, 1), BuildingBlock: AJUNOK_clean_linker_0, # of connection points: 2
#     Edge 62, Type (0, 1), BuildingBlock: AJUNOK_clean_linker_0, # of connection points: 2
#     Edge 63, Type (0, 1), BuildingBlock: AJUNOK_clean_linker_0, # of connection points: 2
#     Edge 64, Type (0, 1), BuildingBlock: AJUNOK_clean_linker_0, # of connection points: 2
#     Edge 65, Type (0, 1), BuildingBlock: AJUNOK_clean_linker_0, # of connection points: 2
#     Edge 66, Type (0, 1), BuildingBlock: AJUNOK_clean_linker_0, # of connection points: 2
#     Edge 67, Type (0, 1), BuildingBlock: AJUNOK_clean_linker_0, # of connection points: 2
#     Edge 68, Type (0, 1), BuildingBlock: AJUNOK_clean_linker_0, # of connection points: 2
#     Edge 69, Type (0, 1), BuildingBlock: AJUNOK_clean_linker_0, # of connection points: 2
#     Edge 70, Type (0, 1), BuildingBlock: AJUNOK_clean_linker_0, # of connection points: 2
#     Edge 71, Type (0, 1), BuildingBlock: AJUNOK_clean_linker_0, # of connection points: 2
#     Edge 72, Type (0, 1), BuildingBlock: AJUNOK_clean_linker_0, # of connection points: 2
#     Edge 73, Type (0, 1), BuildingBlock: AJUNOK_clean_linker_0, # of connection points: 2
#     Edge 74, Type (0, 1), BuildingBlock: AJUNOK_clean_linker_0, # of connection points: 2
#     Edge 75, Type (0, 1), BuildingBlock: AJUNOK_clean_linker_0, # of connection points: 2
#     Edge 76, Type (0, 1), BuildingBlock: AJUNOK_clean_linker_0, # of connection points: 2
#     Edge 77, Type (0, 1), BuildingBlock: AJUNOK_clean_linker_0, # of connection points: 2
#     Edge 78, Type (0, 1), BuildingBlock: AJUNOK_clean_linker_0, # of connection points: 2
#     Edge 79, Type (0, 1), BuildingBlock: AJUNOK_clean_linker_0, # of connection points: 2
#     Edge 80, Type (0, 1), BuildingBlock: AJUNOK_clean_linker_0, # of connection points: 2
#     Edge 81, Type (0, 1), BuildingBlock: AJUNOK_clean_linker_0, # of connection points: 2
#     Edge 82, Type (0, 1), BuildingBlock: AJUNOK_clean_linker_0, # of connection points: 2
#     Edge 83, Type (0, 1), BuildingBlock: AJUNOK_clean_linker_0, # of connection points: 2
#     Edge 84, Type (0, 1), BuildingBlock: AJUNOK_clean_linker_0, # of connection points: 2
#     Edge 85, Type (0, 1), BuildingBlock: AJUNOK_clean_linker_0, # of connection points: 2
#     Edge 86, Type (0, 1), BuildingBlock: AJUNOK_clean_linker_0, # of connection points: 2
#     Edge 87, Type (0, 1), BuildingBlock: AJUNOK_clean_linker_0, # of connection points: 2
#     Edge 88, Type (0, 1), BuildingBlock: AJUNOK_clean_linker_0, # of connection points: 2
#     Edge 89, Type (0, 1), BuildingBlock: AJUNOK_clean_linker_0, # of connection points: 2
#     Edge 90, Type (0, 1), BuildingBlock: AJUNOK_clean_linker_0, # of connection points: 2
#     Edge 91, Type (0, 1), BuildingBlock: AJUNOK_clean_linker_0, # of connection points: 2
#     Edge 92, Type (0, 1), BuildingBlock: AJUNOK_clean_linker_0, # of connection points: 2
#     Edge 93, Type (0, 1), BuildingBlock: AJUNOK_clean_linker_0, # of connection points: 2
#     Edge 94, Type (0, 1), BuildingBlock: AJUNOK_clean_linker_0, # of connection points: 2
#     Edge 95, Type (0, 1), BuildingBlock: AJUNOK_clean_linker_0, # of connection points: 2
#     Edge 96, Type (0, 1), BuildingBlock: AJUNOK_clean_linker_0, # of connection points: 2
#     Edge 97, Type (0, 1), BuildingBlock: AJUNOK_clean_linker_0, # of connection points: 2
#     Edge 98, Type (0, 1), BuildingBlock: AJUNOK_clean_linker_0, # of connection points: 2
#     Edge 99, Type (0, 1), BuildingBlock: AJUNOK_clean_linker_0, # of connection points: 2
#     Edge 100, Type (0, 1), BuildingBlock: AJUNOK_clean_linker_0, # of connection points: 2
#     Edge 101, Type (0, 1), BuildingBlock: AJUNOK_clean_linker_0, # of connection points: 2
#     Edge 102, Type (0, 1), BuildingBlock: AJUNOK_clean_linker_0, # of connection points: 2
#     Edge 103, Type (0, 1), BuildingBlock: AJUNOK_clean_linker_0, # of connection points: 2
#     Edge 104, Type (0, 1), BuildingBlock: AJUNOK_clean_linker_0, # of connection points: 2
#     Edge 105, Type (0, 1), BuildingBlock: AJUNOK_clean_linker_0, # of connection points: 2
#     Edge 106, Type (0, 1), BuildingBlock: AJUNOK_clean_linker_0, # of connection points: 2
#     Edge 107, Type (0, 1), BuildingBlock: AJUNOK_clean_linker_0, # of connection points: 2
#     Edge 108, Type (0, 1), BuildingBlock: AJUNOK_clean_linker_0, # of connection points: 2
#     Edge 109, Type (0, 1), BuildingBlock: AJUNOK_clean_linker_0, # of connection points: 2
#     Edge 110, Type (0, 1), BuildingBlock: AJUNOK_clean_linker_0, # of connection points: 2
#     Edge 111, Type (0, 1), BuildingBlock: AJUNOK_clean_linker_0, # of connection points: 2
#     Edge 112, Type (0, 1), BuildingBlock: AJUNOK_clean_linker_0, # of connection points: 2
#     Edge 113, Type (0, 1), BuildingBlock: AJUNOK_clean_linker_0, # of connection points: 2
#     Edge 114, Type (0, 1), BuildingBlock: AJUNOK_clean_linker_0, # of connection points: 2
#     Edge 115, Type (0, 1), BuildingBlock: AJUNOK_clean_linker_0, # of connection points: 2
#     Edge 116, Type (0, 1), BuildingBlock: AJUNOK_clean_linker_0, # of connection points: 2
#     Edge 117, Type (0, 1), BuildingBlock: AJUNOK_clean_linker_0, # of connection points: 2
#     Edge 118, Type (0, 1), BuildingBlock: AJUNOK_clean_linker_0, # of connection points: 2
#     Edge 119, Type (0, 1), BuildingBlock: AJUNOK_clean_linker_0, # of connection points: 2
#     Edge 120, Type (0, 1), BuildingBlock: AJUNOK_clean_linker_0, # of connection points: 2
#     Edge 121, Type (0, 1), BuildingBlock: AJUNOK_clean_linker_0, # of connection points: 2
#     Edge 122, Type (0, 1), BuildingBlock: AJUNOK_clean_linker_0, # of connection points: 2
#     Edge 123, Type (0, 1), BuildingBlock: AJUNOK_clean_linker_0, # of connection points: 2
#     Edge 124, Type (0, 1), BuildingBlock: AJUNOK_clean_linker_0, # of connection points: 2
#     Edge 125, Type (0, 1), BuildingBlock: AJUNOK_clean_linker_0, # of connection points: 2
#     Edge 126, Type (0, 1), BuildingBlock: AJUNOK_clean_linker_0, # of connection points: 2
#     Edge 127, Type (0, 1), BuildingBlock: AJUNOK_clean_linker_0, # of connection points: 2
#     Edge 128, Type (0, 1), BuildingBlock: AJUNOK_clean_linker_0, # of connection points: 2
#     Edge 129, Type (0, 1), BuildingBlock: AJUNOK_clean_linker_0, # of connection points: 2
#     Edge 130, Type (0, 1), BuildingBlock: AJUNOK_clean_linker_0, # of connection points: 2
#     Edge 131, Type (0, 1), BuildingBlock: AJUNOK_clean_linker_0, # of connection points: 2
#     Edge 132, Type (0, 1), BuildingBlock: AJUNOK_clean_linker_0, # of connection points: 2
#     Edge 133, Type (0, 1), BuildingBlock: AJUNOK_clean_linker_0, # of connection points: 2
#     Edge 134, Type (0, 1), BuildingBlock: AJUNOK_clean_linker_0, # of connection points: 2
#     Edge 135, Type (0, 1), BuildingBlock: AJUNOK_clean_linker_0, # of connection points: 2
# Relax obj value: 0.249
# Max RMSD: 0.244
# Mean RMSD: 0.110
data_MOF--net-iac--node1-KUFVIS_clean_sbu_0--node2-JUFBIX_clean_sbu_0--edge1-AJUNOK_clean_linker_0
_symmetry_space_group_name_H-M    P1
_symmetry_Int_Tables_number       1
_symmetry_cell_setting            triclinic
loop_
_symmetry_equiv_pos_as_xyz
'x, y, z'
_cell_length_a     39.994311
_cell_length_b     40.754118
_cell_length_c     41.717
_cell_angle_alpha  89.218666
_cell_angle_beta   87.759686
_cell_angle_gamma 88.392701
loop_
_atom_site_label
_atom_site_type_symbol
_atom_site_fract_x
_atom_site_fract_y
_atom_site_fract_z
_atom_type_partial_charge
Mn0 Mn 0.06586 0.28116 0.16681 0.0
Mn1 Mn 0.01285 0.27729 0.10462 0.0
C2 C 0.055 0.22816 0.14134 0.0
C3 C 0.11941 0.2882 0.19396 0.0
C4 C 0.98706 0.28492 0.17434 0.0
O5 O 0.06365 0.33089 0.14922 0.0
O6 O 0.02918 0.32324 0.10894 0.0
C7 C 0.06207 0.2908 0.05147 0.0
N8 N 0.03785 0.27162 0.06499 0.0
C9 C 0.04084 0.23548 0.01974 0.0
C10 C 0.06567 0.25497 1.00525 0.0
C11 C 0.0764 0.28268 0.02124 0.0
C12 C 0.02747 0.24481 0.04988 0.0
H13 H 0.0704 0.31211 0.06369 0.0
C14 C 0.04735 0.3422 0.12491 0.0
O15 O 0.09015 0.29316 0.2074 0.0
O16 O 0.11823 0.27978 0.16399 0.0
N17 N 0.99482 0.23535 0.0963 0.0
C18 C 0.97303 0.21743 0.11481 0.0
C19 C 0.96057 0.18839 0.10273 0.0
C20 C 0.97041 0.17819 0.07167 0.0
C21 C 0.99281 0.19704 0.05303 0.0
C22 C 1.00425 0.22587 0.06628 0.0
H23 H 0.9656 0.22497 0.13878 0.0
O24 O 0.06546 0.23028 0.17034 0.0
O25 O 0.05114 0.25712 0.12778 0.0
O26 O 0.01629 0.28507 0.18604 0.0
O27 O 0.98329 0.28233 0.14417 0.0
C28 C 1.00514 0.18774 0.02228 0.0
C29 C 0.0293 0.20683 1.00573 0.0
H30 H 0.07689 0.24871 0.982 0.0
H31 H 0.09567 0.29774 1.01028 0.0
H32 H 0.94356 0.1738 0.11741 0.0
H33 H 0.96106 0.15555 0.06259 0.0
H34 H 0.99678 0.16555 1.01147 0.0
H35 H 0.03915 0.19902 0.98242 0.0
Mn36 Mn 0.05913 0.7869 0.4421 0.0
Mn37 Mn 1.00138 0.79057 0.50348 0.0
C38 C 0.03914 0.8368 0.46076 0.0
C39 C 0.11228 0.78103 0.4199 0.0
C40 C 0.98442 0.78353 0.43466 0.0
O41 O 0.06245 0.74142 0.46026 0.0
O42 O 0.02134 0.74578 0.4981 0.0
C43 C 0.05211 0.77939 0.55279 0.0
N44 N 0.02515 0.79667 0.54181 0.0
C45 C 0.02517 0.83332 0.58658 0.0
C46 C 0.05208 0.81509 0.59897 0.0
C47 C 0.06582 0.7882 0.58181 0.0
C48 C 0.01272 0.82347 0.55742 0.0
H49 H 0.0634 0.7593 0.53929 0.0
C50 C 0.04456 0.72948 0.48297 0.0
O51 O 0.08644 0.77269 0.40452 0.0
O52 O 0.10731 0.79302 0.44854 0.0
N53 N 0.97894 0.8315 0.51364 0.0
C54 C 0.95232 0.846 0.49896 0.0
C55 C 0.93544 0.87307 0.51322 0.0
C56 C 0.94553 0.88457 0.54279 0.0
C57 C 0.97212 0.86859 0.55805 0.0
C58 C 0.98767 0.84139 0.5429 0.0
H59 H 0.94392 0.83704 0.47651 0.0
O60 O 0.05293 0.83454 0.43218 0.0
O61 O 0.03878 0.81032 0.47849 0.0
O62 O 0.01425 0.77779 0.42463 0.0
O63 O 0.97569 0.7871 0.46419 0.0
C64 C 0.98377 0.87854 0.58773 0.0
C65 C 1.01051 0.86113 0.60183 0.0
H66 H 0.06272 0.82182 0.62136 0.0
H67 H 0.08706 0.77442 0.59085 0.0
H68 H 0.91469 0.88504 0.50143 0.0
H69 H 0.93258 0.90558 0.55364 0.0
H70 H 0.97248 0.89971 0.59981 0.0
H71 H 0.01956 0.86927 0.62444 0.0
Mn72 Mn 0.56937 0.77796 0.66594 0.0
Mn73 Mn 0.51609 0.77362 0.60396 0.0
C74 C 0.55901 0.72524 0.64051 0.0
C75 C 0.62265 0.78529 0.69323 0.0
C76 C 0.49082 0.78013 0.67375 0.0
O77 O 0.56655 0.82755 0.64833 0.0
O78 O 0.53122 0.81995 0.60863 0.0
C79 C 0.56369 0.78959 0.55015 0.0
N80 N 0.54082 0.76913 0.56403 0.0
C81 C 0.54307 0.73451 0.51765 0.0
C82 C 0.56649 0.75533 0.50279 0.0
C83 C 0.57699 0.78287 0.5192 0.0
C84 C 0.5309 0.74232 0.54863 0.0
H85 H 0.57162 0.81096 0.56252 0.0
C86 C 0.5497 0.83883 0.62435 0.0
O87 O 0.59334 0.79021 0.70657 0.0
O88 O 0.62164 0.77684 0.66325 0.0
N89 N 0.4992 0.73126 0.59528 0.0
C90 C 0.47743 0.71294 0.6134 0.0
C91 C 0.46535 0.68393 0.60089 0.0
C92 C 0.47546 0.67422 0.56975 0.0
C93 C 0.49757 0.69365 0.55139 0.0
C94 C 0.50878 0.72231 0.56514 0.0
H95 H 0.46971 0.72013 0.63739 0.0
O96 O 0.56943 0.72722 0.66954 0.0
O97 O 0.55494 0.75412 0.62687 0.0
O98 O 0.52006 0.78121 0.68519 0.0
O99 O 0.48677 0.77742 0.64367 0.0
C100 C 0.50912 0.68555 0.52008 0.0
C101 C 0.53186 0.70595 0.50322 0.0
H102 H 0.57681 0.75023 0.47893 0.0
H103 H 0.59517 0.79896 0.50795 0.0
H104 H 0.44837 0.66902 0.61526 0.0
H105 H 0.46624 0.65173 0.56024 0.0
H106 H 0.50085 0.66354 0.50885 0.0
H107 H 0.54088 0.69923 0.47931 0.0
Mn108 Mn 0.57036 0.29218 0.94551 0.0
Mn109 Mn 0.5084 0.27599 1.00067 0.0
C110 C 0.55395 0.33215 0.98115 0.0
C111 C 0.62307 0.28335 0.92355 0.0
C112 C 0.49695 0.29503 0.93184 0.0
O113 O 0.5646 0.2434 0.94249 0.0
O114 O 0.53149 0.23497 0.98636 0.0
C115 C 0.55019 0.24978 0.05276 0.0
N116 N 0.52629 0.27145 0.04239 0.0
C117 C 0.51863 0.29457 0.09502 0.0
C118 C 0.54318 0.2725 0.10624 0.0
C119 C 0.5591 0.25008 0.08497 0.0
C120 C 0.51117 0.29344 0.06254 0.0
H121 H 0.56229 0.23233 0.03659 0.0
C122 C 0.55068 0.22483 0.96321 0.0
O123 O 0.59772 0.29021 0.90625 0.0
O124 O 0.61871 0.28403 0.95472 0.0
N125 N 0.48313 0.31277 0.01788 0.0
C126 C 0.45818 0.33071 1.00391 0.0
C127 C 0.43874 0.35329 0.02229 0.0
C128 C 0.44445 0.35661 0.05504 0.0
C129 C 0.46928 0.33701 0.06924 0.0
C130 C 0.48772 0.31473 0.04975 0.0
H131 H 0.45305 0.32788 0.97893 0.0
O132 O 0.57257 0.33916 0.95588 0.0
O133 O 0.54845 0.30119 0.98693 0.0
O134 O 0.52708 0.30123 0.92475 0.0
O135 O 0.48731 0.28168 0.95842 0.0
C136 C 0.47629 0.33853 0.102 0.0
C137 C 0.50115 0.31751 0.11484 0.0
H138 H 0.54992 0.2725 0.13113 0.0
H139 H 0.57804 0.23293 0.09343 0.0
H140 H 0.4193 0.368 1.01122 0.0
H141 H 0.42939 0.37405 0.06914 0.0
H142 H 0.46268 0.35575 0.11757 0.0
H143 H 0.50635 0.31894 0.14006 0.0
Mn144 Mn 0.148 0.04132 0.32174 0.0
Mn145 Mn 0.21441 0.0407 0.36991 0.0
C146 C 0.17608 0.08831 0.32934 0.0
C147 C 0.12716 0.02998 0.27273 0.0
C148 C 0.14242 0.04208 0.39386 0.0
O149 O 0.15856 0.99296 0.32781 0.0
O150 O 0.20576 0.99692 0.3548 0.0
C151 C 0.26751 0.02155 0.32183 0.0
N152 N 0.25512 0.04276 0.34458 0.0
C153 C 0.30571 0.07337 0.34194 0.0
C154 C 0.31907 0.05185 0.31849 0.0
C155 C 0.29977 0.02598 0.30822 0.0
C156 C 0.27313 0.06818 0.35406 0.0
H157 H 0.25298 1.00127 0.31433 0.0
C158 C 0.18417 0.98045 0.3408 0.0
O159 O 0.10789 0.03043 0.29851 0.0
O160 O 0.15831 0.03732 0.27539 0.0
N161 N 0.22657 0.0818 0.38698 0.0
C162 C 0.21129 0.09846 0.41186 0.0
C163 C 0.22781 0.12414 0.42603 0.0
C164 C 0.26033 0.1318 0.41519 0.0
C165 C 0.27593 0.11396 0.39001 0.0
C166 C 0.25821 0.08858 0.37685 0.0
H167 H 0.18706 0.09164 0.42147 0.0
O168 O 0.14639 0.09005 0.31781 0.0
O169 O 0.18915 0.05942 0.33442 0.0
O170 O 0.12855 0.04417 0.36703 0.0
O171 O 0.17382 0.03927 0.39767 0.0
C172 C 0.30875 0.1197 0.37815 0.0
C173 C 0.32351 0.09963 0.3539 0.0
H174 H 0.34409 0.05496 0.30821 0.0
H175 H 0.30989 0.00927 0.29014 0.0
H176 H 0.21581 0.13744 0.4458 0.0
H177 H 0.27336 0.15092 0.42693 0.0
H178 H 0.32294 0.13936 0.38766 0.0
H179 H 0.34875 0.10428 0.34496 0.0
Mn180 Mn 0.27163 0.92776 0.58307 0.0
Mn181 Mn 0.26197 0.99454 0.53508 0.0
C182 C 0.31697 0.95624 0.56656 0.0
C183 C 0.26987 0.90079 0.63176 0.0
C184 C 0.272 0.92662 0.50953 0.0
O185 O 0.22255 0.93681 0.58768 0.0
O186 O 0.21843 0.97518 0.54896 0.0
C187 C 0.23008 0.03528 0.58698 0.0
N188 N 0.25488 0.03053 0.56404 0.0
C189 C 0.27952 0.08173 0.57696 0.0
C190 C 0.25446 0.08683 0.60092 0.0
C191 C 0.22962 0.06348 0.60594 0.0
C192 C 0.27908 0.05277 0.55924 0.0
H193 H 0.21063 0.01788 0.59077 0.0
C194 C 0.20561 0.9556 0.56995 0.0
O195 O 0.26561 0.88552 0.60523 0.0
O196 O 0.27538 0.93208 0.62996 0.0
N197 N 0.30023 0.01799 0.51912 0.0
C198 C 0.31817 0.01302 0.49109 0.0
C199 C 0.34264 0.03533 0.48095 0.0
C200 C 0.34732 0.06356 0.49889 0.0
C201 C 0.32656 0.06978 0.52608 0.0
C202 C 0.30269 0.04646 0.53506 0.0
H203 H 0.31353 0.99242 0.47634 0.0
O204 O 0.3204 0.92634 0.57719 0.0
O205 O 0.28711 0.97019 0.56815 0.0
O206 O 0.26775 0.91269 0.5369 0.0
O207 O 0.27149 0.95783 0.50522 0.0
C208 C 0.32781 0.09879 0.54389 0.0
C209 C 0.30449 0.10462 0.56952 0.0
H210 H 0.2538 0.10877 0.61533 0.0
H211 H 0.20997 0.06733 0.6242 0.0
H212 H 0.35755 0.03097 0.45914 0.0
H213 H 0.36612 0.08082 0.49096 0.0
H214 H 0.34627 0.11702 0.53775 0.0
H215 H 0.30547 0.12718 0.58285 0.0
Mn216 Mn 0.42416 0.06115 0.75738 0.0
Mn217 Mn 0.35846 0.05323 0.81043 0.0
C218 C 0.40909 0.01033 0.77506 0.0
C219 C 0.44616 0.069 0.70643 0.0
C220 C 0.42879 0.06631 0.82936 0.0
O221 O 0.40206 0.10581 0.75581 0.0
O222 O 0.35867 0.0972 0.79023 0.0
C223 C 0.30689 0.05688 0.76126 0.0
N224 N 0.32029 0.0417 0.78726 0.0
C225 C 0.27713 1.00171 0.7894 0.0
C226 C 0.26238 0.01741 0.76315 0.0
C227 C 0.27756 0.0449 0.74879 0.0
C228 C 0.30672 0.01439 0.80034 0.0
H229 H 0.31862 0.07784 0.75001 0.0
C230 C 0.37505 0.11504 0.77017 0.0
O231 O 0.46204 0.0776 0.73134 0.0
O232 O 0.41719 0.05564 0.71121 0.0
N233 N 0.35274 0.01234 0.83291 0.0
C234 C 0.36923 1.00083 0.85898 0.0
C235 C 0.3569 0.9738 0.8765 0.0
C236 C 0.32726 0.95935 0.86763 0.0
C237 C 0.31014 0.97212 0.84138 0.0
C238 C 0.32347 0.99932 0.82501 0.0
H239 H 0.39154 0.01225 0.86656 0.0
O240 O 0.43851 0.01445 0.76167 0.0
O241 O 0.38815 0.03534 0.77569 0.0
O242 O 0.4414 0.06933 0.80116 0.0
O243 O 0.39754 0.06297 0.83583 0.0
C244 C 0.28009 0.95924 0.83115 0.0
C245 C 0.2637 0.9739 0.80505 0.0
H246 H 0.23962 0.00837 0.75362 0.0
H247 H 0.26662 0.05687 0.72823 0.0
H248 H 0.37009 0.96431 0.89696 0.0
H249 H 0.31766 0.93867 0.88135 0.0
H250 H 0.26937 0.93804 0.84318 0.0
H251 H 0.24073 0.96364 0.79725 0.0
Mn252 Mn 0.28766 0.17537 0.05011 0.0
Mn253 Mn 0.28405 0.11326 0.99572 0.0
C254 C 0.23516 0.14629 0.04194 0.0
C255 C 0.29697 0.19803 0.10486 0.0
C256 C 0.2884 0.18558 0.97349 0.0
O257 O 0.33835 0.15871 0.04469 0.0
O258 O 0.33073 0.11808 1.0101 0.0
C259 C 0.30124 0.05774 0.03928 0.0
N260 N 0.28038 0.07197 0.01775 0.0
C261 C 0.24506 0.02506 0.01973 0.0
C262 C 0.26644 0.00974 0.04157 0.0
C263 C 0.29455 0.02623 0.0515 0.0
C264 C 0.25304 0.05648 1.00834 0.0
H265 H 0.32278 0.07033 0.04712 0.0
C266 C 0.34976 0.13391 0.02812 0.0
O267 O 0.30004 0.21477 0.07834 0.0
O268 O 0.28853 0.16798 0.0999 0.0
N269 N 0.24077 0.10468 0.98013 0.0
C270 C 0.22116 0.12388 0.9611 0.0
C271 C 0.19157 0.11136 0.94966 0.0
C272 C 0.18237 0.07927 0.95801 0.0
C273 C 0.20283 0.06002 0.97779 0.0
C274 C 0.23224 0.07366 0.98812 0.0
H275 H 0.2277 0.14875 0.95518 0.0
O276 O 0.23537 0.17584 0.05332 0.0
O277 O 0.26521 0.13517 0.03469 0.0
O278 O 0.2889 0.19723 1.00231 0.0
O279 O 0.28693 0.15461 0.96915 0.0
C280 C 0.19478 0.02808 0.98827 0.0
C281 C 0.21583 0.01066 1.00932 0.0
H282 H 0.2613 0.98547 0.05114 0.0
H283 H 0.31101 0.01468 0.06855 0.0
H284 H 0.17571 0.12654 0.93475 0.0
H285 H 0.15929 0.06987 0.94953 0.0
H286 H 0.17213 0.01694 0.98078 0.0
H287 H 0.20905 0.98637 0.01768 0.0
Mn288 Mn 0.77375 0.42509 0.07438 0.0
Mn289 Mn 0.77238 0.49529 0.03052 0.0
C290 C 0.82228 0.44813 0.05828 0.0
C291 C 0.76918 0.39675 0.12244 0.0
C292 C 0.77331 0.42886 1.00078 0.0
O293 O 0.7261 0.4401 0.08024 0.0
O294 O 0.72676 0.48065 0.04343 0.0
C295 C 0.74693 0.53477 0.08614 0.0
N296 N 0.77038 0.52923 0.0621 0.0
C297 C 0.80196 0.57519 0.07849 0.0
C298 C 0.7782 0.58114 0.10345 0.0
C299 C 0.75058 0.5608 0.1073 0.0
C300 C 0.79736 0.54838 0.05856 0.0
H301 H 0.72557 0.51954 0.08923 0.0
C302 C 0.71162 0.46157 0.06331 0.0
O303 O 0.76255 0.38304 0.09559 0.0
O304 O 0.77887 0.42692 0.12116 0.0
N305 N 0.81328 0.51489 0.0156 0.0
C306 C 0.82956 0.51053 0.98662 0.0
C307 C 0.85621 0.53068 0.97729 0.0
C308 C 0.86511 0.55612 0.9973 0.0
C309 C 0.84615 0.56211 0.02566 0.0
C310 C 0.81967 0.54125 0.03353 0.0
H311 H 0.82183 0.49222 0.97046 0.0
O312 O 0.82213 0.41758 0.06736 0.0
O313 O 0.79449 0.46559 0.06139 0.0
O314 O 0.7672 0.41378 0.02738 0.0
O315 O 0.77686 0.46001 0.99834 0.0
C316 C 0.85158 0.58887 0.04564 0.0
C317 C 0.82967 0.5952 0.07225 0.0
H318 H 0.78075 0.60144 0.11959 0.0
H319 H 0.73202 0.56527 0.12643 0.0
H320 H 0.86959 0.52681 0.95455 0.0
H321 H 0.8857 0.57163 0.99006 0.0
H322 H 0.87215 0.60507 0.04042 0.0
H323 H 0.83387 0.61604 0.08729 0.0
Mn324 Mn 0.92394 0.56315 0.26112 0.0
Mn325 Mn 0.86232 0.57126 0.31861 0.0
C326 C 0.89896 0.51787 0.28176 0.0
C327 C 0.94402 0.56444 0.20948 0.0
C328 C 0.93592 0.57283 0.33168 0.0
O329 O 0.91247 0.61105 0.25884 0.0
O330 O 0.86948 0.61324 0.29538 0.0
C331 C 0.80622 0.58361 0.27532 0.0
N332 N 0.82017 0.56583 0.29948 0.0
C333 C 0.77224 0.53147 0.30462 0.0
C334 C 0.75732 0.54952 0.27987 0.0
C335 C 0.77444 0.57565 0.2651 0.0
C336 C 0.80406 0.54039 0.31361 0.0
H337 H 0.81926 0.60369 0.26391 0.0
C338 C 0.8889 0.62609 0.27396 0.0
O339 O 0.96299 0.56996 0.23316 0.0
O340 O 0.91261 0.55836 0.21558 0.0
N341 N 0.85174 0.53272 0.34336 0.0
C342 C 0.86886 0.51873 0.36792 0.0
C343 C 0.85478 0.49275 0.38576 0.0
C344 C 0.82297 0.48183 0.37864 0.0
C345 C 0.80533 0.49728 0.35401 0.0
C346 C 0.82052 0.52328 0.33725 0.0
H347 H 0.89316 0.52718 0.37382 0.0
O348 O 0.92781 0.51513 0.2666 0.0
O349 O 0.88428 0.54674 0.28282 0.0
O350 O 0.94598 0.56874 0.30287 0.0
O351 O 0.90501 0.57563 0.34045 0.0
C352 C 0.77323 0.48798 0.3455 0.0
C353 C 0.75678 0.50493 0.32068 0.0
H354 H 0.73277 0.54351 0.27199 0.0
H355 H 0.76315 0.58966 0.24593 0.0
H356 H 0.86843 0.48116 0.40494 0.0
H357 H 0.81221 0.46173 0.3924 0.0
H358 H 0.761 0.46778 0.35785 0.0
H359 H 0.73217 0.49746 0.31425 0.0
Mn360 Mn 0.79218 0.67367 0.55169 0.0
Mn361 Mn 0.79334 0.61084 0.49787 0.0
C362 C 0.74132 0.64337 0.54181 0.0
C363 C 0.79943 0.69531 0.60726 0.0
C364 C 0.79479 0.68322 0.47481 0.0
O365 O 0.84331 0.65893 0.54778 0.0
O366 O 0.83941 0.61704 0.51366 0.0
C367 C 0.81122 0.55569 0.54156 0.0
N368 N 0.79012 0.56959 0.52005 0.0
C369 C 0.75637 0.52159 0.52103 0.0
C370 C 0.77789 0.50667 0.54298 0.0
C371 C 0.80531 0.52388 0.55343 0.0
C372 C 0.76347 0.55339 0.51011 0.0
H373 H 0.83244 0.56869 0.54954 0.0
C374 C 0.8566 0.63435 0.53216 0.0
O375 O 0.80233 0.71291 0.58119 0.0
O376 O 0.79213 0.66518 0.60132 0.0
N377 N 0.75098 0.60093 0.48093 0.0
C378 C 0.73175 0.61927 0.46079 0.0
C379 C 0.70305 0.60579 0.44849 0.0
C380 C 0.69427 0.57365 0.45715 0.0
C381 C 0.71429 0.5553 0.47808 0.0
C382 C 0.74283 0.56989 0.48925 0.0
H383 H 0.73785 0.64423 0.45464 0.0
O384 O 0.74019 0.67281 0.55352 0.0
O385 O 0.7719 0.63283 0.53571 0.0
O386 O 0.79339 0.69556 0.50351 0.0
O387 O 0.79595 0.65203 0.47128 0.0
C388 C 0.70683 0.52322 0.48853 0.0
C389 C 0.72785 0.50638 0.51001 0.0
H390 H 0.77339 0.48215 0.55224 0.0
H391 H 0.82191 0.51261 0.57052 0.0
H392 H 0.68753 0.62025 0.43264 0.0
H393 H 0.67191 0.56347 0.44791 0.0
H394 H 0.68483 0.51138 0.48042 0.0
H395 H 0.72166 0.48185 0.51813 0.0
Mn396 Mn 0.64921 0.53407 0.82042 0.0
Mn397 Mn 0.71375 0.5284 0.87033 0.0
C398 C 0.67651 0.57995 0.8336 0.0
C399 C 0.6306 0.52837 0.76967 0.0
C400 C 0.64098 0.52598 0.89238 0.0
O401 O 0.66064 0.48585 0.82101 0.0
O402 O 0.70584 0.48557 0.85161 0.0
C403 C 0.76857 0.51295 0.82275 0.0
N404 N 0.75517 0.53252 0.84642 0.0
C405 C 0.80463 0.56479 0.84608 0.0
C406 C 0.81905 0.54489 0.82179 0.0
C407 C 0.80085 0.51898 0.80995 0.0
C408 C 0.77226 0.55779 0.85767 0.0
H409 H 0.7548 0.49279 0.81382 0.0
C410 C 0.68506 0.47151 0.83428 0.0
O411 O 0.61023 0.52558 0.79456 0.0
O412 O 0.66129 0.53591 0.77446 0.0
N413 N 0.72479 0.56845 0.89033 0.0
C414 C 0.70753 0.58499 0.91415 0.0
C415 C 0.72237 0.61142 0.92886 0.0
C416 C 0.75491 0.62036 0.91918 0.0
C417 C 0.77228 0.6029 0.89474 0.0
C418 C 0.75629 0.57664 0.88111 0.0
H419 H 0.68258 0.57822 0.92171 0.0
O420 O 0.64682 0.58279 0.82214 0.0
O421 O 0.68965 0.55066 0.83601 0.0
O422 O 0.62827 0.53059 0.86517 0.0
O423 O 0.67242 0.52443 0.89672 0.0
C424 C 0.80492 0.61035 0.88352 0.0
C425 C 0.82103 0.5914 0.85911 0.0
H426 H 0.84399 0.54939 0.81194 0.0
H427 H 0.81176 0.50358 0.79114 0.0
H428 H 0.70878 0.6248 0.94768 0.0
H429 H 0.76633 0.64061 0.93077 0.0
H430 H 0.81784 0.63064 0.89348 0.0
H431 H 0.84605 0.59747 0.85058 0.0
Mn432 Mn 0.0622 0.79914 0.91625 0.0
Mn433 Mn 1.00095 0.80526 0.97344 0.0
C434 C 0.0511 0.85228 0.94155 0.0
C435 C 0.11871 0.79072 0.89356 0.0
C436 C 0.98572 0.7947 0.90256 0.0
O437 O 0.05749 0.74983 0.93441 0.0
O438 O 0.01969 0.75865 0.9752 0.0
C439 C 0.03587 0.79565 0.0343 0.0
N440 N 0.01713 0.815 0.01464 0.0
C441 C 0.01489 0.85895 0.05267 0.0
C442 C 0.03397 0.83941 0.07344 0.0
C443 C 0.04443 0.80759 0.06423 0.0
C444 C 1.0062 0.84534 0.0236 0.0
H445 H 0.04421 0.77127 0.02719 0.0
C446 C 0.04007 0.73924 0.95929 0.0
O447 O 0.09203 0.7856 0.87814 0.0
O448 O 0.113 0.7991 0.92331 0.0
N449 N 0.9822 0.84874 0.97371 0.0
C450 C 0.96811 0.86564 0.94901 0.0
C451 C 0.96093 0.89923 0.95211 0.0
C452 C 0.96822 0.91489 0.98054 0.0
C453 C 0.98091 0.8968 1.00638 0.0
C454 C 0.9883 0.86345 1.0016 0.0
H455 H 0.96393 0.85405 0.92651 0.0
O456 O 0.06359 0.8495 0.91246 0.0
O457 O 0.04347 0.8235 0.95427 0.0
O458 O 0.01619 0.79807 0.89267 0.0
O459 O 0.9781 0.79519 0.93258 0.0
C460 C 0.98903 0.91097 0.03561 0.0
C461 C 1.00543 0.89187 0.05902 0.0
H462 H 0.04123 0.84878 0.09624 0.0
H463 H 0.05933 0.79243 0.08005 0.0
H464 H 0.95128 0.9133 0.93214 0.0
H465 H 0.96606 0.94112 0.98124 0.0
H466 H 0.98368 0.93671 0.04002 0.0
H467 H 0.01199 0.90315 0.08118 0.0
Mn468 Mn 0.0216 0.32906 0.67409 0.0
Mn469 Mn 0.98097 0.29956 0.61221 0.0
C470 C 0.03095 0.276 0.65896 0.0
C471 C 0.067 0.34933 0.69824 0.0
C472 C 0.94766 0.31434 0.67696 0.0
O473 O 1.00746 0.36994 0.6501 0.0
O474 O 0.98264 0.348 0.60774 0.0
C475 C 0.02742 0.31593 0.55764 0.0
N476 N 1.01081 0.29313 0.57579 0.0
C477 C 0.03256 0.2495 0.54208 0.0
C478 C 0.04903 0.27263 0.52245 0.0
C479 C 0.04662 0.306 0.53041 0.0
C480 C 0.01316 0.26094 0.56849 0.0
H481 H 0.02629 0.34147 0.56403 0.0
C482 C 0.99253 0.37244 0.62358 0.0
O483 O 0.03713 0.35294 0.71121 0.0
O484 O 0.06947 0.33889 0.66891 0.0
N485 N 0.97908 0.25278 0.61428 0.0
C486 C 0.96344 0.23352 0.63687 0.0
C487 C 0.96621 0.19925 0.63425 0.0
C488 C 0.98477 0.18531 0.60838 0.0
C489 C 1.00011 0.20563 0.58513 0.0
C490 C 0.99676 0.23956 0.58916 0.0
H491 H 0.94955 0.24423 0.657 0.0
O492 O 0.03492 0.28418 0.68848 0.0
O493 O 0.0196 0.29873 0.63978 0.0
O494 O 0.97412 0.3228 0.68986 0.0
O495 O 0.9472 0.30487 0.64799 0.0
C496 C 0.01939 0.19361 0.55864 0.0
C497 C 0.03538 0.21546 0.53698 0.0
H498 H 0.06426 0.26498 0.50171 0.0
H499 H 0.0598 0.32397 0.51578 0.0
H500 H 0.95444 0.18362 0.65233 0.0
H501 H 0.9877 0.15898 0.60699 0.0
H502 H 0.02247 0.16761 0.5548 0.0
H503 H 0.05035 0.20581 0.51689 0.0
Mn504 Mn 0.54247 0.28442 0.41976 0.0
Mn505 Mn 0.54183 0.34007 0.35794 0.0
C506 C 0.49127 0.29666 0.39116 0.0
C507 C 0.5472 0.22827 0.44348 0.0
C508 C 0.54843 0.36197 0.42778 0.0
O509 O 0.59315 0.28504 0.40307 0.0
O510 O 0.58841 0.32169 0.36211 0.0
C511 C 0.55803 0.2961 0.30322 0.0
N512 N 0.53674 0.31812 0.31828 0.0
C513 C 0.49788 0.31589 0.27582 0.0
C514 C 0.51953 0.29342 0.25971 0.0
C515 C 0.5497 0.28345 0.27351 0.0
C516 C 0.50772 0.32801 0.30514 0.0
H517 H 0.58118 0.28824 0.31379 0.0
C518 C 0.6059 0.30153 0.37898 0.0
O519 O 0.55244 0.25478 0.4591 0.0
O520 O 0.5403 0.23404 0.41371 0.0
N521 N 0.49847 0.35916 0.3511 0.0
C522 C 0.48004 0.38024 0.37021 0.0
C523 C 0.44867 0.39182 0.36042 0.0
C524 C 0.43651 0.38159 0.33113 0.0
C525 C 0.45615 0.36015 0.31165 0.0
C526 C 0.48745 0.34977 0.32251 0.0
H527 H 0.48902 0.3879 0.39292 0.0
O528 O 0.49057 0.28616 0.42074 0.0
O529 O 0.52168 0.30161 0.38013 0.0
O530 O 0.54619 0.33263 0.43986 0.0
O531 O 0.54692 0.36672 0.39746 0.0
C532 C 0.44556 0.34788 0.28239 0.0
C533 C 0.46652 0.32601 0.26437 0.0
H534 H 0.51302 0.28332 0.23697 0.0
H535 H 0.56642 0.26593 0.26135 0.0
H536 H 0.43382 0.40818 0.37575 0.0
H537 H 0.41186 0.38988 0.3242 0.0
H538 H 0.4211 0.35446 0.27376 0.0
H539 H 0.45799 0.31663 0.24203 0.0
Mn540 Mn 0.51584 0.82097 0.17565 0.0
Mn541 Mn 0.46653 0.81134 0.11343 0.0
C542 C 0.508 0.76987 0.15539 0.0
C543 C 0.56774 0.82465 0.19674 0.0
C544 C 0.44031 0.82813 0.18026 0.0
O545 O 0.51362 0.86676 0.15616 0.0
O546 O 0.4828 0.85647 0.11329 0.0
C547 C 0.51834 0.81742 0.06118 0.0
N548 N 0.49437 0.79954 0.07685 0.0
C549 C 0.50656 0.7531 0.04289 0.0
C550 C 0.53124 0.77109 0.02628 0.0
C551 C 0.53716 0.80339 0.03548 0.0
C552 C 0.48857 0.76841 0.06826 0.0
H553 H 0.52324 0.84212 0.06842 0.0
C554 C 0.49943 0.87567 0.13036 0.0
O555 O 0.54097 0.83395 0.21324 0.0
O556 O 0.56444 0.81702 0.16701 0.0
N557 N 0.45 0.76789 0.11148 0.0
C558 C 0.42557 0.75381 0.13024 0.0
C559 C 0.41603 0.72179 0.12375 0.0
C560 C 0.43196 0.70458 0.09827 0.0
C561 C 0.45691 0.71959 0.07921 0.0
C562 C 0.46475 0.75184 0.08633 0.0
H563 H 0.41345 0.76689 0.15 0.0
O564 O 0.51567 0.77279 0.18509 0.0
O565 O 0.50295 0.79703 0.13984 0.0
O566 O 0.46855 0.82684 0.19309 0.0
O567 O 0.43633 0.82263 0.15057 0.0
C568 C 0.47453 0.70374 0.05367 0.0
C569 C 0.49943 0.72043 0.03559 0.0
H570 H 0.54595 0.76028 1.00657 0.0
H571 H 0.55631 0.81736 0.0229 0.0
H572 H 0.3968 0.71023 0.13858 0.0
H573 H 0.42524 0.6797 0.09388 0.0
H574 H 0.46931 0.67865 0.0479 0.0
H575 H 0.513 0.70788 0.01618 0.0
Mn576 Mn 0.89968 0.06667 0.77812 0.0
Mn577 Mn 0.8422 0.03771 0.83046 0.0
C578 C 0.89456 0.01239 0.78442 0.0
C579 C 0.91822 0.08199 0.72808 0.0
C580 C 0.90716 0.0631 0.85025 0.0
O581 O 0.86853 0.10461 0.78354 0.0
O582 O 0.83471 0.08578 0.82406 0.0
C583 C 0.7836 0.04849 0.78988 0.0
N584 N 0.8044 0.02763 0.80603 0.0
C585 C 0.77554 0.98068 0.7881 0.0
C586 C 0.75371 1.00166 0.77145 0.0
C587 C 0.75775 0.03574 0.7724 0.0
C588 C 0.80047 0.99481 0.80558 0.0
H589 H 0.78673 0.07472 0.79022 0.0
C590 C 0.84503 0.10816 0.80455 0.0
O591 O 0.93219 0.09256 0.75346 0.0
O592 O 0.89151 0.06487 0.73209 0.0
N593 N 0.84694 0.99141 0.83745 0.0
C594 C 0.87089 0.97457 0.85375 0.0
C595 C 0.87071 0.94014 0.85486 0.0
C596 C 0.84636 0.92347 0.83861 0.0
C597 C 0.82207 0.94137 0.82175 0.0
C598 C 0.82304 0.97566 0.82221 0.0
H599 H 0.89035 0.98739 0.86509 0.0
O600 O 0.92338 0.02386 0.77529 0.0
O601 O 0.87047 0.0335 0.79149 0.0
O602 O 0.9162 0.07305 0.82242 0.0
O603 O 0.88068 0.04716 0.85679 0.0
C604 C 0.79739 0.92666 0.80399 0.0
C605 C 0.77402 0.94623 0.78736 0.0
H606 H 0.73405 0.99188 0.75758 0.0
H607 H 0.74116 0.05211 0.75945 0.0
H608 H 0.88969 0.92647 0.86767 0.0
H609 H 0.84675 0.89689 0.83905 0.0
H610 H 0.79611 0.90027 0.80279 0.0
H611 H 0.75527 0.93455 0.77375 0.0
Mn612 Mn 0.80843 0.19298 0.52788 0.0
Mn613 Mn 0.81678 0.12305 0.48613 0.0
C614 C 0.76367 0.1607 0.52161 0.0
C615 C 0.80454 0.21901 0.57668 0.0
C616 C 0.8175 0.19029 0.45522 0.0
O617 O 0.85812 0.18385 0.52839 0.0
O618 O 0.86113 0.13647 0.50024 0.0
C619 C 0.83893 0.07638 0.53651 0.0
N620 N 0.81582 0.0862 0.51497 0.0
C621 C 0.78121 0.04044 0.52908 0.0
C622 C 0.80471 0.02977 0.55131 0.0
C623 C 0.83372 0.0478 0.555 0.0
C624 C 0.78814 0.0687 0.5108 0.0
H625 H 0.86119 0.09022 0.53954 0.0
C626 C 0.87429 0.1597 0.5155 0.0
O627 O 0.81036 0.2358 0.55038 0.0
O628 O 0.80415 0.18744 0.57454 0.0
N629 N 0.77453 0.10851 0.4726 0.0
C630 C 0.75323 0.12352 0.45195 0.0
C631 C 0.72188 0.11 0.44741 0.0
C632 C 0.71304 0.08089 0.46358 0.0
C633 C 0.73541 0.06581 0.48461 0.0
C634 C 0.76611 0.08066 0.48859 0.0
H635 H 0.7597 0.14622 0.43986 0.0
O636 O 0.75895 0.19189 0.52616 0.0
O637 O 0.79445 0.15005 0.5188 0.0
O638 O 0.81314 0.20669 0.4809 0.0
O639 O 0.81791 0.15903 0.45449 0.0
C640 C 0.72787 0.0374 0.5028 0.0
C641 C 0.75087 0.02458 0.52483 0.0
H642 H 0.80053 0.008 0.56596 0.0
H643 H 0.85189 0.03982 0.57222 0.0
H644 H 0.7042 0.12242 0.43215 0.0
H645 H 0.68861 0.07094 0.4604 0.0
H646 H 0.70427 0.02548 0.50035 0.0
H647 H 0.74469 1.00285 0.53884 0.0
Mn648 Mn 0.66462 0.02438 0.29963 0.0
Mn649 Mn 0.73121 0.03583 0.34409 0.0
C650 C 0.68934 0.07383 0.29943 0.0
C651 C 0.64183 0.01709 0.25122 0.0
C652 C 0.66099 0.03256 0.37186 0.0
O653 O 0.67977 0.97799 0.3086 0.0
O654 O 0.72349 0.98842 0.33931 0.0
C655 C 0.784 0.00841 0.29971 0.0
N656 N 0.77048 0.0343 0.31651 0.0
C657 C 0.81366 0.06976 0.29615 0.0
C658 C 0.8282 0.04342 0.27881 0.0
C659 C 0.8133 0.01261 0.28062 0.0
C660 C 0.78483 0.06394 0.31526 0.0
H661 H 0.77248 0.98474 0.30084 0.0
C662 C 0.70356 0.96879 0.32642 0.0
O663 O 0.62392 0.01214 0.27751 0.0
O664 O 0.67375 0.01983 0.25363 0.0
N665 N 0.7406 0.0811 0.34941 0.0
C666 C 0.72241 0.10421 0.3663 0.0
C667 C 0.73314 0.13671 0.36606 0.0
C668 C 0.76211 0.14514 0.34809 0.0
C669 C 0.78053 0.12087 0.33097 0.0
C670 C 0.76892 0.08878 0.33258 0.0
H671 H 0.69954 0.09794 0.37925 0.0
O672 O 0.65807 0.07223 0.29301 0.0
O673 O 0.70471 0.04658 0.30721 0.0
O674 O 0.64719 0.02756 0.3455 0.0
O675 O 0.69212 0.03781 0.37417 0.0
C676 C 0.80927 0.12736 0.31155 0.0
C677 C 0.82601 0.10178 0.29442 0.0
H678 H 0.85051 0.0467 0.26367 0.0
H679 H 0.82423 0.99222 0.26712 0.0
H680 H 0.71876 0.15535 0.37919 0.0
H681 H 0.76948 0.17045 0.34716 0.0
H682 H 0.81846 0.15198 0.30905 0.0
H683 H 0.84795 0.10716 0.27944 0.0
Mn684 Mn 0.80902 0.91383 0.04668 0.0
Mn685 Mn 0.81005 0.97734 0.99217 0.0
C686 C 0.86075 0.94368 0.03584 0.0
C687 C 0.80205 0.89073 0.10227 0.0
C688 C 0.80514 0.90547 0.97027 0.0
O689 O 0.75811 0.92962 0.04491 0.0
O690 O 0.76364 0.97278 1.01086 0.0
C691 C 0.79596 0.03077 0.03858 0.0
N692 N 0.81575 0.01725 0.01463 0.0
C693 C 0.85476 0.06095 0.01694 0.0
C694 C 0.83465 0.0755 0.04141 0.0
C695 C 0.80516 0.06029 0.05232 0.0
C696 C 0.84434 0.03149 1.0042 0.0
H697 H 0.77344 0.01901 0.04726 0.0
C698 C 0.74573 0.95482 0.02977 0.0
O699 O 0.79815 0.87398 0.07655 0.0
O700 O 0.80893 0.92116 0.09598 0.0
N701 N 0.85253 0.9859 0.97149 0.0
C702 C 0.86862 0.9692 0.94703 0.0
C703 C 0.8983 0.98152 0.93296 0.0
C704 C 0.91056 0.01133 0.94346 0.0
C705 C 0.89287 0.02871 0.96778 0.0
C706 C 0.86333 0.01535 0.98075 0.0
H707 H 0.85923 0.94641 0.93863 0.0
O708 O 0.86073 0.9138 0.04709 0.0
O709 O 0.83059 0.95436 0.02944 0.0
O710 O 0.80795 0.89301 0.99897 0.0
O711 O 0.80475 0.93674 0.96595 0.0
C712 C 0.90396 0.05818 0.98044 0.0
C713 C 0.88495 0.07429 1.005 0.0
H714 H 0.84171 0.09823 0.05212 0.0
H715 H 0.78961 0.07125 0.07134 0.0
H716 H 0.91204 0.96777 0.91451 0.0
H717 H 0.9338 0.02038 0.93303 0.0
H718 H 0.92742 0.06831 0.97199 0.0
H719 H 0.89387 0.09684 0.01463 0.0
Mn720 Mn 0.30252 0.69704 0.03126 0.0
Mn721 Mn 0.29823 0.62467 0.99385 0.0
C722 C 0.25294 0.67121 0.02924 0.0
C723 C 0.3062 0.72444 0.07925 0.0
C724 C 0.30758 0.68916 0.95891 0.0
O725 O 0.35067 0.68106 0.02937 0.0
O726 O 0.34469 0.63158 1.00609 0.0
C727 C 0.3135 0.57911 0.04748 0.0
N728 N 0.29203 0.59038 0.02502 0.0
C729 C 0.2507 0.55154 0.04242 0.0
C730 C 0.27236 0.53952 0.06574 0.0
C731 C 0.30391 0.55336 0.06825 0.0
C732 C 0.26178 0.577 0.02214 0.0
H733 H 0.33772 0.58972 0.04954 0.0
C734 C 0.36215 0.65378 0.01832 0.0
O735 O 0.31205 0.73977 0.05209 0.0
O736 O 0.30085 0.69342 0.07814 0.0
N737 N 0.25363 0.61618 0.98188 0.0
C738 C 0.23486 0.63216 0.9597 0.0
C739 C 0.20206 0.62226 0.95516 0.0
C740 C 0.18891 0.59609 0.97343 0.0
C741 C 0.20879 0.58001 0.99607 0.0
C742 C 0.24136 0.59077 0.9994 0.0
H743 H 0.24474 0.65251 0.94583 0.0
O744 O 0.25297 0.70277 0.03253 0.0
O745 O 0.28184 0.65653 0.02513 0.0
O746 O 0.30584 0.70771 0.98339 0.0
O747 O 0.30434 0.65815 0.96018 0.0
C748 C 0.19726 0.55429 0.01607 0.0
C749 C 0.21819 0.53994 0.03912 0.0
H750 H 0.26489 0.5199 0.08204 0.0
H751 H 0.32075 0.5443 0.08625 0.0
H752 H 0.18691 0.63493 0.93775 0.0
H753 H 0.16346 0.58878 0.97013 0.0
H754 H 0.17211 0.54574 0.01433 0.0
H755 H 0.20878 0.52045 0.0546 0.0
Mn756 Mn 0.1697 0.52439 0.81215 0.0
Mn757 Mn 0.23918 0.54687 0.84812 0.0
C758 C 0.18963 0.57554 0.80324 0.0
C759 C 0.14298 0.50339 0.76966 0.0
C760 C 0.17197 0.54008 0.88226 0.0
O761 O 0.19056 0.48134 0.82636 0.0
O762 O 0.239 0.49852 0.84551 0.0
C763 C 0.29119 0.5254 0.79994 0.0
N764 N 0.2755 0.54986 0.81721 0.0
C765 C 0.31263 0.59002 0.79429 0.0
C766 C 0.32934 0.56525 0.77639 0.0
C767 C 0.31851 0.5328 0.7792 0.0
C768 C 0.28573 0.58114 0.81474 0.0
H769 H 0.28294 0.50042 0.80202 0.0
C770 C 0.21913 0.47589 0.8383 0.0
O771 O 0.12872 0.50372 0.79818 0.0
O772 O 0.17395 0.51207 0.76681 0.0
N773 N 0.24195 0.59349 0.85138 0.0
C774 C 0.22309 0.61447 0.87023 0.0
C775 C 0.23069 0.64792 0.87028 0.0
C776 C 0.25754 0.65939 0.85093 0.0
C777 C 0.27648 0.6373 0.83161 0.0
C778 C 0.26803 0.60421 0.83291 0.0
H779 H 0.2024 0.60572 0.88505 0.0
O780 O 0.15839 0.57009 0.79872 0.0
O781 O 0.20795 0.55098 0.81327 0.0
O782 O 0.15572 0.53434 0.8576 0.0
O783 O 0.2034 0.54456 0.88199 0.0
C784 C 0.30323 0.6468 0.81091 0.0
C785 C 0.32136 0.62323 0.79233 0.0
H786 H 0.35029 0.57091 0.76022 0.0
H787 H 0.33115 0.51357 0.76535 0.0
H788 H 0.21587 0.66483 0.88516 0.0
H789 H 0.2633 0.68521 0.85102 0.0
H790 H 0.31005 0.67223 0.80896 0.0
H791 H 0.34186 0.63095 0.77652 0.0
Mn792 Mn 0.3143 0.41316 0.54482 0.0
Mn793 Mn 0.31785 0.4772 0.49136 0.0
C794 C 0.36665 0.4414 0.53376 0.0
C795 C 0.30735 0.38949 0.60014 0.0
C796 C 0.30934 0.40629 0.46851 0.0
O797 O 0.26411 0.43102 0.54384 0.0
O798 O 0.27085 0.47439 0.50994 0.0
C799 C 0.30509 0.53272 0.53565 0.0
N800 N 0.32518 0.51717 0.51318 0.0
C801 C 0.36614 0.55923 0.51492 0.0
C802 C 0.34578 0.57579 0.53793 0.0
C803 C 0.31516 0.56244 0.54837 0.0
C804 C 0.3547 0.52981 0.50294 0.0
H805 H 0.28161 0.52248 0.54383 0.0
C806 C 0.25242 0.4567 0.5289 0.0
O807 O 0.30234 0.37328 0.57431 0.0
O808 O 0.31539 0.41965 0.59413 0.0
N809 N 0.36169 0.48274 0.47218 0.0
C810 C 0.37924 0.46283 0.45117 0.0
C811 C 0.41102 0.47203 0.43932 0.0
C812 C 0.42441 0.50155 0.44921 0.0
C813 C 0.40568 0.5219 0.47042 0.0
C814 C 0.37402 0.5116 0.4812 0.0
H815 H 0.36922 0.43998 0.44366 0.0
O816 O 0.3661 0.4111 0.54386 0.0
O817 O 0.33676 0.45335 0.52856 0.0
O818 O 0.3116 0.39315 0.49695 0.0
O819 O 0.31069 0.43746 0.46476 0.0
C820 C 0.4175 0.55164 0.48183 0.0
C821 C 0.39771 0.57034 0.50401 0.0
H822 H 0.35356 0.59859 0.548 0.0
H823 H 0.29939 0.57499 0.56625 0.0
H824 H 0.42531 0.45625 0.42289 0.0
H825 H 0.44926 0.50812 0.44073 0.0
H826 H 0.44197 0.56011 0.47411 0.0
H827 H 0.40727 0.59294 0.51293 0.0
Mn828 Mn 0.41197 0.57331 0.27813 0.0
Mn829 Mn 0.34598 0.54695 0.32257 0.0
C830 C 0.3985 0.52011 0.27656 0.0
C831 C 0.43493 0.59203 0.23108 0.0
C832 C 0.41228 0.56293 0.34933 0.0
O833 O 0.38715 0.61466 0.28985 0.0
O834 O 0.34058 0.59495 0.31517 0.0
C835 C 0.29186 0.55845 0.27695 0.0
N836 N 0.31031 0.53742 0.29526 0.0
C837 C 0.27917 0.49132 0.27872 0.0
C838 C 0.25949 0.51258 0.26008 0.0
C839 C 0.26596 0.54629 0.25911 0.0
C840 C 0.30436 0.50491 0.29628 0.0
H841 H 0.29696 0.58431 0.27589 0.0
C842 C 0.35859 0.61833 0.30399 0.0
O843 O 0.44979 0.5966 0.25779 0.0
O844 O 0.40486 0.58085 0.23276 0.0
N845 N 0.34888 0.50065 0.33049 0.0
C846 C 0.37001 0.48353 0.34982 0.0
C847 C 0.36754 0.44934 0.35262 0.0
C848 C 0.34367 0.43313 0.33538 0.0
C849 C 0.32148 0.45137 0.31643 0.0
C850 C 0.3249 0.48546 0.31482 0.0
H851 H 0.3886 0.4958 0.36296 0.0
O852 O 0.42871 0.5285 0.26855 0.0
O853 O 0.37729 0.5432 0.28561 0.0
O854 O 0.4274 0.56875 0.32276 0.0
O855 O 0.38157 0.55551 0.35277 0.0
C856 C 0.29629 0.43716 0.29894 0.0
C857 C 0.27511 0.45709 0.28015 0.0
H858 H 0.2397 0.50324 0.24606 0.0
H859 H 0.25115 0.56282 0.24449 0.0
H860 H 0.38396 0.43554 0.36804 0.0
H861 H 0.34263 0.40664 0.33694 0.0
H862 H 0.29295 0.4109 0.2997 0.0
H863 H 0.25598 0.44583 0.26669 0.0
Co864 Co 0.04407 0.0544 0.02028 0.0
C865 C 0.04011 0.09695 0.07567 0.0
Co866 Co 0.05491 0.02822 0.06403 0.0
C867 C 0.01513 0.06507 0.96065 0.0
C868 C 0.03646 0.10924 0.97669 0.0
N869 N 0.03343 0.077 0.98385 0.0
N870 N 1.00618 0.0885 0.9396 0.0
C871 C 0.0191 0.11653 0.94949 0.0
H872 H 1.00624 0.04021 0.96051 0.0
H873 H 0.04871 0.12665 0.99129 0.0
C874 C 0.05945 0.98498 1.00862 0.0
N875 N 0.0647 0.00546 0.10048 0.0
C876 C 0.08085 0.01673 0.12548 0.0
C877 C 0.05494 0.97513 0.10938 0.0
N878 N 0.08111 0.99493 0.1499 0.0
C879 C 0.06499 0.96858 0.14003 0.0
C880 C 0.9863 0.02148 0.04803 0.0
O881 O 0.05285 0.01259 0.99469 0.0
O882 O 0.06423 0.98656 0.03874 0.0
O883 O 1.00726 0.01413 0.06951 0.0
O884 O 0.99662 0.04052 0.02538 0.0
O885 O 0.04567 0.06936 0.08979 0.0
H886 H 0.04054 0.95929 0.09493 0.0
H887 H 0.09086 0.0411 0.12638 0.0
O888 O 0.03579 0.09574 0.04549 0.0
O889 O 0.09051 0.06888 0.01477 0.0
O890 O 0.10285 0.04328 0.05905 0.0
C891 C 0.11158 0.06356 0.0366 0.0
H892 H 0.0151 0.14053 0.93863 0.0
H893 H 0.0603 0.94657 0.15413 0.0
Co894 Co 0.29775 0.81156 0.32594 0.0
C895 C 0.30829 0.75056 0.30654 0.0
Co896 Co 0.26509 0.8011 0.28608 0.0
C897 C 0.30571 0.83123 0.38972 0.0
C898 C 0.35339 0.82866 0.36513 0.0
N899 N 0.32069 0.82252 0.36171 0.0
N900 N 0.32698 0.84329 0.41023 0.0
C901 C 0.35721 0.84214 0.39492 0.0
H902 H 0.27918 0.83198 0.39402 0.0
H903 H 0.37279 0.82567 0.34654 0.0
C904 C 0.25285 0.86134 0.30845 0.0
N905 N 0.24531 0.7902 0.24842 0.0
C906 C 0.26371 0.77419 0.22553 0.0
C907 C 0.21755 0.80089 0.23368 0.0
N908 N 0.2492 0.7744 0.19712 0.0
C909 C 0.21997 0.79127 0.20187 0.0
C910 C 0.23363 0.78658 0.34203 0.0
O911 O 0.27697 0.85269 0.32578 0.0
O912 O 0.2439 0.84263 0.28646 0.0
O913 O 0.22952 0.78525 0.31201 0.0
O914 O 0.26132 0.79589 0.35229 0.0
O915 O 0.2859 0.75904 0.28722 0.0
H916 H 0.19817 0.81665 0.24452 0.0
H917 H 0.28917 0.76548 0.22878 0.0
O918 O 0.31811 0.77072 0.32658 0.0
O919 O 0.3329 0.82712 0.29941 0.0
O920 O 0.30051 0.81752 0.26009 0.0
C921 C 0.32799 0.82737 0.26967 0.0
H922 H 0.37981 0.85216 0.40379 0.0
H923 H 0.20243 0.79742 0.18347 0.0
Co924 Co 0.52786 0.02961 0.52551 0.0
C925 C 0.54798 0.09469 0.50913 0.0
Co926 Co 0.57278 0.0413 0.54999 0.0
C927 C 0.46314 0.00645 0.52471 0.0
C928 C 0.47693 0.02598 0.47834 0.0
N929 N 0.48871 0.0195 0.50774 0.0
N930 N 0.43574 1.00505 0.50751 0.0
C931 C 0.44397 0.01684 0.4781 0.0
H932 H 0.46412 0.99924 0.54975 0.0
H933 H 0.49082 0.0379 0.45895 0.0
C934 C 0.55283 0.97612 0.56617 0.0
N935 N 0.61177 0.05209 0.56766 0.0
C936 C 0.63625 0.06695 0.55071 0.0
C937 C 0.62083 0.05273 0.59844 0.0
N938 N 0.65992 0.0778 0.56943 0.0
C939 C 0.65065 0.06881 0.59963 0.0
C940 C 0.51732 0.05771 0.58548 0.0
O941 O 0.52995 0.98518 0.54699 0.0
O942 O 0.57534 0.99701 0.57098 0.0
O943 O 0.54889 0.05758 0.58586 0.0
O944 O 0.50341 0.0467 0.5613 0.0
O945 O 0.57028 0.08624 0.52906 0.0
H946 H 0.60575 0.04405 0.61875 0.0
H947 H 0.63578 0.07138 0.52508 0.0
O948 O 0.526 0.07343 0.50396 0.0
O949 O 0.55141 0.01323 0.48986 0.0
O950 O 0.5971 0.02526 0.5136 0.0
C951 C 0.58287 0.01537 0.48908 0.0
H952 H 0.42703 0.01998 0.45861 0.0
H953 H 0.66311 0.07532 0.62111 0.0
Co954 Co 0.31991 0.30381 0.79473 0.0
C955 C 0.29947 0.32596 0.7328 0.0
Co956 Co 0.27035 0.28663 0.78583 0.0
C957 C 0.37467 0.31927 0.831 0.0
C958 C 0.38965 0.31319 0.78153 0.0
N959 N 0.3627 0.31419 0.80196 0.0
N960 N 0.40812 0.32039 0.82986 0.0
C961 C 0.41787 0.31687 0.79879 0.0
H962 H 0.35937 0.31998 0.85297 0.0
H963 H 0.38901 0.30765 0.75627 0.0
C964 C 0.2913 0.2639 0.84776 0.0
N965 N 0.22679 0.27803 0.77827 0.0
C966 C 0.20687 0.30048 0.76404 0.0
C967 C 0.20658 0.25328 0.78714 0.0
N968 N 0.17514 0.29115 0.76364 0.0
C969 C 0.17445 0.26138 0.77806 0.0
C970 C 0.31672 0.24332 0.76472 0.0
O971 O 0.31683 0.27991 0.83771 0.0
O972 O 0.26692 0.26336 0.82872 0.0
O973 O 0.28522 0.24771 0.76697 0.0
O974 O 0.33555 0.26494 0.7751 0.0
O975 O 0.27432 0.3092 0.74231 0.0
H976 H 0.21448 0.23131 0.79993 0.0
H977 H 0.21513 0.32412 0.75519 0.0
O978 O 0.32306 0.32761 0.75246 0.0
O979 O 0.3049 0.34239 0.81445 0.0
O980 O 0.25491 0.32584 0.80525 0.0
C981 C 0.27355 0.34691 0.81671 0.0
H982 H 0.44352 0.31429 0.78971 0.0
H983 H 0.15247 0.24665 0.78163 0.0
Co984 Co 0.02147 0.03792 0.5584 0.0
C985 C 1.00498 0.05945 0.61772 0.0
Co986 Co 0.05466 0.07688 0.57252 0.0
C987 C 0.0135 0.97774 0.53051 0.0
C988 C 0.96475 0.99925 0.53927 0.0
N989 N 0.99753 1.00386 0.54379 0.0
N990 N 0.99263 0.95699 0.51779 0.0
C991 C 0.96164 0.97009 0.52306 0.0
H992 H 0.04044 0.97455 0.52882 0.0
H993 H 0.94469 0.01629 0.54639 0.0
C994 C 0.06946 0.05662 0.51265 0.0
N995 N 0.08011 0.11077 0.58569 0.0
C996 C 0.06769 0.13569 0.60348 0.0
C997 C 0.11214 0.11861 0.57834 0.0
N998 N 0.09017 0.15894 0.60755 0.0
C999 C 0.11837 0.14863 0.59166 0.0
C1000 C 0.07952 0.01594 0.58679 0.0
O1001 O 0.04622 0.03718 0.51962 0.0
O1002 O 0.07767 0.07756 0.53275 0.0
O1003 O 0.08624 0.04612 0.58794 0.0
O1004 O 0.05201 0.00751 0.57601 0.0
O1005 O 0.03081 0.07635 0.61231 0.0
H1006 H 0.12946 0.10401 0.56351 0.0
H1007 H 0.04191 0.13761 0.61206 0.0
O1008 O 0.99643 0.03913 0.59695 0.0
O1009 O 0.99136 0.06801 0.54098 0.0
O1010 O 0.02275 0.10749 0.55698 0.0
C1011 C 0.9968 0.09826 0.54358 0.0
H1012 H 0.93866 0.95946 0.51581 0.0
H1013 H 0.14145 0.16187 0.58957 0.0
Co1014 Co 0.31687 0.80765 0.80329 0.0
C1015 C 0.2515 0.79121 0.82267 0.0
Co1016 Co 0.30149 0.76527 0.77732 0.0
C1017 C 0.34832 0.86666 0.80554 0.0
C1018 C 0.33696 0.8509 0.8537 0.0
N1019 N 0.33304 0.84314 0.82273 0.0
N1020 N 0.36153 0.889 0.82404 0.0
C1021 C 0.35468 0.87949 0.85457 0.0
H1022 H 0.35019 0.86728 0.77957 0.0
H1023 H 0.32802 0.83653 0.87411 0.0
C1024 C 0.36653 0.78132 0.75766 0.0
N1025 N 0.286 0.72998 0.75678 0.0
C1026 C 0.26528 0.70825 0.77053 0.0
C1027 C 0.28989 0.72088 0.72585 0.0
N1028 N 0.25596 0.68577 0.74974 0.0
C1029 C 0.27141 0.69334 0.72145 0.0
C1030 C 0.28671 0.82308 0.74644 0.0
O1031 O 0.35978 0.80372 0.77811 0.0
O1032 O 0.34429 0.76017 0.75378 0.0
O1033 O 0.28586 0.7922 0.74416 0.0
O1034 O 0.2988 0.8352 0.77106 0.0
O1035 O 0.25822 0.77045 0.80061 0.0
H1036 H 0.30472 0.73369 0.70769 0.0
H1037 H 0.25752 0.70863 0.79565 0.0
O1038 O 0.27424 0.81138 0.82874 0.0
O1039 O 0.33407 0.78131 0.83512 0.0
O1040 O 0.31675 0.73769 0.81148 0.0
C1041 C 0.32951 0.75081 0.83543 0.0
H1042 H 0.3613 0.89254 0.87573 0.0
H1043 H 0.26916 0.68034 0.69923 0.0
Co1044 Co 0.54449 0.03349 0.01439 0.0
C1045 C 0.60886 0.01688 0.0344 0.0
Co1046 Co 0.55416 0.06014 0.05762 0.0
C1047 C 0.51641 0.033 0.95514 0.0
C1048 C 0.53834 0.98537 0.9636 0.0
N1049 N 0.53375 0.0154 0.97655 0.0
N1050 N 0.5095 0.01553 0.92954 0.0
C1051 C 0.52331 0.98541 0.93425 0.0
H1052 H 0.50864 0.05844 0.95826 0.0
H1053 H 0.55115 0.96484 0.97493 0.0
C1054 C 0.48919 0.0757 0.03763 0.0
N1055 N 0.56357 0.07892 0.09536 0.0
C1056 C 0.5762 0.06145 0.11966 0.0
C1057 C 0.55819 0.10956 0.10678 0.0
N1058 N 0.57826 0.07935 0.14597 0.0
C1059 C 0.5677 0.10996 0.13828 0.0
C1060 C 0.5715 0.09508 1.00448 0.0
O1061 O 0.49946 0.05426 0.01733 0.0
O1062 O 0.50969 0.08336 0.05877 0.0
O1063 O 0.57247 0.0957 0.03478 0.0
O1064 O 0.56049 0.07012 0.99118 0.0
O1065 O 0.59886 0.03671 0.05655 0.0
H1066 H 0.54777 0.12998 0.09326 0.0
H1067 H 0.58419 0.03595 0.11808 0.0
O1068 O 0.58901 0.01247 1.01173 0.0
O1069 O 0.52835 0.99711 0.03703 0.0
O1070 O 0.53563 0.02445 0.08085 0.0
C1071 C 0.52661 0.99875 0.06734 0.0
H1072 H 0.52183 0.9649 0.9182 0.0
H1073 H 0.56686 0.13075 0.1542 0.0
Co1074 Co 0.30128 0.27419 0.30241 0.0
C1075 C 0.36938 0.28977 0.31035 0.0
Co1076 Co 0.31354 0.31749 0.27585 0.0
C1077 C 0.27003 0.21527 0.31594 0.0
C1078 C 0.29544 0.23167 0.35678 0.0
N1079 N 0.29 0.23858 0.32565 0.0
N1080 N 0.26232 0.1944 0.33983 0.0
C1081 C 0.27779 0.20445 0.36578 0.0
H1082 H 0.26002 0.21441 0.29222 0.0
H1083 H 0.31027 0.24607 0.37213 0.0
C1084 C 0.24534 0.30126 0.26823 0.0
N1085 N 0.32493 0.35301 0.25188 0.0
C1086 C 0.3444 0.37703 0.26089 0.0
C1087 C 0.31759 0.36022 0.22124 0.0
N1088 N 0.34945 0.39929 0.23731 0.0
C1089 C 0.3327 0.38893 0.21215 0.0
C1090 C 0.31635 0.26006 0.23541 0.0
O1091 O 0.25362 0.28006 0.28956 0.0
O1092 O 0.26735 0.32217 0.26014 0.0
O1093 O 0.32373 0.2903 0.23665 0.0
O1094 O 0.30836 0.24656 0.26245 0.0
O1095 O 0.36048 0.31321 0.29153 0.0
H1096 H 0.3024 0.34547 0.20646 0.0
H1097 H 0.354 0.37856 0.28471 0.0
O1098 O 0.34812 0.26744 0.31582 0.0
O1099 O 0.29381 0.3009 0.34212 0.0
O1100 O 0.30318 0.34585 0.31546 0.0
C1101 C 0.29763 0.33185 0.34289 0.0
H1102 H 0.27603 0.19339 0.38939 0.0
H1103 H 0.33148 0.40104 0.18897 0.0
Co1104 Co 0.5179 0.53275 0.0574 0.0
C1105 C 0.51146 0.55971 0.11674 0.0
Co1106 Co 0.54951 0.5755 0.06298 0.0
C1107 C 0.50812 0.46953 0.03631 0.0
C1108 C 0.4675 0.48308 0.06872 0.0
N1109 N 0.49517 0.4948 0.05338 0.0
N1110 N 0.4902 0.44262 0.04043 0.0
C1111 C 0.46451 0.45044 0.06086 0.0
H1112 H 0.53155 0.47006 0.02247 0.0
H1113 H 0.45165 0.49676 0.0857 0.0
C1114 C 0.55657 0.54811 1.004 0.0
N1115 N 0.57253 0.61422 0.06572 0.0
C1116 C 0.57234 0.6328 0.09214 0.0
C1117 C 0.57657 0.63577 0.04103 0.0
N1118 N 0.57207 0.66503 0.08492 0.0
C1119 C 0.57619 0.66704 0.05282 0.0
C1120 C 0.58254 0.51954 0.07767 0.0
O1121 O 0.5333 0.52983 0.01403 0.0
O1122 O 0.56702 0.57 0.0219 0.0
O1123 O 0.58573 0.55045 0.07814 0.0
O1124 O 0.55527 0.50759 0.06969 0.0
O1125 O 0.53172 0.58011 0.10474 0.0
H1126 H 0.57408 0.63 0.01604 0.0
H1127 H 0.56771 0.62336 0.11616 0.0
O1128 O 0.5026 0.53587 0.10018 0.0
O1129 O 0.48104 0.55762 0.04516 0.0
O1130 O 0.51282 0.6006 0.04758 0.0
C1131 C 0.48505 0.58819 0.04184 0.0
H1132 H 0.44589 0.43367 0.07014 0.0
H1133 H 0.5738 0.68941 0.03869 0.0
Co1134 Co 0.80809 0.31383 0.29906 0.0
C1135 C 0.74297 0.29305 0.31817 0.0
Co1136 Co 0.79575 0.26891 0.27568 0.0
C1137 C 0.83253 0.37714 0.30423 0.0
C1138 C 0.81531 0.35906 0.35021 0.0
N1139 N 0.81861 0.3512 0.31886 0.0
N1140 N 0.83831 0.40072 0.3251 0.0
C1141 C 0.82783 0.3898 0.35419 0.0
H1142 H 0.83874 0.37862 0.27875 0.0
H1143 H 0.80456 0.34347 0.36886 0.0
C1144 C 0.86073 0.28949 0.2564 0.0
N1145 N 0.78499 0.2313 0.25618 0.0
C1146 C 0.76885 0.20687 0.27121 0.0
C1147 C 0.78786 0.22259 0.22506 0.0
N1148 N 0.76083 0.18345 0.25089 0.0
C1149 C 0.77285 0.19284 0.22171 0.0
C1150 C 0.77863 0.32423 0.24126 0.0
O1151 O 0.85307 0.31193 0.27675 0.0
O1152 O 0.83901 0.26782 0.25223 0.0
O1153 O 0.77736 0.29323 0.24172 0.0
O1154 O 0.79117 0.33845 0.26457 0.0
O1155 O 0.75173 0.26979 0.29921 0.0
H1156 H 0.79896 0.23745 0.20601 0.0
H1157 H 0.76229 0.20665 0.29664 0.0
O1158 O 0.76369 0.31592 0.32113 0.0
O1159 O 0.82478 0.28998 0.33342 0.0
O1160 O 0.81416 0.24419 0.30998 0.0
C1161 C 0.82478 0.25904 0.33395 0.0
H1162 H 0.82889 0.40315 0.37636 0.0
H1163 H 0.76971 0.17995 0.19956 0.0
Co1164 Co 0.05029 0.53648 0.51984 0.0
C1165 C 0.1135 0.51483 0.54053 0.0
Co1166 Co 0.05724 0.55264 0.56828 0.0
C1167 C 0.02856 0.54733 0.4578 0.0
C1168 C 0.05171 0.49947 0.46149 0.0
N1169 N 0.04437 0.52705 0.47814 0.0
N1170 N 0.02513 0.53353 0.42927 0.0
C1171 C 0.03969 0.5034 0.43113 0.0
H1172 H 0.01864 0.5715 0.4641 0.0
H1173 H 0.06373 0.47761 0.4712 0.0
C1174 C 0.99416 0.57456 0.54569 0.0
N1175 N 0.06262 0.5608 0.61067 0.0
C1176 C 0.07631 0.53831 0.6304 0.0
C1177 C 0.05279 0.58609 0.62964 0.0
N1178 N 0.07607 0.54847 0.66077 0.0
C1179 C 0.06114 0.57851 0.66074 0.0
C1180 C 0.07694 0.59866 0.52686 0.0
O1181 O 1.00563 0.55728 0.52235 0.0
O1182 O 0.01271 0.57654 0.56986 0.0
O1183 O 0.07735 0.59117 0.55636 0.0
O1184 O 0.06812 0.57755 0.50697 0.0
O1185 O 0.10212 0.5289 0.56607 0.0
H1186 H 0.03995 0.6082 0.6216 0.0
H1187 H 0.08542 0.51428 0.62279 0.0
O1188 O 0.09464 0.51572 0.51666 0.0
O1189 O 0.03132 0.49598 0.53278 0.0
O1190 O 0.03637 0.51473 0.5809 0.0
C1191 C 0.0261 0.49302 0.56283 0.0
H1192 H 0.03992 0.48506 0.41258 0.0
H1193 H 0.05698 0.59389 0.68154 0.0
Co1194 Co 0.81421 0.80963 0.29924 0.0
C1195 C 0.79536 0.82739 0.23518 0.0
Co1196 Co 0.77169 0.78174 0.28541 0.0
C1197 C 0.8637 0.83209 0.3392 0.0
C1198 C 0.87948 0.83269 0.28957 0.0
N1199 N 0.85247 0.82944 0.30948 0.0
N1200 N 0.89721 0.83416 0.33895 0.0
C1201 C 0.9071 0.83519 0.30762 0.0
H1202 H 0.8481 0.8286 0.36066 0.0
H1203 H 0.87986 0.82854 0.26401 0.0
C1204 C 0.79137 0.76322 0.34939 0.0
N1205 N 0.7328 0.76319 0.27387 0.0
C1206 C 0.71066 0.78039 0.2565 0.0
C1207 C 0.7172 0.73532 0.2826 0.0
N1208 N 0.68207 0.76472 0.25365 0.0
C1209 C 0.68549 0.73637 0.2703 0.0
C1210 C 0.82869 0.75038 0.26871 0.0
O1211 O 0.81325 0.78462 0.34178 0.0
O1212 O 0.76975 0.75797 0.32822 0.0
O1213 O 0.79729 0.74715 0.26816 0.0
O1214 O 0.84027 0.77583 0.28059 0.0
O1215 O 0.77467 0.80482 0.24218 0.0
H1216 H 0.72748 0.71635 0.29803 0.0
H1217 H 0.71433 0.80525 0.24788 0.0
O1218 O 0.81508 0.83451 0.25727 0.0
O1219 O 0.78905 0.84296 0.31808 0.0
O1220 O 0.7454 0.81684 0.303 0.0
C1221 C 0.75769 0.84083 0.31692 0.0
H1222 H 0.93261 0.83294 0.29817 0.0
H1223 H 0.66631 0.71833 0.27392 0.0
Co1224 Co 0.79937 0.30495 0.81991 0.0
C1225 C 0.8088 0.24339 0.80281 0.0
Co1226 Co 0.76628 0.29353 0.78082 0.0
C1227 C 0.80617 0.32984 0.88134 0.0
C1228 C 0.85456 0.32638 0.85806 0.0
N1229 N 0.82227 0.31868 0.85465 0.0
N1230 N 0.8264 0.34448 0.90114 0.0
C1231 C 0.85708 0.3428 0.88665 0.0
H1232 H 0.77939 0.33036 0.88489 0.0
H1233 H 0.87439 0.32258 0.84001 0.0
C1234 C 0.75361 0.35391 0.80053 0.0
N1235 N 0.7439 0.28074 0.74555 0.0
C1236 C 0.75983 0.2638 0.72185 0.0
C1237 C 0.71515 0.29203 0.73292 0.0
N1238 N 0.74316 0.26491 0.6946 0.0
C1239 C 0.71472 0.2824 0.70128 0.0
C1240 C 0.73734 0.27956 0.83905 0.0
O1241 O 0.77707 0.34604 0.81895 0.0
O1242 O 0.7457 0.33468 0.7788 0.0
O1243 O 0.73144 0.27951 0.8093 0.0
O1244 O 0.76529 0.28913 0.84791 0.0
O1245 O 0.7863 0.25206 0.7837 0.0
H1246 H 0.69717 0.30847 0.74492 0.0
H1247 H 0.78512 0.25386 0.72339 0.0
O1248 O 0.82048 0.26398 0.82157 0.0
O1249 O 0.83345 0.31998 0.79145 0.0
O1250 O 0.80147 0.30739 0.75251 0.0
C1251 C 0.82915 0.31744 0.76163 0.0
H1252 H 0.87912 0.35421 0.89517 0.0
H1253 H 0.69595 0.28914 0.68421 0.0
Co1254 Co 0.79984 0.76867 0.8069 0.0
C1255 C 0.86861 0.78303 0.81608 0.0
Co1256 Co 0.81497 0.81081 0.77975 0.0
C1257 C 0.76787 0.70953 0.82058 0.0
C1258 C 0.79291 0.72628 0.86151 0.0
N1259 N 0.7874 0.73323 0.83038 0.0
N1260 N 0.76065 0.6883 0.8444 0.0
C1261 C 0.77598 0.69851 0.87038 0.0
H1262 H 0.75819 0.70838 0.79675 0.0
H1263 H 0.80764 0.7408 0.87688 0.0
C1264 C 0.74631 0.79644 0.77076 0.0
N1265 N 0.82798 0.84541 0.75552 0.0
C1266 C 0.84857 0.86853 0.76439 0.0
C1267 C 0.82182 0.85212 0.7245 0.0
N1268 N 0.85527 0.88989 0.74044 0.0
C1269 C 0.83863 0.87974 0.71511 0.0
C1270 C 0.81678 0.75358 0.73991 0.0
O1271 O 0.75285 0.77514 0.79257 0.0
O1272 O 0.76933 0.81652 0.76331 0.0
O1273 O 0.82507 0.78345 0.74131 0.0
O1274 O 0.80767 0.74034 0.76686 0.0
O1275 O 0.86132 0.8055 0.79569 0.0
H1276 H 0.8062 0.83785 0.70972 0.0
H1277 H 0.85751 0.87034 0.78841 0.0
O1278 O 0.84623 0.76177 0.82194 0.0
O1279 O 0.79157 0.79614 0.84619 0.0
O1280 O 0.80467 0.83983 0.81892 0.0
C1281 C 0.79703 0.82686 0.84643 0.0
H1282 H 0.77487 0.68687 0.89382 0.0
H1283 H 0.8381 0.89174 0.69183 0.0
Co1284 Co 0.54955 0.55451 0.51834 0.0
C1285 C 0.5449 0.59513 0.57403 0.0
Co1286 Co 0.5605 0.52659 0.56086 0.0
C1287 C 0.51973 0.56441 0.46058 0.0
C1288 C 0.54161 0.6092 0.47411 0.0
N1289 N 0.53868 0.5773 0.48258 0.0
N1290 N 0.51021 0.5867 0.43878 0.0
C1291 C 0.52349 0.61522 0.44706 0.0
H1292 H 0.51066 0.53963 0.46201 0.0
H1293 H 0.55431 0.62716 0.48771 0.0
C1294 C 0.56541 0.48605 0.50479 0.0
N1295 N 0.57088 0.50333 0.59673 0.0
C1296 C 0.58808 0.51466 0.62097 0.0
C1297 C 0.56133 0.47308 0.60612 0.0
N1298 N 0.58952 0.49292 0.64535 0.0
C1299 C 0.57257 0.4667 0.63641 0.0
C1300 C 0.49232 0.51912 0.54472 0.0
O1301 O 0.55902 0.51409 0.4919 0.0
O1302 O 0.57009 0.48614 0.53492 0.0
O1303 O 0.51351 0.51133 0.56582 0.0
O1304 O 0.50193 0.53971 0.52315 0.0
O1305 O 0.55077 0.56725 0.58755 0.0
H1306 H 0.54614 0.4573 0.59238 0.0
H1307 H 0.5977 0.53921 0.6215 0.0
O1308 O 0.54056 0.5947 0.5439 0.0
O1309 O 0.5959 0.5696 0.51307 0.0
O1310 O 0.60808 0.54185 0.55612 0.0
C1311 C 0.61713 0.56268 0.53437 0.0
H1312 H 0.51924 0.63872 0.43528 0.0
H1313 H 0.56781 0.44511 0.6511 0.0
Co1314 Co 0.0293 0.53532 0.02783 0.0
C1315 C 0.04664 0.60056 0.01415 0.0
Co1316 Co 0.07286 0.54573 0.05482 0.0
C1317 C 0.96973 0.50423 0.02302 0.0
C1318 C 0.9808 0.52822 0.97812 0.0
N1319 N 0.99296 0.52194 1.00735 0.0
N1320 N 0.94305 0.49987 1.00553 0.0
C1321 C 0.94964 0.51447 0.97693 0.0
H1322 H 0.97143 0.49618 0.04774 0.0
H1323 H 0.99298 0.54302 0.95963 0.0
C1324 C 0.05478 0.48044 0.0684 0.0
N1325 N 0.10878 0.5591 0.07591 0.0
C1326 C 0.13048 0.57956 0.06179 0.0
C1327 C 0.11636 0.55816 0.10719 0.0
N1328 N 0.15035 0.59277 0.0828 0.0
C1329 C 0.14253 0.57893 0.11148 0.0
C1330 C 0.01415 0.55878 0.08781 0.0
O1331 O 0.03393 0.49011 0.04751 0.0
O1332 O 0.0762 0.50139 0.07604 0.0
O1333 O 0.04556 0.56025 0.08861 0.0
O1334 O 1.00099 0.54856 0.06294 0.0
O1335 O 0.06932 0.59098 0.0333 0.0
H1336 H 0.1025 0.54498 0.12579 0.0
H1337 H 0.13081 0.58578 0.03647 0.0
O1338 O 0.02438 0.57985 1.00842 0.0
O1339 O 0.05708 0.52282 0.99276 0.0
O1340 O 0.10104 0.53114 0.02097 0.0
C1341 C 0.08858 0.52326 0.99489 0.0
H1342 H 0.9325 0.5167 0.95754 0.0
H1343 H 0.15371 0.58464 0.13387 0.0
C1344 C 0.06365 0.18786 0.09343 0.0
C1345 C 0.05079 0.19448 0.12494 0.0
C1346 C 0.05933 0.15718 0.07784 0.0
C1347 C 0.04295 0.13026 0.09299 0.0
H1348 H 0.0772 0.20677 0.08041 0.0
H1349 H 0.06947 0.15444 0.05356 0.0
S1350 S 1.00768 0.13236 0.17681 0.0
N1351 N 0.02256 0.16953 0.17129 0.0
N1352 N 0.01583 0.11249 0.14299 0.0
C1353 C 0.03156 0.13592 0.1251 0.0
C1354 C 0.03533 0.16743 0.14074 0.0
C1355 C 0.15183 0.75711 0.37854 0.0
C1356 C 0.14547 0.77924 0.40383 0.0
C1357 C 0.18121 0.75863 0.35926 0.0
C1358 C 0.205 0.78235 0.36474 0.0
H1359 H 0.13353 0.73913 0.37299 0.0
H1360 H 0.18492 0.74177 0.3395 0.0
S1361 S 0.19858 0.84719 0.42661 0.0
N1362 N 0.16474 0.82559 0.43309 0.0
N1363 N 0.21913 0.82947 0.39617 0.0
C1364 C 0.19896 0.80426 0.39026 0.0
C1365 C 0.16938 0.80239 0.41009 0.0
C1366 C 0.52783 0.88659 0.58921 0.0
C1367 C 0.55104 0.87493 0.61204 0.0
C1368 C 0.52861 0.91863 0.57515 0.0
C1369 C 0.55283 0.94173 0.58252 0.0
H1370 H 0.5085 0.87062 0.58171 0.0
H1371 H 0.5099 0.9252 0.55794 0.0
S1372 S 0.61972 0.92525 0.64093 0.0
N1373 N 0.5992 0.89059 0.64141 0.0
N1374 N 0.60084 0.95007 0.61524 0.0
C1375 C 0.57616 0.93074 0.60553 0.0
C1376 C 0.57523 0.8979 0.6201 0.0
C1377 C 0.44174 0.28881 0.90709 0.0
C1378 C 0.47269 0.30413 0.90743 0.0
C1379 C 0.42015 0.29503 0.88204 0.0
C1380 C 0.42883 0.31688 0.85683 0.0
H1381 H 0.43471 0.27104 0.92551 0.0
H1382 H 0.39717 0.28166 0.88171 0.0
S1383 S 0.50433 0.36688 0.84881 0.0
N1384 N 0.50927 0.3448 0.88182 0.0
N1385 N 0.46813 0.35616 0.83511 0.0
C1386 C 0.45867 0.33358 0.85772 0.0
C1387 C 0.48073 0.32735 0.883 0.0
C1388 C 0.04121 0.87913 0.50188 0.0
C1389 C 0.02796 0.86859 0.47338 0.0
C1390 C 0.02918 0.90797 0.51624 0.0
C1391 C 1.00342 0.92709 0.50261 0.0
H1392 H 0.06041 0.86456 0.51355 0.0
H1393 H 0.03948 0.91498 0.53869 0.0
S1394 S 0.96303 0.91143 0.42621 0.0
N1395 N 0.98993 0.8803 0.43043 0.0
N1396 N 0.96697 0.93491 0.45777 0.0
C1397 C 0.99101 0.91755 0.47332 0.0
C1398 C 1.00363 0.88826 0.45843 0.0
C1399 C 0.42991 0.76634 0.68682 0.0
C1400 C 0.45976 0.7808 0.69613 0.0
C1401 C 0.4006 0.76596 0.707 0.0
C1402 C 0.39893 0.78091 0.73738 0.0
H1403 H 0.42906 0.75489 0.66364 0.0
H1404 H 0.37873 0.75435 0.69831 0.0
S1405 S 0.46915 0.82356 0.7733 0.0
N1406 N 0.48516 0.81083 0.73838 0.0
N1407 N 0.43007 0.81135 0.77542 0.0
C1408 C 0.42833 0.79597 0.74688 0.0
C1409 C 0.45856 0.79559 0.72663 0.0
C1410 C 0.54341 0.16586 0.95386 0.0
C1411 C 0.56275 0.19097 0.96515 0.0
C1412 C 0.54942 0.13343 0.96379 0.0
C1413 C 0.57412 0.12574 0.98611 0.0
H1414 H 0.52216 0.17159 0.93924 0.0
H1415 H 0.53238 0.11497 0.95652 0.0
S1416 S 0.63441 0.18272 0.01848 0.0
N1417 N 0.61044 0.20601 0.99556 0.0
N1418 N 0.62055 0.14507 0.01583 0.0
C1419 C 0.59536 0.15036 0.99527 0.0
C1420 C 0.58988 0.18313 0.9844 0.0
C1421 C 0.18139 0.30461 0.19919 0.0
C1422 C 0.15168 0.29121 0.21282 0.0
C1423 C 0.21063 0.3088 0.21735 0.0
C1424 C 0.21251 0.299 0.25011 0.0
H1425 H 0.18195 0.31251 0.17429 0.0
H1426 H 0.23238 0.31922 0.20524 0.0
S1427 S 0.14256 0.26106 0.29732 0.0
N1428 N 0.1268 0.26793 0.26175 0.0
N1429 N 0.18131 0.27412 0.29467 0.0
C1430 C 0.1832 0.28497 0.26375 0.0
C1431 C 0.15316 0.28161 0.24558 0.0
C1432 C 0.13451 0.02569 0.21361 0.0
C1433 C 0.11481 0.0201 0.24169 0.0
C1434 C 0.12367 0.0165 0.18374 0.0
C1435 C 0.09305 1.00104 0.18102 0.0
H1436 H 0.1583 0.03765 0.21457 0.0
H1437 H 0.13917 0.02171 0.16251 0.0
S1438 S 0.0323 0.98042 0.24699 0.0
N1439 N 0.0633 0.99769 0.26491 0.0
N1440 N 0.04304 0.9805 0.20838 0.0
C1441 C 0.0733 0.99479 0.2088 0.0
C1442 C 0.08414 1.00439 0.23928 0.0
C1443 C 0.30847 0.91669 0.46061 0.0
C1444 C 0.28406 0.90527 0.48298 0.0
C1445 C 0.32434 0.89568 0.43824 0.0
C1446 C 0.31606 0.86257 0.43722 0.0
H1447 H 0.3161 0.94179 0.46066 0.0
H1448 H 0.34223 0.90564 0.42082 0.0
S1449 S 0.25429 0.81996 0.49018 0.0
N1450 N 0.25275 0.85826 0.50273 0.0
N1451 N 0.28242 0.81889 0.46013 0.0
C1452 C 0.29189 0.85066 0.45935 0.0
C1453 C 0.27588 0.87196 0.48231 0.0
C1454 C 0.44816 0.05512 0.64877 0.0
C1455 C 0.46182 0.07181 0.67417 0.0
C1456 C 0.46556 0.05241 0.61929 0.0
C1457 C 0.49708 0.06636 0.61426 0.0
H1458 H 0.42481 0.04245 0.65215 0.0
H1459 H 0.45518 0.0375 0.60107 0.0
S1460 S 0.54094 0.11754 0.67117 0.0
N1461 N 0.50661 0.10625 0.69112 0.0
N1462 N 0.53937 0.10094 0.63541 0.0
C1463 C 0.50985 0.08524 0.63858 0.0
C1464 C 0.49213 0.08807 0.66865 0.0
C1465 C 0.27187 0.19794 0.91495 0.0
C1466 C 0.2885 0.20779 0.94268 0.0
C1467 C 0.27218 0.21631 0.88546 0.0
C1468 C 0.29034 0.24542 0.88069 0.0
H1469 H 0.25826 0.17541 0.91576 0.0
H1470 H 0.25861 0.20691 0.86574 0.0
S1471 S 0.33994 0.28246 0.94414 0.0
N1472 N 0.32415 0.24973 0.9623 0.0
N1473 N 0.32621 0.28285 0.90726 0.0
C1474 C 0.30761 0.25548 0.90795 0.0
C1475 C 0.30635 0.23726 0.93849 0.0
C1476 C 0.11166 0.01851 0.44018 0.0
C1477 C 0.12147 0.04617 0.42243 0.0
C1478 C 0.09419 0.02226 0.46947 0.0
C1479 C 0.08715 0.05371 0.48184 0.0
H1480 H 0.11788 0.99404 0.43157 0.0
H1481 H 0.08688 1.00047 0.48287 0.0
S1482 S 0.1067 0.1335 0.44312 0.0
N1483 N 0.12181 0.10563 0.41763 0.0
N1484 N 0.09013 0.11279 0.47385 0.0
C1485 C 0.09666 0.08151 0.46405 0.0
C1486 C 0.1136 0.07767 0.43387 0.0
C1487 C 0.26708 0.84818 0.66204 0.0
C1488 C 0.26986 0.88247 0.66236 0.0
C1489 C 0.27075 0.82939 0.68986 0.0
C1490 C 0.27738 0.84416 0.7191 0.0
H1491 H 0.26323 0.83545 0.63991 0.0
H1492 H 0.26976 0.80294 0.688 0.0
S1493 S 0.28138 0.93358 0.73363 0.0
N1494 N 0.27561 0.93091 0.69484 0.0
N1495 N 0.2825 0.89547 0.74757 0.0
C1496 C 0.27793 0.87864 0.72026 0.0
C1497 C 0.27419 0.89783 0.69176 0.0
C1498 C 0.44178 0.061 0.88697 0.0
C1499 C 0.45213 0.05752 0.85468 0.0
C1500 C 0.46053 0.04668 0.91122 0.0
C1501 C 0.48977 0.02781 0.90403 0.0
H1502 H 0.41866 0.07417 0.89351 0.0
H1503 H 0.452 0.05006 0.93587 0.0
S1504 S 0.52851 0.0119 0.82376 0.0
N1505 N 0.49462 0.03455 0.81686 0.0
N1506 N 0.52912 0.00729 0.8631 0.0
C1507 C 0.50077 0.02445 0.87211 0.0
C1508 C 0.48222 0.03957 0.84728 0.0
C1509 C 0.31675 0.24411 0.14216 0.0
C1510 C 0.30277 0.21272 0.13857 0.0
C1511 C 0.32183 0.25841 0.17284 0.0
C1512 C 0.31336 0.24252 0.20254 0.0
H1513 H 0.32384 0.25813 0.12085 0.0
H1514 H 0.33222 0.28265 0.17314 0.0
S1515 S 0.2742 0.16065 0.2077 0.0
N1516 N 0.27973 0.16681 0.1687 0.0
N1517 N 0.28881 0.19312 0.22519 0.0
C1518 C 0.29924 0.21115 0.19928 0.0
C1519 C 0.29415 0.19656 0.16799 0.0
C1520 C 0.20115 0.09419 0.056 0.0
C1521 C 0.20321 0.12573 0.04116 0.0
C1522 C 0.17212 0.07438 0.05469 0.0
C1523 C 0.14334 0.08449 0.03789 0.0
H1524 H 0.22241 0.08452 0.06876 0.0
H1525 H 0.17256 0.05059 0.06655 0.0
S1526 S 0.13346 0.16663 0.99827 0.0
N1527 N 0.17157 0.16716 1.01214 0.0
N1528 N 0.11864 0.13035 1.00834 0.0
C1529 C 0.14476 0.11653 0.02398 0.0
C1530 C 0.1739 0.13693 0.02611 0.0
C1531 C 0.66658 0.48466 0.09866 0.0
C1532 C 0.67634 0.46857 0.07008 0.0
C1533 C 0.63504 0.50007 0.10206 0.0
C1534 C 0.61224 0.49818 0.07759 0.0
H1535 H 0.68428 0.48752 0.11737 0.0
H1536 H 0.62896 0.51456 0.12319 0.0
S1537 S 0.62455 0.45442 1.00043 0.0
N1538 N 0.66048 0.44915 0.01831 0.0
N1539 N 0.59999 0.47594 0.02554 0.0
C1540 C 0.62069 0.47939 0.05028 0.0
C1541 C 0.6532 0.46498 0.04631 0.0
C1542 C 0.8525 0.47982 0.2825 0.0
C1543 C 0.88317 0.48872 0.29437 0.0
C1544 C 0.83739 0.45121 0.2935 0.0
C1545 C 0.85254 0.43124 0.31673 0.0
H1546 H 0.84033 0.49491 0.26455 0.0
H1547 H 0.81384 0.44447 0.28382 0.0
S1548 S 0.93383 0.44315 0.35345 0.0
N1549 N 0.92927 0.47492 0.32881 0.0
N1550 N 0.90006 0.42114 0.35022 0.0
C1551 C 0.88338 0.43966 0.3284 0.0
C1552 C 0.89911 0.4684 0.31675 0.0
C1553 C 0.90816 0.60097 0.51308 0.0
C1554 C 0.89309 0.62276 0.53592 0.0
C1555 C 0.94026 0.58622 0.51664 0.0
C1556 C 0.95979 0.59186 0.54344 0.0
H1557 H 0.89479 0.59472 0.49202 0.0
H1558 H 0.94964 0.5697 0.49805 0.0
S1559 S 0.93349 0.64747 0.61037 0.0
N1560 N 0.90147 0.64973 0.58648 0.0
N1561 N 0.96148 0.62203 0.59319 0.0
C1562 C 0.94553 0.61404 0.56638 0.0
C1563 C 0.91256 0.6294 0.56261 0.0
C1564 C 0.1882 0.1421 0.35187 0.0
C1565 C 0.19629 0.1169 0.33019 0.0
C1566 C 0.21055 0.16731 0.35573 0.0
C1567 C 0.24062 0.16789 0.33733 0.0
H1568 H 0.16542 0.14145 0.36679 0.0
H1569 H 0.20447 0.18643 0.37293 0.0
S1570 S 0.27053 0.10941 0.27495 0.0
N1571 N 0.23438 0.0951 0.2885 0.0
N1572 N 0.27624 0.14308 0.29542 0.0
C1573 C 0.24789 0.14376 0.31446 0.0
C1574 C 0.22554 0.11806 0.31084 0.0
C1575 C 0.36035 0.95543 0.52321 0.0
C1576 C 0.34554 0.97096 0.55029 0.0
C1577 C 0.38897 0.968 0.50789 0.0
C1578 C 0.40388 0.99561 0.52005 0.0
H1579 H 0.3498 0.93345 0.51398 0.0
H1580 H 0.4003 0.95544 0.48731 0.0
S1581 S 0.3761 0.04306 0.59184 0.0
N1582 N 0.34842 0.01392 0.58967 0.0
N1583 N 0.40269 0.03759 0.56092 0.0
C1584 C 0.38957 0.01093 0.54744 0.0
C1585 C 0.36029 0.99841 0.56275 0.0
C1586 C 0.85514 0.66592 0.24425 0.0
C1587 C 0.88147 0.65964 0.26481 0.0
C1588 C 0.83998 0.69702 0.24284 0.0
C1589 C 0.85112 0.72236 0.26182 0.0
H1590 H 0.84454 0.64615 0.23121 0.0
H1591 H 0.81786 0.70053 0.22885 0.0
S1592 S 0.92371 0.71868 0.31481 0.0
N1593 N 0.92125 0.68109 0.30094 0.0
N1594 N 0.8935 0.74034 0.2979 0.0
C1595 C 0.88019 0.71713 0.27945 0.0
C1596 C 0.89521 0.6853 0.28116 0.0
C1597 C 0.69979 0.43039 0.79334 0.0
C1598 C 0.6935 0.438 0.8258 0.0
C1599 C 0.71867 0.40227 0.7849 0.0
C1600 C 0.73163 0.38167 0.80884 0.0
H1601 H 0.69245 0.4475 0.7746 0.0
H1602 H 0.72467 0.39759 0.75979 0.0
S1603 S 0.71499 0.38754 0.89675 0.0
N1604 N 0.6967 0.42072 0.88149 0.0
N1605 N 0.73149 0.36729 0.86572 0.0
C1606 C 0.72251 0.38749 0.84116 0.0
C1607 C 0.70348 0.41592 0.84966 0.0
C1608 C 0.06415 0.88927 0.99079 0.0
C1609 C 0.05237 0.8859 0.95928 0.0
C1610 C 0.06681 0.9206 1.0061 0.0
C1611 C 0.05866 0.95121 0.99089 0.0
H1612 H 0.07165 0.86737 1.0039 0.0
H1613 H 0.07528 0.92068 0.03043 0.0
S1614 S 0.02915 0.95719 0.90738 0.0
N1615 N 0.03453 0.91729 0.91306 0.0
N1616 N 0.03935 0.97472 0.94094 0.0
C1617 C 0.04796 0.94809 0.959 0.0
C1618 C 0.04519 0.91625 0.94355 0.0
C1619 C 0.91792 0.32553 0.72948 0.0
C1620 C 0.91628 0.31657 0.69704 0.0
C1621 C 0.8893 0.32761 0.7496 0.0
C1622 C 0.85769 0.32078 0.73831 0.0
H1623 H 0.94163 0.33052 0.73984 0.0
H1624 H 0.8923 0.3336 0.77453 0.0
S1625 S 0.83897 0.29925 0.65468 0.0
N1626 N 0.87996 0.30297 0.65399 0.0
N1627 N 0.82587 0.30696 0.69189 0.0
C1628 C 0.85529 0.31315 0.70559 0.0
C1629 C 0.88463 0.31093 0.685 0.0
C1630 C 0.56328 0.18755 0.48902 0.0
C1631 C 0.54792 0.1937 0.45932 0.0
C1632 C 0.56366 0.15598 0.50449 0.0
C1633 C 0.54789 0.1285 0.49182 0.0
H1634 H 0.57543 0.20741 0.50052 0.0
H1635 H 0.5761 0.15327 0.52701 0.0
S1636 S 0.50427 0.13026 0.41454 0.0
N1637 N 0.51706 0.16823 0.41776 0.0
N1638 N 0.51681 0.11025 0.4468 0.0
C1639 C 0.53242 0.1343 0.46216 0.0
C1640 C 0.53268 0.16625 0.44607 0.0
C1641 C 0.5958 0.80001 0.24366 0.0
C1642 C 0.59837 0.81406 0.21264 0.0
C1643 C 0.62287 0.78251 0.25657 0.0
C1644 C 0.6533 0.77894 0.23899 0.0
H1645 H 0.57232 0.80126 0.2575 0.0
H1646 H 0.62024 0.77211 0.28054 0.0
S1647 S 0.67348 0.81233 0.1577 0.0
N1648 N 0.6341 0.82401 0.16522 0.0
N1649 N 0.68512 0.79156 0.18984 0.0
C1650 C 0.65646 0.79356 0.20841 0.0
C1651 C 0.62896 0.81108 0.19517 0.0
C1652 C 0.04535 0.2168 0.66302 0.0
C1653 C 0.04898 0.24677 0.64673 0.0
C1654 C 0.06208 0.18861 0.65154 0.0
C1655 C 0.08237 0.18927 0.62341 0.0
H1656 H 0.0288 0.21497 0.68412 0.0
H1657 H 0.0584 0.16558 0.66382 0.0
S1658 S 0.10869 0.26369 0.57861 0.0
N1659 N 0.08117 0.27737 0.60621 0.0
N1660 N 0.11086 0.22338 0.58343 0.0
C1661 C 0.08911 0.21967 0.60892 0.0
C1662 C 0.07261 0.24869 0.6209 0.0
C1663 C 0.66088 0.32612 0.35976 0.0
C1664 C 0.64259 0.29785 0.36825 0.0
C1665 C 0.69328 0.32424 0.34468 0.0
C1666 C 0.70898 0.29397 0.3361 0.0
H1667 H 0.64971 0.35021 0.36433 0.0
H1668 H 0.70566 0.34694 0.33868 0.0
S1669 S 0.67265 0.21223 0.35325 0.0
N1670 N 0.6436 0.23834 0.36754 0.0
N1671 N 0.70358 0.23469 0.33857 0.0
C1672 C 0.69121 0.2654 0.34482 0.0
C1673 C 0.65844 0.26735 0.36097 0.0
C1674 C 0.48763 0.91866 0.08926 0.0
C1675 C 0.50354 0.90932 0.11771 0.0
C1676 C 0.49428 0.94836 0.07383 0.0
C1677 C 0.51657 0.97013 0.0865 0.0
H1678 H 0.47074 0.90246 0.07796 0.0
H1679 H 0.48247 0.95395 0.05137 0.0
S1680 S 0.56265 0.95918 0.16158 0.0
N1681 N 0.54108 0.92546 0.15897 0.0
N1682 N 0.5531 0.98182 0.12996 0.0
C1683 C 0.53117 0.96226 0.11584 0.0
C1684 C 0.52475 0.9317 0.13147 0.0
C1685 C 0.9291 0.77156 0.88714 0.0
C1686 C 0.95741 0.79058 0.8788 0.0
C1687 C 0.90181 0.76819 0.86642 0.0
C1688 C 0.90033 0.78427 0.8361 0.0
H1689 H 0.92791 0.75898 0.91018 0.0
H1690 H 0.88103 0.75349 0.87486 0.0
S1691 S 0.96678 0.8386 0.80261 0.0
N1692 N 0.98141 0.82615 0.83737 0.0
N1693 N 0.93033 0.82102 0.79955 0.0
C1694 C 0.92833 0.80365 0.82753 0.0
C1695 C 0.95656 0.80643 0.84836 0.0
C1696 C 0.9253 0.09196 0.89813 0.0
C1697 C 0.93115 0.06782 0.87479 0.0
C1698 C 0.95087 0.10033 0.91826 0.0
C1699 C 0.98237 0.08428 0.91567 0.0
H1700 H 0.90124 0.10481 0.90031 0.0
H1701 H 0.94576 0.11848 0.93666 0.0
S1702 S 1.01053 0.02209 0.85617 0.0
N1703 N 0.97096 0.03006 0.84838 0.0
N1704 N 0.01864 0.04503 0.88714 0.0
C1705 C 0.98847 0.06064 0.89207 0.0
C1706 C 0.96284 0.05254 0.87138 0.0
C1707 C 0.79328 0.21466 0.63511 0.0
C1708 C 0.79248 0.23402 0.60699 0.0
C1709 C 0.77609 0.22457 0.66316 0.0
C1710 C 0.75738 0.2542 0.66431 0.0
H1711 H 0.8066 0.19113 0.63526 0.0
H1712 H 0.77729 0.20883 0.68425 0.0
S1713 S 0.74917 0.31511 0.5981 0.0
N1714 N 0.77258 0.28497 0.58228 0.0
N1715 N 0.74069 0.30399 0.63571 0.0
C1716 C 0.75696 0.27432 0.63671 0.0
C1717 C 0.77462 0.26423 0.60793 0.0
C1718 C 0.65584 0.01835 0.42988 0.0
C1719 C 0.64047 0.02828 0.40146 0.0
C1720 C 0.63676 0.01197 0.45786 0.0
C1721 C 0.60169 0.01493 0.45825 0.0
H1722 H 0.68281 0.01538 0.43057 0.0
H1723 H 0.64958 0.00543 0.47954 0.0
S1724 S 0.54933 0.04021 0.39007 0.0
N1725 N 0.58818 0.04088 0.37533 0.0
N1726 N 0.55223 0.02822 0.42779 0.0
C1727 C 0.58594 0.024 0.42976 0.0
C1728 C 0.60537 0.03094 0.40141 0.0
C1729 C 0.78412 0.84522 0.14322 0.0
C1730 C 0.79981 0.87555 0.13662 0.0
C1731 C 0.78229 0.83045 0.17461 0.0
C1732 C 0.79675 0.84447 0.20164 0.0
H1733 H 0.77283 0.83264 0.12385 0.0
H1734 H 0.76973 0.80735 0.17754 0.0
S1735 S 0.8409 0.92381 0.19846 0.0
N1736 N 0.82972 0.91914 0.16112 0.0
N1737 N 0.82729 0.89141 0.21876 0.0
C1738 C 0.81258 0.87477 0.19536 0.0
C1739 C 0.81383 0.89015 0.16354 0.0
C1740 C 0.92913 0.05854 0.67424 0.0
C1741 C 0.93672 0.08186 0.69717 0.0
C1742 C 0.9517 0.0511 0.6489 0.0
C1743 C 0.98255 0.06676 0.64562 0.0
H1744 H 0.9065 0.04458 0.67675 0.0
H1745 H 0.94499 0.03262 0.63206 0.0
S1746 S 0.01217 0.13188 0.69825 0.0
N1747 N 0.97513 0.12269 0.7137 0.0
N1748 N 0.01845 0.10815 0.66671 0.0
C1749 C 0.98961 0.09129 0.66766 0.0
C1750 C 0.96632 0.09913 0.69314 0.0
C1751 C 0.82191 0.19102 0.39548 0.0
C1752 C 0.82317 0.20805 0.42452 0.0
C1753 C 0.82562 0.20736 0.36602 0.0
C1754 C 0.8303 0.24129 0.36438 0.0
H1755 H 0.817 0.16502 0.39533 0.0
H1756 H 0.82323 0.1936 0.34436 0.0
S1757 S 0.84252 0.29602 0.43324 0.0
N1758 N 0.83466 0.2599 0.44976 0.0
N1759 N 0.84145 0.29058 0.39419 0.0
C1760 C 0.83456 0.25814 0.39313 0.0
C1761 C 0.83078 0.24155 0.42324 0.0
C1762 C 0.59298 0.02469 0.21633 0.0
C1763 C 0.62616 0.03164 0.22292 0.0
C1764 C 0.5765 0.04189 0.19204 0.0
C1765 C 0.59236 0.06716 0.17461 0.0
H1766 H 0.5798 0.00585 0.22986 0.0
H1767 H 0.55144 0.03514 0.18634 0.0
S1768 S 0.67815 0.09599 0.18301 0.0
N1769 N 0.67401 0.06629 0.21003 0.0
N1770 N 0.64211 0.09861 0.16505 0.0
C1771 C 0.62502 0.07481 0.18125 0.0
C1772 C 0.64221 0.05698 0.20524 0.0
C1773 C 0.79247 0.89836 0.9099 0.0
C1774 C 0.80206 0.88393 0.93965 0.0
C1775 C 0.79002 0.88018 0.88087 0.0
C1776 C 0.79752 0.84607 0.87873 0.0
H1777 H 0.78652 0.92442 0.90883 0.0
H1778 H 0.78174 0.89319 0.85981 0.0
S1779 S 0.82428 0.795 0.94862 0.0
N1780 N 0.81887 0.83199 0.96407 0.0
N1781 N 0.81513 0.79867 0.91044 0.0
C1782 C 0.80684 0.83112 0.90831 0.0
C1783 C 0.809 0.8496 0.9381 0.0
C1784 C 0.91508 0.97043 0.01415 0.0
C1785 C 0.89137 0.96556 0.03945 0.0
C1786 C 0.94358 0.99048 0.01676 0.0
C1787 C 0.95271 1.00392 0.04608 0.0
H1788 H 0.91167 0.95821 0.99192 0.0
H1789 H 0.95977 0.99418 0.99569 0.0
S1790 S 0.90229 0.99496 0.12236 0.0
N1791 N 0.88037 0.97541 0.09618 0.0
N1792 N 0.93568 0.00869 0.10234 0.0
C1793 C 0.93032 0.99765 0.07249 0.0
C1794 C 0.8998 0.97929 0.06907 0.0
C1795 C 0.42044 0.6401 1.00073 0.0
C1796 C 0.39597 0.6439 0.02554 0.0
C1797 C 0.45061 0.62322 1.00641 0.0
C1798 C 0.45618 0.60946 0.03677 0.0
H1799 H 0.41557 0.64891 0.97669 0.0
H1800 H 0.46884 0.61958 0.9868 0.0
S1801 S 0.39983 0.61327 0.10917 0.0
N1802 N 0.37923 0.63342 0.08119 0.0
N1803 N 0.43598 0.60157 0.09185 0.0
C1804 C 0.43234 0.61407 0.06182 0.0
C1805 C 0.40201 0.63137 0.05616 0.0
C1806 C 0.19428 0.63542 0.79613 0.0
C1807 C 0.20468 0.60369 0.78736 0.0
C1808 C 0.20981 0.66247 0.78197 0.0
C1809 C 0.23565 0.65847 0.75832 0.0
H1810 H 0.17516 0.63927 0.81494 0.0
H1811 H 0.20258 0.68667 0.79051 0.0
S1812 S 0.26589 0.58 0.7223 0.0
N1813 N 0.23774 0.56931 0.75024 0.0
N1814 N 0.2675 0.62041 0.72375 0.0
C1815 C 0.244 0.62682 0.74738 0.0
C1816 C 0.22831 0.59927 0.76195 0.0
C1817 C 0.19937 0.47394 0.56255 0.0
C1818 C 0.21567 0.4676 0.53244 0.0
C1819 C 0.1667 0.48904 0.5652 0.0
C1820 C 0.14832 0.49816 0.53789 0.0
H1821 H 0.21242 0.46832 0.5843 0.0
H1822 H 0.15582 0.49375 0.58891 0.0
S1823 S 0.17908 0.48583 0.4534 0.0
N1824 N 0.21017 0.47137 0.47484 0.0
N1825 N 0.14962 0.49842 0.47957 0.0
C1826 C 0.16419 0.49108 0.50776 0.0
C1827 C 0.19744 0.4763 0.50513 0.0
C1828 C 0.90468 0.95275 0.77889 0.0
C1829 C 0.88631 0.98122 0.77112 0.0
C1830 C 0.89629 0.92276 0.76622 0.0
C1831 C 0.86978 0.92083 0.74517 0.0
H1832 H 0.92455 0.95351 0.79577 0.0
H1833 H 0.9093 0.90065 0.77421 0.0
S1834 S 0.81966 0.9903 0.71208 0.0
N1835 N 0.84486 0.00718 0.73713 0.0
N1836 N 0.82854 0.95055 0.71375 0.0
C1837 C 0.8535 0.94977 0.73495 0.0
C1838 C 0.8619 0.98015 0.74794 0.0
C1839 C 0.70568 0.14169 0.52145 0.0
C1840 C 0.7377 0.1389 0.53355 0.0
C1841 C 0.68026 0.12187 0.53369 0.0
C1842 C 0.68604 0.0991 0.55877 0.0
H1843 H 0.70039 0.15901 0.50224 0.0
H1844 H 0.65582 0.12459 0.52355 0.0
S1845 S 0.76439 0.08716 0.6023 0.0
N1846 N 0.77307 0.1153 0.5746 0.0
N1847 N 0.72526 0.07718 0.5971 0.0
C1848 C 0.71759 0.09737 0.57213 0.0
C1849 C 0.74348 0.11757 0.55964 0.0
C1850 C 0.2115 0.41656 0.82931 0.0
C1851 C 0.23151 0.44158 0.84028 0.0
C1852 C 0.22486 0.38518 0.82385 0.0
C1853 C 0.25872 0.37769 0.82914 0.0
H1854 H 0.18581 0.42156 0.82304 0.0
H1855 H 0.20895 0.36733 0.81356 0.0
S1856 S 0.31947 0.43191 0.86537 0.0
N1857 N 0.28522 0.45502 0.86197 0.0
N1858 N 0.31037 0.39569 0.85137 0.0
C1859 C 0.27807 0.40131 0.84334 0.0
C1860 C 0.26442 0.43337 0.84906 0.0
C1861 C 0.31231 0.6591 0.29968 0.0
C1862 C 0.34561 0.65172 0.30691 0.0
C1863 C 0.30049 0.69152 0.29917 0.0
C1864 C 0.32152 0.71711 0.30663 0.0
H1865 H 0.29563 0.63992 0.29351 0.0
H1866 H 0.27471 0.69657 0.29318 0.0
S1867 S 0.41031 0.71 0.32854 0.0
N1868 N 0.39926 0.67192 0.32243 0.0
N1869 N 0.37668 0.73322 0.32212 0.0
C1870 C 0.35462 0.70995 0.31469 0.0
C1871 C 0.3668 0.67704 0.31467 0.0
C1872 C 0.53787 0.66541 0.63822 0.0
C1873 C 0.55569 0.69184 0.62376 0.0
C1874 C 0.53429 0.63455 0.6226 0.0
C1875 C 0.54837 0.62809 0.59149 0.0
H1876 H 0.52587 0.6688 0.6617 0.0
H1877 H 0.51988 0.61578 0.63489 0.0
S1878 S 0.60491 0.68506 0.5466 0.0
N1879 N 0.59281 0.70611 0.57877 0.0
N1880 N 0.58542 0.64988 0.54949 0.0
C1881 C 0.56786 0.65364 0.57777 0.0
C1882 C 0.57179 0.68472 0.59379 0.0
C1883 C 0.68471 0.28748 0.9157 0.0
C1884 C 0.65469 0.27408 0.90688 0.0
C1885 C 0.71258 0.28673 0.89435 0.0
C1886 C 0.71089 0.27297 0.86357 0.0
H1887 H 0.68588 0.30085 0.93789 0.0
H1888 H 0.73466 0.29913 0.90123 0.0
S1889 S 0.64016 0.22745 0.83311 0.0
N1890 N 0.62657 0.24096 0.86854 0.0
N1891 N 0.6788 0.24034 0.82813 0.0
C1892 C 0.68209 0.2564 0.85613 0.0
C1893 C 0.65397 0.25677 0.87795 0.0
C1894 C 0.07513 0.39994 0.11905 0.0
C1895 C 0.04883 0.37846 0.11277 0.0
C1896 C 0.07708 0.4324 0.10509 0.0
C1897 C 0.05295 0.44556 0.08384 0.0
H1898 H 0.09486 0.39145 0.13442 0.0
H1899 H 0.09805 0.44719 0.11084 0.0
S1900 S 0.97736 0.40127 0.06106 0.0
N1901 N 0.99683 0.37489 0.0847 0.0
N1902 N 1.00082 0.4339 0.059 0.0
C1903 C 0.02629 0.42455 0.07804 0.0
C1904 C 0.02418 0.39187 0.09222 0.0
C1905 C 0.92753 0.78948 0.41222 0.0
C1906 C 0.96171 0.79595 0.41027 0.0
C1907 C 0.90611 0.80294 0.38946 0.0
C1908 C 0.91805 0.8244 0.36489 0.0
H1909 H 0.91752 0.77335 0.43086 0.0
H1910 H 0.88036 0.79551 0.39073 0.0
S1911 S 1.00474 0.85305 0.35285 0.0
N1912 N 1.00633 0.82657 0.38301 0.0
N1913 N 0.96526 0.85455 0.34285 0.0
C1914 C 0.95177 0.83265 0.3642 0.0
C1915 C 0.97381 0.81772 0.38618 0.0
C1916 C 0.54029 0.36526 0.02976 0.0
C1917 C 0.53538 0.35871 0.9974 0.0
C1918 C 0.52309 0.39161 0.04478 0.0
C1919 C 0.50067 0.41172 0.02775 0.0
H1920 H 0.55769 0.35025 0.04328 0.0
H1921 H 0.52811 0.39712 0.06942 0.0
S1922 S 0.4815 0.40615 0.94216 0.0
N1923 N 0.50823 0.37531 0.94841 0.0
N1924 N 0.47596 0.42476 0.97697 0.0
C1925 C 0.49615 0.40567 0.9954 0.0
C1926 C 0.51372 0.37923 0.98004 0.0
C1927 C 0.92537 0.27319 0.18656 0.0
C1928 C 0.95554 0.28664 0.19636 0.0
C1929 C 0.89558 0.27388 0.20617 0.0
C1930 C 0.8936 0.28897 0.23651 0.0
H1931 H 0.92464 0.26162 0.16342 0.0
H1932 H 0.87359 0.26282 0.19707 0.0
S1933 S 0.96451 0.32924 0.27374 0.0
N1934 N 0.98089 0.31593 0.23916 0.0
N1935 N 0.92496 0.31843 0.27508 0.0
C1936 C 0.92331 0.3031 0.24652 0.0
C1937 C 0.95406 0.30161 0.22684 0.0
C1938 C 0.07255 0.67454 0.47488 0.0
C1939 C 0.0535 0.69631 0.49471 0.0
C1940 C 0.08228 0.64332 0.48604 0.0
C1941 C 0.07425 0.63339 0.51767 0.0
H1942 H 0.07931 0.68133 0.45032 0.0
H1943 H 0.09532 0.62654 0.46961 0.0
S1944 S 0.02543 0.68139 0.5795 0.0
N1945 N 0.02689 0.70552 0.5475 0.0
N1946 N 0.04669 0.64781 0.56888 0.0
C1947 C 0.05626 0.65537 0.53807 0.0
C1948 C 0.04537 0.68655 0.52644 0.0
C1949 C 0.65365 0.78608 0.74635 0.0
C1950 C 0.65476 0.78837 0.71227 0.0
C1951 C 0.68271 0.78856 0.76499 0.0
C1952 C 0.71471 0.79478 0.75091 0.0
H1953 H 0.62996 0.78175 0.75894 0.0
H1954 H 0.67995 0.78592 0.79081 0.0
S1955 S 0.73266 0.80203 0.66287 0.0
N1956 N 0.69193 0.7961 0.66558 0.0
N1957 N 0.74541 0.80213 0.70006 0.0
C1958 C 0.71619 0.79728 0.71691 0.0
C1959 C 0.68678 0.79377 0.69788 0.0
C1960 C 0.59058 0.50301 0.73398 0.0
C1961 C 0.6203 0.52002 0.7375 0.0
C1962 C 0.58131 0.49287 0.70383 0.0
C1963 C 0.60134 0.49968 0.67634 0.0
H1964 H 0.57444 0.49724 0.75464 0.0
H1965 H 0.55788 0.4805 0.70184 0.0
S1966 S 0.68179 0.54263 0.67259 0.0
N1967 N 0.66995 0.54277 0.71092 0.0
N1968 N 0.65238 0.52337 0.65423 0.0
C1969 C 0.63122 0.51628 0.6795 0.0
C1970 C 0.64074 0.52658 0.71012 0.0
C1971 C 0.80779 0.41902 0.95043 0.0
C1972 C 0.78332 0.40808 0.97303 0.0
C1973 C 0.82318 0.39769 0.92802 0.0
C1974 C 0.81433 0.36473 0.92711 0.0
H1975 H 0.81612 0.44388 0.95055 0.0
H1976 H 0.84158 0.40717 0.91082 0.0
S1977 S 0.75009 0.32399 0.9789 0.0
N1978 N 0.74974 0.36218 0.99167 0.0
N1979 N 0.77882 0.32213 0.94942 0.0
C1980 C 0.78934 0.35355 0.94884 0.0
C1981 C 0.77372 0.3752 0.97172 0.0
C1982 C 0.99161 0.54837 0.17458 0.0
C1983 C 0.95934 0.56252 0.17744 0.0
C1984 C 1.009 0.54787 0.14528 0.0
C1985 C 0.9947 0.56147 0.11781 0.0
H1986 H 1.00362 0.53759 0.19523 0.0
H1987 H 0.03377 0.5363 0.14411 0.0
S1988 S 0.91193 0.60384 0.11323 0.0
N1989 N 0.91403 0.59188 0.15116 0.0
N1990 N 0.94716 0.59063 0.09505 0.0
C1991 C 0.96237 0.57568 0.1201 0.0
C1992 C 0.9445 0.57627 0.15029 0.0
C1993 C 0.79962 0.73886 0.44135 0.0
C1994 C 0.79397 0.70452 0.44308 0.0
C1995 C 0.7993 0.75748 0.41163 0.0
C1996 C 0.7921 0.74343 0.38162 0.0
H1997 H 0.80484 0.75157 0.46314 0.0
H1998 H 0.80428 0.78344 0.41233 0.0
S1999 S 0.77704 0.65478 0.37087 0.0
N2000 N 0.7829 0.65763 0.40964 0.0
N2001 N 0.78025 0.69238 0.35617 0.0
C2002 C 0.78636 0.70941 0.38301 0.0
C2003 C 0.7878 0.69027 0.41276 0.0
C2004 C 0.63205 0.5339 0.95055 0.0
C2005 C 0.61854 0.52661 0.92099 0.0
C2006 C 0.61137 0.54094 0.97707 0.0
C2007 C 0.57651 0.53978 0.97536 0.0
H2008 H 0.65877 0.53551 0.95318 0.0
H2009 H 0.62287 0.54727 0.99919 0.0
S2010 S 0.52865 0.51575 0.90579 0.0
N2011 N 0.56815 0.51474 0.89256 0.0
N2012 N 0.52909 0.52674 0.94375 0.0
C2013 C 0.56252 0.52984 0.94702 0.0
C2014 C 0.58363 0.52348 0.91945 0.0
C2015 C 0.77612 0.39407 0.18132 0.0
C2016 C 0.76687 0.37865 0.15321 0.0
C2017 C 0.77775 0.3767 0.21028 0.0
C2018 C 0.77025 0.3432 0.2122 0.0
H2019 H 0.78334 0.4195 0.18084 0.0
H2020 H 0.78644 0.38937 0.23092 0.0
S2021 S 0.73988 0.29264 0.1465 0.0
N2022 N 0.74651 0.32893 0.12976 0.0
N2023 N 0.74959 0.29615 0.18436 0.0
C2024 C 0.75874 0.32802 0.18478 0.0
C2025 C 0.75709 0.34577 0.15521 0.0
C2026 C 0.9514 0.57089 0.38894 0.0
C2027 C 0.96121 0.56842 0.35632 0.0
C2028 C 0.97284 0.56015 0.41272 0.0
C2029 C 1.00463 0.54644 0.40466 0.0
H2030 H 0.92651 0.57981 0.39619 0.0
H2031 H 0.964 0.56129 0.43755 0.0
S2032 S 0.0445 0.53838 0.32375 0.0
N2033 N 1.00687 0.55433 0.31762 0.0
N2034 N 0.04648 0.53374 0.36299 0.0
C2035 C 0.01559 0.54541 0.37258 0.0
C2036 C 0.9941 0.5567 0.34823 0.0
C2037 C 0.81679 0.74085 0.64627 0.0
C2038 C 0.80446 0.70899 0.64156 0.0
C2039 C 0.82146 0.75414 0.67743 0.0
C2040 C 0.81412 0.73676 0.70661 0.0
H2041 H 0.82291 0.75604 0.62549 0.0
H2042 H 0.83057 0.77885 0.67853 0.0
S2043 S 0.77998 0.65264 0.70894 0.0
N2044 N 0.78455 0.66065 0.67013 0.0
N2045 N 0.79273 0.68527 0.72757 0.0
C2046 C 0.80164 0.70488 0.70229 0.0
C2047 C 0.79705 0.69125 0.67044 0.0
C2048 C 0.68229 0.63217 0.52178 0.0
C2049 C 0.71 0.62229 0.54003 0.0
C2050 C 0.65362 0.61233 0.51916 0.0
C2051 C 0.64984 0.58194 0.53585 0.0
H2052 H 0.68309 0.65521 0.50857 0.0
H2053 H 0.63382 0.62136 0.50412 0.0
S2054 S 0.71296 0.54657 0.59069 0.0
N2055 N 0.73023 0.58065 0.57712 0.0
N2056 N 0.67656 0.54463 0.5735 0.0
C2057 C 0.67679 0.57255 0.55539 0.0
C2058 C 0.70643 0.59232 0.55728 0.0
C2059 C 0.14704 0.96038 0.55402 0.0
C2060 C 0.17017 0.96059 0.5783 0.0
C2061 C 0.11546 0.97523 0.55878 0.0
C2062 C 0.10687 0.99171 0.58746 0.0
H2063 H 0.15426 0.95087 0.53054 0.0
H2064 H 0.09914 0.97678 0.53869 0.0
S2065 S 0.15743 0.99573 0.65947 0.0
N2066 N 0.18111 0.97442 0.63343 0.0
N2067 N 0.12228 1.00478 0.64135 0.0
C2068 C 0.12877 0.98994 0.61272 0.0
C2069 C 0.16039 0.97356 0.6084 0.0
C2070 C 0.37124 0.96451 0.7741 0.0
C2071 C 0.39949 0.97819 0.78654 0.0
C2072 C 0.35927 0.93523 0.78666 0.0
C2073 C 0.37516 0.91883 0.81195 0.0
H2074 H 0.35772 0.97703 0.75528 0.0
H2075 H 0.33667 0.92585 0.77733 0.0
S2076 S 0.45216 0.94355 0.85041 0.0
N2077 N 0.44498 0.97267 0.82338 0.0
N2078 N 0.42193 0.91702 0.84743 0.0
C2079 C 0.40441 0.93152 0.82361 0.0
C2080 C 0.41694 0.96133 0.81049 0.0
C2081 C 0.41048 0.1346 0.04893 0.0
C2082 C 0.38589 0.12008 0.03048 0.0
C2083 C 0.44345 0.12041 0.05158 0.0
C2084 C 0.45376 0.09084 0.03599 0.0
H2085 H 0.40425 0.15714 0.06152 0.0
H2086 H 0.46111 0.13291 0.06582 0.0
S2087 S 0.3991 0.04096 0.98676 0.0
N2088 N 0.37517 0.07283 0.99737 0.0
N2089 N 0.43537 0.04688 1.00287 0.0
C2090 C 0.42932 0.07593 0.01799 0.0
C2091 C 0.39612 0.09024 0.01514 0.0
C2092 C 0.68837 0.63355 0.85709 0.0
C2093 C 0.69702 0.60842 0.83549 0.0
C2094 C 0.70996 0.65948 0.86071 0.0
C2095 C 0.73977 0.66104 0.84199 0.0
H2096 H 0.6656 0.63246 0.87197 0.0
H2097 H 0.70339 0.67849 0.87789 0.0
S2098 S 0.77061 0.60354 0.77909 0.0
N2099 N 0.73525 0.58795 0.79322 0.0
N2100 N 0.77558 0.6373 0.79963 0.0
C2101 C 0.74761 0.63698 0.81918 0.0
C2102 C 0.72608 0.61047 0.81588 0.0
C2103 C 0.86717 0.44917 0.01601 0.0
C2104 C 0.85294 0.46141 0.0449 0.0
C2105 C 0.89635 0.46259 1.00249 0.0
C2106 C 0.91218 0.48767 0.0182 0.0
H2107 H 0.85526 0.42977 1.00356 0.0
H2108 H 0.90686 0.45317 0.98002 0.0
S2109 S 0.88648 0.52423 0.09666 0.0
N2110 N 0.85768 0.49717 0.09021 0.0
N2111 N 0.91273 0.52262 0.06513 0.0
C2112 C 0.89873 0.49891 0.04788 0.0
C2113 C 0.86903 0.48552 0.06129 0.0
C2114 C 0.32575 0.15232 0.76548 0.0
C2115 C 0.36066 0.14747 0.76264 0.0
C2116 C 0.31118 0.18348 0.76236 0.0
C2117 C 0.33116 0.21091 0.75703 0.0
H2118 H 0.30953 0.13213 0.77148 0.0
H2119 H 0.28438 0.18627 0.7668 0.0
S2120 S 0.42327 0.21061 0.74251 0.0
N2121 N 0.41452 0.17181 0.74988 0.0
N2122 N 0.38701 0.23102 0.74456 0.0
C2123 C 0.36582 0.20612 0.75132 0.0
C2124 C 0.38067 0.17418 0.75409 0.0
C2125 C 0.18994 0.93207 0.30567 0.0
C2126 C 0.19322 0.94603 0.33593 0.0
C2127 C 0.20907 0.90415 0.29683 0.0
C2128 C 0.23232 0.89017 0.31783 0.0
H2129 H 0.17451 0.94408 0.28797 0.0
H2130 H 0.20675 0.8944 0.27301 0.0
S2131 S 0.24609 0.91575 0.40151 0.0
N2132 N 0.21708 0.94151 0.38846 0.0
N2133 N 0.25497 0.89084 0.37139 0.0
C2134 C 0.23399 0.90292 0.34894 0.0
C2135 C 0.21367 0.93028 0.3582 0.0
C2136 C 0.55213 0.4249 0.43477 0.0
C2137 C 0.55332 0.39278 0.4487 0.0
C2138 C 0.55686 0.45409 0.45251 0.0
C2139 C 0.56348 0.45368 0.48566 0.0
H2140 H 0.54713 0.4278 0.40956 0.0
H2141 H 0.55483 0.47744 0.43994 0.0
S2142 S 0.56897 0.37685 0.53499 0.0
N2143 N 0.56155 0.36333 0.49886 0.0
N2144 N 0.57045 0.41723 0.53167 0.0
C2145 C 0.56489 0.4218 0.50002 0.0
C2146 C 0.55984 0.39194 0.4819 0.0
C2147 C 0.37906 0.82479 0.19212 0.0
C2148 C 0.41066 0.83413 0.20162 0.0
C2149 C 0.35174 0.82488 0.21392 0.0
C2150 C 0.3551 0.83426 0.24598 0.0
H2151 H 0.37568 0.81565 0.16823 0.0
H2152 H 0.32834 0.81572 0.20591 0.0
S2153 S 0.43063 0.86776 0.28085 0.0
N2154 N 0.44245 0.85829 0.24369 0.0
N2155 N 0.3909 0.85802 0.28477 0.0
C2156 C 0.38571 0.84649 0.255 0.0
C2157 C 0.41357 0.84653 0.23277 0.0
C2158 C 0.01897 0.69128 0.99521 0.0
C2159 C 0.04259 0.70305 0.97162 0.0
C2160 C 0.02029 0.6587 1.00827 0.0
C2161 C 0.04576 0.63549 0.99933 0.0
H2162 H 0.99879 0.70748 1.00388 0.0
H2163 H 1.00121 0.65176 0.02602 0.0
S2164 S 0.11338 0.65143 0.93778 0.0
N2165 N 0.09195 0.6867 0.93925 0.0
N2166 N 0.09487 0.62666 0.96423 0.0
C2167 C 0.06952 0.64654 0.97575 0.0
C2168 C 0.06784 0.67968 0.9619 0.0
C2169 C 0.12798 0.34111 0.70379 0.0
C2170 C 0.09593 0.34416 0.71865 0.0
C2171 C 0.15395 0.32436 0.71906 0.0
C2172 C 0.14861 0.30982 0.74949 0.0
H2173 H 0.13241 0.34965 0.67932 0.0
H2174 H 0.17792 0.32124 0.70632 0.0
S2175 S 0.07157 0.31583 0.8012 0.0
N2176 N 0.06183 0.33524 0.76768 0.0
N2177 N 0.11099 0.30329 0.7959 0.0
C2178 C 0.11772 0.3149 0.76573 0.0
C2179 C 0.09134 0.33247 0.75049 0.0
C2180 C 0.55161 0.74805 0.11779 0.0
C2181 C 0.52329 0.74235 0.13791 0.0
C2182 C 0.56803 0.72239 0.10133 0.0
C2183 C 0.5565 0.69034 0.10432 0.0
H2184 H 0.56122 0.77255 0.11485 0.0
H2185 H 0.58967 0.7276 0.08588 0.0
S2186 S 0.48111 0.66398 0.15199 0.0
N2187 N 0.484 0.70331 0.15997 0.0
N2188 N 0.51278 0.65502 0.12676 0.0
C2189 C 0.52761 0.68455 0.12403 0.0
C2190 C 0.5116 0.71064 0.14155 0.0
C2191 C 0.18098 0.80537 0.88851 0.0
C2192 C 0.15321 0.7892 0.87667 0.0
C2193 C 0.21234 0.80636 0.87107 0.0
C2194 C 0.21776 0.79089 0.84104 0.0
H2195 H 0.17832 0.81803 0.91115 0.0
H2196 H 0.23257 0.81926 0.88136 0.0
S2197 S 0.15371 0.74447 0.79948 0.0
N2198 N 0.13402 0.7569 0.83282 0.0
N2199 N 0.19195 0.75842 0.80078 0.0
C2200 C 0.19029 0.77422 0.82931 0.0
C2201 C 0.15848 0.77349 0.84682 0.0
C2202 C 0.99375 0.40763 0.5744 0.0
C2203 C 0.99124 0.40495 0.6081 0.0
C2204 C 1.00333 0.43693 0.5594 0.0
C2205 C 1.00976 0.46449 0.57771 0.0
H2206 H 0.99077 0.38645 0.55953 0.0
H2207 H 1.00753 0.43738 0.53359 0.0
S2208 S 0.99592 0.4726 0.66605 0.0
N2209 N 0.98861 0.43383 0.65875 0.0
N2210 N 1.00527 0.4894 0.63077 0.0
C2211 C 1.00264 0.46329 0.61112 0.0
C2212 C 0.99355 0.43336 0.6263 0.0
C2213 C 0.43012 0.31259 0.37737 0.0
C2214 C 0.46046 0.29497 0.37004 0.0
C2215 C 0.40162 0.31129 0.35772 0.0
C2216 C 0.40109 0.29139 0.33008 0.0
H2217 H 0.42855 0.32819 0.3982 0.0
H2218 H 0.37953 0.32596 0.36448 0.0
S2219 S 0.47149 0.2358 0.30303 0.0
N2220 N 0.48627 0.25423 0.33435 0.0
N2221 N 0.43316 0.25103 0.29875 0.0
C2222 C 0.43057 0.27235 0.32349 0.0
C2223 C 0.45985 0.27423 0.34304 0.0
C2224 C 0.43116 0.59438 0.39452 0.0
C2225 C 0.43261 0.56525 0.37694 0.0
C2226 C 0.45738 0.60209 0.41403 0.0
C2227 C 0.48551 0.5809 0.41605 0.0
H2228 H 0.41055 0.61192 0.3919 0.0
H2229 H 0.45563 0.62448 0.42775 0.0
S2230 S 0.50028 0.50153 0.37479 0.0
N2231 N 0.46339 0.51502 0.36296 0.0
N2232 N 0.51308 0.52966 0.3993 0.0
C2233 C 0.4868 0.55154 0.39882 0.0
C2234 C 0.46011 0.54361 0.37939 0.0
C2235 C 0.27876 0.77032 0.1103 0.0
C2236 C 0.29859 0.74125 0.10978 0.0
C2237 C 0.26228 0.781 0.13885 0.0
C2238 C 0.26521 0.76294 0.16765 0.0
H2239 H 0.27428 0.78376 0.08823 0.0
H2240 H 0.24695 0.80331 0.13834 0.0
S2241 S 0.31588 0.68613 0.17895 0.0
N2242 N 0.32201 0.69585 0.14069 0.0
N2243 N 0.29031 0.71505 0.19383 0.0
C2244 C 0.28602 0.7345 0.16748 0.0
C2245 C 0.30299 0.72396 0.1387 0.0
C2246 C 0.12041 0.55143 0.91438 0.0
C2247 C 0.15308 0.53799 0.91267 0.0
C2248 C 0.09903 0.54479 0.94057 0.0
C2249 C 0.10971 0.52449 0.96582 0.0
H2250 H 0.11119 0.56684 0.89508 0.0
H2251 H 0.07429 0.5564 0.94147 0.0
S2252 S 0.19207 0.48162 0.97171 0.0
N2253 N 0.19485 0.5025 0.93752 0.0
N2254 N 0.1542 0.48997 0.98729 0.0
C2255 C 0.1422 0.51072 0.96443 0.0
C2256 C 0.16413 0.51761 0.93771 0.0
C2257 C 0.28591 0.34587 0.6416 0.0
C2258 C 0.30502 0.37407 0.63437 0.0
C2259 C 0.28373 0.33113 0.673 0.0
C2260 C 0.30136 0.34287 0.69925 0.0
H2261 H 0.2721 0.33509 0.62277 0.0
H2262 H 0.26841 0.3098 0.67654 0.0
S2263 S 0.35536 0.41585 0.69413 0.0
N2264 N 0.34165 0.41317 0.65744 0.0
N2265 N 0.33875 0.38519 0.71495 0.0
C2266 C 0.32075 0.37089 0.69228 0.0
C2267 C 0.32224 0.38642 0.66055 0.0
C2268 C 0.44021 0.57138 0.17605 0.0
C2269 C 0.45441 0.58875 0.20082 0.0
C2270 C 0.45966 0.56021 0.14999 0.0
C2271 C 0.49365 0.5673 0.14691 0.0
H2272 H 0.41407 0.565 0.17725 0.0
H2273 H 0.44762 0.54675 0.13162 0.0
S2274 S 0.54306 0.6125 0.2043 0.0
N2275 N 0.50479 0.6124 0.22069 0.0
N2276 N 0.54121 0.59259 0.17022 0.0
C2277 C 0.5083 0.58504 0.17101 0.0
C2278 C 0.48863 0.59572 0.19823 0.0
C2279 C 0.3044 0.73681 0.92171 0.0
C2280 C 0.31457 0.70415 0.92728 0.0
C2281 C 0.31066 0.75173 0.89199 0.0
C2282 C 0.32749 0.7346 0.86683 0.0
H2283 H 0.29088 0.75079 0.94021 0.0
H2284 H 0.30124 0.77666 0.88842 0.0
S2285 S 0.363 0.64999 0.87031 0.0
N2286 N 0.34454 0.65569 0.906 0.0
N2287 N 0.35678 0.68454 0.84994 0.0
C2288 C 0.33876 0.70233 0.87219 0.0
C2289 C 0.33219 0.68689 0.90252 0.0
C2290 C 0.0897 0.51702 0.74389 0.0
C2291 C 0.1227 0.50409 0.7411 0.0
C2292 C 0.07405 0.53068 0.71724 0.0
C2293 C 0.09065 0.53112 0.68704 0.0
H2294 H 0.07699 0.51943 0.76719 0.0
H2295 H 0.04939 0.54211 0.72043 0.0
S2296 S 0.17494 0.49542 0.66623 0.0
N2297 N 0.16962 0.48863 0.70518 0.0
N2298 N 0.14021 0.51436 0.65504 0.0
C2299 C 0.1223 0.51545 0.68338 0.0
C2300 C 0.13827 0.50171 0.71047 0.0
C2301 C 0.29538 0.40141 0.40824 0.0
C2302 C 0.30503 0.38582 0.43746 0.0
C2303 C 0.29212 0.38424 0.37874 0.0
C2304 C 0.29882 0.35008 0.37565 0.0
H2305 H 0.29009 0.42761 0.40798 0.0
H2306 H 0.28412 0.39811 0.35802 0.0
S2307 S 0.32542 0.29637 0.4438 0.0
N2308 N 0.321 0.33294 0.4603 0.0
N2309 N 0.31583 0.30141 0.40587 0.0
C2310 C 0.30819 0.33404 0.4047 0.0
C2311 C 0.31115 0.3515 0.43493 0.0
C2312 C 0.39906 0.49117 0.55357 0.0
C2313 C 0.39842 0.46194 0.53541 0.0
C2314 C 0.42881 0.50959 0.55655 0.0
C2315 C 0.45991 0.49988 0.54164 0.0
H2316 H 0.37626 0.49988 0.56591 0.0
H2317 H 0.42736 0.53168 0.57072 0.0
S2318 S 0.47276 0.42521 0.49182 0.0
N2319 N 0.43274 0.42422 0.50307 0.0
N2320 N 0.48739 0.45846 0.50793 0.0
C2321 C 0.45954 0.47065 0.52366 0.0
C2322 C 0.42944 0.45181 0.52093 0.0
C2323 C 0.93377 0.14929 0.4999 0.0
C2324 C 0.90874 0.15391 0.5241 0.0
C2325 C 0.96419 0.13348 0.50683 0.0
C2326 C 0.96957 0.12148 0.53788 0.0
H2327 H 0.92893 0.15599 0.47525 0.0
H2328 H 0.9825 0.1286 0.48753 0.0
S2329 S 0.91133 0.12669 0.60892 0.0
N2330 N 0.89155 0.14638 0.58011 0.0
N2331 N 0.94774 0.11447 0.59257 0.0
C2332 C 0.94518 0.12691 0.56234 0.0
C2333 C 0.91489 0.1439 0.55559 0.0
C2334 C 0.69733 0.13333 0.29497 0.0
C2335 C 0.70758 0.10152 0.28627 0.0
C2336 C 0.71407 0.16022 0.28204 0.0
C2337 C 0.74097 0.15599 0.25961 0.0
H2338 H 0.67691 0.13736 0.31245 0.0
H2339 H 0.70638 0.18453 0.29 0.0
S2340 S 0.77164 0.07783 0.22361 0.0
N2341 N 0.74203 0.06713 0.25013 0.0
N2342 N 0.77396 0.11812 0.22596 0.0
C2343 C 0.74957 0.12444 0.24878 0.0
C2344 C 0.73269 0.09699 0.26214 0.0
C2345 C 0.68986 0.96955 1.00563 0.0
C2346 C 0.70899 0.96546 0.03329 0.0
C2347 C 0.65768 0.98526 1.00646 0.0
C2348 C 0.643 0.99897 0.03482 0.0
H2349 H 0.70025 0.96108 0.98274 0.0
H2350 H 0.64463 0.98757 0.98424 0.0
S2351 S 0.68241 0.99559 0.11424 0.0
N2352 N 0.71026 0.97656 0.09019 0.0
N2353 N 0.65074 0.00656 0.09176 0.0
C2354 C 0.66178 0.99487 0.0628 0.0
C2355 C 0.69434 0.97816 0.06204 0.0
C2356 C 0.40291 0.46015 0.27387 0.0
C2357 C 0.38727 0.48953 0.26444 0.0
C2358 C 0.39219 0.43057 0.26238 0.0
C2359 C 0.36564 0.42962 0.24135 0.0
H2360 H 0.42266 0.46 0.29095 0.0
H2361 H 0.4037 0.40815 0.27108 0.0
S2362 S 0.32369 0.50129 0.20286 0.0
N2363 N 0.34968 0.51724 0.2278 0.0
N2364 N 0.32819 0.46109 0.20717 0.0
C2365 C 0.35224 0.45923 0.22926 0.0
C2366 C 0.3634 0.48943 0.24073 0.0
C2367 C 0.23252 0.63098 0.06942 0.0
C2368 C 0.22553 0.65352 0.04455 0.0
C2369 C 0.20713 0.61273 0.08412 0.0
C2370 C 0.17419 0.6171 0.07461 0.0
H2371 H 0.25795 0.62666 0.07684 0.0
H2372 H 0.21354 0.5937 0.10137 0.0
S2373 S 0.14221 0.67916 0.01668 0.0
N2374 N 0.18319 0.6834 0.01503 0.0
N2375 N 0.13482 0.64968 0.04338 0.0
C2376 C 0.16648 0.64212 0.05225 0.0
C2377 C 0.19239 0.66035 0.03706 0.0
C2378 C 0.69813 0.91149 0.30834 0.0
C2379 C 0.71051 0.9335 0.33039 0.0
C2380 C 0.71096 0.87941 0.30651 0.0
C2381 C 0.73655 0.8688 0.32654 0.0
H2382 H 0.68048 0.91969 0.29067 0.0
H2383 H 0.70317 0.86405 0.2873 0.0
S2384 S 0.7701 0.91344 0.39434 0.0
N2385 N 0.74394 0.93993 0.37752 0.0
N2386 N 0.76872 0.87958 0.37322 0.0
C2387 C 0.74593 0.88899 0.3513 0.0
C2388 C 0.73269 0.9215 0.35345 0.0
C2389 C 0.82094 0.15623 0.77826 0.0
C2390 C 0.83063 0.14082 0.80672 0.0
C2391 C 0.81467 0.1898 0.77721 0.0
C2392 C 0.81825 0.20885 0.80457 0.0
H2393 H 0.81936 0.14235 0.7564 0.0
H2394 H 0.80744 0.20094 0.75469 0.0
S2395 S 0.84213 0.17928 0.88515 0.0
N2396 N 0.84297 0.14599 0.86293 0.0
N2397 N 0.83077 0.20994 0.86124 0.0
C2398 C 0.8273 0.19359 0.83345 0.0
C2399 C 0.83341 0.15917 0.83451 0.0
loop_
_geom_bond_atom_site_label_1
_geom_bond_atom_site_label_2
_geom_bond_distance
_geom_bond_site_symmetry_2
_ccdc_geom_bond_type
Mn0 O5 2.095 . S
Mn0 O15 2.162 . S
Mn0 O16 2.297 . S
Mn0 O24 2.385 . S
Mn0 O25 2.209 . S
Mn0 O26 2.094 1_455 S
Mn1 O6 2.121 1_655 S
Mn1 N8 2.257 . S
Mn1 N17 2.282 . S
Mn1 O25 2.215 1_655 S
Mn1 O27 2.117 . S
C2 O24 1.234 . S
C2 O25 1.283 . S
C3 O15 1.281 . S
C3 O16 1.236 . S
C4 O26 1.240 . S
C4 O27 1.264 . S
O5 Mn0 2.095 . S
O5 C14 1.250 . S
O6 Mn1 2.121 1_455 S
O6 C14 1.258 . S
C7 N8 1.326 1_455 S
C7 C11 1.460 . S
C7 H13 0.929 . S
N8 Mn1 2.257 . S
N8 C7 1.326 1_655 S
N8 C12 1.362 . S
C9 C10 1.252 1_654 S
C9 C12 1.431 . S
C9 C29 1.449 . S
C10 C9 1.252 1_456 S
C10 C11 1.484 1_556 S
C10 H30 0.931 . S
C11 C7 1.460 . S
C11 C10 1.484 1_554 S
C11 H31 0.930 1_554 S
C12 N8 1.362 . S
C12 C9 1.431 . S
C12 C22 1.476 . S
H13 C7 0.929 . S
C14 O5 1.250 . S
C14 O6 1.258 . S
O15 Mn0 2.162 . S
O15 C3 1.281 . S
O16 Mn0 2.297 . S
O16 C3 1.236 . S
N17 Mn1 2.282 . S
N17 C18 1.328 . S
N17 C22 1.318 . S
C18 N17 1.328 . S
C18 C19 1.457 . S
C18 H23 0.929 . S
C19 C18 1.457 . S
C19 C20 1.291 . S
C19 H32 0.931 . S
C20 C19 1.291 . S
C20 C21 1.373 . S
C20 H33 0.929 . S
C21 C20 1.373 . S
C21 C22 1.396 . S
C21 C28 1.403 . S
C22 C12 1.476 . S
C22 N17 1.318 . S
C22 C21 1.396 . S
H23 C18 0.929 . S
O24 Mn0 2.385 . S
O24 C2 1.234 . S
O25 Mn0 2.209 . S
O25 Mn1 2.215 1_455 S
O25 C2 1.283 . S
O26 Mn0 2.094 1_655 S
O26 C4 1.240 . S
O27 Mn1 2.117 . S
O27 C4 1.264 . S
C28 C21 1.403 . S
C28 C29 1.399 . S
C28 H34 0.929 . S
C29 C9 1.449 . S
C29 C28 1.399 . S
C29 H35 0.930 1_554 S
H30 C10 0.931 . S
H31 C11 0.930 1_556 S
H32 C19 0.931 . S
H33 C20 0.929 . S
H34 C28 0.929 . S
H35 C29 0.930 1_556 S
Mn36 O41 2.095 . S
Mn36 O51 2.162 . S
Mn36 O52 2.297 . S
Mn36 O60 2.385 . S
Mn36 O61 2.209 . S
Mn36 O62 2.094 . S
Mn37 O42 2.121 . S
Mn37 N44 2.257 . S
Mn37 N53 2.282 1_455 S
Mn37 O61 2.215 . S
Mn37 O63 2.117 1_455 S
C38 O60 1.234 . S
C38 O61 1.283 . S
C39 O51 1.281 . S
C39 O52 1.236 . S
C40 O62 1.240 . S
C40 O63 1.264 1_455 S
O41 Mn36 2.095 . S
O41 C50 1.250 . S
O42 Mn37 2.121 . S
O42 C50 1.258 . S
C43 N44 1.326 . S
C43 C47 1.460 . S
C43 H49 0.929 . S
N44 Mn37 2.257 . S
N44 C43 1.326 . S
N44 C48 1.362 . S
C45 C46 1.258 . S
C45 C48 1.431 . S
C45 C65 1.449 1_455 S
C46 C45 1.258 . S
C46 C47 1.477 . S
C46 H66 0.931 . S
C47 C43 1.460 . S
C47 C46 1.477 . S
C47 H67 0.930 . S
C48 N44 1.362 . S
C48 C45 1.431 . S
C48 C58 1.476 1_455 S
H49 C43 0.929 . S
C50 O41 1.250 . S
C50 O42 1.258 . S
O51 Mn36 2.162 . S
O51 C39 1.281 . S
O52 Mn36 2.297 . S
O52 C39 1.236 . S
N53 Mn37 2.282 1_655 S
N53 C54 1.328 . S
N53 C58 1.318 . S
C54 N53 1.328 . S
C54 C55 1.457 . S
C54 H59 0.929 . S
C55 C54 1.457 . S
C55 C56 1.291 . S
C55 H68 0.931 . S
C56 C55 1.291 . S
C56 C57 1.373 . S
C56 H69 0.929 . S
C57 C56 1.373 . S
C57 C58 1.396 . S
C57 C64 1.403 . S
C58 C48 1.476 1_655 S
C58 N53 1.318 . S
C58 C57 1.396 . S
H59 C54 0.929 . S
O60 Mn36 2.385 . S
O60 C38 1.234 . S
O61 Mn36 2.209 . S
O61 Mn37 2.215 . S
O61 C38 1.283 . S
O62 Mn36 2.094 . S
O62 C40 1.240 . S
O63 Mn37 2.117 1_655 S
O63 C40 1.264 1_655 S
C64 C57 1.403 . S
C64 C65 1.399 . S
C64 H70 0.929 . S
C65 C45 1.449 1_655 S
C65 C64 1.399 . S
C65 H71 0.930 . S
H66 C46 0.931 . S
H67 C47 0.930 . S
H68 C55 0.931 . S
H69 C56 0.929 . S
H70 C64 0.929 . S
H71 C65 0.930 . S
Mn72 O77 2.095 . S
Mn72 O87 2.162 . S
Mn72 O88 2.297 . S
Mn72 O96 2.385 . S
Mn72 O97 2.209 . S
Mn72 O98 2.094 . S
Mn73 O78 2.121 . S
Mn73 N80 2.257 . S
Mn73 N89 2.282 . S
Mn73 O97 2.215 . S
Mn73 O99 2.117 . S
C74 O96 1.234 . S
C74 O97 1.283 . S
C75 O87 1.281 . S
C75 O88 1.236 . S
C76 O98 1.240 . S
C76 O99 1.264 . S
O77 Mn72 2.095 . S
O77 C86 1.250 . S
O78 Mn73 2.121 . S
O78 C86 1.258 . S
C79 N80 1.326 . S
C79 C83 1.460 . S
C79 H85 0.929 . S
N80 Mn73 2.257 . S
N80 C79 1.326 . S
N80 C84 1.362 . S
C81 C82 1.258 . S
C81 C84 1.431 . S
C81 C101 1.449 . S
C82 C81 1.258 . S
C82 C83 1.477 . S
C82 H102 0.931 . S
C83 C79 1.460 . S
C83 C82 1.477 . S
C83 H103 0.930 . S
C84 N80 1.362 . S
C84 C81 1.431 . S
C84 C94 1.476 . S
H85 C79 0.929 . S
C86 O77 1.250 . S
C86 O78 1.258 . S
O87 Mn72 2.162 . S
O87 C75 1.281 . S
O88 Mn72 2.297 . S
O88 C75 1.236 . S
N89 Mn73 2.282 . S
N89 C90 1.328 . S
N89 C94 1.318 . S
C90 N89 1.328 . S
C90 C91 1.457 . S
C90 H95 0.929 . S
C91 C90 1.457 . S
C91 C92 1.291 . S
C91 H104 0.931 . S
C92 C91 1.291 . S
C92 C93 1.373 . S
C92 H105 0.929 . S
C93 C92 1.373 . S
C93 C94 1.396 . S
C93 C100 1.403 . S
C94 C84 1.476 . S
C94 N89 1.318 . S
C94 C93 1.396 . S
H95 C90 0.929 . S
O96 Mn72 2.385 . S
O96 C74 1.234 . S
O97 Mn72 2.209 . S
O97 Mn73 2.215 . S
O97 C74 1.283 . S
O98 Mn72 2.094 . S
O98 C76 1.240 . S
O99 Mn73 2.117 . S
O99 C76 1.264 . S
C100 C93 1.403 . S
C100 C101 1.399 . S
C100 H106 0.929 . S
C101 C81 1.449 . S
C101 C100 1.399 . S
C101 H107 0.930 . S
H102 C82 0.931 . S
H103 C83 0.930 . S
H104 C91 0.931 . S
H105 C92 0.929 . S
H106 C100 0.929 . S
H107 C101 0.930 . S
Mn108 O113 2.095 . S
Mn108 O123 2.162 . S
Mn108 O124 2.297 . S
Mn108 O132 2.385 . S
Mn108 O133 2.209 . S
Mn108 O134 2.094 . S
Mn109 O114 2.121 . S
Mn109 N116 2.257 1_556 S
Mn109 N125 2.282 . S
Mn109 O133 2.215 . S
Mn109 O135 2.117 . S
C110 O132 1.234 . S
C110 O133 1.283 . S
C111 O123 1.281 . S
C111 O124 1.236 . S
C112 O134 1.240 . S
C112 O135 1.264 . S
O113 Mn108 2.095 . S
O113 C122 1.250 . S
O114 Mn109 2.121 . S
O114 C122 1.258 . S
C115 N116 1.326 . S
C115 C119 1.460 . S
C115 H121 0.929 . S
N116 Mn109 2.257 1_554 S
N116 C115 1.326 . S
N116 C120 1.362 . S
C117 C118 1.258 . S
C117 C120 1.431 . S
C117 C137 1.449 . S
C118 C117 1.258 . S
C118 C119 1.477 . S
C118 H138 0.931 . S
C119 C115 1.460 . S
C119 C118 1.477 . S
C119 H139 0.930 . S
C120 N116 1.362 . S
C120 C117 1.431 . S
C120 C130 1.476 1_554 S
H121 C115 0.929 . S
C122 O113 1.250 . S
C122 O114 1.258 . S
O123 Mn108 2.162 . S
O123 C111 1.281 . S
O124 Mn108 2.297 . S
O124 C111 1.236 . S
N125 Mn109 2.282 . S
N125 C126 1.328 . S
N125 C130 1.318 . S
C126 N125 1.328 . S
C126 C127 1.457 . S
C126 H131 0.929 . S
C127 C126 1.457 . S
C127 C128 1.291 . S
C127 H140 0.931 . S
C128 C127 1.291 . S
C128 C129 1.373 1_556 S
C128 H141 0.929 . S
C129 C128 1.373 1_554 S
C129 C130 1.396 1_554 S
C129 C136 1.403 . S
C130 C120 1.476 1_556 S
C130 N125 1.318 . S
C130 C129 1.396 1_556 S
H131 C126 0.929 . S
O132 Mn108 2.385 . S
O132 C110 1.234 . S
O133 Mn108 2.209 . S
O133 Mn109 2.215 . S
O133 C110 1.283 . S
O134 Mn108 2.094 . S
O134 C112 1.240 . S
O135 Mn109 2.117 . S
O135 C112 1.264 . S
C136 C129 1.403 . S
C136 C137 1.399 . S
C136 H142 0.929 . S
C137 C117 1.449 . S
C137 C136 1.399 . S
C137 H143 0.930 . S
H138 C118 0.931 . S
H139 C119 0.930 . S
H140 C127 0.931 . S
H141 C128 0.929 . S
H142 C136 0.929 . S
H143 C137 0.930 . S
Mn144 O149 2.095 1_545 S
Mn144 O159 2.162 . S
Mn144 O160 2.297 . S
Mn144 O168 2.385 . S
Mn144 O169 2.209 . S
Mn144 O170 2.094 . S
Mn145 O150 2.121 1_545 S
Mn145 N152 2.257 . S
Mn145 N161 2.282 . S
Mn145 O169 2.215 . S
Mn145 O171 2.117 . S
C146 O168 1.234 . S
C146 O169 1.283 . S
C147 O159 1.281 . S
C147 O160 1.236 . S
C148 O170 1.240 . S
C148 O171 1.264 . S
O149 Mn144 2.095 1_565 S
O149 C158 1.250 . S
O150 Mn145 2.121 1_565 S
O150 C158 1.258 . S
C151 N152 1.326 . S
C151 C155 1.460 . S
C151 H157 0.929 1_545 S
N152 Mn145 2.257 . S
N152 C151 1.326 . S
N152 C156 1.362 . S
C153 C154 1.258 . S
C153 C156 1.431 . S
C153 C173 1.449 . S
C154 C153 1.258 . S
C154 C155 1.477 . S
C154 H174 0.931 . S
C155 C151 1.460 . S
C155 C154 1.477 . S
C155 H175 0.930 1_545 S
C156 N152 1.362 . S
C156 C153 1.431 . S
C156 C166 1.476 . S
H157 C151 0.929 1_565 S
C158 O149 1.250 . S
C158 O150 1.258 . S
O159 Mn144 2.162 . S
O159 C147 1.281 . S
O160 Mn144 2.297 . S
O160 C147 1.236 . S
N161 Mn145 2.282 . S
N161 C162 1.328 . S
N161 C166 1.318 . S
C162 N161 1.328 . S
C162 C163 1.457 . S
C162 H167 0.929 . S
C163 C162 1.457 . S
C163 C164 1.291 . S
C163 H176 0.931 . S
C164 C163 1.291 . S
C164 C165 1.373 . S
C164 H177 0.929 . S
C165 C164 1.373 . S
C165 C166 1.396 . S
C165 C172 1.403 . S
C166 C156 1.476 . S
C166 N161 1.318 . S
C166 C165 1.396 . S
H167 C162 0.929 . S
O168 Mn144 2.385 . S
O168 C146 1.234 . S
O169 Mn144 2.209 . S
O169 Mn145 2.215 . S
O169 C146 1.283 . S
O170 Mn144 2.094 . S
O170 C148 1.240 . S
O171 Mn145 2.117 . S
O171 C148 1.264 . S
C172 C165 1.403 . S
C172 C173 1.399 . S
C172 H178 0.929 . S
C173 C153 1.449 . S
C173 C172 1.399 . S
C173 H179 0.930 . S
H174 C154 0.931 . S
H175 C155 0.930 1_565 S
H176 C163 0.931 . S
H177 C164 0.929 . S
H178 C172 0.929 . S
H179 C173 0.930 . S
Mn180 O185 2.095 . S
Mn180 O195 2.162 . S
Mn180 O196 2.297 . S
Mn180 O204 2.385 . S
Mn180 O205 2.209 . S
Mn180 O206 2.094 . S
Mn181 O186 2.121 . S
Mn181 N188 2.257 1_565 S
Mn181 N197 2.282 . S
Mn181 O205 2.215 . S
Mn181 O207 2.117 . S
C182 O204 1.234 . S
C182 O205 1.283 . S
C183 O195 1.281 . S
C183 O196 1.236 . S
C184 O206 1.240 . S
C184 O207 1.264 . S
O185 Mn180 2.095 . S
O185 C194 1.250 . S
O186 Mn181 2.121 . S
O186 C194 1.258 . S
C187 N188 1.326 . S
C187 C191 1.460 . S
C187 H193 0.929 . S
N188 Mn181 2.257 1_545 S
N188 C187 1.326 . S
N188 C192 1.362 . S
C189 C190 1.258 . S
C189 C192 1.431 . S
C189 C209 1.449 . S
C190 C189 1.258 . S
C190 C191 1.477 . S
C190 H210 0.931 . S
C191 C187 1.460 . S
C191 C190 1.477 . S
C191 H211 0.930 . S
C192 N188 1.362 . S
C192 C189 1.431 . S
C192 C202 1.476 . S
H193 C187 0.929 . S
C194 O185 1.250 . S
C194 O186 1.258 . S
O195 Mn180 2.162 . S
O195 C183 1.281 . S
O196 Mn180 2.297 . S
O196 C183 1.236 . S
N197 Mn181 2.282 . S
N197 C198 1.328 . S
N197 C202 1.318 1_565 S
C198 N197 1.328 . S
C198 C199 1.457 . S
C198 H203 0.929 . S
C199 C198 1.457 . S
C199 C200 1.291 . S
C199 H212 0.931 . S
C200 C199 1.291 . S
C200 C201 1.373 1_565 S
C200 H213 0.929 . S
C201 C200 1.373 1_545 S
C201 C202 1.396 . S
C201 C208 1.403 . S
C202 C192 1.476 . S
C202 N197 1.318 1_545 S
C202 C201 1.396 . S
H203 C198 0.929 . S
O204 Mn180 2.385 . S
O204 C182 1.234 . S
O205 Mn180 2.209 . S
O205 Mn181 2.215 . S
O205 C182 1.283 . S
O206 Mn180 2.094 . S
O206 C184 1.240 . S
O207 Mn181 2.117 . S
O207 C184 1.264 . S
C208 C201 1.403 . S
C208 C209 1.399 . S
C208 H214 0.929 . S
C209 C189 1.449 . S
C209 C208 1.399 . S
C209 H215 0.930 . S
H210 C190 0.931 . S
H211 C191 0.930 . S
H212 C199 0.931 . S
H213 C200 0.929 . S
H214 C208 0.929 . S
H215 C209 0.930 . S
Mn216 O221 2.095 . S
Mn216 O231 2.162 . S
Mn216 O232 2.297 . S
Mn216 O240 2.385 . S
Mn216 O241 2.209 . S
Mn216 O242 2.094 . S
Mn217 O222 2.121 . S
Mn217 N224 2.257 . S
Mn217 N233 2.282 . S
Mn217 O241 2.215 . S
Mn217 O243 2.117 . S
C218 O240 1.234 . S
C218 O241 1.283 . S
C219 O231 1.281 . S
C219 O232 1.236 . S
C220 O242 1.240 . S
C220 O243 1.264 . S
O221 Mn216 2.095 . S
O221 C230 1.250 . S
O222 Mn217 2.121 . S
O222 C230 1.258 . S
C223 N224 1.326 . S
C223 C227 1.460 . S
C223 H229 0.929 . S
N224 Mn217 2.257 . S
N224 C223 1.326 . S
N224 C228 1.362 . S
C225 C226 1.258 . S
C225 C228 1.431 . S
C225 C245 1.449 1_545 S
C226 C225 1.258 . S
C226 C227 1.477 . S
C226 H246 0.931 . S
C227 C223 1.460 . S
C227 C226 1.477 . S
C227 H247 0.930 . S
C228 N224 1.362 . S
C228 C225 1.431 . S
C228 C238 1.476 . S
H229 C223 0.929 . S
C230 O221 1.250 . S
C230 O222 1.258 . S
O231 Mn216 2.162 . S
O231 C219 1.281 . S
O232 Mn216 2.297 . S
O232 C219 1.236 . S
N233 Mn217 2.282 . S
N233 C234 1.328 . S
N233 C238 1.318 . S
C234 N233 1.328 . S
C234 C235 1.457 1_545 S
C234 H239 0.929 . S
C235 C234 1.457 1_565 S
C235 C236 1.291 . S
C235 H248 0.931 . S
C236 C235 1.291 . S
C236 C237 1.373 . S
C236 H249 0.929 . S
C237 C236 1.373 . S
C237 C238 1.396 1_565 S
C237 C244 1.403 . S
C238 C228 1.476 . S
C238 N233 1.318 . S
C238 C237 1.396 1_545 S
H239 C234 0.929 . S
O240 Mn216 2.385 . S
O240 C218 1.234 . S
O241 Mn216 2.209 . S
O241 Mn217 2.215 . S
O241 C218 1.283 . S
O242 Mn216 2.094 . S
O242 C220 1.240 . S
O243 Mn217 2.117 . S
O243 C220 1.264 . S
C244 C237 1.403 . S
C244 C245 1.399 . S
C244 H250 0.929 . S
C245 C225 1.449 1_565 S
C245 C244 1.399 . S
C245 H251 0.930 . S
H246 C226 0.931 . S
H247 C227 0.930 . S
H248 C235 0.931 . S
H249 C236 0.929 . S
H250 C244 0.929 . S
H251 C245 0.930 . S
Mn252 O257 2.095 . S
Mn252 O267 2.162 . S
Mn252 O268 2.297 . S
Mn252 O276 2.385 . S
Mn252 O277 2.209 . S
Mn252 O278 2.068 1_554 S
Mn253 O258 2.121 1_556 S
Mn253 N260 2.257 . S
Mn253 N269 2.282 . S
Mn253 O277 2.215 1_556 S
Mn253 O279 2.117 . S
C254 O276 1.234 . S
C254 O277 1.283 . S
C255 O267 1.281 . S
C255 O268 1.236 . S
C256 O278 1.269 . S
C256 O279 1.264 . S
O257 Mn252 2.095 . S
O257 C266 1.250 . S
O258 Mn253 2.121 1_554 S
O258 C266 1.258 . S
C259 N260 1.326 1_554 S
C259 C263 1.460 . S
C259 H265 0.929 . S
N260 Mn253 2.257 . S
N260 C259 1.326 1_556 S
N260 C264 1.362 . S
C261 C262 1.258 1_545 S
C261 C264 1.431 . S
C261 C281 1.449 . S
C262 C261 1.258 1_565 S
C262 C263 1.477 1_566 S
C262 H282 0.931 . S
C263 C259 1.460 . S
C263 C262 1.477 1_544 S
C263 H283 0.930 1_545 S
C264 N260 1.362 . S
C264 C261 1.431 . S
C264 C274 1.476 . S
H265 C259 0.929 . S
C266 O257 1.250 . S
C266 O258 1.258 . S
O267 Mn252 2.162 . S
O267 C255 1.281 . S
O268 Mn252 2.297 . S
O268 C255 1.236 . S
N269 Mn253 2.282 . S
N269 C270 1.328 . S
N269 C274 1.318 . S
C270 N269 1.328 . S
C270 C271 1.457 . S
C270 H275 0.929 . S
C271 C270 1.457 . S
C271 C272 1.291 . S
C271 H284 0.931 . S
C272 C271 1.291 . S
C272 C273 1.373 . S
C272 H285 0.929 . S
C273 C272 1.373 . S
C273 C274 1.396 . S
C273 C280 1.403 . S
C274 C264 1.476 . S
C274 N269 1.318 . S
C274 C273 1.396 . S
H275 C270 0.929 . S
O276 Mn252 2.385 . S
O276 C254 1.234 . S
O277 Mn252 2.209 . S
O277 Mn253 2.215 1_554 S
O277 C254 1.283 . S
O278 Mn252 2.068 1_556 S
O278 C256 1.269 . S
O279 Mn253 2.117 . S
O279 C256 1.264 . S
C280 C273 1.403 . S
C280 C281 1.399 . S
C280 H286 0.929 . S
C281 C261 1.449 . S
C281 C280 1.399 . S
C281 H287 0.930 1_545 S
H282 C262 0.931 . S
H283 C263 0.930 1_565 S
H284 C271 0.931 . S
H285 C272 0.929 . S
H286 C280 0.929 . S
H287 C281 0.930 1_565 S
Mn288 O293 2.095 . S
Mn288 O303 2.162 . S
Mn288 O304 2.297 . S
Mn288 O312 2.385 . S
Mn288 O313 2.209 . S
Mn288 O314 2.094 . S
Mn289 O294 2.121 . S
Mn289 N296 2.257 . S
Mn289 N305 2.282 1_554 S
Mn289 O313 2.215 . S
Mn289 O315 2.117 1_554 S
C290 O312 1.234 . S
C290 O313 1.283 . S
C291 O303 1.281 . S
C291 O304 1.236 . S
C292 O314 1.240 . S
C292 O315 1.264 1_554 S
O293 Mn288 2.095 . S
O293 C302 1.250 . S
O294 Mn289 2.121 . S
O294 C302 1.258 . S
C295 N296 1.326 . S
C295 C299 1.460 . S
C295 H301 0.929 . S
N296 Mn289 2.257 . S
N296 C295 1.326 . S
N296 C300 1.362 . S
C297 C298 1.258 . S
C297 C300 1.431 . S
C297 C317 1.449 1_554 S
C298 C297 1.258 . S
C298 C299 1.477 . S
C298 H318 0.931 . S
C299 C295 1.460 . S
C299 C298 1.477 . S
C299 H319 0.930 . S
C300 N296 1.362 . S
C300 C297 1.431 . S
C300 C310 1.476 1_554 S
H301 C295 0.929 . S
C302 O293 1.250 . S
C302 O294 1.258 . S
O303 Mn288 2.162 . S
O303 C291 1.281 . S
O304 Mn288 2.297 . S
O304 C291 1.236 . S
N305 Mn289 2.282 1_556 S
N305 C306 1.328 . S
N305 C310 1.318 . S
C306 N305 1.328 . S
C306 C307 1.457 . S
C306 H311 0.929 . S
C307 C306 1.457 . S
C307 C308 1.291 . S
C307 H320 0.931 . S
C308 C307 1.291 . S
C308 C309 1.373 . S
C308 H321 0.929 . S
C309 C308 1.373 . S
C309 C310 1.396 . S
C309 C316 1.403 . S
C310 C300 1.476 1_556 S
C310 N305 1.318 . S
C310 C309 1.396 . S
H311 C306 0.929 . S
O312 Mn288 2.385 . S
O312 C290 1.234 . S
O313 Mn288 2.209 . S
O313 Mn289 2.215 . S
O313 C290 1.283 . S
O314 Mn288 2.094 . S
O314 C292 1.240 . S
O315 Mn289 2.117 1_556 S
O315 C292 1.264 1_556 S
C316 C309 1.403 . S
C316 C317 1.399 . S
C316 H322 0.929 . S
C317 C297 1.449 1_556 S
C317 C316 1.399 . S
C317 H323 0.930 . S
H318 C298 0.931 . S
H319 C299 0.930 . S
H320 C307 0.931 . S
H321 C308 0.929 . S
H322 C316 0.929 . S
H323 C317 0.930 . S
Mn324 O329 2.095 . S
Mn324 O339 2.162 . S
Mn324 O340 2.297 . S
Mn324 O348 2.385 . S
Mn324 O349 2.209 . S
Mn324 O350 2.094 . S
Mn325 O330 2.121 . S
Mn325 N332 2.257 . S
Mn325 N341 2.282 . S
Mn325 O349 2.215 . S
Mn325 O351 2.117 . S
C326 O348 1.234 . S
C326 O349 1.283 . S
C327 O339 1.281 . S
C327 O340 1.236 . S
C328 O350 1.240 . S
C328 O351 1.264 . S
O329 Mn324 2.095 . S
O329 C338 1.250 . S
O330 Mn325 2.121 . S
O330 C338 1.258 . S
C331 N332 1.326 . S
C331 C335 1.460 . S
C331 H337 0.929 . S
N332 Mn325 2.257 . S
N332 C331 1.326 . S
N332 C336 1.362 . S
C333 C334 1.258 . S
C333 C336 1.431 . S
C333 C353 1.449 . S
C334 C333 1.258 . S
C334 C335 1.477 . S
C334 H354 0.931 . S
C335 C331 1.460 . S
C335 C334 1.477 . S
C335 H355 0.930 . S
C336 N332 1.362 . S
C336 C333 1.431 . S
C336 C346 1.476 . S
H337 C331 0.929 . S
C338 O329 1.250 . S
C338 O330 1.258 . S
O339 Mn324 2.162 . S
O339 C327 1.281 . S
O340 Mn324 2.297 . S
O340 C327 1.236 . S
N341 Mn325 2.282 . S
N341 C342 1.328 . S
N341 C346 1.318 . S
C342 N341 1.328 . S
C342 C343 1.457 . S
C342 H347 0.929 . S
C343 C342 1.457 . S
C343 C344 1.291 . S
C343 H356 0.931 . S
C344 C343 1.291 . S
C344 C345 1.373 . S
C344 H357 0.929 . S
C345 C344 1.373 . S
C345 C346 1.396 . S
C345 C352 1.403 . S
C346 C336 1.476 . S
C346 N341 1.318 . S
C346 C345 1.396 . S
H347 C342 0.929 . S
O348 Mn324 2.385 . S
O348 C326 1.234 . S
O349 Mn324 2.209 . S
O349 Mn325 2.215 . S
O349 C326 1.283 . S
O350 Mn324 2.094 . S
O350 C328 1.240 . S
O351 Mn325 2.117 . S
O351 C328 1.264 . S
C352 C345 1.403 . S
C352 C353 1.399 . S
C352 H358 0.929 . S
C353 C333 1.449 . S
C353 C352 1.399 . S
C353 H359 0.930 . S
H354 C334 0.931 . S
H355 C335 0.930 . S
H356 C343 0.931 . S
H357 C344 0.929 . S
H358 C352 0.929 . S
H359 C353 0.930 . S
Mn360 O365 2.095 . S
Mn360 O375 2.162 . S
Mn360 O376 2.297 . S
Mn360 O384 2.385 . S
Mn360 O385 2.209 . S
Mn360 O386 2.094 . S
Mn361 O366 2.121 . S
Mn361 N368 2.257 . S
Mn361 N377 2.282 . S
Mn361 O385 2.215 . S
Mn361 O387 2.117 . S
C362 O384 1.234 . S
C362 O385 1.283 . S
C363 O375 1.281 . S
C363 O376 1.236 . S
C364 O386 1.240 . S
C364 O387 1.264 . S
O365 Mn360 2.095 . S
O365 C374 1.250 . S
O366 Mn361 2.121 . S
O366 C374 1.258 . S
C367 N368 1.326 . S
C367 C371 1.460 . S
C367 H373 0.929 . S
N368 Mn361 2.257 . S
N368 C367 1.326 . S
N368 C372 1.362 . S
C369 C370 1.258 . S
C369 C372 1.431 . S
C369 C389 1.449 . S
C370 C369 1.258 . S
C370 C371 1.477 . S
C370 H390 0.931 . S
C371 C367 1.460 . S
C371 C370 1.477 . S
C371 H391 0.930 . S
C372 N368 1.362 . S
C372 C369 1.431 . S
C372 C382 1.476 . S
H373 C367 0.929 . S
C374 O365 1.250 . S
C374 O366 1.258 . S
O375 Mn360 2.162 . S
O375 C363 1.281 . S
O376 Mn360 2.297 . S
O376 C363 1.236 . S
N377 Mn361 2.282 . S
N377 C378 1.328 . S
N377 C382 1.318 . S
C378 N377 1.328 . S
C378 C379 1.457 . S
C378 H383 0.929 . S
C379 C378 1.457 . S
C379 C380 1.291 . S
C379 H392 0.931 . S
C380 C379 1.291 . S
C380 C381 1.373 . S
C380 H393 0.929 . S
C381 C380 1.373 . S
C381 C382 1.396 . S
C381 C388 1.403 . S
C382 C372 1.476 . S
C382 N377 1.318 . S
C382 C381 1.396 . S
H383 C378 0.929 . S
O384 Mn360 2.385 . S
O384 C362 1.234 . S
O385 Mn360 2.209 . S
O385 Mn361 2.215 . S
O385 C362 1.283 . S
O386 Mn360 2.094 . S
O386 C364 1.240 . S
O387 Mn361 2.117 . S
O387 C364 1.264 . S
C388 C381 1.403 . S
C388 C389 1.399 . S
C388 H394 0.929 . S
C389 C369 1.449 . S
C389 C388 1.399 . S
C389 H395 0.930 . S
H390 C370 0.931 . S
H391 C371 0.930 . S
H392 C379 0.931 . S
H393 C380 0.929 . S
H394 C388 0.929 . S
H395 C389 0.930 . S
Mn396 O401 2.095 . S
Mn396 O411 2.162 . S
Mn396 O412 2.297 . S
Mn396 O420 2.385 . S
Mn396 O421 2.209 . S
Mn396 O422 2.094 . S
Mn397 O402 2.121 . S
Mn397 N404 2.257 . S
Mn397 N413 2.282 . S
Mn397 O421 2.215 . S
Mn397 O423 2.117 . S
C398 O420 1.234 . S
C398 O421 1.283 . S
C399 O411 1.281 . S
C399 O412 1.236 . S
C400 O422 1.240 . S
C400 O423 1.264 . S
O401 Mn396 2.095 . S
O401 C410 1.250 . S
O402 Mn397 2.121 . S
O402 C410 1.258 . S
C403 N404 1.326 . S
C403 C407 1.460 . S
C403 H409 0.929 . S
N404 Mn397 2.257 . S
N404 C403 1.326 . S
N404 C408 1.362 . S
C405 C406 1.258 . S
C405 C408 1.431 . S
C405 C425 1.449 . S
C406 C405 1.258 . S
C406 C407 1.477 . S
C406 H426 0.931 . S
C407 C403 1.460 . S
C407 C406 1.477 . S
C407 H427 0.930 . S
C408 N404 1.362 . S
C408 C405 1.431 . S
C408 C418 1.476 . S
H409 C403 0.929 . S
C410 O401 1.250 . S
C410 O402 1.258 . S
O411 Mn396 2.162 . S
O411 C399 1.281 . S
O412 Mn396 2.297 . S
O412 C399 1.236 . S
N413 Mn397 2.282 . S
N413 C414 1.328 . S
N413 C418 1.318 . S
C414 N413 1.328 . S
C414 C415 1.457 . S
C414 H419 0.929 . S
C415 C414 1.457 . S
C415 C416 1.291 . S
C415 H428 0.931 . S
C416 C415 1.291 . S
C416 C417 1.373 . S
C416 H429 0.929 . S
C417 C416 1.373 . S
C417 C418 1.396 . S
C417 C424 1.403 . S
C418 C408 1.476 . S
C418 N413 1.318 . S
C418 C417 1.396 . S
H419 C414 0.929 . S
O420 Mn396 2.385 . S
O420 C398 1.234 . S
O421 Mn396 2.209 . S
O421 Mn397 2.215 . S
O421 C398 1.283 . S
O422 Mn396 2.094 . S
O422 C400 1.240 . S
O423 Mn397 2.117 . S
O423 C400 1.264 . S
C424 C417 1.403 . S
C424 C425 1.399 . S
C424 H430 0.929 . S
C425 C405 1.449 . S
C425 C424 1.399 . S
C425 H431 0.930 . S
H426 C406 0.931 . S
H427 C407 0.930 . S
H428 C415 0.931 . S
H429 C416 0.929 . S
H430 C424 0.929 . S
H431 C425 0.930 . S
Mn432 O437 2.095 . S
Mn432 O447 2.162 . S
Mn432 O448 2.297 . S
Mn432 O456 2.385 . S
Mn432 O457 2.209 . S
Mn432 O458 2.094 1_455 S
Mn433 O438 2.121 1_655 S
Mn433 N440 2.257 1_556 S
Mn433 N449 2.282 . S
Mn433 O457 2.215 1_655 S
Mn433 O459 2.117 . S
C434 O456 1.234 . S
C434 O457 1.283 . S
C435 O447 1.281 . S
C435 O448 1.236 . S
C436 O458 1.240 . S
C436 O459 1.264 . S
O437 Mn432 2.095 . S
O437 C446 1.250 . S
O438 Mn433 2.121 1_455 S
O438 C446 1.258 . S
C439 N440 1.326 . S
C439 C443 1.460 . S
C439 H445 0.929 1_655 S
N440 Mn433 2.257 1_554 S
N440 C439 1.326 . S
N440 C444 1.362 . S
C441 C442 1.258 . S
C441 C444 1.431 . S
C441 C461 1.449 . S
C442 C441 1.258 . S
C442 C443 1.477 . S
C442 H462 0.931 . S
C443 C439 1.460 . S
C443 C442 1.477 . S
C443 H463 0.930 1_655 S
C444 N440 1.362 . S
C444 C441 1.431 . S
C444 C454 1.476 1_554 S
H445 C439 0.929 1_455 S
C446 O437 1.250 . S
C446 O438 1.258 . S
O447 Mn432 2.162 . S
O447 C435 1.281 . S
O448 Mn432 2.297 . S
O448 C435 1.236 . S
N449 Mn433 2.282 . S
N449 C450 1.328 . S
N449 C454 1.318 . S
C450 N449 1.328 . S
C450 C451 1.457 . S
C450 H455 0.929 . S
C451 C450 1.457 . S
C451 C452 1.291 . S
C451 H464 0.931 . S
C452 C451 1.291 . S
C452 C453 1.373 1_556 S
C452 H465 0.929 . S
C453 C452 1.373 1_554 S
C453 C454 1.396 1_554 S
C453 C460 1.403 . S
C454 C444 1.476 1_556 S
C454 N449 1.318 . S
C454 C453 1.396 1_556 S
H455 C450 0.929 . S
O456 Mn432 2.385 . S
O456 C434 1.234 . S
O457 Mn432 2.209 . S
O457 Mn433 2.215 1_455 S
O457 C434 1.283 . S
O458 Mn432 2.094 1_655 S
O458 C436 1.240 . S
O459 Mn433 2.117 . S
O459 C436 1.264 . S
C460 C453 1.403 . S
C460 C461 1.399 . S
C460 H466 0.929 . S
C461 C441 1.449 . S
C461 C460 1.399 . S
C461 H467 0.930 . S
H462 C442 0.931 . S
H463 C443 0.930 1_455 S
H464 C451 0.931 . S
H465 C452 0.929 . S
H466 C460 0.929 . S
H467 C461 0.930 . S
Mn468 O473 2.095 1_455 S
Mn468 O483 2.162 . S
Mn468 O484 2.297 . S
Mn468 O492 2.385 . S
Mn468 O493 2.209 1_455 S
Mn468 O494 2.094 1_455 S
Mn469 O474 2.121 . S
Mn469 N476 2.257 . S
Mn469 N485 2.282 . S
Mn469 O493 2.215 . S
Mn469 O495 2.117 . S
C470 O492 1.234 . S
C470 O493 1.283 1_455 S
C471 O483 1.281 . S
C471 O484 1.236 . S
C472 O494 1.240 . S
C472 O495 1.264 . S
O473 Mn468 2.095 1_655 S
O473 C482 1.250 . S
O474 Mn469 2.121 . S
O474 C482 1.258 . S
C475 N476 1.326 . S
C475 C479 1.460 . S
C475 H481 0.929 . S
N476 Mn469 2.257 . S
N476 C475 1.326 . S
N476 C480 1.362 . S
C477 C478 1.258 . S
C477 C480 1.431 . S
C477 C497 1.449 . S
C478 C477 1.258 . S
C478 C479 1.477 . S
C478 H498 0.931 . S
C479 C475 1.460 . S
C479 C478 1.477 . S
C479 H499 0.930 . S
C480 N476 1.362 . S
C480 C477 1.431 . S
C480 C490 1.476 . S
H481 C475 0.929 . S
C482 O473 1.250 . S
C482 O474 1.258 . S
O483 Mn468 2.162 . S
O483 C471 1.281 . S
O484 Mn468 2.297 . S
O484 C471 1.236 . S
N485 Mn469 2.282 . S
N485 C486 1.328 . S
N485 C490 1.318 . S
C486 N485 1.328 . S
C486 C487 1.457 . S
C486 H491 0.929 . S
C487 C486 1.457 . S
C487 C488 1.291 . S
C487 H500 0.931 . S
C488 C487 1.291 . S
C488 C489 1.373 . S
C488 H501 0.929 . S
C489 C488 1.373 . S
C489 C490 1.396 . S
C489 C496 1.403 . S
C490 C480 1.476 . S
C490 N485 1.318 . S
C490 C489 1.396 . S
H491 C486 0.929 . S
O492 Mn468 2.385 . S
O492 C470 1.234 . S
O493 Mn468 2.209 1_655 S
O493 Mn469 2.215 . S
O493 C470 1.283 1_655 S
O494 Mn468 2.094 1_655 S
O494 C472 1.240 . S
O495 Mn469 2.117 . S
O495 C472 1.264 . S
C496 C489 1.403 . S
C496 C497 1.399 . S
C496 H502 0.929 . S
C497 C477 1.449 . S
C497 C496 1.399 . S
C497 H503 0.930 . S
H498 C478 0.931 . S
H499 C479 0.930 . S
H500 C487 0.931 . S
H501 C488 0.929 . S
H502 C496 0.929 . S
H503 C497 0.930 . S
Mn504 O509 2.095 . S
Mn504 O519 2.162 . S
Mn504 O520 2.297 . S
Mn504 O528 2.385 . S
Mn504 O529 2.209 . S
Mn504 O530 2.094 . S
Mn505 O510 2.121 . S
Mn505 N512 2.257 . S
Mn505 N521 2.282 . S
Mn505 O529 2.215 . S
Mn505 O531 2.117 . S
C506 O528 1.234 . S
C506 O529 1.283 . S
C507 O519 1.281 . S
C507 O520 1.236 . S
C508 O530 1.240 . S
C508 O531 1.264 . S
O509 Mn504 2.095 . S
O509 C518 1.250 . S
O510 Mn505 2.121 . S
O510 C518 1.258 . S
C511 N512 1.326 . S
C511 C515 1.460 . S
C511 H517 0.929 . S
N512 Mn505 2.257 . S
N512 C511 1.326 . S
N512 C516 1.362 . S
C513 C514 1.258 . S
C513 C516 1.431 . S
C513 C533 1.449 . S
C514 C513 1.258 . S
C514 C515 1.477 . S
C514 H534 0.931 . S
C515 C511 1.460 . S
C515 C514 1.477 . S
C515 H535 0.930 . S
C516 N512 1.362 . S
C516 C513 1.431 . S
C516 C526 1.476 . S
H517 C511 0.929 . S
C518 O509 1.250 . S
C518 O510 1.258 . S
O519 Mn504 2.162 . S
O519 C507 1.281 . S
O520 Mn504 2.297 . S
O520 C507 1.236 . S
N521 Mn505 2.282 . S
N521 C522 1.328 . S
N521 C526 1.318 . S
C522 N521 1.328 . S
C522 C523 1.457 . S
C522 H527 0.929 . S
C523 C522 1.457 . S
C523 C524 1.291 . S
C523 H536 0.931 . S
C524 C523 1.291 . S
C524 C525 1.373 . S
C524 H537 0.929 . S
C525 C524 1.373 . S
C525 C526 1.396 . S
C525 C532 1.403 . S
C526 C516 1.476 . S
C526 N521 1.318 . S
C526 C525 1.396 . S
H527 C522 0.929 . S
O528 Mn504 2.385 . S
O528 C506 1.234 . S
O529 Mn504 2.209 . S
O529 Mn505 2.215 . S
O529 C506 1.283 . S
O530 Mn504 2.094 . S
O530 C508 1.240 . S
O531 Mn505 2.117 . S
O531 C508 1.264 . S
C532 C525 1.403 . S
C532 C533 1.399 . S
C532 H538 0.929 . S
C533 C513 1.449 . S
C533 C532 1.399 . S
C533 H539 0.930 . S
H534 C514 0.931 . S
H535 C515 0.930 . S
H536 C523 0.931 . S
H537 C524 0.929 . S
H538 C532 0.929 . S
H539 C533 0.930 . S
Mn540 O545 2.095 . S
Mn540 O555 2.162 . S
Mn540 O556 2.297 . S
Mn540 O564 2.385 . S
Mn540 O565 2.209 . S
Mn540 O566 2.094 . S
Mn541 O546 2.121 . S
Mn541 N548 2.257 . S
Mn541 N557 2.282 . S
Mn541 O565 2.215 . S
Mn541 O567 2.117 . S
C542 O564 1.234 . S
C542 O565 1.283 . S
C543 O555 1.281 . S
C543 O556 1.236 . S
C544 O566 1.240 . S
C544 O567 1.264 . S
O545 Mn540 2.095 . S
O545 C554 1.250 . S
O546 Mn541 2.121 . S
O546 C554 1.258 . S
C547 N548 1.326 . S
C547 C551 1.460 . S
C547 H553 0.929 . S
N548 Mn541 2.257 . S
N548 C547 1.326 . S
N548 C552 1.362 . S
C549 C550 1.258 1_554 S
C549 C552 1.431 . S
C549 C569 1.449 . S
C550 C549 1.258 1_556 S
C550 C551 1.477 1_556 S
C550 H570 0.931 . S
C551 C547 1.460 . S
C551 C550 1.477 1_554 S
C551 H571 0.930 1_554 S
C552 N548 1.362 . S
C552 C549 1.431 . S
C552 C562 1.476 . S
H553 C547 0.929 . S
C554 O545 1.250 . S
C554 O546 1.258 . S
O555 Mn540 2.162 . S
O555 C543 1.281 . S
O556 Mn540 2.297 . S
O556 C543 1.236 . S
N557 Mn541 2.282 . S
N557 C558 1.328 . S
N557 C562 1.318 . S
C558 N557 1.328 . S
C558 C559 1.457 . S
C558 H563 0.929 . S
C559 C558 1.457 . S
C559 C560 1.291 . S
C559 H572 0.931 . S
C560 C559 1.291 . S
C560 C561 1.373 . S
C560 H573 0.929 . S
C561 C560 1.373 . S
C561 C562 1.396 . S
C561 C568 1.403 . S
C562 C552 1.476 . S
C562 N557 1.318 . S
C562 C561 1.396 . S
H563 C558 0.929 . S
O564 Mn540 2.385 . S
O564 C542 1.234 . S
O565 Mn540 2.209 . S
O565 Mn541 2.215 . S
O565 C542 1.283 . S
O566 Mn540 2.094 . S
O566 C544 1.240 . S
O567 Mn541 2.117 . S
O567 C544 1.264 . S
C568 C561 1.403 . S
C568 C569 1.399 . S
C568 H574 0.929 . S
C569 C549 1.449 . S
C569 C568 1.399 . S
C569 H575 0.930 1_554 S
H570 C550 0.931 . S
H571 C551 0.930 1_556 S
H572 C559 0.931 . S
H573 C560 0.929 . S
H574 C568 0.929 . S
H575 C569 0.930 1_556 S
Mn576 O581 2.095 . S
Mn576 O591 2.162 . S
Mn576 O592 2.297 . S
Mn576 O600 2.385 . S
Mn576 O601 2.209 . S
Mn576 O602 2.094 . S
Mn577 O582 2.121 . S
Mn577 N584 2.257 . S
Mn577 N593 2.282 . S
Mn577 O601 2.215 . S
Mn577 O603 2.117 . S
C578 O600 1.234 . S
C578 O601 1.283 . S
C579 O591 1.281 . S
C579 O592 1.236 . S
C580 O602 1.240 . S
C580 O603 1.264 . S
O581 Mn576 2.095 . S
O581 C590 1.250 . S
O582 Mn577 2.121 . S
O582 C590 1.258 . S
C583 N584 1.326 . S
C583 C587 1.460 . S
C583 H589 0.929 . S
N584 Mn577 2.257 . S
N584 C583 1.326 . S
N584 C588 1.362 . S
C585 C586 1.258 . S
C585 C588 1.431 . S
C585 C605 1.449 1_545 S
C586 C585 1.258 . S
C586 C587 1.477 . S
C586 H606 0.931 . S
C587 C583 1.460 . S
C587 C586 1.477 . S
C587 H607 0.930 . S
C588 N584 1.362 . S
C588 C585 1.431 . S
C588 C598 1.476 . S
H589 C583 0.929 . S
C590 O581 1.250 . S
C590 O582 1.258 . S
O591 Mn576 2.162 . S
O591 C579 1.281 . S
O592 Mn576 2.297 . S
O592 C579 1.236 . S
N593 Mn577 2.282 . S
N593 C594 1.328 . S
N593 C598 1.318 . S
C594 N593 1.328 . S
C594 C595 1.457 1_545 S
C594 H599 0.929 . S
C595 C594 1.457 1_565 S
C595 C596 1.291 . S
C595 H608 0.931 . S
C596 C595 1.291 . S
C596 C597 1.373 . S
C596 H609 0.929 . S
C597 C596 1.373 . S
C597 C598 1.396 1_565 S
C597 C604 1.403 . S
C598 C588 1.476 . S
C598 N593 1.318 . S
C598 C597 1.396 1_545 S
H599 C594 0.929 . S
O600 Mn576 2.385 . S
O600 C578 1.234 . S
O601 Mn576 2.209 . S
O601 Mn577 2.215 . S
O601 C578 1.283 . S
O602 Mn576 2.094 . S
O602 C580 1.240 . S
O603 Mn577 2.117 . S
O603 C580 1.264 . S
C604 C597 1.403 . S
C604 C605 1.399 . S
C604 H610 0.929 . S
C605 C585 1.449 1_565 S
C605 C604 1.399 . S
C605 H611 0.930 . S
H606 C586 0.931 . S
H607 C587 0.930 . S
H608 C595 0.931 . S
H609 C596 0.929 . S
H610 C604 0.929 . S
H611 C605 0.930 . S
Mn612 O617 2.095 . S
Mn612 O627 2.162 . S
Mn612 O628 2.297 . S
Mn612 O636 2.385 . S
Mn612 O637 2.209 . S
Mn612 O638 2.094 . S
Mn613 O618 2.121 . S
Mn613 N620 2.257 . S
Mn613 N629 2.282 . S
Mn613 O637 2.215 . S
Mn613 O639 2.117 . S
C614 O636 1.234 . S
C614 O637 1.283 . S
C615 O627 1.281 . S
C615 O628 1.236 . S
C616 O638 1.240 . S
C616 O639 1.264 . S
O617 Mn612 2.095 . S
O617 C626 1.250 . S
O618 Mn613 2.121 . S
O618 C626 1.258 . S
C619 N620 1.326 . S
C619 C623 1.460 . S
C619 H625 0.929 . S
N620 Mn613 2.257 . S
N620 C619 1.326 . S
N620 C624 1.362 . S
C621 C622 1.258 1_545 S
C621 C624 1.431 . S
C621 C641 1.449 . S
C622 C621 1.258 1_565 S
C622 C623 1.477 1_565 S
C622 H642 0.931 . S
C623 C619 1.460 . S
C623 C622 1.477 1_545 S
C623 H643 0.930 1_545 S
C624 N620 1.362 . S
C624 C621 1.431 . S
C624 C634 1.476 . S
H625 C619 0.929 . S
C626 O617 1.250 . S
C626 O618 1.258 . S
O627 Mn612 2.162 . S
O627 C615 1.281 . S
O628 Mn612 2.297 . S
O628 C615 1.236 . S
N629 Mn613 2.282 . S
N629 C630 1.328 . S
N629 C634 1.318 . S
C630 N629 1.328 . S
C630 C631 1.457 . S
C630 H635 0.929 . S
C631 C630 1.457 . S
C631 C632 1.291 . S
C631 H644 0.931 . S
C632 C631 1.291 . S
C632 C633 1.373 . S
C632 H645 0.929 . S
C633 C632 1.373 . S
C633 C634 1.396 . S
C633 C640 1.403 . S
C634 C624 1.476 . S
C634 N629 1.318 . S
C634 C633 1.396 . S
H635 C630 0.929 . S
O636 Mn612 2.385 . S
O636 C614 1.234 . S
O637 Mn612 2.209 . S
O637 Mn613 2.215 . S
O637 C614 1.283 . S
O638 Mn612 2.094 . S
O638 C616 1.240 . S
O639 Mn613 2.117 . S
O639 C616 1.264 . S
C640 C633 1.403 . S
C640 C641 1.399 . S
C640 H646 0.929 . S
C641 C621 1.449 . S
C641 C640 1.399 . S
C641 H647 0.930 1_545 S
H642 C622 0.931 . S
H643 C623 0.930 1_565 S
H644 C631 0.931 . S
H645 C632 0.929 . S
H646 C640 0.929 . S
H647 C641 0.930 1_565 S
Mn648 O653 2.095 1_545 S
Mn648 O663 2.162 . S
Mn648 O664 2.297 . S
Mn648 O672 2.385 . S
Mn648 O673 2.209 . S
Mn648 O674 2.094 . S
Mn649 O654 2.121 1_545 S
Mn649 N656 2.257 . S
Mn649 N665 2.282 . S
Mn649 O673 2.215 . S
Mn649 O675 2.117 . S
C650 O672 1.234 . S
C650 O673 1.283 . S
C651 O663 1.281 . S
C651 O664 1.236 . S
C652 O674 1.240 . S
C652 O675 1.264 . S
O653 Mn648 2.095 1_565 S
O653 C662 1.250 . S
O654 Mn649 2.121 1_565 S
O654 C662 1.258 . S
C655 N656 1.326 . S
C655 C659 1.460 . S
C655 H661 0.929 1_545 S
N656 Mn649 2.257 . S
N656 C655 1.326 . S
N656 C660 1.362 . S
C657 C658 1.258 . S
C657 C660 1.431 . S
C657 C677 1.449 . S
C658 C657 1.258 . S
C658 C659 1.477 . S
C658 H678 0.931 . S
C659 C655 1.460 . S
C659 C658 1.477 . S
C659 H679 0.919 1_545 S
C660 N656 1.362 . S
C660 C657 1.431 . S
C660 C670 1.476 . S
H661 C655 0.929 1_565 S
C662 O653 1.250 . S
C662 O654 1.258 . S
O663 Mn648 2.162 . S
O663 C651 1.281 . S
O664 Mn648 2.297 . S
O664 C651 1.236 . S
N665 Mn649 2.282 . S
N665 C666 1.328 . S
N665 C670 1.318 . S
C666 N665 1.328 . S
C666 C667 1.457 . S
C666 H671 0.929 . S
C667 C666 1.457 . S
C667 C668 1.291 . S
C667 H680 0.931 . S
C668 C667 1.291 . S
C668 C669 1.373 . S
C668 H681 0.929 . S
C669 C668 1.373 . S
C669 C670 1.396 . S
C669 C676 1.403 . S
C670 C660 1.476 . S
C670 N665 1.318 . S
C670 C669 1.396 . S
H671 C666 0.929 . S
O672 Mn648 2.385 . S
O672 C650 1.234 . S
O673 Mn648 2.209 . S
O673 Mn649 2.215 . S
O673 C650 1.283 . S
O674 Mn648 2.094 . S
O674 C652 1.240 . S
O675 Mn649 2.117 . S
O675 C652 1.264 . S
C676 C669 1.403 . S
C676 C677 1.399 . S
C676 H682 0.929 . S
C677 C657 1.449 . S
C677 C676 1.399 . S
C677 H683 0.930 . S
H678 C658 0.931 . S
H679 C659 0.919 1_565 S
H680 C667 0.931 . S
H681 C668 0.929 . S
H682 C676 0.929 . S
H683 C677 0.930 . S
Mn684 O689 2.095 . S
Mn684 O699 2.162 . S
Mn684 O700 2.297 . S
Mn684 O708 2.385 . S
Mn684 O709 2.209 . S
Mn684 O710 2.094 1_554 S
Mn685 O690 2.121 1_556 S
Mn685 N692 2.257 1_565 S
Mn685 N701 2.282 . S
Mn685 O709 2.215 1_556 S
Mn685 O711 2.117 . S
C686 O708 1.234 . S
C686 O709 1.283 . S
C687 O699 1.281 . S
C687 O700 1.236 . S
C688 O710 1.240 . S
C688 O711 1.264 . S
O689 Mn684 2.095 . S
O689 C698 1.250 . S
O690 Mn685 2.121 1_554 S
O690 C698 1.258 . S
C691 N692 1.326 1_554 S
C691 C695 1.460 . S
C691 H697 0.929 . S
N692 Mn685 2.257 1_545 S
N692 C691 1.326 1_556 S
N692 C696 1.362 . S
C693 C694 1.258 . S
C693 C696 1.431 . S
C693 C713 1.449 . S
C694 C693 1.258 . S
C694 C695 1.477 1_556 S
C694 H714 0.931 . S
C695 C691 1.460 . S
C695 C694 1.477 1_554 S
C695 H715 0.930 . S
C696 N692 1.362 . S
C696 C693 1.431 . S
C696 C706 1.476 . S
H697 C691 0.929 . S
C698 O689 1.250 . S
C698 O690 1.258 . S
O699 Mn684 2.162 . S
O699 C687 1.281 . S
O700 Mn684 2.297 . S
O700 C687 1.236 . S
N701 Mn685 2.282 . S
N701 C702 1.328 . S
N701 C706 1.318 1_565 S
C702 N701 1.328 . S
C702 C703 1.457 . S
C702 H707 0.929 . S
C703 C702 1.457 . S
C703 C704 1.291 . S
C703 H716 0.931 . S
C704 C703 1.291 . S
C704 C705 1.373 1_565 S
C704 H717 0.929 . S
C705 C704 1.373 1_545 S
C705 C706 1.396 . S
C705 C712 1.403 . S
C706 C696 1.476 . S
C706 N701 1.318 1_545 S
C706 C705 1.396 . S
H707 C702 0.929 . S
O708 Mn684 2.385 . S
O708 C686 1.234 . S
O709 Mn684 2.209 . S
O709 Mn685 2.215 1_554 S
O709 C686 1.283 . S
O710 Mn684 2.094 1_556 S
O710 C688 1.240 . S
O711 Mn685 2.117 . S
O711 C688 1.264 . S
C712 C705 1.403 . S
C712 C713 1.399 . S
C712 H718 0.929 . S
C713 C693 1.449 . S
C713 C712 1.399 . S
C713 H719 0.930 . S
H714 C694 0.931 . S
H715 C695 0.930 . S
H716 C703 0.931 . S
H717 C704 0.929 . S
H718 C712 0.929 . S
H719 C713 0.930 . S
Mn720 O725 2.095 1_554 S
Mn720 O735 2.162 . S
Mn720 O736 2.297 . S
Mn720 O744 2.385 . S
Mn720 O745 2.209 1_554 S
Mn720 O746 2.094 1_554 S
Mn721 O726 2.121 . S
Mn721 N728 2.257 . S
Mn721 N737 2.282 . S
Mn721 O745 2.215 . S
Mn721 O747 2.117 . S
C722 O744 1.234 . S
C722 O745 1.283 1_554 S
C723 O735 1.281 . S
C723 O736 1.236 . S
C724 O746 1.240 . S
C724 O747 1.264 . S
O725 Mn720 2.095 1_556 S
O725 C734 1.250 . S
O726 Mn721 2.121 . S
O726 C734 1.258 . S
C727 N728 1.326 . S
C727 C731 1.460 . S
C727 H733 0.929 . S
N728 Mn721 2.257 . S
N728 C727 1.326 . S
N728 C732 1.362 . S
C729 C730 1.258 . S
C729 C732 1.431 . S
C729 C749 1.449 . S
C730 C729 1.258 . S
C730 C731 1.477 . S
C730 H750 0.931 . S
C731 C727 1.460 . S
C731 C730 1.477 . S
C731 H751 0.930 . S
C732 N728 1.362 . S
C732 C729 1.431 . S
C732 C742 1.476 . S
H733 C727 0.929 . S
C734 O725 1.250 . S
C734 O726 1.258 . S
O735 Mn720 2.162 . S
O735 C723 1.281 . S
O736 Mn720 2.297 . S
O736 C723 1.236 . S
N737 Mn721 2.282 . S
N737 C738 1.328 . S
N737 C742 1.318 . S
C738 N737 1.328 . S
C738 C739 1.457 . S
C738 H743 0.929 . S
C739 C738 1.457 . S
C739 C740 1.291 . S
C739 H752 0.931 . S
C740 C739 1.291 . S
C740 C741 1.373 . S
C740 H753 0.929 . S
C741 C740 1.373 . S
C741 C742 1.396 . S
C741 C748 1.403 . S
C742 C732 1.476 . S
C742 N737 1.318 . S
C742 C741 1.396 . S
H743 C738 0.929 . S
O744 Mn720 2.385 . S
O744 C722 1.234 . S
O745 Mn720 2.209 1_556 S
O745 Mn721 2.215 . S
O745 C722 1.283 1_556 S
O746 Mn720 2.094 1_556 S
O746 C724 1.240 . S
O747 Mn721 2.117 . S
O747 C724 1.264 . S
C748 C741 1.403 . S
C748 C749 1.399 . S
C748 H754 0.929 . S
C749 C729 1.449 . S
C749 C748 1.399 . S
C749 H755 0.930 . S
H750 C730 0.931 . S
H751 C731 0.930 . S
H752 C739 0.931 . S
H753 C740 0.929 . S
H754 C748 0.929 . S
H755 C749 0.930 . S
Mn756 O761 2.095 . S
Mn756 O771 2.162 . S
Mn756 O772 2.297 . S
Mn756 O780 2.385 . S
Mn756 O781 2.209 . S
Mn756 O782 2.094 . S
Mn757 O762 2.121 . S
Mn757 N764 2.257 . S
Mn757 N773 2.282 . S
Mn757 O781 2.215 . S
Mn757 O783 2.117 . S
C758 O780 1.234 . S
C758 O781 1.283 . S
C759 O771 1.281 . S
C759 O772 1.236 . S
C760 O782 1.240 . S
C760 O783 1.264 . S
O761 Mn756 2.095 . S
O761 C770 1.250 . S
O762 Mn757 2.121 . S
O762 C770 1.258 . S
C763 N764 1.326 . S
C763 C767 1.460 . S
C763 H769 0.929 . S
N764 Mn757 2.257 . S
N764 C763 1.326 . S
N764 C768 1.362 . S
C765 C766 1.258 . S
C765 C768 1.431 . S
C765 C785 1.449 . S
C766 C765 1.258 . S
C766 C767 1.477 . S
C766 H786 0.931 . S
C767 C763 1.460 . S
C767 C766 1.477 . S
C767 H787 0.930 . S
C768 N764 1.362 . S
C768 C765 1.431 . S
C768 C778 1.476 . S
H769 C763 0.929 . S
C770 O761 1.250 . S
C770 O762 1.258 . S
O771 Mn756 2.162 . S
O771 C759 1.281 . S
O772 Mn756 2.297 . S
O772 C759 1.236 . S
N773 Mn757 2.282 . S
N773 C774 1.328 . S
N773 C778 1.318 . S
C774 N773 1.328 . S
C774 C775 1.457 . S
C774 H779 0.929 . S
C775 C774 1.457 . S
C775 C776 1.291 . S
C775 H788 0.931 . S
C776 C775 1.291 . S
C776 C777 1.373 . S
C776 H789 0.929 . S
C777 C776 1.373 . S
C777 C778 1.396 . S
C777 C784 1.403 . S
C778 C768 1.476 . S
C778 N773 1.318 . S
C778 C777 1.396 . S
H779 C774 0.929 . S
O780 Mn756 2.385 . S
O780 C758 1.234 . S
O781 Mn756 2.209 . S
O781 Mn757 2.215 . S
O781 C758 1.283 . S
O782 Mn756 2.094 . S
O782 C760 1.240 . S
O783 Mn757 2.117 . S
O783 C760 1.264 . S
C784 C777 1.403 . S
C784 C785 1.399 . S
C784 H790 0.929 . S
C785 C765 1.449 . S
C785 C784 1.399 . S
C785 H791 0.930 . S
H786 C766 0.931 . S
H787 C767 0.930 . S
H788 C775 0.931 . S
H789 C776 0.929 . S
H790 C784 0.929 . S
H791 C785 0.930 . S
Mn792 O797 2.095 . S
Mn792 O807 2.162 . S
Mn792 O808 2.297 . S
Mn792 O816 2.385 . S
Mn792 O817 2.209 . S
Mn792 O818 2.094 . S
Mn793 O798 2.121 . S
Mn793 N800 2.257 . S
Mn793 N809 2.282 . S
Mn793 O817 2.215 . S
Mn793 O819 2.117 . S
C794 O816 1.234 . S
C794 O817 1.283 . S
C795 O807 1.281 . S
C795 O808 1.236 . S
C796 O818 1.240 . S
C796 O819 1.264 . S
O797 Mn792 2.095 . S
O797 C806 1.250 . S
O798 Mn793 2.121 . S
O798 C806 1.258 . S
C799 N800 1.326 . S
C799 C803 1.460 . S
C799 H805 0.929 . S
N800 Mn793 2.257 . S
N800 C799 1.326 . S
N800 C804 1.362 . S
C801 C802 1.258 . S
C801 C804 1.431 . S
C801 C821 1.449 . S
C802 C801 1.258 . S
C802 C803 1.477 . S
C802 H822 0.931 . S
C803 C799 1.460 . S
C803 C802 1.477 . S
C803 H823 0.930 . S
C804 N800 1.362 . S
C804 C801 1.431 . S
C804 C814 1.476 . S
H805 C799 0.929 . S
C806 O797 1.250 . S
C806 O798 1.258 . S
O807 Mn792 2.162 . S
O807 C795 1.281 . S
O808 Mn792 2.297 . S
O808 C795 1.236 . S
N809 Mn793 2.282 . S
N809 C810 1.328 . S
N809 C814 1.318 . S
C810 N809 1.328 . S
C810 C811 1.457 . S
C810 H815 0.929 . S
C811 C810 1.457 . S
C811 C812 1.291 . S
C811 H824 0.931 . S
C812 C811 1.291 . S
C812 C813 1.373 . S
C812 H825 0.929 . S
C813 C812 1.373 . S
C813 C814 1.396 . S
C813 C820 1.403 . S
C814 C804 1.476 . S
C814 N809 1.318 . S
C814 C813 1.396 . S
H815 C810 0.929 . S
O816 Mn792 2.385 . S
O816 C794 1.234 . S
O817 Mn792 2.209 . S
O817 Mn793 2.215 . S
O817 C794 1.283 . S
O818 Mn792 2.094 . S
O818 C796 1.240 . S
O819 Mn793 2.117 . S
O819 C796 1.264 . S
C820 C813 1.403 . S
C820 C821 1.399 . S
C820 H826 0.929 . S
C821 C801 1.449 . S
C821 C820 1.399 . S
C821 H827 0.930 . S
H822 C802 0.931 . S
H823 C803 0.930 . S
H824 C811 0.931 . S
H825 C812 0.929 . S
H826 C820 0.929 . S
H827 C821 0.930 . S
Mn828 O833 2.095 . S
Mn828 O843 2.162 . S
Mn828 O844 2.297 . S
Mn828 O852 2.385 . S
Mn828 O853 2.209 . S
Mn828 O854 2.094 . S
Mn829 O834 2.121 . S
Mn829 N836 2.257 . S
Mn829 N845 2.282 . S
Mn829 O853 2.215 . S
Mn829 O855 2.117 . S
C830 O852 1.234 . S
C830 O853 1.283 . S
C831 O843 1.281 . S
C831 O844 1.236 . S
C832 O854 1.240 . S
C832 O855 1.264 . S
O833 Mn828 2.095 . S
O833 C842 1.250 . S
O834 Mn829 2.121 . S
O834 C842 1.258 . S
C835 N836 1.326 . S
C835 C839 1.460 . S
C835 H841 0.929 . S
N836 Mn829 2.257 . S
N836 C835 1.326 . S
N836 C840 1.362 . S
C837 C838 1.258 . S
C837 C840 1.431 . S
C837 C857 1.449 . S
C838 C837 1.258 . S
C838 C839 1.477 . S
C838 H858 0.931 . S
C839 C835 1.460 . S
C839 C838 1.477 . S
C839 H859 0.930 . S
C840 N836 1.362 . S
C840 C837 1.431 . S
C840 C850 1.476 . S
H841 C835 0.929 . S
C842 O833 1.250 . S
C842 O834 1.258 . S
O843 Mn828 2.162 . S
O843 C831 1.281 . S
O844 Mn828 2.297 . S
O844 C831 1.236 . S
N845 Mn829 2.282 . S
N845 C846 1.328 . S
N845 C850 1.318 . S
C846 N845 1.328 . S
C846 C847 1.457 . S
C846 H851 0.929 . S
C847 C846 1.457 . S
C847 C848 1.291 . S
C847 H860 0.931 . S
C848 C847 1.291 . S
C848 C849 1.373 . S
C848 H861 0.929 . S
C849 C848 1.373 . S
C849 C850 1.396 . S
C849 C856 1.403 . S
C850 C840 1.476 . S
C850 N845 1.318 . S
C850 C849 1.396 . S
H851 C846 0.929 . S
O852 Mn828 2.385 . S
O852 C830 1.234 . S
O853 Mn828 2.209 . S
O853 Mn829 2.215 . S
O853 C830 1.283 . S
O854 Mn828 2.094 . S
O854 C832 1.240 . S
O855 Mn829 2.117 . S
O855 C832 1.264 . S
C856 C849 1.403 . S
C856 C857 1.399 . S
C856 H862 0.929 . S
C857 C837 1.449 . S
C857 C856 1.399 . S
C857 H863 0.930 . S
H858 C838 0.931 . S
H859 C839 0.930 . S
H860 C847 0.931 . S
H861 C848 0.929 . S
H862 C856 0.929 . S
H863 C857 0.930 . S
Co864 N869 2.057 1_554 S
Co864 O881 2.021 1_554 S
Co864 O884 2.062 1_455 S
Co864 O888 2.117 . S
Co864 O889 2.020 . S
C865 O885 1.259 . S
C865 O888 1.258 . S
Co866 N875 2.057 . S
Co866 O882 2.117 1_545 S
Co866 O883 2.020 1_455 S
Co866 O885 2.021 . S
Co866 O890 2.062 . S
C867 N869 1.316 . S
C867 N870 1.347 1_455 S
C867 H872 0.931 . S
C868 N869 1.383 . S
C868 C871 1.338 1_455 S
C868 H873 0.934 . S
N869 Co864 2.057 1_556 S
N869 C867 1.316 . S
N869 C868 1.383 . S
N870 C867 1.347 1_655 S
N870 C871 1.373 . S
C871 C868 1.338 1_655 S
C871 N870 1.373 . S
C871 H892 0.931 . S
H872 C867 0.931 . S
H873 C868 0.934 . S
C874 O881 1.259 1_564 S
C874 O882 1.258 . S
N875 Co866 2.057 . S
N875 C876 1.316 . S
N875 C877 1.375 1_545 S
C876 N875 1.316 . S
C876 N878 1.347 1_545 S
C876 H887 0.931 . S
C877 N875 1.375 1_565 S
C877 C879 1.350 . S
C877 H886 0.930 . S
N878 C876 1.347 1_565 S
N878 C879 1.373 . S
C879 C877 1.350 . S
C879 N878 1.373 . S
C879 H893 0.931 . S
C880 O883 1.256 . S
C880 O884 1.255 . S
O881 Co864 2.021 1_556 S
O881 C874 1.259 1_546 S
O882 Co866 2.117 1_565 S
O882 C874 1.258 . S
O883 Co866 2.020 1_655 S
O883 C880 1.256 . S
O884 Co864 2.062 1_655 S
O884 C880 1.255 . S
O885 C865 1.259 . S
O885 Co866 2.021 . S
H886 C877 0.930 . S
H887 C876 0.931 . S
O888 Co864 2.117 . S
O888 C865 1.258 . S
O889 Co864 2.020 . S
O889 C891 1.256 . S
O890 Co866 2.062 . S
O890 C891 1.255 . S
C891 O889 1.256 . S
C891 O890 1.255 . S
H892 C871 0.931 . S
H893 C879 0.931 . S
Co894 N899 2.057 . S
Co894 O911 2.021 . S
Co894 O914 2.062 . S
Co894 O918 2.117 . S
Co894 O919 2.020 . S
C895 O915 1.259 . S
C895 O918 1.258 . S
Co896 N905 2.057 . S
Co896 O912 2.117 . S
Co896 O913 2.020 . S
Co896 O915 2.021 . S
Co896 O920 2.062 . S
C897 N899 1.316 . S
C897 N900 1.347 . S
C897 H902 0.931 . S
C898 N899 1.375 . S
C898 C901 1.350 . S
C898 H903 0.930 . S
N899 Co894 2.057 . S
N899 C897 1.316 . S
N899 C898 1.375 . S
N900 C897 1.347 . S
N900 C901 1.373 . S
C901 C898 1.350 . S
C901 N900 1.373 . S
C901 H922 0.931 . S
H902 C897 0.931 . S
H903 C898 0.930 . S
C904 O911 1.259 . S
C904 O912 1.258 . S
N905 Co896 2.057 . S
N905 C906 1.316 . S
N905 C907 1.375 . S
C906 N905 1.316 . S
C906 N908 1.347 . S
C906 H917 0.931 . S
C907 N905 1.375 . S
C907 C909 1.350 . S
C907 H916 0.930 . S
N908 C906 1.347 . S
N908 C909 1.373 . S
C909 C907 1.350 . S
C909 N908 1.373 . S
C909 H923 0.931 . S
C910 O913 1.256 . S
C910 O914 1.255 . S
O911 Co894 2.021 . S
O911 C904 1.259 . S
O912 Co896 2.117 . S
O912 C904 1.258 . S
O913 Co896 2.020 . S
O913 C910 1.256 . S
O914 Co894 2.062 . S
O914 C910 1.255 . S
O915 C895 1.259 . S
O915 Co896 2.021 . S
H916 C907 0.930 . S
H917 C906 0.931 . S
O918 Co894 2.117 . S
O918 C895 1.258 . S
O919 Co894 2.020 . S
O919 C921 1.256 . S
O920 Co896 2.062 . S
O920 C921 1.255 . S
C921 O919 1.256 . S
C921 O920 1.255 . S
H922 C901 0.931 . S
H923 C909 0.931 . S
Co924 N929 2.057 . S
Co924 O941 2.021 1_545 S
Co924 O944 2.062 . S
Co924 O948 2.117 . S
Co924 O949 2.020 . S
C925 O945 1.259 . S
C925 O948 1.258 . S
Co926 N935 2.057 . S
Co926 O942 2.117 . S
Co926 O943 2.020 . S
Co926 O945 2.021 . S
Co926 O950 2.062 . S
C927 N929 1.316 1_565 S
C927 N930 1.343 1_565 S
C927 H932 0.931 . S
C928 N929 1.375 . S
C928 C931 1.350 . S
C928 H933 0.930 . S
N929 Co924 2.057 . S
N929 C927 1.316 1_545 S
N929 C928 1.375 . S
N930 C927 1.343 1_545 S
N930 C931 1.395 . S
C931 C928 1.350 . S
C931 N930 1.395 . S
C931 H952 0.931 . S
H932 C927 0.931 . S
H933 C928 0.930 . S
C934 O941 1.259 . S
C934 O942 1.258 1_565 S
N935 Co926 2.057 . S
N935 C936 1.316 . S
N935 C937 1.375 . S
C936 N935 1.316 . S
C936 N938 1.347 . S
C936 H947 0.931 . S
C937 N935 1.375 . S
C937 C939 1.350 . S
C937 H946 0.930 . S
N938 C936 1.347 . S
N938 C939 1.373 . S
C939 C937 1.350 . S
C939 N938 1.373 . S
C939 H953 0.931 . S
C940 O943 1.256 . S
C940 O944 1.255 . S
O941 Co924 2.021 1_565 S
O941 C934 1.259 . S
O942 Co926 2.117 . S
O942 C934 1.258 1_545 S
O943 Co926 2.020 . S
O943 C940 1.256 . S
O944 Co924 2.062 . S
O944 C940 1.255 . S
O945 C925 1.259 . S
O945 Co926 2.021 . S
H946 C937 0.930 . S
H947 C936 0.931 . S
O948 Co924 2.117 . S
O948 C925 1.258 . S
O949 Co924 2.020 . S
O949 C951 1.256 . S
O950 Co926 2.062 . S
O950 C951 1.255 . S
C951 O949 1.256 . S
C951 O950 1.255 . S
H952 C931 0.931 . S
H953 C939 0.931 . S
Co954 N959 2.057 . S
Co954 O971 2.021 . S
Co954 O974 2.062 . S
Co954 O978 2.117 . S
Co954 O979 2.020 . S
C955 O975 1.259 . S
C955 O978 1.258 . S
Co956 N965 2.057 . S
Co956 O972 2.117 . S
Co956 O973 2.020 . S
Co956 O975 2.021 . S
Co956 O980 2.062 . S
C957 N959 1.316 . S
C957 N960 1.347 . S
C957 H962 0.931 . S
C958 N959 1.375 . S
C958 C961 1.350 . S
C958 H963 0.930 . S
N959 Co954 2.057 . S
N959 C957 1.316 . S
N959 C958 1.375 . S
N960 C957 1.347 . S
N960 C961 1.373 . S
C961 C958 1.350 . S
C961 N960 1.373 . S
C961 H982 0.931 . S
H962 C957 0.931 . S
H963 C958 0.930 . S
C964 O971 1.259 . S
C964 O972 1.258 . S
N965 Co956 2.057 . S
N965 C966 1.316 . S
N965 C967 1.375 . S
C966 N965 1.316 . S
C966 N968 1.347 . S
C966 H977 0.931 . S
C967 N965 1.375 . S
C967 C969 1.350 . S
C967 H976 0.930 . S
N968 C966 1.347 . S
N968 C969 1.373 . S
C969 C967 1.350 . S
C969 N968 1.373 . S
C969 H983 0.931 . S
C970 O973 1.256 . S
C970 O974 1.255 . S
O971 Co954 2.021 . S
O971 C964 1.259 . S
O972 Co956 2.117 . S
O972 C964 1.258 . S
O973 Co956 2.020 . S
O973 C970 1.256 . S
O974 Co954 2.062 . S
O974 C970 1.255 . S
O975 C955 1.259 . S
O975 Co956 2.021 . S
H976 C967 0.930 . S
H977 C966 0.931 . S
O978 Co954 2.117 . S
O978 C955 1.258 . S
O979 Co954 2.020 . S
O979 C981 1.256 . S
O980 Co956 2.062 . S
O980 C981 1.255 . S
C981 O979 1.256 . S
C981 O980 1.255 . S
H982 C961 0.931 . S
H983 C969 0.931 . S
Co984 N989 2.057 1_545 S
Co984 O1001 2.021 . S
Co984 O1004 2.062 1_545 S
Co984 O1008 2.117 . S
Co984 O1009 2.020 1_455 S
C985 O1005 1.259 . S
C985 O1008 1.258 . S
Co986 N995 2.057 . S
Co986 O1002 2.117 . S
Co986 O1003 2.020 . S
Co986 O1005 2.021 . S
Co986 O1010 2.062 1_455 S
C987 N989 1.316 . S
C987 N990 1.347 . S
C987 H992 0.931 . S
C988 N989 1.375 1_655 S
C988 C991 1.350 . S
C988 H993 0.930 . S
N989 Co984 2.057 1_565 S
N989 C987 1.316 . S
N989 C988 1.375 1_455 S
N990 C987 1.347 . S
N990 C991 1.373 1_455 S
C991 C988 1.350 . S
C991 N990 1.373 1_655 S
C991 H1012 0.931 . S
H992 C987 0.931 . S
H993 C988 0.930 . S
C994 O1001 1.259 . S
C994 O1002 1.258 . S
N995 Co986 2.057 . S
N995 C996 1.316 . S
N995 C997 1.375 . S
C996 N995 1.316 . S
C996 N998 1.347 . S
C996 H1007 0.931 . S
C997 N995 1.375 . S
C997 C999 1.350 . S
C997 H1006 0.930 . S
N998 C996 1.347 . S
N998 C999 1.373 . S
C999 C997 1.350 . S
C999 N998 1.373 . S
C999 H1013 0.931 . S
C1000 O1003 1.256 . S
C1000 O1004 1.255 1_545 S
O1001 Co984 2.021 . S
O1001 C994 1.259 . S
O1002 Co986 2.117 . S
O1002 C994 1.258 . S
O1003 Co986 2.020 . S
O1003 C1000 1.256 . S
O1004 Co984 2.062 1_565 S
O1004 C1000 1.255 1_565 S
O1005 C985 1.259 . S
O1005 Co986 2.021 . S
H1006 C997 0.930 . S
H1007 C996 0.931 . S
O1008 Co984 2.117 . S
O1008 C985 1.258 . S
O1009 Co984 2.020 1_655 S
O1009 C1011 1.256 . S
O1010 Co986 2.062 1_655 S
O1010 C1011 1.255 . S
C1011 O1009 1.256 . S
C1011 O1010 1.255 . S
H1012 C991 0.931 . S
H1013 C999 0.931 . S
Co1014 N1019 2.057 . S
Co1014 O1031 2.021 . S
Co1014 O1034 2.062 . S
Co1014 O1038 2.117 . S
Co1014 O1039 2.020 . S
C1015 O1035 1.259 . S
C1015 O1038 1.258 . S
Co1016 N1025 2.057 . S
Co1016 O1032 2.117 . S
Co1016 O1033 2.020 . S
Co1016 O1035 2.021 . S
Co1016 O1040 2.062 . S
C1017 N1019 1.316 . S
C1017 N1020 1.347 . S
C1017 H1022 0.931 . S
C1018 N1019 1.375 . S
C1018 C1021 1.350 . S
C1018 H1023 0.930 . S
N1019 Co1014 2.057 . S
N1019 C1017 1.316 . S
N1019 C1018 1.375 . S
N1020 C1017 1.347 . S
N1020 C1021 1.373 . S
C1021 C1018 1.350 . S
C1021 N1020 1.373 . S
C1021 H1042 0.931 . S
H1022 C1017 0.931 . S
H1023 C1018 0.930 . S
C1024 O1031 1.259 . S
C1024 O1032 1.258 . S
N1025 Co1016 2.057 . S
N1025 C1026 1.316 . S
N1025 C1027 1.375 . S
C1026 N1025 1.316 . S
C1026 N1028 1.347 . S
C1026 H1037 0.931 . S
C1027 N1025 1.375 . S
C1027 C1029 1.350 . S
C1027 H1036 0.930 . S
N1028 C1026 1.347 . S
N1028 C1029 1.373 . S
C1029 C1027 1.350 . S
C1029 N1028 1.373 . S
C1029 H1043 0.931 . S
C1030 O1033 1.256 . S
C1030 O1034 1.255 . S
O1031 Co1014 2.021 . S
O1031 C1024 1.259 . S
O1032 Co1016 2.117 . S
O1032 C1024 1.258 . S
O1033 Co1016 2.020 . S
O1033 C1030 1.256 . S
O1034 Co1014 2.062 . S
O1034 C1030 1.255 . S
O1035 C1015 1.259 . S
O1035 Co1016 2.021 . S
H1036 C1027 0.930 . S
H1037 C1026 0.931 . S
O1038 Co1014 2.117 . S
O1038 C1015 1.258 . S
O1039 Co1014 2.020 . S
O1039 C1041 1.256 . S
O1040 Co1016 2.062 . S
O1040 C1041 1.255 . S
C1041 O1039 1.256 . S
C1041 O1040 1.255 . S
H1042 C1021 0.931 . S
H1043 C1029 0.931 . S
Co1044 N1049 2.057 1_554 S
Co1044 O1061 2.021 . S
Co1044 O1064 2.062 1_554 S
Co1044 O1068 2.117 . S
Co1044 O1069 2.020 1_545 S
C1045 O1065 1.259 . S
C1045 O1068 1.258 . S
Co1046 N1055 2.057 . S
Co1046 O1062 2.117 . S
Co1046 O1063 2.020 . S
Co1046 O1065 2.021 . S
Co1046 O1070 2.062 . S
C1047 N1049 1.316 . S
C1047 N1050 1.347 . S
C1047 H1052 0.931 . S
C1048 N1049 1.375 . S
C1048 C1051 1.350 . S
C1048 H1053 0.930 1_545 S
N1049 Co1044 2.057 1_556 S
N1049 C1047 1.316 . S
N1049 C1048 1.375 . S
N1050 C1047 1.347 . S
N1050 C1051 1.373 . S
C1051 C1048 1.350 . S
C1051 N1050 1.373 . S
C1051 H1072 0.931 1_545 S
H1052 C1047 0.931 . S
H1053 C1048 0.930 1_565 S
C1054 O1061 1.259 . S
C1054 O1062 1.258 . S
N1055 Co1046 2.057 . S
N1055 C1056 1.316 . S
N1055 C1057 1.375 . S
C1056 N1055 1.316 . S
C1056 N1058 1.347 . S
C1056 H1067 0.931 . S
C1057 N1055 1.375 . S
C1057 C1059 1.350 . S
C1057 H1066 0.930 . S
N1058 C1056 1.347 . S
N1058 C1059 1.373 . S
C1059 C1057 1.350 . S
C1059 N1058 1.373 . S
C1059 H1073 0.931 . S
C1060 O1063 1.256 . S
C1060 O1064 1.255 1_554 S
O1061 Co1044 2.021 . S
O1061 C1054 1.259 . S
O1062 Co1046 2.117 . S
O1062 C1054 1.258 . S
O1063 Co1046 2.020 . S
O1063 C1060 1.256 . S
O1064 Co1044 2.062 1_556 S
O1064 C1060 1.255 1_556 S
O1065 C1045 1.259 . S
O1065 Co1046 2.021 . S
H1066 C1057 0.930 . S
H1067 C1056 0.931 . S
O1068 Co1044 2.117 . S
O1068 C1045 1.258 . S
O1069 Co1044 2.020 1_565 S
O1069 C1071 1.256 . S
O1070 Co1046 2.062 . S
O1070 C1071 1.255 1_545 S
C1071 O1069 1.256 . S
C1071 O1070 1.255 1_565 S
H1072 C1051 0.931 1_565 S
H1073 C1059 0.931 . S
Co1074 N1079 2.057 . S
Co1074 O1091 2.021 . S
Co1074 O1094 2.062 . S
Co1074 O1098 2.117 . S
Co1074 O1099 2.020 . S
C1075 O1095 1.259 . S
C1075 O1098 1.258 . S
Co1076 N1085 2.057 . S
Co1076 O1092 2.117 . S
Co1076 O1093 2.020 . S
Co1076 O1095 2.021 . S
Co1076 O1100 2.062 . S
C1077 N1079 1.316 . S
C1077 N1080 1.347 . S
C1077 H1082 0.931 . S
C1078 N1079 1.375 . S
C1078 C1081 1.350 . S
C1078 H1083 0.930 . S
N1079 Co1074 2.057 . S
N1079 C1077 1.316 . S
N1079 C1078 1.375 . S
N1080 C1077 1.347 . S
N1080 C1081 1.373 . S
C1081 C1078 1.350 . S
C1081 N1080 1.373 . S
C1081 H1102 0.931 . S
H1082 C1077 0.931 . S
H1083 C1078 0.930 . S
C1084 O1091 1.259 . S
C1084 O1092 1.258 . S
N1085 Co1076 2.057 . S
N1085 C1086 1.316 . S
N1085 C1087 1.375 . S
C1086 N1085 1.316 . S
C1086 N1088 1.347 . S
C1086 H1097 0.931 . S
C1087 N1085 1.375 . S
C1087 C1089 1.350 . S
C1087 H1096 0.930 . S
N1088 C1086 1.347 . S
N1088 C1089 1.373 . S
C1089 C1087 1.350 . S
C1089 N1088 1.373 . S
C1089 H1103 0.931 . S
C1090 O1093 1.256 . S
C1090 O1094 1.255 . S
O1091 Co1074 2.021 . S
O1091 C1084 1.259 . S
O1092 Co1076 2.117 . S
O1092 C1084 1.258 . S
O1093 Co1076 2.020 . S
O1093 C1090 1.256 . S
O1094 Co1074 2.062 . S
O1094 C1090 1.255 . S
O1095 C1075 1.259 . S
O1095 Co1076 2.021 . S
H1096 C1087 0.930 . S
H1097 C1086 0.931 . S
O1098 Co1074 2.117 . S
O1098 C1075 1.258 . S
O1099 Co1074 2.020 . S
O1099 C1101 1.256 . S
O1100 Co1076 2.062 . S
O1100 C1101 1.255 . S
C1101 O1099 1.256 . S
C1101 O1100 1.255 . S
H1102 C1081 0.931 . S
H1103 C1089 0.931 . S
Co1104 N1109 2.057 . S
Co1104 O1121 2.021 1_554 S
Co1104 O1124 2.062 . S
Co1104 O1128 2.117 . S
Co1104 O1129 2.020 . S
C1105 O1125 1.259 . S
C1105 O1128 1.258 . S
Co1106 N1115 2.057 . S
Co1106 O1122 2.117 1_554 S
Co1106 O1123 2.020 . S
Co1106 O1125 2.021 . S
Co1106 O1130 2.062 . S
C1107 N1109 1.316 1_556 S
C1107 N1110 1.347 1_556 S
C1107 H1112 0.931 . S
C1108 N1109 1.375 . S
C1108 C1111 1.350 . S
C1108 H1113 0.930 . S
N1109 Co1104 2.057 . S
N1109 C1107 1.316 1_554 S
N1109 C1108 1.375 . S
N1110 C1107 1.347 1_554 S
N1110 C1111 1.373 . S
C1111 C1108 1.350 . S
C1111 N1110 1.373 . S
C1111 H1132 0.931 . S
H1112 C1107 0.931 . S
H1113 C1108 0.930 . S
C1114 O1121 1.259 . S
C1114 O1122 1.258 . S
N1115 Co1106 2.057 . S
N1115 C1116 1.316 . S
N1115 C1117 1.375 . S
C1116 N1115 1.316 . S
C1116 N1118 1.347 . S
C1116 H1127 0.931 . S
C1117 N1115 1.375 . S
C1117 C1119 1.350 . S
C1117 H1126 0.930 . S
N1118 C1116 1.347 . S
N1118 C1119 1.373 . S
C1119 C1117 1.350 . S
C1119 N1118 1.373 . S
C1119 H1133 0.931 . S
C1120 O1123 1.256 . S
C1120 O1124 1.255 . S
O1121 Co1104 2.021 1_556 S
O1121 C1114 1.259 . S
O1122 Co1106 2.117 1_556 S
O1122 C1114 1.258 . S
O1123 Co1106 2.020 . S
O1123 C1120 1.256 . S
O1124 Co1104 2.062 . S
O1124 C1120 1.255 . S
O1125 C1105 1.259 . S
O1125 Co1106 2.021 . S
H1126 C1117 0.930 . S
H1127 C1116 0.931 . S
O1128 Co1104 2.117 . S
O1128 C1105 1.258 . S
O1129 Co1104 2.020 . S
O1129 C1131 1.256 . S
O1130 Co1106 2.062 . S
O1130 C1131 1.255 . S
C1131 O1129 1.256 . S
C1131 O1130 1.255 . S
H1132 C1111 0.931 . S
H1133 C1119 0.931 . S
Co1134 N1139 2.057 . S
Co1134 O1151 2.021 . S
Co1134 O1154 2.062 . S
Co1134 O1158 2.117 . S
Co1134 O1159 2.020 . S
C1135 O1155 1.259 . S
C1135 O1158 1.258 . S
Co1136 N1145 2.057 . S
Co1136 O1152 2.117 . S
Co1136 O1153 2.020 . S
Co1136 O1155 2.021 . S
Co1136 O1160 2.062 . S
C1137 N1139 1.316 . S
C1137 N1140 1.347 . S
C1137 H1142 0.931 . S
C1138 N1139 1.375 . S
C1138 C1141 1.350 . S
C1138 H1143 0.930 . S
N1139 Co1134 2.057 . S
N1139 C1137 1.316 . S
N1139 C1138 1.375 . S
N1140 C1137 1.347 . S
N1140 C1141 1.373 . S
C1141 C1138 1.350 . S
C1141 N1140 1.373 . S
C1141 H1162 0.931 . S
H1142 C1137 0.931 . S
H1143 C1138 0.930 . S
C1144 O1151 1.259 . S
C1144 O1152 1.258 . S
N1145 Co1136 2.057 . S
N1145 C1146 1.316 . S
N1145 C1147 1.375 . S
C1146 N1145 1.316 . S
C1146 N1148 1.347 . S
C1146 H1157 0.931 . S
C1147 N1145 1.375 . S
C1147 C1149 1.350 . S
C1147 H1156 0.930 . S
N1148 C1146 1.347 . S
N1148 C1149 1.373 . S
C1149 C1147 1.350 . S
C1149 N1148 1.373 . S
C1149 H1163 0.931 . S
C1150 O1153 1.256 . S
C1150 O1154 1.255 . S
O1151 Co1134 2.021 . S
O1151 C1144 1.259 . S
O1152 Co1136 2.117 . S
O1152 C1144 1.258 . S
O1153 Co1136 2.020 . S
O1153 C1150 1.256 . S
O1154 Co1134 2.062 . S
O1154 C1150 1.255 . S
O1155 C1135 1.259 . S
O1155 Co1136 2.021 . S
H1156 C1147 0.930 . S
H1157 C1146 0.931 . S
O1158 Co1134 2.117 . S
O1158 C1135 1.258 . S
O1159 Co1134 2.020 . S
O1159 C1161 1.256 . S
O1160 Co1136 2.062 . S
O1160 C1161 1.255 . S
C1161 O1159 1.256 . S
C1161 O1160 1.255 . S
H1162 C1141 0.931 . S
H1163 C1149 0.931 . S
Co1164 N1169 2.057 . S
Co1164 O1181 2.021 1_455 S
Co1164 O1184 2.062 . S
Co1164 O1188 2.117 . S
Co1164 O1189 2.020 . S
C1165 O1185 1.259 . S
C1165 O1188 1.258 . S
Co1166 N1175 2.057 . S
Co1166 O1182 2.117 1_455 S
Co1166 O1183 2.020 . S
Co1166 O1185 2.021 . S
Co1166 O1190 2.062 . S
C1167 N1169 1.316 1_655 S
C1167 N1170 1.353 . S
C1167 H1172 0.931 . S
C1168 N1169 1.375 . S
C1168 C1171 1.350 . S
C1168 H1173 0.930 . S
N1169 Co1164 2.057 . S
N1169 C1167 1.316 1_455 S
N1169 C1168 1.375 . S
N1170 C1167 1.353 . S
N1170 C1171 1.342 1_655 S
C1171 C1168 1.350 . S
C1171 N1170 1.342 1_455 S
C1171 H1192 0.931 . S
H1172 C1167 0.931 . S
H1173 C1168 0.930 . S
C1174 O1181 1.259 . S
C1174 O1182 1.258 . S
N1175 Co1166 2.057 . S
N1175 C1176 1.316 . S
N1175 C1177 1.375 . S
C1176 N1175 1.316 . S
C1176 N1178 1.347 . S
C1176 H1187 0.931 . S
C1177 N1175 1.375 . S
C1177 C1179 1.350 . S
C1177 H1186 0.930 . S
N1178 C1176 1.347 . S
N1178 C1179 1.373 . S
C1179 C1177 1.350 . S
C1179 N1178 1.373 . S
C1179 H1193 0.931 . S
C1180 O1183 1.256 . S
C1180 O1184 1.255 . S
O1181 Co1164 2.021 1_655 S
O1181 C1174 1.259 . S
O1182 Co1166 2.117 1_655 S
O1182 C1174 1.258 . S
O1183 Co1166 2.020 . S
O1183 C1180 1.256 . S
O1184 Co1164 2.062 . S
O1184 C1180 1.255 . S
O1185 C1165 1.259 . S
O1185 Co1166 2.021 . S
H1186 C1177 0.930 . S
H1187 C1176 0.931 . S
O1188 Co1164 2.117 . S
O1188 C1165 1.258 . S
O1189 Co1164 2.020 . S
O1189 C1191 1.256 . S
O1190 Co1166 2.062 . S
O1190 C1191 1.255 . S
C1191 O1189 1.256 . S
C1191 O1190 1.255 . S
H1192 C1171 0.931 . S
H1193 C1179 0.931 . S
Co1194 N1199 2.057 . S
Co1194 O1211 2.021 . S
Co1194 O1214 2.062 . S
Co1194 O1218 2.117 . S
Co1194 O1219 2.020 . S
C1195 O1215 1.259 . S
C1195 O1218 1.258 . S
Co1196 N1205 2.057 . S
Co1196 O1212 2.117 . S
Co1196 O1213 2.020 . S
Co1196 O1215 2.021 . S
Co1196 O1220 2.062 . S
C1197 N1199 1.316 . S
C1197 N1200 1.347 . S
C1197 H1202 0.931 . S
C1198 N1199 1.375 . S
C1198 C1201 1.350 . S
C1198 H1203 0.930 . S
N1199 Co1194 2.057 . S
N1199 C1197 1.316 . S
N1199 C1198 1.375 . S
N1200 C1197 1.347 . S
N1200 C1201 1.373 . S
C1201 C1198 1.350 . S
C1201 N1200 1.373 . S
C1201 H1222 0.931 . S
H1202 C1197 0.931 . S
H1203 C1198 0.930 . S
C1204 O1211 1.259 . S
C1204 O1212 1.258 . S
N1205 Co1196 2.057 . S
N1205 C1206 1.316 . S
N1205 C1207 1.375 . S
C1206 N1205 1.316 . S
C1206 N1208 1.347 . S
C1206 H1217 0.931 . S
C1207 N1205 1.375 . S
C1207 C1209 1.350 . S
C1207 H1216 0.930 . S
N1208 C1206 1.347 . S
N1208 C1209 1.373 . S
C1209 C1207 1.350 . S
C1209 N1208 1.373 . S
C1209 H1223 0.931 . S
C1210 O1213 1.256 . S
C1210 O1214 1.255 . S
O1211 Co1194 2.021 . S
O1211 C1204 1.259 . S
O1212 Co1196 2.117 . S
O1212 C1204 1.258 . S
O1213 Co1196 2.020 . S
O1213 C1210 1.256 . S
O1214 Co1194 2.062 . S
O1214 C1210 1.255 . S
O1215 C1195 1.259 . S
O1215 Co1196 2.021 . S
H1216 C1207 0.930 . S
H1217 C1206 0.931 . S
O1218 Co1194 2.117 . S
O1218 C1195 1.258 . S
O1219 Co1194 2.020 . S
O1219 C1221 1.256 . S
O1220 Co1196 2.062 . S
O1220 C1221 1.255 . S
C1221 O1219 1.256 . S
C1221 O1220 1.255 . S
H1222 C1201 0.931 . S
H1223 C1209 0.931 . S
Co1224 N1229 2.057 . S
Co1224 O1241 2.021 . S
Co1224 O1244 2.062 . S
Co1224 O1248 2.117 . S
Co1224 O1249 2.020 . S
C1225 O1245 1.259 . S
C1225 O1248 1.258 . S
Co1226 N1235 2.057 . S
Co1226 O1242 2.117 . S
Co1226 O1243 2.020 . S
Co1226 O1245 2.021 . S
Co1226 O1250 2.062 . S
C1227 N1229 1.316 . S
C1227 N1230 1.347 . S
C1227 H1232 0.931 . S
C1228 N1229 1.375 . S
C1228 C1231 1.350 . S
C1228 H1233 0.930 . S
N1229 Co1224 2.057 . S
N1229 C1227 1.316 . S
N1229 C1228 1.375 . S
N1230 C1227 1.347 . S
N1230 C1231 1.373 . S
C1231 C1228 1.350 . S
C1231 N1230 1.373 . S
C1231 H1252 0.931 . S
H1232 C1227 0.931 . S
H1233 C1228 0.930 . S
C1234 O1241 1.259 . S
C1234 O1242 1.258 . S
N1235 Co1226 2.057 . S
N1235 C1236 1.316 . S
N1235 C1237 1.375 . S
C1236 N1235 1.316 . S
C1236 N1238 1.347 . S
C1236 H1247 0.931 . S
C1237 N1235 1.375 . S
C1237 C1239 1.350 . S
C1237 H1246 0.930 . S
N1238 C1236 1.347 . S
N1238 C1239 1.373 . S
C1239 C1237 1.350 . S
C1239 N1238 1.373 . S
C1239 H1253 0.931 . S
C1240 O1243 1.256 . S
C1240 O1244 1.255 . S
O1241 Co1224 2.021 . S
O1241 C1234 1.259 . S
O1242 Co1226 2.117 . S
O1242 C1234 1.258 . S
O1243 Co1226 2.020 . S
O1243 C1240 1.256 . S
O1244 Co1224 2.062 . S
O1244 C1240 1.255 . S
O1245 C1225 1.259 . S
O1245 Co1226 2.021 . S
H1246 C1237 0.930 . S
H1247 C1236 0.931 . S
O1248 Co1224 2.117 . S
O1248 C1225 1.258 . S
O1249 Co1224 2.020 . S
O1249 C1251 1.256 . S
O1250 Co1226 2.062 . S
O1250 C1251 1.255 . S
C1251 O1249 1.256 . S
C1251 O1250 1.255 . S
H1252 C1231 0.931 . S
H1253 C1239 0.931 . S
Co1254 N1259 2.057 . S
Co1254 O1271 2.021 . S
Co1254 O1274 2.062 . S
Co1254 O1278 2.117 . S
Co1254 O1279 2.020 . S
C1255 O1275 1.259 . S
C1255 O1278 1.258 . S
Co1256 N1265 2.057 . S
Co1256 O1272 2.117 . S
Co1256 O1273 2.020 . S
Co1256 O1275 2.021 . S
Co1256 O1280 2.062 . S
C1257 N1259 1.316 . S
C1257 N1260 1.347 . S
C1257 H1262 0.931 . S
C1258 N1259 1.375 . S
C1258 C1261 1.350 . S
C1258 H1263 0.930 . S
N1259 Co1254 2.057 . S
N1259 C1257 1.316 . S
N1259 C1258 1.375 . S
N1260 C1257 1.347 . S
N1260 C1261 1.373 . S
C1261 C1258 1.350 . S
C1261 N1260 1.373 . S
C1261 H1282 0.931 . S
H1262 C1257 0.931 . S
H1263 C1258 0.930 . S
C1264 O1271 1.259 . S
C1264 O1272 1.258 . S
N1265 Co1256 2.057 . S
N1265 C1266 1.316 . S
N1265 C1267 1.375 . S
C1266 N1265 1.316 . S
C1266 N1268 1.347 . S
C1266 H1277 0.931 . S
C1267 N1265 1.375 . S
C1267 C1269 1.350 . S
C1267 H1276 0.930 . S
N1268 C1266 1.347 . S
N1268 C1269 1.373 . S
C1269 C1267 1.350 . S
C1269 N1268 1.373 . S
C1269 H1283 0.931 . S
C1270 O1273 1.256 . S
C1270 O1274 1.255 . S
O1271 Co1254 2.021 . S
O1271 C1264 1.259 . S
O1272 Co1256 2.117 . S
O1272 C1264 1.258 . S
O1273 Co1256 2.020 . S
O1273 C1270 1.256 . S
O1274 Co1254 2.062 . S
O1274 C1270 1.255 . S
O1275 C1255 1.259 . S
O1275 Co1256 2.021 . S
H1276 C1267 0.930 . S
H1277 C1266 0.931 . S
O1278 Co1254 2.117 . S
O1278 C1255 1.258 . S
O1279 Co1254 2.020 . S
O1279 C1281 1.256 . S
O1280 Co1256 2.062 . S
O1280 C1281 1.255 . S
C1281 O1279 1.256 . S
C1281 O1280 1.255 . S
H1282 C1261 0.931 . S
H1283 C1269 0.931 . S
Co1284 N1289 2.057 . S
Co1284 O1301 2.021 . S
Co1284 O1304 2.062 . S
Co1284 O1308 2.117 . S
Co1284 O1309 2.020 . S
C1285 O1305 1.259 . S
C1285 O1308 1.258 . S
Co1286 N1295 2.057 . S
Co1286 O1302 2.117 . S
Co1286 O1303 2.020 . S
Co1286 O1305 2.021 . S
Co1286 O1310 2.062 . S
C1287 N1289 1.316 . S
C1287 N1290 1.347 . S
C1287 H1292 0.931 . S
C1288 N1289 1.375 . S
C1288 C1291 1.350 . S
C1288 H1293 0.930 . S
N1289 Co1284 2.057 . S
N1289 C1287 1.316 . S
N1289 C1288 1.375 . S
N1290 C1287 1.347 . S
N1290 C1291 1.373 . S
C1291 C1288 1.350 . S
C1291 N1290 1.373 . S
C1291 H1312 0.931 . S
H1292 C1287 0.931 . S
H1293 C1288 0.930 . S
C1294 O1301 1.259 . S
C1294 O1302 1.258 . S
N1295 Co1286 2.057 . S
N1295 C1296 1.316 . S
N1295 C1297 1.375 . S
C1296 N1295 1.316 . S
C1296 N1298 1.347 . S
C1296 H1307 0.931 . S
C1297 N1295 1.375 . S
C1297 C1299 1.350 . S
C1297 H1306 0.930 . S
N1298 C1296 1.347 . S
N1298 C1299 1.373 . S
C1299 C1297 1.350 . S
C1299 N1298 1.373 . S
C1299 H1313 0.931 . S
C1300 O1303 1.256 . S
C1300 O1304 1.255 . S
O1301 Co1284 2.021 . S
O1301 C1294 1.259 . S
O1302 Co1286 2.117 . S
O1302 C1294 1.258 . S
O1303 Co1286 2.020 . S
O1303 C1300 1.256 . S
O1304 Co1284 2.062 . S
O1304 C1300 1.255 . S
O1305 C1285 1.259 . S
O1305 Co1286 2.021 . S
H1306 C1297 0.930 . S
H1307 C1296 0.931 . S
O1308 Co1284 2.117 . S
O1308 C1285 1.258 . S
O1309 Co1284 2.020 . S
O1309 C1311 1.256 . S
O1310 Co1286 2.062 . S
O1310 C1311 1.255 . S
C1311 O1309 1.256 . S
C1311 O1310 1.255 . S
H1312 C1291 0.931 . S
H1313 C1299 0.931 . S
Co1314 N1319 2.057 1_455 S
Co1314 O1331 2.021 . S
Co1314 O1334 2.062 1_455 S
Co1314 O1338 2.117 . S
Co1314 O1339 2.020 1_554 S
C1315 O1335 1.259 . S
C1315 O1338 1.258 . S
Co1316 N1325 2.057 . S
Co1316 O1332 2.117 . S
Co1316 O1333 2.020 . S
Co1316 O1335 2.021 . S
Co1316 O1340 2.062 1_554 S
C1317 N1319 1.316 . S
C1317 N1320 1.347 . S
C1317 H1322 0.931 . S
C1318 N1319 1.375 . S
C1318 C1321 1.350 . S
C1318 H1323 0.930 1_554 S
N1319 Co1314 2.057 1_655 S
N1319 C1317 1.316 . S
N1319 C1318 1.375 . S
N1320 C1317 1.347 . S
N1320 C1321 1.373 . S
C1321 C1318 1.350 . S
C1321 N1320 1.373 . S
C1321 H1342 0.931 1_554 S
H1322 C1317 0.931 . S
H1323 C1318 0.930 1_556 S
C1324 O1331 1.259 . S
C1324 O1332 1.258 . S
N1325 Co1316 2.057 . S
N1325 C1326 1.316 . S
N1325 C1327 1.375 . S
C1326 N1325 1.316 . S
C1326 N1328 1.347 . S
C1326 H1337 0.931 . S
C1327 N1325 1.375 . S
C1327 C1329 1.350 . S
C1327 H1336 0.930 . S
N1328 C1326 1.347 . S
N1328 C1329 1.373 . S
C1329 C1327 1.350 . S
C1329 N1328 1.373 . S
C1329 H1343 0.931 . S
C1330 O1333 1.256 . S
C1330 O1334 1.255 1_455 S
O1331 Co1314 2.021 . S
O1331 C1324 1.259 . S
O1332 Co1316 2.117 . S
O1332 C1324 1.258 . S
O1333 Co1316 2.020 . S
O1333 C1330 1.256 . S
O1334 Co1314 2.062 1_655 S
O1334 C1330 1.255 1_655 S
O1335 C1315 1.259 . S
O1335 Co1316 2.021 . S
H1336 C1327 0.930 . S
H1337 C1326 0.931 . S
O1338 Co1314 2.117 . S
O1338 C1315 1.258 . S
O1339 Co1314 2.020 1_556 S
O1339 C1341 1.256 . S
O1340 Co1316 2.062 1_556 S
O1340 C1341 1.255 . S
C1341 O1339 1.256 . S
C1341 O1340 1.255 . S
H1342 C1321 0.931 1_556 S
H1343 C1329 0.931 . S
C1344 C1345 1.369 . S
C1344 C1346 1.419 . S
C1344 H1348 0.930 . S
C1345 C1344 1.369 . S
C1345 C1354 1.429 . S
C1346 C1344 1.419 . S
C1346 C1347 1.363 . S
C1346 H1349 0.929 . S
C1347 C1346 1.363 . S
C1347 C1353 1.428 . S
H1348 C1344 0.930 . S
H1349 C1346 0.929 . S
S1350 N1351 1.613 . S
S1350 N1352 1.610 . S
N1351 S1350 1.613 . S
N1351 C1354 1.350 . S
N1352 S1350 1.610 . S
N1352 C1353 1.351 . S
C1353 C1347 1.428 . S
C1353 N1352 1.351 . S
C1353 C1354 1.434 . S
C1354 C1345 1.429 . S
C1354 N1351 1.350 . S
C1354 C1353 1.434 . S
C1355 C1356 1.369 . S
C1355 C1357 1.419 . S
C1355 H1359 0.930 . S
C1356 C1355 1.369 . S
C1356 C1365 1.429 . S
C1357 C1355 1.419 . S
C1357 C1358 1.363 . S
C1357 H1360 0.929 . S
C1358 C1357 1.363 . S
C1358 C1364 1.428 . S
H1359 C1355 0.930 . S
H1360 C1357 0.929 . S
S1361 N1362 1.613 . S
S1361 N1363 1.610 . S
N1362 S1361 1.613 . S
N1362 C1365 1.350 . S
N1363 S1361 1.610 . S
N1363 C1364 1.351 . S
C1364 C1358 1.428 . S
C1364 N1363 1.351 . S
C1364 C1365 1.434 . S
C1365 C1356 1.429 . S
C1365 N1362 1.350 . S
C1365 C1364 1.434 . S
C1366 C1367 1.369 . S
C1366 C1368 1.419 . S
C1366 H1370 0.930 . S
C1367 C1366 1.369 . S
C1367 C1376 1.429 . S
C1368 C1366 1.419 . S
C1368 C1369 1.363 . S
C1368 H1371 0.929 . S
C1369 C1368 1.363 . S
C1369 C1375 1.428 . S
H1370 C1366 0.930 . S
H1371 C1368 0.929 . S
S1372 N1373 1.613 . S
S1372 N1374 1.610 . S
N1373 S1372 1.613 . S
N1373 C1376 1.350 . S
N1374 S1372 1.610 . S
N1374 C1375 1.351 . S
C1375 C1369 1.428 . S
C1375 N1374 1.351 . S
C1375 C1376 1.434 . S
C1376 C1367 1.429 . S
C1376 N1373 1.350 . S
C1376 C1375 1.434 . S
C1377 C1378 1.369 . S
C1377 C1379 1.419 . S
C1377 H1381 0.930 . S
C1378 C1377 1.369 . S
C1378 C1387 1.429 . S
C1379 C1377 1.419 . S
C1379 C1380 1.363 . S
C1379 H1382 0.929 . S
C1380 C1379 1.363 . S
C1380 C1386 1.428 . S
H1381 C1377 0.930 . S
H1382 C1379 0.929 . S
S1383 N1384 1.613 . S
S1383 N1385 1.610 . S
N1384 S1383 1.613 . S
N1384 C1387 1.350 . S
N1385 S1383 1.610 . S
N1385 C1386 1.351 . S
C1386 C1380 1.428 . S
C1386 N1385 1.351 . S
C1386 C1387 1.434 . S
C1387 C1378 1.429 . S
C1387 N1384 1.350 . S
C1387 C1386 1.434 . S
C1388 C1389 1.369 . S
C1388 C1390 1.419 . S
C1388 H1392 0.930 . S
C1389 C1388 1.369 . S
C1389 C1398 1.429 . S
C1390 C1388 1.419 . S
C1390 C1391 1.363 . S
C1390 H1393 0.929 1_455 S
C1391 C1390 1.363 . S
C1391 C1397 1.428 . S
H1392 C1388 0.930 . S
H1393 C1390 0.929 1_655 S
S1394 N1395 1.613 . S
S1394 N1396 1.610 . S
N1395 S1394 1.613 . S
N1395 C1398 1.350 . S
N1396 S1394 1.610 . S
N1396 C1397 1.351 . S
C1397 C1391 1.428 . S
C1397 N1396 1.351 . S
C1397 C1398 1.434 . S
C1398 C1389 1.429 . S
C1398 N1395 1.350 . S
C1398 C1397 1.434 . S
C1399 C1400 1.369 . S
C1399 C1401 1.419 . S
C1399 H1403 0.930 . S
C1400 C1399 1.369 . S
C1400 C1409 1.429 . S
C1401 C1399 1.419 . S
C1401 C1402 1.363 . S
C1401 H1404 0.929 . S
C1402 C1401 1.363 . S
C1402 C1408 1.428 . S
H1403 C1399 0.930 . S
H1404 C1401 0.929 . S
S1405 N1406 1.613 . S
S1405 N1407 1.610 . S
N1406 S1405 1.613 . S
N1406 C1409 1.350 . S
N1407 S1405 1.610 . S
N1407 C1408 1.351 . S
C1408 C1402 1.428 . S
C1408 N1407 1.351 . S
C1408 C1409 1.434 . S
C1409 C1400 1.429 . S
C1409 N1406 1.350 . S
C1409 C1408 1.434 . S
C1410 C1411 1.369 . S
C1410 C1412 1.419 . S
C1410 H1414 0.930 . S
C1411 C1410 1.369 . S
C1411 C1420 1.429 . S
C1412 C1410 1.419 . S
C1412 C1413 1.363 . S
C1412 H1415 0.929 1_556 S
C1413 C1412 1.363 . S
C1413 C1419 1.428 . S
H1414 C1410 0.930 . S
H1415 C1412 0.929 1_554 S
S1416 N1417 1.613 . S
S1416 N1418 1.610 . S
N1417 S1416 1.613 . S
N1417 C1420 1.350 . S
N1418 S1416 1.610 . S
N1418 C1419 1.351 . S
C1419 C1413 1.428 . S
C1419 N1418 1.351 . S
C1419 C1420 1.434 . S
C1420 C1411 1.429 . S
C1420 N1417 1.350 . S
C1420 C1419 1.434 . S
C1421 C1422 1.369 . S
C1421 C1423 1.419 . S
C1421 H1425 0.930 . S
C1422 C1421 1.369 . S
C1422 C1431 1.429 . S
C1423 C1421 1.419 . S
C1423 C1424 1.363 . S
C1423 H1426 0.929 . S
C1424 C1423 1.363 . S
C1424 C1430 1.428 . S
H1425 C1421 0.930 . S
H1426 C1423 0.929 . S
S1427 N1428 1.613 . S
S1427 N1429 1.610 . S
N1428 S1427 1.613 . S
N1428 C1431 1.350 . S
N1429 S1427 1.610 . S
N1429 C1430 1.351 . S
C1430 C1424 1.428 . S
C1430 N1429 1.351 . S
C1430 C1431 1.434 . S
C1431 C1422 1.429 . S
C1431 N1428 1.350 . S
C1431 C1430 1.434 . S
C1432 C1433 1.369 . S
C1432 C1434 1.419 . S
C1432 H1436 0.930 . S
C1433 C1432 1.369 . S
C1433 C1442 1.429 1_545 S
C1434 C1432 1.419 . S
C1434 C1435 1.363 . S
C1434 H1437 0.929 . S
C1435 C1434 1.363 . S
C1435 C1441 1.428 1_545 S
H1436 C1432 0.930 . S
H1437 C1434 0.929 . S
S1438 N1439 1.613 . S
S1438 N1440 1.610 . S
N1439 S1438 1.613 . S
N1439 C1442 1.350 . S
N1440 S1438 1.610 . S
N1440 C1441 1.351 . S
C1441 C1435 1.428 1_565 S
C1441 N1440 1.351 . S
C1441 C1442 1.434 . S
C1442 C1433 1.429 1_565 S
C1442 N1439 1.350 . S
C1442 C1441 1.434 . S
C1443 C1444 1.369 . S
C1443 C1445 1.419 . S
C1443 H1447 0.930 . S
C1444 C1443 1.369 . S
C1444 C1453 1.429 . S
C1445 C1443 1.419 . S
C1445 C1446 1.363 . S
C1445 H1448 0.929 . S
C1446 C1445 1.363 . S
C1446 C1452 1.428 . S
H1447 C1443 0.930 . S
H1448 C1445 0.929 . S
S1449 N1450 1.613 . S
S1449 N1451 1.610 . S
N1450 S1449 1.613 . S
N1450 C1453 1.350 . S
N1451 S1449 1.610 . S
N1451 C1452 1.351 . S
C1452 C1446 1.428 . S
C1452 N1451 1.351 . S
C1452 C1453 1.434 . S
C1453 C1444 1.429 . S
C1453 N1450 1.350 . S
C1453 C1452 1.434 . S
C1454 C1455 1.369 . S
C1454 C1456 1.419 . S
C1454 H1458 0.930 . S
C1455 C1454 1.369 . S
C1455 C1464 1.429 . S
C1456 C1454 1.419 . S
C1456 C1457 1.363 . S
C1456 H1459 0.929 . S
C1457 C1456 1.363 . S
C1457 C1463 1.428 . S
H1458 C1454 0.930 . S
H1459 C1456 0.929 . S
S1460 N1461 1.613 1_565 S
S1460 N1462 1.610 1_565 S
N1461 S1460 1.613 1_545 S
N1461 C1464 1.350 . S
N1462 S1460 1.610 1_545 S
N1462 C1463 1.351 . S
C1463 C1457 1.428 . S
C1463 N1462 1.351 . S
C1463 C1464 1.434 . S
C1464 C1455 1.429 . S
C1464 N1461 1.350 . S
C1464 C1463 1.434 . S
C1465 C1466 1.369 . S
C1465 C1467 1.419 . S
C1465 H1469 0.930 . S
C1466 C1465 1.369 . S
C1466 C1475 1.429 . S
C1467 C1465 1.419 . S
C1467 C1468 1.363 . S
C1467 H1470 0.929 . S
C1468 C1467 1.363 . S
C1468 C1474 1.428 . S
H1469 C1465 0.930 . S
H1470 C1467 0.929 . S
S1471 N1472 1.613 . S
S1471 N1473 1.610 . S
N1472 S1471 1.613 . S
N1472 C1475 1.350 . S
N1473 S1471 1.610 . S
N1473 C1474 1.351 . S
C1474 C1468 1.428 . S
C1474 N1473 1.351 . S
C1474 C1475 1.434 . S
C1475 C1466 1.429 . S
C1475 N1472 1.350 . S
C1475 C1474 1.434 . S
C1476 C1477 1.369 . S
C1476 C1478 1.419 . S
C1476 H1480 0.930 1_545 S
C1477 C1476 1.369 . S
C1477 C1486 1.429 . S
C1478 C1476 1.419 . S
C1478 C1479 1.363 . S
C1478 H1481 0.929 . S
C1479 C1478 1.363 . S
C1479 C1485 1.428 . S
H1480 C1476 0.930 1_565 S
H1481 C1478 0.929 . S
S1482 N1483 1.613 . S
S1482 N1484 1.610 . S
N1483 S1482 1.613 . S
N1483 C1486 1.350 . S
N1484 S1482 1.610 . S
N1484 C1485 1.351 . S
C1485 C1479 1.428 . S
C1485 N1484 1.351 . S
C1485 C1486 1.434 . S
C1486 C1477 1.429 . S
C1486 N1483 1.350 . S
C1486 C1485 1.434 . S
C1487 C1488 1.369 . S
C1487 C1489 1.419 . S
C1487 H1491 0.930 . S
C1488 C1487 1.369 . S
C1488 C1497 1.429 . S
C1489 C1487 1.419 . S
C1489 C1490 1.363 . S
C1489 H1492 0.929 . S
C1490 C1489 1.363 . S
C1490 C1496 1.428 . S
H1491 C1487 0.930 . S
H1492 C1489 0.929 . S
S1493 N1494 1.613 . S
S1493 N1495 1.610 . S
N1494 S1493 1.613 . S
N1494 C1497 1.350 . S
N1495 S1493 1.610 . S
N1495 C1496 1.351 . S
C1496 C1490 1.428 . S
C1496 N1495 1.351 . S
C1496 C1497 1.434 . S
C1497 C1488 1.429 . S
C1497 N1494 1.350 . S
C1497 C1496 1.434 . S
C1498 C1499 1.369 . S
C1498 C1500 1.419 . S
C1498 H1502 0.930 . S
C1499 C1498 1.369 . S
C1499 C1508 1.429 . S
C1500 C1498 1.419 . S
C1500 C1501 1.363 . S
C1500 H1503 0.936 . S
C1501 C1500 1.363 . S
C1501 C1507 1.428 . S
H1502 C1498 0.930 . S
H1503 C1500 0.936 . S
S1504 N1505 1.613 . S
S1504 N1506 1.610 . S
N1505 S1504 1.613 . S
N1505 C1508 1.350 . S
N1506 S1504 1.610 . S
N1506 C1507 1.351 . S
C1507 C1501 1.428 . S
C1507 N1506 1.351 . S
C1507 C1508 1.434 . S
C1508 C1499 1.429 . S
C1508 N1505 1.350 . S
C1508 C1507 1.434 . S
C1509 C1510 1.369 . S
C1509 C1511 1.419 . S
C1509 H1513 0.930 . S
C1510 C1509 1.369 . S
C1510 C1519 1.429 . S
C1511 C1509 1.419 . S
C1511 C1512 1.363 . S
C1511 H1514 0.929 . S
C1512 C1511 1.363 . S
C1512 C1518 1.428 . S
H1513 C1509 0.930 . S
H1514 C1511 0.929 . S
S1515 N1516 1.613 . S
S1515 N1517 1.610 . S
N1516 S1515 1.613 . S
N1516 C1519 1.350 . S
N1517 S1515 1.610 . S
N1517 C1518 1.351 . S
C1518 C1512 1.428 . S
C1518 N1517 1.351 . S
C1518 C1519 1.434 . S
C1519 C1510 1.429 . S
C1519 N1516 1.350 . S
C1519 C1518 1.434 . S
C1520 C1521 1.369 . S
C1520 C1522 1.419 . S
C1520 H1524 0.930 . S
C1521 C1520 1.369 . S
C1521 C1530 1.429 . S
C1522 C1520 1.419 . S
C1522 C1523 1.363 . S
C1522 H1525 0.929 . S
C1523 C1522 1.363 . S
C1523 C1529 1.428 . S
H1524 C1520 0.930 . S
H1525 C1522 0.929 . S
S1526 N1527 1.613 . S
S1526 N1528 1.610 . S
N1527 S1526 1.613 . S
N1527 C1530 1.350 . S
N1528 S1526 1.610 . S
N1528 C1529 1.351 . S
C1529 C1523 1.428 . S
C1529 N1528 1.351 . S
C1529 C1530 1.434 . S
C1530 C1521 1.429 . S
C1530 N1527 1.350 . S
C1530 C1529 1.434 . S
C1531 C1532 1.369 . S
C1531 C1533 1.419 . S
C1531 H1535 0.930 . S
C1532 C1531 1.369 . S
C1532 C1541 1.429 . S
C1533 C1531 1.419 . S
C1533 C1534 1.363 . S
C1533 H1536 0.929 . S
C1534 C1533 1.363 . S
C1534 C1540 1.428 . S
H1535 C1531 0.930 . S
H1536 C1533 0.929 . S
S1537 N1538 1.613 1_556 S
S1537 N1539 1.621 . S
N1538 S1537 1.613 1_554 S
N1538 C1541 1.350 . S
N1539 S1537 1.621 . S
N1539 C1540 1.330 1_556 S
C1540 C1534 1.428 . S
C1540 N1539 1.330 1_554 S
C1540 C1541 1.434 . S
C1541 C1532 1.429 . S
C1541 N1538 1.350 . S
C1541 C1540 1.434 . S
C1542 C1543 1.369 . S
C1542 C1544 1.419 . S
C1542 H1546 0.930 . S
C1543 C1542 1.369 . S
C1543 C1552 1.429 . S
C1544 C1542 1.419 . S
C1544 C1545 1.363 . S
C1544 H1547 0.929 . S
C1545 C1544 1.363 . S
C1545 C1551 1.428 . S
H1546 C1542 0.930 . S
H1547 C1544 0.929 . S
S1548 N1549 1.613 . S
S1548 N1550 1.610 . S
N1549 S1548 1.613 . S
N1549 C1552 1.350 . S
N1550 S1548 1.610 . S
N1550 C1551 1.351 . S
C1551 C1545 1.428 . S
C1551 N1550 1.351 . S
C1551 C1552 1.434 . S
C1552 C1543 1.429 . S
C1552 N1549 1.350 . S
C1552 C1551 1.434 . S
C1553 C1554 1.369 . S
C1553 C1555 1.419 . S
C1553 H1557 0.930 . S
C1554 C1553 1.369 . S
C1554 C1563 1.429 . S
C1555 C1553 1.419 . S
C1555 C1556 1.363 . S
C1555 H1558 0.929 . S
C1556 C1555 1.363 . S
C1556 C1562 1.428 . S
H1557 C1553 0.930 . S
H1558 C1555 0.929 . S
S1559 N1560 1.613 . S
S1559 N1561 1.610 . S
N1560 S1559 1.613 . S
N1560 C1563 1.350 . S
N1561 S1559 1.610 . S
N1561 C1562 1.351 . S
C1562 C1556 1.428 . S
C1562 N1561 1.351 . S
C1562 C1563 1.434 . S
C1563 C1554 1.429 . S
C1563 N1560 1.350 . S
C1563 C1562 1.434 . S
C1564 C1565 1.369 . S
C1564 C1566 1.419 . S
C1564 H1568 0.930 . S
C1565 C1564 1.369 . S
C1565 C1574 1.429 . S
C1566 C1564 1.419 . S
C1566 C1567 1.363 . S
C1566 H1569 0.929 . S
C1567 C1566 1.363 . S
C1567 C1573 1.428 . S
H1568 C1564 0.930 . S
H1569 C1566 0.929 . S
S1570 N1571 1.613 . S
S1570 N1572 1.610 . S
N1571 S1570 1.613 . S
N1571 C1574 1.350 . S
N1572 S1570 1.610 . S
N1572 C1573 1.351 . S
C1573 C1567 1.428 . S
C1573 N1572 1.351 . S
C1573 C1574 1.434 . S
C1574 C1565 1.429 . S
C1574 N1571 1.350 . S
C1574 C1573 1.434 . S
C1575 C1576 1.369 . S
C1575 C1577 1.419 . S
C1575 H1579 0.930 . S
C1576 C1575 1.369 . S
C1576 C1585 1.429 . S
C1577 C1575 1.419 . S
C1577 C1578 1.363 . S
C1577 H1580 0.929 . S
C1578 C1577 1.363 . S
C1578 C1584 1.428 . S
H1579 C1575 0.930 . S
H1580 C1577 0.929 . S
S1581 N1582 1.613 1_545 S
S1581 N1583 1.610 . S
N1582 S1581 1.613 1_565 S
N1582 C1585 1.350 . S
N1583 S1581 1.610 . S
N1583 C1584 1.351 1_545 S
C1584 C1578 1.428 . S
C1584 N1583 1.351 1_565 S
C1584 C1585 1.434 . S
C1585 C1576 1.429 . S
C1585 N1582 1.350 . S
C1585 C1584 1.434 . S
C1586 C1587 1.369 . S
C1586 C1588 1.419 . S
C1586 H1590 0.930 . S
C1587 C1586 1.369 . S
C1587 C1596 1.429 . S
C1588 C1586 1.419 . S
C1588 C1589 1.363 . S
C1588 H1591 0.929 . S
C1589 C1588 1.363 . S
C1589 C1595 1.428 . S
H1590 C1586 0.930 . S
H1591 C1588 0.929 . S
S1592 N1593 1.613 . S
S1592 N1594 1.610 . S
N1593 S1592 1.613 . S
N1593 C1596 1.350 . S
N1594 S1592 1.610 . S
N1594 C1595 1.351 . S
C1595 C1589 1.428 . S
C1595 N1594 1.351 . S
C1595 C1596 1.434 . S
C1596 C1587 1.429 . S
C1596 N1593 1.350 . S
C1596 C1595 1.434 . S
C1597 C1598 1.369 . S
C1597 C1599 1.419 . S
C1597 H1601 0.930 . S
C1598 C1597 1.369 . S
C1598 C1607 1.429 . S
C1599 C1597 1.419 . S
C1599 C1600 1.363 . S
C1599 H1602 0.929 . S
C1600 C1599 1.363 . S
C1600 C1606 1.428 . S
H1601 C1597 0.930 . S
H1602 C1599 0.929 . S
S1603 N1604 1.613 . S
S1603 N1605 1.610 . S
N1604 S1603 1.613 . S
N1604 C1607 1.350 . S
N1605 S1603 1.610 . S
N1605 C1606 1.351 . S
C1606 C1600 1.428 . S
C1606 N1605 1.351 . S
C1606 C1607 1.434 . S
C1607 C1598 1.429 . S
C1607 N1604 1.350 . S
C1607 C1606 1.434 . S
C1608 C1609 1.369 . S
C1608 C1610 1.419 . S
C1608 H1612 0.930 1_455 S
C1609 C1608 1.369 . S
C1609 C1618 1.429 . S
C1610 C1608 1.419 . S
C1610 C1611 1.363 . S
C1610 H1613 0.929 1_556 S
C1611 C1610 1.363 . S
C1611 C1617 1.428 . S
H1612 C1608 0.930 1_655 S
H1613 C1610 0.929 1_554 S
S1614 N1615 1.613 . S
S1614 N1616 1.610 . S
N1615 S1614 1.613 . S
N1615 C1618 1.350 . S
N1616 S1614 1.610 . S
N1616 C1617 1.351 . S
C1617 C1611 1.428 . S
C1617 N1616 1.351 . S
C1617 C1618 1.434 . S
C1618 C1609 1.429 . S
C1618 N1615 1.350 . S
C1618 C1617 1.434 . S
C1619 C1620 1.369 . S
C1619 C1621 1.419 . S
C1619 H1623 0.930 . S
C1620 C1619 1.369 . S
C1620 C1629 1.429 . S
C1621 C1619 1.419 . S
C1621 C1622 1.363 . S
C1621 H1624 0.929 . S
C1622 C1621 1.363 . S
C1622 C1628 1.428 . S
H1623 C1619 0.930 . S
H1624 C1621 0.929 . S
S1625 N1626 1.613 . S
S1625 N1627 1.610 . S
N1626 S1625 1.613 . S
N1626 C1629 1.350 . S
N1627 S1625 1.610 . S
N1627 C1628 1.351 . S
C1628 C1622 1.428 . S
C1628 N1627 1.351 . S
C1628 C1629 1.434 . S
C1629 C1620 1.429 . S
C1629 N1626 1.350 . S
C1629 C1628 1.434 . S
C1630 C1631 1.369 . S
C1630 C1632 1.419 . S
C1630 H1634 0.930 . S
C1631 C1630 1.369 . S
C1631 C1640 1.429 . S
C1632 C1630 1.419 . S
C1632 C1633 1.363 . S
C1632 H1635 0.929 . S
C1633 C1632 1.363 . S
C1633 C1639 1.428 . S
H1634 C1630 0.930 . S
H1635 C1632 0.929 . S
S1636 N1637 1.613 . S
S1636 N1638 1.610 . S
N1637 S1636 1.613 . S
N1637 C1640 1.350 . S
N1638 S1636 1.610 . S
N1638 C1639 1.351 . S
C1639 C1633 1.428 . S
C1639 N1638 1.351 . S
C1639 C1640 1.434 . S
C1640 C1631 1.429 . S
C1640 N1637 1.350 . S
C1640 C1639 1.434 . S
C1641 C1642 1.369 . S
C1641 C1643 1.419 . S
C1641 H1645 0.930 . S
C1642 C1641 1.369 . S
C1642 C1651 1.429 . S
C1643 C1641 1.419 . S
C1643 C1644 1.363 . S
C1643 H1646 0.929 . S
C1644 C1643 1.363 . S
C1644 C1650 1.428 . S
H1645 C1641 0.930 . S
H1646 C1643 0.929 . S
S1647 N1648 1.613 . S
S1647 N1649 1.610 . S
N1648 S1647 1.613 . S
N1648 C1651 1.350 . S
N1649 S1647 1.610 . S
N1649 C1650 1.351 . S
C1650 C1644 1.428 . S
C1650 N1649 1.351 . S
C1650 C1651 1.434 . S
C1651 C1642 1.429 . S
C1651 N1648 1.350 . S
C1651 C1650 1.434 . S
C1652 C1653 1.369 . S
C1652 C1654 1.419 . S
C1652 H1656 0.930 1_455 S
C1653 C1652 1.369 . S
C1653 C1662 1.429 . S
C1654 C1652 1.419 . S
C1654 C1655 1.363 . S
C1654 H1657 0.929 . S
C1655 C1654 1.363 . S
C1655 C1661 1.428 . S
H1656 C1652 0.930 1_655 S
H1657 C1654 0.929 . S
S1658 N1659 1.613 . S
S1658 N1660 1.610 . S
N1659 S1658 1.613 . S
N1659 C1662 1.350 . S
N1660 S1658 1.610 . S
N1660 C1661 1.351 . S
C1661 C1655 1.428 . S
C1661 N1660 1.351 . S
C1661 C1662 1.434 . S
C1662 C1653 1.429 . S
C1662 N1659 1.350 . S
C1662 C1661 1.434 . S
C1663 C1664 1.369 . S
C1663 C1665 1.419 . S
C1663 H1667 0.930 . S
C1664 C1663 1.369 . S
C1664 C1673 1.429 . S
C1665 C1663 1.419 . S
C1665 C1666 1.363 . S
C1665 H1668 0.929 . S
C1666 C1665 1.363 . S
C1666 C1672 1.428 . S
H1667 C1663 0.930 . S
H1668 C1665 0.929 . S
S1669 N1670 1.613 . S
S1669 N1671 1.610 . S
N1670 S1669 1.613 . S
N1670 C1673 1.350 . S
N1671 S1669 1.610 . S
N1671 C1672 1.351 . S
C1672 C1666 1.428 . S
C1672 N1671 1.351 . S
C1672 C1673 1.434 . S
C1673 C1664 1.429 . S
C1673 N1670 1.350 . S
C1673 C1672 1.434 . S
C1674 C1675 1.369 . S
C1674 C1676 1.419 . S
C1674 H1678 0.930 . S
C1675 C1674 1.369 . S
C1675 C1684 1.429 . S
C1676 C1674 1.419 . S
C1676 C1677 1.363 . S
C1676 H1679 0.929 . S
C1677 C1676 1.363 . S
C1677 C1683 1.428 . S
H1678 C1674 0.930 . S
H1679 C1676 0.929 . S
S1680 N1681 1.613 . S
S1680 N1682 1.610 . S
N1681 S1680 1.613 . S
N1681 C1684 1.350 . S
N1682 S1680 1.610 . S
N1682 C1683 1.351 . S
C1683 C1677 1.428 . S
C1683 N1682 1.351 . S
C1683 C1684 1.434 . S
C1684 C1675 1.429 . S
C1684 N1681 1.350 . S
C1684 C1683 1.434 . S
C1685 C1686 1.369 . S
C1685 C1687 1.419 . S
C1685 H1689 0.930 . S
C1686 C1685 1.369 . S
C1686 C1695 1.429 . S
C1687 C1685 1.419 . S
C1687 C1688 1.363 . S
C1687 H1690 0.929 . S
C1688 C1687 1.363 . S
C1688 C1694 1.428 . S
H1689 C1685 0.930 . S
H1690 C1687 0.929 . S
S1691 N1692 1.613 . S
S1691 N1693 1.610 . S
N1692 S1691 1.613 . S
N1692 C1695 1.350 . S
N1693 S1691 1.610 . S
N1693 C1694 1.351 . S
C1694 C1688 1.428 . S
C1694 N1693 1.351 . S
C1694 C1695 1.434 . S
C1695 C1686 1.429 . S
C1695 N1692 1.350 . S
C1695 C1694 1.434 . S
C1696 C1697 1.369 . S
C1696 C1698 1.419 . S
C1696 H1700 0.930 . S
C1697 C1696 1.369 . S
C1697 C1706 1.429 . S
C1698 C1696 1.419 . S
C1698 C1699 1.363 . S
C1698 H1701 0.929 . S
C1699 C1698 1.363 . S
C1699 C1705 1.428 . S
H1700 C1696 0.930 . S
H1701 C1698 0.929 . S
S1702 N1703 1.613 1_565 S
S1702 N1704 1.610 1_565 S
N1703 S1702 1.613 1_545 S
N1703 C1706 1.350 . S
N1704 S1702 1.610 1_545 S
N1704 C1705 1.351 . S
C1705 C1699 1.428 . S
C1705 N1704 1.351 . S
C1705 C1706 1.434 . S
C1706 C1697 1.429 . S
C1706 N1703 1.350 . S
C1706 C1705 1.434 . S
C1707 C1708 1.369 . S
C1707 C1709 1.419 . S
C1707 H1711 0.930 . S
C1708 C1707 1.369 . S
C1708 C1717 1.429 . S
C1709 C1707 1.419 . S
C1709 C1710 1.363 . S
C1709 H1712 0.929 . S
C1710 C1709 1.363 . S
C1710 C1716 1.428 . S
H1711 C1707 0.930 . S
H1712 C1709 0.929 . S
S1713 N1714 1.613 . S
S1713 N1715 1.610 . S
N1714 S1713 1.613 . S
N1714 C1717 1.350 . S
N1715 S1713 1.610 . S
N1715 C1716 1.351 . S
C1716 C1710 1.428 . S
C1716 N1715 1.351 . S
C1716 C1717 1.434 . S
C1717 C1708 1.429 . S
C1717 N1714 1.350 . S
C1717 C1716 1.434 . S
C1718 C1719 1.369 . S
C1718 C1720 1.419 . S
C1718 H1722 0.926 1_545 S
C1719 C1718 1.369 . S
C1719 C1728 1.429 . S
C1720 C1718 1.419 . S
C1720 C1721 1.363 . S
C1720 H1723 0.929 . S
C1721 C1720 1.363 . S
C1721 C1727 1.428 . S
H1722 C1718 0.926 1_565 S
H1723 C1720 0.929 . S
S1724 N1725 1.613 . S
S1724 N1726 1.610 . S
N1725 S1724 1.613 . S
N1725 C1728 1.350 . S
N1726 S1724 1.610 . S
N1726 C1727 1.351 . S
C1727 C1721 1.428 . S
C1727 N1726 1.351 . S
C1727 C1728 1.434 . S
C1728 C1719 1.429 . S
C1728 N1725 1.350 . S
C1728 C1727 1.434 . S
C1729 C1730 1.369 . S
C1729 C1731 1.419 . S
C1729 H1733 0.930 . S
C1730 C1729 1.369 . S
C1730 C1739 1.429 . S
C1731 C1729 1.419 . S
C1731 C1732 1.363 . S
C1731 H1734 0.929 . S
C1732 C1731 1.363 . S
C1732 C1738 1.428 . S
H1733 C1729 0.930 . S
H1734 C1731 0.929 . S
S1735 N1736 1.613 . S
S1735 N1737 1.610 . S
N1736 S1735 1.613 . S
N1736 C1739 1.350 . S
N1737 S1735 1.610 . S
N1737 C1738 1.351 . S
C1738 C1732 1.428 . S
C1738 N1737 1.351 . S
C1738 C1739 1.434 . S
C1739 C1730 1.429 . S
C1739 N1736 1.350 . S
C1739 C1738 1.434 . S
C1740 C1741 1.369 . S
C1740 C1742 1.419 . S
C1740 H1744 0.930 . S
C1741 C1740 1.369 . S
C1741 C1750 1.429 . S
C1742 C1740 1.419 . S
C1742 C1743 1.363 . S
C1742 H1745 0.929 1_545 S
C1743 C1742 1.363 . S
C1743 C1749 1.428 . S
H1744 C1740 0.930 . S
H1745 C1742 0.929 1_565 S
S1746 N1747 1.613 . S
S1746 N1748 1.610 1_655 S
N1747 S1746 1.613 . S
N1747 C1750 1.350 . S
N1748 S1746 1.610 1_455 S
N1748 C1749 1.351 1_455 S
C1749 C1743 1.428 . S
C1749 N1748 1.351 1_655 S
C1749 C1750 1.434 . S
C1750 C1741 1.429 . S
C1750 N1747 1.350 . S
C1750 C1749 1.434 . S
C1751 C1752 1.369 . S
C1751 C1753 1.419 . S
C1751 H1755 0.930 . S
C1752 C1751 1.369 . S
C1752 C1761 1.429 . S
C1753 C1751 1.419 . S
C1753 C1754 1.363 . S
C1753 H1756 0.929 . S
C1754 C1753 1.363 . S
C1754 C1760 1.428 . S
H1755 C1751 0.930 . S
H1756 C1753 0.929 . S
S1757 N1758 1.613 . S
S1757 N1759 1.610 . S
N1758 S1757 1.613 . S
N1758 C1761 1.350 . S
N1759 S1757 1.610 . S
N1759 C1760 1.351 . S
C1760 C1754 1.428 . S
C1760 N1759 1.351 . S
C1760 C1761 1.434 . S
C1761 C1752 1.429 . S
C1761 N1758 1.350 . S
C1761 C1760 1.434 . S
C1762 C1763 1.369 . S
C1762 C1764 1.419 . S
C1762 H1766 0.930 1_545 S
C1763 C1762 1.369 . S
C1763 C1772 1.429 . S
C1764 C1762 1.419 . S
C1764 C1765 1.363 . S
C1764 H1767 0.929 . S
C1765 C1764 1.363 . S
C1765 C1771 1.428 . S
H1766 C1762 0.930 1_565 S
H1767 C1764 0.929 . S
S1768 N1769 1.613 . S
S1768 N1770 1.610 . S
N1769 S1768 1.613 . S
N1769 C1772 1.350 . S
N1770 S1768 1.610 . S
N1770 C1771 1.351 . S
C1771 C1765 1.428 . S
C1771 N1770 1.351 . S
C1771 C1772 1.434 . S
C1772 C1763 1.429 . S
C1772 N1769 1.350 . S
C1772 C1771 1.434 . S
C1773 C1774 1.369 . S
C1773 C1775 1.419 . S
C1773 H1777 0.930 . S
C1774 C1773 1.369 . S
C1774 C1783 1.429 . S
C1775 C1773 1.419 . S
C1775 C1776 1.363 . S
C1775 H1778 0.929 . S
C1776 C1775 1.363 . S
C1776 C1782 1.428 . S
H1777 C1773 0.930 . S
H1778 C1775 0.929 . S
S1779 N1780 1.613 . S
S1779 N1781 1.610 . S
N1780 S1779 1.613 . S
N1780 C1783 1.350 . S
N1781 S1779 1.610 . S
N1781 C1782 1.351 . S
C1782 C1776 1.428 . S
C1782 N1781 1.351 . S
C1782 C1783 1.434 . S
C1783 C1774 1.429 . S
C1783 N1780 1.350 . S
C1783 C1782 1.434 . S
C1784 C1785 1.369 . S
C1784 C1786 1.419 . S
C1784 H1788 0.930 . S
C1785 C1784 1.369 . S
C1785 C1794 1.429 . S
C1786 C1784 1.419 . S
C1786 C1787 1.363 1_565 S
C1786 H1789 0.929 . S
C1787 C1786 1.363 1_545 S
C1787 C1793 1.428 . S
H1788 C1784 0.930 . S
H1789 C1786 0.929 . S
S1790 N1791 1.613 . S
S1790 N1792 1.610 . S
N1791 S1790 1.613 . S
N1791 C1794 1.350 1_545 S
N1792 S1790 1.610 . S
N1792 C1793 1.351 . S
C1793 C1787 1.428 . S
C1793 N1792 1.351 . S
C1793 C1794 1.434 1_545 S
C1794 C1785 1.429 . S
C1794 N1791 1.350 1_565 S
C1794 C1793 1.434 1_565 S
C1795 C1796 1.375 . S
C1795 C1797 1.419 . S
C1795 H1799 0.930 . S
C1796 C1795 1.375 . S
C1796 C1805 1.418 1_556 S
C1797 C1795 1.419 . S
C1797 C1798 1.363 1_556 S
C1797 H1800 0.929 . S
C1798 C1797 1.363 1_554 S
C1798 C1804 1.428 . S
H1799 C1795 0.930 . S
H1800 C1797 0.929 . S
S1801 N1802 1.613 . S
S1801 N1803 1.610 . S
N1802 S1801 1.613 . S
N1802 C1805 1.350 . S
N1803 S1801 1.610 . S
N1803 C1804 1.351 . S
C1804 C1798 1.428 . S
C1804 N1803 1.351 . S
C1804 C1805 1.434 . S
C1805 C1796 1.418 1_554 S
C1805 N1802 1.350 . S
C1805 C1804 1.434 . S
C1806 C1807 1.369 . S
C1806 C1808 1.419 . S
C1806 H1810 0.930 . S
C1807 C1806 1.369 . S
C1807 C1816 1.429 . S
C1808 C1806 1.419 . S
C1808 C1809 1.363 . S
C1808 H1811 0.929 . S
C1809 C1808 1.363 . S
C1809 C1815 1.428 . S
H1810 C1806 0.930 . S
H1811 C1808 0.929 . S
S1812 N1813 1.613 . S
S1812 N1814 1.610 . S
N1813 S1812 1.613 . S
N1813 C1816 1.350 . S
N1814 S1812 1.610 . S
N1814 C1815 1.351 . S
C1815 C1809 1.428 . S
C1815 N1814 1.351 . S
C1815 C1816 1.434 . S
C1816 C1807 1.429 . S
C1816 N1813 1.350 . S
C1816 C1815 1.434 . S
C1817 C1818 1.369 . S
C1817 C1819 1.419 . S
C1817 H1821 0.930 . S
C1818 C1817 1.369 . S
C1818 C1827 1.429 . S
C1819 C1817 1.419 . S
C1819 C1820 1.363 . S
C1819 H1822 0.929 . S
C1820 C1819 1.363 . S
C1820 C1826 1.428 . S
H1821 C1817 0.930 . S
H1822 C1819 0.929 . S
S1823 N1824 1.613 . S
S1823 N1825 1.610 . S
N1824 S1823 1.613 . S
N1824 C1827 1.350 . S
N1825 S1823 1.610 . S
N1825 C1826 1.351 . S
C1826 C1820 1.428 . S
C1826 N1825 1.351 . S
C1826 C1827 1.434 . S
C1827 C1818 1.429 . S
C1827 N1824 1.350 . S
C1827 C1826 1.434 . S
C1828 C1829 1.359 1_565 S
C1828 C1830 1.419 . S
C1828 H1832 0.930 . S
C1829 C1828 1.359 1_545 S
C1829 C1838 1.426 1_545 S
C1830 C1828 1.419 . S
C1830 C1831 1.363 . S
C1830 H1833 0.929 . S
C1831 C1830 1.363 . S
C1831 C1837 1.428 . S
H1832 C1828 0.930 . S
H1833 C1830 0.929 . S
S1834 N1835 1.613 1_565 S
S1834 N1836 1.610 . S
N1835 S1834 1.613 1_545 S
N1835 C1838 1.350 1_545 S
N1836 S1834 1.610 . S
N1836 C1837 1.351 . S
C1837 C1831 1.428 . S
C1837 N1836 1.351 . S
C1837 C1838 1.434 . S
C1838 C1829 1.426 1_565 S
C1838 N1835 1.350 1_565 S
C1838 C1837 1.434 . S
C1839 C1840 1.369 . S
C1839 C1841 1.419 . S
C1839 H1843 0.930 . S
C1840 C1839 1.369 . S
C1840 C1849 1.429 . S
C1841 C1839 1.419 . S
C1841 C1842 1.363 . S
C1841 H1844 0.929 . S
C1842 C1841 1.363 . S
C1842 C1848 1.428 . S
H1843 C1839 0.930 . S
H1844 C1841 0.929 . S
S1845 N1846 1.613 . S
S1845 N1847 1.610 . S
N1846 S1845 1.613 . S
N1846 C1849 1.350 . S
N1847 S1845 1.610 . S
N1847 C1848 1.351 . S
C1848 C1842 1.428 . S
C1848 N1847 1.351 . S
C1848 C1849 1.434 . S
C1849 C1840 1.429 . S
C1849 N1846 1.350 . S
C1849 C1848 1.434 . S
C1850 C1851 1.369 . S
C1850 C1852 1.419 . S
C1850 H1854 0.930 . S
C1851 C1850 1.369 . S
C1851 C1860 1.429 . S
C1852 C1850 1.419 . S
C1852 C1853 1.363 . S
C1852 H1855 0.929 . S
C1853 C1852 1.363 . S
C1853 C1859 1.428 . S
H1854 C1850 0.930 . S
H1855 C1852 0.929 . S
S1856 N1857 1.613 . S
S1856 N1858 1.610 . S
N1857 S1856 1.613 . S
N1857 C1860 1.350 . S
N1858 S1856 1.610 . S
N1858 C1859 1.351 . S
C1859 C1853 1.428 . S
C1859 N1858 1.351 . S
C1859 C1860 1.434 . S
C1860 C1851 1.429 . S
C1860 N1857 1.350 . S
C1860 C1859 1.434 . S
C1861 C1862 1.369 . S
C1861 C1863 1.419 . S
C1861 H1865 0.930 . S
C1862 C1861 1.369 . S
C1862 C1871 1.429 . S
C1863 C1861 1.419 . S
C1863 C1864 1.363 . S
C1863 H1866 0.929 . S
C1864 C1863 1.363 . S
C1864 C1870 1.428 . S
H1865 C1861 0.930 . S
H1866 C1863 0.929 . S
S1867 N1868 1.613 . S
S1867 N1869 1.610 . S
N1868 S1867 1.613 . S
N1868 C1871 1.350 . S
N1869 S1867 1.610 . S
N1869 C1870 1.351 . S
C1870 C1864 1.428 . S
C1870 N1869 1.351 . S
C1870 C1871 1.434 . S
C1871 C1862 1.429 . S
C1871 N1868 1.350 . S
C1871 C1870 1.434 . S
C1872 C1873 1.369 . S
C1872 C1874 1.419 . S
C1872 H1876 0.930 . S
C1873 C1872 1.369 . S
C1873 C1882 1.429 . S
C1874 C1872 1.419 . S
C1874 C1875 1.363 . S
C1874 H1877 0.929 . S
C1875 C1874 1.363 . S
C1875 C1881 1.428 . S
H1876 C1872 0.930 . S
H1877 C1874 0.929 . S
S1878 N1879 1.613 . S
S1878 N1880 1.610 . S
N1879 S1878 1.613 . S
N1879 C1882 1.350 . S
N1880 S1878 1.610 . S
N1880 C1881 1.351 . S
C1881 C1875 1.428 . S
C1881 N1880 1.351 . S
C1881 C1882 1.434 . S
C1882 C1873 1.429 . S
C1882 N1879 1.350 . S
C1882 C1881 1.434 . S
C1883 C1884 1.369 . S
C1883 C1885 1.419 . S
C1883 H1887 0.930 . S
C1884 C1883 1.369 . S
C1884 C1893 1.429 . S
C1885 C1883 1.419 . S
C1885 C1886 1.363 . S
C1885 H1888 0.929 . S
C1886 C1885 1.363 . S
C1886 C1892 1.428 . S
H1887 C1883 0.930 . S
H1888 C1885 0.929 . S
S1889 N1890 1.613 . S
S1889 N1891 1.610 . S
N1890 S1889 1.613 . S
N1890 C1893 1.350 . S
N1891 S1889 1.610 . S
N1891 C1892 1.351 . S
C1892 C1886 1.428 . S
C1892 N1891 1.351 . S
C1892 C1893 1.434 . S
C1893 C1884 1.429 . S
C1893 N1890 1.350 . S
C1893 C1892 1.434 . S
C1894 C1895 1.369 . S
C1894 C1896 1.419 . S
C1894 H1898 0.930 . S
C1895 C1894 1.369 . S
C1895 C1904 1.429 . S
C1896 C1894 1.419 . S
C1896 C1897 1.363 . S
C1896 H1899 0.929 . S
C1897 C1896 1.363 . S
C1897 C1903 1.428 . S
H1898 C1894 0.930 . S
H1899 C1896 0.929 . S
S1900 N1901 1.613 . S
S1900 N1902 1.610 1_655 S
N1901 S1900 1.613 . S
N1901 C1904 1.350 1_655 S
N1902 S1900 1.610 1_455 S
N1902 C1903 1.351 . S
C1903 C1897 1.428 . S
C1903 N1902 1.351 . S
C1903 C1904 1.434 . S
C1904 C1895 1.429 . S
C1904 N1901 1.350 1_455 S
C1904 C1903 1.434 . S
C1905 C1906 1.369 . S
C1905 C1907 1.419 . S
C1905 H1909 0.930 . S
C1906 C1905 1.369 . S
C1906 C1915 1.429 . S
C1907 C1905 1.419 . S
C1907 C1908 1.363 . S
C1907 H1910 0.929 . S
C1908 C1907 1.363 . S
C1908 C1914 1.428 . S
H1909 C1905 0.930 . S
H1910 C1907 0.929 . S
S1911 N1912 1.613 . S
S1911 N1913 1.610 1_455 S
N1912 S1911 1.613 . S
N1912 C1915 1.350 1_455 S
N1913 S1911 1.610 1_655 S
N1913 C1914 1.351 . S
C1914 C1908 1.428 . S
C1914 N1913 1.351 . S
C1914 C1915 1.434 . S
C1915 C1906 1.429 . S
C1915 N1912 1.350 1_655 S
C1915 C1914 1.434 . S
C1916 C1917 1.369 . S
C1916 C1918 1.419 . S
C1916 H1920 0.930 . S
C1917 C1916 1.369 . S
C1917 C1926 1.429 . S
C1918 C1916 1.419 . S
C1918 C1919 1.363 . S
C1918 H1921 0.929 1_556 S
C1919 C1918 1.363 . S
C1919 C1925 1.428 . S
H1920 C1916 0.930 . S
H1921 C1918 0.929 1_554 S
S1922 N1923 1.613 . S
S1922 N1924 1.610 . S
N1923 S1922 1.613 . S
N1923 C1926 1.350 . S
N1924 S1922 1.610 . S
N1924 C1925 1.351 . S
C1925 C1919 1.428 . S
C1925 N1924 1.351 . S
C1925 C1926 1.434 . S
C1926 C1917 1.429 . S
C1926 N1923 1.350 . S
C1926 C1925 1.434 . S
C1927 C1928 1.369 . S
C1927 C1929 1.419 . S
C1927 H1931 0.930 . S
C1928 C1927 1.369 . S
C1928 C1937 1.429 . S
C1929 C1927 1.419 . S
C1929 C1930 1.363 . S
C1929 H1932 0.929 . S
C1930 C1929 1.363 . S
C1930 C1936 1.428 . S
H1931 C1927 0.930 . S
H1932 C1929 0.929 . S
S1933 N1934 1.613 . S
S1933 N1935 1.610 . S
N1934 S1933 1.613 . S
N1934 C1937 1.350 . S
N1935 S1933 1.610 . S
N1935 C1936 1.351 . S
C1936 C1930 1.428 . S
C1936 N1935 1.351 . S
C1936 C1937 1.434 . S
C1937 C1928 1.429 . S
C1937 N1934 1.350 . S
C1937 C1936 1.434 . S
C1938 C1939 1.369 . S
C1938 C1940 1.419 . S
C1938 H1942 0.930 . S
C1939 C1938 1.369 . S
C1939 C1948 1.429 . S
C1940 C1938 1.419 . S
C1940 C1941 1.363 . S
C1940 H1943 0.929 . S
C1941 C1940 1.363 . S
C1941 C1947 1.428 . S
H1942 C1938 0.930 . S
H1943 C1940 0.929 . S
S1944 N1945 1.613 1_655 S
S1944 N1946 1.610 1_655 S
N1945 S1944 1.613 1_455 S
N1945 C1948 1.350 . S
N1946 S1944 1.610 1_455 S
N1946 C1947 1.351 . S
C1947 C1941 1.428 . S
C1947 N1946 1.351 . S
C1947 C1948 1.434 . S
C1948 C1939 1.429 . S
C1948 N1945 1.350 . S
C1948 C1947 1.434 . S
C1949 C1950 1.369 . S
C1949 C1951 1.419 . S
C1949 H1953 0.930 . S
C1950 C1949 1.369 . S
C1950 C1959 1.429 . S
C1951 C1949 1.419 . S
C1951 C1952 1.363 . S
C1951 H1954 0.929 . S
C1952 C1951 1.363 . S
C1952 C1958 1.428 . S
H1953 C1949 0.930 . S
H1954 C1951 0.929 . S
S1955 N1956 1.613 . S
S1955 N1957 1.610 . S
N1956 S1955 1.613 . S
N1956 C1959 1.350 . S
N1957 S1955 1.610 . S
N1957 C1958 1.351 . S
C1958 C1952 1.428 . S
C1958 N1957 1.351 . S
C1958 C1959 1.434 . S
C1959 C1950 1.429 . S
C1959 N1956 1.350 . S
C1959 C1958 1.434 . S
C1960 C1961 1.369 . S
C1960 C1962 1.419 . S
C1960 H1964 0.930 . S
C1961 C1960 1.369 . S
C1961 C1970 1.429 . S
C1962 C1960 1.419 . S
C1962 C1963 1.363 . S
C1962 H1965 0.929 . S
C1963 C1962 1.363 . S
C1963 C1969 1.428 . S
H1964 C1960 0.930 . S
H1965 C1962 0.929 . S
S1966 N1967 1.613 . S
S1966 N1968 1.610 . S
N1967 S1966 1.613 . S
N1967 C1970 1.350 . S
N1968 S1966 1.610 . S
N1968 C1969 1.351 . S
C1969 C1963 1.428 . S
C1969 N1968 1.351 . S
C1969 C1970 1.434 . S
C1970 C1961 1.429 . S
C1970 N1967 1.350 . S
C1970 C1969 1.434 . S
C1971 C1972 1.369 . S
C1971 C1973 1.419 . S
C1971 H1975 0.930 . S
C1972 C1971 1.369 . S
C1972 C1981 1.429 . S
C1973 C1971 1.419 . S
C1973 C1974 1.363 . S
C1973 H1976 0.929 . S
C1974 C1973 1.363 . S
C1974 C1980 1.428 . S
H1975 C1971 0.930 . S
H1976 C1973 0.929 . S
S1977 N1978 1.613 . S
S1977 N1979 1.610 . S
N1978 S1977 1.613 . S
N1978 C1981 1.350 . S
N1979 S1977 1.610 . S
N1979 C1980 1.351 . S
C1980 C1974 1.428 . S
C1980 N1979 1.351 . S
C1980 C1981 1.434 . S
C1981 C1972 1.429 . S
C1981 N1978 1.350 . S
C1981 C1980 1.434 . S
C1982 C1983 1.369 . S
C1982 C1984 1.419 1_655 S
C1982 H1986 0.930 . S
C1983 C1982 1.369 . S
C1983 C1992 1.429 . S
C1984 C1982 1.419 1_455 S
C1984 C1985 1.363 1_455 S
C1984 H1987 0.929 . S
C1985 C1984 1.363 1_655 S
C1985 C1991 1.428 . S
H1986 C1982 0.930 . S
H1987 C1984 0.929 . S
S1988 N1989 1.613 . S
S1988 N1990 1.610 . S
N1989 S1988 1.613 . S
N1989 C1992 1.350 . S
N1990 S1988 1.610 . S
N1990 C1991 1.351 . S
C1991 C1985 1.428 . S
C1991 N1990 1.351 . S
C1991 C1992 1.434 . S
C1992 C1983 1.429 . S
C1992 N1989 1.350 . S
C1992 C1991 1.434 . S
C1993 C1994 1.369 . S
C1993 C1995 1.419 . S
C1993 H1997 0.930 . S
C1994 C1993 1.369 . S
C1994 C2003 1.429 . S
C1995 C1993 1.419 . S
C1995 C1996 1.363 . S
C1995 H1998 0.929 . S
C1996 C1995 1.363 . S
C1996 C2002 1.428 . S
H1997 C1993 0.930 . S
H1998 C1995 0.929 . S
S1999 N2000 1.613 . S
S1999 N2001 1.610 . S
N2000 S1999 1.613 . S
N2000 C2003 1.350 . S
N2001 S1999 1.610 . S
N2001 C2002 1.351 . S
C2002 C1996 1.428 . S
C2002 N2001 1.351 . S
C2002 C2003 1.434 . S
C2003 C1994 1.429 . S
C2003 N2000 1.350 . S
C2003 C2002 1.434 . S
C2004 C2005 1.369 . S
C2004 C2006 1.419 . S
C2004 H2008 0.930 . S
C2005 C2004 1.369 . S
C2005 C2014 1.429 . S
C2006 C2004 1.419 . S
C2006 C2007 1.363 . S
C2006 H2009 0.929 . S
C2007 C2006 1.363 . S
C2007 C2013 1.428 . S
H2008 C2004 0.930 . S
H2009 C2006 0.929 . S
S2010 N2011 1.613 . S
S2010 N2012 1.610 . S
N2011 S2010 1.613 . S
N2011 C2014 1.350 . S
N2012 S2010 1.610 . S
N2012 C2013 1.351 . S
C2013 C2007 1.428 . S
C2013 N2012 1.351 . S
C2013 C2014 1.434 . S
C2014 C2005 1.429 . S
C2014 N2011 1.350 . S
C2014 C2013 1.434 . S
C2015 C2016 1.369 . S
C2015 C2017 1.419 . S
C2015 H2019 0.930 . S
C2016 C2015 1.369 . S
C2016 C2025 1.429 . S
C2017 C2015 1.419 . S
C2017 C2018 1.363 . S
C2017 H2020 0.929 . S
C2018 C2017 1.363 . S
C2018 C2024 1.428 . S
H2019 C2015 0.930 . S
H2020 C2017 0.929 . S
S2021 N2022 1.613 . S
S2021 N2023 1.610 . S
N2022 S2021 1.613 . S
N2022 C2025 1.350 . S
N2023 S2021 1.610 . S
N2023 C2024 1.351 . S
C2024 C2018 1.428 . S
C2024 N2023 1.351 . S
C2024 C2025 1.434 . S
C2025 C2016 1.429 . S
C2025 N2022 1.350 . S
C2025 C2024 1.434 . S
C2026 C2027 1.369 . S
C2026 C2028 1.419 . S
C2026 H2030 0.930 . S
C2027 C2026 1.369 . S
C2027 C2036 1.429 . S
C2028 C2026 1.419 . S
C2028 C2029 1.363 . S
C2028 H2031 0.929 1_655 S
C2029 C2028 1.363 . S
C2029 C2035 1.428 . S
H2030 C2026 0.930 . S
H2031 C2028 0.929 1_455 S
S2032 N2033 1.613 . S
S2032 N2034 1.610 . S
N2033 S2032 1.613 . S
N2033 C2036 1.350 . S
N2034 S2032 1.610 . S
N2034 C2035 1.351 . S
C2035 C2029 1.428 . S
C2035 N2034 1.351 . S
C2035 C2036 1.434 . S
C2036 C2027 1.429 . S
C2036 N2033 1.350 . S
C2036 C2035 1.434 . S
C2037 C2038 1.369 . S
C2037 C2039 1.419 . S
C2037 H2041 0.930 . S
C2038 C2037 1.369 . S
C2038 C2047 1.429 . S
C2039 C2037 1.419 . S
C2039 C2040 1.363 . S
C2039 H2042 0.929 . S
C2040 C2039 1.363 . S
C2040 C2046 1.428 . S
H2041 C2037 0.930 . S
H2042 C2039 0.929 . S
S2043 N2044 1.613 . S
S2043 N2045 1.610 . S
N2044 S2043 1.613 . S
N2044 C2047 1.350 . S
N2045 S2043 1.610 . S
N2045 C2046 1.351 . S
C2046 C2040 1.428 . S
C2046 N2045 1.351 . S
C2046 C2047 1.434 . S
C2047 C2038 1.429 . S
C2047 N2044 1.350 . S
C2047 C2046 1.434 . S
C2048 C2049 1.369 . S
C2048 C2050 1.419 . S
C2048 H2052 0.930 . S
C2049 C2048 1.369 . S
C2049 C2058 1.429 . S
C2050 C2048 1.419 . S
C2050 C2051 1.363 . S
C2050 H2053 0.929 . S
C2051 C2050 1.363 . S
C2051 C2057 1.428 . S
H2052 C2048 0.930 . S
H2053 C2050 0.929 . S
S2054 N2055 1.613 . S
S2054 N2056 1.610 . S
N2055 S2054 1.613 . S
N2055 C2058 1.350 . S
N2056 S2054 1.610 . S
N2056 C2057 1.351 . S
C2057 C2051 1.428 . S
C2057 N2056 1.351 . S
C2057 C2058 1.434 . S
C2058 C2049 1.429 . S
C2058 N2055 1.350 . S
C2058 C2057 1.434 . S
C2059 C2060 1.369 . S
C2059 C2061 1.419 . S
C2059 H2063 0.930 . S
C2060 C2059 1.369 . S
C2060 C2069 1.429 . S
C2061 C2059 1.419 . S
C2061 C2062 1.363 1_565 S
C2061 H2064 0.929 . S
C2062 C2061 1.363 1_545 S
C2062 C2068 1.428 . S
H2063 C2059 0.930 . S
H2064 C2061 0.929 . S
S2065 N2066 1.613 . S
S2065 N2067 1.610 . S
N2066 S2065 1.613 . S
N2066 C2069 1.350 1_545 S
N2067 S2065 1.610 . S
N2067 C2068 1.351 . S
C2068 C2062 1.428 . S
C2068 N2067 1.351 . S
C2068 C2069 1.434 1_545 S
C2069 C2060 1.429 . S
C2069 N2066 1.350 1_565 S
C2069 C2068 1.434 1_565 S
C2070 C2071 1.372 . S
C2070 C2072 1.440 . S
C2070 H2074 0.906 1_565 S
C2071 C2070 1.372 . S
C2071 C2080 1.429 . S
C2072 C2070 1.440 . S
C2072 C2073 1.363 . S
C2072 H2075 0.929 . S
C2073 C2072 1.363 . S
C2073 C2079 1.428 . S
H2074 C2070 0.906 1_545 S
H2075 C2072 0.929 . S
S2076 N2077 1.613 . S
S2076 N2078 1.610 . S
N2077 S2076 1.613 . S
N2077 C2080 1.350 . S
N2078 S2076 1.610 . S
N2078 C2079 1.351 . S
C2079 C2073 1.428 . S
C2079 N2078 1.351 . S
C2079 C2080 1.434 . S
C2080 C2071 1.429 . S
C2080 N2077 1.350 . S
C2080 C2079 1.434 . S
C2081 C2082 1.369 . S
C2081 C2083 1.419 . S
C2081 H2085 0.930 . S
C2082 C2081 1.369 . S
C2082 C2091 1.429 . S
C2083 C2081 1.419 . S
C2083 C2084 1.363 . S
C2083 H2086 0.929 . S
C2084 C2083 1.363 . S
C2084 C2090 1.428 . S
H2085 C2081 0.930 . S
H2086 C2083 0.929 . S
S2087 N2088 1.613 . S
S2087 N2089 1.610 . S
N2088 S2087 1.613 . S
N2088 C2091 1.350 . S
N2089 S2087 1.610 . S
N2089 C2090 1.351 . S
C2090 C2084 1.428 . S
C2090 N2089 1.351 . S
C2090 C2091 1.434 . S
C2091 C2082 1.429 . S
C2091 N2088 1.350 . S
C2091 C2090 1.434 . S
C2092 C2093 1.369 . S
C2092 C2094 1.419 . S
C2092 H2096 0.930 . S
C2093 C2092 1.369 . S
C2093 C2102 1.429 . S
C2094 C2092 1.419 . S
C2094 C2095 1.363 . S
C2094 H2097 0.929 . S
C2095 C2094 1.363 . S
C2095 C2101 1.428 . S
H2096 C2092 0.930 . S
H2097 C2094 0.929 . S
S2098 N2099 1.613 . S
S2098 N2100 1.610 . S
N2099 S2098 1.613 . S
N2099 C2102 1.350 . S
N2100 S2098 1.610 . S
N2100 C2101 1.351 . S
C2101 C2095 1.428 . S
C2101 N2100 1.351 . S
C2101 C2102 1.434 . S
C2102 C2093 1.429 . S
C2102 N2099 1.350 . S
C2102 C2101 1.434 . S
C2103 C2104 1.369 . S
C2103 C2105 1.419 . S
C2103 H2107 0.930 . S
C2104 C2103 1.369 . S
C2104 C2113 1.429 . S
C2105 C2103 1.419 . S
C2105 C2106 1.363 . S
C2105 H2108 0.929 1_554 S
C2106 C2105 1.363 . S
C2106 C2112 1.428 . S
H2107 C2103 0.930 . S
H2108 C2105 0.929 1_556 S
S2109 N2110 1.613 . S
S2109 N2111 1.610 . S
N2110 S2109 1.613 . S
N2110 C2113 1.350 . S
N2111 S2109 1.610 . S
N2111 C2112 1.351 . S
C2112 C2106 1.428 . S
C2112 N2111 1.351 . S
C2112 C2113 1.434 . S
C2113 C2104 1.429 . S
C2113 N2110 1.350 . S
C2113 C2112 1.434 . S
C2114 C2115 1.369 . S
C2114 C2116 1.419 . S
C2114 H2118 0.930 . S
C2115 C2114 1.369 . S
C2115 C2124 1.429 . S
C2116 C2114 1.419 . S
C2116 C2117 1.363 . S
C2116 H2119 0.929 . S
C2117 C2116 1.363 . S
C2117 C2123 1.428 . S
H2118 C2114 0.930 . S
H2119 C2116 0.929 . S
S2120 N2121 1.613 . S
S2120 N2122 1.610 . S
N2121 S2120 1.613 . S
N2121 C2124 1.350 . S
N2122 S2120 1.610 . S
N2122 C2123 1.351 . S
C2123 C2117 1.428 . S
C2123 N2122 1.351 . S
C2123 C2124 1.434 . S
C2124 C2115 1.429 . S
C2124 N2121 1.350 . S
C2124 C2123 1.434 . S
C2125 C2126 1.369 . S
C2125 C2127 1.419 . S
C2125 H2129 0.930 . S
C2126 C2125 1.369 . S
C2126 C2135 1.429 . S
C2127 C2125 1.419 . S
C2127 C2128 1.363 . S
C2127 H2130 0.929 . S
C2128 C2127 1.363 . S
C2128 C2134 1.428 . S
H2129 C2125 0.930 . S
H2130 C2127 0.929 . S
S2131 N2132 1.613 . S
S2131 N2133 1.610 . S
N2132 S2131 1.613 . S
N2132 C2135 1.350 . S
N2133 S2131 1.610 . S
N2133 C2134 1.351 . S
C2134 C2128 1.428 . S
C2134 N2133 1.351 . S
C2134 C2135 1.434 . S
C2135 C2126 1.429 . S
C2135 N2132 1.350 . S
C2135 C2134 1.434 . S
C2136 C2137 1.369 . S
C2136 C2138 1.419 . S
C2136 H2140 0.930 . S
C2137 C2136 1.369 . S
C2137 C2146 1.429 . S
C2138 C2136 1.419 . S
C2138 C2139 1.363 . S
C2138 H2141 0.929 . S
C2139 C2138 1.363 . S
C2139 C2145 1.428 . S
H2140 C2136 0.930 . S
H2141 C2138 0.929 . S
S2142 N2143 1.613 . S
S2142 N2144 1.610 . S
N2143 S2142 1.613 . S
N2143 C2146 1.350 . S
N2144 S2142 1.610 . S
N2144 C2145 1.351 . S
C2145 C2139 1.428 . S
C2145 N2144 1.351 . S
C2145 C2146 1.434 . S
C2146 C2137 1.429 . S
C2146 N2143 1.350 . S
C2146 C2145 1.434 . S
C2147 C2148 1.369 . S
C2147 C2149 1.419 . S
C2147 H2151 0.930 . S
C2148 C2147 1.369 . S
C2148 C2157 1.429 . S
C2149 C2147 1.419 . S
C2149 C2150 1.363 . S
C2149 H2152 0.929 . S
C2150 C2149 1.363 . S
C2150 C2156 1.428 . S
H2151 C2147 0.930 . S
H2152 C2149 0.929 . S
S2153 N2154 1.613 . S
S2153 N2155 1.610 . S
N2154 S2153 1.613 . S
N2154 C2157 1.350 . S
N2155 S2153 1.610 . S
N2155 C2156 1.351 . S
C2156 C2150 1.428 . S
C2156 N2155 1.351 . S
C2156 C2157 1.434 . S
C2157 C2148 1.429 . S
C2157 N2154 1.350 . S
C2157 C2156 1.434 . S
C2158 C2159 1.367 . S
C2158 C2160 1.419 1_455 S
C2158 H2162 0.932 1_455 S
C2159 C2158 1.367 . S
C2159 C2168 1.429 . S
C2160 C2158 1.419 1_655 S
C2160 C2161 1.363 1_655 S
C2160 H2163 0.929 1_556 S
C2161 C2160 1.363 1_455 S
C2161 C2167 1.428 . S
H2162 C2158 0.932 1_655 S
H2163 C2160 0.929 1_554 S
S2164 N2165 1.613 . S
S2164 N2166 1.610 . S
N2165 S2164 1.613 . S
N2165 C2168 1.350 . S
N2166 S2164 1.610 . S
N2166 C2167 1.351 . S
C2167 C2161 1.428 . S
C2167 N2166 1.351 . S
C2167 C2168 1.434 . S
C2168 C2159 1.429 . S
C2168 N2165 1.350 . S
C2168 C2167 1.434 . S
C2169 C2170 1.369 . S
C2169 C2171 1.419 . S
C2169 H2173 0.930 . S
C2170 C2169 1.369 . S
C2170 C2179 1.429 . S
C2171 C2169 1.419 . S
C2171 C2172 1.363 . S
C2171 H2174 0.929 . S
C2172 C2171 1.363 . S
C2172 C2178 1.428 . S
H2173 C2169 0.930 . S
H2174 C2171 0.929 . S
S2175 N2176 1.613 . S
S2175 N2177 1.610 . S
N2176 S2175 1.613 . S
N2176 C2179 1.350 . S
N2177 S2175 1.610 . S
N2177 C2178 1.351 . S
C2178 C2172 1.428 . S
C2178 N2177 1.351 . S
C2178 C2179 1.434 . S
C2179 C2170 1.429 . S
C2179 N2176 1.350 . S
C2179 C2178 1.434 . S
C2180 C2181 1.369 . S
C2180 C2182 1.419 . S
C2180 H2184 0.930 . S
C2181 C2180 1.369 . S
C2181 C2190 1.429 . S
C2182 C2180 1.419 . S
C2182 C2183 1.363 . S
C2182 H2185 0.929 . S
C2183 C2182 1.363 . S
C2183 C2189 1.428 . S
H2184 C2180 0.930 . S
H2185 C2182 0.929 . S
S2186 N2187 1.613 . S
S2186 N2188 1.610 . S
N2187 S2186 1.613 . S
N2187 C2190 1.350 . S
N2188 S2186 1.610 . S
N2188 C2189 1.351 . S
C2189 C2183 1.428 . S
C2189 N2188 1.351 . S
C2189 C2190 1.434 . S
C2190 C2181 1.429 . S
C2190 N2187 1.350 . S
C2190 C2189 1.434 . S
C2191 C2192 1.369 . S
C2191 C2193 1.419 . S
C2191 H2195 0.930 . S
C2192 C2191 1.369 . S
C2192 C2201 1.429 . S
C2193 C2191 1.419 . S
C2193 C2194 1.363 . S
C2193 H2196 0.929 . S
C2194 C2193 1.363 . S
C2194 C2200 1.428 . S
H2195 C2191 0.930 . S
H2196 C2193 0.929 . S
S2197 N2198 1.613 . S
S2197 N2199 1.610 . S
N2198 S2197 1.613 . S
N2198 C2201 1.350 . S
N2199 S2197 1.610 . S
N2199 C2200 1.351 . S
C2200 C2194 1.428 . S
C2200 N2199 1.351 . S
C2200 C2201 1.434 . S
C2201 C2192 1.429 . S
C2201 N2198 1.350 . S
C2201 C2200 1.434 . S
C2202 C2203 1.372 . S
C2202 C2204 1.419 . S
C2202 H2206 0.930 . S
C2203 C2202 1.372 . S
C2203 C2212 1.430 1_455 S
C2204 C2202 1.419 . S
C2204 C2205 1.363 . S
C2204 H2207 0.929 . S
C2205 C2204 1.363 . S
C2205 C2211 1.428 . S
H2206 C2202 0.930 . S
H2207 C2204 0.929 . S
S2208 N2209 1.613 . S
S2208 N2210 1.604 1_655 S
N2209 S2208 1.613 . S
N2209 C2212 1.354 . S
N2210 S2208 1.604 1_455 S
N2210 C2211 1.353 . S
C2211 C2205 1.428 . S
C2211 N2210 1.353 . S
C2211 C2212 1.430 1_455 S
C2212 C2203 1.430 1_655 S
C2212 N2209 1.354 . S
C2212 C2211 1.430 1_655 S
C2213 C2214 1.369 . S
C2213 C2215 1.419 . S
C2213 H2217 0.930 . S
C2214 C2213 1.369 . S
C2214 C2223 1.429 . S
C2215 C2213 1.419 . S
C2215 C2216 1.363 . S
C2215 H2218 0.929 . S
C2216 C2215 1.363 . S
C2216 C2222 1.428 . S
H2217 C2213 0.930 . S
H2218 C2215 0.929 . S
S2219 N2220 1.613 . S
S2219 N2221 1.610 . S
N2220 S2219 1.613 . S
N2220 C2223 1.350 . S
N2221 S2219 1.610 . S
N2221 C2222 1.351 . S
C2222 C2216 1.428 . S
C2222 N2221 1.351 . S
C2222 C2223 1.434 . S
C2223 C2214 1.429 . S
C2223 N2220 1.350 . S
C2223 C2222 1.434 . S
C2224 C2225 1.369 . S
C2224 C2226 1.419 . S
C2224 H2228 0.930 . S
C2225 C2224 1.369 . S
C2225 C2234 1.429 . S
C2226 C2224 1.419 . S
C2226 C2227 1.363 . S
C2226 H2229 0.929 . S
C2227 C2226 1.363 . S
C2227 C2233 1.428 . S
H2228 C2224 0.930 . S
H2229 C2226 0.929 . S
S2230 N2231 1.613 . S
S2230 N2232 1.610 . S
N2231 S2230 1.613 . S
N2231 C2234 1.350 . S
N2232 S2230 1.610 . S
N2232 C2233 1.351 . S
C2233 C2227 1.428 . S
C2233 N2232 1.351 . S
C2233 C2234 1.434 . S
C2234 C2225 1.429 . S
C2234 N2231 1.350 . S
C2234 C2233 1.434 . S
C2235 C2236 1.369 . S
C2235 C2237 1.419 . S
C2235 H2239 0.930 . S
C2236 C2235 1.369 . S
C2236 C2245 1.429 . S
C2237 C2235 1.419 . S
C2237 C2238 1.363 . S
C2237 H2240 0.929 . S
C2238 C2237 1.363 . S
C2238 C2244 1.428 . S
H2239 C2235 0.930 . S
H2240 C2237 0.929 . S
S2241 N2242 1.613 . S
S2241 N2243 1.610 . S
N2242 S2241 1.613 . S
N2242 C2245 1.350 . S
N2243 S2241 1.610 . S
N2243 C2244 1.351 . S
C2244 C2238 1.428 . S
C2244 N2243 1.351 . S
C2244 C2245 1.434 . S
C2245 C2236 1.429 . S
C2245 N2242 1.350 . S
C2245 C2244 1.434 . S
C2246 C2247 1.369 . S
C2246 C2248 1.419 . S
C2246 H2250 0.930 . S
C2247 C2246 1.369 . S
C2247 C2256 1.429 . S
C2248 C2246 1.419 . S
C2248 C2249 1.363 . S
C2248 H2251 0.929 . S
C2249 C2248 1.363 . S
C2249 C2255 1.428 . S
H2250 C2246 0.930 . S
H2251 C2248 0.929 . S
S2252 N2253 1.613 . S
S2252 N2254 1.610 . S
N2253 S2252 1.613 . S
N2253 C2256 1.350 . S
N2254 S2252 1.610 . S
N2254 C2255 1.351 . S
C2255 C2249 1.428 . S
C2255 N2254 1.351 . S
C2255 C2256 1.434 . S
C2256 C2247 1.429 . S
C2256 N2253 1.350 . S
C2256 C2255 1.434 . S
C2257 C2258 1.369 . S
C2257 C2259 1.419 . S
C2257 H2261 0.930 . S
C2258 C2257 1.369 . S
C2258 C2267 1.429 . S
C2259 C2257 1.419 . S
C2259 C2260 1.363 . S
C2259 H2262 0.929 . S
C2260 C2259 1.363 . S
C2260 C2266 1.428 . S
H2261 C2257 0.930 . S
H2262 C2259 0.929 . S
S2263 N2264 1.613 . S
S2263 N2265 1.610 . S
N2264 S2263 1.613 . S
N2264 C2267 1.350 . S
N2265 S2263 1.610 . S
N2265 C2266 1.351 . S
C2266 C2260 1.428 . S
C2266 N2265 1.351 . S
C2266 C2267 1.434 . S
C2267 C2258 1.429 . S
C2267 N2264 1.350 . S
C2267 C2266 1.434 . S
C2268 C2269 1.369 . S
C2268 C2270 1.419 . S
C2268 H2272 0.930 . S
C2269 C2268 1.369 . S
C2269 C2278 1.429 . S
C2270 C2268 1.419 . S
C2270 C2271 1.363 . S
C2270 H2273 0.929 . S
C2271 C2270 1.363 . S
C2271 C2277 1.428 . S
H2272 C2268 0.930 . S
H2273 C2270 0.929 . S
S2274 N2275 1.613 . S
S2274 N2276 1.610 . S
N2275 S2274 1.613 . S
N2275 C2278 1.350 . S
N2276 S2274 1.610 . S
N2276 C2277 1.351 . S
C2277 C2271 1.428 . S
C2277 N2276 1.351 . S
C2277 C2278 1.434 . S
C2278 C2269 1.429 . S
C2278 N2275 1.350 . S
C2278 C2277 1.434 . S
C2279 C2280 1.369 . S
C2279 C2281 1.419 . S
C2279 H2283 0.930 . S
C2280 C2279 1.369 . S
C2280 C2289 1.429 . S
C2281 C2279 1.419 . S
C2281 C2282 1.363 . S
C2281 H2284 0.929 . S
C2282 C2281 1.363 . S
C2282 C2288 1.428 . S
H2283 C2279 0.930 . S
H2284 C2281 0.929 . S
S2285 N2286 1.613 . S
S2285 N2287 1.610 . S
N2286 S2285 1.613 . S
N2286 C2289 1.350 . S
N2287 S2285 1.610 . S
N2287 C2288 1.351 . S
C2288 C2282 1.428 . S
C2288 N2287 1.351 . S
C2288 C2289 1.434 . S
C2289 C2280 1.429 . S
C2289 N2286 1.350 . S
C2289 C2288 1.434 . S
C2290 C2291 1.369 . S
C2290 C2292 1.419 . S
C2290 H2294 0.930 . S
C2291 C2290 1.369 . S
C2291 C2300 1.429 . S
C2292 C2290 1.419 . S
C2292 C2293 1.363 . S
C2292 H2295 0.929 . S
C2293 C2292 1.363 . S
C2293 C2299 1.428 . S
H2294 C2290 0.930 . S
H2295 C2292 0.929 . S
S2296 N2297 1.613 . S
S2296 N2298 1.610 . S
N2297 S2296 1.613 . S
N2297 C2300 1.350 . S
N2298 S2296 1.610 . S
N2298 C2299 1.351 . S
C2299 C2293 1.428 . S
C2299 N2298 1.351 . S
C2299 C2300 1.434 . S
C2300 C2291 1.429 . S
C2300 N2297 1.350 . S
C2300 C2299 1.434 . S
C2301 C2302 1.369 . S
C2301 C2303 1.419 . S
C2301 H2305 0.930 . S
C2302 C2301 1.369 . S
C2302 C2311 1.429 . S
C2303 C2301 1.419 . S
C2303 C2304 1.363 . S
C2303 H2306 0.929 . S
C2304 C2303 1.363 . S
C2304 C2310 1.428 . S
H2305 C2301 0.930 . S
H2306 C2303 0.929 . S
S2307 N2308 1.613 . S
S2307 N2309 1.610 . S
N2308 S2307 1.613 . S
N2308 C2311 1.350 . S
N2309 S2307 1.610 . S
N2309 C2310 1.351 . S
C2310 C2304 1.428 . S
C2310 N2309 1.351 . S
C2310 C2311 1.434 . S
C2311 C2302 1.429 . S
C2311 N2308 1.350 . S
C2311 C2310 1.434 . S
C2312 C2313 1.369 . S
C2312 C2314 1.419 . S
C2312 H2316 0.930 . S
C2313 C2312 1.369 . S
C2313 C2322 1.429 . S
C2314 C2312 1.419 . S
C2314 C2315 1.363 . S
C2314 H2317 0.929 . S
C2315 C2314 1.363 . S
C2315 C2321 1.428 . S
H2316 C2312 0.930 . S
H2317 C2314 0.929 . S
S2318 N2319 1.613 . S
S2318 N2320 1.610 . S
N2319 S2318 1.613 . S
N2319 C2322 1.350 . S
N2320 S2318 1.610 . S
N2320 C2321 1.351 . S
C2321 C2315 1.428 . S
C2321 N2320 1.351 . S
C2321 C2322 1.434 . S
C2322 C2313 1.429 . S
C2322 N2319 1.350 . S
C2322 C2321 1.434 . S
C2323 C2324 1.369 . S
C2323 C2325 1.419 . S
C2323 H2327 0.930 . S
C2324 C2323 1.369 . S
C2324 C2333 1.429 . S
C2325 C2323 1.419 . S
C2325 C2326 1.363 . S
C2325 H2328 0.929 . S
C2326 C2325 1.363 . S
C2326 C2332 1.428 . S
H2327 C2323 0.930 . S
H2328 C2325 0.929 . S
S2329 N2330 1.613 . S
S2329 N2331 1.610 . S
N2330 S2329 1.613 . S
N2330 C2333 1.350 . S
N2331 S2329 1.610 . S
N2331 C2332 1.351 . S
C2332 C2326 1.428 . S
C2332 N2331 1.351 . S
C2332 C2333 1.434 . S
C2333 C2324 1.429 . S
C2333 N2330 1.350 . S
C2333 C2332 1.434 . S
C2334 C2335 1.369 . S
C2334 C2336 1.419 . S
C2334 H2338 0.930 . S
C2335 C2334 1.369 . S
C2335 C2344 1.429 . S
C2336 C2334 1.419 . S
C2336 C2337 1.363 . S
C2336 H2339 0.929 . S
C2337 C2336 1.363 . S
C2337 C2343 1.428 . S
H2338 C2334 0.930 . S
H2339 C2336 0.929 . S
S2340 N2341 1.613 . S
S2340 N2342 1.610 . S
N2341 S2340 1.613 . S
N2341 C2344 1.350 . S
N2342 S2340 1.610 . S
N2342 C2343 1.351 . S
C2343 C2337 1.428 . S
C2343 N2342 1.351 . S
C2343 C2344 1.434 . S
C2344 C2335 1.429 . S
C2344 N2341 1.350 . S
C2344 C2343 1.434 . S
C2345 C2346 1.347 1_556 S
C2345 C2347 1.423 . S
C2345 H2349 0.949 . S
C2346 C2345 1.347 1_554 S
C2346 C2355 1.429 . S
C2347 C2345 1.423 . S
C2347 C2348 1.363 1_556 S
C2347 H2350 0.929 . S
C2348 C2347 1.363 1_554 S
C2348 C2354 1.428 . S
H2349 C2345 0.949 . S
H2350 C2347 0.929 . S
S2351 N2352 1.613 . S
S2351 N2353 1.610 . S
N2352 S2351 1.613 . S
N2352 C2355 1.350 . S
N2353 S2351 1.610 . S
N2353 C2354 1.351 . S
C2354 C2348 1.428 . S
C2354 N2353 1.351 . S
C2354 C2355 1.434 . S
C2355 C2346 1.429 . S
C2355 N2352 1.350 . S
C2355 C2354 1.434 . S
C2356 C2357 1.369 . S
C2356 C2358 1.419 . S
C2356 H2360 0.930 . S
C2357 C2356 1.369 . S
C2357 C2366 1.429 . S
C2358 C2356 1.419 . S
C2358 C2359 1.363 . S
C2358 H2361 0.929 . S
C2359 C2358 1.363 . S
C2359 C2365 1.428 . S
H2360 C2356 0.930 . S
H2361 C2358 0.929 . S
S2362 N2363 1.613 . S
S2362 N2364 1.610 . S
N2363 S2362 1.613 . S
N2363 C2366 1.350 . S
N2364 S2362 1.610 . S
N2364 C2365 1.351 . S
C2365 C2359 1.428 . S
C2365 N2364 1.351 . S
C2365 C2366 1.434 . S
C2366 C2357 1.429 . S
C2366 N2363 1.350 . S
C2366 C2365 1.434 . S
C2367 C2368 1.369 . S
C2367 C2369 1.419 . S
C2367 H2371 0.930 . S
C2368 C2367 1.369 . S
C2368 C2377 1.429 . S
C2369 C2367 1.419 . S
C2369 C2370 1.363 . S
C2369 H2372 0.929 . S
C2370 C2369 1.363 . S
C2370 C2376 1.428 . S
H2371 C2367 0.930 . S
H2372 C2369 0.929 . S
S2373 N2374 1.613 . S
S2373 N2375 1.610 1_556 S
N2374 S2373 1.613 . S
N2374 C2377 1.350 1_556 S
N2375 S2373 1.610 1_554 S
N2375 C2376 1.351 . S
C2376 C2370 1.428 . S
C2376 N2375 1.351 . S
C2376 C2377 1.434 . S
C2377 C2368 1.429 . S
C2377 N2374 1.350 1_554 S
C2377 C2376 1.434 . S
C2378 C2379 1.369 . S
C2378 C2380 1.419 . S
C2378 H2382 0.930 . S
C2379 C2378 1.369 . S
C2379 C2388 1.429 . S
C2380 C2378 1.419 . S
C2380 C2381 1.363 . S
C2380 H2383 0.929 . S
C2381 C2380 1.363 . S
C2381 C2387 1.428 . S
H2382 C2378 0.930 . S
H2383 C2380 0.929 . S
S2384 N2385 1.613 . S
S2384 N2386 1.610 . S
N2385 S2384 1.613 . S
N2385 C2388 1.350 . S
N2386 S2384 1.610 . S
N2386 C2387 1.351 . S
C2387 C2381 1.428 . S
C2387 N2386 1.351 . S
C2387 C2388 1.434 . S
C2388 C2379 1.429 . S
C2388 N2385 1.350 . S
C2388 C2387 1.434 . S
C2389 C2390 1.369 . S
C2389 C2391 1.419 . S
C2389 H2393 0.930 . S
C2390 C2389 1.369 . S
C2390 C2399 1.429 . S
C2391 C2389 1.419 . S
C2391 C2392 1.363 . S
C2391 H2394 0.929 . S
C2392 C2391 1.363 . S
C2392 C2398 1.428 . S
H2393 C2389 0.930 . S
H2394 C2391 0.929 . S
S2395 N2396 1.613 . S
S2395 N2397 1.610 . S
N2396 S2395 1.613 . S
N2396 C2399 1.350 . S
N2397 S2395 1.610 . S
N2397 C2398 1.351 . S
C2398 C2392 1.428 . S
C2398 N2397 1.351 . S
C2398 C2399 1.434 . S
C2399 C2390 1.429 . S
C2399 N2396 1.350 . S
C2399 C2398 1.434 . S
C1347 C865 1.855 . S
C1345 C2 1.885 . S
C1356 C39 1.012 . S
C1358 C910 1.008 . S
C1367 C86 1.660 . S
C1369 C934 1.649 . S
C1380 N960 1.190 . S
C1378 C112 1.150 . S
C1389 C38 1.286 . S
C1391 N990 1.310 . S
C1402 C1024 1.548 . S
C1400 C76 1.583 . S
C1413 C1060 1.189 1_556 S
C1411 C122 1.142 . S
C1422 C3 1.819 . S
C1424 C1084 1.790 . S
C1433 C147 1.061 . S
C1435 N878 1.069 1_545 S
C1444 C184 1.243 . S
C1446 N900 1.273 . S
C1457 C940 1.114 . S
C1455 C219 1.113 . S
C1468 C964 1.777 . S
C1466 C256 1.812 . S
C1477 C148 1.280 . S
C1479 C994 1.252 . S
C1490 C1030 1.183 . S
C1488 C183 1.188 . S
C1501 N1050 1.247 . S
C1499 C220 1.216 . S
C1512 C1090 1.786 . S
C1510 C255 1.813 . S
C1523 C891 1.797 . S
C1521 C254 1.818 . S
C1534 C1120 1.089 . S
C1532 C302 1.034 . S
C1543 C326 1.234 . S
C1545 N1140 1.270 . S
C1556 C1174 1.667 . S
C1554 C374 1.688 . S
C1565 C146 1.065 . S
C1567 N1080 1.067 . S
C1578 N930 1.221 1_565 S
C1576 C182 1.197 . S
C1587 C338 1.080 . S
C1589 C1210 1.120 . S
C1600 C1234 1.118 . S
C1598 C410 1.179 . S
C1609 C434 1.918 . S
C1611 C874 1.890 1_556 S
C1622 C1251 1.046 . S
C1620 C472 1.062 . S
C1631 C507 1.692 . S
C1633 C925 1.657 . S
C1642 C543 1.181 . S
C1644 N1208 1.207 . S
C1655 N998 1.329 . S
C1653 C470 1.305 . S
C1666 C1135 1.657 . S
C1664 C518 1.621 . S
C1677 C1071 1.222 . S
C1675 C554 1.205 . S
C1688 C1255 1.769 . S
C1686 C436 1.825 . S
C1699 N870 1.084 . S
C1697 C580 1.082 . S
C1708 C615 1.276 . S
C1710 N1238 1.292 . S
C1721 C951 1.121 . S
C1719 C652 1.127 . S
C1730 C687 1.850 . S
C1732 C1195 1.808 . S
C1741 C579 1.325 . S
C1743 C985 1.267 1_655 S
C1752 C616 1.243 . S
C1754 C1161 1.240 . S
C1765 N1058 1.265 . S
C1763 C651 1.240 . S
C1774 C688 1.841 . S
C1776 C1281 1.804 . S
C1785 C686 1.849 . S
C1787 C880 1.826 . S
C1796 C734 1.131 . S
C1798 C1131 1.132 . S
C1807 C758 1.250 . S
C1809 N1028 1.270 . S
C1818 C806 1.667 . S
C1820 C1165 1.700 . S
C1831 N1268 1.069 . S
C1829 C578 1.077 . S
C1842 N938 1.259 . S
C1840 C614 1.240 . S
C1853 C981 1.162 . S
C1851 C770 1.135 . S
C1864 C895 1.141 . S
C1862 C842 1.086 . S
C1873 C74 1.834 . S
C1875 C1285 1.802 . S
C1886 C1240 1.016 . S
C1884 C111 1.009 . S
C1897 C1324 1.701 . S
C1895 C14 1.709 . S
C1906 C40 1.149 1_655 S
C1908 N1200 1.191 . S
C1917 C110 1.278 . S
C1919 N1110 1.314 1_556 S
C1930 C1144 1.599 . S
C1928 C4 1.634 . S
C1941 C1180 1.190 . S
C1939 C50 1.128 . S
C1952 C1264 1.738 . S
C1950 C75 1.771 . S
C1963 N1298 1.057 . S
C1961 C399 1.054 . S
C1972 C292 1.242 1_556 S
C1974 N1230 1.270 . S
C1983 C327 1.109 . S
C1985 C1330 1.101 1_655 S
C1996 C1204 1.777 . S
C1994 C364 1.807 . S
C2007 C1114 1.244 . S
C2005 C400 1.285 . S
C2016 C291 1.174 . S
C2018 C1150 1.176 . S
C2029 N1170 1.268 . S
C2027 C328 1.208 . S
C2038 C363 1.805 . S
C2040 C1270 1.781 . S
C2051 C1311 1.787 . S
C2049 C362 1.804 . S
C2062 C1000 1.102 . S
C2060 C194 1.054 . S
C2073 N1020 1.254 . S
C2071 C218 1.224 1_565 S
C2082 C266 1.675 . S
C2084 C1054 1.653 . S
C2095 N1260 1.051 . S
C2093 C398 1.045 . S
C2104 C290 1.218 . S
C2106 N1320 1.243 . S
C2117 C970 1.128 . S
C2115 C230 1.090 . S
C2128 C904 1.114 . S
C2126 C158 1.169 . S
C2137 C508 1.827 . S
C2139 C1294 1.776 . S
C2150 C921 1.054 . S
C2148 C544 1.060 . S
C2161 C1315 1.735 1_556 S
C2159 C446 1.706 . S
C2170 C471 1.179 . S
C2172 N968 1.204 . S
C2181 C542 1.310 . S
C2183 N1118 1.326 . S
C2192 C435 1.620 . S
C2194 C1015 1.584 . S
C2203 C482 1.190 1_455 S
C2205 C1191 1.218 . S
C2214 C506 1.913 . S
C2216 C1075 1.865 . S
C2227 N1290 1.079 . S
C2225 C832 1.077 . S
C2236 C723 1.276 . S
C2238 N908 1.288 . S
C2249 C1341 1.140 . S
C2247 C760 1.147 . S
C2258 C795 1.853 . S
C2260 C955 1.814 . S
C2269 C831 1.320 . S
C2271 C1105 1.265 . S
C2282 C1041 1.216 . S
C2280 C724 1.222 . S
C2291 C759 1.251 . S
C2293 N1178 1.266 . S
C2304 C1101 1.826 . S
C2302 C796 1.853 . S
C2315 C1300 1.819 . S
C2313 C794 1.847 . S
C2326 C1011 1.146 . S
C2324 C626 1.134 . S
C2335 C650 1.243 . S
C2337 N1148 1.275 . S
C2348 C1045 1.687 1_565 S
C2346 C698 1.659 . S
C2359 N1088 1.070 . S
C2357 C830 1.069 . S
C2368 C722 1.235 . S
C2370 N1328 1.262 . S
C2381 C1221 1.145 . S
C2379 C662 1.121 . S
C2392 C1225 1.153 . S
C2390 C590 1.093 . S
