# Generated by pormake.
# Topology gar, (4,6)-cn, num edge types: 1
# Building blocks:
#     Node 0, Type 0, BuildingBlock: TATPOV_clean_sbu_0, # of connection points: 4
#     Node 1, Type 0, BuildingBlock: TATPOV_clean_sbu_0, # of connection points: 4
#     Node 2, Type 0, BuildingBlock: TATPOV_clean_sbu_0, # of connection points: 4
#     Node 3, Type 0, BuildingBlock: TATPOV_clean_sbu_0, # of connection points: 4
#     Node 4, Type 0, BuildingBlock: TATPOV_clean_sbu_0, # of connection points: 4
#     Node 5, Type 0, BuildingBlock: TATPOV_clean_sbu_0, # of connection points: 4
#     Node 6, Type 0, BuildingBlock: TATPOV_clean_sbu_0, # of connection points: 4
#     Node 7, Type 0, BuildingBlock: TATPOV_clean_sbu_0, # of connection points: 4
#     Node 8, Type 0, BuildingBlock: TATPOV_clean_sbu_0, # of connection points: 4
#     Node 9, Type 0, BuildingBlock: TATPOV_clean_sbu_0, # of connection points: 4
#     Node 10, Type 0, BuildingBlock: TATPOV_clean_sbu_0, # of connection points: 4
#     Node 11, Type 0, BuildingBlock: TATPOV_clean_sbu_0, # of connection points: 4
#     Node 12, Type 0, BuildingBlock: TATPOV_clean_sbu_0, # of connection points: 4
#     Node 13, Type 0, BuildingBlock: TATPOV_clean_sbu_0, # of connection points: 4
#     Node 14, Type 0, BuildingBlock: TATPOV_clean_sbu_0, # of connection points: 4
#     Node 15, Type 0, BuildingBlock: TATPOV_clean_sbu_0, # of connection points: 4
#     Node 16, Type 0, BuildingBlock: TATPOV_clean_sbu_0, # of connection points: 4
#     Node 17, Type 0, BuildingBlock: TATPOV_clean_sbu_0, # of connection points: 4
#     Node 18, Type 0, BuildingBlock: TATPOV_clean_sbu_0, # of connection points: 4
#     Node 19, Type 0, BuildingBlock: TATPOV_clean_sbu_0, # of connection points: 4
#     Node 20, Type 0, BuildingBlock: TATPOV_clean_sbu_0, # of connection points: 4
#     Node 21, Type 0, BuildingBlock: TATPOV_clean_sbu_0, # of connection points: 4
#     Node 22, Type 0, BuildingBlock: TATPOV_clean_sbu_0, # of connection points: 4
#     Node 23, Type 0, BuildingBlock: TATPOV_clean_sbu_0, # of connection points: 4
#     Node 24, Type 1, BuildingBlock: NUHQIS_clean_sbu_0, # of connection points: 6
#     Node 25, Type 1, BuildingBlock: NUHQIS_clean_sbu_0, # of connection points: 6
#     Node 26, Type 1, BuildingBlock: NUHQIS_clean_sbu_0, # of connection points: 6
#     Node 27, Type 1, BuildingBlock: NUHQIS_clean_sbu_0, # of connection points: 6
#     Node 28, Type 1, BuildingBlock: NUHQIS_clean_sbu_0, # of connection points: 6
#     Node 29, Type 1, BuildingBlock: NUHQIS_clean_sbu_0, # of connection points: 6
#     Node 30, Type 1, BuildingBlock: NUHQIS_clean_sbu_0, # of connection points: 6
#     Node 31, Type 1, BuildingBlock: NUHQIS_clean_sbu_0, # of connection points: 6
#     Node 32, Type 1, BuildingBlock: NUHQIS_clean_sbu_0, # of connection points: 6
#     Node 33, Type 1, BuildingBlock: NUHQIS_clean_sbu_0, # of connection points: 6
#     Node 34, Type 1, BuildingBlock: NUHQIS_clean_sbu_0, # of connection points: 6
#     Node 35, Type 1, BuildingBlock: NUHQIS_clean_sbu_0, # of connection points: 6
#     Node 36, Type 1, BuildingBlock: NUHQIS_clean_sbu_0, # of connection points: 6
#     Node 37, Type 1, BuildingBlock: NUHQIS_clean_sbu_0, # of connection points: 6
#     Node 38, Type 1, BuildingBlock: NUHQIS_clean_sbu_0, # of connection points: 6
#     Node 39, Type 1, BuildingBlock: NUHQIS_clean_sbu_0, # of connection points: 6
#     Edge 40, Type (0, 1), BuildingBlock: ZUJKAS_clean_linker_0, # of connection points: 2
#     Edge 41, Type (0, 1), BuildingBlock: ZUJKAS_clean_linker_0, # of connection points: 2
#     Edge 42, Type (0, 1), BuildingBlock: ZUJKAS_clean_linker_0, # of connection points: 2
#     Edge 43, Type (0, 1), BuildingBlock: ZUJKAS_clean_linker_0, # of connection points: 2
#     Edge 44, Type (0, 1), BuildingBlock: ZUJKAS_clean_linker_0, # of connection points: 2
#     Edge 45, Type (0, 1), BuildingBlock: ZUJKAS_clean_linker_0, # of connection points: 2
#     Edge 46, Type (0, 1), BuildingBlock: ZUJKAS_clean_linker_0, # of connection points: 2
#     Edge 47, Type (0, 1), BuildingBlock: ZUJKAS_clean_linker_0, # of connection points: 2
#     Edge 48, Type (0, 1), BuildingBlock: ZUJKAS_clean_linker_0, # of connection points: 2
#     Edge 49, Type (0, 1), BuildingBlock: ZUJKAS_clean_linker_0, # of connection points: 2
#     Edge 50, Type (0, 1), BuildingBlock: ZUJKAS_clean_linker_0, # of connection points: 2
#     Edge 51, Type (0, 1), BuildingBlock: ZUJKAS_clean_linker_0, # of connection points: 2
#     Edge 52, Type (0, 1), BuildingBlock: ZUJKAS_clean_linker_0, # of connection points: 2
#     Edge 53, Type (0, 1), BuildingBlock: ZUJKAS_clean_linker_0, # of connection points: 2
#     Edge 54, Type (0, 1), BuildingBlock: ZUJKAS_clean_linker_0, # of connection points: 2
#     Edge 55, Type (0, 1), BuildingBlock: ZUJKAS_clean_linker_0, # of connection points: 2
#     Edge 56, Type (0, 1), BuildingBlock: ZUJKAS_clean_linker_0, # of connection points: 2
#     Edge 57, Type (0, 1), BuildingBlock: ZUJKAS_clean_linker_0, # of connection points: 2
#     Edge 58, Type (0, 1), BuildingBlock: ZUJKAS_clean_linker_0, # of connection points: 2
#     Edge 59, Type (0, 1), BuildingBlock: ZUJKAS_clean_linker_0, # of connection points: 2
#     Edge 60, Type (0, 1), BuildingBlock: ZUJKAS_clean_linker_0, # of connection points: 2
#     Edge 61, Type (0, 1), BuildingBlock: ZUJKAS_clean_linker_0, # of connection points: 2
#     Edge 62, Type (0, 1), BuildingBlock: ZUJKAS_clean_linker_0, # of connection points: 2
#     Edge 63, Type (0, 1), BuildingBlock: ZUJKAS_clean_linker_0, # of connection points: 2
#     Edge 64, Type (0, 1), BuildingBlock: ZUJKAS_clean_linker_0, # of connection points: 2
#     Edge 65, Type (0, 1), BuildingBlock: ZUJKAS_clean_linker_0, # of connection points: 2
#     Edge 66, Type (0, 1), BuildingBlock: ZUJKAS_clean_linker_0, # of connection points: 2
#     Edge 67, Type (0, 1), BuildingBlock: ZUJKAS_clean_linker_0, # of connection points: 2
#     Edge 68, Type (0, 1), BuildingBlock: ZUJKAS_clean_linker_0, # of connection points: 2
#     Edge 69, Type (0, 1), BuildingBlock: ZUJKAS_clean_linker_0, # of connection points: 2
#     Edge 70, Type (0, 1), BuildingBlock: ZUJKAS_clean_linker_0, # of connection points: 2
#     Edge 71, Type (0, 1), BuildingBlock: ZUJKAS_clean_linker_0, # of connection points: 2
#     Edge 72, Type (0, 1), BuildingBlock: ZUJKAS_clean_linker_0, # of connection points: 2
#     Edge 73, Type (0, 1), BuildingBlock: ZUJKAS_clean_linker_0, # of connection points: 2
#     Edge 74, Type (0, 1), BuildingBlock: ZUJKAS_clean_linker_0, # of connection points: 2
#     Edge 75, Type (0, 1), BuildingBlock: ZUJKAS_clean_linker_0, # of connection points: 2
#     Edge 76, Type (0, 1), BuildingBlock: ZUJKAS_clean_linker_0, # of connection points: 2
#     Edge 77, Type (0, 1), BuildingBlock: ZUJKAS_clean_linker_0, # of connection points: 2
#     Edge 78, Type (0, 1), BuildingBlock: ZUJKAS_clean_linker_0, # of connection points: 2
#     Edge 79, Type (0, 1), BuildingBlock: ZUJKAS_clean_linker_0, # of connection points: 2
#     Edge 80, Type (0, 1), BuildingBlock: ZUJKAS_clean_linker_0, # of connection points: 2
#     Edge 81, Type (0, 1), BuildingBlock: ZUJKAS_clean_linker_0, # of connection points: 2
#     Edge 82, Type (0, 1), BuildingBlock: ZUJKAS_clean_linker_0, # of connection points: 2
#     Edge 83, Type (0, 1), BuildingBlock: ZUJKAS_clean_linker_0, # of connection points: 2
#     Edge 84, Type (0, 1), BuildingBlock: ZUJKAS_clean_linker_0, # of connection points: 2
#     Edge 85, Type (0, 1), BuildingBlock: ZUJKAS_clean_linker_0, # of connection points: 2
#     Edge 86, Type (0, 1), BuildingBlock: ZUJKAS_clean_linker_0, # of connection points: 2
#     Edge 87, Type (0, 1), BuildingBlock: ZUJKAS_clean_linker_0, # of connection points: 2
#     Edge 88, Type (0, 1), BuildingBlock: ZUJKAS_clean_linker_0, # of connection points: 2
#     Edge 89, Type (0, 1), BuildingBlock: ZUJKAS_clean_linker_0, # of connection points: 2
#     Edge 90, Type (0, 1), BuildingBlock: ZUJKAS_clean_linker_0, # of connection points: 2
#     Edge 91, Type (0, 1), BuildingBlock: ZUJKAS_clean_linker_0, # of connection points: 2
#     Edge 92, Type (0, 1), BuildingBlock: ZUJKAS_clean_linker_0, # of connection points: 2
#     Edge 93, Type (0, 1), BuildingBlock: ZUJKAS_clean_linker_0, # of connection points: 2
#     Edge 94, Type (0, 1), BuildingBlock: ZUJKAS_clean_linker_0, # of connection points: 2
#     Edge 95, Type (0, 1), BuildingBlock: ZUJKAS_clean_linker_0, # of connection points: 2
#     Edge 96, Type (0, 1), BuildingBlock: ZUJKAS_clean_linker_0, # of connection points: 2
#     Edge 97, Type (0, 1), BuildingBlock: ZUJKAS_clean_linker_0, # of connection points: 2
#     Edge 98, Type (0, 1), BuildingBlock: ZUJKAS_clean_linker_0, # of connection points: 2
#     Edge 99, Type (0, 1), BuildingBlock: ZUJKAS_clean_linker_0, # of connection points: 2
#     Edge 100, Type (0, 1), BuildingBlock: ZUJKAS_clean_linker_0, # of connection points: 2
#     Edge 101, Type (0, 1), BuildingBlock: ZUJKAS_clean_linker_0, # of connection points: 2
#     Edge 102, Type (0, 1), BuildingBlock: ZUJKAS_clean_linker_0, # of connection points: 2
#     Edge 103, Type (0, 1), BuildingBlock: ZUJKAS_clean_linker_0, # of connection points: 2
#     Edge 104, Type (0, 1), BuildingBlock: ZUJKAS_clean_linker_0, # of connection points: 2
#     Edge 105, Type (0, 1), BuildingBlock: ZUJKAS_clean_linker_0, # of connection points: 2
#     Edge 106, Type (0, 1), BuildingBlock: ZUJKAS_clean_linker_0, # of connection points: 2
#     Edge 107, Type (0, 1), BuildingBlock: ZUJKAS_clean_linker_0, # of connection points: 2
#     Edge 108, Type (0, 1), BuildingBlock: ZUJKAS_clean_linker_0, # of connection points: 2
#     Edge 109, Type (0, 1), BuildingBlock: ZUJKAS_clean_linker_0, # of connection points: 2
#     Edge 110, Type (0, 1), BuildingBlock: ZUJKAS_clean_linker_0, # of connection points: 2
#     Edge 111, Type (0, 1), BuildingBlock: ZUJKAS_clean_linker_0, # of connection points: 2
#     Edge 112, Type (0, 1), BuildingBlock: ZUJKAS_clean_linker_0, # of connection points: 2
#     Edge 113, Type (0, 1), BuildingBlock: ZUJKAS_clean_linker_0, # of connection points: 2
#     Edge 114, Type (0, 1), BuildingBlock: ZUJKAS_clean_linker_0, # of connection points: 2
#     Edge 115, Type (0, 1), BuildingBlock: ZUJKAS_clean_linker_0, # of connection points: 2
#     Edge 116, Type (0, 1), BuildingBlock: ZUJKAS_clean_linker_0, # of connection points: 2
#     Edge 117, Type (0, 1), BuildingBlock: ZUJKAS_clean_linker_0, # of connection points: 2
#     Edge 118, Type (0, 1), BuildingBlock: ZUJKAS_clean_linker_0, # of connection points: 2
#     Edge 119, Type (0, 1), BuildingBlock: ZUJKAS_clean_linker_0, # of connection points: 2
#     Edge 120, Type (0, 1), BuildingBlock: ZUJKAS_clean_linker_0, # of connection points: 2
#     Edge 121, Type (0, 1), BuildingBlock: ZUJKAS_clean_linker_0, # of connection points: 2
#     Edge 122, Type (0, 1), BuildingBlock: ZUJKAS_clean_linker_0, # of connection points: 2
#     Edge 123, Type (0, 1), BuildingBlock: ZUJKAS_clean_linker_0, # of connection points: 2
#     Edge 124, Type (0, 1), BuildingBlock: ZUJKAS_clean_linker_0, # of connection points: 2
#     Edge 125, Type (0, 1), BuildingBlock: ZUJKAS_clean_linker_0, # of connection points: 2
#     Edge 126, Type (0, 1), BuildingBlock: ZUJKAS_clean_linker_0, # of connection points: 2
#     Edge 127, Type (0, 1), BuildingBlock: ZUJKAS_clean_linker_0, # of connection points: 2
#     Edge 128, Type (0, 1), BuildingBlock: ZUJKAS_clean_linker_0, # of connection points: 2
#     Edge 129, Type (0, 1), BuildingBlock: ZUJKAS_clean_linker_0, # of connection points: 2
#     Edge 130, Type (0, 1), BuildingBlock: ZUJKAS_clean_linker_0, # of connection points: 2
#     Edge 131, Type (0, 1), BuildingBlock: ZUJKAS_clean_linker_0, # of connection points: 2
#     Edge 132, Type (0, 1), BuildingBlock: ZUJKAS_clean_linker_0, # of connection points: 2
#     Edge 133, Type (0, 1), BuildingBlock: ZUJKAS_clean_linker_0, # of connection points: 2
#     Edge 134, Type (0, 1), BuildingBlock: ZUJKAS_clean_linker_0, # of connection points: 2
#     Edge 135, Type (0, 1), BuildingBlock: ZUJKAS_clean_linker_0, # of connection points: 2
# Relax obj value: 0.184
# Max RMSD: 0.292
# Mean RMSD: 0.155
data_MOF--net-gar--node1-TATPOV_clean_sbu_0--node2-NUHQIS_clean_sbu_0--edge1-ZUJKAS_clean_linker_0
_symmetry_space_group_name_H-M    P1
_symmetry_Int_Tables_number       1
_symmetry_cell_setting            triclinic
loop_
_symmetry_equiv_pos_as_xyz
'x, y, z'
_cell_length_a     73.762387
_cell_length_b     75.692945
_cell_length_c     73.853409
_cell_angle_alpha  93.960116
_cell_angle_beta   96.569389
_cell_angle_gamma 101.43208
loop_
_atom_site_label
_atom_site_type_symbol
_atom_site_fract_x
_atom_site_fract_y
_atom_site_fract_z
_atom_type_partial_charge
Zn0 Zn 0.03338 0.27339 0.42358 0.0
Zn1 Zn 0.05776 0.27683 0.40109 0.0
O2 O 0.06218 0.30417 0.41747 0.0
O3 O 0.04136 0.29887 0.43651 0.0
O4 O 0.08068 0.27762 0.38347 0.0
O5 O 0.03858 0.25119 0.43563 0.0
O6 O 0.05799 0.25085 0.4153 0.0
C7 C 0.05386 0.31012 0.43051 0.0
C8 C 0.01424 0.27197 0.38676 0.0
O9 O 0.0312 0.27487 0.38288 0.0
O10 O 1.01158 0.26989 0.4032 0.0
C11 C 0.09806 0.28575 0.38721 0.0
O12 O 0.10319 0.29536 0.40313 0.0
C13 C 0.04982 0.24318 0.42831 0.0
Zn14 Zn 0.03491 0.76348 0.66524 0.0
Zn15 Zn 0.03646 0.7872 0.64182 0.0
O16 O 1.01086 0.78712 0.65656 0.0
O17 O 1.01211 0.7671 0.67652 0.0
O18 O 0.03835 0.81281 0.62753 0.0
O19 O 0.06048 0.77261 0.67953 0.0
O20 O 0.06434 0.79177 0.65857 0.0
C21 C 1.00373 0.77859 0.66963 0.0
C22 C 0.03322 0.74477 0.62887 0.0
O23 O 0.03444 0.76109 0.62385 0.0
O24 O 0.03262 0.74268 0.6457 0.0
C25 C 0.03827 0.81691 0.61076 0.0
O26 O 0.03671 0.80357 0.59794 0.0
C27 C 0.07115 0.78488 0.67271 0.0
Zn28 Zn 0.53603 0.7729 0.92282 0.0
Zn29 Zn 0.56006 0.77552 0.89987 0.0
O30 O 0.56375 0.80287 0.91579 0.0
O31 O 0.5442 0.7983 0.9361 0.0
O32 O 0.58462 0.77829 0.88436 0.0
O33 O 0.54084 0.75036 0.93455 0.0
O34 O 0.55992 0.74945 0.91397 0.0
C35 C 0.55619 0.80926 0.92915 0.0
C36 C 0.51713 0.77123 0.88535 0.0
O37 O 0.53397 0.77345 0.88122 0.0
O38 O 0.51463 0.76985 0.90196 0.0
C39 C 0.5892 0.76656 0.87307 0.0
O40 O 0.57778 0.7507 0.86944 0.0
C41 C 0.55172 0.742 0.92707 0.0
Zn42 Zn 0.53218 0.26075 0.16278 0.0
Zn43 Zn 0.53401 0.28471 0.13965 0.0
O44 O 0.50835 0.28504 0.15433 0.0
O45 O 0.50789 0.263 0.17221 0.0
O46 O 0.53553 0.30843 0.12258 0.0
O47 O 0.55722 0.27113 0.17794 0.0
O48 O 0.56173 0.28987 0.15668 0.0
C49 C 0.50024 0.27536 0.16617 0.0
C50 C 0.53276 0.24222 0.12718 0.0
O51 O 0.5326 0.25834 0.12212 0.0
O52 O 0.53236 0.24002 0.144 0.0
C53 C 0.53828 0.32529 0.12905 0.0
O54 O 0.54035 0.32857 0.14695 0.0
C55 C 0.56817 0.28321 0.17115 0.0
Zn56 Zn 0.12567 0.84556 0.13803 0.0
Zn57 Zn 0.09427 0.82877 0.15146 0.0
O58 O 0.08661 0.85112 0.1418 0.0
O59 O 0.11154 0.86488 0.13065 0.0
O60 O 0.07186 0.81624 0.16201 0.0
O61 O 0.12345 0.82265 0.12095 0.0
O62 O 0.09773 0.81019 0.13168 0.0
C63 C 0.0949 0.86417 0.13385 0.0
C64 C 0.1316 0.84083 0.17646 0.0
O65 O 0.11441 0.83321 0.17351 0.0
O66 O 0.13978 0.84761 0.16359 0.0
C67 C 0.06431 0.82538 0.17289 0.0
O68 O 0.07111 0.84283 0.17653 0.0
C69 C 0.10986 0.80941 0.12087 0.0
Zn70 Zn 0.48225 0.71637 0.39468 0.0
Zn71 Zn 0.51738 0.73076 0.38726 0.0
O72 O 0.51429 0.74729 0.40887 0.0
O73 O 0.48559 0.73731 0.41467 0.0
O74 O 0.54258 0.74175 0.3812 0.0
O75 O 0.49174 0.69361 0.40018 0.0
O76 O 0.51957 0.70549 0.39334 0.0
C77 C 0.50103 0.74859 0.41814 0.0
C78 C 0.48341 0.7281 0.3584 0.0
O79 O 0.50076 0.73294 0.36398 0.0
O80 O 0.47242 0.72009 0.36865 0.0
C81 C 0.5454 0.75781 0.37653 0.0
O82 O 0.53187 0.7668 0.3764 0.0
C83 C 0.50835 0.69234 0.39846 0.0
Zn84 Zn 0.63157 0.33208 0.64137 0.0
Zn85 Zn 0.60436 0.33321 0.66366 0.0
O86 O 0.60319 0.35405 0.64811 0.0
O87 O 0.62391 0.35321 0.62901 0.0
O88 O 0.58356 0.33346 0.67875 0.0
O89 O 0.61827 0.30627 0.63211 0.0
O90 O 0.5966 0.30823 0.64987 0.0
C91 C 0.61125 0.3603 0.63489 0.0
C92 C 0.64461 0.33767 0.68068 0.0
O93 O 0.62745 0.33658 0.68227 0.0
O94 O 0.64985 0.33646 0.66494 0.0
C95 C 0.56776 0.33479 0.67078 0.0
O96 O 0.5658 0.33653 0.65312 0.0
C97 C 0.60325 0.29928 0.63801 0.0
Zn98 Zn 0.99282 0.21039 0.89289 0.0
Zn99 Zn 0.02508 0.22595 0.88012 0.0
O100 O 0.02207 0.24428 0.90034 0.0
O101 O 0.99595 0.23284 0.9109 0.0
O102 O 0.04779 0.23876 0.87031 0.0
O103 O 1.00596 0.18996 0.89924 0.0
O104 O 0.03185 0.20301 0.88915 0.0
C105 C 1.0101 0.24554 0.9112 0.0
C106 C 0.98776 0.21671 0.85479 0.0
O107 O 1.00528 0.2228 0.85788 0.0
O108 O 0.97897 0.21036 0.86748 0.0
C109 C 0.04747 0.25428 0.86485 0.0
O110 O 0.03256 0.26111 0.86608 0.0
C111 C 0.02263 0.18998 0.89646 0.0
Zn112 Zn 0.51376 0.06396 0.31874 0.0
Zn113 Zn 0.47867 0.10618 0.30895 0.0
O114 O 0.49747 0.11468 0.33239 0.0
O115 O 0.50459 0.08896 0.32432 0.0
O116 O 0.46226 0.12351 0.30277 0.0
O117 O 0.50315 0.08375 0.30377 0.0
O118 O 0.49278 0.10292 0.28695 0.0
C119 C 0.50756 0.10316 0.33568 0.0
C120 C 0.47052 0.06886 0.31398 0.0
O121 O 0.46168 0.08146 0.31149 0.0
O122 O 0.48833 0.0734 0.31547 0.0
C123 C 0.44658 0.1218 0.30872 0.0
O124 O 0.44248 0.11009 0.32072 0.0
C125 C 0.50275 0.0911 0.28866 0.0
Zn126 Zn 0.29846 0.17913 0.51047 0.0
Zn127 Zn 0.3213 0.15794 0.5127 0.0
O128 O 0.32307 0.1725 0.4866 0.0
O129 O 0.30527 0.19245 0.48874 0.0
O130 O 0.34353 0.14142 0.51311 0.0
O131 O 0.30488 0.19153 0.53599 0.0
O132 O 0.32483 0.17375 0.54049 0.0
C133 C 0.31614 0.18551 0.47977 0.0
C134 C 0.27743 0.1424 0.50838 0.0
O135 O 0.29401 0.13903 0.51095 0.0
O136 O 0.27584 0.15859 0.50675 0.0
C137 C 0.36135 0.14687 0.51793 0.0
O138 O 0.36744 0.1641 0.52357 0.0
C139 C 0.31659 0.18603 0.54692 0.0
Zn140 Zn 0.15328 0.07211 0.84594 0.0
Zn141 Zn 0.17233 0.04742 0.83474 0.0
O142 O 0.16271 0.03762 0.85789 0.0
O143 O 0.14909 0.05894 0.86831 0.0
O144 O 0.18738 0.02961 0.82675 0.0
O145 O 0.13519 0.06468 0.82258 0.0
O146 O 0.15157 0.04518 0.81342 0.0
C147 C 0.15399 0.04394 0.86989 0.0
C148 C 0.19076 0.0881 0.84178 0.0
O149 O 0.19137 0.07167 0.83742 0.0
O150 O 0.17585 0.09203 0.84619 0.0
C151 C 0.20048 0.02633 0.83789 0.0
O152 O 0.20381 0.03459 0.85454 0.0
C153 C 0.13772 0.05282 0.81068 0.0
Zn154 Zn 0.32846 0.85538 0.03035 0.0
Zn155 Zn 0.30507 0.87799 0.03155 0.0
O156 O 0.29682 0.8633 0.00594 0.0
O157 O 0.31505 0.84353 0.00593 0.0
O158 O 0.28634 0.89408 0.0334 0.0
O159 O 0.32163 0.84545 0.05384 0.0
O160 O 0.30267 0.86444 0.05501 0.0
C161 C 0.30209 0.85004 0.99794 0.0
C162 C 0.34668 0.8933 0.03224 0.0
O163 O 0.3302 0.89593 0.03279 0.0
O164 O 0.34953 0.8773 0.03107 0.0
C165 C 0.28422 0.90594 0.0224 0.0
O166 O 0.29445 0.90787 0.00894 0.0
C167 C 0.31004 0.85216 0.06202 0.0
Zn168 Zn 0.29738 0.38104 0.02565 0.0
Zn169 Zn 0.2746 0.40188 0.02293 0.0
O170 O 0.27101 0.38557 0.99541 0.0
O171 O 0.29118 0.3681 0.00039 0.0
O172 O 0.25191 0.41784 0.02247 0.0
O173 O 0.29102 0.36826 0.04776 0.0
O174 O 0.27292 0.38793 0.04944 0.0
C175 C 0.27944 0.37332 0.98925 0.0
C176 C 0.31853 0.41751 0.02684 0.0
O177 O 0.30195 0.42091 0.02422 0.0
O178 O 0.32005 0.40137 0.02887 0.0
C179 C 0.23528 0.41374 0.01337 0.0
O180 O 0.23098 0.39858 0.00257 0.0
C181 C 0.28007 0.3752 0.05661 0.0
Zn182 Zn 0.76737 0.21425 0.01243 0.0
Zn183 Zn 0.79388 0.19474 0.01442 0.0
O184 O 0.79855 0.20939 0.99197 0.0
O185 O 0.77779 0.22666 0.99125 0.0
O186 O 0.81408 0.18018 0.01567 0.0
O187 O 0.77607 0.22447 0.03876 0.0
O188 O 0.79851 0.20909 0.04005 0.0
C189 C 0.79124 0.22157 0.98467 0.0
C190 C 0.75247 0.17573 0.00845 0.0
O191 O 0.76969 0.17503 0.01095 0.0
O192 O 0.74777 0.19093 0.00787 0.0
C193 C 0.81535 0.16947 0.00204 0.0
O194 O 0.80343 0.16817 0.98712 0.0
C195 C 0.78988 0.21996 0.04771 0.0
Zn196 Zn 0.08767 0.48596 0.24264 0.0
Zn197 Zn 0.12017 0.47605 0.23616 0.0
O198 O 0.1169 0.4692 0.26194 0.0
O199 O 0.09014 0.47583 0.26715 0.0
O200 O 0.14482 0.4694 0.23327 0.0
O201 O 0.07534 0.4696 0.22001 0.0
O202 O 0.10157 0.46144 0.21517 0.0
C203 C 0.10444 0.4697 0.2724 0.0
C204 C 0.11642 0.51588 0.23648 0.0
O205 O 0.12527 0.50324 0.23417 0.0
O206 O 0.09992 0.51227 0.24051 0.0
C207 C 0.15952 0.47987 0.24156 0.0
O208 O 0.15807 0.49491 0.25074 0.0
C209 C 0.0842 0.4605 0.21054 0.0
Zn210 Zn 0.7975 0.87969 0.52445 0.0
Zn211 Zn 0.77656 0.90273 0.52361 0.0
O212 O 0.7728 0.88742 0.49561 0.0
O213 O 0.78905 0.86625 0.49949 0.0
O214 O 0.75432 0.9191 0.52364 0.0
O215 O 0.79174 0.86775 0.54728 0.0
O216 O 0.77476 0.88834 0.54974 0.0
C217 C 0.77886 0.87373 0.48883 0.0
C218 C 0.82014 0.91638 0.52583 0.0
O219 O 0.80412 0.92098 0.52527 0.0
O220 O 0.82059 0.89973 0.52605 0.0
C221 C 0.73756 0.91491 0.51487 0.0
O222 O 0.73304 0.89959 0.50432 0.0
C223 C 0.78145 0.8752 0.55656 0.0
Zn224 Zn 0.93419 1.00235 0.1949 0.0
Zn225 Zn 0.91208 0.0245 0.20579 0.0
O226 O 0.9318 0.02678 0.22795 0.0
O227 O 0.95004 0.00871 0.21982 0.0
O228 O 0.89572 0.04103 0.21374 0.0
O229 O 0.93963 0.01762 0.17416 0.0
O230 O 0.92213 0.03595 0.18352 0.0
C231 C 0.94586 0.01966 0.23164 0.0
C232 C 0.89657 0.98367 0.1961 0.0
O233 O 0.8946 0.99938 0.2018 0.0
O234 O 0.91207 0.9814 0.19163 0.0
C235 C 0.89061 0.04093 0.2296 0.0
O236 O 0.89575 0.02948 0.24071 0.0
C237 C 0.93287 0.03163 0.17242 0.0
Zn238 Zn 0.26712 0.70716 0.5197 0.0
Zn239 Zn 0.29277 0.68663 0.51987 0.0
O240 O 0.29594 0.70046 0.49667 0.0
O241 O 0.27488 0.71738 0.49661 0.0
O242 O 0.31271 0.67167 0.5202 0.0
O243 O 0.27865 0.71914 0.54476 0.0
O244 O 0.2991 0.70156 0.54526 0.0
C245 C 0.28772 0.71198 0.48922 0.0
C246 C 0.25123 0.66891 0.51724 0.0
O247 O 0.26823 0.66756 0.51777 0.0
O248 O 0.24709 0.68439 0.51786 0.0
C249 C 0.31037 0.65697 0.50996 0.0
O250 O 0.29474 0.65154 0.49878 0.0
C251 C 0.29223 0.71379 0.55312 0.0
Zn252 Zn 0.42486 0.49297 0.69346 0.0
Zn253 Zn 0.40721 0.51788 0.70736 0.0
O254 O 0.42824 0.5181 0.7277 0.0
O255 O 0.44224 0.49693 0.7177 0.0
O256 O 0.39421 0.53642 0.71758 0.0
O257 O 0.43073 0.50861 0.67301 0.0
O258 O 0.41596 0.52856 0.68426 0.0
C259 C 0.4408 0.50885 0.7301 0.0
C260 C 0.38682 0.47822 0.69743 0.0
O261 O 0.38751 0.49417 0.70461 0.0
O262 O 0.40073 0.47433 0.6907 0.0
C263 C 0.37798 0.53776 0.7108 0.0
O264 O 0.36926 0.52655 0.69669 0.0
C265 C 0.42525 0.5234 0.67215 0.0
Zn266 Zn 0.61625 0.9976 0.74608 0.0
Zn267 Zn 0.64625 0.98458 0.7383 0.0
O268 O 0.64264 0.97701 0.76401 0.0
O269 O 0.61683 0.98568 0.76945 0.0
O270 O 0.66843 0.97409 0.73333 0.0
O271 O 0.60133 0.98377 0.72344 0.0
O272 O 0.62578 0.97313 0.71696 0.0
C273 C 0.63014 0.97804 0.77433 0.0
C274 C 0.64799 0.02549 0.74179 0.0
O275 O 0.65535 0.01193 0.73858 0.0
O276 O 0.63133 0.0231 0.7454 0.0
C277 C 0.68219 0.98188 0.72587 0.0
O278 O 0.68218 0.99787 0.71999 0.0
C279 C 0.60872 0.97407 0.71305 0.0
Zn280 Zn 0.79765 0.67877 0.01292 0.0
Zn281 Zn 0.81989 0.65728 0.0134 0.0
O282 O 0.82157 0.67169 0.98718 0.0
O283 O 0.80103 0.68891 0.98888 0.0
O284 O 0.84268 0.64147 0.0154 0.0
O285 O 0.80691 0.69418 0.03667 0.0
O286 O 0.82361 0.67346 0.04099 0.0
C287 C 0.81267 0.68323 0.9799 0.0
C288 C 0.77648 0.64219 0.01303 0.0
O289 O 0.79262 0.63822 0.01196 0.0
O290 O 0.77535 0.65869 0.01373 0.0
C291 C 0.8541 0.63918 0.00375 0.0
O292 O 0.8522 0.64672 0.98834 0.0
C293 C 0.81759 0.68731 0.04743 0.0
Zn294 Zn 0.04597 0.60174 0.78802 0.0
Zn295 Zn 1.0076 0.6091 0.78812 0.0
O296 O 0.01671 0.61404 0.81516 0.0
O297 O 0.04679 0.61467 0.81383 0.0
O298 O 0.98366 0.61779 0.78232 0.0
O299 O 0.05012 0.61552 0.76489 0.0
O300 O 0.0272 0.62352 0.77586 0.0
C301 C 0.03359 0.6171 0.82282 0.0
C302 C 1.01292 0.57039 0.7804 0.0
O303 O 1.00274 0.58213 0.78104 0.0
O304 O 0.03064 0.57518 0.78344 0.0
C305 C 0.9679 0.607 0.78115 0.0
O306 O 0.96726 0.59001 0.78417 0.0
C307 C 0.03341 0.61738 0.76201 0.0
Zn308 Zn 0.82753 0.36062 0.5254 0.0
Zn309 Zn 0.80221 0.38113 0.52693 0.0
O310 O 0.79278 0.36443 0.50263 0.0
O311 O 0.81282 0.34639 0.50251 0.0
O312 O 0.78244 0.39581 0.52976 0.0
O313 O 0.82422 0.35231 0.55035 0.0
O314 O 0.804 0.36999 0.5519 0.0
C315 C 0.79855 0.3513 0.49498 0.0
C316 C 0.84214 0.39891 0.52309 0.0
O317 O 0.82543 0.40031 0.5245 0.0
O318 O 0.84653 0.38354 0.52315 0.0
C319 C 0.77797 0.40641 0.5182 0.0
O320 O 0.78606 0.40764 0.50326 0.0
C321 C 0.81315 0.35909 0.55924 0.0
Zn322 Zn 0.65483 0.57903 0.34003 0.0
Zn323 Zn 0.67491 0.5541 0.33158 0.0
O324 O 0.66427 0.54527 0.35458 0.0
O325 O 0.64926 0.56642 0.36252 0.0
O326 O 0.69052 0.53622 0.32534 0.0
O327 O 0.63803 0.57062 0.31596 0.0
O328 O 0.65494 0.5507 0.3094 0.0
C329 C 0.65448 0.55178 0.36539 0.0
C330 C 0.69291 0.59488 0.33778 0.0
O331 O 0.69379 0.57839 0.33416 0.0
O332 O 0.67765 0.59889 0.34099 0.0
C333 C 0.68296 0.51984 0.31995 0.0
O334 O 0.66474 0.51466 0.31868 0.0
C335 C 0.64116 0.55809 0.30522 0.0
Tb336 Tb 0.02839 0.03188 0.02344 0.0
Eu337 Eu 0.07223 0.04208 0.04406 0.0
C338 C 0.05912 0.01257 0.00974 0.0
C339 C 0.04144 0.01115 0.05546 0.0
C340 C 0.98082 0.03737 0.00851 0.0
C341 C 0.94935 0.04141 0.99933 0.0
C342 C 0.96271 0.03059 0.99961 0.0
C343 C 0.98547 0.05507 0.01714 0.0
C344 C 0.97214 0.06587 0.01691 0.0
C345 C 0.9539 0.05918 0.008 0.0
C346 C 0.99478 0.02594 0.00908 0.0
O347 O 0.02853 0.04977 0.04776 0.0
O348 O 0.05948 0.06432 0.05555 0.0
O349 O 0.07089 0.05494 0.01745 0.0
O350 O 0.04083 0.05857 0.01668 0.0
C351 C 0.04158 0.06304 0.05644 0.0
O352 O 0.09306 0.03804 0.06595 0.0
O353 O 0.10164 0.05516 0.04496 0.0
O354 O 0.06883 0.01627 0.02604 0.0
O355 O 0.04448 0.01957 0.0051 0.0
O356 O 0.03294 0.00929 0.03864 0.0
O357 O 0.05374 0.02589 0.06176 0.0
C358 C 0.0574 0.06286 0.01145 0.0
O359 O 1.00889 0.03118 1.00018 0.0
O360 O 1.00016 0.02151 0.02528 0.0
C361 C 0.12169 0.03634 0.05554 0.0
C362 C 0.14952 0.01669 0.04918 0.0
C363 C 0.15441 0.03464 0.05736 0.0
C364 C 0.14059 0.0444 0.06046 0.0
C365 C 0.11677 0.01844 0.04744 0.0
C366 C 0.13052 0.00873 0.04425 0.0
C367 C 0.1071 0.04658 0.05859 0.0
H368 H 0.93539 0.03576 0.99254 0.0
H369 H 0.95888 0.01692 0.99296 0.0
H370 H 0.99943 0.06052 0.02406 0.0
H371 H 0.97619 0.07955 0.02352 0.0
H372 H 0.16892 0.04123 0.06116 0.0
H373 H 0.14466 0.05823 0.06666 0.0
H374 H 0.10225 0.01191 0.04363 0.0
H375 H 0.12624 0.99486 0.03819 0.0
Tb376 Tb 0.31539 0.8045 0.28737 0.0
Eu377 Eu 0.29988 0.76326 0.26662 0.0
C378 C 0.27251 0.78806 0.27954 0.0
C379 C 0.30599 0.77044 0.30977 0.0
C380 C 0.33942 0.85319 0.30245 0.0
C381 C 0.34571 0.88589 0.3085 0.0
C382 C 0.33389 0.86903 0.30842 0.0
C383 C 0.35681 0.85443 0.29607 0.0
C384 C 0.36872 0.87134 0.29621 0.0
C385 C 0.36341 0.88724 0.30271 0.0
C386 C 0.3272 0.83566 0.30413 0.0
O387 O 0.33892 0.79796 0.27496 0.0
O388 O 0.33065 0.76714 0.275 0.0
O389 O 0.3106 0.78103 0.24538 0.0
O390 O 0.30738 0.80832 0.25872 0.0
C391 C 0.34321 0.78191 0.27421 0.0
O392 O 0.29872 0.73421 0.26543 0.0
O393 O 0.28492 0.74552 0.24282 0.0
O394 O 0.27518 0.77625 0.26681 0.0
O395 O 0.28622 0.79732 0.2915 0.0
O396 O 0.318 0.7853 0.30779 0.0
O397 O 0.2944 0.76152 0.29583 0.0
C398 C 0.30893 0.79787 0.24422 0.0
O399 O 0.31182 0.83118 0.29278 0.0
O400 O 0.33513 0.82194 0.30665 0.0
C401 C 0.27183 0.71572 0.24823 0.0
C402 C 0.24129 0.68619 0.24469 0.0
C403 C 0.25319 0.68847 0.23106 0.0
C404 C 0.26832 0.70309 0.23285 0.0
C405 C 0.25985 0.71379 0.26175 0.0
C406 C 0.24469 0.6991 0.26 0.0
C407 C 0.28796 0.73083 0.24975 0.0
H408 H 0.34102 0.89787 0.31323 0.0
H409 H 0.32049 0.86834 0.31333 0.0
H410 H 0.36136 0.84234 0.29137 0.0
H411 H 0.38229 0.87191 0.29173 0.0
H412 H 0.25076 0.67898 0.21894 0.0
H413 H 0.27735 0.70451 0.22222 0.0
H414 H 0.26232 0.72354 0.27368 0.0
H415 H 0.23588 0.69766 0.2708 0.0
Tb416 Tb 0.53653 0.01399 0.50402 0.0
Eu417 Eu 0.56076 0.04509 0.53438 0.0
C418 C 0.53809 0.00907 0.5452 0.0
C419 C 0.51794 0.04739 0.51842 0.0
C420 C 0.51651 0.96882 0.48096 0.0
C421 C 0.5274 0.943 0.49246 0.0
C422 C 0.52834 0.96163 0.49333 0.0
C423 C 0.50376 0.95725 0.46769 0.0
C424 C 0.50283 0.93859 0.46676 0.0
C425 C 0.51462 0.93126 0.47917 0.0
C426 C 0.51702 0.98828 0.48241 0.0
O427 O 0.54491 0.0371 0.48891 0.0
O428 O 0.57131 0.05125 0.50781 0.0
O429 O 0.57982 0.02465 0.53183 0.0
O430 O 0.56479 0.00709 0.50568 0.0
C431 C 0.56092 0.04871 0.49191 0.0
O432 O 0.57692 0.07234 0.54236 0.0
O433 O 0.57328 0.05311 0.56275 0.0
O434 O 0.53971 0.02658 0.54779 0.0
O435 O 0.54072 1.00186 0.52942 0.0
O436 O 0.51573 0.03038 0.51126 0.0
O437 O 0.53461 0.05632 0.52613 0.0
C438 C 0.57943 0.01176 0.51863 0.0
O439 O 0.51173 0.99453 0.4974 0.0
O440 O 0.53227 0.99852 0.47859 0.0
C441 C 0.5747 0.08386 0.57191 0.0
C442 C 0.56601 0.11389 0.59098 0.0
C443 C 0.58471 0.11262 0.59028 0.0
C444 C 0.58899 0.09771 0.58082 0.0
C445 C 0.55602 0.08459 0.57316 0.0
C446 C 0.5517 0.09949 0.5827 0.0
C447 C 0.57937 0.06989 0.55969 0.0
H448 H 0.53653 0.93777 0.50231 0.0
H449 H 0.53819 0.97043 0.50377 0.0
H450 H 0.49452 0.96264 0.45808 0.0
H451 H 0.49305 0.92993 0.45619 0.0
H452 H 0.59608 0.12358 0.59617 0.0
H453 H 0.60346 0.0974 0.57978 0.0
H454 H 0.54481 0.07399 0.5662 0.0
H455 H 0.53718 0.09998 0.58313 0.0
Tb456 Tb 0.27755 0.27686 0.76129 0.0
Eu457 Eu 0.3211 0.27911 0.77698 0.0
C458 C 0.30755 0.31111 0.75739 0.0
C459 C 0.30449 0.26268 0.73453 0.0
C460 C 0.22853 0.28291 0.75508 0.0
C461 C 0.19638 0.28612 0.74954 0.0
C462 C 0.21164 0.28025 0.74349 0.0
C463 C 0.23039 0.29241 0.7724 0.0
C464 C 0.21512 0.29817 0.77853 0.0
C465 C 0.19777 0.2946 0.76737 0.0
C466 C 0.24353 0.27443 0.74964 0.0
O467 O 0.28114 0.24965 0.7663 0.0
O468 O 0.30428 0.25703 0.79027 0.0
O469 O 0.31012 0.29377 0.80018 0.0
O470 O 0.2785 0.28677 0.79058 0.0
C471 C 0.29014 0.24546 0.7812 0.0
O472 O 0.34469 0.26612 0.7829 0.0
O473 O 0.34799 0.29503 0.78977 0.0
O474 O 0.32032 0.30132 0.75858 0.0
O475 O 0.29091 0.30518 0.76191 0.0
O476 O 0.28971 0.26983 0.7363 0.0
O477 O 0.31699 0.26269 0.74889 0.0
C478 C 0.29285 0.29395 0.80322 0.0
O479 O 0.25711 0.28489 0.74326 0.0
O480 O 0.24966 0.26412 0.76129 0.0
C481 C 0.37342 0.28495 0.7797 0.0
C482 C 0.40588 0.29436 0.76288 0.0
C483 C 0.40667 0.29704 0.78202 0.0
C484 C 0.39053 0.29236 0.79036 0.0
C485 C 0.37256 0.28206 0.76063 0.0
C486 C 0.38867 0.28664 0.7523 0.0
C487 C 0.35635 0.28143 0.78838 0.0
H488 H 0.18331 0.28344 0.74051 0.0
H489 H 0.21005 0.27304 0.73002 0.0
H490 H 0.2434 0.29463 0.78148 0.0
H491 H 0.21666 0.30449 0.79239 0.0
H492 H 0.41965 0.30317 0.79053 0.0
H493 H 0.39135 0.29485 0.80508 0.0
H494 H 0.35939 0.27647 0.75217 0.0
H495 H 0.38764 0.28415 0.73756 0.0
Tb496 Tb 0.04875 0.02111 0.50147 0.0
Eu497 Eu 0.05048 0.04221 0.54097 0.0
C498 C 0.08761 0.04347 0.52127 0.0
C499 C 0.05174 0.99847 0.5374 0.0
C500 C 0.03998 0.00845 0.45133 0.0
C501 C 0.0345 0.99942 0.41873 0.0
C502 C 0.04157 0.99665 0.43643 0.0
C503 C 0.03127 0.02307 0.44845 0.0
C504 C 0.02423 0.02588 0.43075 0.0
C505 C 0.02576 0.01407 0.4157 0.0
C506 C 0.04772 1.00557 0.46978 0.0
O507 O 0.01889 0.01958 0.50455 0.0
O508 O 0.02123 0.02493 0.53565 0.0
O509 O 0.04423 0.06336 0.52161 0.0
O510 O 0.04898 0.04948 0.49447 0.0
C511 C 1.01111 0.01881 0.51982 0.0
O512 O 0.03815 0.05682 0.56132 0.0
O513 O 0.06676 0.05338 0.567 0.0
O514 O 0.07836 0.05276 0.5311 0.0
O515 O 0.07881 0.02793 0.51225 0.0
O516 O 0.04899 0.99857 0.51935 0.0
O517 O 0.0544 0.01383 0.54805 0.0
C518 C 0.04635 0.06402 0.50412 0.0
O519 O 0.06138 0.01832 0.47767 0.0
O520 O 0.03565 1.00048 0.48089 0.0
C521 C 0.0498 0.05426 0.59204 0.0
C522 C 0.04943 0.04846 0.62924 0.0
C523 C 0.0441 0.06387 0.62249 0.0
C524 C 0.04439 0.06678 0.60405 0.0
C525 C 0.05374 0.03819 0.59837 0.0
C526 C 0.05364 0.03535 0.61684 0.0
C527 C 0.05288 0.05887 0.5735 0.0
H528 H 0.03609 0.99023 0.40739 0.0
H529 H 0.04835 0.98536 0.43847 0.0
H530 H 0.02993 0.03229 0.45988 0.0
H531 H 0.01738 0.03714 0.42887 0.0
H532 H 0.04041 0.07404 0.6316 0.0
H533 H 0.04113 0.07917 0.59933 0.0
H534 H 0.05779 0.02825 0.58925 0.0
H535 H 0.05796 0.0234 0.62154 0.0
Tb536 Tb 0.29112 0.76707 0.7778 0.0
Eu537 Eu 0.30678 0.8087 0.76992 0.0
C538 C 0.28984 0.79893 0.80691 0.0
C539 C 0.26308 0.7899 0.75895 0.0
C540 C 0.28716 0.7181 0.78149 0.0
C541 C 0.28246 0.68536 0.77844 0.0
C542 C 0.2756 0.70106 0.78168 0.0
C543 C 0.30575 0.71936 0.77836 0.0
C544 C 0.31263 0.70368 0.77518 0.0
C545 C 0.30099 0.6865 0.77497 0.0
C546 C 0.27944 0.73443 0.78331 0.0
O547 O 0.30703 0.76473 0.75494 0.0
O548 O 0.30581 0.79187 0.74348 0.0
O549 O 0.33308 0.79748 0.777 0.0
O550 O 0.32014 0.77344 0.7919 0.0
C551 C 0.3083 0.77521 0.74149 0.0
O552 O 0.30531 0.8313 0.75331 0.0
O553 O 0.32607 0.8347 0.77714 0.0
O554 O 0.30266 0.80954 0.79953 0.0
O555 O 0.2809 0.78325 0.79847 0.0
O556 O 0.26815 0.77417 0.75967 0.0
O557 O 0.27495 0.80493 0.7658 0.0
C558 C 0.335 0.78472 0.78797 0.0
O559 O 0.28818 0.74693 0.7961 0.0
O560 O 0.27549 0.74123 0.768 0.0
C561 C 0.31178 0.8592 0.77116 0.0
C562 C 0.29838 0.88992 0.7826 0.0
C563 C 0.30709 0.88952 0.76663 0.0
C564 C 0.31378 0.87426 0.76098 0.0
C565 C 0.30316 0.85958 0.78712 0.0
C566 C 0.29662 0.87484 0.79285 0.0
C567 C 0.31771 0.84274 0.76464 0.0
H568 H 0.27323 0.67232 0.77853 0.0
H569 H 0.26119 0.6999 0.784 0.0
H570 H 0.3148 0.73245 0.77798 0.0
H571 H 0.32689 0.705 0.77229 0.0
H572 H 0.30871 0.90098 0.75852 0.0
H573 H 0.32028 0.87411 0.74855 0.0
H574 H 0.30122 0.84797 0.79501 0.0
H575 H 0.2897 0.87464 0.80503 0.0
Tb576 Tb 0.55805 0.02638 0.03641 0.0
Eu577 Eu 0.54499 0.03743 0.99657 0.0
C578 C 0.55549 0.99795 0.00146 0.0
C579 C 0.58762 0.04511 0.01316 0.0
C580 C 0.56504 0.02179 0.08619 0.0
C581 C 0.5701 0.01799 0.11852 0.0
C582 C 0.57374 0.01425 0.10069 0.0
C583 C 0.55259 0.03304 0.08955 0.0
C584 C 0.54893 0.03679 0.10736 0.0
C585 C 0.55768 0.02932 0.12202 0.0
C586 C 0.569 0.01786 0.06761 0.0
O587 O 0.55597 0.05532 0.04188 0.0
O588 O 0.53792 0.05959 0.0157 0.0
O589 O 0.51912 0.02124 0.00524 0.0
O590 O 0.5282 0.02474 0.03622 0.0
C591 C 0.54597 0.06535 0.0326 0.0
O592 O 0.54555 0.05737 0.97653 0.0
O593 O 0.5312 0.02972 0.96855 0.0
O594 O 0.5569 0.01182 0.99142 0.0
O595 O 0.55269 1.00045 0.01871 0.0
O596 O 0.58336 0.03169 0.02321 0.0
O597 O 0.57455 0.05196 0.00467 0.0
C598 C 0.51527 0.01976 0.02203 0.0
O599 O 0.55514 0.00809 0.05645 0.0
O600 O 0.5776 0.03165 0.06009 0.0
C601 C 0.55179 0.04329 0.9495 0.0
C602 C 0.57577 0.03489 0.92471 0.0
C603 C 0.55819 0.03841 0.9183 0.0
C604 C 0.54622 0.04254 0.93066 0.0
C605 C 0.56954 0.04042 0.95586 0.0
C606 C 0.5814 0.0363 0.94364 0.0
C607 C 0.53893 0.04503 0.96292 0.0
H608 H 0.57688 0.01191 0.12954 0.0
H609 H 0.58334 1.00548 0.09821 0.0
H610 H 0.5458 0.03898 0.07841 0.0
H611 H 0.5395 0.04576 0.10969 0.0
H612 H 0.55353 0.03756 0.90375 0.0
H613 H 0.5325 0.04458 0.92554 0.0
H614 H 0.57396 0.04058 0.97036 0.0
H615 H 0.59461 0.03331 0.94911 0.0
Tb616 Tb 0.30336 0.30042 0.27877 0.0
Eu617 Eu 0.28458 0.26129 0.25827 0.0
C618 C 0.30357 0.26538 0.30149 0.0
C619 C 0.32866 0.27855 0.25545 0.0
C620 C 0.30873 0.34855 0.29318 0.0
C621 C 0.31263 0.3812 0.29373 0.0
C622 C 0.32033 0.36583 0.29554 0.0
C623 C 0.28937 0.34677 0.28923 0.0
C624 C 0.28168 0.36206 0.28751 0.0
C625 C 0.29322 0.37943 0.28958 0.0
C626 C 0.31676 0.33231 0.29323 0.0
O627 O 0.28836 0.30663 0.25274 0.0
O628 O 0.28768 0.28035 0.23558 0.0
O629 O 0.25974 0.27033 0.26962 0.0
O630 O 0.27524 0.29569 0.28801 0.0
C631 C 0.28691 0.2976 0.23646 0.0
O632 O 0.26809 0.24473 0.23419 0.0
O633 O 0.27735 0.232 0.2578 0.0
O634 O 0.29204 0.25549 0.28791 0.0
O635 O 0.31152 0.28233 0.29948 0.0
O636 O 0.32643 0.29361 0.26438 0.0
O637 O 0.31522 0.26386 0.2535 0.0
C638 C 0.25981 0.28335 0.28254 0.0
O639 O 0.30856 0.31931 0.30196 0.0
O640 O 0.31993 0.32617 0.2773 0.0
C641 C 0.27773 0.21698 0.22955 0.0
C642 C 0.29867 0.19115 0.2208 0.0
C643 C 0.27962 0.1857 0.22265 0.0
C644 C 0.26928 0.19857 0.22725 0.0
C645 C 0.29581 0.22256 0.22508 0.0
C646 C 0.30625 0.20976 0.22079 0.0
C647 C 0.26988 0.22953 0.24075 0.0
H648 H 0.32183 0.39443 0.29544 0.0
H649 H 0.33533 0.3674 0.2984 0.0
H650 H 0.2802 0.33352 0.28702 0.0
H651 H 0.26673 0.3602 0.28394 0.0
H652 H 0.27319 0.17149 0.22222 0.0
H653 H 0.25528 0.19405 0.2306 0.0
H654 H 0.30253 0.23676 0.22674 0.0
H655 H 0.32083 0.21459 0.21948 0.0
Tb656 Tb 0.54736 0.51946 0.00071 0.0
Eu657 Eu 0.54846 0.54076 0.03991 0.0
C658 C 0.58582 0.54219 0.02074 0.0
C659 C 0.54998 0.49713 0.03688 0.0
C660 C 0.53977 0.50525 0.95048 0.0
C661 C 0.54086 0.49957 0.91796 0.0
C662 C 0.54757 0.49789 0.93608 0.0
C663 C 0.52524 0.51444 0.94665 0.0
C664 C 0.51844 0.51605 0.92851 0.0
C665 C 0.52617 0.50861 0.91395 0.0
C666 C 0.54727 0.50354 0.96938 0.0
O667 O 0.51738 0.51813 0.00316 0.0
O668 O 0.51925 0.52334 0.03423 0.0
O669 O 0.54246 0.56181 0.02034 0.0
O670 O 0.54761 0.54777 0.99342 0.0
C671 C 0.50932 0.5173 0.01829 0.0
O672 O 0.53588 0.55521 0.06011 0.0
O673 O 0.56455 0.55208 0.06602 0.0
O674 O 0.57625 0.5516 0.03003 0.0
O675 O 0.57727 0.52637 0.01215 0.0
O676 O 0.54714 0.49703 0.01881 0.0
O677 O 0.55276 0.51261 0.04733 0.0
C678 C 0.54487 0.56237 0.0029 0.0
O679 O 0.56033 0.51695 0.97705 0.0
O680 O 0.53515 0.49829 0.98041 0.0
C681 C 0.54738 0.55222 0.09067 0.0
C682 C 0.54748 0.54225 0.12664 0.0
C683 C 0.54268 0.52894 0.11166 0.0
C684 C 0.54265 0.5339 0.09378 0.0
C685 C 0.55115 0.56555 0.10545 0.0
C686 C 0.55118 0.56063 0.12331 0.0
C687 C 0.55056 0.55745 0.07241 0.0
H688 H 0.54734 0.49395 0.90711 0.0
H689 H 0.55893 0.49091 0.93885 0.0
H690 H 0.51914 0.52031 0.95766 0.0
H691 H 0.50697 0.52292 0.9259 0.0
H692 H 0.5396 0.5147 0.11379 0.0
H693 H 0.53972 0.52344 0.08244 0.0
H694 H 0.55496 0.57974 0.10323 0.0
H695 H 0.55521 0.57122 0.13451 0.0
Tb696 Tb 0.78851 0.26559 0.27613 0.0
Eu697 Eu 0.80429 0.30761 0.2686 0.0
C698 C 0.78674 0.29718 0.30513 0.0
C699 C 0.76013 0.28826 0.25709 0.0
C700 C 0.7866 0.21728 0.28221 0.0
C701 C 0.78355 0.18473 0.2775 0.0
C702 C 0.77541 0.19983 0.27929 0.0
C703 C 0.80607 0.21951 0.28364 0.0
C704 C 0.81423 0.20444 0.28194 0.0
C705 C 0.80306 0.18688 0.2786 0.0
C706 C 0.77786 0.23308 0.28263 0.0
O707 O 0.80239 0.26281 0.25185 0.0
O708 O 0.80581 0.29153 0.24244 0.0
O709 O 0.83075 0.29684 0.27592 0.0
O710 O 0.81773 0.27216 0.28996 0.0
C711 C 0.80601 0.27431 0.23953 0.0
O712 O 0.80497 0.32978 0.25116 0.0
O713 O 0.82092 0.33453 0.27808 0.0
O714 O 0.79994 0.30769 0.29816 0.0
O715 O 0.77767 0.28176 0.29628 0.0
O716 O 0.76458 0.27238 0.25918 0.0
O717 O 0.77246 0.30342 0.2626 0.0
C718 C 0.8326 0.28376 0.28647 0.0
O719 O 0.7854 0.24623 0.29521 0.0
O720 O 0.77423 0.23909 0.26681 0.0
C721 C 0.80585 0.35726 0.26805 0.0
C722 C 0.78784 0.38609 0.27473 0.0
C723 C 0.8038 0.38862 0.26564 0.0
C724 C 0.81272 0.37426 0.26229 0.0
C725 C 0.79011 0.35473 0.27732 0.0
C726 C 0.7812 0.36902 0.28066 0.0
C727 C 0.81452 0.34188 0.26392 0.0
H728 H 0.77453 0.17144 0.27468 0.0
H729 H 0.76035 0.19791 0.278 0.0
H730 H 0.81494 0.23292 0.28579 0.0
H731 H 0.82929 0.20656 0.28313 0.0
H732 H 0.80914 0.40158 0.26079 0.0
H733 H 0.82481 0.37636 0.25503 0.0
H734 H 0.78464 0.34165 0.28187 0.0
H735 H 0.76913 0.3667 0.28795 0.0
Tb736 Tb 0.05193 0.52525 0.54289 0.0
Eu737 Eu 0.04481 0.53761 0.50249 0.0
C738 C 0.05113 0.49679 0.5082 0.0
C739 C 0.08559 0.54032 0.52254 0.0
C740 C 0.04367 0.51418 0.58937 0.0
C741 C 0.04014 0.52274 0.62079 0.0
C742 C 0.05151 0.52151 0.6071 0.0
C743 C 0.0243 0.50748 0.58565 0.0
C744 C 1.0129 0.50861 0.59937 0.0
C745 C 0.02065 0.51656 0.61703 0.0
C746 C 0.0556 0.51499 0.57466 0.0
O747 O 0.04246 0.55123 0.54791 0.0
O748 O 0.04871 0.56381 0.52142 0.0
O749 O 0.01654 0.53404 0.51177 0.0
O750 O 0.02224 0.51563 0.53414 0.0
C751 C 0.04497 0.56562 0.53844 0.0
O752 O 0.05465 0.55597 0.48255 0.0
O753 O 0.02995 0.53474 0.47481 0.0
O754 O 0.04179 0.50678 0.49836 0.0
O755 O 0.05925 0.50336 0.52493 0.0
O756 O 0.07874 0.54088 0.5381 0.0
O757 O 0.07461 0.5346 0.50725 0.0
C758 C 1.01063 0.5225 0.5233 0.0
O759 O 0.04915 0.50407 0.55993 0.0
O760 O 0.06281 0.53118 0.57074 0.0
C761 C 0.05269 0.53887 0.45472 0.0
C762 C 0.07634 0.52615 0.43195 0.0
C763 C 0.07329 0.54389 0.43137 0.0
C764 C 0.0616 0.55024 0.44278 0.0
C765 C 0.05538 0.52102 0.45492 0.0
C766 C 0.06703 0.51472 0.44363 0.0
C767 C 0.04329 0.54621 0.46907 0.0
H768 H 0.04659 0.52929 0.63412 0.0
H769 H 0.06639 0.52688 0.61021 0.0
H770 H 0.01789 0.50176 0.57205 0.0
H771 H 0.998 0.50356 0.59605 0.0
H772 H 0.08034 0.55299 0.4225 0.0
H773 H 0.06002 0.56417 0.44273 0.0
H774 H 0.04892 0.51204 0.46421 0.0
H775 H 0.06878 0.50087 0.4441 0.0
Tb776 Tb 0.78143 0.78421 0.26063 0.0
Eu777 Eu 0.82462 0.78568 0.27526 0.0
C778 C 0.81147 0.81748 0.2563 0.0
C779 C 0.80684 0.76833 0.23352 0.0
C780 C 0.7322 0.78465 0.26136 0.0
C781 C 0.70071 0.78868 0.26353 0.0
C782 C 0.7151 0.78744 0.25303 0.0
C783 C 0.73485 0.78313 0.28024 0.0
C784 C 0.72052 0.78437 0.29073 0.0
C785 C 0.7033 0.78716 0.28249 0.0
C786 C 0.74764 0.78424 0.25067 0.0
O787 O 0.78169 0.76395 0.27999 0.0
O788 O 0.80936 0.75688 0.27502 0.0
O789 O 0.81272 0.79338 0.30131 0.0
O790 O 0.7854 0.79991 0.28797 0.0
C791 C 0.79301 0.75263 0.28066 0.0
O792 O 0.84674 0.77521 0.29059 0.0
O793 O 0.85362 0.79934 0.27652 0.0
O794 O 0.82074 0.81389 0.27126 0.0
O795 O 0.79821 0.80494 0.24717 0.0
O796 O 0.79008 0.76733 0.2387 0.0
O797 O 0.82186 0.77714 0.24443 0.0
C798 C 0.79767 0.80015 0.30266 0.0
O799 O 0.76079 0.79882 0.25339 0.0
O800 O 0.7544 0.76957 0.25091 0.0
C801 C 0.87478 0.78015 0.27742 0.0
C802 C 0.90442 0.77204 0.25991 0.0
C803 C 0.90762 0.7797 0.27819 0.0
C804 C 0.89288 0.78379 0.28685 0.0
C805 C 0.87133 0.77153 0.25957 0.0
C806 C 0.88606 0.76753 0.25085 0.0
C807 C 0.86003 0.78712 0.28543 0.0
H808 H 0.68752 0.79063 0.25679 0.0
H809 H 0.71293 0.78875 0.23847 0.0
H810 H 0.74807 0.78114 0.2869 0.0
H811 H 0.72303 0.7834 0.30533 0.0
H812 H 0.92164 0.78351 0.28543 0.0
H813 H 0.89575 0.79052 0.30062 0.0
H814 H 0.85739 0.76862 0.25211 0.0
H815 H 0.88319 0.76149 0.23682 0.0
Tb816 Tb 0.8388 0.32443 0.78927 0.0
Eu817 Eu 0.82 0.28326 0.76975 0.0
C818 C 0.79497 0.30878 0.78549 0.0
C819 C 0.82888 0.292 0.81344 0.0
C820 C 0.86914 0.37077 0.79958 0.0
C821 C 0.88353 0.40275 0.80329 0.0
C822 C 0.86987 0.3884 0.80714 0.0
C823 C 0.88236 0.36756 0.78818 0.0
C824 C 0.89614 0.38193 0.78438 0.0
C825 C 0.89676 0.39972 0.79178 0.0
C826 C 0.85409 0.3561 0.80325 0.0
O827 O 0.86098 0.30939 0.78813 0.0
O828 O 0.84881 0.29111 0.76206 0.0
O829 O 0.8151 0.30295 0.74939 0.0
O830 O 0.84009 0.32589 0.75991 0.0
C831 C 0.86308 0.29871 0.77411 0.0
O832 O 0.82234 0.25511 0.76434 0.0
O833 O 0.79879 0.26458 0.75092 0.0
O834 O 0.79703 0.29198 0.78309 0.0
O835 O 0.80879 0.32275 0.78543 0.0
O836 O 0.8289 0.30918 0.81154 0.0
O837 O 0.82927 0.28049 0.79939 0.0
C838 C 0.82692 0.31763 0.74679 0.0
O839 O 0.83939 0.35235 0.791 0.0
O840 O 0.85895 0.34148 0.80865 0.0
C841 C 0.79425 0.23356 0.75543 0.0
C842 C 0.76956 0.20039 0.75722 0.0
C843 C 0.78281 0.20186 0.74484 0.0
C844 C 0.79503 0.21829 0.74398 0.0
C845 C 0.78127 0.23222 0.76801 0.0
C846 C 0.76897 0.21573 0.76888 0.0
C847 C 0.80664 0.25079 0.75338 0.0
H848 H 0.88378 0.41624 0.80941 0.0
H849 H 0.85976 0.39111 0.81595 0.0
H850 H 0.8819 0.35401 0.78209 0.0
H851 H 0.90605 0.3792 0.77536 0.0
H852 H 0.78343 0.19041 0.73546 0.0
H853 H 0.80491 0.21915 0.73413 0.0
H854 H 0.78054 0.24394 0.77697 0.0
H855 H 0.75904 0.21498 0.77867 0.0
Tb856 Tb 0.8044 0.79923 0.77885 0.0
Eu857 Eu 0.78742 0.75981 0.75792 0.0
C858 C 0.80559 0.76415 0.80153 0.0
C859 C 0.83038 0.77967 0.75521 0.0
C860 C 0.82021 0.8488 0.78681 0.0
C861 C 0.82069 0.88087 0.79197 0.0
C862 C 0.82252 0.86445 0.7988 0.0
C863 C 0.81771 0.85002 0.76786 0.0
C864 C 0.81562 0.86635 0.76101 0.0
C865 C 0.81615 0.88175 0.77305 0.0
C866 C 0.81651 0.83102 0.79399 0.0
O867 O 0.7927 0.80617 0.75166 0.0
O868 O 0.7848 0.77842 0.73502 0.0
O869 O 0.76165 0.76881 0.7672 0.0
O870 O 0.77736 0.79054 0.78958 0.0
C871 C 0.78741 0.79622 0.73575 0.0
O872 O 0.78591 0.74001 0.73452 0.0
O873 O 0.7698 0.73276 0.75648 0.0
O874 O 0.79556 0.7538 0.78733 0.0
O875 O 0.81214 0.78158 0.8002 0.0
O876 O 0.82603 0.79492 0.76132 0.0
O877 O 0.81889 0.76412 0.75628 0.0
C878 C 0.76162 0.77965 0.78202 0.0
O879 O 0.799 0.82297 0.79123 0.0
O880 O 0.82729 0.81991 0.79023 0.0
C881 C 0.78491 0.71096 0.74389 0.0
C882 C 0.80694 0.68451 0.7465 0.0
C883 C 0.79762 0.6871 0.72948 0.0
C884 C 0.78668 0.70022 0.7282 0.0
C885 C 0.79358 0.70786 0.76099 0.0
C886 C 0.8044 0.69473 0.76229 0.0
C887 C 0.77633 0.72685 0.7421 0.0
H888 H 0.82164 0.89258 0.8016 0.0
H889 H 0.82446 0.86374 0.81348 0.0
H890 H 0.81594 0.83805 0.75839 0.0
H891 H 0.81207 0.86644 0.74639 0.0
H892 H 0.79922 0.67934 0.71709 0.0
H893 H 0.78025 0.70251 0.71487 0.0
H894 H 0.79271 0.71615 0.7733 0.0
H895 H 0.81161 0.69329 0.77556 0.0
Tb896 Tb 0.52802 0.52774 0.52597 0.0
Eu897 Eu 0.57215 0.54447 0.54317 0.0
C898 C 0.56097 0.51486 0.50882 0.0
C899 C 0.54903 0.50746 0.55358 0.0
C900 C 0.4784 0.52785 0.51548 0.0
C901 C 0.44773 0.5323 0.50353 0.0
C902 C 0.46182 0.52234 0.50341 0.0
C903 C 0.48071 0.54339 0.52776 0.0
C904 C 0.46663 0.55329 0.52796 0.0
C905 C 0.45001 0.54794 0.51575 0.0
C906 C 0.49365 0.518 0.51466 0.0
O907 O 0.52882 0.5427 0.55236 0.0
O908 O 0.55613 0.56402 0.55456 0.0
O909 O 0.56622 0.55785 0.51755 0.0
O910 O 0.53491 0.55517 0.51838 0.0
C911 C 0.53916 0.55864 0.55855 0.0
O912 O 0.59442 0.5495 0.56627 0.0
O913 O 0.60086 0.55595 0.53935 0.0
O914 O 0.57163 0.51968 0.52455 0.0
O915 O 0.54448 0.51905 0.50564 0.0
O916 O 0.53814 0.50559 0.53794 0.0
O917 O 0.55906 0.52332 0.56033 0.0
C918 C 0.55033 0.56227 0.51201 0.0
O919 O 0.50613 0.52438 0.50432 0.0
O920 O 0.50134 0.51433 0.53037 0.0
C921 C 0.62154 0.54196 0.55663 0.0
C922 C 0.64775 0.51971 0.55357 0.0
C923 C 0.65363 0.53867 0.55652 0.0
C924 C 0.6406 0.54972 0.55796 0.0
C925 C 0.61568 0.52304 0.55423 0.0
C926 C 0.62865 0.51203 0.55275 0.0
C927 C 0.60754 0.55339 0.55585 0.0
H928 H 0.43503 0.52772 0.49408 0.0
H929 H 0.45984 0.51044 0.49378 0.0
H930 H 0.49353 0.548 0.53704 0.0
H931 H 0.46895 0.56539 0.53737 0.0
H932 H 0.66822 0.545 0.55706 0.0
H933 H 0.64533 0.5643 0.55959 0.0
H934 H 0.601 0.51678 0.55305 0.0
H935 H 0.62369 0.49748 0.55076 0.0
Tb936 Tb 0.03247 0.51047 0.00149 0.0
Eu937 Eu 0.05705 0.54209 0.03139 0.0
C938 C 0.03736 0.50418 0.04288 0.0
C939 C 0.01395 0.54361 0.01624 0.0
C940 C 0.01358 0.46529 0.9776 0.0
C941 C 0.02783 0.44014 0.98563 0.0
C942 C 0.0276 0.45856 0.98768 0.0
C943 C 0.99972 0.45345 0.96556 0.0
C944 C 0.99991 0.435 0.96352 0.0
C945 C 0.01399 0.42816 0.9735 0.0
C946 C 1.01318 0.48456 0.97996 0.0
O947 O 0.03771 0.53365 0.98585 0.0
O948 O 0.06229 0.5522 0.00425 0.0
O949 O 0.07548 0.52107 0.02909 0.0
O950 O 0.06136 0.50521 0.00186 0.0
C951 C 0.05137 0.54795 0.98864 0.0
O952 O 0.0837 0.56006 0.0419 0.0
O953 O 0.05987 0.55971 0.05661 0.0
O954 O 0.04044 0.52169 0.04702 0.0
O955 O 0.03753 0.49743 0.02617 0.0
O956 O 1.01168 0.52627 0.01012 0.0
O957 O 0.0308 0.55298 0.02277 0.0
C958 C 0.07563 0.50908 0.01524 0.0
O959 O 1.00836 0.48999 0.99552 0.0
O960 O 0.02772 0.4956 0.97573 0.0
C961 C 0.08058 0.58764 0.05631 0.0
C962 C 0.08818 0.62566 0.05825 0.0
C963 C 0.10089 0.61657 0.06733 0.0
C964 C 0.09708 0.59768 0.06639 0.0
C965 C 0.06799 0.59663 0.04698 0.0
C966 C 0.07172 0.61552 0.04803 0.0
C967 C 0.07689 0.56782 0.0551 0.0
H968 H 0.03873 0.43525 0.99364 0.0
H969 H 0.03833 0.46756 0.99717 0.0
H970 H 0.98879 0.45847 0.95773 0.0
H971 H 0.98922 0.42614 0.9539 0.0
H972 H 0.11359 0.62407 0.07544 0.0
H973 H 0.10698 0.5909 0.07354 0.0
H974 H 0.05529 0.58906 0.03889 0.0
H975 H 0.06179 0.62219 0.04076 0.0
H976 H 1.00604 0.15841 0.90872 0.0
H977 H 0.02134 0.13658 0.92373 0.0
H978 H 0.07499 0.16668 0.91441 0.0
H979 H 0.05978 0.1888 0.89935 0.0
H980 H 0.04781 0.1149 0.91268 0.0
H981 H 0.07633 0.16729 0.97137 0.0
H982 H 0.05777 0.17004 0.95433 0.0
H983 H 0.08109 0.17235 0.94871 0.0
C984 C 0.02107 0.1603 0.9096 0.0
C985 C 0.03172 0.17548 0.90308 0.0
C986 C 0.02978 0.14775 0.91809 0.0
C987 C 0.04927 0.15016 0.9203 0.0
C988 C 0.05993 0.16471 0.91293 0.0
H989 H 0.08658 0.07053 0.99127 0.0
H990 H 0.09012 0.09218 0.9679 0.0
C991 C 0.0512 0.17729 0.90431 0.0
C992 C 0.05809 0.13835 0.932 0.0
H993 H 0.07619 0.13709 0.97641 0.0
C994 C 0.05461 0.11976 0.92643 0.0
C995 C 0.06686 0.14483 0.94993 0.0
C996 C 0.07074 0.16469 0.9566 0.0
C997 C 0.05841 0.10732 0.9388 0.0
C998 C 0.06577 0.11371 0.9571 0.0
C999 C 0.07063 0.13236 0.96228 0.0
C1000 C 0.06472 0.10134 0.97165 0.0
C1001 C 0.05309 0.08732 0.93277 0.0
C1002 C 0.04942 0.09963 0.98146 0.0
C1003 C 0.0473 0.08735 0.99463 0.0
C1004 C 0.06054 0.07661 0.9983 0.0
C1005 C 0.07618 0.07868 0.98876 0.0
C1006 C 0.07822 0.09096 0.97542 0.0
H1007 H 0.04864 0.08458 0.91778 0.0
H1008 H 0.06508 0.08085 0.93649 0.0
H1009 H 0.04146 0.08092 0.94002 0.0
H1010 H 0.03888 0.10758 0.97867 0.0
H1011 H 0.03515 0.08617 0.00179 0.0
H1012 H 0.16789 0.8572 0.18825 0.0
H1013 H 0.18781 0.84972 0.21409 0.0
H1014 H 0.14046 0.81425 0.23049 0.0
H1015 H 0.12028 0.82174 0.20476 0.0
H1016 H 0.17298 0.8365 0.2608 0.0
H1017 H 0.1913 0.79327 0.20448 0.0
H1018 H 0.19228 0.81662 0.20058 0.0
H1019 H 0.17025 0.80213 0.20237 0.0
C1020 C 0.16157 0.84822 0.19763 0.0
C1021 C 0.14259 0.83975 0.19422 0.0
C1022 C 0.17296 0.84406 0.21245 0.0
C1023 C 0.16556 0.83135 0.22401 0.0
C1024 C 0.14634 0.82415 0.2217 0.0
H1025 H 0.23904 0.76544 0.26819 0.0
H1026 H 0.20942 0.77442 0.25964 0.0
C1027 C 0.13489 0.82838 0.20692 0.0
C1028 C 0.1783 0.82307 0.2359 0.0
H1029 H 0.20932 0.79551 0.23327 0.0
C1030 C 0.18085 0.82739 0.25492 0.0
C1031 C 0.18815 0.81092 0.22811 0.0
C1032 C 0.18532 0.80529 0.20779 0.0
C1033 C 0.19372 0.82033 0.26635 0.0
C1034 C 0.20432 0.80892 0.2584 0.0
C1035 C 0.20115 0.80417 0.23942 0.0
C1036 C 0.21991 0.80278 0.26885 0.0
C1037 C 0.19587 0.82518 0.28673 0.0
C1038 C 0.23533 0.81555 0.27785 0.0
C1039 C 0.25218 0.81036 0.28306 0.0
C1040 C 0.25391 0.79243 0.27892 0.0
C1041 C 0.23807 0.77939 0.27136 0.0
C1042 C 0.22115 0.7845 0.26653 0.0
H1043 H 0.18279 0.82822 0.29106 0.0
H1044 H 0.19975 0.8141 0.29443 0.0
H1045 H 0.20702 0.83751 0.29046 0.0
H1046 H 0.23488 0.82978 0.27943 0.0
H1047 H 0.26424 0.82069 0.28877 0.0
H1048 H 0.53345 0.77083 0.4339 0.0
H1049 H 0.53696 0.80021 0.45122 0.0
H1050 H 0.47719 0.79216 0.44928 0.0
H1051 H 0.47357 0.7625 0.43232 0.0
H1052 H 0.52275 0.82625 0.43493 0.0
H1053 H 0.49482 0.81629 0.50089 0.0
H1054 H 0.50123 0.79823 0.48736 0.0
H1055 H 0.47919 0.80453 0.48144 0.0
C1056 C 0.52107 0.77509 0.4376 0.0
C1057 C 0.50322 0.76446 0.43159 0.0
C1058 C 0.52311 0.79185 0.44753 0.0
C1059 C 0.50735 0.79834 0.45158 0.0
C1060 C 0.48956 0.78727 0.44662 0.0
H1061 H 0.48366 0.9038 0.47307 0.0
H1062 H 0.48268 0.87127 0.46839 0.0
C1063 C 0.4875 0.77037 0.43682 0.0
C1064 C 0.5094 0.8176 0.45822 0.0
H1065 H 0.49851 0.84625 0.49111 0.0
C1066 C 0.5177 0.83062 0.44737 0.0
C1067 C 0.50259 0.82323 0.47431 0.0
C1068 C 0.49411 0.80984 0.48677 0.0
C1069 C 0.51901 0.84911 0.45192 0.0
C1070 C 0.51206 0.85475 0.46791 0.0
C1071 C 0.50387 0.8418 0.47889 0.0
C1072 C 0.51265 0.87408 0.47291 0.0
C1073 C 0.52726 0.86243 0.43925 0.0
C1074 C 0.52982 0.8863 0.47737 0.0
C1075 C 0.53044 0.90486 0.47982 0.0
C1076 C 0.51388 0.91149 0.47794 0.0
C1077 C 0.49666 0.89912 0.47426 0.0
C1078 C 0.49606 0.88055 0.47179 0.0
H1079 H 0.52831 0.85567 0.42568 0.0
H1080 H 0.51874 0.87286 0.43713 0.0
H1081 H 0.54151 0.86943 0.44547 0.0
H1082 H 0.54275 0.88149 0.47841 0.0
H1083 H 0.54392 0.91403 0.48254 0.0
H1084 H 0.56586 0.32608 0.7059 0.0
H1085 H 0.53821 0.32081 0.72173 0.0
H1086 H 0.50538 0.33464 0.67471 0.0
H1087 H 0.53285 0.33957 0.65859 0.0
H1088 H 0.5144 0.34304 0.73094 0.0
H1089 H 0.47689 0.28443 0.6824 0.0
H1090 H 0.50137 0.29401 0.68276 0.0
H1091 H 0.48405 0.30482 0.67173 0.0
C1092 C 0.55277 0.32808 0.69894 0.0
C1093 C 0.55147 0.33304 0.68092 0.0
C1094 C 0.53701 0.32507 0.70802 0.0
C1095 C 0.51972 0.32699 0.69924 0.0
C1096 C 0.51853 0.33267 0.68154 0.0
H1097 H 0.40872 0.31088 0.73124 0.0
H1098 H 0.43657 0.3195 0.71617 0.0
C1099 C 0.53425 0.33556 0.6724 0.0
C1100 C 0.50288 0.32272 0.70851 0.0
H1101 H 0.45996 0.29475 0.7049 0.0
C1102 C 0.5025 0.33247 0.72529 0.0
C1103 C 0.48744 0.30885 0.70109 0.0
C1104 C 0.48745 0.2973 0.6836 0.0
C1105 C 0.48694 0.32885 0.73476 0.0
C1106 C 0.47152 0.31507 0.72728 0.0
C1107 C 0.47185 0.30537 0.7105 0.0
C1108 C 0.45492 0.3103 0.73674 0.0
C1109 C 0.48697 0.33991 0.75256 0.0
C1110 C 0.4561 0.30214 0.75318 0.0
C1111 C 0.44019 0.29699 0.76173 0.0
C1112 C 0.42285 0.29991 0.75393 0.0
C1113 C 0.4218 0.30818 0.73746 0.0
C1114 C 0.43769 0.31324 0.7289 0.0
H1115 H 0.49819 0.35233 0.75456 0.0
H1116 H 0.47332 0.34388 0.75309 0.0
H1117 H 0.48925 0.33163 0.7641 0.0
H1118 H 0.46927 0.2995 0.75924 0.0
H1119 H 0.44141 0.29042 0.77425 0.0
H1120 H 0.04256 0.85083 0.63171 0.0
H1121 H 0.04478 0.88127 0.6208 0.0
H1122 H 0.0403 0.85794 0.56527 0.0
H1123 H 0.03784 0.82794 0.5759 0.0
H1124 H 0.0686 0.90374 0.60243 0.0
H1125 H 1.00163 0.88737 0.55708 0.0
H1126 H 1.00805 0.87224 0.57333 0.0
H1127 H 0.01663 0.87244 0.55143 0.0
C1128 C 0.04193 0.85209 0.61715 0.0
C1129 C 0.03981 0.83635 0.60488 0.0
C1130 C 0.04325 0.86973 0.61082 0.0
C1131 C 0.0423 0.87248 0.59191 0.0
C1132 C 0.04052 0.85676 0.57981 0.0
H1133 H 0.04649 0.9634 0.52026 0.0
H1134 H 0.0447 0.93445 0.53371 0.0
C1135 C 0.03925 0.83929 0.58607 0.0
C1136 C 0.04342 0.89143 0.58471 0.0
H1137 H 0.02226 0.91475 0.5527 0.0
C1138 C 0.05829 0.90606 0.59167 0.0
C1139 C 0.03024 0.89515 0.5705 0.0
C1140 C 1.01314 0.88104 0.56277 0.0
C1141 C 0.06061 0.92346 0.58466 0.0
C1142 C 0.04751 0.92712 0.5703 0.0
C1143 C 0.03256 0.91252 0.56351 0.0
C1144 C 0.04905 0.94562 0.56202 0.0
C1145 C 0.07771 0.93757 0.59236 0.0
C1146 C 0.05195 0.96236 0.57294 0.0
C1147 C 0.05308 0.97922 0.56514 0.0
C1148 C 0.05124 0.98031 0.54595 0.0
C1149 C 0.04817 0.96357 0.53503 0.0
C1150 C 0.04705 0.94673 0.54284 0.0
H1151 H 0.08905 0.9313 0.59857 0.0
H1152 H 0.08312 0.94597 0.58162 0.0
H1153 H 0.07407 0.94656 0.60327 0.0
H1154 H 0.053 0.96248 0.58768 0.0
H1155 H 0.05519 0.99147 0.57428 0.0
H1156 H 0.48136 0.75407 0.88745 0.0
H1157 H 0.45242 0.75642 0.86925 0.0
H1158 H 0.48368 0.79123 0.83486 0.0
H1159 H 0.51304 0.7884 0.85296 0.0
H1160 H 0.4363 0.78306 0.86536 0.0
H1161 H 0.44769 0.76117 0.79526 0.0
H1162 H 0.46306 0.7584 0.8152 0.0
H1163 H 0.46527 0.78001 0.80595 0.0
C1164 C 0.48226 0.76198 0.87578 0.0
C1165 C 0.49987 0.77088 0.87176 0.0
C1166 C 0.46547 0.76342 0.86533 0.0
C1167 C 0.46534 0.77393 0.85032 0.0
C1168 C 0.48297 0.78261 0.84596 0.0
H1169 H 0.36982 0.80387 0.78207 0.0
H1170 H 0.4009 0.80161 0.79653 0.0
C1171 C 0.49994 0.781 0.8564 0.0
C1172 C 0.44672 0.7763 0.84027 0.0
H1173 H 0.42063 0.77322 0.7979 0.0
C1174 C 0.433 0.78078 0.85059 0.0
C1175 C 0.44191 0.77355 0.82089 0.0
C1176 C 0.45516 0.76785 0.80866 0.0
C1177 C 0.41515 0.78257 0.84238 0.0
C1178 C 0.41028 0.77963 0.82307 0.0
C1179 C 0.42405 0.77548 0.81266 0.0
C1180 C 0.391 0.78064 0.81363 0.0
C1181 C 0.40173 0.78796 0.8546 0.0
C1182 C 0.37463 0.76945 0.8179 0.0
C1183 C 0.35672 0.77066 0.80953 0.0
C1184 C 0.35437 0.78313 0.7965 0.0
C1185 C 0.37079 0.79413 0.79201 0.0
C1186 C 0.38873 0.79282 0.80032 0.0
H1187 H 0.40906 0.79459 0.86807 0.0
H1188 H 0.39371 0.79734 0.84809 0.0
H1189 H 0.39169 0.77567 0.85713 0.0
H1190 H 0.37566 0.75963 0.82775 0.0
H1191 H 0.34465 0.76181 0.81342 0.0
H1192 H 0.52399 0.23284 0.08842 0.0
H1193 H 0.5252 0.20392 0.07105 0.0
H1194 H 0.54733 0.18473 0.12067 0.0
H1195 H 0.54573 0.2127 0.13777 0.0
H1196 H 0.55096 0.18423 0.06306 0.0
H1197 H 0.50658 0.14221 0.10556 0.0
H1198 H 0.50955 0.1665 0.10737 0.0
H1199 H 0.52652 0.15591 0.11953 0.0
C1200 C 0.52912 0.22248 0.09564 0.0
C1201 C 0.53445 0.22548 0.11483 0.0
C1202 C 0.52979 0.20573 0.08563 0.0
C1203 C 0.53578 0.19131 0.09438 0.0
C1204 C 0.54186 0.19482 0.11331 0.0
H1205 H 0.55671 0.08099 0.0686 0.0
H1206 H 0.55402 0.11076 0.08226 0.0
C1207 C 0.54105 0.21124 0.1232 0.0
C1208 C 0.53599 0.17277 0.08424 0.0
H1209 H 0.52442 0.12663 0.08738 0.0
C1210 C 0.54491 0.1717 0.06836 0.0
C1211 C 0.52821 0.1559 0.0907 0.0
C1212 C 0.51701 0.15515 0.1066 0.0
C1213 C 0.54682 0.15486 0.05948 0.0
C1214 C 0.53948 0.13806 0.06628 0.0
C1215 C 0.53033 0.13914 0.08197 0.0
C1216 C 0.54115 0.1194 0.05753 0.0
C1217 C 0.55737 0.15532 0.04315 0.0
C1218 C 0.53462 0.11346 0.0389 0.0
C1219 C 0.53602 0.09616 0.031 0.0
C1220 C 0.54407 0.08388 0.0413 0.0
C1221 C 0.55048 0.08977 0.05997 0.0
C1222 C 0.54891 0.10701 0.0679 0.0
H1223 H 0.56647 0.16882 0.04266 0.0
H1224 H 0.56614 0.14496 0.0433 0.0
H1225 H 0.54727 0.15238 0.03044 0.0
H1226 H 0.52814 0.12215 0.03036 0.0
H1227 H 0.53079 0.09245 0.01666 0.0
H1228 H 0.13419 0.3053 0.39128 0.0
H1229 H 0.15921 0.30411 0.37273 0.0
H1230 H 0.12261 0.26231 0.33561 0.0
H1231 H 0.09707 0.26386 0.35412 0.0
H1232 H 0.1791 0.28167 0.36508 0.0
H1233 H 0.14354 0.29054 0.29733 0.0
H1234 H 0.13323 0.29344 0.31802 0.0
H1235 H 0.13187 0.2711 0.30709 0.0
C1236 C 0.13117 0.29587 0.37909 0.0
C1237 C 0.1131 0.28477 0.37446 0.0
C1238 C 0.1458 0.29516 0.36834 0.0
C1239 C 0.14336 0.28332 0.35221 0.0
C1240 C 0.12529 0.27207 0.3475 0.0
H1241 H 0.22432 0.26069 0.27542 0.0
H1242 H 0.19693 0.26048 0.29159 0.0
C1243 C 0.11049 0.27285 0.3583 0.0
C1244 C 0.1599 0.28266 0.34111 0.0
H1245 H 0.17351 0.28349 0.29781 0.0
C1246 C 0.17768 0.28217 0.35036 0.0
C1247 C 0.15878 0.28321 0.32172 0.0
C1248 C 0.1409 0.28478 0.31045 0.0
C1249 C 0.19371 0.28206 0.3412 0.0
C1250 C 0.19263 0.28276 0.32187 0.0
C1251 C 0.17483 0.28299 0.31252 0.0
C1252 C 0.20967 0.2833 0.3113 0.0
C1253 C 0.21168 0.2807 0.35248 0.0
C1254 C 0.22645 0.29638 0.31623 0.0
C1255 C 0.24228 0.29658 0.30682 0.0
C1256 C 0.24222 0.28375 0.2919 0.0
C1257 C 0.2253 0.27088 0.28671 0.0
C1258 C 0.20941 0.27075 0.29608 0.0
H1259 H 0.2091 0.27475 0.36552 0.0
H1260 H 0.21957 0.27232 0.34483 0.0
H1261 H 0.22049 0.29447 0.35596 0.0
H1262 H 0.22738 0.30664 0.32744 0.0
H1263 H 0.25475 0.30683 0.31145 0.0
H1264 H 0.9338 0.06803 0.17194 0.0
H1265 H 0.94842 0.08812 0.1505 0.0
H1266 H 0.96014 0.04193 0.11996 0.0
H1267 H 0.94573 0.02202 0.14108 0.0
H1268 H 0.98567 0.09216 0.14539 0.0
H1269 H 0.9419 0.0702 0.07931 0.0
H1270 H 0.93321 0.06604 0.10089 0.0
H1271 H 0.94552 0.05059 0.09033 0.0
C1272 C 0.93907 0.06218 0.16034 0.0
C1273 C 0.93871 0.04348 0.15818 0.0
C1274 C 0.94742 0.07365 0.14817 0.0
C1275 C 0.9551 0.06648 0.1335 0.0
C1276 C 0.95392 0.04773 0.13092 0.0
H1277 H 0.04727 0.06613 0.09333 0.0
H1278 H 0.0268 0.07728 0.11288 0.0
C1279 C 0.94582 0.03636 0.14311 0.0
C1280 C 0.96659 0.07826 0.12211 0.0
H1281 H 0.97593 0.07707 0.07815 0.0
C1282 C 0.98333 0.08947 0.1306 0.0
C1283 C 0.9633 0.07542 0.10282 0.0
C1284 C 0.94487 0.06506 0.09284 0.0
C1285 C 0.9979 0.09562 0.12042 0.0
C1286 C 0.99574 0.08994 0.10149 0.0
C1287 C 0.97798 0.08111 0.09274 0.0
C1288 C 1.01197 0.08923 0.09143 0.0
C1289 C 0.01578 0.10721 0.13027 0.0
C1290 C 1.0111 0.09271 0.07293 0.0
C1291 C 0.0225 0.0858 0.06165 0.0
C1292 C 0.03528 0.07579 0.06883 0.0
C1293 C 0.03778 0.07419 0.08766 0.0
C1294 C 0.02608 0.0807 0.09887 0.0
H1295 H 1.01267 0.11726 0.14053 0.0
H1296 H 0.0239 0.09855 0.13786 0.0
H1297 H 0.02445 0.11452 0.12069 0.0
H1298 H 1.00038 0.09921 0.06683 0.0
H1299 H 0.02026 0.08696 0.04706 0.0
H1300 H 0.3151 0.70459 0.4692 0.0
H1301 H 0.32135 0.71466 0.4392 0.0
H1302 H 0.27629 0.74332 0.43869 0.0
H1303 H 0.2703 0.73382 0.46862 0.0
H1304 H 0.29918 0.70825 0.40656 0.0
H1305 H 0.31752 0.782 0.42623 0.0
H1306 H 0.31597 0.76566 0.44295 0.0
H1307 H 0.29524 0.77207 0.43249 0.0
C1308 C 0.30668 0.71322 0.46278 0.0
C1309 C 0.2923 0.71851 0.47143 0.0
C1310 C 0.31023 0.71892 0.44562 0.0
C1311 C 0.29951 0.73003 0.43682 0.0
C1312 C 0.2851 0.73519 0.44539 0.0
H1313 H 0.27946 0.74447 0.32142 0.0
H1314 H 0.27904 0.73411 0.35205 0.0
C1315 C 0.28163 0.72963 0.46252 0.0
C1316 C 0.30276 0.73574 0.41838 0.0
H1317 H 0.30913 0.77279 0.39412 0.0
C1318 C 0.30157 0.72237 0.40386 0.0
C1319 C 0.30619 0.75418 0.41487 0.0
C1320 C 0.30901 0.7693 0.43001 0.0
C1321 C 0.30305 0.72691 0.38586 0.0
C1322 C 0.30529 0.74529 0.38219 0.0
C1323 C 0.30714 0.75867 0.39683 0.0
C1324 C 0.30574 0.75105 0.36333 0.0
C1325 C 0.30237 0.71196 0.37104 0.0
C1326 C 0.3206 0.76439 0.35953 0.0
C1327 C 0.32069 0.77059 0.34213 0.0
C1328 C 0.30594 0.76353 0.32809 0.0
C1329 C 0.29112 0.75008 0.33186 0.0
C1330 C 0.29094 0.74403 0.34936 0.0
H1331 H 0.30667 0.70002 0.37679 0.0
H1332 H 0.28785 0.7075 0.3641 0.0
H1333 H 0.31154 0.71662 0.36064 0.0
H1334 H 0.33215 0.77008 0.37007 0.0
H1335 H 0.33237 0.78093 0.33971 0.0
H1336 H 0.62154 0.95886 0.68347 0.0
H1337 H 0.60559 0.95368 0.65202 0.0
H1338 H 0.55611 0.96645 0.67098 0.0
H1339 H 0.57161 0.97112 0.70232 0.0
H1340 H 0.54834 0.94184 0.63896 0.0
H1341 H 0.60277 1.0034 0.63407 0.0
H1342 H 0.61109 0.98341 0.63952 0.0
H1343 H 0.59921 0.99425 0.65556 0.0
C1344 C 0.60705 0.95992 0.68102 0.0
C1345 C 0.59803 0.96599 0.69527 0.0
C1346 C 0.59797 0.95697 0.66305 0.0
C1347 C 0.57989 0.9602 0.6592 0.0
C1348 C 0.57012 0.96403 0.67367 0.0
H1349 H 0.53519 0.02011 0.58055 0.0
H1350 H 0.54228 1.00454 0.60752 0.0
C1351 C 0.5791 0.96686 0.69158 0.0
C1352 C 0.57253 0.96344 0.64054 0.0
H1353 H 0.57896 0.99486 0.60968 0.0
C1354 C 0.55514 0.95321 0.63233 0.0
C1355 C 0.58132 0.97856 0.63219 0.0
C1356 C 0.59955 0.99066 0.64078 0.0
C1357 C 0.54611 0.95803 0.61616 0.0
C1358 C 0.55476 0.97337 0.60819 0.0
C1359 C 0.57239 0.98315 0.61601 0.0
C1360 C 0.54573 0.98032 0.59213 0.0
C1361 C 0.5271 0.94727 0.60812 0.0
C1362 C 0.54459 0.97148 0.57462 0.0
C1363 C 0.54052 0.98034 0.55916 0.0
C1364 C 0.53778 0.99823 0.56107 0.0
C1365 C 0.53739 0.00641 0.57863 0.0
C1366 C 0.54139 0.99752 0.59405 0.0
H1367 H 0.52143 0.93687 0.61704 0.0
H1368 H 0.5172 0.95646 0.60588 0.0
H1369 H 0.52803 0.94039 0.59459 0.0
H1370 H 0.54811 0.95829 0.57291 0.0
H1371 H 0.54081 0.97362 0.54579 0.0
H1372 H 0.30002 0.35112 0.97436 0.0
H1373 H 0.29965 0.33925 0.9431 0.0
H1374 H 0.2541 0.36477 0.92596 0.0
H1375 H 0.25502 0.37767 0.9578 0.0
H1376 H 0.27878 0.31645 0.92038 0.0
H1377 H 0.28286 0.37964 0.88613 0.0
H1378 H 0.28548 0.37978 0.91071 0.0
H1379 H 0.2626 0.37437 0.89763 0.0
C1380 C 0.2898 0.35442 0.96413 0.0
C1381 C 0.27754 0.36561 0.96917 0.0
C1382 C 0.28961 0.34743 0.9459 0.0
C1383 C 0.27708 0.35103 0.93144 0.0
C1384 C 0.26445 0.36196 0.93635 0.0
H1385 H 0.26062 0.3034 0.81402 0.0
H1386 H 0.25595 0.31711 0.84392 0.0
C1387 C 0.26479 0.36926 0.95481 0.0
C1388 C 0.27744 0.34286 0.91179 0.0
H1389 H 0.27938 0.3525 0.86689 0.0
C1390 C 0.27894 0.32454 0.90883 0.0
C1391 C 0.27766 0.35293 0.89613 0.0
C1392 C 0.27725 0.3728 0.89776 0.0
C1393 C 0.28077 0.31635 0.89137 0.0
C1394 C 0.28106 0.32641 0.87585 0.0
C1395 C 0.27914 0.34456 0.87856 0.0
C1396 C 0.28398 0.31838 0.85704 0.0
C1397 C 0.28238 0.29677 0.88962 0.0
C1398 C 0.30132 0.31441 0.85389 0.0
C1399 C 0.30411 0.30672 0.83663 0.0
C1400 C 0.28962 0.30239 0.82173 0.0
C1401 C 0.27221 0.30636 0.82492 0.0
C1402 C 0.26951 0.31433 0.84215 0.0
H1403 H 0.27871 0.28987 0.9019 0.0
H1404 H 0.27316 0.28937 0.87737 0.0
H1405 H 0.29695 0.29601 0.88784 0.0
H1406 H 0.31286 0.31733 0.86486 0.0
H1407 H 0.31774 0.30399 0.83505 0.0
H1408 H 0.94049 0.0421 0.26027 0.0
H1409 H 0.95597 0.04554 0.29175 0.0
H1410 H 0.99029 0.00836 0.27668 0.0
H1411 H 0.97513 1.00503 0.24512 0.0
H1412 H 0.95494 0.01778 0.31367 0.0
H1413 H 0.02819 0.04909 0.3073 0.0
H1414 H 1.00913 0.0489 0.28955 0.0
H1415 H 0.01917 0.02921 0.2917 0.0
C1416 C 0.95156 0.03489 0.26356 0.0
C1417 C 0.95654 0.02324 0.25018 0.0
C1418 C 0.96038 0.03688 0.28156 0.0
C1419 C 0.9744 0.02736 0.28649 0.0
C1420 C 0.97978 0.01613 0.27308 0.0
H1421 H 1.00595 0.98854 0.389 0.0
H1422 H 0.99356 0.99318 0.35796 0.0
C1423 C 0.971 0.01415 0.25506 0.0
C1424 C 0.98213 0.02778 0.30593 0.0
H1425 H 0.02286 0.03524 0.33502 0.0
C1426 C 0.96977 0.02181 0.31839 0.0
C1427 C 1.00145 0.03321 0.31207 0.0
C1428 C 0.01524 0.04064 0.2995 0.0
C1429 C 0.97628 0.02048 0.33672 0.0
C1430 C 0.99568 0.02496 0.34262 0.0
C1431 C 1.008 0.03161 0.33036 0.0
C1432 C 1.00345 0.02226 0.36131 0.0
C1433 C 0.96235 0.0142 0.34959 0.0
C1434 C 1.01348 0.03703 0.37328 0.0
C1435 C 0.02072 0.03441 0.39098 0.0
C1436 C 0.01816 0.01692 0.39692 0.0
C1437 C 1.00828 1.00214 0.38478 0.0
C1438 C 1.00103 1.00479 0.36712 0.0
H1439 H 0.94819 0.0161 0.34441 0.0
H1440 H 0.96148 0.99956 0.35094 0.0
H1441 H 0.96668 0.0216 0.36342 0.0
H1442 H 0.01559 0.0506 0.36895 0.0
H1443 H 0.02849 0.04602 0.39995 0.0
H1444 H 0.31891 0.70348 0.57698 0.0
H1445 H 0.3264 0.7123 0.61006 0.0
H1446 H 0.28753 0.74794 0.6064 0.0
H1447 H 0.28002 0.73941 0.57355 0.0
H1448 H 0.33782 0.7508 0.63095 0.0
H1449 H 0.27051 0.7088 0.6438 0.0
H1450 H 0.28111 0.70489 0.6234 0.0
H1451 H 0.26907 0.7232 0.62553 0.0
C1452 C 0.31217 0.7134 0.58317 0.0
C1453 C 0.29875 0.72062 0.57259 0.0
C1454 C 0.31646 0.71839 0.60206 0.0
C1455 C 0.30733 0.73059 0.61064 0.0
C1456 C 0.29458 0.73838 0.60002 0.0
H1457 H 0.31514 0.79379 0.71171 0.0
H1458 H 0.31771 0.7815 0.68095 0.0
C1459 C 0.29034 0.73348 0.58122 0.0
C1460 C 0.31027 0.73467 0.63079 0.0
H1461 H 0.28727 0.72982 0.66828 0.0
C1462 C 0.32691 0.74604 0.63921 0.0
C1463 C 0.29609 0.72824 0.64151 0.0
C1464 C 0.27822 0.71548 0.6332 0.0
C1465 C 0.32936 0.75187 0.658 0.0
C1466 C 0.3147 0.74628 0.66851 0.0
C1467 C 0.29846 0.73417 0.66022 0.0
C1468 C 0.31524 0.75384 0.68771 0.0
C1469 C 0.3475 0.76412 0.66638 0.0
C1470 C 0.31286 0.74236 0.7018 0.0
C1471 C 0.31131 0.74936 0.71949 0.0
C1472 C 0.31185 0.76794 0.72334 0.0
C1473 C 0.31467 0.77942 0.70927 0.0
C1474 C 0.3163 0.77244 0.69166 0.0
H1475 H 0.35904 0.76256 0.65836 0.0
H1476 H 0.34595 0.77841 0.66647 0.0
H1477 H 0.3514 0.76132 0.68071 0.0
H1478 H 0.31184 0.72793 0.69901 0.0
H1479 H 0.30909 0.74011 0.72996 0.0
H1480 H 0.66245 0.98303 0.79766 0.0
H1481 H 0.66451 0.98628 0.83112 0.0
H1482 H 0.605 0.96655 0.82695 0.0
H1483 H 0.60291 0.96352 0.79377 0.0
H1484 H 0.64574 0.01164 0.84254 0.0
H1485 H 0.62228 0.94985 0.8757 0.0
H1486 H 0.63197 0.94938 0.85428 0.0
H1487 H 0.60753 0.94934 0.85455 0.0
C1488 C 0.65 0.97847 0.80398 0.0
C1489 C 0.63247 0.97328 0.79327 0.0
C1490 C 0.6512 0.98035 0.82308 0.0
C1491 C 0.63493 0.97666 0.83154 0.0
C1492 C 0.6178 0.96918 0.8208 0.0
H1493 H 0.56435 0.01059 0.89458 0.0
H1494 H 0.58381 0.99711 0.87544 0.0
C1495 C 0.61656 0.96759 0.80179 0.0
C1496 C 0.6345 0.98506 0.8501 0.0
H1497 H 0.61093 0.97689 0.8867 0.0
C1498 C 0.6388 1.00407 0.85265 0.0
C1499 C 0.62556 0.97517 0.86325 0.0
C1500 C 0.62177 0.95478 0.86186 0.0
C1501 C 0.63213 0.01343 0.86662 0.0
C1502 C 0.6213 1.00343 0.87852 0.0
C1503 C 0.61895 0.9845 0.8773 0.0
C1504 C 0.60998 0.01203 0.89029 0.0
C1505 C 0.63514 0.03381 0.86739 0.0
C1506 C 0.6183 0.02514 0.90474 0.0
C1507 C 0.60718 0.03322 0.91545 0.0
C1508 C 0.58758 0.0281 0.91203 0.0
C1509 C 0.57936 0.0151 0.89738 0.0
C1510 C 0.59047 0.00716 0.88662 0.0
H1511 H 0.64174 0.03925 0.85557 0.0
H1512 H 0.62167 0.03821 0.86762 0.0
H1513 H 0.64439 0.0399 0.88012 0.0
H1514 H 0.63334 0.02899 0.90785 0.0
H1515 H 0.61394 0.04329 0.92656 0.0
H1516 H 0.28352 0.34225 0.06798 0.0
H1517 H 0.28314 0.33132 0.09816 0.0
H1518 H 0.27088 0.38145 0.11943 0.0
H1519 H 0.27074 0.39233 0.08868 0.0
H1520 H 0.30415 0.34006 0.12823 0.0
H1521 H 0.2356 0.34982 0.14553 0.0
H1522 H 0.24206 0.3522 0.12287 0.0
H1523 H 0.25032 0.37037 0.14078 0.0
C1524 C 0.28038 0.35099 0.0789 0.0
C1525 C 0.27697 0.36829 0.07535 0.0
C1526 C 0.28029 0.34465 0.09648 0.0
C1527 C 0.27685 0.3552 0.11172 0.0
C1528 C 0.27314 0.37249 0.10825 0.0
H1529 H 0.28303 0.33312 0.23081 0.0
H1530 H 0.28065 0.34739 0.20181 0.0
C1531 C 0.27307 0.37884 0.09043 0.0
C1532 C 0.27813 0.34815 0.13092 0.0
H1533 H 0.25556 0.34095 0.16916 0.0
C1534 C 0.29335 0.34028 0.137 0.0
C1535 C 0.26438 0.34825 0.14305 0.0
C1536 C 0.24708 0.35544 0.13771 0.0
C1537 C 0.29522 0.3328 0.15415 0.0
C1538 C 0.28137 0.33265 0.16613 0.0
C1539 C 0.26631 0.34083 0.16032 0.0
C1540 C 0.28218 0.32373 0.1843 0.0
C1541 C 0.3124 0.32537 0.15941 0.0
C1542 C 0.28349 0.30539 0.18478 0.0
C1543 C 0.28475 0.29714 0.20144 0.0
C1544 C 0.28474 0.30675 0.21859 0.0
C1545 C 0.28313 0.32506 0.21814 0.0
C1546 C 0.28173 0.33331 0.20137 0.0
H1547 H 0.32406 0.33127 0.15193 0.0
H1548 H 0.31717 0.32808 0.17434 0.0
H1549 H 0.30913 0.3105 0.15584 0.0
H1550 H 0.28348 0.29726 0.17213 0.0
H1551 H 0.28589 0.28307 0.20081 0.0
H1552 H 0.27568 0.93216 0.00109 0.0
H1553 H 0.25327 0.95146 0.00548 0.0
H1554 H 0.23962 0.92571 0.05387 0.0
H1555 H 0.26177 0.90617 0.04946 0.0
H1556 H 0.20847 0.92904 0.03107 0.0
H1557 H 0.25945 0.99459 0.04365 0.0
H1558 H 0.2606 0.98173 0.02261 0.0
H1559 H 0.26642 0.97306 0.0441 0.0
C1560 C 0.26795 0.93061 0.0127 0.0
C1561 C 0.27059 0.91764 0.02496 0.0
C1562 C 0.25522 0.94175 0.01525 0.0
C1563 C 0.24498 0.94024 0.03017 0.0
C1564 C 0.24744 0.92718 0.04231 0.0
H1565 H 0.18118 0.01545 0.07207 0.0
H1566 H 0.20431 0.99704 0.06723 0.0
C1567 C 0.26013 0.91602 0.03977 0.0
C1568 C 0.23138 0.95195 0.03294 0.0
H1569 H 0.22737 0.99603 0.04005 0.0
C1570 C 0.2126 0.94369 0.03306 0.0
C1571 C 0.23683 0.97105 0.03577 0.0
C1572 C 0.25695 0.98066 0.03671 0.0
C1573 C 0.19908 0.954 0.03571 0.0
C1574 C 0.20443 0.97312 0.03798 0.0
C1575 C 0.22326 0.98138 0.03811 0.0
C1576 C 0.19072 0.98475 0.04054 0.0
C1577 C 0.17925 0.94429 0.03641 0.0
C1578 C 0.17561 0.98426 0.02697 0.0
C1579 C 0.16239 0.99479 0.02968 0.0
C1580 C 0.16408 1.00614 0.04597 0.0
C1581 C 0.17953 0.00697 0.05932 0.0
C1582 C 0.19272 0.9964 0.05661 0.0
H1583 H 0.17845 0.92995 0.03926 0.0
H1584 H 0.17289 0.95112 0.04707 0.0
H1585 H 0.17084 0.94438 0.02298 0.0
H1586 H 0.17403 0.97572 0.01427 0.0
H1587 H 0.15088 0.99409 0.01896 0.0
H1588 H 0.76517 0.60492 0.00048 0.0
H1589 H 0.73393 0.58533 0.00036 0.0
H1590 H 0.71602 0.62925 0.02852 0.0
H1591 H 0.74642 0.64858 0.02841 0.0
H1592 H 0.71089 0.57297 0.0268 0.0
H1593 H 0.67598 0.61746 0.98532 0.0
H1594 H 0.70098 0.61979 0.98832 0.0
H1595 H 0.68967 0.62984 0.00552 0.0
C1596 C 0.75461 0.61034 0.00675 0.0
C1597 C 0.75854 0.6286 0.0142 0.0
C1598 C 0.73662 0.59911 0.00664 0.0
C1599 C 0.72207 0.6058 0.01395 0.0
C1600 C 0.72645 0.62369 0.02217 0.0
H1601 H 0.60638 0.57591 0.03432 0.0
H1602 H 0.63888 0.58944 0.03196 0.0
C1603 C 0.74413 0.63481 0.02218 0.0
C1604 C 0.70228 0.59466 0.01305 0.0
H1605 H 0.65627 0.59672 0.00138 0.0
C1606 C 0.69899 0.57807 0.02099 0.0
C1607 C 0.6864 0.60101 0.00547 0.0
C1608 C 0.68841 0.6179 0.99551 0.0
C1609 C 0.68062 0.56834 0.02227 0.0
C1610 C 0.6648 0.57511 0.01531 0.0
C1611 C 0.66814 0.59141 0.00694 0.0
C1612 C 0.64477 0.56605 0.01709 0.0
C1613 C 0.67834 0.55121 0.0318 0.0
C1614 C 0.63664 0.54821 0.00947 0.0
C1615 C 0.61774 0.54034 0.01072 0.0
C1616 C 0.60629 0.55002 0.01971 0.0
C1617 C 0.61453 0.56783 0.02737 0.0
C1618 C 0.63329 0.57569 0.02599 0.0
H1619 H 0.69154 0.54995 0.04001 0.0
H1620 H 0.66733 0.55068 0.04094 0.0
H1621 H 0.67406 0.53937 0.02138 0.0
H1622 H 0.6448 0.54041 0.00218 0.0
H1623 H 0.61207 0.5267 0.0045 0.0
H1624 H 0.67123 0.48416 0.30711 0.0
H1625 H 0.69049 0.46277 0.29883 0.0
H1626 H 0.74003 0.50473 0.3129 0.0
H1627 H 0.72094 0.52619 0.32138 0.0
H1628 H 0.71583 0.46578 0.27218 0.0
H1629 H 0.7512 0.46275 0.34223 0.0
H1630 H 0.73027 0.47164 0.33816 0.0
H1631 H 0.75243 0.48508 0.33496 0.0
C1632 C 0.68622 0.48884 0.30852 0.0
C1633 C 0.69456 0.50685 0.31499 0.0
C1634 C 0.69719 0.47661 0.30375 0.0
C1635 C 0.71666 0.48215 0.30547 0.0
C1636 C 0.72503 0.50014 0.31178 0.0
H1637 H 0.80303 0.4217 0.28623 0.0
H1638 H 0.7864 0.44603 0.2924 0.0
C1639 C 0.71409 0.51238 0.31653 0.0
C1640 C 0.72817 0.46912 0.3004 0.0
H1641 H 0.7612 0.44687 0.31788 0.0
C1642 C 0.72576 0.46163 0.28215 0.0
C1643 C 0.74117 0.46386 0.31344 0.0
C1644 C 0.74389 0.47111 0.33334 0.0
C1645 C 0.73605 0.44898 0.27658 0.0
C1646 C 0.7488 0.44346 0.28969 0.0
C1647 C 0.75143 0.45118 0.30787 0.0
C1648 C 0.75888 0.42906 0.28504 0.0
C1649 C 0.7333 0.44176 0.25667 0.0
C1650 C 0.7489 0.41149 0.27893 0.0
C1651 C 0.75833 0.39764 0.27533 0.0
C1652 C 0.77794 0.40105 0.27791 0.0
C1653 C 0.78792 0.4187 0.28392 0.0
C1654 C 0.77846 0.43257 0.28754 0.0
H1655 H 0.72743 0.45101 0.24771 0.0
H1656 H 0.74666 0.43972 0.25216 0.0
H1657 H 0.72335 0.4285 0.25478 0.0
H1658 H 0.73379 0.40842 0.27723 0.0
H1659 H 0.75023 0.38424 0.27054 0.0
H1660 H 0.879 0.40039 0.52071 0.0
H1661 H 0.90313 0.42694 0.51855 0.0
H1662 H 0.86253 0.4608 0.51922 0.0
H1663 H 0.83812 0.43417 0.52165 0.0
H1664 H 0.90507 0.45157 0.49161 0.0
H1665 H 0.90399 0.48501 0.56099 0.0
H1666 H 0.89306 0.46156 0.55446 0.0
H1667 H 0.88231 0.47916 0.54591 0.0
C1668 C 0.87512 0.41345 0.52042 0.0
C1669 C 0.85662 0.41515 0.52146 0.0
C1670 C 0.88895 0.42862 0.51912 0.0
C1671 C 0.88465 0.44584 0.51887 0.0
C1672 C 0.86618 0.44765 0.51965 0.0
H1673 H 0.98154 0.5289 0.49954 0.0
H1674 H 0.94847 0.51421 0.49748 0.0
C1675 C 0.85225 0.43241 0.52098 0.0
C1676 C 0.89983 0.46169 0.51802 0.0
H1677 H 0.92774 0.49787 0.54443 0.0
C1678 C 0.90986 0.46194 0.50297 0.0
C1679 C 0.90599 0.47513 0.53292 0.0
C1680 C 0.89591 0.47527 0.54958 0.0
C1681 C 0.92655 0.47459 0.50288 0.0
C1682 C 0.93317 0.48754 0.51815 0.0
C1683 C 0.92254 0.48798 0.53272 0.0
C1684 C 0.95239 0.49861 0.52057 0.0
C1685 C 0.93763 0.47315 0.48707 0.0
C1686 C 0.96534 0.49531 0.53469 0.0
C1687 C 0.98409 0.50369 0.53595 0.0
C1688 C 0.99036 0.51561 0.52313 0.0
C1689 C 0.9772 0.5197 0.50956 0.0
C1690 C 0.95832 0.51126 0.50831 0.0
H1691 H 0.93185 0.4607 0.47767 0.0
H1692 H 0.93744 0.48501 0.47908 0.0
H1693 H 0.95239 0.47315 0.49215 0.0
H1694 H 0.96106 0.48562 0.54431 0.0
H1695 H 0.99375 0.50031 0.54666 0.0
H1696 H 0.41077 0.11913 0.31623 0.0
H1697 H 0.38556 0.12957 0.2984 0.0
H1698 H 0.424 0.15372 0.26284 0.0
H1699 H 0.44931 0.14332 0.28049 0.0
H1700 H 0.38328 0.16577 0.28974 0.0
H1701 H 0.38147 0.1186 0.228 0.0
H1702 H 0.39271 0.11553 0.25027 0.0
H1703 H 0.40386 0.13245 0.23698 0.0
C1704 C 0.41393 0.12684 0.30475 0.0
C1705 C 0.432 0.13026 0.29968 0.0
C1706 C 0.3995 0.13272 0.29455 0.0
C1707 C 0.40291 0.14202 0.27911 0.0
C1708 C 0.42107 0.1462 0.2745 0.0
H1709 H 0.3308 0.19016 0.20521 0.0
H1710 H 0.35626 0.17627 0.21765 0.0
C1711 C 0.43552 0.14038 0.28471 0.0
C1712 C 0.38739 0.14732 0.26783 0.0
H1713 H 0.36113 0.13916 0.22575 0.0
C1714 C 0.37841 0.15996 0.27576 0.0
C1715 C 0.38121 0.13972 0.24959 0.0
C1716 C 0.39018 0.12571 0.24067 0.0
C1717 C 0.36338 0.1653 0.26588 0.0
C1718 C 0.35696 0.15746 0.24775 0.0
C1719 C 0.36608 0.14501 0.23969 0.0
C1720 C 0.34062 0.16214 0.23724 0.0
C1721 C 0.35459 0.17943 0.27487 0.0
C1722 C 0.32315 0.15778 0.24336 0.0
C1723 C 0.30872 0.16585 0.23654 0.0
C1724 C 0.31148 0.17835 0.22332 0.0
C1725 C 0.32834 0.18095 0.21567 0.0
C1726 C 0.34288 0.17296 0.22268 0.0
H1727 H 0.36381 0.18708 0.28701 0.0
H1728 H 0.35127 0.18918 0.26507 0.0
H1729 H 0.34137 0.17268 0.2795 0.0
H1730 H 0.32113 0.14922 0.25444 0.0
H1731 H 0.29607 0.16352 0.24292 0.0
H1732 H 0.39908 0.15611 0.52972 0.0
H1733 H 0.42319 0.13838 0.52916 0.0
H1734 H 0.382 0.09175 0.50496 0.0
H1735 H 0.35752 0.10976 0.50527 0.0
H1736 H 0.43117 0.11078 0.54518 0.0
H1737 H 0.41986 0.08776 0.47129 0.0
H1738 H 0.40857 0.10471 0.48069 0.0
H1739 H 0.39964 0.08108 0.48258 0.0
C1740 C 0.39489 0.14208 0.52415 0.0
C1741 C 0.37588 0.13471 0.51746 0.0
C1742 C 0.40898 0.13178 0.52388 0.0
C1743 C 0.40507 0.11345 0.51675 0.0
C1744 C 0.38602 0.10587 0.51017 0.0
H1745 H 0.48026 0.03389 0.50485 0.0
H1746 H 0.45364 0.049 0.50474 0.0
C1747 C 0.37177 0.11625 0.5105 0.0
C1748 C 0.42092 0.10267 0.51677 0.0
H1749 H 0.44221 0.07598 0.48968 0.0
C1750 C 0.43346 0.10325 0.53292 0.0
C1751 C 0.42447 0.09249 0.50104 0.0
C1752 C 0.41257 0.09155 0.48286 0.0
C1753 C 0.44874 0.09415 0.53386 0.0
C1754 C 0.45252 0.08423 0.51806 0.0
C1755 C 0.43984 0.08344 0.50195 0.0
C1756 C 0.46937 0.07477 0.51799 0.0
C1757 C 0.46033 0.09488 0.5522 0.0
C1758 C 0.48779 0.08378 0.52511 0.0
C1759 C 0.5032 0.07502 0.52527 0.0
C1760 C 0.50114 0.05678 0.5181 0.0
C1761 C 0.48279 0.04784 0.51063 0.0
C1762 C 0.46734 0.05661 0.51052 0.0
H1763 H 0.4523 0.09731 0.56364 0.0
H1764 H 0.46535 0.08214 0.55391 0.0
H1765 H 0.47259 0.10627 0.55334 0.0
H1766 H 0.49045 0.09785 0.53046 0.0
H1767 H 0.51688 0.08271 0.53104 0.0
H1768 H 0.72635 0.59209 0.32611 0.0
H1769 H 0.75124 0.61698 0.32046 0.0
H1770 H 0.72076 0.65559 0.34072 0.0
H1771 H 0.69614 0.63101 0.34666 0.0
H1772 H 0.74595 0.64146 0.29637 0.0
H1773 H 0.77304 0.67798 0.36431 0.0
H1774 H 0.75944 0.65509 0.36154 0.0
H1775 H 0.74807 0.67408 0.36062 0.0
C1776 C 0.72518 0.60589 0.32977 0.0
C1777 C 0.70921 0.60957 0.33675 0.0
C1778 C 0.73941 0.62008 0.32653 0.0
C1779 C 0.73798 0.63813 0.3304 0.0
C1780 C 0.72241 0.64178 0.33805 0.0
H1781 H 0.76208 0.74145 0.29717 0.0
H1782 H 0.75256 0.71266 0.30988 0.0
C1783 C 0.70822 0.62767 0.34128 0.0
C1784 C 0.7513 0.65321 0.32437 0.0
H1785 H 0.77548 0.69619 0.33831 0.0
C1786 C 0.75289 0.65324 0.3056 0.0
C1787 C 0.76038 0.66853 0.33644 0.0
C1788 C 0.7603 0.66884 0.35688 0.0
C1789 C 0.76201 0.66874 0.2984 0.0
C1790 C 0.76979 0.68449 0.31032 0.0
C1791 C 0.76933 0.68409 0.32922 0.0
C1792 C 0.77637 0.70204 0.30319 0.0
C1793 C 0.76218 0.66863 0.27799 0.0
C1794 C 0.79298 0.70557 0.29533 0.0
C1795 C 0.79851 0.72207 0.28804 0.0
C1796 C 0.78744 0.73521 0.28846 0.0
C1797 C 0.77089 0.73161 0.29653 0.0
C1798 C 0.76546 0.71521 0.30387 0.0
H1799 H 0.7543 0.65566 0.27047 0.0
H1800 H 0.75606 0.67987 0.27278 0.0
H1801 H 0.7768 0.67081 0.27492 0.0
H1802 H 0.80159 0.69554 0.29478 0.0
H1803 H 0.81136 0.72446 0.28196 0.0
H1804 H 0.02897 0.54068 0.78328 0.0
H1805 H 1.01288 0.50879 0.78084 0.0
H1806 H 0.9601 0.52441 0.76793 0.0
H1807 H 0.97593 0.55605 0.77016 0.0
H1808 H 0.9863 0.4948 0.80275 0.0
H1809 H 0.95592 0.48179 0.72986 0.0
H1810 H 0.97516 0.50038 0.73824 0.0
H1811 H 0.95156 0.50228 0.74056 0.0
C1812 C 0.01397 0.53728 0.7796 0.0
C1813 C 1.00374 0.55095 0.77701 0.0
C1814 C 1.00481 0.51906 0.77823 0.0
C1815 C 0.98531 0.51419 0.77398 0.0
C1816 C 0.97518 0.52777 0.77085 0.0
H1817 H 0.89136 0.43284 0.78282 0.0
H1818 H 0.91483 0.45897 0.77744 0.0
C1819 C 0.98427 0.54592 0.77231 0.0
C1820 C 0.9752 0.49526 0.77457 0.0
H1821 H 0.94109 0.46203 0.75051 0.0
C1822 C 0.97672 0.48743 0.79122 0.0
C1823 C 0.96272 0.48567 0.75951 0.0
C1824 C 0.96135 0.49288 0.74097 0.0
C1825 C 0.96523 0.47079 0.79354 0.0
C1826 C 0.95204 0.46169 0.77876 0.0
C1827 C 0.95115 0.4691 0.76185 0.0
C1828 C 0.93797 0.44536 0.78107 0.0
C1829 C 0.96653 0.46354 0.81207 0.0
C1830 C 0.94318 0.42894 0.78461 0.0
C1831 C 0.92977 0.41396 0.78774 0.0
C1832 C 0.91095 0.41519 0.78746 0.0
C1833 C 0.90577 0.43155 0.78344 0.0
C1834 C 0.91914 0.44644 0.78023 0.0
H1835 H 0.97553 0.47353 0.82277 0.0
H1836 H 0.95244 0.4597 0.81636 0.0
H1837 H 0.9725 0.45121 0.81124 0.0
H1838 H 0.95763 0.42779 0.78513 0.0
H1839 H 0.93419 0.40156 0.79085 0.0
H1840 H 0.1092 0.89485 0.11868 0.0
H1841 H 0.09267 0.91756 0.10738 0.0
H1842 H 0.04167 0.8883 0.12365 0.0
H1843 H 0.05819 0.86548 0.13531 0.0
H1844 H 0.06156 0.91013 0.07974 0.0
H1845 H 0.04574 0.94141 0.14507 0.0
H1846 H 0.06335 0.92793 0.14449 0.0
H1847 H 0.03911 0.91716 0.14061 0.0
C1848 C 0.0945 0.89326 0.12001 0.0
C1849 C 0.085 0.87833 0.12785 0.0
C1850 C 0.08509 0.90625 0.11353 0.0
C1851 C 0.06601 0.90461 0.11478 0.0
C1852 C 0.05646 0.88989 0.1228 0.0
H1853 H 0.01651 0.97874 0.04788 0.0
H1854 H 0.01698 0.95126 0.06342 0.0
C1855 C 0.06591 0.87685 0.12937 0.0
C1856 C 0.05625 0.91806 0.10683 0.0
H1857 H 0.03777 0.95458 0.11815 0.0
C1858 C 0.05605 0.9197 0.08803 0.0
C1859 C 0.04913 0.93042 0.1178 0.0
C1860 C 0.04937 0.92932 0.13814 0.0
C1861 C 0.04992 0.93406 0.08001 0.0
C1862 C 0.04338 0.94684 0.09108 0.0
C1863 C 0.04265 0.94464 0.10973 0.0
C1864 C 0.03998 0.96387 0.08408 0.0
C1865 C 0.05176 0.93609 0.06005 0.0
C1866 C 0.05194 0.98024 0.0913 0.0
C1867 C 0.05157 0.99595 0.08262 0.0
C1868 C 0.03931 0.99552 0.06649 0.0
C1869 C 0.02632 0.97942 0.06012 0.0
C1870 C 0.02658 0.96372 0.06895 0.0
H1871 H 0.06013 0.92683 0.05441 0.0
H1872 H 0.03769 0.93289 0.05197 0.0
H1873 H 0.05844 0.9502 0.05812 0.0
H1874 H 0.06234 0.98063 0.10302 0.0
H1875 H 0.06166 0.00816 0.08799 0.0
H1876 H 0.95005 0.21152 0.84603 0.0
H1877 H 0.93343 0.22259 0.82043 0.0
H1878 H 0.98496 0.23918 0.79791 0.0
H1879 H 1.00192 0.2287 0.82407 0.0
H1880 H 0.96919 0.26622 0.80084 0.0
H1881 H 0.91435 0.20973 0.7681 0.0
H1882 H 0.91327 0.2103 0.79219 0.0
H1883 H 0.93397 0.20602 0.78327 0.0
C1884 C 0.95783 0.21702 0.83539 0.0
C1885 C 0.97735 0.21942 0.83722 0.0
C1886 C 0.94823 0.22321 0.82058 0.0
C1887 C 0.95787 0.23155 0.80704 0.0
C1888 C 0.97721 0.23274 0.80814 0.0
H1889 H 0.87313 0.27793 0.74662 0.0
H1890 H 0.90001 0.2634 0.7484 0.0
C1891 C 0.98688 0.22673 0.82311 0.0
C1892 C 0.94816 0.24167 0.79391 0.0
H1893 H 0.90512 0.23967 0.77059 0.0
C1894 C 0.95542 0.26027 0.7937 0.0
C1895 C 0.93046 0.23399 0.784 0.0
C1896 C 0.92274 0.21385 0.78175 0.0
C1897 C 0.94454 0.27166 0.7858 0.0
C1898 C 0.92577 0.26434 0.77849 0.0
C1899 C 0.91934 0.24546 0.77667 0.0
C1900 C 0.91185 0.27591 0.77554 0.0
C1901 C 0.95305 0.29154 0.78615 0.0
C1902 C 0.90982 0.28816 0.78997 0.0
C1903 C 0.89462 0.29661 0.78892 0.0
C1904 C 0.88089 0.29267 0.77358 0.0
C1905 C 0.88343 0.28117 0.75869 0.0
C1906 C 0.89879 0.27286 0.75968 0.0
H1907 H 0.968 0.29351 0.78418 0.0
H1908 H 0.94568 0.29807 0.77539 0.0
H1909 H 0.95239 0.29844 0.79974 0.0
H1910 H 0.91933 0.29036 0.8026 0.0
H1911 H 0.89308 0.30534 0.80066 0.0
H1912 H 0.61636 0.27414 0.61779 0.0
H1913 H 0.60165 0.24238 0.60946 0.0
H1914 H 0.55386 0.24995 0.63539 0.0
H1915 H 0.56873 0.2817 0.64425 0.0
H1916 H 0.56556 0.22079 0.64586 0.0
H1917 H 0.55985 0.21828 0.57059 0.0
H1918 H 0.58333 0.22794 0.58056 0.0
H1919 H 0.56483 0.23939 0.58497 0.0
C1920 C 0.60262 0.26913 0.62152 0.0
C1921 C 0.59373 0.28043 0.63169 0.0
C1922 C 0.59415 0.251 0.61662 0.0
C1923 C 0.5765 0.24389 0.6215 0.0
C1924 C 0.56743 0.25521 0.63139 0.0
H1925 H 0.53877 0.13109 0.57739 0.0
H1926 H 0.5355 0.16175 0.58664 0.0
C1927 C 0.57596 0.27333 0.63644 0.0
C1928 C 0.56832 0.22432 0.6175 0.0
H1929 H 0.5611 0.18987 0.58361 0.0
C1930 C 0.56419 0.21404 0.63218 0.0
C1931 C 0.56601 0.21555 0.59961 0.0
C1932 C 0.56854 0.22593 0.58303 0.0
C1933 C 0.55923 0.19508 0.62964 0.0
C1934 C 0.55892 0.18624 0.61207 0.0
C1935 C 0.5616 0.1966 0.59716 0.0
C1936 C 0.55803 0.16651 0.60906 0.0
C1937 C 0.55478 0.18477 0.64589 0.0
C1938 C 0.57134 0.15875 0.61899 0.0
C1939 C 0.57302 0.14111 0.61397 0.0
C1940 C 0.56168 0.131 0.59865 0.0
C1941 C 0.54762 0.13841 0.58938 0.0
C1942 C 0.54581 0.15601 0.59456 0.0
H1943 H 0.5483 0.19269 0.6556 0.0
H1944 H 0.54521 0.17148 0.64166 0.0
H1945 H 0.56791 0.18244 0.65334 0.0
H1946 H 0.58122 0.16668 0.62997 0.0
H1947 H 0.5838 0.13571 0.62156 0.0
H1948 H 0.5544 0.78999 0.3616 0.0
H1949 H 0.58257 0.80129 0.34773 0.0
H1950 H 0.60427 0.75454 0.36216 0.0
H1951 H 0.57632 0.74319 0.37613 0.0
H1952 H 0.6309 0.7893 0.36847 0.0
H1953 H 0.59101 0.77565 0.29837 0.0
H1954 H 0.58264 0.78946 0.31501 0.0
H1955 H 0.58174 0.76598 0.3179 0.0
C1956 C 0.56526 0.78222 0.362 0.0
C1957 C 0.56306 0.7656 0.36978 0.0
C1958 C 0.58129 0.78867 0.35404 0.0
C1959 C 0.59531 0.77861 0.35376 0.0
C1960 C 0.59353 0.76245 0.36223 0.0
H1961 H 0.69243 0.76576 0.30915 0.0
H1962 H 0.6671 0.76717 0.32737 0.0
C1963 C 0.57753 0.75597 0.37014 0.0
C1964 C 0.61138 0.78416 0.34375 0.0
H1965 H 0.62348 0.78503 0.30057 0.0
C1966 C 0.62931 0.78863 0.35364 0.0
C1967 C 0.60916 0.78333 0.32443 0.0
C1968 C 0.59014 0.77826 0.3132 0.0
C1969 C 0.64521 0.79174 0.34462 0.0
C1970 C 0.64302 0.78994 0.32527 0.0
C1971 C 0.62507 0.78635 0.31542 0.0
C1972 C 0.65905 0.79001 0.31495 0.0
C1973 C 0.6642 0.79666 0.3559 0.0
C1974 C 0.6626 0.80211 0.3016 0.0
C1975 C 0.67704 0.80128 0.29108 0.0
C1976 C 0.68807 0.78826 0.29369 0.0
C1977 C 0.68441 0.77615 0.30706 0.0
C1978 C 0.66999 0.77698 0.31753 0.0
H1979 H 0.66348 0.80327 0.36963 0.0
H1980 H 0.66957 0.78415 0.35792 0.0
H1981 H 0.67427 0.80588 0.34895 0.0
H1982 H 0.65417 0.81214 0.29931 0.0
H1983 H 0.67965 0.81088 0.28098 0.0
H1984 H 0.04042 0.22942 0.46026 0.0
H1985 H 0.04092 0.19992 0.47118 0.0
H1986 H 0.06365 0.18402 0.42292 0.0
H1987 H 0.0637 0.21415 0.41211 0.0
H1988 H 0.02368 0.16798 0.46203 0.0
H1989 H 0.09663 0.16306 0.45671 0.0
H1990 H 0.0886 0.18377 0.45363 0.0
H1991 H 0.08422 0.16598 0.43517 0.0
C1992 C 0.04583 0.21986 0.4519 0.0
C1993 C 0.05218 0.2248 0.43516 0.0
C1994 C 0.04601 0.20263 0.45825 0.0
C1995 C 0.05251 0.18906 0.44831 0.0
C1996 C 0.05898 0.19391 0.43152 0.0
H1997 H 0.05405 0.07301 0.46916 0.0
H1998 H 0.05539 0.10204 0.45571 0.0
C1999 C 0.05895 0.21139 0.42516 0.0
C2000 C 0.05167 0.17007 0.45545 0.0
H2001 H 0.07662 0.1366 0.46389 0.0
C2002 C 0.03544 0.16135 0.46243 0.0
C2003 C 0.06667 0.16062 0.45622 0.0
C2004 C 0.08508 0.16888 0.45021 0.0
C2005 C 0.03376 0.14417 0.46975 0.0
C2006 C 0.04878 0.13481 0.47066 0.0
C2007 C 0.06493 0.14332 0.46344 0.0
C2008 C 0.04802 0.11652 0.47914 0.0
C2009 C 0.01547 0.13599 0.47607 0.0
C2010 C 0.04362 0.11422 0.49713 0.0
C2011 C 0.0429 0.09744 0.50495 0.0
C2012 C 0.0465 0.08196 0.49525 0.0
C2013 C 0.05099 0.08426 0.47728 0.0
C2014 C 0.05185 0.10112 0.46949 0.0
H2015 H 1.0038 0.1416 0.46951 0.0
H2016 H 1.01204 0.12104 0.47302 0.0
H2017 H 0.01648 0.13918 0.49109 0.0
H2018 H 0.04098 0.12557 0.5054 0.0
H2019 H 0.03958 0.0967 0.51882 0.0
H2020 H 0.58249 0.27864 0.20598 0.0
H2021 H 0.61485 0.2815 0.21929 0.0
H2022 H 0.63336 0.30011 0.16939 0.0
H2023 H 0.60056 0.29716 0.1558 0.0
H2024 H 0.65256 0.27424 0.18231 0.0
H2025 H 0.65452 0.32535 0.23997 0.0
H2026 H 0.63564 0.30621 0.23941 0.0
H2027 H 0.63599 0.32063 0.22101 0.0
C2028 C 0.59335 0.28367 0.1978 0.0
C2029 C 0.58854 0.28785 0.17972 0.0
C2030 C 0.61208 0.28537 0.20557 0.0
C2031 C 0.62701 0.29126 0.19565 0.0
C2032 C 0.62235 0.29562 0.17759 0.0
H2033 H 0.74506 0.31828 0.24946 0.0
H2034 H 0.71393 0.31926 0.23424 0.0
C2035 C 0.60347 0.2941 0.16981 0.0
C2036 C 0.64716 0.29212 0.20402 0.0
H2037 H 0.67923 0.30909 0.24193 0.0
C2038 C 0.65835 0.28199 0.19529 0.0
C2039 C 0.65525 0.30231 0.22095 0.0
C2040 C 0.64482 0.31439 0.23081 0.0
C2041 C 0.67676 0.28135 0.20308 0.0
C2042 C 0.68455 0.29091 0.22042 0.0
C2043 C 0.67355 0.30149 0.22885 0.0
C2044 C 0.70395 0.29021 0.22992 0.0
C2045 C 0.6878 0.2706 0.19236 0.0
C2046 C 0.70922 0.27364 0.23316 0.0
C2047 C 0.72717 0.27304 0.24193 0.0
C2048 C 0.74067 0.28901 0.24801 0.0
C2049 C 0.7353 0.30561 0.24505 0.0
C2050 C 0.71732 0.30619 0.23627 0.0
H2051 H 0.6826 0.26899 0.17749 0.0
H2052 H 0.70284 0.27714 0.19428 0.0
H2053 H 0.68633 0.25687 0.19713 0.0
H2054 H 0.69933 0.261 0.22907 0.0
H2055 H 0.73045 0.25993 0.24395 0.0
H2056 H 0.57065 0.84087 0.91272 0.0
H2057 H 0.57219 0.87279 0.92382 0.0
H2058 H 0.55003 0.85549 0.97259 0.0
H2059 H 0.54856 0.82403 0.96176 0.0
H2060 H 0.54472 0.89182 0.93239 0.0
H2061 H 0.59325 0.89473 0.99572 0.0
H2062 H 0.5897 0.87647 0.97781 0.0
H2063 H 0.57338 0.87643 0.99417 0.0
C2064 C 0.56646 0.84383 0.92598 0.0
C2065 C 0.5597 0.8294 0.93628 0.0
C2066 C 0.56718 0.86227 0.93233 0.0
C2067 C 0.56149 0.86713 0.94939 0.0
C2068 C 0.55497 0.8527 0.95966 0.0
H2069 H 0.55031 0.96524 0.01718 0.0
H2070 H 0.5518 0.93498 0.00414 0.0
C2071 C 0.55408 0.83441 0.95329 0.0
C2072 C 0.56176 0.88691 0.95635 0.0
H2073 H 0.57671 0.91868 0.99364 0.0
C2074 C 0.55192 0.89767 0.94573 0.0
C2075 C 0.57091 0.89506 0.97387 0.0
C2076 C 0.58256 0.88517 0.986 0.0
C2077 C 0.55047 0.91555 0.95216 0.0
C2078 C 0.55955 0.92369 0.96976 0.0
C2079 C 0.56958 0.91295 0.98025 0.0
C2080 C 0.55858 0.94291 0.97771 0.0
C2081 C 0.5384 0.92516 0.94017 0.0
C2082 C 0.56209 0.95832 0.96775 0.0
C2083 C 0.56108 0.97589 0.97527 0.0
C2084 C 0.55679 0.97905 0.99326 0.0
C2085 C 0.55363 0.96373 0.00333 0.0
C2086 C 0.55453 0.94616 0.99578 0.0
H2087 H 0.52789 0.91544 0.9304 0.0
H2088 H 0.53094 0.93347 0.94844 0.0
H2089 H 0.5473 0.93419 0.93201 0.0
H2090 H 0.5659 0.9569 0.95409 0.0
H2091 H 0.56382 0.9871 0.96692 0.0
H2092 H 0.97398 0.79484 0.65567 0.0
H2093 H 0.94491 0.79646 0.66896 0.0
H2094 H 0.96352 0.76936 0.71468 0.0
H2095 H 0.99207 0.76777 0.70178 0.0
H2096 H 0.91538 0.76976 0.67832 0.0
H2097 H 0.94931 0.81174 0.74183 0.0
H2098 H 0.96157 0.80896 0.72237 0.0
H2099 H 0.95867 0.79184 0.73816 0.0
C2100 C 0.97202 0.78941 0.66866 0.0
C2101 C 0.98589 0.78127 0.67749 0.0
C2102 C 0.95518 0.79024 0.67629 0.0
C2103 C 0.95166 0.78327 0.69322 0.0
C2104 C 0.96557 0.77525 0.70193 0.0
H2105 H 0.84336 0.75139 0.73813 0.0
H2106 H 0.87153 0.75245 0.72312 0.0
C2107 C 0.98212 0.77427 0.69431 0.0
C2108 C 0.93368 0.78394 0.70183 0.0
H2109 H 0.91763 0.79682 0.74181 0.0
C2110 C 0.91599 0.7758 0.69217 0.0
C2111 C 0.93384 0.79188 0.71995 0.0
C2112 C 0.95183 0.80176 0.73114 0.0
C2113 C 0.89905 0.77497 0.70008 0.0
C2114 C 0.8993 0.78229 0.71847 0.0
C2115 C 0.91695 0.7909 0.7279 0.0
C2116 C 0.88161 0.78146 0.72802 0.0
C2117 C 0.8809 0.76646 0.68835 0.0
C2118 C 0.87746 0.79719 0.73667 0.0
C2119 C 0.86118 0.79659 0.74545 0.0
C2120 C 0.8483 0.78018 0.74628 0.0
C2121 C 0.85263 0.76438 0.73792 0.0
C2122 C 0.86886 0.76501 0.72905 0.0
H2123 H 0.8823 0.76655 0.67353 0.0
H2124 H 0.87667 0.75215 0.69127 0.0
H2125 H 0.86965 0.77362 0.69127 0.0
H2126 H 0.88676 0.81017 0.73643 0.0
H2127 H 0.85867 0.80915 0.75157 0.0
H2128 H 0.14635 0.00701 0.86989 0.0
H2129 H 0.12887 0.98953 0.89152 0.0
H2130 H 0.12971 0.03904 0.9245 0.0
H2131 H 0.14672 0.0565 0.90294 0.0
H2132 H 0.1333 0.98817 0.93259 0.0
H2133 H 0.07351 0.01625 0.90432 0.0
H2134 H 0.09379 0.01625 0.89272 0.0
H2135 H 0.09417 0.03355 0.91085 0.0
C2136 C 0.14322 0.01407 0.88203 0.0
C2137 C 0.14759 0.03311 0.88464 0.0
C2138 C 0.13323 1.00409 0.89431 0.0
C2139 C 0.12774 0.01309 0.90932 0.0
C2140 C 0.13361 0.03192 0.91279 0.0
H2141 H 0.09523 0.01014 0.00919 0.0
H2142 H 0.1094 1.00181 0.98286 0.0
C2143 C 0.14332 0.04187 0.90049 0.0
C2144 C 0.11423 1.00352 0.92044 0.0
H2145 H 0.07296 0.00721 0.93491 0.0
C2146 C 0.11987 0.99188 0.93289 0.0
C2147 C 0.09641 0.00775 0.92026 0.0
C2148 C 0.08901 0.01897 0.90616 0.0
C2149 C 0.10887 0.98596 0.94652 0.0
C2150 C 0.09225 0.99241 0.94797 0.0
C2151 C 0.08577 1.00237 0.93415 0.0
C2152 C 0.08329 0.9922 0.96501 0.0
C2153 C 0.11552 0.97338 0.95951 0.0
C2154 C 0.06375 0.98939 0.96412 0.0
C2155 C 0.05558 0.99491 0.97914 0.0
C2156 C 0.06682 1.00287 0.99542 0.0
C2157 C 0.08616 1.0039 0.9969 0.0
C2158 C 0.09433 0.99888 0.98178 0.0
H2159 H 0.12171 0.96327 0.95207 0.0
H2160 H 0.12667 0.98128 0.97003 0.0
H2161 H 0.10404 0.96609 0.96641 0.0
H2162 H 0.05488 0.98423 0.95137 0.0
H2163 H 0.04061 0.99384 0.97769 0.0
H2164 H 0.82535 0.33221 0.57676 0.0
H2165 H 0.82668 0.32773 0.60925 0.0
H2166 H 0.80129 0.37366 0.61846 0.0
H2167 H 0.79939 0.3779 0.58577 0.0
H2168 H 0.84568 0.35018 0.6377 0.0
H2169 H 0.77029 0.33675 0.64519 0.0
H2170 H 0.77856 0.33684 0.62313 0.0
H2171 H 0.77851 0.35783 0.63611 0.0
C2172 C 0.81978 0.34122 0.58563 0.0
C2173 C 0.81218 0.35537 0.57863 0.0
C2174 C 0.82063 0.33868 0.60424 0.0
C2175 C 0.81398 0.35027 0.61634 0.0
C2176 C 0.80616 0.3643 0.60938 0.0
H2177 H 0.84551 0.34959 0.73569 0.0
H2178 H 0.84266 0.35979 0.70482 0.0
C2179 C 0.80512 0.36674 0.59067 0.0
C2180 C 0.81598 0.34792 0.63628 0.0
H2181 H 0.79139 0.3393 0.6723 0.0
C2182 C 0.83381 0.34785 0.64529 0.0
C2183 C 0.80049 0.34482 0.64617 0.0
C2184 C 0.78086 0.34389 0.63715 0.0
C2185 C 0.83654 0.34435 0.66374 0.0
C2186 C 0.82106 0.34129 0.67365 0.0
C2187 C 0.80329 0.34179 0.66476 0.0
C2188 C 0.82261 0.33583 0.69266 0.0
C2189 C 0.85584 0.34316 0.67217 0.0
C2190 C 0.81194 0.31925 0.69624 0.0
C2191 C 0.81335 0.31354 0.7138 0.0
C2192 C 0.82553 0.32423 0.72831 0.0
C2193 C 0.83612 0.34096 0.7248 0.0
C2194 C 0.83457 0.34676 0.70714 0.0
H2195 H 0.86517 0.34167 0.66162 0.0
H2196 H 0.86214 0.35574 0.68117 0.0
H2197 H 0.85527 0.33153 0.68063 0.0
H2198 H 0.80264 0.31055 0.68533 0.0
H2199 H 0.80496 0.30057 0.7159 0.0
H2200 H 0.52367 0.07721 0.35001 0.0
H2201 H 0.54479 0.07977 0.37816 0.0
H2202 H 0.54509 0.13686 0.38636 0.0
H2203 H 0.5231 0.13417 0.35818 0.0
H2204 H 0.57936 0.09901 0.39129 0.0
H2205 H 0.52655 0.11947 0.43238 0.0
H2206 H 0.52069 0.11209 0.40833 0.0
H2207 H 0.53522 0.13399 0.41569 0.0
C2208 C 0.52834 0.09038 0.35764 0.0
C2209 C 0.52158 0.10545 0.35201 0.0
C2210 C 0.54053 0.09185 0.37373 0.0
C2211 C 0.54639 0.10847 0.3845 0.0
C2212 C 0.54045 0.12383 0.37845 0.0
H2213 H 0.58002 0.08382 0.49598 0.0
H2214 H 0.58432 0.10428 0.47166 0.0
C2215 C 0.52794 0.12229 0.36237 0.0
C2216 C 0.55709 0.10863 0.40275 0.0
H2217 H 0.54938 0.10653 0.44727 0.0
C2218 C 0.57319 0.10124 0.40368 0.0
C2219 C 0.5492 0.1118 0.41897 0.0
C2220 C 0.53194 0.11971 0.41893 0.0
C2221 C 0.58003 0.09471 0.41982 0.0
C2222 C 0.5707 0.0959 0.43534 0.0
C2223 C 0.55636 0.10559 0.43519 0.0
C2224 C 0.57203 0.08349 0.4497 0.0
C2225 C 0.59604 0.08507 0.41972 0.0
C2226 C 0.56384 0.0651 0.44527 0.0
C2227 C 0.56095 0.05358 0.45903 0.0
C2228 C 0.56647 0.06023 0.47744 0.0
C2229 C 0.57576 0.07839 0.48184 0.0
C2230 C 0.57827 0.09005 0.46802 0.0
H2231 H 0.60508 0.08984 0.40925 0.0
H2232 H 0.60461 0.08709 0.43337 0.0
H2233 H 0.59042 0.07033 0.41637 0.0
H2234 H 0.55864 0.0599 0.43119 0.0
H2235 H 0.55382 0.03963 0.45532 0.0
H2236 H 0.81874 0.72211 0.06096 0.0
H2237 H 0.81864 0.73449 0.09228 0.0
H2238 H 0.82208 0.6826 0.11138 0.0
H2239 H 0.82282 0.67027 0.07977 0.0
H2240 H 0.7952 0.72913 0.11457 0.0
H2241 H 0.8581 0.71191 0.15103 0.0
H2242 H 0.85326 0.70937 0.1264 0.0
H2243 H 0.84205 0.69231 0.13965 0.0
C2244 C 0.81995 0.71332 0.07181 0.0
C2245 C 0.82109 0.69511 0.06747 0.0
C2246 C 0.81972 0.72048 0.08995 0.0
C2247 C 0.82045 0.70981 0.10484 0.0
C2248 C 0.82197 0.6916 0.10063 0.0
H2249 H 0.77968 0.74625 0.20801 0.0
H2250 H 0.78277 0.73182 0.17815 0.0
C2251 C 0.82242 0.68443 0.08234 0.0
C2252 C 0.81862 0.71771 0.12419 0.0
H2253 H 0.83769 0.72288 0.16963 0.0
C2254 C 0.80462 0.72769 0.12651 0.0
C2255 C 0.83083 0.71637 0.14023 0.0
C2256 C 0.84702 0.70708 0.13924 0.0
C2257 C 0.80246 0.73607 0.14378 0.0
C2258 C 0.81423 0.73421 0.15993 0.0
C2259 C 0.82836 0.72436 0.15764 0.0
C2260 C 0.81237 0.74264 0.17903 0.0
C2261 C 0.78786 0.74745 0.14425 0.0
C2262 C 0.82795 0.75318 0.19057 0.0
C2263 C 0.82623 0.76132 0.20804 0.0
C2264 C 0.80883 0.7593 0.21484 0.0
C2265 C 0.79332 0.74848 0.20345 0.0
C2266 C 0.79508 0.74024 0.18607 0.0
H2267 H 0.78449 0.7524 0.13071 0.0
H2268 H 0.77482 0.73909 0.14778 0.0
H2269 H 0.7925 0.75934 0.15458 0.0
H2270 H 0.84157 0.75538 0.18596 0.0
H2271 H 0.83863 0.76938 0.21618 0.0
H2272 H 0.13825 0.02756 0.78247 0.0
H2273 H 0.11922 0.02275 0.75247 0.0
H2274 H 0.08981 0.06368 0.76927 0.0
H2275 H 0.1085 0.06842 0.79937 0.0
H2276 H 0.0666 0.0328 0.7479 0.0
H2277 H 0.12973 0.06166 0.71649 0.0
H2278 H 0.1315 0.04254 0.7292 0.0
H2279 H 0.12926 0.06345 0.7409 0.0
C2280 C 0.1276 0.0354 0.77987 0.0
C2281 C 0.12508 0.04856 0.79321 0.0
C2282 C 0.11675 0.03263 0.76273 0.0
C2283 C 0.10334 0.04306 0.75863 0.0
C2284 C 0.10014 0.05553 0.7722 0.0
H2285 H 0.06511 0.07579 0.65577 0.0
H2286 H 0.07543 0.07325 0.68778 0.0
C2287 C 0.1109 0.05827 0.78936 0.0
C2288 C 0.09374 0.04216 0.73981 0.0
H2289 H 0.10165 0.05203 0.69669 0.0
C2290 C 0.07421 0.03688 0.73663 0.0
C2291 C 0.10378 0.04773 0.72527 0.0
C2292 C 0.12471 0.05432 0.72807 0.0
C2293 C 0.06441 0.03715 0.71922 0.0
C2294 C 0.07449 0.04272 0.70473 0.0
C2295 C 0.09401 0.04775 0.70789 0.0
C2296 C 0.06524 0.04429 0.68626 0.0
C2297 C 0.04339 0.03204 0.71654 0.0
C2298 C 0.05559 0.02887 0.67495 0.0
C2299 C 0.0494 0.03029 0.65659 0.0
C2300 C 0.05293 0.04714 0.64926 0.0
C2301 C 0.06184 0.06265 0.66095 0.0
C2302 C 0.06792 0.06121 0.67925 0.0
H2303 H 0.03762 0.03141 0.72979 0.0
H2304 H 0.0374 0.04189 0.70853 0.0
H2305 H 0.03884 0.01852 0.70872 0.0
H2306 H 0.05359 0.01565 0.68008 0.0
H2307 H 0.04242 0.01813 0.64799 0.0
H2308 H 0.77791 0.36554 0.46854 0.0
H2309 H 0.77056 0.3546 0.43597 0.0
H2310 H 0.7936 0.30765 0.44656 0.0
H2311 H 0.80131 0.31865 0.4789 0.0
H2312 H 0.80974 0.3261 0.42075 0.0
H2313 H 0.73283 0.31469 0.40408 0.0
H2314 H 0.74342 0.33666 0.41551 0.0
H2315 H 0.74434 0.3168 0.42731 0.0
C2316 C 0.7809 0.35262 0.46401 0.0
C2317 C 0.79031 0.34303 0.4763 0.0
C2318 C 0.77665 0.34635 0.44537 0.0
C2319 C 0.78148 0.33025 0.43878 0.0
C2320 C 0.78976 0.32012 0.45128 0.0
H2321 H 0.76555 0.27668 0.32756 0.0
H2322 H 0.76271 0.28478 0.35973 0.0
C2323 C 0.79415 0.32643 0.4698 0.0
C2324 C 0.78018 0.32508 0.41877 0.0
H2325 H 0.75032 0.3148 0.37874 0.0
C2326 C 0.7967 0.32353 0.41162 0.0
C2327 C 0.76318 0.32163 0.40683 0.0
C2328 C 0.74489 0.32235 0.41381 0.0
C2329 C 0.79677 0.31887 0.39292 0.0
C2330 C 0.7799 0.31598 0.38087 0.0
C2331 C 0.76327 0.31719 0.38798 0.0
C2332 C 0.77954 0.31181 0.36086 0.0
C2333 C 0.81493 0.3169 0.38624 0.0
C2334 C 0.78944 0.3245 0.35069 0.0
C2335 C 0.79116 0.31992 0.33241 0.0
C2336 C 0.78291 0.30254 0.32382 0.0
C2337 C 0.77213 0.29016 0.33375 0.0
C2338 C 0.77046 0.29476 0.35213 0.0
H2339 H 0.82547 0.31515 0.39762 0.0
H2340 H 0.81275 0.30515 0.37579 0.0
H2341 H 0.82071 0.32929 0.37986 0.0
H2342 H 0.79631 0.33783 0.35708 0.0
H2343 H 0.79936 0.3299 0.32515 0.0
H2344 H 0.52371 0.06515 0.28818 0.0
H2345 H 0.53749 0.05394 0.26227 0.0
H2346 H 0.51679 0.09228 0.22918 0.0
H2347 H 0.50315 0.10371 0.25503 0.0
H2348 H 0.51747 0.03849 0.22889 0.0
H2349 H 0.57116 0.09849 0.21963 0.0
H2350 H 0.56053 0.09604 0.24042 0.0
H2351 H 0.54856 0.10361 0.22076 0.0
C2352 C 0.52232 0.07138 0.27548 0.0
C2353 C 0.51236 0.08531 0.27361 0.0
C2354 C 0.53019 0.06495 0.26071 0.0
C2355 C 0.52834 0.07246 0.24395 0.0
C2356 C 0.5187 0.08658 0.24215 0.0
H2357 H 0.52417 0.03047 0.1338 0.0
H2358 H 0.51849 0.0394 0.16474 0.0
C2359 C 0.51082 0.09302 0.25689 0.0
C2360 C 0.53515 0.06464 0.22787 0.0
H2361 H 0.56198 0.0758 0.19409 0.0
C2362 C 0.52742 0.04654 0.22141 0.0
C2363 C 0.54829 0.07514 0.21833 0.0
C2364 C 0.55777 0.09435 0.22523 0.0
C2365 C 0.53181 0.03889 0.20509 0.0
C2366 C 0.54402 0.04976 0.19494 0.0
C2367 C 0.55247 0.06758 0.20186 0.0
C2368 C 0.5474 0.04329 0.17659 0.0
C2369 C 0.52317 0.01935 0.19874 0.0
C2370 C 0.56556 0.04282 0.17304 0.0
C2371 C 0.56888 0.03794 0.15534 0.0
C2372 C 0.55407 0.03359 0.14094 0.0
C2373 C 0.53586 0.0339 0.14462 0.0
C2374 C 0.53256 0.03877 0.1623 0.0
H2375 H 0.5189 0.0116 0.21034 0.0
H2376 H 0.5105 0.01871 0.18883 0.0
H2377 H 0.53298 0.01268 0.19182 0.0
H2378 H 0.57718 0.04645 0.18391 0.0
H2379 H 0.58308 0.03803 0.15285 0.0
H2380 H 0.78911 0.70082 0.96044 0.0
H2381 H 0.79049 0.71326 0.93121 0.0
H2382 H 0.84167 0.69529 0.92597 0.0
H2383 H 0.83998 0.68203 0.95556 0.0
H2384 H 0.81064 0.73899 0.91895 0.0
H2385 H 0.81829 0.67931 0.87523 0.0
H2386 H 0.81327 0.67777 0.89846 0.0
H2387 H 0.83677 0.6861 0.8939 0.0
C2388 C 0.80076 0.69927 0.95322 0.0
C2389 C 0.81443 0.69016 0.96092 0.0
C2390 C 0.80154 0.7066 0.93619 0.0
C2391 C 0.81607 0.7054 0.92563 0.0
C2392 C 0.82989 0.69628 0.93317 0.0
H2393 H 0.82703 0.77947 0.83475 0.0
H2394 H 0.831 0.76597 0.86385 0.0
C2395 C 0.82902 0.6887 0.95038 0.0
C2396 C 0.81647 0.71417 0.90732 0.0
H2397 H 0.82027 0.70676 0.86135 0.0
C2398 C 0.8128 0.73178 0.90644 0.0
C2399 C 0.81898 0.70518 0.89045 0.0
C2400 C 0.82187 0.68599 0.88942 0.0
C2401 C 0.81144 0.74032 0.88984 0.0
C2402 C 0.8144 0.73152 0.87305 0.0
C2403 C 0.81813 0.71392 0.87389 0.0
C2404 C 0.81292 0.73992 0.85456 0.0
C2405 C 0.80596 0.7585 0.89052 0.0
C2406 C 0.80219 0.72996 0.83867 0.0
C2407 C 0.80019 0.73766 0.82172 0.0
C2408 C 0.80885 0.75575 0.81969 0.0
C2409 C 0.81994 0.76562 0.83545 0.0
C2410 C 0.82206 0.75784 0.8524 0.0
H2411 H 0.79853 0.76069 0.90248 0.0
H2412 H 0.81872 0.76935 0.8919 0.0
H2413 H 0.7968 0.75987 0.87791 0.0
H2414 H 0.79493 0.71617 0.83939 0.0
H2415 H 0.79151 0.72937 0.81018 0.0
H2416 H 0.82215 0.14584 0.97518 0.0
H2417 H 0.84589 0.12738 0.97693 0.0
H2418 H 0.86537 0.14976 0.03265 0.0
H2419 H 0.84156 0.16818 0.03111 0.0
H2420 H 0.88505 0.13899 0.98464 0.0
H2421 H 0.85653 0.09474 0.0361 0.0
H2422 H 0.84305 0.10857 0.02368 0.0
H2423 H 0.86031 0.11862 0.04268 0.0
C2424 C 0.83144 0.14682 0.98784 0.0
C2425 C 0.82989 0.15844 0.00304 0.0
C2426 C 0.84501 0.13626 0.9888 0.0
C2427 C 0.85721 0.13701 0.005 0.0
C2428 C 0.85586 0.14873 0.02013 0.0
H2429 H 0.94753 0.08198 0.03597 0.0
H2430 H 0.92461 0.10139 0.03513 0.0
C2431 C 0.8423 0.15932 0.01919 0.0
C2432 C 0.87157 0.12576 0.00589 0.0
H2433 H 0.88582 0.09156 0.0277 0.0
C2434 C 0.88521 0.12858 0.99402 0.0
C2435 C 0.87176 0.11224 0.01818 0.0
C2436 C 0.85705 0.1082 0.0308 0.0
C2437 C 0.89918 0.11838 0.99424 0.0
C2438 C 0.89928 0.10476 0.00642 0.0
C2439 C 0.88571 0.10201 0.01838 0.0
C2440 C 0.91324 0.09306 0.00682 0.0
C2441 C 0.91392 0.12252 0.98167 0.0
C2442 C 0.91428 0.08176 0.99125 0.0
C2443 C 0.92743 0.07075 0.99164 0.0
C2444 C 0.93974 0.07073 0.00766 0.0
C2445 C 0.93847 0.08189 0.02332 0.0
C2446 C 0.9253 0.0929 0.02291 0.0
H2447 H 0.91489 0.13628 0.977 0.0
H2448 H 0.92782 0.12149 0.98854 0.0
H2449 H 0.91028 0.11259 0.96938 0.0
H2450 H 0.90486 0.08142 0.97879 0.0
H2451 H 0.92811 0.06243 0.97931 0.0
H2452 H 0.32557 0.45091 0.01132 0.0
H2453 H 0.35639 0.46977 0.00824 0.0
H2454 H 0.38349 0.4338 0.03896 0.0
H2455 H 0.35332 0.41521 0.04202 0.0
H2456 H 0.38809 0.48871 0.03292 0.0
H2457 H 0.40832 0.4332 0.99262 0.0
H2458 H 0.38459 0.43242 0.99694 0.0
H2459 H 0.40128 0.42663 0.01406 0.0
C2460 C 0.33807 0.44718 0.01766 0.0
C2461 C 0.33663 0.43129 0.02684 0.0
C2462 C 0.35582 0.45796 0.01579 0.0
C2463 C 0.37264 0.4531 0.02292 0.0
C2464 C 0.37105 0.43777 0.0328 0.0
H2465 H 0.48825 0.51487 0.04692 0.0
H2466 H 0.45555 0.50055 0.04696 0.0
C2467 C 0.35354 0.42713 0.03466 0.0
C2468 C 0.39186 0.46357 0.02007 0.0
H2469 H 0.433 0.45806 0.00488 0.0
C2470 C 0.3978 0.48198 0.02664 0.0
C2471 C 0.40483 0.45517 0.01166 0.0
C2472 C 0.39941 0.43582 0.00324 0.0
C2473 C 0.41618 0.49182 0.02566 0.0
C2474 C 0.42945 0.48313 0.01811 0.0
C2475 C 0.42324 0.46491 0.01091 0.0
C2476 C 0.44977 0.49248 0.01785 0.0
C2477 C 0.42107 0.51161 0.0326 0.0
C2478 C 0.45822 0.49259 0.0016 0.0
C2479 C 0.47725 0.50084 0.00154 0.0
C2480 C 0.48864 0.50913 0.01778 0.0
C2481 C 0.48015 0.50888 0.03402 0.0
C2482 C 0.46119 0.50072 0.03405 0.0
H2483 H 0.40844 0.51756 0.03221 0.0
H2484 H 0.42767 0.51307 0.04704 0.0
H2485 H 0.431 0.51947 0.02442 0.0
H2486 H 0.45005 0.4863 0.98883 0.0
H2487 H 0.48308 0.50051 0.98874 0.0
H2488 H 0.34335 0.54434 0.7 0.0
H2489 H 0.32965 0.56891 0.71214 0.0
H2490 H 0.37912 0.58805 0.751 0.0
H2491 H 0.39299 0.56369 0.73897 0.0
H2492 H 0.32341 0.57779 0.74962 0.0
H2493 H 0.37233 0.63252 0.7229 0.0
H2494 H 0.36916 0.60898 0.71454 0.0
H2495 H 0.38316 0.61741 0.73607 0.0
C2496 C 0.35131 0.55377 0.71115 0.0
C2497 C 0.36931 0.55214 0.71844 0.0
C2498 C 0.34345 0.56775 0.71807 0.0
C2499 C 0.35351 0.58037 0.73227 0.0
C2500 C 0.37129 0.57858 0.73983 0.0
H2501 H 0.33479 0.67886 0.7871 0.0
H2502 H 0.34697 0.6523 0.7777 0.0
C2503 C 0.37914 0.56461 0.73297 0.0
C2504 C 0.34551 0.59556 0.73912 0.0
H2505 H 0.35195 0.64161 0.74246 0.0
C2506 C 0.32957 0.59176 0.74803 0.0
C2507 C 0.35367 0.61372 0.73702 0.0
C2508 C 0.37044 0.61848 0.72699 0.0
C2509 C 0.32172 0.60573 0.75522 0.0
C2510 C 0.32987 0.6239 0.75308 0.0
C2511 C 0.3458 0.62766 0.74414 0.0
C2512 C 0.32195 0.63927 0.75969 0.0
C2513 C 0.30504 0.60094 0.76535 0.0
C2514 C 0.30387 0.64071 0.75266 0.0
C2515 C 0.2969 0.65585 0.75799 0.0
C2516 C 0.30796 0.6699 0.77031 0.0
C2517 C 0.32601 0.66832 0.77747 0.0
C2518 C 0.33294 0.65315 0.77218 0.0
H2519 H 0.30376 0.58722 0.77016 0.0
H2520 H 0.30588 0.61091 0.77733 0.0
H2521 H 0.29217 0.60105 0.75601 0.0
H2522 H 0.29534 0.63037 0.74266 0.0
H2523 H 0.28307 0.65683 0.75198 0.0
H2524 H 0.25408 0.63315 0.51414 0.0
H2525 H 0.2287 0.60639 0.51256 0.0
H2526 H 0.18924 0.64107 0.51696 0.0
H2527 H 0.21419 0.66766 0.51822 0.0
H2528 H 0.20433 0.59597 0.53752 0.0
H2529 H 0.16513 0.6067 0.47231 0.0
H2530 H 0.1889 0.61846 0.47972 0.0
H2531 H 0.16978 0.62659 0.48815 0.0
C2532 C 0.23996 0.63504 0.51464 0.0
C2533 C 0.23616 0.65255 0.51616 0.0
C2534 C 0.22551 0.61976 0.51376 0.0
C2535 C 0.20704 0.62175 0.51427 0.0
C2536 C 0.2033 0.6392 0.51605 0.0
H2537 H 0.11068 0.56121 0.54954 0.0
H2538 H 0.14202 0.57769 0.5468 0.0
C2539 C 0.21765 0.65441 0.51687 0.0
C2540 C 0.19156 0.60579 0.51359 0.0
H2541 H 0.14756 0.5882 0.49227 0.0
C2542 C 0.19203 0.59403 0.52744 0.0
C2543 C 0.1757 0.60299 0.5002 0.0
C2544 C 0.17492 0.61425 0.48414 0.0
C2545 C 0.17653 0.58028 0.52894 0.0
C2546 C 0.16003 0.57858 0.51652 0.0
C2547 C 0.16007 0.5896 0.50198 0.0
C2548 C 0.14213 0.56655 0.519 0.0
C2549 C 0.17796 0.56789 0.54394 0.0
C2550 C 0.13161 0.55484 0.50427 0.0
C2551 C 0.11349 0.54566 0.50568 0.0
C2552 C 0.10556 0.54797 0.52189 0.0
C2553 C 0.11642 0.55902 0.53691 0.0
C2554 C 0.13445 0.56836 0.53541 0.0
H2555 H 0.19258 0.56631 0.54744 0.0
H2556 H 0.1736 0.57388 0.55646 0.0
H2557 H 0.16891 0.55428 0.53998 0.0
H2558 H 0.13719 0.55327 0.49144 0.0
H2559 H 0.1055 0.5372 0.49387 0.0
H2560 H 0.68587 0.94857 0.73563 0.0
H2561 H 0.71397 0.93609 0.73803 0.0
H2562 H 0.74421 0.98375 0.7176 0.0
H2563 H 0.71605 0.99655 0.71532 0.0
H2564 H 0.73748 0.92891 0.71167 0.0
H2565 H 0.77407 0.98099 0.76801 0.0
H2566 H 0.74929 0.97751 0.7609 0.0
H2567 H 0.76543 0.98879 0.74689 0.0
C2568 C 0.69842 0.95639 0.73149 0.0
C2569 C 0.69876 0.97365 0.72546 0.0
C2570 C 0.71447 0.94919 0.73282 0.0
C2571 C 0.7312 0.95909 0.7282 0.0
C2572 C 0.73147 0.97601 0.72146 0.0
H2573 H 0.82149 0.89759 0.74095 0.0
H2574 H 0.80461 0.91947 0.72761 0.0
C2575 C 0.71536 0.98325 0.7201 0.0
C2576 C 0.74837 0.95182 0.7315 0.0
H2577 H 0.78803 0.95644 0.76171 0.0
C2578 C 0.74879 0.93508 0.72232 0.0
C2579 C 0.763 0.95995 0.74546 0.0
C2580 C 0.76302 0.97775 0.75601 0.0
C2581 C 0.76287 0.92569 0.72748 0.0
C2582 C 0.77702 0.93341 0.74205 0.0
C2583 C 0.77722 0.95066 0.75046 0.0
C2584 C 0.7896 0.92253 0.75075 0.0
C2585 C 0.76171 0.907 0.71822 0.0
C2586 C 0.78737 0.91769 0.76846 0.0
C2587 C 0.7969 0.90527 0.77608 0.0
C2588 C 0.80899 0.89743 0.76618 0.0
C2589 C 0.8121 0.90318 0.74884 0.0
C2590 C 0.80248 0.91566 0.7412 0.0
H2591 H 0.74851 0.90209 0.70882 0.0
H2592 H 0.77353 0.90725 0.71013 0.0
H2593 H 0.76276 0.89717 0.72858 0.0
H2594 H 0.77745 0.9228 0.77604 0.0
H2595 H 0.79384 0.901 0.78929 0.0
H2596 H 0.73705 0.94653 0.53789 0.0
H2597 H 0.7114 0.96305 0.53941 0.0
H2598 H 0.67815 0.92625 0.49551 0.0
H2599 H 0.70312 0.90972 0.49425 0.0
H2600 H 0.69243 0.98218 0.5176 0.0
H2601 H 0.63969 0.9228 0.52878 0.0
H2602 H 0.66405 0.92206 0.52982 0.0
H2603 H 0.64937 0.91889 0.50808 0.0
C2604 C 0.72428 0.94188 0.52858 0.0
C2605 C 0.72253 0.9264 0.51606 0.0
C2606 C 0.70941 0.95143 0.52944 0.0
C2607 C 0.69208 0.94589 0.51794 0.0
C2608 C 0.6907 0.93078 0.50515 0.0
H2609 H 0.58385 0.98211 0.49586 0.0
H2610 H 0.61059 0.96714 0.49599 0.0
C2611 C 0.70537 0.92129 0.50433 0.0
C2612 C 0.67563 0.95574 0.51889 0.0
H2613 H 0.62797 0.94858 0.51996 0.0
C2614 C 0.67842 0.97472 0.51831 0.0
C2615 C 0.65691 0.94651 0.51979 0.0
C2616 C 0.65232 0.92649 0.52185 0.0
C2617 C 0.66349 0.9843 0.51799 0.0
C2618 C 0.64475 0.975 0.51859 0.0
C2619 C 0.642 0.95607 0.51934 0.0
C2620 C 0.62798 0.98452 0.51852 0.0
C2621 C 0.668 1.00439 0.51634 0.0
C2622 C 0.62797 0.99939 0.53124 0.0
C2623 C 0.61249 0.00802 0.53123 0.0
C2624 C 0.5961 1.00226 0.5185 0.0
C2625 C 0.59601 0.98726 0.50588 0.0
C2626 C 0.61149 0.97855 0.50598 0.0
H2627 H 0.68122 0.00852 0.51044 0.0
H2628 H 0.65664 0.00867 0.50764 0.0
H2629 H 0.66972 0.01173 0.53016 0.0
H2630 H 0.63993 1.00429 0.54153 0.0
H2631 H 0.61342 0.01932 0.54135 0.0
H2632 H 0.36853 0.4736 0.72712 0.0
H2633 H 0.34948 0.44534 0.7343 0.0
H2634 H 0.35028 0.42133 0.67973 0.0
H2635 H 0.37061 0.4492 0.67303 0.0
H2636 H 0.31823 0.42233 0.72407 0.0
H2637 H 0.37602 0.38915 0.70836 0.0
H2638 H 0.37776 0.41318 0.70819 0.0
H2639 H 0.36552 0.39796 0.68882 0.0
C2640 C 0.36427 0.46242 0.71653 0.0
C2641 C 0.37124 0.46339 0.69964 0.0
C2642 C 0.35339 0.44625 0.72064 0.0
C2643 C 0.34903 0.43097 0.70778 0.0
C2644 C 0.35413 0.43269 0.69012 0.0
H2645 H 0.2842 0.3284 0.73736 0.0
H2646 H 0.2926 0.35739 0.72437 0.0
C2647 C 0.36554 0.44866 0.68622 0.0
C2648 C 0.34107 0.41296 0.71359 0.0
H2649 H 0.34973 0.37063 0.7172 0.0
C2650 C 0.32508 0.41099 0.72256 0.0
C2651 C 0.35024 0.39826 0.71193 0.0
C2652 C 0.36842 0.39976 0.70399 0.0
C2653 C 0.31825 0.3949 0.73024 0.0
C2654 C 0.32721 0.38011 0.7282 0.0
C2655 C 0.34284 0.38194 0.71875 0.0
C2656 C 0.32153 0.36291 0.73659 0.0
C2657 C 0.30207 0.39428 0.74114 0.0
C2658 C 0.33504 0.35608 0.74739 0.0
C2659 C 0.33042 0.33929 0.75423 0.0
C2660 C 0.31209 0.32915 0.75076 0.0
C2661 C 0.2984 0.33611 0.74039 0.0
C2662 C 0.30316 0.35273 0.73309 0.0
H2663 H 0.30054 0.40809 0.74593 0.0
H2664 H 0.28897 0.38756 0.73233 0.0
H2665 H 0.30374 0.38656 0.75325 0.0
H2666 H 0.3493 0.36366 0.75034 0.0
H2667 H 0.3412 0.33425 0.76227 0.0
H2668 H 0.15103 0.52784 0.2268 0.0
H2669 H 0.1677 0.55907 0.22691 0.0
H2670 H 0.12027 0.57822 0.2435 0.0
H2671 H 0.10339 0.54687 0.24358 0.0
H2672 H 0.15736 0.58793 0.20733 0.0
H2673 H 0.16457 0.60251 0.28313 0.0
H2674 H 0.15833 0.57971 0.27209 0.0
H2675 H 0.14144 0.59384 0.27134 0.0
C2676 C 0.14405 0.53865 0.23039 0.0
C2677 C 0.1259 0.53485 0.2353 0.0
C2678 C 0.1536 0.55649 0.23041 0.0
C2679 C 0.14528 0.5709 0.23542 0.0
C2680 C 0.127 0.56724 0.23984 0.0
H2681 H 0.20562 0.68467 0.25289 0.0
H2682 H 0.18009 0.65794 0.24988 0.0
C2683 C 0.11736 0.54934 0.23979 0.0
C2684 C 0.15615 0.58966 0.23637 0.0
H2685 H 0.17961 0.62519 0.2666 0.0
C2686 C 0.16204 0.59619 0.22025 0.0
C2687 C 0.16212 0.6004 0.25325 0.0
C2688 C 0.15644 0.59381 0.271 0.0
C2689 C 0.17428 0.61298 0.22062 0.0
C2690 C 0.18103 0.62329 0.23761 0.0
C2691 C 0.17442 0.61719 0.25362 0.0
C2692 C 0.19619 0.63957 0.23923 0.0
C2693 C 0.18015 0.61939 0.20287 0.0
C2694 C 0.21374 0.63796 0.2346 0.0
C2695 C 0.22832 0.65308 0.23644 0.0
C2696 C 0.22568 0.67016 0.243 0.0
C2697 C 0.20813 0.67169 0.24789 0.0
C2698 C 0.19351 0.65649 0.24608 0.0
H2699 H 0.16973 0.61301 0.19098 0.0
H2700 H 0.1821 0.63433 0.20305 0.0
H2701 H 0.19361 0.61559 0.20085 0.0
H2702 H 0.21622 0.62492 0.22976 0.0
H2703 H 0.24177 0.65133 0.23296 0.0
H2704 H 0.48881 0.66264 0.41181 0.0
H2705 H 0.50135 0.63858 0.42574 0.0
H2706 H 0.55583 0.66128 0.41187 0.0
H2707 H 0.54349 0.68568 0.39809 0.0
H2708 H 0.52135 0.61243 0.41337 0.0
H2709 H 0.56342 0.66333 0.46825 0.0
H2710 H 0.54515 0.66864 0.45249 0.0
H2711 H 0.56708 0.66685 0.44501 0.0
C2712 C 0.5034 0.66241 0.41145 0.0
C2713 C 0.51522 0.67625 0.40412 0.0
C2714 C 0.51053 0.64861 0.41938 0.0
C2715 C 0.52956 0.64839 0.42009 0.0
C2716 C 0.54116 0.66145 0.4117 0.0
H2717 H 0.57921 0.58079 0.49598 0.0
H2718 H 0.5771 0.60074 0.47136 0.0
C2719 C 0.53405 0.67532 0.4038 0.0
C2720 C 0.53726 0.6354 0.43109 0.0
H2721 H 0.56189 0.63277 0.47248 0.0
C2722 C 0.53051 0.61684 0.42613 0.0
C2723 C 0.54927 0.64125 0.44768 0.0
C2724 C 0.55662 0.66109 0.45383 0.0
C2725 C 0.53468 0.60397 0.43781 0.0
C2726 C 0.54564 0.60991 0.45492 0.0
C2727 C 0.55345 0.62835 0.45934 0.0
C2728 C 0.54713 0.59754 0.46933 0.0
C2729 C 0.52681 0.58417 0.43205 0.0
C2730 C 0.53102 0.5896 0.47654 0.0
C2731 C 0.53215 0.57841 0.49063 0.0
C2732 C 0.54947 0.57498 0.49782 0.0
C2733 C 0.56567 0.58317 0.49073 0.0
C2734 C 0.5645 0.59448 0.47664 0.0
H2735 H 0.52386 0.58149 0.4169 0.0
H2736 H 0.53655 0.57566 0.43728 0.0
H2737 H 0.51349 0.58001 0.43773 0.0
H2738 H 0.51754 0.59218 0.47135 0.0
H2739 H 0.5194 0.57235 0.49576 0.0
H2740 H 0.63858 0.34119 0.71659 0.0
H2741 H 0.66109 0.34167 0.74381 0.0
H2742 H 0.70382 0.33771 0.70934 0.0
H2743 H 0.68171 0.33762 0.68225 0.0
H2744 H 0.67922 0.31553 0.75305 0.0
H2745 H 0.73109 0.37738 0.74747 0.0
H2746 H 0.70801 0.3728 0.7347 0.0
H2747 H 0.72649 0.36367 0.72604 0.0
C2748 C 0.65287 0.34072 0.71484 0.0
C2749 C 0.65838 0.3394 0.69724 0.0
C2750 C 0.66568 0.34099 0.7304 0.0
C2751 C 0.6842 0.34007 0.72861 0.0
C2752 C 0.68974 0.33898 0.71108 0.0
H2753 H 0.76224 0.28682 0.77018 0.0
H2754 H 0.73263 0.29585 0.76295 0.0
C2755 C 0.67702 0.33878 0.69557 0.0
C2756 C 0.69752 0.3386 0.74472 0.0
H2757 H 0.74332 0.35308 0.76164 0.0
C2758 C 0.69312 0.32403 0.75533 0.0
C2759 C 0.71541 0.35003 0.74818 0.0
C2760 C 0.72042 0.36697 0.73861 0.0
C2761 C 0.70679 0.31946 0.76792 0.0
C2762 C 0.72537 0.32942 0.76945 0.0
C2763 C 0.7292 0.34514 0.76029 0.0
C2764 C 0.74147 0.32245 0.7779 0.0
C2765 C 0.70128 0.30366 0.77891 0.0
C2766 C 0.75634 0.33421 0.78899 0.0
C2767 C 0.77354 0.32923 0.79266 0.0
C2768 C 0.77604 0.31231 0.78553 0.0
C2769 C 0.76068 0.2999 0.77596 0.0
C2770 C 0.74362 0.30502 0.77196 0.0
H2771 H 0.68701 0.30307 0.78264 0.0
H2772 H 0.70098 0.29087 0.77047 0.0
H2773 H 0.71112 0.30444 0.79164 0.0
H2774 H 0.75504 0.3477 0.79375 0.0
H2775 H 0.78515 0.33899 0.80022 0.0
H2776 H 0.04094 0.27269 0.91924 0.0
H2777 H 0.04296 0.30266 0.93476 0.0
H2778 H 0.98565 0.28736 0.94454 0.0
H2779 H 0.98361 0.25714 0.92937 0.0
H2780 H 0.02175 0.3254 0.92157 0.0
H2781 H 1.01023 0.31465 0.99326 0.0
H2782 H 0.01623 0.2976 0.97806 0.0
H2783 H 0.99263 0.30086 0.9765 0.0
C2784 C 0.02887 0.27555 0.92503 0.0
C2785 C 1.01207 0.26258 0.92298 0.0
C2786 C 0.03007 0.29268 0.93392 0.0
C2787 C 0.01451 0.2972 0.9409 0.0
C2788 C 0.99795 0.28405 0.93959 0.0
H2789 H 0.98477 0.3991 0.97094 0.0
H2790 H 0.98544 0.36708 0.9643 0.0
C2791 C 0.99677 0.26681 0.93082 0.0
C2792 C 0.015 0.31624 0.94744 0.0
H2793 H 1.0083 0.3438 0.98359 0.0
C2794 C 0.019 0.32943 0.9352 0.0
C2795 C 1.01123 0.32143 0.96516 0.0
C2796 C 1.0075 0.30792 0.97908 0.0
C2797 C 0.01911 0.34765 0.9401 0.0
C2798 C 0.01529 0.35283 0.95777 0.0
C2799 C 1.01125 0.3397 0.97006 0.0
C2800 C 0.01521 0.37188 0.96348 0.0
C2801 C 0.0229 0.36118 0.92619 0.0
C2802 C 0.0318 0.38503 0.96553 0.0
C2803 C 0.03146 0.40329 0.96919 0.0
C2804 C 0.0145 0.40868 0.97088 0.0
C2805 C 0.99799 0.39537 0.96943 0.0
C2806 C 0.99836 0.3771 0.96581 0.0
H2807 H 0.02188 0.35447 0.91214 0.0
H2808 H 1.01294 0.37044 0.92611 0.0
H2809 H 0.0372 0.36951 0.92987 0.0
H2810 H 0.04495 0.38119 0.96387 0.0
H2811 H 0.04439 0.41323 0.97012 0.0
H2812 H 0.04217 0.84146 0.19293 0.0
H2813 H 0.01617 0.82672 0.2079 0.0
H2814 H 0.02471 0.77435 0.1883 0.0
H2815 H 0.05049 0.78903 0.17281 0.0
H2816 H 0.98841 0.7756 0.18375 0.0
H2817 H 0.01875 0.80223 0.25455 0.0
H2818 H 0.01837 0.82026 0.2401 0.0
H2819 H 0.03239 0.80384 0.23571 0.0
C2820 C 0.03857 0.82681 0.19184 0.0
C2821 C 0.04844 0.81641 0.18177 0.0
C2822 C 0.0238 0.81839 0.20053 0.0
C2823 C 0.0188 0.79944 0.19959 0.0
C2824 C 0.02846 0.789 0.18933 0.0
H2825 H 0.93586 0.75941 0.27111 0.0
H2826 H 0.96392 0.76152 0.25582 0.0
C2827 C 0.04316 0.79741 0.18049 0.0
C2828 C 1.00304 0.79064 0.20879 0.0
H2829 H 0.98531 0.7918 0.24939 0.0
C2830 C 0.98784 0.77888 0.19817 0.0
C2831 C 1.00249 0.79451 0.22771 0.0
C2832 C 0.01898 0.80574 0.2402 0.0
C2833 C 0.97161 0.77186 0.20573 0.0
C2834 C 0.97041 0.77715 0.22425 0.0
C2835 C 0.98609 0.78793 0.23512 0.0
C2836 C 0.95264 0.77319 0.23219 0.0
C2837 C 0.95586 0.75905 0.19373 0.0
C2838 C 0.93693 0.77881 0.22389 0.0
C2839 C 0.92092 0.77749 0.23251 0.0
C2840 C 0.92039 0.7708 0.24976 0.0
C2841 C 0.93592 0.76468 0.25785 0.0
C2842 C 0.95191 0.76584 0.24911 0.0
H2843 H 0.96125 0.75114 0.18309 0.0
H2844 H 0.94747 0.74947 0.20183 0.0
H2845 H 0.94658 0.76697 0.18657 0.0
H2846 H 0.93733 0.78508 0.21116 0.0
H2847 H 0.90933 0.78268 0.22611 0.0
H2848 H 0.54451 0.3614 0.14136 0.0
H2849 H 0.54633 0.38824 0.12485 0.0
H2850 H 0.53693 0.35491 0.07367 0.0
H2851 H 0.53472 0.32756 0.09039 0.0
H2852 H 0.56856 0.40522 0.10448 0.0
H2853 H 0.50121 0.38594 0.05943 0.0
H2854 H 0.50717 0.3729 0.07792 0.0
H2855 H 0.51628 0.37033 0.05651 0.0
C2856 C 0.54269 0.35947 0.12655 0.0
C2857 C 0.53933 0.34172 0.11753 0.0
C2858 C 0.54381 0.37519 0.11696 0.0
C2859 C 0.54153 0.37429 0.09766 0.0
C2860 C 0.53831 0.35657 0.08846 0.0
H2861 H 0.54457 0.46174 0.0203 0.0
H2862 H 0.54299 0.43307 0.03434 0.0
C2863 C 0.53719 0.34067 0.09814 0.0
C2864 C 0.54304 0.39192 0.08776 0.0
H2865 H 0.52108 0.41329 0.0544 0.0
C2866 C 0.55802 0.40681 0.09357 0.0
C2867 C 0.52962 0.39472 0.07328 0.0
C2868 C 0.51256 0.38023 0.06648 0.0
C2869 C 0.56005 0.42367 0.08556 0.0
C2870 C 0.54651 0.42659 0.07127 0.0
C2871 C 0.53163 0.41163 0.06527 0.0
C2872 C 0.54754 0.44479 0.06247 0.0
C2873 C 0.57725 0.43804 0.09229 0.0
C2874 C 0.55041 0.46171 0.07308 0.0
C2875 C 0.55142 0.47837 0.06494 0.0
C2876 C 0.54947 0.47911 0.04571 0.0
C2877 C 0.54634 0.46219 0.03509 0.0
C2878 C 0.54534 0.44551 0.04324 0.0
H2879 H 0.58886 0.43205 0.09837 0.0
H2880 H 0.58212 0.44601 0.08106 0.0
H2881 H 0.57399 0.44738 0.10312 0.0
H2882 H 0.5516 0.46211 0.08784 0.0
H2883 H 0.55356 0.49077 0.07388 0.0
H2884 H 1.00988 0.29038 0.35516 0.0
H2885 H 0.9803 0.29281 0.33699 0.0
H2886 H 0.94979 0.25507 0.36929 0.0
H2887 H 0.97883 0.25306 0.38755 0.0
H2888 H 0.95115 0.27127 0.31509 0.0
H2889 H 0.9223 0.29451 0.37594 0.0
H2890 H 0.94632 0.29251 0.37692 0.0
H2891 H 0.9283 0.27294 0.37846 0.0
C2892 C 0.99689 0.28241 0.35823 0.0
C2893 C 0.99703 0.27158 0.37306 0.0
C2894 C 0.97983 0.2839 0.34785 0.0
C2895 C 0.96232 0.27462 0.35195 0.0
C2896 C 0.96269 0.26303 0.36605 0.0
H2897 H 0.84227 0.26102 0.31219 0.0
H2898 H 0.8733 0.25925 0.32694 0.0
C2899 C 0.97955 0.26171 0.37645 0.0
C2900 C 0.94371 0.27698 0.34188 0.0
H2901 H 0.90048 0.28488 0.34893 0.0
C2902 C 0.9402 0.27443 0.32258 0.0
C2903 C 0.92902 0.2812 0.35127 0.0
C2904 C 0.93172 0.28564 0.37176 0.0
C2905 C 0.92266 0.2753 0.31272 0.0
C2906 C 0.90787 0.27904 0.32219 0.0
C2907 C 0.91147 0.28183 0.34143 0.0
C2908 C 0.88864 0.28 0.31255 0.0
C2909 C 0.91994 0.27161 0.29217 0.0
C2910 C 0.88631 0.29237 0.29943 0.0
C2911 C 0.86837 0.29352 0.29098 0.0
C2912 C 0.85196 0.28231 0.29524 0.0
C2913 C 0.85433 0.26991 0.30834 0.0
C2914 C 0.87225 0.26889 0.3169 0.0
H2915 H 0.9305 0.26443 0.28734 0.0
H2916 H 0.90582 0.26338 0.28717 0.0
H2917 H 0.92137 0.28467 0.28594 0.0
H2918 H 0.8984 0.30146 0.2959 0.0
H2919 H 0.86739 0.30334 0.28111 0.0
H2920 H 0.02311 0.70963 0.63662 0.0
H2921 H 0.02522 0.68154 0.62003 0.0
H2922 H 0.04457 0.71084 0.57562 0.0
H2923 H 0.04302 0.73964 0.59278 0.0
H2924 H 1.00928 0.66193 0.59124 0.0
H2925 H 0.08286 0.68084 0.57875 0.0
H2926 H 0.07264 0.69512 0.59336 0.0
H2927 H 0.0684 0.69507 0.56886 0.0
C2928 C 0.02787 0.71041 0.6233 0.0
C2929 C 0.03295 0.72749 0.61638 0.0
C2930 C 0.02904 0.69397 0.61366 0.0
C2931 C 0.03545 0.69341 0.59641 0.0
C2932 C 0.04007 0.71039 0.58904 0.0
H2933 H 0.05104 0.59885 0.52369 0.0
H2934 H 0.04859 0.62877 0.53696 0.0
C2935 C 0.0389 0.72708 0.59883 0.0
C2936 C 0.03683 0.67503 0.58665 0.0
H2937 H 0.06612 0.65194 0.56589 0.0
C2938 C 0.02183 0.65993 0.58579 0.0
C2939 C 0.05301 0.67169 0.57923 0.0
C2940 C 0.07023 0.68646 0.5802 0.0
C2941 C 0.02244 0.6423 0.57797 0.0
C2942 C 0.03868 0.63892 0.57078 0.0
C2943 C 0.05358 0.65403 0.57132 0.0
C2944 C 0.04038 0.62002 0.56264 0.0
C2945 C 1.00526 0.6275 0.57712 0.0
C2946 C 0.03694 0.60443 0.57234 0.0
C2947 C 0.03838 0.58705 0.56468 0.0
C2948 C 0.04339 0.58433 0.54691 0.0
C2949 C 0.04705 0.59997 0.53731 0.0
C2950 C 0.04569 0.61735 0.54501 0.0
H2951 H 0.9925 0.63312 0.57776 0.0
H2952 H 1.00326 0.61825 0.56439 0.0
H2953 H 1.00678 0.61949 0.58902 0.0
H2954 H 0.0333 0.60568 0.58609 0.0
H2955 H 0.03556 0.57567 0.57279 0.0
H2956 H 0.62125 0.79508 0.87945 0.0
H2957 H 0.64994 0.7985 0.86449 0.0
H2958 H 0.62697 0.7486 0.83086 0.0
H2959 H 0.59868 0.74519 0.84549 0.0
H2960 H 0.6771 0.77743 0.86167 0.0
H2961 H 0.64332 0.7802 0.79154 0.0
H2962 H 0.63145 0.78252 0.81135 0.0
H2963 H 0.63302 0.76044 0.80173 0.0
C2964 C 0.62218 0.78489 0.86876 0.0
C2965 C 0.60713 0.76988 0.86383 0.0
C2966 C 0.6388 0.78682 0.86015 0.0
C2967 C 0.64099 0.77401 0.84602 0.0
C2968 C 0.62597 0.75907 0.84123 0.0
H2969 H 0.72642 0.75656 0.77365 0.0
H2970 H 0.69848 0.75554 0.78912 0.0
C2971 C 0.60957 0.75706 0.84986 0.0
C2972 C 0.6588 0.77581 0.83653 0.0
H2973 H 0.67448 0.77564 0.7942 0.0
C2974 C 0.67643 0.77722 0.84691 0.0
C2975 C 0.65851 0.77538 0.81715 0.0
C2976 C 0.64061 0.77473 0.80478 0.0
C2977 C 0.69316 0.77763 0.83872 0.0
C2978 C 0.6929 0.77722 0.81931 0.0
C2979 C 0.67524 0.77595 0.80896 0.0
C2980 C 0.7105 0.778 0.80952 0.0
C2981 C 0.71088 0.77771 0.85116 0.0
C2982 C 0.72712 0.79113 0.81509 0.0
C2983 C 0.74332 0.79166 0.80621 0.0
C2984 C 0.74375 0.77928 0.79106 0.0
C2985 C 0.727 0.76641 0.78517 0.0
C2986 C 0.7108 0.76582 0.79414 0.0
H2987 H 0.70789 0.77191 0.86418 0.0
H2988 H 0.71994 0.76987 0.8445 0.0
H2989 H 0.71867 0.79188 0.85467 0.0
H2990 H 0.72763 0.80126 0.82631 0.0
H2991 H 0.75561 0.80195 0.8113 0.0
H2992 H 0.42696 0.55994 0.67186 0.0
H2993 H 0.44159 0.57982 0.65033 0.0
H2994 H 0.45174 0.53323 0.61914 0.0
H2995 H 0.43721 0.5135 0.64032 0.0
H2996 H 0.4779 0.58362 0.64544 0.0
H2997 H 0.43552 0.5623 0.57883 0.0
H2998 H 0.42656 0.55686 0.59997 0.0
H2999 H 0.4394 0.54227 0.58882 0.0
C3000 C 0.43186 0.55395 0.6601 0.0
C3001 C 0.43106 0.53518 0.65782 0.0
C3002 C 0.44021 0.56531 0.64784 0.0
C3003 C 0.44751 0.558 0.63297 0.0
C3004 C 0.4458 0.53917 0.63023 0.0
H3005 H 0.54142 0.55852 0.59513 0.0
H3006 H 0.5193 0.56801 0.61381 0.0
C3007 C 0.43766 0.52789 0.64248 0.0
C3008 C 0.4594 0.56968 0.62179 0.0
H3009 H 0.47004 0.56877 0.5782 0.0
C3010 C 0.47593 0.58095 0.63065 0.0
C3011 C 0.45663 0.56688 0.60248 0.0
C3012 C 0.43842 0.55656 0.59203 0.0
C3013 C 0.4908 0.58721 0.62089 0.0
C3014 C 0.48916 0.58162 0.602 0.0
C3015 C 0.47164 0.5727 0.5928 0.0
C3016 C 0.50577 0.58115 0.5925 0.0
C3017 C 0.5085 0.59875 0.63117 0.0
C3018 C 0.50598 0.5857 0.57438 0.0
C3019 C 0.51858 0.58003 0.56365 0.0
C3020 C 0.53121 0.56995 0.57097 0.0
C3021 C 0.53212 0.56675 0.58944 0.0
C3022 C 0.51948 0.57228 0.60013 0.0
H3023 H 0.50517 0.60848 0.64162 0.0
H3024 H 0.51665 0.58998 0.63854 0.0
H3025 H 0.51725 0.60642 0.62187 0.0
H3026 H 0.49544 0.59232 0.56811 0.0
H3027 H 0.51739 0.58219 0.54924 0.0
H3028 H 0.81352 0.20892 0.9616 0.0
H3029 H 0.82244 0.221 0.93312 0.0
H3030 H 0.79279 0.26388 0.94173 0.0
H3031 H 0.78366 0.25188 0.96999 0.0
H3032 H 0.79363 0.22779 0.90209 0.0
H3033 H 0.84764 0.28838 0.93113 0.0
H3034 H 0.84182 0.26868 0.94353 0.0
H3035 H 0.82635 0.28417 0.94134 0.0
C3036 C 0.80906 0.22102 0.95753 0.0
C3037 C 0.79786 0.22942 0.96809 0.0
C3038 C 0.81413 0.22788 0.94124 0.0
C3039 C 0.80837 0.24339 0.93541 0.0
C3040 C 0.79752 0.25198 0.94608 0.0
H3041 H 0.81962 0.30892 0.84408 0.0
H3042 H 0.81516 0.29667 0.87343 0.0
C3043 C 0.79226 0.24505 0.96221 0.0
C3044 C 0.81285 0.2502 0.91772 0.0
H3045 H 0.83805 0.28575 0.89922 0.0
C3046 C 0.80347 0.24037 0.9014 0.0
C3047 C 0.82549 0.26672 0.91694 0.0
C3048 C 0.83605 0.27763 0.93412 0.0
C3049 C 0.80603 0.24685 0.88428 0.0
C3050 C 0.8188 0.26337 0.88343 0.0
C3051 C 0.82831 0.27309 0.89982 0.0
C3052 C 0.82216 0.27098 0.86572 0.0
C3053 C 0.79447 0.23625 0.86737 0.0
C3054 C 0.828 0.26083 0.85168 0.0
C3055 C 0.83037 0.26773 0.83481 0.0
C3056 C 0.82729 0.28509 0.83168 0.0
C3057 C 0.82211 0.29551 0.84599 0.0
C3058 C 0.81954 0.2885 0.8628 0.0
H3059 H 0.78176 0.22717 0.87074 0.0
H3060 H 0.79012 0.2454 0.85737 0.0
H3061 H 0.80286 0.22766 0.86073 0.0
H3062 H 0.83068 0.2475 0.85374 0.0
H3063 H 0.83459 0.25941 0.8242 0.0
H3064 H 0.0987 0.44066 0.18539 0.0
H3065 H 0.08701 0.43449 0.15272 0.0
H3066 H 0.03779 0.45458 0.16221 0.0
H3067 H 0.04882 0.45992 0.19473 0.0
H3068 H 0.03107 0.43038 0.13164 0.0
H3069 H 0.09604 0.48276 0.13139 0.0
H3070 H 0.09907 0.46124 0.13852 0.0
H3071 H 0.08816 0.4755 0.15237 0.0
C3072 C 0.08506 0.44311 0.1806 0.0
C3073 C 0.07502 0.45145 0.19251 0.0
C3074 C 0.07842 0.43961 0.16193 0.0
C3075 C 0.06193 0.4448 0.155 0.0
C3076 C 0.0507 0.4507 0.16723 0.0
H3077 H 0.03533 0.5129 0.07896 0.0
H3078 H 0.0392 0.49408 0.10408 0.0
C3079 C 0.05713 0.4539 0.18587 0.0
C3080 C 0.05825 0.44806 0.13553 0.0
H3081 H 0.07401 0.47813 0.10563 0.0
C3082 C 0.04062 0.44047 0.1257 0.0
C3083 C 0.07068 0.46147 0.12795 0.0
C3084 C 0.08949 0.47084 0.13808 0.0
C3085 C 0.03471 0.44673 0.109 0.0
C3086 C 0.04681 0.46075 0.10208 0.0
C3087 C 0.06483 0.46741 0.11118 0.0
C3088 C 0.04063 0.47037 0.08663 0.0
C3089 C 0.01525 0.43928 0.09943 0.0
C3090 C 0.03965 0.463 0.06854 0.0
C3091 C 0.03743 0.47373 0.05412 0.0
C3092 C 0.03638 0.49201 0.05768 0.0
C3093 C 0.03625 0.49895 0.07578 0.0
C3094 C 0.03838 0.4882 0.09013 0.0
H3095 H 1.00745 0.42846 0.1067 0.0
H3096 H 1.00742 0.45036 0.09839 0.0
H3097 H 0.01592 0.43369 0.08529 0.0
H3098 H 0.04158 0.44932 0.06566 0.0
H3099 H 0.03754 0.46797 0.04031 0.0
H3100 H 0.77525 0.89237 0.45735 0.0
H3101 H 0.77653 0.88117 0.42535 0.0
H3102 H 0.77884 0.82832 0.44236 0.0
H3103 H 0.77761 0.83933 0.47394 0.0
H3104 H 0.80433 0.8667 0.40984 0.0
H3105 H 0.7391 0.81459 0.39816 0.0
H3106 H 0.74397 0.83196 0.41711 0.0
H3107 H 0.75395 0.81216 0.41844 0.0
C3108 C 0.7755 0.87824 0.45423 0.0
C3109 C 0.77599 0.86681 0.46855 0.0
C3110 C 0.77647 0.87182 0.43581 0.0
C3111 C 0.77761 0.85365 0.43094 0.0
C3112 C 0.77762 0.84223 0.44522 0.0
H3113 H 0.82165 0.80727 0.3354 0.0
H3114 H 0.81672 0.82044 0.36524 0.0
C3115 C 0.77691 0.84864 0.46351 0.0
C3116 C 0.77957 0.84667 0.41137 0.0
H3117 H 0.76075 0.81279 0.37677 0.0
C3118 C 0.79467 0.85497 0.40265 0.0
C3119 C 0.76707 0.83138 0.40145 0.0
C3120 C 0.75001 0.82208 0.40916 0.0
C3121 C 0.79786 0.84828 0.38501 0.0
C3122 C 0.78576 0.83258 0.37538 0.0
C3123 C 0.77032 0.82462 0.38387 0.0
C3124 C 0.78883 0.82429 0.35667 0.0
C3125 C 0.81414 0.85838 0.37671 0.0
C3126 C 0.77479 0.82133 0.34139 0.0
C3127 C 0.77763 0.81372 0.32406 0.0
C3128 C 0.79455 0.80845 0.32127 0.0
C3129 C 0.80845 0.81114 0.33665 0.0
C3130 C 0.80566 0.81889 0.35391 0.0
H3131 H 0.81863 0.87261 0.38291 0.0
H3132 H 0.82612 0.85164 0.37925 0.0
H3133 H 0.81065 0.85845 0.36169 0.0
H3134 H 0.76157 0.82511 0.34278 0.0
H3135 H 0.76642 0.81187 0.31282 0.0
H3136 H 0.44482 0.53601 0.75747 0.0
H3137 H 0.46227 0.53843 0.78801 0.0
H3138 H 0.48076 0.48924 0.77389 0.0
H3139 H 0.46374 0.48696 0.74314 0.0
H3140 H 0.45558 0.51437 0.81277 0.0
H3141 H 0.52875 0.5213 0.79876 0.0
H3142 H 0.51026 0.52431 0.78176 0.0
H3143 H 0.51339 0.50193 0.78609 0.0
C3144 C 0.45285 0.52586 0.76075 0.0
C3145 C 0.45288 0.51127 0.74789 0.0
C3146 C 0.46281 0.52727 0.77821 0.0
C3147 C 0.47298 0.51413 0.78317 0.0
C3148 C 0.47339 0.49977 0.77023 0.0
H3149 H 0.52051 0.48284 0.88483 0.0
H3150 H 0.50835 0.48529 0.85309 0.0
C3151 C 0.46355 0.49843 0.75269 0.0
C3152 C 0.48173 0.5146 0.80232 0.0
H3153 H 0.52265 0.51388 0.82879 0.0
C3154 C 0.4703 0.51449 0.81629 0.0
C3155 C 0.50092 0.5147 0.80687 0.0
C3156 C 0.51409 0.51575 0.79259 0.0
C3157 C 0.47742 0.51401 0.83463 0.0
C3158 C 0.49649 0.51375 0.8391 0.0
C3159 C 0.50801 0.51404 0.82522 0.0
C3160 C 0.50457 0.51272 0.85812 0.0
C3161 C 0.46445 0.51331 0.84907 0.0
C3162 C 0.50662 0.52744 0.87132 0.0
C3163 C 0.51373 0.52617 0.88944 0.0
C3164 C 0.51887 0.51012 0.89465 0.0
C3165 C 0.51693 0.49547 0.88126 0.0
C3166 C 0.50992 0.4968 0.86314 0.0
H3167 H 0.44956 0.5106 0.843 0.0
H3168 H 0.46651 0.50265 0.85824 0.0
H3169 H 0.46764 0.52648 0.85758 0.0
H3170 H 0.50272 0.5399 0.8676 0.0
H3171 H 0.51534 0.5378 0.89933 0.0
H3172 H 0.82233 0.21991 0.07026 0.0
H3173 H 0.82935 0.22939 0.1032 0.0
H3174 H 0.77501 0.24257 0.10281 0.0
H3175 H 0.76836 0.23406 0.07001 0.0
H3176 H 0.79918 0.26768 0.12234 0.0
H3177 H 0.81199 0.20213 0.14429 0.0
H3178 H 0.82754 0.21174 0.12891 0.0
H3179 H 0.80296 0.20465 0.12109 0.0
C3180 C 0.81195 0.22492 0.07723 0.0
C3181 C 0.7948 0.22624 0.06749 0.0
C3182 C 0.81589 0.23016 0.09611 0.0
C3183 C 0.80257 0.23636 0.10567 0.0
C3184 C 0.78555 0.23783 0.09585 0.0
H3185 H 0.79114 0.24124 0.22088 0.0
H3186 H 0.79234 0.23218 0.18862 0.0
C3187 C 0.78176 0.23296 0.07702 0.0
C3188 C 0.80616 0.2417 0.12579 0.0
H3189 H 0.81704 0.22651 0.1674 0.0
C3190 C 0.80311 0.25865 0.13217 0.0
C3191 C 0.81107 0.22988 0.13871 0.0
C3192 C 0.8134 0.21102 0.13295 0.0
C3193 C 0.80436 0.26394 0.15094 0.0
C3194 C 0.80975 0.25234 0.16389 0.0
C3195 C 0.81313 0.2355 0.15754 0.0
C3196 C 0.81085 0.25702 0.18399 0.0
C3197 C 0.79896 0.28156 0.15658 0.0
C3198 C 0.82146 0.27366 0.19242 0.0
C3199 C 0.82042 0.27901 0.21072 0.0
C3200 C 0.80929 0.26756 0.22116 0.0
C3201 C 0.79986 0.25032 0.21317 0.0
C3202 C 0.80053 0.24516 0.19472 0.0
H3203 H 0.78998 0.28592 0.14534 0.0
H3204 H 0.79135 0.28042 0.16872 0.0
H3205 H 0.81174 0.29234 0.16003 0.0
H3206 H 0.83011 0.28277 0.1847 0.0
H3207 H 0.82804 0.29228 0.2166 0.0
H3208 H 0.07956 0.46577 0.29704 0.0
H3209 H 0.08696 0.46779 0.3301 0.0
H3210 H 0.14434 0.46658 0.32471 0.0
H3211 H 0.1371 0.46494 0.29133 0.0
H3212 H 0.10404 0.45042 0.3577 0.0
H3213 H 0.14727 0.51778 0.34829 0.0
H3214 H 0.13223 0.5043 0.32925 0.0
H3215 H 0.15309 0.49751 0.33856 0.0
C3216 C 0.09366 0.46546 0.3028 0.0
C3217 C 0.10785 0.46573 0.29163 0.0
C3218 C 0.09787 0.46649 0.32174 0.0
C3219 C 0.1163 0.46777 0.32983 0.0
C3220 C 0.13011 0.46595 0.31869 0.0
H3221 H 0.10239 0.506 0.44129 0.0
H3222 H 0.11968 0.49112 0.42055 0.0
C3223 C 0.12591 0.46494 0.29964 0.0
C3224 C 0.12096 0.47427 0.34946 0.0
H3225 H 0.13413 0.51485 0.37538 0.0
C3226 C 0.11126 0.46428 0.36194 0.0
C3227 C 0.13055 0.49233 0.35489 0.0
C3228 C 0.14138 0.50371 0.34212 0.0
C3229 C 0.10868 0.47261 0.37873 0.0
C3230 C 0.11633 0.49129 0.3831 0.0
C3231 C 0.12818 0.50057 0.37178 0.0
C3232 C 0.10859 0.50214 0.39645 0.0
C3233 C 0.09606 0.46196 0.39063 0.0
C3234 C 0.09729 0.51381 0.38983 0.0
C3235 C 0.08745 0.52229 0.40155 0.0
C3236 C 0.08873 0.5192 0.42011 0.0
C3237 C 0.10089 0.50831 0.42694 0.0
C3238 C 0.1108 0.49986 0.41517 0.0
H3239 H 0.09047 0.44776 0.38471 0.0
H3240 H 0.1039 0.4617 0.40432 0.0
H3241 H 0.08414 0.46853 0.39256 0.0
H3242 H 0.09537 0.51568 0.37537 0.0
H3243 H 0.07813 0.53049 0.39589 0.0
H3244 H 0.78207 0.8413 0.56697 0.0
H3245 H 0.78152 0.82997 0.59698 0.0
H3246 H 0.77526 0.88192 0.62004 0.0
H3247 H 0.77508 0.89317 0.58948 0.0
H3248 H 0.80318 0.8359 0.62623 0.0
H3249 H 0.73913 0.85377 0.64743 0.0
H3250 H 0.74481 0.85577 0.62446 0.0
H3251 H 0.75552 0.87316 0.64258 0.0
C3252 C 0.78019 0.85037 0.57828 0.0
C3253 C 0.77838 0.86826 0.57529 0.0
C3254 C 0.78002 0.84379 0.59576 0.0
C3255 C 0.77818 0.85472 0.61145 0.0
C3256 C 0.77616 0.87266 0.60853 0.0
H3257 H 0.78848 0.83273 0.73034 0.0
H3258 H 0.78627 0.84703 0.70142 0.0
C3259 C 0.7761 0.87923 0.59082 0.0
C3260 C 0.7793 0.8473 0.6305 0.0
H3261 H 0.75851 0.84286 0.6701 0.0
C3262 C 0.79322 0.83745 0.63562 0.0
C3263 C 0.76663 0.84906 0.64345 0.0
C3264 C 0.75057 0.85835 0.63918 0.0
C3265 C 0.79481 0.82962 0.65261 0.0
C3266 C 0.7821 0.83127 0.66545 0.0
C3267 C 0.76838 0.84138 0.66059 0.0
C3268 C 0.78272 0.82233 0.6836 0.0
C3269 C 0.81052 0.81985 0.6568 0.0
C3270 C 0.78114 0.80344 0.68391 0.0
C3271 C 0.78223 0.79514 0.70057 0.0
C3272 C 0.78503 0.8053 0.71786 0.0
C3273 C 0.78634 0.82421 0.71757 0.0
C3274 C 0.78505 0.8325 0.70084 0.0
H3275 H 0.82194 0.82396 0.64839 0.0
H3276 H 0.81641 0.82245 0.67149 0.0
H3277 H 0.80511 0.80507 0.65366 0.0
H3278 H 0.77901 0.79493 0.67113 0.0
H3279 H 0.78114 0.78063 0.69983 0.0
H3280 H 0.76388 0.42922 0.49581 0.0
H3281 H 0.74198 0.44846 0.50245 0.0
H3282 H 0.73964 0.42894 0.5558 0.0
H3283 H 0.76121 0.40939 0.54916 0.0
H3284 H 0.70521 0.42975 0.53884 0.0
H3285 H 0.75347 0.49535 0.53563 0.0
H3286 H 0.75068 0.48025 0.51521 0.0
H3287 H 0.76132 0.47427 0.53644 0.0
C3288 C 0.75872 0.42902 0.50897 0.0
C3289 C 0.76437 0.41781 0.52198 0.0
C3290 C 0.74629 0.44013 0.51279 0.0
C3291 C 0.73944 0.44042 0.52976 0.0
C3292 C 0.74483 0.42903 0.54265 0.0
H3293 H 0.68258 0.52202 0.57239 0.0
H3294 H 0.70476 0.50256 0.56724 0.0
C3295 C 0.75717 0.41786 0.53882 0.0
C3296 C 0.72638 0.4523 0.53398 0.0
H3297 H 0.72158 0.49635 0.53698 0.0
C3298 C 0.70882 0.44432 0.53851 0.0
C3299 C 0.73121 0.47135 0.53385 0.0
C3300 C 0.75026 0.48086 0.53021 0.0
C3301 C 0.69581 0.45481 0.54253 0.0
C3302 C 0.70034 0.47377 0.54162 0.0
C3303 C 0.71805 0.4818 0.53749 0.0
C3304 C 0.68686 0.48549 0.5448 0.0
C3305 C 0.67746 0.44549 0.54798 0.0
C3306 C 0.66955 0.48254 0.53374 0.0
C3307 C 0.65688 0.49359 0.53668 0.0
C3308 C 0.66131 0.50797 0.55063 0.0
C3309 C 0.67878 0.5111 0.5615 0.0
C3310 C 0.69144 0.49997 0.5586 0.0
H3311 H 0.67836 0.43222 0.5532 0.0
H3312 H 0.67286 0.45401 0.55867 0.0
H3313 H 0.66664 0.44293 0.53581 0.0
H3314 H 0.66592 0.47179 0.52268 0.0
H3315 H 0.64371 0.49105 0.5278 0.0
H3316 H 0.24258 0.14455 0.49315 0.0
H3317 H 0.21257 0.12521 0.4954 0.0
H3318 H 0.24024 0.08887 0.52502 0.0
H3319 H 0.27078 0.10865 0.52304 0.0
H3320 H 0.19552 0.09162 0.48359 0.0
H3321 H 0.20328 0.09692 0.55944 0.0
H3322 H 0.21939 0.11086 0.54702 0.0
H3323 H 0.22098 0.08774 0.54957 0.0
C3324 C 0.24249 0.1324 0.5001 0.0
C3325 C 0.25945 0.1284 0.50796 0.0
C3326 C 0.22509 0.12123 0.50137 0.0
C3327 C 0.22367 0.10554 0.5107 0.0
C3328 C 0.2406 0.10104 0.51808 0.0
H3329 H 0.11218 0.02956 0.50111 0.0
H3330 H 0.1449 0.0429 0.49864 0.0
C3331 C 0.25822 0.11228 0.51672 0.0
C3332 C 0.20444 0.09439 0.5126 0.0
H3333 H 0.17536 0.07879 0.54391 0.0
C3334 C 0.19125 0.08873 0.49682 0.0
C3335 C 0.19834 0.09067 0.52979 0.0
C3336 C 0.21112 0.09697 0.54746 0.0
C3337 C 0.17257 0.07979 0.49771 0.0
C3338 C 0.16652 0.0759 0.51488 0.0
C3339 C 0.17972 0.08148 0.53066 0.0
C3340 C 0.14646 0.06701 0.51684 0.0
C3341 C 0.15927 0.07527 0.48015 0.0
C3342 C 0.1361 0.07549 0.52836 0.0
C3343 C 0.11733 0.06775 0.52991 0.0
C3344 C 0.10809 0.0511 0.52011 0.0
C3345 C 0.11857 0.04238 0.50887 0.0
C3346 C 0.1374 0.05016 0.50731 0.0
H3347 H 0.16444 0.08333 0.46908 0.0
H3348 H 0.15777 0.06074 0.47547 0.0
H3349 H 0.14526 0.07774 0.4822 0.0
H3350 H 0.14245 0.08839 0.536 0.0
H3351 H 0.10998 0.07503 0.53875 0.0
H3352 H 0.22721 0.01388 0.85917 0.0
H3353 H 0.24561 0.99209 0.84975 0.0
H3354 H 0.21779 0.98757 0.79451 0.0
H3355 H 0.19932 0.00934 0.80374 0.0
H3356 H 0.2304 0.95556 0.83282 0.0
H3357 H 0.27462 0.99793 0.78934 0.0
H3358 H 0.26254 0.00748 0.80627 0.0
H3359 H 0.24996 0.997 0.78471 0.0
C3360 C 0.22506 0.00833 0.84499 0.0
C3361 C 0.21181 0.01335 0.8322 0.0
C3362 C 0.23558 0.99589 0.83965 0.0
C3363 C 0.23319 0.98843 0.82141 0.0
C3364 C 0.22003 0.99342 0.80859 0.0
H3365 H 0.27741 0.90833 0.76104 0.0
H3366 H 0.2623 0.93274 0.77085 0.0
C3367 C 0.20942 1.00577 0.81393 0.0
C3368 C 0.24389 0.97482 0.81594 0.0
H3369 H 0.27632 0.96694 0.78863 0.0
C3370 C 0.24054 0.95805 0.82326 0.0
C3371 C 0.25698 0.97815 0.80339 0.0
C3372 C 0.26141 0.99616 0.79554 0.0
C3373 C 0.24967 0.9443 0.81804 0.0
C3374 C 0.26284 0.94763 0.80551 0.0
C3375 C 0.26625 0.96446 0.79826 0.0
C3376 C 0.27295 0.93366 0.79953 0.0
C3377 C 0.24469 0.92617 0.82556 0.0
C3378 C 0.28435 0.92646 0.81233 0.0
C3379 C 0.29294 0.91251 0.80677 0.0
C3380 C 0.29048 0.90567 0.78827 0.0
C3381 C 0.27966 0.91341 0.77537 0.0
C3382 C 0.27098 0.92729 0.78096 0.0
H3383 H 0.23103 0.92432 0.83093 0.0
H3384 H 0.24411 0.91491 0.81491 0.0
H3385 H 0.25549 0.92527 0.83702 0.0
H3386 H 0.28645 0.93151 0.82666 0.0
H3387 H 0.30145 0.907 0.81697 0.0
H3388 H 0.34792 0.92943 0.04121 0.0
H3389 H 0.37485 0.95461 0.04251 0.0
H3390 H 0.40815 0.91726 0.02532 0.0
H3391 H 0.38168 0.89212 0.02457 0.0
H3392 H 0.42662 0.94034 0.05335 0.0
H3393 H 0.3962 0.9785 1.00024 0.0
H3394 H 0.38318 0.97463 0.0192 0.0
H3395 H 0.38529 0.95577 0.00399 0.0
C3396 C 0.36098 0.92662 0.03766 0.0
C3397 C 0.36265 0.90877 0.03278 0.0
C3398 C 0.37633 0.94104 0.03831 0.0
C3399 C 0.39347 0.93787 0.03378 0.0
C3400 C 0.39509 0.92005 0.0289 0.0
H3401 H 0.48711 1.00166 0.99619 0.0
H3402 H 0.45695 0.98407 0.00108 0.0
C3403 C 0.3799 0.90568 0.02845 0.0
C3404 C 0.40999 0.95285 0.0343 0.0
H3405 H 0.42671 0.99117 0.01444 0.0
C3406 C 0.42662 0.95154 0.04495 0.0
C3407 C 0.40997 0.9674 0.02324 0.0
C3408 C 0.39277 0.96915 0.01089 0.0
C3409 C 0.44339 0.96392 0.04434 0.0
C3410 C 0.44342 0.97844 0.03322 0.0
C3411 C 0.42664 0.98013 0.02307 0.0
C3412 C 0.46101 0.9908 0.03043 0.0
C3413 C 0.46107 0.96069 0.05482 0.0
C3414 C 0.47317 1.00093 0.04524 0.0
C3415 C 0.49064 0.01084 0.04252 0.0
C3416 C 0.49609 0.01107 0.02488 0.0
C3417 C 0.48341 1.00177 0.00997 0.0
C3418 C 0.46611 0.99171 0.01274 0.0
H3419 H 0.45932 0.94672 0.05908 0.0
H3420 H 0.47278 0.96294 0.04648 0.0
H3421 H 0.46493 0.97025 0.06738 0.0
H3422 H 0.46933 1.00083 0.05895 0.0
H3423 H 0.5 0.01801 0.05426 0.0
H3424 H 0.93205 0.58749 0.77755 0.0
H3425 H 0.90325 0.59839 0.77016 0.0
H3426 H 0.9354 0.6519 0.76644 0.0
H3427 H 0.96427 0.6412 0.77401 0.0
H3428 H 0.90654 0.65127 0.78796 0.0
H3429 H 0.88126 0.61181 0.72045 0.0
H3430 H 0.88676 0.5986 0.73883 0.0
H3431 H 0.90501 0.61477 0.73133 0.0
C3432 C 0.93301 0.60157 0.77508 0.0
C3433 C 0.95046 0.61349 0.77638 0.0
C3434 C 0.91654 0.60773 0.77074 0.0
C3435 C 0.91722 0.62588 0.76752 0.0
C3436 C 0.9346 0.63781 0.7688 0.0
H3437 H 0.83311 0.6814 0.72377 0.0
H3438 H 0.85874 0.6654 0.72845 0.0
C3439 C 0.95107 0.63167 0.77313 0.0
C3440 C 0.89984 0.63269 0.76359 0.0
H3441 H 0.86064 0.6284 0.73275 0.0
C3442 C 0.89649 0.64627 0.77591 0.0
C3443 C 0.88686 0.62622 0.74777 0.0
C3444 C 0.89016 0.61215 0.73372 0.0
C3445 C 0.88046 0.65354 0.77287 0.0
C3446 C 0.86729 0.64682 0.75724 0.0
C3447 C 0.87067 0.63332 0.74484 0.0
C3448 C 0.8504 0.65437 0.75318 0.0
C3449 C 0.87798 0.66865 0.78619 0.0
C3450 C 0.83685 0.65287 0.76517 0.0
C3451 C 0.82214 0.66194 0.76251 0.0
C3452 C 0.82069 0.67259 0.74775 0.0
C3453 C 0.83371 0.67318 0.73517 0.0
C3454 C 0.84842 0.66412 0.73786 0.0
H3455 H 0.89118 0.67488 0.79513 0.0
H3456 H 0.87288 0.67938 0.77881 0.0
H3457 H 0.86746 0.66318 0.79508 0.0
H3458 H 0.83796 0.64512 0.77689 0.0
H3459 H 0.81216 0.661 0.77226 0.0
H3460 H 0.87753 0.63104 0.97941 0.0
H3461 H 0.90291 0.61486 0.98282 0.0
H3462 H 0.89328 0.60671 0.03832 0.0
H3463 H 0.86721 0.62273 0.03476 0.0
H3464 H 0.93513 0.62003 0.00084 0.0
H3465 H 0.89826 0.5567 0.02449 0.0
H3466 H 0.88607 0.57359 0.01626 0.0
H3467 H 0.89781 0.57633 0.03936 0.0
C3468 C 0.88054 0.62577 0.99243 0.0
C3469 C 0.86976 0.62841 0.00673 0.0
C3470 C 0.89539 0.61639 0.99439 0.0
C3471 C 0.90047 0.60896 0.01077 0.0
C3472 C 0.8898 0.61162 0.02523 0.0
H3473 H 1.01289 0.57886 0.02896 0.0
H3474 H 0.98651 0.59405 0.02835 0.0
C3475 C 0.87476 0.62104 0.02324 0.0
C3476 C 0.91707 0.5991 0.01243 0.0
H3477 H 0.93101 0.56016 0.02504 0.0
C3478 C 0.93403 0.60694 0.00619 0.0
C3479 C 0.91626 0.58171 0.01907 0.0
C3480 C 0.89859 0.57147 0.02501 0.0
C3481 C 0.94965 0.59834 0.00647 0.0
C3482 C 0.94907 0.58123 0.01363 0.0
C3483 C 0.93205 0.57326 0.0197 0.0
C3484 C 0.96567 0.57139 0.01462 0.0
C3485 C 0.96647 0.60762 0.99835 0.0
C3486 C 0.96347 0.553 0.00786 0.0
C3487 C 0.97881 0.54405 0.0084 0.0
C3488 C 0.99716 0.55299 0.01585 0.0
C3489 C 0.99927 0.57127 0.02291 0.0
C3490 C 0.98396 0.58017 0.02241 0.0
H3491 H 0.96271 0.61704 0.98835 0.0
H3492 H 0.97681 0.61571 0.00944 0.0
H3493 H 0.97315 0.59766 0.99132 0.0
H3494 H 0.94981 0.54549 0.00183 0.0
H3495 H 0.97623 0.53004 0.00282 0.0
H3496 H 0.22431 0.08537 0.83028 0.0
H3497 H 0.24855 0.11018 0.82329 0.0
H3498 H 0.21698 0.14882 0.84128 0.0
H3499 H 0.19313 0.12436 0.84872 0.0
H3500 H 0.24376 0.13261 0.79803 0.0
H3501 H 0.26827 0.17364 0.86399 0.0
H3502 H 0.25488 0.15075 0.86254 0.0
H3503 H 0.24333 0.16947 0.8598 0.0
C3504 C 0.22278 0.09919 0.83317 0.0
C3505 C 0.20674 0.10288 0.84 0.0
C3506 C 0.23663 0.11334 0.82914 0.0
C3507 C 0.23472 0.13138 0.83199 0.0
C3508 C 0.21905 0.13507 0.83943 0.0
H3509 H 0.25798 0.22044 0.77004 0.0
H3510 H 0.24772 0.19148 0.7822 0.0
C3511 C 0.20529 0.121 0.84353 0.0
C3512 C 0.24771 0.14627 0.82523 0.0
H3513 H 0.27045 0.19011 0.83676 0.0
C3514 C 0.24997 0.14505 0.8066 0.0
C3515 C 0.25616 0.16238 0.83643 0.0
C3516 C 0.2557 0.16404 0.85684 0.0
C3517 C 0.25924 0.15995 0.7986 0.0
C3518 C 0.26595 0.17663 0.80944 0.0
C3519 C 0.26495 0.17744 0.82834 0.0
C3520 C 0.27283 0.19366 0.8013 0.0
C3521 C 0.26144 0.15771 0.77856 0.0
C3522 C 0.29014 0.20477 0.80831 0.0
C3523 C 0.29589 0.22151 0.8016 0.0
C3524 C 0.28443 0.22743 0.78774 0.0
C3525 C 0.26721 0.21618 0.78059 0.0
C3526 C 0.2614 0.19954 0.78743 0.0
H3527 H 0.26205 0.14351 0.7742 0.0
H3528 H 0.24918 0.16093 0.77031 0.0
H3529 H 0.27424 0.16682 0.77547 0.0
H3530 H 0.29912 0.20056 0.8191 0.0
H3531 H 0.30926 0.22985 0.80738 0.0
H3532 H 0.48573 0.03873 0.31424 0.0
H3533 H 0.46921 0.0071 0.31188 0.0
H3534 H 0.4168 0.02429 0.31136 0.0
H3535 H 0.43317 0.05592 0.31335 0.0
H3536 H 0.44651 0.98849 0.33414 0.0
H3537 H 0.40747 0.98907 0.26553 0.0
H3538 H 0.42682 0.007 0.27522 0.0
H3539 H 0.40401 0.00633 0.2819 0.0
C3540 C 0.4707 0.03579 0.31369 0.0
C3541 C 0.46073 0.04981 0.31385 0.0
C3542 C 0.46128 0.01771 0.31232 0.0
C3543 C 0.44175 0.01334 0.31106 0.0
C3544 C 0.43183 0.02734 0.31183 0.0
H3545 H 0.36976 0.91443 0.33043 0.0
H3546 H 0.38994 0.94436 0.33206 0.0
C3547 C 0.44122 0.04541 0.3131 0.0
C3548 C 0.43175 0.99416 0.30904 0.0
H3549 H 0.39752 0.96353 0.28188 0.0
C3550 C 0.43589 0.98298 0.32265 0.0
C3551 C 0.41817 0.9869 0.29386 0.0
C3552 C 0.41396 0.99789 0.2782 0.0
C3553 C 0.42635 0.96489 0.3218 0.0
C3554 C 0.41205 0.95794 0.30714 0.0
C3555 C 0.40836 0.96894 0.29321 0.0
C3556 C 0.40027 0.93953 0.30629 0.0
C3557 C 0.43175 0.95338 0.33657 0.0
C3558 C 0.39902 0.927 0.29103 0.0
C3559 C 0.38722 0.90993 0.2899 0.0
C3560 C 0.37635 0.90515 0.30396 0.0
C3561 C 0.37774 0.91775 0.31925 0.0
C3562 C 0.38949 0.93478 0.32034 0.0
H3563 H 0.44628 0.95868 0.34326 0.0
H3564 H 0.42234 0.95354 0.34725 0.0
H3565 H 0.43049 0.93913 0.33097 0.0
H3566 H 0.40711 0.93048 0.27995 0.0
H3567 H 0.38632 0.90063 0.27786 0.0
H3568 H 0.58846 0.38144 0.64711 0.0
H3569 H 0.5771 0.40545 0.6319 0.0
H3570 H 0.60835 0.39713 0.58725 0.0
H3571 H 0.62023 0.37329 0.60264 0.0
H3572 H 0.61173 0.43272 0.59803 0.0
H3573 H 0.53722 0.3984 0.58811 0.0
H3574 H 0.54733 0.40046 0.61163 0.0
H3575 H 0.55572 0.38682 0.59482 0.0
C3576 C 0.59296 0.3847 0.63406 0.0
C3577 C 0.60516 0.37539 0.62601 0.0
C3578 C 0.58632 0.39833 0.62533 0.0
C3579 C 0.59152 0.40272 0.60826 0.0
C3580 C 0.60405 0.39379 0.60036 0.0
H3581 H 0.53831 0.47206 0.53952 0.0
H3582 H 0.54834 0.44602 0.55219 0.0
C3583 C 0.61084 0.38021 0.60917 0.0
C3584 C 0.58416 0.41697 0.59892 0.0
H3585 H 0.54374 0.43011 0.58422 0.0
C3586 C 0.59687 0.43209 0.59485 0.0
C3587 C 0.56478 0.41592 0.59448 0.0
C3588 C 0.55048 0.39943 0.5973 0.0
C3589 C 0.59069 0.44655 0.58705 0.0
C3590 C 0.57131 0.446 0.58372 0.0
C3591 C 0.55859 0.43059 0.58713 0.0
C3592 C 0.564 0.46139 0.57679 0.0
C3593 C 0.60498 0.46222 0.58237 0.0
C3594 C 0.56887 0.47843 0.58682 0.0
C3595 C 0.56323 0.4933 0.57963 0.0
C3596 C 0.55243 0.49132 0.56237 0.0
C3597 C 0.54662 0.47401 0.55285 0.0
C3598 C 0.55239 0.45914 0.56002 0.0
H3599 H 0.61845 0.45823 0.58074 0.0
H3600 H 0.59994 0.46758 0.56954 0.0
H3601 H 0.60765 0.47328 0.59361 0.0
H3602 H 0.5774 0.4803 0.60003 0.0
H3603 H 0.56778 0.50644 0.58737 0.0
H3604 H 0.50076 0.75366 0.3381 0.0
H3605 H 0.48582 0.76774 0.31319 0.0
H3606 H 0.43398 0.73005 0.31461 0.0
H3607 H 0.44863 0.71601 0.33954 0.0
H3608 H 0.44598 0.74223 0.27647 0.0
H3609 H 0.4446 0.7959 0.3318 0.0
H3610 H 0.46587 0.78838 0.32879 0.0
H3611 H 0.44739 0.77373 0.33758 0.0
C3612 C 0.48631 0.74803 0.33275 0.0
C3613 C 0.47575 0.7339 0.34096 0.0
C3614 C 0.47786 0.75609 0.31852 0.0
C3615 C 0.45885 0.74994 0.31221 0.0
C3616 C 0.44872 0.73489 0.31931 0.0
H3617 H 0.35607 0.75078 0.2709 0.0
H3618 H 0.38814 0.74742 0.27409 0.0
C3619 C 0.45707 0.72696 0.33362 0.0
C3620 C 0.44849 0.76066 0.3006 0.0
H3621 H 0.42241 0.79257 0.30587 0.0
C3622 C 0.44123 0.75365 0.2826 0.0
C3623 C 0.44269 0.77579 0.30852 0.0
C3624 C 0.45048 0.78401 0.32773 0.0
C3625 C 0.42689 0.7603 0.27296 0.0
C3626 C 0.41924 0.77371 0.28191 0.0
C3627 C 0.42808 0.78214 0.29905 0.0
C3628 C 0.40007 0.77617 0.27602 0.0
C3629 C 0.41939 0.75215 0.25371 0.0
C3630 C 0.39588 0.79351 0.27618 0.0
C3631 C 0.37731 0.79551 0.27479 0.0
C3632 C 0.3627 0.78019 0.27332 0.0
C3633 C 0.36695 0.76289 0.27213 0.0
C3634 C 0.38539 0.76092 0.27362 0.0
H3635 H 0.43094 0.74947 0.24621 0.0
H3636 H 0.40978 0.73895 0.25417 0.0
H3637 H 0.41178 0.76113 0.24598 0.0
H3638 H 0.40698 0.80548 0.27824 0.0
H3639 H 0.37447 0.80903 0.27567 0.0
H3640 H 0.13678 0.79946 0.10211 0.0
H3641 H 0.13539 0.77011 0.08515 0.0
H3642 H 0.07877 0.75207 0.09595 0.0
H3643 H 0.08 0.78119 0.1129 0.0
H3644 H 0.12781 0.73698 0.10237 0.0
H3645 H 0.07709 0.7362 0.0407 0.0
H3646 H 0.08961 0.7569 0.05391 0.0
H3647 H 0.0695 0.74354 0.06169 0.0
C3648 C 0.12392 0.78936 0.10058 0.0
C3649 C 0.10852 0.7926 0.10892 0.0
C3650 C 0.12316 0.77263 0.09089 0.0
C3651 C 0.10691 0.75907 0.08914 0.0
C3652 C 0.09132 0.76251 0.09688 0.0
H3653 H 0.06389 0.64717 0.06556 0.0
H3654 H 0.07035 0.68019 0.0706 0.0
C3655 C 0.09211 0.77911 0.10669 0.0
C3656 C 0.10674 0.74062 0.08111 0.0
H3657 H 0.08232 0.70734 0.04896 0.0
C3658 C 0.11816 0.73053 0.09046 0.0
C3659 C 0.09406 0.73236 0.06565 0.0
C3660 C 0.08197 0.74284 0.05478 0.0
C3661 C 0.11642 0.71201 0.08546 0.0
C3662 C 0.1032 0.70354 0.0704 0.0
C3663 C 0.09241 0.71387 0.06051 0.0
C3664 C 0.0992 0.6837 0.06578 0.0
C3665 C 0.12791 0.70149 0.09704 0.0
C3666 C 0.11317 0.67478 0.06101 0.0
C3667 C 0.10955 0.65589 0.05828 0.0
C3668 C 0.09181 0.64568 0.06 0.0
C3669 C 0.07765 0.65471 0.06404 0.0
C3670 C 0.08132 0.67355 0.06693 0.0
H3671 H 0.13433 0.70921 0.11034 0.0
H3672 H 0.11925 0.68845 0.09983 0.0
H3673 H 0.13933 0.69845 0.08959 0.0
H3674 H 0.12694 0.6824 0.05966 0.0
H3675 H 0.12062 0.64926 0.05489 0.0
H3676 H 0.08001 0.24376 0.85989 0.0
H3677 H 0.10528 0.2592 0.84445 0.0
H3678 H 0.07613 0.30255 0.83542 0.0
H3679 H 0.05057 0.28705 0.85069 0.0
H3680 H 0.08797 0.28967 0.80428 0.0
H3681 H 0.14611 0.30384 0.86091 0.0
H3682 H 0.13428 0.28054 0.85883 0.0
H3683 H 0.12198 0.29799 0.86474 0.0
C3684 C 0.07904 0.25667 0.85481 0.0
C3685 C 0.06328 0.26417 0.85651 0.0
C3686 C 0.09357 0.26556 0.84613 0.0
C3687 C 0.09272 0.28218 0.8391 0.0
C3688 C 0.07711 0.28982 0.84092 0.0
H3689 H 0.19392 0.32349 0.79029 0.0
H3690 H 0.16729 0.32563 0.80678 0.0
C3691 C 0.06254 0.28092 0.84963 0.0
C3692 C 0.10749 0.29064 0.82858 0.0
H3693 H 0.15477 0.30154 0.83023 0.0
C3694 C 0.10257 0.29268 0.81003 0.0
C3695 C 0.12648 0.295 0.83619 0.0
C3696 C 0.1325 0.29442 0.85632 0.0
C3697 C 0.11627 0.29745 0.79854 0.0
C3698 C 0.13529 0.2999 0.80576 0.0
C3699 C 0.14017 0.29942 0.82463 0.0
C3700 C 0.15012 0.3004 0.7938 0.0
C3701 C 0.11022 0.29918 0.77864 0.0
C3702 C 0.14918 0.28563 0.78093 0.0
C3703 C 0.16433 0.28431 0.77163 0.0
C3704 C 0.18082 0.29769 0.77509 0.0
C3705 C 0.18147 0.31289 0.78744 0.0
C3706 C 0.16625 0.31418 0.79679 0.0
H3707 H 0.09674 0.3037 0.77685 0.0
H3708 H 0.12084 0.30889 0.77279 0.0
H3709 H 0.10815 0.28574 0.77077 0.0
H3710 H 0.13711 0.27456 0.7788 0.0
H3711 H 0.16346 0.27222 0.76255 0.0
H3712 H 0.54174 0.72825 0.95885 0.0
H3713 H 0.54165 0.69864 0.96973 0.0
H3714 H 0.56457 0.68242 0.92172 0.0
H3715 H 0.56519 0.71265 0.91094 0.0
H3716 H 0.52402 0.66679 0.96034 0.0
H3717 H 0.59689 0.66101 0.95585 0.0
H3718 H 0.58918 0.68188 0.95271 0.0
H3719 H 0.58478 0.66412 0.93422 0.0
C3720 C 0.54706 0.71859 0.95053 0.0
C3721 C 0.55364 0.72348 0.93387 0.0
C3722 C 0.54689 0.70129 0.95686 0.0
C3723 C 0.55327 0.6876 0.94698 0.0
C3724 C 0.55997 0.69239 0.93027 0.0
H3725 H 0.55339 0.57134 0.96815 0.0
H3726 H 0.55524 0.60039 0.95466 0.0
C3727 C 0.56027 0.70993 0.92393 0.0
C3728 C 0.55209 0.66857 0.9541 0.0
H3729 H 0.57648 0.63475 0.96289 0.0
C3730 C 0.53567 0.66001 0.96089 0.0
C3731 C 0.56694 0.65892 0.95507 0.0
C3732 C 0.5855 0.66699 0.94926 0.0
C3733 C 0.53367 0.64281 0.9682 0.0
C3734 C 0.54855 0.63326 0.96931 0.0
C3735 C 0.56488 0.64161 0.96229 0.0
C3736 C 0.54745 0.61494 0.97781 0.0
C3737 C 0.5152 0.63481 0.97426 0.0
C3738 C 0.54265 0.61265 0.99566 0.0
C3739 C 0.54161 0.59585 0.00351 0.0
C3740 C 0.5453 0.58032 0.99396 0.0
C3741 C 0.55022 0.58261 0.97613 0.0
C3742 C 0.55138 0.59949 0.96833 0.0
H3743 H 0.5037 0.64052 0.96748 0.0
H3744 H 0.51166 0.61986 0.97124 0.0
H3745 H 0.51599 0.63807 0.98924 0.0
H3746 H 0.53993 0.62403 0.00383 0.0
H3747 H 0.538 0.59513 0.01727 0.0
H3748 H 0.08539 0.78418 0.70838 0.0
H3749 H 0.11768 0.78712 0.72196 0.0
H3750 H 0.13602 0.79748 0.66963 0.0
H3751 H 0.10345 0.79531 0.65614 0.0
H3752 H 0.14125 0.7681 0.71827 0.0
H3753 H 0.17526 0.83457 0.69883 0.0
H3754 H 0.15026 0.82696 0.69561 0.0
H3755 H 0.1641 0.81943 0.67922 0.0
C3756 C 0.09628 0.78753 0.69976 0.0
C3757 C 0.09152 0.78973 0.68109 0.0
C3758 C 0.11495 0.78907 0.70759 0.0
C3759 C 0.12988 0.79269 0.69713 0.0
C3760 C 0.12521 0.7952 0.67845 0.0
H3761 H 0.23715 0.76269 0.73786 0.0
H3762 H 0.20614 0.76351 0.7227 0.0
C3763 C 0.1064 0.79393 0.67062 0.0
C3764 C 0.14983 0.79273 0.70576 0.0
H3765 H 0.1955 0.81618 0.71105 0.0
C3766 C 0.153 0.77874 0.71665 0.0
C3767 C 0.16561 0.80658 0.70418 0.0
C3768 C 0.16366 0.82283 0.694 0.0
C3769 C 0.1709 0.77813 0.7257 0.0
C3770 C 0.18681 0.79154 0.72351 0.0
C3771 C 0.18367 0.80565 0.71276 0.0
C3772 C 0.20657 0.79128 0.7324 0.0
C3773 C 0.17228 0.76331 0.73812 0.0
C3774 C 0.21819 0.80678 0.74248 0.0
C3775 C 0.23635 0.80644 0.75097 0.0
C3776 C 0.24366 0.79055 0.7498 0.0
C3777 C 0.23215 0.77516 0.73947 0.0
C3778 C 0.21413 0.77558 0.73081 0.0
H3779 H 0.15877 0.75825 0.74321 0.0
H3780 H 0.17592 0.75172 0.73034 0.0
H3781 H 0.1831 0.76804 0.75013 0.0
H3782 H 0.21312 0.81921 0.74402 0.0
H3783 H 0.24462 0.81865 0.75864 0.0
H3784 H 0.07454 0.34251 0.41926 0.0
H3785 H 0.07581 0.3741 0.43129 0.0
H3786 H 0.04079 0.35487 0.4716 0.0
H3787 H 0.03946 0.32381 0.45982 0.0
H3788 H 0.0282 0.38181 0.45774 0.0
H3789 H 0.10445 0.40637 0.47521 0.0
H3790 H 0.09725 0.39762 0.45171 0.0
H3791 H 0.09403 0.38268 0.46951 0.0
C3792 C 0.06735 0.34494 0.43087 0.0
C3793 C 0.05698 0.33006 0.43841 0.0
C3794 C 0.06809 0.36323 0.43788 0.0
C3795 C 0.05849 0.36746 0.45272 0.0
C3796 C 0.04837 0.35256 0.46024 0.0
H3797 H 0.07076 0.47175 0.52281 0.0
H3798 H 0.07274 0.4416 0.50936 0.0
C3799 C 0.0477 0.33448 0.45338 0.0
C3800 C 0.05817 0.38699 0.46021 0.0
H3801 H 0.08571 0.42816 0.4786 0.0
C3802 C 0.04089 0.39186 0.46219 0.0
C3803 C 0.07448 0.40056 0.46649 0.0
C3804 C 0.09363 0.39659 0.46583 0.0
C3805 C 0.03946 0.40929 0.46985 0.0
C3806 C 0.05574 0.42298 0.47583 0.0
C3807 C 0.07305 0.4181 0.47405 0.0
C3808 C 0.05497 0.44213 0.48406 0.0
C3809 C 0.02029 0.41264 0.47197 0.0
C3810 C 0.0446 0.4533 0.47461 0.0
C3811 C 0.04349 0.47072 0.48234 0.0
C3812 C 0.05269 0.47797 0.49996 0.0
C3813 C 0.06332 0.46693 0.50933 0.0
C3814 C 0.06451 0.4495 0.50152 0.0
H3815 H 1.00994 0.39977 0.47185 0.0
H3816 H 0.02044 0.42109 0.48491 0.0
H3817 H 0.01554 0.41989 0.46036 0.0
H3818 H 0.03736 0.4486 0.46102 0.0
H3819 H 0.03526 0.47853 0.47438 0.0
H3820 H 0.47455 0.24906 0.17827 0.0
H3821 H 0.44643 0.25084 0.19194 0.0
H3822 H 0.45566 0.30799 0.18578 0.0
H3823 H 0.48363 0.30595 0.17106 0.0
H3824 H 0.43846 0.26351 0.22067 0.0
H3825 H 0.40235 0.29994 0.17052 0.0
H3826 H 0.42286 0.29173 0.16602 0.0
H3827 H 0.42497 0.31283 0.17983 0.0
C3828 C 0.47058 0.26208 0.17948 0.0
C3829 C 0.48174 0.2773 0.17315 0.0
C3830 C 0.45425 0.26311 0.18756 0.0
C3831 C 0.44804 0.2795 0.19008 0.0
C3832 C 0.45919 0.29487 0.18376 0.0
H3833 H 0.35686 0.3076 0.25047 0.0
H3834 H 0.38476 0.30791 0.23513 0.0
C3835 C 0.47552 0.29375 0.17529 0.0
C3836 C 0.43055 0.28015 0.19984 0.0
H3837 H 0.38962 0.29617 0.19847 0.0
C3838 C 0.42783 0.27061 0.21551 0.0
C3839 C 0.4161 0.28931 0.19374 0.0
C3840 C 0.41657 0.29887 0.17651 0.0
C3841 C 0.41187 0.27005 0.22493 0.0
C3842 C 0.39757 0.27928 0.2189 0.0
C3843 C 0.40029 0.28902 0.20342 0.0
C3844 C 0.37992 0.27896 0.22844 0.0
C3845 C 0.41066 0.25976 0.24167 0.0
C3846 C 0.36715 0.26266 0.23004 0.0
C3847 C 0.35086 0.26246 0.23878 0.0
C3848 C 0.3466 0.27853 0.24658 0.0
C3849 C 0.35941 0.29481 0.24498 0.0
C3850 C 0.37554 0.29503 0.236 0.0
H3851 H 0.42443 0.25718 0.24725 0.0
H3852 H 0.40522 0.26726 0.25258 0.0
H3853 H 0.40092 0.24649 0.23795 0.0
H3854 H 0.36961 0.24995 0.22425 0.0
H3855 H 0.34154 0.24958 0.23938 0.0
H3856 H 0.64875 0.51515 0.36766 0.0
H3857 H 0.63125 0.49812 0.38954 0.0
H3858 H 0.62706 0.54834 0.41847 0.0
H3859 H 0.64398 0.56532 0.39656 0.0
H3860 H 0.63473 0.49738 0.42818 0.0
H3861 H 0.57261 0.52278 0.40197 0.0
H3862 H 0.59288 0.52454 0.39008 0.0
H3863 H 0.59221 0.54118 0.40853 0.0
C3864 C 0.64438 0.52251 0.37892 0.0
C3865 C 0.64743 0.54154 0.38029 0.0
C3866 C 0.63436 0.51278 0.39133 0.0
C3867 C 0.62744 0.522 0.40525 0.0
C3868 C 0.63185 0.54099 0.40748 0.0
H3869 H 0.59756 0.51497 0.50698 0.0
H3870 H 0.61159 0.50899 0.47981 0.0
C3871 C 0.64159 0.55067 0.39502 0.0
C3872 C 0.61467 0.51221 0.41696 0.0
H3873 H 0.57364 0.51413 0.43295 0.0
C3874 C 0.62116 0.50064 0.42902 0.0
C3875 C 0.59664 0.51578 0.41748 0.0
C3876 C 0.58809 0.52658 0.40365 0.0
C3877 C 0.61082 0.49414 0.44291 0.0
C3878 C 0.59398 0.49992 0.44505 0.0
C3879 C 0.58667 0.50986 0.43168 0.0
C3880 C 0.58539 0.49875 0.46229 0.0
C3881 C 0.61836 0.4816 0.45539 0.0
C3882 C 0.56586 0.49485 0.4618 0.0
C3883 C 0.55772 0.499 0.47732 0.0
C3884 C 0.56898 0.50677 0.49366 0.0
C3885 C 0.58845 0.50897 0.49461 0.0
C3886 C 0.59656 0.50528 0.47903 0.0
H3887 H 0.62489 0.47205 0.44753 0.0
H3888 H 0.62944 0.48964 0.46589 0.0
H3889 H 0.60731 0.47367 0.46233 0.0
H3890 H 0.55691 0.48978 0.44908 0.0
H3891 H 0.54266 0.497 0.47625 0.0
H3892 H 0.31827 0.82263 0.07771 0.0
H3893 H 0.31486 0.8147 0.1088 0.0
H3894 H 0.29028 0.86093 0.11915 0.0
H3895 H 0.29357 0.86901 0.08787 0.0
H3896 H 0.3216 0.85704 0.14602 0.0
H3897 H 0.26653 0.7944 0.1315 0.0
H3898 H 0.2853 0.79544 0.11783 0.0
H3899 H 0.2702 0.81129 0.1154 0.0
C3900 C 0.31191 0.83102 0.08648 0.0
C3901 C 0.30617 0.84646 0.08027 0.0
C3902 C 0.30991 0.82641 0.10424 0.0
C3903 C 0.3022 0.83714 0.11622 0.0
C3904 C 0.29619 0.85242 0.11006 0.0
H3905 H 0.29999 0.82983 0.23463 0.0
H3906 H 0.29747 0.8405 0.20406 0.0
C3907 C 0.29801 0.85697 0.09217 0.0
C3908 C 0.30148 0.83283 0.13545 0.0
H3909 H 0.28371 0.79956 0.16136 0.0
C3910 C 0.31314 0.84461 0.14947 0.0
C3911 C 0.29049 0.81657 0.13984 0.0
C3912 C 0.27728 0.80373 0.12539 0.0
C3913 C 0.31474 0.84015 0.16768 0.0
C3914 C 0.30405 0.82365 0.17202 0.0
C3915 C 0.29196 0.81217 0.15804 0.0
C3916 C 0.30582 0.81756 0.19075 0.0
C3917 C 0.32849 0.85275 0.18192 0.0
C3918 C 0.31102 0.80097 0.19343 0.0
C3919 C 0.31227 0.79475 0.21081 0.0
C3920 C 0.30837 0.80499 0.22597 0.0
C3921 C 0.30327 0.82168 0.2233 0.0
C3922 C 0.3019 0.82784 0.20583 0.0
H3923 H 0.33879 0.86237 0.17559 0.0
H3924 H 0.32083 0.86078 0.19025 0.0
H3925 H 0.33615 0.84503 0.19124 0.0
H3926 H 0.3141 0.79279 0.18201 0.0
H3927 H 0.31624 0.78185 0.21232 0.0
H3928 H 0.06722 0.63213 0.8429 0.0
H3929 H 0.07573 0.63035 0.87562 0.0
H3930 H 0.01829 0.60769 0.88065 0.0
H3931 H 1.00957 0.60995 0.84814 0.0
H3932 H 0.03781 0.62848 0.91267 0.0
H3933 H 0.07622 0.57804 0.88566 0.0
H3934 H 0.08345 0.60085 0.88004 0.0
H3935 H 0.06066 0.58799 0.87089 0.0
C3936 C 0.05632 0.6273 0.85111 0.0
C3937 C 0.0378 0.62076 0.84291 0.0
C3938 C 0.06122 0.62628 0.86978 0.0
C3939 C 0.04773 0.61839 0.88037 0.0
C3940 C 0.02893 0.61371 0.87265 0.0
H3941 H 0.03466 0.5413 0.95337 0.0
H3942 H 0.03709 0.56166 0.92925 0.0
C3943 C 0.02397 0.61498 0.85404 0.0
C3944 C 0.0533 0.61209 0.89827 0.0
H3945 H 0.07301 0.57911 0.91669 0.0
C3946 C 0.04588 0.61799 0.91372 0.0
C3947 C 0.06368 0.59823 0.89947 0.0
C3948 C 0.07138 0.59076 0.88315 0.0
C3949 C 0.04779 0.60975 0.9301 0.0
C3950 C 0.05741 0.5954 0.93095 0.0
C3951 C 0.06576 0.59023 0.9159 0.0
C3952 C 0.05635 0.58357 0.94599 0.0
C3953 C 0.03847 0.61553 0.946 0.0
C3954 C 0.06659 0.58918 0.96331 0.0
C3955 C 0.0653 0.57749 0.97721 0.0
C3956 C 0.05372 0.56011 0.9739 0.0
C3957 C 0.04367 0.55459 0.95642 0.0
C3958 C 0.04502 0.5662 0.94261 0.0
H3959 H 0.03102 0.62659 0.94294 0.0
H3960 H 0.02835 0.6038 0.94962 0.0
H3961 H 0.04911 0.62027 0.95815 0.0
H3962 H 0.07552 0.60253 0.96604 0.0
H3963 H 0.07316 0.58216 0.99056 0.0
H3964 H 0.29995 0.21192 0.56164 0.0
H3965 H 0.29995 0.22297 0.59324 0.0
H3966 H 0.33752 0.18891 0.61099 0.0
H3967 H 0.33744 0.17735 0.57876 0.0
H3968 H 0.28791 0.20398 0.62217 0.0
H3969 H 0.36229 0.23803 0.64061 0.0
H3970 H 0.35183 0.23186 0.61711 0.0
H3971 H 0.35773 0.21481 0.63106 0.0
C3972 C 0.30845 0.20668 0.57206 0.0
C3973 C 0.31876 0.19355 0.56709 0.0
C3974 C 0.30835 0.21312 0.59042 0.0
C3975 C 0.31876 0.20707 0.60499 0.0
C3976 C 0.32946 0.19419 0.60026 0.0
H3977 H 0.33064 0.24278 0.72504 0.0
H3978 H 0.33401 0.22892 0.69486 0.0
C3979 C 0.32942 0.18749 0.58166 0.0
C3980 C 0.31755 0.21399 0.62477 0.0
H3981 H 0.34274 0.23901 0.66358 0.0
C3982 C 0.29999 0.21158 0.63118 0.0
C3983 C 0.33311 0.22392 0.63698 0.0
C3984 C 0.35233 0.22749 0.63118 0.0
C3985 C 0.29758 0.21854 0.64896 0.0
C3986 C 0.31302 0.22908 0.661 0.0
C3987 C 0.33069 0.2312 0.65471 0.0
C3988 C 0.31109 0.23799 0.6799 0.0
C3989 C 0.27837 0.21392 0.65474 0.0
C3990 C 0.29735 0.24831 0.68226 0.0
C3991 C 0.29524 0.25613 0.69971 0.0
C3992 C 0.30702 0.25437 0.7157 0.0
C3993 C 0.32114 0.24451 0.71332 0.0
C3994 C 0.32312 0.23652 0.69584 0.0
H3995 H 0.27011 0.20106 0.64729 0.0
H3996 H 0.27904 0.21254 0.66965 0.0
H3997 H 0.27076 0.22478 0.6514 0.0
H3998 H 0.28819 0.25052 0.6705 0.0
H3999 H 0.28434 0.26373 0.70061 0.0
H4000 H 0.64184 0.52981 0.28031 0.0
H4001 H 0.62229 0.52094 0.25078 0.0
H4002 H 0.5933 0.56409 0.2609 0.0
H4003 H 0.61252 0.57289 0.29057 0.0
H4004 H 0.56956 0.53104 0.24549 0.0
H4005 H 0.63007 0.55117 0.20728 0.0
H4006 H 0.63262 0.5349 0.22346 0.0
H4007 H 0.63116 0.55747 0.23145 0.0
C4008 C 0.63126 0.53738 0.2763 0.0
C4009 C 0.62888 0.5522 0.2877 0.0
C4010 C 0.62012 0.53229 0.25942 0.0
C4011 C 0.60656 0.54203 0.2536 0.0
C4012 C 0.60373 0.55644 0.26517 0.0
H4013 H 0.53834 0.55772 0.15809 0.0
H4014 H 0.55034 0.55385 0.18947 0.0
C4015 C 0.61479 0.56148 0.28208 0.0
C4016 C 0.59593 0.5379 0.23507 0.0
H4017 H 0.60098 0.53949 0.18987 0.0
C4018 C 0.5764 0.53273 0.23329 0.0
C4019 C 0.60494 0.54014 0.21923 0.0
C4020 C 0.62583 0.54636 0.22035 0.0
C4021 C 0.56559 0.52995 0.21601 0.0
C4022 C 0.57458 0.53265 0.20023 0.0
C4023 C 0.59413 0.5373 0.20201 0.0
C4024 C 0.5642 0.53232 0.18181 0.0
C4025 C 0.54467 0.52424 0.21481 0.0
C4026 C 0.56776 0.52131 0.16712 0.0
C4027 C 0.56116 0.52369 0.14917 0.0
C4028 C 0.55095 0.53719 0.14559 0.0
C4029 C 0.54633 0.54735 0.16041 0.0
C4030 C 0.55298 0.54499 0.17837 0.0
H4031 H 0.54053 0.51727 0.22691 0.0
H4032 H 0.53846 0.53644 0.21442 0.0
H4033 H 0.53874 0.5151 0.20222 0.0
H4034 H 0.57651 0.51155 0.1695 0.0
H4035 H 0.56516 0.51578 0.13809 0.0
H4036 H 0.30565 0.81866 0.97963 0.0
H4037 H 0.29872 0.80985 0.94678 0.0
H4038 H 0.27541 0.85714 0.93925 0.0
H4039 H 0.2822 0.86609 0.97235 0.0
H4040 H 0.25565 0.82305 0.91635 0.0
H4041 H 0.33195 0.84093 0.91337 0.0
H4042 H 0.3251 0.82541 0.92989 0.0
H4043 H 0.32147 0.84817 0.93275 0.0
C4044 C 0.29875 0.82708 0.97109 0.0
C4045 C 0.2947 0.84322 0.97862 0.0
C4046 C 0.29482 0.822 0.95229 0.0
C4047 C 0.28686 0.833 0.94056 0.0
C4048 C 0.28163 0.8485 0.94809 0.0
H4049 H 0.30152 0.83231 0.82583 0.0
H4050 H 0.29844 0.8411 0.85753 0.0
C4051 C 0.2855 0.85358 0.967 0.0
C4052 C 0.28567 0.82907 0.92043 0.0
H4053 H 0.31299 0.82616 0.88647 0.0
C4054 C 0.26815 0.82381 0.90975 0.0
C4055 C 0.30201 0.83029 0.91184 0.0
C4056 C 0.32122 0.83666 0.92248 0.0
C4057 C 0.26656 0.8193 0.89071 0.0
C4058 C 0.28294 0.81993 0.88225 0.0
C4059 C 0.30042 0.82557 0.89294 0.0
C4060 C 0.28254 0.81499 0.86232 0.0
C4061 C 0.24742 0.81414 0.87981 0.0
C4062 C 0.27438 0.79741 0.85429 0.0
C4063 C 0.27605 0.79232 0.83603 0.0
C4064 C 0.28611 0.80466 0.82554 0.0
C4065 C 0.29376 0.82239 0.83349 0.0
C4066 C 0.292 0.82748 0.85165 0.0
H4067 H 0.23677 0.81897 0.88722 0.0
H4068 H 0.24732 0.81976 0.86631 0.0
H4069 H 0.24333 0.79917 0.87736 0.0
H4070 H 0.26734 0.78741 0.86234 0.0
H4071 H 0.27008 0.77853 0.83038 0.0
H4072 H 0.99802 0.61848 0.7473 0.0
H4073 H 0.97762 0.5969 0.72337 0.0
H4074 H 0.01922 0.56407 0.72374 0.0
H4075 H 0.03966 0.58555 0.74684 0.0
H4076 H 0.9924 0.58969 0.68895 0.0
H4077 H 0.9682 0.52676 0.72023 0.0
H4078 H 0.97326 0.54891 0.73283 0.0
H4079 H 0.99181 0.53723 0.72939 0.0
C4080 C 1.00262 0.6065 0.74239 0.0
C4081 C 0.02049 0.60381 0.74877 0.0
C4082 C 0.99093 0.59416 0.7289 0.0
C4083 C 0.9968 0.57875 0.72211 0.0
C4084 C 0.01427 0.57568 0.72911 0.0
H4085 H 0.02698 0.51369 0.65381 0.0
H4086 H 1.01148 0.52619 0.67745 0.0
C4087 C 0.02607 0.58815 0.74213 0.0
C4088 C 0.98688 0.56747 0.70548 0.0
H4089 H 0.97744 0.52293 0.68946 0.0
C4090 C 0.98826 0.5751 0.68883 0.0
C4091 C 0.98129 0.54854 0.7055 0.0
C4092 C 0.97837 0.53988 0.72298 0.0
C4093 C 0.98728 0.56416 0.67248 0.0
C4094 C 0.98427 0.5451 0.67292 0.0
C4095 C 0.98003 0.53751 0.68916 0.0
C4096 C 0.99017 0.53365 0.65855 0.0
C4097 C 0.99186 0.57326 0.65551 0.0
C4098 C 0.98276 0.53274 0.64006 0.0
C4099 C 0.99201 0.52607 0.62643 0.0
C4100 C 1.00858 0.51988 0.63114 0.0
C4101 C 0.01463 0.51889 0.64971 0.0
C4102 C 1.00559 0.52581 0.66326 0.0
H4103 H 0.99562 0.58825 0.65813 0.0
H4104 H 1.0037 0.56855 0.6501 0.0
H4105 H 0.97958 0.56973 0.64478 0.0
H4106 H 0.97058 0.53825 0.63613 0.0
H4107 H 0.98688 0.52693 0.61225 0.0
H4108 H 0.32011 0.22059 0.47124 0.0
H4109 H 0.31995 0.23275 0.44138 0.0
H4110 H 0.31772 0.17955 0.41545 0.0
H4111 H 0.31823 0.16728 0.44565 0.0
H4112 H 0.344 0.23296 0.41269 0.0
H4113 H 0.27206 0.19552 0.38703 0.0
H4114 H 0.28114 0.19838 0.41106 0.0
H4115 H 0.28827 0.18231 0.39585 0.0
C4116 C 0.31998 0.2114 0.45929 0.0
C4117 C 0.31947 0.19283 0.4613 0.0
C4118 C 0.31978 0.21847 0.442 0.0
C4119 C 0.31855 0.20727 0.42565 0.0
C4120 C 0.31845 0.18872 0.42755 0.0
H4121 H 0.29603 0.22924 0.30855 0.0
H4122 H 0.30054 0.21572 0.33746 0.0
C4123 C 0.31902 0.18165 0.44502 0.0
C4124 C 0.31706 0.21514 0.40696 0.0
H4125 H 0.28744 0.21432 0.36709 0.0
C4126 C 0.3316 0.22878 0.40274 0.0
C4127 C 0.30105 0.20997 0.39355 0.0
C4128 C 0.28462 0.19584 0.39701 0.0
C4129 C 0.33078 0.23692 0.38585 0.0
C4130 C 0.31451 0.23214 0.37255 0.0
C4131 C 0.3 0.21839 0.37682 0.0
C4132 C 0.31226 0.24089 0.35427 0.0
C4133 C 0.34789 0.25014 0.3823 0.0
C4134 C 0.31709 0.25985 0.35315 0.0
C4135 C 0.31485 0.26769 0.33625 0.0
C4136 C 0.3072 0.25703 0.31963 0.0
C4137 C 0.30207 0.23813 0.32077 0.0
C4138 C 0.3046 0.23029 0.33759 0.0
H4139 H 0.36073 0.2475 0.39011 0.0
H4140 H 0.34959 0.24946 0.36755 0.0
H4141 H 0.34668 0.26407 0.38692 0.0
H4142 H 0.32231 0.26884 0.36546 0.0
H4143 H 0.3187 0.28227 0.33634 0.0
H4144 H 0.34526 0.66529 0.52969 0.0
H4145 H 0.36913 0.6469 0.53098 0.0
H4146 H 0.33241 0.60543 0.49346 0.0
H4147 H 0.30844 0.62366 0.49208 0.0
H4148 H 0.35008 0.59276 0.52555 0.0
H4149 H 0.40044 0.63727 0.4892 0.0
H4150 H 0.39225 0.64825 0.50809 0.0
H4151 H 0.37619 0.63873 0.48806 0.0
C4152 C 0.34227 0.65228 0.52167 0.0
C4153 C 0.32495 0.64598 0.51073 0.0
C4154 C 0.35596 0.64183 0.52237 0.0
C4155 C 0.35259 0.6249 0.51217 0.0
C4156 C 0.33529 0.61849 0.50138 0.0
H4157 H 0.42978 0.55739 0.48588 0.0
H4158 H 0.40591 0.57574 0.48548 0.0
C4159 C 0.32163 0.62896 0.50059 0.0
C4160 C 0.367 0.61372 0.5129 0.0
H4161 H 0.41038 0.61229 0.5017 0.0
C4162 C 0.36328 0.59701 0.52036 0.0
C4163 C 0.38411 0.61926 0.50596 0.0
C4164 C 0.38852 0.63678 0.49723 0.0
C4165 C 0.37632 0.58576 0.52121 0.0
C4166 C 0.39355 0.59143 0.51453 0.0
C4167 C 0.3972 0.60805 0.50692 0.0
C4168 C 0.40783 0.58011 0.51495 0.0
C4169 C 0.37145 0.56774 0.52895 0.0
C4170 C 0.41689 0.57658 0.53167 0.0
C4171 C 0.43051 0.56607 0.53195 0.0
C4172 C 0.43531 0.55888 0.5155 0.0
C4173 C 0.42621 0.56249 0.49879 0.0
C4174 C 0.41266 0.57307 0.49853 0.0
H4175 H 0.35629 0.56374 0.52992 0.0
H4176 H 0.37562 0.55696 0.52038 0.0
H4177 H 0.37916 0.56863 0.54291 0.0
H4178 H 0.41352 0.58208 0.5445 0.0
H4179 H 0.43721 0.56348 0.54503 0.0
H4180 H 0.82859 0.95437 0.5242 0.0
H4181 H 0.85948 0.97393 0.52314 0.0
H4182 H 0.88469 0.92728 0.52509 0.0
H4183 H 0.85461 0.90815 0.52667 0.0
H4184 H 0.90625 0.9526 0.54654 0.0
H4185 H 0.89016 0.98316 0.48217 0.0
H4186 H 0.87596 0.98746 0.49949 0.0
H4187 H 0.87409 0.96469 0.48957 0.0
C4188 C 0.84071 0.9483 0.52445 0.0
C4189 C 0.8387 0.92946 0.52555 0.0
C4190 C 0.85851 0.95953 0.52363 0.0
C4191 C 0.87484 0.95227 0.52374 0.0
C4192 C 0.87268 0.93354 0.52498 0.0
H4193 H 0.98536 0.99908 0.49134 0.0
H4194 H 0.95275 0.98394 0.49233 0.0
C4195 C 0.85516 0.92247 0.52586 0.0
C4196 C 0.89429 0.96369 0.52306 0.0
H4197 H 0.92053 0.99359 0.49826 0.0
C4198 C 0.90922 0.96159 0.53594 0.0
C4199 C 0.89873 0.97535 0.50917 0.0
C4200 C 0.88397 0.97772 0.49419 0.0
C4201 C 0.92795 0.97046 0.53536 0.0
C4202 C 0.93236 0.98249 0.52177 0.0
C4203 C 0.91748 0.98462 0.50883 0.0
C4204 C 0.95223 0.99269 0.52076 0.0
C4205 C 0.94295 0.9662 0.54903 0.0
C4206 C 0.96315 1.00326 0.53615 0.0
C4207 C 0.98189 0.01184 0.53564 0.0
C4208 C 0.99053 0.01051 0.51962 0.0
C4209 C 0.97942 1.00052 0.50397 0.0
C4210 C 0.96062 0.99179 0.50454 0.0
H4211 H 0.93836 0.95289 0.55437 0.0
H4212 H 0.95596 0.96598 0.54288 0.0
H4213 H 0.94613 0.97669 0.56084 0.0
H4214 H 0.9572 1.00488 0.54874 0.0
H4215 H 0.98968 0.01948 0.54799 0.0
H4216 H 0.876 0.06488 0.20937 0.0
H4217 H 0.85983 0.08807 0.22001 0.0
H4218 H 0.86474 0.07045 0.2743 0.0
H4219 H 0.88099 0.04717 0.26383 0.0
H4220 H 0.82614 0.08382 0.23815 0.0
H4221 H 0.88947 0.12582 0.28025 0.0
H4222 H 0.89075 0.1086 0.26254 0.0
H4223 H 0.88376 0.10226 0.28407 0.0
C4224 C 0.87358 0.06586 0.22356 0.0
C4225 C 0.87988 0.05425 0.23578 0.0
C4226 C 0.86431 0.07909 0.22959 0.0
C4227 C 0.8613 0.08104 0.24795 0.0
C4228 C 0.86715 0.06924 0.26012 0.0
H4229 H 0.79337 0.15317 0.29063 0.0
H4230 H 0.80693 0.12671 0.28425 0.0
C4231 C 0.87636 0.05593 0.25408 0.0
C4232 C 0.85241 0.09576 0.25435 0.0
H4233 H 0.86156 0.13653 0.28005 0.0
C4234 C 0.83378 0.09529 0.24743 0.0
C4235 C 0.86257 0.11072 0.26632 0.0
C4236 C 0.88279 0.11207 0.27369 0.0
C4237 C 0.82505 0.10953 0.25205 0.0
C4238 C 0.83524 0.12453 0.26396 0.0
C4239 C 0.8538 0.12491 0.27102 0.0
C4240 C 0.82724 0.14049 0.26829 0.0
C4241 C 0.80522 0.10877 0.24373 0.0
C4242 C 0.83441 0.157 0.26165 0.0
C4243 C 0.82666 0.17207 0.26515 0.0
C4244 C 0.81166 0.17095 0.27549 0.0
C4245 C 0.80472 0.15442 0.28239 0.0
C4246 C 0.81246 0.13931 0.27881 0.0
H4247 H 0.80037 0.09768 0.23252 0.0
H4248 H 0.79587 0.10646 0.25446 0.0
H4249 H 0.80389 0.12181 0.23824 0.0
H4250 H 0.84581 0.15812 0.25347 0.0
H4251 H 0.83217 0.18448 0.25938 0.0
H4252 H 0.7568 0.14061 0.01076 0.0
H4253 H 0.73221 0.11367 0.01173 0.0
H4254 H 0.69053 0.14621 0.00523 0.0
H4255 H 0.71477 0.17305 0.00425 0.0
H4256 H 0.68956 0.12353 0.0362 0.0
H4257 H 0.69094 0.0862 0.96878 0.0
H4258 H 0.71268 0.09497 0.9833 0.0
H4259 H 0.69979 0.11033 0.97317 0.0
C4260 C 0.74238 0.14199 0.00933 0.0
C4261 C 0.73778 0.15903 0.00746 0.0
C4262 C 0.72837 0.12658 0.00986 0.0
C4263 C 0.70958 0.12799 0.00853 0.0
C4264 C 0.70496 0.14487 0.00631 0.0
H4265 H 0.6005 0.06735 0.98801 0.0
H4266 H 0.63217 0.0843 0.98774 0.0
C4267 C 0.71887 0.1602 0.00571 0.0
C4268 C 0.69457 0.1122 0.01018 0.0
H4269 H 0.6675 0.07405 0.98621 0.0
C4270 C 0.6849 0.1125 0.02545 0.0
C4271 C 0.68857 0.09794 0.99607 0.0
C4272 C 0.69841 0.09722 0.97931 0.0
C4273 C 0.66887 0.09932 0.02665 0.0
C4274 C 0.66246 0.08537 0.01225 0.0
C4275 C 0.67256 0.08467 0.99729 0.0
C4276 C 0.64398 0.07304 0.01135 0.0
C4277 C 0.65828 0.10104 0.04279 0.0
C4278 C 0.64019 0.06062 0.02441 0.0
C4279 C 0.62197 0.05082 0.02461 0.0
C4280 C 0.60731 0.0534 0.0118 0.0
C4281 C 0.61141 0.06517 0.99821 0.0
C4282 C 0.62955 0.07483 0.99796 0.0
H4283 H 0.66368 0.11405 0.05142 0.0
H4284 H 0.64324 0.10002 0.03806 0.0
H4285 H 0.65953 0.08982 0.05145 0.0
H4286 H 0.65121 0.0589 0.03474 0.0
H4287 H 0.61925 0.04181 0.03521 0.0
H4288 H 0.19374 0.50005 0.25583 0.0
H4289 H 0.2229 0.48946 0.26181 0.0
H4290 H 0.19517 0.43618 0.23721 0.0
H4291 H 0.16618 0.44676 0.23074 0.0
H4292 H 0.22813 0.46473 0.2841 0.0
H4293 H 0.24343 0.44165 0.21614 0.0
H4294 H 0.22684 0.45594 0.21893 0.0
H4295 H 0.2199 0.43172 0.21898 0.0
C4296 C 0.19396 0.48617 0.25133 0.0
C4297 C 0.17764 0.47421 0.24288 0.0
C4298 C 0.21065 0.48016 0.25475 0.0
C4299 C 0.2113 0.46209 0.24977 0.0
C4300 C 0.19517 0.45031 0.24074 0.0
H4301 H 0.26177 0.38684 0.30177 0.0
H4302 H 0.24545 0.41057 0.29295 0.0
C4303 C 0.17853 0.45634 0.23718 0.0
C4304 C 0.22802 0.45491 0.25595 0.0
H4305 H 0.25553 0.42682 0.24179 0.0
C4306 C 0.23442 0.45678 0.27478 0.0
C4307 C 0.23654 0.44487 0.24381 0.0
C4308 C 0.23144 0.44361 0.22333 0.0
C4309 C 0.24808 0.44774 0.28192 0.0
C4310 C 0.25516 0.43618 0.26996 0.0
C4311 C 0.24987 0.43545 0.251 0.0
C4312 C 0.26634 0.42325 0.27689 0.0
C4313 C 0.2544 0.45028 0.30226 0.0
C4314 C 0.28346 0.42238 0.27068 0.0
C4315 C 0.29271 0.40862 0.27551 0.0
C4316 C 0.28487 0.39541 0.28648 0.0
C4317 C 0.26807 0.39673 0.29318 0.0
C4318 C 0.25885 0.41044 0.28834 0.0
H4319 H 0.25335 0.46389 0.30816 0.0
H4320 H 0.24521 0.44008 0.30906 0.0
H4321 H 0.26901 0.4486 0.30546 0.0
H4322 H 0.28938 0.43205 0.26169 0.0
H4323 H 0.30553 0.40782 0.26997 0.0
H4324 H 0.20102 0.40869 0.99234 0.0
H4325 H 0.176 0.42524 0.9934 0.0
H4326 H 0.20863 0.46127 0.03825 0.0
H4327 H 0.23424 0.44483 0.03687 0.0
H4328 H 0.1529 0.43014 0.01517 0.0
H4329 H 0.19246 0.49948 0.01099 0.0
H4330 H 0.20263 0.47993 0.00761 0.0
H4331 H 0.20135 0.48933 0.03041 0.0
C4332 C 0.20318 0.42023 0.00245 0.0
C4333 C 0.2202 0.4252 0.01444 0.0
C4334 C 0.18853 0.42981 0.00307 0.0
C4335 C 0.18989 0.44504 0.0157 0.0
C4336 C 0.20687 0.45006 0.02786 0.0
H4337 H 0.10893 0.51547 0.03897 0.0
H4338 H 0.13546 0.50039 0.03909 0.0
C4339 C 0.2217 0.44045 0.02718 0.0
C4340 C 0.17335 0.45492 0.01616 0.0
H4341 H 0.16114 0.49679 0.01687 0.0
C4342 C 0.15492 0.44474 0.01544 0.0
C4343 C 0.1752 0.4741 0.01657 0.0
C4344 C 0.19393 0.48636 0.01625 0.0
C4345 C 0.13894 0.45282 0.01536 0.0
C4346 C 0.14079 0.47196 0.01568 0.0
C4347 C 0.15921 0.48219 0.01659 0.0
C4348 C 0.12401 0.48152 0.0153 0.0
C4349 C 0.12016 0.44057 0.01549 0.0
C4350 C 0.10815 0.4766 0.00177 0.0
C4351 C 0.09272 0.48539 0.00164 0.0
C4352 C 0.09234 0.49963 0.015 0.0
C4353 C 0.10829 0.50466 0.02838 0.0
C4354 C 0.12373 0.49594 0.02845 0.0
H4355 H 0.12154 0.42747 0.02084 0.0
H4356 H 0.11133 0.44705 0.02395 0.0
H4357 H 0.1129 0.43758 0.00127 0.0
H4358 H 0.10769 0.46598 0.99105 0.0
H4359 H 0.081 0.48094 0.99099 0.0
H4360 H 0.86828 0.98058 0.21734 0.0
H4361 H 0.84934 0.95232 0.22486 0.0
H4362 H 0.87258 0.92217 0.18499 0.0
H4363 H 0.89194 0.95026 0.17777 0.0
H4364 H 0.82361 0.9218 0.20679 0.0
H4365 H 0.8909 0.90495 0.23381 0.0
H4366 H 0.88925 0.92707 0.22704 0.0
H4367 H 0.88907 0.90881 0.21003 0.0
C4368 C 0.86899 0.96798 0.20982 0.0
C4369 C 0.88185 0.96757 0.19722 0.0
C4370 C 0.85817 0.95185 0.21416 0.0
C4371 C 0.85996 0.93516 0.20582 0.0
C4372 C 0.87135 0.9349 0.19189 0.0
H4373 H 0.80033 0.82735 0.22255 0.0
H4374 H 0.81064 0.85636 0.21034 0.0
C4375 C 0.88235 0.95096 0.18773 0.0
C4376 C 0.85175 0.9181 0.21315 0.0
H4377 H 0.86375 0.8825 0.23403 0.0
C4378 C 0.83233 0.91316 0.21275 0.0
C4379 C 0.86324 0.90711 0.22129 0.0
C4380 C 0.88428 0.9123 0.22327 0.0
C4381 C 0.82405 0.8973 0.22004 0.0
C4382 C 0.83555 0.88603 0.22762 0.0
C4383 C 0.85496 0.8911 0.22813 0.0
C4384 C 0.82797 0.86896 0.23535 0.0
C4385 C 0.80318 0.89301 0.21995 0.0
C4386 C 0.83449 0.8663 0.25336 0.0
C4387 C 0.8289 0.84966 0.26026 0.0
C4388 C 0.81661 0.83535 0.24928 0.0
C4389 C 0.80974 0.83815 0.23137 0.0
C4390 C 0.81549 0.85477 0.22442 0.0
H4391 H 0.79716 0.90527 0.21859 0.0
H4392 H 0.79672 0.88306 0.2081 0.0
H4393 H 0.79936 0.88702 0.23264 0.0
H4394 H 0.84418 0.87705 0.26201 0.0
H4395 H 0.83437 0.84796 0.27413 0.0
H4396 H 0.63671 0.05753 0.74772 0.0
H4397 H 0.65569 0.08819 0.74962 0.0
H4398 H 0.7035 0.0662 0.73902 0.0
H4399 H 0.68465 0.03557 0.73681 0.0
H4400 H 0.68726 0.103 0.77397 0.0
H4401 H 0.70335 0.10411 0.70254 0.0
H4402 H 0.68508 0.08724 0.70933 0.0
H4403 H 0.70901 0.08501 0.71331 0.0
C4404 C 0.65122 0.05921 0.7456 0.0
C4405 C 0.65914 0.04408 0.74204 0.0
C4406 C 0.66203 0.07674 0.74672 0.0
C4407 C 0.68091 0.07946 0.74421 0.0
C4408 C 0.68884 0.06441 0.7406 0.0
H4409 H 0.77664 0.16626 0.75495 0.0
H4410 H 0.75411 0.13751 0.7524 0.0
C4411 C 0.67805 0.0469 0.73943 0.0
C4412 C 0.6926 0.09797 0.74621 0.0
H4413 H 0.72195 0.12737 0.72431 0.0
C4414 C 0.69469 0.10844 0.76306 0.0
C4415 C 0.70219 0.10502 0.73192 0.0
C4416 C 0.69967 0.09484 0.71319 0.0
C4417 C 0.70672 0.12553 0.76623 0.0
C4418 C 0.71674 0.1323 0.75212 0.0
C4419 C 0.71431 0.12203 0.73514 0.0
C4420 C 0.73029 0.14978 0.7548 0.0
C4421 C 0.70912 0.13597 0.7848 0.0
C4422 C 0.72432 0.16617 0.75713 0.0
C4423 C 0.73715 0.18266 0.75847 0.0
C4424 C 0.75615 0.18298 0.75743 0.0
C4425 C 0.76208 0.16648 0.75553 0.0
C4426 C 0.74926 0.15005 0.75415 0.0
H4427 H 0.70297 0.12749 0.79516 0.0
H4428 H 0.72414 0.14141 0.78967 0.0
H4429 H 0.70211 0.14762 0.78375 0.0
H4430 H 0.70968 0.16622 0.7574 0.0
H4431 H 0.7321 0.19513 0.75967 0.0
loop_
_geom_bond_atom_site_label_1
_geom_bond_atom_site_label_2
_geom_bond_distance
_geom_bond_site_symmetry_2
_ccdc_geom_bond_type
Zn0 O3 2.031 . S
Zn0 O5 2.049 . S
Zn0 O10 2.067 . S
Zn1 O2 1.962 . S
Zn1 O4 1.986 . S
Zn1 O6 1.996 . S
Zn1 O9 1.943 . S
O2 Zn1 1.962 . S
O2 C7 1.254 . S
O3 Zn0 2.031 . S
O3 C7 1.269 . S
O4 Zn1 1.986 . S
O4 C11 1.262 . S
O5 Zn0 2.049 . S
O5 C13 1.260 . S
O6 Zn1 1.996 . S
O6 C13 1.257 . S
C7 O2 1.254 . S
C7 O3 1.269 . S
C8 O9 1.249 . S
C8 O10 1.270 . S
O9 Zn1 1.943 . S
O9 C8 1.249 . S
O10 Zn0 2.067 . S
O10 C8 1.270 . S
C11 O4 1.262 . S
C11 O12 1.232 . S
O12 C11 1.232 . S
C13 O5 1.260 . S
C13 O6 1.257 . S
Zn14 O17 2.031 . S
Zn14 O19 2.049 . S
Zn14 O24 2.067 . S
Zn15 O16 1.962 . S
Zn15 O18 1.986 . S
Zn15 O20 1.996 . S
Zn15 O23 1.943 . S
O16 Zn15 1.962 . S
O16 C21 1.254 . S
O17 Zn14 2.031 . S
O17 C21 1.269 . S
O18 Zn15 1.986 . S
O18 C25 1.262 . S
O19 Zn14 2.049 . S
O19 C27 1.260 . S
O20 Zn15 1.996 . S
O20 C27 1.257 . S
C21 O16 1.254 . S
C21 O17 1.269 . S
C22 O23 1.249 . S
C22 O24 1.270 . S
O23 Zn15 1.943 . S
O23 C22 1.249 . S
O24 Zn14 2.067 . S
O24 C22 1.270 . S
C25 O18 1.262 . S
C25 O26 1.232 . S
O26 C25 1.232 . S
C27 O19 1.260 . S
C27 O20 1.257 . S
Zn28 O31 2.031 . S
Zn28 O33 2.049 . S
Zn28 O38 2.067 . S
Zn29 O30 1.962 . S
Zn29 O32 1.986 . S
Zn29 O34 1.996 . S
Zn29 O37 1.943 . S
O30 Zn29 1.962 . S
O30 C35 1.254 . S
O31 Zn28 2.031 . S
O31 C35 1.269 . S
O32 Zn29 1.986 . S
O32 C39 1.262 . S
O33 Zn28 2.049 . S
O33 C41 1.260 . S
O34 Zn29 1.996 . S
O34 C41 1.257 . S
C35 O30 1.254 . S
C35 O31 1.269 . S
C36 O37 1.249 . S
C36 O38 1.270 . S
O37 Zn29 1.943 . S
O37 C36 1.249 . S
O38 Zn28 2.067 . S
O38 C36 1.270 . S
C39 O32 1.262 . S
C39 O40 1.232 . S
O40 C39 1.232 . S
C41 O33 1.260 . S
C41 O34 1.257 . S
Zn42 O45 2.031 . S
Zn42 O47 2.049 . S
Zn42 O52 2.067 . S
Zn43 O44 1.962 . S
Zn43 O46 1.986 . S
Zn43 O48 1.996 . S
Zn43 O51 1.943 . S
O44 Zn43 1.962 . S
O44 C49 1.254 . S
O45 Zn42 2.031 . S
O45 C49 1.269 . S
O46 Zn43 1.986 . S
O46 C53 1.262 . S
O47 Zn42 2.049 . S
O47 C55 1.260 . S
O48 Zn43 1.996 . S
O48 C55 1.257 . S
C49 O44 1.254 . S
C49 O45 1.269 . S
C50 O51 1.249 . S
C50 O52 1.270 . S
O51 Zn43 1.943 . S
O51 C50 1.249 . S
O52 Zn42 2.067 . S
O52 C50 1.270 . S
C53 O46 1.262 . S
C53 O54 1.232 . S
O54 C53 1.232 . S
C55 O47 1.260 . S
C55 O48 1.257 . S
Zn56 O59 2.031 . S
Zn56 O61 2.049 . S
Zn56 O66 2.067 . S
Zn57 O58 1.962 . S
Zn57 O60 1.986 . S
Zn57 O62 1.996 . S
Zn57 O65 1.943 . S
O58 Zn57 1.962 . S
O58 C63 1.254 . S
O59 Zn56 2.031 . S
O59 C63 1.269 . S
O60 Zn57 1.986 . S
O60 C67 1.262 . S
O61 Zn56 2.049 . S
O61 C69 1.260 . S
O62 Zn57 1.996 . S
O62 C69 1.257 . S
C63 O58 1.254 . S
C63 O59 1.269 . S
C64 O65 1.249 . S
C64 O66 1.270 . S
O65 Zn57 1.943 . S
O65 C64 1.249 . S
O66 Zn56 2.067 . S
O66 C64 1.270 . S
C67 O60 1.262 . S
C67 O68 1.232 . S
O68 C67 1.232 . S
C69 O61 1.260 . S
C69 O62 1.257 . S
Zn70 O73 2.031 . S
Zn70 O75 2.049 . S
Zn70 O80 2.067 . S
Zn71 O72 1.962 . S
Zn71 O74 1.986 . S
Zn71 O76 1.996 . S
Zn71 O79 1.943 . S
O72 Zn71 1.962 . S
O72 C77 1.254 . S
O73 Zn70 2.031 . S
O73 C77 1.269 . S
O74 Zn71 1.986 . S
O74 C81 1.262 . S
O75 Zn70 2.049 . S
O75 C83 1.260 . S
O76 Zn71 1.996 . S
O76 C83 1.257 . S
C77 O72 1.254 . S
C77 O73 1.269 . S
C78 O79 1.249 . S
C78 O80 1.270 . S
O79 Zn71 1.943 . S
O79 C78 1.249 . S
O80 Zn70 2.067 . S
O80 C78 1.270 . S
C81 O74 1.262 . S
C81 O82 1.232 . S
O82 C81 1.232 . S
C83 O75 1.260 . S
C83 O76 1.257 . S
Zn84 O87 2.031 . S
Zn84 O89 2.049 . S
Zn84 O94 2.067 . S
Zn85 O86 1.962 . S
Zn85 O88 1.986 . S
Zn85 O90 1.996 . S
Zn85 O93 1.943 . S
O86 Zn85 1.962 . S
O86 C91 1.254 . S
O87 Zn84 2.031 . S
O87 C91 1.269 . S
O88 Zn85 1.986 . S
O88 C95 1.262 . S
O89 Zn84 2.049 . S
O89 C97 1.260 . S
O90 Zn85 1.996 . S
O90 C97 1.257 . S
C91 O86 1.254 . S
C91 O87 1.269 . S
C92 O93 1.249 . S
C92 O94 1.270 . S
O93 Zn85 1.943 . S
O93 C92 1.249 . S
O94 Zn84 2.067 . S
O94 C92 1.270 . S
C95 O88 1.262 . S
C95 O96 1.232 . S
O96 C95 1.232 . S
C97 O89 1.260 . S
C97 O90 1.257 . S
Zn98 O101 2.031 . S
Zn98 O103 2.049 . S
Zn98 O108 2.067 . S
Zn99 O100 1.962 . S
Zn99 O102 1.986 . S
Zn99 O104 1.996 . S
Zn99 O107 1.943 1_455 S
O100 Zn99 1.962 . S
O100 C105 1.298 . S
O101 Zn98 2.031 . S
O101 C105 1.229 1_655 S
O102 Zn99 1.986 . S
O102 C109 1.262 . S
O103 Zn98 2.049 . S
O103 C111 1.260 . S
O104 Zn99 1.996 . S
O104 C111 1.257 1_455 S
C105 O100 1.298 . S
C105 O101 1.229 1_455 S
C106 O107 1.249 . S
C106 O108 1.270 . S
O107 Zn99 1.943 1_655 S
O107 C106 1.249 . S
O108 Zn98 2.067 . S
O108 C106 1.270 . S
C109 O102 1.262 . S
C109 O110 1.232 . S
O110 C109 1.232 . S
C111 O103 1.260 . S
C111 O104 1.257 1_655 S
Zn112 O115 2.031 . S
Zn112 O117 2.049 . S
Zn112 O122 2.067 . S
Zn113 O114 1.962 . S
Zn113 O116 1.986 . S
Zn113 O118 1.996 . S
Zn113 O121 1.943 . S
O114 Zn113 1.962 . S
O114 C119 1.254 . S
O115 Zn112 2.031 . S
O115 C119 1.269 . S
O116 Zn113 1.986 . S
O116 C123 1.262 . S
O117 Zn112 2.049 . S
O117 C125 1.260 . S
O118 Zn113 1.996 . S
O118 C125 1.257 . S
C119 O114 1.254 . S
C119 O115 1.269 . S
C120 O121 1.249 . S
C120 O122 1.270 . S
O121 Zn113 1.943 . S
O121 C120 1.249 . S
O122 Zn112 2.067 . S
O122 C120 1.270 . S
C123 O116 1.262 . S
C123 O124 1.232 . S
O124 C123 1.232 . S
C125 O117 1.260 . S
C125 O118 1.257 . S
Zn126 O129 2.031 . S
Zn126 O131 2.049 . S
Zn126 O136 2.067 . S
Zn127 O128 1.962 . S
Zn127 O130 1.986 . S
Zn127 O132 1.996 . S
Zn127 O135 1.943 . S
O128 Zn127 1.962 . S
O128 C133 1.254 . S
O129 Zn126 2.031 . S
O129 C133 1.269 . S
O130 Zn127 1.986 . S
O130 C137 1.262 . S
O131 Zn126 2.049 . S
O131 C139 1.260 . S
O132 Zn127 1.996 . S
O132 C139 1.257 . S
C133 O128 1.254 . S
C133 O129 1.269 . S
C134 O135 1.249 . S
C134 O136 1.270 . S
O135 Zn127 1.943 . S
O135 C134 1.249 . S
O136 Zn126 2.067 . S
O136 C134 1.270 . S
C137 O130 1.262 . S
C137 O138 1.232 . S
O138 C137 1.232 . S
C139 O131 1.260 . S
C139 O132 1.257 . S
Zn140 O143 2.031 . S
Zn140 O145 2.049 . S
Zn140 O150 2.067 . S
Zn141 O142 1.962 . S
Zn141 O144 1.986 . S
Zn141 O146 1.996 . S
Zn141 O149 1.943 . S
O142 Zn141 1.962 . S
O142 C147 1.254 . S
O143 Zn140 2.031 . S
O143 C147 1.269 . S
O144 Zn141 1.986 . S
O144 C151 1.262 . S
O145 Zn140 2.049 . S
O145 C153 1.260 . S
O146 Zn141 1.996 . S
O146 C153 1.257 . S
C147 O142 1.254 . S
C147 O143 1.269 . S
C148 O149 1.249 . S
C148 O150 1.270 . S
O149 Zn141 1.943 . S
O149 C148 1.249 . S
O150 Zn140 2.067 . S
O150 C148 1.270 . S
C151 O144 1.262 . S
C151 O152 1.232 . S
O152 C151 1.232 . S
C153 O145 1.260 . S
C153 O146 1.257 . S
Zn154 O157 2.031 . S
Zn154 O159 2.049 . S
Zn154 O164 2.067 . S
Zn155 O156 1.962 . S
Zn155 O158 1.986 . S
Zn155 O160 1.996 . S
Zn155 O163 1.943 . S
O156 Zn155 1.962 . S
O156 C161 1.254 . S
O157 Zn154 2.031 . S
O157 C161 1.269 . S
O158 Zn155 1.986 . S
O158 C165 1.262 . S
O159 Zn154 2.049 . S
O159 C167 1.260 . S
O160 Zn155 1.996 . S
O160 C167 1.257 . S
C161 O156 1.254 . S
C161 O157 1.269 . S
C162 O163 1.249 . S
C162 O164 1.270 . S
O163 Zn155 1.943 . S
O163 C162 1.249 . S
O164 Zn154 2.067 . S
O164 C162 1.270 . S
C165 O158 1.262 . S
C165 O166 1.232 . S
O166 C165 1.232 . S
C167 O159 1.260 . S
C167 O160 1.257 . S
Zn168 O171 2.005 1_554 S
Zn168 O173 2.049 . S
Zn168 O178 2.067 . S
Zn169 O170 1.962 1_554 S
Zn169 O172 1.986 . S
Zn169 O174 1.996 . S
Zn169 O177 1.943 . S
O170 Zn169 1.962 1_556 S
O170 C175 1.254 . S
O171 Zn168 2.005 1_556 S
O171 C175 1.280 . S
O172 Zn169 1.986 . S
O172 C179 1.262 . S
O173 Zn168 2.049 . S
O173 C181 1.260 . S
O174 Zn169 1.996 . S
O174 C181 1.257 . S
C175 O170 1.254 . S
C175 O171 1.280 . S
C176 O177 1.249 . S
C176 O178 1.270 . S
O177 Zn169 1.943 . S
O177 C176 1.249 . S
O178 Zn168 2.067 . S
O178 C176 1.270 . S
C179 O172 1.262 . S
C179 O180 1.232 . S
O180 C179 1.232 . S
C181 O173 1.260 . S
C181 O174 1.257 . S
Zn182 O185 2.031 1_554 S
Zn182 O187 2.049 . S
Zn182 O192 2.067 . S
Zn183 O184 1.970 . S
Zn183 O186 1.982 1_556 S
Zn183 O188 1.989 1_556 S
Zn183 O191 1.942 . S
O184 Zn183 1.970 . S
O184 C189 1.254 . S
O185 Zn182 2.031 1_556 S
O185 C189 1.269 . S
O186 Zn183 1.982 1_554 S
O186 C193 1.268 . S
O187 Zn182 2.049 . S
O187 C195 1.260 . S
O188 Zn183 1.989 1_554 S
O188 C195 1.257 . S
C189 O184 1.254 . S
C189 O185 1.269 . S
C190 O191 1.249 . S
C190 O192 1.270 1_556 S
O191 Zn183 1.942 . S
O191 C190 1.249 . S
O192 Zn182 2.067 . S
O192 C190 1.270 1_554 S
C193 O186 1.268 . S
C193 O194 1.226 1_554 S
O194 C193 1.226 1_556 S
C195 O187 1.260 . S
C195 O188 1.257 . S
Zn196 O199 2.031 . S
Zn196 O201 2.049 . S
Zn196 O206 2.067 . S
Zn197 O198 1.962 . S
Zn197 O200 1.986 . S
Zn197 O202 1.996 . S
Zn197 O205 1.943 . S
O198 Zn197 1.962 . S
O198 C203 1.254 . S
O199 Zn196 2.031 . S
O199 C203 1.269 . S
O200 Zn197 1.986 . S
O200 C207 1.262 . S
O201 Zn196 2.049 . S
O201 C209 1.260 . S
O202 Zn197 1.996 . S
O202 C209 1.257 . S
C203 O198 1.254 . S
C203 O199 1.269 . S
C204 O205 1.249 . S
C204 O206 1.270 . S
O205 Zn197 1.943 . S
O205 C204 1.249 . S
O206 Zn196 2.067 . S
O206 C204 1.270 . S
C207 O200 1.262 . S
C207 O208 1.232 . S
O208 C207 1.232 . S
C209 O201 1.260 . S
C209 O202 1.257 . S
Zn210 O213 2.031 . S
Zn210 O215 2.049 . S
Zn210 O220 2.067 . S
Zn211 O212 1.962 . S
Zn211 O214 1.986 . S
Zn211 O216 1.996 . S
Zn211 O219 1.943 . S
O212 Zn211 1.962 . S
O212 C217 1.254 . S
O213 Zn210 2.031 . S
O213 C217 1.269 . S
O214 Zn211 1.986 . S
O214 C221 1.262 . S
O215 Zn210 2.049 . S
O215 C223 1.260 . S
O216 Zn211 1.996 . S
O216 C223 1.257 . S
C217 O212 1.254 . S
C217 O213 1.269 . S
C218 O219 1.249 . S
C218 O220 1.270 . S
O219 Zn211 1.943 . S
O219 C218 1.249 . S
O220 Zn210 2.067 . S
O220 C218 1.270 . S
C221 O214 1.262 . S
C221 O222 1.232 . S
O222 C221 1.232 . S
C223 O215 1.260 . S
C223 O216 1.257 . S
Zn224 O227 2.031 . S
Zn224 O229 2.049 . S
Zn224 O234 2.067 . S
Zn225 O226 1.962 . S
Zn225 O228 1.986 . S
Zn225 O230 1.996 . S
Zn225 O233 1.943 1_545 S
O226 Zn225 1.962 . S
O226 C231 1.254 . S
O227 Zn224 2.031 . S
O227 C231 1.269 1_565 S
O228 Zn225 1.986 . S
O228 C235 1.262 . S
O229 Zn224 2.049 . S
O229 C237 1.260 1_565 S
O230 Zn225 1.996 . S
O230 C237 1.257 . S
C231 O226 1.254 . S
C231 O227 1.269 1_545 S
C232 O233 1.249 . S
C232 O234 1.270 . S
O233 Zn225 1.943 1_565 S
O233 C232 1.249 . S
O234 Zn224 2.067 . S
O234 C232 1.270 . S
C235 O228 1.262 . S
C235 O236 1.232 . S
O236 C235 1.232 . S
C237 O229 1.260 1_545 S
C237 O230 1.257 . S
Zn238 O241 2.031 . S
Zn238 O243 2.049 . S
Zn238 O248 2.067 . S
Zn239 O240 1.962 . S
Zn239 O242 1.986 . S
Zn239 O244 1.996 . S
Zn239 O247 1.943 . S
O240 Zn239 1.962 . S
O240 C245 1.254 . S
O241 Zn238 2.031 . S
O241 C245 1.269 . S
O242 Zn239 1.986 . S
O242 C249 1.262 . S
O243 Zn238 2.049 . S
O243 C251 1.260 . S
O244 Zn239 1.996 . S
O244 C251 1.257 . S
C245 O240 1.254 . S
C245 O241 1.269 . S
C246 O247 1.249 . S
C246 O248 1.270 . S
O247 Zn239 1.943 . S
O247 C246 1.249 . S
O248 Zn238 2.067 . S
O248 C246 1.270 . S
C249 O242 1.262 . S
C249 O250 1.232 . S
O250 C249 1.232 . S
C251 O243 1.260 . S
C251 O244 1.257 . S
Zn252 O255 2.031 . S
Zn252 O257 2.049 . S
Zn252 O262 2.067 . S
Zn253 O254 1.962 . S
Zn253 O256 1.986 . S
Zn253 O258 1.996 . S
Zn253 O261 1.943 . S
O254 Zn253 1.962 . S
O254 C259 1.254 . S
O255 Zn252 2.031 . S
O255 C259 1.269 . S
O256 Zn253 1.986 . S
O256 C263 1.262 . S
O257 Zn252 2.049 . S
O257 C265 1.260 . S
O258 Zn253 1.996 . S
O258 C265 1.257 . S
C259 O254 1.254 . S
C259 O255 1.269 . S
C260 O261 1.249 . S
C260 O262 1.270 . S
O261 Zn253 1.943 . S
O261 C260 1.249 . S
O262 Zn252 2.067 . S
O262 C260 1.270 . S
C263 O256 1.262 . S
C263 O264 1.232 . S
O264 C263 1.232 . S
C265 O257 1.260 . S
C265 O258 1.257 . S
Zn266 O269 2.031 . S
Zn266 O271 2.049 . S
Zn266 O276 2.067 . S
Zn267 O268 1.962 . S
Zn267 O270 1.986 . S
Zn267 O272 1.996 . S
Zn267 O275 1.943 1_565 S
O268 Zn267 1.962 . S
O268 C273 1.254 1_565 S
O269 Zn266 2.031 . S
O269 C273 1.269 . S
O270 Zn267 1.986 . S
O270 C277 1.262 . S
O271 Zn266 2.049 . S
O271 C279 1.260 . S
O272 Zn267 1.996 . S
O272 C279 1.257 1_565 S
C273 O268 1.254 1_545 S
C273 O269 1.269 . S
C274 O275 1.249 . S
C274 O276 1.270 . S
O275 Zn267 1.943 1_545 S
O275 C274 1.249 . S
O276 Zn266 2.067 . S
O276 C274 1.270 . S
C277 O270 1.262 . S
C277 O278 1.232 . S
O278 C277 1.232 . S
C279 O271 1.260 . S
C279 O272 1.257 1_545 S
Zn280 O283 2.031 1_554 S
Zn280 O285 2.049 . S
Zn280 O290 2.067 . S
Zn281 O282 1.962 1_554 S
Zn281 O284 1.986 . S
Zn281 O286 1.996 . S
Zn281 O289 1.943 . S
O282 Zn281 1.962 1_556 S
O282 C287 1.254 . S
O283 Zn280 2.031 1_556 S
O283 C287 1.269 . S
O284 Zn281 1.986 . S
O284 C291 1.262 . S
O285 Zn280 2.049 . S
O285 C293 1.260 . S
O286 Zn281 1.996 . S
O286 C293 1.257 . S
C287 O282 1.254 . S
C287 O283 1.269 . S
C288 O289 1.249 . S
C288 O290 1.270 . S
O289 Zn281 1.943 . S
O289 C288 1.249 . S
O290 Zn280 2.067 . S
O290 C288 1.270 . S
C291 O284 1.262 . S
C291 O292 1.232 . S
O292 C291 1.232 . S
C293 O285 1.260 . S
C293 O286 1.257 . S
Zn294 O297 2.031 . S
Zn294 O299 2.049 . S
Zn294 O304 2.067 . S
Zn295 O296 1.962 . S
Zn295 O298 1.986 . S
Zn295 O300 1.996 . S
Zn295 O303 1.943 . S
O296 Zn295 1.962 . S
O296 C301 1.254 . S
O297 Zn294 2.031 . S
O297 C301 1.269 . S
O298 Zn295 1.986 . S
O298 C305 1.262 . S
O299 Zn294 2.049 . S
O299 C307 1.260 . S
O300 Zn295 1.996 . S
O300 C307 1.257 . S
C301 O296 1.254 . S
C301 O297 1.269 . S
C302 O303 1.249 . S
C302 O304 1.270 . S
O303 Zn295 1.943 . S
O303 C302 1.249 . S
O304 Zn294 2.067 . S
O304 C302 1.270 . S
C305 O298 1.262 . S
C305 O306 1.232 . S
O306 C305 1.232 . S
C307 O299 1.260 . S
C307 O300 1.257 . S
Zn308 O311 2.031 . S
Zn308 O313 2.049 . S
Zn308 O318 2.067 . S
Zn309 O310 1.962 . S
Zn309 O312 1.986 . S
Zn309 O314 1.996 . S
Zn309 O317 1.943 . S
O310 Zn309 1.962 . S
O310 C315 1.254 . S
O311 Zn308 2.031 . S
O311 C315 1.269 . S
O312 Zn309 1.986 . S
O312 C319 1.262 . S
O313 Zn308 2.049 . S
O313 C321 1.260 . S
O314 Zn309 1.996 . S
O314 C321 1.257 . S
C315 O310 1.254 . S
C315 O311 1.269 . S
C316 O317 1.249 . S
C316 O318 1.270 . S
O317 Zn309 1.943 . S
O317 C316 1.249 . S
O318 Zn308 2.067 . S
O318 C316 1.270 . S
C319 O312 1.262 . S
C319 O320 1.232 . S
O320 C319 1.232 . S
C321 O313 1.260 . S
C321 O314 1.257 . S
Zn322 O325 2.031 . S
Zn322 O327 2.049 . S
Zn322 O332 2.067 . S
Zn323 O324 1.962 . S
Zn323 O326 1.986 . S
Zn323 O328 1.996 . S
Zn323 O331 1.943 . S
O324 Zn323 1.962 . S
O324 C329 1.254 . S
O325 Zn322 2.031 . S
O325 C329 1.269 . S
O326 Zn323 1.986 . S
O326 C333 1.262 . S
O327 Zn322 2.049 . S
O327 C335 1.260 . S
O328 Zn323 1.996 . S
O328 C335 1.257 . S
C329 O324 1.254 . S
C329 O325 1.269 . S
C330 O331 1.249 . S
C330 O332 1.270 . S
O331 Zn323 1.943 . S
O331 C330 1.249 . S
O332 Zn322 2.067 . S
O332 C330 1.270 . S
C333 O326 1.262 . S
C333 O334 1.232 . S
O334 C333 1.232 . S
C335 O327 1.260 . S
C335 O328 1.257 . S
Tb336 C346 2.827 1_455 S
Tb336 O347 2.347 . S
Tb336 O350 2.366 . S
Tb336 O355 2.418 1_554 S
Tb336 O356 2.384 1_545 S
Tb336 O359 2.479 1_454 S
Tb336 O360 2.471 1_455 S
Eu337 O348 2.418 . S
Eu337 O349 2.384 . S
Eu337 O352 2.479 . S
Eu337 O353 2.471 . S
Eu337 O354 2.347 . S
Eu337 O357 2.366 . S
Eu337 C367 2.825 . S
C338 O354 1.259 1_556 S
C338 O355 1.265 . S
C339 O356 1.255 . S
C339 O357 1.265 1_565 S
C340 C342 1.380 . S
C340 C343 1.374 1_556 S
C340 C346 1.505 1_556 S
C341 C342 1.384 . S
C341 C345 1.387 . S
C341 H368 0.930 . S
C342 C340 1.380 . S
C342 C341 1.384 . S
C342 H369 0.931 . S
C343 C340 1.374 1_554 S
C343 C344 1.390 . S
C343 H370 0.930 . S
C344 C343 1.390 . S
C344 C345 1.391 1_554 S
C344 H371 0.930 . S
C345 C341 1.387 . S
C345 C344 1.391 1_556 S
C346 Tb336 2.827 1_655 S
C346 C340 1.505 1_554 S
C346 O359 1.231 1_554 S
C346 O360 1.256 . S
O347 Tb336 2.347 . S
O347 C351 1.259 . S
O348 Eu337 2.418 . S
O348 C351 1.265 . S
O349 Eu337 2.384 . S
O349 C358 1.255 . S
O350 Tb336 2.366 . S
O350 C358 1.265 . S
C351 O347 1.259 . S
C351 O348 1.265 . S
O352 Eu337 2.479 . S
O352 C367 1.238 . S
O353 Eu337 2.471 . S
O353 C367 1.247 . S
O354 Eu337 2.347 . S
O354 C338 1.259 1_554 S
O355 Tb336 2.418 1_556 S
O355 C338 1.265 . S
O356 Tb336 2.384 1_565 S
O356 C339 1.255 . S
O357 Eu337 2.366 . S
O357 C339 1.265 1_545 S
C358 O349 1.255 . S
C358 O350 1.265 . S
O359 Tb336 2.479 1_656 S
O359 C346 1.231 1_556 S
O360 Tb336 2.471 1_655 S
O360 C346 1.256 . S
C361 C364 1.380 . S
C361 C365 1.374 . S
C361 C367 1.507 . S
C362 C363 1.387 . S
C362 C366 1.391 1_545 S
C363 C362 1.387 . S
C363 C364 1.384 . S
C363 H372 0.930 . S
C364 C361 1.380 . S
C364 C363 1.384 . S
C364 H373 0.931 . S
C365 C361 1.374 . S
C365 C366 1.375 1_545 S
C365 H374 0.930 . S
C366 C362 1.391 1_565 S
C366 C365 1.375 1_565 S
C366 H375 0.946 . S
C367 Eu337 2.825 . S
C367 O352 1.238 . S
C367 O353 1.247 . S
C367 C361 1.507 . S
H368 C341 0.930 . S
H369 C342 0.931 . S
H370 C343 0.930 . S
H371 C344 0.930 . S
H372 C363 0.930 . S
H373 C364 0.931 . S
H374 C365 0.930 . S
H375 C366 0.946 . S
Tb376 C386 2.825 . S
Tb376 O387 2.347 . S
Tb376 O390 2.366 . S
Tb376 O395 2.418 . S
Tb376 O396 2.384 . S
Tb376 O399 2.479 . S
Tb376 O400 2.471 . S
Eu377 O388 2.418 . S
Eu377 O389 2.384 . S
Eu377 O392 2.479 . S
Eu377 O393 2.471 . S
Eu377 O394 2.347 . S
Eu377 O397 2.366 . S
Eu377 C407 2.825 . S
C378 O394 1.259 . S
C378 O395 1.265 . S
C379 O396 1.255 . S
C379 O397 1.265 . S
C380 C382 1.380 . S
C380 C383 1.374 . S
C380 C386 1.507 . S
C381 C382 1.384 . S
C381 C385 1.387 . S
C381 H408 0.930 . S
C382 C380 1.380 . S
C382 C381 1.384 . S
C382 H409 0.931 . S
C383 C380 1.374 . S
C383 C384 1.390 . S
C383 H410 0.930 . S
C384 C383 1.390 . S
C384 C385 1.391 . S
C384 H411 0.930 . S
C385 C381 1.387 . S
C385 C384 1.391 . S
C386 Tb376 2.825 . S
C386 C380 1.507 . S
C386 O399 1.238 . S
C386 O400 1.247 . S
O387 Tb376 2.347 . S
O387 C391 1.259 . S
O388 Eu377 2.418 . S
O388 C391 1.265 . S
O389 Eu377 2.384 . S
O389 C398 1.255 . S
O390 Tb376 2.366 . S
O390 C398 1.265 . S
C391 O387 1.259 . S
C391 O388 1.265 . S
O392 Eu377 2.479 . S
O392 C407 1.238 . S
O393 Eu377 2.471 . S
O393 C407 1.247 . S
O394 Eu377 2.347 . S
O394 C378 1.259 . S
O395 Tb376 2.418 . S
O395 C378 1.265 . S
O396 Tb376 2.384 . S
O396 C379 1.255 . S
O397 Eu377 2.366 . S
O397 C379 1.265 . S
C398 O389 1.255 . S
C398 O390 1.265 . S
O399 Tb376 2.479 . S
O399 C386 1.238 . S
O400 Tb376 2.471 . S
O400 C386 1.247 . S
C401 C404 1.380 . S
C401 C405 1.374 . S
C401 C407 1.507 . S
C402 C403 1.387 . S
C402 C406 1.391 . S
C403 C402 1.387 . S
C403 C404 1.384 . S
C403 H412 0.930 . S
C404 C401 1.380 . S
C404 C403 1.384 . S
C404 H413 0.931 . S
C405 C401 1.374 . S
C405 C406 1.390 . S
C405 H414 0.930 . S
C406 C402 1.391 . S
C406 C405 1.390 . S
C406 H415 0.930 . S
C407 Eu377 2.825 . S
C407 O392 1.238 . S
C407 O393 1.247 . S
C407 C401 1.507 . S
H408 C381 0.930 . S
H409 C382 0.931 . S
H410 C383 0.930 . S
H411 C384 0.930 . S
H412 C403 0.930 . S
H413 C404 0.931 . S
H414 C405 0.930 . S
H415 C406 0.930 . S
Tb416 C426 2.825 . S
Tb416 O427 2.347 1_565 S
Tb416 O430 2.366 . S
Tb416 O435 2.416 . S
Tb416 O436 2.384 1_565 S
Tb416 O439 2.479 . S
Tb416 O440 2.471 . S
Eu417 O428 2.418 . S
Eu417 O429 2.384 . S
Eu417 O432 2.479 . S
Eu417 O433 2.471 . S
Eu417 O434 2.347 . S
Eu417 O437 2.366 . S
Eu417 C447 2.825 . S
C418 O434 1.259 . S
C418 O435 1.248 1_545 S
C419 O436 1.255 . S
C419 O437 1.265 . S
C420 C422 1.380 . S
C420 C423 1.374 . S
C420 C426 1.507 . S
C421 C422 1.384 . S
C421 C425 1.387 . S
C421 H448 0.930 . S
C422 C420 1.380 . S
C422 C421 1.384 . S
C422 H449 0.931 . S
C423 C420 1.374 . S
C423 C424 1.390 . S
C423 H450 0.930 . S
C424 C423 1.390 . S
C424 C425 1.391 . S
C424 H451 0.930 . S
C425 C421 1.387 . S
C425 C424 1.391 . S
C426 Tb416 2.825 . S
C426 C420 1.507 . S
C426 O439 1.238 . S
C426 O440 1.247 . S
O427 Tb416 2.347 1_545 S
O427 C431 1.259 . S
O428 Eu417 2.418 . S
O428 C431 1.265 . S
O429 Eu417 2.384 . S
O429 C438 1.255 . S
O430 Tb416 2.366 . S
O430 C438 1.265 1_565 S
C431 O427 1.259 . S
C431 O428 1.265 . S
O432 Eu417 2.479 . S
O432 C447 1.238 . S
O433 Eu417 2.471 . S
O433 C447 1.247 . S
O434 Eu417 2.347 . S
O434 C418 1.259 . S
O435 Tb416 2.416 . S
O435 C418 1.248 1_565 S
O436 Tb416 2.384 1_545 S
O436 C419 1.255 . S
O437 Eu417 2.366 . S
O437 C419 1.265 . S
C438 O429 1.255 . S
C438 O430 1.265 1_545 S
O439 Tb416 2.479 . S
O439 C426 1.238 . S
O440 Tb416 2.471 . S
O440 C426 1.247 . S
C441 C444 1.380 . S
C441 C445 1.374 . S
C441 C447 1.507 . S
C442 C443 1.387 . S
C442 C446 1.391 . S
C443 C442 1.387 . S
C443 C444 1.384 . S
C443 H452 0.930 . S
C444 C441 1.380 . S
C444 C443 1.384 . S
C444 H453 0.931 . S
C445 C441 1.374 . S
C445 C446 1.390 . S
C445 H454 0.930 . S
C446 C442 1.391 . S
C446 C445 1.390 . S
C446 H455 0.930 . S
C447 Eu417 2.825 . S
C447 O432 1.238 . S
C447 O433 1.247 . S
C447 C441 1.507 . S
H448 C421 0.930 . S
H449 C422 0.931 . S
H450 C423 0.930 . S
H451 C424 0.930 . S
H452 C443 0.930 . S
H453 C444 0.931 . S
H454 C445 0.930 . S
H455 C446 0.930 . S
Tb456 C466 2.825 . S
Tb456 O467 2.347 . S
Tb456 O470 2.366 . S
Tb456 O475 2.418 . S
Tb456 O476 2.384 . S
Tb456 O479 2.479 . S
Tb456 O480 2.471 . S
Eu457 O468 2.418 . S
Eu457 O469 2.384 . S
Eu457 O472 2.479 . S
Eu457 O473 2.471 . S
Eu457 O474 2.347 . S
Eu457 O477 2.366 . S
Eu457 C487 2.825 . S
C458 O474 1.259 . S
C458 O475 1.265 . S
C459 O476 1.255 . S
C459 O477 1.265 . S
C460 C462 1.380 . S
C460 C463 1.374 . S
C460 C466 1.507 . S
C461 C462 1.384 . S
C461 C465 1.387 . S
C461 H488 0.930 . S
C462 C460 1.380 . S
C462 C461 1.384 . S
C462 H489 0.931 . S
C463 C460 1.374 . S
C463 C464 1.390 . S
C463 H490 0.930 . S
C464 C463 1.390 . S
C464 C465 1.391 . S
C464 H491 0.930 . S
C465 C461 1.387 . S
C465 C464 1.391 . S
C466 Tb456 2.825 . S
C466 C460 1.507 . S
C466 O479 1.238 . S
C466 O480 1.247 . S
O467 Tb456 2.347 . S
O467 C471 1.259 . S
O468 Eu457 2.418 . S
O468 C471 1.265 . S
O469 Eu457 2.384 . S
O469 C478 1.255 . S
O470 Tb456 2.366 . S
O470 C478 1.265 . S
C471 O467 1.259 . S
C471 O468 1.265 . S
O472 Eu457 2.479 . S
O472 C487 1.238 . S
O473 Eu457 2.471 . S
O473 C487 1.247 . S
O474 Eu457 2.347 . S
O474 C458 1.259 . S
O475 Tb456 2.418 . S
O475 C458 1.265 . S
O476 Tb456 2.384 . S
O476 C459 1.255 . S
O477 Eu457 2.366 . S
O477 C459 1.265 . S
C478 O469 1.255 . S
C478 O470 1.265 . S
O479 Tb456 2.479 . S
O479 C466 1.238 . S
O480 Tb456 2.471 . S
O480 C466 1.247 . S
C481 C484 1.380 . S
C481 C485 1.374 . S
C481 C487 1.507 . S
C482 C483 1.387 . S
C482 C486 1.391 . S
C483 C482 1.387 . S
C483 C484 1.384 . S
C483 H492 0.930 . S
C484 C481 1.380 . S
C484 C483 1.384 . S
C484 H493 0.931 . S
C485 C481 1.374 . S
C485 C486 1.390 . S
C485 H494 0.930 . S
C486 C482 1.391 . S
C486 C485 1.390 . S
C486 H495 0.930 . S
C487 Eu457 2.825 . S
C487 O472 1.238 . S
C487 O473 1.247 . S
C487 C481 1.507 . S
H488 C461 0.930 . S
H489 C462 0.931 . S
H490 C463 0.930 . S
H491 C464 0.930 . S
H492 C483 0.930 . S
H493 C484 0.931 . S
H494 C485 0.930 . S
H495 C486 0.930 . S
Tb496 C506 2.825 . S
Tb496 O507 2.347 . S
Tb496 O510 2.366 . S
Tb496 O515 2.418 . S
Tb496 O516 2.384 1_545 S
Tb496 O519 2.479 . S
Tb496 O520 2.471 . S
Eu497 O508 2.418 . S
Eu497 O509 2.384 . S
Eu497 O512 2.479 . S
Eu497 O513 2.471 . S
Eu497 O514 2.347 . S
Eu497 O517 2.366 . S
Eu497 C527 2.825 . S
C498 O514 1.259 . S
C498 O515 1.265 . S
C499 O516 1.255 . S
C499 O517 1.265 1_565 S
C500 C502 1.380 . S
C500 C503 1.374 1_455 S
C500 C506 1.507 . S
C501 C502 1.384 . S
C501 C505 1.387 1_455 S
C501 H528 0.930 . S
C502 C500 1.380 . S
C502 C501 1.384 . S
C502 H529 0.931 . S
C503 C500 1.374 1_655 S
C503 C504 1.390 . S
C503 H530 0.930 . S
C504 C503 1.390 . S
C504 C505 1.391 . S
C504 H531 0.930 . S
C505 C501 1.387 1_655 S
C505 C504 1.391 . S
C506 Tb496 2.825 . S
C506 C500 1.507 . S
C506 O519 1.238 . S
C506 O520 1.247 . S
O507 Tb496 2.347 . S
O507 C511 1.259 . S
O508 Eu497 2.418 . S
O508 C511 1.265 . S
O509 Eu497 2.384 . S
O509 C518 1.255 . S
O510 Tb496 2.366 . S
O510 C518 1.265 . S
C511 O507 1.259 . S
C511 O508 1.265 . S
O512 Eu497 2.479 . S
O512 C527 1.238 . S
O513 Eu497 2.471 . S
O513 C527 1.247 . S
O514 Eu497 2.347 . S
O514 C498 1.259 . S
O515 Tb496 2.418 . S
O515 C498 1.265 . S
O516 Tb496 2.384 1_565 S
O516 C499 1.255 . S
O517 Eu497 2.366 . S
O517 C499 1.265 1_545 S
C518 O509 1.255 . S
C518 O510 1.265 . S
O519 Tb496 2.479 . S
O519 C506 1.238 . S
O520 Tb496 2.471 . S
O520 C506 1.247 . S
C521 C524 1.380 . S
C521 C525 1.374 . S
C521 C527 1.507 . S
C522 C523 1.387 . S
C522 C526 1.391 . S
C523 C522 1.387 . S
C523 C524 1.384 . S
C523 H532 0.930 . S
C524 C521 1.380 . S
C524 C523 1.384 . S
C524 H533 0.931 . S
C525 C521 1.374 . S
C525 C526 1.390 . S
C525 H534 0.930 . S
C526 C522 1.391 . S
C526 C525 1.390 . S
C526 H535 0.930 . S
C527 Eu497 2.825 . S
C527 O512 1.238 . S
C527 O513 1.247 . S
C527 C521 1.507 . S
H528 C501 0.930 . S
H529 C502 0.931 . S
H530 C503 0.930 . S
H531 C504 0.930 . S
H532 C523 0.930 . S
H533 C524 0.931 . S
H534 C525 0.930 . S
H535 C526 0.930 . S
Tb536 C546 2.825 . S
Tb536 O547 2.347 . S
Tb536 O550 2.366 . S
Tb536 O555 2.418 . S
Tb536 O556 2.384 . S
Tb536 O559 2.479 . S
Tb536 O560 2.471 . S
Eu537 O548 2.418 . S
Eu537 O549 2.384 . S
Eu537 O552 2.479 . S
Eu537 O553 2.471 . S
Eu537 O554 2.347 . S
Eu537 O557 2.366 . S
Eu537 C567 2.825 . S
C538 O554 1.259 . S
C538 O555 1.265 . S
C539 O556 1.255 . S
C539 O557 1.265 . S
C540 C542 1.380 . S
C540 C543 1.374 . S
C540 C546 1.507 . S
C541 C542 1.384 . S
C541 C545 1.387 . S
C541 H568 0.930 . S
C542 C540 1.380 . S
C542 C541 1.384 . S
C542 H569 0.931 . S
C543 C540 1.374 . S
C543 C544 1.390 . S
C543 H570 0.930 . S
C544 C543 1.390 . S
C544 C545 1.391 . S
C544 H571 0.930 . S
C545 C541 1.387 . S
C545 C544 1.391 . S
C546 Tb536 2.825 . S
C546 C540 1.507 . S
C546 O559 1.238 . S
C546 O560 1.247 . S
O547 Tb536 2.347 . S
O547 C551 1.259 . S
O548 Eu537 2.418 . S
O548 C551 1.265 . S
O549 Eu537 2.384 . S
O549 C558 1.255 . S
O550 Tb536 2.366 . S
O550 C558 1.265 . S
C551 O547 1.259 . S
C551 O548 1.265 . S
O552 Eu537 2.479 . S
O552 C567 1.238 . S
O553 Eu537 2.471 . S
O553 C567 1.247 . S
O554 Eu537 2.347 . S
O554 C538 1.259 . S
O555 Tb536 2.418 . S
O555 C538 1.265 . S
O556 Tb536 2.384 . S
O556 C539 1.255 . S
O557 Eu537 2.366 . S
O557 C539 1.265 . S
C558 O549 1.255 . S
C558 O550 1.265 . S
O559 Tb536 2.479 . S
O559 C546 1.238 . S
O560 Tb536 2.471 . S
O560 C546 1.247 . S
C561 C564 1.380 . S
C561 C565 1.374 . S
C561 C567 1.507 . S
C562 C563 1.387 . S
C562 C566 1.391 . S
C563 C562 1.387 . S
C563 C564 1.384 . S
C563 H572 0.930 . S
C564 C561 1.380 . S
C564 C563 1.384 . S
C564 H573 0.931 . S
C565 C561 1.374 . S
C565 C566 1.390 . S
C565 H574 0.930 . S
C566 C562 1.391 . S
C566 C565 1.390 . S
C566 H575 0.930 . S
C567 Eu537 2.825 . S
C567 O552 1.238 . S
C567 O553 1.247 . S
C567 C561 1.507 . S
H568 C541 0.930 . S
H569 C542 0.931 . S
H570 C543 0.930 . S
H571 C544 0.930 . S
H572 C563 0.930 . S
H573 C564 0.931 . S
H574 C565 0.930 . S
H575 C566 0.930 . S
Tb576 C586 2.825 . S
Tb576 O587 2.347 . S
Tb576 O590 2.366 . S
Tb576 O595 2.418 1_545 S
Tb576 O596 2.384 . S
Tb576 O599 2.479 . S
Tb576 O600 2.471 . S
Eu577 O588 2.418 1_556 S
Eu577 O589 2.384 1_556 S
Eu577 O592 2.479 . S
Eu577 O593 2.471 . S
Eu577 O594 2.347 1_556 S
Eu577 O597 2.366 . S
Eu577 C607 2.825 . S
C578 O594 1.253 1_565 S
C578 O595 1.266 . S
C579 O596 1.255 . S
C579 O597 1.265 1_554 S
C580 C582 1.380 . S
C580 C583 1.374 . S
C580 C586 1.507 . S
C581 C582 1.384 . S
C581 C585 1.387 . S
C581 H608 0.930 1_545 S
C582 C580 1.380 . S
C582 C581 1.384 . S
C582 H609 0.931 1_545 S
C583 C580 1.374 . S
C583 C584 1.390 . S
C583 H610 0.930 . S
C584 C583 1.390 . S
C584 C585 1.391 . S
C584 H611 0.930 . S
C585 C581 1.387 . S
C585 C584 1.391 . S
C586 Tb576 2.825 . S
C586 C580 1.507 . S
C586 O599 1.238 . S
C586 O600 1.247 . S
O587 Tb576 2.347 . S
O587 C591 1.259 . S
O588 Eu577 2.418 1_554 S
O588 C591 1.265 . S
O589 Eu577 2.384 1_554 S
O589 C598 1.255 . S
O590 Tb576 2.366 . S
O590 C598 1.265 . S
C591 O587 1.259 . S
C591 O588 1.265 . S
O592 Eu577 2.479 . S
O592 C607 1.238 . S
O593 Eu577 2.471 . S
O593 C607 1.247 . S
O594 Eu577 2.347 1_554 S
O594 C578 1.253 1_545 S
O595 Tb576 2.418 1_565 S
O595 C578 1.266 . S
O596 Tb576 2.384 . S
O596 C579 1.255 . S
O597 Eu577 2.366 . S
O597 C579 1.265 1_556 S
C598 O589 1.255 . S
C598 O590 1.265 . S
O599 Tb576 2.479 . S
O599 C586 1.238 . S
O600 Tb576 2.471 . S
O600 C586 1.247 . S
C601 C604 1.380 . S
C601 C605 1.374 . S
C601 C607 1.507 . S
C602 C603 1.387 . S
C602 C606 1.391 . S
C603 C602 1.387 . S
C603 C604 1.384 . S
C603 H612 0.930 . S
C604 C601 1.380 . S
C604 C603 1.384 . S
C604 H613 0.931 . S
C605 C601 1.374 . S
C605 C606 1.390 . S
C605 H614 0.930 . S
C606 C602 1.391 . S
C606 C605 1.390 . S
C606 H615 0.930 . S
C607 Eu577 2.825 . S
C607 O592 1.238 . S
C607 O593 1.247 . S
C607 C601 1.507 . S
H608 C581 0.930 1_565 S
H609 C582 0.931 1_565 S
H610 C583 0.930 . S
H611 C584 0.930 . S
H612 C603 0.930 . S
H613 C604 0.931 . S
H614 C605 0.930 . S
H615 C606 0.930 . S
Tb616 C626 2.825 . S
Tb616 O627 2.347 . S
Tb616 O630 2.366 . S
Tb616 O635 2.418 . S
Tb616 O636 2.384 . S
Tb616 O639 2.479 . S
Tb616 O640 2.471 . S
Eu617 O628 2.418 . S
Eu617 O629 2.384 . S
Eu617 O632 2.479 . S
Eu617 O633 2.471 . S
Eu617 O634 2.347 . S
Eu617 O637 2.366 . S
Eu617 C647 2.825 . S
C618 O634 1.259 . S
C618 O635 1.265 . S
C619 O636 1.255 . S
C619 O637 1.265 . S
C620 C622 1.380 . S
C620 C623 1.374 . S
C620 C626 1.507 . S
C621 C622 1.384 . S
C621 C625 1.387 . S
C621 H648 0.930 . S
C622 C620 1.380 . S
C622 C621 1.384 . S
C622 H649 0.931 . S
C623 C620 1.374 . S
C623 C624 1.390 . S
C623 H650 0.930 . S
C624 C623 1.390 . S
C624 C625 1.391 . S
C624 H651 0.930 . S
C625 C621 1.387 . S
C625 C624 1.391 . S
C626 Tb616 2.825 . S
C626 C620 1.507 . S
C626 O639 1.238 . S
C626 O640 1.247 . S
O627 Tb616 2.347 . S
O627 C631 1.259 . S
O628 Eu617 2.418 . S
O628 C631 1.265 . S
O629 Eu617 2.384 . S
O629 C638 1.255 . S
O630 Tb616 2.366 . S
O630 C638 1.265 . S
C631 O627 1.259 . S
C631 O628 1.265 . S
O632 Eu617 2.479 . S
O632 C647 1.238 . S
O633 Eu617 2.471 . S
O633 C647 1.247 . S
O634 Eu617 2.347 . S
O634 C618 1.259 . S
O635 Tb616 2.418 . S
O635 C618 1.265 . S
O636 Tb616 2.384 . S
O636 C619 1.255 . S
O637 Eu617 2.366 . S
O637 C619 1.265 . S
C638 O629 1.255 . S
C638 O630 1.265 . S
O639 Tb616 2.479 . S
O639 C626 1.238 . S
O640 Tb616 2.471 . S
O640 C626 1.247 . S
C641 C644 1.380 . S
C641 C645 1.374 . S
C641 C647 1.507 . S
C642 C643 1.387 . S
C642 C646 1.391 . S
C643 C642 1.387 . S
C643 C644 1.384 . S
C643 H652 0.930 . S
C644 C641 1.380 . S
C644 C643 1.384 . S
C644 H653 0.931 . S
C645 C641 1.374 . S
C645 C646 1.390 . S
C645 H654 0.930 . S
C646 C642 1.391 . S
C646 C645 1.390 . S
C646 H655 0.930 . S
C647 Eu617 2.825 . S
C647 O632 1.238 . S
C647 O633 1.247 . S
C647 C641 1.507 . S
H648 C621 0.930 . S
H649 C622 0.931 . S
H650 C623 0.930 . S
H651 C624 0.930 . S
H652 C643 0.930 . S
H653 C644 0.931 . S
H654 C645 0.930 . S
H655 C646 0.930 . S
Tb656 C666 2.825 . S
Tb656 O667 2.347 1_556 S
Tb656 O670 2.366 . S
Tb656 O675 2.418 . S
Tb656 O676 2.384 1_556 S
Tb656 O679 2.479 . S
Tb656 O680 2.471 . S
Eu657 O668 2.418 . S
Eu657 O669 2.384 . S
Eu657 O672 2.479 . S
Eu657 O673 2.471 . S
Eu657 O674 2.347 . S
Eu657 O677 2.366 . S
Eu657 C687 2.825 . S
C658 O674 1.259 . S
C658 O675 1.265 1_554 S
C659 O676 1.255 . S
C659 O677 1.265 . S
C660 C662 1.380 . S
C660 C663 1.374 . S
C660 C666 1.507 . S
C661 C662 1.384 . S
C661 C665 1.387 . S
C661 H688 0.930 . S
C662 C660 1.380 . S
C662 C661 1.384 . S
C662 H689 0.931 . S
C663 C660 1.374 . S
C663 C664 1.390 . S
C663 H690 0.930 . S
C664 C663 1.390 . S
C664 C665 1.391 . S
C664 H691 0.930 . S
C665 C661 1.387 . S
C665 C664 1.391 . S
C666 Tb656 2.825 . S
C666 C660 1.507 . S
C666 O679 1.238 . S
C666 O680 1.247 . S
O667 Tb656 2.347 1_554 S
O667 C671 1.259 . S
O668 Eu657 2.418 . S
O668 C671 1.265 . S
O669 Eu657 2.384 . S
O669 C678 1.263 . S
O670 Tb656 2.366 . S
O670 C678 1.260 1_556 S
C671 O667 1.259 . S
C671 O668 1.265 . S
O672 Eu657 2.479 . S
O672 C687 1.238 . S
O673 Eu657 2.471 . S
O673 C687 1.247 . S
O674 Eu657 2.347 . S
O674 C658 1.259 . S
O675 Tb656 2.418 . S
O675 C658 1.265 1_556 S
O676 Tb656 2.384 1_554 S
O676 C659 1.255 . S
O677 Eu657 2.366 . S
O677 C659 1.265 . S
C678 O669 1.263 . S
C678 O670 1.260 1_554 S
O679 Tb656 2.479 . S
O679 C666 1.238 . S
O680 Tb656 2.471 . S
O680 C666 1.247 . S
C681 C684 1.380 . S
C681 C685 1.374 . S
C681 C687 1.507 . S
C682 C683 1.387 . S
C682 C686 1.391 . S
C683 C682 1.387 . S
C683 C684 1.384 . S
C683 H692 0.930 . S
C684 C681 1.380 . S
C684 C683 1.384 . S
C684 H693 0.931 . S
C685 C681 1.374 . S
C685 C686 1.390 . S
C685 H694 0.930 . S
C686 C682 1.391 . S
C686 C685 1.390 . S
C686 H695 0.930 . S
C687 Eu657 2.825 . S
C687 O672 1.238 . S
C687 O673 1.247 . S
C687 C681 1.507 . S
H688 C661 0.930 . S
H689 C662 0.931 . S
H690 C663 0.930 . S
H691 C664 0.930 . S
H692 C683 0.930 . S
H693 C684 0.931 . S
H694 C685 0.930 . S
H695 C686 0.930 . S
Tb696 C706 2.825 . S
Tb696 O707 2.347 . S
Tb696 O710 2.366 . S
Tb696 O715 2.418 . S
Tb696 O716 2.384 . S
Tb696 O719 2.479 . S
Tb696 O720 2.471 . S
Eu697 O708 2.418 . S
Eu697 O709 2.384 . S
Eu697 O712 2.479 . S
Eu697 O713 2.471 . S
Eu697 O714 2.347 . S
Eu697 O717 2.366 . S
Eu697 C727 2.825 . S
C698 O714 1.259 . S
C698 O715 1.265 . S
C699 O716 1.255 . S
C699 O717 1.265 . S
C700 C702 1.380 . S
C700 C703 1.374 . S
C700 C706 1.507 . S
C701 C702 1.384 . S
C701 C705 1.387 . S
C701 H728 0.930 . S
C702 C700 1.380 . S
C702 C701 1.384 . S
C702 H729 0.931 . S
C703 C700 1.374 . S
C703 C704 1.390 . S
C703 H730 0.930 . S
C704 C703 1.390 . S
C704 C705 1.391 . S
C704 H731 0.930 . S
C705 C701 1.387 . S
C705 C704 1.391 . S
C706 Tb696 2.825 . S
C706 C700 1.507 . S
C706 O719 1.238 . S
C706 O720 1.247 . S
O707 Tb696 2.347 . S
O707 C711 1.259 . S
O708 Eu697 2.418 . S
O708 C711 1.265 . S
O709 Eu697 2.384 . S
O709 C718 1.255 . S
O710 Tb696 2.366 . S
O710 C718 1.265 . S
C711 O707 1.259 . S
C711 O708 1.265 . S
O712 Eu697 2.479 . S
O712 C727 1.238 . S
O713 Eu697 2.471 . S
O713 C727 1.247 . S
O714 Eu697 2.347 . S
O714 C698 1.259 . S
O715 Tb696 2.418 . S
O715 C698 1.265 . S
O716 Tb696 2.384 . S
O716 C699 1.255 . S
O717 Eu697 2.366 . S
O717 C699 1.265 . S
C718 O709 1.255 . S
C718 O710 1.265 . S
O719 Tb696 2.479 . S
O719 C706 1.238 . S
O720 Tb696 2.471 . S
O720 C706 1.247 . S
C721 C724 1.380 . S
C721 C725 1.374 . S
C721 C727 1.507 . S
C722 C723 1.387 . S
C722 C726 1.391 . S
C723 C722 1.387 . S
C723 C724 1.384 . S
C723 H732 0.930 . S
C724 C721 1.380 . S
C724 C723 1.384 . S
C724 H733 0.931 . S
C725 C721 1.374 . S
C725 C726 1.390 . S
C725 H734 0.930 . S
C726 C722 1.391 . S
C726 C725 1.390 . S
C726 H735 0.930 . S
C727 Eu697 2.825 . S
C727 O712 1.238 . S
C727 O713 1.247 . S
C727 C721 1.507 . S
H728 C701 0.930 . S
H729 C702 0.931 . S
H730 C703 0.930 . S
H731 C704 0.930 . S
H732 C723 0.930 . S
H733 C724 0.931 . S
H734 C725 0.930 . S
H735 C726 0.930 . S
Tb736 C746 2.825 . S
Tb736 O747 2.347 . S
Tb736 O750 2.366 . S
Tb736 O755 2.418 . S
Tb736 O756 2.384 . S
Tb736 O759 2.479 . S
Tb736 O760 2.471 . S
Eu737 O748 2.418 . S
Eu737 O749 2.340 1_455 S
Eu737 O752 2.479 . S
Eu737 O753 2.471 . S
Eu737 O754 2.347 . S
Eu737 O757 2.366 . S
Eu737 C767 2.825 . S
C738 O754 1.259 . S
C738 O755 1.265 . S
C739 O756 1.255 . S
C739 O757 1.265 . S
C740 C742 1.380 . S
C740 C743 1.374 . S
C740 C746 1.507 . S
C741 C742 1.384 . S
C741 C745 1.387 . S
C741 H768 0.930 . S
C742 C740 1.380 . S
C742 C741 1.384 . S
C742 H769 0.931 . S
C743 C740 1.374 . S
C743 C744 1.390 . S
C743 H770 0.930 . S
C744 C743 1.390 . S
C744 C745 1.391 . S
C744 H771 0.930 1_455 S
C745 C741 1.387 . S
C745 C744 1.391 . S
C746 Tb736 2.825 . S
C746 C740 1.507 . S
C746 O759 1.238 . S
C746 O760 1.247 . S
O747 Tb736 2.347 . S
O747 C751 1.259 . S
O748 Eu737 2.418 . S
O748 C751 1.265 . S
O749 Eu737 2.340 1_655 S
O749 C758 1.261 . S
O750 Tb736 2.366 . S
O750 C758 1.265 1_455 S
C751 O747 1.259 . S
C751 O748 1.265 . S
O752 Eu737 2.479 . S
O752 C767 1.238 . S
O753 Eu737 2.471 . S
O753 C767 1.247 . S
O754 Eu737 2.347 . S
O754 C738 1.259 . S
O755 Tb736 2.418 . S
O755 C738 1.265 . S
O756 Tb736 2.384 . S
O756 C739 1.255 . S
O757 Eu737 2.366 . S
O757 C739 1.265 . S
C758 O749 1.261 . S
C758 O750 1.265 1_655 S
O759 Tb736 2.479 . S
O759 C746 1.238 . S
O760 Tb736 2.471 . S
O760 C746 1.247 . S
C761 C764 1.380 . S
C761 C765 1.374 . S
C761 C767 1.507 . S
C762 C763 1.387 . S
C762 C766 1.391 . S
C763 C762 1.387 . S
C763 C764 1.384 . S
C763 H772 0.930 . S
C764 C761 1.380 . S
C764 C763 1.384 . S
C764 H773 0.931 . S
C765 C761 1.374 . S
C765 C766 1.390 . S
C765 H774 0.930 . S
C766 C762 1.391 . S
C766 C765 1.390 . S
C766 H775 0.930 . S
C767 Eu737 2.825 . S
C767 O752 1.238 . S
C767 O753 1.247 . S
C767 C761 1.507 . S
H768 C741 0.930 . S
H769 C742 0.931 . S
H770 C743 0.930 . S
H771 C744 0.930 1_655 S
H772 C763 0.930 . S
H773 C764 0.931 . S
H774 C765 0.930 . S
H775 C766 0.930 . S
Tb776 C786 2.825 . S
Tb776 O787 2.347 . S
Tb776 O790 2.366 . S
Tb776 O795 2.418 . S
Tb776 O796 2.384 . S
Tb776 O799 2.479 . S
Tb776 O800 2.471 . S
Eu777 O788 2.418 . S
Eu777 O789 2.384 . S
Eu777 O792 2.479 . S
Eu777 O793 2.471 . S
Eu777 O794 2.347 . S
Eu777 O797 2.366 . S
Eu777 C807 2.825 . S
C778 O794 1.259 . S
C778 O795 1.265 . S
C779 O796 1.255 . S
C779 O797 1.265 . S
C780 C782 1.380 . S
C780 C783 1.374 . S
C780 C786 1.507 . S
C781 C782 1.384 . S
C781 C785 1.387 . S
C781 H808 0.930 . S
C782 C780 1.380 . S
C782 C781 1.384 . S
C782 H809 0.931 . S
C783 C780 1.374 . S
C783 C784 1.390 . S
C783 H810 0.930 . S
C784 C783 1.390 . S
C784 C785 1.391 . S
C784 H811 0.930 . S
C785 C781 1.387 . S
C785 C784 1.391 . S
C786 Tb776 2.825 . S
C786 C780 1.507 . S
C786 O799 1.238 . S
C786 O800 1.247 . S
O787 Tb776 2.347 . S
O787 C791 1.259 . S
O788 Eu777 2.418 . S
O788 C791 1.265 . S
O789 Eu777 2.384 . S
O789 C798 1.255 . S
O790 Tb776 2.366 . S
O790 C798 1.265 . S
C791 O787 1.259 . S
C791 O788 1.265 . S
O792 Eu777 2.479 . S
O792 C807 1.238 . S
O793 Eu777 2.471 . S
O793 C807 1.247 . S
O794 Eu777 2.347 . S
O794 C778 1.259 . S
O795 Tb776 2.418 . S
O795 C778 1.265 . S
O796 Tb776 2.384 . S
O796 C779 1.255 . S
O797 Eu777 2.366 . S
O797 C779 1.265 . S
C798 O789 1.255 . S
C798 O790 1.265 . S
O799 Tb776 2.479 . S
O799 C786 1.238 . S
O800 Tb776 2.471 . S
O800 C786 1.247 . S
C801 C804 1.380 . S
C801 C805 1.374 . S
C801 C807 1.507 . S
C802 C803 1.387 . S
C802 C806 1.391 . S
C803 C802 1.387 . S
C803 C804 1.384 . S
C803 H812 0.930 . S
C804 C801 1.380 . S
C804 C803 1.384 . S
C804 H813 0.931 . S
C805 C801 1.374 . S
C805 C806 1.390 . S
C805 H814 0.930 . S
C806 C802 1.391 . S
C806 C805 1.390 . S
C806 H815 0.930 . S
C807 Eu777 2.825 . S
C807 O792 1.238 . S
C807 O793 1.247 . S
C807 C801 1.507 . S
H808 C781 0.930 . S
H809 C782 0.931 . S
H810 C783 0.930 . S
H811 C784 0.930 . S
H812 C803 0.930 . S
H813 C804 0.931 . S
H814 C805 0.930 . S
H815 C806 0.930 . S
Tb816 C826 2.825 . S
Tb816 O827 2.347 . S
Tb816 O830 2.366 . S
Tb816 O835 2.418 . S
Tb816 O836 2.384 . S
Tb816 O839 2.479 . S
Tb816 O840 2.471 . S
Eu817 O828 2.418 . S
Eu817 O829 2.384 . S
Eu817 O832 2.479 . S
Eu817 O833 2.471 . S
Eu817 O834 2.347 . S
Eu817 O837 2.366 . S
Eu817 C847 2.825 . S
C818 O834 1.259 . S
C818 O835 1.265 . S
C819 O836 1.255 . S
C819 O837 1.265 . S
C820 C822 1.380 . S
C820 C823 1.374 . S
C820 C826 1.507 . S
C821 C822 1.384 . S
C821 C825 1.387 . S
C821 H848 0.930 . S
C822 C820 1.380 . S
C822 C821 1.384 . S
C822 H849 0.931 . S
C823 C820 1.374 . S
C823 C824 1.390 . S
C823 H850 0.930 . S
C824 C823 1.390 . S
C824 C825 1.391 . S
C824 H851 0.930 . S
C825 C821 1.387 . S
C825 C824 1.391 . S
C826 Tb816 2.825 . S
C826 C820 1.507 . S
C826 O839 1.238 . S
C826 O840 1.247 . S
O827 Tb816 2.347 . S
O827 C831 1.259 . S
O828 Eu817 2.418 . S
O828 C831 1.265 . S
O829 Eu817 2.384 . S
O829 C838 1.255 . S
O830 Tb816 2.366 . S
O830 C838 1.265 . S
C831 O827 1.259 . S
C831 O828 1.265 . S
O832 Eu817 2.479 . S
O832 C847 1.238 . S
O833 Eu817 2.471 . S
O833 C847 1.247 . S
O834 Eu817 2.347 . S
O834 C818 1.259 . S
O835 Tb816 2.418 . S
O835 C818 1.265 . S
O836 Tb816 2.384 . S
O836 C819 1.255 . S
O837 Eu817 2.366 . S
O837 C819 1.265 . S
C838 O829 1.255 . S
C838 O830 1.265 . S
O839 Tb816 2.479 . S
O839 C826 1.238 . S
O840 Tb816 2.471 . S
O840 C826 1.247 . S
C841 C844 1.380 . S
C841 C845 1.374 . S
C841 C847 1.507 . S
C842 C843 1.387 . S
C842 C846 1.391 . S
C843 C842 1.387 . S
C843 C844 1.384 . S
C843 H852 0.930 . S
C844 C841 1.380 . S
C844 C843 1.384 . S
C844 H853 0.931 . S
C845 C841 1.374 . S
C845 C846 1.390 . S
C845 H854 0.930 . S
C846 C842 1.391 . S
C846 C845 1.390 . S
C846 H855 0.930 . S
C847 Eu817 2.825 . S
C847 O832 1.238 . S
C847 O833 1.247 . S
C847 C841 1.507 . S
H848 C821 0.930 . S
H849 C822 0.931 . S
H850 C823 0.930 . S
H851 C824 0.930 . S
H852 C843 0.930 . S
H853 C844 0.931 . S
H854 C845 0.930 . S
H855 C846 0.930 . S
Tb856 C866 2.825 . S
Tb856 O867 2.347 . S
Tb856 O870 2.366 . S
Tb856 O875 2.418 . S
Tb856 O876 2.384 . S
Tb856 O879 2.479 . S
Tb856 O880 2.471 . S
Eu857 O868 2.418 . S
Eu857 O869 2.384 . S
Eu857 O872 2.479 . S
Eu857 O873 2.471 . S
Eu857 O874 2.347 . S
Eu857 O877 2.366 . S
Eu857 C887 2.825 . S
C858 O874 1.259 . S
C858 O875 1.265 . S
C859 O876 1.255 . S
C859 O877 1.265 . S
C860 C862 1.380 . S
C860 C863 1.374 . S
C860 C866 1.507 . S
C861 C862 1.384 . S
C861 C865 1.387 . S
C861 H888 0.930 . S
C862 C860 1.380 . S
C862 C861 1.384 . S
C862 H889 0.931 . S
C863 C860 1.374 . S
C863 C864 1.390 . S
C863 H890 0.930 . S
C864 C863 1.390 . S
C864 C865 1.391 . S
C864 H891 0.930 . S
C865 C861 1.387 . S
C865 C864 1.391 . S
C866 Tb856 2.825 . S
C866 C860 1.507 . S
C866 O879 1.238 . S
C866 O880 1.247 . S
O867 Tb856 2.347 . S
O867 C871 1.259 . S
O868 Eu857 2.418 . S
O868 C871 1.265 . S
O869 Eu857 2.384 . S
O869 C878 1.255 . S
O870 Tb856 2.366 . S
O870 C878 1.265 . S
C871 O867 1.259 . S
C871 O868 1.265 . S
O872 Eu857 2.479 . S
O872 C887 1.238 . S
O873 Eu857 2.471 . S
O873 C887 1.247 . S
O874 Eu857 2.347 . S
O874 C858 1.259 . S
O875 Tb856 2.418 . S
O875 C858 1.265 . S
O876 Tb856 2.384 . S
O876 C859 1.255 . S
O877 Eu857 2.366 . S
O877 C859 1.265 . S
C878 O869 1.255 . S
C878 O870 1.265 . S
O879 Tb856 2.479 . S
O879 C866 1.238 . S
O880 Tb856 2.471 . S
O880 C866 1.247 . S
C881 C884 1.380 . S
C881 C885 1.374 . S
C881 C887 1.507 . S
C882 C883 1.387 . S
C882 C886 1.391 . S
C883 C882 1.387 . S
C883 C884 1.384 . S
C883 H892 0.930 . S
C884 C881 1.380 . S
C884 C883 1.384 . S
C884 H893 0.931 . S
C885 C881 1.374 . S
C885 C886 1.390 . S
C885 H894 0.930 . S
C886 C882 1.391 . S
C886 C885 1.390 . S
C886 H895 0.930 . S
C887 Eu857 2.825 . S
C887 O872 1.238 . S
C887 O873 1.247 . S
C887 C881 1.507 . S
H888 C861 0.930 . S
H889 C862 0.931 . S
H890 C863 0.930 . S
H891 C864 0.930 . S
H892 C883 0.930 . S
H893 C884 0.931 . S
H894 C885 0.930 . S
H895 C886 0.930 . S
Tb896 C906 2.825 . S
Tb896 O907 2.347 . S
Tb896 O910 2.366 . S
Tb896 O915 2.418 . S
Tb896 O916 2.384 . S
Tb896 O919 2.479 . S
Tb896 O920 2.471 . S
Eu897 O908 2.418 . S
Eu897 O909 2.384 . S
Eu897 O912 2.479 . S
Eu897 O913 2.471 . S
Eu897 O914 2.347 . S
Eu897 O917 2.366 . S
Eu897 C927 2.825 . S
C898 O914 1.259 . S
C898 O915 1.265 . S
C899 O916 1.255 . S
C899 O917 1.265 . S
C900 C902 1.380 . S
C900 C903 1.374 . S
C900 C906 1.507 . S
C901 C902 1.384 . S
C901 C905 1.387 . S
C901 H928 0.930 . S
C902 C900 1.380 . S
C902 C901 1.384 . S
C902 H929 0.931 . S
C903 C900 1.374 . S
C903 C904 1.390 . S
C903 H930 0.930 . S
C904 C903 1.390 . S
C904 C905 1.391 . S
C904 H931 0.930 . S
C905 C901 1.387 . S
C905 C904 1.391 . S
C906 Tb896 2.825 . S
C906 C900 1.507 . S
C906 O919 1.238 . S
C906 O920 1.247 . S
O907 Tb896 2.347 . S
O907 C911 1.259 . S
O908 Eu897 2.418 . S
O908 C911 1.265 . S
O909 Eu897 2.384 . S
O909 C918 1.255 . S
O910 Tb896 2.366 . S
O910 C918 1.265 . S
C911 O907 1.259 . S
C911 O908 1.265 . S
O912 Eu897 2.479 . S
O912 C927 1.238 . S
O913 Eu897 2.471 . S
O913 C927 1.247 . S
O914 Eu897 2.347 . S
O914 C898 1.259 . S
O915 Tb896 2.418 . S
O915 C898 1.265 . S
O916 Tb896 2.384 . S
O916 C899 1.255 . S
O917 Eu897 2.366 . S
O917 C899 1.265 . S
C918 O909 1.255 . S
C918 O910 1.265 . S
O919 Tb896 2.479 . S
O919 C906 1.238 . S
O920 Tb896 2.471 . S
O920 C906 1.247 . S
C921 C924 1.380 . S
C921 C925 1.374 . S
C921 C927 1.507 . S
C922 C923 1.387 . S
C922 C926 1.391 . S
C923 C922 1.387 . S
C923 C924 1.384 . S
C923 H932 0.930 . S
C924 C921 1.380 . S
C924 C923 1.384 . S
C924 H933 0.931 . S
C925 C921 1.374 . S
C925 C926 1.390 . S
C925 H934 0.930 . S
C926 C922 1.391 . S
C926 C925 1.390 . S
C926 H935 0.930 . S
C927 Eu897 2.825 . S
C927 O912 1.238 . S
C927 O913 1.247 . S
C927 C921 1.507 . S
H928 C901 0.930 . S
H929 C902 0.931 . S
H930 C903 0.930 . S
H931 C904 0.930 . S
H932 C923 0.930 . S
H933 C924 0.931 . S
H934 C925 0.930 . S
H935 C926 0.930 . S
Tb936 C946 2.825 . S
Tb936 O947 2.347 1_554 S
Tb936 O950 2.366 . S
Tb936 O955 2.418 . S
Tb936 O956 2.384 . S
Tb936 O959 2.479 . S
Tb936 O960 2.471 1_554 S
Eu937 O948 2.418 1_554 S
Eu937 O949 2.384 . S
Eu937 O952 2.479 . S
Eu937 O953 2.471 . S
Eu937 O954 2.347 . S
Eu937 O957 2.366 . S
Eu937 C967 2.825 . S
C938 O954 1.259 . S
C938 O955 1.265 . S
C939 O956 1.255 . S
C939 O957 1.265 . S
C940 C942 1.380 1_556 S
C940 C943 1.374 . S
C940 C946 1.507 1_556 S
C941 C942 1.384 1_556 S
C941 C945 1.387 . S
C941 H968 0.930 1_556 S
C942 C940 1.380 1_554 S
C942 C941 1.384 1_554 S
C942 H969 0.931 . S
C943 C940 1.374 . S
C943 C944 1.390 . S
C943 H970 0.930 . S
C944 C943 1.390 . S
C944 C945 1.391 . S
C944 H971 0.930 . S
C945 C941 1.387 . S
C945 C944 1.391 . S
C946 Tb936 2.825 . S
C946 C940 1.507 1_554 S
C946 O959 1.238 . S
C946 O960 1.247 1_554 S
O947 Tb936 2.347 1_556 S
O947 C951 1.259 . S
O948 Eu937 2.418 1_556 S
O948 C951 1.265 . S
O949 Eu937 2.384 . S
O949 C958 1.255 . S
O950 Tb936 2.366 . S
O950 C958 1.265 . S
C951 O947 1.259 . S
C951 O948 1.265 . S
O952 Eu937 2.479 . S
O952 C967 1.238 . S
O953 Eu937 2.471 . S
O953 C967 1.247 . S
O954 Eu937 2.347 . S
O954 C938 1.259 . S
O955 Tb936 2.418 . S
O955 C938 1.265 . S
O956 Tb936 2.384 . S
O956 C939 1.255 . S
O957 Eu937 2.366 . S
O957 C939 1.265 . S
C958 O949 1.255 . S
C958 O950 1.265 . S
O959 Tb936 2.479 . S
O959 C946 1.238 . S
O960 Tb936 2.471 1_556 S
O960 C946 1.247 1_556 S
C961 C964 1.380 . S
C961 C965 1.374 . S
C961 C967 1.507 . S
C962 C963 1.387 . S
C962 C966 1.391 . S
C963 C962 1.387 . S
C963 C964 1.384 . S
C963 H972 0.930 . S
C964 C961 1.380 . S
C964 C963 1.384 . S
C964 H973 0.931 . S
C965 C961 1.374 . S
C965 C966 1.390 . S
C965 H974 0.930 . S
C966 C962 1.391 . S
C966 C965 1.390 . S
C966 H975 0.930 . S
C967 Eu937 2.825 . S
C967 O952 1.238 . S
C967 O953 1.247 . S
C967 C961 1.507 . S
H968 C941 0.930 1_554 S
H969 C942 0.931 . S
H970 C943 0.930 . S
H971 C944 0.930 . S
H972 C963 0.930 . S
H973 C964 0.931 . S
H974 C965 0.930 . S
H975 C966 0.930 . S
H976 C984 0.929 . S
H977 C986 0.930 . S
H978 C988 0.930 . S
H979 C991 0.929 . S
H980 C994 0.930 1_655 S
H981 C996 0.960 . S
H982 C996 0.960 . S
H983 C996 0.960 . S
C984 H976 0.929 . S
C984 C985 1.415 . S
C984 C986 1.384 . S
C985 C984 1.415 . S
C985 C991 1.334 1_655 S
C986 H977 0.930 . S
C986 C984 1.384 . S
C986 C987 1.372 1_655 S
C987 C986 1.372 1_455 S
C987 C988 1.400 . S
C987 C992 1.490 . S
C988 H978 0.930 . S
C988 C987 1.400 . S
C988 C991 1.386 . S
H989 C1005 0.930 . S
H990 C1006 0.931 . S
C991 H979 0.929 . S
C991 C985 1.334 1_455 S
C991 C988 1.386 . S
C992 C987 1.490 . S
C992 C994 1.395 . S
C992 C995 1.403 . S
H993 C999 0.930 . S
C994 H980 0.930 1_455 S
C994 C992 1.395 . S
C994 C997 1.403 . S
C995 C992 1.403 . S
C995 C996 1.524 . S
C995 C999 1.400 . S
C996 H981 0.960 . S
C996 H982 0.960 . S
C996 H983 0.960 . S
C996 C995 1.524 . S
C997 C994 1.403 . S
C997 C998 1.392 . S
C997 C1001 1.495 1_455 S
C998 C997 1.392 . S
C998 C999 1.385 . S
C998 C1000 1.478 . S
C999 H993 0.930 . S
C999 C995 1.400 . S
C999 C998 1.385 . S
C1000 C998 1.478 . S
C1000 C1002 1.381 . S
C1000 C1006 1.383 . S
C1001 C997 1.495 1_655 S
C1001 H1007 0.959 . S
C1001 H1008 0.961 1_655 S
C1001 H1009 0.960 . S
C1002 C1000 1.381 . S
C1002 C1003 1.394 1_556 S
C1002 H1010 0.965 . S
C1003 C1002 1.394 1_554 S
C1003 C1004 1.383 . S
C1003 H1011 0.929 . S
C1004 C1003 1.383 . S
C1004 C1005 1.377 1_554 S
C1005 H989 0.930 . S
C1005 C1004 1.377 1_556 S
C1005 C1006 1.379 . S
C1006 H990 0.931 . S
C1006 C1000 1.383 . S
C1006 C1005 1.379 . S
H1007 C1001 0.959 . S
H1008 C1001 0.961 1_455 S
H1009 C1001 0.960 . S
H1010 C1002 0.965 . S
H1011 C1003 0.929 . S
H1012 C1020 0.929 . S
H1013 C1022 0.930 . S
H1014 C1024 0.930 . S
H1015 C1027 0.929 . S
H1016 C1030 0.930 . S
H1017 C1032 0.960 . S
H1018 C1032 0.960 . S
H1019 C1032 0.960 . S
C1020 H1012 0.929 . S
C1020 C1021 1.377 . S
C1020 C1022 1.384 . S
C1021 C1020 1.377 . S
C1021 C1027 1.390 . S
C1022 H1013 0.930 . S
C1022 C1020 1.384 . S
C1022 C1023 1.372 . S
C1023 C1022 1.372 . S
C1023 C1024 1.400 . S
C1023 C1028 1.490 . S
C1024 H1014 0.930 . S
C1024 C1023 1.400 . S
C1024 C1027 1.386 . S
H1025 C1041 0.930 . S
H1026 C1042 0.931 . S
C1027 H1015 0.929 . S
C1027 C1021 1.390 . S
C1027 C1024 1.386 . S
C1028 C1023 1.490 . S
C1028 C1030 1.395 . S
C1028 C1031 1.403 . S
H1029 C1035 0.930 . S
C1030 H1016 0.930 . S
C1030 C1028 1.395 . S
C1030 C1033 1.403 . S
C1031 C1028 1.403 . S
C1031 C1032 1.524 . S
C1031 C1035 1.400 . S
C1032 H1017 0.960 . S
C1032 H1018 0.960 . S
C1032 H1019 0.960 . S
C1032 C1031 1.524 . S
C1033 C1030 1.403 . S
C1033 C1034 1.392 . S
C1033 C1037 1.495 . S
C1034 C1033 1.392 . S
C1034 C1035 1.385 . S
C1034 C1036 1.478 . S
C1035 H1029 0.930 . S
C1035 C1031 1.400 . S
C1035 C1034 1.385 . S
C1036 C1034 1.478 . S
C1036 C1038 1.381 . S
C1036 C1042 1.383 . S
C1037 C1033 1.495 . S
C1037 H1043 0.959 . S
C1037 H1044 0.961 . S
C1037 H1045 0.960 . S
C1038 C1036 1.381 . S
C1038 C1039 1.394 . S
C1038 H1046 0.930 . S
C1039 C1038 1.394 . S
C1039 C1040 1.383 . S
C1039 H1047 0.929 . S
C1040 C1039 1.383 . S
C1040 C1041 1.377 . S
C1041 H1025 0.930 . S
C1041 C1040 1.377 . S
C1041 C1042 1.379 . S
C1042 H1026 0.931 . S
C1042 C1036 1.383 . S
C1042 C1041 1.379 . S
H1043 C1037 0.959 . S
H1044 C1037 0.961 . S
H1045 C1037 0.960 . S
H1046 C1038 0.930 . S
H1047 C1039 0.929 . S
H1048 C1056 0.929 . S
H1049 C1058 0.930 . S
H1050 C1060 0.930 . S
H1051 C1063 0.929 . S
H1052 C1066 0.930 . S
H1053 C1068 0.960 . S
H1054 C1068 0.960 . S
H1055 C1068 0.960 . S
C1056 H1048 0.929 . S
C1056 C1057 1.377 . S
C1056 C1058 1.384 . S
C1057 C1056 1.377 . S
C1057 C1063 1.390 . S
C1058 H1049 0.930 . S
C1058 C1056 1.384 . S
C1058 C1059 1.372 . S
C1059 C1058 1.372 . S
C1059 C1060 1.400 . S
C1059 C1064 1.490 . S
C1060 H1050 0.930 . S
C1060 C1059 1.400 . S
C1060 C1063 1.386 . S
H1061 C1077 0.930 . S
H1062 C1078 0.931 . S
C1063 H1051 0.929 . S
C1063 C1057 1.390 . S
C1063 C1060 1.386 . S
C1064 C1059 1.490 . S
C1064 C1066 1.395 . S
C1064 C1067 1.403 . S
H1065 C1071 0.930 . S
C1066 H1052 0.930 . S
C1066 C1064 1.395 . S
C1066 C1069 1.403 . S
C1067 C1064 1.403 . S
C1067 C1068 1.524 . S
C1067 C1071 1.400 . S
C1068 H1053 0.960 . S
C1068 H1054 0.960 . S
C1068 H1055 0.960 . S
C1068 C1067 1.524 . S
C1069 C1066 1.403 . S
C1069 C1070 1.392 . S
C1069 C1073 1.495 . S
C1070 C1069 1.392 . S
C1070 C1071 1.385 . S
C1070 C1072 1.478 . S
C1071 H1065 0.930 . S
C1071 C1067 1.400 . S
C1071 C1070 1.385 . S
C1072 C1070 1.478 . S
C1072 C1074 1.381 . S
C1072 C1078 1.383 . S
C1073 C1069 1.495 . S
C1073 H1079 0.959 . S
C1073 H1080 0.961 . S
C1073 H1081 0.960 . S
C1074 C1072 1.381 . S
C1074 C1075 1.394 . S
C1074 H1082 0.930 . S
C1075 C1074 1.394 . S
C1075 C1076 1.383 . S
C1075 H1083 0.929 . S
C1076 C1075 1.383 . S
C1076 C1077 1.377 . S
C1077 H1061 0.930 . S
C1077 C1076 1.377 . S
C1077 C1078 1.379 . S
C1078 H1062 0.931 . S
C1078 C1072 1.383 . S
C1078 C1077 1.379 . S
H1079 C1073 0.959 . S
H1080 C1073 0.961 . S
H1081 C1073 0.960 . S
H1082 C1074 0.930 . S
H1083 C1075 0.929 . S
H1084 C1092 0.929 . S
H1085 C1094 0.930 . S
H1086 C1096 0.930 . S
H1087 C1099 0.929 . S
H1088 C1102 0.930 . S
H1089 C1104 0.960 . S
H1090 C1104 0.960 . S
H1091 C1104 0.960 . S
C1092 H1084 0.929 . S
C1092 C1093 1.377 . S
C1092 C1094 1.384 . S
C1093 C1092 1.377 . S
C1093 C1099 1.390 . S
C1094 H1085 0.930 . S
C1094 C1092 1.384 . S
C1094 C1095 1.372 . S
C1095 C1094 1.372 . S
C1095 C1096 1.400 . S
C1095 C1100 1.490 . S
C1096 H1086 0.930 . S
C1096 C1095 1.400 . S
C1096 C1099 1.386 . S
H1097 C1113 0.930 . S
H1098 C1114 0.931 . S
C1099 H1087 0.929 . S
C1099 C1093 1.390 . S
C1099 C1096 1.386 . S
C1100 C1095 1.490 . S
C1100 C1102 1.395 . S
C1100 C1103 1.403 . S
H1101 C1107 0.930 . S
C1102 H1088 0.930 . S
C1102 C1100 1.395 . S
C1102 C1105 1.403 . S
C1103 C1100 1.403 . S
C1103 C1104 1.524 . S
C1103 C1107 1.400 . S
C1104 H1089 0.960 . S
C1104 H1090 0.960 . S
C1104 H1091 0.960 . S
C1104 C1103 1.524 . S
C1105 C1102 1.403 . S
C1105 C1106 1.392 . S
C1105 C1109 1.495 . S
C1106 C1105 1.392 . S
C1106 C1107 1.385 . S
C1106 C1108 1.478 . S
C1107 H1101 0.930 . S
C1107 C1103 1.400 . S
C1107 C1106 1.385 . S
C1108 C1106 1.478 . S
C1108 C1110 1.381 . S
C1108 C1114 1.383 . S
C1109 C1105 1.495 . S
C1109 H1115 0.959 . S
C1109 H1116 0.961 . S
C1109 H1117 0.960 . S
C1110 C1108 1.381 . S
C1110 C1111 1.394 . S
C1110 H1118 0.930 . S
C1111 C1110 1.394 . S
C1111 C1112 1.383 . S
C1111 H1119 0.929 . S
C1112 C1111 1.383 . S
C1112 C1113 1.377 . S
C1113 H1097 0.930 . S
C1113 C1112 1.377 . S
C1113 C1114 1.379 . S
C1114 H1098 0.931 . S
C1114 C1108 1.383 . S
C1114 C1113 1.379 . S
H1115 C1109 0.959 . S
H1116 C1109 0.961 . S
H1117 C1109 0.960 . S
H1118 C1110 0.930 . S
H1119 C1111 0.929 . S
H1120 C1128 0.929 . S
H1121 C1130 0.930 . S
H1122 C1132 0.930 . S
H1123 C1135 0.929 . S
H1124 C1138 0.930 . S
H1125 C1140 0.985 . S
H1126 C1140 0.960 . S
H1127 C1140 0.960 . S
C1128 H1120 0.929 . S
C1128 C1129 1.377 . S
C1128 C1130 1.384 . S
C1129 C1128 1.377 . S
C1129 C1135 1.390 . S
C1130 H1121 0.930 . S
C1130 C1128 1.384 . S
C1130 C1131 1.372 . S
C1131 C1130 1.372 . S
C1131 C1132 1.400 . S
C1131 C1136 1.490 . S
C1132 H1122 0.930 . S
C1132 C1131 1.400 . S
C1132 C1135 1.386 . S
H1133 C1149 0.930 . S
H1134 C1150 0.931 . S
C1135 H1123 0.929 . S
C1135 C1129 1.390 . S
C1135 C1132 1.386 . S
C1136 C1131 1.490 . S
C1136 C1138 1.395 . S
C1136 C1139 1.403 . S
H1137 C1143 0.930 . S
C1138 H1124 0.930 . S
C1138 C1136 1.395 . S
C1138 C1141 1.403 . S
C1139 C1136 1.403 . S
C1139 C1140 1.524 . S
C1139 C1143 1.400 . S
C1140 H1125 0.985 . S
C1140 H1126 0.960 . S
C1140 H1127 0.960 . S
C1140 C1139 1.524 . S
C1141 C1138 1.403 . S
C1141 C1142 1.392 . S
C1141 C1145 1.495 . S
C1142 C1141 1.392 . S
C1142 C1143 1.385 . S
C1142 C1144 1.478 . S
C1143 H1137 0.930 . S
C1143 C1139 1.400 . S
C1143 C1142 1.385 . S
C1144 C1142 1.478 . S
C1144 C1146 1.381 . S
C1144 C1150 1.383 . S
C1145 C1141 1.495 . S
C1145 H1151 0.959 . S
C1145 H1152 0.961 . S
C1145 H1153 0.960 . S
C1146 C1144 1.381 . S
C1146 C1147 1.394 . S
C1146 H1154 0.930 . S
C1147 C1146 1.394 . S
C1147 C1148 1.383 . S
C1147 H1155 0.929 . S
C1148 C1147 1.383 . S
C1148 C1149 1.377 . S
C1149 H1133 0.930 . S
C1149 C1148 1.377 . S
C1149 C1150 1.379 . S
C1150 H1134 0.931 . S
C1150 C1144 1.383 . S
C1150 C1149 1.379 . S
H1151 C1145 0.959 . S
H1152 C1145 0.961 . S
H1153 C1145 0.960 . S
H1154 C1146 0.930 . S
H1155 C1147 0.929 . S
H1156 C1164 0.929 . S
H1157 C1166 0.930 . S
H1158 C1168 0.930 . S
H1159 C1171 0.929 . S
H1160 C1174 0.930 . S
H1161 C1176 0.960 . S
H1162 C1176 0.960 . S
H1163 C1176 0.960 . S
C1164 H1156 0.929 . S
C1164 C1165 1.377 . S
C1164 C1166 1.384 . S
C1165 C1164 1.377 . S
C1165 C1171 1.390 . S
C1166 H1157 0.930 . S
C1166 C1164 1.384 . S
C1166 C1167 1.372 . S
C1167 C1166 1.372 . S
C1167 C1168 1.400 . S
C1167 C1172 1.490 . S
C1168 H1158 0.930 . S
C1168 C1167 1.400 . S
C1168 C1171 1.386 . S
H1169 C1185 0.930 . S
H1170 C1186 0.931 . S
C1171 H1159 0.929 . S
C1171 C1165 1.390 . S
C1171 C1168 1.386 . S
C1172 C1167 1.490 . S
C1172 C1174 1.395 . S
C1172 C1175 1.403 . S
H1173 C1179 0.930 . S
C1174 H1160 0.930 . S
C1174 C1172 1.395 . S
C1174 C1177 1.403 . S
C1175 C1172 1.403 . S
C1175 C1176 1.524 . S
C1175 C1179 1.400 . S
C1176 H1161 0.960 . S
C1176 H1162 0.960 . S
C1176 H1163 0.960 . S
C1176 C1175 1.524 . S
C1177 C1174 1.403 . S
C1177 C1178 1.392 . S
C1177 C1181 1.495 . S
C1178 C1177 1.392 . S
C1178 C1179 1.385 . S
C1178 C1180 1.478 . S
C1179 H1173 0.930 . S
C1179 C1175 1.400 . S
C1179 C1178 1.385 . S
C1180 C1178 1.478 . S
C1180 C1182 1.381 . S
C1180 C1186 1.383 . S
C1181 C1177 1.495 . S
C1181 H1187 0.959 . S
C1181 H1188 0.961 . S
C1181 H1189 0.960 . S
C1182 C1180 1.381 . S
C1182 C1183 1.394 . S
C1182 H1190 0.930 . S
C1183 C1182 1.394 . S
C1183 C1184 1.383 . S
C1183 H1191 0.929 . S
C1184 C1183 1.383 . S
C1184 C1185 1.377 . S
C1185 H1169 0.930 . S
C1185 C1184 1.377 . S
C1185 C1186 1.379 . S
C1186 H1170 0.931 . S
C1186 C1180 1.383 . S
C1186 C1185 1.379 . S
H1187 C1181 0.959 . S
H1188 C1181 0.961 . S
H1189 C1181 0.960 . S
H1190 C1182 0.930 . S
H1191 C1183 0.929 . S
H1192 C1200 0.929 . S
H1193 C1202 0.930 . S
H1194 C1204 0.930 . S
H1195 C1207 0.929 . S
H1196 C1210 0.930 . S
H1197 C1212 0.960 . S
H1198 C1212 0.960 . S
H1199 C1212 0.960 . S
C1200 H1192 0.929 . S
C1200 C1201 1.377 . S
C1200 C1202 1.384 . S
C1201 C1200 1.377 . S
C1201 C1207 1.390 . S
C1202 H1193 0.930 . S
C1202 C1200 1.384 . S
C1202 C1203 1.372 . S
C1203 C1202 1.372 . S
C1203 C1204 1.400 . S
C1203 C1208 1.490 . S
C1204 H1194 0.930 . S
C1204 C1203 1.400 . S
C1204 C1207 1.386 . S
H1205 C1221 0.930 . S
H1206 C1222 0.931 . S
C1207 H1195 0.929 . S
C1207 C1201 1.390 . S
C1207 C1204 1.386 . S
C1208 C1203 1.490 . S
C1208 C1210 1.395 . S
C1208 C1211 1.403 . S
H1209 C1215 0.930 . S
C1210 H1196 0.930 . S
C1210 C1208 1.395 . S
C1210 C1213 1.403 . S
C1211 C1208 1.403 . S
C1211 C1212 1.524 . S
C1211 C1215 1.400 . S
C1212 H1197 0.960 . S
C1212 H1198 0.960 . S
C1212 H1199 0.960 . S
C1212 C1211 1.524 . S
C1213 C1210 1.403 . S
C1213 C1214 1.392 . S
C1213 C1217 1.495 . S
C1214 C1213 1.392 . S
C1214 C1215 1.385 . S
C1214 C1216 1.478 . S
C1215 H1209 0.930 . S
C1215 C1211 1.400 . S
C1215 C1214 1.385 . S
C1216 C1214 1.478 . S
C1216 C1218 1.381 . S
C1216 C1222 1.383 . S
C1217 C1213 1.495 . S
C1217 H1223 0.959 . S
C1217 H1224 0.961 . S
C1217 H1225 0.960 . S
C1218 C1216 1.381 . S
C1218 C1219 1.394 . S
C1218 H1226 0.930 . S
C1219 C1218 1.394 . S
C1219 C1220 1.383 . S
C1219 H1227 0.929 . S
C1220 C1219 1.383 . S
C1220 C1221 1.377 . S
C1221 H1205 0.930 . S
C1221 C1220 1.377 . S
C1221 C1222 1.379 . S
C1222 H1206 0.931 . S
C1222 C1216 1.383 . S
C1222 C1221 1.379 . S
H1223 C1217 0.959 . S
H1224 C1217 0.961 . S
H1225 C1217 0.960 . S
H1226 C1218 0.930 . S
H1227 C1219 0.929 . S
H1228 C1236 0.929 . S
H1229 C1238 0.930 . S
H1230 C1240 0.930 . S
H1231 C1243 0.929 . S
H1232 C1246 0.930 . S
H1233 C1248 0.960 . S
H1234 C1248 0.960 . S
H1235 C1248 0.960 . S
C1236 H1228 0.929 . S
C1236 C1237 1.377 . S
C1236 C1238 1.384 . S
C1237 C1236 1.377 . S
C1237 C1243 1.390 . S
C1238 H1229 0.930 . S
C1238 C1236 1.384 . S
C1238 C1239 1.372 . S
C1239 C1238 1.372 . S
C1239 C1240 1.400 . S
C1239 C1244 1.490 . S
C1240 H1230 0.930 . S
C1240 C1239 1.400 . S
C1240 C1243 1.386 . S
H1241 C1257 0.930 . S
H1242 C1258 0.931 . S
C1243 H1231 0.929 . S
C1243 C1237 1.390 . S
C1243 C1240 1.386 . S
C1244 C1239 1.490 . S
C1244 C1246 1.395 . S
C1244 C1247 1.403 . S
H1245 C1251 0.930 . S
C1246 H1232 0.930 . S
C1246 C1244 1.395 . S
C1246 C1249 1.403 . S
C1247 C1244 1.403 . S
C1247 C1248 1.524 . S
C1247 C1251 1.400 . S
C1248 H1233 0.960 . S
C1248 H1234 0.960 . S
C1248 H1235 0.960 . S
C1248 C1247 1.524 . S
C1249 C1246 1.403 . S
C1249 C1250 1.392 . S
C1249 C1253 1.495 . S
C1250 C1249 1.392 . S
C1250 C1251 1.385 . S
C1250 C1252 1.478 . S
C1251 H1245 0.930 . S
C1251 C1247 1.400 . S
C1251 C1250 1.385 . S
C1252 C1250 1.478 . S
C1252 C1254 1.381 . S
C1252 C1258 1.383 . S
C1253 C1249 1.495 . S
C1253 H1259 0.959 . S
C1253 H1260 0.961 . S
C1253 H1261 0.960 . S
C1254 C1252 1.381 . S
C1254 C1255 1.394 . S
C1254 H1262 0.930 . S
C1255 C1254 1.394 . S
C1255 C1256 1.383 . S
C1255 H1263 0.929 . S
C1256 C1255 1.383 . S
C1256 C1257 1.377 . S
C1257 H1241 0.930 . S
C1257 C1256 1.377 . S
C1257 C1258 1.379 . S
C1258 H1242 0.931 . S
C1258 C1252 1.383 . S
C1258 C1257 1.379 . S
H1259 C1253 0.959 . S
H1260 C1253 0.961 . S
H1261 C1253 0.960 . S
H1262 C1254 0.930 . S
H1263 C1255 0.929 . S
H1264 C1272 0.929 . S
H1265 C1274 0.930 . S
H1266 C1276 0.930 1_565 S
H1267 C1279 0.929 . S
H1268 C1282 0.930 . S
H1269 C1284 0.960 . S
H1270 C1284 0.960 . S
H1271 C1284 0.960 . S
C1272 H1264 0.929 . S
C1272 C1273 1.377 . S
C1272 C1274 1.384 . S
C1273 C1272 1.377 . S
C1273 C1279 1.390 1_545 S
C1274 H1265 0.930 . S
C1274 C1272 1.384 . S
C1274 C1275 1.372 . S
C1275 C1274 1.372 . S
C1275 C1276 1.400 . S
C1275 C1280 1.490 . S
C1276 H1266 0.930 1_545 S
C1276 C1275 1.400 . S
C1276 C1279 1.386 1_545 S
H1277 C1293 0.930 . S
H1278 C1294 0.930 1_655 S
C1279 H1267 0.929 . S
C1279 C1273 1.390 1_565 S
C1279 C1276 1.386 1_565 S
C1280 C1275 1.490 . S
C1280 C1282 1.395 . S
C1280 C1283 1.403 . S
H1281 C1287 0.930 . S
C1282 H1268 0.930 . S
C1282 C1280 1.395 . S
C1282 C1285 1.403 . S
C1283 C1280 1.403 . S
C1283 C1284 1.524 . S
C1283 C1287 1.400 . S
C1284 H1269 0.960 . S
C1284 H1270 0.960 . S
C1284 H1271 0.960 . S
C1284 C1283 1.524 . S
C1285 C1282 1.403 . S
C1285 C1286 1.392 . S
C1285 C1289 1.495 1_655 S
C1286 C1285 1.392 . S
C1286 C1287 1.385 . S
C1286 C1288 1.478 1_655 S
C1287 H1281 0.930 . S
C1287 C1283 1.400 . S
C1287 C1286 1.385 . S
C1288 C1286 1.478 1_455 S
C1288 C1290 1.381 . S
C1288 C1294 1.383 . S
C1289 C1285 1.495 1_455 S
C1289 H1295 0.959 . S
C1289 H1296 0.961 . S
C1289 H1297 0.960 . S
C1290 C1288 1.381 . S
C1290 C1291 1.394 . S
C1290 H1298 0.930 . S
C1291 C1290 1.394 . S
C1291 C1292 1.383 . S
C1291 H1299 0.929 . S
C1292 C1291 1.383 . S
C1292 C1293 1.377 . S
C1293 H1277 0.930 . S
C1293 C1292 1.377 . S
C1293 C1294 1.379 . S
C1294 H1278 0.930 1_455 S
C1294 C1288 1.383 . S
C1294 C1293 1.379 . S
H1295 C1289 0.959 . S
H1296 C1289 0.961 . S
H1297 C1289 0.960 . S
H1298 C1290 0.930 . S
H1299 C1291 0.929 . S
H1300 C1308 0.929 . S
H1301 C1310 0.930 . S
H1302 C1312 0.930 . S
H1303 C1315 0.929 . S
H1304 C1318 0.930 . S
H1305 C1320 0.960 . S
H1306 C1320 0.960 . S
H1307 C1320 0.960 . S
C1308 H1300 0.929 . S
C1308 C1309 1.377 . S
C1308 C1310 1.384 . S
C1309 C1308 1.377 . S
C1309 C1315 1.390 . S
C1310 H1301 0.930 . S
C1310 C1308 1.384 . S
C1310 C1311 1.372 . S
C1311 C1310 1.372 . S
C1311 C1312 1.400 . S
C1311 C1316 1.490 . S
C1312 H1302 0.930 . S
C1312 C1311 1.400 . S
C1312 C1315 1.386 . S
H1313 C1329 0.930 . S
H1314 C1330 0.931 . S
C1315 H1303 0.929 . S
C1315 C1309 1.390 . S
C1315 C1312 1.386 . S
C1316 C1311 1.490 . S
C1316 C1318 1.395 . S
C1316 C1319 1.403 . S
H1317 C1323 0.930 . S
C1318 H1304 0.930 . S
C1318 C1316 1.395 . S
C1318 C1321 1.403 . S
C1319 C1316 1.403 . S
C1319 C1320 1.524 . S
C1319 C1323 1.400 . S
C1320 H1305 0.960 . S
C1320 H1306 0.960 . S
C1320 H1307 0.960 . S
C1320 C1319 1.524 . S
C1321 C1318 1.403 . S
C1321 C1322 1.392 . S
C1321 C1325 1.495 . S
C1322 C1321 1.392 . S
C1322 C1323 1.385 . S
C1322 C1324 1.478 . S
C1323 H1317 0.930 . S
C1323 C1319 1.400 . S
C1323 C1322 1.385 . S
C1324 C1322 1.478 . S
C1324 C1326 1.381 . S
C1324 C1330 1.383 . S
C1325 C1321 1.495 . S
C1325 H1331 0.959 . S
C1325 H1332 0.961 . S
C1325 H1333 0.960 . S
C1326 C1324 1.381 . S
C1326 C1327 1.394 . S
C1326 H1334 0.930 . S
C1327 C1326 1.394 . S
C1327 C1328 1.383 . S
C1327 H1335 0.929 . S
C1328 C1327 1.383 . S
C1328 C1329 1.377 . S
C1329 H1313 0.930 . S
C1329 C1328 1.377 . S
C1329 C1330 1.379 . S
C1330 H1314 0.931 . S
C1330 C1324 1.383 . S
C1330 C1329 1.379 . S
H1331 C1325 0.959 . S
H1332 C1325 0.961 . S
H1333 C1325 0.960 . S
H1334 C1326 0.930 . S
H1335 C1327 0.929 . S
H1336 C1344 0.929 . S
H1337 C1346 0.930 . S
H1338 C1348 0.930 . S
H1339 C1351 0.929 . S
H1340 C1354 0.930 . S
H1341 C1356 0.960 . S
H1342 C1356 0.960 . S
H1343 C1356 0.960 . S
C1344 H1336 0.929 . S
C1344 C1345 1.377 . S
C1344 C1346 1.384 . S
C1345 C1344 1.377 . S
C1345 C1351 1.390 1_565 S
C1346 H1337 0.930 . S
C1346 C1344 1.384 . S
C1346 C1347 1.372 1_565 S
C1347 C1346 1.372 1_545 S
C1347 C1348 1.400 . S
C1347 C1352 1.490 . S
C1348 H1338 0.930 . S
C1348 C1347 1.400 . S
C1348 C1351 1.386 . S
H1349 C1365 0.930 . S
H1350 C1366 0.931 . S
C1351 H1339 0.929 . S
C1351 C1345 1.390 1_545 S
C1351 C1348 1.386 . S
C1352 C1347 1.490 . S
C1352 C1354 1.395 1_545 S
C1352 C1355 1.403 . S
H1353 C1359 0.930 . S
C1354 H1340 0.930 . S
C1354 C1352 1.395 1_565 S
C1354 C1357 1.403 . S
C1355 C1352 1.403 . S
C1355 C1356 1.524 . S
C1355 C1359 1.400 . S
C1356 H1341 0.960 . S
C1356 H1342 0.960 . S
C1356 H1343 0.960 . S
C1356 C1355 1.524 . S
C1357 C1354 1.403 . S
C1357 C1358 1.392 1_565 S
C1357 C1361 1.495 . S
C1358 C1357 1.392 1_545 S
C1358 C1359 1.385 . S
C1358 C1360 1.478 . S
C1359 H1353 0.930 . S
C1359 C1355 1.400 . S
C1359 C1358 1.385 . S
C1360 C1358 1.478 . S
C1360 C1362 1.381 . S
C1360 C1366 1.383 . S
C1361 C1357 1.495 . S
C1361 H1367 0.959 . S
C1361 H1368 0.961 . S
C1361 H1369 0.960 . S
C1362 C1360 1.381 . S
C1362 C1363 1.394 . S
C1362 H1370 0.930 . S
C1363 C1362 1.394 . S
C1363 C1364 1.383 . S
C1363 H1371 0.929 . S
C1364 C1363 1.383 . S
C1364 C1365 1.377 . S
C1365 H1349 0.930 . S
C1365 C1364 1.377 . S
C1365 C1366 1.379 . S
C1366 H1350 0.931 . S
C1366 C1360 1.383 . S
C1366 C1365 1.379 . S
H1367 C1361 0.959 . S
H1368 C1361 0.961 . S
H1369 C1361 0.960 . S
H1370 C1362 0.930 . S
H1371 C1363 0.929 . S
H1372 C1380 0.929 . S
H1373 C1382 0.930 . S
H1374 C1384 0.930 . S
H1375 C1387 0.929 . S
H1376 C1390 0.930 . S
H1377 C1392 0.960 . S
H1378 C1392 0.960 . S
H1379 C1392 0.960 . S
C1380 H1372 0.929 . S
C1380 C1381 1.377 . S
C1380 C1382 1.384 . S
C1381 C1380 1.377 . S
C1381 C1387 1.390 . S
C1382 H1373 0.930 . S
C1382 C1380 1.384 . S
C1382 C1383 1.372 . S
C1383 C1382 1.372 . S
C1383 C1384 1.400 . S
C1383 C1388 1.490 . S
C1384 H1374 0.930 . S
C1384 C1383 1.400 . S
C1384 C1387 1.386 . S
H1385 C1401 0.930 . S
H1386 C1402 0.931 . S
C1387 H1375 0.929 . S
C1387 C1381 1.390 . S
C1387 C1384 1.386 . S
C1388 C1383 1.490 . S
C1388 C1390 1.395 . S
C1388 C1391 1.403 . S
H1389 C1395 0.930 . S
C1390 H1376 0.930 . S
C1390 C1388 1.395 . S
C1390 C1393 1.403 . S
C1391 C1388 1.403 . S
C1391 C1392 1.524 . S
C1391 C1395 1.400 . S
C1392 H1377 0.960 . S
C1392 H1378 0.960 . S
C1392 H1379 0.960 . S
C1392 C1391 1.524 . S
C1393 C1390 1.403 . S
C1393 C1394 1.392 . S
C1393 C1397 1.495 . S
C1394 C1393 1.392 . S
C1394 C1395 1.385 . S
C1394 C1396 1.478 . S
C1395 H1389 0.930 . S
C1395 C1391 1.400 . S
C1395 C1394 1.385 . S
C1396 C1394 1.478 . S
C1396 C1398 1.381 . S
C1396 C1402 1.383 . S
C1397 C1393 1.495 . S
C1397 H1403 0.959 . S
C1397 H1404 0.961 . S
C1397 H1405 0.960 . S
C1398 C1396 1.381 . S
C1398 C1399 1.394 . S
C1398 H1406 0.930 . S
C1399 C1398 1.394 . S
C1399 C1400 1.383 . S
C1399 H1407 0.929 . S
C1400 C1399 1.383 . S
C1400 C1401 1.377 . S
C1401 H1385 0.930 . S
C1401 C1400 1.377 . S
C1401 C1402 1.379 . S
C1402 H1386 0.931 . S
C1402 C1396 1.383 . S
C1402 C1401 1.379 . S
H1403 C1397 0.959 . S
H1404 C1397 0.961 . S
H1405 C1397 0.960 . S
H1406 C1398 0.930 . S
H1407 C1399 0.929 . S
H1408 C1416 0.929 . S
H1409 C1418 0.930 . S
H1410 C1420 0.930 1_565 S
H1411 C1423 0.929 1_565 S
H1412 C1426 0.930 . S
H1413 C1428 0.960 . S
H1414 C1428 0.960 . S
H1415 C1428 0.960 . S
C1416 H1408 0.929 . S
C1416 C1417 1.377 . S
C1416 C1418 1.384 . S
C1417 C1416 1.377 . S
C1417 C1423 1.390 . S
C1418 H1409 0.930 . S
C1418 C1416 1.384 . S
C1418 C1419 1.372 . S
C1419 C1418 1.372 . S
C1419 C1420 1.400 . S
C1419 C1424 1.490 . S
C1420 H1410 0.930 1_545 S
C1420 C1419 1.400 . S
C1420 C1423 1.386 . S
H1421 C1437 0.975 . S
H1422 C1438 0.931 . S
C1423 H1411 0.929 1_545 S
C1423 C1417 1.390 . S
C1423 C1420 1.386 . S
C1424 C1419 1.490 . S
C1424 C1426 1.395 . S
C1424 C1427 1.403 . S
H1425 C1431 0.930 . S
C1426 H1412 0.930 . S
C1426 C1424 1.395 . S
C1426 C1429 1.403 . S
C1427 C1424 1.403 . S
C1427 C1428 1.524 . S
C1427 C1431 1.400 . S
C1428 H1413 0.960 . S
C1428 H1414 0.960 . S
C1428 H1415 0.960 . S
C1428 C1427 1.524 . S
C1429 C1426 1.403 . S
C1429 C1430 1.392 . S
C1429 C1433 1.495 . S
C1430 C1429 1.392 . S
C1430 C1431 1.385 . S
C1430 C1432 1.478 . S
C1431 H1425 0.930 . S
C1431 C1427 1.400 . S
C1431 C1430 1.385 . S
C1432 C1430 1.478 . S
C1432 C1434 1.381 . S
C1432 C1438 1.383 . S
C1433 C1429 1.495 . S
C1433 H1439 0.960 1_545 S
C1433 H1440 0.961 1_545 S
C1433 H1441 0.960 . S
C1434 C1432 1.381 . S
C1434 C1435 1.394 . S
C1434 H1442 0.930 . S
C1435 C1434 1.394 . S
C1435 C1436 1.383 . S
C1435 H1443 0.929 . S
C1436 C1435 1.383 . S
C1436 C1437 1.355 1_655 S
C1437 H1421 0.975 . S
C1437 C1436 1.355 1_455 S
C1437 C1438 1.359 1_455 S
C1438 H1422 0.931 . S
C1438 C1432 1.383 . S
C1438 C1437 1.359 1_655 S
H1439 C1433 0.960 1_565 S
H1440 C1433 0.961 1_565 S
H1441 C1433 0.960 . S
H1442 C1434 0.930 . S
H1443 C1435 0.929 . S
H1444 C1452 0.929 . S
H1445 C1454 0.930 . S
H1446 C1456 0.930 . S
H1447 C1459 0.929 . S
H1448 C1462 0.930 . S
H1449 C1464 0.960 . S
H1450 C1464 0.960 . S
H1451 C1464 0.960 . S
C1452 H1444 0.929 . S
C1452 C1453 1.377 . S
C1452 C1454 1.384 . S
C1453 C1452 1.377 . S
C1453 C1459 1.390 . S
C1454 H1445 0.930 . S
C1454 C1452 1.384 . S
C1454 C1455 1.372 . S
C1455 C1454 1.372 . S
C1455 C1456 1.400 . S
C1455 C1460 1.490 . S
C1456 H1446 0.930 . S
C1456 C1455 1.400 . S
C1456 C1459 1.386 . S
H1457 C1473 0.930 . S
H1458 C1474 0.931 . S
C1459 H1447 0.929 . S
C1459 C1453 1.390 . S
C1459 C1456 1.386 . S
C1460 C1455 1.490 . S
C1460 C1462 1.395 . S
C1460 C1463 1.403 . S
H1461 C1467 0.930 . S
C1462 H1448 0.930 . S
C1462 C1460 1.395 . S
C1462 C1465 1.403 . S
C1463 C1460 1.403 . S
C1463 C1464 1.524 . S
C1463 C1467 1.400 . S
C1464 H1449 0.960 . S
C1464 H1450 0.960 . S
C1464 H1451 0.960 . S
C1464 C1463 1.524 . S
C1465 C1462 1.403 . S
C1465 C1466 1.392 . S
C1465 C1469 1.495 . S
C1466 C1465 1.392 . S
C1466 C1467 1.385 . S
C1466 C1468 1.478 . S
C1467 H1461 0.930 . S
C1467 C1463 1.400 . S
C1467 C1466 1.385 . S
C1468 C1466 1.478 . S
C1468 C1470 1.381 . S
C1468 C1474 1.383 . S
C1469 C1465 1.495 . S
C1469 H1475 0.959 . S
C1469 H1476 0.961 . S
C1469 H1477 0.960 . S
C1470 C1468 1.381 . S
C1470 C1471 1.394 . S
C1470 H1478 0.930 . S
C1471 C1470 1.394 . S
C1471 C1472 1.383 . S
C1471 H1479 0.929 . S
C1472 C1471 1.383 . S
C1472 C1473 1.377 . S
C1473 H1457 0.930 . S
C1473 C1472 1.377 . S
C1473 C1474 1.379 . S
C1474 H1458 0.931 . S
C1474 C1468 1.383 . S
C1474 C1473 1.379 . S
H1475 C1469 0.959 . S
H1476 C1469 0.961 . S
H1477 C1469 0.960 . S
H1478 C1470 0.930 . S
H1479 C1471 0.929 . S
H1480 C1488 0.929 . S
H1481 C1490 0.930 . S
H1482 C1492 0.930 . S
H1483 C1495 0.929 . S
H1484 C1498 0.930 . S
H1485 C1500 0.960 . S
H1486 C1500 1.021 . S
H1487 C1500 0.960 . S
C1488 H1480 0.929 . S
C1488 C1489 1.377 . S
C1488 C1490 1.384 . S
C1489 C1488 1.377 . S
C1489 C1495 1.390 1_565 S
C1490 H1481 0.930 . S
C1490 C1488 1.384 . S
C1490 C1491 1.372 1_565 S
C1491 C1490 1.372 1_545 S
C1491 C1492 1.400 . S
C1491 C1496 1.490 . S
C1492 H1482 0.930 . S
C1492 C1491 1.400 . S
C1492 C1495 1.386 . S
H1493 C1509 0.930 . S
H1494 C1510 0.931 . S
C1495 H1483 0.929 . S
C1495 C1489 1.390 1_545 S
C1495 C1492 1.386 . S
C1496 C1491 1.490 . S
C1496 C1498 1.395 . S
C1496 C1499 1.403 . S
H1497 C1503 0.930 . S
C1498 H1484 0.930 . S
C1498 C1496 1.395 . S
C1498 C1501 1.403 . S
C1499 C1496 1.403 . S
C1499 C1500 1.524 . S
C1499 C1503 1.400 . S
C1500 H1485 0.960 . S
C1500 H1486 1.021 . S
C1500 H1487 0.960 . S
C1500 C1499 1.524 . S
C1501 C1498 1.403 . S
C1501 C1502 1.392 . S
C1501 C1505 1.495 . S
C1502 C1501 1.392 . S
C1502 C1503 1.385 . S
C1502 C1504 1.478 . S
C1503 H1497 0.930 . S
C1503 C1499 1.400 . S
C1503 C1502 1.385 . S
C1504 C1502 1.478 . S
C1504 C1506 1.381 . S
C1504 C1510 1.383 . S
C1505 C1501 1.495 . S
C1505 H1511 0.959 . S
C1505 H1512 0.961 . S
C1505 H1513 0.960 . S
C1506 C1504 1.381 . S
C1506 C1507 1.394 . S
C1506 H1514 0.930 . S
C1507 C1506 1.394 . S
C1507 C1508 1.383 . S
C1507 H1515 0.929 . S
C1508 C1507 1.383 . S
C1508 C1509 1.377 . S
C1509 H1493 0.930 . S
C1509 C1508 1.377 . S
C1509 C1510 1.379 . S
C1510 H1494 0.931 . S
C1510 C1504 1.383 . S
C1510 C1509 1.379 . S
H1511 C1505 0.959 . S
H1512 C1505 0.961 . S
H1513 C1505 0.960 . S
H1514 C1506 0.930 . S
H1515 C1507 0.929 . S
H1516 C1524 0.929 . S
H1517 C1526 0.930 . S
H1518 C1528 0.930 . S
H1519 C1531 0.929 . S
H1520 C1534 0.930 . S
H1521 C1536 0.960 . S
H1522 C1536 0.960 . S
H1523 C1536 0.960 . S
C1524 H1516 0.929 . S
C1524 C1525 1.377 . S
C1524 C1526 1.384 . S
C1525 C1524 1.377 . S
C1525 C1531 1.390 . S
C1526 H1517 0.930 . S
C1526 C1524 1.384 . S
C1526 C1527 1.372 . S
C1527 C1526 1.372 . S
C1527 C1528 1.400 . S
C1527 C1532 1.490 . S
C1528 H1518 0.930 . S
C1528 C1527 1.400 . S
C1528 C1531 1.386 . S
H1529 C1545 0.930 . S
H1530 C1546 0.931 . S
C1531 H1519 0.929 . S
C1531 C1525 1.390 . S
C1531 C1528 1.386 . S
C1532 C1527 1.490 . S
C1532 C1534 1.395 . S
C1532 C1535 1.403 . S
H1533 C1539 0.930 . S
C1534 H1520 0.930 . S
C1534 C1532 1.395 . S
C1534 C1537 1.403 . S
C1535 C1532 1.403 . S
C1535 C1536 1.524 . S
C1535 C1539 1.400 . S
C1536 H1521 0.960 . S
C1536 H1522 0.960 . S
C1536 H1523 0.960 . S
C1536 C1535 1.524 . S
C1537 C1534 1.403 . S
C1537 C1538 1.392 . S
C1537 C1541 1.495 . S
C1538 C1537 1.392 . S
C1538 C1539 1.385 . S
C1538 C1540 1.478 . S
C1539 H1533 0.930 . S
C1539 C1535 1.400 . S
C1539 C1538 1.385 . S
C1540 C1538 1.478 . S
C1540 C1542 1.381 . S
C1540 C1546 1.383 . S
C1541 C1537 1.495 . S
C1541 H1547 0.959 . S
C1541 H1548 0.961 . S
C1541 H1549 0.960 . S
C1542 C1540 1.381 . S
C1542 C1543 1.394 . S
C1542 H1550 0.930 . S
C1543 C1542 1.394 . S
C1543 C1544 1.383 . S
C1543 H1551 0.929 . S
C1544 C1543 1.383 . S
C1544 C1545 1.377 . S
C1545 H1529 0.930 . S
C1545 C1544 1.377 . S
C1545 C1546 1.379 . S
C1546 H1530 0.931 . S
C1546 C1540 1.383 . S
C1546 C1545 1.379 . S
H1547 C1541 0.959 . S
H1548 C1541 0.961 . S
H1549 C1541 0.960 . S
H1550 C1542 0.930 . S
H1551 C1543 0.929 . S
H1552 C1560 0.929 . S
H1553 C1562 0.930 . S
H1554 C1564 0.930 . S
H1555 C1567 0.929 . S
H1556 C1570 0.930 . S
H1557 C1572 0.960 . S
H1558 C1572 0.960 . S
H1559 C1572 0.960 . S
C1560 H1552 0.929 . S
C1560 C1561 1.377 . S
C1560 C1562 1.384 . S
C1561 C1560 1.377 . S
C1561 C1567 1.390 . S
C1562 H1553 0.930 . S
C1562 C1560 1.384 . S
C1562 C1563 1.372 . S
C1563 C1562 1.372 . S
C1563 C1564 1.400 . S
C1563 C1568 1.490 . S
C1564 H1554 0.930 . S
C1564 C1563 1.400 . S
C1564 C1567 1.386 . S
H1565 C1581 0.930 . S
H1566 C1582 0.931 . S
C1567 H1555 0.929 . S
C1567 C1561 1.390 . S
C1567 C1564 1.386 . S
C1568 C1563 1.490 . S
C1568 C1570 1.395 . S
C1568 C1571 1.403 . S
H1569 C1575 0.930 . S
C1570 H1556 0.930 . S
C1570 C1568 1.395 . S
C1570 C1573 1.403 . S
C1571 C1568 1.403 . S
C1571 C1572 1.524 . S
C1571 C1575 1.400 . S
C1572 H1557 0.960 . S
C1572 H1558 0.960 . S
C1572 H1559 0.960 . S
C1572 C1571 1.524 . S
C1573 C1570 1.403 . S
C1573 C1574 1.392 . S
C1573 C1577 1.495 . S
C1574 C1573 1.392 . S
C1574 C1575 1.385 . S
C1574 C1576 1.478 . S
C1575 H1569 0.930 . S
C1575 C1571 1.400 . S
C1575 C1574 1.385 . S
C1576 C1574 1.478 . S
C1576 C1578 1.381 . S
C1576 C1582 1.383 . S
C1577 C1573 1.495 . S
C1577 H1583 0.959 . S
C1577 H1584 0.961 . S
C1577 H1585 0.960 . S
C1578 C1576 1.381 . S
C1578 C1579 1.394 . S
C1578 H1586 0.930 . S
C1579 C1578 1.394 . S
C1579 C1580 1.383 . S
C1579 H1587 0.929 . S
C1580 C1579 1.383 . S
C1580 C1581 1.377 . S
C1581 H1565 0.930 . S
C1581 C1580 1.377 . S
C1581 C1582 1.379 . S
C1582 H1566 0.931 . S
C1582 C1576 1.383 . S
C1582 C1581 1.379 . S
H1583 C1577 0.959 . S
H1584 C1577 0.961 . S
H1585 C1577 0.960 . S
H1586 C1578 0.930 . S
H1587 C1579 0.929 . S
H1588 C1596 0.929 1_556 S
H1589 C1598 0.930 1_556 S
H1590 C1600 0.930 . S
H1591 C1603 0.929 . S
H1592 C1606 0.930 . S
H1593 C1608 0.963 . S
H1594 C1608 0.960 1_556 S
H1595 C1608 0.960 . S
C1596 H1588 0.929 1_554 S
C1596 C1597 1.377 . S
C1596 C1598 1.384 . S
C1597 C1596 1.377 . S
C1597 C1603 1.390 . S
C1598 H1589 0.930 1_554 S
C1598 C1596 1.384 . S
C1598 C1599 1.372 . S
C1599 C1598 1.372 . S
C1599 C1600 1.400 . S
C1599 C1604 1.490 . S
C1600 H1590 0.930 . S
C1600 C1599 1.400 . S
C1600 C1603 1.386 . S
H1601 C1617 0.930 . S
H1602 C1618 0.931 . S
C1603 H1591 0.929 . S
C1603 C1597 1.390 . S
C1603 C1600 1.386 . S
C1604 C1599 1.490 . S
C1604 C1606 1.395 . S
C1604 C1607 1.403 . S
H1605 C1611 0.930 . S
C1606 H1592 0.930 . S
C1606 C1604 1.395 . S
C1606 C1609 1.403 . S
C1607 C1604 1.403 . S
C1607 C1608 1.524 . S
C1607 C1611 1.400 . S
C1608 H1593 0.963 . S
C1608 H1594 0.960 1_554 S
C1608 H1595 0.960 . S
C1608 C1607 1.524 . S
C1609 C1606 1.403 . S
C1609 C1610 1.392 . S
C1609 C1613 1.495 . S
C1610 C1609 1.392 . S
C1610 C1611 1.385 . S
C1610 C1612 1.478 . S
C1611 H1605 0.930 . S
C1611 C1607 1.400 . S
C1611 C1610 1.385 . S
C1612 C1610 1.478 . S
C1612 C1614 1.381 . S
C1612 C1618 1.383 . S
C1613 C1609 1.495 . S
C1613 H1619 0.959 . S
C1613 H1620 0.961 . S
C1613 H1621 0.960 . S
C1614 C1612 1.381 . S
C1614 C1615 1.394 . S
C1614 H1622 0.930 1_554 S
C1615 C1614 1.394 . S
C1615 C1616 1.383 . S
C1615 H1623 0.929 1_554 S
C1616 C1615 1.383 . S
C1616 C1617 1.377 . S
C1617 H1601 0.930 . S
C1617 C1616 1.377 . S
C1617 C1618 1.379 . S
C1618 H1602 0.931 . S
C1618 C1612 1.383 . S
C1618 C1617 1.379 . S
H1619 C1613 0.959 . S
H1620 C1613 0.961 . S
H1621 C1613 0.960 . S
H1622 C1614 0.930 1_556 S
H1623 C1615 0.929 1_556 S
H1624 C1632 0.929 . S
H1625 C1634 0.930 . S
H1626 C1636 0.930 . S
H1627 C1639 0.929 . S
H1628 C1642 0.930 . S
H1629 C1644 0.960 . S
H1630 C1644 0.960 . S
H1631 C1644 0.960 . S
C1632 H1624 0.929 . S
C1632 C1633 1.377 . S
C1632 C1634 1.384 . S
C1633 C1632 1.377 . S
C1633 C1639 1.390 . S
C1634 H1625 0.930 . S
C1634 C1632 1.384 . S
C1634 C1635 1.372 . S
C1635 C1634 1.372 . S
C1635 C1636 1.400 . S
C1635 C1640 1.490 . S
C1636 H1626 0.930 . S
C1636 C1635 1.400 . S
C1636 C1639 1.386 . S
H1637 C1653 0.930 . S
H1638 C1654 0.931 . S
C1639 H1627 0.929 . S
C1639 C1633 1.390 . S
C1639 C1636 1.386 . S
C1640 C1635 1.490 . S
C1640 C1642 1.395 . S
C1640 C1643 1.403 . S
H1641 C1647 0.930 . S
C1642 H1628 0.930 . S
C1642 C1640 1.395 . S
C1642 C1645 1.403 . S
C1643 C1640 1.403 . S
C1643 C1644 1.524 . S
C1643 C1647 1.400 . S
C1644 H1629 0.960 . S
C1644 H1630 0.960 . S
C1644 H1631 0.960 . S
C1644 C1643 1.524 . S
C1645 C1642 1.403 . S
C1645 C1646 1.392 . S
C1645 C1649 1.495 . S
C1646 C1645 1.392 . S
C1646 C1647 1.385 . S
C1646 C1648 1.478 . S
C1647 H1641 0.930 . S
C1647 C1643 1.400 . S
C1647 C1646 1.385 . S
C1648 C1646 1.478 . S
C1648 C1650 1.381 . S
C1648 C1654 1.383 . S
C1649 C1645 1.495 . S
C1649 H1655 0.959 . S
C1649 H1656 0.961 . S
C1649 H1657 0.960 . S
C1650 C1648 1.381 . S
C1650 C1651 1.394 . S
C1650 H1658 0.930 . S
C1651 C1650 1.394 . S
C1651 C1652 1.383 . S
C1651 H1659 0.929 . S
C1652 C1651 1.383 . S
C1652 C1653 1.377 . S
C1653 H1637 0.930 . S
C1653 C1652 1.377 . S
C1653 C1654 1.379 . S
C1654 H1638 0.931 . S
C1654 C1648 1.383 . S
C1654 C1653 1.379 . S
H1655 C1649 0.959 . S
H1656 C1649 0.961 . S
H1657 C1649 0.960 . S
H1658 C1650 0.930 . S
H1659 C1651 0.929 . S
H1660 C1668 0.929 . S
H1661 C1670 0.930 . S
H1662 C1672 0.930 . S
H1663 C1675 0.929 . S
H1664 C1678 0.930 . S
H1665 C1680 0.960 . S
H1666 C1680 0.960 . S
H1667 C1680 0.960 . S
C1668 H1660 0.929 . S
C1668 C1669 1.377 . S
C1668 C1670 1.384 . S
C1669 C1668 1.377 . S
C1669 C1675 1.390 . S
C1670 H1661 0.930 . S
C1670 C1668 1.384 . S
C1670 C1671 1.372 . S
C1671 C1670 1.372 . S
C1671 C1672 1.400 . S
C1671 C1676 1.490 . S
C1672 H1662 0.930 . S
C1672 C1671 1.400 . S
C1672 C1675 1.386 . S
H1673 C1689 0.930 . S
H1674 C1690 0.931 . S
C1675 H1663 0.929 . S
C1675 C1669 1.390 . S
C1675 C1672 1.386 . S
C1676 C1671 1.490 . S
C1676 C1678 1.395 . S
C1676 C1679 1.403 . S
H1677 C1683 0.930 . S
C1678 H1664 0.930 . S
C1678 C1676 1.395 . S
C1678 C1681 1.403 . S
C1679 C1676 1.403 . S
C1679 C1680 1.524 . S
C1679 C1683 1.400 . S
C1680 H1665 0.960 . S
C1680 H1666 0.960 . S
C1680 H1667 0.960 . S
C1680 C1679 1.524 . S
C1681 C1678 1.403 . S
C1681 C1682 1.392 . S
C1681 C1685 1.495 . S
C1682 C1681 1.392 . S
C1682 C1683 1.385 . S
C1682 C1684 1.478 . S
C1683 H1677 0.930 . S
C1683 C1679 1.400 . S
C1683 C1682 1.385 . S
C1684 C1682 1.478 . S
C1684 C1686 1.381 . S
C1684 C1690 1.383 . S
C1685 C1681 1.495 . S
C1685 H1691 0.959 . S
C1685 H1692 0.961 . S
C1685 H1693 0.960 . S
C1686 C1684 1.381 . S
C1686 C1687 1.394 . S
C1686 H1694 0.930 . S
C1687 C1686 1.394 . S
C1687 C1688 1.383 . S
C1687 H1695 0.929 . S
C1688 C1687 1.383 . S
C1688 C1689 1.377 . S
C1689 H1673 0.930 . S
C1689 C1688 1.377 . S
C1689 C1690 1.379 . S
C1690 H1674 0.931 . S
C1690 C1684 1.383 . S
C1690 C1689 1.379 . S
H1691 C1685 0.959 . S
H1692 C1685 0.961 . S
H1693 C1685 0.960 . S
H1694 C1686 0.930 . S
H1695 C1687 0.929 . S
H1696 C1704 0.929 . S
H1697 C1706 0.930 . S
H1698 C1708 0.930 . S
H1699 C1711 0.929 . S
H1700 C1714 0.930 . S
H1701 C1716 0.960 . S
H1702 C1716 0.960 . S
H1703 C1716 0.960 . S
C1704 H1696 0.929 . S
C1704 C1705 1.377 . S
C1704 C1706 1.384 . S
C1705 C1704 1.377 . S
C1705 C1711 1.390 . S
C1706 H1697 0.930 . S
C1706 C1704 1.384 . S
C1706 C1707 1.372 . S
C1707 C1706 1.372 . S
C1707 C1708 1.400 . S
C1707 C1712 1.490 . S
C1708 H1698 0.930 . S
C1708 C1707 1.400 . S
C1708 C1711 1.386 . S
H1709 C1725 0.930 . S
H1710 C1726 0.931 . S
C1711 H1699 0.929 . S
C1711 C1705 1.390 . S
C1711 C1708 1.386 . S
C1712 C1707 1.490 . S
C1712 C1714 1.395 . S
C1712 C1715 1.403 . S
H1713 C1719 0.930 . S
C1714 H1700 0.930 . S
C1714 C1712 1.395 . S
C1714 C1717 1.403 . S
C1715 C1712 1.403 . S
C1715 C1716 1.524 . S
C1715 C1719 1.400 . S
C1716 H1701 0.960 . S
C1716 H1702 0.960 . S
C1716 H1703 0.960 . S
C1716 C1715 1.524 . S
C1717 C1714 1.403 . S
C1717 C1718 1.392 . S
C1717 C1721 1.495 . S
C1718 C1717 1.392 . S
C1718 C1719 1.385 . S
C1718 C1720 1.478 . S
C1719 H1713 0.930 . S
C1719 C1715 1.400 . S
C1719 C1718 1.385 . S
C1720 C1718 1.478 . S
C1720 C1722 1.381 . S
C1720 C1726 1.383 . S
C1721 C1717 1.495 . S
C1721 H1727 0.959 . S
C1721 H1728 0.961 . S
C1721 H1729 0.960 . S
C1722 C1720 1.381 . S
C1722 C1723 1.394 . S
C1722 H1730 0.930 . S
C1723 C1722 1.394 . S
C1723 C1724 1.383 . S
C1723 H1731 0.929 . S
C1724 C1723 1.383 . S
C1724 C1725 1.377 . S
C1725 H1709 0.930 . S
C1725 C1724 1.377 . S
C1725 C1726 1.379 . S
C1726 H1710 0.931 . S
C1726 C1720 1.383 . S
C1726 C1725 1.379 . S
H1727 C1721 0.959 . S
H1728 C1721 0.961 . S
H1729 C1721 0.960 . S
H1730 C1722 0.930 . S
H1731 C1723 0.929 . S
H1732 C1740 0.929 . S
H1733 C1742 0.930 . S
H1734 C1744 0.930 . S
H1735 C1747 0.929 . S
H1736 C1750 0.930 . S
H1737 C1752 0.960 . S
H1738 C1752 0.960 . S
H1739 C1752 0.960 . S
C1740 H1732 0.929 . S
C1740 C1741 1.377 . S
C1740 C1742 1.384 . S
C1741 C1740 1.377 . S
C1741 C1747 1.390 . S
C1742 H1733 0.930 . S
C1742 C1740 1.384 . S
C1742 C1743 1.372 . S
C1743 C1742 1.372 . S
C1743 C1744 1.400 . S
C1743 C1748 1.490 . S
C1744 H1734 0.930 . S
C1744 C1743 1.400 . S
C1744 C1747 1.386 . S
H1745 C1761 0.930 . S
H1746 C1762 0.931 . S
C1747 H1735 0.929 . S
C1747 C1741 1.390 . S
C1747 C1744 1.386 . S
C1748 C1743 1.490 . S
C1748 C1750 1.395 . S
C1748 C1751 1.403 . S
H1749 C1755 0.930 . S
C1750 H1736 0.930 . S
C1750 C1748 1.395 . S
C1750 C1753 1.403 . S
C1751 C1748 1.403 . S
C1751 C1752 1.524 . S
C1751 C1755 1.400 . S
C1752 H1737 0.960 . S
C1752 H1738 0.960 . S
C1752 H1739 0.960 . S
C1752 C1751 1.524 . S
C1753 C1750 1.403 . S
C1753 C1754 1.392 . S
C1753 C1757 1.495 . S
C1754 C1753 1.392 . S
C1754 C1755 1.385 . S
C1754 C1756 1.478 . S
C1755 H1749 0.930 . S
C1755 C1751 1.400 . S
C1755 C1754 1.385 . S
C1756 C1754 1.478 . S
C1756 C1758 1.381 . S
C1756 C1762 1.383 . S
C1757 C1753 1.495 . S
C1757 H1763 0.959 . S
C1757 H1764 0.961 . S
C1757 H1765 0.960 . S
C1758 C1756 1.381 . S
C1758 C1759 1.394 . S
C1758 H1766 0.930 . S
C1759 C1758 1.394 . S
C1759 C1760 1.383 . S
C1759 H1767 0.929 . S
C1760 C1759 1.383 . S
C1760 C1761 1.377 . S
C1761 H1745 0.930 . S
C1761 C1760 1.377 . S
C1761 C1762 1.379 . S
C1762 H1746 0.931 . S
C1762 C1756 1.383 . S
C1762 C1761 1.379 . S
H1763 C1757 0.959 . S
H1764 C1757 0.961 . S
H1765 C1757 0.960 . S
H1766 C1758 0.930 . S
H1767 C1759 0.929 . S
H1768 C1776 0.929 . S
H1769 C1778 0.930 . S
H1770 C1780 0.930 . S
H1771 C1783 0.929 . S
H1772 C1786 0.930 . S
H1773 C1788 0.960 . S
H1774 C1788 0.960 . S
H1775 C1788 0.960 . S
C1776 H1768 0.929 . S
C1776 C1777 1.377 . S
C1776 C1778 1.384 . S
C1777 C1776 1.377 . S
C1777 C1783 1.390 . S
C1778 H1769 0.930 . S
C1778 C1776 1.384 . S
C1778 C1779 1.372 . S
C1779 C1778 1.372 . S
C1779 C1780 1.400 . S
C1779 C1784 1.490 . S
C1780 H1770 0.930 . S
C1780 C1779 1.400 . S
C1780 C1783 1.386 . S
H1781 C1797 0.930 . S
H1782 C1798 0.931 . S
C1783 H1771 0.929 . S
C1783 C1777 1.390 . S
C1783 C1780 1.386 . S
C1784 C1779 1.490 . S
C1784 C1786 1.395 . S
C1784 C1787 1.403 . S
H1785 C1791 0.930 . S
C1786 H1772 0.930 . S
C1786 C1784 1.395 . S
C1786 C1789 1.403 . S
C1787 C1784 1.403 . S
C1787 C1788 1.524 . S
C1787 C1791 1.400 . S
C1788 H1773 0.960 . S
C1788 H1774 0.960 . S
C1788 H1775 0.960 . S
C1788 C1787 1.524 . S
C1789 C1786 1.403 . S
C1789 C1790 1.392 . S
C1789 C1793 1.495 . S
C1790 C1789 1.392 . S
C1790 C1791 1.385 . S
C1790 C1792 1.478 . S
C1791 H1785 0.930 . S
C1791 C1787 1.400 . S
C1791 C1790 1.385 . S
C1792 C1790 1.478 . S
C1792 C1794 1.381 . S
C1792 C1798 1.383 . S
C1793 C1789 1.495 . S
C1793 H1799 0.959 . S
C1793 H1800 0.961 . S
C1793 H1801 0.960 . S
C1794 C1792 1.381 . S
C1794 C1795 1.394 . S
C1794 H1802 0.930 . S
C1795 C1794 1.394 . S
C1795 C1796 1.383 . S
C1795 H1803 0.929 . S
C1796 C1795 1.383 . S
C1796 C1797 1.377 . S
C1797 H1781 0.930 . S
C1797 C1796 1.377 . S
C1797 C1798 1.379 . S
C1798 H1782 0.931 . S
C1798 C1792 1.383 . S
C1798 C1797 1.379 . S
H1799 C1793 0.959 . S
H1800 C1793 0.961 . S
H1801 C1793 0.960 . S
H1802 C1794 0.930 . S
H1803 C1795 0.929 . S
H1804 C1812 0.929 . S
H1805 C1814 0.930 . S
H1806 C1816 0.930 . S
H1807 C1819 0.929 . S
H1808 C1822 0.930 . S
H1809 C1824 0.960 . S
H1810 C1824 0.960 . S
H1811 C1824 0.960 . S
C1812 H1804 0.929 . S
C1812 C1813 1.377 . S
C1812 C1814 1.384 . S
C1813 C1812 1.377 . S
C1813 C1819 1.390 . S
C1814 H1805 0.930 . S
C1814 C1812 1.384 . S
C1814 C1815 1.372 . S
C1815 C1814 1.372 . S
C1815 C1816 1.400 . S
C1815 C1820 1.490 . S
C1816 H1806 0.930 . S
C1816 C1815 1.400 . S
C1816 C1819 1.386 . S
H1817 C1833 0.930 . S
H1818 C1834 0.931 . S
C1819 H1807 0.929 . S
C1819 C1813 1.390 . S
C1819 C1816 1.386 . S
C1820 C1815 1.490 . S
C1820 C1822 1.395 . S
C1820 C1823 1.403 . S
H1821 C1827 0.930 . S
C1822 H1808 0.930 . S
C1822 C1820 1.395 . S
C1822 C1825 1.403 . S
C1823 C1820 1.403 . S
C1823 C1824 1.524 . S
C1823 C1827 1.400 . S
C1824 H1809 0.960 . S
C1824 H1810 0.960 . S
C1824 H1811 0.960 . S
C1824 C1823 1.524 . S
C1825 C1822 1.403 . S
C1825 C1826 1.392 . S
C1825 C1829 1.495 . S
C1826 C1825 1.392 . S
C1826 C1827 1.385 . S
C1826 C1828 1.478 . S
C1827 H1821 0.930 . S
C1827 C1823 1.400 . S
C1827 C1826 1.385 . S
C1828 C1826 1.478 . S
C1828 C1830 1.381 . S
C1828 C1834 1.383 . S
C1829 C1825 1.495 . S
C1829 H1835 0.959 . S
C1829 H1836 0.961 . S
C1829 H1837 0.960 . S
C1830 C1828 1.381 . S
C1830 C1831 1.394 . S
C1830 H1838 0.930 . S
C1831 C1830 1.394 . S
C1831 C1832 1.383 . S
C1831 H1839 0.929 . S
C1832 C1831 1.383 . S
C1832 C1833 1.377 . S
C1833 H1817 0.930 . S
C1833 C1832 1.377 . S
C1833 C1834 1.379 . S
C1834 H1818 0.931 . S
C1834 C1828 1.383 . S
C1834 C1833 1.379 . S
H1835 C1829 0.959 . S
H1836 C1829 0.961 . S
H1837 C1829 0.960 . S
H1838 C1830 0.930 . S
H1839 C1831 0.929 . S
H1840 C1848 0.929 . S
H1841 C1850 0.930 . S
H1842 C1852 0.930 . S
H1843 C1855 0.929 . S
H1844 C1858 0.930 . S
H1845 C1860 0.960 . S
H1846 C1860 0.960 . S
H1847 C1860 0.960 . S
C1848 H1840 0.929 . S
C1848 C1849 1.377 . S
C1848 C1850 1.384 . S
C1849 C1848 1.377 . S
C1849 C1855 1.390 . S
C1850 H1841 0.930 . S
C1850 C1848 1.384 . S
C1850 C1851 1.372 . S
C1851 C1850 1.372 . S
C1851 C1852 1.400 . S
C1851 C1856 1.490 . S
C1852 H1842 0.930 . S
C1852 C1851 1.400 . S
C1852 C1855 1.386 . S
H1853 C1869 0.930 . S
H1854 C1870 0.931 . S
C1855 H1843 0.929 . S
C1855 C1849 1.390 . S
C1855 C1852 1.386 . S
C1856 C1851 1.490 . S
C1856 C1858 1.395 . S
C1856 C1859 1.403 . S
H1857 C1863 0.930 . S
C1858 H1844 0.930 . S
C1858 C1856 1.395 . S
C1858 C1861 1.403 . S
C1859 C1856 1.403 . S
C1859 C1860 1.524 . S
C1859 C1863 1.400 . S
C1860 H1845 0.960 . S
C1860 H1846 0.960 . S
C1860 H1847 0.960 . S
C1860 C1859 1.524 . S
C1861 C1858 1.403 . S
C1861 C1862 1.392 . S
C1861 C1865 1.495 . S
C1862 C1861 1.392 . S
C1862 C1863 1.385 . S
C1862 C1864 1.478 . S
C1863 H1857 0.930 . S
C1863 C1859 1.400 . S
C1863 C1862 1.385 . S
C1864 C1862 1.478 . S
C1864 C1866 1.381 . S
C1864 C1870 1.383 . S
C1865 C1861 1.495 . S
C1865 H1871 0.959 . S
C1865 H1872 0.961 . S
C1865 H1873 0.960 . S
C1866 C1864 1.381 . S
C1866 C1867 1.394 . S
C1866 H1874 0.930 . S
C1867 C1866 1.394 . S
C1867 C1868 1.383 . S
C1867 H1875 0.929 . S
C1868 C1867 1.383 . S
C1868 C1869 1.377 . S
C1869 H1853 0.930 . S
C1869 C1868 1.377 . S
C1869 C1870 1.379 . S
C1870 H1854 0.931 . S
C1870 C1864 1.383 . S
C1870 C1869 1.379 . S
H1871 C1865 0.959 . S
H1872 C1865 0.961 . S
H1873 C1865 0.960 . S
H1874 C1866 0.930 . S
H1875 C1867 0.929 . S
H1876 C1884 0.929 . S
H1877 C1886 0.930 . S
H1878 C1888 0.930 . S
H1879 C1891 0.929 . S
H1880 C1894 0.930 . S
H1881 C1896 0.960 . S
H1882 C1896 0.960 . S
H1883 C1896 0.960 . S
C1884 H1876 0.929 . S
C1884 C1885 1.377 . S
C1884 C1886 1.384 . S
C1885 C1884 1.377 . S
C1885 C1891 1.390 . S
C1886 H1877 0.930 . S
C1886 C1884 1.384 . S
C1886 C1887 1.372 . S
C1887 C1886 1.372 . S
C1887 C1888 1.400 . S
C1887 C1892 1.490 . S
C1888 H1878 0.930 . S
C1888 C1887 1.400 . S
C1888 C1891 1.386 . S
H1889 C1905 0.930 . S
H1890 C1906 0.931 . S
C1891 H1879 0.929 . S
C1891 C1885 1.390 . S
C1891 C1888 1.386 . S
C1892 C1887 1.490 . S
C1892 C1894 1.395 . S
C1892 C1895 1.403 . S
H1893 C1899 0.930 . S
C1894 H1880 0.930 . S
C1894 C1892 1.395 . S
C1894 C1897 1.403 . S
C1895 C1892 1.403 . S
C1895 C1896 1.524 . S
C1895 C1899 1.400 . S
C1896 H1881 0.960 . S
C1896 H1882 0.960 . S
C1896 H1883 0.960 . S
C1896 C1895 1.524 . S
C1897 C1894 1.403 . S
C1897 C1898 1.392 . S
C1897 C1901 1.495 . S
C1898 C1897 1.392 . S
C1898 C1899 1.385 . S
C1898 C1900 1.478 . S
C1899 H1893 0.930 . S
C1899 C1895 1.400 . S
C1899 C1898 1.385 . S
C1900 C1898 1.478 . S
C1900 C1902 1.381 . S
C1900 C1906 1.383 . S
C1901 C1897 1.495 . S
C1901 H1907 0.959 . S
C1901 H1908 0.961 . S
C1901 H1909 0.960 . S
C1902 C1900 1.381 . S
C1902 C1903 1.394 . S
C1902 H1910 0.930 . S
C1903 C1902 1.394 . S
C1903 C1904 1.383 . S
C1903 H1911 0.929 . S
C1904 C1903 1.383 . S
C1904 C1905 1.377 . S
C1905 H1889 0.930 . S
C1905 C1904 1.377 . S
C1905 C1906 1.379 . S
C1906 H1890 0.931 . S
C1906 C1900 1.383 . S
C1906 C1905 1.379 . S
H1907 C1901 0.959 . S
H1908 C1901 0.961 . S
H1909 C1901 0.960 . S
H1910 C1902 0.930 . S
H1911 C1903 0.929 . S
H1912 C1920 0.929 . S
H1913 C1922 0.930 . S
H1914 C1924 0.930 . S
H1915 C1927 0.929 . S
H1916 C1930 0.930 . S
H1917 C1932 0.960 . S
H1918 C1932 0.960 . S
H1919 C1932 0.960 . S
C1920 H1912 0.929 . S
C1920 C1921 1.377 . S
C1920 C1922 1.384 . S
C1921 C1920 1.377 . S
C1921 C1927 1.390 . S
C1922 H1913 0.930 . S
C1922 C1920 1.384 . S
C1922 C1923 1.372 . S
C1923 C1922 1.372 . S
C1923 C1924 1.400 . S
C1923 C1928 1.490 . S
C1924 H1914 0.930 . S
C1924 C1923 1.400 . S
C1924 C1927 1.386 . S
H1925 C1941 0.930 . S
H1926 C1942 0.931 . S
C1927 H1915 0.929 . S
C1927 C1921 1.390 . S
C1927 C1924 1.386 . S
C1928 C1923 1.490 . S
C1928 C1930 1.395 . S
C1928 C1931 1.403 . S
H1929 C1935 0.930 . S
C1930 H1916 0.930 . S
C1930 C1928 1.395 . S
C1930 C1933 1.403 . S
C1931 C1928 1.403 . S
C1931 C1932 1.524 . S
C1931 C1935 1.400 . S
C1932 H1917 0.960 . S
C1932 H1918 0.960 . S
C1932 H1919 0.960 . S
C1932 C1931 1.524 . S
C1933 C1930 1.403 . S
C1933 C1934 1.392 . S
C1933 C1937 1.495 . S
C1934 C1933 1.392 . S
C1934 C1935 1.385 . S
C1934 C1936 1.478 . S
C1935 H1929 0.930 . S
C1935 C1931 1.400 . S
C1935 C1934 1.385 . S
C1936 C1934 1.478 . S
C1936 C1938 1.381 . S
C1936 C1942 1.383 . S
C1937 C1933 1.495 . S
C1937 H1943 0.959 . S
C1937 H1944 0.961 . S
C1937 H1945 0.960 . S
C1938 C1936 1.381 . S
C1938 C1939 1.394 . S
C1938 H1946 0.930 . S
C1939 C1938 1.394 . S
C1939 C1940 1.383 . S
C1939 H1947 0.929 . S
C1940 C1939 1.383 . S
C1940 C1941 1.377 . S
C1941 H1925 0.930 . S
C1941 C1940 1.377 . S
C1941 C1942 1.379 . S
C1942 H1926 0.931 . S
C1942 C1936 1.383 . S
C1942 C1941 1.379 . S
H1943 C1937 0.959 . S
H1944 C1937 0.961 . S
H1945 C1937 0.960 . S
H1946 C1938 0.930 . S
H1947 C1939 0.929 . S
H1948 C1956 0.929 . S
H1949 C1958 0.930 . S
H1950 C1960 0.930 . S
H1951 C1963 0.929 . S
H1952 C1966 0.930 . S
H1953 C1968 0.960 . S
H1954 C1968 0.960 . S
H1955 C1968 0.960 . S
C1956 H1948 0.929 . S
C1956 C1957 1.377 . S
C1956 C1958 1.384 . S
C1957 C1956 1.377 . S
C1957 C1963 1.390 . S
C1958 H1949 0.930 . S
C1958 C1956 1.384 . S
C1958 C1959 1.372 . S
C1959 C1958 1.372 . S
C1959 C1960 1.400 . S
C1959 C1964 1.490 . S
C1960 H1950 0.930 . S
C1960 C1959 1.400 . S
C1960 C1963 1.386 . S
H1961 C1977 0.930 . S
H1962 C1978 0.931 . S
C1963 H1951 0.929 . S
C1963 C1957 1.390 . S
C1963 C1960 1.386 . S
C1964 C1959 1.490 . S
C1964 C1966 1.395 . S
C1964 C1967 1.403 . S
H1965 C1971 0.930 . S
C1966 H1952 0.930 . S
C1966 C1964 1.395 . S
C1966 C1969 1.403 . S
C1967 C1964 1.403 . S
C1967 C1968 1.524 . S
C1967 C1971 1.400 . S
C1968 H1953 0.960 . S
C1968 H1954 0.960 . S
C1968 H1955 0.960 . S
C1968 C1967 1.524 . S
C1969 C1966 1.403 . S
C1969 C1970 1.392 . S
C1969 C1973 1.495 . S
C1970 C1969 1.392 . S
C1970 C1971 1.385 . S
C1970 C1972 1.478 . S
C1971 H1965 0.930 . S
C1971 C1967 1.400 . S
C1971 C1970 1.385 . S
C1972 C1970 1.478 . S
C1972 C1974 1.381 . S
C1972 C1978 1.383 . S
C1973 C1969 1.495 . S
C1973 H1979 0.959 . S
C1973 H1980 0.961 . S
C1973 H1981 0.960 . S
C1974 C1972 1.381 . S
C1974 C1975 1.394 . S
C1974 H1982 0.930 . S
C1975 C1974 1.394 . S
C1975 C1976 1.383 . S
C1975 H1983 0.929 . S
C1976 C1975 1.383 . S
C1976 C1977 1.377 . S
C1977 H1961 0.930 . S
C1977 C1976 1.377 . S
C1977 C1978 1.379 . S
C1978 H1962 0.931 . S
C1978 C1972 1.383 . S
C1978 C1977 1.379 . S
H1979 C1973 0.959 . S
H1980 C1973 0.961 . S
H1981 C1973 0.960 . S
H1982 C1974 0.930 . S
H1983 C1975 0.929 . S
H1984 C1992 0.929 . S
H1985 C1994 0.930 . S
H1986 C1996 0.930 . S
H1987 C1999 0.929 . S
H1988 C2002 0.930 . S
H1989 C2004 0.960 . S
H1990 C2004 0.960 . S
H1991 C2004 0.960 . S
C1992 H1984 0.929 . S
C1992 C1993 1.377 . S
C1992 C1994 1.384 . S
C1993 C1992 1.377 . S
C1993 C1999 1.390 . S
C1994 H1985 0.930 . S
C1994 C1992 1.384 . S
C1994 C1995 1.372 . S
C1995 C1994 1.372 . S
C1995 C1996 1.400 . S
C1995 C2000 1.490 . S
C1996 H1986 0.930 . S
C1996 C1995 1.400 . S
C1996 C1999 1.386 . S
H1997 C2013 0.930 . S
H1998 C2014 0.931 . S
C1999 H1987 0.929 . S
C1999 C1993 1.390 . S
C1999 C1996 1.386 . S
C2000 C1995 1.490 . S
C2000 C2002 1.395 . S
C2000 C2003 1.403 . S
H2001 C2007 0.930 . S
C2002 H1988 0.930 . S
C2002 C2000 1.395 . S
C2002 C2005 1.403 . S
C2003 C2000 1.403 . S
C2003 C2004 1.524 . S
C2003 C2007 1.400 . S
C2004 H1989 0.960 . S
C2004 H1990 0.960 . S
C2004 H1991 0.960 . S
C2004 C2003 1.524 . S
C2005 C2002 1.403 . S
C2005 C2006 1.392 . S
C2005 C2009 1.495 . S
C2006 C2005 1.392 . S
C2006 C2007 1.385 . S
C2006 C2008 1.478 . S
C2007 H2001 0.930 . S
C2007 C2003 1.400 . S
C2007 C2006 1.385 . S
C2008 C2006 1.478 . S
C2008 C2010 1.381 . S
C2008 C2014 1.383 . S
C2009 C2005 1.495 . S
C2009 H2015 0.959 . S
C2009 H2016 0.961 . S
C2009 H2017 0.960 . S
C2010 C2008 1.381 . S
C2010 C2011 1.394 . S
C2010 H2018 0.930 . S
C2011 C2010 1.394 . S
C2011 C2012 1.383 . S
C2011 H2019 0.929 . S
C2012 C2011 1.383 . S
C2012 C2013 1.377 . S
C2013 H1997 0.930 . S
C2013 C2012 1.377 . S
C2013 C2014 1.379 . S
C2014 H1998 0.931 . S
C2014 C2008 1.383 . S
C2014 C2013 1.379 . S
H2015 C2009 0.959 . S
H2016 C2009 0.961 . S
H2017 C2009 0.960 . S
H2018 C2010 0.930 . S
H2019 C2011 0.929 . S
H2020 C2028 0.929 . S
H2021 C2030 0.930 . S
H2022 C2032 0.930 . S
H2023 C2035 0.929 . S
H2024 C2038 0.930 . S
H2025 C2040 0.960 . S
H2026 C2040 0.960 . S
H2027 C2040 0.960 . S
C2028 H2020 0.929 . S
C2028 C2029 1.377 . S
C2028 C2030 1.384 . S
C2029 C2028 1.377 . S
C2029 C2035 1.390 . S
C2030 H2021 0.930 . S
C2030 C2028 1.384 . S
C2030 C2031 1.372 . S
C2031 C2030 1.372 . S
C2031 C2032 1.400 . S
C2031 C2036 1.490 . S
C2032 H2022 0.930 . S
C2032 C2031 1.400 . S
C2032 C2035 1.386 . S
H2033 C2049 0.930 . S
H2034 C2050 0.931 . S
C2035 H2023 0.929 . S
C2035 C2029 1.390 . S
C2035 C2032 1.386 . S
C2036 C2031 1.490 . S
C2036 C2038 1.395 . S
C2036 C2039 1.403 . S
H2037 C2043 0.930 . S
C2038 H2024 0.930 . S
C2038 C2036 1.395 . S
C2038 C2041 1.403 . S
C2039 C2036 1.403 . S
C2039 C2040 1.524 . S
C2039 C2043 1.400 . S
C2040 H2025 0.960 . S
C2040 H2026 0.960 . S
C2040 H2027 0.960 . S
C2040 C2039 1.524 . S
C2041 C2038 1.403 . S
C2041 C2042 1.392 . S
C2041 C2045 1.495 . S
C2042 C2041 1.392 . S
C2042 C2043 1.385 . S
C2042 C2044 1.478 . S
C2043 H2037 0.930 . S
C2043 C2039 1.400 . S
C2043 C2042 1.385 . S
C2044 C2042 1.478 . S
C2044 C2046 1.381 . S
C2044 C2050 1.383 . S
C2045 C2041 1.495 . S
C2045 H2051 0.959 . S
C2045 H2052 0.961 . S
C2045 H2053 0.960 . S
C2046 C2044 1.381 . S
C2046 C2047 1.394 . S
C2046 H2054 0.930 . S
C2047 C2046 1.394 . S
C2047 C2048 1.383 . S
C2047 H2055 0.929 . S
C2048 C2047 1.383 . S
C2048 C2049 1.377 . S
C2049 H2033 0.930 . S
C2049 C2048 1.377 . S
C2049 C2050 1.379 . S
C2050 H2034 0.931 . S
C2050 C2044 1.383 . S
C2050 C2049 1.379 . S
H2051 C2045 0.959 . S
H2052 C2045 0.961 . S
H2053 C2045 0.960 . S
H2054 C2046 0.930 . S
H2055 C2047 0.929 . S
H2056 C2064 0.929 . S
H2057 C2066 0.930 . S
H2058 C2068 0.930 . S
H2059 C2071 0.929 . S
H2060 C2074 0.930 . S
H2061 C2076 0.960 . S
H2062 C2076 0.960 . S
H2063 C2076 0.960 . S
C2064 H2056 0.929 . S
C2064 C2065 1.377 . S
C2064 C2066 1.384 . S
C2065 C2064 1.377 . S
C2065 C2071 1.390 . S
C2066 H2057 0.930 . S
C2066 C2064 1.384 . S
C2066 C2067 1.372 . S
C2067 C2066 1.372 . S
C2067 C2068 1.400 . S
C2067 C2072 1.490 . S
C2068 H2058 0.930 . S
C2068 C2067 1.400 . S
C2068 C2071 1.386 . S
H2069 C2085 0.930 . S
H2070 C2086 0.955 . S
C2071 H2059 0.929 . S
C2071 C2065 1.390 . S
C2071 C2068 1.386 . S
C2072 C2067 1.490 . S
C2072 C2074 1.395 . S
C2072 C2075 1.403 . S
H2073 C2079 0.930 . S
C2074 H2060 0.930 . S
C2074 C2072 1.395 . S
C2074 C2077 1.403 . S
C2075 C2072 1.403 . S
C2075 C2076 1.524 . S
C2075 C2079 1.400 . S
C2076 H2061 0.960 . S
C2076 H2062 0.960 . S
C2076 H2063 0.960 . S
C2076 C2075 1.524 . S
C2077 C2074 1.403 . S
C2077 C2078 1.392 . S
C2077 C2081 1.495 . S
C2078 C2077 1.392 . S
C2078 C2079 1.385 . S
C2078 C2080 1.478 . S
C2079 H2073 0.930 . S
C2079 C2075 1.400 . S
C2079 C2078 1.385 . S
C2080 C2078 1.478 . S
C2080 C2082 1.381 . S
C2080 C2086 1.383 . S
C2081 C2077 1.495 . S
C2081 H2087 0.959 . S
C2081 H2088 0.961 . S
C2081 H2089 0.960 . S
C2082 C2080 1.381 . S
C2082 C2083 1.394 . S
C2082 H2090 0.930 . S
C2083 C2082 1.394 . S
C2083 C2084 1.383 . S
C2083 H2091 0.929 . S
C2084 C2083 1.383 . S
C2084 C2085 1.377 1_556 S
C2085 H2069 0.930 . S
C2085 C2084 1.377 1_554 S
C2085 C2086 1.379 1_554 S
C2086 H2070 0.955 . S
C2086 C2080 1.383 . S
C2086 C2085 1.379 1_556 S
H2087 C2081 0.959 . S
H2088 C2081 0.961 . S
H2089 C2081 0.960 . S
H2090 C2082 0.930 . S
H2091 C2083 0.929 . S
H2092 C2100 0.929 . S
H2093 C2102 0.930 . S
H2094 C2104 0.930 . S
H2095 C2107 0.929 . S
H2096 C2110 0.930 . S
H2097 C2112 0.960 . S
H2098 C2112 0.960 . S
H2099 C2112 0.960 . S
C2100 H2092 0.929 . S
C2100 C2101 1.377 . S
C2100 C2102 1.384 . S
C2101 C2100 1.377 . S
C2101 C2107 1.390 . S
C2102 H2093 0.930 . S
C2102 C2100 1.384 . S
C2102 C2103 1.372 . S
C2103 C2102 1.372 . S
C2103 C2104 1.400 . S
C2103 C2108 1.490 . S
C2104 H2094 0.930 . S
C2104 C2103 1.400 . S
C2104 C2107 1.386 . S
H2105 C2121 0.930 . S
H2106 C2122 0.931 . S
C2107 H2095 0.929 . S
C2107 C2101 1.390 . S
C2107 C2104 1.386 . S
C2108 C2103 1.490 . S
C2108 C2110 1.395 . S
C2108 C2111 1.403 . S
H2109 C2115 0.930 . S
C2110 H2096 0.930 . S
C2110 C2108 1.395 . S
C2110 C2113 1.403 . S
C2111 C2108 1.403 . S
C2111 C2112 1.524 . S
C2111 C2115 1.400 . S
C2112 H2097 0.960 . S
C2112 H2098 0.960 . S
C2112 H2099 0.960 . S
C2112 C2111 1.524 . S
C2113 C2110 1.403 . S
C2113 C2114 1.392 . S
C2113 C2117 1.495 . S
C2114 C2113 1.392 . S
C2114 C2115 1.385 . S
C2114 C2116 1.478 . S
C2115 H2109 0.930 . S
C2115 C2111 1.400 . S
C2115 C2114 1.385 . S
C2116 C2114 1.478 . S
C2116 C2118 1.381 . S
C2116 C2122 1.383 . S
C2117 C2113 1.495 . S
C2117 H2123 0.959 . S
C2117 H2124 0.961 . S
C2117 H2125 0.960 . S
C2118 C2116 1.381 . S
C2118 C2119 1.394 . S
C2118 H2126 0.930 . S
C2119 C2118 1.394 . S
C2119 C2120 1.383 . S
C2119 H2127 0.929 . S
C2120 C2119 1.383 . S
C2120 C2121 1.377 . S
C2121 H2105 0.930 . S
C2121 C2120 1.377 . S
C2121 C2122 1.379 . S
C2122 H2106 0.931 . S
C2122 C2116 1.383 . S
C2122 C2121 1.379 . S
H2123 C2117 0.959 . S
H2124 C2117 0.961 . S
H2125 C2117 0.960 . S
H2126 C2118 0.930 . S
H2127 C2119 0.929 . S
H2128 C2136 0.929 . S
H2129 C2138 0.930 . S
H2130 C2140 0.930 . S
H2131 C2143 0.929 . S
H2132 C2146 0.930 . S
H2133 C2148 0.960 . S
H2134 C2148 0.960 . S
H2135 C2148 0.960 . S
C2136 H2128 0.929 . S
C2136 C2137 1.377 . S
C2136 C2138 1.384 . S
C2137 C2136 1.377 . S
C2137 C2143 1.390 . S
C2138 H2129 0.930 . S
C2138 C2136 1.384 . S
C2138 C2139 1.372 . S
C2139 C2138 1.372 . S
C2139 C2140 1.400 . S
C2139 C2144 1.490 . S
C2140 H2130 0.930 . S
C2140 C2139 1.400 . S
C2140 C2143 1.386 . S
H2141 C2157 0.930 . S
H2142 C2158 0.931 . S
C2143 H2131 0.929 . S
C2143 C2137 1.390 . S
C2143 C2140 1.386 . S
C2144 C2139 1.490 . S
C2144 C2146 1.395 . S
C2144 C2147 1.403 . S
H2145 C2151 0.930 . S
C2146 H2132 0.930 . S
C2146 C2144 1.395 . S
C2146 C2149 1.403 . S
C2147 C2144 1.403 . S
C2147 C2148 1.524 . S
C2147 C2151 1.400 . S
C2148 H2133 0.960 . S
C2148 H2134 0.960 . S
C2148 H2135 0.960 . S
C2148 C2147 1.524 . S
C2149 C2146 1.403 . S
C2149 C2150 1.392 . S
C2149 C2153 1.495 1_545 S
C2150 C2149 1.392 . S
C2150 C2151 1.385 . S
C2150 C2152 1.478 . S
C2151 H2145 0.930 . S
C2151 C2147 1.400 . S
C2151 C2150 1.385 . S
C2152 C2150 1.478 . S
C2152 C2154 1.381 . S
C2152 C2158 1.383 . S
C2153 C2149 1.495 1_565 S
C2153 H2159 0.959 . S
C2153 H2160 0.961 . S
C2153 H2161 0.960 . S
C2154 C2152 1.381 . S
C2154 C2155 1.394 . S
C2154 H2162 0.930 . S
C2155 C2154 1.394 . S
C2155 C2156 1.383 . S
C2155 H2163 0.929 . S
C2156 C2155 1.383 . S
C2156 C2157 1.377 . S
C2157 H2141 0.930 . S
C2157 C2156 1.377 . S
C2157 C2158 1.379 . S
C2158 H2142 0.931 . S
C2158 C2152 1.383 . S
C2158 C2157 1.379 . S
H2159 C2153 0.959 . S
H2160 C2153 0.961 . S
H2161 C2153 0.960 . S
H2162 C2154 0.930 . S
H2163 C2155 0.929 . S
H2164 C2172 0.929 . S
H2165 C2174 0.930 . S
H2166 C2176 0.930 . S
H2167 C2179 0.929 . S
H2168 C2182 0.930 . S
H2169 C2184 0.960 . S
H2170 C2184 0.960 . S
H2171 C2184 0.960 . S
C2172 H2164 0.929 . S
C2172 C2173 1.377 . S
C2172 C2174 1.384 . S
C2173 C2172 1.377 . S
C2173 C2179 1.390 . S
C2174 H2165 0.930 . S
C2174 C2172 1.384 . S
C2174 C2175 1.372 . S
C2175 C2174 1.372 . S
C2175 C2176 1.400 . S
C2175 C2180 1.490 . S
C2176 H2166 0.930 . S
C2176 C2175 1.400 . S
C2176 C2179 1.386 . S
H2177 C2193 0.930 . S
H2178 C2194 0.931 . S
C2179 H2167 0.929 . S
C2179 C2173 1.390 . S
C2179 C2176 1.386 . S
C2180 C2175 1.490 . S
C2180 C2182 1.395 . S
C2180 C2183 1.403 . S
H2181 C2187 0.930 . S
C2182 H2168 0.930 . S
C2182 C2180 1.395 . S
C2182 C2185 1.403 . S
C2183 C2180 1.403 . S
C2183 C2184 1.524 . S
C2183 C2187 1.400 . S
C2184 H2169 0.960 . S
C2184 H2170 0.960 . S
C2184 H2171 0.960 . S
C2184 C2183 1.524 . S
C2185 C2182 1.403 . S
C2185 C2186 1.392 . S
C2185 C2189 1.495 . S
C2186 C2185 1.392 . S
C2186 C2187 1.385 . S
C2186 C2188 1.478 . S
C2187 H2181 0.930 . S
C2187 C2183 1.400 . S
C2187 C2186 1.385 . S
C2188 C2186 1.478 . S
C2188 C2190 1.381 . S
C2188 C2194 1.383 . S
C2189 C2185 1.495 . S
C2189 H2195 0.959 . S
C2189 H2196 0.961 . S
C2189 H2197 0.960 . S
C2190 C2188 1.381 . S
C2190 C2191 1.394 . S
C2190 H2198 0.930 . S
C2191 C2190 1.394 . S
C2191 C2192 1.383 . S
C2191 H2199 0.929 . S
C2192 C2191 1.383 . S
C2192 C2193 1.377 . S
C2193 H2177 0.930 . S
C2193 C2192 1.377 . S
C2193 C2194 1.379 . S
C2194 H2178 0.931 . S
C2194 C2188 1.383 . S
C2194 C2193 1.379 . S
H2195 C2189 0.959 . S
H2196 C2189 0.961 . S
H2197 C2189 0.960 . S
H2198 C2190 0.930 . S
H2199 C2191 0.929 . S
H2200 C2208 0.929 . S
H2201 C2210 0.930 . S
H2202 C2212 0.930 . S
H2203 C2215 0.929 . S
H2204 C2218 0.930 . S
H2205 C2220 0.960 . S
H2206 C2220 0.960 . S
H2207 C2220 0.960 . S
C2208 H2200 0.929 . S
C2208 C2209 1.377 . S
C2208 C2210 1.384 . S
C2209 C2208 1.377 . S
C2209 C2215 1.390 . S
C2210 H2201 0.930 . S
C2210 C2208 1.384 . S
C2210 C2211 1.372 . S
C2211 C2210 1.372 . S
C2211 C2212 1.400 . S
C2211 C2216 1.490 . S
C2212 H2202 0.930 . S
C2212 C2211 1.400 . S
C2212 C2215 1.386 . S
H2213 C2229 0.930 . S
H2214 C2230 0.931 . S
C2215 H2203 0.929 . S
C2215 C2209 1.390 . S
C2215 C2212 1.386 . S
C2216 C2211 1.490 . S
C2216 C2218 1.395 . S
C2216 C2219 1.403 . S
H2217 C2223 0.930 . S
C2218 H2204 0.930 . S
C2218 C2216 1.395 . S
C2218 C2221 1.403 . S
C2219 C2216 1.403 . S
C2219 C2220 1.524 . S
C2219 C2223 1.400 . S
C2220 H2205 0.960 . S
C2220 H2206 0.960 . S
C2220 H2207 0.960 . S
C2220 C2219 1.524 . S
C2221 C2218 1.403 . S
C2221 C2222 1.392 . S
C2221 C2225 1.495 . S
C2222 C2221 1.392 . S
C2222 C2223 1.385 . S
C2222 C2224 1.478 . S
C2223 H2217 0.930 . S
C2223 C2219 1.400 . S
C2223 C2222 1.385 . S
C2224 C2222 1.478 . S
C2224 C2226 1.381 . S
C2224 C2230 1.383 . S
C2225 C2221 1.495 . S
C2225 H2231 0.959 . S
C2225 H2232 0.961 . S
C2225 H2233 0.960 . S
C2226 C2224 1.381 . S
C2226 C2227 1.394 . S
C2226 H2234 0.930 . S
C2227 C2226 1.394 . S
C2227 C2228 1.383 . S
C2227 H2235 0.929 . S
C2228 C2227 1.383 . S
C2228 C2229 1.377 . S
C2229 H2213 0.930 . S
C2229 C2228 1.377 . S
C2229 C2230 1.379 . S
C2230 H2214 0.931 . S
C2230 C2224 1.383 . S
C2230 C2229 1.379 . S
H2231 C2225 0.959 . S
H2232 C2225 0.961 . S
H2233 C2225 0.960 . S
H2234 C2226 0.930 . S
H2235 C2227 0.929 . S
H2236 C2244 0.929 . S
H2237 C2246 0.930 . S
H2238 C2248 0.930 . S
H2239 C2251 0.929 . S
H2240 C2254 0.930 . S
H2241 C2256 0.960 . S
H2242 C2256 0.960 . S
H2243 C2256 0.960 . S
C2244 H2236 0.929 . S
C2244 C2245 1.377 . S
C2244 C2246 1.384 . S
C2245 C2244 1.377 . S
C2245 C2251 1.390 . S
C2246 H2237 0.930 . S
C2246 C2244 1.384 . S
C2246 C2247 1.372 . S
C2247 C2246 1.372 . S
C2247 C2248 1.400 . S
C2247 C2252 1.490 . S
C2248 H2238 0.930 . S
C2248 C2247 1.400 . S
C2248 C2251 1.386 . S
H2249 C2265 0.930 . S
H2250 C2266 0.931 . S
C2251 H2239 0.929 . S
C2251 C2245 1.390 . S
C2251 C2248 1.386 . S
C2252 C2247 1.490 . S
C2252 C2254 1.395 . S
C2252 C2255 1.403 . S
H2253 C2259 0.930 . S
C2254 H2240 0.930 . S
C2254 C2252 1.395 . S
C2254 C2257 1.403 . S
C2255 C2252 1.403 . S
C2255 C2256 1.524 . S
C2255 C2259 1.400 . S
C2256 H2241 0.960 . S
C2256 H2242 0.960 . S
C2256 H2243 0.960 . S
C2256 C2255 1.524 . S
C2257 C2254 1.403 . S
C2257 C2258 1.392 . S
C2257 C2261 1.495 . S
C2258 C2257 1.392 . S
C2258 C2259 1.385 . S
C2258 C2260 1.478 . S
C2259 H2253 0.930 . S
C2259 C2255 1.400 . S
C2259 C2258 1.385 . S
C2260 C2258 1.478 . S
C2260 C2262 1.381 . S
C2260 C2266 1.383 . S
C2261 C2257 1.495 . S
C2261 H2267 0.959 . S
C2261 H2268 0.961 . S
C2261 H2269 0.960 . S
C2262 C2260 1.381 . S
C2262 C2263 1.394 . S
C2262 H2270 0.930 . S
C2263 C2262 1.394 . S
C2263 C2264 1.383 . S
C2263 H2271 0.929 . S
C2264 C2263 1.383 . S
C2264 C2265 1.377 . S
C2265 H2249 0.930 . S
C2265 C2264 1.377 . S
C2265 C2266 1.379 . S
C2266 H2250 0.931 . S
C2266 C2260 1.383 . S
C2266 C2265 1.379 . S
H2267 C2261 0.959 . S
H2268 C2261 0.961 . S
H2269 C2261 0.960 . S
H2270 C2262 0.930 . S
H2271 C2263 0.929 . S
H2272 C2280 0.929 . S
H2273 C2282 0.930 . S
H2274 C2284 0.930 . S
H2275 C2287 0.929 . S
H2276 C2290 0.930 . S
H2277 C2292 0.960 . S
H2278 C2292 0.960 . S
H2279 C2292 0.960 . S
C2280 H2272 0.929 . S
C2280 C2281 1.377 . S
C2280 C2282 1.384 . S
C2281 C2280 1.377 . S
C2281 C2287 1.390 . S
C2282 H2273 0.930 . S
C2282 C2280 1.384 . S
C2282 C2283 1.372 . S
C2283 C2282 1.372 . S
C2283 C2284 1.400 . S
C2283 C2288 1.490 . S
C2284 H2274 0.930 . S
C2284 C2283 1.400 . S
C2284 C2287 1.386 . S
H2285 C2301 0.930 . S
H2286 C2302 0.931 . S
C2287 H2275 0.929 . S
C2287 C2281 1.390 . S
C2287 C2284 1.386 . S
C2288 C2283 1.490 . S
C2288 C2290 1.395 . S
C2288 C2291 1.403 . S
H2289 C2295 0.930 . S
C2290 H2276 0.930 . S
C2290 C2288 1.395 . S
C2290 C2293 1.403 . S
C2291 C2288 1.403 . S
C2291 C2292 1.524 . S
C2291 C2295 1.400 . S
C2292 H2277 0.960 . S
C2292 H2278 0.960 . S
C2292 H2279 0.960 . S
C2292 C2291 1.524 . S
C2293 C2290 1.403 . S
C2293 C2294 1.392 . S
C2293 C2297 1.514 . S
C2294 C2293 1.392 . S
C2294 C2295 1.385 . S
C2294 C2296 1.478 . S
C2295 H2289 0.930 . S
C2295 C2291 1.400 . S
C2295 C2294 1.385 . S
C2296 C2294 1.478 . S
C2296 C2298 1.381 . S
C2296 C2302 1.383 . S
C2297 C2293 1.514 . S
C2297 H2303 0.943 1_545 S
C2297 H2304 0.977 . S
C2297 H2305 0.943 1_545 S
C2298 C2296 1.381 . S
C2298 C2299 1.394 . S
C2298 H2306 0.930 . S
C2299 C2298 1.394 . S
C2299 C2300 1.383 . S
C2299 H2307 0.929 . S
C2300 C2299 1.383 . S
C2300 C2301 1.377 . S
C2301 H2285 0.930 . S
C2301 C2300 1.377 . S
C2301 C2302 1.379 . S
C2302 H2286 0.931 . S
C2302 C2296 1.383 . S
C2302 C2301 1.379 . S
H2303 C2297 0.943 1_565 S
H2304 C2297 0.977 . S
H2305 C2297 0.943 1_565 S
H2306 C2298 0.930 . S
H2307 C2299 0.929 . S
H2308 C2316 0.929 . S
H2309 C2318 0.930 . S
H2310 C2320 0.930 . S
H2311 C2323 0.929 . S
H2312 C2326 0.930 . S
H2313 C2328 0.960 . S
H2314 C2328 0.960 . S
H2315 C2328 0.960 . S
C2316 H2308 0.929 . S
C2316 C2317 1.377 . S
C2316 C2318 1.384 . S
C2317 C2316 1.377 . S
C2317 C2323 1.390 . S
C2318 H2309 0.930 . S
C2318 C2316 1.384 . S
C2318 C2319 1.372 . S
C2319 C2318 1.372 . S
C2319 C2320 1.400 . S
C2319 C2324 1.490 . S
C2320 H2310 0.930 . S
C2320 C2319 1.400 . S
C2320 C2323 1.386 . S
H2321 C2337 0.930 . S
H2322 C2338 0.931 . S
C2323 H2311 0.929 . S
C2323 C2317 1.390 . S
C2323 C2320 1.386 . S
C2324 C2319 1.490 . S
C2324 C2326 1.395 . S
C2324 C2327 1.403 . S
H2325 C2331 0.930 . S
C2326 H2312 0.930 . S
C2326 C2324 1.395 . S
C2326 C2329 1.403 . S
C2327 C2324 1.403 . S
C2327 C2328 1.524 . S
C2327 C2331 1.400 . S
C2328 H2313 0.960 . S
C2328 H2314 0.960 . S
C2328 H2315 0.960 . S
C2328 C2327 1.524 . S
C2329 C2326 1.403 . S
C2329 C2330 1.392 . S
C2329 C2333 1.495 . S
C2330 C2329 1.392 . S
C2330 C2331 1.385 . S
C2330 C2332 1.478 . S
C2331 H2325 0.930 . S
C2331 C2327 1.400 . S
C2331 C2330 1.385 . S
C2332 C2330 1.478 . S
C2332 C2334 1.381 . S
C2332 C2338 1.383 . S
C2333 C2329 1.495 . S
C2333 H2339 0.959 . S
C2333 H2340 0.961 . S
C2333 H2341 0.960 . S
C2334 C2332 1.381 . S
C2334 C2335 1.394 . S
C2334 H2342 0.930 . S
C2335 C2334 1.394 . S
C2335 C2336 1.383 . S
C2335 H2343 0.929 . S
C2336 C2335 1.383 . S
C2336 C2337 1.377 . S
C2337 H2321 0.930 . S
C2337 C2336 1.377 . S
C2337 C2338 1.379 . S
C2338 H2322 0.931 . S
C2338 C2332 1.383 . S
C2338 C2337 1.379 . S
H2339 C2333 0.959 . S
H2340 C2333 0.961 . S
H2341 C2333 0.960 . S
H2342 C2334 0.930 . S
H2343 C2335 0.929 . S
H2344 C2352 0.929 . S
H2345 C2354 0.930 . S
H2346 C2356 0.930 . S
H2347 C2359 0.929 . S
H2348 C2362 0.930 . S
H2349 C2364 0.960 . S
H2350 C2364 0.960 . S
H2351 C2364 0.960 . S
C2352 H2344 0.929 . S
C2352 C2353 1.377 . S
C2352 C2354 1.384 . S
C2353 C2352 1.377 . S
C2353 C2359 1.390 . S
C2354 H2345 0.930 . S
C2354 C2352 1.384 . S
C2354 C2355 1.372 . S
C2355 C2354 1.372 . S
C2355 C2356 1.400 . S
C2355 C2360 1.490 . S
C2356 H2346 0.930 . S
C2356 C2355 1.400 . S
C2356 C2359 1.386 . S
H2357 C2373 0.930 . S
H2358 C2374 0.931 . S
C2359 H2347 0.929 . S
C2359 C2353 1.390 . S
C2359 C2356 1.386 . S
C2360 C2355 1.490 . S
C2360 C2362 1.395 . S
C2360 C2363 1.403 . S
H2361 C2367 0.930 . S
C2362 H2348 0.930 . S
C2362 C2360 1.395 . S
C2362 C2365 1.403 . S
C2363 C2360 1.403 . S
C2363 C2364 1.524 . S
C2363 C2367 1.400 . S
C2364 H2349 0.960 . S
C2364 H2350 0.960 . S
C2364 H2351 0.960 . S
C2364 C2363 1.524 . S
C2365 C2362 1.403 . S
C2365 C2366 1.392 . S
C2365 C2369 1.495 1_545 S
C2366 C2365 1.392 . S
C2366 C2367 1.385 . S
C2366 C2368 1.478 . S
C2367 H2361 0.930 . S
C2367 C2363 1.400 . S
C2367 C2366 1.385 . S
C2368 C2366 1.478 . S
C2368 C2370 1.444 . S
C2368 C2374 1.383 . S
C2369 C2365 1.495 1_565 S
C2369 H2375 0.959 . S
C2369 H2376 0.967 . S
C2369 H2377 0.960 . S
C2370 C2368 1.444 . S
C2370 C2371 1.377 1_545 S
C2370 H2378 0.887 1_545 S
C2371 C2370 1.377 1_565 S
C2371 C2372 1.383 1_565 S
C2371 H2379 0.929 . S
C2372 C2371 1.383 1_545 S
C2372 C2373 1.377 . S
C2373 H2357 0.930 . S
C2373 C2372 1.377 . S
C2373 C2374 1.379 . S
C2374 H2358 0.931 . S
C2374 C2368 1.383 . S
C2374 C2373 1.379 . S
H2375 C2369 0.959 . S
H2376 C2369 0.967 . S
H2377 C2369 0.960 . S
H2378 C2370 0.887 1_565 S
H2379 C2371 0.929 . S
H2380 C2388 0.929 . S
H2381 C2390 0.930 . S
H2382 C2392 0.930 . S
H2383 C2395 0.929 . S
H2384 C2398 0.930 . S
H2385 C2400 0.960 . S
H2386 C2400 0.960 . S
H2387 C2400 0.960 . S
C2388 H2380 0.929 . S
C2388 C2389 1.377 . S
C2388 C2390 1.384 . S
C2389 C2388 1.377 . S
C2389 C2395 1.390 . S
C2390 H2381 0.930 . S
C2390 C2388 1.384 . S
C2390 C2391 1.372 . S
C2391 C2390 1.372 . S
C2391 C2392 1.400 . S
C2391 C2396 1.490 . S
C2392 H2382 0.930 . S
C2392 C2391 1.400 . S
C2392 C2395 1.386 . S
H2393 C2409 0.930 . S
H2394 C2410 0.931 . S
C2395 H2383 0.929 . S
C2395 C2389 1.390 . S
C2395 C2392 1.386 . S
C2396 C2391 1.490 . S
C2396 C2398 1.395 . S
C2396 C2399 1.403 . S
H2397 C2403 0.930 . S
C2398 H2384 0.930 . S
C2398 C2396 1.395 . S
C2398 C2401 1.403 . S
C2399 C2396 1.403 . S
C2399 C2400 1.524 . S
C2399 C2403 1.400 . S
C2400 H2385 0.960 . S
C2400 H2386 0.960 . S
C2400 H2387 0.960 . S
C2400 C2399 1.524 . S
C2401 C2398 1.403 . S
C2401 C2402 1.392 . S
C2401 C2405 1.495 . S
C2402 C2401 1.392 . S
C2402 C2403 1.385 . S
C2402 C2404 1.478 . S
C2403 H2397 0.930 . S
C2403 C2399 1.400 . S
C2403 C2402 1.385 . S
C2404 C2402 1.478 . S
C2404 C2406 1.381 . S
C2404 C2410 1.383 . S
C2405 C2401 1.495 . S
C2405 H2411 0.959 . S
C2405 H2412 0.961 . S
C2405 H2413 0.960 . S
C2406 C2404 1.381 . S
C2406 C2407 1.394 . S
C2406 H2414 0.930 . S
C2407 C2406 1.394 . S
C2407 C2408 1.383 . S
C2407 H2415 0.929 . S
C2408 C2407 1.383 . S
C2408 C2409 1.377 . S
C2409 H2393 0.930 . S
C2409 C2408 1.377 . S
C2409 C2410 1.379 . S
C2410 H2394 0.931 . S
C2410 C2404 1.383 . S
C2410 C2409 1.379 . S
H2411 C2405 0.959 . S
H2412 C2405 0.961 . S
H2413 C2405 0.960 . S
H2414 C2406 0.930 . S
H2415 C2407 0.929 . S
H2416 C2424 0.929 . S
H2417 C2426 0.930 . S
H2418 C2428 0.930 . S
H2419 C2431 0.929 . S
H2420 C2434 0.930 . S
H2421 C2436 0.960 . S
H2422 C2436 0.960 1_556 S
H2423 C2436 0.960 . S
C2424 H2416 0.929 . S
C2424 C2425 1.339 1_556 S
C2424 C2426 1.384 . S
C2425 C2424 1.339 1_554 S
C2425 C2431 1.420 . S
C2426 H2417 0.930 . S
C2426 C2424 1.384 . S
C2426 C2427 1.372 . S
C2427 C2426 1.372 . S
C2427 C2428 1.400 1_556 S
C2427 C2432 1.490 . S
C2428 H2418 0.930 . S
C2428 C2427 1.400 1_554 S
C2428 C2431 1.386 . S
H2429 C2445 0.902 1_554 S
H2430 C2446 0.931 . S
C2431 H2419 0.929 . S
C2431 C2425 1.420 . S
C2431 C2428 1.386 . S
C2432 C2427 1.490 . S
C2432 C2434 1.395 . S
C2432 C2435 1.403 . S
H2433 C2439 0.930 . S
C2434 H2420 0.930 . S
C2434 C2432 1.395 . S
C2434 C2437 1.403 . S
C2435 C2432 1.403 . S
C2435 C2436 1.524 1_556 S
C2435 C2439 1.400 . S
C2436 H2421 0.960 . S
C2436 H2422 0.960 1_554 S
C2436 H2423 0.960 . S
C2436 C2435 1.524 1_554 S
C2437 C2434 1.403 . S
C2437 C2438 1.392 . S
C2437 C2441 1.495 . S
C2438 C2437 1.392 . S
C2438 C2439 1.385 . S
C2438 C2440 1.478 . S
C2439 H2433 0.930 . S
C2439 C2435 1.400 . S
C2439 C2438 1.385 . S
C2440 C2438 1.478 . S
C2440 C2442 1.381 . S
C2440 C2446 1.383 1_556 S
C2441 C2437 1.495 . S
C2441 H2447 0.959 . S
C2441 H2448 0.961 . S
C2441 H2449 0.960 . S
C2442 C2440 1.381 . S
C2442 C2443 1.394 . S
C2442 H2450 0.930 . S
C2443 C2442 1.394 . S
C2443 C2444 1.383 . S
C2443 H2451 0.929 . S
C2444 C2443 1.383 . S
C2444 C2445 1.409 . S
C2445 H2429 0.902 1_556 S
C2445 C2444 1.409 . S
C2445 C2446 1.374 1_556 S
C2446 H2430 0.931 . S
C2446 C2440 1.383 1_554 S
C2446 C2445 1.374 1_554 S
H2447 C2441 0.959 . S
H2448 C2441 0.961 . S
H2449 C2441 0.960 . S
H2450 C2442 0.930 . S
H2451 C2443 0.929 . S
H2452 C2460 0.914 1_556 S
H2453 C2462 0.930 1_556 S
H2454 C2464 0.930 . S
H2455 C2467 0.929 . S
H2456 C2470 0.930 . S
H2457 C2472 0.960 . S
H2458 C2472 0.960 . S
H2459 C2472 0.960 . S
C2460 H2452 0.914 1_554 S
C2460 C2461 1.377 . S
C2460 C2462 1.384 . S
C2461 C2460 1.377 . S
C2461 C2467 1.390 . S
C2462 H2453 0.930 1_554 S
C2462 C2460 1.384 . S
C2462 C2463 1.372 . S
C2463 C2462 1.372 . S
C2463 C2464 1.400 . S
C2463 C2468 1.490 . S
C2464 H2454 0.930 . S
C2464 C2463 1.400 . S
C2464 C2467 1.386 . S
H2465 C2481 0.930 . S
H2466 C2482 0.931 . S
C2467 H2455 0.929 . S
C2467 C2461 1.390 . S
C2467 C2464 1.386 . S
C2468 C2463 1.490 . S
C2468 C2470 1.395 . S
C2468 C2471 1.403 . S
H2469 C2475 0.930 . S
C2470 H2456 0.930 . S
C2470 C2468 1.395 . S
C2470 C2473 1.403 . S
C2471 C2468 1.403 . S
C2471 C2472 1.524 . S
C2471 C2475 1.400 . S
C2472 H2457 0.960 . S
C2472 H2458 0.960 . S
C2472 H2459 0.960 . S
C2472 C2471 1.524 . S
C2473 C2470 1.403 . S
C2473 C2474 1.392 . S
C2473 C2477 1.495 . S
C2474 C2473 1.392 . S
C2474 C2475 1.385 . S
C2474 C2476 1.478 . S
C2475 H2469 0.930 . S
C2475 C2471 1.400 . S
C2475 C2474 1.385 . S
C2476 C2474 1.478 . S
C2476 C2478 1.381 . S
C2476 C2482 1.383 . S
C2477 C2473 1.495 . S
C2477 H2483 0.959 . S
C2477 H2484 0.961 . S
C2477 H2485 0.960 . S
C2478 C2476 1.381 . S
C2478 C2479 1.394 . S
C2478 H2486 0.930 1_554 S
C2479 C2478 1.394 . S
C2479 C2480 1.383 . S
C2479 H2487 0.929 1_554 S
C2480 C2479 1.383 . S
C2480 C2481 1.377 . S
C2481 H2465 0.930 . S
C2481 C2480 1.377 . S
C2481 C2482 1.379 . S
C2482 H2466 0.931 . S
C2482 C2476 1.383 . S
C2482 C2481 1.379 . S
H2483 C2477 0.959 . S
H2484 C2477 0.961 . S
H2485 C2477 0.960 . S
H2486 C2478 0.930 1_556 S
H2487 C2479 0.929 1_556 S
H2488 C2496 0.929 . S
H2489 C2498 0.930 . S
H2490 C2500 0.930 . S
H2491 C2503 0.929 . S
H2492 C2506 0.930 . S
H2493 C2508 0.960 . S
H2494 C2508 0.960 . S
H2495 C2508 0.960 . S
C2496 H2488 0.929 . S
C2496 C2497 1.377 . S
C2496 C2498 1.384 . S
C2497 C2496 1.377 . S
C2497 C2503 1.390 . S
C2498 H2489 0.930 . S
C2498 C2496 1.384 . S
C2498 C2499 1.372 . S
C2499 C2498 1.372 . S
C2499 C2500 1.400 . S
C2499 C2504 1.490 . S
C2500 H2490 0.930 . S
C2500 C2499 1.400 . S
C2500 C2503 1.386 . S
H2501 C2517 0.930 . S
H2502 C2518 0.931 . S
C2503 H2491 0.929 . S
C2503 C2497 1.390 . S
C2503 C2500 1.386 . S
C2504 C2499 1.490 . S
C2504 C2506 1.395 . S
C2504 C2507 1.403 . S
H2505 C2511 0.930 . S
C2506 H2492 0.930 . S
C2506 C2504 1.395 . S
C2506 C2509 1.403 . S
C2507 C2504 1.403 . S
C2507 C2508 1.524 . S
C2507 C2511 1.400 . S
C2508 H2493 0.960 . S
C2508 H2494 0.960 . S
C2508 H2495 0.960 . S
C2508 C2507 1.524 . S
C2509 C2506 1.403 . S
C2509 C2510 1.392 . S
C2509 C2513 1.495 . S
C2510 C2509 1.392 . S
C2510 C2511 1.385 . S
C2510 C2512 1.478 . S
C2511 H2505 0.930 . S
C2511 C2507 1.400 . S
C2511 C2510 1.385 . S
C2512 C2510 1.478 . S
C2512 C2514 1.381 . S
C2512 C2518 1.383 . S
C2513 C2509 1.495 . S
C2513 H2519 0.959 . S
C2513 H2520 0.961 . S
C2513 H2521 0.960 . S
C2514 C2512 1.381 . S
C2514 C2515 1.394 . S
C2514 H2522 0.930 . S
C2515 C2514 1.394 . S
C2515 C2516 1.383 . S
C2515 H2523 0.929 . S
C2516 C2515 1.383 . S
C2516 C2517 1.377 . S
C2517 H2501 0.930 . S
C2517 C2516 1.377 . S
C2517 C2518 1.379 . S
C2518 H2502 0.931 . S
C2518 C2512 1.383 . S
C2518 C2517 1.379 . S
H2519 C2513 0.959 . S
H2520 C2513 0.961 . S
H2521 C2513 0.960 . S
H2522 C2514 0.930 . S
H2523 C2515 0.929 . S
H2524 C2532 0.929 . S
H2525 C2534 0.930 . S
H2526 C2536 0.930 . S
H2527 C2539 0.929 . S
H2528 C2542 0.930 . S
H2529 C2544 0.960 . S
H2530 C2544 0.960 . S
H2531 C2544 0.960 . S
C2532 H2524 0.929 . S
C2532 C2533 1.377 . S
C2532 C2534 1.384 . S
C2533 C2532 1.377 . S
C2533 C2539 1.390 . S
C2534 H2525 0.930 . S
C2534 C2532 1.384 . S
C2534 C2535 1.372 . S
C2535 C2534 1.372 . S
C2535 C2536 1.400 . S
C2535 C2540 1.490 . S
C2536 H2526 0.930 . S
C2536 C2535 1.400 . S
C2536 C2539 1.386 . S
H2537 C2553 0.930 . S
H2538 C2554 0.931 . S
C2539 H2527 0.929 . S
C2539 C2533 1.390 . S
C2539 C2536 1.386 . S
C2540 C2535 1.490 . S
C2540 C2542 1.395 . S
C2540 C2543 1.403 . S
H2541 C2547 0.930 . S
C2542 H2528 0.930 . S
C2542 C2540 1.395 . S
C2542 C2545 1.403 . S
C2543 C2540 1.403 . S
C2543 C2544 1.524 . S
C2543 C2547 1.400 . S
C2544 H2529 0.960 . S
C2544 H2530 0.960 . S
C2544 H2531 0.960 . S
C2544 C2543 1.524 . S
C2545 C2542 1.403 . S
C2545 C2546 1.392 . S
C2545 C2549 1.495 . S
C2546 C2545 1.392 . S
C2546 C2547 1.385 . S
C2546 C2548 1.478 . S
C2547 H2541 0.930 . S
C2547 C2543 1.400 . S
C2547 C2546 1.385 . S
C2548 C2546 1.478 . S
C2548 C2550 1.381 . S
C2548 C2554 1.383 . S
C2549 C2545 1.495 . S
C2549 H2555 0.959 . S
C2549 H2556 0.961 . S
C2549 H2557 0.960 . S
C2550 C2548 1.381 . S
C2550 C2551 1.394 . S
C2550 H2558 0.930 . S
C2551 C2550 1.394 . S
C2551 C2552 1.383 . S
C2551 H2559 0.929 . S
C2552 C2551 1.383 . S
C2552 C2553 1.377 . S
C2553 H2537 0.930 . S
C2553 C2552 1.377 . S
C2553 C2554 1.379 . S
C2554 H2538 0.931 . S
C2554 C2548 1.383 . S
C2554 C2553 1.379 . S
H2555 C2549 0.959 . S
H2556 C2549 0.961 . S
H2557 C2549 0.960 . S
H2558 C2550 0.930 . S
H2559 C2551 0.929 . S
H2560 C2568 0.929 . S
H2561 C2570 0.930 . S
H2562 C2572 0.930 . S
H2563 C2575 0.929 . S
H2564 C2578 0.930 . S
H2565 C2580 0.960 . S
H2566 C2580 0.960 . S
H2567 C2580 0.960 . S
C2568 H2560 0.929 . S
C2568 C2569 1.377 . S
C2568 C2570 1.384 . S
C2569 C2568 1.377 . S
C2569 C2575 1.390 . S
C2570 H2561 0.930 . S
C2570 C2568 1.384 . S
C2570 C2571 1.372 . S
C2571 C2570 1.372 . S
C2571 C2572 1.400 . S
C2571 C2576 1.490 . S
C2572 H2562 0.930 . S
C2572 C2571 1.400 . S
C2572 C2575 1.386 . S
H2573 C2589 0.930 . S
H2574 C2590 0.931 . S
C2575 H2563 0.929 . S
C2575 C2569 1.390 . S
C2575 C2572 1.386 . S
C2576 C2571 1.490 . S
C2576 C2578 1.395 . S
C2576 C2579 1.403 . S
H2577 C2583 0.930 . S
C2578 H2564 0.930 . S
C2578 C2576 1.395 . S
C2578 C2581 1.403 . S
C2579 C2576 1.403 . S
C2579 C2580 1.524 . S
C2579 C2583 1.400 . S
C2580 H2565 0.960 . S
C2580 H2566 0.960 . S
C2580 H2567 0.960 . S
C2580 C2579 1.524 . S
C2581 C2578 1.403 . S
C2581 C2582 1.392 . S
C2581 C2585 1.495 . S
C2582 C2581 1.392 . S
C2582 C2583 1.385 . S
C2582 C2584 1.478 . S
C2583 H2577 0.930 . S
C2583 C2579 1.400 . S
C2583 C2582 1.385 . S
C2584 C2582 1.478 . S
C2584 C2586 1.381 . S
C2584 C2590 1.383 . S
C2585 C2581 1.495 . S
C2585 H2591 0.959 . S
C2585 H2592 0.961 . S
C2585 H2593 0.960 . S
C2586 C2584 1.381 . S
C2586 C2587 1.394 . S
C2586 H2594 0.930 . S
C2587 C2586 1.394 . S
C2587 C2588 1.383 . S
C2587 H2595 0.929 . S
C2588 C2587 1.383 . S
C2588 C2589 1.377 . S
C2589 H2573 0.930 . S
C2589 C2588 1.377 . S
C2589 C2590 1.379 . S
C2590 H2574 0.931 . S
C2590 C2584 1.383 . S
C2590 C2589 1.379 . S
H2591 C2585 0.959 . S
H2592 C2585 0.961 . S
H2593 C2585 0.960 . S
H2594 C2586 0.930 . S
H2595 C2587 0.929 . S
H2596 C2604 0.929 . S
H2597 C2606 0.930 . S
H2598 C2608 0.930 . S
H2599 C2611 0.929 . S
H2600 C2614 0.930 . S
H2601 C2616 0.960 . S
H2602 C2616 0.960 . S
H2603 C2616 0.960 . S
C2604 H2596 0.929 . S
C2604 C2605 1.377 . S
C2604 C2606 1.384 . S
C2605 C2604 1.377 . S
C2605 C2611 1.390 . S
C2606 H2597 0.930 . S
C2606 C2604 1.384 . S
C2606 C2607 1.372 . S
C2607 C2606 1.372 . S
C2607 C2608 1.400 . S
C2607 C2612 1.490 . S
C2608 H2598 0.930 . S
C2608 C2607 1.400 . S
C2608 C2611 1.386 . S
H2609 C2625 0.930 . S
H2610 C2626 0.931 . S
C2611 H2599 0.929 . S
C2611 C2605 1.390 . S
C2611 C2608 1.386 . S
C2612 C2607 1.490 . S
C2612 C2614 1.395 . S
C2612 C2615 1.403 . S
H2613 C2619 0.930 . S
C2614 H2600 0.930 . S
C2614 C2612 1.395 . S
C2614 C2617 1.403 . S
C2615 C2612 1.403 . S
C2615 C2616 1.524 . S
C2615 C2619 1.400 . S
C2616 H2601 0.960 . S
C2616 H2602 0.960 . S
C2616 H2603 0.960 . S
C2616 C2615 1.524 . S
C2617 C2614 1.403 . S
C2617 C2618 1.392 . S
C2617 C2621 1.495 . S
C2618 C2617 1.392 . S
C2618 C2619 1.385 . S
C2618 C2620 1.478 . S
C2619 H2613 0.930 . S
C2619 C2615 1.400 . S
C2619 C2618 1.385 . S
C2620 C2618 1.478 . S
C2620 C2622 1.381 . S
C2620 C2626 1.383 . S
C2621 C2617 1.495 . S
C2621 H2627 0.959 1_565 S
C2621 H2628 0.961 . S
C2621 H2629 0.960 1_565 S
C2622 C2620 1.381 . S
C2622 C2623 1.394 1_565 S
C2622 H2630 0.930 1_565 S
C2623 C2622 1.394 1_545 S
C2623 C2624 1.383 1_545 S
C2623 H2631 0.929 . S
C2624 C2623 1.383 1_565 S
C2624 C2625 1.377 . S
C2625 H2609 0.930 . S
C2625 C2624 1.377 . S
C2625 C2626 1.379 . S
C2626 H2610 0.931 . S
C2626 C2620 1.383 . S
C2626 C2625 1.379 . S
H2627 C2621 0.959 1_545 S
H2628 C2621 0.961 . S
H2629 C2621 0.960 1_545 S
H2630 C2622 0.930 1_545 S
H2631 C2623 0.929 . S
H2632 C2640 0.929 . S
H2633 C2642 0.930 . S
H2634 C2644 0.930 . S
H2635 C2647 0.929 . S
H2636 C2650 0.930 . S
H2637 C2652 0.960 . S
H2638 C2652 0.960 . S
H2639 C2652 0.960 . S
C2640 H2632 0.929 . S
C2640 C2641 1.377 . S
C2640 C2642 1.384 . S
C2641 C2640 1.377 . S
C2641 C2647 1.390 . S
C2642 H2633 0.930 . S
C2642 C2640 1.384 . S
C2642 C2643 1.372 . S
C2643 C2642 1.372 . S
C2643 C2644 1.400 . S
C2643 C2648 1.490 . S
C2644 H2634 0.930 . S
C2644 C2643 1.400 . S
C2644 C2647 1.386 . S
H2645 C2661 0.930 . S
H2646 C2662 0.931 . S
C2647 H2635 0.929 . S
C2647 C2641 1.390 . S
C2647 C2644 1.386 . S
C2648 C2643 1.490 . S
C2648 C2650 1.395 . S
C2648 C2651 1.403 . S
H2649 C2655 0.930 . S
C2650 H2636 0.930 . S
C2650 C2648 1.395 . S
C2650 C2653 1.403 . S
C2651 C2648 1.403 . S
C2651 C2652 1.524 . S
C2651 C2655 1.400 . S
C2652 H2637 0.960 . S
C2652 H2638 0.960 . S
C2652 H2639 0.960 . S
C2652 C2651 1.524 . S
C2653 C2650 1.403 . S
C2653 C2654 1.392 . S
C2653 C2657 1.495 . S
C2654 C2653 1.392 . S
C2654 C2655 1.385 . S
C2654 C2656 1.478 . S
C2655 H2649 0.930 . S
C2655 C2651 1.400 . S
C2655 C2654 1.385 . S
C2656 C2654 1.478 . S
C2656 C2658 1.381 . S
C2656 C2662 1.383 . S
C2657 C2653 1.495 . S
C2657 H2663 0.959 . S
C2657 H2664 0.961 . S
C2657 H2665 0.960 . S
C2658 C2656 1.381 . S
C2658 C2659 1.394 . S
C2658 H2666 0.930 . S
C2659 C2658 1.394 . S
C2659 C2660 1.383 . S
C2659 H2667 0.929 . S
C2660 C2659 1.383 . S
C2660 C2661 1.377 . S
C2661 H2645 0.930 . S
C2661 C2660 1.377 . S
C2661 C2662 1.379 . S
C2662 H2646 0.931 . S
C2662 C2656 1.383 . S
C2662 C2661 1.379 . S
H2663 C2657 0.959 . S
H2664 C2657 0.961 . S
H2665 C2657 0.960 . S
H2666 C2658 0.930 . S
H2667 C2659 0.929 . S
H2668 C2676 0.929 . S
H2669 C2678 0.930 . S
H2670 C2680 0.930 . S
H2671 C2683 0.929 . S
H2672 C2686 0.930 . S
H2673 C2688 0.960 . S
H2674 C2688 0.960 . S
H2675 C2688 0.960 . S
C2676 H2668 0.929 . S
C2676 C2677 1.377 . S
C2676 C2678 1.384 . S
C2677 C2676 1.377 . S
C2677 C2683 1.390 . S
C2678 H2669 0.930 . S
C2678 C2676 1.384 . S
C2678 C2679 1.372 . S
C2679 C2678 1.372 . S
C2679 C2680 1.400 . S
C2679 C2684 1.490 . S
C2680 H2670 0.930 . S
C2680 C2679 1.400 . S
C2680 C2683 1.386 . S
H2681 C2697 0.930 . S
H2682 C2698 0.931 . S
C2683 H2671 0.929 . S
C2683 C2677 1.390 . S
C2683 C2680 1.386 . S
C2684 C2679 1.490 . S
C2684 C2686 1.395 . S
C2684 C2687 1.403 . S
H2685 C2691 0.930 . S
C2686 H2672 0.930 . S
C2686 C2684 1.395 . S
C2686 C2689 1.403 . S
C2687 C2684 1.403 . S
C2687 C2688 1.524 . S
C2687 C2691 1.400 . S
C2688 H2673 0.960 . S
C2688 H2674 0.960 . S
C2688 H2675 0.960 . S
C2688 C2687 1.524 . S
C2689 C2686 1.403 . S
C2689 C2690 1.392 . S
C2689 C2693 1.495 . S
C2690 C2689 1.392 . S
C2690 C2691 1.385 . S
C2690 C2692 1.478 . S
C2691 H2685 0.930 . S
C2691 C2687 1.400 . S
C2691 C2690 1.385 . S
C2692 C2690 1.478 . S
C2692 C2694 1.381 . S
C2692 C2698 1.383 . S
C2693 C2689 1.495 . S
C2693 H2699 0.959 . S
C2693 H2700 0.961 . S
C2693 H2701 0.960 . S
C2694 C2692 1.381 . S
C2694 C2695 1.394 . S
C2694 H2702 0.930 . S
C2695 C2694 1.394 . S
C2695 C2696 1.383 . S
C2695 H2703 0.929 . S
C2696 C2695 1.383 . S
C2696 C2697 1.377 . S
C2697 H2681 0.930 . S
C2697 C2696 1.377 . S
C2697 C2698 1.379 . S
C2698 H2682 0.931 . S
C2698 C2692 1.383 . S
C2698 C2697 1.379 . S
H2699 C2693 0.959 . S
H2700 C2693 0.961 . S
H2701 C2693 0.960 . S
H2702 C2694 0.930 . S
H2703 C2695 0.929 . S
H2704 C2712 0.929 . S
H2705 C2714 0.930 . S
H2706 C2716 0.930 . S
H2707 C2719 0.929 . S
H2708 C2722 0.930 . S
H2709 C2724 0.960 . S
H2710 C2724 0.960 . S
H2711 C2724 0.960 . S
C2712 H2704 0.929 . S
C2712 C2713 1.377 . S
C2712 C2714 1.384 . S
C2713 C2712 1.377 . S
C2713 C2719 1.390 . S
C2714 H2705 0.930 . S
C2714 C2712 1.384 . S
C2714 C2715 1.372 . S
C2715 C2714 1.372 . S
C2715 C2716 1.400 . S
C2715 C2720 1.490 . S
C2716 H2706 0.930 . S
C2716 C2715 1.400 . S
C2716 C2719 1.386 . S
H2717 C2733 0.930 . S
H2718 C2734 0.931 . S
C2719 H2707 0.929 . S
C2719 C2713 1.390 . S
C2719 C2716 1.386 . S
C2720 C2715 1.490 . S
C2720 C2722 1.395 . S
C2720 C2723 1.403 . S
H2721 C2727 0.930 . S
C2722 H2708 0.930 . S
C2722 C2720 1.395 . S
C2722 C2725 1.403 . S
C2723 C2720 1.403 . S
C2723 C2724 1.524 . S
C2723 C2727 1.400 . S
C2724 H2709 0.960 . S
C2724 H2710 0.960 . S
C2724 H2711 0.960 . S
C2724 C2723 1.524 . S
C2725 C2722 1.403 . S
C2725 C2726 1.392 . S
C2725 C2729 1.495 . S
C2726 C2725 1.392 . S
C2726 C2727 1.385 . S
C2726 C2728 1.478 . S
C2727 H2721 0.930 . S
C2727 C2723 1.400 . S
C2727 C2726 1.385 . S
C2728 C2726 1.478 . S
C2728 C2730 1.381 . S
C2728 C2734 1.383 . S
C2729 C2725 1.495 . S
C2729 H2735 0.959 . S
C2729 H2736 0.961 . S
C2729 H2737 0.960 . S
C2730 C2728 1.381 . S
C2730 C2731 1.394 . S
C2730 H2738 0.930 . S
C2731 C2730 1.394 . S
C2731 C2732 1.383 . S
C2731 H2739 0.929 . S
C2732 C2731 1.383 . S
C2732 C2733 1.377 . S
C2733 H2717 0.930 . S
C2733 C2732 1.377 . S
C2733 C2734 1.379 . S
C2734 H2718 0.931 . S
C2734 C2728 1.383 . S
C2734 C2733 1.379 . S
H2735 C2729 0.959 . S
H2736 C2729 0.961 . S
H2737 C2729 0.960 . S
H2738 C2730 0.930 . S
H2739 C2731 0.929 . S
H2740 C2748 0.929 . S
H2741 C2750 0.930 . S
H2742 C2752 0.930 . S
H2743 C2755 0.929 . S
H2744 C2758 0.930 . S
H2745 C2760 0.960 . S
H2746 C2760 0.960 . S
H2747 C2760 0.960 . S
C2748 H2740 0.929 . S
C2748 C2749 1.377 . S
C2748 C2750 1.384 . S
C2749 C2748 1.377 . S
C2749 C2755 1.390 . S
C2750 H2741 0.930 . S
C2750 C2748 1.384 . S
C2750 C2751 1.372 . S
C2751 C2750 1.372 . S
C2751 C2752 1.400 . S
C2751 C2756 1.490 . S
C2752 H2742 0.930 . S
C2752 C2751 1.400 . S
C2752 C2755 1.386 . S
H2753 C2769 0.930 . S
H2754 C2770 0.931 . S
C2755 H2743 0.929 . S
C2755 C2749 1.390 . S
C2755 C2752 1.386 . S
C2756 C2751 1.490 . S
C2756 C2758 1.395 . S
C2756 C2759 1.403 . S
H2757 C2763 0.930 . S
C2758 H2744 0.930 . S
C2758 C2756 1.395 . S
C2758 C2761 1.403 . S
C2759 C2756 1.403 . S
C2759 C2760 1.524 . S
C2759 C2763 1.400 . S
C2760 H2745 0.960 . S
C2760 H2746 0.960 . S
C2760 H2747 0.960 . S
C2760 C2759 1.524 . S
C2761 C2758 1.403 . S
C2761 C2762 1.392 . S
C2761 C2765 1.495 . S
C2762 C2761 1.392 . S
C2762 C2763 1.385 . S
C2762 C2764 1.478 . S
C2763 H2757 0.930 . S
C2763 C2759 1.400 . S
C2763 C2762 1.385 . S
C2764 C2762 1.478 . S
C2764 C2766 1.381 . S
C2764 C2770 1.383 . S
C2765 C2761 1.495 . S
C2765 H2771 0.959 . S
C2765 H2772 0.961 . S
C2765 H2773 0.960 . S
C2766 C2764 1.381 . S
C2766 C2767 1.394 . S
C2766 H2774 0.930 . S
C2767 C2766 1.394 . S
C2767 C2768 1.383 . S
C2767 H2775 0.929 . S
C2768 C2767 1.383 . S
C2768 C2769 1.377 . S
C2769 H2753 0.930 . S
C2769 C2768 1.377 . S
C2769 C2770 1.379 . S
C2770 H2754 0.931 . S
C2770 C2764 1.383 . S
C2770 C2769 1.379 . S
H2771 C2765 0.959 . S
H2772 C2765 0.961 . S
H2773 C2765 0.960 . S
H2774 C2766 0.930 . S
H2775 C2767 0.929 . S
H2776 C2784 0.929 . S
H2777 C2786 0.930 . S
H2778 C2788 0.930 . S
H2779 C2791 0.929 . S
H2780 C2794 0.930 . S
H2781 C2796 0.960 . S
H2782 C2796 0.960 . S
H2783 C2796 0.960 . S
C2784 H2776 0.929 . S
C2784 C2785 1.377 . S
C2784 C2786 1.384 . S
C2785 C2784 1.377 . S
C2785 C2791 1.390 1_455 S
C2786 H2777 0.930 . S
C2786 C2784 1.384 . S
C2786 C2787 1.372 . S
C2787 C2786 1.372 . S
C2787 C2788 1.400 1_455 S
C2787 C2792 1.490 . S
C2788 H2778 0.930 . S
C2788 C2787 1.400 1_655 S
C2788 C2791 1.386 . S
H2789 C2805 0.930 . S
H2790 C2806 0.931 . S
C2791 H2779 0.929 . S
C2791 C2785 1.390 1_655 S
C2791 C2788 1.386 . S
C2792 C2787 1.490 . S
C2792 C2794 1.395 . S
C2792 C2795 1.403 1_455 S
H2793 C2799 0.943 . S
C2794 H2780 0.930 . S
C2794 C2792 1.395 . S
C2794 C2797 1.403 . S
C2795 C2792 1.403 1_655 S
C2795 C2796 1.524 . S
C2795 C2799 1.399 . S
C2796 H2781 0.960 . S
C2796 H2782 0.960 . S
C2796 H2783 0.960 . S
C2796 C2795 1.524 . S
C2797 C2794 1.403 . S
C2797 C2798 1.392 . S
C2797 C2801 1.495 . S
C2798 C2797 1.392 . S
C2798 C2799 1.374 1_455 S
C2798 C2800 1.478 . S
C2799 H2793 0.943 . S
C2799 C2795 1.399 . S
C2799 C2798 1.374 1_655 S
C2800 C2798 1.478 . S
C2800 C2802 1.381 . S
C2800 C2806 1.383 . S
C2801 C2797 1.495 . S
C2801 H2807 0.959 . S
C2801 H2808 0.961 . S
C2801 H2809 0.960 . S
C2802 C2800 1.381 . S
C2802 C2803 1.394 . S
C2802 H2810 0.930 . S
C2803 C2802 1.394 . S
C2803 C2804 1.383 . S
C2803 H2811 0.929 . S
C2804 C2803 1.383 . S
C2804 C2805 1.377 . S
C2805 H2789 0.930 . S
C2805 C2804 1.377 . S
C2805 C2806 1.379 . S
C2806 H2790 0.931 . S
C2806 C2800 1.383 . S
C2806 C2805 1.379 . S
H2807 C2801 0.959 . S
H2808 C2801 0.961 . S
H2809 C2801 0.960 . S
H2810 C2802 0.930 . S
H2811 C2803 0.929 . S
H2812 C2820 0.929 . S
H2813 C2822 0.877 1_655 S
H2814 C2824 0.930 . S
H2815 C2827 0.929 . S
H2816 C2830 0.930 . S
H2817 C2832 0.939 1_655 S
H2818 C2832 0.977 . S
H2819 C2832 1.013 . S
C2820 H2812 0.929 . S
C2820 C2821 1.377 . S
C2820 C2822 1.384 . S
C2821 C2820 1.377 . S
C2821 C2827 1.390 . S
C2822 H2813 0.877 1_455 S
C2822 C2820 1.384 . S
C2822 C2823 1.372 . S
C2823 C2822 1.372 . S
C2823 C2824 1.400 . S
C2823 C2828 1.490 1_455 S
C2824 H2814 0.930 . S
C2824 C2823 1.400 . S
C2824 C2827 1.386 . S
H2825 C2841 0.930 . S
H2826 C2842 0.931 . S
C2827 H2815 0.929 . S
C2827 C2821 1.390 . S
C2827 C2824 1.386 . S
C2828 C2823 1.490 1_655 S
C2828 C2830 1.395 . S
C2828 C2831 1.403 . S
H2829 C2835 0.930 . S
C2830 H2816 0.930 . S
C2830 C2828 1.395 . S
C2830 C2833 1.403 . S
C2831 C2828 1.403 . S
C2831 C2832 1.480 1_655 S
C2831 C2835 1.400 . S
C2832 H2817 0.939 1_455 S
C2832 H2818 0.977 . S
C2832 H2819 1.013 . S
C2832 C2831 1.480 1_455 S
C2833 C2830 1.403 . S
C2833 C2834 1.392 . S
C2833 C2837 1.495 . S
C2834 C2833 1.392 . S
C2834 C2835 1.385 . S
C2834 C2836 1.478 . S
C2835 H2829 0.930 . S
C2835 C2831 1.400 . S
C2835 C2834 1.385 . S
C2836 C2834 1.478 . S
C2836 C2838 1.381 . S
C2836 C2842 1.383 . S
C2837 C2833 1.495 . S
C2837 H2843 0.959 . S
C2837 H2844 0.961 . S
C2837 H2845 0.960 . S
C2838 C2836 1.381 . S
C2838 C2839 1.394 . S
C2838 H2846 0.930 . S
C2839 C2838 1.394 . S
C2839 C2840 1.383 . S
C2839 H2847 0.929 . S
C2840 C2839 1.383 . S
C2840 C2841 1.377 . S
C2841 H2825 0.930 . S
C2841 C2840 1.377 . S
C2841 C2842 1.379 . S
C2842 H2826 0.931 . S
C2842 C2836 1.383 . S
C2842 C2841 1.379 . S
H2843 C2837 0.959 . S
H2844 C2837 0.961 . S
H2845 C2837 0.960 . S
H2846 C2838 0.930 . S
H2847 C2839 0.929 . S
H2848 C2856 0.929 . S
H2849 C2858 0.930 . S
H2850 C2860 0.930 . S
H2851 C2863 0.929 . S
H2852 C2866 0.930 . S
H2853 C2868 0.960 . S
H2854 C2868 0.960 . S
H2855 C2868 0.960 . S
C2856 H2848 0.929 . S
C2856 C2857 1.377 . S
C2856 C2858 1.384 . S
C2857 C2856 1.377 . S
C2857 C2863 1.390 . S
C2858 H2849 0.930 . S
C2858 C2856 1.384 . S
C2858 C2859 1.372 . S
C2859 C2858 1.372 . S
C2859 C2860 1.400 . S
C2859 C2864 1.490 . S
C2860 H2850 0.930 . S
C2860 C2859 1.400 . S
C2860 C2863 1.386 . S
H2861 C2877 0.930 . S
H2862 C2878 0.931 . S
C2863 H2851 0.929 . S
C2863 C2857 1.390 . S
C2863 C2860 1.386 . S
C2864 C2859 1.490 . S
C2864 C2866 1.395 . S
C2864 C2867 1.403 . S
H2865 C2871 0.930 . S
C2866 H2852 0.930 . S
C2866 C2864 1.395 . S
C2866 C2869 1.403 . S
C2867 C2864 1.403 . S
C2867 C2868 1.524 . S
C2867 C2871 1.400 . S
C2868 H2853 0.960 . S
C2868 H2854 0.960 . S
C2868 H2855 0.960 . S
C2868 C2867 1.524 . S
C2869 C2866 1.403 . S
C2869 C2870 1.392 . S
C2869 C2873 1.495 . S
C2870 C2869 1.392 . S
C2870 C2871 1.385 . S
C2870 C2872 1.478 . S
C2871 H2865 0.930 . S
C2871 C2867 1.400 . S
C2871 C2870 1.385 . S
C2872 C2870 1.478 . S
C2872 C2874 1.381 . S
C2872 C2878 1.383 . S
C2873 C2869 1.495 . S
C2873 H2879 0.959 . S
C2873 H2880 0.961 . S
C2873 H2881 0.960 . S
C2874 C2872 1.381 . S
C2874 C2875 1.394 . S
C2874 H2882 0.930 . S
C2875 C2874 1.394 . S
C2875 C2876 1.383 . S
C2875 H2883 0.929 . S
C2876 C2875 1.383 . S
C2876 C2877 1.377 . S
C2877 H2861 0.930 . S
C2877 C2876 1.377 . S
C2877 C2878 1.379 . S
C2878 H2862 0.931 . S
C2878 C2872 1.383 . S
C2878 C2877 1.379 . S
H2879 C2873 0.959 . S
H2880 C2873 0.961 . S
H2881 C2873 0.960 . S
H2882 C2874 0.930 . S
H2883 C2875 0.929 . S
H2884 C2892 0.971 . S
H2885 C2894 0.930 . S
H2886 C2896 0.930 . S
H2887 C2899 0.929 . S
H2888 C2902 0.930 . S
H2889 C2904 0.960 . S
H2890 C2904 0.960 . S
H2891 C2904 0.960 . S
C2892 H2884 0.971 . S
C2892 C2893 1.377 . S
C2892 C2894 1.384 . S
C2893 C2892 1.377 . S
C2893 C2899 1.390 . S
C2894 H2885 0.930 . S
C2894 C2892 1.384 . S
C2894 C2895 1.372 . S
C2895 C2894 1.372 . S
C2895 C2896 1.400 . S
C2895 C2900 1.490 . S
C2896 H2886 0.930 . S
C2896 C2895 1.400 . S
C2896 C2899 1.386 . S
H2897 C2913 0.930 . S
H2898 C2914 0.931 . S
C2899 H2887 0.929 . S
C2899 C2893 1.390 . S
C2899 C2896 1.386 . S
C2900 C2895 1.490 . S
C2900 C2902 1.395 . S
C2900 C2903 1.403 . S
H2901 C2907 0.930 . S
C2902 H2888 0.930 . S
C2902 C2900 1.395 . S
C2902 C2905 1.403 . S
C2903 C2900 1.403 . S
C2903 C2904 1.524 . S
C2903 C2907 1.400 . S
C2904 H2889 0.960 . S
C2904 H2890 0.960 . S
C2904 H2891 0.960 . S
C2904 C2903 1.524 . S
C2905 C2902 1.403 . S
C2905 C2906 1.392 . S
C2905 C2909 1.495 . S
C2906 C2905 1.392 . S
C2906 C2907 1.385 . S
C2906 C2908 1.478 . S
C2907 H2901 0.930 . S
C2907 C2903 1.400 . S
C2907 C2906 1.385 . S
C2908 C2906 1.478 . S
C2908 C2910 1.381 . S
C2908 C2914 1.383 . S
C2909 C2905 1.495 . S
C2909 H2915 0.959 . S
C2909 H2916 0.961 . S
C2909 H2917 0.960 . S
C2910 C2908 1.381 . S
C2910 C2911 1.394 . S
C2910 H2918 0.930 . S
C2911 C2910 1.394 . S
C2911 C2912 1.383 . S
C2911 H2919 0.929 . S
C2912 C2911 1.383 . S
C2912 C2913 1.377 . S
C2913 H2897 0.930 . S
C2913 C2912 1.377 . S
C2913 C2914 1.379 . S
C2914 H2898 0.931 . S
C2914 C2908 1.383 . S
C2914 C2913 1.379 . S
H2915 C2909 0.959 . S
H2916 C2909 0.961 . S
H2917 C2909 0.960 . S
H2918 C2910 0.930 . S
H2919 C2911 0.929 . S
H2920 C2928 0.929 . S
H2921 C2930 0.930 . S
H2922 C2932 0.930 . S
H2923 C2935 0.929 . S
H2924 C2938 0.930 . S
H2925 C2940 0.960 . S
H2926 C2940 0.960 . S
H2927 C2940 0.960 . S
C2928 H2920 0.929 . S
C2928 C2929 1.377 . S
C2928 C2930 1.384 . S
C2929 C2928 1.377 . S
C2929 C2935 1.390 . S
C2930 H2921 0.930 . S
C2930 C2928 1.384 . S
C2930 C2931 1.372 . S
C2931 C2930 1.372 . S
C2931 C2932 1.400 . S
C2931 C2936 1.490 . S
C2932 H2922 0.930 . S
C2932 C2931 1.400 . S
C2932 C2935 1.386 . S
H2933 C2949 0.930 . S
H2934 C2950 0.931 . S
C2935 H2923 0.929 . S
C2935 C2929 1.390 . S
C2935 C2932 1.386 . S
C2936 C2931 1.490 . S
C2936 C2938 1.395 . S
C2936 C2939 1.403 . S
H2937 C2943 0.930 . S
C2938 H2924 0.930 . S
C2938 C2936 1.395 . S
C2938 C2941 1.403 . S
C2939 C2936 1.403 . S
C2939 C2940 1.524 . S
C2939 C2943 1.400 . S
C2940 H2925 0.960 . S
C2940 H2926 0.960 . S
C2940 H2927 0.960 . S
C2940 C2939 1.524 . S
C2941 C2938 1.403 . S
C2941 C2942 1.392 . S
C2941 C2945 1.495 1_455 S
C2942 C2941 1.392 . S
C2942 C2943 1.385 . S
C2942 C2944 1.478 . S
C2943 H2937 0.930 . S
C2943 C2939 1.400 . S
C2943 C2942 1.385 . S
C2944 C2942 1.478 . S
C2944 C2946 1.381 . S
C2944 C2950 1.383 . S
C2945 C2941 1.495 1_655 S
C2945 H2951 0.959 . S
C2945 H2952 0.961 . S
C2945 H2953 0.960 . S
C2946 C2944 1.381 . S
C2946 C2947 1.394 . S
C2946 H2954 0.930 . S
C2947 C2946 1.394 . S
C2947 C2948 1.383 . S
C2947 H2955 0.929 . S
C2948 C2947 1.383 . S
C2948 C2949 1.377 . S
C2949 H2933 0.930 . S
C2949 C2948 1.377 . S
C2949 C2950 1.379 . S
C2950 H2934 0.931 . S
C2950 C2944 1.383 . S
C2950 C2949 1.379 . S
H2951 C2945 0.959 . S
H2952 C2945 0.961 . S
H2953 C2945 0.960 . S
H2954 C2946 0.930 . S
H2955 C2947 0.929 . S
H2956 C2964 0.929 . S
H2957 C2966 0.930 . S
H2958 C2968 0.930 . S
H2959 C2971 0.929 . S
H2960 C2974 0.930 . S
H2961 C2976 0.960 . S
H2962 C2976 0.960 . S
H2963 C2976 0.960 . S
C2964 H2956 0.929 . S
C2964 C2965 1.377 . S
C2964 C2966 1.384 . S
C2965 C2964 1.377 . S
C2965 C2971 1.390 . S
C2966 H2957 0.930 . S
C2966 C2964 1.384 . S
C2966 C2967 1.372 . S
C2967 C2966 1.372 . S
C2967 C2968 1.400 . S
C2967 C2972 1.490 . S
C2968 H2958 0.930 . S
C2968 C2967 1.400 . S
C2968 C2971 1.386 . S
H2969 C2985 0.930 . S
H2970 C2986 0.931 . S
C2971 H2959 0.929 . S
C2971 C2965 1.390 . S
C2971 C2968 1.386 . S
C2972 C2967 1.490 . S
C2972 C2974 1.395 . S
C2972 C2975 1.403 . S
H2973 C2979 0.930 . S
C2974 H2960 0.930 . S
C2974 C2972 1.395 . S
C2974 C2977 1.403 . S
C2975 C2972 1.403 . S
C2975 C2976 1.524 . S
C2975 C2979 1.400 . S
C2976 H2961 0.960 . S
C2976 H2962 0.960 . S
C2976 H2963 0.960 . S
C2976 C2975 1.524 . S
C2977 C2974 1.403 . S
C2977 C2978 1.392 . S
C2977 C2981 1.495 . S
C2978 C2977 1.392 . S
C2978 C2979 1.385 . S
C2978 C2980 1.478 . S
C2979 H2973 0.930 . S
C2979 C2975 1.400 . S
C2979 C2978 1.385 . S
C2980 C2978 1.478 . S
C2980 C2982 1.381 . S
C2980 C2986 1.383 . S
C2981 C2977 1.495 . S
C2981 H2987 0.959 . S
C2981 H2988 0.961 . S
C2981 H2989 0.960 . S
C2982 C2980 1.381 . S
C2982 C2983 1.394 . S
C2982 H2990 0.930 . S
C2983 C2982 1.394 . S
C2983 C2984 1.383 . S
C2983 H2991 0.929 . S
C2984 C2983 1.383 . S
C2984 C2985 1.377 . S
C2985 H2969 0.930 . S
C2985 C2984 1.377 . S
C2985 C2986 1.379 . S
C2986 H2970 0.931 . S
C2986 C2980 1.383 . S
C2986 C2985 1.379 . S
H2987 C2981 0.959 . S
H2988 C2981 0.961 . S
H2989 C2981 0.960 . S
H2990 C2982 0.930 . S
H2991 C2983 0.929 . S
H2992 C3000 0.929 . S
H2993 C3002 0.930 . S
H2994 C3004 0.930 . S
H2995 C3007 0.929 . S
H2996 C3010 0.930 . S
H2997 C3012 0.960 . S
H2998 C3012 0.960 . S
H2999 C3012 0.960 . S
C3000 H2992 0.929 . S
C3000 C3001 1.377 . S
C3000 C3002 1.384 . S
C3001 C3000 1.377 . S
C3001 C3007 1.390 . S
C3002 H2993 0.930 . S
C3002 C3000 1.384 . S
C3002 C3003 1.372 . S
C3003 C3002 1.372 . S
C3003 C3004 1.400 . S
C3003 C3008 1.490 . S
C3004 H2994 0.930 . S
C3004 C3003 1.400 . S
C3004 C3007 1.386 . S
H3005 C3021 0.930 . S
H3006 C3022 0.931 . S
C3007 H2995 0.929 . S
C3007 C3001 1.390 . S
C3007 C3004 1.386 . S
C3008 C3003 1.490 . S
C3008 C3010 1.395 . S
C3008 C3011 1.403 . S
H3009 C3015 0.930 . S
C3010 H2996 0.930 . S
C3010 C3008 1.395 . S
C3010 C3013 1.403 . S
C3011 C3008 1.403 . S
C3011 C3012 1.524 . S
C3011 C3015 1.400 . S
C3012 H2997 0.960 . S
C3012 H2998 0.960 . S
C3012 H2999 0.960 . S
C3012 C3011 1.524 . S
C3013 C3010 1.403 . S
C3013 C3014 1.392 . S
C3013 C3017 1.495 . S
C3014 C3013 1.392 . S
C3014 C3015 1.385 . S
C3014 C3016 1.478 . S
C3015 H3009 0.930 . S
C3015 C3011 1.400 . S
C3015 C3014 1.385 . S
C3016 C3014 1.478 . S
C3016 C3018 1.381 . S
C3016 C3022 1.383 . S
C3017 C3013 1.495 . S
C3017 H3023 0.959 . S
C3017 H3024 0.961 . S
C3017 H3025 0.960 . S
C3018 C3016 1.381 . S
C3018 C3019 1.394 . S
C3018 H3026 0.930 . S
C3019 C3018 1.394 . S
C3019 C3020 1.383 . S
C3019 H3027 0.929 . S
C3020 C3019 1.383 . S
C3020 C3021 1.377 . S
C3021 H3005 0.930 . S
C3021 C3020 1.377 . S
C3021 C3022 1.379 . S
C3022 H3006 0.931 . S
C3022 C3016 1.383 . S
C3022 C3021 1.379 . S
H3023 C3017 0.959 . S
H3024 C3017 0.961 . S
H3025 C3017 0.960 . S
H3026 C3018 0.930 . S
H3027 C3019 0.929 . S
H3028 C3036 0.929 . S
H3029 C3038 0.930 . S
H3030 C3040 0.930 . S
H3031 C3043 0.929 . S
H3032 C3046 0.930 . S
H3033 C3048 0.960 . S
H3034 C3048 0.960 . S
H3035 C3048 0.960 . S
C3036 H3028 0.929 . S
C3036 C3037 1.377 . S
C3036 C3038 1.384 . S
C3037 C3036 1.377 . S
C3037 C3043 1.390 . S
C3038 H3029 0.930 . S
C3038 C3036 1.384 . S
C3038 C3039 1.372 . S
C3039 C3038 1.372 . S
C3039 C3040 1.400 . S
C3039 C3044 1.490 . S
C3040 H3030 0.930 . S
C3040 C3039 1.400 . S
C3040 C3043 1.386 . S
H3041 C3057 0.930 . S
H3042 C3058 0.931 . S
C3043 H3031 0.929 . S
C3043 C3037 1.390 . S
C3043 C3040 1.386 . S
C3044 C3039 1.490 . S
C3044 C3046 1.395 . S
C3044 C3047 1.403 . S
H3045 C3051 0.930 . S
C3046 H3032 0.930 . S
C3046 C3044 1.395 . S
C3046 C3049 1.403 . S
C3047 C3044 1.403 . S
C3047 C3048 1.524 . S
C3047 C3051 1.400 . S
C3048 H3033 0.960 . S
C3048 H3034 0.960 . S
C3048 H3035 0.960 . S
C3048 C3047 1.524 . S
C3049 C3046 1.403 . S
C3049 C3050 1.392 . S
C3049 C3053 1.495 . S
C3050 C3049 1.392 . S
C3050 C3051 1.385 . S
C3050 C3052 1.478 . S
C3051 H3045 0.930 . S
C3051 C3047 1.400 . S
C3051 C3050 1.385 . S
C3052 C3050 1.478 . S
C3052 C3054 1.381 . S
C3052 C3058 1.383 . S
C3053 C3049 1.495 . S
C3053 H3059 0.959 . S
C3053 H3060 0.961 . S
C3053 H3061 0.960 . S
C3054 C3052 1.381 . S
C3054 C3055 1.394 . S
C3054 H3062 0.930 . S
C3055 C3054 1.394 . S
C3055 C3056 1.383 . S
C3055 H3063 0.929 . S
C3056 C3055 1.383 . S
C3056 C3057 1.377 . S
C3057 H3041 0.930 . S
C3057 C3056 1.377 . S
C3057 C3058 1.379 . S
C3058 H3042 0.931 . S
C3058 C3052 1.383 . S
C3058 C3057 1.379 . S
H3059 C3053 0.959 . S
H3060 C3053 0.961 . S
H3061 C3053 0.960 . S
H3062 C3054 0.930 . S
H3063 C3055 0.929 . S
H3064 C3072 0.929 . S
H3065 C3074 0.930 . S
H3066 C3076 0.930 . S
H3067 C3079 0.929 . S
H3068 C3082 0.930 . S
H3069 C3084 0.960 . S
H3070 C3084 0.960 . S
H3071 C3084 0.960 . S
C3072 H3064 0.929 . S
C3072 C3073 1.377 . S
C3072 C3074 1.384 . S
C3073 C3072 1.377 . S
C3073 C3079 1.390 . S
C3074 H3065 0.930 . S
C3074 C3072 1.384 . S
C3074 C3075 1.372 . S
C3075 C3074 1.372 . S
C3075 C3076 1.400 . S
C3075 C3080 1.490 . S
C3076 H3066 0.930 . S
C3076 C3075 1.400 . S
C3076 C3079 1.386 . S
H3077 C3093 0.930 . S
H3078 C3094 0.931 . S
C3079 H3067 0.929 . S
C3079 C3073 1.390 . S
C3079 C3076 1.386 . S
C3080 C3075 1.490 . S
C3080 C3082 1.395 . S
C3080 C3083 1.403 . S
H3081 C3087 0.930 . S
C3082 H3068 0.930 . S
C3082 C3080 1.395 . S
C3082 C3085 1.403 . S
C3083 C3080 1.403 . S
C3083 C3084 1.524 . S
C3083 C3087 1.400 . S
C3084 H3069 0.960 . S
C3084 H3070 0.960 . S
C3084 H3071 0.960 . S
C3084 C3083 1.524 . S
C3085 C3082 1.403 . S
C3085 C3086 1.392 . S
C3085 C3089 1.495 . S
C3086 C3085 1.392 . S
C3086 C3087 1.385 . S
C3086 C3088 1.478 . S
C3087 H3081 0.930 . S
C3087 C3083 1.400 . S
C3087 C3086 1.385 . S
C3088 C3086 1.478 . S
C3088 C3090 1.381 . S
C3088 C3094 1.383 . S
C3089 C3085 1.495 . S
C3089 H3095 0.959 . S
C3089 H3096 0.961 . S
C3089 H3097 0.960 . S
C3090 C3088 1.381 . S
C3090 C3091 1.394 . S
C3090 H3098 0.930 . S
C3091 C3090 1.394 . S
C3091 C3092 1.383 . S
C3091 H3099 0.929 . S
C3092 C3091 1.383 . S
C3092 C3093 1.377 . S
C3093 H3077 0.930 . S
C3093 C3092 1.377 . S
C3093 C3094 1.379 . S
C3094 H3078 0.931 . S
C3094 C3088 1.383 . S
C3094 C3093 1.379 . S
H3095 C3089 0.959 . S
H3096 C3089 0.961 . S
H3097 C3089 0.960 . S
H3098 C3090 0.930 . S
H3099 C3091 0.929 . S
H3100 C3108 0.929 . S
H3101 C3110 0.930 . S
H3102 C3112 0.930 . S
H3103 C3115 0.929 . S
H3104 C3118 0.930 . S
H3105 C3120 0.960 . S
H3106 C3120 0.960 . S
H3107 C3120 0.960 . S
C3108 H3100 0.929 . S
C3108 C3109 1.377 . S
C3108 C3110 1.384 . S
C3109 C3108 1.377 . S
C3109 C3115 1.390 . S
C3110 H3101 0.930 . S
C3110 C3108 1.384 . S
C3110 C3111 1.372 . S
C3111 C3110 1.372 . S
C3111 C3112 1.400 . S
C3111 C3116 1.490 . S
C3112 H3102 0.930 . S
C3112 C3111 1.400 . S
C3112 C3115 1.386 . S
H3113 C3129 0.930 . S
H3114 C3130 0.931 . S
C3115 H3103 0.929 . S
C3115 C3109 1.390 . S
C3115 C3112 1.386 . S
C3116 C3111 1.490 . S
C3116 C3118 1.395 . S
C3116 C3119 1.403 . S
H3117 C3123 0.930 . S
C3118 H3104 0.930 . S
C3118 C3116 1.395 . S
C3118 C3121 1.403 . S
C3119 C3116 1.403 . S
C3119 C3120 1.524 . S
C3119 C3123 1.400 . S
C3120 H3105 0.960 . S
C3120 H3106 0.960 . S
C3120 H3107 0.960 . S
C3120 C3119 1.524 . S
C3121 C3118 1.403 . S
C3121 C3122 1.392 . S
C3121 C3125 1.495 . S
C3122 C3121 1.392 . S
C3122 C3123 1.385 . S
C3122 C3124 1.478 . S
C3123 H3117 0.930 . S
C3123 C3119 1.400 . S
C3123 C3122 1.385 . S
C3124 C3122 1.478 . S
C3124 C3126 1.381 . S
C3124 C3130 1.383 . S
C3125 C3121 1.495 . S
C3125 H3131 0.959 . S
C3125 H3132 0.961 . S
C3125 H3133 0.960 . S
C3126 C3124 1.381 . S
C3126 C3127 1.394 . S
C3126 H3134 0.930 . S
C3127 C3126 1.394 . S
C3127 C3128 1.383 . S
C3127 H3135 0.929 . S
C3128 C3127 1.383 . S
C3128 C3129 1.377 . S
C3129 H3113 0.930 . S
C3129 C3128 1.377 . S
C3129 C3130 1.379 . S
C3130 H3114 0.931 . S
C3130 C3124 1.383 . S
C3130 C3129 1.379 . S
H3131 C3125 0.959 . S
H3132 C3125 0.961 . S
H3133 C3125 0.960 . S
H3134 C3126 0.930 . S
H3135 C3127 0.929 . S
H3136 C3144 0.929 . S
H3137 C3146 0.930 . S
H3138 C3148 0.930 . S
H3139 C3151 0.929 . S
H3140 C3154 0.930 . S
H3141 C3156 0.960 . S
H3142 C3156 0.960 . S
H3143 C3156 0.960 . S
C3144 H3136 0.929 . S
C3144 C3145 1.377 . S
C3144 C3146 1.384 . S
C3145 C3144 1.377 . S
C3145 C3151 1.390 . S
C3146 H3137 0.930 . S
C3146 C3144 1.384 . S
C3146 C3147 1.372 . S
C3147 C3146 1.372 . S
C3147 C3148 1.400 . S
C3147 C3152 1.490 . S
C3148 H3138 0.930 . S
C3148 C3147 1.400 . S
C3148 C3151 1.386 . S
H3149 C3165 0.930 . S
H3150 C3166 0.931 . S
C3151 H3139 0.929 . S
C3151 C3145 1.390 . S
C3151 C3148 1.386 . S
C3152 C3147 1.490 . S
C3152 C3154 1.395 . S
C3152 C3155 1.403 . S
H3153 C3159 0.930 . S
C3154 H3140 0.930 . S
C3154 C3152 1.395 . S
C3154 C3157 1.403 . S
C3155 C3152 1.403 . S
C3155 C3156 1.524 . S
C3155 C3159 1.400 . S
C3156 H3141 0.960 . S
C3156 H3142 0.960 . S
C3156 H3143 0.960 . S
C3156 C3155 1.524 . S
C3157 C3154 1.403 . S
C3157 C3158 1.392 . S
C3157 C3161 1.495 . S
C3158 C3157 1.392 . S
C3158 C3159 1.385 . S
C3158 C3160 1.478 . S
C3159 H3153 0.930 . S
C3159 C3155 1.400 . S
C3159 C3158 1.385 . S
C3160 C3158 1.478 . S
C3160 C3162 1.381 . S
C3160 C3166 1.383 . S
C3161 C3157 1.495 . S
C3161 H3167 0.959 . S
C3161 H3168 0.961 . S
C3161 H3169 0.960 . S
C3162 C3160 1.381 . S
C3162 C3163 1.394 . S
C3162 H3170 0.930 . S
C3163 C3162 1.394 . S
C3163 C3164 1.383 . S
C3163 H3171 0.929 . S
C3164 C3163 1.383 . S
C3164 C3165 1.377 . S
C3165 H3149 0.930 . S
C3165 C3164 1.377 . S
C3165 C3166 1.379 . S
C3166 H3150 0.931 . S
C3166 C3160 1.383 . S
C3166 C3165 1.379 . S
H3167 C3161 0.959 . S
H3168 C3161 0.961 . S
H3169 C3161 0.960 . S
H3170 C3162 0.930 . S
H3171 C3163 0.929 . S
H3172 C3180 0.929 . S
H3173 C3182 0.930 . S
H3174 C3184 0.930 . S
H3175 C3187 0.929 . S
H3176 C3190 0.930 . S
H3177 C3192 0.960 . S
H3178 C3192 0.960 . S
H3179 C3192 0.960 . S
C3180 H3172 0.929 . S
C3180 C3181 1.377 . S
C3180 C3182 1.384 . S
C3181 C3180 1.377 . S
C3181 C3187 1.390 . S
C3182 H3173 0.930 . S
C3182 C3180 1.384 . S
C3182 C3183 1.372 . S
C3183 C3182 1.372 . S
C3183 C3184 1.400 . S
C3183 C3188 1.490 . S
C3184 H3174 0.930 . S
C3184 C3183 1.400 . S
C3184 C3187 1.386 . S
H3185 C3201 0.930 . S
H3186 C3202 0.931 . S
C3187 H3175 0.929 . S
C3187 C3181 1.390 . S
C3187 C3184 1.386 . S
C3188 C3183 1.490 . S
C3188 C3190 1.395 . S
C3188 C3191 1.403 . S
H3189 C3195 0.930 . S
C3190 H3176 0.930 . S
C3190 C3188 1.395 . S
C3190 C3193 1.403 . S
C3191 C3188 1.403 . S
C3191 C3192 1.524 . S
C3191 C3195 1.400 . S
C3192 H3177 0.960 . S
C3192 H3178 0.960 . S
C3192 H3179 0.960 . S
C3192 C3191 1.524 . S
C3193 C3190 1.403 . S
C3193 C3194 1.392 . S
C3193 C3197 1.495 . S
C3194 C3193 1.392 . S
C3194 C3195 1.385 . S
C3194 C3196 1.478 . S
C3195 H3189 0.930 . S
C3195 C3191 1.400 . S
C3195 C3194 1.385 . S
C3196 C3194 1.478 . S
C3196 C3198 1.381 . S
C3196 C3202 1.383 . S
C3197 C3193 1.495 . S
C3197 H3203 0.959 . S
C3197 H3204 0.961 . S
C3197 H3205 0.960 . S
C3198 C3196 1.381 . S
C3198 C3199 1.394 . S
C3198 H3206 0.930 . S
C3199 C3198 1.394 . S
C3199 C3200 1.383 . S
C3199 H3207 0.929 . S
C3200 C3199 1.383 . S
C3200 C3201 1.377 . S
C3201 H3185 0.930 . S
C3201 C3200 1.377 . S
C3201 C3202 1.379 . S
C3202 H3186 0.931 . S
C3202 C3196 1.383 . S
C3202 C3201 1.379 . S
H3203 C3197 0.959 . S
H3204 C3197 0.961 . S
H3205 C3197 0.960 . S
H3206 C3198 0.930 . S
H3207 C3199 0.929 . S
H3208 C3216 0.929 . S
H3209 C3218 0.930 . S
H3210 C3220 0.930 . S
H3211 C3223 0.929 . S
H3212 C3226 0.930 . S
H3213 C3228 0.960 . S
H3214 C3228 0.960 . S
H3215 C3228 0.960 . S
C3216 H3208 0.929 . S
C3216 C3217 1.377 . S
C3216 C3218 1.384 . S
C3217 C3216 1.377 . S
C3217 C3223 1.390 . S
C3218 H3209 0.930 . S
C3218 C3216 1.384 . S
C3218 C3219 1.372 . S
C3219 C3218 1.372 . S
C3219 C3220 1.400 . S
C3219 C3224 1.490 . S
C3220 H3210 0.930 . S
C3220 C3219 1.400 . S
C3220 C3223 1.386 . S
H3221 C3237 0.930 . S
H3222 C3238 0.931 . S
C3223 H3211 0.929 . S
C3223 C3217 1.390 . S
C3223 C3220 1.386 . S
C3224 C3219 1.490 . S
C3224 C3226 1.395 . S
C3224 C3227 1.403 . S
H3225 C3231 0.930 . S
C3226 H3212 0.930 . S
C3226 C3224 1.395 . S
C3226 C3229 1.403 . S
C3227 C3224 1.403 . S
C3227 C3228 1.524 . S
C3227 C3231 1.400 . S
C3228 H3213 0.960 . S
C3228 H3214 0.960 . S
C3228 H3215 0.960 . S
C3228 C3227 1.524 . S
C3229 C3226 1.403 . S
C3229 C3230 1.392 . S
C3229 C3233 1.495 . S
C3230 C3229 1.392 . S
C3230 C3231 1.385 . S
C3230 C3232 1.478 . S
C3231 H3225 0.930 . S
C3231 C3227 1.400 . S
C3231 C3230 1.385 . S
C3232 C3230 1.478 . S
C3232 C3234 1.381 . S
C3232 C3238 1.383 . S
C3233 C3229 1.495 . S
C3233 H3239 0.959 . S
C3233 H3240 0.961 . S
C3233 H3241 0.960 . S
C3234 C3232 1.381 . S
C3234 C3235 1.394 . S
C3234 H3242 0.930 . S
C3235 C3234 1.394 . S
C3235 C3236 1.383 . S
C3235 H3243 0.929 . S
C3236 C3235 1.383 . S
C3236 C3237 1.377 . S
C3237 H3221 0.930 . S
C3237 C3236 1.377 . S
C3237 C3238 1.379 . S
C3238 H3222 0.931 . S
C3238 C3232 1.383 . S
C3238 C3237 1.379 . S
H3239 C3233 0.959 . S
H3240 C3233 0.961 . S
H3241 C3233 0.960 . S
H3242 C3234 0.930 . S
H3243 C3235 0.929 . S
H3244 C3252 0.929 . S
H3245 C3254 0.930 . S
H3246 C3256 0.930 . S
H3247 C3259 0.929 . S
H3248 C3262 0.930 . S
H3249 C3264 0.960 . S
H3250 C3264 0.960 . S
H3251 C3264 0.960 . S
C3252 H3244 0.929 . S
C3252 C3253 1.377 . S
C3252 C3254 1.384 . S
C3253 C3252 1.377 . S
C3253 C3259 1.390 . S
C3254 H3245 0.930 . S
C3254 C3252 1.384 . S
C3254 C3255 1.372 . S
C3255 C3254 1.372 . S
C3255 C3256 1.400 . S
C3255 C3260 1.490 . S
C3256 H3246 0.930 . S
C3256 C3255 1.400 . S
C3256 C3259 1.386 . S
H3257 C3273 0.930 . S
H3258 C3274 0.931 . S
C3259 H3247 0.929 . S
C3259 C3253 1.390 . S
C3259 C3256 1.386 . S
C3260 C3255 1.490 . S
C3260 C3262 1.395 . S
C3260 C3263 1.403 . S
H3261 C3267 0.930 . S
C3262 H3248 0.930 . S
C3262 C3260 1.395 . S
C3262 C3265 1.403 . S
C3263 C3260 1.403 . S
C3263 C3264 1.524 . S
C3263 C3267 1.400 . S
C3264 H3249 0.960 . S
C3264 H3250 0.960 . S
C3264 H3251 0.960 . S
C3264 C3263 1.524 . S
C3265 C3262 1.403 . S
C3265 C3266 1.392 . S
C3265 C3269 1.495 . S
C3266 C3265 1.392 . S
C3266 C3267 1.385 . S
C3266 C3268 1.478 . S
C3267 H3261 0.930 . S
C3267 C3263 1.400 . S
C3267 C3266 1.385 . S
C3268 C3266 1.478 . S
C3268 C3270 1.381 . S
C3268 C3274 1.383 . S
C3269 C3265 1.495 . S
C3269 H3275 0.959 . S
C3269 H3276 0.961 . S
C3269 H3277 0.960 . S
C3270 C3268 1.381 . S
C3270 C3271 1.394 . S
C3270 H3278 0.930 . S
C3271 C3270 1.394 . S
C3271 C3272 1.383 . S
C3271 H3279 0.929 . S
C3272 C3271 1.383 . S
C3272 C3273 1.377 . S
C3273 H3257 0.930 . S
C3273 C3272 1.377 . S
C3273 C3274 1.379 . S
C3274 H3258 0.931 . S
C3274 C3268 1.383 . S
C3274 C3273 1.379 . S
H3275 C3269 0.959 . S
H3276 C3269 0.961 . S
H3277 C3269 0.960 . S
H3278 C3270 0.930 . S
H3279 C3271 0.929 . S
H3280 C3288 0.929 . S
H3281 C3290 0.930 . S
H3282 C3292 0.930 . S
H3283 C3295 0.929 . S
H3284 C3298 0.930 . S
H3285 C3300 0.960 . S
H3286 C3300 0.960 . S
H3287 C3300 0.960 . S
C3288 H3280 0.929 . S
C3288 C3289 1.377 . S
C3288 C3290 1.384 . S
C3289 C3288 1.377 . S
C3289 C3295 1.390 . S
C3290 H3281 0.930 . S
C3290 C3288 1.384 . S
C3290 C3291 1.372 . S
C3291 C3290 1.372 . S
C3291 C3292 1.400 . S
C3291 C3296 1.490 . S
C3292 H3282 0.930 . S
C3292 C3291 1.400 . S
C3292 C3295 1.386 . S
H3293 C3309 0.930 . S
H3294 C3310 0.931 . S
C3295 H3283 0.929 . S
C3295 C3289 1.390 . S
C3295 C3292 1.386 . S
C3296 C3291 1.490 . S
C3296 C3298 1.395 . S
C3296 C3299 1.403 . S
H3297 C3303 0.930 . S
C3298 H3284 0.930 . S
C3298 C3296 1.395 . S
C3298 C3301 1.403 . S
C3299 C3296 1.403 . S
C3299 C3300 1.524 . S
C3299 C3303 1.400 . S
C3300 H3285 0.960 . S
C3300 H3286 0.960 . S
C3300 H3287 0.960 . S
C3300 C3299 1.524 . S
C3301 C3298 1.403 . S
C3301 C3302 1.392 . S
C3301 C3305 1.495 . S
C3302 C3301 1.392 . S
C3302 C3303 1.385 . S
C3302 C3304 1.478 . S
C3303 H3297 0.930 . S
C3303 C3299 1.400 . S
C3303 C3302 1.385 . S
C3304 C3302 1.478 . S
C3304 C3306 1.381 . S
C3304 C3310 1.383 . S
C3305 C3301 1.495 . S
C3305 H3311 0.959 . S
C3305 H3312 0.961 . S
C3305 H3313 0.960 . S
C3306 C3304 1.381 . S
C3306 C3307 1.394 . S
C3306 H3314 0.930 . S
C3307 C3306 1.394 . S
C3307 C3308 1.383 . S
C3307 H3315 0.929 . S
C3308 C3307 1.383 . S
C3308 C3309 1.377 . S
C3309 H3293 0.930 . S
C3309 C3308 1.377 . S
C3309 C3310 1.379 . S
C3310 H3294 0.931 . S
C3310 C3304 1.383 . S
C3310 C3309 1.379 . S
H3311 C3305 0.959 . S
H3312 C3305 0.961 . S
H3313 C3305 0.960 . S
H3314 C3306 0.930 . S
H3315 C3307 0.929 . S
H3316 C3324 0.929 . S
H3317 C3326 0.930 . S
H3318 C3328 0.930 . S
H3319 C3331 0.929 . S
H3320 C3334 0.930 . S
H3321 C3336 0.960 . S
H3322 C3336 0.960 . S
H3323 C3336 0.960 . S
C3324 H3316 0.929 . S
C3324 C3325 1.377 . S
C3324 C3326 1.384 . S
C3325 C3324 1.377 . S
C3325 C3331 1.390 . S
C3326 H3317 0.930 . S
C3326 C3324 1.384 . S
C3326 C3327 1.372 . S
C3327 C3326 1.372 . S
C3327 C3328 1.400 . S
C3327 C3332 1.490 . S
C3328 H3318 0.930 . S
C3328 C3327 1.400 . S
C3328 C3331 1.386 . S
H3329 C3345 0.930 . S
H3330 C3346 0.931 . S
C3331 H3319 0.929 . S
C3331 C3325 1.390 . S
C3331 C3328 1.386 . S
C3332 C3327 1.490 . S
C3332 C3334 1.395 . S
C3332 C3335 1.403 . S
H3333 C3339 0.930 . S
C3334 H3320 0.930 . S
C3334 C3332 1.395 . S
C3334 C3337 1.403 . S
C3335 C3332 1.403 . S
C3335 C3336 1.524 . S
C3335 C3339 1.400 . S
C3336 H3321 0.960 . S
C3336 H3322 0.960 . S
C3336 H3323 0.960 . S
C3336 C3335 1.524 . S
C3337 C3334 1.403 . S
C3337 C3338 1.392 . S
C3337 C3341 1.495 . S
C3338 C3337 1.392 . S
C3338 C3339 1.385 . S
C3338 C3340 1.478 . S
C3339 H3333 0.930 . S
C3339 C3335 1.400 . S
C3339 C3338 1.385 . S
C3340 C3338 1.478 . S
C3340 C3342 1.381 . S
C3340 C3346 1.383 . S
C3341 C3337 1.495 . S
C3341 H3347 0.959 . S
C3341 H3348 0.961 . S
C3341 H3349 0.960 . S
C3342 C3340 1.381 . S
C3342 C3343 1.394 . S
C3342 H3350 0.930 . S
C3343 C3342 1.394 . S
C3343 C3344 1.383 . S
C3343 H3351 0.929 . S
C3344 C3343 1.383 . S
C3344 C3345 1.377 . S
C3345 H3329 0.930 . S
C3345 C3344 1.377 . S
C3345 C3346 1.379 . S
C3346 H3330 0.931 . S
C3346 C3340 1.383 . S
C3346 C3345 1.379 . S
H3347 C3341 0.959 . S
H3348 C3341 0.961 . S
H3349 C3341 0.960 . S
H3350 C3342 0.930 . S
H3351 C3343 0.929 . S
H3352 C3360 0.929 . S
H3353 C3362 0.930 . S
H3354 C3364 0.930 . S
H3355 C3367 0.929 . S
H3356 C3370 0.930 . S
H3357 C3372 0.960 . S
H3358 C3372 0.960 . S
H3359 C3372 0.960 . S
C3360 H3352 0.929 . S
C3360 C3361 1.377 1_565 S
C3360 C3362 1.384 . S
C3361 C3360 1.377 1_545 S
C3361 C3367 1.390 . S
C3362 H3353 0.930 . S
C3362 C3360 1.384 . S
C3362 C3363 1.372 . S
C3363 C3362 1.372 . S
C3363 C3364 1.400 . S
C3363 C3368 1.490 . S
C3364 H3354 0.930 . S
C3364 C3363 1.400 . S
C3364 C3367 1.386 1_565 S
H3365 C3381 0.930 . S
H3366 C3382 0.931 . S
C3367 H3355 0.929 . S
C3367 C3361 1.390 . S
C3367 C3364 1.386 1_545 S
C3368 C3363 1.490 . S
C3368 C3370 1.395 . S
C3368 C3371 1.403 . S
H3369 C3375 0.930 . S
C3370 H3356 0.930 . S
C3370 C3368 1.395 . S
C3370 C3373 1.403 . S
C3371 C3368 1.403 . S
C3371 C3372 1.524 . S
C3371 C3375 1.400 . S
C3372 H3357 0.960 . S
C3372 H3358 0.960 . S
C3372 H3359 0.960 . S
C3372 C3371 1.524 . S
C3373 C3370 1.403 . S
C3373 C3374 1.392 . S
C3373 C3377 1.495 . S
C3374 C3373 1.392 . S
C3374 C3375 1.385 . S
C3374 C3376 1.478 . S
C3375 H3369 0.930 . S
C3375 C3371 1.400 . S
C3375 C3374 1.385 . S
C3376 C3374 1.478 . S
C3376 C3378 1.381 . S
C3376 C3382 1.383 . S
C3377 C3373 1.495 . S
C3377 H3383 0.959 . S
C3377 H3384 0.961 . S
C3377 H3385 0.960 . S
C3378 C3376 1.381 . S
C3378 C3379 1.394 . S
C3378 H3386 0.930 . S
C3379 C3378 1.394 . S
C3379 C3380 1.383 . S
C3379 H3387 0.929 . S
C3380 C3379 1.383 . S
C3380 C3381 1.377 . S
C3381 H3365 0.930 . S
C3381 C3380 1.377 . S
C3381 C3382 1.379 . S
C3382 H3366 0.931 . S
C3382 C3376 1.383 . S
C3382 C3381 1.379 . S
H3383 C3377 0.959 . S
H3384 C3377 0.961 . S
H3385 C3377 0.960 . S
H3386 C3378 0.930 . S
H3387 C3379 0.929 . S
H3388 C3396 0.929 . S
H3389 C3398 0.930 . S
H3390 C3400 0.930 . S
H3391 C3403 0.929 . S
H3392 C3406 0.930 . S
H3393 C3408 0.947 1_556 S
H3394 C3408 0.960 . S
H3395 C3408 0.960 . S
C3396 H3388 0.929 . S
C3396 C3397 1.377 . S
C3396 C3398 1.384 . S
C3397 C3396 1.377 . S
C3397 C3403 1.390 . S
C3398 H3389 0.930 . S
C3398 C3396 1.384 . S
C3398 C3399 1.372 . S
C3399 C3398 1.372 . S
C3399 C3400 1.400 . S
C3399 C3404 1.490 . S
C3400 H3390 0.930 . S
C3400 C3399 1.400 . S
C3400 C3403 1.386 . S
H3401 C3417 0.930 . S
H3402 C3418 0.931 . S
C3403 H3391 0.929 . S
C3403 C3397 1.390 . S
C3403 C3400 1.386 . S
C3404 C3399 1.490 . S
C3404 C3406 1.395 . S
C3404 C3407 1.403 . S
H3405 C3411 0.930 . S
C3406 H3392 0.930 . S
C3406 C3404 1.395 . S
C3406 C3409 1.403 . S
C3407 C3404 1.403 . S
C3407 C3408 1.524 . S
C3407 C3411 1.400 . S
C3408 H3393 0.947 1_554 S
C3408 H3394 0.960 . S
C3408 H3395 0.960 . S
C3408 C3407 1.524 . S
C3409 C3406 1.403 . S
C3409 C3410 1.392 . S
C3409 C3413 1.495 . S
C3410 C3409 1.392 . S
C3410 C3411 1.385 . S
C3410 C3412 1.478 . S
C3411 H3405 0.930 . S
C3411 C3407 1.400 . S
C3411 C3410 1.385 . S
C3412 C3410 1.478 . S
C3412 C3414 1.411 . S
C3412 C3418 1.383 . S
C3413 C3409 1.495 . S
C3413 H3419 0.959 . S
C3413 H3420 0.961 . S
C3413 H3421 0.960 . S
C3414 C3412 1.411 . S
C3414 C3415 1.376 1_565 S
C3414 H3422 0.920 1_565 S
C3415 C3414 1.376 1_545 S
C3415 C3416 1.383 . S
C3415 H3423 0.929 . S
C3416 C3415 1.383 . S
C3416 C3417 1.377 1_545 S
C3417 H3401 0.930 . S
C3417 C3416 1.377 1_565 S
C3417 C3418 1.379 . S
C3418 H3402 0.931 . S
C3418 C3412 1.383 . S
C3418 C3417 1.379 . S
H3419 C3413 0.959 . S
H3420 C3413 0.961 . S
H3421 C3413 0.960 . S
H3422 C3414 0.920 1_545 S
H3423 C3415 0.929 . S
H3424 C3432 0.929 . S
H3425 C3434 0.930 . S
H3426 C3436 0.930 . S
H3427 C3439 0.929 . S
H3428 C3442 0.930 . S
H3429 C3444 0.960 . S
H3430 C3444 0.960 . S
H3431 C3444 0.960 . S
C3432 H3424 0.929 . S
C3432 C3433 1.377 . S
C3432 C3434 1.384 . S
C3433 C3432 1.377 . S
C3433 C3439 1.390 . S
C3434 H3425 0.930 . S
C3434 C3432 1.384 . S
C3434 C3435 1.372 . S
C3435 C3434 1.372 . S
C3435 C3436 1.400 . S
C3435 C3440 1.490 . S
C3436 H3426 0.930 . S
C3436 C3435 1.400 . S
C3436 C3439 1.386 . S
H3437 C3453 0.930 . S
H3438 C3454 0.931 . S
C3439 H3427 0.929 . S
C3439 C3433 1.390 . S
C3439 C3436 1.386 . S
C3440 C3435 1.490 . S
C3440 C3442 1.395 . S
C3440 C3443 1.403 . S
H3441 C3447 0.930 . S
C3442 H3428 0.930 . S
C3442 C3440 1.395 . S
C3442 C3445 1.403 . S
C3443 C3440 1.403 . S
C3443 C3444 1.524 . S
C3443 C3447 1.400 . S
C3444 H3429 0.960 . S
C3444 H3430 0.960 . S
C3444 H3431 0.960 . S
C3444 C3443 1.524 . S
C3445 C3442 1.403 . S
C3445 C3446 1.392 . S
C3445 C3449 1.495 . S
C3446 C3445 1.392 . S
C3446 C3447 1.385 . S
C3446 C3448 1.478 . S
C3447 H3441 0.930 . S
C3447 C3443 1.400 . S
C3447 C3446 1.385 . S
C3448 C3446 1.478 . S
C3448 C3450 1.381 . S
C3448 C3454 1.383 . S
C3449 C3445 1.495 . S
C3449 H3455 0.959 . S
C3449 H3456 0.961 . S
C3449 H3457 0.960 . S
C3450 C3448 1.381 . S
C3450 C3451 1.394 . S
C3450 H3458 0.930 . S
C3451 C3450 1.394 . S
C3451 C3452 1.383 . S
C3451 H3459 0.929 . S
C3452 C3451 1.383 . S
C3452 C3453 1.377 . S
C3453 H3437 0.930 . S
C3453 C3452 1.377 . S
C3453 C3454 1.379 . S
C3454 H3438 0.931 . S
C3454 C3448 1.383 . S
C3454 C3453 1.379 . S
H3455 C3449 0.959 . S
H3456 C3449 0.961 . S
H3457 C3449 0.960 . S
H3458 C3450 0.930 . S
H3459 C3451 0.929 . S
H3460 C3468 0.929 1_556 S
H3461 C3470 0.930 1_556 S
H3462 C3472 0.930 . S
H3463 C3475 0.929 . S
H3464 C3478 0.930 . S
H3465 C3480 0.960 . S
H3466 C3480 0.960 . S
H3467 C3480 0.960 . S
C3468 H3460 0.929 1_554 S
C3468 C3469 1.377 . S
C3468 C3470 1.384 . S
C3469 C3468 1.377 . S
C3469 C3475 1.390 . S
C3470 H3461 0.930 1_554 S
C3470 C3468 1.384 . S
C3470 C3471 1.372 . S
C3471 C3470 1.372 . S
C3471 C3472 1.400 . S
C3471 C3476 1.490 . S
C3472 H3462 0.930 . S
C3472 C3471 1.400 . S
C3472 C3475 1.386 . S
H3473 C3489 0.930 . S
H3474 C3490 0.931 . S
C3475 H3463 0.929 . S
C3475 C3469 1.390 . S
C3475 C3472 1.386 . S
C3476 C3471 1.490 . S
C3476 C3478 1.395 . S
C3476 C3479 1.403 . S
H3477 C3483 0.930 . S
C3478 H3464 0.930 . S
C3478 C3476 1.395 . S
C3478 C3481 1.403 . S
C3479 C3476 1.403 . S
C3479 C3480 1.524 . S
C3479 C3483 1.400 . S
C3480 H3465 0.960 . S
C3480 H3466 0.960 . S
C3480 H3467 0.960 . S
C3480 C3479 1.524 . S
C3481 C3478 1.403 . S
C3481 C3482 1.392 . S
C3481 C3485 1.495 1_554 S
C3482 C3481 1.392 . S
C3482 C3483 1.385 . S
C3482 C3484 1.478 . S
C3483 H3477 0.930 . S
C3483 C3479 1.400 . S
C3483 C3482 1.385 . S
C3484 C3482 1.478 . S
C3484 C3486 1.381 . S
C3484 C3490 1.383 . S
C3485 C3481 1.495 1_556 S
C3485 H3491 0.959 . S
C3485 H3492 0.961 1_556 S
C3485 H3493 0.960 . S
C3486 C3484 1.381 . S
C3486 C3487 1.394 . S
C3486 H3494 0.930 1_554 S
C3487 C3486 1.394 . S
C3487 C3488 1.383 . S
C3487 H3495 0.924 1_554 S
C3488 C3487 1.383 . S
C3488 C3489 1.377 . S
C3489 H3473 0.930 . S
C3489 C3488 1.377 . S
C3489 C3490 1.379 . S
C3490 H3474 0.931 . S
C3490 C3484 1.383 . S
C3490 C3489 1.379 . S
H3491 C3485 0.959 . S
H3492 C3485 0.961 1_554 S
H3493 C3485 0.960 . S
H3494 C3486 0.930 1_556 S
H3495 C3487 0.924 1_556 S
H3496 C3504 0.929 . S
H3497 C3506 0.930 . S
H3498 C3508 0.930 . S
H3499 C3511 0.929 . S
H3500 C3514 0.930 . S
H3501 C3516 0.960 . S
H3502 C3516 0.960 . S
H3503 C3516 0.960 . S
C3504 H3496 0.929 . S
C3504 C3505 1.377 . S
C3504 C3506 1.384 . S
C3505 C3504 1.377 . S
C3505 C3511 1.390 . S
C3506 H3497 0.930 . S
C3506 C3504 1.384 . S
C3506 C3507 1.372 . S
C3507 C3506 1.372 . S
C3507 C3508 1.400 . S
C3507 C3512 1.490 . S
C3508 H3498 0.930 . S
C3508 C3507 1.400 . S
C3508 C3511 1.386 . S
H3509 C3525 0.930 . S
H3510 C3526 0.931 . S
C3511 H3499 0.929 . S
C3511 C3505 1.390 . S
C3511 C3508 1.386 . S
C3512 C3507 1.490 . S
C3512 C3514 1.395 . S
C3512 C3515 1.403 . S
H3513 C3519 0.930 . S
C3514 H3500 0.930 . S
C3514 C3512 1.395 . S
C3514 C3517 1.403 . S
C3515 C3512 1.403 . S
C3515 C3516 1.524 . S
C3515 C3519 1.400 . S
C3516 H3501 0.960 . S
C3516 H3502 0.960 . S
C3516 H3503 0.960 . S
C3516 C3515 1.524 . S
C3517 C3514 1.403 . S
C3517 C3518 1.392 . S
C3517 C3521 1.495 . S
C3518 C3517 1.392 . S
C3518 C3519 1.385 . S
C3518 C3520 1.478 . S
C3519 H3513 0.930 . S
C3519 C3515 1.400 . S
C3519 C3518 1.385 . S
C3520 C3518 1.478 . S
C3520 C3522 1.381 . S
C3520 C3526 1.383 . S
C3521 C3517 1.495 . S
C3521 H3527 0.959 . S
C3521 H3528 0.961 . S
C3521 H3529 0.960 . S
C3522 C3520 1.381 . S
C3522 C3523 1.394 . S
C3522 H3530 0.930 . S
C3523 C3522 1.394 . S
C3523 C3524 1.383 . S
C3523 H3531 0.929 . S
C3524 C3523 1.383 . S
C3524 C3525 1.377 . S
C3525 H3509 0.930 . S
C3525 C3524 1.377 . S
C3525 C3526 1.379 . S
C3526 H3510 0.931 . S
C3526 C3520 1.383 . S
C3526 C3525 1.379 . S
H3527 C3521 0.959 . S
H3528 C3521 0.961 . S
H3529 C3521 0.960 . S
H3530 C3522 0.930 . S
H3531 C3523 0.929 . S
H3532 C3540 0.929 . S
H3533 C3542 0.930 . S
H3534 C3544 0.930 . S
H3535 C3547 0.929 . S
H3536 C3550 0.930 . S
H3537 C3552 0.960 . S
H3538 C3552 0.960 . S
H3539 C3552 0.960 . S
C3540 H3532 0.929 . S
C3540 C3541 1.377 . S
C3540 C3542 1.384 1_545 S
C3541 C3540 1.377 . S
C3541 C3547 1.390 . S
C3542 H3533 0.930 . S
C3542 C3540 1.384 1_565 S
C3542 C3543 1.372 . S
C3543 C3542 1.372 . S
C3543 C3544 1.400 1_565 S
C3543 C3548 1.490 . S
C3544 H3534 0.930 . S
C3544 C3543 1.400 1_545 S
C3544 C3547 1.386 . S
H3545 C3561 0.930 . S
H3546 C3562 0.931 . S
C3547 H3535 0.929 . S
C3547 C3541 1.390 . S
C3547 C3544 1.386 . S
C3548 C3543 1.490 . S
C3548 C3550 1.395 . S
C3548 C3551 1.403 . S
H3549 C3555 0.930 . S
C3550 H3536 0.930 . S
C3550 C3548 1.395 . S
C3550 C3553 1.403 . S
C3551 C3548 1.403 . S
C3551 C3552 1.524 . S
C3551 C3555 1.400 . S
C3552 H3537 0.960 . S
C3552 H3538 0.960 . S
C3552 H3539 0.960 . S
C3552 C3551 1.524 . S
C3553 C3550 1.403 . S
C3553 C3554 1.392 . S
C3553 C3557 1.495 . S
C3554 C3553 1.392 . S
C3554 C3555 1.385 . S
C3554 C3556 1.478 . S
C3555 H3549 0.930 . S
C3555 C3551 1.400 . S
C3555 C3554 1.385 . S
C3556 C3554 1.478 . S
C3556 C3558 1.381 . S
C3556 C3562 1.383 . S
C3557 C3553 1.495 . S
C3557 H3563 0.959 . S
C3557 H3564 0.961 . S
C3557 H3565 0.960 . S
C3558 C3556 1.381 . S
C3558 C3559 1.394 . S
C3558 H3566 0.930 . S
C3559 C3558 1.394 . S
C3559 C3560 1.383 . S
C3559 H3567 0.929 . S
C3560 C3559 1.383 . S
C3560 C3561 1.377 . S
C3561 H3545 0.930 . S
C3561 C3560 1.377 . S
C3561 C3562 1.379 . S
C3562 H3546 0.931 . S
C3562 C3556 1.383 . S
C3562 C3561 1.379 . S
H3563 C3557 0.959 . S
H3564 C3557 0.961 . S
H3565 C3557 0.960 . S
H3566 C3558 0.930 . S
H3567 C3559 0.929 . S
H3568 C3576 0.929 . S
H3569 C3578 0.930 . S
H3570 C3580 0.930 . S
H3571 C3583 0.929 . S
H3572 C3586 0.930 . S
H3573 C3588 0.960 . S
H3574 C3588 0.960 . S
H3575 C3588 0.960 . S
C3576 H3568 0.929 . S
C3576 C3577 1.377 . S
C3576 C3578 1.384 . S
C3577 C3576 1.377 . S
C3577 C3583 1.390 . S
C3578 H3569 0.930 . S
C3578 C3576 1.384 . S
C3578 C3579 1.372 . S
C3579 C3578 1.372 . S
C3579 C3580 1.400 . S
C3579 C3584 1.490 . S
C3580 H3570 0.930 . S
C3580 C3579 1.400 . S
C3580 C3583 1.386 . S
H3581 C3597 0.930 . S
H3582 C3598 0.931 . S
C3583 H3571 0.929 . S
C3583 C3577 1.390 . S
C3583 C3580 1.386 . S
C3584 C3579 1.490 . S
C3584 C3586 1.395 . S
C3584 C3587 1.403 . S
H3585 C3591 0.930 . S
C3586 H3572 0.930 . S
C3586 C3584 1.395 . S
C3586 C3589 1.403 . S
C3587 C3584 1.403 . S
C3587 C3588 1.524 . S
C3587 C3591 1.400 . S
C3588 H3573 0.960 . S
C3588 H3574 0.960 . S
C3588 H3575 0.960 . S
C3588 C3587 1.524 . S
C3589 C3586 1.403 . S
C3589 C3590 1.392 . S
C3589 C3593 1.495 . S
C3590 C3589 1.392 . S
C3590 C3591 1.385 . S
C3590 C3592 1.478 . S
C3591 H3585 0.930 . S
C3591 C3587 1.400 . S
C3591 C3590 1.385 . S
C3592 C3590 1.478 . S
C3592 C3594 1.381 . S
C3592 C3598 1.383 . S
C3593 C3589 1.495 . S
C3593 H3599 0.959 . S
C3593 H3600 0.961 . S
C3593 H3601 0.960 . S
C3594 C3592 1.381 . S
C3594 C3595 1.394 . S
C3594 H3602 0.930 . S
C3595 C3594 1.394 . S
C3595 C3596 1.383 . S
C3595 H3603 0.929 . S
C3596 C3595 1.383 . S
C3596 C3597 1.377 . S
C3597 H3581 0.930 . S
C3597 C3596 1.377 . S
C3597 C3598 1.379 . S
C3598 H3582 0.931 . S
C3598 C3592 1.383 . S
C3598 C3597 1.379 . S
H3599 C3593 0.959 . S
H3600 C3593 0.961 . S
H3601 C3593 0.960 . S
H3602 C3594 0.930 . S
H3603 C3595 0.929 . S
H3604 C3612 0.929 . S
H3605 C3614 0.930 . S
H3606 C3616 0.930 . S
H3607 C3619 0.929 . S
H3608 C3622 0.930 . S
H3609 C3624 0.960 . S
H3610 C3624 0.960 . S
H3611 C3624 0.960 . S
C3612 H3604 0.929 . S
C3612 C3613 1.377 . S
C3612 C3614 1.384 . S
C3613 C3612 1.377 . S
C3613 C3619 1.390 . S
C3614 H3605 0.930 . S
C3614 C3612 1.384 . S
C3614 C3615 1.372 . S
C3615 C3614 1.372 . S
C3615 C3616 1.400 . S
C3615 C3620 1.490 . S
C3616 H3606 0.930 . S
C3616 C3615 1.400 . S
C3616 C3619 1.386 . S
H3617 C3633 0.930 . S
H3618 C3634 0.931 . S
C3619 H3607 0.929 . S
C3619 C3613 1.390 . S
C3619 C3616 1.386 . S
C3620 C3615 1.490 . S
C3620 C3622 1.395 . S
C3620 C3623 1.403 . S
H3621 C3627 0.930 . S
C3622 H3608 0.930 . S
C3622 C3620 1.395 . S
C3622 C3625 1.403 . S
C3623 C3620 1.403 . S
C3623 C3624 1.524 . S
C3623 C3627 1.400 . S
C3624 H3609 0.960 . S
C3624 H3610 0.960 . S
C3624 H3611 0.960 . S
C3624 C3623 1.524 . S
C3625 C3622 1.403 . S
C3625 C3626 1.392 . S
C3625 C3629 1.495 . S
C3626 C3625 1.392 . S
C3626 C3627 1.385 . S
C3626 C3628 1.478 . S
C3627 H3621 0.930 . S
C3627 C3623 1.400 . S
C3627 C3626 1.385 . S
C3628 C3626 1.478 . S
C3628 C3630 1.381 . S
C3628 C3634 1.383 . S
C3629 C3625 1.495 . S
C3629 H3635 0.959 . S
C3629 H3636 0.961 . S
C3629 H3637 0.960 . S
C3630 C3628 1.381 . S
C3630 C3631 1.394 . S
C3630 H3638 0.930 . S
C3631 C3630 1.394 . S
C3631 C3632 1.383 . S
C3631 H3639 0.929 . S
C3632 C3631 1.383 . S
C3632 C3633 1.377 . S
C3633 H3617 0.930 . S
C3633 C3632 1.377 . S
C3633 C3634 1.379 . S
C3634 H3618 0.931 . S
C3634 C3628 1.383 . S
C3634 C3633 1.379 . S
H3635 C3629 0.959 . S
H3636 C3629 0.961 . S
H3637 C3629 0.960 . S
H3638 C3630 0.930 . S
H3639 C3631 0.929 . S
H3640 C3648 0.929 . S
H3641 C3650 0.930 . S
H3642 C3652 0.930 . S
H3643 C3655 0.929 . S
H3644 C3658 0.930 . S
H3645 C3660 0.960 . S
H3646 C3660 0.960 . S
H3647 C3660 0.960 . S
C3648 H3640 0.929 . S
C3648 C3649 1.377 . S
C3648 C3650 1.384 . S
C3649 C3648 1.377 . S
C3649 C3655 1.390 . S
C3650 H3641 0.930 . S
C3650 C3648 1.384 . S
C3650 C3651 1.372 . S
C3651 C3650 1.372 . S
C3651 C3652 1.400 . S
C3651 C3656 1.490 . S
C3652 H3642 0.930 . S
C3652 C3651 1.400 . S
C3652 C3655 1.386 . S
H3653 C3669 0.930 . S
H3654 C3670 0.931 . S
C3655 H3643 0.929 . S
C3655 C3649 1.390 . S
C3655 C3652 1.386 . S
C3656 C3651 1.490 . S
C3656 C3658 1.395 . S
C3656 C3659 1.403 . S
H3657 C3663 0.930 . S
C3658 H3644 0.930 . S
C3658 C3656 1.395 . S
C3658 C3661 1.403 . S
C3659 C3656 1.403 . S
C3659 C3660 1.524 . S
C3659 C3663 1.400 . S
C3660 H3645 0.960 . S
C3660 H3646 0.960 . S
C3660 H3647 0.960 . S
C3660 C3659 1.524 . S
C3661 C3658 1.403 . S
C3661 C3662 1.392 . S
C3661 C3665 1.495 . S
C3662 C3661 1.392 . S
C3662 C3663 1.385 . S
C3662 C3664 1.478 . S
C3663 H3657 0.930 . S
C3663 C3659 1.400 . S
C3663 C3662 1.385 . S
C3664 C3662 1.478 . S
C3664 C3666 1.381 . S
C3664 C3670 1.383 . S
C3665 C3661 1.495 . S
C3665 H3671 0.959 . S
C3665 H3672 0.961 . S
C3665 H3673 0.960 . S
C3666 C3664 1.381 . S
C3666 C3667 1.394 . S
C3666 H3674 0.930 . S
C3667 C3666 1.394 . S
C3667 C3668 1.383 . S
C3667 H3675 0.929 . S
C3668 C3667 1.383 . S
C3668 C3669 1.377 . S
C3669 H3653 0.930 . S
C3669 C3668 1.377 . S
C3669 C3670 1.379 . S
C3670 H3654 0.931 . S
C3670 C3664 1.383 . S
C3670 C3669 1.379 . S
H3671 C3665 0.959 . S
H3672 C3665 0.961 . S
H3673 C3665 0.960 . S
H3674 C3666 0.930 . S
H3675 C3667 0.929 . S
H3676 C3684 0.929 . S
H3677 C3686 0.930 . S
H3678 C3688 0.930 . S
H3679 C3691 0.929 . S
H3680 C3694 0.930 . S
H3681 C3696 0.960 . S
H3682 C3696 0.960 . S
H3683 C3696 0.960 . S
C3684 H3676 0.929 . S
C3684 C3685 1.377 . S
C3684 C3686 1.384 . S
C3685 C3684 1.377 . S
C3685 C3691 1.390 . S
C3686 H3677 0.930 . S
C3686 C3684 1.384 . S
C3686 C3687 1.372 . S
C3687 C3686 1.372 . S
C3687 C3688 1.400 . S
C3687 C3692 1.490 . S
C3688 H3678 0.930 . S
C3688 C3687 1.400 . S
C3688 C3691 1.386 . S
H3689 C3705 0.930 . S
H3690 C3706 0.931 . S
C3691 H3679 0.929 . S
C3691 C3685 1.390 . S
C3691 C3688 1.386 . S
C3692 C3687 1.490 . S
C3692 C3694 1.395 . S
C3692 C3695 1.403 . S
H3693 C3699 0.930 . S
C3694 H3680 0.930 . S
C3694 C3692 1.395 . S
C3694 C3697 1.403 . S
C3695 C3692 1.403 . S
C3695 C3696 1.524 . S
C3695 C3699 1.400 . S
C3696 H3681 0.960 . S
C3696 H3682 0.960 . S
C3696 H3683 0.960 . S
C3696 C3695 1.524 . S
C3697 C3694 1.403 . S
C3697 C3698 1.392 . S
C3697 C3701 1.495 . S
C3698 C3697 1.392 . S
C3698 C3699 1.385 . S
C3698 C3700 1.478 . S
C3699 H3693 0.930 . S
C3699 C3695 1.400 . S
C3699 C3698 1.385 . S
C3700 C3698 1.478 . S
C3700 C3702 1.381 . S
C3700 C3706 1.383 . S
C3701 C3697 1.495 . S
C3701 H3707 0.959 . S
C3701 H3708 0.961 . S
C3701 H3709 0.960 . S
C3702 C3700 1.381 . S
C3702 C3703 1.394 . S
C3702 H3710 0.930 . S
C3703 C3702 1.394 . S
C3703 C3704 1.383 . S
C3703 H3711 0.929 . S
C3704 C3703 1.383 . S
C3704 C3705 1.377 . S
C3705 H3689 0.930 . S
C3705 C3704 1.377 . S
C3705 C3706 1.379 . S
C3706 H3690 0.931 . S
C3706 C3700 1.383 . S
C3706 C3705 1.379 . S
H3707 C3701 0.959 . S
H3708 C3701 0.961 . S
H3709 C3701 0.960 . S
H3710 C3702 0.930 . S
H3711 C3703 0.929 . S
H3712 C3720 0.929 . S
H3713 C3722 0.930 . S
H3714 C3724 0.930 . S
H3715 C3727 0.929 . S
H3716 C3730 0.930 . S
H3717 C3732 0.960 . S
H3718 C3732 0.960 . S
H3719 C3732 0.960 . S
C3720 H3712 0.929 . S
C3720 C3721 1.377 . S
C3720 C3722 1.384 . S
C3721 C3720 1.377 . S
C3721 C3727 1.390 . S
C3722 H3713 0.930 . S
C3722 C3720 1.384 . S
C3722 C3723 1.372 . S
C3723 C3722 1.372 . S
C3723 C3724 1.400 . S
C3723 C3728 1.490 . S
C3724 H3714 0.930 . S
C3724 C3723 1.400 . S
C3724 C3727 1.386 . S
H3725 C3741 0.930 . S
H3726 C3742 0.931 . S
C3727 H3715 0.929 . S
C3727 C3721 1.390 . S
C3727 C3724 1.386 . S
C3728 C3723 1.490 . S
C3728 C3730 1.395 . S
C3728 C3731 1.403 . S
H3729 C3735 0.930 . S
C3730 H3716 0.930 . S
C3730 C3728 1.395 . S
C3730 C3733 1.403 . S
C3731 C3728 1.403 . S
C3731 C3732 1.524 . S
C3731 C3735 1.400 . S
C3732 H3717 0.960 . S
C3732 H3718 0.960 . S
C3732 H3719 0.960 . S
C3732 C3731 1.524 . S
C3733 C3730 1.403 . S
C3733 C3734 1.392 . S
C3733 C3737 1.495 . S
C3734 C3733 1.392 . S
C3734 C3735 1.385 . S
C3734 C3736 1.478 . S
C3735 H3729 0.930 . S
C3735 C3731 1.400 . S
C3735 C3734 1.385 . S
C3736 C3734 1.478 . S
C3736 C3738 1.381 . S
C3736 C3742 1.383 . S
C3737 C3733 1.495 . S
C3737 H3743 0.959 . S
C3737 H3744 0.961 . S
C3737 H3745 0.960 . S
C3738 C3736 1.381 . S
C3738 C3739 1.394 . S
C3738 H3746 0.930 . S
C3739 C3738 1.394 . S
C3739 C3740 1.383 . S
C3739 H3747 0.929 . S
C3740 C3739 1.383 . S
C3740 C3741 1.377 . S
C3741 H3725 0.930 . S
C3741 C3740 1.377 . S
C3741 C3742 1.379 . S
C3742 H3726 0.931 . S
C3742 C3736 1.383 . S
C3742 C3741 1.379 . S
H3743 C3737 0.959 . S
H3744 C3737 0.961 . S
H3745 C3737 0.960 . S
H3746 C3738 0.930 . S
H3747 C3739 0.929 . S
H3748 C3756 0.929 . S
H3749 C3758 0.930 . S
H3750 C3760 0.930 . S
H3751 C3763 0.929 . S
H3752 C3766 0.930 . S
H3753 C3768 0.960 . S
H3754 C3768 0.960 . S
H3755 C3768 0.960 . S
C3756 H3748 0.929 . S
C3756 C3757 1.377 . S
C3756 C3758 1.384 . S
C3757 C3756 1.377 . S
C3757 C3763 1.390 . S
C3758 H3749 0.930 . S
C3758 C3756 1.384 . S
C3758 C3759 1.372 . S
C3759 C3758 1.372 . S
C3759 C3760 1.400 . S
C3759 C3764 1.490 . S
C3760 H3750 0.930 . S
C3760 C3759 1.400 . S
C3760 C3763 1.386 . S
H3761 C3777 0.930 . S
H3762 C3778 0.931 . S
C3763 H3751 0.929 . S
C3763 C3757 1.390 . S
C3763 C3760 1.386 . S
C3764 C3759 1.490 . S
C3764 C3766 1.395 . S
C3764 C3767 1.403 . S
H3765 C3771 0.930 . S
C3766 H3752 0.930 . S
C3766 C3764 1.395 . S
C3766 C3769 1.403 . S
C3767 C3764 1.403 . S
C3767 C3768 1.524 . S
C3767 C3771 1.400 . S
C3768 H3753 0.960 . S
C3768 H3754 0.960 . S
C3768 H3755 0.960 . S
C3768 C3767 1.524 . S
C3769 C3766 1.403 . S
C3769 C3770 1.392 . S
C3769 C3773 1.495 . S
C3770 C3769 1.392 . S
C3770 C3771 1.385 . S
C3770 C3772 1.478 . S
C3771 H3765 0.930 . S
C3771 C3767 1.400 . S
C3771 C3770 1.385 . S
C3772 C3770 1.478 . S
C3772 C3774 1.381 . S
C3772 C3778 1.383 . S
C3773 C3769 1.495 . S
C3773 H3779 0.959 . S
C3773 H3780 0.961 . S
C3773 H3781 0.960 . S
C3774 C3772 1.381 . S
C3774 C3775 1.394 . S
C3774 H3782 0.930 . S
C3775 C3774 1.394 . S
C3775 C3776 1.383 . S
C3775 H3783 0.929 . S
C3776 C3775 1.383 . S
C3776 C3777 1.377 . S
C3777 H3761 0.930 . S
C3777 C3776 1.377 . S
C3777 C3778 1.379 . S
C3778 H3762 0.931 . S
C3778 C3772 1.383 . S
C3778 C3777 1.379 . S
H3779 C3773 0.959 . S
H3780 C3773 0.961 . S
H3781 C3773 0.960 . S
H3782 C3774 0.930 . S
H3783 C3775 0.929 . S
H3784 C3792 0.929 . S
H3785 C3794 0.930 . S
H3786 C3796 0.930 . S
H3787 C3799 0.929 . S
H3788 C3802 0.930 . S
H3789 C3804 0.960 . S
H3790 C3804 0.960 . S
H3791 C3804 0.960 . S
C3792 H3784 0.929 . S
C3792 C3793 1.377 . S
C3792 C3794 1.384 . S
C3793 C3792 1.377 . S
C3793 C3799 1.390 . S
C3794 H3785 0.930 . S
C3794 C3792 1.384 . S
C3794 C3795 1.372 . S
C3795 C3794 1.372 . S
C3795 C3796 1.400 . S
C3795 C3800 1.490 . S
C3796 H3786 0.930 . S
C3796 C3795 1.400 . S
C3796 C3799 1.386 . S
H3797 C3813 0.930 . S
H3798 C3814 0.931 . S
C3799 H3787 0.929 . S
C3799 C3793 1.390 . S
C3799 C3796 1.386 . S
C3800 C3795 1.490 . S
C3800 C3802 1.395 . S
C3800 C3803 1.403 . S
H3801 C3807 0.930 . S
C3802 H3788 0.930 . S
C3802 C3800 1.395 . S
C3802 C3805 1.403 . S
C3803 C3800 1.403 . S
C3803 C3804 1.524 . S
C3803 C3807 1.400 . S
C3804 H3789 0.960 . S
C3804 H3790 0.960 . S
C3804 H3791 0.960 . S
C3804 C3803 1.524 . S
C3805 C3802 1.403 . S
C3805 C3806 1.392 . S
C3805 C3809 1.495 . S
C3806 C3805 1.392 . S
C3806 C3807 1.385 . S
C3806 C3808 1.478 . S
C3807 H3801 0.930 . S
C3807 C3803 1.400 . S
C3807 C3806 1.385 . S
C3808 C3806 1.478 . S
C3808 C3810 1.381 . S
C3808 C3814 1.383 . S
C3809 C3805 1.495 . S
C3809 H3815 0.959 1_455 S
C3809 H3816 0.961 1_455 S
C3809 H3817 0.960 . S
C3810 C3808 1.381 . S
C3810 C3811 1.394 . S
C3810 H3818 0.930 . S
C3811 C3810 1.394 . S
C3811 C3812 1.383 . S
C3811 H3819 0.929 . S
C3812 C3811 1.383 . S
C3812 C3813 1.377 . S
C3813 H3797 0.930 . S
C3813 C3812 1.377 . S
C3813 C3814 1.379 . S
C3814 H3798 0.931 . S
C3814 C3808 1.383 . S
C3814 C3813 1.379 . S
H3815 C3809 0.959 1_655 S
H3816 C3809 0.961 1_655 S
H3817 C3809 0.960 . S
H3818 C3810 0.930 . S
H3819 C3811 0.929 . S
H3820 C3828 0.929 . S
H3821 C3830 0.930 . S
H3822 C3832 0.930 . S
H3823 C3835 0.929 . S
H3824 C3838 0.930 . S
H3825 C3840 0.960 . S
H3826 C3840 0.960 . S
H3827 C3840 0.960 . S
C3828 H3820 0.929 . S
C3828 C3829 1.377 . S
C3828 C3830 1.384 . S
C3829 C3828 1.377 . S
C3829 C3835 1.390 . S
C3830 H3821 0.930 . S
C3830 C3828 1.384 . S
C3830 C3831 1.372 . S
C3831 C3830 1.372 . S
C3831 C3832 1.400 . S
C3831 C3836 1.490 . S
C3832 H3822 0.930 . S
C3832 C3831 1.400 . S
C3832 C3835 1.386 . S
H3833 C3849 0.930 . S
H3834 C3850 0.931 . S
C3835 H3823 0.929 . S
C3835 C3829 1.390 . S
C3835 C3832 1.386 . S
C3836 C3831 1.490 . S
C3836 C3838 1.395 . S
C3836 C3839 1.403 . S
H3837 C3843 0.930 . S
C3838 H3824 0.930 . S
C3838 C3836 1.395 . S
C3838 C3841 1.403 . S
C3839 C3836 1.403 . S
C3839 C3840 1.524 . S
C3839 C3843 1.400 . S
C3840 H3825 0.960 . S
C3840 H3826 0.960 . S
C3840 H3827 0.960 . S
C3840 C3839 1.524 . S
C3841 C3838 1.403 . S
C3841 C3842 1.392 . S
C3841 C3845 1.495 . S
C3842 C3841 1.392 . S
C3842 C3843 1.385 . S
C3842 C3844 1.478 . S
C3843 H3837 0.930 . S
C3843 C3839 1.400 . S
C3843 C3842 1.385 . S
C3844 C3842 1.478 . S
C3844 C3846 1.381 . S
C3844 C3850 1.383 . S
C3845 C3841 1.495 . S
C3845 H3851 0.959 . S
C3845 H3852 0.961 . S
C3845 H3853 0.960 . S
C3846 C3844 1.381 . S
C3846 C3847 1.394 . S
C3846 H3854 0.930 . S
C3847 C3846 1.394 . S
C3847 C3848 1.383 . S
C3847 H3855 0.929 . S
C3848 C3847 1.383 . S
C3848 C3849 1.377 . S
C3849 H3833 0.930 . S
C3849 C3848 1.377 . S
C3849 C3850 1.379 . S
C3850 H3834 0.931 . S
C3850 C3844 1.383 . S
C3850 C3849 1.379 . S
H3851 C3845 0.959 . S
H3852 C3845 0.961 . S
H3853 C3845 0.960 . S
H3854 C3846 0.930 . S
H3855 C3847 0.929 . S
H3856 C3864 0.929 . S
H3857 C3866 0.930 . S
H3858 C3868 0.930 . S
H3859 C3871 0.929 . S
H3860 C3874 0.930 . S
H3861 C3876 0.960 . S
H3862 C3876 0.960 . S
H3863 C3876 0.960 . S
C3864 H3856 0.929 . S
C3864 C3865 1.377 . S
C3864 C3866 1.384 . S
C3865 C3864 1.377 . S
C3865 C3871 1.390 . S
C3866 H3857 0.930 . S
C3866 C3864 1.384 . S
C3866 C3867 1.372 . S
C3867 C3866 1.372 . S
C3867 C3868 1.400 . S
C3867 C3872 1.490 . S
C3868 H3858 0.930 . S
C3868 C3867 1.400 . S
C3868 C3871 1.386 . S
H3869 C3885 0.930 . S
H3870 C3886 0.931 . S
C3871 H3859 0.929 . S
C3871 C3865 1.390 . S
C3871 C3868 1.386 . S
C3872 C3867 1.490 . S
C3872 C3874 1.395 . S
C3872 C3875 1.403 . S
H3873 C3879 0.930 . S
C3874 H3860 0.930 . S
C3874 C3872 1.395 . S
C3874 C3877 1.403 . S
C3875 C3872 1.403 . S
C3875 C3876 1.524 . S
C3875 C3879 1.400 . S
C3876 H3861 0.960 . S
C3876 H3862 0.960 . S
C3876 H3863 0.960 . S
C3876 C3875 1.524 . S
C3877 C3874 1.403 . S
C3877 C3878 1.392 . S
C3877 C3881 1.495 . S
C3878 C3877 1.392 . S
C3878 C3879 1.385 . S
C3878 C3880 1.478 . S
C3879 H3873 0.930 . S
C3879 C3875 1.400 . S
C3879 C3878 1.385 . S
C3880 C3878 1.478 . S
C3880 C3882 1.381 . S
C3880 C3886 1.383 . S
C3881 C3877 1.495 . S
C3881 H3887 0.959 . S
C3881 H3888 0.961 . S
C3881 H3889 0.960 . S
C3882 C3880 1.381 . S
C3882 C3883 1.394 . S
C3882 H3890 0.930 . S
C3883 C3882 1.394 . S
C3883 C3884 1.383 . S
C3883 H3891 0.929 . S
C3884 C3883 1.383 . S
C3884 C3885 1.377 . S
C3885 H3869 0.930 . S
C3885 C3884 1.377 . S
C3885 C3886 1.379 . S
C3886 H3870 0.931 . S
C3886 C3880 1.383 . S
C3886 C3885 1.379 . S
H3887 C3881 0.959 . S
H3888 C3881 0.961 . S
H3889 C3881 0.960 . S
H3890 C3882 0.930 . S
H3891 C3883 0.929 . S
H3892 C3900 0.929 . S
H3893 C3902 0.930 . S
H3894 C3904 0.930 . S
H3895 C3907 0.929 . S
H3896 C3910 0.930 . S
H3897 C3912 0.960 . S
H3898 C3912 0.960 . S
H3899 C3912 0.960 . S
C3900 H3892 0.929 . S
C3900 C3901 1.377 . S
C3900 C3902 1.384 . S
C3901 C3900 1.377 . S
C3901 C3907 1.390 . S
C3902 H3893 0.930 . S
C3902 C3900 1.384 . S
C3902 C3903 1.372 . S
C3903 C3902 1.372 . S
C3903 C3904 1.400 . S
C3903 C3908 1.490 . S
C3904 H3894 0.930 . S
C3904 C3903 1.400 . S
C3904 C3907 1.386 . S
H3905 C3921 0.930 . S
H3906 C3922 0.931 . S
C3907 H3895 0.929 . S
C3907 C3901 1.390 . S
C3907 C3904 1.386 . S
C3908 C3903 1.490 . S
C3908 C3910 1.395 . S
C3908 C3911 1.403 . S
H3909 C3915 0.930 . S
C3910 H3896 0.930 . S
C3910 C3908 1.395 . S
C3910 C3913 1.403 . S
C3911 C3908 1.403 . S
C3911 C3912 1.524 . S
C3911 C3915 1.400 . S
C3912 H3897 0.960 . S
C3912 H3898 0.960 . S
C3912 H3899 0.960 . S
C3912 C3911 1.524 . S
C3913 C3910 1.403 . S
C3913 C3914 1.392 . S
C3913 C3917 1.495 . S
C3914 C3913 1.392 . S
C3914 C3915 1.385 . S
C3914 C3916 1.478 . S
C3915 H3909 0.930 . S
C3915 C3911 1.400 . S
C3915 C3914 1.385 . S
C3916 C3914 1.478 . S
C3916 C3918 1.381 . S
C3916 C3922 1.383 . S
C3917 C3913 1.495 . S
C3917 H3923 0.959 . S
C3917 H3924 0.961 . S
C3917 H3925 0.960 . S
C3918 C3916 1.381 . S
C3918 C3919 1.394 . S
C3918 H3926 0.930 . S
C3919 C3918 1.394 . S
C3919 C3920 1.383 . S
C3919 H3927 0.929 . S
C3920 C3919 1.383 . S
C3920 C3921 1.377 . S
C3921 H3905 0.930 . S
C3921 C3920 1.377 . S
C3921 C3922 1.379 . S
C3922 H3906 0.931 . S
C3922 C3916 1.383 . S
C3922 C3921 1.379 . S
H3923 C3917 0.959 . S
H3924 C3917 0.961 . S
H3925 C3917 0.960 . S
H3926 C3918 0.930 . S
H3927 C3919 0.929 . S
H3928 C3936 0.929 . S
H3929 C3938 0.930 . S
H3930 C3940 0.930 . S
H3931 C3943 0.929 . S
H3932 C3946 0.930 . S
H3933 C3948 0.960 . S
H3934 C3948 0.960 1_455 S
H3935 C3948 0.960 . S
C3936 H3928 0.929 . S
C3936 C3937 1.377 1_455 S
C3936 C3938 1.384 . S
C3937 C3936 1.377 1_655 S
C3937 C3943 1.390 . S
C3938 H3929 0.930 . S
C3938 C3936 1.384 . S
C3938 C3939 1.372 . S
C3939 C3938 1.372 . S
C3939 C3940 1.400 1_455 S
C3939 C3944 1.490 . S
C3940 H3930 0.930 . S
C3940 C3939 1.400 1_655 S
C3940 C3943 1.386 . S
H3941 C3957 0.877 1_655 S
H3942 C3958 0.931 1_655 S
C3943 H3931 0.929 . S
C3943 C3937 1.390 . S
C3943 C3940 1.386 . S
C3944 C3939 1.490 . S
C3944 C3946 1.395 . S
C3944 C3947 1.403 . S
H3945 C3951 0.930 . S
C3946 H3932 0.930 . S
C3946 C3944 1.395 . S
C3946 C3949 1.403 . S
C3947 C3944 1.403 . S
C3947 C3948 1.524 1_455 S
C3947 C3951 1.400 . S
C3948 H3933 0.960 . S
C3948 H3934 0.960 1_655 S
C3948 H3935 0.960 . S
C3948 C3947 1.524 1_655 S
C3949 C3946 1.403 . S
C3949 C3950 1.392 . S
C3949 C3953 1.495 . S
C3950 C3949 1.392 . S
C3950 C3951 1.385 . S
C3950 C3952 1.478 . S
C3951 H3945 0.930 . S
C3951 C3947 1.400 . S
C3951 C3950 1.385 . S
C3952 C3950 1.478 . S
C3952 C3954 1.381 . S
C3952 C3958 1.383 . S
C3953 C3949 1.495 . S
C3953 H3959 0.959 . S
C3953 H3960 0.961 . S
C3953 H3961 0.960 . S
C3954 C3952 1.381 . S
C3954 C3955 1.394 . S
C3954 H3962 0.930 . S
C3955 C3954 1.394 . S
C3955 C3956 1.383 . S
C3955 H3963 0.929 . S
C3956 C3955 1.383 . S
C3956 C3957 1.377 . S
C3957 H3941 0.877 1_455 S
C3957 C3956 1.377 . S
C3957 C3958 1.379 . S
C3958 H3942 0.931 1_455 S
C3958 C3952 1.383 . S
C3958 C3957 1.379 . S
H3959 C3953 0.959 . S
H3960 C3953 0.961 . S
H3961 C3953 0.960 . S
H3962 C3954 0.930 . S
H3963 C3955 0.929 . S
H3964 C3972 0.929 . S
H3965 C3974 0.930 . S
H3966 C3976 0.930 . S
H3967 C3979 0.929 . S
H3968 C3982 0.930 . S
H3969 C3984 0.960 . S
H3970 C3984 0.960 . S
H3971 C3984 0.960 . S
C3972 H3964 0.929 . S
C3972 C3973 1.377 . S
C3972 C3974 1.384 . S
C3973 C3972 1.377 . S
C3973 C3979 1.390 . S
C3974 H3965 0.930 . S
C3974 C3972 1.384 . S
C3974 C3975 1.372 . S
C3975 C3974 1.372 . S
C3975 C3976 1.400 . S
C3975 C3980 1.490 . S
C3976 H3966 0.930 . S
C3976 C3975 1.400 . S
C3976 C3979 1.386 . S
H3977 C3993 0.930 . S
H3978 C3994 0.931 . S
C3979 H3967 0.929 . S
C3979 C3973 1.390 . S
C3979 C3976 1.386 . S
C3980 C3975 1.490 . S
C3980 C3982 1.395 . S
C3980 C3983 1.403 . S
H3981 C3987 0.930 . S
C3982 H3968 0.930 . S
C3982 C3980 1.395 . S
C3982 C3985 1.403 . S
C3983 C3980 1.403 . S
C3983 C3984 1.524 . S
C3983 C3987 1.400 . S
C3984 H3969 0.960 . S
C3984 H3970 0.960 . S
C3984 H3971 0.960 . S
C3984 C3983 1.524 . S
C3985 C3982 1.403 . S
C3985 C3986 1.392 . S
C3985 C3989 1.495 . S
C3986 C3985 1.392 . S
C3986 C3987 1.385 . S
C3986 C3988 1.478 . S
C3987 H3981 0.930 . S
C3987 C3983 1.400 . S
C3987 C3986 1.385 . S
C3988 C3986 1.478 . S
C3988 C3990 1.381 . S
C3988 C3994 1.383 . S
C3989 C3985 1.495 . S
C3989 H3995 0.959 . S
C3989 H3996 0.961 . S
C3989 H3997 0.960 . S
C3990 C3988 1.381 . S
C3990 C3991 1.394 . S
C3990 H3998 0.930 . S
C3991 C3990 1.394 . S
C3991 C3992 1.383 . S
C3991 H3999 0.929 . S
C3992 C3991 1.383 . S
C3992 C3993 1.377 . S
C3993 H3977 0.930 . S
C3993 C3992 1.377 . S
C3993 C3994 1.379 . S
C3994 H3978 0.931 . S
C3994 C3988 1.383 . S
C3994 C3993 1.379 . S
H3995 C3989 0.959 . S
H3996 C3989 0.961 . S
H3997 C3989 0.960 . S
H3998 C3990 0.930 . S
H3999 C3991 0.929 . S
H4000 C4008 0.929 . S
H4001 C4010 0.930 . S
H4002 C4012 0.930 . S
H4003 C4015 0.929 . S
H4004 C4018 0.930 . S
H4005 C4020 0.960 . S
H4006 C4020 0.960 . S
H4007 C4020 0.960 . S
C4008 H4000 0.929 . S
C4008 C4009 1.377 . S
C4008 C4010 1.384 . S
C4009 C4008 1.377 . S
C4009 C4015 1.390 . S
C4010 H4001 0.930 . S
C4010 C4008 1.384 . S
C4010 C4011 1.372 . S
C4011 C4010 1.372 . S
C4011 C4012 1.400 . S
C4011 C4016 1.490 . S
C4012 H4002 0.930 . S
C4012 C4011 1.400 . S
C4012 C4015 1.386 . S
H4013 C4029 0.930 . S
H4014 C4030 0.931 . S
C4015 H4003 0.929 . S
C4015 C4009 1.390 . S
C4015 C4012 1.386 . S
C4016 C4011 1.490 . S
C4016 C4018 1.395 . S
C4016 C4019 1.403 . S
H4017 C4023 0.930 . S
C4018 H4004 0.930 . S
C4018 C4016 1.395 . S
C4018 C4021 1.403 . S
C4019 C4016 1.403 . S
C4019 C4020 1.524 . S
C4019 C4023 1.400 . S
C4020 H4005 0.960 . S
C4020 H4006 0.960 . S
C4020 H4007 0.960 . S
C4020 C4019 1.524 . S
C4021 C4018 1.403 . S
C4021 C4022 1.392 . S
C4021 C4025 1.495 . S
C4022 C4021 1.392 . S
C4022 C4023 1.385 . S
C4022 C4024 1.478 . S
C4023 H4017 0.930 . S
C4023 C4019 1.400 . S
C4023 C4022 1.385 . S
C4024 C4022 1.478 . S
C4024 C4026 1.381 . S
C4024 C4030 1.383 . S
C4025 C4021 1.495 . S
C4025 H4031 0.959 . S
C4025 H4032 0.961 . S
C4025 H4033 0.960 . S
C4026 C4024 1.381 . S
C4026 C4027 1.394 . S
C4026 H4034 0.930 . S
C4027 C4026 1.394 . S
C4027 C4028 1.383 . S
C4027 H4035 0.929 . S
C4028 C4027 1.383 . S
C4028 C4029 1.377 . S
C4029 H4013 0.930 . S
C4029 C4028 1.377 . S
C4029 C4030 1.379 . S
C4030 H4014 0.931 . S
C4030 C4024 1.383 . S
C4030 C4029 1.379 . S
H4031 C4025 0.959 . S
H4032 C4025 0.961 . S
H4033 C4025 0.960 . S
H4034 C4026 0.930 . S
H4035 C4027 0.929 . S
H4036 C4044 0.929 . S
H4037 C4046 0.930 . S
H4038 C4048 0.930 . S
H4039 C4051 0.929 . S
H4040 C4054 0.930 . S
H4041 C4056 0.960 . S
H4042 C4056 0.960 . S
H4043 C4056 0.960 . S
C4044 H4036 0.929 . S
C4044 C4045 1.377 . S
C4044 C4046 1.384 . S
C4045 C4044 1.377 . S
C4045 C4051 1.390 . S
C4046 H4037 0.930 . S
C4046 C4044 1.384 . S
C4046 C4047 1.372 . S
C4047 C4046 1.372 . S
C4047 C4048 1.400 . S
C4047 C4052 1.490 . S
C4048 H4038 0.930 . S
C4048 C4047 1.400 . S
C4048 C4051 1.386 . S
H4049 C4065 0.930 . S
H4050 C4066 0.931 . S
C4051 H4039 0.929 . S
C4051 C4045 1.390 . S
C4051 C4048 1.386 . S
C4052 C4047 1.490 . S
C4052 C4054 1.395 . S
C4052 C4055 1.403 . S
H4053 C4059 0.930 . S
C4054 H4040 0.930 . S
C4054 C4052 1.395 . S
C4054 C4057 1.403 . S
C4055 C4052 1.403 . S
C4055 C4056 1.524 . S
C4055 C4059 1.400 . S
C4056 H4041 0.960 . S
C4056 H4042 0.960 . S
C4056 H4043 0.960 . S
C4056 C4055 1.524 . S
C4057 C4054 1.403 . S
C4057 C4058 1.392 . S
C4057 C4061 1.495 . S
C4058 C4057 1.392 . S
C4058 C4059 1.385 . S
C4058 C4060 1.478 . S
C4059 H4053 0.930 . S
C4059 C4055 1.400 . S
C4059 C4058 1.385 . S
C4060 C4058 1.478 . S
C4060 C4062 1.381 . S
C4060 C4066 1.383 . S
C4061 C4057 1.495 . S
C4061 H4067 0.959 . S
C4061 H4068 0.961 . S
C4061 H4069 0.960 . S
C4062 C4060 1.381 . S
C4062 C4063 1.394 . S
C4062 H4070 0.930 . S
C4063 C4062 1.394 . S
C4063 C4064 1.383 . S
C4063 H4071 0.929 . S
C4064 C4063 1.383 . S
C4064 C4065 1.377 . S
C4065 H4049 0.930 . S
C4065 C4064 1.377 . S
C4065 C4066 1.379 . S
C4066 H4050 0.931 . S
C4066 C4060 1.383 . S
C4066 C4065 1.379 . S
H4067 C4061 0.959 . S
H4068 C4061 0.961 . S
H4069 C4061 0.960 . S
H4070 C4062 0.930 . S
H4071 C4063 0.929 . S
H4072 C4080 0.929 1_455 S
H4073 C4082 0.942 . S
H4074 C4084 0.930 . S
H4075 C4087 0.929 . S
H4076 C4090 0.930 . S
H4077 C4092 0.960 . S
H4078 C4092 0.960 . S
H4079 C4092 0.960 . S
C4080 H4072 0.929 1_655 S
C4080 C4081 1.377 . S
C4080 C4082 1.375 1_655 S
C4081 C4080 1.377 . S
C4081 C4087 1.390 . S
C4082 H4073 0.942 . S
C4082 C4080 1.375 1_455 S
C4082 C4083 1.369 1_455 S
C4083 C4082 1.369 1_655 S
C4083 C4084 1.400 . S
C4083 C4088 1.490 . S
C4084 H4074 0.930 . S
C4084 C4083 1.400 . S
C4084 C4087 1.386 . S
H4085 C4101 0.930 . S
H4086 C4102 0.931 . S
C4087 H4075 0.929 . S
C4087 C4081 1.390 . S
C4087 C4084 1.386 . S
C4088 C4083 1.490 . S
C4088 C4090 1.395 1_655 S
C4088 C4091 1.403 . S
H4089 C4095 0.930 . S
C4090 H4076 0.930 . S
C4090 C4088 1.395 1_455 S
C4090 C4093 1.403 . S
C4091 C4088 1.403 . S
C4091 C4092 1.524 . S
C4091 C4095 1.400 . S
C4092 H4077 0.960 . S
C4092 H4078 0.960 . S
C4092 H4079 0.960 . S
C4092 C4091 1.524 . S
C4093 C4090 1.403 . S
C4093 C4094 1.424 . S
C4093 C4097 1.495 . S
C4094 C4093 1.424 . S
C4094 C4095 1.339 1_455 S
C4094 C4096 1.492 . S
C4095 H4089 0.930 . S
C4095 C4091 1.400 . S
C4095 C4094 1.339 1_655 S
C4096 C4094 1.492 . S
C4096 C4098 1.381 . S
C4096 C4102 1.383 1_455 S
C4097 C4093 1.495 . S
C4097 H4103 0.959 . S
C4097 H4104 0.961 . S
C4097 H4105 0.960 . S
C4098 C4096 1.381 . S
C4098 C4099 1.394 . S
C4098 H4106 0.930 . S
C4099 C4098 1.394 . S
C4099 C4100 1.383 . S
C4099 H4107 0.929 . S
C4100 C4099 1.383 . S
C4100 C4101 1.377 1_455 S
C4101 H4085 0.930 . S
C4101 C4100 1.377 1_655 S
C4101 C4102 1.379 . S
C4102 H4086 0.931 . S
C4102 C4096 1.383 1_655 S
C4102 C4101 1.379 . S
H4103 C4097 0.959 . S
H4104 C4097 0.961 . S
H4105 C4097 0.960 . S
H4106 C4098 0.930 . S
H4107 C4099 0.929 . S
H4108 C4116 0.929 . S
H4109 C4118 0.930 . S
H4110 C4120 0.930 . S
H4111 C4123 0.929 . S
H4112 C4126 0.930 . S
H4113 C4128 0.960 . S
H4114 C4128 0.960 . S
H4115 C4128 0.960 . S
C4116 H4108 0.929 . S
C4116 C4117 1.377 . S
C4116 C4118 1.384 . S
C4117 C4116 1.377 . S
C4117 C4123 1.390 . S
C4118 H4109 0.930 . S
C4118 C4116 1.384 . S
C4118 C4119 1.372 . S
C4119 C4118 1.372 . S
C4119 C4120 1.400 . S
C4119 C4124 1.490 . S
C4120 H4110 0.930 . S
C4120 C4119 1.400 . S
C4120 C4123 1.386 . S
H4121 C4137 0.930 . S
H4122 C4138 0.931 . S
C4123 H4111 0.929 . S
C4123 C4117 1.390 . S
C4123 C4120 1.386 . S
C4124 C4119 1.490 . S
C4124 C4126 1.395 . S
C4124 C4127 1.403 . S
H4125 C4131 0.930 . S
C4126 H4112 0.930 . S
C4126 C4124 1.395 . S
C4126 C4129 1.403 . S
C4127 C4124 1.403 . S
C4127 C4128 1.524 . S
C4127 C4131 1.400 . S
C4128 H4113 0.960 . S
C4128 H4114 0.960 . S
C4128 H4115 0.960 . S
C4128 C4127 1.524 . S
C4129 C4126 1.403 . S
C4129 C4130 1.392 . S
C4129 C4133 1.495 . S
C4130 C4129 1.392 . S
C4130 C4131 1.385 . S
C4130 C4132 1.478 . S
C4131 H4125 0.930 . S
C4131 C4127 1.400 . S
C4131 C4130 1.385 . S
C4132 C4130 1.478 . S
C4132 C4134 1.381 . S
C4132 C4138 1.383 . S
C4133 C4129 1.495 . S
C4133 H4139 0.959 . S
C4133 H4140 0.961 . S
C4133 H4141 0.960 . S
C4134 C4132 1.381 . S
C4134 C4135 1.394 . S
C4134 H4142 0.930 . S
C4135 C4134 1.394 . S
C4135 C4136 1.383 . S
C4135 H4143 0.929 . S
C4136 C4135 1.383 . S
C4136 C4137 1.377 . S
C4137 H4121 0.930 . S
C4137 C4136 1.377 . S
C4137 C4138 1.379 . S
C4138 H4122 0.931 . S
C4138 C4132 1.383 . S
C4138 C4137 1.379 . S
H4139 C4133 0.959 . S
H4140 C4133 0.961 . S
H4141 C4133 0.960 . S
H4142 C4134 0.930 . S
H4143 C4135 0.929 . S
H4144 C4152 0.929 . S
H4145 C4154 0.930 . S
H4146 C4156 0.930 . S
H4147 C4159 0.929 . S
H4148 C4162 0.930 . S
H4149 C4164 0.960 . S
H4150 C4164 0.960 . S
H4151 C4164 0.960 . S
C4152 H4144 0.929 . S
C4152 C4153 1.377 . S
C4152 C4154 1.384 . S
C4153 C4152 1.377 . S
C4153 C4159 1.390 . S
C4154 H4145 0.930 . S
C4154 C4152 1.384 . S
C4154 C4155 1.372 . S
C4155 C4154 1.372 . S
C4155 C4156 1.400 . S
C4155 C4160 1.490 . S
C4156 H4146 0.930 . S
C4156 C4155 1.400 . S
C4156 C4159 1.386 . S
H4157 C4173 0.930 . S
H4158 C4174 0.931 . S
C4159 H4147 0.929 . S
C4159 C4153 1.390 . S
C4159 C4156 1.386 . S
C4160 C4155 1.490 . S
C4160 C4162 1.395 . S
C4160 C4163 1.403 . S
H4161 C4167 0.930 . S
C4162 H4148 0.930 . S
C4162 C4160 1.395 . S
C4162 C4165 1.403 . S
C4163 C4160 1.403 . S
C4163 C4164 1.524 . S
C4163 C4167 1.400 . S
C4164 H4149 0.960 . S
C4164 H4150 0.960 . S
C4164 H4151 0.960 . S
C4164 C4163 1.524 . S
C4165 C4162 1.403 . S
C4165 C4166 1.392 . S
C4165 C4169 1.495 . S
C4166 C4165 1.392 . S
C4166 C4167 1.385 . S
C4166 C4168 1.478 . S
C4167 H4161 0.930 . S
C4167 C4163 1.400 . S
C4167 C4166 1.385 . S
C4168 C4166 1.478 . S
C4168 C4170 1.381 . S
C4168 C4174 1.383 . S
C4169 C4165 1.495 . S
C4169 H4175 0.959 . S
C4169 H4176 0.961 . S
C4169 H4177 0.960 . S
C4170 C4168 1.381 . S
C4170 C4171 1.394 . S
C4170 H4178 0.930 . S
C4171 C4170 1.394 . S
C4171 C4172 1.383 . S
C4171 H4179 0.929 . S
C4172 C4171 1.383 . S
C4172 C4173 1.377 . S
C4173 H4157 0.930 . S
C4173 C4172 1.377 . S
C4173 C4174 1.379 . S
C4174 H4158 0.931 . S
C4174 C4168 1.383 . S
C4174 C4173 1.379 . S
H4175 C4169 0.959 . S
H4176 C4169 0.961 . S
H4177 C4169 0.960 . S
H4178 C4170 0.930 . S
H4179 C4171 0.929 . S
H4180 C4188 0.929 . S
H4181 C4190 0.930 . S
H4182 C4192 0.930 . S
H4183 C4195 0.929 . S
H4184 C4198 0.930 . S
H4185 C4200 0.960 . S
H4186 C4200 0.960 . S
H4187 C4200 0.960 . S
C4188 H4180 0.929 . S
C4188 C4189 1.377 . S
C4188 C4190 1.384 . S
C4189 C4188 1.377 . S
C4189 C4195 1.390 . S
C4190 H4181 0.930 . S
C4190 C4188 1.384 . S
C4190 C4191 1.372 . S
C4191 C4190 1.372 . S
C4191 C4192 1.400 . S
C4191 C4196 1.490 . S
C4192 H4182 0.930 . S
C4192 C4191 1.400 . S
C4192 C4195 1.386 . S
H4193 C4209 0.930 . S
H4194 C4210 0.931 . S
C4195 H4183 0.929 . S
C4195 C4189 1.390 . S
C4195 C4192 1.386 . S
C4196 C4191 1.490 . S
C4196 C4198 1.395 . S
C4196 C4199 1.403 . S
H4197 C4203 0.930 . S
C4198 H4184 0.930 . S
C4198 C4196 1.395 . S
C4198 C4201 1.403 . S
C4199 C4196 1.403 . S
C4199 C4200 1.524 . S
C4199 C4203 1.400 . S
C4200 H4185 0.960 . S
C4200 H4186 0.960 . S
C4200 H4187 0.960 . S
C4200 C4199 1.524 . S
C4201 C4198 1.403 . S
C4201 C4202 1.392 . S
C4201 C4205 1.495 . S
C4202 C4201 1.392 . S
C4202 C4203 1.385 . S
C4202 C4204 1.478 . S
C4203 H4197 0.930 . S
C4203 C4199 1.400 . S
C4203 C4202 1.385 . S
C4204 C4202 1.478 . S
C4204 C4206 1.381 1_565 S
C4204 C4210 1.383 . S
C4205 C4201 1.495 . S
C4205 H4211 0.959 . S
C4205 H4212 0.961 . S
C4205 H4213 0.960 . S
C4206 C4204 1.381 1_545 S
C4206 C4207 1.394 . S
C4206 H4214 0.930 . S
C4207 C4206 1.394 . S
C4207 C4208 1.383 . S
C4207 H4215 0.929 . S
C4208 C4207 1.383 . S
C4208 C4209 1.377 1_545 S
C4209 H4193 0.930 . S
C4209 C4208 1.377 1_565 S
C4209 C4210 1.379 . S
C4210 H4194 0.931 . S
C4210 C4204 1.383 . S
C4210 C4209 1.379 . S
H4211 C4205 0.959 . S
H4212 C4205 0.961 . S
H4213 C4205 0.960 . S
H4214 C4206 0.930 . S
H4215 C4207 0.929 . S
H4216 C4224 0.929 . S
H4217 C4226 0.930 . S
H4218 C4228 0.930 . S
H4219 C4231 0.929 . S
H4220 C4234 0.930 . S
H4221 C4236 0.960 . S
H4222 C4236 0.960 . S
H4223 C4236 0.960 . S
C4224 H4216 0.929 . S
C4224 C4225 1.377 . S
C4224 C4226 1.384 . S
C4225 C4224 1.377 . S
C4225 C4231 1.390 . S
C4226 H4217 0.930 . S
C4226 C4224 1.384 . S
C4226 C4227 1.372 . S
C4227 C4226 1.372 . S
C4227 C4228 1.400 . S
C4227 C4232 1.490 . S
C4228 H4218 0.930 . S
C4228 C4227 1.400 . S
C4228 C4231 1.386 . S
H4229 C4245 0.930 . S
H4230 C4246 0.931 . S
C4231 H4219 0.929 . S
C4231 C4225 1.390 . S
C4231 C4228 1.386 . S
C4232 C4227 1.490 . S
C4232 C4234 1.395 . S
C4232 C4235 1.403 . S
H4233 C4239 0.930 . S
C4234 H4220 0.930 . S
C4234 C4232 1.395 . S
C4234 C4237 1.403 . S
C4235 C4232 1.403 . S
C4235 C4236 1.524 . S
C4235 C4239 1.400 . S
C4236 H4221 0.960 . S
C4236 H4222 0.960 . S
C4236 H4223 0.960 . S
C4236 C4235 1.524 . S
C4237 C4234 1.403 . S
C4237 C4238 1.392 . S
C4237 C4241 1.495 . S
C4238 C4237 1.392 . S
C4238 C4239 1.385 . S
C4238 C4240 1.478 . S
C4239 H4233 0.930 . S
C4239 C4235 1.400 . S
C4239 C4238 1.385 . S
C4240 C4238 1.478 . S
C4240 C4242 1.381 . S
C4240 C4246 1.383 . S
C4241 C4237 1.495 . S
C4241 H4247 0.959 . S
C4241 H4248 0.961 . S
C4241 H4249 0.960 . S
C4242 C4240 1.381 . S
C4242 C4243 1.394 . S
C4242 H4250 0.930 . S
C4243 C4242 1.394 . S
C4243 C4244 1.383 . S
C4243 H4251 0.929 . S
C4244 C4243 1.383 . S
C4244 C4245 1.377 . S
C4245 H4229 0.930 . S
C4245 C4244 1.377 . S
C4245 C4246 1.379 . S
C4246 H4230 0.931 . S
C4246 C4240 1.383 . S
C4246 C4245 1.379 . S
H4247 C4241 0.959 . S
H4248 C4241 0.961 . S
H4249 C4241 0.960 . S
H4250 C4242 0.930 . S
H4251 C4243 0.929 . S
H4252 C4260 0.929 . S
H4253 C4262 0.930 . S
H4254 C4264 0.930 . S
H4255 C4267 0.929 . S
H4256 C4270 0.930 . S
H4257 C4272 0.960 . S
H4258 C4272 0.960 . S
H4259 C4272 0.960 . S
C4260 H4252 0.929 . S
C4260 C4261 1.377 1_554 S
C4260 C4262 1.384 . S
C4261 C4260 1.377 1_556 S
C4261 C4267 1.390 . S
C4262 H4253 0.930 . S
C4262 C4260 1.384 . S
C4262 C4263 1.372 1_554 S
C4263 C4262 1.372 1_556 S
C4263 C4264 1.400 . S
C4263 C4268 1.485 1_556 S
C4264 H4254 0.930 . S
C4264 C4263 1.400 . S
C4264 C4267 1.386 . S
H4265 C4281 0.930 . S
H4266 C4282 0.931 . S
C4267 H4255 0.929 . S
C4267 C4261 1.390 . S
C4267 C4264 1.386 . S
C4268 C4263 1.485 1_554 S
C4268 C4270 1.404 . S
C4268 C4271 1.399 1_554 S
H4269 C4275 0.930 . S
C4270 H4256 0.930 . S
C4270 C4268 1.404 . S
C4270 C4273 1.403 . S
C4271 C4268 1.399 1_556 S
C4271 C4272 1.524 . S
C4271 C4275 1.400 . S
C4272 H4257 0.960 . S
C4272 H4258 0.960 . S
C4272 H4259 0.960 . S
C4272 C4271 1.524 . S
C4273 C4270 1.403 . S
C4273 C4274 1.392 . S
C4273 C4277 1.495 . S
C4274 C4273 1.392 . S
C4274 C4275 1.385 1_554 S
C4274 C4276 1.478 . S
C4275 H4269 0.930 . S
C4275 C4271 1.400 . S
C4275 C4274 1.385 1_556 S
C4276 C4274 1.478 . S
C4276 C4278 1.381 . S
C4276 C4282 1.383 1_554 S
C4277 C4273 1.495 . S
C4277 H4283 0.959 . S
C4277 H4284 0.961 . S
C4277 H4285 0.960 . S
C4278 C4276 1.381 . S
C4278 C4279 1.394 . S
C4278 H4286 0.930 . S
C4279 C4278 1.394 . S
C4279 C4280 1.383 . S
C4279 H4287 0.929 . S
C4280 C4279 1.383 . S
C4280 C4281 1.377 1_554 S
C4281 H4265 0.930 . S
C4281 C4280 1.377 1_556 S
C4281 C4282 1.379 . S
C4282 H4266 0.931 . S
C4282 C4276 1.383 1_556 S
C4282 C4281 1.379 . S
H4283 C4277 0.959 . S
H4284 C4277 0.961 . S
H4285 C4277 0.960 . S
H4286 C4278 0.930 . S
H4287 C4279 0.929 . S
H4288 C4296 0.929 . S
H4289 C4298 0.930 . S
H4290 C4300 0.930 . S
H4291 C4303 0.929 . S
H4292 C4306 0.930 . S
H4293 C4308 0.960 . S
H4294 C4308 0.960 . S
H4295 C4308 0.960 . S
C4296 H4288 0.929 . S
C4296 C4297 1.377 . S
C4296 C4298 1.384 . S
C4297 C4296 1.377 . S
C4297 C4303 1.390 . S
C4298 H4289 0.930 . S
C4298 C4296 1.384 . S
C4298 C4299 1.372 . S
C4299 C4298 1.372 . S
C4299 C4300 1.400 . S
C4299 C4304 1.490 . S
C4300 H4290 0.930 . S
C4300 C4299 1.400 . S
C4300 C4303 1.386 . S
H4301 C4317 0.930 . S
H4302 C4318 0.931 . S
C4303 H4291 0.929 . S
C4303 C4297 1.390 . S
C4303 C4300 1.386 . S
C4304 C4299 1.490 . S
C4304 C4306 1.395 . S
C4304 C4307 1.403 . S
H4305 C4311 0.930 . S
C4306 H4292 0.930 . S
C4306 C4304 1.395 . S
C4306 C4309 1.403 . S
C4307 C4304 1.403 . S
C4307 C4308 1.524 . S
C4307 C4311 1.400 . S
C4308 H4293 0.960 . S
C4308 H4294 0.960 . S
C4308 H4295 0.960 . S
C4308 C4307 1.524 . S
C4309 C4306 1.403 . S
C4309 C4310 1.392 . S
C4309 C4313 1.495 . S
C4310 C4309 1.392 . S
C4310 C4311 1.385 . S
C4310 C4312 1.478 . S
C4311 H4305 0.930 . S
C4311 C4307 1.400 . S
C4311 C4310 1.385 . S
C4312 C4310 1.478 . S
C4312 C4314 1.381 . S
C4312 C4318 1.383 . S
C4313 C4309 1.495 . S
C4313 H4319 0.959 . S
C4313 H4320 0.961 . S
C4313 H4321 0.960 . S
C4314 C4312 1.381 . S
C4314 C4315 1.394 . S
C4314 H4322 0.930 . S
C4315 C4314 1.394 . S
C4315 C4316 1.383 . S
C4315 H4323 0.929 . S
C4316 C4315 1.383 . S
C4316 C4317 1.377 . S
C4317 H4301 0.930 . S
C4317 C4316 1.377 . S
C4317 C4318 1.379 . S
C4318 H4302 0.931 . S
C4318 C4312 1.383 . S
C4318 C4317 1.379 . S
H4319 C4313 0.959 . S
H4320 C4313 0.961 . S
H4321 C4313 0.960 . S
H4322 C4314 0.930 . S
H4323 C4315 0.929 . S
H4324 C4332 0.929 1_556 S
H4325 C4334 0.930 1_556 S
H4326 C4336 0.930 . S
H4327 C4339 0.929 . S
H4328 C4342 0.930 . S
H4329 C4344 0.960 . S
H4330 C4344 0.960 . S
H4331 C4344 0.960 . S
C4332 H4324 0.929 1_554 S
C4332 C4333 1.377 . S
C4332 C4334 1.384 . S
C4333 C4332 1.377 . S
C4333 C4339 1.390 . S
C4334 H4325 0.930 1_554 S
C4334 C4332 1.384 . S
C4334 C4335 1.372 . S
C4335 C4334 1.372 . S
C4335 C4336 1.400 . S
C4335 C4340 1.490 . S
C4336 H4326 0.930 . S
C4336 C4335 1.400 . S
C4336 C4339 1.386 . S
H4337 C4353 0.930 . S
H4338 C4354 0.931 . S
C4339 H4327 0.929 . S
C4339 C4333 1.390 . S
C4339 C4336 1.386 . S
C4340 C4335 1.490 . S
C4340 C4342 1.395 . S
C4340 C4343 1.403 . S
H4341 C4347 0.930 . S
C4342 H4328 0.930 . S
C4342 C4340 1.395 . S
C4342 C4345 1.403 . S
C4343 C4340 1.403 . S
C4343 C4344 1.524 . S
C4343 C4347 1.400 . S
C4344 H4329 0.960 . S
C4344 H4330 0.960 . S
C4344 H4331 0.960 . S
C4344 C4343 1.524 . S
C4345 C4342 1.403 . S
C4345 C4346 1.392 . S
C4345 C4349 1.495 . S
C4346 C4345 1.392 . S
C4346 C4347 1.385 . S
C4346 C4348 1.478 . S
C4347 H4341 0.930 . S
C4347 C4343 1.400 . S
C4347 C4346 1.385 . S
C4348 C4346 1.478 . S
C4348 C4350 1.381 1_554 S
C4348 C4354 1.383 . S
C4349 C4345 1.495 . S
C4349 H4355 0.959 . S
C4349 H4356 0.961 . S
C4349 H4357 0.960 1_554 S
C4350 C4348 1.381 1_556 S
C4350 C4351 1.394 . S
C4350 H4358 0.930 . S
C4351 C4350 1.394 . S
C4351 C4352 1.383 1_556 S
C4351 H4359 0.929 . S
C4352 C4351 1.383 1_554 S
C4352 C4353 1.377 . S
C4353 H4337 0.930 . S
C4353 C4352 1.377 . S
C4353 C4354 1.379 . S
C4354 H4338 0.931 . S
C4354 C4348 1.383 . S
C4354 C4353 1.379 . S
H4355 C4349 0.959 . S
H4356 C4349 0.961 . S
H4357 C4349 0.960 1_556 S
H4358 C4350 0.930 . S
H4359 C4351 0.929 . S
H4360 C4368 0.929 . S
H4361 C4370 0.930 . S
H4362 C4372 0.930 . S
H4363 C4375 0.929 . S
H4364 C4378 0.930 . S
H4365 C4380 0.960 . S
H4366 C4380 0.960 . S
H4367 C4380 0.960 . S
C4368 H4360 0.929 . S
C4368 C4369 1.377 . S
C4368 C4370 1.384 . S
C4369 C4368 1.377 . S
C4369 C4375 1.390 . S
C4370 H4361 0.930 . S
C4370 C4368 1.384 . S
C4370 C4371 1.372 . S
C4371 C4370 1.372 . S
C4371 C4372 1.400 . S
C4371 C4376 1.490 . S
C4372 H4362 0.930 . S
C4372 C4371 1.400 . S
C4372 C4375 1.386 . S
H4373 C4389 0.930 . S
H4374 C4390 0.931 . S
C4375 H4363 0.929 . S
C4375 C4369 1.390 . S
C4375 C4372 1.386 . S
C4376 C4371 1.490 . S
C4376 C4378 1.395 . S
C4376 C4379 1.403 . S
H4377 C4383 0.930 . S
C4378 H4364 0.930 . S
C4378 C4376 1.395 . S
C4378 C4381 1.403 . S
C4379 C4376 1.403 . S
C4379 C4380 1.524 . S
C4379 C4383 1.400 . S
C4380 H4365 0.960 . S
C4380 H4366 0.960 . S
C4380 H4367 0.960 . S
C4380 C4379 1.524 . S
C4381 C4378 1.403 . S
C4381 C4382 1.392 . S
C4381 C4385 1.495 . S
C4382 C4381 1.392 . S
C4382 C4383 1.385 . S
C4382 C4384 1.478 . S
C4383 H4377 0.930 . S
C4383 C4379 1.400 . S
C4383 C4382 1.385 . S
C4384 C4382 1.478 . S
C4384 C4386 1.381 . S
C4384 C4390 1.383 . S
C4385 C4381 1.495 . S
C4385 H4391 0.959 . S
C4385 H4392 0.961 . S
C4385 H4393 0.960 . S
C4386 C4384 1.381 . S
C4386 C4387 1.394 . S
C4386 H4394 0.930 . S
C4387 C4386 1.394 . S
C4387 C4388 1.383 . S
C4387 H4395 0.929 . S
C4388 C4387 1.383 . S
C4388 C4389 1.377 . S
C4389 H4373 0.930 . S
C4389 C4388 1.377 . S
C4389 C4390 1.379 . S
C4390 H4374 0.931 . S
C4390 C4384 1.383 . S
C4390 C4389 1.379 . S
H4391 C4385 0.959 . S
H4392 C4385 0.961 . S
H4393 C4385 0.960 . S
H4394 C4386 0.930 . S
H4395 C4387 0.929 . S
H4396 C4404 0.929 . S
H4397 C4406 0.930 . S
H4398 C4408 0.930 . S
H4399 C4411 0.929 . S
H4400 C4414 0.930 . S
H4401 C4416 0.960 . S
H4402 C4416 0.960 . S
H4403 C4416 0.960 . S
C4404 H4396 0.929 . S
C4404 C4405 1.377 . S
C4404 C4406 1.384 . S
C4405 C4404 1.377 . S
C4405 C4411 1.390 . S
C4406 H4397 0.930 . S
C4406 C4404 1.384 . S
C4406 C4407 1.372 . S
C4407 C4406 1.372 . S
C4407 C4408 1.400 . S
C4407 C4412 1.490 . S
C4408 H4398 0.930 . S
C4408 C4407 1.400 . S
C4408 C4411 1.386 . S
H4409 C4425 0.930 . S
H4410 C4426 0.931 . S
C4411 H4399 0.929 . S
C4411 C4405 1.390 . S
C4411 C4408 1.386 . S
C4412 C4407 1.490 . S
C4412 C4414 1.395 . S
C4412 C4415 1.403 . S
H4413 C4419 0.930 . S
C4414 H4400 0.930 . S
C4414 C4412 1.395 . S
C4414 C4417 1.403 . S
C4415 C4412 1.403 . S
C4415 C4416 1.524 . S
C4415 C4419 1.400 . S
C4416 H4401 0.960 . S
C4416 H4402 0.960 . S
C4416 H4403 0.960 . S
C4416 C4415 1.524 . S
C4417 C4414 1.403 . S
C4417 C4418 1.392 . S
C4417 C4421 1.495 . S
C4418 C4417 1.392 . S
C4418 C4419 1.385 . S
C4418 C4420 1.478 . S
C4419 H4413 0.930 . S
C4419 C4415 1.400 . S
C4419 C4418 1.385 . S
C4420 C4418 1.478 . S
C4420 C4422 1.381 . S
C4420 C4426 1.383 . S
C4421 C4417 1.495 . S
C4421 H4427 0.959 . S
C4421 H4428 0.961 . S
C4421 H4429 0.960 . S
C4422 C4420 1.381 . S
C4422 C4423 1.394 . S
C4422 H4430 0.930 . S
C4423 C4422 1.394 . S
C4423 C4424 1.383 . S
C4423 H4431 0.929 . S
C4424 C4423 1.383 . S
C4424 C4425 1.377 . S
C4425 H4409 0.930 . S
C4425 C4424 1.377 . S
C4425 C4426 1.379 . S
C4426 H4410 0.931 . S
C4426 C4420 1.383 . S
C4426 C4425 1.379 . S
H4427 C4421 0.959 . S
H4428 C4421 0.961 . S
H4429 C4421 0.960 . S
H4430 C4422 0.930 . S
H4431 C4423 0.929 . S
C985 C111 1.607 . S
C1004 C358 1.606 . S
C1021 C64 1.049 . S
C1040 C378 1.082 . S
C1057 C77 0.386 . S
C1076 C425 0.432 . S
C1112 C482 0.720 . S
C1093 C95 0.731 . S
C1129 C25 2.359 . S
C1148 C499 2.368 . S
C1184 C558 1.659 . S
C1165 C36 1.635 . S
C1220 C591 2.641 . S
C1201 C50 2.563 . S
C1237 C11 2.365 . S
C1256 C638 2.333 . S
C1292 C351 1.271 . S
C1273 C237 1.213 . S
C1309 C245 1.158 . S
C1328 C379 1.139 . S
C1364 C418 0.464 . S
C1345 C279 0.587 1_565 S
C1400 C478 1.920 . S
C1381 C175 1.905 . S
C1417 C231 0.101 . S
C1436 C505 0.151 . S
C1472 C551 2.201 . S
C1453 C251 2.142 . S
C1508 C602 0.536 . S
C1489 C273 0.417 1_565 S
C1544 C631 2.217 . S
C1525 C181 2.102 . S
C1580 C362 1.519 1_565 S
C1561 C165 1.565 . S
C1597 C288 2.173 . S
C1616 C658 2.231 . S
C1652 C722 1.030 . S
C1633 C333 1.021 . S
C1688 C758 1.204 . S
C1669 C316 1.225 . S
C1705 C123 0.992 . S
C1724 C642 0.952 . S
C1741 C137 2.404 . S
C1760 C419 2.402 . S
C1777 C330 1.285 . S
C1796 C791 1.372 . S
C1832 C825 0.152 . S
C1813 C302 0.287 . S
C1868 C339 1.783 . S
C1849 C63 1.780 . S
C1904 C831 1.176 . S
C1885 C106 1.158 . S
C1921 C97 0.555 . S
C1940 C442 0.521 . S
C1957 C81 0.804 . S
C1976 C785 0.828 . S
C2012 C518 2.560 . S
C1993 C13 2.475 . S
C2029 C55 1.574 . S
C2048 C699 1.677 . S
C2084 C578 2.650 1_556 S
C2065 C35 2.649 . S
C2120 C859 2.528 . S
C2101 C21 2.556 1_655 S
C2156 C338 1.403 . S
C2137 C147 1.392 . S
C2192 C838 1.340 . S
C2173 C321 1.311 . S
C2209 C119 0.586 . S
C2228 C431 0.602 . S
C2245 C293 1.934 . S
C2264 C779 2.078 . S
C2281 C153 0.457 . S
C2300 C522 0.326 . S
C2336 C698 2.336 . S
C2317 C315 2.358 . S
C2353 C125 0.655 . S
C2372 C585 0.563 . S
C2389 C287 2.368 . S
C2408 C858 2.347 . S
C2425 C193 1.570 . S
C2444 C345 1.561 . S
C2461 C176 2.232 . S
C2480 C671 2.255 . S
C2497 C263 1.047 . S
C2516 C545 1.068 . S
C2533 C246 1.310 . S
C2552 C739 1.348 . S
C2588 C865 0.993 . S
C2569 C277 1.012 . S
C2605 C221 2.503 . S
C2624 C438 2.501 1_565 S
C2660 C458 1.453 . S
C2641 C260 1.438 . S
C2696 C402 0.293 . S
C2677 C204 0.322 . S
C2713 C83 1.580 . S
C2732 C918 1.606 . S
C2768 C818 1.109 . S
C2749 C92 1.057 . S
C2785 C105 0.389 . S
C2804 C945 0.431 . S
C2821 C67 0.737 . S
C2840 C802 0.749 . S
C2857 C53 2.360 . S
C2876 C659 2.364 . S
C2912 C718 1.677 . S
C2893 C8 1.636 1_655 S
C2948 C751 2.642 . S
C2929 C22 2.560 . S
C2984 C878 2.335 . S
C2965 C39 2.363 . S
C3020 C911 1.277 . S
C3001 C265 1.213 . S
C3037 C189 1.160 . S
C3056 C819 1.170 . S
C3092 C938 0.496 . S
C3073 C209 0.601 . S
C3128 C798 1.917 . S
C3109 C217 1.906 . S
C3164 C665 0.144 . S
C3145 C259 0.102 . S
C3181 C195 2.143 . S
C3200 C711 2.191 . S
C3236 C762 0.420 . S
C3217 C203 0.392 . S
C3253 C223 2.103 . S
C3272 C871 2.216 . S
C3308 C922 1.521 . S
C3289 C319 1.565 . S
C3325 C134 2.167 . S
C3344 C498 2.214 . S
C3380 C562 1.012 . S
C3361 C151 1.023 . S
C3416 C598 1.217 . S
C3397 C162 1.229 . S
C3452 C882 0.971 . S
C3433 C305 0.996 . S
C3469 C291 2.405 . S
C3488 C939 2.397 1_655 S
C3524 C471 1.366 . S
C3505 C148 1.287 . S
C3560 C385 0.110 . S
C3541 C120 0.275 . S
C3577 C91 1.777 . S
C3596 C899 1.762 . S
C3632 C391 1.126 . S
C3613 C78 1.161 . S
C3649 C69 0.570 . S
C3668 C962 0.496 . S
C3685 C109 0.815 . S
C3704 C465 0.809 . S
C3721 C41 2.476 . S
C3740 C678 2.557 1_556 S
C3776 C539 1.692 . S
C3757 C27 1.586 . S
C3793 C7 2.649 . S
C3812 C738 2.646 . S
C3829 C49 2.557 . S
C3848 C619 2.543 . S
C3884 C898 1.405 . S
C3865 C329 1.392 . S
C3901 C167 1.300 . S
C3920 C398 1.348 . S
C3956 C951 0.550 . S
C3937 C301 0.595 . S
C3973 C139 1.929 . S
C3992 C459 2.076 . S
C4009 C335 0.447 . S
C4028 C682 0.336 . S
C4064 C538 2.332 . S
C4045 C161 2.357 1_556 S
C4081 C307 0.679 . S
C4100 C745 0.429 . S
C4136 C618 2.358 . S
C4117 C133 2.367 . S
C4172 C905 1.569 . S
C4153 C249 1.574 . S
C4208 C511 2.245 1_655 S
C4189 C218 2.235 . S
C4225 C235 1.044 . S
C4244 C705 1.042 . S
C4280 C579 1.335 . S
C4261 C190 1.302 . S
C4297 C207 1.017 . S
C4316 C625 1.037 . S
C4333 C179 2.502 . S
C4352 C958 2.501 . S
C4388 C778 1.456 . S
C4369 C232 1.437 . S
C4424 C842 0.365 . S
C4405 C274 0.300 . S
