# Generated by pormake.
# Topology cor, (4,6)-cn, num edge types: 1
# Building blocks:
#     Node 0, Type 0, BuildingBlock: TATPOV_clean_sbu_0, # of connection points: 4
#     Node 1, Type 0, BuildingBlock: TATPOV_clean_sbu_0, # of connection points: 4
#     Node 2, Type 0, BuildingBlock: TATPOV_clean_sbu_0, # of connection points: 4
#     Node 3, Type 0, BuildingBlock: TATPOV_clean_sbu_0, # of connection points: 4
#     Node 4, Type 0, BuildingBlock: TATPOV_clean_sbu_0, # of connection points: 4
#     Node 5, Type 0, BuildingBlock: TATPOV_clean_sbu_0, # of connection points: 4
#     Node 6, Type 0, BuildingBlock: TATPOV_clean_sbu_0, # of connection points: 4
#     Node 7, Type 0, BuildingBlock: TATPOV_clean_sbu_0, # of connection points: 4
#     Node 8, Type 0, BuildingBlock: TATPOV_clean_sbu_0, # of connection points: 4
#     Node 9, Type 0, BuildingBlock: TATPOV_clean_sbu_0, # of connection points: 4
#     Node 10, Type 0, BuildingBlock: TATPOV_clean_sbu_0, # of connection points: 4
#     Node 11, Type 0, BuildingBlock: TATPOV_clean_sbu_0, # of connection points: 4
#     Node 12, Type 0, BuildingBlock: TATPOV_clean_sbu_0, # of connection points: 4
#     Node 13, Type 0, BuildingBlock: TATPOV_clean_sbu_0, # of connection points: 4
#     Node 14, Type 0, BuildingBlock: TATPOV_clean_sbu_0, # of connection points: 4
#     Node 15, Type 0, BuildingBlock: TATPOV_clean_sbu_0, # of connection points: 4
#     Node 16, Type 0, BuildingBlock: TATPOV_clean_sbu_0, # of connection points: 4
#     Node 17, Type 0, BuildingBlock: TATPOV_clean_sbu_0, # of connection points: 4
#     Node 18, Type 1, BuildingBlock: MIDCAF_clean_sbu_0, # of connection points: 6
#     Node 19, Type 1, BuildingBlock: MIDCAF_clean_sbu_0, # of connection points: 6
#     Node 20, Type 1, BuildingBlock: MIDCAF_clean_sbu_0, # of connection points: 6
#     Node 21, Type 1, BuildingBlock: MIDCAF_clean_sbu_0, # of connection points: 6
#     Node 22, Type 1, BuildingBlock: MIDCAF_clean_sbu_0, # of connection points: 6
#     Node 23, Type 1, BuildingBlock: MIDCAF_clean_sbu_0, # of connection points: 6
#     Node 24, Type 1, BuildingBlock: MIDCAF_clean_sbu_0, # of connection points: 6
#     Node 25, Type 1, BuildingBlock: MIDCAF_clean_sbu_0, # of connection points: 6
#     Node 26, Type 1, BuildingBlock: MIDCAF_clean_sbu_0, # of connection points: 6
#     Node 27, Type 1, BuildingBlock: MIDCAF_clean_sbu_0, # of connection points: 6
#     Node 28, Type 1, BuildingBlock: MIDCAF_clean_sbu_0, # of connection points: 6
#     Node 29, Type 1, BuildingBlock: MIDCAF_clean_sbu_0, # of connection points: 6
#     Edge 30, Type (0, 1), None
#     Edge 31, Type (0, 1), None
#     Edge 32, Type (0, 1), None
#     Edge 33, Type (0, 1), None
#     Edge 34, Type (0, 1), None
#     Edge 35, Type (0, 1), None
#     Edge 36, Type (0, 1), None
#     Edge 37, Type (0, 1), None
#     Edge 38, Type (0, 1), None
#     Edge 39, Type (0, 1), None
#     Edge 40, Type (0, 1), None
#     Edge 41, Type (0, 1), None
#     Edge 42, Type (0, 1), None
#     Edge 43, Type (0, 1), None
#     Edge 44, Type (0, 1), None
#     Edge 45, Type (0, 1), None
#     Edge 46, Type (0, 1), None
#     Edge 47, Type (0, 1), None
#     Edge 48, Type (0, 1), None
#     Edge 49, Type (0, 1), None
#     Edge 50, Type (0, 1), None
#     Edge 51, Type (0, 1), None
#     Edge 52, Type (0, 1), None
#     Edge 53, Type (0, 1), None
#     Edge 54, Type (0, 1), None
#     Edge 55, Type (0, 1), None
#     Edge 56, Type (0, 1), None
#     Edge 57, Type (0, 1), None
#     Edge 58, Type (0, 1), None
#     Edge 59, Type (0, 1), None
#     Edge 60, Type (0, 1), None
#     Edge 61, Type (0, 1), None
#     Edge 62, Type (0, 1), None
#     Edge 63, Type (0, 1), None
#     Edge 64, Type (0, 1), None
#     Edge 65, Type (0, 1), None
#     Edge 66, Type (0, 1), None
#     Edge 67, Type (0, 1), None
#     Edge 68, Type (0, 1), None
#     Edge 69, Type (0, 1), None
#     Edge 70, Type (0, 1), None
#     Edge 71, Type (0, 1), None
#     Edge 72, Type (0, 1), None
#     Edge 73, Type (0, 1), None
#     Edge 74, Type (0, 1), None
#     Edge 75, Type (0, 1), None
#     Edge 76, Type (0, 1), None
#     Edge 77, Type (0, 1), None
#     Edge 78, Type (0, 1), None
#     Edge 79, Type (0, 1), None
#     Edge 80, Type (0, 1), None
#     Edge 81, Type (0, 1), None
#     Edge 82, Type (0, 1), None
#     Edge 83, Type (0, 1), None
#     Edge 84, Type (0, 1), None
#     Edge 85, Type (0, 1), None
#     Edge 86, Type (0, 1), None
#     Edge 87, Type (0, 1), None
#     Edge 88, Type (0, 1), None
#     Edge 89, Type (0, 1), None
#     Edge 90, Type (0, 1), None
#     Edge 91, Type (0, 1), None
#     Edge 92, Type (0, 1), None
#     Edge 93, Type (0, 1), None
#     Edge 94, Type (0, 1), None
#     Edge 95, Type (0, 1), None
#     Edge 96, Type (0, 1), None
#     Edge 97, Type (0, 1), None
#     Edge 98, Type (0, 1), None
#     Edge 99, Type (0, 1), None
#     Edge 100, Type (0, 1), None
#     Edge 101, Type (0, 1), None
# Relax obj value: 0.149
# Max RMSD: 0.203
# Mean RMSD: 0.173
data_MOF--net-cor--node1-TATPOV_clean_sbu_0--node2-MIDCAF_clean_sbu_0--edge1-none
_symmetry_space_group_name_H-M    P1
_symmetry_Int_Tables_number       1
_symmetry_cell_setting            triclinic
loop_
_symmetry_equiv_pos_as_xyz
'x, y, z'
_cell_length_a     19.180986
_cell_length_b     18.767341
_cell_length_c     37.744819
_cell_angle_alpha  88.839726
_cell_angle_beta   93.158338
_cell_angle_gamma 117.47693
loop_
_atom_site_label
_atom_site_type_symbol
_atom_site_fract_x
_atom_site_fract_y
_atom_site_fract_z
_atom_type_partial_charge
Zn0 Zn 0.68561 0.81089 0.35429 0.0
Zn1 Zn 0.67431 0.95075 0.34949 0.0
O2 O 0.55752 0.86979 0.3527 0.0
O3 O 0.56494 0.75594 0.35472 0.0
O4 O 0.67419 0.05711 0.34419 0.0
O5 O 0.74293 0.83922 0.30667 0.0
O6 O 0.72757 0.94822 0.30486 0.0
C7 C 0.52442 0.79361 0.3545 0.0
C8 C 0.77352 0.92489 0.41094 0.0
O9 O 0.7477 -0.03317 0.39319 0.0
O10 O 0.75364 0.85346 0.40122 0.0
C11 C 0.69524 0.10795 0.36931 0.0
O12 O 0.71485 0.09043 0.40093 0.0
C13 C 0.75322 0.90387 0.29131 0.0
Zn14 Zn 0.82253 0.69983 0.35886 0.0
Zn15 Zn -0.0377 0.70226 0.35922 0.0
O16 O 0.87497 0.58281 0.35477 0.0
O17 O 0.75981 0.58258 0.35229 0.0
O18 O 0.06294 0.68908 0.36682 0.0
O19 O 0.84556 0.75545 0.40629 0.0
O20 O -0.03356 0.77422 0.40016 0.0
C21 C 0.80004 0.54529 0.3513 0.0
C22 C 0.92263 0.79929 0.30445 0.0
O23 O -0.02774 0.77597 0.31649 0.0
O24 O 0.85539 0.7725 0.31694 0.0
C25 C 0.0916 0.67154 0.34075 0.0
O26 O 0.05896 0.6671 0.30882 0.0
C27 C 0.91797 0.79028 0.41565 0.0
Zn28 Zn 0.25506 0.09266 0.3572 0.0
Zn29 Zn 0.26417 0.24508 0.36071 0.0
O30 O 0.37877 0.27155 0.35724 0.0
O31 O 0.37354 0.15157 0.35476 0.0
O32 O 0.26859 0.35495 0.36543 0.0
O33 O 0.20288 0.06476 0.40576 0.0
O34 O 0.21236 0.18624 0.40588 0.0
C35 C 0.41234 0.22743 0.35475 0.0
C36 C 0.17128 0.1291 0.29846 0.0
O37 O 0.19484 0.19491 0.31549 0.0
O38 O 0.1886 0.07524 0.31038 0.0
C39 C 0.26896 0.39627 0.33825 0.0
O40 O 0.26564 0.36727 0.30648 0.0
C41 C 0.19172 0.11825 0.42078 0.0
Zn42 Zn 0.25441 0.13008 0.85238 0.0
Zn43 Zn 0.26571 -0.00977 0.85717 0.0
O44 O 0.3825 0.07118 0.85397 0.0
O45 O 0.37507 0.18504 0.85194 0.0
O46 O 0.26583 0.88387 0.86248 0.0
O47 O 0.19709 0.10176 0.89999 0.0
O48 O 0.21245 -0.00725 0.90181 0.0
C49 C 0.41559 0.14736 0.85217 0.0
C50 C 0.1665 0.01608 0.79573 0.0
O51 O 0.19232 -0.02585 0.81348 0.0
O52 O 0.18638 0.08752 0.80545 0.0
C53 C 0.24478 0.83302 0.83735 0.0
O54 O 0.22517 0.85055 0.80574 0.0
C55 C 0.1868 0.0371 0.91536 0.0
Zn56 Zn 0.11749 0.24114 0.8478 0.0
Zn57 Zn -0.02228 0.23872 0.84745 0.0
O58 O 0.06505 0.35817 0.8519 0.0
O59 O 0.18021 0.3584 0.85437 0.0
O60 O 0.87708 0.25189 0.83985 0.0
O61 O 0.09446 0.18552 0.80038 0.0
O62 O -0.02642 0.16675 0.80651 0.0
C63 C 0.13998 0.39568 0.85537 0.0
C64 C 0.01739 0.14168 0.90222 0.0
O65 O -0.03224 0.165 0.89018 0.0
O66 O 0.08463 0.16847 0.88973 0.0
C67 C 0.84842 0.26943 0.86592 0.0
O68 O 0.88106 0.27387 0.89785 0.0
C69 C 0.02204 0.15069 0.79102 0.0
Zn70 Zn 0.68496 0.84831 0.84946 0.0
Zn71 Zn 0.67585 0.6959 0.84596 0.0
O72 O 0.56125 0.66943 0.84943 0.0
O73 O 0.56648 0.7894 0.85191 0.0
O74 O 0.67143 0.58602 0.84124 0.0
O75 O 0.73714 0.87621 0.8009 0.0
O76 O 0.72766 0.75473 0.80079 0.0
C77 C 0.52768 0.71354 0.85192 0.0
C78 C 0.76874 0.81188 0.90821 0.0
O79 O 0.74518 0.74607 0.89118 0.0
O80 O 0.75142 0.86574 0.89628 0.0
C81 C 0.67106 0.54471 0.86842 0.0
O82 O 0.67438 0.5737 0.90019 0.0
C83 C 0.7483 0.82272 0.78589 0.0
Zn84 Zn 0.35227 0.14422 0.68762 0.0
Zn85 Zn 0.34098 0.28408 0.68283 0.0
O86 O 0.22418 0.20313 0.68603 0.0
O87 O 0.23161 0.08927 0.68805 0.0
O88 O 0.34086 0.39044 0.67752 0.0
O89 O 0.40959 0.17255 0.64 0.0
O90 O 0.39423 0.28155 0.63819 0.0
C91 C 0.19109 0.12694 0.68783 0.0
C92 C 0.44018 0.25823 0.74427 0.0
O93 O 0.41437 0.30016 0.72652 0.0
O94 O 0.4203 0.18679 0.73455 0.0
C95 C 0.3619 0.44128 0.70265 0.0
O96 O 0.38152 0.42376 0.73426 0.0
C97 C 0.41988 0.23721 0.62464 0.0
Zn98 Zn 0.4892 0.03317 0.69219 0.0
Zn99 Zn 0.62896 0.03559 0.69255 0.0
O100 O 0.54164 0.91614 0.6881 0.0
O101 O 0.42647 0.91591 0.68563 0.0
O102 O 0.7296 0.02242 0.70015 0.0
O103 O 0.51223 0.08879 0.73962 0.0
O104 O 0.6331 0.10755 0.73349 0.0
C105 C 0.46671 0.87862 0.68463 0.0
C106 C 0.58929 0.13263 0.63778 0.0
O107 O 0.63893 0.10931 0.64982 0.0
O108 O 0.52206 0.10584 0.65027 0.0
C109 C 0.75827 0.00487 0.67408 0.0
O110 O 0.72562 0.00044 0.64215 0.0
C111 C 0.58464 0.12362 0.74898 0.0
Zn112 Zn 0.92172 0.426 0.69054 0.0
Zn113 Zn 0.93084 0.57841 0.69404 0.0
O114 O 0.04544 0.60488 0.69057 0.0
O115 O 0.0402 0.4849 0.68809 0.0
O116 O 0.93525 0.68829 0.69876 0.0
O117 O 0.86955 0.3981 0.7391 0.0
O118 O 0.87903 0.51958 0.73921 0.0
C119 C 0.07901 0.56077 0.68808 0.0
C120 C 0.83795 0.46243 0.63179 0.0
O121 O 0.8615 0.52824 0.64882 0.0
O122 O 0.85527 0.40857 0.64371 0.0
C123 C 0.93562 0.7296 0.67158 0.0
O124 O 0.9323 0.70061 0.63981 0.0
C125 C 0.85838 0.45159 0.75411 0.0
Zn126 Zn 0.92108 0.46342 0.18571 0.0
Zn127 Zn 0.93238 0.32356 0.19051 0.0
O128 O 0.04917 0.40452 0.1873 0.0
O129 O 0.04174 0.51837 0.18528 0.0
O130 O 0.93249 0.2172 0.19581 0.0
O131 O 0.86376 0.43509 0.23333 0.0
O132 O 0.87912 0.32609 0.23514 0.0
C133 C 0.08226 0.4807 0.1855 0.0
C134 C 0.83317 0.34941 0.12906 0.0
O135 O 0.85898 0.30748 0.14681 0.0
O136 O 0.85305 0.42085 0.13878 0.0
C137 C 0.91145 0.16636 0.17069 0.0
O138 O 0.89184 0.18388 0.13907 0.0
C139 C 0.85347 0.37044 0.24869 0.0
Zn140 Zn 0.78415 0.57448 0.18114 0.0
Zn141 Zn 0.64439 0.57205 0.18078 0.0
O142 O 0.73172 0.6915 0.18523 0.0
O143 O 0.84688 0.69173 0.18771 0.0
O144 O 0.54375 0.58523 0.17318 0.0
O145 O 0.76113 0.51886 0.13371 0.0
O146 O 0.64025 0.50009 0.13984 0.0
C147 C 0.80664 0.72902 0.18871 0.0
C148 C 0.68406 0.47502 0.23555 0.0
O149 O 0.63442 0.49834 0.22351 0.0
O150 O 0.7513 0.5018 0.22306 0.0
C151 C 0.51509 0.60277 0.19925 0.0
O152 O 0.54773 0.60721 0.23119 0.0
C153 C 0.68871 0.48402 0.12436 0.0
Zn154 Zn 0.35163 0.18165 0.1828 0.0
Zn155 Zn 0.34252 0.02923 0.1793 0.0
O156 O 0.22792 0.00276 0.18276 0.0
O157 O 0.23315 0.12274 0.18525 0.0
O158 O 0.3381 0.91935 0.17457 0.0
O159 O 0.40381 0.20955 0.13424 0.0
O160 O 0.39432 0.08807 0.13413 0.0
C161 C 0.19435 0.04687 0.18525 0.0
C162 C 0.43541 0.14521 0.24154 0.0
O163 O 0.41185 0.0794 0.22451 0.0
O164 O 0.41809 0.19907 0.22962 0.0
C165 C 0.33773 0.87804 0.20175 0.0
O166 O 0.34105 0.90703 0.23352 0.0
C167 C 0.41497 0.15606 0.11922 0.0
Zn168 Zn 0.01894 0.47756 1.02095 0.0
Zn169 Zn 0.00764 0.61742 1.01616 0.0
O170 O 0.89085 0.53646 1.01936 0.0
O171 O 0.89828 0.42261 1.02139 0.0
O172 O 0.00753 0.72378 1.01086 0.0
O173 O 0.07626 0.50589 0.97334 0.0
O174 O 0.0609 0.61489 0.97153 0.0
C175 C 0.85776 0.46028 1.02117 0.0
C176 C 0.10685 0.59156 1.0776 0.0
O177 O 0.08104 0.6335 1.05985 0.0
O178 O 0.08697 0.52012 1.06788 0.0
C179 C 0.02857 0.77462 1.03598 0.0
O180 O 0.04818 0.7571 1.06759 0.0
C181 C 0.08655 0.57054 0.95798 0.0
Zn182 Zn 0.15586 0.3665 1.02553 0.0
Zn183 Zn 0.29563 0.36893 1.02588 0.0
O184 O 0.2083 0.24948 1.02143 0.0
O185 O 0.09314 0.24925 1.01896 0.0
O186 O 0.39627 0.35575 1.03348 0.0
O187 O 0.17889 0.42212 1.07296 0.0
O188 O 0.29977 0.44089 1.06683 0.0
C189 C 0.13338 0.21196 1.01796 0.0
C190 C 0.25596 0.46596 0.97111 0.0
O191 O 0.3056 0.44264 0.98316 0.0
O192 O 0.18872 0.43917 0.9836 0.0
C193 C 0.42493 0.33821 1.00742 0.0
O194 O 0.39229 0.33377 0.97548 0.0
C195 C 0.25131 0.45695 1.08231 0.0
Zn196 Zn 0.58839 0.75933 1.02387 0.0
Zn197 Zn 0.5975 0.91175 1.02737 0.0
O198 O 0.7121 0.93821 1.0239 0.0
O199 O 0.70687 0.81824 1.02142 0.0
O200 O 0.60192 0.02162 1.03209 0.0
O201 O 0.53621 0.73143 1.07243 0.0
O202 O 0.5457 0.85291 1.07254 0.0
C203 C 0.74567 0.8941 1.02141 0.0
C204 C 0.50461 0.79577 0.96513 0.0
O205 O 0.52817 0.86158 0.98215 0.0
O206 O 0.52193 0.7419 0.97705 0.0
C207 C 0.60229 0.06294 1.00491 0.0
O208 O 0.59897 0.03394 0.97314 0.0
C209 C 0.52505 0.78492 1.08744 0.0
Zn210 Zn 0.58775 0.79675 0.51905 0.0
Zn211 Zn 0.59904 0.65689 0.52384 0.0
O212 O 0.71584 0.73785 0.52064 0.0
O213 O 0.70841 0.8517 0.51861 0.0
O214 O 0.59916 0.55053 0.52914 0.0
O215 O 0.53043 0.76842 0.56666 0.0
O216 O 0.54579 0.65942 0.56847 0.0
C217 C 0.74893 0.81403 0.51883 0.0
C218 C 0.49984 0.68275 0.4624 0.0
O219 O 0.52565 0.64081 0.48015 0.0
O220 O 0.51971 0.75419 0.47212 0.0
C221 C 0.57811 0.49969 0.50402 0.0
O222 O 0.5585 0.51721 0.47241 0.0
C223 C 0.52014 0.70377 0.58202 0.0
Zn224 Zn 0.45082 0.90781 0.51447 0.0
Zn225 Zn 0.31106 0.90538 0.51412 0.0
O226 O 0.39838 0.02483 0.51857 0.0
O227 O 0.51354 0.02506 0.52104 0.0
O228 O 0.21042 0.91856 0.50652 0.0
O229 O 0.42779 0.85219 0.46704 0.0
O230 O 0.30692 0.83342 0.47317 0.0
C231 C 0.47331 0.06235 0.52204 0.0
C232 C 0.35072 0.80835 0.56889 0.0
O233 O 0.30109 0.83167 0.55684 0.0
O234 O 0.41796 0.83514 0.55639 0.0
C235 C 0.18175 0.9361 0.53258 0.0
O236 O 0.21439 0.94054 0.56452 0.0
C237 C 0.35538 0.81736 0.45769 0.0
Zn238 Zn 0.0183 0.51498 0.51613 0.0
Zn239 Zn 0.00918 0.36256 0.51263 0.0
O240 O 0.89458 0.3361 0.5161 0.0
O241 O 0.89982 0.45607 0.51858 0.0
O242 O 0.00477 0.25269 0.50791 0.0
O243 O 0.07047 0.54288 0.46757 0.0
O244 O 0.06099 0.4214 0.46746 0.0
C245 C 0.86101 0.38021 0.51859 0.0
C246 C 0.10207 0.47854 0.57487 0.0
O247 O 0.07852 0.41273 0.55784 0.0
O248 O 0.08475 0.5324 0.56295 0.0
C249 C 0.00439 0.21137 0.53509 0.0
O250 O 0.00772 0.24037 0.56686 0.0
C251 C 0.08164 0.48939 0.45256 0.0
Zn252 Zn -0.04815 -0.0334 0.15766 0.0
Zn253 Zn -0.03229 0.03312 0.27593 0.0
Zn254 Zn -0.03818 -0.01782 0.22395 0.0
C255 C -0.05214 0.87178 0.2832 0.0
C256 C 0.10734 0.10761 0.27094 0.0
O257 O 0.93243 0.07303 0.2069 0.0
O258 O 0.92063 0.05461 0.14897 0.0
C259 C 0.84863 0.81637 0.18853 0.0
O260 O 0.90827 0.87136 0.25437 0.0
O261 O -0.01306 0.93877 0.29894 0.0
O262 O 0.06277 0.14002 0.27334 0.0
O263 O 0.08135 0.04133 0.25315 0.0
O264 O 0.87098 0.85032 0.15906 0.0
O265 O 0.87668 0.85569 0.2178 0.0
O266 O 0.07937 0.00686 0.2166 0.0
O267 O 0.06818 -0.00307 0.15799 0.0
C268 C 0.10949 0.0108 0.18678 0.0
O269 O 0.84866 0.90536 0.25115 0.0
O270 O 0.85661 0.01826 0.27014 0.0
C271 C 0.91954 0.09329 0.17581 0.0
C272 C 0.81665 0.94304 0.2664 0.0
Zn273 Zn -0.00558 0.0364 0.43486 0.0
Zn274 Zn -0.01514 -0.02196 0.5525 0.0
Zn275 Zn -0.01201 -0.01169 0.48791 0.0
C276 C -0.00062 0.13125 0.53133 0.0
C277 C 0.83495 0.86067 0.52029 0.0
O278 O 0.91138 0.87705 0.45978 0.0
O279 O -0.00236 0.92917 0.41926 0.0
C280 C 0.1346 0.09617 0.4488 0.0
O281 O -0.01148 0.09877 0.50085 0.0
O282 O 0.005 0.09392 0.55879 0.0
O283 O 0.86967 0.89217 0.54967 0.0
O284 O 0.87158 0.88416 0.49127 0.0
O285 O 0.0954 0.13483 0.44829 0.0
O286 O 0.10369 0.02585 0.46293 0.0
O287 O 0.86853 0.92859 0.45652 0.0
O288 O 0.89045 0.03868 0.42746 0.0
C289 C 0.84318 -0.03277 0.43522 0.0
O290 O 0.0909 -0.03143 0.49759 0.0
O291 O 0.07628 0.95003 0.55518 0.0
C292 C -0.05132 0.8666 0.43461 0.0
C293 C 0.11264 0.95125 0.52791 0.0
Zn294 Zn -0.01183 -0.02563 1.049 0.0
Zn295 Zn -0.02769 0.90785 0.93074 0.0
Zn296 Zn -0.0218 -0.04121 0.98271 0.0
C297 C -0.00784 0.06919 0.92346 0.0
C298 C 0.83268 0.83337 0.93573 0.0
O299 O 0.00759 0.86795 0.99977 0.0
O300 O 0.01938 0.88637 1.05769 0.0
C301 C 0.09139 0.12461 1.01813 0.0
O302 O 0.03175 0.06962 0.9523 0.0
O303 O -0.04692 0.0022 0.90773 0.0
O304 O 0.87725 0.80096 0.93333 0.0
O305 O 0.85867 0.89965 0.95351 0.0
O306 O 0.06904 0.09066 1.04761 0.0
O307 O 0.06334 0.08529 0.98887 0.0
O308 O 0.86065 0.93411 0.99007 0.0
O309 O 0.87184 0.94404 1.04868 0.0
C310 C 0.83053 0.93017 1.01989 0.0
O311 O 0.09136 0.03561 0.95552 0.0
O312 O 0.08341 0.92272 0.93653 0.0
C313 C 0.02048 0.84769 1.03085 0.0
C314 C 0.12337 -0.00207 0.94027 0.0
Zn315 Zn 0.9456 0.90458 0.77181 0.0
Zn316 Zn -0.04484 -0.03706 0.65417 0.0
Zn317 Zn -0.04797 0.95266 0.71876 0.0
C318 C 0.94064 0.80973 0.67534 0.0
C319 C 0.10507 0.08031 0.68638 0.0
O320 O 0.02864 0.06393 0.74688 0.0
O321 O 0.94238 0.01181 0.78741 0.0
C322 C 0.80542 0.84481 0.75787 0.0
O323 O -0.0485 0.84221 0.70581 0.0
O324 O 0.93502 0.84705 0.64788 0.0
O325 O 0.07035 0.04881 0.65699 0.0
O326 O 0.06844 0.05682 0.71539 0.0
O327 O 0.84462 0.80614 0.75838 0.0
O328 O 0.83633 0.91513 0.74374 0.0
O329 O 0.07149 0.01238 0.75014 0.0
O330 O 0.04957 0.9023 0.7792 0.0
C331 C 0.09684 -0.02625 0.77145 0.0
O332 O 0.84912 -0.0276 0.70908 0.0
O333 O 0.86374 -0.00905 0.65149 0.0
C334 C -0.00866 0.07438 0.77205 0.0
C335 C 0.82738 -0.01028 0.67876 0.0
Zn336 Zn 0.63438 0.36645 0.60926 0.0
Zn337 Zn 0.61852 0.29994 0.49099 0.0
Zn338 Zn 0.62849 0.31552 0.55729 0.0
C339 C 0.77616 0.34413 0.52011 0.0
C340 C 0.5153 0.1497 0.52186 0.0
O341 O 0.51533 0.23869 0.58448 0.0
O342 O 0.52328 0.35159 0.60347 0.0
C343 C 0.77401 0.44094 0.60427 0.0
O344 O 0.74603 0.3402 0.54993 0.0
O345 O 0.73485 0.33027 0.49132 0.0
O346 O 0.53764 0.18365 0.49239 0.0
O347 O 0.54334 0.18902 0.55113 0.0
O348 O 0.72944 0.47335 0.60667 0.0
O349 O 0.74802 0.37466 0.58649 0.0
O350 O 0.57494 0.20469 0.5877 0.0
O351 O 0.6536 0.27211 0.63227 0.0
C352 C 0.61452 0.20512 0.61654 0.0
O353 O 0.59909 0.40636 0.54023 0.0
O354 O 0.5873 0.38794 0.48231 0.0
C355 C 0.48332 0.27638 0.59973 0.0
C356 C 0.58621 0.42662 0.50915 0.0
Zn357 Zn 0.65153 0.31137 0.88583 0.0
Zn358 Zn 0.66108 0.36973 0.76819 0.0
Zn359 Zn 0.65465 0.32165 0.82124 0.0
C360 C 0.50984 0.30056 0.76855 0.0
C361 C 0.80127 0.4295 0.78213 0.0
O362 O 0.75757 0.3019 0.83092 0.0
O363 O 0.74295 0.28336 0.88851 0.0
C364 C 0.50162 0.194 0.85362 0.0
O365 O 0.5352 0.26192 0.78986 0.0
O366 O 0.55711 0.37201 0.76079 0.0
O367 O 0.76206 0.46816 0.78162 0.0
O368 O 0.77035 0.35918 0.79626 0.0
O369 O 0.53633 0.2255 0.883 0.0
O370 O 0.53825 0.21749 0.8246 0.0
O371 O 0.65519 0.4321 0.83419 0.0
O372 O 0.67166 0.42725 0.89212 0.0
C373 C 0.66604 0.46458 0.86466 0.0
O374 O 0.57805 0.21038 0.79311 0.0
O375 O 0.66431 0.2625 0.75259 0.0
C376 C 0.7793 0.28459 0.86124 0.0
C377 C 0.61535 0.19993 0.76794 0.0
Zn378 Zn 0.65484 0.30771 0.38234 0.0
Zn379 Zn 0.63897 0.24119 0.26407 0.0
Zn380 Zn 0.64487 0.29213 0.31605 0.0
C381 C 0.65883 0.40252 0.2568 0.0
C382 C 0.49935 0.1667 0.26907 0.0
O383 O 0.67426 0.20128 0.3331 0.0
O384 O 0.68605 0.2197 0.39103 0.0
C385 C 0.75805 0.45794 0.35147 0.0
O386 O 0.69841 0.40295 0.28563 0.0
O387 O 0.61975 0.33554 0.24106 0.0
O388 O 0.54392 0.13429 0.26666 0.0
O389 O 0.52534 0.23298 0.28685 0.0
O390 O 0.73571 0.42399 0.38094 0.0
O391 O 0.73001 0.41862 0.3222 0.0
O392 O 0.52732 0.26744 0.3234 0.0
O393 O 0.53851 0.27737 0.38202 0.0
C394 C 0.4972 0.26351 0.35322 0.0
O395 O 0.75803 0.36895 0.28885 0.0
O396 O 0.75007 0.25605 0.26987 0.0
C397 C 0.68715 0.18102 0.36419 0.0
C398 C 0.79004 0.33127 0.2736 0.0
Zn399 Zn 0.61227 0.23791 0.10514 0.0
Zn400 Zn 0.62183 0.29627 0.98751 0.0
Zn401 Zn 0.6187 0.286 1.05209 0.0
C402 C 0.60731 0.14306 1.00867 0.0
C403 C 0.77173 0.41364 1.01971 0.0
O404 O 0.69531 0.39726 1.08022 0.0
O405 O 0.60905 0.34514 0.12074 0.0
C406 C 0.47208 0.17814 1.0912 0.0
O407 O 0.61817 0.17554 1.03915 0.0
O408 O 0.60169 0.18039 0.98121 0.0
O409 O 0.73702 0.38214 0.99033 0.0
O410 O 0.73511 0.39015 1.04873 0.0
O411 O 0.51129 0.13948 1.09171 0.0
O412 O 0.503 0.24846 1.07707 0.0
O413 O 0.73816 0.34572 1.08348 0.0
O414 O 0.71624 0.23563 0.11254 0.0
C415 C 0.76351 0.30708 0.10478 0.0
O416 O 0.51578 0.30574 1.04241 0.0
O417 O 0.53041 0.32428 0.98482 0.0
C418 C 0.658 0.40771 0.10539 0.0
C419 C 0.49405 0.32306 1.01209 0.0
Zn420 Zn 0.30105 0.69979 0.9426 0.0
Zn421 Zn 0.28518 0.63327 0.82433 0.0
Zn422 Zn 0.29515 0.64885 0.89062 0.0
C423 C 0.44282 0.67747 0.85344 0.0
C424 C 0.18197 0.48304 0.8552 0.0
O425 O 0.18199 0.57203 0.91782 0.0
O426 O 0.18995 0.68493 0.9368 0.0
C427 C 0.44067 0.77427 0.9376 0.0
O428 O 0.4127 0.67353 0.88326 0.0
O429 O 0.40151 0.6636 0.82465 0.0
O430 O 0.20431 0.51699 0.82572 0.0
O431 O 0.21001 0.52235 0.88446 0.0
O432 O 0.3961 0.80668 0.94 0.0
O433 O 0.41468 0.708 0.91982 0.0
O434 O 0.2416 0.53803 0.92103 0.0
O435 O 0.32027 0.60544 0.9656 0.0
C436 C 0.28119 0.53845 0.94987 0.0
O437 O 0.26576 0.7397 0.87357 0.0
O438 O 0.25397 0.72128 0.81564 0.0
C439 C 0.14998 0.60971 0.93306 0.0
C440 C 0.25287 0.75995 0.84248 0.0
Zn441 Zn 0.31819 0.6447 0.21916 0.0
Zn442 Zn 0.32775 0.70307 1.10153 0.0
Zn443 Zn 0.32132 0.65498 0.15458 0.0
C444 C 0.17651 0.6339 1.10188 0.0
C445 C 0.46794 0.76283 0.11547 0.0
O446 O 0.42424 0.63524 0.16425 0.0
O447 O 0.40961 0.6167 0.22184 0.0
C448 C 0.16829 0.52734 0.18695 0.0
O449 O 0.20186 0.59526 0.12319 0.0
O450 O 0.22378 0.70534 1.09413 0.0
O451 O 0.42873 0.8015 0.11495 0.0
O452 O 0.43702 0.69252 0.12959 0.0
O453 O 0.203 0.55883 0.21634 0.0
O454 O 0.20491 0.55082 0.15794 0.0
O455 O 0.32185 0.76544 0.16752 0.0
O456 O 0.33833 0.76059 0.22546 0.0
C457 C 0.33271 0.79792 0.19799 0.0
O458 O 0.24471 0.54372 0.12645 0.0
O459 O 0.33097 0.59584 1.08593 0.0
C460 C 0.44597 0.61792 0.19457 0.0
C461 C 0.28202 0.53327 1.10128 0.0
Zn462 Zn 0.3215 0.64104 0.71567 0.0
Zn463 Zn 0.30564 0.57452 0.5974 0.0
Zn464 Zn 0.31153 0.62546 0.64938 0.0
C465 C 0.3255 0.73586 0.59013 0.0
C466 C 0.16601 0.50003 0.6024 0.0
O467 O 0.34093 0.53461 0.66643 0.0
O468 O 0.35272 0.55303 0.72436 0.0
C469 C 0.42472 0.79127 0.6848 0.0
O470 O 0.36508 0.73628 0.61896 0.0
O471 O 0.28642 0.66887 0.5744 0.0
O472 O 0.21058 0.46762 0.6 0.0
O473 O 0.192 0.56631 0.62018 0.0
O474 O 0.40237 0.75732 0.71428 0.0
O475 O 0.39668 0.75195 0.65554 0.0
O476 O 0.19398 0.60078 0.65674 0.0
O477 O 0.20517 0.61071 0.71535 0.0
C478 C 0.16386 0.59684 0.68656 0.0
O479 O 0.42469 0.70228 0.62218 0.0
O480 O 0.41674 0.58938 0.6032 0.0
C481 C 0.35381 0.51435 0.69752 0.0
C482 C 0.4567 0.6646 0.60694 0.0
Zn483 Zn 0.28849 0.6296 0.32084 0.0
Zn484 Zn 0.27894 0.57124 0.43847 0.0
Zn485 Zn 0.28537 0.61933 0.38542 0.0
C486 C 0.43018 0.64041 0.43812 0.0
C487 C 0.13875 0.51147 0.42453 0.0
O488 O 0.18245 0.63907 0.37575 0.0
O489 O 0.19707 0.65761 0.31816 0.0
C490 C 0.4384 0.74697 0.35305 0.0
O491 O 0.40482 0.67905 0.41681 0.0
O492 O 0.3829 0.56897 0.44587 0.0
O493 O 0.17796 0.47281 0.42505 0.0
O494 O 0.16967 0.58179 0.41041 0.0
O495 O 0.40369 0.71547 0.32366 0.0
O496 O 0.40177 0.72348 0.38206 0.0
O497 O 0.28483 0.50887 0.37248 0.0
O498 O 0.26836 0.51372 0.31454 0.0
C499 C 0.27398 0.47639 0.34201 0.0
O500 O 0.36197 0.73059 0.41355 0.0
O501 O 0.27571 0.67847 0.45407 0.0
C502 C 0.16072 0.65639 0.34543 0.0
C503 C 0.32467 0.74104 0.43872 0.0
loop_
_geom_bond_atom_site_label_1
_geom_bond_atom_site_label_2
_geom_bond_distance
_geom_bond_site_symmetry_2
_ccdc_geom_bond_type
Zn0 O3 2.031 . S
Zn0 O5 2.049 . S
Zn0 O10 2.067 . S
Zn1 O2 1.962 1_545 S
Zn1 O4 1.986 . S
Zn1 O6 1.996 1_545 S
Zn1 O9 1.943 . S
O2 Zn1 1.962 1_565 S
O2 C7 1.254 . S
O3 Zn0 2.031 . S
O3 C7 1.269 . S
O4 Zn1 1.986 . S
O4 C11 1.262 . S
O5 Zn0 2.049 . S
O5 C13 1.260 . S
O6 Zn1 1.996 1_565 S
O6 C13 1.257 . S
C7 O2 1.254 . S
C7 O3 1.269 . S
C8 O9 1.249 . S
C8 O10 1.270 1_545 S
O9 Zn1 1.943 . S
O9 C8 1.249 . S
O10 Zn0 2.067 . S
O10 C8 1.270 1_565 S
C11 O4 1.262 . S
C11 O12 1.232 . S
O12 C11 1.232 . S
C13 O5 1.260 . S
C13 O6 1.257 . S
Zn14 O17 2.031 . S
Zn14 O19 2.049 . S
Zn14 O24 2.067 . S
Zn15 O16 1.962 1_455 S
Zn15 O18 1.986 . S
Zn15 O20 1.996 1_455 S
Zn15 O23 1.943 . S
O16 Zn15 1.962 1_655 S
O16 C21 1.254 . S
O17 Zn14 2.031 . S
O17 C21 1.269 . S
O18 Zn15 1.986 . S
O18 C25 1.262 . S
O19 Zn14 2.049 . S
O19 C27 1.260 . S
O20 Zn15 1.996 1_655 S
O20 C27 1.257 . S
C21 O16 1.254 . S
C21 O17 1.269 . S
C22 O23 1.249 . S
C22 O24 1.270 1_455 S
O23 Zn15 1.943 . S
O23 C22 1.249 . S
O24 Zn14 2.067 . S
O24 C22 1.270 1_655 S
C25 O18 1.262 . S
C25 O26 1.232 . S
O26 C25 1.232 . S
C27 O19 1.260 . S
C27 O20 1.257 . S
Zn28 O31 2.031 . S
Zn28 O33 2.049 . S
Zn28 O38 2.067 . S
Zn29 O30 1.962 . S
Zn29 O32 1.986 . S
Zn29 O34 1.996 . S
Zn29 O37 1.943 . S
O30 Zn29 1.962 . S
O30 C35 1.254 . S
O31 Zn28 2.031 . S
O31 C35 1.269 . S
O32 Zn29 1.986 . S
O32 C39 1.262 . S
O33 Zn28 2.049 . S
O33 C41 1.260 . S
O34 Zn29 1.996 . S
O34 C41 1.257 . S
C35 O30 1.254 . S
C35 O31 1.269 . S
C36 O37 1.249 . S
C36 O38 1.270 . S
O37 Zn29 1.943 . S
O37 C36 1.249 . S
O38 Zn28 2.067 . S
O38 C36 1.270 . S
C39 O32 1.262 . S
C39 O40 1.232 . S
O40 C39 1.232 . S
C41 O33 1.260 . S
C41 O34 1.257 . S
Zn42 O45 2.031 . S
Zn42 O47 2.049 . S
Zn42 O52 2.067 . S
Zn43 O44 1.962 . S
Zn43 O46 1.986 1_545 S
Zn43 O48 1.996 . S
Zn43 O51 1.943 1_545 S
O44 Zn43 1.962 . S
O44 C49 1.254 . S
O45 Zn42 2.031 . S
O45 C49 1.269 . S
O46 Zn43 1.986 1_565 S
O46 C53 1.262 . S
O47 Zn42 2.049 . S
O47 C55 1.260 . S
O48 Zn43 1.996 . S
O48 C55 1.257 . S
C49 O44 1.254 . S
C49 O45 1.269 . S
C50 O51 1.242 1_545 S
C50 O52 1.278 . S
O51 Zn43 1.943 1_565 S
O51 C50 1.242 1_565 S
O52 Zn42 2.067 . S
O52 C50 1.278 . S
C53 O46 1.262 . S
C53 O54 1.232 . S
O54 C53 1.232 . S
C55 O47 1.260 . S
C55 O48 1.257 . S
Zn56 O59 2.031 . S
Zn56 O61 2.049 . S
Zn56 O66 2.067 . S
Zn57 O58 1.962 . S
Zn57 O60 1.986 1_455 S
Zn57 O62 1.996 . S
Zn57 O65 1.943 1_455 S
O58 Zn57 1.962 . S
O58 C63 1.254 . S
O59 Zn56 2.031 . S
O59 C63 1.269 . S
O60 Zn57 1.986 1_655 S
O60 C67 1.262 . S
O61 Zn56 2.049 . S
O61 C69 1.260 . S
O62 Zn57 1.996 . S
O62 C69 1.257 . S
C63 O58 1.254 . S
C63 O59 1.269 . S
C64 O65 1.249 1_455 S
C64 O66 1.270 . S
O65 Zn57 1.943 1_655 S
O65 C64 1.249 1_655 S
O66 Zn56 2.067 . S
O66 C64 1.270 . S
C67 O60 1.262 . S
C67 O68 1.232 . S
O68 C67 1.232 . S
C69 O61 1.260 . S
C69 O62 1.257 . S
Zn70 O73 2.031 . S
Zn70 O75 2.049 . S
Zn70 O80 2.067 . S
Zn71 O72 1.962 . S
Zn71 O74 1.986 . S
Zn71 O76 1.996 . S
Zn71 O79 1.943 . S
O72 Zn71 1.962 . S
O72 C77 1.254 . S
O73 Zn70 2.031 . S
O73 C77 1.269 . S
O74 Zn71 1.986 . S
O74 C81 1.262 . S
O75 Zn70 2.049 . S
O75 C83 1.260 . S
O76 Zn71 1.996 . S
O76 C83 1.257 . S
C77 O72 1.254 . S
C77 O73 1.269 . S
C78 O79 1.249 . S
C78 O80 1.270 . S
O79 Zn71 1.943 . S
O79 C78 1.249 . S
O80 Zn70 2.067 . S
O80 C78 1.270 . S
C81 O74 1.262 . S
C81 O82 1.232 . S
O82 C81 1.232 . S
C83 O75 1.260 . S
C83 O76 1.257 . S
Zn84 O87 2.031 . S
Zn84 O89 2.049 . S
Zn84 O94 2.067 . S
Zn85 O86 1.962 . S
Zn85 O88 1.986 . S
Zn85 O90 1.996 . S
Zn85 O93 1.943 . S
O86 Zn85 1.962 . S
O86 C91 1.254 . S
O87 Zn84 2.031 . S
O87 C91 1.269 . S
O88 Zn85 1.986 . S
O88 C95 1.262 . S
O89 Zn84 2.049 . S
O89 C97 1.260 . S
O90 Zn85 1.996 . S
O90 C97 1.257 . S
C91 O86 1.254 . S
C91 O87 1.269 . S
C92 O93 1.249 . S
C92 O94 1.270 . S
O93 Zn85 1.943 . S
O93 C92 1.249 . S
O94 Zn84 2.067 . S
O94 C92 1.270 . S
C95 O88 1.262 . S
C95 O96 1.232 . S
O96 C95 1.232 . S
C97 O89 1.260 . S
C97 O90 1.257 . S
Zn98 O101 2.031 1_545 S
Zn98 O103 2.049 . S
Zn98 O108 2.067 . S
Zn99 O100 1.962 1_545 S
Zn99 O102 1.986 . S
Zn99 O104 1.996 . S
Zn99 O107 1.943 . S
O100 Zn99 1.962 1_565 S
O100 C105 1.254 . S
O101 Zn98 2.031 1_565 S
O101 C105 1.269 . S
O102 Zn99 1.986 . S
O102 C109 1.262 . S
O103 Zn98 2.049 . S
O103 C111 1.260 . S
O104 Zn99 1.996 . S
O104 C111 1.257 . S
C105 O100 1.254 . S
C105 O101 1.269 . S
C106 O107 1.249 . S
C106 O108 1.270 . S
O107 Zn99 1.943 . S
O107 C106 1.249 . S
O108 Zn98 2.067 . S
O108 C106 1.270 . S
C109 O102 1.262 . S
C109 O110 1.232 . S
O110 C109 1.232 . S
C111 O103 1.260 . S
C111 O104 1.257 . S
Zn112 O115 2.031 1_655 S
Zn112 O117 2.049 . S
Zn112 O122 2.067 . S
Zn113 O114 1.962 1_655 S
Zn113 O116 1.986 . S
Zn113 O118 1.996 . S
Zn113 O121 1.943 . S
O114 Zn113 1.962 1_455 S
O114 C119 1.254 . S
O115 Zn112 2.031 1_455 S
O115 C119 1.269 . S
O116 Zn113 1.986 . S
O116 C123 1.262 1_655 S
O117 Zn112 2.049 . S
O117 C125 1.260 . S
O118 Zn113 1.996 . S
O118 C125 1.257 . S
C119 O114 1.254 . S
C119 O115 1.269 . S
C120 O121 1.249 . S
C120 O122 1.270 . S
O121 Zn113 1.943 . S
O121 C120 1.249 . S
O122 Zn112 2.067 . S
O122 C120 1.270 . S
C123 O116 1.262 1_455 S
C123 O124 1.232 . S
O124 C123 1.232 . S
C125 O117 1.260 . S
C125 O118 1.257 . S
Zn126 O129 2.031 1_655 S
Zn126 O131 2.049 . S
Zn126 O136 2.067 . S
Zn127 O128 1.962 1_655 S
Zn127 O130 1.986 . S
Zn127 O132 1.996 . S
Zn127 O135 1.943 . S
O128 Zn127 1.962 1_455 S
O128 C133 1.254 . S
O129 Zn126 2.031 1_455 S
O129 C133 1.269 . S
O130 Zn127 1.986 . S
O130 C137 1.262 . S
O131 Zn126 2.049 . S
O131 C139 1.260 . S
O132 Zn127 1.996 . S
O132 C139 1.257 . S
C133 O128 1.254 . S
C133 O129 1.269 . S
C134 O135 1.249 . S
C134 O136 1.270 . S
O135 Zn127 1.943 . S
O135 C134 1.249 . S
O136 Zn126 2.067 . S
O136 C134 1.270 . S
C137 O130 1.262 . S
C137 O138 1.232 1_655 S
O138 C137 1.232 1_455 S
C139 O131 1.260 . S
C139 O132 1.257 . S
Zn140 O143 2.031 . S
Zn140 O145 2.049 . S
Zn140 O150 2.067 . S
Zn141 O142 1.962 . S
Zn141 O144 1.986 . S
Zn141 O146 1.996 . S
Zn141 O149 1.943 . S
O142 Zn141 1.962 . S
O142 C147 1.254 . S
O143 Zn140 2.031 . S
O143 C147 1.269 . S
O144 Zn141 1.986 . S
O144 C151 1.262 . S
O145 Zn140 2.049 . S
O145 C153 1.260 . S
O146 Zn141 1.996 . S
O146 C153 1.257 . S
C147 O142 1.254 . S
C147 O143 1.269 . S
C148 O149 1.249 . S
C148 O150 1.270 . S
O149 Zn141 1.943 . S
O149 C148 1.249 . S
O150 Zn140 2.067 . S
O150 C148 1.270 . S
C151 O144 1.262 . S
C151 O152 1.232 . S
O152 C151 1.232 . S
C153 O145 1.260 . S
C153 O146 1.257 . S
Zn154 O157 2.031 . S
Zn154 O159 2.049 . S
Zn154 O164 2.067 . S
Zn155 O156 1.962 . S
Zn155 O158 1.986 1_545 S
Zn155 O160 1.996 . S
Zn155 O163 1.943 . S
O156 Zn155 1.962 . S
O156 C161 1.254 . S
O157 Zn154 2.031 . S
O157 C161 1.269 . S
O158 Zn155 1.986 1_565 S
O158 C165 1.262 . S
O159 Zn154 2.049 . S
O159 C167 1.260 . S
O160 Zn155 1.996 . S
O160 C167 1.257 . S
C161 O156 1.254 . S
C161 O157 1.269 . S
C162 O163 1.249 . S
C162 O164 1.270 . S
O163 Zn155 1.943 . S
O163 C162 1.249 . S
O164 Zn154 2.067 . S
O164 C162 1.270 . S
C165 O158 1.262 . S
C165 O166 1.232 . S
O166 C165 1.232 . S
C167 O159 1.260 . S
C167 O160 1.257 . S
Zn168 O171 2.020 1_455 S
Zn168 O173 2.049 . S
Zn168 O178 2.067 . S
Zn169 O170 1.962 1_455 S
Zn169 O172 1.986 . S
Zn169 O174 1.996 . S
Zn169 O177 1.943 . S
O170 Zn169 1.962 1_655 S
O170 C175 1.254 . S
O171 Zn168 2.020 1_655 S
O171 C175 1.281 . S
O172 Zn169 1.986 . S
O172 C179 1.262 . S
O173 Zn168 2.049 . S
O173 C181 1.260 . S
O174 Zn169 1.996 . S
O174 C181 1.257 . S
C175 O170 1.254 . S
C175 O171 1.281 . S
C176 O177 1.249 . S
C176 O178 1.270 . S
O177 Zn169 1.943 . S
O177 C176 1.249 . S
O178 Zn168 2.067 . S
O178 C176 1.270 . S
C179 O172 1.262 . S
C179 O180 1.232 . S
O180 C179 1.232 . S
C181 O173 1.260 . S
C181 O174 1.257 . S
Zn182 O185 2.031 . S
Zn182 O187 2.049 . S
Zn182 O192 2.067 . S
Zn183 O184 1.962 . S
Zn183 O186 1.986 . S
Zn183 O188 1.996 . S
Zn183 O191 1.943 . S
O184 Zn183 1.962 . S
O184 C189 1.254 . S
O185 Zn182 2.031 . S
O185 C189 1.269 . S
O186 Zn183 1.986 . S
O186 C193 1.262 . S
O187 Zn182 2.049 . S
O187 C195 1.260 . S
O188 Zn183 1.996 . S
O188 C195 1.257 . S
C189 O184 1.254 . S
C189 O185 1.269 . S
C190 O191 1.249 . S
C190 O192 1.270 . S
O191 Zn183 1.943 . S
O191 C190 1.249 . S
O192 Zn182 2.067 . S
O192 C190 1.270 . S
C193 O186 1.262 . S
C193 O194 1.232 . S
O194 C193 1.232 . S
C195 O187 1.260 . S
C195 O188 1.257 . S
Zn196 O199 2.031 . S
Zn196 O201 2.049 . S
Zn196 O206 2.067 . S
Zn197 O198 1.962 1_565 S
Zn197 O200 1.986 1_565 S
Zn197 O202 1.996 . S
Zn197 O205 1.943 . S
O198 Zn197 1.962 1_545 S
O198 C203 1.254 1_545 S
O199 Zn196 2.031 . S
O199 C203 1.269 . S
O200 Zn197 1.986 1_545 S
O200 C207 1.262 . S
O201 Zn196 2.049 . S
O201 C209 1.260 . S
O202 Zn197 1.996 . S
O202 C209 1.257 . S
C203 O198 1.254 1_565 S
C203 O199 1.269 . S
C204 O205 1.249 . S
C204 O206 1.270 . S
O205 Zn197 1.943 . S
O205 C204 1.249 . S
O206 Zn196 2.067 . S
O206 C204 1.270 . S
C207 O200 1.262 . S
C207 O208 1.232 . S
O208 C207 1.232 . S
C209 O201 1.260 . S
C209 O202 1.257 . S
Zn210 O213 2.031 . S
Zn210 O215 2.049 . S
Zn210 O220 2.067 . S
Zn211 O212 1.962 . S
Zn211 O214 1.986 . S
Zn211 O216 1.996 . S
Zn211 O219 1.943 . S
O212 Zn211 1.962 . S
O212 C217 1.254 . S
O213 Zn210 2.031 . S
O213 C217 1.269 . S
O214 Zn211 1.986 . S
O214 C221 1.262 . S
O215 Zn210 2.049 . S
O215 C223 1.260 . S
O216 Zn211 1.996 . S
O216 C223 1.257 . S
C217 O212 1.254 . S
C217 O213 1.269 . S
C218 O219 1.249 . S
C218 O220 1.270 . S
O219 Zn211 1.943 . S
O219 C218 1.249 . S
O220 Zn210 2.067 . S
O220 C218 1.270 . S
C221 O214 1.262 . S
C221 O222 1.232 . S
O222 C221 1.232 . S
C223 O215 1.260 . S
C223 O216 1.257 . S
Zn224 O227 2.031 1_565 S
Zn224 O229 2.049 . S
Zn224 O234 2.067 . S
Zn225 O226 1.962 1_565 S
Zn225 O228 1.986 . S
Zn225 O230 1.996 . S
Zn225 O233 1.943 . S
O226 Zn225 1.962 1_545 S
O226 C231 1.254 . S
O227 Zn224 2.031 1_545 S
O227 C231 1.269 . S
O228 Zn225 1.986 . S
O228 C235 1.262 . S
O229 Zn224 2.049 . S
O229 C237 1.260 . S
O230 Zn225 1.996 . S
O230 C237 1.257 . S
C231 O226 1.254 . S
C231 O227 1.269 . S
C232 O233 1.249 . S
C232 O234 1.270 . S
O233 Zn225 1.943 . S
O233 C232 1.249 . S
O234 Zn224 2.067 . S
O234 C232 1.270 . S
C235 O228 1.262 . S
C235 O236 1.232 1_565 S
O236 C235 1.232 1_545 S
C237 O229 1.260 . S
C237 O230 1.257 . S
Zn238 O241 2.031 1_455 S
Zn238 O243 2.049 . S
Zn238 O248 2.067 . S
Zn239 O240 1.962 1_455 S
Zn239 O242 1.986 . S
Zn239 O244 1.996 . S
Zn239 O247 1.943 . S
O240 Zn239 1.962 1_655 S
O240 C245 1.254 . S
O241 Zn238 2.031 1_655 S
O241 C245 1.269 . S
O242 Zn239 1.986 . S
O242 C249 1.262 . S
O243 Zn238 2.049 . S
O243 C251 1.260 . S
O244 Zn239 1.996 . S
O244 C251 1.257 . S
C245 O240 1.254 . S
C245 O241 1.269 . S
C246 O247 1.249 . S
C246 O248 1.270 . S
O247 Zn239 1.943 . S
O247 C246 1.249 . S
O248 Zn238 2.067 . S
O248 C246 1.270 . S
C249 O242 1.262 . S
C249 O250 1.232 . S
O250 C249 1.232 . S
C251 O243 1.260 . S
C251 O244 1.257 . S
Zn252 O258 1.920 1_455 S
Zn252 O264 1.898 1_445 S
Zn252 O267 1.905 . S
Zn253 O261 1.908 1_445 S
Zn253 O262 1.898 . S
Zn253 O270 1.920 1_455 S
Zn254 O257 2.080 . S
Zn254 O260 2.114 1_545 S
Zn254 O263 2.120 . S
Zn254 O265 2.120 1_445 S
Zn254 O266 2.114 . S
Zn254 O269 2.080 1_445 S
C255 O260 1.166 . S
C255 O261 1.178 1_455 S
C256 O262 1.167 . S
C256 O263 1.299 . S
O257 Zn254 2.080 . S
O257 C271 1.305 1_455 S
O258 Zn252 1.920 1_655 S
O258 C271 1.234 . S
C259 O264 1.167 . S
C259 O265 1.299 . S
O260 Zn254 2.114 1_565 S
O260 C255 1.166 . S
O261 Zn253 1.908 1_665 S
O261 C255 1.178 1_655 S
O262 Zn253 1.898 . S
O262 C256 1.167 . S
O263 Zn254 2.120 . S
O263 C256 1.299 . S
O264 Zn252 1.898 1_665 S
O264 C259 1.167 . S
O265 Zn254 2.120 1_665 S
O265 C259 1.299 . S
O266 Zn254 2.114 . S
O266 C268 1.166 . S
O267 Zn252 1.905 . S
O267 C268 1.182 . S
C268 O266 1.166 . S
C268 O267 1.182 . S
O269 Zn254 2.080 1_665 S
O269 C272 1.305 1_565 S
O270 Zn253 1.920 1_655 S
O270 C272 1.234 . S
C271 O257 1.305 1_655 S
C271 O258 1.234 . S
C272 O269 1.305 1_545 S
C272 O270 1.234 . S
Zn273 O279 1.920 1_545 S
Zn273 O285 1.898 . S
Zn273 O288 1.905 1_445 S
Zn274 O282 1.905 . S
Zn274 O283 1.898 1_445 S
Zn274 O291 1.920 1_545 S
Zn275 O278 2.080 1_445 S
Zn275 O281 2.114 . S
Zn275 O284 2.120 1_445 S
Zn275 O286 2.120 . S
Zn275 O287 2.114 1_455 S
Zn275 O290 2.080 . S
C276 O281 1.166 . S
C276 O282 1.182 . S
C277 O283 1.167 . S
C277 O284 1.299 . S
O278 Zn275 2.080 1_665 S
O278 C292 1.305 1_655 S
O279 Zn273 1.920 1_565 S
O279 C292 1.234 . S
C280 O285 1.167 . S
C280 O286 1.299 . S
O281 Zn275 2.114 . S
O281 C276 1.166 . S
O282 Zn274 1.905 . S
O282 C276 1.182 . S
O283 Zn274 1.898 1_665 S
O283 C277 1.167 . S
O284 Zn275 2.120 1_665 S
O284 C277 1.299 . S
O285 Zn273 1.898 . S
O285 C280 1.167 . S
O286 Zn275 2.120 . S
O286 C280 1.299 . S
O287 Zn275 2.114 1_655 S
O287 C289 1.166 1_545 S
O288 Zn273 1.905 1_665 S
O288 C289 1.182 . S
C289 O287 1.166 1_565 S
C289 O288 1.182 . S
O290 Zn275 2.080 . S
O290 C293 1.305 1_545 S
O291 Zn274 1.920 1_565 S
O291 C293 1.234 . S
C292 O278 1.305 1_455 S
C292 O279 1.234 . S
C293 O290 1.305 1_565 S
C293 O291 1.234 . S
Zn294 O300 1.920 1_545 S
Zn294 O306 1.898 . S
Zn294 O309 1.905 1_445 S
Zn295 O303 1.905 . S
Zn295 O304 1.898 1_445 S
Zn295 O312 1.920 1_545 S
Zn296 O299 2.080 1_545 S
Zn296 O302 2.114 . S
Zn296 O305 2.120 1_445 S
Zn296 O307 2.120 . S
Zn296 O308 2.114 1_455 S
Zn296 O311 2.080 . S
C297 O302 1.166 . S
C297 O303 1.182 . S
C298 O304 1.167 . S
C298 O305 1.299 . S
O299 Zn296 2.080 1_565 S
O299 C313 1.305 . S
O300 Zn294 1.920 1_565 S
O300 C313 1.234 . S
C301 O306 1.167 . S
C301 O307 1.299 . S
O302 Zn296 2.114 . S
O302 C297 1.166 . S
O303 Zn295 1.905 . S
O303 C297 1.182 . S
O304 Zn295 1.898 1_665 S
O304 C298 1.167 . S
O305 Zn296 2.120 1_665 S
O305 C298 1.299 . S
O306 Zn294 1.898 . S
O306 C301 1.167 . S
O307 Zn296 2.120 . S
O307 C301 1.299 . S
O308 Zn296 2.114 1_655 S
O308 C310 1.166 1_545 S
O309 Zn294 1.905 1_665 S
O309 C310 1.182 . S
C310 O308 1.166 1_565 S
C310 O309 1.182 . S
O311 Zn296 2.080 . S
O311 C314 1.305 1_545 S
O312 Zn295 1.920 1_565 S
O312 C314 1.234 . S
C313 O299 1.305 . S
C313 O300 1.234 . S
C314 O311 1.305 1_565 S
C314 O312 1.234 . S
Zn315 O321 1.920 . S
Zn315 O327 1.898 1_445 S
Zn315 O330 1.905 . S
Zn316 O324 1.905 1_445 S
Zn316 O325 1.898 . S
Zn316 O333 1.920 1_455 S
Zn317 O320 2.080 . S
Zn317 O323 2.114 1_545 S
Zn317 O326 2.120 . S
Zn317 O328 2.120 1_445 S
Zn317 O329 2.114 . S
Zn317 O332 2.080 1_455 S
C318 O323 1.166 1_655 S
C318 O324 1.182 . S
C319 O325 1.167 . S
C319 O326 1.299 . S
O320 Zn317 2.080 . S
O320 C334 1.305 . S
O321 Zn315 1.920 . S
O321 C334 1.234 . S
C322 O327 1.167 . S
C322 O328 1.299 . S
O323 Zn317 2.114 1_565 S
O323 C318 1.166 1_455 S
O324 Zn316 1.905 1_665 S
O324 C318 1.182 . S
O325 Zn316 1.898 . S
O325 C319 1.167 . S
O326 Zn317 2.120 . S
O326 C319 1.299 . S
O327 Zn315 1.898 1_665 S
O327 C322 1.167 . S
O328 Zn317 2.120 1_665 S
O328 C322 1.299 . S
O329 Zn317 2.114 . S
O329 C331 1.166 . S
O330 Zn315 1.905 . S
O330 C331 1.182 . S
C331 O329 1.166 . S
C331 O330 1.182 . S
O332 Zn317 2.080 1_655 S
O332 C335 1.305 . S
O333 Zn316 1.920 1_655 S
O333 C335 1.234 . S
C334 O320 1.305 . S
C334 O321 1.234 . S
C335 O332 1.305 . S
C335 O333 1.234 . S
Zn336 O342 1.920 . S
Zn336 O348 1.898 . S
Zn336 O351 1.905 . S
Zn337 O345 1.905 . S
Zn337 O346 1.898 . S
Zn337 O354 1.920 . S
Zn338 O341 2.080 . S
Zn338 O344 2.114 . S
Zn338 O347 2.120 . S
Zn338 O349 2.120 . S
Zn338 O350 2.114 . S
Zn338 O353 2.080 . S
C339 O344 1.166 . S
C339 O345 1.182 . S
C340 O346 1.167 . S
C340 O347 1.299 . S
O341 Zn338 2.080 . S
O341 C355 1.305 . S
O342 Zn336 1.920 . S
O342 C355 1.234 . S
C343 O348 1.167 . S
C343 O349 1.299 . S
O344 Zn338 2.114 . S
O344 C339 1.166 . S
O345 Zn337 1.905 . S
O345 C339 1.182 . S
O346 Zn337 1.898 . S
O346 C340 1.167 . S
O347 Zn338 2.120 . S
O347 C340 1.299 . S
O348 Zn336 1.898 . S
O348 C343 1.167 . S
O349 Zn338 2.120 . S
O349 C343 1.299 . S
O350 Zn338 2.114 . S
O350 C352 1.166 . S
O351 Zn336 1.905 . S
O351 C352 1.182 . S
C352 O350 1.166 . S
C352 O351 1.182 . S
O353 Zn338 2.080 . S
O353 C356 1.305 . S
O354 Zn337 1.920 . S
O354 C356 1.234 . S
C355 O341 1.305 . S
C355 O342 1.234 . S
C356 O353 1.305 . S
C356 O354 1.234 . S
Zn357 O363 1.920 . S
Zn357 O369 1.898 . S
Zn357 O372 1.905 . S
Zn358 O366 1.905 . S
Zn358 O367 1.898 . S
Zn358 O375 1.920 . S
Zn359 O362 2.080 . S
Zn359 O365 2.114 . S
Zn359 O368 2.120 . S
Zn359 O370 2.120 . S
Zn359 O371 2.114 . S
Zn359 O374 2.080 . S
C360 O365 1.166 . S
C360 O366 1.182 . S
C361 O367 1.167 . S
C361 O368 1.299 . S
O362 Zn359 2.080 . S
O362 C376 1.305 . S
O363 Zn357 1.920 . S
O363 C376 1.234 . S
C364 O369 1.167 . S
C364 O370 1.299 . S
O365 Zn359 2.114 . S
O365 C360 1.166 . S
O366 Zn358 1.905 . S
O366 C360 1.182 . S
O367 Zn358 1.898 . S
O367 C361 1.167 . S
O368 Zn359 2.120 . S
O368 C361 1.299 . S
O369 Zn357 1.898 . S
O369 C364 1.167 . S
O370 Zn359 2.120 . S
O370 C364 1.299 . S
O371 Zn359 2.114 . S
O371 C373 1.166 . S
O372 Zn357 1.905 . S
O372 C373 1.182 . S
C373 O371 1.166 . S
C373 O372 1.182 . S
O374 Zn359 2.080 . S
O374 C377 1.305 . S
O375 Zn358 1.920 . S
O375 C377 1.234 . S
C376 O362 1.305 . S
C376 O363 1.234 . S
C377 O374 1.305 . S
C377 O375 1.234 . S
Zn378 O384 1.920 . S
Zn378 O390 1.898 . S
Zn378 O393 1.905 . S
Zn379 O387 1.905 . S
Zn379 O388 1.898 . S
Zn379 O396 1.920 . S
Zn380 O383 2.080 . S
Zn380 O386 2.114 . S
Zn380 O389 2.120 . S
Zn380 O391 2.120 . S
Zn380 O392 2.114 . S
Zn380 O395 2.080 . S
C381 O386 1.166 . S
C381 O387 1.182 . S
C382 O388 1.167 . S
C382 O389 1.299 . S
O383 Zn380 2.080 . S
O383 C397 1.305 . S
O384 Zn378 1.920 . S
O384 C397 1.234 . S
C385 O390 1.167 . S
C385 O391 1.299 . S
O386 Zn380 2.114 . S
O386 C381 1.166 . S
O387 Zn379 1.905 . S
O387 C381 1.182 . S
O388 Zn379 1.898 . S
O388 C382 1.167 . S
O389 Zn380 2.120 . S
O389 C382 1.299 . S
O390 Zn378 1.898 . S
O390 C385 1.167 . S
O391 Zn380 2.120 . S
O391 C385 1.299 . S
O392 Zn380 2.114 . S
O392 C394 1.166 . S
O393 Zn378 1.905 . S
O393 C394 1.182 . S
C394 O392 1.166 . S
C394 O393 1.182 . S
O395 Zn380 2.080 . S
O395 C398 1.305 . S
O396 Zn379 1.920 . S
O396 C398 1.234 . S
C397 O383 1.305 . S
C397 O384 1.234 . S
C398 O395 1.305 . S
C398 O396 1.234 . S
Zn399 O405 1.920 . S
Zn399 O411 1.898 . S
Zn399 O414 1.905 . S
Zn400 O408 1.905 . S
Zn400 O409 1.898 . S
Zn400 O417 1.920 . S
Zn401 O404 2.080 1_556 S
Zn401 O407 2.114 . S
Zn401 O410 2.120 . S
Zn401 O412 2.120 1_556 S
Zn401 O413 2.114 1_556 S
Zn401 O416 2.080 . S
C402 O407 1.166 . S
C402 O408 1.182 . S
C403 O409 1.167 . S
C403 O410 1.299 . S
O404 Zn401 2.080 1_554 S
O404 C418 1.305 . S
O405 Zn399 1.920 . S
O405 C418 1.234 . S
C406 O411 1.167 . S
C406 O412 1.299 . S
O407 Zn401 2.114 . S
O407 C402 1.166 . S
O408 Zn400 1.905 . S
O408 C402 1.182 . S
O409 Zn400 1.898 . S
O409 C403 1.167 . S
O410 Zn401 2.120 . S
O410 C403 1.299 . S
O411 Zn399 1.898 . S
O411 C406 1.167 . S
O412 Zn401 2.120 1_554 S
O412 C406 1.299 . S
O413 Zn401 2.114 1_554 S
O413 C415 1.166 . S
O414 Zn399 1.905 . S
O414 C415 1.182 . S
C415 O413 1.166 . S
C415 O414 1.182 . S
O416 Zn401 2.080 . S
O416 C419 1.305 . S
O417 Zn400 1.920 . S
O417 C419 1.234 . S
C418 O404 1.305 . S
C418 O405 1.234 . S
C419 O416 1.305 . S
C419 O417 1.234 . S
Zn420 O426 1.920 . S
Zn420 O432 1.898 . S
Zn420 O435 1.905 . S
Zn421 O429 1.905 . S
Zn421 O430 1.898 . S
Zn421 O438 1.920 . S
Zn422 O425 2.080 . S
Zn422 O428 2.114 . S
Zn422 O431 2.120 . S
Zn422 O433 2.120 . S
Zn422 O434 2.114 . S
Zn422 O437 2.080 . S
C423 O428 1.166 . S
C423 O429 1.182 . S
C424 O430 1.167 . S
C424 O431 1.299 . S
O425 Zn422 2.080 . S
O425 C439 1.305 . S
O426 Zn420 1.920 . S
O426 C439 1.234 . S
C427 O432 1.167 . S
C427 O433 1.299 . S
O428 Zn422 2.114 . S
O428 C423 1.166 . S
O429 Zn421 1.905 . S
O429 C423 1.182 . S
O430 Zn421 1.898 . S
O430 C424 1.167 . S
O431 Zn422 2.120 . S
O431 C424 1.299 . S
O432 Zn420 1.898 . S
O432 C427 1.167 . S
O433 Zn422 2.120 . S
O433 C427 1.299 . S
O434 Zn422 2.114 . S
O434 C436 1.166 . S
O435 Zn420 1.905 . S
O435 C436 1.182 . S
C436 O434 1.166 . S
C436 O435 1.182 . S
O437 Zn422 2.080 . S
O437 C440 1.305 . S
O438 Zn421 1.920 . S
O438 C440 1.234 . S
C439 O425 1.305 . S
C439 O426 1.234 . S
C440 O437 1.305 . S
C440 O438 1.234 . S
Zn441 O447 1.920 . S
Zn441 O453 1.898 . S
Zn441 O456 1.905 . S
Zn442 O450 1.905 . S
Zn442 O451 1.898 . S
Zn442 O459 1.920 . S
Zn443 O446 2.080 . S
Zn443 O449 2.114 1_554 S
Zn443 O452 2.120 1_554 S
Zn443 O454 2.120 . S
Zn443 O455 2.114 . S
Zn443 O458 2.080 1_554 S
C444 O449 1.166 . S
C444 O450 1.182 . S
C445 O451 1.167 . S
C445 O452 1.299 . S
O446 Zn443 2.080 . S
O446 C460 1.305 . S
O447 Zn441 1.920 . S
O447 C460 1.234 . S
C448 O453 1.167 . S
C448 O454 1.299 . S
O449 Zn443 2.114 1_556 S
O449 C444 1.166 . S
O450 Zn442 1.905 . S
O450 C444 1.182 . S
O451 Zn442 1.898 . S
O451 C445 1.167 . S
O452 Zn443 2.120 1_556 S
O452 C445 1.299 . S
O453 Zn441 1.898 . S
O453 C448 1.167 . S
O454 Zn443 2.120 . S
O454 C448 1.299 . S
O455 Zn443 2.114 . S
O455 C457 1.166 . S
O456 Zn441 1.905 . S
O456 C457 1.182 . S
C457 O455 1.166 . S
C457 O456 1.182 . S
O458 Zn443 2.080 1_556 S
O458 C461 1.305 . S
O459 Zn442 1.920 . S
O459 C461 1.234 . S
C460 O446 1.305 . S
C460 O447 1.234 . S
C461 O458 1.305 . S
C461 O459 1.234 . S
Zn462 O468 1.920 . S
Zn462 O474 1.898 . S
Zn462 O477 1.905 . S
Zn463 O471 1.905 . S
Zn463 O472 1.898 . S
Zn463 O480 1.920 . S
Zn464 O467 2.080 . S
Zn464 O470 2.114 . S
Zn464 O473 2.120 . S
Zn464 O475 2.120 . S
Zn464 O476 2.114 . S
Zn464 O479 2.080 . S
C465 O470 1.166 . S
C465 O471 1.182 . S
C466 O472 1.167 . S
C466 O473 1.299 . S
O467 Zn464 2.080 . S
O467 C481 1.305 . S
O468 Zn462 1.920 . S
O468 C481 1.234 . S
C469 O474 1.167 . S
C469 O475 1.299 . S
O470 Zn464 2.114 . S
O470 C465 1.166 . S
O471 Zn463 1.905 . S
O471 C465 1.182 . S
O472 Zn463 1.898 . S
O472 C466 1.167 . S
O473 Zn464 2.120 . S
O473 C466 1.299 . S
O474 Zn462 1.898 . S
O474 C469 1.167 . S
O475 Zn464 2.120 . S
O475 C469 1.299 . S
O476 Zn464 2.114 . S
O476 C478 1.166 . S
O477 Zn462 1.905 . S
O477 C478 1.182 . S
C478 O476 1.166 . S
C478 O477 1.182 . S
O479 Zn464 2.080 . S
O479 C482 1.305 . S
O480 Zn463 1.920 . S
O480 C482 1.234 . S
C481 O467 1.305 . S
C481 O468 1.234 . S
C482 O479 1.305 . S
C482 O480 1.234 . S
Zn483 O489 1.920 . S
Zn483 O495 1.898 . S
Zn483 O498 1.905 . S
Zn484 O492 1.905 . S
Zn484 O493 1.898 . S
Zn484 O501 1.920 . S
Zn485 O488 2.080 . S
Zn485 O491 2.114 . S
Zn485 O494 2.120 . S
Zn485 O496 2.120 . S
Zn485 O497 2.114 . S
Zn485 O500 2.080 . S
C486 O491 1.166 . S
C486 O492 1.182 . S
C487 O493 1.167 . S
C487 O494 1.299 . S
O488 Zn485 2.080 . S
O488 C502 1.305 . S
O489 Zn483 1.920 . S
O489 C502 1.234 . S
C490 O495 1.167 . S
C490 O496 1.299 . S
O491 Zn485 2.114 . S
O491 C486 1.166 . S
O492 Zn484 1.905 . S
O492 C486 1.182 . S
O493 Zn484 1.898 . S
O493 C487 1.167 . S
O494 Zn485 2.120 . S
O494 C487 1.299 . S
O495 Zn483 1.898 . S
O495 C490 1.167 . S
O496 Zn485 2.120 . S
O496 C490 1.299 . S
O497 Zn485 2.114 . S
O497 C499 1.166 . S
O498 Zn483 1.905 . S
O498 C499 1.182 . S
C499 O497 1.166 . S
C499 O498 1.182 . S
O500 Zn485 2.080 . S
O500 C503 1.305 . S
O501 Zn484 1.920 . S
O501 C503 1.234 . S
C502 O488 1.305 . S
C502 O489 1.234 . S
C503 O500 1.305 . S
C503 O501 1.234 . S
C36 C256 1.281 . S
C13 C272 1.495 1_565 S
C255 C22 1.104 . S
C280 C41 1.743 . S
C8 C289 1.157 1_545 S
C292 C27 1.404 1_455 S
C78 C298 1.281 . S
C314 C55 1.495 1_565 S
C297 C64 1.104 . S
C83 C322 1.742 . S
C331 C50 1.164 . S
C334 C69 1.403 . S
C343 C120 1.281 . S
C355 C97 1.495 . S
C352 C106 1.104 . S
C125 C361 1.743 . S
C360 C92 1.157 . S
C111 C377 1.404 . S
C382 C162 1.281 . S
C398 C139 1.495 . S
C148 C381 1.104 . S
C406 C167 1.743 . S
C415 C134 1.157 . S
C153 C418 1.404 . S
C204 C427 1.281 . S
C439 C181 1.495 . S
C436 C190 1.104 . S
C209 C445 1.743 . S
C444 C176 1.157 . S
C195 C461 1.403 . S
C466 C246 1.281 . S
C482 C223 1.495 . S
C232 C465 1.104 . S
C487 C251 1.743 . S
C486 C218 1.157 . S
C503 C237 1.404 . S
C268 C161 1.440 . S
C137 C271 1.495 . S
C259 C147 1.525 . S
C249 C276 1.398 . S
C217 C277 1.356 . S
C293 C235 1.471 . S
C310 C203 1.440 . S
C313 C179 1.495 . S
C189 C301 1.525 . S
C318 C123 1.398 1_655 S
C91 C319 1.356 . S
C109 C335 1.471 . S
C245 C339 1.440 . S
C221 C356 1.495 . S
C340 C231 1.525 . S
C373 C81 1.398 . S
C364 C49 1.356 . S
C67 C376 1.471 . S
C394 C35 1.440 . S
C397 C11 1.495 . S
C21 C385 1.525 . S
C402 C207 1.398 . S
C403 C175 1.356 . S
C419 C193 1.471 . S
C423 C77 1.440 . S
C440 C53 1.495 . S
C63 C424 1.525 . S
C165 C457 1.398 . S
C133 C448 1.356 . S
C460 C151 1.471 . S
C119 C478 1.439 . S
C95 C481 1.495 . S
C469 C105 1.525 . S
C499 C39 1.398 . S
C490 C7 1.356 . S
C25 C502 1.471 . S
