# Generated by pormake.
# Topology ocu, (6,8)-cn, num edge types: 1
# Building blocks:
#     Node 0, Type 0, BuildingBlock: HISSIN_clean_sbu_0, # of connection points: 6
#     Node 1, Type 0, BuildingBlock: HISSIN_clean_sbu_0, # of connection points: 6
#     Node 2, Type 0, BuildingBlock: HISSIN_clean_sbu_0, # of connection points: 6
#     Node 3, Type 0, BuildingBlock: HISSIN_clean_sbu_0, # of connection points: 6
#     Node 4, Type 0, BuildingBlock: HISSIN_clean_sbu_0, # of connection points: 6
#     Node 5, Type 0, BuildingBlock: HISSIN_clean_sbu_0, # of connection points: 6
#     Node 6, Type 0, BuildingBlock: HISSIN_clean_sbu_0, # of connection points: 6
#     Node 7, Type 0, BuildingBlock: HISSIN_clean_sbu_0, # of connection points: 6
#     Node 8, Type 1, BuildingBlock: TAGTUT_clean_sbu_1, # of connection points: 8
#     Node 9, Type 1, BuildingBlock: TAGTUT_clean_sbu_1, # of connection points: 8
#     Node 10, Type 1, BuildingBlock: TAGTUT_clean_sbu_1, # of connection points: 8
#     Node 11, Type 1, BuildingBlock: TAGTUT_clean_sbu_1, # of connection points: 8
#     Node 12, Type 1, BuildingBlock: TAGTUT_clean_sbu_1, # of connection points: 8
#     Node 13, Type 1, BuildingBlock: TAGTUT_clean_sbu_1, # of connection points: 8
#     Edge 14, Type (0, 1), BuildingBlock: OJICUG_clean_linker_0, # of connection points: 2
#     Edge 15, Type (0, 1), BuildingBlock: OJICUG_clean_linker_0, # of connection points: 2
#     Edge 16, Type (0, 1), BuildingBlock: OJICUG_clean_linker_0, # of connection points: 2
#     Edge 17, Type (0, 1), BuildingBlock: OJICUG_clean_linker_0, # of connection points: 2
#     Edge 18, Type (0, 1), BuildingBlock: OJICUG_clean_linker_0, # of connection points: 2
#     Edge 19, Type (0, 1), BuildingBlock: OJICUG_clean_linker_0, # of connection points: 2
#     Edge 20, Type (0, 1), BuildingBlock: OJICUG_clean_linker_0, # of connection points: 2
#     Edge 21, Type (0, 1), BuildingBlock: OJICUG_clean_linker_0, # of connection points: 2
#     Edge 22, Type (0, 1), BuildingBlock: OJICUG_clean_linker_0, # of connection points: 2
#     Edge 23, Type (0, 1), BuildingBlock: OJICUG_clean_linker_0, # of connection points: 2
#     Edge 24, Type (0, 1), BuildingBlock: OJICUG_clean_linker_0, # of connection points: 2
#     Edge 25, Type (0, 1), BuildingBlock: OJICUG_clean_linker_0, # of connection points: 2
#     Edge 26, Type (0, 1), BuildingBlock: OJICUG_clean_linker_0, # of connection points: 2
#     Edge 27, Type (0, 1), BuildingBlock: OJICUG_clean_linker_0, # of connection points: 2
#     Edge 28, Type (0, 1), BuildingBlock: OJICUG_clean_linker_0, # of connection points: 2
#     Edge 29, Type (0, 1), BuildingBlock: OJICUG_clean_linker_0, # of connection points: 2
#     Edge 30, Type (0, 1), BuildingBlock: OJICUG_clean_linker_0, # of connection points: 2
#     Edge 31, Type (0, 1), BuildingBlock: OJICUG_clean_linker_0, # of connection points: 2
#     Edge 32, Type (0, 1), BuildingBlock: OJICUG_clean_linker_0, # of connection points: 2
#     Edge 33, Type (0, 1), BuildingBlock: OJICUG_clean_linker_0, # of connection points: 2
#     Edge 34, Type (0, 1), BuildingBlock: OJICUG_clean_linker_0, # of connection points: 2
#     Edge 35, Type (0, 1), BuildingBlock: OJICUG_clean_linker_0, # of connection points: 2
#     Edge 36, Type (0, 1), BuildingBlock: OJICUG_clean_linker_0, # of connection points: 2
#     Edge 37, Type (0, 1), BuildingBlock: OJICUG_clean_linker_0, # of connection points: 2
#     Edge 38, Type (0, 1), BuildingBlock: OJICUG_clean_linker_0, # of connection points: 2
#     Edge 39, Type (0, 1), BuildingBlock: OJICUG_clean_linker_0, # of connection points: 2
#     Edge 40, Type (0, 1), BuildingBlock: OJICUG_clean_linker_0, # of connection points: 2
#     Edge 41, Type (0, 1), BuildingBlock: OJICUG_clean_linker_0, # of connection points: 2
#     Edge 42, Type (0, 1), BuildingBlock: OJICUG_clean_linker_0, # of connection points: 2
#     Edge 43, Type (0, 1), BuildingBlock: OJICUG_clean_linker_0, # of connection points: 2
#     Edge 44, Type (0, 1), BuildingBlock: OJICUG_clean_linker_0, # of connection points: 2
#     Edge 45, Type (0, 1), BuildingBlock: OJICUG_clean_linker_0, # of connection points: 2
#     Edge 46, Type (0, 1), BuildingBlock: OJICUG_clean_linker_0, # of connection points: 2
#     Edge 47, Type (0, 1), BuildingBlock: OJICUG_clean_linker_0, # of connection points: 2
#     Edge 48, Type (0, 1), BuildingBlock: OJICUG_clean_linker_0, # of connection points: 2
#     Edge 49, Type (0, 1), BuildingBlock: OJICUG_clean_linker_0, # of connection points: 2
#     Edge 50, Type (0, 1), BuildingBlock: OJICUG_clean_linker_0, # of connection points: 2
#     Edge 51, Type (0, 1), BuildingBlock: OJICUG_clean_linker_0, # of connection points: 2
#     Edge 52, Type (0, 1), BuildingBlock: OJICUG_clean_linker_0, # of connection points: 2
#     Edge 53, Type (0, 1), BuildingBlock: OJICUG_clean_linker_0, # of connection points: 2
#     Edge 54, Type (0, 1), BuildingBlock: OJICUG_clean_linker_0, # of connection points: 2
#     Edge 55, Type (0, 1), BuildingBlock: OJICUG_clean_linker_0, # of connection points: 2
#     Edge 56, Type (0, 1), BuildingBlock: OJICUG_clean_linker_0, # of connection points: 2
#     Edge 57, Type (0, 1), BuildingBlock: OJICUG_clean_linker_0, # of connection points: 2
#     Edge 58, Type (0, 1), BuildingBlock: OJICUG_clean_linker_0, # of connection points: 2
#     Edge 59, Type (0, 1), BuildingBlock: OJICUG_clean_linker_0, # of connection points: 2
#     Edge 60, Type (0, 1), BuildingBlock: OJICUG_clean_linker_0, # of connection points: 2
#     Edge 61, Type (0, 1), BuildingBlock: OJICUG_clean_linker_0, # of connection points: 2
# Relax obj value: 0.142
# Max RMSD: 0.217
# Mean RMSD: 0.130
data_MOF--net-ocu--node1-HISSIN_clean_sbu_0--node2-TAGTUT_clean_sbu_1--edge1-OJICUG_clean_linker_0
_symmetry_space_group_name_H-M    P1
_symmetry_Int_Tables_number       1
_symmetry_cell_setting            triclinic
loop_
_symmetry_equiv_pos_as_xyz
'x, y, z'
_cell_length_a     32.000118
_cell_length_b     31.641303
_cell_length_c     31.631616
_cell_angle_alpha  104.73827
_cell_angle_beta   78.555447
_cell_angle_gamma 119.34957
loop_
_atom_site_label
_atom_site_type_symbol
_atom_site_fract_x
_atom_site_fract_y
_atom_site_fract_z
_atom_type_partial_charge
Eu0 Eu 0.3234 0.26913 0.29972 0.0
Eu1 Eu 0.23154 0.21988 0.23767 0.0
C2 C 0.22358 0.16898 0.31827 0.0
C3 C 0.41464 0.27069 0.36004 0.0
C4 C 0.38306 0.22776 0.3772 0.0
C5 C 0.48186 0.25748 0.36654 0.0
C6 C 0.40063 0.20023 0.38922 0.0
C7 C 0.46418 0.28521 0.35468 0.0
C8 C 0.45027 0.21453 0.38398 0.0
C9 C 0.39591 0.29853 0.34518 0.0
O10 O 0.21599 0.26844 0.29724 0.0
O11 O 0.29002 0.32149 0.32305 0.0
C12 C 0.24427 0.30906 0.32228 0.0
O13 O 0.35512 0.29829 0.23614 0.0
O14 O 0.15494 0.1899 0.23097 0.0
O15 O 0.20564 0.20486 0.1737 0.0
O16 O 0.28702 0.2917 0.21652 0.0
C17 C 0.33374 0.30739 0.2108 0.0
O18 O 0.31981 0.19728 0.26108 0.0
O19 O 0.27695 0.18168 0.20361 0.0
O20 O 0.20793 0.1628 0.28045 0.0
O21 O 0.40031 0.29621 0.30295 0.0
O22 O 0.35384 0.2942 0.36292 0.0
O23 O 0.26266 0.20839 0.33275 0.0
C24 C 0.14084 0.22235 0.17878 0.0
C25 C 0.15002 0.26952 0.20283 0.0
C26 C 0.09505 0.23025 0.13097 0.0
C27 C 0.13203 0.29693 0.19095 0.0
C28 C 0.11297 0.20285 0.14297 0.0
C29 C 0.10462 0.2779 0.15455 0.0
C30 C 0.16161 0.19425 0.18997 0.0
C31 C 0.30698 0.17516 0.22117 0.0
H32 H 0.34463 0.21532 0.38129 0.0
H33 H 0.52021 0.26943 0.36156 0.0
H34 H 0.37517 0.16806 0.40331 0.0
H35 H 0.4892 0.31777 0.34089 0.0
H36 H 0.17156 0.28541 0.23058 0.0
H37 H 0.07495 0.21459 0.1023 0.0
H38 H 0.1398 0.33314 0.21025 0.0
H39 H 0.10572 0.16668 0.1238 0.0
Eu40 Eu 0.8268 0.22934 0.25778 0.0
Eu41 Eu 0.735 0.2774 0.28606 0.0
C42 C 0.81087 0.31598 0.34136 0.0
C43 C 0.92112 0.19551 0.27923 0.0
C44 C 0.95731 0.22234 0.30823 0.0
C45 C 0.92229 0.12027 0.2829 0.0
C46 C 0.97539 0.19834 0.32495 0.0
C47 C 0.90404 0.14427 0.26636 0.0
C48 C 0.95786 0.14694 0.31273 0.0
C49 C 0.90378 0.22194 0.26086 0.0
O50 O 0.79472 0.32262 0.23923 0.0
O51 O 0.84958 0.28952 0.21945 0.0
C52 C 0.83387 0.32056 0.217 0.0
O53 O 0.78554 0.18192 0.19904 0.0
O54 O 0.69456 0.31893 0.30671 0.0
O55 O 0.66273 0.24626 0.26555 0.0
O56 O 0.74534 0.22385 0.23032 0.0
C57 C 0.75129 0.19231 0.19744 0.0
O58 O 0.76536 0.18056 0.30065 0.0
O59 O 0.71456 0.21839 0.32547 0.0
O60 O 0.77676 0.3275 0.34405 0.0
O61 O 0.87398 0.19622 0.23033 0.0
O62 O 0.89292 0.25461 0.28806 0.0
O63 O 0.80933 0.28297 0.30656 0.0
C64 C 0.63791 0.30454 0.26027 0.0
C65 C 0.63126 0.28681 0.2154 0.0
C66 C 0.60817 0.36208 0.26071 0.0
C67 C 0.61395 0.30722 0.19325 0.0
C68 C 0.62523 0.34151 0.28286 0.0
C69 C 0.60301 0.34564 0.21557 0.0
C70 C 0.65808 0.28574 0.28456 0.0
C71 C 0.72798 0.1846 0.32497 0.0
H72 H 0.97145 0.26195 0.31822 0.0
H73 H 0.90836 0.08076 0.27245 0.0
H74 H 1.00215 0.21997 0.34845 0.0
H75 H 0.8766 0.12259 0.24352 0.0
H76 H 0.64014 0.25791 0.19725 0.0
H77 H 0.59954 0.39124 0.27879 0.0
H78 H 0.61081 0.29415 0.1583 0.0
H79 H 0.62934 0.35513 0.31764 0.0
Eu80 Eu 0.80268 0.79927 0.23594 0.0
Eu81 Eu 0.7651 0.71203 0.2953 0.0
C82 C 0.69676 0.70043 0.22746 0.0
C83 C 0.78947 0.87598 0.17556 0.0
C84 C 0.74014 0.84941 0.18798 0.0
C85 C 0.77193 0.92489 0.14093 0.0
C86 C 0.70681 0.85985 0.17636 0.0
C87 C 0.80529 0.91404 0.15227 0.0
C88 C 0.72229 0.89756 0.15254 0.0
C89 C 0.82338 0.86274 0.18684 0.0
O90 O 0.79524 0.68634 0.22922 0.0
O91 O 0.85098 0.7619 0.21335 0.0
C92 C 0.83556 0.71399 0.20823 0.0
O93 O 0.83691 0.83706 0.29922 0.0
O94 O 0.74682 0.63843 0.3043 0.0
O95 O 0.76218 0.69842 0.36021 0.0
O96 O 0.84149 0.76939 0.3022 0.0
C97 C 0.85115 0.81508 0.31839 0.0
O98 O 0.74459 0.80934 0.28367 0.0
O99 O 0.73054 0.76002 0.33311 0.0
O100 O 0.69903 0.68492 0.26137 0.0
O101 O 0.8315 0.87561 0.22813 0.0
O102 O 0.81516 0.81731 0.17102 0.0
O103 O 0.73274 0.73796 0.21144 0.0
C104 C 0.794 0.64425 0.35743 0.0
C105 C 0.81443 0.61681 0.32721 0.0
C106 C 0.84644 0.65809 0.4112 0.0
C107 C 0.85028 0.60987 0.33901 0.0
C108 C 0.81039 0.66467 0.39956 0.0
C109 C 0.86679 0.63055 0.38113 0.0
C110 C 0.75763 0.65411 0.34503 0.0
C111 C 0.72526 0.79402 0.32112 0.0
H112 H 0.72736 0.8202 0.20641 0.0
H113 H 0.78486 0.95382 0.12208 0.0
H114 H 0.66895 0.83848 0.18606 0.0
H115 H 0.84321 0.93492 0.14249 0.0
H116 H 0.80297 0.60085 0.29434 0.0
H117 H 0.85756 0.67366 0.44421 0.0
H118 H 0.86526 0.58851 0.31508 0.0
H119 H 0.79544 0.68603 0.42356 0.0
Eu120 Eu 0.33389 0.71275 0.26094 0.0
Eu121 Eu 0.26492 0.75077 0.24576 0.0
C122 C 0.27922 0.67265 0.17965 0.0
C123 C 0.34869 0.60802 0.2605 0.0
C124 C 0.37259 0.58096 0.23751 0.0
C125 C 0.27264 0.5399 0.23637 0.0
C126 C 0.347 0.53504 0.21149 0.0
C127 C 0.29803 0.5852 0.26313 0.0
C128 C 0.29774 0.51694 0.20727 0.0
C129 C 0.37474 0.6621 0.26778 0.0
O130 O 0.21612 0.68909 0.28433 0.0
O131 O 0.27606 0.69314 0.31607 0.0
C132 C 0.23051 0.67953 0.31518 0.0
O133 O 0.35596 0.78479 0.30834 0.0
O134 O 0.20935 0.72371 0.2015 0.0
O135 O 0.23253 0.79629 0.24295 0.0
O136 O 0.28663 0.79244 0.31424 0.0
C137 C 0.32801 0.80489 0.32848 0.0
O138 O 0.38258 0.77307 0.2205 0.0
O139 O 0.33667 0.81353 0.23299 0.0
O140 O 0.29779 0.72003 0.18536 0.0
O141 O 0.38172 0.68007 0.23261 0.0
O142 O 0.35851 0.68468 0.30203 0.0
O143 O 0.27745 0.65649 0.21425 0.0
C144 C 0.15069 0.7472 0.23655 0.0
C145 C 0.12898 0.70936 0.26144 0.0
C146 C 0.11049 0.78999 0.28569 0.0
C147 C 0.10424 0.71608 0.30183 0.0
C148 C 0.13598 0.78374 0.24566 0.0
C149 C 0.10042 0.75971 0.31585 0.0
C150 C 0.19992 0.76067 0.21768 0.0
C151 C 0.37706 0.81131 0.21857 0.0
H152 H 0.41154 0.59789 0.23497 0.0
H153 H 0.23482 0.52676 0.23367 0.0
H154 H 0.36735 0.51804 0.18934 0.0
H155 H 0.27864 0.60533 0.28083 0.0
H156 H 0.13841 0.67956 0.25392 0.0
H157 H 0.10622 0.82316 0.29594 0.0
H158 H 0.09547 0.69169 0.32445 0.0
H159 H 0.15156 0.81254 0.22623 0.0
Eu160 Eu 0.33059 0.72796 0.75774 0.0
Eu161 Eu 0.23699 0.77486 0.78547 0.0
C162 C 0.31183 0.81242 0.84315 0.0
C163 C 0.42815 0.70239 0.784 0.0
C164 C 0.43478 0.71967 0.82884 0.0
C165 C 0.45689 0.64389 0.78299 0.0
C166 C 0.45153 0.6986 0.85074 0.0
C167 C 0.44034 0.66514 0.76107 0.0
C168 C 0.46201 0.65998 0.82816 0.0
C169 C 0.40843 0.72209 0.76026 0.0
O170 O 0.29754 0.82195 0.74041 0.0
O171 O 0.35075 0.7866 0.71796 0.0
C172 C 0.33586 0.81889 0.71701 0.0
O173 O 0.28898 0.67758 0.69952 0.0
O174 O 0.19091 0.80968 0.81075 0.0
O175 O 0.16898 0.74619 0.75743 0.0
O176 O 0.25533 0.72155 0.73654 0.0
C177 C 0.25453 0.68865 0.70179 0.0
O178 O 0.27113 0.68244 0.80457 0.0
O179 O 0.21537 0.71467 0.82377 0.0
O180 O 0.27773 0.82384 0.84464 0.0
O181 O 0.37349 0.68923 0.73614 0.0
O182 O 0.4018 0.76017 0.78072 0.0
O183 O 0.31234 0.78045 0.80804 0.0
C184 C 0.14164 0.80448 0.76201 0.0
C185 C 0.17113 0.8328 0.7302 0.0
C186 C 0.0795 0.82572 0.75789 0.0
C187 C 0.15482 0.85747 0.71225 0.0
C188 C 0.09588 0.80106 0.77583 0.0
C189 C 0.10886 0.85431 0.72598 0.0
C190 C 0.1589 0.78032 0.78275 0.0
C191 C 0.23151 0.68394 0.82635 0.0
H192 H 0.42629 0.74874 0.84721 0.0
H193 H 0.46514 0.61453 0.76475 0.0
H194 H 0.45459 0.71137 0.88572 0.0
H195 H 0.43624 0.65185 0.72626 0.0
H196 H 0.20667 0.83585 0.71937 0.0
H197 H 0.04407 0.82271 0.76924 0.0
H198 H 0.1779 0.87829 0.68702 0.0
H199 H 0.07295 0.77958 0.80073 0.0
Eu200 Eu 0.29917 0.29174 0.74576 0.0
Eu201 Eu 0.26147 0.20372 0.80413 0.0
C202 C 0.21453 0.18753 0.72035 0.0
C203 C 0.27132 0.36328 0.68814 0.0
C204 C 0.22206 0.33355 0.69869 0.0
C205 C 0.25074 0.41127 0.65522 0.0
C206 C 0.18729 0.3419 0.68667 0.0
C207 C 0.28542 0.40237 0.66661 0.0
C208 C 0.20129 0.38089 0.66479 0.0
C209 C 0.30769 0.35276 0.69873 0.0
O210 O 0.32047 0.19511 0.75674 0.0
O211 O 0.33447 0.2446 0.70744 0.0
C212 C 0.33983 0.21059 0.71934 0.0
O213 O 0.36504 0.31822 0.77984 0.0
O214 O 0.23344 0.1273 0.81132 0.0
O215 O 0.24849 0.18501 0.86885 0.0
O216 O 0.33027 0.26574 0.83021 0.0
C217 C 0.3666 0.3031 0.8143 0.0
O218 O 0.2684 0.31569 0.81216 0.0
O219 O 0.21193 0.23964 0.82589 0.0
O220 O 0.2284 0.16592 0.74036 0.0
O221 O 0.31715 0.36625 0.73972 0.0
O222 O 0.30272 0.30852 0.6821 0.0
O223 O 0.22357 0.23319 0.73601 0.0
C224 C 0.27513 0.12707 0.86426 0.0
C225 C 0.32448 0.15412 0.85221 0.0
C226 C 0.29298 0.07842 0.89894 0.0
C227 C 0.35797 0.14401 0.86401 0.0
C228 C 0.25947 0.08893 0.88741 0.0
C229 C 0.34263 0.10615 0.88764 0.0
C230 C 0.241 0.13986 0.85273 0.0
C231 C 0.22747 0.28763 0.83202 0.0
H232 H 0.21046 0.30357 0.7159 0.0
H233 H 0.26261 0.44126 0.6379 0.0
H234 H 0.14955 0.31814 0.69468 0.0
H235 H 0.32319 0.42568 0.65822 0.0
H236 H 0.33715 0.18342 0.83392 0.0
H237 H 0.28016 0.0494 0.91766 0.0
H238 H 0.39583 0.16572 0.85457 0.0
H239 H 0.22154 0.0677 0.89693 0.0
Eu240 Eu 0.79857 0.24989 0.79415 0.0
Eu241 Eu 0.73079 0.29224 0.78046 0.0
C242 C 0.74022 0.20298 0.70854 0.0
C243 C 0.91011 0.2487 0.80439 0.0
C244 C 0.93389 0.28724 0.78023 0.0
C245 C 0.94871 0.20431 0.75516 0.0
C246 C 0.95904 0.28044 0.74012 0.0
C247 C 0.92285 0.21069 0.79492 0.0
C248 C 0.96109 0.23592 0.72559 0.0
C249 C 0.86111 0.23703 0.82306 0.0
O250 O 0.68284 0.23071 0.82004 0.0
O251 O 0.7259 0.18705 0.80297 0.0
C252 C 0.68668 0.19081 0.81953 0.0
O253 O 0.76652 0.28151 0.85479 0.0
O254 O 0.68204 0.32307 0.81135 0.0
O255 O 0.70276 0.31931 0.74153 0.0
O256 O 0.7858 0.34685 0.82865 0.0
C257 C 0.78495 0.32902 0.86176 0.0
O258 O 0.84968 0.30894 0.75406 0.0
O259 O 0.7955 0.32629 0.73393 0.0
O260 O 0.71338 0.22468 0.72772 0.0
O261 O 0.85328 0.27509 0.83881 0.0
O262 O 0.82799 0.20205 0.7979 0.0
O263 O 0.77881 0.21095 0.72498 0.0
C264 C 0.70984 0.39472 0.78433 0.0
C265 C 0.68448 0.41984 0.80849 0.0
C266 C 0.7851 0.46552 0.80693 0.0
C267 C 0.7092 0.46624 0.83425 0.0
C268 C 0.76045 0.41972 0.78064 0.0
C269 C 0.75915 0.4868 0.83693 0.0
C270 C 0.68623 0.34061 0.77667 0.0
C271 C 0.83894 0.33112 0.73125 0.0
H272 H 0.92597 0.31809 0.78801 0.0
H273 H 0.95162 0.1704 0.74455 0.0
H274 H 0.96961 0.30582 0.71799 0.0
H275 H 0.90565 0.18129 0.81378 0.0
H276 H 0.64549 0.40117 0.81203 0.0
H277 H 0.82343 0.48042 0.80856 0.0
H278 H 0.68821 0.48188 0.85726 0.0
H279 H 0.7806 0.40083 0.76251 0.0
Eu280 Eu 0.83164 0.78194 0.80488 0.0
Eu281 Eu 0.7396 0.73266 0.74263 0.0
C282 C 0.72871 0.69523 0.83245 0.0
C283 C 0.92312 0.77982 0.86312 0.0
C284 C 0.91451 0.73294 0.83869 0.0
C285 C 0.96906 0.77197 0.91081 0.0
C286 C 0.93281 0.70568 0.85036 0.0
C287 C 0.95084 0.79923 0.89902 0.0
C288 C 0.95996 0.72455 0.88692 0.0
C289 C 0.90196 0.80772 0.8522 0.0
O290 O 0.74414 0.80507 0.78075 0.0
O291 O 0.78695 0.82102 0.83839 0.0
C292 C 0.75713 0.82756 0.82056 0.0
O293 O 0.85553 0.83851 0.76144 0.0
O294 O 0.6628 0.70641 0.73948 0.0
O295 O 0.70904 0.70762 0.67948 0.0
O296 O 0.80056 0.7929 0.70932 0.0
C297 C 0.83986 0.83214 0.72358 0.0
O298 O 0.84667 0.73262 0.74581 0.0
O299 O 0.77298 0.68026 0.71901 0.0
O300 O 0.70757 0.70364 0.80632 0.0
O301 O 0.90834 0.81213 0.81124 0.0
O302 O 0.85795 0.79693 0.86866 0.0
O303 O 0.77548 0.71106 0.82734 0.0
C304 C 0.64871 0.73175 0.68206 0.0
C305 C 0.68051 0.77459 0.66485 0.0
C306 C 0.58175 0.74499 0.67469 0.0
C307 C 0.66318 0.8021 0.65237 0.0
C308 C 0.59919 0.71731 0.68702 0.0
C309 C 0.61356 0.78785 0.65718 0.0
C310 C 0.66713 0.70379 0.69722 0.0
C311 C 0.81857 0.6924 0.72028 0.0
H312 H 0.89312 0.71713 0.81084 0.0
H313 H 0.98899 0.78752 0.93959 0.0
H314 H 0.92542 0.66966 0.83081 0.0
H315 H 0.9577 0.83519 0.91847 0.0
H316 H 0.71892 0.78696 0.66103 0.0
H317 H 0.54341 0.73309 0.67936 0.0
H318 H 0.68882 0.8342 0.63827 0.0
H319 H 0.57399 0.68481 0.70081 0.0
C320 C 0.97275 0.13061 0.55847 0.0
C321 C 1.0066 0.07137 0.43005 0.0
C322 C 0.93599 0.90302 0.48125 0.0
Mg323 Mg 0.05503 0.10671 0.51301 0.0
O324 O 1.01142 0.05111 0.53856 0.0
Mg325 Mg 0.946 0.0127 0.51662 0.0
Mg326 Mg 0.03168 0.9995 0.52008 0.0
O327 O 0.05191 0.94789 0.50151 0.0
Mg328 Mg 1.00822 0.89211 0.52677 0.0
Mg329 Mg 0.11725 0.98621 0.5236 0.0
C330 C 0.12731 0.09587 0.55875 0.0
C331 C 0.11962 0.03585 0.44294 0.0
O332 O 0.94159 0.08448 0.55188 0.0
O333 O 1.01725 0.14633 0.54468 0.0
O334 O 0.96995 0.04378 0.45266 0.0
O335 O 0.04786 0.09608 0.44487 0.0
O336 O 0.11928 0.12349 0.54137 0.0
O337 O 0.09857 0.04963 0.55592 0.0
C338 C 0.94388 0.96343 0.59742 0.0
O339 O 0.98589 0.9683 0.58195 0.0
O340 O 0.9221 0.9784 0.57946 0.0
O341 O 0.12187 0.91452 0.48828 0.0
O342 O 0.04618 0.85266 0.49528 0.0
O343 O 0.09295 0.95497 0.58753 0.0
C344 C 0.09073 0.86838 0.48169 0.0
O345 O 1.01501 0.90249 0.59485 0.0
O346 O 0.94398 0.87525 0.49845 0.0
C347 C 0.05613 0.92726 0.60992 0.0
O348 O 0.96474 0.94928 0.48434 0.0
O349 O 0.07752 0.03078 0.45829 0.0
O350 O 0.14138 0.02085 0.46089 0.0
C351 C 0.41483 0.07858 0.11061 0.0
C352 C 0.4577 0.06801 0.97431 0.0
C353 C 0.45187 0.89686 0.96935 0.0
Mg354 Mg 0.5135 0.101 0.05557 0.0
O355 O 0.49358 0.03472 0.05636 0.0
Mg356 Mg 0.42824 0.98462 0.03763 0.0
Mg357 Mg 0.53248 0.0019 1.02003 0.0
O358 O 0.57141 0.96914 0.98374 0.0
Mg359 Mg 0.55145 0.90294 0.98478 0.0
Mg360 Mg 0.63676 0.01931 1.00255 0.0
C361 C 0.61316 0.10668 0.07025 0.0
C362 C 0.60055 0.06472 0.94403 0.0
O363 O 0.39707 0.0335 0.0898 0.0
O364 O 0.45928 0.1097 0.10445 0.0
O365 O 0.43237 0.02654 0.98682 0.0
O366 O 0.49437 0.10246 0.99389 0.0
O367 O 0.5871 0.1282 0.07297 0.0
O368 O 0.59864 0.06094 0.05279 0.0
C369 C 0.46454 0.9393 0.0961 0.0
O370 O 0.50595 0.95499 0.07421 0.0
O371 O 0.43076 0.94651 0.08858 0.0
O372 O 0.66804 0.97064 0.95057 0.0
O373 O 0.60584 0.89437 0.93615 0.0
O374 O 0.63276 0.97757 0.05342 0.0
C375 C 0.65026 0.92551 0.92993 0.0
O376 O 0.57063 0.90175 0.04663 0.0
O377 O 0.47796 0.87539 0.96673 0.0
C378 C 0.60741 0.9362 0.06608 0.0
O379 O 0.46622 0.94254 0.98727 0.0
O380 O 0.55909 0.04892 0.96585 0.0
O381 O 0.63432 0.05752 0.95159 0.0
C382 C 0.94672 0.61725 0.10176 0.0
C383 C 1.00579 0.6118 0.97111 0.0
C384 C 0.94302 0.4153 0.96558 0.0
Mg385 Mg 0.04334 0.61726 0.05676 0.0
O386 O 1.00601 0.54865 0.0524 0.0
Mg387 Mg 0.94275 0.51646 0.02633 0.0
Mg388 Mg 0.03205 0.50104 0.02069 0.0
O389 O 0.05803 0.4534 0.98898 0.0
Mg390 Mg 1.02068 0.38483 0.9849 0.0
Mg391 Mg 0.1213 0.48552 1.01495 0.0
C392 C 0.12085 0.58651 0.07621 0.0
C393 C 0.12511 0.55645 0.9539 0.0
O394 O 0.92392 0.57462 0.07768 0.0
O395 O 0.99288 0.63957 0.10117 0.0
O396 O 0.97041 0.57031 0.97783 0.0
O397 O 0.04118 0.63485 0.99514 0.0
O398 O 0.10804 0.6195 0.07619 0.0
O399 O 0.09512 0.54036 0.06185 0.0
C400 C 0.93907 0.44581 0.0876 0.0
O401 O 0.9817 0.45276 0.07171 0.0
O402 O 0.91808 0.46569 0.07531 0.0
O403 O 0.13989 0.42721 0.96346 0.0
O404 O 0.07077 0.36229 0.94028 0.0
O405 O 0.09387 0.43181 0.06344 0.0
C406 C 0.11694 0.38455 0.93948 0.0
O407 O 1.02299 0.36732 0.04649 0.0
O408 O 0.95591 0.38242 0.96571 0.0
C409 C 0.05852 0.39041 0.07035 0.0
O410 O 0.96889 0.46153 0.97964 0.0
O411 O 0.08244 0.54944 0.96973 0.0
O412 O 0.14602 0.53644 0.96608 0.0
C413 C 0.36028 0.49824 0.04812 0.0
C414 C 0.47723 0.56211 0.94809 0.0
C415 C 0.50797 0.4112 0.93776 0.0
Mg416 Mg 0.47121 0.56974 0.04803 0.0
O417 O 0.47056 0.5087 0.03446 0.0
Mg418 Mg 0.43363 0.45585 0.9862 0.0
Mg419 Mg 0.53042 0.50216 0.02213 0.0
O420 O 0.59028 0.49564 1.00992 0.0
Mg421 Mg 0.58984 0.43472 0.99634 0.0
Mg422 Mg 0.62713 0.54855 0.05822 0.0
C423 C 0.55297 0.59311 0.10651 0.0
C424 C 0.62019 0.59637 0.981 0.0
O425 O 0.3674 0.46579 1.01849 0.0
O426 O 0.39466 0.53964 0.06391 0.0
O427 O 0.45593 0.51483 0.94326 0.0
O428 O 0.48938 0.59018 0.98525 0.0
O429 O 0.52282 0.60577 0.09924 0.0
O430 O 0.55827 0.55679 0.08228 0.0
C431 C 0.44078 0.40792 0.06311 0.0
O432 O 0.48573 0.43945 0.06403 0.0
O433 O 0.41562 0.40509 0.03461 0.0
O434 O 0.69345 0.53898 0.02618 0.0
O435 O 0.66643 0.46538 0.98041 0.0
O436 O 0.60519 0.48955 0.10113 0.0
C437 C 0.70071 0.5068 0.99634 0.0
O438 O 0.57207 0.4142 0.05912 0.0
O439 O 0.53825 0.39873 0.94506 0.0
C440 C 0.58427 0.44228 0.09627 0.0
O441 O 0.50245 0.44738 0.96208 0.0
O442 O 0.57523 0.56484 0.98004 0.0
O443 O 0.64519 0.59932 1.00971 0.0
C444 C 0.92126 0.59097 0.60297 0.0
C445 C 0.97358 0.58201 0.46751 0.0
C446 C 0.95134 0.40114 0.46724 0.0
Mg447 Mg 1.02144 0.60691 0.55271 0.0
O448 O 0.99599 0.53947 0.55171 0.0
Mg449 Mg 0.93104 0.49436 0.5295 0.0
Mg450 Mg 0.03281 0.50196 0.52105 0.0
O451 O 0.06944 0.46438 0.49031 0.0
Mg452 Mg 0.04348 0.3969 0.49072 0.0
Mg453 Mg 0.13428 0.50952 0.51281 0.0
C454 C 0.11395 0.60262 0.57557 0.0
C455 C 0.117 0.56535 0.44963 0.0
O456 O 0.90136 0.54674 0.58036 0.0
O457 O 0.96692 0.61872 0.59903 0.0
O458 O 0.94483 0.5397 0.47758 0.0
O459 O 1.00893 0.61381 0.49011 0.0
O460 O 0.0914 0.62685 0.57471 0.0
O461 O 0.09741 0.55621 0.55924 0.0
C462 C 0.95015 0.44203 0.59501 0.0
O463 O 0.99352 0.45437 0.57731 0.0
O464 O 0.92196 0.453 0.58181 0.0
O465 O 0.16352 0.45692 0.46144 0.0
O466 O 0.09769 0.3845 0.4445 0.0
O467 O 0.12018 0.46397 0.56407 0.0
C468 C 0.14328 0.41229 0.4396 0.0
O469 O 0.05578 0.39007 0.55372 0.0
O470 O 0.97358 0.3767 0.46838 0.0
C471 C 0.09164 0.4224 0.57547 0.0
O472 O 0.9681 0.44758 0.48342 0.0
O473 O 0.07265 0.55055 0.4653 0.0
O474 O 0.14471 0.55358 0.46255 0.0
C475 C 0.44451 0.11453 0.60093 0.0
C476 C 0.50128 0.10693 0.46836 0.0
C477 C 0.44345 0.91188 0.46583 0.0
Mg478 Mg 0.54018 0.11567 0.55337 0.0
O479 O 0.50426 0.04753 0.55163 0.0
Mg480 Mg 0.44053 0.01327 0.52619 0.0
Mg481 Mg 0.53217 0.0017 0.52084 0.0
O482 O 0.55991 0.95582 0.48996 0.0
Mg483 Mg 0.52388 0.88748 0.48739 0.0
Mg484 Mg 0.62374 0.98997 0.51508 0.0
C485 C 0.62135 0.09198 0.57447 0.0
C486 C 0.62366 0.05779 0.453 0.0
O487 O 0.42113 0.07109 0.57827 0.0
O488 O 0.49067 0.13803 0.59798 0.0
O489 O 0.46603 0.0659 0.47646 0.0
O490 O 0.53723 0.13078 0.49156 0.0
O491 O 0.60587 0.12225 0.57277 0.0
O492 O 0.59698 0.04488 0.56216 0.0
C493 C 0.44038 0.94548 0.58854 0.0
O494 O 0.48338 0.9536 0.57277 0.0
O495 O 0.41823 0.96381 0.57575 0.0
O496 O 0.64311 0.9324 0.4627 0.0
O497 O 0.57367 0.86559 0.44258 0.0
O498 O 0.59812 0.9369 0.5645 0.0
C499 C 0.61984 0.88914 0.43973 0.0
O500 O 0.52699 0.87193 0.54907 0.0
O501 O 0.45844 0.88108 0.46716 0.0
C502 C 0.56292 0.8957 0.57233 0.0
O503 O 0.46773 0.9587 0.47942 0.0
O504 O 0.58073 0.04972 0.46892 0.0
O505 O 0.64591 0.0395 0.46567 0.0
C506 C 0.14667 0.1003 0.3463 0.0
C507 C 0.19671 0.13076 0.34662 0.0
H508 H 0.0829 0.04606 0.37624 0.0
C509 C 0.22115 0.12642 0.3764 0.0
H510 H 0.12667 0.10264 0.32384 0.0
C511 C 0.19629 0.09376 0.40592 0.0
C512 C 0.14601 0.06501 0.40718 0.0
H513 H 0.2597 0.14887 0.37737 0.0
H514 H 0.21637 0.09262 0.42907 0.0
C515 C 0.12155 0.0681 0.37652 0.0
C516 C 1.02142 0.14292 0.34486 0.0
C517 C 0.97367 0.1211 0.33411 0.0
H518 H 0.06993 0.14342 0.38301 0.0
C519 C 0.93972 0.07685 0.34823 0.0
H520 H 0.04876 0.1763 0.33347 0.0
C521 C 0.95202 0.05757 0.37601 0.0
C522 C 0.9984 0.08239 0.39061 0.0
H523 H 0.90263 0.05896 0.34061 0.0
H524 H 0.92405 0.02528 0.38864 0.0
C525 C 0.03371 0.12371 0.37283 0.0
C526 C 0.88135 0.88702 0.38002 0.0
C527 C 0.86875 0.83734 0.3622 0.0
H528 H 0.91091 0.94677 0.43327 0.0
C529 C 0.87039 0.80786 0.38768 0.0
H530 H 0.8792 0.91027 0.3615 0.0
C531 C 0.88717 0.82829 0.42911 0.0
C532 C 0.90382 0.879 0.44552 0.0
H533 H 0.85965 0.76907 0.37533 0.0
H534 H 0.89017 0.80485 0.44678 0.0
C535 C 0.89882 0.90772 0.42137 0.0
C536 C 0.14286 0.82686 0.3754 0.0
C537 C 0.10267 0.78175 0.36233 0.0
H538 H 0.17204 0.88964 0.4259 0.0
C539 C 0.06595 0.75901 0.3935 0.0
H540 H 0.17293 0.84358 0.3519 0.0
C541 C 0.06595 0.78485 0.43628 0.0
C542 C 0.10237 0.83375 0.44752 0.0
H543 H 0.03586 0.72321 0.38404 0.0
H544 H 0.03478 0.76869 0.45896 0.0
C545 C 0.14291 0.85269 0.41796 0.0
C546 C 0.04412 0.85344 0.69172 0.0
C547 C 0.09109 0.87867 0.70501 0.0
H548 H 0.99546 0.84999 0.65184 0.0
C549 C 0.12252 0.9253 0.69413 0.0
H550 H 1.01894 0.81752 0.69973 0.0
C551 C 0.10915 0.94383 0.66652 0.0
C552 C 0.06404 0.91608 0.64934 0.0
H553 H 0.15842 0.94631 0.70506 0.0
H554 H 0.13545 0.97829 0.65626 0.0
C555 C 1.03062 0.87213 0.66426 0.0
C556 C 0.1814 0.11359 0.66095 0.0
C557 C 0.19648 0.16407 0.67678 0.0
H558 H 0.14917 0.05225 0.60967 0.0
C559 C 0.19679 0.193 0.64954 0.0
H560 H 0.18205 0.09066 0.68082 0.0
C561 C 0.17918 0.17139 0.60849 0.0
C562 C 0.15996 0.12012 0.59413 0.0
H563 H 0.20983 0.23233 0.66015 0.0
H564 H 0.17773 0.19457 0.58943 0.0
C565 C 0.16322 0.09175 0.61993 0.0
C566 C 0.99749 0.23827 0.64854 0.0
C567 C 0.95979 0.21508 0.67884 0.0
H568 H 1.02986 0.22988 0.58343 0.0
C569 C 0.91936 0.17079 0.66457 0.0
H570 H 1.02782 0.27355 0.65889 0.0
C571 C 0.9199 0.14597 0.62168 0.0
C572 C 0.96122 0.16509 0.59297 0.0
H573 H 0.88855 0.15384 0.68735 0.0
H574 H 0.8904 0.10951 0.61278 0.0
C575 C 0.99806 0.21347 0.60542 0.0
C576 C 0.84235 0.87462 0.66539 0.0
C577 C 0.86688 0.86999 0.69489 0.0
H578 H 0.84705 0.90814 0.61256 0.0
C579 C 0.91708 0.89966 0.69451 0.0
H580 H 0.80369 0.85277 0.66496 0.0
C581 C 0.9422 0.93139 0.66391 0.0
C582 C 0.91762 0.93472 0.63351 0.0
H583 H 0.93715 0.89704 0.71671 0.0
H584 H 0.98094 0.95288 0.6637 0.0
C585 C 0.86724 0.90677 0.63546 0.0
C586 C 0.37512 0.15433 0.20637 0.0
C587 C 0.3309 0.14542 0.19465 0.0
H588 H 0.43603 0.14045 0.18897 0.0
C589 C 0.3124 0.11071 0.15651 0.0
H590 H 0.39083 0.181 0.23526 0.0
C591 C 0.33811 0.08628 0.13041 0.0
C592 C 0.38333 0.09714 0.14136 0.0
H593 H 0.27854 0.10305 0.14648 0.0
H594 H 0.3238 0.0608 0.10056 0.0
C595 C 0.4012 0.13107 0.17982 0.0
C596 C 0.9072 0.35935 0.16598 0.0
C597 C 0.86177 0.35435 0.18538 0.0
H598 H 0.96736 0.3922 0.12022 0.0
C599 C 0.84256 0.38034 0.17281 0.0
H600 H 0.92327 0.34002 0.17493 0.0
C601 C 0.86779 0.40997 0.14116 0.0
C602 C 0.91298 0.41459 0.12144 0.0
H603 H 0.80762 0.3772 0.18681 0.0
H604 H 0.85161 0.42913 0.13209 0.0
C605 C 0.93258 0.38926 0.13449 0.0
C606 C 0.64557 0.86786 0.11887 0.0
C607 C 0.68683 0.90709 0.13809 0.0
H608 H 0.58693 0.84625 0.08157 0.0
C609 C 0.69578 0.95566 0.14052 0.0
H610 H 0.63768 0.82997 0.11664 0.0
C611 C 0.66652 0.96496 0.12086 0.0
C612 C 0.62786 0.92587 0.09797 0.0
H613 H 0.7266 0.98656 0.15611 0.0
H614 H 0.67614 0.00299 0.12119 0.0
C615 C 0.61629 0.87717 0.09899 0.0
C616 C 0.2062 0.59665 0.14978 0.0
C617 C 0.24462 0.64353 0.14582 0.0
H618 H 0.13655 0.54113 0.12964 0.0
C619 C 0.24525 0.66709 0.11326 0.0
H620 H 0.20472 0.57759 0.17447 0.0
C621 C 0.20582 0.64723 0.08896 0.0
C622 C 0.16574 0.60246 0.09544 0.0
H623 H 0.27471 0.70293 0.10886 0.0
H624 H 0.20582 0.66791 0.0664 0.0
C625 C 0.16715 0.57597 0.12431 0.0
C626 C 0.36729 0.80567 0.88346 0.0
C627 C 0.34384 0.83141 0.87854 0.0
H628 H 0.41855 0.80517 0.91728 0.0
C629 C 0.35086 0.87537 0.90802 0.0
H630 H 0.36091 0.77072 0.86223 0.0
C631 C 0.38347 0.89507 0.93995 0.0
C632 C 0.40949 0.87101 0.94318 0.0
H633 H 0.33248 0.89553 0.90538 0.0
H634 H 0.38973 0.93014 0.96077 0.0
C635 C 0.39965 0.82512 0.91554 0.0
C636 C 0.22105 0.36277 0.87586 0.0
C637 C 0.19877 0.31141 0.8605 0.0
H638 H 0.21319 0.42581 0.91263 0.0
C639 C 0.14905 0.28422 0.87104 0.0
H640 H 0.25928 0.38502 0.86842 0.0
C641 C 0.12228 0.30796 0.89589 0.0
C642 C 0.14474 0.35937 0.91144 0.0
H643 H 0.13066 0.24473 0.85949 0.0
H644 H 0.08404 0.28589 0.90337 0.0
C645 C 0.19456 0.3863 0.90125 0.0
C646 C 0.65224 0.10728 0.83673 0.0
C647 C 0.65141 0.1527 0.84519 0.0
H648 H 0.63691 0.04413 0.86201 0.0
C649 C 0.62524 0.16443 0.88349 0.0
H650 H 0.67159 0.09684 0.80729 0.0
C651 C 0.60459 0.13346 0.91478 0.0
C652 C 0.61048 0.09097 0.90806 0.0
H653 H 0.62425 0.19931 0.89102 0.0
H654 H 0.58767 0.14479 0.94556 0.0
C655 C 0.63253 0.07709 0.86805 0.0
C656 C 0.946 0.64299 0.90001 0.0
C657 C 0.97606 0.69393 0.9019 0.0
H658 H 0.93236 0.5769 0.91904 0.0
C659 C 1.01991 0.7157 0.92101 0.0
H660 H 0.91181 0.62474 0.88591 0.0
C661 C 0.03174 0.68808 0.94038 0.0
C662 C 1.0 0.63791 0.94117 0.0
H663 H 0.04457 0.75455 0.92221 0.0
H664 H 0.06455 0.70679 0.95678 0.0
C665 C 0.95786 0.61539 0.91921 0.0
C666 C 0.1188 0.35937 0.14105 0.0
C667 C 0.08859 0.3085 0.13949 0.0
H668 H 0.13246 0.42535 0.1218 0.0
C669 C 0.04454 0.28678 0.1207 0.0
H670 H 0.15314 0.37758 0.15488 0.0
C671 C 0.03265 0.31434 0.10135 0.0
C672 C 0.06449 0.36441 0.10026 0.0
H673 H 1.01977 0.24799 0.11976 0.0
H674 H 0.99966 0.29566 0.08522 0.0
C675 C 0.10687 0.38692 0.12188 0.0
C676 C 0.22238 0.62334 0.86981 0.0
C677 C 0.20337 0.64969 0.85757 0.0
H678 H 0.21284 0.57366 0.90979 0.0
C679 C 0.15775 0.64436 0.8767 0.0
H680 H 0.25741 0.62664 0.85596 0.0
C681 C 0.13203 0.61381 0.90766 0.0
C682 C 0.15144 0.58814 0.92043 0.0
H683 H 0.14178 0.6639 0.86795 0.0
H684 H 0.09714 0.61067 0.92176 0.0
C685 C 0.19679 0.59306 0.90092 0.0
C686 C 0.41921 0.13621 0.92169 0.0
C687 C 0.3782 0.09684 0.90222 0.0
H688 H 0.47768 0.15805 0.95931 0.0
C689 C 0.36965 0.04836 0.89954 0.0
H690 H 0.42684 0.17404 0.92404 0.0
C691 C 0.39915 0.03924 0.91908 0.0
C692 C 0.43735 0.0784 0.94241 0.0
H693 H 0.33911 0.01736 0.88365 0.0
H694 H 0.39017 0.00127 0.91818 0.0
C695 C 0.44855 0.12707 0.94168 0.0
C696 C 0.85624 0.40548 0.89378 0.0
C697 C 0.81918 0.35747 0.89594 0.0
H698 H 0.9249 0.46214 0.9153 0.0
C699 C 0.81956 0.33278 0.92702 0.0
H700 H 0.85681 0.42549 0.87034 0.0
C701 C 0.85884 0.35294 0.95156 0.0
C702 C 0.89782 0.39897 0.94668 0.0
H703 H 0.7911 0.29604 0.93008 0.0
H704 H 0.85969 0.33153 0.97292 0.0
C705 C 0.89521 0.42632 0.91938 0.0
C706 C 0.75211 0.89248 0.88485 0.0
C707 C 0.73366 0.85787 0.84665 0.0
H708 H 0.74081 0.94261 0.94063 0.0
C709 C 0.68982 0.84951 0.83453 0.0
H710 H 0.78568 0.89973 0.89517 0.0
C711 C 0.66398 0.87314 0.8608 0.0
C712 C 0.68174 0.90689 0.89935 0.0
H713 H 0.67417 0.82293 0.80558 0.0
H714 H 0.62937 0.86414 0.85141 0.0
C715 C 0.72664 0.91728 0.91068 0.0
C716 C 0.91385 0.71749 0.16887 0.0
C717 C 0.86429 0.69007 0.18002 0.0
H718 H 0.97892 0.7161 0.13634 0.0
C719 C 0.84236 0.63857 0.16557 0.0
H720 H 0.93199 0.7571 0.17973 0.0
C721 C 0.86904 0.61512 0.1404 0.0
C722 C 0.91872 0.64231 0.1296 0.0
H723 H 0.80427 0.61616 0.17353 0.0
H724 H 0.8507 0.57548 0.12967 0.0
C725 C 0.94082 0.69385 0.14431 0.0
C726 C 0.41165 0.89523 0.20257 0.0
C727 C 0.41278 0.84995 0.19375 0.0
H728 H 0.4272 0.95885 0.17796 0.0
C729 C 0.43968 0.83891 0.15575 0.0
H730 H 0.39168 0.90505 0.23183 0.0
C731 C 0.46072 0.87044 0.12493 0.0
C732 C 0.45453 0.91278 0.13187 0.0
H733 H 0.44083 0.80411 0.148 0.0
H734 H 0.4781 0.8596 0.09424 0.0
C735 C 0.43183 0.92602 0.17173 0.0
C736 C 0.71491 0.12879 0.1312 0.0
C737 C 0.72155 0.17274 0.16032 0.0
H738 H 0.67588 0.07363 0.07864 0.0
C739 C 0.69767 0.19807 0.15514 0.0
H740 H 0.7333 0.10886 0.13435 0.0
C741 C 0.66537 0.17841 0.12328 0.0
C742 C 0.65579 0.13259 0.09596 0.0
H743 H 0.70313 0.23276 0.17648 0.0
H744 H 0.6461 0.19808 0.12177 0.0
C745 C 0.68214 0.10878 0.09927 0.0
C746 C 0.64913 0.6446 0.8735 0.0
C747 C 0.6999 0.66985 0.87023 0.0
H748 H 0.584 0.60141 0.91054 0.0
C749 C 0.72337 0.67292 0.9049 0.0
H750 H 0.62968 0.64173 0.84765 0.0
C751 C 0.6972 0.65126 0.94143 0.0
C752 C 0.6465 0.62486 0.94445 0.0
H753 H 0.76227 0.69252 0.9041 0.0
H754 H 0.71716 0.65439 0.96697 0.0
C755 C 0.62281 0.62191 0.90988 0.0
C756 C 0.50554 0.66115 0.88613 0.0
C757 C 0.4743 0.6342 0.85273 0.0
H758 H 0.53204 0.65911 0.94199 0.0
C759 C 0.45059 0.58241 0.84636 0.0
H760 H 0.52509 0.70105 0.8911 0.0
C761 C 0.45468 0.55823 0.87539 0.0
C762 C 0.48237 0.58558 0.91132 0.0
H763 H 0.42622 0.56072 0.82085 0.0
H764 H 0.43345 0.5185 0.87145 0.0
C765 C 0.5096 0.63706 0.91513 0.0
C766 C 0.43249 0.38241 0.84712 0.0
C767 C 0.40924 0.33078 0.83918 0.0
H768 H 0.48217 0.44839 0.88537 0.0
C769 C 0.42276 0.30568 0.8602 0.0
H770 H 0.42249 0.4025 0.83145 0.0
C771 C 0.45721 0.33184 0.89064 0.0
C772 C 0.47762 0.38332 0.9011 0.0
H773 H 0.40541 0.26577 0.85428 0.0
H774 H 0.46574 0.31177 0.90775 0.0
C775 C 0.46611 0.4085 0.87825 0.0
C776 C 0.76963 0.55482 0.90051 0.0
C777 C 0.77734 0.51412 0.88007 0.0
H778 H 0.74142 0.58691 0.9589 0.0
C779 C 0.78164 0.48679 0.90634 0.0
H780 H 0.76685 0.57682 0.88099 0.0
C781 C 0.76484 0.49095 0.95057 0.0
C782 C 0.74605 0.52398 0.96856 0.0
H783 H 0.7884 0.45561 0.8914 0.0
H784 H 0.75883 0.46292 0.96816 0.0
C785 C 0.75503 0.56048 0.94531 0.0
C786 C 0.55868 0.34356 0.15764 0.0
C787 C 0.59009 0.37089 0.19088 0.0
H788 H 0.53101 0.34503 0.10223 0.0
C789 C 0.61303 0.42269 0.19733 0.0
H790 H 0.5397 0.30364 0.1526 0.0
C791 C 0.60794 0.44655 0.1686 0.0
C792 C 0.58 0.41891 0.13287 0.0
H793 H 0.6375 0.44472 0.22271 0.0
H794 H 0.62859 0.48633 0.17261 0.0
C795 C 0.5536 0.36734 0.12895 0.0
C796 C 0.64003 0.69846 0.18261 0.0
C797 C 0.65351 0.67314 0.20341 0.0
H798 H 0.59647 0.69268 0.13576 0.0
C799 C 0.62933 0.62153 0.19616 0.0
H800 H 0.65801 0.73838 0.18809 0.0
C801 C 0.59492 0.59561 0.16577 0.0
C802 C 0.58358 0.62095 0.14295 0.0
H803 H 0.63919 0.60126 0.21172 0.0
H804 H 0.57821 0.55568 0.15905 0.0
C805 C 0.60485 0.67249 0.15287 0.0
C806 C 0.27846 0.51911 0.13712 0.0
C807 C 0.28069 0.49062 0.1635 0.0
H808 H 0.30385 0.54403 0.07579 0.0
C809 C 0.28781 0.44952 0.14309 0.0
H810 H 0.27231 0.55067 0.15196 0.0
C811 C 0.30395 0.44451 0.0986 0.0
C812 C 0.31461 0.48173 0.07554 0.0
H813 H 0.28901 0.42661 0.16264 0.0
H814 H 0.31706 0.41763 0.08527 0.0
C815 C 0.2965 0.51538 0.09322 0.0
C816 C 0.41291 0.35798 0.16941 0.0
C817 C 0.36213 0.33327 0.17328 0.0
H818 H 0.47772 0.40109 0.13203 0.0
C819 C 0.33823 0.33126 0.13945 0.0
H820 H 0.43265 0.36003 0.19463 0.0
C821 C 0.36402 0.35341 0.1031 0.0
C822 C 0.41475 0.37917 0.09946 0.0
H823 H 0.29929 0.31214 0.14077 0.0
H824 H 0.34378 0.35116 0.07821 0.0
C825 C 0.43886 0.38111 0.13321 0.0
C826 C 0.81776 0.62054 0.65941 0.0
C827 C 0.84165 0.66229 0.69146 0.0
H828 H 0.82362 0.56454 0.60641 0.0
C829 C 0.89035 0.67738 0.69531 0.0
H830 H 0.78033 0.60765 0.65539 0.0
C831 C 0.91484 0.65318 0.66747 0.0
C832 C 0.89182 0.61241 0.63462 0.0
H833 H 0.91042 0.70888 0.71955 0.0
H834 H 0.95248 0.66711 0.67153 0.0
C835 C 0.84256 0.59571 0.6314 0.0
C836 C 0.34479 0.87987 0.67419 0.0
C837 C 0.3638 0.85316 0.68579 0.0
H838 H 0.35382 0.92955 0.63449 0.0
C839 C 0.4091 0.8581 0.66596 0.0
H840 H 0.31001 0.87689 0.68861 0.0
C841 C 0.43445 0.88854 0.63483 0.0
C842 C 0.4149 0.91437 0.62255 0.0
H843 H 0.42505 0.83829 0.67428 0.0
H844 H 0.46905 0.89135 0.62012 0.0
C845 C 0.36994 0.90995 0.64288 0.0
C846 C 0.12679 0.35052 0.62688 0.0
C847 C 0.16494 0.38938 0.65047 0.0
H848 H 0.07217 0.33033 0.58501 0.0
C849 C 0.17105 0.4375 0.65663 0.0
H850 H 0.12112 0.31296 0.62177 0.0
C851 C 0.14277 0.44733 0.63616 0.0
C852 C 0.10797 0.4093 0.60867 0.0
H853 H 0.19942 0.46799 0.67548 0.0
H854 H 0.15074 0.4854 0.63921 0.0
C855 C 0.09848 0.3604 0.60609 0.0
C856 C 0.69431 0.11896 0.66586 0.0
C857 C 0.72526 0.16943 0.66658 0.0
H858 H 0.63724 0.05325 0.63405 0.0
C859 C 0.72976 0.18997 0.63055 0.0
H860 H 0.68965 0.10273 0.69386 0.0
C861 C 0.69975 0.162 0.59665 0.0
C862 C 0.66456 0.1131 0.59842 0.0
H863 H 0.75294 0.22901 0.63082 0.0
H864 H 0.70072 0.18015 0.5714 0.0
C865 C 0.66433 0.0907 0.63164 0.0
C866 C 0.86442 0.30855 0.38348 0.0
C867 C 0.84435 0.33604 0.37546 0.0
H868 H 0.91298 0.30691 0.41982 0.0
C869 C 0.85517 0.38272 0.40143 0.0
H870 H 0.85481 0.27157 0.36525 0.0
C871 C 0.88788 0.40293 0.43323 0.0
C872 C 0.91008 0.37658 0.43992 0.0
H873 H 0.8394 0.40429 0.39626 0.0
H874 H 0.89697 0.43983 0.45139 0.0
C875 C 0.89695 0.32856 0.41544 0.0
C876 C 0.65617 0.79074 0.37684 0.0
C877 C 0.69807 0.81795 0.35159 0.0
H878 H 0.59788 0.79179 0.42364 0.0
C879 C 0.71427 0.86887 0.35573 0.0
H880 H 0.64287 0.7515 0.37426 0.0
C881 C 0.68947 0.89222 0.38494 0.0
C882 C 0.64699 0.86486 0.40954 0.0
H883 H 0.74667 0.89085 0.33685 0.0
H884 H 0.70302 0.93153 0.3877 0.0
C885 C 0.63041 0.81379 0.40493 0.0
C886 C 0.14762 0.62167 0.34707 0.0
C887 C 0.1968 0.65492 0.35128 0.0
H888 H 0.08252 0.56652 0.37548 0.0
C889 C 0.21594 0.66274 0.39048 0.0
H890 H 0.13178 0.61513 0.31732 0.0
C891 C 0.18817 0.63591 0.42325 0.0
C892 C 0.14022 0.59992 0.41809 0.0
H893 H 0.25328 0.68866 0.39545 0.0
H894 H 0.20516 0.64191 0.45216 0.0
C895 C 0.1194 0.59411 0.38036 0.0
C896 C 0.51118 0.2095 0.41977 0.0
C897 C 0.4686 0.18558 0.3984 0.0
H898 H 0.55576 0.20327 0.45761 0.0
C899 C 0.44171 0.13393 0.3939 0.0
H900 H 0.53289 0.24916 0.42397 0.0
C901 C 0.45468 0.10755 0.4135 0.0
C902 C 0.4951 0.13205 0.43791 0.0
H903 H 0.40952 0.11396 0.37652 0.0
H904 H 0.43148 0.06827 0.41144 0.0
C905 C 0.52437 0.18304 0.43912 0.0
C906 C 0.55301 0.79291 0.62078 0.0
C907 C 0.59548 0.8168 0.64234 0.0
H908 H 0.5086 0.79918 0.58275 0.0
C909 C 0.62242 0.86844 0.64679 0.0
H910 H 0.53128 0.75325 0.61658 0.0
C911 C 0.60954 0.89485 0.62711 0.0
C912 C 0.56915 0.87041 0.60263 0.0
H913 H 0.65453 0.88842 0.66428 0.0
H914 H 0.63274 0.93413 0.62923 0.0
C915 C 0.53992 0.8194 0.60132 0.0
C916 C 0.6548 0.14551 0.37601 0.0
C917 C 0.69982 0.15002 0.3558 0.0
H918 H 0.59512 0.1125 0.42213 0.0
C919 C 0.71856 0.12276 0.36681 0.0
H920 H 0.6391 0.16575 0.36807 0.0
C921 C 0.69352 0.09268 0.39809 0.0
C922 C 0.64891 0.08877 0.41892 0.0
H923 H 0.75315 0.12542 0.35205 0.0
H924 H 0.70948 0.07271 0.40611 0.0
C925 C 0.6295 0.115 0.40708 0.0
C926 C 0.93854 0.65782 0.42193 0.0
C927 C 0.90249 0.62072 0.39514 0.0
H928 H 0.99112 0.67496 0.4647 0.0
C929 C 0.89754 0.57271 0.3856 0.0
H930 H 0.94384 0.6954 0.42926 0.0
C931 C 0.92477 0.56107 0.40573 0.0
C932 C 0.95783 0.59726 0.43558 0.0
H933 H 0.8701 0.54324 0.36519 0.0
H934 H 0.9174 0.52292 0.40035 0.0
C935 C 0.9662 0.64628 0.44172 0.0
C936 C 0.33539 0.81737 0.40713 0.0
C937 C 0.34285 0.83832 0.37052 0.0
H938 H 0.36144 0.82538 0.46749 0.0
C939 C 0.37623 0.88818 0.3712 0.0
H940 H 0.31044 0.77872 0.40687 0.0
C941 C 0.40509 0.91532 0.40632 0.0
C942 C 0.40167 0.89227 0.44036 0.0
H943 H 0.38325 0.90466 0.34278 0.0
H944 H 0.43373 0.9522 0.40415 0.0
C945 C 0.36467 0.84406 0.44175 0.0
C946 C 0.24603 0.38197 0.38216 0.0
C947 C 0.22144 0.33939 0.35109 0.0
H948 H 0.24117 0.43912 0.43437 0.0
C949 C 0.17248 0.32392 0.34815 0.0
H950 H 0.2837 0.39519 0.38544 0.0
C951 C 0.14843 0.34864 0.37594 0.0
C952 C 0.17219 0.3903 0.40783 0.0
H953 H 0.1519 0.29178 0.32466 0.0
H954 H 0.11056 0.3344 0.37262 0.0
C955 C 0.22168 0.40729 0.41013 0.0
C956 C 0.40876 0.2135 0.66347 0.0
C957 C 0.36684 0.1865 0.6888 0.0
H958 H 0.46691 0.21201 0.61668 0.0
C959 C 0.35037 0.13554 0.68473 0.0
H960 H 0.42226 0.25276 0.66598 0.0
C961 C 0.37496 0.11193 0.65558 0.0
C962 C 0.41749 0.13907 0.63095 0.0
H963 H 0.31792 0.11371 0.70365 0.0
H964 H 0.36121 0.07261 0.65293 0.0
C965 C 0.43432 0.19018 0.63542 0.0
C966 C 0.90801 0.34981 0.67136 0.0
C967 C 0.87605 0.36365 0.70155 0.0
H968 H 0.95761 0.36415 0.61311 0.0
C969 C 0.87514 0.40696 0.69972 0.0
H970 H 0.90937 0.31645 0.67204 0.0
C971 C 0.90224 0.43377 0.66671 0.0
C972 C 0.93126 0.41821 0.63425 0.0
H973 H 0.85203 0.4194 0.72299 0.0
H974 H 0.89875 0.46582 0.66546 0.0
C975 C 0.93556 0.37703 0.63774 0.0
C976 C 0.21127 0.62208 0.64077 0.0
C977 C 0.2212 0.66831 0.66738 0.0
H978 H 0.16998 0.56507 0.59035 0.0
C979 C 0.20005 0.69513 0.66004 0.0
H980 H 0.22778 0.60098 0.64544 0.0
C981 C 0.16754 0.67501 0.62804 0.0
C982 C 0.15526 0.62739 0.60292 0.0
H983 H 0.20868 0.73168 0.67894 0.0
H984 H 0.15075 0.6962 0.6242 0.0
C985 C 0.17841 0.60166 0.609 0.0
loop_
_geom_bond_atom_site_label_1
_geom_bond_atom_site_label_2
_geom_bond_distance
_geom_bond_site_symmetry_2
_ccdc_geom_bond_type
Eu0 C9 2.828 . S
Eu0 O11 2.392 . S
Eu0 O13 2.418 . S
Eu0 O18 2.373 . S
Eu0 O21 2.488 . S
Eu0 O22 2.471 . S
Eu0 O23 2.349 . S
Eu1 O10 2.373 . S
Eu1 O14 2.488 . S
Eu1 O15 2.471 . S
Eu1 O16 2.349 . S
Eu1 O19 2.392 . S
Eu1 O20 2.418 . S
Eu1 C30 2.828 . S
C2 O20 1.244 . S
C2 O23 1.265 . S
C3 C4 1.379 . S
C3 C7 1.373 . S
C3 C9 1.505 . S
C4 C3 1.379 . S
C4 C6 1.369 . S
C4 H32 0.930 . S
C5 C7 1.383 . S
C5 C8 1.382 . S
C5 H33 0.930 . S
C6 C4 1.369 . S
C6 C8 1.392 . S
C6 H34 0.930 . S
C7 C3 1.373 . S
C7 C5 1.383 . S
C7 H35 0.931 . S
C8 C5 1.382 . S
C8 C6 1.392 . S
C9 Eu0 2.828 . S
C9 C3 1.505 . S
C9 O21 1.249 . S
C9 O22 1.244 . S
O10 Eu1 2.373 . S
O10 C12 1.258 . S
O11 Eu0 2.392 . S
O11 C12 1.242 . S
C12 O10 1.258 . S
C12 O11 1.242 . S
O13 Eu0 2.418 . S
O13 C17 1.244 . S
O14 Eu1 2.488 . S
O14 C30 1.249 . S
O15 Eu1 2.471 . S
O15 C30 1.244 . S
O16 Eu1 2.349 . S
O16 C17 1.265 . S
C17 O13 1.244 . S
C17 O16 1.265 . S
O18 Eu0 2.373 . S
O18 C31 1.258 . S
O19 Eu1 2.392 . S
O19 C31 1.242 . S
O20 Eu1 2.418 . S
O20 C2 1.244 . S
O21 Eu0 2.488 . S
O21 C9 1.249 . S
O22 Eu0 2.471 . S
O22 C9 1.244 . S
O23 Eu0 2.349 . S
O23 C2 1.265 . S
C24 C25 1.379 . S
C24 C28 1.373 . S
C24 C30 1.505 . S
C25 C24 1.379 . S
C25 C27 1.369 . S
C25 H36 0.930 . S
C26 C28 1.383 . S
C26 C29 1.382 . S
C26 H37 0.930 . S
C27 C25 1.369 . S
C27 C29 1.392 . S
C27 H38 0.930 . S
C28 C24 1.373 . S
C28 C26 1.383 . S
C28 H39 0.931 . S
C29 C26 1.382 . S
C29 C27 1.392 . S
C30 Eu1 2.828 . S
C30 O14 1.249 . S
C30 O15 1.244 . S
C30 C24 1.505 . S
C31 O18 1.258 . S
C31 O19 1.242 . S
H32 C4 0.930 . S
H33 C5 0.930 . S
H34 C6 0.930 . S
H35 C7 0.931 . S
H36 C25 0.930 . S
H37 C26 0.930 . S
H38 C27 0.930 . S
H39 C28 0.931 . S
Eu40 C49 2.828 . S
Eu40 O51 2.392 . S
Eu40 O53 2.418 . S
Eu40 O58 2.373 . S
Eu40 O61 2.488 . S
Eu40 O62 2.471 . S
Eu40 O63 2.349 . S
Eu41 O50 2.373 . S
Eu41 O54 2.488 . S
Eu41 O55 2.471 . S
Eu41 O56 2.349 . S
Eu41 O59 2.392 . S
Eu41 O60 2.418 . S
Eu41 C70 2.828 . S
C42 O60 1.244 . S
C42 O63 1.265 . S
C43 C44 1.379 . S
C43 C47 1.373 . S
C43 C49 1.505 . S
C44 C43 1.379 . S
C44 C46 1.369 . S
C44 H72 0.930 . S
C45 C47 1.383 . S
C45 C48 1.382 . S
C45 H73 0.930 . S
C46 C44 1.369 . S
C46 C48 1.392 . S
C46 H74 0.930 . S
C47 C43 1.373 . S
C47 C45 1.383 . S
C47 H75 0.931 . S
C48 C45 1.382 . S
C48 C46 1.392 . S
C49 Eu40 2.828 . S
C49 C43 1.505 . S
C49 O61 1.249 . S
C49 O62 1.244 . S
O50 Eu41 2.373 . S
O50 C52 1.258 . S
O51 Eu40 2.392 . S
O51 C52 1.242 . S
C52 O50 1.258 . S
C52 O51 1.242 . S
O53 Eu40 2.418 . S
O53 C57 1.244 . S
O54 Eu41 2.488 . S
O54 C70 1.249 . S
O55 Eu41 2.471 . S
O55 C70 1.244 . S
O56 Eu41 2.349 . S
O56 C57 1.265 . S
C57 O53 1.244 . S
C57 O56 1.265 . S
O58 Eu40 2.373 . S
O58 C71 1.258 . S
O59 Eu41 2.392 . S
O59 C71 1.242 . S
O60 Eu41 2.418 . S
O60 C42 1.244 . S
O61 Eu40 2.488 . S
O61 C49 1.249 . S
O62 Eu40 2.471 . S
O62 C49 1.244 . S
O63 Eu40 2.349 . S
O63 C42 1.265 . S
C64 C65 1.379 . S
C64 C68 1.373 . S
C64 C70 1.505 . S
C65 C64 1.379 . S
C65 C67 1.369 . S
C65 H76 0.930 . S
C66 C68 1.383 . S
C66 C69 1.382 . S
C66 H77 0.930 . S
C67 C65 1.369 . S
C67 C69 1.392 . S
C67 H78 0.930 . S
C68 C64 1.373 . S
C68 C66 1.383 . S
C68 H79 0.931 . S
C69 C66 1.382 . S
C69 C67 1.392 . S
C70 Eu41 2.828 . S
C70 O54 1.249 . S
C70 O55 1.244 . S
C70 C64 1.505 . S
C71 O58 1.258 . S
C71 O59 1.242 . S
H72 C44 0.930 . S
H73 C45 0.930 . S
H74 C46 0.930 . S
H75 C47 0.931 . S
H76 C65 0.930 . S
H77 C66 0.930 . S
H78 C67 0.930 . S
H79 C68 0.931 . S
Eu80 C89 2.828 . S
Eu80 O91 2.392 . S
Eu80 O93 2.418 . S
Eu80 O98 2.373 . S
Eu80 O101 2.488 . S
Eu80 O102 2.471 . S
Eu80 O103 2.349 . S
Eu81 O90 2.373 . S
Eu81 O94 2.488 . S
Eu81 O95 2.471 . S
Eu81 O96 2.349 . S
Eu81 O99 2.392 . S
Eu81 O100 2.418 . S
Eu81 C110 2.828 . S
C82 O100 1.244 . S
C82 O103 1.265 . S
C83 C84 1.379 . S
C83 C87 1.373 . S
C83 C89 1.505 . S
C84 C83 1.379 . S
C84 C86 1.369 . S
C84 H112 0.930 . S
C85 C87 1.383 . S
C85 C88 1.382 . S
C85 H113 0.930 . S
C86 C84 1.369 . S
C86 C88 1.392 . S
C86 H114 0.930 . S
C87 C83 1.373 . S
C87 C85 1.383 . S
C87 H115 0.931 . S
C88 C85 1.382 . S
C88 C86 1.392 . S
C89 Eu80 2.828 . S
C89 C83 1.505 . S
C89 O101 1.249 . S
C89 O102 1.244 . S
O90 Eu81 2.373 . S
O90 C92 1.258 . S
O91 Eu80 2.392 . S
O91 C92 1.242 . S
C92 O90 1.258 . S
C92 O91 1.242 . S
O93 Eu80 2.418 . S
O93 C97 1.244 . S
O94 Eu81 2.488 . S
O94 C110 1.249 . S
O95 Eu81 2.471 . S
O95 C110 1.244 . S
O96 Eu81 2.349 . S
O96 C97 1.265 . S
C97 O93 1.244 . S
C97 O96 1.265 . S
O98 Eu80 2.373 . S
O98 C111 1.258 . S
O99 Eu81 2.392 . S
O99 C111 1.242 . S
O100 Eu81 2.418 . S
O100 C82 1.244 . S
O101 Eu80 2.488 . S
O101 C89 1.249 . S
O102 Eu80 2.471 . S
O102 C89 1.244 . S
O103 Eu80 2.349 . S
O103 C82 1.265 . S
C104 C105 1.379 . S
C104 C108 1.373 . S
C104 C110 1.505 . S
C105 C104 1.379 . S
C105 C107 1.369 . S
C105 H116 0.930 . S
C106 C108 1.383 . S
C106 C109 1.382 . S
C106 H117 0.930 . S
C107 C105 1.369 . S
C107 C109 1.392 . S
C107 H118 0.930 . S
C108 C104 1.373 . S
C108 C106 1.383 . S
C108 H119 0.931 . S
C109 C106 1.382 . S
C109 C107 1.392 . S
C110 Eu81 2.828 . S
C110 O94 1.249 . S
C110 O95 1.244 . S
C110 C104 1.505 . S
C111 O98 1.258 . S
C111 O99 1.242 . S
H112 C84 0.930 . S
H113 C85 0.930 . S
H114 C86 0.930 . S
H115 C87 0.931 . S
H116 C105 0.930 . S
H117 C106 0.930 . S
H118 C107 0.930 . S
H119 C108 0.931 . S
Eu120 C129 2.828 . S
Eu120 O131 2.392 . S
Eu120 O133 2.418 . S
Eu120 O138 2.373 . S
Eu120 O141 2.488 . S
Eu120 O142 2.471 . S
Eu120 O143 2.349 . S
Eu121 O130 2.373 . S
Eu121 O134 2.488 . S
Eu121 O135 2.471 . S
Eu121 O136 2.349 . S
Eu121 O139 2.392 . S
Eu121 O140 2.418 . S
Eu121 C150 2.828 . S
C122 O140 1.244 . S
C122 O143 1.265 . S
C123 C124 1.379 . S
C123 C127 1.373 . S
C123 C129 1.505 . S
C124 C123 1.379 . S
C124 C126 1.369 . S
C124 H152 0.930 . S
C125 C127 1.383 . S
C125 C128 1.382 . S
C125 H153 0.930 . S
C126 C124 1.369 . S
C126 C128 1.392 . S
C126 H154 0.930 . S
C127 C123 1.373 . S
C127 C125 1.383 . S
C127 H155 0.931 . S
C128 C125 1.382 . S
C128 C126 1.392 . S
C129 Eu120 2.828 . S
C129 C123 1.505 . S
C129 O141 1.249 . S
C129 O142 1.244 . S
O130 Eu121 2.373 . S
O130 C132 1.258 . S
O131 Eu120 2.392 . S
O131 C132 1.242 . S
C132 O130 1.258 . S
C132 O131 1.242 . S
O133 Eu120 2.418 . S
O133 C137 1.244 . S
O134 Eu121 2.488 . S
O134 C150 1.249 . S
O135 Eu121 2.471 . S
O135 C150 1.244 . S
O136 Eu121 2.349 . S
O136 C137 1.265 . S
C137 O133 1.244 . S
C137 O136 1.265 . S
O138 Eu120 2.373 . S
O138 C151 1.258 . S
O139 Eu121 2.392 . S
O139 C151 1.242 . S
O140 Eu121 2.418 . S
O140 C122 1.244 . S
O141 Eu120 2.488 . S
O141 C129 1.249 . S
O142 Eu120 2.471 . S
O142 C129 1.244 . S
O143 Eu120 2.349 . S
O143 C122 1.265 . S
C144 C145 1.379 . S
C144 C148 1.373 . S
C144 C150 1.505 . S
C145 C144 1.379 . S
C145 C147 1.369 . S
C145 H156 0.930 . S
C146 C148 1.383 . S
C146 C149 1.382 . S
C146 H157 0.930 . S
C147 C145 1.369 . S
C147 C149 1.392 . S
C147 H158 0.930 . S
C148 C144 1.373 . S
C148 C146 1.383 . S
C148 H159 0.931 . S
C149 C146 1.382 . S
C149 C147 1.392 . S
C150 Eu121 2.828 . S
C150 O134 1.249 . S
C150 O135 1.244 . S
C150 C144 1.505 . S
C151 O138 1.258 . S
C151 O139 1.242 . S
H152 C124 0.930 . S
H153 C125 0.930 . S
H154 C126 0.930 . S
H155 C127 0.931 . S
H156 C145 0.930 . S
H157 C146 0.930 . S
H158 C147 0.930 . S
H159 C148 0.931 . S
Eu160 C169 2.828 . S
Eu160 O171 2.392 . S
Eu160 O173 2.418 . S
Eu160 O178 2.373 . S
Eu160 O181 2.488 . S
Eu160 O182 2.471 . S
Eu160 O183 2.349 . S
Eu161 O170 2.373 . S
Eu161 O174 2.488 . S
Eu161 O175 2.471 . S
Eu161 O176 2.349 . S
Eu161 O179 2.392 . S
Eu161 O180 2.418 . S
Eu161 C190 2.828 . S
C162 O180 1.244 . S
C162 O183 1.265 . S
C163 C164 1.379 . S
C163 C167 1.373 . S
C163 C169 1.505 . S
C164 C163 1.379 . S
C164 C166 1.369 . S
C164 H192 0.930 . S
C165 C167 1.383 . S
C165 C168 1.382 . S
C165 H193 0.930 . S
C166 C164 1.369 . S
C166 C168 1.392 . S
C166 H194 0.930 . S
C167 C163 1.373 . S
C167 C165 1.383 . S
C167 H195 0.931 . S
C168 C165 1.382 . S
C168 C166 1.392 . S
C169 Eu160 2.828 . S
C169 C163 1.505 . S
C169 O181 1.249 . S
C169 O182 1.244 . S
O170 Eu161 2.373 . S
O170 C172 1.258 . S
O171 Eu160 2.392 . S
O171 C172 1.242 . S
C172 O170 1.258 . S
C172 O171 1.242 . S
O173 Eu160 2.418 . S
O173 C177 1.244 . S
O174 Eu161 2.488 . S
O174 C190 1.249 . S
O175 Eu161 2.471 . S
O175 C190 1.244 . S
O176 Eu161 2.349 . S
O176 C177 1.265 . S
C177 O173 1.244 . S
C177 O176 1.265 . S
O178 Eu160 2.373 . S
O178 C191 1.258 . S
O179 Eu161 2.392 . S
O179 C191 1.242 . S
O180 Eu161 2.418 . S
O180 C162 1.244 . S
O181 Eu160 2.488 . S
O181 C169 1.249 . S
O182 Eu160 2.471 . S
O182 C169 1.244 . S
O183 Eu160 2.349 . S
O183 C162 1.265 . S
C184 C185 1.379 . S
C184 C188 1.373 . S
C184 C190 1.505 . S
C185 C184 1.379 . S
C185 C187 1.369 . S
C185 H196 0.930 . S
C186 C188 1.383 . S
C186 C189 1.382 . S
C186 H197 0.930 . S
C187 C185 1.369 . S
C187 C189 1.392 . S
C187 H198 0.930 . S
C188 C184 1.373 . S
C188 C186 1.383 . S
C188 H199 0.931 . S
C189 C186 1.382 . S
C189 C187 1.392 . S
C190 Eu161 2.828 . S
C190 O174 1.249 . S
C190 O175 1.244 . S
C190 C184 1.505 . S
C191 O178 1.258 . S
C191 O179 1.242 . S
H192 C164 0.930 . S
H193 C165 0.930 . S
H194 C166 0.930 . S
H195 C167 0.931 . S
H196 C185 0.930 . S
H197 C186 0.930 . S
H198 C187 0.930 . S
H199 C188 0.931 . S
Eu200 C209 2.828 . S
Eu200 O211 2.392 . S
Eu200 O213 2.418 . S
Eu200 O218 2.373 . S
Eu200 O221 2.488 . S
Eu200 O222 2.471 . S
Eu200 O223 2.349 . S
Eu201 O210 2.373 . S
Eu201 O214 2.488 . S
Eu201 O215 2.471 . S
Eu201 O216 2.349 . S
Eu201 O219 2.392 . S
Eu201 O220 2.418 . S
Eu201 C230 2.828 . S
C202 O220 1.244 . S
C202 O223 1.265 . S
C203 C204 1.379 . S
C203 C207 1.373 . S
C203 C209 1.505 . S
C204 C203 1.379 . S
C204 C206 1.369 . S
C204 H232 0.930 . S
C205 C207 1.383 . S
C205 C208 1.382 . S
C205 H233 0.930 . S
C206 C204 1.369 . S
C206 C208 1.392 . S
C206 H234 0.930 . S
C207 C203 1.373 . S
C207 C205 1.383 . S
C207 H235 0.931 . S
C208 C205 1.382 . S
C208 C206 1.392 . S
C209 Eu200 2.828 . S
C209 C203 1.505 . S
C209 O221 1.249 . S
C209 O222 1.244 . S
O210 Eu201 2.373 . S
O210 C212 1.258 . S
O211 Eu200 2.392 . S
O211 C212 1.242 . S
C212 O210 1.258 . S
C212 O211 1.242 . S
O213 Eu200 2.418 . S
O213 C217 1.244 . S
O214 Eu201 2.488 . S
O214 C230 1.249 . S
O215 Eu201 2.471 . S
O215 C230 1.244 . S
O216 Eu201 2.349 . S
O216 C217 1.265 . S
C217 O213 1.244 . S
C217 O216 1.265 . S
O218 Eu200 2.373 . S
O218 C231 1.258 . S
O219 Eu201 2.392 . S
O219 C231 1.242 . S
O220 Eu201 2.418 . S
O220 C202 1.244 . S
O221 Eu200 2.488 . S
O221 C209 1.249 . S
O222 Eu200 2.471 . S
O222 C209 1.244 . S
O223 Eu200 2.349 . S
O223 C202 1.265 . S
C224 C225 1.379 . S
C224 C228 1.373 . S
C224 C230 1.505 . S
C225 C224 1.379 . S
C225 C227 1.369 . S
C225 H236 0.930 . S
C226 C228 1.383 . S
C226 C229 1.382 . S
C226 H237 0.930 . S
C227 C225 1.369 . S
C227 C229 1.392 . S
C227 H238 0.930 . S
C228 C224 1.373 . S
C228 C226 1.383 . S
C228 H239 0.931 . S
C229 C226 1.382 . S
C229 C227 1.392 . S
C230 Eu201 2.828 . S
C230 O214 1.249 . S
C230 O215 1.244 . S
C230 C224 1.505 . S
C231 O218 1.258 . S
C231 O219 1.242 . S
H232 C204 0.930 . S
H233 C205 0.930 . S
H234 C206 0.930 . S
H235 C207 0.931 . S
H236 C225 0.930 . S
H237 C226 0.930 . S
H238 C227 0.930 . S
H239 C228 0.931 . S
Eu240 C249 2.828 . S
Eu240 O251 2.392 . S
Eu240 O253 2.418 . S
Eu240 O258 2.373 . S
Eu240 O261 2.488 . S
Eu240 O262 2.471 . S
Eu240 O263 2.349 . S
Eu241 O250 2.373 . S
Eu241 O254 2.488 . S
Eu241 O255 2.471 . S
Eu241 O256 2.349 . S
Eu241 O259 2.392 . S
Eu241 O260 2.418 . S
Eu241 C270 2.828 . S
C242 O260 1.244 . S
C242 O263 1.265 . S
C243 C244 1.379 . S
C243 C247 1.373 . S
C243 C249 1.505 . S
C244 C243 1.379 . S
C244 C246 1.369 . S
C244 H272 0.930 . S
C245 C247 1.383 . S
C245 C248 1.382 . S
C245 H273 0.930 . S
C246 C244 1.369 . S
C246 C248 1.392 . S
C246 H274 0.930 . S
C247 C243 1.373 . S
C247 C245 1.383 . S
C247 H275 0.931 . S
C248 C245 1.382 . S
C248 C246 1.392 . S
C249 Eu240 2.828 . S
C249 C243 1.505 . S
C249 O261 1.249 . S
C249 O262 1.244 . S
O250 Eu241 2.373 . S
O250 C252 1.258 . S
O251 Eu240 2.392 . S
O251 C252 1.242 . S
C252 O250 1.258 . S
C252 O251 1.242 . S
O253 Eu240 2.418 . S
O253 C257 1.244 . S
O254 Eu241 2.488 . S
O254 C270 1.249 . S
O255 Eu241 2.471 . S
O255 C270 1.244 . S
O256 Eu241 2.349 . S
O256 C257 1.265 . S
C257 O253 1.244 . S
C257 O256 1.265 . S
O258 Eu240 2.373 . S
O258 C271 1.258 . S
O259 Eu241 2.392 . S
O259 C271 1.242 . S
O260 Eu241 2.418 . S
O260 C242 1.244 . S
O261 Eu240 2.488 . S
O261 C249 1.249 . S
O262 Eu240 2.471 . S
O262 C249 1.244 . S
O263 Eu240 2.349 . S
O263 C242 1.265 . S
C264 C265 1.379 . S
C264 C268 1.373 . S
C264 C270 1.505 . S
C265 C264 1.379 . S
C265 C267 1.369 . S
C265 H276 0.930 . S
C266 C268 1.383 . S
C266 C269 1.382 . S
C266 H277 0.930 . S
C267 C265 1.369 . S
C267 C269 1.392 . S
C267 H278 0.930 . S
C268 C264 1.373 . S
C268 C266 1.383 . S
C268 H279 0.931 . S
C269 C266 1.382 . S
C269 C267 1.392 . S
C270 Eu241 2.828 . S
C270 O254 1.249 . S
C270 O255 1.244 . S
C270 C264 1.505 . S
C271 O258 1.258 . S
C271 O259 1.242 . S
H272 C244 0.930 . S
H273 C245 0.930 . S
H274 C246 0.930 . S
H275 C247 0.931 . S
H276 C265 0.930 . S
H277 C266 0.930 . S
H278 C267 0.930 . S
H279 C268 0.931 . S
Eu280 C289 2.828 . S
Eu280 O291 2.392 . S
Eu280 O293 2.418 . S
Eu280 O298 2.373 . S
Eu280 O301 2.488 . S
Eu280 O302 2.471 . S
Eu280 O303 2.349 . S
Eu281 O290 2.373 . S
Eu281 O294 2.488 . S
Eu281 O295 2.471 . S
Eu281 O296 2.349 . S
Eu281 O299 2.392 . S
Eu281 O300 2.418 . S
Eu281 C310 2.828 . S
C282 O300 1.244 . S
C282 O303 1.265 . S
C283 C284 1.379 . S
C283 C287 1.373 . S
C283 C289 1.505 . S
C284 C283 1.379 . S
C284 C286 1.369 . S
C284 H312 0.930 . S
C285 C287 1.383 . S
C285 C288 1.382 . S
C285 H313 0.930 . S
C286 C284 1.369 . S
C286 C288 1.392 . S
C286 H314 0.930 . S
C287 C283 1.373 . S
C287 C285 1.383 . S
C287 H315 0.931 . S
C288 C285 1.382 . S
C288 C286 1.392 . S
C289 Eu280 2.828 . S
C289 C283 1.505 . S
C289 O301 1.249 . S
C289 O302 1.244 . S
O290 Eu281 2.373 . S
O290 C292 1.258 . S
O291 Eu280 2.392 . S
O291 C292 1.242 . S
C292 O290 1.258 . S
C292 O291 1.242 . S
O293 Eu280 2.418 . S
O293 C297 1.244 . S
O294 Eu281 2.488 . S
O294 C310 1.249 . S
O295 Eu281 2.471 . S
O295 C310 1.244 . S
O296 Eu281 2.349 . S
O296 C297 1.265 . S
C297 O293 1.244 . S
C297 O296 1.265 . S
O298 Eu280 2.373 . S
O298 C311 1.258 . S
O299 Eu281 2.392 . S
O299 C311 1.242 . S
O300 Eu281 2.418 . S
O300 C282 1.244 . S
O301 Eu280 2.488 . S
O301 C289 1.249 . S
O302 Eu280 2.471 . S
O302 C289 1.244 . S
O303 Eu280 2.349 . S
O303 C282 1.265 . S
C304 C305 1.379 . S
C304 C308 1.373 . S
C304 C310 1.505 . S
C305 C304 1.379 . S
C305 C307 1.369 . S
C305 H316 0.930 . S
C306 C308 1.383 . S
C306 C309 1.382 . S
C306 H317 0.930 . S
C307 C305 1.369 . S
C307 C309 1.392 . S
C307 H318 0.930 . S
C308 C304 1.373 . S
C308 C306 1.383 . S
C308 H319 0.931 . S
C309 C306 1.382 . S
C309 C307 1.392 . S
C310 Eu281 2.828 . S
C310 O294 1.249 . S
C310 O295 1.244 . S
C310 C304 1.505 . S
C311 O298 1.258 . S
C311 O299 1.242 . S
H312 C284 0.930 . S
H313 C285 0.930 . S
H314 C286 0.930 . S
H315 C287 0.931 . S
H316 C305 0.930 . S
H317 C306 0.930 . S
H318 C307 0.930 . S
H319 C308 0.931 . S
C320 O332 1.241 . S
C320 O333 1.280 . S
C321 O334 1.277 . S
C321 O335 1.245 . S
C322 O346 1.247 . S
C322 O348 1.289 . S
Mg323 O324 1.926 1_455 S
Mg323 O333 1.984 1_455 S
Mg323 O335 1.988 1_455 S
Mg323 O336 2.061 . S
O324 Mg323 1.926 1_655 S
O324 Mg325 1.986 1_545 S
O324 Mg326 1.926 1_655 S
Mg325 O324 1.986 1_565 S
Mg325 O332 2.042 1_565 S
Mg325 O334 2.041 1_565 S
Mg325 O340 2.038 . S
Mg325 O348 2.238 . S
Mg326 O324 1.926 1_455 S
Mg326 O327 1.908 1_545 S
Mg326 O337 2.107 . S
Mg326 O339 2.073 1_445 S
Mg326 O348 2.106 1_445 S
Mg326 O349 2.084 . S
O327 Mg326 1.908 1_565 S
O327 Mg328 1.926 1_455 S
O327 Mg329 1.986 1_565 S
Mg328 O327 1.926 1_655 S
Mg328 O342 1.984 1_655 S
Mg328 O345 1.988 1_655 S
Mg328 O346 2.061 . S
Mg329 O327 1.986 1_545 S
Mg329 O337 2.238 . S
Mg329 O341 2.042 1_545 S
Mg329 O343 2.041 1_545 S
Mg329 O350 2.038 . S
C330 O336 1.247 . S
C330 O337 1.289 . S
C331 O349 1.245 . S
C331 O350 1.274 . S
O332 C320 1.241 . S
O332 Mg325 2.042 1_545 S
O333 C320 1.280 . S
O333 Mg323 1.984 1_655 S
O334 C321 1.277 . S
O334 Mg325 2.041 1_545 S
O335 C321 1.245 . S
O335 Mg323 1.988 1_655 S
O336 Mg323 2.061 . S
O336 C330 1.247 . S
O337 Mg326 2.107 . S
O337 Mg329 2.238 . S
O337 C330 1.289 . S
C338 O339 1.245 . S
C338 O340 1.274 . S
O339 Mg326 2.073 1_665 S
O339 C338 1.245 . S
O340 Mg325 2.038 . S
O340 C338 1.274 . S
O341 Mg329 2.042 1_565 S
O341 C344 1.241 . S
O342 Mg328 1.984 1_455 S
O342 C344 1.280 . S
O343 Mg329 2.041 1_565 S
O343 C347 1.277 . S
C344 O341 1.241 . S
C344 O342 1.280 . S
O345 Mg328 1.988 1_455 S
O345 C347 1.245 . S
O346 C322 1.247 . S
O346 Mg328 2.061 . S
C347 O343 1.277 . S
C347 O345 1.245 . S
O348 C322 1.289 . S
O348 Mg325 2.238 . S
O348 Mg326 2.106 1_665 S
O349 Mg326 2.084 . S
O349 C331 1.245 . S
O350 Mg329 2.038 . S
O350 C331 1.274 . S
C351 O363 1.241 . S
C351 O364 1.280 . S
C352 O365 1.277 . S
C352 O366 1.245 . S
C353 O377 1.247 . S
C353 O379 1.289 . S
Mg354 O355 1.926 . S
Mg354 O364 1.984 . S
Mg354 O366 1.988 1_554 S
Mg354 O367 2.061 . S
O355 Mg354 1.926 . S
O355 Mg356 1.986 1_545 S
O355 Mg357 1.929 . S
Mg356 O355 1.986 1_565 S
Mg356 O363 2.042 1_565 S
Mg356 O365 2.041 1_564 S
Mg356 O371 2.038 . S
Mg356 O379 2.238 1_554 S
Mg357 O355 1.929 . S
Mg357 O358 1.904 1_544 S
Mg357 O368 2.115 . S
Mg357 O370 2.086 1_545 S
Mg357 O379 2.097 1_544 S
Mg357 O380 2.071 1_554 S
O358 Mg357 1.904 1_566 S
O358 Mg359 1.926 . S
O358 Mg360 1.986 1_565 S
Mg359 O358 1.926 . S
Mg359 O373 1.984 . S
Mg359 O376 1.988 1_556 S
Mg359 O377 2.061 . S
Mg360 O358 1.986 1_545 S
Mg360 O368 2.238 1_556 S
Mg360 O372 2.042 1_545 S
Mg360 O374 2.041 1_546 S
Mg360 O381 2.038 . S
C361 O367 1.247 . S
C361 O368 1.289 . S
C362 O380 1.245 . S
C362 O381 1.274 . S
O363 C351 1.241 . S
O363 Mg356 2.042 1_545 S
O364 C351 1.280 . S
O364 Mg354 1.984 . S
O365 C352 1.277 . S
O365 Mg356 2.041 1_546 S
O366 C352 1.245 . S
O366 Mg354 1.988 1_556 S
O367 Mg354 2.061 . S
O367 C361 1.247 . S
O368 Mg357 2.115 . S
O368 Mg360 2.238 1_554 S
O368 C361 1.289 . S
C369 O370 1.245 . S
C369 O371 1.274 . S
O370 Mg357 2.086 1_565 S
O370 C369 1.245 . S
O371 Mg356 2.038 . S
O371 C369 1.274 . S
O372 Mg360 2.042 1_565 S
O372 C375 1.241 . S
O373 Mg359 1.984 . S
O373 C375 1.280 . S
O374 Mg360 2.041 1_564 S
O374 C378 1.277 . S
C375 O372 1.241 . S
C375 O373 1.280 . S
O376 Mg359 1.988 1_554 S
O376 C378 1.245 . S
O377 C353 1.247 . S
O377 Mg359 2.061 . S
C378 O374 1.277 . S
C378 O376 1.245 . S
O379 C353 1.289 . S
O379 Mg356 2.238 1_556 S
O379 Mg357 2.097 1_566 S
O380 Mg357 2.071 1_556 S
O380 C362 1.245 . S
O381 Mg360 2.038 . S
O381 C362 1.274 . S
C382 O394 1.241 . S
C382 O395 1.280 . S
C383 O396 1.277 . S
C383 O397 1.245 . S
C384 O408 1.247 . S
C384 O410 1.289 . S
Mg385 O386 1.926 1_455 S
Mg385 O395 1.984 1_455 S
Mg385 O397 1.988 1_454 S
Mg385 O398 2.061 . S
O386 Mg385 1.926 1_655 S
O386 Mg387 1.986 . S
O386 Mg388 1.920 1_655 S
Mg387 O386 1.986 . S
Mg387 O394 2.042 . S
Mg387 O396 2.041 1_554 S
Mg387 O402 2.038 . S
Mg387 O410 2.238 1_554 S
Mg388 O386 1.920 1_455 S
Mg388 O389 1.914 1_554 S
Mg388 O399 2.115 . S
Mg388 O401 2.092 1_455 S
Mg388 O410 2.098 1_454 S
Mg388 O411 2.065 1_554 S
O389 Mg388 1.914 1_556 S
O389 Mg390 1.926 1_455 S
O389 Mg391 1.986 . S
Mg390 O389 1.926 1_655 S
Mg390 O404 1.984 1_655 S
Mg390 O407 1.988 1_656 S
Mg390 O408 2.061 . S
Mg391 O389 1.986 . S
Mg391 O399 2.238 1_556 S
Mg391 O403 2.042 . S
Mg391 O405 2.041 1_556 S
Mg391 O412 2.038 . S
C392 O398 1.247 . S
C392 O399 1.289 . S
C393 O411 1.245 . S
C393 O412 1.274 . S
O394 C382 1.241 . S
O394 Mg387 2.042 . S
O395 C382 1.280 . S
O395 Mg385 1.984 1_655 S
O396 C383 1.277 . S
O396 Mg387 2.041 1_556 S
O397 C383 1.245 . S
O397 Mg385 1.988 1_656 S
O398 Mg385 2.061 . S
O398 C392 1.247 . S
O399 Mg388 2.115 . S
O399 Mg391 2.238 1_554 S
O399 C392 1.289 . S
C400 O401 1.245 . S
C400 O402 1.274 . S
O401 Mg388 2.092 1_655 S
O401 C400 1.245 . S
O402 Mg387 2.038 . S
O402 C400 1.274 . S
O403 Mg391 2.042 . S
O403 C406 1.241 . S
O404 Mg390 1.984 1_455 S
O404 C406 1.280 . S
O405 Mg391 2.041 1_554 S
O405 C409 1.277 . S
C406 O403 1.241 . S
C406 O404 1.280 . S
O407 Mg390 1.988 1_454 S
O407 C409 1.245 . S
O408 C384 1.247 . S
O408 Mg390 2.061 . S
C409 O405 1.277 . S
C409 O407 1.245 . S
O410 C384 1.289 . S
O410 Mg387 2.238 1_556 S
O410 Mg388 2.098 1_656 S
O411 Mg388 2.065 1_556 S
O411 C393 1.245 . S
O412 Mg391 2.038 . S
O412 C393 1.274 . S
C413 O425 1.241 . S
C413 O426 1.280 . S
C414 O427 1.277 . S
C414 O428 1.245 . S
C415 O439 1.247 . S
C415 O441 1.289 . S
Mg416 O417 1.926 . S
Mg416 O426 1.984 . S
Mg416 O428 1.988 1_554 S
Mg416 O429 2.061 . S
O417 Mg416 1.926 . S
O417 Mg418 1.986 . S
O417 Mg419 1.920 . S
Mg418 O417 1.986 . S
Mg418 O425 2.042 . S
Mg418 O427 2.041 1_554 S
Mg418 O433 2.038 . S
Mg418 O441 2.238 1_554 S
Mg419 O417 1.920 . S
Mg419 O420 1.914 1_554 S
Mg419 O430 2.115 . S
Mg419 O432 2.092 . S
Mg419 O441 2.098 1_554 S
Mg419 O442 2.066 1_554 S
O420 Mg419 1.914 1_556 S
O420 Mg421 1.926 . S
O420 Mg422 1.986 . S
Mg421 O420 1.926 . S
Mg421 O435 1.984 . S
Mg421 O438 1.988 1_556 S
Mg421 O439 2.061 . S
Mg422 O420 1.986 . S
Mg422 O430 2.238 1_556 S
Mg422 O434 2.042 . S
Mg422 O436 2.041 1_556 S
Mg422 O443 2.038 . S
C423 O429 1.247 . S
C423 O430 1.289 . S
C424 O442 1.245 . S
C424 O443 1.274 . S
O425 C413 1.241 . S
O425 Mg418 2.042 . S
O426 C413 1.280 . S
O426 Mg416 1.984 . S
O427 C414 1.277 . S
O427 Mg418 2.041 1_556 S
O428 C414 1.245 . S
O428 Mg416 1.988 1_556 S
O429 Mg416 2.061 . S
O429 C423 1.247 . S
O430 Mg419 2.115 . S
O430 Mg422 2.238 1_554 S
O430 C423 1.289 . S
C431 O432 1.245 . S
C431 O433 1.274 . S
O432 Mg419 2.092 . S
O432 C431 1.245 . S
O433 Mg418 2.038 . S
O433 C431 1.274 . S
O434 Mg422 2.042 . S
O434 C437 1.241 . S
O435 Mg421 1.984 . S
O435 C437 1.280 . S
O436 Mg422 2.041 1_554 S
O436 C440 1.277 . S
C437 O434 1.241 . S
C437 O435 1.280 . S
O438 Mg421 1.988 1_554 S
O438 C440 1.245 . S
O439 C415 1.247 . S
O439 Mg421 2.061 . S
C440 O436 1.277 . S
C440 O438 1.245 . S
O441 C415 1.289 . S
O441 Mg418 2.238 1_556 S
O441 Mg419 2.098 1_556 S
O442 Mg419 2.066 1_556 S
O442 C424 1.245 . S
O443 Mg422 2.038 . S
O443 C424 1.274 . S
C444 O456 1.241 . S
C444 O457 1.280 . S
C445 O458 1.277 . S
C445 O459 1.245 . S
C446 O470 1.247 . S
C446 O472 1.289 . S
Mg447 O448 1.926 1_455 S
Mg447 O457 1.984 1_455 S
Mg447 O459 1.988 1_455 S
Mg447 O460 2.061 . S
O448 Mg447 1.926 1_655 S
O448 Mg449 1.986 . S
O448 Mg450 1.917 1_655 S
Mg449 O448 1.986 . S
Mg449 O456 2.042 . S
Mg449 O458 2.041 . S
Mg449 O464 2.038 . S
Mg449 O472 2.238 . S
Mg450 O448 1.917 1_455 S
Mg450 O451 1.917 . S
Mg450 O461 2.106 . S
Mg450 O463 2.079 1_455 S
Mg450 O472 2.106 1_455 S
Mg450 O473 2.079 . S
O451 Mg450 1.917 . S
O451 Mg452 1.926 1_455 S
O451 Mg453 1.986 . S
Mg452 O451 1.926 1_655 S
Mg452 O466 1.984 1_655 S
Mg452 O469 1.988 1_655 S
Mg452 O470 2.061 . S
Mg453 O451 1.986 . S
Mg453 O461 2.238 . S
Mg453 O465 2.042 . S
Mg453 O467 2.041 . S
Mg453 O474 2.038 . S
C454 O460 1.247 . S
C454 O461 1.289 . S
C455 O473 1.245 . S
C455 O474 1.274 . S
O456 C444 1.241 . S
O456 Mg449 2.042 . S
O457 C444 1.280 . S
O457 Mg447 1.984 1_655 S
O458 C445 1.277 . S
O458 Mg449 2.041 . S
O459 C445 1.245 . S
O459 Mg447 1.988 1_655 S
O460 Mg447 2.061 . S
O460 C454 1.247 . S
O461 Mg450 2.106 . S
O461 Mg453 2.238 . S
O461 C454 1.289 . S
C462 O463 1.245 . S
C462 O464 1.274 . S
O463 Mg450 2.079 1_655 S
O463 C462 1.245 . S
O464 Mg449 2.038 . S
O464 C462 1.274 . S
O465 Mg453 2.042 . S
O465 C468 1.241 . S
O466 Mg452 1.984 1_455 S
O466 C468 1.280 . S
O467 Mg453 2.041 . S
O467 C471 1.277 . S
C468 O465 1.241 . S
C468 O466 1.280 . S
O469 Mg452 1.988 1_455 S
O469 C471 1.245 . S
O470 C446 1.247 . S
O470 Mg452 2.061 . S
C471 O467 1.277 . S
C471 O469 1.245 . S
O472 C446 1.289 . S
O472 Mg449 2.238 . S
O472 Mg450 2.106 1_655 S
O473 Mg450 2.079 . S
O473 C455 1.245 . S
O474 Mg453 2.038 . S
O474 C455 1.274 . S
C475 O487 1.241 . S
C475 O488 1.280 . S
C476 O489 1.277 . S
C476 O490 1.245 . S
C477 O501 1.247 . S
C477 O503 1.289 . S
Mg478 O479 1.926 . S
Mg478 O488 1.984 . S
Mg478 O490 1.988 . S
Mg478 O491 2.061 . S
O479 Mg478 1.926 . S
O479 Mg480 1.986 1_545 S
O479 Mg481 1.926 . S
Mg480 O479 1.986 1_565 S
Mg480 O487 2.042 1_565 S
Mg480 O489 2.041 1_565 S
Mg480 O495 2.038 . S
Mg480 O503 2.238 . S
Mg481 O479 1.926 . S
Mg481 O482 1.908 1_545 S
Mg481 O492 2.107 . S
Mg481 O494 2.073 1_545 S
Mg481 O503 2.106 1_545 S
Mg481 O504 2.084 . S
O482 Mg481 1.908 1_565 S
O482 Mg483 1.926 . S
O482 Mg484 1.986 1_565 S
Mg483 O482 1.926 . S
Mg483 O497 1.984 . S
Mg483 O500 1.988 . S
Mg483 O501 2.061 . S
Mg484 O482 1.986 1_545 S
Mg484 O492 2.238 . S
Mg484 O496 2.042 1_545 S
Mg484 O498 2.041 1_545 S
Mg484 O505 2.038 . S
C485 O491 1.247 . S
C485 O492 1.289 . S
C486 O504 1.245 . S
C486 O505 1.274 . S
O487 C475 1.241 . S
O487 Mg480 2.042 1_545 S
O488 C475 1.280 . S
O488 Mg478 1.984 . S
O489 C476 1.277 . S
O489 Mg480 2.041 1_545 S
O490 C476 1.245 . S
O490 Mg478 1.988 . S
O491 Mg478 2.061 . S
O491 C485 1.247 . S
O492 Mg481 2.107 . S
O492 Mg484 2.238 . S
O492 C485 1.289 . S
C493 O494 1.245 . S
C493 O495 1.274 . S
O494 Mg481 2.073 1_565 S
O494 C493 1.245 . S
O495 Mg480 2.038 . S
O495 C493 1.274 . S
O496 Mg484 2.042 1_565 S
O496 C499 1.241 . S
O497 Mg483 1.984 . S
O497 C499 1.280 . S
O498 Mg484 2.041 1_565 S
O498 C502 1.277 . S
C499 O496 1.241 . S
C499 O497 1.280 . S
O500 Mg483 1.988 . S
O500 C502 1.245 . S
O501 C477 1.247 . S
O501 Mg483 2.061 . S
C502 O498 1.277 . S
C502 O500 1.245 . S
O503 C477 1.289 . S
O503 Mg480 2.238 . S
O503 Mg481 2.106 1_565 S
O504 Mg481 2.084 . S
O504 C486 1.245 . S
O505 Mg484 2.038 . S
O505 C486 1.274 . S
C506 C507 1.387 . S
C506 H510 0.950 . S
C506 C515 1.390 . S
C507 C506 1.387 . S
C507 C509 1.387 . S
H508 C515 0.950 . S
C509 C507 1.387 . S
C509 C511 1.390 . S
C509 H513 0.950 . S
H510 C506 0.950 . S
C511 C509 1.390 . S
C511 C512 1.387 . S
C511 H514 0.950 . S
C512 C511 1.387 . S
C512 C515 1.387 . S
H513 C509 0.950 . S
H514 C511 0.950 . S
C515 C506 1.390 . S
C515 H508 0.950 . S
C515 C512 1.387 . S
C516 C517 1.387 . S
C516 H520 0.950 . S
C516 C525 1.390 . S
C517 C516 1.387 . S
C517 C519 1.387 . S
H518 C525 0.950 . S
C519 C517 1.387 . S
C519 C521 1.390 . S
C519 H523 0.950 . S
H520 C516 0.950 . S
C521 C519 1.390 . S
C521 C522 1.387 . S
C521 H524 0.950 . S
C522 C521 1.387 . S
C522 C525 1.387 . S
H523 C519 0.950 . S
H524 C521 0.950 . S
C525 C516 1.390 . S
C525 H518 0.950 . S
C525 C522 1.387 . S
C526 C527 1.387 . S
C526 H530 0.950 . S
C526 C535 1.390 . S
C527 C526 1.387 . S
C527 C529 1.387 . S
H528 C535 0.950 . S
C529 C527 1.387 . S
C529 C531 1.390 . S
C529 H533 0.950 . S
H530 C526 0.950 . S
C531 C529 1.390 . S
C531 C532 1.387 . S
C531 H534 0.950 . S
C532 C531 1.387 . S
C532 C535 1.387 . S
H533 C529 0.950 . S
H534 C531 0.950 . S
C535 C526 1.390 . S
C535 H528 0.950 . S
C535 C532 1.387 . S
C536 C537 1.387 . S
C536 H540 0.950 . S
C536 C545 1.390 . S
C537 C536 1.387 . S
C537 C539 1.387 . S
H538 C545 0.950 . S
C539 C537 1.387 . S
C539 C541 1.390 . S
C539 H543 0.950 . S
H540 C536 0.950 . S
C541 C539 1.390 . S
C541 C542 1.387 . S
C541 H544 0.950 . S
C542 C541 1.387 . S
C542 C545 1.387 . S
H543 C539 0.950 . S
H544 C541 0.950 . S
C545 C536 1.390 . S
C545 H538 0.950 . S
C545 C542 1.387 . S
C546 C547 1.387 . S
C546 H550 0.950 . S
C546 C555 1.390 . S
C547 C546 1.387 . S
C547 C549 1.387 . S
H548 C555 0.950 . S
C549 C547 1.387 . S
C549 C551 1.390 . S
C549 H553 0.950 1_565 S
H550 C546 0.950 . S
C551 C549 1.390 . S
C551 C552 1.387 . S
C551 H554 0.950 . S
C552 C551 1.387 . S
C552 C555 1.387 . S
H553 C549 0.950 1_545 S
H554 C551 0.950 . S
C555 C546 1.390 . S
C555 H548 0.950 . S
C555 C552 1.387 . S
C556 C557 1.387 . S
C556 H560 0.950 . S
C556 C565 1.390 . S
C557 C556 1.387 . S
C557 C559 1.387 . S
H558 C565 0.950 . S
C559 C557 1.387 . S
C559 C561 1.390 . S
C559 H563 0.950 . S
H560 C556 0.950 . S
C561 C559 1.390 . S
C561 C562 1.387 . S
C561 H564 0.950 . S
C562 C561 1.387 . S
C562 C565 1.387 . S
H563 C559 0.950 . S
H564 C561 0.950 . S
C565 C556 1.390 . S
C565 H558 0.950 . S
C565 C562 1.387 . S
C566 C567 1.387 . S
C566 H570 0.950 . S
C566 C575 1.390 . S
C567 C566 1.387 . S
C567 C569 1.387 . S
H568 C575 0.950 . S
C569 C567 1.387 . S
C569 C571 1.390 . S
C569 H573 0.950 . S
H570 C566 0.950 . S
C571 C569 1.390 . S
C571 C572 1.387 . S
C571 H574 0.950 . S
C572 C571 1.387 . S
C572 C575 1.387 . S
H573 C569 0.950 . S
H574 C571 0.950 . S
C575 C566 1.390 . S
C575 H568 0.950 . S
C575 C572 1.387 . S
C576 C577 1.387 . S
C576 H580 0.950 . S
C576 C585 1.390 . S
C577 C576 1.387 . S
C577 C579 1.387 . S
H578 C585 0.950 . S
C579 C577 1.387 . S
C579 C581 1.390 . S
C579 H583 0.950 . S
H580 C576 0.950 . S
C581 C579 1.390 . S
C581 C582 1.387 . S
C581 H584 0.950 . S
C582 C581 1.387 . S
C582 C585 1.387 . S
H583 C579 0.950 . S
H584 C581 0.950 . S
C585 C576 1.390 . S
C585 H578 0.950 . S
C585 C582 1.387 . S
C586 C587 1.387 . S
C586 H590 0.950 . S
C586 C595 1.390 . S
C587 C586 1.387 . S
C587 C589 1.387 . S
H588 C595 0.950 . S
C589 C587 1.387 . S
C589 C591 1.390 . S
C589 H593 0.950 . S
H590 C586 0.950 . S
C591 C589 1.390 . S
C591 C592 1.387 . S
C591 H594 0.950 . S
C592 C591 1.387 . S
C592 C595 1.387 . S
H593 C589 0.950 . S
H594 C591 0.950 . S
C595 C586 1.390 . S
C595 H588 0.950 . S
C595 C592 1.387 . S
C596 C597 1.387 . S
C596 H600 0.950 . S
C596 C605 1.390 . S
C597 C596 1.387 . S
C597 C599 1.387 . S
H598 C605 0.950 . S
C599 C597 1.387 . S
C599 C601 1.390 . S
C599 H603 0.950 . S
H600 C596 0.950 . S
C601 C599 1.390 . S
C601 C602 1.387 . S
C601 H604 0.950 . S
C602 C601 1.387 . S
C602 C605 1.387 . S
H603 C599 0.950 . S
H604 C601 0.950 . S
C605 C596 1.390 . S
C605 H598 0.950 . S
C605 C602 1.387 . S
C606 C607 1.387 . S
C606 H610 0.950 . S
C606 C615 1.390 . S
C607 C606 1.387 . S
C607 C609 1.387 . S
H608 C615 0.950 . S
C609 C607 1.387 . S
C609 C611 1.390 . S
C609 H613 0.950 1_565 S
H610 C606 0.950 . S
C611 C609 1.390 . S
C611 C612 1.387 . S
C611 H614 0.950 . S
C612 C611 1.387 . S
C612 C615 1.387 . S
H613 C609 0.950 1_545 S
H614 C611 0.950 . S
C615 C606 1.390 . S
C615 H608 0.950 . S
C615 C612 1.387 . S
C616 C617 1.387 . S
C616 H620 0.950 . S
C616 C625 1.390 . S
C617 C616 1.387 . S
C617 C619 1.387 . S
H618 C625 0.950 . S
C619 C617 1.387 . S
C619 C621 1.390 . S
C619 H623 0.950 . S
H620 C616 0.950 . S
C621 C619 1.390 . S
C621 C622 1.387 . S
C621 H624 0.950 . S
C622 C621 1.387 . S
C622 C625 1.387 . S
H623 C619 0.950 . S
H624 C621 0.950 . S
C625 C616 1.390 . S
C625 H618 0.950 . S
C625 C622 1.387 . S
C626 C627 1.387 . S
C626 H630 0.950 . S
C626 C635 1.390 . S
C627 C626 1.387 . S
C627 C629 1.387 . S
H628 C635 0.950 . S
C629 C627 1.387 . S
C629 C631 1.390 . S
C629 H633 0.950 . S
H630 C626 0.950 . S
C631 C629 1.390 . S
C631 C632 1.387 . S
C631 H634 0.950 . S
C632 C631 1.387 . S
C632 C635 1.387 . S
H633 C629 0.950 . S
H634 C631 0.950 . S
C635 C626 1.390 . S
C635 H628 0.950 . S
C635 C632 1.387 . S
C636 C637 1.387 . S
C636 H640 0.950 . S
C636 C645 1.390 . S
C637 C636 1.387 . S
C637 C639 1.387 . S
H638 C645 0.950 . S
C639 C637 1.387 . S
C639 C641 1.390 . S
C639 H643 0.950 . S
H640 C636 0.950 . S
C641 C639 1.390 . S
C641 C642 1.387 . S
C641 H644 0.950 . S
C642 C641 1.387 . S
C642 C645 1.387 . S
H643 C639 0.950 . S
H644 C641 0.950 . S
C645 C636 1.390 . S
C645 H638 0.950 . S
C645 C642 1.387 . S
C646 C647 1.387 . S
C646 H650 0.950 . S
C646 C655 1.390 . S
C647 C646 1.387 . S
C647 C649 1.387 . S
H648 C655 0.950 . S
C649 C647 1.387 . S
C649 C651 1.390 . S
C649 H653 0.950 . S
H650 C646 0.950 . S
C651 C649 1.390 . S
C651 C652 1.387 . S
C651 H654 0.950 . S
C652 C651 1.387 . S
C652 C655 1.387 . S
H653 C649 0.950 . S
H654 C651 0.950 . S
C655 C646 1.390 . S
C655 H648 0.950 . S
C655 C652 1.387 . S
C656 C657 1.387 . S
C656 H660 0.950 . S
C656 C665 1.390 . S
C657 C656 1.387 . S
C657 C659 1.387 . S
H658 C665 0.950 . S
C659 C657 1.387 . S
C659 C661 1.390 . S
C659 H663 0.950 . S
H660 C656 0.950 . S
C661 C659 1.390 . S
C661 C662 1.387 . S
C661 H664 0.950 . S
C662 C661 1.387 . S
C662 C665 1.387 . S
H663 C659 0.950 . S
H664 C661 0.950 . S
C665 C656 1.390 . S
C665 H658 0.950 . S
C665 C662 1.387 . S
C666 C667 1.387 . S
C666 H670 0.950 . S
C666 C675 1.390 . S
C667 C666 1.387 . S
C667 C669 1.387 . S
H668 C675 0.950 . S
C669 C667 1.387 . S
C669 C671 1.390 . S
C669 H673 0.950 . S
H670 C666 0.950 . S
C671 C669 1.390 . S
C671 C672 1.387 . S
C671 H674 0.950 . S
C672 C671 1.387 . S
C672 C675 1.387 . S
H673 C669 0.950 . S
H674 C671 0.950 . S
C675 C666 1.390 . S
C675 H668 0.950 . S
C675 C672 1.387 . S
C676 C677 1.387 . S
C676 H680 0.950 . S
C676 C685 1.390 . S
C677 C676 1.387 . S
C677 C679 1.387 . S
H678 C685 0.950 . S
C679 C677 1.387 . S
C679 C681 1.390 . S
C679 H683 0.950 . S
H680 C676 0.950 . S
C681 C679 1.390 . S
C681 C682 1.387 . S
C681 H684 0.950 . S
C682 C681 1.387 . S
C682 C685 1.387 . S
H683 C679 0.950 . S
H684 C681 0.950 . S
C685 C676 1.390 . S
C685 H678 0.950 . S
C685 C682 1.387 . S
C686 C687 1.387 . S
C686 H690 0.950 . S
C686 C695 1.390 . S
C687 C686 1.387 . S
C687 C689 1.387 . S
H688 C695 0.950 . S
C689 C687 1.387 . S
C689 C691 1.390 . S
C689 H693 0.950 1_545 S
H690 C686 0.950 . S
C691 C689 1.390 . S
C691 C692 1.387 . S
C691 H694 0.950 . S
C692 C691 1.387 . S
C692 C695 1.387 . S
H693 C689 0.950 1_565 S
H694 C691 0.950 . S
C695 C686 1.390 . S
C695 H688 0.950 . S
C695 C692 1.387 . S
C696 C697 1.387 . S
C696 H700 0.950 . S
C696 C705 1.390 . S
C697 C696 1.387 . S
C697 C699 1.387 . S
H698 C705 0.950 . S
C699 C697 1.387 . S
C699 C701 1.390 . S
C699 H703 0.950 . S
H700 C696 0.950 . S
C701 C699 1.390 . S
C701 C702 1.387 . S
C701 H704 0.950 . S
C702 C701 1.387 . S
C702 C705 1.387 . S
H703 C699 0.950 . S
H704 C701 0.950 . S
C705 C696 1.390 . S
C705 H698 0.950 . S
C705 C702 1.387 . S
C706 C707 1.387 . S
C706 H710 0.950 . S
C706 C715 1.390 . S
C707 C706 1.387 . S
C707 C709 1.387 . S
H708 C715 0.950 . S
C709 C707 1.387 . S
C709 C711 1.390 . S
C709 H713 0.950 . S
H710 C706 0.950 . S
C711 C709 1.390 . S
C711 C712 1.387 . S
C711 H714 0.950 . S
C712 C711 1.387 . S
C712 C715 1.387 . S
H713 C709 0.950 . S
H714 C711 0.950 . S
C715 C706 1.390 . S
C715 H708 0.950 . S
C715 C712 1.387 . S
C716 C717 1.387 . S
C716 H720 0.950 . S
C716 C725 1.390 . S
C717 C716 1.387 . S
C717 C719 1.387 . S
H718 C725 0.950 . S
C719 C717 1.387 . S
C719 C721 1.390 . S
C719 H723 0.950 . S
H720 C716 0.950 . S
C721 C719 1.390 . S
C721 C722 1.387 . S
C721 H724 0.950 . S
C722 C721 1.387 . S
C722 C725 1.387 . S
H723 C719 0.950 . S
H724 C721 0.950 . S
C725 C716 1.390 . S
C725 H718 0.950 . S
C725 C722 1.387 . S
C726 C727 1.387 . S
C726 H730 0.950 . S
C726 C735 1.390 . S
C727 C726 1.387 . S
C727 C729 1.387 . S
H728 C735 0.950 . S
C729 C727 1.387 . S
C729 C731 1.390 . S
C729 H733 0.950 . S
H730 C726 0.950 . S
C731 C729 1.390 . S
C731 C732 1.387 . S
C731 H734 0.950 . S
C732 C731 1.387 . S
C732 C735 1.387 . S
H733 C729 0.950 . S
H734 C731 0.950 . S
C735 C726 1.390 . S
C735 H728 0.950 . S
C735 C732 1.387 . S
C736 C737 1.387 . S
C736 H740 0.950 . S
C736 C745 1.390 . S
C737 C736 1.387 . S
C737 C739 1.387 . S
H738 C745 0.950 . S
C739 C737 1.387 . S
C739 C741 1.390 . S
C739 H743 0.950 . S
H740 C736 0.950 . S
C741 C739 1.390 . S
C741 C742 1.387 . S
C741 H744 0.950 . S
C742 C741 1.387 . S
C742 C745 1.387 . S
H743 C739 0.950 . S
H744 C741 0.950 . S
C745 C736 1.390 . S
C745 H738 0.950 . S
C745 C742 1.387 . S
C746 C747 1.387 . S
C746 H750 0.950 . S
C746 C755 1.390 . S
C747 C746 1.387 . S
C747 C749 1.387 . S
H748 C755 0.950 . S
C749 C747 1.387 . S
C749 C751 1.390 . S
C749 H753 0.950 . S
H750 C746 0.950 . S
C751 C749 1.390 . S
C751 C752 1.387 . S
C751 H754 0.950 . S
C752 C751 1.387 . S
C752 C755 1.387 . S
H753 C749 0.950 . S
H754 C751 0.950 . S
C755 C746 1.390 . S
C755 H748 0.950 . S
C755 C752 1.387 . S
C756 C757 1.387 . S
C756 H760 0.950 . S
C756 C765 1.390 . S
C757 C756 1.387 . S
C757 C759 1.387 . S
H758 C765 0.950 . S
C759 C757 1.387 . S
C759 C761 1.390 . S
C759 H763 0.950 . S
H760 C756 0.950 . S
C761 C759 1.390 . S
C761 C762 1.387 . S
C761 H764 0.950 . S
C762 C761 1.387 . S
C762 C765 1.387 . S
H763 C759 0.950 . S
H764 C761 0.950 . S
C765 C756 1.390 . S
C765 H758 0.950 . S
C765 C762 1.387 . S
C766 C767 1.387 . S
C766 H770 0.950 . S
C766 C775 1.390 . S
C767 C766 1.387 . S
C767 C769 1.387 . S
H768 C775 0.950 . S
C769 C767 1.387 . S
C769 C771 1.390 . S
C769 H773 0.950 . S
H770 C766 0.950 . S
C771 C769 1.390 . S
C771 C772 1.387 . S
C771 H774 0.950 . S
C772 C771 1.387 . S
C772 C775 1.387 . S
H773 C769 0.950 . S
H774 C771 0.950 . S
C775 C766 1.390 . S
C775 H768 0.950 . S
C775 C772 1.387 . S
C776 C777 1.387 . S
C776 H780 0.950 . S
C776 C785 1.390 . S
C777 C776 1.387 . S
C777 C779 1.387 . S
H778 C785 0.950 . S
C779 C777 1.387 . S
C779 C781 1.390 . S
C779 H783 0.950 . S
H780 C776 0.950 . S
C781 C779 1.390 . S
C781 C782 1.387 . S
C781 H784 0.950 . S
C782 C781 1.387 . S
C782 C785 1.387 . S
H783 C779 0.950 . S
H784 C781 0.950 . S
C785 C776 1.390 . S
C785 H778 0.950 . S
C785 C782 1.387 . S
C786 C787 1.387 . S
C786 H790 0.950 . S
C786 C795 1.390 . S
C787 C786 1.387 . S
C787 C789 1.387 . S
H788 C795 0.950 . S
C789 C787 1.387 . S
C789 C791 1.390 . S
C789 H793 0.950 . S
H790 C786 0.950 . S
C791 C789 1.390 . S
C791 C792 1.387 . S
C791 H794 0.950 . S
C792 C791 1.387 . S
C792 C795 1.387 . S
H793 C789 0.950 . S
H794 C791 0.950 . S
C795 C786 1.390 . S
C795 H788 0.950 . S
C795 C792 1.387 . S
C796 C797 1.387 . S
C796 H800 0.950 . S
C796 C805 1.390 . S
C797 C796 1.387 . S
C797 C799 1.387 . S
H798 C805 0.950 . S
C799 C797 1.387 . S
C799 C801 1.390 . S
C799 H803 0.950 . S
H800 C796 0.950 . S
C801 C799 1.390 . S
C801 C802 1.387 . S
C801 H804 0.950 . S
C802 C801 1.387 . S
C802 C805 1.387 . S
H803 C799 0.950 . S
H804 C801 0.950 . S
C805 C796 1.390 . S
C805 H798 0.950 . S
C805 C802 1.387 . S
C806 C807 1.387 . S
C806 H810 0.950 . S
C806 C815 1.390 . S
C807 C806 1.387 . S
C807 C809 1.387 . S
H808 C815 0.950 . S
C809 C807 1.387 . S
C809 C811 1.390 . S
C809 H813 0.950 . S
H810 C806 0.950 . S
C811 C809 1.390 . S
C811 C812 1.387 . S
C811 H814 0.950 . S
C812 C811 1.387 . S
C812 C815 1.387 . S
H813 C809 0.950 . S
H814 C811 0.950 . S
C815 C806 1.390 . S
C815 H808 0.950 . S
C815 C812 1.387 . S
C816 C817 1.387 . S
C816 H820 0.950 . S
C816 C825 1.390 . S
C817 C816 1.387 . S
C817 C819 1.387 . S
H818 C825 0.950 . S
C819 C817 1.387 . S
C819 C821 1.390 . S
C819 H823 0.950 . S
H820 C816 0.950 . S
C821 C819 1.390 . S
C821 C822 1.387 . S
C821 H824 0.950 . S
C822 C821 1.387 . S
C822 C825 1.387 . S
H823 C819 0.950 . S
H824 C821 0.950 . S
C825 C816 1.390 . S
C825 H818 0.950 . S
C825 C822 1.387 . S
C826 C827 1.387 . S
C826 H830 0.950 . S
C826 C835 1.390 . S
C827 C826 1.387 . S
C827 C829 1.387 . S
H828 C835 0.950 . S
C829 C827 1.387 . S
C829 C831 1.390 . S
C829 H833 0.950 . S
H830 C826 0.950 . S
C831 C829 1.390 . S
C831 C832 1.387 . S
C831 H834 0.950 . S
C832 C831 1.387 . S
C832 C835 1.387 . S
H833 C829 0.950 . S
H834 C831 0.950 . S
C835 C826 1.390 . S
C835 H828 0.950 . S
C835 C832 1.387 . S
C836 C837 1.387 . S
C836 H840 0.950 . S
C836 C845 1.390 . S
C837 C836 1.387 . S
C837 C839 1.387 . S
H838 C845 0.950 . S
C839 C837 1.387 . S
C839 C841 1.390 . S
C839 H843 0.950 . S
H840 C836 0.950 . S
C841 C839 1.390 . S
C841 C842 1.387 . S
C841 H844 0.950 . S
C842 C841 1.387 . S
C842 C845 1.387 . S
H843 C839 0.950 . S
H844 C841 0.950 . S
C845 C836 1.390 . S
C845 H838 0.950 . S
C845 C842 1.387 . S
C846 C847 1.387 . S
C846 H850 0.950 . S
C846 C855 1.390 . S
C847 C846 1.387 . S
C847 C849 1.387 . S
H848 C855 0.950 . S
C849 C847 1.387 . S
C849 C851 1.390 . S
C849 H853 0.950 . S
H850 C846 0.950 . S
C851 C849 1.390 . S
C851 C852 1.387 . S
C851 H854 0.950 . S
C852 C851 1.387 . S
C852 C855 1.387 . S
H853 C849 0.950 . S
H854 C851 0.950 . S
C855 C846 1.390 . S
C855 H848 0.950 . S
C855 C852 1.387 . S
C856 C857 1.387 . S
C856 H860 0.950 . S
C856 C865 1.390 . S
C857 C856 1.387 . S
C857 C859 1.387 . S
H858 C865 0.950 . S
C859 C857 1.387 . S
C859 C861 1.390 . S
C859 H863 0.950 . S
H860 C856 0.950 . S
C861 C859 1.390 . S
C861 C862 1.387 . S
C861 H864 0.950 . S
C862 C861 1.387 . S
C862 C865 1.387 . S
H863 C859 0.950 . S
H864 C861 0.950 . S
C865 C856 1.390 . S
C865 H858 0.950 . S
C865 C862 1.387 . S
C866 C867 1.387 . S
C866 H870 0.950 . S
C866 C875 1.390 . S
C867 C866 1.387 . S
C867 C869 1.387 . S
H868 C875 0.950 . S
C869 C867 1.387 . S
C869 C871 1.390 . S
C869 H873 0.950 . S
H870 C866 0.950 . S
C871 C869 1.390 . S
C871 C872 1.387 . S
C871 H874 0.950 . S
C872 C871 1.387 . S
C872 C875 1.387 . S
H873 C869 0.950 . S
H874 C871 0.950 . S
C875 C866 1.390 . S
C875 H868 0.950 . S
C875 C872 1.387 . S
C876 C877 1.387 . S
C876 H880 0.950 . S
C876 C885 1.390 . S
C877 C876 1.387 . S
C877 C879 1.387 . S
H878 C885 0.950 . S
C879 C877 1.387 . S
C879 C881 1.390 . S
C879 H883 0.950 . S
H880 C876 0.950 . S
C881 C879 1.390 . S
C881 C882 1.387 . S
C881 H884 0.950 . S
C882 C881 1.387 . S
C882 C885 1.387 . S
H883 C879 0.950 . S
H884 C881 0.950 . S
C885 C876 1.390 . S
C885 H878 0.950 . S
C885 C882 1.387 . S
C886 C887 1.387 . S
C886 H890 0.950 . S
C886 C895 1.390 . S
C887 C886 1.387 . S
C887 C889 1.387 . S
H888 C895 0.950 . S
C889 C887 1.387 . S
C889 C891 1.390 . S
C889 H893 0.950 . S
H890 C886 0.950 . S
C891 C889 1.390 . S
C891 C892 1.387 . S
C891 H894 0.950 . S
C892 C891 1.387 . S
C892 C895 1.387 . S
H893 C889 0.950 . S
H894 C891 0.950 . S
C895 C886 1.390 . S
C895 H888 0.950 . S
C895 C892 1.387 . S
C896 C897 1.387 . S
C896 H900 0.950 . S
C896 C905 1.390 . S
C897 C896 1.387 . S
C897 C899 1.387 . S
H898 C905 0.950 . S
C899 C897 1.387 . S
C899 C901 1.390 . S
C899 H903 0.950 . S
H900 C896 0.950 . S
C901 C899 1.390 . S
C901 C902 1.387 . S
C901 H904 0.950 . S
C902 C901 1.387 . S
C902 C905 1.387 . S
H903 C899 0.950 . S
H904 C901 0.950 . S
C905 C896 1.390 . S
C905 H898 0.950 . S
C905 C902 1.387 . S
C906 C907 1.387 . S
C906 H910 0.950 . S
C906 C915 1.390 . S
C907 C906 1.387 . S
C907 C909 1.387 . S
H908 C915 0.950 . S
C909 C907 1.387 . S
C909 C911 1.390 . S
C909 H913 0.950 . S
H910 C906 0.950 . S
C911 C909 1.390 . S
C911 C912 1.387 . S
C911 H914 0.950 . S
C912 C911 1.387 . S
C912 C915 1.387 . S
H913 C909 0.950 . S
H914 C911 0.950 . S
C915 C906 1.390 . S
C915 H908 0.950 . S
C915 C912 1.387 . S
C916 C917 1.387 . S
C916 H920 0.950 . S
C916 C925 1.390 . S
C917 C916 1.387 . S
C917 C919 1.387 . S
H918 C925 0.950 . S
C919 C917 1.387 . S
C919 C921 1.390 . S
C919 H923 0.950 . S
H920 C916 0.950 . S
C921 C919 1.390 . S
C921 C922 1.387 . S
C921 H924 0.950 . S
C922 C921 1.387 . S
C922 C925 1.387 . S
H923 C919 0.950 . S
H924 C921 0.950 . S
C925 C916 1.390 . S
C925 H918 0.950 . S
C925 C922 1.387 . S
C926 C927 1.387 . S
C926 H930 0.950 . S
C926 C935 1.390 . S
C927 C926 1.387 . S
C927 C929 1.387 . S
H928 C935 0.950 . S
C929 C927 1.387 . S
C929 C931 1.390 . S
C929 H933 0.950 . S
H930 C926 0.950 . S
C931 C929 1.390 . S
C931 C932 1.387 . S
C931 H934 0.950 . S
C932 C931 1.387 . S
C932 C935 1.387 . S
H933 C929 0.950 . S
H934 C931 0.950 . S
C935 C926 1.390 . S
C935 H928 0.950 . S
C935 C932 1.387 . S
C936 C937 1.387 . S
C936 H940 0.950 . S
C936 C945 1.390 . S
C937 C936 1.387 . S
C937 C939 1.387 . S
H938 C945 0.950 . S
C939 C937 1.387 . S
C939 C941 1.390 . S
C939 H943 0.950 . S
H940 C936 0.950 . S
C941 C939 1.390 . S
C941 C942 1.387 . S
C941 H944 0.950 . S
C942 C941 1.387 . S
C942 C945 1.387 . S
H943 C939 0.950 . S
H944 C941 0.950 . S
C945 C936 1.390 . S
C945 H938 0.950 . S
C945 C942 1.387 . S
C946 C947 1.387 . S
C946 H950 0.950 . S
C946 C955 1.390 . S
C947 C946 1.387 . S
C947 C949 1.387 . S
H948 C955 0.950 . S
C949 C947 1.387 . S
C949 C951 1.390 . S
C949 H953 0.950 . S
H950 C946 0.950 . S
C951 C949 1.390 . S
C951 C952 1.387 . S
C951 H954 0.950 . S
C952 C951 1.387 . S
C952 C955 1.387 . S
H953 C949 0.950 . S
H954 C951 0.950 . S
C955 C946 1.390 . S
C955 H948 0.950 . S
C955 C952 1.387 . S
C956 C957 1.387 . S
C956 H960 0.950 . S
C956 C965 1.390 . S
C957 C956 1.387 . S
C957 C959 1.387 . S
H958 C965 0.950 . S
C959 C957 1.387 . S
C959 C961 1.390 . S
C959 H963 0.950 . S
H960 C956 0.950 . S
C961 C959 1.390 . S
C961 C962 1.387 . S
C961 H964 0.950 . S
C962 C961 1.387 . S
C962 C965 1.387 . S
H963 C959 0.950 . S
H964 C961 0.950 . S
C965 C956 1.390 . S
C965 H958 0.950 . S
C965 C962 1.387 . S
C966 C967 1.387 . S
C966 H970 0.950 . S
C966 C975 1.390 . S
C967 C966 1.387 . S
C967 C969 1.387 . S
H968 C975 0.950 . S
C969 C967 1.387 . S
C969 C971 1.390 . S
C969 H973 0.950 . S
H970 C966 0.950 . S
C971 C969 1.390 . S
C971 C972 1.387 . S
C971 H974 0.950 . S
C972 C971 1.387 . S
C972 C975 1.387 . S
H973 C969 0.950 . S
H974 C971 0.950 . S
C975 C966 1.390 . S
C975 H968 0.950 . S
C975 C972 1.387 . S
C976 C977 1.387 . S
C976 H980 0.950 . S
C976 C985 1.390 . S
C977 C976 1.387 . S
C977 C979 1.387 . S
H978 C985 0.950 . S
C979 C977 1.387 . S
C979 C981 1.390 . S
C979 H983 0.950 . S
H980 C976 0.950 . S
C981 C979 1.390 . S
C981 C982 1.387 . S
C981 H984 0.950 . S
C982 C981 1.387 . S
C982 C985 1.387 . S
H983 C979 0.950 . S
H984 C981 0.950 . S
C985 C976 1.390 . S
C985 H978 0.950 . S
C985 C982 1.387 . S
C512 C331 1.908 . S
C507 C2 1.923 . S
C522 C321 1.442 . S
C517 C48 1.432 . S
C532 C322 1.285 . S
C527 C97 1.294 . S
C537 C149 0.772 . S
C542 C344 0.832 . S
C547 C189 1.431 . S
C552 C347 1.443 . S
C562 C330 1.284 . S
C557 C202 1.294 . S
C567 C248 0.763 . S
C572 C320 0.824 . S
C577 C297 1.923 . S
C582 C338 1.908 . S
C592 C351 2.640 . S
C587 C31 2.739 . S
C597 C52 1.773 . S
C602 C400 1.731 . S
C612 C378 1.519 . S
C607 C88 1.520 . S
C622 C392 1.223 . S
C617 C122 1.213 . S
C627 C162 1.276 . S
C632 C353 1.274 . S
C642 C406 2.625 . S
C637 C231 2.746 . S
C647 C252 1.794 . S
C652 C362 1.787 . S
C657 C288 1.439 . S
C662 C383 1.449 . S
C667 C29 1.437 . S
C672 C409 1.446 . S
C677 C191 1.773 . S
C682 C393 1.732 . S
C692 C352 1.516 . S
C687 C229 1.520 . S
C702 C384 1.224 . S
C697 C257 1.211 . S
C707 C292 2.740 . S
C712 C375 2.641 . S
C717 C92 2.747 . S
C722 C382 2.626 . S
C732 C369 1.789 . S
C727 C151 1.793 . S
C737 C57 1.276 . S
C742 C361 1.273 . S
C747 C282 1.923 . S
C752 C424 1.908 . S
C757 C168 1.429 . S
C762 C414 1.439 . S
C772 C415 1.284 . S
C767 C217 1.293 . S
C782 C437 0.828 . S
C777 C269 0.767 . S
C787 C69 1.432 . S
C792 C440 1.443 . S
C802 C423 1.285 . S
C797 C82 1.294 . S
C807 C128 0.765 . S
C812 C413 0.824 . S
C817 C17 1.923 . S
C822 C431 1.908 . S
C827 C311 2.740 . S
C832 C444 2.640 . S
C842 C493 1.733 . S
C837 C172 1.774 . S
C847 C208 1.520 . S
C852 C471 1.519 . S
C857 C242 1.214 . S
C862 C485 1.222 . S
C872 C446 1.273 . S
C867 C42 1.276 . S
C877 C111 2.746 . S
C882 C499 2.624 . S
C892 C455 1.788 . S
C887 C132 1.794 . S
C902 C476 1.446 . S
C897 C8 1.439 . S
C912 C502 1.448 . S
C907 C309 1.436 . S
C917 C71 1.773 . S
C922 C486 1.732 . S
C927 C109 1.520 . S
C932 C445 1.516 . S
C942 C477 1.223 . S
C937 C137 1.214 . S
C947 C12 2.739 . S
C952 C468 2.640 . S
C957 C212 2.746 . S
C962 C475 2.625 . S
C972 C462 1.787 . S
C967 C271 1.793 . S
C982 C454 1.273 . S
C977 C177 1.276 . S
