# Generated by pormake.
# Topology pyr, (3,6)-cn, num edge types: 1
# Building blocks:
#     Node 0, Type 0, BuildingBlock: OLANEW_clean_sbu_2, # of connection points: 3
#     Node 1, Type 0, BuildingBlock: OLANEW_clean_sbu_2, # of connection points: 3
#     Node 2, Type 0, BuildingBlock: OLANEW_clean_sbu_2, # of connection points: 3
#     Node 3, Type 0, BuildingBlock: OLANEW_clean_sbu_2, # of connection points: 3
#     Node 4, Type 0, BuildingBlock: OLANEW_clean_sbu_2, # of connection points: 3
#     Node 5, Type 0, BuildingBlock: OLANEW_clean_sbu_2, # of connection points: 3
#     Node 6, Type 0, BuildingBlock: OLANEW_clean_sbu_2, # of connection points: 3
#     Node 7, Type 0, BuildingBlock: OLANEW_clean_sbu_2, # of connection points: 3
#     Node 8, Type 1, BuildingBlock: JUFBIX_clean_sbu_0, # of connection points: 6
#     Node 9, Type 1, BuildingBlock: JUFBIX_clean_sbu_0, # of connection points: 6
#     Node 10, Type 1, BuildingBlock: JUFBIX_clean_sbu_0, # of connection points: 6
#     Node 11, Type 1, BuildingBlock: JUFBIX_clean_sbu_0, # of connection points: 6
#     Edge 12, Type (0, 1), BuildingBlock: AJUNOK_clean_linker_0, # of connection points: 2
#     Edge 13, Type (0, 1), BuildingBlock: AJUNOK_clean_linker_0, # of connection points: 2
#     Edge 14, Type (0, 1), BuildingBlock: AJUNOK_clean_linker_0, # of connection points: 2
#     Edge 15, Type (0, 1), BuildingBlock: AJUNOK_clean_linker_0, # of connection points: 2
#     Edge 16, Type (0, 1), BuildingBlock: AJUNOK_clean_linker_0, # of connection points: 2
#     Edge 17, Type (0, 1), BuildingBlock: AJUNOK_clean_linker_0, # of connection points: 2
#     Edge 18, Type (0, 1), BuildingBlock: AJUNOK_clean_linker_0, # of connection points: 2
#     Edge 19, Type (0, 1), BuildingBlock: AJUNOK_clean_linker_0, # of connection points: 2
#     Edge 20, Type (0, 1), BuildingBlock: AJUNOK_clean_linker_0, # of connection points: 2
#     Edge 21, Type (0, 1), BuildingBlock: AJUNOK_clean_linker_0, # of connection points: 2
#     Edge 22, Type (0, 1), BuildingBlock: AJUNOK_clean_linker_0, # of connection points: 2
#     Edge 23, Type (0, 1), BuildingBlock: AJUNOK_clean_linker_0, # of connection points: 2
#     Edge 24, Type (0, 1), BuildingBlock: AJUNOK_clean_linker_0, # of connection points: 2
#     Edge 25, Type (0, 1), BuildingBlock: AJUNOK_clean_linker_0, # of connection points: 2
#     Edge 26, Type (0, 1), BuildingBlock: AJUNOK_clean_linker_0, # of connection points: 2
#     Edge 27, Type (0, 1), BuildingBlock: AJUNOK_clean_linker_0, # of connection points: 2
#     Edge 28, Type (0, 1), BuildingBlock: AJUNOK_clean_linker_0, # of connection points: 2
#     Edge 29, Type (0, 1), BuildingBlock: AJUNOK_clean_linker_0, # of connection points: 2
#     Edge 30, Type (0, 1), BuildingBlock: AJUNOK_clean_linker_0, # of connection points: 2
#     Edge 31, Type (0, 1), BuildingBlock: AJUNOK_clean_linker_0, # of connection points: 2
#     Edge 32, Type (0, 1), BuildingBlock: AJUNOK_clean_linker_0, # of connection points: 2
#     Edge 33, Type (0, 1), BuildingBlock: AJUNOK_clean_linker_0, # of connection points: 2
#     Edge 34, Type (0, 1), BuildingBlock: AJUNOK_clean_linker_0, # of connection points: 2
#     Edge 35, Type (0, 1), BuildingBlock: AJUNOK_clean_linker_0, # of connection points: 2
# Relax obj value: 0.161
# Max RMSD: 0.176
# Mean RMSD: 0.120
data_MOF--net-pyr--node1-OLANEW_clean_sbu_2--node2-JUFBIX_clean_sbu_0--edge1-AJUNOK_clean_linker_0
_symmetry_space_group_name_H-M    P1
_symmetry_Int_Tables_number       1
_symmetry_cell_setting            triclinic
loop_
_symmetry_equiv_pos_as_xyz
'x, y, z'
_cell_length_a     30.644145
_cell_length_b     28.048401
_cell_length_c     29.634735
_cell_angle_alpha  88.987619
_cell_angle_beta   89.460265
_cell_angle_gamma 96.594312
loop_
_atom_site_label
_atom_site_type_symbol
_atom_site_fract_x
_atom_site_fract_y
_atom_site_fract_z
_atom_type_partial_charge
O0 O 0.23222 0.16551 0.15237 0.0
Cd1 Cd 0.15866 0.1939 0.16734 0.0
O2 O 0.2397 0.12376 0.21589 0.0
Cd3 Cd 0.18162 0.12777 0.26121 0.0
O4 O 0.13667 0.11131 0.32103 0.0
C5 C 0.15231 0.10132 0.3594 0.0
O6 O 0.1951 0.10202 0.36279 0.0
C7 C 0.25424 0.13913 0.17703 0.0
C8 C 0.1293 0.27628 0.12432 0.0
O9 O 0.14819 0.27876 0.16279 0.0
O10 O 0.12611 0.2356 0.1048 0.0
O11 O 0.5506 0.95218 0.73535 0.0
Cd12 Cd 0.57504 0.93842 0.65799 0.0
O13 O 0.48309 0.9378 0.71222 0.0
Cd14 Cd 0.41144 0.9281 0.71458 0.0
O15 O 0.34215 0.93729 0.70927 0.0
C16 C 0.3284 0.95291 0.67213 0.0
O17 O 0.35631 0.96145 0.63824 0.0
C18 C 0.50966 0.94933 0.74402 0.0
C19 C 0.57197 0.84174 0.63504 0.0
O20 O 0.60733 0.86476 0.64989 0.0
O21 O 0.53807 0.86434 0.63154 0.0
O22 O 0.75014 0.48371 0.9398 0.0
Cd23 Cd 0.6788 0.46857 0.90226 0.0
O24 O 0.7343 0.40657 0.94896 0.0
Cd25 Cd 0.7318 0.33199 0.9715 0.0
O26 O 0.68202 0.27048 0.98362 0.0
C27 C 0.64519 0.28031 0.99883 0.0
O28 O 0.64012 0.32528 1.00682 0.0
C29 C 0.76028 0.44428 0.95608 0.0
C30 C 0.66742 0.5 0.81358 0.0
O31 O 0.6557 0.52379 0.8473 0.0
O32 O 0.68654 0.46248 0.82163 0.0
O33 O 0.09544 0.76291 0.4632 0.0
Cd34 Cd 0.12728 0.69253 0.43641 0.0
O35 O 0.05795 0.71465 0.5122 0.0
Cd36 Cd 1.00407 0.70001 0.5608 0.0
O37 O 0.93398 0.67788 0.56883 0.0
C38 C 0.91114 0.69023 0.536 0.0
O39 O 0.93111 0.71641 0.50303 0.0
C40 C 0.06757 0.75652 0.49535 0.0
C41 C 0.08766 0.65496 0.35828 0.0
O42 O 0.12261 0.68479 0.35608 0.0
O43 O 0.07117 0.64342 0.39741 0.0
O44 O 0.87752 0.88012 0.85556 0.0
Cd45 Cd 0.85541 0.8451 0.9307 0.0
O46 O 0.82809 0.92999 0.84043 0.0
Cd47 Cd 0.78226 0.92053 0.89979 0.0
O48 O 0.72362 0.92757 0.94376 0.0
C49 C 0.72195 0.96308 0.9698 0.0
O50 O 0.75652 0.99533 0.97175 0.0
C51 C 0.86273 0.9112 0.82959 0.0
C52 C 0.89441 0.76227 0.95695 0.0
O53 O 0.85502 0.75907 0.9422 0.0
O54 O 0.91589 0.80417 0.95839 0.0
O55 O 0.5486 0.02569 0.45321 0.0
Cd56 Cd 0.56814 1.013 0.53195 0.0
O57 O 0.57373 0.10118 0.46201 0.0
Cd58 Cd 0.5916 0.17711 0.44339 0.0
O59 O 0.59676 0.25486 0.45481 0.0
C60 C 0.56722 0.2684 0.48046 0.0
O61 O 0.53679 0.23567 0.4968 0.0
C62 C 0.55801 0.06761 0.43648 0.0
C63 C 0.65929 1.0128 0.53647 0.0
O64 O 0.6416 0.05144 0.54269 0.0
O65 O 0.63379 0.9743 0.52908 0.0
O66 O 0.44265 0.74127 0.20542 0.0
Cd67 Cd 0.43486 0.65512 0.22416 0.0
O68 O 0.38473 0.72919 0.16297 0.0
Cd69 Cd 0.328 0.73556 0.11893 0.0
O70 O 0.26217 0.70745 0.09463 0.0
C71 C 0.25675 0.67071 0.06975 0.0
O72 O 0.29156 0.65124 0.05637 0.0
C73 C 0.41571 0.75818 0.17878 0.0
C74 C 0.46751 0.63162 0.30869 0.0
O75 O 0.49245 0.63592 0.27353 0.0
O76 O 0.42737 0.63931 0.30393 0.0
O77 O 0.12083 0.54997 0.67508 0.0
Cd78 Cd 0.14138 0.57033 0.597 0.0
O79 O 0.09945 0.47591 0.65607 0.0
Cd80 Cd 0.07332 0.39998 0.66494 0.0
O81 O 0.0525 0.32263 0.66289 0.0
C82 C 0.01711 0.305 0.64432 0.0
O83 O 0.99115 0.33429 0.62663 0.0
C84 C 0.10576 0.50734 0.68654 0.0
C85 C 0.22934 0.55661 0.58864 0.0
O86 O 0.19882 0.52261 0.58107 0.0
O87 O 0.21805 0.59786 0.59836 0.0
Co88 Co 0.97012 1.01277 0.57372 0.0
C89 C 1.00875 0.92749 0.56869 0.0
Co90 Co 0.03183 1.01247 0.61112 0.0
C91 C 0.8784 0.02015 0.55605 0.0
C92 C 0.91218 0.99525 0.49906 0.0
N93 N 0.91843 1.01085 0.54156 0.0
N94 N 0.84742 1.01052 0.52436 0.0
C95 C 0.86854 0.99478 0.48849 0.0
H96 H 0.87173 0.03156 0.58988 0.0
H97 H 0.93749 0.98344 0.47766 0.0
C98 C 0.99512 0.09883 0.61504 0.0
N99 N 0.08301 1.0141 0.64358 0.0
C100 C 0.12095 0.99727 0.63189 0.0
C101 C 0.08976 0.03153 0.68537 0.0
N102 N 0.15115 1.00361 0.66476 0.0
C103 C 0.13157 0.02498 0.69854 0.0
C104 C 0.04503 0.04375 0.52134 0.0
O105 O 0.96484 0.07723 0.59133 0.0
O106 O 0.02685 0.07639 0.62722 0.0
O107 O 0.06455 0.03535 0.5579 0.0
O108 O 1.00324 0.03701 0.52098 0.0
O109 O 0.03686 0.9488 0.59475 0.0
H110 H 0.06564 0.04761 0.70513 0.0
H111 H 0.12583 0.97961 0.60037 0.0
O112 O 0.97646 0.94866 0.55559 0.0
O113 O 0.9374 0.98819 0.62716 0.0
O114 O 0.99917 0.98934 0.66364 0.0
C115 C 0.9576 0.98038 0.66344 0.0
H116 H 0.85328 0.98289 0.45722 0.0
H117 H 0.14653 0.03529 0.73039 0.0
Co118 Co 0.47355 0.02915 0.05133 0.0
C119 C 0.46081 0.9568 0.11796 0.0
Co120 Co 0.50451 0.04869 0.11633 0.0
C121 C 0.4721 1.01126 0.9571 0.0
C122 C 0.40862 0.98995 0.9863 0.0
N123 N 0.44912 1.01092 0.99623 0.0
N124 N 0.4482 0.99027 0.9234 0.0
C125 C 0.40791 0.97739 0.94137 0.0
H126 H 0.50628 0.02574 0.95368 0.0
H127 H 0.38198 0.98246 1.01053 0.0
C128 C 0.51824 0.12002 0.04962 0.0
N129 N 0.53229 0.06857 0.16994 0.0
C130 C 0.52352 0.05692 0.21392 0.0
C131 C 0.56777 0.10182 0.17093 0.0
N132 N 0.55219 0.08183 0.24201 0.0
C133 C 0.57934 0.11068 0.21463 0.0
C134 C 0.55983 1.0063 0.05786 0.0
O135 O 0.49819 0.08899 0.02425 0.0
O136 O 0.52194 0.11006 0.09105 0.0
O137 O 0.55873 0.0275 0.09536 0.0
O138 O 0.52537 1.00126 0.03425 0.0
O139 O 0.48607 0.9863 0.14086 0.0
H140 H 0.58427 0.11929 0.14164 0.0
H141 H 0.4968 0.03061 0.22501 0.0
O142 O 0.45007 0.96916 0.07837 0.0
O143 O 0.42122 0.05744 0.06988 0.0
O144 O 0.45076 0.07007 0.13648 0.0
C145 C 0.41816 0.072 0.11034 0.0
H146 H 0.3806 0.95824 0.92388 0.0
H147 H 0.60515 0.13763 0.22502 0.0
Co148 Co 0.60581 0.56423 0.54258 0.0
C149 C 0.53912 0.5761 0.4814 0.0
Co150 Co 0.53935 0.54794 0.57137 0.0
C151 C 0.69681 0.60321 0.53755 0.0
C152 C 0.67491 0.56913 0.47637 0.0
N153 N 0.66126 0.57954 0.51807 0.0
N154 N 0.73212 0.60786 0.50965 0.0
C155 C 0.71844 0.58673 0.47102 0.0
H156 H 0.69655 0.61734 0.57129 0.0
H157 H 0.65452 0.54986 0.45151 0.0
C158 C 0.60568 0.53763 0.63298 0.0
N159 N 0.48391 0.53142 0.5955 0.0
C160 C 0.44657 0.55034 0.58552 0.0
C161 C 0.47126 0.4935 0.62313 0.0
N162 N 0.41109 0.52501 0.60493 0.0
C163 C 0.42644 0.48947 0.629 0.0
C164 C 0.57282 0.46896 0.53349 0.0
O165 O 0.63075 0.54852 0.59907 0.0
O166 O 0.56437 0.53539 0.62808 0.0
O167 O 0.54085 0.48335 0.55476 0.0
O168 O 0.60605 0.49904 0.52398 0.0
O169 O 0.51464 0.56124 0.51469 0.0
H170 H 0.49305 0.46926 0.63673 0.0
H171 H 0.44515 0.58075 0.56281 0.0
O172 O 0.58054 0.58017 0.48628 0.0
O173 O 0.60498 0.62934 0.56139 0.0
O174 O 0.53776 0.61233 0.58768 0.0
C175 C 0.57108 0.64286 0.58028 0.0
H176 H 0.73869 0.58369 0.4413 0.0
H177 H 0.40661 0.46212 0.64878 0.0
Co178 Co 0.01655 0.51004 1.00053 0.0
C179 C 0.93232 0.47052 0.03258 0.0
Co180 Co 1.00114 0.52392 0.07183 0.0
C181 C 0.05254 0.49251 0.90945 0.0
C182 C 0.9842 0.50163 0.91243 0.0
N183 N 0.01994 0.50033 0.93861 0.0
N184 N 0.03781 0.48827 0.86654 0.0
C185 C 0.99492 0.49394 0.86864 0.0
H186 H 0.08619 0.49045 0.91935 0.0
H187 H 0.95218 0.50901 0.92419 0.0
C188 C 0.08443 0.56567 0.03863 0.0
N189 N 0.99464 0.53311 0.13328 0.0
C190 C 1.01409 0.56902 0.15846 0.0
C191 C 0.97407 0.50141 0.16344 0.0
N192 N 1.00728 0.56049 0.20311 0.0
C193 C 0.98161 0.51823 0.20632 0.0
C194 C 0.04376 0.44017 0.05604 0.0
O195 O 0.07338 0.54578 1.00149 0.0
O196 O 0.05822 0.55976 0.07238 0.0
O197 O 0.02721 0.46598 0.0852 0.0
O198 O 0.04223 0.45219 0.01441 0.0
O199 O 0.94354 0.48932 0.06995 0.0
H200 H 0.95659 0.46707 0.15499 0.0
H201 H 0.03383 0.60023 0.14436 0.0
O202 O 0.95982 0.47434 1.00024 0.0
O203 O 0.99115 0.56864 0.98741 0.0
O204 O 0.9756 0.58116 0.05832 0.0
C205 C 0.97498 0.594 0.01703 0.0
H206 H 0.97324 0.49463 0.84004 0.0
H207 H 0.97111 0.49955 0.23753 0.0
C208 C 0.14278 0.07951 0.44195 0.0
C209 C 0.12347 0.08801 0.39996 0.0
C210 C 0.11726 0.06582 0.48069 0.0
C211 C 0.071 0.05985 0.47956 0.0
H212 H 0.17819 0.0832 0.44512 0.0
H213 H 0.13417 0.05954 0.5118 0.0
S214 S 1.00355 0.07776 0.37832 0.0
N215 N 0.05474 0.0896 0.35988 0.0
N216 N 1.00682 0.06388 0.43246 0.0
C217 C 0.05108 0.0685 0.43788 0.0
C218 C 0.0772 0.08255 0.39829 0.0
C219 C 0.45276 0.97581 0.79737 0.0
C220 C 0.49395 0.95921 0.79029 0.0
C221 C 0.43773 0.98522 0.84092 0.0
C222 C 0.46381 0.97971 0.87898 0.0
H223 H 0.43239 0.98315 0.76915 0.0
H224 H 0.40595 0.99809 0.8448 0.0
S225 S 0.57458 0.93832 0.87912 0.0
N226 N 0.56064 0.93808 0.82549 0.0
N227 N 0.53282 0.95655 0.90692 0.0
C228 C 0.50529 0.96383 0.87244 0.0
C229 C 0.52031 0.95362 0.82825 0.0
C230 C 0.61488 0.53163 0.76035 0.0
C231 C 0.65486 0.51261 0.76713 0.0
C232 C 0.59942 0.53943 0.71683 0.0
C233 C 0.62381 0.52966 0.6783 0.0
H234 H 0.59456 0.53906 0.78891 0.0
H235 H 0.56802 0.55331 0.7134 0.0
S236 S 0.73214 0.48265 0.67768 0.0
N237 N 0.71935 0.48564 0.73177 0.0
N238 N 0.69105 0.50209 0.64974 0.0
C239 C 0.66465 0.51227 0.68453 0.0
C240 C 0.67993 0.5032 0.72899 0.0
C241 C 0.02316 0.61277 0.31845 0.0
C242 C 0.06721 0.63354 0.31707 0.0
C243 C 1.00356 0.59013 0.28071 0.0
C244 C 0.02722 0.58722 0.24017 0.0
H245 H 1.00364 0.61376 0.34901 0.0
H246 H 0.96964 0.57444 0.28333 0.0
S247 S 0.14438 0.63308 0.2198 0.0
N248 N 0.13431 0.64865 0.27201 0.0
N249 N 0.09771 0.60515 0.20153 0.0
C250 C 0.07129 0.60789 0.23824 0.0
C251 C 0.0912 0.63126 0.27658 0.0
C252 C 0.30589 0.12087 0.11368 0.0
C253 C 0.29709 0.1244 0.16027 0.0
C254 C 0.34477 0.10383 0.09772 0.0
C255 C 0.37702 0.09036 0.12758 0.0
H256 H 0.28206 0.13028 0.08928 0.0
H257 H 0.34958 0.10128 0.06162 0.0
S258 S 0.37107 0.09479 0.25285 0.0
N259 N 0.32487 0.11401 0.23598 0.0
N260 N 0.39748 0.08296 0.20634 0.0
C261 C 0.36895 0.09469 0.17422 0.0
C262 C 0.32924 0.11138 0.19042 0.0
C263 C 0.25437 0.95852 0.70648 0.0
C264 C 0.28235 0.96399 0.6683 0.0
C265 C 0.21152 0.9711 0.70485 0.0
C266 C 0.19475 0.98932 0.66496 0.0
H267 H 0.26573 0.94499 0.73821 0.0
H268 H 0.19126 0.96645 0.73508 0.0
S269 S 0.25388 1.01061 0.55545 0.0
N270 N 0.28965 0.9886 0.58903 0.0
N271 N 0.20908 1.0125 0.58641 0.0
C272 C 0.22191 0.99438 0.62633 0.0
C273 C 0.2657 0.98171 0.62792 0.0
C274 C 0.81153 0.4771 0.01595 0.0
C275 C 0.80105 0.44316 0.9822 0.0
C276 C 0.85295 0.48182 0.03639 0.0
C277 C 0.88588 0.45408 0.02243 0.0
H278 H 0.78807 0.50133 0.0255 0.0
H279 H 0.86031 0.50997 0.06064 0.0
S280 S 0.87372 0.35765 0.9379 0.0
N281 N 0.82539 0.3784 0.93874 0.0
N282 N 0.90408 0.3891 0.97518 0.0
C283 C 0.87495 0.41831 0.99044 0.0
C284 C 0.83232 0.41244 0.97074 0.0
C285 C 0.84217 0.67912 0.49138 0.0
C286 C 0.86402 0.67166 0.53207 0.0
C287 C 0.79893 0.65876 0.48468 0.0
C288 C 0.77556 0.63066 0.51853 0.0
H289 H 0.85884 0.69993 0.46387 0.0
H290 H 0.78363 0.66485 0.45262 0.0
S291 S 0.81658 0.6011 0.63173 0.0
N292 N 0.85818 0.63492 0.60734 0.0
N293 N 0.7767 0.59677 0.59442 0.0
C294 C 0.79631 0.62386 0.55983 0.0
C295 C 0.84059 0.6443 0.56665 0.0
C296 C 0.10088 0.35637 0.1329 0.0
C297 C 0.10925 0.31834 0.10483 0.0
C298 C 0.0796 0.39501 0.11678 0.0
C299 C 0.06617 0.39809 0.07152 0.0
H300 H 0.11008 0.35595 0.1681 0.0
H301 H 0.07384 0.42293 0.14018 0.0
S302 S 0.08132 0.30888 0.9833 0.0
N303 N 0.10274 0.28672 0.02897 0.0
N304 N 0.06369 0.35977 0.99853 0.0
C305 C 0.075 0.36081 0.04274 0.0
C306 C 0.09618 0.32094 0.05938 0.0
C307 C 0.60521 0.19912 0.98398 0.0
C308 C 0.609 0.24175 1.00875 0.0
C309 C 0.57272 0.16101 0.99478 0.0
C310 C 0.54363 0.16398 0.03131 0.0
H311 H 0.62801 0.19482 0.95659 0.0
H312 H 0.57219 0.12798 0.97627 0.0
S313 S 0.53848 0.26808 0.10561 0.0
N314 N 0.57919 0.28538 0.06993 0.0
N315 N 0.51935 0.21312 0.09106 0.0
C316 C 0.54614 0.20683 0.05536 0.0
C317 C 0.57851 0.24593 0.04385 0.0
C318 C 0.04647 0.80435 0.56033 0.0
C319 C 0.04725 0.79744 0.51347 0.0
C320 C 0.0322 0.84588 0.57828 0.0
C321 C 0.01692 0.881 0.55004 0.0
H322 H 0.05895 0.77862 0.5831 0.0
H323 H 0.03408 0.8511 0.61439 0.0
S324 S 1.00979 0.8783 0.42532 0.0
N325 N 0.03028 0.82816 0.43932 0.0
N326 N 1.00176 0.90542 0.47323 0.0
C327 C 0.01556 0.87341 0.50333 0.0
C328 C 0.03126 0.83181 0.48497 0.0
C329 C 0.61017 0.77102 0.61325 0.0
C330 C 0.57071 0.79085 0.62147 0.0
C331 C 0.61001 0.72339 0.59943 0.0
C332 C 0.5704 0.69344 0.59394 0.0
H333 H 0.64154 0.79258 0.61704 0.0
H334 H 0.64124 0.70983 0.5935 0.0
S335 S 0.45797 0.72769 0.61132 0.0
N336 N 0.49086 0.77664 0.62298 0.0
N337 N 0.49055 0.68718 0.59759 0.0
C338 C 0.53069 0.71272 0.60224 0.0
C339 C 0.53084 0.76137 0.61581 0.0
C340 C 0.86609 0.95021 0.75177 0.0
C341 C 0.88703 0.92703 0.78675 0.0
C342 C 0.88869 0.96647 0.7117 0.0
C343 C 0.93346 0.9611 0.70519 0.0
H344 H 0.83185 0.95584 0.75526 0.0
H345 H 0.8711 0.98421 0.68601 0.0
S346 S 1.00367 0.90237 0.78574 0.0
N347 N 0.95534 0.89894 0.81137 0.0
N348 N 0.99762 0.92994 0.73694 0.0
C349 C 0.95471 0.93776 0.73974 0.0
C350 C 0.9316 0.92062 0.78017 0.0
C351 C 0.51654 0.06201 0.36399 0.0
C352 C 0.55568 0.07517 0.38731 0.0
C353 C 0.51545 0.06458 0.31658 0.0
C354 C 0.55378 0.07904 0.29083 0.0
H355 H 0.48662 0.04968 0.38255 0.0
H356 H 0.48437 0.05522 0.30008 0.0
S357 S 0.66583 0.11047 0.33703 0.0
N358 N 0.63382 0.10035 0.38204 0.0
N359 N 0.63304 0.10192 0.29336 0.0
C360 C 0.59344 0.09074 0.31426 0.0
C361 C 0.59406 0.08958 0.36238 0.0
C362 C 0.52993 0.61475 0.35841 0.0
C363 C 0.48466 0.61759 0.35323 0.0
C364 C 0.54713 0.60121 0.39981 0.0
C365 C 0.51977 0.58958 0.43778 0.0
H366 H 0.55249 0.62321 0.33029 0.0
H367 H 0.58223 0.59979 0.40191 0.0
S368 S 0.39864 0.59092 0.44225 0.0
N369 N 0.41267 0.60744 0.38988 0.0
N370 N 0.44484 0.58175 0.46738 0.0
C371 C 0.47435 0.59206 0.43307 0.0
C372 C 0.45686 0.60615 0.39095 0.0
C373 C 0.05716 0.46321 0.74535 0.0
C374 C 0.09402 0.49598 0.73438 0.0
C375 C 0.04141 0.45764 0.7898 0.0
C376 C 0.0616 0.48489 0.82491 0.0
H377 H 0.03836 0.44424 0.71918 0.0
H378 H 1.01144 0.434 0.79641 0.0
S379 S 0.16181 0.5719 0.81482 0.0
N380 N 0.1529 0.5528 0.76293 0.0
N381 N 0.12231 0.54299 0.84646 0.0
C382 C 0.10012 0.51543 0.81503 0.0
C383 C 0.11637 0.52104 0.76969 0.0
C384 C 0.67956 1.01225 0.02108 0.0
C385 C 0.68086 0.97051 0.99534 0.0
C386 C 0.64083 0.02242 0.04291 0.0
C387 C 0.6015 0.99164 0.03953 0.0
H388 H 0.70852 0.03804 0.02374 0.0
H389 H 0.64129 0.05566 0.06109 0.0
S390 S 0.58784 0.87452 0.98221 0.0
N391 N 0.63966 0.89564 0.97216 0.0
N392 N 0.56686 0.91565 1.01217 0.0
C393 C 0.60247 0.94899 0.01549 0.0
C394 C 0.64209 0.93817 0.99376 0.0
C395 C 0.72605 0.97376 0.51661 0.0
C396 C 0.70775 1.01268 0.5357 0.0
C397 C 0.77162 0.97339 0.51308 0.0
C398 C 0.80075 1.01153 0.52913 0.0
H399 H 0.70506 0.94357 0.50348 0.0
H400 H 0.78424 0.94284 0.49791 0.0
S401 S 0.77036 0.12162 0.58262 0.0
N402 N 0.7228 0.0904 0.57128 0.0
N403 N 0.80856 0.08908 0.56499 0.0
C404 C 0.78317 0.0503 0.54896 0.0
C405 C 0.73666 0.05107 0.55209 0.0
C406 C 0.20688 0.60717 0.03067 0.0
C407 C 0.21187 0.64733 0.05902 0.0
C408 C 0.16539 0.58191 0.02275 0.0
C409 C 0.12734 0.59536 0.04341 0.0
H410 H 0.23533 0.59446 0.01498 0.0
H411 H 0.16333 0.55063 1.00161 0.0
S412 S 0.12102 0.70085 0.11598 0.0
N413 N 0.17393 0.70159 0.1045 0.0
N414 N 0.09644 0.65376 0.08999 0.0
C415 C 0.13147 0.63638 0.07036 0.0
C416 C 0.17356 0.66246 0.07803 0.0
C417 C 0.3091 0.58651 0.59574 0.0
C418 C 0.27617 0.54798 0.58902 0.0
C419 C 0.35328 0.57887 0.60006 0.0
C420 C 0.36599 0.53243 0.59843 0.0
H421 H 0.30071 0.62284 0.59842 0.0
H422 H 0.37755 0.60928 0.60594 0.0
S423 S 0.29392 0.41992 0.57714 0.0
N424 N 0.26029 0.46186 0.57782 0.0
N425 N 0.34334 0.44794 0.58612 0.0
C426 C 0.33387 0.49383 0.59028 0.0
C427 C 0.28896 0.50151 0.58547 0.0
C428 C 0.95947 0.71592 0.96534 0.0
C429 C 0.91437 0.71904 0.97254 0.0
C430 C 0.97891 0.67519 0.9796 0.0
C431 C 0.95431 0.63699 1.00303 0.0
H432 H 0.97972 0.74479 0.94784 0.0
H433 H 1.01352 0.67378 0.97269 0.0
S434 S 0.83562 0.62766 0.03141 0.0
N435 N 0.84577 0.67991 1.00448 0.0
N436 N 0.88291 0.60476 0.03305 0.0
C437 C 0.90952 0.63994 1.0111 0.0
C438 C 0.88939 0.6806 0.99539 0.0
C439 C 0.40959 0.82609 0.12341 0.0
C440 C 0.42225 0.81008 0.16603 0.0
C441 C 0.42113 0.87387 0.10867 0.0
C442 C 0.44563 0.90764 0.13604 0.0
H443 H 0.39234 0.80112 0.10043 0.0
H444 H 0.41177 0.88395 0.07497 0.0
S445 S 0.48216 0.88504 0.25288 0.0
N446 N 0.45738 0.83277 0.23699 0.0
N447 N 0.47878 0.92216 0.20956 0.0
C448 C 0.45657 0.89253 0.17963 0.0
C449 C 0.44499 0.84392 0.19451 0.0
C450 C 0.03669 0.22197 0.65829 0.0
C451 C 1.00747 0.25205 0.63984 0.0
C452 C 0.03119 0.17245 0.65148 0.0
C453 C 0.99623 0.15052 0.62583 0.0
H454 H 0.06484 0.23681 0.6774 0.0
H455 H 0.05546 0.15143 0.66562 0.0
S456 S 0.90784 0.21218 0.57365 0.0
N457 N 0.94016 0.25563 0.5974 0.0
N458 N 0.92997 0.16233 0.58453 0.0
C459 C 0.96551 0.17969 0.60883 0.0
C460 C 0.9711 0.23043 0.61582 0.0
C461 C 0.60465 0.35307 0.48355 0.0
C462 C 0.56764 0.31963 0.49311 0.0
C463 C 0.60618 0.40118 0.49667 0.0
C464 C 0.57069 0.4179 0.51975 0.0
H465 H 0.63297 0.34194 0.46623 0.0
H466 H 0.63551 0.42535 0.48874 0.0
S467 S 0.46507 0.3454 0.55111 0.0
N468 N 0.494 0.30728 0.52591 0.0
N469 N 0.49676 0.39707 0.55039 0.0
C470 C 0.53322 0.38492 0.52895 0.0
C471 C 0.53173 0.33604 0.5157 0.0
loop_
_geom_bond_atom_site_label_1
_geom_bond_atom_site_label_2
_geom_bond_distance
_geom_bond_site_symmetry_2
_ccdc_geom_bond_type
O0 Cd1 2.300 . S
O0 C7 1.275 . S
Cd1 O0 2.300 . S
Cd1 O9 2.381 . S
Cd1 O10 2.378 . S
O2 Cd3 2.385 . S
O2 C7 1.255 . S
Cd3 O2 2.385 . S
Cd3 O4 2.317 . S
O4 Cd3 2.317 . S
O4 C5 1.232 . S
C5 O4 1.232 . S
C5 O6 1.218 . S
O6 C5 1.218 . S
C7 O0 1.275 . S
C7 O2 1.255 . S
C8 O9 1.258 . S
C8 O10 1.256 . S
O9 Cd1 2.381 . S
O9 C8 1.258 . S
O10 Cd1 2.378 . S
O10 C8 1.256 . S
O11 Cd12 2.300 . S
O11 C18 1.275 . S
Cd12 O11 2.300 . S
Cd12 O20 2.381 . S
Cd12 O21 2.378 . S
O13 Cd14 2.385 . S
O13 C18 1.255 . S
Cd14 O13 2.385 . S
Cd14 O15 2.317 . S
O15 Cd14 2.317 . S
O15 C16 1.232 . S
C16 O15 1.232 . S
C16 O17 1.218 . S
O17 C16 1.218 . S
C18 O11 1.275 . S
C18 O13 1.255 . S
C19 O20 1.258 . S
C19 O21 1.256 . S
O20 Cd12 2.381 . S
O20 C19 1.258 . S
O21 Cd12 2.378 . S
O21 C19 1.256 . S
O22 Cd23 2.300 . S
O22 C29 1.275 . S
Cd23 O22 2.300 . S
Cd23 O31 2.381 . S
Cd23 O32 2.378 . S
O24 Cd25 2.385 . S
O24 C29 1.255 . S
Cd25 O24 2.385 . S
Cd25 O26 2.317 . S
O26 Cd25 2.317 . S
O26 C27 1.232 . S
C27 O26 1.232 . S
C27 O28 1.218 . S
O28 C27 1.218 . S
C29 O22 1.275 . S
C29 O24 1.255 . S
C30 O31 1.258 . S
C30 O32 1.256 . S
O31 Cd23 2.381 . S
O31 C30 1.258 . S
O32 Cd23 2.378 . S
O32 C30 1.256 . S
O33 Cd34 2.300 . S
O33 C40 1.275 . S
Cd34 O33 2.300 . S
Cd34 O42 2.381 . S
Cd34 O43 2.378 . S
O35 Cd36 2.385 . S
O35 C40 1.255 . S
Cd36 O35 2.385 . S
Cd36 O37 2.317 . S
O37 Cd36 2.317 . S
O37 C38 1.232 . S
C38 O37 1.232 . S
C38 O39 1.218 . S
O39 C38 1.218 . S
C40 O33 1.275 . S
C40 O35 1.255 . S
C41 O42 1.258 . S
C41 O43 1.256 . S
O42 Cd34 2.381 . S
O42 C41 1.258 . S
O43 Cd34 2.378 . S
O43 C41 1.256 . S
O44 Cd45 2.300 . S
O44 C51 1.275 . S
Cd45 O44 2.300 . S
Cd45 O53 2.381 . S
Cd45 O54 2.378 1_556 S
O46 Cd47 2.385 1_565 S
O46 C51 1.255 . S
Cd47 O46 2.385 1_545 S
Cd47 O48 2.317 1_545 S
O48 Cd47 2.317 1_565 S
O48 C49 1.232 . S
C49 O48 1.232 . S
C49 O50 1.218 1_565 S
O50 C49 1.218 1_545 S
C51 O44 1.275 . S
C51 O46 1.255 . S
C52 O53 1.258 . S
C52 O54 1.256 1_556 S
O53 Cd45 2.381 . S
O53 C52 1.258 . S
O54 Cd45 2.378 1_554 S
O54 C52 1.256 1_554 S
O55 Cd56 2.300 . S
O55 C62 1.275 . S
Cd56 O55 2.300 . S
Cd56 O64 2.381 . S
Cd56 O65 2.378 . S
O57 Cd58 2.385 . S
O57 C62 1.255 . S
Cd58 O57 2.385 . S
Cd58 O59 2.317 . S
O59 Cd58 2.317 . S
O59 C60 1.232 . S
C60 O59 1.232 . S
C60 O61 1.218 . S
O61 C60 1.218 . S
C62 O55 1.275 . S
C62 O57 1.255 . S
C63 O64 1.258 . S
C63 O65 1.256 . S
O64 Cd56 2.381 . S
O64 C63 1.258 . S
O65 Cd56 2.378 . S
O65 C63 1.256 . S
O66 Cd67 2.300 . S
O66 C73 1.275 . S
Cd67 O66 2.300 . S
Cd67 O75 2.381 . S
Cd67 O76 2.378 . S
O68 Cd69 2.385 . S
O68 C73 1.255 . S
Cd69 O68 2.385 . S
Cd69 O70 2.317 . S
O70 Cd69 2.317 . S
O70 C71 1.232 . S
C71 O70 1.232 . S
C71 O72 1.218 . S
O72 C71 1.218 . S
C73 O66 1.275 . S
C73 O68 1.255 . S
C74 O75 1.258 . S
C74 O76 1.256 . S
O75 Cd67 2.381 . S
O75 C74 1.258 . S
O76 Cd67 2.378 . S
O76 C74 1.256 . S
O77 Cd78 2.300 . S
O77 C84 1.275 . S
Cd78 O77 2.300 . S
Cd78 O86 2.381 . S
Cd78 O87 2.378 . S
O79 Cd80 2.385 . S
O79 C84 1.255 . S
Cd80 O79 2.385 . S
Cd80 O81 2.317 . S
O81 Cd80 2.317 . S
O81 C82 1.232 . S
C82 O81 1.232 . S
C82 O83 1.218 . S
O83 C82 1.218 . S
C84 O77 1.275 . S
C84 O79 1.255 . S
C85 O86 1.258 . S
C85 O87 1.256 . S
O86 Cd78 2.381 . S
O86 C85 1.258 . S
O87 Cd78 2.378 . S
O87 C85 1.256 . S
Co88 N93 2.057 . S
Co88 O105 2.021 . S
Co88 O108 2.062 . S
Co88 O112 2.117 1_545 S
Co88 O113 2.020 1_545 S
C89 O109 1.259 1_655 S
C89 O112 1.258 . S
Co90 N99 2.057 . S
Co90 O106 2.117 1_565 S
Co90 O107 2.020 1_565 S
Co90 O109 2.021 . S
Co90 O114 2.062 . S
C91 N93 1.316 . S
C91 N94 1.347 . S
C91 H96 0.931 . S
C92 N93 1.375 1_565 S
C92 C95 1.350 . S
C92 H97 0.930 . S
N93 Co88 2.057 . S
N93 C91 1.316 . S
N93 C92 1.375 1_545 S
N94 C91 1.347 . S
N94 C95 1.373 1_545 S
C95 C92 1.350 . S
C95 N94 1.373 1_565 S
C95 H116 0.931 . S
H96 C91 0.931 . S
H97 C92 0.930 . S
C98 O105 1.259 1_455 S
C98 O106 1.258 . S
N99 Co90 2.057 . S
N99 C100 1.316 . S
N99 C101 1.375 1_565 S
C100 N99 1.316 . S
C100 N102 1.347 . S
C100 H111 0.931 . S
C101 N99 1.375 1_545 S
C101 C103 1.350 . S
C101 H110 0.930 . S
N102 C100 1.347 . S
N102 C103 1.373 1_565 S
C103 C101 1.350 . S
C103 N102 1.373 1_545 S
C103 H117 0.931 . S
C104 O107 1.256 . S
C104 O108 1.255 1_455 S
O105 Co88 2.021 . S
O105 C98 1.259 1_655 S
O106 Co90 2.117 1_545 S
O106 C98 1.258 . S
O107 Co90 2.020 1_545 S
O107 C104 1.256 . S
O108 Co88 2.062 . S
O108 C104 1.255 1_655 S
O109 C89 1.259 1_455 S
O109 Co90 2.021 . S
H110 C101 0.930 . S
H111 C100 0.931 . S
O112 Co88 2.117 1_565 S
O112 C89 1.258 . S
O113 Co88 2.020 1_565 S
O113 C115 1.256 . S
O114 Co90 2.062 . S
O114 C115 1.255 1_455 S
C115 O113 1.256 . S
C115 O114 1.255 1_655 S
H116 C95 0.931 . S
H117 C103 0.931 . S
Co118 N123 2.057 1_544 S
Co118 O135 2.021 1_554 S
Co118 O138 2.062 . S
Co118 O142 2.117 1_545 S
Co118 O143 2.020 . S
C119 O139 1.259 . S
C119 O142 1.258 . S
Co120 N129 2.057 . S
Co120 O136 2.117 . S
Co120 O137 2.020 . S
Co120 O139 2.021 1_545 S
Co120 O144 2.062 . S
C121 N123 1.316 . S
C121 N124 1.347 . S
C121 H126 0.931 1_565 S
C122 N123 1.375 . S
C122 C125 1.350 . S
C122 H127 0.930 . S
N123 Co118 2.057 1_566 S
N123 C121 1.316 . S
N123 C122 1.375 . S
N124 C121 1.347 . S
N124 C125 1.373 . S
C125 C122 1.350 . S
C125 N124 1.373 . S
C125 H146 0.931 . S
H126 C121 0.931 1_545 S
H127 C122 0.930 . S
C128 O135 1.259 1_554 S
C128 O136 1.258 . S
N129 Co120 2.057 . S
N129 C130 1.316 . S
N129 C131 1.375 . S
C130 N129 1.316 . S
C130 N132 1.347 . S
C130 H141 0.931 . S
C131 N129 1.375 . S
C131 C133 1.350 . S
C131 H140 0.930 . S
N132 C130 1.347 . S
N132 C133 1.373 . S
C133 C131 1.350 . S
C133 N132 1.373 . S
C133 H147 0.931 . S
C134 O137 1.256 . S
C134 O138 1.255 . S
O135 Co118 2.021 1_556 S
O135 C128 1.259 1_556 S
O136 Co120 2.117 . S
O136 C128 1.258 . S
O137 Co120 2.020 . S
O137 C134 1.256 . S
O138 Co118 2.062 . S
O138 C134 1.255 . S
O139 C119 1.259 . S
O139 Co120 2.021 1_565 S
H140 C131 0.930 . S
H141 C130 0.931 . S
O142 Co118 2.117 1_565 S
O142 C119 1.258 . S
O143 Co118 2.020 . S
O143 C145 1.256 . S
O144 Co120 2.062 . S
O144 C145 1.255 . S
C145 O143 1.256 . S
C145 O144 1.255 . S
H146 C125 0.931 . S
H147 C133 0.931 . S
Co148 N153 2.057 . S
Co148 O165 2.021 . S
Co148 O168 2.062 . S
Co148 O172 2.117 . S
Co148 O173 2.020 . S
C149 O169 1.259 . S
C149 O172 1.258 . S
Co150 N159 2.057 . S
Co150 O166 2.117 . S
Co150 O167 2.020 . S
Co150 O169 2.021 . S
Co150 O174 2.062 . S
C151 N153 1.316 . S
C151 N154 1.347 . S
C151 H156 0.931 . S
C152 N153 1.375 . S
C152 C155 1.350 . S
C152 H157 0.930 . S
N153 Co148 2.057 . S
N153 C151 1.316 . S
N153 C152 1.375 . S
N154 C151 1.347 . S
N154 C155 1.373 . S
C155 C152 1.350 . S
C155 N154 1.373 . S
C155 H176 0.931 . S
H156 C151 0.931 . S
H157 C152 0.930 . S
C158 O165 1.259 . S
C158 O166 1.258 . S
N159 Co150 2.057 . S
N159 C160 1.316 . S
N159 C161 1.375 . S
C160 N159 1.316 . S
C160 N162 1.347 . S
C160 H171 0.931 . S
C161 N159 1.375 . S
C161 C163 1.350 . S
C161 H170 0.930 . S
N162 C160 1.347 . S
N162 C163 1.373 . S
C163 C161 1.350 . S
C163 N162 1.373 . S
C163 H177 0.931 . S
C164 O167 1.256 . S
C164 O168 1.255 . S
O165 Co148 2.021 . S
O165 C158 1.259 . S
O166 Co150 2.117 . S
O166 C158 1.258 . S
O167 Co150 2.020 . S
O167 C164 1.256 . S
O168 Co148 2.062 . S
O168 C164 1.255 . S
O169 C149 1.259 . S
O169 Co150 2.021 . S
H170 C161 0.930 . S
H171 C160 0.931 . S
O172 Co148 2.117 . S
O172 C149 1.258 . S
O173 Co148 2.020 . S
O173 C175 1.256 . S
O174 Co150 2.062 . S
O174 C175 1.255 . S
C175 O173 1.256 . S
C175 O174 1.255 . S
H176 C155 0.931 . S
H177 C163 0.931 . S
Co178 N183 2.057 . S
Co178 O195 2.021 . S
Co178 O198 2.062 1_556 S
Co178 O202 2.117 1_455 S
Co178 O203 2.020 . S
C179 O199 1.259 . S
C179 O202 1.258 1_554 S
Co180 N189 2.058 . S
Co180 O196 2.117 . S
Co180 O197 2.020 . S
Co180 O199 2.021 1_455 S
Co180 O204 2.062 1_455 S
C181 N183 1.316 . S
C181 N184 1.347 . S
C181 H186 0.931 . S
C182 N183 1.375 . S
C182 C185 1.350 . S
C182 H187 0.930 1_455 S
N183 Co178 2.057 . S
N183 C181 1.316 . S
N183 C182 1.375 . S
N184 C181 1.347 . S
N184 C185 1.373 . S
C185 C182 1.350 . S
C185 N184 1.373 . S
C185 H206 0.931 . S
H186 C181 0.931 . S
H187 C182 0.930 1_655 S
C188 O195 1.259 1_554 S
C188 O196 1.258 . S
N189 Co180 2.058 . S
N189 C190 1.308 1_455 S
N189 C191 1.382 . S
C190 N189 1.308 1_655 S
C190 N192 1.347 . S
C190 H201 0.931 . S
C191 N189 1.382 . S
C191 C193 1.350 . S
C191 H200 0.930 . S
N192 C190 1.347 . S
N192 C193 1.373 1_655 S
C193 C191 1.350 . S
C193 N192 1.373 1_455 S
C193 H207 0.931 . S
C194 O197 1.256 . S
C194 O198 1.255 . S
O195 Co178 2.021 . S
O195 C188 1.259 1_556 S
O196 Co180 2.117 . S
O196 C188 1.258 . S
O197 Co180 2.020 . S
O197 C194 1.256 . S
O198 Co178 2.062 1_554 S
O198 C194 1.255 . S
O199 C179 1.259 . S
O199 Co180 2.021 1_655 S
H200 C191 0.930 . S
H201 C190 0.931 . S
O202 Co178 2.117 1_655 S
O202 C179 1.258 1_556 S
O203 Co178 2.020 . S
O203 C205 1.236 1_456 S
O204 Co180 2.062 1_655 S
O204 C205 1.278 . S
C205 O203 1.236 1_654 S
C205 O204 1.278 . S
H206 C185 0.931 . S
H207 C193 0.931 . S
C208 C209 1.369 . S
C208 C210 1.419 . S
C208 H212 0.930 1_545 S
C209 C208 1.369 . S
C209 C218 1.429 . S
C210 C208 1.419 . S
C210 C211 1.363 . S
C210 H213 0.929 1_545 S
C211 C210 1.363 . S
C211 C217 1.428 . S
H212 C208 0.930 1_565 S
H213 C210 0.929 1_565 S
S214 N215 1.613 . S
S214 N216 1.610 . S
N215 S214 1.613 . S
N215 C218 1.350 . S
N216 S214 1.610 . S
N216 C217 1.351 . S
C217 C211 1.428 . S
C217 N216 1.351 . S
C217 C218 1.434 . S
C218 C209 1.429 . S
C218 N215 1.350 . S
C218 C217 1.434 . S
C219 C220 1.369 . S
C219 C221 1.419 . S
C219 H223 0.930 . S
C220 C219 1.369 . S
C220 C229 1.429 . S
C221 C219 1.419 . S
C221 C222 1.363 . S
C221 H224 0.929 . S
C222 C221 1.363 . S
C222 C228 1.428 . S
H223 C219 0.930 . S
H224 C221 0.929 . S
S225 N226 1.613 1_545 S
S225 N227 1.610 . S
N226 S225 1.613 1_565 S
N226 C229 1.350 . S
N227 S225 1.610 . S
N227 C228 1.351 1_545 S
C228 C222 1.428 . S
C228 N227 1.351 1_565 S
C228 C229 1.434 . S
C229 C220 1.429 . S
C229 N226 1.350 . S
C229 C228 1.434 . S
C230 C231 1.369 . S
C230 C232 1.419 . S
C230 H234 0.930 . S
C231 C230 1.369 . S
C231 C240 1.429 . S
C232 C230 1.419 . S
C232 C233 1.363 . S
C232 H235 0.929 . S
C233 C232 1.363 . S
C233 C239 1.428 . S
H234 C230 0.930 . S
H235 C232 0.929 . S
S236 N237 1.613 . S
S236 N238 1.610 . S
N237 S236 1.613 . S
N237 C240 1.350 . S
N238 S236 1.610 . S
N238 C239 1.351 . S
C239 C233 1.428 . S
C239 N238 1.351 . S
C239 C240 1.434 . S
C240 C231 1.429 . S
C240 N237 1.350 . S
C240 C239 1.434 . S
C241 C242 1.369 . S
C241 C243 1.419 . S
C241 H245 0.930 . S
C242 C241 1.369 . S
C242 C251 1.429 1_655 S
C243 C241 1.419 . S
C243 C244 1.363 . S
C243 H246 0.929 . S
C244 C243 1.363 . S
C244 C250 1.428 1_655 S
H245 C241 0.930 . S
H246 C243 0.929 . S
S247 N248 1.613 . S
S247 N249 1.610 . S
N248 S247 1.613 . S
N248 C251 1.350 . S
N249 S247 1.610 . S
N249 C250 1.351 . S
C250 C244 1.428 1_455 S
C250 N249 1.351 . S
C250 C251 1.434 . S
C251 C242 1.429 1_455 S
C251 N248 1.350 . S
C251 C250 1.434 . S
C252 C253 1.369 . S
C252 C254 1.419 . S
C252 H256 0.930 . S
C253 C252 1.369 . S
C253 C262 1.429 . S
C254 C252 1.419 . S
C254 C255 1.363 . S
C254 H257 0.929 . S
C255 C254 1.363 . S
C255 C261 1.428 . S
H256 C252 0.930 . S
H257 C254 0.929 . S
S258 N259 1.613 . S
S258 N260 1.610 . S
N259 S258 1.613 . S
N259 C262 1.350 . S
N260 S258 1.610 . S
N260 C261 1.351 . S
C261 C255 1.428 . S
C261 N260 1.351 . S
C261 C262 1.434 . S
C262 C253 1.429 . S
C262 N259 1.350 . S
C262 C261 1.434 . S
C263 C264 1.369 . S
C263 C265 1.419 . S
C263 H267 0.930 . S
C264 C263 1.369 . S
C264 C273 1.429 . S
C265 C263 1.419 . S
C265 C266 1.363 . S
C265 H268 0.929 . S
C266 C265 1.363 . S
C266 C272 1.428 . S
H267 C263 0.930 . S
H268 C265 0.929 . S
S269 N270 1.613 . S
S269 N271 1.610 . S
N270 S269 1.613 . S
N270 C273 1.350 1_545 S
N271 S269 1.610 . S
N271 C272 1.351 1_545 S
C272 C266 1.428 . S
C272 N271 1.351 1_565 S
C272 C273 1.434 . S
C273 C264 1.429 . S
C273 N270 1.350 1_565 S
C273 C272 1.434 . S
C274 C275 1.369 1_554 S
C274 C276 1.419 . S
C274 H278 0.930 . S
C275 C274 1.369 1_556 S
C275 C284 1.429 . S
C276 C274 1.419 . S
C276 C277 1.363 1_554 S
C276 H279 0.929 . S
C277 C276 1.363 1_556 S
C277 C283 1.428 . S
H278 C274 0.930 . S
H279 C276 0.929 . S
S280 N281 1.613 . S
S280 N282 1.610 . S
N281 S280 1.613 . S
N281 C284 1.350 . S
N282 S280 1.610 . S
N282 C283 1.351 . S
C283 C277 1.428 . S
C283 N282 1.351 . S
C283 C284 1.434 . S
C284 C275 1.429 . S
C284 N281 1.350 . S
C284 C283 1.434 . S
C285 C286 1.369 . S
C285 C287 1.419 . S
C285 H289 0.930 . S
C286 C285 1.369 . S
C286 C295 1.429 . S
C287 C285 1.419 . S
C287 C288 1.363 . S
C287 H290 0.929 . S
C288 C287 1.363 . S
C288 C294 1.428 . S
H289 C285 0.930 . S
H290 C287 0.929 . S
S291 N292 1.613 . S
S291 N293 1.610 . S
N292 S291 1.613 . S
N292 C295 1.350 . S
N293 S291 1.610 . S
N293 C294 1.351 . S
C294 C288 1.428 . S
C294 N293 1.351 . S
C294 C295 1.434 . S
C295 C286 1.429 . S
C295 N292 1.350 . S
C295 C294 1.434 . S
C296 C297 1.369 . S
C296 C298 1.419 . S
C296 H300 0.930 . S
C297 C296 1.369 . S
C297 C306 1.429 . S
C298 C296 1.419 . S
C298 C299 1.363 . S
C298 H301 0.929 . S
C299 C298 1.363 . S
C299 C305 1.428 . S
H300 C296 0.930 . S
H301 C298 0.929 . S
S302 N303 1.614 1_655 S
S302 N304 1.610 . S
N303 S302 1.614 1_455 S
N303 C306 1.349 . S
N304 S302 1.610 . S
N304 C305 1.351 1_655 S
C305 C299 1.428 . S
C305 N304 1.351 1_455 S
C305 C306 1.434 . S
C306 C297 1.429 . S
C306 N303 1.349 . S
C306 C305 1.434 . S
C307 C308 1.369 1_556 S
C307 C309 1.419 . S
C307 H311 0.930 . S
C308 C307 1.369 1_554 S
C308 C317 1.429 . S
C309 C307 1.419 . S
C309 C310 1.363 1_556 S
C309 H312 0.929 . S
C310 C309 1.363 1_554 S
C310 C316 1.428 . S
H311 C307 0.930 . S
H312 C309 0.929 . S
S313 N314 1.613 . S
S313 N315 1.610 . S
N314 S313 1.613 . S
N314 C317 1.350 . S
N315 S313 1.610 . S
N315 C316 1.351 . S
C316 C310 1.428 . S
C316 N315 1.351 . S
C316 C317 1.434 . S
C317 C308 1.429 . S
C317 N314 1.350 . S
C317 C316 1.434 . S
C318 C319 1.369 . S
C318 C320 1.419 . S
C318 H322 0.930 1_655 S
C319 C318 1.369 . S
C319 C328 1.429 . S
C320 C318 1.419 . S
C320 C321 1.363 . S
C320 H323 0.929 1_655 S
C321 C320 1.363 . S
C321 C327 1.428 . S
H322 C318 0.930 1_455 S
H323 C320 0.929 1_455 S
S324 N325 1.613 . S
S324 N326 1.610 . S
N325 S324 1.613 . S
N325 C328 1.350 . S
N326 S324 1.610 . S
N326 C327 1.351 . S
C327 C321 1.428 . S
C327 N326 1.351 . S
C327 C328 1.434 . S
C328 C319 1.429 . S
C328 N325 1.350 . S
C328 C327 1.434 . S
C329 C330 1.369 . S
C329 C331 1.419 . S
C329 H333 0.930 . S
C330 C329 1.369 . S
C330 C339 1.429 . S
C331 C329 1.419 . S
C331 C332 1.363 . S
C331 H334 0.929 . S
C332 C331 1.363 . S
C332 C338 1.428 . S
H333 C329 0.930 . S
H334 C331 0.929 . S
S335 N336 1.613 . S
S335 N337 1.610 . S
N336 S335 1.613 . S
N336 C339 1.350 . S
N337 S335 1.610 . S
N337 C338 1.351 . S
C338 C332 1.428 . S
C338 N337 1.351 . S
C338 C339 1.434 . S
C339 C330 1.429 . S
C339 N336 1.350 . S
C339 C338 1.434 . S
C340 C341 1.369 . S
C340 C342 1.419 . S
C340 H344 0.930 1_565 S
C341 C340 1.369 . S
C341 C350 1.429 . S
C342 C340 1.419 . S
C342 C343 1.363 . S
C342 H345 0.929 1_565 S
C343 C342 1.363 . S
C343 C349 1.428 . S
H344 C340 0.930 1_545 S
H345 C342 0.929 1_545 S
S346 N347 1.613 . S
S346 N348 1.610 . S
N347 S346 1.613 . S
N347 C350 1.350 . S
N348 S346 1.610 . S
N348 C349 1.351 . S
C349 C343 1.428 . S
C349 N348 1.351 . S
C349 C350 1.434 . S
C350 C341 1.429 . S
C350 N347 1.350 . S
C350 C349 1.434 . S
C351 C352 1.369 . S
C351 C353 1.419 . S
C351 H355 0.930 . S
C352 C351 1.369 . S
C352 C361 1.429 . S
C353 C351 1.419 . S
C353 C354 1.363 . S
C353 H356 0.929 . S
C354 C353 1.363 . S
C354 C360 1.428 . S
H355 C351 0.930 . S
H356 C353 0.929 . S
S357 N358 1.613 . S
S357 N359 1.610 . S
N358 S357 1.613 . S
N358 C361 1.350 . S
N359 S357 1.610 . S
N359 C360 1.351 . S
C360 C354 1.428 . S
C360 N359 1.351 . S
C360 C361 1.434 . S
C361 C352 1.429 . S
C361 N358 1.350 . S
C361 C360 1.434 . S
C362 C363 1.369 . S
C362 C364 1.419 . S
C362 H366 0.930 . S
C363 C362 1.369 . S
C363 C372 1.429 . S
C364 C362 1.419 . S
C364 C365 1.363 . S
C364 H367 0.929 . S
C365 C364 1.363 . S
C365 C371 1.428 . S
H366 C362 0.930 . S
H367 C364 0.929 . S
S368 N369 1.613 . S
S368 N370 1.610 . S
N369 S368 1.613 . S
N369 C372 1.350 . S
N370 S368 1.610 . S
N370 C371 1.351 . S
C371 C365 1.428 . S
C371 N370 1.351 . S
C371 C372 1.434 . S
C372 C363 1.429 . S
C372 N369 1.350 . S
C372 C371 1.434 . S
C373 C374 1.369 . S
C373 C375 1.419 . S
C373 H377 0.930 . S
C374 C373 1.369 . S
C374 C383 1.429 . S
C375 C373 1.419 . S
C375 C376 1.363 . S
C375 H378 0.929 . S
C376 C375 1.363 . S
C376 C382 1.428 . S
H377 C373 0.930 . S
H378 C375 0.929 . S
S379 N380 1.613 . S
S379 N381 1.610 . S
N380 S379 1.613 . S
N380 C383 1.350 . S
N381 S379 1.610 . S
N381 C382 1.351 . S
C382 C376 1.428 . S
C382 N381 1.351 . S
C382 C383 1.434 . S
C383 C374 1.429 . S
C383 N380 1.350 . S
C383 C382 1.434 . S
C384 C385 1.369 1_554 S
C384 C386 1.419 . S
C384 H388 0.930 . S
C385 C384 1.369 1_556 S
C385 C394 1.429 . S
C386 C384 1.419 . S
C386 C387 1.363 . S
C386 H389 0.929 . S
C387 C386 1.363 . S
C387 C393 1.428 1_554 S
H388 C384 0.930 . S
H389 C386 0.929 . S
S390 N391 1.613 . S
S390 N392 1.610 . S
N391 S390 1.613 . S
N391 C394 1.350 . S
N392 S390 1.610 . S
N392 C393 1.351 . S
C393 C387 1.428 1_556 S
C393 N392 1.351 . S
C393 C394 1.434 . S
C394 C385 1.429 . S
C394 N391 1.350 . S
C394 C393 1.434 . S
C395 C396 1.369 . S
C395 C397 1.419 . S
C395 H399 0.930 . S
C396 C395 1.369 . S
C396 C405 1.429 . S
C397 C395 1.419 . S
C397 C398 1.363 . S
C397 H400 0.929 . S
C398 C397 1.363 . S
C398 C404 1.428 . S
H399 C395 0.930 . S
H400 C397 0.929 . S
S401 N402 1.613 . S
S401 N403 1.610 . S
N402 S401 1.613 . S
N402 C405 1.350 . S
N403 S401 1.610 . S
N403 C404 1.351 . S
C404 C398 1.428 . S
C404 N403 1.351 . S
C404 C405 1.434 . S
C405 C396 1.429 . S
C405 N402 1.350 . S
C405 C404 1.434 . S
C406 C407 1.369 . S
C406 C408 1.419 . S
C406 H410 0.930 . S
C407 C406 1.369 . S
C407 C416 1.429 . S
C408 C406 1.419 . S
C408 C409 1.363 . S
C408 H411 0.929 . S
C409 C408 1.363 . S
C409 C415 1.428 . S
H410 C406 0.930 . S
H411 C408 0.929 . S
S412 N413 1.613 . S
S412 N414 1.610 . S
N413 S412 1.613 . S
N413 C416 1.350 . S
N414 S412 1.610 . S
N414 C415 1.351 . S
C415 C409 1.428 . S
C415 N414 1.351 . S
C415 C416 1.434 . S
C416 C407 1.429 . S
C416 N413 1.350 . S
C416 C415 1.434 . S
C417 C418 1.369 . S
C417 C419 1.419 . S
C417 H421 0.930 . S
C418 C417 1.369 . S
C418 C427 1.429 . S
C419 C417 1.419 . S
C419 C420 1.363 . S
C419 H422 0.929 . S
C420 C419 1.363 . S
C420 C426 1.428 . S
H421 C417 0.930 . S
H422 C419 0.929 . S
S423 N424 1.613 . S
S423 N425 1.610 . S
N424 S423 1.613 . S
N424 C427 1.350 . S
N425 S423 1.610 . S
N425 C426 1.351 . S
C426 C420 1.428 . S
C426 N425 1.351 . S
C426 C427 1.434 . S
C427 C418 1.429 . S
C427 N424 1.350 . S
C427 C426 1.434 . S
C428 C429 1.369 . S
C428 C430 1.419 1_655 S
C428 H432 0.930 1_655 S
C429 C428 1.369 . S
C429 C438 1.429 . S
C430 C428 1.419 1_455 S
C430 C431 1.363 1_455 S
C430 H433 0.929 . S
C431 C430 1.363 1_655 S
C431 C437 1.428 1_556 S
H432 C428 0.930 1_455 S
H433 C430 0.929 . S
S434 N435 1.613 . S
S434 N436 1.610 . S
N435 S434 1.613 . S
N435 C438 1.350 1_554 S
N436 S434 1.610 . S
N436 C437 1.351 . S
C437 C431 1.428 1_554 S
C437 N436 1.351 . S
C437 C438 1.434 1_554 S
C438 C429 1.429 . S
C438 N435 1.350 1_556 S
C438 C437 1.434 1_556 S
C439 C440 1.369 . S
C439 C441 1.419 . S
C439 H443 0.930 . S
C440 C439 1.369 . S
C440 C449 1.429 . S
C441 C439 1.419 . S
C441 C442 1.363 . S
C441 H444 0.929 . S
C442 C441 1.363 . S
C442 C448 1.428 . S
H443 C439 0.930 . S
H444 C441 0.929 . S
S445 N446 1.613 . S
S445 N447 1.610 . S
N446 S445 1.613 . S
N446 C449 1.350 . S
N447 S445 1.610 . S
N447 C448 1.351 . S
C448 C442 1.428 . S
C448 N447 1.351 . S
C448 C449 1.434 . S
C449 C440 1.429 . S
C449 N446 1.350 . S
C449 C448 1.434 . S
C450 C451 1.369 . S
C450 C452 1.419 . S
C450 H454 0.930 . S
C451 C450 1.369 . S
C451 C460 1.429 1_455 S
C452 C450 1.419 . S
C452 C453 1.363 . S
C452 H455 0.929 . S
C453 C452 1.363 . S
C453 C459 1.428 1_455 S
H454 C450 0.930 . S
H455 C452 0.929 . S
S456 N457 1.613 . S
S456 N458 1.610 . S
N457 S456 1.613 . S
N457 C460 1.350 . S
N458 S456 1.610 . S
N458 C459 1.351 . S
C459 C453 1.428 1_655 S
C459 N458 1.351 . S
C459 C460 1.434 . S
C460 C451 1.429 1_655 S
C460 N457 1.350 . S
C460 C459 1.434 . S
C461 C462 1.369 . S
C461 C463 1.419 . S
C461 H465 0.930 . S
C462 C461 1.369 . S
C462 C471 1.429 . S
C463 C461 1.419 . S
C463 C464 1.363 . S
C463 H466 0.929 . S
C464 C463 1.363 . S
C464 C470 1.428 . S
H465 C461 0.930 . S
H466 C463 0.929 . S
S467 N468 1.613 . S
S467 N469 1.610 . S
N468 S467 1.613 . S
N468 C471 1.350 . S
N469 S467 1.610 . S
N469 C470 1.351 . S
C470 C464 1.428 . S
C470 N469 1.351 . S
C470 C471 1.434 . S
C471 C462 1.429 . S
C471 N468 1.350 . S
C471 C470 1.434 . S
C209 C5 2.348 . S
C211 C104 2.456 . S
C220 C18 1.117 . S
C222 N124 1.160 . S
C233 C158 1.812 . S
C231 C30 1.761 . S
C242 C41 1.297 . S
C244 N192 1.171 . S
C255 C145 2.574 . S
C253 C7 2.506 . S
C266 N102 1.290 . S
C264 C16 1.051 . S
C277 C179 2.118 1_556 S
C275 C29 1.990 . S
C288 N154 0.929 . S
C286 C38 0.912 . S
C297 C8 1.902 . S
C299 C194 1.904 . S
C310 C128 1.875 . S
C308 C27 1.564 1_554 S
C319 C40 1.414 . S
C321 C89 1.390 . S
C330 C19 1.066 . S
C332 C175 1.119 . S
C343 C115 2.241 . S
C341 C51 2.138 . S
C352 C62 1.164 . S
C354 N132 1.245 . S
C363 C74 1.843 . S
C365 C149 1.899 . S
C374 C84 1.116 . S
C376 N184 1.200 . S
C385 C49 2.427 . S
C387 C134 2.559 1_565 S
C398 N94 1.106 . S
C396 C63 1.089 . S
C409 C188 1.942 . S
C407 C71 1.610 . S
C420 N162 0.934 . S
C418 C85 0.889 . S
C429 C52 1.837 . S
C431 C205 1.832 1_556 S
C442 C119 1.940 . S
C440 C73 1.777 . S
C453 C98 1.327 . S
C451 C82 0.964 . S
C462 C60 1.261 . S
C464 C164 1.615 . S
