# Generated by pormake.
# Topology anh, (6,3)-cn, num edge types: 1
# Building blocks:
#     Node 0, Type 0, BuildingBlock: VOLQOD_clean_sbu_1, # of connection points: 6
#     Node 1, Type 0, BuildingBlock: VOLQOD_clean_sbu_1, # of connection points: 6
#     Node 2, Type 0, BuildingBlock: VOLQOD_clean_sbu_1, # of connection points: 6
#     Node 3, Type 1, BuildingBlock: OLANEW_clean_sbu_2, # of connection points: 3
#     Node 4, Type 1, BuildingBlock: OLANEW_clean_sbu_2, # of connection points: 3
#     Node 5, Type 1, BuildingBlock: OLANEW_clean_sbu_2, # of connection points: 3
#     Node 6, Type 1, BuildingBlock: OLANEW_clean_sbu_2, # of connection points: 3
#     Node 7, Type 1, BuildingBlock: OLANEW_clean_sbu_2, # of connection points: 3
#     Node 8, Type 1, BuildingBlock: OLANEW_clean_sbu_2, # of connection points: 3
#     Edge 9, Type (0, 1), BuildingBlock: CIFDUS_clean_linker_0, # of connection points: 2
#     Edge 10, Type (0, 1), BuildingBlock: CIFDUS_clean_linker_0, # of connection points: 2
#     Edge 11, Type (0, 1), BuildingBlock: CIFDUS_clean_linker_0, # of connection points: 2
#     Edge 12, Type (0, 1), BuildingBlock: CIFDUS_clean_linker_0, # of connection points: 2
#     Edge 13, Type (0, 1), BuildingBlock: CIFDUS_clean_linker_0, # of connection points: 2
#     Edge 14, Type (0, 1), BuildingBlock: CIFDUS_clean_linker_0, # of connection points: 2
#     Edge 15, Type (0, 1), BuildingBlock: CIFDUS_clean_linker_0, # of connection points: 2
#     Edge 16, Type (0, 1), BuildingBlock: CIFDUS_clean_linker_0, # of connection points: 2
#     Edge 17, Type (0, 1), BuildingBlock: CIFDUS_clean_linker_0, # of connection points: 2
#     Edge 18, Type (0, 1), BuildingBlock: CIFDUS_clean_linker_0, # of connection points: 2
#     Edge 19, Type (0, 1), BuildingBlock: CIFDUS_clean_linker_0, # of connection points: 2
#     Edge 20, Type (0, 1), BuildingBlock: CIFDUS_clean_linker_0, # of connection points: 2
#     Edge 21, Type (0, 1), BuildingBlock: CIFDUS_clean_linker_0, # of connection points: 2
#     Edge 22, Type (0, 1), BuildingBlock: CIFDUS_clean_linker_0, # of connection points: 2
#     Edge 23, Type (0, 1), BuildingBlock: CIFDUS_clean_linker_0, # of connection points: 2
#     Edge 24, Type (0, 1), BuildingBlock: CIFDUS_clean_linker_0, # of connection points: 2
#     Edge 25, Type (0, 1), BuildingBlock: CIFDUS_clean_linker_0, # of connection points: 2
#     Edge 26, Type (0, 1), BuildingBlock: CIFDUS_clean_linker_0, # of connection points: 2
# Relax obj value: 0.159
# Max RMSD: 0.206
# Mean RMSD: 0.140
data_MOF--net-anh--node1-VOLQOD_clean_sbu_1--node2-OLANEW_clean_sbu_2--edge1-CIFDUS_clean_linker_0
_symmetry_space_group_name_H-M    P1
_symmetry_Int_Tables_number       1
_symmetry_cell_setting            triclinic
loop_
_symmetry_equiv_pos_as_xyz
'x, y, z'
_cell_length_a     28.134013
_cell_length_b     28.067925
_cell_length_c     52.003515
_cell_angle_alpha  90.069716
_cell_angle_beta   89.760183
_cell_angle_gamma 120.3599
loop_
_atom_site_label
_atom_site_type_symbol
_atom_site_fract_x
_atom_site_fract_y
_atom_site_fract_z
_atom_type_partial_charge
O0 O 0.97807 0.53638 0.21868 0.0
Zn1 Zn 0.97992 0.55112 0.18055 0.0
O2 O 0.99376 0.49852 0.16141 0.0
Zn3 Zn 0.93434 0.45603 0.13797 0.0
Zn4 Zn 4e-05 0.44681 0.18483 0.0
Zn5 Zn 0.06 0.53884 0.14081 0.0
O6 O 0.95864 0.46063 0.10141 0.0
O7 O 0.04732 0.52404 0.10259 0.0
O8 O 0.9063 0.54368 0.17078 0.0
O9 O 0.87916 0.47961 0.14032 0.0
O10 O 0.89127 0.37757 0.14847 0.0
O11 O 0.93351 0.36887 0.18243 0.0
O12 O 0.07192 0.44739 0.1793 0.0
O13 O 0.04308 0.62987 0.17559 0.0
O14 O 0.11431 0.51764 0.1519 0.0
O15 O 0.0968 0.61968 0.14748 0.0
C16 C 0.98942 0.50522 0.2319 0.0
C17 C 0.00456 0.49025 0.09007 0.0
C18 C 0.89352 0.34857 0.16661 0.0
C19 C 0.87114 0.51222 0.15418 0.0
C20 C 0.11435 0.48123 0.1664 0.0
C21 C 0.08687 0.65018 0.16197 0.0
O22 O 0.00062 0.47115 0.22123 0.0
O23 O 0.48395 0.01782 0.44039 0.0
Zn24 Zn 0.45734 0.01838 0.47637 0.0
O25 O 0.50155 0.00473 0.5009 0.0
Zn26 Zn 0.54834 0.0703 0.52004 0.0
Zn27 Zn 0.54803 0.98139 0.48298 0.0
Zn28 Zn 0.45208 0.94998 0.5255 0.0
O29 O 0.54055 0.05821 0.558 0.0
O30 O 0.46362 0.97741 0.56209 0.0
O31 O 0.46199 0.09263 0.48291 0.0
O32 O 0.52991 0.12747 0.51151 0.0
O33 O 0.62684 0.10236 0.51048 0.0
O34 O 0.62955 0.04063 0.4849 0.0
O35 O 0.53423 0.90761 0.49703 0.0
O36 O 0.37878 0.95422 0.47725 0.0
O37 O 0.46761 0.88858 0.52539 0.0
O38 O 0.3728 0.91457 0.51501 0.0
C39 C 0.5093 0.99497 0.43081 0.0
C40 C 0.50354 0.02051 0.57201 0.0
C41 C 0.65373 0.08711 0.49642 0.0
C42 C 0.49595 0.13212 0.49724 0.0
C43 C 0.49955 0.8758 0.51388 0.0
C44 C 0.35094 0.91766 0.49418 0.0
O45 O 0.53118 0.97437 0.44506 0.0
O46 O 0.49789 0.52291 0.77348 0.0
Zn47 Zn 0.47496 0.50418 0.81085 0.0
O48 O 0.53473 0.55757 0.83343 0.0
Zn49 Zn 0.5079 0.59321 0.85626 0.0
Zn50 Zn 0.59683 0.61499 0.81325 0.0
Zn51 Zn 0.55956 0.51851 0.85506 0.0
O52 O 0.51552 0.5818 0.89384 0.0
O53 O 0.5495 0.52583 0.8928 0.0
O54 O 0.40349 0.50468 0.81724 0.0
O55 O 0.42925 0.56602 0.84895 0.0
O56 O 0.5439 0.67317 0.84905 0.0
O57 O 0.60302 0.69044 0.81721 0.0
O58 O 0.66905 0.6179 0.82179 0.0
O59 O 0.46132 0.42639 0.81607 0.0
O60 O 0.63855 0.54567 0.84813 0.0
O61 O 0.52033 0.4385 0.84704 0.0
C62 C 0.54249 0.559 0.76265 0.0
C63 C 0.53201 0.55285 0.90534 0.0
C64 C 0.5786 0.70631 0.83277 0.0
C65 C 0.39312 0.53263 0.83332 0.0
C66 C 0.67706 0.58488 0.8354 0.0
C67 C 0.48309 0.4073 0.83129 0.0
O68 O 0.5829 0.59514 0.77575 0.0
O69 O 0.4896 0.0296 0.26269 0.0
Cd70 Cd 0.49057 0.02079 0.21596 0.0
O71 O 0.50602 0.96155 0.26805 0.0
Cd72 Cd 0.48455 0.93536 0.22828 0.0
O73 O 0.42059 0.89423 0.19935 0.0
C74 C 0.37596 0.89448 0.20293 0.0
O75 O 0.37234 0.92173 0.22269 0.0
C76 C 0.50039 0.00025 0.27749 0.0
C77 C 0.59075 0.10197 0.19555 0.0
O78 O 0.58619 0.05801 0.20538 0.0
O79 O 0.54805 0.10719 0.19525 0.0
O80 O 0.58293 0.52354 0.60213 0.0
Cd81 Cd 0.58875 0.53211 0.55523 0.0
O82 O 0.4972 0.49813 0.59493 0.0
Cd83 Cd 0.41917 0.49344 0.60296 0.0
O84 O 0.40486 0.55734 0.58811 0.0
C85 C 0.4396 0.5872 0.57098 0.0
O86 O 0.47717 0.57531 0.56365 0.0
C87 C 0.53554 0.50979 0.61092 0.0
C88 C 0.57483 0.43717 0.5316 0.0
O89 O 0.62267 0.47684 0.53782 0.0
O90 O 0.53304 0.44249 0.53646 0.0
O91 O -0.00023 0.47107 0.92622 0.0
Cd92 Cd -0.0014 0.474 0.87913 0.0
O93 O 0.91967 0.39422 0.92792 0.0
Cd94 Cd 0.90432 0.4012 0.88751 0.0
O95 O 0.87172 0.43441 0.85929 0.0
C96 C 0.88428 0.48458 0.86152 0.0
O97 O 0.91963 0.51513 0.87934 0.0
C98 C 0.96203 0.4318 0.9393 0.0
C99 C 0.09006 0.47391 0.85867 0.0
O100 O 0.09101 0.519 0.86396 0.0
O101 O 0.04517 0.42828 0.86271 0.0
O102 O 0.05148 0.48711 0.39681 0.0
Cd103 Cd 0.06693 0.50335 0.44297 0.0
O104 O 0.984 0.50493 0.39627 0.0
Cd105 Cd 0.96979 0.48393 0.437 0.0
O106 O 0.92464 0.41581 0.46393 0.0
C107 C 0.91513 0.36837 0.45685 0.0
O108 O 0.93569 0.36391 0.43485 0.0
C109 C 0.01834 0.49635 0.38423 0.0
C110 C 0.13551 0.61675 0.45017 0.0
O111 O 0.1545 0.58608 0.4427 0.0
O112 O 0.08386 0.59394 0.45499 0.0
O113 O 0.4509 0.98516 0.74016 0.0
Cd114 Cd 0.46095 -0.00018 0.7866 0.0
O115 O 0.5358 0.05354 0.73449 0.0
Cd116 Cd 0.54004 0.08438 0.77316 0.0
O117 O 0.51123 0.13358 0.79268 0.0
C118 C 0.4751 0.13895 0.7805 0.0
O119 O 0.45682 0.11286 0.75853 0.0
C120 C 0.49164 0.01381 0.72532 0.0
C121 C 0.49653 0.93287 0.80843 0.0
O122 O 0.44587 0.91993 0.80953 0.0
O123 O 0.53092 0.97798 0.79719 0.0
O124 O 0.47494 0.42773 0.06408 0.0
Cd125 Cd 0.46121 0.41089 0.11021 0.0
O126 O 0.50075 0.51541 0.06861 0.0
Cd127 Cd 0.47326 0.50349 0.10854 0.0
O128 O 0.40946 0.49018 0.13621 0.0
C129 C 0.36785 0.44267 0.14045 0.0
O130 O 0.3657 0.39922 0.12974 0.0
C131 C 0.49353 0.47548 0.05436 0.0
C132 C 0.55887 0.42457 0.12981 0.0
O133 O 0.51981 0.37716 0.1226 0.0
O134 O 0.55094 0.46564 0.12866 0.0
H135 H 0.12866 0.39207 0.16698 0.0
H136 H 0.21593 0.56998 0.17022 0.0
H137 H 0.30383 0.57297 0.16707 0.0
H138 H 0.35467 0.52641 0.15739 0.0
H139 H 0.26855 0.34898 0.14998 0.0
H140 H 0.18176 0.3442 0.1613 0.0
C141 C 0.16709 0.43122 0.16751 0.0
C142 C 0.16616 0.48073 0.16856 0.0
C143 C 0.21762 0.43276 0.16472 0.0
C144 C 0.21593 0.53141 0.16911 0.0
C145 C 0.26613 0.53317 0.16731 0.0
C146 C 0.31716 0.48652 0.15868 0.0
C147 C 0.31798 0.43826 0.15242 0.0
C148 C 0.26734 0.48427 0.16417 0.0
C149 C 0.26899 0.3869 0.15445 0.0
C150 C 0.21926 0.38414 0.1608 0.0
H151 H 0.7178 0.18485 0.5204 0.0
H152 H 0.72008 0.08346 0.45845 0.0
H153 H 0.80651 0.16114 0.44251 0.0
H154 H 0.87313 0.26106 0.44253 0.0
H155 H 0.86649 0.36285 0.50317 0.0
H156 H 0.79001 0.28161 0.52325 0.0
C157 C 0.73759 0.17926 0.50365 0.0
C158 C 0.71188 0.12855 0.4904 0.0
C159 C 0.78608 0.22449 0.49412 0.0
C160 C 0.73871 0.12201 0.46898 0.0
C161 C 0.78794 0.16661 0.45972 0.0
C162 C 0.85558 0.26541 0.46037 0.0
C163 C 0.87499 0.31819 0.4711 0.0
C164 C 0.81072 0.2186 0.47154 0.0
C165 C 0.85199 0.3229 0.49433 0.0
C166 C 0.80819 0.27643 0.50583 0.0
H167 H 0.5205 0.74375 0.8586 0.0
H168 H 0.64286 0.79003 0.79867 0.0
H169 H 0.63281 0.86944 0.7878 0.0
H170 H 0.58028 0.91827 0.79187 0.0
H171 H 0.45106 0.86332 0.84881 0.0
H172 H 0.47261 0.79439 0.86425 0.0
C173 C 0.54582 0.77152 0.84338 0.0
C174 C 0.58209 0.76048 0.82932 0.0
C175 C 0.53786 0.81512 0.83646 0.0
C176 C 0.61453 0.79736 0.80978 0.0
C177 C 0.60847 0.84254 0.80344 0.0
C178 C 0.55754 0.89169 0.80791 0.0
C179 C 0.51399 0.89555 0.81916 0.0
C180 C 0.56888 0.85069 0.81609 0.0
C181 C 0.48442 0.8607 0.83975 0.0
C182 C 0.49678 0.8214 0.8486 0.0
H183 H 0.77639 0.41871 0.14614 0.0
H184 H 0.84273 0.59238 0.16018 0.0
H185 H 0.75015 0.58008 0.15541 0.0
H186 H 0.65135 0.51988 0.14459 0.0
H187 H 0.58763 0.34578 0.13176 0.0
H188 H 0.67856 0.35834 0.13902 0.0
C189 C 0.7707 0.45403 0.14809 0.0
C190 C 0.81622 0.5066 0.15291 0.0
C191 C 0.71793 0.44644 0.14562 0.0
C192 C 0.80816 0.55165 0.15621 0.0
C193 C 0.75537 0.54455 0.15346 0.0
C194 C 0.65731 0.48464 0.14366 0.0
C195 C 0.6128 0.43204 0.13736 0.0
C196 C 0.71004 0.49215 0.1478 0.0
C197 C 0.6211 0.38673 0.13641 0.0
C198 C 0.67315 0.39385 0.14048 0.0
H199 H 0.32664 0.86393 0.44929 0.0
H200 H 0.25847 0.86108 0.52397 0.0
H201 H 0.18015 0.76855 0.51533 0.0
H202 H 0.13824 0.68376 0.4887 0.0
H203 H 0.21619 0.68352 0.41721 0.0
H204 H 0.28347 0.78165 0.42224 0.0
C205 C 0.29365 0.84374 0.46331 0.0
C206 C 0.29759 0.86944 0.48702 0.0
C207 C 0.25116 0.78938 0.45891 0.0
C208 C 0.25568 0.84221 0.50543 0.0
C209 C 0.21132 0.78916 0.50058 0.0
C210 C 0.16955 0.70565 0.47413 0.0
C211 C 0.17258 0.67682 0.45265 0.0
C212 C 0.20969 0.76154 0.47776 0.0
C213 C 0.21355 0.70505 0.43397 0.0
C214 C 0.25185 0.76109 0.43681 0.0
H215 H 0.42992 0.33523 0.79204 0.0
H216 H 0.51014 0.35022 0.8647 0.0
H217 H 0.50923 0.26439 0.85653 0.0
H218 H 0.49742 0.19234 0.82632 0.0
H219 H 0.41869 0.1776 0.75332 0.0
H220 H 0.40671 0.25547 0.76424 0.0
C221 C 0.44603 0.31907 0.80635 0.0
C222 C 0.47096 0.34971 0.8287 0.0
C223 C 0.44638 0.27005 0.80135 0.0
C224 C 0.49142 0.32796 0.84712 0.0
C225 C 0.4911 0.27889 0.84246 0.0
C226 C 0.47695 0.20567 0.81294 0.0
C227 C 0.45997 0.17991 0.78887 0.0
C228 C 0.47067 0.2508 0.81921 0.0
C229 C 0.43268 0.19706 0.77192 0.0
C230 C 0.42591 0.24173 0.7781 0.0
H231 H 0.42112 0.79509 0.54351 0.0
H232 H 0.56706 0.83595 0.49916 0.0
H233 H 0.55962 0.7485 0.51205 0.0
H234 H 0.51353 0.66251 0.53731 0.0
H235 H 0.36833 0.62361 0.58187 0.0
H236 H 0.37367 0.70873 0.56727 0.0
C237 C 0.45149 0.78514 0.53659 0.0
C238 C 0.49495 0.82237 0.52056 0.0
C239 C 0.44706 0.73523 0.5441 0.0
C240 C 0.53335 0.80819 0.51159 0.0
C241 C 0.52912 0.75824 0.51897 0.0
C242 C 0.48282 0.67245 0.54372 0.0
C243 C 0.44072 0.63686 0.56078 0.0
C244 C 0.48641 0.72173 0.53542 0.0
C245 C 0.40124 0.65032 0.56883 0.0
C246 C 0.4043 0.69902 0.56052 0.0
H247 H 0.69615 0.51095 0.81308 0.0
H248 H 0.77388 0.66036 0.85778 0.0
H249 H 0.85161 0.64636 0.86688 0.0
H250 H 0.88828 0.58301 0.86788 0.0
H251 H 0.80667 0.43109 0.82451 0.0
H252 H 0.74007 0.4551 0.80865 0.0
C253 C 0.73117 0.54132 0.82408 0.0
C254 C 0.72999 0.58665 0.8347 0.0
C255 C 0.77438 0.53198 0.82976 0.0
C256 C 0.77471 0.6256 0.8492 0.0
C257 C 0.81866 0.61718 0.8546 0.0
C258 C 0.85665 0.55569 0.85453 0.0
C259 C 0.85177 0.50473 0.84784 0.0
C260 C 0.81767 0.56922 0.84588 0.0
C261 C 0.8109 0.47014 0.83029 0.0
C262 C 0.77269 0.48377 0.82123 0.0
H263 H 0.18816 0.70236 0.13964 0.0
H264 H 0.08796 0.72698 0.19516 0.0
H265 H 0.16926 0.81089 0.21033 0.0
H266 H 0.27018 0.86782 0.21256 0.0
H267 H 0.37026 0.83809 0.15914 0.0
H268 H 0.28744 0.76569 0.13838 0.0
C269 C 0.18366 0.72656 0.15471 0.0
C270 C 0.13202 0.70764 0.16655 0.0
C271 C 0.23082 0.7734 0.16404 0.0
C272 C 0.12717 0.74015 0.18582 0.0
C273 C 0.17378 0.78798 0.19466 0.0
C274 C 0.27394 0.84621 0.19608 0.0
C275 C 0.32637 0.85771 0.1877 0.0
C276 C 0.2261 0.80353 0.18468 0.0
C277 C 0.33043 0.82956 0.16621 0.0
C278 C 0.28307 0.78811 0.15433 0.0
H279 H 0.58825 0.22996 0.49796 0.0
H280 H 0.41159 0.15497 0.49689 0.0
H281 H 0.4205 0.2454 0.50545 0.0
H282 H 0.47918 0.34352 0.51822 0.0
H283 H 0.65602 0.41549 0.51964 0.0
H284 H 0.64636 0.32826 0.50585 0.0
C285 C 0.55168 0.23359 0.49924 0.0
C286 C 0.49937 0.18618 0.49718 0.0
C287 C 0.55723 0.28494 0.50451 0.0
C288 C 0.45226 0.19117 0.49842 0.0
C289 C 0.45743 0.24268 0.50353 0.0
C290 C 0.51558 0.34023 0.51522 0.0
C291 C 0.56823 0.38577 0.52037 0.0
C292 C 0.50975 0.28954 0.50741 0.0
C293 C 0.61501 0.38103 0.51613 0.0
C294 C 0.60958 0.33114 0.50822 0.0
H295 H 0.29034 0.44112 0.82975 0.0
H296 H 0.37637 0.6183 0.83795 0.0
H297 H 0.2894 0.61602 0.8441 0.0
H298 H 0.19046 0.56378 0.85105 0.0
H299 H 0.10273 0.38602 0.84577 0.0
H300 H 0.18845 0.38832 0.83447 0.0
C301 C 0.28963 0.47908 0.83245 0.0
C302 C 0.33941 0.52974 0.83352 0.0
C303 C 0.23932 0.47736 0.83679 0.0
C304 C 0.33839 0.57879 0.83727 0.0
C305 C 0.28876 0.57756 0.84081 0.0
C306 C 0.18983 0.52548 0.8472 0.0
C307 C 0.14037 0.47485 0.84945 0.0
C308 C 0.23918 0.52704 0.84126 0.0
C309 C 0.14038 0.42563 0.84429 0.0
C310 C 0.18939 0.42689 0.83786 0.0
H311 H 0.79255 0.31029 0.14639 0.0
H312 H 0.88211 0.2652 0.1987 0.0
H313 H 0.79596 0.18146 0.21073 0.0
H314 H 0.69405 0.12551 0.20884 0.0
H315 H 0.6062 0.17777 0.15928 0.0
H316 H 0.69314 0.25462 0.14372 0.0
C317 C 0.79372 0.28183 0.16012 0.0
C318 C 0.84391 0.29398 0.17155 0.0
C319 C 0.74414 0.2354 0.16764 0.0
C320 C 0.84412 0.25679 0.18956 0.0
C321 C 0.79484 0.20909 0.19652 0.0
C322 C 0.69414 0.15344 0.19442 0.0
C323 C 0.64385 0.1461 0.18521 0.0
C324 C 0.74442 0.19863 0.18609 0.0
C325 C 0.64436 0.1828 0.16676 0.0
C326 C 0.69403 0.22665 0.15781 0.0
H327 H 0.92881 0.40965 0.0594 0.0
H328 H 0.08752 0.55936 0.05725 0.0
H329 H 0.0899 0.55281 0.01041 0.0
H330 H 0.04464 0.50687 0.96995 0.0
H331 H 0.88601 0.35691 0.97269 0.0
H332 H 0.88627 0.36118 0.01947 0.0
C333 C 0.96404 0.44089 0.04874 0.0
C334 C 0.00765 0.48524 0.06183 0.0
C335 C 0.9652 0.43682 0.0219 0.0
C336 C 0.05328 0.52487 0.04767 0.0
C337 C 0.05464 0.52119 0.02088 0.0
C338 C 0.01034 0.47485 0.98077 0.0
C339 C 0.96521 0.43185 0.96774 0.0
C340 C 0.01053 0.47766 0.00776 0.0
C341 C 0.92123 0.3906 0.98213 0.0
C342 C 0.92122 0.39305 0.00893 0.0
H343 H 0.48582 0.05006 0.39467 0.0
H344 H 0.54182 0.93329 0.40331 0.0
H345 H 0.54592 0.92631 0.35669 0.0
H346 H 0.53099 0.95107 0.31355 0.0
H347 H 0.47611 0.06867 0.30478 0.0
H348 H 0.47465 0.07784 0.35142 0.0
C349 C 0.49893 0.02306 0.38638 0.0
C350 C 0.5131 0.99196 0.40251 0.0
C351 C 0.50151 0.01943 0.35954 0.0
C352 C 0.53059 0.95767 0.39139 0.0
C353 C 0.53292 0.95359 0.36471 0.0
C354 C 0.51895 0.97894 0.3218 0.0
C355 C 0.5034 0.00889 0.30566 0.0
C356 C 0.51812 0.98398 0.34862 0.0
C357 C 0.48828 0.04508 0.31672 0.0
C358 C 0.48725 0.05024 0.34341 0.0
H359 H 0.46438 0.49382 0.72746 0.0
H360 H 0.63538 0.62119 0.73406 0.0
H361 H 0.64806 0.61673 0.68798 0.0
H362 H 0.61148 0.57592 0.6458 0.0
H363 H 0.44074 0.44941 0.63867 0.0
H364 H 0.4271 0.45446 0.68487 0.0
C365 C 0.50438 0.52076 0.71883 0.0
C366 C 0.54882 0.55768 0.73434 0.0
C367 C 0.51151 0.51818 0.69218 0.0
C368 C 0.60031 0.59238 0.72271 0.0
C369 C 0.60774 0.58981 0.6963 0.0
C370 C 0.57129 0.54942 0.65438 0.0
C371 C 0.52707 0.51271 0.63883 0.0
C372 C 0.56377 0.55268 0.68089 0.0
C373 C 0.47518 0.47881 0.65016 0.0
C374 C 0.46746 0.48141 0.6766 0.0
H375 H 0.43295 0.95002 0.60854 0.0
H376 H 0.58609 0.10434 0.59916 0.0
H377 H 0.59682 0.11389 0.64556 0.0
H378 H 0.56285 0.07969 0.68865 0.0
H379 H 0.40883 0.92706 0.69891 0.0
H380 H 0.39873 0.91543 0.65223 0.0
C381 C 0.46862 0.98579 0.61663 0.0
C382 C 0.50854 0.0264 0.6003 0.0
C383 C 0.47462 0.99124 0.64346 0.0
C384 C 0.55454 0.07246 0.61118 0.0
C385 C 0.56088 0.07796 0.63776 0.0
C386 C 0.52721 0.04357 0.68075 0.0
C387 C 0.48675 0.00423 0.69725 0.0
C388 C 0.52123 0.03767 0.65404 0.0
C389 C 0.44064 0.95796 0.68662 0.0
C390 C 0.43476 0.95135 0.65994 0.0
H391 H 0.53251 0.47363 0.93499 0.0
H392 H 0.523 0.6222 0.93931 0.0
H393 H 0.5132 0.61284 0.98602 0.0
H394 H 0.50394 0.56064 0.0254 0.0
H395 H 0.50823 0.40931 0.02071 0.0
H396 H 0.52367 0.42171 0.97433 0.0
C397 C 0.52877 0.50425 0.94616 0.0
C398 C 0.5286 0.54861 0.9337 0.0
C399 C 0.52201 0.498 0.97292 0.0
C400 C 0.52309 0.58757 0.94843 0.0
C401 C 0.51751 0.58227 0.97514 0.0
C402 C 0.50867 0.53059 0.01426 0.0
C403 C 0.50501 0.48417 0.02648 0.0
C404 C 0.51642 0.53739 0.98755 0.0
C405 C 0.51068 0.44531 0.01174 0.0
C406 C 0.51955 0.45238 0.98524 0.0
H407 H 0.03801 0.46866 0.26508 0.0
H408 H 0.94304 0.55046 0.26247 0.0
H409 H 0.94348 0.55496 0.30944 0.0
H410 H 0.9701 0.53463 0.35128 0.0
H411 H 0.06799 0.45584 0.35333 0.0
H412 H 0.06715 0.45132 0.30651 0.0
C413 C 0.01724 0.48736 0.27476 0.0
C414 C 0.9902 0.50882 0.26029 0.0
C415 C 0.01823 0.49041 0.30167 0.0
C416 C 0.96417 0.5336 0.27315 0.0
C417 C 0.96432 0.53612 0.30001 0.0
C418 C 0.99124 0.51649 0.34147 0.0
C419 C 0.01886 0.49541 0.3558 0.0
C420 C 0.9911 0.5145 0.31447 0.0
C421 C 0.0465 0.47249 0.34279 0.0
C422 C 0.04595 0.46974 0.316 0.0
loop_
_geom_bond_atom_site_label_1
_geom_bond_atom_site_label_2
_geom_bond_distance
_geom_bond_site_symmetry_2
_ccdc_geom_bond_type
O0 Zn1 1.953 . S
O0 C16 1.225 1_655 S
Zn1 O0 1.953 . S
Zn1 O2 1.949 1_655 S
Zn1 O8 1.919 . S
Zn1 O13 1.924 1_655 S
O2 Zn1 1.949 1_455 S
O2 Zn3 1.923 1_455 S
O2 Zn4 1.950 . S
O2 Zn5 1.945 . S
Zn3 O2 1.923 1_655 S
Zn3 O6 1.933 . S
Zn3 O9 1.941 . S
Zn3 O10 1.965 . S
Zn4 O2 1.950 . S
Zn4 O11 1.938 1_455 S
Zn4 O12 1.906 . S
Zn4 O22 1.953 . S
Zn5 O2 1.945 . S
Zn5 O7 1.932 . S
Zn5 O14 1.977 . S
Zn5 O15 1.910 . S
O6 Zn3 1.933 . S
O6 C17 1.226 1_655 S
O7 Zn5 1.932 . S
O7 C17 1.307 . S
O8 Zn1 1.919 . S
O8 C19 1.253 . S
O9 Zn3 1.941 . S
O9 C19 1.283 . S
O10 Zn3 1.965 . S
O10 C18 1.303 . S
O11 Zn4 1.938 1_655 S
O11 C18 1.247 . S
O12 Zn4 1.906 . S
O12 C20 1.304 . S
O13 Zn1 1.924 1_455 S
O13 C21 1.311 . S
O14 Zn5 1.977 . S
O14 C20 1.272 . S
O15 Zn5 1.910 . S
O15 C21 1.231 . S
C16 O0 1.225 1_455 S
C16 O22 1.298 . S
C17 O6 1.226 1_455 S
C17 O7 1.307 . S
C18 O10 1.303 . S
C18 O11 1.247 . S
C19 O8 1.253 . S
C19 O9 1.283 . S
C20 O12 1.304 . S
C20 O14 1.272 . S
C21 O13 1.311 . S
C21 O15 1.231 . S
O22 Zn4 1.953 . S
O22 C16 1.298 . S
O23 Zn24 1.953 . S
O23 C39 1.225 . S
Zn24 O23 1.953 . S
Zn24 O25 1.949 . S
Zn24 O31 1.919 . S
Zn24 O36 1.924 1_545 S
O25 Zn24 1.949 . S
O25 Zn26 1.923 . S
O25 Zn27 1.950 1_545 S
O25 Zn28 1.945 1_545 S
Zn26 O25 1.923 . S
Zn26 O29 1.933 . S
Zn26 O32 1.941 . S
Zn26 O33 1.965 . S
Zn27 O25 1.950 1_565 S
Zn27 O34 1.938 1_565 S
Zn27 O35 1.906 . S
Zn27 O45 1.953 . S
Zn28 O25 1.945 1_565 S
Zn28 O30 1.932 . S
Zn28 O37 1.977 . S
Zn28 O38 1.910 . S
O29 Zn26 1.933 . S
O29 C40 1.226 . S
O30 Zn28 1.932 . S
O30 C40 1.307 1_565 S
O31 Zn24 1.919 . S
O31 C42 1.253 . S
O32 Zn26 1.941 . S
O32 C42 1.283 . S
O33 Zn26 1.965 . S
O33 C41 1.303 . S
O34 Zn27 1.938 1_545 S
O34 C41 1.247 . S
O35 Zn27 1.906 . S
O35 C43 1.304 . S
O36 Zn24 1.924 1_565 S
O36 C44 1.311 . S
O37 Zn28 1.977 . S
O37 C43 1.272 . S
O38 Zn28 1.910 . S
O38 C44 1.231 . S
C39 O23 1.225 . S
C39 O45 1.298 1_545 S
C40 O29 1.226 . S
C40 O30 1.307 1_545 S
C41 O33 1.303 . S
C41 O34 1.247 . S
C42 O31 1.253 . S
C42 O32 1.283 . S
C43 O35 1.304 . S
C43 O37 1.272 . S
C44 O36 1.311 . S
C44 O38 1.231 . S
O45 Zn27 1.953 . S
O45 C39 1.298 1_565 S
O46 Zn47 1.953 . S
O46 C62 1.225 . S
Zn47 O46 1.953 . S
Zn47 O48 1.949 . S
Zn47 O54 1.919 . S
Zn47 O59 1.924 . S
O48 Zn47 1.949 . S
O48 Zn49 1.923 . S
O48 Zn50 1.950 . S
O48 Zn51 1.945 . S
Zn49 O48 1.923 . S
Zn49 O52 1.933 . S
Zn49 O55 1.941 . S
Zn49 O56 1.965 . S
Zn50 O48 1.950 . S
Zn50 O57 1.938 . S
Zn50 O58 1.906 . S
Zn50 O68 1.953 . S
Zn51 O48 1.945 . S
Zn51 O53 1.932 . S
Zn51 O60 1.977 . S
Zn51 O61 1.910 . S
O52 Zn49 1.933 . S
O52 C63 1.226 . S
O53 Zn51 1.932 . S
O53 C63 1.307 . S
O54 Zn47 1.919 . S
O54 C65 1.253 . S
O55 Zn49 1.941 . S
O55 C65 1.283 . S
O56 Zn49 1.965 . S
O56 C64 1.303 . S
O57 Zn50 1.938 . S
O57 C64 1.247 . S
O58 Zn50 1.906 . S
O58 C66 1.304 . S
O59 Zn47 1.924 . S
O59 C67 1.311 . S
O60 Zn51 1.977 . S
O60 C66 1.272 . S
O61 Zn51 1.910 . S
O61 C67 1.231 . S
C62 O46 1.225 . S
C62 O68 1.298 . S
C63 O52 1.226 . S
C63 O53 1.307 . S
C64 O56 1.303 . S
C64 O57 1.247 . S
C65 O54 1.253 . S
C65 O55 1.283 . S
C66 O58 1.304 . S
C66 O60 1.272 . S
C67 O59 1.311 . S
C67 O61 1.231 . S
O68 Zn50 1.953 . S
O68 C62 1.298 . S
O69 Cd70 2.300 . S
O69 C76 1.275 . S
Cd70 O69 2.300 . S
Cd70 O78 2.381 . S
Cd70 O79 2.378 . S
O71 Cd72 2.385 . S
O71 C76 1.255 1_565 S
Cd72 O71 2.385 . S
Cd72 O73 2.317 . S
O73 Cd72 2.317 . S
O73 C74 1.232 . S
C74 O73 1.232 . S
C74 O75 1.218 . S
O75 C74 1.218 . S
C76 O69 1.275 . S
C76 O71 1.255 1_545 S
C77 O78 1.258 . S
C77 O79 1.256 . S
O78 Cd70 2.381 . S
O78 C77 1.258 . S
O79 Cd70 2.378 . S
O79 C77 1.256 . S
O80 Cd81 2.300 . S
O80 C87 1.275 . S
Cd81 O80 2.300 . S
Cd81 O89 2.381 . S
Cd81 O90 2.378 . S
O82 Cd83 2.385 . S
O82 C87 1.255 . S
Cd83 O82 2.385 . S
Cd83 O84 2.317 . S
O84 Cd83 2.317 . S
O84 C85 1.232 . S
C85 O84 1.232 . S
C85 O86 1.218 . S
O86 C85 1.218 . S
C87 O80 1.275 . S
C87 O82 1.255 . S
C88 O89 1.258 . S
C88 O90 1.256 . S
O89 Cd81 2.381 . S
O89 C88 1.258 . S
O90 Cd81 2.378 . S
O90 C88 1.256 . S
O91 Cd92 2.300 . S
O91 C98 1.275 . S
Cd92 O91 2.300 . S
Cd92 O100 2.381 . S
Cd92 O101 2.378 . S
O93 Cd94 2.385 . S
O93 C98 1.255 1_655 S
Cd94 O93 2.385 . S
Cd94 O95 2.317 . S
O95 Cd94 2.317 . S
O95 C96 1.232 . S
C96 O95 1.232 . S
C96 O97 1.218 . S
O97 C96 1.218 . S
C98 O91 1.275 . S
C98 O93 1.255 1_455 S
C99 O100 1.258 . S
C99 O101 1.256 . S
O100 Cd92 2.381 . S
O100 C99 1.258 . S
O101 Cd92 2.378 . S
O101 C99 1.256 . S
O102 Cd103 2.300 . S
O102 C109 1.275 1_455 S
Cd103 O102 2.300 . S
Cd103 O111 2.381 . S
Cd103 O112 2.378 . S
O104 Cd105 2.385 . S
O104 C109 1.255 . S
Cd105 O104 2.385 . S
Cd105 O106 2.317 . S
O106 Cd105 2.317 . S
O106 C107 1.232 . S
C107 O106 1.232 . S
C107 O108 1.218 . S
O108 C107 1.218 . S
C109 O102 1.275 1_655 S
C109 O104 1.255 . S
C110 O111 1.258 . S
C110 O112 1.256 . S
O111 Cd103 2.381 . S
O111 C110 1.258 . S
O112 Cd103 2.378 . S
O112 C110 1.256 . S
O113 Cd114 2.300 . S
O113 C120 1.275 1_565 S
Cd114 O113 2.300 . S
Cd114 O122 2.381 . S
Cd114 O123 2.378 . S
O115 Cd116 2.385 . S
O115 C120 1.255 . S
Cd116 O115 2.385 . S
Cd116 O117 2.317 . S
O117 Cd116 2.317 . S
O117 C118 1.232 . S
C118 O117 1.232 . S
C118 O119 1.218 . S
O119 C118 1.218 . S
C120 O113 1.275 1_545 S
C120 O115 1.255 . S
C121 O122 1.258 . S
C121 O123 1.256 . S
O122 Cd114 2.381 . S
O122 C121 1.258 . S
O123 Cd114 2.378 . S
O123 C121 1.256 . S
O124 Cd125 2.300 . S
O124 C131 1.275 . S
Cd125 O124 2.300 . S
Cd125 O133 2.381 . S
Cd125 O134 2.378 . S
O126 Cd127 2.385 . S
O126 C131 1.255 . S
Cd127 O126 2.385 . S
Cd127 O128 2.317 . S
O128 Cd127 2.317 . S
O128 C129 1.232 . S
C129 O128 1.232 . S
C129 O130 1.218 . S
O130 C129 1.218 . S
C131 O124 1.275 . S
C131 O126 1.255 . S
C132 O133 1.258 . S
C132 O134 1.256 . S
O133 Cd125 2.381 . S
O133 C132 1.258 . S
O134 Cd125 2.378 . S
O134 C132 1.256 . S
H135 C141 0.930 . S
H136 C144 0.930 . S
H137 C145 0.930 . S
H138 C146 0.930 . S
H139 C149 0.930 . S
H140 C150 0.930 . S
C141 H135 0.930 . S
C141 C142 1.355 . S
C141 C143 1.415 . S
C142 C141 1.355 . S
C142 C144 1.419 . S
C143 C141 1.415 . S
C143 C148 1.425 . S
C143 C150 1.409 . S
C144 H136 0.930 . S
C144 C142 1.419 . S
C144 C145 1.362 . S
C145 H137 0.930 . S
C145 C144 1.362 . S
C145 C148 1.409 . S
C146 H138 0.930 . S
C146 C147 1.355 . S
C146 C148 1.415 . S
C147 C146 1.355 . S
C147 C149 1.419 . S
C148 C143 1.425 . S
C148 C145 1.409 . S
C148 C146 1.415 . S
C149 H139 0.930 . S
C149 C147 1.419 . S
C149 C150 1.362 . S
C150 H140 0.930 . S
C150 C143 1.409 . S
C150 C149 1.362 . S
H151 C157 0.930 . S
H152 C160 0.930 . S
H153 C161 0.930 . S
H154 C162 0.930 . S
H155 C165 0.930 . S
H156 C166 0.930 . S
C157 H151 0.930 . S
C157 C158 1.355 . S
C157 C159 1.415 . S
C158 C157 1.355 . S
C158 C160 1.419 . S
C159 C157 1.415 . S
C159 C164 1.425 . S
C159 C166 1.409 . S
C160 H152 0.930 . S
C160 C158 1.419 . S
C160 C161 1.362 . S
C161 H153 0.930 . S
C161 C160 1.362 . S
C161 C164 1.409 . S
C162 H154 0.930 . S
C162 C163 1.355 . S
C162 C164 1.415 . S
C163 C162 1.355 . S
C163 C165 1.419 . S
C164 C159 1.425 . S
C164 C161 1.409 . S
C164 C162 1.415 . S
C165 H155 0.930 . S
C165 C163 1.419 . S
C165 C166 1.362 . S
C166 H156 0.930 . S
C166 C159 1.409 . S
C166 C165 1.362 . S
H167 C173 0.930 . S
H168 C176 0.930 . S
H169 C177 0.930 . S
H170 C178 0.930 . S
H171 C181 0.930 . S
H172 C182 0.930 . S
C173 H167 0.930 . S
C173 C174 1.355 . S
C173 C175 1.415 . S
C174 C173 1.355 . S
C174 C176 1.419 . S
C175 C173 1.415 . S
C175 C180 1.425 . S
C175 C182 1.409 . S
C176 H168 0.930 . S
C176 C174 1.419 . S
C176 C177 1.362 . S
C177 H169 0.930 . S
C177 C176 1.362 . S
C177 C180 1.409 . S
C178 H170 0.930 . S
C178 C179 1.355 . S
C178 C180 1.415 . S
C179 C178 1.355 . S
C179 C181 1.419 . S
C180 C175 1.425 . S
C180 C177 1.409 . S
C180 C178 1.415 . S
C181 H171 0.930 . S
C181 C179 1.419 . S
C181 C182 1.362 . S
C182 H172 0.930 . S
C182 C175 1.409 . S
C182 C181 1.362 . S
H183 C189 0.930 . S
H184 C192 0.930 . S
H185 C193 0.930 . S
H186 C194 0.930 . S
H187 C197 0.930 . S
H188 C198 0.930 . S
C189 H183 0.930 . S
C189 C190 1.355 . S
C189 C191 1.415 . S
C190 C189 1.355 . S
C190 C192 1.419 . S
C191 C189 1.415 . S
C191 C196 1.425 . S
C191 C198 1.409 . S
C192 H184 0.930 . S
C192 C190 1.419 . S
C192 C193 1.362 . S
C193 H185 0.930 . S
C193 C192 1.362 . S
C193 C196 1.409 . S
C194 H186 0.930 . S
C194 C195 1.355 . S
C194 C196 1.415 . S
C195 C194 1.355 . S
C195 C197 1.419 . S
C196 C191 1.425 . S
C196 C193 1.409 . S
C196 C194 1.415 . S
C197 H187 0.930 . S
C197 C195 1.419 . S
C197 C198 1.362 . S
C198 H188 0.930 . S
C198 C191 1.409 . S
C198 C197 1.362 . S
H199 C205 0.930 . S
H200 C208 0.930 . S
H201 C209 0.930 . S
H202 C210 0.930 . S
H203 C213 0.930 . S
H204 C214 0.930 . S
C205 H199 0.930 . S
C205 C206 1.355 . S
C205 C207 1.415 . S
C206 C205 1.355 . S
C206 C208 1.419 . S
C207 C205 1.415 . S
C207 C212 1.425 . S
C207 C214 1.409 . S
C208 H200 0.930 . S
C208 C206 1.419 . S
C208 C209 1.362 . S
C209 H201 0.930 . S
C209 C208 1.362 . S
C209 C212 1.409 . S
C210 H202 0.930 . S
C210 C211 1.355 . S
C210 C212 1.415 . S
C211 C210 1.355 . S
C211 C213 1.419 . S
C212 C207 1.425 . S
C212 C209 1.409 . S
C212 C210 1.415 . S
C213 H203 0.930 . S
C213 C211 1.419 . S
C213 C214 1.362 . S
C214 H204 0.930 . S
C214 C207 1.409 . S
C214 C213 1.362 . S
H215 C221 0.930 . S
H216 C224 0.930 . S
H217 C225 0.930 . S
H218 C226 0.930 . S
H219 C229 0.930 . S
H220 C230 0.930 . S
C221 H215 0.930 . S
C221 C222 1.355 . S
C221 C223 1.415 . S
C222 C221 1.355 . S
C222 C224 1.419 . S
C223 C221 1.415 . S
C223 C228 1.425 . S
C223 C230 1.409 . S
C224 H216 0.930 . S
C224 C222 1.419 . S
C224 C225 1.362 . S
C225 H217 0.930 . S
C225 C224 1.362 . S
C225 C228 1.409 . S
C226 H218 0.930 . S
C226 C227 1.355 . S
C226 C228 1.415 . S
C227 C226 1.355 . S
C227 C229 1.419 . S
C228 C223 1.425 . S
C228 C225 1.409 . S
C228 C226 1.415 . S
C229 H219 0.930 . S
C229 C227 1.419 . S
C229 C230 1.362 . S
C230 H220 0.930 . S
C230 C223 1.409 . S
C230 C229 1.362 . S
H231 C237 0.930 . S
H232 C240 0.930 . S
H233 C241 0.930 . S
H234 C242 0.930 . S
H235 C245 0.930 . S
H236 C246 0.930 . S
C237 H231 0.930 . S
C237 C238 1.355 . S
C237 C239 1.415 . S
C238 C237 1.355 . S
C238 C240 1.419 . S
C239 C237 1.415 . S
C239 C244 1.425 . S
C239 C246 1.409 . S
C240 H232 0.930 . S
C240 C238 1.419 . S
C240 C241 1.362 . S
C241 H233 0.930 . S
C241 C240 1.362 . S
C241 C244 1.409 . S
C242 H234 0.930 . S
C242 C243 1.355 . S
C242 C244 1.415 . S
C243 C242 1.355 . S
C243 C245 1.419 . S
C244 C239 1.425 . S
C244 C241 1.409 . S
C244 C242 1.415 . S
C245 H235 0.930 . S
C245 C243 1.419 . S
C245 C246 1.362 . S
C246 H236 0.930 . S
C246 C239 1.409 . S
C246 C245 1.362 . S
H247 C253 0.930 . S
H248 C256 0.930 . S
H249 C257 0.930 . S
H250 C258 0.930 . S
H251 C261 0.930 . S
H252 C262 0.930 . S
C253 H247 0.930 . S
C253 C254 1.355 . S
C253 C255 1.415 . S
C254 C253 1.355 . S
C254 C256 1.419 . S
C255 C253 1.415 . S
C255 C260 1.425 . S
C255 C262 1.409 . S
C256 H248 0.930 . S
C256 C254 1.419 . S
C256 C257 1.362 . S
C257 H249 0.930 . S
C257 C256 1.362 . S
C257 C260 1.409 . S
C258 H250 0.930 . S
C258 C259 1.355 . S
C258 C260 1.415 . S
C259 C258 1.355 . S
C259 C261 1.419 . S
C260 C255 1.425 . S
C260 C257 1.409 . S
C260 C258 1.415 . S
C261 H251 0.930 . S
C261 C259 1.419 . S
C261 C262 1.362 . S
C262 H252 0.930 . S
C262 C255 1.409 . S
C262 C261 1.362 . S
H263 C269 0.930 . S
H264 C272 0.930 . S
H265 C273 0.930 . S
H266 C274 0.930 . S
H267 C277 0.930 . S
H268 C278 0.930 . S
C269 H263 0.930 . S
C269 C270 1.355 . S
C269 C271 1.415 . S
C270 C269 1.355 . S
C270 C272 1.419 . S
C271 C269 1.415 . S
C271 C276 1.425 . S
C271 C278 1.409 . S
C272 H264 0.930 . S
C272 C270 1.419 . S
C272 C273 1.362 . S
C273 H265 0.930 . S
C273 C272 1.362 . S
C273 C276 1.409 . S
C274 H266 0.930 . S
C274 C275 1.355 . S
C274 C276 1.415 . S
C275 C274 1.355 . S
C275 C277 1.419 . S
C276 C271 1.425 . S
C276 C273 1.409 . S
C276 C274 1.415 . S
C277 H267 0.930 . S
C277 C275 1.419 . S
C277 C278 1.362 . S
C278 H268 0.930 . S
C278 C271 1.409 . S
C278 C277 1.362 . S
H279 C285 0.930 . S
H280 C288 0.930 . S
H281 C289 0.930 . S
H282 C290 0.930 . S
H283 C293 0.930 . S
H284 C294 0.930 . S
C285 H279 0.930 . S
C285 C286 1.355 . S
C285 C287 1.415 . S
C286 C285 1.355 . S
C286 C288 1.419 . S
C287 C285 1.415 . S
C287 C292 1.425 . S
C287 C294 1.409 . S
C288 H280 0.930 . S
C288 C286 1.419 . S
C288 C289 1.362 . S
C289 H281 0.930 . S
C289 C288 1.362 . S
C289 C292 1.409 . S
C290 H282 0.930 . S
C290 C291 1.355 . S
C290 C292 1.415 . S
C291 C290 1.355 . S
C291 C293 1.419 . S
C292 C287 1.425 . S
C292 C289 1.409 . S
C292 C290 1.415 . S
C293 H283 0.930 . S
C293 C291 1.419 . S
C293 C294 1.362 . S
C294 H284 0.930 . S
C294 C287 1.409 . S
C294 C293 1.362 . S
H295 C301 0.930 . S
H296 C304 0.930 . S
H297 C305 0.930 . S
H298 C306 0.930 . S
H299 C309 0.930 . S
H300 C310 0.930 . S
C301 H295 0.930 . S
C301 C302 1.355 . S
C301 C303 1.415 . S
C302 C301 1.355 . S
C302 C304 1.419 . S
C303 C301 1.415 . S
C303 C308 1.425 . S
C303 C310 1.409 . S
C304 H296 0.930 . S
C304 C302 1.419 . S
C304 C305 1.362 . S
C305 H297 0.930 . S
C305 C304 1.362 . S
C305 C308 1.409 . S
C306 H298 0.930 . S
C306 C307 1.355 . S
C306 C308 1.415 . S
C307 C306 1.355 . S
C307 C309 1.419 . S
C308 C303 1.425 . S
C308 C305 1.409 . S
C308 C306 1.415 . S
C309 H299 0.930 . S
C309 C307 1.419 . S
C309 C310 1.362 . S
C310 H300 0.930 . S
C310 C303 1.409 . S
C310 C309 1.362 . S
H311 C317 0.930 . S
H312 C320 0.930 . S
H313 C321 0.930 . S
H314 C322 0.930 . S
H315 C325 0.930 . S
H316 C326 0.930 . S
C317 H311 0.930 . S
C317 C318 1.355 . S
C317 C319 1.415 . S
C318 C317 1.355 . S
C318 C320 1.419 . S
C319 C317 1.415 . S
C319 C324 1.425 . S
C319 C326 1.409 . S
C320 H312 0.930 . S
C320 C318 1.419 . S
C320 C321 1.362 . S
C321 H313 0.930 . S
C321 C320 1.362 . S
C321 C324 1.409 . S
C322 H314 0.930 . S
C322 C323 1.355 . S
C322 C324 1.415 . S
C323 C322 1.355 . S
C323 C325 1.419 . S
C324 C319 1.425 . S
C324 C321 1.409 . S
C324 C322 1.415 . S
C325 H315 0.930 . S
C325 C323 1.419 . S
C325 C326 1.362 . S
C326 H316 0.930 . S
C326 C319 1.409 . S
C326 C325 1.362 . S
H327 C333 0.930 . S
H328 C336 0.930 . S
H329 C337 0.930 . S
H330 C338 0.930 . S
H331 C341 0.930 . S
H332 C342 0.930 . S
C333 H327 0.930 . S
C333 C334 1.355 1_655 S
C333 C335 1.415 . S
C334 C333 1.355 1_455 S
C334 C336 1.419 . S
C335 C333 1.415 . S
C335 C340 1.425 1_655 S
C335 C342 1.409 . S
C336 H328 0.930 . S
C336 C334 1.419 . S
C336 C337 1.362 . S
C337 H329 0.930 . S
C337 C336 1.362 . S
C337 C340 1.409 . S
C338 H330 0.930 . S
C338 C339 1.363 . S
C338 C340 1.415 1_556 S
C339 C338 1.363 . S
C339 C341 1.409 1_455 S
C340 C335 1.425 1_455 S
C340 C337 1.409 . S
C340 C338 1.415 1_554 S
C341 H331 0.930 . S
C341 C339 1.409 1_655 S
C341 C342 1.362 1_556 S
C342 H332 0.930 . S
C342 C335 1.409 . S
C342 C341 1.362 1_554 S
H343 C349 0.930 . S
H344 C352 0.930 . S
H345 C353 0.930 . S
H346 C354 0.930 . S
H347 C357 0.930 . S
H348 C358 0.930 . S
C349 H343 0.930 . S
C349 C350 1.355 . S
C349 C351 1.415 . S
C350 C349 1.355 . S
C350 C352 1.419 1_545 S
C351 C349 1.415 . S
C351 C356 1.425 1_545 S
C351 C358 1.409 . S
C352 H344 0.930 . S
C352 C350 1.419 1_565 S
C352 C353 1.362 . S
C353 H345 0.930 . S
C353 C352 1.362 . S
C353 C356 1.409 . S
C354 H346 0.930 . S
C354 C355 1.350 1_565 S
C354 C356 1.415 . S
C355 C354 1.350 1_545 S
C355 C357 1.426 . S
C356 C351 1.425 1_565 S
C356 C353 1.409 . S
C356 C354 1.415 . S
C357 H347 0.930 . S
C357 C355 1.426 . S
C357 C358 1.362 . S
C358 H348 0.930 . S
C358 C351 1.409 . S
C358 C357 1.362 . S
H359 C365 0.930 . S
H360 C368 0.930 . S
H361 C369 0.930 . S
H362 C370 0.930 . S
H363 C373 0.930 . S
H364 C374 0.930 . S
C365 H359 0.930 . S
C365 C366 1.355 . S
C365 C367 1.415 . S
C366 C365 1.355 . S
C366 C368 1.419 . S
C367 C365 1.415 . S
C367 C372 1.425 . S
C367 C374 1.409 . S
C368 H360 0.930 . S
C368 C366 1.419 . S
C368 C369 1.362 . S
C369 H361 0.930 . S
C369 C368 1.362 . S
C369 C372 1.409 . S
C370 H362 0.930 . S
C370 C371 1.355 . S
C370 C372 1.415 . S
C371 C370 1.355 . S
C371 C373 1.419 . S
C372 C367 1.425 . S
C372 C369 1.409 . S
C372 C370 1.415 . S
C373 H363 0.930 . S
C373 C371 1.419 . S
C373 C374 1.362 . S
C374 H364 0.930 . S
C374 C367 1.409 . S
C374 C373 1.362 . S
H375 C381 0.930 . S
H376 C384 0.930 . S
H377 C385 0.930 . S
H378 C386 0.930 . S
H379 C389 0.930 . S
H380 C390 0.930 . S
C381 H375 0.930 . S
C381 C382 1.355 1_565 S
C381 C383 1.415 . S
C382 C381 1.355 1_545 S
C382 C384 1.419 . S
C383 C381 1.415 . S
C383 C388 1.425 1_565 S
C383 C390 1.409 . S
C384 H376 0.930 . S
C384 C382 1.419 . S
C384 C385 1.362 . S
C385 H377 0.930 . S
C385 C384 1.362 . S
C385 C388 1.409 . S
C386 H378 0.930 . S
C386 C387 1.355 . S
C386 C388 1.415 . S
C387 C386 1.355 . S
C387 C389 1.419 1_545 S
C388 C383 1.425 1_545 S
C388 C385 1.409 . S
C388 C386 1.415 . S
C389 H379 0.930 . S
C389 C387 1.419 1_565 S
C389 C390 1.362 . S
C390 H380 0.930 . S
C390 C383 1.409 . S
C390 C389 1.362 . S
H391 C397 0.930 . S
H392 C400 0.930 . S
H393 C401 0.930 . S
H394 C402 0.930 . S
H395 C405 0.930 . S
H396 C406 0.930 . S
C397 H391 0.930 . S
C397 C398 1.355 . S
C397 C399 1.415 . S
C398 C397 1.355 . S
C398 C400 1.419 . S
C399 C397 1.415 . S
C399 C404 1.425 . S
C399 C406 1.409 . S
C400 H392 0.930 . S
C400 C398 1.419 . S
C400 C401 1.362 . S
C401 H393 0.930 . S
C401 C400 1.362 . S
C401 C404 1.409 . S
C402 H394 0.930 . S
C402 C403 1.355 . S
C402 C404 1.415 1_554 S
C403 C402 1.355 . S
C403 C405 1.419 . S
C404 C399 1.425 . S
C404 C401 1.409 . S
C404 C402 1.415 1_556 S
C405 H395 0.930 . S
C405 C403 1.419 . S
C405 C406 1.362 1_554 S
C406 H396 0.930 . S
C406 C399 1.409 . S
C406 C405 1.362 1_556 S
H407 C413 0.930 . S
H408 C416 0.930 . S
H409 C417 0.930 . S
H410 C418 0.930 . S
H411 C421 0.930 . S
H412 C422 0.930 . S
C413 H407 0.930 . S
C413 C414 1.355 1_655 S
C413 C415 1.415 . S
C414 C413 1.355 1_455 S
C414 C416 1.419 . S
C415 C413 1.415 . S
C415 C420 1.425 1_655 S
C415 C422 1.409 . S
C416 H408 0.930 . S
C416 C414 1.419 . S
C416 C417 1.362 . S
C417 H409 0.930 . S
C417 C416 1.362 . S
C417 C420 1.409 . S
C418 H410 0.930 . S
C418 C419 1.355 1_455 S
C418 C420 1.415 . S
C419 C418 1.355 1_655 S
C419 C421 1.419 . S
C420 C415 1.425 1_455 S
C420 C417 1.409 . S
C420 C418 1.415 . S
C421 H411 0.930 . S
C421 C419 1.419 . S
C421 C422 1.362 . S
C422 H412 0.930 . S
C422 C415 1.409 . S
C422 C421 1.362 . S
C142 C20 1.366 . S
C147 C129 1.351 . S
C158 C41 1.475 . S
C163 C107 1.394 . S
C174 C64 1.217 . S
C179 C121 1.211 . S
C190 C19 1.205 . S
C195 C132 1.217 . S
C211 C110 1.155 . S
C206 C44 1.168 . S
C227 C118 1.357 . S
C222 C67 1.441 . S
C238 C43 1.438 . S
C243 C85 1.279 . S
C254 C66 1.388 . S
C259 C96 1.355 . S
C270 C21 1.463 . S
C275 C74 1.390 . S
C291 C88 1.190 . S
C286 C42 1.181 . S
C307 C99 1.135 . S
C302 C65 1.100 . S
C318 C18 1.176 . S
C323 C77 1.126 . S
C339 C98 1.466 . S
C334 C17 1.498 . S
C350 C39 1.489 . S
C355 C76 1.383 . S
C366 C62 1.513 . S
C371 C87 1.447 . S
C387 C120 1.388 . S
C382 C40 1.477 . S
C403 C131 1.414 . S
C398 C63 1.494 . S
C414 C16 1.495 . S
C419 C109 1.465 . S
