# Generated by pormake.
# Topology zzz, (3,6)-cn, num edge types: 1
# Building blocks:
#     Node 0, Type 0, BuildingBlock: OLANEW_clean_sbu_2, # of connection points: 3
#     Node 1, Type 0, BuildingBlock: OLANEW_clean_sbu_2, # of connection points: 3
#     Node 2, Type 0, BuildingBlock: OLANEW_clean_sbu_2, # of connection points: 3
#     Node 3, Type 0, BuildingBlock: OLANEW_clean_sbu_2, # of connection points: 3
#     Node 4, Type 0, BuildingBlock: OLANEW_clean_sbu_2, # of connection points: 3
#     Node 5, Type 0, BuildingBlock: OLANEW_clean_sbu_2, # of connection points: 3
#     Node 6, Type 0, BuildingBlock: OLANEW_clean_sbu_2, # of connection points: 3
#     Node 7, Type 0, BuildingBlock: OLANEW_clean_sbu_2, # of connection points: 3
#     Node 8, Type 1, BuildingBlock: KUMBUR_clean_sbu_0, # of connection points: 6
#     Node 9, Type 1, BuildingBlock: KUMBUR_clean_sbu_0, # of connection points: 6
#     Node 10, Type 1, BuildingBlock: KUMBUR_clean_sbu_0, # of connection points: 6
#     Node 11, Type 1, BuildingBlock: KUMBUR_clean_sbu_0, # of connection points: 6
#     Edge 12, Type (0, 1), BuildingBlock: UVAHIK_clean_linker_0, # of connection points: 2
#     Edge 13, Type (0, 1), BuildingBlock: UVAHIK_clean_linker_0, # of connection points: 2
#     Edge 14, Type (0, 1), BuildingBlock: UVAHIK_clean_linker_0, # of connection points: 2
#     Edge 15, Type (0, 1), BuildingBlock: UVAHIK_clean_linker_0, # of connection points: 2
#     Edge 16, Type (0, 1), BuildingBlock: UVAHIK_clean_linker_0, # of connection points: 2
#     Edge 17, Type (0, 1), BuildingBlock: UVAHIK_clean_linker_0, # of connection points: 2
#     Edge 18, Type (0, 1), BuildingBlock: UVAHIK_clean_linker_0, # of connection points: 2
#     Edge 19, Type (0, 1), BuildingBlock: UVAHIK_clean_linker_0, # of connection points: 2
#     Edge 20, Type (0, 1), BuildingBlock: UVAHIK_clean_linker_0, # of connection points: 2
#     Edge 21, Type (0, 1), BuildingBlock: UVAHIK_clean_linker_0, # of connection points: 2
#     Edge 22, Type (0, 1), BuildingBlock: UVAHIK_clean_linker_0, # of connection points: 2
#     Edge 23, Type (0, 1), BuildingBlock: UVAHIK_clean_linker_0, # of connection points: 2
#     Edge 24, Type (0, 1), BuildingBlock: UVAHIK_clean_linker_0, # of connection points: 2
#     Edge 25, Type (0, 1), BuildingBlock: UVAHIK_clean_linker_0, # of connection points: 2
#     Edge 26, Type (0, 1), BuildingBlock: UVAHIK_clean_linker_0, # of connection points: 2
#     Edge 27, Type (0, 1), BuildingBlock: UVAHIK_clean_linker_0, # of connection points: 2
#     Edge 28, Type (0, 1), BuildingBlock: UVAHIK_clean_linker_0, # of connection points: 2
#     Edge 29, Type (0, 1), BuildingBlock: UVAHIK_clean_linker_0, # of connection points: 2
#     Edge 30, Type (0, 1), BuildingBlock: UVAHIK_clean_linker_0, # of connection points: 2
#     Edge 31, Type (0, 1), BuildingBlock: UVAHIK_clean_linker_0, # of connection points: 2
#     Edge 32, Type (0, 1), BuildingBlock: UVAHIK_clean_linker_0, # of connection points: 2
#     Edge 33, Type (0, 1), BuildingBlock: UVAHIK_clean_linker_0, # of connection points: 2
#     Edge 34, Type (0, 1), BuildingBlock: UVAHIK_clean_linker_0, # of connection points: 2
#     Edge 35, Type (0, 1), BuildingBlock: UVAHIK_clean_linker_0, # of connection points: 2
# Relax obj value: 0.134
# Max RMSD: 0.157
# Mean RMSD: 0.121
data_MOF--net-zzz--node1-OLANEW_clean_sbu_2--node2-KUMBUR_clean_sbu_0--edge1-UVAHIK_clean_linker_0
_symmetry_space_group_name_H-M    P1
_symmetry_Int_Tables_number       1
_symmetry_cell_setting            triclinic
loop_
_symmetry_equiv_pos_as_xyz
'x, y, z'
_cell_length_a     68.692112
_cell_length_b     68.822588
_cell_length_c     21.156769
_cell_angle_alpha  90.229304
_cell_angle_beta   89.935991
_cell_angle_gamma 89.960616
loop_
_atom_site_label
_atom_site_type_symbol
_atom_site_fract_x
_atom_site_fract_y
_atom_site_fract_z
_atom_type_partial_charge
O0 O 0.7471 0.60618 0.0049 0.0
Cd1 Cd 0.71598 0.61768 0.04564 0.0
O2 O 0.74243 0.58352 0.07543 0.0
Cd3 Cd 0.75294 0.55995 0.1346 0.0
O4 O 0.77718 0.54993 0.19139 0.0
C5 C 0.79016 0.56283 0.19952 0.0
O6 O 0.78755 0.58006 0.17431 0.0
C7 C 0.75286 0.59074 0.03166 0.0
C8 C 0.68636 0.59662 0.98809 0.0
O9 O 0.69083 0.61369 0.96888 0.0
O10 O 0.69564 0.58964 0.03532 0.0
O11 O 0.9089 0.75199 0.02596 0.0
Cd12 Cd 0.8987 0.71989 0.06078 0.0
O13 O 0.92579 0.75339 0.11334 0.0
Cd14 Cd 0.94326 0.7681 0.18462 0.0
O15 O 0.95668 0.79185 0.23605 0.0
C16 C 0.94537 0.80371 0.26393 0.0
O17 O 0.92652 0.80047 0.26266 0.0
C18 C 0.9205 0.76123 0.06173 0.0
C19 C 0.91825 0.69119 0.99285 0.0
O20 O 0.90186 0.69793 0.974 0.0
O21 O 0.92539 0.69797 0.04437 0.0
O22 O 0.75515 0.93522 0.08405 0.0
Cd23 Cd 0.78638 0.91956 0.10727 0.0
O24 O 0.75167 0.94528 0.18189 0.0
Cd25 Cd 0.73702 0.95811 0.2643 0.0
O26 O 0.7412 0.96282 0.37033 0.0
C27 C 0.72909 0.95971 0.41528 0.0
O28 O 0.74185 0.96308 0.37108 0.0
C29 C 0.74518 0.94414 0.12577 0.0
C30 C 0.81685 0.93179 0.02919 0.0
O31 O 0.80513 0.91836 0.01144 0.0
O32 O 0.81408 0.93958 0.08359 0.0
O33 O 0.6112 0.76349 0.03853 0.0
Cd34 Cd 0.62264 0.7935 0.08733 0.0
O35 O 0.58862 0.76528 0.11144 0.0
Cd36 Cd 0.56253 0.75452 0.15856 0.0
O37 O 0.54889 0.72939 0.20185 0.0
C38 C 0.55007 0.727 0.26117 0.0
O39 O 0.55768 0.74086 0.29616 0.0
C40 C 0.59616 0.75638 0.06455 0.0
C41 C 0.60435 0.82476 0.02972 0.0
O42 O 0.62167 0.81977 0.01394 0.0
O43 O 0.59582 0.81519 0.07355 0.0
O44 O 0.2577 0.43591 0.18501 0.0
Cd45 Cd 0.28696 0.42733 0.12585 0.0
O46 O 0.24375 0.4167 0.11675 0.0
Cd47 Cd 0.22011 0.40598 0.05832 0.0
O48 O 0.19867 0.41036 0.98492 0.0
C49 C 0.20147 0.4253 0.95103 0.0
O50 O 0.21699 0.436 0.96137 0.0
C51 C 0.24221 0.42862 0.16258 0.0
C52 C 0.31978 0.44409 0.17898 0.0
O53 O 0.30883 0.45388 0.14184 0.0
O54 O 0.31523 0.4264 0.19057 0.0
O55 O 0.09042 0.26319 0.16227 0.0
Cd56 Cd 0.10886 0.29247 0.139 0.0
O57 O 0.1084 0.24827 0.09176 0.0
Cd58 Cd 0.11375 0.22357 0.03001 0.0
O59 O 0.104 0.19855 0.97633 0.0
C60 C 0.0857 0.19596 0.9754 0.0
O61 O 0.0744 0.20842 0.00507 0.0
C62 C 0.09468 0.24781 0.13209 0.0
C63 C 0.08995 0.32414 0.19249 0.0
O64 O 0.08632 0.31893 0.13547 0.0
O65 O 0.10275 0.31455 0.22344 0.0
O66 O 0.2497 0.06255 0.0595 0.0
Cd67 Cd 0.22233 0.06733 0.98779 0.0
O68 O 0.27249 0.08127 0.01853 0.0
Cd69 Cd 0.26057 0.08351 0.9236 0.0
O70 O 0.28223 0.07283 0.8557 0.0
C71 C 0.29671 0.08362 0.84266 0.0
O72 O 0.29692 0.10155 0.86417 0.0
C73 C 0.26645 0.07033 0.06263 0.0
C74 C 0.18887 0.06109 0.06025 0.0
O75 O 0.19789 0.04694 0.03375 0.0
O76 O 0.19518 0.07834 0.05052 0.0
O77 O 0.42163 0.24348 0.10604 0.0
Cd78 Cd 0.40602 0.21595 0.05419 0.0
O79 O 0.39896 0.26235 0.06824 0.0
Cd80 Cd 0.3871 0.28977 0.03582 0.0
O81 O 0.39277 0.31421 0.9748 0.0
C82 C 0.40902 0.31294 0.9464 0.0
O83 O 0.42003 0.29764 0.95655 0.0
C84 C 0.41473 0.26043 0.09907 0.0
C85 C 0.41957 0.18245 0.11133 0.0
O86 O 0.42939 0.19071 0.06751 0.0
O87 O 0.40304 0.18972 0.12674 0.0
Tb88 Tb 0.02572 -0.00086 0.64404 0.0
C89 C 0.95357 0.00029 0.4694 0.0
C90 C 0.96222 0.97983 0.38065 0.0
C91 C 0.92836 0.98258 0.41299 0.0
C92 C 0.96754 0.99248 0.4303 0.0
C93 C 0.93375 0.99578 0.46067 0.0
C94 C 0.94259 0.97459 0.37305 0.0
C95 C 0.92608 0.01866 0.54394 0.0
N96 N 0.95942 0.01292 0.51476 0.0
C97 C 0.94594 0.02267 0.55059 0.0
C98 C 0.91996 0.00498 0.49926 0.0
Tb99 Tb 0.99229 0.01794 0.52436 0.0
N100 N 0.98628 0.99795 0.43938 0.0
C101 C 0.00026 0.99251 0.39668 0.0
C102 C 0.97671 0.97324 0.33934 0.0
C103 C 0.99576 0.97987 0.34682 0.0
H104 H 0.95052 0.03313 0.58568 0.0
H105 H 0.00703 0.97518 0.31438 0.0
H106 H 0.93823 0.96472 0.33561 0.0
H107 H 0.91552 0.02608 0.57339 0.0
H108 H 0.01512 0.99731 0.40169 0.0
H109 H 0.0056 0.03984 0.85467 0.0
H110 H 0.97327 0.96343 0.30076 0.0
H111 H 0.06923 0.98508 0.59548 0.0
H112 H 3e-05 0.01807 0.7652 0.0
H113 H 0.1036 0.99413 0.61305 0.0
H114 H 0.91322 0.97876 0.40582 0.0
H115 H 0.03832 0.05355 0.87389 0.0
H116 H 0.07373 0.0548 0.84378 0.0
H117 H 0.90457 0.00192 0.49414 0.0
H118 H 0.10054 0.04246 0.77735 0.0
N119 N 0.02936 0.01908 0.7314 0.0
C120 C 0.01451 0.02351 0.77234 0.0
C121 C 0.03603 0.04378 0.83433 0.0
C122 C 0.0514 0.03837 0.79473 0.0
C123 C 0.01757 0.03603 0.82368 0.0
C124 C 0.04756 0.02568 0.74369 0.0
H125 H 0.11189 0.01956 0.69161 0.0
N126 N 0.05807 0.00586 0.66094 0.0
C127 C 0.09217 0.00135 0.63944 0.0
C128 C 0.06249 0.0189 0.70668 0.0
C129 C 0.07268 0.99628 0.62957 0.0
C130 C 0.09678 0.01573 0.68368 0.0
C131 C 0.08188 0.02441 0.71902 0.0
O132 O 0.03873 0.97202 0.66092 0.0
O133 O 0.00753 0.9935 0.5634 0.0
O134 O 0.9755 -0.00125 0.58551 0.0
O135 O 0.99503 -0.00106 0.67588 0.0
O136 O 0.03307 0.97865 0.56785 0.0
O137 O 0.01515 0.98199 0.71926 0.0
O138 O 0.98164 0.04614 0.50765 0.0
O139 O 0.01079 0.02357 0.60401 0.0
O140 O 0.0432 0.01638 0.57802 0.0
O141 O 0.02252 0.01786 0.48981 0.0
O142 O 0.98589 0.03944 0.59868 0.0
O143 O 0.00263 0.03283 0.44473 0.0
C144 C 0.01737 0.98067 0.53561 0.0
C145 C 0.01599 0.94838 0.69488 0.0
C146 C 0.99506 0.92259 0.73558 0.0
C147 C 0.00516 0.9402 0.74464 0.0
C148 C 0.99563 0.91345 0.6761 0.0
C149 C 0.01706 0.93839 0.63679 0.0
C150 C 0.00667 0.92126 0.62723 0.0
C151 C 0.97827 0.99553 0.64652 0.0
C152 C 0.02604 0.96724 0.70374 0.0
C153 C 0.08577 0.03784 0.76755 0.0
C154 C 0.07052 0.04483 0.8054 0.0
C155 C 0.00148 0.03692 0.63099 0.0
C156 C 0.98235 0.05684 0.40124 0.0
C157 C 0.99236 0.07145 0.36876 0.0
C158 C 0.98394 0.08072 0.31642 0.0
C159 C 0.9652 0.0751 0.29693 0.0
C160 C 0.96378 0.05118 0.38095 0.0
C161 C 0.95526 0.06033 0.32891 0.0
C162 C 0.03971 0.01999 0.51749 0.0
C163 C 0.99187 0.04802 0.45608 0.0
H164 H 0.00463 0.94744 0.79021 0.0
H165 H 0.98812 0.89982 0.66813 0.0
H166 H 0.02602 0.94362 0.59861 0.0
H167 H 0.00744 0.91385 0.58205 0.0
H168 H 0.00666 0.07587 0.38515 0.0
H169 H 0.95836 0.08196 0.25669 0.0
H170 H 0.9559 0.03983 0.40532 0.0
H171 H 0.9409 0.05599 0.31335 0.0
Tb172 Tb 0.51647 0.02193 0.64349 0.0
C173 C 0.51267 0.94738 0.47895 0.0
C174 C 0.53476 0.95377 0.39261 0.0
C175 C 0.5291 0.92053 0.42633 0.0
C176 C 0.52197 0.96039 0.44026 0.0
C177 C 0.51569 0.92724 0.47161 0.0
C178 C 0.53865 0.93379 0.3869 0.0
C179 C 0.49062 0.92195 0.54975 0.0
N180 N 0.49973 0.95448 0.52149 0.0
C181 C 0.4881 0.94207 0.55493 0.0
C182 C 0.50468 0.91449 0.50854 0.0
Tb183 Tb 0.49687 0.98761 0.52849 0.0
N184 N 0.51757 0.97949 0.44696 0.0
C185 C 0.52429 0.99259 0.40357 0.0
C186 C 0.5427 0.96733 0.3509 0.0
C187 C 0.53716 0.98678 0.35577 0.0
H188 H 0.4772 0.94766 0.58698 0.0
H189 H 0.54286 0.99736 0.32284 0.0
H190 H 0.54858 0.92842 0.351 0.0
H191 H 0.48171 0.91222 0.57752 0.0
H192 H 0.52034 0.00772 0.4064 0.0
H193 H 0.47015 0.00914 0.84643 0.0
H194 H 0.55263 0.96287 0.31376 0.0
H195 H 0.53426 0.06298 0.58713 0.0
H196 H 0.49363 0.00025 0.76385 0.0
H197 H 0.52765 0.09817 0.59672 0.0
H198 H 0.53178 0.90511 0.42029 0.0
H199 H 0.4585 0.04305 0.85598 0.0
H200 H 0.46074 0.07776 0.81956 0.0
H201 H 0.50654 0.8989 0.50434 0.0
H202 H 0.47647 0.10212 0.75146 0.0
N203 N 0.49516 0.02874 0.72456 0.0
C204 C 0.48889 0.01515 0.76701 0.0
C205 C 0.46888 0.03924 0.81939 0.0
C206 C 0.47629 0.05334 0.77854 0.0
C207 C 0.47547 0.02011 0.81422 0.0
C208 C 0.48969 0.04756 0.73155 0.0
H209 H 0.50172 0.10992 0.66875 0.0
N210 N 0.51187 0.05486 0.65145 0.0
C211 C 0.51921 0.0879 0.62398 0.0
C212 C 0.49834 0.06114 0.69336 0.0
C213 C 0.52294 0.06797 0.61879 0.0
C214 C 0.50452 0.09447 0.66452 0.0
C215 C 0.49411 0.08105 0.70077 0.0
O216 O 0.54442 0.03286 0.66419 0.0
O217 O 0.52203 0.00191 0.56736 0.0
O218 O 0.51331 0.97017 0.59551 0.0
O219 O 0.51545 0.99203 0.68072 0.0
O220 O 0.53888 0.02614 0.57058 0.0
O221 O 0.53056 0.01191 0.72488 0.0
O222 O 0.46746 0.98026 0.51571 0.0
O223 O 0.49131 0.00801 0.60384 0.0
O224 O 0.50042 0.03901 0.57422 0.0
O225 O 0.49893 0.01709 0.48927 0.0
O226 O 0.47517 0.98333 0.60331 0.0
O227 O 0.48341 0.99534 0.44296 0.0
C228 C 0.53602 0.01021 0.54016 0.0
C229 C 0.5526 0.03324 0.77303 0.0
C230 C 0.57453 0.0335 0.86392 0.0
C231 C 0.56822 0.02524 0.80649 0.0
C232 C 0.56506 0.05031 0.8865 0.0
C233 C 0.54334 0.04996 0.79617 0.0
C234 C 0.54964 0.05849 0.85258 0.0
C235 C 0.51705 0.97441 0.65535 0.0
C236 C 0.54564 0.02301 0.71648 0.0
C237 C 0.48011 0.0869 0.74543 0.0
C238 C 0.47117 0.07304 0.78424 0.0
C239 C 0.47751 -0.00033 0.63191 0.0
C240 C 0.45611 0.9769 0.41141 0.0
C241 C 0.43966 0.98567 0.38514 0.0
C242 C 0.42794 0.97559 0.34186 0.0
C243 C 0.43298 0.95649 0.32472 0.0
C244 C 0.46122 0.95793 0.39359 0.0
C245 C 0.44965 0.94779 0.35017 0.0
C246 C 0.4971 0.0347 0.51418 0.0
C247 C 0.46682 0.98779 0.45952 0.0
H248 H 0.57542 0.01246 0.78748 0.0
H249 H 0.5693 0.05696 0.93085 0.0
H250 H 0.5312 0.05629 0.77116 0.0
H251 H 0.54239 0.07135 0.87052 0.0
H252 H 0.43567 0.00027 0.39988 0.0
H253 H 0.42414 0.9484 0.29142 0.0
H254 H 0.4739 0.95095 0.4136 0.0
H255 H 0.45352 0.93311 0.3366 0.0
Tb256 Tb 0.5243 0.49235 0.53231 0.0
C257 C 0.44975 0.51767 0.67171 0.0
C258 C 0.43072 0.53446 0.59292 0.0
C259 C 0.41445 0.51768 0.67897 0.0
C260 C 0.44885 0.52854 0.61734 0.0
C261 C 0.43262 0.51243 0.70409 0.0
C262 C 0.4135 0.52867 0.62339 0.0
C263 C 0.45278 0.49856 0.78585 0.0
N264 N 0.46758 0.51294 0.69434 0.0
C265 C 0.46935 0.50418 0.75206 0.0
C266 C 0.43432 0.50249 0.76139 0.0
Tb267 Tb 0.49384 0.52225 0.63487 0.0
N268 N 0.46583 0.53381 0.58946 0.0
C269 C 0.46565 0.54622 0.53906 0.0
C270 C 0.43046 0.54631 0.53937 0.0
C271 C 0.44803 0.5524 0.51281 0.0
H272 H 0.48355 0.50099 0.77121 0.0
H273 H 0.44801 0.56182 0.47198 0.0
H274 H 0.39941 0.53293 0.60508 0.0
H275 H 0.45426 0.49119 0.83068 0.0
H276 H 0.47902 0.55103 0.51753 0.0
H277 H 0.57012 0.45616 0.7037 0.0
H278 H 0.41684 0.55112 0.51896 0.0
H279 H 0.53482 0.50837 0.38931 0.0
H280 H 0.5392 0.46551 0.65459 0.0
H281 H 0.5641 0.51674 0.32749 0.0
H282 H 0.40108 0.51366 0.7028 0.0
H283 H 0.60134 0.4666 0.65644 0.0
H284 H 0.61887 0.48317 0.56704 0.0
H285 H 0.4215 0.49817 0.78773 0.0
H286 H 0.61726 0.49977 0.46417 0.0
N287 N 0.55241 0.48189 0.58056 0.0
C288 C 0.55257 0.47026 0.63294 0.0
C289 C 0.58774 0.47084 0.63457 0.0
C290 C 0.58755 0.48162 0.57871 0.0
C291 C 0.57016 0.46489 0.66126 0.0
C292 C 0.56943 0.48682 0.55245 0.0
H293 H 0.59685 0.51211 0.37381 0.0
N294 N 0.55074 0.49987 0.47095 0.0
C295 C 0.56558 0.51111 0.37493 0.0
C296 C 0.56856 0.49622 0.49545 0.0
C297 C 0.54901 0.50635 0.41014 0.0
C298 C 0.58403 0.50852 0.40128 0.0
C299 C 0.58571 0.50061 0.46184 0.0
O300 O 0.51531 0.47809 0.44914 0.0
O301 O 0.49635 0.50542 0.54962 0.0
O302 O 0.48191 0.4931 0.63607 0.0
O303 O 0.50939 0.47534 0.60657 0.0
O304 O 0.50555 0.5044 0.45836 0.0
O305 O 0.52474 0.46176 0.52988 0.0
O306 O 0.5011 0.53523 0.72176 0.0
O307 O 0.52209 0.50995 0.61638 0.0
O308 O 0.5348 0.52208 0.51927 0.0
O309 O 0.50882 0.53987 0.56336 0.0
O310 O 0.51274 0.50974 0.70739 0.0
O311 O 0.49376 0.55277 0.64091 0.0
C312 C 0.49124 0.50947 0.49405 0.0
C313 C 0.52883 0.44731 0.42919 0.0
C314 C 0.52703 0.41931 0.35789 0.0
C315 C 0.51813 0.43228 0.40077 0.0
C316 C 0.54696 0.42167 0.34431 0.0
C317 C 0.54868 0.44933 0.41541 0.0
C318 C 0.55767 0.43654 0.37309 0.0
C319 C 0.49162 0.47659 0.63101 0.0
C320 C 0.51874 0.46091 0.47164 0.0
C321 C 0.60388 0.49632 0.48887 0.0
C322 C 0.6048 0.48686 0.54737 0.0
C323 C 0.52741 0.50588 0.67167 0.0
C324 C 0.48773 0.56612 0.74215 0.0
C325 C 0.49757 0.58224 0.76707 0.0
C326 C 0.48826 0.59489 0.80979 0.0
C327 C 0.46885 0.59122 0.82706 0.0
C328 C 0.46831 0.56273 0.75927 0.0
C329 C 0.45893 0.57528 0.80154 0.0
C330 C 0.52522 0.5385 0.53034 0.0
C331 C 0.49844 0.55275 0.70056 0.0
H332 H 0.50287 0.43065 0.41267 0.0
H333 H 0.55426 0.4122 0.31088 0.0
H334 H 0.55716 0.46077 0.43705 0.0
H335 H 0.57298 0.43823 0.36224 0.0
H336 H 0.51267 0.58467 0.75429 0.0
H337 H 0.46131 0.60078 0.85972 0.0
H338 H 0.46049 0.55039 0.74054 0.0
H339 H 0.44395 0.57259 0.81482 0.0
Tb340 Tb 0.01689 0.53127 0.52566 0.0
C341 C 0.00174 0.45325 0.65568 0.0
C342 C 0.99668 0.43064 0.56936 0.0
C343 C 0.0102 0.41915 0.66842 0.0
C344 C 0.996 0.44969 0.59427 0.0
C345 C 0.0085 0.43794 0.69401 0.0
C346 C 0.00429 0.41551 0.60616 0.0
C347 C 0.00962 0.46043 0.78162 0.0
N348 N -0.00012 0.47162 0.67872 0.0
C349 C 0.00275 0.47512 0.74195 0.0
C350 C 0.01282 0.44184 0.75734 0.0
Tb351 Tb 0.98921 0.4947 0.60804 0.0
N352 N 0.98871 0.46469 0.56016 0.0
C353 C 0.98029 0.46118 0.50258 0.0
C354 C 0.98914 0.42726 0.50899 0.0
C355 C 0.98057 0.44253 0.476 0.0
H356 H 5e-05 0.4892 0.76244 0.0
H357 H 0.97429 0.44 0.42981 0.0
H358 H 0.00518 0.40085 0.58751 0.0
H359 H 0.01231 0.46345 0.83109 0.0
H360 H 0.97358 0.47265 0.47589 0.0
H361 H 0.09436 0.53939 0.5658 0.0
H362 H 0.98942 0.41286 0.48812 0.0
H363 H 0.98608 0.56928 0.50809 0.0
H364 H 0.06493 0.525 0.5177 0.0
H365 H 0.98089 0.60102 0.5577 0.0
H366 H 0.01557 0.40725 0.6969 0.0
H367 H 0.09139 0.56788 0.63704 0.0
H368 H 0.07009 0.59432 0.6827 0.0
H369 H 0.01805 0.43047 0.78832 0.0
H370 H 0.03846 0.61121 0.68134 0.0
N371 N 0.04538 0.54473 0.56293 0.0
C372 C 0.06348 0.53753 0.54829 0.0
C373 C 0.07844 0.56159 0.61612 0.0
C374 C 0.06013 0.57002 0.62576 0.0
C375 C 0.08019 0.5456 0.57561 0.0
C376 C 0.04379 0.56129 0.59716 0.0
H377 H 0.00511 0.61413 0.63298 0.0
N378 N 0.01191 0.56281 0.56006 0.0
C379 C 0.99356 0.59249 0.56999 0.0
C380 C 0.02622 0.57072 0.59589 0.0
C381 C 0.99639 0.5741 0.54288 0.0
C382 C 0.00725 0.59984 0.61244 0.0
C383 C 0.02425 0.58927 0.62384 0.0
O384 O 0.00492 0.53245 0.43409 0.0
O385 O 0.00558 0.50189 0.52396 0.0
O386 O 0.01922 0.4894 0.63407 0.0
O387 O 0.03501 0.51804 0.60187 0.0
O388 O 0.03381 0.50629 0.49382 0.0
O389 O 0.03336 0.54333 0.45099 0.0
O390 O 0.96573 0.5076 0.65746 0.0
O391 O 0.9971 0.52508 0.60036 0.0
O392 O 0.98508 0.53588 0.51818 0.0
O393 O 0.97625 0.50384 0.51915 0.0
O394 O 0.99579 0.51385 0.68865 0.0
O395 O 0.96221 0.4802 0.61201 0.0
C396 C 0.02056 0.4935 0.50247 0.0
C397 C 0.02787 0.52616 0.35472 0.0
C398 C 0.05217 0.50493 0.30516 0.0
C399 C 0.04658 0.51769 0.35422 0.0
C400 C 0.03884 0.50085 0.25648 0.0
C401 C 0.01495 0.52198 0.30516 0.0
C402 C 0.02041 0.50938 0.25649 0.0
C403 C 0.03444 0.50116 0.63271 0.0
C404 C 0.0209 0.53821 0.40821 0.0
C405 C 0.03982 0.59717 0.6584 0.0
C406 C 0.05782 0.58756 0.6592 0.0
C407 C -0.00043 0.52942 0.65754 0.0
C408 C 0.94498 0.48547 0.70744 0.0
C409 C 0.93002 0.49637 0.73572 0.0
C410 C 0.92109 0.49003 0.79194 0.0
C411 C 0.92748 0.47259 0.81955 0.0
C412 C 0.95103 0.46803 0.73556 0.0
C413 C 0.94232 0.4617 0.79139 0.0
C414 C 0.97219 0.52204 0.50588 0.0
C415 C 0.95439 0.49285 0.64975 0.0
H416 H 0.05661 0.52063 0.39254 0.0
H417 H 0.04277 0.49131 0.21766 0.0
H418 H 0.00047 0.52823 0.30467 0.0
H419 H 0.0103 0.50618 0.21866 0.0
H420 H 0.92522 0.50969 0.7134 0.0
H421 H 0.92115 0.46744 0.86328 0.0
H422 H 0.96248 0.45932 0.7146 0.0
H423 H 0.94714 0.44831 0.81305 0.0
C424 C 0.15983 0.07265 0.12203 0.0
C425 C 0.17244 0.0575 0.10396 0.0
C426 C 0.14514 0.06942 0.1667 0.0
C427 C 0.13378 0.03971 0.30298 0.0
H428 H 0.07968 0.05227 0.27093 0.0
C429 C 0.07263 0.01469 0.47081 0.0
C430 C 0.05589 0.02617 0.47675 0.0
C431 C 0.08705 0.01952 0.42697 0.0
C432 C 0.09475 0.04902 0.2814 0.0
H433 H 0.17943 0.02709 0.11817 0.0
H434 H 0.15408 0.02164 0.1972 0.0
H435 H 0.10416 0.05895 0.1903 0.0
H436 H 0.04099 0.05177 0.44275 0.0
H437 H 0.06653 0.06087 0.36825 0.0
H438 H 0.12473 0.03034 0.3945 0.0
C439 C 0.1555 0.03593 0.17639 0.0
C440 C 0.10874 0.05274 0.23487 0.0
C441 C 0.16991 0.03903 0.13089 0.0
C442 C 0.05389 0.04275 0.43904 0.0
C443 C 0.06845 0.04781 0.39593 0.0
C444 C 0.11989 0.03633 0.34997 0.0
C445 C 0.14308 0.05111 0.19502 0.0
C446 C 0.12832 0.04789 0.24498 0.0
C447 C 0.08513 0.03609 0.38853 0.0
C448 C 0.10012 0.0407 0.33963 0.0
H449 H 0.16142 0.08703 0.10205 0.0
H450 H 0.13575 0.08137 0.18043 0.0
H451 H 0.14886 0.03609 0.31219 0.0
H452 H 0.07415 0.00146 0.49768 0.0
H453 H 0.09937 0.00982 0.42181 0.0
C454 C 0.44782 0.16316 0.15013 0.0
C455 C 0.42761 0.16576 0.14595 0.0
C456 C 0.45557 0.14857 0.18826 0.0
C457 C 0.44166 0.11631 0.32178 0.0
H458 H 0.4908 0.09126 0.28188 0.0
C459 C 0.47192 0.04698 0.44116 0.0
C460 C 0.4896 0.04995 0.47282 0.0
C461 C 0.4645 0.06129 0.40139 0.0
C462 C 0.47711 0.09827 0.29347 0.0
H463 H 0.39956 0.15462 0.17536 0.0
H464 H 0.41295 0.12843 0.23899 0.0
H465 H 0.47708 0.11487 0.2084 0.0
H466 H 0.51374 0.06965 0.48714 0.0
H467 H 0.50093 0.09468 0.41568 0.0
H468 H 0.44146 0.09888 0.40557 0.0
C469 C 0.42294 0.13814 0.2153 0.0
C470 C 0.46926 0.11185 0.25172 0.0
C471 C 0.41523 0.15302 0.17834 0.0
C472 C 0.49994 0.06727 0.46378 0.0
C473 C 0.49273 0.08143 0.42277 0.0
C474 C 0.44932 0.10242 0.3627 0.0
C475 C 0.44323 0.13598 0.22196 0.0
C476 C 0.45144 0.12112 0.26541 0.0
C477 C 0.47492 0.07853 0.39166 0.0
C478 C 0.46711 0.09341 0.34891 0.0
H479 H 0.4577 0.17292 0.12601 0.0
H480 H 0.47123 0.14763 0.19278 0.0
H481 H 0.42819 0.12342 0.33494 0.0
H482 H 0.46374 0.03368 0.44779 0.0
H483 H 0.45076 0.05881 0.3776 0.0
C484 C 0.35217 0.44127 0.23088 0.0
C485 C 0.33698 0.45302 0.2088 0.0
C486 C 0.36809 0.44953 0.26169 0.0
C487 C 0.39354 0.46776 0.35979 0.0
H488 H 0.41425 0.51836 0.31648 0.0
C489 C 0.45646 0.49884 0.5026 0.0
C490 C 0.47121 0.50843 0.46919 0.0
C491 C 0.43846 0.49532 0.47461 0.0
C492 C 0.40874 0.50414 0.32894 0.0
H493 H 0.32652 0.48262 0.20069 0.0
H494 H 0.35391 0.49705 0.25718 0.0
H495 H 0.38718 0.50503 0.25612 0.0
H496 H 0.47879 0.52176 0.38006 0.0
H497 H 0.4478 0.5145 0.32927 0.0
H498 H 0.41575 0.46611 0.42943 0.0
C499 C 0.35387 0.4815 0.24923 0.0
C500 C 0.39302 0.49659 0.2948 0.0
C501 C 0.33811 0.47324 0.21716 0.0
C502 C 0.46752 0.51459 0.40722 0.0
C503 C 0.44968 0.51055 0.37835 0.0
C504 C 0.40941 0.47511 0.39299 0.0
C505 C 0.36897 0.46971 0.27256 0.0
C506 C 0.38534 0.4782 0.30947 0.0
C507 C 0.43508 0.50038 0.41121 0.0
C508 C 0.41731 0.49337 0.378 0.0
H509 H 0.3518 0.42566 0.22421 0.0
H510 H 0.37969 0.44002 0.27713 0.0
H511 H 0.38778 0.45377 0.37363 0.0
H512 H 0.45889 0.49341 0.54958 0.0
H513 H 0.42745 0.48794 0.50218 0.0
C514 C 0.08268 0.34512 0.28613 0.0
C515 C 0.0795 0.34058 0.2222 0.0
C516 C 0.07281 0.36055 0.31465 0.0
C517 C 0.04893 0.40662 0.27868 0.0
H518 H 0.03004 0.40229 0.45095 0.0
C519 C 0.01492 0.47165 0.4116 0.0
C520 C 0.02188 0.47436 0.47323 0.0
C521 C 0.01877 0.45435 0.37924 0.0
C522 C 0.03528 0.40371 0.40287 0.0
H523 H 0.06336 0.34855 0.13807 0.0
H524 H 0.04614 0.37564 0.18809 0.0
H525 H 0.04274 0.37357 0.39674 0.0
H526 H 0.03927 0.46216 0.54823 0.0
H527 H 0.04583 0.4317 0.49254 0.0
H528 H 0.04196 0.43684 0.28531 0.0
C529 C 0.05635 0.36727 0.21592 0.0
C530 C 0.04254 0.3873 0.37188 0.0
C531 C 0.06617 0.35174 0.18739 0.0
C532 C 0.03312 0.4599 0.50173 0.0
C533 C 0.03685 0.44255 0.46975 0.0
C534 C 0.04169 0.42304 0.30969 0.0
C535 C 0.05958 0.37181 0.27986 0.0
C536 C 0.04986 0.38868 0.31001 0.0
C537 C 0.02984 0.43965 0.40798 0.0
C538 C 0.03523 0.42184 0.37261 0.0
H539 H 0.09284 0.3368 0.31427 0.0
H540 H 0.07585 0.36391 0.36373 0.0
H541 H 0.05462 0.40816 0.23118 0.0
H542 H 0.00682 0.48306 0.38818 0.0
H543 H 0.01326 0.45256 0.33165 0.0
C544 C 0.83376 0.93269 0.92413 0.0
C545 C 0.83327 0.9379 0.98845 0.0
C546 C 0.84936 0.93832 0.88581 0.0
C547 C 0.90079 0.95159 0.8911 0.0
H548 H 0.89115 0.97721 0.73128 0.0
C549 C 0.9626 0.98803 0.75063 0.0
C550 C 0.96179 0.98791 0.68427 0.0
C551 C 0.94698 0.98116 0.78643 0.0
C552 C 0.89415 0.96977 0.77518 0.0
H553 H 0.84882 0.95298 0.06308 0.0
H554 H 0.87625 0.9625 0.99628 0.0
H555 H 0.86376 0.96654 0.7959 0.0
H556 H 0.94417 0.97968 0.60347 0.0
H557 H 0.91711 0.96728 0.66579 0.0
H558 H 0.93111 0.95431 0.87021 0.0
C559 C 0.8645 0.95414 0.9756 0.0
C560 C 0.87843 0.96375 0.81231 0.0
C561 C 0.84875 0.94878 0.01368 0.0
C562 C 0.94514 0.98033 0.65452 0.0
C563 C 0.92957 0.97326 0.69036 0.0
C564 C 0.91652 0.95733 0.8536 0.0
C565 C 0.86493 0.949 0.91127 0.0
C566 C 0.8816 0.95479 0.87092 0.0
C567 C 0.93022 0.9737 0.75688 0.0
C568 C 0.91344 0.96672 0.79542 0.0
H569 H 0.82204 0.92432 0.90328 0.0
H570 H 0.8494 0.93409 0.83644 0.0
H571 H 0.90364 0.94446 0.93571 0.0
H572 H 0.97519 0.99367 0.77527 0.0
H573 H 0.94795 0.98206 0.83743 0.0
C574 C 0.57387 0.8412 0.99402 0.0
C575 C 0.5943 0.84074 0.99695 0.0
C576 C 0.56438 0.85575 0.95992 0.0
C577 C 0.56782 0.90509 0.90764 0.0
H578 H 0.53743 0.89019 0.76092 0.0
C579 C 0.54231 0.96198 0.72801 0.0
C580 C 0.52472 0.95902 0.69606 0.0
C581 C 0.54995 0.9475 0.76667 0.0
C582 C 0.54549 0.89466 0.80241 0.0
H583 H 0.62082 0.85533 0.96826 0.0
H584 H 0.60411 0.88122 0.91054 0.0
H585 H 0.55185 0.86515 0.82748 0.0
H586 H 0.50086 0.93912 0.68053 0.0
H587 H 0.5137 0.91396 0.74996 0.0
H588 H 0.56111 0.93449 0.88466 0.0
C589 C 0.59555 0.87013 0.93383 0.0
C590 C 0.55384 0.88029 0.84019 0.0
C591 C 0.60506 0.85533 0.96659 0.0
C592 C 0.51467 0.9415 0.7038 0.0
C593 C 0.52209 0.92711 0.74357 0.0
C594 C 0.55914 0.91947 0.87079 0.0
C595 C 0.57517 0.8703 0.92968 0.0
C596 C 0.56528 0.88543 0.89245 0.0
C597 C 0.5399 0.92988 0.77541 0.0
C598 C 0.54813 0.91448 0.81695 0.0
H599 H 0.56524 0.83006 0.01675 0.0
H600 H 0.54863 0.85568 0.95725 0.0
H601 H 0.57648 0.90931 0.9482 0.0
H602 H 0.55038 0.97538 0.72208 0.0
H603 H 0.56391 0.95008 0.78888 0.0
C604 C 0.67186 0.56477 0.95609 0.0
C605 C 0.67124 0.58516 0.95555 0.0
C606 C 0.65813 0.55395 0.92223 0.0
C607 C 0.62215 0.53361 0.87205 0.0
H608 H 0.59976 0.55664 0.72204 0.0
C609 C 0.55117 0.50524 0.76015 0.0
C610 C 0.54721 0.50925 0.69649 0.0
C611 C 0.56843 0.51168 0.78806 0.0
C612 C 0.60608 0.54964 0.76289 0.0
H613 H 0.65546 0.61026 0.92155 0.0
H614 H 0.63085 0.59155 0.86579 0.0
H615 H 0.62564 0.57328 0.77663 0.0
H616 H 0.55857 0.5226 0.61163 0.0
H617 H 0.58932 0.53219 0.65803 0.0
H618 H 0.60323 0.50945 0.85612 0.0
C619 C 0.64239 0.58375 0.88958 0.0
C620 C 0.62072 0.55951 0.79535 0.0
C621 C 0.65638 0.59454 0.9221 0.0
C622 C 0.5613 0.51893 0.66038 0.0
C623 C 0.57883 0.52481 0.68763 0.0
C624 C 0.60779 0.52349 0.83862 0.0
C625 C 0.64323 0.5633 0.88822 0.0
C626 C 0.62863 0.55191 0.85131 0.0
C627 C 0.5823 0.52205 0.75257 0.0
C628 C 0.59922 0.53156 0.78429 0.0
H629 H 0.68329 0.55719 0.98121 0.0
H630 H 0.65949 0.53828 0.92176 0.0
H631 H 0.62775 0.52726 0.91506 0.0
H632 H 0.54043 0.49798 0.78925 0.0
H633 H 0.57029 0.50943 0.83827 0.0
C634 C 0.92011 0.66835 0.90096 0.0
C635 C 0.92848 0.67591 0.95636 0.0
C636 C 0.92935 0.65352 0.8673 0.0
C637 C 0.97634 0.62895 0.84107 0.0
H638 H 0.94341 0.58637 0.78634 0.0
C639 C 0.0053 0.55612 0.7351 0.0
C640 C 0.99452 0.54835 0.68481 0.0
C641 C 0.99871 0.57279 0.76671 0.0
C642 C 0.95279 0.59826 0.8005 0.0
H643 H 0.95339 0.67415 0.01909 0.0
H644 H 0.96951 0.64805 0.96017 0.0
H645 H 0.9292 0.61339 0.84442 0.0
H646 H 0.96834 0.55125 0.62877 0.0
H647 H 0.95701 0.58045 0.68268 0.0
H648 H -4e-05 0.61366 0.79664 0.0
C649 C 0.95583 0.65373 0.94277 0.0
C650 C 0.94464 0.61373 0.83388 0.0
C651 C 0.94653 0.66858 0.97666 0.0
C652 C 0.97713 0.55732 0.66649 0.0
C653 C 0.97053 0.57387 0.69795 0.0
C654 C 0.98453 0.61342 0.80729 0.0
C655 C 0.94719 0.64589 0.88818 0.0
C656 C 0.95625 0.62933 0.85407 0.0
C657 C 0.98102 0.58159 0.74919 0.0
C658 C 0.97277 0.598 0.78615 0.0
H659 H 0.90629 0.67377 0.88376 0.0
H660 H 0.92248 0.64797 0.82484 0.0
H661 H 0.98562 0.64084 0.85584 0.0
H662 H 0.01856 0.54908 0.75064 0.0
H663 H 0.00701 0.5783 0.80641 0.0
C664 C 0.06314 0.23095 0.15303 0.0
C665 C 0.0833 0.22991 0.14241 0.0
C666 C 0.05234 0.21405 0.16367 0.0
C667 C 0.05767 0.16434 0.22282 0.0
H668 H 0.00681 0.1562 0.14788 0.0
C669 C 0.01466 0.09438 0.27055 0.0
C670 C 0.99472 0.09649 0.28381 0.0
C671 C 0.02534 0.10983 0.24566 0.0
C672 C 0.02093 0.15833 0.16957 0.0
H673 H 0.1081 0.21053 0.1368 0.0
H674 H 0.08926 0.18097 0.15492 0.0
H675 H 0.02583 0.18487 0.11918 0.0
H676 H 0.9702 0.11626 0.27949 0.0
H677 H 0.9889 0.14338 0.23673 0.0
H678 H 0.05273 0.13818 0.2743 0.0
C679 C 0.08175 0.19481 0.15449 0.0
C680 C 0.03182 0.17474 0.15307 0.0
C681 C 0.09251 0.2117 0.14339 0.0
C682 C 0.98552 0.11416 0.26932 0.0
C683 C 0.99625 0.12969 0.24473 0.0
C684 C 0.04678 0.14802 0.23949 0.0
C685 C 0.06155 0.1958 0.16491 0.0
C686 C 0.05027 0.17798 0.17985 0.0
C687 C 0.01639 0.12783 0.23376 0.0
C688 C 0.02822 0.14483 0.21338 0.0
H689 H 0.05571 0.24484 0.15286 0.0
H690 H 0.03686 0.21532 0.17245 0.0
H691 H 0.07169 0.16657 0.24506 0.0
H692 H 0.02208 0.08082 0.2802 0.0
H693 H 0.04071 0.10771 0.23644 0.0
C694 C 0.27568 0.04842 0.15184 0.0
C695 C 0.28017 0.06428 0.11273 0.0
C696 C 0.29008 0.03992 0.18924 0.0
C697 C 0.33987 0.04573 0.25265 0.0
H698 H 0.34431 0.99056 0.2171 0.0
C699 C 0.41121 0.00423 0.29421 0.0
C700 C 0.41025 0.9851 0.31679 0.0
C701 C 0.39435 0.01397 0.27577 0.0
C702 C 0.34315 0.00586 0.22862 0.0
H703 H 0.30278 0.0848 0.0869 0.0
H704 H 0.32781 0.07002 0.15248 0.0
H705 H 0.31595 0.0084 0.18027 0.0
H706 H 0.39098 0.96107 0.33751 0.0
H707 H 0.36135 0.97815 0.30608 0.0
H708 H 0.36713 0.04325 0.30065 0.0
C709 C 0.31322 0.06409 0.15387 0.0
C710 C 0.32686 0.01609 0.20753 0.0
C711 C 0.29888 0.0725 0.11608 0.0
C712 C 0.39213 0.97574 0.31949 0.0
C713 C 0.37518 0.98555 0.30159 0.0
C714 C 0.35609 0.03547 0.27428 0.0
C715 C 0.30915 0.04724 0.18876 0.0
C716 C 0.32522 0.03618 0.21834 0.0
C717 C 0.37607 0.00486 0.28006 0.0
C718 C 0.35812 0.01547 0.26139 0.0
H719 H 0.26138 0.04181 0.15079 0.0
H720 H 0.2865 0.02712 0.21651 0.0
H721 H 0.33889 0.06118 0.26208 0.0
H722 H 0.42505 0.01171 0.29112 0.0
H723 H 0.39567 0.02863 0.2579 0.0
C724 C 0.41672 0.29504 0.13813 0.0
C725 C 0.42592 0.27742 0.12249 0.0
C726 C 0.42757 0.31079 0.16105 0.0
C727 C 0.47316 0.32211 0.24391 0.0
H728 H 0.4656 0.37429 0.1801 0.0
C729 C 0.52389 0.38495 0.31755 0.0
C730 C 0.51555 0.40337 0.32779 0.0
C731 C 0.513 0.36989 0.29059 0.0
C732 C 0.46773 0.35986 0.1991 0.0
H733 H 0.45371 0.26245 0.11946 0.0
H734 H 0.47253 0.28977 0.16011 0.0
H735 H 0.44621 0.34757 0.1374 0.0
H736 H 0.4892 0.42039 0.31591 0.0
H737 H 0.47005 0.39399 0.27132 0.0
H738 H 0.49435 0.33427 0.30643 0.0
C739 C 0.45695 0.29146 0.15444 0.0
C740 C 0.45664 0.34455 0.17446 0.0
C741 C 0.44615 0.27582 0.13105 0.0
C742 C 0.49606 0.40634 0.30976 0.0
C743 C 0.48512 0.39124 0.28322 0.0
C744 C 0.48412 0.33741 0.26892 0.0
C745 C 0.44779 0.30911 0.16984 0.0
C746 C 0.45931 0.32549 0.19641 0.0
C747 C 0.49342 0.37277 0.27353 0.0
C748 C 0.48164 0.35649 0.24671 0.0
H749 H 0.40109 0.29653 0.13471 0.0
H750 H 0.42006 0.3241 0.17358 0.0
H751 H 0.47534 0.30763 0.2625 0.0
H752 H 0.53878 0.38201 0.33133 0.0
H753 H 0.52001 0.35598 0.28297 0.0
C754 C 0.20632 0.42379 0.18051 0.0
C755 C 0.22299 0.43552 0.18531 0.0
C756 C 0.18813 0.43085 0.19974 0.0
C757 C 0.16177 0.47693 0.22764 0.0
H758 H 0.1244 0.44411 0.31368 0.0
C759 C 0.08851 0.50746 0.31632 0.0
C760 C 0.07196 0.49614 0.30344 0.0
C761 C 0.10719 0.4997 0.30853 0.0
C762 C 0.13462 0.45342 0.2893 0.0
H763 H 0.23377 0.46357 0.21638 0.0
H764 H 0.20215 0.47578 0.25063 0.0
H765 H 0.15648 0.4312 0.28654 0.0
H766 H 0.06205 0.46743 0.27591 0.0
H767 H 0.09458 0.45395 0.26141 0.0
H768 H 0.13993 0.49907 0.2296 0.0
C769 C 0.20302 0.46128 0.23077 0.0
C770 C 0.153 0.44601 0.27366 0.0
C771 C 0.22118 0.45422 0.21162 0.0
C772 C 0.07451 0.47662 0.28526 0.0
C773 C 0.09318 0.46884 0.2776 0.0
C774 C 0.14343 0.48432 0.24323 0.0
C775 C 0.18622 0.44977 0.22447 0.0
C776 C 0.16678 0.45766 0.24243 0.0
C777 C 0.10976 0.4804 0.28788 0.0
C778 C 0.12958 0.47266 0.27404 0.0
H779 H 0.20732 0.4091 0.16252 0.0
H780 H 0.1755 0.4216 0.19414 0.0
H781 H 0.17188 0.4862 0.20263 0.0
H782 H 0.08705 0.52256 0.33024 0.0
H783 H 0.11964 0.50891 0.31788 0.0
C784 C 0.91565 0.79264 0.00492 0.0
C785 C 0.92732 0.78083 0.04345 0.0
C786 C 0.92233 0.81077 0.98469 0.0
C787 C 0.96821 0.83783 0.95908 0.0
H788 H 0.93292 0.8807 0.92728 0.0
C789 C 0.99549 0.908 0.84354 0.0
C790 C 0.98512 0.91266 0.78848 0.0
C791 C 0.98768 0.89497 0.88735 0.0
C792 C 0.94295 0.86887 0.93623 0.0
H793 H 0.95557 0.7785 0.08832 0.0
H794 H 0.96672 0.81052 0.05676 0.0
H795 H 0.92095 0.85162 0.98056 0.0
H796 H 0.95793 0.90874 0.73837 0.0
H797 H 0.94415 0.88618 0.81521 0.0
H798 H 0.99012 0.855 0.91415 0.0
C799 C 0.95241 0.8058 0.04177 0.0
C800 C 0.93609 0.85215 0.96638 0.0
C801 C 0.94581 0.78756 0.06131 0.0
C802 C 0.96622 0.90529 0.78042 0.0
C803 C 0.95832 0.89246 0.82454 0.0
C804 C 0.97509 0.8546 0.92963 0.0
C805 C 0.94085 0.81756 0.00253 0.0
C806 C 0.94853 0.83621 0.97686 0.0
C807 C 0.96927 0.88658 0.87719 0.0
C808 C 0.96245 0.87013 0.91663 0.0
H809 H 0.9014 0.78776 0.98979 0.0
H810 H 0.91315 0.81917 0.95343 0.0
H811 H 0.97818 0.8258 0.96525 0.0
H812 H 0.01013 0.91341 0.85062 0.0
H813 H 0.99636 0.89083 0.92784 0.0
C814 C 0.71453 0.94326 0.06357 0.0
C815 C 0.72626 0.95266 0.10839 0.0
C816 C 0.69721 0.95175 0.04318 0.0
C817 C 0.66198 0.99192 0.07744 0.0
H818 H 0.64865 0.98359 0.90128 0.0
C819 C 0.60448 0.03589 0.93257 0.0
C820 C 0.5908 0.02441 0.89985 0.0
C821 C 0.62029 0.02726 0.96333 0.0
C822 C 0.65217 0.98595 0.95063 0.0
H823 H 0.7292 0.97829 0.16726 0.0
H824 H 0.6993 0.9936 0.12996 0.0
H825 H 0.67773 0.96851 0.94427 0.0
H826 H 0.5826 0.99468 0.87723 0.0
H827 H 0.61062 0.97986 0.92834 0.0
H828 H 0.6366 0.01016 0.08206 0.0
C829 C 0.70306 0.97935 0.11191 0.0
C830 C 0.66876 0.97719 0.9756 0.0
C831 C 0.72023 0.97061 0.13332 0.0
C832 C 0.59309 0.00408 0.9002 0.0
C833 C 0.60904 0.99552 0.92992 0.0
C834 C 0.64553 0.00102 0.05194 0.0
C835 C 0.69144 0.97014 0.06584 0.0
C836 C 0.67381 0.97984 0.03956 0.0
C837 C 0.62287 0.00704 0.96116 0.0
C838 C 0.64042 0.99793 0.9885 0.0
H839 H 0.71878 0.92929 0.04411 0.0
H840 H 0.68843 0.94388 0.0092 0.0
H841 H 0.66521 0.99415 0.127 0.0
H842 H 0.60334 0.05158 0.93288 0.0
H843 H 0.63088 0.03642 0.98689 0.0
C844 C 0.58576 0.73546 0.97397 0.0
C845 C 0.58719 0.73847 0.03945 0.0
C846 C 0.57586 0.71926 0.95011 0.0
C847 C 0.53745 0.68475 0.99236 0.0
H848 H 0.55745 0.65448 0.85167 0.0
C849 C 0.49871 0.61535 0.90214 0.0
C850 C 0.49903 0.61164 0.83683 0.0
C851 C 0.50968 0.63056 0.92783 0.0
C852 C 0.55149 0.66293 0.89038 0.0
H853 H 0.58124 0.72601 0.13119 0.0
H854 H 0.56334 0.69802 0.08974 0.0
H855 H 0.57672 0.68118 0.89437 0.0
H856 H 0.51051 0.6213 0.74691 0.0
H857 H 0.52922 0.64815 0.79121 0.0
H858 H 0.51202 0.66688 0.98765 0.0
C859 C 0.56939 0.70843 0.05687 0.0
C860 C 0.5626 0.67819 0.91499 0.0
C861 C 0.57944 0.72452 0.0806 0.0
C862 C 0.51021 0.62368 0.79755 0.0
C863 C 0.52101 0.639 0.82307 0.0
C864 C 0.52623 0.66962 0.96736 0.0
C865 C 0.56725 0.70578 0.99136 0.0
C866 C 0.55569 0.68927 0.96615 0.0
C867 C 0.52107 0.64253 0.88865 0.0
C868 C 0.53307 0.65854 0.91588 0.0
H869 H 0.59176 0.74595 0.94125 0.0
H870 H 0.57442 0.71762 0.89939 0.0
H871 H 0.53164 0.6932 0.03135 0.0
H872 H 0.49038 0.60615 0.93359 0.0
H873 H 0.50957 0.63263 0.97858 0.0
C874 C 0.78714 0.59292 0.99177 0.0
C875 C 0.77148 0.58157 0.01307 0.0
C876 C 0.80459 0.58412 0.9728 0.0
C877 C 0.83233 0.5379 0.98332 0.0
H878 H 0.8572 0.55599 0.82982 0.0
C879 C 0.8888 0.49198 0.84748 0.0
C880 C 0.90504 0.50146 0.82143 0.0
C881 C 0.87361 0.50263 0.87466 0.0
C882 C 0.85061 0.55093 0.87326 0.0
H883 H 0.76143 0.55211 0.02785 0.0
H884 H 0.7918 0.53678 0.99569 0.0
H885 H 0.82879 0.57313 0.87101 0.0
H886 H 0.91816 0.52965 0.80467 0.0
H887 H 0.89152 0.54826 0.85173 0.0
H888 H 0.85394 0.51549 0.9849 0.0
C889 C 0.79091 0.55249 0.99545 0.0
C890 C 0.83432 0.56077 0.89693 0.0
C891 C 0.77351 0.56128 0.01428 0.0
C892 C 0.90573 0.52189 0.82342 0.0
C893 C 0.89049 0.53256 0.85049 0.0
C894 C 0.84858 0.52805 0.95959 0.0
C895 C 0.80665 0.56378 0.97432 0.0
C896 C 0.82482 0.55421 0.95177 0.0
C897 C 0.87424 0.52304 0.87637 0.0
C898 C 0.85775 0.53428 0.90381 0.0
H899 H 0.78593 0.6086 0.99009 0.0
H900 H 0.81647 0.59325 0.95717 0.0
H901 H 0.82559 0.53269 0.02633 0.0
H902 H 0.88762 0.4763 0.8458 0.0
H903 H 0.86114 0.49487 0.89315 0.0
C904 C 0.08869 0.1677 0.90137 0.0
C905 C 0.07716 0.17928 0.94141 0.0
C906 C 0.08047 0.15216 0.86832 0.0
C907 C 0.03897 0.11858 0.86867 0.0
H908 H 0.05119 0.1124 0.69069 0.0
C909 C 0.99857 0.06396 0.70849 0.0
C910 C 0.01015 0.05299 0.66705 0.0
C911 C 0.00663 0.07949 0.74213 0.0
C912 C 0.04781 0.1138 0.74052 0.0
H913 H 0.04807 0.18346 0.97928 0.0
H914 H 0.03373 0.1563 0.92143 0.0
H915 H 0.06579 0.13899 0.7505 0.0
H916 H 0.03864 0.05057 0.6237 0.0
H917 H 0.05288 0.07729 0.68333 0.0
H918 H 0.02111 0.09328 0.85882 0.0
C919 C 0.04912 0.15923 0.91575 0.0
C920 C 0.05616 0.12902 0.77471 0.0
C921 C 0.05731 0.17486 0.94848 0.0
C922 C 0.0296 0.05836 0.6571 0.0
C923 C 0.03766 0.07386 0.69057 0.0
C924 C 0.03068 0.10329 0.83453 0.0
C925 C 0.0606 0.14782 0.87506 0.0
C926 C 0.05181 0.13157 0.83908 0.0
C927 C 0.02631 0.0845 0.73384 0.0
C928 C 0.035 0.10076 0.77008 0.0
H929 H 0.10404 0.17073 0.89509 0.0
H930 H 0.08969 0.14345 0.83779 0.0
H931 H 0.03556 0.12008 0.91845 0.0
H932 H 0.98338 0.06032 0.71553 0.0
H933 H 0.99741 0.08767 0.77419 0.0
C934 C 0.31724 0.0551 0.81052 0.0
C935 C 0.31439 0.07531 0.81272 0.0
C936 C 0.33496 0.04732 0.78981 0.0
C937 C 0.38691 0.06115 0.76554 0.0
H938 H 0.38922 0.01128 0.67999 0.0
C939 C 0.4562 0.02908 0.64606 0.0
C940 C 0.46041 0.00957 0.65981 0.0
C941 C 0.43889 0.0376 0.6673 0.0
C942 C 0.38878 0.02516 0.70432 0.0
H943 H 0.32757 0.10317 0.79201 0.0
H944 H 0.35814 0.08964 0.75332 0.0
H945 H 0.35769 0.0253 0.70685 0.0
H946 H 0.44966 0.98353 0.70495 0.0
H947 H 0.41913 -0.0017 0.74098 0.0
H948 H 0.41814 0.06109 0.76101 0.0
C949 C 0.34698 0.07975 0.76968 0.0
C950 C 0.37071 0.0332 0.71993 0.0
C951 C 0.32935 0.08753 0.79126 0.0
C952 C 0.44688 -0.00132 0.69455 0.0
C953 C 0.42942 0.00709 0.71487 0.0
C954 C 0.40499 0.05321 0.74904 0.0
C955 C 0.3502 0.05954 0.76986 0.0
C956 C 0.36949 0.05127 0.75115 0.0
C957 C 0.42518 0.02658 0.70094 0.0
C958 C 0.40609 0.03508 0.71868 0.0
H959 H 0.30608 0.04527 0.82727 0.0
H960 H 0.33689 0.03172 0.7916 0.0
H961 H 0.38666 0.07489 0.79062 0.0
H962 H 0.466 0.03767 0.61766 0.0
H963 H 0.43589 0.05259 0.65531 0.0
C964 C 0.40392 0.34473 0.89191 0.0
C965 C 0.41583 0.32862 0.90457 0.0
C966 C 0.41083 0.35998 0.85487 0.0
C967 C 0.44968 0.37367 0.74184 0.0
H968 H 0.43979 0.4256 0.80611 0.0
C969 C 0.49277 0.44158 0.66282 0.0
C970 C 0.48214 0.45883 0.6547 0.0
C971 C 0.48373 0.42506 0.68735 0.0
C972 C 0.44246 0.41121 0.78703 0.0
H973 H 0.44413 0.3156 0.88699 0.0
H974 H 0.45628 0.34236 0.8234 0.0
H975 H 0.42534 0.39781 0.85896 0.0
H976 H 0.45346 0.47197 0.66258 0.0
H977 H 0.43785 0.44327 0.70564 0.0
H978 H 0.46718 0.38719 0.67059 0.0
C979 C 0.44152 0.3431 0.84129 0.0
C980 C 0.43414 0.39528 0.81722 0.0
C981 C 0.43459 0.32783 0.87814 0.0
C982 C 0.4622 0.45906 0.66969 0.0
C983 C 0.45322 0.44261 0.69425 0.0
C984 C 0.45806 0.38963 0.71167 0.0
C985 C 0.4298 0.35946 0.82996 0.0
C986 C 0.43776 0.37633 0.79525 0.0
C987 C 0.46393 0.42552 0.7041 0.0
C988 C 0.45461 0.40854 0.73425 0.0
H989 H 0.38933 0.34568 0.91118 0.0
H990 H 0.40136 0.37227 0.84613 0.0
H991 H 0.45254 0.35924 0.72336 0.0
H992 H 0.50813 0.44092 0.65142 0.0
H993 H 0.49237 0.4121 0.69488 0.0
C994 C 0.17033 0.41997 0.89251 0.0
C995 C 0.1864 0.43184 0.90628 0.0
C996 C 0.15493 0.4271 0.85646 0.0
C997 C 0.13937 0.46779 0.75277 0.0
H998 H 0.08839 0.45485 0.81935 0.0
C999 C 0.0675 0.50669 0.68048 0.0
C1000 C 0.05227 0.49406 0.66401 0.0
C1001 C 0.08458 0.49941 0.70756 0.0
C1002 C 0.10253 0.4585 0.80007 0.0
H1003 H 0.19947 0.46009 0.89011 0.0
H1004 H 0.17239 0.47269 0.82865 0.0
H1005 H 0.11726 0.44071 0.86706 0.0
H1006 H 0.04292 0.46389 0.66435 0.0
H1007 H 0.07227 0.45142 0.71259 0.0
H1008 H 0.12437 0.48596 0.68651 0.0
C1009 C 0.17175 0.45781 0.84494 0.0
C1010 C 0.11907 0.4503 0.82701 0.0
C1011 C 0.18724 0.45061 0.88052 0.0
C1012 C 0.05426 0.47411 0.67662 0.0
C1013 C 0.07112 0.4669 0.70421 0.0
C1014 C 0.12275 0.47616 0.72609 0.0
C1015 C 0.15518 0.44631 0.834 0.0
C1016 C 0.13769 0.45474 0.80351 0.0
C1017 C 0.08647 0.47944 0.71971 0.0
C1018 C 0.1042 0.47147 0.74936 0.0
H1019 H 0.16941 0.40534 0.91095 0.0
H1020 H 0.14259 0.4177 0.84747 0.0
H1021 H 0.15349 0.47139 0.73326 0.0
H1022 H 0.0661 0.52217 0.6734 0.0
H1023 H 0.09615 0.5094 0.72008 0.0
C1024 C 0.94068 0.83436 0.32591 0.0
C1025 C 0.95313 0.82158 0.29336 0.0
C1026 C 0.94777 0.85181 0.35061 0.0
C1027 C 0.99317 0.87691 0.39655 0.0
H1028 H 0.96153 0.92331 0.37927 0.0
C1029 C 0.02178 0.95316 0.46081 0.0
C1030 C 0.00937 0.9643 0.4992 0.0
C1031 C 0.01498 0.93622 0.43183 0.0
C1032 C 0.97046 0.91044 0.38462 0.0
H1033 H 0.98287 0.81692 0.26195 0.0
H1034 H 0.99518 0.84747 0.30434 0.0
H1035 H 0.94956 0.89236 0.33814 0.0
H1036 H 0.98042 0.96599 0.53976 0.0
H1037 H 0.96839 0.93683 0.48794 0.0
H1038 H 0.01407 0.89507 0.44298 0.0
C1039 C 0.97998 0.84391 0.3115 0.0
C1040 C 0.9636 0.89271 0.36137 0.0
C1041 C 0.97291 0.82643 0.28699 0.0
C1042 C 0.99009 0.9582 0.5084 0.0
C1043 C 0.98323 0.9414 0.47902 0.0
C1044 C 7e-05 0.89466 0.41953 0.0
C1045 C 0.96746 0.85688 0.3431 0.0
C1046 C 0.97483 0.87573 0.36738 0.0
C1047 C 0.99567 0.93012 0.4411 0.0
C1048 C 0.98873 0.91155 0.41402 0.0
H1049 H 0.92539 0.83099 0.33193 0.0
H1050 H 0.93783 0.86132 0.37572 0.0
H1051 H 0.00206 0.86406 0.40272 0.0
H1052 H 0.03682 0.95742 0.45408 0.0
H1053 H 0.02485 0.92779 0.40264 0.0
C1054 C 0.69693 0.94654 0.44302 0.0
C1055 C 0.708 0.95853 0.40369 0.0
C1056 C 0.67667 0.94785 0.4436 0.0
C1057 C 0.63368 0.97296 0.36927 0.0
H1058 H 0.61331 0.96818 0.53953 0.0
C1059 C 0.56447 0.01122 0.46746 0.0
C1060 C 0.55234 0.00045 0.50763 0.0
C1061 C 0.58155 0.00303 0.44305 0.0
C1062 C 0.61865 0.96926 0.49147 0.0
H1063 H 0.70673 0.9809 0.33214 0.0
H1064 H 0.67132 0.98411 0.33545 0.0
H1065 H 0.64678 0.95948 0.5184 0.0
H1066 H 0.54857 0.9727 0.55405 0.0
H1067 H 0.57845 0.95842 0.51187 0.0
H1068 H 0.60547 0.9841 0.34424 0.0
C1069 C 0.6781 0.97308 0.36436 0.0
C1070 C 0.63792 0.96416 0.47902 0.0
C1071 C 0.69844 0.9713 0.36238 0.0
C1072 C 0.5574 0.98121 0.52218 0.0
C1073 C 0.57457 0.97309 0.49834 0.0
C1074 C 0.61439 0.97842 0.38213 0.0
C1075 C 0.66697 0.96186 0.40682 0.0
C1076 C 0.64584 0.96601 0.41784 0.0
C1077 C 0.58704 0.98406 0.4597 0.0
C1078 C 0.60675 0.97672 0.44352 0.0
H1079 H 0.70403 0.93656 0.47514 0.0
H1080 H 0.66869 0.93839 0.4751 0.0
H1081 H 0.63907 0.97438 0.32143 0.0
H1082 H 0.56096 0.02617 0.45624 0.0
H1083 H 0.591 0.01191 0.41405 0.0
C1084 C 0.54382 0.69142 0.24923 0.0
C1085 C 0.54596 0.70775 0.2887 0.0
C1086 C 0.5424 0.67283 0.27495 0.0
C1087 C 0.55369 0.64575 0.42163 0.0
H1088 H 0.52171 0.60591 0.3438 0.0
C1089 C 0.53205 0.57367 0.54077 0.0
C1090 C 0.53254 0.55674 0.50363 0.0
C1091 C 0.53604 0.59171 0.51395 0.0
C1092 C 0.53092 0.61684 0.36545 0.0
H1093 H 0.54731 0.71751 0.38613 0.0
H1094 H 0.54407 0.68514 0.43123 0.0
H1095 H 0.52208 0.63852 0.29943 0.0
H1096 H 0.53784 0.5452 0.40992 0.0
H1097 H 0.54476 0.57687 0.36252 0.0
H1098 H 0.56192 0.62408 0.48901 0.0
C1099 C 0.54415 0.68661 0.38029 0.0
C1100 C 0.53113 0.63554 0.34012 0.0
C1101 C 0.54581 0.70519 0.3545 0.0
C1102 C 0.53776 0.55799 0.4397 0.0
C1103 C 0.54147 0.57611 0.41253 0.0
C1104 C 0.55328 0.62711 0.44739 0.0
C1105 C 0.54285 0.67015 0.3408 0.0
C1106 C 0.54248 0.65026 0.36799 0.0
C1107 C 0.54026 0.59315 0.44923 0.0
C1108 C 0.54186 0.6125 0.41958 0.0
H1109 H 0.54399 0.69288 0.19827 0.0
H1110 H 0.54164 0.66053 0.24299 0.0
H1111 H 0.56294 0.65658 0.44355 0.0
H1112 H 0.52801 0.57302 0.59025 0.0
H1113 H 0.53487 0.60462 0.54318 0.0
C1114 C 0.81153 0.53999 0.26008 0.0
C1115 C 0.80806 0.55862 0.2356 0.0
C1116 C 0.82875 0.53603 0.29268 0.0
C1117 C 0.8695 0.55967 0.37704 0.0
H1118 H 0.89706 0.51198 0.33714 0.0
C1119 C 0.94888 0.54533 0.45483 0.0
C1120 C 0.95319 0.5266 0.47684 0.0
C1121 C 0.93076 0.54933 0.42773 0.0
C1122 C 0.88943 0.52525 0.34936 0.0
H1123 H 0.8198 0.58776 0.22682 0.0
H1124 H 0.84984 0.58079 0.28315 0.0
H1125 H 0.86587 0.51862 0.28691 0.0
H1126 H 0.94174 0.49739 0.48834 0.0
H1127 H 0.91029 0.50439 0.44135 0.0
H1128 H 0.89318 0.56635 0.43917 0.0
C1129 C 0.83919 0.5693 0.27778 0.0
C1130 C 0.87155 0.52904 0.32066 0.0
C1131 C 0.82202 0.57325 0.2451 0.0
C1132 C 0.939 0.51197 0.47138 0.0
C1133 C 0.92095 0.51595 0.44428 0.0
C1134 C 0.8874 0.55589 0.40575 0.0
C1135 C 0.84281 0.55063 0.30158 0.0
C1136 C 0.86143 0.54632 0.33398 0.0
C1137 C 0.91665 0.53464 0.42196 0.0
C1138 C 0.89758 0.53866 0.39204 0.0
H1139 H 0.80102 0.52842 0.2537 0.0
H1140 H 0.83104 0.52155 0.31113 0.0
H1141 H 0.86191 0.573 0.38888 0.0
H1142 H 0.95948 0.55687 0.45778 0.0
H1143 H 0.92794 0.56383 0.41025 0.0
loop_
_geom_bond_atom_site_label_1
_geom_bond_atom_site_label_2
_geom_bond_distance
_geom_bond_site_symmetry_2
_ccdc_geom_bond_type
O0 Cd1 2.300 . S
O0 C7 1.275 . S
Cd1 O0 2.300 . S
Cd1 O9 2.381 . S
Cd1 O10 2.378 . S
O2 Cd3 2.385 . S
O2 C7 1.255 . S
Cd3 O2 2.385 . S
Cd3 O4 2.317 . S
O4 Cd3 2.317 . S
O4 C5 1.232 . S
C5 O4 1.232 . S
C5 O6 1.218 . S
O6 C5 1.218 . S
C7 O0 1.275 . S
C7 O2 1.255 . S
C8 O9 1.258 . S
C8 O10 1.256 . S
O9 Cd1 2.381 . S
O9 C8 1.258 . S
O10 Cd1 2.378 . S
O10 C8 1.256 . S
O11 Cd12 2.300 . S
O11 C18 1.275 . S
Cd12 O11 2.300 . S
Cd12 O20 2.381 . S
Cd12 O21 2.378 . S
O13 Cd14 2.385 . S
O13 C18 1.255 . S
Cd14 O13 2.385 . S
Cd14 O15 2.317 . S
O15 Cd14 2.317 . S
O15 C16 1.232 . S
C16 O15 1.232 . S
C16 O17 1.218 . S
O17 C16 1.218 . S
C18 O11 1.275 . S
C18 O13 1.255 . S
C19 O20 1.258 . S
C19 O21 1.256 . S
O20 Cd12 2.381 . S
O20 C19 1.258 . S
O21 Cd12 2.378 . S
O21 C19 1.256 . S
O22 Cd23 2.300 . S
O22 C29 1.275 . S
Cd23 O22 2.300 . S
Cd23 O31 2.381 . S
Cd23 O32 2.378 . S
O24 Cd25 2.385 . S
O24 C29 1.255 . S
Cd25 O24 2.385 . S
Cd25 O26 2.317 . S
O26 Cd25 2.317 . S
O26 C27 1.232 . S
C27 O26 1.232 . S
C27 O28 1.218 . S
O28 C27 1.218 . S
C29 O22 1.275 . S
C29 O24 1.255 . S
C30 O31 1.258 . S
C30 O32 1.256 . S
O31 Cd23 2.381 . S
O31 C30 1.258 . S
O32 Cd23 2.378 . S
O32 C30 1.256 . S
O33 Cd34 2.300 . S
O33 C40 1.275 . S
Cd34 O33 2.300 . S
Cd34 O42 2.381 . S
Cd34 O43 2.378 . S
O35 Cd36 2.385 . S
O35 C40 1.255 . S
Cd36 O35 2.385 . S
Cd36 O37 2.317 . S
O37 Cd36 2.317 . S
O37 C38 1.232 . S
C38 O37 1.232 . S
C38 O39 1.218 . S
O39 C38 1.218 . S
C40 O33 1.275 . S
C40 O35 1.255 . S
C41 O42 1.258 . S
C41 O43 1.256 . S
O42 Cd34 2.381 . S
O42 C41 1.258 . S
O43 Cd34 2.378 . S
O43 C41 1.256 . S
O44 Cd45 2.300 . S
O44 C51 1.275 . S
Cd45 O44 2.300 . S
Cd45 O53 2.381 . S
Cd45 O54 2.378 . S
O46 Cd47 2.385 1_554 S
O46 C51 1.255 . S
Cd47 O46 2.385 1_556 S
Cd47 O48 2.317 . S
O48 Cd47 2.317 . S
O48 C49 1.232 . S
C49 O48 1.232 . S
C49 O50 1.218 . S
O50 C49 1.218 . S
C51 O44 1.275 . S
C51 O46 1.255 . S
C52 O53 1.258 . S
C52 O54 1.256 . S
O53 Cd45 2.381 . S
O53 C52 1.258 . S
O54 Cd45 2.378 . S
O54 C52 1.256 . S
O55 Cd56 2.300 . S
O55 C62 1.275 . S
Cd56 O55 2.300 . S
Cd56 O64 2.381 . S
Cd56 O65 2.378 . S
O57 Cd58 2.385 1_554 S
O57 C62 1.255 . S
Cd58 O57 2.385 1_556 S
Cd58 O59 2.317 . S
O59 Cd58 2.317 . S
O59 C60 1.232 . S
C60 O59 1.232 . S
C60 O61 1.218 . S
O61 C60 1.218 . S
C62 O55 1.275 . S
C62 O57 1.255 . S
C63 O64 1.258 . S
C63 O65 1.256 . S
O64 Cd56 2.381 . S
O64 C63 1.258 . S
O65 Cd56 2.378 . S
O65 C63 1.256 . S
O66 Cd67 2.300 . S
O66 C73 1.275 . S
Cd67 O66 2.300 . S
Cd67 O75 2.381 . S
Cd67 O76 2.378 . S
O68 Cd69 2.385 1_554 S
O68 C73 1.255 . S
Cd69 O68 2.385 1_556 S
Cd69 O70 2.317 . S
O70 Cd69 2.317 . S
O70 C71 1.232 . S
C71 O70 1.232 . S
C71 O72 1.218 . S
O72 C71 1.218 . S
C73 O66 1.275 . S
C73 O68 1.255 . S
C74 O75 1.258 . S
C74 O76 1.256 . S
O75 Cd67 2.381 . S
O75 C74 1.258 . S
O76 Cd67 2.378 . S
O76 C74 1.256 . S
O77 Cd78 2.300 . S
O77 C84 1.275 . S
Cd78 O77 2.300 . S
Cd78 O86 2.381 . S
Cd78 O87 2.378 . S
O79 Cd80 2.385 1_554 S
O79 C84 1.255 . S
Cd80 O79 2.385 1_556 S
Cd80 O81 2.317 . S
O81 Cd80 2.317 . S
O81 C82 1.232 . S
C82 O81 1.232 . S
C82 O83 1.218 . S
O83 C82 1.218 . S
C84 O77 1.275 . S
C84 O79 1.255 . S
C85 O86 1.258 . S
C85 O87 1.256 . S
O86 Cd78 2.381 . S
O86 C85 1.258 . S
O87 Cd78 2.378 . S
O87 C85 1.256 . S
Tb88 N119 2.660 1_565 S
Tb88 N126 2.607 . S
Tb88 O132 2.546 . S
Tb88 O133 2.610 1_455 S
Tb88 O135 2.332 1_455 S
Tb88 O136 2.552 . S
Tb88 O137 2.413 . S
Tb88 O139 2.362 1_565 S
Tb88 O140 2.421 . S
Tb88 C152 2.833 . S
C89 C92 1.432 . S
C89 C93 1.414 . S
C89 N96 1.359 . S
C90 C92 1.417 1_565 S
C90 C94 1.432 . S
C90 C102 1.410 . S
C91 C93 1.444 1_565 S
C91 C94 1.317 . S
C91 H114 0.929 . S
C92 C89 1.432 . S
C92 C90 1.417 1_545 S
C92 N100 1.360 . S
C93 C89 1.414 . S
C93 C91 1.444 1_545 S
C93 C98 1.385 . S
C94 C90 1.432 . S
C94 C91 1.317 . S
C94 H106 0.930 . S
C95 C97 1.392 . S
C95 C98 1.370 . S
C95 H107 0.931 . S
N96 C89 1.359 . S
N96 C97 1.327 . S
N96 Tb99 2.600 . S
C97 C95 1.392 . S
C97 N96 1.327 . S
C97 H104 0.930 . S
C98 C93 1.385 . S
C98 C95 1.370 . S
C98 H117 0.930 . S
Tb99 N96 2.600 . S
Tb99 N100 2.660 . S
Tb99 O133 2.362 1_545 S
Tb99 O134 2.421 . S
Tb99 O138 2.546 . S
Tb99 O139 2.610 1_655 S
Tb99 O141 2.320 1_655 S
Tb99 O142 2.552 1_655 S
Tb99 O143 2.417 . S
Tb99 C163 2.833 . S
N100 C92 1.360 . S
N100 Tb99 2.660 . S
N100 C101 1.305 1_645 S
C101 N100 1.305 1_465 S
C101 C103 1.407 . S
C101 H108 0.930 . S
C102 C90 1.410 . S
C102 C103 1.345 1_655 S
C102 H110 0.930 . S
C103 C101 1.407 . S
C103 C102 1.345 1_455 S
C103 H105 0.930 . S
H104 C97 0.930 . S
H105 C103 0.930 . S
H106 C94 0.930 . S
H107 C95 0.931 . S
H108 C101 0.930 . S
H109 C123 0.930 1_655 S
H110 C102 0.930 . S
H111 C129 0.930 . S
H112 C120 0.930 1_655 S
H113 C127 0.931 . S
H114 C91 0.929 . S
H115 C121 0.930 . S
H116 C154 0.930 . S
H117 C98 0.930 . S
H118 C153 0.929 . S
N119 Tb88 2.660 1_545 S
N119 C120 1.305 . S
N119 C124 1.360 . S
C120 H112 0.930 1_455 S
C120 N119 1.305 . S
C120 C123 1.407 . S
C121 H115 0.930 . S
C121 C122 1.410 . S
C121 C123 1.345 . S
C122 C121 1.410 . S
C122 C124 1.417 . S
C122 C154 1.432 . S
C123 H109 0.930 1_455 S
C123 C120 1.407 . S
C123 C121 1.345 . S
C124 N119 1.360 . S
C124 C122 1.417 . S
C124 C128 1.432 . S
H125 C130 0.930 . S
N126 Tb88 2.607 . S
N126 C128 1.342 1_565 S
N126 C129 1.342 . S
C127 H113 0.931 . S
C127 C129 1.392 . S
C127 C130 1.370 1_565 S
C128 C124 1.432 . S
C128 N126 1.342 1_545 S
C128 C131 1.414 . S
C129 H111 0.930 . S
C129 N126 1.342 . S
C129 C127 1.392 . S
C130 H125 0.930 . S
C130 C127 1.370 1_545 S
C130 C131 1.385 . S
C131 C128 1.414 . S
C131 C130 1.385 . S
C131 C153 1.444 . S
O132 Tb88 2.546 . S
O132 C152 1.251 . S
O133 Tb88 2.610 1_655 S
O133 Tb99 2.362 1_565 S
O133 C144 1.283 . S
O134 Tb99 2.421 . S
O134 C151 1.262 . S
O135 Tb88 2.332 1_655 S
O135 C151 1.243 1_565 S
O136 Tb88 2.552 . S
O136 C144 1.243 1_455 S
O137 Tb88 2.413 . S
O137 C152 1.256 . S
O138 Tb99 2.546 . S
O138 C163 1.251 . S
O139 Tb88 2.362 1_545 S
O139 Tb99 2.610 1_455 S
O139 C155 1.283 . S
O140 Tb88 2.421 . S
O140 C162 1.262 1_565 S
O141 Tb99 2.320 1_455 S
O141 C162 1.260 . S
O142 Tb99 2.552 1_455 S
O142 C155 1.243 . S
O143 Tb99 2.417 . S
O143 C163 1.267 . S
C144 O133 1.283 . S
C144 O136 1.243 1_655 S
C145 C147 1.382 . S
C145 C149 1.393 . S
C145 C152 1.500 . S
C146 C147 1.400 . S
C146 C148 1.384 . S
C147 C145 1.382 . S
C147 C146 1.400 . S
C147 H164 0.930 1_455 S
C148 C146 1.384 . S
C148 C150 1.392 . S
C148 H165 0.931 . S
C149 C145 1.393 . S
C149 C150 1.401 . S
C149 H166 0.930 . S
C150 C148 1.392 . S
C150 C149 1.401 . S
C150 H167 0.930 . S
C151 O134 1.262 . S
C151 O135 1.243 1_545 S
C152 Tb88 2.833 . S
C152 O132 1.251 . S
C152 O137 1.256 . S
C152 C145 1.500 . S
C153 H118 0.929 . S
C153 C131 1.444 . S
C153 C154 1.317 . S
C154 H116 0.930 . S
C154 C122 1.432 . S
C154 C153 1.317 . S
C155 O139 1.283 . S
C155 O142 1.243 . S
C156 C157 1.331 1_655 S
C156 C160 1.393 . S
C156 C163 1.500 . S
C157 C156 1.331 1_455 S
C157 C158 1.399 . S
C157 H168 0.984 . S
C158 C157 1.399 . S
C158 C159 1.380 1_455 S
C159 C158 1.380 1_655 S
C159 C161 1.392 . S
C159 H169 0.931 . S
C160 C156 1.393 . S
C160 C161 1.401 . S
C160 H170 0.930 . S
C161 C159 1.392 . S
C161 C160 1.401 . S
C161 H171 0.930 . S
C162 O140 1.262 1_545 S
C162 O141 1.260 . S
C163 Tb99 2.833 . S
C163 O138 1.251 . S
C163 O143 1.267 . S
C163 C156 1.500 . S
H164 C147 0.930 1_655 S
H165 C148 0.931 . S
H166 C149 0.930 . S
H167 C150 0.930 . S
H168 C157 0.984 . S
H169 C159 0.931 . S
H170 C160 0.930 . S
H171 C161 0.930 . S
Tb172 N203 2.660 . S
Tb172 N210 2.600 . S
Tb172 O216 2.546 . S
Tb172 O217 2.614 . S
Tb172 O219 2.320 1_545 S
Tb172 O220 2.552 . S
Tb172 O221 2.413 . S
Tb172 O223 2.362 . S
Tb172 O224 2.421 . S
Tb172 C236 2.833 . S
C173 C176 1.432 . S
C173 C177 1.414 . S
C173 N180 1.359 . S
C174 C176 1.417 . S
C174 C178 1.432 . S
C174 C186 1.410 . S
C175 C177 1.444 . S
C175 C178 1.317 . S
C175 H198 0.929 . S
C176 C173 1.432 . S
C176 C174 1.417 . S
C176 N184 1.360 . S
C177 C173 1.414 . S
C177 C175 1.444 . S
C177 C182 1.385 . S
C178 C174 1.432 . S
C178 C175 1.317 . S
C178 H190 0.930 . S
C179 C181 1.392 . S
C179 C182 1.370 . S
C179 H191 0.931 . S
N180 C173 1.359 . S
N180 C181 1.327 . S
N180 Tb183 2.600 . S
C181 C179 1.392 . S
C181 N180 1.327 . S
C181 H188 0.930 . S
C182 C177 1.385 . S
C182 C179 1.370 . S
C182 H201 0.930 . S
Tb183 N180 2.600 . S
Tb183 N184 2.660 . S
Tb183 O217 2.361 1_565 S
Tb183 O218 2.421 . S
Tb183 O222 2.546 . S
Tb183 O223 2.610 1_565 S
Tb183 O225 2.320 1_565 S
Tb183 O226 2.552 1_565 S
Tb183 O227 2.413 1_565 S
Tb183 C247 2.833 . S
N184 C176 1.360 . S
N184 Tb183 2.660 . S
N184 C185 1.305 1_565 S
C185 N184 1.305 1_545 S
C185 C187 1.407 . S
C185 H192 0.930 . S
C186 C174 1.410 . S
C186 C187 1.345 1_565 S
C186 H194 0.930 . S
C187 C185 1.407 . S
C187 C186 1.345 1_545 S
C187 H189 0.930 . S
H188 C181 0.930 . S
H189 C187 0.930 . S
H190 C178 0.930 . S
H191 C179 0.931 . S
H192 C185 0.930 . S
H193 C207 0.930 1_565 S
H194 C186 0.930 . S
H195 C213 0.930 . S
H196 C204 0.930 1_565 S
H197 C211 0.931 . S
H198 C175 0.929 . S
H199 C205 0.930 . S
H200 C238 0.930 . S
H201 C182 0.930 . S
H202 C237 0.929 . S
N203 Tb172 2.660 . S
N203 C204 1.305 . S
N203 C208 1.360 . S
C204 H196 0.930 1_545 S
C204 N203 1.305 . S
C204 C207 1.407 . S
C205 H199 0.930 . S
C205 C206 1.410 . S
C205 C207 1.345 . S
C206 C205 1.410 . S
C206 C208 1.417 . S
C206 C238 1.432 . S
C207 H193 0.930 1_545 S
C207 C204 1.407 . S
C207 C205 1.345 . S
C208 N203 1.360 . S
C208 C206 1.417 . S
C208 C212 1.432 . S
H209 C214 0.930 . S
N210 Tb172 2.600 . S
N210 C212 1.359 . S
N210 C213 1.327 . S
C211 H197 0.931 . S
C211 C213 1.392 . S
C211 C214 1.370 . S
C212 C208 1.432 . S
C212 N210 1.359 . S
C212 C215 1.414 . S
C213 H195 0.930 . S
C213 N210 1.327 . S
C213 C211 1.392 . S
C214 H209 0.930 . S
C214 C211 1.370 . S
C214 C215 1.385 . S
C215 C212 1.414 . S
C215 C214 1.385 . S
C215 C237 1.444 . S
O216 Tb172 2.546 . S
O216 C236 1.251 . S
O217 Tb172 2.614 . S
O217 Tb183 2.361 1_545 S
O217 C228 1.283 . S
O218 Tb183 2.421 . S
O218 C235 1.262 . S
O219 Tb172 2.320 1_565 S
O219 C235 1.260 . S
O220 Tb172 2.552 . S
O220 C228 1.253 . S
O221 Tb172 2.413 . S
O221 C236 1.256 . S
O222 Tb183 2.546 . S
O222 C247 1.251 . S
O223 Tb172 2.362 . S
O223 Tb183 2.610 1_545 S
O223 C239 1.283 . S
O224 Tb172 2.421 . S
O224 C246 1.262 . S
O225 Tb183 2.320 1_545 S
O225 C246 1.260 . S
O226 Tb183 2.552 1_545 S
O226 C239 1.243 . S
O227 Tb183 2.413 1_545 S
O227 C247 1.256 1_545 S
C228 O217 1.283 . S
C228 O220 1.253 . S
C229 C231 1.382 . S
C229 C233 1.393 . S
C229 C236 1.500 . S
C230 C231 1.400 . S
C230 C232 1.384 . S
C231 C229 1.382 . S
C231 C230 1.400 . S
C231 H248 0.930 . S
C232 C230 1.384 . S
C232 C234 1.392 . S
C232 H249 0.931 . S
C233 C229 1.393 . S
C233 C234 1.401 . S
C233 H250 0.930 . S
C234 C232 1.392 . S
C234 C233 1.401 . S
C234 H251 0.930 . S
C235 O218 1.262 . S
C235 O219 1.260 . S
C236 Tb172 2.833 . S
C236 O216 1.251 . S
C236 O221 1.256 . S
C236 C229 1.500 . S
C237 H202 0.929 . S
C237 C215 1.444 . S
C237 C238 1.317 . S
C238 H200 0.930 . S
C238 C206 1.432 . S
C238 C237 1.317 . S
C239 O223 1.283 . S
C239 O226 1.243 . S
C240 C241 1.382 1_565 S
C240 C244 1.393 . S
C240 C247 1.500 . S
C241 C240 1.382 1_545 S
C241 C242 1.400 . S
C241 H252 0.930 . S
C242 C241 1.400 . S
C242 C243 1.384 1_545 S
C243 C242 1.384 1_565 S
C243 C245 1.392 . S
C243 H253 0.931 . S
C244 C240 1.393 . S
C244 C245 1.401 . S
C244 H254 0.930 . S
C245 C243 1.392 . S
C245 C244 1.401 . S
C245 H255 0.930 . S
C246 O224 1.262 . S
C246 O225 1.260 . S
C247 Tb183 2.833 . S
C247 O222 1.251 . S
C247 O227 1.256 1_565 S
C247 C240 1.500 . S
H248 C231 0.930 . S
H249 C232 0.931 . S
H250 C233 0.930 . S
H251 C234 0.930 . S
H252 C241 0.930 . S
H253 C243 0.931 . S
H254 C244 0.930 . S
H255 C245 0.930 . S
Tb256 N287 2.660 . S
Tb256 N294 2.600 . S
Tb256 O300 2.546 . S
Tb256 O301 2.610 . S
Tb256 O303 2.320 . S
Tb256 O304 2.552 . S
Tb256 O305 2.413 . S
Tb256 O307 2.362 . S
Tb256 O308 2.421 . S
Tb256 C320 2.833 . S
C257 C260 1.432 . S
C257 C261 1.414 . S
C257 N264 1.359 . S
C258 C260 1.417 . S
C258 C262 1.432 . S
C258 C270 1.410 . S
C259 C261 1.444 . S
C259 C262 1.317 . S
C259 H282 0.929 . S
C260 C257 1.432 . S
C260 C258 1.417 . S
C260 N268 1.360 . S
C261 C257 1.414 . S
C261 C259 1.444 . S
C261 C266 1.385 . S
C262 C258 1.432 . S
C262 C259 1.317 . S
C262 H274 0.930 . S
C263 C265 1.392 . S
C263 C266 1.370 . S
C263 H275 0.931 . S
N264 C257 1.359 . S
N264 C265 1.327 . S
N264 Tb267 2.600 . S
C265 C263 1.392 . S
C265 N264 1.327 . S
C265 H272 0.930 . S
C266 C261 1.385 . S
C266 C263 1.370 . S
C266 H285 0.930 . S
Tb267 N264 2.600 . S
Tb267 N268 2.660 . S
Tb267 O301 2.362 . S
Tb267 O302 2.421 . S
Tb267 O306 2.546 . S
Tb267 O307 2.610 . S
Tb267 O309 2.320 . S
Tb267 O310 2.552 . S
Tb267 O311 2.413 . S
Tb267 C331 2.833 . S
N268 C260 1.360 . S
N268 Tb267 2.660 . S
N268 C269 1.305 . S
C269 N268 1.305 . S
C269 C271 1.407 . S
C269 H276 0.930 . S
C270 C258 1.410 . S
C270 C271 1.345 . S
C270 H278 0.930 . S
C271 C269 1.407 . S
C271 C270 1.345 . S
C271 H273 0.930 . S
H272 C265 0.930 . S
H273 C271 0.930 . S
H274 C262 0.930 . S
H275 C263 0.931 . S
H276 C269 0.930 . S
H277 C291 0.930 . S
H278 C270 0.930 . S
H279 C297 0.930 . S
H280 C288 0.930 . S
H281 C295 0.931 . S
H282 C259 0.929 . S
H283 C289 0.930 . S
H284 C322 0.930 . S
H285 C266 0.930 . S
H286 C321 0.929 . S
N287 Tb256 2.660 . S
N287 C288 1.305 . S
N287 C292 1.360 . S
C288 H280 0.930 . S
C288 N287 1.305 . S
C288 C291 1.407 . S
C289 H283 0.930 . S
C289 C290 1.410 . S
C289 C291 1.345 . S
C290 C289 1.410 . S
C290 C292 1.417 . S
C290 C322 1.432 . S
C291 H277 0.930 . S
C291 C288 1.407 . S
C291 C289 1.345 . S
C292 N287 1.360 . S
C292 C290 1.417 . S
C292 C296 1.432 . S
H293 C298 0.930 . S
N294 Tb256 2.600 . S
N294 C296 1.359 . S
N294 C297 1.327 . S
C295 H281 0.931 . S
C295 C297 1.392 . S
C295 C298 1.370 . S
C296 C292 1.432 . S
C296 N294 1.359 . S
C296 C299 1.414 . S
C297 H279 0.930 . S
C297 N294 1.327 . S
C297 C295 1.392 . S
C298 H293 0.930 . S
C298 C295 1.370 . S
C298 C299 1.385 . S
C299 C296 1.414 . S
C299 C298 1.385 . S
C299 C321 1.444 . S
O300 Tb256 2.546 . S
O300 C320 1.251 . S
O301 Tb256 2.610 . S
O301 Tb267 2.362 . S
O301 C312 1.283 . S
O302 Tb267 2.421 . S
O302 C319 1.262 . S
O303 Tb256 2.320 . S
O303 C319 1.260 . S
O304 Tb256 2.552 . S
O304 C312 1.243 . S
O305 Tb256 2.413 . S
O305 C320 1.256 . S
O306 Tb267 2.546 . S
O306 C331 1.251 . S
O307 Tb256 2.362 . S
O307 Tb267 2.610 . S
O307 C323 1.283 . S
O308 Tb256 2.421 . S
O308 C330 1.262 . S
O309 Tb267 2.320 . S
O309 C330 1.260 . S
O310 Tb267 2.552 . S
O310 C323 1.243 . S
O311 Tb267 2.413 . S
O311 C331 1.256 . S
C312 O301 1.283 . S
C312 O304 1.243 . S
C313 C315 1.382 . S
C313 C317 1.393 . S
C313 C320 1.500 . S
C314 C315 1.400 . S
C314 C316 1.384 . S
C315 C313 1.382 . S
C315 C314 1.400 . S
C315 H332 0.930 . S
C316 C314 1.384 . S
C316 C318 1.392 . S
C316 H333 0.931 . S
C317 C313 1.393 . S
C317 C318 1.401 . S
C317 H334 0.930 . S
C318 C316 1.392 . S
C318 C317 1.401 . S
C318 H335 0.930 . S
C319 O302 1.262 . S
C319 O303 1.260 . S
C320 Tb256 2.833 . S
C320 O300 1.251 . S
C320 O305 1.256 . S
C320 C313 1.500 . S
C321 H286 0.929 . S
C321 C299 1.444 . S
C321 C322 1.317 . S
C322 H284 0.930 . S
C322 C290 1.432 . S
C322 C321 1.317 . S
C323 O307 1.283 . S
C323 O310 1.243 . S
C324 C325 1.382 . S
C324 C328 1.393 . S
C324 C331 1.500 . S
C325 C324 1.382 . S
C325 C326 1.400 . S
C325 H336 0.930 . S
C326 C325 1.400 . S
C326 C327 1.384 . S
C327 C326 1.384 . S
C327 C329 1.392 . S
C327 H337 0.931 . S
C328 C324 1.393 . S
C328 C329 1.401 . S
C328 H338 0.930 . S
C329 C327 1.392 . S
C329 C328 1.401 . S
C329 H339 0.930 . S
C330 O308 1.262 . S
C330 O309 1.260 . S
C331 Tb267 2.833 . S
C331 O306 1.251 . S
C331 O311 1.256 . S
C331 C324 1.500 . S
H332 C315 0.930 . S
H333 C316 0.931 . S
H334 C317 0.930 . S
H335 C318 0.930 . S
H336 C325 0.930 . S
H337 C327 0.931 . S
H338 C328 0.930 . S
H339 C329 0.930 . S
Tb340 N371 2.660 . S
Tb340 N378 2.600 . S
Tb340 O384 2.546 . S
Tb340 O385 2.610 . S
Tb340 O387 2.320 . S
Tb340 O388 2.552 . S
Tb340 O389 2.413 . S
Tb340 O391 2.362 . S
Tb340 O392 2.421 1_455 S
Tb340 C404 2.833 . S
C341 C344 1.432 . S
C341 C345 1.414 . S
C341 N348 1.359 . S
C342 C344 1.417 . S
C342 C346 1.432 . S
C342 C354 1.410 . S
C343 C345 1.444 . S
C343 C346 1.317 . S
C343 H366 0.929 . S
C344 C341 1.432 . S
C344 C342 1.417 . S
C344 N352 1.360 . S
C345 C341 1.414 . S
C345 C343 1.444 . S
C345 C350 1.385 . S
C346 C342 1.432 . S
C346 C343 1.317 . S
C346 H358 0.930 . S
C347 C349 1.392 . S
C347 C350 1.370 1_455 S
C347 H359 0.931 . S
N348 C341 1.359 . S
N348 C349 1.327 1_655 S
N348 Tb351 2.600 . S
C349 C347 1.392 . S
C349 N348 1.327 1_455 S
C349 H356 0.930 . S
C350 C345 1.385 . S
C350 C347 1.370 1_655 S
C350 H369 0.933 . S
Tb351 N348 2.600 . S
Tb351 N352 2.660 . S
Tb351 O385 2.362 1_655 S
Tb351 O386 2.421 1_655 S
Tb351 O390 2.546 . S
Tb351 O391 2.610 1_655 S
Tb351 O393 2.320 . S
Tb351 O394 2.552 . S
Tb351 O395 2.413 . S
Tb351 C415 2.833 . S
N352 C344 1.360 . S
N352 Tb351 2.660 . S
N352 C353 1.305 . S
C353 N352 1.305 . S
C353 C355 1.407 . S
C353 H360 0.930 . S
C354 C342 1.410 . S
C354 C355 1.345 . S
C354 H362 0.930 . S
C355 C353 1.407 . S
C355 C354 1.345 . S
C355 H357 0.930 . S
H356 C349 0.930 . S
H357 C355 0.930 . S
H358 C346 0.930 . S
H359 C347 0.931 . S
H360 C353 0.930 . S
H361 C375 0.930 . S
H362 C354 0.930 . S
H363 C381 0.930 1_655 S
H364 C372 0.930 . S
H365 C379 0.931 1_655 S
H366 C343 0.929 . S
H367 C373 0.930 . S
H368 C406 0.930 . S
H369 C350 0.933 . S
H370 C405 0.929 . S
N371 Tb340 2.660 . S
N371 C372 1.305 . S
N371 C376 1.360 . S
C372 H364 0.930 . S
C372 N371 1.305 . S
C372 C375 1.407 . S
C373 H367 0.930 . S
C373 C374 1.410 . S
C373 C375 1.345 . S
C374 C373 1.410 . S
C374 C376 1.417 . S
C374 C406 1.432 . S
C375 H361 0.930 . S
C375 C372 1.407 . S
C375 C373 1.345 . S
C376 N371 1.360 . S
C376 C374 1.417 . S
C376 C380 1.432 . S
H377 C382 0.930 . S
N378 Tb340 2.600 . S
N378 C380 1.359 . S
N378 C381 1.327 . S
C379 H365 0.931 1_455 S
C379 C381 1.392 . S
C379 C382 1.370 . S
C380 C376 1.432 . S
C380 N378 1.359 . S
C380 C383 1.414 . S
C381 H363 0.930 1_455 S
C381 N378 1.327 . S
C381 C379 1.392 . S
C382 H377 0.930 . S
C382 C379 1.370 . S
C382 C383 1.385 . S
C383 C380 1.414 . S
C383 C382 1.385 . S
C383 C405 1.444 . S
O384 Tb340 2.546 . S
O384 C404 1.251 . S
O385 Tb340 2.610 . S
O385 Tb351 2.362 1_455 S
O385 C396 1.283 . S
O386 Tb351 2.421 1_455 S
O386 C403 1.262 . S
O387 Tb340 2.320 . S
O387 C403 1.260 . S
O388 Tb340 2.552 . S
O388 C396 1.243 . S
O389 Tb340 2.413 . S
O389 C404 1.256 . S
O390 Tb351 2.546 . S
O390 C415 1.251 . S
O391 Tb340 2.362 . S
O391 Tb351 2.610 1_455 S
O391 C407 1.283 1_455 S
O392 Tb340 2.421 1_655 S
O392 C414 1.262 . S
O393 Tb351 2.320 . S
O393 C414 1.260 . S
O394 Tb351 2.552 . S
O394 C407 1.243 . S
O395 Tb351 2.413 . S
O395 C415 1.256 . S
C396 O385 1.283 . S
C396 O388 1.243 . S
C397 C399 1.382 . S
C397 C401 1.393 . S
C397 C404 1.500 . S
C398 C399 1.400 . S
C398 C400 1.384 . S
C399 C397 1.382 . S
C399 C398 1.400 . S
C399 H416 0.930 . S
C400 C398 1.384 . S
C400 C402 1.392 . S
C400 H417 0.931 . S
C401 C397 1.393 . S
C401 C402 1.401 . S
C401 H418 0.930 . S
C402 C400 1.392 . S
C402 C401 1.401 . S
C402 H419 0.930 . S
C403 O386 1.262 . S
C403 O387 1.260 . S
C404 Tb340 2.833 . S
C404 O384 1.251 . S
C404 O389 1.256 . S
C404 C397 1.500 . S
C405 H370 0.929 . S
C405 C383 1.444 . S
C405 C406 1.317 . S
C406 H368 0.930 . S
C406 C374 1.432 . S
C406 C405 1.317 . S
C407 O391 1.283 1_655 S
C407 O394 1.243 . S
C408 C409 1.382 . S
C408 C412 1.393 . S
C408 C415 1.500 . S
C409 C408 1.382 . S
C409 C410 1.400 . S
C409 H420 0.930 . S
C410 C409 1.400 . S
C410 C411 1.384 . S
C411 C410 1.384 . S
C411 C413 1.392 . S
C411 H421 0.931 . S
C412 C408 1.393 . S
C412 C413 1.401 . S
C412 H422 0.930 . S
C413 C411 1.392 . S
C413 C412 1.401 . S
C413 H423 0.930 . S
C414 O392 1.262 . S
C414 O393 1.260 . S
C415 Tb351 2.833 . S
C415 O390 1.251 . S
C415 O395 1.256 . S
C415 C408 1.500 . S
H416 C399 0.930 . S
H417 C400 0.931 . S
H418 C401 0.930 . S
H419 C402 0.930 . S
H420 C409 0.930 . S
H421 C411 0.931 . S
H422 C412 0.930 . S
H423 C413 0.930 . S
C424 C425 1.349 . S
C424 C426 1.327 . S
C424 H449 0.950 . S
C425 C424 1.349 . S
C425 C441 1.349 . S
C426 C424 1.327 . S
C426 C445 1.429 . S
C426 H450 0.950 . S
C427 C444 1.574 . S
C427 C446 1.368 . S
C427 H451 0.949 . S
H428 C432 0.949 . S
C429 C430 1.349 . S
C429 C431 1.327 . S
C429 H452 0.950 . S
C430 C429 1.349 . S
C430 C442 1.349 . S
C431 C429 1.327 . S
C431 C447 1.429 . S
C431 H453 0.950 . S
C432 H428 0.949 . S
C432 C440 1.574 . S
C432 C448 1.368 . S
H433 C441 0.950 . S
H434 C439 0.950 . S
H435 C440 0.949 . S
H436 C442 0.950 . S
H437 C443 0.950 . S
H438 C444 0.949 . S
C439 H434 0.950 . S
C439 C441 1.327 . S
C439 C445 1.429 . S
C440 C432 1.574 . S
C440 H435 0.949 . S
C440 C446 1.368 . S
C441 C425 1.349 . S
C441 H433 0.950 . S
C441 C439 1.327 . S
C442 C430 1.349 . S
C442 H436 0.950 . S
C442 C443 1.327 . S
C443 H437 0.950 . S
C443 C442 1.327 . S
C443 C447 1.429 . S
C444 C427 1.574 . S
C444 H438 0.949 . S
C444 C448 1.368 . S
C445 C426 1.429 . S
C445 C439 1.429 . S
C445 C446 1.523 . S
C446 C427 1.368 . S
C446 C440 1.368 . S
C446 C445 1.523 . S
C447 C431 1.429 . S
C447 C443 1.429 . S
C447 C448 1.523 . S
C448 C432 1.368 . S
C448 C444 1.368 . S
C448 C447 1.523 . S
H449 C424 0.950 . S
H450 C426 0.950 . S
H451 C427 0.949 . S
H452 C429 0.950 . S
H453 C431 0.950 . S
C454 C455 1.349 . S
C454 C456 1.327 . S
C454 H479 0.950 . S
C455 C454 1.349 . S
C455 C471 1.349 . S
C456 C454 1.327 . S
C456 C475 1.429 . S
C456 H480 0.950 . S
C457 C474 1.574 . S
C457 C476 1.368 . S
C457 H481 0.949 . S
H458 C462 0.949 . S
C459 C460 1.349 . S
C459 C461 1.327 . S
C459 H482 0.950 . S
C460 C459 1.349 . S
C460 C472 1.349 . S
C461 C459 1.327 . S
C461 C477 1.429 . S
C461 H483 0.950 . S
C462 H458 0.949 . S
C462 C470 1.574 . S
C462 C478 1.368 . S
H463 C471 0.950 . S
H464 C469 0.950 . S
H465 C470 0.949 . S
H466 C472 0.950 . S
H467 C473 0.950 . S
H468 C474 0.949 . S
C469 H464 0.950 . S
C469 C471 1.327 . S
C469 C475 1.429 . S
C470 C462 1.574 . S
C470 H465 0.949 . S
C470 C476 1.368 . S
C471 C455 1.349 . S
C471 H463 0.950 . S
C471 C469 1.327 . S
C472 C460 1.349 . S
C472 H466 0.950 . S
C472 C473 1.327 . S
C473 H467 0.950 . S
C473 C472 1.327 . S
C473 C477 1.429 . S
C474 C457 1.574 . S
C474 H468 0.949 . S
C474 C478 1.368 . S
C475 C456 1.429 . S
C475 C469 1.429 . S
C475 C476 1.523 . S
C476 C457 1.368 . S
C476 C470 1.368 . S
C476 C475 1.523 . S
C477 C461 1.429 . S
C477 C473 1.429 . S
C477 C478 1.523 . S
C478 C462 1.368 . S
C478 C474 1.368 . S
C478 C477 1.523 . S
H479 C454 0.950 . S
H480 C456 0.950 . S
H481 C457 0.949 . S
H482 C459 0.950 . S
H483 C461 0.950 . S
C484 C485 1.349 . S
C484 C486 1.327 . S
C484 H509 0.950 . S
C485 C484 1.349 . S
C485 C501 1.349 . S
C486 C484 1.327 . S
C486 C505 1.429 . S
C486 H510 0.950 . S
C487 C504 1.574 . S
C487 C506 1.368 . S
C487 H511 0.949 . S
H488 C492 0.949 . S
C489 C490 1.349 . S
C489 C491 1.327 . S
C489 H512 0.950 . S
C490 C489 1.349 . S
C490 C502 1.349 . S
C491 C489 1.327 . S
C491 C507 1.429 . S
C491 H513 0.950 . S
C492 H488 0.949 . S
C492 C500 1.574 . S
C492 C508 1.368 . S
H493 C501 0.950 . S
H494 C499 0.950 . S
H495 C500 0.949 . S
H496 C502 0.950 . S
H497 C503 0.950 . S
H498 C504 0.949 . S
C499 H494 0.950 . S
C499 C501 1.327 . S
C499 C505 1.429 . S
C500 C492 1.574 . S
C500 H495 0.949 . S
C500 C506 1.368 . S
C501 C485 1.349 . S
C501 H493 0.950 . S
C501 C499 1.327 . S
C502 C490 1.349 . S
C502 H496 0.950 . S
C502 C503 1.327 . S
C503 H497 0.950 . S
C503 C502 1.327 . S
C503 C507 1.429 . S
C504 C487 1.574 . S
C504 H498 0.949 . S
C504 C508 1.368 . S
C505 C486 1.429 . S
C505 C499 1.429 . S
C505 C506 1.523 . S
C506 C487 1.368 . S
C506 C500 1.368 . S
C506 C505 1.523 . S
C507 C491 1.429 . S
C507 C503 1.429 . S
C507 C508 1.523 . S
C508 C492 1.368 . S
C508 C504 1.368 . S
C508 C507 1.523 . S
H509 C484 0.950 . S
H510 C486 0.950 . S
H511 C487 0.949 . S
H512 C489 0.950 . S
H513 C491 0.950 . S
C514 C515 1.349 . S
C514 C516 1.327 . S
C514 H539 0.950 . S
C515 C514 1.349 . S
C515 C531 1.349 . S
C516 C514 1.327 . S
C516 C535 1.429 . S
C516 H540 0.950 . S
C517 C534 1.574 . S
C517 C536 1.368 . S
C517 H541 0.949 . S
H518 C522 0.949 . S
C519 C520 1.349 . S
C519 C521 1.327 . S
C519 H542 0.950 . S
C520 C519 1.349 . S
C520 C532 1.349 . S
C521 C519 1.327 . S
C521 C537 1.429 . S
C521 H543 0.950 . S
C522 H518 0.949 . S
C522 C530 1.574 . S
C522 C538 1.368 . S
H523 C531 0.950 . S
H524 C529 0.950 . S
H525 C530 0.949 . S
H526 C532 0.950 . S
H527 C533 0.950 . S
H528 C534 0.949 . S
C529 H524 0.950 . S
C529 C531 1.327 . S
C529 C535 1.429 . S
C530 C522 1.574 . S
C530 H525 0.949 . S
C530 C536 1.368 . S
C531 C515 1.349 . S
C531 H523 0.950 . S
C531 C529 1.327 . S
C532 C520 1.349 . S
C532 H526 0.950 . S
C532 C533 1.327 . S
C533 H527 0.950 . S
C533 C532 1.327 . S
C533 C537 1.429 . S
C534 C517 1.574 . S
C534 H528 0.949 . S
C534 C538 1.368 . S
C535 C516 1.429 . S
C535 C529 1.429 . S
C535 C536 1.523 . S
C536 C517 1.368 . S
C536 C530 1.368 . S
C536 C535 1.523 . S
C537 C521 1.429 . S
C537 C533 1.429 . S
C537 C538 1.523 . S
C538 C522 1.368 . S
C538 C534 1.368 . S
C538 C537 1.523 . S
H539 C514 0.950 . S
H540 C516 0.950 . S
H541 C517 0.949 . S
H542 C519 0.950 . S
H543 C521 0.950 . S
C544 C545 1.349 1_556 S
C544 C546 1.327 . S
C544 H569 0.950 . S
C545 C544 1.349 1_554 S
C545 C561 1.349 . S
C546 C544 1.327 . S
C546 C565 1.429 . S
C546 H570 0.950 . S
C547 C564 1.574 . S
C547 C566 1.368 . S
C547 H571 0.949 . S
H548 C552 0.949 . S
C549 C550 1.349 1_545 S
C549 C551 1.327 1_545 S
C549 H572 0.950 . S
C550 C549 1.349 1_565 S
C550 C562 1.349 . S
C551 C549 1.327 1_565 S
C551 C567 1.429 . S
C551 H573 0.950 1_565 S
C552 H548 0.949 . S
C552 C560 1.574 . S
C552 C568 1.368 . S
H553 C561 0.950 . S
H554 C559 0.950 . S
H555 C560 0.949 . S
H556 C562 0.950 . S
H557 C563 0.950 . S
H558 C564 0.949 . S
C559 H554 0.950 . S
C559 C561 1.327 . S
C559 C565 1.429 1_554 S
C560 C552 1.574 . S
C560 H555 0.949 . S
C560 C566 1.368 . S
C561 C545 1.349 . S
C561 H553 0.950 . S
C561 C559 1.327 . S
C562 C550 1.349 . S
C562 H556 0.950 . S
C562 C563 1.327 . S
C563 H557 0.950 . S
C563 C562 1.327 . S
C563 C567 1.429 . S
C564 C547 1.574 . S
C564 H558 0.949 . S
C564 C568 1.368 . S
C565 C546 1.429 . S
C565 C559 1.429 1_556 S
C565 C566 1.523 . S
C566 C547 1.368 . S
C566 C560 1.368 . S
C566 C565 1.523 . S
C567 C551 1.429 . S
C567 C563 1.429 . S
C567 C568 1.523 . S
C568 C552 1.368 . S
C568 C564 1.368 . S
C568 C567 1.523 . S
H569 C544 0.950 . S
H570 C546 0.950 . S
H571 C547 0.949 . S
H572 C549 0.950 . S
H573 C551 0.950 1_545 S
C574 C575 1.349 . S
C574 C576 1.327 1_554 S
C574 H599 0.950 . S
C575 C574 1.349 . S
C575 C591 1.349 . S
C576 C574 1.327 1_556 S
C576 C595 1.429 . S
C576 H600 0.950 . S
C577 C594 1.574 . S
C577 C596 1.368 . S
C577 H601 0.949 . S
H578 C582 0.949 . S
C579 C580 1.349 . S
C579 C581 1.327 . S
C579 H602 0.950 . S
C580 C579 1.349 . S
C580 C592 1.349 . S
C581 C579 1.327 . S
C581 C597 1.429 . S
C581 H603 0.950 . S
C582 H578 0.949 . S
C582 C590 1.574 . S
C582 C598 1.368 . S
H583 C591 0.950 . S
H584 C589 0.950 . S
H585 C590 0.949 . S
H586 C592 0.950 . S
H587 C593 0.950 . S
H588 C594 0.949 . S
C589 H584 0.950 . S
C589 C591 1.327 1_556 S
C589 C595 1.429 . S
C590 C582 1.574 . S
C590 H585 0.949 . S
C590 C596 1.368 . S
C591 C575 1.349 . S
C591 H583 0.950 . S
C591 C589 1.327 1_554 S
C592 C580 1.349 . S
C592 H586 0.950 . S
C592 C593 1.327 . S
C593 H587 0.950 . S
C593 C592 1.327 . S
C593 C597 1.429 . S
C594 C577 1.574 . S
C594 H588 0.949 . S
C594 C598 1.368 . S
C595 C576 1.429 . S
C595 C589 1.429 . S
C595 C596 1.523 . S
C596 C577 1.368 . S
C596 C590 1.368 . S
C596 C595 1.523 . S
C597 C581 1.429 . S
C597 C593 1.429 . S
C597 C598 1.523 . S
C598 C582 1.368 . S
C598 C594 1.368 . S
C598 C597 1.523 . S
H599 C574 0.950 . S
H600 C576 0.950 . S
H601 C577 0.949 . S
H602 C579 0.950 . S
H603 C581 0.950 . S
C604 C605 1.349 1_556 S
C604 C606 1.327 . S
C604 H629 0.950 . S
C605 C604 1.349 1_554 S
C605 C621 1.349 . S
C606 C604 1.327 . S
C606 C625 1.429 . S
C606 H630 0.950 . S
C607 C624 1.574 . S
C607 C626 1.368 . S
C607 H631 0.949 . S
H608 C612 0.949 . S
C609 C610 1.349 . S
C609 C611 1.327 . S
C609 H632 0.950 . S
C610 C609 1.349 . S
C610 C622 1.349 . S
C611 C609 1.327 . S
C611 C627 1.429 . S
C611 H633 0.950 . S
C612 H608 0.949 . S
C612 C620 1.574 . S
C612 C628 1.368 . S
H613 C621 0.950 . S
H614 C619 0.950 . S
H615 C620 0.949 . S
H616 C622 0.950 . S
H617 C623 0.950 . S
H618 C624 0.949 . S
C619 H614 0.950 . S
C619 C621 1.327 . S
C619 C625 1.429 1_554 S
C620 C612 1.574 . S
C620 H615 0.949 . S
C620 C626 1.368 . S
C621 C605 1.349 . S
C621 H613 0.950 . S
C621 C619 1.327 . S
C622 C610 1.349 . S
C622 H616 0.950 . S
C622 C623 1.327 . S
C623 H617 0.950 . S
C623 C622 1.327 . S
C623 C627 1.429 . S
C624 C607 1.574 . S
C624 H618 0.949 . S
C624 C628 1.368 . S
C625 C606 1.429 . S
C625 C619 1.429 1_556 S
C625 C626 1.523 . S
C626 C607 1.368 . S
C626 C620 1.368 . S
C626 C625 1.523 . S
C627 C611 1.429 . S
C627 C623 1.429 . S
C627 C628 1.523 . S
C628 C612 1.368 . S
C628 C624 1.368 . S
C628 C627 1.523 . S
H629 C604 0.950 . S
H630 C606 0.950 . S
H631 C607 0.949 . S
H632 C609 0.950 . S
H633 C611 0.950 . S
C634 C635 1.349 . S
C634 C636 1.327 1_554 S
C634 H659 0.950 . S
C635 C634 1.349 . S
C635 C651 1.349 . S
C636 C634 1.327 1_556 S
C636 C655 1.429 . S
C636 H660 0.950 . S
C637 C654 1.574 . S
C637 C656 1.368 . S
C637 H661 0.949 . S
H638 C642 0.949 . S
C639 C640 1.349 1_455 S
C639 C641 1.327 1_455 S
C639 H662 0.950 . S
C640 C639 1.349 1_655 S
C640 C652 1.349 . S
C641 C639 1.327 1_655 S
C641 C657 1.429 . S
C641 H663 0.950 1_655 S
C642 H638 0.949 . S
C642 C650 1.574 . S
C642 C658 1.368 . S
H643 C651 0.950 . S
H644 C649 0.950 . S
H645 C650 0.949 . S
H646 C652 0.950 . S
H647 C653 0.950 . S
H648 C654 0.934 1_455 S
C649 H644 0.950 . S
C649 C651 1.327 1_556 S
C649 C655 1.429 . S
C650 C642 1.574 . S
C650 H645 0.949 . S
C650 C656 1.368 . S
C651 C635 1.349 . S
C651 H643 0.950 . S
C651 C649 1.327 1_554 S
C652 C640 1.349 . S
C652 H646 0.950 . S
C652 C653 1.327 . S
C653 H647 0.950 . S
C653 C652 1.327 . S
C653 C657 1.429 . S
C654 C637 1.574 . S
C654 H648 0.934 1_655 S
C654 C658 1.368 . S
C655 C636 1.429 . S
C655 C649 1.429 . S
C655 C656 1.523 . S
C656 C637 1.368 . S
C656 C650 1.368 . S
C656 C655 1.523 . S
C657 C641 1.429 . S
C657 C653 1.429 . S
C657 C658 1.523 . S
C658 C642 1.368 . S
C658 C654 1.368 . S
C658 C657 1.523 . S
H659 C634 0.950 . S
H660 C636 0.950 . S
H661 C637 0.949 . S
H662 C639 0.950 . S
H663 C641 0.950 1_455 S
C664 C665 1.349 . S
C664 C666 1.327 . S
C664 H689 0.950 . S
C665 C664 1.349 . S
C665 C681 1.349 . S
C666 C664 1.327 . S
C666 C685 1.429 . S
C666 H690 0.950 . S
C667 C684 1.574 . S
C667 C686 1.368 . S
C667 H691 0.949 . S
H668 C672 0.949 . S
C669 C670 1.349 . S
C669 C671 1.327 . S
C669 H692 0.950 . S
C670 C669 1.349 . S
C670 C682 1.349 1_455 S
C671 C669 1.327 . S
C671 C687 1.429 . S
C671 H693 0.950 . S
C672 H668 0.949 . S
C672 C680 1.574 . S
C672 C688 1.368 . S
H673 C681 0.950 . S
H674 C679 0.950 . S
H675 C680 0.949 . S
H676 C682 0.950 . S
H677 C683 0.950 1_655 S
H678 C684 0.949 . S
C679 H674 0.950 . S
C679 C681 1.327 . S
C679 C685 1.429 . S
C680 C672 1.574 . S
C680 H675 0.949 . S
C680 C686 1.368 . S
C681 C665 1.349 . S
C681 H673 0.950 . S
C681 C679 1.327 . S
C682 C670 1.349 1_655 S
C682 H676 0.950 . S
C682 C683 1.327 1_655 S
C683 H677 0.950 1_455 S
C683 C682 1.327 1_455 S
C683 C687 1.429 . S
C684 C667 1.574 . S
C684 H678 0.949 . S
C684 C688 1.368 . S
C685 C666 1.429 . S
C685 C679 1.429 . S
C685 C686 1.523 . S
C686 C667 1.368 . S
C686 C680 1.368 . S
C686 C685 1.523 . S
C687 C671 1.429 . S
C687 C683 1.429 . S
C687 C688 1.523 . S
C688 C672 1.368 . S
C688 C684 1.368 . S
C688 C687 1.523 . S
H689 C664 0.950 . S
H690 C666 0.950 . S
H691 C667 0.949 . S
H692 C669 0.950 . S
H693 C671 0.950 . S
C694 C695 1.349 . S
C694 C696 1.327 . S
C694 H719 0.950 . S
C695 C694 1.349 . S
C695 C711 1.349 . S
C696 C694 1.327 . S
C696 C715 1.429 . S
C696 H720 0.950 . S
C697 C714 1.574 . S
C697 C716 1.368 . S
C697 H721 0.949 . S
H698 C702 0.949 . S
C699 C700 1.349 . S
C699 C701 1.327 . S
C699 H722 0.950 . S
C700 C699 1.349 . S
C700 C712 1.349 1_545 S
C701 C699 1.327 . S
C701 C717 1.429 . S
C701 H723 0.950 . S
C702 H698 0.949 . S
C702 C710 1.574 . S
C702 C718 1.368 . S
H703 C711 0.950 . S
H704 C709 0.950 . S
H705 C710 0.949 . S
H706 C712 0.950 . S
H707 C713 0.950 1_565 S
H708 C714 0.949 . S
C709 H704 0.950 . S
C709 C711 1.327 . S
C709 C715 1.429 . S
C710 C702 1.574 . S
C710 H705 0.949 . S
C710 C716 1.368 . S
C711 C695 1.349 . S
C711 H703 0.950 . S
C711 C709 1.327 . S
C712 C700 1.349 1_565 S
C712 H706 0.950 . S
C712 C713 1.327 1_565 S
C713 H707 0.950 1_545 S
C713 C712 1.327 1_545 S
C713 C717 1.429 . S
C714 C697 1.574 . S
C714 H708 0.949 . S
C714 C718 1.368 . S
C715 C696 1.429 . S
C715 C709 1.429 . S
C715 C716 1.523 . S
C716 C697 1.368 . S
C716 C710 1.368 . S
C716 C715 1.523 . S
C717 C701 1.429 . S
C717 C713 1.429 . S
C717 C718 1.523 . S
C718 C702 1.368 . S
C718 C714 1.368 . S
C718 C717 1.523 . S
H719 C694 0.950 . S
H720 C696 0.950 . S
H721 C697 0.949 . S
H722 C699 0.950 . S
H723 C701 0.950 . S
C724 C725 1.349 . S
C724 C726 1.327 . S
C724 H749 0.950 . S
C725 C724 1.349 . S
C725 C741 1.349 . S
C726 C724 1.327 . S
C726 C745 1.429 . S
C726 H750 0.950 . S
C727 C744 1.574 . S
C727 C746 1.368 . S
C727 H751 0.949 . S
H728 C732 0.949 . S
C729 C730 1.349 . S
C729 C731 1.327 . S
C729 H752 0.950 . S
C730 C729 1.349 . S
C730 C742 1.349 . S
C731 C729 1.327 . S
C731 C747 1.429 . S
C731 H753 0.950 . S
C732 H728 0.949 . S
C732 C740 1.574 . S
C732 C748 1.368 . S
H733 C741 0.950 . S
H734 C739 0.950 . S
H735 C740 0.949 . S
H736 C742 0.950 . S
H737 C743 0.950 . S
H738 C744 0.949 . S
C739 H734 0.950 . S
C739 C741 1.327 . S
C739 C745 1.429 . S
C740 C732 1.574 . S
C740 H735 0.949 . S
C740 C746 1.368 . S
C741 C725 1.349 . S
C741 H733 0.950 . S
C741 C739 1.327 . S
C742 C730 1.349 . S
C742 H736 0.950 . S
C742 C743 1.327 . S
C743 H737 0.950 . S
C743 C742 1.327 . S
C743 C747 1.429 . S
C744 C727 1.574 . S
C744 H738 0.949 . S
C744 C748 1.368 . S
C745 C726 1.429 . S
C745 C739 1.429 . S
C745 C746 1.523 . S
C746 C727 1.368 . S
C746 C740 1.368 . S
C746 C745 1.523 . S
C747 C731 1.429 . S
C747 C743 1.429 . S
C747 C748 1.523 . S
C748 C732 1.368 . S
C748 C744 1.368 . S
C748 C747 1.523 . S
H749 C724 0.950 . S
H750 C726 0.950 . S
H751 C727 0.949 . S
H752 C729 0.950 . S
H753 C731 0.950 . S
C754 C755 1.349 . S
C754 C756 1.327 . S
C754 H779 0.950 . S
C755 C754 1.349 . S
C755 C771 1.349 . S
C756 C754 1.327 . S
C756 C775 1.429 . S
C756 H780 0.950 . S
C757 C774 1.574 . S
C757 C776 1.368 . S
C757 H781 0.949 . S
H758 C762 0.949 . S
C759 C760 1.349 . S
C759 C761 1.327 . S
C759 H782 0.950 . S
C760 C759 1.349 . S
C760 C772 1.349 . S
C761 C759 1.327 . S
C761 C777 1.429 . S
C761 H783 0.950 . S
C762 H758 0.949 . S
C762 C770 1.574 . S
C762 C778 1.368 . S
H763 C771 0.950 . S
H764 C769 0.950 . S
H765 C770 0.949 . S
H766 C772 0.950 . S
H767 C773 0.950 . S
H768 C774 0.949 . S
C769 H764 0.950 . S
C769 C771 1.327 . S
C769 C775 1.429 . S
C770 C762 1.574 . S
C770 H765 0.949 . S
C770 C776 1.368 . S
C771 C755 1.349 . S
C771 H763 0.950 . S
C771 C769 1.327 . S
C772 C760 1.349 . S
C772 H766 0.950 . S
C772 C773 1.327 . S
C773 H767 0.950 . S
C773 C772 1.327 . S
C773 C777 1.429 . S
C774 C757 1.574 . S
C774 H768 0.949 . S
C774 C778 1.368 . S
C775 C756 1.429 . S
C775 C769 1.429 . S
C775 C776 1.523 . S
C776 C757 1.368 . S
C776 C770 1.368 . S
C776 C775 1.523 . S
C777 C761 1.429 . S
C777 C773 1.429 . S
C777 C778 1.523 . S
C778 C762 1.368 . S
C778 C774 1.368 . S
C778 C777 1.523 . S
H779 C754 0.950 . S
H780 C756 0.950 . S
H781 C757 0.949 . S
H782 C759 0.950 . S
H783 C761 0.950 . S
C784 C785 1.349 . S
C784 C786 1.327 1_554 S
C784 H809 0.950 . S
C785 C784 1.349 . S
C785 C801 1.349 . S
C786 C784 1.327 1_556 S
C786 C805 1.429 1_556 S
C786 H810 0.950 . S
C787 C804 1.574 . S
C787 C806 1.368 . S
C787 H811 0.949 1_556 S
H788 C792 0.949 . S
C789 C790 1.349 . S
C789 C791 1.327 . S
C789 H812 0.950 . S
C790 C789 1.349 . S
C790 C802 1.349 1_455 S
C791 C789 1.327 . S
C791 C807 1.429 1_455 S
C791 H813 0.950 . S
C792 H788 0.949 . S
C792 C800 1.574 . S
C792 C808 1.368 . S
H793 C801 0.950 . S
H794 C799 0.950 . S
H795 C800 0.949 . S
H796 C802 0.950 . S
H797 C803 0.950 . S
H798 C804 0.949 1_455 S
C799 H794 0.950 . S
C799 C801 1.327 . S
C799 C805 1.429 . S
C800 C792 1.574 . S
C800 H795 0.949 . S
C800 C806 1.368 . S
C801 C785 1.349 . S
C801 H793 0.950 . S
C801 C799 1.327 . S
C802 C790 1.349 1_655 S
C802 H796 0.950 . S
C802 C803 1.327 . S
C803 H797 0.950 . S
C803 C802 1.327 . S
C803 C807 1.429 . S
C804 C787 1.574 . S
C804 H798 0.949 1_655 S
C804 C808 1.368 . S
C805 C786 1.429 1_554 S
C805 C799 1.429 . S
C805 C806 1.523 1_554 S
C806 C787 1.368 . S
C806 C800 1.368 . S
C806 C805 1.523 1_556 S
C807 C791 1.429 1_655 S
C807 C803 1.429 . S
C807 C808 1.523 . S
C808 C792 1.368 . S
C808 C804 1.368 . S
C808 C807 1.523 . S
H809 C784 0.950 . S
H810 C786 0.950 . S
H811 C787 0.949 1_554 S
H812 C789 0.950 . S
H813 C791 0.950 . S
C814 C815 1.349 . S
C814 C816 1.327 . S
C814 H839 0.950 . S
C815 C814 1.349 . S
C815 C831 1.349 . S
C816 C814 1.327 . S
C816 C835 1.429 . S
C816 H840 0.950 . S
C817 C834 1.590 . S
C817 C836 1.368 . S
C817 H841 0.979 . S
H818 C822 0.949 . S
C819 C820 1.349 . S
C819 C821 1.327 . S
C819 H842 0.950 . S
C820 C819 1.349 . S
C820 C832 1.349 1_545 S
C821 C819 1.327 . S
C821 C837 1.429 1_545 S
C821 H843 0.950 . S
C822 H818 0.949 . S
C822 C830 1.574 . S
C822 C838 1.368 . S
H823 C831 0.950 . S
H824 C829 0.950 . S
H825 C830 0.949 . S
H826 C832 0.950 . S
H827 C833 0.950 . S
H828 C834 0.905 1_545 S
C829 H824 0.950 . S
C829 C831 1.327 . S
C829 C835 1.429 . S
C830 C822 1.574 . S
C830 H825 0.949 . S
C830 C836 1.368 . S
C831 C815 1.349 . S
C831 H823 0.950 . S
C831 C829 1.327 . S
C832 C820 1.349 1_565 S
C832 H826 0.950 . S
C832 C833 1.327 . S
C833 H827 0.950 . S
C833 C832 1.327 . S
C833 C837 1.429 . S
C834 C817 1.590 . S
C834 H828 0.905 1_565 S
C834 C838 1.401 . S
C835 C816 1.429 . S
C835 C829 1.429 . S
C835 C836 1.523 1_554 S
C836 C817 1.368 . S
C836 C830 1.368 . S
C836 C835 1.523 1_556 S
C837 C821 1.429 1_565 S
C837 C833 1.429 . S
C837 C838 1.523 . S
C838 C822 1.368 . S
C838 C834 1.401 . S
C838 C837 1.523 . S
H839 C814 0.950 . S
H840 C816 0.950 . S
H841 C817 0.979 . S
H842 C819 0.950 . S
H843 C821 0.950 . S
C844 C845 1.349 . S
C844 C846 1.327 1_554 S
C844 H869 0.950 1_554 S
C845 C844 1.349 . S
C845 C861 1.349 . S
C846 C844 1.327 1_556 S
C846 C865 1.429 1_556 S
C846 H870 0.950 . S
C847 C864 1.574 1_554 S
C847 C866 1.368 1_554 S
C847 H871 0.949 . S
H848 C852 0.949 . S
C849 C850 1.349 . S
C849 C851 1.327 . S
C849 H872 0.950 . S
C850 C849 1.349 . S
C850 C862 1.349 . S
C851 C849 1.327 . S
C851 C867 1.429 . S
C851 H873 0.950 . S
C852 H848 0.949 . S
C852 C860 1.574 . S
C852 C868 1.368 . S
H853 C861 0.950 . S
H854 C859 0.950 . S
H855 C860 0.949 . S
H856 C862 0.950 . S
H857 C863 0.950 . S
H858 C864 0.949 . S
C859 H854 0.950 . S
C859 C861 1.327 . S
C859 C865 1.429 . S
C860 C852 1.574 . S
C860 H855 0.949 . S
C860 C866 1.368 . S
C861 C845 1.349 . S
C861 H853 0.950 . S
C861 C859 1.327 . S
C862 C850 1.349 . S
C862 H856 0.950 . S
C862 C863 1.327 . S
C863 H857 0.950 . S
C863 C862 1.327 . S
C863 C867 1.429 . S
C864 C847 1.574 1_556 S
C864 H858 0.949 . S
C864 C868 1.368 . S
C865 C846 1.429 1_554 S
C865 C859 1.429 . S
C865 C866 1.523 1_554 S
C866 C847 1.368 1_556 S
C866 C860 1.368 . S
C866 C865 1.523 1_556 S
C867 C851 1.429 . S
C867 C863 1.429 . S
C867 C868 1.523 . S
C868 C852 1.368 . S
C868 C864 1.368 . S
C868 C867 1.523 . S
H869 C844 0.950 1_556 S
H870 C846 0.950 . S
H871 C847 0.949 . S
H872 C849 0.950 . S
H873 C851 0.950 . S
C874 C875 1.349 . S
C874 C876 1.327 . S
C874 H899 0.950 . S
C875 C874 1.349 . S
C875 C891 1.349 . S
C876 C874 1.327 . S
C876 C895 1.429 . S
C876 H900 0.950 . S
C877 C894 1.574 . S
C877 C896 1.368 . S
C877 H901 0.949 . S
H878 C882 0.949 . S
C879 C880 1.349 . S
C879 C881 1.327 . S
C879 H902 0.950 . S
C880 C879 1.349 . S
C880 C892 1.349 . S
C881 C879 1.327 . S
C881 C897 1.429 . S
C881 H903 0.950 . S
C882 H878 0.949 . S
C882 C890 1.574 . S
C882 C898 1.368 . S
H883 C891 0.950 . S
H884 C889 0.950 1_556 S
H885 C890 0.949 . S
H886 C892 0.950 . S
H887 C893 0.950 . S
H888 C894 0.949 . S
C889 H884 0.950 1_554 S
C889 C891 1.327 . S
C889 C895 1.429 . S
C890 C882 1.574 . S
C890 H885 0.949 . S
C890 C896 1.368 . S
C891 C875 1.349 . S
C891 H883 0.950 . S
C891 C889 1.327 . S
C892 C880 1.349 . S
C892 H886 0.950 . S
C892 C893 1.327 . S
C893 H887 0.950 . S
C893 C892 1.327 . S
C893 C897 1.429 . S
C894 C877 1.574 . S
C894 H888 0.949 . S
C894 C898 1.368 . S
C895 C876 1.429 . S
C895 C889 1.429 . S
C895 C896 1.523 1_554 S
C896 C877 1.368 . S
C896 C890 1.368 . S
C896 C895 1.523 1_556 S
C897 C881 1.429 . S
C897 C893 1.429 . S
C897 C898 1.523 . S
C898 C882 1.368 . S
C898 C894 1.368 . S
C898 C897 1.523 . S
H899 C874 0.950 . S
H900 C876 0.950 . S
H901 C877 0.949 . S
H902 C879 0.950 . S
H903 C881 0.950 . S
C904 C905 1.349 . S
C904 C906 1.327 . S
C904 H929 0.950 . S
C905 C904 1.349 . S
C905 C921 1.349 . S
C906 C904 1.327 . S
C906 C925 1.429 . S
C906 H930 0.950 . S
C907 C924 1.574 . S
C907 C926 1.368 . S
C907 H931 0.949 . S
H908 C912 0.949 . S
C909 C910 1.349 . S
C909 C911 1.327 . S
C909 H932 0.950 . S
C910 C909 1.349 . S
C910 C922 1.349 . S
C911 C909 1.327 . S
C911 C927 1.429 . S
C911 H933 0.950 . S
C912 H908 0.949 . S
C912 C920 1.574 . S
C912 C928 1.368 . S
H913 C921 0.950 . S
H914 C919 0.950 . S
H915 C920 0.949 . S
H916 C922 0.950 . S
H917 C923 0.950 . S
H918 C924 0.949 . S
C919 H914 0.950 . S
C919 C921 1.327 . S
C919 C925 1.429 . S
C920 C912 1.574 . S
C920 H915 0.949 . S
C920 C926 1.368 . S
C921 C905 1.349 . S
C921 H913 0.950 . S
C921 C919 1.327 . S
C922 C910 1.349 . S
C922 H916 0.950 . S
C922 C923 1.327 . S
C923 H917 0.950 . S
C923 C922 1.327 . S
C923 C927 1.429 . S
C924 C907 1.574 . S
C924 H918 0.949 . S
C924 C928 1.368 . S
C925 C906 1.429 . S
C925 C919 1.429 . S
C925 C926 1.523 . S
C926 C907 1.368 . S
C926 C920 1.368 . S
C926 C925 1.523 . S
C927 C911 1.429 . S
C927 C923 1.429 . S
C927 C928 1.523 . S
C928 C912 1.368 . S
C928 C924 1.368 . S
C928 C927 1.523 . S
H929 C904 0.950 . S
H930 C906 0.950 . S
H931 C907 0.949 . S
H932 C909 0.950 . S
H933 C911 0.950 . S
C934 C935 1.349 . S
C934 C936 1.327 . S
C934 H959 0.950 . S
C935 C934 1.349 . S
C935 C951 1.349 . S
C936 C934 1.327 . S
C936 C955 1.429 . S
C936 H960 0.950 . S
C937 C954 1.574 . S
C937 C956 1.368 . S
C937 H961 0.949 . S
H938 C942 0.949 . S
C939 C940 1.349 . S
C939 C941 1.327 . S
C939 H962 0.950 . S
C940 C939 1.349 . S
C940 C952 1.349 . S
C941 C939 1.327 . S
C941 C957 1.429 . S
C941 H963 0.950 . S
C942 H938 0.949 . S
C942 C950 1.574 . S
C942 C958 1.368 . S
H943 C951 0.950 . S
H944 C949 0.950 . S
H945 C950 0.949 . S
H946 C952 0.950 . S
H947 C953 0.950 . S
H948 C954 0.949 . S
C949 H944 0.950 . S
C949 C951 1.327 . S
C949 C955 1.429 . S
C950 C942 1.574 . S
C950 H945 0.949 . S
C950 C956 1.368 . S
C951 C935 1.349 . S
C951 H943 0.950 . S
C951 C949 1.327 . S
C952 C940 1.349 . S
C952 H946 0.950 . S
C952 C953 1.327 . S
C953 H947 0.950 . S
C953 C952 1.327 . S
C953 C957 1.429 . S
C954 C937 1.574 . S
C954 H948 0.949 . S
C954 C958 1.368 . S
C955 C936 1.429 . S
C955 C949 1.429 . S
C955 C956 1.523 . S
C956 C937 1.368 . S
C956 C950 1.368 . S
C956 C955 1.523 . S
C957 C941 1.429 . S
C957 C953 1.429 . S
C957 C958 1.523 . S
C958 C942 1.368 . S
C958 C954 1.368 . S
C958 C957 1.523 . S
H959 C934 0.950 . S
H960 C936 0.950 . S
H961 C937 0.949 . S
H962 C939 0.950 . S
H963 C941 0.950 . S
C964 C965 1.349 . S
C964 C966 1.327 . S
C964 H989 0.950 . S
C965 C964 1.349 . S
C965 C981 1.349 . S
C966 C964 1.327 . S
C966 C985 1.429 . S
C966 H990 0.950 . S
C967 C984 1.574 . S
C967 C986 1.368 . S
C967 H991 0.949 . S
H968 C972 0.949 . S
C969 C970 1.349 . S
C969 C971 1.327 . S
C969 H992 0.950 . S
C970 C969 1.349 . S
C970 C982 1.349 . S
C971 C969 1.327 . S
C971 C987 1.429 . S
C971 H993 0.950 . S
C972 H968 0.949 . S
C972 C980 1.574 . S
C972 C988 1.368 . S
H973 C981 0.950 . S
H974 C979 0.950 . S
H975 C980 0.949 . S
H976 C982 0.950 . S
H977 C983 0.950 . S
H978 C984 0.949 . S
C979 H974 0.950 . S
C979 C981 1.327 . S
C979 C985 1.429 . S
C980 C972 1.574 . S
C980 H975 0.949 . S
C980 C986 1.368 . S
C981 C965 1.349 . S
C981 H973 0.950 . S
C981 C979 1.327 . S
C982 C970 1.349 . S
C982 H976 0.950 . S
C982 C983 1.327 . S
C983 H977 0.950 . S
C983 C982 1.327 . S
C983 C987 1.429 . S
C984 C967 1.574 . S
C984 H978 0.949 . S
C984 C988 1.368 . S
C985 C966 1.429 . S
C985 C979 1.429 . S
C985 C986 1.523 . S
C986 C967 1.368 . S
C986 C980 1.368 . S
C986 C985 1.523 . S
C987 C971 1.429 . S
C987 C983 1.429 . S
C987 C988 1.523 . S
C988 C972 1.368 . S
C988 C984 1.368 . S
C988 C987 1.523 . S
H989 C964 0.950 . S
H990 C966 0.950 . S
H991 C967 0.949 . S
H992 C969 0.950 . S
H993 C971 0.950 . S
C994 C995 1.349 . S
C994 C996 1.327 . S
C994 H1019 0.950 . S
C995 C994 1.349 . S
C995 C1011 1.349 . S
C996 C994 1.327 . S
C996 C1015 1.429 . S
C996 H1020 0.950 . S
C997 C1014 1.574 . S
C997 C1016 1.368 . S
C997 H1021 0.949 . S
H998 C1002 0.949 . S
C999 C1000 1.349 . S
C999 C1001 1.327 . S
C999 H1022 0.950 . S
C1000 C999 1.349 . S
C1000 C1012 1.349 . S
C1001 C999 1.327 . S
C1001 C1017 1.429 . S
C1001 H1023 0.950 . S
C1002 H998 0.949 . S
C1002 C1010 1.574 . S
C1002 C1018 1.368 . S
H1003 C1011 0.950 . S
H1004 C1009 0.950 . S
H1005 C1010 0.949 . S
H1006 C1012 0.950 . S
H1007 C1013 0.950 . S
H1008 C1014 0.949 . S
C1009 H1004 0.950 . S
C1009 C1011 1.327 . S
C1009 C1015 1.429 . S
C1010 C1002 1.574 . S
C1010 H1005 0.949 . S
C1010 C1016 1.368 . S
C1011 C995 1.349 . S
C1011 H1003 0.950 . S
C1011 C1009 1.327 . S
C1012 C1000 1.349 . S
C1012 H1006 0.950 . S
C1012 C1013 1.327 . S
C1013 H1007 0.950 . S
C1013 C1012 1.327 . S
C1013 C1017 1.429 . S
C1014 C997 1.574 . S
C1014 H1008 0.949 . S
C1014 C1018 1.368 . S
C1015 C996 1.429 . S
C1015 C1009 1.429 . S
C1015 C1016 1.523 . S
C1016 C997 1.368 . S
C1016 C1010 1.368 . S
C1016 C1015 1.523 . S
C1017 C1001 1.429 . S
C1017 C1013 1.429 . S
C1017 C1018 1.523 . S
C1018 C1002 1.368 . S
C1018 C1014 1.368 . S
C1018 C1017 1.523 . S
H1019 C994 0.950 . S
H1020 C996 0.950 . S
H1021 C997 0.949 . S
H1022 C999 0.950 . S
H1023 C1001 0.950 . S
C1024 C1025 1.349 . S
C1024 C1026 1.327 . S
C1024 H1049 0.950 . S
C1025 C1024 1.349 . S
C1025 C1041 1.349 . S
C1026 C1024 1.327 . S
C1026 C1045 1.429 . S
C1026 H1050 0.950 . S
C1027 C1044 1.574 . S
C1027 C1046 1.368 . S
C1027 H1051 0.949 . S
H1028 C1032 0.949 . S
C1029 C1030 1.349 . S
C1029 C1031 1.327 . S
C1029 H1052 0.950 . S
C1030 C1029 1.349 . S
C1030 C1042 1.349 . S
C1031 C1029 1.327 . S
C1031 C1047 1.429 . S
C1031 H1053 0.950 . S
C1032 H1028 0.949 . S
C1032 C1040 1.574 . S
C1032 C1048 1.368 . S
H1033 C1041 0.950 . S
H1034 C1039 0.950 . S
H1035 C1040 0.949 . S
H1036 C1042 0.950 . S
H1037 C1043 0.950 . S
H1038 C1044 0.949 . S
C1039 H1034 0.950 . S
C1039 C1041 1.327 . S
C1039 C1045 1.429 . S
C1040 C1032 1.574 . S
C1040 H1035 0.949 . S
C1040 C1046 1.368 . S
C1041 C1025 1.349 . S
C1041 H1033 0.950 . S
C1041 C1039 1.327 . S
C1042 C1030 1.349 . S
C1042 H1036 0.950 . S
C1042 C1043 1.327 . S
C1043 H1037 0.950 . S
C1043 C1042 1.327 . S
C1043 C1047 1.429 . S
C1044 C1027 1.574 . S
C1044 H1038 0.949 . S
C1044 C1048 1.368 . S
C1045 C1026 1.429 . S
C1045 C1039 1.429 . S
C1045 C1046 1.523 . S
C1046 C1027 1.368 . S
C1046 C1040 1.368 . S
C1046 C1045 1.523 . S
C1047 C1031 1.429 . S
C1047 C1043 1.429 . S
C1047 C1048 1.523 . S
C1048 C1032 1.368 . S
C1048 C1044 1.368 . S
C1048 C1047 1.523 . S
H1049 C1024 0.950 . S
H1050 C1026 0.950 . S
H1051 C1027 0.949 . S
H1052 C1029 0.950 . S
H1053 C1031 0.950 . S
C1054 C1055 1.349 . S
C1054 C1056 1.327 . S
C1054 H1079 0.950 . S
C1055 C1054 1.349 . S
C1055 C1071 1.349 . S
C1056 C1054 1.327 . S
C1056 C1075 1.429 . S
C1056 H1080 0.950 . S
C1057 C1074 1.574 . S
C1057 C1076 1.368 . S
C1057 H1081 0.949 . S
H1058 C1062 0.949 . S
C1059 C1060 1.349 . S
C1059 C1061 1.327 . S
C1059 H1082 0.950 1_565 S
C1060 C1059 1.349 . S
C1060 C1072 1.349 . S
C1061 C1059 1.327 . S
C1061 C1077 1.429 . S
C1061 H1083 0.950 . S
C1062 H1058 0.949 . S
C1062 C1070 1.574 . S
C1062 C1078 1.368 . S
H1063 C1071 0.950 . S
H1064 C1069 0.950 . S
H1065 C1070 0.949 . S
H1066 C1072 0.950 . S
H1067 C1073 0.950 . S
H1068 C1074 0.949 . S
C1069 H1064 0.950 . S
C1069 C1071 1.327 . S
C1069 C1075 1.429 . S
C1070 C1062 1.574 . S
C1070 H1065 0.949 . S
C1070 C1076 1.368 . S
C1071 C1055 1.349 . S
C1071 H1063 0.950 . S
C1071 C1069 1.327 . S
C1072 C1060 1.349 . S
C1072 H1066 0.950 . S
C1072 C1073 1.327 . S
C1073 H1067 0.950 . S
C1073 C1072 1.327 . S
C1073 C1077 1.429 . S
C1074 C1057 1.574 . S
C1074 H1068 0.949 . S
C1074 C1078 1.368 . S
C1075 C1056 1.429 . S
C1075 C1069 1.429 . S
C1075 C1076 1.523 . S
C1076 C1057 1.368 . S
C1076 C1070 1.368 . S
C1076 C1075 1.523 . S
C1077 C1061 1.429 . S
C1077 C1073 1.429 . S
C1077 C1078 1.523 . S
C1078 C1062 1.368 . S
C1078 C1074 1.368 . S
C1078 C1077 1.523 . S
H1079 C1054 0.950 . S
H1080 C1056 0.950 . S
H1081 C1057 0.949 . S
H1082 C1059 0.950 1_545 S
H1083 C1061 0.950 . S
C1084 C1085 1.349 . S
C1084 C1086 1.327 . S
C1084 H1109 0.950 . S
C1085 C1084 1.349 . S
C1085 C1101 1.349 . S
C1086 C1084 1.327 . S
C1086 C1105 1.429 . S
C1086 H1110 0.950 . S
C1087 C1104 1.574 . S
C1087 C1106 1.368 . S
C1087 H1111 0.949 . S
H1088 C1092 0.949 . S
C1089 C1090 1.349 . S
C1089 C1091 1.327 . S
C1089 H1112 0.950 . S
C1090 C1089 1.349 . S
C1090 C1102 1.349 . S
C1091 C1089 1.327 . S
C1091 C1107 1.429 . S
C1091 H1113 0.950 . S
C1092 H1088 0.949 . S
C1092 C1100 1.574 . S
C1092 C1108 1.368 . S
H1093 C1101 0.950 . S
H1094 C1099 0.950 . S
H1095 C1100 0.949 . S
H1096 C1102 0.950 . S
H1097 C1103 0.950 . S
H1098 C1104 0.949 . S
C1099 H1094 0.950 . S
C1099 C1101 1.327 . S
C1099 C1105 1.429 . S
C1100 C1092 1.574 . S
C1100 H1095 0.949 . S
C1100 C1106 1.368 . S
C1101 C1085 1.349 . S
C1101 H1093 0.950 . S
C1101 C1099 1.327 . S
C1102 C1090 1.349 . S
C1102 H1096 0.950 . S
C1102 C1103 1.327 . S
C1103 H1097 0.950 . S
C1103 C1102 1.327 . S
C1103 C1107 1.429 . S
C1104 C1087 1.574 . S
C1104 H1098 0.949 . S
C1104 C1108 1.368 . S
C1105 C1086 1.429 . S
C1105 C1099 1.429 . S
C1105 C1106 1.523 . S
C1106 C1087 1.368 . S
C1106 C1100 1.368 . S
C1106 C1105 1.523 . S
C1107 C1091 1.429 . S
C1107 C1103 1.429 . S
C1107 C1108 1.523 . S
C1108 C1092 1.368 . S
C1108 C1104 1.368 . S
C1108 C1107 1.523 . S
H1109 C1084 0.950 . S
H1110 C1086 0.950 . S
H1111 C1087 0.949 . S
H1112 C1089 0.950 . S
H1113 C1091 0.950 . S
C1114 C1115 1.349 . S
C1114 C1116 1.327 . S
C1114 H1139 0.950 . S
C1115 C1114 1.349 . S
C1115 C1131 1.349 . S
C1116 C1114 1.327 . S
C1116 C1135 1.429 . S
C1116 H1140 0.950 . S
C1117 C1134 1.574 . S
C1117 C1136 1.368 . S
C1117 H1141 0.949 . S
H1118 C1122 0.949 . S
C1119 C1120 1.349 . S
C1119 C1121 1.327 . S
C1119 H1142 0.950 . S
C1120 C1119 1.349 . S
C1120 C1132 1.349 . S
C1121 C1119 1.327 . S
C1121 C1137 1.429 . S
C1121 H1143 0.950 . S
C1122 H1118 0.949 . S
C1122 C1130 1.574 . S
C1122 C1138 1.368 . S
H1123 C1131 0.950 . S
H1124 C1129 0.950 . S
H1125 C1130 0.949 . S
H1126 C1132 0.950 . S
H1127 C1133 0.950 . S
H1128 C1134 0.949 . S
C1129 H1124 0.950 . S
C1129 C1131 1.327 . S
C1129 C1135 1.429 . S
C1130 C1122 1.574 . S
C1130 H1125 0.949 . S
C1130 C1136 1.368 . S
C1131 C1115 1.349 . S
C1131 H1123 0.950 . S
C1131 C1129 1.327 . S
C1132 C1120 1.349 . S
C1132 H1126 0.950 . S
C1132 C1133 1.327 . S
C1133 H1127 0.950 . S
C1133 C1132 1.327 . S
C1133 C1137 1.429 . S
C1134 C1117 1.574 . S
C1134 H1128 0.949 . S
C1134 C1138 1.368 . S
C1135 C1116 1.429 . S
C1135 C1129 1.429 . S
C1135 C1136 1.523 . S
C1136 C1117 1.368 . S
C1136 C1130 1.368 . S
C1136 C1135 1.523 . S
C1137 C1121 1.429 . S
C1137 C1133 1.429 . S
C1137 C1138 1.523 . S
C1138 C1122 1.368 . S
C1138 C1134 1.368 . S
C1138 C1137 1.523 . S
H1139 C1114 0.950 . S
H1140 C1116 0.950 . S
H1141 C1117 0.949 . S
H1142 C1119 0.950 . S
H1143 C1121 0.950 . S
C425 C74 1.793 . S
C430 C162 1.791 . S
C460 C246 1.830 . S
C455 C85 1.832 . S
C490 C312 1.841 . S
C485 C52 1.956 . S
C520 C396 1.809 . S
C515 C63 1.923 . S
C550 C151 1.791 1_565 S
C545 C30 1.743 . S
C575 C41 1.778 . S
C580 C235 1.831 . S
C605 C8 1.897 . S
C610 C323 1.841 . S
C635 C19 1.868 . S
C640 C407 1.809 . S
C670 C158 0.603 . S
C665 C62 0.554 . S
C700 C242 0.573 . S
C695 C73 0.509 . S
C730 C314 0.554 . S
C725 C84 0.445 . S
C755 C51 0.491 . S
C760 C398 0.575 . S
C785 C18 0.617 . S
C790 C146 0.600 . S
C820 C230 0.573 . S
C815 C29 0.588 . S
C850 C326 0.553 . S
C845 C40 0.557 . S
C875 C7 0.583 . S
C880 C410 0.575 . S
C905 C60 1.814 . S
C910 C155 2.008 . S
C935 C71 1.764 . S
C940 C239 1.965 . S
C970 C319 1.946 . S
C965 C82 1.673 . S
C1000 C403 1.983 . S
C995 C49 1.713 . S
C1025 C16 1.583 . S
C1030 C144 2.008 . S
C1060 C228 1.958 1_565 S
C1055 C27 1.553 . S
C1090 C330 1.946 . S
C1085 C38 1.444 . S
C1115 C5 1.469 . S
C1120 C414 1.983 . S
