# Generated by pormake.
# Topology pts, (4,4)-cn, num edge types: 1
# Building blocks:
#     Node 0, Type 0, BuildingBlock: NAWXER_clean_sbu_0, # of connection points: 4
#     Node 1, Type 0, BuildingBlock: NAWXER_clean_sbu_0, # of connection points: 4
#     Node 2, Type 1, BuildingBlock: AZAVOO_clean_sbu_0, # of connection points: 4
#     Node 3, Type 1, BuildingBlock: AZAVOO_clean_sbu_0, # of connection points: 4
#     Edge 4, Type (0, 1), BuildingBlock: XUDNAN_clean_linker_2, # of connection points: 2
#     Edge 5, Type (0, 1), BuildingBlock: XUDNAN_clean_linker_2, # of connection points: 2
#     Edge 6, Type (0, 1), BuildingBlock: XUDNAN_clean_linker_2, # of connection points: 2
#     Edge 7, Type (0, 1), BuildingBlock: XUDNAN_clean_linker_2, # of connection points: 2
#     Edge 8, Type (0, 1), BuildingBlock: XUDNAN_clean_linker_2, # of connection points: 2
#     Edge 9, Type (0, 1), BuildingBlock: XUDNAN_clean_linker_2, # of connection points: 2
#     Edge 10, Type (0, 1), BuildingBlock: XUDNAN_clean_linker_2, # of connection points: 2
#     Edge 11, Type (0, 1), BuildingBlock: XUDNAN_clean_linker_2, # of connection points: 2
# Relax obj value: 0.010
# Max RMSD: 0.058
# Mean RMSD: 0.046
data_MOF--net-pts--node1-NAWXER_clean_sbu_0--node2-AZAVOO_clean_sbu_0--edge1-XUDNAN_clean_linker_2
_symmetry_space_group_name_H-M    P1
_symmetry_Int_Tables_number       1
_symmetry_cell_setting            triclinic
loop_
_symmetry_equiv_pos_as_xyz
'x, y, z'
_cell_length_a     22.707731
_cell_length_b     23.566957
_cell_length_c     37.556046
_cell_angle_alpha  89.642229
_cell_angle_beta   96.991695
_cell_angle_gamma 89.953452
loop_
_atom_site_label
_atom_site_type_symbol
_atom_site_fract_x
_atom_site_fract_y
_atom_site_fract_z
_atom_type_partial_charge
C0 C 0.49773 0.07629 0.95439 0.0
C1 C 0.66048 0.08442 0.05311 0.0
O2 O 0.5088 0.02899 0.97083 0.0
Zn3 Zn 0.56854 0.99476 0.0138 0.0
O4 O 0.52841 0.12003 0.96395 0.0
Zn5 Zn 0.57935 0.08465 1.0034 0.0
O6 O 0.6302 0.03033 0.97498 0.0
O7 O 0.61678 0.94083 0.98985 0.0
O8 O 0.64255 0.12574 0.03257 0.0
O9 O 0.63574 0.03582 0.04854 0.0
O10 O 0.51372 0.97126 0.04708 0.0
O11 O 0.51914 0.06439 0.04092 0.0
C12 C 0.64178 0.97771 0.97185 0.0
C13 C 0.49765 0.02082 0.05531 0.0
C14 C 0.10902 0.59417 0.47583 0.0
C15 C 0.10054 0.44538 0.56624 0.0
O16 O 0.05589 0.57836 0.47915 0.0
Zn17 Zn 0.01242 0.51725 0.51003 0.0
O18 O 0.15282 0.57156 0.49518 0.0
Zn19 Zn 0.1072 0.52099 0.52151 0.0
O20 O 0.07414 0.46502 0.4794 0.0
O21 O 0.97602 0.46616 0.4732 0.0
O22 O 0.14662 0.47115 0.55867 0.0
O23 O 0.04971 0.45883 0.54981 0.0
O24 O 0.9639 0.56429 0.53711 0.0
O25 O 0.06012 0.5785 0.55122 0.0
C26 C 0.0243 0.44796 0.46348 0.0
C27 C 1.00631 0.59061 0.55512 0.0
Mg28 Mg 0.12489 0.00804 0.28353 0.0
O29 O 0.04155 0.00977 0.24261 0.0
O30 O 0.96331 0.99109 0.27139 0.0
Mg31 Mg 0.99761 0.97285 0.33043 0.0
C32 C 0.98572 0.00437 0.2429 0.0
C33 C 0.18692 0.01453 0.21592 0.0
O34 O 0.15973 0.96531 0.21312 0.0
O35 O 0.09601 0.09305 0.30403 0.0
O36 O 0.02268 0.06776 0.33571 0.0
O37 O 0.14048 0.91575 0.27771 0.0
O38 O 0.08699 0.95148 0.31738 0.0
C39 C 0.05685 0.10534 0.32452 0.0
C40 C 0.10928 0.90743 0.30385 0.0
O41 O 0.17866 0.04683 0.24191 0.0
Mg42 Mg 0.02148 0.99837 0.75563 0.0
O43 O 0.11923 0.99386 0.7809 0.0
O44 O 0.17122 0.98861 0.73403 0.0
Mg45 Mg 0.10963 0.97342 0.68197 0.0
C46 C 0.16849 0.99426 0.76761 0.0
C47 C 0.93275 0.02726 0.80464 0.0
O48 O 0.90385 0.0259 0.77214 0.0
O49 O 0.04077 0.0881 0.73552 0.0
O50 O 0.08423 0.06709 0.68652 0.0
O51 O 1.00645 0.90527 0.75902 0.0
O52 O 0.03847 0.94807 0.71277 0.0
C53 C 0.06275 0.1027 0.70701 0.0
C54 C 0.02298 0.90176 0.72738 0.0
O55 O 0.98914 0.02528 0.80803 0.0
H56 H 0.41913 0.94371 0.07884 0.0
H57 H 0.47742 0.11888 0.0897 0.0
H58 H 0.40287 0.13706 0.13065 0.0
H59 H 0.26352 0.97316 0.07851 0.0
H60 H 0.24931 0.91059 0.10393 0.0
H61 H 0.3083 0.91046 0.07591 0.0
H62 H 0.38356 0.88137 0.13048 0.0
H63 H 0.32472 0.88098 0.15858 0.0
H64 H 0.38974 0.92386 0.17051 0.0
H65 H 0.32296 0.13652 0.17107 0.0
H66 H 0.24275 0.1164 0.20837 0.0
H67 H 0.23392 0.94298 0.1697 0.0
C68 C 0.41644 0.98572 0.09005 0.0
C69 C 0.45419 0.02979 0.08108 0.0
C70 C 0.44888 0.08441 0.09605 0.0
C71 C 0.40667 0.09525 0.11939 0.0
C72 C 0.36968 0.05118 0.12737 0.0
C73 C 0.37401 0.99752 0.11319 0.0
C74 C 0.32826 0.95795 0.1259 0.0
C75 C 0.28477 0.93681 0.09417 0.0
C76 C 0.35838 0.9081 0.14767 0.0
C77 C 0.29795 0.99772 0.14953 0.0
C78 C 0.32258 0.05127 0.15007 0.0
C79 C 0.30304 0.0948 0.17076 0.0
C80 C 0.25747 0.08304 0.19182 0.0
C81 C 0.23181 0.02832 0.19179 0.0
C82 C 0.25209 0.98546 0.17002 0.0
H83 H 0.02446 0.35719 0.56878 0.0
H84 H 0.18407 0.43062 0.62517 0.0
H85 H 0.18483 0.35593 0.67214 0.0
H86 H 0.95516 0.31261 0.64601 0.0
H87 H 0.92753 0.24739 0.62548 0.0
H88 H 0.9375 0.30872 0.59797 0.0
H89 H 1.00541 0.25068 0.56094 0.0
H90 H 0.99482 0.18905 0.5879 0.0
H91 H 0.06878 0.21387 0.58383 0.0
H92 H 0.16767 0.2717 0.71256 0.0
H93 H 0.14291 0.17843 0.73793 0.0
H94 H 0.99797 0.15915 0.65276 0.0
C95 C 0.05937 0.35787 0.59117 0.0
C96 C 0.10392 0.39989 0.59364 0.0
C97 C 0.14956 0.3987 0.62287 0.0
C98 C 0.14999 0.35679 0.64976 0.0
C99 C 0.10481 0.31628 0.64669 0.0
C100 C 0.06096 0.31607 0.61775 0.0
C101 C 0.02013 0.26561 0.61894 0.0
C102 C 0.9563 0.28475 0.62231 0.0
C103 C 0.02247 0.22756 0.58596 0.0
C104 C 0.04801 0.23689 0.65297 0.0
C105 C 0.0961 0.26726 0.66907 0.0
C106 C 0.12984 0.24791 0.70033 0.0
C107 C 0.11521 0.19533 0.71475 0.0
C108 C 0.06779 0.16283 0.69764 0.0
C109 C 0.03339 0.18422 0.66675 0.0
H110 H 0.67767 0.02815 0.11671 0.0
H111 H 0.7609 0.14859 0.05092 0.0
H112 H 0.85451 0.14064 0.09232 0.0
H113 H 0.7525 0.07747 0.20368 0.0
H114 H 0.75736 0.00659 0.22211 0.0
H115 H 0.69684 0.02559 0.18859 0.0
H116 H 0.72433 0.94169 0.14947 0.0
H117 H 0.78571 0.92316 0.18245 0.0
H118 H 0.79823 0.93728 0.13675 0.0
H119 H 0.94176 0.11029 0.13742 0.0
H120 H 0.01142 0.0727 0.18766 0.0
H121 H 0.86857 0.97559 0.22526 0.0
C122 C 0.71526 0.05382 0.11145 0.0
C123 C 0.71227 0.08913 0.08075 0.0
C124 C 0.76222 0.12191 0.07459 0.0
C125 C 0.8156 0.1172 0.09776 0.0
C126 C 0.81763 0.08029 0.12715 0.0
C127 C 0.76826 0.05027 0.1345 0.0
C128 C 0.78178 0.01324 0.16759 0.0
C129 C 0.74494 0.03186 0.19725 0.0
C130 C 0.77193 0.95012 0.1585 0.0
C131 C 0.84692 0.02617 0.17746 0.0
C132 C 0.86698 0.06448 0.15364 0.0
C133 C 0.92627 0.08091 0.15648 0.0
C134 C 0.96563 0.05886 0.18495 0.0
C135 C 0.94544 0.02125 0.21049 0.0
C136 C 0.88532 0.00445 0.20633 0.0
H137 H 0.067 0.68875 0.56855 0.0
H138 H 0.92224 0.58925 0.60143 0.0
H139 H 0.9137 0.65657 0.65108 0.0
H140 H 0.13548 0.72692 0.65454 0.0
H141 H 0.1533 0.79831 0.64212 0.0
H142 H 0.14747 0.74305 0.60898 0.0
H143 H 0.06867 0.80146 0.56849 0.0
H144 H 0.07503 0.85737 0.60121 0.0
H145 H 1.00357 0.82658 0.58665 0.0
H146 H 0.92753 0.73015 0.69992 0.0
H147 H 0.94967 0.81394 0.73831 0.0
H148 H 0.08027 0.86935 0.67032 0.0
C149 C 0.03309 0.68159 0.58603 0.0
C150 C 0.99532 0.63398 0.58149 0.0
C151 C 0.95118 0.62586 0.6045 0.0
C152 C 0.94643 0.66352 0.63285 0.0
C153 C 0.98542 0.70942 0.63715 0.0
C154 C 0.02687 0.71936 0.61381 0.0
C155 C 0.06209 0.77278 0.62348 0.0
C156 C 0.12851 0.75943 0.63284 0.0
C157 C 0.05169 0.81718 0.59316 0.0
C158 C 0.03457 0.79105 0.65628 0.0
C159 C 0.99112 0.75342 0.66405 0.0
C160 C 0.96093 0.76024 0.69385 0.0
C161 C 0.97423 0.80769 0.71566 0.0
C162 C 0.01657 0.84818 0.70719 0.0
C163 C 0.04752 0.83929 0.67733 0.0
H164 H 0.39179 0.02132 0.94868 0.0
H165 H 0.49894 0.1326 0.89057 0.0
H166 H 0.42631 0.12262 0.83605 0.0
H167 H 0.34647 0.92624 0.87928 0.0
H168 H 0.27166 0.91792 0.88994 0.0
H169 H 0.33038 0.93563 0.92472 0.0
H170 H 0.27254 0.02483 0.94076 0.0
H171 H 0.21312 0.00691 0.90642 0.0
H172 H 0.24769 0.07571 0.90611 0.0
H173 H 0.34784 0.09169 0.7867 0.0
H174 H 0.26054 0.05569 0.74796 0.0
H175 H 0.19953 0.9709 0.83958 0.0
C176 C 0.39936 0.04429 0.92457 0.0
C177 C 0.45078 0.07773 0.92361 0.0
C178 C 0.45944 0.10728 0.8918 0.0
C179 C 0.4187 0.10147 0.86073 0.0
C180 C 0.36911 0.06697 0.86233 0.0
C181 C 0.35849 0.04007 0.89369 0.0
C182 C 0.30134 0.00622 0.88847 0.0
C183 C 0.31321 0.94275 0.89605 0.0
C184 C 0.25599 0.02985 0.91182 0.0
C185 C 0.28204 0.01714 0.84899 0.0
C186 C 0.3222 0.05169 0.83435 0.0
C187 C 0.3157 0.06532 0.79798 0.0
C188 C 0.26623 0.04417 0.77614 0.0
C189 C 0.22328 0.01046 0.79077 0.0
C190 C 0.23149 0.99677 0.82771 0.0
H191 H 0.95966 0.35023 0.45098 0.0
H192 H 0.09381 0.45482 0.41035 0.0
H193 H 0.10816 0.38221 0.36512 0.0
H194 H 0.03614 0.22421 0.44737 0.0
H195 H 0.97258 0.17991 0.43434 0.0
H196 H 0.96421 0.24398 0.459 0.0
H197 H 0.88344 0.2796 0.40915 0.0
H198 H 0.89121 0.21526 0.38441 0.0
H199 H 0.89971 0.28324 0.36339 0.0
H200 H 0.1168 0.29503 0.32954 0.0
H201 H 0.12015 0.19783 0.30609 0.0
H202 H 0.98291 0.14727 0.37097 0.0
C203 C 0.99036 0.35844 0.43163 0.0
C204 C 0.02496 0.40823 0.43352 0.0
C205 C 0.06656 0.41697 0.40889 0.0
C206 C 0.07487 0.37612 0.3831 0.0
C207 C 0.04152 0.32655 0.38251 0.0
C208 C 0.99997 0.31745 0.40602 0.0
C209 C 0.97513 0.25781 0.40234 0.0
C210 C 0.9878 0.22454 0.43787 0.0
C211 C 0.9084 0.25907 0.38902 0.0
C212 C 1.01049 0.23451 0.37394 0.0
C213 C 0.04778 0.27517 0.36248 0.0
C214 C 0.0872 0.26295 0.3379 0.0
C215 C 0.08893 0.20749 0.32483 0.0
C216 C 0.0518 0.16473 0.3366 0.0
C217 C 0.01159 0.17893 0.36116 0.0
H218 H 0.64261 0.00958 0.903 0.0
H219 H 0.74522 0.91929 0.99021 0.0
H220 H 0.83328 0.92249 0.95697 0.0
H221 H 0.71437 0.94324 0.82891 0.0
H222 H 0.70931 0.00865 0.80358 0.0
H223 H 0.65411 0.99185 0.83262 0.0
H224 H 0.67544 0.08785 0.86485 0.0
H225 H 0.73214 0.10415 0.83685 0.0
H226 H 0.74978 0.10359 0.88496 0.0
H227 H 0.91332 0.94886 0.9173 0.0
H228 H 0.97373 0.9798 0.87007 0.0
H229 H 0.81618 0.05032 0.80867 0.0
C230 C 0.683 0.98835 0.91433 0.0
C231 C 0.68718 0.96313 0.94869 0.0
C232 C 0.74096 0.93729 0.96341 0.0
C233 C 0.79127 0.93968 0.94492 0.0
C234 C 0.7864 0.9674 0.91169 0.0
C235 C 0.73303 0.98979 0.89611 0.0
C236 C 0.73942 0.01905 0.86083 0.0
C237 C 0.70211 0.98888 0.82964 0.0
C238 C 0.72324 0.0824 0.86198 0.0
C239 C 0.80507 0.01097 0.85924 0.0
C240 C 0.83169 0.9815 0.88887 0.0
C241 C 0.89267 0.97119 0.89376 0.0
C242 C 0.92676 0.98954 0.86702 0.0
C243 C 0.89962 0.01746 0.8357 0.0
C244 C 0.83817 0.02897 0.83225 0.0
H245 H 0.04378 0.6894 0.45754 0.0
H246 H 0.19469 0.59249 0.43103 0.0
H247 H 0.20435 0.65769 0.38007 0.0
H248 H 0.98082 0.72669 0.3679 0.0
H249 H 0.96124 0.7979 0.37924 0.0
H250 H 0.96407 0.74223 0.41252 0.0
H251 H 0.03876 0.80055 0.45534 0.0
H252 H 0.03533 0.85674 0.42246 0.0
H253 H 0.10592 0.82606 0.43964 0.0
H254 H 0.19472 0.73076 0.33092 0.0
H255 H 0.17988 0.81706 0.29361 0.0
H256 H 0.04044 0.87166 0.35526 0.0
C257 C 0.07888 0.68215 0.44097 0.0
C258 C 0.11841 0.63602 0.44786 0.0
C259 C 0.16431 0.62793 0.42612 0.0
C260 C 0.16968 0.66432 0.397 0.0
C261 C 0.1294 0.709 0.39052 0.0
C262 C 0.08582 0.71891 0.4124 0.0
C263 C 0.05115 0.77242 0.40121 0.0
C264 C 0.98542 0.75898 0.38952 0.0
C265 C 0.05824 0.81655 0.43145 0.0
C266 C 0.08207 0.7911 0.36959 0.0
C267 C 0.12612 0.75315 0.36342 0.0
C268 C 0.16063 0.76097 0.33561 0.0
C269 C 0.15151 0.81001 0.3144 0.0
C270 C 0.10906 0.85123 0.32156 0.0
C271 C 0.07307 0.8409 0.34906 0.0
loop_
_geom_bond_atom_site_label_1
_geom_bond_atom_site_label_2
_geom_bond_distance
_geom_bond_site_symmetry_2
_ccdc_geom_bond_type
C0 O2 1.247 1_545 S
C0 O4 1.258 . S
C1 O8 1.247 . S
C1 O9 1.258 1_545 S
O2 C0 1.247 1_565 S
O2 Zn3 2.028 1_556 S
Zn3 O2 2.028 1_554 S
Zn3 O7 2.035 1_554 S
Zn3 O9 2.035 . S
Zn3 O10 2.028 . S
O4 C0 1.258 . S
O4 Zn5 2.035 1_556 S
Zn5 O4 2.035 1_554 S
Zn5 O6 2.028 1_554 S
Zn5 O8 2.028 . S
Zn5 O11 2.035 . S
O6 Zn5 2.028 1_556 S
O6 C12 1.247 . S
O7 Zn3 2.035 1_556 S
O7 C12 1.258 1_565 S
O8 C1 1.247 . S
O8 Zn5 2.028 . S
O9 C1 1.258 1_565 S
O9 Zn3 2.035 . S
O10 Zn3 2.028 . S
O10 C13 1.247 1_565 S
O11 Zn5 2.035 . S
O11 C13 1.258 . S
C12 O6 1.247 . S
C12 O7 1.258 1_545 S
C13 O10 1.247 1_545 S
C13 O11 1.258 . S
C14 O16 1.247 . S
C14 O18 1.258 . S
C15 O22 1.247 . S
C15 O23 1.258 1_455 S
O16 C14 1.247 . S
O16 Zn17 2.028 1_455 S
Zn17 O16 2.028 1_655 S
Zn17 O21 2.035 1_655 S
Zn17 O23 2.035 . S
Zn17 O24 2.028 . S
O18 C14 1.258 . S
O18 Zn19 2.035 . S
Zn19 O18 2.035 . S
Zn19 O20 2.028 . S
Zn19 O22 2.028 . S
Zn19 O25 2.035 . S
O20 Zn19 2.028 . S
O20 C26 1.247 . S
O21 Zn17 2.035 1_455 S
O21 C26 1.258 . S
O22 C15 1.247 . S
O22 Zn19 2.028 . S
O23 C15 1.258 1_655 S
O23 Zn17 2.035 . S
O24 Zn17 2.028 . S
O24 C27 1.247 1_655 S
O25 Zn19 2.035 . S
O25 C27 1.258 . S
C26 O20 1.247 . S
C26 O21 1.258 . S
C27 O24 1.247 1_455 S
C27 O25 1.258 . S
Mg28 O29 2.028 . S
Mg28 O35 1.986 . S
Mg28 O37 2.114 1_545 S
Mg28 O38 2.251 1_545 S
Mg28 O41 2.010 . S
O29 Mg28 2.028 . S
O29 C32 1.250 1_455 S
O30 Mg31 2.028 . S
O30 C32 1.248 . S
Mg31 O30 2.028 . S
Mg31 O36 2.032 1_655 S
Mg31 O38 2.079 1_645 S
C32 O29 1.250 1_655 S
C32 O30 1.248 . S
C33 O34 1.264 . S
C33 O41 1.249 . S
O34 C33 1.264 . S
O35 Mg28 1.986 . S
O35 C39 1.246 . S
O36 Mg31 2.032 1_455 S
O36 C39 1.259 . S
O37 Mg28 2.114 1_565 S
O37 C40 1.252 . S
O38 Mg28 2.251 1_565 S
O38 Mg31 2.079 1_465 S
O38 C40 1.273 . S
C39 O35 1.246 . S
C39 O36 1.259 . S
C40 O37 1.252 . S
C40 O38 1.273 . S
O41 Mg28 2.010 . S
O41 C33 1.249 . S
Mg42 O43 2.028 1_655 S
Mg42 O49 1.986 1_655 S
Mg42 O51 2.114 1_545 S
Mg42 O52 2.251 1_645 S
Mg42 O55 2.010 . S
O43 Mg42 2.028 1_455 S
O43 C46 1.250 . S
O44 Mg45 2.028 . S
O44 C46 1.248 . S
Mg45 O44 2.028 . S
Mg45 O50 2.032 . S
Mg45 O52 2.079 1_545 S
C46 O43 1.250 . S
C46 O44 1.248 . S
C47 O48 1.264 . S
C47 O55 1.249 . S
O48 C47 1.264 . S
O49 Mg42 1.986 1_455 S
O49 C53 1.246 . S
O50 Mg45 2.032 . S
O50 C53 1.259 . S
O51 Mg42 2.114 1_565 S
O51 C54 1.252 1_655 S
O52 Mg42 2.251 1_465 S
O52 Mg45 2.079 1_565 S
O52 C54 1.273 . S
C53 O49 1.246 . S
C53 O50 1.259 . S
C54 O51 1.252 1_455 S
C54 O52 1.273 . S
O55 Mg42 2.010 . S
O55 C47 1.249 . S
H56 C68 0.930 . S
H57 C70 0.930 . S
H58 C71 0.930 . S
H59 C75 0.959 . S
H60 C75 0.959 . S
H61 C75 0.961 . S
H62 C76 0.960 . S
H63 C76 0.961 . S
H64 C76 0.959 . S
H65 C79 0.929 . S
H66 C80 0.931 . S
H67 C82 0.930 . S
C68 H56 0.930 . S
C68 C69 1.399 1_565 S
C68 C73 1.399 . S
C69 C68 1.399 1_545 S
C69 C70 1.376 . S
C70 H57 0.930 . S
C70 C69 1.376 . S
C70 C71 1.388 . S
C71 H58 0.930 . S
C71 C70 1.388 . S
C71 C72 1.390 . S
C72 C71 1.390 . S
C72 C73 1.394 1_545 S
C72 C78 1.465 . S
C73 C68 1.399 . S
C73 C72 1.394 1_565 S
C73 C74 1.516 . S
C74 C73 1.516 . S
C74 C75 1.502 . S
C74 C76 1.561 . S
C74 C77 1.526 . S
C75 H59 0.959 . S
C75 H60 0.959 . S
C75 H61 0.961 . S
C75 C74 1.502 . S
C76 H62 0.960 . S
C76 H63 0.961 . S
C76 H64 0.959 . S
C76 C74 1.561 . S
C77 C74 1.526 . S
C77 C78 1.396 1_565 S
C77 C82 1.390 . S
C78 C72 1.465 . S
C78 C77 1.396 1_545 S
C78 C79 1.399 . S
C79 H65 0.929 . S
C79 C78 1.399 . S
C79 C80 1.385 . S
C80 H66 0.931 . S
C80 C79 1.385 . S
C80 C81 1.389 . S
C81 C80 1.389 . S
C81 C82 1.387 1_545 S
C82 H67 0.930 . S
C82 C77 1.390 . S
C82 C81 1.387 1_565 S
H83 C95 0.930 1_655 S
H84 C97 0.930 . S
H85 C98 0.930 . S
H86 C102 0.959 . S
H87 C102 0.959 . S
H88 C102 0.961 . S
H89 C103 0.960 . S
H90 C103 0.961 . S
H91 C103 0.959 . S
H92 C106 0.929 . S
H93 C107 0.931 . S
H94 C109 0.930 1_655 S
C95 H83 0.930 1_455 S
C95 C96 1.399 . S
C95 C100 1.399 . S
C96 C95 1.399 . S
C96 C97 1.376 . S
C97 H84 0.930 . S
C97 C96 1.376 . S
C97 C98 1.388 . S
C98 H85 0.930 . S
C98 C97 1.388 . S
C98 C99 1.390 . S
C99 C98 1.390 . S
C99 C100 1.394 . S
C99 C105 1.465 . S
C100 C95 1.399 . S
C100 C99 1.394 . S
C100 C101 1.516 . S
C101 C100 1.516 . S
C101 C102 1.502 1_455 S
C101 C103 1.561 . S
C101 C104 1.526 . S
C102 H86 0.959 . S
C102 H87 0.959 . S
C102 H88 0.961 . S
C102 C101 1.502 1_655 S
C103 H89 0.960 . S
C103 H90 0.961 . S
C103 H91 0.959 . S
C103 C101 1.561 . S
C104 C101 1.526 . S
C104 C105 1.396 . S
C104 C109 1.390 . S
C105 C99 1.465 . S
C105 C104 1.396 . S
C105 C106 1.399 . S
C106 H92 0.929 . S
C106 C105 1.399 . S
C106 C107 1.385 . S
C107 H93 0.931 . S
C107 C106 1.385 . S
C107 C108 1.389 . S
C108 C107 1.389 . S
C108 C109 1.387 . S
C109 H94 0.930 1_455 S
C109 C104 1.390 . S
C109 C108 1.387 . S
H110 C122 0.930 . S
H111 C124 0.930 . S
H112 C125 0.930 . S
H113 C129 0.959 . S
H114 C129 0.959 . S
H115 C129 0.961 . S
H116 C130 0.960 . S
H117 C130 0.961 . S
H118 C130 0.959 . S
H119 C133 0.929 . S
H120 C134 0.931 . S
H121 C136 0.930 . S
C122 H110 0.930 . S
C122 C123 1.399 1_565 S
C122 C127 1.399 . S
C123 C122 1.399 1_545 S
C123 C124 1.376 . S
C124 H111 0.930 . S
C124 C123 1.376 . S
C124 C125 1.388 . S
C125 H112 0.930 . S
C125 C124 1.388 . S
C125 C126 1.390 . S
C126 C125 1.390 . S
C126 C127 1.394 1_545 S
C126 C132 1.465 . S
C127 C122 1.399 . S
C127 C126 1.394 1_565 S
C127 C128 1.516 . S
C128 C127 1.516 . S
C128 C129 1.502 . S
C128 C130 1.561 . S
C128 C131 1.526 . S
C129 H113 0.959 . S
C129 H114 0.959 . S
C129 H115 0.961 . S
C129 C128 1.502 . S
C130 H116 0.960 . S
C130 H117 0.961 . S
C130 H118 0.959 . S
C130 C128 1.561 . S
C131 C128 1.526 . S
C131 C132 1.396 1_565 S
C131 C136 1.390 . S
C132 C126 1.465 . S
C132 C131 1.396 1_545 S
C132 C133 1.399 . S
C133 H119 0.929 . S
C133 C132 1.399 . S
C133 C134 1.385 . S
C134 H120 0.931 . S
C134 C133 1.385 . S
C134 C135 1.389 . S
C135 C134 1.389 . S
C135 C136 1.387 1_545 S
C136 H121 0.930 . S
C136 C131 1.390 . S
C136 C135 1.387 1_565 S
H137 C149 0.930 . S
H138 C151 0.930 1_655 S
H139 C152 0.930 . S
H140 C156 0.959 . S
H141 C156 0.959 . S
H142 C156 0.961 . S
H143 C157 0.960 . S
H144 C157 0.961 . S
H145 C157 0.959 1_655 S
H146 C160 0.929 . S
H147 C161 0.922 1_655 S
H148 C163 0.930 . S
C149 H137 0.930 . S
C149 C150 1.399 . S
C149 C154 1.399 . S
C150 C149 1.399 . S
C150 C151 1.376 . S
C151 H138 0.930 1_455 S
C151 C150 1.376 . S
C151 C152 1.388 1_455 S
C152 H139 0.930 . S
C152 C151 1.388 1_655 S
C152 C153 1.390 1_655 S
C153 C152 1.390 1_455 S
C153 C154 1.394 . S
C153 C159 1.465 . S
C154 C149 1.399 . S
C154 C153 1.394 . S
C154 C155 1.516 . S
C155 C154 1.516 . S
C155 C156 1.502 . S
C155 C157 1.561 . S
C155 C158 1.526 . S
C156 H140 0.959 . S
C156 H141 0.959 . S
C156 H142 0.961 . S
C156 C155 1.502 . S
C157 H143 0.960 . S
C157 H144 0.961 . S
C157 H145 0.959 1_455 S
C157 C155 1.561 . S
C158 C155 1.526 . S
C158 C159 1.396 . S
C158 C163 1.390 . S
C159 C153 1.465 . S
C159 C158 1.396 . S
C159 C160 1.399 1_455 S
C160 H146 0.929 . S
C160 C159 1.399 1_655 S
C160 C161 1.384 1_655 S
C161 H147 0.922 1_455 S
C161 C160 1.384 1_455 S
C161 C162 1.399 . S
C162 C161 1.399 . S
C162 C163 1.387 . S
C163 H148 0.930 . S
C163 C158 1.390 . S
C163 C162 1.387 . S
H164 C176 0.930 . S
H165 C178 0.930 . S
H166 C179 0.930 . S
H167 C183 0.959 . S
H168 C183 0.959 . S
H169 C183 0.961 . S
H170 C184 0.960 . S
H171 C184 0.961 . S
H172 C184 0.959 . S
H173 C187 0.929 . S
H174 C188 0.931 . S
H175 C190 0.930 . S
C176 H164 0.930 . S
C176 C177 1.399 . S
C176 C181 1.399 . S
C177 C176 1.399 . S
C177 C178 1.376 1_545 S
C178 H165 0.930 . S
C178 C177 1.376 1_565 S
C178 C179 1.388 . S
C179 H166 0.930 . S
C179 C178 1.388 . S
C179 C180 1.390 . S
C180 C179 1.390 . S
C180 C181 1.394 1_565 S
C180 C186 1.465 . S
C181 C176 1.399 . S
C181 C180 1.394 1_545 S
C181 C182 1.516 . S
C182 C181 1.516 . S
C182 C183 1.502 . S
C182 C184 1.561 . S
C182 C185 1.526 . S
C183 H167 0.959 . S
C183 H168 0.959 . S
C183 H169 0.961 . S
C183 C182 1.502 . S
C184 H170 0.960 . S
C184 H171 0.961 . S
C184 H172 0.959 . S
C184 C182 1.561 . S
C185 C182 1.526 . S
C185 C186 1.396 1_545 S
C185 C190 1.390 . S
C186 C180 1.465 . S
C186 C185 1.396 1_565 S
C186 C187 1.399 . S
C187 H173 0.929 . S
C187 C186 1.399 . S
C187 C188 1.385 . S
C188 H174 0.931 . S
C188 C187 1.385 . S
C188 C189 1.389 1_565 S
C189 C188 1.389 1_545 S
C189 C190 1.387 . S
C190 H175 0.930 . S
C190 C185 1.390 . S
C190 C189 1.387 . S
H191 C203 0.930 1_655 S
H192 C205 0.930 . S
H193 C206 0.930 . S
H194 C210 0.959 . S
H195 C210 0.959 . S
H196 C210 0.961 . S
H197 C211 0.960 . S
H198 C211 0.961 . S
H199 C211 0.959 . S
H200 C214 0.929 . S
H201 C215 0.931 . S
H202 C217 0.930 1_655 S
C203 H191 0.930 1_455 S
C203 C204 1.399 . S
C203 C208 1.399 . S
C204 C203 1.399 . S
C204 C205 1.376 . S
C205 H192 0.930 . S
C205 C204 1.376 . S
C205 C206 1.388 . S
C206 H193 0.930 . S
C206 C205 1.388 . S
C206 C207 1.390 . S
C207 C206 1.390 . S
C207 C208 1.394 . S
C207 C213 1.465 . S
C208 C203 1.399 . S
C208 C207 1.394 . S
C208 C209 1.516 1_455 S
C209 C208 1.516 1_655 S
C209 C210 1.502 . S
C209 C211 1.561 . S
C209 C212 1.526 1_655 S
C210 H194 0.959 . S
C210 H195 0.959 . S
C210 H196 0.961 . S
C210 C209 1.502 . S
C211 H197 0.960 . S
C211 H198 0.961 . S
C211 H199 0.959 . S
C211 C209 1.561 . S
C212 C209 1.526 1_455 S
C212 C213 1.396 . S
C212 C217 1.390 . S
C213 C207 1.465 . S
C213 C212 1.396 . S
C213 C214 1.399 . S
C214 H200 0.929 . S
C214 C213 1.399 . S
C214 C215 1.385 . S
C215 H201 0.931 . S
C215 C214 1.385 . S
C215 C216 1.389 . S
C216 C215 1.389 . S
C216 C217 1.387 . S
C217 H202 0.930 1_455 S
C217 C212 1.390 . S
C217 C216 1.387 . S
H218 C230 0.930 . S
H219 C232 0.930 . S
H220 C233 0.930 . S
H221 C237 0.959 . S
H222 C237 0.959 . S
H223 C237 0.961 . S
H224 C238 0.960 . S
H225 C238 0.961 . S
H226 C238 0.959 . S
H227 C241 0.929 . S
H228 C242 0.931 . S
H229 C244 0.930 . S
C230 H218 0.930 . S
C230 C231 1.399 1_565 S
C230 C235 1.399 . S
C231 C230 1.399 1_545 S
C231 C232 1.376 . S
C232 H219 0.930 . S
C232 C231 1.376 . S
C232 C233 1.388 . S
C233 H220 0.930 . S
C233 C232 1.388 . S
C233 C234 1.390 . S
C234 C233 1.390 . S
C234 C235 1.394 1_545 S
C234 C240 1.465 . S
C235 C230 1.399 . S
C235 C234 1.394 1_565 S
C235 C236 1.516 . S
C236 C235 1.516 . S
C236 C237 1.502 . S
C236 C238 1.561 . S
C236 C239 1.526 . S
C237 H221 0.959 . S
C237 H222 0.959 . S
C237 H223 0.961 . S
C237 C236 1.502 . S
C238 H224 0.960 . S
C238 H225 0.961 . S
C238 H226 0.959 . S
C238 C236 1.561 . S
C239 C236 1.526 . S
C239 C240 1.396 1_565 S
C239 C244 1.390 . S
C240 C234 1.465 . S
C240 C239 1.396 1_545 S
C240 C241 1.399 . S
C241 H227 0.929 . S
C241 C240 1.399 . S
C241 C242 1.385 . S
C242 H228 0.931 . S
C242 C241 1.385 . S
C242 C243 1.389 . S
C243 C242 1.389 . S
C243 C244 1.387 1_545 S
C244 H229 0.930 . S
C244 C239 1.390 . S
C244 C243 1.387 1_565 S
H245 C257 0.930 . S
H246 C259 0.930 . S
H247 C260 0.930 . S
H248 C264 0.959 1_655 S
H249 C264 0.959 . S
H250 C264 0.961 . S
H251 C265 0.960 . S
H252 C265 0.961 . S
H253 C265 0.959 . S
H254 C268 0.929 . S
H255 C269 0.931 . S
H256 C271 0.930 . S
C257 H245 0.930 . S
C257 C258 1.399 . S
C257 C262 1.399 . S
C258 C257 1.399 . S
C258 C259 1.376 . S
C259 H246 0.930 . S
C259 C258 1.376 . S
C259 C260 1.388 . S
C260 H247 0.930 . S
C260 C259 1.388 . S
C260 C261 1.390 . S
C261 C260 1.390 . S
C261 C262 1.394 . S
C261 C267 1.465 . S
C262 C257 1.399 . S
C262 C261 1.394 . S
C262 C263 1.516 . S
C263 C262 1.516 . S
C263 C264 1.502 . S
C263 C265 1.561 . S
C263 C266 1.526 . S
C264 H248 0.959 1_455 S
C264 H249 0.959 . S
C264 H250 0.961 . S
C264 C263 1.502 . S
C265 H251 0.960 . S
C265 H252 0.961 . S
C265 H253 0.959 . S
C265 C263 1.561 . S
C266 C263 1.526 . S
C266 C267 1.396 . S
C266 C271 1.390 . S
C267 C261 1.465 . S
C267 C266 1.396 . S
C267 C268 1.399 . S
C268 H254 0.929 . S
C268 C267 1.399 . S
C268 C269 1.385 . S
C269 H255 0.931 . S
C269 C268 1.385 . S
C269 C270 1.389 . S
C270 C269 1.389 . S
C270 C271 1.387 . S
C271 H256 0.930 . S
C271 C266 1.390 . S
C271 C270 1.387 . S
C81 C33 1.202 . S
C69 C13 1.453 . S
C108 C53 1.424 . S
C96 C15 1.455 . S
C135 C32 1.455 . S
C123 C1 1.471 . S
C162 C54 1.475 . S
C150 C27 1.469 . S
C189 C46 1.418 . S
C177 C0 1.467 . S
C216 C39 1.455 . S
C204 C26 1.454 . S
C243 C47 1.249 . S
C231 C12 1.454 . S
C258 C14 1.469 . S
C270 C40 1.477 . S
