# Generated by pormake.
# Topology pyr, (3,6)-cn, num edge types: 1
# Building blocks:
#     Node 0, Type 0, BuildingBlock: WUSLED_clean_sbu_0, # of connection points: 3
#     Node 1, Type 0, BuildingBlock: WUSLED_clean_sbu_0, # of connection points: 3
#     Node 2, Type 0, BuildingBlock: WUSLED_clean_sbu_0, # of connection points: 3
#     Node 3, Type 0, BuildingBlock: WUSLED_clean_sbu_0, # of connection points: 3
#     Node 4, Type 0, BuildingBlock: WUSLED_clean_sbu_0, # of connection points: 3
#     Node 5, Type 0, BuildingBlock: WUSLED_clean_sbu_0, # of connection points: 3
#     Node 6, Type 0, BuildingBlock: WUSLED_clean_sbu_0, # of connection points: 3
#     Node 7, Type 0, BuildingBlock: WUSLED_clean_sbu_0, # of connection points: 3
#     Node 8, Type 1, BuildingBlock: PAMTOO_clean_sbu_0, # of connection points: 6
#     Node 9, Type 1, BuildingBlock: PAMTOO_clean_sbu_0, # of connection points: 6
#     Node 10, Type 1, BuildingBlock: PAMTOO_clean_sbu_0, # of connection points: 6
#     Node 11, Type 1, BuildingBlock: PAMTOO_clean_sbu_0, # of connection points: 6
#     Edge 12, Type (0, 1), BuildingBlock: AJUNOK_clean_linker_0, # of connection points: 2
#     Edge 13, Type (0, 1), BuildingBlock: AJUNOK_clean_linker_0, # of connection points: 2
#     Edge 14, Type (0, 1), BuildingBlock: AJUNOK_clean_linker_0, # of connection points: 2
#     Edge 15, Type (0, 1), BuildingBlock: AJUNOK_clean_linker_0, # of connection points: 2
#     Edge 16, Type (0, 1), BuildingBlock: AJUNOK_clean_linker_0, # of connection points: 2
#     Edge 17, Type (0, 1), BuildingBlock: AJUNOK_clean_linker_0, # of connection points: 2
#     Edge 18, Type (0, 1), BuildingBlock: AJUNOK_clean_linker_0, # of connection points: 2
#     Edge 19, Type (0, 1), BuildingBlock: AJUNOK_clean_linker_0, # of connection points: 2
#     Edge 20, Type (0, 1), BuildingBlock: AJUNOK_clean_linker_0, # of connection points: 2
#     Edge 21, Type (0, 1), BuildingBlock: AJUNOK_clean_linker_0, # of connection points: 2
#     Edge 22, Type (0, 1), BuildingBlock: AJUNOK_clean_linker_0, # of connection points: 2
#     Edge 23, Type (0, 1), BuildingBlock: AJUNOK_clean_linker_0, # of connection points: 2
#     Edge 24, Type (0, 1), BuildingBlock: AJUNOK_clean_linker_0, # of connection points: 2
#     Edge 25, Type (0, 1), BuildingBlock: AJUNOK_clean_linker_0, # of connection points: 2
#     Edge 26, Type (0, 1), BuildingBlock: AJUNOK_clean_linker_0, # of connection points: 2
#     Edge 27, Type (0, 1), BuildingBlock: AJUNOK_clean_linker_0, # of connection points: 2
#     Edge 28, Type (0, 1), BuildingBlock: AJUNOK_clean_linker_0, # of connection points: 2
#     Edge 29, Type (0, 1), BuildingBlock: AJUNOK_clean_linker_0, # of connection points: 2
#     Edge 30, Type (0, 1), BuildingBlock: AJUNOK_clean_linker_0, # of connection points: 2
#     Edge 31, Type (0, 1), BuildingBlock: AJUNOK_clean_linker_0, # of connection points: 2
#     Edge 32, Type (0, 1), BuildingBlock: AJUNOK_clean_linker_0, # of connection points: 2
#     Edge 33, Type (0, 1), BuildingBlock: AJUNOK_clean_linker_0, # of connection points: 2
#     Edge 34, Type (0, 1), BuildingBlock: AJUNOK_clean_linker_0, # of connection points: 2
#     Edge 35, Type (0, 1), BuildingBlock: AJUNOK_clean_linker_0, # of connection points: 2
# Relax obj value: 0.107
# Max RMSD: 0.168
# Mean RMSD: 0.067
data_MOF--net-pyr--node1-WUSLED_clean_sbu_0--node2-PAMTOO_clean_sbu_0--edge1-AJUNOK_clean_linker_0
_symmetry_space_group_name_H-M    P1
_symmetry_Int_Tables_number       1
_symmetry_cell_setting            triclinic
loop_
_symmetry_equiv_pos_as_xyz
'x, y, z'
_cell_length_a     38.151004
_cell_length_b     41.175643
_cell_length_c     41.871831
_cell_angle_alpha  89.675761
_cell_angle_beta   90.156013
_cell_angle_gamma 102.95548
loop_
_atom_site_label
_atom_site_type_symbol
_atom_site_fract_x
_atom_site_fract_y
_atom_site_fract_z
_atom_type_partial_charge
C0 C 0.30795 0.32542 0.1423 0.0
C1 C 0.27837 0.3235 0.16265 0.0
C2 C 0.25581 0.36267 0.12896 0.0
C3 C 0.25251 0.34179 0.15599 0.0
C4 C 0.28666 0.36608 0.10967 0.0
C5 C 0.31241 0.34737 0.11617 0.0
U6 U 0.33889 0.26576 0.19721 0.0
O7 O 0.34285 0.21397 0.19112 0.0
O8 O 0.39081 0.25155 0.20539 0.0
C9 C 0.37754 0.22041 0.19714 0.0
C10 C 0.33231 0.30274 0.14743 0.0
C11 C 0.39937 0.20448 0.17581 0.0
C12 C 0.40555 0.17456 0.12698 0.0
C13 C 0.38801 0.19492 0.14463 0.0
C14 C 0.44749 0.17488 0.17054 0.0
C15 C 0.43481 0.16346 0.14013 0.0
C16 C 0.42975 0.195 0.18828 0.0
C17 C 0.29243 0.2537 0.27832 0.0
C18 C 0.28572 0.20275 0.3094 0.0
C19 C 0.26208 0.24864 0.3295 0.0
C20 C 0.27486 0.2674 0.30235 0.0
C21 C 0.26661 0.21584 0.33293 0.0
C22 C 0.29868 0.22162 0.28235 0.0
C23 C 0.30047 0.27149 0.24785 0.0
O24 O 0.35746 0.31201 0.16919 0.0
O25 O 0.31569 0.27123 0.15004 0.0
O26 O 0.28752 0.25394 0.22266 0.0
O27 O 0.33361 0.28877 0.24393 0.0
H28 H 0.27456 0.30685 0.18309 0.0
H29 H 0.22914 0.33848 0.17132 0.0
H30 H 0.29055 0.38269 0.08921 0.0
H31 H 0.33527 0.34944 0.10039 0.0
H32 H 0.39522 0.16634 0.10356 0.0
H33 H 0.36467 0.20198 0.13439 0.0
H34 H 0.47064 0.16766 0.18095 0.0
H35 H 0.43901 0.20215 0.21226 0.0
H36 H 0.289 0.17735 0.31104 0.0
H37 H 0.24758 0.25936 0.34733 0.0
H38 H 0.26978 0.29212 0.29953 0.0
H39 H 0.31208 0.21061 0.26388 0.0
C40 C 0.12813 0.81843 0.64464 0.0
C41 C 0.13128 0.84856 0.66118 0.0
C42 C 0.09179 0.86691 0.62269 0.0
C43 C 0.11332 0.87263 0.65026 0.0
C44 C 0.08654 0.83564 0.60768 0.0
C45 C 0.10481 0.81171 0.61843 0.0
U46 U 0.18888 0.79022 0.70457 0.0
O47 O 0.20157 0.74169 0.71605 0.0
O48 O 0.24426 0.78396 0.70028 0.0
C49 C 0.23592 0.75263 0.70946 0.0
C50 C 0.1514 0.7955 0.65306 0.0
C51 C 0.25483 0.73015 0.69305 0.0
C52 C 0.26781 0.69975 0.64651 0.0
C53 C 0.2463 0.71849 0.66191 0.0
C54 C 0.30581 0.70402 0.69344 0.0
C55 C 0.29829 0.69288 0.66195 0.0
C56 C 0.2843 0.72232 0.70876 0.0
C57 C 0.20361 0.83475 0.78364 0.0
C58 C 0.25394 0.82826 0.81679 0.0
C59 C 0.22045 0.86995 0.8299 0.0
C60 C 0.19783 0.86006 0.80375 0.0
C61 C 0.24921 0.85465 0.83626 0.0
C62 C 0.23125 0.81834 0.79068 0.0
C63 C 0.18379 0.82838 0.75345 0.0
O64 O 0.18558 0.81006 0.65624 0.0
O65 O 0.13954 0.77362 0.6758 0.0
O66 O 0.16325 0.79836 0.75005 0.0
O67 O 0.20338 0.83882 0.72813 0.0
H68 H 0.14893 0.8541 0.6817 0.0
H69 H 0.11782 0.89638 0.66239 0.0
H70 H 0.0693 0.83017 0.5869 0.0
H71 H 0.10171 0.78847 0.60558 0.0
H72 H 0.26085 0.691 0.62248 0.0
H73 H 0.22359 0.72438 0.64942 0.0
H74 H 0.32921 0.69962 0.70596 0.0
H75 H 0.29141 0.7313 0.73273 0.0
H76 H 0.27598 0.81617 0.82111 0.0
H77 H 0.21669 0.89086 0.84403 0.0
H78 H 0.17687 0.87321 0.79839 0.0
H79 H 0.23622 0.79888 0.77517 0.0
C80 C 0.6265 0.4052 0.76029 0.0
C81 C 0.6387 0.43976 0.75433 0.0
C82 C 0.60456 0.4371 0.70306 0.0
C83 C 0.62801 0.4553 0.72642 0.0
C84 C 0.59196 0.40263 0.70967 0.0
C85 C 0.60283 0.38716 0.73731 0.0
U86 U 0.66324 0.36567 0.84361 0.0
O87 O 0.62185 0.33521 0.87602 0.0
O88 O 0.65659 0.31067 0.84784 0.0
C89 C 0.62961 0.30677 0.86802 0.0
C90 C 0.6369 0.3874 0.79006 0.0
C91 C 0.61995 0.27598 0.8894 0.0
C92 C 0.57529 0.22488 0.90459 0.0
C93 C 0.58544 0.25481 0.88672 0.0
C94 C 0.63377 0.236 0.92924 0.0
C95 C 0.59908 0.21461 0.92637 0.0
C96 C 0.64405 0.26601 0.91103 0.0
C97 C 0.75154 0.41316 0.89571 0.0
C98 C 0.80245 0.40337 0.92817 0.0
C99 C 0.7929 0.45904 0.92346 0.0
C100 C 0.76247 0.44707 0.90403 0.0
C101 C 0.81387 0.43763 0.93582 0.0
C102 C 0.772 0.39138 0.90827 0.0
C103 C 0.72147 0.40298 0.87141 0.0
O104 O 0.66114 0.36916 0.79001 0.0
O105 O 0.62785 0.39454 0.81902 0.0
O106 O 0.68845 0.40534 0.87802 0.0
O107 O 0.72256 0.37974 0.85024 0.0
H108 H 0.65673 0.45489 0.77123 0.0
H109 H 0.63865 0.48175 0.72298 0.0
H110 H 0.57289 0.38729 0.69374 0.0
H111 H 0.59217 0.36072 0.74091 0.0
H112 H 0.54838 0.20978 0.90142 0.0
H113 H 0.56608 0.26128 0.87028 0.0
H114 H 0.65347 0.22922 0.94505 0.0
H115 H 0.67098 0.28123 0.9137 0.0
H116 H 0.81782 0.38589 0.9366 0.0
H117 H 0.80021 0.48544 0.92862 0.0
H118 H 0.74788 0.46479 0.89465 0.0
H119 H 0.76495 0.36519 0.90222 0.0
C120 C 0.78945 0.64413 0.39551 0.0
C121 C 0.77176 0.66589 0.41163 0.0
C122 C 0.72675 0.61874 0.43502 0.0
C123 C 0.74112 0.65343 0.43117 0.0
C124 C 0.74485 0.59727 0.41891 0.0
C125 C 0.77548 0.60967 0.39978 0.0
U126 U 0.87805 0.69124 0.3422 0.0
O127 O 0.91377 0.66177 0.3188 0.0
O128 O 0.87696 0.68303 0.28924 0.0
C129 C 0.90149 0.66511 0.28986 0.0
C130 C 0.82047 0.65566 0.37239 0.0
C131 C 0.91474 0.65005 0.25967 0.0
C132 C 0.90375 0.62397 0.20595 0.0
C133 C 0.8918 0.63888 0.23341 0.0
C134 C 0.96261 0.63171 0.22904 0.0
C135 C 0.93951 0.61963 0.20292 0.0
C136 C 0.95045 0.64604 0.25671 0.0
C137 C 0.92096 0.78227 0.38445 0.0
C138 C 0.95688 0.83966 0.39262 0.0
C139 C 0.91571 0.81406 0.43361 0.0
C140 C 0.90564 0.78457 0.4148 0.0
C141 C 0.94189 0.84242 0.4231 0.0
C142 C 0.94665 0.81049 0.37389 0.0
C143 C 0.91243 0.75136 0.36327 0.0
O144 O 0.81895 0.678 0.35017 0.0
O145 O 0.85356 0.65355 0.37922 0.0
O146 O 0.91965 0.72313 0.37297 0.0
O147 O 0.88566 0.74669 0.34269 0.0
H148 H 0.78129 0.69257 0.40882 0.0
H149 H 0.72805 0.67111 0.44247 0.0
H150 H 0.7353 0.57052 0.42105 0.0
H151 H 0.78796 0.59201 0.38767 0.0
H152 H 0.88446 0.6153 0.18715 0.0
H153 H 0.86407 0.64112 0.23427 0.0
H154 H 0.99067 0.63076 0.22816 0.0
H155 H 0.96946 0.65448 0.27581 0.0
H156 H 0.97726 0.86004 0.38316 0.0
H157 H 0.90234 0.81464 0.45627 0.0
H158 H 0.88576 0.76363 0.42401 0.0
H159 H 0.95937 0.80991 0.35086 0.0
C160 C 0.72473 0.72329 0.91329 0.0
C161 C 0.74528 0.71566 0.8878 0.0
C162 C 0.77924 0.68829 0.92434 0.0
C163 C 0.77235 0.69838 0.89328 0.0
C164 C 0.75737 0.69445 0.94958 0.0
C165 C 0.73037 0.71197 0.94409 0.0
U166 U 0.69607 0.78376 0.85803 0.0
O167 O 0.64569 0.80044 0.84994 0.0
O168 O 0.695 0.83643 0.86393 0.0
C169 C 0.66056 0.83152 0.8573 0.0
C170 C 0.70154 0.74701 0.90825 0.0
C171 C 0.64001 0.84933 0.87778 0.0
C172 C 0.61067 0.85698 0.92779 0.0
C173 C 0.62766 0.8376 0.9082 0.0
C174 C 0.61812 0.89951 0.88654 0.0
C175 C 0.60627 0.88833 0.91721 0.0
C176 C 0.63471 0.88014 0.867 0.0
C177 C 0.74168 0.79428 0.7769 0.0
C178 C 0.74863 0.84585 0.74676 0.0
C179 C 0.77457 0.80125 0.72694 0.0
C180 C 0.76081 0.78161 0.75332 0.0
C181 C 0.76948 0.83392 0.72386 0.0
C182 C 0.73471 0.82611 0.77303 0.0
C183 C 0.73328 0.77611 0.80715 0.0
O184 O 0.7196 0.77799 0.90503 0.0
O185 O 0.67581 0.73844 0.88686 0.0
O186 O 0.69968 0.7601 0.81132 0.0
O187 O 0.74727 0.79305 0.83234 0.0
H188 H 0.74154 0.72447 0.86387 0.0
H189 H 0.78875 0.69389 0.87342 0.0
H190 H 0.76245 0.68736 0.97381 0.0
H191 H 0.71509 0.71801 0.9641 0.0
H192 H 0.602 0.84799 0.95148 0.0
H193 H 0.63181 0.81395 0.91697 0.0
H194 H 0.61485 0.92348 0.8778 0.0
H195 H 0.64417 0.88959 0.84362 0.0
H196 H 0.74483 0.87111 0.74541 0.0
H197 H 0.79039 0.7914 0.70956 0.0
H198 H 0.7665 0.75711 0.75604 0.0
H199 H 0.72015 0.83634 0.79118 0.0
C200 C 0.79112 0.25621 0.27876 0.0
C201 C 0.79946 0.22505 0.27433 0.0
C202 C 0.76377 0.21712 0.2256 0.0
C203 C 0.78577 0.20558 0.24798 0.0
C204 C 0.75717 0.24914 0.22928 0.0
C205 C 0.77072 0.26852 0.25572 0.0
U206 U 0.83904 0.26798 0.35918 0.0
O207 O 0.85823 0.31407 0.38687 0.0
O208 O 0.81679 0.27322 0.40661 0.0
C209 C 0.83344 0.30472 0.40891 0.0
C210 C 0.79973 0.27408 0.30895 0.0
C211 C 0.80907 0.32731 0.41414 0.0
C212 C 0.75331 0.34347 0.40074 0.0
C213 C 0.77938 0.3256 0.39383 0.0
C214 C 0.78751 0.36707 0.44717 0.0
C215 C 0.7565 0.36374 0.42798 0.0
C216 C 0.81346 0.34875 0.44043 0.0
C217 C 0.89918 0.20596 0.37939 0.0
C218 C 0.92252 0.19578 0.43167 0.0
C219 C 0.9296 0.16065 0.387 0.0
C220 C 0.91213 0.17932 0.36712 0.0
C221 C 0.93438 0.16821 0.41963 0.0
C222 C 0.90488 0.21447 0.41169 0.0
C223 C 0.87713 0.22215 0.35851 0.0
O224 O 0.78717 0.25652 0.33437 0.0
O225 O 0.83301 0.2912 0.31243 0.0
O226 O 0.89042 0.25339 0.35034 0.0
O227 O 0.84276 0.21599 0.36565 0.0
H228 H 0.81502 0.21512 0.29207 0.0
H229 H 0.79076 0.18078 0.24613 0.0
H230 H 0.74044 0.25867 0.2123 0.0
H231 H 0.76399 0.29251 0.25888 0.0
H232 H 0.72983 0.34024 0.38547 0.0
H233 H 0.77561 0.30933 0.37326 0.0
H234 H 0.79136 0.38328 0.46776 0.0
H235 H 0.83639 0.35065 0.45619 0.0
H236 H 0.92646 0.20259 0.45658 0.0
H237 H 0.93825 0.1395 0.37706 0.0
H238 H 0.90773 0.17228 0.34228 0.0
H239 H 0.89496 0.23497 0.42154 0.0
C240 C 0.28348 0.64048 0.16966 0.0
C241 C 0.26872 0.66247 0.1506 0.0
C242 C 0.22204 0.61595 0.12863 0.0
C243 C 0.23858 0.65039 0.1304 0.0
C244 C 0.23674 0.59439 0.14835 0.0
C245 C 0.26686 0.60635 0.1681 0.0
U246 U 0.37375 0.68655 0.22064 0.0
O247 O 0.37595 0.68247 0.27422 0.0
O248 O 0.4064 0.65469 0.2446 0.0
C249 C 0.39754 0.66165 0.27367 0.0
C250 C 0.31457 0.65146 0.19266 0.0
C251 C 0.41054 0.64586 0.30352 0.0
C252 C 0.4179 0.59641 0.33491 0.0
C253 C 0.40636 0.611 0.30692 0.0
C254 C 0.43973 0.65094 0.35685 0.0
C255 C 0.43479 0.61589 0.36092 0.0
C256 C 0.42745 0.66543 0.3292 0.0
C257 C 0.41767 0.77398 0.17284 0.0
C258 C 0.4633 0.81504 0.14294 0.0
C259 C 0.40301 0.82332 0.14652 0.0
C260 C 0.39277 0.7936 0.16508 0.0
C261 C 0.4387 0.83498 0.13529 0.0
C262 C 0.453 0.78531 0.16113 0.0
C263 C 0.40974 0.74473 0.1963 0.0
O264 O 0.34714 0.64811 0.18566 0.0
O265 O 0.31437 0.67488 0.21385 0.0
O266 O 0.38317 0.74174 0.21685 0.0
O267 O 0.41645 0.71575 0.18873 0.0
H268 H 0.28041 0.68896 0.1513 0.0
H269 H 0.2284 0.66814 0.11595 0.0
H270 H 0.22451 0.56802 0.14924 0.0
H271 H 0.27688 0.58866 0.18279 0.0
H272 H 0.41301 0.56952 0.33619 0.0
H273 H 0.39354 0.59476 0.28797 0.0
H274 H 0.45386 0.66772 0.37477 0.0
H275 H 0.43184 0.6923 0.3277 0.0
H276 H 0.49092 0.82251 0.13495 0.0
H277 H 0.38309 0.83781 0.14195 0.0
H278 H 0.36549 0.78643 0.17397 0.0
H279 H 0.47329 0.77153 0.16688 0.0
C280 C 0.11988 0.2795 0.67591 0.0
C281 C 0.14592 0.26236 0.66531 0.0
C282 C 0.09976 0.2181 0.63893 0.0
C283 C 0.1361 0.23248 0.64705 0.0
C284 C 0.074 0.23552 0.64957 0.0
C285 C 0.08383 0.2654 0.66742 0.0
U286 U 0.16394 0.36872 0.72054 0.0
O287 O 0.13033 0.40085 0.74301 0.0
O288 O 0.16329 0.37614 0.77349 0.0
C289 C 0.14096 0.39627 0.77229 0.0
C290 C 0.12793 0.30951 0.69841 0.0
C291 C 0.12813 0.41202 0.80232 0.0
C292 C 0.08704 0.44229 0.8296 0.0
C293 C 0.09823 0.42717 0.80189 0.0
C294 C 0.13549 0.42857 0.85947 0.0
C295 C 0.10516 0.44328 0.85939 0.0
C296 C 0.14644 0.41322 0.83189 0.0
C297 C 0.2559 0.41323 0.67018 0.0
C298 C 0.31547 0.45037 0.66115 0.0
C299 C 0.28837 0.41328 0.61922 0.0
C300 C 0.25787 0.40104 0.63895 0.0
C301 C 0.31789 0.43834 0.6299 0.0
C302 C 0.28531 0.43801 0.6808 0.0
C303 C 0.22384 0.40206 0.69217 0.0
O304 O 0.15453 0.31329 0.71913 0.0
O305 O 0.12121 0.33823 0.68958 0.0
O306 O 0.19137 0.40462 0.6836 0.0
O307 O 0.22372 0.38019 0.71519 0.0
H308 H 0.1739 0.27172 0.67157 0.0
H309 H 0.15709 0.22009 0.64015 0.0
H310 H 0.04583 0.22602 0.64408 0.0
H311 H 0.06272 0.27722 0.67531 0.0
H312 H 0.06363 0.45293 0.82763 0.0
H313 H 0.08315 0.42727 0.77996 0.0
H314 H 0.15166 0.42941 0.88083 0.0
H315 H 0.16993 0.40265 0.83371 0.0
H316 H 0.33725 0.46936 0.67072 0.0
H317 H 0.28842 0.40353 0.59528 0.0
H318 H 0.23577 0.38217 0.62969 0.0
H319 H 0.28489 0.4482 0.70456 0.0
Dy320 Dy 0.0558 0.03611 0.50939 0.0
Dy321 Dy 0.98418 1.02153 0.55497 0.0
C322 C 0.04923 0.08874 0.56745 0.0
O323 O 0.06003 0.99243 0.53942 0.0
O324 O 0.01878 0.99161 0.57932 0.0
O325 O 0.11341 0.04309 0.50503 0.0
O326 O 0.07983 0.03966 0.46266 0.0
O327 O 0.97876 0.97372 0.52614 0.0
O328 O 1.01554 0.99449 0.4842 0.0
O329 O 0.97182 0.05213 0.51379 0.0
O330 O 0.0278 0.0752 0.49377 0.0
O331 O 0.92626 1.00907 0.55734 0.0
O332 O 0.95776 1.02096 0.60062 0.0
C333 C 0.04486 0.98025 0.56625 0.0
O334 O 0.06968 0.07789 0.54627 0.0
O335 O 1.01602 0.07173 0.57301 0.0
C336 C 0.13881 0.0717 0.45868 0.0
C337 C 0.18622 0.12218 0.4248 0.0
C338 C 0.16127 0.13028 0.44634 0.0
C339 C 0.13769 0.10516 0.46321 0.0
C340 C 0.16411 0.06359 0.43782 0.0
C341 C 0.18761 0.08862 0.42094 0.0
C342 C 0.11253 0.04474 0.4739 0.0
C343 C 0.99109 0.97008 0.49719 0.0
C344 C 0.99345 0.07445 0.49619 0.0
C345 C 0.90139 0.98357 0.60507 0.0
C346 C 0.85452 0.93192 0.63815 0.0
C347 C 0.88082 0.92476 0.61751 0.0
C348 C 0.9041 0.95043 0.60104 0.0
C349 C 0.87519 0.9908 0.62549 0.0
C350 C 0.85199 0.96521 0.64198 0.0
C351 C 0.92569 1.01099 0.5884 0.0
H352 H 0.15962 0.15596 0.44967 0.0
H353 H 0.11813 0.11173 0.47921 0.0
H354 H 0.16504 0.0378 0.43392 0.0
H355 H 0.20591 0.08158 0.40395 0.0
H356 H 0.8834 0.89933 0.61422 0.0
H357 H 0.92429 0.9445 0.58533 0.0
H358 H 0.87294 1.01631 0.62895 0.0
H359 H 0.83264 0.97156 0.65834 0.0
Dy360 Dy 0.48486 1.01821 1.00763 0.0
Dy361 Dy 0.55614 0.03061 0.05232 0.0
C362 C 0.49145 0.96412 0.06411 0.0
O363 O 0.48063 0.06094 0.03872 0.0
O364 O 0.51716 0.05254 0.08003 0.0
O365 O 0.42741 1.01056 1.00105 0.0
O366 O 0.46305 1.01546 0.95996 0.0
O367 O 0.56031 0.08031 1.02679 0.0
O368 O 0.52546 0.06061 0.98368 0.0
O369 O 0.56865 1.00486 1.00827 0.0
O370 O 0.51189 0.97755 0.99475 0.0
O371 O 0.61402 0.04411 0.05516 0.0
O372 O 0.58254 0.02895 0.09784 0.0
C373 C 0.4925 0.06671 0.06799 0.0
O374 O 0.46999 0.97796 0.04619 0.0
O375 O 0.52607 0.97833 0.06642 0.0
C376 C 0.4048 0.98214 0.95329 0.0
C377 C 0.3564 0.93251 0.91944 0.0
C378 C 0.36407 0.92748 0.95172 0.0
C379 C 0.38827 0.95213 0.96855 0.0
C380 C 0.39734 0.98691 0.92105 0.0
C381 C 0.37348 0.96232 0.90426 0.0
C382 C 0.42985 1.00908 0.96998 0.0
C383 C 0.5491 0.08489 0.99758 0.0
C384 C 0.54666 0.98043 0.99363 0.0
C385 C 0.63751 0.06794 0.10373 0.0
C386 C 0.682 0.11956 0.13836 0.0
C387 C 0.65521 0.1264 0.1179 0.0
C388 C 0.63311 0.10074 0.10065 0.0
C389 C 0.66414 0.06104 0.12405 0.0
C390 C 0.68618 0.08662 0.14131 0.0
C391 C 0.61451 0.04061 0.08609 0.0
H392 H 0.35145 0.90453 0.96382 0.0
H393 H 0.39391 0.9478 0.99338 0.0
H394 H 0.40986 1.00987 0.90887 0.0
H395 H 0.3678 0.9669 0.87948 0.0
H396 H 0.65138 0.15156 0.11529 0.0
H397 H 0.61255 0.10641 0.08505 0.0
H398 H 0.66767 0.03577 0.12678 0.0
H399 H 0.70597 0.08052 0.15751 0.0
Dy400 Dy 0.52162 0.49422 0.51136 0.0
Dy401 Dy 0.52183 0.56132 0.5517 0.0
C402 C 0.55465 0.5015 0.58543 0.0
O403 O 0.4677 0.47946 0.53674 0.0
O404 O 0.46671 0.52864 0.56187 0.0
O405 O 0.52056 0.44151 0.50913 0.0
O406 O 0.52846 0.47119 0.46615 0.0
O407 O 0.49867 0.57179 0.50331 0.0
O408 O 0.49102 0.5218 0.47743 0.0
O409 O 0.57804 0.57447 0.52993 0.0
O410 O 0.57381 0.52939 0.49704 0.0
O411 O 0.52217 0.61392 0.55336 0.0
O412 O 0.5162 0.58496 0.59685 0.0
C413 C 0.45171 0.49718 0.55577 0.0
O414 O 0.54909 0.4851 0.55812 0.0
O415 O 0.54695 0.53117 0.58777 0.0
C416 C 0.56405 0.43211 0.47267 0.0
C417 C 0.62914 0.41357 0.45863 0.0
C418 C 0.62734 0.4354 0.48392 0.0
C419 C 0.59512 0.44466 0.49082 0.0
C420 C 0.5658 0.41063 0.44718 0.0
C421 C 0.59815 0.40147 0.44015 0.0
C422 C 0.53064 0.44307 0.47937 0.0
C423 C 0.48789 0.55318 0.47796 0.0
C424 C 0.59138 0.55889 0.50697 0.0
C425 C 0.4806 0.62434 0.59168 0.0
C426 C 0.41633 0.64213 0.61015 0.0
C427 C 0.41862 0.62714 0.58041 0.0
C428 C 0.45042 0.61809 0.57134 0.0
C429 C 0.47836 0.63947 0.62126 0.0
C430 C 0.44649 0.6482 0.63046 0.0
C431 C 0.51335 0.6128 0.58343 0.0
H432 H 0.65096 0.44555 0.49818 0.0
H433 H 0.59451 0.4618 0.51024 0.0
H434 H 0.54224 0.40106 0.43267 0.0
H435 H 0.59885 0.38459 0.42054 0.0
H436 H 0.39563 0.62184 0.5645 0.0
H437 H 0.45125 0.60576 0.54866 0.0
H438 H 0.50113 0.64411 0.63744 0.0
H439 H 0.44542 0.65983 0.65347 0.0
Dy440 Dy 1.01754 0.56331 1.01134 0.0
Dy441 Dy 0.02072 0.4965 0.05013 0.0
C442 C 0.98837 0.55569 0.085 0.0
O443 O 0.06841 0.57878 0.04136 0.0
O444 O 0.07787 0.52706 0.05232 0.0
O445 O 1.0177 0.6159 1.01003 0.0
O446 O 1.01193 0.58782 0.96632 0.0
O447 O 0.04179 0.48592 1.00137 0.0
O448 O 0.049 0.53682 0.97679 0.0
O449 O 0.96335 0.48333 0.03027 0.0
O450 O 0.96661 0.52753 0.99607 0.0
O451 O 0.01821 0.44356 0.05361 0.0
O452 O 0.03031 0.47438 0.09538 0.0
C453 C 0.08882 0.55972 0.05333 0.0
O454 O 0.98452 0.56778 0.05617 0.0
O455 O 1.00416 0.53031 0.08786 0.0
C456 C 0.97541 0.62645 0.97189 0.0
C457 C 0.9098 0.64306 0.95469 0.0
C458 C 0.91612 0.6344 0.98637 0.0
C459 C 0.94843 0.62594 0.99485 0.0
C460 C 0.96935 0.63544 0.94033 0.0
C461 C 0.9369 0.64368 0.9318 0.0
C462 C 1.00855 0.61521 0.98001 0.0
C463 C 0.05234 0.50537 0.97641 0.0
C464 C 0.94948 0.49817 1.00679 0.0
C465 C 0.06367 0.43375 0.08811 0.0
C466 C 0.12877 0.41418 0.10021 0.0
C467 C 0.12597 0.43543 0.07441 0.0
C468 C 0.09374 0.44517 0.06846 0.0
C469 C 0.06636 0.41273 0.11398 0.0
C470 C 0.09868 0.40303 0.12002 0.0
C471 C 0.03049 0.44565 0.08275 0.0
H472 H 0.89621 0.63447 1.00475 0.0
H473 H 0.95213 0.61876 1.01934 0.0
H474 H 0.98955 0.63561 0.92216 0.0
H475 H 0.93281 0.65017 0.90718 0.0
H476 H 0.14884 0.44486 0.05907 0.0
H477 H 0.0924 0.4619 0.04866 0.0
H478 H 0.04358 0.40401 0.12962 0.0
H479 H 0.10007 0.38656 0.14001 0.0
C480 C 0.21138 0.19263 0.36479 0.0
C481 C 0.24804 0.19417 0.35903 0.0
C482 C 0.19198 0.17011 0.38698 0.0
C483 C 0.20848 0.14822 0.40424 0.0
H484 H 0.19714 0.20804 0.35113 0.0
H485 H 0.16349 0.16893 0.3897 0.0
S486 S 0.30473 0.14483 0.40067 0.0
N487 N 0.30081 0.17375 0.37425 0.0
N488 N 0.26423 0.13124 0.41603 0.0
C489 C 0.24543 0.15033 0.39965 0.0
C490 C 0.26523 0.17333 0.37703 0.0
C491 C 0.31312 0.87847 0.85097 0.0
C492 C 0.27682 0.86922 0.86027 0.0
C493 C 0.33913 0.89745 0.87107 0.0
C494 C 0.32986 0.90762 0.90129 0.0
H495 H 0.32119 0.87261 0.82729 0.0
H496 H 0.36648 0.90531 0.86242 0.0
S497 S 0.23934 0.88674 0.93825 0.0
N498 N 0.2335 0.86906 0.90274 0.0
N499 N 0.28248 0.90503 0.94054 0.0
C500 C 0.29413 0.89683 0.91168 0.0
C501 C 0.26756 0.87763 0.89112 0.0
C502 C 0.58623 0.48624 0.67266 0.0
C503 C 0.59305 0.4537 0.67244 0.0
C504 C 0.5745 0.50143 0.64495 0.0
C505 C 0.569 0.48535 0.61483 0.0
H506 H 0.58924 0.50009 0.69477 0.0
H507 H 0.56935 0.52611 0.64738 0.0
S508 S 0.58541 0.40092 0.59954 0.0
N509 N 0.59507 0.40696 0.6378 0.0
N510 N 0.57309 0.43475 0.58694 0.0
C511 C 0.57642 0.45309 0.6141 0.0
C512 C 0.58828 0.43761 0.64229 0.0
C513 C 0.93857 0.60654 0.14182 0.0
C514 C 0.9523 0.60292 0.17299 0.0
C515 C 0.95007 0.59165 0.11399 0.0
C516 C 0.97574 0.57149 0.11523 0.0
H517 H 0.91895 0.62161 0.13859 0.0
H518 H 0.93842 0.59593 0.09117 0.0
S519 S 0.02077 0.55304 0.19008 0.0
N520 N 0.99358 0.57645 0.20232 0.0
N521 N 1.01483 0.54938 0.15111 0.0
C522 C 0.98963 0.56753 0.14613 0.0
C523 C 0.97817 0.58287 0.17441 0.0
C524 C 0.45815 0.1433 0.08966 0.0
C525 C 0.45096 0.13903 0.12257 0.0
C526 C 0.47162 0.11977 0.07227 0.0
C527 C 0.47884 0.09126 0.08716 0.0
H528 H 0.45332 0.16502 0.07722 0.0
H529 H 0.47672 0.1241 0.04698 0.0
S530 S 0.46282 0.06714 0.17215 0.0
N531 N 0.45043 0.10296 0.16894 0.0
N532 N 0.47696 0.05944 0.13634 0.0
C533 C 0.47206 0.08669 0.11999 0.0
C534 C 0.45783 0.11039 0.13766 0.0
C535 C 0.06057 0.91476 0.62637 0.0
C536 C 0.07807 0.89466 0.60789 0.0
C537 C 0.04949 0.94222 0.61284 0.0
C538 C 0.0561 0.95094 0.58048 0.0
H539 H 0.05542 0.90921 0.65147 0.0
H540 H 0.03619 0.95699 0.62797 0.0
S541 S 0.10065 0.90593 0.52179 0.0
N542 N 0.1014 0.88539 0.55562 0.0
N543 N 0.08031 0.93622 0.53011 0.0
C544 C 0.07323 0.93069 0.56175 0.0
C545 C 0.08427 0.90279 0.57545 0.0
C546 C 0.87209 0.48143 0.9447 0.0
C547 C 0.84823 0.45181 0.95489 0.0
C548 C 0.90391 0.4958 0.96167 0.0
C549 C 0.91421 0.48165 0.99016 0.0
H550 H 0.8664 0.49365 0.92294 0.0
H551 H 0.92082 0.51835 0.95194 0.0
S552 S 0.86058 0.40499 0.0288 0.0
N553 N 0.83694 0.40947 0.99659 0.0
N554 N 0.89642 0.43616 0.02817 0.0
C555 C 0.89052 0.45208 1.00088 0.0
C556 C 0.8579 0.43733 0.98344 0.0
C557 C 0.66633 0.57719 0.44266 0.0
C558 C 0.69248 0.60452 0.45434 0.0
C559 C 0.63456 0.56293 0.45984 0.0
C560 C 0.62654 0.57501 0.48994 0.0
H561 H 0.67014 0.56676 0.41958 0.0
H562 H 0.61579 0.54225 0.449 0.0
S563 S 0.68673 0.64463 0.53302 0.0
N564 N 0.70843 0.64197 0.49937 0.0
N565 N 0.64898 0.6157 0.53115 0.0
C566 C 0.6525 0.60221 0.50215 0.0
C567 C 0.68512 0.61674 0.4846 0.0
C568 C 0.20856 0.3936 0.14412 0.0
C569 C 0.22585 0.37892 0.12028 0.0
C570 C 0.17762 0.40549 0.13733 0.0
C571 C 0.16285 0.40336 0.10639 0.0
H572 H 0.2187 0.39547 0.16839 0.0
H573 H 0.165 0.4162 0.15652 0.0
S574 S 0.19747 0.36708 0.03544 0.0
N575 N 0.22558 0.3629 0.06442 0.0
N576 N 0.16784 0.3857 0.05166 0.0
C577 C 0.18033 0.38957 0.08215 0.0
C578 C 0.21171 0.37728 0.08908 0.0
C579 C 0.56688 0.15258 0.93047 0.0
C580 C 0.58753 0.18162 0.94514 0.0
C581 C 0.55503 0.12193 0.94726 0.0
C582 C 0.56293 0.11813 0.97996 0.0
H583 H 0.55992 0.15335 0.90543 0.0
H584 H 0.53943 0.1009 0.93427 0.0
S585 S 0.61416 0.1865 0.03088 0.0
N586 N 0.61387 0.20423 0.99543 0.0
N587 N 0.59218 0.14739 1.02652 0.0
C588 C 0.5834 0.14699 0.99505 0.0
C589 C 0.59549 0.17826 0.9779 0.0
C590 C 0.96317 0.90653 0.42792 0.0
C591 C 0.95357 0.87474 0.44296 0.0
C592 C 0.97513 0.9367 0.44527 0.0
C593 C 0.9777 0.93737 0.47897 0.0
H594 H 0.96126 0.90839 0.40221 0.0
H595 H 0.98204 0.9599 0.432 0.0
S596 S 0.95928 0.8619 0.53088 0.0
N597 N 0.95044 0.84673 0.49457 0.0
N598 N 0.97122 0.90278 0.52661 0.0
C599 C 0.96837 0.90598 0.49445 0.0
C600 C 0.95676 0.87511 0.47677 0.0
C601 C 0.33854 0.65235 0.66242 0.0
C602 C 0.32384 0.67588 0.64552 0.0
C603 C 0.36754 0.64061 0.65024 0.0
C604 C 0.38271 0.6515 0.62044 0.0
H605 H 0.32839 0.64382 0.68586 0.0
H606 H 0.3788 0.62348 0.66462 0.0
S607 S 0.35274 0.71071 0.56538 0.0
N608 N 0.32574 0.70827 0.59649 0.0
N609 N 0.37963 0.68535 0.57329 0.0
C610 C 0.36697 0.67334 0.60234 0.0
C611 C 0.33765 0.68567 0.61491 0.0
C612 C 0.82657 0.85914 0.69536 0.0
C613 C 0.78944 0.85676 0.69919 0.0
C614 C 0.84713 0.88281 0.67479 0.0
C615 C 0.83138 0.90508 0.6573 0.0
H616 H 0.84019 0.84344 0.70931 0.0
H617 H 0.87584 0.8845 0.67351 0.0
S618 S 0.73453 0.90665 0.65594 0.0
N619 N 0.73721 0.87685 0.6818 0.0
N620 N 0.77594 0.92149 0.64306 0.0
C621 C 0.79404 0.90216 0.65993 0.0
C622 C 0.77306 0.87799 0.68089 0.0
C623 C 0.70702 0.19052 0.19727 0.0
C624 C 0.74444 0.19442 0.20071 0.0
C625 C 0.68725 0.16695 0.17632 0.0
C626 C 0.70412 0.14632 0.15807 0.0
H627 H 0.69264 0.20494 0.21177 0.0
H628 H 0.65833 0.16403 0.17529 0.0
S629 S 0.80196 0.14921 0.15554 0.0
N630 N 0.79802 0.17759 0.1822 0.0
N631 N 0.76076 0.13312 0.14277 0.0
C632 C 0.74169 0.15078 0.16036 0.0
C633 C 0.76186 0.17485 0.18169 0.0
C634 C 0.45918 0.56943 0.39028 0.0
C635 C 0.44738 0.59982 0.39145 0.0
C636 C 0.47129 0.55439 0.41786 0.0
C637 C 0.47281 0.56872 0.4487 0.0
H638 H 0.4598 0.55714 0.36758 0.0
H639 H 0.48027 0.53146 0.41474 0.0
S640 S 0.44225 0.64635 0.46693 0.0
N641 N 0.43573 0.6419 0.42806 0.0
N642 N 0.45939 0.61481 0.47851 0.0
C643 C 0.46063 0.59876 0.45042 0.0
C644 C 0.44786 0.61387 0.42245 0.0
C645 C 0.07804 0.48836 0.888 0.0
C646 C 0.09264 0.45945 0.88973 0.0
C647 C 0.06625 0.50348 0.91557 0.0
C648 C 0.06763 0.49053 0.94693 0.0
H649 H 0.07588 0.49981 0.86496 0.0
H650 H 0.05522 0.52528 0.91208 0.0
S651 S 0.10312 0.41543 0.96611 0.0
N652 N 0.1072 0.41881 0.92692 0.0
N653 N 0.08565 0.44671 0.97749 0.0
C654 C 0.08223 0.46178 0.94906 0.0
C655 C 0.0945 0.44656 0.92111 0.0
C656 C 0.61065 0.9431 0.94399 0.0
C657 C 0.59095 0.91046 0.93825 0.0
C658 C 0.59633 0.96536 0.96233 0.0
C659 C 0.56147 0.95601 0.97516 0.0
H660 H 0.63739 0.95153 0.93411 0.0
H661 H 0.61246 0.9903 0.96591 0.0
S662 S 0.4993 0.87291 0.9679 0.0
N663 N 0.53531 0.86946 0.94754 0.0
N664 N 0.50803 0.91136 0.98178 0.0
C665 C 0.54162 0.92324 0.96993 0.0
C666 C 0.55647 0.90043 0.9516 0.0
C667 C 0.98186 0.13645 0.4316 0.0
C668 C 0.95032 0.14622 0.44087 0.0
C669 C 0.99586 0.11363 0.44986 0.0
C670 C 0.97858 0.09926 0.47787 0.0
H671 H 0.99573 0.14639 0.40991 0.0
H672 H 0.02002 0.10668 0.44154 0.0
S673 S 0.89599 0.11749 0.51323 0.0
N674 N 0.90274 0.14043 0.4804 0.0
N675 N 0.92907 0.09765 0.51477 0.0
C676 C 0.94739 0.10928 0.48774 0.0
C677 C 0.93331 0.13277 0.46928 0.0
C678 C 0.16134 0.61966 0.10329 0.0
C679 C 0.18934 0.60243 0.10719 0.0
C680 C 0.12982 0.60643 0.08513 0.0
C681 C 0.12424 0.57506 0.06995 0.0
H682 H 0.16322 0.64328 0.11515 0.0
H683 H 0.10907 0.62054 0.08388 0.0
S684 S 0.1906 0.52135 0.06864 0.0
N685 N 0.2102 0.55336 0.09078 0.0
N686 N 0.15122 0.52843 0.05821 0.0
C687 C 0.15242 0.55807 0.07276 0.0
C688 C 0.18467 0.57167 0.09085 0.0
C689 C 0.36643 0.48717 0.6086 0.0
C690 C 0.35084 0.45256 0.60902 0.0
C691 C 0.39794 0.50109 0.59087 0.0
C692 C 0.41617 0.48137 0.57237 0.0
H693 H 0.35413 0.50392 0.62223 0.0
H694 H 0.4083 0.52779 0.59209 0.0
S695 S 0.38764 0.38911 0.56542 0.0
N696 N 0.35706 0.39883 0.58914 0.0
N697 N 0.41556 0.42467 0.55606 0.0
C698 C 0.4007 0.44671 0.57225 0.0
C699 C 0.36845 0.43251 0.59034 0.0
C700 C 0.84539 0.69234 0.91991 0.0
C701 C 0.81154 0.67474 0.93077 0.0
C702 C 0.87681 0.68158 0.9273 0.0
C703 C 0.87567 0.6527 0.94576 0.0
H704 H 0.84774 0.71519 0.90632 0.0
H705 H 0.90233 0.69655 0.91918 0.0
S706 S 0.79318 0.59559 0.9768 0.0
N707 N 0.77832 0.62578 0.95894 0.0
N708 N 0.83733 0.60511 0.97244 0.0
C709 C 0.8418 0.63421 0.95586 0.0
C710 C 0.80978 0.64534 0.94847 0.0
C711 C 0.48443 0.88993 0.12357 0.0
C712 C 0.45096 0.86803 0.11683 0.0
C713 C 0.49688 0.92045 0.10677 0.0
C714 C 0.47673 0.93128 0.08205 0.0
H715 H 0.50129 0.88362 0.1424 0.0
H716 H 0.52272 0.93582 0.11348 0.0
S717 S 0.38841 0.88266 0.05271 0.0
N718 N 0.39872 0.85933 0.08194 0.0
N719 N 0.42169 0.91609 0.05093 0.0
C720 C 0.4433 0.90957 0.07482 0.0
C721 C 0.43061 0.87837 0.09195 0.0
C722 C 0.05685 0.16086 0.62913 0.0
C723 C 0.08819 0.18496 0.62045 0.0
C724 C 0.04497 0.13034 0.61233 0.0
C725 C 0.06354 0.12159 0.58557 0.0
H726 H 0.04122 0.16544 0.64948 0.0
H727 H 0.02077 0.11333 0.62061 0.0
S728 S 0.14584 0.17629 0.5508 0.0
N729 N 0.13658 0.19782 0.5816 0.0
N730 N 0.11475 0.14119 0.55062 0.0
C731 C 0.09483 0.14551 0.57643 0.0
C732 C 0.10694 0.17669 0.59358 0.0
C733 C 0.70828 0.39408 0.41346 0.0
C734 C 0.72625 0.37935 0.43703 0.0
C735 C 0.67723 0.40552 0.42068 0.0
C736 C 0.66311 0.40297 0.45181 0.0
H737 H 0.71801 0.39639 0.38909 0.0
H738 H 0.66405 0.41629 0.40172 0.0
S739 S 0.6993 0.36607 0.52212 0.0
N740 N 0.727 0.3625 0.49279 0.0
N741 N 0.66921 0.38469 0.50637 0.0
C742 C 0.68116 0.38903 0.47575 0.0
C743 C 0.71258 0.37711 0.46838 0.0
loop_
_geom_bond_atom_site_label_1
_geom_bond_atom_site_label_2
_geom_bond_distance
_geom_bond_site_symmetry_2
_ccdc_geom_bond_type
C0 C1 1.264 . S
C0 C5 1.479 . S
C0 C10 1.465 . S
C1 C0 1.264 . S
C1 C3 1.339 . S
C1 H28 0.931 . S
C2 C3 1.395 . S
C2 C4 1.320 . S
C3 C1 1.339 . S
C3 C2 1.395 . S
C3 H29 0.929 . S
C4 C2 1.320 . S
C4 C5 1.405 . S
C4 H30 0.930 . S
C5 C0 1.479 . S
C5 C4 1.405 . S
C5 H31 0.931 . S
U6 O7 2.454 . S
U6 O8 2.458 . S
U6 C9 2.984 . S
U6 C10 2.847 . S
U6 C23 2.882 . S
U6 O24 2.441 . S
U6 O25 2.420 . S
U6 O26 2.455 . S
U6 O27 2.449 . S
O7 U6 2.454 . S
O7 C9 1.353 . S
O8 U6 2.458 . S
O8 C9 1.286 . S
C9 U6 2.984 . S
C9 O7 1.353 . S
C9 O8 1.286 . S
C9 C11 1.363 . S
C10 C0 1.465 . S
C10 U6 2.847 . S
C10 O24 1.249 . S
C10 O25 1.202 . S
C11 C9 1.363 . S
C11 C13 1.408 . S
C11 C16 1.342 . S
C12 C13 1.310 . S
C12 C15 1.461 . S
C12 H32 0.932 . S
C13 C11 1.408 . S
C13 C12 1.310 . S
C13 H33 0.930 . S
C14 C15 1.474 . S
C14 C16 1.285 . S
C14 H34 0.929 . S
C15 C12 1.461 . S
C15 C14 1.474 . S
C16 C11 1.342 . S
C16 C14 1.285 . S
C16 H35 0.930 . S
C17 C20 1.424 . S
C17 C22 1.245 . S
C17 C23 1.428 . S
C18 C21 1.260 . S
C18 C22 1.477 . S
C18 H36 0.932 . S
C19 C20 1.384 . S
C19 C21 1.479 . S
C19 H37 0.929 . S
C20 C17 1.424 . S
C20 C19 1.384 . S
C20 H38 0.928 . S
C21 C18 1.260 . S
C21 C19 1.479 . S
C22 C17 1.245 . S
C22 C18 1.477 . S
C22 H39 0.932 . S
C23 U6 2.882 . S
C23 C17 1.428 . S
C23 O26 1.301 . S
C23 O27 1.282 . S
O24 U6 2.441 . S
O24 C10 1.249 . S
O25 U6 2.420 . S
O25 C10 1.202 . S
O26 U6 2.455 . S
O26 C23 1.301 . S
O27 U6 2.449 . S
O27 C23 1.282 . S
H28 C1 0.931 . S
H29 C3 0.929 . S
H30 C4 0.930 . S
H31 C5 0.931 . S
H32 C12 0.932 . S
H33 C13 0.930 . S
H34 C14 0.929 . S
H35 C16 0.930 . S
H36 C18 0.932 . S
H37 C19 0.929 . S
H38 C20 0.928 . S
H39 C22 0.932 . S
C40 C41 1.264 . S
C40 C45 1.479 . S
C40 C50 1.465 . S
C41 C40 1.264 . S
C41 C43 1.339 . S
C41 H68 0.931 . S
C42 C43 1.395 . S
C42 C44 1.320 . S
C43 C41 1.339 . S
C43 C42 1.395 . S
C43 H69 0.929 . S
C44 C42 1.320 . S
C44 C45 1.405 . S
C44 H70 0.930 . S
C45 C40 1.479 . S
C45 C44 1.405 . S
C45 H71 0.931 . S
U46 O47 2.454 . S
U46 O48 2.458 . S
U46 C49 2.984 . S
U46 C50 2.847 . S
U46 C63 2.882 . S
U46 O64 2.441 . S
U46 O65 2.420 . S
U46 O66 2.455 . S
U46 O67 2.449 . S
O47 U46 2.454 . S
O47 C49 1.353 . S
O48 U46 2.458 . S
O48 C49 1.286 . S
C49 U46 2.984 . S
C49 O47 1.353 . S
C49 O48 1.286 . S
C49 C51 1.363 . S
C50 C40 1.465 . S
C50 U46 2.847 . S
C50 O64 1.249 . S
C50 O65 1.202 . S
C51 C49 1.363 . S
C51 C53 1.408 . S
C51 C56 1.342 . S
C52 C53 1.310 . S
C52 C55 1.461 . S
C52 H72 0.932 . S
C53 C51 1.408 . S
C53 C52 1.310 . S
C53 H73 0.930 . S
C54 C55 1.474 . S
C54 C56 1.285 . S
C54 H74 0.929 . S
C55 C52 1.461 . S
C55 C54 1.474 . S
C56 C51 1.342 . S
C56 C54 1.285 . S
C56 H75 0.930 . S
C57 C60 1.424 . S
C57 C62 1.245 . S
C57 C63 1.428 . S
C58 C61 1.260 . S
C58 C62 1.477 . S
C58 H76 0.932 . S
C59 C60 1.384 . S
C59 C61 1.479 . S
C59 H77 0.929 . S
C60 C57 1.424 . S
C60 C59 1.384 . S
C60 H78 0.928 . S
C61 C58 1.260 . S
C61 C59 1.479 . S
C62 C57 1.245 . S
C62 C58 1.477 . S
C62 H79 0.932 . S
C63 U46 2.882 . S
C63 C57 1.428 . S
C63 O66 1.301 . S
C63 O67 1.282 . S
O64 U46 2.441 . S
O64 C50 1.249 . S
O65 U46 2.420 . S
O65 C50 1.202 . S
O66 U46 2.455 . S
O66 C63 1.301 . S
O67 U46 2.449 . S
O67 C63 1.282 . S
H68 C41 0.931 . S
H69 C43 0.929 . S
H70 C44 0.930 . S
H71 C45 0.931 . S
H72 C52 0.932 . S
H73 C53 0.930 . S
H74 C54 0.929 . S
H75 C56 0.930 . S
H76 C58 0.932 . S
H77 C59 0.929 . S
H78 C60 0.928 . S
H79 C62 0.932 . S
C80 C81 1.264 . S
C80 C85 1.479 . S
C80 C90 1.465 . S
C81 C80 1.264 . S
C81 C83 1.339 . S
C81 H108 0.931 . S
C82 C83 1.395 . S
C82 C84 1.320 . S
C83 C81 1.339 . S
C83 C82 1.395 . S
C83 H109 0.929 . S
C84 C82 1.320 . S
C84 C85 1.405 . S
C84 H110 0.930 . S
C85 C80 1.479 . S
C85 C84 1.405 . S
C85 H111 0.931 . S
U86 O87 2.454 . S
U86 O88 2.458 . S
U86 C89 2.984 . S
U86 C90 2.847 . S
U86 C103 2.882 . S
U86 O104 2.441 . S
U86 O105 2.420 . S
U86 O106 2.455 . S
U86 O107 2.449 . S
O87 U86 2.454 . S
O87 C89 1.353 . S
O88 U86 2.458 . S
O88 C89 1.286 . S
C89 U86 2.984 . S
C89 O87 1.353 . S
C89 O88 1.286 . S
C89 C91 1.363 . S
C90 C80 1.465 . S
C90 U86 2.847 . S
C90 O104 1.249 . S
C90 O105 1.202 . S
C91 C89 1.363 . S
C91 C93 1.408 . S
C91 C96 1.342 . S
C92 C93 1.310 . S
C92 C95 1.461 . S
C92 H112 0.932 . S
C93 C91 1.408 . S
C93 C92 1.310 . S
C93 H113 0.930 . S
C94 C95 1.474 . S
C94 C96 1.285 . S
C94 H114 0.929 . S
C95 C92 1.461 . S
C95 C94 1.474 . S
C96 C91 1.342 . S
C96 C94 1.285 . S
C96 H115 0.930 . S
C97 C100 1.424 . S
C97 C102 1.245 . S
C97 C103 1.428 . S
C98 C101 1.260 . S
C98 C102 1.477 . S
C98 H116 0.932 . S
C99 C100 1.384 . S
C99 C101 1.479 . S
C99 H117 0.929 . S
C100 C97 1.424 . S
C100 C99 1.384 . S
C100 H118 0.928 . S
C101 C98 1.260 . S
C101 C99 1.479 . S
C102 C97 1.245 . S
C102 C98 1.477 . S
C102 H119 0.932 . S
C103 U86 2.882 . S
C103 C97 1.428 . S
C103 O106 1.301 . S
C103 O107 1.282 . S
O104 U86 2.441 . S
O104 C90 1.249 . S
O105 U86 2.420 . S
O105 C90 1.202 . S
O106 U86 2.455 . S
O106 C103 1.301 . S
O107 U86 2.449 . S
O107 C103 1.282 . S
H108 C81 0.931 . S
H109 C83 0.929 . S
H110 C84 0.930 . S
H111 C85 0.931 . S
H112 C92 0.932 . S
H113 C93 0.930 . S
H114 C94 0.929 . S
H115 C96 0.930 . S
H116 C98 0.932 . S
H117 C99 0.929 . S
H118 C100 0.928 . S
H119 C102 0.932 . S
C120 C121 1.264 . S
C120 C125 1.479 . S
C120 C130 1.465 . S
C121 C120 1.264 . S
C121 C123 1.339 . S
C121 H148 0.931 . S
C122 C123 1.395 . S
C122 C124 1.320 . S
C123 C121 1.339 . S
C123 C122 1.395 . S
C123 H149 0.929 . S
C124 C122 1.320 . S
C124 C125 1.405 . S
C124 H150 0.930 . S
C125 C120 1.479 . S
C125 C124 1.405 . S
C125 H151 0.931 . S
U126 O127 2.454 . S
U126 O128 2.458 . S
U126 C129 2.984 . S
U126 C130 2.847 . S
U126 C143 2.882 . S
U126 O144 2.441 . S
U126 O145 2.420 . S
U126 O146 2.455 . S
U126 O147 2.449 . S
O127 U126 2.454 . S
O127 C129 1.353 . S
O128 U126 2.458 . S
O128 C129 1.286 . S
C129 U126 2.984 . S
C129 O127 1.353 . S
C129 O128 1.286 . S
C129 C131 1.363 . S
C130 C120 1.465 . S
C130 U126 2.847 . S
C130 O144 1.249 . S
C130 O145 1.202 . S
C131 C129 1.363 . S
C131 C133 1.408 . S
C131 C136 1.342 . S
C132 C133 1.310 . S
C132 C135 1.461 . S
C132 H152 0.932 . S
C133 C131 1.408 . S
C133 C132 1.310 . S
C133 H153 0.930 . S
C134 C135 1.474 . S
C134 C136 1.285 . S
C134 H154 0.929 . S
C135 C132 1.461 . S
C135 C134 1.474 . S
C136 C131 1.342 . S
C136 C134 1.285 . S
C136 H155 0.930 . S
C137 C140 1.424 . S
C137 C142 1.245 . S
C137 C143 1.428 . S
C138 C141 1.260 . S
C138 C142 1.477 . S
C138 H156 0.932 . S
C139 C140 1.384 . S
C139 C141 1.479 . S
C139 H157 0.929 . S
C140 C137 1.424 . S
C140 C139 1.384 . S
C140 H158 0.928 . S
C141 C138 1.260 . S
C141 C139 1.479 . S
C142 C137 1.245 . S
C142 C138 1.477 . S
C142 H159 0.932 . S
C143 U126 2.882 . S
C143 C137 1.428 . S
C143 O146 1.301 . S
C143 O147 1.282 . S
O144 U126 2.441 . S
O144 C130 1.249 . S
O145 U126 2.420 . S
O145 C130 1.202 . S
O146 U126 2.455 . S
O146 C143 1.301 . S
O147 U126 2.449 . S
O147 C143 1.282 . S
H148 C121 0.931 . S
H149 C123 0.929 . S
H150 C124 0.930 . S
H151 C125 0.931 . S
H152 C132 0.932 . S
H153 C133 0.930 . S
H154 C134 0.929 . S
H155 C136 0.930 . S
H156 C138 0.932 . S
H157 C139 0.929 . S
H158 C140 0.928 . S
H159 C142 0.932 . S
C160 C161 1.264 . S
C160 C165 1.479 . S
C160 C170 1.465 . S
C161 C160 1.264 . S
C161 C163 1.339 . S
C161 H188 0.931 . S
C162 C163 1.395 . S
C162 C164 1.320 . S
C163 C161 1.339 . S
C163 C162 1.395 . S
C163 H189 0.929 . S
C164 C162 1.320 . S
C164 C165 1.405 . S
C164 H190 0.930 . S
C165 C160 1.479 . S
C165 C164 1.405 . S
C165 H191 0.931 . S
U166 O167 2.454 . S
U166 O168 2.458 . S
U166 C169 2.984 . S
U166 C170 2.847 . S
U166 C183 2.882 . S
U166 O184 2.441 . S
U166 O185 2.420 . S
U166 O186 2.455 . S
U166 O187 2.449 . S
O167 U166 2.454 . S
O167 C169 1.353 . S
O168 U166 2.458 . S
O168 C169 1.286 . S
C169 U166 2.984 . S
C169 O167 1.353 . S
C169 O168 1.286 . S
C169 C171 1.363 . S
C170 C160 1.465 . S
C170 U166 2.847 . S
C170 O184 1.249 . S
C170 O185 1.202 . S
C171 C169 1.363 . S
C171 C173 1.408 . S
C171 C176 1.342 . S
C172 C173 1.310 . S
C172 C175 1.461 . S
C172 H192 0.932 . S
C173 C171 1.408 . S
C173 C172 1.310 . S
C173 H193 0.930 . S
C174 C175 1.474 . S
C174 C176 1.285 . S
C174 H194 0.929 . S
C175 C172 1.461 . S
C175 C174 1.474 . S
C176 C171 1.342 . S
C176 C174 1.285 . S
C176 H195 0.930 . S
C177 C180 1.424 . S
C177 C182 1.245 . S
C177 C183 1.428 . S
C178 C181 1.260 . S
C178 C182 1.477 . S
C178 H196 0.932 . S
C179 C180 1.384 . S
C179 C181 1.479 . S
C179 H197 0.929 . S
C180 C177 1.424 . S
C180 C179 1.384 . S
C180 H198 0.928 . S
C181 C178 1.260 . S
C181 C179 1.479 . S
C182 C177 1.245 . S
C182 C178 1.477 . S
C182 H199 0.932 . S
C183 U166 2.882 . S
C183 C177 1.428 . S
C183 O186 1.301 . S
C183 O187 1.282 . S
O184 U166 2.441 . S
O184 C170 1.249 . S
O185 U166 2.420 . S
O185 C170 1.202 . S
O186 U166 2.455 . S
O186 C183 1.301 . S
O187 U166 2.449 . S
O187 C183 1.282 . S
H188 C161 0.931 . S
H189 C163 0.929 . S
H190 C164 0.930 . S
H191 C165 0.931 . S
H192 C172 0.932 . S
H193 C173 0.930 . S
H194 C174 0.929 . S
H195 C176 0.930 . S
H196 C178 0.932 . S
H197 C179 0.929 . S
H198 C180 0.928 . S
H199 C182 0.932 . S
C200 C201 1.264 . S
C200 C205 1.479 . S
C200 C210 1.465 . S
C201 C200 1.264 . S
C201 C203 1.339 . S
C201 H228 0.931 . S
C202 C203 1.395 . S
C202 C204 1.320 . S
C203 C201 1.339 . S
C203 C202 1.395 . S
C203 H229 0.929 . S
C204 C202 1.320 . S
C204 C205 1.405 . S
C204 H230 0.930 . S
C205 C200 1.479 . S
C205 C204 1.405 . S
C205 H231 0.931 . S
U206 O207 2.454 . S
U206 O208 2.458 . S
U206 C209 2.984 . S
U206 C210 2.847 . S
U206 C223 2.882 . S
U206 O224 2.441 . S
U206 O225 2.420 . S
U206 O226 2.455 . S
U206 O227 2.449 . S
O207 U206 2.454 . S
O207 C209 1.353 . S
O208 U206 2.458 . S
O208 C209 1.286 . S
C209 U206 2.984 . S
C209 O207 1.353 . S
C209 O208 1.286 . S
C209 C211 1.363 . S
C210 C200 1.465 . S
C210 U206 2.847 . S
C210 O224 1.249 . S
C210 O225 1.202 . S
C211 C209 1.363 . S
C211 C213 1.408 . S
C211 C216 1.342 . S
C212 C213 1.310 . S
C212 C215 1.461 . S
C212 H232 0.932 . S
C213 C211 1.408 . S
C213 C212 1.310 . S
C213 H233 0.930 . S
C214 C215 1.474 . S
C214 C216 1.285 . S
C214 H234 0.929 . S
C215 C212 1.461 . S
C215 C214 1.474 . S
C216 C211 1.342 . S
C216 C214 1.285 . S
C216 H235 0.930 . S
C217 C220 1.424 . S
C217 C222 1.245 . S
C217 C223 1.428 . S
C218 C221 1.260 . S
C218 C222 1.477 . S
C218 H236 0.932 . S
C219 C220 1.384 . S
C219 C221 1.479 . S
C219 H237 0.929 . S
C220 C217 1.424 . S
C220 C219 1.384 . S
C220 H238 0.928 . S
C221 C218 1.260 . S
C221 C219 1.479 . S
C222 C217 1.245 . S
C222 C218 1.477 . S
C222 H239 0.932 . S
C223 U206 2.882 . S
C223 C217 1.428 . S
C223 O226 1.301 . S
C223 O227 1.282 . S
O224 U206 2.441 . S
O224 C210 1.249 . S
O225 U206 2.420 . S
O225 C210 1.202 . S
O226 U206 2.455 . S
O226 C223 1.301 . S
O227 U206 2.449 . S
O227 C223 1.282 . S
H228 C201 0.931 . S
H229 C203 0.929 . S
H230 C204 0.930 . S
H231 C205 0.931 . S
H232 C212 0.932 . S
H233 C213 0.930 . S
H234 C214 0.929 . S
H235 C216 0.930 . S
H236 C218 0.932 . S
H237 C219 0.929 . S
H238 C220 0.928 . S
H239 C222 0.932 . S
C240 C241 1.264 . S
C240 C245 1.479 . S
C240 C250 1.465 . S
C241 C240 1.264 . S
C241 C243 1.339 . S
C241 H268 0.931 . S
C242 C243 1.395 . S
C242 C244 1.320 . S
C243 C241 1.339 . S
C243 C242 1.395 . S
C243 H269 0.929 . S
C244 C242 1.320 . S
C244 C245 1.405 . S
C244 H270 0.930 . S
C245 C240 1.479 . S
C245 C244 1.405 . S
C245 H271 0.931 . S
U246 O247 2.454 . S
U246 O248 2.458 . S
U246 C249 2.984 . S
U246 C250 2.847 . S
U246 C263 2.882 . S
U246 O264 2.441 . S
U246 O265 2.420 . S
U246 O266 2.455 . S
U246 O267 2.449 . S
O247 U246 2.454 . S
O247 C249 1.353 . S
O248 U246 2.458 . S
O248 C249 1.286 . S
C249 U246 2.984 . S
C249 O247 1.353 . S
C249 O248 1.286 . S
C249 C251 1.363 . S
C250 C240 1.465 . S
C250 U246 2.847 . S
C250 O264 1.249 . S
C250 O265 1.202 . S
C251 C249 1.363 . S
C251 C253 1.408 . S
C251 C256 1.342 . S
C252 C253 1.310 . S
C252 C255 1.461 . S
C252 H272 0.932 . S
C253 C251 1.408 . S
C253 C252 1.310 . S
C253 H273 0.930 . S
C254 C255 1.474 . S
C254 C256 1.285 . S
C254 H274 0.929 . S
C255 C252 1.461 . S
C255 C254 1.474 . S
C256 C251 1.342 . S
C256 C254 1.285 . S
C256 H275 0.930 . S
C257 C260 1.424 . S
C257 C262 1.245 . S
C257 C263 1.428 . S
C258 C261 1.260 . S
C258 C262 1.477 . S
C258 H276 0.932 . S
C259 C260 1.384 . S
C259 C261 1.479 . S
C259 H277 0.929 . S
C260 C257 1.424 . S
C260 C259 1.384 . S
C260 H278 0.928 . S
C261 C258 1.260 . S
C261 C259 1.479 . S
C262 C257 1.245 . S
C262 C258 1.477 . S
C262 H279 0.932 . S
C263 U246 2.882 . S
C263 C257 1.428 . S
C263 O266 1.301 . S
C263 O267 1.282 . S
O264 U246 2.441 . S
O264 C250 1.249 . S
O265 U246 2.420 . S
O265 C250 1.202 . S
O266 U246 2.455 . S
O266 C263 1.301 . S
O267 U246 2.449 . S
O267 C263 1.282 . S
H268 C241 0.931 . S
H269 C243 0.929 . S
H270 C244 0.930 . S
H271 C245 0.931 . S
H272 C252 0.932 . S
H273 C253 0.930 . S
H274 C254 0.929 . S
H275 C256 0.930 . S
H276 C258 0.932 . S
H277 C259 0.929 . S
H278 C260 0.928 . S
H279 C262 0.932 . S
C280 C281 1.264 . S
C280 C285 1.479 . S
C280 C290 1.465 . S
C281 C280 1.264 . S
C281 C283 1.339 . S
C281 H308 0.931 . S
C282 C283 1.395 . S
C282 C284 1.320 . S
C283 C281 1.339 . S
C283 C282 1.395 . S
C283 H309 0.929 . S
C284 C282 1.320 . S
C284 C285 1.405 . S
C284 H310 0.930 . S
C285 C280 1.479 . S
C285 C284 1.405 . S
C285 H311 0.931 . S
U286 O287 2.454 . S
U286 O288 2.458 . S
U286 C289 2.984 . S
U286 C290 2.847 . S
U286 C303 2.882 . S
U286 O304 2.441 . S
U286 O305 2.420 . S
U286 O306 2.455 . S
U286 O307 2.449 . S
O287 U286 2.454 . S
O287 C289 1.353 . S
O288 U286 2.458 . S
O288 C289 1.286 . S
C289 U286 2.984 . S
C289 O287 1.353 . S
C289 O288 1.286 . S
C289 C291 1.363 . S
C290 C280 1.465 . S
C290 U286 2.847 . S
C290 O304 1.249 . S
C290 O305 1.202 . S
C291 C289 1.363 . S
C291 C293 1.408 . S
C291 C296 1.342 . S
C292 C293 1.310 . S
C292 C295 1.461 . S
C292 H312 0.932 . S
C293 C291 1.408 . S
C293 C292 1.310 . S
C293 H313 0.930 . S
C294 C295 1.474 . S
C294 C296 1.285 . S
C294 H314 0.929 . S
C295 C292 1.461 . S
C295 C294 1.474 . S
C296 C291 1.342 . S
C296 C294 1.285 . S
C296 H315 0.930 . S
C297 C300 1.424 . S
C297 C302 1.245 . S
C297 C303 1.428 . S
C298 C301 1.260 . S
C298 C302 1.477 . S
C298 H316 0.932 . S
C299 C300 1.384 . S
C299 C301 1.479 . S
C299 H317 0.929 . S
C300 C297 1.424 . S
C300 C299 1.384 . S
C300 H318 0.928 . S
C301 C298 1.260 . S
C301 C299 1.479 . S
C302 C297 1.245 . S
C302 C298 1.477 . S
C302 H319 0.932 . S
C303 U286 2.882 . S
C303 C297 1.428 . S
C303 O306 1.301 . S
C303 O307 1.282 . S
O304 U286 2.441 . S
O304 C290 1.249 . S
O305 U286 2.420 . S
O305 C290 1.202 . S
O306 U286 2.455 . S
O306 C303 1.301 . S
O307 U286 2.449 . S
O307 C303 1.282 . S
H308 C281 0.931 . S
H309 C283 0.929 . S
H310 C284 0.930 . S
H311 C285 0.931 . S
H312 C292 0.932 . S
H313 C293 0.930 . S
H314 C294 0.929 . S
H315 C296 0.930 . S
H316 C298 0.932 . S
H317 C299 0.929 . S
H318 C300 0.928 . S
H319 C302 0.932 . S
Dy320 O323 2.307 1_545 S
Dy320 O325 2.395 . S
Dy320 O326 2.379 . S
Dy320 O328 2.339 1_545 S
Dy320 O330 2.293 1_455 S
Dy320 O334 2.275 . S
Dy320 C342 2.738 . S
Dy321 O324 2.279 1_645 S
Dy321 O327 2.256 1_545 S
Dy321 O329 2.329 . S
Dy321 O331 2.368 1_545 S
Dy321 O332 2.375 1_545 S
Dy321 O335 2.363 . S
Dy321 C351 2.721 1_545 S
C322 O334 1.254 . S
C322 O335 1.257 1_455 S
O323 Dy320 2.307 1_565 S
O323 C333 1.266 . S
O324 Dy321 2.279 1_465 S
O324 C333 1.236 . S
O325 Dy320 2.395 . S
O325 C342 1.255 . S
O326 Dy320 2.379 . S
O326 C342 1.249 . S
O327 Dy321 2.256 1_565 S
O327 C343 1.254 . S
O328 Dy320 2.339 1_565 S
O328 C343 1.257 1_455 S
O329 Dy321 2.329 . S
O329 C344 1.266 . S
O330 Dy320 2.293 1_655 S
O330 C344 1.240 . S
O331 Dy321 2.368 1_565 S
O331 C351 1.255 . S
O332 Dy321 2.375 1_565 S
O332 C351 1.249 . S
C333 O323 1.266 . S
C333 O324 1.236 . S
O334 Dy320 2.275 . S
O334 C322 1.254 . S
O335 Dy321 2.363 . S
O335 C322 1.257 1_655 S
C336 C339 1.344 . S
C336 C340 1.328 . S
C336 C342 1.516 . S
C337 C338 1.304 . S
C337 C341 1.323 . S
C338 C337 1.304 . S
C338 C339 1.371 . S
C338 H352 0.930 . S
C339 C336 1.344 . S
C339 C338 1.371 . S
C339 H353 0.931 . S
C340 C336 1.328 . S
C340 C341 1.433 . S
C340 H354 0.931 . S
C341 C337 1.323 . S
C341 C340 1.433 . S
C341 H355 0.933 . S
C342 Dy320 2.738 . S
C342 O325 1.255 . S
C342 O326 1.249 . S
C342 C336 1.516 . S
C343 O327 1.254 . S
C343 O328 1.257 1_655 S
C344 O329 1.266 . S
C344 O330 1.240 . S
C345 C348 1.344 . S
C345 C349 1.328 . S
C345 C351 1.516 . S
C346 C347 1.304 . S
C346 C350 1.323 . S
C347 C346 1.304 . S
C347 C348 1.371 . S
C347 H356 0.930 . S
C348 C345 1.344 . S
C348 C347 1.371 . S
C348 H357 0.931 . S
C349 C345 1.328 . S
C349 C350 1.433 . S
C349 H358 0.931 . S
C350 C346 1.323 . S
C350 C349 1.433 . S
C350 H359 0.933 . S
C351 Dy321 2.721 1_565 S
C351 O331 1.255 . S
C351 O332 1.249 . S
C351 C345 1.516 . S
H352 C338 0.930 . S
H353 C339 0.931 . S
H354 C340 0.931 . S
H355 C341 0.933 . S
H356 C347 0.930 . S
H357 C348 0.931 . S
H358 C349 0.931 . S
H359 C350 0.933 . S
Dy360 O363 2.307 1_566 S
Dy360 O365 2.395 . S
Dy360 O366 2.379 . S
Dy360 O368 2.339 1_565 S
Dy360 O370 2.298 . S
Dy360 O374 2.275 1_556 S
Dy360 C382 2.738 . S
Dy361 O364 2.298 . S
Dy361 O367 2.275 1_554 S
Dy361 O369 2.307 1_544 S
Dy361 O371 2.395 . S
Dy361 O372 2.379 . S
Dy361 O375 2.339 1_545 S
Dy361 C391 2.738 . S
C362 O374 1.254 . S
C362 O375 1.257 . S
O363 Dy360 2.307 1_544 S
O363 C373 1.266 . S
O364 Dy361 2.298 . S
O364 C373 1.236 . S
O365 Dy360 2.395 . S
O365 C382 1.255 . S
O366 Dy360 2.379 . S
O366 C382 1.249 . S
O367 Dy361 2.275 1_556 S
O367 C383 1.254 . S
O368 Dy360 2.339 1_545 S
O368 C383 1.257 . S
O369 Dy361 2.307 1_566 S
O369 C384 1.266 . S
O370 Dy360 2.298 . S
O370 C384 1.236 . S
O371 Dy361 2.395 . S
O371 C391 1.255 . S
O372 Dy361 2.379 . S
O372 C391 1.249 . S
C373 O363 1.266 . S
C373 O364 1.236 . S
O374 Dy360 2.275 1_554 S
O374 C362 1.254 . S
O375 Dy361 2.339 1_565 S
O375 C362 1.257 . S
C376 C379 1.344 . S
C376 C380 1.328 . S
C376 C382 1.516 . S
C377 C378 1.304 . S
C377 C381 1.323 . S
C378 C377 1.304 . S
C378 C379 1.371 . S
C378 H392 0.930 . S
C379 C376 1.344 . S
C379 C378 1.371 . S
C379 H393 0.931 . S
C380 C376 1.328 . S
C380 C381 1.433 . S
C380 H394 0.931 . S
C381 C377 1.323 . S
C381 C380 1.433 . S
C381 H395 0.933 . S
C382 Dy360 2.738 . S
C382 O365 1.255 . S
C382 O366 1.249 . S
C382 C376 1.516 . S
C383 O367 1.254 . S
C383 O368 1.257 . S
C384 O369 1.266 . S
C384 O370 1.236 . S
C385 C388 1.344 . S
C385 C389 1.328 . S
C385 C391 1.516 . S
C386 C387 1.304 . S
C386 C390 1.323 . S
C387 C386 1.304 . S
C387 C388 1.371 . S
C387 H396 0.930 . S
C388 C385 1.344 . S
C388 C387 1.371 . S
C388 H397 0.931 . S
C389 C385 1.328 . S
C389 C390 1.433 . S
C389 H398 0.931 . S
C390 C386 1.323 . S
C390 C389 1.433 . S
C390 H399 0.933 . S
C391 Dy361 2.738 . S
C391 O371 1.255 . S
C391 O372 1.249 . S
C391 C385 1.516 . S
H392 C378 0.930 . S
H393 C379 0.931 . S
H394 C380 0.931 . S
H395 C381 0.933 . S
H396 C387 0.930 . S
H397 C388 0.931 . S
H398 C389 0.931 . S
H399 C390 0.933 . S
Dy400 O403 2.307 . S
Dy400 O405 2.395 . S
Dy400 O406 2.379 . S
Dy400 O408 2.339 . S
Dy400 O410 2.298 . S
Dy400 O414 2.275 . S
Dy400 C422 2.738 . S
Dy401 O404 2.298 . S
Dy401 O407 2.275 . S
Dy401 O409 2.307 . S
Dy401 O411 2.395 . S
Dy401 O412 2.379 . S
Dy401 O415 2.339 . S
Dy401 C431 2.738 . S
C402 O414 1.254 . S
C402 O415 1.257 . S
O403 Dy400 2.307 . S
O403 C413 1.266 . S
O404 Dy401 2.298 . S
O404 C413 1.236 . S
O405 Dy400 2.395 . S
O405 C422 1.255 . S
O406 Dy400 2.379 . S
O406 C422 1.249 . S
O407 Dy401 2.275 . S
O407 C423 1.254 . S
O408 Dy400 2.339 . S
O408 C423 1.257 . S
O409 Dy401 2.307 . S
O409 C424 1.266 . S
O410 Dy400 2.298 . S
O410 C424 1.236 . S
O411 Dy401 2.395 . S
O411 C431 1.255 . S
O412 Dy401 2.379 . S
O412 C431 1.249 . S
C413 O403 1.266 . S
C413 O404 1.236 . S
O414 Dy400 2.275 . S
O414 C402 1.254 . S
O415 Dy401 2.339 . S
O415 C402 1.257 . S
C416 C419 1.344 . S
C416 C420 1.328 . S
C416 C422 1.516 . S
C417 C418 1.304 . S
C417 C421 1.323 . S
C418 C417 1.304 . S
C418 C419 1.371 . S
C418 H432 0.930 . S
C419 C416 1.344 . S
C419 C418 1.371 . S
C419 H433 0.931 . S
C420 C416 1.328 . S
C420 C421 1.433 . S
C420 H434 0.931 . S
C421 C417 1.323 . S
C421 C420 1.433 . S
C421 H435 0.933 . S
C422 Dy400 2.738 . S
C422 O405 1.255 . S
C422 O406 1.249 . S
C422 C416 1.516 . S
C423 O407 1.254 . S
C423 O408 1.257 . S
C424 O409 1.266 . S
C424 O410 1.236 . S
C425 C428 1.344 . S
C425 C429 1.328 . S
C425 C431 1.516 . S
C426 C427 1.304 . S
C426 C430 1.323 . S
C427 C426 1.304 . S
C427 C428 1.371 . S
C427 H436 0.930 . S
C428 C425 1.344 . S
C428 C427 1.371 . S
C428 H437 0.931 . S
C429 C425 1.328 . S
C429 C430 1.433 . S
C429 H438 0.931 . S
C430 C426 1.323 . S
C430 C429 1.433 . S
C430 H439 0.933 . S
C431 Dy401 2.738 . S
C431 O411 1.255 . S
C431 O412 1.249 . S
C431 C425 1.516 . S
H432 C418 0.930 . S
H433 C419 0.931 . S
H434 C420 0.931 . S
H435 C421 0.933 . S
H436 C427 0.930 . S
H437 C428 0.931 . S
H438 C429 0.931 . S
H439 C430 0.933 . S
Dy440 O443 2.324 1_556 S
Dy440 O445 2.378 1_455 S
Dy440 O446 2.370 1_455 S
Dy440 O448 2.349 . S
Dy440 O450 2.287 1_455 S
Dy440 O454 2.272 1_456 S
Dy440 C462 2.724 1_455 S
Dy441 O444 2.298 . S
Dy441 O447 2.275 1_554 S
Dy441 O449 2.307 1_455 S
Dy441 O451 2.395 . S
Dy441 O452 2.379 . S
Dy441 O455 2.339 1_455 S
Dy441 C471 2.738 . S
C442 O454 1.254 . S
C442 O455 1.257 . S
O443 Dy440 2.324 1_554 S
O443 C453 1.266 . S
O444 Dy441 2.298 . S
O444 C453 1.236 . S
O445 Dy440 2.378 1_655 S
O445 C462 1.255 . S
O446 Dy440 2.370 1_655 S
O446 C462 1.249 . S
O447 Dy441 2.275 1_556 S
O447 C463 1.254 . S
O448 Dy440 2.349 . S
O448 C463 1.257 . S
O449 Dy441 2.307 1_655 S
O449 C464 1.266 1_554 S
O450 Dy440 2.287 1_655 S
O450 C464 1.236 . S
O451 Dy441 2.395 . S
O451 C471 1.255 . S
O452 Dy441 2.379 . S
O452 C471 1.249 . S
C453 O443 1.266 . S
C453 O444 1.236 . S
O454 Dy440 2.272 1_654 S
O454 C442 1.254 . S
O455 Dy441 2.339 1_655 S
O455 C442 1.257 . S
C456 C459 1.344 . S
C456 C460 1.328 . S
C456 C462 1.516 . S
C457 C458 1.304 . S
C457 C461 1.323 . S
C458 C457 1.304 . S
C458 C459 1.371 . S
C458 H472 0.930 . S
C459 C456 1.344 . S
C459 C458 1.371 . S
C459 H473 0.931 . S
C460 C456 1.328 . S
C460 C461 1.433 . S
C460 H474 0.931 . S
C461 C457 1.323 . S
C461 C460 1.433 . S
C461 H475 0.933 . S
C462 Dy440 2.724 1_655 S
C462 O445 1.255 . S
C462 O446 1.249 . S
C462 C456 1.516 . S
C463 O447 1.254 . S
C463 O448 1.257 . S
C464 O449 1.266 1_556 S
C464 O450 1.236 . S
C465 C468 1.344 . S
C465 C469 1.328 . S
C465 C471 1.516 . S
C466 C467 1.304 . S
C466 C470 1.323 . S
C467 C466 1.304 . S
C467 C468 1.371 . S
C467 H476 0.930 . S
C468 C465 1.344 . S
C468 C467 1.371 . S
C468 H477 0.931 . S
C469 C465 1.328 . S
C469 C470 1.433 . S
C469 H478 0.931 . S
C470 C466 1.323 . S
C470 C469 1.433 . S
C470 H479 0.933 . S
C471 Dy441 2.738 . S
C471 O451 1.255 . S
C471 O452 1.249 . S
C471 C465 1.516 . S
H472 C458 0.930 . S
H473 C459 0.931 . S
H474 C460 0.931 . S
H475 C461 0.933 . S
H476 C467 0.930 . S
H477 C468 0.931 . S
H478 C469 0.931 . S
H479 C470 0.933 . S
C480 C481 1.369 . S
C480 C482 1.419 . S
C480 H484 0.930 . S
C481 C480 1.369 . S
C481 C490 1.429 . S
C482 C480 1.419 . S
C482 C483 1.363 . S
C482 H485 0.929 . S
C483 C482 1.363 . S
C483 C489 1.428 . S
H484 C480 0.930 . S
H485 C482 0.929 . S
S486 N487 1.613 . S
S486 N488 1.610 . S
N487 S486 1.613 . S
N487 C490 1.350 . S
N488 S486 1.610 . S
N488 C489 1.351 . S
C489 C483 1.428 . S
C489 N488 1.351 . S
C489 C490 1.434 . S
C490 C481 1.429 . S
C490 N487 1.350 . S
C490 C489 1.434 . S
C491 C492 1.369 . S
C491 C493 1.419 . S
C491 H495 0.930 . S
C492 C491 1.369 . S
C492 C501 1.429 . S
C493 C491 1.419 . S
C493 C494 1.363 . S
C493 H496 0.929 . S
C494 C493 1.363 . S
C494 C500 1.428 . S
H495 C491 0.930 . S
H496 C493 0.929 . S
S497 N498 1.613 . S
S497 N499 1.610 . S
N498 S497 1.613 . S
N498 C501 1.350 . S
N499 S497 1.610 . S
N499 C500 1.351 . S
C500 C494 1.428 . S
C500 N499 1.351 . S
C500 C501 1.434 . S
C501 C492 1.429 . S
C501 N498 1.350 . S
C501 C500 1.434 . S
C502 C503 1.369 . S
C502 C504 1.419 . S
C502 H506 0.930 . S
C503 C502 1.369 . S
C503 C512 1.429 . S
C504 C502 1.419 . S
C504 C505 1.363 . S
C504 H507 0.929 . S
C505 C504 1.363 . S
C505 C511 1.428 . S
H506 C502 0.930 . S
H507 C504 0.929 . S
S508 N509 1.613 . S
S508 N510 1.610 . S
N509 S508 1.613 . S
N509 C512 1.350 . S
N510 S508 1.610 . S
N510 C511 1.351 . S
C511 C505 1.428 . S
C511 N510 1.351 . S
C511 C512 1.434 . S
C512 C503 1.429 . S
C512 N509 1.350 . S
C512 C511 1.434 . S
C513 C514 1.369 . S
C513 C515 1.419 . S
C513 H517 0.930 . S
C514 C513 1.369 . S
C514 C523 1.429 . S
C515 C513 1.419 . S
C515 C516 1.363 . S
C515 H518 0.929 . S
C516 C515 1.363 . S
C516 C522 1.428 . S
H517 C513 0.930 . S
H518 C515 0.929 . S
S519 N520 1.613 . S
S519 N521 1.610 . S
N520 S519 1.613 . S
N520 C523 1.350 1_455 S
N521 S519 1.610 . S
N521 C522 1.351 1_455 S
C522 C516 1.428 . S
C522 N521 1.351 1_655 S
C522 C523 1.434 . S
C523 C514 1.429 . S
C523 N520 1.350 1_655 S
C523 C522 1.434 . S
C524 C525 1.369 . S
C524 C526 1.419 . S
C524 H528 0.930 . S
C525 C524 1.369 . S
C525 C534 1.429 . S
C526 C524 1.419 . S
C526 C527 1.363 . S
C526 H529 0.929 . S
C527 C526 1.363 . S
C527 C533 1.428 . S
H528 C524 0.930 . S
H529 C526 0.929 . S
S530 N531 1.613 . S
S530 N532 1.610 . S
N531 S530 1.613 . S
N531 C534 1.350 . S
N532 S530 1.610 . S
N532 C533 1.351 . S
C533 C527 1.428 . S
C533 N532 1.351 . S
C533 C534 1.434 . S
C534 C525 1.429 . S
C534 N531 1.350 . S
C534 C533 1.434 . S
C535 C536 1.369 . S
C535 C537 1.419 . S
C535 H539 0.930 . S
C536 C535 1.369 . S
C536 C545 1.429 . S
C537 C535 1.419 . S
C537 C538 1.363 . S
C537 H540 0.929 . S
C538 C537 1.363 . S
C538 C544 1.428 . S
H539 C535 0.930 . S
H540 C537 0.929 . S
S541 N542 1.613 . S
S541 N543 1.610 . S
N542 S541 1.613 . S
N542 C545 1.350 . S
N543 S541 1.610 . S
N543 C544 1.351 . S
C544 C538 1.428 . S
C544 N543 1.351 . S
C544 C545 1.434 . S
C545 C536 1.429 . S
C545 N542 1.350 . S
C545 C544 1.434 . S
C546 C547 1.369 . S
C546 C548 1.419 . S
C546 H550 0.930 . S
C547 C546 1.369 . S
C547 C556 1.429 . S
C548 C546 1.419 . S
C548 C549 1.363 . S
C548 H551 0.929 . S
C549 C548 1.363 . S
C549 C555 1.428 . S
H550 C546 0.930 . S
H551 C548 0.929 . S
S552 N553 1.613 . S
S552 N554 1.610 . S
N553 S552 1.613 . S
N553 C556 1.350 . S
N554 S552 1.610 . S
N554 C555 1.351 . S
C555 C549 1.428 . S
C555 N554 1.351 . S
C555 C556 1.434 . S
C556 C547 1.429 . S
C556 N553 1.350 . S
C556 C555 1.434 . S
C557 C558 1.369 . S
C557 C559 1.419 . S
C557 H561 0.930 . S
C558 C557 1.369 . S
C558 C567 1.429 . S
C559 C557 1.419 . S
C559 C560 1.363 . S
C559 H562 0.929 . S
C560 C559 1.363 . S
C560 C566 1.428 . S
H561 C557 0.930 . S
H562 C559 0.929 . S
S563 N564 1.613 . S
S563 N565 1.610 . S
N564 S563 1.613 . S
N564 C567 1.350 . S
N565 S563 1.610 . S
N565 C566 1.351 . S
C566 C560 1.428 . S
C566 N565 1.351 . S
C566 C567 1.434 . S
C567 C558 1.429 . S
C567 N564 1.350 . S
C567 C566 1.434 . S
C568 C569 1.369 . S
C568 C570 1.419 . S
C568 H572 0.930 . S
C569 C568 1.369 . S
C569 C578 1.429 . S
C570 C568 1.419 . S
C570 C571 1.363 . S
C570 H573 0.929 . S
C571 C570 1.363 . S
C571 C577 1.428 . S
H572 C568 0.930 . S
H573 C570 0.929 . S
S574 N575 1.613 . S
S574 N576 1.610 . S
N575 S574 1.613 . S
N575 C578 1.350 . S
N576 S574 1.610 . S
N576 C577 1.351 . S
C577 C571 1.428 . S
C577 N576 1.351 . S
C577 C578 1.434 . S
C578 C569 1.429 . S
C578 N575 1.350 . S
C578 C577 1.434 . S
C579 C580 1.369 . S
C579 C581 1.419 . S
C579 H583 0.930 . S
C580 C579 1.369 . S
C580 C589 1.429 . S
C581 C579 1.419 . S
C581 C582 1.363 . S
C581 H584 0.929 . S
C582 C581 1.363 . S
C582 C588 1.428 . S
H583 C579 0.930 . S
H584 C581 0.929 . S
S585 N586 1.636 . S
S585 N587 1.614 . S
N586 S585 1.636 . S
N586 C589 1.350 . S
N587 S585 1.614 . S
N587 C588 1.351 . S
C588 C582 1.428 . S
C588 N587 1.351 . S
C588 C589 1.434 . S
C589 C580 1.429 . S
C589 N586 1.350 . S
C589 C588 1.434 . S
C590 C591 1.369 . S
C590 C592 1.419 . S
C590 H594 0.930 . S
C591 C590 1.369 . S
C591 C600 1.429 . S
C592 C590 1.419 . S
C592 C593 1.363 . S
C592 H595 0.929 . S
C593 C592 1.363 . S
C593 C599 1.428 . S
H594 C590 0.930 . S
H595 C592 0.929 . S
S596 N597 1.613 1_455 S
S596 N598 1.610 1_455 S
N597 S596 1.613 1_655 S
N597 C600 1.350 . S
N598 S596 1.610 1_655 S
N598 C599 1.351 . S
C599 C593 1.428 . S
C599 N598 1.351 . S
C599 C600 1.434 . S
C600 C591 1.429 . S
C600 N597 1.350 . S
C600 C599 1.434 . S
C601 C602 1.369 . S
C601 C603 1.419 . S
C601 H605 0.930 . S
C602 C601 1.369 . S
C602 C611 1.429 . S
C603 C601 1.419 . S
C603 C604 1.363 . S
C603 H606 0.929 . S
C604 C603 1.363 . S
C604 C610 1.428 . S
H605 C601 0.930 . S
H606 C603 0.929 . S
S607 N608 1.613 . S
S607 N609 1.610 . S
N608 S607 1.613 . S
N608 C611 1.350 . S
N609 S607 1.610 . S
N609 C610 1.351 . S
C610 C604 1.428 . S
C610 N609 1.351 . S
C610 C611 1.434 . S
C611 C602 1.429 . S
C611 N608 1.350 . S
C611 C610 1.434 . S
C612 C613 1.369 . S
C612 C614 1.419 . S
C612 H616 0.930 . S
C613 C612 1.369 . S
C613 C622 1.429 . S
C614 C612 1.419 . S
C614 C615 1.363 . S
C614 H617 0.929 . S
C615 C614 1.363 . S
C615 C621 1.428 . S
H616 C612 0.930 . S
H617 C614 0.929 . S
S618 N619 1.613 . S
S618 N620 1.610 . S
N619 S618 1.613 . S
N619 C622 1.350 . S
N620 S618 1.610 . S
N620 C621 1.351 . S
C621 C615 1.428 . S
C621 N620 1.351 . S
C621 C622 1.434 . S
C622 C613 1.429 . S
C622 N619 1.350 . S
C622 C621 1.434 . S
C623 C624 1.369 . S
C623 C625 1.419 . S
C623 H627 0.930 . S
C624 C623 1.369 . S
C624 C633 1.429 . S
C625 C623 1.419 . S
C625 C626 1.363 . S
C625 H628 0.929 . S
C626 C625 1.363 . S
C626 C632 1.428 . S
H627 C623 0.930 . S
H628 C625 0.929 . S
S629 N630 1.613 . S
S629 N631 1.610 . S
N630 S629 1.613 . S
N630 C633 1.350 . S
N631 S629 1.610 . S
N631 C632 1.351 . S
C632 C626 1.428 . S
C632 N631 1.351 . S
C632 C633 1.434 . S
C633 C624 1.429 . S
C633 N630 1.350 . S
C633 C632 1.434 . S
C634 C635 1.369 . S
C634 C636 1.419 . S
C634 H638 0.930 . S
C635 C634 1.369 . S
C635 C644 1.429 . S
C636 C634 1.419 . S
C636 C637 1.363 . S
C636 H639 0.929 . S
C637 C636 1.363 . S
C637 C643 1.428 . S
H638 C634 0.930 . S
H639 C636 0.929 . S
S640 N641 1.613 . S
S640 N642 1.610 . S
N641 S640 1.613 . S
N641 C644 1.350 . S
N642 S640 1.610 . S
N642 C643 1.351 . S
C643 C637 1.428 . S
C643 N642 1.351 . S
C643 C644 1.434 . S
C644 C635 1.429 . S
C644 N641 1.350 . S
C644 C643 1.434 . S
C645 C646 1.369 . S
C645 C647 1.419 . S
C645 H649 0.930 . S
C646 C645 1.369 . S
C646 C655 1.429 . S
C647 C645 1.419 . S
C647 C648 1.363 . S
C647 H650 0.929 . S
C648 C647 1.363 . S
C648 C654 1.428 . S
H649 C645 0.930 . S
H650 C647 0.929 . S
S651 N652 1.613 . S
S651 N653 1.610 . S
N652 S651 1.613 . S
N652 C655 1.350 . S
N653 S651 1.610 . S
N653 C654 1.351 . S
C654 C648 1.428 . S
C654 N653 1.351 . S
C654 C655 1.434 . S
C655 C646 1.429 . S
C655 N652 1.350 . S
C655 C654 1.434 . S
C656 C657 1.369 . S
C656 C658 1.419 . S
C656 H660 0.930 . S
C657 C656 1.369 . S
C657 C666 1.429 . S
C658 C656 1.419 . S
C658 C659 1.363 . S
C658 H661 0.929 . S
C659 C658 1.363 . S
C659 C665 1.428 . S
H660 C656 0.930 . S
H661 C658 0.929 . S
S662 N663 1.613 . S
S662 N664 1.610 . S
N663 S662 1.613 . S
N663 C666 1.350 . S
N664 S662 1.610 . S
N664 C665 1.351 . S
C665 C659 1.428 . S
C665 N664 1.351 . S
C665 C666 1.434 . S
C666 C657 1.429 . S
C666 N663 1.350 . S
C666 C665 1.434 . S
C667 C668 1.369 . S
C667 C669 1.419 . S
C667 H671 0.930 . S
C668 C667 1.369 . S
C668 C677 1.429 . S
C669 C667 1.419 . S
C669 C670 1.363 . S
C669 H672 0.929 . S
C670 C669 1.363 . S
C670 C676 1.428 . S
H671 C667 0.930 . S
H672 C669 0.929 . S
S673 N674 1.613 . S
S673 N675 1.610 . S
N674 S673 1.613 . S
N674 C677 1.350 . S
N675 S673 1.610 . S
N675 C676 1.351 . S
C676 C670 1.428 . S
C676 N675 1.351 . S
C676 C677 1.434 . S
C677 C668 1.429 . S
C677 N674 1.350 . S
C677 C676 1.434 . S
C678 C679 1.369 . S
C678 C680 1.419 . S
C678 H682 0.930 . S
C679 C678 1.369 . S
C679 C688 1.429 . S
C680 C678 1.419 . S
C680 C681 1.363 . S
C680 H683 0.929 . S
C681 C680 1.363 . S
C681 C687 1.428 . S
H682 C678 0.930 . S
H683 C680 0.929 . S
S684 N685 1.613 . S
S684 N686 1.610 . S
N685 S684 1.613 . S
N685 C688 1.350 . S
N686 S684 1.610 . S
N686 C687 1.351 . S
C687 C681 1.428 . S
C687 N686 1.351 . S
C687 C688 1.434 . S
C688 C679 1.429 . S
C688 N685 1.350 . S
C688 C687 1.434 . S
C689 C690 1.369 . S
C689 C691 1.419 . S
C689 H693 0.930 . S
C690 C689 1.369 . S
C690 C699 1.429 . S
C691 C689 1.419 . S
C691 C692 1.363 . S
C691 H694 0.929 . S
C692 C691 1.363 . S
C692 C698 1.428 . S
H693 C689 0.930 . S
H694 C691 0.929 . S
S695 N696 1.613 . S
S695 N697 1.610 . S
N696 S695 1.613 . S
N696 C699 1.350 . S
N697 S695 1.610 . S
N697 C698 1.351 . S
C698 C692 1.428 . S
C698 N697 1.351 . S
C698 C699 1.434 . S
C699 C690 1.429 . S
C699 N696 1.350 . S
C699 C698 1.434 . S
C700 C701 1.369 . S
C700 C702 1.419 . S
C700 H704 0.930 . S
C701 C700 1.369 . S
C701 C710 1.429 . S
C702 C700 1.419 . S
C702 C703 1.363 . S
C702 H705 0.929 . S
C703 C702 1.363 . S
C703 C709 1.428 . S
H704 C700 0.930 . S
H705 C702 0.929 . S
S706 N707 1.613 . S
S706 N708 1.610 . S
N707 S706 1.613 . S
N707 C710 1.350 . S
N708 S706 1.610 . S
N708 C709 1.351 . S
C709 C703 1.428 . S
C709 N708 1.351 . S
C709 C710 1.434 . S
C710 C701 1.429 . S
C710 N707 1.350 . S
C710 C709 1.434 . S
C711 C712 1.369 . S
C711 C713 1.419 . S
C711 H715 0.930 . S
C712 C711 1.369 . S
C712 C721 1.429 . S
C713 C711 1.419 . S
C713 C714 1.363 . S
C713 H716 0.929 . S
C714 C713 1.363 . S
C714 C720 1.428 . S
H715 C711 0.930 . S
H716 C713 0.929 . S
S717 N718 1.613 . S
S717 N719 1.610 . S
N718 S717 1.613 . S
N718 C721 1.350 . S
N719 S717 1.610 . S
N719 C720 1.351 . S
C720 C714 1.428 . S
C720 N719 1.351 . S
C720 C721 1.434 . S
C721 C712 1.429 . S
C721 N718 1.350 . S
C721 C720 1.434 . S
C722 C723 1.369 . S
C722 C724 1.419 . S
C722 H726 0.930 . S
C723 C722 1.369 . S
C723 C732 1.429 . S
C724 C722 1.419 . S
C724 C725 1.363 . S
C724 H727 0.929 . S
C725 C724 1.363 . S
C725 C731 1.428 . S
H726 C722 0.930 . S
H727 C724 0.929 . S
S728 N729 1.613 . S
S728 N730 1.610 . S
N729 S728 1.613 . S
N729 C732 1.350 . S
N730 S728 1.610 . S
N730 C731 1.351 . S
C731 C725 1.428 . S
C731 N730 1.351 . S
C731 C732 1.434 . S
C732 C723 1.429 . S
C732 N729 1.350 . S
C732 C731 1.434 . S
C733 C734 1.369 . S
C733 C735 1.419 . S
C733 H737 0.930 . S
C734 C733 1.369 . S
C734 C743 1.429 . S
C735 C733 1.419 . S
C735 C736 1.363 . S
C735 H738 0.929 . S
C736 C735 1.363 . S
C736 C742 1.428 . S
H737 C733 0.930 . S
H738 C735 0.929 . S
S739 N740 1.613 . S
S739 N741 1.610 . S
N740 S739 1.613 . S
N740 C743 1.350 . S
N741 S739 1.610 . S
N741 C742 1.351 . S
C742 C736 1.428 . S
C742 N741 1.351 . S
C742 C743 1.434 . S
C743 C734 1.429 . S
C743 N740 1.350 . S
C743 C742 1.434 . S
C481 C21 1.330 . S
C483 C337 1.501 . S
C492 C61 1.507 . S
C494 C377 1.505 . S
C505 C402 2.356 . S
C503 C82 2.421 . S
C514 C135 2.496 . S
C516 C442 2.427 . S
C527 C373 2.125 . S
C525 C15 1.950 . S
C538 C333 2.112 . S
C536 C42 2.042 . S
C549 C464 1.777 . S
C547 C101 1.789 . S
C560 C424 1.728 . S
C558 C122 1.760 . S
C569 C2 1.600 . S
C571 C466 1.718 . S
C582 C383 2.123 . S
C580 C95 2.173 . S
C591 C141 2.269 . S
C593 C343 2.224 . S
C602 C55 1.692 . S
C604 C426 1.745 . S
C615 C346 1.506 . S
C613 C181 1.506 . S
C624 C202 1.465 . S
C626 C386 1.490 . S
C635 C255 2.436 . S
C637 C423 2.372 . S
C646 C295 2.464 . S
C648 C463 2.400 . S
C657 C175 1.951 . S
C659 C384 2.099 . S
C670 C344 2.102 . S
C668 C221 2.027 . S
C681 C453 1.704 . S
C679 C242 1.743 . S
C692 C413 1.781 . S
C690 C301 1.788 . S
C701 C162 1.763 . S
C703 C457 1.723 . S
C714 C362 2.173 . S
C712 C261 2.192 . S
C725 C322 2.191 . S
C723 C282 2.251 . S
C734 C215 1.674 . S
C736 C417 1.741 . S
