# Generated by pormake.
# Topology gar, (4,6)-cn, num edge types: 1
# Building blocks:
#     Node 0, Type 0, BuildingBlock: QUQFOY_clean_sbu_1, # of connection points: 4
#     Node 1, Type 0, BuildingBlock: QUQFOY_clean_sbu_1, # of connection points: 4
#     Node 2, Type 0, BuildingBlock: QUQFOY_clean_sbu_1, # of connection points: 4
#     Node 3, Type 0, BuildingBlock: QUQFOY_clean_sbu_1, # of connection points: 4
#     Node 4, Type 0, BuildingBlock: QUQFOY_clean_sbu_1, # of connection points: 4
#     Node 5, Type 0, BuildingBlock: QUQFOY_clean_sbu_1, # of connection points: 4
#     Node 6, Type 0, BuildingBlock: QUQFOY_clean_sbu_1, # of connection points: 4
#     Node 7, Type 0, BuildingBlock: QUQFOY_clean_sbu_1, # of connection points: 4
#     Node 8, Type 0, BuildingBlock: QUQFOY_clean_sbu_1, # of connection points: 4
#     Node 9, Type 0, BuildingBlock: QUQFOY_clean_sbu_1, # of connection points: 4
#     Node 10, Type 0, BuildingBlock: QUQFOY_clean_sbu_1, # of connection points: 4
#     Node 11, Type 0, BuildingBlock: QUQFOY_clean_sbu_1, # of connection points: 4
#     Node 12, Type 0, BuildingBlock: QUQFOY_clean_sbu_1, # of connection points: 4
#     Node 13, Type 0, BuildingBlock: QUQFOY_clean_sbu_1, # of connection points: 4
#     Node 14, Type 0, BuildingBlock: QUQFOY_clean_sbu_1, # of connection points: 4
#     Node 15, Type 0, BuildingBlock: QUQFOY_clean_sbu_1, # of connection points: 4
#     Node 16, Type 0, BuildingBlock: QUQFOY_clean_sbu_1, # of connection points: 4
#     Node 17, Type 0, BuildingBlock: QUQFOY_clean_sbu_1, # of connection points: 4
#     Node 18, Type 0, BuildingBlock: QUQFOY_clean_sbu_1, # of connection points: 4
#     Node 19, Type 0, BuildingBlock: QUQFOY_clean_sbu_1, # of connection points: 4
#     Node 20, Type 0, BuildingBlock: QUQFOY_clean_sbu_1, # of connection points: 4
#     Node 21, Type 0, BuildingBlock: QUQFOY_clean_sbu_1, # of connection points: 4
#     Node 22, Type 0, BuildingBlock: QUQFOY_clean_sbu_1, # of connection points: 4
#     Node 23, Type 0, BuildingBlock: QUQFOY_clean_sbu_1, # of connection points: 4
#     Node 24, Type 1, BuildingBlock: NUHQIS_clean_sbu_0, # of connection points: 6
#     Node 25, Type 1, BuildingBlock: NUHQIS_clean_sbu_0, # of connection points: 6
#     Node 26, Type 1, BuildingBlock: NUHQIS_clean_sbu_0, # of connection points: 6
#     Node 27, Type 1, BuildingBlock: NUHQIS_clean_sbu_0, # of connection points: 6
#     Node 28, Type 1, BuildingBlock: NUHQIS_clean_sbu_0, # of connection points: 6
#     Node 29, Type 1, BuildingBlock: NUHQIS_clean_sbu_0, # of connection points: 6
#     Node 30, Type 1, BuildingBlock: NUHQIS_clean_sbu_0, # of connection points: 6
#     Node 31, Type 1, BuildingBlock: NUHQIS_clean_sbu_0, # of connection points: 6
#     Node 32, Type 1, BuildingBlock: NUHQIS_clean_sbu_0, # of connection points: 6
#     Node 33, Type 1, BuildingBlock: NUHQIS_clean_sbu_0, # of connection points: 6
#     Node 34, Type 1, BuildingBlock: NUHQIS_clean_sbu_0, # of connection points: 6
#     Node 35, Type 1, BuildingBlock: NUHQIS_clean_sbu_0, # of connection points: 6
#     Node 36, Type 1, BuildingBlock: NUHQIS_clean_sbu_0, # of connection points: 6
#     Node 37, Type 1, BuildingBlock: NUHQIS_clean_sbu_0, # of connection points: 6
#     Node 38, Type 1, BuildingBlock: NUHQIS_clean_sbu_0, # of connection points: 6
#     Node 39, Type 1, BuildingBlock: NUHQIS_clean_sbu_0, # of connection points: 6
#     Edge 40, Type (0, 1), BuildingBlock: TEMPAE_clean_linker_10, # of connection points: 2
#     Edge 41, Type (0, 1), BuildingBlock: TEMPAE_clean_linker_10, # of connection points: 2
#     Edge 42, Type (0, 1), BuildingBlock: TEMPAE_clean_linker_10, # of connection points: 2
#     Edge 43, Type (0, 1), BuildingBlock: TEMPAE_clean_linker_10, # of connection points: 2
#     Edge 44, Type (0, 1), BuildingBlock: TEMPAE_clean_linker_10, # of connection points: 2
#     Edge 45, Type (0, 1), BuildingBlock: TEMPAE_clean_linker_10, # of connection points: 2
#     Edge 46, Type (0, 1), BuildingBlock: TEMPAE_clean_linker_10, # of connection points: 2
#     Edge 47, Type (0, 1), BuildingBlock: TEMPAE_clean_linker_10, # of connection points: 2
#     Edge 48, Type (0, 1), BuildingBlock: TEMPAE_clean_linker_10, # of connection points: 2
#     Edge 49, Type (0, 1), BuildingBlock: TEMPAE_clean_linker_10, # of connection points: 2
#     Edge 50, Type (0, 1), BuildingBlock: TEMPAE_clean_linker_10, # of connection points: 2
#     Edge 51, Type (0, 1), BuildingBlock: TEMPAE_clean_linker_10, # of connection points: 2
#     Edge 52, Type (0, 1), BuildingBlock: TEMPAE_clean_linker_10, # of connection points: 2
#     Edge 53, Type (0, 1), BuildingBlock: TEMPAE_clean_linker_10, # of connection points: 2
#     Edge 54, Type (0, 1), BuildingBlock: TEMPAE_clean_linker_10, # of connection points: 2
#     Edge 55, Type (0, 1), BuildingBlock: TEMPAE_clean_linker_10, # of connection points: 2
#     Edge 56, Type (0, 1), BuildingBlock: TEMPAE_clean_linker_10, # of connection points: 2
#     Edge 57, Type (0, 1), BuildingBlock: TEMPAE_clean_linker_10, # of connection points: 2
#     Edge 58, Type (0, 1), BuildingBlock: TEMPAE_clean_linker_10, # of connection points: 2
#     Edge 59, Type (0, 1), BuildingBlock: TEMPAE_clean_linker_10, # of connection points: 2
#     Edge 60, Type (0, 1), BuildingBlock: TEMPAE_clean_linker_10, # of connection points: 2
#     Edge 61, Type (0, 1), BuildingBlock: TEMPAE_clean_linker_10, # of connection points: 2
#     Edge 62, Type (0, 1), BuildingBlock: TEMPAE_clean_linker_10, # of connection points: 2
#     Edge 63, Type (0, 1), BuildingBlock: TEMPAE_clean_linker_10, # of connection points: 2
#     Edge 64, Type (0, 1), BuildingBlock: TEMPAE_clean_linker_10, # of connection points: 2
#     Edge 65, Type (0, 1), BuildingBlock: TEMPAE_clean_linker_10, # of connection points: 2
#     Edge 66, Type (0, 1), BuildingBlock: TEMPAE_clean_linker_10, # of connection points: 2
#     Edge 67, Type (0, 1), BuildingBlock: TEMPAE_clean_linker_10, # of connection points: 2
#     Edge 68, Type (0, 1), BuildingBlock: TEMPAE_clean_linker_10, # of connection points: 2
#     Edge 69, Type (0, 1), BuildingBlock: TEMPAE_clean_linker_10, # of connection points: 2
#     Edge 70, Type (0, 1), BuildingBlock: TEMPAE_clean_linker_10, # of connection points: 2
#     Edge 71, Type (0, 1), BuildingBlock: TEMPAE_clean_linker_10, # of connection points: 2
#     Edge 72, Type (0, 1), BuildingBlock: TEMPAE_clean_linker_10, # of connection points: 2
#     Edge 73, Type (0, 1), BuildingBlock: TEMPAE_clean_linker_10, # of connection points: 2
#     Edge 74, Type (0, 1), BuildingBlock: TEMPAE_clean_linker_10, # of connection points: 2
#     Edge 75, Type (0, 1), BuildingBlock: TEMPAE_clean_linker_10, # of connection points: 2
#     Edge 76, Type (0, 1), BuildingBlock: TEMPAE_clean_linker_10, # of connection points: 2
#     Edge 77, Type (0, 1), BuildingBlock: TEMPAE_clean_linker_10, # of connection points: 2
#     Edge 78, Type (0, 1), BuildingBlock: TEMPAE_clean_linker_10, # of connection points: 2
#     Edge 79, Type (0, 1), BuildingBlock: TEMPAE_clean_linker_10, # of connection points: 2
#     Edge 80, Type (0, 1), BuildingBlock: TEMPAE_clean_linker_10, # of connection points: 2
#     Edge 81, Type (0, 1), BuildingBlock: TEMPAE_clean_linker_10, # of connection points: 2
#     Edge 82, Type (0, 1), BuildingBlock: TEMPAE_clean_linker_10, # of connection points: 2
#     Edge 83, Type (0, 1), BuildingBlock: TEMPAE_clean_linker_10, # of connection points: 2
#     Edge 84, Type (0, 1), BuildingBlock: TEMPAE_clean_linker_10, # of connection points: 2
#     Edge 85, Type (0, 1), BuildingBlock: TEMPAE_clean_linker_10, # of connection points: 2
#     Edge 86, Type (0, 1), BuildingBlock: TEMPAE_clean_linker_10, # of connection points: 2
#     Edge 87, Type (0, 1), BuildingBlock: TEMPAE_clean_linker_10, # of connection points: 2
#     Edge 88, Type (0, 1), BuildingBlock: TEMPAE_clean_linker_10, # of connection points: 2
#     Edge 89, Type (0, 1), BuildingBlock: TEMPAE_clean_linker_10, # of connection points: 2
#     Edge 90, Type (0, 1), BuildingBlock: TEMPAE_clean_linker_10, # of connection points: 2
#     Edge 91, Type (0, 1), BuildingBlock: TEMPAE_clean_linker_10, # of connection points: 2
#     Edge 92, Type (0, 1), BuildingBlock: TEMPAE_clean_linker_10, # of connection points: 2
#     Edge 93, Type (0, 1), BuildingBlock: TEMPAE_clean_linker_10, # of connection points: 2
#     Edge 94, Type (0, 1), BuildingBlock: TEMPAE_clean_linker_10, # of connection points: 2
#     Edge 95, Type (0, 1), BuildingBlock: TEMPAE_clean_linker_10, # of connection points: 2
#     Edge 96, Type (0, 1), BuildingBlock: TEMPAE_clean_linker_10, # of connection points: 2
#     Edge 97, Type (0, 1), BuildingBlock: TEMPAE_clean_linker_10, # of connection points: 2
#     Edge 98, Type (0, 1), BuildingBlock: TEMPAE_clean_linker_10, # of connection points: 2
#     Edge 99, Type (0, 1), BuildingBlock: TEMPAE_clean_linker_10, # of connection points: 2
#     Edge 100, Type (0, 1), BuildingBlock: TEMPAE_clean_linker_10, # of connection points: 2
#     Edge 101, Type (0, 1), BuildingBlock: TEMPAE_clean_linker_10, # of connection points: 2
#     Edge 102, Type (0, 1), BuildingBlock: TEMPAE_clean_linker_10, # of connection points: 2
#     Edge 103, Type (0, 1), BuildingBlock: TEMPAE_clean_linker_10, # of connection points: 2
#     Edge 104, Type (0, 1), BuildingBlock: TEMPAE_clean_linker_10, # of connection points: 2
#     Edge 105, Type (0, 1), BuildingBlock: TEMPAE_clean_linker_10, # of connection points: 2
#     Edge 106, Type (0, 1), BuildingBlock: TEMPAE_clean_linker_10, # of connection points: 2
#     Edge 107, Type (0, 1), BuildingBlock: TEMPAE_clean_linker_10, # of connection points: 2
#     Edge 108, Type (0, 1), BuildingBlock: TEMPAE_clean_linker_10, # of connection points: 2
#     Edge 109, Type (0, 1), BuildingBlock: TEMPAE_clean_linker_10, # of connection points: 2
#     Edge 110, Type (0, 1), BuildingBlock: TEMPAE_clean_linker_10, # of connection points: 2
#     Edge 111, Type (0, 1), BuildingBlock: TEMPAE_clean_linker_10, # of connection points: 2
#     Edge 112, Type (0, 1), BuildingBlock: TEMPAE_clean_linker_10, # of connection points: 2
#     Edge 113, Type (0, 1), BuildingBlock: TEMPAE_clean_linker_10, # of connection points: 2
#     Edge 114, Type (0, 1), BuildingBlock: TEMPAE_clean_linker_10, # of connection points: 2
#     Edge 115, Type (0, 1), BuildingBlock: TEMPAE_clean_linker_10, # of connection points: 2
#     Edge 116, Type (0, 1), BuildingBlock: TEMPAE_clean_linker_10, # of connection points: 2
#     Edge 117, Type (0, 1), BuildingBlock: TEMPAE_clean_linker_10, # of connection points: 2
#     Edge 118, Type (0, 1), BuildingBlock: TEMPAE_clean_linker_10, # of connection points: 2
#     Edge 119, Type (0, 1), BuildingBlock: TEMPAE_clean_linker_10, # of connection points: 2
#     Edge 120, Type (0, 1), BuildingBlock: TEMPAE_clean_linker_10, # of connection points: 2
#     Edge 121, Type (0, 1), BuildingBlock: TEMPAE_clean_linker_10, # of connection points: 2
#     Edge 122, Type (0, 1), BuildingBlock: TEMPAE_clean_linker_10, # of connection points: 2
#     Edge 123, Type (0, 1), BuildingBlock: TEMPAE_clean_linker_10, # of connection points: 2
#     Edge 124, Type (0, 1), BuildingBlock: TEMPAE_clean_linker_10, # of connection points: 2
#     Edge 125, Type (0, 1), BuildingBlock: TEMPAE_clean_linker_10, # of connection points: 2
#     Edge 126, Type (0, 1), BuildingBlock: TEMPAE_clean_linker_10, # of connection points: 2
#     Edge 127, Type (0, 1), BuildingBlock: TEMPAE_clean_linker_10, # of connection points: 2
#     Edge 128, Type (0, 1), BuildingBlock: TEMPAE_clean_linker_10, # of connection points: 2
#     Edge 129, Type (0, 1), BuildingBlock: TEMPAE_clean_linker_10, # of connection points: 2
#     Edge 130, Type (0, 1), BuildingBlock: TEMPAE_clean_linker_10, # of connection points: 2
#     Edge 131, Type (0, 1), BuildingBlock: TEMPAE_clean_linker_10, # of connection points: 2
#     Edge 132, Type (0, 1), BuildingBlock: TEMPAE_clean_linker_10, # of connection points: 2
#     Edge 133, Type (0, 1), BuildingBlock: TEMPAE_clean_linker_10, # of connection points: 2
#     Edge 134, Type (0, 1), BuildingBlock: TEMPAE_clean_linker_10, # of connection points: 2
#     Edge 135, Type (0, 1), BuildingBlock: TEMPAE_clean_linker_10, # of connection points: 2
# Relax obj value: 0.223
# Max RMSD: 0.325
# Mean RMSD: 0.172
data_MOF--net-gar--node1-QUQFOY_clean_sbu_1--node2-NUHQIS_clean_sbu_0--edge1-TEMPAE_clean_linker_10
_symmetry_space_group_name_H-M    P1
_symmetry_Int_Tables_number       1
_symmetry_cell_setting            triclinic
loop_
_symmetry_equiv_pos_as_xyz
'x, y, z'
_cell_length_a     58.733576
_cell_length_b     61.554584
_cell_length_c     58.536102
_cell_angle_alpha  93.834662
_cell_angle_beta   96.974034
_cell_angle_gamma 103.02845
loop_
_atom_site_label
_atom_site_type_symbol
_atom_site_fract_x
_atom_site_fract_y
_atom_site_fract_z
_atom_type_partial_charge
O0 O 0.08699 0.26458 0.43153 0.0
Cd1 Cd 0.09169 0.28629 0.40354 0.0
Cd2 Cd 0.06937 0.31498 0.44924 0.0
O3 O 0.0759 0.2822 0.46183 0.0
O4 O 0.11031 0.27274 0.37913 0.0
O5 O 0.12567 0.30511 0.39829 0.0
C6 C 0.12822 0.28979 0.38322 0.0
C7 C 0.07284 0.35412 0.46967 0.0
C8 C 0.08121 0.26447 0.45218 0.0
C9 C 0.04168 0.30104 0.39665 0.0
O10 O 0.04478 0.30891 0.41802 0.0
O11 O 0.05783 0.29295 0.38818 0.0
O12 O 0.05641 0.33678 0.472 0.0
O13 O 0.08836 0.34939 0.45745 0.0
O14 O 0.04809 0.77243 0.6515 0.0
Cd15 Cd 0.04917 0.79827 0.67899 0.0
Cd16 Cd 0.0771 0.82644 0.6391 0.0
O17 O 0.06665 0.79031 0.62429 0.0
O18 O 1.02655 0.78605 0.70335 0.0
O19 O 1.02014 0.81285 0.68309 0.0
C20 C 1.01331 0.79978 0.69861 0.0
C21 C 0.07535 0.8632 0.6212 0.0
C22 C 0.05656 0.7717 0.63215 0.0
C23 C 0.10485 0.82079 0.68812 0.0
O24 O 0.10382 0.82827 0.66807 0.0
O25 O 0.08577 0.81052 0.69548 0.0
O26 O 0.09065 0.85167 0.61732 0.0
O27 O 0.06029 0.85378 0.63409 0.0
O28 O 0.62561 0.7985 0.91878 0.0
Cd29 Cd 0.60292 0.79545 0.94644 0.0
Cd30 Cd 0.57593 0.81917 0.90142 0.0
O31 O 0.60742 0.81169 0.88873 0.0
O32 O 0.61567 0.77428 0.97053 0.0
O33 O 0.58173 0.76236 0.94954 0.0
C34 C 0.59748 0.75766 0.96464 0.0
C35 C 0.53577 0.81403 0.87919 0.0
C36 C 0.62531 0.80471 0.89804 0.0
C37 C 0.59062 0.84612 0.95171 0.0
O38 O 0.58357 0.84438 0.92987 0.0
O39 O 0.5969 0.82919 0.96108 0.0
O40 O 0.55373 0.82898 0.87514 0.0
O41 O 0.54045 0.80115 0.89478 0.0
O42 O 0.55949 0.25836 0.15064 0.0
Cd43 Cd 0.55976 0.28461 0.17779 0.0
Cd44 Cd 0.58869 0.31272 0.13846 0.0
O45 O 0.57876 0.27625 0.12384 0.0
O46 O 0.53611 0.27322 0.20176 0.0
O47 O 0.53063 0.29961 0.18056 0.0
C48 C 0.52316 0.28702 0.19624 0.0
C49 C 0.58703 0.34985 0.12082 0.0
C50 C 0.56857 0.25757 0.1316 0.0
C51 C 0.61557 0.30734 0.18804 0.0
O52 O 0.61495 0.31469 0.16793 0.0
O53 O 0.59625 0.29709 0.19505 0.0
O54 O 0.60243 0.33841 0.11702 0.0
O55 O 0.57179 0.34013 0.1334 0.0
O56 O 0.16134 0.845 0.18837 0.0
Cd57 Cd 0.16494 0.87689 0.20423 0.0
Cd58 Cd 0.18598 0.88611 0.16579 0.0
O59 O 0.18023 0.85225 0.15836 0.0
O60 O 0.14796 0.87056 0.23143 0.0
O61 O 0.13587 0.88935 0.20345 0.0
C62 C 0.13253 0.88058 0.2225 0.0
C63 C 0.16067 0.90434 0.1462 0.0
C64 C 0.16888 0.83829 0.17035 0.0
C65 C 0.21646 0.90248 0.21041 0.0
O66 O 0.21562 0.90142 0.18855 0.0
O67 O 0.19811 0.89443 0.21945 0.0
O68 O 0.17949 0.90185 0.13794 0.0
O69 O 0.157 0.89714 0.16595 0.0
O70 O 0.58722 0.75543 0.41453 0.0
Cd71 Cd 0.5653 0.74553 0.43845 0.0
Cd72 Cd 0.53137 0.75344 0.40394 0.0
O73 O 0.56006 0.75876 0.38633 0.0
O74 O 0.58352 0.73102 0.46072 0.0
O75 O 0.55052 0.71299 0.4383 0.0
C76 C 0.56786 0.71266 0.45405 0.0
C77 C 0.49472 0.74148 0.38095 0.0
C78 C 0.58141 0.75942 0.39391 0.0
C79 C 0.54044 0.78013 0.45135 0.0
O80 O 0.53026 0.77645 0.43062 0.0
O81 O 0.55511 0.76905 0.45863 0.0
O82 O 0.50756 0.7614 0.38133 0.0
O83 O 0.50297 0.72757 0.39318 0.0
O84 O 0.65933 0.34748 0.66396 0.0
Cd85 Cd 0.66095 0.37667 0.68429 0.0
Cd86 Cd 0.68743 0.3908 0.64894 0.0
O87 O 0.68347 0.35765 0.63838 0.0
O88 O 0.64304 0.36446 0.70917 0.0
O89 O 0.63085 0.38724 0.68554 0.0
C90 C 0.62725 0.37498 0.70238 0.0
C91 C 0.66047 0.40843 0.631 0.0
C92 C 0.66955 0.34254 0.64706 0.0
C93 C 0.71217 0.40371 0.69674 0.0
O94 O 0.71424 0.40484 0.67544 0.0
O95 O 0.69271 0.3939 0.70289 0.0
O96 O 0.68038 0.4093 0.62333 0.0
O97 O 0.65674 0.39857 0.64941 0.0
O98 O 0.034 0.19293 0.9062 0.0
Cd99 Cd 1.02647 0.21321 0.88137 0.0
Cd100 Cd 1.01222 0.23455 0.91677 0.0
O101 O 1.02369 0.21114 0.9355 0.0
O102 O 0.04628 0.2096 0.85686 0.0
O103 O 0.05094 0.24115 0.87936 0.0
C104 C 0.05777 0.23003 0.86306 0.0
C105 C 1.02466 0.27205 0.93107 0.0
C106 C 0.03198 0.19533 0.92752 0.0
C107 C 0.97608 0.21538 0.87508 0.0
O108 O 0.98054 0.22546 0.89534 0.0
O109 O 0.99224 0.20907 0.86576 0.0
O110 O 1.00844 0.25845 0.93951 0.0
O111 O 0.03419 0.26418 0.91461 0.0
O112 O 0.53594 0.11605 0.26729 0.0
Cd113 Cd 0.5058 0.10618 0.28194 0.0
Cd114 Cd 0.54092 0.10553 0.32063 0.0
O115 O 0.56296 0.11945 0.29783 0.0
O116 O 0.48149 0.1104 0.25702 0.0
O117 O 0.48727 0.12796 0.29221 0.0
C118 C 0.47587 0.12428 0.27149 0.0
C119 C 0.55387 0.11787 0.35962 0.0
C120 C 0.55737 0.12127 0.27655 0.0
C121 C 0.50503 0.06209 0.30122 0.0
O122 O 0.52343 0.07183 0.31514 0.0
O123 O 0.49514 0.07304 0.28707 0.0
O124 O 0.56464 0.10595 0.34794 0.0
O125 O 0.53567 0.12332 0.34906 0.0
O126 O 0.3574 0.18385 0.57978 0.0
Cd127 Cd 0.35516 0.15664 0.55407 0.0
Cd128 Cd 0.33282 0.19507 0.52629 0.0
O129 O 0.34471 0.21083 0.5617 0.0
O130 O 0.37511 0.13446 0.56742 0.0
O131 O 0.38485 0.15275 0.53826 0.0
C132 C 0.38978 0.13885 0.55263 0.0
C133 C 0.33517 0.2135 0.48943 0.0
C134 C 0.35237 0.2032 0.5805 0.0
C135 C 0.3004 0.14761 0.53376 0.0
O136 O 0.30396 0.16707 0.52626 0.0
O137 O 0.3179 0.14032 0.54338 0.0
O138 O 0.32079 0.21663 0.50369 0.0
O139 O 0.34897 0.20081 0.4962 0.0
O140 O 0.18982 0.0886 0.82925 0.0
Cd141 Cd 0.21924 0.08838 0.85231 0.0
Cd142 Cd 0.19612 0.10977 0.87911 0.0
O143 O 0.17203 0.10874 0.8504 0.0
O144 O 0.23725 0.07344 0.83243 0.0
O145 O 0.22464 0.0594 0.8636 0.0
C146 C 0.23603 0.058 0.84626 0.0
C147 C 0.18444 0.08571 0.9061 0.0
C148 C 0.17293 0.09803 0.83137 0.0
C149 C 0.24392 0.13485 0.87561 0.0
O150 O 0.22571 0.13575 0.88494 0.0
O151 O 0.24422 0.11767 0.86252 0.0
O152 O 0.17992 0.10534 0.9066 0.0
O153 O 0.19664 0.0802 0.89068 0.0
O154 O 0.32815 0.88183 0.08964 0.0
Cd155 Cd 0.3314 0.90707 0.068 0.0
Cd156 Cd 0.34784 0.87453 0.04176 0.0
O157 O 0.34077 0.85608 0.06992 0.0
O158 O 0.31966 0.92998 0.08578 0.0
O159 O 0.30246 0.91475 0.05102 0.0
C160 C 0.30324 0.92869 0.06874 0.0
C161 C 0.33327 0.86077 1.003 0.0
C162 C 0.33293 0.86269 0.08788 0.0
C163 C 0.38131 0.91957 0.05586 0.0
O164 O 0.37833 0.89989 0.04604 0.0
O165 O 0.36476 0.92533 0.06499 0.0
O166 O 0.3503 0.8542 0.01441 0.0
O167 O 0.32356 0.87435 0.01403 0.0
O168 O 0.31396 0.41773 0.09026 0.0
Cd169 Cd 0.31298 0.44427 0.0675 0.0
Cd170 Cd 0.3325 0.40244 0.03835 0.0
O171 O 0.32287 0.38884 0.07066 0.0
O172 O 0.29445 0.46655 0.08181 0.0
O173 O 0.28103 0.44777 0.04834 0.0
C174 C 0.27786 0.46191 0.06433 0.0
C175 C 0.32938 0.38202 0.99944 0.0
C176 C 0.31763 0.39778 0.08943 0.0
C177 C 0.36437 0.45261 0.05107 0.0
O178 O 0.36012 0.43182 0.04359 0.0
O179 O 0.34822 0.46068 0.05948 0.0
O180 O 0.34415 0.37975 0.01684 0.0
O181 O 0.31525 0.39452 1.00416 0.0
O182 O 0.83807 0.21099 0.07868 0.0
Cd183 Cd 0.83105 0.18914 0.04861 0.0
Cd184 Cd 0.80983 0.22228 0.03235 0.0
O185 O 0.82168 0.23767 0.06586 0.0
O186 O 0.84775 0.16533 0.05702 0.0
O187 O 0.85602 0.18589 0.02835 0.0
C188 C 0.85973 0.16976 0.0402 0.0
C189 C 0.81795 0.23817 0.99808 0.0
C190 C 0.83246 0.22962 0.08227 0.0
C191 C 0.77834 0.1768 0.03121 0.0
O192 O 0.77945 0.19724 0.02825 0.0
O193 O 0.79683 0.1705 0.03861 0.0
O194 O 0.8036 0.24468 1.01056 0.0
O195 O 0.82896 0.22363 1.00591 0.0
O196 O 0.13505 0.44443 0.22389 0.0
Cd197 Cd 0.15433 0.45832 0.25521 0.0
Cd198 Cd 0.11469 0.46515 0.26674 0.0
O199 O 0.10175 0.44987 0.23397 0.0
O200 O 0.18325 0.4469 0.2594 0.0
O201 O 0.15624 0.44132 0.28312 0.0
C202 C 0.17637 0.43895 0.27792 0.0
C203 C 0.09228 0.45552 0.29622 0.0
C204 C 0.1131 0.44313 0.2189 0.0
C205 C 0.15356 0.50605 0.26571 0.0
O206 O 0.13262 0.49853 0.26982 0.0
O207 O 0.1656 0.49262 0.25932 0.0
O208 O 0.11197 0.4496 0.29585 0.0
O209 O 0.08526 0.46614 0.27957 0.0
O210 O 0.80335 0.91874 0.59124 0.0
Cd211 Cd 0.80253 0.94495 0.56773 0.0
Cd212 Cd 0.82588 0.90324 0.54084 0.0
O213 O 0.81691 0.89126 0.57436 0.0
O214 O 0.78344 0.96731 0.58116 0.0
O215 O 0.7702 0.94746 0.54829 0.0
C216 C 0.76676 0.96193 0.56378 0.0
C217 C 0.82354 0.88206 0.50214 0.0
C218 C 0.80932 0.89977 0.59206 0.0
C219 C 0.85482 0.95459 0.55162 0.0
O220 O 0.85192 0.93372 0.54503 0.0
O221 O 0.83788 0.9619 0.55946 0.0
O222 O 0.83815 0.88025 0.51989 0.0
O223 O 0.80913 0.89442 0.50637 0.0
O224 O 0.90253 0.03311 0.16291 0.0
Cd225 Cd 0.87997 0.02075 0.18584 0.0
Cd226 Cd 0.92104 0.02456 0.2158 0.0
O227 O 0.93307 0.04372 0.19053 0.0
O228 O 0.8528 0.03519 0.18701 0.0
O229 O 0.88383 0.04093 0.21427 0.0
C230 C 0.86393 0.0452 0.20669 0.0
C231 C 0.94019 0.03597 0.25339 0.0
C232 C 0.92372 0.04375 0.16982 0.0
C233 C 0.88877 0.97844 0.20053 0.0
O234 O 0.90889 0.99032 0.20943 0.0
O235 O 0.87307 0.98739 0.19094 0.0
O236 O 0.95006 0.02697 0.23803 0.0
O237 O 0.91941 0.03907 0.24728 0.0
O238 O 0.318 0.71029 0.57579 0.0
Cd239 Cd 0.31439 0.69054 0.54483 0.0
Cd240 Cd 0.30097 0.72654 0.52807 0.0
O241 O 0.31408 0.74183 0.56164 0.0
O242 O 0.32793 0.66488 0.55371 0.0
O243 O 0.34206 0.68744 0.5284 0.0
C244 C 0.34282 0.67005 0.53939 0.0
C245 C 0.31375 0.74001 0.49409 0.0
C246 C 0.31823 0.73099 0.57888 0.0
C247 C 0.26392 0.68373 0.52315 0.0
O248 O 0.26767 0.70489 0.52293 0.0
O249 O 0.28073 0.67478 0.52981 0.0
O250 O 0.30038 0.74944 0.50535 0.0
O251 O 0.32107 0.72368 0.50295 0.0
O252 O 0.39931 0.54625 0.67718 0.0
Cd253 Cd 0.37963 0.5322 0.70128 0.0
Cd254 Cd 0.42246 0.53975 0.72976 0.0
O255 O 0.43154 0.55814 0.70263 0.0
O256 O 0.35074 0.54348 0.70346 0.0
O257 O 0.38247 0.55154 0.7302 0.0
C258 C 0.36161 0.55399 0.72303 0.0
C259 C 0.4448 0.55209 0.766 0.0
C260 C 0.42046 0.55756 0.68246 0.0
C261 C 0.39232 0.49169 0.71573 0.0
O262 O 0.41125 0.50517 0.72547 0.0
O263 O 0.37602 0.49893 0.70474 0.0
O264 O 0.45348 0.54368 0.74931 0.0
O265 O 0.42345 0.55443 0.76191 0.0
O266 O 0.64117 0.94794 0.69873 0.0
Cd267 Cd 0.66701 0.9666 0.72352 0.0
Cd268 Cd 0.62992 0.96318 0.75002 0.0
O269 O 0.61194 0.94596 0.71936 0.0
O270 O 0.69718 0.9662 0.71172 0.0
O271 O 0.6883 0.9534 0.7448 0.0
C272 C 0.70334 0.95771 0.73035 0.0
C273 C 0.61522 0.95263 0.78396 0.0
C274 C 0.61935 0.94184 0.70041 0.0
C275 C 0.65646 1.00942 0.74134 0.0
O276 O 0.6407 0.99766 0.75135 0.0
O277 O 0.6685 1.00013 0.72891 0.0
O278 O 0.60319 0.96048 0.7681 0.0
O279 O 0.63554 0.94962 0.78021 0.0
O280 O 0.86671 0.68408 0.08405 0.0
Cd281 Cd 0.86574 0.65677 0.05852 0.0
Cd282 Cd 0.84018 0.69518 0.03033 0.0
O283 O 0.85135 0.70991 0.06631 0.0
O284 O 0.88585 0.63477 0.07238 0.0
O285 O 0.89594 0.65295 0.04331 0.0
C286 C 0.90072 0.63906 0.05777 0.0
C287 C 0.84024 0.71506 0.994 0.0
C288 C 0.86008 0.70272 0.08499 0.0
C289 C 0.81081 0.64593 0.0372 0.0
O290 O 0.81328 0.66544 0.02984 0.0
O291 O 0.82884 0.63958 0.0471 0.0
O292 O 0.82567 0.71629 1.00864 0.0
O293 O 0.85545 0.70352 1.00007 0.0
O294 O 0.03474 0.61377 0.7874 0.0
Cd295 Cd 1.00378 0.61312 0.80062 0.0
Cd296 Cd 1.03064 0.60794 0.84164 0.0
O297 O 0.05491 0.60702 0.81929 0.0
O298 O 0.99167 0.64015 0.80945 0.0
O299 O 0.98309 0.62131 0.77481 0.0
C300 C 0.98022 0.63722 0.78877 0.0
C301 C 0.04684 0.62428 0.87885 0.0
C302 C 0.05333 0.60973 0.79792 0.0
C303 C 0.98748 0.57141 0.82388 0.0
O304 O 1.00414 0.57932 0.84032 0.0
O305 O 0.98481 0.58213 0.80636 0.0
O306 O 0.05095 0.60594 0.87056 0.0
O307 O 0.03324 0.63379 0.86609 0.0
O308 O 0.82446 0.38069 0.59069 0.0
Cd309 Cd 0.82766 0.40586 0.56907 0.0
Cd310 Cd 0.84859 0.37412 0.54524 0.0
O311 O 0.84104 0.3563 0.57366 0.0
O312 O 0.8159 0.42841 0.58731 0.0
O313 O 0.79827 0.41326 0.55266 0.0
C314 C 0.79918 0.42701 0.57056 0.0
C315 C 0.83602 0.35829 0.50679 0.0
C316 C 0.83097 0.36235 0.59028 0.0
C317 C 0.87858 0.42067 0.55933 0.0
O318 O 0.87764 0.40114 0.55008 0.0
O319 O 0.86072 0.42517 0.56707 0.0
O320 O 0.85353 0.35347 0.51931 0.0
O321 O 0.82491 0.37149 0.51646 0.0
O322 O 0.69477 0.57191 0.3377 0.0
Cd323 Cd 0.72557 0.57448 0.35967 0.0
Cd324 Cd 0.70367 0.59835 0.38541 0.0
O325 O 0.67917 0.59581 0.35647 0.0
O326 O 0.7416 0.5576 0.33948 0.0
O327 O 0.73378 0.54755 0.37367 0.0
C328 C 0.74272 0.54404 0.35509 0.0
C329 C 0.6904 0.57871 0.41524 0.0
C330 C 0.67869 0.58255 0.33875 0.0
C331 C 0.75078 0.62242 0.37722 0.0
O332 O 0.734 0.62362 0.38868 0.0
O333 O 0.75001 0.60462 0.36461 0.0
O334 O 0.68774 0.59881 0.41322 0.0
O335 O 0.70188 0.57021 0.40086 0.0
Tb336 Tb 0.04836 0.02892 0.03206 0.0
Eu337 Eu 0.10007 0.05552 0.06202 0.0
C338 C 0.09451 0.02159 0.01512 0.0
C339 C 0.07664 1.00488 0.06736 0.0
C340 C 0.98874 0.03014 1.01193 0.0
C341 C 0.96409 0.05092 0.99025 0.0
C342 C 0.97777 0.03492 0.99076 0.0
C343 C 0.98519 0.04119 0.03256 0.0
C344 C 0.97178 0.05718 0.03201 0.0
C345 C 0.96147 0.06257 1.01091 0.0
C346 C 1.00649 1.0164 1.01251 0.0
O347 O 0.04375 0.05625 0.05501 0.0
O348 O 0.07222 0.05609 0.08503 0.0
O349 O 0.08534 0.08167 0.04459 0.0
O350 O 0.0643 0.05706 0.0143 0.0
C351 C 0.05177 0.05978 0.07707 0.0
O352 O 0.12549 0.06085 0.09352 0.0
O353 O 0.1344 0.07887 0.064 0.0
O354 O 0.10639 0.03963 0.02847 0.0
O355 O 0.07202 1.01257 0.01553 0.0
O356 O 0.05567 1.00715 0.05871 0.0
O357 O 0.09611 0.01925 0.0651 0.0
C358 C 0.07337 0.0776 0.02375 0.0
O359 O 1.02419 0.02354 1.00134 0.0
O360 O 1.01362 1.01075 0.03276 0.0
C361 C 0.16301 0.0618 0.08271 0.0
C362 C 0.19537 0.03439 0.07965 0.0
C363 C 0.18792 0.03935 0.10094 0.0
C364 C 0.17197 0.05299 0.10246 0.0
C365 C 0.17134 0.05767 0.06165 0.0
C366 C 0.18739 0.04419 0.06019 0.0
C367 C 0.14246 0.07191 0.0833 0.0
H368 H 0.95628 0.05477 0.97373 0.0
H369 H 0.98047 0.02687 0.97461 0.0
H370 H 0.99344 0.03812 0.04923 0.0
H371 H 0.96967 0.06559 0.04815 0.0
H372 H 0.19406 0.03229 0.11632 0.0
H373 H 0.16578 0.05579 0.11886 0.0
H374 H 0.16466 0.06395 0.04597 0.0
H375 H 0.19272 0.04061 0.04354 0.0
Tb376 Tb 0.35768 0.80214 0.293 0.0
Eu377 Eu 0.30619 0.76623 0.27555 0.0
C378 C 0.31103 0.81968 0.28428 0.0
C379 C 0.32823 0.7764 0.32929 0.0
C380 C 0.40862 0.85192 0.30442 0.0
C381 C 0.40531 0.88986 0.29862 0.0
C382 C 0.3947 0.86718 0.29915 0.0
C383 C 0.43323 0.85948 0.30873 0.0
C384 C 0.44386 0.88212 0.30806 0.0
C385 C 0.43001 0.89757 0.30316 0.0
C386 C 0.39774 0.82822 0.30595 0.0
O387 O 0.3632 0.77039 0.27879 0.0
O388 O 0.33161 0.74649 0.28929 0.0
O389 O 0.32337 0.77618 0.24399 0.0
O390 O 0.3471 0.81044 0.25842 0.0
C391 C 0.35356 0.75094 0.28551 0.0
O392 O 0.28659 0.73792 0.25135 0.0
O393 O 0.26844 0.75322 0.27586 0.0
O394 O 0.29953 0.80041 0.27296 0.0
O395 O 0.33218 0.82259 0.29616 0.0
O396 O 0.34905 0.78425 0.32297 0.0
O397 O 0.30873 0.7718 0.31437 0.0
C398 C 0.33571 0.79615 0.24086 0.0
O399 O 0.38093 0.82431 0.31881 0.0
O400 O 0.39231 0.81537 0.28652 0.0
C401 C 0.25348 0.71435 0.26317 0.0
C402 C 0.22786 0.67059 0.26789 0.0
C403 C 0.23319 0.67692 0.24614 0.0
C404 C 0.24573 0.69857 0.24382 0.0
C405 C 0.24833 0.70821 0.285 0.0
C406 C 0.23557 0.6865 0.28732 0.0
C407 C 0.26687 0.73692 0.25981 0.0
H408 H 0.39421 0.90133 0.29452 0.0
H409 H 0.37566 0.86156 0.29561 0.0
H410 H 0.44421 0.84791 0.31285 0.0
H411 H 0.4629 0.8876 0.31181 0.0
H412 H 0.22802 0.66502 0.23088 0.0
H413 H 0.24958 0.70295 0.22684 0.0
H414 H 0.25415 0.7201 0.30023 0.0
H415 H 0.23161 0.68224 0.30429 0.0
Tb416 Tb 0.56222 0.03026 0.5372 0.0
Eu417 Eu 0.59503 0.0721 0.57008 0.0
C418 C 0.57119 0.0265 0.58923 0.0
C419 C 0.53867 0.07038 0.5535 0.0
C420 C 0.53524 0.97185 0.51691 0.0
C421 C 0.55079 0.943 0.53516 0.0
C422 C 0.55187 0.96557 0.53283 0.0
C423 C 0.51674 0.95546 0.50429 0.0
C424 C 0.51552 0.93284 0.50675 0.0
C425 C 0.53289 0.92644 0.52177 0.0
C426 C 0.53738 0.99548 0.51344 0.0
O427 O 0.57822 0.05288 0.51374 0.0
O428 O 0.58698 0.08618 0.53639 0.0
O429 O 0.62079 0.05301 0.55613 0.0
O430 O 0.59524 0.01877 0.54858 0.0
C431 C 0.58286 0.07483 0.51599 0.0
O432 O 0.62793 0.09756 0.57751 0.0
O433 O 0.60323 0.09358 0.60261 0.0
O434 O 0.5905 0.04235 0.59089 0.0
O435 O 0.55476 0.02431 0.57164 0.0
O436 O 0.53894 0.05432 0.53728 0.0
O437 O 0.55728 0.0777 0.56968 0.0
C438 C 0.6173 0.03104 0.55238 0.0
O439 O 0.52965 1.00685 0.52905 0.0
O440 O 0.55789 1.00617 0.50893 0.0
C441 C 0.62769 0.12958 0.60119 0.0
C442 C 0.6386 0.17663 0.60715 0.0
C443 C 0.65582 0.16484 0.61385 0.0
C444 C 0.65036 0.14151 0.61093 0.0
C445 C 0.61039 0.14115 0.59432 0.0
C446 C 0.61579 0.16454 0.59738 0.0
C447 C 0.62302 0.1052 0.59718 0.0
H448 H 0.56435 0.93845 0.54683 0.0
H449 H 0.56606 0.97809 0.54301 0.0
H450 H 0.50366 0.96011 0.49211 0.0
H451 H 0.50174 0.92033 0.49599 0.0
H452 H 0.67362 0.17366 0.62108 0.0
H453 H 0.66397 0.13276 0.61602 0.0
H454 H 0.59283 0.13211 0.58654 0.0
H455 H 0.60208 0.17314 0.59229 0.0
Tb456 Tb 0.31715 0.29803 0.78045 0.0
Eu457 Eu 0.37302 0.30243 0.79595 0.0
C458 C 0.35474 0.33798 0.7676 0.0
C459 C 0.34751 0.2799 0.74396 0.0
C460 C 0.25216 0.29069 0.77909 0.0
C461 C 0.20942 0.28085 0.77466 0.0
C462 C 0.23032 0.28564 0.76492 0.0
C463 C 0.25299 0.29079 0.80315 0.0
C464 C 0.23208 0.2861 0.81293 0.0
C465 C 0.21005 0.28112 0.79878 0.0
C466 C 0.27384 0.29611 0.7685 0.0
O467 O 0.31925 0.26601 0.79277 0.0
O468 O 0.35499 0.27555 0.81607 0.0
O469 O 0.36054 0.32279 0.82444 0.0
O470 O 0.32122 0.30553 0.81861 0.0
C471 C 0.33416 0.2621 0.80968 0.0
O472 O 0.40455 0.28917 0.80085 0.0
O473 O 0.40682 0.32433 0.81069 0.0
O474 O 0.37021 0.32576 0.76867 0.0
O475 O 0.33552 0.33223 0.77711 0.0
O476 O 0.3294 0.28861 0.7475 0.0
O477 O 0.36469 0.28066 0.76111 0.0
C478 C 0.33982 0.31832 0.83206 0.0
O479 O 0.28928 0.31422 0.77752 0.0
O480 O 0.28373 0.27962 0.76441 0.0
C481 C 0.43888 0.31562 0.79533 0.0
C482 C 0.47769 0.33225 0.77244 0.0
C483 C 0.48065 0.332 0.79662 0.0
C484 C 0.46137 0.32375 0.80797 0.0
C485 C 0.4358 0.31563 0.77118 0.0
C486 C 0.4551 0.3238 0.75979 0.0
C487 C 0.41847 0.30891 0.80757 0.0
H488 H 0.19277 0.27667 0.76326 0.0
H489 H 0.22943 0.2854 0.7463 0.0
H490 H 0.26977 0.29466 0.81434 0.0
H491 H 0.23317 0.28664 0.83157 0.0
H492 H 0.4979 0.33812 0.80677 0.0
H493 H 0.46395 0.32401 0.82664 0.0
H494 H 0.41843 0.30969 0.7612 0.0
H495 H 0.45227 0.32395 0.74118 0.0
Tb496 Tb 0.07141 0.05341 0.51681 0.0
Eu497 Eu 0.07669 0.07674 0.56707 0.0
C498 C 0.12316 0.0778 0.54126 0.0
C499 C 0.07781 0.0227 0.55997 0.0
C500 C 0.04983 0.03894 0.45452 0.0
C501 C 0.04633 0.0476 0.41462 0.0
C502 C 0.06008 0.04404 0.43454 0.0
C503 C 1.02556 0.0375 0.45434 0.0
C504 C 1.01175 0.04082 0.43432 0.0
C505 C 1.02204 0.04593 0.41432 0.0
C506 C 0.06487 0.03605 0.47553 0.0
O507 O 0.03414 0.05109 0.52309 0.0
O508 O 0.04017 0.05303 0.56226 0.0
O509 O 0.06849 0.1045 0.54443 0.0
O510 O 0.07464 0.08955 0.50975 0.0
C511 C 1.02571 0.04705 0.54277 0.0
O512 O 0.06241 0.09562 0.5925 0.0
O513 O 0.0972 0.08893 0.6007 0.0
O514 O 0.11306 0.08851 0.55579 0.0
O515 O 0.11012 0.06036 0.52759 0.0
O516 O 0.0739 0.02428 0.53735 0.0
O517 O 0.08101 0.04103 0.57452 0.0
C518 C 0.07164 0.10701 0.52265 0.0
O519 O 0.08181 0.05333 0.48369 0.0
O520 O 0.05422 0.02681 0.49191 0.0
C521 C 0.07635 0.09424 0.63198 0.0
C522 C 0.07677 0.09311 0.67993 0.0
C523 C 0.07061 0.11097 0.66889 0.0
C524 C 0.07047 0.11154 0.64509 0.0
C525 C 0.08051 0.07545 0.64257 0.0
C526 C 0.08072 0.07489 0.66641 0.0
C527 C 0.08073 0.09751 0.60817 0.0
H528 H 0.05459 0.05122 0.39929 0.0
H529 H 0.07877 0.04532 0.43438 0.0
H530 H 1.01724 0.03387 0.46963 0.0
H531 H 0.99307 0.03951 0.43449 0.0
H532 H 0.0672 0.12508 0.67884 0.0
H533 H 0.06706 0.1261 0.63713 0.0
H534 H 0.08492 0.06183 0.63268 0.0
H535 H 0.08571 0.06098 0.67443 0.0
Tb536 Tb 0.30907 0.78967 0.78993 0.0
Eu537 Eu 0.32819 0.84086 0.7805 0.0
C538 C 0.31207 0.82824 0.82919 0.0
C539 C 0.27251 0.81778 0.76948 0.0
C540 C 0.30001 0.72861 0.79516 0.0
C541 C 0.28966 0.68808 0.78927 0.0
C542 C 0.28313 0.70827 0.79332 0.0
C543 C 0.32364 0.72868 0.79358 0.0
C544 C 0.33022 0.70851 0.78965 0.0
C545 C 0.3132 0.68803 0.78701 0.0
C546 C 0.29245 0.74959 0.79719 0.0
O547 O 0.32724 0.787 0.7598 0.0
O548 O 0.32358 0.82015 0.74625 0.0
O549 O 0.36224 0.82931 0.79025 0.0
O550 O 0.34707 0.79609 0.80476 0.0
C551 C 0.32673 0.79984 0.74281 0.0
O552 O 0.32422 0.86865 0.76025 0.0
O553 O 0.35384 0.87305 0.78729 0.0
O554 O 0.32653 0.8422 0.81864 0.0
O555 O 0.29956 0.80912 0.81838 0.0
O556 O 0.27903 0.79858 0.76866 0.0
O557 O 0.28808 0.83615 0.77876 0.0
C558 C 0.36539 0.81224 0.80182 0.0
O559 O 0.30486 0.76493 0.81308 0.0
O560 O 0.28787 0.75784 0.77772 0.0
C561 C 0.33479 0.90274 0.78351 0.0
C562 C 0.31527 0.93674 0.80152 0.0
C563 C 0.31743 0.93449 0.77788 0.0
C564 C 0.32719 0.91763 0.76896 0.0
C565 C 0.33332 0.90543 0.8073 0.0
C566 C 0.3238 0.92242 0.81625 0.0
C567 C 0.34131 0.88292 0.77338 0.0
H568 H 0.27613 0.67261 0.78702 0.0
H569 H 0.26478 0.70804 0.79437 0.0
H570 H 0.33686 0.74432 0.79489 0.0
H571 H 0.34854 0.70895 0.78827 0.0
H572 H 0.31115 0.94552 0.76625 0.0
H573 H 0.328 0.91569 0.75056 0.0
H574 H 0.33872 0.89392 0.81887 0.0
H575 H 0.32216 0.92375 0.8345 0.0
Tb576 Tb 0.59126 0.04635 0.06841 0.0
Eu577 Eu 0.56726 0.0543 0.01901 0.0
C578 C 0.58365 1.00675 0.02611 0.0
C579 C 0.62161 0.07211 0.03508 0.0
C580 C 0.62574 0.05726 0.12641 0.0
C581 C 0.64604 0.09532 0.1416 0.0
C582 C 0.6366 0.07929 0.12276 0.0
C583 C 0.62571 0.05108 0.14891 0.0
C584 C 0.63485 0.06706 0.16769 0.0
C585 C 0.64434 0.08963 0.16433 0.0
C586 C 0.61189 0.04141 0.10725 0.0
O587 O 0.5818 0.07954 0.07643 0.0
O588 O 0.56992 0.08841 0.04002 0.0
O589 O 0.53797 0.04618 0.04052 0.0
O590 O 0.55581 0.02487 0.06354 0.0
C591 C 0.57522 0.09422 0.06268 0.0
O592 O 0.56808 0.07172 0.98773 0.0
O593 O 0.53818 0.04467 0.99068 0.0
O594 O 0.56886 1.01694 0.01472 0.0
O595 O 0.59674 1.01733 0.04559 0.0
O596 O 0.6158 0.07283 0.05584 0.0
O597 O 0.60649 0.06048 0.01796 0.0
C598 C 0.53662 0.03014 0.0542 0.0
O599 O 0.5896 0.04174 0.10337 0.0
O600 O 0.62126 0.04075 0.08819 0.0
C601 C 0.55329 0.04511 0.9551 0.0
C602 C 0.56498 0.01861 0.91912 0.0
C603 C 0.57875 0.04035 0.92629 0.0
C604 C 0.57294 0.05349 0.94403 0.0
C605 C 0.53881 0.0238 0.94708 0.0
C606 C 0.54466 1.01065 0.92936 0.0
C607 C 0.54971 0.0571 0.97666 0.0
H608 H 0.65345 0.11239 0.1383 0.0
H609 H 0.63672 0.08437 0.1054 0.0
H610 H 0.61728 0.03417 0.15199 0.0
H611 H 0.63264 0.06192 0.18477 0.0
H612 H 0.59456 0.04693 0.91877 0.0
H613 H 0.58443 0.06984 0.9497 0.0
H614 H 0.52342 1.0169 0.95509 0.0
H615 H 0.53345 0.99414 0.92384 0.0
Tb616 Tb 0.33691 0.32055 0.29828 0.0
Eu617 Eu 0.31191 0.27329 0.27176 0.0
C618 C 0.33068 0.27817 0.32818 0.0
C619 C 0.36887 0.29409 0.26991 0.0
C620 C 0.34146 0.3684 0.33884 0.0
C621 C 0.30729 0.36104 0.3592 0.0
C622 C 0.32593 0.35397 0.35073 0.0
C623 C 0.34052 0.39092 0.33894 0.0
C624 C 0.32202 0.39807 0.34758 0.0
C625 C 0.30416 0.38264 0.35599 0.0
C626 C 0.35204 0.35871 0.32038 0.0
O627 O 0.32319 0.32921 0.26344 0.0
O628 O 0.31799 0.29572 0.24212 0.0
O629 O 0.28042 0.28623 0.28268 0.0
O630 O 0.30208 0.31163 0.31175 0.0
C631 C 0.32012 0.31754 0.24299 0.0
O632 O 0.29145 0.25129 0.24166 0.0
O633 O 0.30238 0.23724 0.27281 0.0
O634 O 0.31693 0.2662 0.31004 0.0
O635 O 0.34251 0.29871 0.32607 0.0
O636 O 0.36661 0.31301 0.28078 0.0
O637 O 0.35097 0.27621 0.26713 0.0
C638 C 0.28131 0.29916 0.3019 0.0
O639 O 0.36099 0.34165 0.32476 0.0
O640 O 0.33837 0.35492 0.30063 0.0
C641 C 0.30521 0.21788 0.23851 0.0
C642 C 0.33857 0.1931 0.22986 0.0
C643 C 0.33979 0.21405 0.22122 0.0
C644 C 0.32341 0.22648 0.22576 0.0
C645 C 0.30222 0.19586 0.24453 0.0
C646 C 0.31882 0.18358 0.24036 0.0
C647 C 0.29397 0.23313 0.25096 0.0
H648 H 0.29394 0.3489 0.36587 0.0
H649 H 0.32639 0.33649 0.35098 0.0
H650 H 0.35224 0.40226 0.32974 0.0
H651 H 0.32011 0.41483 0.34483 0.0
H652 H 0.3544 0.22157 0.21248 0.0
H653 H 0.32621 0.24351 0.22104 0.0
H654 H 0.28844 0.18902 0.2546 0.0
H655 H 0.31729 0.16754 0.24733 0.0
Tb656 Tb 0.58376 0.54316 0.02006 0.0
Eu657 Eu 0.58982 0.56528 0.07141 0.0
C658 C 0.6358 0.56815 0.04444 0.0
C659 C 0.59016 0.51116 0.06242 0.0
C660 C 0.56198 0.53094 0.95802 0.0
C661 C 0.54642 0.52272 0.91734 0.0
C662 C 0.56024 0.51831 0.93684 0.0
C663 C 0.5498 0.54803 0.9596 0.0
C664 C 0.53604 0.5525 0.9401 0.0
C665 C 0.53418 0.53986 0.91877 0.0
C666 C 0.57644 0.5263 0.97848 0.0
O667 O 0.54691 0.54228 0.02659 0.0
O668 O 0.55265 0.54281 0.06567 0.0
O669 O 0.58396 0.59447 0.04976 0.0
O670 O 0.5858 0.5792 0.01361 0.0
C671 C 0.53825 0.538 0.04609 0.0
O672 O 0.57605 0.58414 0.09728 0.0
O673 O 0.60993 0.57558 0.10557 0.0
O674 O 0.62598 0.57754 0.06023 0.0
O675 O 0.62276 0.55137 0.02983 0.0
O676 O 0.5858 0.51333 0.03992 0.0
O677 O 0.59399 0.52922 0.07745 0.0
C678 C 0.58504 0.5969 0.02754 0.0
O679 O 0.59439 0.5425 0.98709 0.0
O680 O 0.56481 0.51774 0.99455 0.0
C681 C 0.58909 0.5815 0.13676 0.0
C682 C 0.58857 0.57984 0.18456 0.0
C683 C 0.58394 0.59842 0.17381 0.0
C684 C 0.58423 0.59923 0.15009 0.0
C685 C 0.59182 0.56212 0.14706 0.0
C686 C 0.59153 0.5613 0.17083 0.0
C687 C 0.59397 0.58486 0.11309 0.0
H688 H 0.54556 0.51291 0.90105 0.0
H689 H 0.56959 0.5051 0.93538 0.0
H690 H 0.55091 0.55787 0.97592 0.0
H691 H 0.52664 0.56565 0.94178 0.0
H692 H 0.58138 0.61284 0.18396 0.0
H693 H 0.58197 0.61427 0.14237 0.0
H694 H 0.59546 0.54818 0.137 0.0
H695 H 0.59533 0.54683 0.17869 0.0
Tb696 Tb 0.81837 0.27832 0.29638 0.0
Eu697 Eu 0.83896 0.32951 0.28715 0.0
C698 C 0.8206 0.31669 0.33486 0.0
C699 C 0.78259 0.30614 0.27359 0.0
C700 C 0.80906 0.21716 0.29956 0.0
C701 C 0.79719 0.17712 0.28877 0.0
C702 C 0.79168 0.19707 0.29627 0.0
C703 C 0.83223 0.21708 0.29605 0.0
C704 C 0.8378 0.19713 0.28871 0.0
C705 C 0.82021 0.17704 0.28447 0.0
C706 C 0.80226 0.23827 0.30423 0.0
O707 O 0.83408 0.27447 0.26481 0.0
O708 O 0.83906 0.31006 0.25325 0.0
O709 O 0.87256 0.317 0.29591 0.0
O710 O 0.85626 0.28538 0.31233 0.0
C711 C 0.83823 0.28865 0.24908 0.0
O712 O 0.83671 0.35836 0.26797 0.0
O713 O 0.86376 0.36181 0.29733 0.0
O714 O 0.83678 0.32952 0.32513 0.0
O715 O 0.80741 0.29812 0.32357 0.0
O716 O 0.78839 0.28668 0.27467 0.0
O717 O 0.79847 0.3247 0.28189 0.0
C718 C 0.87514 0.30053 0.30861 0.0
O719 O 0.81668 0.25323 0.31921 0.0
O720 O 0.7952 0.24705 0.28588 0.0
C721 C 0.84337 0.39006 0.29429 0.0
C722 C 0.82427 0.42308 0.31496 0.0
C723 C 0.84128 0.42885 0.30001 0.0
C724 C 0.85077 0.41238 0.28968 0.0
C725 C 0.82683 0.38437 0.30958 0.0
C726 C 0.81739 0.40073 0.31986 0.0
C727 C 0.8522 0.37224 0.28314 0.0
H728 H 0.78321 0.16197 0.28541 0.0
H729 H 0.77365 0.19695 0.29868 0.0
H730 H 0.84583 0.23253 0.29834 0.0
H731 H 0.85576 0.19752 0.28587 0.0
H732 H 0.84671 0.44596 0.2958 0.0
H733 H 0.86353 0.41697 0.2779 0.0
H734 H 0.82098 0.36717 0.31336 0.0
H735 H 0.80454 0.39586 0.3315 0.0
Tb736 Tb 0.08015 0.56211 0.57207 0.0
Eu737 Eu 0.05149 0.5669 0.52301 0.0
C738 C 0.06997 0.52005 0.53145 0.0
C739 C 0.10672 0.58522 0.53348 0.0
C740 C 0.10834 0.54801 0.6303 0.0
C741 C 0.13598 0.5487 0.66483 0.0
C742 C 0.13161 0.55185 0.64143 0.0
C743 C 0.08976 0.53758 0.64169 0.0
C744 C 0.09407 0.53468 0.66512 0.0
C745 C 0.11705 0.5421 0.6774 0.0
C746 C 0.10376 0.56067 0.61054 0.0
O747 O 0.06937 0.59471 0.5787 0.0
O748 O 0.05545 0.60189 0.54229 0.0
O749 O 1.02523 0.55861 0.5478 0.0
O750 O 0.04582 0.53944 0.57098 0.0
C751 C 0.06188 0.6086 0.56462 0.0
O752 O 0.0462 0.58316 0.49145 0.0
O753 O 1.02015 0.55391 0.49764 0.0
O754 O 0.05659 0.53067 0.51868 0.0
O755 O 0.08193 0.53021 0.55163 0.0
O756 O 0.10384 0.58591 0.55525 0.0
O757 O 0.08968 0.57434 0.51751 0.0
C758 C 1.02569 0.54303 0.56186 0.0
O759 O 0.11073 0.5558 0.59089 0.0
O760 O 0.08359 0.56644 0.60792 0.0
C761 C 1.03026 0.5552 0.46022 0.0
C762 C 0.03694 0.52657 0.42337 0.0
C763 C 1.01494 0.52328 0.43137 0.0
C764 C 1.0116 0.53756 0.44959 0.0
C765 C 0.05195 0.559 0.45154 0.0
C766 C 0.05522 0.54485 0.43329 0.0
C767 C 1.02821 0.56699 0.48235 0.0
H768 H 0.15395 0.55384 0.67359 0.0
H769 H 0.14624 0.55967 0.63283 0.0
H770 H 0.07164 0.53416 0.63335 0.0
H771 H 0.07895 0.52934 0.67402 0.0
H772 H 1.0005 0.50945 0.42381 0.0
H773 H 0.99476 0.53422 0.45609 0.0
H774 H 0.06681 0.57226 0.45948 0.0
H775 H 0.07244 0.54767 0.4276 0.0
Tb776 Tb 0.81848 0.79476 0.28306 0.0
Eu777 Eu 0.87367 0.79902 0.30216 0.0
C778 C 0.85751 0.83433 0.27186 0.0
C779 C 0.85016 0.77564 0.24938 0.0
C780 C 0.75496 0.79407 0.27845 0.0
C781 C 0.71228 0.78405 0.27481 0.0
C782 C 0.73297 0.78596 0.26483 0.0
C783 C 0.75619 0.8005 0.30209 0.0
C784 C 0.73555 0.79877 0.31203 0.0
C785 C 0.71343 0.79037 0.2985 0.0
C786 C 0.77651 0.79503 0.26805 0.0
O787 O 0.81612 0.76801 0.30523 0.0
O788 O 0.85508 0.7664 0.31383 0.0
O789 O 0.85957 0.80953 0.33481 0.0
O790 O 0.82298 0.81292 0.31856 0.0
C791 C 0.83247 0.75861 0.31454 0.0
O792 O 0.90528 0.78588 0.30211 0.0
O793 O 0.90696 0.8172 0.32219 0.0
O794 O 0.8708 0.83251 0.29082 0.0
O795 O 0.83931 0.81825 0.26334 0.0
O796 O 0.82918 0.77323 0.25633 0.0
O797 O 0.86913 0.78759 0.26302 0.0
C798 C 0.8396 0.81545 0.33681 0.0
O799 O 0.7933 0.81311 0.2741 0.0
O800 O 0.78449 0.77691 0.26833 0.0
C801 C 0.94005 0.81424 0.30433 0.0
C802 C 0.98047 0.83369 0.28496 0.0
C803 C 0.97978 0.81447 0.29682 0.0
C804 C 0.95973 0.80487 0.30649 0.0
C805 C 0.94061 0.83337 0.29237 0.0
C806 C 0.96076 0.84312 0.2829 0.0
C807 C 0.9189 0.80368 0.31413 0.0
H808 H 0.69541 0.77758 0.26406 0.0
H809 H 0.73181 0.78087 0.24656 0.0
H810 H 0.77308 0.80657 0.31291 0.0
H811 H 0.73689 0.8034 0.33042 0.0
H812 H 0.99485 0.807 0.29879 0.0
H813 H 0.95955 0.79008 0.31558 0.0
H814 H 0.92546 0.84071 0.29026 0.0
H815 H 0.96079 0.85778 0.27365 0.0
Tb816 Tb 0.84581 0.30926 0.79827 0.0
Eu817 Eu 0.79596 0.27173 0.78003 0.0
C818 C 0.79854 0.3248 0.78808 0.0
C819 C 0.81818 0.28055 0.83363 0.0
C820 C 0.89343 0.36106 0.81246 0.0
C821 C 0.88699 0.39762 0.80482 0.0
C822 C 0.87855 0.37442 0.80384 0.0
C823 C 0.91687 0.37098 0.82171 0.0
C824 C 0.92537 0.39413 0.82255 0.0
C825 C 0.91048 0.40768 0.81425 0.0
C826 C 0.88446 0.33693 0.81274 0.0
O827 O 0.85392 0.27892 0.78371 0.0
O828 O 0.82267 0.25242 0.7916 0.0
O829 O 0.81385 0.28177 0.74893 0.0
O830 O 0.83587 0.31675 0.76323 0.0
C831 C 0.84482 0.25849 0.78845 0.0
O832 O 0.77657 0.24387 0.75518 0.0
O833 O 0.75828 0.25828 0.78022 0.0
O834 O 0.78848 0.30545 0.77624 0.0
O835 O 0.81897 0.32816 0.80136 0.0
O836 O 0.83859 0.28943 0.8271 0.0
O837 O 0.79848 0.27564 0.81901 0.0
C838 C 0.82577 0.30187 0.74571 0.0
O839 O 0.86755 0.33115 0.8252 0.0
O840 O 0.88005 0.32507 0.79273 0.0
C841 C 0.74251 0.22034 0.76513 0.0
C842 C 0.71654 0.17612 0.76634 0.0
C843 C 0.71541 0.18669 0.74581 0.0
C844 C 0.72822 0.20859 0.74526 0.0
C845 C 0.74358 0.21013 0.78582 0.0
C846 C 0.7306 0.18815 0.78644 0.0
C847 C 0.75666 0.24285 0.76327 0.0
H848 H 0.87522 0.40766 0.79809 0.0
H849 H 0.86041 0.3669 0.79654 0.0
H850 H 0.9285 0.36084 0.82853 0.0
H851 H 0.94348 0.40148 0.83011 0.0
H852 H 0.70521 0.17781 0.7299 0.0
H853 H 0.72735 0.21623 0.72912 0.0
H854 H 0.75462 0.219 0.80133 0.0
H855 H 0.73171 0.18054 0.80256 0.0
Tb856 Tb 0.83045 0.82897 0.80662 0.0
Eu857 Eu 0.80451 0.78151 0.77959 0.0
C858 C 0.82707 0.78561 0.83555 0.0
C859 C 0.8613 0.80292 0.77657 0.0
C860 C 0.85866 0.88868 0.81574 0.0
C861 C 0.86289 0.90418 0.77911 0.0
C862 C 0.86519 0.88738 0.79348 0.0
C863 C 0.85402 0.90859 0.82482 0.0
C864 C 0.85149 0.92528 0.81039 0.0
C865 C 0.85344 0.92196 0.78676 0.0
C866 C 0.8489 0.86797 0.82569 0.0
O867 O 0.82348 0.83787 0.77018 0.0
O868 O 0.79918 0.80548 0.75175 0.0
O869 O 0.77328 0.79112 0.79449 0.0
O870 O 0.79457 0.82163 0.81863 0.0
C871 C 0.8105 0.82656 0.75108 0.0
O872 O 0.79187 0.75947 0.74748 0.0
O873 O 0.78894 0.74583 0.78015 0.0
O874 O 0.81515 0.77311 0.81674 0.0
O875 O 0.83581 0.80726 0.83466 0.0
O876 O 0.86 0.82093 0.78959 0.0
O877 O 0.84284 0.78567 0.7722 0.0
C878 C 0.77427 0.80668 0.81153 0.0
O879 O 0.82636 0.8603 0.81894 0.0
O880 O 0.86028 0.85211 0.82475 0.0
C881 C 0.80353 0.7254 0.75232 0.0
C882 C 0.83977 0.70228 0.75042 0.0
C883 C 0.83729 0.71855 0.73516 0.0
C884 C 0.81942 0.73004 0.73613 0.0
C885 C 0.80464 0.70769 0.76602 0.0
C886 C 0.82265 0.69634 0.7652 0.0
C887 C 0.78917 0.74136 0.75815 0.0
H888 H 0.86506 0.90155 0.7611 0.0
H889 H 0.86896 0.87215 0.78616 0.0
H890 H 0.84902 0.9099 0.842 0.0
H891 H 0.84444 0.93891 0.8169 0.0
H892 H 0.8498 0.7231 0.72313 0.0
H893 H 0.819 0.74347 0.72515 0.0
H894 H 0.79262 0.70371 0.77861 0.0
H895 H 0.82401 0.68397 0.77728 0.0
Tb896 Tb 0.5309 0.5257 0.53397 0.0
Eu897 Eu 0.58172 0.54264 0.56909 0.0
C898 C 0.57856 0.51854 0.5186 0.0
C899 C 0.54875 0.49657 0.56854 0.0
C900 C 0.47255 0.52957 0.51161 0.0
C901 C 0.4468 0.55079 0.49244 0.0
C902 C 0.46089 0.53523 0.4913 0.0
C903 C 0.46934 0.53922 0.53309 0.0
C904 C 0.45544 0.55476 0.53422 0.0
C905 C 0.4444 0.56109 0.51393 0.0
C906 C 0.49072 0.51653 0.51047 0.0
O907 O 0.52331 0.54002 0.56646 0.0
O908 O 0.55889 0.56327 0.58338 0.0
O909 O 0.58264 0.56607 0.54126 0.0
O910 O 0.54249 0.5617 0.5339 0.0
C911 C 0.53578 0.557 0.58096 0.0
O912 O 0.60298 0.53375 0.59855 0.0
O913 O 0.61682 0.56349 0.58215 0.0
O914 O 0.58722 0.519 0.54044 0.0
O915 O 0.55815 0.52349 0.51242 0.0
O916 O 0.54131 0.49633 0.54651 0.0
O917 O 0.55442 0.5159 0.58083 0.0
C918 C 0.56407 0.5729 0.53267 0.0
O919 O 0.5097 0.5269 0.50264 0.0
O920 O 0.49584 0.5067 0.52889 0.0
C921 C 0.64291 0.54106 0.59449 0.0
C922 C 0.6798 0.51934 0.58999 0.0
C923 C 0.67423 0.52507 0.61198 0.0
C924 C 0.65587 0.53578 0.61419 0.0
C925 C 0.64875 0.53585 0.57257 0.0
C926 C 0.66702 0.52512 0.57036 0.0
C927 C 0.62158 0.5493 0.59659 0.0
H928 H 0.43856 0.5554 0.4765 0.0
H929 H 0.46339 0.52828 0.47454 0.0
H930 H 0.47818 0.53538 0.5491 0.0
H931 H 0.45361 0.56209 0.55102 0.0
H932 H 0.68387 0.52104 0.62747 0.0
H933 H 0.65138 0.5394 0.63122 0.0
H934 H 0.63871 0.53945 0.55711 0.0
H935 H 0.67056 0.52062 0.55321 0.0
Tb936 Tb 0.07603 0.53283 0.03765 0.0
Eu937 Eu 0.10531 0.57109 0.07788 0.0
C938 C 0.08153 0.52054 0.08919 0.0
C939 C 0.04939 0.56953 0.05945 0.0
C940 C 0.05448 0.48126 0.99684 0.0
C941 C 0.0324 0.44506 0.97811 0.0
C942 C 0.03343 0.46738 0.98533 0.0
C943 C 0.07453 0.47253 1.00127 0.0
C944 C 0.07359 0.45025 0.99387 0.0
C945 C 0.05251 0.43627 0.98212 0.0
C946 C 0.0552 0.50475 1.00398 0.0
O947 O 0.09762 0.55995 0.02239 0.0
O948 O 0.0969 0.58929 0.0473 0.0
O949 O 0.13255 0.55346 0.0641 0.0
O950 O 0.10805 0.52009 0.04847 0.0
C951 C 0.09721 0.58099 0.02632 0.0
O952 O 0.13723 0.59739 0.08854 0.0
O953 O 0.11206 0.58824 0.11266 0.0
O954 O 0.09627 0.53996 0.09595 0.0
O955 O 0.07034 0.51536 0.06807 0.0
O956 O 0.05027 0.55414 0.04269 0.0
O957 O 0.06767 0.57684 0.07595 0.0
C958 C 0.12963 0.53214 0.05638 0.0
O959 O 0.04583 0.5084 0.02249 0.0
O960 O 0.07521 0.51907 1.00377 0.0
C961 C 0.134 0.62588 0.11577 0.0
C962 C 0.14056 0.67211 0.12784 0.0
C963 C 0.15995 0.66215 0.12929 0.0
C964 C 0.15666 0.63923 0.12337 0.0
C965 C 0.11454 0.63565 0.1142 0.0
C966 C 0.11779 0.65859 0.12031 0.0
C967 C 0.13132 0.60204 0.10877 0.0
H968 H 1.01575 0.43465 0.96957 0.0
H969 H 1.01775 0.4738 0.98194 0.0
H970 H 0.09097 0.48296 1.01029 0.0
H971 H 0.08944 0.44409 0.99708 0.0
H972 H 0.17775 0.67213 0.13461 0.0
H973 H 0.17189 0.63195 0.12445 0.0
H974 H 0.0969 0.6256 0.10817 0.0
H975 H 0.10247 0.66569 0.11924 0.0
C976 C 0.03242 0.17841 0.96511 0.0
C977 C 0.03949 0.17965 0.94311 0.0
C978 C 0.0388 0.16298 0.9797 0.0
C979 C 0.05277 0.14873 0.97212 0.0
C980 C 0.06055 0.15037 0.95023 0.0
C981 C 0.0537 0.16575 0.93591 0.0
C982 C 1.02994 0.1614 1.00285 0.0
C983 C 0.07561 0.13549 0.94168 0.0
C984 C 0.08342 0.11752 0.01509 0.0
C985 C 0.06837 0.0961 1.011 0.0
C986 C 0.07848 0.13503 1.00267 0.0
C987 C 0.05783 0.13092 0.98625 0.0
C988 C 0.04228 0.10944 0.98259 0.0
C989 C 0.04786 0.09223 0.99488 0.0
C990 C 0.09549 0.15775 1.00681 0.0
C991 C 1.01984 0.10455 0.96554 0.0
H992 H 1.02143 0.18913 0.97074 0.0
H993 H 0.05942 0.16681 0.91901 0.0
H994 H 1.01763 0.14485 1.003 0.0
H995 H 0.04484 0.16267 0.01684 0.0
H996 H 1.02058 0.1747 1.0068 0.0
H997 H 0.08158 0.14001 0.92496 0.0
H998 H 0.09137 0.13657 0.95463 0.0
H999 H 0.06542 0.11778 0.93936 0.0
H1000 H 0.09923 0.12047 0.02763 0.0
H1001 H 0.03594 0.07575 0.99206 0.0
H1002 H 0.08613 0.17077 1.01166 0.0
H1003 H 0.10277 0.16212 0.99064 0.0
H1004 H 0.11039 0.15833 0.02066 0.0
H1005 H 1.00893 0.11649 0.96953 0.0
H1006 H 1.00908 0.08723 0.96568 0.0
H1007 H 1.02422 0.1068 0.94781 0.0
C1008 C 0.25891 0.90213 0.21606 0.0
C1009 C 0.23954 0.90712 0.22531 0.0
C1010 C 0.27637 0.89505 0.23015 0.0
C1011 C 0.27441 0.89346 0.25388 0.0
C1012 C 0.25797 0.90328 0.26393 0.0
C1013 C 0.24041 0.90982 0.24942 0.0
C1014 C 0.29435 0.88566 0.21887 0.0
C1015 C 0.25652 0.90349 0.28948 0.0
C1016 C 0.27747 0.83585 0.27021 0.0
C1017 C 0.30087 0.83931 0.28073 0.0
C1018 C 0.26849 0.8536 0.26239 0.0
C1019 C 0.2832 0.87559 0.26546 0.0
C1020 C 0.30629 0.87953 0.27771 0.0
C1021 C 0.31493 0.86126 0.28512 0.0
C1022 C 0.24358 0.84848 0.24965 0.0
C1023 C 0.32243 0.90266 0.28198 0.0
H1024 H 0.25876 0.90064 0.19748 0.0
H1025 H 0.2259 0.91448 0.25678 0.0
H1026 H 0.3117 0.89003 0.23002 0.0
H1027 H 0.28842 0.86711 0.21632 0.0
H1028 H 0.29659 0.89195 0.20173 0.0
H1029 H 0.24778 0.91666 0.29541 0.0
H1030 H 0.24597 0.88703 0.29307 0.0
H1031 H 0.27435 0.90631 0.29961 0.0
H1032 H 0.26634 0.819 0.26711 0.0
H1033 H 0.33303 0.86413 0.29337 0.0
H1034 H 0.24385 0.85309 0.23167 0.0
H1035 H 0.23293 0.85845 0.25825 0.0
H1036 H 0.23454 0.83048 0.24892 0.0
H1037 H 0.33334 0.90536 0.26776 0.0
H1038 H 0.33467 0.90441 0.29839 0.0
H1039 H 0.31247 0.91596 0.28269 0.0
C1040 C 0.52744 0.81557 0.45639 0.0
C1041 C 0.53638 0.79864 0.46642 0.0
C1042 C 0.52588 0.83464 0.46986 0.0
C1043 C 0.5329 0.83657 0.49406 0.0
C1044 C 0.54048 0.81888 0.50452 0.0
C1045 C 0.54249 0.80018 0.49049 0.0
C1046 C 0.51797 0.85329 0.45794 0.0
C1047 C 0.54734 0.82007 0.53035 0.0
C1048 C 0.55517 0.89733 0.51582 0.0
C1049 C 0.53425 0.90278 0.52067 0.0
C1050 C 0.55555 0.87521 0.5091 0.0
C1051 C 0.53457 0.85819 0.50759 0.0
C1052 C 0.51412 0.86327 0.51494 0.0
C1053 C 0.51409 0.88567 0.52111 0.0
C1054 C 0.57768 0.87056 0.50116 0.0
C1055 C 0.4917 0.84539 0.51438 0.0
H1056 H 0.52267 0.81445 0.43779 0.0
H1057 H 0.54912 0.78695 0.49833 0.0
H1058 H 0.50291 0.85748 0.46553 0.0
H1059 H 0.53258 0.8686 0.46058 0.0
H1060 H 0.51252 0.84882 0.43905 0.0
H1061 H 0.54817 0.80339 0.5361 0.0
H1062 H 0.56498 0.83158 0.53542 0.0
H1063 H 0.53465 0.82679 0.53966 0.0
H1064 H 0.57074 0.9106 0.51537 0.0
H1065 H 0.498 0.88992 0.52519 0.0
H1066 H 0.57482 0.86708 0.48204 0.0
H1067 H 0.58186 0.85557 0.50854 0.0
H1068 H 0.59316 0.88496 0.5061 0.0
H1069 H 0.4825 0.84149 0.49636 0.0
H1070 H 0.47951 0.85094 0.52535 0.0
H1071 H 0.49565 0.82971 0.5203 0.0
C1072 C 0.60231 0.35852 0.73128 0.0
C1073 C 0.60524 0.37193 0.71292 0.0
C1074 C 0.58099 0.35374 0.74042 0.0
C1075 C 0.5621 0.36266 0.73103 0.0
C1076 C 0.5651 0.37674 0.71292 0.0
C1077 C 0.58668 0.38121 0.70403 0.0
C1078 C 0.57851 0.33867 0.75977 0.0
C1079 C 0.54535 0.38662 0.70259 0.0
C1080 C 0.50197 0.32935 0.74057 0.0
C1081 C 0.49821 0.34119 0.76052 0.0
C1082 C 0.52224 0.33675 0.73013 0.0
C1083 C 0.53906 0.35648 0.73985 0.0
C1084 C 0.53485 0.36902 0.75939 0.0
C1085 C 0.51448 0.36118 0.76954 0.0
C1086 C 0.52618 0.32286 0.70937 0.0
C1087 C 0.55228 0.39024 0.77012 0.0
H1088 H 0.61658 0.35133 0.7383 0.0
H1089 H 0.58884 0.39157 0.68981 0.0
H1090 H 0.57326 0.34728 0.77483 0.0
H1091 H 0.56438 0.32332 0.75398 0.0
H1092 H 0.59511 0.3336 0.76553 0.0
H1093 H 0.55094 0.39823 0.6895 0.0
H1094 H 0.53029 0.37299 0.69423 0.0
H1095 H 0.53884 0.39584 0.71638 0.0
H1096 H 0.4895 0.31383 0.73363 0.0
H1097 H 0.5114 0.37059 0.78472 0.0
H1098 H 0.54143 0.31542 0.71411 0.0
H1099 H 0.53049 0.33355 0.69523 0.0
H1100 H 0.5105 0.30908 0.70273 0.0
H1101 H 0.56878 0.38612 0.77792 0.0
H1102 H 0.5453 0.39919 0.78379 0.0
H1103 H 0.55699 0.40171 0.7567 0.0
C1104 C 0.0948 0.89858 0.60189 0.0
C1105 C 0.07556 0.8865 0.61187 0.0
C1106 C 0.0956 0.92035 0.5939 0.0
C1107 C 0.07656 0.93117 0.59516 0.0
C1108 C 0.05697 0.91894 0.605 0.0
C1109 C 0.05682 0.89736 0.61326 0.0
C1110 C 0.11725 0.93199 0.58421 0.0
C1111 C 0.03581 0.92866 0.60672 0.0
C1112 C 0.08558 0.99683 0.59249 0.0
C1113 C 0.07794 0.99937 0.5691 0.0
C1114 C 0.08547 0.97533 0.60095 0.0
C1115 C 0.07706 0.95485 0.58616 0.0
C1116 C 0.06912 0.95732 0.5626 0.0
C1117 C 0.06984 0.97902 0.55452 0.0
C1118 C 0.0946 0.97459 0.626 0.0
C1119 C 0.05949 0.93678 0.5457 0.0
H1120 H 0.10966 0.8911 0.60056 0.0
H1121 H 0.04168 0.88885 0.62076 0.0
H1122 H 0.11236 0.93496 0.56598 0.0
H1123 H 0.12494 0.94861 0.59405 0.0
H1124 H 0.13096 0.92213 0.58487 0.0
H1125 H 1.02159 0.9172 0.61394 0.0
H1126 H 0.04114 0.94475 0.61788 0.0
H1127 H 1.02863 0.93232 0.58935 0.0
H1128 H 0.09193 1.01183 0.6044 0.0
H1129 H 0.06361 0.97997 0.5365 0.0
H1130 H 0.10904 0.9656 0.62733 0.0
H1131 H 0.08033 0.96513 0.63478 0.0
H1132 H 0.10133 0.99159 0.63533 0.0
H1133 H 0.07326 0.92724 0.54428 0.0
H1134 H 0.05337 0.941 0.52821 0.0
H1135 H 0.04449 0.92559 0.55209 0.0
C1136 C 0.49087 0.80642 0.87893 0.0
C1137 C 0.51065 0.81249 0.86722 0.0
C1138 C 0.46752 0.80629 0.86858 0.0
C1139 C 0.46301 0.81137 0.84528 0.0
C1140 C 0.48289 0.81686 0.83317 0.0
C1141 C 0.50619 0.81787 0.8443 0.0
C1142 C 0.44765 0.80128 0.88294 0.0
C1143 C 0.47955 0.82156 0.80818 0.0
C1144 C 0.39814 0.79173 0.81349 0.0
C1145 C 0.39037 0.81177 0.81261 0.0
C1146 C 0.42155 0.79141 0.82337 0.0
C1147 C 0.43783 0.81144 0.83388 0.0
C1148 C 0.42979 0.83162 0.83349 0.0
C1149 C 0.4067 0.83161 0.82255 0.0
C1150 C 0.42897 0.7695 0.82218 0.0
C1151 C 0.44549 0.85338 0.8451 0.0
H1152 H 0.49375 0.80246 0.89666 0.0
H1153 H 0.52101 0.82255 0.83482 0.0
H1154 H 0.43855 0.81525 0.88319 0.0
H1155 H 0.43439 0.78596 0.87515 0.0
H1156 H 0.45393 0.79879 0.90104 0.0
H1157 H 0.49609 0.82325 0.80034 0.0
H1158 H 0.46571 0.80787 0.79799 0.0
H1159 H 0.47349 0.83728 0.80677 0.0
H1160 H 0.38603 0.77622 0.8059 0.0
H1161 H 0.40116 0.84725 0.82239 0.0
H1162 H 0.43265 0.76454 0.83986 0.0
H1163 H 0.44553 0.77144 0.81437 0.0
H1164 H 0.41524 0.75578 0.81188 0.0
H1165 H 0.45176 0.85132 0.86332 0.0
H1166 H 0.4363 0.8673 0.84493 0.0
H1167 H 0.46129 0.85814 0.83628 0.0
C1168 C 0.55296 0.21401 0.1243 0.0
C1169 C 0.56866 0.23391 0.11968 0.0
C1170 C 0.55366 0.19188 0.11509 0.0
C1171 C 0.57101 0.1883 0.101 0.0
C1172 C 0.58703 0.20828 0.09635 0.0
C1173 C 0.58553 0.23033 0.1053 0.0
C1174 C 0.53554 0.1721 0.12059 0.0
C1175 C 0.60639 0.20638 0.08221 0.0
C1176 C 0.58521 0.128 0.09515 0.0
C1177 C 0.57398 0.11818 0.07281 0.0
C1178 C 0.58472 0.15031 0.10418 0.0
C1179 C 0.57222 0.16402 0.09122 0.0
C1180 C 0.56059 0.15404 0.06881 0.0
C1181 C 0.56185 0.13194 0.05999 0.0
C1182 C 0.59799 0.15931 0.12782 0.0
C1183 C 0.54636 0.16671 0.05397 0.0
H1184 H 0.53979 0.21569 0.13532 0.0
H1185 H 0.59825 0.24486 0.10151 0.0
H1186 H 0.52643 0.16178 0.10439 0.0
H1187 H 0.54438 0.16131 0.13121 0.0
H1188 H 0.5221 0.17726 0.13016 0.0
H1189 H 0.61801 0.22296 0.08048 0.0
H1190 H 0.61733 0.19568 0.09036 0.0
H1191 H 0.59865 0.19815 0.06468 0.0
H1192 H 0.59488 0.11832 0.10566 0.0
H1193 H 0.5529 0.12529 0.04283 0.0
H1194 H 0.58542 0.16206 0.13978 0.0
H1195 H 0.6102 0.17577 0.12692 0.0
H1196 H 0.60832 0.14776 0.13522 0.0
H1197 H 0.53278 0.17153 0.06356 0.0
H1198 H 0.53744 0.15676 0.03749 0.0
H1199 H 0.55799 0.18241 0.0499 0.0
C1200 C 0.16847 0.31163 0.373 0.0
C1201 C 0.15079 0.29153 0.37135 0.0
C1202 C 0.18937 0.31355 0.36209 0.0
C1203 C 0.19385 0.29479 0.34899 0.0
C1204 C 0.17623 0.27426 0.34782 0.0
C1205 C 0.15521 0.27304 0.35842 0.0
C1206 C 0.20622 0.33627 0.36486 0.0
C1207 C 0.17939 0.25303 0.33554 0.0
C1208 C 0.23622 0.29594 0.30113 0.0
C1209 C 0.25894 0.29865 0.31373 0.0
C1210 C 0.21553 0.29552 0.31208 0.0
C1211 C 0.21648 0.29644 0.33674 0.0
C1212 C 0.23945 0.29868 0.34948 0.0
C1213 C 0.26001 0.30039 0.33808 0.0
C1214 C 0.1927 0.2944 0.29669 0.0
C1215 C 0.24266 0.29918 0.37547 0.0
H1216 H 0.16594 0.32629 0.38276 0.0
H1217 H 0.14227 0.2572 0.35682 0.0
H1218 H 0.21273 0.34128 0.38351 0.0
H1219 H 0.22158 0.33699 0.3555 0.0
H1220 H 0.19663 0.34881 0.35865 0.0
H1221 H 0.17041 0.23804 0.34336 0.0
H1222 H 0.17122 0.25156 0.31724 0.0
H1223 H 0.19828 0.25284 0.33597 0.0
H1224 H 0.23457 0.2947 0.28242 0.0
H1225 H 0.27708 0.30239 0.34844 0.0
H1226 H 0.17962 0.30049 0.30598 0.0
H1227 H 0.18497 0.27681 0.2894 0.0
H1228 H 0.19598 0.30451 0.28188 0.0
H1229 H 0.24461 0.31659 0.38313 0.0
H1230 H 0.25882 0.29372 0.38205 0.0
H1231 H 0.22727 0.28829 0.38158 0.0
C1232 C 0.93784 0.0429 0.1316 0.0
C1233 C 0.93907 0.05398 0.15351 0.0
C1234 C 0.95647 0.0486 0.11862 0.0
C1235 C 0.97633 0.06613 0.12766 0.0
C1236 C 0.97626 0.07904 0.14852 0.0
C1237 C 0.95772 0.07258 0.16141 0.0
C1238 C 0.95594 0.03443 0.09638 0.0
C1239 C 0.99667 0.09835 0.15831 0.0
C1240 C 0.0336 0.05473 0.11286 0.0
C1241 C 0.03598 0.06558 0.09278 0.0
C1242 C 1.0147 0.05564 0.12505 0.0
C1243 C 0.99839 0.0683 0.11727 0.0
C1244 C 1.00206 0.081 0.09824 0.0
C1245 C 1.02064 0.07913 0.08588 0.0
C1246 C 1.01124 0.04168 0.14518 0.0
C1247 C 0.98588 0.09581 0.09051 0.0
H1248 H 0.92341 0.02849 0.12556 0.0
H1249 H 0.95847 0.08132 0.17831 0.0
H1250 H 0.96036 0.0452 0.08237 0.0
H1251 H 0.96943 0.02442 0.09883 0.0
H1252 H 0.93843 0.02277 0.09075 0.0
H1253 H 0.99133 0.10993 0.17088 0.0
H1254 H 1.01098 0.09178 0.16747 0.0
H1255 H 1.00398 0.10796 0.14442 0.0
H1256 H 0.0454 0.04412 0.11798 0.0
H1257 H 1.02271 0.08766 0.07037 0.0
H1258 H 0.99462 0.02846 0.14094 0.0
H1259 H 1.00957 0.05223 0.16071 0.0
H1260 H 1.02603 0.0335 0.14955 0.0
H1261 H 0.96756 0.08567 0.08549 0.0
H1262 H 0.99153 0.10498 0.07567 0.0
H1263 H 0.98551 0.1082 0.10504 0.0
C1264 C 0.32766 0.73272 0.45595 0.0
C1265 C 0.31889 0.74664 0.4709 0.0
C1266 C 0.3301 0.73757 0.43307 0.0
C1267 C 0.32392 0.75696 0.42496 0.0
C1268 C 0.31587 0.77147 0.44025 0.0
C1269 C 0.31331 0.76607 0.46292 0.0
C1270 C 0.33856 0.72155 0.41732 0.0
C1271 C 0.30946 0.7925 0.43249 0.0
C1272 C 0.34693 0.77907 0.37067 0.0
C1273 C 0.32705 0.77143 0.35376 0.0
C1274 C 0.34619 0.7745 0.39384 0.0
C1275 C 0.32514 0.76173 0.40033 0.0
C1276 C 0.30509 0.75375 0.3833 0.0
C1277 C 0.30623 0.75881 0.3603 0.0
C1278 C 0.36789 0.78353 0.41144 0.0
C1279 C 0.28239 0.73982 0.38937 0.0
H1280 H 0.33188 0.7176 0.46188 0.0
H1281 H 0.30658 0.77696 0.47432 0.0
H1282 H 0.32444 0.7142 0.40271 0.0
H1283 H 0.35403 0.7306 0.40981 0.0
H1284 H 0.34355 0.70771 0.42647 0.0
H1285 H 0.30479 0.80268 0.44681 0.0
H1286 H 0.32442 0.80296 0.42534 0.0
H1287 H 0.29422 0.78802 0.41847 0.0
H1288 H 0.36313 0.78884 0.36588 0.0
H1289 H 0.29082 0.75265 0.3474 0.0
H1290 H 0.37351 0.76955 0.41974 0.0
H1291 H 0.36377 0.79463 0.42529 0.0
H1292 H 0.38289 0.79314 0.40363 0.0
H1293 H 0.28574 0.72474 0.39726 0.0
H1294 H 0.2686 0.73436 0.37404 0.0
H1295 H 0.27546 0.74959 0.40237 0.0
C1296 C 0.57908 0.93879 0.67985 0.0
C1297 C 0.60223 0.93655 0.67893 0.0
C1298 C 0.56702 0.94704 0.66152 0.0
C1299 C 0.57834 0.95249 0.64199 0.0
C1300 C 0.5989 0.94495 0.63885 0.0
C1301 C 0.61071 0.93693 0.65753 0.0
C1302 C 0.54441 0.95372 0.665 0.0
C1303 C 0.61073 0.94915 0.61754 0.0
C1304 C 0.55606 0.98674 0.59652 0.0
C1305 C 0.56997 1.00827 0.60441 0.0
C1306 C 0.5579 0.96828 0.60882 0.0
C1307 C 0.57373 0.97162 0.62962 0.0
C1308 C 0.5867 0.9936 0.63835 0.0
C1309 C 0.5848 1.01161 0.62549 0.0
C1310 C 0.544 0.94521 0.59874 0.0
C1311 C 0.60346 0.99805 0.6608 0.0
H1312 H 0.57182 0.93745 0.69601 0.0
H1313 H 0.62812 0.93413 0.65629 0.0
H1314 H 0.54868 0.97144 0.67254 0.0
H1315 H 0.53267 0.95236 0.64838 0.0
H1316 H 0.53478 0.94322 0.67711 0.0
H1317 H 0.62284 0.93792 0.61526 0.0
H1318 H 0.59749 0.94672 0.60182 0.0
H1319 H 0.62125 0.96674 0.61925 0.0
H1320 H 0.54462 0.98404 0.5801 0.0
H1321 H 0.59545 0.02824 0.63162 0.0
H1322 H 0.53776 0.93468 0.61242 0.0
H1323 H 0.55553 0.93673 0.58955 0.0
H1324 H 0.52856 0.94602 0.58611 0.0
H1325 H 0.59424 0.99091 0.67502 0.0
H1326 H 0.61099 1.01623 0.66577 0.0
H1327 H 0.61827 0.98986 0.65915 0.0
C1328 C 0.34187 0.35492 0.97067 0.0
C1329 C 0.32957 0.37168 0.97488 0.0
C1330 C 0.34297 0.34579 0.94785 0.0
C1331 C 0.33201 0.35374 0.92806 0.0
C1332 C 0.31961 0.37071 0.93221 0.0
C1333 C 0.31834 0.37918 0.95523 0.0
C1334 C 0.35599 0.32751 0.94495 0.0
C1335 C 0.30796 0.38034 0.9122 0.0
C1336 C 0.35505 0.34537 0.86898 0.0
C1337 C 0.33759 0.32754 0.8565 0.0
C1338 C 0.35331 0.35409 0.89176 0.0
C1339 C 0.33387 0.34467 0.90324 0.0
C1340 C 0.31629 0.3265 0.8908 0.0
C1341 C 0.3182 0.31845 0.86781 0.0
C1342 C 0.37239 0.37365 0.90354 0.0
C1343 C 0.29545 0.31528 0.90192 0.0
H1344 H 0.3507 0.34877 0.98535 0.0
H1345 H 0.30892 0.39218 0.95781 0.0
H1346 H 0.34424 0.31273 0.93425 0.0
H1347 H 0.37128 0.33342 0.9357 0.0
H1348 H 0.36249 0.32216 0.96178 0.0
H1349 H 0.29914 0.3935 0.91798 0.0
H1350 H 0.32134 0.3877 0.90127 0.0
H1351 H 0.29465 0.36686 0.90116 0.0
H1352 H 0.37014 0.35281 0.86081 0.0
H1353 H 0.30455 0.30462 0.85881 0.0
H1354 H 0.38125 0.36876 0.91955 0.0
H1355 H 0.36448 0.38767 0.90871 0.0
H1356 H 0.38592 0.37976 0.89227 0.0
H1357 H 0.3017 0.3089 0.91824 0.0
H1358 H 0.28353 0.30109 0.89046 0.0
H1359 H 0.28516 0.3276 0.90647 0.0
C1360 C 0.97219 0.03365 0.28436 0.0
C1361 C 0.95192 0.04131 0.27749 0.0
C1362 C 0.98261 0.03675 0.30748 0.0
C1363 C 0.9727 0.04807 0.32411 0.0
C1364 C 0.95276 0.05662 0.3172 0.0
C1365 C 0.94245 0.05298 0.29391 0.0
C1366 C 1.00377 0.02722 0.31421 0.0
C1367 C 0.94202 0.06911 0.33445 0.0
C1368 C 0.98697 0.03179 0.38429 0.0
C1369 C 1.00738 0.04837 0.39274 0.0
C1370 C 0.97459 0.03222 0.36238 0.0
C1371 C 0.98274 0.0498 0.34881 0.0
C1372 C 1.00242 0.06739 0.35793 0.0
C1373 C 1.01466 0.06636 0.37978 0.0
C1374 C 0.95381 1.01303 0.35315 0.0
C1375 C 1.01135 0.0866 0.34412 0.0
H1376 H 0.97958 0.02459 0.27176 0.0
H1377 H 0.92685 0.05904 0.28863 0.0
H1378 H 1.01876 0.04063 0.32308 0.0
H1379 H 0.99945 1.01447 0.32654 0.0
H1380 H 1.00959 0.01926 0.29906 0.0
H1381 H 0.92791 0.07642 0.32596 0.0
H1382 H 0.93435 0.05756 0.34676 0.0
H1383 H 0.95582 0.08276 0.34471 0.0
H1384 H 0.98143 1.01782 0.3943 0.0
H1385 H 1.03029 0.07935 0.38651 0.0
H1386 H 0.95859 1.00282 0.33894 0.0
H1387 H 0.93855 0.01943 0.34584 0.0
H1388 H 0.94826 1.00196 0.36669 0.0
H1389 H 1.01983 0.08056 0.32981 0.0
H1390 H 1.02448 0.10047 0.35489 0.0
H1391 H 0.9965 0.09327 0.33622 0.0
C1392 C 0.30941 0.73012 0.61947 0.0
C1393 C 0.32123 0.74173 0.60289 0.0
C1394 C 0.31108 0.73995 0.64219 0.0
C1395 C 0.32576 0.76164 0.6489 0.0
C1396 C 0.3383 0.77321 0.63235 0.0
C1397 C 0.33547 0.76333 0.6094 0.0
C1398 C 0.2966 0.72732 0.65883 0.0
C1399 C 0.35481 0.79598 0.63893 0.0
C1400 C 0.31265 0.79584 0.70042 0.0
C1401 C 0.32753 0.79073 0.71885 0.0
C1402 C 0.31193 0.78652 0.67766 0.0
C1403 C 0.32716 0.77241 0.67295 0.0
C1404 C 0.34281 0.76778 0.69146 0.0
C1405 C 0.34243 0.77659 0.71426 0.0
C1406 C 0.29426 0.7912 0.65877 0.0
C1407 C 0.35992 0.75349 0.68718 0.0
H1408 H 0.2982 0.7135 0.61444 0.0
H1409 H 0.34475 0.77228 0.59667 0.0
H1410 H 0.30834 0.72434 0.67402 0.0
H1411 H 0.2849 0.73746 0.66533 0.0
H1412 H 0.28552 0.7109 0.65072 0.0
H1413 H 0.36463 0.80201 0.62463 0.0
H1414 H 0.3447 0.80835 0.64379 0.0
H1415 H 0.3677 0.79536 0.65426 0.0
H1416 H 0.30089 0.80654 0.70394 0.0
H1417 H 0.35403 0.77269 0.72845 0.0
H1418 H 0.28224 0.7752 0.65075 0.0
H1419 H 0.30346 0.79921 0.64495 0.0
H1420 H 0.28346 0.80229 0.66532 0.0
H1421 H 0.3501 0.73604 0.68123 0.0
H1422 H 0.37242 0.75324 0.70295 0.0
H1423 H 0.37017 0.7598 0.67327 0.0
C1424 C 0.58315 0.94833 0.80831 0.0
C1425 C 0.60721 0.95091 0.80679 0.0
C1426 C 0.57559 0.95431 0.82911 0.0
C1427 C 0.5926 0.96335 0.84863 0.0
C1428 C 0.6166 0.96322 0.84793 0.0
C1429 C 0.62366 0.95685 0.82691 0.0
C1430 C 0.54974 0.95352 0.82932 0.0
C1431 C 0.6352 0.97236 0.86852 0.0
C1432 C 0.58003 1.01332 0.88158 0.0
C1433 C 0.57203 1.00422 0.90125 0.0
C1434 C 0.58715 1.00019 0.86465 0.0
C1435 C 0.58611 0.97728 0.86734 0.0
C1436 C 0.57804 0.96792 0.88716 0.0
C1437 C 0.57118 0.98156 0.90397 0.0
C1438 C 0.59553 1.01084 0.84369 0.0
C1439 C 0.57683 0.94364 0.89071 0.0
H1440 H 0.57037 0.94338 0.79279 0.0
H1441 H 0.64229 0.95877 0.82578 0.0
H1442 H 0.54398 0.94766 0.84567 0.0
H1443 H 0.54682 0.97063 0.82814 0.0
H1444 H 0.53849 0.94235 0.81454 0.0
H1445 H 0.65185 0.96708 0.8668 0.0
H1446 H 0.63915 0.99095 0.87002 0.0
H1447 H 0.62886 0.96682 0.88475 0.0
H1448 H 0.58044 0.03072 0.87928 0.0
H1449 H 0.5654 0.97455 0.91938 0.0
H1450 H 0.58367 1.00246 0.82782 0.0
H1451 H 0.61351 1.0087 0.84191 0.0
H1452 H 0.59597 0.02902 0.84463 0.0
H1453 H 0.56824 0.93264 0.87477 0.0
H1454 H 0.56701 0.9382 0.90521 0.0
H1455 H 0.59497 0.94116 0.89463 0.0
C1456 C 0.32836 0.39688 0.13332 0.0
C1457 C 0.31741 0.38549 0.11163 0.0
C1458 C 0.3293 0.38598 0.15415 0.0
C1459 C 0.31773 0.36292 0.15442 0.0
C1460 C 0.30604 0.35148 0.13252 0.0
C1461 C 0.30665 0.36255 0.1117 0.0
C1462 C 0.34316 0.39964 0.17581 0.0
C1463 C 0.29244 0.32739 0.13059 0.0
C1464 C 0.33113 0.32347 0.20212 0.0
C1465 C 0.31927 0.32914 0.22041 0.0
C1466 C 0.33131 0.33445 0.18129 0.0
C1467 C 0.31804 0.35103 0.17723 0.0
C1468 C 0.30539 0.35628 0.19551 0.0
C1469 C 0.30676 0.34595 0.21673 0.0
C1470 C 0.3462 0.32812 0.16388 0.0
C1471 C 0.28994 0.37274 0.19304 0.0
H1472 H 0.33701 0.41448 0.13397 0.0
H1473 H 0.29798 0.35321 0.09542 0.0
H1474 H 0.33173 0.40905 0.18395 0.0
H1475 H 0.3497 0.38911 0.18855 0.0
H1476 H 0.35853 0.41216 0.17163 0.0
H1477 H 0.27639 0.32457 0.11756 0.0
H1478 H 0.30358 0.31648 0.12448 0.0
H1479 H 0.28698 0.32213 0.14726 0.0
H1480 H 0.34108 0.31073 0.20435 0.0
H1481 H 0.29729 0.35069 0.2303 0.0
H1482 H 0.35179 0.34168 0.15275 0.0
H1483 H 0.33592 0.31296 0.15274 0.0
H1484 H 0.36225 0.32386 0.17269 0.0
H1485 H 0.29965 0.38914 0.2023 0.0
H1486 H 0.27379 0.36709 0.20123 0.0
H1487 H 0.28451 0.37513 0.17474 0.0
C1488 C 0.29003 0.96016 0.08791 0.0
C1489 C 0.28632 0.94319 0.06968 0.0
C1490 C 0.27468 0.97449 0.08915 0.0
C1491 C 0.25496 0.97172 0.07184 0.0
C1492 C 0.25089 0.95446 0.05351 0.0
C1493 C 0.26672 0.94044 0.05257 0.0
C1494 C 0.27965 0.99271 0.10896 0.0
C1495 C 0.22988 0.95088 0.03488 0.0
C1496 C 0.20571 0.99807 0.08775 0.0
C1497 C 0.21053 1.01825 0.07746 0.0
C1498 C 0.21971 0.98253 0.08566 0.0
C1499 C 0.23894 0.98724 0.07289 0.0
C1500 C 0.24371 1.00746 0.06222 0.0
C1501 C 0.22944 0.02271 0.06462 0.0
C1502 C 0.21388 0.96109 0.09713 0.0
C1503 C 0.26421 1.0132 0.04867 0.0
H1504 H 0.30515 0.96245 0.1012 0.0
H1505 H 0.26371 0.92731 0.03849 0.0
H1506 H 0.28193 1.00935 0.10216 0.0
H1507 H 0.26445 0.99063 0.11884 0.0
H1508 H 0.29575 0.99262 0.12103 0.0
H1509 H 0.229 0.9365 0.02201 0.0
H1510 H 0.21334 0.94783 0.04278 0.0
H1511 H 0.23069 0.96618 0.02572 0.0
H1512 H 0.19079 0.99432 0.09726 0.0
H1513 H 0.23331 0.03833 0.05674 0.0
H1514 H 0.22979 0.95851 0.10785 0.0
H1515 H 0.20777 0.94666 0.08369 0.0
H1516 H 0.19987 0.96104 0.1083 0.0
H1517 H 0.28102 1.01469 0.06025 0.0
H1518 H 0.26495 0.02916 0.04066 0.0
H1519 H 0.26294 0.99959 0.03482 0.0
C1520 C 0.76628 0.63829 0.02436 0.0
C1521 C 0.78565 0.63157 0.03609 0.0
C1522 C 0.74247 0.6269 0.02502 0.0
C1523 C 0.73713 0.608 0.03782 0.0
C1524 C 0.75655 0.60073 0.04925 0.0
C1525 C 0.7803 0.61245 0.04826 0.0
C1526 C 0.72289 0.63557 1.01239 0.0
C1527 C 0.75223 0.58082 0.06315 0.0
C1528 C 0.67583 0.59484 0.05922 0.0
C1529 C 0.66205 0.5773 0.04312 0.0
C1530 C 0.69999 0.60449 0.05793 0.0
C1531 C 0.71139 0.59673 0.04003 0.0
C1532 C 0.69772 0.57883 0.02385 0.0
C1533 C 0.6735 0.56942 0.02556 0.0
C1534 C 0.71328 0.62337 0.07572 0.0
C1535 C 0.70861 0.56976 1.00438 0.0
H1536 H 0.76966 0.65292 0.01485 0.0
H1537 H 0.7947 0.60692 0.05762 0.0
H1538 H 0.71074 0.62191 1.00051 0.0
H1539 H 0.7124 0.64146 0.025 0.0
H1540 H 0.72968 0.64964 1.00222 0.0
H1541 H 0.76887 0.57626 0.06989 0.0
H1542 H 0.74317 0.58458 0.07798 0.0
H1543 H 0.74042 0.56612 0.05238 0.0
H1544 H 0.66763 0.60134 0.07294 0.0
H1545 H 0.66343 0.55602 1.01287 0.0
H1546 H 0.71911 0.63878 0.06709 0.0
H1547 H 0.72937 0.61915 0.0844 0.0
H1548 H 0.70242 0.62707 0.08909 0.0
H1549 H 0.71415 0.58314 0.99301 0.0
H1550 H 0.69623 0.55529 0.99374 0.0
H1551 H 0.72469 0.56445 1.01141 0.0
C1552 C 0.76071 0.52072 0.32973 0.0
C1553 C 0.75428 0.52539 0.3515 0.0
C1554 C 0.77232 0.50365 0.32575 0.0
C1555 C 0.77779 0.49098 0.34404 0.0
C1556 C 0.77133 0.4955 0.36609 0.0
C1557 C 0.75951 0.51267 0.36955 0.0
C1558 C 0.77872 0.49918 0.30192 0.0
C1559 C 0.77701 0.48232 0.38596 0.0
C1560 C 0.78807 0.43495 0.32351 0.0
C1561 C 0.81269 0.43999 0.32445 0.0
C1562 C 0.77653 0.45111 0.331 0.0
C1563 C 0.78997 0.47281 0.33965 0.0
C1564 C 0.8149 0.47774 0.34153 0.0
C1565 C 0.82599 0.46126 0.33378 0.0
C1566 C 0.7499 0.4453 0.32849 0.0
C1567 C 0.82979 0.50068 0.35083 0.0
H1568 H 0.75664 0.53042 0.31565 0.0
H1569 H 0.75464 0.5163 0.38643 0.0
H1570 H 0.79809 0.50132 0.30291 0.0
H1571 H 0.77033 0.48162 0.29491 0.0
H1572 H 0.77307 0.51052 0.28956 0.0
H1573 H 0.7709 0.48801 0.40206 0.0
H1574 H 0.76863 0.46427 0.38138 0.0
H1575 H 0.79635 0.48394 0.38943 0.0
H1576 H 0.77772 0.41858 0.31609 0.0
H1577 H 0.84505 0.46506 0.3348 0.0
H1578 H 0.74281 0.45474 0.31493 0.0
H1579 H 0.74385 0.45026 0.34486 0.0
H1580 H 0.74224 0.42712 0.32365 0.0
H1581 H 0.82677 0.51302 0.33851 0.0
H1582 H 0.84893 0.50107 0.35351 0.0
H1583 H 0.82461 0.50615 0.36748 0.0
C1584 C 0.90302 0.45852 0.57552 0.0
C1585 C 0.90053 0.43861 0.56126 0.0
C1586 C 0.92332 0.476 0.57723 0.0
C1587 C 0.94151 0.47367 0.56418 0.0
C1588 C 0.93927 0.45355 0.54992 0.0
C1589 C 0.91885 0.43619 0.54873 0.0
C1590 C 0.92518 0.49707 0.59285 0.0
C1591 C 0.95825 0.45053 0.53559 0.0
C1592 C 0.98272 0.52619 0.54932 0.0
C1593 C 1.00339 0.52704 0.5645 0.0
C1594 C 0.96238 0.50906 0.54924 0.0
C1595 C 0.96259 0.49254 0.56492 0.0
C1596 C 0.98306 0.49384 0.58095 0.0
C1597 C 1.00327 0.511 0.58046 0.0
C1598 C 0.94093 0.50819 0.53181 0.0
C1599 C 0.98383 0.47674 0.59818 0.0
H1600 H 0.88906 0.4605 0.58543 0.0
H1601 H 0.91707 0.4209 0.53765 0.0
H1602 H 0.94161 0.50056 0.6054 0.0
H1603 H 0.92618 0.51158 0.58245 0.0
H1604 H 0.90991 0.49586 0.60259 0.0
H1605 H 0.95399 0.43376 0.52566 0.0
H1606 H 0.96065 0.46352 0.52326 0.0
H1607 H 0.97535 0.45275 0.54691 0.0
H1608 H 0.98267 0.53839 0.53681 0.0
H1609 H 1.01915 0.51156 0.59227 0.0
H1610 H 0.92528 0.50797 0.54074 0.0
H1611 H 0.93702 0.49251 0.52004 0.0
H1612 H 0.94339 0.52266 0.52124 0.0
H1613 H 0.96884 0.47551 0.60826 0.0
H1614 H 1.00057 0.4809 0.6104 0.0
H1615 H 0.98198 0.45998 0.58891 0.0
C1616 C 0.44345 0.14214 0.28055 0.0
C1617 C 0.45671 0.13531 0.26434 0.0
C1618 C 0.42428 0.15141 0.27356 0.0
C1619 C 0.41875 0.15443 0.24991 0.0
C1620 C 0.43254 0.14813 0.23359 0.0
C1621 C 0.45118 0.13834 0.24096 0.0
C1622 C 0.4098 0.15777 0.29141 0.0
C1623 C 0.42762 0.15174 0.20837 0.0
C1624 C 0.35653 0.15969 0.22962 0.0
C1625 C 0.35939 0.18302 0.23156 0.0
C1626 C 0.37581 0.15013 0.2351 0.0
C1627 C 0.39853 0.16424 0.24233 0.0
C1628 C 0.40173 0.18776 0.2433 0.0
C1629 C 0.38212 0.19685 0.23801 0.0
C1630 C 0.3717 0.12494 0.23414 0.0
C1631 C 0.42574 0.20339 0.25048 0.0
H1632 H 0.44765 0.13967 0.2986 0.0
H1633 H 0.46159 0.13323 0.22843 0.0
H1634 H 0.41048 0.17596 0.29201 0.0
H1635 H 0.39103 0.14872 0.28657 0.0
H1636 H 0.4161 0.15387 0.309 0.0
H1637 H 0.44037 0.14637 0.19799 0.0
H1638 H 0.40954 0.14226 0.201 0.0
H1639 H 0.42845 0.16973 0.20662 0.0
H1640 H 0.33908 0.14889 0.22445 0.0
H1641 H 0.38452 0.21488 0.24006 0.0
H1642 H 0.37611 0.12001 0.25173 0.0
H1643 H 0.38344 0.11894 0.223 0.0
H1644 H 0.35312 0.11631 0.22742 0.0
H1645 H 0.42468 0.22114 0.25303 0.0
H1646 H 0.43712 0.20179 0.23695 0.0
H1647 H 0.43451 0.19895 0.26679 0.0
C1648 C 0.42889 0.13554 0.53798 0.0
C1649 C 0.41155 0.12866 0.55248 0.0
C1650 C 0.44937 0.12654 0.53802 0.0
C1651 C 0.45323 0.10976 0.55275 0.0
C1652 C 0.4357 0.10264 0.5673 0.0
C1653 C 0.41551 0.11209 0.56709 0.0
C1654 C 0.4671 0.13519 0.52223 0.0
C1655 C 0.43822 0.08482 0.58324 0.0
C1656 C 0.49581 0.07158 0.53791 0.0
C1657 C 0.51687 0.0806 0.55328 0.0
C1658 C 0.47538 0.08067 0.53761 0.0
C1659 C 0.47532 0.09972 0.55289 0.0
C1660 C 0.49658 0.109 0.56835 0.0
C1661 C 0.5167 0.09944 0.56844 0.0
C1662 C 0.45361 0.06966 0.52085 0.0
C1663 C 0.49817 0.12928 0.58492 0.0
H1664 H 0.42658 0.14827 0.52657 0.0
H1665 H 0.40264 0.10633 0.57847 0.0
H1666 H 0.4847 0.14221 0.53254 0.0
H1667 H 0.46889 0.12121 0.51012 0.0
H1668 H 0.46206 0.14836 0.51199 0.0
H1669 H 0.42319 0.08067 0.59327 0.0
H1670 H 0.43944 0.06935 0.57308 0.0
H1671 H 0.4548 0.09051 0.59553 0.0
H1672 H 0.49514 0.05711 0.52602 0.0
H1673 H 0.53249 0.10693 0.58046 0.0
H1674 H 0.44893 0.0819 0.50912 0.0
H1675 H 0.43846 0.06416 0.53043 0.0
H1676 H 0.45602 0.05492 0.51022 0.0
H1677 H 0.49449 0.14326 0.57519 0.0
H1678 H 0.5158 0.13497 0.59558 0.0
H1679 H 0.4846 0.12542 0.59663 0.0
C1680 C 0.7868 0.64116 0.36121 0.0
C1681 C 0.76963 0.64256 0.37562 0.0
C1682 C 0.8011 0.66049 0.35462 0.0
C1683 C 0.79838 0.68173 0.36292 0.0
C1684 C 0.78308 0.68329 0.37958 0.0
C1685 C 0.76873 0.66363 0.38566 0.0
C1686 C 0.81717 0.65805 0.33682 0.0
C1687 C 0.78019 0.70569 0.3893 0.0
C1688 C 0.83897 0.73355 0.34551 0.0
C1689 C 0.82462 0.73857 0.32662 0.0
C1690 C 0.83065 0.71526 0.35788 0.0
C1691 C 0.80769 0.70158 0.35081 0.0
C1692 C 0.79337 0.70642 0.33146 0.0
C1693 C 0.80194 0.72495 0.31977 0.0
C1694 C 0.84617 0.71081 0.37869 0.0
C1695 C 0.76893 0.692 0.32303 0.0
H1696 H 0.78797 0.62494 0.35368 0.0
H1697 H 0.75579 0.66488 0.3971 0.0
H1698 H 0.80895 0.66145 0.31975 0.0
H1699 H 0.83442 0.67031 0.34124 0.0
H1700 H 0.82031 0.64091 0.33513 0.0
H1701 H 0.77158 0.70428 0.40519 0.0
H1702 H 0.79752 0.71791 0.39335 0.0
H1703 H 0.76906 0.71247 0.37622 0.0
H1704 H 0.85643 0.74426 0.35099 0.0
H1705 H 0.79086 0.72872 0.30507 0.0
H1706 H 0.8485 0.69343 0.37668 0.0
H1707 H 0.83757 0.71239 0.39438 0.0
H1708 H 0.86385 0.7226 0.38149 0.0
H1709 H 0.76989 0.67441 0.31882 0.0
H1710 H 0.76031 0.69785 0.30742 0.0
H1711 H 0.75757 0.69204 0.33684 0.0
C1712 C 0.95603 0.53868 0.80473 0.0
C1713 C 0.97231 0.54873 0.82419 0.0
C1714 C 0.94376 0.5162 0.80348 0.0
C1715 C 0.94779 0.50352 0.8222 0.0
C1716 C 0.96314 0.51389 0.84243 0.0
C1717 C 0.97528 0.53638 0.84317 0.0
C1718 C 0.9275 0.5057 0.78162 0.0
C1719 C 0.96767 0.50093 0.86284 0.0
C1720 C 0.9065 0.44671 0.82415 0.0
C1721 C 0.91953 0.43226 0.81562 0.0
C1722 C 0.91541 0.47002 0.82638 0.0
C1723 C 0.93775 0.47897 0.81975 0.0
C1724 C 0.95079 0.46444 0.81079 0.0
C1725 C 0.94153 0.44125 0.8089 0.0
C1726 C 0.90112 0.48504 0.83613 0.0
C1727 C 0.97458 0.47338 0.8033 0.0
H1728 H 0.9535 0.54811 0.79002 0.0
H1729 H 0.98767 0.54405 0.85836 0.0
H1730 H 0.93525 0.49331 0.77256 0.0
H1731 H 0.91019 0.49656 0.78578 0.0
H1732 H 0.9245 0.51833 0.76961 0.0
H1733 H 0.97811 0.51196 0.87811 0.0
H1734 H 0.95074 0.49175 0.86782 0.0
H1735 H 0.97749 0.48828 0.85802 0.0
H1736 H 0.88957 0.43976 0.82957 0.0
H1737 H 0.95147 0.43009 0.80202 0.0
H1738 H 0.89793 0.49726 0.82373 0.0
H1739 H 0.91114 0.49481 0.85228 0.0
H1740 H 0.88384 0.47544 0.83999 0.0
H1741 H 0.97296 0.48495 0.78977 0.0
H1742 H 0.98226 0.45982 0.79636 0.0
H1743 H 0.98707 0.48311 0.81817 0.0
C1744 C 0.12154 0.91415 0.14072 0.0
C1745 C 0.14365 0.91511 0.13352 0.0
C1746 C 0.10566 0.92535 0.12969 0.0
C1747 C 0.11229 0.93808 0.11133 0.0
C1748 C 0.13418 0.93832 0.10335 0.0
C1749 C 0.14953 0.92666 0.11445 0.0
C1750 C 0.08236 0.92447 0.13845 0.0
C1751 C 0.14203 0.95197 0.08397 0.0
C1752 C 0.0723 0.96422 0.07166 0.0
C1753 C 0.07951 0.98652 0.08121 0.0
C1754 C 0.08149 0.94758 0.08227 0.0
C1755 C 0.09817 0.95371 0.10262 0.0
C1756 C 0.10373 0.97592 0.11327 0.0
C1757 C 0.09429 0.99205 0.10239 0.0
C1758 C 0.07493 0.92397 0.07067 0.0
C1759 C 0.12139 0.98322 0.13497 0.0
H1760 H 0.11673 0.90492 0.15524 0.0
H1761 H 0.16648 0.92722 0.10867 0.0
H1762 H 0.08279 0.94088 0.14777 0.0
H1763 H 0.06777 0.92127 0.1238 0.0
H1764 H 0.07841 0.9113 0.15044 0.0
H1765 H 0.15843 0.94865 0.07837 0.0
H1766 H 0.12798 0.94833 0.06882 0.0
H1767 H 0.14534 0.97008 0.08979 0.0
H1768 H 0.06106 0.96013 0.05511 0.0
H1769 H 0.0998 1.00942 0.10963 0.0
H1770 H 0.07212 0.91162 0.08362 0.0
H1771 H 0.08959 0.92094 0.06156 0.0
H1772 H 0.05872 0.921 0.05782 0.0
H1773 H 0.11727 0.97158 0.14837 0.0
H1774 H 0.12181 1.00045 0.14229 0.0
H1775 H 0.1393 0.98284 0.13096 0.0
C1776 C 0.93713 0.2253 0.86951 0.0
C1777 C 0.9526 0.21315 0.86154 0.0
C1778 C 0.91683 0.22697 0.85525 0.0
C1779 C 0.91164 0.21583 0.83261 0.0
C1780 C 0.92581 0.20164 0.82534 0.0
C1781 C 0.94638 0.20068 0.83982 0.0
C1782 C 0.90213 0.24227 0.86374 0.0
C1783 C 0.92018 0.18868 0.80175 0.0
C1784 C 0.85335 0.22379 0.80403 0.0
C1785 C 0.86101 0.2438 0.79406 0.0
C1786 C 0.86972 0.21283 0.81468 0.0
C1787 C 0.89414 0.22243 0.8157 0.0
C1788 C 0.90179 0.24128 0.80358 0.0
C1789 C 0.8851 0.25157 0.79268 0.0
C1790 C 0.86086 0.19215 0.82649 0.0
C1791 C 0.92769 0.25209 0.80417 0.0
H1792 H 0.94163 0.23474 0.8864 0.0
H1793 H 0.958 0.19086 0.83373 0.0
H1794 H 0.90386 0.25699 0.85354 0.0
H1795 H 0.88321 0.23347 0.86128 0.0
H1796 H 0.90761 0.24842 0.88232 0.0
H1797 H 0.92879 0.17437 0.80109 0.0
H1798 H 0.90085 0.18225 0.79683 0.0
H1799 H 0.9267 0.19989 0.78868 0.0
H1800 H 0.83471 0.21743 0.80483 0.0
H1801 H 0.89116 0.26675 0.78457 0.0
H1802 H 0.86049 0.19704 0.845 0.0
H1803 H 0.8726 0.18038 0.82558 0.0
H1804 H 0.84266 0.18331 0.81865 0.0
H1805 H 0.93532 0.25966 0.82199 0.0
H1806 H 0.93066 0.26544 0.79225 0.0
H1807 H 0.93748 0.23941 0.79944 0.0
C1808 C 0.68087 0.31114 0.62518 0.0
C1809 C 0.665 0.31884 0.63786 0.0
C1810 C 0.67734 0.28825 0.61805 0.0
C1811 C 0.65735 0.27291 0.62354 0.0
C1812 C 0.64081 0.28076 0.6355 0.0
C1813 C 0.64491 0.3036 0.64262 0.0
C1814 C 0.69541 0.28037 0.60546 0.0
C1815 C 0.61912 0.26494 0.64143 0.0
C1816 C 0.63614 0.21396 0.59373 0.0
C1817 C 0.6444 0.20143 0.61067 0.0
C1818 C 0.6409 0.23739 0.5973 0.0
C1819 C 0.65432 0.24847 0.61825 0.0
C1820 C 0.66327 0.23598 0.63513 0.0
C1821 C 0.65809 0.2126 0.63118 0.0
C1822 C 0.63102 0.25023 0.57899 0.0
C1823 C 0.67765 0.24724 0.65771 0.0
H1824 H 0.69644 0.32289 0.62149 0.0
H1825 H 0.63241 0.30951 0.65216 0.0
H1826 H 0.70442 0.26997 0.6165 0.0
H1827 H 0.68667 0.26968 0.58938 0.0
H1828 H 0.70896 0.29455 0.60094 0.0
H1829 H 0.60722 0.27394 0.64944 0.0
H1830 H 0.60906 0.2545 0.62566 0.0
H1831 H 0.62448 0.2534 0.65368 0.0
H1832 H 0.62588 0.20543 0.57768 0.0
H1833 H 0.66428 0.20301 0.64447 0.0
H1834 H 0.64525 0.26371 0.57441 0.0
H1835 H 0.61787 0.25839 0.58581 0.0
H1836 H 0.62233 0.23926 0.56302 0.0
H1837 H 0.69256 0.26076 0.65441 0.0
H1838 H 0.68484 0.23527 0.66818 0.0
H1839 H 0.66648 0.25511 0.66804 0.0
C1840 C 0.59455 0.77277 0.35717 0.0
C1841 C 0.59967 0.76466 0.37857 0.0
C1842 C 0.61181 0.77776 0.3425 0.0
C1843 C 0.63455 0.77433 0.34937 0.0
C1844 C 0.63979 0.76606 0.37088 0.0
C1845 C 0.6223 0.76142 0.38528 0.0
C1846 C 0.60575 0.78675 0.31974 0.0
C1847 C 0.66386 0.76202 0.37866 0.0
C1848 C 0.67522 0.76653 0.30576 0.0
C1849 C 0.69176 0.78718 0.30949 0.0
C1850 C 0.65589 0.76238 0.31801 0.0
C1851 C 0.65307 0.77938 0.33419 0.0
C1852 C 0.66911 0.80062 0.3372 0.0
C1853 C 0.68839 0.80423 0.32486 0.0
C1854 C 0.6392 0.73947 0.3145 0.0
C1855 C 0.66646 0.8192 0.35413 0.0
H1856 H 0.5771 0.77538 0.35193 0.0
H1857 H 0.62634 0.75504 0.40173 0.0
H1858 H 0.61778 0.80333 0.31899 0.0
H1859 H 0.60833 0.77539 0.30525 0.0
H1860 H 0.58725 0.78858 0.31703 0.0
H1861 H 0.66494 0.75526 0.39578 0.0
H1862 H 0.66815 0.75002 0.3658 0.0
H1863 H 0.67754 0.7779 0.37976 0.0
H1864 H 0.67798 0.75329 0.29401 0.0
H1865 H 0.70109 0.82029 0.32751 0.0
H1866 H 0.62065 0.74097 0.31111 0.0
H1867 H 0.64097 0.73092 0.33049 0.0
H1868 H 0.64274 0.72877 0.29993 0.0
H1869 H 0.64827 0.82176 0.35114 0.0
H1870 H 0.67915 0.8353 0.35283 0.0
H1871 H 0.66944 0.8145 0.37203 0.0
C1872 C 0.08724 0.24059 0.48748 0.0
C1873 C 0.07917 0.24199 0.46393 0.0
C1874 C 0.08665 0.21949 0.49727 0.0
C1875 C 0.07654 0.19821 0.48396 0.0
C1876 C 0.06758 0.19975 0.46036 0.0
C1877 C 0.06962 0.22097 0.45082 0.0
C1878 C 0.09747 0.22053 0.52213 0.0
C1879 C 0.0554 0.17897 0.44454 0.0
C1880 C 0.08687 0.13773 0.49555 0.0
C1881 C 0.07257 0.13022 0.51263 0.0
C1882 C 0.08893 0.15943 0.48696 0.0
C1883 C 0.07542 0.17477 0.49424 0.0
C1884 C 0.06047 0.16693 0.51115 0.0
C1885 C 0.0598 0.14562 0.52035 0.0
C1886 C 0.10624 0.16567 0.47011 0.0
C1887 C 0.04462 0.18082 0.51982 0.0
H1888 H 0.09492 0.25611 0.49833 0.0
H1889 H 0.06307 0.22101 0.43269 0.0
H1890 H 0.08459 0.22383 0.53351 0.0
H1891 H 0.10255 0.20481 0.52636 0.0
H1892 H 0.11338 0.23461 0.52616 0.0
H1893 H 0.04081 0.1823 0.43237 0.0
H1894 H 0.06823 0.17411 0.43397 0.0
H1895 H 0.04804 0.16467 0.45412 0.0
H1896 H 0.09728 0.12677 0.4892 0.0
H1897 H 0.04857 0.14079 0.53342 0.0
H1898 H 0.11158 0.184 0.46905 0.0
H1899 H 0.09817 0.1573 0.4527 0.0
H1900 H 0.12238 0.15952 0.47505 0.0
H1901 H 0.05355 0.1906 0.53634 0.0
H1902 H 1.02789 0.1699 0.52344 0.0
H1903 H 0.04024 0.19257 0.50735 0.0
C1904 C 0.64255 0.30238 0.225 0.0
C1905 C 0.63988 0.30894 0.20233 0.0
C1906 C 0.66516 0.30251 0.23744 0.0
C1907 C 0.68624 0.30894 0.2272 0.0
C1908 C 0.68363 0.31565 0.2044 0.0
C1909 C 0.66093 0.31572 0.19254 0.0
C1910 C 0.66645 0.29552 0.26166 0.0
C1911 C 0.70494 0.32235 0.19215 0.0
C1912 C 0.74911 0.32655 0.2639 0.0
C1913 C 0.75773 0.30693 0.26227 0.0
C1914 C 0.7261 0.32732 0.25319 0.0
C1915 C 0.71079 0.30816 0.23986 0.0
C1916 C 0.71945 0.28834 0.23813 0.0
C1917 C 0.74234 0.28793 0.24932 0.0
C1918 C 0.71814 0.34885 0.25618 0.0
C1919 C 0.70458 0.26745 0.22403 0.0
H1920 H 0.62686 0.29696 0.23309 0.0
H1921 H 0.6597 0.32067 0.1751 0.0
H1922 H 0.67317 0.28008 0.26225 0.0
H1923 H 0.67905 0.30875 0.27369 0.0
H1924 H 0.64899 0.29227 0.26791 0.0
H1925 H 0.70032 0.32729 0.17459 0.0
H1926 H 0.718 0.33657 0.2024 0.0
H1927 H 0.71364 0.30818 0.19055 0.0
H1928 H 0.76037 0.34146 0.27373 0.0
H1929 H 0.74834 0.27257 0.24757 0.0
H1930 H 0.70116 0.3457 0.26332 0.0
H1931 H 0.71502 0.35532 0.23913 0.0
H1932 H 0.73131 0.36197 0.26786 0.0
H1933 H 0.68756 0.26212 0.2308 0.0
H1934 H 0.71352 0.25336 0.22419 0.0
H1935 H 0.70043 0.271 0.20585 0.0
C1936 C 0.59771 0.88936 0.95438 0.0
C1937 C 0.59176 0.86929 0.96525 0.0
C1938 C 0.59726 0.91105 0.9648 0.0
C1939 C 0.58979 0.91384 0.98691 0.0
C1940 C 0.58361 0.89365 0.99805 0.0
C1941 C 0.58499 0.87211 0.98749 0.0
C1942 C 0.60493 0.93123 0.95187 0.0
C1943 C 0.57472 0.89465 0.02108 0.0
C1944 C 0.60508 0.97372 0.02285 0.0
C1945 C 0.58533 0.98282 0.01658 0.0
C1946 C 0.6068 0.95191 0.01353 0.0
C1947 C 0.58804 0.93751 0.99777 0.0
C1948 C 0.56787 0.94647 0.99178 0.0
C1949 C 0.56697 0.9686 1.00072 0.0
C1950 C 0.62919 0.94445 0.02031 0.0
C1951 C 0.54687 0.93256 0.97573 0.0
H1952 H 0.60295 0.88816 0.93731 0.0
H1953 H 0.57983 0.85728 0.9964 0.0
H1954 H 0.58987 0.93897 0.94737 0.0
H1955 H 0.61892 0.94404 0.96302 0.0
H1956 H 0.61175 0.92693 0.93569 0.0
H1957 H 0.56946 0.87782 0.02727 0.0
H1958 H 0.58861 0.90542 0.03418 0.0
H1959 H 0.5593 0.90236 0.01973 0.0
H1960 H 0.61968 0.98394 0.03482 0.0
H1961 H 0.5514 0.97468 0.99539 0.0
H1962 H 0.63659 0.9399 1.00459 0.0
H1963 H 0.62532 0.92926 0.02967 0.0
H1964 H 0.64277 0.95762 0.03153 0.0
H1965 H 0.55143 0.93104 0.95796 0.0
H1966 H 0.53131 0.94005 0.97524 0.0
H1967 H 0.54193 0.91537 0.98116 0.0
C1968 C 0.98614 0.7886 0.72979 0.0
C1969 C 0.99115 0.80036 0.71035 0.0
C1970 C 0.96569 0.78894 0.74081 0.0
C1971 C 0.94895 0.8012 0.73248 0.0
C1972 C 0.95386 0.813 0.71277 0.0
C1973 C 0.9746 0.81259 0.70225 0.0
C1974 C 0.96243 0.77645 0.76192 0.0
C1975 C 0.93697 0.8261 0.70257 0.0
C1976 C 0.88444 0.78534 0.74834 0.0
C1977 C 0.88401 0.80221 0.76584 0.0
C1978 C 0.90497 0.78489 0.73751 0.0
C1979 C 0.92647 0.80153 0.74411 0.0
C1980 C 0.92624 0.81842 0.76198 0.0
C1981 C 0.90534 0.81869 0.77229 0.0
C1982 C 0.9034 0.76665 0.71848 0.0
C1983 C 0.94832 0.83638 0.77039 0.0
H1984 H 0.99844 0.77915 0.73669 0.0
H1985 H 0.97771 0.82179 0.68734 0.0
H1986 H 0.96805 0.78858 0.77759 0.0
H1987 H 0.94364 0.76804 0.76198 0.0
H1988 H 0.97313 0.76371 0.76317 0.0
H1989 H 0.94282 0.83427 0.68724 0.0
H1990 H 0.91921 0.8148 0.69738 0.0
H1991 H 0.93516 0.83918 0.71575 0.0
H1992 H 0.86844 0.77247 0.7427 0.0
H1993 H 0.90582 0.83193 0.78562 0.0
H1994 H 0.91863 0.75882 0.72137 0.0
H1995 H 0.90414 0.77406 0.70175 0.0
H1996 H 0.88682 0.75341 0.71707 0.0
H1997 H 0.96282 0.82855 0.77683 0.0
H1998 H 0.94575 0.84824 0.78447 0.0
H1999 H 0.95402 0.84596 0.75586 0.0
C2000 C 0.16409 0.07694 0.94023 0.0
C2001 C 0.17441 0.06955 0.92181 0.0
C2002 C 0.15198 0.06176 0.95383 0.0
C2003 C 0.15008 0.03849 0.94884 0.0
C2004 C 0.16133 0.03093 0.93088 0.0
C2005 C 0.17339 0.04661 0.9175 0.0
C2006 C 0.14064 0.07071 0.97315 0.0
C2007 C 0.15989 1.00636 0.92507 0.0
C2008 C 0.1308 1.01518 1.00178 0.0
C2009 C 0.10661 1.01408 0.99672 0.0
C2010 C 0.14547 0.01923 0.98465 0.0
C2011 C 0.13552 0.02265 0.96234 0.0
C2012 C 0.11066 1.01719 0.95627 0.0
C2013 C 0.09632 1.01289 0.97371 0.0
C2014 C 0.17181 0.02367 0.99154 0.0
C2015 C 0.09937 0.01968 0.93234 0.0
H2016 H 0.16503 0.09466 0.94376 0.0
H2017 H 0.1813 0.0408 0.90318 0.0
H2018 H 0.12124 0.06389 0.96995 0.0
H2019 H 0.14735 0.06536 0.98987 0.0
H2020 H 0.14415 0.0893 0.97487 0.0
H2021 H 0.17481 1.00383 0.91605 0.0
H2022 H 0.1598 0.99719 0.94076 0.0
H2023 H 0.14325 0.99884 0.91336 0.0
H2024 H 0.13865 1.01561 0.01962 0.0
H2025 H 0.07754 1.01176 0.9698 0.0
H2026 H 0.17888 0.04177 0.99724 0.0
H2027 H 0.18073 0.01929 0.97683 0.0
H2028 H 0.17621 1.01403 1.00615 0.0
H2029 H 0.10004 0.03766 0.93064 0.0
H2030 H 0.08059 1.01027 0.92898 0.0
H2031 H 0.10902 1.01371 0.91899 0.0
C2032 C 0.84303 0.33493 0.61653 0.0
C2033 C 0.82813 0.34915 0.61051 0.0
C2034 C 0.84269 0.32516 0.63761 0.0
C2035 C 0.82688 0.32952 0.65286 0.0
C2036 C 0.81097 0.34289 0.64626 0.0
C2037 C 0.81186 0.35259 0.62527 0.0
C2038 C 0.86002 0.3111 0.64409 0.0
C2039 C 0.7936 0.34771 0.66181 0.0
C2040 C 0.81343 0.29416 0.70274 0.0
C2041 C 0.82712 0.3082 0.72175 0.0
C2042 C 0.8136 0.30058 0.68013 0.0
C2043 C 0.82793 0.32147 0.67638 0.0
C2044 C 0.84225 0.33544 0.69543 0.0
C2045 C 0.84159 0.3287 0.71784 0.0
C2046 C 0.79789 0.28531 0.66035 0.0
C2047 C 0.85784 0.35784 0.69222 0.0
H2048 H 0.85573 0.33228 0.60529 0.0
H2049 H 0.80011 0.36339 0.62068 0.0
H2050 H 0.87302 0.3199 0.65906 0.0
H2051 H 0.85077 0.29488 0.64947 0.0
H2052 H 0.86974 0.30772 0.62961 0.0
H2053 H 0.78171 0.35763 0.65372 0.0
H2054 H 0.78266 0.3318 0.66626 0.0
H2055 H 0.80329 0.35716 0.67824 0.0
H2056 H 0.80213 0.27831 0.70553 0.0
H2057 H 0.85232 0.33966 0.73235 0.0
H2058 H 0.80833 0.28207 0.64646 0.0
H2059 H 0.78419 0.29357 0.65276 0.0
H2060 H 0.78898 0.26901 0.66589 0.0
H2061 H 0.86936 0.35578 0.67894 0.0
H2062 H 0.86914 0.36598 0.70852 0.0
H2063 H 0.84675 0.36921 0.68594 0.0
C2064 C 0.58422 0.1233 0.39422 0.0
C2065 C 0.56094 0.12264 0.38481 0.0
C2066 C 0.59007 0.12146 0.41781 0.0
C2067 C 0.57205 0.11833 0.4321 0.0
C2068 C 0.54912 0.12024 0.42318 0.0
C2069 C 0.54385 0.12255 0.39954 0.0
C2070 C 0.6149 0.12021 0.42677 0.0
C2071 C 0.52943 0.11712 0.43787 0.0
C2072 C 0.5747 0.0739 0.4732 0.0
C2073 C 0.58173 0.08655 0.49475 0.0
C2074 C 0.57148 0.08417 0.45287 0.0
C2075 C 0.57567 0.10781 0.45395 0.0
C2076 C 0.58335 0.12083 0.47553 0.0
C2077 C 0.58613 0.11001 0.49577 0.0
C2078 C 0.56327 0.06958 0.43021 0.0
C2079 C 0.58823 0.14607 0.47729 0.0
H2080 H 0.59757 0.12378 0.38286 0.0
H2081 H 0.52585 0.12214 0.39228 0.0
H2082 H 0.62061 0.12899 0.44441 0.0
H2083 H 0.6155 0.10241 0.42777 0.0
H2084 H 0.62766 0.12763 0.41524 0.0
H2085 H 0.51423 0.12333 0.42995 0.0
H2086 H 0.52315 0.09901 0.43978 0.0
H2087 H 0.53571 0.12591 0.45543 0.0
H2088 H 0.57119 0.05578 0.47215 0.0
H2089 H 0.5915 0.11992 0.51236 0.0
H2090 H 0.57657 0.07372 0.41826 0.0
H2091 H 0.54652 0.07277 0.42179 0.0
H2092 H 0.56034 0.05143 0.43248 0.0
H2093 H 0.59954 0.15277 0.46429 0.0
H2094 H 0.597 0.1538 0.49476 0.0
H2095 H 0.57139 0.15128 0.47355 0.0
C2096 C 0.85343 0.73536 0.11187 0.0
C2097 C 0.86054 0.715 0.10898 0.0
C2098 C 0.85225 0.74576 0.13419 0.0
C2099 C 0.85796 0.73576 0.15478 0.0
C2100 C 0.8653 0.71533 0.15195 0.0
C2101 C 0.86657 0.70544 0.12952 0.0
C2102 C 0.84458 0.76753 0.13571 0.0
C2103 C 0.87145 0.70353 0.17279 0.0
C2104 C 0.87351 0.77046 0.21553 0.0
C2105 C 0.85227 0.7653 0.22524 0.0
C2106 C 0.8755 0.76137 0.19292 0.0
C2107 C 0.85593 0.74627 0.17906 0.0
C2108 C 0.83449 0.74093 0.18882 0.0
C2109 C 0.8329 0.75046 0.21135 0.0
C2110 C 0.89875 0.76808 0.1838 0.0
C2111 C 0.81303 0.7249 0.17542 0.0
H2112 H 0.84853 0.74319 0.09658 0.0
H2113 H 0.87193 0.68973 0.12812 0.0
H2114 H 0.82793 0.76521 0.14337 0.0
H2115 H 0.85808 0.78043 0.14727 0.0
H2116 H 0.84174 0.77389 0.11852 0.0
H2117 H 0.87709 0.68796 0.16806 0.0
H2118 H 0.88586 0.71483 0.18496 0.0
H2119 H 0.85594 0.69915 0.18213 0.0
H2120 H 0.88874 0.78189 0.22558 0.0
H2121 H 0.81629 0.7461 0.21817 0.0
H2122 H 0.89618 0.77557 0.16723 0.0
H2123 H 0.90567 0.75304 0.18016 0.0
H2124 H 0.9122 0.78032 0.19614 0.0
H2125 H 0.80799 0.73138 0.15879 0.0
H2126 H 0.79767 0.72221 0.18513 0.0
H2127 H 0.81716 0.70848 0.17124 0.0
C2128 C 0.15843 0.089 0.78933 0.0
C2129 C 0.15465 0.09673 0.81129 0.0
C2130 C 0.14194 0.08837 0.76981 0.0
C2131 C 0.12095 0.09538 0.77231 0.0
C2132 C 0.11659 0.10254 0.7945 0.0
C2133 C 0.13364 0.10332 0.81377 0.0
C2134 C 0.14739 0.08082 0.74638 0.0
C2135 C 0.09421 0.10978 0.79779 0.0
C2136 C 0.098 0.11507 0.71656 0.0
C2137 C 0.08309 0.09515 0.70539 0.0
C2138 C 0.10888 0.11599 0.73935 0.0
C2139 C 0.10464 0.09653 0.75125 0.0
C2140 C 0.08782 0.07706 0.74088 0.0
C2141 C 0.07733 0.07653 0.71793 0.0
C2142 C 0.12679 0.13707 0.74971 0.0
C2143 C 0.08243 0.05616 0.75326 0.0
H2144 H 0.17461 0.08388 0.78724 0.0
H2145 H 0.13052 0.10912 0.83075 0.0
H2146 H 0.13304 0.06662 0.73787 0.0
H2147 H 0.14844 0.09469 0.73508 0.0
H2148 H 0.16431 0.07548 0.74752 0.0
H2149 H 0.09231 0.11248 0.81635 0.0
H2150 H 0.09418 0.12563 0.78984 0.0
H2151 H 0.07858 0.09702 0.78897 0.0
H2152 H 0.10272 0.12947 0.70693 0.0
H2153 H 0.06554 0.06121 0.70943 0.0
H2154 H 0.14482 0.13428 0.74982 0.0
H2155 H 0.12456 0.14137 0.76787 0.0
H2156 H 0.12547 0.15159 0.73975 0.0
H2157 H 0.09709 0.04755 0.75293 0.0
H2158 H 0.06585 0.0443 0.74496 0.0
H2159 H 0.08089 0.06039 0.77165 0.0
C2160 C 0.81149 0.35582 0.46782 0.0
C2161 C 0.82997 0.35 0.48178 0.0
C2162 C 0.80711 0.34967 0.44378 0.0
C2163 C 0.82163 0.33753 0.43336 0.0
C2164 C 0.8398 0.331 0.44749 0.0
C2165 C 0.84369 0.33724 0.47145 0.0
C2166 C 0.78745 0.35682 0.42941 0.0
C2167 C 0.85576 0.31811 0.43718 0.0
C2168 C 0.80473 0.30769 0.37219 0.0
C2169 C 0.81852 0.32279 0.35948 0.0
C2170 C 0.80483 0.31257 0.39609 0.0
C2171 C 0.8191 0.333 0.4076 0.0
C2172 C 0.83229 0.34864 0.39466 0.0
C2173 C 0.83182 0.34338 0.37085 0.0
C2174 C 0.79035 0.29552 0.40919 0.0
C2175 C 0.84771 0.37064 0.40612 0.0
H2176 H 0.80075 0.36562 0.4756 0.0
H2177 H 0.85799 0.3326 0.48201 0.0
H2178 H 0.79501 0.3693 0.41789 0.0
H2179 H 0.77594 0.34227 0.4182 0.0
H2180 H 0.77643 0.36437 0.44026 0.0
H2181 H 0.86818 0.31319 0.45061 0.0
H2182 H 0.84511 0.30276 0.42657 0.0
H2183 H 0.86619 0.32852 0.42555 0.0
H2184 H 0.79437 0.29176 0.36362 0.0
H2185 H 0.84241 0.35529 0.36124 0.0
H2186 H 0.77946 0.30355 0.41971 0.0
H2187 H 0.80226 0.28855 0.42129 0.0
H2188 H 0.77853 0.28146 0.39748 0.0
H2189 H 0.83728 0.37983 0.41602 0.0
H2190 H 0.85575 0.38155 0.39343 0.0
H2191 H 0.8621 0.36742 0.41859 0.0
C2192 C 0.57195 0.11433 0.23965 0.0
C2193 C 0.57593 0.12605 0.26158 0.0
C2194 C 0.5901 0.11552 0.22611 0.0
C2195 C 0.61266 0.12978 0.23424 0.0
C2196 C 0.61632 0.14296 0.25575 0.0
C2197 C 0.59802 0.14047 0.2695 0.0
C2198 C 0.58524 0.1005 0.20364 0.0
C2199 C 0.63946 0.15926 0.2648 0.0
C2200 C 0.65336 0.10202 0.20672 0.0
C2201 C 0.64771 0.10719 0.18404 0.0
C2202 C 0.64524 0.11228 0.22517 0.0
C2203 C 0.63227 0.12869 0.22072 0.0
C2204 C 0.63225 0.13791 0.19927 0.0
C2205 C 0.63947 0.12668 0.18083 0.0
C2206 C 0.64717 0.10302 0.24836 0.0
C2207 C 0.62111 0.15729 0.19477 0.0
H2208 H 0.5549 0.10305 0.23361 0.0
H2209 H 0.60104 0.14972 0.28645 0.0
H2210 H 0.58644 0.11081 0.18882 0.0
H2211 H 0.59849 0.09022 0.20317 0.0
H2212 H 0.56743 0.08897 0.2011 0.0
H2213 H 0.63616 0.17532 0.2718 0.0
H2214 H 0.64863 0.15246 0.27937 0.0
H2215 H 0.6513 0.16279 0.25141 0.0
H2216 H 0.66134 0.08801 0.20961 0.0
H2217 H 0.63589 0.13167 0.16362 0.0
H2218 H 0.62953 0.09334 0.25122 0.0
H2219 H 0.65329 0.11688 0.26239 0.0
H2220 H 0.65959 0.09181 0.24959 0.0
H2221 H 0.602 0.15086 0.18852 0.0
H2222 H 0.62916 0.16696 0.18121 0.0
H2223 H 0.62307 0.16866 0.2108 0.0
C2224 C 0.85542 0.72484 0.9553 0.0
C2225 C 0.83903 0.72587 0.97092 0.0
C2226 C 0.85412 0.73437 0.93364 0.0
C2227 C 0.83588 0.7454 0.92659 0.0
C2228 C 0.8193 0.74649 0.94231 0.0
C2229 C 0.82108 0.73694 0.96391 0.0
C2230 C 0.87246 0.73255 0.91815 0.0
C2231 C 0.79938 0.75774 0.93621 0.0
C2232 C 0.84312 0.78768 0.8791 0.0
C2233 C 0.83008 0.77509 0.85868 0.0
C2234 C 0.84527 0.77836 0.90082 0.0
C2235 C 0.83407 0.75563 0.90301 0.0
C2236 C 0.82096 0.74282 0.88245 0.0
C2237 C 0.81919 0.75252 0.86092 0.0
C2238 C 0.8596 0.79307 0.92164 0.0
C2239 C 0.80845 0.71869 0.88321 0.0
H2240 H 0.86943 0.71647 0.95999 0.0
H2241 H 0.8081 0.73802 0.97534 0.0
H2242 H 0.86379 0.72322 0.90131 0.0
H2243 H 0.88171 0.74951 0.91454 0.0
H2244 H 0.88575 0.72388 0.9259 0.0
H2245 H 0.78784 0.75736 0.94995 0.0
H2246 H 0.80659 0.77545 0.93329 0.0
H2247 H 0.78845 0.74934 0.91985 0.0
H2248 H 0.85169 0.80507 0.8782 0.0
H2249 H 0.80892 0.74229 0.84574 0.0
H2250 H 0.87381 0.78536 0.92912 0.0
H2251 H 0.8482 0.79453 0.93518 0.0
H2252 H 0.86772 0.81016 0.91737 0.0
H2253 H 0.82132 0.70899 0.88952 0.0
H2254 H 0.79911 0.71073 0.866 0.0
H2255 H 0.79542 0.71762 0.89557 0.0
C2256 C 0.87912 0.13822 0.04743 0.0
C2257 C 0.87636 0.15599 0.03436 0.0
C2258 C 0.89375 0.12415 0.04174 0.0
C2259 C 0.90608 0.1279 0.0225 0.0
C2260 C 0.90368 0.14599 1.00937 0.0
C2261 C 0.8888 0.15982 0.01544 0.0
C2262 C 0.89584 0.1051 0.05625 0.0
C2263 C 0.91671 0.15061 0.98887 0.0
C2264 C 0.95827 0.10099 0.02438 0.0
C2265 C 0.94835 0.08055 1.01093 0.0
C2266 C 0.94514 0.11715 0.02723 0.0
C2267 C 0.92145 0.11276 0.0164 0.0
C2268 C 0.91178 0.09268 1.00173 0.0
C2269 C 0.9254 0.07681 0.9991 0.0
C2270 C 0.95625 0.13837 0.04287 0.0
C2271 C 0.88659 0.08734 0.98988 0.0
H2272 H 0.8696 0.13508 0.06208 0.0
H2273 H 0.88676 0.17349 1.00523 0.0
H2274 H 0.89005 0.0889 0.04528 0.0
H2275 H 0.91454 0.10684 0.06367 0.0
H2276 H 0.88508 0.10445 0.07065 0.0
H2277 H 0.91332 0.16557 0.9807 0.0
H2278 H 0.93598 0.15327 0.9943 0.0
H2279 H 0.9113 0.13592 0.9757 0.0
H2280 H 0.9762 0.10409 0.03318 0.0
H2281 H 0.91769 0.06102 0.98871 0.0
H2282 H 0.94805 0.13793 0.05899 0.0
H2283 H 0.95306 0.15322 0.03443 0.0
H2284 H 0.97558 0.14049 0.04761 0.0
H2285 H 0.8744 0.08432 1.00302 0.0
H2286 H 0.88253 0.07227 0.9772 0.0
H2287 H 0.88301 0.10173 0.98081 0.0
C2288 C 0.39576 0.49043 0.05491 0.0
C2289 C 0.38928 0.4669 0.05012 0.0
C2290 C 0.41919 0.50314 0.05383 0.0
C2291 C 0.43718 0.49237 0.04809 0.0
C2292 C 0.43068 0.46867 0.04334 0.0
C2293 C 0.40723 0.45649 0.04426 0.0
C2294 C 0.42472 0.52825 0.05885 0.0
C2295 C 0.44873 0.45596 0.03748 0.0
C2296 C 0.49508 0.52355 0.02643 0.0
C2297 C 0.51205 0.52733 0.04641 0.0
C2298 C 0.47084 0.51297 0.02684 0.0
C2299 C 0.46282 0.50546 0.04765 0.0
C2300 C 0.47987 0.50937 0.06785 0.0
C2301 C 0.50386 0.5202 0.06702 0.0
C2302 C 0.45378 0.5096 1.00477 0.0
C2303 C 0.47289 0.50161 0.09046 0.0
H2304 H 0.38249 0.49901 0.05942 0.0
H2305 H 0.40305 0.43844 0.04055 0.0
H2306 H 0.43848 0.5336 0.07416 0.0
H2307 H 0.43193 0.53635 0.04404 0.0
H2308 H 0.40893 0.53439 0.06218 0.0
H2309 H 0.44114 0.43762 0.03416 0.0
H2310 H 0.45622 0.46201 0.02192 0.0
H2311 H 0.46354 0.45905 0.0519 0.0
H2312 H 0.50074 0.52881 1.01031 0.0
H2313 H 0.51639 0.52272 0.0827 0.0
H2314 H 0.43844 0.51667 1.00762 0.0
H2315 H 0.44688 0.49143 0.99948 0.0
H2316 H 0.46209 0.51757 0.9904 0.0
H2317 H 0.4582 0.50882 0.09515 0.0
H2318 H 0.4878 0.50642 0.10484 0.0
H2319 H 0.46643 0.48311 0.08862 0.0
C2320 C 0.36415 0.58187 0.75662 0.0
C2321 C 0.35139 0.56984 0.73608 0.0
C2322 C 0.35662 0.59949 0.76735 0.0
C2323 C 0.33583 0.6051 0.75729 0.0
C2324 C 0.32198 0.59198 0.73752 0.0
C2325 C 0.32995 0.57446 0.72711 0.0
C2326 C 0.37181 0.61307 0.78847 0.0
C2327 C 0.29958 0.59739 0.72645 0.0
C2328 C 0.31048 0.64713 0.79016 0.0
C2329 C 0.31965 0.66684 0.78031 0.0
C2330 C 0.31563 0.6268 0.78294 0.0
C2331 C 0.33031 0.62631 0.76556 0.0
C2332 C 0.33981 0.64619 0.75576 0.0
C2333 C 0.3343 0.6662 0.76321 0.0
C2334 C 0.30525 0.60586 0.79372 0.0
C2335 C 0.35557 0.64631 0.73716 0.0
H2336 H 0.38063 0.57822 0.76379 0.0
H2337 H 0.31991 0.56508 0.71135 0.0
H2338 H 0.38065 0.62973 0.78373 0.0
H2339 H 0.36085 0.61593 0.80202 0.0
H2340 H 0.38561 0.60478 0.79587 0.0
H2341 H 0.28932 0.58392 0.71312 0.0
H2342 H 0.28823 0.60006 0.7397 0.0
H2343 H 0.30407 0.61318 0.7181 0.0
H2344 H 0.2993 0.64763 0.80352 0.0
H2345 H 0.34104 0.68129 0.75522 0.0
H2346 H 0.31956 0.5985 0.8016 0.0
H2347 H 0.29407 0.59313 0.78019 0.0
H2348 H 0.29437 0.60916 0.80722 0.0
H2349 H 0.37119 0.63994 0.7435 0.0
H2350 H 0.36182 0.66331 0.73166 0.0
H2351 H 0.3459 0.63497 0.7218 0.0
C2352 C 0.23647 0.64593 0.51381 0.0
C2353 C 0.23974 0.66928 0.51719 0.0
C2354 C 0.21391 0.63164 0.51174 0.0
C2355 C 0.19412 0.6409 0.51326 0.0
C2356 C 0.19707 0.66448 0.51481 0.0
C2357 C 0.21988 0.67842 0.51669 0.0
C2358 C 0.21155 0.60662 0.50987 0.0
C2359 C 0.17642 0.67502 0.51644 0.0
C2360 C 0.13234 0.6022 0.50452 0.0
C2361 C 0.12917 0.59855 0.52745 0.0
C2362 C 0.15339 0.61599 0.49943 0.0
C2363 C 0.17153 0.62628 0.51772 0.0
C2364 C 0.16844 0.62239 0.54081 0.0
C2365 C 0.14743 0.60859 0.54534 0.0
C2366 C 0.15617 0.6197 0.47461 0.0
C2367 C 0.18734 0.6329 0.56087 0.0
H2368 H 0.25167 0.6387 0.51374 0.0
H2369 H 0.22223 0.69644 0.51909 0.0
H2370 H 0.20847 0.6003 0.52681 0.0
H2371 H 0.19623 0.59793 0.49697 0.0
H2372 H 0.22768 0.60208 0.50493 0.0
H2373 H 0.18089 0.69309 0.51368 0.0
H2374 H 0.16107 0.66629 0.50358 0.0
H2375 H 0.17095 0.67341 0.53386 0.0
H2376 H 0.1183 0.59456 0.4906 0.0
H2377 H 0.1453 0.60581 0.56313 0.0
H2378 H 0.17225 0.61478 0.47014 0.0
H2379 H 0.15849 0.63776 0.47225 0.0
H2380 H 0.14072 0.61004 0.46235 0.0
H2381 H 0.20383 0.6275 0.55887 0.0
H2382 H 0.18202 0.62833 0.57783 0.0
H2383 H 0.19141 0.65142 0.56112 0.0
C2384 C 0.73464 0.94651 0.75645 0.0
C2385 C 0.72734 0.95398 0.73533 0.0
C2386 C 0.75761 0.94362 0.76171 0.0
C2387 C 0.77363 0.9483 0.74543 0.0
C2388 C 0.76641 0.95591 0.72411 0.0
C2389 C 0.74332 0.95868 0.7193 0.0
C2390 C 0.76464 0.93528 0.78461 0.0
C2391 C 0.78295 0.96073 0.70628 0.0
C2392 C 0.83619 0.95347 0.77359 0.0
C2393 C 0.83797 0.93121 0.7701 0.0
C2394 C 0.81608 0.96 0.76367 0.0
C2395 C 0.79737 0.94374 0.75039 0.0
C2396 C 0.80018 0.92187 0.74496 0.0
C2397 C 0.8206 0.91597 0.75464 0.0
C2398 C 0.81386 0.98363 0.76941 0.0
C2399 C 0.78044 0.90376 0.73155 0.0
H2400 H 0.72243 0.94296 0.76894 0.0
H2401 H 0.73779 0.96452 0.70294 0.0
H2402 H 0.76956 0.91905 0.78163 0.0
H2403 H 0.78034 0.94731 0.79432 0.0
H2404 H 0.75024 0.93291 0.79554 0.0
H2405 H 0.77509 0.96783 0.69112 0.0
H2406 H 0.79963 0.97267 0.71411 0.0
H2407 H 0.78758 0.94505 0.70012 0.0
H2408 H 0.8496 0.96528 0.7855 0.0
H2409 H 0.82153 0.89862 0.75218 0.0
H2410 H 0.80203 0.98371 0.78281 0.0
H2411 H 0.80591 0.9902 0.75396 0.0
H2412 H 0.83123 0.99509 0.77614 0.0
H2413 H 0.76749 0.89727 0.74323 0.0
H2414 H 0.78706 0.88947 0.7246 0.0
H2415 H 0.77093 0.91036 0.71708 0.0
C2416 C 0.72896 0.96955 0.541 0.0
C2417 C 0.74453 0.97173 0.5619 0.0
C2418 C 0.70843 0.97867 0.53907 0.0
C2419 C 0.70224 0.99015 0.55856 0.0
C2420 C 0.71772 0.9921 0.57978 0.0
C2421 C 0.73841 0.98327 0.5811 0.0
C2422 C 0.69341 0.9762 0.51584 0.0
C2423 C 0.71233 1.0035 0.60139 0.0
C2424 C 0.66153 0.03268 0.55092 0.0
C2425 C 0.63875 0.02017 0.5534 0.0
C2426 C 0.68177 0.0232 0.55216 0.0
C2427 C 0.68013 1.00043 0.55667 0.0
C2428 C 0.65719 0.98776 0.55946 0.0
C2429 C 0.63708 0.99752 0.55752 0.0
C2430 C 0.70512 0.03776 0.54849 0.0
C2431 C 0.65386 0.96376 0.56492 0.0
H2432 H 0.73298 0.96086 0.52584 0.0
H2433 H 0.74976 0.9852 0.5975 0.0
H2434 H 0.67518 0.96677 0.51697 0.0
H2435 H 0.69229 0.99298 0.51063 0.0
H2436 H 0.70048 0.96737 0.50216 0.0
H2437 H 0.7251 1.00285 0.61682 0.0
H2438 H 0.71269 0.0213 0.59904 0.0
H2439 H 0.69429 0.99545 0.60472 0.0
H2440 H 0.66361 0.0501 0.54772 0.0
H2441 H 0.62 0.98738 0.55977 0.0
H2442 H 0.71224 0.02972 0.5343 0.0
H2443 H 0.71809 0.03956 0.56434 0.0
H2444 H 0.70364 0.05472 0.54414 0.0
H2445 H 0.65894 0.95366 0.55084 0.0
H2446 H 0.63534 0.95612 0.56719 0.0
H2447 H 0.66559 0.96286 0.58102 0.0
C2448 C 0.37025 0.45171 0.7057 0.0
C2449 C 0.38855 0.4677 0.71926 0.0
C2450 C 0.36503 0.42931 0.71076 0.0
C2451 C 0.3781 0.42301 0.7301 0.0
C2452 C 0.39716 0.43889 0.74327 0.0
C2453 C 0.40231 0.461 0.73753 0.0
C2454 C 0.34497 0.41262 0.696 0.0
C2455 C 0.41129 0.43288 0.76424 0.0
C2456 C 0.34843 0.37611 0.76269 0.0
C2457 C 0.35968 0.35916 0.75683 0.0
C2458 C 0.3539 0.39683 0.75364 0.0
C2459 C 0.37064 0.40046 0.73798 0.0
C2460 C 0.38135 0.38309 0.73126 0.0
C2461 C 0.37593 0.36267 0.741 0.0
C2462 C 0.34243 0.41513 0.76153 0.0
C2463 C 0.39889 0.38624 0.71421 0.0
H2464 H 0.35972 0.45678 0.69142 0.0
H2465 H 0.41646 0.47328 0.74813 0.0
H2466 H 0.35053 0.39706 0.69114 0.0
H2467 H 0.33001 0.40793 0.70599 0.0
H2468 H 0.33859 0.41944 0.67998 0.0
H2469 H 0.42637 0.44689 0.77185 0.0
H2470 H 0.39969 0.42836 0.77766 0.0
H2471 H 0.41821 0.41807 0.75967 0.0
H2472 H 0.33589 0.37345 0.77497 0.0
H2473 H 0.38444 0.34945 0.73623 0.0
H2474 H 0.33348 0.42134 0.7464 0.0
H2475 H 0.35614 0.42951 0.77073 0.0
H2476 H 0.32928 0.40935 0.77329 0.0
H2477 H 0.3915 0.39275 0.69844 0.0
H2478 H 0.40383 0.3704 0.70909 0.0
H2479 H 0.41514 0.39881 0.72194 0.0
C2480 C 0.15284 0.54547 0.27891 0.0
C2481 C 0.16389 0.53051 0.26799 0.0
C2482 C 0.16237 0.56871 0.28078 0.0
C2483 C 0.18324 0.57715 0.27123 0.0
C2484 C 0.19455 0.56212 0.26034 0.0
C2485 C 0.18482 0.539 0.25898 0.0
C2486 C 0.15002 0.58423 0.29279 0.0
C2487 C 0.21671 0.57048 0.24972 0.0
C2488 C 0.19645 0.63605 0.25282 0.0
C2489 C 0.21483 0.64728 0.2701 0.0
C2490 C 0.18556 0.61338 0.25334 0.0
C2491 C 0.19294 0.6017 0.27179 0.0
C2492 C 0.21065 0.61317 0.28989 0.0
C2493 C 0.2215 0.6358 0.28876 0.0
C2494 C 0.16679 0.60172 0.23366 0.0
C2495 C 0.21877 0.60133 0.30999 0.0
H2496 H 0.13674 0.53904 0.28606 0.0
H2497 H 0.19345 0.52758 0.25046 0.0
H2498 H 0.1625 0.59527 0.30685 0.0
H2499 H 0.14385 0.59522 0.28036 0.0
H2500 H 0.13459 0.57496 0.30026 0.0
H2501 H 0.22353 0.55658 0.24218 0.0
H2502 H 0.21312 0.58123 0.23588 0.0
H2503 H 0.23071 0.58093 0.26295 0.0
H2504 H 0.19079 0.64491 0.23862 0.0
H2505 H 0.23579 0.64425 0.30209 0.0
H2506 H 0.15051 0.59345 0.24043 0.0
H2507 H 0.17303 0.58843 0.22422 0.0
H2508 H 0.16227 0.61345 0.22118 0.0
H2509 H 0.20339 0.59226 0.31762 0.0
H2510 H 0.23096 0.61311 0.32375 0.0
H2511 H 0.22802 0.58869 0.30384 0.0
C2512 C 0.55712 0.67107 0.45377 0.0
C2513 C 0.56963 0.69202 0.46468 0.0
C2514 C 0.55821 0.65145 0.46425 0.0
C2515 C 0.57168 0.65301 0.48631 0.0
C2516 C 0.58469 0.67409 0.49718 0.0
C2517 C 0.58368 0.69336 0.48611 0.0
C2518 C 0.54446 0.62912 0.45201 0.0
C2519 C 0.59888 0.67639 0.52091 0.0
C2520 C 0.55053 0.60693 0.52354 0.0
C2521 C 0.56714 0.59399 0.52194 0.0
C2522 C 0.55215 0.62646 0.51238 0.0
C2523 C 0.57053 0.63283 0.49887 0.0
C2524 C 0.58749 0.61989 0.49732 0.0
C2525 C 0.58574 0.60064 0.50916 0.0
C2526 C 0.53408 0.64016 0.5149 0.0
C2527 C 0.60701 0.62601 0.48267 0.0
H2528 H 0.54646 0.67001 0.43709 0.0
H2529 H 0.59334 0.70958 0.4946 0.0
H2530 H 0.55604 0.61719 0.45143 0.0
H2531 H 0.52993 0.62184 0.4617 0.0
H2532 H 0.53674 0.63061 0.43406 0.0
H2533 H 0.60905 0.69387 0.52638 0.0
H2534 H 0.58686 0.67107 0.53378 0.0
H2535 H 0.61137 0.66529 0.52122 0.0
H2536 H 0.53625 0.60179 0.53362 0.0
H2537 H 0.5984 0.5904 0.50778 0.0
H2538 H 0.52381 0.64054 0.49778 0.0
H2539 H 0.54305 0.65773 0.52141 0.0
H2540 H 0.52156 0.63337 0.5269 0.0
H2541 H 0.59927 0.62493 0.46425 0.0
H2542 H 0.61942 0.61481 0.48423 0.0
H2543 H 0.61713 0.64354 0.48766 0.0
C2544 C 0.73097 0.412 0.73774 0.0
C2545 C 0.73336 0.40839 0.71432 0.0
C2546 C 0.74667 0.4062 0.75499 0.0
C2547 C 0.76445 0.39597 0.74841 0.0
C2548 C 0.76945 0.39624 0.72533 0.0
C2549 C 0.75386 0.40271 0.70847 0.0
C2550 C 0.74195 0.40781 0.77972 0.0
C2551 C 0.78882 0.38623 0.71768 0.0
C2552 C 0.80188 0.36618 0.78712 0.0
C2553 C 0.78825 0.34405 0.78283 0.0
C2554 C 0.79387 0.38383 0.7773 0.0
C2555 C 0.77191 0.37907 0.76273 0.0
C2556 C 0.75737 0.35701 0.75992 0.0
C2557 C 0.76564 0.33991 0.7702 0.0
C2558 C 0.80966 0.40713 0.78149 0.0
C2559 C 0.73363 0.35102 0.74477 0.0
H2560 H 0.71546 0.41703 0.7424 0.0
H2561 H 0.75604 0.40028 0.69041 0.0
H2562 H 0.73074 0.39164 0.78326 0.0
H2563 H 0.75867 0.41124 0.79189 0.0
H2564 H 0.7325 0.42117 0.78307 0.0
H2565 H 0.79331 0.39152 0.70068 0.0
H2566 H 0.80496 0.39115 0.7306 0.0
H2567 H 0.7829 0.36767 0.71605 0.0
H2568 H 0.8193 0.3696 0.79708 0.0
H2569 H 0.7548 0.32294 0.76719 0.0
H2570 H 0.7995 0.42024 0.77972 0.0
H2571 H 0.82231 0.40914 0.76874 0.0
H2572 H 0.82013 0.40985 0.79901 0.0
H2573 H 0.72193 0.36129 0.75095 0.0
H2574 H 0.72459 0.33307 0.74454 0.0
H2575 H 0.73589 0.35458 0.72674 0.0
C2576 C 0.05084 0.31049 0.9325 0.0
C2577 C 0.03136 0.2961 0.9395 0.0
C2578 C 0.05654 0.33355 0.93963 0.0
C2579 C 0.04222 0.34235 0.95381 0.0
C2580 C 1.02278 0.32783 0.96121 0.0
C2581 C 1.01768 0.30487 0.95408 0.0
C2582 C 0.07761 0.34852 0.9317 0.0
C2583 C 1.00694 0.33662 0.97614 0.0
C2584 C 0.06274 0.3994 0.98814 0.0
C2585 C 0.05134 0.41255 0.97418 0.0
C2586 C 0.06074 0.37669 0.98128 0.0
C2587 C 0.04675 0.36685 0.96014 0.0
C2588 C 0.03571 0.38014 0.94571 0.0
C2589 C 0.03828 0.40285 0.95283 0.0
C2590 C 0.07298 0.36307 0.997 0.0
C2591 C 1.02053 0.3702 0.92308 0.0
H2592 H 0.06154 0.30378 0.92132 0.0
H2593 H 1.00257 0.29385 0.95952 0.0
H2594 H 0.07167 0.36055 0.92043 0.0
H2595 H 0.08953 0.35849 0.9468 0.0
H2596 H 0.0878 0.33887 0.92195 0.0
H2597 H 0.9929 0.32302 0.98088 0.0
H2598 H 1.0175 0.34598 0.99226 0.0
H2599 H 0.99845 0.3485 0.96684 0.0
H2600 H 0.0727 0.40668 1.00476 0.0
H2601 H 1.02986 0.413 0.9417 0.0
H2602 H 0.08334 0.35375 0.98715 0.0
H2603 H 0.05962 0.35051 1.00404 0.0
H2604 H 0.08498 0.37367 1.01171 0.0
H2605 H 1.03065 0.36182 0.91196 0.0
H2606 H 1.01397 0.38302 0.91343 0.0
H2607 H 1.00511 0.35725 0.92641 0.0
C2608 C 0.09047 0.88322 0.21937 0.0
C2609 C 0.1107 0.88001 0.23276 0.0
C2610 C 0.06855 0.87866 0.22757 0.0
C2611 C 0.06704 0.871 0.24974 0.0
C2612 C 0.08776 0.8694 0.26396 0.0
C2613 C 0.10933 0.8738 0.25524 0.0
C2614 C 0.04684 0.88054 0.2119 0.0
C2615 C 0.08693 0.86165 0.28786 0.0
C2616 C 1.01193 0.86676 0.27864 0.0
C2617 C 1.00172 0.8437 0.27466 0.0
C2618 C 0.03291 0.87613 0.27007 0.0
C2619 C 0.04369 0.86208 0.25708 0.0
C2620 C 0.03293 0.83892 0.25231 0.0
C2621 C 1.01214 0.83 0.26127 0.0
C2622 C 0.04397 0.90084 0.27562 0.0
C2623 C 0.04374 0.82343 0.23826 0.0
H2624 H 0.09146 0.88804 0.20197 0.0
H2625 H 0.12499 0.87155 0.26574 0.0
H2626 H 0.036 0.8635 0.2056 0.0
H2627 H 0.03578 0.88929 0.22145 0.0
H2628 H 0.05137 0.88962 0.19668 0.0
H2629 H 0.10485 0.86386 0.29768 0.0
H2630 H 0.0767 0.87097 0.29787 0.0
H2631 H 0.07786 0.84362 0.28642 0.0
H2632 H 1.0039 0.87733 0.2891 0.0
H2633 H 1.00403 0.81223 0.25789 0.0
H2634 H 0.04808 0.90869 0.25963 0.0
H2635 H 0.06089 0.90319 0.28728 0.0
H2636 H 0.03234 0.90977 0.28416 0.0
H2637 H 0.04692 0.83001 0.22145 0.0
H2638 H 0.03235 0.80618 0.23487 0.0
H2639 H 0.06107 0.82257 0.24759 0.0
C2640 C 0.56865 0.38433 0.1134 0.0
C2641 C 0.58731 0.37337 0.11178 0.0
C2642 C 0.56889 0.40608 0.10547 0.0
C2643 C 0.58847 0.41846 0.09569 0.0
C2644 C 0.60742 0.40754 0.09418 0.0
C2645 C 0.60655 0.3856 0.10187 0.0
C2646 C 0.54782 0.41586 0.1075 0.0
C2647 C 0.62906 0.41924 0.08453 0.0
C2648 C 0.58189 0.46733 0.05606 0.0
C2649 C 0.59018 0.48748 0.07096 0.0
C2650 C 0.5811 0.44539 0.06371 0.0
C2651 C 0.58909 0.44242 0.08713 0.0
C2652 C 0.59768 0.4627 0.10222 0.0
C2653 C 0.59791 0.48443 0.09421 0.0
C2654 C 0.57131 0.42514 0.04647 0.0
C2655 C 0.60688 0.46151 0.12716 0.0
H2656 H 0.55351 0.37576 0.12085 0.0
H2657 H 0.62137 0.3781 0.10035 0.0
H2658 H 0.55325 0.43179 0.11893 0.0
H2659 H 0.54064 0.41984 0.09027 0.0
H2660 H 0.53357 0.4043 0.11458 0.0
H2661 H 0.64266 0.40927 0.08487 0.0
H2662 H 0.62412 0.42255 0.06642 0.0
H2663 H 0.6369 0.43571 0.09463 0.0
H2664 H 0.57559 0.46861 0.03814 0.0
H2665 H 0.6044 0.49922 0.10638 0.0
H2666 H 0.55627 0.41387 0.05272 0.0
H2667 H 0.58499 0.41554 0.04476 0.0
H2668 H 0.5652 0.4297 0.02912 0.0
H2669 H 0.5926 0.45193 0.13585 0.0
H2670 H 0.61373 0.47837 0.13676 0.0
H2671 H 0.62123 0.45242 0.12819 0.0
C2672 C 1.00132 0.31111 0.39142 0.0
C2673 C 1.01792 0.30093 0.38203 0.0
C2674 C 0.97874 0.31072 0.37906 0.0
C2675 C 0.97162 0.29979 0.35627 0.0
C2676 C 0.98826 0.28954 0.34654 0.0
C2677 C 1.0109 0.29025 0.35932 0.0
C2678 C 0.96231 0.32208 0.39063 0.0
C2679 C 0.98204 0.27759 0.3225 0.0
C2680 C 0.90385 0.28238 0.33357 0.0
C2681 C 0.9 0.29961 0.31987 0.0
C2682 C 0.92673 0.28197 0.3449 0.0
C2683 C 0.94698 0.29922 0.34292 0.0
C2684 C 0.94323 0.31651 0.32891 0.0
C2685 C 0.92019 0.31648 0.31772 0.0
C2686 C 0.92916 0.26303 0.35936 0.0
C2687 C 0.96366 0.33545 0.32599 0.0
H2688 H 1.00593 0.3195 0.40879 0.0
H2689 H 1.02303 0.28214 0.35152 0.0
H2690 H 0.95753 0.33508 0.38 0.0
H2691 H 0.94571 0.30968 0.39198 0.0
H2692 H 0.97025 0.3301 0.40823 0.0
H2693 H 0.9966 0.27055 0.31707 0.0
H2694 H 0.96607 0.26375 0.32169 0.0
H2695 H 0.97776 0.2893 0.30994 0.0
H2696 H 0.88883 0.26914 0.33568 0.0
H2697 H 0.918 0.33004 0.30742 0.0
H2698 H 0.93531 0.26975 0.37768 0.0
H2699 H 0.94265 0.25472 0.35353 0.0
H2700 H 0.91226 0.25029 0.35846 0.0
H2701 H 0.97125 0.34496 0.34302 0.0
H2702 H 0.95836 0.34721 0.31396 0.0
H2703 H 0.97783 0.32868 0.31935 0.0
C2704 C 0.07246 0.7446 0.60501 0.0
C2705 C 0.05616 0.74816 0.62001 0.0
C2706 C 0.07368 0.72257 0.59594 0.0
C2707 C 0.05796 0.70271 0.60121 0.0
C2708 C 0.04113 0.70629 0.61588 0.0
C2709 C 0.04068 0.7284 0.62513 0.0
C2710 C 0.09242 0.72055 0.58103 0.0
C2711 C 1.02339 0.68653 0.62202 0.0
C2712 C 0.04791 0.64583 0.56132 0.0
C2713 C 0.06073 0.63263 0.57414 0.0
C2714 C 0.04674 0.66801 0.56977 0.0
C2715 C 0.05913 0.6785 0.59171 0.0
C2716 C 0.07234 0.66536 0.60461 0.0
C2717 C 0.07275 0.64299 0.59599 0.0
C2718 C 0.03183 0.68022 0.55509 0.0
C2719 C 0.08642 0.67507 0.62774 0.0
H2720 H 0.08497 0.75911 0.60085 0.0
H2721 H 1.02793 0.73016 0.63663 0.0
H2722 H 0.10395 0.71031 0.58908 0.0
H2723 H 0.08412 0.71176 0.56386 0.0
H2724 H 0.10356 0.73713 0.57849 0.0
H2725 H 1.01042 0.69172 0.63223 0.0
H2726 H 1.01368 0.67619 0.60604 0.0
H2727 H 0.03264 0.67574 0.63222 0.0
H2728 H 0.03836 0.63867 0.54451 0.0
H2729 H 0.08296 0.63368 0.60641 0.0
H2730 H 0.04304 0.69594 0.55054 0.0
H2731 H 1.01846 0.68498 0.56501 0.0
H2732 H 1.02262 0.66996 0.53887 0.0
H2733 H 0.09874 0.69121 0.62587 0.0
H2734 H 0.09674 0.66361 0.63536 0.0
H2735 H 0.07441 0.67866 0.63996 0.0
C2736 C 0.6658 0.79533 0.89341 0.0
C2737 C 0.64682 0.80458 0.88479 0.0
C2738 C 0.68601 0.79558 0.88171 0.0
C2739 C 0.68834 0.80558 0.8605 0.0
C2740 C 0.66928 0.81499 0.85173 0.0
C2741 C 0.64914 0.81429 0.86365 0.0
C2742 C 0.70507 0.78499 0.89222 0.0
C2743 C 0.67022 0.82611 0.82959 0.0
C2744 C 0.75144 0.82396 0.84085 0.0
C2745 C 0.75206 0.80685 0.82366 0.0
C2746 C 0.73124 0.82388 0.85254 0.0
C2747 C 0.71039 0.80611 0.84764 0.0
C2748 C 0.71094 0.78878 0.83035 0.0
C2749 C 0.73127 0.7894 0.81875 0.0
C2750 C 0.73228 0.84304 0.87036 0.0
C2751 C 0.68992 0.7692 0.82414 0.0
H2752 H 0.66492 0.78772 0.90954 0.0
H2753 H 0.63517 0.82172 0.85638 0.0
H2754 H 0.70768 0.77176 0.87965 0.0
H2755 H 0.72205 0.79774 0.89618 0.0
H2756 H 0.70084 0.77745 0.90836 0.0
H2757 H 0.65448 0.83292 0.82488 0.0
H2758 H 0.68627 0.83999 0.83132 0.0
H2759 H 0.67145 0.81391 0.81522 0.0
H2760 H 0.76693 0.83767 0.84528 0.0
H2761 H 0.73089 0.77581 0.80585 0.0
H2762 H 0.73023 0.83666 0.88745 0.0
H2763 H 0.71745 0.85106 0.86568 0.0
H2764 H 0.74915 0.85596 0.87201 0.0
H2765 H 0.68613 0.7605 0.83975 0.0
H2766 H 0.69272 0.75692 0.8106 0.0
H2767 H 0.67407 0.77523 0.81785 0.0
C2768 C 0.45299 0.58564 0.67004 0.0
C2769 C 0.43388 0.56701 0.66439 0.0
C2770 C 0.46988 0.59098 0.65506 0.0
C2771 C 0.46797 0.57673 0.63461 0.0
C2772 C 0.44739 0.55933 0.62776 0.0
C2773 C 0.43033 0.55493 0.64264 0.0
C2774 C 0.49086 0.61047 0.66229 0.0
C2775 C 0.44474 0.54356 0.60617 0.0
C2776 C 0.50875 0.58114 0.58911 0.0
C2777 C 0.52305 0.56704 0.59695 0.0
C2778 C 0.49208 0.58647 0.60241 0.0
C2779 C 0.48913 0.5765 0.62328 0.0
C2780 C 0.50464 0.56332 0.63178 0.0
C2781 C 0.52166 0.55897 0.61854 0.0
C2782 C 0.47676 0.60159 0.59348 0.0
C2783 C 0.50193 0.55211 0.65382 0.0
H2784 H 0.45548 0.59524 0.68676 0.0
H2785 H 0.41549 0.54055 0.63827 0.0
H2786 H 0.50558 0.60441 0.6714 0.0
H2787 H 0.49712 0.61852 0.64706 0.0
H2788 H 0.48656 0.62324 0.67428 0.0
H2789 H 0.42676 0.53239 0.60215 0.0
H2790 H 0.44848 0.55306 0.59111 0.0
H2791 H 0.45769 0.53297 0.60853 0.0
H2792 H 0.50989 0.58715 0.57219 0.0
H2793 H 0.53265 0.5478 0.6242 0.0
H2794 H 0.47408 0.61309 0.60779 0.0
H2795 H 0.45914 0.59138 0.58565 0.0
H2796 H 0.4846 0.61168 0.58011 0.0
H2797 H 0.50251 0.56469 0.66846 0.0
H2798 H 0.51594 0.543 0.6583 0.0
H2799 H 0.48453 0.53997 0.6519 0.0
C2800 C 0.8301 0.2343 0.95857 0.0
C2801 C 0.82007 0.24582 0.97467 0.0
C2802 C 0.82993 0.23989 0.93562 0.0
C2803 C 0.81977 0.25763 0.92862 0.0
C2804 C 0.81025 0.26972 0.94499 0.0
C2805 C 0.81036 0.26358 0.96771 0.0
C2806 C 0.84013 0.22646 0.9187 0.0
C2807 C 0.79967 0.28901 0.93841 0.0
C2808 C 0.83763 0.28452 0.87472 0.0
C2809 C 0.81805 0.27493 0.85797 0.0
C2810 C 0.83833 0.27917 0.89772 0.0
C2811 C 0.81913 0.26357 0.90421 0.0
C2812 C 0.79931 0.25377 0.88741 0.0
C2813 C 0.79892 0.25969 0.86454 0.0
C2814 C 0.85966 0.29027 0.91509 0.0
C2815 C 0.77861 0.23684 0.89353 0.0
H2816 H 0.83747 0.22044 0.9637 0.0
H2817 H 0.80259 0.2726 0.98001 0.0
H2818 H 0.82624 0.21836 0.90414 0.0
H2819 H 0.85432 0.23768 0.91125 0.0
H2820 H 0.8475 0.21328 0.92686 0.0
H2821 H 0.79374 0.29722 0.95334 0.0
H2822 H 0.81279 0.30174 0.93129 0.0
H2823 H 0.78433 0.28298 0.92467 0.0
H2824 H 0.85248 0.29641 0.8699 0.0
H2825 H 0.78381 0.25206 0.85172 0.0
H2826 H 0.86824 0.27741 0.92225 0.0
H2827 H 0.85415 0.29922 0.92977 0.0
H2828 H 0.8729 0.30242 0.9074 0.0
H2829 H 0.78468 0.22242 0.90039 0.0
H2830 H 0.76471 0.23049 0.87844 0.0
H2831 H 0.77069 0.24446 0.90735 0.0
C2832 C 0.07822 0.43983 0.18898 0.0
C2833 C 0.10208 0.4395 0.19443 0.0
C2834 C 0.06993 0.44654 0.16775 0.0
C2835 C 0.08596 0.45302 0.15191 0.0
C2836 C 0.10866 0.44856 0.15557 0.0
C2837 C 0.11649 0.44171 0.17689 0.0
C2838 C 0.04514 0.44987 0.16386 0.0
C2839 C 0.12594 0.45431 0.13856 0.0
C2840 C 0.0709 0.48035 0.0975 0.0
C2841 C 0.07937 0.50313 0.1055 0.0
C2842 C 0.07196 0.46361 0.11251 0.0
C2843 C 0.08181 0.46989 0.13593 0.0
C2844 C 0.08925 0.4929 0.14428 0.0
C2845 C 0.08792 0.50918 0.12897 0.0
C2846 C 0.06367 0.43935 0.10288 0.0
C2847 C 0.0996 0.50044 0.16926 0.0
H2848 H 0.06668 0.43733 0.20218 0.0
H2849 H 0.13477 0.4408 0.18067 0.0
H2850 H 0.04551 0.46767 0.16889 0.0
H2851 H 0.0375 0.44596 0.14535 0.0
H2852 H 0.03347 0.43926 0.17442 0.0
H2853 H 0.14077 0.44592 0.14156 0.0
H2854 H 0.11702 0.44943 0.12054 0.0
H2855 H 0.13336 0.4727 0.14044 0.0
H2856 H 0.06434 0.47551 0.07933 0.0
H2857 H 0.09424 0.52674 0.13531 0.0
H2858 H 0.05639 0.42853 0.11595 0.0
H2859 H 0.07884 0.43343 0.09739 0.0
H2860 H 0.05 0.43723 0.08748 0.0
H2861 H 0.08702 0.49299 0.18089 0.0
H2862 H 0.10386 0.51895 0.17302 0.0
H2863 H 0.11603 0.49461 0.17351 0.0
C2864 C 0.81822 0.88185 0.45772 0.0
C2865 C 0.82427 0.87152 0.47768 0.0
C2866 C 0.82034 0.87319 0.43497 0.0
C2867 C 0.82782 0.85288 0.43122 0.0
C2868 C 0.83327 0.84203 0.45129 0.0
C2869 C 0.83198 0.8516 0.47395 0.0
C2870 C 0.81519 0.88627 0.41488 0.0
C2871 C 0.84044 0.82006 0.44888 0.0
C2872 C 0.81396 0.82137 0.36865 0.0
C2873 C 0.83611 0.82549 0.36059 0.0
C2874 C 0.81109 0.82967 0.39133 0.0
C2875 C 0.83055 0.84345 0.40666 0.0
C2876 C 0.85279 0.84812 0.39828 0.0
C2877 C 0.85534 0.83883 0.37596 0.0
C2878 C 0.78715 0.82314 0.39912 0.0
C2879 C 0.8741 0.86326 0.41289 0.0
H2880 H 0.81253 0.89733 0.45995 0.0
H2881 H 0.83674 0.84319 0.48885 0.0
H2882 H 0.83088 0.89037 0.40573 0.0
H2883 H 0.80047 0.876 0.40227 0.0
H2884 H 0.81045 0.9021 0.42041 0.0
H2885 H 0.84161 0.81237 0.46549 0.0
H2886 H 0.82757 0.80809 0.43581 0.0
H2887 H 0.85789 0.82268 0.44271 0.0
H2888 H 0.79885 0.81098 0.35742 0.0
H2889 H 0.87259 0.84242 0.37032 0.0
H2890 H 0.78053 0.8383 0.40296 0.0
H2891 H 0.78857 0.81488 0.41535 0.0
H2892 H 0.774 0.8116 0.3859 0.0
H2893 H 0.86995 0.87929 0.41868 0.0
H2894 H 0.88961 0.86698 0.40343 0.0
H2895 H 0.87897 0.8553 0.42862 0.0
C2896 C 0.44695 0.55905 0.80891 0.0
C2897 C 0.45831 0.55666 0.78949 0.0
C2898 C 0.45875 0.55923 0.83132 0.0
C2899 C 0.4824 0.55706 0.83422 0.0
C2900 C 0.4944 0.55628 0.81475 0.0
C2901 C 0.48219 0.55605 0.79262 0.0
C2902 C 0.44544 0.56026 0.8517 0.0
C2903 C 0.5197 0.55418 0.81712 0.0
C2904 C 0.52085 0.56663 0.89268 0.0
C2905 C 0.5196 0.54453 0.898 0.0
C2906 C 0.50812 0.57111 0.87235 0.0
C2907 C 0.49386 0.55305 0.85707 0.0
C2908 C 0.49192 0.53077 0.86278 0.0
C2909 C 0.50482 0.52679 0.88317 0.0
C2910 C 0.51061 0.59506 0.86683 0.0
C2911 C 0.47678 0.51105 0.84698 0.0
H2912 H 0.42849 0.55958 0.80659 0.0
H2913 H 0.49115 0.55444 0.77767 0.0
H2914 H 0.44155 0.54358 0.85842 0.0
H2915 H 0.45627 0.57239 0.86594 0.0
H2916 H 0.42848 0.5651 0.84697 0.0
H2917 H 0.5272 0.55612 0.80063 0.0
H2918 H 0.53089 0.56696 0.83059 0.0
H2919 H 0.52065 0.53747 0.82265 0.0
H2920 H 0.53237 0.58039 0.90404 0.0
H2921 H 0.50347 0.50973 0.88745 0.0
H2922 H 0.49298 0.59852 0.86212 0.0
H2923 H 0.5202 0.59788 0.85168 0.0
H2924 H 0.52039 0.60724 0.88156 0.0
H2925 H 0.45852 0.51324 0.8431 0.0
H2926 H 0.4761 0.4949 0.8546 0.0
H2927 H 0.48387 0.51009 0.83031 0.0
C2928 C 0.85422 0.23692 0.12281 0.0
C2929 C 0.83643 0.2407 0.10632 0.0
C2930 C 0.85662 0.24541 0.14616 0.0
C2931 C 0.84038 0.2574 0.15345 0.0
C2932 C 0.82259 0.26153 0.13679 0.0
C2933 C 0.82105 0.25342 0.11344 0.0
C2934 C 0.87628 0.24119 0.16313 0.0
C2935 C 0.80457 0.27378 0.14379 0.0
C2936 C 0.82937 0.25801 0.21648 0.0
C2937 C 0.84071 0.28006 0.22533 0.0
C2938 C 0.82929 0.25038 0.19323 0.0
C2939 C 0.8414 0.26494 0.17854 0.0
C2940 C 0.85372 0.28693 0.18768 0.0
C2941 C 0.85293 0.29432 0.21081 0.0
C2942 C 0.81551 0.22698 0.18418 0.0
C2943 C 0.86744 0.3028 0.17291 0.0
H2944 H 0.86622 0.22715 0.11747 0.0
H2945 H 0.80707 0.25619 0.10091 0.0
H2946 H 0.88641 0.25716 0.17301 0.0
H2947 H 0.86876 0.22999 0.17579 0.0
H2948 H 0.88863 0.23332 0.15444 0.0
H2949 H 0.79201 0.27586 0.12877 0.0
H2950 H 0.79441 0.26442 0.1563 0.0
H2951 H 0.81352 0.29058 0.15259 0.0
H2952 H 0.81968 0.24694 0.22748 0.0
H2953 H 0.86185 0.31135 0.21753 0.0
H2954 H 0.8272 0.2174 0.17674 0.0
H2955 H 0.80137 0.22781 0.17008 0.0
H2956 H 0.8073 0.21763 0.19785 0.0
H2957 H 0.87983 0.29469 0.1646 0.0
H2958 H 0.87766 0.31862 0.18306 0.0
H2959 H 0.85517 0.30698 0.15886 0.0
C2960 C 0.05595 0.45451 0.31403 0.0
C2961 C 0.07971 0.45355 0.31651 0.0
C2962 C 0.0457 0.46041 0.33318 0.0
C2963 C 0.0598 0.4659 0.35506 0.0
C2964 C 0.08273 0.46186 0.35812 0.0
C2965 C 0.09245 0.45556 0.33868 0.0
C2966 C 1.02084 0.46362 0.32939 0.0
C2967 C 0.09814 0.46708 0.3813 0.0
C2968 C 0.05355 0.51894 0.38739 0.0
C2969 C 0.04135 0.51071 0.40527 0.0
C2970 C 0.05961 0.50441 0.37107 0.0
C2971 C 0.05311 0.48097 0.37254 0.0
C2972 C 0.04029 0.47246 0.39026 0.0
C2973 C 0.03462 0.48749 0.40653 0.0
C2974 C 0.07319 0.51425 0.35234 0.0
C2975 C 0.03313 0.44764 0.39248 0.0
H2976 H 0.04592 0.45245 0.29688 0.0
H2977 H 0.11078 0.45461 0.34064 0.0
H2978 H 1.01126 0.45804 0.34397 0.0
H2979 H 1.02145 0.48169 0.32848 0.0
H2980 H 1.01076 0.45429 0.31302 0.0
H2981 H 0.11327 0.45897 0.38185 0.0
H2982 H 0.10523 0.48548 0.38468 0.0
H2983 H 0.08782 0.46154 0.39538 0.0
H2984 H 0.05851 0.53686 0.38626 0.0
H2985 H 1.02544 0.48112 0.42057 0.0
H2986 H 0.06288 0.50796 0.33508 0.0
H2987 H 0.0901 0.50895 0.35306 0.0
H2988 H 0.07719 0.53285 0.35395 0.0
H2989 H 1.02657 0.43804 0.37531 0.0
H2990 H 1.01925 0.4436 0.40388 0.0
H2991 H 0.04872 0.44188 0.40007 0.0
C2992 C 0.8205 0.87113 0.61997 0.0
C2993 C 0.80839 0.88809 0.61489 0.0
C2994 C 0.82089 0.86144 0.6417 0.0
C2995 C 0.80845 0.86808 0.6595 0.0
C2996 C 0.7959 0.88492 0.65427 0.0
C2997 C 0.79628 0.89469 0.63267 0.0
C2998 C 0.83524 0.84429 0.64582 0.0
C2999 C 0.78226 0.89322 0.67175 0.0
C3000 C 0.79296 0.82774 0.70812 0.0
C3001 C 0.80936 0.83763 0.72788 0.0
C3002 C 0.79229 0.83741 0.68642 0.0
C3003 C 0.80871 0.85763 0.68328 0.0
C3004 C 0.82529 0.8677 0.70319 0.0
C3005 C 0.82534 0.85784 0.72479 0.0
C3006 C 0.77358 0.82596 0.6667 0.0
C3007 C 0.84319 0.8892 0.70182 0.0
H3008 H 0.83031 0.8657 0.60706 0.0
H3009 H 0.78687 0.90772 0.62975 0.0
H3010 H 0.84863 0.85016 0.66139 0.0
H3011 H 0.82367 0.82829 0.64926 0.0
H3012 H 0.8444 0.84103 0.63088 0.0
H3013 H 0.76924 0.90205 0.66374 0.0
H3014 H 0.7728 0.87922 0.68057 0.0
H3015 H 0.79482 0.90521 0.68499 0.0
H3016 H 0.78034 0.81225 0.70959 0.0
H3017 H 0.83836 0.86595 0.73933 0.0
H3018 H 0.78197 0.82081 0.65192 0.0
H3019 H 0.763 0.83784 0.66065 0.0
H3020 H 0.76151 0.81092 0.67167 0.0
H3021 H 0.85154 0.88828 0.68587 0.0
H3022 H 0.85722 0.89313 0.71702 0.0
H3023 H 0.83418 0.90321 0.70108 0.0
C3024 C 0.78753 0.46006 0.58816 0.0
C3025 C 0.7819 0.44096 0.5722 0.0
C3026 C 0.77134 0.47333 0.59071 0.0
C3027 C 0.74877 0.46711 0.57727 0.0
C3028 C 0.74297 0.44789 0.56104 0.0
C3029 C 0.75973 0.43513 0.55852 0.0
C3030 C 0.77831 0.49387 0.60798 0.0
C3031 C 0.71892 0.44061 0.54667 0.0
C3032 C 0.69968 0.4887 0.60075 0.0
C3033 C 0.69806 0.50648 0.5873 0.0
C3034 C 0.71609 0.47574 0.59762 0.0
C3035 C 0.73116 0.48059 0.58058 0.0
C3036 C 0.72981 0.49863 0.56712 0.0
C3037 C 0.7133 0.51137 0.57066 0.0
C3038 C 0.7171 0.45668 0.61238 0.0
C3039 C 0.74589 0.50454 0.54906 0.0
H3040 H 0.80472 0.46474 0.59866 0.0
H3041 H 0.7553 0.42031 0.54625 0.0
H3042 H 0.77618 0.50889 0.59926 0.0
H3043 H 0.76655 0.49204 0.62154 0.0
H3044 H 0.79686 0.49682 0.61647 0.0
H3045 H 0.71725 0.42538 0.53468 0.0
H3046 H 0.7051 0.43708 0.55817 0.0
H3047 H 0.71539 0.45429 0.53638 0.0
H3048 H 0.68771 0.48454 0.61335 0.0
H3049 H 0.71241 0.52528 0.56044 0.0
H3050 H 0.73533 0.45841 0.62118 0.0
H3051 H 0.71215 0.44057 0.60123 0.0
H3052 H 0.70511 0.4559 0.62575 0.0
H3053 H 0.76458 0.50866 0.55727 0.0
H3054 H 0.74251 0.51902 0.53997 0.0
H3055 H 0.74351 0.48996 0.53607 0.0
C3056 C 0.26836 0.11612 0.54601 0.0
C3057 C 0.27475 0.13449 0.533 0.0
C3058 C 0.24426 0.10568 0.54724 0.0
C3059 C 0.22552 0.11345 0.53514 0.0
C3060 C 0.2319 0.13156 0.52152 0.0
C3061 C 0.25604 0.14174 0.52069 0.0
C3062 C 0.23884 0.0866 0.56209 0.0
C3063 C 0.21311 0.14064 0.50806 0.0
C3064 C 0.16095 0.0768 0.52334 0.0
C3065 C 0.1496 0.08606 0.54015 0.0
C3066 C 0.18537 0.08518 0.52172 0.0
C3067 C 0.19944 0.10339 0.53728 0.0
C3068 C 0.18813 0.11256 0.55447 0.0
C3069 C 0.16371 0.10396 0.55563 0.0
C3070 C 0.19608 0.07468 0.50298 0.0
C3071 C 0.20185 0.13181 0.57162 0.0
H3072 H 0.28223 0.11024 0.55585 0.0
H3073 H 0.26024 0.15582 0.51054 0.0
H3074 H 0.22975 0.09152 0.57645 0.0
H3075 H 0.22669 0.07181 0.55179 0.0
H3076 H 0.25502 0.08164 0.56956 0.0
H3077 H 0.22064 0.15397 0.49736 0.0
H3078 H 0.20056 0.12693 0.49657 0.0
H3079 H 0.20285 0.14764 0.52016 0.0
H3080 H 0.15063 0.0631 0.51113 0.0
H3081 H 0.1556 0.11149 0.56877 0.0
H3082 H 0.2116 0.06888 0.51069 0.0
H3083 H 0.20244 0.08736 0.49115 0.0
H3084 H 0.18331 0.06025 0.49267 0.0
H3085 H 0.21749 0.1273 0.58091 0.0
H3086 H 0.19103 0.13661 0.58454 0.0
H3087 H 0.20842 0.14661 0.56237 0.0
C3088 C 0.24264 0.02013 0.85364 0.0
C3089 C 0.24778 0.03959 0.84225 0.0
C3090 C 0.25337 1.00239 0.84905 0.0
C3091 C 0.26971 1.00444 0.83296 0.0
C3092 C 0.27538 0.02431 0.82193 0.0
C3093 C 0.26424 0.04158 0.82661 0.0
C3094 C 0.24682 0.9813 0.86095 0.0
C3095 C 0.29293 0.0272 0.80485 0.0
C3096 C 0.31333 0.96778 0.83042 0.0
C3097 C 0.30307 0.95326 0.81056 0.0
C3098 C 0.30219 0.98405 0.83856 0.0
C3099 C 0.28022 0.98555 0.82663 0.0
C3100 C 0.26937 0.97029 0.80712 0.0
C3101 C 0.28102 0.95439 0.79923 0.0
C3102 C 0.31436 1.00021 0.85928 0.0
C3103 C 0.24583 0.97125 0.79411 0.0
H3104 H 0.22993 0.01857 0.86575 0.0
H3105 H 0.26847 0.05671 0.81795 0.0
H3106 H 0.23814 0.967 0.8479 0.0
H3107 H 0.26291 0.97726 0.86985 0.0
H3108 H 0.23467 0.98279 0.8738 0.0
H3109 H 0.29624 0.04417 0.79869 0.0
H3110 H 0.30997 0.02431 0.81285 0.0
H3111 H 0.28628 1.01463 0.78964 0.0
H3112 H 0.3304 0.96684 0.83915 0.0
H3113 H 0.27291 0.94283 0.78413 0.0
H3114 H 0.30209 1.00095 0.87214 0.0
H3115 H 0.31979 1.0173 0.85378 0.0
H3116 H 0.33028 0.99552 0.86782 0.0
H3117 H 0.23272 0.97134 0.80623 0.0
H3118 H 0.23882 0.9569 0.78065 0.0
H3119 H 0.24772 0.98701 0.78559 0.0
C3120 C 0.40878 0.95661 0.07045 0.0
C3121 C 0.40414 0.93614 0.05661 0.0
C3122 C 0.43012 0.97262 0.07119 0.0
C3123 C 0.44721 0.96819 0.0576 0.0
C3124 C 0.44269 0.94757 0.04362 0.0
C3125 C 0.42127 0.93175 0.04338 0.0
C3126 C 0.43439 0.99431 0.08649 0.0
C3127 C 0.46043 0.94231 0.02876 0.0
C3128 C 0.49307 1.01686 0.04165 0.0
C3129 C 0.51327 1.01583 0.05663 0.0
C3130 C 0.47137 1.00165 0.042 0.0
C3131 C 0.46977 0.98517 0.05787 0.0
C3132 C 0.48988 0.98456 0.07359 0.0
C3133 C 0.51141 0.99983 0.07271 0.0
C3134 C 0.45035 1.00276 0.02488 0.0
C3135 C 0.48879 0.96744 0.09099 0.0
H3136 H 0.39572 0.96013 0.08083 0.0
H3137 H 0.41783 0.91603 0.03259 0.0
H3138 H 0.45072 0.99642 0.09896 0.0
H3139 H 0.43706 1.00869 0.07585 0.0
H3140 H 0.41949 0.99501 0.09631 0.0
H3141 H 0.45422 0.92556 0.01882 0.0
H3142 H 0.46406 0.95516 0.01641 0.0
H3143 H 0.47738 0.94287 0.03972 0.0
H3144 H 0.49435 0.02908 0.02908 0.0
H3145 H 0.5269 0.99896 0.0844 0.0
H3146 H 0.4353 1.0044 0.03408 0.0
H3147 H 0.4446 0.98699 1.01321 0.0
H3148 H 0.4543 1.01703 0.01419 0.0
H3149 H 0.47442 0.96822 0.10147 0.0
H3150 H 0.50565 0.96998 0.10283 0.0
H3151 H 0.48469 0.95035 0.08183 0.0
C3152 C 0.95396 0.66237 0.79824 0.0
C3153 C 0.9627 0.65021 0.78164 0.0
C3154 C 0.93484 0.67194 0.79194 0.0
C3155 C 0.92444 0.66944 0.7685 0.0
C3156 C 0.93408 0.65832 0.75151 0.0
C3157 C 0.95301 0.64871 0.7583 0.0
C3158 C 0.92515 0.68393 0.81048 0.0
C3159 C 0.92397 0.65604 0.72625 0.0
C3160 C 0.85984 0.67085 0.7572 0.0
C3161 C 0.86126 0.69316 0.75264 0.0
C3162 C 0.88029 0.66286 0.76204 0.0
C3163 C 0.90269 0.67741 0.76195 0.0
C3164 C 0.90423 0.69963 0.75631 0.0
C3165 C 0.88353 0.70732 0.75201 0.0
C3166 C 0.87793 0.639 0.76789 0.0
C3167 C 0.9277 0.71568 0.75574 0.0
H3168 H 0.96138 0.66358 0.81629 0.0
H3169 H 0.95987 0.63953 0.74535 0.0
H3170 H 0.92481 0.70112 0.80609 0.0
H3171 H 0.9067 0.67497 0.81144 0.0
H3172 H 0.93572 0.68507 0.82779 0.0
H3173 H 0.93448 0.64821 0.71504 0.0
H3174 H 0.90562 0.64565 0.72365 0.0
H3175 H 0.92327 0.67276 0.72058 0.0
H3176 H 0.84272 0.6597 0.75737 0.0
H3177 H 0.88494 0.72473 0.74898 0.0
H3178 H 0.88686 0.6389 0.78571 0.0
H3179 H 0.88675 0.62992 0.756 0.0
H3180 H 0.85921 0.6297 0.76676 0.0
H3181 H 0.93505 0.72349 0.77352 0.0
H3182 H 0.92573 0.72924 0.74464 0.0
H3183 H 0.94066 0.70706 0.74926 0.0
C3184 C 0.94 0.63544 0.04348 0.0
C3185 C 0.92244 0.62866 0.05779 0.0
C3186 C 0.96035 0.62618 0.04362 0.0
C3187 C 0.96387 0.60921 0.05824 0.0
C3188 C 0.9461 0.6022 0.0726 0.0
C3189 C 0.92606 0.61191 0.0723 0.0
C3190 C 0.97834 0.63478 0.02805 0.0
C3191 C 0.94821 0.58419 0.08842 0.0
C3192 C 1.00645 0.57076 0.04361 0.0
C3193 C 1.02739 0.57954 0.05926 0.0
C3194 C 0.98605 0.57997 0.04319 0.0
C3195 C 0.98589 0.59894 0.05857 0.0
C3196 C 1.00703 0.60796 0.07429 0.0
C3197 C 1.02708 0.59826 0.07453 0.0
C3198 C 0.96443 0.56919 0.02615 0.0
C3199 C 1.00859 0.62816 0.09096 0.0
H3200 H 0.93798 0.64828 0.03214 0.0
H3201 H 0.91303 0.6062 0.08354 0.0
H3202 H 0.99588 0.64159 0.03854 0.0
H3203 H 0.98008 0.62082 0.0159 0.0
H3204 H 0.97357 0.6481 0.01788 0.0
H3205 H 0.93299 0.58006 0.09822 0.0
H3206 H 0.94942 0.56875 0.07819 0.0
H3207 H 0.96466 0.58968 0.10091 0.0
H3208 H 1.00588 0.55642 0.03158 0.0
H3209 H 0.04277 0.60564 0.08673 0.0
H3210 H 0.96015 0.58152 0.01436 0.0
H3211 H 0.94906 0.56385 0.03548 0.0
H3212 H 0.96681 0.55438 0.01561 0.0
H3213 H 1.00522 0.64228 0.08128 0.0
H3214 H 1.0261 0.63365 0.10185 0.0
H3215 H 0.9948 0.62433 0.10244 0.0
C3216 C 0.28475 0.15246 0.86917 0.0
C3217 C 0.26354 0.15482 0.87661 0.0
C3218 C 0.30069 0.17092 0.86294 0.0
C3219 C 0.29516 0.19211 0.8642 0.0
C3220 C 0.27539 0.19509 0.87461 0.0
C3221 C 0.25973 0.17631 0.88077 0.0
C3222 C 0.32187 0.16713 0.85242 0.0
C3223 C 0.26923 0.21759 0.87672 0.0
C3224 C 0.33646 0.24284 0.8459 0.0
C3225 C 0.32609 0.24306 0.82304 0.0
C3226 C 0.32688 0.22618 0.85961 0.0
C3227 C 0.30659 0.20943 0.85012 0.0
C3228 C 0.2966 0.20918 0.82679 0.0
C3229 C 0.30645 0.22602 0.81358 0.0
C3230 C 0.33791 0.22703 0.88443 0.0
C3231 C 0.27512 0.1914 0.81587 0.0
H3232 H 0.28804 0.13591 0.86644 0.0
H3233 H 0.2435 0.17827 0.8868 0.0
H3234 H 0.318 0.16639 0.8333 0.0
H3235 H 0.33753 0.18112 0.85819 0.0
H3236 H 0.32629 0.15117 0.85691 0.0
H3237 H 0.25631 0.21809 0.88901 0.0
H3238 H 0.28526 0.23117 0.88253 0.0
H3239 H 0.26134 0.22102 0.85952 0.0
H3240 H 0.35151 0.25614 0.85337 0.0
H3241 H 0.29846 0.22606 0.79589 0.0
H3242 H 0.33961 0.21017 0.88883 0.0
H3243 H 0.32636 0.23271 0.89604 0.0
H3244 H 0.3556 0.23877 0.88801 0.0
H3245 H 0.27858 0.17451 0.81715 0.0
H3246 H 0.26995 0.19333 0.79735 0.0
H3247 H 0.25996 0.19222 0.82524 0.0
C3248 C 0.50288 0.02589 0.31918 0.0
C3249 C 0.4947 0.0378 0.30158 0.0
C3250 C 0.49274 1.00302 0.31991 0.0
C3251 C 0.47411 0.99176 0.30253 0.0
C3252 C 0.46593 1.00363 0.28462 0.0
C3253 C 0.47625 0.02649 0.2844 0.0
C3254 C 0.50182 0.99094 0.33937 0.0
C3255 C 0.44621 0.99218 0.26569 0.0
C3256 C 0.46125 0.92832 0.29188 0.0
C3257 C 0.44133 0.9217 0.30303 0.0
C3258 C 0.47218 0.95106 0.29168 0.0
C3259 C 0.46306 0.96757 0.30306 0.0
C3260 C 0.44305 0.96099 0.31448 0.0
C3261 C 0.43236 0.93813 0.31425 0.0
C3262 C 0.49333 0.95743 0.2791 0.0
C3263 C 0.43292 0.97809 0.32695 0.0
H3264 H 0.51705 0.03449 0.33257 0.0
H3265 H 0.46983 0.03549 0.27068 0.0
H3266 H 0.48727 0.98395 0.34918 0.0
H3267 H 0.50826 0.97664 0.33226 0.0
H3268 H 0.5164 1.0021 0.35155 0.0
H3269 H 0.44214 1.00371 0.2528 0.0
H3270 H 0.45103 0.97784 0.25657 0.0
H3271 H 0.42997 0.98535 0.27328 0.0
H3272 H 0.46809 0.91568 0.28298 0.0
H3273 H 0.41715 0.93307 0.32314 0.0
H3274 H 0.50863 0.96758 0.29116 0.0
H3275 H 0.48945 0.96794 0.26513 0.0
H3276 H 0.49841 0.94255 0.27135 0.0
H3277 H 0.44666 0.98868 0.34033 0.0
H3278 H 0.41759 0.9702 0.3354 0.0
H3279 H 0.42718 0.98936 0.31459 0.0
C3280 C 0.61853 0.41043 0.62294 0.0
C3281 C 0.64196 0.41787 0.61895 0.0
C3282 C 0.60069 0.4198 0.61267 0.0
C3283 C 0.60657 0.43743 0.59857 0.0
C3284 C 0.63003 0.4444 0.5937 0.0
C3285 C 0.64744 0.43431 0.60377 0.0
C3286 C 0.57576 0.41152 0.61775 0.0
C3287 C 0.63709 0.46347 0.57909 0.0
C3288 C 0.56057 0.46013 0.56248 0.0
C3289 C 0.5595 0.47867 0.57722 0.0
C3290 C 0.57503 0.44577 0.56956 0.0
C3291 C 0.58904 0.45052 0.59156 0.0
C3292 C 0.58709 0.46856 0.60686 0.0
C3293 C 0.57192 0.48205 0.5997 0.0
C3294 C 0.57618 0.42622 0.55312 0.0
C3295 C 0.60211 0.47451 0.6303 0.0
H3296 H 0.61411 0.39736 0.6343 0.0
H3297 H 0.66547 0.43988 0.60043 0.0
H3298 H 0.57118 0.42436 0.6294 0.0
H3299 H 0.56305 0.40874 0.60158 0.0
H3300 H 0.57349 0.39568 0.6262 0.0
H3301 H 0.65467 0.46418 0.5736 0.0
H3302 H 0.62396 0.46202 0.56344 0.0
H3303 H 0.63776 0.47953 0.58928 0.0
H3304 H 0.55092 0.45735 0.54514 0.0
H3305 H 0.57093 0.49614 0.61136 0.0
H3306 H 0.57459 0.41077 0.56216 0.0
H3307 H 0.59354 0.42956 0.54672 0.0
H3308 H 0.56208 0.42314 0.538 0.0
H3309 H 0.59942 0.45993 0.64064 0.0
H3310 H 0.59809 0.48886 0.64026 0.0
H3311 H 0.62105 0.47897 0.62808 0.0
C3312 C 0.45896 0.75264 0.36438 0.0
C3313 C 0.47099 0.73563 0.36747 0.0
C3314 C 0.43728 0.74862 0.35019 0.0
C3315 C 0.42752 0.72706 0.33838 0.0
C3316 C 0.43907 0.70947 0.34216 0.0
C3317 C 0.46074 0.71395 0.3569 0.0
C3318 C 0.42532 0.76781 0.34719 0.0
C3319 C 0.42921 0.68631 0.32987 0.0
C3320 C 0.36529 0.72649 0.3146 0.0
C3321 C 0.36933 0.73703 0.29447 0.0
C3322 C 0.38367 0.7201 0.32806 0.0
C3323 C 0.40629 0.72413 0.32089 0.0
C3324 C 0.40926 0.73149 0.29879 0.0
C3325 C 0.39076 0.73816 0.28593 0.0
C3326 C 0.37965 0.71212 0.35138 0.0
C3327 C 0.43291 0.73533 0.29017 0.0
H3328 H 0.4667 0.76933 0.37291 0.0
H3329 H 0.47009 0.70079 0.35936 0.0
H3330 H 0.42487 0.77219 0.32908 0.0
H3331 H 0.40681 0.76287 0.35072 0.0
H3332 H 0.43452 0.78306 0.35884 0.0
H3333 H 0.43721 0.67363 0.33831 0.0
H3334 H 0.40977 0.68125 0.32926 0.0
H3335 H 0.43303 0.68629 0.31177 0.0
H3336 H 0.34865 0.72547 0.3212 0.0
H3337 H 0.39372 0.74596 0.27014 0.0
H3338 H 0.38519 0.72665 0.36476 0.0
H3339 H 0.39022 0.69983 0.35603 0.0
H3340 H 0.36071 0.70438 0.35181 0.0
H3341 H 0.44439 0.75133 0.2988 0.0
H3342 H 0.43114 0.73638 0.27119 0.0
H3343 H 0.44181 0.72171 0.29437 0.0
C3344 C 0.14736 0.7989 0.17312 0.0
C3345 C 0.16431 0.81401 0.16344 0.0
C3346 C 0.14291 0.7758 0.16698 0.0
C3347 C 0.15595 0.76761 0.151 0.0
C3348 C 0.17305 0.78274 0.14111 0.0
C3349 C 0.17693 0.80581 0.14734 0.0
C3350 C 0.12433 0.76014 0.17767 0.0
C3351 C 0.18747 0.77453 0.12421 0.0
C3352 C 0.16072 0.7074 0.15293 0.0
C3353 C 0.14422 0.69656 0.13393 0.0
C3354 C 0.16487 0.73056 0.15854 0.0
C3355 C 0.15198 0.74314 0.14501 0.0
C3356 C 0.13513 0.73232 0.12595 0.0
C3357 C 0.13155 0.70915 0.12056 0.0
C3358 C 0.18306 0.74158 0.17895 0.0
C3359 C 0.12094 0.74522 0.11126 0.0
H3360 H 0.13742 0.80514 0.18545 0.0
H3361 H 0.19012 0.8174 0.13987 0.0
H3362 H 0.11091 0.74973 0.1639 0.0
H3363 H 0.13252 0.74857 0.18776 0.0
H3364 H 0.11527 0.76928 0.18929 0.0
H3365 H 0.1999 0.78851 0.1179 0.0
H3366 H 0.19777 0.76342 0.13255 0.0
H3367 H 0.17564 0.76447 0.10911 0.0
H3368 H 0.17031 0.69773 0.16357 0.0
H3369 H 0.11903 0.70096 0.10565 0.0
H3370 H 0.17455 0.74961 0.192 0.0
H3371 H 0.19665 0.75498 0.17329 0.0
H3372 H 0.19197 0.72947 0.18736 0.0
H3373 H 0.11094 0.75394 0.1222 0.0
H3374 H 0.10828 0.73422 0.09725 0.0
H3375 H 0.13294 0.75826 0.10333 0.0
C3376 C 0.0848 0.22819 0.83363 0.0
C3377 C 0.07895 0.23987 0.85261 0.0
C3378 C 0.10584 0.23625 0.8247 0.0
C3379 C 0.12148 0.25641 0.83509 0.0
C3380 C 0.11539 0.26862 0.85384 0.0
C3381 C 0.09411 0.26024 0.86234 0.0
C3382 C 0.11163 0.22288 0.80451 0.0
C3383 C 0.13169 0.29014 0.86538 0.0
C3384 C 0.1856 0.26217 0.82719 0.0
C3385 C 0.18776 0.2759 0.80902 0.0
C3386 C 0.16429 0.25623 0.83629 0.0
C3387 C 0.14463 0.26409 0.82688 0.0
C3388 C 0.14681 0.27833 0.80887 0.0
C3389 C 0.16838 0.28413 0.80021 0.0
C3390 C 0.16264 0.24106 0.85557 0.0
C3391 C 0.1262 0.28701 0.7984 0.0
H3392 H 0.0731 0.2125 0.82595 0.0
H3393 H 0.0897 0.26932 0.87704 0.0
H3394 H 0.1155 0.23363 0.79033 0.0
H3395 H 0.12769 0.21682 0.80994 0.0
H3396 H 0.09702 0.20818 0.79765 0.0
H3397 H 0.12375 0.29829 0.87888 0.0
H3398 H 0.14839 0.28665 0.87355 0.0
H3399 H 0.13632 0.3021 0.85237 0.0
H3400 H 0.2004 0.25554 0.83391 0.0
H3401 H 0.17006 0.29507 0.78644 0.0
H3402 H 0.14984 0.22493 0.84941 0.0
H3403 H 0.15602 0.24878 0.87031 0.0
H3404 H 0.17992 0.23752 0.86189 0.0
H3405 H 0.11177 0.27276 0.79012 0.0
H3406 H 0.13111 0.29873 0.78521 0.0
H3407 H 0.11911 0.29576 0.81209 0.0
C3408 C 0.61439 0.72803 0.98728 0.0
C3409 C 0.59519 0.73412 0.97423 0.0
C3410 C 0.61282 0.70624 0.99559 0.0
C3411 C 0.59133 0.68914 0.99151 0.0
C3412 C 0.57182 0.69527 0.97855 0.0
C3413 C 0.57399 0.71706 0.97009 0.0
C3414 C 0.63457 0.70144 1.00869 0.0
C3415 C 0.54826 0.67866 0.97361 0.0
C3416 C 0.59135 0.62484 0.99558 0.0
C3417 C 0.58602 0.62037 0.01807 0.0
C3418 C 0.59318 0.64654 0.987 0.0
C3419 C 0.58933 0.66523 1.00065 0.0
C3420 C 0.58366 0.66074 0.02325 0.0
C3421 C 0.58232 0.63898 0.03155 0.0
C3422 C 0.59963 0.64949 0.96307 0.0
C3423 C 0.57886 0.67913 0.03893 0.0
H3424 H 0.63108 0.74035 0.99084 0.0
H3425 H 0.55874 0.72077 0.9602 0.0
H3426 H 0.63124 0.69736 0.02634 0.0
H3427 H 0.6388 0.6866 0.99992 0.0
H3428 H 0.65014 0.71583 1.01015 0.0
H3429 H 0.53445 0.68573 0.9642 0.0
H3430 H 0.54991 0.66356 0.96309 0.0
H3431 H 0.54242 0.67313 0.99005 0.0
H3432 H 0.59448 0.61128 0.98455 0.0
H3433 H 0.5782 0.63657 0.04888 0.0
H3434 H 0.6159 0.66301 0.96399 0.0
H3435 H 0.58538 0.65471 0.95216 0.0
H3436 H 0.60258 0.6339 0.95452 0.0
H3437 H 0.59481 0.69313 0.04275 0.0
H3438 H 0.57374 0.67325 0.05552 0.0
H3439 H 0.5645 0.68589 0.03013 0.0
C3440 C 0.15013 0.82954 0.69191 0.0
C3441 C 0.1293 0.82219 0.70187 0.0
C3442 C 0.17294 0.82919 0.70322 0.0
C3443 C 0.17584 0.82155 0.72557 0.0
C3444 C 0.15499 0.81456 0.736 0.0
C3445 C 0.13227 0.81478 0.72413 0.0
C3446 C 0.19405 0.83661 0.69086 0.0
C3447 C 0.15663 0.80654 0.75978 0.0
C3448 C 0.23218 0.80011 0.74525 0.0
C3449 C 0.24753 0.81869 0.75886 0.0
C3450 C 0.20918 0.80078 0.73462 0.0
C3451 C 0.20046 0.82044 0.73759 0.0
C3452 C 0.21574 0.83918 0.75158 0.0
C3453 C 0.23882 0.83815 0.76175 0.0
C3454 C 0.19427 0.78035 0.7198 0.0
C3455 C 0.20771 0.86052 0.7558 0.0
H3456 H 0.14863 0.83516 0.67476 0.0
H3457 H 0.11673 0.80891 0.73231 0.0
H3458 H 0.20721 0.85047 0.70154 0.0
H3459 H 0.20273 0.82255 0.6883 0.0
H3460 H 0.18921 0.84234 0.67374 0.0
H3461 H 0.13927 0.80279 0.76623 0.0
H3462 H 0.1635 0.79116 0.75946 0.0
H3463 H 0.16926 0.81941 0.77217 0.0
H3464 H 0.23828 0.78491 0.74254 0.0
H3465 H 0.25008 0.85274 0.77211 0.0
H3466 H 0.18998 0.78466 0.70192 0.0
H3467 H 0.17731 0.7746 0.72657 0.0
H3468 H 0.20324 0.7663 0.71911 0.0
H3469 H 0.20426 0.86765 0.73917 0.0
H3470 H 0.22098 0.87332 0.76775 0.0
H3471 H 0.19089 0.8569 0.7632 0.0
C3472 C 0.09061 0.39746 0.47578 0.0
C3473 C 0.07319 0.37849 0.47961 0.0
C3474 C 0.09061 0.42005 0.48406 0.0
C3475 C 0.07276 0.42486 0.49687 0.0
C3476 C 0.05519 0.40577 0.50085 0.0
C3477 C 0.05559 0.38335 0.49235 0.0
C3478 C 0.10988 0.43899 0.47885 0.0
C3479 C 0.03558 0.40902 0.51412 0.0
C3480 C 0.08337 0.48246 0.53599 0.0
C3481 C 0.07117 0.49578 0.52265 0.0
C3482 C 0.08404 0.45995 0.52801 0.0
C3483 C 0.07233 0.44949 0.50578 0.0
C3484 C 0.06011 0.46292 0.4922 0.0
C3485 C 0.05964 0.48532 0.50062 0.0
C3486 C 0.09741 0.4472 0.54366 0.0
C3487 C 0.04735 0.45359 0.46843 0.0
H3488 H 0.10439 0.3947 0.466 0.0
H3489 H 0.04178 0.36947 0.49566 0.0
H3490 H 0.10204 0.45056 0.46839 0.0
H3491 H 0.11937 0.4488 0.49519 0.0
H3492 H 0.12284 0.43297 0.46928 0.0
H3493 H 1.02335 0.3929 0.51626 0.0
H3494 H 0.0431 0.41783 0.53148 0.0
H3495 H 1.02533 0.41975 0.50501 0.0
H3496 H 0.09244 0.48959 0.55298 0.0
H3497 H 0.05006 0.49474 0.48967 0.0
H3498 H 0.11136 0.44213 0.53487 0.0
H3499 H 0.08528 0.43164 0.54741 0.0
H3500 H 0.10574 0.45721 0.56028 0.0
H3501 H 0.06007 0.44941 0.45729 0.0
H3502 H 0.03825 0.46553 0.45996 0.0
H3503 H 0.03411 0.43783 0.46956 0.0
C3504 C 0.49519 0.27739 0.22722 0.0
C3505 C 0.50068 0.28825 0.20733 0.0
C3506 C 0.47451 0.27839 0.23768 0.0
C3507 C 0.4579 0.29035 0.22829 0.0
C3508 C 0.46328 0.30123 0.20812 0.0
C3509 C 0.48428 0.30023 0.1982 0.0
C3510 C 0.4708 0.26692 0.25934 0.0
C3511 C 0.4466 0.31392 0.19672 0.0
C3512 C 0.39284 0.27534 0.24329 0.0
C3513 C 0.39192 0.29297 0.25976 0.0
C3514 C 0.41364 0.27445 0.23301 0.0
C3515 C 0.43506 0.29128 0.23927 0.0
C3516 C 0.43435 0.30895 0.25611 0.0
C3517 C 0.41314 0.30971 0.26575 0.0
C3518 C 0.41259 0.25541 0.21502 0.0
C3519 C 0.45625 0.32722 0.26414 0.0
H3520 H 0.50732 0.26815 0.23493 0.0
H3521 H 0.48771 0.30876 0.18294 0.0
H3522 H 0.47449 0.2798 0.27437 0.0
H3523 H 0.45223 0.25745 0.25846 0.0
H3524 H 0.48257 0.25529 0.26248 0.0
H3525 H 0.45264 0.32113 0.18099 0.0
H3526 H 0.42879 0.30263 0.19186 0.0
H3527 H 0.44481 0.32772 0.20906 0.0
H3528 H 0.37698 0.26221 0.238 0.0
H3529 H 0.41331 0.32353 0.27829 0.0
H3530 H 0.42592 0.24595 0.22069 0.0
H3531 H 0.417 0.26216 0.19858 0.0
H3532 H 0.39493 0.24367 0.21159 0.0
H3533 H 0.47081 0.31976 0.27127 0.0
H3534 H 0.45341 0.33956 0.2776 0.0
H3535 H 0.46206 0.33619 0.24928 0.0
C3536 C 0.67112 0.57586 0.4508 0.0
C3537 C 0.67842 0.56518 0.43208 0.0
C3538 C 0.65619 0.56358 0.4647 0.0
C3539 C 0.64805 0.54009 0.45949 0.0
C3540 C 0.65647 0.52903 0.44149 0.0
C3541 C 0.67174 0.54174 0.42803 0.0
C3542 C 0.64815 0.57593 0.48423 0.0
C3543 C 0.64829 0.50401 0.43559 0.0
C3544 C 0.61727 0.51429 0.5075 0.0
C3545 C 0.5944 0.51716 0.50098 0.0
C3546 C 0.63472 0.5196 0.49306 0.0
C3547 C 0.62904 0.52784 0.47164 0.0
C3548 C 0.60532 0.52801 0.46378 0.0
C3549 C 0.58825 0.52265 0.47856 0.0
C3550 C 0.6596 0.5185 0.50194 0.0
C3551 C 0.59839 0.53611 0.44075 0.0
H3552 H 0.67647 0.59395 0.45412 0.0
H3553 H 0.67732 0.53343 0.41352 0.0
H3554 H 0.62891 0.57471 0.48036 0.0
H3555 H 0.65123 0.56815 0.50054 0.0
H3556 H 0.65743 0.59393 0.48703 0.0
H3557 H 0.65873 0.49764 0.4232 0.0
H3558 H 0.64954 0.49518 0.45145 0.0
H3559 H 0.62947 0.49973 0.42775 0.0
H3560 H 0.62207 0.50942 0.52455 0.0
H3561 H 0.57053 0.5245 0.47314 0.0
H3562 H 0.66863 0.5344 0.5126 0.0
H3563 H 0.66998 0.51623 0.48773 0.0
H3564 H 0.65957 0.50454 0.51303 0.0
H3565 H 0.60463 0.55462 0.44192 0.0
H3566 H 0.57896 0.53167 0.43553 0.0
H3567 H 0.60678 0.52893 0.42703 0.0
C3568 C 0.34394 0.83281 0.11135 0.0
C3569 C 0.3309 0.84911 0.10796 0.0
C3570 C 0.34458 0.82224 0.13197 0.0
C3571 C 0.33164 0.8279 0.14949 0.0
C3572 C 0.31756 0.84354 0.14566 0.0
C3573 C 0.31746 0.854 0.12506 0.0
C3574 C 0.35994 0.80578 0.13545 0.0
C3575 C 0.30323 0.84988 0.1637 0.0
C3576 C 0.31936 0.79105 0.19858 0.0
C3577 C 0.33578 0.80324 0.21705 0.0
C3578 C 0.31812 0.79857 0.17637 0.0
C3579 C 0.33385 0.81862 0.17241 0.0
C3580 C 0.35091 0.83062 0.19082 0.0
C3581 C 0.35157 0.82288 0.21289 0.0
C3582 C 0.29946 0.78544 0.15734 0.0
C3583 C 0.36815 0.85199 0.18736 0.0
H3584 H 0.35448 0.82901 0.09833 0.0
H3585 H 0.30718 0.86645 0.12257 0.0
H3586 H 0.37464 0.81278 0.14964 0.0
H3587 H 0.34965 0.78992 0.14067 0.0
H3588 H 0.36753 0.80193 0.1196 0.0
H3589 H 0.29193 0.8611 0.15743 0.0
H3590 H 0.29181 0.83463 0.16897 0.0
H3591 H 0.31523 0.85855 0.17937 0.0
H3592 H 0.30698 0.77593 0.2016 0.0
H3593 H 0.36439 0.83239 0.22697 0.0
H3594 H 0.30762 0.78155 0.14192 0.0
H3595 H 0.28679 0.7957 0.15201 0.0
H3596 H 0.28951 0.76951 0.1628 0.0
H3597 H 0.37762 0.84915 0.17256 0.0
H3598 H 0.38135 0.85849 0.20295 0.0
H3599 H 0.35844 0.86505 0.18314 0.0
C3600 C 0.04089 0.62891 0.91964 0.0
C3601 C 0.05614 0.63244 0.90298 0.0
C3602 C 0.04967 0.62701 0.94263 0.0
C3603 C 0.0742 0.62899 0.9488 0.0
C3604 C 0.08984 0.6361 0.93276 0.0
C3605 C 0.08056 0.63728 0.90979 0.0
C3606 C 0.0324 0.61968 0.95929 0.0
C3607 C 0.11617 0.63947 0.93899 0.0
C3608 C 0.09485 0.61726 1.00999 0.0
C3609 C 0.0943 0.59434 1.00657 0.0
C3610 C 0.08928 0.62922 0.99127 0.0
C3611 C 0.08241 0.61777 0.96884 0.0
C3612 C 0.08248 0.59478 0.96529 0.0
C3613 C 0.08869 0.58348 0.98413 0.0
C3614 C 0.09001 0.65381 0.99574 0.0
C3615 C 0.07517 0.58178 0.94167 0.0
H3616 H 1.02198 0.625 0.91421 0.0
H3617 H 0.0923 0.64001 0.89677 0.0
H3618 H 1.03029 0.60148 0.96083 0.0
H3619 H 0.03901 0.62861 0.97674 0.0
H3620 H 1.01477 0.62269 0.95335 0.0
H3621 H 0.12594 0.6499 0.92691 0.0
H3622 H 0.12211 0.64754 0.95691 0.0
H3623 H 0.12079 0.62295 0.93806 0.0
H3624 H 0.0992 0.62578 0.02733 0.0
H3625 H 0.08815 0.56577 0.98131 0.0
H3626 H 0.07199 0.65584 0.99748 0.0
H3627 H 0.09614 0.66322 0.98125 0.0
H3628 H 0.10174 0.66138 1.012 0.0
H3629 H 0.05693 0.58251 0.93479 0.0
H3630 H 0.07579 0.5639 0.94202 0.0
H3631 H 0.08696 0.58934 0.92942 0.0
C3632 C 0.35299 0.20427 0.62443 0.0
C3633 C 0.3533 0.21578 0.60432 0.0
C3634 C 0.35214 0.2148 0.64664 0.0
C3635 C 0.35222 0.23795 0.64971 0.0
C3636 C 0.35305 0.24986 0.6296 0.0
C3637 C 0.3532 0.23871 0.60738 0.0
C3638 C 0.35062 0.20085 0.66688 0.0
C3639 C 0.35382 0.27456 0.63154 0.0
C3640 C 0.32834 0.2611 0.70348 0.0
C3641 C 0.3488 0.26941 0.71976 0.0
C3642 C 0.32919 0.25095 0.68104 0.0
C3643 C 0.35111 0.24939 0.67377 0.0
C3644 C 0.37188 0.25819 0.68998 0.0
C3645 C 0.37046 0.26765 0.71257 0.0
C3646 C 0.30636 0.24145 0.66517 0.0
C3647 C 0.39582 0.25776 0.68341 0.0
H3648 H 0.35273 0.18658 0.62276 0.0
H3649 H 0.35338 0.24808 0.59235 0.0
H3650 H 0.36597 0.20767 0.68043 0.0
H3651 H 0.33449 0.20163 0.6747 0.0
H3652 H 0.35016 0.18302 0.66183 0.0
H3653 H 0.356 0.28191 0.6149 0.0
H3654 H 0.33729 0.2774 0.63721 0.0
H3655 H 0.36862 0.2836 0.64486 0.0
H3656 H 0.31141 0.2621 0.70846 0.0
H3657 H 0.38654 0.27405 0.72457 0.0
H3658 H 0.3046 0.22335 0.66028 0.0
H3659 H 0.3064 0.24985 0.64899 0.0
H3660 H 0.2907 0.24347 0.67326 0.0
H3661 H 0.3972 0.24017 0.68016 0.0
H3662 H 0.41041 0.26654 0.69709 0.0
H3663 H 0.39816 0.26575 0.66714 0.0
C3664 C 0.64017 0.58864 0.3198 0.0
C3665 C 0.66038 0.58033 0.31846 0.0
C3666 C 0.62376 0.58786 0.29997 0.0
C3667 C 0.62806 0.57906 0.27837 0.0
C3668 C 0.64803 0.56998 0.27713 0.0
C3669 C 0.66377 0.57054 0.2972 0.0
C3670 C 0.60232 0.59713 0.30201 0.0
C3671 C 0.65347 0.56069 0.25438 0.0
C3672 C 0.58627 0.56298 0.22235 0.0
C3673 C 0.59431 0.5813 0.21005 0.0
C3674 C 0.59544 0.56287 0.24563 0.0
C3675 C 0.61341 0.58127 0.25653 0.0
C3676 C 0.62026 0.60046 0.24467 0.0
C3677 C 0.61053 0.60028 0.22161 0.0
C3678 C 0.58718 0.54239 0.25797 0.0
C3679 C 0.63958 0.62035 0.25552 0.0
H3680 H 0.63731 0.596 0.33624 0.0
H3681 H 0.67932 0.56404 0.29599 0.0
H3682 H 0.60457 0.61342 0.29449 0.0
H3683 H 0.58628 0.58566 0.29217 0.0
H3684 H 0.59945 0.59982 0.3203 0.0
H3685 H 0.66929 0.55357 0.25656 0.0
H3686 H 0.63826 0.54739 0.24575 0.0
H3687 H 0.6566 0.57418 0.24265 0.0
H3688 H 0.57352 0.54839 0.2135 0.0
H3689 H 0.617 0.6144 0.21213 0.0
H3690 H 0.58526 0.54723 0.27612 0.0
H3691 H 0.60048 0.53212 0.25843 0.0
H3692 H 0.57007 0.53185 0.24912 0.0
H3693 H 0.63657 0.62566 0.27315 0.0
H3694 H 0.64087 0.63488 0.24507 0.0
H3695 H 0.65678 0.61554 0.25714 0.0
C3696 C 0.33908 0.84135 0.96583 0.0
C3697 C 0.32642 0.85417 0.97768 0.0
C3698 C 0.33459 0.83677 0.94164 0.0
C3699 C 0.31687 0.84505 0.9288 0.0
C3700 C 0.30344 0.85733 0.9407 0.0
C3701 C 0.30843 0.86181 0.96496 0.0
C3702 C 0.34942 0.82368 0.92973 0.0
C3703 C 0.28425 0.86628 0.92774 0.0
C3704 C 0.32545 0.85345 0.86622 0.0
C3705 C 0.31101 0.83365 0.85422 0.0
C3706 C 0.32687 0.85769 0.89032 0.0
C3707 C 0.31344 0.84183 0.9029 0.0
C3708 C 0.29805 0.82226 0.8908 0.0
C3709 C 0.29706 0.81838 0.86666 0.0
C3710 C 0.34354 0.87877 0.90244 0.0
C3711 C 0.28325 0.80502 0.90347 0.0
H3712 H 0.35303 0.83536 0.97542 0.0
H3713 H 0.29852 0.87171 0.9739 0.0
H3714 H 0.33791 0.80906 0.91863 0.0
H3715 H 0.35982 0.8344 0.91832 0.0
H3716 H 0.3618 0.81759 0.94221 0.0
H3717 H 0.27419 0.87396 0.93956 0.0
H3718 H 0.29215 0.87911 0.91672 0.0
H3719 H 0.27178 0.85263 0.9161 0.0
H3720 H 0.33628 0.86544 0.85688 0.0
H3721 H 0.2858 0.80304 0.85764 0.0
H3722 H 0.3579 0.87429 0.91394 0.0
H3723 H 0.33412 0.88804 0.91349 0.0
H3724 H 0.3516 0.89009 0.89009 0.0
H3725 H 0.2949 0.7969 0.91458 0.0
H3726 H 0.27056 0.79182 0.89144 0.0
H3727 H 0.27327 0.81316 0.91497 0.0
C3728 C 0.06779 0.60352 0.7603 0.0
C3729 C 0.0714 0.60422 0.78446 0.0
C3730 C 0.08135 0.59338 0.74682 0.0
C3731 C 0.09924 0.58398 0.75779 0.0
C3732 C 0.1044 0.58639 0.78218 0.0
C3733 C 0.0903 0.59639 0.79526 0.0
C3734 C 0.07546 0.59148 0.72078 0.0
C3735 C 0.12373 0.57723 0.79458 0.0
C3736 C 0.10443 0.53681 0.71645 0.0
C3737 C 0.11989 0.54874 0.7027 0.0
C3738 C 0.09952 0.5474 0.73662 0.0
C3739 C 0.11081 0.57019 0.74332 0.0
C3740 C 0.1295 0.58086 0.73193 0.0
C3741 C 0.13375 0.57006 0.71159 0.0
C3742 C 0.08 0.53515 0.74884 0.0
C3743 C 0.14283 0.60475 0.73931 0.0
H3744 H 0.05341 0.60972 0.75179 0.0
H3745 H 0.0934 0.59702 0.81396 0.0
H3746 H 0.09144 0.59858 0.71292 0.0
H3747 H 0.06921 0.57357 0.71398 0.0
H3748 H 0.06157 0.60033 0.71503 0.0
H3749 H 0.13026 0.58626 0.81205 0.0
H3750 H 0.11664 0.55931 0.79677 0.0
H3751 H 0.13883 0.57835 0.78467 0.0
H3752 H 0.09433 0.52001 0.71019 0.0
H3753 H 0.14605 0.5795 0.70145 0.0
H3754 H 0.06384 0.5413 0.74408 0.0
H3755 H 0.08489 0.53844 0.76786 0.0
H3756 H 0.07575 0.51677 0.74403 0.0
H3757 H 0.13231 0.61628 0.73225 0.0
H3758 H 0.16013 0.60859 0.73275 0.0
H3759 H 0.14584 0.60815 0.75843 0.0
C3760 C 0.35114 0.22003 0.45059 0.0
C3761 C 0.33526 0.2235 0.46599 0.0
C3762 C 0.35096 0.22876 0.42854 0.0
C3763 C 0.33443 0.24147 0.42095 0.0
C3764 C 0.3184 0.24506 0.43645 0.0
C3765 C 0.31902 0.23621 0.45843 0.0
C3766 C 0.36857 0.22425 0.41321 0.0
C3767 C 0.30031 0.25826 0.42974 0.0
C3768 C 0.34627 0.28102 0.37178 0.0
C3769 C 0.33221 0.26854 0.35181 0.0
C3770 C 0.34725 0.27253 0.39394 0.0
C3771 C 0.33381 0.25079 0.39697 0.0
C3772 C 0.31961 0.23811 0.37688 0.0
C3773 C 0.31901 0.24698 0.35491 0.0
C3774 C 0.36273 0.28703 0.4143 0.0
C3775 C 0.30478 0.215 0.37858 0.0
H3776 H 0.36383 0.21033 0.45574 0.0
H3777 H 0.30649 0.23917 0.46973 0.0
H3778 H 0.35915 0.21487 0.39664 0.0
H3779 H 0.37941 0.24032 0.409 0.0
H3780 H 0.38051 0.21445 0.42141 0.0
H3781 H 0.28911 0.25984 0.44346 0.0
H3782 H 0.30925 0.2753 0.42607 0.0
H3783 H 0.28874 0.25003 0.41364 0.0
H3784 H 0.35657 0.29768 0.37016 0.0
H3785 H 0.3079 0.23691 0.34005 0.0
H3786 H 0.37574 0.27816 0.42218 0.0
H3787 H 0.35183 0.29032 0.42776 0.0
H3788 H 0.37241 0.30333 0.40939 0.0
H3789 H 0.31619 0.20411 0.3854 0.0
H3790 H 0.29482 0.20701 0.36162 0.0
H3791 H 0.29205 0.21594 0.39094 0.0
C3792 C 0.35979 0.63727 0.54789 0.0
C3793 C 0.35948 0.65582 0.53526 0.0
C3794 C 0.37443 0.62278 0.54357 0.0
C3795 C 0.38918 0.62689 0.52617 0.0
C3796 C 0.38928 0.64577 0.51357 0.0
C3797 C 0.37441 0.66003 0.51827 0.0
C3798 C 0.37387 0.6029 0.55748 0.0
C3799 C 0.40488 0.65074 0.49499 0.0
C3800 C 0.44018 0.5982 0.53078 0.0
C3801 C 0.43097 0.5788 0.51547 0.0
C3802 C 0.42713 0.61441 0.53382 0.0
C3803 C 0.4043 0.61118 0.5212 0.0
C3804 C 0.39526 0.59205 0.50506 0.0
C3805 C 0.40873 0.57609 0.50236 0.0
C3806 C 0.43747 0.63456 0.55116 0.0
C3807 C 0.37098 0.588 0.49129 0.0
H3808 H 0.34837 0.63387 0.56109 0.0
H3809 H 0.37426 0.67431 0.50842 0.0
H3810 H 0.36832 0.58714 0.54578 0.0
H3811 H 0.3918 0.60356 0.56648 0.0
H3812 H 0.36161 0.60222 0.57059 0.0
H3813 H 0.4033 0.66636 0.48712 0.0
H3814 H 0.4236 0.6524 0.50229 0.0
H3815 H 0.40018 0.63663 0.48115 0.0
H3816 H 0.45759 0.60063 0.54057 0.0
H3817 H 0.4015 0.5611 0.49057 0.0
H3818 H 0.42731 0.63358 0.566 0.0
H3819 H 0.43613 0.6502 0.54327 0.0
H3820 H 0.45628 0.63571 0.55785 0.0
H3821 H 0.35745 0.58523 0.50315 0.0
H3822 H 0.36724 0.57321 0.47826 0.0
H3823 H 0.36912 0.60292 0.48227 0.0
C3824 C 0.8843 0.99355 0.55356 0.0
C3825 C 0.87919 0.96993 0.55016 0.0
C3826 C 0.90721 1.00717 0.55184 0.0
C3827 C 0.9261 0.9973 0.54686 0.0
C3828 C 0.92099 0.97351 0.54355 0.0
C3829 C 0.89803 0.96041 0.54508 0.0
C3830 C 0.91121 0.03228 0.55535 0.0
C3831 C 0.94 0.9617 0.53859 0.0
C3832 C 0.98268 0.02974 0.52359 0.0
C3833 C 0.99979 0.03531 0.54351 0.0
C3834 C 0.9588 1.01817 0.52449 0.0
C3835 C 0.95126 1.01143 0.54577 0.0
C3836 C 0.96846 1.01714 0.56589 0.0
C3837 C 0.99206 0.0289 0.56455 0.0
C3838 C 0.9416 1.0129 0.50244 0.0
C3839 C 0.96207 1.01034 0.58901 0.0
H3840 H 0.87034 1.0015 0.55743 0.0
H3841 H 0.89496 0.94234 0.54245 0.0
H3842 H 0.92495 0.03902 0.57044 0.0
H3843 H 0.91781 0.03983 0.54001 0.0
H3844 H 0.89487 0.03765 0.55826 0.0
H3845 H 0.93349 0.94318 0.53636 0.0
H3846 H 0.94706 0.9672 0.52264 0.0
H3847 H 0.95491 0.96621 0.55295 0.0
H3848 H 0.98795 0.03436 0.50713 0.0
H3849 H 1.00468 0.03276 0.58022 0.0
H3850 H 0.92568 0.01923 0.50473 0.0
H3851 H 0.93571 0.99448 0.49823 0.0
H3852 H 0.94942 0.02037 0.48758 0.0
H3853 H 0.94678 1.01688 0.59315 0.0
H3854 H 0.97695 1.01654 0.60324 0.0
H3855 H 0.95671 0.9918 0.58828 0.0
C3856 C 0.86815 0.07316 0.24058 0.0
C3857 C 0.85492 0.06195 0.21986 0.0
C3858 C 0.86126 0.09064 0.25229 0.0
C3859 C 0.84059 0.09697 0.2431 0.0
C3860 C 0.82653 0.08504 0.2228 0.0
C3861 C 0.83392 0.06765 0.21135 0.0
C3862 C 0.87674 0.10302 0.27387 0.0
C3863 C 0.80424 0.09126 0.21266 0.0
C3864 C 0.81623 0.13549 0.28174 0.0
C3865 C 0.82551 0.1564 0.2742 0.0
C3866 C 0.82071 0.11586 0.27158 0.0
C3867 C 0.8349 0.1173 0.2536 0.0
C3868 C 0.84428 0.13835 0.24592 0.0
C3869 C 0.83938 0.15763 0.25624 0.0
C3870 C 0.81039 0.09364 0.28012 0.0
C3871 C 0.85957 0.14054 0.22682 0.0
H3872 H 0.88435 0.06874 0.24736 0.0
H3873 H 0.82356 0.05894 0.19542 0.0
H3874 H 0.88481 0.12039 0.27044 0.0
H3875 H 0.86606 0.10417 0.28809 0.0
H3876 H 0.89112 0.0948 0.2798 0.0
H3877 H 0.79415 0.07899 0.19814 0.0
H3878 H 0.79271 0.09238 0.22615 0.0
H3879 H 0.80879 0.108 0.20616 0.0
H3880 H 0.80563 0.13449 0.29572 0.0
H3881 H 0.84617 0.17368 0.25 0.0
H3882 H 0.8248 0.08599 0.28723 0.0
H3883 H 0.79967 0.08188 0.26553 0.0
H3884 H 0.79911 0.09532 0.29374 0.0
H3885 H 0.87544 0.13405 0.23181 0.0
H3886 H 0.86542 0.15816 0.22284 0.0
H3887 H 0.84974 0.13032 0.21083 0.0
C3888 C 0.73421 0.16743 0.02243 0.0
C3889 C 0.75525 0.16029 0.0268 0.0
C3890 C 0.71218 0.15219 0.02046 0.0
C3891 C 0.71118 0.12926 0.02278 0.0
C3892 C 0.73231 0.12174 0.0258 0.0
C3893 C 0.7541 0.13736 0.02787 0.0
C3894 C 0.69003 0.16088 0.01735 0.0
C3895 C 0.73197 0.0974 0.02817 0.0
C3896 C 0.66018 0.09808 0.05048 0.0
C3897 C 0.64479 0.08583 0.03138 0.0
C3898 C 0.6818 0.11208 0.0478 0.0
C3899 C 0.68841 0.11387 0.02545 0.0
C3900 C 0.67323 0.1013 1.00605 0.0
C3901 C 0.65149 0.0874 1.00924 0.0
C3902 C 0.69743 0.1252 0.06898 0.0
C3903 C 0.67984 0.10273 0.98199 0.0
H3904 H 0.7349 0.18508 0.02141 0.0
H3905 H 0.77025 0.13162 0.03093 0.0
H3906 H 0.67687 0.15039 1.00344 0.0
H3907 H 0.68197 0.15994 0.03356 0.0
H3908 H 0.69363 0.17854 1.01309 0.0
H3909 H 0.74955 0.09379 0.02724 0.0
H3910 H 0.72648 0.0929 0.04506 0.0
H3911 H 0.71894 0.08646 0.01444 0.0
H3912 H 0.65526 0.09696 0.06769 0.0
H3913 H 0.6397 0.07798 0.99441 0.0
H3914 H 0.70043 0.14342 0.06718 0.0
H3915 H 0.71493 0.121 0.07068 0.0
H3916 H 0.68971 0.12179 0.08515 0.0
H3917 H 0.6817 0.12013 0.97724 0.0
H3918 H 0.6665 0.09128 0.96885 0.0
H3919 H 0.69718 0.09853 0.98142 0.0
C3920 C 0.18494 0.42006 0.31361 0.0
C3921 C 0.19183 0.42845 0.29316 0.0
C3922 C 0.20019 0.41099 0.32852 0.0
C3923 C 0.2229 0.41064 0.32292 0.0
C3924 C 0.22986 0.41908 0.30227 0.0
C3925 C 0.21421 0.42774 0.28763 0.0
C3926 C 0.1921 0.40243 0.35045 0.0
C3927 C 0.25396 0.41909 0.29562 0.0
C3928 C 0.27764 0.40843 0.36241 0.0
C3929 C 0.28034 0.38719 0.35488 0.0
C3930 C 0.25733 0.41554 0.35423 0.0
C3931 C 0.23964 0.40114 0.33797 0.0
C3932 C 0.24102 0.37878 0.33254 0.0
C3933 C 0.26132 0.37199 0.34123 0.0
C3934 C 0.25609 0.4393 0.36089 0.0
C3935 C 0.22241 0.36291 0.31534 0.0
H3936 H 0.16772 0.42073 0.3181 0.0
H3937 H 0.21973 0.43427 0.27192 0.0
H3938 H 0.19969 0.38825 0.35554 0.0
H3939 H 0.19799 0.41614 0.36469 0.0
H3940 H 0.17255 0.39701 0.34862 0.0
H3941 H 0.25671 0.42662 0.27915 0.0
H3942 H 0.26792 0.42864 0.30944 0.0
H3943 H 0.25626 0.40169 0.29369 0.0
H3944 H 0.2922 0.42009 0.37318 0.0
H3945 H 0.26324 0.35552 0.33527 0.0
H3946 H 0.23811 0.43983 0.36452 0.0
H3947 H 0.25993 0.44951 0.34628 0.0
H3948 H 0.26904 0.44706 0.37633 0.0
H3949 H 0.20451 0.36322 0.31942 0.0
H3950 H 0.22458 0.34545 0.31504 0.0
H3951 H 0.22358 0.36834 0.29774 0.0
C3952 C 0.24191 0.47272 0.04166 0.0
C3953 C 0.25601 0.47214 0.06289 0.0
C3954 C 0.22177 0.48237 0.04015 0.0
C3955 C 0.21436 0.49135 0.06037 0.0
C3956 C 0.22832 0.49044 0.08187 0.0
C3957 C 0.24881 0.48135 0.08282 0.0
C3958 C 0.2085 0.4832 0.01663 0.0
C3959 C 0.22143 0.4989 0.10418 0.0
C3960 C 0.17438 0.53473 0.05751 0.0
C3961 C 0.15119 0.52156 0.05693 0.0
C3962 C 0.19459 0.52526 0.05815 0.0
C3963 C 0.19241 0.50176 0.05904 0.0
C3964 C 0.16906 0.48841 0.05878 0.0
C3965 C 0.14905 0.49825 0.05737 0.0
C3966 C 0.21846 0.54058 0.05767 0.0
C3967 C 0.16514 0.46354 0.06041 0.0
H3968 H 0.24687 0.46591 0.02596 0.0
H3969 H 0.25903 0.48109 0.09945 0.0
H3970 H 0.19005 0.47329 0.01546 0.0
H3971 H 0.20776 0.50074 0.01403 0.0
H3972 H 0.21676 0.47657 1.00244 0.0
H3973 H 0.23302 0.49605 0.11959 0.0
H3974 H 0.22233 0.5171 0.1044 0.0
H3975 H 0.2029 0.49041 0.10551 0.0
H3976 H 0.1768 0.55267 0.05712 0.0
H3977 H 0.1316 0.48757 0.05716 0.0
H3978 H 0.22676 0.53454 0.04321 0.0
H3979 H 0.23024 0.54037 0.07392 0.0
H3980 H 0.21737 0.55814 0.05561 0.0
H3981 H 0.17094 0.45552 0.04533 0.0
H3982 H 0.14634 0.45543 0.06103 0.0
H3983 H 0.17598 0.46034 0.07616 0.0
C3984 C 0.90089 0.94289 0.20667 0.0
C3985 C 0.88299 0.95461 0.20449 0.0
C3986 C 0.89698 0.92177 0.21505 0.0
C3987 C 0.87488 0.91258 0.22203 0.0
C3988 C 0.85635 0.92381 0.21869 0.0
C3989 C 0.86056 0.94463 0.20962 0.0
C3990 C 0.91689 0.9099 0.21764 0.0
C3991 C 0.83264 0.91466 0.22625 0.0
C3992 C 0.85748 0.85209 0.23499 0.0
C3993 C 0.86343 0.85414 0.2591 0.0
C3994 C 0.86184 0.87089 0.22254 0.0
C3995 C 0.87173 0.89225 0.23462 0.0
C3996 C 0.87806 0.89435 0.25896 0.0
C3997 C 0.87413 0.87515 0.2709 0.0
C3998 C 0.85562 0.86794 0.19654 0.0
C3999 C 0.88832 0.91695 0.27247 0.0
H4000 H 0.91822 0.9506 0.20256 0.0
H4001 H 0.8468 0.95381 0.20815 0.0
H4002 H 0.92381 0.9105 0.23622 0.0
H4003 H 0.91047 0.892 0.2109 0.0
H4004 H 0.93167 0.91769 0.20843 0.0
H4005 H 0.81965 0.92463 0.22097 0.0
H4006 H 0.82536 0.89704 0.21888 0.0
H4007 H 0.8348 0.91477 0.24536 0.0
H4008 H 0.84947 0.83572 0.22584 0.0
H4009 H 0.87863 0.87668 0.28955 0.0
H4010 H 0.87109 0.87588 0.18835 0.0
H4011 H 0.84131 0.87643 0.1913 0.0
H4012 H 0.8497 0.85002 0.18966 0.0
H4013 H 0.90491 0.92525 0.26626 0.0
H4014 H 0.89212 0.91568 0.29133 0.0
H4015 H 0.87581 0.92792 0.26966 0.0
C4016 C 0.67623 0.04716 0.73125 0.0
C4017 C 0.66175 0.03415 0.74507 0.0
C4018 C 0.68297 0.07053 0.73562 0.0
C4019 C 0.67521 0.08116 0.7544 0.0
C4020 C 0.66004 0.06822 0.76803 0.0
C4021 C 0.65338 0.04484 0.76313 0.0
C4022 C 0.69892 0.08381 0.72048 0.0
C4023 C 0.6515 0.079 0.78823 0.0
C4024 C 0.71576 0.13735 0.77733 0.0
C4025 C 0.70429 0.15217 0.7661 0.0
C4026 C 0.70581 0.11423 0.77467 0.0
C4027 C 0.684 0.10571 0.76025 0.0
C4028 C 0.67175 0.12063 0.74981 0.0
C4029 C 0.68199 0.1437 0.75299 0.0
C4030 C 0.71927 0.09882 0.78629 0.0
C4031 C 0.64847 0.11216 0.73429 0.0
H4032 H 0.68259 0.03904 0.71714 0.0
H4033 H 0.6422 0.03489 0.7739 0.0
H4034 H 0.69093 0.09709 0.7134 0.0
H4035 H 0.71608 0.09222 0.73094 0.0
H4036 H 0.70233 0.07311 0.70583 0.0
H4037 H 0.63854 0.06677 0.79614 0.0
H4038 H 0.66674 0.08667 0.80167 0.0
H4039 H 0.64322 0.09264 0.78267 0.0
H4040 H 0.73308 0.14368 0.78732 0.0
H4041 H 0.67279 0.1551 0.74464 0.0
H4042 H 0.72574 0.08894 0.77301 0.0
H4043 H 0.70754 0.08677 0.79553 0.0
H4044 H 0.73467 0.10817 0.79881 0.0
H4045 H 0.65131 0.10306 0.71827 0.0
H4046 H 0.64011 0.12598 0.72938 0.0
H4047 H 0.63604 0.10015 0.74291 0.0
loop_
_geom_bond_atom_site_label_1
_geom_bond_atom_site_label_2
_geom_bond_distance
_geom_bond_site_symmetry_2
_ccdc_geom_bond_type
O0 Cd1 2.223 . S
O0 C8 1.315 . S
Cd1 O0 2.223 . S
Cd1 O4 2.297 . S
Cd1 O5 2.439 . S
Cd1 O11 2.240 . S
Cd2 O3 2.240 . S
Cd2 O10 2.223 . S
Cd2 O12 2.297 . S
Cd2 O13 2.439 . S
O3 Cd2 2.240 . S
O3 C8 1.279 . S
O4 Cd1 2.297 . S
O4 C6 1.247 . S
O5 Cd1 2.439 . S
O5 C6 1.208 . S
C6 O4 1.247 . S
C6 O5 1.208 . S
C7 O12 1.247 . S
C7 O13 1.208 . S
C8 O0 1.315 . S
C8 O3 1.279 . S
C9 O10 1.315 . S
C9 O11 1.279 . S
O10 Cd2 2.223 . S
O10 C9 1.315 . S
O11 Cd1 2.240 . S
O11 C9 1.279 . S
O12 Cd2 2.297 . S
O12 C7 1.247 . S
O13 Cd2 2.439 . S
O13 C7 1.208 . S
O14 Cd15 2.223 . S
O14 C22 1.315 . S
Cd15 O14 2.223 . S
Cd15 O18 2.297 . S
Cd15 O19 2.439 . S
Cd15 O25 2.240 . S
Cd16 O17 2.240 . S
Cd16 O24 2.223 . S
Cd16 O26 2.297 . S
Cd16 O27 2.439 . S
O17 Cd16 2.240 . S
O17 C22 1.279 . S
O18 Cd15 2.297 . S
O18 C20 1.247 1_455 S
O19 Cd15 2.439 . S
O19 C20 1.208 1_455 S
C20 O18 1.247 1_655 S
C20 O19 1.208 1_655 S
C21 O26 1.247 . S
C21 O27 1.208 . S
C22 O14 1.315 . S
C22 O17 1.279 . S
C23 O24 1.315 . S
C23 O25 1.279 . S
O24 Cd16 2.223 . S
O24 C23 1.315 . S
O25 Cd15 2.240 . S
O25 C23 1.279 . S
O26 Cd16 2.297 . S
O26 C21 1.247 . S
O27 Cd16 2.439 . S
O27 C21 1.208 . S
O28 Cd29 2.223 . S
O28 C36 1.315 . S
Cd29 O28 2.223 . S
Cd29 O32 2.297 . S
Cd29 O33 2.439 . S
Cd29 O39 2.240 . S
Cd30 O31 2.240 . S
Cd30 O38 2.223 . S
Cd30 O40 2.297 . S
Cd30 O41 2.439 . S
O31 Cd30 2.240 . S
O31 C36 1.279 . S
O32 Cd29 2.297 . S
O32 C34 1.247 . S
O33 Cd29 2.439 . S
O33 C34 1.208 . S
C34 O32 1.247 . S
C34 O33 1.208 . S
C35 O40 1.247 . S
C35 O41 1.208 . S
C36 O28 1.315 . S
C36 O31 1.279 . S
C37 O38 1.315 . S
C37 O39 1.279 . S
O38 Cd30 2.223 . S
O38 C37 1.315 . S
O39 Cd29 2.240 . S
O39 C37 1.279 . S
O40 Cd30 2.297 . S
O40 C35 1.247 . S
O41 Cd30 2.439 . S
O41 C35 1.208 . S
O42 Cd43 2.223 . S
O42 C50 1.315 . S
Cd43 O42 2.223 . S
Cd43 O46 2.297 . S
Cd43 O47 2.439 . S
Cd43 O53 2.240 . S
Cd44 O45 2.240 . S
Cd44 O52 2.223 . S
Cd44 O54 2.297 . S
Cd44 O55 2.439 . S
O45 Cd44 2.240 . S
O45 C50 1.279 . S
O46 Cd43 2.297 . S
O46 C48 1.247 . S
O47 Cd43 2.439 . S
O47 C48 1.208 . S
C48 O46 1.247 . S
C48 O47 1.208 . S
C49 O54 1.247 . S
C49 O55 1.208 . S
C50 O42 1.315 . S
C50 O45 1.279 . S
C51 O52 1.315 . S
C51 O53 1.279 . S
O52 Cd44 2.223 . S
O52 C51 1.315 . S
O53 Cd43 2.240 . S
O53 C51 1.279 . S
O54 Cd44 2.297 . S
O54 C49 1.247 . S
O55 Cd44 2.439 . S
O55 C49 1.208 . S
O56 Cd57 2.223 . S
O56 C64 1.315 . S
Cd57 O56 2.223 . S
Cd57 O60 2.297 . S
Cd57 O61 2.439 . S
Cd57 O67 2.240 . S
Cd58 O59 2.240 . S
Cd58 O66 2.223 . S
Cd58 O68 2.297 . S
Cd58 O69 2.439 . S
O59 Cd58 2.240 . S
O59 C64 1.279 . S
O60 Cd57 2.297 . S
O60 C62 1.247 . S
O61 Cd57 2.439 . S
O61 C62 1.208 . S
C62 O60 1.247 . S
C62 O61 1.208 . S
C63 O68 1.247 . S
C63 O69 1.208 . S
C64 O56 1.315 . S
C64 O59 1.279 . S
C65 O66 1.315 . S
C65 O67 1.279 . S
O66 Cd58 2.223 . S
O66 C65 1.315 . S
O67 Cd57 2.240 . S
O67 C65 1.279 . S
O68 Cd58 2.297 . S
O68 C63 1.247 . S
O69 Cd58 2.439 . S
O69 C63 1.208 . S
O70 Cd71 2.223 . S
O70 C78 1.315 . S
Cd71 O70 2.223 . S
Cd71 O74 2.297 . S
Cd71 O75 2.439 . S
Cd71 O81 2.240 . S
Cd72 O73 2.240 . S
Cd72 O80 2.223 . S
Cd72 O82 2.297 . S
Cd72 O83 2.439 . S
O73 Cd72 2.240 . S
O73 C78 1.279 . S
O74 Cd71 2.297 . S
O74 C76 1.247 . S
O75 Cd71 2.439 . S
O75 C76 1.208 . S
C76 O74 1.247 . S
C76 O75 1.208 . S
C77 O82 1.247 . S
C77 O83 1.208 . S
C78 O70 1.315 . S
C78 O73 1.279 . S
C79 O80 1.315 . S
C79 O81 1.279 . S
O80 Cd72 2.223 . S
O80 C79 1.315 . S
O81 Cd71 2.240 . S
O81 C79 1.279 . S
O82 Cd72 2.297 . S
O82 C77 1.247 . S
O83 Cd72 2.439 . S
O83 C77 1.208 . S
O84 Cd85 2.223 . S
O84 C92 1.315 . S
Cd85 O84 2.223 . S
Cd85 O88 2.297 . S
Cd85 O89 2.439 . S
Cd85 O95 2.240 . S
Cd86 O87 2.240 . S
Cd86 O94 2.223 . S
Cd86 O96 2.297 . S
Cd86 O97 2.439 . S
O87 Cd86 2.240 . S
O87 C92 1.279 . S
O88 Cd85 2.297 . S
O88 C90 1.247 . S
O89 Cd85 2.439 . S
O89 C90 1.208 . S
C90 O88 1.247 . S
C90 O89 1.208 . S
C91 O96 1.247 . S
C91 O97 1.208 . S
C92 O84 1.315 . S
C92 O87 1.279 . S
C93 O94 1.315 . S
C93 O95 1.279 . S
O94 Cd86 2.223 . S
O94 C93 1.315 . S
O95 Cd85 2.240 . S
O95 C93 1.279 . S
O96 Cd86 2.297 . S
O96 C91 1.247 . S
O97 Cd86 2.439 . S
O97 C91 1.208 . S
O98 Cd99 2.223 1_655 S
O98 C106 1.315 . S
Cd99 O98 2.223 1_455 S
Cd99 O102 2.297 . S
Cd99 O103 2.439 . S
Cd99 O109 2.240 1_455 S
Cd100 O101 2.240 1_655 S
Cd100 O108 2.223 . S
Cd100 O110 2.297 . S
Cd100 O111 2.439 1_655 S
O101 Cd100 2.240 1_455 S
O101 C106 1.279 1_455 S
O102 Cd99 2.297 . S
O102 C104 1.247 . S
O103 Cd99 2.439 . S
O103 C104 1.208 . S
C104 O102 1.247 . S
C104 O103 1.208 . S
C105 O110 1.224 1_455 S
C105 O111 1.233 . S
C106 O98 1.315 . S
C106 O101 1.279 1_655 S
C107 O108 1.315 . S
C107 O109 1.279 . S
O108 Cd100 2.223 . S
O108 C107 1.315 . S
O109 Cd99 2.240 1_655 S
O109 C107 1.279 . S
O110 Cd100 2.297 . S
O110 C105 1.224 1_655 S
O111 Cd100 2.439 1_455 S
O111 C105 1.233 . S
O112 Cd113 2.223 . S
O112 C120 1.315 . S
Cd113 O112 2.223 . S
Cd113 O116 2.297 . S
Cd113 O117 2.439 . S
Cd113 O123 2.240 . S
Cd114 O115 2.240 . S
Cd114 O122 2.223 . S
Cd114 O124 2.297 . S
Cd114 O125 2.439 . S
O115 Cd114 2.240 . S
O115 C120 1.279 . S
O116 Cd113 2.297 . S
O116 C118 1.247 . S
O117 Cd113 2.439 . S
O117 C118 1.208 . S
C118 O116 1.247 . S
C118 O117 1.208 . S
C119 O124 1.247 . S
C119 O125 1.208 . S
C120 O112 1.315 . S
C120 O115 1.279 . S
C121 O122 1.315 . S
C121 O123 1.279 . S
O122 Cd114 2.223 . S
O122 C121 1.315 . S
O123 Cd113 2.240 . S
O123 C121 1.279 . S
O124 Cd114 2.297 . S
O124 C119 1.247 . S
O125 Cd114 2.439 . S
O125 C119 1.208 . S
O126 Cd127 2.223 . S
O126 C134 1.315 . S
Cd127 O126 2.223 . S
Cd127 O130 2.297 . S
Cd127 O131 2.439 . S
Cd127 O137 2.240 . S
Cd128 O129 2.240 . S
Cd128 O136 2.223 . S
Cd128 O138 2.297 . S
Cd128 O139 2.439 . S
O129 Cd128 2.240 . S
O129 C134 1.279 . S
O130 Cd127 2.297 . S
O130 C132 1.247 . S
O131 Cd127 2.439 . S
O131 C132 1.208 . S
C132 O130 1.247 . S
C132 O131 1.208 . S
C133 O138 1.247 . S
C133 O139 1.208 . S
C134 O126 1.315 . S
C134 O129 1.279 . S
C135 O136 1.315 . S
C135 O137 1.279 . S
O136 Cd128 2.223 . S
O136 C135 1.315 . S
O137 Cd127 2.240 . S
O137 C135 1.279 . S
O138 Cd128 2.297 . S
O138 C133 1.247 . S
O139 Cd128 2.439 . S
O139 C133 1.208 . S
O140 Cd141 2.223 . S
O140 C148 1.315 . S
Cd141 O140 2.223 . S
Cd141 O144 2.297 . S
Cd141 O145 2.439 . S
Cd141 O151 2.240 . S
Cd142 O143 2.240 . S
Cd142 O150 2.223 . S
Cd142 O152 2.297 . S
Cd142 O153 2.439 . S
O143 Cd142 2.240 . S
O143 C148 1.279 . S
O144 Cd141 2.297 . S
O144 C146 1.247 . S
O145 Cd141 2.439 . S
O145 C146 1.208 . S
C146 O144 1.247 . S
C146 O145 1.208 . S
C147 O152 1.247 . S
C147 O153 1.208 . S
C148 O140 1.315 . S
C148 O143 1.279 . S
C149 O150 1.315 . S
C149 O151 1.279 . S
O150 Cd142 2.223 . S
O150 C149 1.315 . S
O151 Cd141 2.240 . S
O151 C149 1.279 . S
O152 Cd142 2.297 . S
O152 C147 1.247 . S
O153 Cd142 2.439 . S
O153 C147 1.208 . S
O154 Cd155 2.223 . S
O154 C162 1.315 . S
Cd155 O154 2.223 . S
Cd155 O158 2.297 . S
Cd155 O159 2.439 . S
Cd155 O165 2.240 . S
Cd156 O157 2.240 . S
Cd156 O164 2.223 . S
Cd156 O166 2.250 1_554 S
Cd156 O167 2.452 . S
O157 Cd156 2.240 . S
O157 C162 1.279 . S
O158 Cd155 2.297 . S
O158 C160 1.247 . S
O159 Cd155 2.439 . S
O159 C160 1.208 . S
C160 O158 1.247 . S
C160 O159 1.208 . S
C161 O166 1.267 . S
C161 O167 1.199 1_556 S
C162 O154 1.315 . S
C162 O157 1.279 . S
C163 O164 1.315 . S
C163 O165 1.279 . S
O164 Cd156 2.223 . S
O164 C163 1.315 . S
O165 Cd155 2.240 . S
O165 C163 1.279 . S
O166 Cd156 2.250 1_556 S
O166 C161 1.267 . S
O167 Cd156 2.452 . S
O167 C161 1.199 1_554 S
O168 Cd169 2.223 . S
O168 C176 1.315 . S
Cd169 O168 2.223 . S
Cd169 O172 2.297 . S
Cd169 O173 2.439 . S
Cd169 O179 2.240 . S
Cd170 O171 2.240 . S
Cd170 O178 2.223 . S
Cd170 O180 2.297 1_554 S
Cd170 O181 2.439 1_554 S
O171 Cd170 2.240 . S
O171 C176 1.279 . S
O172 Cd169 2.297 . S
O172 C174 1.247 . S
O173 Cd169 2.439 . S
O173 C174 1.208 . S
C174 O172 1.247 . S
C174 O173 1.208 . S
C175 O180 1.247 . S
C175 O181 1.208 . S
C176 O168 1.315 . S
C176 O171 1.279 . S
C177 O178 1.315 . S
C177 O179 1.279 . S
O178 Cd170 2.223 . S
O178 C177 1.315 . S
O179 Cd169 2.240 . S
O179 C177 1.279 . S
O180 Cd170 2.297 1_556 S
O180 C175 1.247 . S
O181 Cd170 2.439 1_556 S
O181 C175 1.208 . S
O182 Cd183 2.223 . S
O182 C190 1.315 . S
Cd183 O182 2.223 . S
Cd183 O186 2.297 . S
Cd183 O187 2.439 1_554 S
Cd183 O193 2.240 1_554 S
Cd184 O185 2.240 1_556 S
Cd184 O192 2.206 1_556 S
Cd184 O194 2.297 . S
Cd184 O195 2.439 . S
O185 Cd184 2.240 1_554 S
O185 C190 1.279 . S
O186 Cd183 2.297 . S
O186 C188 1.247 . S
O187 Cd183 2.439 1_556 S
O187 C188 1.208 1_556 S
C188 O186 1.247 . S
C188 O187 1.208 1_554 S
C189 O194 1.247 . S
C189 O195 1.208 . S
C190 O182 1.315 . S
C190 O185 1.279 . S
C191 O192 1.313 1_556 S
C191 O193 1.279 . S
O192 Cd184 2.206 1_554 S
O192 C191 1.313 1_554 S
O193 Cd183 2.240 1_556 S
O193 C191 1.279 . S
O194 Cd184 2.297 . S
O194 C189 1.247 . S
O195 Cd184 2.439 . S
O195 C189 1.208 . S
O196 Cd197 2.223 . S
O196 C204 1.315 . S
Cd197 O196 2.223 . S
Cd197 O200 2.297 . S
Cd197 O201 2.439 . S
Cd197 O207 2.240 . S
Cd198 O199 2.240 . S
Cd198 O206 2.223 . S
Cd198 O208 2.297 . S
Cd198 O209 2.439 . S
O199 Cd198 2.240 . S
O199 C204 1.279 . S
O200 Cd197 2.297 . S
O200 C202 1.247 . S
O201 Cd197 2.439 . S
O201 C202 1.208 . S
C202 O200 1.247 . S
C202 O201 1.208 . S
C203 O208 1.247 . S
C203 O209 1.208 . S
C204 O196 1.315 . S
C204 O199 1.279 . S
C205 O206 1.315 . S
C205 O207 1.279 . S
O206 Cd198 2.223 . S
O206 C205 1.315 . S
O207 Cd197 2.240 . S
O207 C205 1.279 . S
O208 Cd198 2.297 . S
O208 C203 1.247 . S
O209 Cd198 2.439 . S
O209 C203 1.208 . S
O210 Cd211 2.223 . S
O210 C218 1.315 . S
Cd211 O210 2.223 . S
Cd211 O214 2.297 . S
Cd211 O215 2.439 . S
Cd211 O221 2.240 . S
Cd212 O213 2.240 . S
Cd212 O220 2.223 . S
Cd212 O222 2.297 . S
Cd212 O223 2.439 . S
O213 Cd212 2.240 . S
O213 C218 1.279 . S
O214 Cd211 2.297 . S
O214 C216 1.247 . S
O215 Cd211 2.439 . S
O215 C216 1.208 . S
C216 O214 1.247 . S
C216 O215 1.208 . S
C217 O222 1.247 . S
C217 O223 1.208 . S
C218 O210 1.315 . S
C218 O213 1.279 . S
C219 O220 1.315 . S
C219 O221 1.279 . S
O220 Cd212 2.223 . S
O220 C219 1.315 . S
O221 Cd211 2.240 . S
O221 C219 1.279 . S
O222 Cd212 2.297 . S
O222 C217 1.247 . S
O223 Cd212 2.439 . S
O223 C217 1.208 . S
O224 Cd225 2.216 1_565 S
O224 C232 1.315 . S
Cd225 O224 2.216 1_545 S
Cd225 O228 2.323 . S
Cd225 O229 2.460 . S
Cd225 O235 2.218 1_545 S
Cd226 O227 2.240 1_565 S
Cd226 O234 2.223 . S
Cd226 O236 2.297 . S
Cd226 O237 2.439 1_565 S
O227 Cd226 2.240 1_545 S
O227 C232 1.279 1_545 S
O228 Cd225 2.323 . S
O228 C230 1.247 . S
O229 Cd225 2.460 . S
O229 C230 1.208 . S
C230 O228 1.247 . S
C230 O229 1.208 . S
C231 O236 1.247 . S
C231 O237 1.208 1_565 S
C232 O224 1.315 . S
C232 O227 1.279 1_565 S
C233 O234 1.315 . S
C233 O235 1.279 . S
O234 Cd226 2.223 . S
O234 C233 1.315 . S
O235 Cd225 2.218 1_565 S
O235 C233 1.279 . S
O236 Cd226 2.297 . S
O236 C231 1.247 . S
O237 Cd226 2.439 1_545 S
O237 C231 1.208 1_545 S
O238 Cd239 2.223 . S
O238 C246 1.315 . S
Cd239 O238 2.223 . S
Cd239 O242 2.297 . S
Cd239 O243 2.439 . S
Cd239 O249 2.240 . S
Cd240 O241 2.240 . S
Cd240 O248 2.223 . S
Cd240 O250 2.297 . S
Cd240 O251 2.439 . S
O241 Cd240 2.240 . S
O241 C246 1.279 . S
O242 Cd239 2.297 . S
O242 C244 1.247 . S
O243 Cd239 2.439 . S
O243 C244 1.208 . S
C244 O242 1.247 . S
C244 O243 1.208 . S
C245 O250 1.247 . S
C245 O251 1.208 . S
C246 O238 1.315 . S
C246 O241 1.279 . S
C247 O248 1.315 . S
C247 O249 1.279 . S
O248 Cd240 2.223 . S
O248 C247 1.315 . S
O249 Cd239 2.240 . S
O249 C247 1.279 . S
O250 Cd240 2.297 . S
O250 C245 1.247 . S
O251 Cd240 2.439 . S
O251 C245 1.208 . S
O252 Cd253 2.223 . S
O252 C260 1.315 . S
Cd253 O252 2.223 . S
Cd253 O256 2.297 . S
Cd253 O257 2.439 . S
Cd253 O263 2.240 . S
Cd254 O255 2.240 . S
Cd254 O262 2.223 . S
Cd254 O264 2.297 . S
Cd254 O265 2.439 . S
O255 Cd254 2.240 . S
O255 C260 1.279 . S
O256 Cd253 2.297 . S
O256 C258 1.247 . S
O257 Cd253 2.439 . S
O257 C258 1.208 . S
C258 O256 1.247 . S
C258 O257 1.208 . S
C259 O264 1.247 . S
C259 O265 1.208 . S
C260 O252 1.315 . S
C260 O255 1.279 . S
C261 O262 1.315 . S
C261 O263 1.279 . S
O262 Cd254 2.223 . S
O262 C261 1.315 . S
O263 Cd253 2.240 . S
O263 C261 1.279 . S
O264 Cd254 2.297 . S
O264 C259 1.247 . S
O265 Cd254 2.439 . S
O265 C259 1.208 . S
O266 Cd267 2.229 . S
O266 C274 1.316 . S
Cd267 O266 2.229 . S
Cd267 O270 2.283 1_545 S
Cd267 O271 2.426 1_545 S
Cd267 O277 2.252 . S
Cd268 O269 2.240 1_545 S
Cd268 O276 2.223 . S
Cd268 O278 2.297 . S
Cd268 O279 2.439 1_545 S
O269 Cd268 2.240 1_565 S
O269 C274 1.270 1_565 S
O270 Cd267 2.283 1_565 S
O270 C272 1.247 . S
O271 Cd267 2.426 1_565 S
O271 C272 1.208 . S
C272 O270 1.247 . S
C272 O271 1.208 . S
C273 O278 1.247 . S
C273 O279 1.208 1_545 S
C274 O266 1.316 . S
C274 O269 1.270 1_545 S
C275 O276 1.315 . S
C275 O277 1.279 . S
O276 Cd268 2.223 . S
O276 C275 1.315 . S
O277 Cd267 2.252 . S
O277 C275 1.279 . S
O278 Cd268 2.297 . S
O278 C273 1.247 . S
O279 Cd268 2.439 1_565 S
O279 C273 1.208 1_565 S
O280 Cd281 2.223 . S
O280 C288 1.315 . S
Cd281 O280 2.223 . S
Cd281 O284 2.297 . S
Cd281 O285 2.439 . S
Cd281 O291 2.240 . S
Cd282 O283 2.240 . S
Cd282 O290 2.223 . S
Cd282 O292 2.297 1_554 S
Cd282 O293 2.439 1_554 S
O283 Cd282 2.240 . S
O283 C288 1.279 . S
O284 Cd281 2.297 . S
O284 C286 1.247 . S
O285 Cd281 2.439 . S
O285 C286 1.208 . S
C286 O284 1.247 . S
C286 O285 1.208 . S
C287 O292 1.247 . S
C287 O293 1.208 . S
C288 O280 1.315 . S
C288 O283 1.279 . S
C289 O290 1.315 . S
C289 O291 1.279 . S
O290 Cd282 2.223 . S
O290 C289 1.315 . S
O291 Cd281 2.240 . S
O291 C289 1.279 . S
O292 Cd282 2.297 1_556 S
O292 C287 1.247 . S
O293 Cd282 2.439 1_556 S
O293 C287 1.208 . S
O294 Cd295 2.223 . S
O294 C302 1.352 . S
Cd295 O294 2.223 . S
Cd295 O298 2.297 . S
Cd295 O299 2.439 . S
Cd295 O305 2.240 . S
Cd296 O297 2.240 . S
Cd296 O304 2.223 . S
Cd296 O306 2.297 . S
Cd296 O307 2.439 . S
O297 Cd296 2.240 . S
O297 C302 1.272 1_455 S
O298 Cd295 2.297 . S
O298 C300 1.247 . S
O299 Cd295 2.439 . S
O299 C300 1.208 . S
C300 O298 1.247 . S
C300 O299 1.208 . S
C301 O306 1.247 . S
C301 O307 1.208 . S
C302 O294 1.352 . S
C302 O297 1.272 1_655 S
C303 O304 1.315 1_655 S
C303 O305 1.279 . S
O304 Cd296 2.223 . S
O304 C303 1.315 1_455 S
O305 Cd295 2.240 . S
O305 C303 1.279 . S
O306 Cd296 2.297 . S
O306 C301 1.247 . S
O307 Cd296 2.439 . S
O307 C301 1.208 . S
O308 Cd309 2.223 . S
O308 C316 1.315 . S
Cd309 O308 2.223 . S
Cd309 O312 2.297 . S
Cd309 O313 2.439 . S
Cd309 O319 2.240 . S
Cd310 O311 2.240 . S
Cd310 O318 2.223 . S
Cd310 O320 2.297 . S
Cd310 O321 2.439 . S
O311 Cd310 2.240 . S
O311 C316 1.279 . S
O312 Cd309 2.297 . S
O312 C314 1.247 . S
O313 Cd309 2.439 . S
O313 C314 1.208 . S
C314 O312 1.247 . S
C314 O313 1.208 . S
C315 O320 1.247 . S
C315 O321 1.208 . S
C316 O308 1.315 . S
C316 O311 1.279 . S
C317 O318 1.315 . S
C317 O319 1.279 . S
O318 Cd310 2.223 . S
O318 C317 1.315 . S
O319 Cd309 2.240 . S
O319 C317 1.279 . S
O320 Cd310 2.297 . S
O320 C315 1.247 . S
O321 Cd310 2.439 . S
O321 C315 1.208 . S
O322 Cd323 2.223 . S
O322 C330 1.315 . S
Cd323 O322 2.223 . S
Cd323 O326 2.297 . S
Cd323 O327 2.439 . S
Cd323 O333 2.240 . S
Cd324 O325 2.240 . S
Cd324 O332 2.223 . S
Cd324 O334 2.297 . S
Cd324 O335 2.439 . S
O325 Cd324 2.240 . S
O325 C330 1.279 . S
O326 Cd323 2.297 . S
O326 C328 1.247 . S
O327 Cd323 2.439 . S
O327 C328 1.208 . S
C328 O326 1.247 . S
C328 O327 1.208 . S
C329 O334 1.247 . S
C329 O335 1.208 . S
C330 O322 1.315 . S
C330 O325 1.279 . S
C331 O332 1.315 . S
C331 O333 1.279 . S
O332 Cd324 2.223 . S
O332 C331 1.315 . S
O333 Cd323 2.240 . S
O333 C331 1.279 . S
O334 Cd324 2.297 . S
O334 C329 1.247 . S
O335 Cd324 2.439 . S
O335 C329 1.208 . S
Tb336 C346 2.825 1_455 S
Tb336 O347 2.347 . S
Tb336 O350 2.366 . S
Tb336 O355 2.418 1_554 S
Tb336 O356 2.384 . S
Tb336 O359 2.479 1_454 S
Tb336 O360 2.471 1_455 S
Eu337 O348 2.418 . S
Eu337 O349 2.384 . S
Eu337 O352 2.479 . S
Eu337 O353 2.471 . S
Eu337 O354 2.347 . S
Eu337 O357 2.366 . S
Eu337 C367 2.825 . S
C338 O354 1.227 1_556 S
C338 O355 1.274 . S
C339 O356 1.255 . S
C339 O357 1.265 . S
C340 C342 1.423 . S
C340 C343 1.341 1_556 S
C340 C346 1.496 1_556 S
C341 C342 1.384 . S
C341 C345 1.387 . S
C341 H368 0.930 . S
C342 C340 1.423 . S
C342 C341 1.384 . S
C342 H369 0.931 . S
C343 C340 1.341 1_554 S
C343 C344 1.390 . S
C343 H370 0.930 . S
C344 C343 1.390 . S
C344 C345 1.391 1_554 S
C344 H371 0.930 . S
C345 C341 1.387 . S
C345 C344 1.391 1_556 S
C346 Tb336 2.825 1_655 S
C346 C340 1.496 1_554 S
C346 O359 1.238 1_554 S
C346 O360 1.247 . S
O347 Tb336 2.347 . S
O347 C351 1.259 . S
O348 Eu337 2.418 . S
O348 C351 1.265 . S
O349 Eu337 2.384 . S
O349 C358 1.255 . S
O350 Tb336 2.366 . S
O350 C358 1.265 . S
C351 O347 1.259 . S
C351 O348 1.265 . S
O352 Eu337 2.479 . S
O352 C367 1.238 . S
O353 Eu337 2.471 . S
O353 C367 1.247 . S
O354 Eu337 2.347 . S
O354 C338 1.227 1_554 S
O355 Tb336 2.418 1_556 S
O355 C338 1.274 . S
O356 Tb336 2.384 . S
O356 C339 1.255 . S
O357 Eu337 2.366 . S
O357 C339 1.265 . S
C358 O349 1.255 . S
C358 O350 1.265 . S
O359 Tb336 2.479 1_656 S
O359 C346 1.238 1_556 S
O360 Tb336 2.471 1_655 S
O360 C346 1.247 . S
C361 C364 1.380 . S
C361 C365 1.374 . S
C361 C367 1.507 . S
C362 C363 1.387 . S
C362 C366 1.391 . S
C363 C362 1.387 . S
C363 C364 1.384 . S
C363 H372 0.930 . S
C364 C361 1.380 . S
C364 C363 1.384 . S
C364 H373 0.931 . S
C365 C361 1.374 . S
C365 C366 1.390 . S
C365 H374 0.930 . S
C366 C362 1.391 . S
C366 C365 1.390 . S
C366 H375 0.930 . S
C367 Eu337 2.825 . S
C367 O352 1.238 . S
C367 O353 1.247 . S
C367 C361 1.507 . S
H368 C341 0.930 . S
H369 C342 0.931 . S
H370 C343 0.930 . S
H371 C344 0.930 . S
H372 C363 0.930 . S
H373 C364 0.931 . S
H374 C365 0.930 . S
H375 C366 0.930 . S
Tb376 C386 2.825 . S
Tb376 O387 2.347 . S
Tb376 O390 2.366 . S
Tb376 O395 2.418 . S
Tb376 O396 2.384 . S
Tb376 O399 2.479 . S
Tb376 O400 2.471 . S
Eu377 O388 2.418 . S
Eu377 O389 2.384 . S
Eu377 O392 2.479 . S
Eu377 O393 2.471 . S
Eu377 O394 2.347 . S
Eu377 O397 2.366 . S
Eu377 C407 2.825 . S
C378 O394 1.259 . S
C378 O395 1.265 . S
C379 O396 1.255 . S
C379 O397 1.265 . S
C380 C382 1.380 . S
C380 C383 1.374 . S
C380 C386 1.507 . S
C381 C382 1.384 . S
C381 C385 1.387 . S
C381 H408 0.930 . S
C382 C380 1.380 . S
C382 C381 1.384 . S
C382 H409 0.931 . S
C383 C380 1.374 . S
C383 C384 1.390 . S
C383 H410 0.930 . S
C384 C383 1.390 . S
C384 C385 1.391 . S
C384 H411 0.930 . S
C385 C381 1.387 . S
C385 C384 1.391 . S
C386 Tb376 2.825 . S
C386 C380 1.507 . S
C386 O399 1.238 . S
C386 O400 1.247 . S
O387 Tb376 2.347 . S
O387 C391 1.259 . S
O388 Eu377 2.418 . S
O388 C391 1.265 . S
O389 Eu377 2.384 . S
O389 C398 1.255 . S
O390 Tb376 2.366 . S
O390 C398 1.265 . S
C391 O387 1.259 . S
C391 O388 1.265 . S
O392 Eu377 2.479 . S
O392 C407 1.238 . S
O393 Eu377 2.471 . S
O393 C407 1.247 . S
O394 Eu377 2.347 . S
O394 C378 1.259 . S
O395 Tb376 2.418 . S
O395 C378 1.265 . S
O396 Tb376 2.384 . S
O396 C379 1.255 . S
O397 Eu377 2.366 . S
O397 C379 1.265 . S
C398 O389 1.255 . S
C398 O390 1.265 . S
O399 Tb376 2.479 . S
O399 C386 1.238 . S
O400 Tb376 2.471 . S
O400 C386 1.247 . S
C401 C404 1.380 . S
C401 C405 1.374 . S
C401 C407 1.507 . S
C402 C403 1.387 . S
C402 C406 1.391 . S
C403 C402 1.387 . S
C403 C404 1.384 . S
C403 H412 0.930 . S
C404 C401 1.380 . S
C404 C403 1.384 . S
C404 H413 0.931 . S
C405 C401 1.374 . S
C405 C406 1.390 . S
C405 H414 0.930 . S
C406 C402 1.391 . S
C406 C405 1.390 . S
C406 H415 0.930 . S
C407 Eu377 2.825 . S
C407 O392 1.238 . S
C407 O393 1.247 . S
C407 C401 1.507 . S
H408 C381 0.930 . S
H409 C382 0.931 . S
H410 C383 0.930 . S
H411 C384 0.930 . S
H412 C403 0.930 . S
H413 C404 0.931 . S
H414 C405 0.930 . S
H415 C406 0.930 . S
Tb416 C426 2.825 1_545 S
Tb416 O427 2.347 . S
Tb416 O430 2.366 . S
Tb416 O435 2.418 . S
Tb416 O436 2.384 . S
Tb416 O439 2.479 1_545 S
Tb416 O440 2.471 1_545 S
Eu417 O428 2.418 . S
Eu417 O429 2.384 . S
Eu417 O432 2.479 . S
Eu417 O433 2.471 . S
Eu417 O434 2.347 . S
Eu417 O437 2.366 . S
Eu417 C447 2.825 . S
C418 O434 1.259 . S
C418 O435 1.265 . S
C419 O436 1.255 . S
C419 O437 1.265 . S
C420 C422 1.380 . S
C420 C423 1.374 . S
C420 C426 1.507 . S
C421 C422 1.384 . S
C421 C425 1.387 . S
C421 H448 0.930 . S
C422 C420 1.380 . S
C422 C421 1.384 . S
C422 H449 0.931 . S
C423 C420 1.374 . S
C423 C424 1.390 . S
C423 H450 0.930 . S
C424 C423 1.390 . S
C424 C425 1.391 . S
C424 H451 0.930 . S
C425 C421 1.387 . S
C425 C424 1.391 . S
C426 Tb416 2.825 1_565 S
C426 C420 1.507 . S
C426 O439 1.238 . S
C426 O440 1.247 . S
O427 Tb416 2.347 . S
O427 C431 1.259 . S
O428 Eu417 2.418 . S
O428 C431 1.265 . S
O429 Eu417 2.384 . S
O429 C438 1.255 . S
O430 Tb416 2.366 . S
O430 C438 1.265 . S
C431 O427 1.259 . S
C431 O428 1.265 . S
O432 Eu417 2.479 . S
O432 C447 1.238 . S
O433 Eu417 2.471 . S
O433 C447 1.247 . S
O434 Eu417 2.347 . S
O434 C418 1.259 . S
O435 Tb416 2.418 . S
O435 C418 1.265 . S
O436 Tb416 2.384 . S
O436 C419 1.255 . S
O437 Eu417 2.366 . S
O437 C419 1.265 . S
C438 O429 1.255 . S
C438 O430 1.265 . S
O439 Tb416 2.479 1_565 S
O439 C426 1.238 . S
O440 Tb416 2.471 1_565 S
O440 C426 1.247 . S
C441 C444 1.380 . S
C441 C445 1.374 . S
C441 C447 1.507 . S
C442 C443 1.387 . S
C442 C446 1.391 . S
C443 C442 1.387 . S
C443 C444 1.384 . S
C443 H452 0.930 . S
C444 C441 1.380 . S
C444 C443 1.384 . S
C444 H453 0.931 . S
C445 C441 1.374 . S
C445 C446 1.390 . S
C445 H454 0.930 . S
C446 C442 1.391 . S
C446 C445 1.390 . S
C446 H455 0.930 . S
C447 Eu417 2.825 . S
C447 O432 1.238 . S
C447 O433 1.247 . S
C447 C441 1.507 . S
H448 C421 0.930 . S
H449 C422 0.931 . S
H450 C423 0.930 . S
H451 C424 0.930 . S
H452 C443 0.930 . S
H453 C444 0.931 . S
H454 C445 0.930 . S
H455 C446 0.930 . S
Tb456 C466 2.825 . S
Tb456 O467 2.347 . S
Tb456 O470 2.366 . S
Tb456 O475 2.418 . S
Tb456 O476 2.384 . S
Tb456 O479 2.479 . S
Tb456 O480 2.471 . S
Eu457 O468 2.418 . S
Eu457 O469 2.384 . S
Eu457 O472 2.479 . S
Eu457 O473 2.471 . S
Eu457 O474 2.347 . S
Eu457 O477 2.366 . S
Eu457 C487 2.825 . S
C458 O474 1.259 . S
C458 O475 1.265 . S
C459 O476 1.255 . S
C459 O477 1.265 . S
C460 C462 1.380 . S
C460 C463 1.374 . S
C460 C466 1.507 . S
C461 C462 1.384 . S
C461 C465 1.387 . S
C461 H488 0.930 . S
C462 C460 1.380 . S
C462 C461 1.384 . S
C462 H489 0.931 . S
C463 C460 1.374 . S
C463 C464 1.390 . S
C463 H490 0.930 . S
C464 C463 1.390 . S
C464 C465 1.391 . S
C464 H491 0.930 . S
C465 C461 1.387 . S
C465 C464 1.391 . S
C466 Tb456 2.825 . S
C466 C460 1.507 . S
C466 O479 1.238 . S
C466 O480 1.247 . S
O467 Tb456 2.347 . S
O467 C471 1.259 . S
O468 Eu457 2.418 . S
O468 C471 1.265 . S
O469 Eu457 2.384 . S
O469 C478 1.255 . S
O470 Tb456 2.366 . S
O470 C478 1.265 . S
C471 O467 1.259 . S
C471 O468 1.265 . S
O472 Eu457 2.479 . S
O472 C487 1.238 . S
O473 Eu457 2.471 . S
O473 C487 1.247 . S
O474 Eu457 2.347 . S
O474 C458 1.259 . S
O475 Tb456 2.418 . S
O475 C458 1.265 . S
O476 Tb456 2.384 . S
O476 C459 1.255 . S
O477 Eu457 2.366 . S
O477 C459 1.265 . S
C478 O469 1.255 . S
C478 O470 1.265 . S
O479 Tb456 2.479 . S
O479 C466 1.238 . S
O480 Tb456 2.471 . S
O480 C466 1.247 . S
C481 C484 1.380 . S
C481 C485 1.374 . S
C481 C487 1.507 . S
C482 C483 1.387 . S
C482 C486 1.391 . S
C483 C482 1.387 . S
C483 C484 1.384 . S
C483 H492 0.930 . S
C484 C481 1.380 . S
C484 C483 1.384 . S
C484 H493 0.931 . S
C485 C481 1.374 . S
C485 C486 1.390 . S
C485 H494 0.930 . S
C486 C482 1.391 . S
C486 C485 1.390 . S
C486 H495 0.930 . S
C487 Eu457 2.825 . S
C487 O472 1.238 . S
C487 O473 1.247 . S
C487 C481 1.507 . S
H488 C461 0.930 . S
H489 C462 0.931 . S
H490 C463 0.930 . S
H491 C464 0.930 . S
H492 C483 0.930 . S
H493 C484 0.931 . S
H494 C485 0.930 . S
H495 C486 0.930 . S
Tb496 C506 2.825 . S
Tb496 O507 2.347 . S
Tb496 O510 2.366 . S
Tb496 O515 2.418 . S
Tb496 O516 2.384 1_545 S
Tb496 O519 2.479 . S
Tb496 O520 2.471 . S
Eu497 O508 2.418 . S
Eu497 O509 2.384 . S
Eu497 O512 2.479 . S
Eu497 O513 2.471 . S
Eu497 O514 2.347 . S
Eu497 O517 2.366 . S
Eu497 C527 2.825 . S
C498 O514 1.259 . S
C498 O515 1.265 . S
C499 O516 1.255 . S
C499 O517 1.265 1_565 S
C500 C502 1.380 . S
C500 C503 1.374 . S
C500 C506 1.507 . S
C501 C502 1.384 . S
C501 C505 1.387 . S
C501 H528 0.930 . S
C502 C500 1.380 . S
C502 C501 1.384 . S
C502 H529 0.931 . S
C503 C500 1.374 . S
C503 C504 1.390 1_455 S
C503 H530 0.930 1_455 S
C504 C503 1.390 1_655 S
C504 C505 1.391 1_655 S
C504 H531 0.930 . S
C505 C501 1.387 . S
C505 C504 1.391 1_455 S
C506 Tb496 2.825 . S
C506 C500 1.507 . S
C506 O519 1.238 . S
C506 O520 1.247 . S
O507 Tb496 2.347 . S
O507 C511 1.259 . S
O508 Eu497 2.418 . S
O508 C511 1.265 . S
O509 Eu497 2.384 . S
O509 C518 1.255 . S
O510 Tb496 2.366 . S
O510 C518 1.265 . S
C511 O507 1.259 . S
C511 O508 1.265 . S
O512 Eu497 2.479 . S
O512 C527 1.238 . S
O513 Eu497 2.471 . S
O513 C527 1.247 . S
O514 Eu497 2.347 . S
O514 C498 1.259 . S
O515 Tb496 2.418 . S
O515 C498 1.265 . S
O516 Tb496 2.384 1_565 S
O516 C499 1.255 . S
O517 Eu497 2.366 . S
O517 C499 1.265 1_545 S
C518 O509 1.255 . S
C518 O510 1.265 . S
O519 Tb496 2.479 . S
O519 C506 1.238 . S
O520 Tb496 2.471 . S
O520 C506 1.247 . S
C521 C524 1.380 . S
C521 C525 1.374 . S
C521 C527 1.507 . S
C522 C523 1.387 . S
C522 C526 1.391 . S
C523 C522 1.387 . S
C523 C524 1.384 . S
C523 H532 0.930 . S
C524 C521 1.380 . S
C524 C523 1.384 . S
C524 H533 0.931 . S
C525 C521 1.374 . S
C525 C526 1.390 . S
C525 H534 0.930 . S
C526 C522 1.391 . S
C526 C525 1.390 . S
C526 H535 0.930 . S
C527 Eu497 2.825 . S
C527 O512 1.238 . S
C527 O513 1.247 . S
C527 C521 1.507 . S
H528 C501 0.930 . S
H529 C502 0.931 . S
H530 C503 0.930 1_655 S
H531 C504 0.930 . S
H532 C523 0.930 . S
H533 C524 0.931 . S
H534 C525 0.930 . S
H535 C526 0.930 . S
Tb536 C546 2.825 . S
Tb536 O547 2.347 . S
Tb536 O550 2.366 . S
Tb536 O555 2.418 . S
Tb536 O556 2.384 . S
Tb536 O559 2.479 . S
Tb536 O560 2.471 . S
Eu537 O548 2.418 . S
Eu537 O549 2.384 . S
Eu537 O552 2.479 . S
Eu537 O553 2.471 . S
Eu537 O554 2.347 . S
Eu537 O557 2.366 . S
Eu537 C567 2.825 . S
C538 O554 1.259 . S
C538 O555 1.265 . S
C539 O556 1.255 . S
C539 O557 1.265 . S
C540 C542 1.380 . S
C540 C543 1.374 . S
C540 C546 1.507 . S
C541 C542 1.384 . S
C541 C545 1.387 . S
C541 H568 0.930 . S
C542 C540 1.380 . S
C542 C541 1.384 . S
C542 H569 0.931 . S
C543 C540 1.374 . S
C543 C544 1.390 . S
C543 H570 0.930 . S
C544 C543 1.390 . S
C544 C545 1.391 . S
C544 H571 0.930 . S
C545 C541 1.387 . S
C545 C544 1.391 . S
C546 Tb536 2.825 . S
C546 C540 1.507 . S
C546 O559 1.238 . S
C546 O560 1.247 . S
O547 Tb536 2.347 . S
O547 C551 1.259 . S
O548 Eu537 2.418 . S
O548 C551 1.265 . S
O549 Eu537 2.384 . S
O549 C558 1.255 . S
O550 Tb536 2.366 . S
O550 C558 1.265 . S
C551 O547 1.259 . S
C551 O548 1.265 . S
O552 Eu537 2.479 . S
O552 C567 1.238 . S
O553 Eu537 2.471 . S
O553 C567 1.247 . S
O554 Eu537 2.347 . S
O554 C538 1.259 . S
O555 Tb536 2.418 . S
O555 C538 1.265 . S
O556 Tb536 2.384 . S
O556 C539 1.255 . S
O557 Eu537 2.366 . S
O557 C539 1.265 . S
C558 O549 1.255 . S
C558 O550 1.265 . S
O559 Tb536 2.479 . S
O559 C546 1.238 . S
O560 Tb536 2.471 . S
O560 C546 1.247 . S
C561 C564 1.380 . S
C561 C565 1.374 . S
C561 C567 1.507 . S
C562 C563 1.387 . S
C562 C566 1.391 . S
C563 C562 1.387 . S
C563 C564 1.384 . S
C563 H572 0.930 . S
C564 C561 1.380 . S
C564 C563 1.384 . S
C564 H573 0.931 . S
C565 C561 1.374 . S
C565 C566 1.390 . S
C565 H574 0.930 . S
C566 C562 1.391 . S
C566 C565 1.390 . S
C566 H575 0.930 . S
C567 Eu537 2.825 . S
C567 O552 1.238 . S
C567 O553 1.247 . S
C567 C561 1.507 . S
H568 C541 0.930 . S
H569 C542 0.931 . S
H570 C543 0.930 . S
H571 C544 0.930 . S
H572 C563 0.930 . S
H573 C564 0.931 . S
H574 C565 0.930 . S
H575 C566 0.930 . S
Tb576 C586 2.825 . S
Tb576 O587 2.347 . S
Tb576 O590 2.366 . S
Tb576 O595 2.418 1_545 S
Tb576 O596 2.384 . S
Tb576 O599 2.479 . S
Tb576 O600 2.471 . S
Eu577 O588 2.433 . S
Eu577 O589 2.412 . S
Eu577 O592 2.443 1_554 S
Eu577 O593 2.437 1_554 S
Eu577 O594 2.365 . S
Eu577 O597 2.369 . S
Eu577 C607 2.786 1_554 S
C578 O594 1.259 1_565 S
C578 O595 1.265 . S
C579 O596 1.255 . S
C579 O597 1.265 . S
C580 C582 1.366 1_545 S
C580 C583 1.374 . S
C580 C586 1.507 . S
C581 C582 1.386 . S
C581 C585 1.387 1_565 S
C581 H608 0.930 . S
C582 C580 1.366 1_565 S
C582 C581 1.386 . S
C582 H609 0.943 . S
C583 C580 1.374 . S
C583 C584 1.390 . S
C583 H610 0.930 . S
C584 C583 1.390 . S
C584 C585 1.391 . S
C584 H611 0.930 . S
C585 C581 1.387 1_545 S
C585 C584 1.391 . S
C586 Tb576 2.825 . S
C586 C580 1.507 . S
C586 O599 1.238 . S
C586 O600 1.247 . S
O587 Tb576 2.347 . S
O587 C591 1.259 . S
O588 Eu577 2.433 . S
O588 C591 1.265 . S
O589 Eu577 2.412 . S
O589 C598 1.255 . S
O590 Tb576 2.366 . S
O590 C598 1.265 . S
C591 O587 1.259 . S
C591 O588 1.265 . S
O592 Eu577 2.443 1_556 S
O592 C607 1.238 . S
O593 Eu577 2.437 1_556 S
O593 C607 1.247 . S
O594 Eu577 2.365 . S
O594 C578 1.259 1_545 S
O595 Tb576 2.418 1_565 S
O595 C578 1.265 . S
O596 Tb576 2.384 . S
O596 C579 1.255 . S
O597 Eu577 2.369 . S
O597 C579 1.265 . S
C598 O589 1.255 . S
C598 O590 1.265 . S
O599 Tb576 2.479 . S
O599 C586 1.238 . S
O600 Tb576 2.471 . S
O600 C586 1.247 . S
C601 C604 1.380 . S
C601 C605 1.374 . S
C601 C607 1.507 . S
C602 C603 1.387 . S
C602 C606 1.391 . S
C603 C602 1.387 . S
C603 C604 1.384 . S
C603 H612 0.930 . S
C604 C601 1.380 . S
C604 C603 1.384 . S
C604 H613 0.931 . S
C605 C601 1.374 . S
C605 C606 1.390 . S
C605 H614 0.930 . S
C606 C602 1.391 . S
C606 C605 1.390 . S
C606 H615 0.930 . S
C607 Eu577 2.786 1_556 S
C607 O592 1.238 . S
C607 O593 1.247 . S
C607 C601 1.507 . S
H608 C581 0.930 . S
H609 C582 0.943 . S
H610 C583 0.930 . S
H611 C584 0.930 . S
H612 C603 0.930 . S
H613 C604 0.931 . S
H614 C605 0.930 . S
H615 C606 0.930 . S
Tb616 C626 2.825 . S
Tb616 O627 2.347 . S
Tb616 O630 2.366 . S
Tb616 O635 2.418 . S
Tb616 O636 2.384 . S
Tb616 O639 2.479 . S
Tb616 O640 2.471 . S
Eu617 O628 2.418 . S
Eu617 O629 2.384 . S
Eu617 O632 2.479 . S
Eu617 O633 2.471 . S
Eu617 O634 2.347 . S
Eu617 O637 2.366 . S
Eu617 C647 2.825 . S
C618 O634 1.259 . S
C618 O635 1.265 . S
C619 O636 1.255 . S
C619 O637 1.265 . S
C620 C622 1.380 . S
C620 C623 1.374 . S
C620 C626 1.507 . S
C621 C622 1.384 . S
C621 C625 1.387 . S
C621 H648 0.930 . S
C622 C620 1.380 . S
C622 C621 1.384 . S
C622 H649 0.931 . S
C623 C620 1.374 . S
C623 C624 1.390 . S
C623 H650 0.930 . S
C624 C623 1.390 . S
C624 C625 1.391 . S
C624 H651 0.930 . S
C625 C621 1.387 . S
C625 C624 1.391 . S
C626 Tb616 2.825 . S
C626 C620 1.507 . S
C626 O639 1.238 . S
C626 O640 1.247 . S
O627 Tb616 2.347 . S
O627 C631 1.259 . S
O628 Eu617 2.418 . S
O628 C631 1.265 . S
O629 Eu617 2.384 . S
O629 C638 1.255 . S
O630 Tb616 2.366 . S
O630 C638 1.265 . S
C631 O627 1.259 . S
C631 O628 1.265 . S
O632 Eu617 2.479 . S
O632 C647 1.238 . S
O633 Eu617 2.471 . S
O633 C647 1.247 . S
O634 Eu617 2.347 . S
O634 C618 1.259 . S
O635 Tb616 2.418 . S
O635 C618 1.265 . S
O636 Tb616 2.384 . S
O636 C619 1.255 . S
O637 Eu617 2.366 . S
O637 C619 1.265 . S
C638 O629 1.255 . S
C638 O630 1.265 . S
O639 Tb616 2.479 . S
O639 C626 1.238 . S
O640 Tb616 2.471 . S
O640 C626 1.247 . S
C641 C644 1.380 . S
C641 C645 1.374 . S
C641 C647 1.507 . S
C642 C643 1.387 . S
C642 C646 1.391 . S
C643 C642 1.387 . S
C643 C644 1.384 . S
C643 H652 0.930 . S
C644 C641 1.380 . S
C644 C643 1.384 . S
C644 H653 0.931 . S
C645 C641 1.374 . S
C645 C646 1.390 . S
C645 H654 0.930 . S
C646 C642 1.391 . S
C646 C645 1.390 . S
C646 H655 0.930 . S
C647 Eu617 2.825 . S
C647 O632 1.238 . S
C647 O633 1.247 . S
C647 C641 1.507 . S
H648 C621 0.930 . S
H649 C622 0.931 . S
H650 C623 0.930 . S
H651 C624 0.930 . S
H652 C643 0.930 . S
H653 C644 0.931 . S
H654 C645 0.930 . S
H655 C646 0.930 . S
Tb656 C666 2.825 1_554 S
Tb656 O667 2.347 . S
Tb656 O670 2.366 . S
Tb656 O675 2.418 . S
Tb656 O676 2.384 . S
Tb656 O679 2.479 1_554 S
Tb656 O680 2.471 1_554 S
Eu657 O668 2.418 . S
Eu657 O669 2.384 . S
Eu657 O672 2.479 . S
Eu657 O673 2.471 . S
Eu657 O674 2.347 . S
Eu657 O677 2.366 . S
Eu657 C687 2.825 . S
C658 O674 1.259 . S
C658 O675 1.265 . S
C659 O676 1.255 . S
C659 O677 1.265 . S
C660 C662 1.380 . S
C660 C663 1.374 . S
C660 C666 1.507 . S
C661 C662 1.384 . S
C661 C665 1.387 . S
C661 H688 0.930 . S
C662 C660 1.380 . S
C662 C661 1.384 . S
C662 H689 0.931 . S
C663 C660 1.374 . S
C663 C664 1.390 . S
C663 H690 0.930 . S
C664 C663 1.390 . S
C664 C665 1.391 . S
C664 H691 0.930 . S
C665 C661 1.387 . S
C665 C664 1.391 . S
C666 Tb656 2.825 1_556 S
C666 C660 1.507 . S
C666 O679 1.238 . S
C666 O680 1.247 . S
O667 Tb656 2.347 . S
O667 C671 1.259 . S
O668 Eu657 2.418 . S
O668 C671 1.265 . S
O669 Eu657 2.384 . S
O669 C678 1.255 . S
O670 Tb656 2.366 . S
O670 C678 1.265 . S
C671 O667 1.259 . S
C671 O668 1.265 . S
O672 Eu657 2.479 . S
O672 C687 1.238 . S
O673 Eu657 2.471 . S
O673 C687 1.247 . S
O674 Eu657 2.347 . S
O674 C658 1.259 . S
O675 Tb656 2.418 . S
O675 C658 1.265 . S
O676 Tb656 2.384 . S
O676 C659 1.255 . S
O677 Eu657 2.366 . S
O677 C659 1.265 . S
C678 O669 1.255 . S
C678 O670 1.265 . S
O679 Tb656 2.479 1_556 S
O679 C666 1.238 . S
O680 Tb656 2.471 1_556 S
O680 C666 1.247 . S
C681 C684 1.380 . S
C681 C685 1.374 . S
C681 C687 1.507 . S
C682 C683 1.387 . S
C682 C686 1.391 . S
C683 C682 1.387 . S
C683 C684 1.384 . S
C683 H692 0.930 . S
C684 C681 1.380 . S
C684 C683 1.384 . S
C684 H693 0.931 . S
C685 C681 1.374 . S
C685 C686 1.390 . S
C685 H694 0.930 . S
C686 C682 1.391 . S
C686 C685 1.390 . S
C686 H695 0.930 . S
C687 Eu657 2.825 . S
C687 O672 1.238 . S
C687 O673 1.247 . S
C687 C681 1.507 . S
H688 C661 0.930 . S
H689 C662 0.931 . S
H690 C663 0.930 . S
H691 C664 0.930 . S
H692 C683 0.930 . S
H693 C684 0.931 . S
H694 C685 0.930 . S
H695 C686 0.930 . S
Tb696 C706 2.825 . S
Tb696 O707 2.347 . S
Tb696 O710 2.366 . S
Tb696 O715 2.418 . S
Tb696 O716 2.384 . S
Tb696 O719 2.479 . S
Tb696 O720 2.471 . S
Eu697 O708 2.418 . S
Eu697 O709 2.384 . S
Eu697 O712 2.479 . S
Eu697 O713 2.471 . S
Eu697 O714 2.347 . S
Eu697 O717 2.366 . S
Eu697 C727 2.825 . S
C698 O714 1.259 . S
C698 O715 1.265 . S
C699 O716 1.255 . S
C699 O717 1.265 . S
C700 C702 1.380 . S
C700 C703 1.374 . S
C700 C706 1.507 . S
C701 C702 1.384 . S
C701 C705 1.387 . S
C701 H728 0.930 . S
C702 C700 1.380 . S
C702 C701 1.384 . S
C702 H729 0.931 . S
C703 C700 1.374 . S
C703 C704 1.390 . S
C703 H730 0.930 . S
C704 C703 1.390 . S
C704 C705 1.391 . S
C704 H731 0.930 . S
C705 C701 1.387 . S
C705 C704 1.391 . S
C706 Tb696 2.825 . S
C706 C700 1.507 . S
C706 O719 1.238 . S
C706 O720 1.247 . S
O707 Tb696 2.347 . S
O707 C711 1.259 . S
O708 Eu697 2.418 . S
O708 C711 1.265 . S
O709 Eu697 2.384 . S
O709 C718 1.255 . S
O710 Tb696 2.366 . S
O710 C718 1.265 . S
C711 O707 1.259 . S
C711 O708 1.265 . S
O712 Eu697 2.479 . S
O712 C727 1.238 . S
O713 Eu697 2.471 . S
O713 C727 1.247 . S
O714 Eu697 2.347 . S
O714 C698 1.259 . S
O715 Tb696 2.418 . S
O715 C698 1.265 . S
O716 Tb696 2.384 . S
O716 C699 1.255 . S
O717 Eu697 2.366 . S
O717 C699 1.265 . S
C718 O709 1.255 . S
C718 O710 1.265 . S
O719 Tb696 2.479 . S
O719 C706 1.238 . S
O720 Tb696 2.471 . S
O720 C706 1.247 . S
C721 C724 1.380 . S
C721 C725 1.374 . S
C721 C727 1.507 . S
C722 C723 1.387 . S
C722 C726 1.391 . S
C723 C722 1.387 . S
C723 C724 1.384 . S
C723 H732 0.930 . S
C724 C721 1.380 . S
C724 C723 1.384 . S
C724 H733 0.931 . S
C725 C721 1.374 . S
C725 C726 1.390 . S
C725 H734 0.930 . S
C726 C722 1.391 . S
C726 C725 1.390 . S
C726 H735 0.930 . S
C727 Eu697 2.825 . S
C727 O712 1.238 . S
C727 O713 1.247 . S
C727 C721 1.507 . S
H728 C701 0.930 . S
H729 C702 0.931 . S
H730 C703 0.930 . S
H731 C704 0.930 . S
H732 C723 0.930 . S
H733 C724 0.931 . S
H734 C725 0.930 . S
H735 C726 0.930 . S
Tb736 C746 2.825 . S
Tb736 O747 2.347 . S
Tb736 O750 2.366 . S
Tb736 O755 2.418 . S
Tb736 O756 2.384 . S
Tb736 O759 2.479 . S
Tb736 O760 2.471 . S
Eu737 O748 2.418 . S
Eu737 O749 2.384 1_455 S
Eu737 O752 2.479 . S
Eu737 O753 2.471 . S
Eu737 O754 2.347 . S
Eu737 O757 2.366 . S
Eu737 C767 2.825 . S
C738 O754 1.259 . S
C738 O755 1.265 . S
C739 O756 1.255 . S
C739 O757 1.265 . S
C740 C742 1.380 . S
C740 C743 1.374 . S
C740 C746 1.507 . S
C741 C742 1.384 . S
C741 C745 1.387 . S
C741 H768 0.930 . S
C742 C740 1.380 . S
C742 C741 1.384 . S
C742 H769 0.931 . S
C743 C740 1.374 . S
C743 C744 1.390 . S
C743 H770 0.930 . S
C744 C743 1.390 . S
C744 C745 1.391 . S
C744 H771 0.930 1_455 S
C745 C741 1.387 . S
C745 C744 1.391 . S
C746 Tb736 2.825 . S
C746 C740 1.507 . S
C746 O759 1.238 . S
C746 O760 1.247 . S
O747 Tb736 2.347 . S
O747 C751 1.259 . S
O748 Eu737 2.418 . S
O748 C751 1.265 . S
O749 Eu737 2.384 1_655 S
O749 C758 1.255 . S
O750 Tb736 2.366 . S
O750 C758 1.265 1_455 S
C751 O747 1.259 . S
C751 O748 1.265 . S
O752 Eu737 2.479 . S
O752 C767 1.238 . S
O753 Eu737 2.471 . S
O753 C767 1.247 . S
O754 Eu737 2.347 . S
O754 C738 1.259 . S
O755 Tb736 2.418 . S
O755 C738 1.265 . S
O756 Tb736 2.384 . S
O756 C739 1.255 . S
O757 Eu737 2.366 . S
O757 C739 1.265 . S
C758 O749 1.255 . S
C758 O750 1.265 1_655 S
O759 Tb736 2.479 . S
O759 C746 1.238 . S
O760 Tb736 2.471 . S
O760 C746 1.247 . S
C761 C764 1.380 . S
C761 C765 1.374 . S
C761 C767 1.507 . S
C762 C763 1.387 . S
C762 C766 1.391 . S
C763 C762 1.387 . S
C763 C764 1.384 . S
C763 H772 0.930 . S
C764 C761 1.380 . S
C764 C763 1.384 . S
C764 H773 0.931 . S
C765 C761 1.374 . S
C765 C766 1.390 . S
C765 H774 0.930 . S
C766 C762 1.391 . S
C766 C765 1.390 . S
C766 H775 0.930 . S
C767 Eu737 2.825 . S
C767 O752 1.238 . S
C767 O753 1.247 . S
C767 C761 1.507 . S
H768 C741 0.930 . S
H769 C742 0.931 . S
H770 C743 0.930 . S
H771 C744 0.930 1_655 S
H772 C763 0.930 . S
H773 C764 0.931 . S
H774 C765 0.930 . S
H775 C766 0.930 . S
Tb776 C786 2.825 . S
Tb776 O787 2.347 . S
Tb776 O790 2.366 . S
Tb776 O795 2.418 . S
Tb776 O796 2.384 . S
Tb776 O799 2.479 . S
Tb776 O800 2.471 . S
Eu777 O788 2.418 . S
Eu777 O789 2.384 . S
Eu777 O792 2.479 . S
Eu777 O793 2.471 . S
Eu777 O794 2.347 . S
Eu777 O797 2.366 . S
Eu777 C807 2.825 . S
C778 O794 1.259 . S
C778 O795 1.265 . S
C779 O796 1.255 . S
C779 O797 1.265 . S
C780 C782 1.380 . S
C780 C783 1.374 . S
C780 C786 1.507 . S
C781 C782 1.384 . S
C781 C785 1.387 . S
C781 H808 0.930 . S
C782 C780 1.380 . S
C782 C781 1.384 . S
C782 H809 0.931 . S
C783 C780 1.374 . S
C783 C784 1.390 . S
C783 H810 0.930 . S
C784 C783 1.390 . S
C784 C785 1.391 . S
C784 H811 0.930 . S
C785 C781 1.387 . S
C785 C784 1.391 . S
C786 Tb776 2.825 . S
C786 C780 1.507 . S
C786 O799 1.238 . S
C786 O800 1.247 . S
O787 Tb776 2.347 . S
O787 C791 1.259 . S
O788 Eu777 2.418 . S
O788 C791 1.265 . S
O789 Eu777 2.384 . S
O789 C798 1.255 . S
O790 Tb776 2.366 . S
O790 C798 1.265 . S
C791 O787 1.259 . S
C791 O788 1.265 . S
O792 Eu777 2.479 . S
O792 C807 1.238 . S
O793 Eu777 2.471 . S
O793 C807 1.247 . S
O794 Eu777 2.347 . S
O794 C778 1.259 . S
O795 Tb776 2.418 . S
O795 C778 1.265 . S
O796 Tb776 2.384 . S
O796 C779 1.255 . S
O797 Eu777 2.366 . S
O797 C779 1.265 . S
C798 O789 1.255 . S
C798 O790 1.265 . S
O799 Tb776 2.479 . S
O799 C786 1.238 . S
O800 Tb776 2.471 . S
O800 C786 1.247 . S
C801 C804 1.380 . S
C801 C805 1.374 . S
C801 C807 1.507 . S
C802 C803 1.387 . S
C802 C806 1.391 . S
C803 C802 1.387 . S
C803 C804 1.384 . S
C803 H812 0.930 . S
C804 C801 1.380 . S
C804 C803 1.384 . S
C804 H813 0.931 . S
C805 C801 1.374 . S
C805 C806 1.390 . S
C805 H814 0.930 . S
C806 C802 1.391 . S
C806 C805 1.390 . S
C806 H815 0.930 . S
C807 Eu777 2.825 . S
C807 O792 1.238 . S
C807 O793 1.247 . S
C807 C801 1.507 . S
H808 C781 0.930 . S
H809 C782 0.931 . S
H810 C783 0.930 . S
H811 C784 0.930 . S
H812 C803 0.930 . S
H813 C804 0.931 . S
H814 C805 0.930 . S
H815 C806 0.930 . S
Tb816 C826 2.825 . S
Tb816 O827 2.347 . S
Tb816 O830 2.366 . S
Tb816 O835 2.418 . S
Tb816 O836 2.384 . S
Tb816 O839 2.479 . S
Tb816 O840 2.471 . S
Eu817 O828 2.418 . S
Eu817 O829 2.384 . S
Eu817 O832 2.479 . S
Eu817 O833 2.471 . S
Eu817 O834 2.347 . S
Eu817 O837 2.366 . S
Eu817 C847 2.825 . S
C818 O834 1.259 . S
C818 O835 1.265 . S
C819 O836 1.255 . S
C819 O837 1.265 . S
C820 C822 1.380 . S
C820 C823 1.374 . S
C820 C826 1.507 . S
C821 C822 1.384 . S
C821 C825 1.387 . S
C821 H848 0.930 . S
C822 C820 1.380 . S
C822 C821 1.384 . S
C822 H849 0.931 . S
C823 C820 1.374 . S
C823 C824 1.390 . S
C823 H850 0.930 . S
C824 C823 1.390 . S
C824 C825 1.391 . S
C824 H851 0.930 . S
C825 C821 1.387 . S
C825 C824 1.391 . S
C826 Tb816 2.825 . S
C826 C820 1.507 . S
C826 O839 1.238 . S
C826 O840 1.247 . S
O827 Tb816 2.347 . S
O827 C831 1.259 . S
O828 Eu817 2.418 . S
O828 C831 1.265 . S
O829 Eu817 2.384 . S
O829 C838 1.255 . S
O830 Tb816 2.366 . S
O830 C838 1.265 . S
C831 O827 1.259 . S
C831 O828 1.265 . S
O832 Eu817 2.479 . S
O832 C847 1.238 . S
O833 Eu817 2.471 . S
O833 C847 1.247 . S
O834 Eu817 2.347 . S
O834 C818 1.259 . S
O835 Tb816 2.418 . S
O835 C818 1.265 . S
O836 Tb816 2.384 . S
O836 C819 1.255 . S
O837 Eu817 2.366 . S
O837 C819 1.265 . S
C838 O829 1.255 . S
C838 O830 1.265 . S
O839 Tb816 2.479 . S
O839 C826 1.238 . S
O840 Tb816 2.471 . S
O840 C826 1.247 . S
C841 C844 1.380 . S
C841 C845 1.374 . S
C841 C847 1.507 . S
C842 C843 1.387 . S
C842 C846 1.391 . S
C843 C842 1.387 . S
C843 C844 1.384 . S
C843 H852 0.930 . S
C844 C841 1.380 . S
C844 C843 1.384 . S
C844 H853 0.931 . S
C845 C841 1.374 . S
C845 C846 1.390 . S
C845 H854 0.930 . S
C846 C842 1.391 . S
C846 C845 1.390 . S
C846 H855 0.930 . S
C847 Eu817 2.825 . S
C847 O832 1.238 . S
C847 O833 1.247 . S
C847 C841 1.507 . S
H848 C821 0.930 . S
H849 C822 0.931 . S
H850 C823 0.930 . S
H851 C824 0.930 . S
H852 C843 0.930 . S
H853 C844 0.931 . S
H854 C845 0.930 . S
H855 C846 0.930 . S
Tb856 C866 2.825 . S
Tb856 O867 2.347 . S
Tb856 O870 2.366 . S
Tb856 O875 2.418 . S
Tb856 O876 2.384 . S
Tb856 O879 2.479 . S
Tb856 O880 2.471 . S
Eu857 O868 2.418 . S
Eu857 O869 2.384 . S
Eu857 O872 2.479 . S
Eu857 O873 2.471 . S
Eu857 O874 2.347 . S
Eu857 O877 2.366 . S
Eu857 C887 2.825 . S
C858 O874 1.259 . S
C858 O875 1.265 . S
C859 O876 1.255 . S
C859 O877 1.265 . S
C860 C862 1.380 . S
C860 C863 1.374 . S
C860 C866 1.507 . S
C861 C862 1.384 . S
C861 C865 1.387 . S
C861 H888 0.930 . S
C862 C860 1.380 . S
C862 C861 1.384 . S
C862 H889 0.931 . S
C863 C860 1.374 . S
C863 C864 1.390 . S
C863 H890 0.930 . S
C864 C863 1.390 . S
C864 C865 1.391 . S
C864 H891 0.930 . S
C865 C861 1.387 . S
C865 C864 1.391 . S
C866 Tb856 2.825 . S
C866 C860 1.507 . S
C866 O879 1.238 . S
C866 O880 1.247 . S
O867 Tb856 2.347 . S
O867 C871 1.259 . S
O868 Eu857 2.418 . S
O868 C871 1.265 . S
O869 Eu857 2.384 . S
O869 C878 1.255 . S
O870 Tb856 2.366 . S
O870 C878 1.265 . S
C871 O867 1.259 . S
C871 O868 1.265 . S
O872 Eu857 2.479 . S
O872 C887 1.238 . S
O873 Eu857 2.471 . S
O873 C887 1.247 . S
O874 Eu857 2.347 . S
O874 C858 1.259 . S
O875 Tb856 2.418 . S
O875 C858 1.265 . S
O876 Tb856 2.384 . S
O876 C859 1.255 . S
O877 Eu857 2.366 . S
O877 C859 1.265 . S
C878 O869 1.255 . S
C878 O870 1.265 . S
O879 Tb856 2.479 . S
O879 C866 1.238 . S
O880 Tb856 2.471 . S
O880 C866 1.247 . S
C881 C884 1.380 . S
C881 C885 1.374 . S
C881 C887 1.507 . S
C882 C883 1.387 . S
C882 C886 1.391 . S
C883 C882 1.387 . S
C883 C884 1.384 . S
C883 H892 0.930 . S
C884 C881 1.380 . S
C884 C883 1.384 . S
C884 H893 0.931 . S
C885 C881 1.374 . S
C885 C886 1.390 . S
C885 H894 0.930 . S
C886 C882 1.391 . S
C886 C885 1.390 . S
C886 H895 0.930 . S
C887 Eu857 2.825 . S
C887 O872 1.238 . S
C887 O873 1.247 . S
C887 C881 1.507 . S
H888 C861 0.930 . S
H889 C862 0.931 . S
H890 C863 0.930 . S
H891 C864 0.930 . S
H892 C883 0.930 . S
H893 C884 0.931 . S
H894 C885 0.930 . S
H895 C886 0.930 . S
Tb896 C906 2.825 . S
Tb896 O907 2.347 . S
Tb896 O910 2.366 . S
Tb896 O915 2.418 . S
Tb896 O916 2.384 . S
Tb896 O919 2.479 . S
Tb896 O920 2.471 . S
Eu897 O908 2.418 . S
Eu897 O909 2.384 . S
Eu897 O912 2.479 . S
Eu897 O913 2.471 . S
Eu897 O914 2.347 . S
Eu897 O917 2.366 . S
Eu897 C927 2.825 . S
C898 O914 1.259 . S
C898 O915 1.265 . S
C899 O916 1.255 . S
C899 O917 1.265 . S
C900 C902 1.380 . S
C900 C903 1.374 . S
C900 C906 1.507 . S
C901 C902 1.384 . S
C901 C905 1.387 . S
C901 H928 0.930 . S
C902 C900 1.380 . S
C902 C901 1.384 . S
C902 H929 0.931 . S
C903 C900 1.374 . S
C903 C904 1.390 . S
C903 H930 0.930 . S
C904 C903 1.390 . S
C904 C905 1.391 . S
C904 H931 0.930 . S
C905 C901 1.387 . S
C905 C904 1.391 . S
C906 Tb896 2.825 . S
C906 C900 1.507 . S
C906 O919 1.238 . S
C906 O920 1.247 . S
O907 Tb896 2.347 . S
O907 C911 1.259 . S
O908 Eu897 2.418 . S
O908 C911 1.265 . S
O909 Eu897 2.384 . S
O909 C918 1.255 . S
O910 Tb896 2.366 . S
O910 C918 1.265 . S
C911 O907 1.259 . S
C911 O908 1.265 . S
O912 Eu897 2.479 . S
O912 C927 1.238 . S
O913 Eu897 2.471 . S
O913 C927 1.247 . S
O914 Eu897 2.347 . S
O914 C898 1.259 . S
O915 Tb896 2.418 . S
O915 C898 1.265 . S
O916 Tb896 2.384 . S
O916 C899 1.255 . S
O917 Eu897 2.366 . S
O917 C899 1.265 . S
C918 O909 1.255 . S
C918 O910 1.265 . S
O919 Tb896 2.479 . S
O919 C906 1.238 . S
O920 Tb896 2.471 . S
O920 C906 1.247 . S
C921 C924 1.380 . S
C921 C925 1.374 . S
C921 C927 1.507 . S
C922 C923 1.387 . S
C922 C926 1.391 . S
C923 C922 1.387 . S
C923 C924 1.384 . S
C923 H932 0.930 . S
C924 C921 1.380 . S
C924 C923 1.384 . S
C924 H933 0.931 . S
C925 C921 1.374 . S
C925 C926 1.390 . S
C925 H934 0.930 . S
C926 C922 1.391 . S
C926 C925 1.390 . S
C926 H935 0.930 . S
C927 Eu897 2.825 . S
C927 O912 1.238 . S
C927 O913 1.247 . S
C927 C921 1.507 . S
H928 C901 0.930 . S
H929 C902 0.931 . S
H930 C903 0.930 . S
H931 C904 0.930 . S
H932 C923 0.930 . S
H933 C924 0.931 . S
H934 C925 0.930 . S
H935 C926 0.930 . S
Tb936 C946 2.825 . S
Tb936 O947 2.347 . S
Tb936 O950 2.366 . S
Tb936 O955 2.418 . S
Tb936 O956 2.384 . S
Tb936 O959 2.479 . S
Tb936 O960 2.471 . S
Eu937 O948 2.418 . S
Eu937 O949 2.384 . S
Eu937 O952 2.479 . S
Eu937 O953 2.471 . S
Eu937 O954 2.347 . S
Eu937 O957 2.366 . S
Eu937 C967 2.825 . S
C938 O954 1.259 . S
C938 O955 1.265 . S
C939 O956 1.255 . S
C939 O957 1.265 . S
C940 C942 1.380 . S
C940 C943 1.374 1_554 S
C940 C946 1.507 . S
C941 C942 1.384 . S
C941 C945 1.387 1_554 S
C941 H968 0.930 . S
C942 C940 1.380 . S
C942 C941 1.384 . S
C942 H969 0.931 . S
C943 C940 1.374 1_556 S
C943 C944 1.390 . S
C943 H970 0.930 . S
C944 C943 1.390 . S
C944 C945 1.391 . S
C944 H971 0.930 . S
C945 C941 1.387 1_556 S
C945 C944 1.391 . S
C946 Tb936 2.825 . S
C946 C940 1.507 . S
C946 O959 1.238 . S
C946 O960 1.247 . S
O947 Tb936 2.347 . S
O947 C951 1.259 . S
O948 Eu937 2.418 . S
O948 C951 1.265 . S
O949 Eu937 2.384 . S
O949 C958 1.255 . S
O950 Tb936 2.366 . S
O950 C958 1.265 . S
C951 O947 1.259 . S
C951 O948 1.265 . S
O952 Eu937 2.479 . S
O952 C967 1.238 . S
O953 Eu937 2.471 . S
O953 C967 1.247 . S
O954 Eu937 2.347 . S
O954 C938 1.259 . S
O955 Tb936 2.418 . S
O955 C938 1.265 . S
O956 Tb936 2.384 . S
O956 C939 1.255 . S
O957 Eu937 2.366 . S
O957 C939 1.265 . S
C958 O949 1.255 . S
C958 O950 1.265 . S
O959 Tb936 2.479 . S
O959 C946 1.238 . S
O960 Tb936 2.471 . S
O960 C946 1.247 . S
C961 C964 1.380 . S
C961 C965 1.374 . S
C961 C967 1.507 . S
C962 C963 1.387 . S
C962 C966 1.391 . S
C963 C962 1.387 . S
C963 C964 1.384 . S
C963 H972 0.930 . S
C964 C961 1.380 . S
C964 C963 1.384 . S
C964 H973 0.931 . S
C965 C961 1.374 . S
C965 C966 1.390 . S
C965 H974 0.930 . S
C966 C962 1.391 . S
C966 C965 1.390 . S
C966 H975 0.930 . S
C967 Eu937 2.825 . S
C967 O952 1.238 . S
C967 O953 1.247 . S
C967 C961 1.507 . S
H968 C941 0.930 . S
H969 C942 0.931 . S
H970 C943 0.930 . S
H971 C944 0.930 . S
H972 C963 0.930 . S
H973 C964 0.931 . S
H974 C965 0.930 . S
H975 C966 0.930 . S
C976 C977 1.391 . S
C976 C978 1.394 . S
C976 H992 0.931 . S
C977 C976 1.391 . S
C977 C981 1.376 1_655 S
C978 C976 1.394 . S
C978 C979 1.369 1_655 S
C978 C982 1.531 . S
C979 C978 1.369 1_455 S
C979 C980 1.410 . S
C979 C987 1.503 . S
C980 C979 1.410 . S
C980 C981 1.392 . S
C980 C983 1.511 . S
C981 C977 1.376 1_455 S
C981 C980 1.392 . S
C981 H993 0.929 . S
C982 C978 1.531 . S
C982 H994 0.960 . S
C982 H995 0.962 . S
C982 H996 0.960 . S
C983 C980 1.511 . S
C983 H997 0.961 . S
C983 H998 0.961 . S
C983 H999 0.961 . S
C984 C985 1.370 . S
C984 C986 1.363 1_554 S
C984 H1000 0.931 . S
C985 C984 1.370 . S
C985 C989 1.408 1_554 S
C986 C984 1.363 1_556 S
C986 C987 1.370 . S
C986 C990 1.524 . S
C987 C979 1.503 . S
C987 C986 1.370 . S
C987 C988 1.403 . S
C988 C987 1.403 . S
C988 C989 1.404 . S
C988 C991 1.539 . S
C989 C985 1.408 1_556 S
C989 C988 1.404 . S
C989 H1001 0.930 . S
C990 C986 1.524 . S
C990 H1002 0.960 . S
C990 H1003 0.961 . S
C990 H1004 0.961 1_556 S
C991 C988 1.539 . S
C991 H1005 0.958 1_455 S
C991 H1006 0.961 . S
C991 H1007 0.960 . S
H992 C976 0.931 . S
H993 C981 0.929 . S
H994 C982 0.960 . S
H995 C982 0.962 . S
H996 C982 0.960 . S
H997 C983 0.961 . S
H998 C983 0.961 . S
H999 C983 0.961 . S
H1000 C984 0.931 . S
H1001 C989 0.930 . S
H1002 C990 0.960 . S
H1003 C990 0.961 . S
H1004 C990 0.961 1_554 S
H1005 C991 0.958 1_655 S
H1006 C991 0.961 . S
H1007 C991 0.960 . S
C1008 C1009 1.391 . S
C1008 C1010 1.394 . S
C1008 H1024 0.931 . S
C1009 C1008 1.391 . S
C1009 C1013 1.376 . S
C1010 C1008 1.394 . S
C1010 C1011 1.369 . S
C1010 C1014 1.531 . S
C1011 C1010 1.369 . S
C1011 C1012 1.410 . S
C1011 C1019 1.503 . S
C1012 C1011 1.410 . S
C1012 C1013 1.392 . S
C1012 C1015 1.511 . S
C1013 C1009 1.376 . S
C1013 C1012 1.392 . S
C1013 H1025 0.929 . S
C1014 C1010 1.531 . S
C1014 H1026 0.960 . S
C1014 H1027 0.962 . S
C1014 H1028 0.960 . S
C1015 C1012 1.511 . S
C1015 H1029 0.961 . S
C1015 H1030 0.961 . S
C1015 H1031 0.961 . S
C1016 C1017 1.370 . S
C1016 C1018 1.363 . S
C1016 H1032 0.931 . S
C1017 C1016 1.370 . S
C1017 C1021 1.408 . S
C1018 C1016 1.363 . S
C1018 C1019 1.370 . S
C1018 C1022 1.524 . S
C1019 C1011 1.503 . S
C1019 C1018 1.370 . S
C1019 C1020 1.403 . S
C1020 C1019 1.403 . S
C1020 C1021 1.404 . S
C1020 C1023 1.539 . S
C1021 C1017 1.408 . S
C1021 C1020 1.404 . S
C1021 H1033 0.930 . S
C1022 C1018 1.524 . S
C1022 H1034 0.956 . S
C1022 H1035 0.961 . S
C1022 H1036 0.961 . S
C1023 C1020 1.539 . S
C1023 H1037 0.958 . S
C1023 H1038 0.961 . S
C1023 H1039 0.960 . S
H1024 C1008 0.931 . S
H1025 C1013 0.929 . S
H1026 C1014 0.960 . S
H1027 C1014 0.962 . S
H1028 C1014 0.960 . S
H1029 C1015 0.961 . S
H1030 C1015 0.961 . S
H1031 C1015 0.961 . S
H1032 C1016 0.931 . S
H1033 C1021 0.930 . S
H1034 C1022 0.956 . S
H1035 C1022 0.961 . S
H1036 C1022 0.961 . S
H1037 C1023 0.958 . S
H1038 C1023 0.961 . S
H1039 C1023 0.960 . S
C1040 C1041 1.391 . S
C1040 C1042 1.394 . S
C1040 H1056 0.931 . S
C1041 C1040 1.391 . S
C1041 C1045 1.376 . S
C1042 C1040 1.394 . S
C1042 C1043 1.369 . S
C1042 C1046 1.531 . S
C1043 C1042 1.369 . S
C1043 C1044 1.410 . S
C1043 C1051 1.503 . S
C1044 C1043 1.410 . S
C1044 C1045 1.392 . S
C1044 C1047 1.511 . S
C1045 C1041 1.376 . S
C1045 C1044 1.392 . S
C1045 H1057 0.929 . S
C1046 C1042 1.531 . S
C1046 H1058 0.960 . S
C1046 H1059 0.962 . S
C1046 H1060 0.960 . S
C1047 C1044 1.511 . S
C1047 H1061 0.961 . S
C1047 H1062 0.961 . S
C1047 H1063 0.961 . S
C1048 C1049 1.370 . S
C1048 C1050 1.363 . S
C1048 H1064 0.931 . S
C1049 C1048 1.370 . S
C1049 C1053 1.408 . S
C1050 C1048 1.363 . S
C1050 C1051 1.370 . S
C1050 C1054 1.524 . S
C1051 C1043 1.503 . S
C1051 C1050 1.370 . S
C1051 C1052 1.403 . S
C1052 C1051 1.403 . S
C1052 C1053 1.404 . S
C1052 C1055 1.539 . S
C1053 C1049 1.408 . S
C1053 C1052 1.404 . S
C1053 H1065 0.930 . S
C1054 C1050 1.524 . S
C1054 H1066 0.956 . S
C1054 H1067 0.961 . S
C1054 H1068 0.961 . S
C1055 C1052 1.539 . S
C1055 H1069 0.958 . S
C1055 H1070 0.961 . S
C1055 H1071 0.960 . S
H1056 C1040 0.931 . S
H1057 C1045 0.929 . S
H1058 C1046 0.960 . S
H1059 C1046 0.962 . S
H1060 C1046 0.960 . S
H1061 C1047 0.961 . S
H1062 C1047 0.961 . S
H1063 C1047 0.961 . S
H1064 C1048 0.931 . S
H1065 C1053 0.930 . S
H1066 C1054 0.956 . S
H1067 C1054 0.961 . S
H1068 C1054 0.961 . S
H1069 C1055 0.958 . S
H1070 C1055 0.961 . S
H1071 C1055 0.960 . S
C1072 C1073 1.391 . S
C1072 C1074 1.394 . S
C1072 H1088 0.931 . S
C1073 C1072 1.391 . S
C1073 C1077 1.376 . S
C1074 C1072 1.394 . S
C1074 C1075 1.369 . S
C1074 C1078 1.531 . S
C1075 C1074 1.369 . S
C1075 C1076 1.410 . S
C1075 C1083 1.503 . S
C1076 C1075 1.410 . S
C1076 C1077 1.392 . S
C1076 C1079 1.511 . S
C1077 C1073 1.376 . S
C1077 C1076 1.392 . S
C1077 H1089 0.929 . S
C1078 C1074 1.531 . S
C1078 H1090 0.960 . S
C1078 H1091 0.962 . S
C1078 H1092 0.960 . S
C1079 C1076 1.511 . S
C1079 H1093 0.961 . S
C1079 H1094 0.961 . S
C1079 H1095 0.961 . S
C1080 C1081 1.370 . S
C1080 C1082 1.363 . S
C1080 H1096 0.931 . S
C1081 C1080 1.370 . S
C1081 C1085 1.408 . S
C1082 C1080 1.363 . S
C1082 C1083 1.370 . S
C1082 C1086 1.524 . S
C1083 C1075 1.503 . S
C1083 C1082 1.370 . S
C1083 C1084 1.403 . S
C1084 C1083 1.403 . S
C1084 C1085 1.404 . S
C1084 C1087 1.539 . S
C1085 C1081 1.408 . S
C1085 C1084 1.404 . S
C1085 H1097 0.930 . S
C1086 C1082 1.524 . S
C1086 H1098 0.956 . S
C1086 H1099 0.961 . S
C1086 H1100 0.961 . S
C1087 C1084 1.539 . S
C1087 H1101 0.958 . S
C1087 H1102 0.961 . S
C1087 H1103 0.960 . S
H1088 C1072 0.931 . S
H1089 C1077 0.929 . S
H1090 C1078 0.960 . S
H1091 C1078 0.962 . S
H1092 C1078 0.960 . S
H1093 C1079 0.961 . S
H1094 C1079 0.961 . S
H1095 C1079 0.961 . S
H1096 C1080 0.931 . S
H1097 C1085 0.930 . S
H1098 C1086 0.956 . S
H1099 C1086 0.961 . S
H1100 C1086 0.961 . S
H1101 C1087 0.958 . S
H1102 C1087 0.961 . S
H1103 C1087 0.960 . S
C1104 C1105 1.391 . S
C1104 C1106 1.394 . S
C1104 H1120 0.931 . S
C1105 C1104 1.391 . S
C1105 C1109 1.376 . S
C1106 C1104 1.394 . S
C1106 C1107 1.369 . S
C1106 C1110 1.531 . S
C1107 C1106 1.369 . S
C1107 C1108 1.410 . S
C1107 C1115 1.503 . S
C1108 C1107 1.410 . S
C1108 C1109 1.392 . S
C1108 C1111 1.511 . S
C1109 C1105 1.376 . S
C1109 C1108 1.392 . S
C1109 H1121 0.929 . S
C1110 C1106 1.531 . S
C1110 H1122 0.960 . S
C1110 H1123 0.962 . S
C1110 H1124 0.960 . S
C1111 C1108 1.511 . S
C1111 H1125 0.961 . S
C1111 H1126 0.961 . S
C1111 H1127 0.961 . S
C1112 C1113 1.370 . S
C1112 C1114 1.363 . S
C1112 H1128 0.931 . S
C1113 C1112 1.370 . S
C1113 C1117 1.408 . S
C1114 C1112 1.363 . S
C1114 C1115 1.370 . S
C1114 C1118 1.524 . S
C1115 C1107 1.503 . S
C1115 C1114 1.370 . S
C1115 C1116 1.403 . S
C1116 C1115 1.403 . S
C1116 C1117 1.404 . S
C1116 C1119 1.539 . S
C1117 C1113 1.408 . S
C1117 C1116 1.404 . S
C1117 H1129 0.930 . S
C1118 C1114 1.524 . S
C1118 H1130 0.956 . S
C1118 H1131 0.961 . S
C1118 H1132 0.961 . S
C1119 C1116 1.539 . S
C1119 H1133 0.958 . S
C1119 H1134 0.961 . S
C1119 H1135 0.960 . S
H1120 C1104 0.931 . S
H1121 C1109 0.929 . S
H1122 C1110 0.960 . S
H1123 C1110 0.962 . S
H1124 C1110 0.960 . S
H1125 C1111 0.961 . S
H1126 C1111 0.961 . S
H1127 C1111 0.961 . S
H1128 C1112 0.931 . S
H1129 C1117 0.930 . S
H1130 C1118 0.956 . S
H1131 C1118 0.961 . S
H1132 C1118 0.961 . S
H1133 C1119 0.958 . S
H1134 C1119 0.961 . S
H1135 C1119 0.960 . S
C1136 C1137 1.391 . S
C1136 C1138 1.394 . S
C1136 H1152 0.931 . S
C1137 C1136 1.391 . S
C1137 C1141 1.376 . S
C1138 C1136 1.394 . S
C1138 C1139 1.369 . S
C1138 C1142 1.531 . S
C1139 C1138 1.369 . S
C1139 C1140 1.410 . S
C1139 C1147 1.503 . S
C1140 C1139 1.410 . S
C1140 C1141 1.392 . S
C1140 C1143 1.511 . S
C1141 C1137 1.376 . S
C1141 C1140 1.392 . S
C1141 H1153 0.929 . S
C1142 C1138 1.531 . S
C1142 H1154 0.960 . S
C1142 H1155 0.962 . S
C1142 H1156 0.960 . S
C1143 C1140 1.511 . S
C1143 H1157 0.961 . S
C1143 H1158 0.961 . S
C1143 H1159 0.961 . S
C1144 C1145 1.370 . S
C1144 C1146 1.363 . S
C1144 H1160 0.931 . S
C1145 C1144 1.370 . S
C1145 C1149 1.408 . S
C1146 C1144 1.363 . S
C1146 C1147 1.370 . S
C1146 C1150 1.524 . S
C1147 C1139 1.503 . S
C1147 C1146 1.370 . S
C1147 C1148 1.403 . S
C1148 C1147 1.403 . S
C1148 C1149 1.404 . S
C1148 C1151 1.539 . S
C1149 C1145 1.408 . S
C1149 C1148 1.404 . S
C1149 H1161 0.930 . S
C1150 C1146 1.524 . S
C1150 H1162 0.956 . S
C1150 H1163 0.961 . S
C1150 H1164 0.961 . S
C1151 C1148 1.539 . S
C1151 H1165 0.958 . S
C1151 H1166 0.961 . S
C1151 H1167 0.960 . S
H1152 C1136 0.931 . S
H1153 C1141 0.929 . S
H1154 C1142 0.960 . S
H1155 C1142 0.962 . S
H1156 C1142 0.960 . S
H1157 C1143 0.961 . S
H1158 C1143 0.961 . S
H1159 C1143 0.961 . S
H1160 C1144 0.931 . S
H1161 C1149 0.930 . S
H1162 C1150 0.956 . S
H1163 C1150 0.961 . S
H1164 C1150 0.961 . S
H1165 C1151 0.958 . S
H1166 C1151 0.961 . S
H1167 C1151 0.960 . S
C1168 C1169 1.391 . S
C1168 C1170 1.394 . S
C1168 H1184 0.931 . S
C1169 C1168 1.391 . S
C1169 C1173 1.376 . S
C1170 C1168 1.394 . S
C1170 C1171 1.369 . S
C1170 C1174 1.531 . S
C1171 C1170 1.369 . S
C1171 C1172 1.410 . S
C1171 C1179 1.503 . S
C1172 C1171 1.410 . S
C1172 C1173 1.392 . S
C1172 C1175 1.511 . S
C1173 C1169 1.376 . S
C1173 C1172 1.392 . S
C1173 H1185 0.929 . S
C1174 C1170 1.531 . S
C1174 H1186 0.960 . S
C1174 H1187 0.962 . S
C1174 H1188 0.960 . S
C1175 C1172 1.511 . S
C1175 H1189 0.961 . S
C1175 H1190 0.961 . S
C1175 H1191 0.961 . S
C1176 C1177 1.370 . S
C1176 C1178 1.363 . S
C1176 H1192 0.931 . S
C1177 C1176 1.370 . S
C1177 C1181 1.408 . S
C1178 C1176 1.363 . S
C1178 C1179 1.370 . S
C1178 C1182 1.524 . S
C1179 C1171 1.503 . S
C1179 C1178 1.370 . S
C1179 C1180 1.403 . S
C1180 C1179 1.403 . S
C1180 C1181 1.404 . S
C1180 C1183 1.539 . S
C1181 C1177 1.408 . S
C1181 C1180 1.404 . S
C1181 H1193 0.930 . S
C1182 C1178 1.524 . S
C1182 H1194 0.956 . S
C1182 H1195 0.961 . S
C1182 H1196 0.961 . S
C1183 C1180 1.539 . S
C1183 H1197 0.958 . S
C1183 H1198 0.961 . S
C1183 H1199 0.960 . S
H1184 C1168 0.931 . S
H1185 C1173 0.929 . S
H1186 C1174 0.960 . S
H1187 C1174 0.962 . S
H1188 C1174 0.960 . S
H1189 C1175 0.961 . S
H1190 C1175 0.961 . S
H1191 C1175 0.961 . S
H1192 C1176 0.931 . S
H1193 C1181 0.930 . S
H1194 C1182 0.956 . S
H1195 C1182 0.961 . S
H1196 C1182 0.961 . S
H1197 C1183 0.958 . S
H1198 C1183 0.961 . S
H1199 C1183 0.960 . S
C1200 C1201 1.391 . S
C1200 C1202 1.394 . S
C1200 H1216 0.931 . S
C1201 C1200 1.391 . S
C1201 C1205 1.376 . S
C1202 C1200 1.394 . S
C1202 C1203 1.369 . S
C1202 C1206 1.531 . S
C1203 C1202 1.369 . S
C1203 C1204 1.410 . S
C1203 C1211 1.503 . S
C1204 C1203 1.410 . S
C1204 C1205 1.392 . S
C1204 C1207 1.511 . S
C1205 C1201 1.376 . S
C1205 C1204 1.392 . S
C1205 H1217 0.929 . S
C1206 C1202 1.531 . S
C1206 H1218 0.960 . S
C1206 H1219 0.962 . S
C1206 H1220 0.960 . S
C1207 C1204 1.511 . S
C1207 H1221 0.961 . S
C1207 H1222 0.961 . S
C1207 H1223 0.961 . S
C1208 C1209 1.370 . S
C1208 C1210 1.363 . S
C1208 H1224 0.931 . S
C1209 C1208 1.370 . S
C1209 C1213 1.408 . S
C1210 C1208 1.363 . S
C1210 C1211 1.370 . S
C1210 C1214 1.524 . S
C1211 C1203 1.503 . S
C1211 C1210 1.370 . S
C1211 C1212 1.403 . S
C1212 C1211 1.403 . S
C1212 C1213 1.404 . S
C1212 C1215 1.539 . S
C1213 C1209 1.408 . S
C1213 C1212 1.404 . S
C1213 H1225 0.930 . S
C1214 C1210 1.524 . S
C1214 H1226 0.956 . S
C1214 H1227 0.961 . S
C1214 H1228 0.961 . S
C1215 C1212 1.539 . S
C1215 H1229 0.958 . S
C1215 H1230 0.961 . S
C1215 H1231 0.960 . S
H1216 C1200 0.931 . S
H1217 C1205 0.929 . S
H1218 C1206 0.960 . S
H1219 C1206 0.962 . S
H1220 C1206 0.960 . S
H1221 C1207 0.961 . S
H1222 C1207 0.961 . S
H1223 C1207 0.961 . S
H1224 C1208 0.931 . S
H1225 C1213 0.930 . S
H1226 C1214 0.956 . S
H1227 C1214 0.961 . S
H1228 C1214 0.961 . S
H1229 C1215 0.958 . S
H1230 C1215 0.961 . S
H1231 C1215 0.960 . S
C1232 C1233 1.391 . S
C1232 C1234 1.394 . S
C1232 H1248 0.931 . S
C1233 C1232 1.391 . S
C1233 C1237 1.376 . S
C1234 C1232 1.394 . S
C1234 C1235 1.369 . S
C1234 C1238 1.531 . S
C1235 C1234 1.369 . S
C1235 C1236 1.410 . S
C1235 C1243 1.503 . S
C1236 C1235 1.410 . S
C1236 C1237 1.392 . S
C1236 C1239 1.511 . S
C1237 C1233 1.376 . S
C1237 C1236 1.392 . S
C1237 H1249 0.929 . S
C1238 C1234 1.531 . S
C1238 H1250 0.960 . S
C1238 H1251 0.962 . S
C1238 H1252 0.960 . S
C1239 C1236 1.511 . S
C1239 H1253 0.961 . S
C1239 H1254 0.961 1_655 S
C1239 H1255 0.960 1_655 S
C1240 C1241 1.370 . S
C1240 C1242 1.363 1_455 S
C1240 H1256 0.931 . S
C1241 C1240 1.370 . S
C1241 C1245 1.408 . S
C1242 C1240 1.363 1_655 S
C1242 C1243 1.370 . S
C1242 C1246 1.524 1_545 S
C1243 C1235 1.503 . S
C1243 C1242 1.370 . S
C1243 C1244 1.403 . S
C1244 C1243 1.403 . S
C1244 C1245 1.404 1_655 S
C1244 C1247 1.539 . S
C1245 C1241 1.408 . S
C1245 C1244 1.404 1_455 S
C1245 H1257 0.930 . S
C1246 C1242 1.524 1_565 S
C1246 H1258 0.956 . S
C1246 H1259 0.961 . S
C1246 H1260 0.961 . S
C1247 C1244 1.539 . S
C1247 H1261 0.958 . S
C1247 H1262 0.961 1_655 S
C1247 H1263 0.960 . S
H1248 C1232 0.931 . S
H1249 C1237 0.929 . S
H1250 C1238 0.960 . S
H1251 C1238 0.962 . S
H1252 C1238 0.960 . S
H1253 C1239 0.961 . S
H1254 C1239 0.961 1_455 S
H1255 C1239 0.960 1_455 S
H1256 C1240 0.931 . S
H1257 C1245 0.930 . S
H1258 C1246 0.956 . S
H1259 C1246 0.961 . S
H1260 C1246 0.961 . S
H1261 C1247 0.958 . S
H1262 C1247 0.961 1_455 S
H1263 C1247 0.960 . S
C1264 C1265 1.391 . S
C1264 C1266 1.394 . S
C1264 H1280 0.931 . S
C1265 C1264 1.391 . S
C1265 C1269 1.376 . S
C1266 C1264 1.394 . S
C1266 C1267 1.369 . S
C1266 C1270 1.531 . S
C1267 C1266 1.369 . S
C1267 C1268 1.410 . S
C1267 C1275 1.503 . S
C1268 C1267 1.410 . S
C1268 C1269 1.392 . S
C1268 C1271 1.511 . S
C1269 C1265 1.376 . S
C1269 C1268 1.392 . S
C1269 H1281 0.929 . S
C1270 C1266 1.531 . S
C1270 H1282 0.960 . S
C1270 H1283 0.962 . S
C1270 H1284 0.960 . S
C1271 C1268 1.511 . S
C1271 H1285 0.961 . S
C1271 H1286 0.961 . S
C1271 H1287 0.961 . S
C1272 C1273 1.370 . S
C1272 C1274 1.363 . S
C1272 H1288 0.931 . S
C1273 C1272 1.370 . S
C1273 C1277 1.408 . S
C1274 C1272 1.363 . S
C1274 C1275 1.370 . S
C1274 C1278 1.524 . S
C1275 C1267 1.503 . S
C1275 C1274 1.370 . S
C1275 C1276 1.403 . S
C1276 C1275 1.403 . S
C1276 C1277 1.404 . S
C1276 C1279 1.539 . S
C1277 C1273 1.408 . S
C1277 C1276 1.404 . S
C1277 H1289 0.930 . S
C1278 C1274 1.524 . S
C1278 H1290 0.956 . S
C1278 H1291 0.961 . S
C1278 H1292 0.961 . S
C1279 C1276 1.539 . S
C1279 H1293 0.958 . S
C1279 H1294 0.961 . S
C1279 H1295 0.960 . S
H1280 C1264 0.931 . S
H1281 C1269 0.929 . S
H1282 C1270 0.960 . S
H1283 C1270 0.962 . S
H1284 C1270 0.960 . S
H1285 C1271 0.961 . S
H1286 C1271 0.961 . S
H1287 C1271 0.961 . S
H1288 C1272 0.931 . S
H1289 C1277 0.930 . S
H1290 C1278 0.956 . S
H1291 C1278 0.961 . S
H1292 C1278 0.961 . S
H1293 C1279 0.958 . S
H1294 C1279 0.961 . S
H1295 C1279 0.960 . S
C1296 C1297 1.391 . S
C1296 C1298 1.394 . S
C1296 H1312 0.931 1_545 S
C1297 C1296 1.391 . S
C1297 C1301 1.376 . S
C1298 C1296 1.394 . S
C1298 C1299 1.369 . S
C1298 C1302 1.531 . S
C1299 C1298 1.369 . S
C1299 C1300 1.410 . S
C1299 C1307 1.503 . S
C1300 C1299 1.410 . S
C1300 C1301 1.392 . S
C1300 C1303 1.511 . S
C1301 C1297 1.376 . S
C1301 C1300 1.392 . S
C1301 H1313 0.929 . S
C1302 C1298 1.531 . S
C1302 H1314 0.960 . S
C1302 H1315 0.962 1_545 S
C1302 H1316 0.960 . S
C1303 C1300 1.511 . S
C1303 H1317 0.961 . S
C1303 H1318 0.961 . S
C1303 H1319 0.961 . S
C1304 C1305 1.370 . S
C1304 C1306 1.363 . S
C1304 H1320 0.931 1_545 S
C1305 C1304 1.370 . S
C1305 C1309 1.408 . S
C1306 C1304 1.363 . S
C1306 C1307 1.370 . S
C1306 C1310 1.524 1_545 S
C1307 C1299 1.503 . S
C1307 C1306 1.370 . S
C1307 C1308 1.403 . S
C1308 C1307 1.403 . S
C1308 C1309 1.404 . S
C1308 C1311 1.539 . S
C1309 C1305 1.408 . S
C1309 C1308 1.404 . S
C1309 H1321 0.930 . S
C1310 C1306 1.524 1_565 S
C1310 H1322 0.956 . S
C1310 H1323 0.961 . S
C1310 H1324 0.961 . S
C1311 C1308 1.539 . S
C1311 H1325 0.958 . S
C1311 H1326 0.961 . S
C1311 H1327 0.960 . S
H1312 C1296 0.931 1_565 S
H1313 C1301 0.929 . S
H1314 C1302 0.960 . S
H1315 C1302 0.962 1_565 S
H1316 C1302 0.960 . S
H1317 C1303 0.961 . S
H1318 C1303 0.961 . S
H1319 C1303 0.961 . S
H1320 C1304 0.931 1_565 S
H1321 C1309 0.930 . S
H1322 C1310 0.956 . S
H1323 C1310 0.961 . S
H1324 C1310 0.961 . S
H1325 C1311 0.958 . S
H1326 C1311 0.961 . S
H1327 C1311 0.960 . S
C1328 C1329 1.391 . S
C1328 C1330 1.394 . S
C1328 H1344 0.931 . S
C1329 C1328 1.391 . S
C1329 C1333 1.376 . S
C1330 C1328 1.394 . S
C1330 C1331 1.369 . S
C1330 C1334 1.531 . S
C1331 C1330 1.369 . S
C1331 C1332 1.410 . S
C1331 C1339 1.503 . S
C1332 C1331 1.410 . S
C1332 C1333 1.392 . S
C1332 C1335 1.511 . S
C1333 C1329 1.376 . S
C1333 C1332 1.392 . S
C1333 H1345 0.929 . S
C1334 C1330 1.531 . S
C1334 H1346 0.960 . S
C1334 H1347 0.962 . S
C1334 H1348 0.960 . S
C1335 C1332 1.511 . S
C1335 H1349 0.961 . S
C1335 H1350 0.961 . S
C1335 H1351 0.961 . S
C1336 C1337 1.370 . S
C1336 C1338 1.363 . S
C1336 H1352 0.931 . S
C1337 C1336 1.370 . S
C1337 C1341 1.408 . S
C1338 C1336 1.363 . S
C1338 C1339 1.370 . S
C1338 C1342 1.524 . S
C1339 C1331 1.503 . S
C1339 C1338 1.370 . S
C1339 C1340 1.403 . S
C1340 C1339 1.403 . S
C1340 C1341 1.404 . S
C1340 C1343 1.539 . S
C1341 C1337 1.408 . S
C1341 C1340 1.404 . S
C1341 H1353 0.930 . S
C1342 C1338 1.524 . S
C1342 H1354 0.956 . S
C1342 H1355 0.961 . S
C1342 H1356 0.961 . S
C1343 C1340 1.539 . S
C1343 H1357 0.958 . S
C1343 H1358 0.961 . S
C1343 H1359 0.960 . S
H1344 C1328 0.931 . S
H1345 C1333 0.929 . S
H1346 C1334 0.960 . S
H1347 C1334 0.962 . S
H1348 C1334 0.960 . S
H1349 C1335 0.961 . S
H1350 C1335 0.961 . S
H1351 C1335 0.961 . S
H1352 C1336 0.931 . S
H1353 C1341 0.930 . S
H1354 C1342 0.956 . S
H1355 C1342 0.961 . S
H1356 C1342 0.961 . S
H1357 C1343 0.958 . S
H1358 C1343 0.961 . S
H1359 C1343 0.960 . S
C1360 C1361 1.391 . S
C1360 C1362 1.394 . S
C1360 H1376 0.931 . S
C1361 C1360 1.391 . S
C1361 C1365 1.376 1_565 S
C1362 C1360 1.394 . S
C1362 C1363 1.369 1_565 S
C1362 C1366 1.531 . S
C1363 C1362 1.369 1_545 S
C1363 C1364 1.410 . S
C1363 C1371 1.503 . S
C1364 C1363 1.410 . S
C1364 C1365 1.392 . S
C1364 C1367 1.511 . S
C1365 C1361 1.376 1_545 S
C1365 C1364 1.392 . S
C1365 H1377 0.929 . S
C1366 C1362 1.531 . S
C1366 H1378 0.960 . S
C1366 H1379 0.962 . S
C1366 H1380 0.960 . S
C1367 C1364 1.511 . S
C1367 H1381 0.961 . S
C1367 H1382 0.961 . S
C1367 H1383 0.961 . S
C1368 C1369 1.370 1_655 S
C1368 C1370 1.363 . S
C1368 H1384 0.931 . S
C1369 C1368 1.370 1_455 S
C1369 C1373 1.408 . S
C1370 C1368 1.363 . S
C1370 C1371 1.370 . S
C1370 C1374 1.524 1_545 S
C1371 C1363 1.503 . S
C1371 C1370 1.370 . S
C1371 C1372 1.403 . S
C1372 C1371 1.403 . S
C1372 C1373 1.404 1_655 S
C1372 C1375 1.539 1_655 S
C1373 C1369 1.408 . S
C1373 C1372 1.404 1_455 S
C1373 H1385 0.930 . S
C1374 C1370 1.524 1_565 S
C1374 H1386 0.956 . S
C1374 H1387 0.961 . S
C1374 H1388 0.961 . S
C1375 C1372 1.539 1_455 S
C1375 H1389 0.958 . S
C1375 H1390 0.961 . S
C1375 H1391 0.960 1_455 S
H1376 C1360 0.931 . S
H1377 C1365 0.929 . S
H1378 C1366 0.960 . S
H1379 C1366 0.962 . S
H1380 C1366 0.960 . S
H1381 C1367 0.961 . S
H1382 C1367 0.961 . S
H1383 C1367 0.961 . S
H1384 C1368 0.931 . S
H1385 C1373 0.930 . S
H1386 C1374 0.956 . S
H1387 C1374 0.961 . S
H1388 C1374 0.961 . S
H1389 C1375 0.958 . S
H1390 C1375 0.961 . S
H1391 C1375 0.960 1_655 S
C1392 C1393 1.391 . S
C1392 C1394 1.394 . S
C1392 H1408 0.931 . S
C1393 C1392 1.391 . S
C1393 C1397 1.376 . S
C1394 C1392 1.394 . S
C1394 C1395 1.369 . S
C1394 C1398 1.531 . S
C1395 C1394 1.369 . S
C1395 C1396 1.410 . S
C1395 C1403 1.503 . S
C1396 C1395 1.410 . S
C1396 C1397 1.392 . S
C1396 C1399 1.511 . S
C1397 C1393 1.376 . S
C1397 C1396 1.392 . S
C1397 H1409 0.929 . S
C1398 C1394 1.531 . S
C1398 H1410 0.960 . S
C1398 H1411 0.962 . S
C1398 H1412 0.960 . S
C1399 C1396 1.511 . S
C1399 H1413 0.961 . S
C1399 H1414 0.961 . S
C1399 H1415 0.961 . S
C1400 C1401 1.370 . S
C1400 C1402 1.363 . S
C1400 H1416 0.931 . S
C1401 C1400 1.370 . S
C1401 C1405 1.408 . S
C1402 C1400 1.363 . S
C1402 C1403 1.370 . S
C1402 C1406 1.524 . S
C1403 C1395 1.503 . S
C1403 C1402 1.370 . S
C1403 C1404 1.403 . S
C1404 C1403 1.403 . S
C1404 C1405 1.404 . S
C1404 C1407 1.539 . S
C1405 C1401 1.408 . S
C1405 C1404 1.404 . S
C1405 H1417 0.930 . S
C1406 C1402 1.524 . S
C1406 H1418 0.956 . S
C1406 H1419 0.961 . S
C1406 H1420 0.961 . S
C1407 C1404 1.539 . S
C1407 H1421 0.958 . S
C1407 H1422 0.961 . S
C1407 H1423 0.960 . S
H1408 C1392 0.931 . S
H1409 C1397 0.929 . S
H1410 C1398 0.960 . S
H1411 C1398 0.962 . S
H1412 C1398 0.960 . S
H1413 C1399 0.961 . S
H1414 C1399 0.961 . S
H1415 C1399 0.961 . S
H1416 C1400 0.931 . S
H1417 C1405 0.930 . S
H1418 C1406 0.956 . S
H1419 C1406 0.961 . S
H1420 C1406 0.961 . S
H1421 C1407 0.958 . S
H1422 C1407 0.961 . S
H1423 C1407 0.960 . S
C1424 C1425 1.391 1_565 S
C1424 C1426 1.394 1_565 S
C1424 H1440 0.931 . S
C1425 C1424 1.391 1_545 S
C1425 C1429 1.376 . S
C1426 C1424 1.394 1_545 S
C1426 C1427 1.369 . S
C1426 C1430 1.529 1_545 S
C1427 C1426 1.369 . S
C1427 C1428 1.410 . S
C1427 C1435 1.503 . S
C1428 C1427 1.410 . S
C1428 C1429 1.392 . S
C1428 C1431 1.511 . S
C1429 C1425 1.376 . S
C1429 C1428 1.392 . S
C1429 H1441 0.929 . S
C1430 C1426 1.529 1_565 S
C1430 H1442 0.960 1_565 S
C1430 H1443 0.939 1_565 S
C1430 H1444 0.986 . S
C1431 C1428 1.511 . S
C1431 H1445 0.961 . S
C1431 H1446 0.961 . S
C1431 H1447 0.961 . S
C1432 C1433 1.370 . S
C1432 C1434 1.363 . S
C1432 H1448 0.931 . S
C1433 C1432 1.370 . S
C1433 C1437 1.408 . S
C1434 C1432 1.363 . S
C1434 C1435 1.370 . S
C1434 C1438 1.524 . S
C1435 C1427 1.503 . S
C1435 C1434 1.370 . S
C1435 C1436 1.403 . S
C1436 C1435 1.403 . S
C1436 C1437 1.404 . S
C1436 C1439 1.539 . S
C1437 C1433 1.408 . S
C1437 C1436 1.404 . S
C1437 H1449 0.930 . S
C1438 C1434 1.524 . S
C1438 H1450 0.956 . S
C1438 H1451 0.961 . S
C1438 H1452 0.961 . S
C1439 C1436 1.539 . S
C1439 H1453 0.958 1_545 S
C1439 H1454 0.961 . S
C1439 H1455 0.960 . S
H1440 C1424 0.931 . S
H1441 C1429 0.929 . S
H1442 C1430 0.960 1_545 S
H1443 C1430 0.939 1_545 S
H1444 C1430 0.986 . S
H1445 C1431 0.961 . S
H1446 C1431 0.961 . S
H1447 C1431 0.961 . S
H1448 C1432 0.931 . S
H1449 C1437 0.930 . S
H1450 C1438 0.956 . S
H1451 C1438 0.961 . S
H1452 C1438 0.961 . S
H1453 C1439 0.958 1_565 S
H1454 C1439 0.961 . S
H1455 C1439 0.960 . S
C1456 C1457 1.391 . S
C1456 C1458 1.394 . S
C1456 H1472 0.931 . S
C1457 C1456 1.391 . S
C1457 C1461 1.376 . S
C1458 C1456 1.394 . S
C1458 C1459 1.369 . S
C1458 C1462 1.531 . S
C1459 C1458 1.369 . S
C1459 C1460 1.410 . S
C1459 C1467 1.503 . S
C1460 C1459 1.410 . S
C1460 C1461 1.392 . S
C1460 C1463 1.511 . S
C1461 C1457 1.376 . S
C1461 C1460 1.392 . S
C1461 H1473 0.929 . S
C1462 C1458 1.531 . S
C1462 H1474 0.960 . S
C1462 H1475 0.962 . S
C1462 H1476 0.960 . S
C1463 C1460 1.511 . S
C1463 H1477 0.961 . S
C1463 H1478 0.961 . S
C1463 H1479 0.961 . S
C1464 C1465 1.370 . S
C1464 C1466 1.363 . S
C1464 H1480 0.931 . S
C1465 C1464 1.370 . S
C1465 C1469 1.408 . S
C1466 C1464 1.363 . S
C1466 C1467 1.370 . S
C1466 C1470 1.524 . S
C1467 C1459 1.503 . S
C1467 C1466 1.370 . S
C1467 C1468 1.403 . S
C1468 C1467 1.403 . S
C1468 C1469 1.404 . S
C1468 C1471 1.539 . S
C1469 C1465 1.408 . S
C1469 C1468 1.404 . S
C1469 H1481 0.930 . S
C1470 C1466 1.524 . S
C1470 H1482 0.956 . S
C1470 H1483 0.961 . S
C1470 H1484 0.961 . S
C1471 C1468 1.539 . S
C1471 H1485 0.958 . S
C1471 H1486 0.961 . S
C1471 H1487 0.960 . S
H1472 C1456 0.931 . S
H1473 C1461 0.929 . S
H1474 C1462 0.960 . S
H1475 C1462 0.962 . S
H1476 C1462 0.960 . S
H1477 C1463 0.961 . S
H1478 C1463 0.961 . S
H1479 C1463 0.961 . S
H1480 C1464 0.931 . S
H1481 C1469 0.930 . S
H1482 C1470 0.956 . S
H1483 C1470 0.961 . S
H1484 C1470 0.961 . S
H1485 C1471 0.958 . S
H1486 C1471 0.961 . S
H1487 C1471 0.960 . S
C1488 C1489 1.391 . S
C1488 C1490 1.394 . S
C1488 H1504 0.931 . S
C1489 C1488 1.391 . S
C1489 C1493 1.376 . S
C1490 C1488 1.394 . S
C1490 C1491 1.369 . S
C1490 C1494 1.531 . S
C1491 C1490 1.369 . S
C1491 C1492 1.410 . S
C1491 C1499 1.503 . S
C1492 C1491 1.410 . S
C1492 C1493 1.392 . S
C1492 C1495 1.511 . S
C1493 C1489 1.376 . S
C1493 C1492 1.392 . S
C1493 H1505 0.929 . S
C1494 C1490 1.531 . S
C1494 H1506 0.960 . S
C1494 H1507 0.962 . S
C1494 H1508 0.960 . S
C1495 C1492 1.511 . S
C1495 H1509 0.961 . S
C1495 H1510 0.961 . S
C1495 H1511 0.961 . S
C1496 C1497 1.370 . S
C1496 C1498 1.363 . S
C1496 H1512 0.931 . S
C1497 C1496 1.370 . S
C1497 C1501 1.408 . S
C1498 C1496 1.363 . S
C1498 C1499 1.370 . S
C1498 C1502 1.524 . S
C1499 C1491 1.503 . S
C1499 C1498 1.370 . S
C1499 C1500 1.403 . S
C1500 C1499 1.403 . S
C1500 C1501 1.404 . S
C1500 C1503 1.539 . S
C1501 C1497 1.408 . S
C1501 C1500 1.404 . S
C1501 H1513 0.930 1_565 S
C1502 C1498 1.524 . S
C1502 H1514 0.956 . S
C1502 H1515 0.961 . S
C1502 H1516 0.961 . S
C1503 C1500 1.539 . S
C1503 H1517 0.958 . S
C1503 H1518 0.961 . S
C1503 H1519 0.960 . S
H1504 C1488 0.931 . S
H1505 C1493 0.929 . S
H1506 C1494 0.960 . S
H1507 C1494 0.962 . S
H1508 C1494 0.960 . S
H1509 C1495 0.961 . S
H1510 C1495 0.961 . S
H1511 C1495 0.961 . S
H1512 C1496 0.931 . S
H1513 C1501 0.930 1_545 S
H1514 C1502 0.956 . S
H1515 C1502 0.961 . S
H1516 C1502 0.961 . S
H1517 C1503 0.958 . S
H1518 C1503 0.961 . S
H1519 C1503 0.960 . S
C1520 C1521 1.391 . S
C1520 C1522 1.394 . S
C1520 H1536 0.931 . S
C1521 C1520 1.391 . S
C1521 C1525 1.376 . S
C1522 C1520 1.394 . S
C1522 C1523 1.369 . S
C1522 C1526 1.531 . S
C1523 C1522 1.369 . S
C1523 C1524 1.410 . S
C1523 C1531 1.503 . S
C1524 C1523 1.410 . S
C1524 C1525 1.392 . S
C1524 C1527 1.511 . S
C1525 C1521 1.376 . S
C1525 C1524 1.392 . S
C1525 H1537 0.929 . S
C1526 C1522 1.531 . S
C1526 H1538 0.960 1_554 S
C1526 H1539 0.962 . S
C1526 H1540 0.960 1_554 S
C1527 C1524 1.511 . S
C1527 H1541 0.961 . S
C1527 H1542 0.961 . S
C1527 H1543 0.961 . S
C1528 C1529 1.370 . S
C1528 C1530 1.363 . S
C1528 H1544 0.931 . S
C1529 C1528 1.370 . S
C1529 C1533 1.408 . S
C1530 C1528 1.363 . S
C1530 C1531 1.370 . S
C1530 C1534 1.524 . S
C1531 C1523 1.503 . S
C1531 C1530 1.370 . S
C1531 C1532 1.403 . S
C1532 C1531 1.403 . S
C1532 C1533 1.404 . S
C1532 C1535 1.539 1_554 S
C1533 C1529 1.408 . S
C1533 C1532 1.404 . S
C1533 H1545 0.930 . S
C1534 C1530 1.524 . S
C1534 H1546 0.956 . S
C1534 H1547 0.961 . S
C1534 H1548 0.961 . S
C1535 C1532 1.539 1_556 S
C1535 H1549 0.958 . S
C1535 H1550 0.961 . S
C1535 H1551 0.960 . S
H1536 C1520 0.931 . S
H1537 C1525 0.929 . S
H1538 C1526 0.960 1_556 S
H1539 C1526 0.962 . S
H1540 C1526 0.960 1_556 S
H1541 C1527 0.961 . S
H1542 C1527 0.961 . S
H1543 C1527 0.961 . S
H1544 C1528 0.931 . S
H1545 C1533 0.930 . S
H1546 C1534 0.956 . S
H1547 C1534 0.961 . S
H1548 C1534 0.961 . S
H1549 C1535 0.958 . S
H1550 C1535 0.961 . S
H1551 C1535 0.960 . S
C1552 C1553 1.391 . S
C1552 C1554 1.394 . S
C1552 H1568 0.931 . S
C1553 C1552 1.391 . S
C1553 C1557 1.376 . S
C1554 C1552 1.394 . S
C1554 C1555 1.369 . S
C1554 C1558 1.531 . S
C1555 C1554 1.369 . S
C1555 C1556 1.410 . S
C1555 C1563 1.503 . S
C1556 C1555 1.410 . S
C1556 C1557 1.392 . S
C1556 C1559 1.511 . S
C1557 C1553 1.376 . S
C1557 C1556 1.392 . S
C1557 H1569 0.929 . S
C1558 C1554 1.531 . S
C1558 H1570 0.960 . S
C1558 H1571 0.962 . S
C1558 H1572 0.960 . S
C1559 C1556 1.511 . S
C1559 H1573 0.961 . S
C1559 H1574 0.961 . S
C1559 H1575 0.961 . S
C1560 C1561 1.370 . S
C1560 C1562 1.363 . S
C1560 H1576 0.931 . S
C1561 C1560 1.370 . S
C1561 C1565 1.408 . S
C1562 C1560 1.363 . S
C1562 C1563 1.370 . S
C1562 C1566 1.524 . S
C1563 C1555 1.503 . S
C1563 C1562 1.370 . S
C1563 C1564 1.403 . S
C1564 C1563 1.403 . S
C1564 C1565 1.404 . S
C1564 C1567 1.539 . S
C1565 C1561 1.408 . S
C1565 C1564 1.404 . S
C1565 H1577 0.930 . S
C1566 C1562 1.524 . S
C1566 H1578 0.956 . S
C1566 H1579 0.961 . S
C1566 H1580 0.961 . S
C1567 C1564 1.539 . S
C1567 H1581 0.958 . S
C1567 H1582 0.961 . S
C1567 H1583 0.960 . S
H1568 C1552 0.931 . S
H1569 C1557 0.929 . S
H1570 C1558 0.960 . S
H1571 C1558 0.962 . S
H1572 C1558 0.960 . S
H1573 C1559 0.961 . S
H1574 C1559 0.961 . S
H1575 C1559 0.961 . S
H1576 C1560 0.931 . S
H1577 C1565 0.930 . S
H1578 C1566 0.956 . S
H1579 C1566 0.961 . S
H1580 C1566 0.961 . S
H1581 C1567 0.958 . S
H1582 C1567 0.961 . S
H1583 C1567 0.960 . S
C1584 C1585 1.391 . S
C1584 C1586 1.394 . S
C1584 H1600 0.931 . S
C1585 C1584 1.391 . S
C1585 C1589 1.376 . S
C1586 C1584 1.394 . S
C1586 C1587 1.369 . S
C1586 C1590 1.531 . S
C1587 C1586 1.369 . S
C1587 C1588 1.410 . S
C1587 C1595 1.503 . S
C1588 C1587 1.410 . S
C1588 C1589 1.392 . S
C1588 C1591 1.511 . S
C1589 C1585 1.376 . S
C1589 C1588 1.392 . S
C1589 H1601 0.929 . S
C1590 C1586 1.531 . S
C1590 H1602 0.960 . S
C1590 H1603 0.962 . S
C1590 H1604 0.960 . S
C1591 C1588 1.511 . S
C1591 H1605 0.961 . S
C1591 H1606 0.961 . S
C1591 H1607 0.961 . S
C1592 C1593 1.370 . S
C1592 C1594 1.363 . S
C1592 H1608 0.931 . S
C1593 C1592 1.370 . S
C1593 C1597 1.408 . S
C1594 C1592 1.363 . S
C1594 C1595 1.370 . S
C1594 C1598 1.524 . S
C1595 C1587 1.503 . S
C1595 C1594 1.370 . S
C1595 C1596 1.403 . S
C1596 C1595 1.403 . S
C1596 C1597 1.404 . S
C1596 C1599 1.539 . S
C1597 C1593 1.408 . S
C1597 C1596 1.404 . S
C1597 H1609 0.930 . S
C1598 C1594 1.524 . S
C1598 H1610 0.956 . S
C1598 H1611 0.961 . S
C1598 H1612 0.961 . S
C1599 C1596 1.539 . S
C1599 H1613 0.958 . S
C1599 H1614 0.961 . S
C1599 H1615 0.960 . S
H1600 C1584 0.931 . S
H1601 C1589 0.929 . S
H1602 C1590 0.960 . S
H1603 C1590 0.962 . S
H1604 C1590 0.960 . S
H1605 C1591 0.961 . S
H1606 C1591 0.961 . S
H1607 C1591 0.961 . S
H1608 C1592 0.931 . S
H1609 C1597 0.930 . S
H1610 C1598 0.956 . S
H1611 C1598 0.961 . S
H1612 C1598 0.961 . S
H1613 C1599 0.958 . S
H1614 C1599 0.961 . S
H1615 C1599 0.960 . S
C1616 C1617 1.391 . S
C1616 C1618 1.394 . S
C1616 H1632 0.931 . S
C1617 C1616 1.391 . S
C1617 C1621 1.376 . S
C1618 C1616 1.394 . S
C1618 C1619 1.369 . S
C1618 C1622 1.531 . S
C1619 C1618 1.369 . S
C1619 C1620 1.410 . S
C1619 C1627 1.503 . S
C1620 C1619 1.410 . S
C1620 C1621 1.392 . S
C1620 C1623 1.511 . S
C1621 C1617 1.376 . S
C1621 C1620 1.392 . S
C1621 H1633 0.929 . S
C1622 C1618 1.531 . S
C1622 H1634 0.960 . S
C1622 H1635 0.962 . S
C1622 H1636 0.960 . S
C1623 C1620 1.511 . S
C1623 H1637 0.961 . S
C1623 H1638 0.961 . S
C1623 H1639 0.961 . S
C1624 C1625 1.370 . S
C1624 C1626 1.363 . S
C1624 H1640 0.931 . S
C1625 C1624 1.370 . S
C1625 C1629 1.408 . S
C1626 C1624 1.363 . S
C1626 C1627 1.370 . S
C1626 C1630 1.524 . S
C1627 C1619 1.503 . S
C1627 C1626 1.370 . S
C1627 C1628 1.403 . S
C1628 C1627 1.403 . S
C1628 C1629 1.404 . S
C1628 C1631 1.539 . S
C1629 C1625 1.408 . S
C1629 C1628 1.404 . S
C1629 H1641 0.930 . S
C1630 C1626 1.524 . S
C1630 H1642 0.956 . S
C1630 H1643 0.961 . S
C1630 H1644 0.961 . S
C1631 C1628 1.539 . S
C1631 H1645 0.958 . S
C1631 H1646 0.961 . S
C1631 H1647 0.960 . S
H1632 C1616 0.931 . S
H1633 C1621 0.929 . S
H1634 C1622 0.960 . S
H1635 C1622 0.962 . S
H1636 C1622 0.960 . S
H1637 C1623 0.961 . S
H1638 C1623 0.961 . S
H1639 C1623 0.961 . S
H1640 C1624 0.931 . S
H1641 C1629 0.930 . S
H1642 C1630 0.956 . S
H1643 C1630 0.961 . S
H1644 C1630 0.961 . S
H1645 C1631 0.958 . S
H1646 C1631 0.961 . S
H1647 C1631 0.960 . S
C1648 C1649 1.391 . S
C1648 C1650 1.394 . S
C1648 H1664 0.931 . S
C1649 C1648 1.391 . S
C1649 C1653 1.376 . S
C1650 C1648 1.394 . S
C1650 C1651 1.369 . S
C1650 C1654 1.531 . S
C1651 C1650 1.369 . S
C1651 C1652 1.410 . S
C1651 C1659 1.503 . S
C1652 C1651 1.410 . S
C1652 C1653 1.392 . S
C1652 C1655 1.511 . S
C1653 C1649 1.376 . S
C1653 C1652 1.392 . S
C1653 H1665 0.929 . S
C1654 C1650 1.531 . S
C1654 H1666 0.960 . S
C1654 H1667 0.962 . S
C1654 H1668 0.960 . S
C1655 C1652 1.511 . S
C1655 H1669 0.961 . S
C1655 H1670 0.961 . S
C1655 H1671 0.961 . S
C1656 C1657 1.370 . S
C1656 C1658 1.363 . S
C1656 H1672 0.931 . S
C1657 C1656 1.370 . S
C1657 C1661 1.408 . S
C1658 C1656 1.363 . S
C1658 C1659 1.370 . S
C1658 C1662 1.524 . S
C1659 C1651 1.503 . S
C1659 C1658 1.370 . S
C1659 C1660 1.403 . S
C1660 C1659 1.403 . S
C1660 C1661 1.404 . S
C1660 C1663 1.539 . S
C1661 C1657 1.408 . S
C1661 C1660 1.404 . S
C1661 H1673 0.930 . S
C1662 C1658 1.524 . S
C1662 H1674 0.956 . S
C1662 H1675 0.961 . S
C1662 H1676 0.961 . S
C1663 C1660 1.539 . S
C1663 H1677 0.958 . S
C1663 H1678 0.961 . S
C1663 H1679 0.960 . S
H1664 C1648 0.931 . S
H1665 C1653 0.929 . S
H1666 C1654 0.960 . S
H1667 C1654 0.962 . S
H1668 C1654 0.960 . S
H1669 C1655 0.961 . S
H1670 C1655 0.961 . S
H1671 C1655 0.961 . S
H1672 C1656 0.931 . S
H1673 C1661 0.930 . S
H1674 C1662 0.956 . S
H1675 C1662 0.961 . S
H1676 C1662 0.961 . S
H1677 C1663 0.958 . S
H1678 C1663 0.961 . S
H1679 C1663 0.960 . S
C1680 C1681 1.391 . S
C1680 C1682 1.394 . S
C1680 H1696 0.931 . S
C1681 C1680 1.391 . S
C1681 C1685 1.376 . S
C1682 C1680 1.394 . S
C1682 C1683 1.369 . S
C1682 C1686 1.531 . S
C1683 C1682 1.369 . S
C1683 C1684 1.410 . S
C1683 C1691 1.503 . S
C1684 C1683 1.410 . S
C1684 C1685 1.392 . S
C1684 C1687 1.511 . S
C1685 C1681 1.376 . S
C1685 C1684 1.392 . S
C1685 H1697 0.929 . S
C1686 C1682 1.531 . S
C1686 H1698 0.960 . S
C1686 H1699 0.962 . S
C1686 H1700 0.960 . S
C1687 C1684 1.511 . S
C1687 H1701 0.961 . S
C1687 H1702 0.961 . S
C1687 H1703 0.961 . S
C1688 C1689 1.370 . S
C1688 C1690 1.363 . S
C1688 H1704 0.931 . S
C1689 C1688 1.370 . S
C1689 C1693 1.408 . S
C1690 C1688 1.363 . S
C1690 C1691 1.370 . S
C1690 C1694 1.524 . S
C1691 C1683 1.503 . S
C1691 C1690 1.370 . S
C1691 C1692 1.403 . S
C1692 C1691 1.403 . S
C1692 C1693 1.404 . S
C1692 C1695 1.539 . S
C1693 C1689 1.408 . S
C1693 C1692 1.404 . S
C1693 H1705 0.930 . S
C1694 C1690 1.524 . S
C1694 H1706 0.956 . S
C1694 H1707 0.961 . S
C1694 H1708 0.961 . S
C1695 C1692 1.539 . S
C1695 H1709 0.958 . S
C1695 H1710 0.961 . S
C1695 H1711 0.960 . S
H1696 C1680 0.931 . S
H1697 C1685 0.929 . S
H1698 C1686 0.960 . S
H1699 C1686 0.962 . S
H1700 C1686 0.960 . S
H1701 C1687 0.961 . S
H1702 C1687 0.961 . S
H1703 C1687 0.961 . S
H1704 C1688 0.931 . S
H1705 C1693 0.930 . S
H1706 C1694 0.956 . S
H1707 C1694 0.961 . S
H1708 C1694 0.961 . S
H1709 C1695 0.958 . S
H1710 C1695 0.961 . S
H1711 C1695 0.960 . S
C1712 C1713 1.391 . S
C1712 C1714 1.394 . S
C1712 H1728 0.931 . S
C1713 C1712 1.391 . S
C1713 C1717 1.376 . S
C1714 C1712 1.394 . S
C1714 C1715 1.369 . S
C1714 C1718 1.531 . S
C1715 C1714 1.369 . S
C1715 C1716 1.410 . S
C1715 C1723 1.503 . S
C1716 C1715 1.410 . S
C1716 C1717 1.392 . S
C1716 C1719 1.511 . S
C1717 C1713 1.376 . S
C1717 C1716 1.392 . S
C1717 H1729 0.929 . S
C1718 C1714 1.531 . S
C1718 H1730 0.960 . S
C1718 H1731 0.962 . S
C1718 H1732 0.960 . S
C1719 C1716 1.511 . S
C1719 H1733 0.961 . S
C1719 H1734 0.961 . S
C1719 H1735 0.961 . S
C1720 C1721 1.370 . S
C1720 C1722 1.363 . S
C1720 H1736 0.931 . S
C1721 C1720 1.370 . S
C1721 C1725 1.408 . S
C1722 C1720 1.363 . S
C1722 C1723 1.370 . S
C1722 C1726 1.524 . S
C1723 C1715 1.503 . S
C1723 C1722 1.370 . S
C1723 C1724 1.403 . S
C1724 C1723 1.403 . S
C1724 C1725 1.404 . S
C1724 C1727 1.539 . S
C1725 C1721 1.408 . S
C1725 C1724 1.404 . S
C1725 H1737 0.930 . S
C1726 C1722 1.524 . S
C1726 H1738 0.956 . S
C1726 H1739 0.961 . S
C1726 H1740 0.961 . S
C1727 C1724 1.539 . S
C1727 H1741 0.958 . S
C1727 H1742 0.961 . S
C1727 H1743 0.960 . S
H1728 C1712 0.931 . S
H1729 C1717 0.929 . S
H1730 C1718 0.960 . S
H1731 C1718 0.962 . S
H1732 C1718 0.960 . S
H1733 C1719 0.961 . S
H1734 C1719 0.961 . S
H1735 C1719 0.961 . S
H1736 C1720 0.931 . S
H1737 C1725 0.930 . S
H1738 C1726 0.956 . S
H1739 C1726 0.961 . S
H1740 C1726 0.961 . S
H1741 C1727 0.958 . S
H1742 C1727 0.961 . S
H1743 C1727 0.960 . S
C1744 C1745 1.391 . S
C1744 C1746 1.394 . S
C1744 H1760 0.931 . S
C1745 C1744 1.391 . S
C1745 C1749 1.376 . S
C1746 C1744 1.394 . S
C1746 C1747 1.369 . S
C1746 C1750 1.531 . S
C1747 C1746 1.369 . S
C1747 C1748 1.410 . S
C1747 C1755 1.503 . S
C1748 C1747 1.410 . S
C1748 C1749 1.392 . S
C1748 C1751 1.511 . S
C1749 C1745 1.376 . S
C1749 C1748 1.392 . S
C1749 H1761 0.929 . S
C1750 C1746 1.531 . S
C1750 H1762 0.960 . S
C1750 H1763 0.962 . S
C1750 H1764 0.960 . S
C1751 C1748 1.511 . S
C1751 H1765 0.961 . S
C1751 H1766 0.961 . S
C1751 H1767 0.961 . S
C1752 C1753 1.370 . S
C1752 C1754 1.363 . S
C1752 H1768 0.931 . S
C1753 C1752 1.370 . S
C1753 C1757 1.408 . S
C1754 C1752 1.363 . S
C1754 C1755 1.370 . S
C1754 C1758 1.524 . S
C1755 C1747 1.503 . S
C1755 C1754 1.370 . S
C1755 C1756 1.403 . S
C1756 C1755 1.403 . S
C1756 C1757 1.404 . S
C1756 C1759 1.539 . S
C1757 C1753 1.408 . S
C1757 C1756 1.404 . S
C1757 H1769 0.930 1_565 S
C1758 C1754 1.524 . S
C1758 H1770 0.956 . S
C1758 H1771 0.961 . S
C1758 H1772 0.961 . S
C1759 C1756 1.539 . S
C1759 H1773 0.958 . S
C1759 H1774 0.975 . S
C1759 H1775 0.960 . S
H1760 C1744 0.931 . S
H1761 C1749 0.929 . S
H1762 C1750 0.960 . S
H1763 C1750 0.962 . S
H1764 C1750 0.960 . S
H1765 C1751 0.961 . S
H1766 C1751 0.961 . S
H1767 C1751 0.961 . S
H1768 C1752 0.931 . S
H1769 C1757 0.930 1_545 S
H1770 C1758 0.956 . S
H1771 C1758 0.961 . S
H1772 C1758 0.961 . S
H1773 C1759 0.958 . S
H1774 C1759 0.975 . S
H1775 C1759 0.960 . S
C1776 C1777 1.391 . S
C1776 C1778 1.394 . S
C1776 H1792 0.931 . S
C1777 C1776 1.391 . S
C1777 C1781 1.376 . S
C1778 C1776 1.394 . S
C1778 C1779 1.369 . S
C1778 C1782 1.531 . S
C1779 C1778 1.369 . S
C1779 C1780 1.410 . S
C1779 C1787 1.503 . S
C1780 C1779 1.410 . S
C1780 C1781 1.392 . S
C1780 C1783 1.511 . S
C1781 C1777 1.376 . S
C1781 C1780 1.392 . S
C1781 H1793 0.929 . S
C1782 C1778 1.531 . S
C1782 H1794 0.960 . S
C1782 H1795 0.962 . S
C1782 H1796 0.960 . S
C1783 C1780 1.511 . S
C1783 H1797 0.961 . S
C1783 H1798 0.961 . S
C1783 H1799 0.961 . S
C1784 C1785 1.370 . S
C1784 C1786 1.363 . S
C1784 H1800 0.931 . S
C1785 C1784 1.370 . S
C1785 C1789 1.408 . S
C1786 C1784 1.363 . S
C1786 C1787 1.370 . S
C1786 C1790 1.524 . S
C1787 C1779 1.503 . S
C1787 C1786 1.370 . S
C1787 C1788 1.403 . S
C1788 C1787 1.403 . S
C1788 C1789 1.404 . S
C1788 C1791 1.539 . S
C1789 C1785 1.408 . S
C1789 C1788 1.404 . S
C1789 H1801 0.930 . S
C1790 C1786 1.524 . S
C1790 H1802 0.956 . S
C1790 H1803 0.961 . S
C1790 H1804 0.961 . S
C1791 C1788 1.539 . S
C1791 H1805 0.958 . S
C1791 H1806 0.961 . S
C1791 H1807 0.960 . S
H1792 C1776 0.931 . S
H1793 C1781 0.929 . S
H1794 C1782 0.960 . S
H1795 C1782 0.962 . S
H1796 C1782 0.960 . S
H1797 C1783 0.961 . S
H1798 C1783 0.961 . S
H1799 C1783 0.961 . S
H1800 C1784 0.931 . S
H1801 C1789 0.930 . S
H1802 C1790 0.956 . S
H1803 C1790 0.961 . S
H1804 C1790 0.961 . S
H1805 C1791 0.958 . S
H1806 C1791 0.961 . S
H1807 C1791 0.960 . S
C1808 C1809 1.391 . S
C1808 C1810 1.394 . S
C1808 H1824 0.931 . S
C1809 C1808 1.391 . S
C1809 C1813 1.376 . S
C1810 C1808 1.394 . S
C1810 C1811 1.369 . S
C1810 C1814 1.531 . S
C1811 C1810 1.369 . S
C1811 C1812 1.410 . S
C1811 C1819 1.503 . S
C1812 C1811 1.410 . S
C1812 C1813 1.392 . S
C1812 C1815 1.511 . S
C1813 C1809 1.376 . S
C1813 C1812 1.392 . S
C1813 H1825 0.929 . S
C1814 C1810 1.531 . S
C1814 H1826 0.960 . S
C1814 H1827 0.962 . S
C1814 H1828 0.960 . S
C1815 C1812 1.511 . S
C1815 H1829 0.961 . S
C1815 H1830 0.961 . S
C1815 H1831 0.961 . S
C1816 C1817 1.370 . S
C1816 C1818 1.363 . S
C1816 H1832 0.931 . S
C1817 C1816 1.370 . S
C1817 C1821 1.408 . S
C1818 C1816 1.363 . S
C1818 C1819 1.370 . S
C1818 C1822 1.524 . S
C1819 C1811 1.503 . S
C1819 C1818 1.370 . S
C1819 C1820 1.403 . S
C1820 C1819 1.403 . S
C1820 C1821 1.404 . S
C1820 C1823 1.539 . S
C1821 C1817 1.408 . S
C1821 C1820 1.404 . S
C1821 H1833 0.930 . S
C1822 C1818 1.524 . S
C1822 H1834 0.956 . S
C1822 H1835 0.961 . S
C1822 H1836 0.961 . S
C1823 C1820 1.539 . S
C1823 H1837 0.958 . S
C1823 H1838 0.961 . S
C1823 H1839 0.960 . S
H1824 C1808 0.931 . S
H1825 C1813 0.929 . S
H1826 C1814 0.960 . S
H1827 C1814 0.962 . S
H1828 C1814 0.960 . S
H1829 C1815 0.961 . S
H1830 C1815 0.961 . S
H1831 C1815 0.961 . S
H1832 C1816 0.931 . S
H1833 C1821 0.930 . S
H1834 C1822 0.956 . S
H1835 C1822 0.961 . S
H1836 C1822 0.961 . S
H1837 C1823 0.958 . S
H1838 C1823 0.961 . S
H1839 C1823 0.960 . S
C1840 C1841 1.391 . S
C1840 C1842 1.394 . S
C1840 H1856 0.931 . S
C1841 C1840 1.391 . S
C1841 C1845 1.376 . S
C1842 C1840 1.394 . S
C1842 C1843 1.369 . S
C1842 C1846 1.531 . S
C1843 C1842 1.369 . S
C1843 C1844 1.410 . S
C1843 C1851 1.503 . S
C1844 C1843 1.410 . S
C1844 C1845 1.392 . S
C1844 C1847 1.511 . S
C1845 C1841 1.376 . S
C1845 C1844 1.392 . S
C1845 H1857 0.929 . S
C1846 C1842 1.531 . S
C1846 H1858 0.960 . S
C1846 H1859 0.962 . S
C1846 H1860 0.960 . S
C1847 C1844 1.511 . S
C1847 H1861 0.961 . S
C1847 H1862 0.961 . S
C1847 H1863 0.961 . S
C1848 C1849 1.370 . S
C1848 C1850 1.363 . S
C1848 H1864 0.931 . S
C1849 C1848 1.370 . S
C1849 C1853 1.408 . S
C1850 C1848 1.363 . S
C1850 C1851 1.370 . S
C1850 C1854 1.524 . S
C1851 C1843 1.503 . S
C1851 C1850 1.370 . S
C1851 C1852 1.403 . S
C1852 C1851 1.403 . S
C1852 C1853 1.404 . S
C1852 C1855 1.539 . S
C1853 C1849 1.408 . S
C1853 C1852 1.404 . S
C1853 H1865 0.930 . S
C1854 C1850 1.524 . S
C1854 H1866 0.956 . S
C1854 H1867 0.961 . S
C1854 H1868 0.961 . S
C1855 C1852 1.539 . S
C1855 H1869 0.958 . S
C1855 H1870 0.961 . S
C1855 H1871 0.960 . S
H1856 C1840 0.931 . S
H1857 C1845 0.929 . S
H1858 C1846 0.960 . S
H1859 C1846 0.962 . S
H1860 C1846 0.960 . S
H1861 C1847 0.961 . S
H1862 C1847 0.961 . S
H1863 C1847 0.961 . S
H1864 C1848 0.931 . S
H1865 C1853 0.930 . S
H1866 C1854 0.956 . S
H1867 C1854 0.961 . S
H1868 C1854 0.961 . S
H1869 C1855 0.958 . S
H1870 C1855 0.961 . S
H1871 C1855 0.960 . S
C1872 C1873 1.391 . S
C1872 C1874 1.394 . S
C1872 H1888 0.931 . S
C1873 C1872 1.391 . S
C1873 C1877 1.376 . S
C1874 C1872 1.394 . S
C1874 C1875 1.369 . S
C1874 C1878 1.531 . S
C1875 C1874 1.369 . S
C1875 C1876 1.410 . S
C1875 C1883 1.503 . S
C1876 C1875 1.410 . S
C1876 C1877 1.392 . S
C1876 C1879 1.511 . S
C1877 C1873 1.376 . S
C1877 C1876 1.392 . S
C1877 H1889 0.929 . S
C1878 C1874 1.531 . S
C1878 H1890 0.960 . S
C1878 H1891 0.962 . S
C1878 H1892 0.960 . S
C1879 C1876 1.511 . S
C1879 H1893 0.961 . S
C1879 H1894 0.961 . S
C1879 H1895 0.961 1_455 S
C1880 C1881 1.370 . S
C1880 C1882 1.363 . S
C1880 H1896 0.931 . S
C1881 C1880 1.370 . S
C1881 C1885 1.408 . S
C1882 C1880 1.363 . S
C1882 C1883 1.370 . S
C1882 C1886 1.524 . S
C1883 C1875 1.503 . S
C1883 C1882 1.370 . S
C1883 C1884 1.403 . S
C1884 C1883 1.403 . S
C1884 C1885 1.404 . S
C1884 C1887 1.579 . S
C1885 C1881 1.408 . S
C1885 C1884 1.404 . S
C1885 H1897 0.930 . S
C1886 C1882 1.524 . S
C1886 H1898 0.956 . S
C1886 H1899 0.961 . S
C1886 H1900 0.961 . S
C1887 C1884 1.579 . S
C1887 H1901 0.954 . S
C1887 H1902 0.936 1_455 S
C1887 H1903 0.951 1_455 S
H1888 C1872 0.931 . S
H1889 C1877 0.929 . S
H1890 C1878 0.960 . S
H1891 C1878 0.962 . S
H1892 C1878 0.960 . S
H1893 C1879 0.961 . S
H1894 C1879 0.961 . S
H1895 C1879 0.961 1_655 S
H1896 C1880 0.931 . S
H1897 C1885 0.930 . S
H1898 C1886 0.956 . S
H1899 C1886 0.961 . S
H1900 C1886 0.961 . S
H1901 C1887 0.954 . S
H1902 C1887 0.936 1_655 S
H1903 C1887 0.951 1_655 S
C1904 C1905 1.391 . S
C1904 C1906 1.394 . S
C1904 H1920 0.931 . S
C1905 C1904 1.391 . S
C1905 C1909 1.376 . S
C1906 C1904 1.394 . S
C1906 C1907 1.369 . S
C1906 C1910 1.531 . S
C1907 C1906 1.369 . S
C1907 C1908 1.410 . S
C1907 C1915 1.503 . S
C1908 C1907 1.410 . S
C1908 C1909 1.392 . S
C1908 C1911 1.511 . S
C1909 C1905 1.376 . S
C1909 C1908 1.392 . S
C1909 H1921 0.929 . S
C1910 C1906 1.531 . S
C1910 H1922 0.960 . S
C1910 H1923 0.962 . S
C1910 H1924 0.960 . S
C1911 C1908 1.511 . S
C1911 H1925 0.961 . S
C1911 H1926 0.961 . S
C1911 H1927 0.961 . S
C1912 C1913 1.370 . S
C1912 C1914 1.363 . S
C1912 H1928 0.931 . S
C1913 C1912 1.370 . S
C1913 C1917 1.408 . S
C1914 C1912 1.363 . S
C1914 C1915 1.370 . S
C1914 C1918 1.524 . S
C1915 C1907 1.503 . S
C1915 C1914 1.370 . S
C1915 C1916 1.403 . S
C1916 C1915 1.403 . S
C1916 C1917 1.404 . S
C1916 C1919 1.539 . S
C1917 C1913 1.408 . S
C1917 C1916 1.404 . S
C1917 H1929 0.930 . S
C1918 C1914 1.524 . S
C1918 H1930 0.956 . S
C1918 H1931 0.961 . S
C1918 H1932 0.961 . S
C1919 C1916 1.539 . S
C1919 H1933 0.958 . S
C1919 H1934 0.961 . S
C1919 H1935 0.960 . S
H1920 C1904 0.931 . S
H1921 C1909 0.929 . S
H1922 C1910 0.960 . S
H1923 C1910 0.962 . S
H1924 C1910 0.960 . S
H1925 C1911 0.961 . S
H1926 C1911 0.961 . S
H1927 C1911 0.961 . S
H1928 C1912 0.931 . S
H1929 C1917 0.930 . S
H1930 C1918 0.956 . S
H1931 C1918 0.961 . S
H1932 C1918 0.961 . S
H1933 C1919 0.958 . S
H1934 C1919 0.961 . S
H1935 C1919 0.960 . S
C1936 C1937 1.391 . S
C1936 C1938 1.394 . S
C1936 H1952 0.931 . S
C1937 C1936 1.391 . S
C1937 C1941 1.376 . S
C1938 C1936 1.394 . S
C1938 C1939 1.369 . S
C1938 C1942 1.531 . S
C1939 C1938 1.369 . S
C1939 C1940 1.410 . S
C1939 C1947 1.503 . S
C1940 C1939 1.410 . S
C1940 C1941 1.392 . S
C1940 C1943 1.511 . S
C1941 C1937 1.376 . S
C1941 C1940 1.392 . S
C1941 H1953 0.929 . S
C1942 C1938 1.531 . S
C1942 H1954 0.960 . S
C1942 H1955 0.962 . S
C1942 H1956 0.960 . S
C1943 C1940 1.511 . S
C1943 H1957 0.961 1_556 S
C1943 H1958 0.961 1_556 S
C1943 H1959 0.961 . S
C1944 C1945 1.370 . S
C1944 C1946 1.363 . S
C1944 H1960 0.931 . S
C1945 C1944 1.370 . S
C1945 C1949 1.408 . S
C1946 C1944 1.363 . S
C1946 C1947 1.370 . S
C1946 C1950 1.524 . S
C1947 C1939 1.503 . S
C1947 C1946 1.370 . S
C1947 C1948 1.403 . S
C1948 C1947 1.403 . S
C1948 C1949 1.404 . S
C1948 C1951 1.539 . S
C1949 C1945 1.408 . S
C1949 C1948 1.404 . S
C1949 H1961 0.930 . S
C1950 C1946 1.524 . S
C1950 H1962 0.956 . S
C1950 H1963 0.961 . S
C1950 H1964 0.961 . S
C1951 C1948 1.539 . S
C1951 H1965 0.958 . S
C1951 H1966 0.961 . S
C1951 H1967 0.960 . S
H1952 C1936 0.931 . S
H1953 C1941 0.929 . S
H1954 C1942 0.960 . S
H1955 C1942 0.962 . S
H1956 C1942 0.960 . S
H1957 C1943 0.961 1_554 S
H1958 C1943 0.961 1_554 S
H1959 C1943 0.961 . S
H1960 C1944 0.931 . S
H1961 C1949 0.930 . S
H1962 C1950 0.956 . S
H1963 C1950 0.961 . S
H1964 C1950 0.961 . S
H1965 C1951 0.958 . S
H1966 C1951 0.961 . S
H1967 C1951 0.960 . S
C1968 C1969 1.391 . S
C1968 C1970 1.394 . S
C1968 H1984 0.931 . S
C1969 C1968 1.391 . S
C1969 C1973 1.376 . S
C1970 C1968 1.394 . S
C1970 C1971 1.369 . S
C1970 C1974 1.531 . S
C1971 C1970 1.369 . S
C1971 C1972 1.410 . S
C1971 C1979 1.503 . S
C1972 C1971 1.410 . S
C1972 C1973 1.392 . S
C1972 C1975 1.511 . S
C1973 C1969 1.376 . S
C1973 C1972 1.392 . S
C1973 H1985 0.929 . S
C1974 C1970 1.531 . S
C1974 H1986 0.960 . S
C1974 H1987 0.962 . S
C1974 H1988 0.960 . S
C1975 C1972 1.511 . S
C1975 H1989 0.961 . S
C1975 H1990 0.961 . S
C1975 H1991 0.961 . S
C1976 C1977 1.370 . S
C1976 C1978 1.363 . S
C1976 H1992 0.931 . S
C1977 C1976 1.370 . S
C1977 C1981 1.408 . S
C1978 C1976 1.363 . S
C1978 C1979 1.370 . S
C1978 C1982 1.524 . S
C1979 C1971 1.503 . S
C1979 C1978 1.370 . S
C1979 C1980 1.403 . S
C1980 C1979 1.403 . S
C1980 C1981 1.404 . S
C1980 C1983 1.539 . S
C1981 C1977 1.408 . S
C1981 C1980 1.404 . S
C1981 H1993 0.930 . S
C1982 C1978 1.524 . S
C1982 H1994 0.956 . S
C1982 H1995 0.961 . S
C1982 H1996 0.961 . S
C1983 C1980 1.539 . S
C1983 H1997 0.958 . S
C1983 H1998 0.961 . S
C1983 H1999 0.960 . S
H1984 C1968 0.931 . S
H1985 C1973 0.929 . S
H1986 C1974 0.960 . S
H1987 C1974 0.962 . S
H1988 C1974 0.960 . S
H1989 C1975 0.961 . S
H1990 C1975 0.961 . S
H1991 C1975 0.961 . S
H1992 C1976 0.931 . S
H1993 C1981 0.930 . S
H1994 C1982 0.956 . S
H1995 C1982 0.961 . S
H1996 C1982 0.961 . S
H1997 C1983 0.958 . S
H1998 C1983 0.961 . S
H1999 C1983 0.960 . S
C2000 C2001 1.391 . S
C2000 C2002 1.394 . S
C2000 H2016 0.931 . S
C2001 C2000 1.391 . S
C2001 C2005 1.376 . S
C2002 C2000 1.394 . S
C2002 C2003 1.369 . S
C2002 C2006 1.531 . S
C2003 C2002 1.369 . S
C2003 C2004 1.410 . S
C2003 C2011 1.503 . S
C2004 C2003 1.410 . S
C2004 C2005 1.392 . S
C2004 C2007 1.511 . S
C2005 C2001 1.376 . S
C2005 C2004 1.392 . S
C2005 H2017 0.929 . S
C2006 C2002 1.531 . S
C2006 H2018 0.960 . S
C2006 H2019 0.962 . S
C2006 H2020 0.960 . S
C2007 C2004 1.511 . S
C2007 H2021 0.961 . S
C2007 H2022 0.961 . S
C2007 H2023 0.961 . S
C2008 C2009 1.370 . S
C2008 C2010 1.363 . S
C2008 H2024 0.931 . S
C2009 C2008 1.370 . S
C2009 C2013 1.408 . S
C2010 C2008 1.363 . S
C2010 C2011 1.370 . S
C2010 C2014 1.524 . S
C2011 C2003 1.503 . S
C2011 C2010 1.370 . S
C2011 C2012 1.403 . S
C2012 C2011 1.403 . S
C2012 C2013 1.404 . S
C2012 C2015 1.539 . S
C2013 C2009 1.408 . S
C2013 C2012 1.404 . S
C2013 H2025 0.930 . S
C2014 C2010 1.524 . S
C2014 H2026 0.956 . S
C2014 H2027 0.961 . S
C2014 H2028 0.961 . S
C2015 C2012 1.539 . S
C2015 H2029 0.958 . S
C2015 H2030 0.961 . S
C2015 H2031 0.960 . S
H2016 C2000 0.931 . S
H2017 C2005 0.929 . S
H2018 C2006 0.960 . S
H2019 C2006 0.962 . S
H2020 C2006 0.960 . S
H2021 C2007 0.961 . S
H2022 C2007 0.961 . S
H2023 C2007 0.961 . S
H2024 C2008 0.931 . S
H2025 C2013 0.930 . S
H2026 C2014 0.956 . S
H2027 C2014 0.961 . S
H2028 C2014 0.961 . S
H2029 C2015 0.958 . S
H2030 C2015 0.961 . S
H2031 C2015 0.960 . S
C2032 C2033 1.391 . S
C2032 C2034 1.394 . S
C2032 H2048 0.931 . S
C2033 C2032 1.391 . S
C2033 C2037 1.376 . S
C2034 C2032 1.394 . S
C2034 C2035 1.369 . S
C2034 C2038 1.531 . S
C2035 C2034 1.369 . S
C2035 C2036 1.410 . S
C2035 C2043 1.503 . S
C2036 C2035 1.410 . S
C2036 C2037 1.392 . S
C2036 C2039 1.511 . S
C2037 C2033 1.376 . S
C2037 C2036 1.392 . S
C2037 H2049 0.929 . S
C2038 C2034 1.531 . S
C2038 H2050 0.960 . S
C2038 H2051 0.962 . S
C2038 H2052 0.960 . S
C2039 C2036 1.511 . S
C2039 H2053 0.961 . S
C2039 H2054 0.961 . S
C2039 H2055 0.961 . S
C2040 C2041 1.370 . S
C2040 C2042 1.363 . S
C2040 H2056 0.931 . S
C2041 C2040 1.370 . S
C2041 C2045 1.408 . S
C2042 C2040 1.363 . S
C2042 C2043 1.370 . S
C2042 C2046 1.524 . S
C2043 C2035 1.503 . S
C2043 C2042 1.370 . S
C2043 C2044 1.403 . S
C2044 C2043 1.403 . S
C2044 C2045 1.404 . S
C2044 C2047 1.539 . S
C2045 C2041 1.408 . S
C2045 C2044 1.404 . S
C2045 H2057 0.930 . S
C2046 C2042 1.524 . S
C2046 H2058 0.956 . S
C2046 H2059 0.961 . S
C2046 H2060 0.961 . S
C2047 C2044 1.539 . S
C2047 H2061 0.958 . S
C2047 H2062 0.961 . S
C2047 H2063 0.960 . S
H2048 C2032 0.931 . S
H2049 C2037 0.929 . S
H2050 C2038 0.960 . S
H2051 C2038 0.962 . S
H2052 C2038 0.960 . S
H2053 C2039 0.961 . S
H2054 C2039 0.961 . S
H2055 C2039 0.961 . S
H2056 C2040 0.931 . S
H2057 C2045 0.930 . S
H2058 C2046 0.956 . S
H2059 C2046 0.961 . S
H2060 C2046 0.961 . S
H2061 C2047 0.958 . S
H2062 C2047 0.961 . S
H2063 C2047 0.960 . S
C2064 C2065 1.391 . S
C2064 C2066 1.394 . S
C2064 H2080 0.931 . S
C2065 C2064 1.391 . S
C2065 C2069 1.376 . S
C2066 C2064 1.394 . S
C2066 C2067 1.369 . S
C2066 C2070 1.531 . S
C2067 C2066 1.369 . S
C2067 C2068 1.410 . S
C2067 C2075 1.503 . S
C2068 C2067 1.410 . S
C2068 C2069 1.392 . S
C2068 C2071 1.511 . S
C2069 C2065 1.376 . S
C2069 C2068 1.392 . S
C2069 H2081 0.929 . S
C2070 C2066 1.531 . S
C2070 H2082 0.960 . S
C2070 H2083 0.962 . S
C2070 H2084 0.960 . S
C2071 C2068 1.511 . S
C2071 H2085 0.961 . S
C2071 H2086 0.961 . S
C2071 H2087 0.961 . S
C2072 C2073 1.370 . S
C2072 C2074 1.363 . S
C2072 H2088 0.931 . S
C2073 C2072 1.370 . S
C2073 C2077 1.408 . S
C2074 C2072 1.363 . S
C2074 C2075 1.370 . S
C2074 C2078 1.524 . S
C2075 C2067 1.503 . S
C2075 C2074 1.370 . S
C2075 C2076 1.403 . S
C2076 C2075 1.403 . S
C2076 C2077 1.404 . S
C2076 C2079 1.539 . S
C2077 C2073 1.408 . S
C2077 C2076 1.404 . S
C2077 H2089 0.930 . S
C2078 C2074 1.524 . S
C2078 H2090 0.956 . S
C2078 H2091 0.961 . S
C2078 H2092 0.961 . S
C2079 C2076 1.539 . S
C2079 H2093 0.958 . S
C2079 H2094 0.961 . S
C2079 H2095 0.960 . S
H2080 C2064 0.931 . S
H2081 C2069 0.929 . S
H2082 C2070 0.960 . S
H2083 C2070 0.962 . S
H2084 C2070 0.960 . S
H2085 C2071 0.961 . S
H2086 C2071 0.961 . S
H2087 C2071 0.961 . S
H2088 C2072 0.931 . S
H2089 C2077 0.930 . S
H2090 C2078 0.956 . S
H2091 C2078 0.961 . S
H2092 C2078 0.961 . S
H2093 C2079 0.958 . S
H2094 C2079 0.961 . S
H2095 C2079 0.960 . S
C2096 C2097 1.391 . S
C2096 C2098 1.394 . S
C2096 H2112 0.931 . S
C2097 C2096 1.391 . S
C2097 C2101 1.376 . S
C2098 C2096 1.394 . S
C2098 C2099 1.369 . S
C2098 C2102 1.531 . S
C2099 C2098 1.369 . S
C2099 C2100 1.410 . S
C2099 C2107 1.503 . S
C2100 C2099 1.410 . S
C2100 C2101 1.392 . S
C2100 C2103 1.511 . S
C2101 C2097 1.376 . S
C2101 C2100 1.392 . S
C2101 H2113 0.929 . S
C2102 C2098 1.531 . S
C2102 H2114 0.960 . S
C2102 H2115 0.962 . S
C2102 H2116 0.960 . S
C2103 C2100 1.511 . S
C2103 H2117 0.961 . S
C2103 H2118 0.961 . S
C2103 H2119 0.961 . S
C2104 C2105 1.370 . S
C2104 C2106 1.363 . S
C2104 H2120 0.931 . S
C2105 C2104 1.370 . S
C2105 C2109 1.408 . S
C2106 C2104 1.363 . S
C2106 C2107 1.370 . S
C2106 C2110 1.524 . S
C2107 C2099 1.503 . S
C2107 C2106 1.370 . S
C2107 C2108 1.403 . S
C2108 C2107 1.403 . S
C2108 C2109 1.404 . S
C2108 C2111 1.539 . S
C2109 C2105 1.408 . S
C2109 C2108 1.404 . S
C2109 H2121 0.930 . S
C2110 C2106 1.524 . S
C2110 H2122 0.956 . S
C2110 H2123 0.961 . S
C2110 H2124 0.961 . S
C2111 C2108 1.539 . S
C2111 H2125 0.958 . S
C2111 H2126 0.961 . S
C2111 H2127 0.960 . S
H2112 C2096 0.931 . S
H2113 C2101 0.929 . S
H2114 C2102 0.960 . S
H2115 C2102 0.962 . S
H2116 C2102 0.960 . S
H2117 C2103 0.961 . S
H2118 C2103 0.961 . S
H2119 C2103 0.961 . S
H2120 C2104 0.931 . S
H2121 C2109 0.930 . S
H2122 C2110 0.956 . S
H2123 C2110 0.961 . S
H2124 C2110 0.961 . S
H2125 C2111 0.958 . S
H2126 C2111 0.961 . S
H2127 C2111 0.960 . S
C2128 C2129 1.391 . S
C2128 C2130 1.394 . S
C2128 H2144 0.931 . S
C2129 C2128 1.391 . S
C2129 C2133 1.376 . S
C2130 C2128 1.394 . S
C2130 C2131 1.369 . S
C2130 C2134 1.531 . S
C2131 C2130 1.369 . S
C2131 C2132 1.410 . S
C2131 C2139 1.503 . S
C2132 C2131 1.410 . S
C2132 C2133 1.392 . S
C2132 C2135 1.511 . S
C2133 C2129 1.376 . S
C2133 C2132 1.392 . S
C2133 H2145 0.929 . S
C2134 C2130 1.531 . S
C2134 H2146 0.960 . S
C2134 H2147 0.962 . S
C2134 H2148 0.960 . S
C2135 C2132 1.511 . S
C2135 H2149 0.961 . S
C2135 H2150 0.961 . S
C2135 H2151 0.961 . S
C2136 C2137 1.370 . S
C2136 C2138 1.363 . S
C2136 H2152 0.931 . S
C2137 C2136 1.370 . S
C2137 C2141 1.408 . S
C2138 C2136 1.363 . S
C2138 C2139 1.370 . S
C2138 C2142 1.524 . S
C2139 C2131 1.503 . S
C2139 C2138 1.370 . S
C2139 C2140 1.403 . S
C2140 C2139 1.403 . S
C2140 C2141 1.404 . S
C2140 C2143 1.539 . S
C2141 C2137 1.408 . S
C2141 C2140 1.404 . S
C2141 H2153 0.930 . S
C2142 C2138 1.524 . S
C2142 H2154 0.956 . S
C2142 H2155 0.961 . S
C2142 H2156 0.961 . S
C2143 C2140 1.539 . S
C2143 H2157 0.958 1_545 S
C2143 H2158 0.961 . S
C2143 H2159 0.960 . S
H2144 C2128 0.931 . S
H2145 C2133 0.929 . S
H2146 C2134 0.960 . S
H2147 C2134 0.962 . S
H2148 C2134 0.960 . S
H2149 C2135 0.961 . S
H2150 C2135 0.961 . S
H2151 C2135 0.961 . S
H2152 C2136 0.931 . S
H2153 C2141 0.930 . S
H2154 C2142 0.956 . S
H2155 C2142 0.961 . S
H2156 C2142 0.961 . S
H2157 C2143 0.958 1_565 S
H2158 C2143 0.961 . S
H2159 C2143 0.960 . S
C2160 C2161 1.391 . S
C2160 C2162 1.394 . S
C2160 H2176 0.931 . S
C2161 C2160 1.391 . S
C2161 C2165 1.376 . S
C2162 C2160 1.394 . S
C2162 C2163 1.369 . S
C2162 C2166 1.531 . S
C2163 C2162 1.369 . S
C2163 C2164 1.410 . S
C2163 C2171 1.503 . S
C2164 C2163 1.410 . S
C2164 C2165 1.392 . S
C2164 C2167 1.511 . S
C2165 C2161 1.376 . S
C2165 C2164 1.392 . S
C2165 H2177 0.929 . S
C2166 C2162 1.531 . S
C2166 H2178 0.960 . S
C2166 H2179 0.962 . S
C2166 H2180 0.960 . S
C2167 C2164 1.511 . S
C2167 H2181 0.961 . S
C2167 H2182 0.961 . S
C2167 H2183 0.961 . S
C2168 C2169 1.370 . S
C2168 C2170 1.363 . S
C2168 H2184 0.931 . S
C2169 C2168 1.370 . S
C2169 C2173 1.408 . S
C2170 C2168 1.363 . S
C2170 C2171 1.370 . S
C2170 C2174 1.524 . S
C2171 C2163 1.503 . S
C2171 C2170 1.370 . S
C2171 C2172 1.403 . S
C2172 C2171 1.403 . S
C2172 C2173 1.404 . S
C2172 C2175 1.539 . S
C2173 C2169 1.408 . S
C2173 C2172 1.404 . S
C2173 H2185 0.930 . S
C2174 C2170 1.524 . S
C2174 H2186 0.956 . S
C2174 H2187 0.961 . S
C2174 H2188 0.961 . S
C2175 C2172 1.539 . S
C2175 H2189 0.958 . S
C2175 H2190 0.961 . S
C2175 H2191 0.960 . S
H2176 C2160 0.931 . S
H2177 C2165 0.929 . S
H2178 C2166 0.960 . S
H2179 C2166 0.962 . S
H2180 C2166 0.960 . S
H2181 C2167 0.961 . S
H2182 C2167 0.961 . S
H2183 C2167 0.961 . S
H2184 C2168 0.931 . S
H2185 C2173 0.930 . S
H2186 C2174 0.956 . S
H2187 C2174 0.961 . S
H2188 C2174 0.961 . S
H2189 C2175 0.958 . S
H2190 C2175 0.961 . S
H2191 C2175 0.960 . S
C2192 C2193 1.391 . S
C2192 C2194 1.394 . S
C2192 H2208 0.931 . S
C2193 C2192 1.391 . S
C2193 C2197 1.376 . S
C2194 C2192 1.394 . S
C2194 C2195 1.369 . S
C2194 C2198 1.531 . S
C2195 C2194 1.369 . S
C2195 C2196 1.410 . S
C2195 C2203 1.503 . S
C2196 C2195 1.410 . S
C2196 C2197 1.392 . S
C2196 C2199 1.511 . S
C2197 C2193 1.376 . S
C2197 C2196 1.392 . S
C2197 H2209 0.929 . S
C2198 C2194 1.531 . S
C2198 H2210 0.960 . S
C2198 H2211 0.962 . S
C2198 H2212 0.960 . S
C2199 C2196 1.511 . S
C2199 H2213 0.961 . S
C2199 H2214 0.961 . S
C2199 H2215 0.961 . S
C2200 C2201 1.370 1_565 S
C2200 C2202 1.363 1_565 S
C2200 H2216 0.931 . S
C2201 C2200 1.370 1_545 S
C2201 C2205 1.408 . S
C2202 C2200 1.363 1_545 S
C2202 C2203 1.370 . S
C2202 C2206 1.524 1_545 S
C2203 C2195 1.503 . S
C2203 C2202 1.370 . S
C2203 C2204 1.403 . S
C2204 C2203 1.403 . S
C2204 C2205 1.404 . S
C2204 C2207 1.539 . S
C2205 C2201 1.408 . S
C2205 C2204 1.404 . S
C2205 H2217 0.930 . S
C2206 C2202 1.524 1_565 S
C2206 H2218 0.949 1_565 S
C2206 H2219 0.961 1_565 S
C2206 H2220 0.961 . S
C2207 C2204 1.539 . S
C2207 H2221 0.958 . S
C2207 H2222 0.961 . S
C2207 H2223 0.960 . S
H2208 C2192 0.931 . S
H2209 C2197 0.929 . S
H2210 C2198 0.960 . S
H2211 C2198 0.962 . S
H2212 C2198 0.960 . S
H2213 C2199 0.961 . S
H2214 C2199 0.961 . S
H2215 C2199 0.961 . S
H2216 C2200 0.931 . S
H2217 C2205 0.930 . S
H2218 C2206 0.949 1_545 S
H2219 C2206 0.961 1_545 S
H2220 C2206 0.961 . S
H2221 C2207 0.958 . S
H2222 C2207 0.961 . S
H2223 C2207 0.960 . S
C2224 C2225 1.391 . S
C2224 C2226 1.394 . S
C2224 H2240 0.931 . S
C2225 C2224 1.391 . S
C2225 C2229 1.376 . S
C2226 C2224 1.394 . S
C2226 C2227 1.369 . S
C2226 C2230 1.531 . S
C2227 C2226 1.369 . S
C2227 C2228 1.410 . S
C2227 C2235 1.503 . S
C2228 C2227 1.410 . S
C2228 C2229 1.392 . S
C2228 C2231 1.511 . S
C2229 C2225 1.376 . S
C2229 C2228 1.392 . S
C2229 H2241 0.929 . S
C2230 C2226 1.531 . S
C2230 H2242 0.960 . S
C2230 H2243 0.962 . S
C2230 H2244 0.960 . S
C2231 C2228 1.511 . S
C2231 H2245 0.961 . S
C2231 H2246 0.961 . S
C2231 H2247 0.961 . S
C2232 C2233 1.370 . S
C2232 C2234 1.363 . S
C2232 H2248 0.931 . S
C2233 C2232 1.370 . S
C2233 C2237 1.408 . S
C2234 C2232 1.363 . S
C2234 C2235 1.370 . S
C2234 C2238 1.524 . S
C2235 C2227 1.503 . S
C2235 C2234 1.370 . S
C2235 C2236 1.403 . S
C2236 C2235 1.403 . S
C2236 C2237 1.404 . S
C2236 C2239 1.539 . S
C2237 C2233 1.408 . S
C2237 C2236 1.404 . S
C2237 H2249 0.930 . S
C2238 C2234 1.524 . S
C2238 H2250 0.956 . S
C2238 H2251 0.961 . S
C2238 H2252 0.961 . S
C2239 C2236 1.539 . S
C2239 H2253 0.958 . S
C2239 H2254 0.961 . S
C2239 H2255 0.960 . S
H2240 C2224 0.931 . S
H2241 C2229 0.929 . S
H2242 C2230 0.960 . S
H2243 C2230 0.962 . S
H2244 C2230 0.960 . S
H2245 C2231 0.961 . S
H2246 C2231 0.961 . S
H2247 C2231 0.961 . S
H2248 C2232 0.931 . S
H2249 C2237 0.930 . S
H2250 C2238 0.956 . S
H2251 C2238 0.961 . S
H2252 C2238 0.961 . S
H2253 C2239 0.958 . S
H2254 C2239 0.961 . S
H2255 C2239 0.960 . S
C2256 C2257 1.391 . S
C2256 C2258 1.394 . S
C2256 H2272 0.931 . S
C2257 C2256 1.391 . S
C2257 C2261 1.376 1_554 S
C2258 C2256 1.394 . S
C2258 C2259 1.369 1_554 S
C2258 C2262 1.531 . S
C2259 C2258 1.369 1_556 S
C2259 C2260 1.410 . S
C2259 C2267 1.503 . S
C2260 C2259 1.410 . S
C2260 C2261 1.392 . S
C2260 C2263 1.511 . S
C2261 C2257 1.376 1_556 S
C2261 C2260 1.392 . S
C2261 H2273 0.929 . S
C2262 C2258 1.531 . S
C2262 H2274 0.960 . S
C2262 H2275 0.962 . S
C2262 H2276 0.960 . S
C2263 C2260 1.511 . S
C2263 H2277 0.961 . S
C2263 H2278 0.961 . S
C2263 H2279 0.961 . S
C2264 C2265 1.374 . S
C2264 C2266 1.362 1_556 S
C2264 H2280 0.929 1_556 S
C2265 C2264 1.374 . S
C2265 C2269 1.408 . S
C2266 C2264 1.362 1_554 S
C2266 C2267 1.370 1_554 S
C2266 C2270 1.524 . S
C2267 C2259 1.503 . S
C2267 C2266 1.370 1_556 S
C2267 C2268 1.403 . S
C2268 C2267 1.403 . S
C2268 C2269 1.404 . S
C2268 C2271 1.539 . S
C2269 C2265 1.408 . S
C2269 C2268 1.404 . S
C2269 H2281 0.930 . S
C2270 C2266 1.524 . S
C2270 H2282 0.956 . S
C2270 H2283 0.961 . S
C2270 H2284 0.961 . S
C2271 C2268 1.539 . S
C2271 H2285 0.958 . S
C2271 H2286 0.961 . S
C2271 H2287 0.960 . S
H2272 C2256 0.931 . S
H2273 C2261 0.929 . S
H2274 C2262 0.960 . S
H2275 C2262 0.962 . S
H2276 C2262 0.960 . S
H2277 C2263 0.961 . S
H2278 C2263 0.961 . S
H2279 C2263 0.961 . S
H2280 C2264 0.929 1_554 S
H2281 C2269 0.930 . S
H2282 C2270 0.956 . S
H2283 C2270 0.961 . S
H2284 C2270 0.961 . S
H2285 C2271 0.958 . S
H2286 C2271 0.961 . S
H2287 C2271 0.960 . S
C2288 C2289 1.391 . S
C2288 C2290 1.394 . S
C2288 H2304 0.931 . S
C2289 C2288 1.391 . S
C2289 C2293 1.376 . S
C2290 C2288 1.394 . S
C2290 C2291 1.369 . S
C2290 C2294 1.531 . S
C2291 C2290 1.369 . S
C2291 C2292 1.410 . S
C2291 C2299 1.503 . S
C2292 C2291 1.410 . S
C2292 C2293 1.392 . S
C2292 C2295 1.511 . S
C2293 C2289 1.376 . S
C2293 C2292 1.392 . S
C2293 H2305 0.929 . S
C2294 C2290 1.531 . S
C2294 H2306 0.960 . S
C2294 H2307 0.962 . S
C2294 H2308 0.960 . S
C2295 C2292 1.511 . S
C2295 H2309 0.961 . S
C2295 H2310 0.961 . S
C2295 H2311 0.961 . S
C2296 C2297 1.370 . S
C2296 C2298 1.363 . S
C2296 H2312 0.931 . S
C2297 C2296 1.370 . S
C2297 C2301 1.408 . S
C2298 C2296 1.363 . S
C2298 C2299 1.370 . S
C2298 C2302 1.524 . S
C2299 C2291 1.503 . S
C2299 C2298 1.370 . S
C2299 C2300 1.403 . S
C2300 C2299 1.403 . S
C2300 C2301 1.404 . S
C2300 C2303 1.539 . S
C2301 C2297 1.408 . S
C2301 C2300 1.404 . S
C2301 H2313 0.930 . S
C2302 C2298 1.524 . S
C2302 H2314 0.955 . S
C2302 H2315 0.961 . S
C2302 H2316 0.961 1_554 S
C2303 C2300 1.539 . S
C2303 H2317 0.958 . S
C2303 H2318 0.961 . S
C2303 H2319 0.960 . S
H2304 C2288 0.931 . S
H2305 C2293 0.929 . S
H2306 C2294 0.960 . S
H2307 C2294 0.962 . S
H2308 C2294 0.960 . S
H2309 C2295 0.961 . S
H2310 C2295 0.961 . S
H2311 C2295 0.961 . S
H2312 C2296 0.931 . S
H2313 C2301 0.930 . S
H2314 C2302 0.955 . S
H2315 C2302 0.961 . S
H2316 C2302 0.961 1_556 S
H2317 C2303 0.958 . S
H2318 C2303 0.961 . S
H2319 C2303 0.960 . S
C2320 C2321 1.391 . S
C2320 C2322 1.394 . S
C2320 H2336 0.931 . S
C2321 C2320 1.391 . S
C2321 C2325 1.376 . S
C2322 C2320 1.394 . S
C2322 C2323 1.369 . S
C2322 C2326 1.531 . S
C2323 C2322 1.369 . S
C2323 C2324 1.410 . S
C2323 C2331 1.503 . S
C2324 C2323 1.410 . S
C2324 C2325 1.392 . S
C2324 C2327 1.511 . S
C2325 C2321 1.376 . S
C2325 C2324 1.392 . S
C2325 H2337 0.929 . S
C2326 C2322 1.531 . S
C2326 H2338 0.960 . S
C2326 H2339 0.962 . S
C2326 H2340 0.960 . S
C2327 C2324 1.511 . S
C2327 H2341 0.961 . S
C2327 H2342 0.961 . S
C2327 H2343 0.961 . S
C2328 C2329 1.370 . S
C2328 C2330 1.363 . S
C2328 H2344 0.931 . S
C2329 C2328 1.370 . S
C2329 C2333 1.408 . S
C2330 C2328 1.363 . S
C2330 C2331 1.370 . S
C2330 C2334 1.524 . S
C2331 C2323 1.503 . S
C2331 C2330 1.370 . S
C2331 C2332 1.403 . S
C2332 C2331 1.403 . S
C2332 C2333 1.404 . S
C2332 C2335 1.539 . S
C2333 C2329 1.408 . S
C2333 C2332 1.404 . S
C2333 H2345 0.930 . S
C2334 C2330 1.524 . S
C2334 H2346 0.956 . S
C2334 H2347 0.961 . S
C2334 H2348 0.961 . S
C2335 C2332 1.539 . S
C2335 H2349 0.958 . S
C2335 H2350 0.961 . S
C2335 H2351 0.960 . S
H2336 C2320 0.931 . S
H2337 C2325 0.929 . S
H2338 C2326 0.960 . S
H2339 C2326 0.962 . S
H2340 C2326 0.960 . S
H2341 C2327 0.961 . S
H2342 C2327 0.961 . S
H2343 C2327 0.961 . S
H2344 C2328 0.931 . S
H2345 C2333 0.930 . S
H2346 C2334 0.956 . S
H2347 C2334 0.961 . S
H2348 C2334 0.961 . S
H2349 C2335 0.958 . S
H2350 C2335 0.961 . S
H2351 C2335 0.960 . S
C2352 C2353 1.391 . S
C2352 C2354 1.394 . S
C2352 H2368 0.931 . S
C2353 C2352 1.391 . S
C2353 C2357 1.376 . S
C2354 C2352 1.394 . S
C2354 C2355 1.369 . S
C2354 C2358 1.531 . S
C2355 C2354 1.369 . S
C2355 C2356 1.410 . S
C2355 C2363 1.503 . S
C2356 C2355 1.410 . S
C2356 C2357 1.392 . S
C2356 C2359 1.511 . S
C2357 C2353 1.376 . S
C2357 C2356 1.392 . S
C2357 H2369 0.929 . S
C2358 C2354 1.531 . S
C2358 H2370 0.960 . S
C2358 H2371 0.962 . S
C2358 H2372 0.960 . S
C2359 C2356 1.511 . S
C2359 H2373 0.961 . S
C2359 H2374 0.961 . S
C2359 H2375 0.961 . S
C2360 C2361 1.370 . S
C2360 C2362 1.363 . S
C2360 H2376 0.931 . S
C2361 C2360 1.370 . S
C2361 C2365 1.408 . S
C2362 C2360 1.363 . S
C2362 C2363 1.370 . S
C2362 C2366 1.524 . S
C2363 C2355 1.503 . S
C2363 C2362 1.370 . S
C2363 C2364 1.403 . S
C2364 C2363 1.403 . S
C2364 C2365 1.404 . S
C2364 C2367 1.539 . S
C2365 C2361 1.408 . S
C2365 C2364 1.404 . S
C2365 H2377 0.930 . S
C2366 C2362 1.524 . S
C2366 H2378 0.956 . S
C2366 H2379 0.961 . S
C2366 H2380 0.961 . S
C2367 C2364 1.539 . S
C2367 H2381 0.958 . S
C2367 H2382 0.961 . S
C2367 H2383 0.960 . S
H2368 C2352 0.931 . S
H2369 C2357 0.929 . S
H2370 C2358 0.960 . S
H2371 C2358 0.962 . S
H2372 C2358 0.960 . S
H2373 C2359 0.961 . S
H2374 C2359 0.961 . S
H2375 C2359 0.961 . S
H2376 C2360 0.931 . S
H2377 C2365 0.930 . S
H2378 C2366 0.956 . S
H2379 C2366 0.961 . S
H2380 C2366 0.961 . S
H2381 C2367 0.958 . S
H2382 C2367 0.961 . S
H2383 C2367 0.960 . S
C2384 C2385 1.391 . S
C2384 C2386 1.394 . S
C2384 H2400 0.931 . S
C2385 C2384 1.391 . S
C2385 C2389 1.376 . S
C2386 C2384 1.394 . S
C2386 C2387 1.369 . S
C2386 C2390 1.531 . S
C2387 C2386 1.369 . S
C2387 C2388 1.410 . S
C2387 C2395 1.503 . S
C2388 C2387 1.410 . S
C2388 C2389 1.392 . S
C2388 C2391 1.511 . S
C2389 C2385 1.376 . S
C2389 C2388 1.392 . S
C2389 H2401 0.929 . S
C2390 C2386 1.531 . S
C2390 H2402 0.960 . S
C2390 H2403 0.962 . S
C2390 H2404 0.960 . S
C2391 C2388 1.511 . S
C2391 H2405 0.961 . S
C2391 H2406 0.961 . S
C2391 H2407 0.961 . S
C2392 C2393 1.370 . S
C2392 C2394 1.363 . S
C2392 H2408 0.931 . S
C2393 C2392 1.370 . S
C2393 C2397 1.408 . S
C2394 C2392 1.363 . S
C2394 C2395 1.370 . S
C2394 C2398 1.524 . S
C2395 C2387 1.503 . S
C2395 C2394 1.370 . S
C2395 C2396 1.403 . S
C2396 C2395 1.403 . S
C2396 C2397 1.404 . S
C2396 C2399 1.539 . S
C2397 C2393 1.408 . S
C2397 C2396 1.404 . S
C2397 H2409 0.930 . S
C2398 C2394 1.524 . S
C2398 H2410 0.956 . S
C2398 H2411 0.961 . S
C2398 H2412 0.961 . S
C2399 C2396 1.539 . S
C2399 H2413 0.958 . S
C2399 H2414 0.961 . S
C2399 H2415 0.960 . S
H2400 C2384 0.931 . S
H2401 C2389 0.929 . S
H2402 C2390 0.960 . S
H2403 C2390 0.962 . S
H2404 C2390 0.960 . S
H2405 C2391 0.961 . S
H2406 C2391 0.961 . S
H2407 C2391 0.961 . S
H2408 C2392 0.931 . S
H2409 C2397 0.930 . S
H2410 C2398 0.956 . S
H2411 C2398 0.961 . S
H2412 C2398 0.961 . S
H2413 C2399 0.958 . S
H2414 C2399 0.961 . S
H2415 C2399 0.960 . S
C2416 C2417 1.391 . S
C2416 C2418 1.394 . S
C2416 H2432 0.931 . S
C2417 C2416 1.391 . S
C2417 C2421 1.376 . S
C2418 C2416 1.394 . S
C2418 C2419 1.369 . S
C2418 C2422 1.531 . S
C2419 C2418 1.369 . S
C2419 C2420 1.410 . S
C2419 C2427 1.503 . S
C2420 C2419 1.410 . S
C2420 C2421 1.392 . S
C2420 C2423 1.511 . S
C2421 C2417 1.376 . S
C2421 C2420 1.392 . S
C2421 H2433 0.929 . S
C2422 C2418 1.531 . S
C2422 H2434 0.960 . S
C2422 H2435 0.962 1_565 S
C2422 H2436 0.960 . S
C2423 C2420 1.511 . S
C2423 H2437 0.961 . S
C2423 H2438 0.961 . S
C2423 H2439 0.961 . S
C2424 C2425 1.370 . S
C2424 C2426 1.363 . S
C2424 H2440 0.931 1_565 S
C2425 C2424 1.370 . S
C2425 C2429 1.408 . S
C2426 C2424 1.363 . S
C2426 C2427 1.370 . S
C2426 C2430 1.524 . S
C2427 C2419 1.503 . S
C2427 C2426 1.370 . S
C2427 C2428 1.403 . S
C2428 C2427 1.403 . S
C2428 C2429 1.404 . S
C2428 C2431 1.539 . S
C2429 C2425 1.408 . S
C2429 C2428 1.404 . S
C2429 H2441 0.930 . S
C2430 C2426 1.524 . S
C2430 H2442 0.956 . S
C2430 H2443 0.961 . S
C2430 H2444 0.961 . S
C2431 C2428 1.539 . S
C2431 H2445 0.958 . S
C2431 H2446 0.961 . S
C2431 H2447 0.960 . S
H2432 C2416 0.931 . S
H2433 C2421 0.929 . S
H2434 C2422 0.960 . S
H2435 C2422 0.962 1_545 S
H2436 C2422 0.960 . S
H2437 C2423 0.961 . S
H2438 C2423 0.961 . S
H2439 C2423 0.961 . S
H2440 C2424 0.931 1_545 S
H2441 C2429 0.930 . S
H2442 C2430 0.956 . S
H2443 C2430 0.961 . S
H2444 C2430 0.961 . S
H2445 C2431 0.958 . S
H2446 C2431 0.961 . S
H2447 C2431 0.960 . S
C2448 C2449 1.391 . S
C2448 C2450 1.394 . S
C2448 H2464 0.931 . S
C2449 C2448 1.391 . S
C2449 C2453 1.376 . S
C2450 C2448 1.394 . S
C2450 C2451 1.369 . S
C2450 C2454 1.531 . S
C2451 C2450 1.369 . S
C2451 C2452 1.410 . S
C2451 C2459 1.503 . S
C2452 C2451 1.410 . S
C2452 C2453 1.392 . S
C2452 C2455 1.511 . S
C2453 C2449 1.376 . S
C2453 C2452 1.392 . S
C2453 H2465 0.929 . S
C2454 C2450 1.531 . S
C2454 H2466 0.960 . S
C2454 H2467 0.962 . S
C2454 H2468 0.960 . S
C2455 C2452 1.511 . S
C2455 H2469 0.961 . S
C2455 H2470 0.961 . S
C2455 H2471 0.961 . S
C2456 C2457 1.370 . S
C2456 C2458 1.363 . S
C2456 H2472 0.931 . S
C2457 C2456 1.370 . S
C2457 C2461 1.408 . S
C2458 C2456 1.363 . S
C2458 C2459 1.370 . S
C2458 C2462 1.524 . S
C2459 C2451 1.503 . S
C2459 C2458 1.370 . S
C2459 C2460 1.403 . S
C2460 C2459 1.403 . S
C2460 C2461 1.404 . S
C2460 C2463 1.539 . S
C2461 C2457 1.408 . S
C2461 C2460 1.404 . S
C2461 H2473 0.930 . S
C2462 C2458 1.524 . S
C2462 H2474 0.956 . S
C2462 H2475 0.961 . S
C2462 H2476 0.961 . S
C2463 C2460 1.539 . S
C2463 H2477 0.958 . S
C2463 H2478 0.961 . S
C2463 H2479 0.960 . S
H2464 C2448 0.931 . S
H2465 C2453 0.929 . S
H2466 C2454 0.960 . S
H2467 C2454 0.962 . S
H2468 C2454 0.960 . S
H2469 C2455 0.961 . S
H2470 C2455 0.961 . S
H2471 C2455 0.961 . S
H2472 C2456 0.931 . S
H2473 C2461 0.930 . S
H2474 C2462 0.956 . S
H2475 C2462 0.961 . S
H2476 C2462 0.961 . S
H2477 C2463 0.958 . S
H2478 C2463 0.961 . S
H2479 C2463 0.960 . S
C2480 C2481 1.391 . S
C2480 C2482 1.394 . S
C2480 H2496 0.931 . S
C2481 C2480 1.391 . S
C2481 C2485 1.376 . S
C2482 C2480 1.394 . S
C2482 C2483 1.369 . S
C2482 C2486 1.531 . S
C2483 C2482 1.369 . S
C2483 C2484 1.410 . S
C2483 C2491 1.503 . S
C2484 C2483 1.410 . S
C2484 C2485 1.392 . S
C2484 C2487 1.511 . S
C2485 C2481 1.376 . S
C2485 C2484 1.392 . S
C2485 H2497 0.929 . S
C2486 C2482 1.531 . S
C2486 H2498 0.960 . S
C2486 H2499 0.962 . S
C2486 H2500 0.960 . S
C2487 C2484 1.511 . S
C2487 H2501 0.961 . S
C2487 H2502 0.961 . S
C2487 H2503 0.961 . S
C2488 C2489 1.370 . S
C2488 C2490 1.363 . S
C2488 H2504 0.931 . S
C2489 C2488 1.370 . S
C2489 C2493 1.408 . S
C2490 C2488 1.363 . S
C2490 C2491 1.370 . S
C2490 C2494 1.524 . S
C2491 C2483 1.503 . S
C2491 C2490 1.370 . S
C2491 C2492 1.403 . S
C2492 C2491 1.403 . S
C2492 C2493 1.404 . S
C2492 C2495 1.539 . S
C2493 C2489 1.408 . S
C2493 C2492 1.404 . S
C2493 H2505 0.930 . S
C2494 C2490 1.524 . S
C2494 H2506 0.956 . S
C2494 H2507 0.961 . S
C2494 H2508 0.961 . S
C2495 C2492 1.539 . S
C2495 H2509 0.958 . S
C2495 H2510 0.961 . S
C2495 H2511 0.960 . S
H2496 C2480 0.931 . S
H2497 C2485 0.929 . S
H2498 C2486 0.960 . S
H2499 C2486 0.962 . S
H2500 C2486 0.960 . S
H2501 C2487 0.961 . S
H2502 C2487 0.961 . S
H2503 C2487 0.961 . S
H2504 C2488 0.931 . S
H2505 C2493 0.930 . S
H2506 C2494 0.956 . S
H2507 C2494 0.961 . S
H2508 C2494 0.961 . S
H2509 C2495 0.958 . S
H2510 C2495 0.961 . S
H2511 C2495 0.960 . S
C2512 C2513 1.391 . S
C2512 C2514 1.394 . S
C2512 H2528 0.931 . S
C2513 C2512 1.391 . S
C2513 C2517 1.376 . S
C2514 C2512 1.394 . S
C2514 C2515 1.369 . S
C2514 C2518 1.531 . S
C2515 C2514 1.369 . S
C2515 C2516 1.410 . S
C2515 C2523 1.503 . S
C2516 C2515 1.410 . S
C2516 C2517 1.392 . S
C2516 C2519 1.511 . S
C2517 C2513 1.376 . S
C2517 C2516 1.392 . S
C2517 H2529 0.929 . S
C2518 C2514 1.531 . S
C2518 H2530 0.960 . S
C2518 H2531 0.962 . S
C2518 H2532 0.960 . S
C2519 C2516 1.511 . S
C2519 H2533 0.961 . S
C2519 H2534 0.961 . S
C2519 H2535 0.961 . S
C2520 C2521 1.370 . S
C2520 C2522 1.363 . S
C2520 H2536 0.931 . S
C2521 C2520 1.370 . S
C2521 C2525 1.408 . S
C2522 C2520 1.363 . S
C2522 C2523 1.370 . S
C2522 C2526 1.524 . S
C2523 C2515 1.503 . S
C2523 C2522 1.370 . S
C2523 C2524 1.403 . S
C2524 C2523 1.403 . S
C2524 C2525 1.404 . S
C2524 C2527 1.539 . S
C2525 C2521 1.408 . S
C2525 C2524 1.404 . S
C2525 H2537 0.930 . S
C2526 C2522 1.524 . S
C2526 H2538 0.956 . S
C2526 H2539 0.961 . S
C2526 H2540 0.961 . S
C2527 C2524 1.539 . S
C2527 H2541 0.958 . S
C2527 H2542 0.961 . S
C2527 H2543 0.960 . S
H2528 C2512 0.931 . S
H2529 C2517 0.929 . S
H2530 C2518 0.960 . S
H2531 C2518 0.962 . S
H2532 C2518 0.960 . S
H2533 C2519 0.961 . S
H2534 C2519 0.961 . S
H2535 C2519 0.961 . S
H2536 C2520 0.931 . S
H2537 C2525 0.930 . S
H2538 C2526 0.956 . S
H2539 C2526 0.961 . S
H2540 C2526 0.961 . S
H2541 C2527 0.958 . S
H2542 C2527 0.961 . S
H2543 C2527 0.960 . S
C2544 C2545 1.391 . S
C2544 C2546 1.394 . S
C2544 H2560 0.931 . S
C2545 C2544 1.391 . S
C2545 C2549 1.376 . S
C2546 C2544 1.394 . S
C2546 C2547 1.369 . S
C2546 C2550 1.531 . S
C2547 C2546 1.369 . S
C2547 C2548 1.410 . S
C2547 C2555 1.503 . S
C2548 C2547 1.410 . S
C2548 C2549 1.392 . S
C2548 C2551 1.511 . S
C2549 C2545 1.376 . S
C2549 C2548 1.392 . S
C2549 H2561 0.929 . S
C2550 C2546 1.531 . S
C2550 H2562 0.960 . S
C2550 H2563 0.962 . S
C2550 H2564 0.960 . S
C2551 C2548 1.511 . S
C2551 H2565 0.961 . S
C2551 H2566 0.961 . S
C2551 H2567 0.961 . S
C2552 C2553 1.370 . S
C2552 C2554 1.363 . S
C2552 H2568 0.931 . S
C2553 C2552 1.370 . S
C2553 C2557 1.408 . S
C2554 C2552 1.363 . S
C2554 C2555 1.370 . S
C2554 C2558 1.524 . S
C2555 C2547 1.503 . S
C2555 C2554 1.370 . S
C2555 C2556 1.403 . S
C2556 C2555 1.403 . S
C2556 C2557 1.404 . S
C2556 C2559 1.539 . S
C2557 C2553 1.408 . S
C2557 C2556 1.404 . S
C2557 H2569 0.930 . S
C2558 C2554 1.524 . S
C2558 H2570 0.956 . S
C2558 H2571 0.961 . S
C2558 H2572 0.961 . S
C2559 C2556 1.539 . S
C2559 H2573 0.958 . S
C2559 H2574 0.961 . S
C2559 H2575 0.960 . S
H2560 C2544 0.931 . S
H2561 C2549 0.929 . S
H2562 C2550 0.960 . S
H2563 C2550 0.962 . S
H2564 C2550 0.960 . S
H2565 C2551 0.961 . S
H2566 C2551 0.961 . S
H2567 C2551 0.961 . S
H2568 C2552 0.931 . S
H2569 C2557 0.930 . S
H2570 C2558 0.956 . S
H2571 C2558 0.961 . S
H2572 C2558 0.961 . S
H2573 C2559 0.958 . S
H2574 C2559 0.961 . S
H2575 C2559 0.960 . S
C2576 C2577 1.391 1_655 S
C2576 C2578 1.394 . S
C2576 H2592 0.931 . S
C2577 C2576 1.391 1_455 S
C2577 C2581 1.376 . S
C2578 C2576 1.394 . S
C2578 C2579 1.369 1_655 S
C2578 C2582 1.531 . S
C2579 C2578 1.369 1_455 S
C2579 C2580 1.410 . S
C2579 C2587 1.503 . S
C2580 C2579 1.410 . S
C2580 C2581 1.392 . S
C2580 C2583 1.511 . S
C2581 C2577 1.376 . S
C2581 C2580 1.392 . S
C2581 H2593 0.929 . S
C2582 C2578 1.531 . S
C2582 H2594 0.960 . S
C2582 H2595 0.962 1_655 S
C2582 H2596 0.960 . S
C2583 C2580 1.511 . S
C2583 H2597 0.961 . S
C2583 H2598 0.961 . S
C2583 H2599 0.961 . S
C2584 C2585 1.370 . S
C2584 C2586 1.363 . S
C2584 H2600 0.931 . S
C2585 C2584 1.370 . S
C2585 C2589 1.408 . S
C2586 C2584 1.363 . S
C2586 C2587 1.370 . S
C2586 C2590 1.524 . S
C2587 C2579 1.503 . S
C2587 C2586 1.370 . S
C2587 C2588 1.403 . S
C2588 C2587 1.403 . S
C2588 C2589 1.404 . S
C2588 C2591 1.539 1_455 S
C2589 C2585 1.408 . S
C2589 C2588 1.404 . S
C2589 H2601 0.930 1_456 S
C2590 C2586 1.524 . S
C2590 H2602 0.956 . S
C2590 H2603 0.961 . S
C2590 H2604 0.961 . S
C2591 C2588 1.539 1_655 S
C2591 H2605 0.958 . S
C2591 H2606 0.961 . S
C2591 H2607 0.960 . S
H2592 C2576 0.931 . S
H2593 C2581 0.929 . S
H2594 C2582 0.960 . S
H2595 C2582 0.962 1_455 S
H2596 C2582 0.960 . S
H2597 C2583 0.961 . S
H2598 C2583 0.961 . S
H2599 C2583 0.961 . S
H2600 C2584 0.931 . S
H2601 C2589 0.930 1_654 S
H2602 C2590 0.956 . S
H2603 C2590 0.961 . S
H2604 C2590 0.961 . S
H2605 C2591 0.958 . S
H2606 C2591 0.961 . S
H2607 C2591 0.960 . S
C2608 C2609 1.391 . S
C2608 C2610 1.394 1_455 S
C2608 H2624 0.931 . S
C2609 C2608 1.391 . S
C2609 C2613 1.376 . S
C2610 C2608 1.394 1_655 S
C2610 C2611 1.369 . S
C2610 C2614 1.531 . S
C2611 C2610 1.369 . S
C2611 C2612 1.410 1_655 S
C2611 C2619 1.503 . S
C2612 C2611 1.410 1_455 S
C2612 C2613 1.392 . S
C2612 C2615 1.511 . S
C2613 C2609 1.376 . S
C2613 C2612 1.392 . S
C2613 H2625 0.929 . S
C2614 C2610 1.531 . S
C2614 H2626 0.960 . S
C2614 H2627 0.962 . S
C2614 H2628 0.960 . S
C2615 C2612 1.511 . S
C2615 H2629 0.961 . S
C2615 H2630 0.961 . S
C2615 H2631 0.961 . S
C2616 C2617 1.370 . S
C2616 C2618 1.363 . S
C2616 H2632 0.931 . S
C2617 C2616 1.370 . S
C2617 C2621 1.408 . S
C2618 C2616 1.363 . S
C2618 C2619 1.370 . S
C2618 C2622 1.524 . S
C2619 C2611 1.503 . S
C2619 C2618 1.370 . S
C2619 C2620 1.403 . S
C2620 C2619 1.403 . S
C2620 C2621 1.404 . S
C2620 C2623 1.539 . S
C2621 C2617 1.408 . S
C2621 C2620 1.404 . S
C2621 H2633 0.930 . S
C2622 C2618 1.524 . S
C2622 H2634 0.956 . S
C2622 H2635 0.961 . S
C2622 H2636 0.961 . S
C2623 C2620 1.539 . S
C2623 H2637 0.958 . S
C2623 H2638 0.961 . S
C2623 H2639 0.960 . S
H2624 C2608 0.931 . S
H2625 C2613 0.929 . S
H2626 C2614 0.960 . S
H2627 C2614 0.962 . S
H2628 C2614 0.960 . S
H2629 C2615 0.961 . S
H2630 C2615 0.961 . S
H2631 C2615 0.961 . S
H2632 C2616 0.931 . S
H2633 C2621 0.930 . S
H2634 C2622 0.956 . S
H2635 C2622 0.961 . S
H2636 C2622 0.961 . S
H2637 C2623 0.958 . S
H2638 C2623 0.961 . S
H2639 C2623 0.960 . S
C2640 C2641 1.391 . S
C2640 C2642 1.394 . S
C2640 H2656 0.931 . S
C2641 C2640 1.391 . S
C2641 C2645 1.376 . S
C2642 C2640 1.394 . S
C2642 C2643 1.369 . S
C2642 C2646 1.531 . S
C2643 C2642 1.369 . S
C2643 C2644 1.410 . S
C2643 C2651 1.503 . S
C2644 C2643 1.410 . S
C2644 C2645 1.392 . S
C2644 C2647 1.511 . S
C2645 C2641 1.376 . S
C2645 C2644 1.392 . S
C2645 H2657 0.929 . S
C2646 C2642 1.531 . S
C2646 H2658 0.960 . S
C2646 H2659 0.962 . S
C2646 H2660 0.960 . S
C2647 C2644 1.511 . S
C2647 H2661 0.961 . S
C2647 H2662 0.961 . S
C2647 H2663 0.961 . S
C2648 C2649 1.370 . S
C2648 C2650 1.363 . S
C2648 H2664 0.931 . S
C2649 C2648 1.370 . S
C2649 C2653 1.408 . S
C2650 C2648 1.363 . S
C2650 C2651 1.370 . S
C2650 C2654 1.524 . S
C2651 C2643 1.503 . S
C2651 C2650 1.370 . S
C2651 C2652 1.403 . S
C2652 C2651 1.403 . S
C2652 C2653 1.404 . S
C2652 C2655 1.539 . S
C2653 C2649 1.408 . S
C2653 C2652 1.404 . S
C2653 H2665 0.930 . S
C2654 C2650 1.524 . S
C2654 H2666 0.956 . S
C2654 H2667 0.961 . S
C2654 H2668 0.961 . S
C2655 C2652 1.539 . S
C2655 H2669 0.958 . S
C2655 H2670 0.961 . S
C2655 H2671 0.960 . S
H2656 C2640 0.931 . S
H2657 C2645 0.929 . S
H2658 C2646 0.960 . S
H2659 C2646 0.962 . S
H2660 C2646 0.960 . S
H2661 C2647 0.961 . S
H2662 C2647 0.961 . S
H2663 C2647 0.961 . S
H2664 C2648 0.931 . S
H2665 C2653 0.930 . S
H2666 C2654 0.956 . S
H2667 C2654 0.961 . S
H2668 C2654 0.961 . S
H2669 C2655 0.958 . S
H2670 C2655 0.961 . S
H2671 C2655 0.960 . S
C2672 C2673 1.391 . S
C2672 C2674 1.394 . S
C2672 H2688 0.931 . S
C2673 C2672 1.391 . S
C2673 C2677 1.376 . S
C2674 C2672 1.394 . S
C2674 C2675 1.369 . S
C2674 C2678 1.531 . S
C2675 C2674 1.369 . S
C2675 C2676 1.410 . S
C2675 C2683 1.503 . S
C2676 C2675 1.410 . S
C2676 C2677 1.392 . S
C2676 C2679 1.511 . S
C2677 C2673 1.376 . S
C2677 C2676 1.392 . S
C2677 H2689 0.929 . S
C2678 C2674 1.531 . S
C2678 H2690 0.960 . S
C2678 H2691 0.962 . S
C2678 H2692 0.960 . S
C2679 C2676 1.511 . S
C2679 H2693 0.961 . S
C2679 H2694 0.961 . S
C2679 H2695 0.961 . S
C2680 C2681 1.370 . S
C2680 C2682 1.363 . S
C2680 H2696 0.931 . S
C2681 C2680 1.370 . S
C2681 C2685 1.408 . S
C2682 C2680 1.363 . S
C2682 C2683 1.370 . S
C2682 C2686 1.524 . S
C2683 C2675 1.503 . S
C2683 C2682 1.370 . S
C2683 C2684 1.403 . S
C2684 C2683 1.403 . S
C2684 C2685 1.404 . S
C2684 C2687 1.539 . S
C2685 C2681 1.408 . S
C2685 C2684 1.404 . S
C2685 H2697 0.930 . S
C2686 C2682 1.524 . S
C2686 H2698 0.956 . S
C2686 H2699 0.961 . S
C2686 H2700 0.961 . S
C2687 C2684 1.539 . S
C2687 H2701 0.958 . S
C2687 H2702 0.961 . S
C2687 H2703 0.960 . S
H2688 C2672 0.931 . S
H2689 C2677 0.929 . S
H2690 C2678 0.960 . S
H2691 C2678 0.962 . S
H2692 C2678 0.960 . S
H2693 C2679 0.961 . S
H2694 C2679 0.961 . S
H2695 C2679 0.961 . S
H2696 C2680 0.931 . S
H2697 C2685 0.930 . S
H2698 C2686 0.956 . S
H2699 C2686 0.961 . S
H2700 C2686 0.961 . S
H2701 C2687 0.958 . S
H2702 C2687 0.961 . S
H2703 C2687 0.960 . S
C2704 C2705 1.391 . S
C2704 C2706 1.394 . S
C2704 H2720 0.931 . S
C2705 C2704 1.391 . S
C2705 C2709 1.376 . S
C2706 C2704 1.394 . S
C2706 C2707 1.369 . S
C2706 C2710 1.531 . S
C2707 C2706 1.369 . S
C2707 C2708 1.410 . S
C2707 C2715 1.503 . S
C2708 C2707 1.410 . S
C2708 C2709 1.392 . S
C2708 C2711 1.511 1_455 S
C2709 C2705 1.376 . S
C2709 C2708 1.392 . S
C2709 H2721 0.929 . S
C2710 C2706 1.531 . S
C2710 H2722 0.960 . S
C2710 H2723 0.962 . S
C2710 H2724 0.960 . S
C2711 C2708 1.511 1_655 S
C2711 H2725 0.961 . S
C2711 H2726 0.961 . S
C2711 H2727 0.961 . S
C2712 C2713 1.370 . S
C2712 C2714 1.363 . S
C2712 H2728 0.931 . S
C2713 C2712 1.370 . S
C2713 C2717 1.408 . S
C2714 C2712 1.363 . S
C2714 C2715 1.370 . S
C2714 C2718 1.524 . S
C2715 C2707 1.503 . S
C2715 C2714 1.370 . S
C2715 C2716 1.403 . S
C2716 C2715 1.403 . S
C2716 C2717 1.404 . S
C2716 C2719 1.539 . S
C2717 C2713 1.408 . S
C2717 C2716 1.404 . S
C2717 H2729 0.930 . S
C2718 C2714 1.524 . S
C2718 H2730 0.956 . S
C2718 H2731 0.961 . S
C2718 H2732 0.961 . S
C2719 C2716 1.539 . S
C2719 H2733 0.958 . S
C2719 H2734 0.961 . S
C2719 H2735 0.960 . S
H2720 C2704 0.931 . S
H2721 C2709 0.929 . S
H2722 C2710 0.960 . S
H2723 C2710 0.962 . S
H2724 C2710 0.960 . S
H2725 C2711 0.961 . S
H2726 C2711 0.961 . S
H2727 C2711 0.961 . S
H2728 C2712 0.931 . S
H2729 C2717 0.930 . S
H2730 C2718 0.956 . S
H2731 C2718 0.961 . S
H2732 C2718 0.961 . S
H2733 C2719 0.958 . S
H2734 C2719 0.961 . S
H2735 C2719 0.960 . S
C2736 C2737 1.391 . S
C2736 C2738 1.394 . S
C2736 H2752 0.931 . S
C2737 C2736 1.391 . S
C2737 C2741 1.376 . S
C2738 C2736 1.394 . S
C2738 C2739 1.369 . S
C2738 C2742 1.531 . S
C2739 C2738 1.369 . S
C2739 C2740 1.410 . S
C2739 C2747 1.503 . S
C2740 C2739 1.410 . S
C2740 C2741 1.392 . S
C2740 C2743 1.511 . S
C2741 C2737 1.376 . S
C2741 C2740 1.392 . S
C2741 H2753 0.929 . S
C2742 C2738 1.531 . S
C2742 H2754 0.960 . S
C2742 H2755 0.962 . S
C2742 H2756 0.960 . S
C2743 C2740 1.511 . S
C2743 H2757 0.961 . S
C2743 H2758 0.961 . S
C2743 H2759 0.961 . S
C2744 C2745 1.370 . S
C2744 C2746 1.363 . S
C2744 H2760 0.931 . S
C2745 C2744 1.370 . S
C2745 C2749 1.408 . S
C2746 C2744 1.363 . S
C2746 C2747 1.370 . S
C2746 C2750 1.524 . S
C2747 C2739 1.503 . S
C2747 C2746 1.370 . S
C2747 C2748 1.403 . S
C2748 C2747 1.403 . S
C2748 C2749 1.404 . S
C2748 C2751 1.539 . S
C2749 C2745 1.408 . S
C2749 C2748 1.404 . S
C2749 H2761 0.930 . S
C2750 C2746 1.524 . S
C2750 H2762 0.956 . S
C2750 H2763 0.961 . S
C2750 H2764 0.961 . S
C2751 C2748 1.539 . S
C2751 H2765 0.958 . S
C2751 H2766 0.961 . S
C2751 H2767 0.960 . S
H2752 C2736 0.931 . S
H2753 C2741 0.929 . S
H2754 C2742 0.960 . S
H2755 C2742 0.962 . S
H2756 C2742 0.960 . S
H2757 C2743 0.961 . S
H2758 C2743 0.961 . S
H2759 C2743 0.961 . S
H2760 C2744 0.931 . S
H2761 C2749 0.930 . S
H2762 C2750 0.956 . S
H2763 C2750 0.961 . S
H2764 C2750 0.961 . S
H2765 C2751 0.958 . S
H2766 C2751 0.961 . S
H2767 C2751 0.960 . S
C2768 C2769 1.391 . S
C2768 C2770 1.394 . S
C2768 H2784 0.931 . S
C2769 C2768 1.391 . S
C2769 C2773 1.376 . S
C2770 C2768 1.394 . S
C2770 C2771 1.369 . S
C2770 C2774 1.531 . S
C2771 C2770 1.369 . S
C2771 C2772 1.410 . S
C2771 C2779 1.503 . S
C2772 C2771 1.410 . S
C2772 C2773 1.392 . S
C2772 C2775 1.511 . S
C2773 C2769 1.376 . S
C2773 C2772 1.392 . S
C2773 H2785 0.929 . S
C2774 C2770 1.531 . S
C2774 H2786 0.960 . S
C2774 H2787 0.962 . S
C2774 H2788 0.960 . S
C2775 C2772 1.511 . S
C2775 H2789 0.961 . S
C2775 H2790 0.961 . S
C2775 H2791 0.961 . S
C2776 C2777 1.370 . S
C2776 C2778 1.363 . S
C2776 H2792 0.931 . S
C2777 C2776 1.370 . S
C2777 C2781 1.408 . S
C2778 C2776 1.363 . S
C2778 C2779 1.370 . S
C2778 C2782 1.524 . S
C2779 C2771 1.503 . S
C2779 C2778 1.370 . S
C2779 C2780 1.403 . S
C2780 C2779 1.403 . S
C2780 C2781 1.404 . S
C2780 C2783 1.539 . S
C2781 C2777 1.408 . S
C2781 C2780 1.404 . S
C2781 H2793 0.930 . S
C2782 C2778 1.524 . S
C2782 H2794 0.956 . S
C2782 H2795 0.961 . S
C2782 H2796 0.961 . S
C2783 C2780 1.539 . S
C2783 H2797 0.958 . S
C2783 H2798 0.961 . S
C2783 H2799 0.960 . S
H2784 C2768 0.931 . S
H2785 C2773 0.929 . S
H2786 C2774 0.960 . S
H2787 C2774 0.962 . S
H2788 C2774 0.960 . S
H2789 C2775 0.961 . S
H2790 C2775 0.961 . S
H2791 C2775 0.961 . S
H2792 C2776 0.931 . S
H2793 C2781 0.930 . S
H2794 C2782 0.956 . S
H2795 C2782 0.961 . S
H2796 C2782 0.961 . S
H2797 C2783 0.958 . S
H2798 C2783 0.961 . S
H2799 C2783 0.960 . S
C2800 C2801 1.391 . S
C2800 C2802 1.394 . S
C2800 H2816 0.931 . S
C2801 C2800 1.391 . S
C2801 C2805 1.376 . S
C2802 C2800 1.394 . S
C2802 C2803 1.369 . S
C2802 C2806 1.531 . S
C2803 C2802 1.369 . S
C2803 C2804 1.410 . S
C2803 C2811 1.503 . S
C2804 C2803 1.410 . S
C2804 C2805 1.392 . S
C2804 C2807 1.511 . S
C2805 C2801 1.376 . S
C2805 C2804 1.392 . S
C2805 H2817 0.929 . S
C2806 C2802 1.531 . S
C2806 H2818 0.960 . S
C2806 H2819 0.962 . S
C2806 H2820 0.960 . S
C2807 C2804 1.511 . S
C2807 H2821 0.961 . S
C2807 H2822 0.961 . S
C2807 H2823 0.961 . S
C2808 C2809 1.370 . S
C2808 C2810 1.363 . S
C2808 H2824 0.931 . S
C2809 C2808 1.370 . S
C2809 C2813 1.408 . S
C2810 C2808 1.363 . S
C2810 C2811 1.370 . S
C2810 C2814 1.524 . S
C2811 C2803 1.503 . S
C2811 C2810 1.370 . S
C2811 C2812 1.403 . S
C2812 C2811 1.403 . S
C2812 C2813 1.404 . S
C2812 C2815 1.539 . S
C2813 C2809 1.408 . S
C2813 C2812 1.404 . S
C2813 H2825 0.930 . S
C2814 C2810 1.524 . S
C2814 H2826 0.956 . S
C2814 H2827 0.961 . S
C2814 H2828 0.961 . S
C2815 C2812 1.539 . S
C2815 H2829 0.958 . S
C2815 H2830 0.961 . S
C2815 H2831 0.960 . S
H2816 C2800 0.931 . S
H2817 C2805 0.929 . S
H2818 C2806 0.960 . S
H2819 C2806 0.962 . S
H2820 C2806 0.960 . S
H2821 C2807 0.961 . S
H2822 C2807 0.961 . S
H2823 C2807 0.961 . S
H2824 C2808 0.931 . S
H2825 C2813 0.930 . S
H2826 C2814 0.956 . S
H2827 C2814 0.961 . S
H2828 C2814 0.961 . S
H2829 C2815 0.958 . S
H2830 C2815 0.961 . S
H2831 C2815 0.960 . S
C2832 C2833 1.391 . S
C2832 C2834 1.394 . S
C2832 H2848 0.931 . S
C2833 C2832 1.391 . S
C2833 C2837 1.376 . S
C2834 C2832 1.394 . S
C2834 C2835 1.369 . S
C2834 C2838 1.531 . S
C2835 C2834 1.369 . S
C2835 C2836 1.410 . S
C2835 C2843 1.503 . S
C2836 C2835 1.410 . S
C2836 C2837 1.392 . S
C2836 C2839 1.511 . S
C2837 C2833 1.376 . S
C2837 C2836 1.392 . S
C2837 H2849 0.929 . S
C2838 C2834 1.531 . S
C2838 H2850 0.960 . S
C2838 H2851 0.962 . S
C2838 H2852 0.960 . S
C2839 C2836 1.511 . S
C2839 H2853 0.961 . S
C2839 H2854 0.961 . S
C2839 H2855 0.961 . S
C2840 C2841 1.370 . S
C2840 C2842 1.363 . S
C2840 H2856 0.931 . S
C2841 C2840 1.370 . S
C2841 C2845 1.408 . S
C2842 C2840 1.363 . S
C2842 C2843 1.370 . S
C2842 C2846 1.524 . S
C2843 C2835 1.503 . S
C2843 C2842 1.370 . S
C2843 C2844 1.403 . S
C2844 C2843 1.403 . S
C2844 C2845 1.404 . S
C2844 C2847 1.539 . S
C2845 C2841 1.408 . S
C2845 C2844 1.404 . S
C2845 H2857 0.930 . S
C2846 C2842 1.524 . S
C2846 H2858 0.956 . S
C2846 H2859 0.961 . S
C2846 H2860 0.961 . S
C2847 C2844 1.539 . S
C2847 H2861 0.958 . S
C2847 H2862 0.961 . S
C2847 H2863 0.960 . S
H2848 C2832 0.931 . S
H2849 C2837 0.929 . S
H2850 C2838 0.960 . S
H2851 C2838 0.962 . S
H2852 C2838 0.960 . S
H2853 C2839 0.961 . S
H2854 C2839 0.961 . S
H2855 C2839 0.961 . S
H2856 C2840 0.931 . S
H2857 C2845 0.930 . S
H2858 C2846 0.956 . S
H2859 C2846 0.961 . S
H2860 C2846 0.961 . S
H2861 C2847 0.958 . S
H2862 C2847 0.961 . S
H2863 C2847 0.960 . S
C2864 C2865 1.391 . S
C2864 C2866 1.394 . S
C2864 H2880 0.931 . S
C2865 C2864 1.391 . S
C2865 C2869 1.376 . S
C2866 C2864 1.394 . S
C2866 C2867 1.369 . S
C2866 C2870 1.531 . S
C2867 C2866 1.369 . S
C2867 C2868 1.410 . S
C2867 C2875 1.503 . S
C2868 C2867 1.410 . S
C2868 C2869 1.392 . S
C2868 C2871 1.511 . S
C2869 C2865 1.376 . S
C2869 C2868 1.392 . S
C2869 H2881 0.929 . S
C2870 C2866 1.531 . S
C2870 H2882 0.960 . S
C2870 H2883 0.962 . S
C2870 H2884 0.960 . S
C2871 C2868 1.511 . S
C2871 H2885 0.961 . S
C2871 H2886 0.961 . S
C2871 H2887 0.961 . S
C2872 C2873 1.370 . S
C2872 C2874 1.363 . S
C2872 H2888 0.931 . S
C2873 C2872 1.370 . S
C2873 C2877 1.408 . S
C2874 C2872 1.363 . S
C2874 C2875 1.370 . S
C2874 C2878 1.524 . S
C2875 C2867 1.503 . S
C2875 C2874 1.370 . S
C2875 C2876 1.403 . S
C2876 C2875 1.403 . S
C2876 C2877 1.404 . S
C2876 C2879 1.539 . S
C2877 C2873 1.408 . S
C2877 C2876 1.404 . S
C2877 H2889 0.930 . S
C2878 C2874 1.524 . S
C2878 H2890 0.956 . S
C2878 H2891 0.961 . S
C2878 H2892 0.961 . S
C2879 C2876 1.539 . S
C2879 H2893 0.958 . S
C2879 H2894 0.961 . S
C2879 H2895 0.960 . S
H2880 C2864 0.931 . S
H2881 C2869 0.929 . S
H2882 C2870 0.960 . S
H2883 C2870 0.962 . S
H2884 C2870 0.960 . S
H2885 C2871 0.961 . S
H2886 C2871 0.961 . S
H2887 C2871 0.961 . S
H2888 C2872 0.931 . S
H2889 C2877 0.930 . S
H2890 C2878 0.956 . S
H2891 C2878 0.961 . S
H2892 C2878 0.961 . S
H2893 C2879 0.958 . S
H2894 C2879 0.961 . S
H2895 C2879 0.960 . S
C2896 C2897 1.391 . S
C2896 C2898 1.394 . S
C2896 H2912 0.931 . S
C2897 C2896 1.391 . S
C2897 C2901 1.376 . S
C2898 C2896 1.394 . S
C2898 C2899 1.369 . S
C2898 C2902 1.531 . S
C2899 C2898 1.369 . S
C2899 C2900 1.410 . S
C2899 C2907 1.503 . S
C2900 C2899 1.410 . S
C2900 C2901 1.392 . S
C2900 C2903 1.511 . S
C2901 C2897 1.376 . S
C2901 C2900 1.392 . S
C2901 H2913 0.929 . S
C2902 C2898 1.531 . S
C2902 H2914 0.960 . S
C2902 H2915 0.962 . S
C2902 H2916 0.960 . S
C2903 C2900 1.511 . S
C2903 H2917 0.961 . S
C2903 H2918 0.961 . S
C2903 H2919 0.961 . S
C2904 C2905 1.370 . S
C2904 C2906 1.363 . S
C2904 H2920 0.931 . S
C2905 C2904 1.370 . S
C2905 C2909 1.408 . S
C2906 C2904 1.363 . S
C2906 C2907 1.370 . S
C2906 C2910 1.524 . S
C2907 C2899 1.503 . S
C2907 C2906 1.370 . S
C2907 C2908 1.403 . S
C2908 C2907 1.403 . S
C2908 C2909 1.404 . S
C2908 C2911 1.539 . S
C2909 C2905 1.408 . S
C2909 C2908 1.404 . S
C2909 H2921 0.930 . S
C2910 C2906 1.524 . S
C2910 H2922 0.956 . S
C2910 H2923 0.961 . S
C2910 H2924 0.961 . S
C2911 C2908 1.539 . S
C2911 H2925 0.958 . S
C2911 H2926 0.961 . S
C2911 H2927 0.960 . S
H2912 C2896 0.931 . S
H2913 C2901 0.929 . S
H2914 C2902 0.960 . S
H2915 C2902 0.962 . S
H2916 C2902 0.960 . S
H2917 C2903 0.961 . S
H2918 C2903 0.961 . S
H2919 C2903 0.961 . S
H2920 C2904 0.931 . S
H2921 C2909 0.930 . S
H2922 C2910 0.956 . S
H2923 C2910 0.961 . S
H2924 C2910 0.961 . S
H2925 C2911 0.958 . S
H2926 C2911 0.961 . S
H2927 C2911 0.960 . S
C2928 C2929 1.391 . S
C2928 C2930 1.394 . S
C2928 H2944 0.931 . S
C2929 C2928 1.391 . S
C2929 C2933 1.376 . S
C2930 C2928 1.394 . S
C2930 C2931 1.369 . S
C2930 C2934 1.531 . S
C2931 C2930 1.369 . S
C2931 C2932 1.410 . S
C2931 C2939 1.503 . S
C2932 C2931 1.410 . S
C2932 C2933 1.392 . S
C2932 C2935 1.511 . S
C2933 C2929 1.376 . S
C2933 C2932 1.392 . S
C2933 H2945 0.929 . S
C2934 C2930 1.531 . S
C2934 H2946 0.960 . S
C2934 H2947 0.962 . S
C2934 H2948 0.960 . S
C2935 C2932 1.511 . S
C2935 H2949 0.961 . S
C2935 H2950 0.961 . S
C2935 H2951 0.961 . S
C2936 C2937 1.370 . S
C2936 C2938 1.363 . S
C2936 H2952 0.931 . S
C2937 C2936 1.370 . S
C2937 C2941 1.408 . S
C2938 C2936 1.363 . S
C2938 C2939 1.370 . S
C2938 C2942 1.524 . S
C2939 C2931 1.503 . S
C2939 C2938 1.370 . S
C2939 C2940 1.403 . S
C2940 C2939 1.403 . S
C2940 C2941 1.404 . S
C2940 C2943 1.539 . S
C2941 C2937 1.408 . S
C2941 C2940 1.404 . S
C2941 H2953 0.930 . S
C2942 C2938 1.524 . S
C2942 H2954 0.956 . S
C2942 H2955 0.961 . S
C2942 H2956 0.961 . S
C2943 C2940 1.539 . S
C2943 H2957 0.958 . S
C2943 H2958 0.961 . S
C2943 H2959 0.960 . S
H2944 C2928 0.931 . S
H2945 C2933 0.929 . S
H2946 C2934 0.960 . S
H2947 C2934 0.962 . S
H2948 C2934 0.960 . S
H2949 C2935 0.961 . S
H2950 C2935 0.961 . S
H2951 C2935 0.961 . S
H2952 C2936 0.931 . S
H2953 C2941 0.930 . S
H2954 C2942 0.956 . S
H2955 C2942 0.961 . S
H2956 C2942 0.961 . S
H2957 C2943 0.958 . S
H2958 C2943 0.961 . S
H2959 C2943 0.960 . S
C2960 C2961 1.391 . S
C2960 C2962 1.394 . S
C2960 H2976 0.931 . S
C2961 C2960 1.391 . S
C2961 C2965 1.376 . S
C2962 C2960 1.394 . S
C2962 C2963 1.369 . S
C2962 C2966 1.531 . S
C2963 C2962 1.369 . S
C2963 C2964 1.410 . S
C2963 C2971 1.503 . S
C2964 C2963 1.410 . S
C2964 C2965 1.392 . S
C2964 C2967 1.511 . S
C2965 C2961 1.376 . S
C2965 C2964 1.392 . S
C2965 H2977 0.929 . S
C2966 C2962 1.531 . S
C2966 H2978 0.960 . S
C2966 H2979 0.962 . S
C2966 H2980 0.960 . S
C2967 C2964 1.511 . S
C2967 H2981 0.961 . S
C2967 H2982 0.961 . S
C2967 H2983 0.961 . S
C2968 C2969 1.370 . S
C2968 C2970 1.363 . S
C2968 H2984 0.931 . S
C2969 C2968 1.370 . S
C2969 C2973 1.408 . S
C2970 C2968 1.363 . S
C2970 C2971 1.370 . S
C2970 C2974 1.524 . S
C2971 C2963 1.503 . S
C2971 C2970 1.370 . S
C2971 C2972 1.403 . S
C2972 C2971 1.403 . S
C2972 C2973 1.404 . S
C2972 C2975 1.539 . S
C2973 C2969 1.408 . S
C2973 C2972 1.404 . S
C2973 H2985 0.930 . S
C2974 C2970 1.524 . S
C2974 H2986 0.956 . S
C2974 H2987 0.961 . S
C2974 H2988 0.961 . S
C2975 C2972 1.539 . S
C2975 H2989 0.958 . S
C2975 H2990 0.961 . S
C2975 H2991 0.960 . S
H2976 C2960 0.931 . S
H2977 C2965 0.929 . S
H2978 C2966 0.960 . S
H2979 C2966 0.962 . S
H2980 C2966 0.960 . S
H2981 C2967 0.961 . S
H2982 C2967 0.961 . S
H2983 C2967 0.961 . S
H2984 C2968 0.931 . S
H2985 C2973 0.930 . S
H2986 C2974 0.956 . S
H2987 C2974 0.961 . S
H2988 C2974 0.961 . S
H2989 C2975 0.958 . S
H2990 C2975 0.961 . S
H2991 C2975 0.960 . S
C2992 C2993 1.391 . S
C2992 C2994 1.394 . S
C2992 H3008 0.931 . S
C2993 C2992 1.391 . S
C2993 C2997 1.376 . S
C2994 C2992 1.394 . S
C2994 C2995 1.369 . S
C2994 C2998 1.531 . S
C2995 C2994 1.369 . S
C2995 C2996 1.410 . S
C2995 C3003 1.503 . S
C2996 C2995 1.410 . S
C2996 C2997 1.392 . S
C2996 C2999 1.511 . S
C2997 C2993 1.376 . S
C2997 C2996 1.392 . S
C2997 H3009 0.929 . S
C2998 C2994 1.531 . S
C2998 H3010 0.960 . S
C2998 H3011 0.962 . S
C2998 H3012 0.960 . S
C2999 C2996 1.511 . S
C2999 H3013 0.961 . S
C2999 H3014 0.961 . S
C2999 H3015 0.961 . S
C3000 C3001 1.370 . S
C3000 C3002 1.363 . S
C3000 H3016 0.931 . S
C3001 C3000 1.370 . S
C3001 C3005 1.408 . S
C3002 C3000 1.363 . S
C3002 C3003 1.370 . S
C3002 C3006 1.524 . S
C3003 C2995 1.503 . S
C3003 C3002 1.370 . S
C3003 C3004 1.403 . S
C3004 C3003 1.403 . S
C3004 C3005 1.404 . S
C3004 C3007 1.539 . S
C3005 C3001 1.408 . S
C3005 C3004 1.404 . S
C3005 H3017 0.930 . S
C3006 C3002 1.524 . S
C3006 H3018 0.956 . S
C3006 H3019 0.961 . S
C3006 H3020 0.961 . S
C3007 C3004 1.539 . S
C3007 H3021 0.958 . S
C3007 H3022 0.961 . S
C3007 H3023 0.960 . S
H3008 C2992 0.931 . S
H3009 C2997 0.929 . S
H3010 C2998 0.960 . S
H3011 C2998 0.962 . S
H3012 C2998 0.960 . S
H3013 C2999 0.961 . S
H3014 C2999 0.961 . S
H3015 C2999 0.961 . S
H3016 C3000 0.931 . S
H3017 C3005 0.930 . S
H3018 C3006 0.956 . S
H3019 C3006 0.961 . S
H3020 C3006 0.961 . S
H3021 C3007 0.958 . S
H3022 C3007 0.961 . S
H3023 C3007 0.960 . S
C3024 C3025 1.391 . S
C3024 C3026 1.394 . S
C3024 H3040 0.931 . S
C3025 C3024 1.391 . S
C3025 C3029 1.376 . S
C3026 C3024 1.394 . S
C3026 C3027 1.369 . S
C3026 C3030 1.531 . S
C3027 C3026 1.369 . S
C3027 C3028 1.410 . S
C3027 C3035 1.503 . S
C3028 C3027 1.410 . S
C3028 C3029 1.392 . S
C3028 C3031 1.511 . S
C3029 C3025 1.376 . S
C3029 C3028 1.392 . S
C3029 H3041 0.929 . S
C3030 C3026 1.531 . S
C3030 H3042 0.960 . S
C3030 H3043 0.962 . S
C3030 H3044 0.960 . S
C3031 C3028 1.511 . S
C3031 H3045 0.961 . S
C3031 H3046 0.961 . S
C3031 H3047 0.961 . S
C3032 C3033 1.370 . S
C3032 C3034 1.363 . S
C3032 H3048 0.931 . S
C3033 C3032 1.370 . S
C3033 C3037 1.408 . S
C3034 C3032 1.363 . S
C3034 C3035 1.370 . S
C3034 C3038 1.524 . S
C3035 C3027 1.503 . S
C3035 C3034 1.370 . S
C3035 C3036 1.403 . S
C3036 C3035 1.403 . S
C3036 C3037 1.404 . S
C3036 C3039 1.539 . S
C3037 C3033 1.408 . S
C3037 C3036 1.404 . S
C3037 H3049 0.930 . S
C3038 C3034 1.524 . S
C3038 H3050 0.956 . S
C3038 H3051 0.961 . S
C3038 H3052 0.961 . S
C3039 C3036 1.539 . S
C3039 H3053 0.958 . S
C3039 H3054 0.961 . S
C3039 H3055 0.960 . S
H3040 C3024 0.931 . S
H3041 C3029 0.929 . S
H3042 C3030 0.960 . S
H3043 C3030 0.962 . S
H3044 C3030 0.960 . S
H3045 C3031 0.961 . S
H3046 C3031 0.961 . S
H3047 C3031 0.961 . S
H3048 C3032 0.931 . S
H3049 C3037 0.930 . S
H3050 C3038 0.956 . S
H3051 C3038 0.961 . S
H3052 C3038 0.961 . S
H3053 C3039 0.958 . S
H3054 C3039 0.961 . S
H3055 C3039 0.960 . S
C3056 C3057 1.391 . S
C3056 C3058 1.394 . S
C3056 H3072 0.931 . S
C3057 C3056 1.391 . S
C3057 C3061 1.376 . S
C3058 C3056 1.394 . S
C3058 C3059 1.369 . S
C3058 C3062 1.531 . S
C3059 C3058 1.369 . S
C3059 C3060 1.410 . S
C3059 C3067 1.503 . S
C3060 C3059 1.410 . S
C3060 C3061 1.392 . S
C3060 C3063 1.511 . S
C3061 C3057 1.376 . S
C3061 C3060 1.392 . S
C3061 H3073 0.929 . S
C3062 C3058 1.531 . S
C3062 H3074 0.960 . S
C3062 H3075 0.962 . S
C3062 H3076 0.960 . S
C3063 C3060 1.511 . S
C3063 H3077 0.961 . S
C3063 H3078 0.961 . S
C3063 H3079 0.961 . S
C3064 C3065 1.370 . S
C3064 C3066 1.363 . S
C3064 H3080 0.931 . S
C3065 C3064 1.370 . S
C3065 C3069 1.408 . S
C3066 C3064 1.363 . S
C3066 C3067 1.370 . S
C3066 C3070 1.524 . S
C3067 C3059 1.503 . S
C3067 C3066 1.370 . S
C3067 C3068 1.403 . S
C3068 C3067 1.403 . S
C3068 C3069 1.404 . S
C3068 C3071 1.539 . S
C3069 C3065 1.408 . S
C3069 C3068 1.404 . S
C3069 H3081 0.930 . S
C3070 C3066 1.524 . S
C3070 H3082 0.956 . S
C3070 H3083 0.961 . S
C3070 H3084 0.961 . S
C3071 C3068 1.539 . S
C3071 H3085 0.958 . S
C3071 H3086 0.961 . S
C3071 H3087 0.960 . S
H3072 C3056 0.931 . S
H3073 C3061 0.929 . S
H3074 C3062 0.960 . S
H3075 C3062 0.962 . S
H3076 C3062 0.960 . S
H3077 C3063 0.961 . S
H3078 C3063 0.961 . S
H3079 C3063 0.961 . S
H3080 C3064 0.931 . S
H3081 C3069 0.930 . S
H3082 C3070 0.956 . S
H3083 C3070 0.961 . S
H3084 C3070 0.961 . S
H3085 C3071 0.958 . S
H3086 C3071 0.961 . S
H3087 C3071 0.960 . S
C3088 C3089 1.391 . S
C3088 C3090 1.394 . S
C3088 H3104 0.931 . S
C3089 C3088 1.391 . S
C3089 C3093 1.376 1_565 S
C3090 C3088 1.394 . S
C3090 C3091 1.369 . S
C3090 C3094 1.531 . S
C3091 C3090 1.369 . S
C3091 C3092 1.410 . S
C3091 C3099 1.503 . S
C3092 C3091 1.410 . S
C3092 C3093 1.392 1_565 S
C3092 C3095 1.511 . S
C3093 C3089 1.376 1_545 S
C3093 C3092 1.392 1_545 S
C3093 H3105 0.929 . S
C3094 C3090 1.531 . S
C3094 H3106 0.960 . S
C3094 H3107 0.962 . S
C3094 H3108 0.960 . S
C3095 C3092 1.511 . S
C3095 H3109 0.961 1_565 S
C3095 H3110 0.961 . S
C3095 H3111 0.961 . S
C3096 C3097 1.370 . S
C3096 C3098 1.363 . S
C3096 H3112 0.931 . S
C3097 C3096 1.370 . S
C3097 C3101 1.408 . S
C3098 C3096 1.363 . S
C3098 C3099 1.370 . S
C3098 C3102 1.524 . S
C3099 C3091 1.503 . S
C3099 C3098 1.370 . S
C3099 C3100 1.403 . S
C3100 C3099 1.403 . S
C3100 C3101 1.404 . S
C3100 C3103 1.539 . S
C3101 C3097 1.408 . S
C3101 C3100 1.404 . S
C3101 H3113 0.930 . S
C3102 C3098 1.524 . S
C3102 H3114 0.956 . S
C3102 H3115 0.961 . S
C3102 H3116 0.961 . S
C3103 C3100 1.539 . S
C3103 H3117 0.958 . S
C3103 H3118 0.961 . S
C3103 H3119 0.960 . S
H3104 C3088 0.931 . S
H3105 C3093 0.929 . S
H3106 C3094 0.960 . S
H3107 C3094 0.962 . S
H3108 C3094 0.960 . S
H3109 C3095 0.961 1_545 S
H3110 C3095 0.961 . S
H3111 C3095 0.961 . S
H3112 C3096 0.931 . S
H3113 C3101 0.930 . S
H3114 C3102 0.956 . S
H3115 C3102 0.961 . S
H3116 C3102 0.961 . S
H3117 C3103 0.958 . S
H3118 C3103 0.961 . S
H3119 C3103 0.960 . S
C3120 C3121 1.391 . S
C3120 C3122 1.394 . S
C3120 H3136 0.931 . S
C3121 C3120 1.391 . S
C3121 C3125 1.376 . S
C3122 C3120 1.394 . S
C3122 C3123 1.369 . S
C3122 C3126 1.531 . S
C3123 C3122 1.369 . S
C3123 C3124 1.410 . S
C3123 C3131 1.503 . S
C3124 C3123 1.410 . S
C3124 C3125 1.392 . S
C3124 C3127 1.511 . S
C3125 C3121 1.376 . S
C3125 C3124 1.392 . S
C3125 H3137 0.929 . S
C3126 C3122 1.531 . S
C3126 H3138 0.960 . S
C3126 H3139 0.962 . S
C3126 H3140 0.960 . S
C3127 C3124 1.511 . S
C3127 H3141 0.961 . S
C3127 H3142 0.961 . S
C3127 H3143 0.961 . S
C3128 C3129 1.370 . S
C3128 C3130 1.363 . S
C3128 H3144 0.931 1_565 S
C3129 C3128 1.370 . S
C3129 C3133 1.408 . S
C3130 C3128 1.363 . S
C3130 C3131 1.370 . S
C3130 C3134 1.524 . S
C3131 C3123 1.503 . S
C3131 C3130 1.370 . S
C3131 C3132 1.403 . S
C3132 C3131 1.403 . S
C3132 C3133 1.404 . S
C3132 C3135 1.539 . S
C3133 C3129 1.408 . S
C3133 C3132 1.404 . S
C3133 H3145 0.930 . S
C3134 C3130 1.524 . S
C3134 H3146 0.956 . S
C3134 H3147 0.961 . S
C3134 H3148 0.961 . S
C3135 C3132 1.539 . S
C3135 H3149 0.958 . S
C3135 H3150 0.961 . S
C3135 H3151 0.960 . S
H3136 C3120 0.931 . S
H3137 C3125 0.929 . S
H3138 C3126 0.960 . S
H3139 C3126 0.962 . S
H3140 C3126 0.960 . S
H3141 C3127 0.961 . S
H3142 C3127 0.961 . S
H3143 C3127 0.961 . S
H3144 C3128 0.931 1_545 S
H3145 C3133 0.930 . S
H3146 C3134 0.956 . S
H3147 C3134 0.961 . S
H3148 C3134 0.961 . S
H3149 C3135 0.958 . S
H3150 C3135 0.961 . S
H3151 C3135 0.960 . S
C3152 C3153 1.391 . S
C3152 C3154 1.394 . S
C3152 H3168 0.931 . S
C3153 C3152 1.391 . S
C3153 C3157 1.376 . S
C3154 C3152 1.394 . S
C3154 C3155 1.369 . S
C3154 C3158 1.531 . S
C3155 C3154 1.369 . S
C3155 C3156 1.410 . S
C3155 C3163 1.503 . S
C3156 C3155 1.410 . S
C3156 C3157 1.392 . S
C3156 C3159 1.511 . S
C3157 C3153 1.376 . S
C3157 C3156 1.392 . S
C3157 H3169 0.929 . S
C3158 C3154 1.531 . S
C3158 H3170 0.960 . S
C3158 H3171 0.962 . S
C3158 H3172 0.960 . S
C3159 C3156 1.511 . S
C3159 H3173 0.961 . S
C3159 H3174 0.961 . S
C3159 H3175 0.961 . S
C3160 C3161 1.370 . S
C3160 C3162 1.363 . S
C3160 H3176 0.931 . S
C3161 C3160 1.370 . S
C3161 C3165 1.408 . S
C3162 C3160 1.363 . S
C3162 C3163 1.370 . S
C3162 C3166 1.524 . S
C3163 C3155 1.503 . S
C3163 C3162 1.370 . S
C3163 C3164 1.403 . S
C3164 C3163 1.403 . S
C3164 C3165 1.404 . S
C3164 C3167 1.539 . S
C3165 C3161 1.408 . S
C3165 C3164 1.404 . S
C3165 H3177 0.930 . S
C3166 C3162 1.524 . S
C3166 H3178 0.956 . S
C3166 H3179 0.961 . S
C3166 H3180 0.961 . S
C3167 C3164 1.539 . S
C3167 H3181 0.958 . S
C3167 H3182 0.961 . S
C3167 H3183 0.960 . S
H3168 C3152 0.931 . S
H3169 C3157 0.929 . S
H3170 C3158 0.960 . S
H3171 C3158 0.962 . S
H3172 C3158 0.960 . S
H3173 C3159 0.961 . S
H3174 C3159 0.961 . S
H3175 C3159 0.961 . S
H3176 C3160 0.931 . S
H3177 C3165 0.930 . S
H3178 C3166 0.956 . S
H3179 C3166 0.961 . S
H3180 C3166 0.961 . S
H3181 C3167 0.958 . S
H3182 C3167 0.961 . S
H3183 C3167 0.960 . S
C3184 C3185 1.391 . S
C3184 C3186 1.394 . S
C3184 H3200 0.931 . S
C3185 C3184 1.391 . S
C3185 C3189 1.376 . S
C3186 C3184 1.394 . S
C3186 C3187 1.369 . S
C3186 C3190 1.531 . S
C3187 C3186 1.369 . S
C3187 C3188 1.410 . S
C3187 C3195 1.503 . S
C3188 C3187 1.410 . S
C3188 C3189 1.392 . S
C3188 C3191 1.511 . S
C3189 C3185 1.376 . S
C3189 C3188 1.392 . S
C3189 H3201 0.929 . S
C3190 C3186 1.531 . S
C3190 H3202 0.960 . S
C3190 H3203 0.962 . S
C3190 H3204 0.960 1_554 S
C3191 C3188 1.511 . S
C3191 H3205 0.961 . S
C3191 H3206 0.961 . S
C3191 H3207 0.961 . S
C3192 C3193 1.370 . S
C3192 C3194 1.363 . S
C3192 H3208 0.931 . S
C3193 C3192 1.370 . S
C3193 C3197 1.408 . S
C3194 C3192 1.363 . S
C3194 C3195 1.370 . S
C3194 C3198 1.524 . S
C3195 C3187 1.503 . S
C3195 C3194 1.370 . S
C3195 C3196 1.403 . S
C3196 C3195 1.403 . S
C3196 C3197 1.404 . S
C3196 C3199 1.539 . S
C3197 C3193 1.408 . S
C3197 C3196 1.404 . S
C3197 H3209 0.930 1_655 S
C3198 C3194 1.524 . S
C3198 H3210 0.956 . S
C3198 H3211 0.961 . S
C3198 H3212 0.961 . S
C3199 C3196 1.539 . S
C3199 H3213 0.958 . S
C3199 H3214 0.929 1_655 S
C3199 H3215 0.960 . S
H3200 C3184 0.931 . S
H3201 C3189 0.929 . S
H3202 C3190 0.960 . S
H3203 C3190 0.962 . S
H3204 C3190 0.960 1_556 S
H3205 C3191 0.961 . S
H3206 C3191 0.961 . S
H3207 C3191 0.961 . S
H3208 C3192 0.931 . S
H3209 C3197 0.930 1_455 S
H3210 C3198 0.956 . S
H3211 C3198 0.961 . S
H3212 C3198 0.961 . S
H3213 C3199 0.958 . S
H3214 C3199 0.929 1_455 S
H3215 C3199 0.960 . S
C3216 C3217 1.391 . S
C3216 C3218 1.394 . S
C3216 H3232 0.931 . S
C3217 C3216 1.391 . S
C3217 C3221 1.376 . S
C3218 C3216 1.394 . S
C3218 C3219 1.369 . S
C3218 C3222 1.531 . S
C3219 C3218 1.369 . S
C3219 C3220 1.410 . S
C3219 C3227 1.503 . S
C3220 C3219 1.410 . S
C3220 C3221 1.392 . S
C3220 C3223 1.511 . S
C3221 C3217 1.376 . S
C3221 C3220 1.392 . S
C3221 H3233 0.929 . S
C3222 C3218 1.531 . S
C3222 H3234 0.960 . S
C3222 H3235 0.962 . S
C3222 H3236 0.960 . S
C3223 C3220 1.511 . S
C3223 H3237 0.961 . S
C3223 H3238 0.961 . S
C3223 H3239 0.961 . S
C3224 C3225 1.370 . S
C3224 C3226 1.363 . S
C3224 H3240 0.931 . S
C3225 C3224 1.370 . S
C3225 C3229 1.408 . S
C3226 C3224 1.363 . S
C3226 C3227 1.370 . S
C3226 C3230 1.524 . S
C3227 C3219 1.503 . S
C3227 C3226 1.370 . S
C3227 C3228 1.403 . S
C3228 C3227 1.403 . S
C3228 C3229 1.404 . S
C3228 C3231 1.539 . S
C3229 C3225 1.408 . S
C3229 C3228 1.404 . S
C3229 H3241 0.930 . S
C3230 C3226 1.524 . S
C3230 H3242 0.956 . S
C3230 H3243 0.961 . S
C3230 H3244 0.961 . S
C3231 C3228 1.539 . S
C3231 H3245 0.958 . S
C3231 H3246 0.961 . S
C3231 H3247 0.960 . S
H3232 C3216 0.931 . S
H3233 C3221 0.929 . S
H3234 C3222 0.960 . S
H3235 C3222 0.962 . S
H3236 C3222 0.960 . S
H3237 C3223 0.961 . S
H3238 C3223 0.961 . S
H3239 C3223 0.961 . S
H3240 C3224 0.931 . S
H3241 C3229 0.930 . S
H3242 C3230 0.956 . S
H3243 C3230 0.961 . S
H3244 C3230 0.961 . S
H3245 C3231 0.958 . S
H3246 C3231 0.961 . S
H3247 C3231 0.960 . S
C3248 C3249 1.391 1_565 S
C3248 C3250 1.394 . S
C3248 H3264 0.931 . S
C3249 C3248 1.391 1_545 S
C3249 C3253 1.376 . S
C3250 C3248 1.394 . S
C3250 C3251 1.369 . S
C3250 C3254 1.531 . S
C3251 C3250 1.369 . S
C3251 C3252 1.410 1_565 S
C3251 C3259 1.503 . S
C3252 C3251 1.410 1_545 S
C3252 C3253 1.392 . S
C3252 C3255 1.511 . S
C3253 C3249 1.376 . S
C3253 C3252 1.392 . S
C3253 H3265 0.929 . S
C3254 C3250 1.531 . S
C3254 H3266 0.960 . S
C3254 H3267 0.962 . S
C3254 H3268 0.960 . S
C3255 C3252 1.511 . S
C3255 H3269 0.961 . S
C3255 H3270 0.961 1_545 S
C3255 H3271 0.961 . S
C3256 C3257 1.370 . S
C3256 C3258 1.363 . S
C3256 H3272 0.931 . S
C3257 C3256 1.370 . S
C3257 C3261 1.408 . S
C3258 C3256 1.363 . S
C3258 C3259 1.370 . S
C3258 C3262 1.524 . S
C3259 C3251 1.503 . S
C3259 C3258 1.370 . S
C3259 C3260 1.403 . S
C3260 C3259 1.403 . S
C3260 C3261 1.404 . S
C3260 C3263 1.539 . S
C3261 C3257 1.408 . S
C3261 C3260 1.404 . S
C3261 H3273 0.930 . S
C3262 C3258 1.524 . S
C3262 H3274 0.956 . S
C3262 H3275 0.961 . S
C3262 H3276 0.961 . S
C3263 C3260 1.539 . S
C3263 H3277 0.958 . S
C3263 H3278 0.961 . S
C3263 H3279 0.960 . S
H3264 C3248 0.931 . S
H3265 C3253 0.929 . S
H3266 C3254 0.960 . S
H3267 C3254 0.962 . S
H3268 C3254 0.960 . S
H3269 C3255 0.961 . S
H3270 C3255 0.961 1_565 S
H3271 C3255 0.961 . S
H3272 C3256 0.931 . S
H3273 C3261 0.930 . S
H3274 C3262 0.956 . S
H3275 C3262 0.961 . S
H3276 C3262 0.961 . S
H3277 C3263 0.958 . S
H3278 C3263 0.961 . S
H3279 C3263 0.960 . S
C3280 C3281 1.391 . S
C3280 C3282 1.394 . S
C3280 H3296 0.931 . S
C3281 C3280 1.391 . S
C3281 C3285 1.376 . S
C3282 C3280 1.394 . S
C3282 C3283 1.369 . S
C3282 C3286 1.531 . S
C3283 C3282 1.369 . S
C3283 C3284 1.410 . S
C3283 C3291 1.503 . S
C3284 C3283 1.410 . S
C3284 C3285 1.392 . S
C3284 C3287 1.511 . S
C3285 C3281 1.376 . S
C3285 C3284 1.392 . S
C3285 H3297 0.929 . S
C3286 C3282 1.531 . S
C3286 H3298 0.960 . S
C3286 H3299 0.962 . S
C3286 H3300 0.960 . S
C3287 C3284 1.511 . S
C3287 H3301 0.961 . S
C3287 H3302 0.961 . S
C3287 H3303 0.961 . S
C3288 C3289 1.370 . S
C3288 C3290 1.363 . S
C3288 H3304 0.931 . S
C3289 C3288 1.370 . S
C3289 C3293 1.408 . S
C3290 C3288 1.363 . S
C3290 C3291 1.370 . S
C3290 C3294 1.524 . S
C3291 C3283 1.503 . S
C3291 C3290 1.370 . S
C3291 C3292 1.403 . S
C3292 C3291 1.403 . S
C3292 C3293 1.404 . S
C3292 C3295 1.539 . S
C3293 C3289 1.408 . S
C3293 C3292 1.404 . S
C3293 H3305 0.930 . S
C3294 C3290 1.524 . S
C3294 H3306 0.956 . S
C3294 H3307 0.961 . S
C3294 H3308 0.961 . S
C3295 C3292 1.539 . S
C3295 H3309 0.958 . S
C3295 H3310 0.961 . S
C3295 H3311 0.960 . S
H3296 C3280 0.931 . S
H3297 C3285 0.929 . S
H3298 C3286 0.960 . S
H3299 C3286 0.962 . S
H3300 C3286 0.960 . S
H3301 C3287 0.961 . S
H3302 C3287 0.961 . S
H3303 C3287 0.961 . S
H3304 C3288 0.931 . S
H3305 C3293 0.930 . S
H3306 C3294 0.956 . S
H3307 C3294 0.961 . S
H3308 C3294 0.961 . S
H3309 C3295 0.958 . S
H3310 C3295 0.961 . S
H3311 C3295 0.960 . S
C3312 C3313 1.391 . S
C3312 C3314 1.394 . S
C3312 H3328 0.931 . S
C3313 C3312 1.391 . S
C3313 C3317 1.376 . S
C3314 C3312 1.394 . S
C3314 C3315 1.369 . S
C3314 C3318 1.531 . S
C3315 C3314 1.369 . S
C3315 C3316 1.410 . S
C3315 C3323 1.503 . S
C3316 C3315 1.410 . S
C3316 C3317 1.392 . S
C3316 C3319 1.511 . S
C3317 C3313 1.376 . S
C3317 C3316 1.392 . S
C3317 H3329 0.929 . S
C3318 C3314 1.531 . S
C3318 H3330 0.960 . S
C3318 H3331 0.962 . S
C3318 H3332 0.960 . S
C3319 C3316 1.511 . S
C3319 H3333 0.961 . S
C3319 H3334 0.961 . S
C3319 H3335 0.961 . S
C3320 C3321 1.370 . S
C3320 C3322 1.363 . S
C3320 H3336 0.931 . S
C3321 C3320 1.370 . S
C3321 C3325 1.408 . S
C3322 C3320 1.363 . S
C3322 C3323 1.370 . S
C3322 C3326 1.524 . S
C3323 C3315 1.503 . S
C3323 C3322 1.370 . S
C3323 C3324 1.403 . S
C3324 C3323 1.403 . S
C3324 C3325 1.404 . S
C3324 C3327 1.539 . S
C3325 C3321 1.408 . S
C3325 C3324 1.404 . S
C3325 H3337 0.930 . S
C3326 C3322 1.524 . S
C3326 H3338 0.956 . S
C3326 H3339 0.961 . S
C3326 H3340 0.961 . S
C3327 C3324 1.539 . S
C3327 H3341 0.958 . S
C3327 H3342 0.961 . S
C3327 H3343 0.960 . S
H3328 C3312 0.931 . S
H3329 C3317 0.929 . S
H3330 C3318 0.960 . S
H3331 C3318 0.962 . S
H3332 C3318 0.960 . S
H3333 C3319 0.961 . S
H3334 C3319 0.961 . S
H3335 C3319 0.961 . S
H3336 C3320 0.931 . S
H3337 C3325 0.930 . S
H3338 C3326 0.956 . S
H3339 C3326 0.961 . S
H3340 C3326 0.961 . S
H3341 C3327 0.958 . S
H3342 C3327 0.961 . S
H3343 C3327 0.960 . S
C3344 C3345 1.391 . S
C3344 C3346 1.394 . S
C3344 H3360 0.931 . S
C3345 C3344 1.391 . S
C3345 C3349 1.376 . S
C3346 C3344 1.394 . S
C3346 C3347 1.369 . S
C3346 C3350 1.531 . S
C3347 C3346 1.369 . S
C3347 C3348 1.410 . S
C3347 C3355 1.503 . S
C3348 C3347 1.410 . S
C3348 C3349 1.392 . S
C3348 C3351 1.511 . S
C3349 C3345 1.376 . S
C3349 C3348 1.392 . S
C3349 H3361 0.929 . S
C3350 C3346 1.531 . S
C3350 H3362 0.960 . S
C3350 H3363 0.962 . S
C3350 H3364 0.960 . S
C3351 C3348 1.511 . S
C3351 H3365 0.961 . S
C3351 H3366 0.961 . S
C3351 H3367 0.961 . S
C3352 C3353 1.370 . S
C3352 C3354 1.363 . S
C3352 H3368 0.931 . S
C3353 C3352 1.370 . S
C3353 C3357 1.408 . S
C3354 C3352 1.363 . S
C3354 C3355 1.370 . S
C3354 C3358 1.524 . S
C3355 C3347 1.503 . S
C3355 C3354 1.370 . S
C3355 C3356 1.403 . S
C3356 C3355 1.403 . S
C3356 C3357 1.404 . S
C3356 C3359 1.539 . S
C3357 C3353 1.408 . S
C3357 C3356 1.404 . S
C3357 H3369 0.930 . S
C3358 C3354 1.524 . S
C3358 H3370 0.956 . S
C3358 H3371 0.961 . S
C3358 H3372 0.961 . S
C3359 C3356 1.539 . S
C3359 H3373 0.958 . S
C3359 H3374 0.961 . S
C3359 H3375 0.960 . S
H3360 C3344 0.931 . S
H3361 C3349 0.929 . S
H3362 C3350 0.960 . S
H3363 C3350 0.962 . S
H3364 C3350 0.960 . S
H3365 C3351 0.961 . S
H3366 C3351 0.961 . S
H3367 C3351 0.961 . S
H3368 C3352 0.931 . S
H3369 C3357 0.930 . S
H3370 C3358 0.956 . S
H3371 C3358 0.961 . S
H3372 C3358 0.961 . S
H3373 C3359 0.958 . S
H3374 C3359 0.961 . S
H3375 C3359 0.960 . S
C3376 C3377 1.391 . S
C3376 C3378 1.394 . S
C3376 H3392 0.931 . S
C3377 C3376 1.391 . S
C3377 C3381 1.376 . S
C3378 C3376 1.394 . S
C3378 C3379 1.369 . S
C3378 C3382 1.531 . S
C3379 C3378 1.369 . S
C3379 C3380 1.410 . S
C3379 C3387 1.503 . S
C3380 C3379 1.410 . S
C3380 C3381 1.392 . S
C3380 C3383 1.511 . S
C3381 C3377 1.376 . S
C3381 C3380 1.392 . S
C3381 H3393 0.929 . S
C3382 C3378 1.531 . S
C3382 H3394 0.960 . S
C3382 H3395 0.962 . S
C3382 H3396 0.960 . S
C3383 C3380 1.511 . S
C3383 H3397 0.961 . S
C3383 H3398 0.961 . S
C3383 H3399 0.961 . S
C3384 C3385 1.370 . S
C3384 C3386 1.363 . S
C3384 H3400 0.931 . S
C3385 C3384 1.370 . S
C3385 C3389 1.408 . S
C3386 C3384 1.363 . S
C3386 C3387 1.370 . S
C3386 C3390 1.524 . S
C3387 C3379 1.503 . S
C3387 C3386 1.370 . S
C3387 C3388 1.403 . S
C3388 C3387 1.403 . S
C3388 C3389 1.404 . S
C3388 C3391 1.539 . S
C3389 C3385 1.408 . S
C3389 C3388 1.404 . S
C3389 H3401 0.930 . S
C3390 C3386 1.524 . S
C3390 H3402 0.956 . S
C3390 H3403 0.961 . S
C3390 H3404 0.961 . S
C3391 C3388 1.539 . S
C3391 H3405 0.958 . S
C3391 H3406 0.961 . S
C3391 H3407 0.960 . S
H3392 C3376 0.931 . S
H3393 C3381 0.929 . S
H3394 C3382 0.960 . S
H3395 C3382 0.962 . S
H3396 C3382 0.960 . S
H3397 C3383 0.961 . S
H3398 C3383 0.961 . S
H3399 C3383 0.961 . S
H3400 C3384 0.931 . S
H3401 C3389 0.930 . S
H3402 C3390 0.956 . S
H3403 C3390 0.961 . S
H3404 C3390 0.961 . S
H3405 C3391 0.958 . S
H3406 C3391 0.961 . S
H3407 C3391 0.960 . S
C3408 C3409 1.391 . S
C3408 C3410 1.394 . S
C3408 H3424 0.931 . S
C3409 C3408 1.391 . S
C3409 C3413 1.376 . S
C3410 C3408 1.394 . S
C3410 C3411 1.369 . S
C3410 C3414 1.531 . S
C3411 C3410 1.369 . S
C3411 C3412 1.410 . S
C3411 C3419 1.503 . S
C3412 C3411 1.410 . S
C3412 C3413 1.392 . S
C3412 C3415 1.511 . S
C3413 C3409 1.376 . S
C3413 C3412 1.392 . S
C3413 H3425 0.929 . S
C3414 C3410 1.531 . S
C3414 H3426 0.960 . S
C3414 H3427 0.962 . S
C3414 H3428 0.960 . S
C3415 C3412 1.511 . S
C3415 H3429 0.961 . S
C3415 H3430 0.961 . S
C3415 H3431 0.961 . S
C3416 C3417 1.370 . S
C3416 C3418 1.363 . S
C3416 H3432 0.931 . S
C3417 C3416 1.370 . S
C3417 C3421 1.408 1_556 S
C3418 C3416 1.363 . S
C3418 C3419 1.370 . S
C3418 C3422 1.524 . S
C3419 C3411 1.503 . S
C3419 C3418 1.370 . S
C3419 C3420 1.403 . S
C3420 C3419 1.403 . S
C3420 C3421 1.404 1_556 S
C3420 C3423 1.539 1_556 S
C3421 C3417 1.408 1_554 S
C3421 C3420 1.404 1_554 S
C3421 H3433 0.930 . S
C3422 C3418 1.524 . S
C3422 H3434 0.956 . S
C3422 H3435 0.961 . S
C3422 H3436 0.961 . S
C3423 C3420 1.539 1_554 S
C3423 H3437 0.958 . S
C3423 H3438 0.961 . S
C3423 H3439 0.964 . S
H3424 C3408 0.931 . S
H3425 C3413 0.929 . S
H3426 C3414 0.960 . S
H3427 C3414 0.962 . S
H3428 C3414 0.960 . S
H3429 C3415 0.961 . S
H3430 C3415 0.961 . S
H3431 C3415 0.961 . S
H3432 C3416 0.931 . S
H3433 C3421 0.930 . S
H3434 C3422 0.956 . S
H3435 C3422 0.961 . S
H3436 C3422 0.961 . S
H3437 C3423 0.958 . S
H3438 C3423 0.961 . S
H3439 C3423 0.964 . S
C3440 C3441 1.391 . S
C3440 C3442 1.394 . S
C3440 H3456 0.931 . S
C3441 C3440 1.391 . S
C3441 C3445 1.376 . S
C3442 C3440 1.394 . S
C3442 C3443 1.369 . S
C3442 C3446 1.531 . S
C3443 C3442 1.369 . S
C3443 C3444 1.410 . S
C3443 C3451 1.503 . S
C3444 C3443 1.410 . S
C3444 C3445 1.392 . S
C3444 C3447 1.511 . S
C3445 C3441 1.376 . S
C3445 C3444 1.392 . S
C3445 H3457 0.929 . S
C3446 C3442 1.531 . S
C3446 H3458 0.960 . S
C3446 H3459 0.962 . S
C3446 H3460 0.960 . S
C3447 C3444 1.511 . S
C3447 H3461 0.961 . S
C3447 H3462 0.961 . S
C3447 H3463 0.961 . S
C3448 C3449 1.370 . S
C3448 C3450 1.363 . S
C3448 H3464 0.931 . S
C3449 C3448 1.370 . S
C3449 C3453 1.408 . S
C3450 C3448 1.363 . S
C3450 C3451 1.370 . S
C3450 C3454 1.524 . S
C3451 C3443 1.503 . S
C3451 C3450 1.370 . S
C3451 C3452 1.403 . S
C3452 C3451 1.403 . S
C3452 C3453 1.404 . S
C3452 C3455 1.539 . S
C3453 C3449 1.408 . S
C3453 C3452 1.404 . S
C3453 H3465 0.930 . S
C3454 C3450 1.524 . S
C3454 H3466 0.956 . S
C3454 H3467 0.961 . S
C3454 H3468 0.961 . S
C3455 C3452 1.539 . S
C3455 H3469 0.958 . S
C3455 H3470 0.961 . S
C3455 H3471 0.960 . S
H3456 C3440 0.931 . S
H3457 C3445 0.929 . S
H3458 C3446 0.960 . S
H3459 C3446 0.962 . S
H3460 C3446 0.960 . S
H3461 C3447 0.961 . S
H3462 C3447 0.961 . S
H3463 C3447 0.961 . S
H3464 C3448 0.931 . S
H3465 C3453 0.930 . S
H3466 C3454 0.956 . S
H3467 C3454 0.961 . S
H3468 C3454 0.961 . S
H3469 C3455 0.958 . S
H3470 C3455 0.961 . S
H3471 C3455 0.960 . S
C3472 C3473 1.391 . S
C3472 C3474 1.394 . S
C3472 H3488 0.931 . S
C3473 C3472 1.391 . S
C3473 C3477 1.376 . S
C3474 C3472 1.394 . S
C3474 C3475 1.369 . S
C3474 C3478 1.531 . S
C3475 C3474 1.369 . S
C3475 C3476 1.410 . S
C3475 C3483 1.503 . S
C3476 C3475 1.410 . S
C3476 C3477 1.392 . S
C3476 C3479 1.511 . S
C3477 C3473 1.376 . S
C3477 C3476 1.392 . S
C3477 H3489 0.929 . S
C3478 C3474 1.531 . S
C3478 H3490 0.960 . S
C3478 H3491 0.962 . S
C3478 H3492 0.960 . S
C3479 C3476 1.511 . S
C3479 H3493 0.961 . S
C3479 H3494 0.961 . S
C3479 H3495 0.961 1_455 S
C3480 C3481 1.370 . S
C3480 C3482 1.363 . S
C3480 H3496 0.931 . S
C3481 C3480 1.370 . S
C3481 C3485 1.408 . S
C3482 C3480 1.363 . S
C3482 C3483 1.370 . S
C3482 C3486 1.524 . S
C3483 C3475 1.503 . S
C3483 C3482 1.370 . S
C3483 C3484 1.403 . S
C3484 C3483 1.403 . S
C3484 C3485 1.404 . S
C3484 C3487 1.539 . S
C3485 C3481 1.408 . S
C3485 C3484 1.404 . S
C3485 H3497 0.930 . S
C3486 C3482 1.524 . S
C3486 H3498 0.956 . S
C3486 H3499 0.961 . S
C3486 H3500 0.961 . S
C3487 C3484 1.539 . S
C3487 H3501 0.958 . S
C3487 H3502 0.961 . S
C3487 H3503 0.960 . S
H3488 C3472 0.931 . S
H3489 C3477 0.929 . S
H3490 C3478 0.960 . S
H3491 C3478 0.962 . S
H3492 C3478 0.960 . S
H3493 C3479 0.961 . S
H3494 C3479 0.961 . S
H3495 C3479 0.961 1_655 S
H3496 C3480 0.931 . S
H3497 C3485 0.930 . S
H3498 C3486 0.956 . S
H3499 C3486 0.961 . S
H3500 C3486 0.961 . S
H3501 C3487 0.958 . S
H3502 C3487 0.961 . S
H3503 C3487 0.960 . S
C3504 C3505 1.391 . S
C3504 C3506 1.394 . S
C3504 H3520 0.931 . S
C3505 C3504 1.391 . S
C3505 C3509 1.376 . S
C3506 C3504 1.394 . S
C3506 C3507 1.369 . S
C3506 C3510 1.531 . S
C3507 C3506 1.369 . S
C3507 C3508 1.410 . S
C3507 C3515 1.503 . S
C3508 C3507 1.410 . S
C3508 C3509 1.392 . S
C3508 C3511 1.511 . S
C3509 C3505 1.376 . S
C3509 C3508 1.392 . S
C3509 H3521 0.929 . S
C3510 C3506 1.531 . S
C3510 H3522 0.960 . S
C3510 H3523 0.962 . S
C3510 H3524 0.960 . S
C3511 C3508 1.511 . S
C3511 H3525 0.961 . S
C3511 H3526 0.961 . S
C3511 H3527 0.961 . S
C3512 C3513 1.370 . S
C3512 C3514 1.363 . S
C3512 H3528 0.931 . S
C3513 C3512 1.370 . S
C3513 C3517 1.408 . S
C3514 C3512 1.363 . S
C3514 C3515 1.370 . S
C3514 C3518 1.524 . S
C3515 C3507 1.503 . S
C3515 C3514 1.370 . S
C3515 C3516 1.403 . S
C3516 C3515 1.403 . S
C3516 C3517 1.404 . S
C3516 C3519 1.539 . S
C3517 C3513 1.408 . S
C3517 C3516 1.404 . S
C3517 H3529 0.930 . S
C3518 C3514 1.524 . S
C3518 H3530 0.956 . S
C3518 H3531 0.961 . S
C3518 H3532 0.961 . S
C3519 C3516 1.539 . S
C3519 H3533 0.958 . S
C3519 H3534 0.961 . S
C3519 H3535 0.960 . S
H3520 C3504 0.931 . S
H3521 C3509 0.929 . S
H3522 C3510 0.960 . S
H3523 C3510 0.962 . S
H3524 C3510 0.960 . S
H3525 C3511 0.961 . S
H3526 C3511 0.961 . S
H3527 C3511 0.961 . S
H3528 C3512 0.931 . S
H3529 C3517 0.930 . S
H3530 C3518 0.956 . S
H3531 C3518 0.961 . S
H3532 C3518 0.961 . S
H3533 C3519 0.958 . S
H3534 C3519 0.961 . S
H3535 C3519 0.960 . S
C3536 C3537 1.391 . S
C3536 C3538 1.394 . S
C3536 H3552 0.931 . S
C3537 C3536 1.391 . S
C3537 C3541 1.376 . S
C3538 C3536 1.394 . S
C3538 C3539 1.369 . S
C3538 C3542 1.531 . S
C3539 C3538 1.369 . S
C3539 C3540 1.410 . S
C3539 C3547 1.503 . S
C3540 C3539 1.410 . S
C3540 C3541 1.392 . S
C3540 C3543 1.511 . S
C3541 C3537 1.376 . S
C3541 C3540 1.392 . S
C3541 H3553 0.929 . S
C3542 C3538 1.531 . S
C3542 H3554 0.960 . S
C3542 H3555 0.962 . S
C3542 H3556 0.960 . S
C3543 C3540 1.511 . S
C3543 H3557 0.961 . S
C3543 H3558 0.961 . S
C3543 H3559 0.961 . S
C3544 C3545 1.370 . S
C3544 C3546 1.363 . S
C3544 H3560 0.931 . S
C3545 C3544 1.370 . S
C3545 C3549 1.408 . S
C3546 C3544 1.363 . S
C3546 C3547 1.370 . S
C3546 C3550 1.524 . S
C3547 C3539 1.503 . S
C3547 C3546 1.370 . S
C3547 C3548 1.403 . S
C3548 C3547 1.403 . S
C3548 C3549 1.404 . S
C3548 C3551 1.539 . S
C3549 C3545 1.408 . S
C3549 C3548 1.404 . S
C3549 H3561 0.930 . S
C3550 C3546 1.524 . S
C3550 H3562 0.956 . S
C3550 H3563 0.961 . S
C3550 H3564 0.961 . S
C3551 C3548 1.539 . S
C3551 H3565 0.958 . S
C3551 H3566 0.961 . S
C3551 H3567 0.960 . S
H3552 C3536 0.931 . S
H3553 C3541 0.929 . S
H3554 C3542 0.960 . S
H3555 C3542 0.962 . S
H3556 C3542 0.960 . S
H3557 C3543 0.961 . S
H3558 C3543 0.961 . S
H3559 C3543 0.961 . S
H3560 C3544 0.931 . S
H3561 C3549 0.930 . S
H3562 C3550 0.956 . S
H3563 C3550 0.961 . S
H3564 C3550 0.961 . S
H3565 C3551 0.958 . S
H3566 C3551 0.961 . S
H3567 C3551 0.960 . S
C3568 C3569 1.391 . S
C3568 C3570 1.394 . S
C3568 H3584 0.931 . S
C3569 C3568 1.391 . S
C3569 C3573 1.376 . S
C3570 C3568 1.394 . S
C3570 C3571 1.369 . S
C3570 C3574 1.531 . S
C3571 C3570 1.369 . S
C3571 C3572 1.410 . S
C3571 C3579 1.503 . S
C3572 C3571 1.410 . S
C3572 C3573 1.392 . S
C3572 C3575 1.511 . S
C3573 C3569 1.376 . S
C3573 C3572 1.392 . S
C3573 H3585 0.929 . S
C3574 C3570 1.531 . S
C3574 H3586 0.960 . S
C3574 H3587 0.962 . S
C3574 H3588 0.960 . S
C3575 C3572 1.511 . S
C3575 H3589 0.961 . S
C3575 H3590 0.961 . S
C3575 H3591 0.961 . S
C3576 C3577 1.370 . S
C3576 C3578 1.363 . S
C3576 H3592 0.931 . S
C3577 C3576 1.370 . S
C3577 C3581 1.408 . S
C3578 C3576 1.363 . S
C3578 C3579 1.370 . S
C3578 C3582 1.524 . S
C3579 C3571 1.503 . S
C3579 C3578 1.370 . S
C3579 C3580 1.403 . S
C3580 C3579 1.403 . S
C3580 C3581 1.404 . S
C3580 C3583 1.539 . S
C3581 C3577 1.408 . S
C3581 C3580 1.404 . S
C3581 H3593 0.930 . S
C3582 C3578 1.524 . S
C3582 H3594 0.956 . S
C3582 H3595 0.961 . S
C3582 H3596 0.961 . S
C3583 C3580 1.539 . S
C3583 H3597 0.958 . S
C3583 H3598 0.961 . S
C3583 H3599 0.960 . S
H3584 C3568 0.931 . S
H3585 C3573 0.929 . S
H3586 C3574 0.960 . S
H3587 C3574 0.962 . S
H3588 C3574 0.960 . S
H3589 C3575 0.961 . S
H3590 C3575 0.961 . S
H3591 C3575 0.961 . S
H3592 C3576 0.931 . S
H3593 C3581 0.930 . S
H3594 C3582 0.956 . S
H3595 C3582 0.961 . S
H3596 C3582 0.961 . S
H3597 C3583 0.958 . S
H3598 C3583 0.961 . S
H3599 C3583 0.960 . S
C3600 C3601 1.391 . S
C3600 C3602 1.394 . S
C3600 H3616 0.931 . S
C3601 C3600 1.391 . S
C3601 C3605 1.376 . S
C3602 C3600 1.394 . S
C3602 C3603 1.369 . S
C3602 C3606 1.531 . S
C3603 C3602 1.369 . S
C3603 C3604 1.410 . S
C3603 C3611 1.503 . S
C3604 C3603 1.410 . S
C3604 C3605 1.392 . S
C3604 C3607 1.511 . S
C3605 C3601 1.376 . S
C3605 C3604 1.392 . S
C3605 H3617 0.929 . S
C3606 C3602 1.531 . S
C3606 H3618 0.960 . S
C3606 H3619 0.962 1_455 S
C3606 H3620 0.960 . S
C3607 C3604 1.511 . S
C3607 H3621 0.961 . S
C3607 H3622 0.961 . S
C3607 H3623 0.961 . S
C3608 C3609 1.371 1_556 S
C3608 C3610 1.363 . S
C3608 H3624 0.931 1_556 S
C3609 C3608 1.371 1_554 S
C3609 C3613 1.412 1_554 S
C3610 C3608 1.363 . S
C3610 C3611 1.370 . S
C3610 C3614 1.524 . S
C3611 C3603 1.503 . S
C3611 C3610 1.370 . S
C3611 C3612 1.403 . S
C3612 C3611 1.403 . S
C3612 C3613 1.404 . S
C3612 C3615 1.539 . S
C3613 C3609 1.412 1_556 S
C3613 C3612 1.404 . S
C3613 H3625 0.930 . S
C3614 C3610 1.524 . S
C3614 H3626 0.956 1_455 S
C3614 H3627 0.961 . S
C3614 H3628 0.957 1_455 S
C3615 C3612 1.539 . S
C3615 H3629 0.958 . S
C3615 H3630 0.961 . S
C3615 H3631 0.960 . S
H3616 C3600 0.931 . S
H3617 C3605 0.929 . S
H3618 C3606 0.960 . S
H3619 C3606 0.962 1_655 S
H3620 C3606 0.960 . S
H3621 C3607 0.961 . S
H3622 C3607 0.961 . S
H3623 C3607 0.961 . S
H3624 C3608 0.931 1_554 S
H3625 C3613 0.930 . S
H3626 C3614 0.956 1_655 S
H3627 C3614 0.961 . S
H3628 C3614 0.957 1_655 S
H3629 C3615 0.958 . S
H3630 C3615 0.961 . S
H3631 C3615 0.960 . S
C3632 C3633 1.391 . S
C3632 C3634 1.394 . S
C3632 H3648 0.931 . S
C3633 C3632 1.391 . S
C3633 C3637 1.376 . S
C3634 C3632 1.394 . S
C3634 C3635 1.369 . S
C3634 C3638 1.531 . S
C3635 C3634 1.369 . S
C3635 C3636 1.410 . S
C3635 C3643 1.503 . S
C3636 C3635 1.410 . S
C3636 C3637 1.392 . S
C3636 C3639 1.511 . S
C3637 C3633 1.376 . S
C3637 C3636 1.392 . S
C3637 H3649 0.929 . S
C3638 C3634 1.531 . S
C3638 H3650 0.960 . S
C3638 H3651 0.962 . S
C3638 H3652 0.960 . S
C3639 C3636 1.511 . S
C3639 H3653 0.961 . S
C3639 H3654 0.961 . S
C3639 H3655 0.961 . S
C3640 C3641 1.370 . S
C3640 C3642 1.363 . S
C3640 H3656 0.931 . S
C3641 C3640 1.370 . S
C3641 C3645 1.408 . S
C3642 C3640 1.363 . S
C3642 C3643 1.370 . S
C3642 C3646 1.524 . S
C3643 C3635 1.503 . S
C3643 C3642 1.370 . S
C3643 C3644 1.403 . S
C3644 C3643 1.403 . S
C3644 C3645 1.404 . S
C3644 C3647 1.539 . S
C3645 C3641 1.408 . S
C3645 C3644 1.404 . S
C3645 H3657 0.930 . S
C3646 C3642 1.524 . S
C3646 H3658 0.956 . S
C3646 H3659 0.961 . S
C3646 H3660 0.961 . S
C3647 C3644 1.539 . S
C3647 H3661 0.958 . S
C3647 H3662 0.961 . S
C3647 H3663 0.960 . S
H3648 C3632 0.931 . S
H3649 C3637 0.929 . S
H3650 C3638 0.960 . S
H3651 C3638 0.962 . S
H3652 C3638 0.960 . S
H3653 C3639 0.961 . S
H3654 C3639 0.961 . S
H3655 C3639 0.961 . S
H3656 C3640 0.931 . S
H3657 C3645 0.930 . S
H3658 C3646 0.956 . S
H3659 C3646 0.961 . S
H3660 C3646 0.961 . S
H3661 C3647 0.958 . S
H3662 C3647 0.961 . S
H3663 C3647 0.960 . S
C3664 C3665 1.391 . S
C3664 C3666 1.394 . S
C3664 H3680 0.931 . S
C3665 C3664 1.391 . S
C3665 C3669 1.376 . S
C3666 C3664 1.394 . S
C3666 C3667 1.369 . S
C3666 C3670 1.531 . S
C3667 C3666 1.369 . S
C3667 C3668 1.410 . S
C3667 C3675 1.503 . S
C3668 C3667 1.410 . S
C3668 C3669 1.392 . S
C3668 C3671 1.511 . S
C3669 C3665 1.376 . S
C3669 C3668 1.392 . S
C3669 H3681 0.929 . S
C3670 C3666 1.531 . S
C3670 H3682 0.960 . S
C3670 H3683 0.962 . S
C3670 H3684 0.960 . S
C3671 C3668 1.511 . S
C3671 H3685 0.961 . S
C3671 H3686 0.961 . S
C3671 H3687 0.961 . S
C3672 C3673 1.370 . S
C3672 C3674 1.363 . S
C3672 H3688 0.931 . S
C3673 C3672 1.370 . S
C3673 C3677 1.408 . S
C3674 C3672 1.363 . S
C3674 C3675 1.370 . S
C3674 C3678 1.524 . S
C3675 C3667 1.503 . S
C3675 C3674 1.370 . S
C3675 C3676 1.403 . S
C3676 C3675 1.403 . S
C3676 C3677 1.404 . S
C3676 C3679 1.539 . S
C3677 C3673 1.408 . S
C3677 C3676 1.404 . S
C3677 H3689 0.930 . S
C3678 C3674 1.524 . S
C3678 H3690 0.956 . S
C3678 H3691 0.961 . S
C3678 H3692 0.961 . S
C3679 C3676 1.539 . S
C3679 H3693 0.958 . S
C3679 H3694 0.961 . S
C3679 H3695 0.960 . S
H3680 C3664 0.931 . S
H3681 C3669 0.929 . S
H3682 C3670 0.960 . S
H3683 C3670 0.962 . S
H3684 C3670 0.960 . S
H3685 C3671 0.961 . S
H3686 C3671 0.961 . S
H3687 C3671 0.961 . S
H3688 C3672 0.931 . S
H3689 C3677 0.930 . S
H3690 C3678 0.956 . S
H3691 C3678 0.961 . S
H3692 C3678 0.961 . S
H3693 C3679 0.958 . S
H3694 C3679 0.961 . S
H3695 C3679 0.960 . S
C3696 C3697 1.391 . S
C3696 C3698 1.394 . S
C3696 H3712 0.931 . S
C3697 C3696 1.391 . S
C3697 C3701 1.376 . S
C3698 C3696 1.394 . S
C3698 C3699 1.369 . S
C3698 C3702 1.531 . S
C3699 C3698 1.369 . S
C3699 C3700 1.410 . S
C3699 C3707 1.503 . S
C3700 C3699 1.410 . S
C3700 C3701 1.392 . S
C3700 C3703 1.511 . S
C3701 C3697 1.376 . S
C3701 C3700 1.392 . S
C3701 H3713 0.929 . S
C3702 C3698 1.531 . S
C3702 H3714 0.960 . S
C3702 H3715 0.962 . S
C3702 H3716 0.960 . S
C3703 C3700 1.511 . S
C3703 H3717 0.961 . S
C3703 H3718 0.961 . S
C3703 H3719 0.961 . S
C3704 C3705 1.370 . S
C3704 C3706 1.363 . S
C3704 H3720 0.931 . S
C3705 C3704 1.370 . S
C3705 C3709 1.408 . S
C3706 C3704 1.363 . S
C3706 C3707 1.370 . S
C3706 C3710 1.524 . S
C3707 C3699 1.503 . S
C3707 C3706 1.370 . S
C3707 C3708 1.403 . S
C3708 C3707 1.403 . S
C3708 C3709 1.404 . S
C3708 C3711 1.539 . S
C3709 C3705 1.408 . S
C3709 C3708 1.404 . S
C3709 H3721 0.930 . S
C3710 C3706 1.524 . S
C3710 H3722 0.956 . S
C3710 H3723 0.961 . S
C3710 H3724 0.961 . S
C3711 C3708 1.539 . S
C3711 H3725 0.958 . S
C3711 H3726 0.961 . S
C3711 H3727 0.960 . S
H3712 C3696 0.931 . S
H3713 C3701 0.929 . S
H3714 C3702 0.960 . S
H3715 C3702 0.962 . S
H3716 C3702 0.960 . S
H3717 C3703 0.961 . S
H3718 C3703 0.961 . S
H3719 C3703 0.961 . S
H3720 C3704 0.931 . S
H3721 C3709 0.930 . S
H3722 C3710 0.956 . S
H3723 C3710 0.961 . S
H3724 C3710 0.961 . S
H3725 C3711 0.958 . S
H3726 C3711 0.961 . S
H3727 C3711 0.960 . S
C3728 C3729 1.391 . S
C3728 C3730 1.394 . S
C3728 H3744 0.931 . S
C3729 C3728 1.391 . S
C3729 C3733 1.376 . S
C3730 C3728 1.394 . S
C3730 C3731 1.369 . S
C3730 C3734 1.531 . S
C3731 C3730 1.369 . S
C3731 C3732 1.410 . S
C3731 C3739 1.503 . S
C3732 C3731 1.410 . S
C3732 C3733 1.392 . S
C3732 C3735 1.511 . S
C3733 C3729 1.376 . S
C3733 C3732 1.392 . S
C3733 H3745 0.929 . S
C3734 C3730 1.531 . S
C3734 H3746 0.960 . S
C3734 H3747 0.962 1_455 S
C3734 H3748 0.960 . S
C3735 C3732 1.511 . S
C3735 H3749 0.961 . S
C3735 H3750 0.961 . S
C3735 H3751 0.961 . S
C3736 C3737 1.370 1_655 S
C3736 C3738 1.363 . S
C3736 H3752 0.931 . S
C3737 C3736 1.370 1_455 S
C3737 C3741 1.408 . S
C3738 C3736 1.363 . S
C3738 C3739 1.370 1_655 S
C3738 C3742 1.524 . S
C3739 C3731 1.503 . S
C3739 C3738 1.370 1_455 S
C3739 C3740 1.403 . S
C3740 C3739 1.403 . S
C3740 C3741 1.404 . S
C3740 C3743 1.539 . S
C3741 C3737 1.408 . S
C3741 C3740 1.404 . S
C3741 H3753 0.930 . S
C3742 C3738 1.524 . S
C3742 H3754 0.956 . S
C3742 H3755 0.961 . S
C3742 H3756 0.961 . S
C3743 C3740 1.539 . S
C3743 H3757 0.958 . S
C3743 H3758 0.961 . S
C3743 H3759 0.960 . S
H3744 C3728 0.931 . S
H3745 C3733 0.929 . S
H3746 C3734 0.960 . S
H3747 C3734 0.962 1_655 S
H3748 C3734 0.960 . S
H3749 C3735 0.961 . S
H3750 C3735 0.961 . S
H3751 C3735 0.961 . S
H3752 C3736 0.931 . S
H3753 C3741 0.930 . S
H3754 C3742 0.956 . S
H3755 C3742 0.961 . S
H3756 C3742 0.961 . S
H3757 C3743 0.958 . S
H3758 C3743 0.961 . S
H3759 C3743 0.960 . S
C3760 C3761 1.391 . S
C3760 C3762 1.394 . S
C3760 H3776 0.931 . S
C3761 C3760 1.391 . S
C3761 C3765 1.376 . S
C3762 C3760 1.394 . S
C3762 C3763 1.369 . S
C3762 C3766 1.531 . S
C3763 C3762 1.369 . S
C3763 C3764 1.410 . S
C3763 C3771 1.503 . S
C3764 C3763 1.410 . S
C3764 C3765 1.392 . S
C3764 C3767 1.511 . S
C3765 C3761 1.376 . S
C3765 C3764 1.392 . S
C3765 H3777 0.929 . S
C3766 C3762 1.531 . S
C3766 H3778 0.960 . S
C3766 H3779 0.962 . S
C3766 H3780 0.960 . S
C3767 C3764 1.511 . S
C3767 H3781 0.961 . S
C3767 H3782 0.961 . S
C3767 H3783 0.961 . S
C3768 C3769 1.370 . S
C3768 C3770 1.363 . S
C3768 H3784 0.931 . S
C3769 C3768 1.370 . S
C3769 C3773 1.408 . S
C3770 C3768 1.363 . S
C3770 C3771 1.370 . S
C3770 C3774 1.524 . S
C3771 C3763 1.503 . S
C3771 C3770 1.370 . S
C3771 C3772 1.403 . S
C3772 C3771 1.403 . S
C3772 C3773 1.404 . S
C3772 C3775 1.539 . S
C3773 C3769 1.408 . S
C3773 C3772 1.404 . S
C3773 H3785 0.930 . S
C3774 C3770 1.524 . S
C3774 H3786 0.956 . S
C3774 H3787 0.961 . S
C3774 H3788 0.961 . S
C3775 C3772 1.539 . S
C3775 H3789 0.958 . S
C3775 H3790 0.961 . S
C3775 H3791 0.960 . S
H3776 C3760 0.931 . S
H3777 C3765 0.929 . S
H3778 C3766 0.960 . S
H3779 C3766 0.962 . S
H3780 C3766 0.960 . S
H3781 C3767 0.961 . S
H3782 C3767 0.961 . S
H3783 C3767 0.961 . S
H3784 C3768 0.931 . S
H3785 C3773 0.930 . S
H3786 C3774 0.956 . S
H3787 C3774 0.961 . S
H3788 C3774 0.961 . S
H3789 C3775 0.958 . S
H3790 C3775 0.961 . S
H3791 C3775 0.960 . S
C3792 C3793 1.391 . S
C3792 C3794 1.394 . S
C3792 H3808 0.931 . S
C3793 C3792 1.391 . S
C3793 C3797 1.376 . S
C3794 C3792 1.394 . S
C3794 C3795 1.369 . S
C3794 C3798 1.531 . S
C3795 C3794 1.369 . S
C3795 C3796 1.410 . S
C3795 C3803 1.503 . S
C3796 C3795 1.410 . S
C3796 C3797 1.392 . S
C3796 C3799 1.511 . S
C3797 C3793 1.376 . S
C3797 C3796 1.392 . S
C3797 H3809 0.929 . S
C3798 C3794 1.531 . S
C3798 H3810 0.960 . S
C3798 H3811 0.962 . S
C3798 H3812 0.960 . S
C3799 C3796 1.511 . S
C3799 H3813 0.961 . S
C3799 H3814 0.961 . S
C3799 H3815 0.961 . S
C3800 C3801 1.370 . S
C3800 C3802 1.363 . S
C3800 H3816 0.931 . S
C3801 C3800 1.370 . S
C3801 C3805 1.408 . S
C3802 C3800 1.363 . S
C3802 C3803 1.370 . S
C3802 C3806 1.524 . S
C3803 C3795 1.503 . S
C3803 C3802 1.370 . S
C3803 C3804 1.403 . S
C3804 C3803 1.403 . S
C3804 C3805 1.404 . S
C3804 C3807 1.539 . S
C3805 C3801 1.408 . S
C3805 C3804 1.404 . S
C3805 H3817 0.930 . S
C3806 C3802 1.524 . S
C3806 H3818 0.956 . S
C3806 H3819 0.961 . S
C3806 H3820 0.961 . S
C3807 C3804 1.539 . S
C3807 H3821 0.958 . S
C3807 H3822 0.961 . S
C3807 H3823 0.960 . S
H3808 C3792 0.931 . S
H3809 C3797 0.929 . S
H3810 C3798 0.960 . S
H3811 C3798 0.962 . S
H3812 C3798 0.960 . S
H3813 C3799 0.961 . S
H3814 C3799 0.961 . S
H3815 C3799 0.961 . S
H3816 C3800 0.931 . S
H3817 C3805 0.930 . S
H3818 C3806 0.956 . S
H3819 C3806 0.961 . S
H3820 C3806 0.961 . S
H3821 C3807 0.958 . S
H3822 C3807 0.961 . S
H3823 C3807 0.960 . S
C3824 C3825 1.391 . S
C3824 C3826 1.394 . S
C3824 H3840 0.931 . S
C3825 C3824 1.391 . S
C3825 C3829 1.376 . S
C3826 C3824 1.394 . S
C3826 C3827 1.369 . S
C3826 C3830 1.531 . S
C3827 C3826 1.369 . S
C3827 C3828 1.410 . S
C3827 C3835 1.503 . S
C3828 C3827 1.410 . S
C3828 C3829 1.392 . S
C3828 C3831 1.511 . S
C3829 C3825 1.376 . S
C3829 C3828 1.392 . S
C3829 H3841 0.929 . S
C3830 C3826 1.531 . S
C3830 H3842 0.960 1_565 S
C3830 H3843 0.962 . S
C3830 H3844 0.935 1_565 S
C3831 C3828 1.511 . S
C3831 H3845 0.961 . S
C3831 H3846 0.961 . S
C3831 H3847 0.961 . S
C3832 C3833 1.370 . S
C3832 C3834 1.363 . S
C3832 H3848 0.931 . S
C3833 C3832 1.370 . S
C3833 C3837 1.410 . S
C3834 C3832 1.363 . S
C3834 C3835 1.370 . S
C3834 C3838 1.524 . S
C3835 C3827 1.503 . S
C3835 C3834 1.370 . S
C3835 C3836 1.403 . S
C3836 C3835 1.403 . S
C3836 C3837 1.410 . S
C3836 C3839 1.539 . S
C3837 C3833 1.410 . S
C3837 C3836 1.410 . S
C3837 H3849 0.922 1_565 S
C3838 C3834 1.524 . S
C3838 H3850 0.956 . S
C3838 H3851 0.961 . S
C3838 H3852 0.961 . S
C3839 C3836 1.539 . S
C3839 H3853 0.932 1_565 S
C3839 H3854 0.961 . S
C3839 H3855 0.960 . S
H3840 C3824 0.931 . S
H3841 C3829 0.929 . S
H3842 C3830 0.960 1_545 S
H3843 C3830 0.962 . S
H3844 C3830 0.935 1_545 S
H3845 C3831 0.961 . S
H3846 C3831 0.961 . S
H3847 C3831 0.961 . S
H3848 C3832 0.931 . S
H3849 C3837 0.922 1_545 S
H3850 C3838 0.956 . S
H3851 C3838 0.961 . S
H3852 C3838 0.961 . S
H3853 C3839 0.932 1_545 S
H3854 C3839 0.961 . S
H3855 C3839 0.960 . S
C3856 C3857 1.391 . S
C3856 C3858 1.394 . S
C3856 H3872 0.931 . S
C3857 C3856 1.391 . S
C3857 C3861 1.376 . S
C3858 C3856 1.394 . S
C3858 C3859 1.369 . S
C3858 C3862 1.531 . S
C3859 C3858 1.369 . S
C3859 C3860 1.410 . S
C3859 C3867 1.503 . S
C3860 C3859 1.410 . S
C3860 C3861 1.392 . S
C3860 C3863 1.511 . S
C3861 C3857 1.376 . S
C3861 C3860 1.392 . S
C3861 H3873 0.929 . S
C3862 C3858 1.531 . S
C3862 H3874 0.960 . S
C3862 H3875 0.962 . S
C3862 H3876 0.960 . S
C3863 C3860 1.511 . S
C3863 H3877 0.961 . S
C3863 H3878 0.961 . S
C3863 H3879 0.961 . S
C3864 C3865 1.370 . S
C3864 C3866 1.363 . S
C3864 H3880 0.931 . S
C3865 C3864 1.370 . S
C3865 C3869 1.408 . S
C3866 C3864 1.363 . S
C3866 C3867 1.370 . S
C3866 C3870 1.524 . S
C3867 C3859 1.503 . S
C3867 C3866 1.370 . S
C3867 C3868 1.403 . S
C3868 C3867 1.403 . S
C3868 C3869 1.404 . S
C3868 C3871 1.539 . S
C3869 C3865 1.408 . S
C3869 C3868 1.404 . S
C3869 H3881 0.930 . S
C3870 C3866 1.524 . S
C3870 H3882 0.956 . S
C3870 H3883 0.961 . S
C3870 H3884 0.961 . S
C3871 C3868 1.539 . S
C3871 H3885 0.958 . S
C3871 H3886 0.961 . S
C3871 H3887 0.960 . S
H3872 C3856 0.931 . S
H3873 C3861 0.929 . S
H3874 C3862 0.960 . S
H3875 C3862 0.962 . S
H3876 C3862 0.960 . S
H3877 C3863 0.961 . S
H3878 C3863 0.961 . S
H3879 C3863 0.961 . S
H3880 C3864 0.931 . S
H3881 C3869 0.930 . S
H3882 C3870 0.956 . S
H3883 C3870 0.961 . S
H3884 C3870 0.961 . S
H3885 C3871 0.958 . S
H3886 C3871 0.961 . S
H3887 C3871 0.960 . S
C3888 C3889 1.385 1_554 S
C3888 C3890 1.396 . S
C3888 H3904 0.928 1_554 S
C3889 C3888 1.385 1_556 S
C3889 C3893 1.376 . S
C3890 C3888 1.396 . S
C3890 C3891 1.369 . S
C3890 C3894 1.531 . S
C3891 C3890 1.369 . S
C3891 C3892 1.410 . S
C3891 C3899 1.503 . S
C3892 C3891 1.410 . S
C3892 C3893 1.386 1_554 S
C3892 C3895 1.511 . S
C3893 C3889 1.376 . S
C3893 C3892 1.386 1_556 S
C3893 H3905 0.935 . S
C3894 C3890 1.531 . S
C3894 H3906 0.960 1_554 S
C3894 H3907 0.962 . S
C3894 H3908 0.960 1_554 S
C3895 C3892 1.511 . S
C3895 H3909 0.961 . S
C3895 H3910 0.961 . S
C3895 H3911 0.961 1_554 S
C3896 C3897 1.370 . S
C3896 C3898 1.363 . S
C3896 H3912 0.931 . S
C3897 C3896 1.370 . S
C3897 C3901 1.408 1_554 S
C3898 C3896 1.363 . S
C3898 C3899 1.370 . S
C3898 C3902 1.524 . S
C3899 C3891 1.503 . S
C3899 C3898 1.370 . S
C3899 C3900 1.403 1_554 S
C3900 C3899 1.403 1_556 S
C3900 C3901 1.404 . S
C3900 C3903 1.539 . S
C3901 C3897 1.408 1_556 S
C3901 C3900 1.404 . S
C3901 H3913 0.930 . S
C3902 C3898 1.524 . S
C3902 H3914 0.956 . S
C3902 H3915 0.961 . S
C3902 H3916 0.961 . S
C3903 C3900 1.539 . S
C3903 H3917 0.958 . S
C3903 H3918 0.961 . S
C3903 H3919 0.960 . S
H3904 C3888 0.928 1_556 S
H3905 C3893 0.935 . S
H3906 C3894 0.960 1_556 S
H3907 C3894 0.962 . S
H3908 C3894 0.960 1_556 S
H3909 C3895 0.961 . S
H3910 C3895 0.961 . S
H3911 C3895 0.961 1_556 S
H3912 C3896 0.931 . S
H3913 C3901 0.930 . S
H3914 C3902 0.956 . S
H3915 C3902 0.961 . S
H3916 C3902 0.961 . S
H3917 C3903 0.958 . S
H3918 C3903 0.961 . S
H3919 C3903 0.960 . S
C3920 C3921 1.391 . S
C3920 C3922 1.394 . S
C3920 H3936 0.931 . S
C3921 C3920 1.391 . S
C3921 C3925 1.376 . S
C3922 C3920 1.394 . S
C3922 C3923 1.369 . S
C3922 C3926 1.531 . S
C3923 C3922 1.369 . S
C3923 C3924 1.410 . S
C3923 C3931 1.503 . S
C3924 C3923 1.410 . S
C3924 C3925 1.392 . S
C3924 C3927 1.511 . S
C3925 C3921 1.376 . S
C3925 C3924 1.392 . S
C3925 H3937 0.929 . S
C3926 C3922 1.531 . S
C3926 H3938 0.960 . S
C3926 H3939 0.962 . S
C3926 H3940 0.960 . S
C3927 C3924 1.511 . S
C3927 H3941 0.961 . S
C3927 H3942 0.961 . S
C3927 H3943 0.961 . S
C3928 C3929 1.370 . S
C3928 C3930 1.363 . S
C3928 H3944 0.931 . S
C3929 C3928 1.370 . S
C3929 C3933 1.408 . S
C3930 C3928 1.363 . S
C3930 C3931 1.370 . S
C3930 C3934 1.524 . S
C3931 C3923 1.503 . S
C3931 C3930 1.370 . S
C3931 C3932 1.403 . S
C3932 C3931 1.403 . S
C3932 C3933 1.404 . S
C3932 C3935 1.539 . S
C3933 C3929 1.408 . S
C3933 C3932 1.404 . S
C3933 H3945 0.930 . S
C3934 C3930 1.524 . S
C3934 H3946 0.956 . S
C3934 H3947 0.961 . S
C3934 H3948 0.961 . S
C3935 C3932 1.539 . S
C3935 H3949 0.958 . S
C3935 H3950 0.961 . S
C3935 H3951 0.960 . S
H3936 C3920 0.931 . S
H3937 C3925 0.929 . S
H3938 C3926 0.960 . S
H3939 C3926 0.962 . S
H3940 C3926 0.960 . S
H3941 C3927 0.961 . S
H3942 C3927 0.961 . S
H3943 C3927 0.961 . S
H3944 C3928 0.931 . S
H3945 C3933 0.930 . S
H3946 C3934 0.956 . S
H3947 C3934 0.961 . S
H3948 C3934 0.961 . S
H3949 C3935 0.958 . S
H3950 C3935 0.961 . S
H3951 C3935 0.960 . S
C3952 C3953 1.391 . S
C3952 C3954 1.394 . S
C3952 H3968 0.931 . S
C3953 C3952 1.391 . S
C3953 C3957 1.376 . S
C3954 C3952 1.394 . S
C3954 C3955 1.369 . S
C3954 C3958 1.553 . S
C3955 C3954 1.369 . S
C3955 C3956 1.410 . S
C3955 C3963 1.503 . S
C3956 C3955 1.410 . S
C3956 C3957 1.392 . S
C3956 C3959 1.511 . S
C3957 C3953 1.376 . S
C3957 C3956 1.392 . S
C3957 H3969 0.929 . S
C3958 C3954 1.553 . S
C3958 H3970 0.966 1_554 S
C3958 H3971 0.960 . S
C3958 H3972 0.938 1_554 S
C3959 C3956 1.511 . S
C3959 H3973 0.961 . S
C3959 H3974 0.961 . S
C3959 H3975 0.961 . S
C3960 C3961 1.370 . S
C3960 C3962 1.363 . S
C3960 H3976 0.931 . S
C3961 C3960 1.370 . S
C3961 C3965 1.408 . S
C3962 C3960 1.363 . S
C3962 C3963 1.370 . S
C3962 C3966 1.524 . S
C3963 C3955 1.503 . S
C3963 C3962 1.370 . S
C3963 C3964 1.403 . S
C3964 C3963 1.403 . S
C3964 C3965 1.404 . S
C3964 C3967 1.539 . S
C3965 C3961 1.408 . S
C3965 C3964 1.404 . S
C3965 H3977 0.930 . S
C3966 C3962 1.524 . S
C3966 H3978 0.956 . S
C3966 H3979 0.961 . S
C3966 H3980 0.961 . S
C3967 C3964 1.539 . S
C3967 H3981 0.958 . S
C3967 H3982 0.961 . S
C3967 H3983 0.960 . S
H3968 C3952 0.931 . S
H3969 C3957 0.929 . S
H3970 C3958 0.966 1_556 S
H3971 C3958 0.960 . S
H3972 C3958 0.938 1_556 S
H3973 C3959 0.961 . S
H3974 C3959 0.961 . S
H3975 C3959 0.961 . S
H3976 C3960 0.931 . S
H3977 C3965 0.930 . S
H3978 C3966 0.956 . S
H3979 C3966 0.961 . S
H3980 C3966 0.961 . S
H3981 C3967 0.958 . S
H3982 C3967 0.961 . S
H3983 C3967 0.960 . S
C3984 C3985 1.391 . S
C3984 C3986 1.394 . S
C3984 H4000 0.931 . S
C3985 C3984 1.391 . S
C3985 C3989 1.376 . S
C3986 C3984 1.394 . S
C3986 C3987 1.369 . S
C3986 C3990 1.531 . S
C3987 C3986 1.369 . S
C3987 C3988 1.410 . S
C3987 C3995 1.503 . S
C3988 C3987 1.410 . S
C3988 C3989 1.392 . S
C3988 C3991 1.511 . S
C3989 C3985 1.376 . S
C3989 C3988 1.392 . S
C3989 H4001 0.929 . S
C3990 C3986 1.531 . S
C3990 H4002 0.960 . S
C3990 H4003 0.962 . S
C3990 H4004 0.960 . S
C3991 C3988 1.511 . S
C3991 H4005 0.961 . S
C3991 H4006 0.961 . S
C3991 H4007 0.961 . S
C3992 C3993 1.370 . S
C3992 C3994 1.363 . S
C3992 H4008 0.931 . S
C3993 C3992 1.370 . S
C3993 C3997 1.408 . S
C3994 C3992 1.363 . S
C3994 C3995 1.370 . S
C3994 C3998 1.524 . S
C3995 C3987 1.503 . S
C3995 C3994 1.370 . S
C3995 C3996 1.403 . S
C3996 C3995 1.403 . S
C3996 C3997 1.404 . S
C3996 C3999 1.539 . S
C3997 C3993 1.408 . S
C3997 C3996 1.404 . S
C3997 H4009 0.930 . S
C3998 C3994 1.524 . S
C3998 H4010 0.956 . S
C3998 H4011 0.961 . S
C3998 H4012 0.961 . S
C3999 C3996 1.539 . S
C3999 H4013 0.958 . S
C3999 H4014 0.961 . S
C3999 H4015 0.960 . S
H4000 C3984 0.931 . S
H4001 C3989 0.929 . S
H4002 C3990 0.960 . S
H4003 C3990 0.962 . S
H4004 C3990 0.960 . S
H4005 C3991 0.961 . S
H4006 C3991 0.961 . S
H4007 C3991 0.961 . S
H4008 C3992 0.931 . S
H4009 C3997 0.930 . S
H4010 C3998 0.956 . S
H4011 C3998 0.961 . S
H4012 C3998 0.961 . S
H4013 C3999 0.958 . S
H4014 C3999 0.961 . S
H4015 C3999 0.960 . S
C4016 C4017 1.391 . S
C4016 C4018 1.394 . S
C4016 H4032 0.931 . S
C4017 C4016 1.391 . S
C4017 C4021 1.376 . S
C4018 C4016 1.394 . S
C4018 C4019 1.369 . S
C4018 C4022 1.531 . S
C4019 C4018 1.369 . S
C4019 C4020 1.410 . S
C4019 C4027 1.503 . S
C4020 C4019 1.410 . S
C4020 C4021 1.392 . S
C4020 C4023 1.511 . S
C4021 C4017 1.376 . S
C4021 C4020 1.392 . S
C4021 H4033 0.929 . S
C4022 C4018 1.531 . S
C4022 H4034 0.960 . S
C4022 H4035 0.962 . S
C4022 H4036 0.960 . S
C4023 C4020 1.511 . S
C4023 H4037 0.961 . S
C4023 H4038 0.961 . S
C4023 H4039 0.961 . S
C4024 C4025 1.370 . S
C4024 C4026 1.363 . S
C4024 H4040 0.931 . S
C4025 C4024 1.370 . S
C4025 C4029 1.408 . S
C4026 C4024 1.363 . S
C4026 C4027 1.370 . S
C4026 C4030 1.524 . S
C4027 C4019 1.503 . S
C4027 C4026 1.370 . S
C4027 C4028 1.403 . S
C4028 C4027 1.403 . S
C4028 C4029 1.404 . S
C4028 C4031 1.539 . S
C4029 C4025 1.408 . S
C4029 C4028 1.404 . S
C4029 H4041 0.930 . S
C4030 C4026 1.524 . S
C4030 H4042 0.956 . S
C4030 H4043 0.961 . S
C4030 H4044 0.961 . S
C4031 C4028 1.539 . S
C4031 H4045 0.958 . S
C4031 H4046 0.961 . S
C4031 H4047 0.960 . S
H4032 C4016 0.931 . S
H4033 C4021 0.929 . S
H4034 C4022 0.960 . S
H4035 C4022 0.962 . S
H4036 C4022 0.960 . S
H4037 C4023 0.961 . S
H4038 C4023 0.961 . S
H4039 C4023 0.961 . S
H4040 C4024 0.931 . S
H4041 C4029 0.930 . S
H4042 C4030 0.956 . S
H4043 C4030 0.961 . S
H4044 C4030 0.961 . S
H4045 C4031 0.958 . S
H4046 C4031 0.961 . S
H4047 C4031 0.960 . S
C977 C106 2.248 . S
C985 C358 2.231 . S
C1009 C65 1.167 . S
C1017 C378 1.121 . S
C1041 C79 1.015 . S
C1049 C425 1.018 . S
C1081 C482 0.839 . S
C1073 C90 0.888 . S
C1105 C21 2.345 . S
C1113 C499 2.384 . S
C1145 C558 1.838 . S
C1137 C35 1.764 . S
C1177 C591 2.757 . S
C1169 C50 2.751 . S
C1201 C6 2.489 . S
C1209 C638 2.511 . S
C1241 C351 1.932 . S
C1233 C232 1.867 1_545 S
C1265 C245 1.509 . S
C1273 C379 1.510 . S
C1305 C418 0.560 . S
C1297 C274 0.521 . S
C1337 C478 2.240 . S
C1329 C175 2.139 . S
C1361 C231 0.357 . S
C1369 C505 0.440 . S
C1401 C551 2.264 . S
C1393 C246 2.226 . S
C1433 C602 0.484 . S
C1425 C273 0.550 . S
C1465 C631 2.534 . S
C1457 C176 2.520 . S
C1497 C362 1.931 1_565 S
C1489 C160 1.874 . S
C1521 C289 2.197 . S
C1529 C658 2.167 . S
C1561 C722 1.344 . S
C1553 C328 1.285 . S
C1593 C758 1.496 . S
C1585 C317 1.495 . S
C1617 C118 1.402 . S
C1625 C642 1.479 . S
C1649 C132 2.615 . S
C1657 C419 2.659 . S
C1681 C331 1.496 . S
C1689 C791 1.522 . S
C1721 C825 0.612 . S
C1713 C303 0.567 . S
C1753 C339 1.795 1_565 S
C1745 C63 1.779 . S
C1785 C831 1.630 . S
C1777 C107 1.566 . S
C1809 C92 0.885 . S
C1817 C442 0.851 . S
C1841 C78 1.181 . S
C1849 C785 1.193 . S
C1881 C518 3.009 . S
C1873 C8 2.989 . S
C1905 C51 1.924 . S
C1913 C699 1.918 . S
C1945 C578 3.073 1_556 S
C1937 C37 3.007 . S
C1977 C859 2.374 . S
C1969 C20 2.341 . S
C2009 C338 1.560 . S
C2001 C147 1.422 . S
C2041 C838 1.615 . S
C2033 C316 1.596 . S
C2065 C119 0.592 . S
C2073 C431 0.521 . S
C2097 C288 2.308 . S
C2105 C779 2.315 . S
C2129 C148 0.532 . S
C2137 C522 0.563 . S
C2169 C698 2.260 . S
C2161 C315 2.244 . S
C2193 C120 0.594 . S
C2201 C585 0.526 . S
C2225 C287 2.331 . S
C2233 C858 2.383 . S
C2257 C188 1.519 . S
C2265 C345 1.591 . S
C2289 C177 2.431 . S
C2297 C671 2.419 . S
C2321 C258 1.308 . S
C2329 C545 1.280 . S
C2353 C247 1.670 . S
C2361 C739 1.658 . S
C2393 C865 1.256 . S
C2385 C272 1.244 . S
C2417 C216 2.338 . S
C2425 C438 2.391 1_565 S
C2457 C458 1.795 . S
C2449 C261 1.693 . S
C2489 C402 0.452 . S
C2481 C205 0.392 . S
C2513 C76 1.789 . S
C2521 C918 1.888 . S
C2553 C818 1.194 . S
C2545 C93 1.233 . S
C2577 C105 0.641 . S
C2585 C945 0.666 . S
C2609 C62 0.800 . S
C2617 C802 0.868 . S
C2641 C49 2.320 . S
C2649 C659 2.352 . S
C2681 C718 2.231 . S
C2673 C9 2.204 1_655 S
C2713 C751 2.672 . S
C2705 C22 2.658 . S
C2745 C878 2.851 . S
C2737 C36 2.860 . S
C2777 C911 1.814 . S
C2769 C260 1.809 . S
C2801 C189 1.374 . S
C2809 C819 1.409 . S
C2841 C938 0.467 . S
C2833 C204 0.481 . S
C2873 C798 1.945 . S
C2865 C217 1.867 . S
C2905 C665 0.453 . S
C2897 C259 0.423 . S
C2929 C190 2.355 . S
C2937 C711 2.365 . S
C2969 C762 0.450 . S
C2961 C203 0.539 . S
C2993 C218 2.544 . S
C3001 C871 2.553 . S
C3033 C922 1.927 . S
C3025 C314 1.846 . S
C3057 C135 2.275 . S
C3065 C498 2.259 . S
C3097 C562 1.322 . S
C3089 C146 1.230 1_565 S
C3129 C598 1.553 1_565 S
C3121 C163 1.570 . S
C3161 C882 1.481 . S
C3153 C300 1.358 . S
C3185 C286 2.502 . S
C3193 C939 2.553 1_655 S
C3225 C471 1.402 . S
C3217 C149 1.377 . S
C3257 C385 0.580 . S
C3249 C121 0.577 . S
C3281 C91 1.746 . S
C3289 C899 1.758 . S
C3321 C391 1.238 . S
C3313 C77 1.155 . S
C3345 C64 0.819 . S
C3353 C962 0.875 . S
C3377 C104 0.914 . S
C3385 C465 0.929 . S
C3409 C34 2.583 . S
C3417 C678 2.641 1_556 S
C3449 C539 1.887 . S
C3441 C23 1.887 . S
C3473 C7 2.599 . S
C3481 C738 2.666 . S
C3505 C48 2.300 . S
C3513 C619 2.337 . S
C3545 C898 1.499 . S
C3537 C329 1.398 . S
C3569 C162 1.594 . S
C3577 C398 1.625 . S
C3609 C951 0.598 . S
C3601 C301 0.548 . S
C3633 C134 2.244 . S
C3641 C459 2.257 . S
C3665 C330 0.617 . S
C3673 C682 0.554 . S
C3705 C538 2.239 . S
C3697 C161 2.217 . S
C3729 C302 0.617 1_455 S
C3737 C745 0.561 . S
C3769 C618 2.341 . S
C3761 C133 2.290 . S
C3801 C905 1.735 . S
C3793 C244 1.660 . S
C3833 C511 2.404 1_665 S
C3825 C219 2.421 . S
C3857 C230 1.183 . S
C3865 C705 1.159 . S
C3897 C579 1.637 . S
C3889 C191 1.662 . S
C3921 C202 1.369 . S
C3929 C625 1.381 . S
C3953 C174 2.661 . S
C3961 C958 2.714 . S
C3993 C778 1.736 . S
C3985 C233 1.608 . S
C4025 C842 0.470 . S
C4017 C275 0.542 . S
