# Generated by pormake.
# Topology llj, (12,3)-cn, num edge types: 1
# Building blocks:
#     Node 0, Type 0, BuildingBlock: QEWDON_clean_sbu_0, # of connection points: 12
#     Node 1, Type 0, BuildingBlock: QEWDON_clean_sbu_0, # of connection points: 12
#     Node 2, Type 1, BuildingBlock: WUSLED_clean_sbu_0, # of connection points: 3
#     Node 3, Type 1, BuildingBlock: WUSLED_clean_sbu_0, # of connection points: 3
#     Node 4, Type 1, BuildingBlock: WUSLED_clean_sbu_0, # of connection points: 3
#     Node 5, Type 1, BuildingBlock: WUSLED_clean_sbu_0, # of connection points: 3
#     Node 6, Type 1, BuildingBlock: WUSLED_clean_sbu_0, # of connection points: 3
#     Node 7, Type 1, BuildingBlock: WUSLED_clean_sbu_0, # of connection points: 3
#     Node 8, Type 1, BuildingBlock: WUSLED_clean_sbu_0, # of connection points: 3
#     Node 9, Type 1, BuildingBlock: WUSLED_clean_sbu_0, # of connection points: 3
#     Edge 10, Type (0, 1), BuildingBlock: ZUJKAS_clean_linker_0, # of connection points: 2
#     Edge 11, Type (0, 1), BuildingBlock: ZUJKAS_clean_linker_0, # of connection points: 2
#     Edge 12, Type (0, 1), BuildingBlock: ZUJKAS_clean_linker_0, # of connection points: 2
#     Edge 13, Type (0, 1), BuildingBlock: ZUJKAS_clean_linker_0, # of connection points: 2
#     Edge 14, Type (0, 1), BuildingBlock: ZUJKAS_clean_linker_0, # of connection points: 2
#     Edge 15, Type (0, 1), BuildingBlock: ZUJKAS_clean_linker_0, # of connection points: 2
#     Edge 16, Type (0, 1), BuildingBlock: ZUJKAS_clean_linker_0, # of connection points: 2
#     Edge 17, Type (0, 1), BuildingBlock: ZUJKAS_clean_linker_0, # of connection points: 2
#     Edge 18, Type (0, 1), BuildingBlock: ZUJKAS_clean_linker_0, # of connection points: 2
#     Edge 19, Type (0, 1), BuildingBlock: ZUJKAS_clean_linker_0, # of connection points: 2
#     Edge 20, Type (0, 1), BuildingBlock: ZUJKAS_clean_linker_0, # of connection points: 2
#     Edge 21, Type (0, 1), BuildingBlock: ZUJKAS_clean_linker_0, # of connection points: 2
#     Edge 22, Type (0, 1), BuildingBlock: ZUJKAS_clean_linker_0, # of connection points: 2
#     Edge 23, Type (0, 1), BuildingBlock: ZUJKAS_clean_linker_0, # of connection points: 2
#     Edge 24, Type (0, 1), BuildingBlock: ZUJKAS_clean_linker_0, # of connection points: 2
#     Edge 25, Type (0, 1), BuildingBlock: ZUJKAS_clean_linker_0, # of connection points: 2
#     Edge 26, Type (0, 1), BuildingBlock: ZUJKAS_clean_linker_0, # of connection points: 2
#     Edge 27, Type (0, 1), BuildingBlock: ZUJKAS_clean_linker_0, # of connection points: 2
#     Edge 28, Type (0, 1), BuildingBlock: ZUJKAS_clean_linker_0, # of connection points: 2
#     Edge 29, Type (0, 1), BuildingBlock: ZUJKAS_clean_linker_0, # of connection points: 2
#     Edge 30, Type (0, 1), BuildingBlock: ZUJKAS_clean_linker_0, # of connection points: 2
#     Edge 31, Type (0, 1), BuildingBlock: ZUJKAS_clean_linker_0, # of connection points: 2
#     Edge 32, Type (0, 1), BuildingBlock: ZUJKAS_clean_linker_0, # of connection points: 2
#     Edge 33, Type (0, 1), BuildingBlock: ZUJKAS_clean_linker_0, # of connection points: 2
# Relax obj value: 0.010
# Max RMSD: 0.046
# Mean RMSD: 0.044
data_MOF--net-llj--node1-QEWDON_clean_sbu_0--node2-WUSLED_clean_sbu_0--edge1-ZUJKAS_clean_linker_0
_symmetry_space_group_name_H-M    P1
_symmetry_Int_Tables_number       1
_symmetry_cell_setting            triclinic
loop_
_symmetry_equiv_pos_as_xyz
'x, y, z'
_cell_length_a     58.118804
_cell_length_b     58.10218
_cell_length_c     40.45181
_cell_angle_alpha  90.243095
_cell_angle_beta   90.186221
_cell_angle_gamma 89.983698
loop_
_atom_site_label
_atom_site_type_symbol
_atom_site_fract_x
_atom_site_fract_y
_atom_site_fract_z
_atom_type_partial_charge
Zn0 Zn 0.96484 0.05385 0.98482 0.0
Zn1 Zn 0.96453 0.05073 0.06353 0.0
O2 O 0.98497 0.04613 0.02445 0.0
H3 H 0.99781 0.03561 0.02345 0.0
C4 C 0.91763 0.99085 0.94559 0.0
O5 O 0.90463 0.98798 0.97177 0.0
Zn6 Zn 0.03485 0.95183 0.0673 0.0
Zn7 Zn 0.03749 0.94893 0.9888 0.0
O8 O 0.01554 0.95576 0.0266 0.0
H9 H 0.00244 0.96589 0.0247 0.0
Zn10 Zn 0.94825 0.96634 0.98897 0.0
O11 O 0.95968 0.98603 0.02717 0.0
Zn12 Zn 0.9539 0.96775 0.06824 0.0
H13 H 0.97128 0.99781 0.02483 0.0
Zn14 Zn 0.05347 0.03578 0.99256 0.0
O15 O 0.04133 0.01624 0.03002 0.0
H16 H 0.02999 0.00425 0.02699 0.0
Zn17 Zn 0.04583 0.03521 0.07101 0.0
C18 C 0.06482 0.99844 0.94686 0.0
O19 O 0.06353 0.98661 0.97439 0.0
O20 O 0.93688 0.07396 0.997 0.0
O21 O 0.93853 0.07298 0.05191 0.0
O22 O 0.06482 0.92872 0.00285 0.0
O23 O 0.06125 0.9295 0.05756 0.0
O24 O 0.92744 0.93976 0.00413 0.0
O25 O 0.9301 0.94244 0.05892 0.0
C26 C 0.00432 0.05951 0.10459 0.0
O27 O 0.07521 0.06147 0.00847 0.0
O28 O 0.07023 0.06028 0.06298 0.0
O29 O 0.02393 0.94218 0.94223 0.0
C30 C 0.92937 0.08026 0.02519 0.0
O31 O 0.98132 0.06243 0.94116 0.0
C32 C 0.99382 0.94302 0.10515 0.0
O33 O 0.93808 0.9831 0.9461 0.0
C34 C 0.07131 0.9223 0.03147 0.0
O35 O 0.06098 0.01996 0.94773 0.0
C36 C 0.94522 0.01067 0.10275 0.0
O37 O 0.98287 0.06339 0.10168 0.0
O38 O 0.01433 0.04844 0.0815 0.0
C39 C 0.92169 0.93308 0.03291 0.0
O40 O 0.01534 0.93912 0.10412 0.0
O41 O 0.9849 0.95464 0.08174 0.0
C42 C 0.05357 0.99266 0.10675 0.0
O43 O 0.94284 0.98896 0.10474 0.0
O44 O 0.9534 0.01905 0.07627 0.0
C45 C 0.08002 0.06871 0.03746 0.0
O46 O 0.05588 0.01441 0.10845 0.0
O47 O 0.04543 0.98387 0.08032 0.0
C48 C 0.0024 0.93974 0.93796 0.0
O49 O 0.98857 0.94235 0.96332 0.0
C50 C 0.00314 0.0633 0.93973 0.0
O51 O 0.01527 0.05787 0.96601 0.0
Zn52 Zn 0.46769 0.55406 0.49015 0.0
Zn53 Zn 0.46705 0.54739 0.56877 0.0
O54 O 0.48644 0.54197 0.52866 0.0
H55 H 0.49787 0.53004 0.52648 0.0
C56 C 0.43624 0.5043 0.43925 0.0
O57 O 0.44057 0.51645 0.46602 0.0
Zn58 Zn 0.53279 0.45431 0.56737 0.0
Zn59 Zn 0.53333 0.44529 0.48926 0.0
O60 O 0.51395 0.45828 0.52618 0.0
H61 H 0.50249 0.47012 0.52305 0.0
Zn62 Zn 0.44629 0.46625 0.48432 0.0
O63 O 0.45494 0.48641 0.52366 0.0
Zn64 Zn 0.44996 0.4665 0.56315 0.0
H65 H 0.46585 0.4989 0.52236 0.0
Zn66 Zn 0.55521 0.53951 0.48422 0.0
O67 O 0.54443 0.51916 0.52172 0.0
H68 H 0.53549 0.50529 0.51918 0.0
Zn69 Zn 0.55003 0.53667 0.56368 0.0
C70 C 0.57613 0.50463 0.44259 0.0
O71 O 0.57986 0.49565 0.47189 0.0
O72 O 0.442 0.57619 0.50459 0.0
O73 O 0.44243 0.57207 0.55925 0.0
O74 O 0.55969 0.42496 0.50614 0.0
O75 O 0.55895 0.4309 0.56053 0.0
O76 O 0.4256 0.43885 0.4968 0.0
O77 O 0.4272 0.44089 0.55164 0.0
C78 C 0.50937 0.55528 0.606 0.0
O79 O 0.57514 0.56665 0.50027 0.0
O80 O 0.57143 0.5641 0.55487 0.0
O81 O 0.51759 0.43581 0.4451 0.0
C82 C 0.43445 0.58156 0.53314 0.0
O83 O 0.48462 0.5622 0.4467 0.0
C84 C 0.49006 0.4459 0.60236 0.0
O85 O 0.43802 0.48253 0.44038 0.0
C86 C 0.56746 0.42097 0.53505 0.0
O87 O 0.56534 0.5236 0.44064 0.0
C88 C 0.44202 0.50691 0.60318 0.0
O89 O 0.4876 0.55773 0.60644 0.0
O90 O 0.5185 0.54634 0.58038 0.0
C91 C 0.41947 0.43168 0.52515 0.0
O92 O 0.51176 0.44326 0.60383 0.0
O93 O 0.48146 0.45491 0.57649 0.0
C94 C 0.5607 0.49398 0.59705 0.0
O95 O 0.43769 0.48551 0.60087 0.0
O96 O 0.45319 0.51634 0.57983 0.0
C97 C 0.5799 0.57378 0.52934 0.0
O98 O 0.56558 0.5153 0.59606 0.0
O99 O 0.54525 0.48619 0.57766 0.0
C100 C 0.49607 0.43209 0.44323 0.0
O101 O 0.48336 0.43475 0.46978 0.0
C102 C 0.50566 0.56812 0.44755 0.0
O103 O 0.51654 0.56829 0.47607 0.0
C104 C 0.3544 0.3097 0.92297 0.0
C105 C 0.37187 0.32588 0.92883 0.0
C106 C 0.37365 0.33455 0.87001 0.0
C107 C 0.38141 0.33818 0.90261 0.0
C108 C 0.35616 0.31821 0.8643 0.0
C109 C 0.34661 0.30592 0.8906 0.0
U110 U 0.35164 0.29838 0.01462 0.0
O111 O 0.32233 0.29391 0.04815 0.0
O112 O 0.34784 0.26629 0.04286 0.0
C113 C 0.3281 0.2727 0.05572 0.0
C114 C 0.34418 0.29704 0.95065 0.0
C115 C 0.30942 0.25571 0.05393 0.0
C116 C 0.27861 0.23646 0.02395 0.0
C117 C 0.29695 0.25208 0.02462 0.0
C118 C 0.28533 0.22772 0.0817 0.0
C119 C 0.2725 0.22418 0.05256 0.0
C120 C 0.3036 0.24335 0.08234 0.0
C121 C 0.39168 0.33288 0.07087 0.0
C122 C 0.39053 0.32938 0.13065 0.0
C123 C 0.41673 0.35642 0.10514 0.0
C124 C 0.40881 0.3497 0.07392 0.0
C125 C 0.40762 0.34642 0.13391 0.0
C126 C 0.38263 0.32266 0.09935 0.0
C127 C 0.38301 0.32665 0.03791 0.0
O128 O 0.35816 0.28276 0.96589 0.0
O129 O 0.33195 0.30969 0.9711 0.0
O130 O 0.36169 0.33287 0.03184 0.0
O131 O 0.38767 0.3056 0.02798 0.0
H132 H 0.37813 0.32898 0.95372 0.0
H133 H 0.39508 0.35033 0.90785 0.0
H134 H 0.34963 0.31516 0.83957 0.0
H135 H 0.33308 0.29353 0.88568 0.0
H136 H 0.26927 0.23393 0.001 0.0
H137 H 0.3013 0.26146 0.00239 0.0
H138 H 0.28094 0.21878 0.10426 0.0
H139 H 0.31302 0.246 0.1052 0.0
H140 H 0.38336 0.32116 0.15226 0.0
H141 H 0.42966 0.3698 0.10676 0.0
H142 H 0.41589 0.35782 0.05214 0.0
H143 H 0.36937 0.30961 0.09736 0.0
C144 C 0.70378 0.37275 0.10886 0.0
C145 C 0.68697 0.38947 0.10238 0.0
C146 C 0.68258 0.39656 0.16141 0.0
C147 C 0.67644 0.40128 0.12844 0.0
C148 C 0.69963 0.37991 0.16766 0.0
C149 C 0.71012 0.3681 0.14157 0.0
U150 U 0.7101 0.36029 0.01716 0.0
O151 O 0.74103 0.35239 0.98786 0.0
O152 O 0.71268 0.3275 0.99033 0.0
C153 C 0.73392 0.33145 0.98085 0.0
C154 C 0.71449 0.35985 0.08172 0.0
C155 C 0.75036 0.3129 0.98795 0.0
C156 C 0.76578 0.28391 0.02501 0.0
C157 C 0.75094 0.30238 0.01911 0.0
C158 C 0.78018 0.2868 0.96903 0.0
C159 C 0.78042 0.27572 0.99992 0.0
C160 C 0.76522 0.30518 0.9631 0.0
C161 C 0.67384 0.39363 0.95512 0.0
C162 C 0.67975 0.39093 0.89579 0.0
C163 C 0.64538 0.40919 0.91732 0.0
C164 C 0.65291 0.40492 0.94955 0.0
C165 C 0.65872 0.40227 0.89007 0.0
C166 C 0.6872 0.38654 0.92808 0.0
C167 C 0.68121 0.38897 0.9892 0.0
O168 O 0.70058 0.346 0.06544 0.0
O169 O 0.72789 0.37196 0.06229 0.0
O170 O 0.70262 0.3944 0.9964 0.0
O171 O 0.67501 0.36883 0.00078 0.0
H172 H 0.68193 0.39329 0.07717 0.0
H173 H 0.6636 0.4142 0.12277 0.0
H174 H 0.70454 0.37565 0.19275 0.0
H175 H 0.72304 0.35519 0.14694 0.0
H176 H 0.76532 0.27567 0.04896 0.0
H177 H 0.73961 0.3082 0.03866 0.0
H178 H 0.79152 0.28126 0.94936 0.0
H179 H 0.7651 0.31323 0.93898 0.0
H180 H 0.69029 0.38522 0.8753 0.0
H181 H 0.62927 0.41823 0.91375 0.0
H182 H 0.64237 0.41045 0.97017 0.0
H183 H 0.70333 0.37758 0.93196 0.0
C184 C 0.63461 0.70099 0.11763 0.0
C185 C 0.61934 0.68285 0.11102 0.0
C186 C 0.61264 0.67799 0.17 0.0
C187 C 0.60844 0.67144 0.13698 0.0
C188 C 0.62774 0.69644 0.17636 0.0
C189 C 0.63864 0.70781 0.15036 0.0
U190 U 0.64575 0.70892 0.02596 0.0
O191 O 0.65291 0.74035 0.99752 0.0
O192 O 0.67823 0.71233 0.99888 0.0
C193 C 0.67388 0.73365 0.9901 0.0
C194 C 0.64685 0.71244 0.09062 0.0
C195 C 0.69223 0.75026 0.99764 0.0
C196 C 0.72029 0.76646 0.03581 0.0
C197 C 0.70202 0.75142 0.02935 0.0
C198 C 0.71865 0.77983 0.97919 0.0
C199 C 0.729 0.78068 0.0107 0.0
C200 C 0.70046 0.76471 0.97273 0.0
C201 C 0.61189 0.67242 0.96368 0.0
C202 C 0.62391 0.66331 0.90761 0.0
C203 C 0.58447 0.65665 0.92427 0.0
C204 C 0.58959 0.66498 0.9559 0.0
C205 C 0.60163 0.65548 0.89988 0.0
C206 C 0.62898 0.67183 0.93921 0.0
C207 C 0.61711 0.68 0.99764 0.0
O208 O 0.66083 0.69911 0.07372 0.0
O209 O 0.63418 0.72582 0.07179 0.0
O210 O 0.61152 0.70135 0.00493 0.0
O211 O 0.63738 0.67394 0.00919 0.0
H212 H 0.61609 0.67735 0.0858 0.0
H213 H 0.59712 0.65716 0.13122 0.0
H214 H 0.63108 0.70215 0.20143 0.0
H215 H 0.65035 0.72185 0.15584 0.0
H216 H 0.72797 0.76648 0.06024 0.0
H217 H 0.6958 0.74041 0.04894 0.0
H218 H 0.72461 0.79083 0.95945 0.0
H219 H 0.69297 0.76413 0.94818 0.0
H220 H 0.63741 0.66286 0.88921 0.0
H221 H 0.56721 0.65053 0.91917 0.0
H222 H 0.5762 0.6653 0.97447 0.0
H223 H 0.64629 0.67768 0.94464 0.0
C224 C 0.29798 0.63467 0.11416 0.0
C225 C 0.31399 0.6172 0.10755 0.0
C226 C 0.32104 0.61255 0.16648 0.0
C227 C 0.32541 0.60621 0.13349 0.0
C228 C 0.30477 0.62994 0.17292 0.0
C229 C 0.29333 0.64092 0.14692 0.0
U230 U 0.29093 0.64431 0.02248 0.0
O231 O 0.26 0.65112 0.99245 0.0
O232 O 0.28828 0.67616 0.99373 0.0
C233 C 0.26697 0.67191 0.98457 0.0
C234 C 0.28668 0.64685 0.08689 0.0
C235 C 0.2506 0.69052 0.99159 0.0
C236 C 0.23386 0.718 0.02999 0.0
C237 C 0.24861 0.69951 0.02369 0.0
C238 C 0.2224 0.71822 0.97233 0.0
C239 C 0.22073 0.72774 0.00432 0.0
C240 C 0.23726 0.69979 0.96604 0.0
C241 C 0.32839 0.60826 0.96431 0.0
C242 C 0.33069 0.61491 0.90517 0.0
C243 C 0.35251 0.58391 0.93011 0.0
C244 C 0.34367 0.58979 0.96106 0.0
C245 C 0.3462 0.59644 0.9018 0.0
C246 C 0.32182 0.62076 0.93622 0.0
C247 C 0.32012 0.61464 0.99731 0.0
O248 O 0.30028 0.6604 0.0699 0.0
O249 O 0.27322 0.63411 0.06811 0.0
O250 O 0.29855 0.60953 0.00366 0.0
O251 O 0.32608 0.6353 0.0075 0.0
H252 H 0.31784 0.61228 0.08229 0.0
H253 H 0.33803 0.5931 0.12767 0.0
H254 H 0.30081 0.63501 0.19807 0.0
H255 H 0.28099 0.65438 0.15238 0.0
H256 H 0.23323 0.72503 0.05481 0.0
H257 H 0.25879 0.69249 0.04374 0.0
H258 H 0.21225 0.72502 0.95212 0.0
H259 H 0.23849 0.69293 0.94116 0.0
H260 H 0.32532 0.62474 0.8838 0.0
H261 H 0.36467 0.56983 0.92849 0.0
H262 H 0.349 0.58006 0.98257 0.0
H263 H 0.30999 0.63511 0.93838 0.0
C264 C 0.85885 0.80562 0.42583 0.0
C265 C 0.87843 0.81938 0.43053 0.0
C266 C 0.8785 0.8292 0.37207 0.0
C267 C 0.88819 0.83103 0.4039 0.0
C268 C 0.85885 0.81537 0.36752 0.0
C269 C 0.84912 0.80365 0.39422 0.0
U270 U 0.85661 0.79568 0.51776 0.0
O271 O 0.82746 0.79316 0.55199 0.0
O272 O 0.85145 0.76419 0.54692 0.0
C273 C 0.83201 0.77166 0.55958 0.0
C274 C 0.84831 0.79385 0.45404 0.0
C275 C 0.81245 0.75575 0.55699 0.0
C276 C 0.78142 0.73831 0.52526 0.0
C277 C 0.80047 0.75298 0.52708 0.0
C278 C 0.7864 0.72875 0.5831 0.0
C279 C 0.7741 0.7261 0.55331 0.0
C280 C 0.80539 0.74347 0.5849 0.0
C281 C 0.89935 0.82949 0.57128 0.0
C282 C 0.89921 0.82828 0.63128 0.0
C283 C 0.92618 0.85297 0.60273 0.0
C284 C 0.91735 0.84548 0.57239 0.0
C285 C 0.91712 0.84458 0.63257 0.0
C286 C 0.89039 0.82079 0.60085 0.0
C287 C 0.88966 0.82275 0.53914 0.0
O288 O 0.86172 0.77908 0.46936 0.0
O289 O 0.83699 0.80738 0.47439 0.0
O290 O 0.86855 0.82987 0.53355 0.0
O291 O 0.8931 0.80126 0.53014 0.0
H292 H 0.88605 0.82123 0.45488 0.0
H293 H 0.9031 0.84179 0.40835 0.0
H294 H 0.85113 0.81342 0.34327 0.0
H295 H 0.83398 0.79312 0.39021 0.0
H296 H 0.77252 0.73641 0.50185 0.0
H297 H 0.80579 0.76227 0.50522 0.0
H298 H 0.78107 0.71979 0.60522 0.0
H299 H 0.81444 0.74545 0.6082 0.0
H300 H 0.89203 0.82129 0.65378 0.0
H301 H 0.93972 0.86577 0.6028 0.0
H302 H 0.92437 0.85244 0.54974 0.0
H303 H 0.87645 0.8084 0.60036 0.0
C304 C 0.19675 0.86677 0.61739 0.0
C305 C 0.17951 0.88287 0.60997 0.0
C306 C 0.17324 0.88977 0.66871 0.0
C307 C 0.16786 0.89428 0.63541 0.0
C308 C 0.19077 0.8738 0.67591 0.0
C309 C 0.2024 0.8624 0.65044 0.0
U310 U 0.20562 0.85453 0.52612 0.0
O311 O 0.23713 0.84692 0.49811 0.0
O312 O 0.20916 0.82159 0.49964 0.0
C313 C 0.23048 0.82586 0.49086 0.0
C314 C 0.20842 0.85404 0.59087 0.0
C315 C 0.24708 0.80755 0.4986 0.0
C316 C 0.27023 0.78628 0.53823 0.0
C317 C 0.25503 0.80428 0.53104 0.0
C318 C 0.2697 0.77472 0.4806 0.0
C319 C 0.27761 0.77117 0.51311 0.0
C320 C 0.25457 0.79275 0.47345 0.0
C321 C 0.16957 0.88922 0.46387 0.0
C322 C 0.16189 0.87868 0.40665 0.0
C323 C 0.15212 0.91684 0.42654 0.0
C324 C 0.16055 0.91116 0.45784 0.0
C325 C 0.1525 0.90061 0.40063 0.0
C326 C 0.17044 0.87305 0.438 0.0
C327 C 0.17715 0.88341 0.49755 0.0
O328 O 0.19514 0.84002 0.57383 0.0
O329 O 0.22219 0.86631 0.5722 0.0
O330 O 0.19852 0.88874 0.50507 0.0
O331 O 0.17093 0.86304 0.50837 0.0
H332 H 0.1749 0.88638 0.5845 0.0
H333 H 0.15431 0.90627 0.62898 0.0
H334 H 0.19559 0.87019 0.70124 0.0
H335 H 0.2157 0.85005 0.65656 0.0
H336 H 0.27583 0.78389 0.56354 0.0
H337 H 0.24928 0.8155 0.55083 0.0
H338 H 0.27531 0.76363 0.4606 0.0
H339 H 0.24861 0.79506 0.44827 0.0
H340 H 0.16267 0.86591 0.38711 0.0
H341 H 0.14477 0.93377 0.42286 0.0
H342 H 0.15969 0.92383 0.47754 0.0
H343 H 0.17748 0.85603 0.44214 0.0
C344 C 0.13397 0.20263 0.6173 0.0
C345 C 0.11592 0.18727 0.61059 0.0
C346 C 0.11226 0.17904 0.66928 0.0
C347 C 0.10513 0.1756 0.63636 0.0
C348 C 0.13028 0.1946 0.67584 0.0
C349 C 0.14104 0.20631 0.65001 0.0
U350 U 0.1426 0.21049 0.52569 0.0
O351 O 0.14881 0.2416 0.49617 0.0
O352 O 0.17414 0.21357 0.49629 0.0
C353 C 0.16955 0.23485 0.48757 0.0
C354 C 0.14587 0.2142 0.59013 0.0
C355 C 0.18804 0.2514 0.4944 0.0
C356 C 0.21371 0.27044 0.53327 0.0
C357 C 0.19542 0.25543 0.52696 0.0
C358 C 0.21707 0.2779 0.47456 0.0
C359 C 0.22485 0.28172 0.50711 0.0
C360 C 0.19882 0.26281 0.46827 0.0
C361 C 0.10592 0.1736 0.46734 0.0
C362 C 0.11285 0.17051 0.40831 0.0
C363 C 0.08001 0.15135 0.43269 0.0
C364 C 0.08631 0.15984 0.46375 0.0
C365 C 0.09326 0.15648 0.40462 0.0
C366 C 0.11911 0.17905 0.43946 0.0
C367 C 0.11269 0.18147 0.50046 0.0
O368 O 0.15926 0.20076 0.57244 0.0
O369 O 0.13294 0.22784 0.57205 0.0
O370 O 0.10759 0.20295 0.5077 0.0
O371 O 0.13349 0.17546 0.50991 0.0
H372 H 0.11036 0.18414 0.58537 0.0
H373 H 0.09152 0.16352 0.63043 0.0
H374 H 0.13598 0.19783 0.70095 0.0
H375 H 0.15498 0.21811 0.65555 0.0
H376 H 0.2191 0.27325 0.55862 0.0
H377 H 0.18718 0.24677 0.54743 0.0
H378 H 0.22545 0.28613 0.45386 0.0
H379 H 0.19332 0.25982 0.443 0.0
H380 H 0.12326 0.17495 0.38711 0.0
H381 H 0.06503 0.14034 0.43079 0.0
H382 H 0.07602 0.15541 0.48509 0.0
H383 H 0.13431 0.18974 0.44186 0.0
C384 C 0.79756 0.1312 0.61362 0.0
C385 C 0.81191 0.1124 0.60658 0.0
C386 C 0.81738 0.1056 0.6655 0.0
C387 C 0.82172 0.09968 0.63231 0.0
C388 C 0.80284 0.12441 0.67229 0.0
C389 C 0.79302 0.13707 0.64655 0.0
U390 U 0.79326 0.14681 0.52258 0.0
O391 O 0.76323 0.15663 0.49256 0.0
O392 O 0.7919 0.18082 0.49898 0.0
C393 C 0.77081 0.1777 0.48806 0.0
C394 C 0.7878 0.1452 0.5869 0.0
C395 C 0.75453 0.19619 0.49637 0.0
C396 C 0.72977 0.21579 0.53583 0.0
C397 C 0.74483 0.19776 0.52803 0.0
C398 C 0.73408 0.23085 0.48044 0.0
C399 C 0.72423 0.2326 0.51213 0.0
C400 C 0.74905 0.2128 0.47266 0.0
C401 C 0.83018 0.11282 0.46046 0.0
C402 C 0.8397 0.12469 0.40457 0.0
C403 C 0.84774 0.08571 0.42228 0.0
C404 C 0.8387 0.09079 0.45342 0.0
C405 C 0.84848 0.10263 0.39752 0.0
C406 C 0.83053 0.12972 0.43577 0.0
C407 C 0.82165 0.11782 0.49394 0.0
O408 O 0.80245 0.15906 0.57239 0.0
O409 O 0.77438 0.1342 0.56594 0.0
O410 O 0.79986 0.1131 0.49929 0.0
O411 O 0.82822 0.13754 0.50693 0.0
H412 H 0.81561 0.10767 0.58121 0.0
H413 H 0.83261 0.08516 0.62621 0.0
H414 H 0.7994 0.12966 0.69751 0.0
H415 H 0.78209 0.15164 0.65237 0.0
H416 H 0.72234 0.21643 0.56033 0.0
H417 H 0.74895 0.18508 0.5467 0.0
H418 H 0.73055 0.24367 0.46174 0.0
H419 H 0.75653 0.21194 0.44818 0.0
H420 H 0.83979 0.13801 0.38591 0.0
H421 H 0.8546 0.06865 0.41782 0.0
H422 H 0.83861 0.07755 0.47221 0.0
H423 H 0.82391 0.14683 0.44069 0.0
H424 H 0.10358 0.0908 0.98862 0.0
H425 H 0.13586 0.11727 0.99456 0.0
H426 H 0.13084 0.113 0.10065 0.0
H427 H 0.09821 0.08647 0.09507 0.0
H428 H 0.13761 0.1585 0.07594 0.0
H429 H 0.20064 0.09658 0.02393 0.0
H430 H 0.17592 0.10116 0.99804 0.0
H431 H 0.17245 0.08797 0.03784 0.0
C432 C 0.10919 0.09551 0.0133 0.0
C433 C 0.09838 0.08629 0.04139 0.0
C434 C 0.12776 0.11058 0.0166 0.0
C435 C 0.13603 0.11671 0.04801 0.0
C436 C 0.12481 0.1083 0.07617 0.0
H437 H 0.26949 0.18169 0.08141 0.0
H438 H 0.23622 0.1559 0.08261 0.0
C439 C 0.10617 0.09316 0.07292 0.0
C440 C 0.15656 0.13172 0.05117 0.0
H441 H 0.21327 0.13536 0.02997 0.0
C442 C 0.1542 0.15342 0.06611 0.0
C443 C 0.17826 0.12489 0.03875 0.0
C444 C 0.18211 0.1013 0.02401 0.0
C445 C 0.17283 0.1688 0.06799 0.0
C446 C 0.19424 0.16236 0.05417 0.0
C447 C 0.19677 0.14037 0.0402 0.0
C448 C 0.21424 0.17823 0.05376 0.0
C449 C 0.16947 0.19172 0.08494 0.0
C450 C 0.21304 0.19918 0.03669 0.0
C451 C 0.23199 0.214 0.03605 0.0
C452 C 0.25257 0.2081 0.05235 0.0
C453 C 0.2538 0.18692 0.06901 0.0
C454 C 0.23485 0.1721 0.0696 0.0
H455 H 0.15438 0.19151 0.10172 0.0
H456 H 0.18498 0.19663 0.09945 0.0
H457 H 0.16645 0.20515 0.06599 0.0
H458 H 0.19745 0.20404 0.02374 0.0
H459 H 0.23039 0.23024 0.0232 0.0
H460 H 0.91479 0.1048 0.07925 0.0
H461 H 0.88719 0.13667 0.08012 0.0
H462 H 0.87475 0.12737 0.9758 0.0
H463 H 0.90227 0.09563 0.97454 0.0
H464 H 0.89218 0.17745 0.03864 0.0
H465 H 0.80941 0.13182 0.01801 0.0
H466 H 0.83483 0.11756 0.03363 0.0
H467 H 0.8322 0.12378 0.99032 0.0
C468 C 0.90592 0.10928 0.05658 0.0
C469 C 0.91081 0.09771 0.02678 0.0
C470 C 0.89021 0.12752 0.05714 0.0
C471 C 0.87886 0.13422 0.02808 0.0
C472 C 0.88312 0.12225 0.99857 0.0
H473 H 0.78981 0.24054 0.95682 0.0
H474 H 0.8141 0.2069 0.96604 0.0
C475 C 0.89895 0.10417 0.9979 0.0
C476 C 0.86384 0.15478 0.02783 0.0
H477 H 0.80907 0.17248 0.0112 0.0
C478 C 0.87393 0.17642 0.03306 0.0
C479 C 0.84014 0.15327 0.02036 0.0
C480 C 0.82838 0.13036 0.01551 0.0
C481 C 0.86109 0.19676 0.0297 0.0
C482 C 0.83741 0.1953 0.02167 0.0
C483 C 0.82723 0.17357 0.01728 0.0
C484 C 0.82307 0.21607 0.01635 0.0
C485 C 0.87323 0.2196 0.03338 0.0
C486 C 0.81997 0.23239 0.04163 0.0
C487 C 0.80636 0.25189 0.03626 0.0
C488 C 0.79537 0.2553 0.0056 0.0
C489 C 0.79836 0.23874 0.98049 0.0
C490 C 0.81206 0.21936 0.98583 0.0
H491 H 0.8922 0.21777 0.03112 0.0
H492 H 0.86715 0.23203 0.01449 0.0
H493 H 0.8695 0.2269 0.05817 0.0
H494 H 0.82795 0.22999 0.06559 0.0
H495 H 0.80457 0.26434 0.05607 0.0
H496 H 0.90402 0.90597 0.98374 0.0
H497 H 0.8723 0.8786 0.98741 0.0
H498 H 0.86684 0.89179 0.09202 0.0
H499 H 0.89876 0.91931 0.08875 0.0
H500 H 0.86768 0.83782 0.03221 0.0
H501 H 0.8014 0.90617 0.04949 0.0
H502 H 0.82934 0.91228 0.03221 0.0
H503 H 0.82656 0.90682 0.07559 0.0
C504 C 0.89624 0.90299 0.00763 0.0
C505 C 0.90384 0.91499 0.03592 0.0
C506 C 0.87813 0.8873 0.00965 0.0
C507 C 0.86713 0.88342 0.03988 0.0
C508 C 0.87502 0.89478 0.06841 0.0
H509 H 0.73883 0.80627 0.06629 0.0
H510 H 0.7729 0.83 0.07689 0.0
C511 C 0.8933 0.91041 0.06649 0.0
C512 C 0.84697 0.86792 0.04093 0.0
H513 H 0.78829 0.86808 0.0444 0.0
C514 C 0.85032 0.84435 0.0352 0.0
C515 C 0.82441 0.87655 0.04501 0.0
C516 C 0.82 0.90184 0.05078 0.0
C517 C 0.83161 0.82916 0.03284 0.0
C518 C 0.80895 0.83794 0.03539 0.0
C519 C 0.80566 0.86141 0.04229 0.0
C520 C 0.78846 0.82328 0.0293 0.0
C521 C 0.83632 0.80387 0.02765 0.0
C522 C 0.78571 0.81195 0.99884 0.0
C523 C 0.76642 0.79823 0.99283 0.0
C524 C 0.74927 0.79575 0.01701 0.0
C525 C 0.75187 0.80749 0.04732 0.0
C526 C 0.77126 0.82116 0.05336 0.0
H527 H 0.85369 0.79905 0.03687 0.0
H528 H 0.82332 0.79306 0.04031 0.0
H529 H 0.83569 0.79991 0.0008 0.0
H530 H 0.79849 0.81378 0.97959 0.0
H531 H 0.76514 0.78929 0.96934 0.0
H532 H 0.09978 0.90698 0.98251 0.0
H533 H 0.12694 0.87496 0.98495 0.0
H534 H 0.11164 0.86547 0.08819 0.0
H535 H 0.08434 0.89763 0.08615 0.0
H536 H 0.16675 0.86728 0.03129 0.0
H537 H 0.0963 0.80246 0.0391 0.0
H538 H 0.09134 0.83131 0.02423 0.0
H539 H 0.09577 0.8264 0.06751 0.0
C540 C 0.10232 0.89828 0.00587 0.0
C541 C 0.08971 0.90474 0.03407 0.0
C542 C 0.11788 0.88001 0.0072 0.0
C543 C 0.12102 0.86775 0.03661 0.0
C544 C 0.10921 0.87464 0.06518 0.0
H545 H 0.19363 0.73659 0.05842 0.0
H546 H 0.17062 0.77103 0.06952 0.0
C547 C 0.09372 0.89307 0.06397 0.0
C548 C 0.13594 0.84715 0.03668 0.0
H549 H 0.13411 0.78844 0.0356 0.0
C550 C 0.1597 0.85002 0.03252 0.0
C551 C 0.12661 0.82473 0.03844 0.0
C552 C 0.1011 0.82084 0.0424 0.0
C553 C 0.17442 0.83097 0.02963 0.0
C554 C 0.16498 0.80851 0.02998 0.0
C555 C 0.14129 0.80566 0.03518 0.0
C556 C 0.17923 0.7878 0.02354 0.0
C557 C 0.19994 0.83512 0.02633 0.0
C558 C 0.19137 0.78563 0.99377 0.0
C559 C 0.20471 0.76612 0.9875 0.0
C560 C 0.20596 0.74819 0.0107 0.0
C561 C 0.19337 0.75022 0.04025 0.0
C562 C 0.1801 0.76983 0.04657 0.0
H563 H 0.20498 0.85204 0.03699 0.0
H564 H 0.21005 0.82142 0.03877 0.0
H565 H 0.20457 0.8352 0.99974 0.0
H566 H 0.19049 0.79903 0.97528 0.0
H567 H 0.21432 0.76526 0.96464 0.0
H568 H 0.59811 0.59122 0.58701 0.0
H569 H 0.62983 0.61869 0.59272 0.0
H570 H 0.63263 0.62579 0.48676 0.0
H571 H 0.60117 0.59831 0.48069 0.0
H572 H 0.67514 0.61551 0.51605 0.0
H573 H 0.63222 0.68896 0.57912 0.0
H574 H 0.62822 0.66138 0.59825 0.0
H575 H 0.61634 0.66659 0.55793 0.0
C576 C 0.60522 0.59888 0.56493 0.0
C577 C 0.59713 0.59244 0.53337 0.0
C578 C 0.62331 0.61465 0.56826 0.0
C579 C 0.6335 0.62435 0.54015 0.0
C580 C 0.62501 0.61849 0.50875 0.0
H581 H 0.73292 0.73461 0.52269 0.0
H582 H 0.69909 0.70957 0.51992 0.0
C583 C 0.60697 0.60279 0.50538 0.0
C584 C 0.65399 0.63943 0.54312 0.0
H585 H 0.67277 0.69108 0.57345 0.0
C586 C 0.67463 0.63204 0.5286 0.0
C587 C 0.65321 0.66103 0.55931 0.0
C588 C 0.63129 0.67014 0.57434 0.0
C589 C 0.69457 0.64563 0.52992 0.0
C590 C 0.69391 0.66707 0.54655 0.0
C591 C 0.67324 0.67455 0.56092 0.0
C592 C 0.7144 0.68218 0.54861 0.0
C593 C 0.71608 0.63714 0.51296 0.0
C594 C 0.73415 0.67512 0.56585 0.0
C595 C 0.75354 0.68933 0.56734 0.0
C596 C 0.75353 0.7109 0.55164 0.0
C597 C 0.73362 0.71797 0.53461 0.0
C598 C 0.71421 0.70377 0.53323 0.0
H599 H 0.71234 0.62299 0.49518 0.0
H600 H 0.72469 0.65135 0.49954 0.0
H601 H 0.72827 0.63051 0.53182 0.0
H602 H 0.73454 0.65862 0.57821 0.0
H603 H 0.76864 0.68332 0.58048 0.0
H604 H 0.4145 0.6056 0.48276 0.0
H605 H 0.3881 0.63805 0.48667 0.0
H606 H 0.38835 0.63267 0.59292 0.0
H607 H 0.41492 0.59988 0.58938 0.0
H608 H 0.34348 0.63915 0.56295 0.0
H609 H 0.40739 0.70298 0.51954 0.0
H610 H 0.40481 0.6782 0.4931 0.0
H611 H 0.41548 0.67488 0.53458 0.0
C612 C 0.40895 0.61117 0.50705 0.0
C613 C 0.41703 0.60018 0.5358 0.0
C614 C 0.39392 0.62984 0.5092 0.0
C615 C 0.38664 0.63802 0.54008 0.0
C616 C 0.39396 0.6267 0.56885 0.0
H617 H 0.31569 0.77111 0.55339 0.0
H618 H 0.3418 0.73893 0.56473 0.0
C619 C 0.40912 0.60797 0.56676 0.0
C620 C 0.37139 0.65845 0.54189 0.0
H621 H 0.36802 0.71483 0.51888 0.0
C622 C 0.34889 0.65578 0.5537 0.0
C623 C 0.37862 0.68021 0.53029 0.0
C624 C 0.40297 0.68438 0.51895 0.0
C625 C 0.33306 0.67406 0.55271 0.0
C626 C 0.33989 0.69542 0.53919 0.0
C627 C 0.36272 0.69838 0.5289 0.0
C628 C 0.32337 0.71456 0.53394 0.0
C629 C 0.30912 0.67031 0.56591 0.0
C630 C 0.30447 0.71157 0.5127 0.0
C631 C 0.28954 0.72988 0.50621 0.0
C632 C 0.29327 0.75161 0.52071 0.0
C633 C 0.31219 0.75453 0.54213 0.0
C634 C 0.32717 0.7362 0.54853 0.0
H635 H 0.30866 0.65591 0.5839 0.0
H636 H 0.30244 0.6861 0.57812 0.0
H637 H 0.29743 0.66585 0.5451 0.0
H638 H 0.30146 0.69516 0.50065 0.0
H639 H 0.27503 0.72698 0.48985 0.0
H640 H 0.39796 0.41547 0.58062 0.0
H641 H 0.3663 0.38774 0.58315 0.0
H642 H 0.36908 0.37908 0.47733 0.0
H643 H 0.4007 0.40661 0.47444 0.0
H644 H 0.32339 0.39286 0.55041 0.0
H645 H 0.3678 0.31256 0.51238 0.0
H646 H 0.38311 0.3377 0.52697 0.0
H647 H 0.3727 0.33636 0.48511 0.0
C648 C 0.39206 0.40744 0.55791 0.0
C649 C 0.40185 0.41332 0.5273 0.0
C650 C 0.37395 0.39164 0.55943 0.0
C651 C 0.36552 0.38124 0.53047 0.0
C652 C 0.37559 0.38664 0.50002 0.0
H653 H 0.23428 0.32356 0.47938 0.0
H654 H 0.26828 0.34765 0.48832 0.0
C655 C 0.39361 0.40249 0.49843 0.0
C656 C 0.34523 0.36589 0.53161 0.0
H657 H 0.32669 0.31205 0.51055 0.0
C658 C 0.32413 0.37511 0.54205 0.0
C659 C 0.34632 0.3427 0.52101 0.0
C660 C 0.36874 0.33163 0.51102 0.0
C661 C 0.30388 0.36197 0.54097 0.0
C662 C 0.30478 0.33915 0.52878 0.0
C663 C 0.32603 0.32965 0.51957 0.0
C664 C 0.28378 0.32502 0.52446 0.0
C665 C 0.28169 0.37264 0.55275 0.0
C666 C 0.28142 0.30418 0.54146 0.0
C667 C 0.2621 0.2903 0.53623 0.0
C668 C 0.24489 0.29694 0.51365 0.0
C669 C 0.2473 0.3179 0.49675 0.0
C670 C 0.26659 0.33179 0.50209 0.0
H671 H 0.28488 0.3876 0.56936 0.0
H672 H 0.27173 0.37882 0.53108 0.0
H673 H 0.271 0.35986 0.56607 0.0
H674 H 0.29461 0.29858 0.55862 0.0
H675 H 0.2609 0.27411 0.54928 0.0
H676 H 0.58763 0.39579 0.48615 0.0
H677 H 0.61612 0.36547 0.49141 0.0
H678 H 0.61846 0.37606 0.59697 0.0
H679 H 0.58926 0.40645 0.59206 0.0
H680 H 0.66013 0.3669 0.51518 0.0
H681 H 0.60651 0.3069 0.58937 0.0
H682 H 0.59448 0.33174 0.56898 0.0
H683 H 0.61084 0.3352 0.60641 0.0
C684 C 0.59413 0.39181 0.51059 0.0
C685 C 0.58597 0.40353 0.53873 0.0
C686 C 0.6105 0.37442 0.51351 0.0
C687 C 0.61922 0.36824 0.54458 0.0
C688 C 0.61163 0.38022 0.57279 0.0
H689 H 0.72165 0.25737 0.57011 0.0
H690 H 0.69688 0.29051 0.58223 0.0
C691 C 0.59507 0.39769 0.56991 0.0
C692 C 0.63618 0.34917 0.54663 0.0
H693 H 0.64288 0.29357 0.57241 0.0
C694 C 0.65647 0.35098 0.52806 0.0
C695 C 0.63139 0.32838 0.56343 0.0
C696 C 0.60957 0.32523 0.58302 0.0
C697 C 0.67165 0.33235 0.52485 0.0
C698 C 0.66641 0.31134 0.54054 0.0
C699 C 0.64674 0.30976 0.5604 0.0
C700 C 0.68032 0.29045 0.53432 0.0
C701 C 0.69293 0.33497 0.50394 0.0
C702 C 0.67881 0.27926 0.50363 0.0
C703 C 0.69271 0.26024 0.49671 0.0
C704 C 0.70851 0.25206 0.52034 0.0
C705 C 0.70955 0.26304 0.55144 0.0
C706 C 0.69551 0.28204 0.5584 0.0
H707 H 0.6968 0.35332 0.49867 0.0
H708 H 0.70804 0.32709 0.5164 0.0
H709 H 0.69031 0.32587 0.48004 0.0
H710 H 0.66699 0.28541 0.48487 0.0
H711 H 0.69107 0.25196 0.47279 0.0
H712 H 0.0509 0.05946 0.11852 0.0
H713 H 0.06987 0.07322 0.16896 0.0
H714 H 0.00384 0.09154 0.20966 0.0
H715 H 0.98485 0.07754 0.15988 0.0
H716 H 0.06835 0.11769 0.19642 0.0
H717 H 0.03271 0.0538 0.28354 0.0
H718 H 0.03194 0.04971 0.23928 0.0
H719 H 0.01083 0.0676 0.25931 0.0
C720 C 0.04043 0.06618 0.13823 0.0
C721 C 0.01638 0.0673 0.13499 0.0
C722 C 0.05129 0.0741 0.16706 0.0
C723 C 0.03822 0.08306 0.19323 0.0
C724 C 0.01423 0.08424 0.19005 0.0
H725 H 0.05023 0.15309 0.37761 0.0
H726 H 0.03924 0.13485 0.32536 0.0
C727 C 0.00343 0.07638 0.16136 0.0
C728 C 0.04943 0.09214 0.2235 0.0
H729 H 0.04824 0.08829 0.30761 0.0
C730 C 0.0643 0.11107 0.22074 0.0
C731 C 0.04409 0.08341 0.25514 0.0
C732 C 0.0292 0.06237 0.25954 0.0
C733 C 0.07302 0.12227 0.24896 0.0
C734 C 0.06689 0.11409 0.28061 0.0
C735 C 0.05274 0.09463 0.28329 0.0
C736 C 0.07404 0.12602 0.31137 0.0
C737 C 0.08786 0.14336 0.24478 0.0
C738 C 0.09728 0.12715 0.32072 0.0
C739 C 0.10363 0.13752 0.35067 0.0
C740 C 0.0868 0.14677 0.37185 0.0
C741 C 0.06357 0.14586 0.36209 0.0
C742 C 0.05727 0.13553 0.3322 0.0
H743 H 0.08731 0.14999 0.21907 0.0
H744 H 0.08232 0.15727 0.2619 0.0
H745 H 0.10596 0.13896 0.25081 0.0
H746 H 0.11045 0.11956 0.30523 0.0
H747 H 0.12162 0.13766 0.3577 0.0
H748 H 0.92706 0.05405 0.10316 0.0
H749 H 0.91408 0.07637 0.15112 0.0
H750 H 0.93553 0.0213 0.2154 0.0
H751 H 0.94899 0.99931 0.16755 0.0
H752 H 0.87979 0.06108 0.19365 0.0
H753 H 0.96012 0.07889 0.26319 0.0
H754 H 0.95995 0.07094 0.21996 0.0
H755 H 0.95726 0.04923 0.25126 0.0
C756 C 0.9298 0.04717 0.12754 0.0
C757 C 0.93941 0.0252 0.1316 0.0
C758 C 0.92215 0.05978 0.15493 0.0
C759 C 0.92417 0.05065 0.1869 0.0
C760 C 0.93426 0.02891 0.19106 0.0
H761 H 0.8426 0.06367 0.36028 0.0
H762 H 0.86097 0.05384 0.30783 0.0
C763 C 0.94176 0.01629 0.16368 0.0
C764 C 0.91359 0.06256 0.21555 0.0
H765 H 0.9248 0.08162 0.29393 0.0
C766 C 0.88967 0.06591 0.21539 0.0
C767 C 0.92653 0.06909 0.24373 0.0
C768 C 0.95242 0.06709 0.24452 0.0
C769 C 0.87819 0.07452 0.2433 0.0
C770 C 0.89094 0.07961 0.27226 0.0
C771 C 0.91501 0.07742 0.27184 0.0
C772 C 0.87947 0.08602 0.30369 0.0
C773 C 0.85246 0.07781 0.24167 0.0
C774 C 0.88404 0.10723 0.31905 0.0
C775 C 0.87365 0.11286 0.34921 0.0
C776 C 0.8587 0.09723 0.36471 0.0
C777 C 0.85415 0.07601 0.34914 0.0
C778 C 0.86447 0.07046 0.319 0.0
H779 H 0.84637 0.07968 0.21575 0.0
H780 H 0.84387 0.0625 0.25235 0.0
H781 H 0.84705 0.0932 0.25603 0.0
H782 H 0.8957 0.11941 0.30775 0.0
H783 H 0.87773 0.12921 0.36076 0.0
H784 H 0.94688 0.94495 0.11534 0.0
H785 H 0.9251 0.92838 0.16093 0.0
H786 H 0.98825 0.90404 0.20474 0.0
H787 H 0.01008 0.92057 0.15938 0.0
H788 H 0.92426 0.88153 0.17961 0.0
H789 H 0.95627 0.93683 0.28186 0.0
H790 H 0.95934 0.94453 0.23889 0.0
H791 H 0.97878 0.92423 0.25747 0.0
C792 C 0.95616 0.93622 0.13459 0.0
C793 C 0.98022 0.93406 0.13334 0.0
C794 C 0.94367 0.92675 0.16075 0.0
C795 C 0.95509 0.91521 0.18641 0.0
C796 C 0.97911 0.91323 0.18549 0.0
H797 H 0.92416 0.83416 0.35745 0.0
H798 H 0.94121 0.85564 0.31182 0.0
C799 C 0.99154 0.92259 0.15933 0.0
C800 C 0.94195 0.90418 0.21338 0.0
H801 H 0.93679 0.90236 0.29736 0.0
C802 C 0.92675 0.88623 0.20535 0.0
C803 C 0.9453 0.91037 0.24689 0.0
C804 C 0.96064 0.93019 0.25686 0.0
C805 C 0.91549 0.87366 0.23007 0.0
C806 C 0.91925 0.87951 0.26365 0.0
C807 C 0.93403 0.89784 0.27161 0.0
C808 C 0.90861 0.86639 0.29101 0.0
C809 C 0.90039 0.85365 0.22009 0.0
C810 C 0.88462 0.86543 0.29457 0.0
C811 C 0.87481 0.85317 0.32067 0.0
C812 C 0.88884 0.84181 0.34386 0.0
C813 C 0.91288 0.84291 0.34024 0.0
C814 C 0.92265 0.85511 0.31412 0.0
H815 H 0.90362 0.84809 0.19421 0.0
H816 H 0.90319 0.83873 0.23669 0.0
H817 H 0.88208 0.85887 0.22199 0.0
H818 H 0.87348 0.87441 0.27741 0.0
H819 H 0.85626 0.85298 0.32307 0.0
H820 H 0.07367 0.95026 0.10698 0.0
H821 H 0.08768 0.92864 0.15484 0.0
H822 H 0.06378 0.98279 0.21943 0.0
H823 H 0.04925 0.00405 0.1716 0.0
H824 H 0.12128 0.94576 0.19823 0.0
H825 H 0.04145 0.92384 0.26578 0.0
H826 H 0.0415 0.93169 0.2226 0.0
H827 H 0.04315 0.95357 0.25407 0.0
C828 C 0.07055 0.95701 0.1314 0.0
C829 C 0.05989 0.97848 0.13559 0.0
C830 C 0.07884 0.94484 0.15874 0.0
C831 C 0.07645 0.95394 0.19074 0.0
C832 C 0.06537 0.9752 0.19503 0.0
H833 H 0.15749 0.9407 0.36615 0.0
H834 H 0.13933 0.95126 0.31377 0.0
C835 C 0.05722 0.98739 0.16769 0.0
C836 C 0.08747 0.94245 0.21936 0.0
H837 H 0.07671 0.92164 0.29658 0.0
C838 C 0.11152 0.9402 0.21957 0.0
C839 C 0.07469 0.93499 0.24699 0.0
C840 C 0.04875 0.93591 0.24734 0.0
C841 C 0.12322 0.93162 0.24731 0.0
C842 C 0.11055 0.92541 0.27569 0.0
C843 C 0.08642 0.92666 0.27492 0.0
C844 C 0.12208 0.91857 0.3069 0.0
C845 C 0.14908 0.92945 0.24609 0.0
C846 C 0.11816 0.8968 0.32066 0.0
C847 C 0.12844 0.89075 0.35073 0.0
C848 C 0.14261 0.90649 0.36778 0.0
C849 C 0.14655 0.92825 0.35378 0.0
C850 C 0.13636 0.93423 0.32369 0.0
H851 H 0.15542 0.92856 0.22023 0.0
H852 H 0.15695 0.94477 0.25806 0.0
H853 H 0.15503 0.9139 0.25951 0.0
H854 H 0.10707 0.88453 0.30818 0.0
H855 H 0.12482 0.87398 0.36106 0.0
H856 H 0.07268 0.01855 0.88688 0.0
H857 H 0.08785 1.00027 0.8369 0.0
H858 H 0.0893 0.93477 0.8866 0.0
H859 H 0.07405 0.95282 0.93661 0.0
H860 H 0.13032 0.97752 0.83345 0.0
H861 H 0.05877 0.9192 0.79758 0.0
H862 H 0.05496 0.94314 0.82566 0.0
H863 H 0.06761 0.91677 0.84 0.0
C864 C 0.07595 1.0002 0.88707 0.0
C865 C 0.07223 0.98715 0.91578 0.0
C866 C 0.08462 0.98979 0.85849 0.0
C867 C 0.08948 0.96614 0.85795 0.0
C868 C 0.08528 0.95297 0.88629 0.0
H869 H 0.15782 0.871 0.72653 0.0
H870 H 0.13733 0.89029 0.77151 0.0
C871 C 0.07669 0.96336 0.91493 0.0
C872 C 0.10063 0.95559 0.82868 0.0
H873 H 0.0947 0.91321 0.77055 0.0
C874 C 0.12246 0.9636 0.81946 0.0
C875 C 0.09034 0.93739 0.81065 0.0
C876 C 0.06654 0.92871 0.81872 0.0
C877 C 0.13459 0.95348 0.79323 0.0
C878 C 0.12441 0.93513 0.77534 0.0
C879 C 0.10246 0.92727 0.78433 0.0
C880 C 0.13653 0.92354 0.74769 0.0
C881 C 0.15851 0.96203 0.78558 0.0
C882 C 0.14268 0.9358 0.71923 0.0
C883 C 0.15459 0.92488 0.69359 0.0
C884 C 0.16046 0.90144 0.69585 0.0
C885 C 0.15393 0.88915 0.72422 0.0
C886 C 0.14204 0.90009 0.74983 0.0
H887 H 0.16591 0.97213 0.80643 0.0
H888 H 0.17024 0.94747 0.77991 0.0
H889 H 0.15778 0.97338 0.76361 0.0
H890 H 0.13828 0.95383 0.71685 0.0
H891 H 0.15946 0.93488 0.6722 0.0
H892 H 0.04932 0.06879 0.92924 0.0
H893 H 0.06787 0.08692 0.88176 0.0
H894 H 0.00168 0.09606 0.83517 0.0
H895 H 0.98293 0.07816 0.88255 0.0
H896 H 0.06659 0.0759 0.81269 0.0
H897 H 0.02874 0.1617 0.84008 0.0
H898 H 0.02888 0.13857 0.86973 0.0
H899 H 0.00825 0.13867 0.83655 0.0
C900 C 0.0387 0.07452 0.90881 0.0
C901 C 0.01461 0.07228 0.90984 0.0
C902 C 0.04934 0.08485 0.88171 0.0
C903 C 0.03608 0.0932 0.85532 0.0
C904 C 0.01215 0.09013 0.85564 0.0
H905 H 0.06638 0.17034 0.67777 0.0
H906 H 0.04821 0.14849 0.72219 0.0
C907 C 0.00149 0.0798 0.88267 0.0
C908 C 0.0472 0.10566 0.82785 0.0
H909 H 0.04956 0.15807 0.79017 0.0
C910 C 0.06295 0.09387 0.80777 0.0
C911 C 0.04238 0.12912 0.8216 0.0
C912 C 0.0263 0.14287 0.84326 0.0
C913 C 0.07375 0.10485 0.78113 0.0
C914 C 0.06892 0.1283 0.7749 0.0
C915 C 0.05317 0.14007 0.795 0.0
C916 C 0.08011 0.14105 0.74773 0.0
C917 C 0.08987 0.09114 0.75949 0.0
C918 C 0.10402 0.14434 0.74764 0.0
C919 C 0.11446 0.15674 0.72225 0.0
C920 C 0.10114 0.16617 0.69655 0.0
C921 C 0.07715 0.16302 0.69693 0.0
C922 C 0.06673 0.15065 0.72236 0.0
H923 H 0.08723 0.07232 0.76233 0.0
H924 H 0.08754 0.0957 0.73306 0.0
H925 H 0.1079 0.09513 0.76658 0.0
H926 H 0.1146 0.13744 0.76734 0.0
H927 H 0.13299 0.1587 0.72254 0.0
H928 H 0.93946 0.99907 0.88677 0.0
H929 H 0.92386 0.01884 0.8382 0.0
H930 H 0.8594 0.02875 0.88882 0.0
H931 H 0.87486 0.00939 0.93747 0.0
H932 H 0.88536 0.0075 0.79978 0.0
H933 H 0.87498 0.09357 0.85755 0.0
H934 H 0.89217 0.07114 0.87603 0.0
H935 H 0.86137 0.07092 0.88031 0.0
C936 C 0.92201 0.00558 0.88762 0.0
C937 C 0.90845 0.00278 0.91608 0.0
C938 C 0.91312 0.01683 0.85984 0.0
C939 C 0.89061 0.0256 0.86013 0.0
C940 C 0.87698 0.02258 0.88834 0.0
H941 H 0.79802 0.0927 0.72426 0.0
H942 H 0.81652 0.07278 0.77038 0.0
C943 C 0.88583 0.01137 0.91608 0.0
C944 C 0.88107 0.03742 0.83073 0.0
H945 H 0.85651 0.08779 0.80548 0.0
C946 C 0.87924 0.02512 0.80089 0.0
C947 C 0.87312 0.06042 0.83229 0.0
C948 C 0.87569 0.07488 0.86317 0.0
C949 C 0.86899 0.03499 0.77281 0.0
C950 C 0.86066 0.05782 0.7746 0.0
C951 C 0.8628 0.07023 0.80428 0.0
C952 C 0.84943 0.06918 0.74607 0.0
C953 C 0.86656 0.02071 0.74176 0.0
C954 C 0.86185 0.07382 0.71718 0.0
C955 C 0.85137 0.08536 0.69085 0.0
C956 C 0.82829 0.09255 0.69298 0.0
C957 C 0.81589 0.08769 0.72194 0.0
C958 C 0.82639 0.0762 0.74826 0.0
H959 H 0.86916 0.00207 0.74661 0.0
H960 H 0.84931 0.02317 0.73043 0.0
H961 H 0.87966 0.02626 0.72357 0.0
H962 H 0.87978 0.06893 0.71526 0.0
H963 H 0.86154 0.08916 0.66916 0.0
H964 H 0.02659 0.93068 0.88142 0.0
H965 H 0.01166 0.91559 0.82906 0.0
H966 H 0.94287 0.91621 0.86871 0.0
H967 H 0.95755 0.93153 0.92104 0.0
H968 H 0.98785 0.87388 0.82093 0.0
H969 H 0.93495 0.94791 0.7791 0.0
H970 H 0.95663 0.95056 0.81097 0.0
H971 H 0.92897 0.93847 0.8204 0.0
C972 C 0.00824 0.92786 0.87891 0.0
C973 C 0.99325 0.93226 0.90545 0.0
C974 C 0.99976 0.9192 0.84898 0.0
C975 C 0.97615 0.91498 0.84492 0.0
C976 C 0.9611 0.91972 0.87114 0.0
H977 H 0.89241 0.85603 0.6878 0.0
H978 H 0.90693 0.8719 0.73997 0.0
C979 C 0.96955 0.92837 0.9011 0.0
C980 C 0.96744 0.90441 0.81393 0.0
H981 H 0.93076 0.91296 0.74904 0.0
C982 C 0.97546 0.88245 0.80508 0.0
C983 C 0.95117 0.9156 0.79349 0.0
C984 C 0.94254 0.93952 0.80123 0.0
C985 C 0.96739 0.8712 0.77655 0.0
C986 C 0.9512 0.88243 0.756 0.0
C987 C 0.94314 0.90438 0.76488 0.0
C988 C 0.94262 0.87184 0.72491 0.0
C989 C 0.97589 0.8472 0.76907 0.0
C990 C 0.95787 0.86656 0.69916 0.0
C991 C 0.94966 0.8573 0.66945 0.0
C992 C 0.92599 0.85332 0.66478 0.0
C993 C 0.91077 0.85855 0.69073 0.0
C994 C 0.91901 0.8678 0.72046 0.0
H995 H 0.98303 0.83874 0.79145 0.0
H996 H 0.96186 0.83628 0.75887 0.0
H997 H 0.9898 0.84813 0.7504 0.0
H998 H 0.97611 0.8699 0.70185 0.0
H999 H 0.96187 0.8533 0.65009 0.0
H1000 H 0.49302 0.56768 0.66636 0.0
H1001 H 0.51445 0.58279 0.71355 0.0
H1002 H 0.57787 0.57555 0.65955 0.0
H1003 H 0.55648 0.56016 0.6121 0.0
H1004 H 0.55467 0.56114 0.74863 0.0
H1005 H 0.5721 0.64597 0.6898 0.0
H1006 H 0.54907 0.62746 0.67575 0.0
H1007 H 0.57834 0.62007 0.66685 0.0
C1008 C 0.51155 0.56916 0.6644 0.0
C1009 C 0.52302 0.5629 0.63511 0.0
C1010 C 0.52375 0.57776 0.69149 0.0
C1011 C 0.54766 0.58047 0.68986 0.0
C1012 C 0.55935 0.57375 0.66111 0.0
H1013 H 0.62724 0.62456 0.86445 0.0
H1014 H 0.61714 0.60611 0.8117 0.0
C1015 C 0.54711 0.56492 0.63399 0.0
C1016 C 0.55996 0.59094 0.71822 0.0
H1017 H 0.58281 0.64174 0.74558 0.0
C1018 C 0.5612 0.57861 0.7479 0.0
C1019 C 0.56821 0.61381 0.71708 0.0
C1020 C 0.56687 0.62778 0.68578 0.0
C1021 C 0.57 0.58879 0.77682 0.0
C1022 C 0.57768 0.61186 0.77591 0.0
C1023 C 0.57697 0.62402 0.74604 0.0
C1024 C 0.58479 0.62412 0.80638 0.0
C1025 C 0.57014 0.57521 0.80853 0.0
C1026 C 0.57012 0.64064 0.82036 0.0
C1027 C 0.5758 0.65116 0.85042 0.0
C1028 C 0.59636 0.64547 0.86688 0.0
C1029 C 0.61137 0.62942 0.85223 0.0
C1030 C 0.60559 0.61878 0.82225 0.0
H1031 H 0.56126 0.55837 0.80583 0.0
H1032 H 0.58819 0.57197 0.81625 0.0
H1033 H 0.56169 0.5852 0.82856 0.0
H1034 H 0.55401 0.645 0.80837 0.0
H1035 H 0.56403 0.66365 0.8609 0.0
H1036 H 0.44173 0.5538 0.61489 0.0
H1037 H 0.42836 0.57384 0.66462 0.0
H1038 H 0.41204 0.5086 0.70918 0.0
H1039 H 0.42539 0.48855 0.65993 0.0
H1040 H 0.38294 0.57042 0.69368 0.0
H1041 H 0.45165 0.54212 0.77966 0.0
H1042 H 0.45486 0.54123 0.73526 0.0
H1043 H 0.43916 0.51897 0.75616 0.0
C1044 C 0.43549 0.54374 0.63526 0.0
C1045 C 0.43468 0.51959 0.63324 0.0
C1046 C 0.42781 0.55521 0.66368 0.0
C1047 C 0.4195 0.54266 0.69068 0.0
C1048 C 0.41875 0.51859 0.68881 0.0
H1049 H 0.35291 0.55345 0.87591 0.0
H1050 H 0.37133 0.54324 0.82367 0.0
C1051 C 0.42627 0.50718 0.66046 0.0
C1052 C 0.41064 0.55443 0.72054 0.0
H1053 H 0.41692 0.55612 0.80438 0.0
C1054 C 0.39054 0.5677 0.71787 0.0
C1055 C 0.42069 0.55083 0.75195 0.0
C1056 C 0.44292 0.5377 0.75601 0.0
C1057 C 0.37945 0.57635 0.74614 0.0
C1058 C 0.38894 0.5718 0.77767 0.0
C1059 C 0.4096 0.5594 0.78016 0.0
C1060 C 0.37706 0.57844 0.80858 0.0
C1061 C 0.35711 0.58929 0.74222 0.0
C1062 C 0.37413 0.60165 0.81733 0.0
C1063 C 0.36368 0.60756 0.84731 0.0
C1064 C 0.35611 0.59034 0.8691 0.0
C1065 C 0.35884 0.56712 0.85994 0.0
C1066 C 0.36927 0.56126 0.83005 0.0
H1067 H 0.35008 0.58788 0.71672 0.0
H1068 H 0.34405 0.58276 0.75983 0.0
H1069 H 0.36002 0.60777 0.74782 0.0
H1070 H 0.38036 0.61516 0.8013 0.0
H1071 H 0.36212 0.62559 0.85384 0.0
H1072 H 0.44586 0.4299 0.60215 0.0
H1073 H 0.42409 0.41452 0.64864 0.0
H1074 H 0.48122 0.42931 0.71364 0.0
H1075 H 0.50289 0.44482 0.66703 0.0
H1076 H 0.46649 0.38484 0.71809 0.0
H1077 H 0.39209 0.4443 0.72768 0.0
H1078 H 0.3965 0.43286 0.68688 0.0
H1079 H 0.41785 0.45143 0.70506 0.0
C1080 C 0.45337 0.43069 0.62645 0.0
C1081 C 0.47584 0.43895 0.6309 0.0
C1082 C 0.44099 0.42176 0.65309 0.0
C1083 C 0.4509 0.42105 0.68477 0.0
C1084 C 0.47318 0.42979 0.68945 0.0
H1085 H 0.38537 0.38023 0.86852 0.0
H1086 H 0.40391 0.40127 0.82362 0.0
C1087 C 0.48554 0.43863 0.66279 0.0
C1088 C 0.43895 0.40931 0.71233 0.0
H1089 H 0.38969 0.40932 0.7582 0.0
C1090 C 0.44975 0.39027 0.72697 0.0
C1091 C 0.4172 0.41653 0.72406 0.0
C1092 C 0.40529 0.43753 0.71036 0.0
C1093 C 0.43927 0.37804 0.75267 0.0
C1094 C 0.41717 0.38474 0.76365 0.0
C1095 C 0.40651 0.40404 0.74945 0.0
C1096 C 0.40509 0.37211 0.79026 0.0
C1097 C 0.45214 0.35824 0.76819 0.0
C1098 C 0.39926 0.34882 0.78619 0.0
C1099 C 0.38884 0.33669 0.8119 0.0
C1100 C 0.38393 0.34765 0.84215 0.0
C1101 C 0.38927 0.37115 0.84578 0.0
C1102 C 0.3997 0.38327 0.82006 0.0
H1103 H 0.47088 0.35908 0.76297 0.0
H1104 H 0.44965 0.35801 0.79539 0.0
H1105 H 0.44549 0.34179 0.7579 0.0
H1106 H 0.40296 0.33997 0.7632 0.0
H1107 H 0.38508 0.31859 0.8083 0.0
H1108 H 0.60601 0.49587 0.61268 0.0
H1109 H 0.62596 0.47506 0.65678 0.0
H1110 H 0.56313 0.43909 0.67982 0.0
H1111 H 0.5433 0.45996 0.63581 0.0
H1112 H 0.61426 0.47929 0.72085 0.0
H1113 H 0.6099 0.38725 0.68482 0.0
H1114 H 0.60503 0.41027 0.65576 0.0
H1115 H 0.58249 0.40146 0.68332 0.0
C1116 C 0.59664 0.48308 0.62667 0.0
C1117 C 0.57321 0.47906 0.62038 0.0
C1118 C 0.60804 0.47121 0.65179 0.0
C1119 C 0.59617 0.45521 0.67126 0.0
C1120 C 0.57287 0.45076 0.66444 0.0
H1121 H 0.61545 0.39714 0.86432 0.0
H1122 H 0.60181 0.40854 0.8094 0.0
C1123 C 0.56152 0.46257 0.63913 0.0
C1124 C 0.60731 0.44549 0.70113 0.0
H1125 H 0.61923 0.39533 0.74154 0.0
C1126 C 0.61564 0.46092 0.72514 0.0
C1127 C 0.60897 0.42152 0.70675 0.0
C1128 C 0.60133 0.40415 0.68116 0.0
C1129 C 0.62501 0.45309 0.755 0.0
C1130 C 0.62626 0.42918 0.76091 0.0
C1131 C 0.61821 0.41366 0.73683 0.0
C1132 C 0.63511 0.42021 0.79266 0.0
C1133 C 0.63288 0.47045 0.7805 0.0
C1134 C 0.65841 0.42263 0.80108 0.0
C1135 C 0.66624 0.41622 0.83243 0.0
C1136 C 0.65084 0.40735 0.85591 0.0
C1137 C 0.62764 0.40424 0.84693 0.0
C1138 C 0.61987 0.41055 0.81552 0.0
H1139 H 0.62719 0.4882 0.7744 0.0
H1140 H 0.62619 0.4659 0.80532 0.0
H1141 H 0.65195 0.47034 0.78186 0.0
H1142 H 0.67043 0.42999 0.78364 0.0
H1143 H 0.68418 0.41894 0.83867 0.0
H1144 H 0.60083 0.46472 0.43877 0.0
H1145 H 0.61792 0.44722 0.3896 0.0
H1146 H 0.58937 0.50125 0.32927 0.0
H1147 H 0.57248 0.51912 0.37842 0.0
H1148 H 0.59743 0.43103 0.33198 0.0
H1149 H 0.65782 0.50272 0.30579 0.0
H1150 H 0.64278 0.50019 0.34457 0.0
H1151 H 0.62815 0.51111 0.3087 0.0
C1152 C 0.59816 0.4729 0.41506 0.0
C1153 C 0.58545 0.49342 0.41256 0.0
C1154 C 0.60792 0.46286 0.38698 0.0
C1155 C 0.60523 0.47315 0.3559 0.0
C1156 C 0.59205 0.4933 0.35314 0.0
H1157 H 0.6368 0.40681 0.16766 0.0
H1158 H 0.61768 0.42596 0.21402 0.0
C1159 C 0.5823 0.5034 0.38123 0.0
C1160 C 0.61624 0.46268 0.32646 0.0
H1161 H 0.65608 0.47255 0.26628 0.0
C1162 C 0.61023 0.4401 0.31756 0.0
C1163 C 0.63314 0.47449 0.30799 0.0
C1164 C 0.64106 0.49839 0.31733 0.0
C1165 C 0.62059 0.429 0.29055 0.0
C1166 C 0.63713 0.44098 0.27166 0.0
C1167 C 0.64324 0.46352 0.28066 0.0
C1168 C 0.64876 0.43015 0.24301 0.0
C1169 C 0.61414 0.40438 0.28292 0.0
C1170 C 0.67266 0.42679 0.24355 0.0
C1171 C 0.68368 0.41608 0.21696 0.0
C1172 C 0.671 0.40863 0.18923 0.0
C1173 C 0.64709 0.41247 0.18852 0.0
C1174 C 0.63609 0.42318 0.21514 0.0
H1175 H 0.60552 0.39601 0.30419 0.0
H1176 H 0.60207 0.40404 0.26162 0.0
H1177 H 0.62957 0.39413 0.27618 0.0
H1178 H 0.68276 0.43222 0.26475 0.0
H1179 H 0.70215 0.41371 0.21807 0.0
H1180 H 0.55039 0.58198 0.44078 0.0
H1181 H 0.56839 0.5988 0.3919 0.0
H1182 H 0.50525 0.58987 0.33708 0.0
H1183 H 0.48701 0.57321 0.38583 0.0
H1184 H 0.57397 0.58091 0.32623 0.0
H1185 H 0.51926 0.6594 0.3295 0.0
H1186 H 0.52161 0.64 0.3641 0.0
H1187 H 0.50386 0.63259 0.32921 0.0
C1188 C 0.54035 0.58349 0.4183 0.0
C1189 C 0.51718 0.5765 0.41732 0.0
C1190 C 0.55068 0.59307 0.39039 0.0
C1191 C 0.53801 0.59594 0.36112 0.0
C1192 C 0.51517 0.5882 0.35966 0.0
H1193 H 0.56825 0.66228 0.17388 0.0
H1194 H 0.55043 0.64112 0.21929 0.0
C1195 C 0.50483 0.57858 0.38751 0.0
C1196 C 0.54854 0.60751 0.33235 0.0
H1197 H 0.54444 0.65542 0.2841 0.0
C1198 C 0.56757 0.59721 0.31699 0.0
C1199 C 0.54008 0.62875 0.32041 0.0
C1200 C 0.5202 0.64099 0.33676 0.0
C1201 C 0.57823 0.60748 0.28966 0.0
C1202 C 0.56988 0.62883 0.27788 0.0
C1203 C 0.55077 0.63904 0.29315 0.0
C1204 C 0.58094 0.64109 0.25007 0.0
C1205 C 0.59806 0.59519 0.27329 0.0
C1206 C 0.60392 0.64832 0.2525 0.0
C1207 C 0.61419 0.66027 0.22653 0.0
C1208 C 0.60162 0.6654 0.1977 0.0
C1209 C 0.57851 0.65832 0.19551 0.0
C1210 C 0.56826 0.64634 0.2215 0.0
H1211 H 0.59816 0.57653 0.2792 0.0
H1212 H 0.59739 0.59721 0.24602 0.0
H1213 H 0.61448 0.60269 0.28235 0.0
H1214 H 0.61388 0.64487 0.2746 0.0
H1215 H 0.63206 0.66529 0.22893 0.0
H1216 H 0.42881 0.55026 0.42932 0.0
H1217 H 0.41072 0.56839 0.3813 0.0
H1218 H 0.40572 0.50228 0.33298 0.0
H1219 H 0.42354 0.48393 0.38092 0.0
H1220 H 0.42316 0.56849 0.31318 0.0
H1221 H 0.33886 0.526 0.33447 0.0
H1222 H 0.36129 0.52681 0.36542 0.0
H1223 H 0.36297 0.50675 0.33159 0.0
C1224 C 0.42398 0.53958 0.40841 0.0
C1225 C 0.42734 0.51561 0.40911 0.0
C1226 C 0.41368 0.54998 0.381 0.0
C1227 C 0.4065 0.53659 0.35394 0.0
C1228 C 0.41072 0.51282 0.35395 0.0
H1229 H 0.33132 0.56683 0.1735 0.0
H1230 H 0.35305 0.54859 0.21822 0.0
C1231 C 0.421 0.5024 0.38131 0.0
C1232 C 0.3941 0.54741 0.32604 0.0
H1233 H 0.34244 0.54795 0.28566 0.0
C1234 C 0.4055 0.56406 0.30715 0.0
C1235 C 0.37107 0.54156 0.31833 0.0
C1236 C 0.3577 0.52445 0.33864 0.0
C1237 C 0.39454 0.57481 0.28036 0.0
C1238 C 0.37148 0.56901 0.27273 0.0
C1239 C 0.36013 0.55231 0.29157 0.0
C1240 C 0.3587 0.58022 0.24549 0.0
C1241 C 0.40786 0.59196 0.26008 0.0
C1242 C 0.35442 0.60397 0.24628 0.0
C1243 C 0.3421 0.61445 0.22073 0.0
C1244 C 0.33373 0.60133 0.19398 0.0
C1245 C 0.33782 0.57746 0.1935 0.0
C1246 C 0.35012 0.567 0.21909 0.0
H1247 H 0.42673 0.59003 0.26363 0.0
H1248 H 0.40383 0.59004 0.23336 0.0
H1249 H 0.40302 0.60965 0.26783 0.0
H1250 H 0.36051 0.6144 0.26677 0.0
H1251 H 0.33941 0.63289 0.22171 0.0
H1252 H 0.4507 0.42259 0.43041 0.0
H1253 H 0.43413 0.40709 0.37917 0.0
H1254 H 0.50123 0.4076 0.334 0.0
H1255 H 0.51798 0.42283 0.38501 0.0
H1256 H 0.43495 0.4254 0.31426 0.0
H1257 H 0.47924 0.34091 0.32063 0.0
H1258 H 0.47724 0.36013 0.3557 0.0
H1259 H 0.49822 0.36519 0.32399 0.0
C1260 C 0.46194 0.4194 0.40957 0.0
C1261 C 0.48571 0.42375 0.4119 0.0
C1262 C 0.45243 0.41056 0.38034 0.0
C1263 C 0.46654 0.40579 0.35306 0.0
C1264 C 0.49013 0.41068 0.35503 0.0
H1265 H 0.45175 0.35588 0.15359 0.0
H1266 H 0.46476 0.37021 0.20741 0.0
C1267 C 0.49965 0.41952 0.38417 0.0
C1268 C 0.45665 0.39592 0.32232 0.0
H1269 H 0.46053 0.34989 0.26988 0.0
C1270 C 0.44035 0.4088 0.30465 0.0
C1271 C 0.46374 0.37425 0.30995 0.0
C1272 C 0.48041 0.35919 0.32867 0.0
C1273 C 0.43153 0.40093 0.27427 0.0
C1274 C 0.43894 0.37944 0.26161 0.0
C1275 C 0.45494 0.36639 0.2796 0.0
C1276 C 0.43083 0.37046 0.22926 0.0
C1277 C 0.41495 0.41603 0.25545 0.0
C1278 C 0.40749 0.3655 0.22389 0.0
C1279 C 0.39997 0.35744 0.19307 0.0
C1280 C 0.41569 0.3541 0.1671 0.0
C1281 C 0.43914 0.35863 0.17286 0.0
C1282 C 0.44663 0.36668 0.20366 0.0
H1283 H 0.41518 0.43407 0.26468 0.0
H1284 H 0.41906 0.41605 0.22866 0.0
H1285 H 0.39724 0.40924 0.25842 0.0
H1286 H 0.39508 0.3679 0.24351 0.0
H1287 H 0.38178 0.35426 0.18941 0.0
loop_
_geom_bond_atom_site_label_1
_geom_bond_atom_site_label_2
_geom_bond_distance
_geom_bond_site_symmetry_2
_ccdc_geom_bond_type
Zn0 O2 1.933 1_556 S
Zn0 O20 1.985 . S
Zn0 O31 1.955 . S
Zn1 O2 1.911 . S
Zn1 O21 1.970 . S
Zn1 O37 1.945 . S
Zn1 O44 1.981 . S
O2 Zn0 1.933 1_554 S
O2 Zn1 1.911 . S
O2 H3 0.841 1_655 S
H3 O2 0.841 1_455 S
C4 O5 1.246 . S
C4 O33 1.276 1_545 S
O5 C4 1.246 . S
Zn6 O8 1.911 . S
Zn6 O23 1.970 . S
Zn6 O40 1.945 . S
Zn6 O47 1.981 . S
Zn7 O8 1.933 1_556 S
Zn7 O22 1.985 . S
Zn7 O29 1.955 . S
O8 Zn6 1.911 . S
O8 Zn7 1.933 1_554 S
O8 H9 0.841 1_455 S
H9 O8 0.841 1_655 S
Zn10 O11 1.933 1_556 S
Zn10 O24 1.985 . S
Zn10 O33 1.955 . S
O11 Zn10 1.933 1_554 S
O11 Zn12 1.911 . S
O11 H13 0.841 1_565 S
Zn12 O11 1.911 . S
Zn12 O25 1.970 . S
Zn12 O41 1.981 . S
Zn12 O43 1.945 . S
H13 O11 0.841 1_545 S
Zn14 O15 1.933 1_556 S
Zn14 O27 1.990 . S
Zn14 O35 1.955 . S
O15 Zn14 1.933 1_554 S
O15 H16 0.841 1_545 S
O15 Zn17 1.911 . S
H16 O15 0.841 1_565 S
Zn17 O15 1.911 . S
Zn17 O28 1.970 . S
Zn17 O38 1.981 . S
Zn17 O46 1.945 . S
C18 O19 1.246 . S
C18 O35 1.276 1_565 S
O19 C18 1.246 . S
O20 Zn0 1.985 . S
O20 C30 1.245 1_556 S
O21 Zn1 1.970 . S
O21 C30 1.263 . S
O22 Zn7 1.985 . S
O22 C34 1.245 1_556 S
O23 Zn6 1.970 . S
O23 C34 1.263 . S
O24 Zn10 1.985 . S
O24 C39 1.245 1_556 S
O25 Zn12 1.970 . S
O25 C39 1.263 . S
C26 O37 1.262 1_455 S
C26 O38 1.245 . S
O27 Zn14 1.990 . S
O27 C45 1.222 1_556 S
O28 Zn17 1.970 . S
O28 C45 1.263 . S
O29 Zn7 1.955 . S
O29 C48 1.276 1_455 S
C30 O20 1.245 1_554 S
C30 O21 1.263 . S
O31 Zn0 1.955 . S
O31 C50 1.276 1_655 S
C32 O40 1.262 1_655 S
C32 O41 1.245 . S
O33 C4 1.276 1_565 S
O33 Zn10 1.955 . S
C34 O22 1.245 1_554 S
C34 O23 1.263 . S
O35 Zn14 1.955 . S
O35 C18 1.276 1_545 S
C36 O43 1.262 1_545 S
C36 O44 1.245 . S
O37 Zn1 1.945 . S
O37 C26 1.262 1_655 S
O38 Zn17 1.981 . S
O38 C26 1.245 . S
C39 O24 1.245 1_554 S
C39 O25 1.263 . S
O40 Zn6 1.945 . S
O40 C32 1.262 1_455 S
O41 Zn12 1.981 . S
O41 C32 1.245 . S
C42 O46 1.262 1_565 S
C42 O47 1.245 . S
O43 Zn12 1.945 . S
O43 C36 1.262 1_565 S
O44 Zn1 1.981 . S
O44 C36 1.245 . S
C45 O27 1.222 1_554 S
C45 O28 1.263 . S
O46 Zn17 1.945 . S
O46 C42 1.262 1_545 S
O47 Zn6 1.981 . S
O47 C42 1.245 . S
C48 O29 1.276 1_655 S
C48 O49 1.246 . S
O49 C48 1.246 . S
C50 O31 1.276 1_455 S
C50 O51 1.246 . S
O51 C50 1.246 . S
Zn52 O54 1.933 . S
Zn52 O72 1.985 . S
Zn52 O83 1.955 . S
Zn53 O54 1.911 . S
Zn53 O73 1.970 . S
Zn53 O89 1.945 . S
Zn53 O96 1.981 . S
O54 Zn52 1.933 . S
O54 Zn53 1.911 . S
O54 H55 0.841 . S
H55 O54 0.841 . S
C56 O57 1.246 . S
C56 O85 1.276 . S
O57 C56 1.246 . S
Zn58 O60 1.911 . S
Zn58 O75 1.970 . S
Zn58 O92 1.945 . S
Zn58 O99 1.981 . S
Zn59 O60 1.933 . S
Zn59 O74 1.985 . S
Zn59 O81 1.955 . S
O60 Zn58 1.911 . S
O60 Zn59 1.933 . S
O60 H61 0.841 . S
H61 O60 0.841 . S
Zn62 O63 1.933 . S
Zn62 O76 1.985 . S
Zn62 O85 1.955 . S
O63 Zn62 1.933 . S
O63 Zn64 1.911 . S
O63 H65 0.841 . S
Zn64 O63 1.911 . S
Zn64 O77 1.970 . S
Zn64 O93 1.981 . S
Zn64 O95 1.945 . S
H65 O63 0.841 . S
Zn66 O67 1.933 . S
Zn66 O79 1.985 . S
Zn66 O87 1.955 . S
O67 Zn66 1.933 . S
O67 H68 0.841 . S
O67 Zn69 1.911 . S
H68 O67 0.841 . S
Zn69 O67 1.911 . S
Zn69 O80 1.970 . S
Zn69 O90 1.981 . S
Zn69 O98 1.945 . S
C70 O71 1.246 . S
C70 O87 1.276 . S
O71 C70 1.246 . S
O72 Zn52 1.985 . S
O72 C82 1.245 . S
O73 Zn53 1.970 . S
O73 C82 1.263 . S
O74 Zn59 1.985 . S
O74 C86 1.245 . S
O75 Zn58 1.970 . S
O75 C86 1.263 . S
O76 Zn62 1.985 . S
O76 C91 1.245 . S
O77 Zn64 1.970 . S
O77 C91 1.263 . S
C78 O89 1.262 . S
C78 O90 1.245 . S
O79 Zn66 1.985 . S
O79 C97 1.245 . S
O80 Zn69 1.970 . S
O80 C97 1.263 . S
O81 Zn59 1.955 . S
O81 C100 1.276 . S
C82 O72 1.245 . S
C82 O73 1.263 . S
O83 Zn52 1.955 . S
O83 C102 1.276 . S
C84 O92 1.262 . S
C84 O93 1.245 . S
O85 C56 1.276 . S
O85 Zn62 1.955 . S
C86 O74 1.245 . S
C86 O75 1.263 . S
O87 Zn66 1.955 . S
O87 C70 1.276 . S
C88 O95 1.262 . S
C88 O96 1.245 . S
O89 Zn53 1.945 . S
O89 C78 1.262 . S
O90 Zn69 1.981 . S
O90 C78 1.245 . S
C91 O76 1.245 . S
C91 O77 1.263 . S
O92 Zn58 1.945 . S
O92 C84 1.262 . S
O93 Zn64 1.981 . S
O93 C84 1.245 . S
C94 O98 1.262 . S
C94 O99 1.245 . S
O95 Zn64 1.945 . S
O95 C88 1.262 . S
O96 Zn53 1.981 . S
O96 C88 1.245 . S
C97 O79 1.245 . S
C97 O80 1.263 . S
O98 Zn69 1.945 . S
O98 C94 1.262 . S
O99 Zn58 1.981 . S
O99 C94 1.245 . S
C100 O81 1.276 . S
C100 O101 1.246 . S
O101 C100 1.246 . S
C102 O83 1.276 . S
C102 O103 1.246 . S
O103 C102 1.246 . S
C104 C105 1.264 . S
C104 C109 1.479 . S
C104 C114 1.465 . S
C105 C104 1.264 . S
C105 C107 1.339 . S
C105 H132 0.931 . S
C106 C107 1.395 . S
C106 C108 1.320 . S
C107 C105 1.339 . S
C107 C106 1.395 . S
C107 H133 0.929 . S
C108 C106 1.320 . S
C108 C109 1.405 . S
C108 H134 0.930 . S
C109 C104 1.479 . S
C109 C108 1.405 . S
C109 H135 0.931 . S
U110 O111 2.454 1_554 S
U110 O112 2.458 . S
U110 C113 2.984 . S
U110 C114 2.847 1_554 S
U110 C127 2.882 . S
U110 O128 2.441 1_554 S
U110 O129 2.420 1_554 S
U110 O130 2.455 . S
U110 O131 2.449 . S
O111 U110 2.454 1_556 S
O111 C113 1.353 1_556 S
O112 U110 2.458 . S
O112 C113 1.286 . S
C113 U110 2.984 . S
C113 O111 1.353 1_554 S
C113 O112 1.286 . S
C113 C115 1.363 . S
C114 C104 1.465 . S
C114 U110 2.847 1_556 S
C114 O128 1.249 . S
C114 O129 1.202 . S
C115 C113 1.363 . S
C115 C117 1.408 1_554 S
C115 C120 1.342 . S
C116 C117 1.310 . S
C116 C119 1.461 1_556 S
C116 H136 0.932 . S
C117 C115 1.408 1_556 S
C117 C116 1.310 . S
C117 H137 0.930 . S
C118 C119 1.474 . S
C118 C120 1.285 . S
C118 H138 0.929 . S
C119 C116 1.461 1_554 S
C119 C118 1.474 . S
C120 C115 1.342 . S
C120 C118 1.285 . S
C120 H139 0.930 . S
C121 C124 1.424 . S
C121 C126 1.245 . S
C121 C127 1.428 . S
C122 C125 1.260 . S
C122 C126 1.477 . S
C122 H140 0.932 . S
C123 C124 1.384 . S
C123 C125 1.479 . S
C123 H141 0.929 . S
C124 C121 1.424 . S
C124 C123 1.384 . S
C124 H142 0.928 . S
C125 C122 1.260 . S
C125 C123 1.479 . S
C126 C121 1.245 . S
C126 C122 1.477 . S
C126 H143 0.932 . S
C127 U110 2.882 . S
C127 C121 1.428 . S
C127 O130 1.301 . S
C127 O131 1.282 . S
O128 U110 2.441 1_556 S
O128 C114 1.249 . S
O129 U110 2.420 1_556 S
O129 C114 1.202 . S
O130 U110 2.455 . S
O130 C127 1.301 . S
O131 U110 2.449 . S
O131 C127 1.282 . S
H132 C105 0.931 . S
H133 C107 0.929 . S
H134 C108 0.930 . S
H135 C109 0.931 . S
H136 C116 0.932 . S
H137 C117 0.930 . S
H138 C118 0.929 . S
H139 C120 0.930 . S
H140 C122 0.932 . S
H141 C123 0.929 . S
H142 C124 0.928 . S
H143 C126 0.932 . S
C144 C145 1.264 . S
C144 C149 1.479 . S
C144 C154 1.465 . S
C145 C144 1.264 . S
C145 C147 1.339 . S
C145 H172 0.931 . S
C146 C147 1.395 . S
C146 C148 1.320 . S
C147 C145 1.339 . S
C147 C146 1.395 . S
C147 H173 0.929 . S
C148 C146 1.320 . S
C148 C149 1.405 . S
C148 H174 0.930 . S
C149 C144 1.479 . S
C149 C148 1.405 . S
C149 H175 0.931 . S
U150 O151 2.454 . S
U150 O152 2.472 . S
U150 C153 2.984 . S
U150 C154 2.847 . S
U150 C167 2.882 1_554 S
U150 O168 2.441 . S
U150 O169 2.420 . S
U150 O170 2.455 1_554 S
U150 O171 2.449 1_554 S
O151 U150 2.454 . S
O151 C153 1.353 . S
O152 U150 2.472 . S
O152 C153 1.311 . S
C153 U150 2.984 . S
C153 O151 1.353 . S
C153 O152 1.311 . S
C153 C155 1.363 . S
C154 C144 1.465 . S
C154 U150 2.847 . S
C154 O168 1.249 . S
C154 O169 1.202 . S
C155 C153 1.363 . S
C155 C157 1.408 . S
C155 C160 1.342 1_554 S
C156 C157 1.310 . S
C156 C159 1.461 . S
C156 H176 0.932 . S
C157 C155 1.408 . S
C157 C156 1.310 . S
C157 H177 0.930 . S
C158 C159 1.474 1_556 S
C158 C160 1.285 . S
C158 H178 0.929 . S
C159 C156 1.461 . S
C159 C158 1.474 1_554 S
C160 C155 1.342 1_556 S
C160 C158 1.285 . S
C160 H179 0.930 . S
C161 C164 1.424 . S
C161 C166 1.245 . S
C161 C167 1.428 . S
C162 C165 1.260 . S
C162 C166 1.477 . S
C162 H180 0.932 . S
C163 C164 1.384 . S
C163 C165 1.479 . S
C163 H181 0.929 . S
C164 C161 1.424 . S
C164 C163 1.384 . S
C164 H182 0.928 . S
C165 C162 1.260 . S
C165 C163 1.479 . S
C166 C161 1.245 . S
C166 C162 1.477 . S
C166 H183 0.932 . S
C167 U150 2.882 1_556 S
C167 C161 1.428 . S
C167 O170 1.301 . S
C167 O171 1.282 . S
O168 U150 2.441 . S
O168 C154 1.249 . S
O169 U150 2.420 . S
O169 C154 1.202 . S
O170 U150 2.455 1_556 S
O170 C167 1.301 . S
O171 U150 2.449 1_556 S
O171 C167 1.282 . S
H172 C145 0.931 . S
H173 C147 0.929 . S
H174 C148 0.930 . S
H175 C149 0.931 . S
H176 C156 0.932 . S
H177 C157 0.930 . S
H178 C158 0.929 . S
H179 C160 0.930 . S
H180 C162 0.932 . S
H181 C163 0.929 . S
H182 C164 0.928 . S
H183 C166 0.932 . S
C184 C185 1.264 . S
C184 C189 1.479 . S
C184 C194 1.465 . S
C185 C184 1.264 . S
C185 C187 1.339 . S
C185 H212 0.931 . S
C186 C187 1.395 . S
C186 C188 1.320 . S
C187 C185 1.339 . S
C187 C186 1.395 . S
C187 H213 0.929 . S
C188 C186 1.320 . S
C188 C189 1.405 . S
C188 H214 0.930 . S
C189 C184 1.479 . S
C189 C188 1.405 . S
C189 H215 0.931 . S
U190 O191 2.454 . S
U190 O192 2.472 . S
U190 C193 2.984 . S
U190 C194 2.847 . S
U190 C207 2.882 1_554 S
U190 O208 2.441 . S
U190 O209 2.420 . S
U190 O210 2.455 1_554 S
U190 O211 2.449 1_554 S
O191 U190 2.454 . S
O191 C193 1.353 . S
O192 U190 2.472 . S
O192 C193 1.310 . S
C193 U190 2.984 . S
C193 O191 1.353 . S
C193 O192 1.310 . S
C193 C195 1.363 . S
C194 C184 1.465 . S
C194 U190 2.847 . S
C194 O208 1.249 . S
C194 O209 1.202 . S
C195 C193 1.363 . S
C195 C197 1.408 . S
C195 C200 1.342 1_554 S
C196 C197 1.310 . S
C196 C199 1.461 . S
C196 H216 0.932 . S
C197 C195 1.408 . S
C197 C196 1.310 . S
C197 H217 0.930 . S
C198 C199 1.474 1_556 S
C198 C200 1.285 . S
C198 H218 0.929 . S
C199 C196 1.461 . S
C199 C198 1.474 1_554 S
C200 C195 1.342 1_556 S
C200 C198 1.285 . S
C200 H219 0.930 . S
C201 C204 1.424 . S
C201 C206 1.245 . S
C201 C207 1.428 . S
C202 C205 1.260 . S
C202 C206 1.477 . S
C202 H220 0.932 . S
C203 C204 1.384 . S
C203 C205 1.479 . S
C203 H221 0.929 . S
C204 C201 1.424 . S
C204 C203 1.384 . S
C204 H222 0.928 . S
C205 C202 1.260 . S
C205 C203 1.479 . S
C206 C201 1.245 . S
C206 C202 1.477 . S
C206 H223 0.932 . S
C207 U190 2.882 1_556 S
C207 C201 1.428 . S
C207 O210 1.301 . S
C207 O211 1.282 . S
O208 U190 2.441 . S
O208 C194 1.249 . S
O209 U190 2.420 . S
O209 C194 1.202 . S
O210 U190 2.455 1_556 S
O210 C207 1.301 . S
O211 U190 2.449 1_556 S
O211 C207 1.282 . S
H212 C185 0.931 . S
H213 C187 0.929 . S
H214 C188 0.930 . S
H215 C189 0.931 . S
H216 C196 0.932 . S
H217 C197 0.930 . S
H218 C198 0.929 . S
H219 C200 0.930 . S
H220 C202 0.932 . S
H221 C203 0.929 . S
H222 C204 0.928 . S
H223 C206 0.932 . S
C224 C225 1.264 . S
C224 C229 1.479 . S
C224 C234 1.465 . S
C225 C224 1.264 . S
C225 C227 1.339 . S
C225 H252 0.931 . S
C226 C227 1.395 . S
C226 C228 1.320 . S
C227 C225 1.339 . S
C227 C226 1.395 . S
C227 H253 0.929 . S
C228 C226 1.320 . S
C228 C229 1.405 . S
C228 H254 0.930 . S
C229 C224 1.479 . S
C229 C228 1.405 . S
C229 H255 0.931 . S
U230 O231 2.454 . S
U230 O232 2.450 1_554 S
U230 C233 2.984 . S
U230 C234 2.847 . S
U230 C247 2.882 1_554 S
U230 O248 2.441 . S
U230 O249 2.420 . S
U230 O250 2.455 1_554 S
U230 O251 2.449 1_554 S
O231 U230 2.454 . S
O231 C233 1.353 . S
O232 U230 2.450 1_556 S
O232 C233 1.272 1_556 S
C233 U230 2.984 . S
C233 O231 1.353 . S
C233 O232 1.272 1_554 S
C233 C235 1.363 . S
C234 C224 1.465 . S
C234 U230 2.847 . S
C234 O248 1.249 . S
C234 O249 1.202 . S
C235 C233 1.363 . S
C235 C237 1.408 . S
C235 C240 1.342 1_554 S
C236 C237 1.310 . S
C236 C239 1.461 . S
C236 H256 0.932 . S
C237 C235 1.408 . S
C237 C236 1.310 . S
C237 H257 0.930 . S
C238 C239 1.474 1_556 S
C238 C240 1.285 . S
C238 H258 0.929 . S
C239 C236 1.461 . S
C239 C238 1.474 1_554 S
C240 C235 1.342 1_556 S
C240 C238 1.285 . S
C240 H259 0.930 . S
C241 C244 1.424 . S
C241 C246 1.245 . S
C241 C247 1.428 . S
C242 C245 1.260 . S
C242 C246 1.477 . S
C242 H260 0.932 . S
C243 C244 1.384 . S
C243 C245 1.479 . S
C243 H261 0.929 . S
C244 C241 1.424 . S
C244 C243 1.384 . S
C244 H262 0.928 . S
C245 C242 1.260 . S
C245 C243 1.479 . S
C246 C241 1.245 . S
C246 C242 1.477 . S
C246 H263 0.932 . S
C247 U230 2.882 1_556 S
C247 C241 1.428 . S
C247 O250 1.301 . S
C247 O251 1.282 . S
O248 U230 2.441 . S
O248 C234 1.249 . S
O249 U230 2.420 . S
O249 C234 1.202 . S
O250 U230 2.455 1_556 S
O250 C247 1.301 . S
O251 U230 2.449 1_556 S
O251 C247 1.282 . S
H252 C225 0.931 . S
H253 C227 0.929 . S
H254 C228 0.930 . S
H255 C229 0.931 . S
H256 C236 0.932 . S
H257 C237 0.930 . S
H258 C238 0.929 . S
H259 C240 0.930 . S
H260 C242 0.932 . S
H261 C243 0.929 . S
H262 C244 0.928 . S
H263 C246 0.932 . S
C264 C265 1.264 . S
C264 C269 1.479 . S
C264 C274 1.465 . S
C265 C264 1.264 . S
C265 C267 1.339 . S
C265 H292 0.931 . S
C266 C267 1.395 . S
C266 C268 1.320 . S
C267 C265 1.339 . S
C267 C266 1.395 . S
C267 H293 0.929 . S
C268 C266 1.320 . S
C268 C269 1.405 . S
C268 H294 0.930 . S
C269 C264 1.479 . S
C269 C268 1.405 . S
C269 H295 0.931 . S
U270 O271 2.454 . S
U270 O272 2.458 . S
U270 C273 2.984 . S
U270 C274 2.847 . S
U270 C287 2.882 . S
U270 O288 2.441 . S
U270 O289 2.420 . S
U270 O290 2.455 . S
U270 O291 2.449 . S
O271 U270 2.454 . S
O271 C273 1.353 . S
O272 U270 2.458 . S
O272 C273 1.286 . S
C273 U270 2.984 . S
C273 O271 1.353 . S
C273 O272 1.286 . S
C273 C275 1.363 . S
C274 C264 1.465 . S
C274 U270 2.847 . S
C274 O288 1.249 . S
C274 O289 1.202 . S
C275 C273 1.363 . S
C275 C277 1.408 . S
C275 C280 1.342 . S
C276 C277 1.310 . S
C276 C279 1.461 . S
C276 H296 0.932 . S
C277 C275 1.408 . S
C277 C276 1.310 . S
C277 H297 0.930 . S
C278 C279 1.474 . S
C278 C280 1.285 . S
C278 H298 0.929 . S
C279 C276 1.461 . S
C279 C278 1.474 . S
C280 C275 1.342 . S
C280 C278 1.285 . S
C280 H299 0.930 . S
C281 C284 1.424 . S
C281 C286 1.245 . S
C281 C287 1.428 . S
C282 C285 1.260 . S
C282 C286 1.477 . S
C282 H300 0.932 . S
C283 C284 1.384 . S
C283 C285 1.479 . S
C283 H301 0.929 . S
C284 C281 1.424 . S
C284 C283 1.384 . S
C284 H302 0.928 . S
C285 C282 1.260 . S
C285 C283 1.479 . S
C286 C281 1.245 . S
C286 C282 1.477 . S
C286 H303 0.932 . S
C287 U270 2.882 . S
C287 C281 1.428 . S
C287 O290 1.301 . S
C287 O291 1.282 . S
O288 U270 2.441 . S
O288 C274 1.249 . S
O289 U270 2.420 . S
O289 C274 1.202 . S
O290 U270 2.455 . S
O290 C287 1.301 . S
O291 U270 2.449 . S
O291 C287 1.282 . S
H292 C265 0.931 . S
H293 C267 0.929 . S
H294 C268 0.930 . S
H295 C269 0.931 . S
H296 C276 0.932 . S
H297 C277 0.930 . S
H298 C278 0.929 . S
H299 C280 0.930 . S
H300 C282 0.932 . S
H301 C283 0.929 . S
H302 C284 0.928 . S
H303 C286 0.932 . S
C304 C305 1.264 . S
C304 C309 1.479 . S
C304 C314 1.465 . S
C305 C304 1.264 . S
C305 C307 1.339 . S
C305 H332 0.931 . S
C306 C307 1.395 . S
C306 C308 1.320 . S
C307 C305 1.339 . S
C307 C306 1.395 . S
C307 H333 0.929 . S
C308 C306 1.320 . S
C308 C309 1.405 . S
C308 H334 0.930 . S
C309 C304 1.479 . S
C309 C308 1.405 . S
C309 H335 0.931 . S
U310 O311 2.454 . S
U310 O312 2.458 . S
U310 C313 2.984 . S
U310 C314 2.847 . S
U310 C327 2.882 . S
U310 O328 2.441 . S
U310 O329 2.420 . S
U310 O330 2.455 . S
U310 O331 2.449 . S
O311 U310 2.454 . S
O311 C313 1.353 . S
O312 U310 2.458 . S
O312 C313 1.286 . S
C313 U310 2.984 . S
C313 O311 1.353 . S
C313 O312 1.286 . S
C313 C315 1.363 . S
C314 C304 1.465 . S
C314 U310 2.847 . S
C314 O328 1.249 . S
C314 O329 1.202 . S
C315 C313 1.363 . S
C315 C317 1.408 . S
C315 C320 1.342 . S
C316 C317 1.310 . S
C316 C319 1.461 . S
C316 H336 0.932 . S
C317 C315 1.408 . S
C317 C316 1.310 . S
C317 H337 0.930 . S
C318 C319 1.474 . S
C318 C320 1.285 . S
C318 H338 0.929 . S
C319 C316 1.461 . S
C319 C318 1.474 . S
C320 C315 1.342 . S
C320 C318 1.285 . S
C320 H339 0.930 . S
C321 C324 1.424 . S
C321 C326 1.245 . S
C321 C327 1.428 . S
C322 C325 1.260 . S
C322 C326 1.477 . S
C322 H340 0.932 . S
C323 C324 1.384 . S
C323 C325 1.479 . S
C323 H341 0.929 . S
C324 C321 1.424 . S
C324 C323 1.384 . S
C324 H342 0.928 . S
C325 C322 1.260 . S
C325 C323 1.479 . S
C326 C321 1.245 . S
C326 C322 1.477 . S
C326 H343 0.932 . S
C327 U310 2.882 . S
C327 C321 1.428 . S
C327 O330 1.301 . S
C327 O331 1.282 . S
O328 U310 2.441 . S
O328 C314 1.249 . S
O329 U310 2.420 . S
O329 C314 1.202 . S
O330 U310 2.455 . S
O330 C327 1.301 . S
O331 U310 2.449 . S
O331 C327 1.282 . S
H332 C305 0.931 . S
H333 C307 0.929 . S
H334 C308 0.930 . S
H335 C309 0.931 . S
H336 C316 0.932 . S
H337 C317 0.930 . S
H338 C318 0.929 . S
H339 C320 0.930 . S
H340 C322 0.932 . S
H341 C323 0.929 . S
H342 C324 0.928 . S
H343 C326 0.932 . S
C344 C345 1.264 . S
C344 C349 1.479 . S
C344 C354 1.465 . S
C345 C344 1.264 . S
C345 C347 1.339 . S
C345 H372 0.931 . S
C346 C347 1.395 . S
C346 C348 1.320 . S
C347 C345 1.339 . S
C347 C346 1.395 . S
C347 H373 0.929 . S
C348 C346 1.320 . S
C348 C349 1.405 . S
C348 H374 0.930 . S
C349 C344 1.479 . S
C349 C348 1.405 . S
C349 H375 0.931 . S
U350 O351 2.454 . S
U350 O352 2.458 . S
U350 C353 2.984 . S
U350 C354 2.847 . S
U350 C367 2.882 . S
U350 O368 2.441 . S
U350 O369 2.420 . S
U350 O370 2.455 . S
U350 O371 2.449 . S
O351 U350 2.454 . S
O351 C353 1.353 . S
O352 U350 2.458 . S
O352 C353 1.286 . S
C353 U350 2.984 . S
C353 O351 1.353 . S
C353 O352 1.286 . S
C353 C355 1.363 . S
C354 C344 1.465 . S
C354 U350 2.847 . S
C354 O368 1.249 . S
C354 O369 1.202 . S
C355 C353 1.363 . S
C355 C357 1.408 . S
C355 C360 1.342 . S
C356 C357 1.310 . S
C356 C359 1.461 . S
C356 H376 0.932 . S
C357 C355 1.408 . S
C357 C356 1.310 . S
C357 H377 0.930 . S
C358 C359 1.474 . S
C358 C360 1.285 . S
C358 H378 0.929 . S
C359 C356 1.461 . S
C359 C358 1.474 . S
C360 C355 1.342 . S
C360 C358 1.285 . S
C360 H379 0.930 . S
C361 C364 1.424 . S
C361 C366 1.245 . S
C361 C367 1.428 . S
C362 C365 1.260 . S
C362 C366 1.477 . S
C362 H380 0.932 . S
C363 C364 1.384 . S
C363 C365 1.479 . S
C363 H381 0.929 . S
C364 C361 1.424 . S
C364 C363 1.384 . S
C364 H382 0.928 . S
C365 C362 1.260 . S
C365 C363 1.479 . S
C366 C361 1.245 . S
C366 C362 1.477 . S
C366 H383 0.932 . S
C367 U350 2.882 . S
C367 C361 1.428 . S
C367 O370 1.301 . S
C367 O371 1.282 . S
O368 U350 2.441 . S
O368 C354 1.249 . S
O369 U350 2.420 . S
O369 C354 1.202 . S
O370 U350 2.455 . S
O370 C367 1.301 . S
O371 U350 2.449 . S
O371 C367 1.282 . S
H372 C345 0.931 . S
H373 C347 0.929 . S
H374 C348 0.930 . S
H375 C349 0.931 . S
H376 C356 0.932 . S
H377 C357 0.930 . S
H378 C358 0.929 . S
H379 C360 0.930 . S
H380 C362 0.932 . S
H381 C363 0.929 . S
H382 C364 0.928 . S
H383 C366 0.932 . S
C384 C385 1.264 . S
C384 C389 1.479 . S
C384 C394 1.465 . S
C385 C384 1.264 . S
C385 C387 1.339 . S
C385 H412 0.931 . S
C386 C387 1.395 . S
C386 C388 1.320 . S
C387 C385 1.339 . S
C387 C386 1.395 . S
C387 H413 0.929 . S
C388 C386 1.320 . S
C388 C389 1.405 . S
C388 H414 0.930 . S
C389 C384 1.479 . S
C389 C388 1.405 . S
C389 H415 0.931 . S
U390 O391 2.454 . S
U390 O392 2.458 . S
U390 C393 2.984 . S
U390 C394 2.847 . S
U390 C407 2.882 . S
U390 O408 2.441 . S
U390 O409 2.420 . S
U390 O410 2.455 . S
U390 O411 2.449 . S
O391 U390 2.454 . S
O391 C393 1.353 . S
O392 U390 2.458 . S
O392 C393 1.286 . S
C393 U390 2.984 . S
C393 O391 1.353 . S
C393 O392 1.286 . S
C393 C395 1.363 . S
C394 C384 1.465 . S
C394 U390 2.847 . S
C394 O408 1.249 . S
C394 O409 1.202 . S
C395 C393 1.363 . S
C395 C397 1.408 . S
C395 C400 1.342 . S
C396 C397 1.310 . S
C396 C399 1.461 . S
C396 H416 0.932 . S
C397 C395 1.408 . S
C397 C396 1.310 . S
C397 H417 0.930 . S
C398 C399 1.474 . S
C398 C400 1.285 . S
C398 H418 0.929 . S
C399 C396 1.461 . S
C399 C398 1.474 . S
C400 C395 1.342 . S
C400 C398 1.285 . S
C400 H419 0.930 . S
C401 C404 1.424 . S
C401 C406 1.245 . S
C401 C407 1.428 . S
C402 C405 1.260 . S
C402 C406 1.477 . S
C402 H420 0.932 . S
C403 C404 1.384 . S
C403 C405 1.479 . S
C403 H421 0.929 . S
C404 C401 1.424 . S
C404 C403 1.384 . S
C404 H422 0.928 . S
C405 C402 1.260 . S
C405 C403 1.479 . S
C406 C401 1.245 . S
C406 C402 1.477 . S
C406 H423 0.932 . S
C407 U390 2.882 . S
C407 C401 1.428 . S
C407 O410 1.301 . S
C407 O411 1.282 . S
O408 U390 2.441 . S
O408 C394 1.249 . S
O409 U390 2.420 . S
O409 C394 1.202 . S
O410 U390 2.455 . S
O410 C407 1.301 . S
O411 U390 2.449 . S
O411 C407 1.282 . S
H412 C385 0.931 . S
H413 C387 0.929 . S
H414 C388 0.930 . S
H415 C389 0.931 . S
H416 C396 0.932 . S
H417 C397 0.930 . S
H418 C398 0.929 . S
H419 C400 0.930 . S
H420 C402 0.932 . S
H421 C403 0.929 . S
H422 C404 0.928 . S
H423 C406 0.932 . S
H424 C432 0.929 1_556 S
H425 C434 0.930 1_556 S
H426 C436 0.930 . S
H427 C439 0.929 . S
H428 C442 0.930 . S
H429 C444 0.960 1_556 S
H430 C444 0.960 1_556 S
H431 C444 0.960 . S
C432 H424 0.929 1_554 S
C432 C433 1.377 . S
C432 C434 1.384 . S
C433 C432 1.377 . S
C433 C439 1.390 . S
C434 H425 0.930 1_554 S
C434 C432 1.384 . S
C434 C435 1.372 . S
C435 C434 1.372 . S
C435 C436 1.400 . S
C435 C440 1.490 . S
C436 H426 0.930 . S
C436 C435 1.400 . S
C436 C439 1.386 . S
H437 C453 0.930 . S
H438 C454 0.931 . S
C439 H427 0.929 . S
C439 C433 1.390 . S
C439 C436 1.386 . S
C440 C435 1.490 . S
C440 C442 1.395 . S
C440 C443 1.403 . S
H441 C447 0.930 . S
C442 H428 0.930 . S
C442 C440 1.395 . S
C442 C445 1.403 . S
C443 C440 1.403 . S
C443 C444 1.524 . S
C443 C447 1.400 . S
C444 H429 0.960 1_554 S
C444 H430 0.960 1_554 S
C444 H431 0.960 . S
C444 C443 1.524 . S
C445 C442 1.403 . S
C445 C446 1.392 . S
C445 C449 1.495 . S
C446 C445 1.392 . S
C446 C447 1.385 . S
C446 C448 1.478 . S
C447 H441 0.930 . S
C447 C443 1.400 . S
C447 C446 1.385 . S
C448 C446 1.478 . S
C448 C450 1.381 . S
C448 C454 1.383 . S
C449 C445 1.495 . S
C449 H455 0.959 . S
C449 H456 0.961 . S
C449 H457 0.960 . S
C450 C448 1.381 . S
C450 C451 1.394 . S
C450 H458 0.930 1_554 S
C451 C450 1.394 . S
C451 C452 1.383 . S
C451 H459 0.929 1_554 S
C452 C451 1.383 . S
C452 C453 1.377 . S
C453 H437 0.930 . S
C453 C452 1.377 . S
C453 C454 1.379 . S
C454 H438 0.931 . S
C454 C448 1.383 . S
C454 C453 1.379 . S
H455 C449 0.959 . S
H456 C449 0.961 . S
H457 C449 0.960 . S
H458 C450 0.930 1_556 S
H459 C451 0.929 1_556 S
H460 C468 0.929 . S
H461 C470 0.930 . S
H462 C472 0.955 . S
H463 C475 0.929 . S
H464 C478 0.930 . S
H465 C480 0.960 . S
H466 C480 0.960 . S
H467 C480 0.941 1_556 S
C468 H460 0.929 . S
C468 C469 1.377 . S
C468 C470 1.384 . S
C469 C468 1.377 . S
C469 C475 1.390 1_554 S
C470 H461 0.930 . S
C470 C468 1.384 . S
C470 C471 1.372 . S
C471 C470 1.372 . S
C471 C472 1.375 1_554 S
C471 C476 1.490 . S
C472 H462 0.955 . S
C472 C471 1.375 1_556 S
C472 C475 1.386 . S
H473 C489 0.930 . S
H474 C490 0.931 . S
C475 H463 0.929 . S
C475 C469 1.390 1_556 S
C475 C472 1.386 . S
C476 C471 1.490 . S
C476 C478 1.395 . S
C476 C479 1.403 . S
H477 C483 0.930 . S
C478 H464 0.930 . S
C478 C476 1.395 . S
C478 C481 1.403 . S
C479 C476 1.403 . S
C479 C480 1.524 . S
C479 C483 1.400 . S
C480 H465 0.960 . S
C480 H466 0.960 . S
C480 H467 0.941 1_554 S
C480 C479 1.524 . S
C481 C478 1.403 . S
C481 C482 1.392 . S
C481 C485 1.495 . S
C482 C481 1.392 . S
C482 C483 1.385 . S
C482 C484 1.478 . S
C483 H477 0.930 . S
C483 C479 1.400 . S
C483 C482 1.385 . S
C484 C482 1.478 . S
C484 C486 1.381 . S
C484 C490 1.383 1_554 S
C485 C481 1.495 . S
C485 H491 0.959 . S
C485 H492 0.961 . S
C485 H493 0.960 . S
C486 C484 1.381 . S
C486 C487 1.394 . S
C486 H494 0.930 . S
C487 C486 1.394 . S
C487 C488 1.383 . S
C487 H495 0.929 . S
C488 C487 1.383 . S
C488 C489 1.377 1_554 S
C489 H473 0.930 . S
C489 C488 1.377 1_556 S
C489 C490 1.379 . S
C490 H474 0.931 . S
C490 C484 1.383 1_556 S
C490 C489 1.379 . S
H491 C485 0.959 . S
H492 C485 0.961 . S
H493 C485 0.960 . S
H494 C486 0.930 . S
H495 C487 0.929 . S
H496 C504 0.929 . S
H497 C506 0.930 . S
H498 C508 0.930 . S
H499 C511 0.929 . S
H500 C514 0.930 . S
H501 C516 0.960 . S
H502 C516 0.960 . S
H503 C516 0.960 . S
C504 H496 0.929 . S
C504 C505 1.377 1_556 S
C504 C506 1.384 . S
C505 C504 1.377 1_554 S
C505 C511 1.390 . S
C506 H497 0.930 . S
C506 C504 1.384 . S
C506 C507 1.372 1_556 S
C507 C506 1.372 1_554 S
C507 C508 1.400 . S
C507 C512 1.490 . S
C508 H498 0.930 . S
C508 C507 1.400 . S
C508 C511 1.386 . S
H509 C525 0.930 . S
H510 C526 0.931 . S
C511 H499 0.929 . S
C511 C505 1.390 . S
C511 C508 1.386 . S
C512 C507 1.490 . S
C512 C514 1.395 . S
C512 C515 1.403 . S
H513 C519 0.930 . S
C514 H500 0.930 . S
C514 C512 1.395 . S
C514 C517 1.403 . S
C515 C512 1.403 . S
C515 C516 1.524 . S
C515 C519 1.400 . S
C516 H501 0.960 . S
C516 H502 0.960 . S
C516 H503 0.960 . S
C516 C515 1.524 . S
C517 C514 1.403 . S
C517 C518 1.392 . S
C517 C521 1.495 . S
C518 C517 1.392 . S
C518 C519 1.385 . S
C518 C520 1.478 . S
C519 H513 0.930 . S
C519 C515 1.400 . S
C519 C518 1.385 . S
C520 C518 1.478 . S
C520 C522 1.381 1_554 S
C520 C526 1.383 . S
C521 C517 1.495 . S
C521 H527 0.959 . S
C521 H528 0.961 . S
C521 H529 0.960 1_554 S
C522 C520 1.381 1_556 S
C522 C523 1.394 . S
C522 H530 0.930 . S
C523 C522 1.394 . S
C523 C524 1.383 1_556 S
C523 H531 0.929 . S
C524 C523 1.383 1_554 S
C524 C525 1.377 . S
C525 H509 0.930 . S
C525 C524 1.377 . S
C525 C526 1.379 . S
C526 H510 0.931 . S
C526 C520 1.383 . S
C526 C525 1.379 . S
H527 C521 0.959 . S
H528 C521 0.961 . S
H529 C521 0.960 1_556 S
H530 C522 0.930 . S
H531 C523 0.929 . S
H532 C540 0.954 . S
H533 C542 0.930 . S
H534 C544 0.930 . S
H535 C547 0.929 . S
H536 C550 0.930 . S
H537 C552 0.960 . S
H538 C552 0.960 . S
H539 C552 0.960 . S
C540 H532 0.954 . S
C540 C541 1.353 1_556 S
C540 C542 1.385 . S
C541 C540 1.353 1_554 S
C541 C547 1.390 . S
C542 H533 0.930 . S
C542 C540 1.385 . S
C542 C543 1.372 1_556 S
C543 C542 1.372 1_554 S
C543 C544 1.400 . S
C543 C548 1.490 . S
C544 H534 0.930 . S
C544 C543 1.400 . S
C544 C547 1.386 . S
H545 C561 0.930 . S
H546 C562 0.931 . S
C547 H535 0.929 . S
C547 C541 1.390 . S
C547 C544 1.386 . S
C548 C543 1.490 . S
C548 C550 1.395 . S
C548 C551 1.403 . S
H549 C555 0.930 . S
C550 H536 0.930 . S
C550 C548 1.395 . S
C550 C553 1.403 . S
C551 C548 1.403 . S
C551 C552 1.524 . S
C551 C555 1.400 . S
C552 H537 0.960 . S
C552 H538 0.960 . S
C552 H539 0.960 . S
C552 C551 1.524 . S
C553 C550 1.403 . S
C553 C554 1.392 . S
C553 C557 1.495 . S
C554 C553 1.392 . S
C554 C555 1.385 . S
C554 C556 1.478 . S
C555 H549 0.930 . S
C555 C551 1.400 . S
C555 C554 1.385 . S
C556 C554 1.478 . S
C556 C558 1.381 1_554 S
C556 C562 1.383 . S
C557 C553 1.495 . S
C557 H563 0.959 . S
C557 H564 0.961 . S
C557 H565 0.960 . S
C558 C556 1.381 1_556 S
C558 C559 1.394 . S
C558 H566 0.930 . S
C559 C558 1.394 . S
C559 C560 1.383 1_556 S
C559 H567 0.929 . S
C560 C559 1.383 1_554 S
C560 C561 1.377 . S
C561 H545 0.930 . S
C561 C560 1.377 . S
C561 C562 1.379 . S
C562 H546 0.931 . S
C562 C556 1.383 . S
C562 C561 1.379 . S
H563 C557 0.959 . S
H564 C557 0.961 . S
H565 C557 0.960 . S
H566 C558 0.930 . S
H567 C559 0.929 . S
H568 C576 0.929 . S
H569 C578 0.930 . S
H570 C580 0.930 . S
H571 C583 0.929 . S
H572 C586 0.930 . S
H573 C588 0.960 . S
H574 C588 0.960 . S
H575 C588 0.960 . S
C576 H568 0.929 . S
C576 C577 1.377 . S
C576 C578 1.384 . S
C577 C576 1.377 . S
C577 C583 1.390 . S
C578 H569 0.930 . S
C578 C576 1.384 . S
C578 C579 1.372 . S
C579 C578 1.372 . S
C579 C580 1.400 . S
C579 C584 1.490 . S
C580 H570 0.930 . S
C580 C579 1.400 . S
C580 C583 1.386 . S
H581 C597 0.930 . S
H582 C598 0.931 . S
C583 H571 0.929 . S
C583 C577 1.390 . S
C583 C580 1.386 . S
C584 C579 1.490 . S
C584 C586 1.395 . S
C584 C587 1.403 . S
H585 C591 0.930 . S
C586 H572 0.930 . S
C586 C584 1.395 . S
C586 C589 1.403 . S
C587 C584 1.403 . S
C587 C588 1.524 . S
C587 C591 1.400 . S
C588 H573 0.960 . S
C588 H574 0.960 . S
C588 H575 0.960 . S
C588 C587 1.524 . S
C589 C586 1.403 . S
C589 C590 1.392 . S
C589 C593 1.495 . S
C590 C589 1.392 . S
C590 C591 1.385 . S
C590 C592 1.478 . S
C591 H585 0.930 . S
C591 C587 1.400 . S
C591 C590 1.385 . S
C592 C590 1.478 . S
C592 C594 1.381 . S
C592 C598 1.383 . S
C593 C589 1.495 . S
C593 H599 0.959 . S
C593 H600 0.961 . S
C593 H601 0.960 . S
C594 C592 1.381 . S
C594 C595 1.394 . S
C594 H602 0.930 . S
C595 C594 1.394 . S
C595 C596 1.383 . S
C595 H603 0.929 . S
C596 C595 1.383 . S
C596 C597 1.377 . S
C597 H581 0.930 . S
C597 C596 1.377 . S
C597 C598 1.379 . S
C598 H582 0.931 . S
C598 C592 1.383 . S
C598 C597 1.379 . S
H599 C593 0.959 . S
H600 C593 0.961 . S
H601 C593 0.960 . S
H602 C594 0.930 . S
H603 C595 0.929 . S
H604 C612 0.929 . S
H605 C614 0.930 . S
H606 C616 0.930 . S
H607 C619 0.929 . S
H608 C622 0.930 . S
H609 C624 0.960 . S
H610 C624 0.960 . S
H611 C624 0.960 . S
C612 H604 0.929 . S
C612 C613 1.377 . S
C612 C614 1.384 . S
C613 C612 1.377 . S
C613 C619 1.390 . S
C614 H605 0.930 . S
C614 C612 1.384 . S
C614 C615 1.372 . S
C615 C614 1.372 . S
C615 C616 1.400 . S
C615 C620 1.490 . S
C616 H606 0.930 . S
C616 C615 1.400 . S
C616 C619 1.386 . S
H617 C633 0.930 . S
H618 C634 0.931 . S
C619 H607 0.929 . S
C619 C613 1.390 . S
C619 C616 1.386 . S
C620 C615 1.490 . S
C620 C622 1.395 . S
C620 C623 1.403 . S
H621 C627 0.930 . S
C622 H608 0.930 . S
C622 C620 1.395 . S
C622 C625 1.403 . S
C623 C620 1.403 . S
C623 C624 1.524 . S
C623 C627 1.400 . S
C624 H609 0.960 . S
C624 H610 0.960 . S
C624 H611 0.960 . S
C624 C623 1.524 . S
C625 C622 1.403 . S
C625 C626 1.392 . S
C625 C629 1.495 . S
C626 C625 1.392 . S
C626 C627 1.385 . S
C626 C628 1.478 . S
C627 H621 0.930 . S
C627 C623 1.400 . S
C627 C626 1.385 . S
C628 C626 1.478 . S
C628 C630 1.381 . S
C628 C634 1.383 . S
C629 C625 1.495 . S
C629 H635 0.959 . S
C629 H636 0.961 . S
C629 H637 0.960 . S
C630 C628 1.381 . S
C630 C631 1.394 . S
C630 H638 0.930 . S
C631 C630 1.394 . S
C631 C632 1.383 . S
C631 H639 0.929 . S
C632 C631 1.383 . S
C632 C633 1.377 . S
C633 H617 0.930 . S
C633 C632 1.377 . S
C633 C634 1.379 . S
C634 H618 0.931 . S
C634 C628 1.383 . S
C634 C633 1.379 . S
H635 C629 0.959 . S
H636 C629 0.961 . S
H637 C629 0.960 . S
H638 C630 0.930 . S
H639 C631 0.929 . S
H640 C648 0.929 . S
H641 C650 0.930 . S
H642 C652 0.930 . S
H643 C655 0.929 . S
H644 C658 0.930 . S
H645 C660 0.960 . S
H646 C660 0.960 . S
H647 C660 0.960 . S
C648 H640 0.929 . S
C648 C649 1.377 . S
C648 C650 1.384 . S
C649 C648 1.377 . S
C649 C655 1.390 . S
C650 H641 0.930 . S
C650 C648 1.384 . S
C650 C651 1.372 . S
C651 C650 1.372 . S
C651 C652 1.400 . S
C651 C656 1.490 . S
C652 H642 0.930 . S
C652 C651 1.400 . S
C652 C655 1.386 . S
H653 C669 0.930 . S
H654 C670 0.931 . S
C655 H643 0.929 . S
C655 C649 1.390 . S
C655 C652 1.386 . S
C656 C651 1.490 . S
C656 C658 1.395 . S
C656 C659 1.403 . S
H657 C663 0.930 . S
C658 H644 0.930 . S
C658 C656 1.395 . S
C658 C661 1.403 . S
C659 C656 1.403 . S
C659 C660 1.524 . S
C659 C663 1.400 . S
C660 H645 0.960 . S
C660 H646 0.960 . S
C660 H647 0.960 . S
C660 C659 1.524 . S
C661 C658 1.403 . S
C661 C662 1.392 . S
C661 C665 1.495 . S
C662 C661 1.392 . S
C662 C663 1.385 . S
C662 C664 1.478 . S
C663 H657 0.930 . S
C663 C659 1.400 . S
C663 C662 1.385 . S
C664 C662 1.478 . S
C664 C666 1.381 . S
C664 C670 1.383 . S
C665 C661 1.495 . S
C665 H671 0.959 . S
C665 H672 0.961 . S
C665 H673 0.960 . S
C666 C664 1.381 . S
C666 C667 1.394 . S
C666 H674 0.930 . S
C667 C666 1.394 . S
C667 C668 1.383 . S
C667 H675 0.929 . S
C668 C667 1.383 . S
C668 C669 1.377 . S
C669 H653 0.930 . S
C669 C668 1.377 . S
C669 C670 1.379 . S
C670 H654 0.931 . S
C670 C664 1.383 . S
C670 C669 1.379 . S
H671 C665 0.959 . S
H672 C665 0.961 . S
H673 C665 0.960 . S
H674 C666 0.930 . S
H675 C667 0.929 . S
H676 C684 0.929 . S
H677 C686 0.930 . S
H678 C688 0.930 . S
H679 C691 0.929 . S
H680 C694 0.930 . S
H681 C696 0.960 . S
H682 C696 0.960 . S
H683 C696 0.960 . S
C684 H676 0.929 . S
C684 C685 1.377 . S
C684 C686 1.384 . S
C685 C684 1.377 . S
C685 C691 1.390 . S
C686 H677 0.930 . S
C686 C684 1.384 . S
C686 C687 1.372 . S
C687 C686 1.372 . S
C687 C688 1.400 . S
C687 C692 1.490 . S
C688 H678 0.930 . S
C688 C687 1.400 . S
C688 C691 1.386 . S
H689 C705 0.930 . S
H690 C706 0.931 . S
C691 H679 0.929 . S
C691 C685 1.390 . S
C691 C688 1.386 . S
C692 C687 1.490 . S
C692 C694 1.395 . S
C692 C695 1.403 . S
H693 C699 0.930 . S
C694 H680 0.930 . S
C694 C692 1.395 . S
C694 C697 1.403 . S
C695 C692 1.403 . S
C695 C696 1.524 . S
C695 C699 1.400 . S
C696 H681 0.960 . S
C696 H682 0.960 . S
C696 H683 0.960 . S
C696 C695 1.524 . S
C697 C694 1.403 . S
C697 C698 1.392 . S
C697 C701 1.495 . S
C698 C697 1.392 . S
C698 C699 1.385 . S
C698 C700 1.478 . S
C699 H693 0.930 . S
C699 C695 1.400 . S
C699 C698 1.385 . S
C700 C698 1.478 . S
C700 C702 1.381 . S
C700 C706 1.383 . S
C701 C697 1.495 . S
C701 H707 0.959 . S
C701 H708 0.961 . S
C701 H709 0.960 . S
C702 C700 1.381 . S
C702 C703 1.394 . S
C702 H710 0.930 . S
C703 C702 1.394 . S
C703 C704 1.383 . S
C703 H711 0.929 . S
C704 C703 1.383 . S
C704 C705 1.377 . S
C705 H689 0.930 . S
C705 C704 1.377 . S
C705 C706 1.379 . S
C706 H690 0.931 . S
C706 C700 1.383 . S
C706 C705 1.379 . S
H707 C701 0.959 . S
H708 C701 0.961 . S
H709 C701 0.960 . S
H710 C702 0.930 . S
H711 C703 0.929 . S
H712 C720 0.929 . S
H713 C722 0.930 . S
H714 C724 0.930 . S
H715 C727 0.939 . S
H716 C730 0.930 . S
H717 C732 0.960 1_655 S
H718 C732 0.960 . S
H719 C732 0.960 1_655 S
C720 H712 0.929 . S
C720 C721 1.377 . S
C720 C722 1.384 . S
C721 C720 1.377 . S
C721 C727 1.390 . S
C722 H713 0.930 . S
C722 C720 1.384 . S
C722 C723 1.372 . S
C723 C722 1.372 . S
C723 C724 1.400 . S
C723 C728 1.490 . S
C724 H714 0.930 . S
C724 C723 1.400 . S
C724 C727 1.386 . S
H725 C741 0.930 . S
H726 C742 0.931 . S
C727 H715 0.939 . S
C727 C721 1.390 . S
C727 C724 1.386 . S
C728 C723 1.490 . S
C728 C730 1.395 . S
C728 C731 1.403 . S
H729 C735 0.930 . S
C730 H716 0.930 . S
C730 C728 1.395 . S
C730 C733 1.403 . S
C731 C728 1.403 . S
C731 C732 1.524 . S
C731 C735 1.400 . S
C732 H717 0.960 1_455 S
C732 H718 0.960 . S
C732 H719 0.960 1_455 S
C732 C731 1.524 . S
C733 C730 1.403 . S
C733 C734 1.392 . S
C733 C737 1.495 . S
C734 C733 1.392 . S
C734 C735 1.385 . S
C734 C736 1.478 . S
C735 H729 0.930 . S
C735 C731 1.400 . S
C735 C734 1.385 . S
C736 C734 1.478 . S
C736 C738 1.381 . S
C736 C742 1.383 . S
C737 C733 1.495 . S
C737 H743 0.959 . S
C737 H744 0.961 . S
C737 H745 0.960 . S
C738 C736 1.381 . S
C738 C739 1.394 . S
C738 H746 0.930 . S
C739 C738 1.394 . S
C739 C740 1.383 . S
C739 H747 0.929 . S
C740 C739 1.383 . S
C740 C741 1.377 . S
C741 H725 0.930 . S
C741 C740 1.377 . S
C741 C742 1.379 . S
C742 H726 0.931 . S
C742 C736 1.383 . S
C742 C741 1.379 . S
H743 C737 0.959 . S
H744 C737 0.961 . S
H745 C737 0.960 . S
H746 C738 0.930 . S
H747 C739 0.929 . S
H748 C756 0.929 . S
H749 C758 0.930 . S
H750 C760 0.930 . S
H751 C763 0.929 1_565 S
H752 C766 0.930 . S
H753 C768 0.960 . S
H754 C768 0.960 . S
H755 C768 0.960 . S
C756 H748 0.929 . S
C756 C757 1.377 . S
C756 C758 1.384 . S
C757 C756 1.377 . S
C757 C763 1.390 . S
C758 H749 0.930 . S
C758 C756 1.384 . S
C758 C759 1.372 . S
C759 C758 1.372 . S
C759 C760 1.400 . S
C759 C764 1.490 . S
C760 H750 0.930 . S
C760 C759 1.400 . S
C760 C763 1.386 . S
H761 C777 0.930 . S
H762 C778 0.931 . S
C763 H751 0.929 1_545 S
C763 C757 1.390 . S
C763 C760 1.386 . S
C764 C759 1.490 . S
C764 C766 1.395 . S
C764 C767 1.403 . S
H765 C771 0.930 . S
C766 H752 0.930 . S
C766 C764 1.395 . S
C766 C769 1.403 . S
C767 C764 1.403 . S
C767 C768 1.524 . S
C767 C771 1.400 . S
C768 H753 0.960 . S
C768 H754 0.960 . S
C768 H755 0.960 . S
C768 C767 1.524 . S
C769 C766 1.403 . S
C769 C770 1.392 . S
C769 C773 1.495 . S
C770 C769 1.392 . S
C770 C771 1.385 . S
C770 C772 1.478 . S
C771 H765 0.930 . S
C771 C767 1.400 . S
C771 C770 1.385 . S
C772 C770 1.478 . S
C772 C774 1.381 . S
C772 C778 1.383 . S
C773 C769 1.495 . S
C773 H779 0.959 . S
C773 H780 0.961 . S
C773 H781 0.960 . S
C774 C772 1.381 . S
C774 C775 1.394 . S
C774 H782 0.930 . S
C775 C774 1.394 . S
C775 C776 1.383 . S
C775 H783 0.929 . S
C776 C775 1.383 . S
C776 C777 1.377 . S
C777 H761 0.930 . S
C777 C776 1.377 . S
C777 C778 1.379 . S
C778 H762 0.931 . S
C778 C772 1.383 . S
C778 C777 1.379 . S
H779 C773 0.959 . S
H780 C773 0.961 . S
H781 C773 0.960 . S
H782 C774 0.930 . S
H783 C775 0.929 . S
H784 C792 0.929 . S
H785 C794 0.930 . S
H786 C796 0.928 . S
H787 C799 0.929 1_455 S
H788 C802 0.930 . S
H789 C804 0.960 . S
H790 C804 0.960 . S
H791 C804 0.960 . S
C792 H784 0.929 . S
C792 C793 1.377 . S
C792 C794 1.384 . S
C793 C792 1.377 . S
C793 C799 1.390 . S
C794 H785 0.930 . S
C794 C792 1.384 . S
C794 C795 1.372 . S
C795 C794 1.372 . S
C795 C796 1.400 . S
C795 C800 1.490 . S
C796 H786 0.928 . S
C796 C795 1.400 . S
C796 C799 1.386 . S
H797 C813 0.930 . S
H798 C814 0.931 . S
C799 H787 0.929 1_655 S
C799 C793 1.390 . S
C799 C796 1.386 . S
C800 C795 1.490 . S
C800 C802 1.395 . S
C800 C803 1.403 . S
H801 C807 0.930 . S
C802 H788 0.930 . S
C802 C800 1.395 . S
C802 C805 1.403 . S
C803 C800 1.403 . S
C803 C804 1.524 . S
C803 C807 1.400 . S
C804 H789 0.960 . S
C804 H790 0.960 . S
C804 H791 0.960 . S
C804 C803 1.524 . S
C805 C802 1.403 . S
C805 C806 1.392 . S
C805 C809 1.495 . S
C806 C805 1.392 . S
C806 C807 1.385 . S
C806 C808 1.478 . S
C807 H801 0.930 . S
C807 C803 1.400 . S
C807 C806 1.385 . S
C808 C806 1.478 . S
C808 C810 1.381 . S
C808 C814 1.383 . S
C809 C805 1.495 . S
C809 H815 0.959 . S
C809 H816 0.961 . S
C809 H817 0.960 . S
C810 C808 1.381 . S
C810 C811 1.394 . S
C810 H818 0.930 . S
C811 C810 1.394 . S
C811 C812 1.383 . S
C811 H819 0.929 . S
C812 C811 1.383 . S
C812 C813 1.377 . S
C813 H797 0.930 . S
C813 C812 1.377 . S
C813 C814 1.379 . S
C814 H798 0.931 . S
C814 C808 1.383 . S
C814 C813 1.379 . S
H815 C809 0.959 . S
H816 C809 0.961 . S
H817 C809 0.960 . S
H818 C810 0.930 . S
H819 C811 0.929 . S
H820 C828 0.929 . S
H821 C830 0.930 . S
H822 C832 0.930 . S
H823 C835 0.929 1_545 S
H824 C838 0.930 . S
H825 C840 0.960 . S
H826 C840 0.960 . S
H827 C840 0.960 . S
C828 H820 0.929 . S
C828 C829 1.377 . S
C828 C830 1.384 . S
C829 C828 1.377 . S
C829 C835 1.390 . S
C830 H821 0.930 . S
C830 C828 1.384 . S
C830 C831 1.372 . S
C831 C830 1.372 . S
C831 C832 1.400 . S
C831 C836 1.490 . S
C832 H822 0.930 . S
C832 C831 1.400 . S
C832 C835 1.386 . S
H833 C849 0.930 . S
H834 C850 0.931 . S
C835 H823 0.929 1_565 S
C835 C829 1.390 . S
C835 C832 1.386 . S
C836 C831 1.490 . S
C836 C838 1.395 . S
C836 C839 1.403 . S
H837 C843 0.930 . S
C838 H824 0.930 . S
C838 C836 1.395 . S
C838 C841 1.403 . S
C839 C836 1.403 . S
C839 C840 1.524 . S
C839 C843 1.400 . S
C840 H825 0.960 . S
C840 H826 0.960 . S
C840 H827 0.960 . S
C840 C839 1.524 . S
C841 C838 1.403 . S
C841 C842 1.392 . S
C841 C845 1.495 . S
C842 C841 1.392 . S
C842 C843 1.385 . S
C842 C844 1.478 . S
C843 H837 0.930 . S
C843 C839 1.400 . S
C843 C842 1.385 . S
C844 C842 1.478 . S
C844 C846 1.381 . S
C844 C850 1.383 . S
C845 C841 1.495 . S
C845 H851 0.959 . S
C845 H852 0.961 . S
C845 H853 0.960 . S
C846 C844 1.381 . S
C846 C847 1.394 . S
C846 H854 0.930 . S
C847 C846 1.394 . S
C847 C848 1.383 . S
C847 H855 0.929 . S
C848 C847 1.383 . S
C848 C849 1.377 . S
C849 H833 0.930 . S
C849 C848 1.377 . S
C849 C850 1.379 . S
C850 H834 0.931 . S
C850 C844 1.383 . S
C850 C849 1.379 . S
H851 C845 0.959 . S
H852 C845 0.961 . S
H853 C845 0.960 . S
H854 C846 0.930 . S
H855 C847 0.929 . S
H856 C864 0.929 1_545 S
H857 C866 0.930 . S
H858 C868 0.930 . S
H859 C871 0.929 . S
H860 C874 0.930 . S
H861 C876 0.960 . S
H862 C876 0.960 . S
H863 C876 0.960 . S
C864 H856 0.929 1_565 S
C864 C865 1.377 . S
C864 C866 1.384 . S
C865 C864 1.377 . S
C865 C871 1.390 . S
C866 H857 0.930 . S
C866 C864 1.384 . S
C866 C867 1.372 . S
C867 C866 1.372 . S
C867 C868 1.400 . S
C867 C872 1.490 . S
C868 H858 0.930 . S
C868 C867 1.400 . S
C868 C871 1.386 . S
H869 C885 0.930 . S
H870 C886 0.931 . S
C871 H859 0.929 . S
C871 C865 1.390 . S
C871 C868 1.386 . S
C872 C867 1.490 . S
C872 C874 1.395 . S
C872 C875 1.403 . S
H873 C879 0.930 . S
C874 H860 0.930 . S
C874 C872 1.395 . S
C874 C877 1.403 . S
C875 C872 1.403 . S
C875 C876 1.524 . S
C875 C879 1.400 . S
C876 H861 0.960 . S
C876 H862 0.960 . S
C876 H863 0.960 . S
C876 C875 1.524 . S
C877 C874 1.403 . S
C877 C878 1.392 . S
C877 C881 1.495 . S
C878 C877 1.392 . S
C878 C879 1.385 . S
C878 C880 1.478 . S
C879 H873 0.930 . S
C879 C875 1.400 . S
C879 C878 1.385 . S
C880 C878 1.478 . S
C880 C882 1.381 . S
C880 C886 1.383 . S
C881 C877 1.495 . S
C881 H887 0.959 . S
C881 H888 0.961 . S
C881 H889 0.960 . S
C882 C880 1.381 . S
C882 C883 1.394 . S
C882 H890 0.930 . S
C883 C882 1.394 . S
C883 C884 1.383 . S
C883 H891 0.929 . S
C884 C883 1.383 . S
C884 C885 1.377 . S
C885 H869 0.930 . S
C885 C884 1.377 . S
C885 C886 1.379 . S
C886 H870 0.931 . S
C886 C880 1.383 . S
C886 C885 1.379 . S
H887 C881 0.959 . S
H888 C881 0.961 . S
H889 C881 0.960 . S
H890 C882 0.930 . S
H891 C883 0.929 . S
H892 C900 0.929 . S
H893 C902 0.930 . S
H894 C904 0.930 . S
H895 C907 0.894 1_655 S
H896 C910 0.930 . S
H897 C912 0.960 . S
H898 C912 0.960 . S
H899 C912 0.960 . S
C900 H892 0.929 . S
C900 C901 1.377 . S
C900 C902 1.384 . S
C901 C900 1.377 . S
C901 C907 1.390 . S
C902 H893 0.930 . S
C902 C900 1.384 . S
C902 C903 1.372 . S
C903 C902 1.372 . S
C903 C904 1.400 . S
C903 C908 1.490 . S
C904 H894 0.930 . S
C904 C903 1.400 . S
C904 C907 1.386 . S
H905 C921 0.930 . S
H906 C922 0.931 . S
C907 H895 0.894 1_455 S
C907 C901 1.390 . S
C907 C904 1.386 . S
C908 C903 1.490 . S
C908 C910 1.395 . S
C908 C911 1.403 . S
H909 C915 0.930 . S
C910 H896 0.930 . S
C910 C908 1.395 . S
C910 C913 1.403 . S
C911 C908 1.403 . S
C911 C912 1.524 . S
C911 C915 1.400 . S
C912 H897 0.960 . S
C912 H898 0.960 . S
C912 H899 0.960 . S
C912 C911 1.524 . S
C913 C910 1.403 . S
C913 C914 1.392 . S
C913 C917 1.495 . S
C914 C913 1.392 . S
C914 C915 1.385 . S
C914 C916 1.478 . S
C915 H909 0.930 . S
C915 C911 1.400 . S
C915 C914 1.385 . S
C916 C914 1.478 . S
C916 C918 1.381 . S
C916 C922 1.383 . S
C917 C913 1.495 . S
C917 H923 0.959 . S
C917 H924 0.961 . S
C917 H925 0.960 . S
C918 C916 1.381 . S
C918 C919 1.394 . S
C918 H926 0.930 . S
C919 C918 1.394 . S
C919 C920 1.383 . S
C919 H927 0.929 . S
C920 C919 1.383 . S
C920 C921 1.377 . S
C921 H905 0.930 . S
C921 C920 1.377 . S
C921 C922 1.379 . S
C922 H906 0.931 . S
C922 C916 1.383 . S
C922 C921 1.379 . S
H923 C917 0.959 . S
H924 C917 0.961 . S
H925 C917 0.960 . S
H926 C918 0.930 . S
H927 C919 0.929 . S
H928 C936 0.929 . S
H929 C938 0.930 . S
H930 C940 0.930 . S
H931 C943 0.929 . S
H932 C946 0.930 . S
H933 C948 0.960 . S
H934 C948 0.960 . S
H935 C948 0.960 . S
C936 H928 0.929 . S
C936 C937 1.377 . S
C936 C938 1.384 . S
C937 C936 1.377 . S
C937 C943 1.390 . S
C938 H929 0.930 . S
C938 C936 1.384 . S
C938 C939 1.372 . S
C939 C938 1.372 . S
C939 C940 1.400 . S
C939 C944 1.490 . S
C940 H930 0.930 . S
C940 C939 1.400 . S
C940 C943 1.386 . S
H941 C957 0.930 . S
H942 C958 0.931 . S
C943 H931 0.929 . S
C943 C937 1.390 . S
C943 C940 1.386 . S
C944 C939 1.490 . S
C944 C946 1.395 . S
C944 C947 1.403 . S
H945 C951 0.930 . S
C946 H932 0.930 . S
C946 C944 1.395 . S
C946 C949 1.403 . S
C947 C944 1.403 . S
C947 C948 1.524 . S
C947 C951 1.400 . S
C948 H933 0.960 . S
C948 H934 0.960 . S
C948 H935 0.960 . S
C948 C947 1.524 . S
C949 C946 1.403 . S
C949 C950 1.392 . S
C949 C953 1.495 . S
C950 C949 1.392 . S
C950 C951 1.385 . S
C950 C952 1.478 . S
C951 H945 0.930 . S
C951 C947 1.400 . S
C951 C950 1.385 . S
C952 C950 1.478 . S
C952 C954 1.381 . S
C952 C958 1.383 . S
C953 C949 1.495 . S
C953 H959 0.959 1_545 S
C953 H960 0.967 . S
C953 H961 0.960 . S
C954 C952 1.381 . S
C954 C955 1.394 . S
C954 H962 0.930 . S
C955 C954 1.394 . S
C955 C956 1.383 . S
C955 H963 0.929 . S
C956 C955 1.383 . S
C956 C957 1.377 . S
C957 H941 0.930 . S
C957 C956 1.377 . S
C957 C958 1.379 . S
C958 H942 0.931 . S
C958 C952 1.383 . S
C958 C957 1.379 . S
H959 C953 0.959 1_565 S
H960 C953 0.967 . S
H961 C953 0.960 . S
H962 C954 0.930 . S
H963 C955 0.929 . S
H964 C972 0.929 1_455 S
H965 C974 0.947 . S
H966 C976 0.930 . S
H967 C979 0.929 . S
H968 C982 0.930 . S
H969 C984 0.960 . S
H970 C984 0.960 . S
H971 C984 0.960 . S
C972 H964 0.929 1_655 S
C972 C973 1.377 . S
C972 C974 1.384 . S
C973 C972 1.377 . S
C973 C979 1.390 . S
C974 H965 0.947 . S
C974 C972 1.384 . S
C974 C975 1.372 . S
C975 C974 1.372 . S
C975 C976 1.400 . S
C975 C980 1.490 . S
C976 H966 0.930 . S
C976 C975 1.400 . S
C976 C979 1.386 . S
H977 C993 0.930 . S
H978 C994 0.931 . S
C979 H967 0.929 . S
C979 C973 1.390 . S
C979 C976 1.386 . S
C980 C975 1.490 . S
C980 C982 1.395 . S
C980 C983 1.403 . S
H981 C987 0.930 . S
C982 H968 0.930 . S
C982 C980 1.395 . S
C982 C985 1.403 . S
C983 C980 1.403 . S
C983 C984 1.524 . S
C983 C987 1.400 . S
C984 H969 0.960 . S
C984 H970 0.960 . S
C984 H971 0.960 . S
C984 C983 1.524 . S
C985 C982 1.403 . S
C985 C986 1.392 . S
C985 C989 1.495 . S
C986 C985 1.392 . S
C986 C987 1.385 . S
C986 C988 1.478 . S
C987 H981 0.930 . S
C987 C983 1.400 . S
C987 C986 1.385 . S
C988 C986 1.478 . S
C988 C990 1.381 . S
C988 C994 1.383 . S
C989 C985 1.495 . S
C989 H995 0.959 . S
C989 H996 0.961 . S
C989 H997 0.960 . S
C990 C988 1.381 . S
C990 C991 1.394 . S
C990 H998 0.930 . S
C991 C990 1.394 . S
C991 C992 1.383 . S
C991 H999 0.929 . S
C992 C991 1.383 . S
C992 C993 1.377 . S
C993 H977 0.930 . S
C993 C992 1.377 . S
C993 C994 1.379 . S
C994 H978 0.931 . S
C994 C988 1.383 . S
C994 C993 1.379 . S
H995 C989 0.959 . S
H996 C989 0.961 . S
H997 C989 0.960 . S
H998 C990 0.930 . S
H999 C991 0.929 . S
H1000 C1008 0.929 . S
H1001 C1010 0.930 . S
H1002 C1012 0.930 . S
H1003 C1015 0.929 . S
H1004 C1018 0.930 . S
H1005 C1020 0.960 . S
H1006 C1020 0.960 . S
H1007 C1020 0.960 . S
C1008 H1000 0.929 . S
C1008 C1009 1.377 . S
C1008 C1010 1.384 . S
C1009 C1008 1.377 . S
C1009 C1015 1.390 . S
C1010 H1001 0.930 . S
C1010 C1008 1.384 . S
C1010 C1011 1.372 . S
C1011 C1010 1.372 . S
C1011 C1012 1.400 . S
C1011 C1016 1.490 . S
C1012 H1002 0.930 . S
C1012 C1011 1.400 . S
C1012 C1015 1.386 . S
H1013 C1029 0.930 . S
H1014 C1030 0.931 . S
C1015 H1003 0.929 . S
C1015 C1009 1.390 . S
C1015 C1012 1.386 . S
C1016 C1011 1.490 . S
C1016 C1018 1.395 . S
C1016 C1019 1.403 . S
H1017 C1023 0.930 . S
C1018 H1004 0.930 . S
C1018 C1016 1.395 . S
C1018 C1021 1.403 . S
C1019 C1016 1.403 . S
C1019 C1020 1.524 . S
C1019 C1023 1.400 . S
C1020 H1005 0.960 . S
C1020 H1006 0.960 . S
C1020 H1007 0.960 . S
C1020 C1019 1.524 . S
C1021 C1018 1.403 . S
C1021 C1022 1.392 . S
C1021 C1025 1.495 . S
C1022 C1021 1.392 . S
C1022 C1023 1.385 . S
C1022 C1024 1.478 . S
C1023 H1017 0.930 . S
C1023 C1019 1.400 . S
C1023 C1022 1.385 . S
C1024 C1022 1.478 . S
C1024 C1026 1.381 . S
C1024 C1030 1.383 . S
C1025 C1021 1.495 . S
C1025 H1031 0.959 . S
C1025 H1032 0.961 . S
C1025 H1033 0.960 . S
C1026 C1024 1.381 . S
C1026 C1027 1.394 . S
C1026 H1034 0.930 . S
C1027 C1026 1.394 . S
C1027 C1028 1.383 . S
C1027 H1035 0.929 . S
C1028 C1027 1.383 . S
C1028 C1029 1.377 . S
C1029 H1013 0.930 . S
C1029 C1028 1.377 . S
C1029 C1030 1.379 . S
C1030 H1014 0.931 . S
C1030 C1024 1.383 . S
C1030 C1029 1.379 . S
H1031 C1025 0.959 . S
H1032 C1025 0.961 . S
H1033 C1025 0.960 . S
H1034 C1026 0.930 . S
H1035 C1027 0.929 . S
H1036 C1044 0.929 . S
H1037 C1046 0.930 . S
H1038 C1048 0.930 . S
H1039 C1051 0.929 . S
H1040 C1054 0.930 . S
H1041 C1056 0.960 . S
H1042 C1056 0.960 . S
H1043 C1056 0.960 . S
C1044 H1036 0.929 . S
C1044 C1045 1.377 . S
C1044 C1046 1.384 . S
C1045 C1044 1.377 . S
C1045 C1051 1.390 . S
C1046 H1037 0.930 . S
C1046 C1044 1.384 . S
C1046 C1047 1.372 . S
C1047 C1046 1.372 . S
C1047 C1048 1.400 . S
C1047 C1052 1.490 . S
C1048 H1038 0.930 . S
C1048 C1047 1.400 . S
C1048 C1051 1.386 . S
H1049 C1065 0.930 . S
H1050 C1066 0.931 . S
C1051 H1039 0.929 . S
C1051 C1045 1.390 . S
C1051 C1048 1.386 . S
C1052 C1047 1.490 . S
C1052 C1054 1.395 . S
C1052 C1055 1.403 . S
H1053 C1059 0.930 . S
C1054 H1040 0.930 . S
C1054 C1052 1.395 . S
C1054 C1057 1.403 . S
C1055 C1052 1.403 . S
C1055 C1056 1.524 . S
C1055 C1059 1.400 . S
C1056 H1041 0.960 . S
C1056 H1042 0.960 . S
C1056 H1043 0.960 . S
C1056 C1055 1.524 . S
C1057 C1054 1.403 . S
C1057 C1058 1.392 . S
C1057 C1061 1.495 . S
C1058 C1057 1.392 . S
C1058 C1059 1.385 . S
C1058 C1060 1.478 . S
C1059 H1053 0.930 . S
C1059 C1055 1.400 . S
C1059 C1058 1.385 . S
C1060 C1058 1.478 . S
C1060 C1062 1.381 . S
C1060 C1066 1.383 . S
C1061 C1057 1.495 . S
C1061 H1067 0.959 . S
C1061 H1068 0.961 . S
C1061 H1069 0.960 . S
C1062 C1060 1.381 . S
C1062 C1063 1.394 . S
C1062 H1070 0.930 . S
C1063 C1062 1.394 . S
C1063 C1064 1.383 . S
C1063 H1071 0.929 . S
C1064 C1063 1.383 . S
C1064 C1065 1.377 . S
C1065 H1049 0.930 . S
C1065 C1064 1.377 . S
C1065 C1066 1.379 . S
C1066 H1050 0.931 . S
C1066 C1060 1.383 . S
C1066 C1065 1.379 . S
H1067 C1061 0.959 . S
H1068 C1061 0.961 . S
H1069 C1061 0.960 . S
H1070 C1062 0.930 . S
H1071 C1063 0.929 . S
H1072 C1080 0.929 . S
H1073 C1082 0.930 . S
H1074 C1084 0.930 . S
H1075 C1087 0.929 . S
H1076 C1090 0.930 . S
H1077 C1092 0.960 . S
H1078 C1092 0.960 . S
H1079 C1092 0.960 . S
C1080 H1072 0.929 . S
C1080 C1081 1.377 . S
C1080 C1082 1.384 . S
C1081 C1080 1.377 . S
C1081 C1087 1.390 . S
C1082 H1073 0.930 . S
C1082 C1080 1.384 . S
C1082 C1083 1.372 . S
C1083 C1082 1.372 . S
C1083 C1084 1.400 . S
C1083 C1088 1.490 . S
C1084 H1074 0.930 . S
C1084 C1083 1.400 . S
C1084 C1087 1.386 . S
H1085 C1101 0.930 . S
H1086 C1102 0.931 . S
C1087 H1075 0.929 . S
C1087 C1081 1.390 . S
C1087 C1084 1.386 . S
C1088 C1083 1.490 . S
C1088 C1090 1.395 . S
C1088 C1091 1.403 . S
H1089 C1095 0.930 . S
C1090 H1076 0.930 . S
C1090 C1088 1.395 . S
C1090 C1093 1.403 . S
C1091 C1088 1.403 . S
C1091 C1092 1.524 . S
C1091 C1095 1.400 . S
C1092 H1077 0.960 . S
C1092 H1078 0.960 . S
C1092 H1079 0.960 . S
C1092 C1091 1.524 . S
C1093 C1090 1.403 . S
C1093 C1094 1.392 . S
C1093 C1097 1.495 . S
C1094 C1093 1.392 . S
C1094 C1095 1.385 . S
C1094 C1096 1.478 . S
C1095 H1089 0.930 . S
C1095 C1091 1.400 . S
C1095 C1094 1.385 . S
C1096 C1094 1.478 . S
C1096 C1098 1.381 . S
C1096 C1102 1.383 . S
C1097 C1093 1.495 . S
C1097 H1103 0.959 . S
C1097 H1104 0.961 . S
C1097 H1105 0.960 . S
C1098 C1096 1.381 . S
C1098 C1099 1.394 . S
C1098 H1106 0.930 . S
C1099 C1098 1.394 . S
C1099 C1100 1.383 . S
C1099 H1107 0.929 . S
C1100 C1099 1.383 . S
C1100 C1101 1.377 . S
C1101 H1085 0.930 . S
C1101 C1100 1.377 . S
C1101 C1102 1.379 . S
C1102 H1086 0.931 . S
C1102 C1096 1.383 . S
C1102 C1101 1.379 . S
H1103 C1097 0.959 . S
H1104 C1097 0.961 . S
H1105 C1097 0.960 . S
H1106 C1098 0.930 . S
H1107 C1099 0.929 . S
H1108 C1116 0.929 . S
H1109 C1118 0.930 . S
H1110 C1120 0.930 . S
H1111 C1123 0.929 . S
H1112 C1126 0.930 . S
H1113 C1128 0.960 . S
H1114 C1128 0.960 . S
H1115 C1128 0.960 . S
C1116 H1108 0.929 . S
C1116 C1117 1.377 . S
C1116 C1118 1.384 . S
C1117 C1116 1.377 . S
C1117 C1123 1.390 . S
C1118 H1109 0.930 . S
C1118 C1116 1.384 . S
C1118 C1119 1.372 . S
C1119 C1118 1.372 . S
C1119 C1120 1.400 . S
C1119 C1124 1.490 . S
C1120 H1110 0.930 . S
C1120 C1119 1.400 . S
C1120 C1123 1.386 . S
H1121 C1137 0.930 . S
H1122 C1138 0.931 . S
C1123 H1111 0.929 . S
C1123 C1117 1.390 . S
C1123 C1120 1.386 . S
C1124 C1119 1.490 . S
C1124 C1126 1.395 . S
C1124 C1127 1.403 . S
H1125 C1131 0.930 . S
C1126 H1112 0.930 . S
C1126 C1124 1.395 . S
C1126 C1129 1.403 . S
C1127 C1124 1.403 . S
C1127 C1128 1.524 . S
C1127 C1131 1.400 . S
C1128 H1113 0.960 . S
C1128 H1114 0.960 . S
C1128 H1115 0.960 . S
C1128 C1127 1.524 . S
C1129 C1126 1.403 . S
C1129 C1130 1.392 . S
C1129 C1133 1.495 . S
C1130 C1129 1.392 . S
C1130 C1131 1.385 . S
C1130 C1132 1.478 . S
C1131 H1125 0.930 . S
C1131 C1127 1.400 . S
C1131 C1130 1.385 . S
C1132 C1130 1.478 . S
C1132 C1134 1.381 . S
C1132 C1138 1.383 . S
C1133 C1129 1.495 . S
C1133 H1139 0.959 . S
C1133 H1140 0.961 . S
C1133 H1141 0.960 . S
C1134 C1132 1.381 . S
C1134 C1135 1.394 . S
C1134 H1142 0.930 . S
C1135 C1134 1.394 . S
C1135 C1136 1.383 . S
C1135 H1143 0.929 . S
C1136 C1135 1.383 . S
C1136 C1137 1.377 . S
C1137 H1121 0.930 . S
C1137 C1136 1.377 . S
C1137 C1138 1.379 . S
C1138 H1122 0.931 . S
C1138 C1132 1.383 . S
C1138 C1137 1.379 . S
H1139 C1133 0.959 . S
H1140 C1133 0.961 . S
H1141 C1133 0.960 . S
H1142 C1134 0.930 . S
H1143 C1135 0.929 . S
H1144 C1152 0.929 . S
H1145 C1154 0.930 . S
H1146 C1156 0.930 . S
H1147 C1159 0.929 . S
H1148 C1162 0.930 . S
H1149 C1164 0.960 . S
H1150 C1164 0.960 . S
H1151 C1164 0.960 . S
C1152 H1144 0.929 . S
C1152 C1153 1.377 . S
C1152 C1154 1.384 . S
C1153 C1152 1.377 . S
C1153 C1159 1.390 . S
C1154 H1145 0.930 . S
C1154 C1152 1.384 . S
C1154 C1155 1.372 . S
C1155 C1154 1.372 . S
C1155 C1156 1.400 . S
C1155 C1160 1.490 . S
C1156 H1146 0.930 . S
C1156 C1155 1.400 . S
C1156 C1159 1.386 . S
H1157 C1173 0.930 . S
H1158 C1174 0.931 . S
C1159 H1147 0.929 . S
C1159 C1153 1.390 . S
C1159 C1156 1.386 . S
C1160 C1155 1.490 . S
C1160 C1162 1.395 . S
C1160 C1163 1.403 . S
H1161 C1167 0.930 . S
C1162 H1148 0.930 . S
C1162 C1160 1.395 . S
C1162 C1165 1.403 . S
C1163 C1160 1.403 . S
C1163 C1164 1.524 . S
C1163 C1167 1.400 . S
C1164 H1149 0.960 . S
C1164 H1150 0.960 . S
C1164 H1151 0.960 . S
C1164 C1163 1.524 . S
C1165 C1162 1.403 . S
C1165 C1166 1.392 . S
C1165 C1169 1.495 . S
C1166 C1165 1.392 . S
C1166 C1167 1.385 . S
C1166 C1168 1.478 . S
C1167 H1161 0.930 . S
C1167 C1163 1.400 . S
C1167 C1166 1.385 . S
C1168 C1166 1.478 . S
C1168 C1170 1.381 . S
C1168 C1174 1.383 . S
C1169 C1165 1.495 . S
C1169 H1175 0.959 . S
C1169 H1176 0.961 . S
C1169 H1177 0.960 . S
C1170 C1168 1.381 . S
C1170 C1171 1.394 . S
C1170 H1178 0.930 . S
C1171 C1170 1.394 . S
C1171 C1172 1.383 . S
C1171 H1179 0.929 . S
C1172 C1171 1.383 . S
C1172 C1173 1.377 . S
C1173 H1157 0.930 . S
C1173 C1172 1.377 . S
C1173 C1174 1.379 . S
C1174 H1158 0.931 . S
C1174 C1168 1.383 . S
C1174 C1173 1.379 . S
H1175 C1169 0.959 . S
H1176 C1169 0.961 . S
H1177 C1169 0.960 . S
H1178 C1170 0.930 . S
H1179 C1171 0.929 . S
H1180 C1188 0.929 . S
H1181 C1190 0.930 . S
H1182 C1192 0.930 . S
H1183 C1195 0.929 . S
H1184 C1198 0.930 . S
H1185 C1200 0.960 . S
H1186 C1200 0.960 . S
H1187 C1200 0.960 . S
C1188 H1180 0.929 . S
C1188 C1189 1.377 . S
C1188 C1190 1.384 . S
C1189 C1188 1.377 . S
C1189 C1195 1.390 . S
C1190 H1181 0.930 . S
C1190 C1188 1.384 . S
C1190 C1191 1.372 . S
C1191 C1190 1.372 . S
C1191 C1192 1.400 . S
C1191 C1196 1.490 . S
C1192 H1182 0.930 . S
C1192 C1191 1.400 . S
C1192 C1195 1.386 . S
H1193 C1209 0.930 . S
H1194 C1210 0.931 . S
C1195 H1183 0.929 . S
C1195 C1189 1.390 . S
C1195 C1192 1.386 . S
C1196 C1191 1.490 . S
C1196 C1198 1.395 . S
C1196 C1199 1.403 . S
H1197 C1203 0.930 . S
C1198 H1184 0.930 . S
C1198 C1196 1.395 . S
C1198 C1201 1.403 . S
C1199 C1196 1.403 . S
C1199 C1200 1.524 . S
C1199 C1203 1.400 . S
C1200 H1185 0.960 . S
C1200 H1186 0.960 . S
C1200 H1187 0.960 . S
C1200 C1199 1.524 . S
C1201 C1198 1.403 . S
C1201 C1202 1.392 . S
C1201 C1205 1.495 . S
C1202 C1201 1.392 . S
C1202 C1203 1.385 . S
C1202 C1204 1.478 . S
C1203 H1197 0.930 . S
C1203 C1199 1.400 . S
C1203 C1202 1.385 . S
C1204 C1202 1.478 . S
C1204 C1206 1.381 . S
C1204 C1210 1.383 . S
C1205 C1201 1.495 . S
C1205 H1211 0.959 . S
C1205 H1212 0.961 . S
C1205 H1213 0.960 . S
C1206 C1204 1.381 . S
C1206 C1207 1.394 . S
C1206 H1214 0.930 . S
C1207 C1206 1.394 . S
C1207 C1208 1.383 . S
C1207 H1215 0.929 . S
C1208 C1207 1.383 . S
C1208 C1209 1.377 . S
C1209 H1193 0.930 . S
C1209 C1208 1.377 . S
C1209 C1210 1.379 . S
C1210 H1194 0.931 . S
C1210 C1204 1.383 . S
C1210 C1209 1.379 . S
H1211 C1205 0.959 . S
H1212 C1205 0.961 . S
H1213 C1205 0.960 . S
H1214 C1206 0.930 . S
H1215 C1207 0.929 . S
H1216 C1224 0.929 . S
H1217 C1226 0.930 . S
H1218 C1228 0.930 . S
H1219 C1231 0.929 . S
H1220 C1234 0.930 . S
H1221 C1236 0.960 . S
H1222 C1236 0.960 . S
H1223 C1236 0.960 . S
C1224 H1216 0.929 . S
C1224 C1225 1.377 . S
C1224 C1226 1.384 . S
C1225 C1224 1.377 . S
C1225 C1231 1.390 . S
C1226 H1217 0.930 . S
C1226 C1224 1.384 . S
C1226 C1227 1.372 . S
C1227 C1226 1.372 . S
C1227 C1228 1.400 . S
C1227 C1232 1.490 . S
C1228 H1218 0.930 . S
C1228 C1227 1.400 . S
C1228 C1231 1.386 . S
H1229 C1245 0.930 . S
H1230 C1246 0.931 . S
C1231 H1219 0.929 . S
C1231 C1225 1.390 . S
C1231 C1228 1.386 . S
C1232 C1227 1.490 . S
C1232 C1234 1.395 . S
C1232 C1235 1.403 . S
H1233 C1239 0.930 . S
C1234 H1220 0.930 . S
C1234 C1232 1.395 . S
C1234 C1237 1.403 . S
C1235 C1232 1.403 . S
C1235 C1236 1.524 . S
C1235 C1239 1.400 . S
C1236 H1221 0.960 . S
C1236 H1222 0.960 . S
C1236 H1223 0.960 . S
C1236 C1235 1.524 . S
C1237 C1234 1.403 . S
C1237 C1238 1.392 . S
C1237 C1241 1.495 . S
C1238 C1237 1.392 . S
C1238 C1239 1.385 . S
C1238 C1240 1.478 . S
C1239 H1233 0.930 . S
C1239 C1235 1.400 . S
C1239 C1238 1.385 . S
C1240 C1238 1.478 . S
C1240 C1242 1.381 . S
C1240 C1246 1.383 . S
C1241 C1237 1.495 . S
C1241 H1247 0.959 . S
C1241 H1248 0.961 . S
C1241 H1249 0.960 . S
C1242 C1240 1.381 . S
C1242 C1243 1.394 . S
C1242 H1250 0.930 . S
C1243 C1242 1.394 . S
C1243 C1244 1.383 . S
C1243 H1251 0.929 . S
C1244 C1243 1.383 . S
C1244 C1245 1.377 . S
C1245 H1229 0.930 . S
C1245 C1244 1.377 . S
C1245 C1246 1.379 . S
C1246 H1230 0.931 . S
C1246 C1240 1.383 . S
C1246 C1245 1.379 . S
H1247 C1241 0.959 . S
H1248 C1241 0.961 . S
H1249 C1241 0.960 . S
H1250 C1242 0.930 . S
H1251 C1243 0.929 . S
H1252 C1260 0.929 . S
H1253 C1262 0.930 . S
H1254 C1264 0.930 . S
H1255 C1267 0.929 . S
H1256 C1270 0.930 . S
H1257 C1272 0.960 . S
H1258 C1272 0.960 . S
H1259 C1272 0.960 . S
C1260 H1252 0.929 . S
C1260 C1261 1.377 . S
C1260 C1262 1.384 . S
C1261 C1260 1.377 . S
C1261 C1267 1.390 . S
C1262 H1253 0.930 . S
C1262 C1260 1.384 . S
C1262 C1263 1.372 . S
C1263 C1262 1.372 . S
C1263 C1264 1.400 . S
C1263 C1268 1.490 . S
C1264 H1254 0.930 . S
C1264 C1263 1.400 . S
C1264 C1267 1.386 . S
H1265 C1281 0.930 . S
H1266 C1282 0.931 . S
C1267 H1255 0.929 . S
C1267 C1261 1.390 . S
C1267 C1264 1.386 . S
C1268 C1263 1.490 . S
C1268 C1270 1.395 . S
C1268 C1271 1.403 . S
H1269 C1275 0.930 . S
C1270 H1256 0.930 . S
C1270 C1268 1.395 . S
C1270 C1273 1.403 . S
C1271 C1268 1.403 . S
C1271 C1272 1.524 . S
C1271 C1275 1.400 . S
C1272 H1257 0.960 . S
C1272 H1258 0.960 . S
C1272 H1259 0.960 . S
C1272 C1271 1.524 . S
C1273 C1270 1.403 . S
C1273 C1274 1.392 . S
C1273 C1277 1.495 . S
C1274 C1273 1.392 . S
C1274 C1275 1.385 . S
C1274 C1276 1.478 . S
C1275 H1269 0.930 . S
C1275 C1271 1.400 . S
C1275 C1274 1.385 . S
C1276 C1274 1.478 . S
C1276 C1278 1.381 . S
C1276 C1282 1.383 . S
C1277 C1273 1.495 . S
C1277 H1283 0.959 . S
C1277 H1284 0.961 . S
C1277 H1285 0.960 . S
C1278 C1276 1.381 . S
C1278 C1279 1.394 . S
C1278 H1286 0.930 . S
C1279 C1278 1.394 . S
C1279 C1280 1.383 . S
C1279 H1287 0.929 . S
C1280 C1279 1.383 . S
C1280 C1281 1.377 . S
C1281 H1265 0.930 . S
C1281 C1280 1.377 . S
C1281 C1282 1.379 . S
C1282 H1266 0.931 . S
C1282 C1276 1.383 . S
C1282 C1281 1.379 . S
H1283 C1277 0.959 . S
H1284 C1277 0.961 . S
H1285 C1277 0.960 . S
H1286 C1278 0.930 . S
H1287 C1279 0.929 . S
C433 C45 1.666 . S
C452 C119 1.657 . S
C469 C30 1.669 . S
C488 C159 1.691 . S
C505 C39 1.665 . S
C524 C199 1.664 . S
C560 C239 1.664 . S
C541 C34 1.666 . S
C577 C97 1.667 . S
C596 C279 1.685 . S
C632 C319 1.667 . S
C613 C82 1.668 . S
C668 C359 1.683 . S
C649 C91 1.670 . S
C704 C399 1.684 . S
C685 C86 1.665 . S
C740 C365 1.580 . S
C721 C26 1.515 . S
C776 C405 1.610 . S
C757 C36 1.541 . S
C812 C266 1.515 . S
C793 C32 1.506 . S
C848 C325 1.609 . S
C829 C42 1.541 . S
C865 C18 1.566 . S
C884 C306 1.657 . S
C920 C346 1.677 . S
C901 C50 1.593 . S
C937 C4 1.572 . S
C956 C386 1.655 . S
C973 C48 1.603 . S
C992 C285 1.639 . S
C1028 C205 1.567 . S
C1009 C78 1.506 . S
C1045 C88 1.541 . S
C1064 C245 1.610 . S
C1100 C106 1.536 . S
C1081 C84 1.501 . S
C1136 C165 1.599 . S
C1117 C94 1.533 . S
C1172 C146 1.648 . S
C1153 C70 1.561 . S
C1208 C186 1.674 . S
C1189 C102 1.588 . S
C1225 C56 1.567 . S
C1244 C226 1.649 . S
C1261 C100 1.601 . S
C1280 C125 1.589 . S
