# Generated by pormake.
# Topology anh, (6,3)-cn, num edge types: 1
# Building blocks:
#     Node 0, Type 0, BuildingBlock: NUHQIS_clean_sbu_0, # of connection points: 6
#     Node 1, Type 0, BuildingBlock: NUHQIS_clean_sbu_0, # of connection points: 6
#     Node 2, Type 0, BuildingBlock: NUHQIS_clean_sbu_0, # of connection points: 6
#     Node 3, Type 1, BuildingBlock: WUSLED_clean_sbu_0, # of connection points: 3
#     Node 4, Type 1, BuildingBlock: WUSLED_clean_sbu_0, # of connection points: 3
#     Node 5, Type 1, BuildingBlock: WUSLED_clean_sbu_0, # of connection points: 3
#     Node 6, Type 1, BuildingBlock: WUSLED_clean_sbu_0, # of connection points: 3
#     Node 7, Type 1, BuildingBlock: WUSLED_clean_sbu_0, # of connection points: 3
#     Node 8, Type 1, BuildingBlock: WUSLED_clean_sbu_0, # of connection points: 3
#     Edge 9, Type (0, 1), BuildingBlock: EZIPEK_clean_linker_0, # of connection points: 2
#     Edge 10, Type (0, 1), BuildingBlock: EZIPEK_clean_linker_0, # of connection points: 2
#     Edge 11, Type (0, 1), BuildingBlock: EZIPEK_clean_linker_0, # of connection points: 2
#     Edge 12, Type (0, 1), BuildingBlock: EZIPEK_clean_linker_0, # of connection points: 2
#     Edge 13, Type (0, 1), BuildingBlock: EZIPEK_clean_linker_0, # of connection points: 2
#     Edge 14, Type (0, 1), BuildingBlock: EZIPEK_clean_linker_0, # of connection points: 2
#     Edge 15, Type (0, 1), BuildingBlock: EZIPEK_clean_linker_0, # of connection points: 2
#     Edge 16, Type (0, 1), BuildingBlock: EZIPEK_clean_linker_0, # of connection points: 2
#     Edge 17, Type (0, 1), BuildingBlock: EZIPEK_clean_linker_0, # of connection points: 2
#     Edge 18, Type (0, 1), BuildingBlock: EZIPEK_clean_linker_0, # of connection points: 2
#     Edge 19, Type (0, 1), BuildingBlock: EZIPEK_clean_linker_0, # of connection points: 2
#     Edge 20, Type (0, 1), BuildingBlock: EZIPEK_clean_linker_0, # of connection points: 2
#     Edge 21, Type (0, 1), BuildingBlock: EZIPEK_clean_linker_0, # of connection points: 2
#     Edge 22, Type (0, 1), BuildingBlock: EZIPEK_clean_linker_0, # of connection points: 2
#     Edge 23, Type (0, 1), BuildingBlock: EZIPEK_clean_linker_0, # of connection points: 2
#     Edge 24, Type (0, 1), BuildingBlock: EZIPEK_clean_linker_0, # of connection points: 2
#     Edge 25, Type (0, 1), BuildingBlock: EZIPEK_clean_linker_0, # of connection points: 2
#     Edge 26, Type (0, 1), BuildingBlock: EZIPEK_clean_linker_0, # of connection points: 2
# Relax obj value: 0.268
# Max RMSD: 0.189
# Mean RMSD: 0.155
data_MOF--net-anh--node1-NUHQIS_clean_sbu_0--node2-WUSLED_clean_sbu_0--edge1-EZIPEK_clean_linker_0
_symmetry_space_group_name_H-M    P1
_symmetry_Int_Tables_number       1
_symmetry_cell_setting            triclinic
loop_
_symmetry_equiv_pos_as_xyz
'x, y, z'
_cell_length_a     30.995286
_cell_length_b     31.28485
_cell_length_c     55.953768
_cell_angle_alpha  89.512654
_cell_angle_beta   93.110405
_cell_angle_gamma 119.7478
loop_
_atom_site_label
_atom_site_type_symbol
_atom_site_fract_x
_atom_site_fract_y
_atom_site_fract_z
_atom_type_partial_charge
Tb0 Tb 0.17175 0.56283 0.16863 0.0
Eu1 Eu 1.11646 0.62616 0.16019 0.0
C2 C 0.1356 0.59661 0.212 0.0
C3 C 1.05036 0.50512 0.16691 0.0
C4 C 0.25414 0.52105 0.1953 0.0
C5 C 0.32344 0.50691 0.19435 0.0
C6 C 0.27228 0.4884 0.19343 0.0
C7 C 0.28619 0.56961 0.20366 0.0
C8 C 0.33757 0.58831 0.20427 0.0
C9 C 0.35557 0.558 0.19639 0.0
C10 C 0.20897 0.51011 0.18108 0.0
O11 O 0.17018 0.56765 0.12935 0.0
O12 O 0.12899 0.61136 0.12273 0.0
O13 O 0.19898 0.6851 0.1667 0.0
O14 O 0.23772 0.63895 0.17175 0.0
C15 C 0.15107 0.58822 0.11482 0.0
O16 O 1.06405 0.64339 0.14117 0.0
O17 O 1.11165 0.69044 0.17083 0.0
O18 O 1.10423 0.60256 0.19795 0.0
O19 O 0.17206 0.59307 0.20341 0.0
O20 O 1.0922 0.50432 0.16473 0.0
O21 O 1.05093 0.5478 0.16636 0.0
C22 C 0.23999 0.68255 0.17111 0.0
O23 O 0.17447 0.51193 0.19247 0.0
O24 O 0.21685 0.53316 0.16083 0.0
C25 C 1.02681 0.66698 0.16923 0.0
C26 C 0.93264 0.61318 0.18726 0.0
C27 C 0.93783 0.63276 0.16425 0.0
C28 C 0.98478 0.65978 0.1553 0.0
C29 C 1.02189 0.65194 0.19323 0.0
C30 C 0.97487 0.62544 0.20229 0.0
C31 C 1.07145 0.67709 0.15707 0.0
H32 H 0.3372 0.48291 0.18888 0.0
H33 H 0.24772 0.45057 0.18753 0.0
H34 H 0.27228 0.59498 0.20564 0.0
H35 H 0.36212 0.62772 0.20624 0.0
H36 H 0.9053 0.62406 0.1526 0.0
H37 H 0.98781 0.67085 0.13678 0.0
H38 H 1.05378 0.65685 0.20438 0.0
H39 H 0.97121 0.61103 0.22019 0.0
Tb40 Tb 0.70333 0.1275 0.50255 0.0
Eu41 Eu 0.58733 0.08154 0.49221 0.0
C42 C 0.63139 0.08541 0.5454 0.0
C43 C 0.63917 1.00955 0.50308 0.0
C44 C 0.83025 0.22276 0.50707 0.0
C45 C 0.89696 0.29906 0.5242 0.0
C46 C 0.87114 0.2478 0.52343 0.0
C47 C 0.81585 0.24891 0.49116 0.0
C48 C 0.84145 0.29981 0.49195 0.0
C49 C 0.88149 0.32482 0.50866 0.0
C50 C 0.79601 0.17098 0.51003 0.0
O51 O 0.69258 0.11594 0.46327 0.0
O52 O 0.61698 0.11085 0.4564 0.0
O53 O 0.60898 0.16159 0.49892 0.0
O54 O 0.69326 0.19414 0.5053 0.0
C55 C 0.65772 0.11516 0.44844 0.0
O56 O 0.52025 1.0282 0.47196 0.0
O57 O 0.51614 1.07615 0.49852 0.0
O58 O 0.59413 0.08198 0.53198 0.0
O59 O 0.67451 0.09767 0.537 0.0
O60 O 0.68328 1.04954 0.50517 0.0
O61 O 0.59894 1.01355 0.4978 0.0
C62 C 0.65326 0.19975 0.50414 0.0
O63 O 0.76529 0.16301 0.52662 0.0
O64 O 0.77327 0.14597 0.49042 0.0
C65 C 0.46043 0.99148 0.50001 0.0
C66 C 0.41694 0.90335 0.5252 0.0
C67 C 0.41119 0.90332 0.50002 0.0
C68 C 0.43201 0.94683 0.48763 0.0
C69 C 0.46659 0.99205 0.52523 0.0
C70 C 0.44437 0.94817 0.53776 0.0
C71 C 0.49209 1.0348 0.48632 0.0
H72 H 0.9283 0.31859 0.53701 0.0
H73 H 0.88157 0.22781 0.5362 0.0
H74 H 0.78339 0.23001 0.47888 0.0
H75 H 0.82966 0.31974 0.47982 0.0
H76 H 0.38958 0.86964 0.48976 0.0
H77 H 0.42768 0.94543 0.46824 0.0
H78 H 0.4895 1.02614 0.53526 0.0
H79 H 0.44853 0.94921 0.55712 0.0
Tb80 Tb 0.66849 0.64368 0.83176 0.0
Eu81 Eu 0.60214 0.52669 0.83047 0.0
C82 C 0.64305 0.58638 0.87863 0.0
C83 C 0.72522 0.58052 0.83703 0.0
C84 C 0.69658 0.76816 0.83855 0.0
C85 C 0.70328 0.83925 0.85897 0.0
C86 C 0.7237 0.80967 0.85365 0.0
C87 C 0.64822 0.75518 0.82979 0.0
C88 C 0.62789 0.78423 0.8352 0.0
C89 C 0.65574 0.82694 0.84923 0.0
C90 C 0.71626 0.73576 0.83331 0.0
O91 O 0.67101 0.62085 0.79515 0.0
O92 O 0.59844 0.54731 0.79179 0.0
O93 O 0.54752 0.55272 0.83879 0.0
O94 O 0.59179 0.63345 0.82865 0.0
C95 C 0.63513 0.58515 0.78189 0.0
O96 O 0.5749 0.45132 0.81806 0.0
O97 O 0.54127 0.46565 0.84774 0.0
O98 O 0.64067 0.54976 0.86667 0.0
O99 O 0.64169 0.62255 0.86748 0.0
O100 O 0.72587 0.62265 0.84023 0.0
O101 O 0.68271 0.53977 0.8309 0.0
C102 C 0.5498 0.59533 0.8352 0.0
O103 O 0.71682 0.70898 0.85111 0.0
O104 O 0.69818 0.71001 0.81342 0.0
C105 C 0.55534 0.39912 0.85052 0.0
C106 C 0.60945 0.3521 0.8608 0.0
C107 C 0.56359 0.32702 0.8475 0.0
C108 C 0.53681 0.35101 0.84203 0.0
C109 C 0.59406 0.41871 0.86854 0.0
C110 C 0.62097 0.39464 0.87396 0.0
C111 C 0.54579 0.43263 0.83588 0.0
H112 H 0.72516 0.87267 0.86965 0.0
H113 H 0.76064 0.81948 0.86092 0.0
H114 H 0.62628 0.72312 0.81829 0.0
H115 H 0.59133 0.77474 0.82745 0.0
H116 H 0.55338 0.29319 0.83777 0.0
H117 H 0.5063 0.33503 0.82853 0.0
H118 H 0.60806 0.45552 0.87579 0.0
H119 H 0.65552 0.41367 0.88481 0.0
C120 C 0.77145 0.22035 0.19214 0.0
C121 C 0.79453 0.25668 0.21062 0.0
C122 C 0.86197 0.31414 0.18483 0.0
C123 C 0.8389 0.30246 0.20706 0.0
C124 C 0.83873 0.27761 0.16653 0.0
C125 C 0.79481 0.23209 0.17011 0.0
U126 U 0.65092 0.09855 0.21872 0.0
O127 O 0.57395 1.06089 0.20119 0.0
O128 O 0.61569 1.0218 0.20372 0.0
C129 C 0.57369 1.01972 0.19625 0.0
C130 C 0.7227 0.17119 0.19419 0.0
C131 C 0.52461 0.97016 0.19474 0.0
C132 C 0.45136 0.90866 0.16967 0.0
C133 C 0.49583 0.95494 0.17276 0.0
C134 C 0.46148 0.89005 0.21063 0.0
C135 C 0.43293 0.87487 0.18846 0.0
C136 C 0.50644 0.93652 0.21368 0.0
C137 C 0.65809 0.10723 0.29251 0.0
C138 C 0.61752 1.07582 0.33011 0.0
C139 C 0.70181 0.14413 0.33109 0.0
C140 C 0.70079 0.14216 0.30592 0.0
C141 C 0.66023 0.11095 0.34352 0.0
C142 C 0.61639 1.0741 0.30489 0.0
C143 C 0.65766 0.10592 0.2658 0.0
O144 O 0.72373 0.13154 0.20135 0.0
O145 O 0.68213 0.17074 0.20036 0.0
O146 O 0.63318 0.1223 0.25227 0.0
O147 O 0.67766 0.08451 0.25406 0.0
H148 H 0.77825 0.24987 0.22785 0.0
H149 H 0.85515 0.32902 0.22175 0.0
H150 H 0.85466 0.28433 0.14921 0.0
H151 H 0.77863 0.20579 0.15529 0.0
H152 H 0.43117 0.89921 0.15236 0.0
H153 H 0.50813 0.97902 0.15758 0.0
H154 H 0.44909 0.86568 0.22569 0.0
H155 H 0.52702 0.94599 0.23088 0.0
H156 H 0.58496 1.04978 0.33919 0.0
H157 H 0.73517 0.17157 0.3409 0.0
H158 H 0.73343 0.1682 0.29688 0.0
H159 H 0.583 1.04676 0.29505 0.0
C160 C 0.643 0.72702 0.52587 0.0
C161 C 0.62398 0.74435 0.54353 0.0
C162 C 0.63833 0.81783 0.51982 0.0
C163 C 0.62189 0.78882 0.54059 0.0
C164 C 0.65739 0.80032 0.50235 0.0
C165 C 0.65965 0.75625 0.50531 0.0
U166 U 0.64276 0.60374 0.55213 0.0
O167 O 0.60476 0.52902 0.53425 0.0
O168 O 0.68563 0.56931 0.53912 0.0
C169 C 0.64627 0.52877 0.53069 0.0
C170 C 0.64376 0.67817 0.52707 0.0
C171 C 0.64727 0.48007 0.52903 0.0
C172 C 0.6348 0.40907 0.5039 0.0
C173 C 0.63197 0.4527 0.50716 0.0
C174 C 0.66803 0.41719 0.54443 0.0
C175 C 0.65292 0.39005 0.52239 0.0
C176 C 0.66556 0.46131 0.54765 0.0
C177 C 0.6365 0.59989 0.62533 0.0
C178 C 0.65619 0.56841 0.66203 0.0
C179 C 0.62051 0.62077 0.66466 0.0
C180 C 0.61794 0.62305 0.63956 0.0
C181 C 0.64437 0.59751 0.67691 0.0
C182 C 0.65414 0.57109 0.6368 0.0
C183 C 0.63778 0.60781 0.59893 0.0
O184 O 0.684 0.6777 0.53545 0.0
O185 O 0.60319 0.6372 0.5319 0.0
O186 O 0.59788 0.58496 0.58435 0.0
O187 O 0.67997 0.62576 0.58831 0.0
H188 H 0.61041 0.7234 0.55959 0.0
H189 H 0.607 0.80046 0.55461 0.0
H190 H 0.67059 0.82087 0.48614 0.0
H191 H 0.67418 0.74459 0.49112 0.0
H192 H 0.62265 0.39001 0.48669 0.0
H193 H 0.61814 0.46554 0.49219 0.0
H194 H 0.68217 0.40436 0.55927 0.0
H195 H 0.67821 0.48083 0.56473 0.0
H196 H 0.66621 0.54233 0.66924 0.0
H197 H 0.60332 0.63762 0.67427 0.0
H198 H 0.60175 0.64365 0.63123 0.0
H199 H 0.66606 0.55033 0.62627 0.0
C200 C 1.01561 0.5874 0.85999 0.0
C201 C 0.9881 0.58411 0.87994 0.0
C202 C 0.92006 0.58392 0.8541 0.0
C203 C 0.94129 0.58257 0.87704 0.0
C204 C 0.94783 0.587 0.83433 0.0
C205 C 0.9944 0.58885 0.83723 0.0
U206 U 0.14369 0.58987 0.8852 0.0
O207 O 0.17858 0.55193 0.86742 0.0
O208 O 0.21677 0.63217 0.86863 0.0
C209 C 0.21796 0.59291 0.86143 0.0
C210 C 1.0657 0.58898 0.86149 0.0
C211 C 0.26784 0.59479 0.85958 0.0
C212 C 0.33231 0.60034 0.83348 0.0
C213 C 0.28654 0.59875 0.83672 0.0
C214 C 0.3433 0.59409 0.87602 0.0
C215 C 0.36181 0.5979 0.85297 0.0
C216 C 0.2972 0.59262 0.87928 0.0
C217 C 0.14919 0.58676 0.95892 0.0
C218 C 0.1958 0.61528 0.99761 0.0
C219 C 1.10776 0.55615 0.99634 0.0
C220 C 1.10622 0.55632 0.97115 0.0
C221 C 0.15261 0.58556 0.00993 0.0
C222 C 0.19395 0.61634 0.97244 0.0
C223 C 0.14727 0.58794 0.93223 0.0
O224 O 1.10629 0.62936 0.86899 0.0
O225 O 1.06784 0.54916 0.86709 0.0
O226 O 0.12511 0.54764 0.91876 0.0
O227 O 0.16759 0.6293 0.92042 0.0
H228 H 1.00273 0.58281 0.89778 0.0
H229 H 0.9216 0.58039 0.89281 0.0
H230 H 0.93345 0.5882 0.81641 0.0
H231 H 1.01407 0.59137 0.82139 0.0
H232 H 0.34461 0.60315 0.81549 0.0
H233 H 0.26538 0.60047 0.82106 0.0
H234 H 0.36445 0.59194 0.89157 0.0
H235 H 0.28449 0.58958 0.89719 0.0
H236 H 0.23089 0.63825 0.00753 0.0
H237 H 1.07385 0.53304 1.00526 0.0
H238 H 1.07116 0.53325 0.96122 0.0
H239 H 0.2277 0.64004 0.96352 0.0
C240 C 1.03263 0.61708 0.47253 0.0
C241 C 0.99148 0.58123 0.45885 0.0
C242 C 0.96745 0.52965 0.49343 0.0
C243 C 0.9586 0.53743 0.46939 0.0
C244 C 1.00415 0.56824 0.50785 0.0
C245 C 1.0369 0.61218 0.49732 0.0
U246 U 1.11222 0.65644 0.41856 0.0
O247 O 0.19 0.67414 0.4171 0.0
O248 O 0.17001 0.73122 0.40933 0.0
C249 C 0.20555 0.72148 0.41616 0.0
C250 C 1.07731 0.65037 0.46076 0.0
C251 C 0.2343 0.74713 0.43807 0.0
C252 C 0.2311 0.74878 0.48126 0.0
C253 C 0.20747 0.73843 0.45865 0.0
C254 C 0.31046 0.78411 0.46305 0.0
C255 C 0.28289 0.77386 0.48375 0.0
C256 C 0.28614 0.76979 0.44029 0.0
C257 C 1.07441 0.59429 0.35866 0.0
C258 C 1.10931 0.63463 0.32173 0.0
C259 C 1.08448 0.54846 0.32679 0.0
C260 C 1.06978 0.55033 0.34973 0.0
C261 C 1.10344 0.59047 0.31262 0.0
C262 C 1.0952 0.63667 0.34464 0.0
C263 C 1.06039 0.5967 0.38303 0.0
O264 O 1.10351 0.62972 0.45515 0.0
O265 O 1.0729 0.6772 0.44362 0.0
O266 O 1.05741 0.63609 0.38828 0.0
O267 O 1.08369 0.58504 0.39992 0.0
H268 H 0.98828 0.58451 0.43962 0.0
H269 H 0.93038 0.50749 0.45816 0.0
H270 H 1.01136 0.56218 0.52638 0.0
H271 H 1.069 0.63959 0.50793 0.0
H272 H 0.20892 0.73881 0.49681 0.0
H273 H 0.16768 0.7216 0.45724 0.0
H274 H 0.35067 0.80213 0.46448 0.0
H275 H 0.30745 0.77534 0.42471 0.0
H276 H 0.12378 0.66721 0.31087 0.0
H277 H 1.07972 0.51409 0.3198 0.0
H278 H 1.05465 0.51754 0.36044 0.0
H279 H 1.1003 0.67142 0.35123 0.0
C280 C 0.53734 1.00409 0.81014 0.0
C281 C 0.51859 0.95662 0.80037 0.0
C282 C 0.55581 0.93665 0.83461 0.0
C283 C 0.5274 0.92261 0.81277 0.0
C284 C 0.56776 0.98122 0.8459 0.0
C285 C 0.55834 1.01493 0.83366 0.0
U286 U 0.56719 1.06378 0.74912 0.0
O287 O 0.63274 0.13415 0.74143 0.0
O288 O 0.55793 0.12449 0.73447 0.0
C289 C 0.60595 0.15579 0.73803 0.0
C290 C 0.54939 1.04536 0.7944 0.0
C291 C 0.61998 0.19641 0.75523 0.0
C292 C 0.59971 0.22611 0.79041 0.0
C293 C 0.58461 0.19477 0.77048 0.0
C294 C 0.68583 0.26146 0.78041 0.0
C295 C 0.65032 0.2592 0.79559 0.0
C296 C 0.67065 0.23065 0.76013 0.0
C297 C 0.56775 1.00925 0.69167 0.0
C298 C 0.5746 1.05876 0.6569 0.0
C299 C 0.60158 0.99812 0.65566 0.0
C300 C 0.58816 0.98539 0.67925 0.0
C301 C 0.59454 1.0347 0.64439 0.0
C302 C 0.56171 1.04646 0.68041 0.0
C303 C 0.55686 0.99933 0.71697 0.0
O304 O 0.59371 1.06328 0.786 0.0
O305 O 0.515 1.0407 0.77811 0.0
O306 O 0.5192 1.00409 0.72346 0.0
O307 O 0.59624 1.02085 0.73196 0.0
H308 H 0.50271 0.94791 0.78214 0.0
H309 H 0.51823 0.88825 0.80387 0.0
H310 H 0.58991 0.99243 0.86269 0.0
H311 H 0.57326 1.05162 0.84131 0.0
H312 H 0.57191 0.22428 0.80197 0.0
H313 H 0.54543 0.16805 0.76763 0.0
H314 H 0.72501 0.28729 0.78417 0.0
H315 H 0.69863 0.23186 0.74892 0.0
H316 H 0.56903 0.08707 0.64843 0.0
H317 H 0.61706 0.97933 0.64613 0.0
H318 H 0.59408 0.95741 0.68784 0.0
H319 H 0.54728 1.06636 0.68984 0.0
C320 C 0.65082 0.45783 0.14023 0.0
C321 C 0.69479 0.46542 0.13057 0.0
C322 C 0.73392 0.48062 0.17055 0.0
C323 C 0.73641 0.47713 0.14573 0.0
C324 C 0.68775 0.46461 0.1803 0.0
C325 C 0.64623 0.45383 0.16507 0.0
U326 U 0.61309 0.49838 0.08214 0.0
O327 O 0.54197 0.49321 0.06986 0.0
O328 O 0.60795 0.5655 0.07835 0.0
C329 C 0.55939 0.54029 0.07479 0.0
C330 C 0.61831 0.47081 0.12605 0.0
C331 C 0.534 0.55107 0.09297 0.0
C332 C 0.49728 0.53248 0.13146 0.0
C333 C 0.51676 0.52009 0.11268 0.0
C334 C 0.51502 0.6086 0.11185 0.0
C335 C 0.49551 0.57627 0.13091 0.0
C336 C 0.53404 0.59586 0.09284 0.0
C337 C 0.6642 0.51421 0.02362 0.0
C338 C 0.63067 0.55162 0.99571 0.0
C339 C 0.6881 0.52626 0.98258 0.0
C340 C 0.69156 0.50999 1.00561 0.0
C341 C 0.65724 0.54666 0.97756 0.0
C342 C 0.63407 0.5354 0.01858 0.0
C343 C 0.66475 0.49564 0.04765 0.0
O344 O 0.64177 0.51671 0.11921 0.0
O345 O 0.58861 0.43975 0.10904 0.0
O346 O 0.62198 0.4575 0.05287 0.0
O347 O 0.68398 0.53007 0.06457 0.0
H348 H 0.69887 0.46877 0.11142 0.0
H349 H 0.77177 0.48873 0.13799 0.0
H350 H 0.68536 0.46666 0.19946 0.0
H351 H 0.61249 0.44824 0.17275 0.0
H352 H 0.48199 0.50712 0.14601 0.0
H353 H 0.51838 0.4863 0.11358 0.0
H354 H 0.51326 0.64232 0.11121 0.0
H355 H 0.54888 0.62089 0.07813 0.0
H356 H 0.60663 0.56715 0.99203 0.0
H357 H 0.70871 0.52221 0.96858 0.0
H358 H 0.71487 0.49365 0.00926 0.0
H359 H 0.61252 0.5387 0.03229 0.0
C360 C 0.38622 0.57818 0.1558 0.0
C361 C 0.39773 0.5785 0.18073 0.0
C362 C 0.48038 0.59292 0.1725 0.0
C363 C 0.46469 0.58296 0.14787 0.0
N364 N 0.39871 0.55646 0.1167 0.0
N365 N 0.45507 0.58666 0.21338 0.0
C366 C 0.41681 0.57364 0.13957 0.0
C367 C 0.44501 0.58671 0.18932 0.0
N368 N 0.34529 0.5808 0.14754 0.0
N369 N 0.52872 0.60787 0.17962 0.0
H370 H 0.43019 0.5842 0.2259 0.0
H371 H 0.48682 0.58711 0.22082 0.0
H372 H 0.55511 0.61246 0.16752 0.0
H373 H 0.54347 0.61932 0.19705 0.0
H374 H 0.33818 0.58514 0.12953 0.0
H375 H 0.32144 0.58428 0.15869 0.0
H376 H 0.3616 0.54299 0.11093 0.0
H377 H 0.41892 0.55073 0.10407 0.0
C378 C 0.88736 0.40433 0.51942 0.0
C379 C 0.90837 0.37849 0.50871 0.0
C380 C 0.97414 0.4542 0.49317 0.0
C381 C 0.94926 0.47893 0.50098 0.0
N382 N 0.88225 0.47923 0.52063 0.0
N383 N 0.96761 0.37617 0.48322 0.0
C384 C 0.90609 0.45464 0.51411 0.0
C385 C 0.95101 0.4027 0.49522 0.0
N386 N 0.84963 0.38054 0.53454 0.0
N387 N 1.01994 0.48003 0.48387 0.0
H388 H 0.95234 0.33816 0.48464 0.0
H389 H 0.99421 0.39119 0.47046 0.0
H390 H 1.03817 0.51802 0.48162 0.0
H391 H 1.04193 0.46452 0.4803 0.0
H392 H 0.8353 0.39812 0.54446 0.0
H393 H 0.83504 0.34342 0.53858 0.0
H394 H 0.84754 0.46228 0.52792 0.0
H395 H 0.89617 0.51663 0.51752 0.0
C396 C 0.599 0.85389 0.8647 0.0
C397 C 0.63756 0.86208 0.84962 0.0
C398 C 0.62785 0.92485 0.82818 0.0
C399 C 0.58558 0.91321 0.84138 0.0
N400 N 0.52974 0.86715 0.8719 0.0
N401 N 0.68948 0.90512 0.81696 0.0
C402 C 0.57112 0.87825 0.85984 0.0
C403 C 0.6525 0.89779 0.8316 0.0
N404 N 0.58942 0.82282 0.88349 0.0
N405 N 0.64517 0.96113 0.81167 0.0
H406 H 0.70899 0.88593 0.81834 0.0
H407 H 0.70033 0.93032 0.8031 0.0
H408 H 0.6305 0.98424 0.80786 0.0
H409 H 0.6305 0.98424 0.80786 0.0
H410 H 0.56413 0.81732 0.89628 0.0
H411 H 0.60965 0.8048 0.88724 0.0
H412 H 0.51419 0.83887 0.88408 0.0
H413 H 0.5093 0.88517 0.86888 0.0
C414 C 0.8481 0.59241 0.19716 0.0
C415 C 0.88245 0.57619 0.19401 0.0
C416 C 0.81421 0.4916 0.18803 0.0
C417 C 0.78104 0.51021 0.18494 0.0
N418 N 0.76612 0.57931 0.1862 0.0
N419 N 0.89995 0.51002 0.18827 0.0
C420 C 0.79743 0.56063 0.19016 0.0
C421 C 0.86609 0.52536 0.19069 0.0
N422 N 0.86469 0.63899 0.20582 0.0
N423 N 0.79584 0.44187 0.18746 0.0
H424 H 0.93827 0.53354 0.19036 0.0
H425 H 0.89026 0.47428 0.18335 0.0
H426 H 0.75771 0.41696 0.1853 0.0
H427 H 0.81745 0.42542 0.19127 0.0
H428 H 0.84102 0.65199 0.21033 0.0
H429 H 0.9022 0.66273 0.21075 0.0
H430 H 0.77815 0.61687 0.18669 0.0
H431 H 0.72862 0.55792 0.18085 0.0
C432 C 0.38865 0.81635 0.52923 0.0
C433 C 0.38593 0.8571 0.53768 0.0
C434 C 0.30185 0.82414 0.52222 0.0
C435 C 0.30871 0.79067 0.50775 0.0
N436 N 0.34729 0.74023 0.50539 0.0
N437 N 0.33226 0.87683 0.55796 0.0
C438 C 0.34797 0.78094 0.51439 0.0
C439 C 0.33859 0.85061 0.54061 0.0
N440 N 0.43281 0.81693 0.53212 0.0
N441 N 0.26572 0.83613 0.51674 0.0
H442 H 0.36159 0.8991 0.57019 0.0
H443 H 0.29759 0.8727 0.56121 0.0
H444 H 0.24069 0.82233 0.50195 0.0
H445 H 0.26363 0.86385 0.52591 0.0
H446 H 0.43996 0.7912 0.52428 0.0
H447 H 0.46265 0.84501 0.54225 0.0
H448 H 0.37425 0.73056 0.51006 0.0
H449 H 0.31721 0.71431 0.49456 0.0
C450 C 0.67096 0.36941 0.83116 0.0
C451 C 0.64953 0.34465 0.85237 0.0
C452 C 0.65683 0.27469 0.83965 0.0
C453 C 0.66446 0.29357 0.81613 0.0
N454 N 0.67862 0.35956 0.78916 0.0
N455 N 0.63434 0.27998 0.87967 0.0
C456 C 0.67341 0.34194 0.81191 0.0
C457 C 0.64782 0.29991 0.85772 0.0
N458 N 0.68549 0.41808 0.82886 0.0
N459 N 0.65446 0.23103 0.8448 0.0
H460 H 0.62769 0.29854 0.89316 0.0
H461 H 0.6311 0.2461 0.88419 0.0
H462 H 0.66065 0.21025 0.83235 0.0
H463 H 0.66065 0.21025 0.83235 0.0
H464 H 0.70485 0.43897 0.81452 0.0
H465 H 0.68282 0.43874 0.84253 0.0
H466 H 0.67762 0.39144 0.78465 0.0
H467 H 0.68061 0.3408 0.77436 0.0
C468 C 0.6606 0.95214 0.52876 0.0
C469 C 0.63559 0.95884 0.50797 0.0
C470 C 0.60589 0.87055 0.49715 0.0
C471 C 0.63615 0.86616 0.51619 0.0
N472 N 0.69951 0.90832 0.54768 0.0
N473 N 0.59004 0.92382 0.47037 0.0
C474 C 0.66533 0.90856 0.5313 0.0
C475 C 0.60952 0.91765 0.49173 0.0
N476 N 0.67802 0.98645 0.54695 0.0
N477 N 0.57209 0.82912 0.48453 0.0
H478 H 0.59246 0.95713 0.46548 0.0
H479 H 0.57566 0.89739 0.45659 0.0
H480 H 0.56782 0.79447 0.48804 0.0
H481 H 0.54513 0.82827 0.47229 0.0
H482 H 0.69168 0.98148 0.56354 0.0
H483 H 0.67348 1.01723 0.54653 0.0
H484 H 0.72596 0.93968 0.55727 0.0
H485 H 0.70465 0.87801 0.55003 0.0
C486 C 0.77878 0.5447 0.85596 0.0
C487 C 0.77463 0.58 0.84109 0.0
C488 C 0.86686 0.6222 0.83857 0.0
C489 C 0.86981 0.58305 0.85042 0.0
N490 N 0.82396 0.50131 0.86608 0.0
N491 N 0.81637 0.64772 0.81441 0.0
C492 C 0.82439 0.54272 0.85789 0.0
C493 C 0.81926 0.61746 0.83138 0.0
N494 N 0.74031 0.51474 0.8696 0.0
N495 N 0.90967 0.6652 0.83494 0.0
H496 H 0.78269 0.64421 0.80771 0.0
H497 H 0.84679 0.67254 0.80506 0.0
H498 H 0.9448 0.67093 0.84059 0.0
H499 H 0.90992 0.69684 0.82876 0.0
H500 H 0.74312 0.49204 0.8826 0.0
H501 H 0.70733 0.51597 0.86955 0.0
H502 H 0.79117 0.46893 0.86932 0.0
H503 H 0.85569 0.49772 0.8673 0.0
C504 C 0.33379 0.74229 0.16373 0.0
C505 C 0.29028 0.73121 0.17608 0.0
C506 C 0.33946 0.8153 0.19554 0.0
C507 C 0.38393 0.82456 0.18476 0.0
N508 N 0.42396 0.7917 0.16131 0.0
N509 N 0.25631 0.75634 0.20735 0.0
C510 C 0.38102 0.78644 0.16964 0.0
C511 C 0.29457 0.76767 0.19292 0.0
N512 N 0.32968 0.71197 0.14526 0.0
N513 N 0.33923 0.8529 0.20767 0.0
H514 H 0.22311 0.7229 0.20626 0.0
H515 H 0.25914 0.77822 0.22194 0.0
H516 H 0.37067 0.88766 0.21013 0.0
H517 H 0.30701 0.8511 0.21345 0.0
H518 H 0.35796 0.72036 0.13373 0.0
H519 H 0.2963 0.68062 0.13992 0.0
H520 H 0.42595 0.76356 0.15253 0.0
H521 H 0.45862 0.82284 0.16511 0.0
C522 C 0.68753 0.29393 0.49727 0.0
C523 C 0.65675 0.25007 0.50987 0.0
C524 C 0.62237 0.29732 0.53 0.0
C525 C 0.65531 0.34195 0.51858 0.0
N526 N 0.72583 0.38333 0.49428 0.0
N527 N 0.60304 0.21519 0.54258 0.0
C528 C 0.6897 0.3402 0.50305 0.0
C529 C 0.62647 0.25343 0.5274 0.0
N530 N 0.71327 0.29115 0.47886 0.0
N531 N 0.58544 0.29602 0.54278 0.0
H532 H 0.60624 0.18357 0.54197 0.0
H533 H 0.5849 0.21691 0.55736 0.0
H534 H 0.58113 0.32668 0.5452 0.0
H535 H 0.55651 0.26366 0.54917 0.0
H536 H 0.73176 0.31968 0.46707 0.0
H537 H 0.71281 0.25877 0.47413 0.0
H538 H 0.75554 0.38613 0.48519 0.0
H539 H 0.72862 0.41726 0.49798 0.0
C540 C 0.50319 0.63534 0.85428 0.0
C541 C 0.50273 0.59903 0.83873 0.0
C542 C 0.41011 0.55931 0.83513 0.0
C543 C 0.41076 0.59798 0.84879 0.0
N544 N 0.46066 0.678 0.86769 0.0
N545 N 0.45468 0.53288 0.81012 0.0
C546 C 0.45817 0.63742 0.85732 0.0
C547 C 0.45579 0.56287 0.82803 0.0
N548 N 0.54611 0.66668 0.86718 0.0
N549 N 0.36566 0.51777 0.82962 0.0
H550 H 0.48685 0.53549 0.80369 0.0
H551 H 0.42246 0.50934 0.79985 0.0
H552 H 0.3318 0.513 0.83486 0.0
H553 H 0.36288 0.48613 0.82205 0.0
H554 H 0.5478 0.69018 0.88073 0.0
H555 H 0.57929 0.66625 0.86585 0.0
H556 H 0.49405 0.71027 0.87184 0.0
H557 H 0.4292 0.68107 0.87016 0.0
C558 C 0.95566 0.44245 0.15823 0.0
C559 C 1.00166 0.45605 0.17144 0.0
C560 C 0.95693 0.37493 0.19204 0.0
C561 C 0.91014 0.36369 0.18054 0.0
N562 N 0.86499 0.39172 0.15476 0.0
N563 N 1.04199 0.43618 0.20442 0.0
C564 C 0.90976 0.39895 0.16419 0.0
C565 C 1.00102 0.42232 0.1892 0.0
N566 N 0.95596 0.46977 0.139 0.0
N567 N 0.96002 0.33934 0.2051 0.0
H568 H 1.07457 0.46994 0.20365 0.0
H569 H 1.04205 0.41643 0.21948 0.0
H570 H 0.9293 0.30478 0.20769 0.0
H571 H 0.9936 0.34229 0.21148 0.0
H572 H 0.92544 0.45941 0.12697 0.0
H573 H 0.98822 0.50042 0.13362 0.0
H574 H 0.86091 0.41797 0.14489 0.0
H575 H 0.83116 0.36123 0.15873 0.0
C576 C 0.1746 0.63178 0.07543 0.0
C577 C 0.15533 0.58708 0.08819 0.0
C578 C 0.14153 0.54233 0.04989 0.0
C579 C 0.15415 0.58607 0.03699 0.0
N580 N 0.17308 0.67082 0.03809 0.0
N581 N 1.11232 0.49822 0.08675 0.0
C582 C 0.16816 0.63041 0.04995 0.0
C583 C 0.13677 0.54187 0.07521 0.0
N584 N 0.20067 0.67587 0.08758 0.0
N585 N 0.13558 0.5015 0.03813 0.0
H586 H 1.10707 0.49608 0.10506 0.0
H587 H 1.09325 0.46423 0.07778 0.0
H588 H 0.13993 0.50066 0.01982 0.0
H589 H 0.13128 0.47024 0.04691 0.0
H590 H 0.21969 0.70944 0.07905 0.0
H591 H 0.20797 0.67852 0.1061 0.0
H592 H 0.17818 0.70239 0.04685 0.0
H593 H 0.16689 0.67105 0.0196 0.0
C594 C 0.6647 0.07735 0.40975 0.0
C595 C 0.66244 0.1161 0.42174 0.0
C596 C 0.65577 0.14981 0.38244 0.0
C597 C 0.66152 0.11307 0.37055 0.0
N598 N 0.68016 1.047 0.37317 0.0
N599 N 0.66465 0.19406 0.41956 0.0
C600 C 0.6686 0.07839 0.38433 0.0
C601 C 0.66043 0.15368 0.40805 0.0
N602 N 0.66044 1.03802 0.42244 0.0
N603 N 0.64421 0.18011 0.36925 0.0
H604 H 0.66868 0.1984 0.43816 0.0
H605 H 0.66874 0.2252 0.41076 0.0
H606 H 0.64097 0.17874 0.35058 0.0
H607 H 0.63392 0.20384 0.37675 0.0
H608 H 0.65588 1.00598 0.41445 0.0
H609 H 0.65716 1.03543 0.44091 0.0
H610 H 0.69133 1.0247 0.38236 0.0
H611 H 0.68267 1.04618 0.35468 0.0
C612 C 0.65413 0.56004 0.74251 0.0
C613 C 0.63791 0.58821 0.75512 0.0
C614 C 0.64528 0.63504 0.71842 0.0
C615 C 0.65193 0.60069 0.70467 0.0
N616 N 0.70314 0.56296 0.71001 0.0
N617 N 0.61541 0.65172 0.75438 0.0
C618 C 0.66714 0.57107 0.71819 0.0
C619 C 0.63285 0.62553 0.74286 0.0
N620 N 0.65875 0.52358 0.75383 0.0
N621 N 0.65935 0.68063 0.70959 0.0
H622 H 0.60601 0.64604 0.77222 0.0
H623 H 0.60616 0.67581 0.74555 0.0
H624 H 0.6778 0.6923 0.69374 0.0
H625 H 0.65985 0.7089 0.71954 0.0
H626 H 0.66597 0.49906 0.74471 0.0
H627 H 0.65168 0.51561 0.77181 0.0
H628 H 0.71847 0.54475 0.71982 0.0
H629 H 0.72428 0.58292 0.69585 0.0
C630 C 0.58662 1.0238 0.57662 0.0
C631 C 0.62344 1.07212 0.57076 0.0
C632 C 0.64623 0.09338 0.61331 0.0
C633 C 0.60596 1.04682 0.61907 0.0
N634 N 0.5318 0.97134 0.60634 0.0
N635 N 0.68281 0.15567 0.58321 0.0
C636 C 0.57449 1.01294 0.60077 0.0
C637 C 0.65197 0.10773 0.58901 0.0
N638 N 0.56437 0.98773 0.55924 0.0
N639 N 0.67949 0.12338 0.63101 0.0
H640 H 0.6875 0.1677 0.5656 0.0
H641 H 0.70038 0.1843 0.59585 0.0
H642 H 0.67649 0.1139 0.649 0.0
H643 H 0.7123 0.15558 0.62767 0.0
H644 H 0.54162 0.95065 0.56294 0.0
H645 H 0.57211 0.99396 0.54128 0.0
H646 H 0.50467 0.94827 0.59351 0.0
H647 H 0.52114 0.96203 0.62384 0.0
C648 C 0.68633 0.61531 0.91922 0.0
C649 C 0.643 0.58352 0.90488 0.0
C650 C 0.60765 0.52922 0.93856 0.0
C651 C 0.65093 0.56097 0.95298 0.0
N652 N 0.7252 0.63991 0.95928 0.0
N653 N 0.5572 0.51932 0.90219 0.0
C654 C 0.6883 0.606 0.94402 0.0
C655 C 0.6019 0.54334 0.91503 0.0
N656 N 0.72648 0.65263 0.90894 0.0
N657 N 0.57312 0.48471 0.94698 0.0
H658 H 0.55175 0.53005 0.88511 0.0
H659 H 0.52451 0.49247 0.90931 0.0
H660 H 0.57575 0.47306 0.96424 0.0
H661 H 0.54379 0.45773 0.93629 0.0
H662 H 0.76116 0.67337 0.91793 0.0
H663 H 0.72606 0.66095 0.89088 0.0
H664 H 0.7506 0.67545 0.95428 0.0
H665 H 0.72779 0.63393 0.97755 0.0
C666 C 1.08 0.56183 0.2462 0.0
C667 C 0.12858 0.59244 0.23806 0.0
C668 C 0.16178 0.61255 0.27971 0.0
C669 C 1.1125 0.58766 0.28729 0.0
N670 N 1.02388 0.54592 0.27758 0.0
N671 N 0.21509 0.65325 0.24733 0.0
C672 C 1.07137 0.56418 0.27053 0.0
C673 C 0.16954 0.61927 0.25487 0.0
N674 N 1.0422 0.52899 0.23099 0.0
N675 N 0.20107 0.62942 0.29628 0.0
H676 H 0.2227 0.66047 0.22941 0.0
H677 H 0.24437 0.67772 0.25892 0.0
H678 H 0.19645 0.62515 0.31464 0.0
H679 H 0.23778 0.64347 0.29176 0.0
H680 H 1.00802 0.50188 0.23675 0.0
H681 H 1.0464 0.52508 0.21305 0.0
H682 H 0.99309 0.53398 0.26553 0.0
H683 H 1.01542 0.54671 0.29529 0.0
loop_
_geom_bond_atom_site_label_1
_geom_bond_atom_site_label_2
_geom_bond_distance
_geom_bond_site_symmetry_2
_ccdc_geom_bond_type
Tb0 C10 2.825 . S
Tb0 O11 2.347 . S
Tb0 O14 2.366 . S
Tb0 O19 2.418 . S
Tb0 O20 2.384 1_455 S
Tb0 O23 2.479 . S
Tb0 O24 2.471 . S
Eu1 O12 2.418 . S
Eu1 O13 2.384 1_655 S
Eu1 O16 2.479 . S
Eu1 O17 2.471 . S
Eu1 O18 2.347 1_655 S
Eu1 O21 2.366 . S
Eu1 C31 2.825 . S
C2 O18 1.259 . S
C2 O19 1.265 . S
C3 O20 1.255 . S
C3 O21 1.265 . S
C4 C6 1.380 . S
C4 C7 1.374 . S
C4 C10 1.507 . S
C5 C6 1.384 . S
C5 C9 1.387 . S
C5 H32 0.930 . S
C6 C4 1.380 . S
C6 C5 1.384 . S
C6 H33 0.931 . S
C7 C4 1.374 . S
C7 C8 1.390 . S
C7 H34 0.930 . S
C8 C7 1.390 . S
C8 C9 1.391 . S
C8 H35 0.930 . S
C9 C5 1.387 . S
C9 C8 1.391 . S
C10 Tb0 2.825 . S
C10 C4 1.507 . S
C10 O23 1.238 . S
C10 O24 1.247 . S
O11 Tb0 2.347 . S
O11 C15 1.259 . S
O12 Eu1 2.418 . S
O12 C15 1.265 1_655 S
O13 Eu1 2.384 1_455 S
O13 C22 1.255 . S
O14 Tb0 2.366 . S
O14 C22 1.265 . S
C15 O11 1.259 . S
C15 O12 1.265 1_455 S
O16 Eu1 2.479 . S
O16 C31 1.238 . S
O17 Eu1 2.471 . S
O17 C31 1.247 . S
O18 Eu1 2.347 1_455 S
O18 C2 1.259 . S
O19 Tb0 2.418 . S
O19 C2 1.265 . S
O20 Tb0 2.384 1_655 S
O20 C3 1.255 . S
O21 Eu1 2.366 . S
O21 C3 1.265 . S
C22 O13 1.255 . S
C22 O14 1.265 . S
O23 Tb0 2.479 . S
O23 C10 1.238 . S
O24 Tb0 2.471 . S
O24 C10 1.247 . S
C25 C28 1.380 . S
C25 C29 1.374 . S
C25 C31 1.507 . S
C26 C27 1.387 . S
C26 C30 1.391 . S
C27 C26 1.387 . S
C27 C28 1.384 . S
C27 H36 0.930 . S
C28 C25 1.380 . S
C28 C27 1.384 . S
C28 H37 0.931 . S
C29 C25 1.374 . S
C29 C30 1.390 . S
C29 H38 0.930 . S
C30 C26 1.391 . S
C30 C29 1.390 . S
C30 H39 0.930 . S
C31 Eu1 2.825 . S
C31 O16 1.238 . S
C31 O17 1.247 . S
C31 C25 1.507 . S
H32 C5 0.930 . S
H33 C6 0.931 . S
H34 C7 0.930 . S
H35 C8 0.930 . S
H36 C27 0.930 . S
H37 C28 0.931 . S
H38 C29 0.930 . S
H39 C30 0.930 . S
Tb40 C50 2.825 . S
Tb40 O51 2.347 . S
Tb40 O54 2.366 . S
Tb40 O59 2.418 . S
Tb40 O60 2.384 1_545 S
Tb40 O63 2.479 . S
Tb40 O64 2.471 . S
Eu41 O52 2.418 . S
Eu41 O53 2.384 . S
Eu41 O56 2.479 1_545 S
Eu41 O57 2.471 1_545 S
Eu41 O58 2.347 . S
Eu41 O61 2.366 1_545 S
Eu41 C71 2.825 1_545 S
C42 O58 1.259 . S
C42 O59 1.265 . S
C43 O60 1.255 . S
C43 O61 1.265 . S
C44 C46 1.380 . S
C44 C47 1.374 . S
C44 C50 1.507 . S
C45 C46 1.384 . S
C45 C49 1.387 . S
C45 H72 0.930 . S
C46 C44 1.380 . S
C46 C45 1.384 . S
C46 H73 0.931 . S
C47 C44 1.374 . S
C47 C48 1.390 . S
C47 H74 0.930 . S
C48 C47 1.390 . S
C48 C49 1.391 . S
C48 H75 0.930 . S
C49 C45 1.387 . S
C49 C48 1.391 . S
C50 Tb40 2.825 . S
C50 C44 1.507 . S
C50 O63 1.238 . S
C50 O64 1.247 . S
O51 Tb40 2.347 . S
O51 C55 1.259 . S
O52 Eu41 2.418 . S
O52 C55 1.265 . S
O53 Eu41 2.384 . S
O53 C62 1.255 . S
O54 Tb40 2.366 . S
O54 C62 1.265 . S
C55 O51 1.259 . S
C55 O52 1.265 . S
O56 Eu41 2.479 1_565 S
O56 C71 1.238 . S
O57 Eu41 2.471 1_565 S
O57 C71 1.247 . S
O58 Eu41 2.347 . S
O58 C42 1.259 . S
O59 Tb40 2.418 . S
O59 C42 1.265 . S
O60 Tb40 2.384 1_565 S
O60 C43 1.255 . S
O61 Eu41 2.366 1_565 S
O61 C43 1.265 . S
C62 O53 1.255 . S
C62 O54 1.265 . S
O63 Tb40 2.479 . S
O63 C50 1.238 . S
O64 Tb40 2.471 . S
O64 C50 1.247 . S
C65 C68 1.380 . S
C65 C69 1.374 . S
C65 C71 1.507 . S
C66 C67 1.387 . S
C66 C70 1.391 . S
C67 C66 1.387 . S
C67 C68 1.384 . S
C67 H76 0.930 . S
C68 C65 1.380 . S
C68 C67 1.384 . S
C68 H77 0.931 . S
C69 C65 1.374 . S
C69 C70 1.390 . S
C69 H78 0.930 . S
C70 C66 1.391 . S
C70 C69 1.390 . S
C70 H79 0.930 . S
C71 Eu41 2.825 1_565 S
C71 O56 1.238 . S
C71 O57 1.247 . S
C71 C65 1.507 . S
H72 C45 0.930 . S
H73 C46 0.931 . S
H74 C47 0.930 . S
H75 C48 0.930 . S
H76 C67 0.930 . S
H77 C68 0.931 . S
H78 C69 0.930 . S
H79 C70 0.930 . S
Tb80 C90 2.825 . S
Tb80 O91 2.347 . S
Tb80 O94 2.366 . S
Tb80 O99 2.418 . S
Tb80 O100 2.384 . S
Tb80 O103 2.479 . S
Tb80 O104 2.471 . S
Eu81 O92 2.418 . S
Eu81 O93 2.384 . S
Eu81 O96 2.479 . S
Eu81 O97 2.471 . S
Eu81 O98 2.347 . S
Eu81 O101 2.366 . S
Eu81 C111 2.825 . S
C82 O98 1.259 . S
C82 O99 1.265 . S
C83 O100 1.255 . S
C83 O101 1.265 . S
C84 C86 1.380 . S
C84 C87 1.374 . S
C84 C90 1.507 . S
C85 C86 1.384 . S
C85 C89 1.387 . S
C85 H112 0.930 . S
C86 C84 1.380 . S
C86 C85 1.384 . S
C86 H113 0.931 . S
C87 C84 1.374 . S
C87 C88 1.390 . S
C87 H114 0.930 . S
C88 C87 1.390 . S
C88 C89 1.391 . S
C88 H115 0.930 . S
C89 C85 1.387 . S
C89 C88 1.391 . S
C90 Tb80 2.825 . S
C90 C84 1.507 . S
C90 O103 1.238 . S
C90 O104 1.247 . S
O91 Tb80 2.347 . S
O91 C95 1.259 . S
O92 Eu81 2.418 . S
O92 C95 1.265 . S
O93 Eu81 2.384 . S
O93 C102 1.255 . S
O94 Tb80 2.366 . S
O94 C102 1.265 . S
C95 O91 1.259 . S
C95 O92 1.265 . S
O96 Eu81 2.479 . S
O96 C111 1.238 . S
O97 Eu81 2.471 . S
O97 C111 1.247 . S
O98 Eu81 2.347 . S
O98 C82 1.259 . S
O99 Tb80 2.418 . S
O99 C82 1.265 . S
O100 Tb80 2.384 . S
O100 C83 1.255 . S
O101 Eu81 2.366 . S
O101 C83 1.265 . S
C102 O93 1.255 . S
C102 O94 1.265 . S
O103 Tb80 2.479 . S
O103 C90 1.238 . S
O104 Tb80 2.471 . S
O104 C90 1.247 . S
C105 C108 1.380 . S
C105 C109 1.374 . S
C105 C111 1.507 . S
C106 C107 1.387 . S
C106 C110 1.391 . S
C107 C106 1.387 . S
C107 C108 1.384 . S
C107 H116 0.930 . S
C108 C105 1.380 . S
C108 C107 1.384 . S
C108 H117 0.931 . S
C109 C105 1.374 . S
C109 C110 1.390 . S
C109 H118 0.930 . S
C110 C106 1.391 . S
C110 C109 1.390 . S
C110 H119 0.930 . S
C111 Eu81 2.825 . S
C111 O96 1.238 . S
C111 O97 1.247 . S
C111 C105 1.507 . S
H112 C85 0.930 . S
H113 C86 0.931 . S
H114 C87 0.930 . S
H115 C88 0.930 . S
H116 C107 0.930 . S
H117 C108 0.931 . S
H118 C109 0.930 . S
H119 C110 0.930 . S
C120 C121 1.264 . S
C120 C125 1.479 . S
C120 C130 1.465 . S
C121 C120 1.264 . S
C121 C123 1.339 . S
C121 H148 0.931 . S
C122 C123 1.395 . S
C122 C124 1.320 . S
C123 C121 1.339 . S
C123 C122 1.395 . S
C123 H149 0.929 . S
C124 C122 1.320 . S
C124 C125 1.405 . S
C124 H150 0.930 . S
C125 C120 1.479 . S
C125 C124 1.405 . S
C125 H151 0.931 . S
U126 O127 2.454 1_545 S
U126 O128 2.458 1_545 S
U126 C129 2.984 1_545 S
U126 C130 2.847 . S
U126 C143 2.882 . S
U126 O144 2.441 . S
U126 O145 2.420 . S
U126 O146 2.455 . S
U126 O147 2.449 . S
O127 U126 2.454 1_565 S
O127 C129 1.353 . S
O128 U126 2.458 1_565 S
O128 C129 1.286 . S
C129 U126 2.984 1_565 S
C129 O127 1.353 . S
C129 O128 1.286 . S
C129 C131 1.363 . S
C130 C120 1.465 . S
C130 U126 2.847 . S
C130 O144 1.249 . S
C130 O145 1.202 . S
C131 C129 1.363 . S
C131 C133 1.408 . S
C131 C136 1.342 . S
C132 C133 1.310 . S
C132 C135 1.461 . S
C132 H152 0.932 . S
C133 C131 1.408 . S
C133 C132 1.310 . S
C133 H153 0.930 . S
C134 C135 1.474 . S
C134 C136 1.285 . S
C134 H154 0.929 . S
C135 C132 1.461 . S
C135 C134 1.474 . S
C136 C131 1.342 . S
C136 C134 1.285 . S
C136 H155 0.930 . S
C137 C140 1.424 . S
C137 C142 1.245 . S
C137 C143 1.428 . S
C138 C141 1.260 . S
C138 C142 1.477 . S
C138 H156 0.932 1_545 S
C139 C140 1.384 . S
C139 C141 1.479 . S
C139 H157 0.929 . S
C140 C137 1.424 . S
C140 C139 1.384 . S
C140 H158 0.928 . S
C141 C138 1.260 . S
C141 C139 1.479 . S
C142 C137 1.245 . S
C142 C138 1.477 . S
C142 H159 0.932 1_545 S
C143 U126 2.882 . S
C143 C137 1.428 . S
C143 O146 1.301 . S
C143 O147 1.282 . S
O144 U126 2.441 . S
O144 C130 1.249 . S
O145 U126 2.420 . S
O145 C130 1.202 . S
O146 U126 2.455 . S
O146 C143 1.301 . S
O147 U126 2.449 . S
O147 C143 1.282 . S
H148 C121 0.931 . S
H149 C123 0.929 . S
H150 C124 0.930 . S
H151 C125 0.931 . S
H152 C132 0.932 . S
H153 C133 0.930 . S
H154 C134 0.929 . S
H155 C136 0.930 . S
H156 C138 0.932 1_565 S
H157 C139 0.929 . S
H158 C140 0.928 . S
H159 C142 0.932 1_565 S
C160 C161 1.264 . S
C160 C165 1.479 . S
C160 C170 1.465 . S
C161 C160 1.264 . S
C161 C163 1.339 . S
C161 H188 0.931 . S
C162 C163 1.395 . S
C162 C164 1.320 . S
C163 C161 1.339 . S
C163 C162 1.395 . S
C163 H189 0.929 . S
C164 C162 1.320 . S
C164 C165 1.405 . S
C164 H190 0.930 . S
C165 C160 1.479 . S
C165 C164 1.405 . S
C165 H191 0.931 . S
U166 O167 2.454 . S
U166 O168 2.458 . S
U166 C169 2.984 . S
U166 C170 2.847 . S
U166 C183 2.882 . S
U166 O184 2.441 . S
U166 O185 2.420 . S
U166 O186 2.455 . S
U166 O187 2.449 . S
O167 U166 2.454 . S
O167 C169 1.353 . S
O168 U166 2.458 . S
O168 C169 1.286 . S
C169 U166 2.984 . S
C169 O167 1.353 . S
C169 O168 1.286 . S
C169 C171 1.363 . S
C170 C160 1.465 . S
C170 U166 2.847 . S
C170 O184 1.249 . S
C170 O185 1.202 . S
C171 C169 1.363 . S
C171 C173 1.408 . S
C171 C176 1.342 . S
C172 C173 1.310 . S
C172 C175 1.461 . S
C172 H192 0.932 . S
C173 C171 1.408 . S
C173 C172 1.310 . S
C173 H193 0.930 . S
C174 C175 1.474 . S
C174 C176 1.285 . S
C174 H194 0.929 . S
C175 C172 1.461 . S
C175 C174 1.474 . S
C176 C171 1.342 . S
C176 C174 1.285 . S
C176 H195 0.930 . S
C177 C180 1.424 . S
C177 C182 1.245 . S
C177 C183 1.428 . S
C178 C181 1.260 . S
C178 C182 1.477 . S
C178 H196 0.932 . S
C179 C180 1.384 . S
C179 C181 1.479 . S
C179 H197 0.929 . S
C180 C177 1.424 . S
C180 C179 1.384 . S
C180 H198 0.928 . S
C181 C178 1.260 . S
C181 C179 1.479 . S
C182 C177 1.245 . S
C182 C178 1.477 . S
C182 H199 0.932 . S
C183 U166 2.882 . S
C183 C177 1.428 . S
C183 O186 1.301 . S
C183 O187 1.282 . S
O184 U166 2.441 . S
O184 C170 1.249 . S
O185 U166 2.420 . S
O185 C170 1.202 . S
O186 U166 2.455 . S
O186 C183 1.301 . S
O187 U166 2.449 . S
O187 C183 1.282 . S
H188 C161 0.931 . S
H189 C163 0.929 . S
H190 C164 0.930 . S
H191 C165 0.931 . S
H192 C172 0.932 . S
H193 C173 0.930 . S
H194 C174 0.929 . S
H195 C176 0.930 . S
H196 C178 0.932 . S
H197 C179 0.929 . S
H198 C180 0.928 . S
H199 C182 0.932 . S
C200 C201 1.264 . S
C200 C205 1.479 . S
C200 C210 1.465 . S
C201 C200 1.264 . S
C201 C203 1.339 . S
C201 H228 0.931 . S
C202 C203 1.395 . S
C202 C204 1.320 . S
C203 C201 1.339 . S
C203 C202 1.395 . S
C203 H229 0.929 . S
C204 C202 1.320 . S
C204 C205 1.405 . S
C204 H230 0.930 . S
C205 C200 1.479 . S
C205 C204 1.405 . S
C205 H231 0.931 . S
U206 O207 2.454 . S
U206 O208 2.458 . S
U206 C209 2.984 . S
U206 C210 2.847 1_455 S
U206 C223 2.882 . S
U206 O224 2.441 1_455 S
U206 O225 2.420 1_455 S
U206 O226 2.455 . S
U206 O227 2.449 1_455 S
O207 U206 2.454 . S
O207 C209 1.353 . S
O208 U206 2.458 . S
O208 C209 1.286 . S
C209 U206 2.984 . S
C209 O207 1.353 . S
C209 O208 1.286 . S
C209 C211 1.363 . S
C210 C200 1.465 . S
C210 U206 2.847 1_655 S
C210 O224 1.249 . S
C210 O225 1.202 . S
C211 C209 1.363 . S
C211 C213 1.408 . S
C211 C216 1.342 . S
C212 C213 1.310 . S
C212 C215 1.461 . S
C212 H232 0.932 . S
C213 C211 1.408 . S
C213 C212 1.310 . S
C213 H233 0.930 . S
C214 C215 1.474 . S
C214 C216 1.285 . S
C214 H234 0.929 . S
C215 C212 1.461 . S
C215 C214 1.474 . S
C216 C211 1.342 . S
C216 C214 1.285 . S
C216 H235 0.930 . S
C217 C220 1.424 1_455 S
C217 C222 1.245 . S
C217 C223 1.428 . S
C218 C221 1.260 . S
C218 C222 1.477 1_554 S
C218 H236 0.932 . S
C219 C220 1.384 . S
C219 C221 1.479 1_656 S
C219 H237 0.929 1_556 S
C220 C217 1.424 1_655 S
C220 C219 1.384 . S
C220 H238 0.928 . S
C221 C218 1.260 . S
C221 C219 1.479 1_454 S
C222 C217 1.245 . S
C222 C218 1.477 1_556 S
C222 H239 0.932 . S
C223 U206 2.882 . S
C223 C217 1.428 . S
C223 O226 1.301 . S
C223 O227 1.282 1_455 S
O224 U206 2.441 1_655 S
O224 C210 1.249 . S
O225 U206 2.420 1_655 S
O225 C210 1.202 . S
O226 U206 2.455 . S
O226 C223 1.301 . S
O227 U206 2.449 1_655 S
O227 C223 1.282 1_655 S
H228 C201 0.931 . S
H229 C203 0.929 . S
H230 C204 0.930 . S
H231 C205 0.931 . S
H232 C212 0.932 . S
H233 C213 0.930 . S
H234 C214 0.929 . S
H235 C216 0.930 . S
H236 C218 0.932 . S
H237 C219 0.929 1_554 S
H238 C220 0.928 . S
H239 C222 0.932 . S
C240 C241 1.264 . S
C240 C245 1.479 . S
C240 C250 1.465 . S
C241 C240 1.264 . S
C241 C243 1.339 . S
C241 H268 0.931 . S
C242 C243 1.395 . S
C242 C244 1.320 . S
C243 C241 1.339 . S
C243 C242 1.395 . S
C243 H269 0.929 . S
C244 C242 1.320 . S
C244 C245 1.405 . S
C244 H270 0.930 . S
C245 C240 1.479 . S
C245 C244 1.405 . S
C245 H271 0.931 . S
U246 O247 2.454 1_655 S
U246 O248 2.458 1_655 S
U246 C249 2.984 1_655 S
U246 C250 2.847 . S
U246 C263 2.882 . S
U246 O264 2.441 . S
U246 O265 2.420 . S
U246 O266 2.455 1_655 S
U246 O267 2.449 . S
O247 U246 2.454 1_455 S
O247 C249 1.353 . S
O248 U246 2.458 1_455 S
O248 C249 1.286 . S
C249 U246 2.984 1_455 S
C249 O247 1.353 . S
C249 O248 1.286 . S
C249 C251 1.363 . S
C250 C240 1.465 . S
C250 U246 2.847 . S
C250 O264 1.249 . S
C250 O265 1.202 . S
C251 C249 1.363 . S
C251 C253 1.408 . S
C251 C256 1.342 . S
C252 C253 1.310 . S
C252 C255 1.461 . S
C252 H272 0.932 . S
C253 C251 1.408 . S
C253 C252 1.310 . S
C253 H273 0.930 . S
C254 C255 1.474 . S
C254 C256 1.285 . S
C254 H274 0.929 . S
C255 C252 1.461 . S
C255 C254 1.474 . S
C256 C251 1.342 . S
C256 C254 1.285 . S
C256 H275 0.930 . S
C257 C260 1.424 . S
C257 C262 1.245 1_655 S
C257 C263 1.428 . S
C258 C261 1.260 1_455 S
C258 C262 1.477 . S
C258 H276 0.932 . S
C259 C260 1.384 . S
C259 C261 1.479 . S
C259 H277 0.929 . S
C260 C257 1.424 . S
C260 C259 1.384 . S
C260 H278 0.928 . S
C261 C258 1.260 1_655 S
C261 C259 1.479 . S
C262 C257 1.245 1_455 S
C262 C258 1.477 . S
C262 H279 0.932 . S
C263 U246 2.882 . S
C263 C257 1.428 . S
C263 O266 1.301 1_655 S
C263 O267 1.282 . S
O264 U246 2.441 . S
O264 C250 1.249 . S
O265 U246 2.420 . S
O265 C250 1.202 . S
O266 U246 2.455 1_455 S
O266 C263 1.301 1_455 S
O267 U246 2.449 . S
O267 C263 1.282 . S
H268 C241 0.931 . S
H269 C243 0.929 . S
H270 C244 0.930 . S
H271 C245 0.931 . S
H272 C252 0.932 . S
H273 C253 0.930 . S
H274 C254 0.929 . S
H275 C256 0.930 . S
H276 C258 0.932 . S
H277 C259 0.929 . S
H278 C260 0.928 . S
H279 C262 0.932 . S
C280 C281 1.264 . S
C280 C285 1.479 . S
C280 C290 1.465 . S
C281 C280 1.264 . S
C281 C283 1.339 . S
C281 H308 0.931 . S
C282 C283 1.395 . S
C282 C284 1.320 . S
C283 C281 1.339 . S
C283 C282 1.395 . S
C283 H309 0.929 . S
C284 C282 1.320 . S
C284 C285 1.405 . S
C284 H310 0.930 . S
C285 C280 1.479 . S
C285 C284 1.405 . S
C285 H311 0.931 . S
U286 O287 2.454 1_565 S
U286 O288 2.458 1_565 S
U286 C289 2.984 1_565 S
U286 C290 2.847 . S
U286 C303 2.882 . S
U286 O304 2.441 . S
U286 O305 2.420 . S
U286 O306 2.455 1_565 S
U286 O307 2.449 . S
O287 U286 2.454 1_545 S
O287 C289 1.353 . S
O288 U286 2.458 1_545 S
O288 C289 1.286 . S
C289 U286 2.984 1_545 S
C289 O287 1.353 . S
C289 O288 1.286 . S
C289 C291 1.363 . S
C290 C280 1.465 . S
C290 U286 2.847 . S
C290 O304 1.249 . S
C290 O305 1.202 . S
C291 C289 1.363 . S
C291 C293 1.408 . S
C291 C296 1.342 . S
C292 C293 1.310 . S
C292 C295 1.461 . S
C292 H312 0.932 . S
C293 C291 1.408 . S
C293 C292 1.310 . S
C293 H313 0.930 . S
C294 C295 1.474 . S
C294 C296 1.285 . S
C294 H314 0.929 . S
C295 C292 1.461 . S
C295 C294 1.474 . S
C296 C291 1.342 . S
C296 C294 1.285 . S
C296 H315 0.930 . S
C297 C300 1.424 . S
C297 C302 1.245 1_565 S
C297 C303 1.428 . S
C298 C301 1.260 1_545 S
C298 C302 1.477 . S
C298 H316 0.932 . S
C299 C300 1.384 . S
C299 C301 1.479 . S
C299 H317 0.929 . S
C300 C297 1.424 . S
C300 C299 1.384 . S
C300 H318 0.928 . S
C301 C298 1.260 1_565 S
C301 C299 1.479 . S
C302 C297 1.245 1_545 S
C302 C298 1.477 . S
C302 H319 0.932 . S
C303 U286 2.882 . S
C303 C297 1.428 . S
C303 O306 1.301 1_565 S
C303 O307 1.282 . S
O304 U286 2.441 . S
O304 C290 1.249 . S
O305 U286 2.420 . S
O305 C290 1.202 . S
O306 U286 2.455 1_545 S
O306 C303 1.301 1_545 S
O307 U286 2.449 . S
O307 C303 1.282 . S
H308 C281 0.931 . S
H309 C283 0.929 . S
H310 C284 0.930 . S
H311 C285 0.931 . S
H312 C292 0.932 . S
H313 C293 0.930 . S
H314 C294 0.929 . S
H315 C296 0.930 . S
H316 C298 0.932 . S
H317 C299 0.929 . S
H318 C300 0.928 . S
H319 C302 0.932 . S
C320 C321 1.264 . S
C320 C325 1.479 . S
C320 C330 1.465 . S
C321 C320 1.264 . S
C321 C323 1.339 . S
C321 H348 0.931 . S
C322 C323 1.395 . S
C322 C324 1.320 . S
C323 C321 1.339 . S
C323 C322 1.395 . S
C323 H349 0.929 . S
C324 C322 1.320 . S
C324 C325 1.405 . S
C324 H350 0.930 . S
C325 C320 1.479 . S
C325 C324 1.405 . S
C325 H351 0.931 . S
U326 O327 2.454 . S
U326 O328 2.458 . S
U326 C329 2.984 . S
U326 C330 2.847 . S
U326 C343 2.882 . S
U326 O344 2.441 . S
U326 O345 2.420 . S
U326 O346 2.455 . S
U326 O347 2.449 . S
O327 U326 2.454 . S
O327 C329 1.353 . S
O328 U326 2.458 . S
O328 C329 1.286 . S
C329 U326 2.984 . S
C329 O327 1.353 . S
C329 O328 1.286 . S
C329 C331 1.363 . S
C330 C320 1.465 . S
C330 U326 2.847 . S
C330 O344 1.249 . S
C330 O345 1.202 . S
C331 C329 1.363 . S
C331 C333 1.408 . S
C331 C336 1.342 . S
C332 C333 1.310 . S
C332 C335 1.461 . S
C332 H352 0.932 . S
C333 C331 1.408 . S
C333 C332 1.310 . S
C333 H353 0.930 . S
C334 C335 1.474 . S
C334 C336 1.285 . S
C334 H354 0.929 . S
C335 C332 1.461 . S
C335 C334 1.474 . S
C336 C331 1.342 . S
C336 C334 1.285 . S
C336 H355 0.930 . S
C337 C340 1.424 . S
C337 C342 1.245 . S
C337 C343 1.428 . S
C338 C341 1.260 . S
C338 C342 1.477 1_556 S
C338 H356 0.932 . S
C339 C340 1.384 1_556 S
C339 C341 1.479 . S
C339 H357 0.929 . S
C340 C337 1.424 . S
C340 C339 1.384 1_554 S
C340 H358 0.928 . S
C341 C338 1.260 . S
C341 C339 1.479 . S
C342 C337 1.245 . S
C342 C338 1.477 1_554 S
C342 H359 0.932 . S
C343 U326 2.882 . S
C343 C337 1.428 . S
C343 O346 1.301 . S
C343 O347 1.282 . S
O344 U326 2.441 . S
O344 C330 1.249 . S
O345 U326 2.420 . S
O345 C330 1.202 . S
O346 U326 2.455 . S
O346 C343 1.301 . S
O347 U326 2.449 . S
O347 C343 1.282 . S
H348 C321 0.931 . S
H349 C323 0.929 . S
H350 C324 0.930 . S
H351 C325 0.931 . S
H352 C332 0.932 . S
H353 C333 0.930 . S
H354 C334 0.929 . S
H355 C336 0.930 . S
H356 C338 0.932 . S
H357 C339 0.929 . S
H358 C340 0.928 . S
H359 C342 0.932 . S
C360 C361 1.363 . S
C360 C366 1.379 . S
C360 N368 1.356 . S
C361 C360 1.363 . S
C361 C367 1.363 . S
C362 C363 1.363 . S
C362 C367 1.379 . S
C362 N369 1.356 . S
C363 C362 1.363 . S
C363 C366 1.363 . S
N364 C366 1.356 . S
N364 H376 0.984 . S
N364 H377 0.985 . S
N365 C367 1.356 . S
N365 H370 0.984 . S
N365 H371 0.985 . S
C366 C360 1.379 . S
C366 C363 1.363 . S
C366 N364 1.356 . S
C367 C361 1.363 . S
C367 C362 1.379 . S
C367 N365 1.356 . S
N368 C360 1.356 . S
N368 H374 0.984 . S
N368 H375 0.984 . S
N369 C362 1.356 . S
N369 H372 0.984 . S
N369 H373 0.985 . S
H370 N365 0.984 . S
H371 N365 0.985 . S
H372 N369 0.984 . S
H373 N369 0.985 . S
H374 N368 0.984 . S
H375 N368 0.984 . S
H376 N364 0.984 . S
H377 N364 0.985 . S
C378 C379 1.363 . S
C378 C384 1.379 . S
C378 N386 1.356 . S
C379 C378 1.363 . S
C379 C385 1.363 . S
C380 C381 1.363 . S
C380 C385 1.379 . S
C380 N387 1.356 . S
C381 C380 1.363 . S
C381 C384 1.363 . S
N382 C384 1.356 . S
N382 H394 0.984 . S
N382 H395 0.985 . S
N383 C385 1.356 . S
N383 H388 0.984 . S
N383 H389 0.985 . S
C384 C378 1.379 . S
C384 C381 1.363 . S
C384 N382 1.356 . S
C385 C379 1.363 . S
C385 C380 1.379 . S
C385 N383 1.356 . S
N386 C378 1.356 . S
N386 H392 0.984 . S
N386 H393 0.984 . S
N387 C380 1.356 . S
N387 H390 0.984 . S
N387 H391 0.985 . S
H388 N383 0.984 . S
H389 N383 0.985 . S
H390 N387 0.984 . S
H391 N387 0.985 . S
H392 N386 0.984 . S
H393 N386 0.984 . S
H394 N382 0.984 . S
H395 N382 0.985 . S
C396 C397 1.363 . S
C396 C402 1.379 . S
C396 N404 1.356 . S
C397 C396 1.363 . S
C397 C403 1.363 . S
C398 C399 1.363 . S
C398 C403 1.379 . S
C398 N405 1.356 . S
C399 C398 1.363 . S
C399 C402 1.363 . S
N400 C402 1.356 . S
N400 H412 0.984 . S
N400 H413 0.985 . S
N401 C403 1.356 . S
N401 H406 0.984 . S
N401 H407 0.985 . S
C402 C396 1.379 . S
C402 C399 1.363 . S
C402 N400 1.356 . S
C403 C397 1.363 . S
C403 C398 1.379 . S
C403 N401 1.356 . S
N404 C396 1.356 . S
N404 H410 0.984 . S
N404 H411 0.984 . S
N405 C398 1.356 . S
N405 H408 0.984 . S
N405 H409 0.985 . S
H406 N401 0.984 . S
H407 N401 0.985 . S
H408 N405 0.984 . S
H409 N405 0.985 . S
H410 N404 0.984 . S
H411 N404 0.984 . S
H412 N400 0.984 . S
H413 N400 0.985 . S
C414 C415 1.363 . S
C414 C420 1.379 . S
C414 N422 1.356 . S
C415 C414 1.363 . S
C415 C421 1.363 . S
C416 C417 1.363 . S
C416 C421 1.379 . S
C416 N423 1.356 . S
C417 C416 1.363 . S
C417 C420 1.363 . S
N418 C420 1.356 . S
N418 H430 0.984 . S
N418 H431 0.985 . S
N419 C421 1.356 . S
N419 H424 0.984 . S
N419 H425 0.985 . S
C420 C414 1.379 . S
C420 C417 1.363 . S
C420 N418 1.356 . S
C421 C415 1.363 . S
C421 C416 1.379 . S
C421 N419 1.356 . S
N422 C414 1.356 . S
N422 H428 0.984 . S
N422 H429 0.984 . S
N423 C416 1.356 . S
N423 H426 0.984 . S
N423 H427 0.985 . S
H424 N419 0.984 . S
H425 N419 0.985 . S
H426 N423 0.984 . S
H427 N423 0.985 . S
H428 N422 0.984 . S
H429 N422 0.984 . S
H430 N418 0.984 . S
H431 N418 0.985 . S
C432 C433 1.363 . S
C432 C438 1.379 . S
C432 N440 1.356 . S
C433 C432 1.363 . S
C433 C439 1.363 . S
C434 C435 1.363 . S
C434 C439 1.379 . S
C434 N441 1.356 . S
C435 C434 1.363 . S
C435 C438 1.363 . S
N436 C438 1.356 . S
N436 H448 0.984 . S
N436 H449 0.985 . S
N437 C439 1.356 . S
N437 H442 0.984 . S
N437 H443 0.985 . S
C438 C432 1.379 . S
C438 C435 1.363 . S
C438 N436 1.356 . S
C439 C433 1.363 . S
C439 C434 1.379 . S
C439 N437 1.356 . S
N440 C432 1.356 . S
N440 H446 0.984 . S
N440 H447 0.984 . S
N441 C434 1.356 . S
N441 H444 0.984 . S
N441 H445 0.985 . S
H442 N437 0.984 . S
H443 N437 0.985 . S
H444 N441 0.984 . S
H445 N441 0.985 . S
H446 N440 0.984 . S
H447 N440 0.984 . S
H448 N436 0.984 . S
H449 N436 0.985 . S
C450 C451 1.363 . S
C450 C456 1.379 . S
C450 N458 1.356 . S
C451 C450 1.363 . S
C451 C457 1.363 . S
C452 C453 1.363 . S
C452 C457 1.379 . S
C452 N459 1.356 . S
C453 C452 1.363 . S
C453 C456 1.363 . S
N454 C456 1.356 . S
N454 H466 0.984 . S
N454 H467 0.985 . S
N455 C457 1.356 . S
N455 H460 0.984 . S
N455 H461 0.985 . S
C456 C450 1.379 . S
C456 C453 1.363 . S
C456 N454 1.356 . S
C457 C451 1.363 . S
C457 C452 1.379 . S
C457 N455 1.356 . S
N458 C450 1.356 . S
N458 H464 0.984 . S
N458 H465 0.984 . S
N459 C452 1.356 . S
N459 H462 0.984 . S
N459 H463 0.985 . S
H460 N455 0.984 . S
H461 N455 0.985 . S
H462 N459 0.984 . S
H463 N459 0.985 . S
H464 N458 0.984 . S
H465 N458 0.984 . S
H466 N454 0.984 . S
H467 N454 0.985 . S
C468 C469 1.363 . S
C468 C474 1.379 . S
C468 N476 1.356 . S
C469 C468 1.363 . S
C469 C475 1.363 . S
C470 C471 1.363 . S
C470 C475 1.379 . S
C470 N477 1.356 . S
C471 C470 1.363 . S
C471 C474 1.363 . S
N472 C474 1.356 . S
N472 H484 0.984 . S
N472 H485 0.985 . S
N473 C475 1.356 . S
N473 H478 0.984 . S
N473 H479 0.985 . S
C474 C468 1.379 . S
C474 C471 1.363 . S
C474 N472 1.356 . S
C475 C469 1.363 . S
C475 C470 1.379 . S
C475 N473 1.356 . S
N476 C468 1.356 . S
N476 H482 0.984 . S
N476 H483 0.984 . S
N477 C470 1.356 . S
N477 H480 0.984 . S
N477 H481 0.985 . S
H478 N473 0.984 . S
H479 N473 0.985 . S
H480 N477 0.984 . S
H481 N477 0.985 . S
H482 N476 0.984 . S
H483 N476 0.984 . S
H484 N472 0.984 . S
H485 N472 0.985 . S
C486 C487 1.363 . S
C486 C492 1.379 . S
C486 N494 1.356 . S
C487 C486 1.363 . S
C487 C493 1.363 . S
C488 C489 1.363 . S
C488 C493 1.379 . S
C488 N495 1.356 . S
C489 C488 1.363 . S
C489 C492 1.363 . S
N490 C492 1.356 . S
N490 H502 0.984 . S
N490 H503 0.985 . S
N491 C493 1.356 . S
N491 H496 0.984 . S
N491 H497 0.985 . S
C492 C486 1.379 . S
C492 C489 1.363 . S
C492 N490 1.356 . S
C493 C487 1.363 . S
C493 C488 1.379 . S
C493 N491 1.356 . S
N494 C486 1.356 . S
N494 H500 0.984 . S
N494 H501 0.984 . S
N495 C488 1.356 . S
N495 H498 0.984 . S
N495 H499 0.985 . S
H496 N491 0.984 . S
H497 N491 0.985 . S
H498 N495 0.984 . S
H499 N495 0.985 . S
H500 N494 0.984 . S
H501 N494 0.984 . S
H502 N490 0.984 . S
H503 N490 0.985 . S
C504 C505 1.363 . S
C504 C510 1.379 . S
C504 N512 1.356 . S
C505 C504 1.363 . S
C505 C511 1.363 . S
C506 C507 1.363 . S
C506 C511 1.379 . S
C506 N513 1.356 . S
C507 C506 1.363 . S
C507 C510 1.363 . S
N508 C510 1.356 . S
N508 H520 0.984 . S
N508 H521 0.985 . S
N509 C511 1.356 . S
N509 H514 0.984 . S
N509 H515 0.985 . S
C510 C504 1.379 . S
C510 C507 1.363 . S
C510 N508 1.356 . S
C511 C505 1.363 . S
C511 C506 1.379 . S
C511 N509 1.356 . S
N512 C504 1.356 . S
N512 H518 0.984 . S
N512 H519 0.984 . S
N513 C506 1.356 . S
N513 H516 0.984 . S
N513 H517 0.985 . S
H514 N509 0.984 . S
H515 N509 0.985 . S
H516 N513 0.984 . S
H517 N513 0.985 . S
H518 N512 0.984 . S
H519 N512 0.984 . S
H520 N508 0.984 . S
H521 N508 0.985 . S
C522 C523 1.363 . S
C522 C528 1.379 . S
C522 N530 1.356 . S
C523 C522 1.363 . S
C523 C529 1.363 . S
C524 C525 1.363 . S
C524 C529 1.379 . S
C524 N531 1.356 . S
C525 C524 1.363 . S
C525 C528 1.363 . S
N526 C528 1.356 . S
N526 H538 0.984 . S
N526 H539 0.985 . S
N527 C529 1.356 . S
N527 H532 0.984 . S
N527 H533 0.985 . S
C528 C522 1.379 . S
C528 C525 1.363 . S
C528 N526 1.356 . S
C529 C523 1.363 . S
C529 C524 1.379 . S
C529 N527 1.356 . S
N530 C522 1.356 . S
N530 H536 0.984 . S
N530 H537 0.984 . S
N531 C524 1.356 . S
N531 H534 0.984 . S
N531 H535 0.985 . S
H532 N527 0.984 . S
H533 N527 0.985 . S
H534 N531 0.984 . S
H535 N531 0.985 . S
H536 N530 0.984 . S
H537 N530 0.984 . S
H538 N526 0.984 . S
H539 N526 0.985 . S
C540 C541 1.363 . S
C540 C546 1.379 . S
C540 N548 1.356 . S
C541 C540 1.363 . S
C541 C547 1.363 . S
C542 C543 1.363 . S
C542 C547 1.379 . S
C542 N549 1.356 . S
C543 C542 1.363 . S
C543 C546 1.363 . S
N544 C546 1.356 . S
N544 H556 0.984 . S
N544 H557 0.985 . S
N545 C547 1.356 . S
N545 H550 0.984 . S
N545 H551 0.985 . S
C546 C540 1.379 . S
C546 C543 1.363 . S
C546 N544 1.356 . S
C547 C541 1.363 . S
C547 C542 1.379 . S
C547 N545 1.356 . S
N548 C540 1.356 . S
N548 H554 0.984 . S
N548 H555 0.984 . S
N549 C542 1.356 . S
N549 H552 0.984 . S
N549 H553 0.985 . S
H550 N545 0.984 . S
H551 N545 0.985 . S
H552 N549 0.984 . S
H553 N549 0.985 . S
H554 N548 0.984 . S
H555 N548 0.984 . S
H556 N544 0.984 . S
H557 N544 0.985 . S
C558 C559 1.363 . S
C558 C564 1.379 . S
C558 N566 1.356 . S
C559 C558 1.363 . S
C559 C565 1.363 . S
C560 C561 1.363 . S
C560 C565 1.379 . S
C560 N567 1.356 . S
C561 C560 1.363 . S
C561 C564 1.363 . S
N562 C564 1.356 . S
N562 H574 0.984 . S
N562 H575 0.985 . S
N563 C565 1.356 . S
N563 H568 0.984 . S
N563 H569 0.985 . S
C564 C558 1.379 . S
C564 C561 1.363 . S
C564 N562 1.356 . S
C565 C559 1.363 . S
C565 C560 1.379 . S
C565 N563 1.356 . S
N566 C558 1.356 . S
N566 H572 0.984 . S
N566 H573 0.984 . S
N567 C560 1.356 . S
N567 H570 0.984 . S
N567 H571 0.985 . S
H568 N563 0.984 . S
H569 N563 0.985 . S
H570 N567 0.984 . S
H571 N567 0.985 . S
H572 N566 0.984 . S
H573 N566 0.984 . S
H574 N562 0.984 . S
H575 N562 0.985 . S
C576 C577 1.363 . S
C576 C582 1.379 . S
C576 N584 1.356 . S
C577 C576 1.363 . S
C577 C583 1.363 . S
C578 C579 1.363 . S
C578 C583 1.379 . S
C578 N585 1.356 . S
C579 C578 1.363 . S
C579 C582 1.363 . S
N580 C582 1.356 . S
N580 H592 0.984 . S
N580 H593 0.985 . S
N581 C583 1.356 . S
N581 H586 0.984 . S
N581 H587 0.985 . S
C582 C576 1.379 . S
C582 C579 1.363 . S
C582 N580 1.356 . S
C583 C577 1.363 . S
C583 C578 1.379 . S
C583 N581 1.356 . S
N584 C576 1.356 . S
N584 H590 0.984 . S
N584 H591 0.984 . S
N585 C578 1.356 . S
N585 H588 0.984 . S
N585 H589 0.985 . S
H586 N581 0.984 . S
H587 N581 0.985 . S
H588 N585 0.984 . S
H589 N585 0.985 . S
H590 N584 0.984 . S
H591 N584 0.984 . S
H592 N580 0.984 . S
H593 N580 0.985 . S
C594 C595 1.363 . S
C594 C600 1.379 . S
C594 N602 1.356 1_545 S
C595 C594 1.363 . S
C595 C601 1.363 . S
C596 C597 1.363 . S
C596 C601 1.379 . S
C596 N603 1.356 . S
C597 C596 1.363 . S
C597 C600 1.363 . S
N598 C600 1.356 1_565 S
N598 H610 0.984 . S
N598 H611 0.985 . S
N599 C601 1.356 . S
N599 H604 0.984 . S
N599 H605 0.985 . S
C600 C594 1.379 . S
C600 C597 1.363 . S
C600 N598 1.356 1_545 S
C601 C595 1.363 . S
C601 C596 1.379 . S
C601 N599 1.356 . S
N602 C594 1.356 1_565 S
N602 H608 0.984 . S
N602 H609 0.984 . S
N603 C596 1.356 . S
N603 H606 0.984 . S
N603 H607 0.985 . S
H604 N599 0.984 . S
H605 N599 0.985 . S
H606 N603 0.984 . S
H607 N603 0.985 . S
H608 N602 0.984 . S
H609 N602 0.984 . S
H610 N598 0.984 . S
H611 N598 0.985 . S
C612 C613 1.363 . S
C612 C618 1.379 . S
C612 N620 1.356 . S
C613 C612 1.363 . S
C613 C619 1.363 . S
C614 C615 1.363 . S
C614 C619 1.379 . S
C614 N621 1.356 . S
C615 C614 1.363 . S
C615 C618 1.363 . S
N616 C618 1.356 . S
N616 H628 0.984 . S
N616 H629 0.985 . S
N617 C619 1.356 . S
N617 H622 0.984 . S
N617 H623 0.985 . S
C618 C612 1.379 . S
C618 C615 1.363 . S
C618 N616 1.356 . S
C619 C613 1.363 . S
C619 C614 1.379 . S
C619 N617 1.356 . S
N620 C612 1.356 . S
N620 H626 0.984 . S
N620 H627 0.984 . S
N621 C614 1.356 . S
N621 H624 0.984 . S
N621 H625 0.985 . S
H622 N617 0.984 . S
H623 N617 0.985 . S
H624 N621 0.984 . S
H625 N621 0.985 . S
H626 N620 0.984 . S
H627 N620 0.984 . S
H628 N616 0.984 . S
H629 N616 0.985 . S
C630 C631 1.363 1_565 S
C630 C636 1.379 . S
C630 N638 1.356 . S
C631 C630 1.363 1_545 S
C631 C637 1.363 . S
C632 C633 1.363 . S
C632 C637 1.379 . S
C632 N639 1.356 . S
C633 C632 1.363 . S
C633 C636 1.363 1_545 S
N634 C636 1.356 . S
N634 H646 0.984 . S
N634 H647 0.985 . S
N635 C637 1.356 . S
N635 H640 0.984 . S
N635 H641 0.985 . S
C636 C630 1.379 . S
C636 C633 1.363 1_565 S
C636 N634 1.356 . S
C637 C631 1.363 . S
C637 C632 1.379 . S
C637 N635 1.356 . S
N638 C630 1.356 . S
N638 H644 0.984 . S
N638 H645 0.984 . S
N639 C632 1.356 . S
N639 H642 0.984 . S
N639 H643 0.985 . S
H640 N635 0.984 . S
H641 N635 0.985 . S
H642 N639 0.984 . S
H643 N639 0.985 . S
H644 N638 0.984 . S
H645 N638 0.984 . S
H646 N634 0.984 . S
H647 N634 0.985 . S
C648 C649 1.363 . S
C648 C654 1.379 . S
C648 N656 1.356 . S
C649 C648 1.363 . S
C649 C655 1.363 . S
C650 C651 1.363 . S
C650 C655 1.379 . S
C650 N657 1.356 . S
C651 C650 1.363 . S
C651 C654 1.363 . S
N652 C654 1.356 . S
N652 H664 0.984 . S
N652 H665 0.985 . S
N653 C655 1.356 . S
N653 H658 0.984 . S
N653 H659 0.985 . S
C654 C648 1.379 . S
C654 C651 1.363 . S
C654 N652 1.356 . S
C655 C649 1.363 . S
C655 C650 1.379 . S
C655 N653 1.356 . S
N656 C648 1.356 . S
N656 H662 0.984 . S
N656 H663 0.984 . S
N657 C650 1.356 . S
N657 H660 0.984 . S
N657 H661 0.985 . S
H658 N653 0.984 . S
H659 N653 0.985 . S
H660 N657 0.984 . S
H661 N657 0.985 . S
H662 N656 0.984 . S
H663 N656 0.984 . S
H664 N652 0.984 . S
H665 N652 0.985 . S
C666 C667 1.363 1_655 S
C666 C672 1.379 . S
C666 N674 1.356 . S
C667 C666 1.363 1_455 S
C667 C673 1.363 . S
C668 C669 1.365 1_455 S
C668 C673 1.379 . S
C668 N675 1.356 . S
C669 C668 1.365 1_655 S
C669 C672 1.362 . S
N670 C672 1.356 . S
N670 H682 0.984 . S
N670 H683 0.985 . S
N671 C673 1.356 . S
N671 H676 0.984 . S
N671 H677 0.985 . S
C672 C666 1.379 . S
C672 C669 1.362 . S
C672 N670 1.356 . S
C673 C667 1.363 . S
C673 C668 1.379 . S
C673 N671 1.356 . S
N674 C666 1.356 . S
N674 H680 0.984 . S
N674 H681 0.984 . S
N675 C668 1.356 . S
N675 H678 0.984 . S
N675 H679 0.985 . S
H676 N671 0.984 . S
H677 N671 0.985 . S
H678 N675 0.984 . S
H679 N675 0.985 . S
H680 N674 0.984 . S
H681 N674 0.984 . S
H682 N670 0.984 . S
H683 N670 0.985 . S
C361 C9 0.722 . S
C363 C335 0.714 . S
C379 C49 0.394 . S
C381 C242 0.350 . S
C397 C89 0.422 . S
C399 C282 0.396 . S
C415 C26 0.562 . S
C417 C322 0.481 . S
C435 C255 0.657 . S
C433 C66 0.692 . S
C453 C295 0.721 . S
C451 C106 0.732 . S
C469 C43 3.108 . S
C471 C162 3.044 . S
C487 C83 3.253 . S
C489 C202 3.179 . S
C505 C22 3.327 . S
C507 C135 3.221 . S
C525 C175 3.219 . S
C523 C62 3.323 . S
C543 C215 3.087 . S
C541 C102 3.176 . S
C559 C3 3.104 . S
C561 C122 3.043 . S
C579 C221 1.785 . S
C577 C15 1.740 . S
C595 C55 1.759 . S
C597 C141 1.791 . S
C613 C95 1.753 . S
C615 C181 1.787 . S
C633 C301 1.105 1_545 S
C631 C42 1.101 . S
C651 C341 1.102 . S
C649 C82 1.099 . S
C667 C2 1.084 . S
C669 C261 1.086 . S
