# Generated by pormake.
# Topology soc, (4,6)-cn, num edge types: 1
# Building blocks:
#     Node 0, Type 0, BuildingBlock: ESEHIV_clean_sbu_0, # of connection points: 4
#     Node 1, Type 0, BuildingBlock: ESEHIV_clean_sbu_0, # of connection points: 4
#     Node 2, Type 0, BuildingBlock: ESEHIV_clean_sbu_0, # of connection points: 4
#     Node 3, Type 0, BuildingBlock: ESEHIV_clean_sbu_0, # of connection points: 4
#     Node 4, Type 0, BuildingBlock: ESEHIV_clean_sbu_0, # of connection points: 4
#     Node 5, Type 0, BuildingBlock: ESEHIV_clean_sbu_0, # of connection points: 4
#     Node 6, Type 0, BuildingBlock: ESEHIV_clean_sbu_0, # of connection points: 4
#     Node 7, Type 0, BuildingBlock: ESEHIV_clean_sbu_0, # of connection points: 4
#     Node 8, Type 0, BuildingBlock: ESEHIV_clean_sbu_0, # of connection points: 4
#     Node 9, Type 0, BuildingBlock: ESEHIV_clean_sbu_0, # of connection points: 4
#     Node 10, Type 0, BuildingBlock: ESEHIV_clean_sbu_0, # of connection points: 4
#     Node 11, Type 0, BuildingBlock: ESEHIV_clean_sbu_0, # of connection points: 4
#     Node 12, Type 1, BuildingBlock: BETDAH_clean_sbu_0, # of connection points: 6
#     Node 13, Type 1, BuildingBlock: BETDAH_clean_sbu_0, # of connection points: 6
#     Node 14, Type 1, BuildingBlock: BETDAH_clean_sbu_0, # of connection points: 6
#     Node 15, Type 1, BuildingBlock: BETDAH_clean_sbu_0, # of connection points: 6
#     Node 16, Type 1, BuildingBlock: BETDAH_clean_sbu_0, # of connection points: 6
#     Node 17, Type 1, BuildingBlock: BETDAH_clean_sbu_0, # of connection points: 6
#     Node 18, Type 1, BuildingBlock: BETDAH_clean_sbu_0, # of connection points: 6
#     Node 19, Type 1, BuildingBlock: BETDAH_clean_sbu_0, # of connection points: 6
#     Edge 20, Type (0, 1), BuildingBlock: XIVTED_clean_linker_0, # of connection points: 2
#     Edge 21, Type (0, 1), BuildingBlock: XIVTED_clean_linker_0, # of connection points: 2
#     Edge 22, Type (0, 1), BuildingBlock: XIVTED_clean_linker_0, # of connection points: 2
#     Edge 23, Type (0, 1), BuildingBlock: XIVTED_clean_linker_0, # of connection points: 2
#     Edge 24, Type (0, 1), BuildingBlock: XIVTED_clean_linker_0, # of connection points: 2
#     Edge 25, Type (0, 1), BuildingBlock: XIVTED_clean_linker_0, # of connection points: 2
#     Edge 26, Type (0, 1), BuildingBlock: XIVTED_clean_linker_0, # of connection points: 2
#     Edge 27, Type (0, 1), BuildingBlock: XIVTED_clean_linker_0, # of connection points: 2
#     Edge 28, Type (0, 1), BuildingBlock: XIVTED_clean_linker_0, # of connection points: 2
#     Edge 29, Type (0, 1), BuildingBlock: XIVTED_clean_linker_0, # of connection points: 2
#     Edge 30, Type (0, 1), BuildingBlock: XIVTED_clean_linker_0, # of connection points: 2
#     Edge 31, Type (0, 1), BuildingBlock: XIVTED_clean_linker_0, # of connection points: 2
#     Edge 32, Type (0, 1), BuildingBlock: XIVTED_clean_linker_0, # of connection points: 2
#     Edge 33, Type (0, 1), BuildingBlock: XIVTED_clean_linker_0, # of connection points: 2
#     Edge 34, Type (0, 1), BuildingBlock: XIVTED_clean_linker_0, # of connection points: 2
#     Edge 35, Type (0, 1), BuildingBlock: XIVTED_clean_linker_0, # of connection points: 2
#     Edge 36, Type (0, 1), BuildingBlock: XIVTED_clean_linker_0, # of connection points: 2
#     Edge 37, Type (0, 1), BuildingBlock: XIVTED_clean_linker_0, # of connection points: 2
#     Edge 38, Type (0, 1), BuildingBlock: XIVTED_clean_linker_0, # of connection points: 2
#     Edge 39, Type (0, 1), BuildingBlock: XIVTED_clean_linker_0, # of connection points: 2
#     Edge 40, Type (0, 1), BuildingBlock: XIVTED_clean_linker_0, # of connection points: 2
#     Edge 41, Type (0, 1), BuildingBlock: XIVTED_clean_linker_0, # of connection points: 2
#     Edge 42, Type (0, 1), BuildingBlock: XIVTED_clean_linker_0, # of connection points: 2
#     Edge 43, Type (0, 1), BuildingBlock: XIVTED_clean_linker_0, # of connection points: 2
#     Edge 44, Type (0, 1), BuildingBlock: XIVTED_clean_linker_0, # of connection points: 2
#     Edge 45, Type (0, 1), BuildingBlock: XIVTED_clean_linker_0, # of connection points: 2
#     Edge 46, Type (0, 1), BuildingBlock: XIVTED_clean_linker_0, # of connection points: 2
#     Edge 47, Type (0, 1), BuildingBlock: XIVTED_clean_linker_0, # of connection points: 2
#     Edge 48, Type (0, 1), BuildingBlock: XIVTED_clean_linker_0, # of connection points: 2
#     Edge 49, Type (0, 1), BuildingBlock: XIVTED_clean_linker_0, # of connection points: 2
#     Edge 50, Type (0, 1), BuildingBlock: XIVTED_clean_linker_0, # of connection points: 2
#     Edge 51, Type (0, 1), BuildingBlock: XIVTED_clean_linker_0, # of connection points: 2
#     Edge 52, Type (0, 1), BuildingBlock: XIVTED_clean_linker_0, # of connection points: 2
#     Edge 53, Type (0, 1), BuildingBlock: XIVTED_clean_linker_0, # of connection points: 2
#     Edge 54, Type (0, 1), BuildingBlock: XIVTED_clean_linker_0, # of connection points: 2
#     Edge 55, Type (0, 1), BuildingBlock: XIVTED_clean_linker_0, # of connection points: 2
#     Edge 56, Type (0, 1), BuildingBlock: XIVTED_clean_linker_0, # of connection points: 2
#     Edge 57, Type (0, 1), BuildingBlock: XIVTED_clean_linker_0, # of connection points: 2
#     Edge 58, Type (0, 1), BuildingBlock: XIVTED_clean_linker_0, # of connection points: 2
#     Edge 59, Type (0, 1), BuildingBlock: XIVTED_clean_linker_0, # of connection points: 2
#     Edge 60, Type (0, 1), BuildingBlock: XIVTED_clean_linker_0, # of connection points: 2
#     Edge 61, Type (0, 1), BuildingBlock: XIVTED_clean_linker_0, # of connection points: 2
#     Edge 62, Type (0, 1), BuildingBlock: XIVTED_clean_linker_0, # of connection points: 2
#     Edge 63, Type (0, 1), BuildingBlock: XIVTED_clean_linker_0, # of connection points: 2
#     Edge 64, Type (0, 1), BuildingBlock: XIVTED_clean_linker_0, # of connection points: 2
#     Edge 65, Type (0, 1), BuildingBlock: XIVTED_clean_linker_0, # of connection points: 2
#     Edge 66, Type (0, 1), BuildingBlock: XIVTED_clean_linker_0, # of connection points: 2
#     Edge 67, Type (0, 1), BuildingBlock: XIVTED_clean_linker_0, # of connection points: 2
# Relax obj value: 0.183
# Max RMSD: 0.285
# Mean RMSD: 0.175
data_MOF--net-soc--node1-ESEHIV_clean_sbu_0--node2-BETDAH_clean_sbu_0--edge1-XIVTED_clean_linker_0
_symmetry_space_group_name_H-M    P1
_symmetry_Int_Tables_number       1
_symmetry_cell_setting            triclinic
loop_
_symmetry_equiv_pos_as_xyz
'x, y, z'
_cell_length_a     51.809821
_cell_length_b     50.374513
_cell_length_c     43.830295
_cell_angle_alpha  82.351474
_cell_angle_beta   82.58618
_cell_angle_gamma 69.600368
loop_
_atom_site_label
_atom_site_type_symbol
_atom_site_fract_x
_atom_site_fract_y
_atom_site_fract_z
_atom_type_partial_charge
Cu0 Cu 0.04907 0.02512 0.37847 0.0
N1 N 0.06795 0.03984 0.40133 0.0
N2 N 0.09205 0.06622 0.41138 0.0
C3 C 0.08148 0.05781 0.38938 0.0
C4 C 0.08463 0.05331 0.43832 0.0
C5 C 0.06949 0.0373 0.43209 0.0
O6 O 0.07623 0.99523 0.35542 0.0
C7 C 1.00416 0.06163 0.34038 0.0
O8 O 1.00213 0.03908 0.33036 0.0
H9 H 0.08328 0.0648 0.36501 0.0
H10 H 0.05955 0.02559 0.44906 0.0
N11 N 0.02936 0.00541 0.40492 0.0
N12 N 1.0028 0.97818 0.41704 0.0
C13 C 1.00742 0.99969 0.39797 0.0
C14 C 0.03895 0.9868 0.42928 0.0
C15 C 0.02243 0.97026 0.43706 0.0
C16 C 0.09926 0.99511 0.34106 0.0
O17 O 0.1046 0.01898 0.33475 0.0
H18 H 0.99704 0.00875 0.37733 0.0
H19 H 0.05833 0.9832 0.43858 0.0
O20 O 0.02334 0.05888 0.35731 0.0
H21 H 0.08902 0.05603 0.46096 0.0
H22 H 0.02603 0.95232 0.4545 0.0
Cu23 Cu 0.05242 0.04366 0.74396 0.0
N24 N 0.0387 0.02494 0.71937 0.0
N25 N 1.01438 0.99926 0.70797 0.0
C26 C 1.01845 0.01408 0.72926 0.0
C27 C 0.03279 1.00091 0.68366 0.0
C28 C 0.04775 0.01683 0.69075 0.0
O29 O 1.02055 0.06952 0.76685 0.0
C30 C 0.10224 1.00203 0.74756 0.0
O31 O 0.10149 0.01122 0.71811 0.0
H32 H 1.00777 0.01599 0.75221 0.0
H33 H 0.06462 0.0213 0.6764 0.0
N34 N 0.06945 0.06785 0.72112 0.0
N35 N 0.09147 0.09939 0.71425 0.0
C36 C 0.08195 0.08179 0.73471 0.0
C37 C 0.07101 0.07683 0.69082 0.0
C38 C 0.08485 0.09624 0.68647 0.0
C39 C 1.00394 0.08652 0.74807 0.0
O40 O 1.00992 0.08356 0.71839 0.0
H41 H 0.08396 0.07896 0.75931 0.0
H42 H 0.0622 0.07032 0.6733 0.0
O43 O 0.0814 0.01388 0.76609 0.0
H44 H 0.03553 0.99099 0.66249 0.0
H45 H 0.08904 0.10767 0.66477 0.0
Cu46 Cu 0.29738 0.06274 0.0915 0.0
N47 N 0.26642 0.06219 0.0746 0.0
N48 N 0.23891 0.04445 0.05513 0.0
C49 C 0.26163 0.03853 0.07016 0.0
C50 C 0.22911 0.07302 0.04949 0.0
C51 C 0.24615 0.08395 0.06164 0.0
O52 O 0.31371 0.02426 0.11258 0.0
C53 C 0.31041 0.10352 0.04905 0.0
O54 O 0.28949 0.11981 0.06578 0.0
H55 H 0.27544 0.01725 0.07632 0.0
H56 H 0.24435 0.1061 0.06029 0.0
N57 N 0.286 0.08877 0.12134 0.0
N58 N 0.2866 0.11987 0.15268 0.0
C59 C 0.302 0.09826 0.13591 0.0
C60 C 0.25974 0.10466 0.12961 0.0
C61 C 0.26007 0.12405 0.14876 0.0
C62 C 0.29698 0.01698 0.13328 0.0
O63 O 0.27241 0.0358 0.13931 0.0
H64 H 0.32438 0.09057 0.13297 0.0
H65 H 0.24164 0.10298 0.12138 0.0
O66 O 0.31906 0.07666 0.05662 0.0
H67 H 0.21139 0.08505 0.03685 0.0
H68 H 0.24229 0.14033 0.1586 0.0
Cu69 Cu 0.07812 0.30266 0.10504 0.0
N70 N 0.08544 0.32802 0.07322 0.0
N71 N 0.10668 0.33852 0.02803 0.0
C72 C 0.10956 0.3225 0.05539 0.0
C73 C 0.07978 0.35484 0.02862 0.0
C74 C 0.06669 0.34833 0.05661 0.0
O75 O 0.11111 0.28942 0.12894 0.0
C76 C 0.05211 0.26361 0.08737 0.0
O77 O 0.0449 0.25721 0.1165 0.0
H78 H 0.12805 0.30488 0.06088 0.0
H79 H 0.04466 0.35574 0.06305 0.0
N80 N 0.04702 0.32182 0.13041 0.0
N81 N 1.00559 0.33213 0.15741 0.0
C82 C 0.02167 0.31951 0.13301 0.0
C83 C 0.04663 0.33737 0.15324 0.0
C84 C 0.02119 0.34367 0.16999 0.0
C85 C 0.11133 0.28285 0.15819 0.0
O86 O 0.08935 0.2791 0.174 0.0
H87 H 1.01528 0.30829 0.11777 0.0
H88 H 0.06421 0.3423 0.15844 0.0
O89 O 0.06888 0.27747 0.08066 0.0
H90 H 0.06999 0.36901 1.00943 0.0
H91 H 1.01535 0.35435 0.19095 0.0
Cu92 Cu 0.79862 1.00367 1.01063 0.0
N93 N 0.82148 0.0164 0.98048 0.0
N94 N 0.83299 0.04892 0.94743 0.0
C95 C 0.82076 0.04354 0.97533 0.0
C96 C 0.84166 0.02431 0.93411 0.0
C97 C 0.83465 1.00413 0.95475 0.0
O98 O 0.77745 0.0359 0.03391 0.0
C99 C 0.77742 0.96292 0.99359 0.0
O100 O 0.78949 0.94672 0.01728 0.0
H101 H 0.80877 0.05997 0.99005 0.0
H102 H 0.8367 0.98286 0.95021 0.0
N103 N 0.81839 0.97604 0.03944 0.0
N104 N 0.82512 0.94861 0.08401 0.0
C105 C 0.80667 0.96876 0.0669 0.0
C106 C 0.8454 0.96042 0.03915 0.0
C107 C 0.84963 0.94336 0.06677 0.0
C108 C 0.7926 0.04451 0.04808 0.0
O109 O 0.81948 0.03141 0.04588 0.0
H110 H 0.7849 0.9782 0.07406 0.0
H111 H 0.86081 0.96135 0.02027 0.0
O112 O 0.77725 0.98849 0.98844 0.0
H113 H 0.85073 0.02167 0.91056 0.0
H114 H 0.86908 0.92793 0.07334 0.0
Cu115 Cu 0.02404 0.76089 1.01194 0.0
N116 N 1.00907 0.74446 0.98613 0.0
N117 N 0.98196 0.73896 0.9533 0.0
C118 C 0.98626 0.75702 0.97076 0.0
C119 C 1.00301 0.71421 0.95795 0.0
C120 C 1.01963 0.71769 0.97812 0.0
O121 O 0.99292 0.78136 0.04105 0.0
C122 C 0.06397 0.79139 0.99115 0.0
O123 O 0.06043 0.79974 0.01901 0.0
H124 H 0.97309 0.77889 0.97254 0.0
H125 H 0.03832 0.7019 0.98613 0.0
N126 N 0.04738 0.73223 0.03711 0.0
N127 N 0.07916 0.71801 0.0712 0.0
C128 C 0.07177 0.73265 0.04387 0.0
C129 C 0.03956 0.71551 0.0603 0.0
C130 C 0.05912 0.70676 0.08147 0.0
C131 C 0.9961 0.78406 0.06883 0.0
O132 O 0.02111 0.77988 0.07618 0.0
H133 H 0.08207 0.7465 0.03124 0.0
H134 H 1.01947 0.71296 0.06358 0.0
O135 O 0.04833 0.7787 0.98416 0.0
H136 H 1.00658 0.69499 0.94715 0.0
H137 H 0.05729 0.69544 0.10397 0.0
Cu138 Cu 0.54371 0.52563 0.88356 0.0
N139 N 0.56305 0.54144 0.90468 0.0
N140 N 0.58935 0.56594 0.91393 0.0
C141 C 0.57904 0.55689 0.89215 0.0
C142 C 0.57901 0.55625 0.94124 0.0
C143 C 0.5627 0.54131 0.93546 0.0
O144 O 0.56993 0.49667 0.85881 0.0
C145 C 0.49629 0.55825 0.84755 0.0
O146 O 0.49598 0.53457 0.83845 0.0
H147 H 0.58215 0.5624 0.86762 0.0
H148 H 0.55096 0.5316 0.9526 0.0
N149 N 0.52688 0.50464 0.91208 0.0
N150 N 0.50229 0.47585 0.92706 0.0
C151 C 0.50469 0.49816 0.90767 0.0
C152 C 0.5389 0.48586 0.93526 0.0
C153 C 0.52366 0.46819 0.94472 0.0
C154 C 0.59077 0.49866 0.84112 0.0
O155 O 0.59325 0.52375 0.83317 0.0
H156 H 0.4924 0.50739 0.88844 0.0
H157 H 0.55883 0.48329 0.94264 0.0
O158 O 0.51541 0.55771 0.86351 0.0
H159 H 0.5829 0.55969 0.96381 0.0
H160 H 0.52913 0.44983 0.96157 0.0
Cu161 Cu 0.56103 0.53922 0.24545 0.0
N162 N 0.54169 0.52513 0.22243 0.0
N163 N 0.51286 0.50367 0.21286 0.0
C164 C 0.52177 0.51441 0.23443 0.0
C165 C 0.52781 0.50793 0.18623 0.0
C166 C 0.54565 0.521 0.19224 0.0
O167 O 0.53344 0.56667 0.27105 0.0
C168 C 0.60502 0.49057 0.24637 0.0
O169 O 0.60225 0.49846 0.21684 0.0
H170 H 0.51492 0.51345 0.25881 0.0
H171 H 0.56119 0.52592 0.17592 0.0
N172 N 0.58109 0.55942 0.22032 0.0
N173 N 0.60845 0.5857 0.20922 0.0
C174 C 0.59966 0.56828 0.23074 0.0
C175 C 0.5781 0.57151 0.19108 0.0
C176 C 0.59498 0.58779 0.18418 0.0
C177 C 0.51928 0.58901 0.25527 0.0
O178 O 0.52371 0.59065 0.22504 0.0
H179 H 0.60526 0.56345 0.25431 0.0
H180 H 0.5634 0.57026 0.17645 0.0
O181 O 0.58824 0.50632 0.26595 0.0
H182 H 0.52644 0.50161 0.16403 0.0
H183 H 0.59648 0.6009 0.16282 0.0
Cu184 Cu 0.79977 0.57699 0.59181 0.0
N185 N 0.77957 0.60142 0.56106 0.0
N186 N 0.77471 0.62828 0.51585 0.0
C187 C 0.78944 0.61874 0.54074 0.0
C188 C 0.75405 0.61718 0.52153 0.0
C189 C 0.7572 0.60051 0.54938 0.0
O190 O 0.81699 0.59814 0.61135 0.0
C191 C 0.83255 0.54326 0.5445 0.0
O192 O 0.83327 0.567 0.52858 0.0
H193 H 0.80888 0.62156 0.5428 0.0
H194 H 0.74539 0.58696 0.55917 0.0
N195 N 0.7774 0.56305 0.62141 0.0
N196 N 0.76813 0.52972 0.65536 0.0
C197 C 0.78185 0.53509 0.62836 0.0
C198 C 0.75988 0.57602 0.64461 0.0
C199 C 0.75419 0.5554 0.66575 0.0
C200 C 0.8236 0.59119 0.63897 0.0
O201 O 0.82254 0.56684 0.65306 0.0
H202 H 0.79699 0.5188 0.61544 0.0
H203 H 0.75361 0.5985 0.64725 0.0
O204 O 0.8244 0.5434 0.57311 0.0
H205 H 0.73869 0.61942 0.50596 0.0
H206 H 0.74206 0.55888 0.6878 0.0
Cu207 Cu 0.56629 0.81016 0.59792 0.0
N208 N 0.58854 0.79711 0.56074 0.0
N209 N 0.62217 0.7893 0.52123 0.0
C210 C 0.61625 0.79014 0.55239 0.0
C211 C 0.59761 0.79667 0.50972 0.0
C212 C 0.57734 0.80151 0.53356 0.0
O213 O 0.58785 0.82203 0.62371 0.0
C214 C 0.51692 0.82945 0.57302 0.0
O215 O 0.52355 0.8017 0.5741 0.0
H216 H 0.63153 0.78682 0.56847 0.0
H217 H 0.55568 0.80981 0.53034 0.0
N218 N 0.55025 0.78553 0.62448 0.0
N219 N 0.51738 0.77398 0.65665 0.0
C220 C 0.52469 0.79504 0.63968 0.0
C221 C 0.5595 0.75726 0.63265 0.0
C222 C 0.53936 0.75016 0.6527 0.0
C223 C 0.60577 0.80175 0.6383 0.0
O224 O 0.60905 0.77549 0.63372 0.0
H225 H 0.51145 0.81712 0.63807 0.0
H226 H 0.57936 0.74277 0.62454 0.0
O227 O 0.53357 0.83983 0.58217 0.0
H228 H 0.59445 0.79977 0.48536 0.0
H229 H 0.54053 0.72907 0.66303 0.0
Cu230 Cu 0.29957 0.50152 0.52916 0.0
N231 N 0.32076 0.5166 0.49827 0.0
N232 N 0.32834 0.55129 0.46439 0.0
C233 C 0.31654 0.54477 0.49235 0.0
C234 C 0.3406 0.52616 0.45218 0.0
C235 C 0.33589 0.50483 0.47309 0.0
O236 O 0.28263 0.53215 0.55534 0.0
C237 C 0.2834 0.46465 0.50112 0.0
O238 O 0.30792 0.44768 0.50841 0.0
H239 H 0.30287 0.56058 0.50696 0.0
H240 H 0.34122 0.48272 0.46917 0.0
N241 N 0.31876 0.46989 0.55552 0.0
N242 N 0.3245 0.43587 0.59522 0.0
C243 C 0.30624 0.45754 0.57921 0.0
C244 C 0.34599 0.45554 0.55643 0.0
C245 C 0.34959 0.43461 0.58095 0.0
C246 C 0.30083 0.53598 0.56954 0.0
O247 O 0.3265 0.51874 0.56593 0.0
H248 H 0.28407 0.46474 0.58483 0.0
H249 H 0.36204 0.46013 0.54058 0.0
O250 O 0.27457 0.49024 0.50821 0.0
H251 H 0.35104 0.52356 0.42917 0.0
H252 H 0.36917 0.41948 0.58753 0.0
Cu253 Cu 0.51695 0.27335 0.51982 0.0
N254 N 0.54703 0.25371 0.49338 0.0
N255 N 0.58748 0.2448 0.46441 0.0
C256 C 0.5683 0.26291 0.48277 0.0
C257 C 0.57765 0.22341 0.46334 0.0
C258 C 0.55279 0.22892 0.4812 0.0
O259 O 0.53284 0.2946 0.54293 0.0
C260 C 0.47665 0.27316 0.48469 0.0
O261 O 0.48946 0.24627 0.49335 0.0
H262 H 0.56974 0.28238 0.48899 0.0
H263 H 0.54 0.21565 0.48491 0.0
N264 N 0.50593 0.24887 0.55062 0.0
N265 N 0.48493 0.23564 0.5948 0.0
C266 C 0.4884 0.25765 0.57558 0.0
C267 C 0.51399 0.22027 0.55417 0.0
C268 C 0.50093 0.21206 0.58132 0.0
C269 C 0.55289 0.27703 0.55752 0.0
O270 O 0.55837 0.24976 0.55571 0.0
H271 H 0.47848 0.27985 0.57949 0.0
H272 H 0.52869 0.20629 0.53853 0.0
O273 O 0.48513 0.2916 0.49387 0.0
H274 H 0.58746 0.20508 0.45042 0.0
H275 H 0.50363 0.19039 0.59077 0.0
Ho276 Ho 0.27361 0.28177 0.34552 0.0
Ho277 Ho 0.30079 0.31783 0.29169 0.0
C278 C 0.30787 0.25216 0.28473 0.0
C279 C 0.24174 0.25913 0.38108 0.0
C280 C 0.22616 0.23971 0.38225 0.0
C281 C 0.21894 0.23264 0.35547 0.0
C282 C 0.20481 0.21326 0.35765 0.0
C283 C 0.19815 0.2004 0.38667 0.0
C284 C 0.20564 0.2075 0.41337 0.0
C285 C 0.21952 0.227 0.41113 0.0
C286 C 0.32231 0.28464 0.36099 0.0
C287 C 0.26516 0.34778 0.35197 0.0
C288 C 0.33368 0.33988 0.25753 0.0
C289 C 0.35012 0.35844 0.25665 0.0
C290 C 0.36399 0.35923 0.28181 0.0
C291 C 0.38052 0.37645 0.27894 0.0
C292 C 0.38329 0.39291 0.25092 0.0
C293 C 0.36852 0.39264 0.22633 0.0
C294 C 0.35215 0.37553 0.22919 0.0
C295 C 0.25308 0.31419 0.27471 0.0
O296 O 0.28994 0.25149 0.30905 0.0
O297 O 0.3173 0.27365 0.2761 0.0
O298 O 0.26868 0.24734 0.37764 0.0
O299 O 0.23248 0.28406 0.36516 0.0
O300 O 0.30823 0.27012 0.3772 0.0
O301 O 0.30982 0.29554 0.33715 0.0
O302 O 0.28339 0.34847 0.32793 0.0
O303 O 0.25613 0.32603 0.36049 0.0
O304 O 0.30679 0.35237 0.26056 0.0
O305 O 0.34229 0.3146 0.27292 0.0
O306 O 0.26761 0.32839 0.25874 0.0
O307 O 0.26429 0.30426 0.29969 0.0
H308 H 0.22452 0.24173 0.33299 0.0
H309 H 0.19961 0.20791 0.33664 0.0
H310 H 0.20055 0.19819 0.43606 0.0
H311 H 0.22523 0.23204 0.43202 0.0
H312 H 0.36241 0.34629 0.30331 0.0
H313 H 0.39174 0.37625 0.29823 0.0
H314 H 0.36978 0.40552 0.20471 0.0
H315 H 0.3413 0.37535 0.2097 0.0
Ho316 Ho 0.80594 0.29957 0.33803 0.0
Ho317 Ho 0.80194 0.25645 0.29319 0.0
C318 C 0.76142 0.26724 0.35508 0.0
C319 C 0.80019 0.33697 0.37479 0.0
C320 C 0.79687 0.35854 0.39593 0.0
C321 C 0.78533 0.38755 0.38616 0.0
C322 C 0.78529 0.40811 0.40462 0.0
C323 C 0.797 0.40002 0.43308 0.0
C324 C 0.80718 0.37094 0.44354 0.0
C325 C 0.80708 0.35039 0.42513 0.0
C326 C 0.84719 0.24845 0.33709 0.0
C327 C 0.84041 0.29606 0.2726 0.0
C328 C 0.81105 0.21024 0.26783 0.0
C329 C 0.80506 0.19888 0.24155 0.0
C330 C 0.81518 0.16938 0.24049 0.0
C331 C 0.80798 0.15716 0.21768 0.0
C332 C 0.79055 0.17427 0.19541 0.0
C333 C 0.78105 0.20403 0.19586 0.0
C334 C 0.78811 0.2163 0.21904 0.0
C335 C 0.7639 0.30914 0.28182 0.0
O336 O 0.76738 0.29034 0.35729 0.0
O337 O 0.77564 0.24831 0.33559 0.0
O338 O 0.80601 0.30988 0.38438 0.0
O339 O 0.79727 0.34359 0.34514 0.0
O340 O 0.85049 0.27185 0.34182 0.0
O341 O 0.82191 0.25294 0.33542 0.0
O342 O 0.83667 0.2716 0.27045 0.0
O343 O 0.82699 0.31307 0.29428 0.0
O344 O 0.79008 0.22052 0.28795 0.0
O345 O 0.82755 0.22532 0.26239 0.0
O346 O 0.76714 0.28778 0.26626 0.0
O347 O 0.78168 0.30077 0.30097 0.0
H348 H 0.77704 0.39439 0.36387 0.0
H349 H 0.77674 0.43034 0.39621 0.0
H350 H 0.81654 0.36396 0.46522 0.0
H351 H 0.81611 0.32811 0.43318 0.0
H352 H 0.82825 0.15569 0.25776 0.0
H353 H 0.81597 0.13423 0.21753 0.0
H354 H 0.76761 0.21764 0.1789 0.0
H355 H 0.77998 0.23917 0.21975 0.0
Ho356 Ho 0.79528 0.7731 0.27796 0.0
Ho357 Ho 0.82755 0.78898 0.31903 0.0
C358 C 0.76529 0.78911 0.34459 0.0
C359 C 0.7781 0.74755 0.24189 0.0
C360 C 0.75958 0.73129 0.24192 0.0
C361 C 0.75417 0.71395 0.268 0.0
C362 C 0.73657 0.69851 0.26672 0.0
C363 C 0.72409 0.70045 0.23945 0.0
C364 C 0.72961 0.71797 0.21355 0.0
C365 C 0.74718 0.73324 0.21483 0.0
C366 C 0.78942 0.82918 0.27022 0.0
C367 C 0.85746 0.77429 0.2521 0.0
C368 C 0.84428 0.81377 0.35632 0.0
C369 C 0.86225 0.83017 0.35848 0.0
C370 C 0.86591 0.8507 0.33496 0.0
C371 C 0.8823 0.86675 0.33899 0.0
C372 C 0.89526 0.86223 0.36645 0.0
C373 C 0.89161 0.84144 0.38966 0.0
C374 C 0.87527 0.82558 0.38567 0.0
C375 C 0.83226 0.73295 0.32773 0.0
O376 O 0.76634 0.77429 0.32136 0.0
O377 O 0.78493 0.80008 0.34582 0.0
O378 O 0.76619 0.77446 0.24622 0.0
O379 O 0.80047 0.73526 0.25641 0.0
O380 O 0.76948 0.81928 0.26973 0.0
O381 O 0.81116 0.80858 0.27488 0.0
O382 O 0.85676 0.78809 0.27605 0.0
O383 O 0.83758 0.76373 0.25019 0.0
O384 O 0.85659 0.78713 0.35107 0.0
O385 O 0.82212 0.82636 0.34155 0.0
O386 O 0.85248 0.74246 0.3281 0.0
O387 O 0.81108 0.75394 0.32238 0.0
H388 H 0.7635 0.71235 0.2892 0.0
H389 H 0.73251 0.68533 0.28709 0.0
H390 H 0.72071 0.71954 0.19206 0.0
H391 H 0.75123 0.7465 0.19451 0.0
H392 H 0.856 0.85445 0.31373 0.0
H393 H 0.88493 0.88253 0.32066 0.0
H394 H 0.90091 0.83781 0.41127 0.0
H395 H 0.87248 0.80992 0.40409 0.0
Ho396 Ho 0.29069 0.77884 0.28463 0.0
Ho397 Ho 0.32706 0.79537 0.32709 0.0
C398 C 0.31329 0.83115 0.26091 0.0
C399 C 0.25807 0.77104 0.25017 0.0
C400 C 0.23843 0.77862 0.22641 0.0
C401 C 0.20993 0.79109 0.23409 0.0
C402 C 0.19104 0.79068 0.21424 0.0
C403 C 0.20037 0.77753 0.18659 0.0
C404 C 0.22892 0.76709 0.17794 0.0
C405 C 0.24773 0.76765 0.19765 0.0
C406 C 0.34319 0.74361 0.28826 0.0
C407 C 0.30157 0.74456 0.35121 0.0
C408 C 0.36868 0.7976 0.35195 0.0
C409 C 0.37786 0.8044 0.37934 0.0
C410 C 0.40569 0.79128 0.38487 0.0
C411 C 0.41653 0.79976 0.40786 0.0
C412 C 0.39967 0.8215 0.42589 0.0
C413 C 0.37137 0.83375 0.42138 0.0
C414 C 0.36053 0.82537 0.39806 0.0
C415 C 0.27227 0.82663 0.33706 0.0
O416 O 0.29419 0.81954 0.25934 0.0
O417 O 0.33126 0.82189 0.28216 0.0
O418 O 0.28414 0.76756 0.24139 0.0
O419 O 0.24978 0.77979 0.27788 0.0
O420 O 0.32264 0.73553 0.28544 0.0
O421 O 0.33543 0.77044 0.287 0.0
O422 O 0.32092 0.75578 0.35344 0.0
O423 O 0.28391 0.75416 0.32962 0.0
O424 O 0.35274 0.81892 0.33504 0.0
O425 O 0.36196 0.77458 0.35435 0.0
O426 O 0.29128 0.82839 0.35252 0.0
O427 O 0.28386 0.80748 0.31946 0.0
H428 H 0.20216 0.79955 0.25621 0.0
H429 H 0.16915 0.7994 0.22129 0.0
H430 H 0.23691 0.7565 0.15705 0.0
H431 H 0.26959 0.75746 0.19133 0.0
H432 H 0.41932 0.77506 0.37065 0.0
H433 H 0.43828 0.78959 0.41121 0.0
H434 H 0.35795 0.85054 0.43502 0.0
H435 H 0.33895 0.83581 0.39405 0.0
Ho436 Ho 0.30034 0.7953 0.84516 0.0
Ho437 Ho 0.28467 0.7674 0.80012 0.0
C438 C 0.24643 0.77636 0.86487 0.0
C439 C 0.30513 0.82576 0.88512 0.0
C440 C 0.287 0.84451 0.90753 0.0
C441 C 0.25981 0.86138 0.90177 0.0
C442 C 0.24391 0.8811 0.92227 0.0
C443 C 0.25495 0.88387 0.94886 0.0
C444 C 0.28165 0.86576 0.95524 0.0
C445 C 0.29755 0.84626 0.93467 0.0
C446 C 0.33661 0.74256 0.83826 0.0
C447 C 0.33553 0.78896 0.77902 0.0
C448 C 0.27128 0.73503 0.76887 0.0
C449 C 0.27391 0.72689 0.73753 0.0
C450 C 0.29887 0.72139 0.71867 0.0
C451 C 0.30213 0.70855 0.69143 0.0
C452 C 0.2805 0.70102 0.68289 0.0
C453 C 0.25482 0.70895 0.70056 0.0
C454 C 0.25161 0.72177 0.72768 0.0
C455 C 0.2632 0.82515 0.79272 0.0
O456 O 0.2623 0.78953 0.87262 0.0
O457 O 0.25203 0.76454 0.83861 0.0
O458 O 0.3082 0.79873 0.89134 0.0
O459 O 0.30222 0.83495 0.85588 0.0
O460 O 0.34281 0.76431 0.84254 0.0
O461 O 0.31053 0.74912 0.83936 0.0
O462 O 0.32471 0.76958 0.77524 0.0
O463 O 0.32549 0.80571 0.80178 0.0
O464 O 0.25532 0.76088 0.77363 0.0
O465 O 0.2938 0.72659 0.78324 0.0
O466 O 0.2741 0.80928 0.77018 0.0
O467 O 0.26487 0.80953 0.81773 0.0
H468 H 0.25123 0.85992 0.88103 0.0
H469 H 0.22332 0.89469 0.91695 0.0
H470 H 0.29088 0.86768 0.97529 0.0
H471 H 0.31846 0.8332 0.93945 0.0
H472 H 0.31623 0.72563 0.72574 0.0
H473 H 0.32202 0.70309 0.67799 0.0
H474 H 0.23782 0.70325 0.69487 0.0
H475 H 0.23215 0.72608 0.74195 0.0
Ho476 Ho 0.29854 0.25213 0.81079 0.0
Ho477 Ho 0.31615 0.29482 0.83515 0.0
C478 C 0.25534 0.29731 0.85525 0.0
C479 C 0.28129 0.21131 0.80306 0.0
C480 C 0.25652 0.20719 0.79459 0.0
C481 C 0.24758 0.18591 0.8115 0.0
C482 C 0.22588 0.17944 0.80225 0.0
C483 C 0.21282 0.1941 0.77578 0.0
C484 C 0.22125 0.21604 0.75934 0.0
C485 C 0.24288 0.22264 0.76876 0.0
C486 C 0.29209 0.29989 0.77165 0.0
C487 C 0.35855 0.25235 0.78828 0.0
C488 C 0.33307 0.33479 0.84661 0.0
C489 C 0.35811 0.34047 0.85171 0.0
C490 C 0.36848 0.35763 0.82922 0.0
C491 C 0.38847 0.36812 0.83598 0.0
C492 C 0.39827 0.36181 0.86544 0.0
C493 C 0.38935 0.343 0.88719 0.0
C494 C 0.36938 0.33244 0.88041 0.0
C495 C 0.32194 0.24675 0.874 0.0
O496 O 0.26255 0.27189 0.84523 0.0
O497 O 0.27103 0.31327 0.84803 0.0
O498 O 0.29486 0.22288 0.78138 0.0
O499 O 0.27957 0.22063 0.82993 0.0
O500 O 0.29684 0.27503 0.76295 0.0
O501 O 0.28754 0.29904 0.80073 0.0
O502 O 0.35125 0.27701 0.79987 0.0
O503 O 0.34365 0.23548 0.79535 0.0
O504 O 0.32411 0.31866 0.86796 0.0
O505 O 0.33055 0.33013 0.81876 0.0
O506 O 0.31471 0.27213 0.88228 0.0
O507 O 0.32782 0.24735 0.84503 0.0
H508 H 0.25794 0.17371 0.83141 0.0
H509 H 0.22005 0.16221 0.81516 0.0
H510 H 0.21132 0.22786 0.73906 0.0
H511 H 0.24931 0.23933 0.75542 0.0
H512 H 0.36009 0.36418 0.80695 0.0
H513 H 0.39534 0.38223 0.81861 0.0
H514 H 0.3964 0.33792 0.91016 0.0
H515 H 0.36176 0.3193 0.89829 0.0
Ho516 Ho 0.77907 0.28834 0.79476 0.0
Ho517 Ho 0.82036 0.29919 0.8332 0.0
C518 C 0.80628 0.33728 0.76916 0.0
C519 C 0.73722 0.28915 0.76714 0.0
C520 C 0.72019 0.29728 0.7403 0.0
C521 C 0.69182 0.31286 0.74472 0.0
C522 C 0.67394 0.31532 0.72216 0.0
C523 C 0.68399 0.3021 0.69461 0.0
C524 C 0.71272 0.28798 0.68948 0.0
C525 C 0.73055 0.28548 0.71203 0.0
C526 C 0.83116 0.25126 0.78898 0.0
C527 C 0.79577 0.24846 0.85598 0.0
C528 C 0.85715 0.30247 0.86589 0.0
C529 C 0.87827 0.29406 0.88835 0.0
C530 C 0.89418 0.26567 0.89668 0.0
C531 C 0.91444 0.2594 0.91769 0.0
C532 C 0.91926 0.28144 0.93034 0.0
C533 C 0.90287 0.30969 0.92209 0.0
C534 C 0.88267 0.31585 0.90148 0.0
C535 C 0.76796 0.33587 0.83733 0.0
O536 O 0.78748 0.32559 0.76662 0.0
O537 O 0.82379 0.32841 0.79088 0.0
O538 O 0.76188 0.27008 0.76415 0.0
O539 O 0.73563 0.30813 0.78568 0.0
O540 O 0.80918 0.2455 0.78613 0.0
O541 O 0.82501 0.27762 0.79121 0.0
O542 O 0.81676 0.25775 0.85551 0.0
O543 O 0.77509 0.26123 0.83852 0.0
O544 O 0.83109 0.30818 0.876 0.0
O545 O 0.86329 0.29316 0.83839 0.0
O546 O 0.78967 0.3428 0.83767 0.0
O547 O 0.77491 0.30929 0.83663 0.0
H548 H 0.68314 0.32184 0.76642 0.0
H549 H 0.65202 0.32621 0.72716 0.0
H550 H 0.72144 0.27801 0.66834 0.0
H551 H 0.75224 0.27319 0.7078 0.0
H552 H 0.89109 0.2485 0.88686 0.0
H553 H 0.92673 0.23741 0.9235 0.0
H554 H 0.90556 0.32718 0.93172 0.0
H555 H 0.87052 0.3379 0.89554 0.0
Ho556 Ho 0.76904 0.78139 0.82336 0.0
Ho557 Ho 0.80046 0.81413 0.77381 0.0
C558 C 0.8006 0.75108 0.76337 0.0
C559 C 0.73369 0.76411 0.85979 0.0
C560 C 0.7236 0.73979 0.86442 0.0
C561 C 0.71252 0.73219 0.84065 0.0
C562 C 0.70102 0.7105 0.84653 0.0
C563 C 0.70053 0.69593 0.87619 0.0
C564 C 0.71261 0.70292 0.89954 0.0
C565 C 0.72392 0.72469 0.89371 0.0
C566 C 0.82318 0.76992 0.82933 0.0
C567 C 0.76773 0.8449 0.83445 0.0
C568 C 0.83726 0.83317 0.74306 0.0
C569 C 0.85423 0.85084 0.74596 0.0
C570 C 0.88166 0.8382 0.75363 0.0
C571 C 0.89871 0.85466 0.75237 0.0
C572 C 0.88867 0.88404 0.74336 0.0
C573 C 0.86101 0.89677 0.7366 0.0
C574 C 0.84402 0.88037 0.73778 0.0
C575 C 0.74992 0.8201 0.75628 0.0
O576 O 0.7803 0.75291 0.78554 0.0
O577 O 0.81343 0.77018 0.75723 0.0
O578 O 0.7591 0.7588 0.86619 0.0
O579 O 0.72721 0.78173 0.83492 0.0
O580 O 0.81075 0.75115 0.83476 0.0
O581 O 0.80601 0.79403 0.82163 0.0
O582 O 0.78521 0.84536 0.80965 0.0
O583 O 0.75796 0.82365 0.84283 0.0
O584 O 0.81057 0.84649 0.74285 0.0
O585 O 0.84347 0.80775 0.75827 0.0
O586 O 0.76665 0.83194 0.74069 0.0
O587 O 0.76121 0.80693 0.78002 0.0
H588 H 0.71213 0.74338 0.81774 0.0
H589 H 0.69167 0.70587 0.82808 0.0
H590 H 0.71307 0.69176 0.92247 0.0
H591 H 0.73252 0.73009 0.91231 0.0
H592 H 0.8902 0.81548 0.75977 0.0
H593 H 0.91988 0.84431 0.75802 0.0
H594 H 0.85277 0.91927 0.72915 0.0
H595 H 0.82313 0.89077 0.73125 0.0
H596 H 0.08724 0.11026 0.36707 0.0
H597 H 0.20854 0.15026 0.4236 0.0
H598 H 0.13181 0.06621 0.44579 0.0
H599 H 0.15441 0.20316 0.35577 0.0
H600 H 0.18285 0.11721 0.42941 0.0
H601 H 0.11388 0.14256 0.3599 0.0
C602 C 0.10276 0.10729 0.38273 0.0
C603 C 0.10739 0.08552 0.40705 0.0
C604 C 0.17657 0.13605 0.41326 0.0
C605 C 0.13783 0.12241 0.39908 0.0
C606 C 0.19117 0.15497 0.41001 0.0
C607 C 0.18348 0.17959 0.38931 0.0
C608 C 0.15415 0.14173 0.39564 0.0
C609 C 0.16118 0.18432 0.3718 0.0
C610 C 0.11784 0.12583 0.37874 0.0
C611 C 0.12743 0.0829 0.42697 0.0
N612 N 0.14724 0.16558 0.37542 0.0
N613 N 0.14199 0.10109 0.42249 0.0
H614 H 1.0041 0.11343 0.35329 0.0
H615 H 0.84475 0.19676 0.32591 0.0
H616 H 0.95324 0.07416 0.31865 0.0
H617 H 0.90144 0.23731 0.34357 0.0
H618 H 0.88337 0.15134 0.32406 0.0
H619 H 0.96608 0.15871 0.35075 0.0
C620 C 0.98504 0.11435 0.34482 0.0
C621 C 0.98203 0.08985 0.33598 0.0
C622 C 0.88734 0.17023 0.32822 0.0
C623 C 0.93799 0.14188 0.33345 0.0
C624 C 0.86531 0.19611 0.32931 0.0
C625 C 0.86991 0.2208 0.33501 0.0
C626 C 0.91406 0.16906 0.33311 0.0
C627 C 0.89694 0.21879 0.33922 0.0
C628 C 0.96325 0.14028 0.34343 0.0
C629 C 0.95665 0.09248 0.32543 0.0
N630 N 0.91788 0.19343 0.33834 0.0
N631 N 0.93557 0.11794 0.32466 0.0
H632 H 0.95494 0.99859 0.38917 0.0
H633 H 0.94486 0.84353 0.39124 0.0
H634 H 1.01166 0.92176 0.43159 0.0
H635 H 0.88393 0.91981 0.35378 0.0
H636 H 0.97029 0.87226 0.40455 0.0
H637 H 0.92877 0.97057 0.37513 0.0
C638 C 0.96179 0.97589 0.3957 0.0
C639 C 0.98554 0.96254 0.41161 0.0
C640 C 0.9514 0.88279 0.39336 0.0
C641 C 0.95582 0.9304 0.39556 0.0
C642 C 0.93686 0.86638 0.38578 0.0
C643 C 0.91213 0.87934 0.37165 0.0
C644 C 0.94119 0.91245 0.38673 0.0
C645 C 0.903 0.90896 0.36452 0.0
C646 C 0.94685 0.95993 0.38769 0.0
C647 C 0.99333 0.9331 0.41974 0.0
N648 N 0.91748 0.92458 0.3723 0.0
N649 N 0.97859 0.91804 0.41149 0.0
H650 H 0.10768 0.94567 0.37872 0.0
H651 H 0.24196 0.84875 0.28713 0.0
H652 H 0.14301 0.98205 0.29637 0.0
H653 H 0.23911 0.8528 0.38516 0.0
H654 H 0.19784 0.88882 0.28585 0.0
H655 H 0.14827 0.90216 0.37682 0.0
C656 C 0.12365 0.94429 0.35983 0.0
C657 C 0.12192 0.96752 0.33755 0.0
C658 C 0.20677 0.88053 0.30764 0.0
C659 C 0.16805 0.91766 0.33513 0.0
C660 C 0.23171 0.85761 0.30845 0.0
C661 C 0.24398 0.84744 0.33638 0.0
C662 C 0.19373 0.89259 0.33508 0.0
C663 C 0.23018 0.85999 0.36326 0.0
C664 C 0.14683 0.91955 0.35894 0.0
C665 C 0.14352 0.96464 0.31393 0.0
N666 N 0.20566 0.88178 0.36202 0.0
N667 N 0.16567 0.94008 0.31321 0.0
H668 H 0.15029 0.98021 0.71258 0.0
H669 H 0.22415 0.85361 0.83646 0.0
H670 H 0.11102 0.96879 0.80406 0.0
H671 H 0.25221 0.86059 0.73967 0.0
H672 H 0.18526 0.89801 0.82785 0.0
H673 H 0.19003 0.93922 0.72512 0.0
C674 C 0.14998 0.96913 0.7355 0.0
C675 C 0.127 0.97801 0.75723 0.0
C676 C 0.20004 0.88992 0.80859 0.0
C677 C 0.17316 0.93034 0.77182 0.0
C678 C 0.22234 0.86469 0.81347 0.0
C679 C 0.24148 0.85342 0.78867 0.0
C680 C 0.19702 0.90407 0.77875 0.0
C681 C 0.238 0.8685 0.75941 0.0
C682 C 0.17286 0.94555 0.74262 0.0
C683 C 0.12823 0.96272 0.78658 0.0
N684 N 0.21623 0.89295 0.7553 0.0
N685 N 0.15093 0.93948 0.79302 0.0
H686 H 0.08549 0.12304 0.7678 0.0
H687 H 0.20757 0.18655 0.71645 0.0
H688 H 0.12929 0.11763 0.67692 0.0
H689 H 0.16994 0.18125 0.8098 0.0
H690 H 0.17495 0.16744 0.69942 0.0
H691 H 0.11233 0.15017 0.78141 0.0
C692 C 0.10081 0.12753 0.75068 0.0
C693 C 0.1055 0.11762 0.72133 0.0
C694 C 0.17371 0.17068 0.72357 0.0
C695 C 0.1362 0.14902 0.73669 0.0
C696 C 0.19217 0.18177 0.73327 0.0
C697 C 0.19152 0.18532 0.76462 0.0
C698 C 0.15447 0.1632 0.74539 0.0
C699 C 0.17139 0.17847 0.78549 0.0
C700 C 0.11604 0.14318 0.75842 0.0
C701 C 0.12505 0.12485 0.69979 0.0
N702 N 0.15376 0.16761 0.77552 0.0
N703 N 0.1399 0.13993 0.70799 0.0
H704 H 0.95841 0.10863 0.7174 0.0
H705 H 0.87819 0.23856 0.81966 0.0
H706 H 0.99135 0.11767 0.79945 0.0
H707 H 0.84632 0.21545 0.74492 0.0
H708 H 0.92127 0.19751 0.81223 0.0
H709 H 0.91841 0.14997 0.72721 0.0
C710 C 0.9571 0.11924 0.73779 0.0
C711 C 0.97831 0.10957 0.75763 0.0
C712 C 0.90491 0.20173 0.79731 0.0
C713 C 0.932 0.15781 0.76909 0.0
C714 C 0.88058 0.22531 0.80124 0.0
C715 C 0.85896 0.23052 0.78251 0.0
C716 C 0.90737 0.18364 0.7744 0.0
C717 C 0.86258 0.2123 0.75968 0.0
C718 C 0.93412 0.14304 0.74339 0.0
C719 C 0.97529 0.12428 0.78372 0.0
N720 N 0.88617 0.18984 0.75631 0.0
N721 N 0.95255 0.14789 0.78866 0.0
H722 H 0.02155 0.95071 0.68244 0.0
H723 H 0.87752 0.93774 0.76016 0.0
H724 H 0.96499 0.01094 0.74227 0.0
H725 H 0.94189 0.86965 0.71676 0.0
H726 H 0.90767 0.96659 0.75052 0.0
H727 H 0.99072 0.92262 0.69101 0.0
C728 C 1.00253 0.95815 0.69716 0.0
C729 C 0.99585 0.98317 0.71172 0.0
C730 C 0.91524 0.94527 0.74327 0.0
C731 C 0.96059 0.95102 0.72187 0.0
C732 C 0.89802 0.92884 0.74866 0.0
C733 C 0.90724 0.9012 0.73935 0.0
C734 C 0.94183 0.93409 0.72824 0.0
C735 C 0.93408 0.89068 0.72474 0.0
C736 C 0.98505 0.94199 0.70226 0.0
C737 C 0.97108 0.99161 0.73091 0.0
N738 N 0.95038 0.90718 0.71953 0.0
N739 N 0.95432 0.97559 0.7354 0.0
H740 H 0.32062 0.10162 0.19852 0.0
H741 H 0.31596 0.25763 0.22193 0.0
H742 H 0.27376 0.17664 0.14432 0.0
H743 H 0.3123 0.19636 0.29967 0.0
H744 H 0.3162 0.22328 0.18708 0.0
H745 H 0.33265 0.1321 0.23003 0.0
C746 C 0.31335 0.12448 0.19304 0.0
C747 C 0.29614 0.13688 0.16915 0.0
C748 C 0.31597 0.21722 0.21174 0.0
C749 C 0.31009 0.17141 0.20412 0.0
C750 C 0.3161 0.23664 0.2316 0.0
C751 C 0.31413 0.22975 0.26369 0.0
C752 C 0.31444 0.1906 0.22407 0.0
C753 C 0.3138 0.20245 0.27504 0.0
C754 C 0.32007 0.14175 0.21094 0.0
C755 C 0.28694 0.16651 0.16279 0.0
N756 N 0.31387 0.18382 0.25522 0.0
N757 N 0.29409 0.18284 0.18014 0.0
H758 H 0.96692 0.367 0.19571 0.0
H759 H 0.87389 0.26676 0.22558 0.0
H760 H 0.98407 0.29156 0.14912 0.0
H761 H 0.85683 0.34235 0.27196 0.0
H762 H 0.91229 0.27747 0.19443 0.0
H763 H 0.92466 0.36011 0.22115 0.0
C764 C 0.96179 0.34907 0.19069 0.0
C765 C 0.97928 0.3298 0.17031 0.0
C766 C 0.90001 0.29182 0.21127 0.0
C767 C 0.93071 0.32183 0.1993 0.0
C768 C 0.87802 0.28574 0.22906 0.0
C769 C 0.86212 0.30359 0.25158 0.0
C770 C 0.90623 0.31588 0.21606 0.0
C771 C 0.8685 0.3279 0.25497 0.0
C772 C 0.93756 0.3452 0.20515 0.0
C773 C 0.97124 0.30717 0.16438 0.0
N774 N 0.89015 0.33321 0.23756 0.0
N775 N 0.94766 0.30372 0.17896 0.0
H776 H 0.85997 0.92437 0.12899 0.0
H777 H 0.74988 0.86601 0.23453 0.0
H778 H 0.77658 0.94134 0.10685 0.0
H779 H 0.83309 0.84835 0.25771 0.0
H780 H 0.75754 0.89894 0.19108 0.0
H781 H 0.8494 0.90021 0.17879 0.0
C782 C 0.83947 0.92303 0.1346 0.0
C783 C 0.81917 0.93488 0.1137 0.0
C784 C 0.77399 0.88824 0.20597 0.0
C785 C 0.8068 0.9076 0.17066 0.0
C786 C 0.7695 0.86964 0.23097 0.0
C787 C 0.79095 0.85428 0.24956 0.0
C788 C 0.80011 0.89141 0.19953 0.0
C789 C 0.81605 0.85968 0.24378 0.0
C790 C 0.83336 0.90945 0.16311 0.0
C791 C 0.79279 0.93289 0.12234 0.0
N792 N 0.82008 0.8775 0.21899 0.0
N793 N 0.78744 0.91938 0.15005 0.0
H794 H 0.07482 0.72054 0.13334 0.0
H795 H 0.20132 0.77848 0.12356 0.0
H796 H 0.12686 0.72743 0.0496 0.0
H797 H 0.15563 0.76156 0.20912 0.0
H798 H 0.17289 0.76188 0.09567 0.0
H799 H 0.10383 0.73606 0.16149 0.0
C800 C 0.0927 0.72467 0.12098 0.0
C801 C 0.09849 0.72252 0.08905 0.0
C802 C 0.16899 0.76197 0.12053 0.0
C803 C 0.1313 0.74121 0.12099 0.0
C804 C 0.1852 0.77147 0.13648 0.0
C805 C 0.18094 0.77139 0.16878 0.0
C806 C 0.14829 0.75238 0.13697 0.0
C807 C 0.15946 0.76244 0.18421 0.0
C808 C 0.10906 0.73392 0.13701 0.0
C809 C 0.12158 0.72893 0.07417 0.0
N810 N 0.14403 0.7532 0.16817 0.0
N811 N 0.13703 0.73815 0.0902 0.0
H812 H 0.21574 0.04967 1.00162 0.0
H813 H 0.24934 0.88273 1.01193 0.0
H814 H 0.24235 0.99215 0.08247 0.0
H815 H 0.22853 0.93935 0.92899 0.0
H816 H 0.23553 0.92393 0.04167 0.0
H817 H 0.20899 0.01126 0.97855 0.0
C818 C 0.21952 0.02914 1.0148 0.0
C819 C 0.23008 0.02387 0.04372 0.0
C820 C 0.23343 0.92736 0.01706 0.0
C821 C 0.22279 0.97981 0.01743 0.0
C822 C 0.24131 0.90385 1.00012 0.0
C823 C 0.2405 0.90771 0.96794 0.0
C824 C 0.22492 0.95486 1.00163 0.0
C825 C 0.22952 0.93544 0.95378 0.0
C826 C 0.21582 0.00716 1.00158 0.0
C827 C 0.23479 0.99684 0.05978 0.0
N828 N 0.22263 0.95802 0.97065 0.0
N829 N 0.23148 0.97569 0.04625 0.0
H830 H 0.09899 0.33307 0.96961 0.0
H831 H 0.24731 0.3337 0.89888 0.0
H832 H 0.16016 0.33406 0.02692 0.0
H833 H 0.20918 0.28125 0.86445 0.0
H834 H 0.21013 0.3449 0.94058 0.0
H835 H 0.13437 0.32427 0.92536 0.0
C836 C 0.11981 0.33178 0.97268 0.0
C837 C 0.1268 0.33451 1.00171 0.0
C838 C 0.20981 0.33118 0.92368 0.0
C839 C 0.16692 0.3248 0.95158 0.0
C840 C 0.23082 0.32498 0.89972 0.0
C841 C 0.23119 0.30665 0.87805 0.0
C842 C 0.18872 0.31947 0.92564 0.0
C843 C 0.20957 0.29554 0.88065 0.0
C844 C 0.13992 0.32656 0.94762 0.0
C845 C 0.1541 0.33214 1.00481 0.0
N846 N 0.18903 0.30226 0.90398 0.0
N847 N 0.17318 0.3277 0.97994 0.0
H848 H 0.84295 0.08971 0.9727 0.0
H849 H 0.77034 0.21164 0.84538 0.0
H850 H 0.81608 0.07198 0.89106 0.0
H851 H 0.82784 0.22076 0.90292 0.0
H852 H 0.78072 0.16211 0.86717 0.0
H853 H 0.83272 0.13954 0.9516 0.0
C854 C 0.8353 0.09637 0.95008 0.0
C855 C 0.83071 0.07688 0.93329 0.0
C856 C 0.79088 0.17508 0.87512 0.0
C857 C 0.81809 0.13364 0.90957 0.0
C858 C 0.7847 0.20343 0.86305 0.0
C859 C 0.79815 0.22037 0.87252 0.0
C860 C 0.81035 0.16378 0.89704 0.0
C861 C 0.81696 0.20845 0.89506 0.0
C862 C 0.82936 0.12468 0.93814 0.0
C863 C 0.82038 0.08637 0.90432 0.0
N864 N 0.82249 0.18086 0.90659 0.0
N865 N 0.81411 0.11424 0.89345 0.0
H866 H 0.94892 0.79048 0.9283 0.0
H867 H 0.86066 0.71982 0.84946 0.0
H868 H 0.96383 0.70022 0.93341 0.0
H869 H 0.84435 0.81037 0.84094 0.0
H870 H 0.90024 0.71273 0.87806 0.0
H871 H 0.91162 0.7988 0.89524 0.0
C872 C 0.94441 0.7724 0.92262 0.0
C873 C 0.95977 0.74454 0.93377 0.0
C874 C 0.88821 0.73418 0.86979 0.0
C875 C 0.91722 0.75397 0.89557 0.0
C876 C 0.86565 0.73821 0.85332 0.0
C877 C 0.84919 0.76569 0.84288 0.0
C878 C 0.8944 0.75782 0.87613 0.0
C879 C 0.85658 0.78879 0.84856 0.0
C880 C 0.9232 0.77719 0.90353 0.0
C881 C 0.95303 0.72202 0.92517 0.0
N882 N 0.87854 0.78436 0.86504 0.0
N883 N 0.93233 0.72725 0.90673 0.0
H884 H 0.15003 0.30874 0.13794 0.0
H885 H 0.2288 0.2724 0.29267 0.0
H886 H 0.12437 0.26075 0.2176 0.0
H887 H 0.22665 0.3432 0.22521 0.0
H888 H 0.19478 0.26248 0.26487 0.0
H889 H 0.18371 0.31536 0.16783 0.0
C890 C 0.15174 0.29916 0.16156 0.0
C891 C 0.13424 0.28407 0.17511 0.0
C892 C 0.20161 0.28036 0.25644 0.0
C893 C 0.17302 0.29176 0.20986 0.0
C894 C 0.22073 0.28612 0.27254 0.0
C895 C 0.23025 0.30885 0.26167 0.0
C896 C 0.19242 0.29723 0.22895 0.0
C897 C 0.21987 0.32551 0.23468 0.0
C898 C 0.17088 0.30317 0.17878 0.0
C899 C 0.13737 0.27255 0.20611 0.0
N900 N 0.20183 0.3193 0.2193 0.0
N901 N 0.15634 0.27655 0.22238 0.0
H902 H 0.08257 0.76947 0.93456 0.0
H903 H 0.22649 0.8001 0.91996 0.0
H904 H 0.10473 0.81196 1.00097 0.0
H905 H 0.20562 0.75616 0.85396 0.0
H906 H 0.18194 0.80482 0.94952 0.0
H907 H 0.12676 0.76534 0.90411 0.0
C908 C 0.09649 0.77827 0.94263 0.0
C909 C 0.08954 0.7913 0.97046 0.0
C910 C 0.18711 0.79402 0.92865 0.0
C911 C 0.14077 0.78621 0.93565 0.0
C912 C 0.21271 0.79119 0.91176 0.0
C913 C 0.22016 0.77748 0.88441 0.0
C914 C 0.16849 0.78322 0.91823 0.0
C915 C 0.20106 0.76669 0.87497 0.0
C916 C 0.12189 0.77573 0.92525 0.0
C917 C 0.10885 0.80192 0.97968 0.0
N918 N 0.17622 0.76983 0.89174 0.0
N919 N 0.13342 0.79909 0.96246 0.0
H920 H 0.31907 0.09102 0.98815 0.0
H921 H 0.32983 0.2451 0.93363 0.0
H922 H 0.32578 0.14947 0.04749 0.0
H923 H 0.32532 0.19106 0.86748 0.0
H924 H 0.33345 0.20681 0.97413 0.0
H925 H 0.32669 0.12309 0.94268 0.0
C926 C 0.32313 0.11005 0.99156 0.0
C927 C 0.32212 0.1175 0.0216 0.0
C928 C 0.3319 0.20293 0.95084 0.0
C929 C 0.33014 0.15443 0.97004 0.0
C930 C 0.32982 0.22496 0.92753 0.0
C931 C 0.32717 0.22141 0.89705 0.0
C932 C 0.33093 0.17683 0.94412 0.0
C933 C 0.3274 0.19467 0.8907 0.0
C934 C 0.32713 0.1285 0.96565 0.0
C935 C 0.32663 0.14279 0.02478 0.0
N936 N 0.3289 0.17341 0.91416 0.0
N937 N 0.33026 0.16027 0.99949 0.0
H938 H 1.01444 0.23539 0.09129 0.0
H939 H 0.95617 0.30941 0.92963 0.0
H940 H 0.0518 0.28709 0.027 0.0
H941 H 0.9328 0.24046 0.97991 0.0
H942 H 0.99011 0.30233 0.96639 0.0
H943 H 0.98383 0.23713 0.05212 0.0
C944 C 1.01655 0.24674 0.06885 0.0
C945 C 0.03598 0.26097 0.06258 0.0
C946 C 0.97775 0.28856 0.96935 0.0
C947 C 1.00043 0.26356 0.01773 0.0
C948 C 0.95819 0.2927 0.94841 0.0
C949 C 0.94139 0.27561 0.95168 0.0
C950 C 0.9806 0.26729 0.99417 0.0
C951 C 0.94535 0.25405 0.97634 0.0
C952 C 0.99897 0.24779 0.0465 0.0
C953 C 0.03742 0.27557 0.03304 0.0
N954 N 0.96432 0.25067 0.99678 0.0
N955 N 1.01978 0.2767 1.01198 0.0
H956 H 0.76516 0.91391 1.00227 0.0
H957 H 0.77788 0.89556 0.82416 0.0
H958 H 0.76997 0.98141 0.93241 0.0
H959 H 0.74507 0.84424 0.89442 0.0
H960 H 0.77434 0.92798 0.86267 0.0
H961 H 0.75706 0.88856 0.96279 0.0
C962 C 0.76407 0.92363 0.97867 0.0
C963 C 0.76826 0.94981 0.97064 0.0
C964 C 0.76752 0.90986 0.86949 0.0
C965 C 0.75948 0.9206 0.92512 0.0
C966 C 0.76956 0.8913 0.84753 0.0
C967 C 0.76191 0.867 0.85605 0.0
C968 C 0.75823 0.9038 0.9003 0.0
C969 C 0.75123 0.86265 0.8867 0.0
C970 C 0.75942 0.90914 0.95612 0.0
C971 C 0.7667 0.96133 0.93965 0.0
N972 N 0.75009 0.88062 0.90777 0.0
N973 N 0.76284 0.94645 0.91791 0.0
H974 H 0.99262 0.80114 0.12641 0.0
H975 H 0.86167 0.75441 0.19519 0.0
H976 H 0.94822 0.77091 0.0702 0.0
H977 H 0.89982 0.79623 0.24607 0.0
H978 H 0.89357 0.75872 0.14979 0.0
H979 H 0.95896 0.7989 0.17034 0.0
C980 C 0.97558 0.79436 0.12313 0.0
C981 C 0.97328 0.78645 0.09428 0.0
C982 C 0.89501 0.76689 0.17091 0.0
C983 C 0.93464 0.78313 0.14522 0.0
C984 C 0.87688 0.76426 0.19701 0.0
C985 C 0.87809 0.77471 0.22485 0.0
C986 C 0.91467 0.78002 0.17246 0.0
C987 C 0.89813 0.78758 0.22539 0.0
C988 C 0.95635 0.79296 0.14838 0.0
C989 C 0.95073 0.77761 0.09177 0.0
N990 N 0.91553 0.7898 0.19976 0.0
N991 N 0.93248 0.77597 0.11689 0.0
H992 H 0.34691 0.97635 0.14927 0.0
H993 H 0.27415 0.86229 0.22181 0.0
H994 H 0.25964 0.9905 0.15221 0.0
H995 H 0.35229 0.85833 0.25009 0.0
H996 H 0.27247 0.90544 0.18846 0.0
H997 H 0.35307 0.92939 0.17874 0.0
C998 C 0.32917 0.9695 0.15578 0.0
C999 C 0.3027 0.98749 0.14846 0.0
C1000 C 0.29011 0.8951 0.2018 0.0
C1001 C 0.30956 0.934 0.18171 0.0
C1002 C 0.29116 0.87027 0.22082 0.0
C1003 C 0.3134 0.85647 0.23894 0.0
C1004 C 0.31153 0.90641 0.20043 0.0
C1005 C 0.33469 0.86821 0.23663 0.0
C1006 C 0.33265 0.94284 0.17272 0.0
C1007 C 0.2804 0.97757 0.1576 0.0
N1008 N 0.33325 0.89249 0.21775 0.0
N1009 N 0.28434 0.95166 0.17356 0.0
H1010 H 0.80478 0.09278 0.03371 0.0
H1011 H 0.77047 0.13031 0.2057 0.0
H1012 H 0.7578 0.0531 0.10079 0.0
H1013 H 0.79251 0.18683 0.1325 0.0
H1014 H 0.76279 0.10371 0.16711 0.0
H1015 H 0.797 0.12992 0.06795 0.0
C1016 C 0.79204 0.0925 0.05533 0.0
C1017 C 0.7816 0.07021 0.06449 0.0
C1018 C 0.76882 0.12221 0.15942 0.0
C1019 C 0.7736 0.11177 0.10426 0.0
C1020 C 0.77337 0.13728 0.18142 0.0
C1021 C 0.78241 0.16058 0.17219 0.0
C1022 C 0.77376 0.1302 0.12789 0.0
C1023 C 0.78556 0.16896 0.14052 0.0
C1024 C 0.78772 0.11358 0.07492 0.0
C1025 C 0.76577 0.07028 0.09286 0.0
N1026 N 0.78168 0.15348 0.11944 0.0
N1027 N 0.76266 0.09049 0.11208 0.0
H1028 H 0.6252 0.56937 0.86378 0.0
H1029 H 0.66821 0.68761 0.92864 0.0
H1030 H 0.59427 0.60135 0.95275 0.0
H1031 H 0.6999 0.6558 0.83966 0.0
H1032 H 0.64307 0.65411 0.93894 0.0
H1033 H 0.65416 0.59938 0.85525 0.0
C1034 C 0.62439 0.58277 0.88148 0.0
C1035 C 0.60709 0.58297 0.90895 0.0
C1036 C 0.6556 0.65435 0.9172 0.0
C1037 C 0.64044 0.61717 0.89946 0.0
C1038 C 0.67017 0.67336 0.91137 0.0
C1039 C 0.68623 0.67459 0.88319 0.0
C1040 C 0.65692 0.63647 0.89465 0.0
C1041 C 0.68748 0.65592 0.86151 0.0
C1042 C 0.64108 0.59977 0.87667 0.0
C1043 C 0.60738 0.60033 0.93134 0.0
N1044 N 0.67293 0.6377 0.86765 0.0
N1045 N 0.62369 0.61681 0.92604 0.0
H1046 H 0.4935 0.61168 0.85685 0.0
H1047 H 0.33246 0.68926 0.83286 0.0
H1048 H 0.445 0.56634 0.82856 0.0
H1049 H 0.39074 0.73117 0.84121 0.0
H1050 H 0.37133 0.64334 0.83294 0.0
H1051 H 0.45399 0.65525 0.85337 0.0
C1052 C 0.47458 0.6109 0.84961 0.0
C1053 C 0.47275 0.58524 0.84278 0.0
C1054 C 0.37537 0.66275 0.8347 0.0
C1055 C 0.4268 0.63548 0.83903 0.0
C1056 C 0.35324 0.68884 0.83473 0.0
C1057 C 0.35827 0.71407 0.83738 0.0
C1058 C 0.4024 0.66216 0.83754 0.0
C1059 C 0.38564 0.71237 0.83943 0.0
C1060 C 0.45188 0.63589 0.84765 0.0
C1061 C 0.44745 0.5857 0.83374 0.0
N1062 N 0.40641 0.68706 0.83962 0.0
N1063 N 0.42538 0.6104 0.83228 0.0
H1064 H 0.45179 0.49587 0.90555 0.0
H1065 H 0.44322 0.34119 0.89971 0.0
H1066 H 0.51395 0.41864 0.93903 0.0
H1067 H 0.3905 0.41829 0.85318 0.0
H1068 H 0.46754 0.369 0.91828 0.0
H1069 H 0.42634 0.46754 0.89117 0.0
C1070 C 0.45994 0.47295 0.91013 0.0
C1071 C 0.48514 0.45962 0.92325 0.0
C1072 C 0.45073 0.37974 0.90387 0.0
C1073 C 0.4562 0.42699 0.90681 0.0
C1074 C 0.43689 0.36391 0.89329 0.0
C1075 C 0.41496 0.37744 0.87472 0.0
C1076 C 0.44235 0.40928 0.89603 0.0
C1077 C 0.4076 0.4069 0.86697 0.0
C1078 C 0.44546 0.45677 0.90186 0.0
C1079 C 0.49454 0.42985 0.92916 0.0
N1080 N 0.42121 0.42182 0.87775 0.0
N1081 N 0.48015 0.41448 0.92066 0.0
H1082 H 0.5965 0.44295 0.862 0.0
H1083 H 0.75798 0.38938 0.81086 0.0
H1084 H 0.63957 0.49456 0.80634 0.0
H1085 H 0.71603 0.33139 0.85264 0.0
H1086 H 0.71373 0.42727 0.80717 0.0
H1087 H 0.63851 0.40123 0.85708 0.0
C1088 C 0.61458 0.44548 0.84827 0.0
C1089 C 0.61445 0.47246 0.8346 0.0
C1090 C 0.71396 0.40628 0.81694 0.0
C1091 C 0.66265 0.42476 0.8292 0.0
C1092 C 0.7393 0.3846 0.81912 0.0
C1093 C 0.7406 0.35732 0.83233 0.0
C1094 C 0.68952 0.40092 0.8285 0.0
C1095 C 0.71578 0.35223 0.84233 0.0
C1096 C 0.63858 0.42161 0.84557 0.0
C1097 C 0.6386 0.47434 0.81734 0.0
N1098 N 0.69115 0.374 0.84061 0.0
N1099 N 0.66168 0.45094 0.81539 0.0
H1100 H 0.62727 0.44617 0.21217 0.0
H1101 H 0.74748 0.35344 0.3194 0.0
H1102 H 0.63303 0.47308 0.29972 0.0
H1103 H 0.72863 0.32754 0.23749 0.0
H1104 H 0.70768 0.39802 0.3135 0.0
H1105 H 0.66576 0.40316 0.22212 0.0
C1106 C 0.63663 0.44296 0.23369 0.0
C1107 C 0.62691 0.46338 0.25508 0.0
C1108 C 0.71238 0.38252 0.29689 0.0
C1109 C 0.67176 0.41355 0.26675 0.0
C1110 C 0.73514 0.35724 0.30011 0.0
C1111 C 0.74139 0.33689 0.27875 0.0
C1112 C 0.69604 0.38728 0.27209 0.0
C1113 C 0.72463 0.34262 0.25443 0.0
C1114 C 0.65874 0.41823 0.23941 0.0
C1115 C 0.63983 0.45778 0.28268 0.0
N1116 N 0.70289 0.36714 0.2518 0.0
N1117 N 0.66183 0.43339 0.28769 0.0
H1118 H 0.65029 0.56934 0.24628 0.0
H1119 H 0.67533 0.7187 0.21272 0.0
H1120 H 0.60563 0.63832 0.183 0.0
H1121 H 0.7308 0.64507 0.26154 0.0
H1122 H 0.64706 0.69054 0.20564 0.0
H1123 H 0.67792 0.59765 0.25575 0.0
C1124 C 0.64634 0.59044 0.23439 0.0
C1125 C 0.62573 0.60151 0.21377 0.0
C1126 C 0.6654 0.68052 0.21793 0.0
C1127 C 0.65707 0.63396 0.22451 0.0
C1128 C 0.68157 0.69657 0.22194 0.0
C1129 C 0.70561 0.68412 0.23746 0.0
C1130 C 0.67322 0.6518 0.22963 0.0
C1131 C 0.71235 0.65554 0.24957 0.0
C1132 C 0.66213 0.60653 0.23972 0.0
C1133 C 0.62157 0.62884 0.19872 0.0
N1134 N 0.69628 0.64027 0.24527 0.0
N1135 N 0.63703 0.64418 0.2045 0.0
H1136 H 0.50912 0.64478 0.23741 0.0
H1137 H 0.35611 0.68941 0.31373 0.0
H1138 H 0.47961 0.58799 0.30331 0.0
H1139 H 0.39343 0.7512 0.27161 0.0
H1140 H 0.40168 0.65267 0.31305 0.0
H1141 H 0.46821 0.6845 0.25228 0.0
C1142 C 0.49422 0.64083 0.25557 0.0
C1143 C 0.49769 0.61312 0.26923 0.0
C1144 C 0.40008 0.6743 0.30445 0.0
C1145 C 0.45044 0.65842 0.28586 0.0
C1146 C 0.37408 0.69528 0.30474 0.0
C1147 C 0.37113 0.72325 0.29245 0.0
C1148 C 0.42333 0.68121 0.29121 0.0
C1149 C 0.39494 0.72985 0.2813 0.0
C1150 C 0.47087 0.66352 0.26403 0.0
C1151 C 0.47779 0.60909 0.29247 0.0
N1152 N 0.42008 0.70881 0.28042 0.0
N1153 N 0.4547 0.63146 0.29968 0.0
H1154 H 0.50774 0.46648 0.17632 0.0
H1155 H 0.39053 0.42699 0.29079 0.0
H1156 H 0.47326 0.50603 0.26087 0.0
H1157 H 0.41938 0.39643 0.20086 0.0
H1158 H 0.42168 0.45496 0.28164 0.0
H1159 H 0.47575 0.44018 0.18579 0.0
C1160 C 0.49334 0.4699 0.19677 0.0
C1161 C 0.49335 0.4886 0.21781 0.0
C1162 C 0.42109 0.44217 0.26392 0.0
C1163 C 0.45678 0.45792 0.22913 0.0
C1164 C 0.40349 0.42609 0.26922 0.0
C1165 C 0.40229 0.40952 0.24648 0.0
C1166 C 0.43768 0.44143 0.2358 0.0
C1167 C 0.41933 0.40926 0.21883 0.0
C1168 C 0.47512 0.45466 0.20228 0.0
C1169 C 0.47436 0.49159 0.2442 0.0
N1170 N 0.4363 0.42495 0.21429 0.0
N1171 N 0.45688 0.47634 0.24916 0.0
H1172 H 0.82735 0.58747 0.70111 0.0
H1173 H 0.8248 0.74698 0.70369 0.0
H1174 H 0.82684 0.644 0.61781 0.0
H1175 H 0.79509 0.69927 0.78071 0.0
H1176 H 0.83517 0.7066 0.6727 0.0
H1177 H 0.82591 0.62534 0.73136 0.0
C1178 C 0.82739 0.60768 0.68909 0.0
C1179 C 0.82702 0.61257 0.65685 0.0
C1180 C 0.82658 0.705 0.69647 0.0
C1181 C 0.82521 0.65616 0.69149 0.0
C1182 C 0.82078 0.72793 0.71417 0.0
C1183 C 0.80894 0.72651 0.74475 0.0
C1184 C 0.82098 0.68038 0.70971 0.0
C1185 C 0.80398 0.70139 0.75715 0.0
C1186 C 0.82638 0.62937 0.70643 0.0
C1187 C 0.82701 0.63931 0.64263 0.0
N1188 N 0.81005 0.67935 0.73962 0.0
N1189 N 0.82595 0.66018 0.66007 0.0
H1190 H 0.50863 0.75787 0.7174 0.0
H1191 H 0.34988 0.77886 0.71807 0.0
H1192 H 0.46638 0.79564 0.63581 0.0
H1193 H 0.3803 0.79878 0.79603 0.0
H1194 H 0.39406 0.77596 0.68766 0.0
H1195 H 0.46357 0.76322 0.74721 0.0
C1196 C 0.48983 0.76715 0.70582 0.0
C1197 C 0.49114 0.77645 0.67422 0.0
C1198 C 0.39092 0.78119 0.71134 0.0
C1199 C 0.43969 0.78208 0.70783 0.0
C1200 C 0.36574 0.78289 0.72869 0.0
C1201 C 0.36117 0.78957 0.7595 0.0
C1202 C 0.41215 0.78516 0.72518 0.0
C1203 C 0.38269 0.79414 0.7722 0.0
C1204 C 0.46419 0.77033 0.72278 0.0
C1205 C 0.46617 0.78842 0.6602 0.0
N1206 N 0.40732 0.79147 0.75517 0.0
N1207 N 0.44151 0.79059 0.67697 0.0
H1208 H 0.27736 0.42287 0.61075 0.0
H1209 H 0.33311 0.32328 0.76353 0.0
H1210 H 0.3576 0.40797 0.64112 0.0
H1211 H 0.25764 0.32932 0.7276 0.0
H1212 H 0.33988 0.35846 0.72223 0.0
H1213 H 0.26763 0.39247 0.65588 0.0
C1214 C 0.29289 0.4134 0.62697 0.0
C1215 C 0.31841 0.41804 0.62195 0.0
C1216 C 0.32151 0.35259 0.72364 0.0
C1217 C 0.30736 0.38299 0.67388 0.0
C1218 C 0.31733 0.33291 0.74775 0.0
C1219 C 0.29408 0.32439 0.74994 0.0
C1220 C 0.3025 0.36353 0.70112 0.0
C1221 C 0.27542 0.33599 0.72723 0.0
C1222 C 0.28735 0.39589 0.65272 0.0
C1223 C 0.33781 0.40478 0.64372 0.0
N1224 N 0.27999 0.35497 0.7038 0.0
N1225 N 0.33188 0.38795 0.66866 0.0
H1226 H 0.54591 0.32873 0.58122 0.0
H1227 H 0.68803 0.25735 0.66291 0.0
H1228 H 0.60293 0.24315 0.57449 0.0
H1229 H 0.63509 0.34334 0.67654 0.0
H1230 H 0.65668 0.25416 0.62826 0.0
H1231 H 0.57765 0.33708 0.61377 0.0
C1232 C 0.56501 0.31185 0.5863 0.0
C1233 C 0.57148 0.2851 0.57519 0.0
C1234 C 0.65179 0.2739 0.63859 0.0
C1235 C 0.60768 0.29441 0.61231 0.0
C1236 C 0.66999 0.27583 0.65832 0.0
C1237 C 0.66461 0.3008 0.67258 0.0
C1238 C 0.62757 0.29703 0.63281 0.0
C1239 C 0.64015 0.32359 0.66622 0.0
C1240 C 0.58306 0.31656 0.60497 0.0
C1241 C 0.5966 0.26404 0.58263 0.0
N1242 N 0.62254 0.32119 0.64682 0.0
N1243 N 0.61347 0.26913 0.60057 0.0
H1244 H 0.83921 0.53936 0.48211 0.0
H1245 H 0.79122 0.40303 0.49602 0.0
H1246 H 0.8239 0.4937 0.56924 0.0
H1247 H 0.81247 0.44575 0.40943 0.0
H1248 H 0.80219 0.43644 0.52353 0.0
H1249 H 0.82999 0.5047 0.45522 0.0
C1250 C 0.83441 0.52177 0.49562 0.0
C1251 C 0.83231 0.51954 0.52803 0.0
C1252 C 0.80439 0.43851 0.4985 0.0
C1253 C 0.82115 0.48 0.49732 0.0
C1254 C 0.79813 0.41945 0.48279 0.0
C1255 C 0.80098 0.42153 0.45035 0.0
C1256 C 0.81363 0.45974 0.48164 0.0
C1257 C 0.80961 0.4435 0.43442 0.0
C1258 C 0.8289 0.5021 0.48023 0.0
C1259 C 0.82575 0.49635 0.54424 0.0
N1260 N 0.8157 0.46165 0.45021 0.0
N1261 N 0.82019 0.47762 0.52872 0.0
H1262 H 0.63934 0.75375 0.47694 0.0
H1263 H 0.75743 0.81617 0.39755 0.0
H1264 H 0.66232 0.81355 0.51931 0.0
H1265 H 0.72729 0.76134 0.35527 0.0
H1266 H 0.72596 0.81325 0.44382 0.0
H1267 H 0.67538 0.7528 0.43499 0.0
C1268 C 0.65263 0.76609 0.47778 0.0
C1269 C 0.64794 0.78353 0.5018 0.0
C1270 C 0.72619 0.80195 0.42438 0.0
C1271 C 0.68915 0.78328 0.45304 0.0
C1272 C 0.74406 0.80371 0.3978 0.0
C1273 C 0.74487 0.78929 0.37208 0.0
C1274 C 0.70902 0.78547 0.4255 0.0
C1275 C 0.72726 0.77317 0.37417 0.0
C1276 C 0.67304 0.76582 0.45361 0.0
C1277 C 0.66549 0.79949 0.50151 0.0
N1278 N 0.7102 0.77172 0.40026 0.0
N1279 N 0.68516 0.7992 0.47732 0.0
H1280 H 0.32639 0.5981 0.4903 0.0
H1281 H 0.281 0.70411 0.33938 0.0
H1282 H 0.32088 0.56926 0.40391 0.0
H1283 H 0.32512 0.72269 0.40617 0.0
H1284 H 0.28734 0.6573 0.3675 0.0
H1285 H 0.31858 0.64633 0.46421 0.0
C1286 C 0.32358 0.60193 0.46586 0.0
C1287 C 0.32457 0.57955 0.44919 0.0
C1288 C 0.29544 0.67171 0.37614 0.0
C1289 C 0.31503 0.63471 0.4194 0.0
C1290 C 0.29159 0.69862 0.36028 0.0
C1291 C 0.30238 0.7176 0.37049 0.0
C1292 C 0.3098 0.66369 0.40279 0.0
C1293 C 0.31636 0.70887 0.39748 0.0
C1294 C 0.31919 0.62939 0.451 0.0
C1295 C 0.32072 0.58572 0.41754 0.0
N1296 N 0.31956 0.68263 0.41277 0.0
N1297 N 0.31589 0.61269 0.40377 0.0
H1298 H 0.45021 0.32259 0.44629 0.0
H1299 H 0.36311 0.23994 0.38313 0.0
H1300 H 0.44908 0.2381 0.47792 0.0
H1301 H 0.34026 0.33078 0.36295 0.0
H1302 H 0.40058 0.23981 0.41103 0.0
H1303 H 0.41413 0.3278 0.41137 0.0
C1304 C 0.44234 0.30532 0.44618 0.0
C1305 C 0.45305 0.27976 0.46508 0.0
C1306 C 0.38777 0.25991 0.4003 0.0
C1307 C 0.41234 0.28536 0.42496 0.0
C1308 C 0.36648 0.25989 0.38393 0.0
C1309 C 0.34873 0.28527 0.37027 0.0
C1310 C 0.39149 0.28565 0.40385 0.0
C1311 C 0.35386 0.31061 0.37263 0.0
C1312 C 0.42188 0.30825 0.42613 0.0
C1313 C 0.44204 0.25811 0.46372 0.0
N1314 N 0.37466 0.31024 0.38943 0.0
N1315 N 0.4227 0.26139 0.44416 0.0
H1316 H 0.63599 0.76299 0.68096 0.0
H1317 H 0.71869 0.85988 0.71613 0.0
H1318 H 0.61519 0.85131 0.64553 0.0
H1319 H 0.72323 0.78059 0.77004 0.0
H1320 H 0.6801 0.85771 0.69109 0.0
H1321 H 0.66726 0.76926 0.71421 0.0
C1322 C 0.63788 0.78382 0.68023 0.0
C1323 C 0.62309 0.80662 0.66007 0.0
C1324 C 0.68917 0.84097 0.70871 0.0
C1325 C 0.65917 0.81387 0.69832 0.0
C1326 C 0.7112 0.8422 0.72304 0.0
C1327 C 0.72406 0.82043 0.74522 0.0
C1328 C 0.68022 0.81744 0.7161 0.0
C1329 C 0.71368 0.79794 0.75325 0.0
C1330 C 0.6557 0.78737 0.69942 0.0
C1331 C 0.62624 0.83312 0.66054 0.0
N1332 N 0.69259 0.79681 0.73835 0.0
N1333 N 0.64419 0.83593 0.67907 0.0
H1334 H 0.63159 0.2036 0.43883 0.0
H1335 H 0.72216 0.30505 0.39096 0.0
H1336 H 0.60281 0.29226 0.45592 0.0
H1337 H 0.74427 0.22098 0.36114 0.0
H1338 H 0.68004 0.29954 0.41866 0.0
H1339 H 0.67438 0.20869 0.41355 0.0
C1340 C 0.63403 0.2242 0.43724 0.0
C1341 C 0.61317 0.24753 0.44958 0.0
C1342 C 0.69417 0.28226 0.40616 0.0
C1343 C 0.66275 0.25332 0.42089 0.0
C1344 C 0.71832 0.28532 0.39044 0.0
C1345 C 0.73685 0.2634 0.37371 0.0
C1346 C 0.68855 0.25707 0.40527 0.0
C1347 C 0.73062 0.23843 0.37372 0.0
C1348 C 0.65867 0.22703 0.42287 0.0
C1349 C 0.61815 0.27352 0.44713 0.0
N1350 N 0.707 0.23597 0.38923 0.0
N1351 N 0.6424 0.27569 0.43308 0.0
H1352 H 0.75635 0.63258 0.45892 0.0
H1353 H 0.86497 0.7043 0.37412 0.0
H1354 H 0.81246 0.65581 0.50626 0.0
H1355 H 0.79123 0.71014 0.33387 0.0
H1356 H 0.8516 0.67647 0.41943 0.0
H1357 H 0.77319 0.65328 0.41037 0.0
C1358 C 0.77203 0.64207 0.45938 0.0
C1359 C 0.78298 0.64215 0.48711 0.0
C1360 C 0.83862 0.68339 0.4004 0.0
C1361 C 0.8029 0.6652 0.43113 0.0
C1362 C 0.84645 0.6989 0.37433 0.0
C1363 C 0.82919 0.70948 0.35018 0.0
C1364 C 0.8135 0.67822 0.4022 0.0
C1365 C 0.80516 0.70223 0.35197 0.0
C1366 C 0.7818 0.65369 0.43148 0.0
C1367 C 0.80361 0.65462 0.4857 0.0
N1368 N 0.79786 0.68724 0.37769 0.0
N1369 N 0.81295 0.66548 0.45822 0.0
H1370 H 0.51696 0.86047 0.51733 0.0
H1371 H 0.38108 0.83103 0.48632 0.0
H1372 H 0.46429 0.8324 0.58865 0.0
H1373 H 0.44657 0.83546 0.41647 0.0
H1374 H 0.40436 0.8447 0.52386 0.0
H1375 H 0.48326 0.86658 0.48019 0.0
C1376 C 0.49755 0.85719 0.52551 0.0
C1377 C 0.49309 0.8463 0.55605 0.0
C1378 C 0.41341 0.84304 0.50019 0.0
C1379 C 0.45526 0.85188 0.51375 0.0
C1380 C 0.40013 0.83528 0.47882 0.0
C1381 C 0.41211 0.83183 0.44841 0.0
C1382 C 0.43862 0.8477 0.49092 0.0
C1383 C 0.4369 0.83746 0.43986 0.0
C1384 C 0.47861 0.86005 0.50422 0.0
C1385 C 0.46814 0.84129 0.56532 0.0
N1386 N 0.4494 0.84496 0.46103 0.0
N1387 N 0.45036 0.8436 0.54415 0.0
H1388 H 0.27171 0.41601 0.51353 0.0
H1389 H 0.27065 0.40053 0.33961 0.0
H1390 H 0.26332 0.48779 0.44537 0.0
H1391 H 0.24247 0.34725 0.41189 0.0
H1392 H 0.26553 0.43431 0.37713 0.0
H1393 H 0.25813 0.39181 0.47693 0.0
C1394 C 0.26612 0.42698 0.49108 0.0
C1395 C 0.2683 0.45394 0.48241 0.0
C1396 C 0.25988 0.41553 0.38458 0.0
C1397 C 0.25392 0.42602 0.43997 0.0
C1398 C 0.26288 0.39618 0.3632 0.0
C1399 C 0.25724 0.37086 0.37265 0.0
C1400 C 0.25175 0.40921 0.41572 0.0
C1401 C 0.24714 0.36642 0.40351 0.0
C1402 C 0.25847 0.41317 0.47016 0.0
C1403 C 0.26142 0.46714 0.45294 0.0
N1404 N 0.24524 0.38512 0.42405 0.0
N1405 N 0.25512 0.45276 0.43242 0.0
H1406 H 0.46973 0.27779 0.63313 0.0
H1407 H 0.37676 0.20704 0.75293 0.0
H1408 H 0.46222 0.19669 0.62349 0.0
H1409 H 0.39137 0.28402 0.76576 0.0
H1410 H 0.40923 0.20169 0.70651 0.0
H1411 H 0.44133 0.27994 0.68219 0.0
C1412 C 0.46203 0.26047 0.64122 0.0
C1413 C 0.46835 0.23705 0.62401 0.0
C1414 C 0.40557 0.21954 0.71975 0.0
C1415 C 0.436 0.23919 0.68058 0.0
C1416 C 0.38718 0.2225 0.74639 0.0
C1417 C 0.38141 0.24592 0.76343 0.0
C1418 C 0.4181 0.24026 0.70998 0.0
C1419 C 0.39524 0.26551 0.75352 0.0
C1420 C 0.44598 0.26159 0.66943 0.0
C1421 C 0.45813 0.21501 0.63607 0.0
N1422 N 0.41273 0.26235 0.72737 0.0
N1423 N 0.44237 0.21667 0.66353 0.0
H1424 H 0.77165 0.51568 0.71694 0.0
H1425 H 0.78789 0.35363 0.71166 0.0
H1426 H 0.77561 0.48064 0.63123 0.0
H1427 H 0.81961 0.38191 0.78289 0.0
H1428 H 0.77846 0.40084 0.68327 0.0
H1429 H 0.78316 0.46765 0.74379 0.0
C1430 C 0.77454 0.49791 0.70389 0.0
C1431 C 0.77251 0.50208 0.67189 0.0
C1432 C 0.78782 0.39656 0.70492 0.0
C1433 C 0.78595 0.44723 0.70226 0.0
C1434 C 0.7933 0.36964 0.72104 0.0
C1435 C 0.80483 0.36379 0.74945 0.0
C1436 C 0.7933 0.41794 0.7177 0.0
C1437 C 0.81114 0.38539 0.76079 0.0
C1438 C 0.78144 0.47052 0.71911 0.0
C1439 C 0.77702 0.47825 0.65592 0.0
N1440 N 0.80496 0.41165 0.74505 0.0
N1441 N 0.7834 0.45183 0.67129 0.0
H1442 H 0.25837 0.5874 0.56413 0.0
H1443 H 0.32637 0.65465 0.67357 0.0
H1444 H 0.33155 0.54208 0.61151 0.0
H1445 H 0.24639 0.70022 0.63991 0.0
H1446 H 0.33111 0.61585 0.64366 0.0
H1447 H 0.25459 0.6307 0.58726 0.0
C1448 C 0.27331 0.58648 0.57975 0.0
C1449 C 0.29525 0.56122 0.58604 0.0
C1450 C 0.31259 0.63442 0.6425 0.0
C1451 C 0.29151 0.61032 0.6117 0.0
C1452 C 0.31006 0.65687 0.65923 0.0
C1453 C 0.28583 0.68068 0.65946 0.0
C1454 C 0.29067 0.63558 0.62599 0.0
C1455 C 0.26522 0.68199 0.64079 0.0
C1456 C 0.27134 0.61117 0.59262 0.0
C1457 C 0.31436 0.56115 0.60596 0.0
N1458 N 0.26794 0.65954 0.62504 0.0
N1459 N 0.31208 0.58531 0.61796 0.0
loop_
_geom_bond_atom_site_label_1
_geom_bond_atom_site_label_2
_geom_bond_distance
_geom_bond_site_symmetry_2
_ccdc_geom_bond_type
Cu0 N1 1.999 . S
Cu0 O6 1.974 1_545 S
Cu0 N11 1.985 1_545 S
Cu0 O20 1.955 1_455 S
N1 Cu0 1.999 . S
N1 C3 1.263 . S
N1 C5 1.389 . S
N2 C3 1.358 . S
N2 C4 1.400 . S
C3 N1 1.263 . S
C3 N2 1.358 . S
C3 H9 0.930 . S
C4 N2 1.400 . S
C4 C5 1.351 . S
C4 H21 0.930 . S
C5 N1 1.389 . S
C5 C4 1.351 . S
C5 H10 0.930 . S
O6 Cu0 1.974 1_565 S
O6 C16 1.282 . S
C7 O8 1.261 1_655 S
C7 O20 1.253 . S
O8 C7 1.261 1_455 S
H9 C3 0.930 . S
H10 C5 0.930 . S
N11 Cu0 1.985 1_565 S
N11 C13 1.335 1_455 S
N11 C14 1.390 . S
N12 C13 1.345 . S
N12 C15 1.336 1_655 S
C13 N11 1.335 1_655 S
C13 N12 1.345 . S
C13 H18 0.930 . S
C14 N11 1.390 . S
C14 C15 1.346 . S
C14 H19 0.930 . S
C15 N12 1.336 1_455 S
C15 C14 1.346 . S
C15 H22 0.929 . S
C16 O6 1.282 . S
C16 O17 1.216 . S
O17 C16 1.216 . S
H18 C13 0.930 . S
H19 C14 0.930 . S
O20 Cu0 1.955 1_655 S
O20 C7 1.253 . S
H21 C4 0.930 . S
H22 C15 0.929 . S
Cu23 N24 2.008 . S
Cu23 O29 1.974 1_455 S
Cu23 N34 1.985 . S
Cu23 O43 1.959 . S
N24 Cu23 2.008 . S
N24 C26 1.253 1_455 S
N24 C28 1.389 1_545 S
N25 C26 1.358 . S
N25 C27 1.400 1_545 S
C26 N24 1.253 1_655 S
C26 N25 1.358 . S
C26 H32 0.930 . S
C27 N25 1.400 1_565 S
C27 C28 1.351 1_655 S
C27 H44 0.930 . S
C28 N24 1.389 1_565 S
C28 C27 1.351 1_455 S
C28 H33 0.930 . S
O29 Cu23 1.974 1_655 S
O29 C39 1.282 . S
C30 O31 1.261 . S
C30 O43 1.251 . S
O31 C30 1.261 . S
H32 C26 0.930 . S
H33 C28 0.930 . S
N34 Cu23 1.985 . S
N34 C36 1.335 . S
N34 C37 1.390 . S
N35 C36 1.345 . S
N35 C38 1.336 . S
C36 N34 1.335 . S
C36 N35 1.345 . S
C36 H41 0.930 . S
C37 N34 1.390 . S
C37 C38 1.346 . S
C37 H42 0.930 . S
C38 N35 1.336 . S
C38 C37 1.346 . S
C38 H45 0.929 . S
C39 O29 1.282 . S
C39 O40 1.216 . S
O40 C39 1.216 . S
H41 C36 0.930 . S
H42 C37 0.930 . S
O43 Cu23 1.959 . S
O43 C30 1.251 . S
H44 C27 0.930 . S
H45 C38 0.929 . S
Cu46 N47 1.999 . S
Cu46 O52 1.974 . S
Cu46 N57 1.985 . S
Cu46 O66 1.959 . S
N47 Cu46 1.999 . S
N47 C49 1.263 . S
N47 C51 1.389 . S
N48 C49 1.352 1_565 S
N48 C50 1.393 1_565 S
C49 N47 1.263 . S
C49 N48 1.352 1_545 S
C49 H55 0.930 . S
C50 N48 1.393 1_545 S
C50 C51 1.351 . S
C50 H67 0.930 1_554 S
C51 N47 1.389 . S
C51 C50 1.351 . S
C51 H56 0.930 . S
O52 Cu46 1.974 . S
O52 C62 1.282 . S
C53 O54 1.261 . S
C53 O66 1.251 . S
O54 C53 1.261 . S
H55 C49 0.930 . S
H56 C51 0.930 . S
N57 Cu46 1.985 . S
N57 C59 1.335 . S
N57 C60 1.390 . S
N58 C59 1.345 . S
N58 C61 1.336 . S
C59 N57 1.335 . S
C59 N58 1.345 . S
C59 H64 0.930 . S
C60 N57 1.390 . S
C60 C61 1.346 . S
C60 H65 0.930 . S
C61 N58 1.336 . S
C61 C60 1.346 . S
C61 H68 0.929 . S
C62 O52 1.282 . S
C62 O63 1.216 . S
O63 C62 1.216 . S
H64 C59 0.930 . S
H65 C60 0.930 . S
O66 Cu46 1.959 . S
O66 C53 1.251 . S
H67 C50 0.930 1_556 S
H68 C61 0.929 . S
Cu69 N70 1.999 . S
Cu69 O75 1.974 . S
Cu69 N80 1.985 . S
Cu69 O89 1.959 . S
N70 Cu69 1.999 . S
N70 C72 1.263 . S
N70 C74 1.389 . S
N71 C72 1.358 . S
N71 C73 1.400 1_554 S
C72 N70 1.263 . S
C72 N71 1.358 . S
C72 H78 0.930 . S
C73 N71 1.400 1_556 S
C73 C74 1.351 1_556 S
C73 H90 0.930 . S
C74 N70 1.389 . S
C74 C73 1.351 1_554 S
C74 H79 0.930 . S
O75 Cu69 1.974 . S
O75 C85 1.282 . S
C76 O77 1.261 . S
C76 O89 1.251 . S
O77 C76 1.261 . S
H78 C72 0.930 . S
H79 C74 0.930 . S
N80 Cu69 1.985 . S
N80 C82 1.335 1_455 S
N80 C83 1.390 . S
N81 C82 1.345 . S
N81 C84 1.336 1_655 S
C82 N80 1.335 1_655 S
C82 N81 1.345 . S
C82 H87 0.930 . S
C83 N80 1.390 . S
C83 C84 1.346 . S
C83 H88 0.930 . S
C84 N81 1.336 1_455 S
C84 C83 1.346 . S
C84 H91 0.929 . S
C85 O75 1.282 . S
C85 O86 1.216 . S
O86 C85 1.216 . S
H87 C82 0.930 . S
H88 C83 0.930 . S
O89 Cu69 1.959 . S
O89 C76 1.251 . S
H90 C73 0.930 . S
H91 C84 0.929 . S
Cu92 N93 1.999 1_554 S
Cu92 O98 1.974 . S
Cu92 N103 1.985 1_545 S
Cu92 O112 1.959 1_544 S
N93 Cu92 1.999 1_556 S
N93 C95 1.263 . S
N93 C97 1.389 . S
N94 C95 1.358 . S
N94 C96 1.400 . S
C95 N93 1.263 . S
C95 N94 1.358 . S
C95 H101 0.930 . S
C96 N94 1.400 . S
C96 C97 1.351 . S
C96 H113 0.930 . S
C97 N93 1.389 . S
C97 C96 1.351 . S
C97 H102 0.930 . S
O98 Cu92 1.974 . S
O98 C108 1.282 . S
C99 O100 1.261 . S
C99 O112 1.251 . S
O100 C99 1.261 . S
H101 C95 0.930 . S
H102 C97 0.930 . S
N103 Cu92 1.985 1_565 S
N103 C105 1.335 . S
N103 C106 1.390 . S
N104 C105 1.345 . S
N104 C107 1.336 . S
C105 N103 1.335 . S
C105 N104 1.345 . S
C105 H110 0.930 . S
C106 N103 1.390 . S
C106 C107 1.346 . S
C106 H111 0.930 . S
C107 N104 1.336 . S
C107 C106 1.346 . S
C107 H114 0.929 . S
C108 O98 1.282 . S
C108 O109 1.216 . S
O109 C108 1.216 . S
H110 C105 0.930 . S
H111 C106 0.930 . S
O112 Cu92 1.959 1_566 S
O112 C99 1.251 . S
H113 C96 0.930 . S
H114 C107 0.929 . S
Cu115 N116 1.999 1_454 S
Cu115 O121 1.974 1_455 S
Cu115 N126 1.985 . S
Cu115 O135 1.959 1_554 S
N116 Cu115 1.999 1_656 S
N116 C118 1.263 . S
N116 C120 1.389 . S
N117 C118 1.358 . S
N117 C119 1.400 . S
C118 N116 1.263 . S
C118 N117 1.358 . S
C118 H124 0.952 . S
C119 N117 1.400 . S
C119 C120 1.351 . S
C119 H136 0.930 . S
C120 N116 1.389 . S
C120 C119 1.351 . S
C120 H125 0.930 1_655 S
O121 Cu115 1.974 1_655 S
O121 C131 1.282 . S
C122 O123 1.261 . S
C122 O135 1.251 . S
O123 C122 1.261 . S
H124 C118 0.952 . S
H125 C120 0.930 1_455 S
N126 Cu115 1.985 . S
N126 C128 1.335 . S
N126 C129 1.390 . S
N127 C128 1.345 . S
N127 C130 1.336 . S
C128 N126 1.335 . S
C128 N127 1.345 . S
C128 H133 0.930 . S
C129 N126 1.390 . S
C129 C130 1.346 . S
C129 H134 0.930 . S
C130 N127 1.336 . S
C130 C129 1.346 . S
C130 H137 0.929 . S
C131 O121 1.282 . S
C131 O132 1.216 . S
O132 C131 1.216 . S
H133 C128 0.930 . S
H134 C129 0.930 . S
O135 Cu115 1.959 1_556 S
O135 C122 1.251 . S
H136 C119 0.930 . S
H137 C130 0.929 . S
Cu138 N139 1.999 . S
Cu138 O144 1.974 . S
Cu138 N149 1.985 . S
Cu138 O158 1.959 . S
N139 Cu138 1.999 . S
N139 C141 1.263 . S
N139 C143 1.389 . S
N140 C141 1.358 . S
N140 C142 1.400 . S
C141 N139 1.263 . S
C141 N140 1.358 . S
C141 H147 0.930 . S
C142 N140 1.400 . S
C142 C143 1.351 . S
C142 H159 0.930 . S
C143 N139 1.389 . S
C143 C142 1.351 . S
C143 H148 0.930 . S
O144 Cu138 1.974 . S
O144 C154 1.282 . S
C145 O146 1.261 . S
C145 O158 1.251 . S
O146 C145 1.261 . S
H147 C141 0.930 . S
H148 C143 0.930 . S
N149 Cu138 1.985 . S
N149 C151 1.335 . S
N149 C152 1.390 . S
N150 C151 1.345 . S
N150 C153 1.336 . S
C151 N149 1.335 . S
C151 N150 1.345 . S
C151 H156 0.930 . S
C152 N149 1.390 . S
C152 C153 1.346 . S
C152 H157 0.930 . S
C153 N150 1.336 . S
C153 C152 1.346 . S
C153 H160 0.929 . S
C154 O144 1.282 . S
C154 O155 1.216 . S
O155 C154 1.216 . S
H156 C151 0.930 . S
H157 C152 0.930 . S
O158 Cu138 1.959 . S
O158 C145 1.251 . S
H159 C142 0.930 . S
H160 C153 0.929 . S
Cu161 N162 1.999 . S
Cu161 O167 1.974 . S
Cu161 N172 1.985 . S
Cu161 O181 1.959 . S
N162 Cu161 1.999 . S
N162 C164 1.263 . S
N162 C166 1.389 . S
N163 C164 1.358 . S
N163 C165 1.400 . S
C164 N162 1.263 . S
C164 N163 1.358 . S
C164 H170 0.930 . S
C165 N163 1.400 . S
C165 C166 1.351 . S
C165 H182 0.930 . S
C166 N162 1.389 . S
C166 C165 1.351 . S
C166 H171 0.930 . S
O167 Cu161 1.974 . S
O167 C177 1.282 . S
C168 O169 1.261 . S
C168 O181 1.251 . S
O169 C168 1.261 . S
H170 C164 0.930 . S
H171 C166 0.930 . S
N172 Cu161 1.985 . S
N172 C174 1.335 . S
N172 C175 1.390 . S
N173 C174 1.345 . S
N173 C176 1.336 . S
C174 N172 1.335 . S
C174 N173 1.345 . S
C174 H179 0.930 . S
C175 N172 1.390 . S
C175 C176 1.346 . S
C175 H180 0.930 . S
C176 N173 1.336 . S
C176 C175 1.346 . S
C176 H183 0.929 . S
C177 O167 1.282 . S
C177 O178 1.216 . S
O178 C177 1.216 . S
H179 C174 0.930 . S
H180 C175 0.930 . S
O181 Cu161 1.959 . S
O181 C168 1.251 . S
H182 C165 0.930 . S
H183 C176 0.929 . S
Cu184 N185 1.999 . S
Cu184 O190 1.974 . S
Cu184 N195 1.985 . S
Cu184 O204 1.959 . S
N185 Cu184 1.999 . S
N185 C187 1.263 . S
N185 C189 1.389 . S
N186 C187 1.358 . S
N186 C188 1.400 . S
C187 N185 1.263 . S
C187 N186 1.358 . S
C187 H193 0.930 . S
C188 N186 1.400 . S
C188 C189 1.351 . S
C188 H205 0.930 . S
C189 N185 1.389 . S
C189 C188 1.351 . S
C189 H194 0.930 . S
O190 Cu184 1.974 . S
O190 C200 1.282 . S
C191 O192 1.261 . S
C191 O204 1.251 . S
O192 C191 1.261 . S
H193 C187 0.930 . S
H194 C189 0.930 . S
N195 Cu184 1.985 . S
N195 C197 1.335 . S
N195 C198 1.390 . S
N196 C197 1.345 . S
N196 C199 1.336 . S
C197 N195 1.335 . S
C197 N196 1.345 . S
C197 H202 0.930 . S
C198 N195 1.390 . S
C198 C199 1.346 . S
C198 H203 0.930 . S
C199 N196 1.336 . S
C199 C198 1.346 . S
C199 H206 0.929 . S
C200 O190 1.282 . S
C200 O201 1.216 . S
O201 C200 1.216 . S
H202 C197 0.930 . S
H203 C198 0.930 . S
O204 Cu184 1.959 . S
O204 C191 1.251 . S
H205 C188 0.930 . S
H206 C199 0.929 . S
Cu207 N208 1.999 . S
Cu207 O213 1.974 . S
Cu207 N218 1.985 . S
Cu207 O227 1.959 . S
N208 Cu207 1.999 . S
N208 C210 1.263 . S
N208 C212 1.389 . S
N209 C210 1.358 . S
N209 C211 1.400 . S
C210 N208 1.263 . S
C210 N209 1.358 . S
C210 H216 0.930 . S
C211 N209 1.400 . S
C211 C212 1.351 . S
C211 H228 0.930 . S
C212 N208 1.389 . S
C212 C211 1.351 . S
C212 H217 0.930 . S
O213 Cu207 1.974 . S
O213 C223 1.282 . S
C214 O215 1.261 . S
C214 O227 1.251 . S
O215 C214 1.261 . S
H216 C210 0.930 . S
H217 C212 0.930 . S
N218 Cu207 1.985 . S
N218 C220 1.335 . S
N218 C221 1.390 . S
N219 C220 1.345 . S
N219 C222 1.336 . S
C220 N218 1.335 . S
C220 N219 1.345 . S
C220 H225 0.930 . S
C221 N218 1.390 . S
C221 C222 1.346 . S
C221 H226 0.930 . S
C222 N219 1.336 . S
C222 C221 1.346 . S
C222 H229 0.929 . S
C223 O213 1.282 . S
C223 O224 1.216 . S
O224 C223 1.216 . S
H225 C220 0.930 . S
H226 C221 0.930 . S
O227 Cu207 1.959 . S
O227 C214 1.251 . S
H228 C211 0.930 . S
H229 C222 0.929 . S
Cu230 N231 1.999 . S
Cu230 O236 1.974 . S
Cu230 N241 1.985 . S
Cu230 O250 1.959 . S
N231 Cu230 1.999 . S
N231 C233 1.263 . S
N231 C235 1.389 . S
N232 C233 1.358 . S
N232 C234 1.400 . S
C233 N231 1.263 . S
C233 N232 1.358 . S
C233 H239 0.930 . S
C234 N232 1.400 . S
C234 C235 1.351 . S
C234 H251 0.930 . S
C235 N231 1.389 . S
C235 C234 1.351 . S
C235 H240 0.930 . S
O236 Cu230 1.974 . S
O236 C246 1.282 . S
C237 O238 1.261 . S
C237 O250 1.251 . S
O238 C237 1.261 . S
H239 C233 0.930 . S
H240 C235 0.930 . S
N241 Cu230 1.985 . S
N241 C243 1.335 . S
N241 C244 1.390 . S
N242 C243 1.345 . S
N242 C245 1.336 . S
C243 N241 1.335 . S
C243 N242 1.345 . S
C243 H248 0.930 . S
C244 N241 1.390 . S
C244 C245 1.346 . S
C244 H249 0.930 . S
C245 N242 1.336 . S
C245 C244 1.346 . S
C245 H252 0.929 . S
C246 O236 1.282 . S
C246 O247 1.216 . S
O247 C246 1.216 . S
H248 C243 0.930 . S
H249 C244 0.930 . S
O250 Cu230 1.959 . S
O250 C237 1.251 . S
H251 C234 0.930 . S
H252 C245 0.929 . S
Cu253 N254 1.999 . S
Cu253 O259 1.974 . S
Cu253 N264 1.985 . S
Cu253 O273 1.959 . S
N254 Cu253 1.999 . S
N254 C256 1.263 . S
N254 C258 1.389 . S
N255 C256 1.358 . S
N255 C257 1.400 . S
C256 N254 1.263 . S
C256 N255 1.358 . S
C256 H262 0.930 . S
C257 N255 1.400 . S
C257 C258 1.351 . S
C257 H274 0.930 . S
C258 N254 1.389 . S
C258 C257 1.351 . S
C258 H263 0.930 . S
O259 Cu253 1.974 . S
O259 C269 1.282 . S
C260 O261 1.261 . S
C260 O273 1.251 . S
O261 C260 1.261 . S
H262 C256 0.930 . S
H263 C258 0.930 . S
N264 Cu253 1.985 . S
N264 C266 1.335 . S
N264 C267 1.390 . S
N265 C266 1.345 . S
N265 C268 1.336 . S
C266 N264 1.335 . S
C266 N265 1.345 . S
C266 H271 0.930 . S
C267 N264 1.390 . S
C267 C268 1.346 . S
C267 H272 0.930 . S
C268 N265 1.336 . S
C268 C267 1.346 . S
C268 H275 0.929 . S
C269 O259 1.282 . S
C269 O270 1.216 . S
O270 C269 1.216 . S
H271 C266 0.930 . S
H272 C267 0.930 . S
O273 Cu253 1.959 . S
O273 C260 1.251 . S
H274 C257 0.930 . S
H275 C268 0.929 . S
Ho276 C279 2.811 . S
Ho276 O296 2.322 . S
Ho276 O298 2.378 . S
Ho276 O299 2.524 . S
Ho276 O300 2.381 . S
Ho276 O301 2.669 . S
Ho276 O303 2.346 . S
Ho276 O307 2.305 . S
Ho277 C288 2.811 . S
Ho277 O297 2.346 . S
Ho277 O301 2.305 . S
Ho277 O302 2.322 . S
Ho277 O304 2.378 . S
Ho277 O305 2.524 . S
Ho277 O306 2.381 . S
Ho277 O307 2.669 . S
C278 O296 1.259 . S
C278 O297 1.268 . S
C279 Ho276 2.811 . S
C279 C280 1.488 . S
C279 O298 1.215 . S
C279 O299 1.289 . S
C280 C279 1.488 . S
C280 C281 1.348 . S
C280 C285 1.413 . S
C281 C280 1.348 . S
C281 C282 1.442 . S
C281 H308 0.930 . S
C282 C281 1.442 . S
C282 C283 1.381 . S
C282 H309 0.931 . S
C283 C282 1.381 . S
C283 C284 1.321 . S
C284 C283 1.321 . S
C284 C285 1.403 . S
C284 H310 0.934 . S
C285 C280 1.413 . S
C285 C284 1.403 . S
C285 H311 0.930 . S
C286 O300 1.275 . S
C286 O301 1.256 . S
C287 O302 1.259 . S
C287 O303 1.268 . S
C288 Ho277 2.811 . S
C288 C289 1.488 . S
C288 O304 1.215 . S
C288 O305 1.289 . S
C289 C288 1.488 . S
C289 C290 1.348 . S
C289 C294 1.413 . S
C290 C289 1.348 . S
C290 C291 1.442 . S
C290 H312 0.930 . S
C291 C290 1.442 . S
C291 C292 1.381 . S
C291 H313 0.931 . S
C292 C291 1.381 . S
C292 C293 1.321 . S
C293 C292 1.321 . S
C293 C294 1.403 . S
C293 H314 0.934 . S
C294 C289 1.413 . S
C294 C293 1.403 . S
C294 H315 0.930 . S
C295 O306 1.275 . S
C295 O307 1.256 . S
O296 Ho276 2.322 . S
O296 C278 1.259 . S
O297 Ho277 2.346 . S
O297 C278 1.268 . S
O298 Ho276 2.378 . S
O298 C279 1.215 . S
O299 Ho276 2.524 . S
O299 C279 1.289 . S
O300 Ho276 2.381 . S
O300 C286 1.275 . S
O301 Ho276 2.669 . S
O301 Ho277 2.305 . S
O301 C286 1.256 . S
O302 Ho277 2.322 . S
O302 C287 1.259 . S
O303 Ho276 2.346 . S
O303 C287 1.268 . S
O304 Ho277 2.378 . S
O304 C288 1.215 . S
O305 Ho277 2.524 . S
O305 C288 1.289 . S
O306 Ho277 2.381 . S
O306 C295 1.275 . S
O307 Ho276 2.305 . S
O307 Ho277 2.669 . S
O307 C295 1.256 . S
H308 C281 0.930 . S
H309 C282 0.931 . S
H310 C284 0.934 . S
H311 C285 0.930 . S
H312 C290 0.930 . S
H313 C291 0.931 . S
H314 C293 0.934 . S
H315 C294 0.930 . S
Ho316 C319 2.811 . S
Ho316 O336 2.322 . S
Ho316 O338 2.378 . S
Ho316 O339 2.524 . S
Ho316 O340 2.381 . S
Ho316 O341 2.669 . S
Ho316 O343 2.346 . S
Ho316 O347 2.305 . S
Ho317 C328 2.811 . S
Ho317 O337 2.346 . S
Ho317 O341 2.305 . S
Ho317 O342 2.322 . S
Ho317 O344 2.378 . S
Ho317 O345 2.524 . S
Ho317 O346 2.381 . S
Ho317 O347 2.669 . S
C318 O336 1.259 . S
C318 O337 1.268 . S
C319 Ho316 2.811 . S
C319 C320 1.488 . S
C319 O338 1.215 . S
C319 O339 1.289 . S
C320 C319 1.488 . S
C320 C321 1.348 . S
C320 C325 1.413 . S
C321 C320 1.348 . S
C321 C322 1.442 . S
C321 H348 0.930 . S
C322 C321 1.442 . S
C322 C323 1.381 . S
C322 H349 0.931 . S
C323 C322 1.381 . S
C323 C324 1.321 . S
C324 C323 1.321 . S
C324 C325 1.403 . S
C324 H350 0.934 . S
C325 C320 1.413 . S
C325 C324 1.403 . S
C325 H351 0.930 . S
C326 O340 1.275 . S
C326 O341 1.256 . S
C327 O342 1.259 . S
C327 O343 1.268 . S
C328 Ho317 2.811 . S
C328 C329 1.488 . S
C328 O344 1.215 . S
C328 O345 1.289 . S
C329 C328 1.488 . S
C329 C330 1.348 . S
C329 C334 1.413 . S
C330 C329 1.348 . S
C330 C331 1.442 . S
C330 H352 0.930 . S
C331 C330 1.442 . S
C331 C332 1.381 . S
C331 H353 0.931 . S
C332 C331 1.381 . S
C332 C333 1.321 . S
C333 C332 1.321 . S
C333 C334 1.403 . S
C333 H354 0.934 . S
C334 C329 1.413 . S
C334 C333 1.403 . S
C334 H355 0.930 . S
C335 O346 1.275 . S
C335 O347 1.256 . S
O336 Ho316 2.322 . S
O336 C318 1.259 . S
O337 Ho317 2.346 . S
O337 C318 1.268 . S
O338 Ho316 2.378 . S
O338 C319 1.215 . S
O339 Ho316 2.524 . S
O339 C319 1.289 . S
O340 Ho316 2.381 . S
O340 C326 1.275 . S
O341 Ho316 2.669 . S
O341 Ho317 2.305 . S
O341 C326 1.256 . S
O342 Ho317 2.322 . S
O342 C327 1.259 . S
O343 Ho316 2.346 . S
O343 C327 1.268 . S
O344 Ho317 2.378 . S
O344 C328 1.215 . S
O345 Ho317 2.524 . S
O345 C328 1.289 . S
O346 Ho317 2.381 . S
O346 C335 1.275 . S
O347 Ho316 2.305 . S
O347 Ho317 2.669 . S
O347 C335 1.256 . S
H348 C321 0.930 . S
H349 C322 0.931 . S
H350 C324 0.934 . S
H351 C325 0.930 . S
H352 C330 0.930 . S
H353 C331 0.931 . S
H354 C333 0.934 . S
H355 C334 0.930 . S
Ho356 C359 2.811 . S
Ho356 O376 2.322 . S
Ho356 O378 2.378 . S
Ho356 O379 2.524 . S
Ho356 O380 2.381 . S
Ho356 O381 2.669 . S
Ho356 O383 2.346 . S
Ho356 O387 2.305 . S
Ho357 C368 2.811 . S
Ho357 O377 2.346 . S
Ho357 O381 2.305 . S
Ho357 O382 2.322 . S
Ho357 O384 2.378 . S
Ho357 O385 2.524 . S
Ho357 O386 2.381 . S
Ho357 O387 2.669 . S
C358 O376 1.259 . S
C358 O377 1.268 . S
C359 Ho356 2.811 . S
C359 C360 1.488 . S
C359 O378 1.215 . S
C359 O379 1.289 . S
C360 C359 1.488 . S
C360 C361 1.348 . S
C360 C365 1.413 . S
C361 C360 1.348 . S
C361 C362 1.442 . S
C361 H388 0.930 . S
C362 C361 1.442 . S
C362 C363 1.381 . S
C362 H389 0.931 . S
C363 C362 1.381 . S
C363 C364 1.321 . S
C364 C363 1.321 . S
C364 C365 1.403 . S
C364 H390 0.934 . S
C365 C360 1.413 . S
C365 C364 1.403 . S
C365 H391 0.930 . S
C366 O380 1.275 . S
C366 O381 1.256 . S
C367 O382 1.259 . S
C367 O383 1.268 . S
C368 Ho357 2.811 . S
C368 C369 1.488 . S
C368 O384 1.215 . S
C368 O385 1.289 . S
C369 C368 1.488 . S
C369 C370 1.348 . S
C369 C374 1.413 . S
C370 C369 1.348 . S
C370 C371 1.442 . S
C370 H392 0.930 . S
C371 C370 1.442 . S
C371 C372 1.381 . S
C371 H393 0.931 . S
C372 C371 1.381 . S
C372 C373 1.321 . S
C373 C372 1.321 . S
C373 C374 1.403 . S
C373 H394 0.934 . S
C374 C369 1.413 . S
C374 C373 1.403 . S
C374 H395 0.930 . S
C375 O386 1.275 . S
C375 O387 1.256 . S
O376 Ho356 2.322 . S
O376 C358 1.259 . S
O377 Ho357 2.346 . S
O377 C358 1.268 . S
O378 Ho356 2.378 . S
O378 C359 1.215 . S
O379 Ho356 2.524 . S
O379 C359 1.289 . S
O380 Ho356 2.381 . S
O380 C366 1.275 . S
O381 Ho356 2.669 . S
O381 Ho357 2.305 . S
O381 C366 1.256 . S
O382 Ho357 2.322 . S
O382 C367 1.259 . S
O383 Ho356 2.346 . S
O383 C367 1.268 . S
O384 Ho357 2.378 . S
O384 C368 1.215 . S
O385 Ho357 2.524 . S
O385 C368 1.289 . S
O386 Ho357 2.381 . S
O386 C375 1.275 . S
O387 Ho356 2.305 . S
O387 Ho357 2.669 . S
O387 C375 1.256 . S
H388 C361 0.930 . S
H389 C362 0.931 . S
H390 C364 0.934 . S
H391 C365 0.930 . S
H392 C370 0.930 . S
H393 C371 0.931 . S
H394 C373 0.934 . S
H395 C374 0.930 . S
Ho396 C399 2.811 . S
Ho396 O416 2.322 . S
Ho396 O418 2.378 . S
Ho396 O419 2.524 . S
Ho396 O420 2.381 . S
Ho396 O421 2.669 . S
Ho396 O423 2.346 . S
Ho396 O427 2.305 . S
Ho397 C408 2.811 . S
Ho397 O417 2.346 . S
Ho397 O421 2.305 . S
Ho397 O422 2.322 . S
Ho397 O424 2.378 . S
Ho397 O425 2.524 . S
Ho397 O426 2.381 . S
Ho397 O427 2.669 . S
C398 O416 1.259 . S
C398 O417 1.268 . S
C399 Ho396 2.811 . S
C399 C400 1.488 . S
C399 O418 1.215 . S
C399 O419 1.289 . S
C400 C399 1.488 . S
C400 C401 1.348 . S
C400 C405 1.413 . S
C401 C400 1.348 . S
C401 C402 1.442 . S
C401 H428 0.930 . S
C402 C401 1.442 . S
C402 C403 1.381 . S
C402 H429 0.931 . S
C403 C402 1.381 . S
C403 C404 1.321 . S
C404 C403 1.321 . S
C404 C405 1.403 . S
C404 H430 0.934 . S
C405 C400 1.413 . S
C405 C404 1.403 . S
C405 H431 0.930 . S
C406 O420 1.275 . S
C406 O421 1.256 . S
C407 O422 1.259 . S
C407 O423 1.268 . S
C408 Ho397 2.811 . S
C408 C409 1.488 . S
C408 O424 1.215 . S
C408 O425 1.289 . S
C409 C408 1.488 . S
C409 C410 1.348 . S
C409 C414 1.413 . S
C410 C409 1.348 . S
C410 C411 1.442 . S
C410 H432 0.930 . S
C411 C410 1.442 . S
C411 C412 1.381 . S
C411 H433 0.931 . S
C412 C411 1.381 . S
C412 C413 1.321 . S
C413 C412 1.321 . S
C413 C414 1.403 . S
C413 H434 0.934 . S
C414 C409 1.413 . S
C414 C413 1.403 . S
C414 H435 0.930 . S
C415 O426 1.275 . S
C415 O427 1.256 . S
O416 Ho396 2.322 . S
O416 C398 1.259 . S
O417 Ho397 2.346 . S
O417 C398 1.268 . S
O418 Ho396 2.378 . S
O418 C399 1.215 . S
O419 Ho396 2.524 . S
O419 C399 1.289 . S
O420 Ho396 2.381 . S
O420 C406 1.275 . S
O421 Ho396 2.669 . S
O421 Ho397 2.305 . S
O421 C406 1.256 . S
O422 Ho397 2.322 . S
O422 C407 1.259 . S
O423 Ho396 2.346 . S
O423 C407 1.268 . S
O424 Ho397 2.378 . S
O424 C408 1.215 . S
O425 Ho397 2.524 . S
O425 C408 1.289 . S
O426 Ho397 2.381 . S
O426 C415 1.275 . S
O427 Ho396 2.305 . S
O427 Ho397 2.669 . S
O427 C415 1.256 . S
H428 C401 0.930 . S
H429 C402 0.931 . S
H430 C404 0.934 . S
H431 C405 0.930 . S
H432 C410 0.930 . S
H433 C411 0.931 . S
H434 C413 0.934 . S
H435 C414 0.930 . S
Ho436 C439 2.811 . S
Ho436 O456 2.322 . S
Ho436 O458 2.378 . S
Ho436 O459 2.524 . S
Ho436 O460 2.381 . S
Ho436 O461 2.669 . S
Ho436 O463 2.346 . S
Ho436 O467 2.305 . S
Ho437 C448 2.811 . S
Ho437 O457 2.346 . S
Ho437 O461 2.305 . S
Ho437 O462 2.322 . S
Ho437 O464 2.378 . S
Ho437 O465 2.524 . S
Ho437 O466 2.381 . S
Ho437 O467 2.669 . S
C438 O456 1.259 . S
C438 O457 1.268 . S
C439 Ho436 2.811 . S
C439 C440 1.488 . S
C439 O458 1.215 . S
C439 O459 1.289 . S
C440 C439 1.488 . S
C440 C441 1.348 . S
C440 C445 1.413 . S
C441 C440 1.348 . S
C441 C442 1.442 . S
C441 H468 0.930 . S
C442 C441 1.442 . S
C442 C443 1.381 . S
C442 H469 0.931 . S
C443 C442 1.381 . S
C443 C444 1.321 . S
C444 C443 1.321 . S
C444 C445 1.403 . S
C444 H470 0.934 . S
C445 C440 1.413 . S
C445 C444 1.403 . S
C445 H471 0.930 . S
C446 O460 1.275 . S
C446 O461 1.256 . S
C447 O462 1.259 . S
C447 O463 1.268 . S
C448 Ho437 2.811 . S
C448 C449 1.488 . S
C448 O464 1.215 . S
C448 O465 1.289 . S
C449 C448 1.488 . S
C449 C450 1.348 . S
C449 C454 1.413 . S
C450 C449 1.348 . S
C450 C451 1.442 . S
C450 H472 0.930 . S
C451 C450 1.442 . S
C451 C452 1.381 . S
C451 H473 0.931 . S
C452 C451 1.381 . S
C452 C453 1.321 . S
C453 C452 1.321 . S
C453 C454 1.403 . S
C453 H474 0.934 . S
C454 C449 1.413 . S
C454 C453 1.403 . S
C454 H475 0.930 . S
C455 O466 1.275 . S
C455 O467 1.256 . S
O456 Ho436 2.322 . S
O456 C438 1.259 . S
O457 Ho437 2.346 . S
O457 C438 1.268 . S
O458 Ho436 2.378 . S
O458 C439 1.215 . S
O459 Ho436 2.524 . S
O459 C439 1.289 . S
O460 Ho436 2.381 . S
O460 C446 1.275 . S
O461 Ho436 2.669 . S
O461 Ho437 2.305 . S
O461 C446 1.256 . S
O462 Ho437 2.322 . S
O462 C447 1.259 . S
O463 Ho436 2.346 . S
O463 C447 1.268 . S
O464 Ho437 2.378 . S
O464 C448 1.215 . S
O465 Ho437 2.524 . S
O465 C448 1.289 . S
O466 Ho437 2.381 . S
O466 C455 1.275 . S
O467 Ho436 2.305 . S
O467 Ho437 2.669 . S
O467 C455 1.256 . S
H468 C441 0.930 . S
H469 C442 0.931 . S
H470 C444 0.934 . S
H471 C445 0.930 . S
H472 C450 0.930 . S
H473 C451 0.931 . S
H474 C453 0.934 . S
H475 C454 0.930 . S
Ho476 C479 2.811 . S
Ho476 O496 2.322 . S
Ho476 O498 2.378 . S
Ho476 O499 2.524 . S
Ho476 O500 2.381 . S
Ho476 O501 2.669 . S
Ho476 O503 2.346 . S
Ho476 O507 2.305 . S
Ho477 C488 2.811 . S
Ho477 O497 2.346 . S
Ho477 O501 2.305 . S
Ho477 O502 2.322 . S
Ho477 O504 2.378 . S
Ho477 O505 2.524 . S
Ho477 O506 2.381 . S
Ho477 O507 2.669 . S
C478 O496 1.259 . S
C478 O497 1.268 . S
C479 Ho476 2.811 . S
C479 C480 1.488 . S
C479 O498 1.215 . S
C479 O499 1.289 . S
C480 C479 1.488 . S
C480 C481 1.348 . S
C480 C485 1.413 . S
C481 C480 1.348 . S
C481 C482 1.442 . S
C481 H508 0.930 . S
C482 C481 1.442 . S
C482 C483 1.381 . S
C482 H509 0.931 . S
C483 C482 1.381 . S
C483 C484 1.321 . S
C484 C483 1.321 . S
C484 C485 1.403 . S
C484 H510 0.934 . S
C485 C480 1.413 . S
C485 C484 1.403 . S
C485 H511 0.930 . S
C486 O500 1.275 . S
C486 O501 1.256 . S
C487 O502 1.259 . S
C487 O503 1.268 . S
C488 Ho477 2.811 . S
C488 C489 1.488 . S
C488 O504 1.215 . S
C488 O505 1.289 . S
C489 C488 1.488 . S
C489 C490 1.348 . S
C489 C494 1.413 . S
C490 C489 1.348 . S
C490 C491 1.442 . S
C490 H512 0.930 . S
C491 C490 1.442 . S
C491 C492 1.381 . S
C491 H513 0.931 . S
C492 C491 1.381 . S
C492 C493 1.321 . S
C493 C492 1.321 . S
C493 C494 1.403 . S
C493 H514 0.934 . S
C494 C489 1.413 . S
C494 C493 1.403 . S
C494 H515 0.930 . S
C495 O506 1.275 . S
C495 O507 1.256 . S
O496 Ho476 2.322 . S
O496 C478 1.259 . S
O497 Ho477 2.346 . S
O497 C478 1.268 . S
O498 Ho476 2.378 . S
O498 C479 1.215 . S
O499 Ho476 2.524 . S
O499 C479 1.289 . S
O500 Ho476 2.381 . S
O500 C486 1.275 . S
O501 Ho476 2.669 . S
O501 Ho477 2.305 . S
O501 C486 1.256 . S
O502 Ho477 2.322 . S
O502 C487 1.259 . S
O503 Ho476 2.346 . S
O503 C487 1.268 . S
O504 Ho477 2.378 . S
O504 C488 1.215 . S
O505 Ho477 2.524 . S
O505 C488 1.289 . S
O506 Ho477 2.381 . S
O506 C495 1.275 . S
O507 Ho476 2.305 . S
O507 Ho477 2.669 . S
O507 C495 1.256 . S
H508 C481 0.930 . S
H509 C482 0.931 . S
H510 C484 0.934 . S
H511 C485 0.930 . S
H512 C490 0.930 . S
H513 C491 0.931 . S
H514 C493 0.934 . S
H515 C494 0.930 . S
Ho516 C519 2.811 . S
Ho516 O536 2.322 . S
Ho516 O538 2.378 . S
Ho516 O539 2.524 . S
Ho516 O540 2.381 . S
Ho516 O541 2.669 . S
Ho516 O543 2.346 . S
Ho516 O547 2.305 . S
Ho517 C528 2.811 . S
Ho517 O537 2.346 . S
Ho517 O541 2.305 . S
Ho517 O542 2.322 . S
Ho517 O544 2.378 . S
Ho517 O545 2.524 . S
Ho517 O546 2.381 . S
Ho517 O547 2.669 . S
C518 O536 1.259 . S
C518 O537 1.268 . S
C519 Ho516 2.811 . S
C519 C520 1.488 . S
C519 O538 1.215 . S
C519 O539 1.289 . S
C520 C519 1.488 . S
C520 C521 1.348 . S
C520 C525 1.413 . S
C521 C520 1.348 . S
C521 C522 1.442 . S
C521 H548 0.930 . S
C522 C521 1.442 . S
C522 C523 1.381 . S
C522 H549 0.931 . S
C523 C522 1.381 . S
C523 C524 1.321 . S
C524 C523 1.321 . S
C524 C525 1.403 . S
C524 H550 0.934 . S
C525 C520 1.413 . S
C525 C524 1.403 . S
C525 H551 0.930 . S
C526 O540 1.275 . S
C526 O541 1.256 . S
C527 O542 1.259 . S
C527 O543 1.268 . S
C528 Ho517 2.811 . S
C528 C529 1.488 . S
C528 O544 1.215 . S
C528 O545 1.289 . S
C529 C528 1.488 . S
C529 C530 1.348 . S
C529 C534 1.413 . S
C530 C529 1.348 . S
C530 C531 1.442 . S
C530 H552 0.930 . S
C531 C530 1.442 . S
C531 C532 1.381 . S
C531 H553 0.931 . S
C532 C531 1.381 . S
C532 C533 1.321 . S
C533 C532 1.321 . S
C533 C534 1.403 . S
C533 H554 0.934 . S
C534 C529 1.413 . S
C534 C533 1.403 . S
C534 H555 0.930 . S
C535 O546 1.275 . S
C535 O547 1.256 . S
O536 Ho516 2.322 . S
O536 C518 1.259 . S
O537 Ho517 2.346 . S
O537 C518 1.268 . S
O538 Ho516 2.378 . S
O538 C519 1.215 . S
O539 Ho516 2.524 . S
O539 C519 1.289 . S
O540 Ho516 2.381 . S
O540 C526 1.275 . S
O541 Ho516 2.669 . S
O541 Ho517 2.305 . S
O541 C526 1.256 . S
O542 Ho517 2.322 . S
O542 C527 1.259 . S
O543 Ho516 2.346 . S
O543 C527 1.268 . S
O544 Ho517 2.378 . S
O544 C528 1.215 . S
O545 Ho517 2.524 . S
O545 C528 1.289 . S
O546 Ho517 2.381 . S
O546 C535 1.275 . S
O547 Ho516 2.305 . S
O547 Ho517 2.669 . S
O547 C535 1.256 . S
H548 C521 0.930 . S
H549 C522 0.931 . S
H550 C524 0.934 . S
H551 C525 0.930 . S
H552 C530 0.930 . S
H553 C531 0.931 . S
H554 C533 0.934 . S
H555 C534 0.930 . S
Ho556 C559 2.811 . S
Ho556 O576 2.322 . S
Ho556 O578 2.378 . S
Ho556 O579 2.524 . S
Ho556 O580 2.381 . S
Ho556 O581 2.669 . S
Ho556 O583 2.346 . S
Ho556 O587 2.305 . S
Ho557 C568 2.811 . S
Ho557 O577 2.346 . S
Ho557 O581 2.305 . S
Ho557 O582 2.322 . S
Ho557 O584 2.378 . S
Ho557 O585 2.524 . S
Ho557 O586 2.381 . S
Ho557 O587 2.669 . S
C558 O576 1.259 . S
C558 O577 1.268 . S
C559 Ho556 2.811 . S
C559 C560 1.488 . S
C559 O578 1.215 . S
C559 O579 1.289 . S
C560 C559 1.488 . S
C560 C561 1.348 . S
C560 C565 1.413 . S
C561 C560 1.348 . S
C561 C562 1.442 . S
C561 H588 0.930 . S
C562 C561 1.442 . S
C562 C563 1.381 . S
C562 H589 0.931 . S
C563 C562 1.381 . S
C563 C564 1.321 . S
C564 C563 1.321 . S
C564 C565 1.403 . S
C564 H590 0.934 . S
C565 C560 1.413 . S
C565 C564 1.403 . S
C565 H591 0.930 . S
C566 O580 1.275 . S
C566 O581 1.256 . S
C567 O582 1.259 . S
C567 O583 1.268 . S
C568 Ho557 2.811 . S
C568 C569 1.488 . S
C568 O584 1.215 . S
C568 O585 1.289 . S
C569 C568 1.488 . S
C569 C570 1.348 . S
C569 C574 1.413 . S
C570 C569 1.348 . S
C570 C571 1.442 . S
C570 H592 0.930 . S
C571 C570 1.442 . S
C571 C572 1.381 . S
C571 H593 0.931 . S
C572 C571 1.381 . S
C572 C573 1.321 . S
C573 C572 1.321 . S
C573 C574 1.403 . S
C573 H594 0.934 . S
C574 C569 1.413 . S
C574 C573 1.403 . S
C574 H595 0.930 . S
C575 O586 1.275 . S
C575 O587 1.256 . S
O576 Ho556 2.322 . S
O576 C558 1.259 . S
O577 Ho557 2.346 . S
O577 C558 1.268 . S
O578 Ho556 2.378 . S
O578 C559 1.215 . S
O579 Ho556 2.524 . S
O579 C559 1.289 . S
O580 Ho556 2.381 . S
O580 C566 1.275 . S
O581 Ho556 2.669 . S
O581 Ho557 2.305 . S
O581 C566 1.256 . S
O582 Ho557 2.322 . S
O582 C567 1.259 . S
O583 Ho556 2.346 . S
O583 C567 1.268 . S
O584 Ho557 2.378 . S
O584 C568 1.215 . S
O585 Ho557 2.524 . S
O585 C568 1.289 . S
O586 Ho557 2.381 . S
O586 C575 1.275 . S
O587 Ho556 2.305 . S
O587 Ho557 2.669 . S
O587 C575 1.256 . S
H588 C561 0.930 . S
H589 C562 0.931 . S
H590 C564 0.934 . S
H591 C565 0.930 . S
H592 C570 0.930 . S
H593 C571 0.931 . S
H594 C573 0.934 . S
H595 C574 0.930 . S
H596 C602 0.930 . S
H597 C606 0.930 . S
H598 C611 0.929 . S
H599 C609 0.929 . S
H600 C604 0.929 . S
H601 C610 0.929 . S
C602 H596 0.930 . S
C602 C603 1.367 . S
C602 C610 1.378 . S
C603 C602 1.367 . S
C603 C611 1.433 . S
C604 H600 0.929 . S
C604 C606 1.378 . S
C604 C608 1.350 . S
C605 C608 1.463 . S
C605 C610 1.350 . S
C605 N613 1.427 . S
C606 H597 0.930 . S
C606 C604 1.378 . S
C606 C607 1.367 . S
C607 C606 1.367 . S
C607 C609 1.433 . S
C608 C604 1.350 . S
C608 C605 1.463 . S
C608 N612 1.427 . S
C609 H599 0.929 . S
C609 C607 1.433 . S
C609 N612 1.384 . S
C610 H601 0.929 . S
C610 C602 1.378 . S
C610 C605 1.350 . S
C611 H598 0.929 . S
C611 C603 1.433 . S
C611 N613 1.384 . S
N612 C608 1.427 . S
N612 C609 1.384 . S
N613 C605 1.427 . S
N613 C611 1.384 . S
H614 C620 0.930 . S
H615 C624 0.930 . S
H616 C629 0.929 . S
H617 C627 0.929 . S
H618 C622 0.929 . S
H619 C628 0.929 . S
C620 H614 0.930 . S
C620 C621 1.367 . S
C620 C628 1.378 . S
C621 C620 1.367 . S
C621 C629 1.433 . S
C622 H618 0.929 . S
C622 C624 1.378 . S
C622 C626 1.350 . S
C623 C626 1.463 . S
C623 C628 1.350 . S
C623 N631 1.427 . S
C624 H615 0.930 . S
C624 C622 1.378 . S
C624 C625 1.367 . S
C625 C624 1.367 . S
C625 C627 1.433 . S
C626 C622 1.350 . S
C626 C623 1.463 . S
C626 N630 1.427 . S
C627 H617 0.929 . S
C627 C625 1.433 . S
C627 N630 1.384 . S
C628 H619 0.929 . S
C628 C620 1.378 . S
C628 C623 1.350 . S
C629 H616 0.929 . S
C629 C621 1.433 . S
C629 N631 1.384 . S
N630 C626 1.427 . S
N630 C627 1.384 . S
N631 C623 1.427 . S
N631 C629 1.384 . S
H632 C638 0.930 . S
H633 C642 0.930 . S
H634 C647 0.929 . S
H635 C645 0.929 . S
H636 C640 0.929 . S
H637 C646 0.929 . S
C638 H632 0.930 . S
C638 C639 1.367 . S
C638 C646 1.378 . S
C639 C638 1.367 . S
C639 C647 1.433 . S
C640 H636 0.929 . S
C640 C642 1.378 . S
C640 C644 1.350 . S
C641 C644 1.463 . S
C641 C646 1.350 . S
C641 N649 1.427 . S
C642 H633 0.930 . S
C642 C640 1.378 . S
C642 C643 1.367 . S
C643 C642 1.367 . S
C643 C645 1.433 . S
C644 C640 1.350 . S
C644 C641 1.463 . S
C644 N648 1.427 . S
C645 H635 0.929 . S
C645 C643 1.433 . S
C645 N648 1.384 . S
C646 H637 0.929 . S
C646 C638 1.378 . S
C646 C641 1.350 . S
C647 H634 0.929 . S
C647 C639 1.433 . S
C647 N649 1.384 . S
N648 C644 1.427 . S
N648 C645 1.384 . S
N649 C641 1.427 . S
N649 C647 1.384 . S
H650 C656 0.930 . S
H651 C660 0.930 . S
H652 C665 0.929 . S
H653 C663 0.929 . S
H654 C658 0.929 . S
H655 C664 0.929 . S
C656 H650 0.930 . S
C656 C657 1.367 . S
C656 C664 1.378 . S
C657 C656 1.367 . S
C657 C665 1.433 . S
C658 H654 0.929 . S
C658 C660 1.378 . S
C658 C662 1.350 . S
C659 C662 1.463 . S
C659 C664 1.350 . S
C659 N667 1.427 . S
C660 H651 0.930 . S
C660 C658 1.378 . S
C660 C661 1.367 . S
C661 C660 1.367 . S
C661 C663 1.433 . S
C662 C658 1.350 . S
C662 C659 1.463 . S
C662 N666 1.427 . S
C663 H653 0.929 . S
C663 C661 1.433 . S
C663 N666 1.384 . S
C664 H655 0.929 . S
C664 C656 1.378 . S
C664 C659 1.350 . S
C665 H652 0.929 . S
C665 C657 1.433 . S
C665 N667 1.384 . S
N666 C662 1.427 . S
N666 C663 1.384 . S
N667 C659 1.427 . S
N667 C665 1.384 . S
H668 C674 0.930 . S
H669 C678 0.930 . S
H670 C683 0.929 . S
H671 C681 0.929 . S
H672 C676 0.929 . S
H673 C682 0.929 . S
C674 H668 0.930 . S
C674 C675 1.367 . S
C674 C682 1.378 . S
C675 C674 1.367 . S
C675 C683 1.433 . S
C676 H672 0.929 . S
C676 C678 1.378 . S
C676 C680 1.350 . S
C677 C680 1.463 . S
C677 C682 1.350 . S
C677 N685 1.427 . S
C678 H669 0.930 . S
C678 C676 1.378 . S
C678 C679 1.367 . S
C679 C678 1.367 . S
C679 C681 1.433 . S
C680 C676 1.350 . S
C680 C677 1.463 . S
C680 N684 1.427 . S
C681 H671 0.929 . S
C681 C679 1.433 . S
C681 N684 1.384 . S
C682 H673 0.929 . S
C682 C674 1.378 . S
C682 C677 1.350 . S
C683 H670 0.929 . S
C683 C675 1.433 . S
C683 N685 1.384 . S
N684 C680 1.427 . S
N684 C681 1.384 . S
N685 C677 1.427 . S
N685 C683 1.384 . S
H686 C692 0.930 . S
H687 C696 0.930 . S
H688 C701 0.929 . S
H689 C699 0.929 . S
H690 C694 0.929 . S
H691 C700 0.929 . S
C692 H686 0.930 . S
C692 C693 1.367 . S
C692 C700 1.378 . S
C693 C692 1.367 . S
C693 C701 1.433 . S
C694 H690 0.929 . S
C694 C696 1.378 . S
C694 C698 1.350 . S
C695 C698 1.463 . S
C695 C700 1.350 . S
C695 N703 1.427 . S
C696 H687 0.930 . S
C696 C694 1.378 . S
C696 C697 1.367 . S
C697 C696 1.367 . S
C697 C699 1.433 . S
C698 C694 1.350 . S
C698 C695 1.463 . S
C698 N702 1.427 . S
C699 H689 0.929 . S
C699 C697 1.433 . S
C699 N702 1.384 . S
C700 H691 0.929 . S
C700 C692 1.378 . S
C700 C695 1.350 . S
C701 H688 0.929 . S
C701 C693 1.433 . S
C701 N703 1.384 . S
N702 C698 1.427 . S
N702 C699 1.384 . S
N703 C695 1.427 . S
N703 C701 1.384 . S
H704 C710 0.930 . S
H705 C714 0.930 . S
H706 C719 0.929 . S
H707 C717 0.929 . S
H708 C712 0.929 . S
H709 C718 0.929 . S
C710 H704 0.930 . S
C710 C711 1.367 . S
C710 C718 1.378 . S
C711 C710 1.367 . S
C711 C719 1.433 . S
C712 H708 0.929 . S
C712 C714 1.378 . S
C712 C716 1.350 . S
C713 C716 1.463 . S
C713 C718 1.350 . S
C713 N721 1.427 . S
C714 H705 0.930 . S
C714 C712 1.378 . S
C714 C715 1.367 . S
C715 C714 1.367 . S
C715 C717 1.433 . S
C716 C712 1.350 . S
C716 C713 1.463 . S
C716 N720 1.427 . S
C717 H707 0.929 . S
C717 C715 1.433 . S
C717 N720 1.384 . S
C718 H709 0.929 . S
C718 C710 1.378 . S
C718 C713 1.350 . S
C719 H706 0.929 . S
C719 C711 1.433 . S
C719 N721 1.384 . S
N720 C716 1.427 . S
N720 C717 1.384 . S
N721 C713 1.427 . S
N721 C719 1.384 . S
H722 C728 0.930 . S
H723 C732 0.930 . S
H724 C737 0.929 . S
H725 C735 0.929 . S
H726 C730 0.929 . S
H727 C736 0.929 . S
C728 H722 0.930 . S
C728 C729 1.367 . S
C728 C736 1.378 . S
C729 C728 1.367 . S
C729 C737 1.433 1_565 S
C730 H726 0.929 . S
C730 C732 1.378 . S
C730 C734 1.350 . S
C731 C734 1.463 . S
C731 C736 1.350 . S
C731 N739 1.427 . S
C732 H723 0.930 . S
C732 C730 1.378 . S
C732 C733 1.367 . S
C733 C732 1.367 . S
C733 C735 1.433 . S
C734 C730 1.350 . S
C734 C731 1.463 . S
C734 N738 1.427 . S
C735 H725 0.929 . S
C735 C733 1.433 . S
C735 N738 1.384 . S
C736 H727 0.929 . S
C736 C728 1.378 . S
C736 C731 1.350 . S
C737 H724 0.929 . S
C737 C729 1.433 1_545 S
C737 N739 1.384 1_545 S
N738 C734 1.427 . S
N738 C735 1.384 . S
N739 C731 1.427 . S
N739 C737 1.384 1_565 S
H740 C746 0.930 . S
H741 C750 0.930 . S
H742 C755 0.929 . S
H743 C753 0.929 . S
H744 C748 0.929 . S
H745 C754 0.929 . S
C746 H740 0.930 . S
C746 C747 1.367 . S
C746 C754 1.378 . S
C747 C746 1.367 . S
C747 C755 1.433 . S
C748 H744 0.929 . S
C748 C750 1.378 . S
C748 C752 1.350 . S
C749 C752 1.463 . S
C749 C754 1.350 . S
C749 N757 1.427 . S
C750 H741 0.930 . S
C750 C748 1.378 . S
C750 C751 1.367 . S
C751 C750 1.367 . S
C751 C753 1.433 . S
C752 C748 1.350 . S
C752 C749 1.463 . S
C752 N756 1.427 . S
C753 H743 0.929 . S
C753 C751 1.433 . S
C753 N756 1.384 . S
C754 H745 0.929 . S
C754 C746 1.378 . S
C754 C749 1.350 . S
C755 H742 0.929 . S
C755 C747 1.433 . S
C755 N757 1.384 . S
N756 C752 1.427 . S
N756 C753 1.384 . S
N757 C749 1.427 . S
N757 C755 1.384 . S
H758 C764 0.930 . S
H759 C768 0.930 . S
H760 C773 0.929 . S
H761 C771 0.929 . S
H762 C766 0.929 . S
H763 C772 0.929 . S
C764 H758 0.930 . S
C764 C765 1.367 . S
C764 C772 1.378 . S
C765 C764 1.367 . S
C765 C773 1.433 . S
C766 H762 0.929 . S
C766 C768 1.378 . S
C766 C770 1.350 . S
C767 C770 1.463 . S
C767 C772 1.350 . S
C767 N775 1.427 . S
C768 H759 0.930 . S
C768 C766 1.378 . S
C768 C769 1.367 . S
C769 C768 1.367 . S
C769 C771 1.433 . S
C770 C766 1.350 . S
C770 C767 1.463 . S
C770 N774 1.427 . S
C771 H761 0.929 . S
C771 C769 1.433 . S
C771 N774 1.384 . S
C772 H763 0.929 . S
C772 C764 1.378 . S
C772 C767 1.350 . S
C773 H760 0.929 . S
C773 C765 1.433 . S
C773 N775 1.384 . S
N774 C770 1.427 . S
N774 C771 1.384 . S
N775 C767 1.427 . S
N775 C773 1.384 . S
H776 C782 0.930 . S
H777 C786 0.930 . S
H778 C791 0.929 . S
H779 C789 0.929 . S
H780 C784 0.929 . S
H781 C790 0.929 . S
C782 H776 0.930 . S
C782 C783 1.367 . S
C782 C790 1.378 . S
C783 C782 1.367 . S
C783 C791 1.433 . S
C784 H780 0.929 . S
C784 C786 1.378 . S
C784 C788 1.350 . S
C785 C788 1.463 . S
C785 C790 1.350 . S
C785 N793 1.427 . S
C786 H777 0.930 . S
C786 C784 1.378 . S
C786 C787 1.367 . S
C787 C786 1.367 . S
C787 C789 1.433 . S
C788 C784 1.350 . S
C788 C785 1.463 . S
C788 N792 1.427 . S
C789 H779 0.929 . S
C789 C787 1.433 . S
C789 N792 1.384 . S
C790 H781 0.929 . S
C790 C782 1.378 . S
C790 C785 1.350 . S
C791 H778 0.929 . S
C791 C783 1.433 . S
C791 N793 1.384 . S
N792 C788 1.427 . S
N792 C789 1.384 . S
N793 C785 1.427 . S
N793 C791 1.384 . S
H794 C800 0.930 . S
H795 C804 0.930 . S
H796 C809 0.929 . S
H797 C807 0.929 . S
H798 C802 0.929 . S
H799 C808 0.929 . S
C800 H794 0.930 . S
C800 C801 1.367 . S
C800 C808 1.378 . S
C801 C800 1.367 . S
C801 C809 1.433 . S
C802 H798 0.929 . S
C802 C804 1.378 . S
C802 C806 1.350 . S
C803 C806 1.463 . S
C803 C808 1.350 . S
C803 N811 1.427 . S
C804 H795 0.930 . S
C804 C802 1.378 . S
C804 C805 1.367 . S
C805 C804 1.367 . S
C805 C807 1.433 . S
C806 C802 1.350 . S
C806 C803 1.463 . S
C806 N810 1.427 . S
C807 H797 0.929 . S
C807 C805 1.433 . S
C807 N810 1.384 . S
C808 H799 0.929 . S
C808 C800 1.378 . S
C808 C803 1.350 . S
C809 H796 0.929 . S
C809 C801 1.433 . S
C809 N811 1.384 . S
N810 C806 1.427 . S
N810 C807 1.384 . S
N811 C803 1.427 . S
N811 C809 1.384 . S
H812 C818 0.930 1_556 S
H813 C822 0.930 . S
H814 C827 0.929 . S
H815 C825 0.929 . S
H816 C820 0.929 1_554 S
H817 C826 0.929 . S
C818 H812 0.930 1_554 S
C818 C819 1.367 . S
C818 C826 1.378 1_554 S
C819 C818 1.367 . S
C819 C827 1.433 . S
C820 H816 0.929 1_556 S
C820 C822 1.378 . S
C820 C824 1.350 . S
C821 C824 1.461 . S
C821 C826 1.349 . S
C821 N829 1.429 1_556 S
C822 H813 0.930 . S
C822 C820 1.378 . S
C822 C823 1.367 . S
C823 C822 1.367 . S
C823 C825 1.433 . S
C824 C820 1.350 . S
C824 C821 1.461 . S
C824 N828 1.427 . S
C825 H815 0.929 . S
C825 C823 1.433 . S
C825 N828 1.384 . S
C826 H817 0.929 . S
C826 C818 1.378 1_556 S
C826 C821 1.349 . S
C827 H814 0.929 . S
C827 C819 1.433 . S
C827 N829 1.384 . S
N828 C824 1.427 . S
N828 C825 1.384 . S
N829 C821 1.429 1_554 S
N829 C827 1.384 . S
H830 C836 0.930 . S
H831 C840 0.930 . S
H832 C845 0.929 1_554 S
H833 C843 0.929 . S
H834 C838 0.929 . S
H835 C844 0.929 . S
C836 H830 0.930 . S
C836 C837 1.367 . S
C836 C844 1.378 . S
C837 C836 1.367 . S
C837 C845 1.433 . S
C838 H834 0.929 . S
C838 C840 1.378 . S
C838 C842 1.350 . S
C839 C842 1.463 . S
C839 C844 1.350 . S
C839 N847 1.427 . S
C840 H831 0.930 . S
C840 C838 1.378 . S
C840 C841 1.367 . S
C841 C840 1.367 . S
C841 C843 1.433 . S
C842 C838 1.350 . S
C842 C839 1.463 . S
C842 N846 1.427 . S
C843 H833 0.929 . S
C843 C841 1.433 . S
C843 N846 1.384 . S
C844 H835 0.929 . S
C844 C836 1.378 . S
C844 C839 1.350 . S
C845 H832 0.929 1_556 S
C845 C837 1.433 . S
C845 N847 1.384 . S
N846 C842 1.427 . S
N846 C843 1.384 . S
N847 C839 1.427 . S
N847 C845 1.384 . S
H848 C854 0.930 . S
H849 C858 0.930 . S
H850 C863 0.929 . S
H851 C861 0.929 . S
H852 C856 0.929 . S
H853 C862 0.929 . S
C854 H848 0.930 . S
C854 C855 1.367 . S
C854 C862 1.378 . S
C855 C854 1.367 . S
C855 C863 1.433 . S
C856 H852 0.929 . S
C856 C858 1.378 . S
C856 C860 1.350 . S
C857 C860 1.463 . S
C857 C862 1.350 . S
C857 N865 1.427 . S
C858 H849 0.930 . S
C858 C856 1.378 . S
C858 C859 1.367 . S
C859 C858 1.367 . S
C859 C861 1.433 . S
C860 C856 1.350 . S
C860 C857 1.463 . S
C860 N864 1.427 . S
C861 H851 0.929 . S
C861 C859 1.433 . S
C861 N864 1.384 . S
C862 H853 0.929 . S
C862 C854 1.378 . S
C862 C857 1.350 . S
C863 H850 0.929 . S
C863 C855 1.433 . S
C863 N865 1.384 . S
N864 C860 1.427 . S
N864 C861 1.384 . S
N865 C857 1.427 . S
N865 C863 1.384 . S
H866 C872 0.930 . S
H867 C876 0.930 . S
H868 C881 0.929 . S
H869 C879 0.929 . S
H870 C874 0.929 . S
H871 C880 0.929 . S
C872 H866 0.930 . S
C872 C873 1.367 . S
C872 C880 1.378 . S
C873 C872 1.367 . S
C873 C881 1.433 . S
C874 H870 0.929 . S
C874 C876 1.378 . S
C874 C878 1.350 . S
C875 C878 1.463 . S
C875 C880 1.350 . S
C875 N883 1.427 . S
C876 H867 0.930 . S
C876 C874 1.378 . S
C876 C877 1.367 . S
C877 C876 1.367 . S
C877 C879 1.433 . S
C878 C874 1.350 . S
C878 C875 1.463 . S
C878 N882 1.427 . S
C879 H869 0.929 . S
C879 C877 1.433 . S
C879 N882 1.384 . S
C880 H871 0.929 . S
C880 C872 1.378 . S
C880 C875 1.350 . S
C881 H868 0.929 . S
C881 C873 1.433 . S
C881 N883 1.384 . S
N882 C878 1.427 . S
N882 C879 1.384 . S
N883 C875 1.427 . S
N883 C881 1.384 . S
H884 C890 0.930 . S
H885 C894 0.930 . S
H886 C899 0.929 . S
H887 C897 0.929 . S
H888 C892 0.929 . S
H889 C898 0.929 . S
C890 H884 0.930 . S
C890 C891 1.367 . S
C890 C898 1.378 . S
C891 C890 1.367 . S
C891 C899 1.433 . S
C892 H888 0.929 . S
C892 C894 1.378 . S
C892 C896 1.350 . S
C893 C896 1.463 . S
C893 C898 1.350 . S
C893 N901 1.427 . S
C894 H885 0.930 . S
C894 C892 1.378 . S
C894 C895 1.367 . S
C895 C894 1.367 . S
C895 C897 1.433 . S
C896 C892 1.350 . S
C896 C893 1.463 . S
C896 N900 1.427 . S
C897 H887 0.929 . S
C897 C895 1.433 . S
C897 N900 1.384 . S
C898 H889 0.929 . S
C898 C890 1.378 . S
C898 C893 1.350 . S
C899 H886 0.929 . S
C899 C891 1.433 . S
C899 N901 1.384 . S
N900 C896 1.427 . S
N900 C897 1.384 . S
N901 C893 1.427 . S
N901 C899 1.384 . S
H902 C908 0.930 . S
H903 C912 0.930 . S
H904 C917 0.929 . S
H905 C915 0.929 . S
H906 C910 0.929 . S
H907 C916 0.929 . S
C908 H902 0.930 . S
C908 C909 1.367 . S
C908 C916 1.378 . S
C909 C908 1.367 . S
C909 C917 1.433 . S
C910 H906 0.929 . S
C910 C912 1.378 . S
C910 C914 1.350 . S
C911 C914 1.463 . S
C911 C916 1.350 . S
C911 N919 1.427 . S
C912 H903 0.930 . S
C912 C910 1.378 . S
C912 C913 1.367 . S
C913 C912 1.367 . S
C913 C915 1.433 . S
C914 C910 1.350 . S
C914 C911 1.463 . S
C914 N918 1.427 . S
C915 H905 0.929 . S
C915 C913 1.433 . S
C915 N918 1.384 . S
C916 H907 0.929 . S
C916 C908 1.378 . S
C916 C911 1.350 . S
C917 H904 0.929 . S
C917 C909 1.433 . S
C917 N919 1.384 . S
N918 C914 1.427 . S
N918 C915 1.384 . S
N919 C911 1.427 . S
N919 C917 1.384 . S
H920 C926 0.930 . S
H921 C930 0.930 . S
H922 C935 0.929 . S
H923 C933 0.929 . S
H924 C928 0.929 . S
H925 C934 0.929 . S
C926 H920 0.930 . S
C926 C927 1.367 1_556 S
C926 C934 1.378 . S
C927 C926 1.367 1_554 S
C927 C935 1.433 . S
C928 H924 0.929 . S
C928 C930 1.378 . S
C928 C932 1.350 . S
C929 C932 1.463 . S
C929 C934 1.350 . S
C929 N937 1.427 . S
C930 H921 0.930 . S
C930 C928 1.378 . S
C930 C931 1.367 . S
C931 C930 1.367 . S
C931 C933 1.433 . S
C932 C928 1.350 . S
C932 C929 1.463 . S
C932 N936 1.427 . S
C933 H923 0.929 . S
C933 C931 1.433 . S
C933 N936 1.384 . S
C934 H925 0.929 . S
C934 C926 1.378 . S
C934 C929 1.350 . S
C935 H922 0.929 . S
C935 C927 1.433 . S
C935 N937 1.384 1_554 S
N936 C932 1.427 . S
N936 C933 1.384 . S
N937 C929 1.427 . S
N937 C935 1.384 1_556 S
H938 C944 0.930 . S
H939 C948 0.930 . S
H940 C953 0.929 . S
H941 C951 0.929 . S
H942 C946 0.929 . S
H943 C952 0.929 . S
C944 H938 0.930 . S
C944 C945 1.367 . S
C944 C952 1.378 . S
C945 C944 1.367 . S
C945 C953 1.433 1_554 S
C946 H942 0.929 . S
C946 C948 1.378 . S
C946 C950 1.350 . S
C947 C950 1.463 . S
C947 C952 1.350 1_556 S
C947 N955 1.427 . S
C948 H939 0.930 . S
C948 C946 1.378 . S
C948 C949 1.367 . S
C949 C948 1.367 . S
C949 C951 1.433 . S
C950 C946 1.350 . S
C950 C947 1.463 . S
C950 N954 1.427 . S
C951 H941 0.929 . S
C951 C949 1.433 . S
C951 N954 1.384 . S
C952 H943 0.929 . S
C952 C944 1.378 . S
C952 C947 1.350 1_554 S
C953 H940 0.929 . S
C953 C945 1.433 1_556 S
C953 N955 1.384 . S
N954 C950 1.427 . S
N954 C951 1.384 . S
N955 C947 1.427 . S
N955 C953 1.384 . S
H956 C962 0.930 . S
H957 C966 0.930 . S
H958 C971 0.929 . S
H959 C969 0.929 . S
H960 C964 0.929 . S
H961 C970 0.929 . S
C962 H956 0.930 . S
C962 C963 1.367 . S
C962 C970 1.378 . S
C963 C962 1.367 . S
C963 C971 1.433 . S
C964 H960 0.929 . S
C964 C966 1.378 . S
C964 C968 1.350 . S
C965 C968 1.463 . S
C965 C970 1.350 . S
C965 N973 1.427 . S
C966 H957 0.930 . S
C966 C964 1.378 . S
C966 C967 1.367 . S
C967 C966 1.367 . S
C967 C969 1.433 . S
C968 C964 1.350 . S
C968 C965 1.463 . S
C968 N972 1.427 . S
C969 H959 0.929 . S
C969 C967 1.433 . S
C969 N972 1.384 . S
C970 H961 0.929 . S
C970 C962 1.378 . S
C970 C965 1.350 . S
C971 H958 0.929 . S
C971 C963 1.433 . S
C971 N973 1.384 . S
N972 C968 1.427 . S
N972 C969 1.384 . S
N973 C965 1.427 . S
N973 C971 1.384 . S
H974 C980 0.930 . S
H975 C984 0.930 . S
H976 C989 0.929 . S
H977 C987 0.929 . S
H978 C982 0.929 . S
H979 C988 0.929 . S
C980 H974 0.930 . S
C980 C981 1.367 . S
C980 C988 1.378 . S
C981 C980 1.367 . S
C981 C989 1.433 . S
C982 H978 0.929 . S
C982 C984 1.378 . S
C982 C986 1.350 . S
C983 C986 1.463 . S
C983 C988 1.350 . S
C983 N991 1.427 . S
C984 H975 0.930 . S
C984 C982 1.378 . S
C984 C985 1.367 . S
C985 C984 1.367 . S
C985 C987 1.433 . S
C986 C982 1.350 . S
C986 C983 1.463 . S
C986 N990 1.427 . S
C987 H977 0.929 . S
C987 C985 1.433 . S
C987 N990 1.384 . S
C988 H979 0.929 . S
C988 C980 1.378 . S
C988 C983 1.350 . S
C989 H976 0.929 . S
C989 C981 1.433 . S
C989 N991 1.384 . S
N990 C986 1.427 . S
N990 C987 1.384 . S
N991 C983 1.427 . S
N991 C989 1.384 . S
H992 C998 0.930 . S
H993 C1002 0.930 . S
H994 C1007 0.929 . S
H995 C1005 0.929 . S
H996 C1000 0.929 . S
H997 C1006 0.929 . S
C998 H992 0.930 . S
C998 C999 1.367 . S
C998 C1006 1.378 . S
C999 C998 1.367 . S
C999 C1007 1.433 . S
C1000 H996 0.929 . S
C1000 C1002 1.378 . S
C1000 C1004 1.350 . S
C1001 C1004 1.463 . S
C1001 C1006 1.350 . S
C1001 N1009 1.427 . S
C1002 H993 0.930 . S
C1002 C1000 1.378 . S
C1002 C1003 1.367 . S
C1003 C1002 1.367 . S
C1003 C1005 1.433 . S
C1004 C1000 1.350 . S
C1004 C1001 1.463 . S
C1004 N1008 1.427 . S
C1005 H995 0.929 . S
C1005 C1003 1.433 . S
C1005 N1008 1.384 . S
C1006 H997 0.929 . S
C1006 C998 1.378 . S
C1006 C1001 1.350 . S
C1007 H994 0.929 . S
C1007 C999 1.433 . S
C1007 N1009 1.384 . S
N1008 C1004 1.427 . S
N1008 C1005 1.384 . S
N1009 C1001 1.427 . S
N1009 C1007 1.384 . S
H1010 C1016 0.930 . S
H1011 C1020 0.930 . S
H1012 C1025 0.929 . S
H1013 C1023 0.929 . S
H1014 C1018 0.929 . S
H1015 C1024 0.929 . S
C1016 H1010 0.930 . S
C1016 C1017 1.367 . S
C1016 C1024 1.378 . S
C1017 C1016 1.367 . S
C1017 C1025 1.433 . S
C1018 H1014 0.929 . S
C1018 C1020 1.378 . S
C1018 C1022 1.350 . S
C1019 C1022 1.463 . S
C1019 C1024 1.350 . S
C1019 N1027 1.427 . S
C1020 H1011 0.930 . S
C1020 C1018 1.378 . S
C1020 C1021 1.367 . S
C1021 C1020 1.367 . S
C1021 C1023 1.433 . S
C1022 C1018 1.350 . S
C1022 C1019 1.463 . S
C1022 N1026 1.427 . S
C1023 H1013 0.929 . S
C1023 C1021 1.433 . S
C1023 N1026 1.384 . S
C1024 H1015 0.929 . S
C1024 C1016 1.378 . S
C1024 C1019 1.350 . S
C1025 H1012 0.929 . S
C1025 C1017 1.433 . S
C1025 N1027 1.384 . S
N1026 C1022 1.427 . S
N1026 C1023 1.384 . S
N1027 C1019 1.427 . S
N1027 C1025 1.384 . S
H1028 C1034 0.930 . S
H1029 C1038 0.930 . S
H1030 C1043 0.929 . S
H1031 C1041 0.929 . S
H1032 C1036 0.929 . S
H1033 C1042 0.929 . S
C1034 H1028 0.930 . S
C1034 C1035 1.367 . S
C1034 C1042 1.378 . S
C1035 C1034 1.367 . S
C1035 C1043 1.433 . S
C1036 H1032 0.929 . S
C1036 C1038 1.378 . S
C1036 C1040 1.350 . S
C1037 C1040 1.463 . S
C1037 C1042 1.350 . S
C1037 N1045 1.427 . S
C1038 H1029 0.930 . S
C1038 C1036 1.378 . S
C1038 C1039 1.367 . S
C1039 C1038 1.367 . S
C1039 C1041 1.433 . S
C1040 C1036 1.350 . S
C1040 C1037 1.463 . S
C1040 N1044 1.427 . S
C1041 H1031 0.929 . S
C1041 C1039 1.433 . S
C1041 N1044 1.384 . S
C1042 H1033 0.929 . S
C1042 C1034 1.378 . S
C1042 C1037 1.350 . S
C1043 H1030 0.929 . S
C1043 C1035 1.433 . S
C1043 N1045 1.384 . S
N1044 C1040 1.427 . S
N1044 C1041 1.384 . S
N1045 C1037 1.427 . S
N1045 C1043 1.384 . S
H1046 C1052 0.930 . S
H1047 C1056 0.930 . S
H1048 C1061 0.929 . S
H1049 C1059 0.929 . S
H1050 C1054 0.929 . S
H1051 C1060 0.929 . S
C1052 H1046 0.930 . S
C1052 C1053 1.367 . S
C1052 C1060 1.378 . S
C1053 C1052 1.367 . S
C1053 C1061 1.433 . S
C1054 H1050 0.929 . S
C1054 C1056 1.378 . S
C1054 C1058 1.350 . S
C1055 C1058 1.463 . S
C1055 C1060 1.350 . S
C1055 N1063 1.427 . S
C1056 H1047 0.930 . S
C1056 C1054 1.378 . S
C1056 C1057 1.367 . S
C1057 C1056 1.367 . S
C1057 C1059 1.433 . S
C1058 C1054 1.350 . S
C1058 C1055 1.463 . S
C1058 N1062 1.427 . S
C1059 H1049 0.929 . S
C1059 C1057 1.433 . S
C1059 N1062 1.384 . S
C1060 H1051 0.929 . S
C1060 C1052 1.378 . S
C1060 C1055 1.350 . S
C1061 H1048 0.929 . S
C1061 C1053 1.433 . S
C1061 N1063 1.384 . S
N1062 C1058 1.427 . S
N1062 C1059 1.384 . S
N1063 C1055 1.427 . S
N1063 C1061 1.384 . S
H1064 C1070 0.930 . S
H1065 C1074 0.930 . S
H1066 C1079 0.929 . S
H1067 C1077 0.929 . S
H1068 C1072 0.929 . S
H1069 C1078 0.929 . S
C1070 H1064 0.930 . S
C1070 C1071 1.367 . S
C1070 C1078 1.378 . S
C1071 C1070 1.367 . S
C1071 C1079 1.433 . S
C1072 H1068 0.929 . S
C1072 C1074 1.378 . S
C1072 C1076 1.350 . S
C1073 C1076 1.463 . S
C1073 C1078 1.350 . S
C1073 N1081 1.427 . S
C1074 H1065 0.930 . S
C1074 C1072 1.378 . S
C1074 C1075 1.367 . S
C1075 C1074 1.367 . S
C1075 C1077 1.433 . S
C1076 C1072 1.350 . S
C1076 C1073 1.463 . S
C1076 N1080 1.427 . S
C1077 H1067 0.929 . S
C1077 C1075 1.433 . S
C1077 N1080 1.384 . S
C1078 H1069 0.929 . S
C1078 C1070 1.378 . S
C1078 C1073 1.350 . S
C1079 H1066 0.929 . S
C1079 C1071 1.433 . S
C1079 N1081 1.384 . S
N1080 C1076 1.427 . S
N1080 C1077 1.384 . S
N1081 C1073 1.427 . S
N1081 C1079 1.384 . S
H1082 C1088 0.930 . S
H1083 C1092 0.930 . S
H1084 C1097 0.929 . S
H1085 C1095 0.929 . S
H1086 C1090 0.929 . S
H1087 C1096 0.929 . S
C1088 H1082 0.930 . S
C1088 C1089 1.367 . S
C1088 C1096 1.378 . S
C1089 C1088 1.367 . S
C1089 C1097 1.433 . S
C1090 H1086 0.929 . S
C1090 C1092 1.378 . S
C1090 C1094 1.350 . S
C1091 C1094 1.463 . S
C1091 C1096 1.350 . S
C1091 N1099 1.427 . S
C1092 H1083 0.930 . S
C1092 C1090 1.378 . S
C1092 C1093 1.367 . S
C1093 C1092 1.367 . S
C1093 C1095 1.433 . S
C1094 C1090 1.350 . S
C1094 C1091 1.463 . S
C1094 N1098 1.427 . S
C1095 H1085 0.929 . S
C1095 C1093 1.433 . S
C1095 N1098 1.384 . S
C1096 H1087 0.929 . S
C1096 C1088 1.378 . S
C1096 C1091 1.350 . S
C1097 H1084 0.929 . S
C1097 C1089 1.433 . S
C1097 N1099 1.384 . S
N1098 C1094 1.427 . S
N1098 C1095 1.384 . S
N1099 C1091 1.427 . S
N1099 C1097 1.384 . S
H1100 C1106 0.930 . S
H1101 C1110 0.930 . S
H1102 C1115 0.929 . S
H1103 C1113 0.929 . S
H1104 C1108 0.929 . S
H1105 C1114 0.929 . S
C1106 H1100 0.930 . S
C1106 C1107 1.367 . S
C1106 C1114 1.378 . S
C1107 C1106 1.367 . S
C1107 C1115 1.433 . S
C1108 H1104 0.929 . S
C1108 C1110 1.378 . S
C1108 C1112 1.350 . S
C1109 C1112 1.463 . S
C1109 C1114 1.350 . S
C1109 N1117 1.427 . S
C1110 H1101 0.930 . S
C1110 C1108 1.378 . S
C1110 C1111 1.367 . S
C1111 C1110 1.367 . S
C1111 C1113 1.433 . S
C1112 C1108 1.350 . S
C1112 C1109 1.463 . S
C1112 N1116 1.427 . S
C1113 H1103 0.929 . S
C1113 C1111 1.433 . S
C1113 N1116 1.384 . S
C1114 H1105 0.929 . S
C1114 C1106 1.378 . S
C1114 C1109 1.350 . S
C1115 H1102 0.929 . S
C1115 C1107 1.433 . S
C1115 N1117 1.384 . S
N1116 C1112 1.427 . S
N1116 C1113 1.384 . S
N1117 C1109 1.427 . S
N1117 C1115 1.384 . S
H1118 C1124 0.930 . S
H1119 C1128 0.930 . S
H1120 C1133 0.929 . S
H1121 C1131 0.929 . S
H1122 C1126 0.929 . S
H1123 C1132 0.929 . S
C1124 H1118 0.930 . S
C1124 C1125 1.367 . S
C1124 C1132 1.378 . S
C1125 C1124 1.367 . S
C1125 C1133 1.433 . S
C1126 H1122 0.929 . S
C1126 C1128 1.378 . S
C1126 C1130 1.350 . S
C1127 C1130 1.463 . S
C1127 C1132 1.350 . S
C1127 N1135 1.427 . S
C1128 H1119 0.930 . S
C1128 C1126 1.378 . S
C1128 C1129 1.367 . S
C1129 C1128 1.367 . S
C1129 C1131 1.433 . S
C1130 C1126 1.350 . S
C1130 C1127 1.463 . S
C1130 N1134 1.427 . S
C1131 H1121 0.929 . S
C1131 C1129 1.433 . S
C1131 N1134 1.384 . S
C1132 H1123 0.929 . S
C1132 C1124 1.378 . S
C1132 C1127 1.350 . S
C1133 H1120 0.929 . S
C1133 C1125 1.433 . S
C1133 N1135 1.384 . S
N1134 C1130 1.427 . S
N1134 C1131 1.384 . S
N1135 C1127 1.427 . S
N1135 C1133 1.384 . S
H1136 C1142 0.930 . S
H1137 C1146 0.930 . S
H1138 C1151 0.929 . S
H1139 C1149 0.929 . S
H1140 C1144 0.929 . S
H1141 C1150 0.929 . S
C1142 H1136 0.930 . S
C1142 C1143 1.367 . S
C1142 C1150 1.378 . S
C1143 C1142 1.367 . S
C1143 C1151 1.433 . S
C1144 H1140 0.929 . S
C1144 C1146 1.378 . S
C1144 C1148 1.350 . S
C1145 C1148 1.463 . S
C1145 C1150 1.350 . S
C1145 N1153 1.427 . S
C1146 H1137 0.930 . S
C1146 C1144 1.378 . S
C1146 C1147 1.367 . S
C1147 C1146 1.367 . S
C1147 C1149 1.433 . S
C1148 C1144 1.350 . S
C1148 C1145 1.463 . S
C1148 N1152 1.427 . S
C1149 H1139 0.929 . S
C1149 C1147 1.433 . S
C1149 N1152 1.384 . S
C1150 H1141 0.929 . S
C1150 C1142 1.378 . S
C1150 C1145 1.350 . S
C1151 H1138 0.929 . S
C1151 C1143 1.433 . S
C1151 N1153 1.384 . S
N1152 C1148 1.427 . S
N1152 C1149 1.384 . S
N1153 C1145 1.427 . S
N1153 C1151 1.384 . S
H1154 C1160 0.930 . S
H1155 C1164 0.930 . S
H1156 C1169 0.929 . S
H1157 C1167 0.929 . S
H1158 C1162 0.929 . S
H1159 C1168 0.929 . S
C1160 H1154 0.930 . S
C1160 C1161 1.367 . S
C1160 C1168 1.378 . S
C1161 C1160 1.367 . S
C1161 C1169 1.433 . S
C1162 H1158 0.929 . S
C1162 C1164 1.378 . S
C1162 C1166 1.350 . S
C1163 C1166 1.463 . S
C1163 C1168 1.350 . S
C1163 N1171 1.427 . S
C1164 H1155 0.930 . S
C1164 C1162 1.378 . S
C1164 C1165 1.367 . S
C1165 C1164 1.367 . S
C1165 C1167 1.433 . S
C1166 C1162 1.350 . S
C1166 C1163 1.463 . S
C1166 N1170 1.427 . S
C1167 H1157 0.929 . S
C1167 C1165 1.433 . S
C1167 N1170 1.384 . S
C1168 H1159 0.929 . S
C1168 C1160 1.378 . S
C1168 C1163 1.350 . S
C1169 H1156 0.929 . S
C1169 C1161 1.433 . S
C1169 N1171 1.384 . S
N1170 C1166 1.427 . S
N1170 C1167 1.384 . S
N1171 C1163 1.427 . S
N1171 C1169 1.384 . S
H1172 C1178 0.930 . S
H1173 C1182 0.930 . S
H1174 C1187 0.929 . S
H1175 C1185 0.929 . S
H1176 C1180 0.929 . S
H1177 C1186 0.929 . S
C1178 H1172 0.930 . S
C1178 C1179 1.367 . S
C1178 C1186 1.378 . S
C1179 C1178 1.367 . S
C1179 C1187 1.433 . S
C1180 H1176 0.929 . S
C1180 C1182 1.378 . S
C1180 C1184 1.350 . S
C1181 C1184 1.463 . S
C1181 C1186 1.350 . S
C1181 N1189 1.427 . S
C1182 H1173 0.930 . S
C1182 C1180 1.378 . S
C1182 C1183 1.367 . S
C1183 C1182 1.367 . S
C1183 C1185 1.433 . S
C1184 C1180 1.350 . S
C1184 C1181 1.463 . S
C1184 N1188 1.427 . S
C1185 H1175 0.929 . S
C1185 C1183 1.433 . S
C1185 N1188 1.384 . S
C1186 H1177 0.929 . S
C1186 C1178 1.378 . S
C1186 C1181 1.350 . S
C1187 H1174 0.929 . S
C1187 C1179 1.433 . S
C1187 N1189 1.384 . S
N1188 C1184 1.427 . S
N1188 C1185 1.384 . S
N1189 C1181 1.427 . S
N1189 C1187 1.384 . S
H1190 C1196 0.930 . S
H1191 C1200 0.930 . S
H1192 C1205 0.929 . S
H1193 C1203 0.929 . S
H1194 C1198 0.929 . S
H1195 C1204 0.929 . S
C1196 H1190 0.930 . S
C1196 C1197 1.367 . S
C1196 C1204 1.378 . S
C1197 C1196 1.367 . S
C1197 C1205 1.433 . S
C1198 H1194 0.929 . S
C1198 C1200 1.378 . S
C1198 C1202 1.350 . S
C1199 C1202 1.463 . S
C1199 C1204 1.350 . S
C1199 N1207 1.427 . S
C1200 H1191 0.930 . S
C1200 C1198 1.378 . S
C1200 C1201 1.367 . S
C1201 C1200 1.367 . S
C1201 C1203 1.433 . S
C1202 C1198 1.350 . S
C1202 C1199 1.463 . S
C1202 N1206 1.427 . S
C1203 H1193 0.929 . S
C1203 C1201 1.433 . S
C1203 N1206 1.384 . S
C1204 H1195 0.929 . S
C1204 C1196 1.378 . S
C1204 C1199 1.350 . S
C1205 H1192 0.929 . S
C1205 C1197 1.433 . S
C1205 N1207 1.384 . S
N1206 C1202 1.427 . S
N1206 C1203 1.384 . S
N1207 C1199 1.427 . S
N1207 C1205 1.384 . S
H1208 C1214 0.930 . S
H1209 C1218 0.930 . S
H1210 C1223 0.929 . S
H1211 C1221 0.929 . S
H1212 C1216 0.929 . S
H1213 C1222 0.929 . S
C1214 H1208 0.930 . S
C1214 C1215 1.367 . S
C1214 C1222 1.378 . S
C1215 C1214 1.367 . S
C1215 C1223 1.433 . S
C1216 H1212 0.929 . S
C1216 C1218 1.378 . S
C1216 C1220 1.350 . S
C1217 C1220 1.463 . S
C1217 C1222 1.350 . S
C1217 N1225 1.427 . S
C1218 H1209 0.930 . S
C1218 C1216 1.378 . S
C1218 C1219 1.367 . S
C1219 C1218 1.367 . S
C1219 C1221 1.433 . S
C1220 C1216 1.350 . S
C1220 C1217 1.463 . S
C1220 N1224 1.427 . S
C1221 H1211 0.929 . S
C1221 C1219 1.433 . S
C1221 N1224 1.384 . S
C1222 H1213 0.929 . S
C1222 C1214 1.378 . S
C1222 C1217 1.350 . S
C1223 H1210 0.929 . S
C1223 C1215 1.433 . S
C1223 N1225 1.384 . S
N1224 C1220 1.427 . S
N1224 C1221 1.384 . S
N1225 C1217 1.427 . S
N1225 C1223 1.384 . S
H1226 C1232 0.930 . S
H1227 C1236 0.930 . S
H1228 C1241 0.929 . S
H1229 C1239 0.929 . S
H1230 C1234 0.929 . S
H1231 C1240 0.929 . S
C1232 H1226 0.930 . S
C1232 C1233 1.367 . S
C1232 C1240 1.378 . S
C1233 C1232 1.367 . S
C1233 C1241 1.433 . S
C1234 H1230 0.929 . S
C1234 C1236 1.378 . S
C1234 C1238 1.350 . S
C1235 C1238 1.463 . S
C1235 C1240 1.350 . S
C1235 N1243 1.427 . S
C1236 H1227 0.930 . S
C1236 C1234 1.378 . S
C1236 C1237 1.367 . S
C1237 C1236 1.367 . S
C1237 C1239 1.433 . S
C1238 C1234 1.350 . S
C1238 C1235 1.463 . S
C1238 N1242 1.427 . S
C1239 H1229 0.929 . S
C1239 C1237 1.433 . S
C1239 N1242 1.384 . S
C1240 H1231 0.929 . S
C1240 C1232 1.378 . S
C1240 C1235 1.350 . S
C1241 H1228 0.929 . S
C1241 C1233 1.433 . S
C1241 N1243 1.384 . S
N1242 C1238 1.427 . S
N1242 C1239 1.384 . S
N1243 C1235 1.427 . S
N1243 C1241 1.384 . S
H1244 C1250 0.930 . S
H1245 C1254 0.930 . S
H1246 C1259 0.929 . S
H1247 C1257 0.929 . S
H1248 C1252 0.929 . S
H1249 C1258 0.929 . S
C1250 H1244 0.930 . S
C1250 C1251 1.367 . S
C1250 C1258 1.378 . S
C1251 C1250 1.367 . S
C1251 C1259 1.433 . S
C1252 H1248 0.929 . S
C1252 C1254 1.378 . S
C1252 C1256 1.350 . S
C1253 C1256 1.463 . S
C1253 C1258 1.350 . S
C1253 N1261 1.427 . S
C1254 H1245 0.930 . S
C1254 C1252 1.378 . S
C1254 C1255 1.367 . S
C1255 C1254 1.367 . S
C1255 C1257 1.433 . S
C1256 C1252 1.350 . S
C1256 C1253 1.463 . S
C1256 N1260 1.427 . S
C1257 H1247 0.929 . S
C1257 C1255 1.433 . S
C1257 N1260 1.384 . S
C1258 H1249 0.929 . S
C1258 C1250 1.378 . S
C1258 C1253 1.350 . S
C1259 H1246 0.929 . S
C1259 C1251 1.433 . S
C1259 N1261 1.384 . S
N1260 C1256 1.427 . S
N1260 C1257 1.384 . S
N1261 C1253 1.427 . S
N1261 C1259 1.384 . S
H1262 C1268 0.930 . S
H1263 C1272 0.930 . S
H1264 C1277 0.929 . S
H1265 C1275 0.929 . S
H1266 C1270 0.929 . S
H1267 C1276 0.929 . S
C1268 H1262 0.930 . S
C1268 C1269 1.367 . S
C1268 C1276 1.378 . S
C1269 C1268 1.367 . S
C1269 C1277 1.433 . S
C1270 H1266 0.929 . S
C1270 C1272 1.378 . S
C1270 C1274 1.350 . S
C1271 C1274 1.463 . S
C1271 C1276 1.350 . S
C1271 N1279 1.427 . S
C1272 H1263 0.930 . S
C1272 C1270 1.378 . S
C1272 C1273 1.367 . S
C1273 C1272 1.367 . S
C1273 C1275 1.433 . S
C1274 C1270 1.350 . S
C1274 C1271 1.463 . S
C1274 N1278 1.427 . S
C1275 H1265 0.929 . S
C1275 C1273 1.433 . S
C1275 N1278 1.384 . S
C1276 H1267 0.929 . S
C1276 C1268 1.378 . S
C1276 C1271 1.350 . S
C1277 H1264 0.929 . S
C1277 C1269 1.433 . S
C1277 N1279 1.384 . S
N1278 C1274 1.427 . S
N1278 C1275 1.384 . S
N1279 C1271 1.427 . S
N1279 C1277 1.384 . S
H1280 C1286 0.930 . S
H1281 C1290 0.930 . S
H1282 C1295 0.929 . S
H1283 C1293 0.929 . S
H1284 C1288 0.929 . S
H1285 C1294 0.929 . S
C1286 H1280 0.930 . S
C1286 C1287 1.367 . S
C1286 C1294 1.378 . S
C1287 C1286 1.367 . S
C1287 C1295 1.433 . S
C1288 H1284 0.929 . S
C1288 C1290 1.378 . S
C1288 C1292 1.350 . S
C1289 C1292 1.463 . S
C1289 C1294 1.350 . S
C1289 N1297 1.427 . S
C1290 H1281 0.930 . S
C1290 C1288 1.378 . S
C1290 C1291 1.367 . S
C1291 C1290 1.367 . S
C1291 C1293 1.433 . S
C1292 C1288 1.350 . S
C1292 C1289 1.463 . S
C1292 N1296 1.427 . S
C1293 H1283 0.929 . S
C1293 C1291 1.433 . S
C1293 N1296 1.384 . S
C1294 H1285 0.929 . S
C1294 C1286 1.378 . S
C1294 C1289 1.350 . S
C1295 H1282 0.929 . S
C1295 C1287 1.433 . S
C1295 N1297 1.384 . S
N1296 C1292 1.427 . S
N1296 C1293 1.384 . S
N1297 C1289 1.427 . S
N1297 C1295 1.384 . S
H1298 C1304 0.930 . S
H1299 C1308 0.930 . S
H1300 C1313 0.929 . S
H1301 C1311 0.929 . S
H1302 C1306 0.929 . S
H1303 C1312 0.929 . S
C1304 H1298 0.930 . S
C1304 C1305 1.367 . S
C1304 C1312 1.378 . S
C1305 C1304 1.367 . S
C1305 C1313 1.433 . S
C1306 H1302 0.929 . S
C1306 C1308 1.378 . S
C1306 C1310 1.350 . S
C1307 C1310 1.463 . S
C1307 C1312 1.350 . S
C1307 N1315 1.427 . S
C1308 H1299 0.930 . S
C1308 C1306 1.378 . S
C1308 C1309 1.367 . S
C1309 C1308 1.367 . S
C1309 C1311 1.433 . S
C1310 C1306 1.350 . S
C1310 C1307 1.463 . S
C1310 N1314 1.427 . S
C1311 H1301 0.929 . S
C1311 C1309 1.433 . S
C1311 N1314 1.384 . S
C1312 H1303 0.929 . S
C1312 C1304 1.378 . S
C1312 C1307 1.350 . S
C1313 H1300 0.929 . S
C1313 C1305 1.433 . S
C1313 N1315 1.384 . S
N1314 C1310 1.427 . S
N1314 C1311 1.384 . S
N1315 C1307 1.427 . S
N1315 C1313 1.384 . S
H1316 C1322 0.930 . S
H1317 C1326 0.930 . S
H1318 C1331 0.929 . S
H1319 C1329 0.929 . S
H1320 C1324 0.929 . S
H1321 C1330 0.929 . S
C1322 H1316 0.930 . S
C1322 C1323 1.367 . S
C1322 C1330 1.378 . S
C1323 C1322 1.367 . S
C1323 C1331 1.433 . S
C1324 H1320 0.929 . S
C1324 C1326 1.378 . S
C1324 C1328 1.350 . S
C1325 C1328 1.463 . S
C1325 C1330 1.350 . S
C1325 N1333 1.427 . S
C1326 H1317 0.930 . S
C1326 C1324 1.378 . S
C1326 C1327 1.367 . S
C1327 C1326 1.367 . S
C1327 C1329 1.433 . S
C1328 C1324 1.350 . S
C1328 C1325 1.463 . S
C1328 N1332 1.427 . S
C1329 H1319 0.929 . S
C1329 C1327 1.433 . S
C1329 N1332 1.384 . S
C1330 H1321 0.929 . S
C1330 C1322 1.378 . S
C1330 C1325 1.350 . S
C1331 H1318 0.929 . S
C1331 C1323 1.433 . S
C1331 N1333 1.384 . S
N1332 C1328 1.427 . S
N1332 C1329 1.384 . S
N1333 C1325 1.427 . S
N1333 C1331 1.384 . S
H1334 C1340 0.930 . S
H1335 C1344 0.930 . S
H1336 C1349 0.929 . S
H1337 C1347 0.929 . S
H1338 C1342 0.929 . S
H1339 C1348 0.929 . S
C1340 H1334 0.930 . S
C1340 C1341 1.367 . S
C1340 C1348 1.378 . S
C1341 C1340 1.367 . S
C1341 C1349 1.433 . S
C1342 H1338 0.929 . S
C1342 C1344 1.378 . S
C1342 C1346 1.350 . S
C1343 C1346 1.463 . S
C1343 C1348 1.350 . S
C1343 N1351 1.427 . S
C1344 H1335 0.930 . S
C1344 C1342 1.378 . S
C1344 C1345 1.367 . S
C1345 C1344 1.367 . S
C1345 C1347 1.433 . S
C1346 C1342 1.350 . S
C1346 C1343 1.463 . S
C1346 N1350 1.427 . S
C1347 H1337 0.929 . S
C1347 C1345 1.433 . S
C1347 N1350 1.384 . S
C1348 H1339 0.929 . S
C1348 C1340 1.378 . S
C1348 C1343 1.350 . S
C1349 H1336 0.929 . S
C1349 C1341 1.433 . S
C1349 N1351 1.384 . S
N1350 C1346 1.427 . S
N1350 C1347 1.384 . S
N1351 C1343 1.427 . S
N1351 C1349 1.384 . S
H1352 C1358 0.930 . S
H1353 C1362 0.930 . S
H1354 C1367 0.929 . S
H1355 C1365 0.929 . S
H1356 C1360 0.929 . S
H1357 C1366 0.929 . S
C1358 H1352 0.930 . S
C1358 C1359 1.367 . S
C1358 C1366 1.378 . S
C1359 C1358 1.367 . S
C1359 C1367 1.433 . S
C1360 H1356 0.929 . S
C1360 C1362 1.378 . S
C1360 C1364 1.350 . S
C1361 C1364 1.463 . S
C1361 C1366 1.350 . S
C1361 N1369 1.427 . S
C1362 H1353 0.930 . S
C1362 C1360 1.378 . S
C1362 C1363 1.367 . S
C1363 C1362 1.367 . S
C1363 C1365 1.433 . S
C1364 C1360 1.350 . S
C1364 C1361 1.463 . S
C1364 N1368 1.427 . S
C1365 H1355 0.929 . S
C1365 C1363 1.433 . S
C1365 N1368 1.384 . S
C1366 H1357 0.929 . S
C1366 C1358 1.378 . S
C1366 C1361 1.350 . S
C1367 H1354 0.929 . S
C1367 C1359 1.433 . S
C1367 N1369 1.384 . S
N1368 C1364 1.427 . S
N1368 C1365 1.384 . S
N1369 C1361 1.427 . S
N1369 C1367 1.384 . S
H1370 C1376 0.930 . S
H1371 C1380 0.930 . S
H1372 C1385 0.929 . S
H1373 C1383 0.929 . S
H1374 C1378 0.929 . S
H1375 C1384 0.929 . S
C1376 H1370 0.930 . S
C1376 C1377 1.367 . S
C1376 C1384 1.378 . S
C1377 C1376 1.367 . S
C1377 C1385 1.433 . S
C1378 H1374 0.929 . S
C1378 C1380 1.378 . S
C1378 C1382 1.350 . S
C1379 C1382 1.463 . S
C1379 C1384 1.350 . S
C1379 N1387 1.427 . S
C1380 H1371 0.930 . S
C1380 C1378 1.378 . S
C1380 C1381 1.367 . S
C1381 C1380 1.367 . S
C1381 C1383 1.433 . S
C1382 C1378 1.350 . S
C1382 C1379 1.463 . S
C1382 N1386 1.427 . S
C1383 H1373 0.929 . S
C1383 C1381 1.433 . S
C1383 N1386 1.384 . S
C1384 H1375 0.929 . S
C1384 C1376 1.378 . S
C1384 C1379 1.350 . S
C1385 H1372 0.929 . S
C1385 C1377 1.433 . S
C1385 N1387 1.384 . S
N1386 C1382 1.427 . S
N1386 C1383 1.384 . S
N1387 C1379 1.427 . S
N1387 C1385 1.384 . S
H1388 C1394 0.930 . S
H1389 C1398 0.930 . S
H1390 C1403 0.929 . S
H1391 C1401 0.929 . S
H1392 C1396 0.929 . S
H1393 C1402 0.929 . S
C1394 H1388 0.930 . S
C1394 C1395 1.367 . S
C1394 C1402 1.378 . S
C1395 C1394 1.367 . S
C1395 C1403 1.433 . S
C1396 H1392 0.929 . S
C1396 C1398 1.378 . S
C1396 C1400 1.350 . S
C1397 C1400 1.463 . S
C1397 C1402 1.350 . S
C1397 N1405 1.427 . S
C1398 H1389 0.930 . S
C1398 C1396 1.378 . S
C1398 C1399 1.367 . S
C1399 C1398 1.367 . S
C1399 C1401 1.433 . S
C1400 C1396 1.350 . S
C1400 C1397 1.463 . S
C1400 N1404 1.427 . S
C1401 H1391 0.929 . S
C1401 C1399 1.433 . S
C1401 N1404 1.384 . S
C1402 H1393 0.929 . S
C1402 C1394 1.378 . S
C1402 C1397 1.350 . S
C1403 H1390 0.929 . S
C1403 C1395 1.433 . S
C1403 N1405 1.384 . S
N1404 C1400 1.427 . S
N1404 C1401 1.384 . S
N1405 C1397 1.427 . S
N1405 C1403 1.384 . S
H1406 C1412 0.930 . S
H1407 C1416 0.930 . S
H1408 C1421 0.929 . S
H1409 C1419 0.929 . S
H1410 C1414 0.929 . S
H1411 C1420 0.929 . S
C1412 H1406 0.930 . S
C1412 C1413 1.367 . S
C1412 C1420 1.378 . S
C1413 C1412 1.367 . S
C1413 C1421 1.433 . S
C1414 H1410 0.929 . S
C1414 C1416 1.378 . S
C1414 C1418 1.350 . S
C1415 C1418 1.463 . S
C1415 C1420 1.350 . S
C1415 N1423 1.427 . S
C1416 H1407 0.930 . S
C1416 C1414 1.378 . S
C1416 C1417 1.367 . S
C1417 C1416 1.367 . S
C1417 C1419 1.433 . S
C1418 C1414 1.350 . S
C1418 C1415 1.463 . S
C1418 N1422 1.427 . S
C1419 H1409 0.929 . S
C1419 C1417 1.433 . S
C1419 N1422 1.384 . S
C1420 H1411 0.929 . S
C1420 C1412 1.378 . S
C1420 C1415 1.350 . S
C1421 H1408 0.929 . S
C1421 C1413 1.433 . S
C1421 N1423 1.384 . S
N1422 C1418 1.427 . S
N1422 C1419 1.384 . S
N1423 C1415 1.427 . S
N1423 C1421 1.384 . S
H1424 C1430 0.930 . S
H1425 C1434 0.930 . S
H1426 C1439 0.929 . S
H1427 C1437 0.929 . S
H1428 C1432 0.929 . S
H1429 C1438 0.929 . S
C1430 H1424 0.930 . S
C1430 C1431 1.367 . S
C1430 C1438 1.378 . S
C1431 C1430 1.367 . S
C1431 C1439 1.433 . S
C1432 H1428 0.929 . S
C1432 C1434 1.378 . S
C1432 C1436 1.350 . S
C1433 C1436 1.463 . S
C1433 C1438 1.350 . S
C1433 N1441 1.427 . S
C1434 H1425 0.930 . S
C1434 C1432 1.378 . S
C1434 C1435 1.367 . S
C1435 C1434 1.367 . S
C1435 C1437 1.433 . S
C1436 C1432 1.350 . S
C1436 C1433 1.463 . S
C1436 N1440 1.427 . S
C1437 H1427 0.929 . S
C1437 C1435 1.433 . S
C1437 N1440 1.384 . S
C1438 H1429 0.929 . S
C1438 C1430 1.378 . S
C1438 C1433 1.350 . S
C1439 H1426 0.929 . S
C1439 C1431 1.433 . S
C1439 N1441 1.384 . S
N1440 C1436 1.427 . S
N1440 C1437 1.384 . S
N1441 C1433 1.427 . S
N1441 C1439 1.384 . S
H1442 C1448 0.930 . S
H1443 C1452 0.930 . S
H1444 C1457 0.929 . S
H1445 C1455 0.929 . S
H1446 C1450 0.929 . S
H1447 C1456 0.929 . S
C1448 H1442 0.930 . S
C1448 C1449 1.367 . S
C1448 C1456 1.378 . S
C1449 C1448 1.367 . S
C1449 C1457 1.433 . S
C1450 H1446 0.929 . S
C1450 C1452 1.378 . S
C1450 C1454 1.350 . S
C1451 C1454 1.463 . S
C1451 C1456 1.350 . S
C1451 N1459 1.427 . S
C1452 H1443 0.930 . S
C1452 C1450 1.378 . S
C1452 C1453 1.367 . S
C1453 C1452 1.367 . S
C1453 C1455 1.433 . S
C1454 C1450 1.350 . S
C1454 C1451 1.463 . S
C1454 N1458 1.427 . S
C1455 H1445 0.929 . S
C1455 C1453 1.433 . S
C1455 N1458 1.384 . S
C1456 H1447 0.929 . S
C1456 C1448 1.378 . S
C1456 C1451 1.350 . S
C1457 H1444 0.929 . S
C1457 C1449 1.433 . S
C1457 N1459 1.384 . S
N1458 C1454 1.427 . S
N1458 C1455 1.384 . S
N1459 C1451 1.427 . S
N1459 C1457 1.384 . S
C607 C283 1.340 . S
C603 N2 1.317 . S
C625 C326 2.622 . S
C621 C7 2.636 . S
C643 C372 1.737 . S
C639 N12 1.622 . S
C657 C16 1.859 . S
C661 C415 1.896 . S
C679 C455 2.723 . S
C675 C30 2.722 1_565 S
C697 C483 1.495 . S
C693 N35 1.455 . S
C711 C39 2.067 . S
C715 C526 2.033 . S
C733 C572 1.211 . S
C729 N25 1.140 1_565 S
C751 C278 1.213 . S
C747 N58 1.171 . S
C765 N81 1.969 . S
C769 C327 1.949 . S
C787 C366 1.423 . S
C783 N104 1.398 . S
C801 N127 1.217 . S
C805 C403 1.198 . S
C823 C443 0.907 . S
C819 N48 0.923 . S
C841 C478 1.528 . S
C837 N71 1.485 1_556 S
C855 N94 1.355 . S
C859 C527 1.310 . S
C877 C566 1.911 . S
C873 N117 1.919 . S
C891 C85 2.536 . S
C895 C295 2.453 . S
C909 C122 2.452 . S
C913 C438 2.415 . S
C927 C53 2.098 . S
C931 C495 2.027 . S
C949 C532 1.386 . S
C945 C76 1.435 1_655 S
C967 C567 1.861 . S
C963 C99 1.863 . S
C985 C367 1.979 . S
C981 C131 1.974 . S
C1003 C398 1.728 . S
C999 C62 1.757 1_565 S
C1017 C108 1.152 . S
C1021 C332 1.121 . S
C1039 C563 1.400 . S
C1035 N140 1.394 . S
C1053 C145 2.632 . S
C1057 C446 2.614 . S
C1075 C492 1.614 . S
C1071 N150 1.498 . S
C1089 C154 1.865 . S
C1093 C535 1.903 . S
C1111 C335 2.733 . S
C1107 C168 2.728 . S
C1125 N173 1.343 . S
C1129 C363 1.384 . S
C1147 C406 2.028 . S
C1143 C177 2.069 . S
C1165 C292 1.276 . S
C1161 N163 1.198 . S
C1183 C558 1.673 . S
C1179 C200 1.660 . S
C1201 C447 2.228 . S
C1197 N219 2.247 . S
C1215 N242 1.659 . S
C1219 C486 1.685 . S
C1237 C523 1.420 . S
C1233 C269 1.501 . S
C1255 C323 1.178 . S
C1251 C191 1.216 . S
C1269 N209 1.739 . S
C1273 C358 1.786 . S
C1287 N232 1.654 . S
C1291 C407 1.607 . S
C1305 C260 2.474 . S
C1309 C286 2.423 . S
C1323 C223 2.235 . S
C1327 C575 2.165 . S
C1341 N255 1.998 . S
C1345 C318 1.994 . S
C1359 N186 1.596 . S
C1363 C375 1.566 . S
C1381 C412 1.117 . S
C1377 C214 1.146 . S
C1399 C287 1.542 . S
C1395 C237 1.540 . S
C1417 C487 1.565 . S
C1413 N265 1.493 . S
C1435 C518 1.354 . S
C1431 N196 1.365 . S
C1453 C452 0.859 . S
C1449 C246 0.870 . S
