# Generated by pormake.
# Topology ocu, (6,8)-cn, num edge types: 1
# Building blocks:
#     Node 0, Type 0, BuildingBlock: KUMJIN_clean_sbu_1, # of connection points: 6
#     Node 1, Type 0, BuildingBlock: KUMJIN_clean_sbu_1, # of connection points: 6
#     Node 2, Type 0, BuildingBlock: KUMJIN_clean_sbu_1, # of connection points: 6
#     Node 3, Type 0, BuildingBlock: KUMJIN_clean_sbu_1, # of connection points: 6
#     Node 4, Type 0, BuildingBlock: KUMJIN_clean_sbu_1, # of connection points: 6
#     Node 5, Type 0, BuildingBlock: KUMJIN_clean_sbu_1, # of connection points: 6
#     Node 6, Type 0, BuildingBlock: KUMJIN_clean_sbu_1, # of connection points: 6
#     Node 7, Type 0, BuildingBlock: KUMJIN_clean_sbu_1, # of connection points: 6
#     Node 8, Type 1, BuildingBlock: VETTIZ_charged_sbu_0, # of connection points: 8
#     Node 9, Type 1, BuildingBlock: VETTIZ_charged_sbu_0, # of connection points: 8
#     Node 10, Type 1, BuildingBlock: VETTIZ_charged_sbu_0, # of connection points: 8
#     Node 11, Type 1, BuildingBlock: VETTIZ_charged_sbu_0, # of connection points: 8
#     Node 12, Type 1, BuildingBlock: VETTIZ_charged_sbu_0, # of connection points: 8
#     Node 13, Type 1, BuildingBlock: VETTIZ_charged_sbu_0, # of connection points: 8
#     Edge 14, Type (0, 1), BuildingBlock: EZIPEK_clean_linker_0, # of connection points: 2
#     Edge 15, Type (0, 1), BuildingBlock: EZIPEK_clean_linker_0, # of connection points: 2
#     Edge 16, Type (0, 1), BuildingBlock: EZIPEK_clean_linker_0, # of connection points: 2
#     Edge 17, Type (0, 1), BuildingBlock: EZIPEK_clean_linker_0, # of connection points: 2
#     Edge 18, Type (0, 1), BuildingBlock: EZIPEK_clean_linker_0, # of connection points: 2
#     Edge 19, Type (0, 1), BuildingBlock: EZIPEK_clean_linker_0, # of connection points: 2
#     Edge 20, Type (0, 1), BuildingBlock: EZIPEK_clean_linker_0, # of connection points: 2
#     Edge 21, Type (0, 1), BuildingBlock: EZIPEK_clean_linker_0, # of connection points: 2
#     Edge 22, Type (0, 1), BuildingBlock: EZIPEK_clean_linker_0, # of connection points: 2
#     Edge 23, Type (0, 1), BuildingBlock: EZIPEK_clean_linker_0, # of connection points: 2
#     Edge 24, Type (0, 1), BuildingBlock: EZIPEK_clean_linker_0, # of connection points: 2
#     Edge 25, Type (0, 1), BuildingBlock: EZIPEK_clean_linker_0, # of connection points: 2
#     Edge 26, Type (0, 1), BuildingBlock: EZIPEK_clean_linker_0, # of connection points: 2
#     Edge 27, Type (0, 1), BuildingBlock: EZIPEK_clean_linker_0, # of connection points: 2
#     Edge 28, Type (0, 1), BuildingBlock: EZIPEK_clean_linker_0, # of connection points: 2
#     Edge 29, Type (0, 1), BuildingBlock: EZIPEK_clean_linker_0, # of connection points: 2
#     Edge 30, Type (0, 1), BuildingBlock: EZIPEK_clean_linker_0, # of connection points: 2
#     Edge 31, Type (0, 1), BuildingBlock: EZIPEK_clean_linker_0, # of connection points: 2
#     Edge 32, Type (0, 1), BuildingBlock: EZIPEK_clean_linker_0, # of connection points: 2
#     Edge 33, Type (0, 1), BuildingBlock: EZIPEK_clean_linker_0, # of connection points: 2
#     Edge 34, Type (0, 1), BuildingBlock: EZIPEK_clean_linker_0, # of connection points: 2
#     Edge 35, Type (0, 1), BuildingBlock: EZIPEK_clean_linker_0, # of connection points: 2
#     Edge 36, Type (0, 1), BuildingBlock: EZIPEK_clean_linker_0, # of connection points: 2
#     Edge 37, Type (0, 1), BuildingBlock: EZIPEK_clean_linker_0, # of connection points: 2
#     Edge 38, Type (0, 1), BuildingBlock: EZIPEK_clean_linker_0, # of connection points: 2
#     Edge 39, Type (0, 1), BuildingBlock: EZIPEK_clean_linker_0, # of connection points: 2
#     Edge 40, Type (0, 1), BuildingBlock: EZIPEK_clean_linker_0, # of connection points: 2
#     Edge 41, Type (0, 1), BuildingBlock: EZIPEK_clean_linker_0, # of connection points: 2
#     Edge 42, Type (0, 1), BuildingBlock: EZIPEK_clean_linker_0, # of connection points: 2
#     Edge 43, Type (0, 1), BuildingBlock: EZIPEK_clean_linker_0, # of connection points: 2
#     Edge 44, Type (0, 1), BuildingBlock: EZIPEK_clean_linker_0, # of connection points: 2
#     Edge 45, Type (0, 1), BuildingBlock: EZIPEK_clean_linker_0, # of connection points: 2
#     Edge 46, Type (0, 1), BuildingBlock: EZIPEK_clean_linker_0, # of connection points: 2
#     Edge 47, Type (0, 1), BuildingBlock: EZIPEK_clean_linker_0, # of connection points: 2
#     Edge 48, Type (0, 1), BuildingBlock: EZIPEK_clean_linker_0, # of connection points: 2
#     Edge 49, Type (0, 1), BuildingBlock: EZIPEK_clean_linker_0, # of connection points: 2
#     Edge 50, Type (0, 1), BuildingBlock: EZIPEK_clean_linker_0, # of connection points: 2
#     Edge 51, Type (0, 1), BuildingBlock: EZIPEK_clean_linker_0, # of connection points: 2
#     Edge 52, Type (0, 1), BuildingBlock: EZIPEK_clean_linker_0, # of connection points: 2
#     Edge 53, Type (0, 1), BuildingBlock: EZIPEK_clean_linker_0, # of connection points: 2
#     Edge 54, Type (0, 1), BuildingBlock: EZIPEK_clean_linker_0, # of connection points: 2
#     Edge 55, Type (0, 1), BuildingBlock: EZIPEK_clean_linker_0, # of connection points: 2
#     Edge 56, Type (0, 1), BuildingBlock: EZIPEK_clean_linker_0, # of connection points: 2
#     Edge 57, Type (0, 1), BuildingBlock: EZIPEK_clean_linker_0, # of connection points: 2
#     Edge 58, Type (0, 1), BuildingBlock: EZIPEK_clean_linker_0, # of connection points: 2
#     Edge 59, Type (0, 1), BuildingBlock: EZIPEK_clean_linker_0, # of connection points: 2
#     Edge 60, Type (0, 1), BuildingBlock: EZIPEK_clean_linker_0, # of connection points: 2
#     Edge 61, Type (0, 1), BuildingBlock: EZIPEK_clean_linker_0, # of connection points: 2
# Relax obj value: 0.100
# Max RMSD: 0.134
# Mean RMSD: 0.107
data_MOF--net-ocu--node1-KUMJIN_clean_sbu_1--node2-VETTIZ_charged_sbu_0--edge1-EZIPEK_clean_linker_0
_symmetry_space_group_name_H-M    P1
_symmetry_Int_Tables_number       1
_symmetry_cell_setting            triclinic
loop_
_symmetry_equiv_pos_as_xyz
'x, y, z'
_cell_length_a     30.217
_cell_length_b     30.848677
_cell_length_c     31.910058
_cell_angle_alpha  102.14922
_cell_angle_beta   77.944662
_cell_angle_gamma 107.66168
loop_
_atom_site_label
_atom_site_type_symbol
_atom_site_fract_x
_atom_site_fract_y
_atom_site_fract_z
_atom_type_partial_charge
Eu0 Eu 0.23303 0.24646 0.23587 0.0
C1 C 0.36056 0.3886 0.36396 0.0
N2 N 0.37269 0.36085 0.32686 0.0
C3 C 0.43846 0.4227 0.305 0.0
C4 C 0.386 0.43532 0.37199 0.0
C5 C 0.41271 0.37648 0.2988 0.0
C6 C 0.42457 0.45247 0.34136 0.0
C7 C 0.31244 0.39701 0.43496 0.0
C8 C 0.32399 0.36982 0.39516 0.0
C9 C 0.33654 0.44395 0.44224 0.0
C10 C 0.37308 0.46307 0.41079 0.0
Eu11 Eu 0.32358 0.28452 0.3191 0.0
N12 N 0.30022 0.32463 0.38696 0.0
C13 C 0.2776 0.37594 0.4666 0.0
C14 C 0.26906 0.303 0.41871 0.0
C15 C 0.25644 0.32853 0.45871 0.0
H16 H 0.4253 0.35343 0.27165 0.0
H17 H 0.23062 0.31165 0.48343 0.0
H18 H 0.1466 0.15987 0.28157 0.0
H19 H 0.3254 0.24608 0.07061 0.0
H20 H 0.25349 0.26625 0.41251 0.0
H21 H 0.26778 0.39569 0.49764 0.0
H22 H 0.30176 0.28044 0.14634 0.0
H23 H 0.46936 0.43518 0.28205 0.0
H24 H 0.32779 0.46558 0.47243 0.0
H25 H 0.39197 0.49914 0.4173 0.0
H26 H 0.11353 0.0769 0.26274 0.0
H27 H 0.4449 0.4882 0.3463 0.0
H28 H 0.29385 0.16231 0.04672 0.0
N29 N 0.19612 0.16631 0.223 0.0
C30 C 0.20881 0.14501 0.18214 0.0
C31 C 0.14082 0.09548 0.24004 0.0
C32 C 0.18872 0.09752 0.16936 0.0
C33 C 0.16084 0.1427 0.25105 0.0
C34 C 0.1552 0.07267 0.19924 0.0
N35 N 0.26066 0.21643 0.16505 0.0
C36 C 0.28938 0.24372 0.13625 0.0
C37 C 0.2534 0.14984 0.10946 0.0
C38 C 0.24117 0.1708 0.15229 0.0
C39 C 0.28442 0.17723 0.08003 0.0
C40 C 0.30227 0.22445 0.0934 0.0
H41 H 0.13914 0.03614 0.19067 0.0
H42 H 0.18688 0.03997 0.11677 0.0
H43 H 0.2431 0.08581 0.06433 0.0
O44 O 0.21639 0.28631 0.19499 0.0
O45 O 0.29653 0.21388 0.21481 0.0
O46 O 0.35479 0.24365 0.2582 0.0
O47 O 0.16146 0.22961 0.22175 0.0
O48 O 0.28702 0.31594 0.23277 0.0
O49 O 0.35188 0.30709 0.25277 0.0
O50 O 0.32757 0.2347 0.35664 0.0
O51 O 0.26022 0.3174 0.34069 0.0
O52 O 0.21309 0.30217 0.28794 0.0
O53 O 0.38756 0.293 0.34473 0.0
O54 O 0.27006 0.21486 0.31656 0.0
O55 O 0.20399 0.22587 0.30353 0.0
C56 C 0.33821 0.21604 0.22413 0.0
C57 C 0.13833 0.2712 0.17703 0.0
C58 C 0.11532 0.3205 0.14017 0.0
C59 C 0.07568 0.28441 0.13099 0.0
C60 C 0.09685 0.23653 0.1699 0.0
C61 C 0.06577 0.24312 0.14673 0.0
C62 C 0.1473 0.31359 0.16256 0.0
C63 C 0.33269 0.32588 0.23061 0.0
C64 C 0.17255 0.26228 0.19829 0.0
C65 C 0.20187 0.07642 0.12698 0.0
C66 C 0.23386 0.10252 0.09708 0.0
C67 C 0.22473 0.3232 0.32584 0.0
C68 C 0.40207 0.22212 0.34411 0.0
C69 C 0.43204 0.16342 0.35914 0.0
C70 C 0.4604 0.16295 0.31822 0.0
C71 C 0.43156 0.22241 0.30374 0.0
C72 C 0.40105 0.19129 0.37093 0.0
C73 C 0.45981 0.19216 0.29051 0.0
C74 C 0.22467 0.20869 0.32589 0.0
C75 C 0.37206 0.2535 0.35862 0.0
H76 H 0.05284 0.28822 0.11105 0.0
H77 H 0.08913 0.20383 0.1811 0.0
H78 H 1.03445 0.21588 0.1402 0.0
H79 H 0.17896 0.34085 0.16822 0.0
H80 H 0.48418 0.14121 0.30845 0.0
H81 H 0.43308 0.24621 0.28271 0.0
H82 H 0.3784 0.19101 0.40217 0.0
H83 H 0.48232 0.19236 0.25933 0.0
Eu84 Eu 0.7505 0.32083 0.28898 0.0
C85 C 0.88324 0.21869 0.16135 0.0
N86 N 0.84607 0.19631 0.18792 0.0
C87 C 0.82538 0.13544 0.12893 0.0
C88 C 0.89128 0.20183 0.11668 0.0
C89 C 0.81853 0.15403 0.17293 0.0
C90 C 0.86137 0.1599 0.10048 0.0
C91 C 0.95251 0.2831 0.15292 0.0
C92 C 0.91404 0.25804 0.17918 0.0
C93 C 0.95844 0.26871 0.10778 0.0
C94 C 0.92849 0.22762 0.08979 0.0
Eu95 Eu 0.83315 0.23496 0.25985 0.0
N96 N 0.90621 0.27192 0.22254 0.0
C97 C 0.98354 0.32181 0.17304 0.0
C98 C 0.93958 0.30539 0.24291 0.0
C99 C 0.97822 0.33181 0.21836 0.0
H100 H 0.79079 0.13487 0.19483 0.0
H101 H 1.00311 0.36035 0.23434 0.0
H102 H 0.78542 0.38966 0.37864 0.0
H103 H 0.57138 0.22213 0.26127 0.0
H104 H 0.9344 0.31346 0.2779 0.0
H105 H 1.01234 0.34331 0.15394 0.0
H106 H 0.65367 0.26271 0.2394 0.0
H107 H 0.80272 0.10247 0.11699 0.0
H108 H 0.98648 0.28856 0.08655 0.0
H109 H 0.9344 0.21612 0.05511 0.0
H110 H 0.75543 0.40239 0.45692 0.0
H111 H 0.86629 0.14576 0.0663 0.0
H112 H 0.53837 0.22433 0.33942 0.0
N113 N 0.72407 0.33705 0.36338 0.0
C114 C 0.67871 0.31535 0.37744 0.0
C115 C 0.73371 0.37735 0.43505 0.0
C116 C 0.65997 0.32181 0.42185 0.0
C117 C 0.75081 0.36964 0.39076 0.0
C118 C 0.68838 0.35264 0.45083 0.0
N119 N 0.66935 0.28319 0.30422 0.0
C120 C 0.6408 0.26201 0.27347 0.0
C121 C 0.60328 0.26573 0.36093 0.0
C122 C 0.65081 0.28737 0.34714 0.0
C123 C 0.57493 0.24107 0.32968 0.0
C124 C 0.59351 0.23977 0.28573 0.0
H125 H 0.67518 0.35861 0.48521 0.0
H126 H 0.59839 0.3022 0.46983 0.0
H127 H 0.54903 0.25326 0.41646 0.0
O128 O 0.70308 0.35876 0.2826 0.0
O129 O 0.74808 0.2746 0.33725 0.0
O130 O 0.75969 0.20815 0.29458 0.0
O131 O 0.77603 0.39577 0.28756 0.0
O132 O 0.73264 0.26434 0.23084 0.0
O133 O 0.76487 0.20472 0.23039 0.0
O134 O 0.87739 0.2297 0.30306 0.0
O135 O 0.85244 0.30477 0.23825 0.0
O136 O 0.78825 0.31386 0.21993 0.0
O137 O 0.84566 0.16888 0.26069 0.0
O138 O 0.8383 0.28369 0.32429 0.0
O139 O 0.82268 0.34891 0.31335 0.0
C140 C 0.74057 0.22967 0.33025 0.0
C141 C 0.72793 0.43512 0.266 0.0
C142 C 0.69097 0.46198 0.21904 0.0
C143 C 0.70308 0.50646 0.24291 0.0
C144 C 0.74042 0.48004 0.28878 0.0
C145 C 0.72729 0.51522 0.27774 0.0
C146 C 0.70317 0.42599 0.23074 0.0
C147 C 0.73566 0.22158 0.21704 0.0
C148 C 0.73447 0.39829 0.28482 0.0
C149 C 0.61334 0.29822 0.43575 0.0
C150 C 0.58515 0.27028 0.40536 0.0
C151 C 0.83219 0.3134 0.20973 0.0
C152 C 0.85639 0.1608 0.32975 0.0
C153 C 0.88038 0.14365 0.39073 0.0
C154 C 0.83368 0.12013 0.40474 0.0
C155 C 0.80965 0.137 0.34352 0.0
C156 C 0.89145 0.1644 0.35367 0.0
C157 C 0.79839 0.11694 0.38116 0.0
C158 C 0.84381 0.32847 0.33284 0.0
C159 C 0.86953 0.18539 0.2927 0.0
H160 H 0.69353 0.53441 0.23464 0.0
H161 H 0.75847 0.48749 0.31655 0.0
H162 H 0.7349 0.54916 0.2969 0.0
H163 H 0.69272 0.39132 0.21317 0.0
H164 H 0.82483 0.10364 0.43334 0.0
H165 H 0.7819 0.13477 0.32582 0.0
H166 H 0.92762 0.18263 0.34305 0.0
H167 H 0.76234 0.09891 0.39201 0.0
Eu168 Eu 0.77032 0.71979 0.32567 0.0
C169 C 0.89321 0.83615 0.17933 0.0
N170 N 0.8802 0.8448 0.22321 0.0
C171 C 0.95896 0.88901 0.23177 0.0
C172 C 0.94024 0.85327 0.16024 0.0
C173 C 0.91198 0.87167 0.24935 0.0
C174 C 0.97322 0.87965 0.1871 0.0
C175 C 0.87214 0.80105 0.10775 0.0
C176 C 0.85941 0.80993 0.15317 0.0
C177 C 0.91905 0.81798 0.08892 0.0
C178 C 0.95294 0.84391 0.11504 0.0
Eu179 Eu 0.79925 0.81592 0.24705 0.0
N180 N 0.81428 0.79293 0.17206 0.0
C181 C 0.83721 0.77567 0.0825 0.0
C182 C 0.77976 0.76943 0.1477 0.0
C183 C 0.79078 0.76006 0.10255 0.0
H184 H 0.90161 0.88096 0.28363 0.0
H185 H 0.7635 0.74092 0.08324 0.0
H186 H 0.67804 0.63821 0.28404 0.0
H187 H 0.78893 0.79266 0.49351 0.0
H188 H 0.74373 0.7581 0.16307 0.0
H189 H 0.84564 0.76825 0.04749 0.0
H190 H 0.81627 0.77525 0.41471 0.0
H191 H 0.98405 0.91011 0.25266 0.0
H192 H 0.92948 0.81137 0.05408 0.0
H193 H 0.98894 0.85684 0.0999 0.0
H194 H 0.59443 0.60491 0.30837 0.0
H195 H 1.00966 0.89345 0.17361 0.0
H196 H 0.70458 0.76447 0.52278 0.0
N197 N 0.68978 0.68301 0.34392 0.0
C198 C 0.672 0.69311 0.38664 0.0
C199 C 0.61561 0.63027 0.33049 0.0
C200 C 0.62444 0.6731 0.40236 0.0
C201 C 0.66304 0.65033 0.31644 0.0
C202 C 0.59602 0.6422 0.37345 0.0
N203 N 0.74786 0.7407 0.3999 0.0
C204 C 0.77936 0.76414 0.42726 0.0
C205 C 0.68474 0.73077 0.46002 0.0
C206 C 0.70187 0.72203 0.41537 0.0
C207 C 0.71638 0.75724 0.48821 0.0
C208 C 0.76403 0.77337 0.47183 0.0
H209 H 0.55933 0.6261 0.38433 0.0
H210 H 0.57049 0.66846 0.4591 0.0
H211 H 0.62317 0.71864 0.50947 0.0
O212 O 0.82018 0.70172 0.35495 0.0
O213 O 0.72566 0.77318 0.34864 0.0
O214 O 0.75148 0.83413 0.30926 0.0
O215 O 0.75675 0.65011 0.33815 0.0
O216 O 0.83641 0.7773 0.32103 0.0
O217 O 0.82402 0.84307 0.31217 0.0
O218 O 0.75261 0.83901 0.21749 0.0
O219 O 0.84221 0.76143 0.2225 0.0
O220 O 0.81622 0.7001 0.26145 0.0
O221 O 0.81646 0.88794 0.23887 0.0
O222 O 0.73213 0.75753 0.24689 0.0
O223 O 0.74721 0.69422 0.26154 0.0
C224 C 0.72358 0.81326 0.34097 0.0
C225 C 0.82527 0.62617 0.3279 0.0
C226 C 0.88048 0.58436 0.33025 0.0
C227 C 0.87726 0.56336 0.28712 0.0
C228 C 0.82307 0.60599 0.28426 0.0
C229 C 0.84875 0.57444 0.26413 0.0
C230 C 0.85452 0.61575 0.35054 0.0
C231 C 0.83861 0.82065 0.33463 0.0
C232 C 0.79745 0.65808 0.35022 0.0
C233 C 0.607 0.68338 0.44657 0.0
C234 C 0.63703 0.71198 0.4753 0.0
C235 C 0.84365 0.72074 0.22911 0.0
C236 C 0.76861 0.91874 0.20654 0.0
C237 C 0.72162 0.94604 0.16969 0.0
C238 C 0.75 0.99115 0.17902 0.0
C239 C 0.79663 0.96418 0.21546 0.0
C240 C 0.73072 0.90979 0.18376 0.0
C241 C 0.78722 1.00011 0.20184 0.0
C242 C 0.72784 0.71308 0.24009 0.0
C243 C 0.77935 0.88122 0.22104 0.0
H244 H 0.89715 0.53891 0.27128 0.0
H245 H 0.80079 0.61375 0.26599 0.0
H246 H 0.84645 0.55854 0.23074 0.0
H247 H 0.85703 0.63186 0.38396 0.0
H248 H 0.74359 1.01941 0.16822 0.0
H249 H 0.82588 0.97203 0.23301 0.0
H250 H 0.70886 0.87494 0.17638 0.0
H251 H 0.80901 0.03501 0.20881 0.0
Eu252 Eu 0.25156 0.79202 0.28288 0.0
C253 C 0.35187 0.69222 0.359 0.0
N254 N 0.3718 0.72285 0.33102 0.0
C255 C 0.43272 0.76069 0.37468 0.0
C256 C 0.36946 0.69673 0.39776 0.0
C257 C 0.41391 0.7545 0.33666 0.0
C258 C 0.40953 0.73261 0.40608 0.0
C259 C 0.29878 0.61817 0.37201 0.0
C260 C 0.31769 0.65329 0.34612 0.0
C261 C 0.31299 0.62438 0.41255 0.0
C262 C 0.34846 0.6636 0.42537 0.0
Eu263 Eu 0.33513 0.71201 0.26886 0.0
N264 N 0.30603 0.64798 0.30632 0.0
C265 C 0.26789 0.57712 0.35544 0.0
C266 C 0.27844 0.60697 0.28875 0.0
C267 C 0.25835 0.57119 0.31327 0.0
H268 H 0.43303 0.77548 0.312 0.0
H269 H 0.23531 0.53925 0.29978 0.0
H270 H 0.24647 0.82811 0.19224 0.0
H271 H 0.26183 0.89054 0.44483 0.0
H272 H 0.27046 0.60274 0.25643 0.0
H273 H 0.25246 0.54933 0.37433 0.0
H274 H 0.22998 0.82258 0.39267 0.0
H275 H 0.46514 0.787 0.37964 0.0
H276 H 0.29842 0.59811 0.43325 0.0
H277 H 0.36092 0.66687 0.45565 0.0
H278 H 0.26817 0.90123 0.16286 0.0
H279 H 0.4243 0.73724 0.43538 0.0
H280 H 0.29422 0.96706 0.42132 0.0
N281 N 0.26061 0.86074 0.25536 0.0
C282 C 0.27277 0.90112 0.2822 0.0
C283 C 0.26973 0.90175 0.19655 0.0
C284 C 0.28592 0.94372 0.2671 0.0
C285 C 0.25726 0.86043 0.21325 0.0
C286 C 0.28482 0.94363 0.22346 0.0
N287 N 0.25364 0.8578 0.33835 0.0
C288 C 0.24616 0.85516 0.38158 0.0
C289 C 0.2838 0.94032 0.35465 0.0
C290 C 0.27043 0.89949 0.32517 0.0
C291 C 0.28255 0.93678 0.39786 0.0
C292 C 0.26416 0.89373 0.41124 0.0
H293 H 0.29477 0.97558 0.21046 0.0
H294 H 0.30967 1.01792 0.28528 0.0
H295 H 0.30806 1.01477 0.36223 0.0
O296 O 0.18574 0.79644 0.27131 0.0
O297 O 0.31007 0.80768 0.22704 0.0
O298 O 0.36708 0.77223 0.22884 0.0
O299 O 0.19034 0.73123 0.28155 0.0
O300 O 0.30179 0.8074 0.33286 0.0
O301 O 0.3655 0.78768 0.29201 0.0
O302 O 0.34831 0.66862 0.20788 0.0
O303 O 0.25978 0.69008 0.3023 0.0
O304 O 0.23995 0.75394 0.3401 0.0
O305 O 0.40028 0.6904 0.25064 0.0
O306 O 0.26987 0.68378 0.23438 0.0
O307 O 0.26646 0.74932 0.21701 0.0
C308 C 0.35223 0.80188 0.21444 0.0
C309 C 0.11693 0.74822 0.30378 0.0
C310 C 0.06776 0.79043 0.35326 0.0
C311 C 0.04407 0.75191 0.37371 0.0
C312 C 0.09484 0.70941 0.32442 0.0
C313 C 0.05719 0.71092 0.35848 0.0
C314 C 0.09882 0.78609 0.31519 0.0
C315 C 0.34751 0.81352 0.32475 0.0
C316 C 0.16279 0.75399 0.27589 0.0
C317 C 0.29909 0.98476 0.29618 0.0
C318 C 0.29823 0.98301 0.33992 0.0
C319 C 0.2401 0.711 0.33811 0.0
C320 C 0.4239 0.70509 0.17846 0.0
C321 C 0.43671 0.72091 0.10457 0.0
C322 C 0.47159 0.76175 0.11587 0.0
C323 C 0.45936 0.74534 0.18922 0.0
C324 C 0.41092 0.69573 0.13768 0.0
C325 C 0.48212 0.7742 0.15821 0.0
C326 C 0.25676 0.70438 0.2088 0.0
C327 C 0.39256 0.67761 0.21077 0.0
H328 H 1.02004 0.75509 0.40382 0.0
H329 H 0.10781 0.67916 0.31561 0.0
H330 H 0.04106 0.68195 0.37561 0.0
H331 H 0.11551 0.81639 0.29959 0.0
H332 H 0.49163 0.78313 0.09176 0.0
H333 H 0.46798 0.75553 0.22179 0.0
H334 H 0.38008 0.66777 0.13209 0.0
H335 H 0.50869 0.80575 0.16673 0.0
Eu336 Eu 0.24169 0.82134 0.79325 0.0
C337 C 0.3672 0.67985 0.67961 0.0
N338 N 0.32257 0.67109 0.70135 0.0
C339 C 0.29927 0.60321 0.64964 0.0
C340 C 0.37921 0.65144 0.64076 0.0
C341 C 0.28902 0.63245 0.68788 0.0
C342 C 0.3444 0.61299 0.62564 0.0
C343 C 0.44816 0.72663 0.6755 0.0
C344 C 0.40127 0.71672 0.69686 0.0
C345 C 0.45992 0.69953 0.63589 0.0
C346 C 0.42556 0.66192 0.61864 0.0
Eu347 Eu 0.3084 0.72258 0.76541 0.0
N348 N 0.38865 0.74262 0.73483 0.0
C349 C 0.48186 0.76312 0.6949 0.0
C350 C 0.42192 0.77605 0.75544 0.0
C351 C 0.46869 0.78746 0.73539 0.0
H352 H 0.25413 0.62426 0.70656 0.0
H353 H 0.49436 0.81497 0.75133 0.0
H354 H 0.29247 0.90879 0.8651 0.0
H355 H 0.07326 0.69158 0.81201 0.0
H356 H 0.41227 0.79482 0.78683 0.0
H357 H 0.51823 0.77206 0.67943 0.0
H358 H 0.14826 0.72919 0.77368 0.0
H359 H 0.27219 0.57357 0.63849 0.0
H360 H 0.49565 0.7069 0.61872 0.0
H361 H 0.43533 0.6408 0.58845 0.0
H362 H 0.27417 0.94258 0.9417 0.0
H363 H 0.35216 0.59028 0.5959 0.0
H364 H 0.04748 0.72305 0.88822 0.0
N365 N 0.22786 0.85637 0.86563 0.0
C366 C 0.1846 0.8391 0.88799 0.0
C367 C 0.24888 0.9132 0.92715 0.0
C368 C 0.17269 0.85728 0.93185 0.0
C369 C 0.25944 0.89361 0.88395 0.0
C370 C 0.20545 0.89475 0.95133 0.0
N371 N 0.16599 0.78348 0.82557 0.0
C372 C 0.1373 0.74506 0.80566 0.0
C373 C 0.10954 0.7807 0.89125 0.0
C374 C 0.15288 0.80166 0.86752 0.0
C375 C 0.08024 0.741 0.87082 0.0
C376 C 0.09429 0.72321 0.82788 0.0
H377 H 0.19751 0.90975 0.98495 0.0
H378 H 0.11928 0.8505 0.98889 0.0
H379 H 0.06472 0.78314 0.95371 0.0
O380 O 0.18983 0.85043 0.77973 0.0
O381 O 0.23584 0.77724 0.84373 0.0
O382 O 0.23401 0.71109 0.79867 0.0
O383 O 0.25836 0.89488 0.79073 0.0
O384 O 0.22151 0.7699 0.73288 0.0
O385 O 0.24574 0.70408 0.72736 0.0
O386 O 0.33404 0.70962 0.81958 0.0
O387 O 0.3449 0.78451 0.73032 0.0
O388 O 0.28431 0.81334 0.7259 0.0
O389 O 0.2985 0.65255 0.77594 0.0
O390 O 0.32792 0.77919 0.82293 0.0
O391 O 0.31592 0.84521 0.81074 0.0
C392 C 0.22501 0.73237 0.83793 0.0
C393 C 0.22151 0.91351 0.74071 0.0
C394 C 0.19164 0.91755 0.67657 0.0
C395 C 0.22486 0.96028 0.6731 0.0
C396 C 0.25335 0.95699 0.73734 0.0
C397 C 0.25559 0.97974 0.70326 0.0
C398 C 0.191 0.89346 0.70962 0.0
C399 C 0.22107 0.72711 0.71513 0.0
C400 C 0.21881 0.89127 0.77827 0.0
C401 C 0.12895 0.83716 0.95507 0.0
C402 C 0.09769 0.79883 0.93494 0.0
C403 C 0.32732 0.80938 0.71292 0.0
C404 C 0.36019 0.64254 0.80392 0.0
C405 C 0.40766 0.61529 0.83959 0.0
C406 C 0.42639 0.59412 0.79929 0.0
C407 C 0.37929 0.62133 0.76364 0.0
C408 C 0.37536 0.64037 0.84174 0.0
C409 C 0.41258 0.59765 0.7614 0.0
C410 C 0.3359 0.82437 0.83077 0.0
C411 C 0.32313 0.66526 0.80735 0.0
H412 H 0.22608 0.97919 0.64765 0.0
H413 H 0.27665 0.97344 0.76113 0.0
H414 H 0.2808 1.01287 0.70061 0.0
H415 H 0.16527 0.8605 0.71215 0.0
H416 H 0.45125 0.57451 0.79733 0.0
H417 H 0.36796 0.62216 0.73398 0.0
H418 H 0.36064 0.6564 0.873 0.0
H419 H 0.42693 0.58119 0.73033 0.0
Eu420 Eu 0.27056 0.22464 0.80415 0.0
C421 C 0.41585 0.36145 0.69063 0.0
N422 N 0.38724 0.36958 0.72886 0.0
C423 C 0.45044 0.43022 0.75627 0.0
C424 C 0.46373 0.38621 0.68484 0.0
C425 C 0.40312 0.4054 0.76033 0.0
C426 C 0.4811 0.42001 0.71872 0.0
C427 C 0.42501 0.32361 0.61534 0.0
C428 C 0.39674 0.33043 0.65592 0.0
C429 C 0.47312 0.34669 0.61035 0.0
C430 C 0.4924 0.37783 0.64496 0.0
Eu431 Eu 0.30848 0.32446 0.73017 0.0
N432 N 0.35016 0.30776 0.66145 0.0
C433 C 0.40375 0.29472 0.58062 0.0
C434 C 0.32847 0.28314 0.62715 0.0
C435 C 0.35509 0.27512 0.58637 0.0
H436 H 0.37935 0.41587 0.78824 0.0
H437 H 0.33805 0.25437 0.55934 0.0
H438 H 0.1925 0.13621 0.75002 0.0
H439 H 0.25785 0.30056 0.97413 0.0
H440 H 0.2907 0.2699 0.63161 0.0
H441 H 0.42432 0.28867 0.5489 0.0
H442 H 0.29633 0.29028 0.89746 0.0
H443 H 0.46302 0.45786 0.78172 0.0
H444 H 0.49552 0.34157 0.5795 0.0
H445 H 0.52935 0.39629 0.64014 0.0
H446 H 0.1103 0.09183 0.76509 0.0
H447 H 0.51767 0.43978 0.71546 0.0
H448 H 0.17597 0.25465 0.99461 0.0
N449 N 0.19237 0.17812 0.8126 0.0
C450 C 0.16842 0.18428 0.85365 0.0
C451 C 0.12604 0.1181 0.7901 0.0
C452 C 0.12169 0.15779 0.86406 0.0
C453 C 0.17259 0.14429 0.78142 0.0
C454 C 0.10033 0.12515 0.83144 0.0
N455 N 0.23555 0.24246 0.87547 0.0
C456 C 0.26003 0.27182 0.9063 0.0
C457 C 0.16761 0.22127 0.92907 0.0
C458 C 0.19087 0.21636 0.88597 0.0
C459 C 0.19219 0.2517 0.96096 0.0
C460 C 0.23851 0.27731 0.94955 0.0
H461 H 0.06442 0.10432 0.83815 0.0
H462 H 0.06203 0.14395 0.91521 0.0
H463 H 0.1024 0.19895 0.97213 0.0
O464 O 0.31943 0.2141 0.84 0.0
O465 O 0.23155 0.28303 0.83109 0.0
O466 O 0.25478 0.34137 0.78896 0.0
O467 O 0.265 0.15563 0.81531 0.0
O468 O 0.3394 0.2788 0.80484 0.0
O469 O 0.32409 0.34429 0.79832 0.0
O470 O 0.26094 0.34129 0.69639 0.0
O471 O 0.34516 0.26457 0.70417 0.0
O472 O 0.32464 0.20792 0.74767 0.0
O473 O 0.32587 0.39127 0.71029 0.0
O474 O 0.24081 0.26915 0.72623 0.0
O475 O 0.2517 0.20247 0.73559 0.0
C476 C 0.22833 0.32258 0.8227 0.0
C477 C 0.29681 0.14911 0.87529 0.0
C478 C 0.33646 0.12266 0.91993 0.0
C479 C 0.29277 0.10474 0.94459 0.0
C480 C 0.2534 0.13127 0.90023 0.0
C481 C 0.25153 0.10934 0.9349 0.0
C482 C 0.33833 0.1456 0.88581 0.0
C483 C 0.34448 0.32272 0.8162 0.0
C484 C 0.30022 0.16987 0.83707 0.0
C485 C 0.09797 0.16393 0.90676 0.0
C486 C 0.12097 0.19524 0.9392 0.0
C487 C 0.3497 0.22617 0.71374 0.0
C488 C 0.2615 0.42007 0.71465 0.0
C489 C 0.204 0.45786 0.70881 0.0
C490 C 0.21931 0.49273 0.74277 0.0
C491 C 0.27673 0.45532 0.74874 0.0
C492 C 0.22455 0.42116 0.6952 0.0
C493 C 0.25565 0.49137 0.76264 0.0
C494 C 0.23814 0.22573 0.713 0.0
C495 C 0.28598 0.38405 0.69731 0.0
H496 H 0.29069 0.08743 0.97145 0.0
H497 H 0.22107 0.1339 0.89271 0.0
H498 H 0.21802 0.09554 0.9541 0.0
H499 H 0.37204 0.1598 0.8669 0.0
H500 H 0.2038 0.52138 0.75317 0.0
H501 H 0.3054 0.45551 0.76431 0.0
H502 H 0.21318 0.39478 0.66828 0.0
H503 H 0.2678 0.51851 0.78862 0.0
Eu504 Eu 0.72442 0.33292 0.79601 0.0
C505 C 0.79775 0.20562 0.86492 0.0
N506 N 0.82428 0.24071 0.84305 0.0
C507 C 0.8796 0.26258 0.89317 0.0
C508 C 0.80924 0.20044 0.90397 0.0
C509 C 0.86673 0.26654 0.8548 0.0
C510 C 0.84985 0.23053 0.91872 0.0
C511 C 0.73773 0.13234 0.86541 0.0
C512 C 0.76242 0.17158 0.84573 0.0
C513 C 0.74676 0.12919 0.90589 0.0
C514 C 0.78211 0.16337 0.92533 0.0
Eu515 Eu 0.79844 0.24335 0.77831 0.0
N516 N 0.75475 0.175 0.80619 0.0
C517 C 0.70597 0.09656 0.84306 0.0
C518 C 0.7259 0.13903 0.78314 0.0
C519 C 0.70054 0.09965 0.8015 0.0
H520 H 0.89068 0.29107 0.83532 0.0
H521 H 0.67684 0.07172 0.78361 0.0
H522 H 0.67778 0.3213 0.70723 0.0
H523 H 0.80564 0.4951 0.89592 0.0
H524 H 0.72179 0.141 0.75084 0.0
H525 H 0.68629 0.06598 0.85719 0.0
H526 H 0.76374 0.41297 0.88185 0.0
H527 H 0.91231 0.28452 0.90316 0.0
H528 H 0.72811 0.0994 0.9215 0.0
H529 H 0.78995 0.15941 0.95571 0.0
H530 H 0.68234 0.3664 0.65026 0.0
H531 H 0.85989 0.22761 0.94847 0.0
H532 H 0.82027 0.54411 0.84011 0.0
N533 N 0.72351 0.37608 0.74333 0.0
C534 C 0.74777 0.42111 0.74784 0.0
C535 C 0.7011 0.3822 0.67744 0.0
C536 C 0.75098 0.4484 0.71639 0.0
C537 C 0.69871 0.35673 0.70969 0.0
C538 C 0.72803 0.42807 0.68042 0.0
N539 N 0.75982 0.4134 0.81603 0.0
C540 C 0.7721 0.43303 0.85599 0.0
C541 C 0.78914 0.48808 0.79283 0.0
C542 C 0.76668 0.44042 0.78538 0.0
C543 C 0.80395 0.50753 0.83282 0.0
C544 C 0.79535 0.47992 0.86451 0.0
H545 H 0.72974 0.44781 0.65549 0.0
H546 H 0.77859 0.51681 0.69874 0.0
H547 H 0.81188 0.55174 0.76601 0.0
O548 O 0.66605 0.36313 0.82635 0.0
O549 O 0.77335 0.33168 0.73195 0.0
O550 O 0.83285 0.30703 0.74466 0.0
O551 O 0.65273 0.29076 0.80147 0.0
O552 O 0.77361 0.34267 0.84575 0.0
O553 O 0.83555 0.31575 0.80884 0.0
O554 O 0.84356 0.22943 0.71698 0.0
O555 O 0.72144 0.22892 0.80834 0.0
O556 O 0.72091 0.29529 0.85186 0.0
O557 O 0.83838 0.19364 0.77009 0.0
O558 O 0.7493 0.21824 0.72851 0.0
O559 O 0.70586 0.27159 0.7414 0.0
C560 C 0.8172 0.33035 0.72342 0.0
C561 C 0.6166 0.30919 0.87077 0.0
C562 C 0.62967 0.31725 0.94546 0.0
C563 C 0.59527 0.27495 0.94945 0.0
C564 C 0.58204 0.26754 0.87552 0.0
C565 C 0.57182 0.25033 0.91465 0.0
C566 C 0.64076 0.33269 0.90521 0.0
C567 C 0.81882 0.34515 0.83903 0.0
C568 C 0.63639 0.3223 0.82776 0.0
C569 C 0.77544 0.49531 0.72263 0.0
C570 C 0.79441 0.51517 0.76089 0.0
C571 C 0.70841 0.25018 0.84681 0.0
C572 C 0.91244 0.22975 0.7404 0.0
C573 C 0.9888 0.21974 0.73318 0.0
C574 C 1.00822 0.26726 0.74425 0.0
C575 C 0.93093 0.27763 0.75076 0.0
C576 C 0.94018 0.20125 0.73824 0.0
C577 C 0.97855 0.29626 0.75458 0.0
C578 C 0.71608 0.23313 0.72021 0.0
C579 C 0.86368 0.20815 0.7353 0.0
H580 H 0.58616 0.26115 0.97955 0.0
H581 H 0.56486 0.24729 0.84836 0.0
H582 H 0.54597 0.2176 0.91791 0.0
H583 H 0.66931 0.36298 0.89988 0.0
H584 H 0.04597 0.28192 0.74032 0.0
H585 H 0.90882 0.30027 0.7562 0.0
H586 H 0.92504 0.16425 0.73055 0.0
H587 H 0.99287 0.33317 0.76223 0.0
Eu588 Eu 0.74533 0.75722 0.73288 0.0
C589 C 0.87522 0.90228 0.84681 0.0
N590 N 0.8874 0.87036 0.81346 0.0
C591 C 0.95321 0.9287 0.78524 0.0
C592 C 0.90036 0.94923 0.84924 0.0
C593 C 0.928 0.88247 0.78485 0.0
C594 C 0.93868 0.96239 0.81697 0.0
C595 C 0.83031 0.91897 0.91798 0.0
C596 C 0.84033 0.88753 0.88081 0.0
C597 C 0.85324 0.96605 0.91919 0.0
C598 C 0.88802 0.98118 0.8848 0.0
Eu599 Eu 0.8374 0.79421 0.81397 0.0
N600 N 0.81805 0.84189 0.8787 0.0
C601 C 0.79902 0.90185 0.95355 0.0
C602 C 0.79182 0.82453 0.91477 0.0
C603 C 0.78066 0.85428 0.95239 0.0
H604 H 0.9411 0.85666 0.76136 0.0
H605 H 0.75847 0.84052 0.98051 0.0
H606 H 0.65377 0.67292 0.77447 0.0
H607 H 0.82081 0.76768 0.56467 0.0
H608 H 0.77956 0.78773 0.91418 0.0
H609 H 0.79072 0.92504 0.98269 0.0
H610 H 0.80583 0.7968 0.64326 0.0
H611 H 0.98422 0.93825 0.76144 0.0
H612 H 0.8455 0.99085 0.94724 0.0
H613 H 0.90659 1.01744 0.8869 0.0
H614 H 0.616 0.59116 0.75258 0.0
H615 H 0.95872 0.99813 0.81757 0.0
H616 H 0.78897 0.68489 0.5373 0.0
N617 N 0.70297 0.67936 0.71579 0.0
C618 C 0.71451 0.65931 0.67427 0.0
C619 C 0.6441 0.60971 0.73045 0.0
C620 C 0.69187 0.61294 0.65971 0.0
C621 C 0.66652 0.65607 0.74309 0.0
C622 C 0.65737 0.5878 0.68883 0.0
N623 N 0.76715 0.731 0.65964 0.0
C624 C 0.79211 0.76064 0.63143 0.0
C625 C 0.75474 0.66787 0.60083 0.0
C626 C 0.74646 0.68617 0.64517 0.0
C627 C 0.78236 0.69752 0.57172 0.0
C628 C 0.80044 0.74429 0.58701 0.0
H629 H 0.63934 0.55205 0.67891 0.0
H630 H 0.68593 0.55806 0.60451 0.0
H631 H 0.74024 0.60634 0.55286 0.0
O632 O 0.73565 0.81049 0.70334 0.0
O633 O 0.8016 0.71527 0.71429 0.0
O634 O 0.86297 0.74629 0.75486 0.0
O635 O 0.67926 0.74761 0.7106 0.0
O636 O 0.80236 0.82505 0.73295 0.0
O637 O 0.8666 0.81018 0.74542 0.0
O638 O 0.84207 0.74902 0.85637 0.0
O639 O 0.774 0.82765 0.83446 0.0
O640 O 0.7122 0.79257 0.79587 0.0
O641 O 0.90168 0.80586 0.8403 0.0
O642 O 0.78322 0.72461 0.81579 0.0
O643 O 0.71689 0.73264 0.79782 0.0
C644 C 0.84261 0.71548 0.72401 0.0
C645 C 0.6585 0.81573 0.71216 0.0
C646 C 0.62343 0.86859 0.69352 0.0
C647 C 0.59081 0.86473 0.73188 0.0
C648 C 0.62602 0.81206 0.75063 0.0
C649 C 0.59253 0.83693 0.76058 0.0
C650 C 0.65819 0.84523 0.68455 0.0
C651 C 0.84753 0.82929 0.72353 0.0
C652 C 0.69221 0.7883 0.69905 0.0
C653 C 0.70276 0.59372 0.61615 0.0
C654 C 0.73374 0.62121 0.58671 0.0
C655 C 0.73067 0.82302 0.82748 0.0
C656 C 0.91713 0.73859 0.8502 0.0
C657 C 0.94361 0.68168 0.87331 0.0
C658 C 0.97514 0.6796 0.83442 0.0
C659 C 0.95029 0.73751 0.81214 0.0
C660 C 0.91357 0.71029 0.88059 0.0
C661 C 0.97912 0.70805 0.80438 0.0
C662 C 0.73744 0.71448 0.81921 0.0
C663 C 0.88626 0.76912 0.85868 0.0
H664 H 0.56397 0.88303 0.73938 0.0
H665 H 0.62623 0.78976 0.77262 0.0
H666 H 0.56735 0.83401 0.79014 0.0
H667 H 0.68353 0.84835 0.65497 0.0
H668 H 0.99686 0.65605 0.82774 0.0
H669 H 0.9535 0.7589 0.78816 0.0
H670 H 0.88855 0.71144 0.91034 0.0
H671 H 1.00435 0.70702 0.77488 0.0
Fe672 Fe 0.04691 0.07245 0.5318 0.0
O673 O 0.99726 1.01716 0.50981 0.0
Fe674 Fe 0.14317 0.03248 0.52161 0.0
Fe675 Fe 0.92895 1.00926 0.53318 0.0
O676 O 0.07704 0.02695 0.53971 0.0
O677 O 0.07474 0.02277 0.5424 0.0
O678 O 0.99509 1.01253 0.51188 0.0
Fe679 Fe 1.02476 0.96707 0.52153 0.0
C680 C 0.97375 0.07448 0.60672 0.0
O681 O 1.00844 0.11353 0.51974 0.0
O682 O 0.94205 0.06054 0.49723 0.0
O683 O 0.05971 0.96872 0.45994 0.0
O684 O 0.13342 0.98281 0.47006 0.0
O685 O 0.15431 0.08157 0.4809 0.0
O686 O 0.08339 0.07957 0.47008 0.0
O687 O 0.92126 0.95606 0.48346 0.0
O688 O 0.96845 0.91455 0.49462 0.0
C689 C 0.12789 0.09107 0.45968 0.0
O690 O 0.06352 0.92688 0.53674 0.0
O691 O 0.13056 0.98076 0.55788 0.0
O692 O 1.01234 0.06549 0.59203 0.0
O693 O 0.93966 0.06059 0.58547 0.0
C694 C 0.97373 0.09984 0.49757 0.0
C695 C 0.93467 0.91878 0.47704 0.0
C696 C 0.9439 0.95038 0.59349 0.0
O697 O 0.91714 0.9593 0.57246 0.0
O698 O 0.98829 0.96412 0.5837 0.0
C699 C 0.10153 0.96662 0.44639 0.0
O700 O 0.14962 0.08523 0.57174 0.0
O701 O 0.10137 0.12514 0.55998 0.0
C702 C 0.0997 0.94087 0.55749 0.0
C703 C 0.1352 0.12176 0.57773 0.0
Fe704 Fe 0.52968 0.96517 1.01626 0.0
O705 O 0.57321 0.02371 0.99697 0.0
Fe706 Fe 0.42593 0.99928 0.05832 0.0
Fe707 Fe 0.64258 0.04141 0.99537 0.0
O708 O 0.49428 1.00919 0.05383 0.0
O709 O 0.49507 1.01514 0.05639 0.0
O710 O 0.57427 0.0296 1.0001 0.0
Fe711 Fe 0.53844 0.07353 0.03684 0.0
C712 C 0.60997 0.97471 0.06256 0.0
O713 O 0.57621 0.92831 0.97177 0.0
O714 O 0.63836 0.98537 0.94607 0.0
O715 O 0.50258 0.06618 0.98642 0.0
O716 O 0.4292 0.04791 1.02079 0.0
O717 O 0.41885 0.94827 1.00403 0.0
O718 O 0.49041 0.95285 0.96575 0.0
O719 O 0.64194 0.09055 0.96074 0.0
O720 O 0.5888 0.12698 1.00628 0.0
C721 C 0.44551 0.93945 0.96867 0.0
O722 O 0.4911 0.11064 0.07979 0.0
O723 O 0.43178 0.05369 0.1097 0.0
O724 O 0.56647 0.97124 0.06562 0.0
O725 O 0.64085 0.99521 0.03418 0.0
C726 C 0.61553 0.94214 0.94504 0.0
C727 C 0.62159 0.12368 0.97252 0.0
C728 C 0.62234 0.10193 0.08421 0.0
O729 O 0.6487 0.09402 0.0484 0.0
O730 O 0.57742 0.08699 0.0878 0.0
C731 C 0.46001 0.06671 0.99139 0.0
O732 O 0.42479 0.94816 0.09115 0.0
O733 O 0.47889 0.91161 0.04744 0.0
C734 C 0.45228 0.09685 0.1071 0.0
C735 C 0.4451 0.91494 0.08047 0.0
Fe736 Fe 0.04315 0.57664 0.03803 0.0
O737 O 0.99617 0.52032 0.05767 0.0
Fe738 Fe 0.14319 0.53738 0.99646 0.0
Fe739 Fe 0.9277 0.51086 0.05891 0.0
O740 O 0.07562 0.5298 1.00153 0.0
O741 O 0.07413 0.5239 0.99726 0.0
O742 O 0.99499 0.51382 0.05397 0.0
Fe743 Fe 1.02643 0.46652 1.01492 0.0
C744 C 0.96008 0.60656 0.10887 0.0
O745 O 1.00804 0.56982 0.9875 0.0
O746 O 0.93559 0.56214 1.02302 0.0
O747 O 0.06987 0.42586 0.96985 0.0
O748 O 0.13626 0.48101 0.94689 0.0
O749 O 0.14659 0.58748 0.96153 0.0
O750 O 0.09656 0.62772 1.00694 0.0
O751 O 0.91849 0.46358 1.00369 0.0
O752 O 0.98744 0.45797 0.96469 0.0
C753 C 0.1287 0.62234 0.97314 0.0
O754 O 0.06184 0.46705 0.06358 0.0
O755 O 0.13746 0.49063 0.03598 0.0
O756 O 0.999 0.61802 0.08089 0.0
O757 O 0.93627 0.56408 0.11128 0.0
C758 C 0.96752 0.57562 0.99204 0.0
C759 C 0.94256 0.44962 0.96865 0.0
C760 C 0.93813 0.42015 0.07694 0.0
O761 O 0.92133 0.45588 0.08894 0.0
O762 O 0.97185 0.41519 0.04443 0.0
C763 C 0.11066 0.43844 0.94445 0.0
O764 O 0.15195 0.5899 0.049 0.0
O765 O 0.08167 0.58787 0.08908 0.0
C766 C 0.10445 0.46684 0.06047 0.0
C767 C 0.12671 0.59964 0.08494 0.0
Fe768 Fe 0.54116 0.51668 0.97576 0.0
O769 O 0.57523 0.55543 1.02401 0.0
Fe770 Fe 0.42873 0.47939 0.02986 0.0
Fe771 Fe 0.64265 0.56659 1.02455 0.0
O772 O 0.49609 0.48886 1.02461 0.0
O773 O 0.49631 0.48772 0.02993 0.0
O774 O 0.57552 0.55408 0.02864 0.0
Fe775 Fe 0.53074 0.5279 0.07822 0.0
C776 C 0.61541 0.47049 0.97607 0.0
O777 O 0.59466 0.55197 0.93092 0.0
O778 O 0.64872 0.60002 0.97352 0.0
O779 O 0.49867 0.57738 0.08126 0.0
O780 O 0.42663 0.53608 0.07631 0.0
O781 O 0.43472 0.51946 0.98404 0.0
O782 O 0.50657 0.5653 0.97767 0.0
O783 O 0.63151 0.61893 0.07302 0.0
O784 O 0.57528 0.57595 0.12013 0.0
C785 C 0.46364 0.55645 0.9736 0.0
O786 O 0.4761 0.49312 0.12284 0.0
O787 O 0.42326 0.44316 0.07956 0.0
O788 O 0.57406 0.4676 0.97168 0.0
O789 O 0.64656 0.50899 0.98071 0.0
C790 C 0.6308 0.58719 0.93799 0.0
C791 C 0.61182 0.61064 0.11156 0.0
C792 C 0.60842 0.49364 0.08663 0.0
O793 O 0.63726 0.52925 0.07318 0.0
O794 O 0.5663 0.48019 0.07862 0.0
C795 C 0.45762 0.5747 0.07668 0.0
O796 O 0.43614 0.42916 0.97687 0.0
O797 O 0.49833 0.47075 0.93253 0.0
C798 C 0.44112 0.45666 0.11537 0.0
C799 C 0.46123 0.43643 0.93923 0.0
Fe800 Fe 0.03846 0.41685 0.52249 0.0
O801 O 0.05166 0.48473 0.52931 0.0
Fe802 Fe 0.04624 0.51036 0.47482 0.0
Fe803 Fe 1.02046 0.52445 0.57868 0.0
O804 O 0.05467 0.48434 0.52385 0.0
O805 O 1.01484 0.54987 0.52361 0.0
O806 O 1.00988 0.54914 0.5292 0.0
Fe807 Fe 1.02769 0.61666 0.52649 0.0
C808 C 0.95077 0.43145 0.58879 0.0
O809 O 0.07385 0.43779 0.57537 0.0
O810 O 0.04207 0.49441 0.62091 0.0
O811 O 0.08602 0.62125 0.47947 0.0
O812 O 0.1113 0.55924 0.47333 0.0
O813 O 0.0828 0.46364 0.43059 0.0
O814 O 0.09675 0.42149 0.47526 0.0
O815 O 0.0849 0.57379 0.58249 0.0
O816 O 0.06977 0.6375 0.57503 0.0
C817 C 0.1037 0.43506 0.43831 0.0
O818 O 0.99116 0.59446 0.47491 0.0
O819 O 1.02823 0.54134 0.43103 0.0
O820 O 0.97922 0.40932 0.5672 0.0
O821 O 0.95574 0.47327 0.58432 0.0
C822 C 0.06915 0.46661 0.61135 0.0
C823 C 0.09298 0.61746 0.58991 0.0
C824 C 0.96164 0.5992 0.61321 0.0
O825 O 0.98216 0.57058 0.62201 0.0
O826 O 0.97175 0.61412 0.57631 0.0
C827 C 0.1169 0.59944 0.4648 0.0
O828 O 0.9816 0.4639 0.47062 0.0
O829 O 0.99719 0.39866 0.47194 0.0
C830 C 0.99976 0.56746 0.43877 0.0
C831 C 0.97423 0.42084 0.4591 0.0
Fe832 Fe 0.52693 0.96616 0.51765 0.0
O833 O 0.50222 1.01682 0.55772 0.0
Fe834 Fe 0.57401 1.01271 0.42407 0.0
Fe835 Fe 0.49735 0.02749 0.62205 0.0
O836 O 0.5677 1.01806 0.48713 0.0
O837 O 0.56927 0.0241 0.48843 0.0
O838 O 0.50475 0.02243 0.55939 0.0
Fe839 Fe 0.54134 0.07376 0.52657 0.0
C840 C 0.44671 0.92664 0.59167 0.0
O841 O 0.57851 0.97613 0.5548 0.0
O842 O 0.53884 0.98588 0.62184 0.0
O843 O 0.58487 0.12011 0.4837 0.0
O844 O 0.62388 0.07488 0.43094 0.0
O845 O 0.61478 0.96941 0.42472 0.0
O846 O 0.56325 0.92094 0.47038 0.0
O847 O 0.55414 0.08449 0.62855 0.0
O848 O 0.59573 0.09524 0.56327 0.0
C849 C 0.6001 0.9305 0.43972 0.0
O850 O 0.48721 0.05637 0.49161 0.0
O851 O 0.52738 0.0511 0.4248 0.0
O852 O 0.47836 0.9196 0.55786 0.0
O853 O 0.44573 0.96699 0.61392 0.0
C854 C 0.57136 0.9728 0.59485 0.0
C855 C 0.59136 0.10357 0.60461 0.0
C856 C 0.46955 0.11009 0.60464 0.0
O857 O 0.45889 0.07344 0.62276 0.0
O858 O 0.50368 0.11822 0.57183 0.0
C859 C 0.61741 0.11426 0.45042 0.0
O860 O 0.5212 0.95226 0.41654 0.0
O861 O 0.4738 0.95209 0.4791 0.0
C862 C 0.49288 0.06069 0.45218 0.0
C863 C 0.48038 0.94017 0.43787 0.0
C864 C 0.16725 0.19333 0.39586 0.0
C865 C 0.19615 0.17694 0.35825 0.0
C866 C 0.17511 0.10191 0.38463 0.0
C867 C 0.14994 0.11993 0.42392 0.0
N868 N 0.12512 0.18432 0.46861 0.0
N869 N 0.22743 0.11491 0.31663 0.0
C870 C 0.14628 0.16583 0.42963 0.0
C871 C 0.19998 0.13098 0.3527 0.0
N872 N 0.16031 0.23581 0.39985 0.0
N873 N 0.17348 0.05621 0.377 0.0
H874 H 0.24156 0.13253 0.2903 0.0
H875 H 0.23753 0.08479 0.31309 0.0
H876 H 0.1562 0.03434 0.39963 0.0
H877 H 0.18604 0.03892 0.34739 0.0
H878 H 0.1344 0.2473 0.42242 0.0
H879 H 0.17946 0.25926 0.37928 0.0
H880 H 0.1263 0.21905 0.4774 0.0
H881 H 0.10892 0.16563 0.49391 0.0
C882 C 0.94208 0.10776 0.39593 0.0
C883 C 0.91855 0.14269 0.41238 0.0
C884 C 0.95848 0.16637 0.47608 0.0
C885 C 0.97309 0.12575 0.46402 0.0
N886 N 0.99684 0.06915 0.40709 0.0
N887 N 0.90905 0.21013 0.46356 0.0
C888 C 0.97146 0.10074 0.42156 0.0
C889 C 0.92903 0.17427 0.45073 0.0
N890 N 0.93341 0.07929 0.35765 0.0
N891 N 0.97343 0.19699 0.51118 0.0
H892 H 0.88856 0.21729 0.44469 0.0
H893 H 0.91174 0.23209 0.49306 0.0
H894 H 0.99737 0.19197 0.52774 0.0
H895 H 0.96614 0.22877 0.5212 0.0
H896 H 0.94555 0.05019 0.34601 0.0
H897 H 0.91225 0.0836 0.33775 0.0
H898 H 1.00016 0.05132 0.37559 0.0
H899 H 1.01783 0.06353 0.4264 0.0
C900 C 0.84526 0.87369 0.40596 0.0
C901 C 0.86564 0.8457 0.37084 0.0
C902 C 0.92724 0.85101 0.41386 0.0
C903 C 0.90687 0.88036 0.44749 0.0
N904 N 0.83381 0.89543 0.48371 0.0
N905 N 0.92743 0.80857 0.34012 0.0
C906 C 0.86145 0.88323 0.44607 0.0
C907 C 0.90676 0.83392 0.37476 0.0
N908 N 0.81186 0.89309 0.40141 0.0
N909 N 0.96458 0.83827 0.41992 0.0
H910 H 0.91975 0.80408 0.30884 0.0
H911 H 0.95274 0.79277 0.34159 0.0
H912 H 0.97828 0.84814 0.44885 0.0
H913 H 0.97881 0.81392 0.3985 0.0
H914 H 0.80007 0.91732 0.42569 0.0
H915 H 0.79898 0.88902 0.37274 0.0
H916 H 0.79884 0.8948 0.48505 0.0
H917 H 0.84465 0.90086 0.51387 0.0
C918 C 0.0628 0.87062 0.36067 0.0
C919 C 0.07634 0.83762 0.37667 0.0
C920 C 0.13086 0.89982 0.41619 0.0
C921 C 0.10791 0.93065 0.40958 0.0
N922 N 0.05947 0.94813 0.36757 0.0
N923 N 0.12797 0.82097 0.41685 0.0
C924 C 0.07664 0.9171 0.37916 0.0
C925 C 0.11131 0.8522 0.40441 0.0
N926 N 0.03709 0.85783 0.32747 0.0
N927 N 0.17086 0.91669 0.43442 0.0
H928 H 0.11699 0.78559 0.40731 0.0
H929 H 0.15231 0.82941 0.43791 0.0
H930 H 0.19196 0.95027 0.43267 0.0
H931 H 0.18336 0.89805 0.4504 0.0
H932 H 1.02671 0.8815 0.31534 0.0
H933 H 1.02759 0.82408 0.31133 0.0
H934 H 0.06948 0.98343 0.37918 0.0
H935 H 0.06948 0.98343 0.37918 0.0
C936 C 0.11214 0.91255 0.66218 0.0
C937 C 0.1555 0.90145 0.64734 0.0
C938 C 0.14122 0.88896 0.57235 0.0
C939 C 0.10574 0.91208 0.5867 0.0
N940 N 0.05409 0.94286 0.64553 0.0
N941 N 0.20882 0.87246 0.58908 0.0
C942 C 0.08912 0.92149 0.63178 0.0
C943 C 0.16874 0.88654 0.60255 0.0
N944 N 0.09412 0.91647 0.70537 0.0
N945 N 0.1488 0.87052 0.52966 0.0
H946 H 0.22812 0.8687 0.61105 0.0
H947 H 0.22343 0.86574 0.55665 0.0
H948 H 0.12702 0.87115 0.50848 0.0
H949 H 0.17281 0.85128 0.51657 0.0
H950 H 0.06055 0.92029 0.71766 0.0
H951 H 0.11086 0.91145 0.72864 0.0
H952 H 0.04416 0.95634 0.6777 0.0
H953 H 0.03636 0.94887 0.62383 0.0
C954 C 0.23524 0.18186 0.6364 0.0
C955 C 0.21204 0.20163 0.67609 0.0
C956 C 0.14311 0.18753 0.64085 0.0
C957 C 0.16361 0.16156 0.60467 0.0
N958 N 0.23545 0.15403 0.55944 0.0
N959 N 0.14114 0.21939 0.71698 0.0
C960 C 0.21182 0.16497 0.59992 0.0
C961 C 0.16539 0.20397 0.6784 0.0
N962 N 0.27957 0.17865 0.63342 0.0
N963 N 0.10607 0.20182 0.63738 0.0
H964 H 0.15491 0.22898 0.74599 0.0
H965 H 0.10592 0.21882 0.72069 0.0
H966 H 0.09059 0.19226 0.60936 0.0
H967 H 0.09762 0.22959 0.65896 0.0
H968 H 0.29585 0.15863 0.60811 0.0
H969 H 0.29939 0.19552 0.6574 0.0
H970 H 0.27181 0.15995 0.55223 0.0
H971 H 0.21871 0.14379 0.53205 0.0
C972 C 1.00326 0.19537 0.65744 0.0
C973 C 1.01239 0.19221 0.69826 0.0
C974 C 0.99507 0.10906 0.67876 0.0
C975 C 0.97614 0.11221 0.64263 0.0
N976 N 0.95244 0.15936 0.60405 0.0
N977 N 1.02392 0.14616 0.74516 0.0
C978 C 0.9774 0.1556 0.63359 0.0
C979 C 1.01216 0.14936 0.70729 0.0
N980 N 1.01583 0.23706 0.64369 0.0
N981 N 0.99519 0.06732 0.6868 0.0
H982 H 0.03545 0.17498 0.76808 0.0
H983 H 0.03545 0.17498 0.76808 0.0
H984 H 0.98047 0.03625 0.66792 0.0
H985 H 1.0095 0.0642 0.71276 0.0
H986 H 1.01241 0.24069 0.61284 0.0
H987 H 0.03487 0.26686 0.66126 0.0
H988 H 0.94883 0.19087 0.60049 0.0
H989 H 0.9302 0.1315 0.58739 0.0
C990 C 0.91103 0.84931 0.65815 0.0
C991 C 0.87808 0.86285 0.69364 0.0
C992 C 0.89108 0.93531 0.6653 0.0
C993 C 0.92255 0.92103 0.62889 0.0
N994 N 0.96587 0.86606 0.59236 0.0
N995 N 0.84894 0.92483 0.73773 0.0
C996 C 0.93376 0.87869 0.62612 0.0
C997 C 0.8714 0.90755 0.69895 0.0
N998 N 0.91924 0.80731 0.65384 0.0
N999 N 0.8799 0.97565 0.66791 0.0
H1000 H 0.83715 0.90676 0.76387 0.0
H1001 H 0.84672 0.95867 0.74595 0.0
H1002 H 0.89649 0.99904 0.64647 0.0
H1003 H 0.85257 0.9851 0.6901 0.0
H1004 H 0.93636 0.79155 0.62579 0.0
H1005 H 0.90782 0.78696 0.67815 0.0
H1006 H 0.98201 0.8405 0.59169 0.0
H1007 H 0.97787 0.88219 0.56501 0.0
C1008 C 0.41971 0.20354 0.18414 0.0
C1009 C 0.36922 0.18719 0.19344 0.0
C1010 C 0.37516 0.11846 0.13868 0.0
C1011 C 0.42529 0.13078 0.1346 0.0
N1012 N 0.49416 0.18349 0.16129 0.0
N1013 N 0.30313 0.11958 0.18805 0.0
C1014 C 0.44726 0.173 0.15946 0.0
C1015 C 0.34821 0.14203 0.17298 0.0
N1016 N 0.44202 0.24857 0.19716 0.0
N1017 N 0.35256 0.08497 0.10898 0.0
H1018 H 0.2836 0.13305 0.21588 0.0
H1019 H 0.28768 0.0852 0.17635 0.0
H1020 H 0.37029 0.06892 0.08158 0.0
H1021 H 0.31654 0.07753 0.10883 0.0
H1022 H 0.47762 0.26307 0.18704 0.0
H1023 H 0.42474 0.27282 0.21434 0.0
H1024 H 0.51115 0.21127 0.18239 0.0
H1025 H 0.51515 0.16201 0.14493 0.0
C1026 C 0.89114 0.38331 0.18484 0.0
C1027 C 0.86183 0.3384 0.17414 0.0
C1028 C 0.89151 0.34166 0.09642 0.0
C1029 C 0.92074 0.38656 0.10791 0.0
N1030 N 0.95871 0.44403 0.16239 0.0
N1031 N 0.8338 0.27342 0.12048 0.0
C1032 C 0.92411 0.40497 0.15201 0.0
C1033 C 0.86195 0.31705 0.12998 0.0
N1034 N 0.88445 0.40719 0.22573 0.0
N1035 N 0.89229 0.32293 0.05361 0.0
H1036 H 0.81215 0.25484 0.14439 0.0
H1037 H 0.83254 0.25461 0.08946 0.0
H1038 H 0.91753 0.33807 0.02942 0.0
H1039 H 0.8693 0.29229 0.04176 0.0
H1040 H 0.90129 0.44189 0.23442 0.0
H1041 H 0.85803 0.39377 0.24987 0.0
H1042 H 0.96601 0.45666 0.19388 0.0
H1043 H 0.98298 0.46122 0.1388 0.0
C1044 C 0.6913 0.92389 0.09854 0.0
C1045 C 0.68337 0.93793 0.14399 0.0
C1046 C 0.61651 0.96425 0.13803 0.0
C1047 C 0.62685 0.95362 0.09201 0.0
N1048 N 0.66062 0.90691 0.03083 0.0
N1049 N 0.62981 0.95529 0.20795 0.0
C1050 C 0.65981 0.9278 0.0731 0.0
C1051 C 0.64264 0.95228 0.16401 0.0
N1052 N 0.73016 0.90913 0.07948 0.0
N1053 N 0.58533 0.9895 0.15687 0.0
H1054 H 0.64884 0.9468 0.22734 0.0
H1055 H 0.59817 0.9615 0.22435 0.0
H1056 H 0.56702 1.00107 0.13933 0.0
H1057 H 0.58058 1.00257 0.18985 0.0
H1058 H 0.74051 0.90323 0.04609 0.0
H1059 H 0.75348 0.90482 0.09716 0.0
H1060 H 0.68121 0.88464 1.01587 0.0
H1061 H 0.63659 0.90797 1.0122 0.0
C1062 C 0.20699 0.69988 0.14974 0.0
C1063 C 0.22542 0.6771 0.17424 0.0
C1064 C 0.17384 0.60301 0.14314 0.0
C1065 C 0.1532 0.62624 0.12189 0.0
N1066 N 0.14475 0.69761 0.11086 0.0
N1067 N 0.23962 0.60452 0.17581 0.0
C1068 C 0.16794 0.67495 0.12742 0.0
C1069 C 0.21196 0.62787 0.16648 0.0
N1070 N 0.23066 0.74358 0.14231 0.0
N1071 N 0.15694 0.55646 0.14065 0.0
H1072 H 0.27331 0.62074 0.18284 0.0
H1073 H 0.23357 0.56891 0.1691 0.0
H1074 H 0.13123 0.53777 0.12186 0.0
H1075 H 0.16503 0.53729 0.15978 0.0
H1076 H 0.22103 0.76078 0.12238 0.0
H1077 H 0.26445 0.75968 0.14924 0.0
H1078 H 0.15003 0.73319 0.11766 0.0
H1079 H 0.11677 0.6803 0.09387 0.0
C1080 C 0.3841 0.90172 0.86758 0.0
C1081 C 0.36807 0.8528 0.86426 0.0
C1082 C 0.41563 0.86169 0.92231 0.0
C1083 C 0.4221 0.91001 0.93076 0.0
N1084 N 0.39351 0.97106 0.9198 0.0
N1085 N 0.36139 0.78864 0.90165 0.0
C1086 C 0.4006 0.92861 0.90604 0.0
C1087 C 0.38211 0.83308 0.89498 0.0
N1088 N 0.38644 0.92325 0.83369 0.0
N1089 N 0.4398 0.8426 0.94164 0.0
H1090 H 0.3324 0.76722 0.8884 0.0
H1091 H 0.3684 0.77504 0.92604 0.0
H1092 H 0.46356 0.86231 0.9624 0.0
H1093 H 0.43946 0.80794 0.93366 0.0
H1094 H 0.39964 0.95887 0.83542 0.0
H1095 H 0.38277 0.90556 0.80244 0.0
H1096 H 0.37391 0.98356 0.9042 0.0
H1097 H 0.40233 0.9907 0.94912 0.0
C1098 C 0.20513 0.39889 0.85669 0.0
C1099 C 0.19557 0.35012 0.85417 0.0
C1100 C 0.12781 0.35667 0.91378 0.0
C1101 C 0.13377 0.40393 0.91072 0.0
N1102 N 0.16874 0.45975 0.86179 0.0
N1103 N 0.13395 0.28256 0.87221 0.0
C1104 C 0.16938 0.42163 0.87666 0.0
C1105 C 0.15297 0.32891 0.88058 0.0
N1106 N 0.24881 0.42507 0.8424 0.0
N1107 N 0.09958 0.33772 0.94827 0.0
H1108 H 0.14697 0.26231 0.84484 0.0
H1109 H 0.1016 0.26591 0.8886 0.0
H1110 H 0.08162 0.35592 0.97377 0.0
H1111 H 0.09798 0.3049 0.9533 0.0
H1112 H 0.25722 0.461 0.84756 0.0
H1113 H 0.2779 0.41219 0.83112 0.0
H1114 H 0.19307 0.47259 0.83598 0.0
H1115 H 0.14037 0.47414 0.87098 0.0
C1116 C 0.64438 0.18003 0.87156 0.0
C1117 C 0.67921 0.22211 0.88251 0.0
C1118 C 0.67014 0.20149 0.95554 0.0
C1119 C 0.63704 0.15951 0.94378 0.0
N1120 N 0.5943 0.10614 0.89003 0.0
N1121 N 0.70938 0.27828 0.94218 0.0
C1122 C 0.62424 0.14833 0.90175 0.0
C1123 C 0.68778 0.23429 0.92642 0.0
N1124 N 0.62806 0.17181 0.83317 0.0
N1125 N 0.68678 0.2093 0.99397 0.0
H1126 H 0.71817 0.30518 0.92465 0.0
H1127 H 0.71188 0.28903 0.9749 0.0
H1128 H 0.67341 0.18719 1.017 0.0
H1129 H 0.71661 0.23541 1.0014 0.0
H1130 H 0.60007 0.14444 0.82397 0.0
H1131 H 0.63958 0.19555 0.81214 0.0
H1132 H 0.58862 0.09218 0.85835 0.0
H1133 H 0.57681 0.08339 0.91194 0.0
C1134 C 0.96722 0.67754 0.94277 0.0
C1135 C 0.94407 0.65484 0.90666 0.0
C1136 C 0.92999 0.58065 0.93062 0.0
C1137 C 0.95879 0.60283 0.96299 0.0
N1138 N 1.01231 0.67199 0.9944 0.0
N1139 N 0.90709 0.58425 0.86331 0.0
C1140 C 0.97954 0.65115 0.96753 0.0
C1141 C 0.92648 0.60616 0.89974 0.0
N1142 N 0.97737 0.72435 0.95383 0.0
N1143 N 0.90557 0.53539 0.92967 0.0
H1144 H 0.90041 0.60183 0.84178 0.0
H1145 H 0.90045 0.54885 0.85306 0.0
H1146 H 0.90645 0.51605 0.95237 0.0
H1147 H 0.88189 0.51783 0.90841 0.0
H1148 H 0.98774 0.74153 0.98349 0.0
H1149 H 0.97217 0.74579 0.93517 0.0
H1150 H 1.03281 0.70595 0.99451 0.0
H1151 H 1.02165 0.65454 1.01419 0.0
C1152 C 0.14311 0.36641 0.07936 0.0
C1153 C 0.12378 0.36416 0.12332 0.0
C1154 C 0.09704 0.43283 0.12858 0.0
C1155 C 0.1156 0.43495 0.08379 0.0
N1156 N 0.16657 0.40862 1.01947 0.0
N1157 N 0.09481 0.40135 0.19304 0.0
C1158 C 0.14233 0.40376 0.0603 0.0
C1159 C 0.10511 0.39967 0.14903 0.0
N1160 N 0.15989 0.33112 0.05482 0.0
N1161 N 0.07054 0.46142 0.15152 0.0
H1162 H 0.09953 0.37688 0.20857 0.0
H1163 H 0.08564 0.42886 0.21446 0.0
H1164 H 0.06481 0.4875 0.13913 0.0
H1165 H 0.05176 0.45778 0.18245 0.0
H1166 H 0.16694 0.32676 1.02111 0.0
H1167 H 0.16407 0.30464 0.06798 0.0
H1168 H 0.19253 0.39206 1.00475 0.0
H1169 H 0.16359 0.43051 1.00035 0.0
C1170 C 0.15792 0.66708 0.8673 0.0
C1171 C 0.19661 0.70699 0.87466 0.0
C1172 C 0.18466 0.69537 0.95121 0.0
C1173 C 0.14593 0.65704 0.94347 0.0
N1174 N 0.08744 0.61443 0.89871 0.0
N1175 N 0.23972 0.76395 0.92827 0.0
C1176 C 0.13005 0.64561 0.90295 0.0
C1177 C 0.20746 0.72291 0.91805 0.0
N1178 N 0.14748 0.64841 0.82651 0.0
N1179 N 0.20141 0.70409 0.98966 0.0
H1180 H 0.26198 0.78401 0.90602 0.0
H1181 H 0.24293 0.77981 0.96012 0.0
H1182 H 0.18424 0.68605 1.01533 0.0
H1183 H 0.23369 0.7271 0.99518 0.0
H1184 H 0.12541 0.61543 0.81934 0.0
H1185 H 0.16112 0.66411 0.79915 0.0
H1186 H 0.0707 0.60883 0.87185 0.0
H1187 H 0.06659 0.59772 0.92408 0.0
C1188 C 0.40481 0.08743 0.9051 0.0
C1189 C 0.38017 0.11872 0.93149 0.0
C1190 C 0.4285 0.13163 0.98792 0.0
C1191 C 0.44543 0.09366 0.96565 0.0
N1192 N 0.46809 0.05102 0.89663 0.0
N1193 N 0.37621 0.17934 0.99231 0.0
C1194 C 0.44001 0.07699 0.92178 0.0
C1195 C 0.39482 0.14396 0.9711 0.0
N1196 N 0.39231 0.06542 0.8657 0.0
N1197 N 0.44668 0.15671 1.02402 0.0
H1198 H 0.35366 0.19069 0.97914 0.0
H1199 H 0.38287 0.1978 1.0226 0.0
H1200 H 0.47652 0.15204 0.03174 0.0
H1201 H 0.43613 0.18451 0.04341 0.0
H1202 H 0.4063 0.03967 0.84632 0.0
H1203 H 0.3662 0.0715 0.8528 0.0
H1204 H 0.469 0.04078 0.86332 0.0
H1205 H 0.49307 0.04235 0.90896 0.0
C1206 C 0.88828 0.41168 0.86243 0.0
C1207 C 0.84987 0.3733 0.8726 0.0
C1208 C 0.87295 0.38489 0.94491 0.0
C1209 C 0.91431 0.4205 0.9333 0.0
N1210 N 0.9633 0.46437 0.87803 0.0
N1211 N 0.80946 0.32027 0.92224 0.0
C1212 C 0.92287 0.43238 0.89091 0.0
C1213 C 0.84303 0.35964 0.91374 0.0
N1214 N 0.88963 0.43081 0.82716 0.0
N1215 N 0.86204 0.37452 0.98607 0.0
H1216 H 0.78968 0.29923 0.899 0.0
H1217 H 0.80489 0.3053 0.94972 0.0
H1218 H 0.88556 0.38592 1.0081 0.0
H1219 H 0.82882 0.35609 0.99918 0.0
H1220 H 0.91398 0.46124 0.81957 0.0
H1221 H 0.86285 0.41886 0.80816 0.0
H1222 H 0.97412 0.47057 0.84614 0.0
H1223 H 0.98767 0.48282 0.89852 0.0
C1224 C 0.65392 0.83148 0.88004 0.0
C1225 C 0.69971 0.85185 0.8579 0.0
C1226 C 0.68005 0.92627 0.88135 0.0
C1227 C 0.64005 0.90814 0.91228 0.0
N1228 N 0.59568 0.83875 0.94367 0.0
N1229 N 0.75788 0.92321 0.84479 0.0
C1230 C 0.62884 0.85944 0.91247 0.0
C1231 C 0.71359 0.90067 0.8618 0.0
N1232 N 0.63299 0.78551 0.87006 0.0
N1233 N 0.68413 0.96604 0.86665 0.0
H1234 H 0.78264 0.90634 0.8274 0.0
H1235 H 0.77072 0.959 0.85102 0.0
H1236 H 0.6564 0.98106 0.8722 0.0
H1237 H 0.71143 0.9793 0.84287 0.0
H1238 H 0.59785 0.77056 0.8817 0.0
H1239 H 0.64872 0.76294 0.84746 0.0
H1240 H 0.59108 0.80472 0.94717 0.0
H1241 H 0.57576 0.85533 0.96858 0.0
C1242 C 0.87667 0.68544 0.1518 0.0
C1243 C 0.87731 0.69523 0.19748 0.0
C1244 C 0.93567 0.64935 0.18447 0.0
C1245 C 0.93784 0.64306 0.1387 0.0
N1246 N 0.91551 0.66355 0.079 0.0
N1247 N 0.91643 0.69339 0.2553 0.0
C1248 C 0.91028 0.66422 0.12258 0.0
C1249 C 0.90937 0.679 0.21315 0.0
N1250 N 0.8412 0.69258 0.13629 0.0
N1251 N 0.95801 0.62596 0.20096 0.0
H1252 H 0.89883 0.7153 0.27701 0.0
H1253 H 0.94311 0.68738 0.26737 0.0
H1254 H 0.97985 0.60656 0.18158 0.0
H1255 H 0.95203 0.62319 0.23358 0.0
H1256 H 0.83533 0.6817 0.10424 0.0
H1257 H 0.8142 0.70414 0.15685 0.0
H1258 H 0.90049 0.68239 0.06528 0.0
H1259 H 0.93867 0.6477 0.05703 0.0
C1260 C 0.4023 0.87623 0.18954 0.0
C1261 C 0.38197 0.82817 0.17927 0.0
C1262 C 0.40558 0.83485 0.10108 0.0
C1263 C 0.4302 0.88181 0.11238 0.0
N1264 N 0.46163 0.94329 0.16776 0.0
N1265 N 0.35649 0.76288 0.12533 0.0
C1266 C 0.43182 0.90093 0.15675 0.0
C1267 C 0.38205 0.80758 0.13486 0.0
N1268 N 0.38985 0.8996 0.22954 0.0
N1269 N 0.40404 0.8169 0.05826 0.0
H1270 H 0.33977 0.74209 0.14902 0.0
H1271 H 0.35115 0.74587 0.09439 0.0
H1272 H 0.42011 0.83637 0.03348 0.0
H1273 H 0.38776 0.78293 0.0466 0.0
H1274 H 0.39945 0.93547 0.23679 0.0
H1275 H 0.366 0.88368 0.2541 0.0
H1276 H 0.46716 0.95697 0.19963 0.0
H1277 H 0.48426 0.9624 0.14462 0.0
C1278 C 0.68898 0.14188 0.18246 0.0
C1279 C 0.7042 0.19076 0.18432 0.0
C1280 C 0.65477 0.18048 0.12769 0.0
C1281 C 0.64635 0.13197 0.12155 0.0
N1282 N 0.6711 0.06949 0.13464 0.0
N1283 N 0.71054 0.2535 0.14616 0.0
C1284 C 0.66802 0.11357 0.14645 0.0
C1285 C 0.68929 0.20941 0.1537 0.0
N1286 N 0.6925 0.12166 0.21535 0.0
N1287 N 0.63098 0.1993 0.10768 0.0
H1288 H 0.73941 0.2748 0.15991 0.0
H1289 H 0.70378 0.26676 0.12142 0.0
H1290 H 0.60628 0.17929 0.08793 0.0
H1291 H 0.63267 0.23429 0.11408 0.0
H1292 H 0.67826 0.08645 0.21613 0.0
H1293 H 0.70404 0.13999 0.24409 0.0
H1294 H 0.69051 0.05588 0.14931 0.0
H1295 H 0.65906 0.04892 0.10696 0.0
C1296 C 0.68412 0.69692 0.88897 0.0
C1297 C 0.70773 0.68078 0.84806 0.0
C1298 C 0.67892 0.60158 0.86483 0.0
C1299 C 0.65309 0.61764 0.90456 0.0
N1300 N 0.62754 0.67986 0.95314 0.0
N1301 N 0.72487 0.61758 0.79481 0.0
C1302 C 0.65455 0.66508 0.91602 0.0
C1303 C 0.70422 0.63298 0.8353 0.0
N1304 N 0.69223 0.74312 0.90323 0.0
N1305 N 0.68174 0.55709 0.85662 0.0
H1306 H 0.74516 0.63969 0.77311 0.0
H1307 H 0.71938 0.58291 0.78146 0.0
H1308 H 0.66366 0.53318 0.87729 0.0
H1309 H 0.70444 0.54451 0.831 0.0
H1310 H 0.6817 0.75777 0.93482 0.0
H1311 H 0.71275 0.76737 0.88402 0.0
H1312 H 0.62202 0.7125 0.96058 0.0
H1313 H 0.60733 0.65833 0.97523 0.0
C1314 C 0.38611 0.58025 0.90726 0.0
C1315 C 0.42003 0.6089 0.87986 0.0
C1316 C 0.47981 0.61796 0.92479 0.0
C1317 C 0.44734 0.58434 0.94911 0.0
N1318 N 0.36429 0.55325 0.97588 0.0
N1319 N 0.49776 0.6583 0.86289 0.0
C1320 C 0.39878 0.57209 0.94452 0.0
C1321 C 0.46633 0.62923 0.88915 0.0
N1322 N 0.34269 0.55757 0.89592 0.0
N1323 N 0.5221 0.64161 0.93742 0.0
H1324 H 0.48787 0.67055 0.83917 0.0
H1325 H 0.53388 0.66887 0.86293 0.0
H1326 H 0.53119 0.6386 0.96586 0.0
H1327 H 0.54561 0.66907 0.92354 0.0
H1328 H 0.31882 0.53146 0.9116 0.0
H1329 H 0.33179 0.56133 0.86831 0.0
H1330 H 0.32869 0.54915 0.9763 0.0
H1331 H 0.37073 0.54666 1.00422 0.0
C1332 C 0.36489 0.38789 0.8753 0.0
C1333 C 0.37683 0.34995 0.84703 0.0
C1334 C 0.44921 0.36889 0.87851 0.0
C1335 C 0.43902 0.40999 0.90151 0.0
N1336 N 0.39884 0.46659 0.90249 0.0
N1337 N 0.43827 0.31179 0.81409 0.0
C1338 C 0.40039 0.42207 0.89411 0.0
C1339 C 0.42129 0.34211 0.84633 0.0
N1340 N 0.31972 0.39087 0.8857 0.0
N1341 N 0.48514 0.35569 0.88711 0.0
H1342 H 0.42111 0.29426 0.78787 0.0
H1343 H 0.47205 0.30814 0.8109 0.0
H1344 H 0.50704 0.37593 0.90936 0.0
H1345 H 0.49114 0.32366 0.874 0.0
H1346 H 0.31028 0.41774 0.90816 0.0
H1347 H 0.29158 0.3637 0.87639 0.0
H1348 H 0.37142 0.47657 0.89562 0.0
H1349 H 0.42907 0.49289 0.90784 0.0
C1350 C 0.68576 0.38792 0.97649 0.0
C1351 C 0.64824 0.34871 0.9845 0.0
C1352 C 0.5942 0.39473 1.00529 0.0
C1353 C 0.62679 0.42836 0.98009 0.0
N1354 N 0.70736 0.45798 0.94575 0.0
N1355 N 0.58874 0.33374 0.04543 0.0
C1356 C 0.67425 0.42581 0.96727 0.0
C1357 C 0.61058 0.35948 1.01349 0.0
N1358 N 0.73069 0.38832 0.97733 0.0
N1359 N 0.54818 0.39387 1.0195 0.0
H1360 H 0.60118 0.30694 0.04937 0.0
H1361 H 0.56164 0.3417 0.06913 0.0
H1362 H 0.53247 0.41836 1.01668 0.0
H1363 H 0.52412 0.36564 0.03202 0.0
H1364 H 0.75966 0.41647 0.97244 0.0
H1365 H 0.73794 0.3621 0.98817 0.0
H1366 H 0.74305 0.46173 0.94282 0.0
H1367 H 0.69901 0.47886 0.9285 0.0
C1368 C 0.61771 0.45329 0.18978 0.0
C1369 C 0.66596 0.45488 0.18161 0.0
C1370 C 0.67057 0.46629 0.10704 0.0
C1371 C 0.62445 0.47282 0.11731 0.0
N1372 N 0.5577 0.48044 0.17286 0.0
N1373 N 0.73952 0.46401 0.13322 0.0
C1374 C 0.59835 0.46733 0.15954 0.0
C1375 C 0.69244 0.46065 0.14013 0.0
N1376 N 0.59083 0.43983 0.22733 0.0
N1377 N 0.69419 0.46661 0.06571 0.0
H1378 H 0.75635 0.45821 0.15608 0.0
H1379 H 0.76252 0.47503 0.10596 0.0
H1380 H 0.68184 0.47526 0.04156 0.0
H1381 H 0.7247 0.45586 0.05479 0.0
H1382 H 0.5544 0.43371 0.23349 0.0
H1383 H 0.60461 0.43026 0.25028 0.0
H1384 H 0.54006 0.48176 0.20465 0.0
H1385 H 0.54431 0.49527 0.15385 0.0
C1386 C 0.71009 0.64885 0.1785 0.0
C1387 C 0.69464 0.68179 0.21173 0.0
C1388 C 0.6198 0.66107 0.18383 0.0
C1389 C 0.63976 0.63552 0.14625 0.0
N1390 N 0.71019 0.61429 0.10447 0.0
N1391 N 0.63201 0.71475 0.25066 0.0
C1392 C 0.68652 0.63201 0.14248 0.0
C1393 C 0.64853 0.68662 0.21577 0.0
N1394 N 0.74647 0.63216 0.18087 0.0
N1395 N 0.57375 0.66114 0.18875 0.0
H1396 H 0.64905 0.72803 0.27772 0.0
H1397 H 0.60172 0.72504 0.25293 0.0
H1398 H 0.55274 0.64553 0.16467 0.0
H1399 H 0.55551 0.67493 0.21725 0.0
H1400 H 0.75388 0.60363 0.15965 0.0
H1401 H 0.76646 0.64241 0.20567 0.0
H1402 H 0.74622 0.61772 0.10002 0.0
H1403 H 0.69697 0.60057 0.07569 0.0
C1404 C 0.39811 0.65804 0.05137 0.0
C1405 C 0.43465 0.69848 0.05821 0.0
C1406 C 0.48852 0.65329 0.04936 0.0
C1407 C 0.44938 0.61562 0.06407 0.0
N1408 N 0.3631 0.58744 0.0804 0.0
N1409 N 0.5103 0.7242 1.01806 0.0
C1410 C 0.40266 0.61783 0.06324 0.0
C1411 C 0.47826 0.69183 0.04001 0.0
N1412 N 0.35819 0.65993 0.03959 0.0
N1413 N 0.53466 0.65471 0.04605 0.0
H1414 H 0.50147 0.75288 1.01333 0.0
H1415 H 0.54338 0.72083 1.00278 0.0
H1416 H 0.54749 0.62626 0.04048 0.0
H1417 H 0.56132 0.68546 0.04519 0.0
H1418 H 0.33057 0.63063 0.03339 0.0
H1419 H 0.35557 0.69055 0.03259 0.0
H1420 H 0.32955 0.59122 0.0823 0.0
H1421 H 0.36306 0.56262 0.09789 0.0
C1422 C 0.35995 0.40726 0.21319 0.0
C1423 C 0.36375 0.36121 0.20349 0.0
C1424 C 0.42821 0.38356 0.14413 0.0
C1425 C 0.41939 0.42712 0.14973 0.0
N1426 N 0.37456 0.47997 0.1877 0.0
N1427 N 0.39693 0.30401 0.1544 0.0
C1428 C 0.38484 0.43901 0.18398 0.0
C1429 C 0.39703 0.34903 0.16775 0.0
N1430 N 0.33356 0.42107 0.25098 0.0
N1431 N 0.46697 0.37546 0.11655 0.0
H1432 H 0.37345 0.27759 0.16971 0.0
H1433 H 0.41674 0.29241 0.12577 0.0
H1434 H 0.49103 0.40082 0.10002 0.0
H1435 H 0.47783 0.34587 0.11392 0.0
H1436 H 0.33348 0.45525 0.26242 0.0
H1437 H 0.3149 0.39864 0.27272 0.0
H1438 H 0.34588 0.48832 0.20863 0.0
H1439 H 0.39313 0.50459 0.16783 0.0
C1440 C 0.87352 0.67048 0.65142 0.0
C1441 C 0.86929 0.68059 0.69733 0.0
C1442 C 0.92302 0.63094 0.69168 0.0
C1443 C 0.9243 0.6192 0.64564 0.0
N1444 N 0.87963 0.61238 0.58862 0.0
N1445 N 0.879 0.65626 0.76109 0.0
C1446 C 0.89256 0.63386 0.62796 0.0
C1447 C 0.89088 0.65661 0.71749 0.0
N1448 N 0.86309 0.69802 0.6291 0.0
N1449 N 0.95244 0.61869 0.71124 0.0
H1450 H 0.85449 0.67257 0.78044 0.0
H1451 H 0.8894 0.63565 0.77702 0.0
H1452 H 0.97518 0.59914 0.69492 0.0
H1453 H 0.95575 0.62977 0.74383 0.0
H1454 H 0.86999 0.69452 0.5953 0.0
H1455 H 0.8545 0.72801 0.6447 0.0
H1456 H 0.85459 0.62047 0.57578 0.0
H1457 H 0.88916 0.58278 0.57199 0.0
C1458 C 0.38459 0.81527 0.64105 0.0
C1459 C 0.35679 0.83526 0.67721 0.0
C1460 C 0.37121 0.89978 0.63926 0.0
C1461 C 0.40963 0.88753 0.61056 0.0
N1462 N 0.45073 0.82815 0.5832 0.0
N1463 N 0.33913 0.90595 0.71458 0.0
C1464 C 0.41598 0.84361 0.611 0.0
C1465 C 0.35391 0.88005 0.6773 0.0
N1466 N 0.37837 0.76895 0.63323 0.0
N1467 N 0.3524 0.93155 0.63114 0.0
H1468 H 0.33298 0.89506 0.74451 0.0
H1469 H 0.34113 0.94057 0.71593 0.0
H1470 H 0.36287 0.94497 0.60206 0.0
H1471 H 0.32324 0.93993 0.65122 0.0
H1472 H 0.39495 0.75195 0.60553 0.0
H1473 H 0.35184 0.74748 0.65179 0.0
H1474 H 0.46053 0.79981 0.58722 0.0
H1475 H 0.46929 0.84308 0.55619 0.0
C1476 C 0.18488 0.47802 0.64435 0.0
C1477 C 0.1692 0.46218 0.68495 0.0
C1478 C 0.0882 0.45961 0.68214 0.0
C1479 C 0.1032 0.472 0.64019 0.0
N1480 N 0.16573 0.50401 0.58543 0.0
N1481 N 0.1061 0.42957 0.73896 0.0
C1482 C 0.15166 0.4843 0.62239 0.0
C1483 C 0.12093 0.451 0.70312 0.0
N1484 N 0.23126 0.48538 0.6262 0.0
N1485 N 0.04338 0.4578 0.7026 0.0
H1486 H 0.12916 0.42238 0.75504 0.0
H1487 H 0.07082 0.41517 0.75038 0.0
H1488 H 1.01902 0.46573 0.68885 0.0
H1489 H 1.03185 0.45328 0.7349 0.0
H1490 H 0.24422 0.49096 0.59437 0.0
H1491 H 0.25734 0.48421 0.64245 0.0
H1492 H 0.20059 0.51711 0.57211 0.0
H1493 H 0.14233 0.51097 0.5696 0.0
C1494 C 0.63663 0.19726 0.69385 0.0
C1495 C 0.68607 0.20309 0.68663 0.0
C1496 C 0.67549 0.14381 0.62097 0.0
C1497 C 0.62689 0.14162 0.62737 0.0
N1498 N 0.56722 0.18048 0.66152 0.0
N1499 N 0.75344 0.19011 0.63476 0.0
C1500 C 0.60979 0.17338 0.66076 0.0
C1501 C 0.7059 0.17877 0.64755 0.0
N1502 N 0.61365 0.21013 0.7337 0.0
N1503 N 0.6925 0.11183 0.59091 0.0
H1504 H 0.77642 0.21738 0.65152 0.0
H1505 H 0.76935 0.1761 0.60493 0.0
H1506 H 0.67156 0.08609 0.57097 0.0
H1507 H 0.72644 0.10881 0.58827 0.0
H1508 H 0.57713 0.20278 0.74138 0.0
H1509 H 0.63045 0.22069 0.76033 0.0
H1510 H 0.55506 0.20625 0.68333 0.0
H1511 H 0.54701 0.16437 0.63716 0.0
C1512 C 0.86264 0.3472 0.41038 0.0
C1513 C 0.87485 0.356 0.36661 0.0
C1514 C 0.95166 0.4071 0.38384 0.0
C1515 C 0.94009 0.39735 0.42723 0.0
N1516 N 0.88254 0.363 0.48363 0.0
N1517 N 0.92789 0.4008 0.31424 0.0
C1518 C 0.89496 0.36853 0.44091 0.0
C1519 C 0.91835 0.38806 0.35433 0.0
N1520 N 0.81934 0.31917 0.42295 0.0
N1521 N 0.99572 0.43302 0.36996 0.0
H1522 H 0.90693 0.38452 0.29048 0.0
H1523 H 0.95501 0.42886 0.30505 0.0
H1524 H 1.02029 0.44938 0.39053 0.0
H1525 H 1.00929 0.43618 0.33764 0.0
H1526 H 0.80847 0.30737 0.45261 0.0
H1527 H 0.79351 0.30734 0.40306 0.0
H1528 H 0.84937 0.34559 0.49761 0.0
H1529 H 0.90537 0.3778 0.50633 0.0
C1530 C 0.65719 0.8509 0.34704 0.0
C1531 C 0.68675 0.83732 0.36836 0.0
C1532 C 0.65114 0.87633 0.43849 0.0
C1533 C 0.62575 0.8941 0.41637 0.0
N1534 N 0.60677 0.8993 0.34808 0.0
N1535 N 0.71388 0.84102 0.43498 0.0
C1536 C 0.62946 0.88148 0.37027 0.0
C1537 C 0.68338 0.85028 0.41443 0.0
N1538 N 0.65379 0.83277 0.30449 0.0
N1539 N 0.64597 0.88595 0.4827 0.0
H1540 H 0.73926 0.82488 0.41815 0.0
H1541 H 0.71724 0.85279 0.46748 0.0
H1542 H 0.6282 0.90961 0.50065 0.0
H1543 H 0.65727 0.86908 0.50173 0.0
H1544 H 0.62913 0.83655 0.28811 0.0
H1545 H 0.67259 0.81003 0.28639 0.0
H1546 H 0.61442 0.89875 0.31463 0.0
H1547 H 0.58153 0.91657 0.36322 0.0
C1548 C 0.1803 0.63716 0.35794 0.0
C1549 C 0.20889 0.68214 0.37187 0.0
C1550 C 0.185 0.6666 0.44774 0.0
C1551 C 0.15729 0.62197 0.43333 0.0
N1552 N 0.13798 0.56061 0.3742 0.0
N1553 N 0.23063 0.74225 0.43222 0.0
C1554 C 0.15821 0.60596 0.38826 0.0
C1555 C 0.20937 0.69746 0.41741 0.0
N1556 N 0.17029 0.62554 0.31648 0.0
N1557 N 0.18872 0.67881 0.4909 0.0
H1558 H 0.24766 0.76629 0.412 0.0
H1559 H 0.22812 0.75722 0.4647 0.0
H1560 H 0.17155 0.6565 0.51329 0.0
H1561 H 0.21166 0.70869 0.50421 0.0
H1562 H 0.14583 0.59543 0.30567 0.0
H1563 H 0.18163 0.6483 0.29411 0.0
H1564 H 0.14181 0.54539 0.34174 0.0
H1565 H 0.12132 0.53704 0.39537 0.0
C1566 C 0.45796 0.15981 0.42785 0.0
C1567 C 0.43713 0.13655 0.39038 0.0
C1568 C 0.43384 0.06247 0.40882 0.0
C1569 C 0.4642 0.08582 0.43928 0.0
N1570 N 0.49996 0.15675 0.48324 0.0
N1571 N 0.40205 0.06548 0.34631 0.0
C1572 C 0.47323 0.13441 0.45152 0.0
C1573 C 0.42362 0.08771 0.38146 0.0
N1574 N 0.46437 0.20624 0.44029 0.0
N1575 N 0.41281 1.01655 0.408 0.0
H1576 H 0.39027 0.08246 0.32764 0.0
H1577 H 0.39791 0.03054 0.33465 0.0
H1578 H 0.41796 0.99858 0.43008 0.0
H1579 H 0.38717 0.99777 0.38887 0.0
H1580 H 0.47241 0.22368 0.4706 0.0
H1581 H 0.46018 0.22777 0.4212 0.0
H1582 H 0.51477 0.19221 0.48893 0.0
H1583 H 0.50948 0.13935 0.50275 0.0
C1584 C 0.63187 0.94516 0.67327 0.0
C1585 C 0.62028 0.89646 0.66229 0.0
C1586 C 0.58896 0.89959 0.59857 0.0
C1587 C 0.5976 0.94809 0.6111 0.0
N1588 N 0.63594 1.01842 0.65348 0.0
N1589 N 0.59867 0.82795 0.60954 0.0
C1590 C 0.62217 0.97131 0.64626 0.0
C1591 C 0.60296 0.874 0.623 0.0
N1592 N 0.65119 0.96602 0.71005 0.0
N1593 N 0.56364 0.87734 0.56574 0.0
H1594 H 0.60352 0.8065 0.62837 0.0
H1595 H 0.5933 0.81128 0.57833 0.0
H1596 H 0.55321 0.89433 0.5463 0.0
H1597 H 0.5511 0.84172 0.55849 0.0
H1598 H 0.65591 1.00071 0.72288 0.0
H1599 H 0.66169 0.94807 0.72877 0.0
H1600 H 0.65647 0.03825 0.67675 0.0
H1601 H 0.62948 0.03794 0.63359 0.0
C1602 C 0.72563 0.19807 0.40053 0.0
C1603 C 0.70893 0.20239 0.36346 0.0
C1604 C 0.62951 0.16062 0.39205 0.0
C1605 C 0.64616 0.15345 0.42774 0.0
N1606 N 0.70986 0.16302 0.46584 0.0
N1607 N 0.64786 0.17726 0.31888 0.0
C1608 C 0.69422 0.17211 0.43224 0.0
C1609 C 0.66166 0.18084 0.35788 0.0
N1610 N 0.77197 0.21695 0.40423 0.0
N1611 N 0.58251 0.14795 0.39087 0.0
H1612 H 0.67017 0.19215 0.29309 0.0
H1613 H 0.6156 0.15637 0.31083 0.0
H1614 H 0.55862 0.13352 0.41579 0.0
H1615 H 0.56734 0.15611 0.36814 0.0
H1616 H 0.78628 0.21911 0.43178 0.0
H1617 H 0.79666 0.23067 0.37904 0.0
H1618 H 0.74505 0.17091 0.46921 0.0
H1619 H 0.68698 0.14613 0.49039 0.0
C1620 C 0.89159 0.54807 0.38873 0.0
C1621 C 0.91163 0.57424 0.35457 0.0
C1622 C 0.9908 0.58196 0.36755 0.0
C1623 C 0.97053 0.56281 0.40592 0.0
N1624 N 0.90266 0.52492 0.45299 0.0
N1625 N 0.97914 0.62057 0.31389 0.0
C1626 C 0.92113 0.54464 0.41629 0.0
C1627 C 0.96104 0.59169 0.34402 0.0
N1628 N 0.84455 0.52602 0.3942 0.0
N1629 N 0.03837 0.5925 0.35473 0.0
H1630 H 0.95798 0.63441 0.30178 0.0
H1631 H 1.01478 0.63425 0.3038 0.0
H1632 H 0.06138 0.58886 0.37304 0.0
H1633 H 0.05475 0.60158 0.32453 0.0
H1634 H 0.82834 0.50301 0.416 0.0
H1635 H 0.82196 0.52787 0.37438 0.0
H1636 H 0.86703 0.51648 0.46563 0.0
H1637 H 0.9234 0.51835 0.47198 0.0
C1638 C 0.41871 0.88154 0.33931 0.0
C1639 C 0.37986 0.84654 0.35521 0.0
C1640 C 0.4081 0.87012 0.4267 0.0
C1641 C 0.44188 0.90981 0.41218 0.0
N1642 N 0.47011 0.95728 0.35506 0.0
N1643 N 0.33984 0.80549 0.41453 0.0
C1644 C 0.44409 0.9167 0.36877 0.0
C1645 C 0.3745 0.84117 0.39949 0.0
N1646 N 0.43404 0.88031 0.29582 0.0
N1647 N 0.41086 0.85699 0.46421 0.0
H1648 H 0.32234 0.77814 0.3935 0.0
H1649 H 0.32908 0.80299 0.44735 0.0
H1650 H 0.43649 0.87463 0.48357 0.0
H1651 H 0.39083 0.82584 0.47406 0.0
H1652 H 0.46527 0.90243 0.28307 0.0
H1653 H 0.41945 0.85401 0.27246 0.0
H1654 H 0.46844 0.9655 0.32546 0.0
H1655 H 0.48832 0.98512 0.37502 0.0
C1656 C 0.21341 0.40012 0.37168 0.0
C1657 C 0.19356 0.35318 0.3539 0.0
C1658 C 0.11399 0.36524 0.38313 0.0
C1659 C 0.13424 0.41107 0.40276 0.0
N1660 N 0.20355 0.46959 0.42107 0.0
N1661 N 0.12276 0.29266 0.34 0.0
C1662 C 0.18404 0.42772 0.39823 0.0
C1663 C 0.14321 0.33634 0.35896 0.0
N1664 N 0.26032 0.41972 0.36078 0.0
N1665 N 0.06613 0.34825 0.39008 0.0
H1666 H 0.14085 0.26793 0.32708 0.0
H1667 H 0.08765 0.28065 0.33578 0.0
H1668 H 0.0439 0.3694 0.40293 0.0
H1669 H 0.04823 0.31349 0.38456 0.0
H1670 H 0.27632 0.45486 0.36782 0.0
H1671 H 0.28276 0.40141 0.34125 0.0
H1672 H 0.23888 0.48116 0.42478 0.0
H1673 H 0.18362 0.49174 0.43856 0.0
C1674 C 0.36189 0.14918 0.66841 0.0
C1675 C 0.38017 0.19785 0.68161 0.0
C1676 C 0.45632 0.19205 0.63476 0.0
C1677 C 0.4386 0.14313 0.62421 0.0
N1678 N 0.36898 0.08033 0.61732 0.0
N1679 N 0.44889 0.26262 0.68347 0.0
C1680 C 0.38987 0.12337 0.63744 0.0
C1681 C 0.42829 0.21854 0.66574 0.0
N1682 N 0.31779 0.12635 0.68588 0.0
N1683 N 0.49905 0.21401 0.61408 0.0
H1684 H 0.43088 0.28198 0.70787 0.0
H1685 H 0.48483 0.27836 0.67765 0.0
H1686 H 0.52004 0.19708 0.59049 0.0
H1687 H 0.51147 0.24969 0.61653 0.0
H1688 H 0.30665 0.0907 0.68419 0.0
H1689 H 0.29238 0.14214 0.70342 0.0
H1690 H 0.3328 0.06538 0.62141 0.0
H1691 H 0.38713 0.06182 0.59204 0.0
C1692 C 0.83491 0.36658 0.65334 0.0
C1693 C 0.85068 0.35752 0.68918 0.0
C1694 C 0.93125 0.38994 0.65478 0.0
C1695 C 0.9156 0.40792 0.62421 0.0
N1696 N 0.84904 0.41628 0.59925 0.0
N1697 N 0.91654 0.37763 0.72853 0.0
C1698 C 0.86626 0.39803 0.62567 0.0
C1699 C 0.89947 0.37446 0.69136 0.0
N1700 N 0.79193 0.34194 0.64257 0.0
N1701 N 0.97561 0.38504 0.64916 0.0
H1702 H 0.89521 0.37041 0.7575 0.0
H1703 H 0.95179 0.39304 0.73175 0.0
H1704 H 1.00172 0.39382 0.62346 0.0
H1705 H 0.9851 0.36719 0.66872 0.0
H1706 H 0.78048 0.34491 0.61494 0.0
H1707 H 0.7707 0.31405 0.65737 0.0
H1708 H 0.81328 0.41336 0.60203 0.0
H1709 H 0.87069 0.43707 0.57699 0.0
C1710 C 0.20635 0.67366 0.64267 0.0
C1711 C 0.19015 0.70322 0.67969 0.0
C1712 C 0.11178 0.67684 0.65652 0.0
C1713 C 0.12713 0.64614 0.62052 0.0
N1714 N 0.18958 0.61374 0.58023 0.0
N1715 N 0.13261 0.74812 0.70456 0.0
C1716 C 0.17461 0.64405 0.61394 0.0
C1717 C 0.14454 0.70942 0.68177 0.0
N1718 N 0.25353 0.67853 0.63174 0.0
N1719 N 0.06492 0.67371 0.66854 0.0
H1720 H 0.15504 0.77643 0.72017 0.0
H1721 H 0.10165 0.75546 0.7027 0.0
H1722 H 0.03915 0.65007 0.65212 0.0
H1723 H 0.05129 0.69096 0.69778 0.0
H1724 H 0.26928 0.66231 0.60311 0.0
H1725 H 0.27773 0.7033 0.64921 0.0
H1726 H 0.22117 0.60545 0.57692 0.0
H1727 H 0.1693 0.59498 0.55634 0.0
loop_
_geom_bond_atom_site_label_1
_geom_bond_atom_site_label_2
_geom_bond_distance
_geom_bond_site_symmetry_2
_ccdc_geom_bond_type
Eu0 N29 2.600 . S
Eu0 N35 2.562 . S
Eu0 O44 2.462 . S
Eu0 O45 2.373 . S
Eu0 O47 2.432 . S
Eu0 O48 2.291 . S
Eu0 O52 2.335 . S
Eu0 O55 2.372 . S
Eu0 C64 2.787 . S
C1 N2 1.365 . S
C1 C4 1.405 . S
C1 C8 1.448 . S
N2 C1 1.365 . S
N2 C5 1.319 . S
N2 Eu11 2.600 . S
C3 C5 1.397 . S
C3 C6 1.367 . S
C3 H23 0.931 . S
C4 C1 1.405 . S
C4 C6 1.403 . S
C4 C10 1.439 . S
C5 N2 1.319 . S
C5 C3 1.397 . S
C5 H16 0.930 . S
C6 C3 1.367 . S
C6 C4 1.403 . S
C6 H27 0.929 . S
C7 C8 1.430 . S
C7 C9 1.387 . S
C7 C13 1.404 . S
C8 C1 1.448 . S
C8 C7 1.430 . S
C8 N12 1.351 . S
C9 C7 1.387 . S
C9 C10 1.374 . S
C9 H24 0.931 . S
C10 C4 1.439 . S
C10 C9 1.374 . S
C10 H25 0.931 . S
Eu11 N2 2.600 . S
Eu11 N12 2.562 . S
Eu11 O46 2.335 . S
Eu11 O49 2.372 . S
Eu11 O50 2.462 . S
Eu11 O51 2.373 . S
Eu11 O53 2.432 . S
Eu11 O54 2.291 . S
Eu11 C75 2.787 . S
N12 C8 1.351 . S
N12 Eu11 2.562 . S
N12 C14 1.325 . S
C13 C7 1.404 . S
C13 C15 1.366 . S
C13 H21 0.930 . S
C14 N12 1.325 . S
C14 C15 1.416 . S
C14 H20 0.929 . S
C15 C13 1.366 . S
C15 C14 1.416 . S
C15 H17 0.930 . S
H16 C5 0.930 . S
H17 C15 0.930 . S
H18 C33 0.930 . S
H19 C40 0.930 . S
H20 C14 0.929 . S
H21 C13 0.930 . S
H22 C36 0.929 . S
H23 C3 0.931 . S
H24 C9 0.931 . S
H25 C10 0.931 . S
H26 C31 0.931 . S
H27 C6 0.929 . S
H28 C39 0.930 . S
N29 Eu0 2.600 . S
N29 C30 1.365 . S
N29 C33 1.319 . S
C30 N29 1.365 . S
C30 C32 1.405 . S
C30 C38 1.448 . S
C31 H26 0.931 . S
C31 C33 1.397 . S
C31 C34 1.367 . S
C32 C30 1.405 . S
C32 C34 1.403 . S
C32 C65 1.439 . S
C33 H18 0.930 . S
C33 N29 1.319 . S
C33 C31 1.397 . S
C34 C31 1.367 . S
C34 C32 1.403 . S
C34 H41 0.929 . S
N35 Eu0 2.562 . S
N35 C36 1.325 . S
N35 C38 1.351 . S
C36 H22 0.929 . S
C36 N35 1.325 . S
C36 C40 1.416 . S
C37 C38 1.430 . S
C37 C39 1.404 . S
C37 C66 1.387 . S
C38 C30 1.448 . S
C38 N35 1.351 . S
C38 C37 1.430 . S
C39 H28 0.930 . S
C39 C37 1.404 . S
C39 C40 1.366 . S
C40 H19 0.930 . S
C40 C36 1.416 . S
C40 C39 1.366 . S
H41 C34 0.929 . S
H42 C65 0.931 . S
H43 C66 0.931 . S
O44 Eu0 2.462 . S
O44 C64 1.252 . S
O45 Eu0 2.373 . S
O45 C56 1.249 . S
O46 Eu11 2.335 . S
O46 C56 1.264 . S
O47 Eu0 2.432 . S
O47 C64 1.268 . S
O48 Eu0 2.291 . S
O48 C63 1.255 . S
O49 Eu11 2.372 . S
O49 C63 1.257 . S
O50 Eu11 2.462 . S
O50 C75 1.252 . S
O51 Eu11 2.373 . S
O51 C67 1.249 . S
O52 Eu0 2.335 . S
O52 C67 1.264 . S
O53 Eu11 2.432 . S
O53 C75 1.268 . S
O54 Eu11 2.291 . S
O54 C74 1.255 . S
O55 Eu0 2.372 . S
O55 C74 1.257 . S
C56 O45 1.249 . S
C56 O46 1.264 . S
C57 C60 1.382 . S
C57 C62 1.390 . S
C57 C64 1.506 . S
C58 C59 1.398 . S
C58 C62 1.392 . S
C59 C58 1.398 . S
C59 C61 1.372 . S
C59 H76 0.931 . S
C60 C57 1.382 . S
C60 C61 1.390 . S
C60 H77 0.931 . S
C61 C59 1.372 . S
C61 C60 1.390 . S
C61 H78 0.929 . S
C62 C57 1.390 . S
C62 C58 1.392 . S
C62 H79 0.930 . S
C63 O48 1.255 . S
C63 O49 1.257 . S
C64 Eu0 2.787 . S
C64 O44 1.252 . S
C64 O47 1.268 . S
C64 C57 1.506 . S
C65 C32 1.439 . S
C65 H42 0.931 . S
C65 C66 1.374 . S
C66 C37 1.387 . S
C66 H43 0.931 . S
C66 C65 1.374 . S
C67 O51 1.249 . S
C67 O52 1.264 . S
C68 C71 1.382 . S
C68 C72 1.390 . S
C68 C75 1.506 . S
C69 C70 1.398 . S
C69 C72 1.392 . S
C70 C69 1.398 . S
C70 C73 1.372 . S
C70 H80 0.931 . S
C71 C68 1.382 . S
C71 C73 1.390 . S
C71 H81 0.931 . S
C72 C68 1.390 . S
C72 C69 1.392 . S
C72 H82 0.930 . S
C73 C70 1.372 . S
C73 C71 1.390 . S
C73 H83 0.929 . S
C74 O54 1.255 . S
C74 O55 1.257 . S
C75 Eu11 2.787 . S
C75 O50 1.252 . S
C75 O53 1.268 . S
C75 C68 1.506 . S
H76 C59 0.931 . S
H77 C60 0.931 . S
H78 C61 0.929 . S
H79 C62 0.930 . S
H80 C70 0.931 . S
H81 C71 0.931 . S
H82 C72 0.930 . S
H83 C73 0.929 . S
Eu84 N113 2.600 . S
Eu84 N119 2.562 . S
Eu84 O128 2.462 . S
Eu84 O129 2.373 . S
Eu84 O131 2.432 . S
Eu84 O132 2.291 . S
Eu84 O136 2.335 . S
Eu84 O139 2.372 . S
Eu84 C148 2.787 . S
C85 N86 1.365 . S
C85 C88 1.405 . S
C85 C92 1.448 . S
N86 C85 1.365 . S
N86 C89 1.319 . S
N86 Eu95 2.600 . S
C87 C89 1.397 . S
C87 C90 1.367 . S
C87 H107 0.931 . S
C88 C85 1.405 . S
C88 C90 1.403 . S
C88 C94 1.439 . S
C89 N86 1.319 . S
C89 C87 1.397 . S
C89 H100 0.930 . S
C90 C87 1.367 . S
C90 C88 1.403 . S
C90 H111 0.929 . S
C91 C92 1.430 . S
C91 C93 1.387 . S
C91 C97 1.404 . S
C92 C85 1.448 . S
C92 C91 1.430 . S
C92 N96 1.351 . S
C93 C91 1.387 . S
C93 C94 1.374 . S
C93 H108 0.931 . S
C94 C88 1.439 . S
C94 C93 1.374 . S
C94 H109 0.931 . S
Eu95 N86 2.600 . S
Eu95 N96 2.562 . S
Eu95 O130 2.335 . S
Eu95 O133 2.372 . S
Eu95 O134 2.462 . S
Eu95 O135 2.373 . S
Eu95 O137 2.432 . S
Eu95 O138 2.291 . S
Eu95 C159 2.787 . S
N96 C92 1.351 . S
N96 Eu95 2.562 . S
N96 C98 1.325 . S
C97 C91 1.404 . S
C97 C99 1.366 . S
C97 H105 0.930 . S
C98 N96 1.325 . S
C98 C99 1.416 . S
C98 H104 0.929 . S
C99 C97 1.366 . S
C99 C98 1.416 . S
C99 H101 0.930 . S
H100 C89 0.930 . S
H101 C99 0.930 . S
H102 C117 0.930 . S
H103 C124 0.930 . S
H104 C98 0.929 . S
H105 C97 0.930 . S
H106 C120 0.929 . S
H107 C87 0.931 . S
H108 C93 0.931 . S
H109 C94 0.931 . S
H110 C115 0.931 . S
H111 C90 0.929 . S
H112 C123 0.930 . S
N113 Eu84 2.600 . S
N113 C114 1.365 . S
N113 C117 1.319 . S
C114 N113 1.365 . S
C114 C116 1.405 . S
C114 C122 1.448 . S
C115 H110 0.931 . S
C115 C117 1.397 . S
C115 C118 1.367 . S
C116 C114 1.405 . S
C116 C118 1.403 . S
C116 C149 1.439 . S
C117 H102 0.930 . S
C117 N113 1.319 . S
C117 C115 1.397 . S
C118 C115 1.367 . S
C118 C116 1.403 . S
C118 H125 0.929 . S
N119 Eu84 2.562 . S
N119 C120 1.325 . S
N119 C122 1.351 . S
C120 H106 0.929 . S
C120 N119 1.325 . S
C120 C124 1.416 . S
C121 C122 1.430 . S
C121 C123 1.404 . S
C121 C150 1.387 . S
C122 C114 1.448 . S
C122 N119 1.351 . S
C122 C121 1.430 . S
C123 H112 0.930 . S
C123 C121 1.404 . S
C123 C124 1.366 . S
C124 H103 0.930 . S
C124 C120 1.416 . S
C124 C123 1.366 . S
H125 C118 0.929 . S
H126 C149 0.931 . S
H127 C150 0.931 . S
O128 Eu84 2.462 . S
O128 C148 1.252 . S
O129 Eu84 2.373 . S
O129 C140 1.249 . S
O130 Eu95 2.335 . S
O130 C140 1.264 . S
O131 Eu84 2.432 . S
O131 C148 1.268 . S
O132 Eu84 2.291 . S
O132 C147 1.255 . S
O133 Eu95 2.372 . S
O133 C147 1.257 . S
O134 Eu95 2.462 . S
O134 C159 1.252 . S
O135 Eu95 2.373 . S
O135 C151 1.249 . S
O136 Eu84 2.335 . S
O136 C151 1.264 . S
O137 Eu95 2.432 . S
O137 C159 1.268 . S
O138 Eu95 2.291 . S
O138 C158 1.255 . S
O139 Eu84 2.372 . S
O139 C158 1.257 . S
C140 O129 1.249 . S
C140 O130 1.264 . S
C141 C144 1.382 . S
C141 C146 1.390 . S
C141 C148 1.506 . S
C142 C143 1.398 . S
C142 C146 1.392 . S
C143 C142 1.398 . S
C143 C145 1.372 . S
C143 H160 0.931 . S
C144 C141 1.382 . S
C144 C145 1.390 . S
C144 H161 0.931 . S
C145 C143 1.372 . S
C145 C144 1.390 . S
C145 H162 0.929 . S
C146 C141 1.390 . S
C146 C142 1.392 . S
C146 H163 0.930 . S
C147 O132 1.255 . S
C147 O133 1.257 . S
C148 Eu84 2.787 . S
C148 O128 1.252 . S
C148 O131 1.268 . S
C148 C141 1.506 . S
C149 C116 1.439 . S
C149 H126 0.931 . S
C149 C150 1.374 . S
C150 C121 1.387 . S
C150 H127 0.931 . S
C150 C149 1.374 . S
C151 O135 1.249 . S
C151 O136 1.264 . S
C152 C155 1.382 . S
C152 C156 1.390 . S
C152 C159 1.506 . S
C153 C154 1.398 . S
C153 C156 1.392 . S
C154 C153 1.398 . S
C154 C157 1.372 . S
C154 H164 0.931 . S
C155 C152 1.382 . S
C155 C157 1.390 . S
C155 H165 0.931 . S
C156 C152 1.390 . S
C156 C153 1.392 . S
C156 H166 0.930 . S
C157 C154 1.372 . S
C157 C155 1.390 . S
C157 H167 0.929 . S
C158 O138 1.255 . S
C158 O139 1.257 . S
C159 Eu95 2.787 . S
C159 O134 1.252 . S
C159 O137 1.268 . S
C159 C152 1.506 . S
H160 C143 0.931 . S
H161 C144 0.931 . S
H162 C145 0.929 . S
H163 C146 0.930 . S
H164 C154 0.931 . S
H165 C155 0.931 . S
H166 C156 0.930 . S
H167 C157 0.929 . S
Eu168 N197 2.600 . S
Eu168 N203 2.562 . S
Eu168 O212 2.462 . S
Eu168 O213 2.373 . S
Eu168 O215 2.432 . S
Eu168 O216 2.291 . S
Eu168 O220 2.335 . S
Eu168 O223 2.372 . S
Eu168 C232 2.787 . S
C169 N170 1.365 . S
C169 C172 1.405 . S
C169 C176 1.448 . S
N170 C169 1.365 . S
N170 C173 1.319 . S
N170 Eu179 2.600 . S
C171 C173 1.397 . S
C171 C174 1.367 . S
C171 H191 0.931 . S
C172 C169 1.405 . S
C172 C174 1.403 . S
C172 C178 1.439 . S
C173 N170 1.319 . S
C173 C171 1.397 . S
C173 H184 0.930 . S
C174 C171 1.367 . S
C174 C172 1.403 . S
C174 H195 0.929 . S
C175 C176 1.430 . S
C175 C177 1.387 . S
C175 C181 1.404 . S
C176 C169 1.448 . S
C176 C175 1.430 . S
C176 N180 1.351 . S
C177 C175 1.387 . S
C177 C178 1.374 . S
C177 H192 0.931 . S
C178 C172 1.439 . S
C178 C177 1.374 . S
C178 H193 0.931 . S
Eu179 N170 2.600 . S
Eu179 N180 2.562 . S
Eu179 O214 2.335 . S
Eu179 O217 2.372 . S
Eu179 O218 2.462 . S
Eu179 O219 2.373 . S
Eu179 O221 2.432 . S
Eu179 O222 2.291 . S
Eu179 C243 2.787 . S
N180 C176 1.351 . S
N180 Eu179 2.562 . S
N180 C182 1.325 . S
C181 C175 1.404 . S
C181 C183 1.366 . S
C181 H189 0.930 . S
C182 N180 1.325 . S
C182 C183 1.416 . S
C182 H188 0.929 . S
C183 C181 1.366 . S
C183 C182 1.416 . S
C183 H185 0.930 . S
H184 C173 0.930 . S
H185 C183 0.930 . S
H186 C201 0.930 . S
H187 C208 0.930 . S
H188 C182 0.929 . S
H189 C181 0.930 . S
H190 C204 0.929 . S
H191 C171 0.931 . S
H192 C177 0.931 . S
H193 C178 0.931 . S
H194 C199 0.931 . S
H195 C174 0.929 . S
H196 C207 0.930 . S
N197 Eu168 2.600 . S
N197 C198 1.365 . S
N197 C201 1.319 . S
C198 N197 1.365 . S
C198 C200 1.405 . S
C198 C206 1.448 . S
C199 H194 0.931 . S
C199 C201 1.397 . S
C199 C202 1.367 . S
C200 C198 1.405 . S
C200 C202 1.403 . S
C200 C233 1.439 . S
C201 H186 0.930 . S
C201 N197 1.319 . S
C201 C199 1.397 . S
C202 C199 1.367 . S
C202 C200 1.403 . S
C202 H209 0.929 . S
N203 Eu168 2.562 . S
N203 C204 1.325 . S
N203 C206 1.351 . S
C204 H190 0.929 . S
C204 N203 1.325 . S
C204 C208 1.416 . S
C205 C206 1.430 . S
C205 C207 1.404 . S
C205 C234 1.387 . S
C206 C198 1.448 . S
C206 N203 1.351 . S
C206 C205 1.430 . S
C207 H196 0.930 . S
C207 C205 1.404 . S
C207 C208 1.366 . S
C208 H187 0.930 . S
C208 C204 1.416 . S
C208 C207 1.366 . S
H209 C202 0.929 . S
H210 C233 0.931 . S
H211 C234 0.931 . S
O212 Eu168 2.462 . S
O212 C232 1.252 . S
O213 Eu168 2.373 . S
O213 C224 1.249 . S
O214 Eu179 2.335 . S
O214 C224 1.264 . S
O215 Eu168 2.432 . S
O215 C232 1.268 . S
O216 Eu168 2.291 . S
O216 C231 1.255 . S
O217 Eu179 2.372 . S
O217 C231 1.257 . S
O218 Eu179 2.462 . S
O218 C243 1.252 . S
O219 Eu179 2.373 . S
O219 C235 1.249 . S
O220 Eu168 2.335 . S
O220 C235 1.264 . S
O221 Eu179 2.432 . S
O221 C243 1.268 . S
O222 Eu179 2.291 . S
O222 C242 1.255 . S
O223 Eu168 2.372 . S
O223 C242 1.257 . S
C224 O213 1.249 . S
C224 O214 1.264 . S
C225 C228 1.382 . S
C225 C230 1.390 . S
C225 C232 1.506 . S
C226 C227 1.398 . S
C226 C230 1.392 . S
C227 C226 1.398 . S
C227 C229 1.372 . S
C227 H244 0.931 . S
C228 C225 1.382 . S
C228 C229 1.390 . S
C228 H245 0.931 . S
C229 C227 1.372 . S
C229 C228 1.390 . S
C229 H246 0.929 . S
C230 C225 1.390 . S
C230 C226 1.392 . S
C230 H247 0.930 . S
C231 O216 1.255 . S
C231 O217 1.257 . S
C232 Eu168 2.787 . S
C232 O212 1.252 . S
C232 O215 1.268 . S
C232 C225 1.506 . S
C233 C200 1.439 . S
C233 H210 0.931 . S
C233 C234 1.374 . S
C234 C205 1.387 . S
C234 H211 0.931 . S
C234 C233 1.374 . S
C235 O219 1.249 . S
C235 O220 1.264 . S
C236 C239 1.382 . S
C236 C240 1.390 . S
C236 C243 1.506 . S
C237 C238 1.398 . S
C237 C240 1.392 . S
C238 C237 1.398 . S
C238 C241 1.372 . S
C238 H248 0.931 . S
C239 C236 1.382 . S
C239 C241 1.390 . S
C239 H249 0.931 . S
C240 C236 1.390 . S
C240 C237 1.392 . S
C240 H250 0.930 . S
C241 C238 1.372 . S
C241 C239 1.390 . S
C241 H251 0.929 . S
C242 O222 1.255 . S
C242 O223 1.257 . S
C243 Eu179 2.787 . S
C243 O218 1.252 . S
C243 O221 1.268 . S
C243 C236 1.506 . S
H244 C227 0.931 . S
H245 C228 0.931 . S
H246 C229 0.929 . S
H247 C230 0.930 . S
H248 C238 0.931 . S
H249 C239 0.931 . S
H250 C240 0.930 . S
H251 C241 0.929 . S
Eu252 N281 2.600 . S
Eu252 N287 2.562 . S
Eu252 O296 2.462 . S
Eu252 O297 2.373 . S
Eu252 O299 2.432 . S
Eu252 O300 2.291 . S
Eu252 O304 2.335 . S
Eu252 O307 2.372 . S
Eu252 C316 2.787 . S
C253 N254 1.365 . S
C253 C256 1.405 . S
C253 C260 1.448 . S
N254 C253 1.365 . S
N254 C257 1.319 . S
N254 Eu263 2.600 . S
C255 C257 1.397 . S
C255 C258 1.367 . S
C255 H275 0.931 . S
C256 C253 1.405 . S
C256 C258 1.403 . S
C256 C262 1.439 . S
C257 N254 1.319 . S
C257 C255 1.397 . S
C257 H268 0.930 . S
C258 C255 1.367 . S
C258 C256 1.403 . S
C258 H279 0.929 . S
C259 C260 1.430 . S
C259 C261 1.387 . S
C259 C265 1.404 . S
C260 C253 1.448 . S
C260 C259 1.430 . S
C260 N264 1.351 . S
C261 C259 1.387 . S
C261 C262 1.374 . S
C261 H276 0.931 . S
C262 C256 1.439 . S
C262 C261 1.374 . S
C262 H277 0.931 . S
Eu263 N254 2.600 . S
Eu263 N264 2.562 . S
Eu263 O298 2.335 . S
Eu263 O301 2.372 . S
Eu263 O302 2.462 . S
Eu263 O303 2.373 . S
Eu263 O305 2.432 . S
Eu263 O306 2.291 . S
Eu263 C327 2.787 . S
N264 C260 1.351 . S
N264 Eu263 2.562 . S
N264 C266 1.325 . S
C265 C259 1.404 . S
C265 C267 1.366 . S
C265 H273 0.930 . S
C266 N264 1.325 . S
C266 C267 1.416 . S
C266 H272 0.929 . S
C267 C265 1.366 . S
C267 C266 1.416 . S
C267 H269 0.930 . S
H268 C257 0.930 . S
H269 C267 0.930 . S
H270 C285 0.930 . S
H271 C292 0.930 . S
H272 C266 0.929 . S
H273 C265 0.930 . S
H274 C288 0.929 . S
H275 C255 0.931 . S
H276 C261 0.931 . S
H277 C262 0.931 . S
H278 C283 0.931 . S
H279 C258 0.929 . S
H280 C291 0.930 . S
N281 Eu252 2.600 . S
N281 C282 1.365 . S
N281 C285 1.319 . S
C282 N281 1.365 . S
C282 C284 1.405 . S
C282 C290 1.448 . S
C283 H278 0.931 . S
C283 C285 1.397 . S
C283 C286 1.367 . S
C284 C282 1.405 . S
C284 C286 1.403 . S
C284 C317 1.439 . S
C285 H270 0.930 . S
C285 N281 1.319 . S
C285 C283 1.397 . S
C286 C283 1.367 . S
C286 C284 1.403 . S
C286 H293 0.929 . S
N287 Eu252 2.562 . S
N287 C288 1.325 . S
N287 C290 1.351 . S
C288 H274 0.929 . S
C288 N287 1.325 . S
C288 C292 1.416 . S
C289 C290 1.430 . S
C289 C291 1.404 . S
C289 C318 1.387 . S
C290 C282 1.448 . S
C290 N287 1.351 . S
C290 C289 1.430 . S
C291 H280 0.930 . S
C291 C289 1.404 . S
C291 C292 1.366 . S
C292 H271 0.930 . S
C292 C288 1.416 . S
C292 C291 1.366 . S
H293 C286 0.929 . S
H294 C317 0.931 . S
H295 C318 0.931 . S
O296 Eu252 2.462 . S
O296 C316 1.252 . S
O297 Eu252 2.373 . S
O297 C308 1.249 . S
O298 Eu263 2.335 . S
O298 C308 1.264 . S
O299 Eu252 2.432 . S
O299 C316 1.268 . S
O300 Eu252 2.291 . S
O300 C315 1.255 . S
O301 Eu263 2.372 . S
O301 C315 1.257 . S
O302 Eu263 2.462 . S
O302 C327 1.252 . S
O303 Eu263 2.373 . S
O303 C319 1.249 . S
O304 Eu252 2.335 . S
O304 C319 1.264 . S
O305 Eu263 2.432 . S
O305 C327 1.268 . S
O306 Eu263 2.291 . S
O306 C326 1.255 . S
O307 Eu252 2.372 . S
O307 C326 1.257 . S
C308 O297 1.249 . S
C308 O298 1.264 . S
C309 C312 1.382 . S
C309 C314 1.390 . S
C309 C316 1.506 . S
C310 C311 1.398 . S
C310 C314 1.392 . S
C311 C310 1.398 . S
C311 C313 1.372 . S
C311 H328 0.931 . S
C312 C309 1.382 . S
C312 C313 1.390 . S
C312 H329 0.931 . S
C313 C311 1.372 . S
C313 C312 1.390 . S
C313 H330 0.929 . S
C314 C309 1.390 . S
C314 C310 1.392 . S
C314 H331 0.930 . S
C315 O300 1.255 . S
C315 O301 1.257 . S
C316 Eu252 2.787 . S
C316 O296 1.252 . S
C316 O299 1.268 . S
C316 C309 1.506 . S
C317 C284 1.439 . S
C317 H294 0.931 . S
C317 C318 1.374 . S
C318 C289 1.387 . S
C318 H295 0.931 . S
C318 C317 1.374 . S
C319 O303 1.249 . S
C319 O304 1.264 . S
C320 C323 1.382 . S
C320 C324 1.390 . S
C320 C327 1.506 . S
C321 C322 1.398 . S
C321 C324 1.392 . S
C322 C321 1.398 . S
C322 C325 1.372 . S
C322 H332 0.931 . S
C323 C320 1.382 . S
C323 C325 1.390 . S
C323 H333 0.931 . S
C324 C320 1.390 . S
C324 C321 1.392 . S
C324 H334 0.930 . S
C325 C322 1.372 . S
C325 C323 1.390 . S
C325 H335 0.929 . S
C326 O306 1.255 . S
C326 O307 1.257 . S
C327 Eu263 2.787 . S
C327 O302 1.252 . S
C327 O305 1.268 . S
C327 C320 1.506 . S
H328 C311 0.931 . S
H329 C312 0.931 . S
H330 C313 0.929 . S
H331 C314 0.930 . S
H332 C322 0.931 . S
H333 C323 0.931 . S
H334 C324 0.930 . S
H335 C325 0.929 . S
Eu336 N365 2.600 . S
Eu336 N371 2.562 . S
Eu336 O380 2.462 . S
Eu336 O381 2.373 . S
Eu336 O383 2.432 . S
Eu336 O384 2.291 . S
Eu336 O388 2.335 . S
Eu336 O391 2.372 . S
Eu336 C400 2.787 . S
C337 N338 1.365 . S
C337 C340 1.405 . S
C337 C344 1.448 . S
N338 C337 1.365 . S
N338 C341 1.319 . S
N338 Eu347 2.600 . S
C339 C341 1.397 . S
C339 C342 1.367 . S
C339 H359 0.931 . S
C340 C337 1.405 . S
C340 C342 1.403 . S
C340 C346 1.439 . S
C341 N338 1.319 . S
C341 C339 1.397 . S
C341 H352 0.930 . S
C342 C339 1.367 . S
C342 C340 1.403 . S
C342 H363 0.929 . S
C343 C344 1.430 . S
C343 C345 1.387 . S
C343 C349 1.404 . S
C344 C337 1.448 . S
C344 C343 1.430 . S
C344 N348 1.351 . S
C345 C343 1.387 . S
C345 C346 1.374 . S
C345 H360 0.931 . S
C346 C340 1.439 . S
C346 C345 1.374 . S
C346 H361 0.931 . S
Eu347 N338 2.600 . S
Eu347 N348 2.562 . S
Eu347 O382 2.335 . S
Eu347 O385 2.372 . S
Eu347 O386 2.462 . S
Eu347 O387 2.373 . S
Eu347 O389 2.432 . S
Eu347 O390 2.291 . S
Eu347 C411 2.787 . S
N348 C344 1.351 . S
N348 Eu347 2.562 . S
N348 C350 1.325 . S
C349 C343 1.404 . S
C349 C351 1.366 . S
C349 H357 0.930 . S
C350 N348 1.325 . S
C350 C351 1.416 . S
C350 H356 0.929 . S
C351 C349 1.366 . S
C351 C350 1.416 . S
C351 H353 0.930 . S
H352 C341 0.930 . S
H353 C351 0.930 . S
H354 C369 0.930 . S
H355 C376 0.930 . S
H356 C350 0.929 . S
H357 C349 0.930 . S
H358 C372 0.929 . S
H359 C339 0.931 . S
H360 C345 0.931 . S
H361 C346 0.931 . S
H362 C367 0.931 . S
H363 C342 0.929 . S
H364 C375 0.930 . S
N365 Eu336 2.600 . S
N365 C366 1.365 . S
N365 C369 1.319 . S
C366 N365 1.365 . S
C366 C368 1.405 . S
C366 C374 1.448 . S
C367 H362 0.931 . S
C367 C369 1.397 . S
C367 C370 1.367 . S
C368 C366 1.405 . S
C368 C370 1.403 . S
C368 C401 1.439 . S
C369 H354 0.930 . S
C369 N365 1.319 . S
C369 C367 1.397 . S
C370 C367 1.367 . S
C370 C368 1.403 . S
C370 H377 0.929 . S
N371 Eu336 2.562 . S
N371 C372 1.325 . S
N371 C374 1.351 . S
C372 H358 0.929 . S
C372 N371 1.325 . S
C372 C376 1.416 . S
C373 C374 1.430 . S
C373 C375 1.404 . S
C373 C402 1.387 . S
C374 C366 1.448 . S
C374 N371 1.351 . S
C374 C373 1.430 . S
C375 H364 0.930 . S
C375 C373 1.404 . S
C375 C376 1.366 . S
C376 H355 0.930 . S
C376 C372 1.416 . S
C376 C375 1.366 . S
H377 C370 0.929 . S
H378 C401 0.931 . S
H379 C402 0.931 . S
O380 Eu336 2.462 . S
O380 C400 1.252 . S
O381 Eu336 2.373 . S
O381 C392 1.249 . S
O382 Eu347 2.335 . S
O382 C392 1.264 . S
O383 Eu336 2.432 . S
O383 C400 1.268 . S
O384 Eu336 2.291 . S
O384 C399 1.255 . S
O385 Eu347 2.372 . S
O385 C399 1.257 . S
O386 Eu347 2.462 . S
O386 C411 1.252 . S
O387 Eu347 2.373 . S
O387 C403 1.249 . S
O388 Eu336 2.335 . S
O388 C403 1.264 . S
O389 Eu347 2.432 . S
O389 C411 1.268 . S
O390 Eu347 2.291 . S
O390 C410 1.255 . S
O391 Eu336 2.372 . S
O391 C410 1.257 . S
C392 O381 1.249 . S
C392 O382 1.264 . S
C393 C396 1.382 . S
C393 C398 1.390 . S
C393 C400 1.506 . S
C394 C395 1.398 . S
C394 C398 1.392 . S
C395 C394 1.398 . S
C395 C397 1.372 . S
C395 H412 0.931 . S
C396 C393 1.382 . S
C396 C397 1.390 . S
C396 H413 0.931 . S
C397 C395 1.372 . S
C397 C396 1.390 . S
C397 H414 0.929 . S
C398 C393 1.390 . S
C398 C394 1.392 . S
C398 H415 0.930 . S
C399 O384 1.255 . S
C399 O385 1.257 . S
C400 Eu336 2.787 . S
C400 O380 1.252 . S
C400 O383 1.268 . S
C400 C393 1.506 . S
C401 C368 1.439 . S
C401 H378 0.931 . S
C401 C402 1.374 . S
C402 C373 1.387 . S
C402 H379 0.931 . S
C402 C401 1.374 . S
C403 O387 1.249 . S
C403 O388 1.264 . S
C404 C407 1.382 . S
C404 C408 1.390 . S
C404 C411 1.506 . S
C405 C406 1.398 . S
C405 C408 1.392 . S
C406 C405 1.398 . S
C406 C409 1.372 . S
C406 H416 0.931 . S
C407 C404 1.382 . S
C407 C409 1.390 . S
C407 H417 0.931 . S
C408 C404 1.390 . S
C408 C405 1.392 . S
C408 H418 0.930 . S
C409 C406 1.372 . S
C409 C407 1.390 . S
C409 H419 0.929 . S
C410 O390 1.255 . S
C410 O391 1.257 . S
C411 Eu347 2.787 . S
C411 O386 1.252 . S
C411 O389 1.268 . S
C411 C404 1.506 . S
H412 C395 0.931 . S
H413 C396 0.931 . S
H414 C397 0.929 . S
H415 C398 0.930 . S
H416 C406 0.931 . S
H417 C407 0.931 . S
H418 C408 0.930 . S
H419 C409 0.929 . S
Eu420 N449 2.600 . S
Eu420 N455 2.562 . S
Eu420 O464 2.462 . S
Eu420 O465 2.373 . S
Eu420 O467 2.432 . S
Eu420 O468 2.291 . S
Eu420 O472 2.335 . S
Eu420 O475 2.372 . S
Eu420 C484 2.787 . S
C421 N422 1.365 . S
C421 C424 1.405 . S
C421 C428 1.448 . S
N422 C421 1.365 . S
N422 C425 1.319 . S
N422 Eu431 2.600 . S
C423 C425 1.397 . S
C423 C426 1.367 . S
C423 H443 0.931 . S
C424 C421 1.405 . S
C424 C426 1.403 . S
C424 C430 1.439 . S
C425 N422 1.319 . S
C425 C423 1.397 . S
C425 H436 0.930 . S
C426 C423 1.367 . S
C426 C424 1.403 . S
C426 H447 0.929 . S
C427 C428 1.430 . S
C427 C429 1.387 . S
C427 C433 1.404 . S
C428 C421 1.448 . S
C428 C427 1.430 . S
C428 N432 1.351 . S
C429 C427 1.387 . S
C429 C430 1.374 . S
C429 H444 0.931 . S
C430 C424 1.439 . S
C430 C429 1.374 . S
C430 H445 0.931 . S
Eu431 N422 2.600 . S
Eu431 N432 2.562 . S
Eu431 O466 2.335 . S
Eu431 O469 2.372 . S
Eu431 O470 2.462 . S
Eu431 O471 2.373 . S
Eu431 O473 2.432 . S
Eu431 O474 2.291 . S
Eu431 C495 2.787 . S
N432 C428 1.351 . S
N432 Eu431 2.562 . S
N432 C434 1.325 . S
C433 C427 1.404 . S
C433 C435 1.366 . S
C433 H441 0.930 . S
C434 N432 1.325 . S
C434 C435 1.416 . S
C434 H440 0.929 . S
C435 C433 1.366 . S
C435 C434 1.416 . S
C435 H437 0.930 . S
H436 C425 0.930 . S
H437 C435 0.930 . S
H438 C453 0.930 . S
H439 C460 0.930 . S
H440 C434 0.929 . S
H441 C433 0.930 . S
H442 C456 0.929 . S
H443 C423 0.931 . S
H444 C429 0.931 . S
H445 C430 0.931 . S
H446 C451 0.931 . S
H447 C426 0.929 . S
H448 C459 0.930 . S
N449 Eu420 2.600 . S
N449 C450 1.365 . S
N449 C453 1.319 . S
C450 N449 1.365 . S
C450 C452 1.405 . S
C450 C458 1.448 . S
C451 H446 0.931 . S
C451 C453 1.397 . S
C451 C454 1.367 . S
C452 C450 1.405 . S
C452 C454 1.403 . S
C452 C485 1.439 . S
C453 H438 0.930 . S
C453 N449 1.319 . S
C453 C451 1.397 . S
C454 C451 1.367 . S
C454 C452 1.403 . S
C454 H461 0.929 . S
N455 Eu420 2.562 . S
N455 C456 1.325 . S
N455 C458 1.351 . S
C456 H442 0.929 . S
C456 N455 1.325 . S
C456 C460 1.416 . S
C457 C458 1.430 . S
C457 C459 1.404 . S
C457 C486 1.387 . S
C458 C450 1.448 . S
C458 N455 1.351 . S
C458 C457 1.430 . S
C459 H448 0.930 . S
C459 C457 1.404 . S
C459 C460 1.366 . S
C460 H439 0.930 . S
C460 C456 1.416 . S
C460 C459 1.366 . S
H461 C454 0.929 . S
H462 C485 0.931 . S
H463 C486 0.931 . S
O464 Eu420 2.462 . S
O464 C484 1.252 . S
O465 Eu420 2.373 . S
O465 C476 1.249 . S
O466 Eu431 2.335 . S
O466 C476 1.264 . S
O467 Eu420 2.432 . S
O467 C484 1.268 . S
O468 Eu420 2.291 . S
O468 C483 1.255 . S
O469 Eu431 2.372 . S
O469 C483 1.257 . S
O470 Eu431 2.462 . S
O470 C495 1.252 . S
O471 Eu431 2.373 . S
O471 C487 1.249 . S
O472 Eu420 2.335 . S
O472 C487 1.264 . S
O473 Eu431 2.432 . S
O473 C495 1.268 . S
O474 Eu431 2.291 . S
O474 C494 1.255 . S
O475 Eu420 2.372 . S
O475 C494 1.257 . S
C476 O465 1.249 . S
C476 O466 1.264 . S
C477 C480 1.382 . S
C477 C482 1.390 . S
C477 C484 1.506 . S
C478 C479 1.398 . S
C478 C482 1.392 . S
C479 C478 1.398 . S
C479 C481 1.372 . S
C479 H496 0.931 . S
C480 C477 1.382 . S
C480 C481 1.390 . S
C480 H497 0.931 . S
C481 C479 1.372 . S
C481 C480 1.390 . S
C481 H498 0.929 . S
C482 C477 1.390 . S
C482 C478 1.392 . S
C482 H499 0.930 . S
C483 O468 1.255 . S
C483 O469 1.257 . S
C484 Eu420 2.787 . S
C484 O464 1.252 . S
C484 O467 1.268 . S
C484 C477 1.506 . S
C485 C452 1.439 . S
C485 H462 0.931 . S
C485 C486 1.374 . S
C486 C457 1.387 . S
C486 H463 0.931 . S
C486 C485 1.374 . S
C487 O471 1.249 . S
C487 O472 1.264 . S
C488 C491 1.382 . S
C488 C492 1.390 . S
C488 C495 1.506 . S
C489 C490 1.398 . S
C489 C492 1.392 . S
C490 C489 1.398 . S
C490 C493 1.372 . S
C490 H500 0.931 . S
C491 C488 1.382 . S
C491 C493 1.390 . S
C491 H501 0.931 . S
C492 C488 1.390 . S
C492 C489 1.392 . S
C492 H502 0.930 . S
C493 C490 1.372 . S
C493 C491 1.390 . S
C493 H503 0.929 . S
C494 O474 1.255 . S
C494 O475 1.257 . S
C495 Eu431 2.787 . S
C495 O470 1.252 . S
C495 O473 1.268 . S
C495 C488 1.506 . S
H496 C479 0.931 . S
H497 C480 0.931 . S
H498 C481 0.929 . S
H499 C482 0.930 . S
H500 C490 0.931 . S
H501 C491 0.931 . S
H502 C492 0.930 . S
H503 C493 0.929 . S
Eu504 N533 2.600 . S
Eu504 N539 2.562 . S
Eu504 O548 2.462 . S
Eu504 O549 2.373 . S
Eu504 O551 2.432 . S
Eu504 O552 2.291 . S
Eu504 O556 2.335 . S
Eu504 O559 2.372 . S
Eu504 C568 2.787 . S
C505 N506 1.365 . S
C505 C508 1.405 . S
C505 C512 1.448 . S
N506 C505 1.365 . S
N506 C509 1.319 . S
N506 Eu515 2.600 . S
C507 C509 1.397 . S
C507 C510 1.367 . S
C507 H527 0.931 . S
C508 C505 1.405 . S
C508 C510 1.403 . S
C508 C514 1.439 . S
C509 N506 1.319 . S
C509 C507 1.397 . S
C509 H520 0.930 . S
C510 C507 1.367 . S
C510 C508 1.403 . S
C510 H531 0.929 . S
C511 C512 1.430 . S
C511 C513 1.387 . S
C511 C517 1.404 . S
C512 C505 1.448 . S
C512 C511 1.430 . S
C512 N516 1.351 . S
C513 C511 1.387 . S
C513 C514 1.374 . S
C513 H528 0.931 . S
C514 C508 1.439 . S
C514 C513 1.374 . S
C514 H529 0.931 . S
Eu515 N506 2.600 . S
Eu515 N516 2.562 . S
Eu515 O550 2.335 . S
Eu515 O553 2.372 . S
Eu515 O554 2.462 . S
Eu515 O555 2.373 . S
Eu515 O557 2.432 . S
Eu515 O558 2.291 . S
Eu515 C579 2.787 . S
N516 C512 1.351 . S
N516 Eu515 2.562 . S
N516 C518 1.325 . S
C517 C511 1.404 . S
C517 C519 1.366 . S
C517 H525 0.930 . S
C518 N516 1.325 . S
C518 C519 1.416 . S
C518 H524 0.929 . S
C519 C517 1.366 . S
C519 C518 1.416 . S
C519 H521 0.930 . S
H520 C509 0.930 . S
H521 C519 0.930 . S
H522 C537 0.930 . S
H523 C544 0.930 . S
H524 C518 0.929 . S
H525 C517 0.930 . S
H526 C540 0.929 . S
H527 C507 0.931 . S
H528 C513 0.931 . S
H529 C514 0.931 . S
H530 C535 0.931 . S
H531 C510 0.929 . S
H532 C543 0.930 . S
N533 Eu504 2.600 . S
N533 C534 1.365 . S
N533 C537 1.319 . S
C534 N533 1.365 . S
C534 C536 1.405 . S
C534 C542 1.448 . S
C535 H530 0.931 . S
C535 C537 1.397 . S
C535 C538 1.367 . S
C536 C534 1.405 . S
C536 C538 1.403 . S
C536 C569 1.439 . S
C537 H522 0.930 . S
C537 N533 1.319 . S
C537 C535 1.397 . S
C538 C535 1.367 . S
C538 C536 1.403 . S
C538 H545 0.929 . S
N539 Eu504 2.562 . S
N539 C540 1.325 . S
N539 C542 1.351 . S
C540 H526 0.929 . S
C540 N539 1.325 . S
C540 C544 1.416 . S
C541 C542 1.430 . S
C541 C543 1.404 . S
C541 C570 1.387 . S
C542 C534 1.448 . S
C542 N539 1.351 . S
C542 C541 1.430 . S
C543 H532 0.930 . S
C543 C541 1.404 . S
C543 C544 1.366 . S
C544 H523 0.930 . S
C544 C540 1.416 . S
C544 C543 1.366 . S
H545 C538 0.929 . S
H546 C569 0.931 . S
H547 C570 0.931 . S
O548 Eu504 2.462 . S
O548 C568 1.252 . S
O549 Eu504 2.373 . S
O549 C560 1.249 . S
O550 Eu515 2.335 . S
O550 C560 1.264 . S
O551 Eu504 2.432 . S
O551 C568 1.268 . S
O552 Eu504 2.291 . S
O552 C567 1.255 . S
O553 Eu515 2.372 . S
O553 C567 1.257 . S
O554 Eu515 2.462 . S
O554 C579 1.252 . S
O555 Eu515 2.373 . S
O555 C571 1.249 . S
O556 Eu504 2.335 . S
O556 C571 1.264 . S
O557 Eu515 2.432 . S
O557 C579 1.268 . S
O558 Eu515 2.291 . S
O558 C578 1.255 . S
O559 Eu504 2.372 . S
O559 C578 1.257 . S
C560 O549 1.249 . S
C560 O550 1.264 . S
C561 C564 1.382 . S
C561 C566 1.390 . S
C561 C568 1.506 . S
C562 C563 1.398 . S
C562 C566 1.392 . S
C563 C562 1.398 . S
C563 C565 1.372 . S
C563 H580 0.931 . S
C564 C561 1.382 . S
C564 C565 1.390 . S
C564 H581 0.931 . S
C565 C563 1.372 . S
C565 C564 1.390 . S
C565 H582 0.929 . S
C566 C561 1.390 . S
C566 C562 1.392 . S
C566 H583 0.930 . S
C567 O552 1.255 . S
C567 O553 1.257 . S
C568 Eu504 2.787 . S
C568 O548 1.252 . S
C568 O551 1.268 . S
C568 C561 1.506 . S
C569 C536 1.439 . S
C569 H546 0.931 . S
C569 C570 1.374 . S
C570 C541 1.387 . S
C570 H547 0.931 . S
C570 C569 1.374 . S
C571 O555 1.249 . S
C571 O556 1.264 . S
C572 C575 1.382 . S
C572 C576 1.390 . S
C572 C579 1.506 . S
C573 C574 1.398 . S
C573 C576 1.392 . S
C574 C573 1.398 . S
C574 C577 1.372 . S
C574 H584 0.931 . S
C575 C572 1.382 . S
C575 C577 1.390 . S
C575 H585 0.931 . S
C576 C572 1.390 . S
C576 C573 1.392 . S
C576 H586 0.930 . S
C577 C574 1.372 . S
C577 C575 1.390 . S
C577 H587 0.929 . S
C578 O558 1.255 . S
C578 O559 1.257 . S
C579 Eu515 2.787 . S
C579 O554 1.252 . S
C579 O557 1.268 . S
C579 C572 1.506 . S
H580 C563 0.931 . S
H581 C564 0.931 . S
H582 C565 0.929 . S
H583 C566 0.930 . S
H584 C574 0.931 . S
H585 C575 0.931 . S
H586 C576 0.930 . S
H587 C577 0.929 . S
Eu588 N617 2.600 . S
Eu588 N623 2.562 . S
Eu588 O632 2.462 . S
Eu588 O633 2.373 . S
Eu588 O635 2.432 . S
Eu588 O636 2.291 . S
Eu588 O640 2.335 . S
Eu588 O643 2.372 . S
Eu588 C652 2.787 . S
C589 N590 1.365 . S
C589 C592 1.405 . S
C589 C596 1.448 . S
N590 C589 1.365 . S
N590 C593 1.319 . S
N590 Eu599 2.600 . S
C591 C593 1.397 . S
C591 C594 1.367 . S
C591 H611 0.931 . S
C592 C589 1.405 . S
C592 C594 1.403 . S
C592 C598 1.439 . S
C593 N590 1.319 . S
C593 C591 1.397 . S
C593 H604 0.930 . S
C594 C591 1.367 . S
C594 C592 1.403 . S
C594 H615 0.929 . S
C595 C596 1.430 . S
C595 C597 1.387 . S
C595 C601 1.404 . S
C596 C589 1.448 . S
C596 C595 1.430 . S
C596 N600 1.351 . S
C597 C595 1.387 . S
C597 C598 1.374 . S
C597 H612 0.931 . S
C598 C592 1.439 . S
C598 C597 1.374 . S
C598 H613 0.931 . S
Eu599 N590 2.600 . S
Eu599 N600 2.562 . S
Eu599 O634 2.335 . S
Eu599 O637 2.372 . S
Eu599 O638 2.462 . S
Eu599 O639 2.373 . S
Eu599 O641 2.432 . S
Eu599 O642 2.291 . S
Eu599 C663 2.787 . S
N600 C596 1.351 . S
N600 Eu599 2.562 . S
N600 C602 1.325 . S
C601 C595 1.404 . S
C601 C603 1.366 . S
C601 H609 0.930 . S
C602 N600 1.325 . S
C602 C603 1.416 . S
C602 H608 0.929 . S
C603 C601 1.366 . S
C603 C602 1.416 . S
C603 H605 0.930 . S
H604 C593 0.930 . S
H605 C603 0.930 . S
H606 C621 0.930 . S
H607 C628 0.930 . S
H608 C602 0.929 . S
H609 C601 0.930 . S
H610 C624 0.929 . S
H611 C591 0.931 . S
H612 C597 0.931 . S
H613 C598 0.931 . S
H614 C619 0.931 . S
H615 C594 0.929 . S
H616 C627 0.930 . S
N617 Eu588 2.600 . S
N617 C618 1.365 . S
N617 C621 1.319 . S
C618 N617 1.365 . S
C618 C620 1.405 . S
C618 C626 1.448 . S
C619 H614 0.931 . S
C619 C621 1.397 . S
C619 C622 1.367 . S
C620 C618 1.405 . S
C620 C622 1.403 . S
C620 C653 1.439 . S
C621 H606 0.930 . S
C621 N617 1.319 . S
C621 C619 1.397 . S
C622 C619 1.367 . S
C622 C620 1.403 . S
C622 H629 0.929 . S
N623 Eu588 2.562 . S
N623 C624 1.325 . S
N623 C626 1.351 . S
C624 H610 0.929 . S
C624 N623 1.325 . S
C624 C628 1.416 . S
C625 C626 1.430 . S
C625 C627 1.404 . S
C625 C654 1.387 . S
C626 C618 1.448 . S
C626 N623 1.351 . S
C626 C625 1.430 . S
C627 H616 0.930 . S
C627 C625 1.404 . S
C627 C628 1.366 . S
C628 H607 0.930 . S
C628 C624 1.416 . S
C628 C627 1.366 . S
H629 C622 0.929 . S
H630 C653 0.931 . S
H631 C654 0.931 . S
O632 Eu588 2.462 . S
O632 C652 1.252 . S
O633 Eu588 2.373 . S
O633 C644 1.249 . S
O634 Eu599 2.335 . S
O634 C644 1.264 . S
O635 Eu588 2.432 . S
O635 C652 1.268 . S
O636 Eu588 2.291 . S
O636 C651 1.255 . S
O637 Eu599 2.372 . S
O637 C651 1.257 . S
O638 Eu599 2.462 . S
O638 C663 1.252 . S
O639 Eu599 2.373 . S
O639 C655 1.249 . S
O640 Eu588 2.335 . S
O640 C655 1.264 . S
O641 Eu599 2.432 . S
O641 C663 1.268 . S
O642 Eu599 2.291 . S
O642 C662 1.255 . S
O643 Eu588 2.372 . S
O643 C662 1.257 . S
C644 O633 1.249 . S
C644 O634 1.264 . S
C645 C648 1.382 . S
C645 C650 1.390 . S
C645 C652 1.506 . S
C646 C647 1.398 . S
C646 C650 1.392 . S
C647 C646 1.398 . S
C647 C649 1.372 . S
C647 H664 0.931 . S
C648 C645 1.382 . S
C648 C649 1.390 . S
C648 H665 0.931 . S
C649 C647 1.372 . S
C649 C648 1.390 . S
C649 H666 0.929 . S
C650 C645 1.390 . S
C650 C646 1.392 . S
C650 H667 0.930 . S
C651 O636 1.255 . S
C651 O637 1.257 . S
C652 Eu588 2.787 . S
C652 O632 1.252 . S
C652 O635 1.268 . S
C652 C645 1.506 . S
C653 C620 1.439 . S
C653 H630 0.931 . S
C653 C654 1.374 . S
C654 C625 1.387 . S
C654 H631 0.931 . S
C654 C653 1.374 . S
C655 O639 1.249 . S
C655 O640 1.264 . S
C656 C659 1.382 . S
C656 C660 1.390 . S
C656 C663 1.506 . S
C657 C658 1.398 . S
C657 C660 1.392 . S
C658 C657 1.398 . S
C658 C661 1.372 . S
C658 H668 0.931 . S
C659 C656 1.382 . S
C659 C661 1.390 . S
C659 H669 0.931 . S
C660 C656 1.390 . S
C660 C657 1.392 . S
C660 H670 0.930 . S
C661 C658 1.372 . S
C661 C659 1.390 . S
C661 H671 0.929 . S
C662 O642 1.255 . S
C662 O643 1.257 . S
C663 Eu599 2.787 . S
C663 O638 1.252 . S
C663 O641 1.268 . S
C663 C656 1.506 . S
H664 C647 0.931 . S
H665 C648 0.931 . S
H666 C649 0.929 . S
H667 C650 0.930 . S
H668 C658 0.931 . S
H669 C659 0.931 . S
H670 C660 0.930 . S
H671 C661 0.929 . S
Fe672 O673 1.886 1_455 S
Fe672 O676 1.715 . S
Fe672 O681 2.077 1_455 S
Fe672 O686 1.935 . S
Fe672 O692 2.077 1_455 S
Fe672 O701 1.935 . S
O673 Fe672 1.886 1_655 S
O673 Fe675 1.715 1_545 S
Fe674 O676 1.886 . S
Fe674 O677 1.715 1_545 S
Fe674 O684 1.935 1_545 S
Fe674 O685 2.077 . S
Fe674 O691 1.935 1_545 S
Fe674 O700 2.077 . S
Fe675 O673 1.715 1_565 S
Fe675 O678 1.886 . S
Fe675 O682 1.935 1_565 S
Fe675 O687 2.077 . S
Fe675 O693 1.935 1_565 S
Fe675 O697 2.077 . S
O676 Fe672 1.715 . S
O676 Fe674 1.886 . S
O677 Fe674 1.715 1_565 S
O677 Fe679 1.886 1_455 S
O678 Fe675 1.886 . S
O678 Fe679 1.715 . S
Fe679 O677 1.886 1_655 S
Fe679 O678 1.715 . S
Fe679 O683 2.077 1_655 S
Fe679 O688 1.935 . S
Fe679 O690 2.077 1_655 S
Fe679 O698 1.935 . S
C680 O692 1.381 . S
C680 O693 1.421 . S
O681 Fe672 2.077 1_655 S
O681 C694 1.381 . S
O682 Fe675 1.935 1_545 S
O682 C694 1.421 . S
O683 Fe679 2.077 1_455 S
O683 C699 1.381 . S
O684 Fe674 1.935 1_565 S
O684 C699 1.421 . S
O685 Fe674 2.077 . S
O685 C689 1.381 . S
O686 Fe672 1.935 . S
O686 C689 1.421 . S
O687 Fe675 2.077 . S
O687 C695 1.381 . S
O688 Fe679 1.935 . S
O688 C695 1.421 . S
C689 O685 1.381 . S
C689 O686 1.421 . S
O690 Fe679 2.077 1_455 S
O690 C702 1.381 . S
O691 Fe674 1.935 1_565 S
O691 C702 1.421 . S
O692 Fe672 2.077 1_655 S
O692 C680 1.381 . S
O693 Fe675 1.935 1_545 S
O693 C680 1.421 . S
C694 O681 1.381 . S
C694 O682 1.421 . S
C695 O687 1.381 . S
C695 O688 1.421 . S
C696 O697 1.381 . S
C696 O698 1.421 . S
O697 Fe675 2.077 . S
O697 C696 1.381 . S
O698 Fe679 1.935 . S
O698 C696 1.421 . S
C699 O683 1.381 . S
C699 O684 1.421 . S
O700 Fe674 2.077 . S
O700 C703 1.381 . S
O701 Fe672 1.935 . S
O701 C703 1.421 . S
C702 O690 1.381 . S
C702 O691 1.421 . S
C703 O700 1.381 . S
C703 O701 1.421 . S
Fe704 O705 1.886 . S
Fe704 O708 1.714 . S
Fe704 O713 2.077 . S
Fe704 O718 1.935 . S
Fe704 O724 2.077 1_556 S
Fe704 O733 1.935 1_556 S
O705 Fe704 1.886 . S
O705 Fe707 1.715 1_565 S
Fe706 O708 1.886 1_554 S
Fe706 O709 1.715 1_565 S
Fe706 O716 1.935 1_564 S
Fe706 O717 2.077 1_554 S
Fe706 O723 1.935 1_565 S
Fe706 O732 2.077 . S
Fe707 O705 1.715 1_545 S
Fe707 O710 1.888 1_556 S
Fe707 O714 1.935 1_545 S
Fe707 O719 2.077 . S
Fe707 O725 1.935 1_546 S
Fe707 O729 2.077 1_556 S
O708 Fe704 1.714 . S
O708 Fe706 1.886 1_556 S
O709 Fe706 1.715 1_545 S
O709 Fe711 1.886 . S
O710 Fe707 1.888 1_554 S
O710 Fe711 1.713 . S
Fe711 O709 1.886 . S
Fe711 O710 1.713 . S
Fe711 O715 2.077 1_554 S
Fe711 O720 1.935 1_554 S
Fe711 O722 2.077 . S
Fe711 O730 1.935 . S
C712 O724 1.381 . S
C712 O725 1.421 . S
O713 Fe704 2.077 . S
O713 C726 1.381 . S
O714 Fe707 1.935 1_565 S
O714 C726 1.421 . S
O715 Fe711 2.077 1_556 S
O715 C731 1.381 . S
O716 Fe706 1.935 1_546 S
O716 C731 1.421 . S
O717 Fe706 2.077 1_556 S
O717 C721 1.381 . S
O718 Fe704 1.935 . S
O718 C721 1.421 . S
O719 Fe707 2.077 . S
O719 C727 1.381 . S
O720 Fe711 1.935 1_556 S
O720 C727 1.421 . S
C721 O717 1.381 . S
C721 O718 1.421 . S
O722 Fe711 2.077 . S
O722 C734 1.381 . S
O723 Fe706 1.935 1_545 S
O723 C734 1.421 . S
O724 Fe704 2.077 1_554 S
O724 C712 1.381 . S
O725 Fe707 1.935 1_564 S
O725 C712 1.421 . S
C726 O713 1.381 . S
C726 O714 1.421 . S
C727 O719 1.381 . S
C727 O720 1.421 . S
C728 O729 1.381 . S
C728 O730 1.421 . S
O729 Fe707 2.077 1_554 S
O729 C728 1.381 . S
O730 Fe711 1.935 . S
O730 C728 1.421 . S
C731 O715 1.381 . S
C731 O716 1.421 . S
O732 Fe706 2.077 . S
O732 C735 1.381 . S
O733 Fe704 1.935 1_554 S
O733 C735 1.421 . S
C734 O722 1.381 . S
C734 O723 1.421 . S
C735 O732 1.381 . S
C735 O733 1.421 . S
Fe736 O737 1.886 1_455 S
Fe736 O740 1.713 . S
Fe736 O745 2.077 1_454 S
Fe736 O750 1.935 1_554 S
Fe736 O756 2.077 1_455 S
Fe736 O765 1.935 . S
O737 Fe736 1.886 1_655 S
O737 Fe739 1.715 . S
Fe738 O740 1.888 1_556 S
Fe738 O741 1.715 . S
Fe738 O748 1.935 . S
Fe738 O749 2.077 . S
Fe738 O755 1.935 1_556 S
Fe738 O764 2.077 1_556 S
Fe739 O737 1.715 . S
Fe739 O742 1.886 1_554 S
Fe739 O746 1.935 1_554 S
Fe739 O751 2.077 1_554 S
Fe739 O757 1.935 . S
Fe739 O761 2.077 . S
O740 Fe736 1.713 . S
O740 Fe738 1.888 1_554 S
O741 Fe738 1.715 . S
O741 Fe743 1.886 1_455 S
O742 Fe739 1.886 1_556 S
O742 Fe743 1.715 . S
Fe743 O741 1.886 1_655 S
Fe743 O742 1.715 . S
Fe743 O747 2.077 1_655 S
Fe743 O752 1.935 . S
Fe743 O754 2.077 1_656 S
Fe743 O762 1.935 1_556 S
C744 O756 1.381 . S
C744 O757 1.421 . S
O745 Fe736 2.077 1_656 S
O745 C758 1.381 . S
O746 Fe739 1.935 1_556 S
O746 C758 1.421 . S
O747 Fe743 2.077 1_455 S
O747 C763 1.381 . S
O748 Fe738 1.935 . S
O748 C763 1.421 . S
O749 Fe738 2.077 . S
O749 C753 1.381 . S
O750 Fe736 1.935 1_556 S
O750 C753 1.421 . S
O751 Fe739 2.077 1_556 S
O751 C759 1.381 . S
O752 Fe743 1.935 . S
O752 C759 1.421 . S
C753 O749 1.381 . S
C753 O750 1.421 . S
O754 Fe743 2.077 1_454 S
O754 C766 1.381 . S
O755 Fe738 1.935 1_554 S
O755 C766 1.421 . S
O756 Fe736 2.077 1_655 S
O756 C744 1.381 . S
O757 Fe739 1.935 . S
O757 C744 1.421 . S
C758 O745 1.381 . S
C758 O746 1.421 . S
C759 O751 1.381 . S
C759 O752 1.421 . S
C760 O761 1.381 . S
C760 O762 1.421 . S
O761 Fe739 2.077 . S
O761 C760 1.381 . S
O762 Fe743 1.935 1_554 S
O762 C760 1.421 . S
C763 O747 1.381 . S
C763 O748 1.421 . S
O764 Fe738 2.077 1_554 S
O764 C767 1.381 . S
O765 Fe736 1.935 . S
O765 C767 1.421 . S
C766 O754 1.381 . S
C766 O755 1.421 . S
C767 O764 1.381 . S
C767 O765 1.421 . S
Fe768 O769 1.886 . S
Fe768 O772 1.715 . S
Fe768 O777 2.077 . S
Fe768 O782 1.935 . S
Fe768 O788 2.077 . S
Fe768 O797 1.935 . S
O769 Fe768 1.886 . S
O769 Fe771 1.715 . S
Fe770 O772 1.886 1_554 S
Fe770 O773 1.715 . S
Fe770 O780 1.935 . S
Fe770 O781 2.077 1_554 S
Fe770 O787 1.935 . S
Fe770 O796 2.077 1_554 S
Fe771 O769 1.715 . S
Fe771 O774 1.886 1_556 S
Fe771 O778 1.935 . S
Fe771 O783 2.077 1_556 S
Fe771 O789 1.935 . S
Fe771 O793 2.077 1_556 S
O772 Fe768 1.715 . S
O772 Fe770 1.886 1_556 S
O773 Fe770 1.715 . S
O773 Fe775 1.886 . S
O774 Fe771 1.886 1_554 S
O774 Fe775 1.715 . S
Fe775 O773 1.886 . S
Fe775 O774 1.715 . S
Fe775 O779 2.077 . S
Fe775 O784 1.935 . S
Fe775 O786 2.077 . S
Fe775 O794 1.935 . S
C776 O788 1.381 . S
C776 O789 1.421 . S
O777 Fe768 2.077 . S
O777 C790 1.381 . S
O778 Fe771 1.935 . S
O778 C790 1.421 . S
O779 Fe775 2.077 . S
O779 C795 1.381 . S
O780 Fe770 1.935 . S
O780 C795 1.421 . S
O781 Fe770 2.077 1_556 S
O781 C785 1.381 . S
O782 Fe768 1.935 . S
O782 C785 1.421 . S
O783 Fe771 2.077 1_554 S
O783 C791 1.381 . S
O784 Fe775 1.935 . S
O784 C791 1.421 . S
C785 O781 1.381 . S
C785 O782 1.421 . S
O786 Fe775 2.077 . S
O786 C798 1.381 . S
O787 Fe770 1.935 . S
O787 C798 1.421 . S
O788 Fe768 2.077 . S
O788 C776 1.381 . S
O789 Fe771 1.935 . S
O789 C776 1.421 . S
C790 O777 1.381 . S
C790 O778 1.421 . S
C791 O783 1.381 . S
C791 O784 1.421 . S
C792 O793 1.381 . S
C792 O794 1.421 . S
O793 Fe771 2.077 1_554 S
O793 C792 1.381 . S
O794 Fe775 1.935 . S
O794 C792 1.421 . S
C795 O779 1.381 . S
C795 O780 1.421 . S
O796 Fe770 2.077 1_556 S
O796 C799 1.381 . S
O797 Fe768 1.935 . S
O797 C799 1.421 . S
C798 O786 1.381 . S
C798 O787 1.421 . S
C799 O796 1.381 . S
C799 O797 1.421 . S
Fe800 O801 1.886 . S
Fe800 O804 1.715 . S
Fe800 O809 2.077 1_655 S
Fe800 O814 1.935 1_655 S
Fe800 O820 2.077 . S
Fe800 O829 1.935 . S
O801 Fe800 1.886 . S
O801 Fe803 1.715 . S
Fe802 O804 1.886 1_455 S
Fe802 O805 1.715 . S
Fe802 O812 1.935 . S
Fe802 O813 2.077 . S
Fe802 O819 1.935 1_455 S
Fe802 O828 2.077 1_455 S
Fe803 O801 1.715 . S
Fe803 O806 1.886 1_655 S
Fe803 O810 1.935 1_655 S
Fe803 O815 2.077 1_655 S
Fe803 O821 1.935 . S
Fe803 O825 2.077 . S
O804 Fe800 1.715 . S
O804 Fe802 1.886 1_655 S
O805 Fe802 1.715 . S
O805 Fe807 1.886 . S
O806 Fe803 1.886 1_455 S
O806 Fe807 1.715 . S
Fe807 O805 1.886 . S
Fe807 O806 1.715 . S
Fe807 O811 2.077 . S
Fe807 O816 1.935 . S
Fe807 O818 2.077 1_455 S
Fe807 O826 1.935 1_455 S
C808 O820 1.381 . S
C808 O821 1.421 . S
O809 Fe800 2.077 1_455 S
O809 C822 1.381 . S
O810 Fe803 1.935 1_455 S
O810 C822 1.421 . S
O811 Fe807 2.077 . S
O811 C827 1.381 . S
O812 Fe802 1.935 . S
O812 C827 1.421 . S
O813 Fe802 2.077 . S
O813 C817 1.381 . S
O814 Fe800 1.935 1_455 S
O814 C817 1.421 . S
O815 Fe803 2.077 1_455 S
O815 C823 1.381 . S
O816 Fe807 1.935 . S
O816 C823 1.421 . S
C817 O813 1.381 . S
C817 O814 1.421 . S
O818 Fe807 2.077 1_655 S
O818 C830 1.381 . S
O819 Fe802 1.935 1_655 S
O819 C830 1.421 . S
O820 Fe800 2.077 . S
O820 C808 1.381 . S
O821 Fe803 1.935 . S
O821 C808 1.421 . S
C822 O809 1.381 . S
C822 O810 1.421 . S
C823 O815 1.381 . S
C823 O816 1.421 . S
C824 O825 1.381 . S
C824 O826 1.421 . S
O825 Fe803 2.077 . S
O825 C824 1.381 . S
O826 Fe807 1.935 1_655 S
O826 C824 1.421 . S
C827 O811 1.381 . S
C827 O812 1.421 . S
O828 Fe802 2.077 1_655 S
O828 C831 1.381 . S
O829 Fe800 1.935 . S
O829 C831 1.421 . S
C830 O818 1.381 . S
C830 O819 1.421 . S
C831 O828 1.381 . S
C831 O829 1.421 . S
Fe832 O833 1.886 . S
Fe832 O836 1.715 . S
Fe832 O841 2.077 . S
Fe832 O846 1.935 . S
Fe832 O852 2.077 . S
Fe832 O861 1.935 . S
O833 Fe832 1.886 . S
O833 Fe835 1.715 1_565 S
Fe834 O836 1.886 . S
Fe834 O837 1.715 1_565 S
Fe834 O844 1.935 1_565 S
Fe834 O845 2.077 . S
Fe834 O851 1.935 1_565 S
Fe834 O860 2.077 . S
Fe835 O833 1.715 1_545 S
Fe835 O838 1.886 . S
Fe835 O842 1.935 1_545 S
Fe835 O847 2.077 . S
Fe835 O853 1.935 1_545 S
Fe835 O857 2.077 . S
O836 Fe832 1.715 . S
O836 Fe834 1.886 . S
O837 Fe834 1.715 1_545 S
O837 Fe839 1.886 . S
O838 Fe835 1.886 . S
O838 Fe839 1.715 . S
Fe839 O837 1.886 . S
Fe839 O838 1.715 . S
Fe839 O843 2.077 . S
Fe839 O848 1.935 . S
Fe839 O850 2.077 . S
Fe839 O858 1.935 . S
C840 O852 1.381 . S
C840 O853 1.421 . S
O841 Fe832 2.077 . S
O841 C854 1.381 . S
O842 Fe835 1.935 1_565 S
O842 C854 1.421 . S
O843 Fe839 2.077 . S
O843 C859 1.381 . S
O844 Fe834 1.935 1_545 S
O844 C859 1.421 . S
O845 Fe834 2.077 . S
O845 C849 1.381 . S
O846 Fe832 1.935 . S
O846 C849 1.421 . S
O847 Fe835 2.077 . S
O847 C855 1.381 . S
O848 Fe839 1.935 . S
O848 C855 1.421 . S
C849 O845 1.381 . S
C849 O846 1.421 . S
O850 Fe839 2.077 . S
O850 C862 1.381 . S
O851 Fe834 1.935 1_545 S
O851 C862 1.421 . S
O852 Fe832 2.077 . S
O852 C840 1.381 . S
O853 Fe835 1.935 1_565 S
O853 C840 1.421 . S
C854 O841 1.381 . S
C854 O842 1.421 . S
C855 O847 1.381 . S
C855 O848 1.421 . S
C856 O857 1.381 . S
C856 O858 1.421 . S
O857 Fe835 2.077 . S
O857 C856 1.381 . S
O858 Fe839 1.935 . S
O858 C856 1.421 . S
C859 O843 1.381 . S
C859 O844 1.421 . S
O860 Fe834 2.077 . S
O860 C863 1.381 . S
O861 Fe832 1.935 . S
O861 C863 1.421 . S
C862 O850 1.381 . S
C862 O851 1.421 . S
C863 O860 1.381 . S
C863 O861 1.421 . S
C864 C865 1.363 . S
C864 C870 1.379 . S
C864 N872 1.356 . S
C865 C864 1.363 . S
C865 C871 1.363 . S
C866 C867 1.363 . S
C866 C871 1.379 . S
C866 N873 1.356 . S
C867 C866 1.363 . S
C867 C870 1.363 . S
N868 C870 1.356 . S
N868 H880 0.984 . S
N868 H881 0.985 . S
N869 C871 1.356 . S
N869 H874 0.984 . S
N869 H875 0.985 . S
C870 C864 1.379 . S
C870 C867 1.363 . S
C870 N868 1.356 . S
C871 C865 1.363 . S
C871 C866 1.379 . S
C871 N869 1.356 . S
N872 C864 1.356 . S
N872 H878 0.984 . S
N872 H879 0.984 . S
N873 C866 1.356 . S
N873 H876 0.984 . S
N873 H877 0.985 . S
H874 N869 0.984 . S
H875 N869 0.985 . S
H876 N873 0.984 . S
H877 N873 0.985 . S
H878 N872 0.984 . S
H879 N872 0.984 . S
H880 N868 0.984 . S
H881 N868 0.985 . S
C882 C883 1.363 . S
C882 C888 1.379 . S
C882 N890 1.356 . S
C883 C882 1.363 . S
C883 C889 1.363 . S
C884 C885 1.363 . S
C884 C889 1.379 . S
C884 N891 1.356 . S
C885 C884 1.363 . S
C885 C888 1.363 . S
N886 C888 1.356 . S
N886 H898 0.984 . S
N886 H899 0.985 . S
N887 C889 1.356 . S
N887 H892 0.984 . S
N887 H893 0.985 . S
C888 C882 1.379 . S
C888 C885 1.363 . S
C888 N886 1.356 . S
C889 C883 1.363 . S
C889 C884 1.379 . S
C889 N887 1.356 . S
N890 C882 1.356 . S
N890 H896 0.984 . S
N890 H897 0.984 . S
N891 C884 1.356 . S
N891 H894 0.984 . S
N891 H895 0.985 . S
H892 N887 0.984 . S
H893 N887 0.985 . S
H894 N891 0.984 . S
H895 N891 0.985 . S
H896 N890 0.984 . S
H897 N890 0.984 . S
H898 N886 0.984 . S
H899 N886 0.985 . S
C900 C901 1.363 . S
C900 C906 1.379 . S
C900 N908 1.356 . S
C901 C900 1.363 . S
C901 C907 1.363 . S
C902 C903 1.363 . S
C902 C907 1.379 . S
C902 N909 1.356 . S
C903 C902 1.363 . S
C903 C906 1.363 . S
N904 C906 1.356 . S
N904 H916 0.984 . S
N904 H917 0.985 . S
N905 C907 1.356 . S
N905 H910 0.984 . S
N905 H911 0.985 . S
C906 C900 1.379 . S
C906 C903 1.363 . S
C906 N904 1.356 . S
C907 C901 1.363 . S
C907 C902 1.379 . S
C907 N905 1.356 . S
N908 C900 1.356 . S
N908 H914 0.984 . S
N908 H915 0.984 . S
N909 C902 1.356 . S
N909 H912 0.984 . S
N909 H913 0.985 . S
H910 N905 0.984 . S
H911 N905 0.985 . S
H912 N909 0.984 . S
H913 N909 0.985 . S
H914 N908 0.984 . S
H915 N908 0.984 . S
H916 N904 0.984 . S
H917 N904 0.985 . S
C918 C919 1.363 . S
C918 C924 1.379 . S
C918 N926 1.356 . S
C919 C918 1.363 . S
C919 C925 1.363 . S
C920 C921 1.363 . S
C920 C925 1.379 . S
C920 N927 1.356 . S
C921 C920 1.363 . S
C921 C924 1.363 . S
N922 C924 1.356 . S
N922 H934 0.984 1_455 S
N922 H935 0.985 . S
N923 C925 1.356 . S
N923 H928 0.984 . S
N923 H929 0.985 . S
C924 C918 1.379 . S
C924 C921 1.363 . S
C924 N922 1.356 . S
C925 C919 1.363 . S
C925 C920 1.379 . S
C925 N923 1.356 . S
N926 C918 1.356 . S
N926 H932 0.984 . S
N926 H933 0.984 . S
N927 C920 1.356 . S
N927 H930 0.984 . S
N927 H931 0.985 . S
H928 N923 0.984 . S
H929 N923 0.985 . S
H930 N927 0.984 . S
H931 N927 0.985 . S
H932 N926 0.984 . S
H933 N926 0.984 . S
H934 N922 0.984 1_655 S
H935 N922 0.985 . S
C936 C937 1.363 . S
C936 C942 1.379 . S
C936 N944 1.356 . S
C937 C936 1.363 . S
C937 C943 1.363 . S
C938 C939 1.363 . S
C938 C943 1.379 . S
C938 N945 1.356 . S
C939 C938 1.363 . S
C939 C942 1.363 . S
N940 C942 1.356 . S
N940 H952 0.984 . S
N940 H953 0.985 . S
N941 C943 1.356 . S
N941 H946 0.984 . S
N941 H947 0.985 . S
C942 C936 1.379 . S
C942 C939 1.363 . S
C942 N940 1.356 . S
C943 C937 1.363 . S
C943 C938 1.379 . S
C943 N941 1.356 . S
N944 C936 1.356 . S
N944 H950 0.984 . S
N944 H951 0.984 . S
N945 C938 1.356 . S
N945 H948 0.984 . S
N945 H949 0.985 . S
H946 N941 0.984 . S
H947 N941 0.985 . S
H948 N945 0.984 . S
H949 N945 0.985 . S
H950 N944 0.984 . S
H951 N944 0.984 . S
H952 N940 0.984 . S
H953 N940 0.985 . S
C954 C955 1.363 . S
C954 C960 1.379 . S
C954 N962 1.356 . S
C955 C954 1.363 . S
C955 C961 1.363 . S
C956 C957 1.363 . S
C956 C961 1.379 . S
C956 N963 1.356 . S
C957 C956 1.363 . S
C957 C960 1.363 . S
N958 C960 1.356 . S
N958 H970 0.984 . S
N958 H971 0.985 . S
N959 C961 1.356 . S
N959 H964 0.984 . S
N959 H965 0.985 . S
C960 C954 1.379 . S
C960 C957 1.363 . S
C960 N958 1.356 . S
C961 C955 1.363 . S
C961 C956 1.379 . S
C961 N959 1.356 . S
N962 C954 1.356 . S
N962 H968 0.984 . S
N962 H969 0.984 . S
N963 C956 1.356 . S
N963 H966 0.984 . S
N963 H967 0.985 . S
H964 N959 0.984 . S
H965 N959 0.985 . S
H966 N963 0.984 . S
H967 N963 0.985 . S
H968 N962 0.984 . S
H969 N962 0.984 . S
H970 N958 0.984 . S
H971 N958 0.985 . S
C972 C973 1.363 . S
C972 C978 1.379 . S
C972 N980 1.356 . S
C973 C972 1.363 . S
C973 C979 1.363 . S
C974 C975 1.363 . S
C974 C979 1.379 . S
C974 N981 1.356 . S
C975 C974 1.363 . S
C975 C978 1.363 . S
N976 C978 1.356 . S
N976 H988 0.984 1_545 S
N976 H989 0.985 1_545 S
N977 C979 1.356 . S
N977 H982 0.984 . S
N977 H983 0.985 . S
C978 C972 1.379 . S
C978 C975 1.363 . S
C978 N976 1.356 . S
C979 C973 1.363 . S
C979 C974 1.379 . S
C979 N977 1.356 . S
N980 C972 1.356 . S
N980 H986 0.984 . S
N980 H987 0.984 . S
N981 C974 1.356 . S
N981 H984 0.984 . S
N981 H985 0.985 . S
H982 N977 0.984 . S
H983 N977 0.985 . S
H984 N981 0.984 . S
H985 N981 0.985 . S
H986 N980 0.984 . S
H987 N980 0.984 . S
H988 N976 0.984 1_565 S
H989 N976 0.985 1_565 S
C990 C991 1.363 . S
C990 C996 1.379 . S
C990 N998 1.356 . S
C991 C990 1.363 . S
C991 C997 1.363 . S
C992 C993 1.363 . S
C992 C997 1.379 . S
C992 N999 1.356 . S
C993 C992 1.363 . S
C993 C996 1.363 . S
N994 C996 1.356 . S
N994 H1006 0.984 . S
N994 H1007 0.985 . S
N995 C997 1.356 . S
N995 H1000 0.984 . S
N995 H1001 0.985 . S
C996 C990 1.379 . S
C996 C993 1.363 . S
C996 N994 1.356 . S
C997 C991 1.363 . S
C997 C992 1.379 . S
C997 N995 1.356 . S
N998 C990 1.356 . S
N998 H1004 0.984 . S
N998 H1005 0.984 . S
N999 C992 1.356 . S
N999 H1002 0.984 . S
N999 H1003 0.985 . S
H1000 N995 0.984 . S
H1001 N995 0.985 . S
H1002 N999 0.984 . S
H1003 N999 0.985 . S
H1004 N998 0.984 . S
H1005 N998 0.984 . S
H1006 N994 0.984 . S
H1007 N994 0.985 . S
C1008 C1009 1.363 . S
C1008 C1014 1.379 . S
C1008 N1016 1.356 . S
C1009 C1008 1.363 . S
C1009 C1015 1.363 . S
C1010 C1011 1.363 . S
C1010 C1015 1.379 . S
C1010 N1017 1.356 . S
C1011 C1010 1.363 . S
C1011 C1014 1.363 . S
N1012 C1014 1.356 . S
N1012 H1024 0.984 . S
N1012 H1025 0.985 . S
N1013 C1015 1.356 . S
N1013 H1018 0.984 . S
N1013 H1019 0.985 . S
C1014 C1008 1.379 . S
C1014 C1011 1.363 . S
C1014 N1012 1.356 . S
C1015 C1009 1.363 . S
C1015 C1010 1.379 . S
C1015 N1013 1.356 . S
N1016 C1008 1.356 . S
N1016 H1022 0.984 . S
N1016 H1023 0.984 . S
N1017 C1010 1.356 . S
N1017 H1020 0.984 . S
N1017 H1021 0.985 . S
H1018 N1013 0.984 . S
H1019 N1013 0.985 . S
H1020 N1017 0.984 . S
H1021 N1017 0.985 . S
H1022 N1016 0.984 . S
H1023 N1016 0.984 . S
H1024 N1012 0.984 . S
H1025 N1012 0.985 . S
C1026 C1027 1.363 . S
C1026 C1032 1.379 . S
C1026 N1034 1.356 . S
C1027 C1026 1.363 . S
C1027 C1033 1.363 . S
C1028 C1029 1.363 . S
C1028 C1033 1.379 . S
C1028 N1035 1.356 . S
C1029 C1028 1.363 . S
C1029 C1032 1.363 . S
N1030 C1032 1.356 . S
N1030 H1042 0.984 . S
N1030 H1043 0.985 . S
N1031 C1033 1.356 . S
N1031 H1036 0.984 . S
N1031 H1037 0.985 . S
C1032 C1026 1.379 . S
C1032 C1029 1.363 . S
C1032 N1030 1.356 . S
C1033 C1027 1.363 . S
C1033 C1028 1.379 . S
C1033 N1031 1.356 . S
N1034 C1026 1.356 . S
N1034 H1040 0.984 . S
N1034 H1041 0.984 . S
N1035 C1028 1.356 . S
N1035 H1038 0.984 . S
N1035 H1039 0.985 . S
H1036 N1031 0.984 . S
H1037 N1031 0.985 . S
H1038 N1035 0.984 . S
H1039 N1035 0.985 . S
H1040 N1034 0.984 . S
H1041 N1034 0.984 . S
H1042 N1030 0.984 . S
H1043 N1030 0.985 . S
C1044 C1045 1.363 . S
C1044 C1050 1.379 . S
C1044 N1052 1.356 . S
C1045 C1044 1.363 . S
C1045 C1051 1.363 . S
C1046 C1047 1.363 . S
C1046 C1051 1.379 . S
C1046 N1053 1.356 . S
C1047 C1046 1.363 . S
C1047 C1050 1.363 . S
N1048 C1050 1.356 . S
N1048 H1060 0.984 1_554 S
N1048 H1061 0.985 . S
N1049 C1051 1.356 . S
N1049 H1054 0.984 . S
N1049 H1055 0.985 . S
C1050 C1044 1.379 . S
C1050 C1047 1.363 . S
C1050 N1048 1.356 . S
C1051 C1045 1.363 . S
C1051 C1046 1.379 . S
C1051 N1049 1.356 . S
N1052 C1044 1.356 . S
N1052 H1058 0.984 . S
N1052 H1059 0.984 . S
N1053 C1046 1.356 . S
N1053 H1056 0.984 . S
N1053 H1057 0.985 . S
H1054 N1049 0.984 . S
H1055 N1049 0.985 . S
H1056 N1053 0.984 . S
H1057 N1053 0.985 . S
H1058 N1052 0.984 . S
H1059 N1052 0.984 . S
H1060 N1048 0.984 1_556 S
H1061 N1048 0.985 . S
C1062 C1063 1.363 . S
C1062 C1068 1.379 . S
C1062 N1070 1.356 . S
C1063 C1062 1.363 . S
C1063 C1069 1.363 . S
C1064 C1065 1.363 . S
C1064 C1069 1.379 . S
C1064 N1071 1.356 . S
C1065 C1064 1.363 . S
C1065 C1068 1.363 . S
N1066 C1068 1.356 . S
N1066 H1078 0.984 . S
N1066 H1079 0.985 . S
N1067 C1069 1.356 . S
N1067 H1072 0.984 . S
N1067 H1073 0.985 . S
C1068 C1062 1.379 . S
C1068 C1065 1.363 . S
C1068 N1066 1.356 . S
C1069 C1063 1.363 . S
C1069 C1064 1.379 . S
C1069 N1067 1.356 . S
N1070 C1062 1.356 . S
N1070 H1076 0.984 . S
N1070 H1077 0.984 . S
N1071 C1064 1.356 . S
N1071 H1074 0.984 . S
N1071 H1075 0.985 . S
H1072 N1067 0.984 . S
H1073 N1067 0.985 . S
H1074 N1071 0.984 . S
H1075 N1071 0.985 . S
H1076 N1070 0.984 . S
H1077 N1070 0.984 . S
H1078 N1066 0.984 . S
H1079 N1066 0.985 . S
C1080 C1081 1.363 . S
C1080 C1086 1.379 . S
C1080 N1088 1.356 . S
C1081 C1080 1.363 . S
C1081 C1087 1.363 . S
C1082 C1083 1.363 . S
C1082 C1087 1.379 . S
C1082 N1089 1.356 . S
C1083 C1082 1.363 . S
C1083 C1086 1.363 . S
N1084 C1086 1.356 . S
N1084 H1096 0.984 . S
N1084 H1097 0.985 . S
N1085 C1087 1.356 . S
N1085 H1090 0.984 . S
N1085 H1091 0.985 . S
C1086 C1080 1.379 . S
C1086 C1083 1.363 . S
C1086 N1084 1.356 . S
C1087 C1081 1.363 . S
C1087 C1082 1.379 . S
C1087 N1085 1.356 . S
N1088 C1080 1.356 . S
N1088 H1094 0.984 . S
N1088 H1095 0.984 . S
N1089 C1082 1.356 . S
N1089 H1092 0.984 . S
N1089 H1093 0.985 . S
H1090 N1085 0.984 . S
H1091 N1085 0.985 . S
H1092 N1089 0.984 . S
H1093 N1089 0.985 . S
H1094 N1088 0.984 . S
H1095 N1088 0.984 . S
H1096 N1084 0.984 . S
H1097 N1084 0.985 . S
C1098 C1099 1.363 . S
C1098 C1104 1.379 . S
C1098 N1106 1.356 . S
C1099 C1098 1.363 . S
C1099 C1105 1.363 . S
C1100 C1101 1.363 . S
C1100 C1105 1.379 . S
C1100 N1107 1.356 . S
C1101 C1100 1.363 . S
C1101 C1104 1.363 . S
N1102 C1104 1.356 . S
N1102 H1114 0.984 . S
N1102 H1115 0.985 . S
N1103 C1105 1.356 . S
N1103 H1108 0.984 . S
N1103 H1109 0.985 . S
C1104 C1098 1.379 . S
C1104 C1101 1.363 . S
C1104 N1102 1.356 . S
C1105 C1099 1.363 . S
C1105 C1100 1.379 . S
C1105 N1103 1.356 . S
N1106 C1098 1.356 . S
N1106 H1112 0.984 . S
N1106 H1113 0.984 . S
N1107 C1100 1.356 . S
N1107 H1110 0.984 . S
N1107 H1111 0.985 . S
H1108 N1103 0.984 . S
H1109 N1103 0.985 . S
H1110 N1107 0.984 . S
H1111 N1107 0.985 . S
H1112 N1106 0.984 . S
H1113 N1106 0.984 . S
H1114 N1102 0.984 . S
H1115 N1102 0.985 . S
C1116 C1117 1.363 . S
C1116 C1122 1.379 . S
C1116 N1124 1.356 . S
C1117 C1116 1.363 . S
C1117 C1123 1.363 . S
C1118 C1119 1.363 . S
C1118 C1123 1.379 . S
C1118 N1125 1.356 . S
C1119 C1118 1.363 . S
C1119 C1122 1.363 . S
N1120 C1122 1.356 . S
N1120 H1132 0.984 . S
N1120 H1133 0.985 . S
N1121 C1123 1.356 . S
N1121 H1126 0.984 . S
N1121 H1127 0.985 . S
C1122 C1116 1.379 . S
C1122 C1119 1.363 . S
C1122 N1120 1.356 . S
C1123 C1117 1.363 . S
C1123 C1118 1.379 . S
C1123 N1121 1.356 . S
N1124 C1116 1.356 . S
N1124 H1130 0.984 . S
N1124 H1131 0.984 . S
N1125 C1118 1.356 . S
N1125 H1128 0.984 . S
N1125 H1129 0.985 . S
H1126 N1121 0.984 . S
H1127 N1121 0.985 . S
H1128 N1125 0.984 . S
H1129 N1125 0.985 . S
H1130 N1124 0.984 . S
H1131 N1124 0.984 . S
H1132 N1120 0.984 . S
H1133 N1120 0.985 . S
C1134 C1135 1.363 . S
C1134 C1140 1.379 . S
C1134 N1142 1.356 . S
C1135 C1134 1.363 . S
C1135 C1141 1.363 . S
C1136 C1137 1.363 . S
C1136 C1141 1.379 . S
C1136 N1143 1.356 . S
C1137 C1136 1.363 . S
C1137 C1140 1.363 . S
N1138 C1140 1.356 . S
N1138 H1150 0.984 1_655 S
N1138 H1151 0.985 . S
N1139 C1141 1.356 . S
N1139 H1144 0.984 . S
N1139 H1145 0.985 . S
C1140 C1134 1.379 . S
C1140 C1137 1.363 . S
C1140 N1138 1.356 . S
C1141 C1135 1.363 . S
C1141 C1136 1.379 . S
C1141 N1139 1.356 . S
N1142 C1134 1.356 . S
N1142 H1148 0.984 . S
N1142 H1149 0.984 . S
N1143 C1136 1.356 . S
N1143 H1146 0.984 . S
N1143 H1147 0.985 . S
H1144 N1139 0.984 . S
H1145 N1139 0.985 . S
H1146 N1143 0.984 . S
H1147 N1143 0.985 . S
H1148 N1142 0.984 . S
H1149 N1142 0.984 . S
H1150 N1138 0.984 1_455 S
H1151 N1138 0.985 . S
C1152 C1153 1.363 . S
C1152 C1158 1.379 . S
C1152 N1160 1.356 . S
C1153 C1152 1.363 . S
C1153 C1159 1.363 . S
C1154 C1155 1.363 . S
C1154 C1159 1.379 . S
C1154 N1161 1.356 . S
C1155 C1154 1.363 . S
C1155 C1158 1.363 . S
N1156 C1158 1.356 . S
N1156 H1168 0.984 1_554 S
N1156 H1169 0.985 . S
N1157 C1159 1.356 . S
N1157 H1162 0.984 . S
N1157 H1163 0.985 . S
C1158 C1152 1.379 . S
C1158 C1155 1.363 . S
C1158 N1156 1.356 . S
C1159 C1153 1.363 . S
C1159 C1154 1.379 . S
C1159 N1157 1.356 . S
N1160 C1152 1.356 . S
N1160 H1166 0.984 . S
N1160 H1167 0.984 . S
N1161 C1154 1.356 . S
N1161 H1164 0.984 . S
N1161 H1165 0.985 . S
H1162 N1157 0.984 . S
H1163 N1157 0.985 . S
H1164 N1161 0.984 . S
H1165 N1161 0.985 . S
H1166 N1160 0.984 . S
H1167 N1160 0.984 . S
H1168 N1156 0.984 1_556 S
H1169 N1156 0.985 . S
C1170 C1171 1.363 . S
C1170 C1176 1.379 . S
C1170 N1178 1.356 . S
C1171 C1170 1.363 . S
C1171 C1177 1.363 . S
C1172 C1173 1.363 . S
C1172 C1177 1.379 . S
C1172 N1179 1.356 . S
C1173 C1172 1.363 . S
C1173 C1176 1.363 . S
N1174 C1176 1.356 . S
N1174 H1186 0.984 . S
N1174 H1187 0.985 . S
N1175 C1177 1.356 . S
N1175 H1180 0.984 . S
N1175 H1181 0.985 . S
C1176 C1170 1.379 . S
C1176 C1173 1.363 . S
C1176 N1174 1.356 . S
C1177 C1171 1.363 . S
C1177 C1172 1.379 . S
C1177 N1175 1.356 . S
N1178 C1170 1.356 . S
N1178 H1184 0.984 . S
N1178 H1185 0.984 . S
N1179 C1172 1.356 . S
N1179 H1182 0.984 . S
N1179 H1183 0.985 . S
H1180 N1175 0.984 . S
H1181 N1175 0.985 . S
H1182 N1179 0.984 . S
H1183 N1179 0.985 . S
H1184 N1178 0.984 . S
H1185 N1178 0.984 . S
H1186 N1174 0.984 . S
H1187 N1174 0.985 . S
C1188 C1189 1.363 . S
C1188 C1194 1.379 . S
C1188 N1196 1.356 . S
C1189 C1188 1.363 . S
C1189 C1195 1.363 . S
C1190 C1191 1.363 . S
C1190 C1195 1.379 . S
C1190 N1197 1.356 . S
C1191 C1190 1.363 . S
C1191 C1194 1.363 . S
N1192 C1194 1.356 . S
N1192 H1204 0.984 1_545 S
N1192 H1205 0.985 . S
N1193 C1195 1.356 . S
N1193 H1198 0.984 . S
N1193 H1199 0.985 . S
C1194 C1188 1.379 . S
C1194 C1191 1.363 . S
C1194 N1192 1.356 . S
C1195 C1189 1.363 . S
C1195 C1190 1.379 . S
C1195 N1193 1.356 . S
N1196 C1188 1.356 . S
N1196 H1202 0.984 . S
N1196 H1203 0.984 . S
N1197 C1190 1.356 . S
N1197 H1200 0.984 . S
N1197 H1201 0.985 . S
H1198 N1193 0.984 . S
H1199 N1193 0.985 . S
H1200 N1197 0.984 . S
H1201 N1197 0.985 . S
H1202 N1196 0.984 . S
H1203 N1196 0.984 . S
H1204 N1192 0.984 1_565 S
H1205 N1192 0.985 . S
C1206 C1207 1.363 . S
C1206 C1212 1.379 . S
C1206 N1214 1.356 . S
C1207 C1206 1.363 . S
C1207 C1213 1.363 . S
C1208 C1209 1.363 . S
C1208 C1213 1.379 . S
C1208 N1215 1.356 . S
C1209 C1208 1.363 . S
C1209 C1212 1.363 . S
N1210 C1212 1.356 . S
N1210 H1222 0.984 . S
N1210 H1223 0.985 . S
N1211 C1213 1.356 . S
N1211 H1216 0.984 . S
N1211 H1217 0.985 . S
C1212 C1206 1.379 . S
C1212 C1209 1.363 . S
C1212 N1210 1.356 . S
C1213 C1207 1.363 . S
C1213 C1208 1.379 . S
C1213 N1211 1.356 . S
N1214 C1206 1.356 . S
N1214 H1220 0.984 . S
N1214 H1221 0.984 . S
N1215 C1208 1.356 . S
N1215 H1218 0.984 . S
N1215 H1219 0.985 . S
H1216 N1211 0.984 . S
H1217 N1211 0.985 . S
H1218 N1215 0.984 . S
H1219 N1215 0.985 . S
H1220 N1214 0.984 . S
H1221 N1214 0.984 . S
H1222 N1210 0.984 . S
H1223 N1210 0.985 . S
C1224 C1225 1.363 . S
C1224 C1230 1.379 . S
C1224 N1232 1.356 . S
C1225 C1224 1.363 . S
C1225 C1231 1.363 . S
C1226 C1227 1.363 . S
C1226 C1231 1.379 . S
C1226 N1233 1.356 . S
C1227 C1226 1.363 . S
C1227 C1230 1.363 . S
N1228 C1230 1.356 . S
N1228 H1240 0.984 . S
N1228 H1241 0.985 . S
N1229 C1231 1.356 . S
N1229 H1234 0.984 . S
N1229 H1235 0.985 . S
C1230 C1224 1.379 . S
C1230 C1227 1.363 . S
C1230 N1228 1.356 . S
C1231 C1225 1.363 . S
C1231 C1226 1.379 . S
C1231 N1229 1.356 . S
N1232 C1224 1.356 . S
N1232 H1238 0.984 . S
N1232 H1239 0.984 . S
N1233 C1226 1.356 . S
N1233 H1236 0.984 . S
N1233 H1237 0.985 . S
H1234 N1229 0.984 . S
H1235 N1229 0.985 . S
H1236 N1233 0.984 . S
H1237 N1233 0.985 . S
H1238 N1232 0.984 . S
H1239 N1232 0.984 . S
H1240 N1228 0.984 . S
H1241 N1228 0.985 . S
C1242 C1243 1.363 . S
C1242 C1248 1.379 . S
C1242 N1250 1.356 . S
C1243 C1242 1.363 . S
C1243 C1249 1.363 . S
C1244 C1245 1.363 . S
C1244 C1249 1.379 . S
C1244 N1251 1.356 . S
C1245 C1244 1.363 . S
C1245 C1248 1.363 . S
N1246 C1248 1.356 . S
N1246 H1258 0.984 . S
N1246 H1259 0.985 . S
N1247 C1249 1.356 . S
N1247 H1252 0.984 . S
N1247 H1253 0.985 . S
C1248 C1242 1.379 . S
C1248 C1245 1.363 . S
C1248 N1246 1.356 . S
C1249 C1243 1.363 . S
C1249 C1244 1.379 . S
C1249 N1247 1.356 . S
N1250 C1242 1.356 . S
N1250 H1256 0.984 . S
N1250 H1257 0.984 . S
N1251 C1244 1.356 . S
N1251 H1254 0.984 . S
N1251 H1255 0.985 . S
H1252 N1247 0.984 . S
H1253 N1247 0.985 . S
H1254 N1251 0.984 . S
H1255 N1251 0.985 . S
H1256 N1250 0.984 . S
H1257 N1250 0.984 . S
H1258 N1246 0.984 . S
H1259 N1246 0.985 . S
C1260 C1261 1.363 . S
C1260 C1266 1.379 . S
C1260 N1268 1.356 . S
C1261 C1260 1.363 . S
C1261 C1267 1.363 . S
C1262 C1263 1.363 . S
C1262 C1267 1.379 . S
C1262 N1269 1.356 . S
C1263 C1262 1.363 . S
C1263 C1266 1.363 . S
N1264 C1266 1.356 . S
N1264 H1276 0.984 . S
N1264 H1277 0.985 . S
N1265 C1267 1.356 . S
N1265 H1270 0.984 . S
N1265 H1271 0.985 . S
C1266 C1260 1.379 . S
C1266 C1263 1.363 . S
C1266 N1264 1.356 . S
C1267 C1261 1.363 . S
C1267 C1262 1.379 . S
C1267 N1265 1.356 . S
N1268 C1260 1.356 . S
N1268 H1274 0.984 . S
N1268 H1275 0.984 . S
N1269 C1262 1.356 . S
N1269 H1272 0.984 . S
N1269 H1273 0.985 . S
H1270 N1265 0.984 . S
H1271 N1265 0.985 . S
H1272 N1269 0.984 . S
H1273 N1269 0.985 . S
H1274 N1268 0.984 . S
H1275 N1268 0.984 . S
H1276 N1264 0.984 . S
H1277 N1264 0.985 . S
C1278 C1279 1.363 . S
C1278 C1284 1.379 . S
C1278 N1286 1.356 . S
C1279 C1278 1.363 . S
C1279 C1285 1.363 . S
C1280 C1281 1.363 . S
C1280 C1285 1.379 . S
C1280 N1287 1.356 . S
C1281 C1280 1.363 . S
C1281 C1284 1.363 . S
N1282 C1284 1.356 . S
N1282 H1294 0.984 . S
N1282 H1295 0.985 . S
N1283 C1285 1.356 . S
N1283 H1288 0.984 . S
N1283 H1289 0.985 . S
C1284 C1278 1.379 . S
C1284 C1281 1.363 . S
C1284 N1282 1.356 . S
C1285 C1279 1.363 . S
C1285 C1280 1.379 . S
C1285 N1283 1.356 . S
N1286 C1278 1.356 . S
N1286 H1292 0.984 . S
N1286 H1293 0.984 . S
N1287 C1280 1.356 . S
N1287 H1290 0.984 . S
N1287 H1291 0.985 . S
H1288 N1283 0.984 . S
H1289 N1283 0.985 . S
H1290 N1287 0.984 . S
H1291 N1287 0.985 . S
H1292 N1286 0.984 . S
H1293 N1286 0.984 . S
H1294 N1282 0.984 . S
H1295 N1282 0.985 . S
C1296 C1297 1.363 . S
C1296 C1302 1.379 . S
C1296 N1304 1.356 . S
C1297 C1296 1.363 . S
C1297 C1303 1.363 . S
C1298 C1299 1.363 . S
C1298 C1303 1.379 . S
C1298 N1305 1.356 . S
C1299 C1298 1.363 . S
C1299 C1302 1.363 . S
N1300 C1302 1.356 . S
N1300 H1312 0.984 . S
N1300 H1313 0.985 . S
N1301 C1303 1.356 . S
N1301 H1306 0.984 . S
N1301 H1307 0.985 . S
C1302 C1296 1.379 . S
C1302 C1299 1.363 . S
C1302 N1300 1.356 . S
C1303 C1297 1.363 . S
C1303 C1298 1.379 . S
C1303 N1301 1.356 . S
N1304 C1296 1.356 . S
N1304 H1310 0.984 . S
N1304 H1311 0.984 . S
N1305 C1298 1.356 . S
N1305 H1308 0.984 . S
N1305 H1309 0.985 . S
H1306 N1301 0.984 . S
H1307 N1301 0.985 . S
H1308 N1305 0.984 . S
H1309 N1305 0.985 . S
H1310 N1304 0.984 . S
H1311 N1304 0.984 . S
H1312 N1300 0.984 . S
H1313 N1300 0.985 . S
C1314 C1315 1.363 . S
C1314 C1320 1.379 . S
C1314 N1322 1.356 . S
C1315 C1314 1.363 . S
C1315 C1321 1.363 . S
C1316 C1317 1.363 . S
C1316 C1321 1.379 . S
C1316 N1323 1.356 . S
C1317 C1316 1.363 . S
C1317 C1320 1.363 . S
N1318 C1320 1.356 . S
N1318 H1330 0.984 . S
N1318 H1331 0.985 . S
N1319 C1321 1.356 . S
N1319 H1324 0.984 . S
N1319 H1325 0.985 . S
C1320 C1314 1.379 . S
C1320 C1317 1.363 . S
C1320 N1318 1.356 . S
C1321 C1315 1.363 . S
C1321 C1316 1.379 . S
C1321 N1319 1.356 . S
N1322 C1314 1.356 . S
N1322 H1328 0.984 . S
N1322 H1329 0.984 . S
N1323 C1316 1.356 . S
N1323 H1326 0.984 . S
N1323 H1327 0.985 . S
H1324 N1319 0.984 . S
H1325 N1319 0.985 . S
H1326 N1323 0.984 . S
H1327 N1323 0.985 . S
H1328 N1322 0.984 . S
H1329 N1322 0.984 . S
H1330 N1318 0.984 . S
H1331 N1318 0.985 . S
C1332 C1333 1.363 . S
C1332 C1338 1.379 . S
C1332 N1340 1.356 . S
C1333 C1332 1.363 . S
C1333 C1339 1.363 . S
C1334 C1335 1.363 . S
C1334 C1339 1.379 . S
C1334 N1341 1.356 . S
C1335 C1334 1.363 . S
C1335 C1338 1.363 . S
N1336 C1338 1.356 . S
N1336 H1348 0.984 . S
N1336 H1349 0.985 . S
N1337 C1339 1.356 . S
N1337 H1342 0.984 . S
N1337 H1343 0.985 . S
C1338 C1332 1.379 . S
C1338 C1335 1.363 . S
C1338 N1336 1.356 . S
C1339 C1333 1.363 . S
C1339 C1334 1.379 . S
C1339 N1337 1.356 . S
N1340 C1332 1.356 . S
N1340 H1346 0.984 . S
N1340 H1347 0.984 . S
N1341 C1334 1.356 . S
N1341 H1344 0.984 . S
N1341 H1345 0.985 . S
H1342 N1337 0.984 . S
H1343 N1337 0.985 . S
H1344 N1341 0.984 . S
H1345 N1341 0.985 . S
H1346 N1340 0.984 . S
H1347 N1340 0.984 . S
H1348 N1336 0.984 . S
H1349 N1336 0.985 . S
C1350 C1351 1.363 . S
C1350 C1356 1.379 . S
C1350 N1358 1.356 . S
C1351 C1350 1.363 . S
C1351 C1357 1.363 . S
C1352 C1353 1.363 . S
C1352 C1357 1.379 . S
C1352 N1359 1.356 . S
C1353 C1352 1.363 . S
C1353 C1356 1.363 . S
N1354 C1356 1.356 . S
N1354 H1366 0.984 . S
N1354 H1367 0.985 . S
N1355 C1357 1.356 . S
N1355 H1360 0.984 . S
N1355 H1361 0.985 . S
C1356 C1350 1.379 . S
C1356 C1353 1.363 . S
C1356 N1354 1.356 . S
C1357 C1351 1.363 . S
C1357 C1352 1.379 . S
C1357 N1355 1.356 . S
N1358 C1350 1.356 . S
N1358 H1364 0.984 . S
N1358 H1365 0.984 . S
N1359 C1352 1.356 . S
N1359 H1362 0.984 . S
N1359 H1363 0.985 . S
H1360 N1355 0.984 . S
H1361 N1355 0.985 . S
H1362 N1359 0.984 . S
H1363 N1359 0.985 . S
H1364 N1358 0.984 . S
H1365 N1358 0.984 . S
H1366 N1354 0.984 . S
H1367 N1354 0.985 . S
C1368 C1369 1.363 . S
C1368 C1374 1.379 . S
C1368 N1376 1.356 . S
C1369 C1368 1.363 . S
C1369 C1375 1.363 . S
C1370 C1371 1.363 . S
C1370 C1375 1.379 . S
C1370 N1377 1.356 . S
C1371 C1370 1.363 . S
C1371 C1374 1.363 . S
N1372 C1374 1.356 . S
N1372 H1384 0.984 . S
N1372 H1385 0.985 . S
N1373 C1375 1.356 . S
N1373 H1378 0.984 . S
N1373 H1379 0.985 . S
C1374 C1368 1.379 . S
C1374 C1371 1.363 . S
C1374 N1372 1.356 . S
C1375 C1369 1.363 . S
C1375 C1370 1.379 . S
C1375 N1373 1.356 . S
N1376 C1368 1.356 . S
N1376 H1382 0.984 . S
N1376 H1383 0.984 . S
N1377 C1370 1.356 . S
N1377 H1380 0.984 . S
N1377 H1381 0.985 1_554 S
H1378 N1373 0.984 . S
H1379 N1373 0.985 . S
H1380 N1377 0.984 . S
H1381 N1377 0.985 1_556 S
H1382 N1376 0.984 . S
H1383 N1376 0.984 . S
H1384 N1372 0.984 . S
H1385 N1372 0.985 . S
C1386 C1387 1.363 . S
C1386 C1392 1.379 . S
C1386 N1394 1.356 . S
C1387 C1386 1.363 . S
C1387 C1393 1.363 . S
C1388 C1389 1.363 . S
C1388 C1393 1.379 . S
C1388 N1395 1.356 . S
C1389 C1388 1.363 . S
C1389 C1392 1.363 . S
N1390 C1392 1.356 . S
N1390 H1402 0.984 . S
N1390 H1403 0.985 . S
N1391 C1393 1.356 . S
N1391 H1396 0.984 . S
N1391 H1397 0.985 . S
C1392 C1386 1.379 . S
C1392 C1389 1.363 . S
C1392 N1390 1.356 . S
C1393 C1387 1.363 . S
C1393 C1388 1.379 . S
C1393 N1391 1.356 . S
N1394 C1386 1.356 . S
N1394 H1400 0.984 . S
N1394 H1401 0.984 . S
N1395 C1388 1.356 . S
N1395 H1398 0.984 . S
N1395 H1399 0.985 . S
H1396 N1391 0.984 . S
H1397 N1391 0.985 . S
H1398 N1395 0.984 . S
H1399 N1395 0.985 . S
H1400 N1394 0.984 . S
H1401 N1394 0.984 . S
H1402 N1390 0.984 . S
H1403 N1390 0.985 . S
C1404 C1405 1.363 . S
C1404 C1410 1.379 . S
C1404 N1412 1.356 . S
C1405 C1404 1.363 . S
C1405 C1411 1.363 . S
C1406 C1407 1.363 . S
C1406 C1411 1.379 . S
C1406 N1413 1.356 . S
C1407 C1406 1.363 . S
C1407 C1410 1.363 . S
N1408 C1410 1.356 . S
N1408 H1420 0.984 . S
N1408 H1421 0.985 . S
N1409 C1411 1.356 . S
N1409 H1414 0.984 . S
N1409 H1415 0.985 1_554 S
C1410 C1404 1.379 . S
C1410 C1407 1.363 . S
C1410 N1408 1.356 . S
C1411 C1405 1.363 . S
C1411 C1406 1.379 . S
C1411 N1409 1.356 . S
N1412 C1404 1.356 . S
N1412 H1418 0.984 . S
N1412 H1419 0.984 . S
N1413 C1406 1.356 . S
N1413 H1416 0.984 . S
N1413 H1417 0.985 . S
H1414 N1409 0.984 . S
H1415 N1409 0.985 1_556 S
H1416 N1413 0.984 . S
H1417 N1413 0.985 . S
H1418 N1412 0.984 . S
H1419 N1412 0.984 . S
H1420 N1408 0.984 . S
H1421 N1408 0.985 . S
C1422 C1423 1.363 . S
C1422 C1428 1.379 . S
C1422 N1430 1.356 . S
C1423 C1422 1.363 . S
C1423 C1429 1.363 . S
C1424 C1425 1.363 . S
C1424 C1429 1.379 . S
C1424 N1431 1.356 . S
C1425 C1424 1.363 . S
C1425 C1428 1.363 . S
N1426 C1428 1.356 . S
N1426 H1438 0.984 . S
N1426 H1439 0.985 . S
N1427 C1429 1.356 . S
N1427 H1432 0.984 . S
N1427 H1433 0.985 . S
C1428 C1422 1.379 . S
C1428 C1425 1.363 . S
C1428 N1426 1.356 . S
C1429 C1423 1.363 . S
C1429 C1424 1.379 . S
C1429 N1427 1.356 . S
N1430 C1422 1.356 . S
N1430 H1436 0.984 . S
N1430 H1437 0.984 . S
N1431 C1424 1.356 . S
N1431 H1434 0.984 . S
N1431 H1435 0.985 . S
H1432 N1427 0.984 . S
H1433 N1427 0.985 . S
H1434 N1431 0.984 . S
H1435 N1431 0.985 . S
H1436 N1430 0.984 . S
H1437 N1430 0.984 . S
H1438 N1426 0.984 . S
H1439 N1426 0.985 . S
C1440 C1441 1.363 . S
C1440 C1446 1.379 . S
C1440 N1448 1.356 . S
C1441 C1440 1.363 . S
C1441 C1447 1.363 . S
C1442 C1443 1.363 . S
C1442 C1447 1.379 . S
C1442 N1449 1.356 . S
C1443 C1442 1.363 . S
C1443 C1446 1.363 . S
N1444 C1446 1.356 . S
N1444 H1456 0.984 . S
N1444 H1457 0.985 . S
N1445 C1447 1.356 . S
N1445 H1450 0.984 . S
N1445 H1451 0.985 . S
C1446 C1440 1.379 . S
C1446 C1443 1.363 . S
C1446 N1444 1.356 . S
C1447 C1441 1.363 . S
C1447 C1442 1.379 . S
C1447 N1445 1.356 . S
N1448 C1440 1.356 . S
N1448 H1454 0.984 . S
N1448 H1455 0.984 . S
N1449 C1442 1.356 . S
N1449 H1452 0.984 . S
N1449 H1453 0.985 . S
H1450 N1445 0.984 . S
H1451 N1445 0.985 . S
H1452 N1449 0.984 . S
H1453 N1449 0.985 . S
H1454 N1448 0.984 . S
H1455 N1448 0.984 . S
H1456 N1444 0.984 . S
H1457 N1444 0.985 . S
C1458 C1459 1.363 . S
C1458 C1464 1.379 . S
C1458 N1466 1.356 . S
C1459 C1458 1.363 . S
C1459 C1465 1.363 . S
C1460 C1461 1.363 . S
C1460 C1465 1.379 . S
C1460 N1467 1.356 . S
C1461 C1460 1.363 . S
C1461 C1464 1.363 . S
N1462 C1464 1.356 . S
N1462 H1474 0.984 . S
N1462 H1475 0.985 . S
N1463 C1465 1.356 . S
N1463 H1468 0.984 . S
N1463 H1469 0.985 . S
C1464 C1458 1.379 . S
C1464 C1461 1.363 . S
C1464 N1462 1.356 . S
C1465 C1459 1.363 . S
C1465 C1460 1.379 . S
C1465 N1463 1.356 . S
N1466 C1458 1.356 . S
N1466 H1472 0.984 . S
N1466 H1473 0.984 . S
N1467 C1460 1.356 . S
N1467 H1470 0.984 . S
N1467 H1471 0.985 . S
H1468 N1463 0.984 . S
H1469 N1463 0.985 . S
H1470 N1467 0.984 . S
H1471 N1467 0.985 . S
H1472 N1466 0.984 . S
H1473 N1466 0.984 . S
H1474 N1462 0.984 . S
H1475 N1462 0.985 . S
C1476 C1477 1.363 . S
C1476 C1482 1.379 . S
C1476 N1484 1.356 . S
C1477 C1476 1.363 . S
C1477 C1483 1.363 . S
C1478 C1479 1.363 . S
C1478 C1483 1.379 . S
C1478 N1485 1.356 . S
C1479 C1478 1.363 . S
C1479 C1482 1.363 . S
N1480 C1482 1.356 . S
N1480 H1492 0.984 . S
N1480 H1493 0.985 . S
N1481 C1483 1.356 . S
N1481 H1486 0.984 . S
N1481 H1487 0.985 . S
C1482 C1476 1.379 . S
C1482 C1479 1.363 . S
C1482 N1480 1.356 . S
C1483 C1477 1.363 . S
C1483 C1478 1.379 . S
C1483 N1481 1.356 . S
N1484 C1476 1.356 . S
N1484 H1490 0.984 . S
N1484 H1491 0.984 . S
N1485 C1478 1.356 . S
N1485 H1488 0.984 . S
N1485 H1489 0.985 . S
H1486 N1481 0.984 . S
H1487 N1481 0.985 . S
H1488 N1485 0.984 . S
H1489 N1485 0.985 . S
H1490 N1484 0.984 . S
H1491 N1484 0.984 . S
H1492 N1480 0.984 . S
H1493 N1480 0.985 . S
C1494 C1495 1.363 . S
C1494 C1500 1.379 . S
C1494 N1502 1.356 . S
C1495 C1494 1.363 . S
C1495 C1501 1.363 . S
C1496 C1497 1.363 . S
C1496 C1501 1.379 . S
C1496 N1503 1.356 . S
C1497 C1496 1.363 . S
C1497 C1500 1.363 . S
N1498 C1500 1.356 . S
N1498 H1510 0.984 . S
N1498 H1511 0.985 . S
N1499 C1501 1.356 . S
N1499 H1504 0.984 . S
N1499 H1505 0.985 . S
C1500 C1494 1.379 . S
C1500 C1497 1.363 . S
C1500 N1498 1.356 . S
C1501 C1495 1.363 . S
C1501 C1496 1.379 . S
C1501 N1499 1.356 . S
N1502 C1494 1.356 . S
N1502 H1508 0.984 . S
N1502 H1509 0.984 . S
N1503 C1496 1.356 . S
N1503 H1506 0.984 . S
N1503 H1507 0.985 . S
H1504 N1499 0.984 . S
H1505 N1499 0.985 . S
H1506 N1503 0.984 . S
H1507 N1503 0.985 . S
H1508 N1502 0.984 . S
H1509 N1502 0.984 . S
H1510 N1498 0.984 . S
H1511 N1498 0.985 . S
C1512 C1513 1.363 . S
C1512 C1518 1.379 . S
C1512 N1520 1.356 . S
C1513 C1512 1.363 . S
C1513 C1519 1.363 . S
C1514 C1515 1.363 . S
C1514 C1519 1.379 . S
C1514 N1521 1.356 . S
C1515 C1514 1.363 . S
C1515 C1518 1.363 . S
N1516 C1518 1.356 . S
N1516 H1528 0.984 . S
N1516 H1529 0.985 . S
N1517 C1519 1.356 . S
N1517 H1522 0.984 . S
N1517 H1523 0.985 . S
C1518 C1512 1.379 . S
C1518 C1515 1.363 . S
C1518 N1516 1.356 . S
C1519 C1513 1.363 . S
C1519 C1514 1.379 . S
C1519 N1517 1.356 . S
N1520 C1512 1.356 . S
N1520 H1526 0.984 . S
N1520 H1527 0.984 . S
N1521 C1514 1.356 . S
N1521 H1524 0.984 . S
N1521 H1525 0.985 . S
H1522 N1517 0.984 . S
H1523 N1517 0.985 . S
H1524 N1521 0.984 . S
H1525 N1521 0.985 . S
H1526 N1520 0.984 . S
H1527 N1520 0.984 . S
H1528 N1516 0.984 . S
H1529 N1516 0.985 . S
C1530 C1531 1.363 . S
C1530 C1536 1.379 . S
C1530 N1538 1.356 . S
C1531 C1530 1.363 . S
C1531 C1537 1.363 . S
C1532 C1533 1.363 . S
C1532 C1537 1.379 . S
C1532 N1539 1.356 . S
C1533 C1532 1.363 . S
C1533 C1536 1.363 . S
N1534 C1536 1.356 . S
N1534 H1546 0.984 . S
N1534 H1547 0.985 . S
N1535 C1537 1.356 . S
N1535 H1540 0.984 . S
N1535 H1541 0.985 . S
C1536 C1530 1.379 . S
C1536 C1533 1.363 . S
C1536 N1534 1.356 . S
C1537 C1531 1.363 . S
C1537 C1532 1.379 . S
C1537 N1535 1.356 . S
N1538 C1530 1.356 . S
N1538 H1544 0.984 . S
N1538 H1545 0.984 . S
N1539 C1532 1.356 . S
N1539 H1542 0.984 . S
N1539 H1543 0.985 . S
H1540 N1535 0.984 . S
H1541 N1535 0.985 . S
H1542 N1539 0.984 . S
H1543 N1539 0.985 . S
H1544 N1538 0.984 . S
H1545 N1538 0.984 . S
H1546 N1534 0.984 . S
H1547 N1534 0.985 . S
C1548 C1549 1.363 . S
C1548 C1554 1.379 . S
C1548 N1556 1.356 . S
C1549 C1548 1.363 . S
C1549 C1555 1.363 . S
C1550 C1551 1.363 . S
C1550 C1555 1.379 . S
C1550 N1557 1.356 . S
C1551 C1550 1.363 . S
C1551 C1554 1.363 . S
N1552 C1554 1.356 . S
N1552 H1564 0.984 . S
N1552 H1565 0.985 . S
N1553 C1555 1.356 . S
N1553 H1558 0.984 . S
N1553 H1559 0.985 . S
C1554 C1548 1.379 . S
C1554 C1551 1.363 . S
C1554 N1552 1.356 . S
C1555 C1549 1.363 . S
C1555 C1550 1.379 . S
C1555 N1553 1.356 . S
N1556 C1548 1.356 . S
N1556 H1562 0.984 . S
N1556 H1563 0.984 . S
N1557 C1550 1.356 . S
N1557 H1560 0.984 . S
N1557 H1561 0.985 . S
H1558 N1553 0.984 . S
H1559 N1553 0.985 . S
H1560 N1557 0.984 . S
H1561 N1557 0.985 . S
H1562 N1556 0.984 . S
H1563 N1556 0.984 . S
H1564 N1552 0.984 . S
H1565 N1552 0.985 . S
C1566 C1567 1.363 . S
C1566 C1572 1.379 . S
C1566 N1574 1.356 . S
C1567 C1566 1.363 . S
C1567 C1573 1.363 . S
C1568 C1569 1.363 . S
C1568 C1573 1.379 . S
C1568 N1575 1.356 . S
C1569 C1568 1.363 . S
C1569 C1572 1.363 . S
N1570 C1572 1.356 . S
N1570 H1582 0.984 . S
N1570 H1583 0.985 . S
N1571 C1573 1.356 . S
N1571 H1576 0.984 . S
N1571 H1577 0.985 . S
C1572 C1566 1.379 . S
C1572 C1569 1.363 . S
C1572 N1570 1.356 . S
C1573 C1567 1.363 . S
C1573 C1568 1.379 . S
C1573 N1571 1.356 . S
N1574 C1566 1.356 . S
N1574 H1580 0.984 . S
N1574 H1581 0.984 . S
N1575 C1568 1.356 . S
N1575 H1578 0.984 . S
N1575 H1579 0.985 1_545 S
H1576 N1571 0.984 . S
H1577 N1571 0.985 . S
H1578 N1575 0.984 . S
H1579 N1575 0.985 1_565 S
H1580 N1574 0.984 . S
H1581 N1574 0.984 . S
H1582 N1570 0.984 . S
H1583 N1570 0.985 . S
C1584 C1585 1.363 . S
C1584 C1590 1.379 . S
C1584 N1592 1.356 . S
C1585 C1584 1.363 . S
C1585 C1591 1.363 . S
C1586 C1587 1.363 . S
C1586 C1591 1.379 . S
C1586 N1593 1.356 . S
C1587 C1586 1.363 . S
C1587 C1590 1.363 . S
N1588 C1590 1.356 . S
N1588 H1600 0.984 1_565 S
N1588 H1601 0.985 . S
N1589 C1591 1.356 . S
N1589 H1594 0.984 . S
N1589 H1595 0.985 . S
C1590 C1584 1.379 . S
C1590 C1587 1.363 . S
C1590 N1588 1.356 . S
C1591 C1585 1.363 . S
C1591 C1586 1.379 . S
C1591 N1589 1.356 . S
N1592 C1584 1.356 . S
N1592 H1598 0.984 . S
N1592 H1599 0.984 . S
N1593 C1586 1.356 . S
N1593 H1596 0.984 . S
N1593 H1597 0.985 . S
H1594 N1589 0.984 . S
H1595 N1589 0.985 . S
H1596 N1593 0.984 . S
H1597 N1593 0.985 . S
H1598 N1592 0.984 . S
H1599 N1592 0.984 . S
H1600 N1588 0.984 1_545 S
H1601 N1588 0.985 . S
C1602 C1603 1.363 . S
C1602 C1608 1.379 . S
C1602 N1610 1.356 . S
C1603 C1602 1.363 . S
C1603 C1609 1.363 . S
C1604 C1605 1.363 . S
C1604 C1609 1.379 . S
C1604 N1611 1.356 . S
C1605 C1604 1.363 . S
C1605 C1608 1.363 . S
N1606 C1608 1.356 . S
N1606 H1618 0.984 . S
N1606 H1619 0.985 . S
N1607 C1609 1.356 . S
N1607 H1612 0.984 . S
N1607 H1613 0.985 . S
C1608 C1602 1.379 . S
C1608 C1605 1.363 . S
C1608 N1606 1.356 . S
C1609 C1603 1.363 . S
C1609 C1604 1.379 . S
C1609 N1607 1.356 . S
N1610 C1602 1.356 . S
N1610 H1616 0.984 . S
N1610 H1617 0.984 . S
N1611 C1604 1.356 . S
N1611 H1614 0.984 . S
N1611 H1615 0.985 . S
H1612 N1607 0.984 . S
H1613 N1607 0.985 . S
H1614 N1611 0.984 . S
H1615 N1611 0.985 . S
H1616 N1610 0.984 . S
H1617 N1610 0.984 . S
H1618 N1606 0.984 . S
H1619 N1606 0.985 . S
C1620 C1621 1.363 . S
C1620 C1626 1.379 . S
C1620 N1628 1.356 . S
C1621 C1620 1.363 . S
C1621 C1627 1.363 . S
C1622 C1623 1.363 . S
C1622 C1627 1.379 . S
C1622 N1629 1.356 . S
C1623 C1622 1.363 . S
C1623 C1626 1.363 . S
N1624 C1626 1.356 . S
N1624 H1636 0.984 . S
N1624 H1637 0.985 . S
N1625 C1627 1.356 . S
N1625 H1630 0.984 . S
N1625 H1631 0.985 . S
C1626 C1620 1.379 . S
C1626 C1623 1.363 . S
C1626 N1624 1.356 . S
C1627 C1621 1.363 . S
C1627 C1622 1.379 . S
C1627 N1625 1.356 . S
N1628 C1620 1.356 . S
N1628 H1634 0.984 . S
N1628 H1635 0.984 . S
N1629 C1622 1.356 . S
N1629 H1632 0.984 . S
N1629 H1633 0.985 . S
H1630 N1625 0.984 . S
H1631 N1625 0.985 . S
H1632 N1629 0.984 . S
H1633 N1629 0.985 . S
H1634 N1628 0.984 . S
H1635 N1628 0.984 . S
H1636 N1624 0.984 . S
H1637 N1624 0.985 . S
C1638 C1639 1.363 . S
C1638 C1644 1.379 . S
C1638 N1646 1.356 . S
C1639 C1638 1.363 . S
C1639 C1645 1.363 . S
C1640 C1641 1.363 . S
C1640 C1645 1.379 . S
C1640 N1647 1.356 . S
C1641 C1640 1.363 . S
C1641 C1644 1.363 . S
N1642 C1644 1.356 . S
N1642 H1654 0.984 . S
N1642 H1655 0.985 . S
N1643 C1645 1.356 . S
N1643 H1648 0.984 . S
N1643 H1649 0.985 . S
C1644 C1638 1.379 . S
C1644 C1641 1.363 . S
C1644 N1642 1.356 . S
C1645 C1639 1.363 . S
C1645 C1640 1.379 . S
C1645 N1643 1.356 . S
N1646 C1638 1.356 . S
N1646 H1652 0.984 . S
N1646 H1653 0.984 . S
N1647 C1640 1.356 . S
N1647 H1650 0.984 . S
N1647 H1651 0.985 . S
H1648 N1643 0.984 . S
H1649 N1643 0.985 . S
H1650 N1647 0.984 . S
H1651 N1647 0.985 . S
H1652 N1646 0.984 . S
H1653 N1646 0.984 . S
H1654 N1642 0.984 . S
H1655 N1642 0.985 . S
C1656 C1657 1.363 . S
C1656 C1662 1.379 . S
C1656 N1664 1.356 . S
C1657 C1656 1.363 . S
C1657 C1663 1.363 . S
C1658 C1659 1.363 . S
C1658 C1663 1.379 . S
C1658 N1665 1.356 . S
C1659 C1658 1.363 . S
C1659 C1662 1.363 . S
N1660 C1662 1.356 . S
N1660 H1672 0.984 . S
N1660 H1673 0.985 . S
N1661 C1663 1.356 . S
N1661 H1666 0.984 . S
N1661 H1667 0.985 . S
C1662 C1656 1.379 . S
C1662 C1659 1.363 . S
C1662 N1660 1.356 . S
C1663 C1657 1.363 . S
C1663 C1658 1.379 . S
C1663 N1661 1.356 . S
N1664 C1656 1.356 . S
N1664 H1670 0.984 . S
N1664 H1671 0.984 . S
N1665 C1658 1.356 . S
N1665 H1668 0.984 . S
N1665 H1669 0.985 . S
H1666 N1661 0.984 . S
H1667 N1661 0.985 . S
H1668 N1665 0.984 . S
H1669 N1665 0.985 . S
H1670 N1664 0.984 . S
H1671 N1664 0.984 . S
H1672 N1660 0.984 . S
H1673 N1660 0.985 . S
C1674 C1675 1.363 . S
C1674 C1680 1.379 . S
C1674 N1682 1.356 . S
C1675 C1674 1.363 . S
C1675 C1681 1.363 . S
C1676 C1677 1.363 . S
C1676 C1681 1.379 . S
C1676 N1683 1.356 . S
C1677 C1676 1.363 . S
C1677 C1680 1.363 . S
N1678 C1680 1.356 . S
N1678 H1690 0.984 . S
N1678 H1691 0.985 . S
N1679 C1681 1.356 . S
N1679 H1684 0.984 . S
N1679 H1685 0.985 . S
C1680 C1674 1.379 . S
C1680 C1677 1.363 . S
C1680 N1678 1.356 . S
C1681 C1675 1.363 . S
C1681 C1676 1.379 . S
C1681 N1679 1.356 . S
N1682 C1674 1.356 . S
N1682 H1688 0.984 . S
N1682 H1689 0.984 . S
N1683 C1676 1.356 . S
N1683 H1686 0.984 . S
N1683 H1687 0.985 . S
H1684 N1679 0.984 . S
H1685 N1679 0.985 . S
H1686 N1683 0.984 . S
H1687 N1683 0.985 . S
H1688 N1682 0.984 . S
H1689 N1682 0.984 . S
H1690 N1678 0.984 . S
H1691 N1678 0.985 . S
C1692 C1693 1.363 . S
C1692 C1698 1.379 . S
C1692 N1700 1.356 . S
C1693 C1692 1.363 . S
C1693 C1699 1.363 . S
C1694 C1695 1.363 . S
C1694 C1699 1.379 . S
C1694 N1701 1.356 . S
C1695 C1694 1.363 . S
C1695 C1698 1.363 . S
N1696 C1698 1.356 . S
N1696 H1708 0.984 . S
N1696 H1709 0.985 . S
N1697 C1699 1.356 . S
N1697 H1702 0.984 . S
N1697 H1703 0.985 . S
C1698 C1692 1.379 . S
C1698 C1695 1.363 . S
C1698 N1696 1.356 . S
C1699 C1693 1.363 . S
C1699 C1694 1.379 . S
C1699 N1697 1.356 . S
N1700 C1692 1.356 . S
N1700 H1706 0.984 . S
N1700 H1707 0.984 . S
N1701 C1694 1.356 . S
N1701 H1704 0.984 . S
N1701 H1705 0.985 . S
H1702 N1697 0.984 . S
H1703 N1697 0.985 . S
H1704 N1701 0.984 . S
H1705 N1701 0.985 . S
H1706 N1700 0.984 . S
H1707 N1700 0.984 . S
H1708 N1696 0.984 . S
H1709 N1696 0.985 . S
C1710 C1711 1.363 . S
C1710 C1716 1.379 . S
C1710 N1718 1.356 . S
C1711 C1710 1.363 . S
C1711 C1717 1.363 . S
C1712 C1713 1.363 . S
C1712 C1717 1.379 . S
C1712 N1719 1.356 . S
C1713 C1712 1.363 . S
C1713 C1716 1.363 . S
N1714 C1716 1.356 . S
N1714 H1726 0.984 . S
N1714 H1727 0.985 . S
N1715 C1717 1.356 . S
N1715 H1720 0.984 . S
N1715 H1721 0.985 . S
C1716 C1710 1.379 . S
C1716 C1713 1.363 . S
C1716 N1714 1.356 . S
C1717 C1711 1.363 . S
C1717 C1712 1.379 . S
C1717 N1715 1.356 . S
N1718 C1710 1.356 . S
N1718 H1724 0.984 . S
N1718 H1725 0.984 . S
N1719 C1712 1.356 . S
N1719 H1722 0.984 . S
N1719 H1723 0.985 . S
H1720 N1715 0.984 . S
H1721 N1715 0.985 . S
H1722 N1719 0.984 . S
H1723 N1719 0.985 . S
H1724 N1718 0.984 . S
H1725 N1718 0.984 . S
H1726 N1714 0.984 . S
H1727 N1714 0.985 . S
C867 C689 1.749 . S
C865 C74 1.714 . S
C885 C694 1.205 . S
C883 C153 1.142 . S
C903 C695 1.704 . S
C901 C231 1.665 . S
C919 C310 0.956 . S
C921 C699 0.871 . S
C937 C394 1.142 . S
C939 C702 1.205 . S
C957 C703 1.704 . S
C955 C494 1.665 . S
C973 C573 0.956 . S
C975 C680 0.871 . S
C991 C651 1.714 . S
C993 C696 1.749 . S
C1011 C734 2.372 . S
C1009 C56 2.480 . S
C1027 C151 1.640 . S
C1029 C760 1.615 . S
C1047 C712 1.198 . S
C1045 C237 1.182 . S
C1065 C767 1.647 . S
C1063 C326 1.622 . S
C1081 C410 1.652 . S
C1083 C721 1.646 . S
C1101 C763 2.369 . S
C1099 C476 2.469 . S
C1117 C571 1.661 . S
C1119 C727 1.637 . S
C1135 C657 1.181 . S
C1137 C758 1.202 . S
C1153 C58 1.181 . S
C1155 C766 1.202 . S
C1171 C392 1.640 . S
C1173 C753 1.615 . S
C1191 C731 1.198 . S
C1189 C478 1.182 . S
C1209 C759 1.647 . S
C1207 C567 1.622 . S
C1225 C655 2.480 . S
C1227 C726 2.372 . S
C1243 C235 2.469 . S
C1245 C744 2.369 . S
C1263 C735 1.637 . S
C1261 C308 1.661 . S
C1279 C147 1.652 . S
C1281 C728 1.645 . S
C1297 C662 1.688 . S
C1299 C790 1.655 . S
C1315 C405 1.121 . S
C1317 C785 1.180 . S
C1335 C799 1.574 . S
C1333 C483 1.643 . S
C1353 C776 0.597 . S
C1351 C562 0.961 . S
C1369 C142 1.121 . S
C1371 C792 1.180 . S
C1389 C791 1.574 . S
C1387 C242 1.643 . S
C1405 C321 0.961 . S
C1407 C795 0.597 . S
C1423 C63 1.687 . S
C1425 C798 1.655 . S
C1441 C644 2.489 . S
C1443 C824 2.455 . S
C1461 C840 1.542 . S
C1459 C403 1.639 . S
C1477 C489 1.190 . S
C1479 C822 1.250 . S
C1495 C578 1.628 . S
C1497 C855 1.640 . S
C1515 C831 1.608 . S
C1513 C158 1.636 . S
C1531 C224 2.496 . S
C1533 C849 2.421 . S
C1551 C827 1.538 . S
C1549 C319 1.640 . S
C1569 C862 1.225 . S
C1567 C69 1.196 . S
C1587 C854 1.225 . S
C1585 C646 1.196 . S
C1603 C140 1.639 . S
C1605 C859 1.542 . S
C1621 C226 1.190 . S
C1623 C830 1.251 . S
C1641 C863 1.640 . S
C1639 C315 1.628 . S
C1657 C67 2.489 . S
C1659 C817 2.455 . S
C1675 C487 2.496 . S
C1677 C856 2.421 . S
C1695 C808 1.538 . S
C1693 C560 1.640 . S
C1713 C823 1.608 . S
C1711 C399 1.636 . S
