# Generated by pormake.
# Topology gar, (4,6)-cn, num edge types: 1
# Building blocks:
#     Node 0, Type 0, BuildingBlock: QUQFOY_clean_sbu_3, # of connection points: 4
#     Node 1, Type 0, BuildingBlock: QUQFOY_clean_sbu_3, # of connection points: 4
#     Node 2, Type 0, BuildingBlock: QUQFOY_clean_sbu_3, # of connection points: 4
#     Node 3, Type 0, BuildingBlock: QUQFOY_clean_sbu_3, # of connection points: 4
#     Node 4, Type 0, BuildingBlock: QUQFOY_clean_sbu_3, # of connection points: 4
#     Node 5, Type 0, BuildingBlock: QUQFOY_clean_sbu_3, # of connection points: 4
#     Node 6, Type 0, BuildingBlock: QUQFOY_clean_sbu_3, # of connection points: 4
#     Node 7, Type 0, BuildingBlock: QUQFOY_clean_sbu_3, # of connection points: 4
#     Node 8, Type 0, BuildingBlock: QUQFOY_clean_sbu_3, # of connection points: 4
#     Node 9, Type 0, BuildingBlock: QUQFOY_clean_sbu_3, # of connection points: 4
#     Node 10, Type 0, BuildingBlock: QUQFOY_clean_sbu_3, # of connection points: 4
#     Node 11, Type 0, BuildingBlock: QUQFOY_clean_sbu_3, # of connection points: 4
#     Node 12, Type 0, BuildingBlock: QUQFOY_clean_sbu_3, # of connection points: 4
#     Node 13, Type 0, BuildingBlock: QUQFOY_clean_sbu_3, # of connection points: 4
#     Node 14, Type 0, BuildingBlock: QUQFOY_clean_sbu_3, # of connection points: 4
#     Node 15, Type 0, BuildingBlock: QUQFOY_clean_sbu_3, # of connection points: 4
#     Node 16, Type 0, BuildingBlock: QUQFOY_clean_sbu_3, # of connection points: 4
#     Node 17, Type 0, BuildingBlock: QUQFOY_clean_sbu_3, # of connection points: 4
#     Node 18, Type 0, BuildingBlock: QUQFOY_clean_sbu_3, # of connection points: 4
#     Node 19, Type 0, BuildingBlock: QUQFOY_clean_sbu_3, # of connection points: 4
#     Node 20, Type 0, BuildingBlock: QUQFOY_clean_sbu_3, # of connection points: 4
#     Node 21, Type 0, BuildingBlock: QUQFOY_clean_sbu_3, # of connection points: 4
#     Node 22, Type 0, BuildingBlock: QUQFOY_clean_sbu_3, # of connection points: 4
#     Node 23, Type 0, BuildingBlock: QUQFOY_clean_sbu_3, # of connection points: 4
#     Node 24, Type 1, BuildingBlock: BETDIP_clean_sbu_0, # of connection points: 6
#     Node 25, Type 1, BuildingBlock: BETDIP_clean_sbu_0, # of connection points: 6
#     Node 26, Type 1, BuildingBlock: BETDIP_clean_sbu_0, # of connection points: 6
#     Node 27, Type 1, BuildingBlock: BETDIP_clean_sbu_0, # of connection points: 6
#     Node 28, Type 1, BuildingBlock: BETDIP_clean_sbu_0, # of connection points: 6
#     Node 29, Type 1, BuildingBlock: BETDIP_clean_sbu_0, # of connection points: 6
#     Node 30, Type 1, BuildingBlock: BETDIP_clean_sbu_0, # of connection points: 6
#     Node 31, Type 1, BuildingBlock: BETDIP_clean_sbu_0, # of connection points: 6
#     Node 32, Type 1, BuildingBlock: BETDIP_clean_sbu_0, # of connection points: 6
#     Node 33, Type 1, BuildingBlock: BETDIP_clean_sbu_0, # of connection points: 6
#     Node 34, Type 1, BuildingBlock: BETDIP_clean_sbu_0, # of connection points: 6
#     Node 35, Type 1, BuildingBlock: BETDIP_clean_sbu_0, # of connection points: 6
#     Node 36, Type 1, BuildingBlock: BETDIP_clean_sbu_0, # of connection points: 6
#     Node 37, Type 1, BuildingBlock: BETDIP_clean_sbu_0, # of connection points: 6
#     Node 38, Type 1, BuildingBlock: BETDIP_clean_sbu_0, # of connection points: 6
#     Node 39, Type 1, BuildingBlock: BETDIP_clean_sbu_0, # of connection points: 6
#     Edge 40, Type (0, 1), BuildingBlock: XUDNAN_clean_linker_2, # of connection points: 2
#     Edge 41, Type (0, 1), BuildingBlock: XUDNAN_clean_linker_2, # of connection points: 2
#     Edge 42, Type (0, 1), BuildingBlock: XUDNAN_clean_linker_2, # of connection points: 2
#     Edge 43, Type (0, 1), BuildingBlock: XUDNAN_clean_linker_2, # of connection points: 2
#     Edge 44, Type (0, 1), BuildingBlock: XUDNAN_clean_linker_2, # of connection points: 2
#     Edge 45, Type (0, 1), BuildingBlock: XUDNAN_clean_linker_2, # of connection points: 2
#     Edge 46, Type (0, 1), BuildingBlock: XUDNAN_clean_linker_2, # of connection points: 2
#     Edge 47, Type (0, 1), BuildingBlock: XUDNAN_clean_linker_2, # of connection points: 2
#     Edge 48, Type (0, 1), BuildingBlock: XUDNAN_clean_linker_2, # of connection points: 2
#     Edge 49, Type (0, 1), BuildingBlock: XUDNAN_clean_linker_2, # of connection points: 2
#     Edge 50, Type (0, 1), BuildingBlock: XUDNAN_clean_linker_2, # of connection points: 2
#     Edge 51, Type (0, 1), BuildingBlock: XUDNAN_clean_linker_2, # of connection points: 2
#     Edge 52, Type (0, 1), BuildingBlock: XUDNAN_clean_linker_2, # of connection points: 2
#     Edge 53, Type (0, 1), BuildingBlock: XUDNAN_clean_linker_2, # of connection points: 2
#     Edge 54, Type (0, 1), BuildingBlock: XUDNAN_clean_linker_2, # of connection points: 2
#     Edge 55, Type (0, 1), BuildingBlock: XUDNAN_clean_linker_2, # of connection points: 2
#     Edge 56, Type (0, 1), BuildingBlock: XUDNAN_clean_linker_2, # of connection points: 2
#     Edge 57, Type (0, 1), BuildingBlock: XUDNAN_clean_linker_2, # of connection points: 2
#     Edge 58, Type (0, 1), BuildingBlock: XUDNAN_clean_linker_2, # of connection points: 2
#     Edge 59, Type (0, 1), BuildingBlock: XUDNAN_clean_linker_2, # of connection points: 2
#     Edge 60, Type (0, 1), BuildingBlock: XUDNAN_clean_linker_2, # of connection points: 2
#     Edge 61, Type (0, 1), BuildingBlock: XUDNAN_clean_linker_2, # of connection points: 2
#     Edge 62, Type (0, 1), BuildingBlock: XUDNAN_clean_linker_2, # of connection points: 2
#     Edge 63, Type (0, 1), BuildingBlock: XUDNAN_clean_linker_2, # of connection points: 2
#     Edge 64, Type (0, 1), BuildingBlock: XUDNAN_clean_linker_2, # of connection points: 2
#     Edge 65, Type (0, 1), BuildingBlock: XUDNAN_clean_linker_2, # of connection points: 2
#     Edge 66, Type (0, 1), BuildingBlock: XUDNAN_clean_linker_2, # of connection points: 2
#     Edge 67, Type (0, 1), BuildingBlock: XUDNAN_clean_linker_2, # of connection points: 2
#     Edge 68, Type (0, 1), BuildingBlock: XUDNAN_clean_linker_2, # of connection points: 2
#     Edge 69, Type (0, 1), BuildingBlock: XUDNAN_clean_linker_2, # of connection points: 2
#     Edge 70, Type (0, 1), BuildingBlock: XUDNAN_clean_linker_2, # of connection points: 2
#     Edge 71, Type (0, 1), BuildingBlock: XUDNAN_clean_linker_2, # of connection points: 2
#     Edge 72, Type (0, 1), BuildingBlock: XUDNAN_clean_linker_2, # of connection points: 2
#     Edge 73, Type (0, 1), BuildingBlock: XUDNAN_clean_linker_2, # of connection points: 2
#     Edge 74, Type (0, 1), BuildingBlock: XUDNAN_clean_linker_2, # of connection points: 2
#     Edge 75, Type (0, 1), BuildingBlock: XUDNAN_clean_linker_2, # of connection points: 2
#     Edge 76, Type (0, 1), BuildingBlock: XUDNAN_clean_linker_2, # of connection points: 2
#     Edge 77, Type (0, 1), BuildingBlock: XUDNAN_clean_linker_2, # of connection points: 2
#     Edge 78, Type (0, 1), BuildingBlock: XUDNAN_clean_linker_2, # of connection points: 2
#     Edge 79, Type (0, 1), BuildingBlock: XUDNAN_clean_linker_2, # of connection points: 2
#     Edge 80, Type (0, 1), BuildingBlock: XUDNAN_clean_linker_2, # of connection points: 2
#     Edge 81, Type (0, 1), BuildingBlock: XUDNAN_clean_linker_2, # of connection points: 2
#     Edge 82, Type (0, 1), BuildingBlock: XUDNAN_clean_linker_2, # of connection points: 2
#     Edge 83, Type (0, 1), BuildingBlock: XUDNAN_clean_linker_2, # of connection points: 2
#     Edge 84, Type (0, 1), BuildingBlock: XUDNAN_clean_linker_2, # of connection points: 2
#     Edge 85, Type (0, 1), BuildingBlock: XUDNAN_clean_linker_2, # of connection points: 2
#     Edge 86, Type (0, 1), BuildingBlock: XUDNAN_clean_linker_2, # of connection points: 2
#     Edge 87, Type (0, 1), BuildingBlock: XUDNAN_clean_linker_2, # of connection points: 2
#     Edge 88, Type (0, 1), BuildingBlock: XUDNAN_clean_linker_2, # of connection points: 2
#     Edge 89, Type (0, 1), BuildingBlock: XUDNAN_clean_linker_2, # of connection points: 2
#     Edge 90, Type (0, 1), BuildingBlock: XUDNAN_clean_linker_2, # of connection points: 2
#     Edge 91, Type (0, 1), BuildingBlock: XUDNAN_clean_linker_2, # of connection points: 2
#     Edge 92, Type (0, 1), BuildingBlock: XUDNAN_clean_linker_2, # of connection points: 2
#     Edge 93, Type (0, 1), BuildingBlock: XUDNAN_clean_linker_2, # of connection points: 2
#     Edge 94, Type (0, 1), BuildingBlock: XUDNAN_clean_linker_2, # of connection points: 2
#     Edge 95, Type (0, 1), BuildingBlock: XUDNAN_clean_linker_2, # of connection points: 2
#     Edge 96, Type (0, 1), BuildingBlock: XUDNAN_clean_linker_2, # of connection points: 2
#     Edge 97, Type (0, 1), BuildingBlock: XUDNAN_clean_linker_2, # of connection points: 2
#     Edge 98, Type (0, 1), BuildingBlock: XUDNAN_clean_linker_2, # of connection points: 2
#     Edge 99, Type (0, 1), BuildingBlock: XUDNAN_clean_linker_2, # of connection points: 2
#     Edge 100, Type (0, 1), BuildingBlock: XUDNAN_clean_linker_2, # of connection points: 2
#     Edge 101, Type (0, 1), BuildingBlock: XUDNAN_clean_linker_2, # of connection points: 2
#     Edge 102, Type (0, 1), BuildingBlock: XUDNAN_clean_linker_2, # of connection points: 2
#     Edge 103, Type (0, 1), BuildingBlock: XUDNAN_clean_linker_2, # of connection points: 2
#     Edge 104, Type (0, 1), BuildingBlock: XUDNAN_clean_linker_2, # of connection points: 2
#     Edge 105, Type (0, 1), BuildingBlock: XUDNAN_clean_linker_2, # of connection points: 2
#     Edge 106, Type (0, 1), BuildingBlock: XUDNAN_clean_linker_2, # of connection points: 2
#     Edge 107, Type (0, 1), BuildingBlock: XUDNAN_clean_linker_2, # of connection points: 2
#     Edge 108, Type (0, 1), BuildingBlock: XUDNAN_clean_linker_2, # of connection points: 2
#     Edge 109, Type (0, 1), BuildingBlock: XUDNAN_clean_linker_2, # of connection points: 2
#     Edge 110, Type (0, 1), BuildingBlock: XUDNAN_clean_linker_2, # of connection points: 2
#     Edge 111, Type (0, 1), BuildingBlock: XUDNAN_clean_linker_2, # of connection points: 2
#     Edge 112, Type (0, 1), BuildingBlock: XUDNAN_clean_linker_2, # of connection points: 2
#     Edge 113, Type (0, 1), BuildingBlock: XUDNAN_clean_linker_2, # of connection points: 2
#     Edge 114, Type (0, 1), BuildingBlock: XUDNAN_clean_linker_2, # of connection points: 2
#     Edge 115, Type (0, 1), BuildingBlock: XUDNAN_clean_linker_2, # of connection points: 2
#     Edge 116, Type (0, 1), BuildingBlock: XUDNAN_clean_linker_2, # of connection points: 2
#     Edge 117, Type (0, 1), BuildingBlock: XUDNAN_clean_linker_2, # of connection points: 2
#     Edge 118, Type (0, 1), BuildingBlock: XUDNAN_clean_linker_2, # of connection points: 2
#     Edge 119, Type (0, 1), BuildingBlock: XUDNAN_clean_linker_2, # of connection points: 2
#     Edge 120, Type (0, 1), BuildingBlock: XUDNAN_clean_linker_2, # of connection points: 2
#     Edge 121, Type (0, 1), BuildingBlock: XUDNAN_clean_linker_2, # of connection points: 2
#     Edge 122, Type (0, 1), BuildingBlock: XUDNAN_clean_linker_2, # of connection points: 2
#     Edge 123, Type (0, 1), BuildingBlock: XUDNAN_clean_linker_2, # of connection points: 2
#     Edge 124, Type (0, 1), BuildingBlock: XUDNAN_clean_linker_2, # of connection points: 2
#     Edge 125, Type (0, 1), BuildingBlock: XUDNAN_clean_linker_2, # of connection points: 2
#     Edge 126, Type (0, 1), BuildingBlock: XUDNAN_clean_linker_2, # of connection points: 2
#     Edge 127, Type (0, 1), BuildingBlock: XUDNAN_clean_linker_2, # of connection points: 2
#     Edge 128, Type (0, 1), BuildingBlock: XUDNAN_clean_linker_2, # of connection points: 2
#     Edge 129, Type (0, 1), BuildingBlock: XUDNAN_clean_linker_2, # of connection points: 2
#     Edge 130, Type (0, 1), BuildingBlock: XUDNAN_clean_linker_2, # of connection points: 2
#     Edge 131, Type (0, 1), BuildingBlock: XUDNAN_clean_linker_2, # of connection points: 2
#     Edge 132, Type (0, 1), BuildingBlock: XUDNAN_clean_linker_2, # of connection points: 2
#     Edge 133, Type (0, 1), BuildingBlock: XUDNAN_clean_linker_2, # of connection points: 2
#     Edge 134, Type (0, 1), BuildingBlock: XUDNAN_clean_linker_2, # of connection points: 2
#     Edge 135, Type (0, 1), BuildingBlock: XUDNAN_clean_linker_2, # of connection points: 2
# Relax obj value: 0.180
# Max RMSD: 0.301
# Mean RMSD: 0.147
data_MOF--net-gar--node1-QUQFOY_clean_sbu_3--node2-BETDIP_clean_sbu_0--edge1-XUDNAN_clean_linker_2
_symmetry_space_group_name_H-M    P1
_symmetry_Int_Tables_number       1
_symmetry_cell_setting            triclinic
loop_
_symmetry_equiv_pos_as_xyz
'x, y, z'
_cell_length_a     64.025311
_cell_length_b     58.489656
_cell_length_c     55.663268
_cell_angle_alpha  97.518502
_cell_angle_beta   98.813502
_cell_angle_gamma 101.11354
loop_
_atom_site_label
_atom_site_type_symbol
_atom_site_fract_x
_atom_site_fract_y
_atom_site_fract_z
_atom_type_partial_charge
C0 C 0.98558 0.32371 0.34086 0.0
O1 O 0.99734 0.34155 0.33514 0.0
Cd2 Cd 0.03537 0.35469 0.34896 0.0
O3 O 0.99377 0.31068 0.35457 0.0
Cd4 Cd 0.02961 0.30938 0.37677 0.0
C5 C 0.03221 0.36326 0.40985 0.0
O6 O 0.04844 0.31899 0.34373 0.0
O7 O 0.06864 0.31705 0.37787 0.0
O8 O 0.01866 0.26623 0.37312 0.0
C9 C 0.06714 0.31963 0.35547 0.0
O10 O 0.03644 0.37293 0.39145 0.0
C11 C 0.02418 0.26657 0.39615 0.0
O12 O 0.02871 0.34099 0.40848 0.0
O13 O 0.03234 0.28657 0.40946 0.0
C14 C 0.02732 0.72572 0.74308 0.0
O15 O 0.04137 0.71548 0.75306 0.0
Cd16 Cd 0.07787 0.71855 0.74538 0.0
O17 O 0.03153 0.73853 0.72682 0.0
Cd18 Cd 0.06077 0.7529 0.70469 0.0
C19 C 0.07037 0.6992 0.68263 0.0
O20 O 0.08846 0.75838 0.74054 0.0
O21 O 0.09959 0.76986 0.70871 0.0
O22 O 0.04864 0.78988 0.70489 0.0
C23 C 0.10429 0.76601 0.73052 0.0
O24 O 0.07745 0.69729 0.7048 0.0
C25 C 0.04714 0.78968 0.68184 0.0
O26 O 0.0617 0.71633 0.67761 0.0
O27 O 0.05134 0.77191 0.66929 0.0
C28 C 0.49504 0.82297 0.84182 0.0
O29 O 0.50916 0.83626 0.83322 0.0
Cd30 Cd 0.5449 0.84802 0.85676 0.0
O31 O 0.50049 0.81341 0.8604 0.0
Cd32 Cd 0.53138 0.80847 0.88963 0.0
C33 C 0.52785 0.86306 0.9118 0.0
O34 O 0.55787 0.81305 0.86318 0.0
O35 O 0.57058 0.81696 0.9022 0.0
O36 O 0.51782 0.76568 0.88126 0.0
C37 C 0.57405 0.81533 0.88027 0.0
O38 O 0.53489 0.86886 0.89278 0.0
C39 C 0.51873 0.76358 0.9038 0.0
O40 O 0.52551 0.84197 0.91602 0.0
O41 O 0.52515 0.78242 0.91955 0.0
C42 C 0.53098 0.22367 0.25597 0.0
O43 O 0.54787 0.21823 0.26673 0.0
Cd44 Cd 0.58089 0.22286 0.24956 0.0
O45 O 0.5312 0.23247 0.23627 0.0
Cd46 Cd 0.55389 0.24589 0.20725 0.0
C47 C 0.56474 0.19245 0.18978 0.0
O48 O 0.58732 0.26069 0.23693 0.0
O49 O 0.5891 0.26201 0.19865 0.0
O50 O 0.53831 0.2805 0.20943 0.0
C51 C 0.59883 0.26539 0.22081 0.0
O52 O 0.5755 0.19496 0.21156 0.0
C53 C 0.53227 0.2787 0.18634 0.0
O54 O 0.5537 0.20743 0.18356 0.0
O55 O 0.53559 0.26095 0.17283 0.0
C56 C 0.04049 0.79939 0.19051 0.0
O57 O 0.05147 0.78803 0.20352 0.0
Cd58 Cd 0.08432 0.77748 0.19482 0.0
O59 O 0.04755 0.80744 0.17229 0.0
Cd60 Cd 0.08087 0.80902 0.15189 0.0
C61 C 0.06986 0.74847 0.13444 0.0
O62 O 0.10981 0.81069 0.18796 0.0
O63 O 0.11705 0.80065 0.15198 0.0
O64 O 0.09169 0.8519 0.15152 0.0
C65 C 0.12352 0.80522 0.17517 0.0
O66 O 0.07432 0.7479 0.15743 0.0
C67 C 0.08379 0.85176 0.12915 0.0
O68 O 0.07028 0.76816 0.12657 0.0
O69 O 0.07432 0.83166 0.11662 0.0
C70 C 0.471 0.76522 0.39991 0.0
O71 O 0.48405 0.77583 0.38789 0.0
Cd72 Cd 0.52238 0.7881 0.40303 0.0
O73 O 0.4782 0.75786 0.41955 0.0
Cd74 Cd 0.51506 0.75557 0.44311 0.0
C75 C 0.52226 0.81505 0.46215 0.0
O76 O 0.53717 0.75458 0.40982 0.0
O77 O 0.55462 0.76431 0.4472 0.0
O78 O 0.5 0.71295 0.44172 0.0
C79 C 0.55525 0.75932 0.42451 0.0
O80 O 0.52661 0.81666 0.44076 0.0
C81 C 0.5086 0.71178 0.46353 0.0
O82 O 0.5161 0.79481 0.46823 0.0
O83 O 0.51944 0.73113 0.47657 0.0
C84 C 0.55066 0.29504 0.69883 0.0
O85 O 0.56292 0.28364 0.71002 0.0
Cd86 Cd 0.59317 0.27192 0.69581 0.0
O87 O 0.55494 0.30284 0.67932 0.0
Cd88 Cd 0.58556 0.30483 0.65433 0.0
C89 C 0.57312 0.24427 0.63535 0.0
O90 O 0.61582 0.30694 0.68874 0.0
O91 O 0.62306 0.29993 0.6524 0.0
O92 O 0.58814 0.34758 0.65853 0.0
C93 C 0.62973 0.30348 0.67553 0.0
O94 O 0.57976 0.24325 0.65787 0.0
C95 C 0.58385 0.34934 0.63592 0.0
O96 O 0.5727 0.26421 0.62829 0.0
O97 O 0.58037 0.33012 0.62077 0.0
C98 C 0.97618 0.26419 0.90023 0.0
O99 O 0.9887 0.27522 0.88794 0.0
Cd100 Cd 0.02707 0.28964 0.90253 0.0
O101 O 0.98398 0.25787 0.92027 0.0
Cd102 Cd 0.02182 0.25974 0.94426 0.0
C103 C 0.02696 0.31971 0.95962 0.0
O104 O 0.04412 0.25778 0.91103 0.0
O105 O 0.06144 0.2709 0.94808 0.0
O106 O 0.01448 0.21729 0.95031 0.0
C107 C 0.06222 0.26423 0.92569 0.0
O108 O 0.03147 0.32089 0.93824 0.0
C109 C 0.0201 0.22178 0.97365 0.0
O110 O 0.02142 0.29967 0.96631 0.0
O111 O 0.0254 0.24353 0.98314 0.0
C112 C 0.45076 0.04309 0.33418 0.0
O113 O 0.45827 0.02949 0.31967 0.0
Cd114 Cd 0.44291 0.01729 0.27594 0.0
O115 O 0.43545 0.05276 0.32475 0.0
Cd116 Cd 0.41285 0.05221 0.27764 0.0
C117 C 0.39193 0.98817 0.27708 0.0
O118 O 0.44463 0.04941 0.25142 0.0
O119 O 0.41302 0.04288 0.23022 0.0
O120 O 0.40867 0.09799 0.2857 0.0
C121 C 0.43315 0.04522 0.22983 0.0
O122 O 0.41023 0.98553 0.27236 0.0
C123 C 0.38819 0.09459 0.27877 0.0
O124 O 0.38853 1.00941 0.28071 0.0
O125 O 0.37938 0.0727 0.27188 0.0
C126 C 0.29988 0.13002 0.52978 0.0
O127 O 0.28777 0.11964 0.54294 0.0
Cd128 Cd 0.25384 0.12832 0.55067 0.0
O129 O 0.29424 0.14641 0.5189 0.0
Cd130 Cd 0.26296 0.16715 0.51468 0.0
C131 C 0.27072 0.18687 0.57699 0.0
O132 O 0.23324 0.13253 0.5128 0.0
O133 O 0.22431 0.16629 0.51583 0.0
O134 O 0.26302 0.16618 0.47054 0.0
C135 C 0.21845 0.14405 0.51399 0.0
O136 O 0.26239 0.16569 0.57874 0.0
C137 C 0.26655 0.18831 0.47063 0.0
O138 O 0.27451 0.19235 0.55633 0.0
O139 O 0.26885 0.20125 0.4915 0.0
C140 C 0.1267 0.08305 0.87141 0.0
O141 O 0.12159 0.09993 0.86127 0.0
Cd142 Cd 0.12374 0.10368 0.81869 0.0
O143 O 0.13517 0.06797 0.86001 0.0
Cd144 Cd 0.14822 0.06407 0.82044 0.0
C145 C 0.17726 0.1204 0.82341 0.0
O146 O 0.1144 0.06529 0.79308 0.0
O147 O 0.14191 0.06189 0.77577 0.0
O148 O 0.14387 0.02153 0.82005 0.0
C149 C 0.12194 0.06205 0.77339 0.0
O150 O 0.15934 0.12602 0.81654 0.0
C151 C 0.16375 0.02155 0.82047 0.0
O152 O 0.17771 0.09991 0.82862 0.0
O153 O 0.17635 0.04136 0.82124 0.0
C154 C 0.27006 0.95056 0.99987 0.0
O155 O 0.25137 0.95234 0.98972 0.0
Cd156 Cd 0.21871 0.92631 0.99521 0.0
O157 O 0.27229 0.93448 0.01282 0.0
Cd158 Cd 0.25259 0.90082 0.02799 0.0
C159 C 0.22837 0.87437 0.96887 0.0
O160 O 0.22737 0.92345 0.03821 0.0
O161 O 0.22324 0.89032 0.05185 0.0
O162 O 0.28507 0.90971 0.0598 0.0
C163 C 0.21686 0.90929 0.04965 0.0
O164 O 0.21719 0.89005 0.96687 0.0
C165 C 0.28672 0.88831 0.05866 0.0
O166 O 0.24172 0.87524 0.98855 0.0
O167 O 0.27228 0.87293 0.04355 0.0
C168 C 0.36514 0.44468 0.06703 0.0
O169 O 0.35305 0.45334 0.0521 0.0
Cd170 Cd 0.31437 0.44155 0.04065 0.0
O171 O 0.357 0.42806 0.07789 0.0
Cd172 Cd 0.31926 0.40313 0.07584 0.0
C173 C 0.31269 0.38577 0.01278 0.0
O174 O 0.2976 0.43442 0.0758 0.0
O175 O 0.27981 0.39828 0.06799 0.0
O176 O 0.32393 0.39618 0.11975 0.0
C177 C 0.27935 0.42001 0.07159 0.0
O178 O 0.31024 0.40645 0.01026 0.0
C179 C 0.32243 0.37405 0.11427 0.0
O180 O 0.31664 0.38015 0.03415 0.0
O181 O 0.31986 0.36588 0.09148 0.0
C182 C 0.87062 0.12827 0.12204 0.0
O183 O 0.86646 0.12798 0.14357 0.0
Cd184 Cd 0.83921 0.14669 0.15703 0.0
O185 O 0.86138 0.14002 0.10767 0.0
Cd186 Cd 0.83415 0.16428 0.11014 0.0
C187 C 0.85437 0.20551 0.16045 0.0
O188 O 0.80792 0.13437 0.12415 0.0
O189 O 0.79863 0.16705 0.11814 0.0
O190 O 0.82235 0.15312 0.06534 0.0
C191 C 0.79307 0.1458 0.12109 0.0
O192 O 0.8503 0.18882 0.17267 0.0
C193 C 0.8241 0.17427 0.06155 0.0
O194 O 0.85182 0.20109 0.13715 0.0
O195 O 0.83152 0.19042 0.0801 0.0
C196 C 0.13774 0.51607 0.35626 0.0
O197 O 0.12942 0.52932 0.34303 0.0
Cd198 Cd 0.13833 0.53744 0.30352 0.0
O199 O 0.15213 0.50542 0.34799 0.0
Cd200 Cd 0.17165 0.50093 0.3046 0.0
C201 C 0.19157 0.56585 0.30734 0.0
O202 O 0.1361 0.50071 0.27624 0.0
O203 O 0.16186 0.50182 0.25636 0.0
O204 O 0.17735 0.45532 0.30117 0.0
C205 C 0.14191 0.50175 0.25547 0.0
O206 O 0.17199 0.5678 0.30648 0.0
C207 C 0.198 0.45943 0.30424 0.0
O208 O 0.19606 0.54514 0.30744 0.0
O209 O 0.20625 0.48156 0.30753 0.0
C210 C 0.86257 0.93651 0.56324 0.0
O211 O 0.84956 0.94517 0.54939 0.0
Cd212 Cd 0.81105 0.93538 0.54207 0.0
O213 O 0.85532 0.92021 0.57503 0.0
Cd214 Cd 0.81718 0.89742 0.5759 0.0
C215 C 0.80582 0.87988 0.51255 0.0
O216 O 0.80185 0.93221 0.58181 0.0
O217 O 0.77773 0.89997 0.57193 0.0
O218 O 0.825 0.88985 0.61939 0.0
C219 C 0.78216 0.92213 0.57921 0.0
O220 O 0.80122 0.89985 0.51067 0.0
C221 C 0.81976 0.86748 0.61365 0.0
O222 O 0.81319 0.87528 0.53358 0.0
O223 O 0.81383 0.8593 0.59082 0.0
C224 C 0.97766 0.99902 0.31725 0.0
O225 O 0.98377 0.98172 0.30639 0.0
Cd226 Cd 0.96919 0.96867 0.26293 0.0
O227 O 0.96443 1.00896 0.30521 0.0
Cd228 Cd 0.94381 1.00627 0.26314 0.0
C229 C 0.9158 0.95073 0.26282 0.0
O230 O 0.97291 1.00188 0.23973 0.0
O231 O 0.9405 0.99606 0.21867 0.0
O232 O 0.94911 0.04918 0.27502 0.0
C233 C 0.96066 0.99918 0.21885 0.0
O234 O 0.93298 0.94365 0.25996 0.0
C235 C 0.92962 0.05002 0.26725 0.0
O236 O 0.91584 0.97266 0.26565 0.0
O237 O 0.91679 0.0306 0.25721 0.0
C238 C 0.37864 0.62082 0.61458 0.0
O239 O 0.37336 0.61901 0.6354 0.0
Cd240 Cd 0.34951 0.64025 0.65189 0.0
O241 O 0.37206 0.63557 0.60194 0.0
Cd242 Cd 0.34862 0.66455 0.60657 0.0
C243 C 0.37443 0.69841 0.65969 0.0
O244 O 0.31978 0.6376 0.6189 0.0
O245 O 0.31715 0.67408 0.62242 0.0
O246 O 0.33463 0.65435 0.56243 0.0
C247 C 0.30835 0.65273 0.62225 0.0
O248 O 0.36748 0.68054 0.66927 0.0
C249 C 0.33739 0.67547 0.55845 0.0
O250 O 0.37144 0.6973 0.63643 0.0
O251 O 0.34642 0.69155 0.57668 0.0
C252 C 0.48192 0.49645 0.81307 0.0
O253 O 0.48459 0.48066 0.79657 0.0
Cd254 Cd 0.46603 0.47227 0.75448 0.0
O255 O 0.46895 0.50977 0.80756 0.0
Cd256 Cd 0.44487 0.51245 0.76822 0.0
C257 C 0.41456 0.45626 0.76292 0.0
O258 O 0.46936 0.50878 0.7377 0.0
O259 O 0.43636 0.50961 0.72328 0.0
O260 O 0.45157 0.55528 0.78291 0.0
C261 C 0.45539 0.51008 0.71937 0.0
O262 O 0.42997 0.44885 0.75476 0.0
C263 C 0.43163 0.55592 0.78024 0.0
O264 O 0.41632 0.47826 0.76994 0.0
O265 O 0.41815 0.53645 0.77229 0.0
C266 C 0.6349 0.01405 0.85297 0.0
O267 O 0.62744 0.0274 0.83914 0.0
Cd268 Cd 0.63801 0.03394 0.79925 0.0
O269 O 0.64917 1.00286 0.84547 0.0
Cd270 Cd 0.67 0.99873 0.80371 0.0
C271 C 0.69086 0.06332 0.80635 0.0
O272 O 0.63552 0.99827 0.77016 0.0
O273 O 0.66534 1.0019 0.75725 0.0
O274 O 0.67501 0.95284 0.80011 0.0
C275 C 0.64506 1.00044 0.75183 0.0
O276 O 0.67109 0.06444 0.80058 0.0
C277 C 0.69567 0.95659 0.80416 0.0
O278 O 0.69538 0.04334 0.81068 0.0
O279 O 0.70425 0.97867 0.80817 0.0
C280 C 0.80128 0.63077 0.03035 0.0
O281 O 0.79011 0.6191 0.04344 0.0
Cd282 Cd 0.75547 0.62383 0.05033 0.0
O283 O 0.79378 0.64611 0.01921 0.0
Cd284 Cd 0.75859 0.66132 0.01408 0.0
C285 C 0.76524 0.68262 0.07569 0.0
O286 O 0.73447 0.62264 0.01038 0.0
O287 O 0.71873 0.65158 0.01646 0.0
O288 O 0.75754 0.661 0.96963 0.0
C289 C 0.71703 0.62941 0.01174 0.0
O290 O 0.76164 0.66109 0.07861 0.0
C291 C 0.75946 0.68301 0.9697 0.0
O292 O 0.76551 0.68814 0.05429 0.0
O293 O 0.76087 0.69558 0.99056 0.0
C294 C 0.95094 0.54131 0.83575 0.0
O295 O 0.95843 0.52735 0.82164 0.0
Cd296 Cd 0.94524 0.51398 0.7784 0.0
O297 O 0.93561 0.55097 0.82602 0.0
Cd298 Cd 0.91228 0.55002 0.77838 0.0
C299 C 0.89276 0.48534 0.77787 0.0
O300 O 0.94556 0.54828 0.75744 0.0
O301 O 0.91723 0.54371 0.73069 0.0
O302 O 0.90729 0.59562 0.78676 0.0
C303 C 0.93759 0.54528 0.73455 0.0
O304 O 0.91223 0.48366 0.77754 0.0
C305 C 0.8869 0.59201 0.77901 0.0
O306 O 0.8879 0.50589 0.77779 0.0
O307 O 0.87847 0.5701 0.7715 0.0
C308 C 0.76735 0.44213 0.50078 0.0
O309 O 0.75298 0.44573 0.48408 0.0
Cd310 Cd 0.71569 0.42338 0.47902 0.0
O311 O 0.76315 0.42532 0.5128 0.0
Cd312 Cd 0.73486 0.39201 0.51543 0.0
C313 C 0.72006 0.37016 0.45347 0.0
O314 O 0.71196 0.41941 0.52123 0.0
O315 O 0.70051 0.38501 0.53062 0.0
O316 O 0.76336 0.39424 0.55017 0.0
C317 C 0.69773 0.40571 0.52924 0.0
O318 O 0.71101 0.38712 0.44932 0.0
C319 C 0.76026 0.37205 0.54957 0.0
O320 O 0.72994 0.36959 0.47488 0.0
O321 O 0.74452 0.35921 0.53382 0.0
C322 C 0.62431 0.56409 0.36885 0.0
O323 O 0.61255 0.57686 0.35922 0.0
Cd324 Cd 0.61582 0.58749 0.31929 0.0
O325 O 0.63842 0.5571 0.35754 0.0
Cd326 Cd 0.65153 0.5621 0.31778 0.0
C327 C 0.66602 0.62195 0.32788 0.0
O328 O 0.61611 0.55313 0.28944 0.0
O329 O 0.64403 0.56653 0.27406 0.0
O330 O 0.66024 0.52275 0.31621 0.0
C331 C 0.62399 0.5573 0.27047 0.0
O332 O 0.64586 0.6216 0.32348 0.0
C333 C 0.68004 0.52992 0.31512 0.0
O334 O 0.6725 0.6028 0.32872 0.0
O335 O 0.68639 0.55183 0.31508 0.0
Tb336 Tb 0.04028 0.02573 0.03473 0.0
Tb337 Tb 0.07612 0.0552 0.07299 0.0
C338 C 1.00326 1.00735 0.00993 0.0
C339 C 0.98258 0.01468 0.01033 0.0
C340 C 0.98165 0.03858 0.01139 0.0
C341 C 0.9646 0.04675 0.0199 0.0
C342 C 0.9482 0.03111 0.02737 0.0
C343 C 0.94789 1.0068 0.02352 0.0
C344 C 0.96501 0.99865 0.0151 0.0
C345 C 0.07708 0.03779 0.01884 0.0
C346 C 0.04591 0.08224 0.04567 0.0
C347 C 0.1124 0.07242 0.09981 0.0
C348 C 0.12724 0.06039 0.11363 0.0
C349 C 0.1486 0.06341 0.10965 0.0
C350 C 0.16051 0.04643 0.11468 0.0
C351 C 0.15115 0.02634 0.12378 0.0
C352 C 0.13111 0.0252 0.13127 0.0
C353 C 0.11908 0.04205 0.12599 0.0
C354 C 0.0389 0.04463 0.08821 0.0
C355 C 0.07044 0.99838 0.06325 0.0
O356 O 1.01112 1.00097 0.03047 0.0
O357 O 0.01815 0.02101 1.00147 0.0
O358 O 0.06931 0.0503 0.0338 0.0
O359 O 0.06348 0.01761 0.01164 0.0
O360 O 0.03231 0.06131 0.03848 0.0
O361 O 0.06585 0.08404 0.05737 0.0
O362 O 0.10963 0.06661 0.07581 0.0
O363 O 0.0941 0.07281 0.10739 0.0
O364 O 0.04656 0.03128 0.07393 0.0
O365 O 0.05314 0.06424 0.09576 0.0
O366 O 0.0827 0.01951 0.07315 0.0
O367 O 0.05187 0.99617 0.04812 0.0
H368 H 0.99488 0.05134 0.00758 0.0
H369 H 0.96535 0.06559 0.02264 0.0
H370 H 0.93521 0.99429 0.02866 0.0
H371 H 0.96538 0.98013 0.01431 0.0
H372 H 0.1552 0.07742 0.1002 0.0
H373 H 0.17601 0.04759 0.10881 0.0
H374 H 0.12357 1.00976 0.13814 0.0
H375 H 0.10259 0.03927 0.12925 0.0
Tb376 Tb 0.29931 0.76985 0.27204 0.0
Tb377 Tb 0.28516 0.78478 0.31745 0.0
C378 C 0.30719 0.76508 0.22899 0.0
C379 C 0.31799 0.78094 0.21412 0.0
C380 C 0.3177 0.80505 0.21769 0.0
C381 C 0.32703 0.81972 0.20264 0.0
C382 C 0.33669 0.8105 0.1836 0.0
C383 C 0.33775 0.78653 0.18071 0.0
C384 C 0.32852 0.77187 0.19596 0.0
C385 C 0.32517 0.76463 0.31177 0.0
C386 C 0.31085 0.82611 0.29472 0.0
C387 C 0.28004 0.78925 0.36158 0.0
C388 C 0.28095 0.77325 0.37971 0.0
C389 C 0.28887 0.75274 0.37464 0.0
C390 C 0.29086 0.73801 0.39219 0.0
C391 C 0.28513 0.74363 0.41525 0.0
C392 C 0.27693 0.76406 0.42022 0.0
C393 C 0.27478 0.77875 0.40248 0.0
C394 C 0.2587 0.78942 0.27804 0.0
C395 C 0.27315 0.72876 0.29403 0.0
O396 O 0.2889 0.76915 0.23436 0.0
O397 O 0.31972 0.76086 0.24793 0.0
O398 O 0.31614 0.78185 0.30942 0.0
O399 O 0.32056 0.75039 0.29094 0.0
O400 O 0.31144 0.80909 0.27661 0.0
O401 O 0.30161 0.8206 0.3136 0.0
O402 O 0.29846 0.79673 0.35475 0.0
O403 O 0.26399 0.78251 0.34282 0.0
O404 O 0.26821 0.7725 0.28021 0.0
O405 O 0.26294 0.80356 0.29898 0.0
O406 O 0.27553 0.74526 0.31374 0.0
O407 O 0.27972 0.73488 0.27382 0.0
H408 H 0.30955 0.81244 0.23145 0.0
H409 H 0.32547 0.83795 0.20494 0.0
H410 H 0.34504 0.77899 0.16612 0.0
H411 H 0.32905 0.75332 0.19312 0.0
H412 H 0.29413 0.7484 0.3574 0.0
H413 H 0.29764 0.72267 0.38801 0.0
H414 H 0.27234 0.76874 0.43785 0.0
H415 H 0.26868 0.79457 0.40668 0.0
Tb416 Tb 0.56517 0.03094 0.53877 0.0
Tb417 Tb 0.52081 0.02717 0.55784 0.0
C418 C 0.6046 0.03181 0.53849 0.0
C419 C 0.6218 0.01947 0.54751 0.0
C420 C 0.63447 0.02686 0.57125 0.0
C421 C 0.65206 0.01684 0.57873 0.0
C422 C 0.65778 0.99947 0.56252 0.0
C423 C 0.64476 0.99163 0.539 0.0
C424 C 0.62703 1.00153 0.53159 0.0
C425 C 0.53341 0.03547 0.50212 0.0
C426 C 0.5349 0.98031 0.53737 0.0
C427 C 0.48135 0.0259 0.55843 0.0
C428 C 0.46441 0.03878 0.55069 0.0
C429 C 0.44261 0.02702 0.54666 0.0
C430 C 0.42609 0.03908 0.54105 0.0
C431 C 0.43096 0.06329 0.53939 0.0
C432 C 0.45292 0.07491 0.54285 0.0
C433 C 0.46948 0.06278 0.54845 0.0
C434 C 0.55272 0.02151 0.5939 0.0
C435 C 0.55095 0.07792 0.55917 0.0
O436 O 0.5977 0.04535 0.5549 0.0
O437 O 0.58884 0.01977 0.52084 0.0
O438 O 0.53245 0.03266 0.52435 0.0
O439 O 0.55348 0.03586 0.50046 0.0
O440 O 0.55433 0.99282 0.53658 0.0
O441 O 0.51903 0.99004 0.54372 0.0
O442 O 0.48824 0.01377 0.54091 0.0
O443 O 0.49712 0.03719 0.57643 0.0
O444 O 0.55342 0.02518 0.57191 0.0
O445 O 0.53265 0.0208 0.59582 0.0
O446 O 0.53182 0.06541 0.561 0.0
O447 O 0.5666 0.06825 0.552 0.0
H448 H 0.63112 0.0408 0.58395 0.0
H449 H 0.66144 0.02308 0.59713 0.0
H450 H 0.64876 0.97854 0.52588 0.0
H451 H 0.61784 0.99563 0.51305 0.0
H452 H 0.43834 1.00849 0.54822 0.0
H453 H 0.40944 0.02939 0.53803 0.0
H454 H 0.45735 0.09355 0.54192 0.0
H455 H 0.48621 0.07224 0.55148 0.0
Tb456 Tb 0.27481 0.28706 0.79159 0.0
Tb457 Tb 0.32292 0.28591 0.80085 0.0
C458 C 0.23485 0.28243 0.79251 0.0
C459 C 0.21965 0.27923 0.81004 0.0
C460 C 0.19905 0.26442 0.8019 0.0
C461 C 0.18387 0.26204 0.8176 0.0
C462 C 0.18881 0.27471 0.84183 0.0
C463 C 0.20962 0.28946 0.84996 0.0
C464 C 0.22487 0.29159 0.83432 0.0
C465 C 0.30107 0.32359 0.78123 0.0
C466 C 0.30282 0.30163 0.84581 0.0
C467 C 0.36311 0.28943 0.80324 0.0
C468 C 0.38189 0.2918 0.7906 0.0
C469 C 0.38165 0.29913 0.76751 0.0
C470 C 0.40068 0.30256 0.75736 0.0
C471 C 0.4201 0.2987 0.77026 0.0
C472 C 0.41981 0.29046 0.79286 0.0
C473 C 0.40099 0.28712 0.80287 0.0
C474 C 0.29644 0.24941 0.81105 0.0
C475 C 0.29501 0.27186 0.74632 0.0
O476 O 0.24385 0.26478 0.78638 0.0
O477 O 0.24854 0.30282 0.7959 0.0
O478 O 0.30488 0.31271 0.79892 0.0
O479 O 0.2811 0.3158 0.7703 0.0
O480 O 0.28365 0.29197 0.83191 0.0
O481 O 0.32087 0.30442 0.83668 0.0
O482 O 0.35413 0.3076 0.8069 0.0
O483 O 0.34897 0.26929 0.79812 0.0
O484 O 0.29294 0.26024 0.79327 0.0
O485 O 0.31587 0.25815 0.8232 0.0
O486 O 0.31432 0.28071 0.76043 0.0
O487 O 0.27684 0.26964 0.7553 0.0
H488 H 0.19459 0.25477 0.78323 0.0
H489 H 0.16828 0.25017 0.81069 0.0
H490 H 0.21407 0.29984 0.86827 0.0
H491 H 0.24062 0.30323 0.84112 0.0
H492 H 0.36695 0.30256 0.75762 0.0
H493 H 0.40039 0.3089 0.73991 0.0
H494 H 0.43431 0.28687 0.80305 0.0
H495 H 0.40148 0.28123 0.82058 0.0
Tb496 Tb 0.03902 0.05932 0.55048 0.0
Tb497 Tb 0.05065 0.01264 0.54446 0.0
C498 C 0.03788 0.10229 0.55646 0.0
C499 C 0.03486 0.11789 0.53819 0.0
C500 C 0.03947 0.11212 0.51458 0.0
C501 C 0.03503 0.12567 0.49644 0.0
C502 C 0.02584 0.1453 0.50152 0.0
C503 C 0.02145 0.15126 0.52528 0.0
C504 C 0.02586 0.13756 0.54348 0.0
C505 C 1.00686 0.02332 0.5501 0.0
C506 C 0.03058 0.03229 0.49689 0.0
C507 C 0.04915 0.96899 0.53713 0.0
C508 C 0.04546 0.9504 0.55246 0.0
C509 C 0.0292 0.94935 0.56683 0.0
C510 C 0.02673 0.93269 0.58254 0.0
C511 C 0.04053 0.91674 0.58428 0.0
C512 C 0.05655 0.91752 0.5695 0.0
C513 C 0.05899 0.93423 0.55374 0.0
C514 C 0.08285 0.04831 0.54328 0.0
C515 C 0.05862 0.04056 0.59803 0.0
O516 O 0.05592 0.09469 0.55825 0.0
O517 O 0.02105 0.08538 0.55579 0.0
O518 O 0.02626 0.02582 0.56057 0.0
O519 O 1.00486 0.04181 0.54026 0.0
O520 O 0.03413 0.05313 0.51085 0.0
O521 O 0.03485 0.01362 0.50631 0.0
O522 O 0.03265 0.97837 0.53032 0.0
O523 O 0.06719 0.98492 0.54452 0.0
O524 O 0.06315 0.04593 0.53419 0.0
O525 O 0.08531 0.02912 0.55147 0.0
O526 O 0.05529 0.01933 0.58467 0.0
O527 O 0.05493 0.05899 0.588 0.0
H528 H 0.04631 0.09698 0.51 0.0
H529 H 0.03897 0.12086 0.47848 0.0
H530 H 0.01424 0.16623 0.52966 0.0
H531 H 0.02196 0.14211 0.56152 0.0
H532 H 0.01851 0.96156 0.56612 0.0
H533 H 0.01401 0.93233 0.59336 0.0
H534 H 0.0676 0.90566 0.57061 0.0
H535 H 0.07171 0.93482 0.5429 0.0
Tb536 Tb 0.30096 0.76638 0.80839 0.0
Tb537 Tb 0.29873 0.81554 0.79845 0.0
C538 C 0.30365 0.72383 0.80316 0.0
C539 C 0.32086 0.71043 0.80413 0.0
C540 C 0.34143 0.72006 0.79953 0.0
C541 C 0.35714 0.70643 0.79924 0.0
C542 C 0.35256 0.68299 0.80371 0.0
C543 C 0.33212 0.6738 0.80912 0.0
C544 C 0.31643 0.68737 0.80922 0.0
C545 C 0.28403 0.79093 0.84019 0.0
C546 C 0.34078 0.80719 0.83244 0.0
C547 C 0.2965 0.85823 0.80325 0.0
C548 C 0.27922 0.87144 0.80324 0.0
C549 C 0.25913 0.86142 0.80869 0.0
C550 C 0.2432 0.87462 0.80982 0.0
C551 C 0.24701 0.898 0.80516 0.0
C552 C 0.26699 0.90763 0.7989 0.0
C553 C 0.28298 0.8945 0.7981 0.0
C554 C 0.31706 0.79121 0.76745 0.0
C555 C 0.25881 0.77509 0.77454 0.0
O556 O 0.30155 0.73568 0.78482 0.0
O557 O 0.30201 0.73583 0.82411 0.0
O558 O 0.28169 0.79093 0.81741 0.0
O559 O 0.29484 0.77517 0.84576 0.0
O560 O 0.33387 0.78414 0.82506 0.0
O561 O 0.32861 0.8222 0.8262 0.0
O562 O 0.29965 0.84688 0.82184 0.0
O563 O 0.29693 0.84564 0.78215 0.0
O564 O 0.31816 0.79122 0.79004 0.0
O565 O 0.30651 0.80707 0.76151 0.0
O566 O 0.26585 0.79812 0.7816 0.0
O567 O 0.27045 0.75983 0.78155 0.0
H568 H 0.34519 0.73793 0.79577 0.0
H569 H 0.37264 0.71404 0.79489 0.0
H570 H 0.3282 0.65605 0.81321 0.0
H571 H 0.30071 0.67975 0.81305 0.0
H572 H 0.2559 0.84353 0.81238 0.0
H573 H 0.22813 0.86664 0.81488 0.0
H574 H 0.27031 0.92535 0.79459 0.0
H575 H 0.29834 0.9024 0.79359 0.0
Tb576 Tb 0.51986 0.03776 0.0258 0.0
Tb577 Tb 0.54947 0.01684 0.05873 0.0
C578 C 0.48732 0.04633 1.00005 0.0
C579 C 0.46386 0.0402 0.99912 0.0
C580 C 0.45416 0.01895 0.00583 0.0
C581 C 0.43176 0.01288 1.00406 0.0
C582 C 0.41864 0.02813 0.99595 0.0
C583 C 0.42853 0.04962 0.98965 0.0
C584 C 0.45097 0.05555 0.99116 0.0
C585 C 0.55409 0.06849 0.05225 0.0
C586 C 0.50906 0.02845 0.08051 0.0
C587 C 0.58347 1.01072 0.08363 0.0
C588 C 0.60589 0.02072 0.08189 0.0
C589 C 0.60992 0.03946 0.06876 0.0
C590 C 0.63096 0.05056 0.06814 0.0
C591 C 0.64862 0.04291 0.08026 0.0
C592 C 0.64457 0.02359 0.09288 0.0
C593 C 0.62327 0.01259 0.09375 0.0
C594 C 0.51519 0.986 0.03309 0.0
C595 C 0.55999 0.02553 1.00353 0.0
O596 O 0.49628 0.02871 0.99374 0.0
O597 O 0.49869 0.06063 0.01971 0.0
O598 O 0.54309 0.05085 0.05851 0.0
O599 O 0.54474 0.07033 0.03043 0.0
O600 O 0.50189 0.03132 0.0573 0.0
O601 O 0.52862 0.02383 0.08611 0.0
O602 O 0.5728 0.02642 0.09104 0.0
O603 O 0.57224 0.99564 0.06444 0.0
O604 O 0.52604 1.00348 0.02622 0.0
O605 O 0.5247 0.98455 0.05504 0.0
O606 O 0.56676 0.02173 0.02643 0.0
O607 O 0.54085 0.03123 0.99831 0.0
H608 H 0.46386 1.00689 0.01215 0.0
H609 H 0.42473 0.99601 0.00866 0.0
H610 H 0.41898 0.06193 0.9837 0.0
H611 H 0.45826 0.07211 0.98607 0.0
H612 H 0.59677 0.04614 0.05961 0.0
H613 H 0.63329 0.06574 0.05883 0.0
H614 H 0.65781 0.01713 0.10224 0.0
H615 H 0.6204 0.99805 0.10389 0.0
Tb616 Tb 0.27539 0.26483 0.27636 0.0
Tb617 Tb 0.31643 0.2931 0.30374 0.0
C618 C 0.23591 0.24637 0.26517 0.0
C619 C 0.21831 0.257 0.27221 0.0
C620 C 0.22167 0.2714 0.29532 0.0
C621 C 0.20631 0.28385 0.30138 0.0
C622 C 0.18702 0.28185 0.28469 0.0
C623 C 0.18355 0.26733 0.26156 0.0
C624 C 0.1992 0.25505 0.25531 0.0
C625 C 0.30142 0.28208 0.24785 0.0
C626 C 0.27805 0.32102 0.29776 0.0
C627 C 0.35622 0.31088 0.31424 0.0
C628 C 0.37433 0.29908 0.31165 0.0
C629 C 0.37279 0.28207 0.29079 0.0
C630 C 0.38885 0.26931 0.28901 0.0
C631 C 0.40718 0.27351 0.30778 0.0
C632 C 0.40881 0.29068 0.32865 0.0
C633 C 0.39244 0.30328 0.33061 0.0
C634 C 0.29079 0.27364 0.33195 0.0
C635 C 0.31329 0.23644 0.28315 0.0
O636 O 0.24879 0.2415 0.28351 0.0
O637 O 0.2466 0.25703 0.25009 0.0
O638 O 0.29851 0.2928 0.26792 0.0
O639 O 0.28905 0.26105 0.24303 0.0
O640 O 0.26575 0.29943 0.28884 0.0
O641 O 0.29942 0.32309 0.30394 0.0
O642 O 0.34397 0.31214 0.29356 0.0
O643 O 0.34481 0.30434 0.33071 0.0
O644 O 0.29374 0.26474 0.31124 0.0
O645 O 0.30344 0.29454 0.33824 0.0
O646 O 0.3257 0.25782 0.29292 0.0
O647 O 0.2921 0.23475 0.27599 0.0
H648 H 0.23642 0.2735 0.30863 0.0
H649 H 0.20969 0.29524 0.31913 0.0
H650 H 0.16868 0.26521 0.24844 0.0
H651 H 0.19649 0.24427 0.23728 0.0
H652 H 0.35898 0.27829 0.27587 0.0
H653 H 0.38672 0.25595 0.27289 0.0
H654 H 0.42285 0.29466 0.3433 0.0
H655 H 0.39387 0.3162 0.34693 0.0
Tb656 Tb 0.54785 0.5477 0.04585 0.0
Tb657 Tb 0.54753 0.49703 0.04071 0.0
C658 C 0.55364 0.5908 0.04231 0.0
C659 C 0.54568 0.60466 0.02426 0.0
C660 C 0.55583 0.62841 0.02631 0.0
C661 C 0.54836 0.64205 0.00952 0.0
C662 C 0.53055 0.63213 0.99039 0.0
C663 C 0.5206 0.60813 0.98817 0.0
C664 C 0.5281 0.59448 0.00504 0.0
C665 C 0.51294 0.5217 0.05625 0.0
C666 C 0.53295 0.51502 0.99238 0.0
C667 C 0.54219 0.45394 0.04384 0.0
C668 C 0.53716 0.43837 0.06176 0.0
C669 C 0.52244 0.44204 0.07741 0.0
C670 C 0.51729 0.42612 0.09342 0.0
C671 C 0.52686 0.40642 0.09403 0.0
C672 C 0.54201 0.4033 0.07873 0.0
C673 C 0.54701 0.41907 0.06269 0.0
C674 C 0.58223 0.52313 0.02964 0.0
C675 C 0.56151 0.52857 0.09331 0.0
O676 O 0.56616 0.5771 0.0351 0.0
O677 O 0.53925 0.58025 0.05382 0.0
O678 O 0.52246 0.51633 0.0388 0.0
O679 O 0.52228 0.54266 0.06786 0.0
O680 O 0.53827 0.53668 0.00534 0.0
O681 O 0.53331 0.49622 1.00298 0.0
O682 O 0.5267 0.46377 0.03469 0.0
O683 O 0.56113 0.46854 0.04925 0.0
O684 O 0.57293 0.52858 0.04731 0.0
O685 O 0.57297 0.5019 0.01874 0.0
O686 O 0.55092 0.50787 0.08051 0.0
O687 O 0.56608 0.54706 0.08219 0.0
H688 H 0.56954 0.63642 0.04092 0.0
H689 H 0.55669 0.66033 0.0114 0.0
H690 H 0.50684 0.60003 0.97367 0.0
H691 H 0.52011 0.57608 1.00321 0.0
H692 H 0.51476 0.45699 0.07706 0.0
H693 H 0.50556 0.429 0.10494 0.0
H694 H 0.55013 0.3887 0.07921 0.0
H695 H 0.55853 0.4161 0.05088 0.0
Tb696 Tb 0.78829 0.25098 0.30176 0.0
Tb697 Tb 0.78881 0.30335 0.31776 0.0
C698 C 0.79446 0.21025 0.28986 0.0
C699 C 0.81203 0.19776 0.28747 0.0
C700 C 0.8338 0.2096 0.29367 0.0
C701 C 0.8502 0.19712 0.29148 0.0
C702 C 0.8451 0.17243 0.28377 0.0
C703 C 0.82311 0.16073 0.27795 0.0
C704 C 0.80679 0.17331 0.27959 0.0
C705 C 0.76557 0.26145 0.33586 0.0
C706 C 0.82998 0.28505 0.33598 0.0
C707 C 0.78659 0.3428 0.33971 0.0
C708 C 0.77723 0.3631 0.33403 0.0
C709 C 0.76149 0.36947 0.34697 0.0
C710 C 0.75289 0.38908 0.34262 0.0
C711 C 0.75993 0.40282 0.32527 0.0
C712 C 0.77552 0.39626 0.31211 0.0
C713 C 0.78407 0.37659 0.31641 0.0
C714 C 0.80137 0.29316 0.27524 0.0
C715 C 0.75105 0.27199 0.27774 0.0
O716 O 0.79097 0.22443 0.27392 0.0
O717 O 0.79337 0.21922 0.31239 0.0
O718 O 0.78381 0.27221 0.33365 0.0
O719 O 0.75881 0.24371 0.31813 0.0
O720 O 0.82216 0.26543 0.31964 0.0
O721 O 0.8178 0.30006 0.34151 0.0
O722 O 0.77263 0.32314 0.3397 0.0
O723 O 0.80313 0.33918 0.32952 0.0
O724 O 0.80446 0.2838 0.29405 0.0
O725 O 0.79213 0.3106 0.2804 0.0
O726 O 0.75633 0.28927 0.29688 0.0
O727 O 0.76311 0.25644 0.27351 0.0
H728 H 0.8381 0.22845 0.3002 0.0
H729 H 0.86683 0.20686 0.29576 0.0
H730 H 0.81837 0.14173 0.27264 0.0
H731 H 0.79002 0.16384 0.27507 0.0
H732 H 0.75594 0.35939 0.36066 0.0
H733 H 0.7411 0.39381 0.35328 0.0
H734 H 0.78107 0.4063 0.2984 0.0
H735 H 0.79611 0.37206 0.30603 0.0
Tb736 Tb 0.0226 0.53307 0.53064 0.0
Tb737 Tb 0.05949 0.52346 0.56533 0.0
C738 C 0.98606 0.52852 0.50426 0.0
C739 C 0.96365 0.52408 0.50848 0.0
C740 C 0.95772 0.51123 0.52688 0.0
C741 C 0.93623 0.50625 0.53009 0.0
C742 C 0.92024 0.51414 0.51507 0.0
C743 C 0.92635 0.52735 0.49691 0.0
C744 C 0.94789 0.53227 0.49366 0.0
C745 C 0.05298 0.57042 0.55099 0.0
C746 C 0.01776 0.52952 0.58855 0.0
C747 C 0.09473 0.52732 0.59397 0.0
C748 C 0.11648 0.54244 0.59793 0.0
C749 C 0.1284 0.54425 0.57883 0.0
C750 C 0.14848 0.55995 0.58298 0.0
C751 C 0.15671 0.57423 0.60611 0.0
C752 C 0.14473 0.57244 0.62511 0.0
C753 C 0.12484 0.55655 0.62108 0.0
C754 C 0.03003 0.48566 0.54287 0.0
C755 C 0.06544 0.5281 0.50852 0.0
O756 O 0.99599 0.51111 0.50651 0.0
O757 O 0.99835 0.54904 0.51478 0.0
O758 O 0.04595 0.55307 0.56084 0.0
O759 O 0.04098 0.56846 0.52944 0.0
O760 O 1.00814 0.53096 0.56572 0.0
O761 O 0.03809 0.52695 0.59224 0.0
O762 O 0.07976 0.53859 0.5989 0.0
O763 O 0.08829 0.51158 0.57381 0.0
O764 O 0.03702 0.50395 0.53455 0.0
O765 O 0.0411 0.48759 0.56489 0.0
O766 O 0.07478 0.52966 0.53217 0.0
O767 O 0.04426 0.5278 0.5031 0.0
H768 H 0.96963 0.50468 0.53851 0.0
H769 H 0.93208 0.49571 0.54398 0.0
H770 H 0.91449 0.53393 0.48525 0.0
H771 H 0.95222 0.54229 0.47943 0.0
H772 H 0.12217 0.53378 0.5607 0.0
H773 H 0.15747 0.56117 0.56804 0.0
H774 H 0.15089 0.5831 0.64316 0.0
H775 H 0.11579 0.5555 0.63599 0.0
Tb776 Tb 0.7663 0.7914 0.28933 0.0
Tb777 Tb 0.81232 0.7809 0.29554 0.0
C778 C 0.72721 0.79087 0.29168 0.0
C779 C 0.71205 0.78625 0.30903 0.0
C780 C 0.69196 0.77048 0.30049 0.0
C781 C 0.67691 0.76642 0.31611 0.0
C782 C 0.68154 0.77814 0.34069 0.0
C783 C 0.70186 0.79372 0.34929 0.0
C784 C 0.71695 0.79768 0.33368 0.0
C785 C 0.79577 0.82301 0.27643 0.0
C786 C 0.79685 0.80172 0.3428 0.0
C787 C 0.8515 0.7806 0.29417 0.0
C788 C 0.86872 0.78629 0.27948 0.0
C789 C 0.88996 0.79606 0.29204 0.0
C790 C 0.9071 0.8001 0.27917 0.0
C791 C 0.90346 0.79455 0.2533 0.0
C792 C 0.88201 0.78541 0.24062 0.0
C793 C 0.86481 0.78124 0.25358 0.0
C794 C 0.78206 0.74928 0.30763 0.0
C795 C 0.7821 0.77113 0.24214 0.0
O796 O 0.73387 0.77265 0.28173 0.0
O797 O 0.74273 0.80998 0.29779 0.0
O798 O 0.79889 0.8116 0.29393 0.0
O799 O 0.77517 0.81888 0.26772 0.0
O800 O 0.77718 0.79868 0.32951 0.0
O801 O 0.81369 0.79776 0.33306 0.0
O802 O 0.84506 0.79842 0.3053 0.0
O803 O 0.83546 0.7624 0.28515 0.0
O804 O 0.77995 0.76145 0.29083 0.0
O805 O 0.8025 0.75224 0.3165 0.0
O806 O 0.80192 0.77502 0.25534 0.0
O807 O 0.76507 0.77432 0.2519 0.0
H808 H 0.68784 0.76135 0.2816 0.0
H809 H 0.66168 0.75397 0.3089 0.0
H810 H 0.70599 0.80329 0.36799 0.0
H811 H 0.73234 0.80988 0.34088 0.0
H812 H 0.89339 0.80021 0.31199 0.0
H813 H 0.92328 0.80755 0.28954 0.0
H814 H 0.8786 0.78086 0.22071 0.0
H815 H 0.84856 0.77375 0.24341 0.0
Tb816 Tb 0.80192 0.26303 0.77283 0.0
Tb817 Tb 0.79148 0.28355 0.81853 0.0
C818 C 0.80932 0.25173 0.73017 0.0
C819 C 0.81458 0.26385 0.70981 0.0
C820 C 0.82188 0.28843 0.7136 0.0
C821 C 0.82484 0.30003 0.69367 0.0
C822 C 0.82066 0.28719 0.66962 0.0
C823 C 0.81453 0.26239 0.66612 0.0
C824 C 0.81143 0.25082 0.6861 0.0
C825 C 0.82916 0.25991 0.81279 0.0
C826 C 0.81508 0.32025 0.78983 0.0
C827 C 0.78693 0.29155 0.86267 0.0
C828 C 0.78667 0.27618 0.88147 0.0
C829 C 0.79508 0.25578 0.87822 0.0
C830 C 0.79448 0.2407 0.89557 0.0
C831 C 0.78561 0.24582 0.91665 0.0
C832 C 0.77719 0.2663 0.91996 0.0
C833 C 0.77761 0.28133 0.90236 0.0
C834 C 0.7639 0.28681 0.77924 0.0
C835 C 0.77643 0.22662 0.8001 0.0
O836 O 0.78996 0.25133 0.73506 0.0
O837 O 0.82413 0.25683 0.75011 0.0
O838 O 0.82104 0.2774 0.80893 0.0
O839 O 0.82258 0.24378 0.79348 0.0
O840 O 0.80993 0.30196 0.77135 0.0
O841 O 0.81122 0.31681 0.81196 0.0
O842 O 0.80546 0.29718 0.85541 0.0
O843 O 0.77069 0.28516 0.84414 0.0
O844 O 0.77232 0.26933 0.78251 0.0
O845 O 0.76983 0.30251 0.79906 0.0
O846 O 0.7826 0.24449 0.81894 0.0
O847 O 0.78017 0.23046 0.77806 0.0
H848 H 0.82468 0.29877 0.73181 0.0
H849 H 0.82924 0.31915 0.69702 0.0
H850 H 0.81141 0.25202 0.64783 0.0
H851 H 0.80599 0.23176 0.68296 0.0
H852 H 0.80235 0.25156 0.8624 0.0
H853 H 0.8015 0.22534 0.89278 0.0
H854 H 0.77025 0.27061 0.9361 0.0
H855 H 0.77094 0.29696 0.90507 0.0
Tb856 Tb 0.77098 0.75988 0.77633 0.0
Tb857 Tb 0.81198 0.78845 0.80359 0.0
C858 C 0.73186 0.7392 0.76497 0.0
C859 C 0.71273 0.74627 0.7726 0.0
C860 C 0.70855 0.76866 0.77004 0.0
C861 C 0.69424 0.77771 0.78322 0.0
C862 C 0.68425 0.76465 0.79936 0.0
C863 C 0.68709 0.74158 0.80037 0.0
C864 C 0.70111 0.73239 0.78693 0.0
C865 C 0.79705 0.77659 0.74756 0.0
C866 C 0.77327 0.81601 0.79777 0.0
C867 C 0.8516 0.80676 0.81392 0.0
C868 C 0.86964 0.79581 0.80852 0.0
C869 C 0.86838 0.78268 0.78509 0.0
C870 C 0.88448 0.77067 0.78039 0.0
C871 C 0.90219 0.77144 0.79899 0.0
C872 C 0.90343 0.7844 0.8225 0.0
C873 C 0.88727 0.79655 0.82721 0.0
C874 C 0.78638 0.76887 0.8319 0.0
C875 C 0.80975 0.73232 0.78283 0.0
O876 O 0.74538 0.73504 0.78312 0.0
O877 O 0.74182 0.75171 0.75057 0.0
O878 O 0.79417 0.78759 0.76751 0.0
O879 O 0.78448 0.7557 0.74295 0.0
O880 O 0.76096 0.79436 0.78886 0.0
O881 O 0.79464 0.81811 0.80404 0.0
O882 O 0.83874 0.81022 0.79471 0.0
O883 O 0.84085 0.79778 0.82988 0.0
O884 O 0.7894 0.76004 0.81121 0.0
O885 O 0.79898 0.78981 0.83817 0.0
O886 O 0.82203 0.75388 0.79196 0.0
O887 O 0.78843 0.7303 0.77628 0.0
H888 H 0.71731 0.77981 0.75916 0.0
H889 H 0.69209 0.79548 0.78203 0.0
H890 H 0.67918 0.73104 0.81237 0.0
H891 H 0.70408 0.71509 0.78916 0.0
H892 H 0.85474 0.7813 0.7704 0.0
H893 H 0.88294 0.76053 0.76223 0.0
H894 H 0.91703 0.7854 0.83711 0.0
H895 H 0.88841 0.80628 0.84548 0.0
Tb896 Tb 0.52892 0.51074 0.5272 0.0
Tb897 Tb 0.56123 0.54645 0.56279 0.0
C898 C 0.49397 0.4865 0.50146 0.0
C899 C 0.4721 0.49134 0.49795 0.0
C900 C 0.4692 0.51371 0.49368 0.0
C901 C 0.4521 0.52243 0.50135 0.0
C902 C 0.43739 0.50857 0.51285 0.0
C903 C 0.43811 0.48465 0.5127 0.0
C904 C 0.45552 0.47615 0.50551 0.0
C905 C 0.56701 0.52068 0.51351 0.0
C906 C 0.53044 0.56632 0.52752 0.0
C907 C 0.59603 0.56908 0.58985 0.0
C908 C 0.61257 0.5598 0.60463 0.0
C909 C 0.63364 0.56413 0.59966 0.0
C910 C 0.64647 0.5477 0.60335 0.0
C911 C 0.63812 0.52667 0.61163 0.0
C912 C 0.61902 0.52495 0.62132 0.0
C913 C 0.6062 0.54144 0.61774 0.0
C914 C 0.52279 0.537 0.57571 0.0
C915 C 0.55905 0.49085 0.56435 0.0
O916 O 0.5012 0.48418 0.52408 0.0
O917 O 0.50869 0.4998 0.49238 0.0
O918 O 0.55756 0.53506 0.52397 0.0
O919 O 0.5545 0.49985 0.50972 0.0
O920 O 0.51824 0.54448 0.52334 0.0
O921 O 0.55015 0.57097 0.54067 0.0
O922 O 0.59396 0.56244 0.56605 0.0
O923 O 0.57723 0.56704 0.59681 0.0
O924 O 0.53237 0.5224 0.56583 0.0
O925 O 0.5355 0.55777 0.57961 0.0
O926 O 0.56965 0.51315 0.57169 0.0
O927 O 0.54146 0.48526 0.54719 0.0
H928 H 0.48139 0.52534 0.4869 0.0
H929 H 0.45195 0.54082 0.50072 0.0
H930 H 0.42648 0.4732 0.52048 0.0
H931 H 0.45722 0.4586 0.50847 0.0
H932 H 0.63906 0.57845 0.59 0.0
H933 H 0.66168 0.54997 0.59672 0.0
H934 H 0.61262 0.50941 0.62871 0.0
H935 H 0.59022 0.53809 0.62246 0.0
Tb936 Tb 0.06586 0.534 0.04157 0.0
Tb937 Tb 0.02333 0.53075 0.0569 0.0
C938 C 0.10583 0.53887 0.04068 0.0
C939 C 0.12203 0.52387 0.04373 0.0
C940 C 0.14207 0.53303 0.05955 0.0
C941 C 0.15759 0.51918 0.0628 0.0
C942 C 0.15347 0.49579 0.05023 0.0
C943 C 0.13337 0.48674 0.03426 0.0
C944 C 0.11783 0.50054 0.03114 0.0
C945 C 0.033 0.5333 1.00424 0.0
C946 C 0.03758 0.48376 0.03764 0.0
C947 C 0.98338 0.52921 0.05404 0.0
C948 C 0.96686 0.54246 0.04596 0.0
C949 C 0.97229 0.56667 0.04467 0.0
C950 C 0.95597 0.57919 0.03934 0.0
C951 C 0.93394 0.56774 0.03532 0.0
C952 C 0.92873 0.54331 0.03579 0.0
C953 C 0.945 0.53086 0.04106 0.0
C954 C 0.05022 0.5227 0.09609 0.0
C955 C 0.053 0.58173 0.06247 0.0
O956 O 0.09818 0.5454 0.06032 0.0
O957 O 0.09065 0.53274 0.02101 0.0
O958 O 0.03605 0.54382 0.02645 0.0
O959 O 0.04931 0.5234 1.00255 0.0
O960 O 0.05754 0.49619 0.04081 0.0
O961 O 0.02121 0.49398 0.04046 0.0
O962 O 0.99153 0.51821 0.0369 0.0
O963 O 0.99807 0.53958 0.0734 0.0
O964 O 0.05511 0.52694 0.07535 0.0
O965 O 0.0298 0.52251 0.09409 0.0
O966 O 0.03451 0.56905 0.06564 0.0
O967 O 0.06737 0.57184 0.05267 0.0
H968 H 0.14569 0.55092 0.06955 0.0
H969 H 0.17266 0.52671 0.07552 0.0
H970 H 0.12963 0.46899 0.02392 0.0
H971 H 0.10252 0.4929 0.01885 0.0
H972 H 0.9891 0.57599 0.0484 0.0
H973 H 0.96059 0.59799 0.03923 0.0
H974 H 0.912 0.53379 0.0323 0.0
H975 H 0.94045 0.51219 0.04189 0.0
H976 H 1.01067 0.17296 0.959 0.0
H977 H 0.03412 0.22775 0.02335 0.0
H978 H 0.04034 0.19758 0.04898 0.0
H979 H 0.98349 0.12778 0.99184 0.0
H980 H 0.99091 0.10374 0.97379 0.0
H981 H 0.98674 0.12935 0.96045 0.0
H982 H 0.02515 0.13514 0.94966 0.0
H983 H 0.02941 0.10956 0.96291 0.0
H984 H 0.04818 0.13756 0.97371 0.0
H985 H 0.04774 0.16239 0.06701 0.0
H986 H 0.05418 0.12399 0.0766 0.0
H987 H 0.02423 0.09069 1.00184 0.0
C988 C 0.01677 0.17856 0.97856 0.0
C989 C 0.02183 0.20289 0.9891 0.0
C990 C 0.03 0.20936 0.01476 0.0
C991 C 0.03361 0.1923 0.02953 0.0
C992 C 0.02877 0.16862 0.01858 0.0
C993 C 0.02031 0.16163 0.99374 0.0
C994 C 0.01724 0.13497 0.98659 0.0
C995 C 0.99316 0.12327 0.97764 0.0
C996 C 0.0308 0.12896 0.96706 0.0
C997 C 0.0258 0.12822 0.01114 0.0
C998 C 0.03235 0.14799 0.02931 0.0
C999 C 0.04229 0.14674 0.05306 0.0
C1000 C 0.04589 0.12484 0.05835 0.0
C1001 C 0.03932 0.10429 0.04016 0.0
C1002 C 0.02883 0.10598 0.01631 0.0
H1003 H 0.14759 0.8231 0.22186 0.0
H1004 H 0.14726 0.77682 0.15415 0.0
H1005 H 0.18159 0.76766 0.17279 0.0
H1006 H 0.20578 0.84694 0.23462 0.0
H1007 H 0.20804 0.84879 0.26753 0.0
H1008 H 0.18318 0.85137 0.24905 0.0
H1009 H 0.162 0.81698 0.26662 0.0
H1010 H 0.1868 0.81429 0.28512 0.0
H1011 H 0.17007 0.78902 0.26416 0.0
H1012 H 0.21515 0.76159 0.1999 0.0
H1013 H 0.24678 0.76216 0.23195 0.0
H1014 H 0.22723 0.81503 0.28059 0.0
C1015 C 0.15477 0.81106 0.21098 0.0
C1016 C 0.14462 0.80061 0.18654 0.0
C1017 C 0.1547 0.78512 0.17286 0.0
C1018 C 0.1742 0.77973 0.18332 0.0
C1019 C 0.18377 0.79025 0.20744 0.0
C1020 C 0.17456 0.80586 0.22099 0.0
C1021 C 0.18853 0.8153 0.24627 0.0
C1022 C 0.19688 0.84219 0.24955 0.0
C1023 C 0.1761 0.80848 0.26675 0.0
C1024 C 0.20685 0.80236 0.24491 0.0
C1025 C 0.20369 0.78779 0.22246 0.0
C1026 C 0.21795 0.77324 0.2174 0.0
C1027 C 0.23593 0.7737 0.23568 0.0
C1028 C 0.23978 0.78893 0.25859 0.0
C1029 C 0.22497 0.80344 0.26312 0.0
H1030 H 0.54725 0.85881 0.46285 0.0
H1031 H 0.49907 0.82183 0.49929 0.0
H1032 H 0.49765 0.85997 0.52368 0.0
H1033 H 0.5757 0.90267 0.51726 0.0
H1034 H 0.58122 0.92581 0.49919 0.0
H1035 H 0.57907 0.8955 0.48578 0.0
H1036 H 0.5494 0.89941 0.45022 0.0
H1037 H 0.55132 0.92963 0.4636 0.0
H1038 H 0.52557 0.90893 0.45737 0.0
H1039 H 0.49893 0.90322 0.54084 0.0
H1040 H 0.50566 0.94673 0.55247 0.0
H1041 H 0.5547 0.95471 0.50659 0.0
C1042 C 0.5366 0.85866 0.47621 0.0
C1043 C 0.52323 0.83729 0.47913 0.0
C1044 C 0.50958 0.83791 0.49686 0.0
C1045 C 0.50859 0.85953 0.5107 0.0
C1046 C 0.52166 0.88034 0.50693 0.0
C1047 C 0.53572 0.87996 0.49043 0.0
C1048 C 0.54802 0.90468 0.48963 0.0
C1049 C 0.57245 0.90731 0.4985 0.0
C1050 C 0.54328 0.91103 0.46367 0.0
C1051 C 0.53836 0.91916 0.50784 0.0
C1052 C 0.52308 0.90487 0.51754 0.0
C1053 C 0.51112 0.91449 0.53363 0.0
C1054 C 0.51497 0.93924 0.54005 0.0
C1055 C 0.53086 0.95415 0.53067 0.0
C1056 C 0.54271 0.94382 0.51444 0.0
H1057 H 0.50636 0.28488 0.68092 0.0
H1058 H 0.5556 0.31901 0.74459 0.0
H1059 H 0.52731 0.32716 0.76788 0.0
H1060 H 0.46679 0.32313 0.69104 0.0
H1061 H 0.44367 0.29876 0.68172 0.0
H1062 H 0.46768 0.29833 0.66858 0.0
H1063 H 0.46969 0.25812 0.68241 0.0
H1064 H 0.44577 0.25846 0.69562 0.0
H1065 H 0.47033 0.25545 0.71441 0.0
H1066 H 0.49455 0.32918 0.78541 0.0
H1067 H 0.45869 0.32338 0.79728 0.0
H1068 H 0.4292 0.28631 0.72352 0.0
C1069 C 0.51106 0.29463 0.69952 0.0
C1070 C 0.53316 0.30176 0.7109 0.0
C1071 C 0.53878 0.31371 0.73553 0.0
C1072 C 0.52282 0.31845 0.74887 0.0
C1073 C 0.50119 0.31091 0.73743 0.0
C1074 C 0.49517 0.29921 0.71336 0.0
C1075 C 0.47061 0.29125 0.70648 0.0
C1076 C 0.46166 0.30361 0.68572 0.0
C1077 C 0.4637 0.26422 0.69931 0.0
C1078 C 0.46394 0.29978 0.73062 0.0
C1079 C 0.48193 0.31141 0.74799 0.0
C1080 C 0.48032 0.32021 0.77194 0.0
C1081 C 0.45985 0.3167 0.77855 0.0
C1082 C 0.44111 0.30425 0.76143 0.0
C1083 C 0.44318 0.2961 0.73694 0.0
H1084 H 0.04683 0.79589 0.63386 0.0
H1085 H 0.03688 0.82947 0.70425 0.0
H1086 H 0.03206 0.8649 0.68621 0.0
H1087 H 0.07799 0.84614 0.61868 0.0
H1088 H 0.06679 0.83955 0.58618 0.0
H1089 H 0.06736 0.81593 0.60382 0.0
H1090 H 0.02588 0.80089 0.58985 0.0
H1091 H 0.0252 0.82437 0.57196 0.0
H1092 H 1.00819 0.8209 0.59479 0.0
H1093 H 0.03115 0.89769 0.66149 0.0
H1094 H 0.03347 0.92531 0.63161 0.0
H1095 H 0.04364 0.87019 0.57718 0.0
C1096 C 0.04325 0.81052 0.64537 0.0
C1097 C 0.04215 0.8099 0.67044 0.0
C1098 C 0.03771 0.82953 0.68497 0.0
C1099 C 0.03495 0.84973 0.67489 0.0
C1100 C 0.03658 0.84995 0.65025 0.0
C1101 C 0.04048 0.83081 0.63563 0.0
C1102 C 0.04251 0.83599 0.61003 0.0
C1103 C 0.065 0.83431 0.60436 0.0
C1104 C 0.02436 0.81956 0.59051 0.0
C1105 C 0.03963 0.86122 0.61272 0.0
C1106 C 0.03605 0.86887 0.63599 0.0
C1107 C 0.03364 0.8918 0.6431 0.0
C1108 C 0.0349 0.90732 0.62595 0.0
C1109 C 0.0386 0.89988 0.60199 0.0
C1110 C 0.0409 0.87646 0.59537 0.0
H1111 H 0.46052 0.78867 0.84476 0.0
H1112 H 0.47791 0.85788 0.82404 0.0
H1113 H 0.44042 0.86282 0.82336 0.0
H1114 H 0.40544 0.77286 0.80661 0.0
H1115 H 0.39433 0.75702 0.82906 0.0
H1116 H 0.42212 0.75845 0.82599 0.0
H1117 H 0.43414 0.77546 0.87254 0.0
H1118 H 0.40648 0.77484 0.87571 0.0
H1119 H 0.42654 0.80212 0.88478 0.0
H1120 H 0.40247 0.86209 0.82972 0.0
H1121 H 0.36373 0.85166 0.8318 0.0
H1122 H 0.37105 0.7825 0.8475 0.0
C1123 C 0.45624 0.80454 0.83935 0.0
C1124 C 0.47201 0.82289 0.83443 0.0
C1125 C 0.46596 0.84349 0.82755 0.0
C1126 C 0.44481 0.8466 0.82748 0.0
C1127 C 0.42998 0.82876 0.83391 0.0
C1128 C 0.43518 0.80778 0.83884 0.0
C1129 C 0.41613 0.79125 0.84479 0.0
C1130 C 0.40908 0.76856 0.82546 0.0
C1131 C 0.42114 0.7856 0.87101 0.0
C1132 C 0.39953 0.80643 0.84289 0.0
C1133 C 0.40792 0.82811 0.83695 0.0
C1134 C 0.3956 0.84507 0.8341 0.0
C1135 C 0.37366 0.83908 0.83567 0.0
C1136 C 0.36433 0.81619 0.83966 0.0
C1137 C 0.37772 0.80015 0.8445 0.0
H1138 H 0.54495 0.18102 0.14084 0.0
H1139 H 0.59 0.16027 0.1962 0.0
H1140 H 0.59625 0.13 0.16472 0.0
H1141 H 0.52092 0.12272 0.10932 0.0
H1142 H 0.51755 0.13112 0.07918 0.0
H1143 H 0.51774 0.15215 0.10589 0.0
H1144 H 0.54891 0.18125 0.09382 0.0
H1145 H 0.54911 0.15999 0.06735 0.0
H1146 H 0.57358 0.17193 0.08975 0.0
H1147 H 0.59612 0.10059 0.12853 0.0
H1148 H 0.58655 0.07114 0.09057 0.0
H1149 H 0.54255 0.11098 0.05789 0.0
C1150 C 0.55615 0.17014 0.14634 0.0
C1151 C 0.56702 0.17313 0.17102 0.0
C1152 C 0.58144 0.15838 0.17745 0.0
C1153 C 0.58528 0.14125 0.15965 0.0
C1154 C 0.57463 0.13907 0.13547 0.0
C1155 C 0.56018 0.15288 0.12879 0.0
C1156 C 0.54975 0.14572 0.10182 0.0
C1157 C 0.52503 0.13743 0.09889 0.0
C1158 C 0.5557 0.16593 0.08733 0.0
C1159 C 0.56031 0.12542 0.09456 0.0
C1160 C 0.57483 0.12214 0.11422 0.0
C1161 C 0.58514 0.10324 0.11283 0.0
C1162 C 0.57974 0.08665 0.09113 0.0
C1163 C 0.56438 0.08919 0.07112 0.0
C1164 C 0.55507 0.10921 0.07256 0.0
H1165 H 0.10639 0.31049 0.37211 0.0
H1166 H 0.06987 0.3329 0.31059 0.0
H1167 H 0.09972 0.33132 0.28753 0.0
H1168 H 0.1621 0.33973 0.36367 0.0
H1169 H 0.17292 0.31498 0.37189 0.0
H1170 H 0.15096 0.32295 0.38547 0.0
H1171 H 0.12819 0.28029 0.37025 0.0
H1172 H 0.14993 0.2723 0.35653 0.0
H1173 H 0.12342 0.26814 0.33791 0.0
H1174 H 0.13096 0.32178 0.26907 0.0
H1175 H 0.16076 0.30437 0.25664 0.0
H1176 H 0.17513 0.28626 0.32965 0.0
C1177 C 0.105 0.31583 0.35412 0.0
C1178 C 0.08597 0.32192 0.34313 0.0
C1179 C 0.08442 0.32822 0.31932 0.0
C1180 C 0.10132 0.32753 0.30615 0.0
C1181 C 0.11961 0.32059 0.31716 0.0
C1182 C 0.12158 0.31498 0.34068 0.0
C1183 C 0.14143 0.30506 0.34712 0.0
C1184 C 0.15782 0.32168 0.36829 0.0
C1185 C 0.13537 0.27997 0.35329 0.0
C1186 C 0.14967 0.30484 0.32313 0.0
C1187 C 0.13726 0.31441 0.30626 0.0
C1188 C 0.14099 0.31454 0.28224 0.0
C1189 C 0.15774 0.30437 0.27525 0.0
C1190 C 0.17024 0.29398 0.29218 0.0
C1191 C 0.16622 0.29455 0.31644 0.0
H1192 H 1.00075 0.02307 0.21447 0.0
H1193 H 0.93972 0.98173 0.17156 0.0
H1194 H 0.95307 0.98833 0.13306 0.0
H1195 H 1.00689 0.06691 0.17596 0.0
H1196 H 0.0359 0.07097 0.1797 0.0
H1197 H 0.02222 0.06144 0.20378 0.0
H1198 H 0.03926 0.02462 0.20231 0.0
H1199 H 0.05314 0.03416 0.17837 0.0
H1200 H 0.03582 1.00512 0.17341 0.0
H1201 H 0.97337 0.99964 0.09905 0.0
H1202 H 0.99856 0.01607 0.07273 0.0
H1203 H 0.04484 0.05222 0.13816 0.0
C1204 C 0.99035 0.01508 0.19697 0.0
C1205 C 0.96931 1.00166 0.19595 0.0
C1206 C 0.95596 0.99197 0.17271 0.0
C1207 C 0.96339 0.99562 0.15077 0.0
C1208 C 0.98412 1.00925 0.15239 0.0
C1209 C 0.99736 0.01893 0.17492 0.0
C1210 C 0.01848 0.03393 0.17168 0.0
C1211 C 0.02101 0.05985 0.18348 0.0
C1212 C 0.03781 0.02385 0.18205 0.0
C1213 C 0.01508 0.03117 0.14385 0.0
C1214 C 0.99528 0.01667 0.13298 0.0
C1215 C 0.98889 1.01107 0.10739 0.0
C1216 C 1.00323 0.02042 0.09259 0.0
C1217 C 0.02342 0.03549 0.10349 0.0
C1218 C 0.0293 0.04102 0.1294 0.0
H1219 H 0.33678 0.71922 0.54627 0.0
H1220 H 0.31836 0.64435 0.51619 0.0
H1221 H 0.3015 0.65357 0.4767 0.0
H1222 H 0.28856 0.73444 0.51746 0.0
H1223 H 0.30237 0.76254 0.51173 0.0
H1224 H 0.31339 0.7502 0.53757 0.0
H1225 H 0.34972 0.75292 0.5218 0.0
H1226 H 0.33891 0.76557 0.49612 0.0
H1227 H 0.34963 0.73942 0.49074 0.0
H1228 H 0.28641 0.67089 0.4407 0.0
H1229 H 0.27588 0.69535 0.40986 0.0
H1230 H 0.30407 0.75877 0.46364 0.0
C1231 C 0.32939 0.70477 0.53131 0.0
C1232 C 0.32894 0.68108 0.53425 0.0
C1233 C 0.31895 0.66265 0.5143 0.0
C1234 C 0.30925 0.66769 0.49185 0.0
C1235 C 0.30965 0.69123 0.48972 0.0
C1236 C 0.31957 0.70947 0.50884 0.0
C1237 C 0.31781 0.73323 0.50175 0.0
C1238 C 0.30475 0.74584 0.5181 0.0
C1239 C 0.34036 0.74869 0.50265 0.0
C1240 C 0.3055 0.72549 0.47558 0.0
C1241 C 0.30084 0.70119 0.46903 0.0
C1242 C 0.28996 0.68994 0.4456 0.0
C1243 C 0.28409 0.70395 0.42823 0.0
C1244 C 0.28914 0.72891 0.43442 0.0
C1245 C 0.29968 0.73972 0.45853 0.0
H1246 H 0.60163 1.00359 0.7336 0.0
H1247 H 0.66317 1.00347 0.71029 0.0
H1248 H 0.64721 1.00857 0.66859 0.0
H1249 H 0.56739 0.97167 0.67543 0.0
H1250 H 0.54686 0.98875 0.67681 0.0
H1251 H 0.56297 0.9848 0.70486 0.0
H1252 H 0.57445 0.03009 0.71828 0.0
H1253 H 0.55839 0.03416 0.69025 0.0
H1254 H 0.58679 0.04802 0.69807 0.0
H1255 H 0.62374 0.01404 0.6274 0.0
H1256 H 0.59583 0.01911 0.59331 0.0
H1257 H 0.54943 0.01631 0.64232 0.0
C1258 C 0.61178 1.0045 0.71975 0.0
C1259 C 0.63399 1.00293 0.72591 0.0
C1260 C 0.6463 1.00448 0.70669 0.0
C1261 C 0.63727 1.00743 0.68265 0.0
C1262 C 0.61555 1.00898 0.67725 0.0
C1263 C 0.60294 1.00755 0.69535 0.0
C1264 C 0.58002 1.00993 0.68471 0.0
C1265 C 0.56332 0.98745 0.6855 0.0
C1266 C 0.57459 0.03185 0.69866 0.0
C1267 C 0.58167 0.01288 0.65798 0.0
C1268 C 0.60232 0.01227 0.65398 0.0
C1269 C 0.60759 0.01459 0.63064 0.0
C1270 C 0.59159 0.01759 0.61117 0.0
C1271 C 0.57024 0.01839 0.61465 0.0
C1272 C 0.56548 0.0159 0.63865 0.0
H1273 H 0.32736 0.39394 0.97058 0.0
H1274 H 0.29422 0.33848 0.00458 0.0
H1275 H 0.28899 0.31021 0.96571 0.0
H1276 H 0.29571 0.37772 0.91091 0.0
H1277 H 0.31806 0.38435 0.89499 0.0
H1278 H 0.31953 0.39988 0.92554 0.0
H1279 H 0.35518 0.38699 0.94047 0.0
H1280 H 0.35387 0.37148 0.90991 0.0
H1281 H 0.35579 0.35605 0.93588 0.0
H1282 H 0.28392 0.28948 0.92151 0.0
H1283 H 0.28355 0.27642 0.8772 0.0
H1284 H 0.32356 0.34421 0.87368 0.0
C1285 C 0.31914 0.37578 0.96986 0.0
C1286 C 0.31102 0.36834 0.99043 0.0
C1287 C 0.30058 0.34444 0.98899 0.0
C1288 C 0.29749 0.32834 0.96699 0.0
C1289 C 0.30546 0.33633 0.9469 0.0
C1290 C 0.31649 0.35938 0.94834 0.0
C1291 C 0.32379 0.36346 0.9243 0.0
C1292 C 0.31366 0.38247 0.91329 0.0
C1293 C 0.34863 0.36987 0.92786 0.0
C1294 C 0.31469 0.33926 0.90885 0.0
C1295 C 0.30395 0.32392 0.92212 0.0
C1296 C 0.2927 0.30117 0.91113 0.0
C1297 C 0.29251 0.29393 0.88601 0.0
C1298 C 0.30387 0.30919 0.87235 0.0
C1299 C 0.31523 0.33204 0.88397 0.0
H1300 H 0.99648 0.97635 0.35269 0.0
H1301 H 0.97675 0.04191 0.34212 0.0
H1302 H 0.98878 0.0571 0.38643 0.0
H1303 H 0.97895 0.97282 0.41069 0.0
H1304 H 1.00122 0.96106 0.42407 0.0
H1305 H 0.99204 0.95531 0.39117 0.0
H1306 H 0.03077 0.97283 0.38482 0.0
H1307 H 0.04009 0.97857 0.41771 0.0
H1308 H 0.04422 1.00228 0.40009 0.0
H1309 H 1.00219 0.06533 0.43108 0.0
H1310 H 0.01581 0.06628 0.4748 0.0
H1311 H 0.02653 0.99514 0.45841 0.0
C1312 C 0.99489 0.99397 0.35971 0.0
C1313 C 0.98571 1.00798 0.34388 0.0
C1314 C 0.98366 0.03083 0.35383 0.0
C1315 C 0.9905 0.03965 0.37898 0.0
C1316 C 0.99926 0.02539 0.39408 0.0
C1317 C 1.00146 1.00303 0.38498 0.0
C1318 C 1.01082 0.99126 0.40567 0.0
C1319 C 0.9948 0.96878 0.40803 0.0
C1320 C 0.03278 0.98592 0.40184 0.0
C1321 C 0.01347 1.01055 0.42773 0.0
C1322 C 1.00677 0.03006 0.42041 0.0
C1323 C 1.00753 0.0502 0.43708 0.0
C1324 C 0.01537 0.05051 0.46197 0.0
C1325 C 0.02235 0.03079 0.47019 0.0
C1326 C 0.02131 1.01047 0.45276 0.0
H1327 H 0.35654 0.73523 0.65211 0.0
H1328 H 0.40143 0.71129 0.70423 0.0
H1329 H 0.39727 0.74156 0.73727 0.0
H1330 H 0.36608 0.8009 0.68603 0.0
H1331 H 0.33743 0.79946 0.67813 0.0
H1332 H 0.35085 0.78406 0.65708 0.0
H1333 H 0.3231 0.74543 0.65663 0.0
H1334 H 0.31009 0.76024 0.67828 0.0
H1335 H 0.32039 0.7348 0.68524 0.0
H1336 H 0.38018 0.76359 0.7656 0.0
H1337 H 0.35383 0.7787 0.78732 0.0
H1338 H 0.31719 0.78675 0.71786 0.0
C1339 C 0.36671 0.73769 0.6701 0.0
C1340 C 0.37973 0.72151 0.67566 0.0
C1341 C 0.39185 0.72403 0.69963 0.0
C1342 C 0.38947 0.74112 0.71849 0.0
C1343 C 0.37478 0.75533 0.71301 0.0
C1344 C 0.36384 0.75414 0.68924 0.0
C1345 C 0.34548 0.76717 0.68909 0.0
C1346 C 0.35025 0.78921 0.67686 0.0
C1347 C 0.32349 0.75093 0.67659 0.0
C1348 C 0.34657 0.77395 0.7165 0.0
C1349 C 0.36403 0.76765 0.72988 0.0
C1350 C 0.3669 0.76931 0.75538 0.0
C1351 C 0.35158 0.77753 0.76751 0.0
C1352 C 0.33339 0.78369 0.75416 0.0
C1353 C 0.33112 0.78238 0.72842 0.0
H1354 H 0.5991 0.02917 0.86861 0.0
H1355 H 0.65114 0.99593 0.89488 0.0
H1356 H 0.63844 0.99573 0.93491 0.0
H1357 H 0.59931 0.06641 0.92611 0.0
H1358 H 0.57029 0.06271 0.92174 0.0
H1359 H 0.58344 0.06026 0.8954 0.0
H1360 H 0.55924 0.01874 0.87902 0.0
H1361 H 0.54596 0.0211 0.90526 0.0
H1362 H 0.55838 0.99642 0.89854 0.0
H1363 H 0.61979 1.00085 0.97457 0.0
H1364 H 0.59725 1.00765 0.00599 0.0
H1365 H 0.5556 0.03594 0.95413 0.0
C1366 C 0.60794 0.02171 0.88266 0.0
C1367 C 0.62653 0.01254 0.87778 0.0
C1368 C 0.63705 1.00302 0.89732 0.0
C1369 C 0.62985 1.00293 0.92044 0.0
C1370 C 0.61168 0.01221 0.92451 0.0
C1371 C 0.60074 0.02121 0.90586 0.0
C1372 C 0.58137 0.02973 0.9146 0.0
C1373 C 0.58374 0.05636 0.91444 0.0
C1374 C 0.55996 0.01567 0.89839 0.0
C1375 C 0.58304 0.0244 0.94112 0.0
C1376 C 0.60078 0.01442 0.94654 0.0
C1377 C 0.60587 1.0085 0.97007 0.0
C1378 C 0.59279 0.01254 0.98811 0.0
C1379 C 0.57415 0.02238 0.98332 0.0
C1380 C 0.56947 0.02834 0.95905 0.0
H1381 H 0.31792 0.38295 0.16329 0.0
H1382 H 0.32808 0.32886 0.10775 0.0
H1383 H 0.32728 0.30109 0.13741 0.0
H1384 H 0.34965 0.36599 0.21695 0.0
H1385 H 0.33095 0.37166 0.23697 0.0
H1386 H 0.33424 0.3883 0.21221 0.0
H1387 H 0.29302 0.37567 0.19528 0.0
H1388 H 0.28963 0.35909 0.21999 0.0
H1389 H 0.28021 0.3447 0.18844 0.0
H1390 H 0.32275 0.2781 0.17151 0.0
H1391 H 0.31379 0.26097 0.20786 0.0
H1392 H 0.30658 0.3292 0.24238 0.0
C1393 C 0.32034 0.36538 0.15754 0.0
C1394 C 0.3232 0.35817 0.13313 0.0
C1395 C 0.3259 0.33487 0.12626 0.0
C1396 C 0.32555 0.31895 0.14304 0.0
C1397 C 0.32246 0.32645 0.16678 0.0
C1398 C 0.31988 0.34909 0.17413 0.0
C1399 C 0.31546 0.352 0.20035 0.0
C1400 C 0.33366 0.37059 0.21764 0.0
C1401 C 0.29326 0.35823 0.20104 0.0
C1402 C 0.31555 0.32736 0.20633 0.0
C1403 C 0.31983 0.31303 0.18671 0.0
C1404 C 0.31965 0.28922 0.18711 0.0
C1405 C 0.31455 0.27963 0.20784 0.0
C1406 C 0.30973 0.29376 0.22802 0.0
C1407 C 0.31064 0.31808 0.22743 0.0
H1408 H 0.18795 0.93415 0.03394 0.0
H1409 H 0.21154 0.90352 0.09659 0.0
H1410 H 0.19244 0.92688 0.12276 0.0
H1411 H 0.19733 0.98869 0.06121 0.0
H1412 H 0.1736 0.99712 0.04631 0.0
H1413 H 0.18331 0.97342 0.03108 0.0
H1414 H 0.14606 0.9448 0.02687 0.0
H1415 H 0.1359 0.96868 0.04149 0.0
H1416 H 0.13404 0.94152 0.05381 0.0
H1417 H 0.17688 0.95989 0.14344 0.0
H1418 H 0.16477 0.99713 0.15543 0.0
H1419 H 0.15306 1.00568 0.07878 0.0
C1420 C 0.1882 0.93158 0.0529 0.0
C1421 C 0.20096 0.9171 0.06334 0.0
C1422 C 0.20144 0.91432 0.08827 0.0
C1423 C 0.19072 0.92757 0.10323 0.0
C1424 C 0.17929 0.94296 0.0927 0.0
C1425 C 0.17749 0.94445 0.06785 0.0
C1426 C 0.16671 0.96416 0.06137 0.0
C1427 C 0.18111 0.98187 0.04931 0.0
C1428 C 0.14435 0.95419 0.04491 0.0
C1429 C 0.16452 0.9749 0.08669 0.0
C1430 C 0.1711 0.96214 0.10455 0.0
C1431 C 0.1714 0.96978 0.12952 0.0
C1432 C 0.16476 0.99096 0.13622 0.0
C1433 C 0.15861 1.00433 0.11801 0.0
C1434 C 0.15822 0.99595 0.09306 0.0
H1435 H 0.6833 0.63238 0.03718 0.0
H1436 H 0.7047 0.58662 0.98266 0.0
H1437 H 0.67197 0.55571 0.9805 0.0
H1438 H 0.66325 0.5865 0.06982 0.0
H1439 H 0.64035 0.59805 0.07684 0.0
H1440 H 0.66437 0.61779 0.0727 0.0
H1441 H 0.64149 0.63373 0.03886 0.0
H1442 H 0.61737 0.61405 0.04293 0.0
H1443 H 0.62466 0.61335 0.01287 0.0
H1444 H 0.63773 0.52959 0.98427 0.0
H1445 H 0.60445 0.50839 0.99535 0.0
H1446 H 0.60545 0.56887 0.05014 0.0
C1447 C 0.68081 0.61599 0.0245 0.0
C1448 C 0.6964 0.61197 0.0098 0.0
C1449 C 0.69293 0.59009 0.99394 0.0
C1450 C 0.67436 0.57245 0.99256 0.0
C1451 C 0.65946 0.57673 0.00746 0.0
C1452 C 0.66244 0.59784 0.02328 0.0
C1453 C 0.64444 0.59699 0.03839 0.0
C1454 C 0.65366 0.60001 0.06608 0.0
C1455 C 0.63121 0.61564 0.03293 0.0
C1456 C 0.63104 0.57211 0.02862 0.0
C1457 C 0.63995 0.56098 0.01055 0.0
C1458 C 0.63062 0.53809 0.99844 0.0
C1459 C 0.61169 0.52617 0.00492 0.0
C1460 C 0.60227 0.5369 0.02361 0.0
C1461 C 0.61217 0.56022 0.03569 0.0
H1462 H 0.6714 0.48229 0.31662 0.0
H1463 H 0.72301 0.54106 0.31247 0.0
H1464 H 0.74872 0.51458 0.31291 0.0
H1465 H 0.70276 0.45539 0.35807 0.0
H1466 H 0.68979 0.42552 0.34378 0.0
H1467 H 0.67513 0.44878 0.34182 0.0
H1468 H 0.66718 0.43815 0.29415 0.0
H1469 H 0.68178 0.41481 0.29597 0.0
H1470 H 0.68934 0.43738 0.27783 0.0
H1471 H 0.76913 0.48213 0.31537 0.0
H1472 H 0.78284 0.446 0.32009 0.0
H1473 H 0.71793 0.40826 0.32226 0.0
C1474 C 0.68806 0.48955 0.3156 0.0
C1475 C 0.69518 0.51374 0.31447 0.0
C1476 C 0.71717 0.52258 0.31331 0.0
C1477 C 0.7319 0.50768 0.31352 0.0
C1478 C 0.72439 0.48397 0.31482 0.0
C1479 C 0.703 0.47492 0.31579 0.0
C1480 C 0.69925 0.44892 0.31778 0.0
C1481 C 0.69127 0.4444 0.34179 0.0
C1482 C 0.68345 0.43393 0.29508 0.0
C1483 C 0.72195 0.44487 0.31821 0.0
C1484 C 0.73618 0.46526 0.31629 0.0
C1485 C 0.75811 0.46599 0.31669 0.0
C1486 C 0.76573 0.44535 0.31925 0.0
C1487 C 0.75147 0.42427 0.32147 0.0
C1488 C 0.72927 0.42412 0.32079 0.0
H1489 H 0.79364 0.46008 0.46987 0.0
H1490 H 0.79024 0.45791 0.54677 0.0
H1491 H 0.82814 0.48001 0.55896 0.0
H1492 H 0.84538 0.44847 0.4739 0.0
H1493 H 0.85434 0.46731 0.45264 0.0
H1494 H 0.82597 0.4547 0.44994 0.0
H1495 H 0.81765 0.49652 0.45304 0.0
H1496 H 0.84605 0.50928 0.45568 0.0
H1497 H 0.83149 0.51892 0.47897 0.0
H1498 H 0.86674 0.49922 0.56285 0.0
H1499 H 0.9045 0.5131 0.55811 0.0
H1500 H 0.88397 0.50071 0.47855 0.0
C1501 C 0.80076 0.46494 0.48926 0.0
C1502 C 0.78905 0.45769 0.50745 0.0
C1503 C 0.799 0.46353 0.53263 0.0
C1504 C 0.82046 0.47613 0.53973 0.0
C1505 C 0.83181 0.48259 0.5214 0.0
C1506 C 0.82241 0.47718 0.49668 0.0
C1507 C 0.83896 0.48406 0.48068 0.0
C1508 C 0.8413 0.46234 0.46327 0.0
C1509 C 0.83319 0.50334 0.46624 0.0
C1510 C 0.85913 0.49363 0.50026 0.0
C1511 C 0.85453 0.49296 0.52362 0.0
C1512 C 0.87057 0.49997 0.54466 0.0
C1513 C 0.892 0.50763 0.54176 0.0
C1514 C 0.89726 0.50793 0.51796 0.0
C1515 C 0.88048 0.5011 0.497 0.0
H1516 H 0.40057 0.14608 0.29226 0.0
H1517 H 0.34437 0.08901 0.26408 0.0
H1518 H 0.32114 0.1179 0.26213 0.0
H1519 H 0.37324 0.18352 0.3301 0.0
H1520 H 0.38704 0.21118 0.3233 0.0
H1521 H 0.39996 0.18637 0.32266 0.0
H1522 H 0.40523 0.18984 0.27826 0.0
H1523 H 0.39202 0.21439 0.27863 0.0
H1524 H 0.38208 0.18886 0.25487 0.0
H1525 H 0.30261 0.15313 0.26268 0.0
H1526 H 0.29074 0.19073 0.26635 0.0
H1527 H 0.35709 0.22827 0.29496 0.0
C1528 C 0.38337 0.13956 0.28568 0.0
C1529 C 0.37476 0.11438 0.27832 0.0
C1530 C 0.35195 0.10754 0.26989 0.0
C1531 C 0.33838 0.1241 0.26868 0.0
C1532 C 0.34721 0.14836 0.27594 0.0
C1533 C 0.36925 0.15623 0.28435 0.0
C1534 C 0.37417 0.18362 0.29097 0.0
C1535 C 0.3842 0.19165 0.31839 0.0
C1536 C 0.38928 0.19483 0.27472 0.0
C1537 C 0.35157 0.18972 0.28521 0.0
C1538 C 0.3364 0.16887 0.27641 0.0
C1539 C 0.31452 0.16941 0.26961 0.0
C1540 C 0.30782 0.19128 0.27179 0.0
C1541 C 0.32252 0.21341 0.2809 0.0
C1542 C 0.345 0.21221 0.28775 0.0
H1543 H 0.31698 0.0964 0.55142 0.0
H1544 H 0.33039 0.14792 0.50319 0.0
H1545 H 0.3653 0.13657 0.50017 0.0
H1546 H 0.37124 0.10552 0.58467 0.0
H1547 H 0.36936 0.07479 0.58708 0.0
H1548 H 0.34542 0.08683 0.58511 0.0
H1549 H 0.32675 0.05486 0.54717 0.0
H1550 H 0.35064 0.04273 0.54902 0.0
H1551 H 0.33979 0.05171 0.5208 0.0
H1552 H 0.39922 0.1194 0.50277 0.0
H1553 H 0.42863 0.0979 0.51044 0.0
H1554 H 0.39292 0.05832 0.55753 0.0
C1555 C 0.32717 0.10532 0.54014 0.0
C1556 C 0.32081 0.12309 0.52751 0.0
C1557 C 0.3348 0.13426 0.51303 0.0
C1558 C 0.3547 0.12792 0.51121 0.0
C1559 C 0.36044 0.11038 0.52397 0.0
C1560 C 0.34704 0.09925 0.53814 0.0
C1561 C 0.35694 0.08105 0.55016 0.0
C1562 C 0.36098 0.08744 0.57843 0.0
C1563 C 0.34268 0.05611 0.54125 0.0
C1564 C 0.37803 0.08364 0.54057 0.0
C1565 C 0.3798 0.10063 0.52549 0.0
C1566 C 0.39797 0.10609 0.51459 0.0
C1567 C 0.41468 0.09387 0.51919 0.0
C1568 C 0.4132 0.07632 0.53458 0.0
C1569 C 0.39453 0.07131 0.54537 0.0
H1570 H 0.70876 0.62788 0.32361 0.0
H1571 H 0.65924 0.66692 0.33651 0.0
H1572 H 0.68505 0.70428 0.33669 0.0
H1573 H 0.75572 0.67237 0.36021 0.0
H1574 H 0.77295 0.66669 0.33839 0.0
H1575 H 0.75147 0.64333 0.34227 0.0
H1576 H 0.73597 0.63663 0.29548 0.0
H1577 H 0.75731 0.65998 0.29146 0.0
H1578 H 0.72943 0.66107 0.28146 0.0
H1579 H 0.71526 0.73696 0.3327 0.0
H1580 H 0.7473 0.76249 0.32324 0.0
H1581 H 0.77685 0.7024 0.31123 0.0
C1582 C 0.70348 0.64432 0.32705 0.0
C1583 C 0.68201 0.64449 0.33028 0.0
C1584 C 0.67561 0.66636 0.33411 0.0
C1585 C 0.69018 0.68767 0.33433 0.0
C1586 C 0.71109 0.68681 0.33064 0.0
C1587 C 0.71776 0.66572 0.32708 0.0
C1588 C 0.74053 0.66951 0.32154 0.0
C1589 C 0.75609 0.66256 0.34182 0.0
C1590 C 0.74081 0.656 0.29597 0.0
C1591 C 0.74547 0.69597 0.322 0.0
C1592 C 0.72834 0.70561 0.32759 0.0
C1593 C 0.7287 0.72956 0.32822 0.0
C1594 C 0.74683 0.7439 0.32247 0.0
C1595 C 0.76417 0.73429 0.31588 0.0
C1596 C 0.76374 0.71014 0.31625 0.0
H1597 H 0.8963 0.45049 0.80714 0.0
H1598 H 0.85218 0.46724 0.74831 0.0
H1599 H 0.82824 0.42757 0.74459 0.0
H1600 H 0.89068 0.38921 0.78455 0.0
H1601 H 0.89107 0.37976 0.81414 0.0
H1602 H 0.9046 0.4093 0.81223 0.0
H1603 H 0.8824 0.42654 0.84229 0.0
H1604 H 0.86894 0.39703 0.84448 0.0
H1605 H 0.85325 0.418 0.83543 0.0
H1606 H 0.81067 0.38286 0.74463 0.0
H1607 H 0.79856 0.34218 0.75282 0.0
H1608 H 0.8512 0.35556 0.81529 0.0
C1609 C 0.8814 0.44601 0.7937 0.0
C1610 C 0.87629 0.46255 0.77807 0.0
C1611 C 0.85657 0.45548 0.76076 0.0
C1612 C 0.84289 0.4327 0.7584 0.0
C1613 C 0.84858 0.41682 0.77385 0.0
C1614 C 0.86716 0.42353 0.79167 0.0
C1615 C 0.86923 0.40358 0.80668 0.0
C1616 C 0.89014 0.39496 0.80425 0.0
C1617 C 0.86841 0.41178 0.83383 0.0
C1618 C 0.8492 0.38435 0.79437 0.0
C1619 C 0.8377 0.3922 0.77513 0.0
C1620 C 0.81945 0.37697 0.76001 0.0
C1621 C 0.81266 0.35366 0.76476 0.0
C1622 C 0.82351 0.34529 0.78494 0.0
C1623 C 0.84212 0.3612 0.79994 0.0
H1624 H 0.05402 0.8663 0.09595 0.0
H1625 H 0.119 0.88807 0.13909 0.0
H1626 H 0.12356 0.92617 0.12375 0.0
H1627 H 0.06394 0.89636 0.04315 0.0
H1628 H 0.0384 0.90535 0.03977 0.0
H1629 H 0.04087 0.87868 0.05188 0.0
H1630 H 0.02704 0.89423 0.09087 0.0
H1631 H 0.02449 0.92089 0.07885 0.0
H1632 H 0.04066 0.92259 0.1088 0.0
H1633 H 0.12084 0.96232 0.10499 0.0
H1634 H 0.11028 0.99559 0.08674 0.0
H1635 H 0.04592 0.95254 0.05797 0.0
C1636 C 0.06931 0.87896 0.10177 0.0
C1637 C 0.08631 0.87405 0.11849 0.0
C1638 C 0.10584 0.89136 0.12623 0.0
C1639 C 0.10859 0.91304 0.11754 0.0
C1640 C 0.09151 0.9175 0.10135 0.0
C1641 C 0.07215 0.90109 0.09371 0.0
C1642 C 0.05581 0.91129 0.07785 0.0
C1643 C 0.04938 0.89707 0.0516 0.0
C1644 C 0.03582 0.91231 0.08981 0.0
C1645 C 0.06897 0.93598 0.07798 0.0
C1646 C 0.08962 0.93896 0.09136 0.0
C1647 C 0.10472 0.96023 0.09451 0.0
C1648 C 0.0985 0.97911 0.0842 0.0
C1649 C 0.0772 0.97698 0.07119 0.0
C1650 C 0.06237 0.95485 0.0677 0.0
H1651 H 0.95274 0.25201 0.8531 0.0
H1652 H 0.94614 0.27027 0.92914 0.0
H1653 H 0.90766 0.27124 0.91534 0.0
H1654 H 0.91954 0.28678 0.8264 0.0
H1655 H 0.9073 0.26534 0.79914 0.0
H1656 H 0.93402 0.26539 0.81497 0.0
H1657 H 0.9216 0.22155 0.81945 0.0
H1658 H 0.89489 0.22128 0.80333 0.0
H1659 H 0.89835 0.21287 0.83346 0.0
H1660 H 0.871 0.27527 0.89231 0.0
H1661 H 0.83766 0.2748 0.86282 0.0
H1662 H 0.86676 0.24893 0.80241 0.0
C1663 C 0.94306 0.25579 0.86685 0.0
C1664 C 0.95241 0.26104 0.89221 0.0
C1665 C 0.93925 0.26595 0.90965 0.0
C1666 C 0.91742 0.26672 0.90195 0.0
C1667 C 0.90881 0.26195 0.87675 0.0
C1668 C 0.92109 0.25591 0.85952 0.0
C1669 C 0.90786 0.25098 0.8336 0.0
C1670 C 0.91778 0.26815 0.81759 0.0
C1671 C 0.90554 0.22513 0.82176 0.0
C1672 C 0.88637 0.25569 0.83883 0.0
C1673 C 0.88732 0.2624 0.8638 0.0
C1674 C 0.86994 0.26945 0.8728 0.0
C1675 C 0.85106 0.2692 0.85594 0.0
C1676 C 0.84943 0.26133 0.83046 0.0
C1677 C 0.86738 0.25453 0.82189 0.0
H1678 H 0.55231 0.2008 0.64206 0.0
H1679 H 0.58261 0.23677 0.58887 0.0
H1680 H 0.57949 0.19809 0.56265 0.0
H1681 H 0.57645 0.15231 0.63826 0.0
H1682 H 0.55284 0.13081 0.64051 0.0
H1683 H 0.55605 0.16123 0.65409 0.0
H1684 H 0.51892 0.16258 0.62884 0.0
H1685 H 0.51544 0.13203 0.61541 0.0
H1686 H 0.51373 0.15405 0.5958 0.0
H1687 H 0.57756 0.15465 0.54537 0.0
H1688 H 0.57166 0.11102 0.53519 0.0
H1689 H 0.5394 0.10383 0.59763 0.0
C1690 C 0.55783 0.20056 0.6246 0.0
C1691 C 0.56764 0.22182 0.61743 0.0
C1692 C 0.57478 0.22076 0.59455 0.0
C1693 C 0.57322 0.19884 0.57966 0.0
C1694 C 0.56401 0.17814 0.58762 0.0
C1695 C 0.55589 0.17892 0.60927 0.0
C1696 C 0.54674 0.15424 0.61379 0.0
C1697 C 0.55874 0.14938 0.6381 0.0
C1698 C 0.52225 0.15051 0.61343 0.0
C1699 C 0.5515 0.13936 0.5917 0.0
C1700 C 0.56169 0.15342 0.57693 0.0
C1701 C 0.56916 0.14354 0.55654 0.0
C1702 C 0.56587 0.11876 0.55097 0.0
C1703 C 0.55485 0.10407 0.56542 0.0
C1704 C 0.54752 0.11461 0.58597 0.0
H1705 H 0.56326 0.75991 0.3771 0.0
H1706 H 0.59493 0.76256 0.45247 0.0
H1707 H 0.63025 0.76644 0.43908 0.0
H1708 H 0.59762 0.72673 0.34726 0.0
H1709 H 0.59799 0.74308 0.32198 0.0
H1710 H 0.57495 0.73946 0.33719 0.0
H1711 H 0.57918 0.78488 0.34591 0.0
H1712 H 0.60221 0.78863 0.33072 0.0
H1713 H 0.60474 0.80321 0.36196 0.0
H1714 H 0.66233 0.77058 0.41777 0.0
H1715 H 0.68895 0.77557 0.39018 0.0
H1716 H 0.63696 0.77192 0.32874 0.0
C1717 C 0.57761 0.76108 0.39073 0.0
C1718 C 0.57626 0.76082 0.41586 0.0
C1719 C 0.59549 0.7627 0.43314 0.0
C1720 C 0.61566 0.76487 0.42571 0.0
C1721 C 0.61647 0.76525 0.40089 0.0
C1722 C 0.59798 0.76347 0.38364 0.0
C1723 C 0.60351 0.76516 0.35826 0.0
C1724 C 0.59289 0.74224 0.3401 0.0
C1725 C 0.59703 0.78676 0.34866 0.0
C1726 C 0.62796 0.76825 0.364 0.0
C1727 C 0.63506 0.76812 0.38867 0.0
C1728 C 0.65695 0.7708 0.39842 0.0
C1729 C 0.67201 0.77381 0.38258 0.0
C1730 C 0.66522 0.7743 0.3572 0.0
C1731 C 0.64279 0.77136 0.34792 0.0
H1732 H 0.03379 0.26367 0.44485 0.0
H1733 H 1.00788 0.22071 0.37285 0.0
H1734 H 1.00343 0.18476 0.39232 0.0
H1735 H 0.06433 0.22485 0.46879 0.0
H1736 H 0.05897 0.23099 0.49957 0.0
H1737 H 0.059 0.25313 0.47996 0.0
H1738 H 0.02014 0.25585 0.486 0.0
H1739 H 0.01995 0.23362 0.50557 0.0
H1740 H 0.99891 0.22948 0.47887 0.0
H1741 H 1.00324 0.15358 0.41978 0.0
H1742 H 1.00787 0.12952 0.45276 0.0
H1743 H 0.03415 0.19348 0.50634 0.0
C1744 C 0.02707 0.24673 0.43312 0.0
C1745 C 0.02118 0.24493 0.40733 0.0
C1746 C 0.01249 0.22244 0.39266 0.0
C1747 C 1.00986 0.20198 0.40356 0.0
C1748 C 0.0159 0.20443 0.42908 0.0
C1749 C 0.02431 0.22626 0.44364 0.0
C1750 C 0.0302 0.22418 0.47051 0.0
C1751 C 0.05457 0.23385 0.48027 0.0
C1752 C 0.01647 0.23651 0.48616 0.0
C1753 C 0.02414 0.19769 0.4688 0.0
C1754 C 0.01578 0.18659 0.44481 0.0
C1755 C 1.00969 0.16209 0.43863 0.0
C1756 C 0.01248 0.1486 0.45745 0.0
C1757 C 0.02137 0.15967 0.4821 0.0
C1758 C 0.02699 0.18453 0.48777 0.0
H1759 H 0.62394 0.24981 0.25649 0.0
H1760 H 0.62684 0.2902 0.1966 0.0
H1761 H 0.66655 0.29416 0.20268 0.0
H1762 H 0.67455 0.28108 0.29551 0.0
H1763 H 0.68089 0.25455 0.30507 0.0
H1764 H 0.65309 0.25645 0.29658 0.0
H1765 H 0.64663 0.21813 0.26449 0.0
H1766 H 0.67463 0.21666 0.27251 0.0
H1767 H 0.66306 0.21705 0.24098 0.0
H1768 H 0.70601 0.29466 0.21626 0.0
H1769 H 0.74244 0.292 0.2371 0.0
H1770 H 0.71289 0.24764 0.28454 0.0
C1771 C 0.63302 0.25985 0.245 0.0
C1772 C 0.62255 0.27002 0.22634 0.0
C1773 C 0.63476 0.28248 0.21114 0.0
C1774 C 0.65723 0.28472 0.21437 0.0
C1775 C 0.66705 0.27399 0.23256 0.0
C1776 C 0.65535 0.26179 0.2476 0.0
C1777 C 0.66968 0.25132 0.26528 0.0
C1778 C 0.66955 0.26147 0.29219 0.0
C1779 C 0.6631 0.22418 0.26052 0.0
C1780 C 0.69132 0.25989 0.25812 0.0
C1781 C 0.68951 0.27299 0.23925 0.0
C1782 C 0.7076 0.28411 0.23075 0.0
C1783 C 0.72813 0.28238 0.24246 0.0
C1784 C 0.7301 0.26934 0.26198 0.0
C1785 C 0.71155 0.25748 0.26944 0.0
H1786 H 0.53065 0.86927 0.96192 0.0
H1787 H 0.50651 0.89563 0.89624 0.0
H1788 H 0.49189 0.92445 0.92143 0.0
H1789 H 0.4873 0.88021 0.99788 0.0
H1790 H 0.50658 0.89008 0.0263 0.0
H1791 H 0.51115 0.86809 1.00294 0.0
H1792 H 0.54872 0.89412 1.00227 0.0
H1793 H 0.5444 0.91574 0.02594 0.0
H1794 H 0.55051 0.92426 0.99739 0.0
H1795 H 0.48401 0.95313 0.9531 0.0
H1796 H 0.48937 0.98415 0.98924 0.0
H1797 H 0.51957 0.94084 0.03513 0.0
C1798 C 0.52189 0.88085 0.95293 0.0
C1799 C 0.51957 0.88029 0.92725 0.0
C1800 C 0.50852 0.89597 0.91598 0.0
C1801 C 0.49986 0.91211 0.93007 0.0
C1802 C 0.5025 0.91241 0.95541 0.0
C1803 C 0.51354 0.89746 0.96684 0.0
C1804 C 0.5173 0.90408 0.99462 0.0
C1805 C 0.50483 0.88444 0.00611 0.0
C1806 C 0.54167 0.90991 0.00569 0.0
C1807 C 0.50768 0.92583 0.99695 0.0
C1808 C 0.49848 0.92973 0.97411 0.0
C1809 C 0.49078 0.95008 0.97114 0.0
C1810 C 0.49386 0.96762 0.99176 0.0
C1811 C 0.50477 0.96481 0.01486 0.0
C1812 C 0.51063 0.94313 0.01778 0.0
H1813 H 0.99341 0.74457 0.72517 0.0
H1814 H 0.01502 0.70608 0.78238 0.0
H1815 H 0.98329 0.7106 0.80134 0.0
H1816 H 0.97778 0.78692 0.76264 0.0
H1817 H 0.95442 0.78902 0.74111 0.0
H1818 H 0.97682 0.77967 0.72994 0.0
H1819 H 0.95118 0.74108 0.70548 0.0
H1820 H 0.92858 0.75047 0.71636 0.0
H1821 H 0.93425 0.72227 0.72132 0.0
H1822 H 0.95177 0.72399 0.81702 0.0
H1823 H 0.92206 0.74325 0.82651 0.0
H1824 H 0.92171 0.77272 0.75894 0.0
C1825 C 0.99124 0.73655 0.74133 0.0
C1826 C 1.00673 0.72497 0.75226 0.0
C1827 C 1.00333 0.71494 0.77357 0.0
C1828 C 0.98536 0.71742 0.7845 0.0
C1829 C 0.97083 0.72972 0.77372 0.0
C1830 C 0.97344 0.73882 0.7524 0.0
C1831 C 0.95651 0.75274 0.74538 0.0
C1832 C 0.96702 0.77861 0.74475 0.0
C1833 C 0.94176 0.74093 0.72067 0.0
C1834 C 0.94443 0.75081 0.76656 0.0
C1835 C 0.95274 0.73729 0.78264 0.0
C1836 C 0.94495 0.73433 0.80436 0.0
C1837 C 0.92825 0.74548 0.80973 0.0
C1838 C 0.91958 0.75934 0.79339 0.0
C1839 C 0.92775 0.76184 0.77152 0.0
H1840 H 0.11663 0.04249 0.89072 0.0
H1841 H 0.12777 0.11877 0.90877 0.0
H1842 H 0.12113 0.11525 0.9509 0.0
H1843 H 0.07225 0.03119 0.92113 0.0
H1844 H 0.07846 1.00484 0.93129 0.0
H1845 H 0.08683 0.01355 0.90382 0.0
H1846 H 0.12651 0.0132 0.92204 0.0
H1847 H 0.11824 1.00469 0.94972 0.0
H1848 H 0.13911 0.03076 0.95164 0.0
H1849 H 0.11193 0.10343 0.99035 0.0
H1850 H 0.09588 0.08434 0.02221 0.0
H1851 H 0.08835 0.01557 0.97771 0.0
C1852 C 0.11802 0.05845 0.90371 0.0
C1853 C 0.12296 0.08093 0.89666 0.0
C1854 C 0.12406 0.1014 0.91388 0.0
C1855 C 0.12049 0.09956 0.93787 0.0
C1856 C 0.11559 0.07712 0.94425 0.0
C1857 C 0.11403 0.0569 0.92757 0.0
C1858 C 0.10624 0.03488 0.9382 0.0
C1859 C 0.08466 0.02027 0.92269 0.0
C1860 C 0.12357 0.02001 0.94054 0.0
C1861 C 0.10328 0.04588 0.96331 0.0
C1862 C 0.10926 0.07025 0.96664 0.0
C1863 C 0.10728 0.08436 0.98799 0.0
C1864 C 0.0982 0.07334 0.00603 0.0
C1865 C 0.09083 0.04848 1.0024 0.0
C1866 C 0.094 0.03459 0.98107 0.0
H1867 H 0.75343 0.32676 0.55872 0.0
H1868 H 0.79978 0.39398 0.57723 0.0
H1869 H 0.824 0.37661 0.60488 0.0
H1870 H 0.75802 0.31412 0.61774 0.0
H1871 H 0.75499 0.28271 0.60897 0.0
H1872 H 0.74327 0.29938 0.58773 0.0
H1873 H 0.7643 0.28369 0.55512 0.0
H1874 H 0.77636 0.26723 0.57656 0.0
H1875 H 0.79334 0.28802 0.56271 0.0
H1876 H 0.84128 0.35341 0.63347 0.0
H1877 H 0.84834 0.32758 0.6641 0.0
H1878 H 0.79001 0.27619 0.6278 0.0
C1879 C 0.76886 0.33769 0.56825 0.0
C1880 C 0.77481 0.36164 0.56583 0.0
C1881 C 0.79493 0.37556 0.5789 0.0
C1882 C 0.80889 0.36578 0.59442 0.0
C1883 C 0.80248 0.3421 0.59655 0.0
C1884 C 0.78287 0.32828 0.58394 0.0
C1885 C 0.77858 0.30425 0.59171 0.0
C1886 C 0.75749 0.29988 0.60217 0.0
C1887 C 0.77812 0.28464 0.57024 0.0
C1888 C 0.79834 0.30715 0.6115 0.0
C1889 C 0.81225 0.32882 0.61352 0.0
C1890 C 0.83067 0.33626 0.63188 0.0
C1891 C 0.83448 0.32154 0.64925 0.0
C1892 C 0.81972 0.29989 0.64832 0.0
C1893 C 0.8019 0.29232 0.62865 0.0
H1894 H 0.48955 0.03449 0.35723 0.0
H1895 H 0.43242 0.057 0.37516 0.0
H1896 H 0.44588 0.0569 0.41956 0.0
H1897 H 0.49447 0.99577 0.4014 0.0
H1898 H 0.52363 1.0036 0.40834 0.0
H1899 H 0.50946 1.00587 0.37849 0.0
H1900 H 0.52881 0.04984 0.38411 0.0
H1901 H 0.5432 0.04764 0.41388 0.0
H1902 H 0.52734 0.06982 0.41106 0.0
H1903 H 0.46658 0.05171 0.46448 0.0
H1904 H 0.49205 0.04628 0.50095 0.0
H1905 H 0.53591 0.02923 0.45287 0.0
C1906 C 0.4798 0.03965 0.37039 0.0
C1907 C 0.45967 0.04584 0.36201 0.0
C1908 C 0.44785 0.05239 0.38049 0.0
C1909 C 0.45542 0.0522 0.406 0.0
C1910 C 0.47518 0.04566 0.41343 0.0
C1911 C 0.48728 0.03986 0.3959 0.0
C1912 C 0.50816 0.03389 0.40815 0.0
C1913 C 0.50897 1.00826 0.39852 0.0
C1914 C 0.52805 0.05134 0.40406 0.0
C1915 C 0.50609 0.03696 0.43532 0.0
C1916 C 0.48689 0.04355 0.43825 0.0
C1917 C 0.48163 0.04672 0.46199 0.0
C1918 C 0.49622 0.04346 0.48283 0.0
C1919 C 0.51628 0.03728 0.4803 0.0
C1920 C 0.52089 0.034 0.4559 0.0
H1921 H 0.78709 0.68334 0.12202 0.0
H1922 H 0.74977 0.72319 0.07878 0.0
H1923 H 0.75104 0.75139 0.11663 0.0
H1924 H 0.76391 0.68884 0.1748 0.0
H1925 H 0.78875 0.6926 0.19656 0.0
H1926 H 0.78582 0.67637 0.16601 0.0
H1927 H 0.82041 0.70414 0.15924 0.0
H1928 H 0.82356 0.72038 0.18988 0.0
H1929 H 0.8223 0.73562 0.16375 0.0
H1930 H 0.75244 0.77196 0.16025 0.0
H1931 H 0.75835 0.78668 0.20515 0.0
H1932 H 0.7981 0.73601 0.21908 0.0
C1933 C 0.77947 0.69822 0.1205 0.0
C1934 C 0.76826 0.70111 0.09755 0.0
C1935 C 0.75855 0.7208 0.09619 0.0
C1936 C 0.75911 0.7368 0.1176 0.0
C1937 C 0.76994 0.73319 0.14006 0.0
C1938 C 0.78042 0.7147 0.14153 0.0
C1939 C 0.79105 0.71478 0.16783 0.0
C1940 C 0.78182 0.69178 0.17682 0.0
C1941 C 0.8158 0.71898 0.17031 0.0
C1942 C 0.78437 0.73574 0.1811 0.0
C1943 C 0.77202 0.74601 0.16481 0.0
C1944 C 0.7625 0.7644 0.17307 0.0
C1945 C 0.76583 0.77257 0.19855 0.0
C1946 C 0.77891 0.76268 0.21538 0.0
C1947 C 0.78842 0.74419 0.20649 0.0
H1948 H 0.12852 0.04002 0.72952 0.0
H1949 H 0.0846 0.07742 0.76186 0.0
H1950 H 0.0627 0.07433 0.72045 0.0
H1951 H 0.12801 0.06508 0.67511 0.0
H1952 H 0.1282 0.03819 0.65527 0.0
H1953 H 0.14004 0.04265 0.68747 0.0
H1954 H 0.11528 1.00347 0.69215 0.0
H1955 H 0.10338 0.99886 0.65991 0.0
H1956 H 0.08636 0.99904 0.68287 0.0
H1957 H 0.04783 0.07064 0.67554 0.0
H1958 H 0.0388 0.06341 0.63003 0.0
H1959 H 0.09028 0.02526 0.62674 0.0
C1960 C 0.11421 0.04743 0.72786 0.0
C1961 C 0.10827 0.05909 0.74882 0.0
C1962 C 0.08937 0.06838 0.74602 0.0
C1963 C 0.07687 0.06674 0.72259 0.0
C1964 C 0.08327 0.05531 0.70227 0.0
C1965 C 0.10128 0.04547 0.70467 0.0
C1966 C 0.10454 0.03406 0.67983 0.0
C1967 C 0.1265 0.0457 0.67409 0.0
C1968 C 0.10225 1.00726 0.67863 0.0
C1969 C 0.08587 0.0396 0.66299 0.0
C1970 C 0.0739 0.05199 0.67636 0.0
C1971 C 0.05682 0.0606 0.66491 0.0
C1972 C 0.05188 0.05649 0.63911 0.0
C1973 C 0.06371 0.04358 0.62509 0.0
C1974 C 0.08075 0.03477 0.63716 0.0
H1975 H 0.75384 0.34991 0.44921 0.0
H1976 H 0.68918 0.34984 0.41202 0.0
H1977 H 0.69213 0.31821 0.37895 0.0
H1978 H 0.77615 0.34422 0.39505 0.0
H1979 H 0.79427 0.32644 0.40646 0.0
H1980 H 0.78596 0.34733 0.42767 0.0
H1981 H 0.77199 0.31383 0.45129 0.0
H1982 H 0.78011 0.29274 0.43004 0.0
H1983 H 0.75249 0.28791 0.43485 0.0
H1984 H 0.70282 0.28589 0.35028 0.0
H1985 H 0.72207 0.26103 0.3259 0.0
H1986 H 0.78018 0.28586 0.3814 0.0
C1987 C 0.74016 0.34304 0.43427 0.0
C1988 C 0.72115 0.35186 0.43323 0.0
C1989 C 0.70383 0.34306 0.41307 0.0
C1990 C 0.70533 0.32507 0.39439 0.0
C1991 C 0.72437 0.31656 0.39615 0.0
C1992 C 0.74158 0.32566 0.41542 0.0
C1993 C 0.76097 0.31524 0.41234 0.0
C1994 C 0.78047 0.33444 0.41024 0.0
C1995 C 0.76671 0.30162 0.43338 0.0
C1996 C 0.75208 0.29874 0.38828 0.0
C1997 C 0.73083 0.2993 0.37932 0.0
C1998 C 0.71947 0.28543 0.35713 0.0
C1999 C 0.73042 0.2713 0.34346 0.0
C2000 C 0.7525 0.27178 0.35185 0.0
C2001 C 0.76322 0.28521 0.37473 0.0
H2002 H 0.47584 0.04291 0.21976 0.0
H2003 H 0.41089 0.04199 0.18277 0.0
H2004 H 0.4228 0.03786 0.14268 0.0
H2005 H 0.50468 0.07576 0.17801 0.0
H2006 H 0.52558 0.05905 0.1782 0.0
H2007 H 0.51239 0.06236 0.20444 0.0
H2008 H 0.50204 0.01702 0.20114 0.0
H2009 H 0.51519 0.01359 0.17488 0.0
H2010 H 0.4872 0.99928 0.17246 0.0
H2011 H 0.44195 0.03414 0.10484 0.0
H2012 H 0.46572 0.03024 0.07423 0.0
H2013 H 0.5191 0.03199 0.13318 0.0
C2014 C 0.46407 0.04194 0.20328 0.0
C2015 C 0.44206 0.04297 0.20526 0.0
C2016 C 0.42765 0.04137 0.1826 0.0
C2017 C 0.43437 0.03899 0.15937 0.0
C2018 C 0.45588 0.03799 0.15808 0.0
C2019 C 0.47058 0.03933 0.17948 0.0
C2020 C 0.49272 0.03742 0.17253 0.0
C2021 C 0.50987 0.05999 0.18398 0.0
C2022 C 0.49971 0.01552 0.18075 0.0
C2023 C 0.48819 0.0348 0.14411 0.0
C2024 C 0.46676 0.03533 0.13627 0.0
C2025 C 0.4587 0.03365 0.11103 0.0
C2026 C 0.47252 0.0314 0.09352 0.0
C2027 C 0.49466 0.03056 0.10051 0.0
C2028 C 0.50238 0.0323 0.12658 0.0
H2029 H 0.77333 0.72976 0.96366 0.0
H2030 H 0.74715 0.65886 0.92289 0.0
H2031 H 0.7489 0.67401 0.88387 0.0
H2032 H 0.74645 0.76115 0.91904 0.0
H2033 H 0.76951 0.7854 0.92312 0.0
H2034 H 0.76489 0.76958 0.9482 0.0
H2035 H 0.80333 0.76099 0.95162 0.0
H2036 H 0.80806 0.7768 0.92661 0.0
H2037 H 0.81119 0.74668 0.92478 0.0
H2038 H 0.75492 0.69572 0.8494 0.0
H2039 H 0.76609 0.72264 0.82116 0.0
H2040 H 0.78882 0.78047 0.88271 0.0
C2041 C 0.76772 0.71752 0.94649 0.0
C2042 C 0.75997 0.69305 0.94643 0.0
C2043 C 0.75313 0.67761 0.92353 0.0
C2044 C 0.75399 0.68607 0.9012 0.0
C2045 C 0.76183 0.71011 0.90185 0.0
C2046 C 0.76866 0.72569 0.92383 0.0
C2047 C 0.77746 0.75051 0.91905 0.0
C2048 C 0.76376 0.76767 0.92788 0.0
C2049 C 0.80143 0.75926 0.93124 0.0
C2050 C 0.77473 0.74628 0.89104 0.0
C2051 C 0.76547 0.72283 0.88163 0.0
C2052 C 0.76194 0.71418 0.85651 0.0
C2053 C 0.76824 0.72973 0.84054 0.0
C2054 C 0.77801 0.75384 0.84951 0.0
C2055 C 0.7811 0.76225 0.87518 0.0
H2056 H 0.88571 0.12692 0.07843 0.0
H2057 H 0.8847 0.09311 0.14339 0.0
H2058 H 0.90226 0.06306 0.12472 0.0
H2059 H 0.8743 0.0745 0.03392 0.0
H2060 H 0.89241 0.08645 0.01465 0.0
H2061 H 0.8801 0.10578 0.03312 0.0
H2062 H 0.91795 0.13126 0.05378 0.0
H2063 H 0.93034 0.11225 0.03504 0.0
H2064 H 0.9382 0.11727 0.06812 0.0
H2065 H 0.91882 0.03617 0.09881 0.0
H2066 H 0.93755 0.01674 0.0694 0.0
H2067 H 0.92767 0.06775 0.021 0.0
C2068 C 0.8894 0.11336 0.08887 0.0
C2069 C 0.88383 0.11237 0.11238 0.0
C2070 C 0.88894 0.09433 0.12542 0.0
C2071 C 0.89874 0.07706 0.11489 0.0
C2072 C 0.90345 0.07819 0.09142 0.0
C2073 C 0.8993 0.09607 0.07872 0.0
C2074 C 0.90647 0.09349 0.05399 0.0
C2075 C 0.88716 0.08983 0.03267 0.0
C2076 C 0.9243 0.11483 0.05267 0.0
C2077 C 0.91526 0.07131 0.0548 0.0
C2078 C 0.91316 0.06268 0.07646 0.0
C2079 C 0.92048 0.04267 0.08172 0.0
C2080 C 0.93087 0.03159 0.06473 0.0
C2081 C 0.93388 0.04058 0.04275 0.0
C2082 C 0.92556 0.06045 0.03759 0.0
H2083 H 0.38863 0.45602 0.03174 0.0
H2084 H 0.3953 0.4529 0.10983 0.0
H2085 H 0.43466 0.47022 0.11534 0.0
H2086 H 0.44069 0.44003 0.02496 0.0
H2087 H 0.44544 0.45897 1.0024 0.0
H2088 H 0.41813 0.44571 0.00473 0.0
H2089 H 0.40904 0.48715 0.01071 0.0
H2090 H 0.43629 0.50051 0.00844 0.0
H2091 H 0.42534 0.50976 0.03515 0.0
H2092 H 0.47235 0.49259 0.11269 0.0
H2093 H 0.50592 0.51398 0.10159 0.0
H2094 H 0.47565 0.4981 0.02451 0.0
C2095 C 0.39844 0.45883 0.04998 0.0
C2096 C 0.38894 0.45336 0.07045 0.0
C2097 C 0.40228 0.45697 0.09395 0.0
C2098 C 0.42461 0.46683 0.09721 0.0
C2099 C 0.43342 0.47231 0.07665 0.0
C2100 C 0.42079 0.46796 0.0534 0.0
C2101 C 0.43415 0.47526 0.03427 0.0
C2102 C 0.43463 0.45371 0.01548 0.0
C2103 C 0.4257 0.4943 0.0214 0.0
C2104 C 0.45618 0.48519 0.05045 0.0
C2105 C 0.45541 0.48347 0.07489 0.0
C2106 C 0.47324 0.49346 0.09356 0.0
C2107 C 0.49222 0.50559 0.08712 0.0
C2108 C 0.49343 0.50715 0.06221 0.0
C2109 C 0.47529 0.49651 0.04362 0.0
H2110 H 0.39023 0.56237 0.77137 0.0
H2111 H 0.45638 0.59977 0.80154 0.0
H2112 H 0.44364 0.63681 0.81066 0.0
H2113 H 0.37389 0.60908 0.74229 0.0
H2114 H 0.34691 0.6027 0.74901 0.0
H2115 H 0.36141 0.57939 0.74503 0.0
H2116 H 0.35601 0.56952 0.78805 0.0
H2117 H 0.34153 0.59283 0.79218 0.0
H2118 H 0.36486 0.59246 0.8147 0.0
H2119 H 0.42312 0.66974 0.81693 0.0
H2120 H 0.39681 0.69549 0.81959 0.0
H2121 H 0.34468 0.6361 0.78389 0.0
C2122 C 0.40208 0.57832 0.77993 0.0
C2123 C 0.42429 0.57819 0.78582 0.0
C2124 C 0.43927 0.59948 0.79688 0.0
C2125 C 0.43218 0.62058 0.80212 0.0
C2126 C 0.41012 0.62006 0.79606 0.0
C2127 C 0.39533 0.59946 0.78513 0.0
C2128 C 0.37254 0.60348 0.78029 0.0
C2129 C 0.36315 0.59836 0.7525 0.0
C2130 C 0.35788 0.5887 0.79467 0.0
C2131 C 0.37673 0.62954 0.79037 0.0
C2132 C 0.39847 0.63887 0.79939 0.0
C2133 C 0.40607 0.66262 0.80982 0.0
C2134 C 0.39102 0.67714 0.81113 0.0
C2135 C 0.36863 0.66783 0.80206 0.0
C2136 C 0.36159 0.64373 0.79141 0.0
H2137 H 0.28284 0.60885 0.60771 0.0
H2138 H 0.28209 0.68044 0.63953 0.0
H2139 H 0.24284 0.6681 0.63959 0.0
H2140 H 0.23255 0.5985 0.56687 0.0
H2141 H 0.22493 0.56781 0.56978 0.0
H2142 H 0.2531 0.58197 0.57388 0.0
H2143 H 0.26009 0.56999 0.61717 0.0
H2144 H 0.23197 0.5556 0.61312 0.0
H2145 H 0.24411 0.57805 0.63959 0.0
H2146 H 0.20357 0.64761 0.63568 0.0
H2147 H 0.16722 0.62091 0.62702 0.0
H2148 H 0.19426 0.56372 0.59601 0.0
C2149 C 0.2745 0.62188 0.61503 0.0
C2150 C 0.28541 0.6455 0.62385 0.0
C2151 C 0.27392 0.66219 0.6328 0.0
C2152 C 0.2517 0.65535 0.6329 0.0
C2153 C 0.24135 0.6319 0.62374 0.0
C2154 C 0.25239 0.61548 0.61489 0.0
C2155 C 0.23748 0.59169 0.60496 0.0
C2156 C 0.23699 0.58459 0.57723 0.0
C2157 C 0.24379 0.57272 0.61959 0.0
C2158 C 0.21627 0.5972 0.60969 0.0
C2159 C 0.21879 0.62042 0.62067 0.0
C2160 C 0.2014 0.62942 0.62705 0.0
C2161 C 0.1809 0.61419 0.62212 0.0
C2162 C 0.1781 0.59042 0.61073 0.0
C2163 C 0.19599 0.58193 0.60441 0.0
H2164 H 0.68394 0.90475 0.79319 0.0
H2165 H 0.73993 0.96294 0.81569 0.0
H2166 H 0.76379 0.93462 0.81674 0.0
H2167 H 0.70572 0.86348 0.83052 0.0
H2168 H 0.69482 0.8374 0.80762 0.0
H2169 H 0.68139 0.86181 0.80864 0.0
H2170 H 0.68374 0.86387 0.76315 0.0
H2171 H 0.69717 0.83944 0.76201 0.0
H2172 H 0.70969 0.86689 0.75366 0.0
H2173 H 0.78308 0.89959 0.81574 0.0
H2174 H 0.79548 0.86228 0.81198 0.0
H2175 H 0.72887 0.82348 0.78919 0.0
C2176 C 0.70122 0.91165 0.79841 0.0
C2177 C 0.70953 0.93703 0.80444 0.0
C2178 C 0.73251 0.94428 0.81097 0.0
C2179 C 0.74646 0.92803 0.81164 0.0
C2180 C 0.7379 0.9036 0.80568 0.0
C2181 C 0.71573 0.89529 0.7991 0.0
C2182 C 0.71115 0.86783 0.79333 0.0
C2183 C 0.69745 0.85699 0.81107 0.0
C2184 C 0.69975 0.85898 0.76643 0.0
C2185 C 0.73405 0.86214 0.7976 0.0
C2186 C 0.74911 0.88328 0.80485 0.0
C2187 C 0.77122 0.8831 0.81004 0.0
C2188 C 0.77823 0.86137 0.80783 0.0
C2189 C 0.76366 0.83892 0.80027 0.0
C2190 C 0.74093 0.83976 0.79508 0.0
H2191 H 0.73783 0.90878 0.56167 0.0
H2192 H 0.78873 0.96782 0.60113 0.0
H2193 H 0.76214 0.99301 0.60287 0.0
H2194 H 0.70986 0.94228 0.52436 0.0
H2195 H 0.68308 0.92601 0.52509 0.0
H2196 H 0.70566 0.91175 0.52843 0.0
H2197 H 0.69675 0.90049 0.56978 0.0
H2198 H 0.67408 0.91465 0.56651 0.0
H2199 H 0.6947 0.92328 0.59391 0.0
H2200 H 0.73093 0.01256 0.59864 0.0
H2201 H 0.69681 0.02553 0.5884 0.0
H2202 H 0.66523 0.95429 0.55174 0.0
C2203 C 0.74328 0.92691 0.57098 0.0
C2204 C 0.7654 0.93629 0.58135 0.0
C2205 C 0.77192 0.96021 0.59305 0.0
C2206 C 0.75692 0.97468 0.59419 0.0
C2207 C 0.73535 0.96507 0.58352 0.0
C2208 C 0.72845 0.94175 0.57216 0.0
C2209 C 0.70443 0.93633 0.56122 0.0
C2210 C 0.70054 0.92864 0.53311 0.0
C2211 C 0.69174 0.91757 0.5736 0.0
C2212 C 0.69907 0.96031 0.56793 0.0
C2213 C 0.71717 0.97652 0.58096 0.0
C2214 C 0.71657 0.99996 0.5887 0.0
C2215 C 0.69699 1.00712 0.58292 0.0
C2216 C 0.67811 0.99095 0.56948 0.0
C2217 C 0.67929 0.96716 0.56198 0.0
H2218 H 0.40882 0.4082 0.7616 0.0
H2219 H 0.37535 0.46592 0.76892 0.0
H2220 H 0.34244 0.438 0.77322 0.0
H2221 H 0.36286 0.36382 0.72699 0.0
H2222 H 0.36978 0.34027 0.74221 0.0
H2223 H 0.3908 0.36433 0.73888 0.0
H2224 H 0.40473 0.37283 0.78582 0.0
H2225 H 0.384 0.34884 0.78988 0.0
H2226 H 0.38639 0.37809 0.80644 0.0
H2227 H 0.31302 0.40381 0.77645 0.0
H2228 H 0.28991 0.36598 0.78094 0.0
H2229 H 0.34275 0.33085 0.77323 0.0
C2230 C 0.39452 0.41494 0.76389 0.0
C2231 C 0.39465 0.43927 0.76478 0.0
C2232 C 0.37566 0.44739 0.76816 0.0
C2233 C 0.35686 0.43165 0.77057 0.0
C2234 C 0.35732 0.40785 0.76977 0.0
C2235 C 0.37567 0.39951 0.76664 0.0
C2236 C 0.37207 0.3732 0.76722 0.0
C2237 C 0.374 0.35961 0.74235 0.0
C2238 C 0.38773 0.36794 0.78861 0.0
C2239 C 0.34893 0.36813 0.77152 0.0
C2240 C 0.34062 0.3883 0.77257 0.0
C2241 C 0.3194 0.38795 0.77583 0.0
C2242 C 0.3064 0.36645 0.77832 0.0
C2243 C 0.31482 0.3458 0.77798 0.0
C2244 C 0.33625 0.34661 0.77435 0.0
H2245 H 0.19265 0.61341 0.32456 0.0
H2246 H 0.22836 0.56938 0.28608 0.0
H2247 H 0.25254 0.60539 0.27877 0.0
H2248 H 0.19541 0.65889 0.2876 0.0
H2249 H 0.19957 0.68302 0.31276 0.0
H2250 H 0.18534 0.654 0.31544 0.0
H2251 H 0.21237 0.65463 0.35524 0.0
H2252 H 0.22659 0.68376 0.35278 0.0
H2253 H 0.24099 0.66026 0.35477 0.0
H2254 H 0.27102 0.64738 0.27193 0.0
H2255 H 0.2848 0.6898 0.27135 0.0
H2256 H 0.24016 0.70785 0.31806 0.0
C2257 C 0.20577 0.61125 0.3149 0.0
C2258 C 0.20838 0.58802 0.306 0.0
C2259 C 0.22588 0.58654 0.29342 0.0
C2260 C 0.23969 0.6071 0.289 0.0
C2261 C 0.23642 0.62956 0.29766 0.0
C2262 C 0.22016 0.63173 0.31092 0.0
C2263 C 0.22046 0.65798 0.31884 0.0
C2264 C 0.19891 0.66381 0.30802 0.0
C2265 C 0.22539 0.66454 0.34709 0.0
C2266 C 0.23907 0.67032 0.30755 0.0
C2267 C 0.24787 0.65352 0.29513 0.0
C2268 C 0.26436 0.66049 0.28201 0.0
C2269 C 0.2721 0.68485 0.28169 0.0
C2270 C 0.26396 0.70269 0.2948 0.0
C2271 C 0.24716 0.695 0.30806 0.0
H2272 H 0.53825 0.69822 0.49714 0.0
H2273 H 0.47542 0.67284 0.44964 0.0
H2274 H 0.47319 0.63362 0.46248 0.0
H2275 H 0.55696 0.64518 0.48288 0.0
H2276 H 0.57208 0.64685 0.51339 0.0
H2277 H 0.56787 0.67348 0.5023 0.0
H2278 H 0.55081 0.68499 0.5402 0.0
H2279 H 0.555 0.65838 0.5514 0.0
H2280 H 0.52829 0.66454 0.54672 0.0
H2281 H 0.47804 0.59669 0.48036 0.0
H2282 H 0.49066 0.56476 0.49925 0.0
H2283 H 0.55153 0.61308 0.53267 0.0
C2284 C 0.52386 0.68452 0.48981 0.0
C2285 C 0.50682 0.68874 0.47267 0.0
C2286 C 0.48856 0.6701 0.46294 0.0
C2287 C 0.48715 0.64776 0.47016 0.0
C2288 C 0.5043 0.64407 0.48686 0.0
C2289 C 0.52241 0.66189 0.4964 0.0
C2290 C 0.53925 0.65281 0.51268 0.0
C2291 C 0.56028 0.65469 0.50218 0.0
C2292 C 0.54359 0.66597 0.53933 0.0
C2293 C 0.52779 0.62717 0.51085 0.0
C2294 C 0.50756 0.62255 0.4961 0.0
C2295 C 0.49395 0.60014 0.49179 0.0
C2296 C 0.5013 0.58197 0.50255 0.0
C2297 C 0.52221 0.58601 0.51721 0.0
C2298 C 0.53547 0.60914 0.52149 0.0
H2299 H 0.65397 0.32179 0.72175 0.0
H2300 H 0.65389 0.27575 0.65401 0.0
H2301 H 0.68819 0.26649 0.67287 0.0
H2302 H 0.7126 0.34544 0.73498 0.0
H2303 H 0.71442 0.34733 0.76785 0.0
H2304 H 0.68987 0.35024 0.74897 0.0
H2305 H 0.66801 0.31615 0.76633 0.0
H2306 H 0.69249 0.31306 0.78515 0.0
H2307 H 0.67567 0.28797 0.76401 0.0
H2308 H 0.72106 0.25955 0.7007 0.0
H2309 H 0.75201 0.25944 0.73331 0.0
H2310 H 0.73289 0.31308 0.78132 0.0
C2311 C 0.66127 0.30988 0.71086 0.0
C2312 C 0.65118 0.29942 0.68641 0.0
C2313 C 0.66133 0.28406 0.67271 0.0
C2314 C 0.68078 0.2786 0.68332 0.0
C2315 C 0.69021 0.28902 0.70753 0.0
C2316 C 0.681 0.30471 0.72097 0.0
C2317 C 0.69474 0.314 0.7464 0.0
C2318 C 0.70343 0.34084 0.74974 0.0
C2319 C 0.68196 0.30739 0.76666 0.0
C2320 C 0.71287 0.30076 0.74536 0.0
C2321 C 0.70984 0.28623 0.72289 0.0
C2322 C 0.7238 0.27123 0.71818 0.0
C2323 C 0.74138 0.27127 0.7368 0.0
C2324 C 0.74517 0.28654 0.75967 0.0
C2325 C 0.73067 0.30149 0.76387 0.0
H2326 H 0.05234 0.36379 0.96187 0.0
H2327 H 1.00141 0.32599 0.99414 0.0
H2328 H 0.99891 0.36369 0.01841 0.0
H2329 H 0.07843 0.40599 0.01838 0.0
H2330 H 0.08556 0.42994 1.00176 0.0
H2331 H 0.08362 0.39992 0.98751 0.0
H2332 H 0.05602 0.40543 0.95066 0.0
H2333 H 0.05779 0.43539 0.96486 0.0
H2334 H 0.03185 0.41505 0.95633 0.0
H2335 H 0.99955 0.40643 0.03589 0.0
H2336 H 1.00642 0.4498 0.04905 0.0
H2337 H 0.05914 0.45911 0.00832 0.0
C2338 C 0.04081 0.36342 0.97425 0.0
C2339 C 0.027 0.34193 0.97605 0.0
C2340 C 0.01223 0.34219 0.99256 0.0
C2341 C 1.01064 0.36355 0.00633 0.0
C2342 C 0.02426 0.38448 1.00382 0.0
C2343 C 0.0394 0.38449 0.98858 0.0
C2344 C 0.05233 0.40932 0.98941 0.0
C2345 C 0.07641 0.41141 0.99989 0.0
C2346 C 0.04931 0.41672 0.96379 0.0
C2347 C 0.0418 0.42336 0.00705 0.0
C2348 C 0.02549 0.40877 0.015 0.0
C2349 C 0.01255 0.41794 0.03013 0.0
C2350 C 0.01649 0.44259 0.03743 0.0
C2351 C 0.03347 0.45777 0.03 0.0
C2352 C 0.04631 0.44791 0.0147 0.0
H2353 H 0.02245 0.787 0.22998 0.0
H2354 H 1.00952 0.81796 0.16401 0.0
H2355 H 0.97316 0.82048 0.17276 0.0
H2356 H 0.9696 0.75155 0.22478 0.0
H2357 H 0.96978 0.75604 0.25748 0.0
H2358 H 0.99485 0.75735 0.24628 0.0
H2359 H 1.01 0.79926 0.27177 0.0
H2360 H 0.98499 0.79805 0.28311 0.0
H2361 H 0.99506 0.82208 0.2678 0.0
H2362 H 0.93716 0.81809 0.18841 0.0
H2363 H 0.90606 0.81266 0.21026 0.0
H2364 H 0.94316 0.78354 0.26586 0.0
C2365 C 0.01209 0.79446 0.21737 0.0
C2366 C 0.01898 0.80228 0.19624 0.0
C2367 C 1.00475 0.8119 0.18034 0.0
C2368 C 0.984 0.81336 0.18515 0.0
C2369 C 0.97769 0.80523 0.20602 0.0
C2370 C 0.99144 0.79612 0.22194 0.0
C2371 C 0.98088 0.78845 0.24303 0.0
C2372 C 0.97864 0.76176 0.24287 0.0
C2373 C 0.99348 0.80282 0.26789 0.0
C2374 C 0.95897 0.79453 0.2365 0.0
C2375 C 0.95734 0.80413 0.21506 0.0
C2376 C 0.93836 0.81066 0.20526 0.0
C2377 C 0.9207 0.80738 0.21772 0.0
C2378 C 0.92211 0.79777 0.23987 0.0
C2379 C 0.94159 0.79128 0.24921 0.0
H2380 H 0.5242 0.28314 0.13773 0.0
H2381 H 0.52298 0.31795 0.21113 0.0
H2382 H 0.51594 0.35319 0.19414 0.0
H2383 H 0.55346 0.33032 0.11987 0.0
H2384 H 0.53976 0.3249 0.08821 0.0
H2385 H 0.5401 0.30072 0.10499 0.0
H2386 H 0.49816 0.28922 0.09556 0.0
H2387 H 0.49766 0.31325 0.07839 0.0
H2388 H 0.48283 0.31106 0.10333 0.0
H2389 H 0.51559 0.38677 0.17053 0.0
H2390 H 0.52078 0.4154 0.1419 0.0
H2391 H 0.52117 0.35835 0.08376 0.0
C2392 C 0.52168 0.29784 0.1501 0.0
C2393 C 0.52405 0.29779 0.17571 0.0
C2394 C 0.52112 0.31758 0.1914 0.0
C2395 C 0.51707 0.33767 0.18192 0.0
C2396 C 0.51575 0.33755 0.15669 0.0
C2397 C 0.51766 0.31801 0.14094 0.0
C2398 C 0.51799 0.32325 0.11509 0.0
C2399 C 0.53908 0.31959 0.10657 0.0
C2400 C 0.49796 0.30831 0.09703 0.0
C2401 C 0.51705 0.34907 0.11903 0.0
C2402 C 0.51542 0.35694 0.14303 0.0
C2403 C 0.51631 0.38069 0.15152 0.0
C2404 C 0.51923 0.39683 0.13512 0.0
C2405 C 0.52138 0.38913 0.11059 0.0
C2406 C 0.51971 0.36483 0.10243 0.0
H2407 H 0.95482 0.28339 0.33937 0.0
H2408 H 0.96311 0.35727 0.33097 0.0
H2409 H 0.92435 0.35493 0.33072 0.0
H2410 H 0.90069 0.26398 0.29907 0.0
H2411 H 0.89087 0.24306 0.31796 0.0
H2412 H 0.91919 0.24974 0.31613 0.0
H2413 H 0.92898 0.26079 0.36353 0.0
H2414 H 0.90071 0.25443 0.36565 0.0
H2415 H 0.91753 0.28303 0.37912 0.0
H2416 H 0.88729 0.34696 0.33831 0.0
H2417 H 0.84971 0.331 0.34116 0.0
H2418 H 0.86303 0.26074 0.33973 0.0
C2419 C 0.94832 0.29887 0.33685 0.0
C2420 C 0.96193 0.32055 0.33532 0.0
C2421 C 0.95295 0.34047 0.33204 0.0
C2422 C 0.93101 0.33939 0.33211 0.0
C2423 C 0.91826 0.31814 0.33487 0.0
C2424 C 0.92626 0.29797 0.33625 0.0
C2425 C 0.90872 0.27738 0.33879 0.0
C2426 C 0.90462 0.25737 0.31665 0.0
C2427 C 0.91433 0.26839 0.36323 0.0
C2428 C 0.88974 0.28935 0.3389 0.0
C2429 C 0.89594 0.313 0.33733 0.0
C2430 C 0.88202 0.32837 0.33898 0.0
C2431 C 0.86075 0.31912 0.34101 0.0
C2432 C 0.85345 0.29458 0.34069 0.0
C2433 C 0.86823 0.27954 0.34005 0.0
H2434 H 0.04714 0.6861 0.63529 0.0
H2435 H 0.10137 0.67329 0.68486 0.0
H2436 H 0.10716 0.64379 0.65219 0.0
H2437 H 0.02579 0.6273 0.61042 0.0
H2438 H 0.01676 0.63221 0.5796 0.0
H2439 H 0.01925 0.65514 0.60538 0.0
H2440 H 0.04475 0.68383 0.58527 0.0
H2441 H 0.04254 0.66074 0.55954 0.0
H2442 H 0.06881 0.67578 0.57694 0.0
H2443 H 0.10454 0.6126 0.61684 0.0
H2444 H 0.09121 0.57918 0.5824 0.0
H2445 H 0.03867 0.61128 0.55533 0.0
C2446 C 0.06049 0.67741 0.63903 0.0
C2447 C 0.07383 0.68201 0.66254 0.0
C2448 C 0.09087 0.66995 0.66699 0.0
C2449 C 0.09447 0.65337 0.64846 0.0
C2450 C 0.08091 0.649 0.62555 0.0
C2451 C 0.06415 0.66053 0.62076 0.0
C2452 C 0.05027 0.65035 0.59566 0.0
C2453 C 0.02663 0.64067 0.59791 0.0
C2454 C 0.05169 0.66878 0.57833 0.0
C2455 C 0.06129 0.63069 0.58759 0.0
C2456 C 0.07927 0.63063 0.60488 0.0
C2457 C 0.09078 0.61272 0.60292 0.0
C2458 C 0.08313 0.59382 0.58338 0.0
C2459 C 0.06422 0.59303 0.56623 0.0
C2460 C 0.05365 0.61206 0.56778 0.0
H2461 H 0.5873 0.81841 0.83635 0.0
H2462 H 0.60857 0.80741 0.91099 0.0
H2463 H 0.6419 0.79783 0.89921 0.0
H2464 H 0.60224 0.77195 0.80643 0.0
H2465 H 0.61165 0.78604 0.78197 0.0
H2466 H 0.59157 0.79643 0.79706 0.0
H2467 H 0.61589 0.83862 0.80801 0.0
H2468 H 0.63608 0.82844 0.7927 0.0
H2469 H 0.6433 0.84295 0.82436 0.0
H2470 H 0.66903 0.78267 0.87786 0.0
H2471 H 0.68994 0.76592 0.84894 0.0
H2472 H 0.65171 0.78782 0.7884 0.0
C2473 C 0.59928 0.81466 0.85038 0.0
C2474 C 0.59542 0.81359 0.87454 0.0
C2475 C 0.61132 0.80845 0.8924 0.0
C2476 C 0.63029 0.80301 0.88589 0.0
C2477 C 0.63322 0.80331 0.86163 0.0
C2478 C 0.61837 0.80946 0.84425 0.0
C2479 C 0.62447 0.80652 0.81898 0.0
C2480 C 0.60641 0.7892 0.80001 0.0
C2481 C 0.63028 0.83056 0.81052 0.0
C2482 C 0.64428 0.79631 0.82456 0.0
C2483 C 0.64924 0.79493 0.84933 0.0
C2484 C 0.66563 0.78414 0.85854 0.0
C2485 C 0.67723 0.77447 0.84198 0.0
C2486 C 0.67231 0.77563 0.81656 0.0
C2487 C 0.6559 0.78704 0.80783 0.0
H2488 H 0.49286 0.5047 0.70269 0.0
H2489 H 0.43075 0.52248 0.68065 0.0
H2490 H 0.44035 0.52919 0.64046 0.0
H2491 H 0.52408 0.54712 0.67467 0.0
H2492 H 0.54132 0.5281 0.66492 0.0
H2493 H 0.52928 0.52397 0.69165 0.0
H2494 H 0.51231 0.48031 0.67225 0.0
H2495 H 0.52425 0.48438 0.64541 0.0
H2496 H 0.49545 0.47362 0.64207 0.0
H2497 H 0.45808 0.53744 0.60408 0.0
H2498 H 0.48159 0.54356 0.57289 0.0
H2499 H 0.53116 0.51824 0.61736 0.0
C2500 C 0.48124 0.50986 0.68935 0.0
C2501 C 0.46106 0.51311 0.69489 0.0
C2502 C 0.44628 0.51982 0.67686 0.0
C2503 C 0.45159 0.52369 0.65395 0.0
C2504 C 0.47165 0.52048 0.64913 0.0
C2505 C 0.48616 0.51348 0.66621 0.0
C2506 C 0.50672 0.51149 0.65647 0.0
C2507 C 0.52652 0.5287 0.6729 0.0
C2508 C 0.50986 0.48593 0.6539 0.0
C2509 C 0.50163 0.5188 0.63144 0.0
C2510 C 0.48135 0.52403 0.62759 0.0
C2511 C 0.4737 0.53276 0.60654 0.0
C2512 C 0.48713 0.53624 0.589 0.0
C2513 C 0.50783 0.53083 0.5926 0.0
C2514 C 0.51508 0.52184 0.61396 0.0
H2515 H 0.82366 0.21802 0.04992 0.0
H2516 H 0.80715 0.14353 0.01825 0.0
H2517 H 0.79289 0.15354 0.97798 0.0
H2518 H 0.77691 0.23365 0.0166 0.0
H2519 H 0.79183 0.26205 0.01295 0.0
H2520 H 0.8003 0.24896 0.03932 0.0
H2521 H 0.83861 0.25228 0.02839 0.0
H2522 H 0.83033 0.26563 1.0022 0.0
H2523 H 0.84134 0.23955 0.99803 0.0
H2524 H 0.78145 0.17196 0.94103 0.0
H2525 H 0.7752 0.19749 0.90976 0.0
H2526 H 0.79895 0.25962 0.96625 0.0
C2527 C 0.81711 0.20377 0.03453 0.0
C2528 C 0.81658 0.18 0.03714 0.0
C2529 C 0.80778 0.16188 0.01658 0.0
C2530 C 0.79955 0.16738 0.99371 0.0
C2531 C 0.80014 0.19103 0.99187 0.0
C2532 C 0.80875 0.20892 0.01172 0.0
C2533 C 0.808 0.23294 0.00484 0.0
C2534 C 0.79339 0.24511 0.01929 0.0
C2535 C 0.83093 0.2485 0.00858 0.0
C2536 C 0.79796 0.22584 0.97785 0.0
C2537 C 0.79338 0.20159 0.97073 0.0
C2538 C 0.78486 0.19096 0.94641 0.0
C2539 C 0.78141 0.20556 0.92881 0.0
C2540 C 0.78653 0.23047 0.93568 0.0
C2541 C 0.7945 0.24063 0.96059 0.0
H2542 H 0.14782 0.50413 0.20537 0.0
H2543 H 0.10029 0.50693 0.25294 0.0
H2544 H 0.07424 0.51281 0.21832 0.0
H2545 H 0.13259 0.54862 0.1689 0.0
H2546 H 0.1358 0.53358 0.13973 0.0
H2547 H 0.15158 0.52955 0.16799 0.0
H2548 H 0.1373 0.48442 0.15653 0.0
H2549 H 0.12153 0.48835 0.12823 0.0
H2550 H 0.10851 0.47249 0.1495 0.0
H2551 H 0.05268 0.51859 0.17962 0.0
H2552 H 0.03594 0.52312 0.1388 0.0
H2553 H 0.09495 0.51682 0.1113 0.0
C2554 C 0.13191 0.50595 0.2085 0.0
C2555 C 0.12647 0.50495 0.23261 0.0
C2556 C 0.10528 0.50747 0.23526 0.0
C2557 C 0.0902 0.5109 0.21547 0.0
C2558 C 0.09598 0.5118 0.19233 0.0
C2559 C 0.11626 0.50933 0.18848 0.0
C2560 C 0.1176 0.51085 0.16115 0.0
C2561 C 0.13546 0.5319 0.15934 0.0
C2562 C 0.12147 0.48765 0.14808 0.0
C2563 C 0.095 0.51468 0.15048 0.0
C2564 C 0.08308 0.5151 0.16921 0.0
C2565 C 0.06192 0.51822 0.1649 0.0
C2566 C 0.05247 0.5208 0.14117 0.0
C2567 C 0.06363 0.52041 0.1209 0.0
C2568 C 0.08559 0.51736 0.12591 0.0
H2569 H 0.78066 0.87646 0.46689 0.0
H2570 H 0.82904 0.84558 0.50654 0.0
H2571 H 0.83103 0.82109 0.46763 0.0
H2572 H 0.7532 0.8213 0.42341 0.0
H2573 H 0.74765 0.83698 0.39819 0.0
H2574 H 0.74901 0.85097 0.4294 0.0
H2575 H 0.77822 0.886 0.42328 0.0
H2576 H 0.77708 0.87206 0.39216 0.0
H2577 H 0.80255 0.88031 0.41344 0.0
H2578 H 0.83106 0.80372 0.42372 0.0
H2579 H 0.82572 0.79086 0.37865 0.0
H2580 H 0.77527 0.83044 0.36777 0.0
C2581 C 0.7914 0.86424 0.46744 0.0
C2582 C 0.80473 0.86296 0.48979 0.0
C2583 C 0.81856 0.84675 0.48972 0.0
C2584 C 0.81987 0.83284 0.46768 0.0
C2585 C 0.80691 0.83493 0.44589 0.0
C2586 C 0.79256 0.84981 0.44567 0.0
C2587 C 0.78055 0.84884 0.4197 0.0
C2588 C 0.75615 0.83893 0.41756 0.0
C2589 C 0.78487 0.87325 0.41168 0.0
C2590 C 0.7909 0.83168 0.40527 0.0
C2591 C 0.80615 0.82396 0.42072 0.0
C2592 C 0.81888 0.8093 0.4115 0.0
C2593 C 0.81584 0.80221 0.38588 0.0
C2594 C 0.79998 0.8095 0.36976 0.0
C2595 C 0.78728 0.8243 0.37969 0.0
H2596 H 0.48156 0.52852 0.85468 0.0
H2597 H 0.50749 0.46782 0.8303 0.0
H2598 H 0.52423 0.46784 0.87295 0.0
H2599 H 0.529 0.55735 0.90358 0.0
H2600 H 0.51277 0.56773 0.92461 0.0
H2601 H 0.50349 0.56418 0.89181 0.0
H2602 H 0.46775 0.53676 0.89595 0.0
H2603 H 0.47698 0.54018 0.92871 0.0
H2604 H 0.46882 0.51107 0.91041 0.0
H2605 H 0.53568 0.47166 0.91744 0.0
H2606 H 0.5434 0.48064 0.9626 0.0
H2607 H 0.51218 0.5402 0.96044 0.0
C2608 C 0.49099 0.51544 0.85831 0.0
C2609 C 0.49314 0.49814 0.83895 0.0
C2610 C 0.50555 0.48128 0.8446 0.0
C2611 C 0.51517 0.48112 0.86885 0.0
C2612 C 0.51253 0.49809 0.88744 0.0
C2613 C 0.50099 0.51514 0.88262 0.0
C2614 C 0.50049 0.53097 0.90649 0.0
C2615 C 0.51214 0.55658 0.90663 0.0
C2616 C 0.47712 0.52965 0.91062 0.0
C2617 C 0.5131 0.51967 0.92535 0.0
C2618 C 0.51981 0.50074 0.91372 0.0
C2619 C 0.53073 0.48658 0.92679 0.0
C2620 C 0.53492 0.49177 0.95249 0.0
C2621 C 0.52838 0.51108 0.96508 0.0
C2622 C 0.51754 0.52546 0.9513 0.0
H2623 H 0.87222 0.22489 0.20807 0.0
H2624 H 0.83886 0.24014 0.14033 0.0
H2625 H 0.8284 0.27343 0.16363 0.0
H2626 H 0.83912 0.22875 0.24309 0.0
H2627 H 0.85654 0.24528 0.27111 0.0
H2628 H 0.86772 0.22894 0.24891 0.0
H2629 H 0.89528 0.26751 0.24897 0.0
H2630 H 0.88282 0.28433 0.27001 0.0
H2631 H 0.88597 0.29312 0.24077 0.0
H2632 H 0.81088 0.29403 0.19398 0.0
H2633 H 0.79234 0.30369 0.22876 0.0
H2634 H 0.83785 0.27629 0.27682 0.0
C2635 C 0.86392 0.23626 0.19816 0.0
C2636 C 0.85625 0.22996 0.17259 0.0
C2637 C 0.8451 0.24482 0.15995 0.0
C2638 C 0.83905 0.26383 0.17307 0.0
C2639 C 0.84508 0.26831 0.19866 0.0
C2640 C 0.85825 0.25568 0.21102 0.0
C2641 C 0.86004 0.26185 0.23862 0.0
C2642 C 0.8555 0.23983 0.25105 0.0
C2643 C 0.88236 0.27762 0.25027 0.0
C2644 C 0.84264 0.27595 0.23945 0.0
C2645 C 0.83509 0.28078 0.21644 0.0
C2646 C 0.8172 0.29114 0.21224 0.0
C2647 C 0.80662 0.29635 0.23195 0.0
C2648 C 0.81366 0.29054 0.25521 0.0
C2649 C 0.8322 0.28087 0.25911 0.0
H2650 H 0.0992 0.5245 0.37043 0.0
H2651 H 0.15825 0.50428 0.40024 0.0
H2652 H 0.14668 0.50544 0.441 0.0
H2653 H 0.09501 0.56416 0.42362 0.0
H2654 H 0.066 0.55532 0.42017 0.0
H2655 H 0.07871 0.55258 0.39351 0.0
H2656 H 0.06049 0.50817 0.38273 0.0
H2657 H 0.04761 0.51085 0.40927 0.0
H2658 H 0.06408 0.48935 0.40555 0.0
H2659 H 0.12859 0.51147 0.48092 0.0
H2660 H 0.10603 0.51763 0.51238 0.0
H2661 H 0.0569 0.53157 0.45686 0.0
C2662 C 0.10978 0.52008 0.3854 0.0
C2663 C 0.13 0.51423 0.38132 0.0
C2664 C 0.14281 0.50862 0.40204 0.0
C2665 C 0.13628 0.5094 0.42557 0.0
C2666 C 0.11649 0.51549 0.42882 0.0
C2667 C 0.10325 0.52033 0.40898 0.0
C2668 C 0.08249 0.52586 0.41704 0.0
C2669 C 0.08043 0.55097 0.41336 0.0
C2670 C 0.06248 0.50747 0.40279 0.0
C2671 C 0.08608 0.52389 0.44461 0.0
C2672 C 0.10591 0.51801 0.45106 0.0
C2673 C 0.11305 0.51587 0.47562 0.0
C2674 C 0.09993 0.51955 0.49367 0.0
C2675 C 0.07923 0.52522 0.48792 0.0
C2676 C 0.07242 0.52727 0.46256 0.0
H2677 H 0.81773 0.87721 0.66329 0.0
H2678 H 0.82203 0.8212 0.60611 0.0
H2679 H 0.82056 0.79333 0.63572 0.0
H2680 H 0.84898 0.85766 0.71557 0.0
H2681 H 0.8316 0.86505 0.73661 0.0
H2682 H 0.8353 0.88152 0.7118 0.0
H2683 H 0.79381 0.87208 0.6965 0.0
H2684 H 0.79001 0.85567 0.72127 0.0
H2685 H 0.7791 0.84174 0.68982 0.0
H2686 H 0.81623 0.77076 0.67014 0.0
H2687 H 0.80731 0.75428 0.7068 0.0
H2688 H 0.80494 0.82399 0.74254 0.0
C2689 C 0.81878 0.85918 0.65718 0.0
C2690 C 0.82021 0.85145 0.63236 0.0
C2691 C 0.82101 0.82758 0.62497 0.0
C2692 C 0.82027 0.81161 0.64171 0.0
C2693 C 0.81861 0.81964 0.66589 0.0
C2694 C 0.81777 0.84282 0.67369 0.0
C2695 C 0.81428 0.84626 0.70027 0.0
C2696 C 0.8337 0.86366 0.71705 0.0
C2697 C 0.79304 0.85442 0.70206 0.0
C2698 C 0.8129 0.82132 0.70597 0.0
C2699 C 0.81574 0.80639 0.6859 0.0
C2700 C 0.81418 0.78232 0.68604 0.0
C2701 C 0.80911 0.77311 0.70697 0.0
C2702 C 0.80557 0.78782 0.72757 0.0
C2703 C 0.80793 0.81237 0.72723 0.0
H2704 H 0.67948 0.44134 0.51724 0.0
H2705 H 0.68232 0.39359 0.57033 0.0
H2706 H 0.66416 0.41782 0.59683 0.0
H2707 H 0.69412 0.49162 0.55709 0.0
H2708 H 0.67653 0.50784 0.54149 0.0
H2709 H 0.68489 0.48418 0.52419 0.0
H2710 H 0.64488 0.46291 0.50701 0.0
H2711 H 0.63633 0.48699 0.52358 0.0
H2712 H 0.62647 0.45713 0.52806 0.0
H2713 H 0.65152 0.45168 0.62055 0.0
H2714 H 0.64262 0.4895 0.63698 0.0
H2715 H 0.64868 0.51373 0.56742 0.0
C2716 C 0.6755 0.43551 0.53401 0.0
C2717 C 0.68217 0.41572 0.54182 0.0
C2718 C 0.67703 0.40862 0.56395 0.0
C2719 C 0.66683 0.42233 0.57914 0.0
C2720 C 0.66162 0.44268 0.57155 0.0
C2721 C 0.6653 0.44883 0.54913 0.0
C2722 C 0.66019 0.47248 0.54597 0.0
C2723 C 0.68012 0.49004 0.54197 0.0
C2724 C 0.64081 0.4697 0.52491 0.0
C2725 C 0.65433 0.47941 0.57068 0.0
C2726 C 0.65481 0.462 0.58515 0.0
C2727 C 0.65085 0.4653 0.60921 0.0
C2728 C 0.64601 0.48687 0.61847 0.0
C2729 C 0.64554 0.50486 0.60375 0.0
C2730 C 0.64963 0.50078 0.57954 0.0
H2731 H 0.20474 0.10177 0.52949 0.0
H2732 H 0.18174 0.16087 0.50357 0.0
H2733 H 0.14457 0.14277 0.50798 0.0
H2734 H 0.15757 0.05597 0.50115 0.0
H2735 H 0.15856 0.04037 0.52703 0.0
H2736 H 0.18312 0.05746 0.52079 0.0
H2737 H 0.19129 0.08115 0.56512 0.0
H2738 H 0.16671 0.06419 0.57146 0.0
H2739 H 0.17137 0.09597 0.57574 0.0
H2740 H 0.10963 0.11768 0.51432 0.0
H2741 H 0.08008 0.0886 0.52427 0.0
H2742 H 0.12607 0.04732 0.54904 0.0
C2743 C 0.19182 0.11076 0.5245 0.0
C2744 C 0.19608 0.13263 0.51592 0.0
C2745 C 0.17883 0.14408 0.51008 0.0
C2746 C 0.15766 0.13392 0.51251 0.0
C2747 C 0.15402 0.11244 0.52116 0.0
C2748 C 0.17065 0.10108 0.52727 0.0
C2749 C 0.16252 0.07864 0.53709 0.0
C2750 C 0.16563 0.05682 0.52052 0.0
C2751 C 0.17363 0.08009 0.56395 0.0
C2752 C 0.13871 0.07906 0.53539 0.0
C2753 C 0.13412 0.09861 0.52596 0.0
C2754 C 0.11312 0.10245 0.52196 0.0
C2755 C 0.09641 0.08589 0.52775 0.0
C2756 C 0.10076 0.06592 0.53777 0.0
C2757 C 0.12225 0.06257 0.54168 0.0
H2758 H 0.2057 0.01723 0.83125 0.0
H2759 H 0.13998 0.97624 0.80634 0.0
H2760 H 0.1539 0.93961 0.80105 0.0
H2761 H 0.23052 0.98541 0.79047 0.0
H2762 H 0.25482 0.98717 0.81245 0.0
H2763 H 0.23959 1.00989 0.8156 0.0
H2764 H 0.2363 1.00291 0.86005 0.0
H2765 H 0.25169 0.98028 0.85711 0.0
H2766 H 0.22529 0.97361 0.86534 0.0
H2767 H 0.17544 0.90799 0.79526 0.0
H2768 H 0.20265 0.88358 0.79183 0.0
H2769 H 0.25388 0.94534 0.82313 0.0
C2770 C 0.19421 1.00052 0.82491 0.0
C2771 C 0.17179 0.99951 0.81912 0.0
C2772 C 0.15724 0.97734 0.81095 0.0
C2773 C 0.16499 0.95648 0.80786 0.0
C2774 C 0.18726 0.95814 0.81338 0.0
C2775 C 0.20163 0.97957 0.82205 0.0
C2776 C 0.22479 0.97665 0.82639 0.0
C2777 C 0.23821 0.9906 0.81026 0.0
C2778 C 0.23512 0.98378 0.85385 0.0
C2779 C 0.22128 0.95031 0.81814 0.0
C2780 C 0.19955 0.9399 0.81074 0.0
C2781 C 0.19249 0.91588 0.80139 0.0
C2782 C 0.20808 0.90214 0.79961 0.0
C2783 C 0.23046 0.91247 0.80725 0.0
C2784 C 0.23697 0.93687 0.81681 0.0
H2785 H 0.31007 0.95908 0.02832 0.0
H2786 H 0.27456 0.97851 0.96403 0.0
H2787 H 0.30864 1.00303 0.95729 0.0
H2788 H 0.34799 0.01617 0.04941 0.0
H2789 H 0.37002 1.00256 0.05958 0.0
H2790 H 0.34258 0.98819 0.0601 0.0
H2791 H 0.34753 0.95056 0.03332 0.0
H2792 H 0.37489 0.96482 0.03257 0.0
H2793 H 0.35606 0.95278 1.00415 0.0
H2794 H 0.34746 0.02222 0.95566 0.0
H2795 H 0.38708 0.0356 0.96008 0.0
H2796 H 0.39606 1.00494 0.02688 0.0
C2797 C 0.30935 0.96868 0.01295 0.0
C2798 C 0.28971 0.96686 0.99662 0.0
C2799 C 0.28946 0.97976 0.9768 0.0
C2800 C 0.30872 0.99369 0.97284 0.0
C2801 C 0.3279 0.99471 0.98909 0.0
C2802 C 0.32825 0.98274 0.00891 0.0
C2803 C 0.35093 0.98597 0.02326 0.0
C2804 C 0.35299 0.99901 0.04965 0.0
C2805 C 0.35774 0.96212 0.02331 0.0
C2806 C 0.36346 1.00118 0.00809 0.0
C2807 C 0.34996 1.00613 0.98849 0.0
C2808 C 0.35813 0.01879 0.97119 0.0
C2809 C 0.38067 0.02642 0.97393 0.0
C2810 C 0.39476 0.02139 0.99387 0.0
C2811 C 0.38585 1.0089 0.01129 0.0
H2812 H 0.89865 0.64365 0.79176 0.0
H2813 H 0.84293 0.58575 0.76486 0.0
H2814 H 0.8192 0.61415 0.76293 0.0
H2815 H 0.87145 0.6811 0.82954 0.0
H2816 H 0.88453 0.70874 0.82204 0.0
H2817 H 0.89799 0.68434 0.82152 0.0
H2818 H 0.90239 0.68727 0.77689 0.0
H2819 H 0.8885 0.71131 0.77677 0.0
H2820 H 0.87883 0.68522 0.75368 0.0
H2821 H 0.80007 0.64899 0.76354 0.0
H2822 H 0.78765 0.68629 0.76698 0.0
H2823 H 0.85396 0.72497 0.79366 0.0
C2824 C 0.88145 0.63684 0.78547 0.0
C2825 C 0.87314 0.61155 0.77849 0.0
C2826 C 0.85031 0.60436 0.77039 0.0
C2827 C 0.83645 0.62065 0.76919 0.0
C2828 C 0.845 0.645 0.77607 0.0
C2829 C 0.86704 0.65324 0.78407 0.0
C2830 C 0.87163 0.68066 0.79019 0.0
C2831 C 0.88203 0.68922 0.81745 0.0
C2832 C 0.88622 0.69177 0.7734 0.0
C2833 C 0.84883 0.68636 0.78472 0.0
C2834 C 0.83385 0.66528 0.77645 0.0
C2835 C 0.81184 0.66545 0.77003 0.0
C2836 C 0.80483 0.68715 0.77206 0.0
C2837 C 0.81933 0.70951 0.78059 0.0
C2838 C 0.84196 0.70871 0.787 0.0
H2839 H 0.82068 0.59895 0.05194 0.0
H2840 H 0.83104 0.65097 1.00363 0.0
H2841 H 0.86662 0.6413 0.99992 0.0
H2842 H 0.87571 0.60962 0.08409 0.0
H2843 H 0.87443 0.57889 0.08614 0.0
H2844 H 0.85028 0.5905 0.08517 0.0
H2845 H 0.83118 0.55855 0.04734 0.0
H2846 H 0.85528 0.54689 0.04815 0.0
H2847 H 0.8435 0.55591 0.02037 0.0
H2848 H 0.90146 0.62487 1.00148 0.0
H2849 H 0.93113 0.60333 0.00761 0.0
H2850 H 0.89692 0.56268 0.055 0.0
C2851 C 0.83036 0.60848 0.0406 0.0
C2852 C 0.82296 0.6258 0.02809 0.0
C2853 C 0.8363 0.63767 0.01344 0.0
C2854 C 0.85655 0.63228 0.01123 0.0
C2855 C 0.86324 0.61499 0.02379 0.0
C2856 C 0.85045 0.60332 0.0382 0.0
C2857 C 0.86092 0.58525 0.04963 0.0
C2858 C 0.86561 0.59145 0.07793 0.0
C2859 C 0.84688 0.56017 0.04084 0.0
C2860 C 0.88162 0.58833 0.03934 0.0
C2861 C 0.88282 0.6056 0.02455 0.0
C2862 C 0.90062 0.61137 0.01307 0.0
C2863 C 0.91745 0.5991 0.01675 0.0
C2864 C 0.91637 0.58116 0.03166 0.0
C2865 C 0.89817 0.57597 0.04314 0.0
H2866 H 0.18588 0.15341 0.7938 0.0
H2867 H 0.21462 0.12656 0.85699 0.0
H2868 H 0.24837 0.15689 0.86094 0.0
H2869 H 0.2349 0.16435 0.76805 0.0
H2870 H 0.22928 0.19038 0.75661 0.0
H2871 H 0.2073 0.16705 0.75931 0.0
H2872 H 0.19214 0.19701 0.78679 0.0
H2873 H 0.21404 0.22019 0.78368 0.0
H2874 H 0.20963 0.21499 0.81392 0.0
H2875 H 0.27811 0.19173 0.85924 0.0
H2876 H 0.303 0.22582 0.84962 0.0
H2877 H 0.25631 0.22672 0.78471 0.0
C2878 C 0.19928 0.15399 0.80849 0.0
C2879 C 0.19767 0.13788 0.82528 0.0
C2880 C 0.21561 0.1388 0.84399 0.0
C2881 C 0.23477 0.156 0.8464 0.0
C2882 C 0.23581 0.17174 0.82962 0.0
C2883 C 0.21868 0.1706 0.81075 0.0
C2884 C 0.22428 0.18886 0.79448 0.0
C2885 C 0.22392 0.17694 0.76805 0.0
C2886 C 0.20911 0.20629 0.79477 0.0
C2887 C 0.24709 0.20079 0.80741 0.0
C2888 C 0.25336 0.19083 0.82779 0.0
C2889 C 0.27344 0.19951 0.84319 0.0
C2890 C 0.28745 0.21885 0.83758 0.0
C2891 C 0.28142 0.22909 0.81661 0.0
C2892 C 0.26111 0.21967 0.8012 0.0
H2893 H 0.39015 0.94032 0.26027 0.0
H2894 H 0.35687 0.98525 0.30147 0.0
H2895 H 0.33311 0.94959 0.31006 0.0
H2896 H 0.3415 0.89352 0.23259 0.0
H2897 H 0.35589 0.86999 0.23429 0.0
H2898 H 0.3699 0.8989 0.23093 0.0
H2899 H 0.398 0.89984 0.26992 0.0
H2900 H 0.38391 0.87099 0.27334 0.0
H2901 H 0.38889 0.89539 0.29839 0.0
H2902 H 0.31422 0.90783 0.31693 0.0
H2903 H 0.30009 0.86559 0.31782 0.0
H2904 H 0.34331 0.84652 0.26961 0.0
C2905 C 0.37771 0.94278 0.27089 0.0
C2906 C 0.37565 0.96618 0.2801 0.0
C2907 C 0.35898 0.96799 0.29393 0.0
C2908 C 0.34538 0.94762 0.29904 0.0
C2909 C 0.34808 0.92501 0.28998 0.0
C2910 C 0.36365 0.9225 0.27578 0.0
C2911 C 0.36304 0.89616 0.26795 0.0
C2912 C 0.35724 0.88925 0.23975 0.0
C2913 C 0.38475 0.89025 0.278 0.0
C2914 C 0.34492 0.88415 0.28014 0.0
C2915 C 0.33667 0.90119 0.29299 0.0
C2916 C 0.32052 0.89453 0.30663 0.0
C2917 C 0.31256 0.87025 0.3071 0.0
C2918 C 0.32023 0.85213 0.29374 0.0
C2919 C 0.33672 0.85954 0.27993 0.0
H2920 H 0.57234 0.36043 0.5888 0.0
H2921 H 0.59272 0.39183 0.66608 0.0
H2922 H 0.59003 0.43078 0.65557 0.0
H2923 H 0.60084 0.41163 0.56481 0.0
H2924 H 0.57964 0.4085 0.53848 0.0
H2925 H 0.58424 0.38287 0.55153 0.0
H2926 H 0.54414 0.37301 0.55685 0.0
H2927 H 0.53948 0.39862 0.54389 0.0
H2928 H 0.5334 0.39501 0.57391 0.0
H2929 H 0.58364 0.46614 0.63777 0.0
H2930 H 0.57367 0.49589 0.61333 0.0
H2931 H 0.55759 0.44348 0.54693 0.0
C2932 C 0.57641 0.37555 0.60346 0.0
C2933 C 0.58278 0.37284 0.62836 0.0
C2934 C 0.58781 0.39319 0.64691 0.0
C2935 C 0.58637 0.41553 0.64113 0.0
C2936 C 0.57992 0.41758 0.61661 0.0
C2937 C 0.57506 0.39824 0.59798 0.0
C2938 C 0.56803 0.40562 0.57321 0.0
C2939 C 0.58414 0.40193 0.55599 0.0
C2940 C 0.54489 0.39227 0.56126 0.0
C2941 C 0.56907 0.43186 0.58104 0.0
C2942 C 0.57629 0.43832 0.60616 0.0
C2943 C 0.57832 0.46136 0.61802 0.0
C2944 C 0.57287 0.47827 0.60392 0.0
C2945 C 0.56556 0.47235 0.57814 0.0
C2946 C 0.56345 0.44867 0.56658 0.0
H2947 H 0.44882 0.75851 0.35253 0.0
H2948 H 0.43994 0.76769 0.42856 0.0
H2949 H 0.40154 0.7691 0.41471 0.0
H2950 H 0.41577 0.79595 0.33053 0.0
H2951 H 0.40463 0.77721 0.3012 0.0
H2952 H 0.43114 0.77653 0.31711 0.0
H2953 H 0.41925 0.73138 0.31578 0.0
H2954 H 0.39277 0.73188 0.29959 0.0
H2955 H 0.39551 0.71989 0.32786 0.0
H2956 H 0.36462 0.7735 0.39197 0.0
H2957 H 0.33155 0.77412 0.3624 0.0
H2958 H 0.36402 0.75807 0.30155 0.0
C2959 C 0.43872 0.76054 0.36625 0.0
C2960 C 0.44737 0.76304 0.39164 0.0
C2961 C 0.43361 0.76556 0.40901 0.0
C2962 C 0.41182 0.76655 0.40131 0.0
C2963 C 0.4039 0.76449 0.37612 0.0
C2964 C 0.41686 0.76096 0.35885 0.0
C2965 C 0.40442 0.75858 0.33287 0.0
C2966 C 0.4146 0.77824 0.31966 0.0
C2967 C 0.40289 0.73397 0.31816 0.0
C2968 C 0.38252 0.7617 0.33813 0.0
C2969 C 0.38255 0.76546 0.36318 0.0
C2970 C 0.36438 0.77016 0.37233 0.0
C2971 C 0.34568 0.77059 0.35545 0.0
C2972 C 0.34515 0.76584 0.32976 0.0
C2973 C 0.36387 0.76141 0.32113 0.0
H2974 H 0.0486 0.70502 0.14058 0.0
H2975 H 0.0831 0.74054 0.09003 0.0
H2976 H 0.08206 0.70168 0.06532 0.0
H2977 H 0.07359 0.65721 0.14121 0.0
H2978 H 0.0496 0.63546 0.14173 0.0
H2979 H 0.0517 0.66594 0.15434 0.0
H2980 H 0.01598 0.66632 0.12551 0.0
H2981 H 0.01357 0.6357 0.11305 0.0
H2982 H 0.01322 0.65728 0.09274 0.0
H2983 H 0.08123 0.6583 0.04943 0.0
H2984 H 0.07583 0.61473 0.04002 0.0
H2985 H 0.03918 0.60788 0.09901 0.0
C2986 C 0.05552 0.70463 0.12399 0.0
C2987 C 0.06589 0.72581 0.11716 0.0
C2988 C 0.07484 0.72457 0.09541 0.0
C2989 C 0.07446 0.70256 0.08139 0.0
C2990 C 0.06463 0.68196 0.08906 0.0
C2991 C 0.05481 0.68288 0.10951 0.0
C2992 C 0.04532 0.65828 0.11393 0.0
C2993 C 0.05568 0.65398 0.1393 0.0
C2994 C 0.02055 0.65416 0.11113 0.0
C2995 C 0.05185 0.64328 0.09322 0.0
C2996 C 0.06315 0.65723 0.07918 0.0
C2997 C 0.07205 0.64727 0.06004 0.0
C2998 C 0.06904 0.62251 0.05493 0.0
C2999 C 0.05694 0.6079 0.06863 0.0
C3000 C 0.04824 0.61855 0.08798 0.0
H3001 H 0.07028 0.26128 0.87797 0.0
H3002 H 0.10204 0.26997 0.9543 0.0
H3003 H 0.13739 0.27258 0.94114 0.0
H3004 H 0.10482 0.22616 0.85161 0.0
H3005 H 0.10514 0.24015 0.82464 0.0
H3006 H 0.0821 0.23809 0.83984 0.0
H3007 H 0.08619 0.28347 0.84456 0.0
H3008 H 0.10921 0.28565 0.82933 0.0
H3009 H 0.11173 0.30257 0.85952 0.0
H3010 H 0.16941 0.27408 0.91985 0.0
H3011 H 0.19599 0.27595 0.89216 0.0
H3012 H 0.14408 0.26863 0.82955 0.0
C3013 C 0.08466 0.26357 0.89189 0.0
C3014 C 0.08331 0.2653 0.91721 0.0
C3015 C 0.10259 0.26858 0.93482 0.0
C3016 C 0.12278 0.27004 0.92752 0.0
C3017 C 0.12358 0.26837 0.90249 0.0
C3018 C 0.10507 0.26532 0.88491 0.0
C3019 C 0.11061 0.26483 0.85928 0.0
C3020 C 0.10004 0.24088 0.84288 0.0
C3021 C 0.10405 0.28535 0.84749 0.0
C3022 C 0.13509 0.2681 0.86523 0.0
C3023 C 0.14218 0.26993 0.89025 0.0
C3024 C 0.16405 0.27286 0.90022 0.0
C3025 C 0.1791 0.2741 0.88428 0.0
C3026 C 0.17239 0.27269 0.8585 0.0
C3027 C 0.14994 0.26954 0.84902 0.0
H3028 H 0.51921 0.75446 0.95067 0.0
H3029 H 0.50839 0.71998 0.87454 0.0
H3030 H 0.50536 0.68118 0.88833 0.0
H3031 H 0.55306 0.72133 0.97441 0.0
H3032 H 0.54329 0.71997 1.003 0.0
H3033 H 0.54085 0.74439 0.98705 0.0
H3034 H 0.49943 0.7356 0.98605 0.0
H3035 H 0.50176 0.71118 1.00223 0.0
H3036 H 0.48339 0.70647 0.97318 0.0
H3037 H 0.50879 0.64696 0.91083 0.0
H3038 H 0.51805 0.62047 0.94006 0.0
H3039 H 0.52578 0.67752 1.00118 0.0
C3040 C 0.51564 0.73871 0.93683 0.0
C3041 C 0.51401 0.74021 0.91155 0.0
C3042 C 0.5096 0.71922 0.89403 0.0
C3043 C 0.50781 0.6971 0.90168 0.0
C3044 C 0.51018 0.69631 0.92685 0.0
C3045 C 0.51376 0.71658 0.94414 0.0
C3046 C 0.51767 0.71131 0.97012 0.0
C3047 C 0.54004 0.72506 0.98447 0.0
C3048 C 0.49947 0.71644 0.98369 0.0
C3049 C 0.51678 0.68511 0.96479 0.0
C3050 C 0.51208 0.67664 0.93977 0.0
C3051 C 0.51205 0.65329 0.93048 0.0
C3052 C 0.51729 0.63837 0.94721 0.0
C3053 C 0.52267 0.64697 0.97288 0.0
C3054 C 0.52187 0.67048 0.98165 0.0
H3055 H 0.14178 0.79409 0.72493 0.0
H3056 H 0.11663 0.73358 0.75761 0.0
H3057 H 0.15352 0.72671 0.76811 0.0
H3058 H 0.18319 0.77229 0.6996 0.0
H3059 H 0.20291 0.79987 0.70781 0.0
H3060 H 0.17444 0.79988 0.70216 0.0
H3061 H 0.17825 0.82475 0.74542 0.0
H3062 H 0.2068 0.82534 0.75087 0.0
H3063 H 0.19039 0.81455 0.77227 0.0
H3064 H 0.19275 0.72519 0.77296 0.0
H3065 H 0.23271 0.73425 0.78043 0.0
H3066 H 0.23255 0.79749 0.74746 0.0
C3067 C 0.14413 0.77954 0.7345 0.0
C3068 C 0.12644 0.76421 0.74027 0.0
C3069 C 0.13 0.74551 0.75303 0.0
C3070 C 0.15085 0.74134 0.75885 0.0
C3071 C 0.16791 0.75636 0.75223 0.0
C3072 C 0.16489 0.77553 0.74106 0.0
C3073 C 0.18616 0.79 0.73761 0.0
C3074 C 0.18669 0.79053 0.71016 0.0
C3075 C 0.19066 0.81514 0.75243 0.0
C3076 C 0.20157 0.7758 0.74833 0.0
C3077 C 0.19068 0.7562 0.75621 0.0
C3078 C 0.2015 0.74052 0.76696 0.0
C3079 C 0.22417 0.74566 0.77087 0.0
C3080 C 0.23562 0.76652 0.76443 0.0
C3081 C 0.22414 0.78134 0.75238 0.0
H3082 H 0.02819 0.40931 0.41623 0.0
H3083 H 0.03028 0.34962 0.45477 0.0
H3084 H 0.0243 0.37307 0.49229 0.0
H3085 H 0.05652 0.4537 0.46586 0.0
H3086 H 0.04046 0.47477 0.45827 0.0
H3087 H 0.04374 0.45261 0.43441 0.0
H3088 H 1.00191 0.43903 0.42215 0.0
H3089 H 0.99862 0.46087 0.44648 0.0
H3090 H 0.98626 0.43018 0.445 0.0
H3091 H 0.02138 0.40413 0.52656 0.0
H3092 H 0.02394 0.44119 0.55511 0.0
H3093 H 0.02099 0.47907 0.49311 0.0
C3094 C 0.02739 0.40115 0.43254 0.0
C3095 C 0.02975 0.37769 0.43261 0.0
C3096 C 0.0285 0.36761 0.45431 0.0
C3097 C 0.02497 0.38071 0.47566 0.0
C3098 C 0.02242 0.40371 0.47488 0.0
C3099 C 0.02363 0.41385 0.45389 0.0
C3100 C 0.02141 0.43923 0.45816 0.0
C3101 C 0.04174 0.45605 0.45394 0.0
C3102 C 1.00082 0.4425 0.44199 0.0
C3103 C 0.01946 0.44198 0.48505 0.0
C3104 C 0.01988 0.42129 0.49438 0.0
C3105 C 0.02061 0.42034 0.51941 0.0
C3106 C 0.02194 0.44139 0.53547 0.0
C3107 C 0.02252 0.46287 0.52626 0.0
C3108 C 0.02018 0.46283 0.50064 0.0
H3109 H 0.4914 0.22835 0.23442 0.0
H3110 H 0.52685 0.21795 0.3036 0.0
H3111 H 0.49628 0.2246 0.32402 0.0
H3112 H 0.47394 0.27562 0.25755 0.0
H3113 H 0.44774 0.26863 0.23772 0.0
H3114 H 0.4698 0.25772 0.22756 0.0
H3115 H 0.44717 0.21471 0.22021 0.0
H3116 H 0.42484 0.22557 0.2301 0.0
H3117 H 0.43538 0.20348 0.24489 0.0
H3118 H 0.46393 0.23856 0.33787 0.0
H3119 H 0.43321 0.25749 0.34343 0.0
H3120 H 0.42151 0.261 0.26523 0.0
C3121 C 0.49253 0.22673 0.25372 0.0
C3122 C 0.5115 0.22263 0.26742 0.0
C3123 C 0.51238 0.22086 0.29268 0.0
C3124 C 0.49509 0.22464 0.30443 0.0
C3125 C 0.47704 0.22986 0.29055 0.0
C3126 C 0.4756 0.23056 0.26562 0.0
C3127 C 0.45589 0.23919 0.25525 0.0
C3128 C 0.46224 0.26162 0.24388 0.0
C3129 C 0.43987 0.21956 0.2365 0.0
C3130 C 0.447 0.24445 0.27844 0.0
C3131 C 0.45899 0.23846 0.29855 0.0
C3132 C 0.4543 0.24303 0.32215 0.0
C3133 C 0.43699 0.25406 0.32518 0.0
C3134 C 0.42483 0.26074 0.30477 0.0
C3135 C 0.43 0.25564 0.28117 0.0
H3136 H 0.60081 0.58143 0.4017 0.0
H3137 H 0.64012 0.52965 0.39019 0.0
H3138 H 0.63265 0.51544 0.42855 0.0
H3139 H 0.61659 0.59446 0.4696 0.0
H3140 H 0.58987 0.59766 0.47378 0.0
H3141 H 0.59964 0.60494 0.44643 0.0
H3142 H 0.56606 0.57592 0.41924 0.0
H3143 H 0.55623 0.56866 0.44649 0.0
H3144 H 0.56007 0.54557 0.42385 0.0
H3145 H 0.61746 0.50384 0.46561 0.0
H3146 H 0.59673 0.49692 0.49907 0.0
H3147 H 0.56933 0.55778 0.48808 0.0
C3148 C 0.60809 0.5673 0.40738 0.0
C3149 C 0.62106 0.55666 0.39284 0.0
C3150 C 0.63021 0.53818 0.40099 0.0
C3151 C 0.62607 0.52998 0.4228 0.0
C3152 C 0.61302 0.54067 0.43653 0.0
C3153 C 0.60435 0.55911 0.42927 0.0
C3154 C 0.59019 0.56697 0.44682 0.0
C3155 C 0.59964 0.59253 0.45993 0.0
C3156 C 0.56676 0.56409 0.43329 0.0
C3157 C 0.59172 0.54963 0.46468 0.0
C3158 C 0.60501 0.53462 0.45846 0.0
C3159 C 0.6074 0.51581 0.47095 0.0
C3160 C 0.59562 0.51201 0.48993 0.0
C3161 C 0.58188 0.52711 0.49645 0.0
C3162 C 0.58028 0.54642 0.48397 0.0
H3163 H 0.29322 0.8439 0.06004 0.0
H3164 H 0.31819 0.91684 0.09506 0.0
H3165 H 0.34259 0.90397 0.12681 0.0
H3166 H 0.28724 0.82193 0.11045 0.0
H3167 H 0.29486 0.79428 0.10198 0.0
H3168 H 0.28459 0.80947 0.07845 0.0
H3169 H 0.31922 0.80956 0.05959 0.0
H3170 H 0.32968 0.79437 0.08337 0.0
H3171 H 0.34546 0.82189 0.07859 0.0
H3172 H 0.35701 0.88324 0.15942 0.0
H3173 H 0.35882 0.85666 0.19028 0.0
H3174 H 0.32468 0.79719 0.13425 0.0
C3175 C 0.3044 0.85722 0.07388 0.0
C3176 C 0.30383 0.88131 0.07516 0.0
C3177 C 0.31842 0.89825 0.09372 0.0
C3178 C 0.33248 0.89111 0.11172 0.0
C3179 C 0.33195 0.86704 0.11062 0.0
C3180 C 0.31843 0.85035 0.09195 0.0
C3181 C 0.31808 0.82553 0.09705 0.0
C3182 C 0.29483 0.81205 0.09701 0.0
C3183 C 0.32875 0.81205 0.07855 0.0
C3184 C 0.33189 0.83091 0.12254 0.0
C3185 C 0.34043 0.85489 0.1297 0.0
C3186 C 0.35097 0.86439 0.15379 0.0
C3187 C 0.35184 0.84921 0.17124 0.0
C3188 C 0.34197 0.82491 0.16454 0.0
C3189 C 0.33294 0.81556 0.13966 0.0
H3190 H 0.98411 0.52283 0.85857 0.0
H3191 H 0.9397 0.5668 0.87707 0.0
H3192 H 0.95509 0.56972 0.92159 0.0
H3193 H 0.98169 0.49024 0.90884 0.0
H3194 H 1.00987 0.48885 0.91285 0.0
H3195 H 0.99553 0.49085 0.88299 0.0
H3196 H 0.02413 0.52809 0.88113 0.0
H3197 H 0.0386 0.52616 0.91096 0.0
H3198 H 0.02999 0.55297 0.90578 0.0
H3199 H 0.9767 0.5668 0.96648 0.0
H3200 H 1.00067 0.55933 1.00288 0.0
H3201 H 0.03046 0.5171 0.95418 0.0
C3202 C 0.97747 0.53325 0.87178 0.0
C3203 C 0.9604 0.54467 0.86354 0.0
C3204 C 0.95265 0.55792 0.88221 0.0
C3205 C 0.96138 0.5596 0.90779 0.0
C3206 C 0.97808 0.54796 0.91504 0.0
C3207 C 0.98598 0.53507 0.89728 0.0
C3208 C 1.00386 0.52399 0.9093 0.0
C3209 C 0.99734 0.49688 0.90312 0.0
C3210 C 0.02542 0.53336 0.90132 0.0
C3211 C 1.00501 0.53248 0.93672 0.0
C3212 C 0.99004 0.54632 0.93985 0.0
C3213 C 0.98837 0.556 0.9638 0.0
C3214 C 1.00215 0.55162 0.98461 0.0
C3215 C 0.01775 0.53757 0.98192 0.0
C3216 C 0.01888 0.52792 0.95733 0.0
H3217 H 0.25125 0.18666 0.61722 0.0
H3218 H 0.30288 0.22737 0.58822 0.0
H3219 H 0.31408 0.25482 0.6281 0.0
H3220 H 0.23783 0.23737 0.65301 0.0
H3221 H 0.23188 0.22134 0.67756 0.0
H3222 H 0.22756 0.20584 0.64643 0.0
H3223 H 0.25219 0.17811 0.66103 0.0
H3224 H 0.25669 0.1936 0.69213 0.0
H3225 H 0.27942 0.1907 0.67734 0.0
H3226 H 0.32177 0.27515 0.67294 0.0
H3227 H 0.32307 0.28907 0.71723 0.0
H3228 H 0.26475 0.23646 0.7155 0.0
C3229 C 0.26479 0.2015 0.61915 0.0
C3230 C 0.27629 0.20485 0.59967 0.0
C3231 C 0.2938 0.22455 0.60286 0.0
C3232 C 0.3003 0.24016 0.62547 0.0
C3233 C 0.28883 0.23604 0.64447 0.0
C3234 C 0.27119 0.21741 0.64133 0.0
C3235 C 0.26161 0.21666 0.66454 0.0
C3236 C 0.23834 0.22054 0.66011 0.0
C3237 C 0.26255 0.19339 0.67433 0.0
C3238 C 0.2769 0.23747 0.68153 0.0
C3239 C 0.29259 0.24836 0.6697 0.0
C3240 C 0.30934 0.26701 0.68222 0.0
C3241 C 0.31 0.27472 0.70738 0.0
C3242 C 0.29386 0.26402 0.71968 0.0
C3243 C 0.27705 0.24529 0.70645 0.0
H3244 H 0.63294 0.57463 0.22868 0.0
H3245 H 0.58502 0.5261 0.2554 0.0
H3246 H 0.56364 0.5142 0.21315 0.0
H3247 H 0.59407 0.5934 0.18434 0.0
H3248 H 0.61158 0.59571 0.16191 0.0
H3249 H 0.62306 0.60059 0.19428 0.0
H3250 H 0.645 0.5684 0.18626 0.0
H3251 H 0.63354 0.56338 0.1539 0.0
H3252 H 0.631 0.53914 0.17096 0.0
H3253 H 0.54901 0.50533 0.16773 0.0
H3254 H 0.54011 0.50264 0.12262 0.0
H3255 H 0.5958 0.55915 0.12526 0.0
C3256 C 0.61789 0.56157 0.22563 0.0
C3257 C 0.61068 0.55118 0.24532 0.0
C3258 C 0.59083 0.53431 0.24063 0.0
C3259 C 0.57861 0.52741 0.21668 0.0
C3260 C 0.58626 0.53783 0.19766 0.0
C3261 C 0.60527 0.5548 0.20189 0.0
C3262 C 0.60966 0.56343 0.17818 0.0
C3263 C 0.60958 0.58985 0.17978 0.0
C3264 C 0.63107 0.55827 0.17196 0.0
C3265 C 0.59034 0.54835 0.1599 0.0
C3266 C 0.57717 0.53358 0.17156 0.0
C3267 C 0.55901 0.51706 0.15847 0.0
C3268 C 0.55412 0.51563 0.13282 0.0
C3269 C 0.5671 0.53087 0.12047 0.0
C3270 C 0.58538 0.54756 0.13427 0.0
H3271 H 0.2541 0.84239 0.96571 0.0
H3272 H 0.20391 0.86819 0.92242 0.0
H3273 H 0.21007 0.84537 0.88458 0.0
H3274 H 0.28989 0.84954 0.92724 0.0
H3275 H 0.30054 0.82364 0.93123 0.0
H3276 H 0.28919 0.83745 0.95537 0.0
H3277 H 0.26228 0.79807 0.95487 0.0
H3278 H 0.27385 0.7839 0.931 0.0
H3279 H 0.24515 0.78275 0.9263 0.0
H3280 H 0.22544 0.82492 0.85126 0.0
H3281 H 0.24781 0.8069 0.82511 0.0
H3282 H 0.28899 0.79625 0.89025 0.0
C3283 C 0.24384 0.84264 0.94841 0.0
C3284 C 0.22847 0.85705 0.94705 0.0
C3285 C 0.21568 0.85717 0.92395 0.0
C3286 C 0.21907 0.84426 0.90236 0.0
C3287 C 0.23516 0.83122 0.90427 0.0
C3288 C 0.24714 0.83006 0.92676 0.0
C3289 C 0.26507 0.81703 0.92371 0.0
C3290 C 0.28748 0.83287 0.93505 0.0
C3291 C 0.26136 0.79407 0.93461 0.0
C3292 C 0.26193 0.81194 0.89593 0.0
C3293 C 0.24438 0.81991 0.88505 0.0
C3294 C 0.23906 0.81841 0.8596 0.0
C3295 C 0.25204 0.80852 0.84494 0.0
C3296 C 0.27029 0.80071 0.85581 0.0
C3297 C 0.27508 0.80211 0.88156 0.0
H3298 H 0.92731 0.54136 0.68125 0.0
H3299 H 0.98046 0.54377 0.74083 0.0
H3300 H 1.0045 0.54 0.71077 0.0
H3301 H 0.94272 0.4987 0.63575 0.0
H3302 H 0.93573 0.51277 0.60962 0.0
H3303 H 0.92187 0.5155 0.63537 0.0
H3304 H 0.93243 0.56092 0.63996 0.0
H3305 H 0.94631 0.55827 0.61421 0.0
H3306 H 0.96053 0.57533 0.64348 0.0
H3307 H 0.02376 0.53559 0.67478 0.0
H3308 H 0.03725 0.53179 0.63616 0.0
H3309 H 0.97371 0.53257 0.59578 0.0
C3310 C 0.94401 0.54108 0.68803 0.0
C3311 C 0.95158 0.54291 0.7142 0.0
C3312 C 0.97376 0.54248 0.7215 0.0
C3313 C 0.98775 0.54029 0.70431 0.0
C3314 C 0.97991 0.53855 0.67908 0.0
C3315 C 0.95856 0.53899 0.67076 0.0
C3316 C 0.95486 0.53704 0.64228 0.0
C3317 C 0.93777 0.51467 0.63002 0.0
C3318 C 0.94812 0.55921 0.63452 0.0
C3319 C 0.97735 0.53535 0.63605 0.0
C3320 C 0.99134 0.53624 0.65788 0.0
C3321 C 0.01283 0.53491 0.6577 0.0
C3322 C 0.02041 0.53267 0.63514 0.0
C3323 C 1.00701 0.53173 0.61188 0.0
C3324 C 0.98483 0.53318 0.6127 0.0
H3325 H 0.28102 0.23481 0.46428 0.0
H3326 H 0.25397 0.16388 0.42392 0.0
H3327 H 0.25501 0.17887 0.38474 0.0
H3328 H 0.25339 0.26609 0.42074 0.0
H3329 H 0.27638 0.29029 0.42408 0.0
H3330 H 0.27257 0.27452 0.44936 0.0
H3331 H 0.31087 0.26577 0.45127 0.0
H3332 H 0.31482 0.28159 0.42609 0.0
H3333 H 0.31793 0.25145 0.42389 0.0
H3334 H 0.2598 0.20059 0.34997 0.0
H3335 H 0.26993 0.22759 0.32134 0.0
H3336 H 0.29444 0.28525 0.38281 0.0
C3337 C 0.27518 0.2225 0.44717 0.0
C3338 C 0.26732 0.1981 0.44727 0.0
C3339 C 0.26007 0.18258 0.42445 0.0
C3340 C 0.26051 0.19095 0.40202 0.0
C3341 C 0.26834 0.21496 0.40253 0.0
C3342 C 0.27568 0.23057 0.42443 0.0
C3343 C 0.28423 0.25536 0.41948 0.0
C3344 C 0.27084 0.27258 0.42898 0.0
C3345 C 0.3084 0.26405 0.43086 0.0
C3346 C 0.28071 0.2511 0.39143 0.0
C3347 C 0.27132 0.22766 0.38216 0.0
C3348 C 0.26699 0.21903 0.35699 0.0
C3349 C 0.27271 0.2346 0.34081 0.0
C3350 C 0.28272 0.25866 0.34968 0.0
C3351 C 0.28653 0.26706 0.3754 0.0
H3352 H 0.38792 0.61478 0.56778 0.0
H3353 H 0.39391 0.58668 0.63646 0.0
H3354 H 0.40689 0.55342 0.61653 0.0
H3355 H 0.36888 0.55997 0.52754 0.0
H3356 H 0.3841 0.56801 0.50409 0.0
H3357 H 0.37598 0.59046 0.52368 0.0
H3358 H 0.41589 0.61343 0.5371 0.0
H3359 H 0.42406 0.59134 0.51711 0.0
H3360 H 0.43618 0.5984 0.54935 0.0
H3361 H 0.41719 0.52241 0.58923 0.0
H3362 H 0.43078 0.4987 0.55806 0.0
H3363 H 0.4175 0.54594 0.50622 0.0
C3364 C 0.39228 0.60185 0.57875 0.0
C3365 C 0.38976 0.60329 0.60366 0.0
C3366 C 0.39563 0.58595 0.61733 0.0
C3367 C 0.40288 0.56688 0.60615 0.0
C3368 C 0.40429 0.56548 0.58135 0.0
C3369 C 0.39963 0.58269 0.5679 0.0
C3370 C 0.403 0.57703 0.5416 0.0
C3371 C 0.38172 0.57367 0.52314 0.0
C3372 C 0.42084 0.59619 0.53597 0.0
C3373 C 0.4102 0.55391 0.54244 0.0
C3374 C 0.41057 0.54752 0.56549 0.0
C3375 C 0.417 0.52718 0.57107 0.0
C3376 C 0.42437 0.51357 0.55298 0.0
C3377 C 0.42507 0.52023 0.52944 0.0
C3378 C 0.41725 0.54035 0.52398 0.0
H3379 H 0.88186 0.96542 0.53457 0.0
H3380 H 0.89697 0.9283 0.59537 0.0
H3381 H 0.93612 0.94497 0.59782 0.0
H3382 H 0.92752 0.95778 0.50567 0.0
H3383 H 0.93088 0.98654 0.49659 0.0
H3384 H 0.90444 0.97095 0.49939 0.0
H3385 H 0.9007 1.00674 0.52996 0.0
H3386 H 0.92708 0.02243 0.52724 0.0
H3387 H 0.92123 0.01801 0.55717 0.0
H3388 H 0.97408 0.968 0.59438 0.0
H3389 H 1.00619 0.99443 0.58535 0.0
H3390 H 0.96515 0.01488 0.52621 0.0
C3391 C 0.89331 0.96064 0.54843 0.0
C3392 C 0.88624 0.94557 0.56488 0.0
C3393 C 0.90193 0.93978 0.58257 0.0
C3394 C 0.92421 0.94918 0.58407 0.0
C3395 C 0.93052 0.96414 0.5676 0.0
C3396 C 0.91542 0.96967 0.55005 0.0
C3397 C 0.92601 0.98637 0.53467 0.0
C3398 C 0.92198 0.97471 0.50747 0.0
C3399 C 0.9183 1.00977 0.53744 0.0
C3400 C 0.94952 0.98984 0.5465 0.0
C3401 C 0.95194 0.97683 0.56539 0.0
C3402 C 0.97229 0.97798 0.57942 0.0
C3403 C 0.99046 0.9929 0.57407 0.0
C3404 C 0.98817 1.00634 0.55481 0.0
C3405 C 0.96742 1.00462 0.54088 0.0
H3406 H 0.89235 0.05962 0.24346 0.0
H3407 H 0.94953 0.09061 0.29928 0.0
H3408 H 0.93536 0.12671 0.30773 0.0
H3409 H 0.88689 0.11534 0.22084 0.0
H3410 H 0.85774 0.10735 0.2154 0.0
H3411 H 0.87315 0.0847 0.21265 0.0
H3412 H 0.8538 0.06416 0.24426 0.0
H3413 H 0.83845 0.08678 0.24722 0.0
H3414 H 0.85455 0.08072 0.27419 0.0
H3415 H 0.91301 0.15744 0.31319 0.0
H3416 H 0.88537 0.18139 0.31364 0.0
H3417 H 0.84422 0.13187 0.25161 0.0
C3418 C 0.90201 0.07413 0.25723 0.0
C3419 C 0.922 0.07233 0.27077 0.0
C3420 C 0.9342 0.09168 0.28863 0.0
C3421 C 0.92628 0.11224 0.29357 0.0
C3422 C 0.90634 0.11332 0.28016 0.0
C3423 C 0.89453 0.09492 0.26208 0.0
C3424 C 0.87335 0.10032 0.25069 0.0
C3425 C 0.87276 0.10203 0.22327 0.0
C3426 C 0.8539 0.0819 0.25432 0.0
C3427 C 0.87474 0.12422 0.26581 0.0
C3428 C 0.8939 0.13146 0.28264 0.0
C3429 C 0.89814 0.1522 0.29971 0.0
C3430 C 0.88232 0.16581 0.29969 0.0
C3431 C 0.86248 0.15875 0.28259 0.0
C3432 C 0.85899 0.13781 0.26518 0.0
H3433 H 0.76813 0.11447 0.14328 0.0
H3434 H 0.76824 0.14785 0.07815 0.0
H3435 H 0.73244 0.12251 0.05938 0.0
H3436 H 0.74123 0.05603 0.11394 0.0
H3437 H 0.72476 0.0504 0.13693 0.0
H3438 H 0.75072 0.07068 0.1454 0.0
H3439 H 0.73277 0.10373 0.16297 0.0
H3440 H 0.70684 0.08339 0.15505 0.0
H3441 H 0.71053 0.11113 0.14374 0.0
H3442 H 0.69865 0.09172 0.04641 0.0
H3443 H 0.66428 0.06319 0.04307 0.0
H3444 H 0.68355 0.05313 0.11865 0.0
C3445 C 0.76039 0.11652 0.12521 0.0
C3446 C 0.77068 0.13299 0.11206 0.0
C3447 C 0.76031 0.13543 0.08851 0.0
C3448 C 0.74017 0.12098 0.07762 0.0
C3449 C 0.73054 0.10457 0.09081 0.0
C3450 C 0.73992 0.10272 0.11435 0.0
C3451 C 0.72529 0.08469 0.12502 0.0
C3452 C 0.73616 0.06424 0.13065 0.0
C3453 C 0.71845 0.09644 0.14805 0.0
C3454 C 0.70639 0.07658 0.10365 0.0
C3455 C 0.71005 0.08793 0.08395 0.0
C3456 C 0.69532 0.08306 0.06187 0.0
C3457 C 0.67581 0.06689 0.06023 0.0
C3458 C 0.6709 0.05632 0.0808 0.0
C3459 C 0.68674 0.06078 0.10255 0.0
H3460 H 0.18703 0.40755 0.29508 0.0
H3461 H 0.24237 0.46672 0.31343 0.0
H3462 H 0.26683 0.43903 0.31405 0.0
H3463 H 0.2115 0.36848 0.33297 0.0
H3464 H 0.20058 0.34153 0.31135 0.0
H3465 H 0.18625 0.36521 0.31206 0.0
H3466 H 0.18629 0.36589 0.26603 0.0
H3467 H 0.20023 0.34188 0.26487 0.0
H3468 H 0.2115 0.36894 0.25484 0.0
H3469 H 0.28682 0.40459 0.31319 0.0
H3470 H 0.29987 0.36761 0.30986 0.0
H3471 H 0.23346 0.32759 0.29084 0.0
C3472 C 0.2043 0.4148 0.29927 0.0
C3473 C 0.21224 0.44025 0.30428 0.0
C3474 C 0.23522 0.44798 0.30952 0.0
C3475 C 0.24951 0.43209 0.30994 0.0
C3476 C 0.24131 0.40758 0.305 0.0
C3477 C 0.21915 0.39881 0.29968 0.0
C3478 C 0.215 0.37136 0.29489 0.0
C3479 C 0.20258 0.36104 0.31394 0.0
C3480 C 0.2025 0.36143 0.26859 0.0
C3481 C 0.23811 0.36622 0.29813 0.0
C3482 C 0.25292 0.3876 0.30417 0.0
C3483 C 0.27516 0.38791 0.30842 0.0
C3484 C 0.28255 0.36639 0.30649 0.0
C3485 C 0.26822 0.34374 0.30009 0.0
C3486 C 0.24536 0.34408 0.29583 0.0
H3487 H 0.27189 0.46515 0.07064 0.0
H3488 H 0.23914 0.39223 0.0673 0.0
H3489 H 0.20394 0.40385 0.06238 0.0
H3490 H 0.23578 0.49193 0.10452 0.0
H3491 H 0.23648 0.51633 0.08773 0.0
H3492 H 0.25938 0.50259 0.09182 0.0
H3493 H 0.25732 0.49489 0.04454 0.0
H3494 H 0.23443 0.50861 0.04032 0.0
H3495 H 0.23231 0.47895 0.02489 0.0
H3496 H 0.17215 0.42296 0.05746 0.0
H3497 H 0.14576 0.44826 0.05225 0.0
H3498 H 0.19838 0.50896 0.05718 0.0
C3499 C 0.25732 0.45168 0.06906 0.0
C3500 C 0.25837 0.42773 0.06944 0.0
C3501 C 0.23885 0.41065 0.06708 0.0
C3502 C 0.21872 0.41708 0.0643 0.0
C3503 C 0.21822 0.44072 0.06384 0.0
C3504 C 0.23695 0.45779 0.06612 0.0
C3505 C 0.23167 0.48186 0.06444 0.0
C3506 C 0.24141 0.4992 0.08857 0.0
C3507 C 0.23939 0.49165 0.04222 0.0
C3508 C 0.20708 0.47556 0.06071 0.0
C3509 C 0.19972 0.45174 0.06056 0.0
C3510 C 0.17772 0.44163 0.05742 0.0
C3511 C 0.1628 0.45619 0.05425 0.0
C3512 C 0.16979 0.4807 0.05403 0.0
C3513 C 0.19236 0.4904 0.05745 0.0
H3514 H 0.91053 0.90455 0.27112 0.0
H3515 H 0.87499 0.95838 0.25408 0.0
H3516 H 0.84076 0.93087 0.25435 0.0
H3517 H 0.8702 0.85392 0.235 0.0
H3518 H 0.8742 0.83477 0.25734 0.0
H3519 H 0.89628 0.85794 0.25456 0.0
H3520 H 0.90109 0.87461 0.30093 0.0
H3521 H 0.87918 0.85133 0.30387 0.0
H3522 H 0.87826 0.88176 0.31327 0.0
H3523 H 0.81055 0.89834 0.25639 0.0
H3524 H 0.78572 0.86276 0.26267 0.0
H3525 H 0.84012 0.82992 0.2802 0.0
C3526 C 0.89551 0.91042 0.26722 0.0
C3527 C 0.89542 0.93361 0.26249 0.0
C3528 C 0.87547 0.94076 0.25781 0.0
C3529 C 0.85592 0.92523 0.25782 0.0
C3530 C 0.85654 0.90263 0.26272 0.0
C3531 C 0.87575 0.89517 0.26748 0.0
C3532 C 0.87171 0.87017 0.27323 0.0
C3533 C 0.8785 0.85321 0.25387 0.0
C3534 C 0.88324 0.86945 0.29939 0.0
C3535 C 0.8473 0.86503 0.2713 0.0
C3536 C 0.83894 0.88392 0.26485 0.0
C3537 C 0.81687 0.88344 0.26155 0.0
C3538 C 0.80291 0.86315 0.26513 0.0
C3539 C 0.81108 0.84378 0.27233 0.0
C3540 C 0.83354 0.84468 0.27531 0.0
H3541 H 0.69185 0.09793 0.77617 0.0
H3542 H 0.72874 0.0814 0.84108 0.0
H3543 H 0.75388 0.1206 0.84673 0.0
H3544 H 0.73951 0.1286 0.75396 0.0
H3545 H 0.72563 0.14983 0.74182 0.0
H3546 H 0.71063 0.12074 0.74319 0.0
H3547 H 0.68557 0.13936 0.76832 0.0
H3548 H 0.70059 0.16849 0.7672 0.0
H3549 H 0.69725 0.15977 0.7965 0.0
H3550 H 0.77342 0.16478 0.84733 0.0
H3551 H 0.78818 0.2049 0.83942 0.0
H3552 H 0.74174 0.19156 0.77116 0.0
C3553 C 0.70538 0.10238 0.79146 0.0
C3554 C 0.70806 0.08606 0.8082 0.0
C3555 C 0.72616 0.09303 0.82782 0.0
C3556 C 0.74052 0.11554 0.83126 0.0
C3557 C 0.73721 0.1312 0.81462 0.0
C3558 C 0.72031 0.12456 0.7947 0.0
C3559 C 0.72075 0.14421 0.77887 0.0
C3560 C 0.72434 0.13531 0.75292 0.0
C3561 C 0.69979 0.1535 0.77765 0.0
C3562 C 0.74027 0.16318 0.79307 0.0
C3563 C 0.74931 0.15548 0.81392 0.0
C3564 C 0.76658 0.17054 0.83075 0.0
C3565 C 0.7749 0.19355 0.82612 0.0
C3566 C 0.76661 0.20176 0.80445 0.0
C3567 C 0.74894 0.18601 0.7877 0.0
loop_
_geom_bond_atom_site_label_1
_geom_bond_atom_site_label_2
_geom_bond_distance
_geom_bond_site_symmetry_2
_ccdc_geom_bond_type
C0 O1 1.306 . S
C0 O3 1.160 . S
O1 C0 1.306 . S
O1 Cd2 2.228 1_655 S
Cd2 O1 2.228 1_455 S
Cd2 O6 2.273 . S
Cd2 O10 2.277 . S
O3 C0 1.160 . S
O3 Cd4 2.203 1_655 S
Cd4 O3 2.203 1_455 S
Cd4 O6 2.411 . S
Cd4 O7 2.333 . S
Cd4 O8 2.352 1_455 S
Cd4 O12 2.277 . S
Cd4 O13 2.356 . S
C5 O10 1.209 . S
C5 O12 1.226 . S
O6 Cd2 2.273 . S
O6 Cd4 2.411 . S
O6 C9 1.320 . S
O7 Cd4 2.333 . S
O7 C9 1.214 . S
O8 Cd4 2.352 1_655 S
O8 C11 1.258 1_655 S
C9 O6 1.320 . S
C9 O7 1.214 . S
O10 Cd2 2.277 . S
O10 C5 1.209 . S
C11 O8 1.258 1_455 S
C11 O13 1.282 . S
O12 Cd4 2.277 . S
O12 C5 1.226 . S
O13 Cd4 2.356 . S
O13 C11 1.282 . S
C14 O15 1.306 . S
C14 O17 1.160 . S
O15 C14 1.306 . S
O15 Cd16 2.228 . S
Cd16 O15 2.228 . S
Cd16 O20 2.273 . S
Cd16 O24 2.277 . S
O17 C14 1.160 . S
O17 Cd18 2.203 . S
Cd18 O17 2.203 . S
Cd18 O20 2.411 . S
Cd18 O21 2.333 . S
Cd18 O22 2.352 . S
Cd18 O26 2.277 . S
Cd18 O27 2.356 . S
C19 O24 1.209 . S
C19 O26 1.226 . S
O20 Cd16 2.273 . S
O20 Cd18 2.411 . S
O20 C23 1.320 . S
O21 Cd18 2.333 . S
O21 C23 1.214 . S
O22 Cd18 2.352 . S
O22 C25 1.258 . S
C23 O20 1.320 . S
C23 O21 1.214 . S
O24 Cd16 2.277 . S
O24 C19 1.209 . S
C25 O22 1.258 . S
C25 O27 1.282 . S
O26 Cd18 2.277 . S
O26 C19 1.226 . S
O27 Cd18 2.356 . S
O27 C25 1.282 . S
C28 O29 1.306 . S
C28 O31 1.160 . S
O29 C28 1.306 . S
O29 Cd30 2.228 . S
Cd30 O29 2.228 . S
Cd30 O34 2.273 . S
Cd30 O38 2.277 . S
O31 C28 1.160 . S
O31 Cd32 2.203 . S
Cd32 O31 2.203 . S
Cd32 O34 2.411 . S
Cd32 O35 2.333 . S
Cd32 O36 2.352 . S
Cd32 O40 2.277 . S
Cd32 O41 2.356 . S
C33 O38 1.209 . S
C33 O40 1.226 . S
O34 Cd30 2.273 . S
O34 Cd32 2.411 . S
O34 C37 1.320 . S
O35 Cd32 2.333 . S
O35 C37 1.214 . S
O36 Cd32 2.352 . S
O36 C39 1.258 . S
C37 O34 1.320 . S
C37 O35 1.214 . S
O38 Cd30 2.277 . S
O38 C33 1.209 . S
C39 O36 1.258 . S
C39 O41 1.282 . S
O40 Cd32 2.277 . S
O40 C33 1.226 . S
O41 Cd32 2.356 . S
O41 C39 1.282 . S
C42 O43 1.306 . S
C42 O45 1.160 . S
O43 C42 1.306 . S
O43 Cd44 2.228 . S
Cd44 O43 2.228 . S
Cd44 O48 2.273 . S
Cd44 O52 2.277 . S
O45 C42 1.160 . S
O45 Cd46 2.203 . S
Cd46 O45 2.203 . S
Cd46 O48 2.411 . S
Cd46 O49 2.333 . S
Cd46 O50 2.352 . S
Cd46 O54 2.277 . S
Cd46 O55 2.356 . S
C47 O52 1.209 . S
C47 O54 1.226 . S
O48 Cd44 2.273 . S
O48 Cd46 2.411 . S
O48 C51 1.320 . S
O49 Cd46 2.333 . S
O49 C51 1.214 . S
O50 Cd46 2.352 . S
O50 C53 1.258 . S
C51 O48 1.320 . S
C51 O49 1.214 . S
O52 Cd44 2.277 . S
O52 C47 1.209 . S
C53 O50 1.258 . S
C53 O55 1.282 . S
O54 Cd46 2.277 . S
O54 C47 1.226 . S
O55 Cd46 2.356 . S
O55 C53 1.282 . S
C56 O57 1.306 . S
C56 O59 1.160 . S
O57 C56 1.306 . S
O57 Cd58 2.228 . S
Cd58 O57 2.228 . S
Cd58 O62 2.273 . S
Cd58 O66 2.277 . S
O59 C56 1.160 . S
O59 Cd60 2.203 . S
Cd60 O59 2.203 . S
Cd60 O62 2.411 . S
Cd60 O63 2.333 . S
Cd60 O64 2.352 . S
Cd60 O68 2.277 . S
Cd60 O69 2.356 . S
C61 O66 1.209 . S
C61 O68 1.226 . S
O62 Cd58 2.273 . S
O62 Cd60 2.411 . S
O62 C65 1.320 . S
O63 Cd60 2.333 . S
O63 C65 1.214 . S
O64 Cd60 2.352 . S
O64 C67 1.258 . S
C65 O62 1.320 . S
C65 O63 1.214 . S
O66 Cd58 2.277 . S
O66 C61 1.209 . S
C67 O64 1.258 . S
C67 O69 1.282 . S
O68 Cd60 2.277 . S
O68 C61 1.226 . S
O69 Cd60 2.356 . S
O69 C67 1.282 . S
C70 O71 1.306 . S
C70 O73 1.160 . S
O71 C70 1.306 . S
O71 Cd72 2.228 . S
Cd72 O71 2.228 . S
Cd72 O76 2.273 . S
Cd72 O80 2.277 . S
O73 C70 1.160 . S
O73 Cd74 2.203 . S
Cd74 O73 2.203 . S
Cd74 O76 2.411 . S
Cd74 O77 2.333 . S
Cd74 O78 2.352 . S
Cd74 O82 2.277 . S
Cd74 O83 2.356 . S
C75 O80 1.209 . S
C75 O82 1.226 . S
O76 Cd72 2.273 . S
O76 Cd74 2.411 . S
O76 C79 1.320 . S
O77 Cd74 2.333 . S
O77 C79 1.214 . S
O78 Cd74 2.352 . S
O78 C81 1.258 . S
C79 O76 1.320 . S
C79 O77 1.214 . S
O80 Cd72 2.277 . S
O80 C75 1.209 . S
C81 O78 1.258 . S
C81 O83 1.282 . S
O82 Cd74 2.277 . S
O82 C75 1.226 . S
O83 Cd74 2.356 . S
O83 C81 1.282 . S
C84 O85 1.306 . S
C84 O87 1.160 . S
O85 C84 1.306 . S
O85 Cd86 2.228 . S
Cd86 O85 2.228 . S
Cd86 O90 2.273 . S
Cd86 O94 2.277 . S
O87 C84 1.160 . S
O87 Cd88 2.203 . S
Cd88 O87 2.203 . S
Cd88 O90 2.411 . S
Cd88 O91 2.333 . S
Cd88 O92 2.352 . S
Cd88 O96 2.277 . S
Cd88 O97 2.356 . S
C89 O94 1.209 . S
C89 O96 1.226 . S
O90 Cd86 2.273 . S
O90 Cd88 2.411 . S
O90 C93 1.320 . S
O91 Cd88 2.333 . S
O91 C93 1.214 . S
O92 Cd88 2.352 . S
O92 C95 1.258 . S
C93 O90 1.320 . S
C93 O91 1.214 . S
O94 Cd86 2.277 . S
O94 C89 1.209 . S
C95 O92 1.258 . S
C95 O97 1.282 . S
O96 Cd88 2.277 . S
O96 C89 1.226 . S
O97 Cd88 2.356 . S
O97 C95 1.282 . S
C98 O99 1.306 . S
C98 O101 1.160 . S
O99 C98 1.306 . S
O99 Cd100 2.228 1_655 S
Cd100 O99 2.228 1_455 S
Cd100 O104 2.273 . S
Cd100 O108 2.277 . S
O101 C98 1.160 . S
O101 Cd102 2.203 1_655 S
Cd102 O101 2.203 1_455 S
Cd102 O104 2.411 . S
Cd102 O105 2.333 . S
Cd102 O106 2.352 . S
Cd102 O110 2.277 . S
Cd102 O111 2.356 . S
C103 O108 1.209 . S
C103 O110 1.226 . S
O104 Cd100 2.273 . S
O104 Cd102 2.411 . S
O104 C107 1.320 . S
O105 Cd102 2.333 . S
O105 C107 1.214 . S
O106 Cd102 2.352 . S
O106 C109 1.258 . S
C107 O104 1.320 . S
C107 O105 1.214 . S
O108 Cd100 2.277 . S
O108 C103 1.209 . S
C109 O106 1.258 . S
C109 O111 1.282 . S
O110 Cd102 2.277 . S
O110 C103 1.226 . S
O111 Cd102 2.356 . S
O111 C109 1.282 . S
C112 O113 1.306 . S
C112 O115 1.160 . S
O113 C112 1.306 . S
O113 Cd114 2.228 1_545 S
Cd114 O113 2.228 1_565 S
Cd114 O118 2.273 1_565 S
Cd114 O122 2.277 . S
O115 C112 1.160 . S
O115 Cd116 2.203 . S
Cd116 O115 2.203 . S
Cd116 O118 2.411 . S
Cd116 O119 2.333 . S
Cd116 O120 2.352 . S
Cd116 O124 2.277 1_545 S
Cd116 O125 2.356 . S
C117 O122 1.209 . S
C117 O124 1.226 . S
O118 Cd114 2.273 1_545 S
O118 Cd116 2.411 . S
O118 C121 1.320 . S
O119 Cd116 2.333 . S
O119 C121 1.214 . S
O120 Cd116 2.352 . S
O120 C123 1.258 . S
C121 O118 1.320 . S
C121 O119 1.214 . S
O122 Cd114 2.277 . S
O122 C117 1.209 . S
C123 O120 1.258 . S
C123 O125 1.282 . S
O124 Cd116 2.277 1_565 S
O124 C117 1.226 . S
O125 Cd116 2.356 . S
O125 C123 1.282 . S
C126 O127 1.306 . S
C126 O129 1.160 . S
O127 C126 1.306 . S
O127 Cd128 2.228 . S
Cd128 O127 2.228 . S
Cd128 O132 2.273 . S
Cd128 O136 2.277 . S
O129 C126 1.160 . S
O129 Cd130 2.203 . S
Cd130 O129 2.203 . S
Cd130 O132 2.411 . S
Cd130 O133 2.333 . S
Cd130 O134 2.352 . S
Cd130 O138 2.277 . S
Cd130 O139 2.356 . S
C131 O136 1.209 . S
C131 O138 1.226 . S
O132 Cd128 2.273 . S
O132 Cd130 2.411 . S
O132 C135 1.320 . S
O133 Cd130 2.333 . S
O133 C135 1.214 . S
O134 Cd130 2.352 . S
O134 C137 1.258 . S
C135 O132 1.320 . S
C135 O133 1.214 . S
O136 Cd128 2.277 . S
O136 C131 1.209 . S
C137 O134 1.258 . S
C137 O139 1.282 . S
O138 Cd130 2.277 . S
O138 C131 1.226 . S
O139 Cd130 2.356 . S
O139 C137 1.282 . S
C140 O141 1.306 . S
C140 O143 1.160 . S
O141 C140 1.306 . S
O141 Cd142 2.228 . S
Cd142 O141 2.228 . S
Cd142 O146 2.273 . S
Cd142 O150 2.277 . S
O143 C140 1.160 . S
O143 Cd144 2.203 . S
Cd144 O143 2.203 . S
Cd144 O146 2.411 . S
Cd144 O147 2.333 . S
Cd144 O148 2.352 1_545 S
Cd144 O152 2.277 . S
Cd144 O153 2.356 . S
C145 O150 1.209 . S
C145 O152 1.226 . S
O146 Cd142 2.273 . S
O146 Cd144 2.411 . S
O146 C149 1.320 . S
O147 Cd144 2.333 . S
O147 C149 1.214 . S
O148 Cd144 2.352 1_565 S
O148 C151 1.258 . S
C149 O146 1.320 . S
C149 O147 1.214 . S
O150 Cd142 2.277 . S
O150 C145 1.209 . S
C151 O148 1.258 . S
C151 O153 1.282 1_565 S
O152 Cd144 2.277 . S
O152 C145 1.226 . S
O153 Cd144 2.356 . S
O153 C151 1.282 1_545 S
C154 O155 1.306 1_554 S
C154 O157 1.160 . S
O155 C154 1.306 1_556 S
O155 Cd156 2.228 . S
Cd156 O155 2.228 . S
Cd156 O160 2.273 1_556 S
Cd156 O164 2.277 . S
O157 C154 1.160 . S
O157 Cd158 2.203 . S
Cd158 O157 2.203 . S
Cd158 O160 2.411 . S
Cd158 O161 2.334 1_554 S
Cd158 O162 2.352 . S
Cd158 O166 2.277 1_554 S
Cd158 O167 2.356 . S
C159 O164 1.209 . S
C159 O166 1.226 . S
O160 Cd156 2.273 1_554 S
O160 Cd158 2.411 . S
O160 C163 1.320 1_554 S
O161 Cd158 2.334 1_556 S
O161 C163 1.218 . S
O162 Cd158 2.352 . S
O162 C165 1.258 . S
C163 O160 1.320 1_556 S
C163 O161 1.218 . S
O164 Cd156 2.277 . S
O164 C159 1.209 . S
C165 O162 1.258 . S
C165 O167 1.282 . S
O166 Cd158 2.277 1_556 S
O166 C159 1.226 . S
O167 Cd158 2.356 . S
O167 C165 1.282 . S
C168 O169 1.306 . S
C168 O171 1.160 . S
O169 C168 1.306 . S
O169 Cd170 2.228 . S
Cd170 O169 2.228 . S
Cd170 O174 2.273 . S
Cd170 O178 2.277 . S
O171 C168 1.160 . S
O171 Cd172 2.203 . S
Cd172 O171 2.203 . S
Cd172 O174 2.411 . S
Cd172 O175 2.333 . S
Cd172 O176 2.352 . S
Cd172 O180 2.277 . S
Cd172 O181 2.356 . S
C173 O178 1.209 1_556 S
C173 O180 1.223 1_556 S
O174 Cd170 2.273 . S
O174 Cd172 2.411 . S
O174 C177 1.320 . S
O175 Cd172 2.333 . S
O175 C177 1.214 . S
O176 Cd172 2.352 . S
O176 C179 1.258 . S
C177 O174 1.320 . S
C177 O175 1.214 . S
O178 Cd170 2.277 . S
O178 C173 1.209 1_554 S
C179 O176 1.258 . S
C179 O181 1.282 . S
O180 Cd172 2.277 . S
O180 C173 1.223 1_554 S
O181 Cd172 2.356 . S
O181 C179 1.282 . S
C182 O183 1.306 . S
C182 O185 1.160 . S
O183 C182 1.306 . S
O183 Cd184 2.228 . S
Cd184 O183 2.228 . S
Cd184 O188 2.273 . S
Cd184 O192 2.277 . S
O185 C182 1.160 . S
O185 Cd186 2.203 . S
Cd186 O185 2.203 . S
Cd186 O188 2.411 . S
Cd186 O189 2.333 . S
Cd186 O190 2.352 . S
Cd186 O194 2.277 . S
Cd186 O195 2.356 . S
C187 O192 1.209 . S
C187 O194 1.226 . S
O188 Cd184 2.273 . S
O188 Cd186 2.411 . S
O188 C191 1.320 . S
O189 Cd186 2.333 . S
O189 C191 1.214 . S
O190 Cd186 2.352 . S
O190 C193 1.258 . S
C191 O188 1.320 . S
C191 O189 1.214 . S
O192 Cd184 2.277 . S
O192 C187 1.209 . S
C193 O190 1.258 . S
C193 O195 1.282 . S
O194 Cd186 2.277 . S
O194 C187 1.226 . S
O195 Cd186 2.356 . S
O195 C193 1.282 . S
C196 O197 1.306 . S
C196 O199 1.160 . S
O197 C196 1.306 . S
O197 Cd198 2.228 . S
Cd198 O197 2.228 . S
Cd198 O202 2.273 . S
Cd198 O206 2.277 . S
O199 C196 1.160 . S
O199 Cd200 2.203 . S
Cd200 O199 2.203 . S
Cd200 O202 2.411 . S
Cd200 O203 2.333 . S
Cd200 O204 2.352 . S
Cd200 O208 2.277 . S
Cd200 O209 2.356 . S
C201 O206 1.209 . S
C201 O208 1.226 . S
O202 Cd198 2.273 . S
O202 Cd200 2.411 . S
O202 C205 1.320 . S
O203 Cd200 2.333 . S
O203 C205 1.214 . S
O204 Cd200 2.352 . S
O204 C207 1.258 . S
C205 O202 1.320 . S
C205 O203 1.214 . S
O206 Cd198 2.277 . S
O206 C201 1.209 . S
C207 O204 1.258 . S
C207 O209 1.282 . S
O208 Cd200 2.277 . S
O208 C201 1.226 . S
O209 Cd200 2.356 . S
O209 C207 1.282 . S
C210 O211 1.306 . S
C210 O213 1.160 . S
O211 C210 1.306 . S
O211 Cd212 2.228 . S
Cd212 O211 2.228 . S
Cd212 O216 2.273 . S
Cd212 O220 2.277 . S
O213 C210 1.160 . S
O213 Cd214 2.203 . S
Cd214 O213 2.203 . S
Cd214 O216 2.411 . S
Cd214 O217 2.333 . S
Cd214 O218 2.352 . S
Cd214 O222 2.277 . S
Cd214 O223 2.356 . S
C215 O220 1.209 . S
C215 O222 1.226 . S
O216 Cd212 2.273 . S
O216 Cd214 2.411 . S
O216 C219 1.320 . S
O217 Cd214 2.333 . S
O217 C219 1.214 . S
O218 Cd214 2.352 . S
O218 C221 1.258 . S
C219 O216 1.320 . S
C219 O217 1.214 . S
O220 Cd212 2.277 . S
O220 C215 1.209 . S
C221 O218 1.258 . S
C221 O223 1.282 . S
O222 Cd214 2.277 . S
O222 C215 1.226 . S
O223 Cd214 2.356 . S
O223 C221 1.282 . S
C224 O225 1.306 1_545 S
C224 O227 1.160 . S
O225 C224 1.306 1_565 S
O225 Cd226 2.228 . S
Cd226 O225 2.228 . S
Cd226 O230 2.248 1_565 S
Cd226 O234 2.277 . S
O227 C224 1.160 . S
O227 Cd228 2.203 . S
Cd228 O227 2.203 . S
Cd228 O230 2.416 . S
Cd228 O231 2.335 1_545 S
Cd228 O232 2.352 . S
Cd228 O236 2.277 1_545 S
Cd228 O237 2.356 . S
C229 O234 1.209 . S
C229 O236 1.226 . S
O230 Cd226 2.248 1_545 S
O230 Cd228 2.416 . S
O230 C233 1.337 1_545 S
O231 Cd228 2.335 1_565 S
O231 C233 1.210 . S
O232 Cd228 2.352 . S
O232 C235 1.258 . S
C233 O230 1.337 1_565 S
C233 O231 1.210 . S
O234 Cd226 2.277 . S
O234 C229 1.209 . S
C235 O232 1.258 . S
C235 O237 1.282 . S
O236 Cd228 2.277 1_565 S
O236 C229 1.226 . S
O237 Cd228 2.356 . S
O237 C235 1.282 . S
C238 O239 1.306 . S
C238 O241 1.160 . S
O239 C238 1.306 . S
O239 Cd240 2.228 . S
Cd240 O239 2.228 . S
Cd240 O244 2.273 . S
Cd240 O248 2.277 . S
O241 C238 1.160 . S
O241 Cd242 2.203 . S
Cd242 O241 2.203 . S
Cd242 O244 2.411 . S
Cd242 O245 2.333 . S
Cd242 O246 2.352 . S
Cd242 O250 2.277 . S
Cd242 O251 2.356 . S
C243 O248 1.209 . S
C243 O250 1.226 . S
O244 Cd240 2.273 . S
O244 Cd242 2.411 . S
O244 C247 1.320 . S
O245 Cd242 2.333 . S
O245 C247 1.214 . S
O246 Cd242 2.352 . S
O246 C249 1.258 . S
C247 O244 1.320 . S
C247 O245 1.214 . S
O248 Cd240 2.277 . S
O248 C243 1.209 . S
C249 O246 1.258 . S
C249 O251 1.282 . S
O250 Cd242 2.277 . S
O250 C243 1.226 . S
O251 Cd242 2.356 . S
O251 C249 1.282 . S
C252 O253 1.306 . S
C252 O255 1.160 . S
O253 C252 1.306 . S
O253 Cd254 2.228 . S
Cd254 O253 2.228 . S
Cd254 O258 2.273 . S
Cd254 O262 2.277 . S
O255 C252 1.160 . S
O255 Cd256 2.203 . S
Cd256 O255 2.203 . S
Cd256 O258 2.411 . S
Cd256 O259 2.333 . S
Cd256 O260 2.352 . S
Cd256 O264 2.277 . S
Cd256 O265 2.356 . S
C257 O262 1.209 . S
C257 O264 1.226 . S
O258 Cd254 2.273 . S
O258 Cd256 2.411 . S
O258 C261 1.320 . S
O259 Cd256 2.333 . S
O259 C261 1.214 . S
O260 Cd256 2.352 . S
O260 C263 1.258 . S
C261 O258 1.320 . S
C261 O259 1.214 . S
O262 Cd254 2.277 . S
O262 C257 1.209 . S
C263 O260 1.258 . S
C263 O265 1.282 . S
O264 Cd256 2.277 . S
O264 C257 1.226 . S
O265 Cd256 2.356 . S
O265 C263 1.282 . S
C266 O267 1.306 . S
C266 O269 1.160 . S
O267 C266 1.306 . S
O267 Cd268 2.228 . S
Cd268 O267 2.228 . S
Cd268 O272 2.273 . S
Cd268 O276 2.277 . S
O269 C266 1.160 . S
O269 Cd270 2.203 . S
Cd270 O269 2.203 . S
Cd270 O272 2.411 . S
Cd270 O273 2.333 . S
Cd270 O274 2.352 1_545 S
Cd270 O278 2.277 . S
Cd270 O279 2.356 1_545 S
C271 O276 1.209 . S
C271 O278 1.226 . S
O272 Cd268 2.273 . S
O272 Cd270 2.411 . S
O272 C275 1.320 . S
O273 Cd270 2.333 . S
O273 C275 1.214 . S
O274 Cd270 2.352 1_565 S
O274 C277 1.258 . S
C275 O272 1.320 . S
C275 O273 1.214 . S
O276 Cd268 2.277 . S
O276 C271 1.209 . S
C277 O274 1.258 . S
C277 O279 1.282 . S
O278 Cd270 2.277 . S
O278 C271 1.226 . S
O279 Cd270 2.356 1_565 S
O279 C277 1.282 . S
C280 O281 1.306 . S
C280 O283 1.160 . S
O281 C280 1.306 . S
O281 Cd282 2.228 . S
Cd282 O281 2.228 . S
Cd282 O286 2.273 . S
Cd282 O290 2.277 . S
O283 C280 1.160 . S
O283 Cd284 2.203 . S
Cd284 O283 2.203 . S
Cd284 O286 2.411 . S
Cd284 O287 2.333 . S
Cd284 O288 2.352 1_554 S
Cd284 O292 2.277 . S
Cd284 O293 2.356 . S
C285 O290 1.209 . S
C285 O292 1.226 . S
O286 Cd282 2.273 . S
O286 Cd284 2.411 . S
O286 C289 1.320 . S
O287 Cd284 2.333 . S
O287 C289 1.214 . S
O288 Cd284 2.352 1_556 S
O288 C291 1.258 . S
C289 O286 1.320 . S
C289 O287 1.214 . S
O290 Cd282 2.277 . S
O290 C285 1.209 . S
C291 O288 1.258 . S
C291 O293 1.282 1_556 S
O292 Cd284 2.277 . S
O292 C285 1.226 . S
O293 Cd284 2.356 . S
O293 C291 1.282 1_554 S
C294 O295 1.306 . S
C294 O297 1.160 . S
O295 C294 1.306 . S
O295 Cd296 2.228 . S
Cd296 O295 2.228 . S
Cd296 O300 2.273 . S
Cd296 O304 2.277 . S
O297 C294 1.160 . S
O297 Cd298 2.203 . S
Cd298 O297 2.203 . S
Cd298 O300 2.411 . S
Cd298 O301 2.333 . S
Cd298 O302 2.352 . S
Cd298 O306 2.277 . S
Cd298 O307 2.356 . S
C299 O304 1.209 . S
C299 O306 1.226 . S
O300 Cd296 2.273 . S
O300 Cd298 2.411 . S
O300 C303 1.320 . S
O301 Cd298 2.333 . S
O301 C303 1.214 . S
O302 Cd298 2.352 . S
O302 C305 1.258 . S
C303 O300 1.320 . S
C303 O301 1.214 . S
O304 Cd296 2.277 . S
O304 C299 1.209 . S
C305 O302 1.258 . S
C305 O307 1.282 . S
O306 Cd298 2.277 . S
O306 C299 1.226 . S
O307 Cd298 2.356 . S
O307 C305 1.282 . S
C308 O309 1.306 . S
C308 O311 1.160 . S
O309 C308 1.306 . S
O309 Cd310 2.228 . S
Cd310 O309 2.228 . S
Cd310 O314 2.273 . S
Cd310 O318 2.277 . S
O311 C308 1.160 . S
O311 Cd312 2.203 . S
Cd312 O311 2.203 . S
Cd312 O314 2.411 . S
Cd312 O315 2.333 . S
Cd312 O316 2.352 . S
Cd312 O320 2.277 . S
Cd312 O321 2.356 . S
C313 O318 1.209 . S
C313 O320 1.226 . S
O314 Cd310 2.273 . S
O314 Cd312 2.411 . S
O314 C317 1.320 . S
O315 Cd312 2.333 . S
O315 C317 1.214 . S
O316 Cd312 2.352 . S
O316 C319 1.258 . S
C317 O314 1.320 . S
C317 O315 1.214 . S
O318 Cd310 2.277 . S
O318 C313 1.209 . S
C319 O316 1.258 . S
C319 O321 1.282 . S
O320 Cd312 2.277 . S
O320 C313 1.226 . S
O321 Cd312 2.356 . S
O321 C319 1.282 . S
C322 O323 1.306 . S
C322 O325 1.160 . S
O323 C322 1.306 . S
O323 Cd324 2.228 . S
Cd324 O323 2.228 . S
Cd324 O328 2.273 . S
Cd324 O332 2.277 . S
O325 C322 1.160 . S
O325 Cd326 2.203 . S
Cd326 O325 2.203 . S
Cd326 O328 2.411 . S
Cd326 O329 2.333 . S
Cd326 O330 2.352 . S
Cd326 O334 2.277 . S
Cd326 O335 2.356 . S
C327 O332 1.209 . S
C327 O334 1.226 . S
O328 Cd324 2.273 . S
O328 Cd326 2.411 . S
O328 C331 1.320 . S
O329 Cd326 2.333 . S
O329 C331 1.214 . S
O330 Cd326 2.352 . S
O330 C333 1.258 . S
C331 O328 1.320 . S
C331 O329 1.214 . S
O332 Cd324 2.277 . S
O332 C327 1.209 . S
C333 O330 1.258 . S
C333 O335 1.282 . S
O334 Cd326 2.277 . S
O334 C327 1.226 . S
O335 Cd326 2.356 . S
O335 C333 1.282 . S
Tb336 C338 2.809 1_455 S
Tb336 O356 2.484 1_455 S
Tb336 O357 2.440 1_455 S
Tb336 O358 2.658 . S
Tb336 O359 2.409 1_554 S
Tb336 O360 2.378 . S
Tb336 O364 2.325 . S
Tb336 O367 2.341 1_545 S
Tb337 C347 2.809 . S
Tb337 O358 2.325 . S
Tb337 O361 2.341 . S
Tb337 O362 2.484 . S
Tb337 O363 2.440 . S
Tb337 O364 2.658 . S
Tb337 O365 2.409 . S
Tb337 O366 2.378 1_545 S
C338 Tb336 2.809 1_655 S
C338 C339 1.514 . S
C338 O356 1.248 . S
C338 O357 1.266 . S
C339 C338 1.514 . S
C339 C340 1.359 . S
C339 C344 1.350 . S
C340 C339 1.359 . S
C340 C341 1.380 . S
C340 H368 0.929 . S
C341 C340 1.380 . S
C341 C342 1.347 . S
C341 H369 0.931 . S
C342 C341 1.347 . S
C342 C343 1.369 1_554 S
C343 C342 1.369 1_556 S
C343 C344 1.408 1_556 S
C343 H370 0.930 . S
C344 C339 1.350 . S
C344 C343 1.408 1_554 S
C344 H371 0.929 1_554 S
C345 O358 1.310 . S
C345 O359 1.249 1_554 S
C346 O360 1.236 . S
C346 O361 1.266 . S
C347 Tb337 2.809 . S
C347 C348 1.514 1_545 S
C347 O362 1.248 . S
C347 O363 1.266 . S
C348 C347 1.514 1_565 S
C348 C349 1.359 . S
C348 C353 1.348 . S
C349 C348 1.359 . S
C349 C350 1.380 . S
C349 H372 0.929 . S
C350 C349 1.380 . S
C350 C351 1.347 . S
C350 H373 0.931 . S
C351 C350 1.347 . S
C351 C352 1.369 . S
C352 C351 1.369 . S
C352 C353 1.408 . S
C352 H374 0.930 . S
C353 C348 1.348 . S
C353 C352 1.408 . S
C353 H375 0.930 . S
C354 O364 1.281 . S
C354 O365 1.254 . S
C355 O366 1.236 . S
C355 O367 1.266 . S
O356 Tb336 2.484 1_655 S
O356 C338 1.248 . S
O357 Tb336 2.440 1_655 S
O357 C338 1.266 . S
O358 Tb336 2.658 . S
O358 Tb337 2.325 . S
O358 C345 1.310 . S
O359 Tb336 2.409 1_556 S
O359 C345 1.249 1_556 S
O360 Tb336 2.378 . S
O360 C346 1.236 . S
O361 Tb337 2.341 . S
O361 C346 1.266 . S
O362 Tb337 2.484 . S
O362 C347 1.248 . S
O363 Tb337 2.440 . S
O363 C347 1.266 . S
O364 Tb336 2.325 . S
O364 Tb337 2.658 . S
O364 C354 1.281 . S
O365 Tb337 2.409 . S
O365 C354 1.254 . S
O366 Tb337 2.378 1_565 S
O366 C355 1.236 . S
O367 Tb336 2.341 1_565 S
O367 C355 1.266 . S
H368 C340 0.929 . S
H369 C341 0.931 . S
H370 C343 0.930 . S
H371 C344 0.929 1_556 S
H372 C349 0.929 . S
H373 C350 0.931 . S
H374 C352 0.930 . S
H375 C353 0.930 . S
Tb376 C378 2.809 . S
Tb376 O396 2.484 . S
Tb376 O397 2.440 . S
Tb376 O398 2.658 . S
Tb376 O399 2.409 . S
Tb376 O400 2.378 . S
Tb376 O404 2.325 . S
Tb376 O407 2.341 . S
Tb377 C387 2.809 . S
Tb377 O398 2.325 . S
Tb377 O401 2.341 . S
Tb377 O402 2.484 . S
Tb377 O403 2.440 . S
Tb377 O404 2.658 . S
Tb377 O405 2.409 . S
Tb377 O406 2.378 . S
C378 Tb376 2.809 . S
C378 C379 1.514 . S
C378 O396 1.248 . S
C378 O397 1.266 . S
C379 C378 1.514 . S
C379 C380 1.359 . S
C379 C384 1.348 . S
C380 C379 1.359 . S
C380 C381 1.380 . S
C380 H408 0.929 . S
C381 C380 1.380 . S
C381 C382 1.347 . S
C381 H409 0.931 . S
C382 C381 1.347 . S
C382 C383 1.369 . S
C383 C382 1.369 . S
C383 C384 1.408 . S
C383 H410 0.930 . S
C384 C379 1.348 . S
C384 C383 1.408 . S
C384 H411 0.930 . S
C385 O398 1.281 . S
C385 O399 1.254 . S
C386 O400 1.236 . S
C386 O401 1.266 . S
C387 Tb377 2.809 . S
C387 C388 1.514 . S
C387 O402 1.248 . S
C387 O403 1.266 . S
C388 C387 1.514 . S
C388 C389 1.359 . S
C388 C393 1.348 . S
C389 C388 1.359 . S
C389 C390 1.380 . S
C389 H412 0.929 . S
C390 C389 1.380 . S
C390 C391 1.347 . S
C390 H413 0.931 . S
C391 C390 1.347 . S
C391 C392 1.369 . S
C392 C391 1.369 . S
C392 C393 1.408 . S
C392 H414 0.930 . S
C393 C388 1.348 . S
C393 C392 1.408 . S
C393 H415 0.930 . S
C394 O404 1.281 . S
C394 O405 1.254 . S
C395 O406 1.236 . S
C395 O407 1.266 . S
O396 Tb376 2.484 . S
O396 C378 1.248 . S
O397 Tb376 2.440 . S
O397 C378 1.266 . S
O398 Tb376 2.658 . S
O398 Tb377 2.325 . S
O398 C385 1.281 . S
O399 Tb376 2.409 . S
O399 C385 1.254 . S
O400 Tb376 2.378 . S
O400 C386 1.236 . S
O401 Tb377 2.341 . S
O401 C386 1.266 . S
O402 Tb377 2.484 . S
O402 C387 1.248 . S
O403 Tb377 2.440 . S
O403 C387 1.266 . S
O404 Tb376 2.325 . S
O404 Tb377 2.658 . S
O404 C394 1.281 . S
O405 Tb377 2.409 . S
O405 C394 1.254 . S
O406 Tb377 2.378 . S
O406 C395 1.236 . S
O407 Tb376 2.341 . S
O407 C395 1.266 . S
H408 C380 0.929 . S
H409 C381 0.931 . S
H410 C383 0.930 . S
H411 C384 0.930 . S
H412 C389 0.929 . S
H413 C390 0.931 . S
H414 C392 0.930 . S
H415 C393 0.930 . S
Tb416 C418 2.809 1_545 S
Tb416 O436 2.484 1_545 S
Tb416 O437 2.440 . S
Tb416 O438 2.658 . S
Tb416 O439 2.409 . S
Tb416 O440 2.378 1_545 S
Tb416 O444 2.325 . S
Tb416 O447 2.341 . S
Tb417 C427 2.809 . S
Tb417 O438 2.325 . S
Tb417 O441 2.341 1_545 S
Tb417 O442 2.484 . S
Tb417 O443 2.440 . S
Tb417 O444 2.658 . S
Tb417 O445 2.409 . S
Tb417 O446 2.378 . S
C418 Tb416 2.809 1_565 S
C418 C419 1.514 . S
C418 O436 1.248 . S
C418 O437 1.266 1_565 S
C419 C418 1.514 . S
C419 C420 1.359 . S
C419 C424 1.348 . S
C420 C419 1.359 . S
C420 C421 1.380 . S
C420 H448 0.929 . S
C421 C420 1.380 . S
C421 C422 1.347 . S
C421 H449 0.931 . S
C422 C421 1.347 . S
C422 C423 1.369 . S
C423 C422 1.369 . S
C423 C424 1.408 . S
C423 H450 0.930 . S
C424 C419 1.348 . S
C424 C423 1.408 . S
C424 H451 0.930 . S
C425 O438 1.281 . S
C425 O439 1.254 . S
C426 O440 1.236 . S
C426 O441 1.266 . S
C427 Tb417 2.809 . S
C427 C428 1.514 . S
C427 O442 1.248 . S
C427 O443 1.266 . S
C428 C427 1.514 . S
C428 C429 1.359 . S
C428 C433 1.348 . S
C429 C428 1.359 . S
C429 C430 1.380 . S
C429 H452 0.929 . S
C430 C429 1.380 . S
C430 C431 1.347 . S
C430 H453 0.931 . S
C431 C430 1.347 . S
C431 C432 1.369 . S
C432 C431 1.369 . S
C432 C433 1.408 . S
C432 H454 0.930 . S
C433 C428 1.348 . S
C433 C432 1.408 . S
C433 H455 0.930 . S
C434 O444 1.281 . S
C434 O445 1.254 . S
C435 O446 1.236 . S
C435 O447 1.266 . S
O436 Tb416 2.484 1_565 S
O436 C418 1.248 . S
O437 Tb416 2.440 . S
O437 C418 1.266 1_545 S
O438 Tb416 2.658 . S
O438 Tb417 2.325 . S
O438 C425 1.281 . S
O439 Tb416 2.409 . S
O439 C425 1.254 . S
O440 Tb416 2.378 1_565 S
O440 C426 1.236 . S
O441 Tb417 2.341 1_565 S
O441 C426 1.266 . S
O442 Tb417 2.484 . S
O442 C427 1.248 . S
O443 Tb417 2.440 . S
O443 C427 1.266 . S
O444 Tb416 2.325 . S
O444 Tb417 2.658 . S
O444 C434 1.281 . S
O445 Tb417 2.409 . S
O445 C434 1.254 . S
O446 Tb417 2.378 . S
O446 C435 1.236 . S
O447 Tb416 2.341 . S
O447 C435 1.266 . S
H448 C420 0.929 . S
H449 C421 0.931 . S
H450 C423 0.930 . S
H451 C424 0.930 . S
H452 C429 0.929 . S
H453 C430 0.931 . S
H454 C432 0.930 . S
H455 C433 0.930 . S
Tb456 C458 2.809 . S
Tb456 O476 2.484 . S
Tb456 O477 2.440 . S
Tb456 O478 2.658 . S
Tb456 O479 2.409 . S
Tb456 O480 2.378 . S
Tb456 O484 2.325 . S
Tb456 O487 2.341 . S
Tb457 C467 2.809 . S
Tb457 O478 2.325 . S
Tb457 O481 2.341 . S
Tb457 O482 2.484 . S
Tb457 O483 2.440 . S
Tb457 O484 2.658 . S
Tb457 O485 2.409 . S
Tb457 O486 2.378 . S
C458 Tb456 2.809 . S
C458 C459 1.514 . S
C458 O476 1.248 . S
C458 O477 1.266 . S
C459 C458 1.514 . S
C459 C460 1.359 . S
C459 C464 1.348 . S
C460 C459 1.359 . S
C460 C461 1.380 . S
C460 H488 0.929 . S
C461 C460 1.380 . S
C461 C462 1.347 . S
C461 H489 0.931 . S
C462 C461 1.347 . S
C462 C463 1.369 . S
C463 C462 1.369 . S
C463 C464 1.408 . S
C463 H490 0.930 . S
C464 C459 1.348 . S
C464 C463 1.408 . S
C464 H491 0.930 . S
C465 O478 1.281 . S
C465 O479 1.254 . S
C466 O480 1.236 . S
C466 O481 1.266 . S
C467 Tb457 2.809 . S
C467 C468 1.514 . S
C467 O482 1.248 . S
C467 O483 1.266 . S
C468 C467 1.514 . S
C468 C469 1.359 . S
C468 C473 1.348 . S
C469 C468 1.359 . S
C469 C470 1.380 . S
C469 H492 0.929 . S
C470 C469 1.380 . S
C470 C471 1.347 . S
C470 H493 0.931 . S
C471 C470 1.347 . S
C471 C472 1.369 . S
C472 C471 1.369 . S
C472 C473 1.408 . S
C472 H494 0.930 . S
C473 C468 1.348 . S
C473 C472 1.408 . S
C473 H495 0.930 . S
C474 O484 1.281 . S
C474 O485 1.254 . S
C475 O486 1.236 . S
C475 O487 1.266 . S
O476 Tb456 2.484 . S
O476 C458 1.248 . S
O477 Tb456 2.440 . S
O477 C458 1.266 . S
O478 Tb456 2.658 . S
O478 Tb457 2.325 . S
O478 C465 1.281 . S
O479 Tb456 2.409 . S
O479 C465 1.254 . S
O480 Tb456 2.378 . S
O480 C466 1.236 . S
O481 Tb457 2.341 . S
O481 C466 1.266 . S
O482 Tb457 2.484 . S
O482 C467 1.248 . S
O483 Tb457 2.440 . S
O483 C467 1.266 . S
O484 Tb456 2.325 . S
O484 Tb457 2.658 . S
O484 C474 1.281 . S
O485 Tb457 2.409 . S
O485 C474 1.254 . S
O486 Tb457 2.378 . S
O486 C475 1.236 . S
O487 Tb456 2.341 . S
O487 C475 1.266 . S
H488 C460 0.929 . S
H489 C461 0.931 . S
H490 C463 0.930 . S
H491 C464 0.930 . S
H492 C469 0.929 . S
H493 C470 0.931 . S
H494 C472 0.930 . S
H495 C473 0.930 . S
Tb496 C498 2.809 . S
Tb496 O516 2.484 . S
Tb496 O517 2.440 . S
Tb496 O518 2.658 . S
Tb496 O519 2.409 1_455 S
Tb496 O520 2.378 . S
Tb496 O524 2.325 . S
Tb496 O527 2.341 . S
Tb497 C507 2.809 . S
Tb497 O518 2.325 1_565 S
Tb497 O521 2.358 . S
Tb497 O522 2.484 . S
Tb497 O523 2.440 . S
Tb497 O524 2.658 1_565 S
Tb497 O525 2.409 1_565 S
Tb497 O526 2.378 1_565 S
C498 Tb496 2.809 . S
C498 C499 1.514 . S
C498 O516 1.248 . S
C498 O517 1.266 . S
C499 C498 1.514 . S
C499 C500 1.359 . S
C499 C504 1.348 1_455 S
C500 C499 1.359 . S
C500 C501 1.380 . S
C500 H528 0.929 . S
C501 C500 1.380 . S
C501 C502 1.347 . S
C501 H529 0.931 . S
C502 C501 1.347 . S
C502 C503 1.369 1_455 S
C503 C502 1.369 1_655 S
C503 C504 1.408 . S
C503 H530 0.930 . S
C504 C499 1.348 1_655 S
C504 C503 1.408 . S
C504 H531 0.930 . S
C505 O518 1.281 1_655 S
C505 O519 1.254 . S
C506 O520 1.236 . S
C506 O521 1.236 1_545 S
C507 Tb497 2.809 . S
C507 C508 1.514 . S
C507 O522 1.248 . S
C507 O523 1.266 . S
C508 C507 1.514 . S
C508 C509 1.359 . S
C508 C513 1.348 . S
C509 C508 1.359 . S
C509 C510 1.380 . S
C509 H532 0.929 . S
C510 C509 1.380 . S
C510 C511 1.347 . S
C510 H533 0.931 . S
C511 C510 1.347 . S
C511 C512 1.369 . S
C512 C511 1.369 . S
C512 C513 1.408 . S
C512 H534 0.930 . S
C513 C508 1.348 . S
C513 C512 1.408 . S
C513 H535 0.930 . S
C514 O524 1.281 . S
C514 O525 1.254 . S
C515 O526 1.236 . S
C515 O527 1.266 . S
O516 Tb496 2.484 . S
O516 C498 1.248 . S
O517 Tb496 2.440 . S
O517 C498 1.266 . S
O518 Tb496 2.658 . S
O518 Tb497 2.325 1_545 S
O518 C505 1.281 1_455 S
O519 Tb496 2.409 1_655 S
O519 C505 1.254 . S
O520 Tb496 2.378 . S
O520 C506 1.236 . S
O521 Tb497 2.358 . S
O521 C506 1.236 1_565 S
O522 Tb497 2.484 . S
O522 C507 1.248 . S
O523 Tb497 2.440 . S
O523 C507 1.266 . S
O524 Tb496 2.325 . S
O524 Tb497 2.658 1_545 S
O524 C514 1.281 . S
O525 Tb497 2.409 1_545 S
O525 C514 1.254 . S
O526 Tb497 2.378 1_545 S
O526 C515 1.236 . S
O527 Tb496 2.341 . S
O527 C515 1.266 . S
H528 C500 0.929 . S
H529 C501 0.931 . S
H530 C503 0.930 . S
H531 C504 0.930 . S
H532 C509 0.929 . S
H533 C510 0.931 . S
H534 C512 0.930 . S
H535 C513 0.930 . S
Tb536 C538 2.809 . S
Tb536 O556 2.484 . S
Tb536 O557 2.440 . S
Tb536 O558 2.658 . S
Tb536 O559 2.409 . S
Tb536 O560 2.378 . S
Tb536 O564 2.325 . S
Tb536 O567 2.341 . S
Tb537 C547 2.809 . S
Tb537 O558 2.325 . S
Tb537 O561 2.341 . S
Tb537 O562 2.484 . S
Tb537 O563 2.440 . S
Tb537 O564 2.658 . S
Tb537 O565 2.409 . S
Tb537 O566 2.378 . S
C538 Tb536 2.809 . S
C538 C539 1.514 . S
C538 O556 1.248 . S
C538 O557 1.266 . S
C539 C538 1.514 . S
C539 C540 1.359 . S
C539 C544 1.348 . S
C540 C539 1.359 . S
C540 C541 1.380 . S
C540 H568 0.929 . S
C541 C540 1.380 . S
C541 C542 1.347 . S
C541 H569 0.931 . S
C542 C541 1.347 . S
C542 C543 1.369 . S
C543 C542 1.369 . S
C543 C544 1.408 . S
C543 H570 0.930 . S
C544 C539 1.348 . S
C544 C543 1.408 . S
C544 H571 0.930 . S
C545 O558 1.281 . S
C545 O559 1.254 . S
C546 O560 1.236 . S
C546 O561 1.266 . S
C547 Tb537 2.809 . S
C547 C548 1.514 . S
C547 O562 1.248 . S
C547 O563 1.266 . S
C548 C547 1.514 . S
C548 C549 1.359 . S
C548 C553 1.348 . S
C549 C548 1.359 . S
C549 C550 1.380 . S
C549 H572 0.929 . S
C550 C549 1.380 . S
C550 C551 1.347 . S
C550 H573 0.931 . S
C551 C550 1.347 . S
C551 C552 1.369 . S
C552 C551 1.369 . S
C552 C553 1.408 . S
C552 H574 0.930 . S
C553 C548 1.348 . S
C553 C552 1.408 . S
C553 H575 0.930 . S
C554 O564 1.281 . S
C554 O565 1.254 . S
C555 O566 1.236 . S
C555 O567 1.266 . S
O556 Tb536 2.484 . S
O556 C538 1.248 . S
O557 Tb536 2.440 . S
O557 C538 1.266 . S
O558 Tb536 2.658 . S
O558 Tb537 2.325 . S
O558 C545 1.281 . S
O559 Tb536 2.409 . S
O559 C545 1.254 . S
O560 Tb536 2.378 . S
O560 C546 1.236 . S
O561 Tb537 2.341 . S
O561 C546 1.266 . S
O562 Tb537 2.484 . S
O562 C547 1.248 . S
O563 Tb537 2.440 . S
O563 C547 1.266 . S
O564 Tb536 2.325 . S
O564 Tb537 2.658 . S
O564 C554 1.281 . S
O565 Tb537 2.409 . S
O565 C554 1.254 . S
O566 Tb537 2.378 . S
O566 C555 1.236 . S
O567 Tb536 2.341 . S
O567 C555 1.266 . S
H568 C540 0.929 . S
H569 C541 0.931 . S
H570 C543 0.930 . S
H571 C544 0.930 . S
H572 C549 0.929 . S
H573 C550 0.931 . S
H574 C552 0.930 . S
H575 C553 0.930 . S
Tb576 C578 2.809 . S
Tb576 O596 2.484 1_545 S
Tb576 O597 2.440 . S
Tb576 O598 2.658 . S
Tb576 O599 2.409 . S
Tb576 O600 2.378 . S
Tb576 O604 2.325 1_545 S
Tb576 O607 2.341 . S
Tb577 C587 2.809 . S
Tb577 O598 2.325 . S
Tb577 O601 2.341 . S
Tb577 O602 2.484 . S
Tb577 O603 2.440 . S
Tb577 O604 2.658 1_545 S
Tb577 O605 2.409 1_545 S
Tb577 O606 2.378 . S
C578 Tb576 2.809 . S
C578 C579 1.514 1_545 S
C578 O596 1.248 1_545 S
C578 O597 1.266 . S
C579 C578 1.514 1_565 S
C579 C580 1.359 . S
C579 C584 1.348 1_565 S
C580 C579 1.359 . S
C580 C581 1.380 . S
C580 H608 0.929 . S
C581 C580 1.380 . S
C581 C582 1.347 . S
C581 H609 0.931 . S
C582 C581 1.347 . S
C582 C583 1.369 . S
C583 C582 1.369 . S
C583 C584 1.408 1_565 S
C583 H610 0.930 1_565 S
C584 C579 1.348 1_545 S
C584 C583 1.408 1_545 S
C584 H611 0.930 . S
C585 O598 1.281 . S
C585 O599 1.254 . S
C586 O600 1.236 . S
C586 O601 1.266 . S
C587 Tb577 2.809 . S
C587 C588 1.514 . S
C587 O602 1.248 . S
C587 O603 1.266 . S
C588 C587 1.514 . S
C588 C589 1.359 . S
C588 C593 1.348 . S
C589 C588 1.359 . S
C589 C590 1.380 . S
C589 H612 0.929 . S
C590 C589 1.380 . S
C590 C591 1.347 . S
C590 H613 0.931 . S
C591 C590 1.347 . S
C591 C592 1.369 . S
C592 C591 1.369 . S
C592 C593 1.408 . S
C592 H614 0.930 . S
C593 C588 1.348 . S
C593 C592 1.408 . S
C593 H615 0.930 . S
C594 O604 1.281 . S
C594 O605 1.254 . S
C595 O606 1.236 . S
C595 O607 1.266 . S
O596 Tb576 2.484 1_565 S
O596 C578 1.248 1_565 S
O597 Tb576 2.440 . S
O597 C578 1.266 . S
O598 Tb576 2.658 . S
O598 Tb577 2.325 . S
O598 C585 1.281 . S
O599 Tb576 2.409 . S
O599 C585 1.254 . S
O600 Tb576 2.378 . S
O600 C586 1.236 . S
O601 Tb577 2.341 . S
O601 C586 1.266 . S
O602 Tb577 2.484 . S
O602 C587 1.248 . S
O603 Tb577 2.440 . S
O603 C587 1.266 . S
O604 Tb576 2.325 1_565 S
O604 Tb577 2.658 1_565 S
O604 C594 1.281 . S
O605 Tb577 2.409 1_565 S
O605 C594 1.254 . S
O606 Tb577 2.378 . S
O606 C595 1.236 . S
O607 Tb576 2.341 . S
O607 C595 1.266 . S
H608 C580 0.929 . S
H609 C581 0.931 . S
H610 C583 0.930 1_545 S
H611 C584 0.930 . S
H612 C589 0.929 . S
H613 C590 0.931 . S
H614 C592 0.930 . S
H615 C593 0.930 . S
Tb616 C618 2.809 . S
Tb616 O636 2.484 . S
Tb616 O637 2.440 . S
Tb616 O638 2.658 . S
Tb616 O639 2.409 . S
Tb616 O640 2.378 . S
Tb616 O644 2.325 . S
Tb616 O647 2.341 . S
Tb617 C627 2.809 . S
Tb617 O638 2.325 . S
Tb617 O641 2.341 . S
Tb617 O642 2.484 . S
Tb617 O643 2.440 . S
Tb617 O644 2.658 . S
Tb617 O645 2.409 . S
Tb617 O646 2.378 . S
C618 Tb616 2.809 . S
C618 C619 1.514 . S
C618 O636 1.248 . S
C618 O637 1.266 . S
C619 C618 1.514 . S
C619 C620 1.359 . S
C619 C624 1.348 . S
C620 C619 1.359 . S
C620 C621 1.380 . S
C620 H648 0.929 . S
C621 C620 1.380 . S
C621 C622 1.347 . S
C621 H649 0.931 . S
C622 C621 1.347 . S
C622 C623 1.369 . S
C623 C622 1.369 . S
C623 C624 1.408 . S
C623 H650 0.930 . S
C624 C619 1.348 . S
C624 C623 1.408 . S
C624 H651 0.930 . S
C625 O638 1.281 . S
C625 O639 1.254 . S
C626 O640 1.236 . S
C626 O641 1.266 . S
C627 Tb617 2.809 . S
C627 C628 1.514 . S
C627 O642 1.248 . S
C627 O643 1.266 . S
C628 C627 1.514 . S
C628 C629 1.359 . S
C628 C633 1.348 . S
C629 C628 1.359 . S
C629 C630 1.380 . S
C629 H652 0.929 . S
C630 C629 1.380 . S
C630 C631 1.347 . S
C630 H653 0.931 . S
C631 C630 1.347 . S
C631 C632 1.369 . S
C632 C631 1.369 . S
C632 C633 1.408 . S
C632 H654 0.930 . S
C633 C628 1.348 . S
C633 C632 1.408 . S
C633 H655 0.930 . S
C634 O644 1.281 . S
C634 O645 1.254 . S
C635 O646 1.236 . S
C635 O647 1.266 . S
O636 Tb616 2.484 . S
O636 C618 1.248 . S
O637 Tb616 2.440 . S
O637 C618 1.266 . S
O638 Tb616 2.658 . S
O638 Tb617 2.325 . S
O638 C625 1.281 . S
O639 Tb616 2.409 . S
O639 C625 1.254 . S
O640 Tb616 2.378 . S
O640 C626 1.236 . S
O641 Tb617 2.341 . S
O641 C626 1.266 . S
O642 Tb617 2.484 . S
O642 C627 1.248 . S
O643 Tb617 2.440 . S
O643 C627 1.266 . S
O644 Tb616 2.325 . S
O644 Tb617 2.658 . S
O644 C634 1.281 . S
O645 Tb617 2.409 . S
O645 C634 1.254 . S
O646 Tb617 2.378 . S
O646 C635 1.236 . S
O647 Tb616 2.341 . S
O647 C635 1.266 . S
H648 C620 0.929 . S
H649 C621 0.931 . S
H650 C623 0.930 . S
H651 C624 0.930 . S
H652 C629 0.929 . S
H653 C630 0.931 . S
H654 C632 0.930 . S
H655 C633 0.930 . S
Tb656 C658 2.809 . S
Tb656 O676 2.484 . S
Tb656 O677 2.440 . S
Tb656 O678 2.658 . S
Tb656 O679 2.409 . S
Tb656 O680 2.378 . S
Tb656 O684 2.325 . S
Tb656 O687 2.341 . S
Tb657 C667 2.809 . S
Tb657 O678 2.325 . S
Tb657 O681 2.352 . S
Tb657 O682 2.484 . S
Tb657 O683 2.440 . S
Tb657 O684 2.658 . S
Tb657 O685 2.409 . S
Tb657 O686 2.378 . S
C658 Tb656 2.809 . S
C658 C659 1.514 . S
C658 O676 1.248 . S
C658 O677 1.266 . S
C659 C658 1.514 . S
C659 C660 1.359 1_554 S
C659 C664 1.348 . S
C660 C659 1.359 1_556 S
C660 C661 1.380 . S
C660 H688 0.929 . S
C661 C660 1.380 . S
C661 C662 1.347 . S
C661 H689 0.931 . S
C662 C661 1.347 . S
C662 C663 1.369 . S
C663 C662 1.369 . S
C663 C664 1.408 1_556 S
C663 H690 0.930 . S
C664 C659 1.348 . S
C664 C663 1.408 1_554 S
C664 H691 0.930 . S
C665 O678 1.281 . S
C665 O679 1.254 . S
C666 O680 1.236 1_556 S
C666 O681 1.262 1_556 S
C667 Tb657 2.809 . S
C667 C668 1.514 . S
C667 O682 1.248 . S
C667 O683 1.266 . S
C668 C667 1.514 . S
C668 C669 1.359 . S
C668 C673 1.348 . S
C669 C668 1.359 . S
C669 C670 1.380 . S
C669 H692 0.929 . S
C670 C669 1.380 . S
C670 C671 1.347 . S
C670 H693 0.931 . S
C671 C670 1.347 . S
C671 C672 1.369 . S
C672 C671 1.369 . S
C672 C673 1.408 . S
C672 H694 0.930 . S
C673 C668 1.348 . S
C673 C672 1.408 . S
C673 H695 0.930 . S
C674 O684 1.281 . S
C674 O685 1.254 . S
C675 O686 1.236 . S
C675 O687 1.266 . S
O676 Tb656 2.484 . S
O676 C658 1.248 . S
O677 Tb656 2.440 . S
O677 C658 1.266 . S
O678 Tb656 2.658 . S
O678 Tb657 2.325 . S
O678 C665 1.281 . S
O679 Tb656 2.409 . S
O679 C665 1.254 . S
O680 Tb656 2.378 . S
O680 C666 1.236 1_554 S
O681 Tb657 2.352 . S
O681 C666 1.262 1_554 S
O682 Tb657 2.484 . S
O682 C667 1.248 . S
O683 Tb657 2.440 . S
O683 C667 1.266 . S
O684 Tb656 2.325 . S
O684 Tb657 2.658 . S
O684 C674 1.281 . S
O685 Tb657 2.409 . S
O685 C674 1.254 . S
O686 Tb657 2.378 . S
O686 C675 1.236 . S
O687 Tb656 2.341 . S
O687 C675 1.266 . S
H688 C660 0.929 . S
H689 C661 0.931 . S
H690 C663 0.930 . S
H691 C664 0.930 . S
H692 C669 0.929 . S
H693 C670 0.931 . S
H694 C672 0.930 . S
H695 C673 0.930 . S
Tb696 C698 2.809 . S
Tb696 O716 2.484 . S
Tb696 O717 2.440 . S
Tb696 O718 2.658 . S
Tb696 O719 2.409 . S
Tb696 O720 2.378 . S
Tb696 O724 2.325 . S
Tb696 O727 2.341 . S
Tb697 C707 2.809 . S
Tb697 O718 2.325 . S
Tb697 O721 2.341 . S
Tb697 O722 2.484 . S
Tb697 O723 2.440 . S
Tb697 O724 2.658 . S
Tb697 O725 2.409 . S
Tb697 O726 2.378 . S
C698 Tb696 2.809 . S
C698 C699 1.514 . S
C698 O716 1.248 . S
C698 O717 1.266 . S
C699 C698 1.514 . S
C699 C700 1.359 . S
C699 C704 1.348 . S
C700 C699 1.359 . S
C700 C701 1.380 . S
C700 H728 0.929 . S
C701 C700 1.380 . S
C701 C702 1.347 . S
C701 H729 0.931 . S
C702 C701 1.347 . S
C702 C703 1.369 . S
C703 C702 1.369 . S
C703 C704 1.408 . S
C703 H730 0.930 . S
C704 C699 1.348 . S
C704 C703 1.408 . S
C704 H731 0.930 . S
C705 O718 1.281 . S
C705 O719 1.254 . S
C706 O720 1.236 . S
C706 O721 1.266 . S
C707 Tb697 2.809 . S
C707 C708 1.514 . S
C707 O722 1.248 . S
C707 O723 1.266 . S
C708 C707 1.514 . S
C708 C709 1.359 . S
C708 C713 1.348 . S
C709 C708 1.359 . S
C709 C710 1.380 . S
C709 H732 0.929 . S
C710 C709 1.380 . S
C710 C711 1.347 . S
C710 H733 0.931 . S
C711 C710 1.347 . S
C711 C712 1.369 . S
C712 C711 1.369 . S
C712 C713 1.408 . S
C712 H734 0.930 . S
C713 C708 1.348 . S
C713 C712 1.408 . S
C713 H735 0.930 . S
C714 O724 1.281 . S
C714 O725 1.254 . S
C715 O726 1.236 . S
C715 O727 1.266 . S
O716 Tb696 2.484 . S
O716 C698 1.248 . S
O717 Tb696 2.440 . S
O717 C698 1.266 . S
O718 Tb696 2.658 . S
O718 Tb697 2.325 . S
O718 C705 1.281 . S
O719 Tb696 2.409 . S
O719 C705 1.254 . S
O720 Tb696 2.378 . S
O720 C706 1.236 . S
O721 Tb697 2.341 . S
O721 C706 1.266 . S
O722 Tb697 2.484 . S
O722 C707 1.248 . S
O723 Tb697 2.440 . S
O723 C707 1.266 . S
O724 Tb696 2.325 . S
O724 Tb697 2.658 . S
O724 C714 1.281 . S
O725 Tb697 2.409 . S
O725 C714 1.254 . S
O726 Tb697 2.378 . S
O726 C715 1.236 . S
O727 Tb696 2.341 . S
O727 C715 1.266 . S
H728 C700 0.929 . S
H729 C701 0.931 . S
H730 C703 0.930 . S
H731 C704 0.930 . S
H732 C709 0.929 . S
H733 C710 0.931 . S
H734 C712 0.930 . S
H735 C713 0.930 . S
Tb736 C738 2.809 1_455 S
Tb736 O756 2.484 1_455 S
Tb736 O757 2.440 1_455 S
Tb736 O758 2.658 . S
Tb736 O759 2.409 . S
Tb736 O760 2.378 . S
Tb736 O764 2.325 . S
Tb736 O767 2.341 . S
Tb737 C747 2.809 . S
Tb737 O758 2.325 . S
Tb737 O761 2.341 . S
Tb737 O762 2.484 . S
Tb737 O763 2.440 . S
Tb737 O764 2.658 . S
Tb737 O765 2.409 . S
Tb737 O766 2.378 . S
C738 Tb736 2.809 1_655 S
C738 C739 1.514 . S
C738 O756 1.248 . S
C738 O757 1.266 . S
C739 C738 1.514 . S
C739 C740 1.359 . S
C739 C744 1.348 . S
C740 C739 1.359 . S
C740 C741 1.380 . S
C740 H768 0.929 . S
C741 C740 1.380 . S
C741 C742 1.347 . S
C741 H769 0.931 . S
C742 C741 1.347 . S
C742 C743 1.369 . S
C743 C742 1.369 . S
C743 C744 1.408 . S
C743 H770 0.930 . S
C744 C739 1.348 . S
C744 C743 1.408 . S
C744 H771 0.930 . S
C745 O758 1.281 . S
C745 O759 1.254 . S
C746 O760 1.236 . S
C746 O761 1.266 . S
C747 Tb737 2.809 . S
C747 C748 1.514 . S
C747 O762 1.248 . S
C747 O763 1.266 . S
C748 C747 1.514 . S
C748 C749 1.359 . S
C748 C753 1.348 . S
C749 C748 1.359 . S
C749 C750 1.380 . S
C749 H772 0.929 . S
C750 C749 1.380 . S
C750 C751 1.347 . S
C750 H773 0.931 . S
C751 C750 1.347 . S
C751 C752 1.369 . S
C752 C751 1.369 . S
C752 C753 1.408 . S
C752 H774 0.930 . S
C753 C748 1.348 . S
C753 C752 1.408 . S
C753 H775 0.930 . S
C754 O764 1.281 . S
C754 O765 1.254 . S
C755 O766 1.236 . S
C755 O767 1.266 . S
O756 Tb736 2.484 1_655 S
O756 C738 1.248 . S
O757 Tb736 2.440 1_655 S
O757 C738 1.266 . S
O758 Tb736 2.658 . S
O758 Tb737 2.325 . S
O758 C745 1.281 . S
O759 Tb736 2.409 . S
O759 C745 1.254 . S
O760 Tb736 2.378 . S
O760 C746 1.236 . S
O761 Tb737 2.341 . S
O761 C746 1.266 . S
O762 Tb737 2.484 . S
O762 C747 1.248 . S
O763 Tb737 2.440 . S
O763 C747 1.266 . S
O764 Tb736 2.325 . S
O764 Tb737 2.658 . S
O764 C754 1.281 . S
O765 Tb737 2.409 . S
O765 C754 1.254 . S
O766 Tb737 2.378 . S
O766 C755 1.236 . S
O767 Tb736 2.341 . S
O767 C755 1.266 . S
H768 C740 0.929 . S
H769 C741 0.931 . S
H770 C743 0.930 . S
H771 C744 0.930 . S
H772 C749 0.929 . S
H773 C750 0.931 . S
H774 C752 0.930 . S
H775 C753 0.930 . S
Tb776 C778 2.809 . S
Tb776 O796 2.484 . S
Tb776 O797 2.440 . S
Tb776 O798 2.658 . S
Tb776 O799 2.409 . S
Tb776 O800 2.378 . S
Tb776 O804 2.325 . S
Tb776 O807 2.341 . S
Tb777 C787 2.809 . S
Tb777 O798 2.325 . S
Tb777 O801 2.341 . S
Tb777 O802 2.484 . S
Tb777 O803 2.440 . S
Tb777 O804 2.658 . S
Tb777 O805 2.409 . S
Tb777 O806 2.378 . S
C778 Tb776 2.809 . S
C778 C779 1.514 . S
C778 O796 1.248 . S
C778 O797 1.266 . S
C779 C778 1.514 . S
C779 C780 1.359 . S
C779 C784 1.348 . S
C780 C779 1.359 . S
C780 C781 1.380 . S
C780 H808 0.929 . S
C781 C780 1.380 . S
C781 C782 1.347 . S
C781 H809 0.931 . S
C782 C781 1.347 . S
C782 C783 1.369 . S
C783 C782 1.369 . S
C783 C784 1.408 . S
C783 H810 0.930 . S
C784 C779 1.348 . S
C784 C783 1.408 . S
C784 H811 0.930 . S
C785 O798 1.281 . S
C785 O799 1.254 . S
C786 O800 1.236 . S
C786 O801 1.266 . S
C787 Tb777 2.809 . S
C787 C788 1.514 . S
C787 O802 1.248 . S
C787 O803 1.266 . S
C788 C787 1.514 . S
C788 C789 1.359 . S
C788 C793 1.348 . S
C789 C788 1.359 . S
C789 C790 1.380 . S
C789 H812 0.929 . S
C790 C789 1.380 . S
C790 C791 1.347 . S
C790 H813 0.931 . S
C791 C790 1.347 . S
C791 C792 1.369 . S
C792 C791 1.369 . S
C792 C793 1.408 . S
C792 H814 0.930 . S
C793 C788 1.348 . S
C793 C792 1.408 . S
C793 H815 0.930 . S
C794 O804 1.281 . S
C794 O805 1.254 . S
C795 O806 1.236 . S
C795 O807 1.266 . S
O796 Tb776 2.484 . S
O796 C778 1.248 . S
O797 Tb776 2.440 . S
O797 C778 1.266 . S
O798 Tb776 2.658 . S
O798 Tb777 2.325 . S
O798 C785 1.281 . S
O799 Tb776 2.409 . S
O799 C785 1.254 . S
O800 Tb776 2.378 . S
O800 C786 1.236 . S
O801 Tb777 2.341 . S
O801 C786 1.266 . S
O802 Tb777 2.484 . S
O802 C787 1.248 . S
O803 Tb777 2.440 . S
O803 C787 1.266 . S
O804 Tb776 2.325 . S
O804 Tb777 2.658 . S
O804 C794 1.281 . S
O805 Tb777 2.409 . S
O805 C794 1.254 . S
O806 Tb777 2.378 . S
O806 C795 1.236 . S
O807 Tb776 2.341 . S
O807 C795 1.266 . S
H808 C780 0.929 . S
H809 C781 0.931 . S
H810 C783 0.930 . S
H811 C784 0.930 . S
H812 C789 0.929 . S
H813 C790 0.931 . S
H814 C792 0.930 . S
H815 C793 0.930 . S
Tb816 C818 2.809 . S
Tb816 O836 2.484 . S
Tb816 O837 2.440 . S
Tb816 O838 2.658 . S
Tb816 O839 2.409 . S
Tb816 O840 2.378 . S
Tb816 O844 2.325 . S
Tb816 O847 2.341 . S
Tb817 C827 2.809 . S
Tb817 O838 2.325 . S
Tb817 O841 2.341 . S
Tb817 O842 2.484 . S
Tb817 O843 2.440 . S
Tb817 O844 2.658 . S
Tb817 O845 2.409 . S
Tb817 O846 2.378 . S
C818 Tb816 2.809 . S
C818 C819 1.514 . S
C818 O836 1.248 . S
C818 O837 1.266 . S
C819 C818 1.514 . S
C819 C820 1.359 . S
C819 C824 1.348 . S
C820 C819 1.359 . S
C820 C821 1.380 . S
C820 H848 0.929 . S
C821 C820 1.380 . S
C821 C822 1.347 . S
C821 H849 0.931 . S
C822 C821 1.347 . S
C822 C823 1.369 . S
C823 C822 1.369 . S
C823 C824 1.408 . S
C823 H850 0.930 . S
C824 C819 1.348 . S
C824 C823 1.408 . S
C824 H851 0.930 . S
C825 O838 1.281 . S
C825 O839 1.254 . S
C826 O840 1.236 . S
C826 O841 1.266 . S
C827 Tb817 2.809 . S
C827 C828 1.514 . S
C827 O842 1.248 . S
C827 O843 1.266 . S
C828 C827 1.514 . S
C828 C829 1.359 . S
C828 C833 1.348 . S
C829 C828 1.359 . S
C829 C830 1.380 . S
C829 H852 0.929 . S
C830 C829 1.380 . S
C830 C831 1.347 . S
C830 H853 0.931 . S
C831 C830 1.347 . S
C831 C832 1.369 . S
C832 C831 1.369 . S
C832 C833 1.408 . S
C832 H854 0.930 . S
C833 C828 1.348 . S
C833 C832 1.408 . S
C833 H855 0.930 . S
C834 O844 1.281 . S
C834 O845 1.254 . S
C835 O846 1.236 . S
C835 O847 1.266 . S
O836 Tb816 2.484 . S
O836 C818 1.248 . S
O837 Tb816 2.440 . S
O837 C818 1.266 . S
O838 Tb816 2.658 . S
O838 Tb817 2.325 . S
O838 C825 1.281 . S
O839 Tb816 2.409 . S
O839 C825 1.254 . S
O840 Tb816 2.378 . S
O840 C826 1.236 . S
O841 Tb817 2.341 . S
O841 C826 1.266 . S
O842 Tb817 2.484 . S
O842 C827 1.248 . S
O843 Tb817 2.440 . S
O843 C827 1.266 . S
O844 Tb816 2.325 . S
O844 Tb817 2.658 . S
O844 C834 1.281 . S
O845 Tb817 2.409 . S
O845 C834 1.254 . S
O846 Tb817 2.378 . S
O846 C835 1.236 . S
O847 Tb816 2.341 . S
O847 C835 1.266 . S
H848 C820 0.929 . S
H849 C821 0.931 . S
H850 C823 0.930 . S
H851 C824 0.930 . S
H852 C829 0.929 . S
H853 C830 0.931 . S
H854 C832 0.930 . S
H855 C833 0.930 . S
Tb856 C858 2.809 . S
Tb856 O876 2.484 . S
Tb856 O877 2.440 . S
Tb856 O878 2.658 . S
Tb856 O879 2.409 . S
Tb856 O880 2.378 . S
Tb856 O884 2.325 . S
Tb856 O887 2.341 . S
Tb857 C867 2.809 . S
Tb857 O878 2.325 . S
Tb857 O881 2.341 . S
Tb857 O882 2.484 . S
Tb857 O883 2.440 . S
Tb857 O884 2.658 . S
Tb857 O885 2.409 . S
Tb857 O886 2.378 . S
C858 Tb856 2.809 . S
C858 C859 1.514 . S
C858 O876 1.248 . S
C858 O877 1.266 . S
C859 C858 1.514 . S
C859 C860 1.359 . S
C859 C864 1.348 . S
C860 C859 1.359 . S
C860 C861 1.380 . S
C860 H888 0.929 . S
C861 C860 1.380 . S
C861 C862 1.347 . S
C861 H889 0.931 . S
C862 C861 1.347 . S
C862 C863 1.369 . S
C863 C862 1.369 . S
C863 C864 1.408 . S
C863 H890 0.930 . S
C864 C859 1.348 . S
C864 C863 1.408 . S
C864 H891 0.930 . S
C865 O878 1.281 . S
C865 O879 1.254 . S
C866 O880 1.236 . S
C866 O881 1.266 . S
C867 Tb857 2.809 . S
C867 C868 1.514 . S
C867 O882 1.248 . S
C867 O883 1.266 . S
C868 C867 1.514 . S
C868 C869 1.359 . S
C868 C873 1.348 . S
C869 C868 1.359 . S
C869 C870 1.380 . S
C869 H892 0.929 . S
C870 C869 1.380 . S
C870 C871 1.347 . S
C870 H893 0.931 . S
C871 C870 1.347 . S
C871 C872 1.369 . S
C872 C871 1.369 . S
C872 C873 1.408 . S
C872 H894 0.930 . S
C873 C868 1.348 . S
C873 C872 1.408 . S
C873 H895 0.930 . S
C874 O884 1.281 . S
C874 O885 1.254 . S
C875 O886 1.236 . S
C875 O887 1.266 . S
O876 Tb856 2.484 . S
O876 C858 1.248 . S
O877 Tb856 2.440 . S
O877 C858 1.266 . S
O878 Tb856 2.658 . S
O878 Tb857 2.325 . S
O878 C865 1.281 . S
O879 Tb856 2.409 . S
O879 C865 1.254 . S
O880 Tb856 2.378 . S
O880 C866 1.236 . S
O881 Tb857 2.341 . S
O881 C866 1.266 . S
O882 Tb857 2.484 . S
O882 C867 1.248 . S
O883 Tb857 2.440 . S
O883 C867 1.266 . S
O884 Tb856 2.325 . S
O884 Tb857 2.658 . S
O884 C874 1.281 . S
O885 Tb857 2.409 . S
O885 C874 1.254 . S
O886 Tb857 2.378 . S
O886 C875 1.236 . S
O887 Tb856 2.341 . S
O887 C875 1.266 . S
H888 C860 0.929 . S
H889 C861 0.931 . S
H890 C863 0.930 . S
H891 C864 0.930 . S
H892 C869 0.929 . S
H893 C870 0.931 . S
H894 C872 0.930 . S
H895 C873 0.930 . S
Tb896 C898 2.809 . S
Tb896 O916 2.484 . S
Tb896 O917 2.440 . S
Tb896 O918 2.658 . S
Tb896 O919 2.409 . S
Tb896 O920 2.378 . S
Tb896 O924 2.325 . S
Tb896 O927 2.341 . S
Tb897 C907 2.809 . S
Tb897 O918 2.325 . S
Tb897 O921 2.341 . S
Tb897 O922 2.484 . S
Tb897 O923 2.440 . S
Tb897 O924 2.658 . S
Tb897 O925 2.409 . S
Tb897 O926 2.378 . S
C898 Tb896 2.809 . S
C898 C899 1.514 . S
C898 O916 1.248 . S
C898 O917 1.266 . S
C899 C898 1.514 . S
C899 C900 1.359 . S
C899 C904 1.348 . S
C900 C899 1.359 . S
C900 C901 1.380 . S
C900 H928 0.929 . S
C901 C900 1.380 . S
C901 C902 1.347 . S
C901 H929 0.931 . S
C902 C901 1.347 . S
C902 C903 1.369 . S
C903 C902 1.369 . S
C903 C904 1.408 . S
C903 H930 0.930 . S
C904 C899 1.348 . S
C904 C903 1.408 . S
C904 H931 0.930 . S
C905 O918 1.281 . S
C905 O919 1.254 . S
C906 O920 1.236 . S
C906 O921 1.266 . S
C907 Tb897 2.809 . S
C907 C908 1.514 . S
C907 O922 1.248 . S
C907 O923 1.266 . S
C908 C907 1.514 . S
C908 C909 1.359 . S
C908 C913 1.348 . S
C909 C908 1.359 . S
C909 C910 1.380 . S
C909 H932 0.929 . S
C910 C909 1.380 . S
C910 C911 1.347 . S
C910 H933 0.931 . S
C911 C910 1.347 . S
C911 C912 1.369 . S
C912 C911 1.369 . S
C912 C913 1.408 . S
C912 H934 0.930 . S
C913 C908 1.348 . S
C913 C912 1.408 . S
C913 H935 0.930 . S
C914 O924 1.281 . S
C914 O925 1.254 . S
C915 O926 1.236 . S
C915 O927 1.266 . S
O916 Tb896 2.484 . S
O916 C898 1.248 . S
O917 Tb896 2.440 . S
O917 C898 1.266 . S
O918 Tb896 2.658 . S
O918 Tb897 2.325 . S
O918 C905 1.281 . S
O919 Tb896 2.409 . S
O919 C905 1.254 . S
O920 Tb896 2.378 . S
O920 C906 1.236 . S
O921 Tb897 2.341 . S
O921 C906 1.266 . S
O922 Tb897 2.484 . S
O922 C907 1.248 . S
O923 Tb897 2.440 . S
O923 C907 1.266 . S
O924 Tb896 2.325 . S
O924 Tb897 2.658 . S
O924 C914 1.281 . S
O925 Tb897 2.409 . S
O925 C914 1.254 . S
O926 Tb897 2.378 . S
O926 C915 1.236 . S
O927 Tb896 2.341 . S
O927 C915 1.266 . S
H928 C900 0.929 . S
H929 C901 0.931 . S
H930 C903 0.930 . S
H931 C904 0.930 . S
H932 C909 0.929 . S
H933 C910 0.931 . S
H934 C912 0.930 . S
H935 C913 0.930 . S
Tb936 C938 2.809 . S
Tb936 O956 2.484 . S
Tb936 O957 2.440 . S
Tb936 O958 2.658 . S
Tb936 O959 2.409 1_554 S
Tb936 O960 2.378 . S
Tb936 O964 2.325 . S
Tb936 O967 2.341 . S
Tb937 C947 2.809 1_455 S
Tb937 O958 2.325 . S
Tb937 O961 2.341 . S
Tb937 O962 2.484 1_455 S
Tb937 O963 2.440 1_455 S
Tb937 O964 2.658 . S
Tb937 O965 2.409 . S
Tb937 O966 2.378 . S
C938 Tb936 2.809 . S
C938 C939 1.514 . S
C938 O956 1.248 . S
C938 O957 1.266 . S
C939 C938 1.514 . S
C939 C940 1.359 . S
C939 C944 1.348 . S
C940 C939 1.359 . S
C940 C941 1.380 . S
C940 H968 0.929 . S
C941 C940 1.380 . S
C941 C942 1.347 . S
C941 H969 0.931 . S
C942 C941 1.347 . S
C942 C943 1.369 1_554 S
C943 C942 1.369 1_556 S
C943 C944 1.408 1_556 S
C943 H970 0.930 . S
C944 C939 1.348 . S
C944 C943 1.408 1_554 S
C944 H971 0.930 1_554 S
C945 O958 1.277 . S
C945 O959 1.255 1_554 S
C946 O960 1.236 . S
C946 O961 1.266 . S
C947 Tb937 2.809 1_655 S
C947 C948 1.514 . S
C947 O962 1.248 . S
C947 O963 1.266 . S
C948 C947 1.514 . S
C948 C949 1.359 . S
C948 C953 1.348 . S
C949 C948 1.359 . S
C949 C950 1.380 . S
C949 H972 0.929 . S
C950 C949 1.380 . S
C950 C951 1.347 . S
C950 H973 0.931 . S
C951 C950 1.347 . S
C951 C952 1.369 . S
C952 C951 1.369 . S
C952 C953 1.408 . S
C952 H974 0.930 . S
C953 C948 1.348 . S
C953 C952 1.408 . S
C953 H975 0.930 . S
C954 O964 1.281 . S
C954 O965 1.254 . S
C955 O966 1.236 . S
C955 O967 1.266 . S
O956 Tb936 2.484 . S
O956 C938 1.248 . S
O957 Tb936 2.440 . S
O957 C938 1.266 . S
O958 Tb936 2.658 . S
O958 Tb937 2.325 . S
O958 C945 1.277 . S
O959 Tb936 2.409 1_556 S
O959 C945 1.255 1_556 S
O960 Tb936 2.378 . S
O960 C946 1.236 . S
O961 Tb937 2.341 . S
O961 C946 1.266 . S
O962 Tb937 2.484 1_655 S
O962 C947 1.248 . S
O963 Tb937 2.440 1_655 S
O963 C947 1.266 . S
O964 Tb936 2.325 . S
O964 Tb937 2.658 . S
O964 C954 1.281 . S
O965 Tb937 2.409 . S
O965 C954 1.254 . S
O966 Tb937 2.378 . S
O966 C955 1.236 . S
O967 Tb936 2.341 . S
O967 C955 1.266 . S
H968 C940 0.929 . S
H969 C941 0.931 . S
H970 C943 0.930 . S
H971 C944 0.930 1_556 S
H972 C949 0.929 . S
H973 C950 0.931 . S
H974 C952 0.930 . S
H975 C953 0.930 . S
H976 C988 0.930 . S
H977 C990 0.930 . S
H978 C991 0.930 . S
H979 C995 0.959 1_655 S
H980 C995 0.959 . S
H981 C995 0.961 . S
H982 C996 0.960 . S
H983 C996 0.961 . S
H984 C996 0.959 . S
H985 C999 0.929 . S
H986 C1000 0.931 . S
H987 C1002 0.926 1_556 S
C988 H976 0.930 . S
C988 C989 1.399 . S
C988 C993 1.399 . S
C989 C988 1.399 . S
C989 C990 1.376 1_556 S
C990 H977 0.930 . S
C990 C989 1.376 1_554 S
C990 C991 1.388 . S
C991 H978 0.930 . S
C991 C990 1.388 . S
C991 C992 1.390 . S
C992 C991 1.390 . S
C992 C993 1.394 1_554 S
C992 C998 1.465 . S
C993 C988 1.399 . S
C993 C992 1.394 1_556 S
C993 C994 1.516 . S
C994 C993 1.516 . S
C994 C995 1.502 . S
C994 C996 1.561 . S
C994 C997 1.526 1_556 S
C995 H979 0.959 1_455 S
C995 H980 0.959 . S
C995 H981 0.961 . S
C995 C994 1.502 . S
C996 H982 0.960 . S
C996 H983 0.961 . S
C996 H984 0.959 . S
C996 C994 1.561 . S
C997 C994 1.526 1_554 S
C997 C998 1.396 . S
C997 C1002 1.390 . S
C998 C992 1.465 . S
C998 C997 1.396 . S
C998 C999 1.399 . S
C999 H985 0.929 . S
C999 C998 1.399 . S
C999 C1000 1.385 . S
C1000 H986 0.931 . S
C1000 C999 1.385 . S
C1000 C1001 1.389 . S
C1001 C1000 1.389 . S
C1001 C1002 1.387 . S
C1002 H987 0.926 1_554 S
C1002 C997 1.390 . S
C1002 C1001 1.387 . S
H1003 C1015 0.930 . S
H1004 C1017 0.930 . S
H1005 C1018 0.930 . S
H1006 C1022 0.959 . S
H1007 C1022 0.959 . S
H1008 C1022 0.961 . S
H1009 C1023 0.960 . S
H1010 C1023 0.961 . S
H1011 C1023 0.959 . S
H1012 C1026 0.929 . S
H1013 C1027 0.931 . S
H1014 C1029 0.930 . S
C1015 H1003 0.930 . S
C1015 C1016 1.399 . S
C1015 C1020 1.399 . S
C1016 C1015 1.399 . S
C1016 C1017 1.376 . S
C1017 H1004 0.930 . S
C1017 C1016 1.376 . S
C1017 C1018 1.388 . S
C1018 H1005 0.930 . S
C1018 C1017 1.388 . S
C1018 C1019 1.390 . S
C1019 C1018 1.390 . S
C1019 C1020 1.394 . S
C1019 C1025 1.465 . S
C1020 C1015 1.399 . S
C1020 C1019 1.394 . S
C1020 C1021 1.516 . S
C1021 C1020 1.516 . S
C1021 C1022 1.502 . S
C1021 C1023 1.561 . S
C1021 C1024 1.526 . S
C1022 H1006 0.959 . S
C1022 H1007 0.959 . S
C1022 H1008 0.961 . S
C1022 C1021 1.502 . S
C1023 H1009 0.960 . S
C1023 H1010 0.961 . S
C1023 H1011 0.959 . S
C1023 C1021 1.561 . S
C1024 C1021 1.526 . S
C1024 C1025 1.396 . S
C1024 C1029 1.390 . S
C1025 C1019 1.465 . S
C1025 C1024 1.396 . S
C1025 C1026 1.399 . S
C1026 H1012 0.929 . S
C1026 C1025 1.399 . S
C1026 C1027 1.385 . S
C1027 H1013 0.931 . S
C1027 C1026 1.385 . S
C1027 C1028 1.389 . S
C1028 C1027 1.389 . S
C1028 C1029 1.387 . S
C1029 H1014 0.930 . S
C1029 C1024 1.390 . S
C1029 C1028 1.387 . S
H1030 C1042 0.930 . S
H1031 C1044 0.930 . S
H1032 C1045 0.930 . S
H1033 C1049 0.959 . S
H1034 C1049 0.959 . S
H1035 C1049 0.961 . S
H1036 C1050 0.960 . S
H1037 C1050 0.961 . S
H1038 C1050 0.959 . S
H1039 C1053 0.929 . S
H1040 C1054 0.931 . S
H1041 C1056 0.930 . S
C1042 H1030 0.930 . S
C1042 C1043 1.399 . S
C1042 C1047 1.399 . S
C1043 C1042 1.399 . S
C1043 C1044 1.376 . S
C1044 H1031 0.930 . S
C1044 C1043 1.376 . S
C1044 C1045 1.388 . S
C1045 H1032 0.930 . S
C1045 C1044 1.388 . S
C1045 C1046 1.390 . S
C1046 C1045 1.390 . S
C1046 C1047 1.394 . S
C1046 C1052 1.465 . S
C1047 C1042 1.399 . S
C1047 C1046 1.394 . S
C1047 C1048 1.516 . S
C1048 C1047 1.516 . S
C1048 C1049 1.502 . S
C1048 C1050 1.561 . S
C1048 C1051 1.526 . S
C1049 H1033 0.959 . S
C1049 H1034 0.959 . S
C1049 H1035 0.961 . S
C1049 C1048 1.502 . S
C1050 H1036 0.960 . S
C1050 H1037 0.961 . S
C1050 H1038 0.959 . S
C1050 C1048 1.561 . S
C1051 C1048 1.526 . S
C1051 C1052 1.396 . S
C1051 C1056 1.390 . S
C1052 C1046 1.465 . S
C1052 C1051 1.396 . S
C1052 C1053 1.399 . S
C1053 H1039 0.929 . S
C1053 C1052 1.399 . S
C1053 C1054 1.385 . S
C1054 H1040 0.931 . S
C1054 C1053 1.385 . S
C1054 C1055 1.389 . S
C1055 C1054 1.389 . S
C1055 C1056 1.387 . S
C1056 H1041 0.930 . S
C1056 C1051 1.390 . S
C1056 C1055 1.387 . S
H1057 C1069 0.930 . S
H1058 C1071 0.930 . S
H1059 C1072 0.930 . S
H1060 C1076 0.959 . S
H1061 C1076 0.959 . S
H1062 C1076 0.961 . S
H1063 C1077 0.960 . S
H1064 C1077 0.961 . S
H1065 C1077 0.959 . S
H1066 C1080 0.929 . S
H1067 C1081 0.931 . S
H1068 C1083 0.930 . S
C1069 H1057 0.930 . S
C1069 C1070 1.399 . S
C1069 C1074 1.399 . S
C1070 C1069 1.399 . S
C1070 C1071 1.376 . S
C1071 H1058 0.930 . S
C1071 C1070 1.376 . S
C1071 C1072 1.388 . S
C1072 H1059 0.930 . S
C1072 C1071 1.388 . S
C1072 C1073 1.390 . S
C1073 C1072 1.390 . S
C1073 C1074 1.394 . S
C1073 C1079 1.465 . S
C1074 C1069 1.399 . S
C1074 C1073 1.394 . S
C1074 C1075 1.516 . S
C1075 C1074 1.516 . S
C1075 C1076 1.502 . S
C1075 C1077 1.561 . S
C1075 C1078 1.526 . S
C1076 H1060 0.959 . S
C1076 H1061 0.959 . S
C1076 H1062 0.961 . S
C1076 C1075 1.502 . S
C1077 H1063 0.960 . S
C1077 H1064 0.961 . S
C1077 H1065 0.959 . S
C1077 C1075 1.561 . S
C1078 C1075 1.526 . S
C1078 C1079 1.396 . S
C1078 C1083 1.390 . S
C1079 C1073 1.465 . S
C1079 C1078 1.396 . S
C1079 C1080 1.399 . S
C1080 H1066 0.929 . S
C1080 C1079 1.399 . S
C1080 C1081 1.385 . S
C1081 H1067 0.931 . S
C1081 C1080 1.385 . S
C1081 C1082 1.389 . S
C1082 C1081 1.389 . S
C1082 C1083 1.387 . S
C1083 H1068 0.930 . S
C1083 C1078 1.390 . S
C1083 C1082 1.387 . S
H1084 C1096 0.930 . S
H1085 C1098 0.930 . S
H1086 C1099 0.930 . S
H1087 C1103 0.959 . S
H1088 C1103 0.959 . S
H1089 C1103 0.961 . S
H1090 C1104 0.960 . S
H1091 C1104 0.961 . S
H1092 C1104 0.959 . S
H1093 C1107 0.929 . S
H1094 C1108 0.931 . S
H1095 C1110 0.930 . S
C1096 H1084 0.930 . S
C1096 C1097 1.399 . S
C1096 C1101 1.399 . S
C1097 C1096 1.399 . S
C1097 C1098 1.376 . S
C1098 H1085 0.930 . S
C1098 C1097 1.376 . S
C1098 C1099 1.388 . S
C1099 H1086 0.930 . S
C1099 C1098 1.388 . S
C1099 C1100 1.390 . S
C1100 C1099 1.390 . S
C1100 C1101 1.394 . S
C1100 C1106 1.465 . S
C1101 C1096 1.399 . S
C1101 C1100 1.394 . S
C1101 C1102 1.516 . S
C1102 C1101 1.516 . S
C1102 C1103 1.502 . S
C1102 C1104 1.561 . S
C1102 C1105 1.526 . S
C1103 H1087 0.959 . S
C1103 H1088 0.959 . S
C1103 H1089 0.961 . S
C1103 C1102 1.502 . S
C1104 H1090 0.960 . S
C1104 H1091 0.961 . S
C1104 H1092 0.959 . S
C1104 C1102 1.561 . S
C1105 C1102 1.526 . S
C1105 C1106 1.396 . S
C1105 C1110 1.390 . S
C1106 C1100 1.465 . S
C1106 C1105 1.396 . S
C1106 C1107 1.399 . S
C1107 H1093 0.929 . S
C1107 C1106 1.399 . S
C1107 C1108 1.385 . S
C1108 H1094 0.931 . S
C1108 C1107 1.385 . S
C1108 C1109 1.389 . S
C1109 C1108 1.389 . S
C1109 C1110 1.387 . S
C1110 H1095 0.930 . S
C1110 C1105 1.390 . S
C1110 C1109 1.387 . S
H1111 C1123 0.930 . S
H1112 C1125 0.930 . S
H1113 C1126 0.930 . S
H1114 C1130 0.959 . S
H1115 C1130 0.959 . S
H1116 C1130 0.961 . S
H1117 C1131 0.960 . S
H1118 C1131 0.961 . S
H1119 C1131 0.959 . S
H1120 C1134 0.929 . S
H1121 C1135 0.931 . S
H1122 C1137 0.930 . S
C1123 H1111 0.930 . S
C1123 C1124 1.399 . S
C1123 C1128 1.399 . S
C1124 C1123 1.399 . S
C1124 C1125 1.376 . S
C1125 H1112 0.930 . S
C1125 C1124 1.376 . S
C1125 C1126 1.388 . S
C1126 H1113 0.930 . S
C1126 C1125 1.388 . S
C1126 C1127 1.390 . S
C1127 C1126 1.390 . S
C1127 C1128 1.394 . S
C1127 C1133 1.465 . S
C1128 C1123 1.399 . S
C1128 C1127 1.394 . S
C1128 C1129 1.516 . S
C1129 C1128 1.516 . S
C1129 C1130 1.502 . S
C1129 C1131 1.561 . S
C1129 C1132 1.526 . S
C1130 H1114 0.959 . S
C1130 H1115 0.959 . S
C1130 H1116 0.961 . S
C1130 C1129 1.502 . S
C1131 H1117 0.960 . S
C1131 H1118 0.961 . S
C1131 H1119 0.959 . S
C1131 C1129 1.561 . S
C1132 C1129 1.526 . S
C1132 C1133 1.396 . S
C1132 C1137 1.390 . S
C1133 C1127 1.465 . S
C1133 C1132 1.396 . S
C1133 C1134 1.399 . S
C1134 H1120 0.929 . S
C1134 C1133 1.399 . S
C1134 C1135 1.385 . S
C1135 H1121 0.931 . S
C1135 C1134 1.385 . S
C1135 C1136 1.389 . S
C1136 C1135 1.389 . S
C1136 C1137 1.387 . S
C1137 H1122 0.930 . S
C1137 C1132 1.390 . S
C1137 C1136 1.387 . S
H1138 C1150 0.930 . S
H1139 C1152 0.930 . S
H1140 C1153 0.930 . S
H1141 C1157 0.959 . S
H1142 C1157 0.959 . S
H1143 C1157 0.961 . S
H1144 C1158 0.960 . S
H1145 C1158 0.961 . S
H1146 C1158 0.959 . S
H1147 C1161 0.929 . S
H1148 C1162 0.931 . S
H1149 C1164 0.930 . S
C1150 H1138 0.930 . S
C1150 C1151 1.399 . S
C1150 C1155 1.399 . S
C1151 C1150 1.399 . S
C1151 C1152 1.376 . S
C1152 H1139 0.930 . S
C1152 C1151 1.376 . S
C1152 C1153 1.388 . S
C1153 H1140 0.930 . S
C1153 C1152 1.388 . S
C1153 C1154 1.390 . S
C1154 C1153 1.390 . S
C1154 C1155 1.394 . S
C1154 C1160 1.465 . S
C1155 C1150 1.399 . S
C1155 C1154 1.394 . S
C1155 C1156 1.516 . S
C1156 C1155 1.516 . S
C1156 C1157 1.502 . S
C1156 C1158 1.561 . S
C1156 C1159 1.526 . S
C1157 H1141 0.959 . S
C1157 H1142 0.959 . S
C1157 H1143 0.961 . S
C1157 C1156 1.502 . S
C1158 H1144 0.960 . S
C1158 H1145 0.961 . S
C1158 H1146 0.959 . S
C1158 C1156 1.561 . S
C1159 C1156 1.526 . S
C1159 C1160 1.396 . S
C1159 C1164 1.390 . S
C1160 C1154 1.465 . S
C1160 C1159 1.396 . S
C1160 C1161 1.399 . S
C1161 H1147 0.929 . S
C1161 C1160 1.399 . S
C1161 C1162 1.385 . S
C1162 H1148 0.931 . S
C1162 C1161 1.385 . S
C1162 C1163 1.389 . S
C1163 C1162 1.389 . S
C1163 C1164 1.387 . S
C1164 H1149 0.930 . S
C1164 C1159 1.390 . S
C1164 C1163 1.387 . S
H1165 C1177 0.930 . S
H1166 C1179 0.930 . S
H1167 C1180 0.930 . S
H1168 C1184 0.959 . S
H1169 C1184 0.959 . S
H1170 C1184 0.961 . S
H1171 C1185 0.960 . S
H1172 C1185 0.961 . S
H1173 C1185 0.959 . S
H1174 C1188 0.929 . S
H1175 C1189 0.931 . S
H1176 C1191 0.930 . S
C1177 H1165 0.930 . S
C1177 C1178 1.399 . S
C1177 C1182 1.399 . S
C1178 C1177 1.399 . S
C1178 C1179 1.376 . S
C1179 H1166 0.930 . S
C1179 C1178 1.376 . S
C1179 C1180 1.388 . S
C1180 H1167 0.930 . S
C1180 C1179 1.388 . S
C1180 C1181 1.390 . S
C1181 C1180 1.390 . S
C1181 C1182 1.394 . S
C1181 C1187 1.465 . S
C1182 C1177 1.399 . S
C1182 C1181 1.394 . S
C1182 C1183 1.516 . S
C1183 C1182 1.516 . S
C1183 C1184 1.502 . S
C1183 C1185 1.561 . S
C1183 C1186 1.526 . S
C1184 H1168 0.959 . S
C1184 H1169 0.959 . S
C1184 H1170 0.961 . S
C1184 C1183 1.502 . S
C1185 H1171 0.960 . S
C1185 H1172 0.961 . S
C1185 H1173 0.959 . S
C1185 C1183 1.561 . S
C1186 C1183 1.526 . S
C1186 C1187 1.396 . S
C1186 C1191 1.390 . S
C1187 C1181 1.465 . S
C1187 C1186 1.396 . S
C1187 C1188 1.399 . S
C1188 H1174 0.929 . S
C1188 C1187 1.399 . S
C1188 C1189 1.385 . S
C1189 H1175 0.931 . S
C1189 C1188 1.385 . S
C1189 C1190 1.389 . S
C1190 C1189 1.389 . S
C1190 C1191 1.387 . S
C1191 H1176 0.930 . S
C1191 C1186 1.390 . S
C1191 C1190 1.387 . S
H1192 C1204 0.930 . S
H1193 C1206 0.930 . S
H1194 C1207 0.930 . S
H1195 C1211 0.959 . S
H1196 C1211 0.959 . S
H1197 C1211 0.961 . S
H1198 C1212 0.960 . S
H1199 C1212 0.961 . S
H1200 C1212 0.959 . S
H1201 C1215 0.934 . S
H1202 C1216 0.931 . S
H1203 C1218 0.930 . S
C1204 H1192 0.930 . S
C1204 C1205 1.388 1_545 S
C1204 C1209 1.399 . S
C1205 C1204 1.388 1_565 S
C1205 C1206 1.388 . S
C1206 H1193 0.930 . S
C1206 C1205 1.388 . S
C1206 C1207 1.388 . S
C1207 H1194 0.930 . S
C1207 C1206 1.388 . S
C1207 C1208 1.390 . S
C1208 C1207 1.390 . S
C1208 C1209 1.394 1_565 S
C1208 C1214 1.465 1_565 S
C1209 C1204 1.399 . S
C1209 C1208 1.394 1_545 S
C1209 C1210 1.516 . S
C1210 C1209 1.516 . S
C1210 C1211 1.502 . S
C1210 C1212 1.561 1_655 S
C1210 C1213 1.526 1_655 S
C1211 H1195 0.959 . S
C1211 H1196 0.959 . S
C1211 H1197 0.961 . S
C1211 C1210 1.502 . S
C1212 H1198 0.960 . S
C1212 H1199 0.961 . S
C1212 H1200 0.959 . S
C1212 C1210 1.561 1_455 S
C1213 C1210 1.526 1_455 S
C1213 C1214 1.396 1_455 S
C1213 C1218 1.390 . S
C1214 C1208 1.465 1_545 S
C1214 C1213 1.396 1_655 S
C1214 C1215 1.418 1_545 S
C1215 H1201 0.934 . S
C1215 C1214 1.418 1_565 S
C1215 C1216 1.363 1_655 S
C1216 H1202 0.931 . S
C1216 C1215 1.363 1_455 S
C1216 C1217 1.389 1_565 S
C1217 C1216 1.389 1_545 S
C1217 C1218 1.387 . S
C1218 H1203 0.930 . S
C1218 C1213 1.390 . S
C1218 C1217 1.387 . S
H1219 C1231 0.930 . S
H1220 C1233 0.930 . S
H1221 C1234 0.930 . S
H1222 C1238 0.959 . S
H1223 C1238 0.959 . S
H1224 C1238 0.961 . S
H1225 C1239 0.960 . S
H1226 C1239 0.961 . S
H1227 C1239 0.959 . S
H1228 C1242 0.929 . S
H1229 C1243 0.931 . S
H1230 C1245 0.930 . S
C1231 H1219 0.930 . S
C1231 C1232 1.399 . S
C1231 C1236 1.399 . S
C1232 C1231 1.399 . S
C1232 C1233 1.376 . S
C1233 H1220 0.930 . S
C1233 C1232 1.376 . S
C1233 C1234 1.388 . S
C1234 H1221 0.930 . S
C1234 C1233 1.388 . S
C1234 C1235 1.390 . S
C1235 C1234 1.390 . S
C1235 C1236 1.394 . S
C1235 C1241 1.465 . S
C1236 C1231 1.399 . S
C1236 C1235 1.394 . S
C1236 C1237 1.516 . S
C1237 C1236 1.516 . S
C1237 C1238 1.502 . S
C1237 C1239 1.561 . S
C1237 C1240 1.526 . S
C1238 H1222 0.959 . S
C1238 H1223 0.959 . S
C1238 H1224 0.961 . S
C1238 C1237 1.502 . S
C1239 H1225 0.960 . S
C1239 H1226 0.961 . S
C1239 H1227 0.959 . S
C1239 C1237 1.561 . S
C1240 C1237 1.526 . S
C1240 C1241 1.396 . S
C1240 C1245 1.390 . S
C1241 C1235 1.465 . S
C1241 C1240 1.396 . S
C1241 C1242 1.399 . S
C1242 H1228 0.929 . S
C1242 C1241 1.399 . S
C1242 C1243 1.385 . S
C1243 H1229 0.931 . S
C1243 C1242 1.385 . S
C1243 C1244 1.389 . S
C1244 C1243 1.389 . S
C1244 C1245 1.387 . S
C1245 H1230 0.930 . S
C1245 C1240 1.390 . S
C1245 C1244 1.387 . S
H1246 C1258 0.930 . S
H1247 C1260 0.930 . S
H1248 C1261 0.930 . S
H1249 C1265 0.959 . S
H1250 C1265 0.959 . S
H1251 C1265 0.961 . S
H1252 C1266 0.960 . S
H1253 C1266 0.961 . S
H1254 C1266 0.959 . S
H1255 C1269 0.929 . S
H1256 C1270 0.931 . S
H1257 C1272 0.930 . S
C1258 H1246 0.930 . S
C1258 C1259 1.399 . S
C1258 C1263 1.399 . S
C1259 C1258 1.399 . S
C1259 C1260 1.376 1_545 S
C1260 H1247 0.930 . S
C1260 C1259 1.376 1_565 S
C1260 C1261 1.388 . S
C1261 H1248 0.930 . S
C1261 C1260 1.388 . S
C1261 C1262 1.390 1_565 S
C1262 C1261 1.390 1_545 S
C1262 C1263 1.394 . S
C1262 C1268 1.465 . S
C1263 C1258 1.399 . S
C1263 C1262 1.394 . S
C1263 C1264 1.516 . S
C1264 C1263 1.516 . S
C1264 C1265 1.502 . S
C1264 C1266 1.561 . S
C1264 C1267 1.526 . S
C1265 H1249 0.959 . S
C1265 H1250 0.959 . S
C1265 H1251 0.961 . S
C1265 C1264 1.502 . S
C1266 H1252 0.960 . S
C1266 H1253 0.961 . S
C1266 H1254 0.959 . S
C1266 C1264 1.561 . S
C1267 C1264 1.526 . S
C1267 C1268 1.396 . S
C1267 C1272 1.390 . S
C1268 C1262 1.465 . S
C1268 C1267 1.396 . S
C1268 C1269 1.399 1_545 S
C1269 H1255 0.929 . S
C1269 C1268 1.399 1_565 S
C1269 C1270 1.385 . S
C1270 H1256 0.931 . S
C1270 C1269 1.385 . S
C1270 C1271 1.389 1_565 S
C1271 C1270 1.389 1_545 S
C1271 C1272 1.387 . S
C1272 H1257 0.930 . S
C1272 C1267 1.390 . S
C1272 C1271 1.387 . S
H1273 C1285 0.930 . S
H1274 C1287 0.930 . S
H1275 C1288 0.930 . S
H1276 C1292 0.959 . S
H1277 C1292 0.959 . S
H1278 C1292 0.961 . S
H1279 C1293 0.960 . S
H1280 C1293 0.961 . S
H1281 C1293 0.959 . S
H1282 C1296 0.929 . S
H1283 C1297 0.931 . S
H1284 C1299 0.930 . S
C1285 H1273 0.930 . S
C1285 C1286 1.399 . S
C1285 C1290 1.399 . S
C1286 C1285 1.399 . S
C1286 C1287 1.376 . S
C1287 H1274 0.930 . S
C1287 C1286 1.376 . S
C1287 C1288 1.388 . S
C1288 H1275 0.930 . S
C1288 C1287 1.388 . S
C1288 C1289 1.390 . S
C1289 C1288 1.390 . S
C1289 C1290 1.394 . S
C1289 C1295 1.465 . S
C1290 C1285 1.399 . S
C1290 C1289 1.394 . S
C1290 C1291 1.516 . S
C1291 C1290 1.516 . S
C1291 C1292 1.502 . S
C1291 C1293 1.561 . S
C1291 C1294 1.526 . S
C1292 H1276 0.959 . S
C1292 H1277 0.959 . S
C1292 H1278 0.961 . S
C1292 C1291 1.502 . S
C1293 H1279 0.960 . S
C1293 H1280 0.961 . S
C1293 H1281 0.959 . S
C1293 C1291 1.561 . S
C1294 C1291 1.526 . S
C1294 C1295 1.396 . S
C1294 C1299 1.390 . S
C1295 C1289 1.465 . S
C1295 C1294 1.396 . S
C1295 C1296 1.399 . S
C1296 H1282 0.929 . S
C1296 C1295 1.399 . S
C1296 C1297 1.385 . S
C1297 H1283 0.931 . S
C1297 C1296 1.385 . S
C1297 C1298 1.389 . S
C1298 C1297 1.389 . S
C1298 C1299 1.387 . S
C1299 H1284 0.930 . S
C1299 C1294 1.390 . S
C1299 C1298 1.387 . S
H1300 C1312 0.930 . S
H1301 C1314 0.930 . S
H1302 C1315 0.930 1_455 S
H1303 C1319 0.959 . S
H1304 C1319 0.959 . S
H1305 C1319 0.961 . S
H1306 C1320 0.960 . S
H1307 C1320 0.961 . S
H1308 C1320 0.959 1_455 S
H1309 C1323 0.929 . S
H1310 C1324 0.931 . S
H1311 C1326 0.922 1_665 S
C1312 H1300 0.930 . S
C1312 C1313 1.399 1_565 S
C1312 C1317 1.400 . S
C1313 C1312 1.399 1_545 S
C1313 C1314 1.376 . S
C1314 H1301 0.930 . S
C1314 C1313 1.376 . S
C1314 C1315 1.388 . S
C1315 H1302 0.930 1_655 S
C1315 C1314 1.388 . S
C1315 C1316 1.390 . S
C1316 C1315 1.390 . S
C1316 C1317 1.361 1_545 S
C1316 C1322 1.465 1_655 S
C1317 C1312 1.400 . S
C1317 C1316 1.361 1_565 S
C1317 C1318 1.546 . S
C1318 C1317 1.546 . S
C1318 C1319 1.502 . S
C1318 C1320 1.561 . S
C1318 C1321 1.526 1_565 S
C1319 H1303 0.959 . S
C1319 H1304 0.959 . S
C1319 H1305 0.961 . S
C1319 C1318 1.502 . S
C1320 H1306 0.960 . S
C1320 H1307 0.961 . S
C1320 H1308 0.959 1_655 S
C1320 C1318 1.561 . S
C1321 C1318 1.526 1_545 S
C1321 C1322 1.396 1_655 S
C1321 C1326 1.392 1_655 S
C1322 C1316 1.465 1_455 S
C1322 C1321 1.396 1_455 S
C1322 C1323 1.399 . S
C1323 H1309 0.929 . S
C1323 C1322 1.399 . S
C1323 C1324 1.385 . S
C1324 H1310 0.931 . S
C1324 C1323 1.385 . S
C1324 C1325 1.389 . S
C1325 C1324 1.389 . S
C1325 C1326 1.392 . S
C1326 H1311 0.922 1_445 S
C1326 C1321 1.392 1_455 S
C1326 C1325 1.392 . S
H1327 C1339 0.930 . S
H1328 C1341 0.930 . S
H1329 C1342 0.930 . S
H1330 C1346 0.959 . S
H1331 C1346 0.959 . S
H1332 C1346 0.961 . S
H1333 C1347 0.960 . S
H1334 C1347 0.961 . S
H1335 C1347 0.959 . S
H1336 C1350 0.929 . S
H1337 C1351 0.931 . S
H1338 C1353 0.930 . S
C1339 H1327 0.930 . S
C1339 C1340 1.399 . S
C1339 C1344 1.399 . S
C1340 C1339 1.399 . S
C1340 C1341 1.376 . S
C1341 H1328 0.930 . S
C1341 C1340 1.376 . S
C1341 C1342 1.388 . S
C1342 H1329 0.930 . S
C1342 C1341 1.388 . S
C1342 C1343 1.390 . S
C1343 C1342 1.390 . S
C1343 C1344 1.394 . S
C1343 C1349 1.465 . S
C1344 C1339 1.399 . S
C1344 C1343 1.394 . S
C1344 C1345 1.516 . S
C1345 C1344 1.516 . S
C1345 C1346 1.502 . S
C1345 C1347 1.561 . S
C1345 C1348 1.526 . S
C1346 H1330 0.959 . S
C1346 H1331 0.959 . S
C1346 H1332 0.961 . S
C1346 C1345 1.502 . S
C1347 H1333 0.960 . S
C1347 H1334 0.961 . S
C1347 H1335 0.959 . S
C1347 C1345 1.561 . S
C1348 C1345 1.526 . S
C1348 C1349 1.396 . S
C1348 C1353 1.390 . S
C1349 C1343 1.465 . S
C1349 C1348 1.396 . S
C1349 C1350 1.399 . S
C1350 H1336 0.929 . S
C1350 C1349 1.399 . S
C1350 C1351 1.385 . S
C1351 H1337 0.931 . S
C1351 C1350 1.385 . S
C1351 C1352 1.389 . S
C1352 C1351 1.389 . S
C1352 C1353 1.387 . S
C1353 H1338 0.930 . S
C1353 C1348 1.390 . S
C1353 C1352 1.387 . S
H1354 C1366 0.930 1_565 S
H1355 C1368 0.930 . S
H1356 C1369 0.930 . S
H1357 C1373 0.959 . S
H1358 C1373 0.959 . S
H1359 C1373 0.961 . S
H1360 C1374 0.960 . S
H1361 C1374 0.961 . S
H1362 C1374 0.959 . S
H1363 C1377 0.929 . S
H1364 C1378 0.931 . S
H1365 C1380 0.930 . S
C1366 H1354 0.930 1_545 S
C1366 C1367 1.399 . S
C1366 C1371 1.399 . S
C1367 C1366 1.399 . S
C1367 C1368 1.376 . S
C1368 H1355 0.930 . S
C1368 C1367 1.376 . S
C1368 C1369 1.388 . S
C1369 H1356 0.930 . S
C1369 C1368 1.388 . S
C1369 C1370 1.390 . S
C1370 C1369 1.390 . S
C1370 C1371 1.394 . S
C1370 C1376 1.465 . S
C1371 C1366 1.399 . S
C1371 C1370 1.394 . S
C1371 C1372 1.533 . S
C1372 C1371 1.533 . S
C1372 C1373 1.491 1_545 S
C1372 C1374 1.536 1_545 S
C1372 C1375 1.549 . S
C1373 H1357 0.959 . S
C1373 H1358 0.959 . S
C1373 H1359 0.961 . S
C1373 C1372 1.491 1_565 S
C1374 H1360 0.960 . S
C1374 H1361 0.961 . S
C1374 H1362 0.959 . S
C1374 C1372 1.536 1_565 S
C1375 C1372 1.549 . S
C1375 C1376 1.396 . S
C1375 C1380 1.390 . S
C1376 C1370 1.465 . S
C1376 C1375 1.396 . S
C1376 C1377 1.399 . S
C1377 H1363 0.929 . S
C1377 C1376 1.399 . S
C1377 C1378 1.385 . S
C1378 H1364 0.931 . S
C1378 C1377 1.385 . S
C1378 C1379 1.389 . S
C1379 C1378 1.389 . S
C1379 C1380 1.387 . S
C1380 H1365 0.930 . S
C1380 C1375 1.390 . S
C1380 C1379 1.387 . S
H1381 C1393 0.930 . S
H1382 C1395 0.930 . S
H1383 C1396 0.930 . S
H1384 C1400 0.959 . S
H1385 C1400 0.959 . S
H1386 C1400 0.961 . S
H1387 C1401 0.960 . S
H1388 C1401 0.961 . S
H1389 C1401 0.959 . S
H1390 C1404 0.929 . S
H1391 C1405 0.931 . S
H1392 C1407 0.930 . S
C1393 H1381 0.930 . S
C1393 C1394 1.399 . S
C1393 C1398 1.399 . S
C1394 C1393 1.399 . S
C1394 C1395 1.376 . S
C1395 H1382 0.930 . S
C1395 C1394 1.376 . S
C1395 C1396 1.388 . S
C1396 H1383 0.930 . S
C1396 C1395 1.388 . S
C1396 C1397 1.390 . S
C1397 C1396 1.390 . S
C1397 C1398 1.394 . S
C1397 C1403 1.465 . S
C1398 C1393 1.399 . S
C1398 C1397 1.394 . S
C1398 C1399 1.516 . S
C1399 C1398 1.516 . S
C1399 C1400 1.502 . S
C1399 C1401 1.561 . S
C1399 C1402 1.526 . S
C1400 H1384 0.959 . S
C1400 H1385 0.959 . S
C1400 H1386 0.961 . S
C1400 C1399 1.502 . S
C1401 H1387 0.960 . S
C1401 H1388 0.961 . S
C1401 H1389 0.959 . S
C1401 C1399 1.561 . S
C1402 C1399 1.526 . S
C1402 C1403 1.396 . S
C1402 C1407 1.390 . S
C1403 C1397 1.465 . S
C1403 C1402 1.396 . S
C1403 C1404 1.399 . S
C1404 H1390 0.929 . S
C1404 C1403 1.399 . S
C1404 C1405 1.385 . S
C1405 H1391 0.931 . S
C1405 C1404 1.385 . S
C1405 C1406 1.389 . S
C1406 C1405 1.389 . S
C1406 C1407 1.387 . S
C1407 H1392 0.930 . S
C1407 C1402 1.390 . S
C1407 C1406 1.387 . S
H1408 C1420 0.930 1_556 S
H1409 C1422 0.930 . S
H1410 C1423 0.930 . S
H1411 C1427 0.959 . S
H1412 C1427 0.959 . S
H1413 C1427 0.961 . S
H1414 C1428 0.960 . S
H1415 C1428 0.961 . S
H1416 C1428 0.959 . S
H1417 C1431 0.929 . S
H1418 C1432 0.931 . S
H1419 C1434 0.930 . S
C1420 H1408 0.930 1_554 S
C1420 C1421 1.399 . S
C1420 C1425 1.399 . S
C1421 C1420 1.399 . S
C1421 C1422 1.376 . S
C1422 H1409 0.930 . S
C1422 C1421 1.376 . S
C1422 C1423 1.388 . S
C1423 H1410 0.930 . S
C1423 C1422 1.388 . S
C1423 C1424 1.390 . S
C1424 C1423 1.390 . S
C1424 C1425 1.394 . S
C1424 C1430 1.465 . S
C1425 C1420 1.399 . S
C1425 C1424 1.394 . S
C1425 C1426 1.516 . S
C1426 C1425 1.516 . S
C1426 C1427 1.502 1_554 S
C1426 C1428 1.561 . S
C1426 C1429 1.526 . S
C1427 H1411 0.959 . S
C1427 H1412 0.959 . S
C1427 H1413 0.961 . S
C1427 C1426 1.502 1_556 S
C1428 H1414 0.960 . S
C1428 H1415 0.961 . S
C1428 H1416 0.959 . S
C1428 C1426 1.561 . S
C1429 C1426 1.526 . S
C1429 C1430 1.396 . S
C1429 C1434 1.390 . S
C1430 C1424 1.465 . S
C1430 C1429 1.396 . S
C1430 C1431 1.399 . S
C1431 H1417 0.929 . S
C1431 C1430 1.399 . S
C1431 C1432 1.385 . S
C1432 H1418 0.931 . S
C1432 C1431 1.385 . S
C1432 C1433 1.389 . S
C1433 C1432 1.389 . S
C1433 C1434 1.387 . S
C1434 H1419 0.930 . S
C1434 C1429 1.390 . S
C1434 C1433 1.387 . S
H1435 C1447 0.930 . S
H1436 C1449 0.930 1_556 S
H1437 C1450 0.930 1_556 S
H1438 C1454 0.959 . S
H1439 C1454 0.959 . S
H1440 C1454 0.961 . S
H1441 C1455 0.960 . S
H1442 C1455 0.961 . S
H1443 C1455 0.959 . S
H1444 C1458 0.929 1_556 S
H1445 C1459 0.929 1_556 S
H1446 C1461 0.930 . S
C1447 H1435 0.930 . S
C1447 C1448 1.399 . S
C1447 C1452 1.399 . S
C1448 C1447 1.399 . S
C1448 C1449 1.376 . S
C1449 H1436 0.930 1_554 S
C1449 C1448 1.376 . S
C1449 C1450 1.388 . S
C1450 H1437 0.930 1_554 S
C1450 C1449 1.388 . S
C1450 C1451 1.390 . S
C1451 C1450 1.390 . S
C1451 C1452 1.394 . S
C1451 C1457 1.465 . S
C1452 C1447 1.399 . S
C1452 C1451 1.394 . S
C1452 C1453 1.516 . S
C1453 C1452 1.516 . S
C1453 C1454 1.502 . S
C1453 C1455 1.561 . S
C1453 C1456 1.526 . S
C1454 H1438 0.959 . S
C1454 H1439 0.959 . S
C1454 H1440 0.961 . S
C1454 C1453 1.502 . S
C1455 H1441 0.960 . S
C1455 H1442 0.961 . S
C1455 H1443 0.959 . S
C1455 C1453 1.561 . S
C1456 C1453 1.526 . S
C1456 C1457 1.396 . S
C1456 C1461 1.390 . S
C1457 C1451 1.465 . S
C1457 C1456 1.396 . S
C1457 C1458 1.399 . S
C1458 H1444 0.929 1_554 S
C1458 C1457 1.399 . S
C1458 C1459 1.385 . S
C1459 H1445 0.929 1_554 S
C1459 C1458 1.385 . S
C1459 C1460 1.389 . S
C1460 C1459 1.389 . S
C1460 C1461 1.387 . S
C1461 H1446 0.930 . S
C1461 C1456 1.390 . S
C1461 C1460 1.387 . S
H1462 C1474 0.930 . S
H1463 C1476 0.930 . S
H1464 C1477 0.930 . S
H1465 C1481 0.959 . S
H1466 C1481 0.959 . S
H1467 C1481 0.961 . S
H1468 C1482 0.960 . S
H1469 C1482 0.961 . S
H1470 C1482 0.959 . S
H1471 C1485 0.929 . S
H1472 C1486 0.931 . S
H1473 C1488 0.930 . S
C1474 H1462 0.930 . S
C1474 C1475 1.399 . S
C1474 C1479 1.399 . S
C1475 C1474 1.399 . S
C1475 C1476 1.376 . S
C1476 H1463 0.930 . S
C1476 C1475 1.376 . S
C1476 C1477 1.388 . S
C1477 H1464 0.930 . S
C1477 C1476 1.388 . S
C1477 C1478 1.390 . S
C1478 C1477 1.390 . S
C1478 C1479 1.394 . S
C1478 C1484 1.465 . S
C1479 C1474 1.399 . S
C1479 C1478 1.394 . S
C1479 C1480 1.516 . S
C1480 C1479 1.516 . S
C1480 C1481 1.502 . S
C1480 C1482 1.561 . S
C1480 C1483 1.526 . S
C1481 H1465 0.959 . S
C1481 H1466 0.959 . S
C1481 H1467 0.961 . S
C1481 C1480 1.502 . S
C1482 H1468 0.960 . S
C1482 H1469 0.961 . S
C1482 H1470 0.959 . S
C1482 C1480 1.561 . S
C1483 C1480 1.526 . S
C1483 C1484 1.396 . S
C1483 C1488 1.390 . S
C1484 C1478 1.465 . S
C1484 C1483 1.396 . S
C1484 C1485 1.399 . S
C1485 H1471 0.929 . S
C1485 C1484 1.399 . S
C1485 C1486 1.385 . S
C1486 H1472 0.931 . S
C1486 C1485 1.385 . S
C1486 C1487 1.389 . S
C1487 C1486 1.389 . S
C1487 C1488 1.387 . S
C1488 H1473 0.930 . S
C1488 C1483 1.390 . S
C1488 C1487 1.387 . S
H1489 C1501 0.930 . S
H1490 C1503 0.930 . S
H1491 C1504 0.930 . S
H1492 C1508 0.959 . S
H1493 C1508 0.959 . S
H1494 C1508 0.961 . S
H1495 C1509 0.960 . S
H1496 C1509 0.961 . S
H1497 C1509 0.959 . S
H1498 C1512 0.929 . S
H1499 C1513 0.931 . S
H1500 C1515 0.930 . S
C1501 H1489 0.930 . S
C1501 C1502 1.399 . S
C1501 C1506 1.399 . S
C1502 C1501 1.399 . S
C1502 C1503 1.376 . S
C1503 H1490 0.930 . S
C1503 C1502 1.376 . S
C1503 C1504 1.388 . S
C1504 H1491 0.930 . S
C1504 C1503 1.388 . S
C1504 C1505 1.390 . S
C1505 C1504 1.390 . S
C1505 C1506 1.394 . S
C1505 C1511 1.465 . S
C1506 C1501 1.399 . S
C1506 C1505 1.394 . S
C1506 C1507 1.516 . S
C1507 C1506 1.516 . S
C1507 C1508 1.502 . S
C1507 C1509 1.561 . S
C1507 C1510 1.526 . S
C1508 H1492 0.959 . S
C1508 H1493 0.959 . S
C1508 H1494 0.961 . S
C1508 C1507 1.502 . S
C1509 H1495 0.960 . S
C1509 H1496 0.961 . S
C1509 H1497 0.959 . S
C1509 C1507 1.561 . S
C1510 C1507 1.526 . S
C1510 C1511 1.396 . S
C1510 C1515 1.390 . S
C1511 C1505 1.465 . S
C1511 C1510 1.396 . S
C1511 C1512 1.399 . S
C1512 H1498 0.929 . S
C1512 C1511 1.399 . S
C1512 C1513 1.385 . S
C1513 H1499 0.931 . S
C1513 C1512 1.385 . S
C1513 C1514 1.389 . S
C1514 C1513 1.389 . S
C1514 C1515 1.387 . S
C1515 H1500 0.930 . S
C1515 C1510 1.390 . S
C1515 C1514 1.387 . S
H1516 C1528 0.930 . S
H1517 C1530 0.930 . S
H1518 C1531 0.930 . S
H1519 C1535 0.959 . S
H1520 C1535 0.959 . S
H1521 C1535 0.961 . S
H1522 C1536 0.960 . S
H1523 C1536 0.961 . S
H1524 C1536 0.959 . S
H1525 C1539 0.929 . S
H1526 C1540 0.931 . S
H1527 C1542 0.930 . S
C1528 H1516 0.930 . S
C1528 C1529 1.399 . S
C1528 C1533 1.399 . S
C1529 C1528 1.399 . S
C1529 C1530 1.376 . S
C1530 H1517 0.930 . S
C1530 C1529 1.376 . S
C1530 C1531 1.388 . S
C1531 H1518 0.930 . S
C1531 C1530 1.388 . S
C1531 C1532 1.390 . S
C1532 C1531 1.390 . S
C1532 C1533 1.394 . S
C1532 C1538 1.465 . S
C1533 C1528 1.399 . S
C1533 C1532 1.394 . S
C1533 C1534 1.516 . S
C1534 C1533 1.516 . S
C1534 C1535 1.502 . S
C1534 C1536 1.561 . S
C1534 C1537 1.526 . S
C1535 H1519 0.959 . S
C1535 H1520 0.959 . S
C1535 H1521 0.961 . S
C1535 C1534 1.502 . S
C1536 H1522 0.960 . S
C1536 H1523 0.961 . S
C1536 H1524 0.959 . S
C1536 C1534 1.561 . S
C1537 C1534 1.526 . S
C1537 C1538 1.396 . S
C1537 C1542 1.390 . S
C1538 C1532 1.465 . S
C1538 C1537 1.396 . S
C1538 C1539 1.399 . S
C1539 H1525 0.929 . S
C1539 C1538 1.399 . S
C1539 C1540 1.385 . S
C1540 H1526 0.931 . S
C1540 C1539 1.385 . S
C1540 C1541 1.389 . S
C1541 C1540 1.389 . S
C1541 C1542 1.387 . S
C1542 H1527 0.930 . S
C1542 C1537 1.390 . S
C1542 C1541 1.387 . S
H1543 C1555 0.930 . S
H1544 C1557 0.930 . S
H1545 C1558 0.930 . S
H1546 C1562 0.959 . S
H1547 C1562 0.959 . S
H1548 C1562 0.961 . S
H1549 C1563 0.960 . S
H1550 C1563 0.961 . S
H1551 C1563 0.959 . S
H1552 C1566 0.929 . S
H1553 C1567 0.931 . S
H1554 C1569 0.930 . S
C1555 H1543 0.930 . S
C1555 C1556 1.399 . S
C1555 C1560 1.399 . S
C1556 C1555 1.399 . S
C1556 C1557 1.376 . S
C1557 H1544 0.930 . S
C1557 C1556 1.376 . S
C1557 C1558 1.388 . S
C1558 H1545 0.930 . S
C1558 C1557 1.388 . S
C1558 C1559 1.390 . S
C1559 C1558 1.390 . S
C1559 C1560 1.394 . S
C1559 C1565 1.465 . S
C1560 C1555 1.399 . S
C1560 C1559 1.394 . S
C1560 C1561 1.516 . S
C1561 C1560 1.516 . S
C1561 C1562 1.502 . S
C1561 C1563 1.561 . S
C1561 C1564 1.526 . S
C1562 H1546 0.959 . S
C1562 H1547 0.959 . S
C1562 H1548 0.961 . S
C1562 C1561 1.502 . S
C1563 H1549 0.960 . S
C1563 H1550 0.961 . S
C1563 H1551 0.959 . S
C1563 C1561 1.561 . S
C1564 C1561 1.526 . S
C1564 C1565 1.396 . S
C1564 C1569 1.390 . S
C1565 C1559 1.465 . S
C1565 C1564 1.396 . S
C1565 C1566 1.399 . S
C1566 H1552 0.929 . S
C1566 C1565 1.399 . S
C1566 C1567 1.385 . S
C1567 H1553 0.931 . S
C1567 C1566 1.385 . S
C1567 C1568 1.389 . S
C1568 C1567 1.389 . S
C1568 C1569 1.387 . S
C1569 H1554 0.930 . S
C1569 C1564 1.390 . S
C1569 C1568 1.387 . S
H1570 C1582 0.930 . S
H1571 C1584 0.930 . S
H1572 C1585 0.930 . S
H1573 C1589 0.959 . S
H1574 C1589 0.959 . S
H1575 C1589 0.961 . S
H1576 C1590 0.960 . S
H1577 C1590 0.961 . S
H1578 C1590 0.959 . S
H1579 C1593 0.929 . S
H1580 C1594 0.931 . S
H1581 C1596 0.930 . S
C1582 H1570 0.930 . S
C1582 C1583 1.399 . S
C1582 C1587 1.399 . S
C1583 C1582 1.399 . S
C1583 C1584 1.376 . S
C1584 H1571 0.930 . S
C1584 C1583 1.376 . S
C1584 C1585 1.388 . S
C1585 H1572 0.930 . S
C1585 C1584 1.388 . S
C1585 C1586 1.390 . S
C1586 C1585 1.390 . S
C1586 C1587 1.394 . S
C1586 C1592 1.465 . S
C1587 C1582 1.399 . S
C1587 C1586 1.394 . S
C1587 C1588 1.516 . S
C1588 C1587 1.516 . S
C1588 C1589 1.502 . S
C1588 C1590 1.561 . S
C1588 C1591 1.526 . S
C1589 H1573 0.959 . S
C1589 H1574 0.959 . S
C1589 H1575 0.961 . S
C1589 C1588 1.502 . S
C1590 H1576 0.960 . S
C1590 H1577 0.961 . S
C1590 H1578 0.959 . S
C1590 C1588 1.561 . S
C1591 C1588 1.526 . S
C1591 C1592 1.396 . S
C1591 C1596 1.390 . S
C1592 C1586 1.465 . S
C1592 C1591 1.396 . S
C1592 C1593 1.399 . S
C1593 H1579 0.929 . S
C1593 C1592 1.399 . S
C1593 C1594 1.385 . S
C1594 H1580 0.931 . S
C1594 C1593 1.385 . S
C1594 C1595 1.389 . S
C1595 C1594 1.389 . S
C1595 C1596 1.387 . S
C1596 H1581 0.930 . S
C1596 C1591 1.390 . S
C1596 C1595 1.387 . S
H1597 C1609 0.930 . S
H1598 C1611 0.930 . S
H1599 C1612 0.930 . S
H1600 C1616 0.959 . S
H1601 C1616 0.959 . S
H1602 C1616 0.961 . S
H1603 C1617 0.960 . S
H1604 C1617 0.961 . S
H1605 C1617 0.959 . S
H1606 C1620 0.929 . S
H1607 C1621 0.931 . S
H1608 C1623 0.930 . S
C1609 H1597 0.930 . S
C1609 C1610 1.399 . S
C1609 C1614 1.399 . S
C1610 C1609 1.399 . S
C1610 C1611 1.376 . S
C1611 H1598 0.930 . S
C1611 C1610 1.376 . S
C1611 C1612 1.388 . S
C1612 H1599 0.930 . S
C1612 C1611 1.388 . S
C1612 C1613 1.390 . S
C1613 C1612 1.390 . S
C1613 C1614 1.394 . S
C1613 C1619 1.465 . S
C1614 C1609 1.399 . S
C1614 C1613 1.394 . S
C1614 C1615 1.516 . S
C1615 C1614 1.516 . S
C1615 C1616 1.502 . S
C1615 C1617 1.561 . S
C1615 C1618 1.526 . S
C1616 H1600 0.959 . S
C1616 H1601 0.959 . S
C1616 H1602 0.961 . S
C1616 C1615 1.502 . S
C1617 H1603 0.960 . S
C1617 H1604 0.961 . S
C1617 H1605 0.959 . S
C1617 C1615 1.561 . S
C1618 C1615 1.526 . S
C1618 C1619 1.396 . S
C1618 C1623 1.390 . S
C1619 C1613 1.465 . S
C1619 C1618 1.396 . S
C1619 C1620 1.399 . S
C1620 H1606 0.929 . S
C1620 C1619 1.399 . S
C1620 C1621 1.385 . S
C1621 H1607 0.931 . S
C1621 C1620 1.385 . S
C1621 C1622 1.389 . S
C1622 C1621 1.389 . S
C1622 C1623 1.387 . S
C1623 H1608 0.930 . S
C1623 C1618 1.390 . S
C1623 C1622 1.387 . S
H1624 C1636 0.930 . S
H1625 C1638 0.930 . S
H1626 C1639 0.930 . S
H1627 C1643 0.959 . S
H1628 C1643 0.959 . S
H1629 C1643 0.961 . S
H1630 C1644 0.960 . S
H1631 C1644 0.961 . S
H1632 C1644 0.959 . S
H1633 C1647 0.929 . S
H1634 C1648 0.931 . S
H1635 C1650 0.930 . S
C1636 H1624 0.930 . S
C1636 C1637 1.399 . S
C1636 C1641 1.399 . S
C1637 C1636 1.399 . S
C1637 C1638 1.376 . S
C1638 H1625 0.930 . S
C1638 C1637 1.376 . S
C1638 C1639 1.388 . S
C1639 H1626 0.930 . S
C1639 C1638 1.388 . S
C1639 C1640 1.390 . S
C1640 C1639 1.390 . S
C1640 C1641 1.394 . S
C1640 C1646 1.465 . S
C1641 C1636 1.399 . S
C1641 C1640 1.394 . S
C1641 C1642 1.516 . S
C1642 C1641 1.516 . S
C1642 C1643 1.502 . S
C1642 C1644 1.561 . S
C1642 C1645 1.526 . S
C1643 H1627 0.959 . S
C1643 H1628 0.959 . S
C1643 H1629 0.961 . S
C1643 C1642 1.502 . S
C1644 H1630 0.960 . S
C1644 H1631 0.961 . S
C1644 H1632 0.959 . S
C1644 C1642 1.561 . S
C1645 C1642 1.526 . S
C1645 C1646 1.396 . S
C1645 C1650 1.390 . S
C1646 C1640 1.465 . S
C1646 C1645 1.396 . S
C1646 C1647 1.399 . S
C1647 H1633 0.929 . S
C1647 C1646 1.399 . S
C1647 C1648 1.385 . S
C1648 H1634 0.931 . S
C1648 C1647 1.385 . S
C1648 C1649 1.389 . S
C1649 C1648 1.389 . S
C1649 C1650 1.387 . S
C1650 H1635 0.930 . S
C1650 C1645 1.390 . S
C1650 C1649 1.387 . S
H1651 C1663 0.930 . S
H1652 C1665 0.930 . S
H1653 C1666 0.930 . S
H1654 C1670 0.959 . S
H1655 C1670 0.959 . S
H1656 C1670 0.961 . S
H1657 C1671 0.960 . S
H1658 C1671 0.961 . S
H1659 C1671 0.959 . S
H1660 C1674 0.929 . S
H1661 C1675 0.931 . S
H1662 C1677 0.930 . S
C1663 H1651 0.930 . S
C1663 C1664 1.399 . S
C1663 C1668 1.399 . S
C1664 C1663 1.399 . S
C1664 C1665 1.376 . S
C1665 H1652 0.930 . S
C1665 C1664 1.376 . S
C1665 C1666 1.388 . S
C1666 H1653 0.930 . S
C1666 C1665 1.388 . S
C1666 C1667 1.390 . S
C1667 C1666 1.390 . S
C1667 C1668 1.394 . S
C1667 C1673 1.465 . S
C1668 C1663 1.399 . S
C1668 C1667 1.394 . S
C1668 C1669 1.516 . S
C1669 C1668 1.516 . S
C1669 C1670 1.502 . S
C1669 C1671 1.561 . S
C1669 C1672 1.526 . S
C1670 H1654 0.959 . S
C1670 H1655 0.959 . S
C1670 H1656 0.961 . S
C1670 C1669 1.502 . S
C1671 H1657 0.960 . S
C1671 H1658 0.961 . S
C1671 H1659 0.959 . S
C1671 C1669 1.561 . S
C1672 C1669 1.526 . S
C1672 C1673 1.396 . S
C1672 C1677 1.390 . S
C1673 C1667 1.465 . S
C1673 C1672 1.396 . S
C1673 C1674 1.399 . S
C1674 H1660 0.929 . S
C1674 C1673 1.399 . S
C1674 C1675 1.385 . S
C1675 H1661 0.931 . S
C1675 C1674 1.385 . S
C1675 C1676 1.389 . S
C1676 C1675 1.389 . S
C1676 C1677 1.387 . S
C1677 H1662 0.930 . S
C1677 C1672 1.390 . S
C1677 C1676 1.387 . S
H1678 C1690 0.930 . S
H1679 C1692 0.930 . S
H1680 C1693 0.930 . S
H1681 C1697 0.959 . S
H1682 C1697 0.959 . S
H1683 C1697 0.961 . S
H1684 C1698 0.960 . S
H1685 C1698 0.961 . S
H1686 C1698 0.959 . S
H1687 C1701 0.929 . S
H1688 C1702 0.931 . S
H1689 C1704 0.930 . S
C1690 H1678 0.930 . S
C1690 C1691 1.399 . S
C1690 C1695 1.399 . S
C1691 C1690 1.399 . S
C1691 C1692 1.376 . S
C1692 H1679 0.930 . S
C1692 C1691 1.376 . S
C1692 C1693 1.388 . S
C1693 H1680 0.930 . S
C1693 C1692 1.388 . S
C1693 C1694 1.390 . S
C1694 C1693 1.390 . S
C1694 C1695 1.394 . S
C1694 C1700 1.465 . S
C1695 C1690 1.399 . S
C1695 C1694 1.394 . S
C1695 C1696 1.516 . S
C1696 C1695 1.516 . S
C1696 C1697 1.502 . S
C1696 C1698 1.561 . S
C1696 C1699 1.526 . S
C1697 H1681 0.959 . S
C1697 H1682 0.959 . S
C1697 H1683 0.961 . S
C1697 C1696 1.502 . S
C1698 H1684 0.960 . S
C1698 H1685 0.961 . S
C1698 H1686 0.959 . S
C1698 C1696 1.561 . S
C1699 C1696 1.526 . S
C1699 C1700 1.396 . S
C1699 C1704 1.390 . S
C1700 C1694 1.465 . S
C1700 C1699 1.396 . S
C1700 C1701 1.399 . S
C1701 H1687 0.929 . S
C1701 C1700 1.399 . S
C1701 C1702 1.385 . S
C1702 H1688 0.931 . S
C1702 C1701 1.385 . S
C1702 C1703 1.389 . S
C1703 C1702 1.389 . S
C1703 C1704 1.387 . S
C1704 H1689 0.930 . S
C1704 C1699 1.390 . S
C1704 C1703 1.387 . S
H1705 C1717 0.930 . S
H1706 C1719 0.930 . S
H1707 C1720 0.930 . S
H1708 C1724 0.959 . S
H1709 C1724 0.959 . S
H1710 C1724 0.961 . S
H1711 C1725 0.960 . S
H1712 C1725 0.961 . S
H1713 C1725 0.959 . S
H1714 C1728 0.929 . S
H1715 C1729 0.931 . S
H1716 C1731 0.930 . S
C1717 H1705 0.930 . S
C1717 C1718 1.399 . S
C1717 C1722 1.399 . S
C1718 C1717 1.399 . S
C1718 C1719 1.376 . S
C1719 H1706 0.930 . S
C1719 C1718 1.376 . S
C1719 C1720 1.388 . S
C1720 H1707 0.930 . S
C1720 C1719 1.388 . S
C1720 C1721 1.390 . S
C1721 C1720 1.390 . S
C1721 C1722 1.394 . S
C1721 C1727 1.465 . S
C1722 C1717 1.399 . S
C1722 C1721 1.394 . S
C1722 C1723 1.516 . S
C1723 C1722 1.516 . S
C1723 C1724 1.502 . S
C1723 C1725 1.561 . S
C1723 C1726 1.526 . S
C1724 H1708 0.959 . S
C1724 H1709 0.959 . S
C1724 H1710 0.961 . S
C1724 C1723 1.502 . S
C1725 H1711 0.960 . S
C1725 H1712 0.961 . S
C1725 H1713 0.959 . S
C1725 C1723 1.561 . S
C1726 C1723 1.526 . S
C1726 C1727 1.396 . S
C1726 C1731 1.390 . S
C1727 C1721 1.465 . S
C1727 C1726 1.396 . S
C1727 C1728 1.399 . S
C1728 H1714 0.929 . S
C1728 C1727 1.399 . S
C1728 C1729 1.385 . S
C1729 H1715 0.931 . S
C1729 C1728 1.385 . S
C1729 C1730 1.389 . S
C1730 C1729 1.389 . S
C1730 C1731 1.387 . S
C1731 H1716 0.930 . S
C1731 C1726 1.390 . S
C1731 C1730 1.387 . S
H1732 C1744 0.930 . S
H1733 C1746 0.930 . S
H1734 C1747 0.930 . S
H1735 C1751 0.959 . S
H1736 C1751 0.959 . S
H1737 C1751 0.961 . S
H1738 C1752 0.960 . S
H1739 C1752 0.961 . S
H1740 C1752 0.959 . S
H1741 C1755 0.929 . S
H1742 C1756 0.931 . S
H1743 C1758 0.930 . S
C1744 H1732 0.930 . S
C1744 C1745 1.399 1_455 S
C1744 C1749 1.399 . S
C1745 C1744 1.399 1_655 S
C1745 C1746 1.376 . S
C1746 H1733 0.930 . S
C1746 C1745 1.376 . S
C1746 C1747 1.388 . S
C1747 H1734 0.930 . S
C1747 C1746 1.388 . S
C1747 C1748 1.390 . S
C1748 C1747 1.390 . S
C1748 C1749 1.394 1_655 S
C1748 C1754 1.465 . S
C1749 C1744 1.399 . S
C1749 C1748 1.394 1_455 S
C1749 C1750 1.516 . S
C1750 C1749 1.516 . S
C1750 C1751 1.502 . S
C1750 C1752 1.561 1_455 S
C1750 C1753 1.526 . S
C1751 H1735 0.959 . S
C1751 H1736 0.959 . S
C1751 H1737 0.961 . S
C1751 C1750 1.502 . S
C1752 H1738 0.960 . S
C1752 H1739 0.961 . S
C1752 H1740 0.959 . S
C1752 C1750 1.561 1_655 S
C1753 C1750 1.526 . S
C1753 C1754 1.396 1_455 S
C1753 C1758 1.390 . S
C1754 C1748 1.465 . S
C1754 C1753 1.396 1_655 S
C1754 C1755 1.399 . S
C1755 H1741 0.929 . S
C1755 C1754 1.399 . S
C1755 C1756 1.385 . S
C1756 H1742 0.931 . S
C1756 C1755 1.385 . S
C1756 C1757 1.395 . S
C1757 C1756 1.395 . S
C1757 C1758 1.387 1_655 S
C1758 H1743 0.930 . S
C1758 C1753 1.390 . S
C1758 C1757 1.387 1_455 S
H1759 C1771 0.930 . S
H1760 C1773 0.930 . S
H1761 C1774 0.930 . S
H1762 C1778 0.959 . S
H1763 C1778 0.959 . S
H1764 C1778 0.961 . S
H1765 C1779 0.960 . S
H1766 C1779 0.961 . S
H1767 C1779 0.959 . S
H1768 C1782 0.929 . S
H1769 C1783 0.931 . S
H1770 C1785 0.930 . S
C1771 H1759 0.930 . S
C1771 C1772 1.399 . S
C1771 C1776 1.399 . S
C1772 C1771 1.399 . S
C1772 C1773 1.376 . S
C1773 H1760 0.930 . S
C1773 C1772 1.376 . S
C1773 C1774 1.388 . S
C1774 H1761 0.930 . S
C1774 C1773 1.388 . S
C1774 C1775 1.390 . S
C1775 C1774 1.390 . S
C1775 C1776 1.394 . S
C1775 C1781 1.465 . S
C1776 C1771 1.399 . S
C1776 C1775 1.394 . S
C1776 C1777 1.516 . S
C1777 C1776 1.516 . S
C1777 C1778 1.502 . S
C1777 C1779 1.561 . S
C1777 C1780 1.526 . S
C1778 H1762 0.959 . S
C1778 H1763 0.959 . S
C1778 H1764 0.961 . S
C1778 C1777 1.502 . S
C1779 H1765 0.960 . S
C1779 H1766 0.961 . S
C1779 H1767 0.959 . S
C1779 C1777 1.561 . S
C1780 C1777 1.526 . S
C1780 C1781 1.396 . S
C1780 C1785 1.390 . S
C1781 C1775 1.465 . S
C1781 C1780 1.396 . S
C1781 C1782 1.399 . S
C1782 H1768 0.929 . S
C1782 C1781 1.399 . S
C1782 C1783 1.385 . S
C1783 H1769 0.931 . S
C1783 C1782 1.385 . S
C1783 C1784 1.389 . S
C1784 C1783 1.389 . S
C1784 C1785 1.387 . S
C1785 H1770 0.930 . S
C1785 C1780 1.390 . S
C1785 C1784 1.387 . S
H1786 C1798 0.930 . S
H1787 C1800 0.930 . S
H1788 C1801 0.930 . S
H1789 C1805 0.959 . S
H1790 C1805 0.959 . S
H1791 C1805 0.961 . S
H1792 C1806 0.960 . S
H1793 C1806 0.961 1_554 S
H1794 C1806 0.959 . S
H1795 C1809 0.929 . S
H1796 C1810 0.931 . S
H1797 C1812 0.930 . S
C1798 H1786 0.930 . S
C1798 C1799 1.399 . S
C1798 C1803 1.399 . S
C1799 C1798 1.399 . S
C1799 C1800 1.376 . S
C1800 H1787 0.930 . S
C1800 C1799 1.376 . S
C1800 C1801 1.388 . S
C1801 H1788 0.930 . S
C1801 C1800 1.388 . S
C1801 C1802 1.390 . S
C1802 C1801 1.390 . S
C1802 C1803 1.394 . S
C1802 C1808 1.465 . S
C1803 C1798 1.399 . S
C1803 C1802 1.394 . S
C1803 C1804 1.516 . S
C1804 C1803 1.516 . S
C1804 C1805 1.502 1_556 S
C1804 C1806 1.561 . S
C1804 C1807 1.526 . S
C1805 H1789 0.959 . S
C1805 H1790 0.959 . S
C1805 H1791 0.961 . S
C1805 C1804 1.502 1_554 S
C1806 H1792 0.960 . S
C1806 H1793 0.961 1_556 S
C1806 H1794 0.959 . S
C1806 C1804 1.561 . S
C1807 C1804 1.526 . S
C1807 C1808 1.396 . S
C1807 C1812 1.390 1_556 S
C1808 C1802 1.465 . S
C1808 C1807 1.396 . S
C1808 C1809 1.399 . S
C1809 H1795 0.929 . S
C1809 C1808 1.399 . S
C1809 C1810 1.385 . S
C1810 H1796 0.931 . S
C1810 C1809 1.385 . S
C1810 C1811 1.389 1_556 S
C1811 C1810 1.389 1_554 S
C1811 C1812 1.387 . S
C1812 H1797 0.930 . S
C1812 C1807 1.390 1_554 S
C1812 C1811 1.387 . S
H1813 C1825 0.930 . S
H1814 C1827 0.930 . S
H1815 C1828 0.930 . S
H1816 C1832 0.959 . S
H1817 C1832 0.959 . S
H1818 C1832 0.961 . S
H1819 C1833 0.960 . S
H1820 C1833 0.961 . S
H1821 C1833 0.959 . S
H1822 C1836 0.929 . S
H1823 C1837 0.931 . S
H1824 C1839 0.930 . S
C1825 H1813 0.930 . S
C1825 C1826 1.399 . S
C1825 C1830 1.399 1_455 S
C1826 C1825 1.399 . S
C1826 C1827 1.376 . S
C1827 H1814 0.930 . S
C1827 C1826 1.376 . S
C1827 C1828 1.388 1_455 S
C1828 H1815 0.930 . S
C1828 C1827 1.388 1_655 S
C1828 C1829 1.390 . S
C1829 C1828 1.390 . S
C1829 C1830 1.394 . S
C1829 C1835 1.465 . S
C1830 C1825 1.399 1_655 S
C1830 C1829 1.394 . S
C1830 C1831 1.516 . S
C1831 C1830 1.516 . S
C1831 C1832 1.502 . S
C1831 C1833 1.561 . S
C1831 C1834 1.526 . S
C1832 H1816 0.959 . S
C1832 H1817 0.959 . S
C1832 H1818 0.961 . S
C1832 C1831 1.502 . S
C1833 H1819 0.960 . S
C1833 H1820 0.961 . S
C1833 H1821 0.959 . S
C1833 C1831 1.561 . S
C1834 C1831 1.526 . S
C1834 C1835 1.396 . S
C1834 C1839 1.390 . S
C1835 C1829 1.465 . S
C1835 C1834 1.396 . S
C1835 C1836 1.399 . S
C1836 H1822 0.929 . S
C1836 C1835 1.399 . S
C1836 C1837 1.385 . S
C1837 H1823 0.931 . S
C1837 C1836 1.385 . S
C1837 C1838 1.389 . S
C1838 C1837 1.389 . S
C1838 C1839 1.387 . S
C1839 H1824 0.930 . S
C1839 C1834 1.390 . S
C1839 C1838 1.387 . S
H1840 C1852 0.930 . S
H1841 C1854 0.930 . S
H1842 C1855 0.930 . S
H1843 C1859 0.959 . S
H1844 C1859 0.959 . S
H1845 C1859 0.961 . S
H1846 C1860 0.960 . S
H1847 C1860 0.961 . S
H1848 C1860 0.959 . S
H1849 C1863 0.929 . S
H1850 C1864 0.931 . S
H1851 C1866 0.930 1_565 S
C1852 H1840 0.930 . S
C1852 C1853 1.399 . S
C1852 C1857 1.399 . S
C1853 C1852 1.399 . S
C1853 C1854 1.376 . S
C1854 H1841 0.930 . S
C1854 C1853 1.376 . S
C1854 C1855 1.388 . S
C1855 H1842 0.930 . S
C1855 C1854 1.388 . S
C1855 C1856 1.390 . S
C1856 C1855 1.390 . S
C1856 C1857 1.394 . S
C1856 C1862 1.465 . S
C1857 C1852 1.399 . S
C1857 C1856 1.394 . S
C1857 C1858 1.543 . S
C1858 C1857 1.543 . S
C1858 C1859 1.486 1_545 S
C1858 C1860 1.537 1_545 S
C1858 C1861 1.542 . S
C1859 H1843 0.959 . S
C1859 H1844 0.959 . S
C1859 H1845 0.961 . S
C1859 C1858 1.486 1_565 S
C1860 H1846 0.960 . S
C1860 H1847 0.961 . S
C1860 H1848 0.959 . S
C1860 C1858 1.537 1_565 S
C1861 C1858 1.542 . S
C1861 C1862 1.396 . S
C1861 C1866 1.390 . S
C1862 C1856 1.465 . S
C1862 C1861 1.396 . S
C1862 C1863 1.399 . S
C1863 H1849 0.929 . S
C1863 C1862 1.399 . S
C1863 C1864 1.385 . S
C1864 H1850 0.931 . S
C1864 C1863 1.385 . S
C1864 C1865 1.389 . S
C1865 C1864 1.389 . S
C1865 C1866 1.387 . S
C1866 H1851 0.930 1_545 S
C1866 C1861 1.390 . S
C1866 C1865 1.387 . S
H1867 C1879 0.930 . S
H1868 C1881 0.930 . S
H1869 C1882 0.930 . S
H1870 C1886 0.959 . S
H1871 C1886 0.959 . S
H1872 C1886 0.961 . S
H1873 C1887 0.960 . S
H1874 C1887 0.961 . S
H1875 C1887 0.959 . S
H1876 C1890 0.929 . S
H1877 C1891 0.931 . S
H1878 C1893 0.930 . S
C1879 H1867 0.930 . S
C1879 C1880 1.399 . S
C1879 C1884 1.399 . S
C1880 C1879 1.399 . S
C1880 C1881 1.376 . S
C1881 H1868 0.930 . S
C1881 C1880 1.376 . S
C1881 C1882 1.388 . S
C1882 H1869 0.930 . S
C1882 C1881 1.388 . S
C1882 C1883 1.390 . S
C1883 C1882 1.390 . S
C1883 C1884 1.394 . S
C1883 C1889 1.465 . S
C1884 C1879 1.399 . S
C1884 C1883 1.394 . S
C1884 C1885 1.516 . S
C1885 C1884 1.516 . S
C1885 C1886 1.502 . S
C1885 C1887 1.561 . S
C1885 C1888 1.526 . S
C1886 H1870 0.959 . S
C1886 H1871 0.959 . S
C1886 H1872 0.961 . S
C1886 C1885 1.502 . S
C1887 H1873 0.960 . S
C1887 H1874 0.961 . S
C1887 H1875 0.959 . S
C1887 C1885 1.561 . S
C1888 C1885 1.526 . S
C1888 C1889 1.396 . S
C1888 C1893 1.390 . S
C1889 C1883 1.465 . S
C1889 C1888 1.396 . S
C1889 C1890 1.399 . S
C1890 H1876 0.929 . S
C1890 C1889 1.399 . S
C1890 C1891 1.385 . S
C1891 H1877 0.931 . S
C1891 C1890 1.385 . S
C1891 C1892 1.389 . S
C1892 C1891 1.389 . S
C1892 C1893 1.387 . S
C1893 H1878 0.930 . S
C1893 C1888 1.390 . S
C1893 C1892 1.387 . S
H1894 C1906 0.930 . S
H1895 C1908 0.930 . S
H1896 C1909 0.930 . S
H1897 C1913 0.959 . S
H1898 C1913 0.959 1_565 S
H1899 C1913 0.961 1_565 S
H1900 C1914 0.960 . S
H1901 C1914 0.961 . S
H1902 C1914 0.959 . S
H1903 C1917 0.929 . S
H1904 C1918 0.931 . S
H1905 C1920 0.900 1_565 S
C1906 H1894 0.930 . S
C1906 C1907 1.399 . S
C1906 C1911 1.399 . S
C1907 C1906 1.399 . S
C1907 C1908 1.376 . S
C1908 H1895 0.930 . S
C1908 C1907 1.376 . S
C1908 C1909 1.388 . S
C1909 H1896 0.930 . S
C1909 C1908 1.388 . S
C1909 C1910 1.390 . S
C1910 C1909 1.390 . S
C1910 C1911 1.394 . S
C1910 C1916 1.465 . S
C1911 C1906 1.399 . S
C1911 C1910 1.394 . S
C1911 C1912 1.516 . S
C1912 C1911 1.516 . S
C1912 C1913 1.502 . S
C1912 C1914 1.561 1_545 S
C1912 C1915 1.526 . S
C1913 H1897 0.959 . S
C1913 H1898 0.959 1_545 S
C1913 H1899 0.961 1_545 S
C1913 C1912 1.502 . S
C1914 H1900 0.960 . S
C1914 H1901 0.961 . S
C1914 H1902 0.959 . S
C1914 C1912 1.561 1_565 S
C1915 C1912 1.526 . S
C1915 C1916 1.396 . S
C1915 C1920 1.390 . S
C1916 C1910 1.465 . S
C1916 C1915 1.396 . S
C1916 C1917 1.399 . S
C1917 H1903 0.929 . S
C1917 C1916 1.399 . S
C1917 C1918 1.385 . S
C1918 H1904 0.931 . S
C1918 C1917 1.385 . S
C1918 C1919 1.389 . S
C1919 C1918 1.389 . S
C1919 C1920 1.387 . S
C1920 H1905 0.900 1_545 S
C1920 C1915 1.390 . S
C1920 C1919 1.387 . S
H1921 C1933 0.930 . S
H1922 C1935 0.930 . S
H1923 C1936 0.930 . S
H1924 C1940 0.959 . S
H1925 C1940 0.959 . S
H1926 C1940 0.961 . S
H1927 C1941 0.960 . S
H1928 C1941 0.961 . S
H1929 C1941 0.959 . S
H1930 C1944 0.929 . S
H1931 C1945 0.931 . S
H1932 C1947 0.930 . S
C1933 H1921 0.930 . S
C1933 C1934 1.399 . S
C1933 C1938 1.399 . S
C1934 C1933 1.399 . S
C1934 C1935 1.376 . S
C1935 H1922 0.930 . S
C1935 C1934 1.376 . S
C1935 C1936 1.388 . S
C1936 H1923 0.930 . S
C1936 C1935 1.388 . S
C1936 C1937 1.390 . S
C1937 C1936 1.390 . S
C1937 C1938 1.394 . S
C1937 C1943 1.465 . S
C1938 C1933 1.399 . S
C1938 C1937 1.394 . S
C1938 C1939 1.516 . S
C1939 C1938 1.516 . S
C1939 C1940 1.502 . S
C1939 C1941 1.561 . S
C1939 C1942 1.526 . S
C1940 H1924 0.959 . S
C1940 H1925 0.959 . S
C1940 H1926 0.961 . S
C1940 C1939 1.502 . S
C1941 H1927 0.960 . S
C1941 H1928 0.961 . S
C1941 H1929 0.959 . S
C1941 C1939 1.561 . S
C1942 C1939 1.526 . S
C1942 C1943 1.396 . S
C1942 C1947 1.390 . S
C1943 C1937 1.465 . S
C1943 C1942 1.396 . S
C1943 C1944 1.399 . S
C1944 H1930 0.929 . S
C1944 C1943 1.399 . S
C1944 C1945 1.385 . S
C1945 H1931 0.931 . S
C1945 C1944 1.385 . S
C1945 C1946 1.389 . S
C1946 C1945 1.389 . S
C1946 C1947 1.387 . S
C1947 H1932 0.930 . S
C1947 C1942 1.390 . S
C1947 C1946 1.387 . S
H1948 C1960 0.941 . S
H1949 C1962 0.930 . S
H1950 C1963 0.930 . S
H1951 C1967 0.984 . S
H1952 C1967 0.959 . S
H1953 C1967 0.961 . S
H1954 C1968 0.960 . S
H1955 C1968 0.961 . S
H1956 C1968 0.959 . S
H1957 C1971 0.929 . S
H1958 C1972 0.931 . S
H1959 C1974 0.930 1_565 S
C1960 H1948 0.941 . S
C1960 C1961 1.399 . S
C1960 C1965 1.399 . S
C1961 C1960 1.399 . S
C1961 C1962 1.376 . S
C1962 H1949 0.930 . S
C1962 C1961 1.376 . S
C1962 C1963 1.388 . S
C1963 H1950 0.930 . S
C1963 C1962 1.388 . S
C1963 C1964 1.390 . S
C1964 C1963 1.390 . S
C1964 C1965 1.394 . S
C1964 C1970 1.465 . S
C1965 C1960 1.399 . S
C1965 C1964 1.394 . S
C1965 C1966 1.516 1_545 S
C1966 C1965 1.516 1_565 S
C1966 C1967 1.502 . S
C1966 C1968 1.561 . S
C1966 C1969 1.526 1_565 S
C1967 H1951 0.984 . S
C1967 H1952 0.959 . S
C1967 H1953 0.961 . S
C1967 C1966 1.502 . S
C1968 H1954 0.960 . S
C1968 H1955 0.961 . S
C1968 H1956 0.959 . S
C1968 C1966 1.561 . S
C1969 C1966 1.526 1_545 S
C1969 C1970 1.396 . S
C1969 C1974 1.390 . S
C1970 C1964 1.465 . S
C1970 C1969 1.396 . S
C1970 C1971 1.399 . S
C1971 H1957 0.929 . S
C1971 C1970 1.399 . S
C1971 C1972 1.385 . S
C1972 H1958 0.931 . S
C1972 C1971 1.385 . S
C1972 C1973 1.389 . S
C1973 C1972 1.389 . S
C1973 C1974 1.387 . S
C1974 H1959 0.930 1_545 S
C1974 C1969 1.390 . S
C1974 C1973 1.387 . S
H1975 C1987 0.930 . S
H1976 C1989 0.930 . S
H1977 C1990 0.930 . S
H1978 C1994 0.959 . S
H1979 C1994 0.959 . S
H1980 C1994 0.961 . S
H1981 C1995 0.960 . S
H1982 C1995 0.961 . S
H1983 C1995 0.959 . S
H1984 C1998 0.929 . S
H1985 C1999 0.931 . S
H1986 C2001 0.930 . S
C1987 H1975 0.930 . S
C1987 C1988 1.399 . S
C1987 C1992 1.399 . S
C1988 C1987 1.399 . S
C1988 C1989 1.376 . S
C1989 H1976 0.930 . S
C1989 C1988 1.376 . S
C1989 C1990 1.388 . S
C1990 H1977 0.930 . S
C1990 C1989 1.388 . S
C1990 C1991 1.390 . S
C1991 C1990 1.390 . S
C1991 C1992 1.394 . S
C1991 C1997 1.465 . S
C1992 C1987 1.399 . S
C1992 C1991 1.394 . S
C1992 C1993 1.516 . S
C1993 C1992 1.516 . S
C1993 C1994 1.502 . S
C1993 C1995 1.561 . S
C1993 C1996 1.526 . S
C1994 H1978 0.959 . S
C1994 H1979 0.959 . S
C1994 H1980 0.961 . S
C1994 C1993 1.502 . S
C1995 H1981 0.960 . S
C1995 H1982 0.961 . S
C1995 H1983 0.959 . S
C1995 C1993 1.561 . S
C1996 C1993 1.526 . S
C1996 C1997 1.396 . S
C1996 C2001 1.390 . S
C1997 C1991 1.465 . S
C1997 C1996 1.396 . S
C1997 C1998 1.399 . S
C1998 H1984 0.929 . S
C1998 C1997 1.399 . S
C1998 C1999 1.385 . S
C1999 H1985 0.931 . S
C1999 C1998 1.385 . S
C1999 C2000 1.389 . S
C2000 C1999 1.389 . S
C2000 C2001 1.387 . S
C2001 H1986 0.930 . S
C2001 C1996 1.390 . S
C2001 C2000 1.387 . S
H2002 C2014 0.930 1_565 S
H2003 C2016 0.930 . S
H2004 C2017 0.930 . S
H2005 C2021 0.959 1_545 S
H2006 C2021 0.959 . S
H2007 C2021 0.961 . S
H2008 C2022 0.960 . S
H2009 C2022 0.961 . S
H2010 C2022 0.959 . S
H2011 C2025 0.929 . S
H2012 C2026 0.931 . S
H2013 C2028 0.930 . S
C2014 H2002 0.930 1_545 S
C2014 C2015 1.399 . S
C2014 C2019 1.399 . S
C2015 C2014 1.399 . S
C2015 C2016 1.376 . S
C2016 H2003 0.930 . S
C2016 C2015 1.376 . S
C2016 C2017 1.388 . S
C2017 H2004 0.930 . S
C2017 C2016 1.388 . S
C2017 C2018 1.390 . S
C2018 C2017 1.390 . S
C2018 C2019 1.394 . S
C2018 C2024 1.465 . S
C2019 C2014 1.399 . S
C2019 C2018 1.394 . S
C2019 C2020 1.516 1_545 S
C2020 C2019 1.516 1_565 S
C2020 C2021 1.502 . S
C2020 C2022 1.561 . S
C2020 C2023 1.526 1_565 S
C2021 H2005 0.959 1_565 S
C2021 H2006 0.959 . S
C2021 H2007 0.961 . S
C2021 C2020 1.502 . S
C2022 H2008 0.960 . S
C2022 H2009 0.961 . S
C2022 H2010 0.959 . S
C2022 C2020 1.561 . S
C2023 C2020 1.526 1_545 S
C2023 C2024 1.396 . S
C2023 C2028 1.390 1_545 S
C2024 C2018 1.465 . S
C2024 C2023 1.396 . S
C2024 C2025 1.399 . S
C2025 H2011 0.929 . S
C2025 C2024 1.399 . S
C2025 C2026 1.385 . S
C2026 H2012 0.931 . S
C2026 C2025 1.385 . S
C2026 C2027 1.389 . S
C2027 C2026 1.389 . S
C2027 C2028 1.387 1_545 S
C2028 H2013 0.930 . S
C2028 C2023 1.390 1_565 S
C2028 C2027 1.387 1_565 S
H2029 C2041 0.930 . S
H2030 C2043 0.930 . S
H2031 C2044 0.930 . S
H2032 C2048 0.959 . S
H2033 C2048 0.959 . S
H2034 C2048 0.961 . S
H2035 C2049 0.960 . S
H2036 C2049 0.961 . S
H2037 C2049 0.959 . S
H2038 C2052 0.929 . S
H2039 C2053 0.931 . S
H2040 C2055 0.930 . S
C2041 H2029 0.930 . S
C2041 C2042 1.399 . S
C2041 C2046 1.399 . S
C2042 C2041 1.399 . S
C2042 C2043 1.376 . S
C2043 H2030 0.930 . S
C2043 C2042 1.376 . S
C2043 C2044 1.388 . S
C2044 H2031 0.930 . S
C2044 C2043 1.388 . S
C2044 C2045 1.390 . S
C2045 C2044 1.390 . S
C2045 C2046 1.394 . S
C2045 C2051 1.465 . S
C2046 C2041 1.399 . S
C2046 C2045 1.394 . S
C2046 C2047 1.516 . S
C2047 C2046 1.516 . S
C2047 C2048 1.502 . S
C2047 C2049 1.561 . S
C2047 C2050 1.526 . S
C2048 H2032 0.959 . S
C2048 H2033 0.959 . S
C2048 H2034 0.961 . S
C2048 C2047 1.502 . S
C2049 H2035 0.960 . S
C2049 H2036 0.961 . S
C2049 H2037 0.959 . S
C2049 C2047 1.561 . S
C2050 C2047 1.526 . S
C2050 C2051 1.396 . S
C2050 C2055 1.390 . S
C2051 C2045 1.465 . S
C2051 C2050 1.396 . S
C2051 C2052 1.399 . S
C2052 H2038 0.929 . S
C2052 C2051 1.399 . S
C2052 C2053 1.385 . S
C2053 H2039 0.931 . S
C2053 C2052 1.385 . S
C2053 C2054 1.389 . S
C2054 C2053 1.389 . S
C2054 C2055 1.387 . S
C2055 H2040 0.930 . S
C2055 C2050 1.390 . S
C2055 C2054 1.387 . S
H2056 C2068 0.930 . S
H2057 C2070 0.930 . S
H2058 C2071 0.930 . S
H2059 C2075 0.959 . S
H2060 C2075 0.959 1_556 S
H2061 C2075 0.961 . S
H2062 C2076 0.960 . S
H2063 C2076 0.961 . S
H2064 C2076 0.959 . S
H2065 C2079 0.929 . S
H2066 C2080 0.931 . S
H2067 C2082 0.930 . S
C2068 H2056 0.930 . S
C2068 C2069 1.399 . S
C2068 C2073 1.399 . S
C2069 C2068 1.399 . S
C2069 C2070 1.376 . S
C2070 H2057 0.930 . S
C2070 C2069 1.376 . S
C2070 C2071 1.388 . S
C2071 H2058 0.930 . S
C2071 C2070 1.388 . S
C2071 C2072 1.390 . S
C2072 C2071 1.390 . S
C2072 C2073 1.394 . S
C2072 C2078 1.465 . S
C2073 C2068 1.399 . S
C2073 C2072 1.394 . S
C2073 C2074 1.516 . S
C2074 C2073 1.516 . S
C2074 C2075 1.502 . S
C2074 C2076 1.561 . S
C2074 C2077 1.526 . S
C2075 H2059 0.959 . S
C2075 H2060 0.959 1_554 S
C2075 H2061 0.961 . S
C2075 C2074 1.502 . S
C2076 H2062 0.960 . S
C2076 H2063 0.961 . S
C2076 H2064 0.959 . S
C2076 C2074 1.561 . S
C2077 C2074 1.526 . S
C2077 C2078 1.396 . S
C2077 C2082 1.390 . S
C2078 C2072 1.465 . S
C2078 C2077 1.396 . S
C2078 C2079 1.399 . S
C2079 H2065 0.929 . S
C2079 C2078 1.399 . S
C2079 C2080 1.385 . S
C2080 H2066 0.931 . S
C2080 C2079 1.385 . S
C2080 C2081 1.389 . S
C2081 C2080 1.389 . S
C2081 C2082 1.387 . S
C2082 H2067 0.930 . S
C2082 C2077 1.390 . S
C2082 C2081 1.387 . S
H2083 C2095 0.930 . S
H2084 C2097 0.930 . S
H2085 C2098 0.930 . S
H2086 C2102 0.959 . S
H2087 C2102 0.959 . S
H2088 C2102 0.961 . S
H2089 C2103 0.960 . S
H2090 C2103 0.961 . S
H2091 C2103 0.959 . S
H2092 C2106 0.929 . S
H2093 C2107 0.931 . S
H2094 C2109 0.930 . S
C2095 H2083 0.930 . S
C2095 C2096 1.399 . S
C2095 C2100 1.399 . S
C2096 C2095 1.399 . S
C2096 C2097 1.376 . S
C2097 H2084 0.930 . S
C2097 C2096 1.376 . S
C2097 C2098 1.388 . S
C2098 H2085 0.930 . S
C2098 C2097 1.388 . S
C2098 C2099 1.390 . S
C2099 C2098 1.390 . S
C2099 C2100 1.394 . S
C2099 C2105 1.465 . S
C2100 C2095 1.399 . S
C2100 C2099 1.394 . S
C2100 C2101 1.516 . S
C2101 C2100 1.516 . S
C2101 C2102 1.502 . S
C2101 C2103 1.561 . S
C2101 C2104 1.526 . S
C2102 H2086 0.959 . S
C2102 H2087 0.959 . S
C2102 H2088 0.961 . S
C2102 C2101 1.502 . S
C2103 H2089 0.960 . S
C2103 H2090 0.961 . S
C2103 H2091 0.959 . S
C2103 C2101 1.561 . S
C2104 C2101 1.526 . S
C2104 C2105 1.396 . S
C2104 C2109 1.390 . S
C2105 C2099 1.465 . S
C2105 C2104 1.396 . S
C2105 C2106 1.399 . S
C2106 H2092 0.929 . S
C2106 C2105 1.399 . S
C2106 C2107 1.385 . S
C2107 H2093 0.931 . S
C2107 C2106 1.385 . S
C2107 C2108 1.389 . S
C2108 C2107 1.389 . S
C2108 C2109 1.387 . S
C2109 H2094 0.930 . S
C2109 C2104 1.390 . S
C2109 C2108 1.387 . S
H2110 C2122 0.930 . S
H2111 C2124 0.930 . S
H2112 C2125 0.930 . S
H2113 C2129 0.959 . S
H2114 C2129 0.959 . S
H2115 C2129 0.961 . S
H2116 C2130 0.960 . S
H2117 C2130 0.961 . S
H2118 C2130 0.959 . S
H2119 C2133 0.929 . S
H2120 C2134 0.931 . S
H2121 C2136 0.930 . S
C2122 H2110 0.930 . S
C2122 C2123 1.399 . S
C2122 C2127 1.399 . S
C2123 C2122 1.399 . S
C2123 C2124 1.376 . S
C2124 H2111 0.930 . S
C2124 C2123 1.376 . S
C2124 C2125 1.388 . S
C2125 H2112 0.930 . S
C2125 C2124 1.388 . S
C2125 C2126 1.390 . S
C2126 C2125 1.390 . S
C2126 C2127 1.394 . S
C2126 C2132 1.465 . S
C2127 C2122 1.399 . S
C2127 C2126 1.394 . S
C2127 C2128 1.516 . S
C2128 C2127 1.516 . S
C2128 C2129 1.502 . S
C2128 C2130 1.561 . S
C2128 C2131 1.526 . S
C2129 H2113 0.959 . S
C2129 H2114 0.959 . S
C2129 H2115 0.961 . S
C2129 C2128 1.502 . S
C2130 H2116 0.960 . S
C2130 H2117 0.961 . S
C2130 H2118 0.959 . S
C2130 C2128 1.561 . S
C2131 C2128 1.526 . S
C2131 C2132 1.396 . S
C2131 C2136 1.390 . S
C2132 C2126 1.465 . S
C2132 C2131 1.396 . S
C2132 C2133 1.399 . S
C2133 H2119 0.929 . S
C2133 C2132 1.399 . S
C2133 C2134 1.385 . S
C2134 H2120 0.931 . S
C2134 C2133 1.385 . S
C2134 C2135 1.389 . S
C2135 C2134 1.389 . S
C2135 C2136 1.387 . S
C2136 H2121 0.930 . S
C2136 C2131 1.390 . S
C2136 C2135 1.387 . S
H2137 C2149 0.930 . S
H2138 C2151 0.930 . S
H2139 C2152 0.930 . S
H2140 C2156 0.959 . S
H2141 C2156 0.959 . S
H2142 C2156 0.961 . S
H2143 C2157 0.960 . S
H2144 C2157 0.961 . S
H2145 C2157 0.959 . S
H2146 C2160 0.929 . S
H2147 C2161 0.931 . S
H2148 C2163 0.930 . S
C2149 H2137 0.930 . S
C2149 C2150 1.399 . S
C2149 C2154 1.399 . S
C2150 C2149 1.399 . S
C2150 C2151 1.376 . S
C2151 H2138 0.930 . S
C2151 C2150 1.376 . S
C2151 C2152 1.388 . S
C2152 H2139 0.930 . S
C2152 C2151 1.388 . S
C2152 C2153 1.390 . S
C2153 C2152 1.390 . S
C2153 C2154 1.394 . S
C2153 C2159 1.465 . S
C2154 C2149 1.399 . S
C2154 C2153 1.394 . S
C2154 C2155 1.516 . S
C2155 C2154 1.516 . S
C2155 C2156 1.502 . S
C2155 C2157 1.561 . S
C2155 C2158 1.526 . S
C2156 H2140 0.959 . S
C2156 H2141 0.959 . S
C2156 H2142 0.961 . S
C2156 C2155 1.502 . S
C2157 H2143 0.960 . S
C2157 H2144 0.961 . S
C2157 H2145 0.959 . S
C2157 C2155 1.561 . S
C2158 C2155 1.526 . S
C2158 C2159 1.396 . S
C2158 C2163 1.390 . S
C2159 C2153 1.465 . S
C2159 C2158 1.396 . S
C2159 C2160 1.399 . S
C2160 H2146 0.929 . S
C2160 C2159 1.399 . S
C2160 C2161 1.385 . S
C2161 H2147 0.931 . S
C2161 C2160 1.385 . S
C2161 C2162 1.389 . S
C2162 C2161 1.389 . S
C2162 C2163 1.387 . S
C2163 H2148 0.930 . S
C2163 C2158 1.390 . S
C2163 C2162 1.387 . S
H2164 C2176 0.930 . S
H2165 C2178 0.930 . S
H2166 C2179 0.930 . S
H2167 C2183 0.959 . S
H2168 C2183 0.959 . S
H2169 C2183 0.961 . S
H2170 C2184 0.960 . S
H2171 C2184 0.961 . S
H2172 C2184 0.959 . S
H2173 C2187 0.929 . S
H2174 C2188 0.931 . S
H2175 C2190 0.930 . S
C2176 H2164 0.930 . S
C2176 C2177 1.399 . S
C2176 C2181 1.399 . S
C2177 C2176 1.399 . S
C2177 C2178 1.376 . S
C2178 H2165 0.930 . S
C2178 C2177 1.376 . S
C2178 C2179 1.388 . S
C2179 H2166 0.930 . S
C2179 C2178 1.388 . S
C2179 C2180 1.390 . S
C2180 C2179 1.390 . S
C2180 C2181 1.394 . S
C2180 C2186 1.465 . S
C2181 C2176 1.399 . S
C2181 C2180 1.394 . S
C2181 C2182 1.516 . S
C2182 C2181 1.516 . S
C2182 C2183 1.502 . S
C2182 C2184 1.561 . S
C2182 C2185 1.526 . S
C2183 H2167 0.959 . S
C2183 H2168 0.959 . S
C2183 H2169 0.961 . S
C2183 C2182 1.502 . S
C2184 H2170 0.960 . S
C2184 H2171 0.961 . S
C2184 H2172 0.959 . S
C2184 C2182 1.561 . S
C2185 C2182 1.526 . S
C2185 C2186 1.396 . S
C2185 C2190 1.390 . S
C2186 C2180 1.465 . S
C2186 C2185 1.396 . S
C2186 C2187 1.399 . S
C2187 H2173 0.929 . S
C2187 C2186 1.399 . S
C2187 C2188 1.385 . S
C2188 H2174 0.931 . S
C2188 C2187 1.385 . S
C2188 C2189 1.389 . S
C2189 C2188 1.389 . S
C2189 C2190 1.387 . S
C2190 H2175 0.930 . S
C2190 C2185 1.390 . S
C2190 C2189 1.387 . S
H2191 C2203 0.930 . S
H2192 C2205 0.930 . S
H2193 C2206 0.930 . S
H2194 C2210 0.959 . S
H2195 C2210 0.959 . S
H2196 C2210 0.961 . S
H2197 C2211 0.960 . S
H2198 C2211 0.961 . S
H2199 C2211 0.959 . S
H2200 C2214 0.929 . S
H2201 C2215 0.931 . S
H2202 C2217 0.930 . S
C2203 H2191 0.930 . S
C2203 C2204 1.399 . S
C2203 C2208 1.399 . S
C2204 C2203 1.399 . S
C2204 C2205 1.376 . S
C2205 H2192 0.930 . S
C2205 C2204 1.376 . S
C2205 C2206 1.388 . S
C2206 H2193 0.930 . S
C2206 C2205 1.388 . S
C2206 C2207 1.390 . S
C2207 C2206 1.390 . S
C2207 C2208 1.394 . S
C2207 C2213 1.465 . S
C2208 C2203 1.399 . S
C2208 C2207 1.394 . S
C2208 C2209 1.516 . S
C2209 C2208 1.516 . S
C2209 C2210 1.502 . S
C2209 C2211 1.561 . S
C2209 C2212 1.526 . S
C2210 H2194 0.959 . S
C2210 H2195 0.959 . S
C2210 H2196 0.961 . S
C2210 C2209 1.502 . S
C2211 H2197 0.960 . S
C2211 H2198 0.961 . S
C2211 H2199 0.959 . S
C2211 C2209 1.561 . S
C2212 C2209 1.526 . S
C2212 C2213 1.396 . S
C2212 C2217 1.390 . S
C2213 C2207 1.465 . S
C2213 C2212 1.396 . S
C2213 C2214 1.399 . S
C2214 H2200 0.929 . S
C2214 C2213 1.399 . S
C2214 C2215 1.385 . S
C2215 H2201 0.931 . S
C2215 C2214 1.385 . S
C2215 C2216 1.389 . S
C2216 C2215 1.389 . S
C2216 C2217 1.387 . S
C2217 H2202 0.930 . S
C2217 C2212 1.390 . S
C2217 C2216 1.387 . S
H2218 C2230 0.930 . S
H2219 C2232 0.930 . S
H2220 C2233 0.930 . S
H2221 C2237 0.959 . S
H2222 C2237 0.959 . S
H2223 C2237 0.961 . S
H2224 C2238 0.960 . S
H2225 C2238 0.961 . S
H2226 C2238 0.959 . S
H2227 C2241 0.929 . S
H2228 C2242 0.931 . S
H2229 C2244 0.930 . S
C2230 H2218 0.930 . S
C2230 C2231 1.399 . S
C2230 C2235 1.399 . S
C2231 C2230 1.399 . S
C2231 C2232 1.376 . S
C2232 H2219 0.930 . S
C2232 C2231 1.376 . S
C2232 C2233 1.388 . S
C2233 H2220 0.930 . S
C2233 C2232 1.388 . S
C2233 C2234 1.390 . S
C2234 C2233 1.390 . S
C2234 C2235 1.394 . S
C2234 C2240 1.465 . S
C2235 C2230 1.399 . S
C2235 C2234 1.394 . S
C2235 C2236 1.516 . S
C2236 C2235 1.516 . S
C2236 C2237 1.502 . S
C2236 C2238 1.561 . S
C2236 C2239 1.526 . S
C2237 H2221 0.959 . S
C2237 H2222 0.959 . S
C2237 H2223 0.961 . S
C2237 C2236 1.502 . S
C2238 H2224 0.960 . S
C2238 H2225 0.961 . S
C2238 H2226 0.959 . S
C2238 C2236 1.561 . S
C2239 C2236 1.526 . S
C2239 C2240 1.396 . S
C2239 C2244 1.390 . S
C2240 C2234 1.465 . S
C2240 C2239 1.396 . S
C2240 C2241 1.399 . S
C2241 H2227 0.929 . S
C2241 C2240 1.399 . S
C2241 C2242 1.385 . S
C2242 H2228 0.931 . S
C2242 C2241 1.385 . S
C2242 C2243 1.389 . S
C2243 C2242 1.389 . S
C2243 C2244 1.387 . S
C2244 H2229 0.930 . S
C2244 C2239 1.390 . S
C2244 C2243 1.387 . S
H2245 C2257 0.930 . S
H2246 C2259 0.930 . S
H2247 C2260 0.930 . S
H2248 C2264 0.959 . S
H2249 C2264 0.959 . S
H2250 C2264 0.961 . S
H2251 C2265 0.960 . S
H2252 C2265 0.961 . S
H2253 C2265 0.959 . S
H2254 C2268 0.929 . S
H2255 C2269 0.931 . S
H2256 C2271 0.930 . S
C2257 H2245 0.930 . S
C2257 C2258 1.399 . S
C2257 C2262 1.399 . S
C2258 C2257 1.399 . S
C2258 C2259 1.376 . S
C2259 H2246 0.930 . S
C2259 C2258 1.376 . S
C2259 C2260 1.388 . S
C2260 H2247 0.930 . S
C2260 C2259 1.388 . S
C2260 C2261 1.390 . S
C2261 C2260 1.390 . S
C2261 C2262 1.394 . S
C2261 C2267 1.465 . S
C2262 C2257 1.399 . S
C2262 C2261 1.394 . S
C2262 C2263 1.516 . S
C2263 C2262 1.516 . S
C2263 C2264 1.502 . S
C2263 C2265 1.561 . S
C2263 C2266 1.526 . S
C2264 H2248 0.959 . S
C2264 H2249 0.959 . S
C2264 H2250 0.961 . S
C2264 C2263 1.502 . S
C2265 H2251 0.960 . S
C2265 H2252 0.961 . S
C2265 H2253 0.959 . S
C2265 C2263 1.561 . S
C2266 C2263 1.526 . S
C2266 C2267 1.396 . S
C2266 C2271 1.390 . S
C2267 C2261 1.465 . S
C2267 C2266 1.396 . S
C2267 C2268 1.399 . S
C2268 H2254 0.929 . S
C2268 C2267 1.399 . S
C2268 C2269 1.385 . S
C2269 H2255 0.931 . S
C2269 C2268 1.385 . S
C2269 C2270 1.389 . S
C2270 C2269 1.389 . S
C2270 C2271 1.387 . S
C2271 H2256 0.930 . S
C2271 C2266 1.390 . S
C2271 C2270 1.387 . S
H2272 C2284 0.930 . S
H2273 C2286 0.930 . S
H2274 C2287 0.930 . S
H2275 C2291 0.959 . S
H2276 C2291 0.959 . S
H2277 C2291 0.961 . S
H2278 C2292 0.960 . S
H2279 C2292 0.961 . S
H2280 C2292 0.959 . S
H2281 C2295 0.929 . S
H2282 C2296 0.931 . S
H2283 C2298 0.930 . S
C2284 H2272 0.930 . S
C2284 C2285 1.399 . S
C2284 C2289 1.399 . S
C2285 C2284 1.399 . S
C2285 C2286 1.376 . S
C2286 H2273 0.930 . S
C2286 C2285 1.376 . S
C2286 C2287 1.388 . S
C2287 H2274 0.930 . S
C2287 C2286 1.388 . S
C2287 C2288 1.390 . S
C2288 C2287 1.390 . S
C2288 C2289 1.394 . S
C2288 C2294 1.465 . S
C2289 C2284 1.399 . S
C2289 C2288 1.394 . S
C2289 C2290 1.516 . S
C2290 C2289 1.516 . S
C2290 C2291 1.502 . S
C2290 C2292 1.561 . S
C2290 C2293 1.526 . S
C2291 H2275 0.959 . S
C2291 H2276 0.959 . S
C2291 H2277 0.961 . S
C2291 C2290 1.502 . S
C2292 H2278 0.960 . S
C2292 H2279 0.961 . S
C2292 H2280 0.959 . S
C2292 C2290 1.561 . S
C2293 C2290 1.526 . S
C2293 C2294 1.396 . S
C2293 C2298 1.390 . S
C2294 C2288 1.465 . S
C2294 C2293 1.396 . S
C2294 C2295 1.399 . S
C2295 H2281 0.929 . S
C2295 C2294 1.399 . S
C2295 C2296 1.385 . S
C2296 H2282 0.931 . S
C2296 C2295 1.385 . S
C2296 C2297 1.389 . S
C2297 C2296 1.389 . S
C2297 C2298 1.387 . S
C2298 H2283 0.930 . S
C2298 C2293 1.390 . S
C2298 C2297 1.387 . S
H2299 C2311 0.930 . S
H2300 C2313 0.930 . S
H2301 C2314 0.930 . S
H2302 C2318 0.959 . S
H2303 C2318 0.959 . S
H2304 C2318 0.961 . S
H2305 C2319 0.960 . S
H2306 C2319 0.961 . S
H2307 C2319 0.959 . S
H2308 C2322 0.929 . S
H2309 C2323 0.931 . S
H2310 C2325 0.930 . S
C2311 H2299 0.930 . S
C2311 C2312 1.399 . S
C2311 C2316 1.399 . S
C2312 C2311 1.399 . S
C2312 C2313 1.376 . S
C2313 H2300 0.930 . S
C2313 C2312 1.376 . S
C2313 C2314 1.388 . S
C2314 H2301 0.930 . S
C2314 C2313 1.388 . S
C2314 C2315 1.390 . S
C2315 C2314 1.390 . S
C2315 C2316 1.394 . S
C2315 C2321 1.465 . S
C2316 C2311 1.399 . S
C2316 C2315 1.394 . S
C2316 C2317 1.516 . S
C2317 C2316 1.516 . S
C2317 C2318 1.502 . S
C2317 C2319 1.561 . S
C2317 C2320 1.526 . S
C2318 H2302 0.959 . S
C2318 H2303 0.959 . S
C2318 H2304 0.961 . S
C2318 C2317 1.502 . S
C2319 H2305 0.960 . S
C2319 H2306 0.961 . S
C2319 H2307 0.959 . S
C2319 C2317 1.561 . S
C2320 C2317 1.526 . S
C2320 C2321 1.396 . S
C2320 C2325 1.390 . S
C2321 C2315 1.465 . S
C2321 C2320 1.396 . S
C2321 C2322 1.399 . S
C2322 H2308 0.929 . S
C2322 C2321 1.399 . S
C2322 C2323 1.385 . S
C2323 H2309 0.931 . S
C2323 C2322 1.385 . S
C2323 C2324 1.389 . S
C2324 C2323 1.389 . S
C2324 C2325 1.387 . S
C2325 H2310 0.930 . S
C2325 C2320 1.390 . S
C2325 C2324 1.387 . S
H2326 C2338 0.930 1_554 S
H2327 C2340 0.930 1_655 S
H2328 C2341 0.930 1_655 S
H2329 C2345 0.959 . S
H2330 C2345 0.959 . S
H2331 C2345 0.961 . S
H2332 C2346 0.960 . S
H2333 C2346 0.961 . S
H2334 C2346 0.963 1_556 S
H2335 C2349 0.929 1_655 S
H2336 C2350 0.931 1_556 S
H2337 C2352 0.930 . S
C2338 H2326 0.930 1_556 S
C2338 C2339 1.399 . S
C2338 C2343 1.398 1_556 S
C2339 C2338 1.399 . S
C2339 C2340 1.376 . S
C2340 H2327 0.930 1_455 S
C2340 C2339 1.376 . S
C2340 C2341 1.388 . S
C2341 H2328 0.930 1_455 S
C2341 C2340 1.388 . S
C2341 C2342 1.390 . S
C2342 C2341 1.390 . S
C2342 C2343 1.385 1_556 S
C2342 C2348 1.465 . S
C2343 C2338 1.398 1_554 S
C2343 C2342 1.385 1_554 S
C2343 C2344 1.525 . S
C2344 C2343 1.525 . S
C2344 C2345 1.502 . S
C2344 C2346 1.561 . S
C2344 C2347 1.526 . S
C2345 H2329 0.959 . S
C2345 H2330 0.959 . S
C2345 H2331 0.961 . S
C2345 C2344 1.502 . S
C2346 H2332 0.960 . S
C2346 H2333 0.961 . S
C2346 H2334 0.963 1_554 S
C2346 C2344 1.561 . S
C2347 C2344 1.526 . S
C2347 C2348 1.396 1_554 S
C2347 C2352 1.390 . S
C2348 C2342 1.465 . S
C2348 C2347 1.396 1_556 S
C2348 C2349 1.399 . S
C2349 H2335 0.929 1_455 S
C2349 C2348 1.399 . S
C2349 C2350 1.385 1_556 S
C2350 H2336 0.931 1_554 S
C2350 C2349 1.385 1_554 S
C2350 C2351 1.389 . S
C2351 C2350 1.389 . S
C2351 C2352 1.387 . S
C2352 H2337 0.930 . S
C2352 C2347 1.390 . S
C2352 C2351 1.387 . S
H2353 C2365 0.930 1_455 S
H2354 C2367 0.930 . S
H2355 C2368 0.930 . S
H2356 C2372 0.959 . S
H2357 C2372 0.959 . S
H2358 C2372 0.961 . S
H2359 C2373 0.960 . S
H2360 C2373 0.961 . S
H2361 C2373 0.959 . S
H2362 C2376 0.929 . S
H2363 C2377 0.931 . S
H2364 C2379 0.930 . S
C2365 H2353 0.930 1_655 S
C2365 C2366 1.399 . S
C2365 C2370 1.399 . S
C2366 C2365 1.399 . S
C2366 C2367 1.376 . S
C2367 H2354 0.930 . S
C2367 C2366 1.376 . S
C2367 C2368 1.388 . S
C2368 H2355 0.930 . S
C2368 C2367 1.388 . S
C2368 C2369 1.390 . S
C2369 C2368 1.390 . S
C2369 C2370 1.394 . S
C2369 C2375 1.465 . S
C2370 C2365 1.399 . S
C2370 C2369 1.394 . S
C2370 C2371 1.516 . S
C2371 C2370 1.516 . S
C2371 C2372 1.502 . S
C2371 C2373 1.561 . S
C2371 C2374 1.526 . S
C2372 H2356 0.959 . S
C2372 H2357 0.959 . S
C2372 H2358 0.961 . S
C2372 C2371 1.502 . S
C2373 H2359 0.960 . S
C2373 H2360 0.961 . S
C2373 H2361 0.959 . S
C2373 C2371 1.561 . S
C2374 C2371 1.526 . S
C2374 C2375 1.396 . S
C2374 C2379 1.390 . S
C2375 C2369 1.465 . S
C2375 C2374 1.396 . S
C2375 C2376 1.399 . S
C2376 H2362 0.929 . S
C2376 C2375 1.399 . S
C2376 C2377 1.385 . S
C2377 H2363 0.931 . S
C2377 C2376 1.385 . S
C2377 C2378 1.389 . S
C2378 C2377 1.389 . S
C2378 C2379 1.387 . S
C2379 H2364 0.930 . S
C2379 C2374 1.390 . S
C2379 C2378 1.387 . S
H2380 C2392 0.930 . S
H2381 C2394 0.930 . S
H2382 C2395 0.930 . S
H2383 C2399 0.959 . S
H2384 C2399 0.959 . S
H2385 C2399 0.961 . S
H2386 C2400 0.960 . S
H2387 C2400 0.961 . S
H2388 C2400 0.959 . S
H2389 C2403 0.929 . S
H2390 C2404 0.931 . S
H2391 C2406 0.930 . S
C2392 H2380 0.930 . S
C2392 C2393 1.399 . S
C2392 C2397 1.399 . S
C2393 C2392 1.399 . S
C2393 C2394 1.376 . S
C2394 H2381 0.930 . S
C2394 C2393 1.376 . S
C2394 C2395 1.388 . S
C2395 H2382 0.930 . S
C2395 C2394 1.388 . S
C2395 C2396 1.390 . S
C2396 C2395 1.390 . S
C2396 C2397 1.394 . S
C2396 C2402 1.465 . S
C2397 C2392 1.399 . S
C2397 C2396 1.394 . S
C2397 C2398 1.516 . S
C2398 C2397 1.516 . S
C2398 C2399 1.502 . S
C2398 C2400 1.561 . S
C2398 C2401 1.526 . S
C2399 H2383 0.959 . S
C2399 H2384 0.959 . S
C2399 H2385 0.961 . S
C2399 C2398 1.502 . S
C2400 H2386 0.960 . S
C2400 H2387 0.961 . S
C2400 H2388 0.959 . S
C2400 C2398 1.561 . S
C2401 C2398 1.526 . S
C2401 C2402 1.396 . S
C2401 C2406 1.390 . S
C2402 C2396 1.465 . S
C2402 C2401 1.396 . S
C2402 C2403 1.399 . S
C2403 H2389 0.929 . S
C2403 C2402 1.399 . S
C2403 C2404 1.385 . S
C2404 H2390 0.931 . S
C2404 C2403 1.385 . S
C2404 C2405 1.389 . S
C2405 C2404 1.389 . S
C2405 C2406 1.387 . S
C2406 H2391 0.930 . S
C2406 C2401 1.390 . S
C2406 C2405 1.387 . S
H2407 C2419 0.930 . S
H2408 C2421 0.930 . S
H2409 C2422 0.930 . S
H2410 C2426 0.959 . S
H2411 C2426 0.959 . S
H2412 C2426 0.961 . S
H2413 C2427 0.960 . S
H2414 C2427 0.961 . S
H2415 C2427 0.959 . S
H2416 C2430 0.929 . S
H2417 C2431 0.931 . S
H2418 C2433 0.930 . S
C2419 H2407 0.930 . S
C2419 C2420 1.399 . S
C2419 C2424 1.399 . S
C2420 C2419 1.399 . S
C2420 C2421 1.376 . S
C2421 H2408 0.930 . S
C2421 C2420 1.376 . S
C2421 C2422 1.388 . S
C2422 H2409 0.930 . S
C2422 C2421 1.388 . S
C2422 C2423 1.390 . S
C2423 C2422 1.390 . S
C2423 C2424 1.394 . S
C2423 C2429 1.465 . S
C2424 C2419 1.399 . S
C2424 C2423 1.394 . S
C2424 C2425 1.516 . S
C2425 C2424 1.516 . S
C2425 C2426 1.502 . S
C2425 C2427 1.561 . S
C2425 C2428 1.526 . S
C2426 H2410 0.959 . S
C2426 H2411 0.959 . S
C2426 H2412 0.961 . S
C2426 C2425 1.502 . S
C2427 H2413 0.960 . S
C2427 H2414 0.961 . S
C2427 H2415 0.959 . S
C2427 C2425 1.561 . S
C2428 C2425 1.526 . S
C2428 C2429 1.396 . S
C2428 C2433 1.390 . S
C2429 C2423 1.465 . S
C2429 C2428 1.396 . S
C2429 C2430 1.399 . S
C2430 H2416 0.929 . S
C2430 C2429 1.399 . S
C2430 C2431 1.385 . S
C2431 H2417 0.931 . S
C2431 C2430 1.385 . S
C2431 C2432 1.389 . S
C2432 C2431 1.389 . S
C2432 C2433 1.387 . S
C2433 H2418 0.930 . S
C2433 C2428 1.390 . S
C2433 C2432 1.387 . S
H2434 C2446 0.930 . S
H2435 C2448 0.930 . S
H2436 C2449 0.930 . S
H2437 C2453 0.976 . S
H2438 C2453 0.959 1_655 S
H2439 C2453 0.961 . S
H2440 C2454 0.960 . S
H2441 C2454 0.961 . S
H2442 C2454 0.959 . S
H2443 C2457 0.929 . S
H2444 C2458 0.931 . S
H2445 C2460 0.930 . S
C2446 H2434 0.930 . S
C2446 C2447 1.399 . S
C2446 C2451 1.399 . S
C2447 C2446 1.399 . S
C2447 C2448 1.376 . S
C2448 H2435 0.930 . S
C2448 C2447 1.376 . S
C2448 C2449 1.388 . S
C2449 H2436 0.930 . S
C2449 C2448 1.388 . S
C2449 C2450 1.390 . S
C2450 C2449 1.390 . S
C2450 C2451 1.394 . S
C2450 C2456 1.465 . S
C2451 C2446 1.399 . S
C2451 C2450 1.394 . S
C2451 C2452 1.516 . S
C2452 C2451 1.516 . S
C2452 C2453 1.502 . S
C2452 C2454 1.561 . S
C2452 C2455 1.526 . S
C2453 H2437 0.976 . S
C2453 H2438 0.959 1_455 S
C2453 H2439 0.961 . S
C2453 C2452 1.502 . S
C2454 H2440 0.960 . S
C2454 H2441 0.961 . S
C2454 H2442 0.959 . S
C2454 C2452 1.561 . S
C2455 C2452 1.526 . S
C2455 C2456 1.396 . S
C2455 C2460 1.390 . S
C2456 C2450 1.465 . S
C2456 C2455 1.396 . S
C2456 C2457 1.399 . S
C2457 H2443 0.929 . S
C2457 C2456 1.399 . S
C2457 C2458 1.385 . S
C2458 H2444 0.931 . S
C2458 C2457 1.385 . S
C2458 C2459 1.389 . S
C2459 C2458 1.389 . S
C2459 C2460 1.387 . S
C2460 H2445 0.930 . S
C2460 C2455 1.390 . S
C2460 C2459 1.387 . S
H2461 C2473 0.930 . S
H2462 C2475 0.930 . S
H2463 C2476 0.930 . S
H2464 C2480 0.959 . S
H2465 C2480 0.959 . S
H2466 C2480 0.961 . S
H2467 C2481 0.960 . S
H2468 C2481 0.961 . S
H2469 C2481 0.959 . S
H2470 C2484 0.929 . S
H2471 C2485 0.931 . S
H2472 C2487 0.930 . S
C2473 H2461 0.930 . S
C2473 C2474 1.399 . S
C2473 C2478 1.399 . S
C2474 C2473 1.399 . S
C2474 C2475 1.376 . S
C2475 H2462 0.930 . S
C2475 C2474 1.376 . S
C2475 C2476 1.388 . S
C2476 H2463 0.930 . S
C2476 C2475 1.388 . S
C2476 C2477 1.390 . S
C2477 C2476 1.390 . S
C2477 C2478 1.394 . S
C2477 C2483 1.465 . S
C2478 C2473 1.399 . S
C2478 C2477 1.394 . S
C2478 C2479 1.516 . S
C2479 C2478 1.516 . S
C2479 C2480 1.502 . S
C2479 C2481 1.561 . S
C2479 C2482 1.526 . S
C2480 H2464 0.959 . S
C2480 H2465 0.959 . S
C2480 H2466 0.961 . S
C2480 C2479 1.502 . S
C2481 H2467 0.960 . S
C2481 H2468 0.961 . S
C2481 H2469 0.959 . S
C2481 C2479 1.561 . S
C2482 C2479 1.526 . S
C2482 C2483 1.396 . S
C2482 C2487 1.390 . S
C2483 C2477 1.465 . S
C2483 C2482 1.396 . S
C2483 C2484 1.399 . S
C2484 H2470 0.929 . S
C2484 C2483 1.399 . S
C2484 C2485 1.385 . S
C2485 H2471 0.931 . S
C2485 C2484 1.385 . S
C2485 C2486 1.389 . S
C2486 C2485 1.389 . S
C2486 C2487 1.387 . S
C2487 H2472 0.930 . S
C2487 C2482 1.390 . S
C2487 C2486 1.387 . S
H2488 C2500 0.930 . S
H2489 C2502 0.930 . S
H2490 C2503 0.930 . S
H2491 C2507 0.959 . S
H2492 C2507 0.959 . S
H2493 C2507 0.961 . S
H2494 C2508 0.960 . S
H2495 C2508 0.961 . S
H2496 C2508 0.959 . S
H2497 C2511 0.929 . S
H2498 C2512 0.931 . S
H2499 C2514 0.930 . S
C2500 H2488 0.930 . S
C2500 C2501 1.399 . S
C2500 C2505 1.399 . S
C2501 C2500 1.399 . S
C2501 C2502 1.376 . S
C2502 H2489 0.930 . S
C2502 C2501 1.376 . S
C2502 C2503 1.388 . S
C2503 H2490 0.930 . S
C2503 C2502 1.388 . S
C2503 C2504 1.390 . S
C2504 C2503 1.390 . S
C2504 C2505 1.394 . S
C2504 C2510 1.465 . S
C2505 C2500 1.399 . S
C2505 C2504 1.394 . S
C2505 C2506 1.516 . S
C2506 C2505 1.516 . S
C2506 C2507 1.502 . S
C2506 C2508 1.561 . S
C2506 C2509 1.526 . S
C2507 H2491 0.959 . S
C2507 H2492 0.959 . S
C2507 H2493 0.961 . S
C2507 C2506 1.502 . S
C2508 H2494 0.960 . S
C2508 H2495 0.961 . S
C2508 H2496 0.959 . S
C2508 C2506 1.561 . S
C2509 C2506 1.526 . S
C2509 C2510 1.396 . S
C2509 C2514 1.390 . S
C2510 C2504 1.465 . S
C2510 C2509 1.396 . S
C2510 C2511 1.399 . S
C2511 H2497 0.929 . S
C2511 C2510 1.399 . S
C2511 C2512 1.385 . S
C2512 H2498 0.931 . S
C2512 C2511 1.385 . S
C2512 C2513 1.389 . S
C2513 C2512 1.389 . S
C2513 C2514 1.387 . S
C2514 H2499 0.930 . S
C2514 C2509 1.390 . S
C2514 C2513 1.387 . S
H2515 C2527 0.930 . S
H2516 C2529 0.930 . S
H2517 C2530 0.930 . S
H2518 C2534 0.959 . S
H2519 C2534 0.959 . S
H2520 C2534 0.961 . S
H2521 C2535 0.960 1_554 S
H2522 C2535 0.961 . S
H2523 C2535 0.959 . S
H2524 C2538 0.929 . S
H2525 C2539 0.931 . S
H2526 C2541 0.930 . S
C2527 H2515 0.930 . S
C2527 C2528 1.399 . S
C2527 C2532 1.399 . S
C2528 C2527 1.399 . S
C2528 C2529 1.376 . S
C2529 H2516 0.930 . S
C2529 C2528 1.376 . S
C2529 C2530 1.388 1_554 S
C2530 H2517 0.930 . S
C2530 C2529 1.388 1_556 S
C2530 C2531 1.390 . S
C2531 C2530 1.390 . S
C2531 C2532 1.394 1_556 S
C2531 C2537 1.465 . S
C2532 C2527 1.399 . S
C2532 C2531 1.394 1_554 S
C2532 C2533 1.516 1_554 S
C2533 C2532 1.516 1_556 S
C2533 C2534 1.502 1_556 S
C2533 C2535 1.561 . S
C2533 C2536 1.526 . S
C2534 H2518 0.959 . S
C2534 H2519 0.959 . S
C2534 H2520 0.961 . S
C2534 C2533 1.502 1_554 S
C2535 H2521 0.960 1_556 S
C2535 H2522 0.961 . S
C2535 H2523 0.959 . S
C2535 C2533 1.561 . S
C2536 C2533 1.526 . S
C2536 C2537 1.396 . S
C2536 C2541 1.390 . S
C2537 C2531 1.465 . S
C2537 C2536 1.396 . S
C2537 C2538 1.399 . S
C2538 H2524 0.929 . S
C2538 C2537 1.399 . S
C2538 C2539 1.385 . S
C2539 H2525 0.931 . S
C2539 C2538 1.385 . S
C2539 C2540 1.389 . S
C2540 C2539 1.389 . S
C2540 C2541 1.387 . S
C2541 H2526 0.930 . S
C2541 C2536 1.390 . S
C2541 C2540 1.387 . S
H2542 C2554 0.930 . S
H2543 C2556 0.930 . S
H2544 C2557 0.930 . S
H2545 C2561 0.959 . S
H2546 C2561 0.959 . S
H2547 C2561 0.961 . S
H2548 C2562 0.960 . S
H2549 C2562 0.961 . S
H2550 C2562 0.959 . S
H2551 C2565 0.929 . S
H2552 C2566 0.931 . S
H2553 C2568 0.930 . S
C2554 H2542 0.930 . S
C2554 C2555 1.399 . S
C2554 C2559 1.399 . S
C2555 C2554 1.399 . S
C2555 C2556 1.376 . S
C2556 H2543 0.930 . S
C2556 C2555 1.376 . S
C2556 C2557 1.388 . S
C2557 H2544 0.930 . S
C2557 C2556 1.388 . S
C2557 C2558 1.390 . S
C2558 C2557 1.390 . S
C2558 C2559 1.394 . S
C2558 C2564 1.465 . S
C2559 C2554 1.399 . S
C2559 C2558 1.394 . S
C2559 C2560 1.516 . S
C2560 C2559 1.516 . S
C2560 C2561 1.502 . S
C2560 C2562 1.561 . S
C2560 C2563 1.526 . S
C2561 H2545 0.959 . S
C2561 H2546 0.959 . S
C2561 H2547 0.961 . S
C2561 C2560 1.502 . S
C2562 H2548 0.960 . S
C2562 H2549 0.961 . S
C2562 H2550 0.959 . S
C2562 C2560 1.561 . S
C2563 C2560 1.526 . S
C2563 C2564 1.396 . S
C2563 C2568 1.390 . S
C2564 C2558 1.465 . S
C2564 C2563 1.396 . S
C2564 C2565 1.399 . S
C2565 H2551 0.929 . S
C2565 C2564 1.399 . S
C2565 C2566 1.385 . S
C2566 H2552 0.931 . S
C2566 C2565 1.385 . S
C2566 C2567 1.389 . S
C2567 C2566 1.389 . S
C2567 C2568 1.387 . S
C2568 H2553 0.930 . S
C2568 C2563 1.390 . S
C2568 C2567 1.387 . S
H2569 C2581 0.930 . S
H2570 C2583 0.930 . S
H2571 C2584 0.930 . S
H2572 C2588 0.959 . S
H2573 C2588 0.959 . S
H2574 C2588 0.961 . S
H2575 C2589 0.960 . S
H2576 C2589 0.961 . S
H2577 C2589 0.959 . S
H2578 C2592 0.929 . S
H2579 C2593 0.931 . S
H2580 C2595 0.930 . S
C2581 H2569 0.930 . S
C2581 C2582 1.399 . S
C2581 C2586 1.399 . S
C2582 C2581 1.399 . S
C2582 C2583 1.376 . S
C2583 H2570 0.930 . S
C2583 C2582 1.376 . S
C2583 C2584 1.388 . S
C2584 H2571 0.930 . S
C2584 C2583 1.388 . S
C2584 C2585 1.390 . S
C2585 C2584 1.390 . S
C2585 C2586 1.394 . S
C2585 C2591 1.465 . S
C2586 C2581 1.399 . S
C2586 C2585 1.394 . S
C2586 C2587 1.516 . S
C2587 C2586 1.516 . S
C2587 C2588 1.502 . S
C2587 C2589 1.561 . S
C2587 C2590 1.526 . S
C2588 H2572 0.959 . S
C2588 H2573 0.959 . S
C2588 H2574 0.961 . S
C2588 C2587 1.502 . S
C2589 H2575 0.960 . S
C2589 H2576 0.961 . S
C2589 H2577 0.959 . S
C2589 C2587 1.561 . S
C2590 C2587 1.526 . S
C2590 C2591 1.396 . S
C2590 C2595 1.390 . S
C2591 C2585 1.465 . S
C2591 C2590 1.396 . S
C2591 C2592 1.399 . S
C2592 H2578 0.929 . S
C2592 C2591 1.399 . S
C2592 C2593 1.385 . S
C2593 H2579 0.931 . S
C2593 C2592 1.385 . S
C2593 C2594 1.389 . S
C2594 C2593 1.389 . S
C2594 C2595 1.387 . S
C2595 H2580 0.930 . S
C2595 C2590 1.390 . S
C2595 C2594 1.387 . S
H2596 C2608 0.930 . S
H2597 C2610 0.930 . S
H2598 C2611 0.930 . S
H2599 C2615 0.959 . S
H2600 C2615 0.959 . S
H2601 C2615 0.961 . S
H2602 C2616 0.960 . S
H2603 C2616 0.961 . S
H2604 C2616 0.959 . S
H2605 C2619 0.929 . S
H2606 C2620 0.931 . S
H2607 C2622 0.930 . S
C2608 H2596 0.930 . S
C2608 C2609 1.399 . S
C2608 C2613 1.399 . S
C2609 C2608 1.399 . S
C2609 C2610 1.376 . S
C2610 H2597 0.930 . S
C2610 C2609 1.376 . S
C2610 C2611 1.388 . S
C2611 H2598 0.930 . S
C2611 C2610 1.388 . S
C2611 C2612 1.390 . S
C2612 C2611 1.390 . S
C2612 C2613 1.394 . S
C2612 C2618 1.465 . S
C2613 C2608 1.399 . S
C2613 C2612 1.394 . S
C2613 C2614 1.516 . S
C2614 C2613 1.516 . S
C2614 C2615 1.502 . S
C2614 C2616 1.561 . S
C2614 C2617 1.526 . S
C2615 H2599 0.959 . S
C2615 H2600 0.959 . S
C2615 H2601 0.961 . S
C2615 C2614 1.502 . S
C2616 H2602 0.960 . S
C2616 H2603 0.961 . S
C2616 H2604 0.959 . S
C2616 C2614 1.561 . S
C2617 C2614 1.526 . S
C2617 C2618 1.396 . S
C2617 C2622 1.390 . S
C2618 C2612 1.465 . S
C2618 C2617 1.396 . S
C2618 C2619 1.399 . S
C2619 H2605 0.929 . S
C2619 C2618 1.399 . S
C2619 C2620 1.385 . S
C2620 H2606 0.931 . S
C2620 C2619 1.385 . S
C2620 C2621 1.389 . S
C2621 C2620 1.389 . S
C2621 C2622 1.387 . S
C2622 H2607 0.930 . S
C2622 C2617 1.390 . S
C2622 C2621 1.387 . S
H2623 C2635 0.930 . S
H2624 C2637 0.930 . S
H2625 C2638 0.930 . S
H2626 C2642 0.959 . S
H2627 C2642 0.959 . S
H2628 C2642 0.961 . S
H2629 C2643 0.960 . S
H2630 C2643 0.961 . S
H2631 C2643 0.959 . S
H2632 C2646 0.929 . S
H2633 C2647 0.931 . S
H2634 C2649 0.930 . S
C2635 H2623 0.930 . S
C2635 C2636 1.399 . S
C2635 C2640 1.399 . S
C2636 C2635 1.399 . S
C2636 C2637 1.376 . S
C2637 H2624 0.930 . S
C2637 C2636 1.376 . S
C2637 C2638 1.388 . S
C2638 H2625 0.930 . S
C2638 C2637 1.388 . S
C2638 C2639 1.390 . S
C2639 C2638 1.390 . S
C2639 C2640 1.394 . S
C2639 C2645 1.465 . S
C2640 C2635 1.399 . S
C2640 C2639 1.394 . S
C2640 C2641 1.516 . S
C2641 C2640 1.516 . S
C2641 C2642 1.502 . S
C2641 C2643 1.561 . S
C2641 C2644 1.526 . S
C2642 H2626 0.959 . S
C2642 H2627 0.959 . S
C2642 H2628 0.961 . S
C2642 C2641 1.502 . S
C2643 H2629 0.960 . S
C2643 H2630 0.961 . S
C2643 H2631 0.959 . S
C2643 C2641 1.561 . S
C2644 C2641 1.526 . S
C2644 C2645 1.396 . S
C2644 C2649 1.390 . S
C2645 C2639 1.465 . S
C2645 C2644 1.396 . S
C2645 C2646 1.399 . S
C2646 H2632 0.929 . S
C2646 C2645 1.399 . S
C2646 C2647 1.385 . S
C2647 H2633 0.931 . S
C2647 C2646 1.385 . S
C2647 C2648 1.389 . S
C2648 C2647 1.389 . S
C2648 C2649 1.387 . S
C2649 H2634 0.930 . S
C2649 C2644 1.390 . S
C2649 C2648 1.387 . S
H2650 C2662 0.930 . S
H2651 C2664 0.930 . S
H2652 C2665 0.930 . S
H2653 C2669 0.959 . S
H2654 C2669 0.959 . S
H2655 C2669 0.961 . S
H2656 C2670 0.960 . S
H2657 C2670 0.961 . S
H2658 C2670 0.959 . S
H2659 C2673 0.929 . S
H2660 C2674 0.931 . S
H2661 C2676 0.930 . S
C2662 H2650 0.930 . S
C2662 C2663 1.399 . S
C2662 C2667 1.399 . S
C2663 C2662 1.399 . S
C2663 C2664 1.376 . S
C2664 H2651 0.930 . S
C2664 C2663 1.376 . S
C2664 C2665 1.388 . S
C2665 H2652 0.930 . S
C2665 C2664 1.388 . S
C2665 C2666 1.390 . S
C2666 C2665 1.390 . S
C2666 C2667 1.394 . S
C2666 C2672 1.465 . S
C2667 C2662 1.399 . S
C2667 C2666 1.394 . S
C2667 C2668 1.516 . S
C2668 C2667 1.516 . S
C2668 C2669 1.502 . S
C2668 C2670 1.561 . S
C2668 C2671 1.526 . S
C2669 H2653 0.959 . S
C2669 H2654 0.959 . S
C2669 H2655 0.961 . S
C2669 C2668 1.502 . S
C2670 H2656 0.960 . S
C2670 H2657 0.961 . S
C2670 H2658 0.959 . S
C2670 C2668 1.561 . S
C2671 C2668 1.526 . S
C2671 C2672 1.396 . S
C2671 C2676 1.390 . S
C2672 C2666 1.465 . S
C2672 C2671 1.396 . S
C2672 C2673 1.399 . S
C2673 H2659 0.929 . S
C2673 C2672 1.399 . S
C2673 C2674 1.385 . S
C2674 H2660 0.931 . S
C2674 C2673 1.385 . S
C2674 C2675 1.389 . S
C2675 C2674 1.389 . S
C2675 C2676 1.387 . S
C2676 H2661 0.930 . S
C2676 C2671 1.390 . S
C2676 C2675 1.387 . S
H2677 C2689 0.930 . S
H2678 C2691 0.930 . S
H2679 C2692 0.930 . S
H2680 C2696 0.959 . S
H2681 C2696 0.959 . S
H2682 C2696 0.961 . S
H2683 C2697 0.960 . S
H2684 C2697 0.961 . S
H2685 C2697 0.959 . S
H2686 C2700 0.929 . S
H2687 C2701 0.931 . S
H2688 C2703 0.930 . S
C2689 H2677 0.930 . S
C2689 C2690 1.399 . S
C2689 C2694 1.399 . S
C2690 C2689 1.399 . S
C2690 C2691 1.376 . S
C2691 H2678 0.930 . S
C2691 C2690 1.376 . S
C2691 C2692 1.388 . S
C2692 H2679 0.930 . S
C2692 C2691 1.388 . S
C2692 C2693 1.390 . S
C2693 C2692 1.390 . S
C2693 C2694 1.394 . S
C2693 C2699 1.465 . S
C2694 C2689 1.399 . S
C2694 C2693 1.394 . S
C2694 C2695 1.516 . S
C2695 C2694 1.516 . S
C2695 C2696 1.502 . S
C2695 C2697 1.561 . S
C2695 C2698 1.526 . S
C2696 H2680 0.959 . S
C2696 H2681 0.959 . S
C2696 H2682 0.961 . S
C2696 C2695 1.502 . S
C2697 H2683 0.960 . S
C2697 H2684 0.961 . S
C2697 H2685 0.959 . S
C2697 C2695 1.561 . S
C2698 C2695 1.526 . S
C2698 C2699 1.396 . S
C2698 C2703 1.390 . S
C2699 C2693 1.465 . S
C2699 C2698 1.396 . S
C2699 C2700 1.399 . S
C2700 H2686 0.929 . S
C2700 C2699 1.399 . S
C2700 C2701 1.385 . S
C2701 H2687 0.931 . S
C2701 C2700 1.385 . S
C2701 C2702 1.389 . S
C2702 C2701 1.389 . S
C2702 C2703 1.387 . S
C2703 H2688 0.930 . S
C2703 C2698 1.390 . S
C2703 C2702 1.387 . S
H2704 C2716 0.930 . S
H2705 C2718 0.930 . S
H2706 C2719 0.930 . S
H2707 C2723 0.959 . S
H2708 C2723 0.959 . S
H2709 C2723 0.961 . S
H2710 C2724 0.960 . S
H2711 C2724 0.961 . S
H2712 C2724 0.959 . S
H2713 C2727 0.929 . S
H2714 C2728 0.931 . S
H2715 C2730 0.930 . S
C2716 H2704 0.930 . S
C2716 C2717 1.399 . S
C2716 C2721 1.399 . S
C2717 C2716 1.399 . S
C2717 C2718 1.376 . S
C2718 H2705 0.930 . S
C2718 C2717 1.376 . S
C2718 C2719 1.388 . S
C2719 H2706 0.930 . S
C2719 C2718 1.388 . S
C2719 C2720 1.390 . S
C2720 C2719 1.390 . S
C2720 C2721 1.394 . S
C2720 C2726 1.465 . S
C2721 C2716 1.399 . S
C2721 C2720 1.394 . S
C2721 C2722 1.516 . S
C2722 C2721 1.516 . S
C2722 C2723 1.502 . S
C2722 C2724 1.561 . S
C2722 C2725 1.526 . S
C2723 H2707 0.959 . S
C2723 H2708 0.959 . S
C2723 H2709 0.961 . S
C2723 C2722 1.502 . S
C2724 H2710 0.960 . S
C2724 H2711 0.961 . S
C2724 H2712 0.959 . S
C2724 C2722 1.561 . S
C2725 C2722 1.526 . S
C2725 C2726 1.396 . S
C2725 C2730 1.390 . S
C2726 C2720 1.465 . S
C2726 C2725 1.396 . S
C2726 C2727 1.399 . S
C2727 H2713 0.929 . S
C2727 C2726 1.399 . S
C2727 C2728 1.385 . S
C2728 H2714 0.931 . S
C2728 C2727 1.385 . S
C2728 C2729 1.389 . S
C2729 C2728 1.389 . S
C2729 C2730 1.387 . S
C2730 H2715 0.930 . S
C2730 C2725 1.390 . S
C2730 C2729 1.387 . S
H2731 C2743 0.930 . S
H2732 C2745 0.930 . S
H2733 C2746 0.930 . S
H2734 C2750 0.959 . S
H2735 C2750 0.959 . S
H2736 C2750 0.961 . S
H2737 C2751 0.960 . S
H2738 C2751 0.961 . S
H2739 C2751 0.959 . S
H2740 C2754 0.929 . S
H2741 C2755 0.931 . S
H2742 C2757 0.930 . S
C2743 H2731 0.930 . S
C2743 C2744 1.399 . S
C2743 C2748 1.399 . S
C2744 C2743 1.399 . S
C2744 C2745 1.376 . S
C2745 H2732 0.930 . S
C2745 C2744 1.376 . S
C2745 C2746 1.388 . S
C2746 H2733 0.930 . S
C2746 C2745 1.388 . S
C2746 C2747 1.390 . S
C2747 C2746 1.390 . S
C2747 C2748 1.394 . S
C2747 C2753 1.465 . S
C2748 C2743 1.399 . S
C2748 C2747 1.394 . S
C2748 C2749 1.516 . S
C2749 C2748 1.516 . S
C2749 C2750 1.502 . S
C2749 C2751 1.561 . S
C2749 C2752 1.526 . S
C2750 H2734 0.959 . S
C2750 H2735 0.959 . S
C2750 H2736 0.961 . S
C2750 C2749 1.502 . S
C2751 H2737 0.960 . S
C2751 H2738 0.961 . S
C2751 H2739 0.959 . S
C2751 C2749 1.561 . S
C2752 C2749 1.526 . S
C2752 C2753 1.396 . S
C2752 C2757 1.390 . S
C2753 C2747 1.465 . S
C2753 C2752 1.396 . S
C2753 C2754 1.399 . S
C2754 H2740 0.929 . S
C2754 C2753 1.399 . S
C2754 C2755 1.385 . S
C2755 H2741 0.931 . S
C2755 C2754 1.385 . S
C2755 C2756 1.389 . S
C2756 C2755 1.389 . S
C2756 C2757 1.387 . S
C2757 H2742 0.930 . S
C2757 C2752 1.390 . S
C2757 C2756 1.387 . S
H2758 C2770 0.930 . S
H2759 C2772 0.930 . S
H2760 C2773 0.930 . S
H2761 C2777 0.959 . S
H2762 C2777 0.959 . S
H2763 C2777 0.961 . S
H2764 C2778 0.960 . S
H2765 C2778 0.961 . S
H2766 C2778 0.959 . S
H2767 C2781 0.929 . S
H2768 C2782 0.931 . S
H2769 C2784 0.930 . S
C2770 H2758 0.930 . S
C2770 C2771 1.399 . S
C2770 C2775 1.399 . S
C2771 C2770 1.399 . S
C2771 C2772 1.376 . S
C2772 H2759 0.930 . S
C2772 C2771 1.376 . S
C2772 C2773 1.388 . S
C2773 H2760 0.930 . S
C2773 C2772 1.388 . S
C2773 C2774 1.390 . S
C2774 C2773 1.390 . S
C2774 C2775 1.394 . S
C2774 C2780 1.465 . S
C2775 C2770 1.399 . S
C2775 C2774 1.394 . S
C2775 C2776 1.516 . S
C2776 C2775 1.516 . S
C2776 C2777 1.502 . S
C2776 C2778 1.561 . S
C2776 C2779 1.526 . S
C2777 H2761 0.959 . S
C2777 H2762 0.959 . S
C2777 H2763 0.961 . S
C2777 C2776 1.502 . S
C2778 H2764 0.960 . S
C2778 H2765 0.961 . S
C2778 H2766 0.959 . S
C2778 C2776 1.561 . S
C2779 C2776 1.526 . S
C2779 C2780 1.396 . S
C2779 C2784 1.390 . S
C2780 C2774 1.465 . S
C2780 C2779 1.396 . S
C2780 C2781 1.399 . S
C2781 H2767 0.929 . S
C2781 C2780 1.399 . S
C2781 C2782 1.385 . S
C2782 H2768 0.931 . S
C2782 C2781 1.385 . S
C2782 C2783 1.389 . S
C2783 C2782 1.389 . S
C2783 C2784 1.387 . S
C2784 H2769 0.930 . S
C2784 C2779 1.390 . S
C2784 C2783 1.387 . S
H2785 C2797 0.930 . S
H2786 C2799 0.930 . S
H2787 C2800 0.930 . S
H2788 C2804 0.959 . S
H2789 C2804 0.959 . S
H2790 C2804 0.961 . S
H2791 C2805 0.960 . S
H2792 C2805 0.961 . S
H2793 C2805 0.959 . S
H2794 C2808 0.929 . S
H2795 C2809 0.935 1_556 S
H2796 C2811 0.930 . S
C2797 H2785 0.930 . S
C2797 C2798 1.399 . S
C2797 C2802 1.399 . S
C2798 C2797 1.399 . S
C2798 C2799 1.376 1_554 S
C2799 H2786 0.930 . S
C2799 C2798 1.376 1_556 S
C2799 C2800 1.388 . S
C2800 H2787 0.930 . S
C2800 C2799 1.388 . S
C2800 C2801 1.390 1_556 S
C2801 C2800 1.390 1_554 S
C2801 C2802 1.394 . S
C2801 C2807 1.465 . S
C2802 C2797 1.399 . S
C2802 C2801 1.394 . S
C2802 C2803 1.516 . S
C2803 C2802 1.516 . S
C2803 C2804 1.502 . S
C2803 C2805 1.561 . S
C2803 C2806 1.526 . S
C2804 H2788 0.959 . S
C2804 H2789 0.959 . S
C2804 H2790 0.961 . S
C2804 C2803 1.502 . S
C2805 H2791 0.960 . S
C2805 H2792 0.961 . S
C2805 H2793 0.959 . S
C2805 C2803 1.561 . S
C2806 C2803 1.526 . S
C2806 C2807 1.396 . S
C2806 C2811 1.390 . S
C2807 C2801 1.465 . S
C2807 C2806 1.396 . S
C2807 C2808 1.399 1_554 S
C2808 H2794 0.929 . S
C2808 C2807 1.399 1_556 S
C2808 C2809 1.386 1_556 S
C2809 H2795 0.935 1_554 S
C2809 C2808 1.386 1_554 S
C2809 C2810 1.385 . S
C2810 C2809 1.385 . S
C2810 C2811 1.387 . S
C2811 H2796 0.930 . S
C2811 C2806 1.390 . S
C2811 C2810 1.387 . S
H2812 C2824 0.930 . S
H2813 C2826 0.930 . S
H2814 C2827 0.930 . S
H2815 C2831 0.959 . S
H2816 C2831 0.959 . S
H2817 C2831 0.961 . S
H2818 C2832 0.960 . S
H2819 C2832 0.961 . S
H2820 C2832 0.959 . S
H2821 C2835 0.929 . S
H2822 C2836 0.931 . S
H2823 C2838 0.930 . S
C2824 H2812 0.930 . S
C2824 C2825 1.399 . S
C2824 C2829 1.399 . S
C2825 C2824 1.399 . S
C2825 C2826 1.376 . S
C2826 H2813 0.930 . S
C2826 C2825 1.376 . S
C2826 C2827 1.388 . S
C2827 H2814 0.930 . S
C2827 C2826 1.388 . S
C2827 C2828 1.390 . S
C2828 C2827 1.390 . S
C2828 C2829 1.394 . S
C2828 C2834 1.465 . S
C2829 C2824 1.399 . S
C2829 C2828 1.394 . S
C2829 C2830 1.516 . S
C2830 C2829 1.516 . S
C2830 C2831 1.502 . S
C2830 C2832 1.561 . S
C2830 C2833 1.526 . S
C2831 H2815 0.959 . S
C2831 H2816 0.959 . S
C2831 H2817 0.961 . S
C2831 C2830 1.502 . S
C2832 H2818 0.960 . S
C2832 H2819 0.961 . S
C2832 H2820 0.959 . S
C2832 C2830 1.561 . S
C2833 C2830 1.526 . S
C2833 C2834 1.396 . S
C2833 C2838 1.390 . S
C2834 C2828 1.465 . S
C2834 C2833 1.396 . S
C2834 C2835 1.399 . S
C2835 H2821 0.929 . S
C2835 C2834 1.399 . S
C2835 C2836 1.385 . S
C2836 H2822 0.931 . S
C2836 C2835 1.385 . S
C2836 C2837 1.389 . S
C2837 C2836 1.389 . S
C2837 C2838 1.387 . S
C2838 H2823 0.930 . S
C2838 C2833 1.390 . S
C2838 C2837 1.387 . S
H2839 C2851 0.930 . S
H2840 C2853 0.930 . S
H2841 C2854 0.930 . S
H2842 C2858 0.959 . S
H2843 C2858 0.959 . S
H2844 C2858 0.961 . S
H2845 C2859 0.960 . S
H2846 C2859 0.961 . S
H2847 C2859 0.959 . S
H2848 C2862 0.929 . S
H2849 C2863 0.931 . S
H2850 C2865 0.930 . S
C2851 H2839 0.930 . S
C2851 C2852 1.399 . S
C2851 C2856 1.399 . S
C2852 C2851 1.399 . S
C2852 C2853 1.376 . S
C2853 H2840 0.930 . S
C2853 C2852 1.376 . S
C2853 C2854 1.388 . S
C2854 H2841 0.930 . S
C2854 C2853 1.388 . S
C2854 C2855 1.390 . S
C2855 C2854 1.390 . S
C2855 C2856 1.394 . S
C2855 C2861 1.465 . S
C2856 C2851 1.399 . S
C2856 C2855 1.394 . S
C2856 C2857 1.516 . S
C2857 C2856 1.516 . S
C2857 C2858 1.502 . S
C2857 C2859 1.561 . S
C2857 C2860 1.526 . S
C2858 H2842 0.959 . S
C2858 H2843 0.959 . S
C2858 H2844 0.961 . S
C2858 C2857 1.502 . S
C2859 H2845 0.960 . S
C2859 H2846 0.961 . S
C2859 H2847 0.959 . S
C2859 C2857 1.561 . S
C2860 C2857 1.526 . S
C2860 C2861 1.396 . S
C2860 C2865 1.390 . S
C2861 C2855 1.465 . S
C2861 C2860 1.396 . S
C2861 C2862 1.399 . S
C2862 H2848 0.929 . S
C2862 C2861 1.399 . S
C2862 C2863 1.385 . S
C2863 H2849 0.931 . S
C2863 C2862 1.385 . S
C2863 C2864 1.389 . S
C2864 C2863 1.389 . S
C2864 C2865 1.387 . S
C2865 H2850 0.930 . S
C2865 C2860 1.390 . S
C2865 C2864 1.387 . S
H2866 C2878 0.930 . S
H2867 C2880 0.930 . S
H2868 C2881 0.930 . S
H2869 C2885 0.959 . S
H2870 C2885 0.959 . S
H2871 C2885 0.961 . S
H2872 C2886 0.960 . S
H2873 C2886 0.961 . S
H2874 C2886 0.959 . S
H2875 C2889 0.929 . S
H2876 C2890 0.931 . S
H2877 C2892 0.930 . S
C2878 H2866 0.930 . S
C2878 C2879 1.399 . S
C2878 C2883 1.399 . S
C2879 C2878 1.399 . S
C2879 C2880 1.376 . S
C2880 H2867 0.930 . S
C2880 C2879 1.376 . S
C2880 C2881 1.388 . S
C2881 H2868 0.930 . S
C2881 C2880 1.388 . S
C2881 C2882 1.390 . S
C2882 C2881 1.390 . S
C2882 C2883 1.394 . S
C2882 C2888 1.465 . S
C2883 C2878 1.399 . S
C2883 C2882 1.394 . S
C2883 C2884 1.516 . S
C2884 C2883 1.516 . S
C2884 C2885 1.502 . S
C2884 C2886 1.561 . S
C2884 C2887 1.526 . S
C2885 H2869 0.959 . S
C2885 H2870 0.959 . S
C2885 H2871 0.961 . S
C2885 C2884 1.502 . S
C2886 H2872 0.960 . S
C2886 H2873 0.961 . S
C2886 H2874 0.959 . S
C2886 C2884 1.561 . S
C2887 C2884 1.526 . S
C2887 C2888 1.396 . S
C2887 C2892 1.390 . S
C2888 C2882 1.465 . S
C2888 C2887 1.396 . S
C2888 C2889 1.399 . S
C2889 H2875 0.929 . S
C2889 C2888 1.399 . S
C2889 C2890 1.385 . S
C2890 H2876 0.931 . S
C2890 C2889 1.385 . S
C2890 C2891 1.389 . S
C2891 C2890 1.389 . S
C2891 C2892 1.387 . S
C2892 H2877 0.930 . S
C2892 C2887 1.390 . S
C2892 C2891 1.387 . S
H2893 C2905 0.930 . S
H2894 C2907 0.930 . S
H2895 C2908 0.930 . S
H2896 C2912 0.959 . S
H2897 C2912 0.959 . S
H2898 C2912 0.961 . S
H2899 C2913 0.960 . S
H2900 C2913 0.961 . S
H2901 C2913 0.959 . S
H2902 C2916 0.929 . S
H2903 C2917 0.931 . S
H2904 C2919 0.930 . S
C2905 H2893 0.930 . S
C2905 C2906 1.399 . S
C2905 C2910 1.399 . S
C2906 C2905 1.399 . S
C2906 C2907 1.376 . S
C2907 H2894 0.930 . S
C2907 C2906 1.376 . S
C2907 C2908 1.388 . S
C2908 H2895 0.930 . S
C2908 C2907 1.388 . S
C2908 C2909 1.390 . S
C2909 C2908 1.390 . S
C2909 C2910 1.394 . S
C2909 C2915 1.465 . S
C2910 C2905 1.399 . S
C2910 C2909 1.394 . S
C2910 C2911 1.516 . S
C2911 C2910 1.516 . S
C2911 C2912 1.502 . S
C2911 C2913 1.561 . S
C2911 C2914 1.526 . S
C2912 H2896 0.959 . S
C2912 H2897 0.959 . S
C2912 H2898 0.961 . S
C2912 C2911 1.502 . S
C2913 H2899 0.960 . S
C2913 H2900 0.961 . S
C2913 H2901 0.959 . S
C2913 C2911 1.561 . S
C2914 C2911 1.526 . S
C2914 C2915 1.396 . S
C2914 C2919 1.390 . S
C2915 C2909 1.465 . S
C2915 C2914 1.396 . S
C2915 C2916 1.399 . S
C2916 H2902 0.929 . S
C2916 C2915 1.399 . S
C2916 C2917 1.385 . S
C2917 H2903 0.931 . S
C2917 C2916 1.385 . S
C2917 C2918 1.389 . S
C2918 C2917 1.389 . S
C2918 C2919 1.387 . S
C2919 H2904 0.930 . S
C2919 C2914 1.390 . S
C2919 C2918 1.387 . S
H2920 C2932 0.930 . S
H2921 C2934 0.930 . S
H2922 C2935 0.930 . S
H2923 C2939 0.959 . S
H2924 C2939 0.959 . S
H2925 C2939 0.961 . S
H2926 C2940 0.960 . S
H2927 C2940 0.961 . S
H2928 C2940 0.959 . S
H2929 C2943 0.929 . S
H2930 C2944 0.931 . S
H2931 C2946 0.930 . S
C2932 H2920 0.930 . S
C2932 C2933 1.399 . S
C2932 C2937 1.399 . S
C2933 C2932 1.399 . S
C2933 C2934 1.376 . S
C2934 H2921 0.930 . S
C2934 C2933 1.376 . S
C2934 C2935 1.388 . S
C2935 H2922 0.930 . S
C2935 C2934 1.388 . S
C2935 C2936 1.390 . S
C2936 C2935 1.390 . S
C2936 C2937 1.394 . S
C2936 C2942 1.465 . S
C2937 C2932 1.399 . S
C2937 C2936 1.394 . S
C2937 C2938 1.516 . S
C2938 C2937 1.516 . S
C2938 C2939 1.502 . S
C2938 C2940 1.561 . S
C2938 C2941 1.526 . S
C2939 H2923 0.959 . S
C2939 H2924 0.959 . S
C2939 H2925 0.961 . S
C2939 C2938 1.502 . S
C2940 H2926 0.960 . S
C2940 H2927 0.961 . S
C2940 H2928 0.959 . S
C2940 C2938 1.561 . S
C2941 C2938 1.526 . S
C2941 C2942 1.396 . S
C2941 C2946 1.390 . S
C2942 C2936 1.465 . S
C2942 C2941 1.396 . S
C2942 C2943 1.399 . S
C2943 H2929 0.929 . S
C2943 C2942 1.399 . S
C2943 C2944 1.385 . S
C2944 H2930 0.931 . S
C2944 C2943 1.385 . S
C2944 C2945 1.389 . S
C2945 C2944 1.389 . S
C2945 C2946 1.387 . S
C2946 H2931 0.930 . S
C2946 C2941 1.390 . S
C2946 C2945 1.387 . S
H2947 C2959 0.930 . S
H2948 C2961 0.930 . S
H2949 C2962 0.930 . S
H2950 C2966 0.959 . S
H2951 C2966 0.959 . S
H2952 C2966 0.961 . S
H2953 C2967 0.960 . S
H2954 C2967 0.961 . S
H2955 C2967 0.959 . S
H2956 C2970 0.929 . S
H2957 C2971 0.931 . S
H2958 C2973 0.930 . S
C2959 H2947 0.930 . S
C2959 C2960 1.399 . S
C2959 C2964 1.399 . S
C2960 C2959 1.399 . S
C2960 C2961 1.376 . S
C2961 H2948 0.930 . S
C2961 C2960 1.376 . S
C2961 C2962 1.388 . S
C2962 H2949 0.930 . S
C2962 C2961 1.388 . S
C2962 C2963 1.390 . S
C2963 C2962 1.390 . S
C2963 C2964 1.394 . S
C2963 C2969 1.465 . S
C2964 C2959 1.399 . S
C2964 C2963 1.394 . S
C2964 C2965 1.516 . S
C2965 C2964 1.516 . S
C2965 C2966 1.502 . S
C2965 C2967 1.561 . S
C2965 C2968 1.526 . S
C2966 H2950 0.959 . S
C2966 H2951 0.959 . S
C2966 H2952 0.961 . S
C2966 C2965 1.502 . S
C2967 H2953 0.960 . S
C2967 H2954 0.961 . S
C2967 H2955 0.959 . S
C2967 C2965 1.561 . S
C2968 C2965 1.526 . S
C2968 C2969 1.396 . S
C2968 C2973 1.390 . S
C2969 C2963 1.465 . S
C2969 C2968 1.396 . S
C2969 C2970 1.399 . S
C2970 H2956 0.929 . S
C2970 C2969 1.399 . S
C2970 C2971 1.385 . S
C2971 H2957 0.931 . S
C2971 C2970 1.385 . S
C2971 C2972 1.389 . S
C2972 C2971 1.389 . S
C2972 C2973 1.387 . S
C2973 H2958 0.930 . S
C2973 C2968 1.390 . S
C2973 C2972 1.387 . S
H2974 C2986 0.930 . S
H2975 C2988 0.930 . S
H2976 C2989 0.930 . S
H2977 C2993 0.959 . S
H2978 C2993 0.959 . S
H2979 C2993 0.961 . S
H2980 C2994 0.960 . S
H2981 C2994 0.961 . S
H2982 C2994 0.959 . S
H2983 C2997 0.929 . S
H2984 C2998 0.931 . S
H2985 C3000 0.930 . S
C2986 H2974 0.930 . S
C2986 C2987 1.399 . S
C2986 C2991 1.399 . S
C2987 C2986 1.399 . S
C2987 C2988 1.376 . S
C2988 H2975 0.930 . S
C2988 C2987 1.376 . S
C2988 C2989 1.388 . S
C2989 H2976 0.930 . S
C2989 C2988 1.388 . S
C2989 C2990 1.390 . S
C2990 C2989 1.390 . S
C2990 C2991 1.394 . S
C2990 C2996 1.465 . S
C2991 C2986 1.399 . S
C2991 C2990 1.394 . S
C2991 C2992 1.516 . S
C2992 C2991 1.516 . S
C2992 C2993 1.502 . S
C2992 C2994 1.561 . S
C2992 C2995 1.526 . S
C2993 H2977 0.959 . S
C2993 H2978 0.959 . S
C2993 H2979 0.961 . S
C2993 C2992 1.502 . S
C2994 H2980 0.960 . S
C2994 H2981 0.961 . S
C2994 H2982 0.959 . S
C2994 C2992 1.561 . S
C2995 C2992 1.526 . S
C2995 C2996 1.396 . S
C2995 C3000 1.390 . S
C2996 C2990 1.465 . S
C2996 C2995 1.396 . S
C2996 C2997 1.399 . S
C2997 H2983 0.929 . S
C2997 C2996 1.399 . S
C2997 C2998 1.385 . S
C2998 H2984 0.931 . S
C2998 C2997 1.385 . S
C2998 C2999 1.389 . S
C2999 C2998 1.389 . S
C2999 C3000 1.387 . S
C3000 H2985 0.930 . S
C3000 C2995 1.390 . S
C3000 C2999 1.387 . S
H3001 C3013 0.930 . S
H3002 C3015 0.930 . S
H3003 C3016 0.930 . S
H3004 C3020 0.959 . S
H3005 C3020 0.959 . S
H3006 C3020 0.961 . S
H3007 C3021 0.960 . S
H3008 C3021 0.961 . S
H3009 C3021 0.959 . S
H3010 C3024 0.929 . S
H3011 C3025 0.931 . S
H3012 C3027 0.930 . S
C3013 H3001 0.930 . S
C3013 C3014 1.399 . S
C3013 C3018 1.399 . S
C3014 C3013 1.399 . S
C3014 C3015 1.376 . S
C3015 H3002 0.930 . S
C3015 C3014 1.376 . S
C3015 C3016 1.388 . S
C3016 H3003 0.930 . S
C3016 C3015 1.388 . S
C3016 C3017 1.390 . S
C3017 C3016 1.390 . S
C3017 C3018 1.394 . S
C3017 C3023 1.465 . S
C3018 C3013 1.399 . S
C3018 C3017 1.394 . S
C3018 C3019 1.516 . S
C3019 C3018 1.516 . S
C3019 C3020 1.502 . S
C3019 C3021 1.561 . S
C3019 C3022 1.526 . S
C3020 H3004 0.959 . S
C3020 H3005 0.959 . S
C3020 H3006 0.961 . S
C3020 C3019 1.502 . S
C3021 H3007 0.960 . S
C3021 H3008 0.961 . S
C3021 H3009 0.959 . S
C3021 C3019 1.561 . S
C3022 C3019 1.526 . S
C3022 C3023 1.396 . S
C3022 C3027 1.390 . S
C3023 C3017 1.465 . S
C3023 C3022 1.396 . S
C3023 C3024 1.399 . S
C3024 H3010 0.929 . S
C3024 C3023 1.399 . S
C3024 C3025 1.385 . S
C3025 H3011 0.931 . S
C3025 C3024 1.385 . S
C3025 C3026 1.389 . S
C3026 C3025 1.389 . S
C3026 C3027 1.387 . S
C3027 H3012 0.930 . S
C3027 C3022 1.390 . S
C3027 C3026 1.387 . S
H3028 C3040 0.930 . S
H3029 C3042 0.930 . S
H3030 C3043 0.930 . S
H3031 C3047 0.959 . S
H3032 C3047 0.959 . S
H3033 C3047 0.961 . S
H3034 C3048 0.960 . S
H3035 C3048 0.961 1_554 S
H3036 C3048 0.959 . S
H3037 C3051 0.929 . S
H3038 C3052 0.931 . S
H3039 C3054 0.930 . S
C3040 H3028 0.930 . S
C3040 C3041 1.399 . S
C3040 C3045 1.399 . S
C3041 C3040 1.399 . S
C3041 C3042 1.376 . S
C3042 H3029 0.930 . S
C3042 C3041 1.376 . S
C3042 C3043 1.388 . S
C3043 H3030 0.930 . S
C3043 C3042 1.388 . S
C3043 C3044 1.390 . S
C3044 C3043 1.390 . S
C3044 C3045 1.394 . S
C3044 C3050 1.465 . S
C3045 C3040 1.399 . S
C3045 C3044 1.394 . S
C3045 C3046 1.516 . S
C3046 C3045 1.516 . S
C3046 C3047 1.502 . S
C3046 C3048 1.561 . S
C3046 C3049 1.526 . S
C3047 H3031 0.959 . S
C3047 H3032 0.959 . S
C3047 H3033 0.961 . S
C3047 C3046 1.502 . S
C3048 H3034 0.960 . S
C3048 H3035 0.961 1_556 S
C3048 H3036 0.959 . S
C3048 C3046 1.561 . S
C3049 C3046 1.526 . S
C3049 C3050 1.396 . S
C3049 C3054 1.390 . S
C3050 C3044 1.465 . S
C3050 C3049 1.396 . S
C3050 C3051 1.399 . S
C3051 H3037 0.929 . S
C3051 C3050 1.399 . S
C3051 C3052 1.385 . S
C3052 H3038 0.931 . S
C3052 C3051 1.385 . S
C3052 C3053 1.389 . S
C3053 C3052 1.389 . S
C3053 C3054 1.387 . S
C3054 H3039 0.930 . S
C3054 C3049 1.390 . S
C3054 C3053 1.387 . S
H3055 C3067 0.930 . S
H3056 C3069 0.930 . S
H3057 C3070 0.930 . S
H3058 C3074 0.959 . S
H3059 C3074 0.959 . S
H3060 C3074 0.961 . S
H3061 C3075 0.960 . S
H3062 C3075 0.961 . S
H3063 C3075 0.959 . S
H3064 C3078 0.929 . S
H3065 C3079 0.931 . S
H3066 C3081 0.930 . S
C3067 H3055 0.930 . S
C3067 C3068 1.399 . S
C3067 C3072 1.399 . S
C3068 C3067 1.399 . S
C3068 C3069 1.376 . S
C3069 H3056 0.930 . S
C3069 C3068 1.376 . S
C3069 C3070 1.388 . S
C3070 H3057 0.930 . S
C3070 C3069 1.388 . S
C3070 C3071 1.390 . S
C3071 C3070 1.390 . S
C3071 C3072 1.394 . S
C3071 C3077 1.465 . S
C3072 C3067 1.399 . S
C3072 C3071 1.394 . S
C3072 C3073 1.516 . S
C3073 C3072 1.516 . S
C3073 C3074 1.502 . S
C3073 C3075 1.561 . S
C3073 C3076 1.526 . S
C3074 H3058 0.959 . S
C3074 H3059 0.959 . S
C3074 H3060 0.961 . S
C3074 C3073 1.502 . S
C3075 H3061 0.960 . S
C3075 H3062 0.961 . S
C3075 H3063 0.959 . S
C3075 C3073 1.561 . S
C3076 C3073 1.526 . S
C3076 C3077 1.396 . S
C3076 C3081 1.390 . S
C3077 C3071 1.465 . S
C3077 C3076 1.396 . S
C3077 C3078 1.399 . S
C3078 H3064 0.929 . S
C3078 C3077 1.399 . S
C3078 C3079 1.385 . S
C3079 H3065 0.931 . S
C3079 C3078 1.385 . S
C3079 C3080 1.389 . S
C3080 C3079 1.389 . S
C3080 C3081 1.387 . S
C3081 H3066 0.930 . S
C3081 C3076 1.390 . S
C3081 C3080 1.387 . S
H3082 C3094 0.930 . S
H3083 C3096 0.930 1_655 S
H3084 C3097 0.930 1_655 S
H3085 C3101 0.959 . S
H3086 C3101 0.959 . S
H3087 C3101 0.961 . S
H3088 C3102 0.960 . S
H3089 C3102 0.961 . S
H3090 C3102 0.959 1_655 S
H3091 C3105 0.929 . S
H3092 C3106 0.931 . S
H3093 C3108 0.930 . S
C3094 H3082 0.930 . S
C3094 C3095 1.399 . S
C3094 C3099 1.399 . S
C3095 C3094 1.399 . S
C3095 C3096 1.376 . S
C3096 H3083 0.930 1_455 S
C3096 C3095 1.376 . S
C3096 C3097 1.388 . S
C3097 H3084 0.930 1_455 S
C3097 C3096 1.388 . S
C3097 C3098 1.390 . S
C3098 C3097 1.390 . S
C3098 C3099 1.394 . S
C3098 C3104 1.465 . S
C3099 C3094 1.399 . S
C3099 C3098 1.394 . S
C3099 C3100 1.516 . S
C3100 C3099 1.516 . S
C3100 C3101 1.502 . S
C3100 C3102 1.561 . S
C3100 C3103 1.526 . S
C3101 H3085 0.959 . S
C3101 H3086 0.959 . S
C3101 H3087 0.961 . S
C3101 C3100 1.502 . S
C3102 H3088 0.960 . S
C3102 H3089 0.961 . S
C3102 H3090 0.959 1_455 S
C3102 C3100 1.561 . S
C3103 C3100 1.526 . S
C3103 C3104 1.396 . S
C3103 C3108 1.390 . S
C3104 C3098 1.465 . S
C3104 C3103 1.396 . S
C3104 C3105 1.399 . S
C3105 H3091 0.929 . S
C3105 C3104 1.399 . S
C3105 C3106 1.385 . S
C3106 H3092 0.931 . S
C3106 C3105 1.385 . S
C3106 C3107 1.389 . S
C3107 C3106 1.389 . S
C3107 C3108 1.387 . S
C3108 H3093 0.930 . S
C3108 C3103 1.390 . S
C3108 C3107 1.387 . S
H3109 C3121 0.930 . S
H3110 C3123 0.930 . S
H3111 C3124 0.930 . S
H3112 C3128 0.959 . S
H3113 C3128 0.959 . S
H3114 C3128 0.961 . S
H3115 C3129 0.960 . S
H3116 C3129 0.961 . S
H3117 C3129 0.959 . S
H3118 C3132 0.929 . S
H3119 C3133 0.931 . S
H3120 C3135 0.930 . S
C3121 H3109 0.930 . S
C3121 C3122 1.399 . S
C3121 C3126 1.399 . S
C3122 C3121 1.399 . S
C3122 C3123 1.376 . S
C3123 H3110 0.930 . S
C3123 C3122 1.376 . S
C3123 C3124 1.388 . S
C3124 H3111 0.930 . S
C3124 C3123 1.388 . S
C3124 C3125 1.390 . S
C3125 C3124 1.390 . S
C3125 C3126 1.394 . S
C3125 C3131 1.465 . S
C3126 C3121 1.399 . S
C3126 C3125 1.394 . S
C3126 C3127 1.516 . S
C3127 C3126 1.516 . S
C3127 C3128 1.502 . S
C3127 C3129 1.561 . S
C3127 C3130 1.526 . S
C3128 H3112 0.959 . S
C3128 H3113 0.959 . S
C3128 H3114 0.961 . S
C3128 C3127 1.502 . S
C3129 H3115 0.960 . S
C3129 H3116 0.961 . S
C3129 H3117 0.959 . S
C3129 C3127 1.561 . S
C3130 C3127 1.526 . S
C3130 C3131 1.396 . S
C3130 C3135 1.390 . S
C3131 C3125 1.465 . S
C3131 C3130 1.396 . S
C3131 C3132 1.399 . S
C3132 H3118 0.929 . S
C3132 C3131 1.399 . S
C3132 C3133 1.385 . S
C3133 H3119 0.931 . S
C3133 C3132 1.385 . S
C3133 C3134 1.389 . S
C3134 C3133 1.389 . S
C3134 C3135 1.387 . S
C3135 H3120 0.930 . S
C3135 C3130 1.390 . S
C3135 C3134 1.387 . S
H3136 C3148 0.930 . S
H3137 C3150 0.930 . S
H3138 C3151 0.930 . S
H3139 C3155 0.959 . S
H3140 C3155 0.959 . S
H3141 C3155 0.961 . S
H3142 C3156 0.960 . S
H3143 C3156 0.961 . S
H3144 C3156 0.959 . S
H3145 C3159 0.929 . S
H3146 C3160 0.931 . S
H3147 C3162 0.930 . S
C3148 H3136 0.930 . S
C3148 C3149 1.399 . S
C3148 C3153 1.399 . S
C3149 C3148 1.399 . S
C3149 C3150 1.376 . S
C3150 H3137 0.930 . S
C3150 C3149 1.376 . S
C3150 C3151 1.388 . S
C3151 H3138 0.930 . S
C3151 C3150 1.388 . S
C3151 C3152 1.390 . S
C3152 C3151 1.390 . S
C3152 C3153 1.394 . S
C3152 C3158 1.465 . S
C3153 C3148 1.399 . S
C3153 C3152 1.394 . S
C3153 C3154 1.516 . S
C3154 C3153 1.516 . S
C3154 C3155 1.502 . S
C3154 C3156 1.561 . S
C3154 C3157 1.526 . S
C3155 H3139 0.959 . S
C3155 H3140 0.959 . S
C3155 H3141 0.961 . S
C3155 C3154 1.502 . S
C3156 H3142 0.960 . S
C3156 H3143 0.961 . S
C3156 H3144 0.959 . S
C3156 C3154 1.561 . S
C3157 C3154 1.526 . S
C3157 C3158 1.396 . S
C3157 C3162 1.390 . S
C3158 C3152 1.465 . S
C3158 C3157 1.396 . S
C3158 C3159 1.399 . S
C3159 H3145 0.929 . S
C3159 C3158 1.399 . S
C3159 C3160 1.385 . S
C3160 H3146 0.931 . S
C3160 C3159 1.385 . S
C3160 C3161 1.389 . S
C3161 C3160 1.389 . S
C3161 C3162 1.387 . S
C3162 H3147 0.930 . S
C3162 C3157 1.390 . S
C3162 C3161 1.387 . S
H3163 C3175 0.930 . S
H3164 C3177 0.930 . S
H3165 C3178 0.930 . S
H3166 C3182 0.959 . S
H3167 C3182 0.959 . S
H3168 C3182 0.961 . S
H3169 C3183 0.960 . S
H3170 C3183 0.961 . S
H3171 C3183 0.959 . S
H3172 C3186 0.929 . S
H3173 C3187 0.931 . S
H3174 C3189 0.930 . S
C3175 H3163 0.930 . S
C3175 C3176 1.399 . S
C3175 C3180 1.399 . S
C3176 C3175 1.399 . S
C3176 C3177 1.376 . S
C3177 H3164 0.930 . S
C3177 C3176 1.376 . S
C3177 C3178 1.388 . S
C3178 H3165 0.930 . S
C3178 C3177 1.388 . S
C3178 C3179 1.390 . S
C3179 C3178 1.390 . S
C3179 C3180 1.394 . S
C3179 C3185 1.465 . S
C3180 C3175 1.399 . S
C3180 C3179 1.394 . S
C3180 C3181 1.516 . S
C3181 C3180 1.516 . S
C3181 C3182 1.502 . S
C3181 C3183 1.561 . S
C3181 C3184 1.526 . S
C3182 H3166 0.959 . S
C3182 H3167 0.959 . S
C3182 H3168 0.961 . S
C3182 C3181 1.502 . S
C3183 H3169 0.960 . S
C3183 H3170 0.961 . S
C3183 H3171 0.959 . S
C3183 C3181 1.561 . S
C3184 C3181 1.526 . S
C3184 C3185 1.396 . S
C3184 C3189 1.390 . S
C3185 C3179 1.465 . S
C3185 C3184 1.396 . S
C3185 C3186 1.399 . S
C3186 H3172 0.929 . S
C3186 C3185 1.399 . S
C3186 C3187 1.385 . S
C3187 H3173 0.931 . S
C3187 C3186 1.385 . S
C3187 C3188 1.389 . S
C3188 C3187 1.389 . S
C3188 C3189 1.387 . S
C3189 H3174 0.930 . S
C3189 C3184 1.390 . S
C3189 C3188 1.387 . S
H3190 C3202 0.930 . S
H3191 C3204 0.930 . S
H3192 C3205 0.930 . S
H3193 C3209 0.959 . S
H3194 C3209 0.959 . S
H3195 C3209 0.961 . S
H3196 C3210 0.960 . S
H3197 C3210 0.961 . S
H3198 C3210 0.959 . S
H3199 C3213 0.939 . S
H3200 C3214 0.931 . S
H3201 C3216 0.930 . S
C3202 H3190 0.930 . S
C3202 C3203 1.399 . S
C3202 C3207 1.399 . S
C3203 C3202 1.399 . S
C3203 C3204 1.376 . S
C3204 H3191 0.930 . S
C3204 C3203 1.376 . S
C3204 C3205 1.388 . S
C3205 H3192 0.930 . S
C3205 C3204 1.388 . S
C3205 C3206 1.390 . S
C3206 C3205 1.390 . S
C3206 C3207 1.394 . S
C3206 C3212 1.465 . S
C3207 C3202 1.399 . S
C3207 C3206 1.394 . S
C3207 C3208 1.516 . S
C3208 C3207 1.516 . S
C3208 C3209 1.502 . S
C3208 C3210 1.561 . S
C3208 C3211 1.526 . S
C3209 H3193 0.959 . S
C3209 H3194 0.959 . S
C3209 H3195 0.961 . S
C3209 C3208 1.502 . S
C3210 H3196 0.960 . S
C3210 H3197 0.961 . S
C3210 H3198 0.959 . S
C3210 C3208 1.561 . S
C3211 C3208 1.526 . S
C3211 C3212 1.396 . S
C3211 C3216 1.390 . S
C3212 C3206 1.465 . S
C3212 C3211 1.396 . S
C3212 C3213 1.377 1_655 S
C3213 H3199 0.939 . S
C3213 C3212 1.377 1_455 S
C3213 C3214 1.400 . S
C3214 H3200 0.931 . S
C3214 C3213 1.400 . S
C3214 C3215 1.389 . S
C3215 C3214 1.389 . S
C3215 C3216 1.387 1_455 S
C3216 H3201 0.930 . S
C3216 C3211 1.390 . S
C3216 C3215 1.387 1_655 S
H3217 C3229 0.930 . S
H3218 C3231 0.930 . S
H3219 C3232 0.930 . S
H3220 C3236 0.959 . S
H3221 C3236 0.959 . S
H3222 C3236 0.961 . S
H3223 C3237 0.960 . S
H3224 C3237 0.961 . S
H3225 C3237 0.959 . S
H3226 C3240 0.929 . S
H3227 C3241 0.931 . S
H3228 C3243 0.930 . S
C3229 H3217 0.930 . S
C3229 C3230 1.399 . S
C3229 C3234 1.399 . S
C3230 C3229 1.399 . S
C3230 C3231 1.376 . S
C3231 H3218 0.930 . S
C3231 C3230 1.376 . S
C3231 C3232 1.388 . S
C3232 H3219 0.930 . S
C3232 C3231 1.388 . S
C3232 C3233 1.390 . S
C3233 C3232 1.390 . S
C3233 C3234 1.394 . S
C3233 C3239 1.465 . S
C3234 C3229 1.399 . S
C3234 C3233 1.394 . S
C3234 C3235 1.516 . S
C3235 C3234 1.516 . S
C3235 C3236 1.502 . S
C3235 C3237 1.561 . S
C3235 C3238 1.526 . S
C3236 H3220 0.959 . S
C3236 H3221 0.959 . S
C3236 H3222 0.961 . S
C3236 C3235 1.502 . S
C3237 H3223 0.960 . S
C3237 H3224 0.961 . S
C3237 H3225 0.959 . S
C3237 C3235 1.561 . S
C3238 C3235 1.526 . S
C3238 C3239 1.396 . S
C3238 C3243 1.390 . S
C3239 C3233 1.465 . S
C3239 C3238 1.396 . S
C3239 C3240 1.399 . S
C3240 H3226 0.929 . S
C3240 C3239 1.399 . S
C3240 C3241 1.385 . S
C3241 H3227 0.931 . S
C3241 C3240 1.385 . S
C3241 C3242 1.389 . S
C3242 C3241 1.389 . S
C3242 C3243 1.387 . S
C3243 H3228 0.930 . S
C3243 C3238 1.390 . S
C3243 C3242 1.387 . S
H3244 C3256 0.930 . S
H3245 C3258 0.930 . S
H3246 C3259 0.930 . S
H3247 C3263 0.959 . S
H3248 C3263 0.959 . S
H3249 C3263 0.961 . S
H3250 C3264 0.960 . S
H3251 C3264 0.961 . S
H3252 C3264 0.959 . S
H3253 C3267 0.929 . S
H3254 C3268 0.931 . S
H3255 C3270 0.930 . S
C3256 H3244 0.930 . S
C3256 C3257 1.399 . S
C3256 C3261 1.399 . S
C3257 C3256 1.399 . S
C3257 C3258 1.376 . S
C3258 H3245 0.930 . S
C3258 C3257 1.376 . S
C3258 C3259 1.388 . S
C3259 H3246 0.930 . S
C3259 C3258 1.388 . S
C3259 C3260 1.390 . S
C3260 C3259 1.390 . S
C3260 C3261 1.394 . S
C3260 C3266 1.465 . S
C3261 C3256 1.399 . S
C3261 C3260 1.394 . S
C3261 C3262 1.516 . S
C3262 C3261 1.516 . S
C3262 C3263 1.502 . S
C3262 C3264 1.561 . S
C3262 C3265 1.526 . S
C3263 H3247 0.959 . S
C3263 H3248 0.959 . S
C3263 H3249 0.961 . S
C3263 C3262 1.502 . S
C3264 H3250 0.960 . S
C3264 H3251 0.961 . S
C3264 H3252 0.959 . S
C3264 C3262 1.561 . S
C3265 C3262 1.526 . S
C3265 C3266 1.396 . S
C3265 C3270 1.390 . S
C3266 C3260 1.465 . S
C3266 C3265 1.396 . S
C3266 C3267 1.399 . S
C3267 H3253 0.929 . S
C3267 C3266 1.399 . S
C3267 C3268 1.385 . S
C3268 H3254 0.931 . S
C3268 C3267 1.385 . S
C3268 C3269 1.389 . S
C3269 C3268 1.389 . S
C3269 C3270 1.387 . S
C3270 H3255 0.930 . S
C3270 C3265 1.390 . S
C3270 C3269 1.387 . S
H3271 C3283 0.930 . S
H3272 C3285 0.930 . S
H3273 C3286 0.930 . S
H3274 C3290 0.959 . S
H3275 C3290 0.959 . S
H3276 C3290 0.961 . S
H3277 C3291 0.960 . S
H3278 C3291 0.961 . S
H3279 C3291 0.959 . S
H3280 C3294 0.929 . S
H3281 C3295 0.931 . S
H3282 C3297 0.930 . S
C3283 H3271 0.930 . S
C3283 C3284 1.399 . S
C3283 C3288 1.399 . S
C3284 C3283 1.399 . S
C3284 C3285 1.376 . S
C3285 H3272 0.930 . S
C3285 C3284 1.376 . S
C3285 C3286 1.388 . S
C3286 H3273 0.930 . S
C3286 C3285 1.388 . S
C3286 C3287 1.390 . S
C3287 C3286 1.390 . S
C3287 C3288 1.394 . S
C3287 C3293 1.465 . S
C3288 C3283 1.399 . S
C3288 C3287 1.394 . S
C3288 C3289 1.516 . S
C3289 C3288 1.516 . S
C3289 C3290 1.502 . S
C3289 C3291 1.561 . S
C3289 C3292 1.526 . S
C3290 H3274 0.959 . S
C3290 H3275 0.959 . S
C3290 H3276 0.961 . S
C3290 C3289 1.502 . S
C3291 H3277 0.960 . S
C3291 H3278 0.961 . S
C3291 H3279 0.959 . S
C3291 C3289 1.561 . S
C3292 C3289 1.526 . S
C3292 C3293 1.396 . S
C3292 C3297 1.390 . S
C3293 C3287 1.465 . S
C3293 C3292 1.396 . S
C3293 C3294 1.399 . S
C3294 H3280 0.929 . S
C3294 C3293 1.399 . S
C3294 C3295 1.385 . S
C3295 H3281 0.931 . S
C3295 C3294 1.385 . S
C3295 C3296 1.389 . S
C3296 C3295 1.389 . S
C3296 C3297 1.387 . S
C3297 H3282 0.930 . S
C3297 C3292 1.390 . S
C3297 C3296 1.387 . S
H3298 C3310 0.930 . S
H3299 C3312 0.930 . S
H3300 C3313 0.930 . S
H3301 C3317 0.959 . S
H3302 C3317 0.959 . S
H3303 C3317 0.961 . S
H3304 C3318 0.960 . S
H3305 C3318 0.961 . S
H3306 C3318 0.959 . S
H3307 C3321 0.929 . S
H3308 C3322 0.931 . S
H3309 C3324 0.930 . S
C3310 H3298 0.930 . S
C3310 C3311 1.399 . S
C3310 C3315 1.399 . S
C3311 C3310 1.399 . S
C3311 C3312 1.376 . S
C3312 H3299 0.930 . S
C3312 C3311 1.376 . S
C3312 C3313 1.388 . S
C3313 H3300 0.930 . S
C3313 C3312 1.388 . S
C3313 C3314 1.390 . S
C3314 C3313 1.390 . S
C3314 C3315 1.394 . S
C3314 C3320 1.465 . S
C3315 C3310 1.399 . S
C3315 C3314 1.394 . S
C3315 C3316 1.516 . S
C3316 C3315 1.516 . S
C3316 C3317 1.502 . S
C3316 C3318 1.561 . S
C3316 C3319 1.526 . S
C3317 H3301 0.959 . S
C3317 H3302 0.959 . S
C3317 H3303 0.961 . S
C3317 C3316 1.502 . S
C3318 H3304 0.960 . S
C3318 H3305 0.961 . S
C3318 H3306 0.959 . S
C3318 C3316 1.561 . S
C3319 C3316 1.526 . S
C3319 C3320 1.396 . S
C3319 C3324 1.390 . S
C3320 C3314 1.465 . S
C3320 C3319 1.396 . S
C3320 C3321 1.399 . S
C3321 H3307 0.929 . S
C3321 C3320 1.399 . S
C3321 C3322 1.385 . S
C3322 H3308 0.931 . S
C3322 C3321 1.385 . S
C3322 C3323 1.389 . S
C3323 C3322 1.389 . S
C3323 C3324 1.387 . S
C3324 H3309 0.930 . S
C3324 C3319 1.390 . S
C3324 C3323 1.387 . S
H3325 C3337 0.930 . S
H3326 C3339 0.930 . S
H3327 C3340 0.930 . S
H3328 C3344 0.959 . S
H3329 C3344 0.959 . S
H3330 C3344 0.961 . S
H3331 C3345 0.960 . S
H3332 C3345 0.961 . S
H3333 C3345 0.959 . S
H3334 C3348 0.929 . S
H3335 C3349 0.931 . S
H3336 C3351 0.930 . S
C3337 H3325 0.930 . S
C3337 C3338 1.399 . S
C3337 C3342 1.399 . S
C3338 C3337 1.399 . S
C3338 C3339 1.376 . S
C3339 H3326 0.930 . S
C3339 C3338 1.376 . S
C3339 C3340 1.388 . S
C3340 H3327 0.930 . S
C3340 C3339 1.388 . S
C3340 C3341 1.390 . S
C3341 C3340 1.390 . S
C3341 C3342 1.394 . S
C3341 C3347 1.465 . S
C3342 C3337 1.399 . S
C3342 C3341 1.394 . S
C3342 C3343 1.516 . S
C3343 C3342 1.516 . S
C3343 C3344 1.502 . S
C3343 C3345 1.561 . S
C3343 C3346 1.526 . S
C3344 H3328 0.959 . S
C3344 H3329 0.959 . S
C3344 H3330 0.961 . S
C3344 C3343 1.502 . S
C3345 H3331 0.960 . S
C3345 H3332 0.961 . S
C3345 H3333 0.959 . S
C3345 C3343 1.561 . S
C3346 C3343 1.526 . S
C3346 C3347 1.396 . S
C3346 C3351 1.390 . S
C3347 C3341 1.465 . S
C3347 C3346 1.396 . S
C3347 C3348 1.399 . S
C3348 H3334 0.929 . S
C3348 C3347 1.399 . S
C3348 C3349 1.385 . S
C3349 H3335 0.931 . S
C3349 C3348 1.385 . S
C3349 C3350 1.389 . S
C3350 C3349 1.389 . S
C3350 C3351 1.387 . S
C3351 H3336 0.930 . S
C3351 C3346 1.390 . S
C3351 C3350 1.387 . S
H3352 C3364 0.930 . S
H3353 C3366 0.930 . S
H3354 C3367 0.930 . S
H3355 C3371 0.959 . S
H3356 C3371 0.959 . S
H3357 C3371 0.961 . S
H3358 C3372 0.960 . S
H3359 C3372 0.961 . S
H3360 C3372 0.959 . S
H3361 C3375 0.929 . S
H3362 C3376 0.931 . S
H3363 C3378 0.930 . S
C3364 H3352 0.930 . S
C3364 C3365 1.399 . S
C3364 C3369 1.399 . S
C3365 C3364 1.399 . S
C3365 C3366 1.376 . S
C3366 H3353 0.930 . S
C3366 C3365 1.376 . S
C3366 C3367 1.388 . S
C3367 H3354 0.930 . S
C3367 C3366 1.388 . S
C3367 C3368 1.390 . S
C3368 C3367 1.390 . S
C3368 C3369 1.394 . S
C3368 C3374 1.465 . S
C3369 C3364 1.399 . S
C3369 C3368 1.394 . S
C3369 C3370 1.516 . S
C3370 C3369 1.516 . S
C3370 C3371 1.502 . S
C3370 C3372 1.561 . S
C3370 C3373 1.526 . S
C3371 H3355 0.959 . S
C3371 H3356 0.959 . S
C3371 H3357 0.961 . S
C3371 C3370 1.502 . S
C3372 H3358 0.960 . S
C3372 H3359 0.961 . S
C3372 H3360 0.959 . S
C3372 C3370 1.561 . S
C3373 C3370 1.526 . S
C3373 C3374 1.396 . S
C3373 C3378 1.390 . S
C3374 C3368 1.465 . S
C3374 C3373 1.396 . S
C3374 C3375 1.399 . S
C3375 H3361 0.929 . S
C3375 C3374 1.399 . S
C3375 C3376 1.385 . S
C3376 H3362 0.931 . S
C3376 C3375 1.385 . S
C3376 C3377 1.389 . S
C3377 C3376 1.389 . S
C3377 C3378 1.387 . S
C3378 H3363 0.930 . S
C3378 C3373 1.390 . S
C3378 C3377 1.387 . S
H3379 C3391 0.930 . S
H3380 C3393 0.930 . S
H3381 C3394 0.930 . S
H3382 C3398 0.959 . S
H3383 C3398 0.959 . S
H3384 C3398 0.961 . S
H3385 C3399 0.960 . S
H3386 C3399 0.961 . S
H3387 C3399 0.959 . S
H3388 C3402 0.929 . S
H3389 C3403 0.931 . S
H3390 C3405 0.930 . S
C3391 H3379 0.930 . S
C3391 C3392 1.399 . S
C3391 C3396 1.399 . S
C3392 C3391 1.399 . S
C3392 C3393 1.376 . S
C3393 H3380 0.930 . S
C3393 C3392 1.376 . S
C3393 C3394 1.388 . S
C3394 H3381 0.930 . S
C3394 C3393 1.388 . S
C3394 C3395 1.390 . S
C3395 C3394 1.390 . S
C3395 C3396 1.394 . S
C3395 C3401 1.465 . S
C3396 C3391 1.399 . S
C3396 C3395 1.394 . S
C3396 C3397 1.516 . S
C3397 C3396 1.516 . S
C3397 C3398 1.502 . S
C3397 C3399 1.561 . S
C3397 C3400 1.526 . S
C3398 H3382 0.959 . S
C3398 H3383 0.959 . S
C3398 H3384 0.961 . S
C3398 C3397 1.502 . S
C3399 H3385 0.960 . S
C3399 H3386 0.961 . S
C3399 H3387 0.959 . S
C3399 C3397 1.561 . S
C3400 C3397 1.526 . S
C3400 C3401 1.396 . S
C3400 C3405 1.390 . S
C3401 C3395 1.465 . S
C3401 C3400 1.396 . S
C3401 C3402 1.399 . S
C3402 H3388 0.929 . S
C3402 C3401 1.399 . S
C3402 C3403 1.385 . S
C3403 H3389 0.931 . S
C3403 C3402 1.385 . S
C3403 C3404 1.389 . S
C3404 C3403 1.389 . S
C3404 C3405 1.387 . S
C3405 H3390 0.930 . S
C3405 C3400 1.390 . S
C3405 C3404 1.387 . S
H3406 C3418 0.930 . S
H3407 C3420 0.930 . S
H3408 C3421 0.930 . S
H3409 C3425 0.959 . S
H3410 C3425 0.959 . S
H3411 C3425 0.961 . S
H3412 C3426 0.960 . S
H3413 C3426 0.961 . S
H3414 C3426 0.959 . S
H3415 C3429 0.929 . S
H3416 C3430 0.931 . S
H3417 C3432 0.930 . S
C3418 H3406 0.930 . S
C3418 C3419 1.399 . S
C3418 C3423 1.399 . S
C3419 C3418 1.399 . S
C3419 C3420 1.376 . S
C3420 H3407 0.930 . S
C3420 C3419 1.376 . S
C3420 C3421 1.388 . S
C3421 H3408 0.930 . S
C3421 C3420 1.388 . S
C3421 C3422 1.390 . S
C3422 C3421 1.390 . S
C3422 C3423 1.394 . S
C3422 C3428 1.465 . S
C3423 C3418 1.399 . S
C3423 C3422 1.394 . S
C3423 C3424 1.516 . S
C3424 C3423 1.516 . S
C3424 C3425 1.502 . S
C3424 C3426 1.561 . S
C3424 C3427 1.526 . S
C3425 H3409 0.959 . S
C3425 H3410 0.959 . S
C3425 H3411 0.961 . S
C3425 C3424 1.502 . S
C3426 H3412 0.960 . S
C3426 H3413 0.961 . S
C3426 H3414 0.959 . S
C3426 C3424 1.561 . S
C3427 C3424 1.526 . S
C3427 C3428 1.396 . S
C3427 C3432 1.390 . S
C3428 C3422 1.465 . S
C3428 C3427 1.396 . S
C3428 C3429 1.399 . S
C3429 H3415 0.929 . S
C3429 C3428 1.399 . S
C3429 C3430 1.385 . S
C3430 H3416 0.931 . S
C3430 C3429 1.385 . S
C3430 C3431 1.389 . S
C3431 C3430 1.389 . S
C3431 C3432 1.387 . S
C3432 H3417 0.930 . S
C3432 C3427 1.390 . S
C3432 C3431 1.387 . S
H3433 C3445 0.930 . S
H3434 C3447 0.930 . S
H3435 C3448 0.930 . S
H3436 C3452 0.959 . S
H3437 C3452 0.959 . S
H3438 C3452 0.961 . S
H3439 C3453 0.960 . S
H3440 C3453 0.961 . S
H3441 C3453 0.959 . S
H3442 C3456 0.929 . S
H3443 C3457 0.931 . S
H3444 C3459 0.930 . S
C3445 H3433 0.930 . S
C3445 C3446 1.399 . S
C3445 C3450 1.399 . S
C3446 C3445 1.399 . S
C3446 C3447 1.376 . S
C3447 H3434 0.930 . S
C3447 C3446 1.376 . S
C3447 C3448 1.388 . S
C3448 H3435 0.930 . S
C3448 C3447 1.388 . S
C3448 C3449 1.390 . S
C3449 C3448 1.390 . S
C3449 C3450 1.394 . S
C3449 C3455 1.465 . S
C3450 C3445 1.399 . S
C3450 C3449 1.394 . S
C3450 C3451 1.516 . S
C3451 C3450 1.516 . S
C3451 C3452 1.502 . S
C3451 C3453 1.561 . S
C3451 C3454 1.526 . S
C3452 H3436 0.959 . S
C3452 H3437 0.959 . S
C3452 H3438 0.961 . S
C3452 C3451 1.502 . S
C3453 H3439 0.960 . S
C3453 H3440 0.961 . S
C3453 H3441 0.959 . S
C3453 C3451 1.561 . S
C3454 C3451 1.526 . S
C3454 C3455 1.396 . S
C3454 C3459 1.390 . S
C3455 C3449 1.465 . S
C3455 C3454 1.396 . S
C3455 C3456 1.399 . S
C3456 H3442 0.929 . S
C3456 C3455 1.399 . S
C3456 C3457 1.385 . S
C3457 H3443 0.931 . S
C3457 C3456 1.385 . S
C3457 C3458 1.389 . S
C3458 C3457 1.389 . S
C3458 C3459 1.387 . S
C3459 H3444 0.930 . S
C3459 C3454 1.390 . S
C3459 C3458 1.387 . S
H3460 C3472 0.930 . S
H3461 C3474 0.930 . S
H3462 C3475 0.930 . S
H3463 C3479 0.959 . S
H3464 C3479 0.959 . S
H3465 C3479 0.961 . S
H3466 C3480 0.960 . S
H3467 C3480 0.961 . S
H3468 C3480 0.959 . S
H3469 C3483 0.929 . S
H3470 C3484 0.931 . S
H3471 C3486 0.930 . S
C3472 H3460 0.930 . S
C3472 C3473 1.399 . S
C3472 C3477 1.399 . S
C3473 C3472 1.399 . S
C3473 C3474 1.376 . S
C3474 H3461 0.930 . S
C3474 C3473 1.376 . S
C3474 C3475 1.388 . S
C3475 H3462 0.930 . S
C3475 C3474 1.388 . S
C3475 C3476 1.390 . S
C3476 C3475 1.390 . S
C3476 C3477 1.394 . S
C3476 C3482 1.465 . S
C3477 C3472 1.399 . S
C3477 C3476 1.394 . S
C3477 C3478 1.516 . S
C3478 C3477 1.516 . S
C3478 C3479 1.502 . S
C3478 C3480 1.561 . S
C3478 C3481 1.526 . S
C3479 H3463 0.959 . S
C3479 H3464 0.959 . S
C3479 H3465 0.961 . S
C3479 C3478 1.502 . S
C3480 H3466 0.960 . S
C3480 H3467 0.961 . S
C3480 H3468 0.959 . S
C3480 C3478 1.561 . S
C3481 C3478 1.526 . S
C3481 C3482 1.396 . S
C3481 C3486 1.390 . S
C3482 C3476 1.465 . S
C3482 C3481 1.396 . S
C3482 C3483 1.399 . S
C3483 H3469 0.929 . S
C3483 C3482 1.399 . S
C3483 C3484 1.385 . S
C3484 H3470 0.931 . S
C3484 C3483 1.385 . S
C3484 C3485 1.389 . S
C3485 C3484 1.389 . S
C3485 C3486 1.387 . S
C3486 H3471 0.930 . S
C3486 C3481 1.390 . S
C3486 C3485 1.387 . S
H3487 C3499 0.930 . S
H3488 C3501 0.930 . S
H3489 C3502 0.930 1_556 S
H3490 C3506 0.959 . S
H3491 C3506 0.959 . S
H3492 C3506 0.961 . S
H3493 C3507 0.960 . S
H3494 C3507 0.961 . S
H3495 C3507 0.959 . S
H3496 C3510 0.929 . S
H3497 C3511 0.931 . S
H3498 C3513 0.930 . S
C3499 H3487 0.930 . S
C3499 C3500 1.399 . S
C3499 C3504 1.399 . S
C3500 C3499 1.399 . S
C3500 C3501 1.376 . S
C3501 H3488 0.930 . S
C3501 C3500 1.376 . S
C3501 C3502 1.388 . S
C3502 H3489 0.930 1_554 S
C3502 C3501 1.388 . S
C3502 C3503 1.390 . S
C3503 C3502 1.390 . S
C3503 C3504 1.394 . S
C3503 C3509 1.465 . S
C3504 C3499 1.399 . S
C3504 C3503 1.394 . S
C3504 C3505 1.516 . S
C3505 C3504 1.516 . S
C3505 C3506 1.502 . S
C3505 C3507 1.561 . S
C3505 C3508 1.526 . S
C3506 H3490 0.959 . S
C3506 H3491 0.959 . S
C3506 H3492 0.961 . S
C3506 C3505 1.502 . S
C3507 H3493 0.960 . S
C3507 H3494 0.961 . S
C3507 H3495 0.959 . S
C3507 C3505 1.561 . S
C3508 C3505 1.526 . S
C3508 C3509 1.396 . S
C3508 C3513 1.390 . S
C3509 C3503 1.465 . S
C3509 C3508 1.396 . S
C3509 C3510 1.399 1_554 S
C3510 H3496 0.929 . S
C3510 C3509 1.399 1_556 S
C3510 C3511 1.385 . S
C3511 H3497 0.931 . S
C3511 C3510 1.385 . S
C3511 C3512 1.389 1_556 S
C3512 C3511 1.389 1_554 S
C3512 C3513 1.387 . S
C3513 H3498 0.930 . S
C3513 C3508 1.390 . S
C3513 C3512 1.387 . S
H3514 C3526 0.930 . S
H3515 C3528 0.930 . S
H3516 C3529 0.930 . S
H3517 C3533 0.959 . S
H3518 C3533 0.959 . S
H3519 C3533 0.961 . S
H3520 C3534 0.960 . S
H3521 C3534 0.961 . S
H3522 C3534 0.959 . S
H3523 C3537 0.929 . S
H3524 C3538 0.931 . S
H3525 C3540 0.930 . S
C3526 H3514 0.930 . S
C3526 C3527 1.399 . S
C3526 C3531 1.399 . S
C3527 C3526 1.399 . S
C3527 C3528 1.376 . S
C3528 H3515 0.930 . S
C3528 C3527 1.376 . S
C3528 C3529 1.388 . S
C3529 H3516 0.930 . S
C3529 C3528 1.388 . S
C3529 C3530 1.390 . S
C3530 C3529 1.390 . S
C3530 C3531 1.394 . S
C3530 C3536 1.465 . S
C3531 C3526 1.399 . S
C3531 C3530 1.394 . S
C3531 C3532 1.516 . S
C3532 C3531 1.516 . S
C3532 C3533 1.502 . S
C3532 C3534 1.561 . S
C3532 C3535 1.526 . S
C3533 H3517 0.959 . S
C3533 H3518 0.959 . S
C3533 H3519 0.961 . S
C3533 C3532 1.502 . S
C3534 H3520 0.960 . S
C3534 H3521 0.961 . S
C3534 H3522 0.959 . S
C3534 C3532 1.561 . S
C3535 C3532 1.526 . S
C3535 C3536 1.396 . S
C3535 C3540 1.390 . S
C3536 C3530 1.465 . S
C3536 C3535 1.396 . S
C3536 C3537 1.399 . S
C3537 H3523 0.929 . S
C3537 C3536 1.399 . S
C3537 C3538 1.385 . S
C3538 H3524 0.931 . S
C3538 C3537 1.385 . S
C3538 C3539 1.389 . S
C3539 C3538 1.389 . S
C3539 C3540 1.387 . S
C3540 H3525 0.930 . S
C3540 C3535 1.390 . S
C3540 C3539 1.387 . S
H3541 C3553 0.930 . S
H3542 C3555 0.930 . S
H3543 C3556 0.930 . S
H3544 C3560 0.959 . S
H3545 C3560 0.959 . S
H3546 C3560 0.961 . S
H3547 C3561 0.960 . S
H3548 C3561 0.961 . S
H3549 C3561 0.959 . S
H3550 C3564 0.929 . S
H3551 C3565 0.931 . S
H3552 C3567 0.930 . S
C3553 H3541 0.930 . S
C3553 C3554 1.399 . S
C3553 C3558 1.399 . S
C3554 C3553 1.399 . S
C3554 C3555 1.376 . S
C3555 H3542 0.930 . S
C3555 C3554 1.376 . S
C3555 C3556 1.388 . S
C3556 H3543 0.930 . S
C3556 C3555 1.388 . S
C3556 C3557 1.390 . S
C3557 C3556 1.390 . S
C3557 C3558 1.394 . S
C3557 C3563 1.465 . S
C3558 C3553 1.399 . S
C3558 C3557 1.394 . S
C3558 C3559 1.516 . S
C3559 C3558 1.516 . S
C3559 C3560 1.502 . S
C3559 C3561 1.561 . S
C3559 C3562 1.526 . S
C3560 H3544 0.959 . S
C3560 H3545 0.959 . S
C3560 H3546 0.961 . S
C3560 C3559 1.502 . S
C3561 H3547 0.960 . S
C3561 H3548 0.961 . S
C3561 H3549 0.959 . S
C3561 C3559 1.561 . S
C3562 C3559 1.526 . S
C3562 C3563 1.396 . S
C3562 C3567 1.390 . S
C3563 C3557 1.465 . S
C3563 C3562 1.396 . S
C3563 C3564 1.399 . S
C3564 H3550 0.929 . S
C3564 C3563 1.399 . S
C3564 C3565 1.385 . S
C3565 H3551 0.931 . S
C3565 C3564 1.385 . S
C3565 C3566 1.389 . S
C3566 C3565 1.389 . S
C3566 C3567 1.387 . S
C3567 H3552 0.930 . S
C3567 C3562 1.390 . S
C3567 C3566 1.387 . S
C989 C109 2.266 . S
C1001 C346 2.231 . S
C1016 C65 2.056 . S
C1028 C394 2.035 . S
C1043 C75 1.336 . S
C1055 C426 1.333 . S
C1082 C471 1.583 . S
C1070 C84 1.594 . S
C1097 C25 0.908 . S
C1109 C511 0.876 . S
C1136 C546 0.933 . S
C1124 C28 0.945 . S
C1163 C585 1.242 . S
C1151 C47 1.256 . S
C1178 C9 1.264 . S
C1190 C622 1.291 . S
C1217 C354 2.125 . S
C1205 C233 2.138 . S
C1232 C249 0.522 . S
C1244 C391 0.483 . S
C1271 C434 2.418 . S
C1259 C275 2.442 . S
C1298 C466 1.128 . S
C1286 C173 1.131 . S
C1313 C224 1.327 . S
C1325 C506 1.329 . S
C1352 C554 0.432 . S
C1340 C243 0.402 . S
C1379 C595 2.015 1_556 S
C1367 C266 2.041 . S
C1406 C625 1.932 . S
C1394 C179 1.932 . S
C1433 C351 1.444 . S
C1421 C163 1.357 1_554 S
C1448 C289 2.165 . S
C1460 C674 2.128 . S
C1487 C711 1.141 . S
C1475 C333 1.173 . S
C1514 C742 0.663 . S
C1502 C308 0.558 . S
C1529 C123 2.758 . S
C1541 C635 2.707 . S
C1556 C126 1.461 . S
C1568 C431 1.454 . S
C1583 C327 1.789 . S
C1595 C794 1.784 . S
C1622 C826 1.919 . S
C1610 C299 1.919 . S
C1649 C355 2.178 . S
C1637 C67 2.283 . S
C1676 C825 2.095 . S
C1664 C98 2.064 . S
C1691 C89 1.370 . S
C1703 C435 1.370 . S
C1718 C79 1.661 . S
C1730 C782 1.655 . S
C1757 C502 0.919 1_655 S
C1745 C11 0.935 1_655 S
C1772 C51 0.977 . S
C1784 C715 1.006 . S
C1811 C594 1.256 . S
C1799 C33 1.274 . S
C1838 C871 1.257 . S
C1826 C14 1.282 . S
C1865 C345 2.083 1_556 S
C1853 C140 2.127 . S
C1892 C822 0.626 . S
C1880 C319 0.222 . S
C1907 C112 2.426 . S
C1919 C425 2.420 . S
C1934 C285 1.153 . S
C1946 C795 1.161 . S
C1961 C149 1.376 . S
C1973 C515 1.346 . S
C2000 C705 0.394 . S
C1988 C313 0.386 . S
C2015 C121 2.156 . S
C2027 C586 2.045 . S
C2042 C291 1.968 . S
C2054 C874 1.949 . S
C2069 C182 1.402 . S
C2081 C342 1.302 . S
C2096 C168 2.156 . S
C2108 C665 2.151 . S
C2123 C263 1.212 . S
C2135 C542 1.195 . S
C2150 C247 0.575 . S
C2162 C751 0.629 . S
C2189 C866 2.742 . S
C2177 C277 2.767 . S
C2204 C219 1.501 . S
C2216 C422 1.481 . S
C2243 C465 1.826 . S
C2231 C257 1.789 . S
C2270 C395 1.896 . S
C2258 C201 1.896 . S
C2285 C81 2.288 . S
C2297 C906 2.177 . S
C2324 C834 2.048 . S
C2312 C93 2.046 . S
C2339 C103 1.320 . S
C2351 C946 1.288 . S
C2366 C56 1.613 1_655 S
C2378 C791 1.604 . S
C2393 C53 0.914 . S
C2405 C671 0.896 . S
C2432 C706 0.931 . S
C2420 C0 0.946 . S
C2459 C745 1.252 . S
C2447 C19 1.246 . S
C2486 C862 1.251 . S
C2474 C37 1.240 . S
C2513 C914 2.142 . S
C2501 C261 2.114 . S
C2528 C193 0.501 . S
C2540 C831 0.512 . S
C2567 C954 2.415 . S
C2555 C205 2.439 . S
C2594 C786 1.093 . S
C2582 C215 1.106 . S
C2621 C666 1.276 . S
C2609 C252 1.313 . S
C2636 C187 0.486 . S
C2648 C714 0.261 . S
C2675 C755 2.018 . S
C2663 C196 2.032 . S
C2690 C221 1.937 . S
C2702 C865 1.942 . S
C2729 C911 1.440 . S
C2717 C317 1.360 . S
C2744 C135 2.164 . S
C2756 C514 2.137 . S
C2783 C551 1.206 . S
C2771 C151 1.163 . S
C2810 C582 0.549 . S
C2798 C154 0.654 . S
C2837 C875 2.723 . S
C2825 C305 2.756 . S
C2852 C280 1.464 . S
C2864 C951 1.415 . S
C2891 C474 1.776 . S
C2879 C145 1.786 . S
C2918 C386 1.882 . S
C2906 C117 1.908 . S
C2933 C95 2.280 . S
C2945 C915 2.182 . S
C2972 C385 2.095 . S
C2960 C70 2.064 . S
C2987 C61 1.345 . S
C2999 C955 1.318 . S
C3014 C107 1.665 . S
C3026 C462 1.652 . S
C3041 C39 0.934 . S
C3053 C662 0.932 . S
C3080 C555 0.997 . S
C3068 C23 1.023 . S
C3095 C5 1.237 . S
C3107 C754 1.265 . S
C3122 C42 1.279 . S
C3134 C631 1.266 . S
C3161 C905 2.110 . S
C3149 C322 2.111 . S
C3176 C165 0.247 . S
C3188 C382 0.599 . S
C3215 C945 2.425 1_556 S
C3203 C294 2.434 . S
C3230 C131 1.155 . S
C3242 C475 1.162 . S
C3257 C331 1.348 . S
C3269 C675 1.350 . S
C3296 C545 0.488 . S
C3284 C159 0.500 . S
C3311 C303 2.149 . S
C3323 C746 2.095 1_655 S
C3350 C634 1.940 . S
C3338 C137 1.963 . S
C3377 C902 1.295 . S
C3365 C238 1.410 . S
C3404 C505 2.168 1_565 S
C3392 C210 2.185 . S
C3419 C235 1.174 . S
C3431 C702 1.224 . S
C3458 C591 0.555 . S
C3446 C191 0.622 . S
C3473 C207 2.767 . S
C3485 C626 2.743 . S
C3500 C177 1.495 . S
C3512 C942 1.496 . S
C3539 C785 1.837 . S
C3527 C229 1.796 . S
C3566 C835 1.896 . S
C3554 C271 1.925 . S
