# Generated by pormake.
# Topology soc, (4,6)-cn, num edge types: 1
# Building blocks:
#     Node 0, Type 0, BuildingBlock: ESEHIV_clean_sbu_0, # of connection points: 4
#     Node 1, Type 0, BuildingBlock: ESEHIV_clean_sbu_0, # of connection points: 4
#     Node 2, Type 0, BuildingBlock: ESEHIV_clean_sbu_0, # of connection points: 4
#     Node 3, Type 0, BuildingBlock: ESEHIV_clean_sbu_0, # of connection points: 4
#     Node 4, Type 0, BuildingBlock: ESEHIV_clean_sbu_0, # of connection points: 4
#     Node 5, Type 0, BuildingBlock: ESEHIV_clean_sbu_0, # of connection points: 4
#     Node 6, Type 0, BuildingBlock: ESEHIV_clean_sbu_0, # of connection points: 4
#     Node 7, Type 0, BuildingBlock: ESEHIV_clean_sbu_0, # of connection points: 4
#     Node 8, Type 0, BuildingBlock: ESEHIV_clean_sbu_0, # of connection points: 4
#     Node 9, Type 0, BuildingBlock: ESEHIV_clean_sbu_0, # of connection points: 4
#     Node 10, Type 0, BuildingBlock: ESEHIV_clean_sbu_0, # of connection points: 4
#     Node 11, Type 0, BuildingBlock: ESEHIV_clean_sbu_0, # of connection points: 4
#     Node 12, Type 1, BuildingBlock: KUMBUR_clean_sbu_0, # of connection points: 6
#     Node 13, Type 1, BuildingBlock: KUMBUR_clean_sbu_0, # of connection points: 6
#     Node 14, Type 1, BuildingBlock: KUMBUR_clean_sbu_0, # of connection points: 6
#     Node 15, Type 1, BuildingBlock: KUMBUR_clean_sbu_0, # of connection points: 6
#     Node 16, Type 1, BuildingBlock: KUMBUR_clean_sbu_0, # of connection points: 6
#     Node 17, Type 1, BuildingBlock: KUMBUR_clean_sbu_0, # of connection points: 6
#     Node 18, Type 1, BuildingBlock: KUMBUR_clean_sbu_0, # of connection points: 6
#     Node 19, Type 1, BuildingBlock: KUMBUR_clean_sbu_0, # of connection points: 6
#     Edge 20, Type (0, 1), BuildingBlock: CIFDUS_clean_linker_0, # of connection points: 2
#     Edge 21, Type (0, 1), BuildingBlock: CIFDUS_clean_linker_0, # of connection points: 2
#     Edge 22, Type (0, 1), BuildingBlock: CIFDUS_clean_linker_0, # of connection points: 2
#     Edge 23, Type (0, 1), BuildingBlock: CIFDUS_clean_linker_0, # of connection points: 2
#     Edge 24, Type (0, 1), BuildingBlock: CIFDUS_clean_linker_0, # of connection points: 2
#     Edge 25, Type (0, 1), BuildingBlock: CIFDUS_clean_linker_0, # of connection points: 2
#     Edge 26, Type (0, 1), BuildingBlock: CIFDUS_clean_linker_0, # of connection points: 2
#     Edge 27, Type (0, 1), BuildingBlock: CIFDUS_clean_linker_0, # of connection points: 2
#     Edge 28, Type (0, 1), BuildingBlock: CIFDUS_clean_linker_0, # of connection points: 2
#     Edge 29, Type (0, 1), BuildingBlock: CIFDUS_clean_linker_0, # of connection points: 2
#     Edge 30, Type (0, 1), BuildingBlock: CIFDUS_clean_linker_0, # of connection points: 2
#     Edge 31, Type (0, 1), BuildingBlock: CIFDUS_clean_linker_0, # of connection points: 2
#     Edge 32, Type (0, 1), BuildingBlock: CIFDUS_clean_linker_0, # of connection points: 2
#     Edge 33, Type (0, 1), BuildingBlock: CIFDUS_clean_linker_0, # of connection points: 2
#     Edge 34, Type (0, 1), BuildingBlock: CIFDUS_clean_linker_0, # of connection points: 2
#     Edge 35, Type (0, 1), BuildingBlock: CIFDUS_clean_linker_0, # of connection points: 2
#     Edge 36, Type (0, 1), BuildingBlock: CIFDUS_clean_linker_0, # of connection points: 2
#     Edge 37, Type (0, 1), BuildingBlock: CIFDUS_clean_linker_0, # of connection points: 2
#     Edge 38, Type (0, 1), BuildingBlock: CIFDUS_clean_linker_0, # of connection points: 2
#     Edge 39, Type (0, 1), BuildingBlock: CIFDUS_clean_linker_0, # of connection points: 2
#     Edge 40, Type (0, 1), BuildingBlock: CIFDUS_clean_linker_0, # of connection points: 2
#     Edge 41, Type (0, 1), BuildingBlock: CIFDUS_clean_linker_0, # of connection points: 2
#     Edge 42, Type (0, 1), BuildingBlock: CIFDUS_clean_linker_0, # of connection points: 2
#     Edge 43, Type (0, 1), BuildingBlock: CIFDUS_clean_linker_0, # of connection points: 2
#     Edge 44, Type (0, 1), BuildingBlock: CIFDUS_clean_linker_0, # of connection points: 2
#     Edge 45, Type (0, 1), BuildingBlock: CIFDUS_clean_linker_0, # of connection points: 2
#     Edge 46, Type (0, 1), BuildingBlock: CIFDUS_clean_linker_0, # of connection points: 2
#     Edge 47, Type (0, 1), BuildingBlock: CIFDUS_clean_linker_0, # of connection points: 2
#     Edge 48, Type (0, 1), BuildingBlock: CIFDUS_clean_linker_0, # of connection points: 2
#     Edge 49, Type (0, 1), BuildingBlock: CIFDUS_clean_linker_0, # of connection points: 2
#     Edge 50, Type (0, 1), BuildingBlock: CIFDUS_clean_linker_0, # of connection points: 2
#     Edge 51, Type (0, 1), BuildingBlock: CIFDUS_clean_linker_0, # of connection points: 2
#     Edge 52, Type (0, 1), BuildingBlock: CIFDUS_clean_linker_0, # of connection points: 2
#     Edge 53, Type (0, 1), BuildingBlock: CIFDUS_clean_linker_0, # of connection points: 2
#     Edge 54, Type (0, 1), BuildingBlock: CIFDUS_clean_linker_0, # of connection points: 2
#     Edge 55, Type (0, 1), BuildingBlock: CIFDUS_clean_linker_0, # of connection points: 2
#     Edge 56, Type (0, 1), BuildingBlock: CIFDUS_clean_linker_0, # of connection points: 2
#     Edge 57, Type (0, 1), BuildingBlock: CIFDUS_clean_linker_0, # of connection points: 2
#     Edge 58, Type (0, 1), BuildingBlock: CIFDUS_clean_linker_0, # of connection points: 2
#     Edge 59, Type (0, 1), BuildingBlock: CIFDUS_clean_linker_0, # of connection points: 2
#     Edge 60, Type (0, 1), BuildingBlock: CIFDUS_clean_linker_0, # of connection points: 2
#     Edge 61, Type (0, 1), BuildingBlock: CIFDUS_clean_linker_0, # of connection points: 2
#     Edge 62, Type (0, 1), BuildingBlock: CIFDUS_clean_linker_0, # of connection points: 2
#     Edge 63, Type (0, 1), BuildingBlock: CIFDUS_clean_linker_0, # of connection points: 2
#     Edge 64, Type (0, 1), BuildingBlock: CIFDUS_clean_linker_0, # of connection points: 2
#     Edge 65, Type (0, 1), BuildingBlock: CIFDUS_clean_linker_0, # of connection points: 2
#     Edge 66, Type (0, 1), BuildingBlock: CIFDUS_clean_linker_0, # of connection points: 2
#     Edge 67, Type (0, 1), BuildingBlock: CIFDUS_clean_linker_0, # of connection points: 2
# Relax obj value: 0.079
# Max RMSD: 0.224
# Mean RMSD: 0.148
data_MOF--net-soc--node1-ESEHIV_clean_sbu_0--node2-KUMBUR_clean_sbu_0--edge1-CIFDUS_clean_linker_0
_symmetry_space_group_name_H-M    P1
_symmetry_Int_Tables_number       1
_symmetry_cell_setting            triclinic
loop_
_symmetry_equiv_pos_as_xyz
'x, y, z'
_cell_length_a     46.094547
_cell_length_b     44.440227
_cell_length_c     36.57295
_cell_angle_alpha  83.033711
_cell_angle_beta   81.65326
_cell_angle_gamma 71.371789
loop_
_atom_site_label
_atom_site_type_symbol
_atom_site_fract_x
_atom_site_fract_y
_atom_site_fract_z
_atom_type_partial_charge
Cu0 Cu 0.0583 0.04831 0.37209 0.0
N1 N 0.06943 0.07339 0.40151 0.0
N2 N 0.09202 0.10681 0.41744 0.0
C3 C 0.09275 0.08606 0.39293 0.0
C4 C 0.06731 0.10702 0.44242 0.0
C5 C 0.05336 0.08656 0.4324 0.0
O6 O 0.09783 0.02132 0.34722 0.0
C7 C 0.99838 0.08941 0.35864 0.0
O8 O 0.99091 0.07568 0.39085 0.0
H9 H 0.1089 0.08141 0.36812 0.0
H10 H 0.03228 0.08253 0.44586 0.0
N11 N 0.04001 0.02083 0.40243 0.0
N12 N 1.00997 0.99009 0.42118 0.0
C13 C 1.02125 1.00631 0.39217 0.0
C14 C 0.04083 0.01314 0.43912 0.0
C15 C 1.02192 0.99446 0.45089 0.0
C16 C 0.10345 0.99172 0.34285 0.0
O17 O 0.08041 0.9798 0.34758 0.0
H18 H 1.0148 0.00891 0.36437 0.0
H19 H 0.05356 0.0213 0.4563 0.0
O20 O 0.02646 0.08002 0.3436 0.0
H21 H 0.05948 0.12137 0.46591 0.0
H22 H 1.01675 0.98538 0.47908 0.0
Cu23 Cu 0.06005 0.05 0.74927 0.0
N24 N 0.04808 0.03098 0.71359 0.0
N25 N 0.02598 1.00053 0.69017 0.0
C26 C 0.02717 0.01501 0.72012 0.0
C27 C 0.04694 1.00787 0.66378 0.0
C28 C 0.0606 0.02648 0.67833 0.0
O29 O 1.02169 0.07898 0.77331 0.0
C30 C 0.1122 0.99992 0.76262 0.0
O31 O 0.11998 0.01039 0.72868 0.0
H32 H 1.01423 0.01278 0.74693 0.0
H33 H 0.07922 0.03499 0.66459 0.0
N34 N 0.08572 0.07419 0.72776 0.0
N35 N 0.12195 0.0984 0.72307 0.0
C36 C 0.10719 0.07988 0.7449 0.0
C37 C 0.08677 0.0898 0.69393 0.0
C38 C 0.10924 0.10465 0.69088 0.0
C39 C 1.01876 0.10775 0.77891 0.0
O40 O 0.04343 0.11705 0.77473 0.0
H41 H 0.11163 0.07083 0.77306 0.0
H42 H 0.0718 0.09093 0.67327 0.0
O43 O 0.08565 0.01402 0.77911 0.0
H44 H 0.0525 0.99991 0.63608 0.0
H45 H 0.11491 0.1199 0.66741 0.0
Cu46 Cu 0.31408 0.06177 0.11622 0.0
N47 N 0.28105 0.05153 0.1024 0.0
N48 N 0.25809 0.0194 0.08428 0.0
C49 C 0.27993 0.02151 0.10371 0.0
C50 C 0.24478 0.04929 0.06998 0.0
C51 C 0.25892 0.06914 0.08138 0.0
O52 O 0.33876 0.02091 0.14004 0.0
C53 C 0.31762 0.10979 0.06029 0.0
O54 O 0.2938 0.12503 0.08246 0.0
H55 H 0.29672 1.00102 0.11561 0.0
H56 H 0.25483 0.09413 0.07267 0.0
N57 N 0.30049 0.09251 0.15139 0.0
N58 N 0.30012 0.12905 0.1887 0.0
C59 C 0.31776 0.10465 0.16871 0.0
C60 C 0.27105 0.10956 0.16129 0.0
C61 C 0.27078 0.13224 0.18403 0.0
C62 C 0.32597 0.01186 0.17108 0.0
O63 O 0.30054 0.03193 0.18585 0.0
H64 H 0.3427 0.09672 0.16545 0.0
H65 H 0.25123 0.10648 0.15146 0.0
O66 O 0.33202 0.08069 0.0698 0.0
H67 H 0.22729 0.05596 0.05114 0.0
H68 H 0.25062 0.15004 0.19584 0.0
Cu69 Cu 0.07378 0.31478 0.1109 0.0
N70 N 0.08692 0.33917 0.06891 0.0
N71 N 0.115 0.35018 1.01576 0.0
C72 C 0.11431 0.3304 0.04707 0.0
C73 C 0.0871 0.37276 0.01889 0.0
C74 C 0.06999 0.36589 0.05128 0.0
O75 O 0.10758 0.30157 0.14395 0.0
C76 C 0.06848 0.27439 0.05726 0.0
O77 O 0.09488 0.27643 0.04002 0.0
H78 H 0.13261 0.30871 0.05299 0.0
H79 H 0.04637 0.37877 0.06053 0.0
N80 N 0.03659 0.33595 0.14044 0.0
N81 N 0.98962 0.34079 0.17252 0.0
C82 C 1.00839 0.33206 0.14081 0.0
C83 C 0.03516 0.34778 0.17313 0.0
C84 C 1.00651 0.3507 0.19279 0.0
C85 C 0.11908 0.32316 0.14983 0.0
O86 O 0.1083 0.35176 0.13328 0.0
H87 H 1.00263 0.3205 0.11977 0.0
H88 H 0.05448 0.35144 0.18349 0.0
O89 O 0.06055 0.28279 0.09036 0.0
H90 H 0.07902 0.39261 0.99878 0.0
H91 H 0.99917 0.3581 0.22067 0.0
Cu92 Cu 0.79475 0.0334 0.99798 0.0
N93 N 0.81736 0.05282 0.96113 0.0
N94 N 0.8296 0.09324 0.9264 0.0
C95 C 0.80848 0.08437 0.95119 0.0
C96 C 0.85253 0.06578 0.92012 0.0
C97 C 0.8449 0.04096 0.94146 0.0
O98 O 0.77454 0.06725 0.03171 0.0
C99 C 0.78794 0.98873 0.9572 0.0
O100 O 0.81755 0.97906 0.96056 0.0
H101 H 0.78693 0.10045 0.96254 0.0
H102 H 0.85873 0.0162 0.94292 0.0
N103 N 0.81905 1.00053 0.02818 0.0
N104 N 0.83055 0.9652 0.07718 0.0
C105 C 0.80788 0.98638 0.05931 0.0
C106 C 0.84987 0.98784 0.02615 0.0
C107 C 0.85701 0.96602 0.05622 0.0
C108 C 0.79502 0.07644 0.04331 0.0
O109 O 0.82419 0.06199 0.03285 0.0
H110 H 0.7836 0.99247 0.06933 0.0
H111 H 0.86608 0.99447 1.00488 0.0
O112 O 0.77108 0.01409 0.97216 0.0
H113 H 0.8738 0.06364 0.90217 0.0
H114 H 0.87999 0.95204 0.06227 0.0
Cu115 Cu 0.03467 0.80574 0.02329 0.0
N116 N 1.00595 0.82353 0.98838 0.0
N117 N 0.97288 0.82925 0.94657 0.0
C118 C 0.9908 0.80885 0.97098 0.0
C119 C 0.97683 0.85774 0.94906 0.0
C120 C 0.99701 0.85417 0.97477 0.0
O121 O 1.01371 0.78384 0.06675 0.0
C122 C 0.08699 0.80625 0.97053 0.0
O123 O 0.06901 0.83587 0.9678 0.0
H124 H 0.99336 0.78365 0.97554 0.0
H125 H 1.00487 0.87264 0.98278 0.0
N126 N 0.04196 0.83755 0.04629 0.0
N127 N 0.06891 0.85653 0.07867 0.0
C128 C 0.06988 0.83464 0.0557 0.0
C129 C 1.02235 0.8623 0.06403 0.0
C130 C 0.03898 0.87401 0.08427 0.0
C131 C 0.98534 0.79833 0.07869 0.0
O132 O 0.97104 0.82454 0.0596 0.0
H133 H 0.09022 0.81502 0.04839 0.0
H134 H 0.99758 0.86998 0.06422 0.0
O135 O 0.07685 0.78636 0.99362 0.0
H136 H 0.96575 0.87975 0.93349 0.0
H137 H 0.02966 0.89282 0.1029 0.0
Cu138 Cu 0.55978 0.54913 0.8675 0.0
N139 N 0.57049 0.56931 0.90284 0.0
N140 N 0.58969 0.601 0.92809 0.0
C141 C 0.58787 0.58904 0.8966 0.0
C142 C 0.57295 0.58823 0.95514 0.0
C143 C 0.56126 0.56853 0.93949 0.0
O144 O 0.59891 0.52579 0.83937 0.0
C145 C 0.50321 0.59608 0.86371 0.0
O146 O 0.50348 0.58797 0.89944 0.0
H147 H 0.5982 0.5952 0.86938 0.0
H148 H 0.54655 0.55505 0.95369 0.0
N149 N 0.54289 0.51854 0.89248 0.0
N150 N 0.51127 0.48914 0.90795 0.0
C151 C 0.51577 0.5151 0.88796 0.0
C152 C 0.55608 0.49389 0.91611 0.0
C153 C 0.53657 0.47555 0.92565 0.0
C154 C 0.60373 0.49752 0.83038 0.0
O155 O 0.58007 0.48683 0.83191 0.0
H156 H 0.50008 0.53073 0.86945 0.0
H157 H 0.57858 0.48927 0.92503 0.0
O158 O 0.52674 0.58171 0.84198 0.0
H159 H 0.56942 0.59283 0.98411 0.0
H160 H 0.54059 0.45402 0.94411 0.0
Cu161 Cu 0.56742 0.55471 0.25895 0.0
N162 N 0.55492 0.53178 0.22785 0.0
N163 N 0.53317 0.49884 0.20875 0.0
C164 C 0.5336 0.5163 0.23643 0.0
C165 C 0.55492 0.50377 0.18183 0.0
C166 C 0.56834 0.52384 0.19373 0.0
O167 O 0.52971 0.58398 0.28349 0.0
C168 C 0.62274 0.50841 0.27496 0.0
O169 O 0.63131 0.51851 0.24116 0.0
H170 H 0.5198 0.51662 0.26306 0.0
H171 H 0.58738 0.53117 0.17904 0.0
N172 N 0.58928 0.58009 0.2303 0.0
N173 N 0.62073 0.60998 0.21413 0.0
C174 C 0.61121 0.59023 0.24078 0.0
C175 C 0.5846 0.59406 0.19601 0.0
C176 C 0.60405 0.61234 0.18588 0.0
C177 C 0.52746 0.61211 0.29097 0.0
O178 O 0.55255 0.62053 0.28843 0.0
H179 H 0.61955 0.58368 0.26771 0.0
H180 H 0.56752 0.5919 0.17996 0.0
O181 O 0.5954 0.52181 0.28989 0.0
H182 H 0.56113 0.49319 0.15554 0.0
H183 H 0.60479 0.62736 0.16038 0.0
Cu184 Cu 0.81583 0.58269 0.6165 0.0
N185 N 0.83993 0.59221 0.57362 0.0
N186 N 0.85086 0.61967 0.5208 0.0
C187 C 0.8342 0.62097 0.55451 0.0
C188 C 0.86804 0.58884 0.51885 0.0
C189 C 0.86123 0.57196 0.55147 0.0
O190 O 0.80266 0.6199 0.6465 0.0
C191 C 0.78123 0.56606 0.56746 0.0
O192 O 0.7915 0.5844 0.54141 0.0
H193 H 0.81633 0.64192 0.56403 0.0
H194 H 0.86972 0.54644 0.55759 0.0
N195 N 0.83748 0.54599 0.64396 0.0
N196 N 0.84466 0.49796 0.6751 0.0
C197 C 0.82394 0.52565 0.66427 0.0
C198 C 0.86795 0.53073 0.64207 0.0
C199 C 0.87245 0.50108 0.66125 0.0
C200 C 0.82355 0.62606 0.66104 0.0
O201 O 0.85187 0.60674 0.65633 0.0
H202 H 0.79923 0.53023 0.66875 0.0
H203 H 0.88553 0.53977 0.62621 0.0
O204 O 0.78349 0.5686 0.60128 0.0
H205 H 0.88361 0.57898 0.49511 0.0
H206 H 0.89438 0.48289 0.66379 0.0
Cu207 Cu 0.58211 0.7946 0.60251 0.0
N208 N 0.60126 0.81208 0.55737 0.0
N209 N 0.63664 0.81597 0.50765 0.0
C210 C 0.62901 0.79766 0.53808 0.0
C211 C 0.6125 0.84306 0.50818 0.0
C212 C 0.59113 0.84067 0.53843 0.0
O213 O 0.60822 0.79258 0.64178 0.0
C214 C 0.56946 0.73871 0.57892 0.0
O215 O 0.57772 0.70751 0.57937 0.0
H216 H 0.64329 0.77397 0.54628 0.0
H217 H 0.56967 0.85874 0.54606 0.0
N218 N 0.53906 0.81392 0.62142 0.0
N219 N 0.49119 0.81955 0.65339 0.0
C220 C 0.52039 0.7996 0.64469 0.0
C221 C 0.5209 0.84404 0.61525 0.0
C222 C 0.4919 0.84751 0.63448 0.0
C223 C 0.61913 0.81515 0.64477 0.0
O224 O 0.61151 0.84099 0.62208 0.0
H225 H 0.52833 0.77488 0.65513 0.0
H226 H 0.52815 0.86241 0.59788 0.0
O227 O 0.58596 0.75083 0.59424 0.0
H228 H 0.61045 0.86366 0.48849 0.0
H229 H 0.47279 0.86929 0.63409 0.0
Cu230 Cu 0.28478 0.52552 0.52022 0.0
N231 N 0.30574 0.55219 0.49135 0.0
N232 N 0.31246 0.59759 0.46204 0.0
C233 C 0.29249 0.58359 0.48228 0.0
C234 C 0.33943 0.57375 0.45822 0.0
C235 C 0.33524 0.54593 0.47626 0.0
O236 O 0.25329 0.55495 0.55182 0.0
C237 C 0.29342 0.4781 0.47492 0.0
O238 O 0.32149 0.47436 0.48225 0.0
H239 H 0.26846 0.59585 0.4904 0.0
H240 H 0.35256 0.52288 0.47848 0.0
N241 N 0.30766 0.49419 0.55387 0.0
N242 N 0.31512 0.45702 0.60189 0.0
C243 C 0.29533 0.47483 0.57797 0.0
C244 C 0.33651 0.48814 0.56253 0.0
C245 C 0.3411 0.46535 0.59229 0.0
C246 C 0.26623 0.56445 0.57476 0.0
O247 O 0.29637 0.55371 0.57345 0.0
H248 H 0.27175 0.47483 0.5789 0.0
H249 H 0.35265 0.50024 0.5491 0.0
O250 O 0.27148 0.50154 0.48768 0.0
H251 H 0.36095 0.57622 0.44406 0.0
H252 H 0.36183 0.45585 0.60598 0.0
Cu253 Cu 0.52356 0.29433 0.52718 0.0
N254 N 0.5615 0.2727 0.49898 0.0
N255 N 0.60897 0.26628 0.46744 0.0
C256 C 0.58184 0.28724 0.48042 0.0
C257 C 0.60536 0.23735 0.47802 0.0
C258 C 0.57628 0.24134 0.4972 0.0
O259 O 0.53671 0.32379 0.55243 0.0
C260 C 0.47909 0.291 0.48354 0.0
O261 O 0.48945 0.26128 0.49715 0.0
H262 H 0.57737 0.31279 0.47815 0.0
H263 H 0.56707 0.22258 0.50993 0.0
N264 N 0.50691 0.27084 0.56766 0.0
N265 N 0.47589 0.26218 0.6193 0.0
C266 C 0.4808 0.28319 0.59062 0.0
C267 C 0.51886 0.24085 0.58238 0.0
C268 C 0.49995 0.23549 0.6139 0.0
C269 C 0.55923 0.30851 0.57106 0.0
O270 O 0.56914 0.2773 0.57188 0.0
H271 H 0.4663 0.30763 0.58703 0.0
H272 H 0.54031 0.22423 0.57168 0.0
O273 O 0.49097 0.31117 0.49267 0.0
H274 H 0.62265 0.21478 0.47263 0.0
H275 H 0.50386 0.21355 0.63159 0.0
Tb276 Tb 0.27436 0.29971 0.35586 0.0
C277 C 0.32554 0.31531 0.19529 0.0
C278 C 0.36431 0.26396 0.18986 0.0
C279 C 0.33891 0.29173 0.13613 0.0
C280 C 0.34641 0.28928 0.21119 0.0
C281 C 0.32221 0.31743 0.15727 0.0
C282 C 0.3599 0.26497 0.15245 0.0
C283 C 0.2891 0.3715 0.16308 0.0
N284 N 0.31019 0.33965 0.2166 0.0
C285 C 0.29343 0.36826 0.20061 0.0
C286 C 0.30314 0.34577 0.14142 0.0
Tb287 Tb 0.31758 0.33172 0.27824 0.0
N288 N 0.35005 0.28941 0.24728 0.0
C289 C 0.37296 0.26577 0.26306 0.0
C290 C 0.38656 0.23884 0.20653 0.0
C291 C 0.39118 0.23999 0.24316 0.0
H292 H 0.28236 0.38818 0.21733 0.0
H293 H 0.40871 0.22095 0.25615 0.0
H294 H 0.3732 0.24562 0.13567 0.0
H295 H 0.27497 0.39382 0.15089 0.0
H296 H 0.37669 0.26598 0.29144 0.0
H297 H 0.17904 0.407 0.37925 0.0
H298 H 0.40073 0.21888 0.19117 0.0
H299 H 0.31064 0.24455 0.41807 0.0
H300 H 0.21178 0.36206 0.34419 0.0
H301 H 0.32036 0.24154 0.4834 0.0
H302 H 0.33644 0.2927 0.10696 0.0
H303 H 0.18986 0.41233 0.44206 0.0
H304 H 0.22117 0.38932 0.49547 0.0
H305 H 0.29994 0.34838 0.1123 0.0
H306 H 0.26043 0.34435 0.52371 0.0
N307 N 0.24128 0.34176 0.38653 0.0
C308 C 0.21667 0.36366 0.3717 0.0
C309 C 0.20426 0.39235 0.42687 0.0
C310 C 0.2284 0.36895 0.44269 0.0
C311 C 0.19802 0.38935 0.39149 0.0
C312 C 0.24646 0.34348 0.42168 0.0
H313 H 0.29714 0.28869 0.51968 0.0
N314 N 0.28359 0.29345 0.41692 0.0
C315 C 0.306 0.26347 0.47069 0.0
C316 C 0.26874 0.31857 0.43732 0.0
C317 C 0.30034 0.2652 0.43381 0.0
C318 C 0.29298 0.29018 0.49101 0.0
C319 C 0.27331 0.31789 0.47473 0.0
O320 O 0.26764 0.25526 0.37392 0.0
O321 O 0.3 0.29314 0.30203 0.0
O322 O 0.27416 0.33446 0.25771 0.0
O323 O 0.24481 0.31821 0.30982 0.0
O324 O 0.30615 0.25397 0.33819 0.0
O325 O 0.2296 0.29606 0.35991 0.0
O326 O 0.32475 0.37641 0.26356 0.0
O327 O 0.29119 0.33874 0.33177 0.0
O328 O 0.3175 0.29808 0.3761 0.0
O329 O 0.34753 0.31222 0.32363 0.0
O330 O 0.284 0.37702 0.29359 0.0
O331 O 0.36241 0.33483 0.27616 0.0
C332 C 0.31275 0.26337 0.30418 0.0
C333 C 0.2184 0.25787 0.40564 0.0
C334 C 0.18026 0.23154 0.43315 0.0
C335 C 0.20004 0.23855 0.40242 0.0
C336 C 0.17974 0.24346 0.46724 0.0
C337 C 0.21703 0.26979 0.43983 0.0
C338 C 0.19804 0.26241 0.47047 0.0
C339 C 0.24847 0.32903 0.27436 0.0
C340 C 0.23794 0.26632 0.37294 0.0
C341 C 0.25687 0.34415 0.49511 0.0
C342 C 0.23444 0.36969 0.47908 0.0
C343 C 0.27686 0.36814 0.3276 0.0
C344 C 0.37447 0.37535 0.23473 0.0
C345 C 0.39223 0.39432 0.24139 0.0
C346 C 0.41211 0.4038 0.21242 0.0
C347 C 0.41338 0.39438 0.17666 0.0
C348 C 0.37665 0.36593 0.19898 0.0
C349 C 0.39584 0.37558 0.17011 0.0
C350 C 0.34352 0.30238 0.35929 0.0
C351 C 0.3543 0.3651 0.26544 0.0
H352 H 0.20054 0.22975 0.37588 0.0
H353 H 0.16514 0.2381 0.49148 0.0
H354 H 0.23033 0.28503 0.44293 0.0
H355 H 0.1973 0.27164 0.49677 0.0
H356 H 0.39097 0.40114 0.26918 0.0
H357 H 0.42782 0.40175 0.15356 0.0
H358 H 0.36367 0.35107 0.19329 0.0
H359 H 0.39718 0.36838 0.14252 0.0
Tb360 Tb 0.81908 0.30996 0.36179 0.0
C361 C 0.71714 0.30218 0.28201 0.0
C362 C 0.69585 0.26338 0.31863 0.0
C363 C 0.66283 0.30779 0.28328 0.0
C364 C 0.7209 0.27518 0.30639 0.0
C365 C 0.68819 0.3186 0.26982 0.0
C366 C 0.66666 0.28019 0.30755 0.0
C367 C 0.71202 0.35383 0.2301 0.0
N368 N 0.74214 0.31207 0.2698 0.0
C369 C 0.74035 0.33662 0.24278 0.0
C370 C 0.68575 0.34503 0.244 0.0
Tb371 Tb 0.78698 0.2823 0.29316 0.0
N372 N 0.74933 0.25985 0.31705 0.0
C373 C 0.75484 0.23099 0.33726 0.0
C374 C 0.70103 0.23471 0.34098 0.0
C375 C 0.73076 0.21819 0.3498 0.0
H376 H 0.76062 0.34356 0.23215 0.0
H377 H 0.73512 0.19574 0.36656 0.0
H378 H 0.64705 0.27174 0.31708 0.0
H379 H 0.71046 0.37386 0.20963 0.0
H380 H 0.77771 0.21815 0.34454 0.0
H381 H 0.87335 0.39407 0.28667 0.0
H382 H 0.68239 0.22487 0.35101 0.0
H383 H 0.84348 0.25038 0.42609 0.0
H384 H 0.8314 0.37063 0.30534 0.0
H385 H 0.89062 0.22454 0.45619 0.0
H386 H 0.6403 0.32022 0.27449 0.0
H387 H 0.92311 0.37035 0.31258 0.0
H388 H 0.95538 0.32848 0.35528 0.0
H389 H 0.66386 0.35837 0.23406 0.0
H390 H 0.96018 0.28224 0.4011 0.0
N391 N 0.85696 0.33321 0.34135 0.0
C392 C 0.85282 0.35987 0.31712 0.0
C393 C 0.90468 0.35992 0.32105 0.0
C394 C 0.90851 0.33329 0.34667 0.0
C395 C 0.87664 0.37336 0.30637 0.0
C396 C 0.88383 0.32051 0.35657 0.0
H397 H 0.93618 0.24333 0.43884 0.0
N398 N 0.86211 0.28332 0.39096 0.0
C399 C 0.88983 0.24416 0.4353 0.0
C400 C 0.88656 0.29458 0.38215 0.0
C401 C 0.86305 0.25899 0.41815 0.0
C402 C 0.9155 0.25482 0.42543 0.0
C403 C 0.914 0.28052 0.39882 0.0
O404 O 0.79995 0.31932 0.41658 0.0
O405 O 0.78183 0.29372 0.34984 0.0
O406 O 0.75461 0.32729 0.3121 0.0
O407 O 0.78982 0.34938 0.32747 0.0
O408 O 0.79625 0.28022 0.40064 0.0
O409 O 0.80686 0.35715 0.37734 0.0
O410 O 0.7914 0.2766 0.23617 0.0
O411 O 0.82403 0.29807 0.30508 0.0
O412 O 0.85228 0.26413 0.34709 0.0
O413 O 0.82131 0.24154 0.32112 0.0
O414 O 0.81415 0.30733 0.25242 0.0
O415 O 0.79712 0.23601 0.27675 0.0
C416 C 0.77657 0.27838 0.38019 0.0
C417 C 0.81147 0.36098 0.44038 0.0
C418 C 0.80921 0.40361 0.47861 0.0
C419 C 0.79866 0.39285 0.44973 0.0
C420 C 0.83305 0.38217 0.49739 0.0
C421 C 0.83531 0.34026 0.45965 0.0
C422 C 0.84602 0.35085 0.48783 0.0
C423 C 0.76226 0.35233 0.31817 0.0
C424 C 0.79898 0.34913 0.41185 0.0
C425 C 0.93885 0.29278 0.38872 0.0
C426 C 0.93611 0.31912 0.36267 0.0
C427 C 0.83281 0.30999 0.27388 0.0
C428 C 0.81959 0.22594 0.2154 0.0
C429 C 0.80976 0.21129 0.18954 0.0
C430 C 0.83127 0.19258 0.16339 0.0
C431 C 0.86281 0.1884 0.16404 0.0
C432 C 0.85104 0.2215 0.21559 0.0
C433 C 0.87255 0.20268 0.19 0.0
C434 C 0.84721 0.23943 0.3351 0.0
C435 C 0.79647 0.24584 0.24169 0.0
H436 H 0.78019 0.409 0.4351 0.0
H437 H 0.84205 0.3898 0.51918 0.0
H438 H 0.84547 0.31572 0.45336 0.0
H439 H 0.86442 0.33464 0.50245 0.0
H440 H 0.78536 0.21501 0.18932 0.0
H441 H 0.88003 0.17386 0.14459 0.0
H442 H 0.85887 0.23258 0.23542 0.0
H443 H 0.89687 0.1992 0.19019 0.0
Tb444 Tb 0.8021 0.77907 0.2682 0.0
C445 C 0.81436 0.81262 0.41229 0.0
C446 C 0.76365 0.85029 0.42568 0.0
C447 C 0.79067 0.81788 0.47609 0.0
C448 C 0.78841 0.8351 0.40001 0.0
C449 C 0.81628 0.8048 0.45061 0.0
C450 C 0.76437 0.8406 0.46363 0.0
C451 C 0.87011 0.77588 0.43608 0.0
N452 N 0.83893 0.80117 0.38691 0.0
C453 C 0.86719 0.78462 0.39843 0.0
C454 C 0.84441 0.78555 0.46226 0.0
Tb455 Tb 0.83167 0.81846 0.32613 0.0
N456 N 0.78893 0.84457 0.36324 0.0
C457 C 0.76613 0.87023 0.35053 0.0
C458 C 0.73964 0.87579 0.41261 0.0
C459 C 0.7412 0.88619 0.37498 0.0
H460 H 0.88716 0.77713 0.37824 0.0
H461 H 0.72304 0.90627 0.36471 0.0
H462 H 0.7453 0.85154 0.48369 0.0
H463 H 0.89221 0.76184 0.4449 0.0
H464 H 0.76701 0.87836 0.3215 0.0
H465 H 0.91203 0.68104 0.26 0.0
H466 H 0.72025 0.88813 0.43145 0.0
H467 H 0.76766 0.8282 0.19858 0.0
H468 H 0.87051 0.72007 0.29091 0.0
H469 H 0.77519 0.83511 0.13154 0.0
H470 H 0.79151 0.8117 0.50558 0.0
H471 H 0.91817 0.68097 0.19209 0.0
H472 H 0.90091 0.70699 0.13185 0.0
H473 H 0.84683 0.77903 0.49144 0.0
H474 H 0.86501 0.74985 0.09694 0.0
N475 N 0.84717 0.74153 0.2427 0.0
C476 C 0.86972 0.72 0.26194 0.0
C477 C 0.89833 0.69792 0.20584 0.0
C478 C 0.87713 0.72099 0.18567 0.0
C479 C 0.89483 0.69779 0.24409 0.0
C480 C 0.85158 0.74273 0.20492 0.0
H481 H 0.81897 0.79789 0.09652 0.0
N482 N 0.80846 0.78867 0.20423 0.0
C483 C 0.79158 0.81606 0.14616 0.0
C484 C 0.83175 0.76714 0.18518 0.0
C485 C 0.7878 0.81223 0.1848 0.0
C486 C 0.81612 0.79495 0.12655 0.0
C487 C 0.8364 0.76997 0.14589 0.0
O488 O 0.75562 0.79256 0.25906 0.0
O489 O 0.78972 0.80906 0.3154 0.0
O490 O 0.83791 0.76972 0.35139 0.0
O491 O 0.82047 0.74233 0.31246 0.0
O492 O 0.77521 0.7693 0.32011 0.0
O493 O 0.78486 0.7443 0.25256 0.0
O494 O 0.87219 0.82867 0.33315 0.0
O495 O 0.83761 0.79997 0.27253 0.0
O496 O 0.7864 0.83099 0.25197 0.0
O497 O 0.8164 0.85278 0.27975 0.0
O498 O 0.87665 0.79252 0.29576 0.0
O499 O 0.82982 0.86624 0.32755 0.0
C500 C 0.77378 0.79354 0.33705 0.0
C501 C 0.74007 0.76255 0.22001 0.0
C502 C 0.71577 0.73214 0.18968 0.0
C503 C 0.73451 0.73375 0.21617 0.0
C504 C 0.70373 0.75933 0.166 0.0
C505 C 0.72576 0.78989 0.19772 0.0
C506 C 0.70863 0.788 0.17016 0.0
C507 C 0.83259 0.74396 0.34286 0.0
C508 C 0.7573 0.76439 0.25048 0.0
C509 C 0.86118 0.74796 0.12696 0.0
C510 C 0.8815 0.72352 0.14682 0.0
C511 C 0.86666 0.78909 0.26583 0.0
C512 C 0.86281 0.87336 0.36739 0.0
C513 C 0.88875 0.88375 0.36663 0.0
C514 C 0.89371 0.89641 0.39807 0.0
C515 C 0.8732 0.89653 0.4307 0.0
C516 C 0.84138 0.87699 0.39918 0.0
C517 C 0.84698 0.8875 0.43092 0.0
C518 C 0.7976 0.85446 0.25513 0.0
C519 C 0.85807 0.85898 0.33516 0.0
H520 H 0.74385 0.71293 0.23463 0.0
H521 H 0.68903 0.75893 0.14561 0.0
H522 H 0.72674 0.81306 0.20218 0.0
H523 H 0.69806 0.80916 0.15293 0.0
H524 H 0.90434 0.88275 0.34131 0.0
H525 H 0.87697 0.90421 0.4561 0.0
H526 H 0.8201 0.8721 0.39956 0.0
H527 H 0.83068 0.88904 0.45566 0.0
Tb528 Tb 0.309 0.79029 0.28395 0.0
C529 C 0.3082 0.89321 0.3793 0.0
C530 C 0.34284 0.91953 0.34345 0.0
C531 C 0.29981 0.94937 0.3848 0.0
C532 C 0.33353 0.8921 0.35369 0.0
C533 C 0.29139 0.92162 0.39583 0.0
C534 C 0.32549 0.94833 0.35862 0.0
C535 C 0.261 0.8923 0.43502 0.0
N536 N 0.3009 0.86587 0.38923 0.0
C537 C 0.27852 0.86465 0.41796 0.0
C538 C 0.26718 0.92101 0.42358 0.0
Tb539 Tb 0.33042 0.82219 0.3588 0.0
N540 N 0.34956 0.86386 0.33961 0.0
C541 C 0.37649 0.86094 0.31691 0.0
C542 C 0.36954 0.91703 0.31876 0.0
C543 C 0.38664 0.8875 0.30581 0.0
H544 H 0.27355 0.84254 0.42675 0.0
H545 H 0.40757 0.8852 0.28711 0.0
H546 H 0.33208 0.96976 0.35083 0.0
H547 H 0.24275 0.89145 0.45699 0.0
H548 H 0.38987 0.83838 0.30639 0.0
H549 H 0.23314 0.72599 0.35633 0.0
H550 H 0.37741 0.93757 0.31005 0.0
H551 H 0.3649 0.77049 0.2147 0.0
H552 H 0.24996 0.77323 0.33646 0.0
H553 H 0.39597 0.72177 0.18439 0.0
H554 H 0.28702 0.97156 0.39689 0.0
H555 H 0.26407 0.67362 0.33402 0.0
H556 H 0.30964 0.64172 0.29332 0.0
H557 H 0.25365 0.94236 0.43694 0.0
H558 H 0.35415 0.6405 0.24653 0.0
N559 N 0.29054 0.74809 0.30336 0.0
C560 C 0.26368 0.75071 0.32613 0.0
C561 C 0.27156 0.69436 0.32502 0.0
C562 C 0.29815 0.69212 0.30023 0.0
C563 C 0.25401 0.72389 0.33759 0.0
C564 C 0.30694 0.71982 0.2896 0.0
H565 H 0.38631 0.67038 0.20533 0.0
N566 N 0.33856 0.74669 0.2532 0.0
C567 C 0.37812 0.72064 0.2068 0.0
C568 C 0.33193 0.71903 0.26362 0.0
C569 C 0.36043 0.7482 0.22394 0.0
C570 C 0.37264 0.69166 0.21873 0.0
C571 C 0.34893 0.6907 0.24705 0.0
O572 O 0.30192 0.8069 0.22858 0.0
O573 O 0.32045 0.82907 0.30198 0.0
O574 O 0.28442 0.8533 0.34711 0.0
O575 O 0.26776 0.81908 0.31795 0.0
O576 O 0.3347 0.81954 0.24868 0.0
O577 O 0.26423 0.80173 0.26844 0.0
O578 O 0.33652 0.80676 0.41468 0.0
O579 O 0.31925 0.78346 0.34051 0.0
O580 O 0.35482 0.75967 0.29482 0.0
O581 O 0.37216 0.79228 0.32599 0.0
O582 O 0.30537 0.79208 0.39394 0.0
O583 O 0.37496 0.81055 0.37512 0.0
C584 C 0.33397 0.8388 0.27256 0.0
C585 C 0.26231 0.79349 0.20649 0.0
C586 C 0.22662 0.79703 0.16181 0.0
C587 C 0.23614 0.81084 0.18874 0.0
C588 C 0.24297 0.76552 0.1537 0.0
C589 C 0.27837 0.76224 0.19754 0.0
C590 C 0.26862 0.74828 0.17155 0.0
C591 C 0.26244 0.84598 0.33391 0.0
C592 C 0.27295 0.80828 0.23373 0.0
C593 C 0.34117 0.66265 0.2586 0.0
C594 C 0.31581 0.66336 0.2852 0.0
C595 C 0.3064 0.77287 0.36983 0.0
C596 C 0.37692 0.81874 0.43731 0.0
C597 C 0.40361 0.80089 0.45384 0.0
C598 C 0.41467 0.81397 0.48021 0.0
C599 C 0.39858 0.84521 0.48961 0.0
C600 C 0.36128 0.84973 0.44744 0.0
C601 C 0.37212 0.86287 0.47331 0.0
C602 C 0.37699 0.76618 0.30849 0.0
C603 C 0.36569 0.80461 0.40985 0.0
H604 H 0.22378 0.83515 0.19512 0.0
H605 H 0.2359 0.75424 0.13339 0.0
H606 H 0.29861 0.7486 0.21021 0.0
H607 H 0.28118 0.72411 0.16495 0.0
H608 H 0.41583 0.77697 0.44596 0.0
H609 H 0.40613 0.85582 0.51013 0.0
H610 H 0.34057 0.86376 0.43572 0.0
H611 H 0.3598 0.8868 0.48099 0.0
Tb612 Tb 0.31042 0.81278 0.8565 0.0
C613 C 0.22228 0.7786 0.78346 0.0
C614 C 0.21039 0.73951 0.83045 0.0
C615 C 0.17192 0.77063 0.79029 0.0
C616 C 0.23105 0.75548 0.81222 0.0
C617 C 0.19293 0.78576 0.77148 0.0
C618 C 0.18061 0.74761 0.81976 0.0
C619 C 0.20844 0.81974 0.72087 0.0
N620 N 0.24303 0.79302 0.76614 0.0
C621 C 0.23729 0.81176 0.73371 0.0
C622 C 0.18595 0.80713 0.74022 0.0
Tb623 Tb 0.28979 0.77675 0.78884 0.0
N624 N 0.25997 0.74834 0.822 0.0
C625 C 0.27008 0.72465 0.84901 0.0
C626 C 0.22032 0.7158 0.85879 0.0
C627 C 0.25037 0.70819 0.8679 0.0
H628 H 0.25475 0.82142 0.71867 0.0
H629 H 0.2583 0.68979 0.88966 0.0
H630 H 0.16429 0.73586 0.83371 0.0
H631 H 0.20363 0.83545 0.69598 0.0
H632 H 0.29307 0.71877 0.85669 0.0
H633 H 0.25022 0.93541 0.88536 0.0
H634 H 0.20509 0.70311 0.8736 0.0
H635 H 0.38756 0.77689 0.83603 0.0
H636 H 0.2578 0.87773 0.89016 0.0
H637 H 0.43255 0.79354 0.81231 0.0
H638 H 0.14912 0.7761 0.78178 0.0
H639 H 0.29093 0.95687 0.85211 0.0
H640 H 0.34473 0.94625 0.81991 0.0
H641 H 0.16366 0.81322 0.73012 0.0
H642 H 0.39456 0.90747 0.80046 0.0
N643 N 0.30154 0.86659 0.8572 0.0
C644 C 0.27565 0.88671 0.8751 0.0
C645 C 0.29426 0.9315 0.85367 0.0
C646 C 0.3219 0.91049 0.83867 0.0
C647 C 0.27127 0.91947 0.87256 0.0
C648 C 0.32504 0.87769 0.84129 0.0
H649 H 0.42769 0.8506 0.79856 0.0
N650 N 0.3557 0.82421 0.83573 0.0
C651 C 0.41028 0.81132 0.81709 0.0
C652 C 0.35306 0.85578 0.83035 0.0
C653 C 0.38421 0.802 0.83067 0.0
C654 C 0.40745 0.84353 0.80925 0.0
C655 C 0.37874 0.86626 0.81653 0.0
O656 O 0.30859 0.78545 0.90753 0.0
O657 O 0.28066 0.7854 0.84741 0.0
O658 O 0.25552 0.82419 0.79227 0.0
O659 O 0.28108 0.85064 0.82085 0.0
O660 O 0.26147 0.82417 0.87792 0.0
O661 O 0.32593 0.82507 0.90242 0.0
O662 O 0.31008 0.76925 0.73422 0.0
O663 O 0.3258 0.79475 0.8021 0.0
O664 O 0.343 0.76455 0.85574 0.0
O665 O 0.32888 0.7393 0.81204 0.0
O666 O 0.30885 0.81053 0.75213 0.0
O667 O 0.29473 0.73295 0.76745 0.0
C668 C 0.25532 0.80138 0.86536 0.0
C669 C 0.29469 0.81738 0.95816 0.0
C670 C 0.26797 0.86066 0.99813 0.0
C671 C 0.28943 0.84861 0.96777 0.0
C672 C 0.25165 0.84117 0.01863 0.0
C673 C 0.27852 0.7982 0.97962 0.0
C674 C 0.25693 0.81017 1.00933 0.0
C675 C 0.2585 0.85053 0.8023 0.0
C676 C 0.3161 0.80486 0.92531 0.0
C677 C 0.37521 0.89902 0.8116 0.0
C678 C 0.34683 0.92111 0.82264 0.0
C679 C 0.3294 0.81161 0.77195 0.0
C680 C 0.28776 0.73999 0.70318 0.0
C681 C 0.27744 0.71348 0.70254 0.0
C682 C 0.26444 0.70932 0.67144 0.0
C683 C 0.26046 0.73337 0.64197 0.0
C684 C 0.2837 0.76325 0.67303 0.0
C685 C 0.26964 0.76017 0.6431 0.0
C686 C 0.34645 0.7393 0.83776 0.0
C687 C 0.3041 0.74265 0.7342 0.0
H688 H 0.30216 0.86349 0.9519 0.0
H689 H 0.23462 0.85007 0.04164 0.0
H690 H 0.2823 0.774 0.97316 0.0
H691 H 0.24418 0.7953 0.025 0.0
H692 H 0.2803 0.69585 0.72599 0.0
H693 H 0.25154 0.73108 0.61704 0.0
H694 H 0.29156 0.78384 0.67231 0.0
H695 H 0.26677 0.7782 0.62003 0.0
Tb696 Tb 0.29739 0.26999 0.80806 0.0
C697 C 0.32087 0.31357 0.94979 0.0
C698 C 0.27167 0.35108 0.96975 0.0
C699 C 0.30631 0.32211 1.01522 0.0
C700 C 0.29306 0.33492 0.94146 0.0
C701 C 0.32806 0.30718 0.98669 0.0
C702 C 0.27816 0.34403 1.00676 0.0
C703 C 0.37827 0.27311 0.96413 0.0
N704 N 0.3412 0.29951 0.92149 0.0
C705 C 0.37015 0.28036 0.92796 0.0
C706 C 0.35703 0.28634 0.99368 0.0
Tb707 Tb 0.32591 0.3137 0.86324 0.0
N708 N 0.28782 0.34136 0.90532 0.0
C709 C 0.26294 0.3661 0.89536 0.0
C710 C 0.24497 0.37464 0.95984 0.0
C711 C 0.24085 0.38256 0.92243 0.0
H712 H 0.38669 0.27005 0.90522 0.0
H713 H 0.22073 0.40139 0.91439 0.0
H714 H 0.2619 0.35598 0.02891 0.0
H715 H 0.40092 0.2574 0.96918 0.0
H716 H 0.25962 0.37279 0.86653 0.0
H717 H 0.39933 0.16543 0.81204 0.0
H718 H 0.22792 0.38753 0.98073 0.0
H719 H 0.26007 0.31056 0.73723 0.0
H720 H 0.35576 0.20634 0.83925 0.0
H721 H 0.26724 0.31126 0.66896 0.0
H722 H 0.31128 0.31736 0.04379 0.0
H723 H 0.41108 0.16479 0.74411 0.0
H724 H 0.39786 0.18933 0.68123 0.0
H725 H 0.36342 0.28077 0.02165 0.0
H726 H 0.3627 0.22941 0.64237 0.0
N727 N 0.3402 0.22945 0.78746 0.0
C728 C 0.35908 0.20664 0.80962 0.0
C729 C 0.39114 0.18289 0.75588 0.0
C730 C 0.37207 0.20607 0.73318 0.0
C731 C 0.38452 0.18313 0.79421 0.0
C732 C 0.34636 0.22921 0.74987 0.0
H733 H 0.31396 0.27458 0.63748 0.0
N734 N 0.30235 0.27421 0.74447 0.0
C735 C 0.28434 0.29466 0.6851 0.0
C736 C 0.32692 0.25227 0.72781 0.0
C737 C 0.28018 0.29395 0.72376 0.0
C738 C 0.31074 0.274 0.66747 0.0
C739 C 0.33216 0.25209 0.68879 0.0
O740 O 0.25133 0.27278 0.80787 0.0
O741 O 0.28867 0.29537 0.85754 0.0
O742 O 0.32568 0.26965 0.89712 0.0
O743 O 0.30901 0.23953 0.86094 0.0
O744 O 0.25339 0.30571 0.82597 0.0
O745 O 0.28653 0.22797 0.80125 0.0
O746 O 0.36531 0.32809 0.86412 0.0
O747 O 0.3343 0.28823 0.81427 0.0
O748 O 0.30231 0.31303 0.77399 0.0
O749 O 0.30129 0.34612 0.81901 0.0
O750 O 0.37171 0.28486 0.83902 0.0
O751 O 0.32178 0.36213 0.85228 0.0
C752 C 0.26033 0.31063 0.85718 0.0
C753 C 0.24148 0.2392 0.76945 0.0
C754 C 0.22417 0.20577 0.73454 0.0
C755 C 0.24031 0.20891 0.76317 0.0
C756 C 0.21023 0.23278 0.7117 0.0
C757 C 0.22477 0.26607 0.74809 0.0
C758 C 0.21032 0.26274 0.7187 0.0
C759 C 0.31955 0.24337 0.89178 0.0
C760 C 0.25732 0.24352 0.80021 0.0
C761 C 0.35811 0.22961 0.67226 0.0
C762 C 0.37806 0.20672 0.6944 0.0
C763 C 0.36324 0.27625 0.81109 0.0
C764 C 0.35212 0.37892 0.88745 0.0
C765 C 0.38014 0.38494 0.88825 0.0
C766 C 0.38227 0.40573 0.91319 0.0
C767 C 0.35664 0.41919 0.93847 0.0
C768 C 0.32646 0.39384 0.91203 0.0
C769 C 0.32892 0.41322 0.93782 0.0
C770 C 0.30025 0.34135 0.78417 0.0
C771 C 0.34952 0.35819 0.86013 0.0
H772 H 0.25103 0.18818 0.78098 0.0
H773 H 0.1975 0.23099 0.68979 0.0
H774 H 0.22217 0.28996 0.75437 0.0
H775 H 0.19815 0.28362 0.70214 0.0
H776 H 0.39979 0.37453 0.86858 0.0
H777 H 0.35791 0.43488 0.95825 0.0
H778 H 0.30425 0.3912 0.91114 0.0
H779 H 0.30904 0.42423 0.95681 0.0
Tb780 Tb 0.79699 0.28561 0.77822 0.0
C781 C 0.81123 0.39628 0.85112 0.0
C782 C 0.84823 0.41718 0.81142 0.0
C783 C 0.80674 0.45237 0.84976 0.0
C784 C 0.83655 0.39172 0.82482 0.0
C785 C 0.79632 0.42647 0.86451 0.0
C786 C 0.83273 0.44771 0.82332 0.0
C787 C 0.76416 0.40238 0.90857 0.0
N788 N 0.80236 0.37048 0.86516 0.0
C789 C 0.78 0.37282 0.89471 0.0
C790 C 0.77209 0.42942 0.8931 0.0
Tb791 Tb 0.82902 0.32332 0.83969 0.0
N792 N 0.8508 0.36186 0.81406 0.0
C793 C 0.87815 0.35547 0.79163 0.0
C794 C 0.87551 0.41099 0.78722 0.0
C795 C 0.89076 0.37991 0.77771 0.0
H796 H 0.77363 0.35207 0.90668 0.0
H797 H 0.9121 0.37477 0.7594 0.0
H798 H 0.84106 0.46769 0.8129 0.0
H799 H 0.74589 0.40429 0.93121 0.0
H800 H 0.89015 0.33163 0.78378 0.0
H801 H 0.71857 0.23655 0.87225 0.0
H802 H 0.88523 0.42989 0.77621 0.0
H803 H 0.84577 0.255 0.70666 0.0
H804 H 0.73859 0.27911 0.84068 0.0
H805 H 0.87137 0.20185 0.68329 0.0
H806 H 0.79542 0.47587 0.85937 0.0
H807 H 0.74455 0.18056 0.8581 0.0
H808 H 0.78604 0.14141 0.81962 0.0
H809 H 0.75994 0.45224 0.90408 0.0
H810 H 0.82792 0.13188 0.76808 0.0
N811 N 0.77619 0.24777 0.80904 0.0
C812 C 0.75021 0.25493 0.83389 0.0
C813 C 0.75344 0.19921 0.84398 0.0
C814 C 0.77894 0.19224 0.81701 0.0
C815 C 0.73869 0.23079 0.85196 0.0
C816 C 0.78961 0.21742 0.79961 0.0
H817 H 0.85957 0.15444 0.7165 0.0
N818 N 0.82037 0.23765 0.7531 0.0
C819 C 0.85495 0.2044 0.70796 0.0
C820 C 0.81266 0.21214 0.77054 0.0
C821 C 0.84031 0.23446 0.72115 0.0
C822 C 0.84832 0.17767 0.72685 0.0
C823 C 0.82647 0.18142 0.75817 0.0
O824 O 0.7841 0.29369 0.72371 0.0
O825 O 0.81616 0.3224 0.78558 0.0
O826 O 0.78439 0.35656 0.82533 0.0
O827 O 0.76166 0.31949 0.81375 0.0
O828 O 0.82108 0.30959 0.7331 0.0
O829 O 0.75 0.30448 0.77067 0.0
O830 O 0.8384 0.31177 0.89533 0.0
O831 O 0.81241 0.2848 0.83135 0.0
O832 O 0.84373 0.25451 0.78609 0.0
O833 O 0.86611 0.28964 0.80522 0.0
O834 O 0.80407 0.29884 0.88327 0.0
O835 O 0.87528 0.30893 0.8514 0.0
C836 C 0.82684 0.32852 0.75289 0.0
C837 C 0.73477 0.28854 0.71923 0.0
C838 C 0.69188 0.29291 0.68397 0.0
C839 C 0.71225 0.30677 0.69594 0.0
C840 C 0.69441 0.26094 0.69538 0.0
C841 C 0.73699 0.25649 0.72931 0.0
C842 C 0.71692 0.24287 0.71766 0.0
C843 C 0.75977 0.34882 0.82047 0.0
C844 C 0.75466 0.3031 0.73488 0.0
C845 C 0.81734 0.15578 0.77681 0.0
C846 C 0.79351 0.1612 0.80614 0.0
C847 C 0.80133 0.27804 0.86361 0.0
C848 C 0.88288 0.3218 0.90977 0.0
C849 C 0.90669 0.30345 0.9313 0.0
C850 C 0.9196 0.31857 0.9537 0.0
C851 C 0.90884 0.3519 0.95376 0.0
C852 C 0.87274 0.35501 0.91067 0.0
C853 C 0.8857 0.36993 0.9323 0.0
C854 C 0.86802 0.26171 0.79345 0.0
C855 C 0.86802 0.30652 0.8872 0.0
H856 H 0.71038 0.33149 0.68754 0.0
H857 H 0.67924 0.24974 0.68636 0.0
H858 H 0.75409 0.24195 0.74648 0.0
H859 H 0.71884 0.21814 0.72592 0.0
H860 H 0.91465 0.27773 0.93119 0.0
H861 H 0.91837 0.36402 0.97064 0.0
H862 H 0.85454 0.36952 0.89498 0.0
H863 H 0.87756 0.39561 0.93269 0.0
Tb864 Tb 0.77679 0.79423 0.84686 0.0
C865 C 0.81194 0.82292 0.68379 0.0
C866 C 0.84801 0.77263 0.6662 0.0
C867 C 0.81582 0.80746 0.62135 0.0
C868 C 0.83374 0.79463 0.69306 0.0
C869 C 0.80345 0.83026 0.64751 0.0
C870 C 0.83809 0.77863 0.63071 0.0
C871 C 0.77487 0.88352 0.66431 0.0
N872 N 0.80115 0.84446 0.70966 0.0
C873 C 0.78418 0.87511 0.69989 0.0
C874 C 0.78404 0.8608 0.63821 0.0
Tb875 Tb 0.81646 0.82797 0.76773 0.0
N876 N 0.84318 0.79028 0.72727 0.0
C877 C 0.8691 0.76604 0.73502 0.0
C878 C 0.87294 0.74628 0.67517 0.0
C879 C 0.88404 0.74345 0.70938 0.0
H880 H 0.77674 0.89266 0.72012 0.0
H881 H 0.90395 0.72373 0.71617 0.0
H882 H 0.84844 0.7618 0.60984 0.0
H883 H 0.76059 0.90747 0.65707 0.0
H884 H 0.87777 0.76332 0.7615 0.0
H885 H 0.68202 0.90339 0.86252 0.0
H886 H 0.88457 0.7288 0.65535 0.0
H887 H 0.81388 0.74252 0.91058 0.0
H888 H 0.71592 0.85761 0.83 0.0
H889 H 0.82118 0.74132 0.97648 0.0
H890 H 0.8093 0.81242 0.59342 0.0
H891 H 0.68918 0.90952 0.92663 0.0
H892 H 0.71748 0.88738 0.98261 0.0
H893 H 0.77697 0.86742 0.6106 0.0
H894 H 0.75598 0.84348 1.01351 0.0
N895 N 0.74256 0.83729 0.87505 0.0
C896 C 0.71928 0.8594 0.85808 0.0
C897 C 0.70411 0.8891 0.91255 0.0
C898 C 0.72713 0.8658 0.93031 0.0
C899 C 0.69996 0.88567 0.87641 0.0
C900 C 0.74601 0.83979 0.91065 0.0
H901 H 0.79452 0.78862 1.01162 0.0
N902 N 0.78453 0.79051 0.90806 0.0
C903 C 0.80637 0.76253 0.96301 0.0
C904 C 0.76802 0.81565 0.92767 0.0
C905 C 0.80213 0.76327 0.92576 0.0
C906 C 0.79135 0.78929 0.98271 0.0
C907 C 0.7713 0.81605 0.96533 0.0
O908 O 0.77298 0.74866 0.86469 0.0
O909 O 0.80079 0.78768 0.79156 0.0
O910 O 0.77236 0.83058 0.74971 0.0
O911 O 0.74637 0.8102 0.80177 0.0
O912 O 0.81105 0.7499 0.8308 0.0
O913 O 0.73283 0.78822 0.8537 0.0
O914 O 0.82641 0.87156 0.75731 0.0
O915 O 0.79347 0.83306 0.82295 0.0
O916 O 0.82107 0.79229 0.86405 0.0
O917 O 0.84957 0.8018 0.80777 0.0
O918 O 0.7876 0.87365 0.78967 0.0
O919 O 0.86288 0.82705 0.75956 0.0
C920 C 0.8163 0.75853 0.79622 0.0
C921 C 0.7256 0.7473 0.89823 0.0
C922 C 0.69464 0.71298 0.92567 0.0
C923 C 0.71112 0.7246 0.89469 0.0
C924 C 0.69317 0.72442 0.96037 0.0
C925 C 0.72313 0.75895 0.93284 0.0
C926 C 0.70717 0.74738 0.96378 0.0
C927 C 0.74809 0.82293 0.76699 0.0
C928 C 0.74313 0.75827 0.86538 0.0
C929 C 0.75351 0.84249 0.9847 0.0
C930 C 0.73151 0.86741 0.96717 0.0
C931 C 0.78159 0.86287 0.82319 0.0
C932 C 0.87362 0.86982 0.72112 0.0
C933 C 0.8913 0.88929 0.72627 0.0
C934 C 0.90827 0.90103 0.69577 0.0
C935 C 0.90687 0.89312 0.66005 0.0
C936 C 0.87304 0.86195 0.68534 0.0
C937 C 0.88947 0.87367 0.655 0.0
C938 C 0.84706 0.79412 0.84417 0.0
C939 C 0.85607 0.85786 0.75333 0.0
H940 H 0.71236 0.71643 0.86759 0.0
H941 H 0.68136 0.71555 0.98501 0.0
H942 H 0.73338 0.77692 0.9361 0.0
H943 H 0.70567 0.75623 0.99052 0.0
H944 H 0.89215 0.89484 0.75407 0.0
H945 H 0.91899 0.90221 0.63586 0.0
H946 H 0.86 0.84674 0.68079 0.0
H947 H 0.8887 0.86768 0.62741 0.0
H948 H 0.07722 0.16464 0.44342 0.0
H949 H 0.1516 0.09358 0.38703 0.0
H950 H 0.18533 0.12672 0.38476 0.0
H951 H 0.19423 0.17527 0.40122 0.0
H952 H 0.11942 0.24547 0.45841 0.0
H953 H 0.08547 0.21321 0.45824 0.0
C954 C 0.10088 0.1562 0.43094 0.0
C955 C 0.11188 0.12649 0.41572 0.0
C956 C 0.12012 0.17528 0.42992 0.0
C957 C 0.14244 0.11639 0.39881 0.0
C958 C 0.16179 0.1353 0.39763 0.0
C959 C 0.1704 0.18359 0.41325 0.0
C960 C 0.15945 0.2126 0.43009 0.0
C961 C 0.15094 0.16474 0.4133 0.0
C962 C 0.12855 0.22302 0.44577 0.0
C963 C 0.10909 0.20462 0.44561 0.0
H964 H 0.93755 0.098 0.35602 0.0
H965 H 1.00581 0.14714 0.33223 0.0
H966 H 0.96504 0.198 0.32361 0.0
H967 H 0.90967 0.22889 0.328 0.0
H968 H 0.84158 0.17936 0.3457 0.0
H969 H 0.88246 0.12833 0.35183 0.0
C970 C 0.94355 0.11977 0.34798 0.0
C971 C 0.97482 0.11866 0.34452 0.0
C972 C 0.91992 0.14891 0.34267 0.0
C973 C 0.98212 0.14713 0.3344 0.0
C974 C 0.95871 0.1763 0.32995 0.0
C975 C 0.90367 0.20699 0.33273 0.0
C976 C 0.87233 0.20818 0.33669 0.0
C977 C 0.92747 0.17758 0.33483 0.0
C978 C 0.86532 0.1793 0.34262 0.0
C979 C 0.88877 0.15007 0.34613 0.0
H980 H 1.01204 0.94348 0.3798 0.0
H981 H 0.95523 1.00477 0.46227 0.0
H982 H 0.9134 0.98226 0.46067 0.0
H983 H 0.89309 0.94634 0.43501 0.0
H984 H 0.95171 0.87948 0.35831 0.0
H985 H 0.9925 0.90376 0.35732 0.0
C986 C 0.99046 0.95159 0.39742 0.0
C987 C 0.98639 0.97556 0.42116 0.0
C988 C 0.96693 0.93788 0.39702 0.0
C989 C 0.95864 0.9861 0.44412 0.0
C990 C 0.93482 0.97337 0.44303 0.0
C991 C 0.91497 0.93625 0.41874 0.0
C992 C 0.91913 0.9107 0.39707 0.0
C993 C 0.93876 0.94925 0.41962 0.0
C994 C 0.94745 0.89928 0.37499 0.0
C995 C 0.97098 0.91298 0.37466 0.0
H996 H 0.12213 0.9289 0.32903 0.0
H997 H 0.15785 1.00361 0.34816 0.0
H998 H 0.20963 0.96522 0.34853 0.0
H999 H 0.24471 0.90987 0.34518 0.0
H1000 H 0.2086 0.83588 0.32432 0.0
H1001 H 0.15725 0.87441 0.32335 0.0
C1002 C 0.14122 0.937 0.33295 0.0
C1003 C 0.13579 0.96937 0.33852 0.0
C1004 C 0.17098 0.91471 0.3333 0.0
C1005 C 0.1611 0.97907 0.34352 0.0
C1006 C 0.19078 0.957 0.34401 0.0
C1007 C 0.22563 0.90205 0.3406 0.0
C1008 C 0.23078 0.86966 0.33513 0.0
C1009 C 0.19598 0.92464 0.33936 0.0
C1010 C 0.20558 0.8604 0.32877 0.0
C1011 C 0.17609 0.88253 0.3281 0.0
H1012 H 0.17202 0.99086 0.76806 0.0
H1013 H 0.10209 0.94389 0.7911 0.0
H1014 H 0.14163 0.89272 0.80361 0.0
H1015 H 0.19674 0.86098 0.80322 0.0
H1016 H 0.26584 0.9092 0.78613 0.0
H1017 H 0.22616 0.96026 0.77538 0.0
C1018 C 0.16541 0.96951 0.77677 0.0
C1019 C 0.13421 0.97109 0.77901 0.0
C1020 C 0.18822 0.94038 0.78409 0.0
C1021 C 0.12588 0.94331 0.78991 0.0
C1022 C 0.14855 0.91403 0.79653 0.0
C1023 C 0.20305 0.88268 0.79742 0.0
C1024 C 0.23427 0.88124 0.79513 0.0
C1025 C 0.17988 0.91217 0.79287 0.0
C1026 C 0.24204 0.90964 0.78779 0.0
C1027 C 0.21934 0.93885 0.78179 0.0
H1028 H 0.16894 0.11157 0.67861 0.0
H1029 H 0.12462 0.11511 0.79087 0.0
H1030 H 0.15793 0.14349 0.80679 0.0
H1031 H 0.19411 0.1743 0.78618 0.0
H1032 H 0.23683 0.17269 0.67329 0.0
H1033 H 0.21046 0.13597 0.66036 0.0
C1034 C 0.16684 0.11832 0.7066 0.0
C1035 C 0.14407 0.11167 0.73334 0.0
C1036 C 0.18593 0.13489 0.71547 0.0
C1037 C 0.14197 0.11993 0.76977 0.0
C1038 C 0.16095 0.13628 0.77887 0.0
C1039 C 0.19856 0.16483 0.75924 0.0
C1040 C 0.21735 0.17603 0.73073 0.0
C1041 C 0.18237 0.14473 0.75166 0.0
C1042 C 0.22255 0.16415 0.69566 0.0
C1043 C 0.20718 0.14351 0.68816 0.0
H1044 H 1.0059 0.17074 0.78875 0.0
H1045 H 0.96152 0.10008 0.78076 0.0
H1046 H 0.91132 0.14145 0.78351 0.0
H1047 H 0.88021 0.19796 0.78648 0.0
H1048 H 0.92496 0.26823 0.79499 0.0
H1049 H 0.97479 0.22673 0.79328 0.0
C1050 C 0.98529 0.16419 0.78789 0.0
C1051 C 0.98772 0.13211 0.78455 0.0
C1052 C 0.95652 0.18816 0.78911 0.0
C1053 C 0.96053 0.12439 0.78348 0.0
C1054 C 0.93178 0.14813 0.78483 0.0
C1055 C 0.90083 0.20434 0.7877 0.0
C1056 C 0.89862 0.23647 0.79055 0.0
C1057 C 0.92952 0.18017 0.78721 0.0
C1058 C 0.92575 0.24391 0.79263 0.0
C1059 C 0.95434 0.22011 0.79177 0.0
H1060 H 0.97125 1.00104 0.72938 0.0
H1061 H 0.04047 0.95213 0.64568 0.0
H1062 H 1.01053 0.91679 0.64082 0.0
H1063 H 0.96486 0.89955 0.66007 0.0
H1064 H 0.89475 0.94867 0.74284 0.0
H1065 H 0.92532 0.98332 0.74915 0.0
C1066 C 0.97989 0.98252 0.71029 0.0
C1067 C 1.00807 0.97953 0.68776 0.0
C1068 C 0.9625 0.96207 0.70764 0.0
C1069 C 1.01869 0.95549 0.66289 0.0
C1070 C 1.00165 0.93504 0.66027 0.0
C1071 C 0.95604 0.91802 0.67928 0.0
C1072 C 0.92737 0.92149 0.70077 0.0
C1073 C 0.97348 0.9382 0.68235 0.0
C1074 C 0.91682 0.94513 0.72616 0.0
C1075 C 0.93421 0.96516 0.7296 0.0
H1076 H 0.28314 0.19265 0.18156 0.0
H1077 H 0.33903 0.11044 0.24154 0.0
H1078 H 0.35055 0.14504 0.2814 0.0
H1079 H 0.34047 0.19913 0.30245 0.0
H1080 H 0.28608 0.28039 0.23919 0.0
H1081 H 0.27861 0.24625 0.19734 0.0
C1082 C 0.29811 0.18244 0.20313 0.0
C1083 C 0.30996 0.14918 0.20903 0.0
C1084 C 0.30484 0.20244 0.22544 0.0
C1085 C 0.32969 0.13605 0.23664 0.0
C1086 C 0.33613 0.15583 0.25945 0.0
C1087 C 0.32748 0.20934 0.27908 0.0
C1088 C 0.31367 0.24263 0.27447 0.0
C1089 C 0.32328 0.18914 0.2546 0.0
C1090 C 0.29684 0.25525 0.24403 0.0
C1091 C 0.29249 0.23554 0.21983 0.0
H1092 H 0.97358 0.30699 0.23431 0.0
H1093 H 0.93768 0.36552 0.13857 0.0
H1094 H 0.88574 0.36237 0.16174 0.0
H1095 H 0.84997 0.34363 0.21067 0.0
H1096 H 0.8884 0.27941 0.30139 0.0
H1097 H 0.93916 0.28384 0.27928 0.0
C1098 C 0.95437 0.3189 0.21846 0.0
C1099 C 0.95951 0.33671 0.18482 0.0
C1100 C 0.92473 0.31616 0.23148 0.0
C1101 C 0.9344 0.35166 0.16442 0.0
C1102 C 0.90466 0.34993 0.17782 0.0
C1103 C 0.86943 0.33076 0.22574 0.0
C1104 C 0.8645 0.31253 0.25934 0.0
C1105 C 0.89939 0.33243 0.21157 0.0
C1106 C 0.89057 0.29488 0.277 0.0
C1107 C 0.92001 0.29717 0.26393 0.0
H1108 H 0.78186 0.94505 0.10727 0.0
H1109 H 0.87213 0.94456 0.12691 0.0
H1110 H 0.86806 0.91297 0.18548 0.0
H1111 H 0.84034 0.88359 0.2297 0.0
H1112 H 0.75052 0.88223 0.21113 0.0
H1113 H 0.75261 0.91708 0.15397 0.0
C1114 C 0.80048 0.93833 0.12455 0.0
C1115 C 0.8274 0.94707 0.11235 0.0
C1116 C 0.79801 0.91999 0.15849 0.0
C1117 C 0.85142 0.93778 0.13506 0.0
C1118 C 0.84901 0.91991 0.16881 0.0
C1119 C 0.82082 0.89144 0.21369 0.0
C1120 C 0.79537 0.88008 0.22459 0.0
C1121 C 0.82255 0.91071 0.18064 0.0
C1122 C 0.77058 0.89021 0.20309 0.0
C1123 C 0.77181 0.91011 0.1704 0.0
H1124 H 0.12766 0.84437 0.05006 0.0
H1125 H 0.06687 0.86681 0.15079 0.0
H1126 H 0.11132 0.85436 0.1859 0.0
H1127 H 0.16759 0.8293 0.18881 0.0
H1128 H 0.22722 0.80451 0.08778 0.0
H1129 H 0.18339 0.82568 0.05171 0.0
C1130 C 0.12424 0.84703 0.07961 0.0
C1131 C 0.09418 0.85607 0.09792 0.0
C1132 C 0.14976 0.83899 0.09954 0.0
C1133 C 0.08985 0.85996 0.1361 0.0
C1134 C 0.11526 0.85252 0.1562 0.0
C1135 C 0.17092 0.82928 0.15884 0.0
C1136 C 0.20045 0.8151 0.14076 0.0
C1137 C 0.14535 0.84088 0.13841 0.0
C1138 C 0.20457 0.81505 0.10201 0.0
C1139 C 0.17956 0.82708 0.0815 0.0
H1140 H 0.25237 1.00486 1.01695 0.0
H1141 H 0.25832 0.96785 0.13094 0.0
H1142 H 0.26022 0.91536 0.11465 0.0
H1143 H 0.264 0.87921 0.06726 0.0
H1144 H 0.26044 0.91545 0.95268 0.0
H1145 H 0.25406 0.96896 0.96963 0.0
C1146 C 0.2534 0.98542 0.03821 0.0
C1147 C 0.25496 0.99011 0.07511 0.0
C1148 C 0.25544 0.95511 0.02839 0.0
C1149 C 0.25702 0.96463 0.1024 0.0
C1150 C 0.25823 0.93468 0.09306 0.0
C1151 C 0.26143 0.89891 0.04607 0.0
C1152 C 0.26283 0.89337 1.0087 0.0
C1153 C 0.25806 0.92949 0.05604 0.0
C1154 C 0.25987 0.91906 0.98152 0.0
C1155 C 0.25604 0.94967 0.99125 0.0
H1156 H 0.17596 0.31446 1.01268 0.0
H1157 H 0.10798 0.37676 0.94506 0.0
H1158 H 0.14637 0.37038 0.89122 0.0
H1159 H 0.19953 0.34665 0.86184 0.0
H1160 H 0.26723 0.28377 0.92847 0.0
H1161 H 0.22924 0.29051 0.98315 0.0
C1162 C 0.16938 0.3266 0.98624 0.0
C1163 C 0.13864 0.34631 0.98374 0.0
C1164 C 0.19181 0.32264 0.95465 0.0
C1165 C 0.13118 0.36187 0.94875 0.0
C1166 C 0.15324 0.35805 0.9175 0.0
C1167 C 0.20595 0.3344 0.88834 0.0
C1168 C 0.23665 0.31497 0.89085 0.0
C1169 C 0.18365 0.33846 0.91996 0.0
C1170 C 0.24421 0.29913 0.92553 0.0
C1171 C 0.22227 0.30299 0.95697 0.0
H1172 H 0.79129 0.14943 0.95133 0.0
H1173 H 0.8652 0.11033 0.86654 0.0
H1174 H 0.86404 0.16376 0.84142 0.0
H1175 H 0.84213 0.22141 0.84313 0.0
H1176 H 0.7658 0.26139 0.92376 0.0
H1177 H 0.7682 0.2076 0.95152 0.0
C1178 C 0.80698 0.15231 0.92711 0.0
C1179 C 0.82839 0.1253 0.91113 0.0
C1180 C 0.80584 0.18336 0.91214 0.0
C1181 C 0.84876 0.13021 0.88004 0.0
C1182 C 0.84808 0.16094 0.86544 0.0
C1183 C 0.82546 0.21853 0.86599 0.0
C1184 C 0.80284 0.2454 0.88012 0.0
C1185 C 0.82666 0.18763 0.88116 0.0
C1186 C 0.78287 0.24102 0.91171 0.0
C1187 C 0.78425 0.21029 0.92752 0.0
H1188 H 0.93988 0.78731 0.95963 0.0
H1189 H 0.96302 0.85679 0.87771 0.0
H1190 H 0.92835 0.84976 0.83733 0.0
H1191 H 0.88882 0.82664 0.82667 0.0
H1192 H 0.86392 0.75839 0.90881 0.0
H1193 H 0.9017 0.76193 0.94732 0.0
C1194 C 0.93761 0.80055 0.93274 0.0
C1195 C 0.95398 0.82275 0.92194 0.0
C1196 C 0.9171 0.79671 0.90964 0.0
C1197 C 0.95045 0.83993 0.88706 0.0
C1198 C 0.93068 0.83582 0.86381 0.0
C1199 C 0.89209 0.81198 0.85261 0.0
C1200 C 0.87338 0.79225 0.86474 0.0
C1201 C 0.91353 0.81464 0.87497 0.0
C1202 C 0.87764 0.77402 0.89888 0.0
C1203 C 0.89937 0.77601 0.92095 0.0
H1204 H 0.15378 0.36148 0.15481 0.0
H1205 H 0.13915 0.27338 0.20332 0.0
H1206 H 0.17642 0.26814 0.24738 0.0
H1207 H 0.21335 0.28919 0.2726 0.0
H1208 H 0.22825 0.37639 0.22114 0.0
H1209 H 0.19074 0.38143 0.17821 0.0
C1210 C 0.15863 0.341 0.17494 0.0
C1211 C 0.14331 0.31791 0.17557 0.0
C1212 C 0.18015 0.33813 0.20003 0.0
C1213 C 0.15045 0.2915 0.20187 0.0
C1214 C 0.17173 0.28861 0.22726 0.0
C1215 C 0.20803 0.3095 0.25228 0.0
C1216 C 0.22352 0.33265 0.25048 0.0
C1217 C 0.18662 0.31192 0.22684 0.0
C1218 C 0.21685 0.3583 0.22328 0.0
C1219 C 0.19532 0.36118 0.19865 0.0
H1220 H 0.14881 0.77071 0.98295 0.0
H1221 H 0.09341 0.82689 0.89866 0.0
H1222 H 0.13956 0.82859 0.85788 0.0
H1223 H 0.19567 0.81995 0.84792 0.0
H1224 H 0.25282 0.76182 0.92881 0.0
H1225 H 0.20699 0.75525 0.96836 0.0
C1226 C 0.1468 0.7824 0.95524 0.0
C1227 C 0.11692 0.79856 0.94433 0.0
C1228 C 0.17414 0.7835 0.93113 0.0
C1229 C 0.11557 0.81413 0.90829 0.0
C1230 C 0.14217 0.81535 0.88475 0.0
C1231 C 0.1983 0.80502 0.87361 0.0
C1232 C 0.22822 0.79078 0.8845 0.0
C1233 C 0.1716 0.80098 0.89611 0.0
C1234 C 0.23049 0.77244 0.91887 0.0
C1235 C 0.20403 0.76883 0.94175 0.0
H1236 H 0.3143 0.17121 0.05114 0.0
H1237 H 0.33704 0.08855 0.98965 0.0
H1238 H 0.33943 0.12211 0.93101 0.0
H1239 H 0.33151 0.17686 0.89712 0.0
H1240 H 0.30879 0.2573 0.96306 0.0
H1241 H 0.30979 0.22308 0.01921 0.0
C1242 C 0.32027 0.16033 0.02494 0.0
C1243 C 0.32556 0.12742 0.02487 0.0
C1244 C 0.3212 0.17969 0.99175 0.0
C1245 C 0.3333 0.11379 0.9906 0.0
C1246 C 0.33426 0.13311 0.95703 0.0
C1247 C 0.3268 0.18678 0.92378 0.0
C1248 C 0.32023 0.22005 0.92525 0.0
C1249 C 0.32761 0.16639 0.95714 0.0
C1250 C 0.31442 0.23214 0.96036 0.0
C1251 C 0.31482 0.21246 0.99293 0.0
H1252 H 1.00727 0.28053 0.07914 0.0
H1253 H 0.07607 0.26275 0.98415 0.0
H1254 H 0.03612 0.27021 0.94392 0.0
H1255 H 0.98087 0.28979 0.93413 0.0
H1256 H 0.91222 0.31017 0.02861 0.0
H1257 H 0.95249 0.29371 0.07032 0.0
C1258 C 1.01365 0.27777 0.04977 0.0
C1259 C 0.04481 0.27164 0.03487 0.0
C1260 C 0.99035 0.28288 0.02643 0.0
C1261 C 0.0524 0.26772 0.99663 0.0
C1262 C 0.02947 0.27216 0.97341 0.0
C1263 C 0.97482 0.28955 0.96392 0.0
C1264 C 0.94361 0.3008 0.97833 0.0
C1265 C 0.99826 0.28088 0.98774 0.0
C1266 C 0.93606 0.30117 1.01695 0.0
C1267 C 0.95912 0.29202 0.04078 0.0
H1268 H 0.80774 0.9254 0.95573 0.0
H1269 H 0.74299 0.00916 0.90893 0.0
H1270 H 0.73335 0.977 0.86433 0.0
H1271 H 0.74826 0.92533 0.83437 0.0
H1272 H 0.81485 0.84386 0.88257 0.0
H1273 H 0.8187 0.87442 0.93045 0.0
C1274 C 0.79107 0.93662 0.93618 0.0
C1275 C 0.77625 0.96965 0.93553 0.0
C1276 C 0.78619 0.91821 0.91047 0.0
C1277 C 0.75456 0.98373 0.91021 0.0
C1278 C 0.74934 0.96535 0.88445 0.0
C1279 C 0.76323 0.91425 0.85573 0.0
C1280 C 0.78079 0.88171 0.85486 0.0
C1281 C 0.76576 0.93263 0.88359 0.0
C1282 C 0.80046 0.86812 0.88246 0.0
C1283 C 0.80287 0.88587 0.91008 0.0
H1284 H 0.92354 0.82057 0.10113 0.0
H1285 H 1.00711 0.75529 0.1387 0.0
H1286 H 0.9782 0.74571 0.19884 0.0
H1287 H 0.92879 0.7584 0.24272 0.0
H1288 H 0.84666 0.82441 0.20272 0.0
H1289 H 0.87507 0.83108 0.14252 0.0
C1290 C 0.9357 0.80396 0.12219 0.0
C1291 C 0.96792 0.78878 0.11467 0.0
C1292 C 0.91889 0.79879 0.15688 0.0
C1293 C 0.98257 0.76731 0.14296 0.0
C1294 C 0.96591 0.76198 0.17766 0.0
C1295 C 0.91706 0.77402 0.22071 0.0
C1296 C 0.885 0.79056 0.22781 0.0
C1297 C 0.93403 0.77792 0.18529 0.0
C1298 C 0.87076 0.81094 0.19863 0.0
C1299 C 0.88722 0.81488 0.16388 0.0
H1300 H 0.29884 0.98774 0.23332 0.0
H1301 H 0.37329 0.9594 0.14597 0.0
H1302 H 0.38358 0.90351 0.17095 0.0
H1303 H 0.36901 0.86213 0.21607 0.0
H1304 H 0.29137 0.89267 0.29877 0.0
H1305 H 0.2849 0.94778 0.27744 0.0
C1306 C 0.31759 0.96953 0.21971 0.0
C1307 C 0.33526 0.97807 0.18766 0.0
C1308 C 0.32279 0.93754 0.23359 0.0
C1309 C 0.35935 0.95376 0.1707 0.0
C1310 C 0.36512 0.92171 0.18492 0.0
C1311 C 0.35093 0.88095 0.22964 0.0
C1312 C 0.33147 0.87289 0.26028 0.0
C1313 C 0.34665 0.9132 0.2161 0.0
C1314 C 0.30757 0.89765 0.27655 0.0
C1315 C 0.3036 0.92948 0.26392 0.0
H1316 H 0.81823 0.12475 0.02811 0.0
H1317 H 0.75893 0.08759 0.11026 0.0
H1318 H 0.7625 0.12328 0.15477 0.0
H1319 H 0.78929 0.15915 0.17261 0.0
H1320 H 0.85059 0.19331 0.08965 0.0
H1321 H 0.83964 0.16468 0.04326 0.0
C1322 C 0.80532 0.12519 0.05546 0.0
C1323 C 0.78823 0.10378 0.06593 0.0
C1324 C 0.80855 0.1447 0.08101 0.0
C1325 C 0.77178 0.10429 0.10141 0.0
C1326 C 0.77428 0.12434 0.12698 0.0
C1327 C 0.79979 0.16073 0.14422 0.0
C1328 C 0.82124 0.1779 0.13481 0.0
C1329 C 0.79363 0.14374 0.11753 0.0
C1330 C 0.83462 0.17971 0.09787 0.0
C1331 C 0.82822 0.16348 0.07124 0.0
H1332 H 0.64355 0.60419 0.89113 0.0
H1333 H 0.57055 0.64867 0.97354 0.0
H1334 H 0.59647 0.68765 0.97979 0.0
H1335 H 0.63936 0.70947 0.96107 0.0
H1336 H 0.71424 0.66294 0.8814 0.0
H1337 H 0.68772 0.6249 0.87411 0.0
C1338 C 0.63334 0.62255 0.91028 0.0
C1339 C 0.60521 0.62367 0.9318 0.0
C1340 C 0.64857 0.64461 0.91401 0.0
C1341 C 0.59234 0.64722 0.95696 0.0
C1342 C 0.60707 0.66957 0.96039 0.0
C1343 C 0.6502 0.69075 0.94251 0.0
C1344 C 0.67879 0.68928 0.92177 0.0
C1345 C 0.63521 0.66845 0.93909 0.0
C1346 C 0.69202 0.66514 0.89727 0.0
C1347 C 0.67699 0.64316 0.89327 0.0
H1348 H 0.45429 0.63111 0.90672 0.0
H1349 H 0.48896 0.61812 0.79182 0.0
H1350 H 0.44237 0.65958 0.77312 0.0
H1351 H 0.39177 0.70109 0.79013 0.0
H1352 H 0.36034 0.71384 0.90582 0.0
H1353 H 0.40536 0.6707 0.9234 0.0
C1354 C 0.45187 0.63709 0.87745 0.0
C1355 C 0.47539 0.62128 0.85077 0.0
C1356 C 0.42526 0.66094 0.86706 0.0
C1357 C 0.47145 0.6298 0.81305 0.0
C1358 C 0.44469 0.65351 0.80238 0.0
C1359 C 0.39463 0.69393 0.81913 0.0
C1360 C 0.37243 0.71042 0.84673 0.0
C1361 C 0.42137 0.66938 0.82918 0.0
C1362 C 0.37687 0.70144 0.88414 0.0
C1363 C 0.40271 0.67683 0.89421 0.0
H1364 H 0.51101 0.42839 0.91145 0.0
H1365 H 0.45247 0.52594 0.90698 0.0
H1366 H 0.40731 0.50843 0.90762 0.0
H1367 H 0.38457 0.46563 0.90938 0.0
H1368 H 0.44231 0.36779 0.91259 0.0
H1369 H 0.48796 0.38503 0.91212 0.0
C1370 C 0.48829 0.44566 0.91095 0.0
C1371 C 0.48491 0.47835 0.90931 0.0
C1372 C 0.46248 0.43538 0.91085 0.0
C1373 C 0.45552 0.50067 0.90799 0.0
C1374 C 0.42975 0.49068 0.90844 0.0
C1375 C 0.40716 0.44809 0.91021 0.0
C1376 C 0.4102 0.41555 0.91144 0.0
C1377 C 0.433 0.45815 0.90983 0.0
C1378 C 0.43957 0.393 0.91162 0.0
C1379 C 0.46555 0.40284 0.91153 0.0
H1380 H 0.62007 0.43383 0.82365 0.0
H1381 H 0.65955 0.50924 0.8268 0.0
H1382 H 0.71123 0.47022 0.82444 0.0
H1383 H 0.74526 0.41402 0.82279 0.0
H1384 H 0.70396 0.33949 0.82188 0.0
H1385 H 0.65329 0.37876 0.82218 0.0
C1386 C 0.63991 0.44197 0.82344 0.0
C1387 C 0.63567 0.47467 0.82516 0.0
C1388 C 0.66943 0.41937 0.82282 0.0
C1389 C 0.66192 0.48437 0.82524 0.0
C1390 C 0.69154 0.46198 0.82409 0.0
C1391 C 0.72517 0.40633 0.82295 0.0
C1392 C 0.72877 0.37354 0.82239 0.0
C1393 C 0.6956 0.42929 0.82324 0.0
C1394 C 0.70227 0.36432 0.82221 0.0
C1395 C 0.67309 0.38686 0.82235 0.0
H1396 H 0.68445 0.49405 0.27338 0.0
H1397 H 0.60901 0.45703 0.31381 0.0
H1398 H 0.64562 0.40509 0.33093 0.0
H1399 H 0.69945 0.36916 0.32999 0.0
H1400 H 0.77451 0.40781 0.29348 0.0
H1401 H 0.7378 0.46011 0.2793 0.0
C1402 C 0.67603 0.47477 0.28666 0.0
C1403 C 0.64406 0.47938 0.2924 0.0
C1404 C 0.6972 0.44517 0.29671 0.0
C1405 C 0.63346 0.45422 0.30958 0.0
C1406 C 0.65442 0.42443 0.31899 0.0
C1407 C 0.70772 0.38914 0.31923 0.0
C1408 C 0.73973 0.38452 0.31246 0.0
C1409 C 0.68638 0.41944 0.31198 0.0
C1410 C 0.75007 0.4107 0.29893 0.0
C1411 C 0.72907 0.44061 0.29074 0.0
H1412 H 0.65583 0.63069 0.15764 0.0
H1413 H 0.63269 0.62941 0.27627 0.0
H1414 H 0.66392 0.66396 0.27971 0.0
H1415 H 0.6931 0.69928 0.24821 0.0
H1416 H 0.7146 0.70211 0.12933 0.0
H1417 H 0.6888 0.66227 0.12675 0.0
C1418 C 0.6577 0.6379 0.18424 0.0
C1419 C 0.64164 0.62771 0.21656 0.0
C1420 C 0.67533 0.65819 0.18595 0.0
C1421 C 0.64487 0.63672 0.25095 0.0
C1422 C 0.6626 0.65667 0.25292 0.0
C1423 C 0.69283 0.69054 0.22187 0.0
C1424 C 0.70563 0.7037 0.18899 0.0
C1425 C 0.67737 0.66813 0.22052 0.0
C1426 C 0.70471 0.69248 0.15498 0.0
C1427 C 0.68989 0.66979 0.15348 0.0
H1428 H 0.51459 0.67352 0.30921 0.0
H1429 H 0.47082 0.60688 0.28451 0.0
H1430 H 0.42125 0.64879 0.28663 0.0
H1431 H 0.39067 0.70422 0.29362 0.0
H1432 H 0.43294 0.77123 0.32061 0.0
H1433 H 0.48285 0.72926 0.31917 0.0
C1434 C 0.49418 0.66802 0.30463 0.0
C1435 C 0.49667 0.63685 0.29665 0.0
C1436 C 0.46554 0.69238 0.30588 0.0
C1437 C 0.4698 0.6304 0.29087 0.0
C1438 C 0.44139 0.65447 0.29185 0.0
C1439 C 0.41069 0.70996 0.29901 0.0
C1440 C 0.40785 0.74123 0.30678 0.0
C1441 C 0.43907 0.68558 0.29889 0.0
C1442 C 0.43428 0.74759 0.31432 0.0
C1443 C 0.46285 0.72351 0.31359 0.0
H1444 H 0.4761 0.50369 0.24439 0.0
H1445 H 0.55006 0.44515 0.17292 0.0
H1446 H 0.51962 0.41008 0.16926 0.0
H1447 H 0.47172 0.39658 0.18461 0.0
H1448 H 0.3967 0.45488 0.25496 0.0
H1449 H 0.42805 0.48879 0.26169 0.0
C1450 C 0.48561 0.4831 0.22832 0.0
C1451 C 0.51525 0.47742 0.20854 0.0
C1452 C 0.46782 0.46284 0.22623 0.0
C1453 C 0.52714 0.45062 0.18774 0.0
C1454 C 0.5098 0.43036 0.18581 0.0
C1455 C 0.46207 0.41681 0.20127 0.0
C1456 C 0.43171 0.42329 0.2189 0.0
C1457 C 0.48001 0.43644 0.20453 0.0
C1458 C 0.42002 0.44917 0.24118 0.0
C1459 C 0.43788 0.46873 0.24483 0.0
H1460 H 0.85786 0.63406 0.71094 0.0
H1461 H 0.77507 0.68224 0.65953 0.0
H1462 H 0.76698 0.7293 0.69351 0.0
H1463 H 0.78312 0.75627 0.73978 0.0
H1464 H 0.86337 0.70447 0.7945 0.0
H1465 H 0.87307 0.65972 0.75699 0.0
C1466 C 0.838 0.65483 0.70703 0.0
C1467 C 0.81713 0.65448 0.68261 0.0
C1468 C 0.83327 0.68142 0.7271 0.0
C1469 C 0.79141 0.68165 0.67831 0.0
C1470 C 0.7869 0.70866 0.69761 0.0
C1471 C 0.803 0.73539 0.74286 0.0
C1472 C 0.82311 0.73405 0.76917 0.0
C1473 C 0.80768 0.70886 0.72221 0.0
C1474 C 0.84801 0.7063 0.77397 0.0
C1475 C 0.85346 0.68062 0.75267 0.0
H1476 H 0.43481 0.86195 0.67681 0.0
H1477 H 0.48617 0.76183 0.6854 0.0
H1478 H 0.44236 0.75061 0.72402 0.0
H1479 H 0.38782 0.76867 0.75453 0.0
H1480 H 0.33667 0.86841 0.74373 0.0
H1481 H 0.3814 0.87991 0.70728 0.0
C1482 C 0.43682 0.83753 0.68677 0.0
C1483 C 0.46473 0.81292 0.67728 0.0
C1484 C 0.41107 0.83101 0.70911 0.0
C1485 C 0.46575 0.78162 0.69162 0.0
C1486 C 0.44037 0.77506 0.71392 0.0
C1487 C 0.38664 0.79299 0.74468 0.0
C1488 C 0.3588 0.81782 0.75316 0.0
C1489 C 0.41273 0.79947 0.72284 0.0
C1490 C 0.3577 0.84893 0.73868 0.0
C1491 C 0.3834 0.8555 0.71754 0.0
H1492 H 0.33554 0.4465 0.66937 0.0
H1493 H 0.28054 0.41793 0.60284 0.0
H1494 H 0.26969 0.38057 0.65385 0.0
H1495 H 0.2761 0.35588 0.71743 0.0
H1496 H 0.33089 0.38469 0.78401 0.0
H1497 H 0.34076 0.42262 0.73365 0.0
C1498 C 0.32134 0.43195 0.66601 0.0
C1499 C 0.30902 0.4349 0.6322 0.0
C1500 C 0.31481 0.41083 0.69574 0.0
C1501 C 0.29017 0.41626 0.62857 0.0
C1502 C 0.284 0.39486 0.65775 0.0
C1503 C 0.29039 0.37015 0.7209 0.0
C1504 C 0.30282 0.36701 0.75466 0.0
C1505 C 0.29622 0.39189 0.69149 0.0
C1506 C 0.32055 0.38671 0.75876 0.0
C1507 C 0.32654 0.40827 0.7297 0.0
H1508 H 0.61409 0.31901 0.55145 0.0
H1509 H 0.54093 0.32675 0.64085 0.0
H1510 H 0.57572 0.32775 0.685 0.0
H1511 H 0.62951 0.31484 0.6993 0.0
H1512 H 0.70282 0.3063 0.6099 0.0
H1513 H 0.66567 0.31767 0.56457 0.0
C1514 C 0.6054 0.32269 0.5803 0.0
C1515 C 0.57477 0.3235 0.59277 0.0
C1516 C 0.6259 0.32229 0.60566 0.0
C1517 C 0.56409 0.32703 0.63043 0.0
C1518 C 0.5842 0.32699 0.65579 0.0
C1519 C 0.63708 0.31683 0.66986 0.0
C1520 C 0.66884 0.30995 0.65789 0.0
C1521 C 0.61553 0.323 0.64397 0.0
C1522 C 0.6785 0.31197 0.61971 0.0
C1523 C 0.65725 0.31814 0.59382 0.0
H1524 H 0.78042 0.54969 0.498 0.0
H1525 H 0.77329 0.51509 0.61348 0.0
H1526 H 0.77826 0.46231 0.59592 0.0
H1527 H 0.79117 0.42433 0.54787 0.0
H1528 H 0.79936 0.45836 0.43251 0.0
H1529 H 0.78701 0.51294 0.4499 0.0
C1530 C 0.77929 0.53082 0.51941 0.0
C1531 C 0.77684 0.53648 0.55708 0.0
C1532 C 0.7827 0.50022 0.5091 0.0
C1533 C 0.77523 0.51163 0.58431 0.0
C1534 C 0.7783 0.48126 0.57427 0.0
C1535 C 0.78989 0.44378 0.52653 0.0
C1536 C 0.79658 0.4372 0.48892 0.0
C1537 C 0.78312 0.47503 0.53678 0.0
C1538 C 0.79428 0.46272 0.4616 0.0
C1539 C 0.78742 0.49392 0.47158 0.0
H1540 H 0.64552 0.84531 0.4379 0.0
H1541 H 0.69223 0.77036 0.51522 0.0
H1542 H 0.73868 0.75829 0.47087 0.0
H1543 H 0.76646 0.76769 0.40876 0.0
H1544 H 0.71951 0.84166 0.33125 0.0
H1545 H 0.67344 0.85529 0.37657 0.0
C1546 C 0.66578 0.82646 0.4455 0.0
C1547 C 0.66459 0.80885 0.48066 0.0
C1548 C 0.69287 0.81948 0.41951 0.0
C1549 C 0.69162 0.78427 0.48879 0.0
C1550 C 0.71853 0.77738 0.46326 0.0
C1551 C 0.74638 0.78731 0.40211 0.0
C1552 C 0.74735 0.80482 0.36703 0.0
C1553 C 0.71951 0.79469 0.42842 0.0
C1554 C 0.72026 0.82887 0.35844 0.0
C1555 C 0.69366 0.83642 0.38437 0.0
H1556 H 0.34524 0.62272 0.40565 0.0
H1557 H 0.26585 0.64877 0.48738 0.0
H1558 H 0.25612 0.70475 0.4652 0.0
H1559 H 0.27106 0.74728 0.42347 0.0
H1560 H 0.35208 0.72032 0.34501 0.0
H1561 H 0.36014 0.6646 0.3647 0.0
C1562 C 0.32588 0.6405 0.4189 0.0
C1563 C 0.30643 0.63099 0.44835 0.0
C1564 C 0.32051 0.67294 0.40627 0.0
C1565 C 0.28118 0.65486 0.46447 0.0
C1566 C 0.27563 0.68713 0.4519 0.0
C1567 C 0.29031 0.72914 0.41051 0.0
C1568 C 0.31023 0.73836 0.38141 0.0
C1569 C 0.29523 0.69657 0.4229 0.0
C1570 C 0.33551 0.7144 0.36588 0.0
C1571 C 0.3404 0.68221 0.37767 0.0
H1572 H 0.44344 0.25515 0.47303 0.0
H1573 H 0.45799 0.34571 0.43666 0.0
H1574 H 0.41862 0.35683 0.39377 0.0
H1575 H 0.37964 0.34031 0.36615 0.0
H1576 H 0.36516 0.25026 0.40576 0.0
H1577 H 0.40474 0.23951 0.44741 0.0
C1578 C 0.43816 0.27742 0.45579 0.0
C1579 C 0.45407 0.29946 0.45822 0.0
C1580 C 0.41538 0.28369 0.43145 0.0
C1581 C 0.44631 0.32825 0.43566 0.0
C1582 C 0.42379 0.33455 0.41095 0.0
C1583 C 0.38545 0.31822 0.38366 0.0
C1584 C 0.3694 0.29598 0.38257 0.0
C1585 C 0.4082 0.31236 0.40839 0.0
C1586 C 0.37686 0.26782 0.40605 0.0
C1587 C 0.39962 0.26162 0.4299 0.0
H1588 H 0.64931 0.85724 0.65287 0.0
H1589 H 0.63935 0.76641 0.69841 0.0
H1590 H 0.67685 0.76149 0.74171 0.0
H1591 H 0.71409 0.78242 0.7655 0.0
H1592 H 0.72396 0.87277 0.71829 0.0
H1593 H 0.68514 0.87838 0.677 0.0
C1594 C 0.65513 0.83636 0.67234 0.0
C1595 C 0.6413 0.81225 0.67219 0.0
C1596 C 0.67693 0.83357 0.69694 0.0
C1597 C 0.64948 0.78539 0.69772 0.0
C1598 C 0.67099 0.78256 0.72256 0.0
C1599 C 0.70739 0.8035 0.74648 0.0
C1600 C 0.72215 0.82711 0.74483 0.0
C1601 C 0.68502 0.80644 0.72236 0.0
C1602 C 0.71347 0.85404 0.71969 0.0
C1603 C 0.69109 0.85733 0.69616 0.0
H1604 H 0.66876 0.23138 0.47259 0.0
H1605 H 0.61182 0.31683 0.4185 0.0
H1606 H 0.65797 0.32815 0.38544 0.0
H1607 H 0.71538 0.31397 0.37226 0.0
H1608 H 0.77152 0.22965 0.42927 0.0
H1609 H 0.72535 0.21798 0.46073 0.0
C1610 C 0.66636 0.25241 0.45345 0.0
C1611 C 0.63653 0.27311 0.44813 0.0
C1612 C 0.69315 0.2591 0.43498 0.0
C1613 C 0.63425 0.30054 0.42352 0.0
C1614 C 0.66075 0.307 0.40448 0.0
C1615 C 0.71746 0.29286 0.3912 0.0
C1616 C 0.74715 0.27211 0.39738 0.0
C1617 C 0.69045 0.28649 0.40997 0.0
C1618 C 0.74916 0.24564 0.42334 0.0
C1619 C 0.72267 0.23895 0.44143 0.0
H1620 H 0.85897 0.61508 0.4464 0.0
H1621 H 0.83553 0.68232 0.52994 0.0
H1622 H 0.82733 0.72637 0.48204 0.0
H1623 H 0.8258 0.74583 0.41696 0.0
H1624 H 0.84938 0.67999 0.33229 0.0
H1625 H 0.85824 0.63518 0.38007 0.0
C1626 C 0.85255 0.63933 0.45407 0.0
C1627 C 0.84791 0.64532 0.49187 0.0
C1628 C 0.84785 0.66473 0.4262 0.0
C1629 C 0.83898 0.677 0.50123 0.0
C1630 C 0.83442 0.70223 0.47381 0.0
C1631 C 0.83377 0.72174 0.40879 0.0
C1632 C 0.83797 0.71634 0.37104 0.0
C1633 C 0.83873 0.69637 0.4363 0.0
C1634 C 0.84642 0.68485 0.36113 0.0
C1635 C 0.85152 0.65924 0.38846 0.0
H1636 H 0.52256 0.71871 0.56506 0.0
H1637 H 0.55389 0.80119 0.54988 0.0
H1638 H 0.50919 0.83155 0.51889 0.0
H1639 H 0.46145 0.83436 0.49441 0.0
H1640 H 0.43051 0.75133 0.50737 0.0
H1641 H 0.47513 0.7212 0.5397 0.0
C1642 C 0.51963 0.74337 0.55508 0.0
C1643 C 0.54156 0.75788 0.56085 0.0
C1644 C 0.49399 0.76043 0.53624 0.0
C1645 C 0.5373 0.78966 0.54715 0.0
C1646 C 0.51171 0.80698 0.52892 0.0
C1647 C 0.46432 0.80973 0.50451 0.0
C1648 C 0.44255 0.7952 0.49849 0.0
C1649 C 0.48994 0.79258 0.52321 0.0
C1650 C 0.44704 0.76305 0.5112 0.0
C1651 C 0.47244 0.74587 0.52997 0.0
H1652 H 0.25347 0.48537 0.42282 0.0
H1653 H 0.32324 0.41526 0.48131 0.0
H1654 H 0.32234 0.3743 0.44328 0.0
H1655 H 0.30592 0.35944 0.38949 0.0
H1656 H 0.23802 0.42879 0.32817 0.0
H1657 H 0.23409 0.46893 0.37074 0.0
C1658 C 0.26799 0.461 0.42757 0.0
C1659 C 0.28853 0.45344 0.4547 0.0
C1660 C 0.26801 0.43747 0.40474 0.0
C1661 C 0.30745 0.42179 0.46036 0.0
C1662 C 0.30702 0.3983 0.43858 0.0
C1663 C 0.28978 0.38308 0.38587 0.0
C1664 C 0.27181 0.39092 0.35618 0.0
C1665 C 0.28804 0.40603 0.41006 0.0
C1666 C 0.25175 0.42209 0.35123 0.0
C1667 C 0.24954 0.44504 0.37552 0.0
H1668 H 0.47735 0.23173 0.68864 0.0
H1669 H 0.41796 0.30456 0.62028 0.0
H1670 H 0.37685 0.31403 0.67213 0.0
H1671 H 0.35824 0.30324 0.73847 0.0
H1672 H 0.41897 0.23183 0.80664 0.0
H1673 H 0.45857 0.22011 0.75363 0.0
C1674 C 0.45537 0.24947 0.68474 0.0
C1675 C 0.45116 0.26739 0.6501 0.0
C1676 C 0.43178 0.25506 0.71496 0.0
C1677 C 0.42234 0.29059 0.6464 0.0
C1678 C 0.39863 0.29595 0.67616 0.0
C1679 C 0.37984 0.28464 0.74153 0.0
C1680 C 0.38511 0.26769 0.77655 0.0
C1681 C 0.4031 0.27852 0.71079 0.0
C1682 C 0.41394 0.24472 0.78003 0.0
C1683 C 0.43672 0.2381 0.74966 0.0
H1684 H 0.87659 0.43653 0.66429 0.0
H1685 H 0.7972 0.49614 0.72735 0.0
H1686 H 0.78441 0.44896 0.75737 0.0
H1687 H 0.79557 0.39054 0.76517 0.0
H1688 H 0.87443 0.33101 0.70142 0.0
H1689 H 0.88746 0.37823 0.6717 0.0
C1690 C 0.85669 0.43917 0.68486 0.0
C1691 C 0.83796 0.46988 0.69367 0.0
C1692 C 0.84926 0.41191 0.70165 0.0
C1693 C 0.81186 0.47284 0.71989 0.0
C1694 C 0.80453 0.44586 0.73704 0.0
C1695 C 0.81589 0.38794 0.7453 0.0
C1696 C 0.83486 0.35734 0.73664 0.0
C1697 C 0.82304 0.41525 0.72812 0.0
C1698 C 0.8601 0.35435 0.70925 0.0
C1699 C 0.86748 0.38133 0.69223 0.0
H1700 H 0.28063 0.5694 0.64107 0.0
H1701 H 0.21749 0.61823 0.56146 0.0
H1702 H 0.20598 0.66805 0.59126 0.0
H1703 H 0.22227 0.69892 0.63157 0.0
H1704 H 0.29381 0.64931 0.70178 0.0
H1705 H 0.29253 0.59889 0.68535 0.0
C1706 C 0.2636 0.59079 0.63094 0.0
C1707 C 0.25018 0.59038 0.59896 0.0
C1708 C 0.25896 0.61946 0.64639 0.0
C1709 C 0.22797 0.61798 0.5862 0.0
C1710 C 0.22183 0.64654 0.6029 0.0
C1711 C 0.23774 0.6772 0.6433 0.0
C1712 C 0.25867 0.6786 0.66734 0.0
C1713 C 0.23865 0.64786 0.63158 0.0
C1714 C 0.27723 0.64974 0.68348 0.0
C1715 C 0.27686 0.62055 0.6737 0.0
loop_
_geom_bond_atom_site_label_1
_geom_bond_atom_site_label_2
_geom_bond_distance
_geom_bond_site_symmetry_2
_ccdc_geom_bond_type
Cu0 N1 1.999 . S
Cu0 O6 1.974 . S
Cu0 N11 1.985 . S
Cu0 O20 1.959 1_455 S
N1 Cu0 1.999 . S
N1 C3 1.263 . S
N1 C5 1.389 . S
N2 C3 1.358 . S
N2 C4 1.400 . S
C3 N1 1.263 . S
C3 N2 1.358 . S
C3 H9 0.930 . S
C4 N2 1.400 . S
C4 C5 1.351 . S
C4 H21 0.930 . S
C5 N1 1.389 . S
C5 C4 1.351 . S
C5 H10 0.930 . S
O6 Cu0 1.974 . S
O6 C16 1.282 1_545 S
C7 O8 1.261 . S
C7 O20 1.251 . S
O8 C7 1.261 . S
H9 C3 0.930 . S
H10 C5 0.930 . S
N11 Cu0 1.985 . S
N11 C13 1.335 1_455 S
N11 C14 1.390 1_545 S
N12 C13 1.345 1_565 S
N12 C15 1.311 1_655 S
C13 N11 1.335 1_655 S
C13 N12 1.345 1_545 S
C13 H18 0.930 . S
C14 N11 1.390 1_565 S
C14 C15 1.381 . S
C14 H19 0.930 . S
C15 N12 1.311 1_455 S
C15 C14 1.381 . S
C15 H22 0.922 . S
C16 O6 1.282 1_565 S
C16 O17 1.216 1_565 S
O17 C16 1.216 1_545 S
H18 C13 0.930 . S
H19 C14 0.930 . S
O20 Cu0 1.959 1_655 S
O20 C7 1.251 . S
H21 C4 0.930 . S
H22 C15 0.922 . S
Cu23 N24 1.999 . S
Cu23 O29 1.974 1_455 S
Cu23 N34 1.985 . S
Cu23 O43 1.959 . S
N24 Cu23 1.999 . S
N24 C26 1.263 1_455 S
N24 C28 1.389 1_545 S
N25 C26 1.358 1_565 S
N25 C27 1.400 . S
C26 N24 1.263 1_655 S
C26 N25 1.358 1_545 S
C26 H32 0.930 . S
C27 N25 1.400 . S
C27 C28 1.351 1_655 S
C27 H44 0.930 . S
C28 N24 1.389 1_565 S
C28 C27 1.351 1_455 S
C28 H33 0.930 . S
O29 Cu23 1.974 1_655 S
O29 C39 1.282 . S
C30 O31 1.261 . S
C30 O43 1.251 . S
O31 C30 1.261 . S
H32 C26 0.930 . S
H33 C28 0.930 . S
N34 Cu23 1.985 . S
N34 C36 1.335 . S
N34 C37 1.390 . S
N35 C36 1.345 . S
N35 C38 1.336 . S
C36 N34 1.335 . S
C36 N35 1.345 . S
C36 H41 0.930 . S
C37 N34 1.390 . S
C37 C38 1.346 . S
C37 H42 0.930 . S
C38 N35 1.336 . S
C38 C37 1.346 . S
C38 H45 0.929 . S
C39 O29 1.282 . S
C39 O40 1.216 . S
O40 C39 1.216 . S
H41 C36 0.930 . S
H42 C37 0.930 . S
O43 Cu23 1.959 . S
O43 C30 1.251 . S
H44 C27 0.930 . S
H45 C38 0.929 . S
Cu46 N47 1.999 . S
Cu46 O52 1.974 . S
Cu46 N57 1.985 . S
Cu46 O66 1.959 . S
N47 Cu46 1.999 . S
N47 C49 1.263 . S
N47 C51 1.389 . S
N48 C49 1.358 . S
N48 C50 1.400 . S
C49 N47 1.263 . S
C49 N48 1.358 . S
C49 H55 0.930 . S
C50 N48 1.400 . S
C50 C51 1.351 . S
C50 H67 0.930 1_554 S
C51 N47 1.389 . S
C51 C50 1.351 . S
C51 H56 0.930 . S
O52 Cu46 1.974 . S
O52 C62 1.282 . S
C53 O54 1.261 . S
C53 O66 1.251 . S
O54 C53 1.261 . S
H55 C49 0.930 . S
H56 C51 0.930 . S
N57 Cu46 1.985 . S
N57 C59 1.335 . S
N57 C60 1.390 . S
N58 C59 1.345 . S
N58 C61 1.336 . S
C59 N57 1.335 . S
C59 N58 1.345 . S
C59 H64 0.930 . S
C60 N57 1.390 . S
C60 C61 1.346 . S
C60 H65 0.930 . S
C61 N58 1.336 . S
C61 C60 1.346 . S
C61 H68 0.929 . S
C62 O52 1.282 . S
C62 O63 1.216 . S
O63 C62 1.216 . S
H64 C59 0.930 . S
H65 C60 0.930 . S
O66 Cu46 1.959 . S
O66 C53 1.251 . S
H67 C50 0.930 1_556 S
H68 C61 0.929 . S
Cu69 N70 1.999 . S
Cu69 O75 1.974 . S
Cu69 N80 1.985 . S
Cu69 O89 1.959 . S
N70 Cu69 1.999 . S
N70 C72 1.263 . S
N70 C74 1.389 . S
N71 C72 1.358 . S
N71 C73 1.400 1_554 S
C72 N70 1.263 . S
C72 N71 1.358 . S
C72 H78 0.930 . S
C73 N71 1.400 1_556 S
C73 C74 1.351 1_556 S
C73 H90 0.930 . S
C74 N70 1.389 . S
C74 C73 1.351 1_554 S
C74 H79 0.930 . S
O75 Cu69 1.974 . S
O75 C85 1.282 . S
C76 O77 1.261 . S
C76 O89 1.251 . S
O77 C76 1.261 . S
H78 C72 0.930 . S
H79 C74 0.930 . S
N80 Cu69 1.985 . S
N80 C82 1.335 . S
N80 C83 1.390 . S
N81 C82 1.345 1_655 S
N81 C84 1.336 1_655 S
C82 N80 1.335 . S
C82 N81 1.345 1_455 S
C82 H87 0.930 1_455 S
C83 N80 1.390 . S
C83 C84 1.346 . S
C83 H88 0.930 . S
C84 N81 1.336 1_455 S
C84 C83 1.346 . S
C84 H91 0.929 . S
C85 O75 1.282 . S
C85 O86 1.216 . S
O86 C85 1.216 . S
H87 C82 0.930 1_655 S
H88 C83 0.930 . S
O89 Cu69 1.959 . S
O89 C76 1.251 . S
H90 C73 0.930 . S
H91 C84 0.929 . S
Cu92 N93 1.999 1_554 S
Cu92 O98 1.974 . S
Cu92 N103 1.985 1_545 S
Cu92 O112 1.959 1_544 S
N93 Cu92 1.999 1_556 S
N93 C95 1.263 . S
N93 C97 1.389 . S
N94 C95 1.358 . S
N94 C96 1.400 . S
C95 N93 1.263 . S
C95 N94 1.358 . S
C95 H101 0.930 . S
C96 N94 1.400 . S
C96 C97 1.351 . S
C96 H113 0.930 . S
C97 N93 1.389 . S
C97 C96 1.351 . S
C97 H102 0.930 . S
O98 Cu92 1.974 . S
O98 C108 1.282 . S
C99 O100 1.261 . S
C99 O112 1.251 . S
O100 C99 1.261 . S
H101 C95 0.930 . S
H102 C97 0.930 . S
N103 Cu92 1.985 1_565 S
N103 C105 1.335 . S
N103 C106 1.390 . S
N104 C105 1.345 . S
N104 C107 1.336 . S
C105 N103 1.335 . S
C105 N104 1.345 . S
C105 H110 0.930 . S
C106 N103 1.390 . S
C106 C107 1.346 . S
C106 H111 0.930 . S
C107 N104 1.336 . S
C107 C106 1.346 . S
C107 H114 0.929 . S
C108 O98 1.282 . S
C108 O109 1.216 . S
O109 C108 1.216 . S
H110 C105 0.930 . S
H111 C106 0.930 . S
O112 Cu92 1.959 1_566 S
O112 C99 1.251 . S
H113 C96 0.930 . S
H114 C107 0.929 . S
Cu115 N116 1.999 1_454 S
Cu115 O121 1.974 1_455 S
Cu115 N126 1.985 . S
Cu115 O135 1.959 1_554 S
N116 Cu115 1.999 1_656 S
N116 C118 1.263 . S
N116 C120 1.389 . S
N117 C118 1.358 . S
N117 C119 1.400 . S
C118 N116 1.263 . S
C118 N117 1.358 . S
C118 H124 0.930 . S
C119 N117 1.400 . S
C119 C120 1.351 . S
C119 H136 0.930 . S
C120 N116 1.389 . S
C120 C119 1.351 . S
C120 H125 0.930 1_655 S
O121 Cu115 1.974 1_655 S
O121 C131 1.282 . S
C122 O123 1.261 . S
C122 O135 1.251 . S
O123 C122 1.261 . S
H124 C118 0.930 . S
H125 C120 0.930 1_455 S
N126 Cu115 1.985 . S
N126 C128 1.335 . S
N126 C129 1.390 . S
N127 C128 1.345 . S
N127 C130 1.336 . S
C128 N126 1.335 . S
C128 N127 1.345 . S
C128 H133 0.930 . S
C129 N126 1.390 . S
C129 C130 1.346 . S
C129 H134 0.930 1_455 S
C130 N127 1.336 . S
C130 C129 1.346 . S
C130 H137 0.929 . S
C131 O121 1.282 . S
C131 O132 1.216 . S
O132 C131 1.216 . S
H133 C128 0.930 . S
H134 C129 0.930 1_655 S
O135 Cu115 1.959 1_556 S
O135 C122 1.251 . S
H136 C119 0.930 . S
H137 C130 0.929 . S
Cu138 N139 1.999 . S
Cu138 O144 1.974 . S
Cu138 N149 1.985 . S
Cu138 O158 1.959 . S
N139 Cu138 1.999 . S
N139 C141 1.263 . S
N139 C143 1.389 . S
N140 C141 1.358 . S
N140 C142 1.400 . S
C141 N139 1.263 . S
C141 N140 1.358 . S
C141 H147 0.930 . S
C142 N140 1.400 . S
C142 C143 1.351 . S
C142 H159 0.930 . S
C143 N139 1.389 . S
C143 C142 1.351 . S
C143 H148 0.930 . S
O144 Cu138 1.974 . S
O144 C154 1.282 . S
C145 O146 1.261 . S
C145 O158 1.251 . S
O146 C145 1.261 . S
H147 C141 0.930 . S
H148 C143 0.930 . S
N149 Cu138 1.985 . S
N149 C151 1.335 . S
N149 C152 1.390 . S
N150 C151 1.345 . S
N150 C153 1.336 . S
C151 N149 1.335 . S
C151 N150 1.345 . S
C151 H156 0.930 . S
C152 N149 1.390 . S
C152 C153 1.346 . S
C152 H157 0.930 . S
C153 N150 1.336 . S
C153 C152 1.346 . S
C153 H160 0.929 . S
C154 O144 1.282 . S
C154 O155 1.216 . S
O155 C154 1.216 . S
H156 C151 0.930 . S
H157 C152 0.930 . S
O158 Cu138 1.959 . S
O158 C145 1.251 . S
H159 C142 0.930 . S
H160 C153 0.929 . S
Cu161 N162 1.999 . S
Cu161 O167 1.974 . S
Cu161 N172 1.985 . S
Cu161 O181 1.959 . S
N162 Cu161 1.999 . S
N162 C164 1.263 . S
N162 C166 1.389 . S
N163 C164 1.358 . S
N163 C165 1.400 . S
C164 N162 1.263 . S
C164 N163 1.358 . S
C164 H170 0.930 . S
C165 N163 1.400 . S
C165 C166 1.351 . S
C165 H182 0.930 . S
C166 N162 1.389 . S
C166 C165 1.351 . S
C166 H171 0.930 . S
O167 Cu161 1.974 . S
O167 C177 1.282 . S
C168 O169 1.261 . S
C168 O181 1.251 . S
O169 C168 1.261 . S
H170 C164 0.930 . S
H171 C166 0.930 . S
N172 Cu161 1.985 . S
N172 C174 1.335 . S
N172 C175 1.390 . S
N173 C174 1.345 . S
N173 C176 1.336 . S
C174 N172 1.335 . S
C174 N173 1.345 . S
C174 H179 0.930 . S
C175 N172 1.390 . S
C175 C176 1.346 . S
C175 H180 0.930 . S
C176 N173 1.336 . S
C176 C175 1.346 . S
C176 H183 0.929 . S
C177 O167 1.282 . S
C177 O178 1.216 . S
O178 C177 1.216 . S
H179 C174 0.930 . S
H180 C175 0.930 . S
O181 Cu161 1.959 . S
O181 C168 1.251 . S
H182 C165 0.930 . S
H183 C176 0.929 . S
Cu184 N185 1.999 . S
Cu184 O190 1.974 . S
Cu184 N195 1.985 . S
Cu184 O204 1.959 . S
N185 Cu184 1.999 . S
N185 C187 1.263 . S
N185 C189 1.389 . S
N186 C187 1.358 . S
N186 C188 1.400 . S
C187 N185 1.263 . S
C187 N186 1.358 . S
C187 H193 0.930 . S
C188 N186 1.400 . S
C188 C189 1.351 . S
C188 H205 0.930 . S
C189 N185 1.389 . S
C189 C188 1.351 . S
C189 H194 0.930 . S
O190 Cu184 1.974 . S
O190 C200 1.282 . S
C191 O192 1.261 . S
C191 O204 1.251 . S
O192 C191 1.261 . S
H193 C187 0.930 . S
H194 C189 0.930 . S
N195 Cu184 1.985 . S
N195 C197 1.335 . S
N195 C198 1.390 . S
N196 C197 1.345 . S
N196 C199 1.336 . S
C197 N195 1.335 . S
C197 N196 1.345 . S
C197 H202 0.930 . S
C198 N195 1.390 . S
C198 C199 1.346 . S
C198 H203 0.930 . S
C199 N196 1.336 . S
C199 C198 1.346 . S
C199 H206 0.929 . S
C200 O190 1.282 . S
C200 O201 1.216 . S
O201 C200 1.216 . S
H202 C197 0.930 . S
H203 C198 0.930 . S
O204 Cu184 1.959 . S
O204 C191 1.251 . S
H205 C188 0.930 . S
H206 C199 0.929 . S
Cu207 N208 1.999 . S
Cu207 O213 1.974 . S
Cu207 N218 1.985 . S
Cu207 O227 1.959 . S
N208 Cu207 1.999 . S
N208 C210 1.263 . S
N208 C212 1.389 . S
N209 C210 1.358 . S
N209 C211 1.400 . S
C210 N208 1.263 . S
C210 N209 1.358 . S
C210 H216 0.930 . S
C211 N209 1.400 . S
C211 C212 1.351 . S
C211 H228 0.930 . S
C212 N208 1.389 . S
C212 C211 1.351 . S
C212 H217 0.930 . S
O213 Cu207 1.974 . S
O213 C223 1.282 . S
C214 O215 1.261 . S
C214 O227 1.251 . S
O215 C214 1.261 . S
H216 C210 0.930 . S
H217 C212 0.930 . S
N218 Cu207 1.985 . S
N218 C220 1.335 . S
N218 C221 1.390 . S
N219 C220 1.345 . S
N219 C222 1.336 . S
C220 N218 1.335 . S
C220 N219 1.345 . S
C220 H225 0.930 . S
C221 N218 1.390 . S
C221 C222 1.346 . S
C221 H226 0.930 . S
C222 N219 1.336 . S
C222 C221 1.346 . S
C222 H229 0.929 . S
C223 O213 1.282 . S
C223 O224 1.216 . S
O224 C223 1.216 . S
H225 C220 0.930 . S
H226 C221 0.930 . S
O227 Cu207 1.959 . S
O227 C214 1.251 . S
H228 C211 0.930 . S
H229 C222 0.929 . S
Cu230 N231 1.999 . S
Cu230 O236 1.974 . S
Cu230 N241 1.985 . S
Cu230 O250 1.959 . S
N231 Cu230 1.999 . S
N231 C233 1.263 . S
N231 C235 1.389 . S
N232 C233 1.358 . S
N232 C234 1.400 . S
C233 N231 1.263 . S
C233 N232 1.358 . S
C233 H239 0.930 . S
C234 N232 1.400 . S
C234 C235 1.351 . S
C234 H251 0.930 . S
C235 N231 1.389 . S
C235 C234 1.351 . S
C235 H240 0.930 . S
O236 Cu230 1.974 . S
O236 C246 1.282 . S
C237 O238 1.261 . S
C237 O250 1.251 . S
O238 C237 1.261 . S
H239 C233 0.930 . S
H240 C235 0.930 . S
N241 Cu230 1.985 . S
N241 C243 1.335 . S
N241 C244 1.390 . S
N242 C243 1.345 . S
N242 C245 1.336 . S
C243 N241 1.335 . S
C243 N242 1.345 . S
C243 H248 0.930 . S
C244 N241 1.390 . S
C244 C245 1.346 . S
C244 H249 0.930 . S
C245 N242 1.336 . S
C245 C244 1.346 . S
C245 H252 0.929 . S
C246 O236 1.282 . S
C246 O247 1.216 . S
O247 C246 1.216 . S
H248 C243 0.930 . S
H249 C244 0.930 . S
O250 Cu230 1.959 . S
O250 C237 1.251 . S
H251 C234 0.930 . S
H252 C245 0.929 . S
Cu253 N254 1.999 . S
Cu253 O259 1.974 . S
Cu253 N264 1.985 . S
Cu253 O273 1.959 . S
N254 Cu253 1.999 . S
N254 C256 1.263 . S
N254 C258 1.389 . S
N255 C256 1.358 . S
N255 C257 1.400 . S
C256 N254 1.263 . S
C256 N255 1.358 . S
C256 H262 0.930 . S
C257 N255 1.400 . S
C257 C258 1.351 . S
C257 H274 0.930 . S
C258 N254 1.389 . S
C258 C257 1.351 . S
C258 H263 0.930 . S
O259 Cu253 1.974 . S
O259 C269 1.282 . S
C260 O261 1.261 . S
C260 O273 1.251 . S
O261 C260 1.261 . S
H262 C256 0.930 . S
H263 C258 0.930 . S
N264 Cu253 1.985 . S
N264 C266 1.335 . S
N264 C267 1.390 . S
N265 C266 1.345 . S
N265 C268 1.336 . S
C266 N264 1.335 . S
C266 N265 1.345 . S
C266 H271 0.930 . S
C267 N264 1.390 . S
C267 C268 1.346 . S
C267 H272 0.930 . S
C268 N265 1.336 . S
C268 C267 1.346 . S
C268 H275 0.929 . S
C269 O259 1.282 . S
C269 O270 1.216 . S
O270 C269 1.216 . S
H271 C266 0.930 . S
H272 C267 0.930 . S
O273 Cu253 1.959 . S
O273 C260 1.251 . S
H274 C257 0.930 . S
H275 C268 0.929 . S
Tb276 N307 2.660 . S
Tb276 N314 2.600 . S
Tb276 O320 2.546 . S
Tb276 O321 2.610 . S
Tb276 O323 2.320 . S
Tb276 O324 2.552 . S
Tb276 O325 2.413 . S
Tb276 O327 2.362 . S
Tb276 O328 2.421 . S
Tb276 C340 2.833 . S
C277 C280 1.432 . S
C277 C281 1.414 . S
C277 N284 1.359 . S
C278 C280 1.417 . S
C278 C282 1.432 . S
C278 C290 1.410 . S
C279 C281 1.444 . S
C279 C282 1.317 . S
C279 H302 0.929 . S
C280 C277 1.432 . S
C280 C278 1.417 . S
C280 N288 1.360 . S
C281 C277 1.414 . S
C281 C279 1.444 . S
C281 C286 1.385 . S
C282 C278 1.432 . S
C282 C279 1.317 . S
C282 H294 0.930 . S
C283 C285 1.392 . S
C283 C286 1.370 . S
C283 H295 0.931 . S
N284 C277 1.359 . S
N284 C285 1.327 . S
N284 Tb287 2.600 . S
C285 C283 1.392 . S
C285 N284 1.327 . S
C285 H292 0.930 . S
C286 C281 1.385 . S
C286 C283 1.370 . S
C286 H305 0.930 . S
Tb287 N284 2.600 . S
Tb287 N288 2.660 . S
Tb287 O321 2.362 . S
Tb287 O322 2.421 . S
Tb287 O326 2.546 . S
Tb287 O327 2.610 . S
Tb287 O329 2.320 . S
Tb287 O330 2.552 . S
Tb287 O331 2.413 . S
Tb287 C351 2.833 . S
N288 C280 1.360 . S
N288 Tb287 2.660 . S
N288 C289 1.305 . S
C289 N288 1.305 . S
C289 C291 1.407 . S
C289 H296 0.930 . S
C290 C278 1.410 . S
C290 C291 1.345 . S
C290 H298 0.930 . S
C291 C289 1.407 . S
C291 C290 1.345 . S
C291 H293 0.930 . S
H292 C285 0.930 . S
H293 C291 0.930 . S
H294 C282 0.930 . S
H295 C283 0.931 . S
H296 C289 0.930 . S
H297 C311 0.930 . S
H298 C290 0.930 . S
H299 C317 0.930 . S
H300 C308 0.930 . S
H301 C315 0.931 . S
H302 C279 0.929 . S
H303 C309 0.930 . S
H304 C342 0.930 . S
H305 C286 0.930 . S
H306 C341 0.929 . S
N307 Tb276 2.660 . S
N307 C308 1.305 . S
N307 C312 1.360 . S
C308 H300 0.930 . S
C308 N307 1.305 . S
C308 C311 1.407 . S
C309 H303 0.930 . S
C309 C310 1.410 . S
C309 C311 1.345 . S
C310 C309 1.410 . S
C310 C312 1.417 . S
C310 C342 1.432 . S
C311 H297 0.930 . S
C311 C308 1.407 . S
C311 C309 1.345 . S
C312 N307 1.360 . S
C312 C310 1.417 . S
C312 C316 1.432 . S
H313 C318 0.930 . S
N314 Tb276 2.600 . S
N314 C316 1.359 . S
N314 C317 1.327 . S
C315 H301 0.931 . S
C315 C317 1.392 . S
C315 C318 1.370 . S
C316 C312 1.432 . S
C316 N314 1.359 . S
C316 C319 1.414 . S
C317 H299 0.930 . S
C317 N314 1.327 . S
C317 C315 1.392 . S
C318 H313 0.930 . S
C318 C315 1.370 . S
C318 C319 1.385 . S
C319 C316 1.414 . S
C319 C318 1.385 . S
C319 C341 1.444 . S
O320 Tb276 2.546 . S
O320 C340 1.251 . S
O321 Tb276 2.610 . S
O321 Tb287 2.362 . S
O321 C332 1.283 . S
O322 Tb287 2.421 . S
O322 C339 1.262 . S
O323 Tb276 2.320 . S
O323 C339 1.260 . S
O324 Tb276 2.552 . S
O324 C332 1.243 . S
O325 Tb276 2.413 . S
O325 C340 1.256 . S
O326 Tb287 2.546 . S
O326 C351 1.251 . S
O327 Tb276 2.362 . S
O327 Tb287 2.610 . S
O327 C343 1.283 . S
O328 Tb276 2.421 . S
O328 C350 1.262 . S
O329 Tb287 2.320 . S
O329 C350 1.260 . S
O330 Tb287 2.552 . S
O330 C343 1.243 . S
O331 Tb287 2.413 . S
O331 C351 1.256 . S
C332 O321 1.283 . S
C332 O324 1.243 . S
C333 C335 1.382 . S
C333 C337 1.393 . S
C333 C340 1.500 . S
C334 C335 1.400 . S
C334 C336 1.384 . S
C335 C333 1.382 . S
C335 C334 1.400 . S
C335 H352 0.930 . S
C336 C334 1.384 . S
C336 C338 1.392 . S
C336 H353 0.931 . S
C337 C333 1.393 . S
C337 C338 1.401 . S
C337 H354 0.930 . S
C338 C336 1.392 . S
C338 C337 1.401 . S
C338 H355 0.930 . S
C339 O322 1.262 . S
C339 O323 1.260 . S
C340 Tb276 2.833 . S
C340 O320 1.251 . S
C340 O325 1.256 . S
C340 C333 1.500 . S
C341 H306 0.929 . S
C341 C319 1.444 . S
C341 C342 1.317 . S
C342 H304 0.930 . S
C342 C310 1.432 . S
C342 C341 1.317 . S
C343 O327 1.283 . S
C343 O330 1.243 . S
C344 C345 1.382 . S
C344 C348 1.393 . S
C344 C351 1.500 . S
C345 C344 1.382 . S
C345 C346 1.400 . S
C345 H356 0.930 . S
C346 C345 1.400 . S
C346 C347 1.384 . S
C347 C346 1.384 . S
C347 C349 1.392 . S
C347 H357 0.931 . S
C348 C344 1.393 . S
C348 C349 1.401 . S
C348 H358 0.930 . S
C349 C347 1.392 . S
C349 C348 1.401 . S
C349 H359 0.930 . S
C350 O328 1.262 . S
C350 O329 1.260 . S
C351 Tb287 2.833 . S
C351 O326 1.251 . S
C351 O331 1.256 . S
C351 C344 1.500 . S
H352 C335 0.930 . S
H353 C336 0.931 . S
H354 C337 0.930 . S
H355 C338 0.930 . S
H356 C345 0.930 . S
H357 C347 0.931 . S
H358 C348 0.930 . S
H359 C349 0.930 . S
Tb360 N391 2.660 . S
Tb360 N398 2.600 . S
Tb360 O404 2.546 . S
Tb360 O405 2.610 . S
Tb360 O407 2.320 . S
Tb360 O408 2.552 . S
Tb360 O409 2.413 . S
Tb360 O411 2.362 . S
Tb360 O412 2.421 . S
Tb360 C424 2.833 . S
C361 C364 1.432 . S
C361 C365 1.414 . S
C361 N368 1.359 . S
C362 C364 1.417 . S
C362 C366 1.432 . S
C362 C374 1.410 . S
C363 C365 1.444 . S
C363 C366 1.317 . S
C363 H386 0.929 . S
C364 C361 1.432 . S
C364 C362 1.417 . S
C364 N372 1.360 . S
C365 C361 1.414 . S
C365 C363 1.444 . S
C365 C370 1.385 . S
C366 C362 1.432 . S
C366 C363 1.317 . S
C366 H378 0.930 . S
C367 C369 1.392 . S
C367 C370 1.370 . S
C367 H379 0.931 . S
N368 C361 1.359 . S
N368 C369 1.327 . S
N368 Tb371 2.600 . S
C369 C367 1.392 . S
C369 N368 1.327 . S
C369 H376 0.930 . S
C370 C365 1.385 . S
C370 C367 1.370 . S
C370 H389 0.930 . S
Tb371 N368 2.600 . S
Tb371 N372 2.660 . S
Tb371 O405 2.362 . S
Tb371 O406 2.421 . S
Tb371 O410 2.546 . S
Tb371 O411 2.610 . S
Tb371 O413 2.320 . S
Tb371 O414 2.552 . S
Tb371 O415 2.413 . S
Tb371 C435 2.833 . S
N372 C364 1.360 . S
N372 Tb371 2.660 . S
N372 C373 1.305 . S
C373 N372 1.305 . S
C373 C375 1.407 . S
C373 H380 0.930 . S
C374 C362 1.410 . S
C374 C375 1.345 . S
C374 H382 0.930 . S
C375 C373 1.407 . S
C375 C374 1.345 . S
C375 H377 0.930 . S
H376 C369 0.930 . S
H377 C375 0.930 . S
H378 C366 0.930 . S
H379 C367 0.931 . S
H380 C373 0.930 . S
H381 C395 0.930 . S
H382 C374 0.930 . S
H383 C401 0.930 . S
H384 C392 0.930 . S
H385 C399 0.931 . S
H386 C363 0.929 . S
H387 C393 0.930 . S
H388 C426 0.930 . S
H389 C370 0.930 . S
H390 C425 0.929 . S
N391 Tb360 2.660 . S
N391 C392 1.305 . S
N391 C396 1.360 . S
C392 H384 0.930 . S
C392 N391 1.305 . S
C392 C395 1.407 . S
C393 H387 0.930 . S
C393 C394 1.410 . S
C393 C395 1.345 . S
C394 C393 1.410 . S
C394 C396 1.417 . S
C394 C426 1.432 . S
C395 H381 0.930 . S
C395 C392 1.407 . S
C395 C393 1.345 . S
C396 N391 1.360 . S
C396 C394 1.417 . S
C396 C400 1.432 . S
H397 C402 0.930 . S
N398 Tb360 2.600 . S
N398 C400 1.359 . S
N398 C401 1.327 . S
C399 H385 0.931 . S
C399 C401 1.392 . S
C399 C402 1.370 . S
C400 C396 1.432 . S
C400 N398 1.359 . S
C400 C403 1.414 . S
C401 H383 0.930 . S
C401 N398 1.327 . S
C401 C399 1.392 . S
C402 H397 0.930 . S
C402 C399 1.370 . S
C402 C403 1.385 . S
C403 C400 1.414 . S
C403 C402 1.385 . S
C403 C425 1.444 . S
O404 Tb360 2.546 . S
O404 C424 1.251 . S
O405 Tb360 2.610 . S
O405 Tb371 2.362 . S
O405 C416 1.283 . S
O406 Tb371 2.421 . S
O406 C423 1.262 . S
O407 Tb360 2.320 . S
O407 C423 1.260 . S
O408 Tb360 2.552 . S
O408 C416 1.243 . S
O409 Tb360 2.413 . S
O409 C424 1.256 . S
O410 Tb371 2.546 . S
O410 C435 1.251 . S
O411 Tb360 2.362 . S
O411 Tb371 2.610 . S
O411 C427 1.283 . S
O412 Tb360 2.421 . S
O412 C434 1.262 . S
O413 Tb371 2.320 . S
O413 C434 1.260 . S
O414 Tb371 2.552 . S
O414 C427 1.243 . S
O415 Tb371 2.413 . S
O415 C435 1.256 . S
C416 O405 1.283 . S
C416 O408 1.243 . S
C417 C419 1.382 . S
C417 C421 1.393 . S
C417 C424 1.500 . S
C418 C419 1.400 . S
C418 C420 1.384 . S
C419 C417 1.382 . S
C419 C418 1.400 . S
C419 H436 0.930 . S
C420 C418 1.384 . S
C420 C422 1.392 . S
C420 H437 0.931 . S
C421 C417 1.393 . S
C421 C422 1.401 . S
C421 H438 0.930 . S
C422 C420 1.392 . S
C422 C421 1.401 . S
C422 H439 0.930 . S
C423 O406 1.262 . S
C423 O407 1.260 . S
C424 Tb360 2.833 . S
C424 O404 1.251 . S
C424 O409 1.256 . S
C424 C417 1.500 . S
C425 H390 0.929 . S
C425 C403 1.444 . S
C425 C426 1.317 . S
C426 H388 0.930 . S
C426 C394 1.432 . S
C426 C425 1.317 . S
C427 O411 1.283 . S
C427 O414 1.243 . S
C428 C429 1.382 . S
C428 C432 1.393 . S
C428 C435 1.500 . S
C429 C428 1.382 . S
C429 C430 1.400 . S
C429 H440 0.930 . S
C430 C429 1.400 . S
C430 C431 1.384 . S
C431 C430 1.384 . S
C431 C433 1.392 . S
C431 H441 0.931 . S
C432 C428 1.393 . S
C432 C433 1.401 . S
C432 H442 0.930 . S
C433 C431 1.392 . S
C433 C432 1.401 . S
C433 H443 0.930 . S
C434 O412 1.262 . S
C434 O413 1.260 . S
C435 Tb371 2.833 . S
C435 O410 1.251 . S
C435 O415 1.256 . S
C435 C428 1.500 . S
H436 C419 0.930 . S
H437 C420 0.931 . S
H438 C421 0.930 . S
H439 C422 0.930 . S
H440 C429 0.930 . S
H441 C431 0.931 . S
H442 C432 0.930 . S
H443 C433 0.930 . S
Tb444 N475 2.660 . S
Tb444 N482 2.600 . S
Tb444 O488 2.546 . S
Tb444 O489 2.610 . S
Tb444 O491 2.320 . S
Tb444 O492 2.552 . S
Tb444 O493 2.413 . S
Tb444 O495 2.362 . S
Tb444 O496 2.421 . S
Tb444 C508 2.833 . S
C445 C448 1.432 . S
C445 C449 1.414 . S
C445 N452 1.359 . S
C446 C448 1.417 . S
C446 C450 1.432 . S
C446 C458 1.410 . S
C447 C449 1.444 . S
C447 C450 1.317 . S
C447 H470 0.929 . S
C448 C445 1.432 . S
C448 C446 1.417 . S
C448 N456 1.360 . S
C449 C445 1.414 . S
C449 C447 1.444 . S
C449 C454 1.385 . S
C450 C446 1.432 . S
C450 C447 1.317 . S
C450 H462 0.930 . S
C451 C453 1.392 . S
C451 C454 1.370 . S
C451 H463 0.931 . S
N452 C445 1.359 . S
N452 C453 1.327 . S
N452 Tb455 2.600 . S
C453 C451 1.392 . S
C453 N452 1.327 . S
C453 H460 0.930 . S
C454 C449 1.385 . S
C454 C451 1.370 . S
C454 H473 0.930 . S
Tb455 N452 2.600 . S
Tb455 N456 2.660 . S
Tb455 O489 2.362 . S
Tb455 O490 2.421 . S
Tb455 O494 2.546 . S
Tb455 O495 2.610 . S
Tb455 O497 2.320 . S
Tb455 O498 2.552 . S
Tb455 O499 2.413 . S
Tb455 C519 2.833 . S
N456 C448 1.360 . S
N456 Tb455 2.660 . S
N456 C457 1.305 . S
C457 N456 1.305 . S
C457 C459 1.407 . S
C457 H464 0.930 . S
C458 C446 1.410 . S
C458 C459 1.345 . S
C458 H466 0.930 . S
C459 C457 1.407 . S
C459 C458 1.345 . S
C459 H461 0.930 . S
H460 C453 0.930 . S
H461 C459 0.930 . S
H462 C450 0.930 . S
H463 C451 0.931 . S
H464 C457 0.930 . S
H465 C479 0.930 . S
H466 C458 0.930 . S
H467 C485 0.930 . S
H468 C476 0.930 . S
H469 C483 0.931 . S
H470 C447 0.929 . S
H471 C477 0.930 . S
H472 C510 0.930 . S
H473 C454 0.930 . S
H474 C509 0.929 . S
N475 Tb444 2.660 . S
N475 C476 1.305 . S
N475 C480 1.360 . S
C476 H468 0.930 . S
C476 N475 1.305 . S
C476 C479 1.407 . S
C477 H471 0.930 . S
C477 C478 1.410 . S
C477 C479 1.345 . S
C478 C477 1.410 . S
C478 C480 1.417 . S
C478 C510 1.432 . S
C479 H465 0.930 . S
C479 C476 1.407 . S
C479 C477 1.345 . S
C480 N475 1.360 . S
C480 C478 1.417 . S
C480 C484 1.432 . S
H481 C486 0.930 . S
N482 Tb444 2.600 . S
N482 C484 1.359 . S
N482 C485 1.327 . S
C483 H469 0.931 . S
C483 C485 1.392 . S
C483 C486 1.370 . S
C484 C480 1.432 . S
C484 N482 1.359 . S
C484 C487 1.414 . S
C485 H467 0.930 . S
C485 N482 1.327 . S
C485 C483 1.392 . S
C486 H481 0.930 . S
C486 C483 1.370 . S
C486 C487 1.385 . S
C487 C484 1.414 . S
C487 C486 1.385 . S
C487 C509 1.444 . S
O488 Tb444 2.546 . S
O488 C508 1.251 . S
O489 Tb444 2.610 . S
O489 Tb455 2.362 . S
O489 C500 1.283 . S
O490 Tb455 2.421 . S
O490 C507 1.262 . S
O491 Tb444 2.320 . S
O491 C507 1.260 . S
O492 Tb444 2.552 . S
O492 C500 1.243 . S
O493 Tb444 2.413 . S
O493 C508 1.256 . S
O494 Tb455 2.546 . S
O494 C519 1.251 . S
O495 Tb444 2.362 . S
O495 Tb455 2.610 . S
O495 C511 1.283 . S
O496 Tb444 2.421 . S
O496 C518 1.262 . S
O497 Tb455 2.320 . S
O497 C518 1.260 . S
O498 Tb455 2.552 . S
O498 C511 1.243 . S
O499 Tb455 2.413 . S
O499 C519 1.256 . S
C500 O489 1.283 . S
C500 O492 1.243 . S
C501 C503 1.382 . S
C501 C505 1.393 . S
C501 C508 1.500 . S
C502 C503 1.400 . S
C502 C504 1.384 . S
C503 C501 1.382 . S
C503 C502 1.400 . S
C503 H520 0.930 . S
C504 C502 1.384 . S
C504 C506 1.392 . S
C504 H521 0.931 . S
C505 C501 1.393 . S
C505 C506 1.401 . S
C505 H522 0.930 . S
C506 C504 1.392 . S
C506 C505 1.401 . S
C506 H523 0.930 . S
C507 O490 1.262 . S
C507 O491 1.260 . S
C508 Tb444 2.833 . S
C508 O488 1.251 . S
C508 O493 1.256 . S
C508 C501 1.500 . S
C509 H474 0.929 . S
C509 C487 1.444 . S
C509 C510 1.317 . S
C510 H472 0.930 . S
C510 C478 1.432 . S
C510 C509 1.317 . S
C511 O495 1.283 . S
C511 O498 1.243 . S
C512 C513 1.382 . S
C512 C516 1.393 . S
C512 C519 1.500 . S
C513 C512 1.382 . S
C513 C514 1.400 . S
C513 H524 0.930 . S
C514 C513 1.400 . S
C514 C515 1.384 . S
C515 C514 1.384 . S
C515 C517 1.392 . S
C515 H525 0.931 . S
C516 C512 1.393 . S
C516 C517 1.401 . S
C516 H526 0.930 . S
C517 C515 1.392 . S
C517 C516 1.401 . S
C517 H527 0.930 . S
C518 O496 1.262 . S
C518 O497 1.260 . S
C519 Tb455 2.833 . S
C519 O494 1.251 . S
C519 O499 1.256 . S
C519 C512 1.500 . S
H520 C503 0.930 . S
H521 C504 0.931 . S
H522 C505 0.930 . S
H523 C506 0.930 . S
H524 C513 0.930 . S
H525 C515 0.931 . S
H526 C516 0.930 . S
H527 C517 0.930 . S
Tb528 N559 2.660 . S
Tb528 N566 2.600 . S
Tb528 O572 2.546 . S
Tb528 O573 2.610 . S
Tb528 O575 2.320 . S
Tb528 O576 2.552 . S
Tb528 O577 2.413 . S
Tb528 O579 2.362 . S
Tb528 O580 2.421 . S
Tb528 C592 2.833 . S
C529 C532 1.432 . S
C529 C533 1.414 . S
C529 N536 1.359 . S
C530 C532 1.417 . S
C530 C534 1.432 . S
C530 C542 1.410 . S
C531 C533 1.444 . S
C531 C534 1.317 . S
C531 H554 0.929 . S
C532 C529 1.432 . S
C532 C530 1.417 . S
C532 N540 1.360 . S
C533 C529 1.414 . S
C533 C531 1.444 . S
C533 C538 1.385 . S
C534 C530 1.432 . S
C534 C531 1.317 . S
C534 H546 0.930 . S
C535 C537 1.392 . S
C535 C538 1.370 . S
C535 H547 0.931 . S
N536 C529 1.359 . S
N536 C537 1.327 . S
N536 Tb539 2.600 . S
C537 C535 1.392 . S
C537 N536 1.327 . S
C537 H544 0.930 . S
C538 C533 1.385 . S
C538 C535 1.370 . S
C538 H557 0.930 . S
Tb539 N536 2.600 . S
Tb539 N540 2.660 . S
Tb539 O573 2.362 . S
Tb539 O574 2.421 . S
Tb539 O578 2.546 . S
Tb539 O579 2.610 . S
Tb539 O581 2.320 . S
Tb539 O582 2.552 . S
Tb539 O583 2.413 . S
Tb539 C603 2.833 . S
N540 C532 1.360 . S
N540 Tb539 2.660 . S
N540 C541 1.305 . S
C541 N540 1.305 . S
C541 C543 1.407 . S
C541 H548 0.930 . S
C542 C530 1.410 . S
C542 C543 1.345 . S
C542 H550 0.930 . S
C543 C541 1.407 . S
C543 C542 1.345 . S
C543 H545 0.930 . S
H544 C537 0.930 . S
H545 C543 0.930 . S
H546 C534 0.930 . S
H547 C535 0.931 . S
H548 C541 0.930 . S
H549 C563 0.930 . S
H550 C542 0.930 . S
H551 C569 0.930 . S
H552 C560 0.930 . S
H553 C567 0.931 . S
H554 C531 0.929 . S
H555 C561 0.930 . S
H556 C594 0.930 . S
H557 C538 0.930 . S
H558 C593 0.929 . S
N559 Tb528 2.660 . S
N559 C560 1.305 . S
N559 C564 1.360 . S
C560 H552 0.930 . S
C560 N559 1.305 . S
C560 C563 1.407 . S
C561 H555 0.930 . S
C561 C562 1.410 . S
C561 C563 1.345 . S
C562 C561 1.410 . S
C562 C564 1.417 . S
C562 C594 1.432 . S
C563 H549 0.930 . S
C563 C560 1.407 . S
C563 C561 1.345 . S
C564 N559 1.360 . S
C564 C562 1.417 . S
C564 C568 1.432 . S
H565 C570 0.930 . S
N566 Tb528 2.600 . S
N566 C568 1.359 . S
N566 C569 1.327 . S
C567 H553 0.931 . S
C567 C569 1.392 . S
C567 C570 1.370 . S
C568 C564 1.432 . S
C568 N566 1.359 . S
C568 C571 1.414 . S
C569 H551 0.930 . S
C569 N566 1.327 . S
C569 C567 1.392 . S
C570 H565 0.930 . S
C570 C567 1.370 . S
C570 C571 1.385 . S
C571 C568 1.414 . S
C571 C570 1.385 . S
C571 C593 1.444 . S
O572 Tb528 2.546 . S
O572 C592 1.251 . S
O573 Tb528 2.610 . S
O573 Tb539 2.362 . S
O573 C584 1.283 . S
O574 Tb539 2.421 . S
O574 C591 1.262 . S
O575 Tb528 2.320 . S
O575 C591 1.260 . S
O576 Tb528 2.552 . S
O576 C584 1.243 . S
O577 Tb528 2.413 . S
O577 C592 1.256 . S
O578 Tb539 2.546 . S
O578 C603 1.251 . S
O579 Tb528 2.362 . S
O579 Tb539 2.610 . S
O579 C595 1.283 . S
O580 Tb528 2.421 . S
O580 C602 1.262 . S
O581 Tb539 2.320 . S
O581 C602 1.260 . S
O582 Tb539 2.552 . S
O582 C595 1.243 . S
O583 Tb539 2.413 . S
O583 C603 1.256 . S
C584 O573 1.283 . S
C584 O576 1.243 . S
C585 C587 1.382 . S
C585 C589 1.393 . S
C585 C592 1.500 . S
C586 C587 1.400 . S
C586 C588 1.384 . S
C587 C585 1.382 . S
C587 C586 1.400 . S
C587 H604 0.930 . S
C588 C586 1.384 . S
C588 C590 1.392 . S
C588 H605 0.931 . S
C589 C585 1.393 . S
C589 C590 1.401 . S
C589 H606 0.930 . S
C590 C588 1.392 . S
C590 C589 1.401 . S
C590 H607 0.930 . S
C591 O574 1.262 . S
C591 O575 1.260 . S
C592 Tb528 2.833 . S
C592 O572 1.251 . S
C592 O577 1.256 . S
C592 C585 1.500 . S
C593 H558 0.929 . S
C593 C571 1.444 . S
C593 C594 1.317 . S
C594 H556 0.930 . S
C594 C562 1.432 . S
C594 C593 1.317 . S
C595 O579 1.283 . S
C595 O582 1.243 . S
C596 C597 1.382 . S
C596 C600 1.393 . S
C596 C603 1.500 . S
C597 C596 1.382 . S
C597 C598 1.400 . S
C597 H608 0.930 . S
C598 C597 1.400 . S
C598 C599 1.384 . S
C599 C598 1.384 . S
C599 C601 1.392 . S
C599 H609 0.931 . S
C600 C596 1.393 . S
C600 C601 1.401 . S
C600 H610 0.930 . S
C601 C599 1.392 . S
C601 C600 1.401 . S
C601 H611 0.930 . S
C602 O580 1.262 . S
C602 O581 1.260 . S
C603 Tb539 2.833 . S
C603 O578 1.251 . S
C603 O583 1.256 . S
C603 C596 1.500 . S
H604 C587 0.930 . S
H605 C588 0.931 . S
H606 C589 0.930 . S
H607 C590 0.930 . S
H608 C597 0.930 . S
H609 C599 0.931 . S
H610 C600 0.930 . S
H611 C601 0.930 . S
Tb612 N643 2.660 . S
Tb612 N650 2.600 . S
Tb612 O656 2.546 . S
Tb612 O657 2.610 . S
Tb612 O659 2.320 . S
Tb612 O660 2.552 . S
Tb612 O661 2.413 . S
Tb612 O663 2.362 . S
Tb612 O664 2.421 . S
Tb612 C676 2.833 . S
C613 C616 1.432 . S
C613 C617 1.414 . S
C613 N620 1.359 . S
C614 C616 1.417 . S
C614 C618 1.432 . S
C614 C626 1.410 . S
C615 C617 1.444 . S
C615 C618 1.317 . S
C615 H638 0.929 . S
C616 C613 1.432 . S
C616 C614 1.417 . S
C616 N624 1.360 . S
C617 C613 1.414 . S
C617 C615 1.444 . S
C617 C622 1.385 . S
C618 C614 1.432 . S
C618 C615 1.317 . S
C618 H630 0.930 . S
C619 C621 1.392 . S
C619 C622 1.370 . S
C619 H631 0.931 . S
N620 C613 1.359 . S
N620 C621 1.327 . S
N620 Tb623 2.600 . S
C621 C619 1.392 . S
C621 N620 1.327 . S
C621 H628 0.930 . S
C622 C617 1.385 . S
C622 C619 1.370 . S
C622 H641 0.930 . S
Tb623 N620 2.600 . S
Tb623 N624 2.660 . S
Tb623 O657 2.362 . S
Tb623 O658 2.421 . S
Tb623 O662 2.546 . S
Tb623 O663 2.610 . S
Tb623 O665 2.320 . S
Tb623 O666 2.552 . S
Tb623 O667 2.413 . S
Tb623 C687 2.833 . S
N624 C616 1.360 . S
N624 Tb623 2.660 . S
N624 C625 1.305 . S
C625 N624 1.305 . S
C625 C627 1.407 . S
C625 H632 0.930 . S
C626 C614 1.410 . S
C626 C627 1.345 . S
C626 H634 0.930 . S
C627 C625 1.407 . S
C627 C626 1.345 . S
C627 H629 0.930 . S
H628 C621 0.930 . S
H629 C627 0.930 . S
H630 C618 0.930 . S
H631 C619 0.931 . S
H632 C625 0.930 . S
H633 C647 0.930 . S
H634 C626 0.930 . S
H635 C653 0.930 . S
H636 C644 0.930 . S
H637 C651 0.931 . S
H638 C615 0.929 . S
H639 C645 0.930 . S
H640 C678 0.930 . S
H641 C622 0.930 . S
H642 C677 0.929 . S
N643 Tb612 2.660 . S
N643 C644 1.305 . S
N643 C648 1.360 . S
C644 H636 0.930 . S
C644 N643 1.305 . S
C644 C647 1.407 . S
C645 H639 0.930 . S
C645 C646 1.410 . S
C645 C647 1.345 . S
C646 C645 1.410 . S
C646 C648 1.417 . S
C646 C678 1.432 . S
C647 H633 0.930 . S
C647 C644 1.407 . S
C647 C645 1.345 . S
C648 N643 1.360 . S
C648 C646 1.417 . S
C648 C652 1.432 . S
H649 C654 0.930 . S
N650 Tb612 2.600 . S
N650 C652 1.359 . S
N650 C653 1.327 . S
C651 H637 0.931 . S
C651 C653 1.392 . S
C651 C654 1.370 . S
C652 C648 1.432 . S
C652 N650 1.359 . S
C652 C655 1.414 . S
C653 H635 0.930 . S
C653 N650 1.327 . S
C653 C651 1.392 . S
C654 H649 0.930 . S
C654 C651 1.370 . S
C654 C655 1.385 . S
C655 C652 1.414 . S
C655 C654 1.385 . S
C655 C677 1.444 . S
O656 Tb612 2.546 . S
O656 C676 1.251 . S
O657 Tb612 2.610 . S
O657 Tb623 2.362 . S
O657 C668 1.283 . S
O658 Tb623 2.421 . S
O658 C675 1.262 . S
O659 Tb612 2.320 . S
O659 C675 1.260 . S
O660 Tb612 2.552 . S
O660 C668 1.243 . S
O661 Tb612 2.413 . S
O661 C676 1.256 . S
O662 Tb623 2.546 . S
O662 C687 1.251 . S
O663 Tb612 2.362 . S
O663 Tb623 2.610 . S
O663 C679 1.283 . S
O664 Tb612 2.421 . S
O664 C686 1.262 . S
O665 Tb623 2.320 . S
O665 C686 1.260 . S
O666 Tb623 2.552 . S
O666 C679 1.243 . S
O667 Tb623 2.413 . S
O667 C687 1.256 . S
C668 O657 1.283 . S
C668 O660 1.243 . S
C669 C671 1.382 . S
C669 C673 1.393 . S
C669 C676 1.500 . S
C670 C671 1.400 . S
C670 C672 1.384 . S
C671 C669 1.382 . S
C671 C670 1.400 . S
C671 H688 0.930 . S
C672 C670 1.384 . S
C672 C674 1.392 . S
C672 H689 0.931 . S
C673 C669 1.393 . S
C673 C674 1.401 . S
C673 H690 0.930 . S
C674 C672 1.392 . S
C674 C673 1.401 . S
C674 H691 0.930 . S
C675 O658 1.262 . S
C675 O659 1.260 . S
C676 Tb612 2.833 . S
C676 O656 1.251 . S
C676 O661 1.256 . S
C676 C669 1.500 . S
C677 H642 0.929 . S
C677 C655 1.444 . S
C677 C678 1.317 . S
C678 H640 0.930 . S
C678 C646 1.432 . S
C678 C677 1.317 . S
C679 O663 1.283 . S
C679 O666 1.243 . S
C680 C681 1.382 . S
C680 C684 1.393 . S
C680 C687 1.500 . S
C681 C680 1.382 . S
C681 C682 1.400 . S
C681 H692 0.930 . S
C682 C681 1.400 . S
C682 C683 1.384 . S
C683 C682 1.384 . S
C683 C685 1.392 . S
C683 H693 0.931 . S
C684 C680 1.393 . S
C684 C685 1.401 . S
C684 H694 0.930 . S
C685 C683 1.392 . S
C685 C684 1.401 . S
C685 H695 0.930 . S
C686 O664 1.262 . S
C686 O665 1.260 . S
C687 Tb623 2.833 . S
C687 O662 1.251 . S
C687 O667 1.256 . S
C687 C680 1.500 . S
H688 C671 0.930 . S
H689 C672 0.931 . S
H690 C673 0.930 . S
H691 C674 0.930 . S
H692 C681 0.930 . S
H693 C683 0.931 . S
H694 C684 0.930 . S
H695 C685 0.930 . S
Tb696 N727 2.660 . S
Tb696 N734 2.600 . S
Tb696 O740 2.546 . S
Tb696 O741 2.610 . S
Tb696 O743 2.320 . S
Tb696 O744 2.552 . S
Tb696 O745 2.413 . S
Tb696 O747 2.362 . S
Tb696 O748 2.421 . S
Tb696 C760 2.833 . S
C697 C700 1.432 . S
C697 C701 1.414 . S
C697 N704 1.359 . S
C698 C700 1.417 . S
C698 C702 1.432 . S
C698 C710 1.410 . S
C699 C701 1.444 . S
C699 C702 1.317 . S
C699 H722 0.929 1_556 S
C700 C697 1.432 . S
C700 C698 1.417 . S
C700 N708 1.360 . S
C701 C697 1.414 . S
C701 C699 1.444 . S
C701 C706 1.385 . S
C702 C698 1.432 . S
C702 C699 1.317 . S
C702 H714 0.930 . S
C703 C705 1.392 . S
C703 C706 1.370 . S
C703 H715 0.931 . S
N704 C697 1.359 . S
N704 C705 1.327 . S
N704 Tb707 2.600 . S
C705 C703 1.392 . S
C705 N704 1.327 . S
C705 H712 0.930 . S
C706 C701 1.385 . S
C706 C703 1.370 . S
C706 H725 0.930 1_556 S
Tb707 N704 2.600 . S
Tb707 N708 2.660 . S
Tb707 O741 2.362 . S
Tb707 O742 2.421 . S
Tb707 O746 2.546 . S
Tb707 O747 2.610 . S
Tb707 O749 2.320 . S
Tb707 O750 2.552 . S
Tb707 O751 2.413 . S
Tb707 C771 2.833 . S
N708 C700 1.360 . S
N708 Tb707 2.660 . S
N708 C709 1.305 . S
C709 N708 1.305 . S
C709 C711 1.407 . S
C709 H716 0.930 . S
C710 C698 1.410 . S
C710 C711 1.345 . S
C710 H718 0.930 . S
C711 C709 1.407 . S
C711 C710 1.345 . S
C711 H713 0.930 . S
H712 C705 0.930 . S
H713 C711 0.930 . S
H714 C702 0.930 . S
H715 C703 0.931 . S
H716 C709 0.930 . S
H717 C731 0.930 . S
H718 C710 0.930 . S
H719 C737 0.930 . S
H720 C728 0.930 . S
H721 C735 0.931 . S
H722 C699 0.929 1_554 S
H723 C729 0.930 . S
H724 C762 0.930 . S
H725 C706 0.930 1_554 S
H726 C761 0.929 . S
N727 Tb696 2.660 . S
N727 C728 1.305 . S
N727 C732 1.360 . S
C728 H720 0.930 . S
C728 N727 1.305 . S
C728 C731 1.407 . S
C729 H723 0.930 . S
C729 C730 1.410 . S
C729 C731 1.345 . S
C730 C729 1.410 . S
C730 C732 1.417 . S
C730 C762 1.432 . S
C731 H717 0.930 . S
C731 C728 1.407 . S
C731 C729 1.345 . S
C732 N727 1.360 . S
C732 C730 1.417 . S
C732 C736 1.432 . S
H733 C738 0.930 . S
N734 Tb696 2.600 . S
N734 C736 1.359 . S
N734 C737 1.327 . S
C735 H721 0.931 . S
C735 C737 1.392 . S
C735 C738 1.370 . S
C736 C732 1.432 . S
C736 N734 1.359 . S
C736 C739 1.414 . S
C737 H719 0.930 . S
C737 N734 1.327 . S
C737 C735 1.392 . S
C738 H733 0.930 . S
C738 C735 1.370 . S
C738 C739 1.385 . S
C739 C736 1.414 . S
C739 C738 1.385 . S
C739 C761 1.444 . S
O740 Tb696 2.546 . S
O740 C760 1.251 . S
O741 Tb696 2.610 . S
O741 Tb707 2.362 . S
O741 C752 1.283 . S
O742 Tb707 2.421 . S
O742 C759 1.262 . S
O743 Tb696 2.320 . S
O743 C759 1.260 . S
O744 Tb696 2.552 . S
O744 C752 1.243 . S
O745 Tb696 2.413 . S
O745 C760 1.256 . S
O746 Tb707 2.546 . S
O746 C771 1.251 . S
O747 Tb696 2.362 . S
O747 Tb707 2.610 . S
O747 C763 1.283 . S
O748 Tb696 2.421 . S
O748 C770 1.262 . S
O749 Tb707 2.320 . S
O749 C770 1.260 . S
O750 Tb707 2.552 . S
O750 C763 1.243 . S
O751 Tb707 2.413 . S
O751 C771 1.256 . S
C752 O741 1.283 . S
C752 O744 1.243 . S
C753 C755 1.382 . S
C753 C757 1.393 . S
C753 C760 1.500 . S
C754 C755 1.400 . S
C754 C756 1.384 . S
C755 C753 1.382 . S
C755 C754 1.400 . S
C755 H772 0.930 . S
C756 C754 1.384 . S
C756 C758 1.392 . S
C756 H773 0.931 . S
C757 C753 1.393 . S
C757 C758 1.401 . S
C757 H774 0.930 . S
C758 C756 1.392 . S
C758 C757 1.401 . S
C758 H775 0.930 . S
C759 O742 1.262 . S
C759 O743 1.260 . S
C760 Tb696 2.833 . S
C760 O740 1.251 . S
C760 O745 1.256 . S
C760 C753 1.500 . S
C761 H726 0.929 . S
C761 C739 1.444 . S
C761 C762 1.317 . S
C762 H724 0.930 . S
C762 C730 1.432 . S
C762 C761 1.317 . S
C763 O747 1.283 . S
C763 O750 1.243 . S
C764 C765 1.382 . S
C764 C768 1.393 . S
C764 C771 1.500 . S
C765 C764 1.382 . S
C765 C766 1.400 . S
C765 H776 0.930 . S
C766 C765 1.400 . S
C766 C767 1.384 . S
C767 C766 1.384 . S
C767 C769 1.392 . S
C767 H777 0.931 . S
C768 C764 1.393 . S
C768 C769 1.401 . S
C768 H778 0.930 . S
C769 C767 1.392 . S
C769 C768 1.401 . S
C769 H779 0.930 . S
C770 O748 1.262 . S
C770 O749 1.260 . S
C771 Tb707 2.833 . S
C771 O746 1.251 . S
C771 O751 1.256 . S
C771 C764 1.500 . S
H772 C755 0.930 . S
H773 C756 0.931 . S
H774 C757 0.930 . S
H775 C758 0.930 . S
H776 C765 0.930 . S
H777 C767 0.931 . S
H778 C768 0.930 . S
H779 C769 0.930 . S
Tb780 N811 2.660 . S
Tb780 N818 2.600 . S
Tb780 O824 2.546 . S
Tb780 O825 2.610 . S
Tb780 O827 2.320 . S
Tb780 O828 2.552 . S
Tb780 O829 2.413 . S
Tb780 O831 2.362 . S
Tb780 O832 2.421 . S
Tb780 C844 2.833 . S
C781 C784 1.432 . S
C781 C785 1.414 . S
C781 N788 1.359 . S
C782 C784 1.417 . S
C782 C786 1.432 . S
C782 C794 1.410 . S
C783 C785 1.444 . S
C783 C786 1.317 . S
C783 H806 0.929 . S
C784 C781 1.432 . S
C784 C782 1.417 . S
C784 N792 1.360 . S
C785 C781 1.414 . S
C785 C783 1.444 . S
C785 C790 1.385 . S
C786 C782 1.432 . S
C786 C783 1.317 . S
C786 H798 0.930 . S
C787 C789 1.392 . S
C787 C790 1.370 . S
C787 H799 0.931 . S
N788 C781 1.359 . S
N788 C789 1.327 . S
N788 Tb791 2.600 . S
C789 C787 1.392 . S
C789 N788 1.327 . S
C789 H796 0.930 . S
C790 C785 1.385 . S
C790 C787 1.370 . S
C790 H809 0.930 . S
Tb791 N788 2.600 . S
Tb791 N792 2.660 . S
Tb791 O825 2.362 . S
Tb791 O826 2.421 . S
Tb791 O830 2.546 . S
Tb791 O831 2.610 . S
Tb791 O833 2.320 . S
Tb791 O834 2.552 . S
Tb791 O835 2.413 . S
Tb791 C855 2.833 . S
N792 C784 1.360 . S
N792 Tb791 2.660 . S
N792 C793 1.305 . S
C793 N792 1.305 . S
C793 C795 1.407 . S
C793 H800 0.930 . S
C794 C782 1.410 . S
C794 C795 1.345 . S
C794 H802 0.930 . S
C795 C793 1.407 . S
C795 C794 1.345 . S
C795 H797 0.930 . S
H796 C789 0.930 . S
H797 C795 0.930 . S
H798 C786 0.930 . S
H799 C787 0.931 . S
H800 C793 0.930 . S
H801 C815 0.930 . S
H802 C794 0.930 . S
H803 C821 0.930 . S
H804 C812 0.930 . S
H805 C819 0.931 . S
H806 C783 0.929 . S
H807 C813 0.930 . S
H808 C846 0.930 . S
H809 C790 0.930 . S
H810 C845 0.929 . S
N811 Tb780 2.660 . S
N811 C812 1.305 . S
N811 C816 1.360 . S
C812 H804 0.930 . S
C812 N811 1.305 . S
C812 C815 1.407 . S
C813 H807 0.930 . S
C813 C814 1.410 . S
C813 C815 1.345 . S
C814 C813 1.410 . S
C814 C816 1.417 . S
C814 C846 1.432 . S
C815 H801 0.930 . S
C815 C812 1.407 . S
C815 C813 1.345 . S
C816 N811 1.360 . S
C816 C814 1.417 . S
C816 C820 1.432 . S
H817 C822 0.930 . S
N818 Tb780 2.600 . S
N818 C820 1.359 . S
N818 C821 1.327 . S
C819 H805 0.931 . S
C819 C821 1.392 . S
C819 C822 1.370 . S
C820 C816 1.432 . S
C820 N818 1.359 . S
C820 C823 1.414 . S
C821 H803 0.930 . S
C821 N818 1.327 . S
C821 C819 1.392 . S
C822 H817 0.930 . S
C822 C819 1.370 . S
C822 C823 1.385 . S
C823 C820 1.414 . S
C823 C822 1.385 . S
C823 C845 1.444 . S
O824 Tb780 2.546 . S
O824 C844 1.251 . S
O825 Tb780 2.610 . S
O825 Tb791 2.362 . S
O825 C836 1.283 . S
O826 Tb791 2.421 . S
O826 C843 1.262 . S
O827 Tb780 2.320 . S
O827 C843 1.260 . S
O828 Tb780 2.552 . S
O828 C836 1.243 . S
O829 Tb780 2.413 . S
O829 C844 1.256 . S
O830 Tb791 2.546 . S
O830 C855 1.251 . S
O831 Tb780 2.362 . S
O831 Tb791 2.610 . S
O831 C847 1.283 . S
O832 Tb780 2.421 . S
O832 C854 1.262 . S
O833 Tb791 2.320 . S
O833 C854 1.260 . S
O834 Tb791 2.552 . S
O834 C847 1.243 . S
O835 Tb791 2.413 . S
O835 C855 1.256 . S
C836 O825 1.283 . S
C836 O828 1.243 . S
C837 C839 1.382 . S
C837 C841 1.393 . S
C837 C844 1.500 . S
C838 C839 1.400 . S
C838 C840 1.384 . S
C839 C837 1.382 . S
C839 C838 1.400 . S
C839 H856 0.930 . S
C840 C838 1.384 . S
C840 C842 1.392 . S
C840 H857 0.931 . S
C841 C837 1.393 . S
C841 C842 1.401 . S
C841 H858 0.930 . S
C842 C840 1.392 . S
C842 C841 1.401 . S
C842 H859 0.930 . S
C843 O826 1.262 . S
C843 O827 1.260 . S
C844 Tb780 2.833 . S
C844 O824 1.251 . S
C844 O829 1.256 . S
C844 C837 1.500 . S
C845 H810 0.929 . S
C845 C823 1.444 . S
C845 C846 1.317 . S
C846 H808 0.930 . S
C846 C814 1.432 . S
C846 C845 1.317 . S
C847 O831 1.283 . S
C847 O834 1.243 . S
C848 C849 1.382 . S
C848 C852 1.393 . S
C848 C855 1.500 . S
C849 C848 1.382 . S
C849 C850 1.400 . S
C849 H860 0.930 . S
C850 C849 1.400 . S
C850 C851 1.384 . S
C851 C850 1.384 . S
C851 C853 1.392 . S
C851 H861 0.931 . S
C852 C848 1.393 . S
C852 C853 1.401 . S
C852 H862 0.930 . S
C853 C851 1.392 . S
C853 C852 1.401 . S
C853 H863 0.930 . S
C854 O832 1.262 . S
C854 O833 1.260 . S
C855 Tb791 2.833 . S
C855 O830 1.251 . S
C855 O835 1.256 . S
C855 C848 1.500 . S
H856 C839 0.930 . S
H857 C840 0.931 . S
H858 C841 0.930 . S
H859 C842 0.930 . S
H860 C849 0.930 . S
H861 C851 0.931 . S
H862 C852 0.930 . S
H863 C853 0.930 . S
Tb864 N895 2.660 . S
Tb864 N902 2.600 . S
Tb864 O908 2.546 . S
Tb864 O909 2.610 . S
Tb864 O911 2.320 . S
Tb864 O912 2.552 . S
Tb864 O913 2.413 . S
Tb864 O915 2.362 . S
Tb864 O916 2.421 . S
Tb864 C928 2.833 . S
C865 C868 1.432 . S
C865 C869 1.414 . S
C865 N872 1.359 . S
C866 C868 1.417 . S
C866 C870 1.432 . S
C866 C878 1.410 . S
C867 C869 1.444 . S
C867 C870 1.317 . S
C867 H890 0.929 . S
C868 C865 1.432 . S
C868 C866 1.417 . S
C868 N876 1.360 . S
C869 C865 1.414 . S
C869 C867 1.444 . S
C869 C874 1.385 . S
C870 C866 1.432 . S
C870 C867 1.317 . S
C870 H882 0.930 . S
C871 C873 1.392 . S
C871 C874 1.370 . S
C871 H883 0.931 . S
N872 C865 1.359 . S
N872 C873 1.327 . S
N872 Tb875 2.600 . S
C873 C871 1.392 . S
C873 N872 1.327 . S
C873 H880 0.930 . S
C874 C869 1.385 . S
C874 C871 1.370 . S
C874 H893 0.930 . S
Tb875 N872 2.600 . S
Tb875 N876 2.660 . S
Tb875 O909 2.362 . S
Tb875 O910 2.421 . S
Tb875 O914 2.546 . S
Tb875 O915 2.610 . S
Tb875 O917 2.320 . S
Tb875 O918 2.552 . S
Tb875 O919 2.413 . S
Tb875 C939 2.833 . S
N876 C868 1.360 . S
N876 Tb875 2.660 . S
N876 C877 1.305 . S
C877 N876 1.305 . S
C877 C879 1.407 . S
C877 H884 0.930 . S
C878 C866 1.410 . S
C878 C879 1.345 . S
C878 H886 0.930 . S
C879 C877 1.407 . S
C879 C878 1.345 . S
C879 H881 0.930 . S
H880 C873 0.930 . S
H881 C879 0.930 . S
H882 C870 0.930 . S
H883 C871 0.931 . S
H884 C877 0.930 . S
H885 C899 0.930 . S
H886 C878 0.930 . S
H887 C905 0.930 . S
H888 C896 0.930 . S
H889 C903 0.931 . S
H890 C867 0.929 . S
H891 C897 0.930 . S
H892 C930 0.930 . S
H893 C874 0.930 . S
H894 C929 0.929 . S
N895 Tb864 2.660 . S
N895 C896 1.305 . S
N895 C900 1.360 . S
C896 H888 0.930 . S
C896 N895 1.305 . S
C896 C899 1.407 . S
C897 H891 0.930 . S
C897 C898 1.410 . S
C897 C899 1.345 . S
C898 C897 1.410 . S
C898 C900 1.417 . S
C898 C930 1.432 . S
C899 H885 0.930 . S
C899 C896 1.407 . S
C899 C897 1.345 . S
C900 N895 1.360 . S
C900 C898 1.417 . S
C900 C904 1.432 . S
H901 C906 0.930 . S
N902 Tb864 2.600 . S
N902 C904 1.359 . S
N902 C905 1.327 . S
C903 H889 0.931 . S
C903 C905 1.392 . S
C903 C906 1.370 . S
C904 C900 1.432 . S
C904 N902 1.359 . S
C904 C907 1.414 . S
C905 H887 0.930 . S
C905 N902 1.327 . S
C905 C903 1.392 . S
C906 H901 0.930 . S
C906 C903 1.370 . S
C906 C907 1.385 . S
C907 C904 1.414 . S
C907 C906 1.385 . S
C907 C929 1.444 . S
O908 Tb864 2.546 . S
O908 C928 1.251 . S
O909 Tb864 2.610 . S
O909 Tb875 2.362 . S
O909 C920 1.283 . S
O910 Tb875 2.421 . S
O910 C927 1.262 . S
O911 Tb864 2.320 . S
O911 C927 1.260 . S
O912 Tb864 2.552 . S
O912 C920 1.243 . S
O913 Tb864 2.413 . S
O913 C928 1.256 . S
O914 Tb875 2.546 . S
O914 C939 1.251 . S
O915 Tb864 2.362 . S
O915 Tb875 2.610 . S
O915 C931 1.283 . S
O916 Tb864 2.421 . S
O916 C938 1.262 . S
O917 Tb875 2.320 . S
O917 C938 1.260 . S
O918 Tb875 2.552 . S
O918 C931 1.243 . S
O919 Tb875 2.413 . S
O919 C939 1.256 . S
C920 O909 1.283 . S
C920 O912 1.243 . S
C921 C923 1.382 . S
C921 C925 1.393 . S
C921 C928 1.500 . S
C922 C923 1.400 . S
C922 C924 1.384 . S
C923 C921 1.382 . S
C923 C922 1.400 . S
C923 H940 0.930 . S
C924 C922 1.384 . S
C924 C926 1.392 . S
C924 H941 0.931 . S
C925 C921 1.393 . S
C925 C926 1.401 . S
C925 H942 0.930 . S
C926 C924 1.392 . S
C926 C925 1.401 . S
C926 H943 0.930 . S
C927 O910 1.262 . S
C927 O911 1.260 . S
C928 Tb864 2.833 . S
C928 O908 1.251 . S
C928 O913 1.256 . S
C928 C921 1.500 . S
C929 H894 0.929 . S
C929 C907 1.444 . S
C929 C930 1.317 . S
C930 H892 0.930 . S
C930 C898 1.432 . S
C930 C929 1.317 . S
C931 O915 1.283 . S
C931 O918 1.243 . S
C932 C933 1.382 . S
C932 C936 1.393 . S
C932 C939 1.500 . S
C933 C932 1.382 . S
C933 C934 1.400 . S
C933 H944 0.930 . S
C934 C933 1.400 . S
C934 C935 1.384 . S
C935 C934 1.384 . S
C935 C937 1.392 . S
C935 H945 0.931 . S
C936 C932 1.393 . S
C936 C937 1.401 . S
C936 H946 0.930 . S
C937 C935 1.392 . S
C937 C936 1.401 . S
C937 H947 0.930 . S
C938 O916 1.262 . S
C938 O917 1.260 . S
C939 Tb875 2.833 . S
C939 O914 1.251 . S
C939 O919 1.256 . S
C939 C932 1.500 . S
H940 C923 0.930 . S
H941 C924 0.931 . S
H942 C925 0.930 . S
H943 C926 0.930 . S
H944 C933 0.930 . S
H945 C935 0.931 . S
H946 C936 0.930 . S
H947 C937 0.930 . S
H948 C954 0.930 . S
H949 C957 0.930 . S
H950 C958 0.930 . S
H951 C959 0.930 . S
H952 C962 0.930 . S
H953 C963 0.930 . S
C954 H948 0.930 . S
C954 C955 1.355 . S
C954 C956 1.415 . S
C955 C954 1.355 . S
C955 C957 1.419 . S
C956 C954 1.415 . S
C956 C961 1.425 . S
C956 C963 1.409 . S
C957 H949 0.930 . S
C957 C955 1.419 . S
C957 C958 1.362 . S
C958 H950 0.930 . S
C958 C957 1.362 . S
C958 C961 1.409 . S
C959 H951 0.930 . S
C959 C960 1.355 . S
C959 C961 1.415 . S
C960 C959 1.355 . S
C960 C962 1.419 . S
C961 C956 1.425 . S
C961 C958 1.409 . S
C961 C959 1.415 . S
C962 H952 0.930 . S
C962 C960 1.419 . S
C962 C963 1.362 . S
C963 H953 0.930 . S
C963 C956 1.409 . S
C963 C962 1.362 . S
H964 C970 0.930 . S
H965 C973 0.930 . S
H966 C974 0.930 . S
H967 C975 0.930 . S
H968 C978 0.930 . S
H969 C979 0.930 . S
C970 H964 0.930 . S
C970 C971 1.355 . S
C970 C972 1.415 . S
C971 C970 1.355 . S
C971 C973 1.419 . S
C972 C970 1.415 . S
C972 C977 1.425 . S
C972 C979 1.409 . S
C973 H965 0.930 . S
C973 C971 1.419 . S
C973 C974 1.362 . S
C974 H966 0.930 . S
C974 C973 1.362 . S
C974 C977 1.409 . S
C975 H967 0.930 . S
C975 C976 1.355 . S
C975 C977 1.415 . S
C976 C975 1.355 . S
C976 C978 1.419 . S
C977 C972 1.425 . S
C977 C974 1.409 . S
C977 C975 1.415 . S
C978 H968 0.930 . S
C978 C976 1.419 . S
C978 C979 1.362 . S
C979 H969 0.930 . S
C979 C972 1.409 . S
C979 C978 1.362 . S
H980 C986 0.930 . S
H981 C989 0.930 . S
H982 C990 0.930 . S
H983 C991 0.930 . S
H984 C994 0.930 . S
H985 C995 0.930 . S
C986 H980 0.930 . S
C986 C987 1.355 . S
C986 C988 1.415 . S
C987 C986 1.355 . S
C987 C989 1.419 . S
C988 C986 1.415 . S
C988 C993 1.425 . S
C988 C995 1.409 . S
C989 H981 0.930 . S
C989 C987 1.419 . S
C989 C990 1.362 . S
C990 H982 0.930 . S
C990 C989 1.362 . S
C990 C993 1.409 . S
C991 H983 0.930 . S
C991 C992 1.355 . S
C991 C993 1.415 . S
C992 C991 1.355 . S
C992 C994 1.419 . S
C993 C988 1.425 . S
C993 C990 1.409 . S
C993 C991 1.415 . S
C994 H984 0.930 . S
C994 C992 1.419 . S
C994 C995 1.362 . S
C995 H985 0.930 . S
C995 C988 1.409 . S
C995 C994 1.362 . S
H996 C1002 0.930 . S
H997 C1005 0.965 . S
H998 C1006 0.930 . S
H999 C1007 0.930 . S
H1000 C1010 0.930 . S
H1001 C1011 0.930 . S
C1002 H996 0.930 . S
C1002 C1003 1.355 . S
C1002 C1004 1.415 . S
C1003 C1002 1.355 . S
C1003 C1005 1.419 . S
C1004 C1002 1.415 . S
C1004 C1009 1.425 . S
C1004 C1011 1.409 . S
C1005 H997 0.965 . S
C1005 C1003 1.419 . S
C1005 C1006 1.362 . S
C1006 H998 0.930 . S
C1006 C1005 1.362 . S
C1006 C1009 1.409 . S
C1007 H999 0.930 . S
C1007 C1008 1.355 . S
C1007 C1009 1.415 . S
C1008 C1007 1.355 . S
C1008 C1010 1.419 . S
C1009 C1004 1.425 . S
C1009 C1006 1.409 . S
C1009 C1007 1.415 . S
C1010 H1000 0.930 . S
C1010 C1008 1.419 . S
C1010 C1011 1.362 . S
C1011 H1001 0.930 . S
C1011 C1004 1.409 . S
C1011 C1010 1.362 . S
H1012 C1018 0.930 . S
H1013 C1021 0.930 . S
H1014 C1022 0.930 . S
H1015 C1023 0.930 . S
H1016 C1026 0.930 . S
H1017 C1027 0.930 . S
C1018 H1012 0.930 . S
C1018 C1019 1.355 . S
C1018 C1020 1.415 . S
C1019 C1018 1.355 . S
C1019 C1021 1.419 . S
C1020 C1018 1.415 . S
C1020 C1025 1.425 . S
C1020 C1027 1.409 . S
C1021 H1013 0.930 . S
C1021 C1019 1.419 . S
C1021 C1022 1.362 . S
C1022 H1014 0.930 . S
C1022 C1021 1.362 . S
C1022 C1025 1.409 . S
C1023 H1015 0.930 . S
C1023 C1024 1.355 . S
C1023 C1025 1.415 . S
C1024 C1023 1.355 . S
C1024 C1026 1.419 . S
C1025 C1020 1.425 . S
C1025 C1022 1.409 . S
C1025 C1023 1.415 . S
C1026 H1016 0.930 . S
C1026 C1024 1.419 . S
C1026 C1027 1.362 . S
C1027 H1017 0.930 . S
C1027 C1020 1.409 . S
C1027 C1026 1.362 . S
H1028 C1034 0.930 . S
H1029 C1037 0.930 . S
H1030 C1038 0.930 . S
H1031 C1039 0.930 . S
H1032 C1042 0.930 . S
H1033 C1043 0.930 . S
C1034 H1028 0.930 . S
C1034 C1035 1.355 . S
C1034 C1036 1.415 . S
C1035 C1034 1.355 . S
C1035 C1037 1.419 . S
C1036 C1034 1.415 . S
C1036 C1041 1.425 . S
C1036 C1043 1.409 . S
C1037 H1029 0.930 . S
C1037 C1035 1.419 . S
C1037 C1038 1.362 . S
C1038 H1030 0.930 . S
C1038 C1037 1.362 . S
C1038 C1041 1.409 . S
C1039 H1031 0.930 . S
C1039 C1040 1.355 . S
C1039 C1041 1.415 . S
C1040 C1039 1.355 . S
C1040 C1042 1.419 . S
C1041 C1036 1.425 . S
C1041 C1038 1.409 . S
C1041 C1039 1.415 . S
C1042 H1032 0.930 . S
C1042 C1040 1.419 . S
C1042 C1043 1.362 . S
C1043 H1033 0.930 . S
C1043 C1036 1.409 . S
C1043 C1042 1.362 . S
H1044 C1050 0.930 . S
H1045 C1053 0.930 . S
H1046 C1054 0.930 . S
H1047 C1055 0.930 . S
H1048 C1058 0.930 . S
H1049 C1059 0.930 . S
C1050 H1044 0.930 . S
C1050 C1051 1.355 . S
C1050 C1052 1.415 . S
C1051 C1050 1.355 . S
C1051 C1053 1.419 . S
C1052 C1050 1.415 . S
C1052 C1057 1.425 . S
C1052 C1059 1.409 . S
C1053 H1045 0.930 . S
C1053 C1051 1.419 . S
C1053 C1054 1.362 . S
C1054 H1046 0.930 . S
C1054 C1053 1.362 . S
C1054 C1057 1.409 . S
C1055 H1047 0.930 . S
C1055 C1056 1.355 . S
C1055 C1057 1.415 . S
C1056 C1055 1.355 . S
C1056 C1058 1.419 . S
C1057 C1052 1.425 . S
C1057 C1054 1.409 . S
C1057 C1055 1.415 . S
C1058 H1048 0.930 . S
C1058 C1056 1.419 . S
C1058 C1059 1.362 . S
C1059 H1049 0.930 . S
C1059 C1052 1.409 . S
C1059 C1058 1.362 . S
H1060 C1066 0.930 1_545 S
H1061 C1069 0.930 . S
H1062 C1070 0.930 . S
H1063 C1071 0.930 . S
H1064 C1074 0.930 . S
H1065 C1075 0.930 1_545 S
C1066 H1060 0.930 1_565 S
C1066 C1067 1.355 . S
C1066 C1068 1.415 . S
C1067 C1066 1.355 . S
C1067 C1069 1.419 . S
C1068 C1066 1.415 . S
C1068 C1073 1.425 . S
C1068 C1075 1.409 . S
C1069 H1061 0.930 . S
C1069 C1067 1.419 . S
C1069 C1070 1.362 . S
C1070 H1062 0.930 . S
C1070 C1069 1.362 . S
C1070 C1073 1.409 . S
C1071 H1063 0.930 . S
C1071 C1072 1.355 . S
C1071 C1073 1.415 . S
C1072 C1071 1.355 . S
C1072 C1074 1.419 . S
C1073 C1068 1.425 . S
C1073 C1070 1.409 . S
C1073 C1071 1.415 . S
C1074 H1064 0.930 . S
C1074 C1072 1.419 . S
C1074 C1075 1.362 . S
C1075 H1065 0.930 1_565 S
C1075 C1068 1.409 . S
C1075 C1074 1.362 . S
H1076 C1082 0.930 . S
H1077 C1085 0.930 . S
H1078 C1086 0.930 . S
H1079 C1087 0.930 . S
H1080 C1090 0.930 . S
H1081 C1091 0.930 . S
C1082 H1076 0.930 . S
C1082 C1083 1.355 . S
C1082 C1084 1.415 . S
C1083 C1082 1.355 . S
C1083 C1085 1.419 . S
C1084 C1082 1.415 . S
C1084 C1089 1.425 . S
C1084 C1091 1.409 . S
C1085 H1077 0.930 . S
C1085 C1083 1.419 . S
C1085 C1086 1.362 . S
C1086 H1078 0.930 . S
C1086 C1085 1.362 . S
C1086 C1089 1.409 . S
C1087 H1079 0.930 . S
C1087 C1088 1.355 . S
C1087 C1089 1.415 . S
C1088 C1087 1.355 . S
C1088 C1090 1.419 . S
C1089 C1084 1.425 . S
C1089 C1086 1.409 . S
C1089 C1087 1.415 . S
C1090 H1080 0.930 . S
C1090 C1088 1.419 . S
C1090 C1091 1.362 . S
C1091 H1081 0.930 . S
C1091 C1084 1.409 . S
C1091 C1090 1.362 . S
H1092 C1098 0.930 . S
H1093 C1101 0.930 . S
H1094 C1102 0.930 . S
H1095 C1103 0.930 . S
H1096 C1106 0.930 . S
H1097 C1107 0.930 . S
C1098 H1092 0.930 . S
C1098 C1099 1.355 . S
C1098 C1100 1.415 . S
C1099 C1098 1.355 . S
C1099 C1101 1.419 . S
C1100 C1098 1.415 . S
C1100 C1105 1.425 . S
C1100 C1107 1.409 . S
C1101 H1093 0.930 . S
C1101 C1099 1.419 . S
C1101 C1102 1.362 . S
C1102 H1094 0.930 . S
C1102 C1101 1.362 . S
C1102 C1105 1.409 . S
C1103 H1095 0.930 . S
C1103 C1104 1.355 . S
C1103 C1105 1.415 . S
C1104 C1103 1.355 . S
C1104 C1106 1.419 . S
C1105 C1100 1.425 . S
C1105 C1102 1.409 . S
C1105 C1103 1.415 . S
C1106 H1096 0.930 . S
C1106 C1104 1.419 . S
C1106 C1107 1.362 . S
C1107 H1097 0.930 . S
C1107 C1100 1.409 . S
C1107 C1106 1.362 . S
H1108 C1114 0.930 . S
H1109 C1117 0.930 . S
H1110 C1118 0.930 . S
H1111 C1119 0.930 . S
H1112 C1122 0.930 . S
H1113 C1123 0.930 . S
C1114 H1108 0.930 . S
C1114 C1115 1.355 . S
C1114 C1116 1.415 . S
C1115 C1114 1.355 . S
C1115 C1117 1.419 . S
C1116 C1114 1.415 . S
C1116 C1121 1.425 . S
C1116 C1123 1.409 . S
C1117 H1109 0.930 . S
C1117 C1115 1.419 . S
C1117 C1118 1.362 . S
C1118 H1110 0.930 . S
C1118 C1117 1.362 . S
C1118 C1121 1.409 . S
C1119 H1111 0.930 . S
C1119 C1120 1.355 . S
C1119 C1121 1.415 . S
C1120 C1119 1.355 . S
C1120 C1122 1.419 . S
C1121 C1116 1.425 . S
C1121 C1118 1.409 . S
C1121 C1119 1.415 . S
C1122 H1112 0.930 . S
C1122 C1120 1.419 . S
C1122 C1123 1.362 . S
C1123 H1113 0.930 . S
C1123 C1116 1.409 . S
C1123 C1122 1.362 . S
H1124 C1130 0.930 . S
H1125 C1133 0.930 . S
H1126 C1134 0.930 . S
H1127 C1135 0.930 . S
H1128 C1138 0.930 . S
H1129 C1139 0.930 . S
C1130 H1124 0.930 . S
C1130 C1131 1.355 . S
C1130 C1132 1.415 . S
C1131 C1130 1.355 . S
C1131 C1133 1.419 . S
C1132 C1130 1.415 . S
C1132 C1137 1.425 . S
C1132 C1139 1.409 . S
C1133 H1125 0.930 . S
C1133 C1131 1.419 . S
C1133 C1134 1.362 . S
C1134 H1126 0.930 . S
C1134 C1133 1.362 . S
C1134 C1137 1.409 . S
C1135 H1127 0.930 . S
C1135 C1136 1.355 . S
C1135 C1137 1.415 . S
C1136 C1135 1.355 . S
C1136 C1138 1.419 . S
C1137 C1132 1.425 . S
C1137 C1134 1.409 . S
C1137 C1135 1.415 . S
C1138 H1128 0.930 . S
C1138 C1136 1.419 . S
C1138 C1139 1.362 . S
C1139 H1129 0.930 . S
C1139 C1132 1.409 . S
C1139 C1138 1.362 . S
H1140 C1146 0.930 . S
H1141 C1149 0.930 . S
H1142 C1150 0.930 . S
H1143 C1151 0.930 . S
H1144 C1154 0.930 . S
H1145 C1155 0.930 . S
C1146 H1140 0.930 . S
C1146 C1147 1.355 1_566 S
C1146 C1148 1.415 . S
C1147 C1146 1.355 1_544 S
C1147 C1149 1.419 . S
C1148 C1146 1.415 . S
C1148 C1153 1.425 . S
C1148 C1155 1.409 . S
C1149 H1141 0.930 . S
C1149 C1147 1.419 . S
C1149 C1150 1.362 1_545 S
C1150 H1142 0.930 . S
C1150 C1149 1.362 1_565 S
C1150 C1153 1.409 1_554 S
C1151 H1143 0.930 . S
C1151 C1152 1.355 . S
C1151 C1153 1.415 . S
C1152 C1151 1.355 . S
C1152 C1154 1.419 . S
C1153 C1148 1.425 . S
C1153 C1150 1.409 1_556 S
C1153 C1151 1.415 . S
C1154 H1144 0.930 . S
C1154 C1152 1.419 . S
C1154 C1155 1.362 . S
C1155 H1145 0.930 . S
C1155 C1148 1.409 . S
C1155 C1154 1.362 . S
H1156 C1162 0.930 . S
H1157 C1165 0.930 . S
H1158 C1166 0.930 . S
H1159 C1167 0.930 . S
H1160 C1170 0.930 . S
H1161 C1171 0.930 . S
C1162 H1156 0.930 . S
C1162 C1163 1.355 . S
C1162 C1164 1.415 . S
C1163 C1162 1.355 . S
C1163 C1165 1.419 . S
C1164 C1162 1.415 . S
C1164 C1169 1.425 . S
C1164 C1171 1.409 . S
C1165 H1157 0.930 . S
C1165 C1163 1.419 . S
C1165 C1166 1.362 . S
C1166 H1158 0.930 . S
C1166 C1165 1.362 . S
C1166 C1169 1.409 . S
C1167 H1159 0.930 . S
C1167 C1168 1.355 . S
C1167 C1169 1.415 . S
C1168 C1167 1.355 . S
C1168 C1170 1.419 . S
C1169 C1164 1.425 . S
C1169 C1166 1.409 . S
C1169 C1167 1.415 . S
C1170 H1160 0.930 . S
C1170 C1168 1.419 . S
C1170 C1171 1.362 . S
C1171 H1161 0.930 . S
C1171 C1164 1.409 . S
C1171 C1170 1.362 . S
H1172 C1178 0.930 . S
H1173 C1181 0.930 . S
H1174 C1182 0.930 . S
H1175 C1183 0.930 . S
H1176 C1186 0.930 . S
H1177 C1187 0.930 . S
C1178 H1172 0.930 . S
C1178 C1179 1.355 . S
C1178 C1180 1.415 . S
C1179 C1178 1.355 . S
C1179 C1181 1.419 . S
C1180 C1178 1.415 . S
C1180 C1185 1.425 . S
C1180 C1187 1.409 . S
C1181 H1173 0.930 . S
C1181 C1179 1.419 . S
C1181 C1182 1.362 . S
C1182 H1174 0.930 . S
C1182 C1181 1.362 . S
C1182 C1185 1.409 . S
C1183 H1175 0.930 . S
C1183 C1184 1.355 . S
C1183 C1185 1.415 . S
C1184 C1183 1.355 . S
C1184 C1186 1.419 . S
C1185 C1180 1.425 . S
C1185 C1182 1.409 . S
C1185 C1183 1.415 . S
C1186 H1176 0.930 . S
C1186 C1184 1.419 . S
C1186 C1187 1.362 . S
C1187 H1177 0.930 . S
C1187 C1180 1.409 . S
C1187 C1186 1.362 . S
H1188 C1194 0.930 . S
H1189 C1197 0.930 . S
H1190 C1198 0.930 . S
H1191 C1199 0.930 . S
H1192 C1202 0.930 . S
H1193 C1203 0.930 . S
C1194 H1188 0.930 . S
C1194 C1195 1.355 . S
C1194 C1196 1.415 . S
C1195 C1194 1.355 . S
C1195 C1197 1.419 . S
C1196 C1194 1.415 . S
C1196 C1201 1.425 . S
C1196 C1203 1.409 . S
C1197 H1189 0.930 . S
C1197 C1195 1.419 . S
C1197 C1198 1.362 . S
C1198 H1190 0.930 . S
C1198 C1197 1.362 . S
C1198 C1201 1.409 . S
C1199 H1191 0.930 . S
C1199 C1200 1.355 . S
C1199 C1201 1.415 . S
C1200 C1199 1.355 . S
C1200 C1202 1.419 . S
C1201 C1196 1.425 . S
C1201 C1198 1.409 . S
C1201 C1199 1.415 . S
C1202 H1192 0.930 . S
C1202 C1200 1.419 . S
C1202 C1203 1.362 . S
C1203 H1193 0.930 . S
C1203 C1196 1.409 . S
C1203 C1202 1.362 . S
H1204 C1210 0.930 . S
H1205 C1213 0.930 . S
H1206 C1214 0.930 . S
H1207 C1215 0.930 . S
H1208 C1218 0.930 . S
H1209 C1219 0.930 . S
C1210 H1204 0.930 . S
C1210 C1211 1.355 . S
C1210 C1212 1.415 . S
C1211 C1210 1.355 . S
C1211 C1213 1.419 . S
C1212 C1210 1.415 . S
C1212 C1217 1.425 . S
C1212 C1219 1.409 . S
C1213 H1205 0.930 . S
C1213 C1211 1.419 . S
C1213 C1214 1.362 . S
C1214 H1206 0.930 . S
C1214 C1213 1.362 . S
C1214 C1217 1.409 . S
C1215 H1207 0.930 . S
C1215 C1216 1.355 . S
C1215 C1217 1.415 . S
C1216 C1215 1.355 . S
C1216 C1218 1.419 . S
C1217 C1212 1.425 . S
C1217 C1214 1.409 . S
C1217 C1215 1.415 . S
C1218 H1208 0.930 . S
C1218 C1216 1.419 . S
C1218 C1219 1.362 . S
C1219 H1209 0.930 . S
C1219 C1212 1.409 . S
C1219 C1218 1.362 . S
H1220 C1226 0.930 . S
H1221 C1229 0.930 . S
H1222 C1230 0.930 . S
H1223 C1231 0.930 . S
H1224 C1234 0.930 . S
H1225 C1235 0.930 . S
C1226 H1220 0.930 . S
C1226 C1227 1.355 . S
C1226 C1228 1.415 . S
C1227 C1226 1.355 . S
C1227 C1229 1.419 . S
C1228 C1226 1.415 . S
C1228 C1233 1.425 . S
C1228 C1235 1.409 . S
C1229 H1221 0.930 . S
C1229 C1227 1.419 . S
C1229 C1230 1.362 . S
C1230 H1222 0.930 . S
C1230 C1229 1.362 . S
C1230 C1233 1.409 . S
C1231 H1223 0.930 . S
C1231 C1232 1.355 . S
C1231 C1233 1.415 . S
C1232 C1231 1.355 . S
C1232 C1234 1.419 . S
C1233 C1228 1.425 . S
C1233 C1230 1.409 . S
C1233 C1231 1.415 . S
C1234 H1224 0.930 . S
C1234 C1232 1.419 . S
C1234 C1235 1.362 . S
C1235 H1225 0.930 . S
C1235 C1228 1.409 . S
C1235 C1234 1.362 . S
H1236 C1242 0.930 . S
H1237 C1245 0.930 . S
H1238 C1246 0.930 . S
H1239 C1247 0.930 . S
H1240 C1250 0.930 . S
H1241 C1251 0.930 . S
C1242 H1236 0.930 . S
C1242 C1243 1.355 . S
C1242 C1244 1.415 1_554 S
C1243 C1242 1.355 . S
C1243 C1245 1.419 1_554 S
C1244 C1242 1.415 1_556 S
C1244 C1249 1.425 . S
C1244 C1251 1.409 . S
C1245 H1237 0.930 . S
C1245 C1243 1.419 1_556 S
C1245 C1246 1.362 . S
C1246 H1238 0.930 . S
C1246 C1245 1.362 . S
C1246 C1249 1.409 . S
C1247 H1239 0.930 . S
C1247 C1248 1.355 . S
C1247 C1249 1.415 . S
C1248 C1247 1.355 . S
C1248 C1250 1.419 . S
C1249 C1244 1.425 . S
C1249 C1246 1.409 . S
C1249 C1247 1.415 . S
C1250 H1240 0.930 . S
C1250 C1248 1.419 . S
C1250 C1251 1.362 . S
C1251 H1241 0.930 . S
C1251 C1244 1.409 . S
C1251 C1250 1.362 . S
H1252 C1258 0.930 . S
H1253 C1261 0.930 . S
H1254 C1262 0.930 1_455 S
H1255 C1263 0.930 . S
H1256 C1266 0.930 . S
H1257 C1267 0.930 . S
C1258 H1252 0.930 . S
C1258 C1259 1.355 1_655 S
C1258 C1260 1.415 . S
C1259 C1258 1.355 1_455 S
C1259 C1261 1.419 1_554 S
C1260 C1258 1.415 . S
C1260 C1265 1.425 1_554 S
C1260 C1267 1.409 . S
C1261 H1253 0.930 . S
C1261 C1259 1.419 1_556 S
C1261 C1262 1.362 1_455 S
C1262 H1254 0.930 1_655 S
C1262 C1261 1.362 1_655 S
C1262 C1265 1.409 . S
C1263 H1255 0.930 . S
C1263 C1264 1.355 . S
C1263 C1265 1.415 . S
C1264 C1263 1.355 . S
C1264 C1266 1.419 . S
C1265 C1260 1.425 1_556 S
C1265 C1262 1.409 . S
C1265 C1263 1.415 . S
C1266 H1256 0.930 . S
C1266 C1264 1.419 . S
C1266 C1267 1.362 1_556 S
C1267 H1257 0.930 . S
C1267 C1260 1.409 . S
C1267 C1266 1.362 1_554 S
H1268 C1274 0.930 . S
H1269 C1277 0.930 . S
H1270 C1278 0.930 . S
H1271 C1279 0.930 . S
H1272 C1282 0.930 . S
H1273 C1283 0.930 . S
C1274 H1268 0.930 . S
C1274 C1275 1.355 . S
C1274 C1276 1.415 . S
C1275 C1274 1.355 . S
C1275 C1277 1.419 . S
C1276 C1274 1.415 . S
C1276 C1281 1.425 . S
C1276 C1283 1.409 . S
C1277 H1269 0.930 . S
C1277 C1275 1.419 . S
C1277 C1278 1.362 . S
C1278 H1270 0.930 . S
C1278 C1277 1.362 . S
C1278 C1281 1.409 . S
C1279 H1271 0.930 . S
C1279 C1280 1.355 . S
C1279 C1281 1.415 . S
C1280 C1279 1.355 . S
C1280 C1282 1.419 . S
C1281 C1276 1.425 . S
C1281 C1278 1.409 . S
C1281 C1279 1.415 . S
C1282 H1272 0.930 . S
C1282 C1280 1.419 . S
C1282 C1283 1.362 . S
C1283 H1273 0.930 . S
C1283 C1276 1.409 . S
C1283 C1282 1.362 . S
H1284 C1290 0.930 . S
H1285 C1293 0.930 . S
H1286 C1294 0.930 . S
H1287 C1295 0.930 . S
H1288 C1298 0.930 . S
H1289 C1299 0.930 . S
C1290 H1284 0.930 . S
C1290 C1291 1.355 . S
C1290 C1292 1.415 . S
C1291 C1290 1.355 . S
C1291 C1293 1.419 . S
C1292 C1290 1.415 . S
C1292 C1297 1.425 . S
C1292 C1299 1.409 . S
C1293 H1285 0.930 . S
C1293 C1291 1.419 . S
C1293 C1294 1.362 . S
C1294 H1286 0.930 . S
C1294 C1293 1.362 . S
C1294 C1297 1.409 . S
C1295 H1287 0.930 . S
C1295 C1296 1.355 . S
C1295 C1297 1.415 . S
C1296 C1295 1.355 . S
C1296 C1298 1.419 . S
C1297 C1292 1.425 . S
C1297 C1294 1.409 . S
C1297 C1295 1.415 . S
C1298 H1288 0.930 . S
C1298 C1296 1.419 . S
C1298 C1299 1.362 . S
C1299 H1289 0.930 . S
C1299 C1292 1.409 . S
C1299 C1298 1.362 . S
H1300 C1306 0.930 . S
H1301 C1309 0.930 1_545 S
H1302 C1310 0.930 . S
H1303 C1311 0.930 . S
H1304 C1314 0.930 . S
H1305 C1315 0.930 . S
C1306 H1300 0.930 . S
C1306 C1307 1.355 1_565 S
C1306 C1308 1.415 . S
C1307 C1306 1.355 1_545 S
C1307 C1309 1.419 1_545 S
C1308 C1306 1.415 . S
C1308 C1313 1.425 . S
C1308 C1315 1.409 . S
C1309 H1301 0.930 1_565 S
C1309 C1307 1.419 1_565 S
C1309 C1310 1.362 . S
C1310 H1302 0.930 . S
C1310 C1309 1.362 . S
C1310 C1313 1.409 . S
C1311 H1303 0.930 . S
C1311 C1312 1.355 . S
C1311 C1313 1.415 . S
C1312 C1311 1.355 . S
C1312 C1314 1.419 . S
C1313 C1308 1.425 . S
C1313 C1310 1.409 . S
C1313 C1311 1.415 . S
C1314 H1304 0.930 . S
C1314 C1312 1.419 . S
C1314 C1315 1.362 . S
C1315 H1305 0.930 . S
C1315 C1308 1.409 . S
C1315 C1314 1.362 . S
H1316 C1322 0.930 . S
H1317 C1325 0.930 . S
H1318 C1326 0.930 . S
H1319 C1327 0.930 . S
H1320 C1330 0.930 . S
H1321 C1331 0.930 . S
C1322 H1316 0.930 . S
C1322 C1323 1.355 . S
C1322 C1324 1.415 . S
C1323 C1322 1.355 . S
C1323 C1325 1.419 . S
C1324 C1322 1.415 . S
C1324 C1329 1.425 . S
C1324 C1331 1.409 . S
C1325 H1317 0.930 . S
C1325 C1323 1.419 . S
C1325 C1326 1.362 . S
C1326 H1318 0.930 . S
C1326 C1325 1.362 . S
C1326 C1329 1.409 . S
C1327 H1319 0.930 . S
C1327 C1328 1.355 . S
C1327 C1329 1.415 . S
C1328 C1327 1.355 . S
C1328 C1330 1.419 . S
C1329 C1324 1.425 . S
C1329 C1326 1.409 . S
C1329 C1327 1.415 . S
C1330 H1320 0.930 . S
C1330 C1328 1.419 . S
C1330 C1331 1.362 . S
C1331 H1321 0.930 . S
C1331 C1324 1.409 . S
C1331 C1330 1.362 . S
H1332 C1338 0.930 . S
H1333 C1341 0.930 . S
H1334 C1342 0.930 . S
H1335 C1343 0.930 . S
H1336 C1346 0.930 . S
H1337 C1347 0.930 . S
C1338 H1332 0.930 . S
C1338 C1339 1.355 . S
C1338 C1340 1.415 . S
C1339 C1338 1.355 . S
C1339 C1341 1.419 . S
C1340 C1338 1.415 . S
C1340 C1345 1.425 . S
C1340 C1347 1.409 . S
C1341 H1333 0.930 . S
C1341 C1339 1.419 . S
C1341 C1342 1.362 . S
C1342 H1334 0.930 . S
C1342 C1341 1.362 . S
C1342 C1345 1.409 . S
C1343 H1335 0.930 . S
C1343 C1344 1.355 . S
C1343 C1345 1.415 . S
C1344 C1343 1.355 . S
C1344 C1346 1.419 . S
C1345 C1340 1.425 . S
C1345 C1342 1.409 . S
C1345 C1343 1.415 . S
C1346 H1336 0.930 . S
C1346 C1344 1.419 . S
C1346 C1347 1.362 . S
C1347 H1337 0.930 . S
C1347 C1340 1.409 . S
C1347 C1346 1.362 . S
H1348 C1354 0.930 . S
H1349 C1357 0.930 . S
H1350 C1358 0.930 . S
H1351 C1359 0.930 . S
H1352 C1362 0.930 . S
H1353 C1363 0.930 . S
C1354 H1348 0.930 . S
C1354 C1355 1.355 . S
C1354 C1356 1.415 . S
C1355 C1354 1.355 . S
C1355 C1357 1.419 . S
C1356 C1354 1.415 . S
C1356 C1361 1.425 . S
C1356 C1363 1.409 . S
C1357 H1349 0.930 . S
C1357 C1355 1.419 . S
C1357 C1358 1.362 . S
C1358 H1350 0.930 . S
C1358 C1357 1.362 . S
C1358 C1361 1.409 . S
C1359 H1351 0.930 . S
C1359 C1360 1.355 . S
C1359 C1361 1.415 . S
C1360 C1359 1.355 . S
C1360 C1362 1.419 . S
C1361 C1356 1.425 . S
C1361 C1358 1.409 . S
C1361 C1359 1.415 . S
C1362 H1352 0.930 . S
C1362 C1360 1.419 . S
C1362 C1363 1.362 . S
C1363 H1353 0.930 . S
C1363 C1356 1.409 . S
C1363 C1362 1.362 . S
H1364 C1370 0.930 . S
H1365 C1373 0.930 . S
H1366 C1374 0.930 . S
H1367 C1375 0.930 . S
H1368 C1378 0.930 . S
H1369 C1379 0.930 . S
C1370 H1364 0.930 . S
C1370 C1371 1.355 . S
C1370 C1372 1.415 . S
C1371 C1370 1.355 . S
C1371 C1373 1.419 . S
C1372 C1370 1.415 . S
C1372 C1377 1.425 . S
C1372 C1379 1.409 . S
C1373 H1365 0.930 . S
C1373 C1371 1.419 . S
C1373 C1374 1.362 . S
C1374 H1366 0.930 . S
C1374 C1373 1.362 . S
C1374 C1377 1.409 . S
C1375 H1367 0.930 . S
C1375 C1376 1.355 . S
C1375 C1377 1.415 . S
C1376 C1375 1.355 . S
C1376 C1378 1.419 . S
C1377 C1372 1.425 . S
C1377 C1374 1.409 . S
C1377 C1375 1.415 . S
C1378 H1368 0.930 . S
C1378 C1376 1.419 . S
C1378 C1379 1.362 . S
C1379 H1369 0.930 . S
C1379 C1372 1.409 . S
C1379 C1378 1.362 . S
H1380 C1386 0.930 . S
H1381 C1389 0.930 . S
H1382 C1390 0.930 . S
H1383 C1391 0.930 . S
H1384 C1394 0.930 . S
H1385 C1395 0.930 . S
C1386 H1380 0.930 . S
C1386 C1387 1.355 . S
C1386 C1388 1.415 . S
C1387 C1386 1.355 . S
C1387 C1389 1.419 . S
C1388 C1386 1.415 . S
C1388 C1393 1.425 . S
C1388 C1395 1.409 . S
C1389 H1381 0.930 . S
C1389 C1387 1.419 . S
C1389 C1390 1.362 . S
C1390 H1382 0.930 . S
C1390 C1389 1.362 . S
C1390 C1393 1.409 . S
C1391 H1383 0.930 . S
C1391 C1392 1.355 . S
C1391 C1393 1.415 . S
C1392 C1391 1.355 . S
C1392 C1394 1.419 . S
C1393 C1388 1.425 . S
C1393 C1390 1.409 . S
C1393 C1391 1.415 . S
C1394 H1384 0.930 . S
C1394 C1392 1.419 . S
C1394 C1395 1.362 . S
C1395 H1385 0.930 . S
C1395 C1388 1.409 . S
C1395 C1394 1.362 . S
H1396 C1402 0.930 . S
H1397 C1405 0.930 . S
H1398 C1406 0.930 . S
H1399 C1407 0.930 . S
H1400 C1410 0.930 . S
H1401 C1411 0.930 . S
C1402 H1396 0.930 . S
C1402 C1403 1.355 . S
C1402 C1404 1.415 . S
C1403 C1402 1.355 . S
C1403 C1405 1.419 . S
C1404 C1402 1.415 . S
C1404 C1409 1.425 . S
C1404 C1411 1.409 . S
C1405 H1397 0.930 . S
C1405 C1403 1.419 . S
C1405 C1406 1.362 . S
C1406 H1398 0.930 . S
C1406 C1405 1.362 . S
C1406 C1409 1.409 . S
C1407 H1399 0.930 . S
C1407 C1408 1.355 . S
C1407 C1409 1.415 . S
C1408 C1407 1.355 . S
C1408 C1410 1.419 . S
C1409 C1404 1.425 . S
C1409 C1406 1.409 . S
C1409 C1407 1.415 . S
C1410 H1400 0.930 . S
C1410 C1408 1.419 . S
C1410 C1411 1.362 . S
C1411 H1401 0.930 . S
C1411 C1404 1.409 . S
C1411 C1410 1.362 . S
H1412 C1418 0.930 . S
H1413 C1421 0.930 . S
H1414 C1422 0.930 . S
H1415 C1423 0.930 . S
H1416 C1426 0.930 . S
H1417 C1427 0.930 . S
C1418 H1412 0.930 . S
C1418 C1419 1.355 . S
C1418 C1420 1.415 . S
C1419 C1418 1.355 . S
C1419 C1421 1.419 . S
C1420 C1418 1.415 . S
C1420 C1425 1.425 . S
C1420 C1427 1.409 . S
C1421 H1413 0.930 . S
C1421 C1419 1.419 . S
C1421 C1422 1.362 . S
C1422 H1414 0.930 . S
C1422 C1421 1.362 . S
C1422 C1425 1.409 . S
C1423 H1415 0.930 . S
C1423 C1424 1.355 . S
C1423 C1425 1.415 . S
C1424 C1423 1.355 . S
C1424 C1426 1.419 . S
C1425 C1420 1.425 . S
C1425 C1422 1.409 . S
C1425 C1423 1.415 . S
C1426 H1416 0.930 . S
C1426 C1424 1.419 . S
C1426 C1427 1.362 . S
C1427 H1417 0.930 . S
C1427 C1420 1.409 . S
C1427 C1426 1.362 . S
H1428 C1434 0.930 . S
H1429 C1437 0.930 . S
H1430 C1438 0.930 . S
H1431 C1439 0.930 . S
H1432 C1442 0.930 . S
H1433 C1443 0.930 . S
C1434 H1428 0.930 . S
C1434 C1435 1.355 . S
C1434 C1436 1.415 . S
C1435 C1434 1.355 . S
C1435 C1437 1.419 . S
C1436 C1434 1.415 . S
C1436 C1441 1.425 . S
C1436 C1443 1.409 . S
C1437 H1429 0.930 . S
C1437 C1435 1.419 . S
C1437 C1438 1.362 . S
C1438 H1430 0.930 . S
C1438 C1437 1.362 . S
C1438 C1441 1.409 . S
C1439 H1431 0.930 . S
C1439 C1440 1.355 . S
C1439 C1441 1.415 . S
C1440 C1439 1.355 . S
C1440 C1442 1.419 . S
C1441 C1436 1.425 . S
C1441 C1438 1.409 . S
C1441 C1439 1.415 . S
C1442 H1432 0.930 . S
C1442 C1440 1.419 . S
C1442 C1443 1.362 . S
C1443 H1433 0.930 . S
C1443 C1436 1.409 . S
C1443 C1442 1.362 . S
H1444 C1450 0.930 . S
H1445 C1453 0.930 . S
H1446 C1454 0.930 . S
H1447 C1455 0.930 . S
H1448 C1458 0.930 . S
H1449 C1459 0.930 . S
C1450 H1444 0.930 . S
C1450 C1451 1.355 . S
C1450 C1452 1.415 . S
C1451 C1450 1.355 . S
C1451 C1453 1.419 . S
C1452 C1450 1.415 . S
C1452 C1457 1.425 . S
C1452 C1459 1.409 . S
C1453 H1445 0.930 . S
C1453 C1451 1.419 . S
C1453 C1454 1.362 . S
C1454 H1446 0.930 . S
C1454 C1453 1.362 . S
C1454 C1457 1.409 . S
C1455 H1447 0.930 . S
C1455 C1456 1.355 . S
C1455 C1457 1.415 . S
C1456 C1455 1.355 . S
C1456 C1458 1.419 . S
C1457 C1452 1.425 . S
C1457 C1454 1.409 . S
C1457 C1455 1.415 . S
C1458 H1448 0.930 . S
C1458 C1456 1.419 . S
C1458 C1459 1.362 . S
C1459 H1449 0.930 . S
C1459 C1452 1.409 . S
C1459 C1458 1.362 . S
H1460 C1466 0.930 . S
H1461 C1469 0.930 . S
H1462 C1470 0.930 . S
H1463 C1471 0.930 . S
H1464 C1474 0.930 . S
H1465 C1475 0.930 . S
C1466 H1460 0.930 . S
C1466 C1467 1.355 . S
C1466 C1468 1.415 . S
C1467 C1466 1.355 . S
C1467 C1469 1.419 . S
C1468 C1466 1.415 . S
C1468 C1473 1.425 . S
C1468 C1475 1.409 . S
C1469 H1461 0.930 . S
C1469 C1467 1.419 . S
C1469 C1470 1.362 . S
C1470 H1462 0.930 . S
C1470 C1469 1.362 . S
C1470 C1473 1.409 . S
C1471 H1463 0.930 . S
C1471 C1472 1.355 . S
C1471 C1473 1.415 . S
C1472 C1471 1.355 . S
C1472 C1474 1.419 . S
C1473 C1468 1.425 . S
C1473 C1470 1.409 . S
C1473 C1471 1.415 . S
C1474 H1464 0.930 . S
C1474 C1472 1.419 . S
C1474 C1475 1.362 . S
C1475 H1465 0.930 . S
C1475 C1468 1.409 . S
C1475 C1474 1.362 . S
H1476 C1482 0.930 . S
H1477 C1485 0.930 . S
H1478 C1486 0.930 . S
H1479 C1487 0.930 . S
H1480 C1490 0.930 . S
H1481 C1491 0.930 . S
C1482 H1476 0.930 . S
C1482 C1483 1.355 . S
C1482 C1484 1.415 . S
C1483 C1482 1.355 . S
C1483 C1485 1.419 . S
C1484 C1482 1.415 . S
C1484 C1489 1.425 . S
C1484 C1491 1.409 . S
C1485 H1477 0.930 . S
C1485 C1483 1.419 . S
C1485 C1486 1.362 . S
C1486 H1478 0.930 . S
C1486 C1485 1.362 . S
C1486 C1489 1.409 . S
C1487 H1479 0.930 . S
C1487 C1488 1.355 . S
C1487 C1489 1.415 . S
C1488 C1487 1.355 . S
C1488 C1490 1.419 . S
C1489 C1484 1.425 . S
C1489 C1486 1.409 . S
C1489 C1487 1.415 . S
C1490 H1480 0.930 . S
C1490 C1488 1.419 . S
C1490 C1491 1.362 . S
C1491 H1481 0.930 . S
C1491 C1484 1.409 . S
C1491 C1490 1.362 . S
H1492 C1498 0.930 . S
H1493 C1501 0.930 . S
H1494 C1502 0.930 . S
H1495 C1503 0.930 . S
H1496 C1506 0.930 . S
H1497 C1507 0.930 . S
C1498 H1492 0.930 . S
C1498 C1499 1.355 . S
C1498 C1500 1.415 . S
C1499 C1498 1.355 . S
C1499 C1501 1.419 . S
C1500 C1498 1.415 . S
C1500 C1505 1.425 . S
C1500 C1507 1.409 . S
C1501 H1493 0.930 . S
C1501 C1499 1.419 . S
C1501 C1502 1.362 . S
C1502 H1494 0.930 . S
C1502 C1501 1.362 . S
C1502 C1505 1.409 . S
C1503 H1495 0.930 . S
C1503 C1504 1.355 . S
C1503 C1505 1.415 . S
C1504 C1503 1.355 . S
C1504 C1506 1.419 . S
C1505 C1500 1.425 . S
C1505 C1502 1.409 . S
C1505 C1503 1.415 . S
C1506 H1496 0.930 . S
C1506 C1504 1.419 . S
C1506 C1507 1.362 . S
C1507 H1497 0.930 . S
C1507 C1500 1.409 . S
C1507 C1506 1.362 . S
H1508 C1514 0.930 . S
H1509 C1517 0.930 . S
H1510 C1518 0.930 . S
H1511 C1519 0.930 . S
H1512 C1522 0.930 . S
H1513 C1523 0.930 . S
C1514 H1508 0.930 . S
C1514 C1515 1.355 . S
C1514 C1516 1.415 . S
C1515 C1514 1.355 . S
C1515 C1517 1.419 . S
C1516 C1514 1.415 . S
C1516 C1521 1.425 . S
C1516 C1523 1.409 . S
C1517 H1509 0.930 . S
C1517 C1515 1.419 . S
C1517 C1518 1.362 . S
C1518 H1510 0.930 . S
C1518 C1517 1.362 . S
C1518 C1521 1.409 . S
C1519 H1511 0.930 . S
C1519 C1520 1.355 . S
C1519 C1521 1.415 . S
C1520 C1519 1.355 . S
C1520 C1522 1.419 . S
C1521 C1516 1.425 . S
C1521 C1518 1.409 . S
C1521 C1519 1.415 . S
C1522 H1512 0.930 . S
C1522 C1520 1.419 . S
C1522 C1523 1.362 . S
C1523 H1513 0.930 . S
C1523 C1516 1.409 . S
C1523 C1522 1.362 . S
H1524 C1530 0.930 . S
H1525 C1533 0.930 . S
H1526 C1534 0.930 . S
H1527 C1535 0.930 . S
H1528 C1538 0.930 . S
H1529 C1539 0.930 . S
C1530 H1524 0.930 . S
C1530 C1531 1.355 . S
C1530 C1532 1.415 . S
C1531 C1530 1.355 . S
C1531 C1533 1.419 . S
C1532 C1530 1.415 . S
C1532 C1537 1.425 . S
C1532 C1539 1.409 . S
C1533 H1525 0.930 . S
C1533 C1531 1.419 . S
C1533 C1534 1.362 . S
C1534 H1526 0.930 . S
C1534 C1533 1.362 . S
C1534 C1537 1.409 . S
C1535 H1527 0.930 . S
C1535 C1536 1.355 . S
C1535 C1537 1.415 . S
C1536 C1535 1.355 . S
C1536 C1538 1.419 . S
C1537 C1532 1.425 . S
C1537 C1534 1.409 . S
C1537 C1535 1.415 . S
C1538 H1528 0.930 . S
C1538 C1536 1.419 . S
C1538 C1539 1.362 . S
C1539 H1529 0.930 . S
C1539 C1532 1.409 . S
C1539 C1538 1.362 . S
H1540 C1546 0.930 . S
H1541 C1549 0.930 . S
H1542 C1550 0.930 . S
H1543 C1551 0.930 . S
H1544 C1554 0.930 . S
H1545 C1555 0.930 . S
C1546 H1540 0.930 . S
C1546 C1547 1.355 . S
C1546 C1548 1.415 . S
C1547 C1546 1.355 . S
C1547 C1549 1.419 . S
C1548 C1546 1.415 . S
C1548 C1553 1.425 . S
C1548 C1555 1.409 . S
C1549 H1541 0.930 . S
C1549 C1547 1.419 . S
C1549 C1550 1.362 . S
C1550 H1542 0.930 . S
C1550 C1549 1.362 . S
C1550 C1553 1.409 . S
C1551 H1543 0.930 . S
C1551 C1552 1.355 . S
C1551 C1553 1.415 . S
C1552 C1551 1.355 . S
C1552 C1554 1.419 . S
C1553 C1548 1.425 . S
C1553 C1550 1.409 . S
C1553 C1551 1.415 . S
C1554 H1544 0.930 . S
C1554 C1552 1.419 . S
C1554 C1555 1.362 . S
C1555 H1545 0.930 . S
C1555 C1548 1.409 . S
C1555 C1554 1.362 . S
H1556 C1562 0.930 . S
H1557 C1565 0.930 . S
H1558 C1566 0.930 . S
H1559 C1567 0.930 . S
H1560 C1570 0.930 . S
H1561 C1571 0.930 . S
C1562 H1556 0.930 . S
C1562 C1563 1.355 . S
C1562 C1564 1.415 . S
C1563 C1562 1.355 . S
C1563 C1565 1.419 . S
C1564 C1562 1.415 . S
C1564 C1569 1.425 . S
C1564 C1571 1.409 . S
C1565 H1557 0.930 . S
C1565 C1563 1.419 . S
C1565 C1566 1.362 . S
C1566 H1558 0.930 . S
C1566 C1565 1.362 . S
C1566 C1569 1.409 . S
C1567 H1559 0.930 . S
C1567 C1568 1.355 . S
C1567 C1569 1.415 . S
C1568 C1567 1.355 . S
C1568 C1570 1.419 . S
C1569 C1564 1.425 . S
C1569 C1566 1.409 . S
C1569 C1567 1.415 . S
C1570 H1560 0.930 . S
C1570 C1568 1.419 . S
C1570 C1571 1.362 . S
C1571 H1561 0.930 . S
C1571 C1564 1.409 . S
C1571 C1570 1.362 . S
H1572 C1578 0.930 . S
H1573 C1581 0.930 . S
H1574 C1582 0.930 . S
H1575 C1583 0.930 . S
H1576 C1586 0.930 . S
H1577 C1587 0.930 . S
C1578 H1572 0.930 . S
C1578 C1579 1.355 . S
C1578 C1580 1.415 . S
C1579 C1578 1.355 . S
C1579 C1581 1.419 . S
C1580 C1578 1.415 . S
C1580 C1585 1.425 . S
C1580 C1587 1.409 . S
C1581 H1573 0.930 . S
C1581 C1579 1.419 . S
C1581 C1582 1.362 . S
C1582 H1574 0.930 . S
C1582 C1581 1.362 . S
C1582 C1585 1.409 . S
C1583 H1575 0.930 . S
C1583 C1584 1.355 . S
C1583 C1585 1.415 . S
C1584 C1583 1.355 . S
C1584 C1586 1.419 . S
C1585 C1580 1.425 . S
C1585 C1582 1.409 . S
C1585 C1583 1.415 . S
C1586 H1576 0.930 . S
C1586 C1584 1.419 . S
C1586 C1587 1.362 . S
C1587 H1577 0.930 . S
C1587 C1580 1.409 . S
C1587 C1586 1.362 . S
H1588 C1594 0.930 . S
H1589 C1597 0.930 . S
H1590 C1598 0.930 . S
H1591 C1599 0.930 . S
H1592 C1602 0.930 . S
H1593 C1603 0.930 . S
C1594 H1588 0.930 . S
C1594 C1595 1.355 . S
C1594 C1596 1.415 . S
C1595 C1594 1.355 . S
C1595 C1597 1.419 . S
C1596 C1594 1.415 . S
C1596 C1601 1.425 . S
C1596 C1603 1.409 . S
C1597 H1589 0.930 . S
C1597 C1595 1.419 . S
C1597 C1598 1.362 . S
C1598 H1590 0.930 . S
C1598 C1597 1.362 . S
C1598 C1601 1.409 . S
C1599 H1591 0.930 . S
C1599 C1600 1.355 . S
C1599 C1601 1.415 . S
C1600 C1599 1.355 . S
C1600 C1602 1.419 . S
C1601 C1596 1.425 . S
C1601 C1598 1.409 . S
C1601 C1599 1.415 . S
C1602 H1592 0.930 . S
C1602 C1600 1.419 . S
C1602 C1603 1.362 . S
C1603 H1593 0.930 . S
C1603 C1596 1.409 . S
C1603 C1602 1.362 . S
H1604 C1610 0.930 . S
H1605 C1613 0.930 . S
H1606 C1614 0.930 . S
H1607 C1615 0.930 . S
H1608 C1618 0.930 . S
H1609 C1619 0.930 . S
C1610 H1604 0.930 . S
C1610 C1611 1.355 . S
C1610 C1612 1.415 . S
C1611 C1610 1.355 . S
C1611 C1613 1.419 . S
C1612 C1610 1.415 . S
C1612 C1617 1.425 . S
C1612 C1619 1.409 . S
C1613 H1605 0.930 . S
C1613 C1611 1.419 . S
C1613 C1614 1.362 . S
C1614 H1606 0.930 . S
C1614 C1613 1.362 . S
C1614 C1617 1.409 . S
C1615 H1607 0.930 . S
C1615 C1616 1.355 . S
C1615 C1617 1.415 . S
C1616 C1615 1.355 . S
C1616 C1618 1.419 . S
C1617 C1612 1.425 . S
C1617 C1614 1.409 . S
C1617 C1615 1.415 . S
C1618 H1608 0.930 . S
C1618 C1616 1.419 . S
C1618 C1619 1.362 . S
C1619 H1609 0.930 . S
C1619 C1612 1.409 . S
C1619 C1618 1.362 . S
H1620 C1626 0.930 . S
H1621 C1629 0.930 . S
H1622 C1630 0.930 . S
H1623 C1631 0.930 . S
H1624 C1634 0.930 . S
H1625 C1635 0.930 . S
C1626 H1620 0.930 . S
C1626 C1627 1.355 . S
C1626 C1628 1.415 . S
C1627 C1626 1.355 . S
C1627 C1629 1.419 . S
C1628 C1626 1.415 . S
C1628 C1633 1.425 . S
C1628 C1635 1.409 . S
C1629 H1621 0.930 . S
C1629 C1627 1.419 . S
C1629 C1630 1.362 . S
C1630 H1622 0.930 . S
C1630 C1629 1.362 . S
C1630 C1633 1.409 . S
C1631 H1623 0.930 . S
C1631 C1632 1.355 . S
C1631 C1633 1.415 . S
C1632 C1631 1.355 . S
C1632 C1634 1.419 . S
C1633 C1628 1.425 . S
C1633 C1630 1.409 . S
C1633 C1631 1.415 . S
C1634 H1624 0.930 . S
C1634 C1632 1.419 . S
C1634 C1635 1.362 . S
C1635 H1625 0.930 . S
C1635 C1628 1.409 . S
C1635 C1634 1.362 . S
H1636 C1642 0.930 . S
H1637 C1645 0.930 . S
H1638 C1646 0.930 . S
H1639 C1647 0.930 . S
H1640 C1650 0.930 . S
H1641 C1651 0.930 . S
C1642 H1636 0.930 . S
C1642 C1643 1.355 . S
C1642 C1644 1.415 . S
C1643 C1642 1.355 . S
C1643 C1645 1.419 . S
C1644 C1642 1.415 . S
C1644 C1649 1.425 . S
C1644 C1651 1.409 . S
C1645 H1637 0.930 . S
C1645 C1643 1.419 . S
C1645 C1646 1.362 . S
C1646 H1638 0.930 . S
C1646 C1645 1.362 . S
C1646 C1649 1.409 . S
C1647 H1639 0.930 . S
C1647 C1648 1.355 . S
C1647 C1649 1.415 . S
C1648 C1647 1.355 . S
C1648 C1650 1.419 . S
C1649 C1644 1.425 . S
C1649 C1646 1.409 . S
C1649 C1647 1.415 . S
C1650 H1640 0.930 . S
C1650 C1648 1.419 . S
C1650 C1651 1.362 . S
C1651 H1641 0.930 . S
C1651 C1644 1.409 . S
C1651 C1650 1.362 . S
H1652 C1658 0.930 . S
H1653 C1661 0.930 . S
H1654 C1662 0.930 . S
H1655 C1663 0.930 . S
H1656 C1666 0.930 . S
H1657 C1667 0.930 . S
C1658 H1652 0.930 . S
C1658 C1659 1.355 . S
C1658 C1660 1.415 . S
C1659 C1658 1.355 . S
C1659 C1661 1.419 . S
C1660 C1658 1.415 . S
C1660 C1665 1.425 . S
C1660 C1667 1.409 . S
C1661 H1653 0.930 . S
C1661 C1659 1.419 . S
C1661 C1662 1.362 . S
C1662 H1654 0.930 . S
C1662 C1661 1.362 . S
C1662 C1665 1.409 . S
C1663 H1655 0.930 . S
C1663 C1664 1.355 . S
C1663 C1665 1.415 . S
C1664 C1663 1.355 . S
C1664 C1666 1.419 . S
C1665 C1660 1.425 . S
C1665 C1662 1.409 . S
C1665 C1663 1.415 . S
C1666 H1656 0.930 . S
C1666 C1664 1.419 . S
C1666 C1667 1.362 . S
C1667 H1657 0.930 . S
C1667 C1660 1.409 . S
C1667 C1666 1.362 . S
H1668 C1674 0.930 . S
H1669 C1677 0.930 . S
H1670 C1678 0.930 . S
H1671 C1679 0.930 . S
H1672 C1682 0.930 . S
H1673 C1683 0.930 . S
C1674 H1668 0.930 . S
C1674 C1675 1.355 . S
C1674 C1676 1.415 . S
C1675 C1674 1.355 . S
C1675 C1677 1.419 . S
C1676 C1674 1.415 . S
C1676 C1681 1.425 . S
C1676 C1683 1.409 . S
C1677 H1669 0.930 . S
C1677 C1675 1.419 . S
C1677 C1678 1.362 . S
C1678 H1670 0.930 . S
C1678 C1677 1.362 . S
C1678 C1681 1.409 . S
C1679 H1671 0.930 . S
C1679 C1680 1.355 . S
C1679 C1681 1.415 . S
C1680 C1679 1.355 . S
C1680 C1682 1.419 . S
C1681 C1676 1.425 . S
C1681 C1678 1.409 . S
C1681 C1679 1.415 . S
C1682 H1672 0.930 . S
C1682 C1680 1.419 . S
C1682 C1683 1.362 . S
C1683 H1673 0.930 . S
C1683 C1676 1.409 . S
C1683 C1682 1.362 . S
H1684 C1690 0.930 . S
H1685 C1693 0.930 . S
H1686 C1694 0.930 . S
H1687 C1695 0.930 . S
H1688 C1698 0.930 . S
H1689 C1699 0.930 . S
C1690 H1684 0.930 . S
C1690 C1691 1.355 . S
C1690 C1692 1.415 . S
C1691 C1690 1.355 . S
C1691 C1693 1.419 . S
C1692 C1690 1.415 . S
C1692 C1697 1.425 . S
C1692 C1699 1.409 . S
C1693 H1685 0.930 . S
C1693 C1691 1.419 . S
C1693 C1694 1.362 . S
C1694 H1686 0.930 . S
C1694 C1693 1.362 . S
C1694 C1697 1.409 . S
C1695 H1687 0.930 . S
C1695 C1696 1.355 . S
C1695 C1697 1.415 . S
C1696 C1695 1.355 . S
C1696 C1698 1.419 . S
C1697 C1692 1.425 . S
C1697 C1694 1.409 . S
C1697 C1695 1.415 . S
C1698 H1688 0.930 . S
C1698 C1696 1.419 . S
C1698 C1699 1.362 . S
C1699 H1689 0.930 . S
C1699 C1692 1.409 . S
C1699 C1698 1.362 . S
H1700 C1706 0.930 . S
H1701 C1709 0.930 . S
H1702 C1710 0.930 . S
H1703 C1711 0.930 . S
H1704 C1714 0.930 . S
H1705 C1715 0.930 . S
C1706 H1700 0.930 . S
C1706 C1707 1.355 . S
C1706 C1708 1.415 . S
C1707 C1706 1.355 . S
C1707 C1709 1.419 . S
C1708 C1706 1.415 . S
C1708 C1713 1.425 . S
C1708 C1715 1.409 . S
C1709 H1701 0.930 . S
C1709 C1707 1.419 . S
C1709 C1710 1.362 . S
C1710 H1702 0.930 . S
C1710 C1709 1.362 . S
C1710 C1713 1.409 . S
C1711 H1703 0.930 . S
C1711 C1712 1.355 . S
C1711 C1713 1.415 . S
C1712 C1711 1.355 . S
C1712 C1714 1.419 . S
C1713 C1708 1.425 . S
C1713 C1710 1.409 . S
C1713 C1711 1.415 . S
C1714 H1704 0.930 . S
C1714 C1712 1.419 . S
C1714 C1715 1.362 . S
C1715 H1705 0.930 . S
C1715 C1708 1.409 . S
C1715 C1714 1.362 . S
C960 C334 1.189 . S
C955 N2 1.338 . S
C976 C434 2.078 . S
C971 C7 2.084 . S
C992 C514 1.272 . S
C987 N12 1.431 . S
C1003 C16 1.894 . S
C1008 C591 1.915 . S
C1024 C675 2.149 . S
C1019 C30 2.159 1_565 S
C1040 C754 0.970 . S
C1035 N35 1.245 . S
C1051 C39 2.019 . S
C1056 C854 1.989 . S
C1072 C934 1.074 . S
C1067 N25 1.128 . S
C1088 C332 1.135 . S
C1083 N58 1.158 . S
C1099 N81 1.928 . S
C1104 C427 1.923 . S
C1120 C518 1.232 . S
C1115 N104 1.117 . S
C1131 N127 1.184 . S
C1136 C586 0.919 . S
C1152 C670 0.690 . S
C1147 N48 0.975 . S
C1168 C752 1.442 . S
C1163 N71 1.350 1_556 S
C1179 N94 1.558 . S
C1184 C847 1.560 . S
C1200 C938 1.535 . S
C1195 N117 1.480 . S
C1211 C85 2.156 . S
C1216 C339 2.164 . S
C1227 C122 2.429 . S
C1232 C668 2.389 . S
C1243 C53 1.826 . S
C1248 C759 1.899 . S
C1264 C850 1.176 . S
C1259 C76 1.502 . S
C1280 C931 1.793 . S
C1275 C99 1.907 . S
C1296 C511 1.956 . S
C1291 C131 1.956 . S
C1312 C584 2.012 . S
C1307 C62 2.068 . S
C1323 C108 1.228 . S
C1328 C430 0.948 . S
C1344 C922 1.182 . S
C1339 N140 1.309 . S
C1355 C145 2.083 . S
C1360 C686 2.069 . S
C1376 C766 1.036 . S
C1371 N150 1.266 . S
C1387 C154 1.896 . S
C1392 C843 1.917 . S
C1408 C423 2.136 . S
C1403 C168 2.142 . S
C1419 N173 1.112 . S
C1424 C502 0.940 . S
C1440 C602 2.003 . S
C1435 C177 2.032 . S
C1456 C346 1.043 . S
C1451 N163 1.136 . S
C1472 C920 1.561 . S
C1467 C200 1.642 . S
C1488 C679 2.197 . S
C1483 N219 2.192 . S
C1499 N242 1.465 . S
C1504 C770 1.552 . S
C1520 C838 1.230 . S
C1515 C269 1.517 . S
C1536 C418 0.897 . S
C1531 C191 1.216 . S
C1547 N209 1.667 . S
C1552 C500 1.740 . S
C1563 N232 1.807 . S
C1568 C595 1.844 . S
C1579 C260 2.016 . S
C1584 C350 2.022 . S
C1595 C223 1.842 . S
C1600 C927 1.848 . S
C1611 N255 2.008 . S
C1616 C416 1.997 . S
C1627 N186 1.499 . S
C1632 C507 1.563 . S
C1648 C598 0.947 . S
C1643 C214 1.186 . S
C1664 C343 1.496 . S
C1659 C237 1.614 . S
C1680 C763 1.563 . S
C1675 N265 1.537 . S
C1696 C836 1.657 . S
C1691 N196 1.658 . S
C1712 C682 0.834 . S
C1707 C246 0.920 . S
