# Generated by pormake.
# Topology anh, (6,3)-cn, num edge types: 1
# Building blocks:
#     Node 0, Type 0, BuildingBlock: GEDQOX_clean_sbu_0, # of connection points: 6
#     Node 1, Type 0, BuildingBlock: GEDQOX_clean_sbu_0, # of connection points: 6
#     Node 2, Type 0, BuildingBlock: GEDQOX_clean_sbu_0, # of connection points: 6
#     Node 3, Type 1, BuildingBlock: WUSLED_clean_sbu_0, # of connection points: 3
#     Node 4, Type 1, BuildingBlock: WUSLED_clean_sbu_0, # of connection points: 3
#     Node 5, Type 1, BuildingBlock: WUSLED_clean_sbu_0, # of connection points: 3
#     Node 6, Type 1, BuildingBlock: WUSLED_clean_sbu_0, # of connection points: 3
#     Node 7, Type 1, BuildingBlock: WUSLED_clean_sbu_0, # of connection points: 3
#     Node 8, Type 1, BuildingBlock: WUSLED_clean_sbu_0, # of connection points: 3
#     Edge 9, Type (0, 1), BuildingBlock: UVAHIK_clean_linker_0, # of connection points: 2
#     Edge 10, Type (0, 1), BuildingBlock: UVAHIK_clean_linker_0, # of connection points: 2
#     Edge 11, Type (0, 1), BuildingBlock: UVAHIK_clean_linker_0, # of connection points: 2
#     Edge 12, Type (0, 1), BuildingBlock: UVAHIK_clean_linker_0, # of connection points: 2
#     Edge 13, Type (0, 1), BuildingBlock: UVAHIK_clean_linker_0, # of connection points: 2
#     Edge 14, Type (0, 1), BuildingBlock: UVAHIK_clean_linker_0, # of connection points: 2
#     Edge 15, Type (0, 1), BuildingBlock: UVAHIK_clean_linker_0, # of connection points: 2
#     Edge 16, Type (0, 1), BuildingBlock: UVAHIK_clean_linker_0, # of connection points: 2
#     Edge 17, Type (0, 1), BuildingBlock: UVAHIK_clean_linker_0, # of connection points: 2
#     Edge 18, Type (0, 1), BuildingBlock: UVAHIK_clean_linker_0, # of connection points: 2
#     Edge 19, Type (0, 1), BuildingBlock: UVAHIK_clean_linker_0, # of connection points: 2
#     Edge 20, Type (0, 1), BuildingBlock: UVAHIK_clean_linker_0, # of connection points: 2
#     Edge 21, Type (0, 1), BuildingBlock: UVAHIK_clean_linker_0, # of connection points: 2
#     Edge 22, Type (0, 1), BuildingBlock: UVAHIK_clean_linker_0, # of connection points: 2
#     Edge 23, Type (0, 1), BuildingBlock: UVAHIK_clean_linker_0, # of connection points: 2
#     Edge 24, Type (0, 1), BuildingBlock: UVAHIK_clean_linker_0, # of connection points: 2
#     Edge 25, Type (0, 1), BuildingBlock: UVAHIK_clean_linker_0, # of connection points: 2
#     Edge 26, Type (0, 1), BuildingBlock: UVAHIK_clean_linker_0, # of connection points: 2
# Relax obj value: 0.152
# Max RMSD: 0.194
# Mean RMSD: 0.145
data_MOF--net-anh--node1-GEDQOX_clean_sbu_0--node2-WUSLED_clean_sbu_0--edge1-UVAHIK_clean_linker_0
_symmetry_space_group_name_H-M    P1
_symmetry_Int_Tables_number       1
_symmetry_cell_setting            triclinic
loop_
_symmetry_equiv_pos_as_xyz
'x, y, z'
_cell_length_a     49.106237
_cell_length_b     47.210393
_cell_length_c     84.941757
_cell_angle_alpha  93.156913
_cell_angle_beta   90.358703
_cell_angle_gamma 110.28433
loop_
_atom_site_label
_atom_site_type_symbol
_atom_site_fract_x
_atom_site_fract_y
_atom_site_fract_z
_atom_type_partial_charge
Nd0 Nd 0.06513 0.52793 0.168 0.0
Nd1 Nd 0.04194 0.46105 0.16747 0.0
C2 C 0.09506 0.58554 0.16392 0.0
C3 C 0.12557 0.60661 0.16538 0.0
C4 C 0.14085 0.61758 0.15178 0.0
C5 C 0.16901 0.63893 0.15298 0.0
C6 C 0.18252 0.64983 0.16783 0.0
C7 C 0.16748 0.63832 0.18143 0.0
C8 C 0.13931 0.61702 0.18024 0.0
C9 C 0.04899 0.50649 0.19697 0.0
C10 C 0.11249 0.48987 0.16682 0.0
C11 C 1.01134 0.40395 0.17194 0.0
C12 C 0.98017 0.38542 0.17229 0.0
C13 C 0.96152 0.39297 0.18287 0.0
C14 C 0.93236 0.37451 0.1834 0.0
C15 C 0.92118 0.34825 0.17331 0.0
C16 C 0.93954 0.34143 0.16227 0.0
C17 C 0.9688 0.35979 0.16183 0.0
C18 C 0.05661 0.48399 0.13894 0.0
C19 C 0.99435 0.49768 0.16387 0.0
O20 O 0.08863 0.56445 0.15244 0.0
O21 O 0.08185 0.57593 0.17694 0.0
O22 O 0.04362 0.52906 0.19139 0.0
O23 O 0.0631 0.49573 0.18735 0.0
O24 O 0.10803 0.516 0.16599 0.0
O25 O 0.09032 0.46463 0.16877 0.0
O26 O 1.02215 0.4244 0.18354 0.0
O27 O 1.02102 0.41349 0.15821 0.0
O28 O 0.0613 0.46007 0.14314 0.0
O29 O 0.04281 0.49351 0.14903 0.0
O30 O 0.9988 0.47244 0.16732 0.0
O31 O 1.01702 0.52259 0.16188 0.0
H32 H 0.13084 0.60998 0.14018 0.0
H33 H 0.18016 0.64707 0.14227 0.0
H34 H 0.17711 0.6465 0.19306 0.0
H35 H 0.12818 0.60918 0.19099 0.0
H36 H 0.96948 0.41291 0.19088 0.0
H37 H 0.91858 0.38059 0.19185 0.0
H38 H 0.93158 0.32132 0.15438 0.0
H39 H 0.98269 0.3537 0.15344 0.0
Nd40 Nd 0.50961 0.00824 0.5152 0.0
Nd41 Nd 0.57332 0.03212 0.51415 0.0
C42 C 0.4553 0.9753 0.5209 0.0
C43 C 0.43609 0.94337 0.5179 0.0
C44 C 0.42943 0.92358 0.53025 0.0
C45 C 0.40924 0.89421 0.52784 0.0
C46 C 0.39514 0.88425 0.51308 0.0
C47 C 0.40295 0.90346 0.50054 0.0
C48 C 0.42316 0.93269 0.50291 0.0
C49 C 0.52991 0.01981 0.48527 0.0
C50 C 0.54571 0.96048 0.51307 0.0
C51 C 0.62821 0.06439 0.50923 0.0
C52 C 0.64652 0.09677 0.5088 0.0
C53 C 0.64775 0.11232 0.49503 0.0
C54 C 0.66721 0.14184 0.49414 0.0
C55 C 0.68597 0.15649 0.50697 0.0
C56 C 0.68368 0.1416 0.52104 0.0
C57 C 0.66425 0.11197 0.52192 0.0
C58 C 0.55307 0.01914 0.54383 0.0
C59 C 0.53678 0.07945 0.51665 0.0
O60 O 0.47664 0.98065 0.53121 0.0
O61 O 0.46276 0.99182 0.50871 0.0
O62 O 0.50733 0.02501 0.49057 0.0
O63 O 0.5401 0.00712 0.49529 0.0
O64 O 0.52196 0.96579 0.5171 0.0
O65 O 0.56911 0.98259 0.50905 0.0
O66 O 0.60883 0.05273 0.49783 0.0
O67 O 0.61876 0.05462 0.52296 0.0
O68 O 0.57436 0.01218 0.53789 0.0
O69 O 0.54297 0.03279 0.53419 0.0
O70 O 0.56055 0.07462 0.51209 0.0
O71 O 0.51384 0.05719 0.5209 0.0
H72 H 0.43915 0.93113 0.54191 0.0
H73 H 0.40358 0.87988 0.53772 0.0
H74 H 0.39272 0.89615 0.48896 0.0
H75 H 0.42798 0.94713 0.49307 0.0
H76 H 0.63428 0.10143 0.48474 0.0
H77 H 0.66818 0.15295 0.48323 0.0
H78 H 0.69794 0.15223 0.53109 0.0
H79 H 0.66381 0.10064 0.53271 0.0
Nd80 Nd 0.52374 0.50725 0.8376 0.0
Nd81 Nd 0.59358 0.53913 0.84083 0.0
C82 C 0.47184 0.48785 0.82514 0.0
C83 C 0.45419 0.50676 0.82361 0.0
C84 C 0.44686 0.51278 0.80853 0.0
C85 C 0.43337 0.53388 0.80678 0.0
C86 C 0.42632 0.54855 0.82013 0.0
C87 C 0.43527 0.54387 0.83518 0.0
C88 C 0.44923 0.5232 0.8369 0.0
C89 C 0.54161 0.51793 0.86914 0.0
C90 C 0.55387 0.58207 0.84015 0.0
C91 C 0.64639 0.55508 0.8511 0.0
C92 C 0.66362 0.53591 0.84736 0.0
C93 C 0.65764 0.50838 0.85463 0.0
C94 C 0.6722 0.48887 0.85021 0.0
C95 C 0.69331 0.49692 0.83871 0.0
C96 C 0.6971 0.52268 0.83027 0.0
C97 C 0.68256 0.54227 0.83469 0.0
C98 C 0.57562 0.5302 0.80931 0.0
C99 C 0.56365 0.46418 0.83707 0.0
O100 O 0.49494 0.49577 0.81649 0.0
O101 O 0.47687 0.4819 0.83954 0.0
O102 O 0.51451 0.50666 0.86453 0.0
O103 O 0.55693 0.52385 0.85707 0.0
O104 O 0.53055 0.55797 0.83626 0.0
O105 O 0.57922 0.58019 0.84427 0.0
O106 O 0.62463 0.54359 0.86045 0.0
O107 O 0.63966 0.56773 0.83901 0.0
O108 O 0.60247 0.54338 0.81405 0.0
O109 O 0.56055 0.52263 0.82138 0.0
O110 O 0.58773 0.48821 0.83919 0.0
O111 O 0.5375 0.46595 0.83567 0.0
H112 H 0.45175 0.50129 0.79811 0.0
H113 H 0.42695 0.53751 0.79505 0.0
H114 H 0.42991 0.55467 0.8457 0.0
H115 H 0.45589 0.52003 0.84867 0.0
H116 H 0.64221 0.50209 0.86399 0.0
H117 H 0.66917 0.4691 0.85685 0.0
H118 H 0.71351 0.52935 0.82139 0.0
H119 H 0.68662 0.56266 0.82842 0.0
C120 C 0.59184 0.07668 0.21001 0.0
C121 C 0.60471 0.1013 0.2209 0.0
C122 C 0.6435 0.12357 0.20264 0.0
C123 C 0.63022 0.12458 0.21723 0.0
C124 C 0.63046 0.09871 0.19183 0.0
C125 C 0.60489 0.07558 0.19548 0.0
U126 U 0.53986 0.02919 0.23963 0.0
O127 O 0.49206 0.00879 0.2389 0.0
O128 O 0.51873 0.97989 0.23993 0.0
C129 C 0.49244 0.98109 0.239 0.0
C130 C 0.56529 0.05162 0.21371 0.0
C131 C 0.4714 0.95765 0.22857 0.0
C132 C 0.45312 0.93248 0.20283 0.0
C133 C 0.47277 0.95683 0.21201 0.0
C134 C 0.43076 0.91028 0.22668 0.0
C135 C 0.43235 0.90866 0.21017 0.0
C136 C 0.45001 0.93448 0.23574 0.0
C137 C 0.55878 0.04959 0.28404 0.0
C138 C 0.52827 0.02807 0.30598 0.0
C139 C 0.57869 0.05928 0.31086 0.0
C140 C 0.58213 0.06308 0.29472 0.0
C141 C 0.55169 0.04194 0.31678 0.0
C142 C 0.5318 0.03186 0.28974 0.0
C143 C 0.56355 0.05434 0.26711 0.0
O144 O 0.56964 0.02903 0.22038 0.0
O145 O 0.54445 0.05938 0.22021 0.0
O146 O 0.54452 0.06274 0.25948 0.0
O147 O 0.57128 0.03393 0.25907 0.0
H148 H 0.59506 0.10251 0.23224 0.0
H149 H 0.63938 0.14348 0.22578 0.0
H150 H 0.64026 0.09679 0.18063 0.0
H151 H 0.59541 0.05664 0.18698 0.0
H152 H 0.45471 0.93176 0.19011 0.0
H153 H 0.48922 0.97458 0.20628 0.0
H154 H 0.41468 0.89252 0.23263 0.0
H155 H 0.44855 0.93478 0.24847 0.0
H156 H 0.50713 0.0147 0.31009 0.0
H157 H 0.59739 0.06972 0.3187 0.0
H158 H 0.60319 0.07661 0.29054 0.0
H159 H 0.5135 0.02109 0.28166 0.0
C160 C 0.52711 0.5933 0.53699 0.0
C161 C 0.52447 0.61191 0.54991 0.0
C162 C 0.52975 0.65309 0.53259 0.0
C163 C 0.5257 0.64159 0.54772 0.0
C164 C 0.53208 0.63409 0.51973 0.0
C165 C 0.53078 0.60456 0.52193 0.0
U166 U 0.52736 0.52273 0.55916 0.0
O167 O 0.55096 0.49267 0.5514 0.0
O168 O 0.50273 0.47501 0.55118 0.0
C169 C 0.5268 0.47012 0.54757 0.0
C170 C 0.52641 0.56216 0.53859 0.0
C171 C 0.52744 0.43953 0.54402 0.0
C172 C 0.52089 0.39739 0.5248 0.0
C173 C 0.51913 0.42582 0.52883 0.0
C174 C 0.53908 0.39592 0.5512 0.0
C175 C 0.53096 0.38208 0.53592 0.0
C176 C 0.53743 0.42446 0.55519 0.0
C177 C 0.53132 0.53341 0.60644 0.0
C178 C 0.52872 0.50208 0.62874 0.0
C179 C 0.53833 0.55572 0.63336 0.0
C180 C 0.53683 0.55855 0.61713 0.0
C181 C 0.53457 0.52756 0.6395 0.0
C182 C 0.52712 0.50498 0.61232 0.0
C183 C 0.52968 0.53859 0.58948 0.0
O184 O 0.55041 0.55921 0.54386 0.0
O185 O 0.50285 0.543 0.54435 0.0
O186 O 0.50516 0.52483 0.58149 0.0
O187 O 0.55295 0.54272 0.58103 0.0
H188 H 0.52166 0.60358 0.56164 0.0
H189 H 0.52405 0.65571 0.55789 0.0
H190 H 0.53471 0.64196 0.50791 0.0
H191 H 0.53272 0.59045 0.5118 0.0
H192 H 0.51486 0.38766 0.51288 0.0
H193 H 0.5117 0.43736 0.51997 0.0
H194 H 0.54652 0.38458 0.56013 0.0
H195 H 0.54399 0.43476 0.56696 0.0
H196 H 0.52583 0.48003 0.63297 0.0
H197 H 0.54215 0.57577 0.64112 0.0
H198 H 0.53987 0.58065 0.61288 0.0
H199 H 0.52273 0.48519 0.60429 0.0
C200 C 1.0328 0.5367 0.86969 0.0
C201 C 1.00996 0.53598 0.87963 0.0
C202 C 0.98494 0.54851 0.85801 0.0
C203 C 0.98613 0.54175 0.87382 0.0
C204 C 1.0082 0.54987 0.84815 0.0
C205 C 1.03215 0.54399 0.85401 0.0
U206 U 0.06828 0.52483 0.90564 0.0
O207 O 0.09336 0.49571 0.91093 0.0
O208 O 0.11338 0.54527 0.91443 0.0
C209 C 0.11758 0.51936 0.91206 0.0
C210 C 0.05755 0.53103 0.87624 0.0
C211 C 0.13804 0.52036 0.89958 0.0
C212 C 0.14385 0.51918 0.87123 0.0
C213 C 0.12674 0.50998 0.88422 0.0
C214 C 0.18432 0.54813 0.88875 0.0
C215 C 0.17251 0.53889 0.8734 0.0
C216 C 0.16711 0.53898 0.9018 0.0
C217 C 0.03699 0.52782 0.94426 0.0
C218 C 0.06868 0.52605 0.96578 0.0
C219 C 1.02139 0.52976 0.97101 0.0
C220 C 1.01607 0.52985 0.95488 0.0
C221 C 0.04772 0.52782 0.97651 0.0
C222 C 0.06328 0.52595 0.94974 0.0
C223 C 1.03245 0.52832 0.92742 0.0
O224 O 0.07404 0.55352 0.88563 0.0
O225 O 0.05114 0.5044 0.88218 0.0
O226 O 1.02988 0.50275 0.91946 0.0
O227 O 0.05075 0.55234 0.92131 0.0
H228 H 1.01045 0.53057 0.89184 0.0
H229 H 0.96819 0.53979 0.88156 0.0
H230 H 1.00761 0.55501 0.83591 0.0
H231 H 0.04995 0.54492 0.84635 0.0
H232 H 0.13443 0.51172 0.85949 0.0
H233 H 0.10408 0.49631 0.88214 0.0
H234 H 0.20674 0.56277 0.89065 0.0
H235 H 0.17593 0.54786 0.9135 0.0
H236 H 0.08892 0.52409 0.96979 0.0
H237 H 1.00504 0.53125 0.97919 0.0
H238 H 0.99579 0.53147 0.95072 0.0
H239 H 0.07961 0.52436 0.94156 0.0
C240 C 0.98054 0.47242 0.47141 0.0
C241 C 0.96199 0.45463 0.45923 0.0
C242 C 0.9308 0.42313 0.47847 0.0
C243 C 0.93731 0.43023 0.46272 0.0
C244 C 0.94948 0.44125 0.49061 0.0
C245 C 0.97409 0.46567 0.4871 0.0
U246 U 1.0322 0.51817 0.44162 0.0
O247 O 0.05667 0.56693 0.44123 0.0
O248 O 0.07993 0.53469 0.44134 0.0
C249 C 0.08197 0.56322 0.44187 0.0
C250 C 1.00709 0.49741 0.46785 0.0
C251 C 0.10375 0.58368 0.4531 0.0
C252 C 0.11971 0.60676 0.47945 0.0
C253 C 0.09851 0.58609 0.46929 0.0
C254 C 0.15145 0.62203 0.45734 0.0
C255 C 0.14623 0.62491 0.47344 0.0
C256 C 0.13038 0.60158 0.44726 0.0
C257 C 1.01426 0.49518 0.39764 0.0
C258 C 0.03705 0.52466 0.37562 0.0
C259 C 1.00934 0.47118 0.37126 0.0
C260 C 1.00337 0.46946 0.38729 0.0
C261 C 1.02623 0.49875 0.36524 0.0
C262 C 1.03128 0.52285 0.39175 0.0
C263 C 1.00774 0.49221 0.41449 0.0
O264 O 1.02761 0.48903 0.46147 0.0
O265 O 1.00306 0.51995 0.46094 0.0
O266 O 1.00182 0.51456 0.42183 0.0
O267 O 1.02484 0.48224 0.42277 0.0
H268 H 0.96671 0.45952 0.44702 0.0
H269 H 0.92326 0.41705 0.45308 0.0
H270 H 0.94545 0.4362 0.50284 0.0
H271 H 0.9883 0.47908 0.49663 0.0
H272 H 0.11531 0.60893 0.49185 0.0
H273 H 0.07801 0.57235 0.47398 0.0
H274 H 0.17171 0.63607 0.45252 0.0
H275 H 0.13476 0.60001 0.43481 0.0
H276 H 0.05028 0.54616 0.3713 0.0
H277 H 1.0004 0.45096 0.36351 0.0
H278 H 0.99019 0.44794 0.39162 0.0
H279 H 0.0401 0.54295 0.3996 0.0
C280 C 0.54249 0.93831 0.81374 0.0
C281 C 0.53641 0.91744 0.80063 0.0
C282 C 0.54435 0.87976 0.81692 0.0
C283 C 0.53724 0.8883 0.80223 0.0
C284 C 0.55014 0.90082 0.82996 0.0
C285 C 0.54921 0.92973 0.82837 0.0
U286 U 0.54013 0.00875 0.79257 0.0
O287 O 0.56488 0.05608 0.80021 0.0
O288 O 0.51683 0.03914 0.801 0.0
C289 C 0.54135 0.0615 0.80443 0.0
C290 C 0.54204 0.96916 0.81278 0.0
C291 C 0.54224 0.09293 0.80653 0.0
C292 C 0.53899 0.13342 0.82454 0.0
C293 C 0.53625 0.10318 0.82147 0.0
C294 C 0.55335 0.14363 0.79761 0.0
C295 C 0.54769 0.15413 0.81268 0.0
C296 C 0.55074 0.11326 0.79457 0.0
C297 C 0.53592 0.9992 0.74556 0.0
C298 C 0.54347 0.03266 0.7239 0.0
C299 C 0.52857 0.97847 0.71841 0.0
C300 C 0.52825 0.97437 0.73454 0.0
C301 C 0.53658 0.00764 0.71282 0.0
C302 C 0.54333 0.02849 0.7402 0.0
C303 C 0.53741 0.99295 0.7623 0.0
O304 O 0.56532 0.98911 0.80725 0.0
O305 O 0.51774 0.97167 0.80766 0.0
O306 O 0.51421 0.98896 0.77078 0.0
O307 O 0.56202 0.00641 0.77024 0.0
H308 H 0.53117 0.92371 0.78923 0.0
H309 H 0.53283 0.87265 0.79193 0.0
H310 H 0.55515 0.89487 0.84149 0.0
H311 H 0.55377 0.94549 0.83864 0.0
H312 H 0.53495 0.1407 0.83634 0.0
H313 H 0.53005 0.08786 0.83092 0.0
H314 H 0.55975 0.15887 0.78815 0.0
H315 H 0.55559 0.10575 0.78299 0.0
H316 H 0.54976 0.05542 0.71997 0.0
H317 H 0.52259 0.95867 0.71028 0.0
H318 H 0.52247 0.95158 0.73844 0.0
H319 H 0.5494 0.04799 0.74854 0.0
C320 C 0.6305 0.49123 0.13702 0.0
C321 C 0.64363 0.47867 0.12515 0.0
C322 C 0.68987 0.49182 0.14097 0.0
C323 C 0.67269 0.47918 0.12702 0.0
C324 C 0.6761 0.50405 0.15278 0.0
C325 C 0.64743 0.50392 0.15079 0.0
U326 U 0.55143 0.48931 0.12058 0.0
O327 O 0.50859 0.46283 0.13033 0.0
O328 O 0.52408 0.51213 0.13289 0.0
C329 C 0.50317 0.48686 0.13585 0.0
C330 C 0.59901 0.48979 0.13635 0.0
C331 C 0.47196 0.48623 0.13681 0.0
C332 C 0.42948 0.48102 0.15338 0.0
C333 C 0.45808 0.48104 0.15138 0.0
C334 C 0.42709 0.49157 0.12614 0.0
C335 C 0.41303 0.48651 0.14089 0.0
C336 C 0.45589 0.49143 0.12415 0.0
C337 C 0.55341 0.4936 0.07233 0.0
C338 C 0.53406 0.50478 0.04781 0.0
C339 C 0.57541 0.48821 0.04713 0.0
C340 C 0.5743 0.48596 0.06358 0.0
C341 C 0.5553 0.4977 0.03888 0.0
C342 C 0.53333 0.50304 0.06429 0.0
C343 C 0.55272 0.49203 0.08978 0.0
O344 O 0.59318 0.51428 0.13365 0.0
O345 O 0.57859 0.46507 0.13056 0.0
O346 O 0.5452 0.46624 0.09666 0.0
O347 O 0.5594 0.51634 0.09943 0.0
H348 H 0.63143 0.46833 0.1144 0.0
H349 H 0.68147 0.46962 0.11732 0.0
H350 H 0.68699 0.51342 0.16395 0.0
H351 H 0.63815 0.51339 0.16036 0.0
H352 H 0.42035 0.47623 0.16488 0.0
H353 H 0.46955 0.47699 0.16147 0.0
H354 H 0.41615 0.49622 0.11605 0.0
H355 H 0.46563 0.49564 0.11272 0.0
H356 H 0.51765 0.51146 0.04212 0.0
H357 H 0.59247 0.48301 0.04096 0.0
H358 H 0.59014 0.47874 0.06952 0.0
H359 H 0.51685 0.50884 0.07074 0.0
C360 C 0.14846 0.46972 0.15255 0.0
C361 C 0.1429 0.48875 0.16455 0.0
C362 C 0.17692 0.46945 0.1499 0.0
C363 C 0.25315 0.49362 0.16892 0.0
H364 H 0.27478 0.47547 0.12694 0.0
C365 C 0.37175 0.49154 0.15856 0.0
C366 C 0.38189 0.48695 0.14338 0.0
C367 C 0.34313 0.49137 0.16103 0.0
C368 C 0.2699 0.48076 0.13887 0.0
H369 H 0.16384 0.52233 0.18325 0.0
H370 H 0.21288 0.52143 0.17906 0.0
H371 H 0.22662 0.47641 0.13134 0.0
H372 H 0.36739 0.47865 0.11883 0.0
H373 H 0.3192 0.47958 0.12284 0.0
H374 H 0.29606 0.49871 0.17661 0.0
C375 C 0.19537 0.50659 0.17149 0.0
C376 C 0.24137 0.48096 0.14143 0.0
C377 C 0.16698 0.50731 0.1739 0.0
C378 C 0.36155 0.48264 0.13078 0.0
C379 C 0.33295 0.48284 0.13322 0.0
C380 C 0.28169 0.49353 0.16638 0.0
C381 C 0.20121 0.4878 0.15934 0.0
C382 C 0.23216 0.48743 0.15654 0.0
C383 C 0.3226 0.48708 0.14847 0.0
C384 C 0.29121 0.48712 0.15124 0.0
H385 H 0.13074 0.45531 0.14492 0.0
H386 H 0.17967 0.45437 0.14048 0.0
H387 H 0.24754 0.49825 0.18085 0.0
H388 H 0.38598 0.49575 0.16884 0.0
H389 H 0.33761 0.49471 0.17308 0.0
C390 C 0.72648 0.18947 0.49145 0.0
C391 C 0.7098 0.18572 0.50507 0.0
C392 C 0.7502 0.21585 0.48982 0.0
C393 C 0.78244 0.29579 0.50284 0.0
H394 H 0.85323 0.28631 0.48752 0.0
C395 C 0.88841 0.39798 0.49552 0.0
C396 C 0.90502 0.39662 0.48224 0.0
C397 C 0.86474 0.37278 0.49931 0.0
C398 C 0.83356 0.28943 0.49163 0.0
H399 H 0.70461 0.20704 0.52756 0.0
H400 H 0.74627 0.25365 0.52462 0.0
H401 H 0.81152 0.24173 0.49249 0.0
H402 H 0.90953 0.36746 0.46253 0.0
H403 H 0.86779 0.32403 0.46878 0.0
H404 H 0.80426 0.34351 0.50162 0.0
C405 C 0.74083 0.23595 0.51524 0.0
C406 C 0.8097 0.26386 0.49454 0.0
C407 C 0.71714 0.20928 0.51695 0.0
C408 C 0.89711 0.36951 0.47275 0.0
C409 C 0.87338 0.34439 0.47648 0.0
C410 C 0.80631 0.32146 0.49981 0.0
C411 C 0.75783 0.23926 0.50173 0.0
C412 C 0.78374 0.26672 0.49994 0.0
C413 C 0.857 0.34561 0.48988 0.0
C414 C 0.83203 0.31856 0.49393 0.0
H415 H 0.72167 0.17161 0.48218 0.0
H416 H 0.76265 0.2179 0.4792 0.0
H417 H 0.76265 0.29865 0.50693 0.0
H418 H 0.89362 0.41859 0.50299 0.0
H419 H 0.85279 0.3745 0.50977 0.0
C420 C 0.52783 0.61641 0.83173 0.0
C421 C 0.55217 0.61272 0.83893 0.0
C422 C 0.5273 0.64535 0.82942 0.0
C423 C 0.55967 0.72543 0.84352 0.0
H424 H 0.53356 0.74098 0.80278 0.0
C425 C 0.56852 0.84589 0.82796 0.0
C426 C 0.54597 0.84919 0.8188 0.0
C427 C 0.56968 0.81724 0.83028 0.0
C428 C 0.5405 0.73699 0.81431 0.0
H429 H 0.59485 0.63685 0.84959 0.0
H430 H 0.59367 0.68721 0.84571 0.0
H431 H 0.53442 0.6908 0.80742 0.0
H432 H 0.50687 0.8248 0.80491 0.0
H433 H 0.50858 0.77472 0.8091 0.0
H434 H 0.56529 0.77135 0.85057 0.0
C435 C 0.57501 0.66768 0.84187 0.0
C436 C 0.54107 0.70819 0.81694 0.0
C437 C 0.57568 0.63875 0.84405 0.0
C438 C 0.52473 0.82308 0.81187 0.0
C439 C 0.52576 0.79434 0.81427 0.0
C440 C 0.55884 0.75416 0.84094 0.0
C441 C 0.55094 0.67131 0.83438 0.0
C442 C 0.55058 0.70205 0.83158 0.0
C443 C 0.54822 0.791 0.82356 0.0
C444 C 0.54922 0.76036 0.8263 0.0
H445 H 0.50937 0.59695 0.82757 0.0
H446 H 0.5083 0.64742 0.82377 0.0
H447 H 0.56687 0.72134 0.85498 0.0
H448 H 0.5855 0.86557 0.83327 0.0
H449 H 0.58763 0.81574 0.83722 0.0
C450 C 0.93951 0.46989 0.15966 0.0
C451 C 0.96328 0.49736 0.16173 0.0
C452 C 0.91062 0.46927 0.15752 0.0
C453 C 0.86302 0.51867 0.16143 0.0
H454 H 0.80711 0.45091 0.13772 0.0
C455 C 0.74047 0.51065 0.15545 0.0
C456 C 0.72144 0.49224 0.14332 0.0
C457 C 0.76916 0.51083 0.15783 0.0
C458 C 0.82211 0.47041 0.14426 0.0
H459 H 0.97406 0.54595 0.16331 0.0
H460 H 0.92431 0.54505 0.15965 0.0
H461 H 0.85672 0.45278 0.14103 0.0
H462 H 0.72034 0.45923 0.12419 0.0
H463 H 0.76972 0.46096 0.12763 0.0
H464 H 0.82899 0.53705 0.16414 0.0
C465 C 0.92776 0.52364 0.1597 0.0
C466 C 0.85108 0.47122 0.14642 0.0
C467 C 0.95672 0.52423 0.1617 0.0
C468 C 0.73331 0.47425 0.13361 0.0
C469 C 0.76226 0.47486 0.13581 0.0
C470 C 0.83413 0.51802 0.15915 0.0
C471 C 0.90386 0.49612 0.15747 0.0
C472 C 0.8724 0.49534 0.15509 0.0
C473 C 0.78112 0.49312 0.14803 0.0
C474 C 0.81268 0.49384 0.1505 0.0
H475 H 0.94321 0.44855 0.15957 0.0
H476 H 0.8935 0.44741 0.15613 0.0
H477 H 0.87797 0.53763 0.1684 0.0
H478 H 0.73367 0.52556 0.16329 0.0
H479 H 0.78176 0.52499 0.16762 0.0
C480 C 0.3714 0.82825 0.51647 0.0
C481 C 0.37018 0.85543 0.51107 0.0
C482 C 0.34737 0.80137 0.51428 0.0
C483 C 0.28031 0.76857 0.48937 0.0
H484 H 0.25423 0.7097 0.52113 0.0
C485 C 0.16852 0.67839 0.48331 0.0
C486 C 0.1681 0.64859 0.48337 0.0
C487 C 0.19286 0.70232 0.48914 0.0
C488 C 0.26142 0.72597 0.51217 0.0
H489 H 0.34251 0.87617 0.50002 0.0
H490 H 0.30082 0.82993 0.49648 0.0
H491 H 0.29869 0.75402 0.52606 0.0
H492 H 0.19165 0.61989 0.49023 0.0
H493 H 0.23445 0.66202 0.50074 0.0
H494 H 0.24304 0.74113 0.47561 0.0
C495 C 0.32046 0.82885 0.50187 0.0
C496 C 0.28689 0.7512 0.51494 0.0
C497 C 0.34437 0.85542 0.5039 0.0
C498 C 0.19151 0.64279 0.4903 0.0
C499 C 0.21591 0.66681 0.49626 0.0
C500 C 0.2549 0.74374 0.48671 0.0
C501 C 0.32172 0.80137 0.50677 0.0
C502 C 0.29627 0.7731 0.50365 0.0
C503 C 0.21723 0.69684 0.4951 0.0
C504 C 0.24487 0.72247 0.49817 0.0
H505 H 0.39105 0.82771 0.5221 0.0
H506 H 0.34907 0.78056 0.51816 0.0
H507 H 0.28735 0.78442 0.4802 0.0
H508 H 0.15077 0.68327 0.47785 0.0
H509 H 0.19323 0.72526 0.48828 0.0
C510 C 0.58978 0.42783 0.83037 0.0
C511 C 0.56534 0.43343 0.83626 0.0
C512 C 0.58983 0.39811 0.8286 0.0
C513 C 0.55553 0.32166 0.84269 0.0
H514 H 0.5755 0.29365 0.80213 0.0
C515 C 0.53152 0.19465 0.82578 0.0
C516 C 0.55121 0.18656 0.81616 0.0
C517 C 0.53477 0.22507 0.82899 0.0
C518 C 0.57036 0.30115 0.81364 0.0
H519 H 0.52235 0.41254 0.84551 0.0
H520 H 0.52278 0.36109 0.84277 0.0
H521 H 0.57948 0.34639 0.80664 0.0
H522 H 0.59044 0.20437 0.80288 0.0
H523 H 0.59623 0.25729 0.8085 0.0
H524 H 0.54659 0.27659 0.84979 0.0
C525 C 0.54173 0.37946 0.83936 0.0
C526 C 0.5726 0.33141 0.81619 0.0
C527 C 0.54145 0.40895 0.84083 0.0
C528 C 0.57448 0.20971 0.81003 0.0
C529 C 0.5778 0.24012 0.81328 0.0
C530 C 0.55358 0.29145 0.84021 0.0
C531 C 0.56574 0.37363 0.83305 0.0
C532 C 0.56502 0.34195 0.8307 0.0
C533 C 0.55786 0.24826 0.82269 0.0
C534 C 0.56078 0.2807 0.8256 0.0
H535 H 0.60845 0.44624 0.82671 0.0
H536 H 0.60869 0.39425 0.82376 0.0
H537 H 0.54972 0.32921 0.85404 0.0
H538 H 0.51318 0.17745 0.83061 0.0
H539 H 0.51873 0.23032 0.83611 0.0
C540 C 0.52303 0.90811 0.52184 0.0
C541 C 0.54563 0.92916 0.514 0.0
C542 C 0.52258 0.87872 0.52335 0.0
C543 C 0.5482 0.81995 0.50632 0.0
H544 H 0.53083 0.78714 0.54745 0.0
C545 C 0.5525 0.70245 0.51987 0.0
C546 C 0.53192 0.68483 0.53013 0.0
C547 C 0.55463 0.73222 0.51747 0.0
C548 C 0.53528 0.7957 0.53582 0.0
H549 H 0.58532 0.93552 0.50136 0.0
H550 H 0.58428 0.8835 0.50384 0.0
H551 H 0.53453 0.83912 0.54395 0.0
H552 H 0.49696 0.6846 0.54562 0.0
H553 H 0.50042 0.73637 0.54135 0.0
H554 H 0.54836 0.77629 0.4981 0.0
C555 C 0.56699 0.8901 0.50885 0.0
C556 C 0.53757 0.82561 0.53384 0.0
C557 C 0.56766 0.91987 0.50749 0.0
C558 C 0.51338 0.69768 0.53785 0.0
C559 C 0.51541 0.72743 0.53539 0.0
C560 C 0.54567 0.78985 0.50827 0.0
C561 C 0.54457 0.86935 0.51696 0.0
C562 C 0.54387 0.83804 0.51906 0.0
C563 C 0.5362 0.7452 0.52525 0.0
C564 C 0.53903 0.77726 0.52305 0.0
H565 H 0.50568 0.91437 0.52705 0.0
H566 H 0.50481 0.86319 0.52948 0.0
H567 H 0.55275 0.82881 0.49476 0.0
H568 H 0.56738 0.69341 0.51387 0.0
H569 H 0.5712 0.74525 0.50977 0.0
C570 C 0.73056 0.47913 0.82636 0.0
C571 C 0.71812 0.48699 0.83996 0.0
C572 C 0.75995 0.48281 0.82667 0.0
C573 C 0.8229 0.53775 0.84223 0.0
H574 H 0.86497 0.48202 0.83763 0.0
C575 C 0.94202 0.56479 0.86046 0.0
C576 C 0.95785 0.55022 0.85154 0.0
C577 C 0.91321 0.55975 0.85636 0.0
C578 C 0.85347 0.49788 0.83853 0.0
H579 H 0.72524 0.50214 0.86475 0.0
H580 H 0.77645 0.50896 0.86511 0.0
H581 H 0.81194 0.46242 0.8363 0.0
H582 H 0.95715 0.52132 0.83066 0.0
H583 H 0.90711 0.51343 0.82319 0.0
H584 H 0.86426 0.57325 0.8447 0.0
C585 C 0.76358 0.49961 0.85441 0.0
C586 C 0.82334 0.48661 0.83788 0.0
C587 C 0.73428 0.49526 0.85422 0.0
C588 C 0.94548 0.53302 0.83765 0.0
C589 C 0.9168 0.5282 0.83348 0.0
C590 C 0.85305 0.54909 0.84275 0.0
C591 C 0.77668 0.49481 0.84047 0.0
C592 C 0.8081 0.50648 0.83995 0.0
C593 C 0.90012 0.54028 0.84323 0.0
C594 C 0.8685 0.52916 0.84105 0.0
H595 H 0.71837 0.47313 0.81526 0.0
H596 H 0.77012 0.47902 0.81586 0.0
H597 H 0.81109 0.55326 0.8438 0.0
H598 H 0.95132 0.57841 0.87116 0.0
H599 H 0.90068 0.56923 0.86409 0.0
C600 C 0.21799 0.69942 0.15997 0.0
C601 C 0.21155 0.67421 0.16922 0.0
C602 C 0.24424 0.72368 0.16225 0.0
C603 C 0.30183 0.75852 0.19296 0.0
H604 H 0.34244 0.80755 0.1594 0.0
C605 C 0.41026 0.85265 0.206 0.0
C606 C 0.41263 0.88135 0.20115 0.0
C607 C 0.38818 0.82679 0.19989 0.0
C608 C 0.33122 0.79411 0.16887 0.0
H609 H 0.22838 0.65394 0.18746 0.0
H610 H 0.27434 0.69586 0.19124 0.0
H611 H 0.29938 0.76263 0.15305 0.0
H612 H 0.39515 0.9053 0.18516 0.0
H613 H 0.3561 0.85967 0.17435 0.0
H614 H 0.3335 0.78974 0.20876 0.0
C615 C 0.25878 0.69739 0.18253 0.0
C616 C 0.30653 0.7684 0.16527 0.0
C617 C 0.23246 0.67327 0.18034 0.0
C618 C 0.39376 0.88343 0.1891 0.0
C619 C 0.37145 0.85735 0.18295 0.0
C620 C 0.3265 0.78391 0.19651 0.0
C621 C 0.26478 0.72326 0.17377 0.0
C622 C 0.29154 0.75023 0.17729 0.0
C623 C 0.3678 0.82892 0.18877 0.0
C624 C 0.34159 0.80196 0.18455 0.0
H625 H 0.20224 0.70098 0.1514 0.0
H626 H 0.24788 0.74326 0.15538 0.0
H627 H 0.2905 0.74573 0.2026 0.0
H628 H 0.42485 0.85037 0.21507 0.0
H629 H 0.38639 0.80515 0.20432 0.0
C630 C 0.51069 0.1161 0.51356 0.0
C631 C 0.53633 0.11059 0.51711 0.0
C632 C 0.51061 0.14579 0.5139 0.0
C633 C 0.54653 0.21966 0.53365 0.0
H634 H 0.51683 0.25253 0.49935 0.0
C635 C 0.55677 0.34462 0.53705 0.0
C636 C 0.533 0.35184 0.53167 0.0
C637 C 0.55808 0.31579 0.5338 0.0
C638 C 0.52489 0.24361 0.50912 0.0
H639 H 0.58189 0.13154 0.52377 0.0
H640 H 0.58146 0.18326 0.525 0.0
H641 H 0.51636 0.20042 0.49662 0.0
H642 H 0.49235 0.33451 0.51816 0.0
H643 H 0.49437 0.28405 0.51271 0.0
H644 H 0.55422 0.26199 0.54643 0.0
C645 C 0.56159 0.16472 0.52171 0.0
C646 C 0.52467 0.21381 0.50751 0.0
C647 C 0.56184 0.13519 0.52098 0.0
C648 C 0.51103 0.32976 0.52247 0.0
C649 C 0.51224 0.3008 0.5193 0.0
C650 C 0.54639 0.24918 0.53534 0.0
C651 C 0.53598 0.17033 0.51821 0.0
C652 C 0.53567 0.20166 0.51975 0.0
C653 C 0.53553 0.29323 0.52519 0.0
C654 C 0.53575 0.2617 0.52309 0.0
H655 H 0.49081 0.0975 0.51037 0.0
H656 H 0.49058 0.14952 0.51119 0.0
H657 H 0.55473 0.21068 0.54335 0.0
H658 H 0.57446 0.3613 0.5438 0.0
H659 H 0.57679 0.31116 0.53815 0.0
C660 C 0.40437 0.58711 0.82878 0.0
C661 C 0.40376 0.56206 0.81884 0.0
C662 C 0.37887 0.5933 0.83121 0.0
C663 C 0.30918 0.55081 0.83814 0.0
H664 H 0.27424 0.60647 0.8226 0.0
C665 C 0.19326 0.52633 0.84866 0.0
C666 C 0.1909 0.54836 0.85979 0.0
C667 C 0.21678 0.53342 0.83877 0.0
C668 C 0.28389 0.59083 0.82688 0.0
H669 H 0.37689 0.52532 0.80284 0.0
H670 H 0.33303 0.53657 0.8069 0.0
H671 H 0.32498 0.6129 0.81638 0.0
H672 H 0.20748 0.5959 0.86752 0.0
H673 H 0.24917 0.60817 0.85037 0.0
H674 H 0.26858 0.52837 0.84848 0.0
C675 C 0.35309 0.55149 0.8126 0.0
C676 C 0.31271 0.59475 0.82356 0.0
C677 C 0.37828 0.54526 0.81021 0.0
C678 C 0.20956 0.57848 0.85927 0.0
C679 C 0.23308 0.58557 0.84934 0.0
C680 C 0.28054 0.54674 0.84133 0.0
C681 C 0.35306 0.57462 0.82356 0.0
C682 C 0.32513 0.57449 0.82904 0.0
C683 C 0.23793 0.56249 0.84003 0.0
C684 C 0.26757 0.56637 0.83548 0.0
H685 H 0.42384 0.60026 0.83557 0.0
H686 H 0.37881 0.61099 0.83988 0.0
H687 H 0.3187 0.53498 0.84239 0.0
H688 H 0.17885 0.50301 0.84876 0.0
H689 H 0.22018 0.51543 0.83147 0.0
C690 C 0.88097 0.31906 0.19024 0.0
C691 C 0.8911 0.327 0.17512 0.0
C692 C 0.85319 0.29828 0.1922 0.0
C693 C 0.79341 0.23665 0.17118 0.0
H694 H 0.75051 0.24787 0.20775 0.0
C695 C 0.67595 0.15758 0.18327 0.0
C696 C 0.67096 0.14806 0.19876 0.0
C697 C 0.70193 0.18014 0.17959 0.0
C698 C 0.76229 0.24434 0.19753 0.0
H699 H 0.87993 0.31955 0.15014 0.0
H700 H 0.8309 0.28349 0.15356 0.0
H701 H 0.79682 0.28643 0.20243 0.0
H702 H 0.6899 0.15485 0.22245 0.0
H703 H 0.73481 0.19457 0.21606 0.0
H704 H 0.7585 0.19453 0.16628 0.0
C705 C 0.8447 0.29302 0.16391 0.0
C706 C 0.78889 0.2664 0.19449 0.0
C707 C 0.87272 0.31373 0.16194 0.0
C708 C 0.69262 0.16191 0.21047 0.0
C709 C 0.71845 0.18464 0.20681 0.0
C710 C 0.76659 0.21465 0.17416 0.0
C711 C 0.83461 0.28502 0.1791 0.0
C712 C 0.80511 0.26261 0.18145 0.0
C713 C 0.72342 0.19397 0.19133 0.0
C714 C 0.751 0.21804 0.18753 0.0
H715 H 0.89483 0.32838 0.2006 0.0
H716 H 0.84654 0.29214 0.20404 0.0
H717 H 0.80538 0.2328 0.16111 0.0
H718 H 0.65963 0.14786 0.17399 0.0
H719 H 0.70501 0.1871 0.16759 0.0
C720 C 0.08327 0.51548 0.11799 0.0
C721 C 0.05858 0.49255 0.12284 0.0
C722 C 0.08567 0.52234 0.1022 0.0
C723 C 0.06034 0.48532 0.06375 0.0
H724 H 0.08062 0.56581 0.04848 0.0
C725 C 1.03149 0.50536 1.00192 0.0
C726 C 0.05281 0.52607 0.99336 0.0
C727 C 0.03644 0.50269 0.01776 0.0
C728 C 0.07549 0.54333 0.05266 0.0
H729 H 1.01651 0.45977 0.11596 0.0
H730 H 1.02052 0.47172 0.08824 0.0
H731 H 0.08042 0.55955 0.07695 0.0
H732 H 0.09591 0.56026 0.99433 0.0
H733 H 0.10452 0.55568 0.0224 0.0
H734 H 0.05459 0.46894 0.03961 0.0
C735 C 0.03818 0.48405 0.09645 0.0
C736 C 0.07529 0.53977 0.06884 0.0
C737 C 0.03582 0.47726 0.11217 0.0
C738 C 0.0792 0.54415 1.00082 0.0
C739 C 0.08408 0.54164 0.01677 0.0
C740 C 0.06054 0.48886 0.04767 0.0
C741 C 0.06342 0.50608 0.0913 0.0
C742 C 0.06684 0.51064 0.07443 0.0
C743 C 0.06274 0.52074 0.02526 0.0
C744 C 0.06724 0.51777 0.04204 0.0
H745 H 0.10084 0.5275 0.12631 0.0
H746 H 0.10524 0.53946 0.09842 0.0
H747 H 0.05442 0.4627 0.06787 0.0
H748 H 1.01118 0.49092 0.9963 0.0
H749 H 1.01957 0.48666 0.0242 0.0
C750 C 0.52049 0.99408 0.45839 0.0
C751 C 0.5359 0.01935 0.46833 0.0
C752 C 0.52327 0.99498 0.44201 0.0
C753 C 0.5688 0.03869 0.41043 0.0
H754 H 0.49824 1.00251 0.38482 0.0
C755 C 0.56279 0.06306 0.3449 0.0
C756 C 0.54837 0.03857 0.33414 0.0
C757 C 0.56128 0.05973 0.36116 0.0
C758 C 0.51821 0.01243 0.39177 0.0
H759 H 0.5665 0.06516 0.46925 0.0
H760 H 0.57142 0.06703 0.44062 0.0
H761 H 0.49668 0.99823 0.41329 0.0
H762 H 0.52045 0.9914 0.33225 0.0
H763 H 0.51751 0.98572 0.36069 0.0
H764 H 0.59019 0.05331 0.38889 0.0
C765 C 0.55749 0.04627 0.44536 0.0
C766 C 0.51736 0.00992 0.40813 0.0
C767 C 0.55467 0.04531 0.46175 0.0
C768 C 0.53165 0.01084 0.34015 0.0
C769 C 0.53002 0.00755 0.35647 0.0
C770 C 0.56961 0.04131 0.39408 0.0
C771 C 0.54141 0.02129 0.43523 0.0
C772 C 0.54262 0.02311 0.41771 0.0
C773 C 0.54513 0.03188 0.36717 0.0
C774 C 0.5443 0.02835 0.38454 0.0
H775 H 0.50572 0.9739 0.46328 0.0
H776 H 0.51094 0.97514 0.43465 0.0
H777 H 0.58878 0.04873 0.41735 0.0
H778 H 0.57528 0.08498 0.34077 0.0
H779 H 0.57264 0.07914 0.36905 0.0
C780 C 0.54209 0.50608 0.78548 0.0
C781 C 0.56576 0.5297 0.7926 0.0
C782 C 0.5363 0.50477 0.76908 0.0
C783 C 0.57449 0.53534 0.73218 0.0
H784 H 0.49782 0.50361 0.71229 0.0
C785 C 0.55766 0.54921 0.66619 0.0
C786 C 0.53715 0.5255 0.65703 0.0
C787 C 0.55953 0.54848 0.68261 0.0
C788 C 0.51944 0.51227 0.71763 0.0
H789 H 0.6007 0.57129 0.78826 0.0
H790 H 0.59007 0.56984 0.76027 0.0
H791 H 0.50307 0.5051 0.74106 0.0
H792 H 0.5026 0.48214 0.65831 0.0
H793 H 0.50637 0.48052 0.68702 0.0
H794 H 0.59097 0.54266 0.70894 0.0
C795 C 0.57653 0.55153 0.76696 0.0
C796 C 0.52246 0.51312 0.7342 0.0
C797 C 0.5825 0.55256 0.78315 0.0
C798 C 0.51881 0.50074 0.66488 0.0
C799 C 0.52072 0.49999 0.68141 0.0
C800 C 0.57148 0.53459 0.71574 0.0
C801 C 0.55394 0.52718 0.75949 0.0
C802 C 0.55008 0.52503 0.74177 0.0
C803 C 0.54117 0.52389 0.69053 0.0
C804 C 0.54394 0.52334 0.70816 0.0
H805 H 0.52899 0.48792 0.7924 0.0
H806 H 0.51872 0.48559 0.76384 0.0
H807 H 0.59624 0.54384 0.73735 0.0
H808 H 0.57252 0.56851 0.66067 0.0
H809 H 0.57531 0.56755 0.68912 0.0
C810 C 0.53097 0.03333 0.56838 0.0
C811 C 0.5462 0.01651 0.56073 0.0
C812 C 0.5272 0.03242 0.58475 0.0
C813 C 0.52969 0.98704 0.6188 0.0
H814 H 0.5462 0.0626 0.64381 0.0
C815 C 0.55012 0.9938 0.68578 0.0
C816 C 0.53812 0.01132 0.69548 0.0
C817 C 0.54976 0.99516 0.6694 0.0
C818 C 0.54113 0.04125 0.63701 0.0
H819 H 0.56843 0.98474 0.56403 0.0
H820 H 0.56179 0.98301 0.59234 0.0
H821 H 0.54616 0.0626 0.61503 0.0
H822 H 0.51703 0.04473 0.69548 0.0
H823 H 0.5163 0.0471 0.66674 0.0
H824 H 0.52487 0.96564 0.64065 0.0
C825 C 0.5527 0.99691 0.58585 0.0
C826 C 0.54106 0.04125 0.62049 0.0
C827 C 0.55667 0.99804 0.56961 0.0
C828 C 0.52658 0.03105 0.68836 0.0
C829 C 0.52616 0.03238 0.67189 0.0
C830 C 0.5297 0.98703 0.63525 0.0
C831 C 0.53825 0.01435 0.59369 0.0
C832 C 0.53577 0.01418 0.61119 0.0
C833 C 0.53735 0.01407 0.66218 0.0
C834 C 0.53586 0.01417 0.64461 0.0
H835 H 0.52268 0.04777 0.56181 0.0
H836 H 0.51572 0.04591 0.59041 0.0
H837 H 0.52501 0.96571 0.61201 0.0
H838 H 0.55978 0.97884 0.69088 0.0
H839 H 0.55929 0.98134 0.66238 0.0
C840 C 0.56894 0.50646 0.89179 0.0
C841 C 0.55141 0.52187 0.88601 0.0
C842 C 0.57279 0.50505 0.90818 0.0
C843 C 0.56566 0.5415 0.94742 0.0
H844 H 0.5538 0.4629 0.96337 0.0
C845 C 0.54745 0.52212 0.01404 0.0
C846 C 0.55665 0.50058 0.02119 0.0
C847 C 0.54864 0.52491 0.99765 0.0
C848 C 0.55768 0.48521 0.95924 0.0
H849 H 0.52495 0.54852 0.89283 0.0
H850 H 0.53269 0.5474 0.9212 0.0
H851 H 0.55474 0.46858 0.93497 0.0
H852 H 0.57417 0.46479 0.016 0.0
H853 H 0.57762 0.4707 0.98778 0.0
H854 H 0.56906 0.55842 0.97151 0.0
C855 C 0.54332 0.53612 0.91322 0.0
C856 C 0.55817 0.48843 0.94284 0.0
C857 C 0.53891 0.53686 0.89693 0.0
C858 C 0.56724 0.48203 0.01122 0.0
C859 C 0.56878 0.48511 0.99482 0.0
C860 C 0.56552 0.53839 0.96379 0.0
C861 C 0.5597 0.51958 0.91916 0.0
C862 C 0.56174 0.51656 0.93666 0.0
C863 C 0.55952 0.50663 0.98769 0.0
C864 C 0.56107 0.51009 0.97006 0.0
H865 H 0.57835 0.49414 0.88367 0.0
H866 H 0.58566 0.49222 0.91226 0.0
H867 H 0.5689 0.56363 0.94319 0.0
H868 H 0.53958 0.53731 0.02108 0.0
H869 H 0.54069 0.54139 0.99282 0.0
C870 C 0.05783 0.48177 0.22114 0.0
C871 C 0.04539 0.50055 0.21385 0.0
C872 C 0.05665 0.47962 0.23757 0.0
C873 C 0.05264 0.52473 0.27317 0.0
H874 H 1.02515 0.44968 0.29427 0.0
C875 C 1.02766 0.5227 0.33945 0.0
C876 C 1.03211 0.50015 0.34813 0.0
C877 C 1.03095 0.52241 0.32309 0.0
C878 C 1.03342 0.47089 0.28862 0.0
H879 H 1.02049 0.53023 0.2178 0.0
H880 H 1.01875 0.52668 0.2462 0.0
H881 H 1.02779 0.44829 0.26554 0.0
H882 H 0.0448 0.46051 0.34668 0.0
H883 H 0.05151 0.46051 0.3183 0.0
H884 H 0.05877 0.54753 0.29603 0.0
C885 C 1.02974 0.514 0.23937 0.0
C886 C 0.03482 0.47 0.27215 0.0
C887 C 1.03068 0.51592 0.22309 0.0
C888 C 0.04083 0.47793 0.34023 0.0
C889 C 0.04449 0.47784 0.32393 0.0
C890 C 0.05164 0.52566 0.2896 0.0
C891 C 0.04324 0.49643 0.24683 0.0
C892 C 0.04399 0.49692 0.26428 0.0
C893 C 0.03918 0.4998 0.31508 0.0
C894 C 0.04162 0.49876 0.29757 0.0
H895 H 0.06919 0.46958 0.21426 0.0
H896 H 0.06711 0.46579 0.24308 0.0
H897 H 0.06014 0.54585 0.26737 0.0
H898 H 1.02066 0.53995 0.34522 0.0
H899 H 1.02622 0.53946 0.31671 0.0
loop_
_geom_bond_atom_site_label_1
_geom_bond_atom_site_label_2
_geom_bond_distance
_geom_bond_site_symmetry_2
_ccdc_geom_bond_type
Nd0 C2 2.836 . S
Nd0 O20 2.500 . S
Nd0 O21 2.492 . S
Nd0 O22 2.487 . S
Nd0 O23 2.682 . S
Nd0 O24 2.410 . S
Nd0 O29 2.414 . S
Nd0 O31 2.424 1_455 S
Nd1 C11 2.838 1_455 S
Nd1 O23 2.414 . S
Nd1 O25 2.422 . S
Nd1 O26 2.502 1_455 S
Nd1 O27 2.493 1_455 S
Nd1 O28 2.487 . S
Nd1 O29 2.682 . S
Nd1 O30 2.412 1_455 S
C2 Nd0 2.836 . S
C2 C3 1.498 . S
C2 O20 1.258 . S
C2 O21 1.239 . S
C3 C2 1.498 . S
C3 C4 1.366 . S
C3 C8 1.407 . S
C4 C3 1.366 . S
C4 C5 1.392 . S
C4 H32 0.930 . S
C5 C4 1.392 . S
C5 C6 1.398 . S
C5 H33 0.929 . S
C6 C5 1.398 . S
C6 C7 1.352 . S
C7 C6 1.352 . S
C7 C8 1.384 . S
C7 H34 0.930 . S
C8 C3 1.407 . S
C8 C7 1.384 . S
C8 H35 0.929 . S
C9 O22 1.241 . S
C9 O23 1.273 . S
C10 O24 1.251 . S
C10 O25 1.268 . S
C11 Nd1 2.838 1_655 S
C11 C12 1.498 . S
C11 O26 1.258 . S
C11 O27 1.239 . S
C12 C11 1.498 . S
C12 C13 1.366 . S
C12 C17 1.407 . S
C13 C12 1.366 . S
C13 C14 1.392 . S
C13 H36 0.930 . S
C14 C13 1.392 . S
C14 C15 1.398 . S
C14 H37 0.929 . S
C15 C14 1.398 . S
C15 C16 1.352 . S
C16 C15 1.352 . S
C16 C17 1.384 . S
C16 H38 0.930 . S
C17 C12 1.407 . S
C17 C16 1.384 . S
C17 H39 0.929 . S
C18 O28 1.241 . S
C18 O29 1.273 . S
C19 O30 1.251 . S
C19 O31 1.268 . S
O20 Nd0 2.500 . S
O20 C2 1.258 . S
O21 Nd0 2.492 . S
O21 C2 1.239 . S
O22 Nd0 2.487 . S
O22 C9 1.241 . S
O23 Nd0 2.682 . S
O23 Nd1 2.414 . S
O23 C9 1.273 . S
O24 Nd0 2.410 . S
O24 C10 1.251 . S
O25 Nd1 2.422 . S
O25 C10 1.268 . S
O26 Nd1 2.502 1_655 S
O26 C11 1.258 . S
O27 Nd1 2.493 1_655 S
O27 C11 1.239 . S
O28 Nd1 2.487 . S
O28 C18 1.241 . S
O29 Nd0 2.414 . S
O29 Nd1 2.682 . S
O29 C18 1.273 . S
O30 Nd1 2.412 1_655 S
O30 C19 1.251 . S
O31 Nd0 2.424 1_655 S
O31 C19 1.268 . S
H32 C4 0.930 . S
H33 C5 0.929 . S
H34 C7 0.930 . S
H35 C8 0.929 . S
H36 C13 0.930 . S
H37 C14 0.929 . S
H38 C16 0.930 . S
H39 C17 0.929 . S
Nd40 C42 2.824 1_545 S
Nd40 O60 2.488 1_545 S
Nd40 O61 2.482 1_545 S
Nd40 O62 2.487 . S
Nd40 O63 2.683 . S
Nd40 O64 2.393 1_545 S
Nd40 O69 2.412 . S
Nd40 O71 2.441 . S
Nd41 C51 2.836 . S
Nd41 O63 2.414 . S
Nd41 O65 2.424 1_545 S
Nd41 O66 2.500 . S
Nd41 O67 2.492 . S
Nd41 O68 2.487 . S
Nd41 O69 2.682 . S
Nd41 O70 2.410 . S
C42 Nd40 2.824 1_565 S
C42 C43 1.498 . S
C42 O60 1.258 . S
C42 O61 1.239 . S
C43 C42 1.498 . S
C43 C44 1.366 . S
C43 C48 1.407 . S
C44 C43 1.366 . S
C44 C45 1.392 . S
C44 H72 0.930 . S
C45 C44 1.392 . S
C45 C46 1.398 . S
C45 H73 0.929 . S
C46 C45 1.398 . S
C46 C47 1.352 . S
C47 C46 1.352 . S
C47 C48 1.384 . S
C47 H74 0.930 . S
C48 C43 1.407 . S
C48 C47 1.384 . S
C48 H75 0.929 . S
C49 O62 1.243 . S
C49 O63 1.273 . S
C50 O64 1.251 . S
C50 O65 1.268 . S
C51 Nd41 2.836 . S
C51 C52 1.498 . S
C51 O66 1.258 . S
C51 O67 1.239 . S
C52 C51 1.498 . S
C52 C53 1.366 . S
C52 C57 1.407 . S
C53 C52 1.366 . S
C53 C54 1.392 . S
C53 H76 0.930 . S
C54 C53 1.392 . S
C54 C55 1.398 . S
C54 H77 0.929 . S
C55 C54 1.398 . S
C55 C56 1.352 . S
C56 C55 1.352 . S
C56 C57 1.384 . S
C56 H78 0.930 . S
C57 C52 1.407 . S
C57 C56 1.384 . S
C57 H79 0.929 . S
C58 O68 1.241 . S
C58 O69 1.273 . S
C59 O70 1.251 . S
C59 O71 1.268 . S
O60 Nd40 2.488 1_565 S
O60 C42 1.258 . S
O61 Nd40 2.482 1_565 S
O61 C42 1.239 . S
O62 Nd40 2.487 . S
O62 C49 1.243 . S
O63 Nd40 2.683 . S
O63 Nd41 2.414 . S
O63 C49 1.273 . S
O64 Nd40 2.393 1_565 S
O64 C50 1.251 . S
O65 Nd41 2.424 1_565 S
O65 C50 1.268 . S
O66 Nd41 2.500 . S
O66 C51 1.258 . S
O67 Nd41 2.492 . S
O67 C51 1.239 . S
O68 Nd41 2.487 . S
O68 C58 1.241 . S
O69 Nd40 2.412 . S
O69 Nd41 2.682 . S
O69 C58 1.273 . S
O70 Nd41 2.410 . S
O70 C59 1.251 . S
O71 Nd40 2.441 . S
O71 C59 1.268 . S
H72 C44 0.930 . S
H73 C45 0.929 . S
H74 C47 0.930 . S
H75 C48 0.929 . S
H76 C53 0.930 . S
H77 C54 0.929 . S
H78 C56 0.930 . S
H79 C57 0.929 . S
Nd80 C82 2.836 . S
Nd80 O100 2.500 . S
Nd80 O101 2.492 . S
Nd80 O102 2.487 . S
Nd80 O103 2.682 . S
Nd80 O104 2.410 . S
Nd80 O109 2.414 . S
Nd80 O111 2.424 . S
Nd81 C91 2.836 . S
Nd81 O103 2.414 . S
Nd81 O105 2.424 . S
Nd81 O106 2.500 . S
Nd81 O107 2.492 . S
Nd81 O108 2.487 . S
Nd81 O109 2.682 . S
Nd81 O110 2.410 . S
C82 Nd80 2.836 . S
C82 C83 1.498 . S
C82 O100 1.258 . S
C82 O101 1.239 . S
C83 C82 1.498 . S
C83 C84 1.366 . S
C83 C88 1.407 . S
C84 C83 1.366 . S
C84 C85 1.392 . S
C84 H112 0.930 . S
C85 C84 1.392 . S
C85 C86 1.398 . S
C85 H113 0.929 . S
C86 C85 1.398 . S
C86 C87 1.352 . S
C87 C86 1.352 . S
C87 C88 1.384 . S
C87 H114 0.930 . S
C88 C83 1.407 . S
C88 C87 1.384 . S
C88 H115 0.929 . S
C89 O102 1.241 . S
C89 O103 1.273 . S
C90 O104 1.251 . S
C90 O105 1.268 . S
C91 Nd81 2.836 . S
C91 C92 1.498 . S
C91 O106 1.258 . S
C91 O107 1.239 . S
C92 C91 1.498 . S
C92 C93 1.366 . S
C92 C97 1.407 . S
C93 C92 1.366 . S
C93 C94 1.392 . S
C93 H116 0.930 . S
C94 C93 1.392 . S
C94 C95 1.398 . S
C94 H117 0.929 . S
C95 C94 1.398 . S
C95 C96 1.352 . S
C96 C95 1.352 . S
C96 C97 1.384 . S
C96 H118 0.930 . S
C97 C92 1.407 . S
C97 C96 1.384 . S
C97 H119 0.929 . S
C98 O108 1.241 . S
C98 O109 1.273 . S
C99 O110 1.251 . S
C99 O111 1.268 . S
O100 Nd80 2.500 . S
O100 C82 1.258 . S
O101 Nd80 2.492 . S
O101 C82 1.239 . S
O102 Nd80 2.487 . S
O102 C89 1.241 . S
O103 Nd80 2.682 . S
O103 Nd81 2.414 . S
O103 C89 1.273 . S
O104 Nd80 2.410 . S
O104 C90 1.251 . S
O105 Nd81 2.424 . S
O105 C90 1.268 . S
O106 Nd81 2.500 . S
O106 C91 1.258 . S
O107 Nd81 2.492 . S
O107 C91 1.239 . S
O108 Nd81 2.487 . S
O108 C98 1.241 . S
O109 Nd80 2.414 . S
O109 Nd81 2.682 . S
O109 C98 1.273 . S
O110 Nd81 2.410 . S
O110 C99 1.251 . S
O111 Nd80 2.424 . S
O111 C99 1.268 . S
H112 C84 0.930 . S
H113 C85 0.929 . S
H114 C87 0.930 . S
H115 C88 0.929 . S
H116 C93 0.930 . S
H117 C94 0.929 . S
H118 C96 0.930 . S
H119 C97 0.929 . S
C120 C121 1.264 . S
C120 C125 1.479 . S
C120 C130 1.465 . S
C121 C120 1.264 . S
C121 C123 1.339 . S
C121 H148 0.931 . S
C122 C123 1.395 . S
C122 C124 1.320 . S
C123 C121 1.339 . S
C123 C122 1.395 . S
C123 H149 0.929 . S
C124 C122 1.320 . S
C124 C125 1.405 . S
C124 H150 0.930 . S
C125 C120 1.479 . S
C125 C124 1.405 . S
C125 H151 0.931 . S
U126 O127 2.454 1_545 S
U126 O128 2.458 1_545 S
U126 C129 2.984 1_545 S
U126 C130 2.847 . S
U126 C143 2.882 . S
U126 O144 2.441 . S
U126 O145 2.420 . S
U126 O146 2.455 . S
U126 O147 2.449 . S
O127 U126 2.454 1_565 S
O127 C129 1.353 . S
O128 U126 2.458 1_565 S
O128 C129 1.286 . S
C129 U126 2.984 1_565 S
C129 O127 1.353 . S
C129 O128 1.286 . S
C129 C131 1.363 . S
C130 C120 1.465 . S
C130 U126 2.847 . S
C130 O144 1.249 . S
C130 O145 1.202 . S
C131 C129 1.363 . S
C131 C133 1.408 . S
C131 C136 1.342 . S
C132 C133 1.310 . S
C132 C135 1.461 . S
C132 H152 0.932 . S
C133 C131 1.408 . S
C133 C132 1.310 . S
C133 H153 0.930 . S
C134 C135 1.474 . S
C134 C136 1.285 . S
C134 H154 0.929 . S
C135 C132 1.461 . S
C135 C134 1.474 . S
C136 C131 1.342 . S
C136 C134 1.285 . S
C136 H155 0.930 . S
C137 C140 1.424 . S
C137 C142 1.245 . S
C137 C143 1.428 . S
C138 C141 1.260 . S
C138 C142 1.477 . S
C138 H156 0.932 . S
C139 C140 1.384 . S
C139 C141 1.479 . S
C139 H157 0.929 . S
C140 C137 1.424 . S
C140 C139 1.384 . S
C140 H158 0.928 . S
C141 C138 1.260 . S
C141 C139 1.479 . S
C142 C137 1.245 . S
C142 C138 1.477 . S
C142 H159 0.912 1_545 S
C143 U126 2.882 . S
C143 C137 1.428 . S
C143 O146 1.301 . S
C143 O147 1.282 . S
O144 U126 2.441 . S
O144 C130 1.249 . S
O145 U126 2.420 . S
O145 C130 1.202 . S
O146 U126 2.455 . S
O146 C143 1.301 . S
O147 U126 2.449 . S
O147 C143 1.282 . S
H148 C121 0.931 . S
H149 C123 0.929 . S
H150 C124 0.930 . S
H151 C125 0.931 . S
H152 C132 0.932 . S
H153 C133 0.930 . S
H154 C134 0.929 . S
H155 C136 0.930 . S
H156 C138 0.932 . S
H157 C139 0.929 . S
H158 C140 0.928 . S
H159 C142 0.912 1_565 S
C160 C161 1.264 . S
C160 C165 1.479 . S
C160 C170 1.465 . S
C161 C160 1.264 . S
C161 C163 1.339 . S
C161 H188 0.931 . S
C162 C163 1.395 . S
C162 C164 1.320 . S
C163 C161 1.339 . S
C163 C162 1.395 . S
C163 H189 0.929 . S
C164 C162 1.320 . S
C164 C165 1.405 . S
C164 H190 0.930 . S
C165 C160 1.479 . S
C165 C164 1.405 . S
C165 H191 0.931 . S
U166 O167 2.454 . S
U166 O168 2.458 . S
U166 C169 2.984 . S
U166 C170 2.847 . S
U166 C183 2.882 . S
U166 O184 2.441 . S
U166 O185 2.420 . S
U166 O186 2.455 . S
U166 O187 2.449 . S
O167 U166 2.454 . S
O167 C169 1.353 . S
O168 U166 2.458 . S
O168 C169 1.286 . S
C169 U166 2.984 . S
C169 O167 1.353 . S
C169 O168 1.286 . S
C169 C171 1.363 . S
C170 C160 1.465 . S
C170 U166 2.847 . S
C170 O184 1.249 . S
C170 O185 1.202 . S
C171 C169 1.363 . S
C171 C173 1.408 . S
C171 C176 1.342 . S
C172 C173 1.310 . S
C172 C175 1.461 . S
C172 H192 0.932 . S
C173 C171 1.408 . S
C173 C172 1.310 . S
C173 H193 0.930 . S
C174 C175 1.474 . S
C174 C176 1.285 . S
C174 H194 0.929 . S
C175 C172 1.461 . S
C175 C174 1.474 . S
C176 C171 1.342 . S
C176 C174 1.285 . S
C176 H195 0.930 . S
C177 C180 1.424 . S
C177 C182 1.245 . S
C177 C183 1.428 . S
C178 C181 1.260 . S
C178 C182 1.477 . S
C178 H196 0.932 . S
C179 C180 1.384 . S
C179 C181 1.479 . S
C179 H197 0.929 . S
C180 C177 1.424 . S
C180 C179 1.384 . S
C180 H198 0.928 . S
C181 C178 1.260 . S
C181 C179 1.479 . S
C182 C177 1.245 . S
C182 C178 1.477 . S
C182 H199 0.932 . S
C183 U166 2.882 . S
C183 C177 1.428 . S
C183 O186 1.301 . S
C183 O187 1.282 . S
O184 U166 2.441 . S
O184 C170 1.249 . S
O185 U166 2.420 . S
O185 C170 1.202 . S
O186 U166 2.455 . S
O186 C183 1.301 . S
O187 U166 2.449 . S
O187 C183 1.282 . S
H188 C161 0.931 . S
H189 C163 0.929 . S
H190 C164 0.930 . S
H191 C165 0.931 . S
H192 C172 0.932 . S
H193 C173 0.930 . S
H194 C174 0.929 . S
H195 C176 0.930 . S
H196 C178 0.932 . S
H197 C179 0.929 . S
H198 C180 0.928 . S
H199 C182 0.932 . S
C200 C201 1.264 . S
C200 C205 1.479 . S
C200 C210 1.465 . S
C201 C200 1.264 . S
C201 C203 1.339 . S
C201 H228 0.931 . S
C202 C203 1.395 . S
C202 C204 1.320 . S
C203 C201 1.339 . S
C203 C202 1.395 . S
C203 H229 0.929 . S
C204 C202 1.320 . S
C204 C205 1.405 . S
C204 H230 0.930 . S
C205 C200 1.479 . S
C205 C204 1.405 . S
C205 H231 0.931 . S
U206 O207 2.454 . S
U206 O208 2.458 . S
U206 C209 2.984 . S
U206 C210 2.847 1_455 S
U206 C223 2.882 . S
U206 O224 2.441 . S
U206 O225 2.420 1_455 S
U206 O226 2.455 . S
U206 O227 2.449 . S
O207 U206 2.454 . S
O207 C209 1.353 . S
O208 U206 2.458 . S
O208 C209 1.286 . S
C209 U206 2.984 . S
C209 O207 1.353 . S
C209 O208 1.286 . S
C209 C211 1.363 . S
C210 C200 1.465 . S
C210 U206 2.847 1_655 S
C210 O224 1.249 1_655 S
C210 O225 1.202 . S
C211 C209 1.363 . S
C211 C213 1.408 . S
C211 C216 1.342 . S
C212 C213 1.310 . S
C212 C215 1.461 . S
C212 H232 0.932 . S
C213 C211 1.408 . S
C213 C212 1.310 . S
C213 H233 0.930 . S
C214 C215 1.474 . S
C214 C216 1.285 . S
C214 H234 0.929 . S
C215 C212 1.461 . S
C215 C214 1.474 . S
C216 C211 1.342 . S
C216 C214 1.285 . S
C216 H235 0.930 . S
C217 C220 1.424 . S
C217 C222 1.245 . S
C217 C223 1.428 . S
C218 C221 1.260 . S
C218 C222 1.477 . S
C218 H236 0.932 . S
C219 C220 1.384 . S
C219 C221 1.479 . S
C219 H237 0.929 1_455 S
C220 C217 1.424 . S
C220 C219 1.384 . S
C220 H238 0.928 1_455 S
C221 C218 1.260 . S
C221 C219 1.479 . S
C222 C217 1.245 . S
C222 C218 1.477 . S
C222 H239 0.932 . S
C223 U206 2.882 . S
C223 C217 1.428 . S
C223 O226 1.301 . S
C223 O227 1.282 . S
O224 U206 2.441 . S
O224 C210 1.249 1_455 S
O225 U206 2.420 1_655 S
O225 C210 1.202 . S
O226 U206 2.455 . S
O226 C223 1.301 . S
O227 U206 2.449 . S
O227 C223 1.282 . S
H228 C201 0.931 . S
H229 C203 0.929 . S
H230 C204 0.930 . S
H231 C205 0.931 . S
H232 C212 0.932 . S
H233 C213 0.930 . S
H234 C214 0.929 . S
H235 C216 0.930 . S
H236 C218 0.932 . S
H237 C219 0.929 1_655 S
H238 C220 0.928 1_655 S
H239 C222 0.932 . S
C240 C241 1.264 . S
C240 C245 1.479 . S
C240 C250 1.465 . S
C241 C240 1.264 . S
C241 C243 1.339 . S
C241 H268 0.931 . S
C242 C243 1.395 . S
C242 C244 1.320 . S
C243 C241 1.339 . S
C243 C242 1.395 . S
C243 H269 0.929 . S
C244 C242 1.320 . S
C244 C245 1.405 . S
C244 H270 0.930 . S
C245 C240 1.479 . S
C245 C244 1.405 . S
C245 H271 0.931 . S
U246 O247 2.454 1_655 S
U246 O248 2.458 1_655 S
U246 C249 2.984 1_655 S
U246 C250 2.847 . S
U246 C263 2.882 . S
U246 O264 2.441 . S
U246 O265 2.420 . S
U246 O266 2.455 1_655 S
U246 O267 2.449 . S
O247 U246 2.454 1_455 S
O247 C249 1.353 . S
O248 U246 2.458 1_455 S
O248 C249 1.286 . S
C249 U246 2.984 1_455 S
C249 O247 1.353 . S
C249 O248 1.286 . S
C249 C251 1.363 . S
C250 C240 1.465 . S
C250 U246 2.847 . S
C250 O264 1.249 . S
C250 O265 1.202 . S
C251 C249 1.363 . S
C251 C253 1.408 . S
C251 C256 1.342 . S
C252 C253 1.310 . S
C252 C255 1.461 . S
C252 H272 0.932 . S
C253 C251 1.408 . S
C253 C252 1.310 . S
C253 H273 0.930 . S
C254 C255 1.474 . S
C254 C256 1.285 . S
C254 H274 0.929 . S
C255 C252 1.461 . S
C255 C254 1.474 . S
C256 C251 1.342 . S
C256 C254 1.285 . S
C256 H275 0.930 . S
C257 C260 1.424 . S
C257 C262 1.245 1_655 S
C257 C263 1.428 . S
C258 C261 1.260 1_455 S
C258 C262 1.477 . S
C258 H276 0.932 . S
C259 C260 1.384 . S
C259 C261 1.479 . S
C259 H277 0.929 . S
C260 C257 1.424 . S
C260 C259 1.384 . S
C260 H278 0.928 . S
C261 C258 1.260 1_655 S
C261 C259 1.479 . S
C262 C257 1.245 1_455 S
C262 C258 1.477 . S
C262 H279 0.932 . S
C263 U246 2.882 . S
C263 C257 1.428 . S
C263 O266 1.301 1_655 S
C263 O267 1.282 . S
O264 U246 2.441 . S
O264 C250 1.249 . S
O265 U246 2.420 . S
O265 C250 1.202 . S
O266 U246 2.455 1_455 S
O266 C263 1.301 1_455 S
O267 U246 2.449 . S
O267 C263 1.282 . S
H268 C241 0.931 . S
H269 C243 0.929 . S
H270 C244 0.930 . S
H271 C245 0.931 . S
H272 C252 0.932 . S
H273 C253 0.930 . S
H274 C254 0.929 . S
H275 C256 0.930 . S
H276 C258 0.932 . S
H277 C259 0.929 . S
H278 C260 0.928 . S
H279 C262 0.932 . S
C280 C281 1.264 . S
C280 C285 1.479 . S
C280 C290 1.465 . S
C281 C280 1.264 . S
C281 C283 1.339 . S
C281 H308 0.931 . S
C282 C283 1.395 . S
C282 C284 1.320 . S
C283 C281 1.339 . S
C283 C282 1.395 . S
C283 H309 0.929 . S
C284 C282 1.320 . S
C284 C285 1.405 . S
C284 H310 0.930 . S
C285 C280 1.479 . S
C285 C284 1.405 . S
C285 H311 0.931 . S
U286 O287 2.454 . S
U286 O288 2.458 . S
U286 C289 2.984 . S
U286 C290 2.847 1_545 S
U286 C303 2.883 1_545 S
U286 O304 2.441 1_545 S
U286 O305 2.420 1_545 S
U286 O306 2.455 . S
U286 O307 2.449 1_545 S
O287 U286 2.454 . S
O287 C289 1.353 . S
O288 U286 2.458 . S
O288 C289 1.286 . S
C289 U286 2.984 . S
C289 O287 1.353 . S
C289 O288 1.286 . S
C289 C291 1.363 . S
C290 C280 1.465 . S
C290 U286 2.847 1_565 S
C290 O304 1.249 . S
C290 O305 1.202 . S
C291 C289 1.363 . S
C291 C293 1.408 . S
C291 C296 1.342 . S
C292 C293 1.310 . S
C292 C295 1.461 . S
C292 H312 0.932 . S
C293 C291 1.408 . S
C293 C292 1.310 . S
C293 H313 0.930 . S
C294 C295 1.474 . S
C294 C296 1.285 . S
C294 H314 0.929 . S
C295 C292 1.461 . S
C295 C294 1.474 . S
C296 C291 1.342 . S
C296 C294 1.285 . S
C296 H315 0.930 . S
C297 C300 1.415 1_545 S
C297 C302 1.254 . S
C297 C303 1.427 1_545 S
C298 C301 1.228 1_545 S
C298 C302 1.477 . S
C298 H316 0.932 . S
C299 C300 1.384 . S
C299 C301 1.512 . S
C299 H317 0.929 . S
C300 C297 1.415 1_565 S
C300 C299 1.384 . S
C300 H318 0.928 . S
C301 C298 1.228 1_565 S
C301 C299 1.512 . S
C302 C297 1.254 . S
C302 C298 1.477 . S
C302 H319 0.932 . S
C303 U286 2.883 1_565 S
C303 C297 1.427 1_565 S
C303 O306 1.290 1_565 S
C303 O307 1.293 . S
O304 U286 2.441 1_565 S
O304 C290 1.249 . S
O305 U286 2.420 1_565 S
O305 C290 1.202 . S
O306 U286 2.455 . S
O306 C303 1.290 1_545 S
O307 U286 2.449 1_565 S
O307 C303 1.293 . S
H308 C281 0.931 . S
H309 C283 0.929 . S
H310 C284 0.930 . S
H311 C285 0.931 . S
H312 C292 0.932 . S
H313 C293 0.930 . S
H314 C294 0.929 . S
H315 C296 0.930 . S
H316 C298 0.932 . S
H317 C299 0.929 . S
H318 C300 0.928 . S
H319 C302 0.932 . S
C320 C321 1.264 . S
C320 C325 1.479 . S
C320 C330 1.465 . S
C321 C320 1.264 . S
C321 C323 1.339 . S
C321 H348 0.931 . S
C322 C323 1.395 . S
C322 C324 1.320 . S
C323 C321 1.339 . S
C323 C322 1.395 . S
C323 H349 0.929 . S
C324 C322 1.320 . S
C324 C325 1.405 . S
C324 H350 0.930 . S
C325 C320 1.479 . S
C325 C324 1.405 . S
C325 H351 0.931 . S
U326 O327 2.454 . S
U326 O328 2.458 . S
U326 C329 2.984 . S
U326 C330 2.847 . S
U326 C343 2.882 . S
U326 O344 2.441 . S
U326 O345 2.420 . S
U326 O346 2.455 . S
U326 O347 2.449 . S
O327 U326 2.454 . S
O327 C329 1.353 . S
O328 U326 2.458 . S
O328 C329 1.286 . S
C329 U326 2.984 . S
C329 O327 1.353 . S
C329 O328 1.286 . S
C329 C331 1.363 . S
C330 C320 1.465 . S
C330 U326 2.847 . S
C330 O344 1.249 . S
C330 O345 1.202 . S
C331 C329 1.363 . S
C331 C333 1.408 . S
C331 C336 1.342 . S
C332 C333 1.310 . S
C332 C335 1.461 . S
C332 H352 0.932 . S
C333 C331 1.408 . S
C333 C332 1.310 . S
C333 H353 0.930 . S
C334 C335 1.474 . S
C334 C336 1.285 . S
C334 H354 0.929 . S
C335 C332 1.461 . S
C335 C334 1.474 . S
C336 C331 1.342 . S
C336 C334 1.285 . S
C336 H355 0.930 . S
C337 C340 1.424 . S
C337 C342 1.245 . S
C337 C343 1.428 . S
C338 C341 1.260 . S
C338 C342 1.477 . S
C338 H356 0.932 . S
C339 C340 1.384 . S
C339 C341 1.479 . S
C339 H357 0.929 . S
C340 C337 1.424 . S
C340 C339 1.384 . S
C340 H358 0.928 . S
C341 C338 1.260 . S
C341 C339 1.479 . S
C342 C337 1.245 . S
C342 C338 1.477 . S
C342 H359 0.932 . S
C343 U326 2.882 . S
C343 C337 1.428 . S
C343 O346 1.301 . S
C343 O347 1.282 . S
O344 U326 2.441 . S
O344 C330 1.249 . S
O345 U326 2.420 . S
O345 C330 1.202 . S
O346 U326 2.455 . S
O346 C343 1.301 . S
O347 U326 2.449 . S
O347 C343 1.282 . S
H348 C321 0.931 . S
H349 C323 0.929 . S
H350 C324 0.930 . S
H351 C325 0.931 . S
H352 C332 0.932 . S
H353 C333 0.930 . S
H354 C334 0.929 . S
H355 C336 0.930 . S
H356 C338 0.932 . S
H357 C339 0.929 . S
H358 C340 0.928 . S
H359 C342 0.932 . S
C360 C361 1.349 . S
C360 C362 1.327 . S
C360 H385 0.950 . S
C361 C360 1.349 . S
C361 C377 1.349 . S
C362 C360 1.327 . S
C362 C381 1.429 . S
C362 H386 0.950 . S
C363 C380 1.574 . S
C363 C382 1.368 . S
C363 H387 0.949 . S
H364 C368 0.949 . S
C365 C366 1.349 . S
C365 C367 1.327 . S
C365 H388 0.950 . S
C366 C365 1.349 . S
C366 C378 1.349 . S
C367 C365 1.327 . S
C367 C383 1.429 . S
C367 H389 0.950 . S
C368 H364 0.949 . S
C368 C376 1.574 . S
C368 C384 1.368 . S
H369 C377 0.950 . S
H370 C375 0.950 . S
H371 C376 0.949 . S
H372 C378 0.950 . S
H373 C379 0.950 . S
H374 C380 0.949 . S
C375 H370 0.950 . S
C375 C377 1.327 . S
C375 C381 1.429 . S
C376 C368 1.574 . S
C376 H371 0.949 . S
C376 C382 1.368 . S
C377 C361 1.349 . S
C377 H369 0.950 . S
C377 C375 1.327 . S
C378 C366 1.349 . S
C378 H372 0.950 . S
C378 C379 1.327 . S
C379 H373 0.950 . S
C379 C378 1.327 . S
C379 C383 1.429 . S
C380 C363 1.574 . S
C380 H374 0.949 . S
C380 C384 1.368 . S
C381 C362 1.429 . S
C381 C375 1.429 . S
C381 C382 1.523 . S
C382 C363 1.368 . S
C382 C376 1.368 . S
C382 C381 1.523 . S
C383 C367 1.429 . S
C383 C379 1.429 . S
C383 C384 1.523 . S
C384 C368 1.368 . S
C384 C380 1.368 . S
C384 C383 1.523 . S
H385 C360 0.950 . S
H386 C362 0.950 . S
H387 C363 0.949 . S
H388 C365 0.950 . S
H389 C367 0.950 . S
C390 C391 1.349 . S
C390 C392 1.327 . S
C390 H415 0.950 . S
C391 C390 1.349 . S
C391 C407 1.349 . S
C392 C390 1.327 . S
C392 C411 1.429 . S
C392 H416 0.950 . S
C393 C410 1.574 . S
C393 C412 1.368 . S
C393 H417 0.949 . S
H394 C398 0.949 . S
C395 C396 1.349 . S
C395 C397 1.327 . S
C395 H418 0.950 . S
C396 C395 1.349 . S
C396 C408 1.349 . S
C397 C395 1.327 . S
C397 C413 1.429 . S
C397 H419 0.950 . S
C398 H394 0.949 . S
C398 C406 1.574 . S
C398 C414 1.368 . S
H399 C407 0.950 . S
H400 C405 0.950 . S
H401 C406 0.949 . S
H402 C408 0.950 . S
H403 C409 0.950 . S
H404 C410 0.949 . S
C405 H400 0.950 . S
C405 C407 1.327 . S
C405 C411 1.429 . S
C406 C398 1.574 . S
C406 H401 0.949 . S
C406 C412 1.368 . S
C407 C391 1.349 . S
C407 H399 0.950 . S
C407 C405 1.327 . S
C408 C396 1.349 . S
C408 H402 0.950 . S
C408 C409 1.327 . S
C409 H403 0.950 . S
C409 C408 1.327 . S
C409 C413 1.429 . S
C410 C393 1.574 . S
C410 H404 0.949 . S
C410 C414 1.368 . S
C411 C392 1.429 . S
C411 C405 1.429 . S
C411 C412 1.523 . S
C412 C393 1.368 . S
C412 C406 1.368 . S
C412 C411 1.523 . S
C413 C397 1.429 . S
C413 C409 1.429 . S
C413 C414 1.523 . S
C414 C398 1.368 . S
C414 C410 1.368 . S
C414 C413 1.523 . S
H415 C390 0.950 . S
H416 C392 0.950 . S
H417 C393 0.949 . S
H418 C395 0.950 . S
H419 C397 0.950 . S
C420 C421 1.349 . S
C420 C422 1.327 . S
C420 H445 0.950 . S
C421 C420 1.349 . S
C421 C437 1.349 . S
C422 C420 1.327 . S
C422 C441 1.429 . S
C422 H446 0.950 . S
C423 C440 1.574 . S
C423 C442 1.368 . S
C423 H447 0.949 . S
H424 C428 0.949 . S
C425 C426 1.349 . S
C425 C427 1.327 . S
C425 H448 0.950 . S
C426 C425 1.349 . S
C426 C438 1.349 . S
C427 C425 1.327 . S
C427 C443 1.429 . S
C427 H449 0.950 . S
C428 H424 0.949 . S
C428 C436 1.574 . S
C428 C444 1.368 . S
H429 C437 0.950 . S
H430 C435 0.950 . S
H431 C436 0.949 . S
H432 C438 0.950 . S
H433 C439 0.950 . S
H434 C440 0.949 . S
C435 H430 0.950 . S
C435 C437 1.327 . S
C435 C441 1.429 . S
C436 C428 1.574 . S
C436 H431 0.949 . S
C436 C442 1.368 . S
C437 C421 1.349 . S
C437 H429 0.950 . S
C437 C435 1.327 . S
C438 C426 1.349 . S
C438 H432 0.950 . S
C438 C439 1.327 . S
C439 H433 0.950 . S
C439 C438 1.327 . S
C439 C443 1.429 . S
C440 C423 1.574 . S
C440 H434 0.949 . S
C440 C444 1.368 . S
C441 C422 1.429 . S
C441 C435 1.429 . S
C441 C442 1.523 . S
C442 C423 1.368 . S
C442 C436 1.368 . S
C442 C441 1.523 . S
C443 C427 1.429 . S
C443 C439 1.429 . S
C443 C444 1.523 . S
C444 C428 1.368 . S
C444 C440 1.368 . S
C444 C443 1.523 . S
H445 C420 0.950 . S
H446 C422 0.950 . S
H447 C423 0.949 . S
H448 C425 0.950 . S
H449 C427 0.950 . S
C450 C451 1.349 . S
C450 C452 1.327 . S
C450 H475 0.950 . S
C451 C450 1.349 . S
C451 C467 1.349 . S
C452 C450 1.327 . S
C452 C471 1.429 . S
C452 H476 0.950 . S
C453 C470 1.574 . S
C453 C472 1.368 . S
C453 H477 0.949 . S
H454 C458 0.949 . S
C455 C456 1.349 . S
C455 C457 1.327 . S
C455 H478 0.950 . S
C456 C455 1.349 . S
C456 C468 1.349 . S
C457 C455 1.327 . S
C457 C473 1.429 . S
C457 H479 0.950 . S
C458 H454 0.949 . S
C458 C466 1.574 . S
C458 C474 1.368 . S
H459 C467 0.950 . S
H460 C465 0.950 . S
H461 C466 0.949 . S
H462 C468 0.950 . S
H463 C469 0.950 . S
H464 C470 0.949 . S
C465 H460 0.950 . S
C465 C467 1.327 . S
C465 C471 1.429 . S
C466 C458 1.574 . S
C466 H461 0.949 . S
C466 C472 1.368 . S
C467 C451 1.349 . S
C467 H459 0.950 . S
C467 C465 1.327 . S
C468 C456 1.349 . S
C468 H462 0.950 . S
C468 C469 1.327 . S
C469 H463 0.950 . S
C469 C468 1.327 . S
C469 C473 1.429 . S
C470 C453 1.574 . S
C470 H464 0.949 . S
C470 C474 1.368 . S
C471 C452 1.429 . S
C471 C465 1.429 . S
C471 C472 1.523 . S
C472 C453 1.368 . S
C472 C466 1.368 . S
C472 C471 1.523 . S
C473 C457 1.429 . S
C473 C469 1.429 . S
C473 C474 1.523 . S
C474 C458 1.368 . S
C474 C470 1.368 . S
C474 C473 1.523 . S
H475 C450 0.950 . S
H476 C452 0.950 . S
H477 C453 0.949 . S
H478 C455 0.950 . S
H479 C457 0.950 . S
C480 C481 1.349 . S
C480 C482 1.327 . S
C480 H505 0.950 . S
C481 C480 1.349 . S
C481 C497 1.349 . S
C482 C480 1.327 . S
C482 C501 1.429 . S
C482 H506 0.950 . S
C483 C500 1.574 . S
C483 C502 1.368 . S
C483 H507 0.949 . S
H484 C488 0.949 . S
C485 C486 1.349 . S
C485 C487 1.327 . S
C485 H508 0.950 . S
C486 C485 1.349 . S
C486 C498 1.349 . S
C487 C485 1.327 . S
C487 C503 1.429 . S
C487 H509 0.950 . S
C488 H484 0.949 . S
C488 C496 1.574 . S
C488 C504 1.368 . S
H489 C497 0.950 . S
H490 C495 0.950 . S
H491 C496 0.949 . S
H492 C498 0.950 . S
H493 C499 0.950 . S
H494 C500 0.949 . S
C495 H490 0.950 . S
C495 C497 1.327 . S
C495 C501 1.429 . S
C496 C488 1.574 . S
C496 H491 0.949 . S
C496 C502 1.368 . S
C497 C481 1.349 . S
C497 H489 0.950 . S
C497 C495 1.327 . S
C498 C486 1.349 . S
C498 H492 0.950 . S
C498 C499 1.327 . S
C499 H493 0.950 . S
C499 C498 1.327 . S
C499 C503 1.429 . S
C500 C483 1.574 . S
C500 H494 0.949 . S
C500 C504 1.368 . S
C501 C482 1.429 . S
C501 C495 1.429 . S
C501 C502 1.523 . S
C502 C483 1.368 . S
C502 C496 1.368 . S
C502 C501 1.523 . S
C503 C487 1.429 . S
C503 C499 1.429 . S
C503 C504 1.523 . S
C504 C488 1.368 . S
C504 C500 1.368 . S
C504 C503 1.523 . S
H505 C480 0.950 . S
H506 C482 0.950 . S
H507 C483 0.949 . S
H508 C485 0.950 . S
H509 C487 0.950 . S
C510 C511 1.349 . S
C510 C512 1.327 . S
C510 H535 0.950 . S
C511 C510 1.349 . S
C511 C527 1.349 . S
C512 C510 1.327 . S
C512 C531 1.429 . S
C512 H536 0.950 . S
C513 C530 1.574 . S
C513 C532 1.368 . S
C513 H537 0.949 . S
H514 C518 0.949 . S
C515 C516 1.349 . S
C515 C517 1.327 . S
C515 H538 0.950 . S
C516 C515 1.349 . S
C516 C528 1.349 . S
C517 C515 1.327 . S
C517 C533 1.429 . S
C517 H539 0.950 . S
C518 H514 0.949 . S
C518 C526 1.574 . S
C518 C534 1.368 . S
H519 C527 0.950 . S
H520 C525 0.950 . S
H521 C526 0.949 . S
H522 C528 0.950 . S
H523 C529 0.950 . S
H524 C530 0.949 . S
C525 H520 0.950 . S
C525 C527 1.327 . S
C525 C531 1.429 . S
C526 C518 1.574 . S
C526 H521 0.949 . S
C526 C532 1.368 . S
C527 C511 1.349 . S
C527 H519 0.950 . S
C527 C525 1.327 . S
C528 C516 1.349 . S
C528 H522 0.950 . S
C528 C529 1.327 . S
C529 H523 0.950 . S
C529 C528 1.327 . S
C529 C533 1.429 . S
C530 C513 1.574 . S
C530 H524 0.949 . S
C530 C534 1.368 . S
C531 C512 1.429 . S
C531 C525 1.429 . S
C531 C532 1.523 . S
C532 C513 1.368 . S
C532 C526 1.368 . S
C532 C531 1.523 . S
C533 C517 1.429 . S
C533 C529 1.429 . S
C533 C534 1.523 . S
C534 C518 1.368 . S
C534 C530 1.368 . S
C534 C533 1.523 . S
H535 C510 0.950 . S
H536 C512 0.950 . S
H537 C513 0.949 . S
H538 C515 0.950 . S
H539 C517 0.950 . S
C540 C541 1.349 . S
C540 C542 1.327 . S
C540 H565 0.950 . S
C541 C540 1.349 . S
C541 C557 1.349 . S
C542 C540 1.327 . S
C542 C561 1.429 . S
C542 H566 0.950 . S
C543 C560 1.574 . S
C543 C562 1.368 . S
C543 H567 0.949 . S
H544 C548 0.949 . S
C545 C546 1.349 . S
C545 C547 1.327 . S
C545 H568 0.950 . S
C546 C545 1.349 . S
C546 C558 1.349 . S
C547 C545 1.327 . S
C547 C563 1.429 . S
C547 H569 0.950 . S
C548 H544 0.949 . S
C548 C556 1.574 . S
C548 C564 1.368 . S
H549 C557 0.950 . S
H550 C555 0.950 . S
H551 C556 0.949 . S
H552 C558 0.950 . S
H553 C559 0.950 . S
H554 C560 0.949 . S
C555 H550 0.950 . S
C555 C557 1.327 . S
C555 C561 1.429 . S
C556 C548 1.574 . S
C556 H551 0.949 . S
C556 C562 1.368 . S
C557 C541 1.349 . S
C557 H549 0.950 . S
C557 C555 1.327 . S
C558 C546 1.349 . S
C558 H552 0.950 . S
C558 C559 1.327 . S
C559 H553 0.950 . S
C559 C558 1.327 . S
C559 C563 1.429 . S
C560 C543 1.574 . S
C560 H554 0.949 . S
C560 C564 1.368 . S
C561 C542 1.429 . S
C561 C555 1.429 . S
C561 C562 1.523 . S
C562 C543 1.368 . S
C562 C556 1.368 . S
C562 C561 1.523 . S
C563 C547 1.429 . S
C563 C559 1.429 . S
C563 C564 1.523 . S
C564 C548 1.368 . S
C564 C560 1.368 . S
C564 C563 1.523 . S
H565 C540 0.950 . S
H566 C542 0.950 . S
H567 C543 0.949 . S
H568 C545 0.950 . S
H569 C547 0.950 . S
C570 C571 1.349 . S
C570 C572 1.327 . S
C570 H595 0.950 . S
C571 C570 1.349 . S
C571 C587 1.349 . S
C572 C570 1.327 . S
C572 C591 1.429 . S
C572 H596 0.950 . S
C573 C590 1.574 . S
C573 C592 1.368 . S
C573 H597 0.949 . S
H574 C578 0.949 . S
C575 C576 1.349 . S
C575 C577 1.327 . S
C575 H598 0.950 . S
C576 C575 1.349 . S
C576 C588 1.349 . S
C577 C575 1.327 . S
C577 C593 1.429 . S
C577 H599 0.950 . S
C578 H574 0.949 . S
C578 C586 1.574 . S
C578 C594 1.368 . S
H579 C587 0.950 . S
H580 C585 0.950 . S
H581 C586 0.949 . S
H582 C588 0.950 . S
H583 C589 0.950 . S
H584 C590 0.949 . S
C585 H580 0.950 . S
C585 C587 1.327 . S
C585 C591 1.429 . S
C586 C578 1.574 . S
C586 H581 0.949 . S
C586 C592 1.368 . S
C587 C571 1.349 . S
C587 H579 0.950 . S
C587 C585 1.327 . S
C588 C576 1.349 . S
C588 H582 0.950 . S
C588 C589 1.327 . S
C589 H583 0.950 . S
C589 C588 1.327 . S
C589 C593 1.429 . S
C590 C573 1.574 . S
C590 H584 0.949 . S
C590 C594 1.368 . S
C591 C572 1.429 . S
C591 C585 1.429 . S
C591 C592 1.523 . S
C592 C573 1.368 . S
C592 C586 1.368 . S
C592 C591 1.523 . S
C593 C577 1.429 . S
C593 C589 1.429 . S
C593 C594 1.523 . S
C594 C578 1.368 . S
C594 C590 1.368 . S
C594 C593 1.523 . S
H595 C570 0.950 . S
H596 C572 0.950 . S
H597 C573 0.949 . S
H598 C575 0.950 . S
H599 C577 0.950 . S
C600 C601 1.349 . S
C600 C602 1.327 . S
C600 H625 0.950 . S
C601 C600 1.349 . S
C601 C617 1.349 . S
C602 C600 1.327 . S
C602 C621 1.429 . S
C602 H626 0.950 . S
C603 C620 1.574 . S
C603 C622 1.368 . S
C603 H627 0.949 . S
H604 C608 0.949 . S
C605 C606 1.349 . S
C605 C607 1.327 . S
C605 H628 0.950 . S
C606 C605 1.349 . S
C606 C618 1.349 . S
C607 C605 1.327 . S
C607 C623 1.429 . S
C607 H629 0.950 . S
C608 H604 0.949 . S
C608 C616 1.574 . S
C608 C624 1.368 . S
H609 C617 0.950 . S
H610 C615 0.950 . S
H611 C616 0.949 . S
H612 C618 0.950 . S
H613 C619 0.950 . S
H614 C620 0.949 . S
C615 H610 0.950 . S
C615 C617 1.327 . S
C615 C621 1.429 . S
C616 C608 1.574 . S
C616 H611 0.949 . S
C616 C622 1.368 . S
C617 C601 1.349 . S
C617 H609 0.950 . S
C617 C615 1.327 . S
C618 C606 1.349 . S
C618 H612 0.950 . S
C618 C619 1.327 . S
C619 H613 0.950 . S
C619 C618 1.327 . S
C619 C623 1.429 . S
C620 C603 1.574 . S
C620 H614 0.949 . S
C620 C624 1.368 . S
C621 C602 1.429 . S
C621 C615 1.429 . S
C621 C622 1.523 . S
C622 C603 1.368 . S
C622 C616 1.368 . S
C622 C621 1.523 . S
C623 C607 1.429 . S
C623 C619 1.429 . S
C623 C624 1.523 . S
C624 C608 1.368 . S
C624 C620 1.368 . S
C624 C623 1.523 . S
H625 C600 0.950 . S
H626 C602 0.950 . S
H627 C603 0.949 . S
H628 C605 0.950 . S
H629 C607 0.950 . S
C630 C631 1.349 . S
C630 C632 1.327 . S
C630 H655 0.950 . S
C631 C630 1.349 . S
C631 C647 1.349 . S
C632 C630 1.327 . S
C632 C651 1.429 . S
C632 H656 0.950 . S
C633 C650 1.574 . S
C633 C652 1.368 . S
C633 H657 0.949 . S
H634 C638 0.949 . S
C635 C636 1.349 . S
C635 C637 1.327 . S
C635 H658 0.950 . S
C636 C635 1.349 . S
C636 C648 1.349 . S
C637 C635 1.327 . S
C637 C653 1.429 . S
C637 H659 0.950 . S
C638 H634 0.949 . S
C638 C646 1.574 . S
C638 C654 1.368 . S
H639 C647 0.950 . S
H640 C645 0.950 . S
H641 C646 0.949 . S
H642 C648 0.950 . S
H643 C649 0.950 . S
H644 C650 0.949 . S
C645 H640 0.950 . S
C645 C647 1.327 . S
C645 C651 1.429 . S
C646 C638 1.574 . S
C646 H641 0.949 . S
C646 C652 1.368 . S
C647 C631 1.349 . S
C647 H639 0.950 . S
C647 C645 1.327 . S
C648 C636 1.349 . S
C648 H642 0.950 . S
C648 C649 1.327 . S
C649 H643 0.950 . S
C649 C648 1.327 . S
C649 C653 1.429 . S
C650 C633 1.574 . S
C650 H644 0.949 . S
C650 C654 1.368 . S
C651 C632 1.429 . S
C651 C645 1.429 . S
C651 C652 1.523 . S
C652 C633 1.368 . S
C652 C646 1.368 . S
C652 C651 1.523 . S
C653 C637 1.429 . S
C653 C649 1.429 . S
C653 C654 1.523 . S
C654 C638 1.368 . S
C654 C650 1.368 . S
C654 C653 1.523 . S
H655 C630 0.950 . S
H656 C632 0.950 . S
H657 C633 0.949 . S
H658 C635 0.950 . S
H659 C637 0.950 . S
C660 C661 1.349 . S
C660 C662 1.327 . S
C660 H685 0.950 . S
C661 C660 1.349 . S
C661 C677 1.349 . S
C662 C660 1.327 . S
C662 C681 1.429 . S
C662 H686 0.950 . S
C663 C680 1.574 . S
C663 C682 1.368 . S
C663 H687 0.949 . S
H664 C668 0.949 . S
C665 C666 1.349 . S
C665 C667 1.327 . S
C665 H688 0.950 . S
C666 C665 1.349 . S
C666 C678 1.349 . S
C667 C665 1.327 . S
C667 C683 1.429 . S
C667 H689 0.950 . S
C668 H664 0.949 . S
C668 C676 1.574 . S
C668 C684 1.368 . S
H669 C677 0.950 . S
H670 C675 0.950 . S
H671 C676 0.949 . S
H672 C678 0.950 . S
H673 C679 0.950 . S
H674 C680 0.949 . S
C675 H670 0.950 . S
C675 C677 1.327 . S
C675 C681 1.429 . S
C676 C668 1.574 . S
C676 H671 0.949 . S
C676 C682 1.368 . S
C677 C661 1.349 . S
C677 H669 0.950 . S
C677 C675 1.327 . S
C678 C666 1.349 . S
C678 H672 0.950 . S
C678 C679 1.327 . S
C679 H673 0.950 . S
C679 C678 1.327 . S
C679 C683 1.429 . S
C680 C663 1.574 . S
C680 H674 0.949 . S
C680 C684 1.368 . S
C681 C662 1.429 . S
C681 C675 1.429 . S
C681 C682 1.523 . S
C682 C663 1.368 . S
C682 C676 1.368 . S
C682 C681 1.523 . S
C683 C667 1.429 . S
C683 C679 1.429 . S
C683 C684 1.523 . S
C684 C668 1.368 . S
C684 C680 1.368 . S
C684 C683 1.523 . S
H685 C660 0.950 . S
H686 C662 0.950 . S
H687 C663 0.949 . S
H688 C665 0.950 . S
H689 C667 0.950 . S
C690 C691 1.349 . S
C690 C692 1.327 . S
C690 H715 0.950 . S
C691 C690 1.349 . S
C691 C707 1.349 . S
C692 C690 1.327 . S
C692 C711 1.429 . S
C692 H716 0.950 . S
C693 C710 1.574 . S
C693 C712 1.368 . S
C693 H717 0.949 . S
H694 C698 0.949 . S
C695 C696 1.349 . S
C695 C697 1.327 . S
C695 H718 0.950 . S
C696 C695 1.349 . S
C696 C708 1.349 . S
C697 C695 1.327 . S
C697 C713 1.429 . S
C697 H719 0.950 . S
C698 H694 0.949 . S
C698 C706 1.574 . S
C698 C714 1.368 . S
H699 C707 0.950 . S
H700 C705 0.950 . S
H701 C706 0.949 . S
H702 C708 0.950 . S
H703 C709 0.950 . S
H704 C710 0.949 . S
C705 H700 0.950 . S
C705 C707 1.327 . S
C705 C711 1.429 . S
C706 C698 1.574 . S
C706 H701 0.949 . S
C706 C712 1.368 . S
C707 C691 1.349 . S
C707 H699 0.950 . S
C707 C705 1.327 . S
C708 C696 1.349 . S
C708 H702 0.950 . S
C708 C709 1.327 . S
C709 H703 0.950 . S
C709 C708 1.327 . S
C709 C713 1.429 . S
C710 C693 1.574 . S
C710 H704 0.949 . S
C710 C714 1.368 . S
C711 C692 1.429 . S
C711 C705 1.429 . S
C711 C712 1.523 . S
C712 C693 1.368 . S
C712 C706 1.368 . S
C712 C711 1.523 . S
C713 C697 1.429 . S
C713 C709 1.429 . S
C713 C714 1.523 . S
C714 C698 1.368 . S
C714 C710 1.368 . S
C714 C713 1.523 . S
H715 C690 0.950 . S
H716 C692 0.950 . S
H717 C693 0.949 . S
H718 C695 0.950 . S
H719 C697 0.950 . S
C720 C721 1.349 . S
C720 C722 1.327 . S
C720 H745 0.950 . S
C721 C720 1.349 . S
C721 C737 1.349 . S
C722 C720 1.327 . S
C722 C741 1.429 . S
C722 H746 0.950 . S
C723 C740 1.574 . S
C723 C742 1.368 . S
C723 H747 0.949 1_455 S
H724 C728 0.949 . S
C725 C726 1.349 . S
C725 C727 1.327 1_556 S
C725 H748 0.946 1_455 S
C726 C725 1.349 . S
C726 C738 1.391 . S
C727 C725 1.327 1_554 S
C727 C743 1.429 . S
C727 H749 0.950 1_455 S
C728 H724 0.949 . S
C728 C736 1.574 . S
C728 C744 1.368 . S
H729 C737 0.950 1_655 S
H730 C735 0.950 1_655 S
H731 C736 0.949 . S
H732 C738 0.980 . S
H733 C739 0.950 . S
H734 C740 0.949 1_655 S
C735 H730 0.950 1_455 S
C735 C737 1.327 . S
C735 C741 1.429 . S
C736 C728 1.574 . S
C736 H731 0.949 . S
C736 C742 1.368 . S
C737 C721 1.349 . S
C737 H729 0.950 1_455 S
C737 C735 1.327 . S
C738 C726 1.391 . S
C738 H732 0.980 . S
C738 C739 1.258 1_556 S
C739 H733 0.950 . S
C739 C738 1.258 1_554 S
C739 C743 1.429 . S
C740 C723 1.574 . S
C740 H734 0.949 1_455 S
C740 C744 1.368 . S
C741 C722 1.429 . S
C741 C735 1.429 . S
C741 C742 1.523 . S
C742 C723 1.368 . S
C742 C736 1.368 . S
C742 C741 1.523 . S
C743 C727 1.429 . S
C743 C739 1.429 . S
C743 C744 1.523 . S
C744 C728 1.368 . S
C744 C740 1.368 . S
C744 C743 1.523 . S
H745 C720 0.950 . S
H746 C722 0.950 . S
H747 C723 0.949 1_655 S
H748 C725 0.946 1_655 S
H749 C727 0.950 1_655 S
C750 C751 1.349 . S
C750 C752 1.325 . S
C750 H775 0.950 1_545 S
C751 C750 1.349 . S
C751 C767 1.349 . S
C752 C750 1.325 . S
C752 C771 1.446 . S
C752 H776 0.936 1_545 S
C753 C770 1.574 . S
C753 C772 1.368 . S
C753 H777 0.949 . S
H754 C758 0.949 1_565 S
C755 C756 1.349 . S
C755 C757 1.327 . S
C755 H778 0.950 . S
C756 C755 1.349 . S
C756 C768 1.349 . S
C757 C755 1.327 . S
C757 C773 1.429 . S
C757 H779 0.950 . S
C758 H754 0.949 1_545 S
C758 C766 1.574 . S
C758 C774 1.368 . S
H759 C767 0.950 . S
H760 C765 0.950 . S
H761 C766 0.949 1_565 S
H762 C768 0.950 1_565 S
H763 C769 0.950 1_565 S
H764 C770 0.949 . S
C765 H760 0.950 . S
C765 C767 1.327 . S
C765 C771 1.429 . S
C766 C758 1.574 . S
C766 H761 0.949 1_545 S
C766 C772 1.368 . S
C767 C751 1.349 . S
C767 H759 0.950 . S
C767 C765 1.327 . S
C768 C756 1.349 . S
C768 H762 0.950 1_545 S
C768 C769 1.327 . S
C769 H763 0.950 1_545 S
C769 C768 1.327 . S
C769 C773 1.429 . S
C770 C753 1.574 . S
C770 H764 0.949 . S
C770 C774 1.368 . S
C771 C752 1.446 . S
C771 C765 1.429 . S
C771 C772 1.523 . S
C772 C753 1.368 . S
C772 C766 1.368 . S
C772 C771 1.523 . S
C773 C757 1.429 . S
C773 C769 1.429 . S
C773 C774 1.523 . S
C774 C758 1.368 . S
C774 C770 1.368 . S
C774 C773 1.523 . S
H775 C750 0.950 1_565 S
H776 C752 0.936 1_565 S
H777 C753 0.949 . S
H778 C755 0.950 . S
H779 C757 0.950 . S
C780 C781 1.349 . S
C780 C782 1.327 . S
C780 H805 0.950 . S
C781 C780 1.349 . S
C781 C797 1.349 . S
C782 C780 1.327 . S
C782 C801 1.429 . S
C782 H806 0.950 . S
C783 C800 1.574 . S
C783 C802 1.368 . S
C783 H807 0.949 . S
H784 C788 0.949 . S
C785 C786 1.349 . S
C785 C787 1.327 . S
C785 H808 0.950 . S
C786 C785 1.349 . S
C786 C798 1.349 . S
C787 C785 1.327 . S
C787 C803 1.429 . S
C787 H809 0.950 . S
C788 H784 0.949 . S
C788 C796 1.574 . S
C788 C804 1.368 . S
H789 C797 0.950 . S
H790 C795 0.950 . S
H791 C796 0.949 . S
H792 C798 0.950 . S
H793 C799 0.950 . S
H794 C800 0.949 . S
C795 H790 0.950 . S
C795 C797 1.327 . S
C795 C801 1.429 . S
C796 C788 1.574 . S
C796 H791 0.949 . S
C796 C802 1.368 . S
C797 C781 1.349 . S
C797 H789 0.950 . S
C797 C795 1.327 . S
C798 C786 1.349 . S
C798 H792 0.950 . S
C798 C799 1.327 . S
C799 H793 0.950 . S
C799 C798 1.327 . S
C799 C803 1.429 . S
C800 C783 1.574 . S
C800 H794 0.949 . S
C800 C804 1.368 . S
C801 C782 1.429 . S
C801 C795 1.429 . S
C801 C802 1.523 . S
C802 C783 1.368 . S
C802 C796 1.368 . S
C802 C801 1.523 . S
C803 C787 1.429 . S
C803 C799 1.429 . S
C803 C804 1.523 . S
C804 C788 1.368 . S
C804 C800 1.368 . S
C804 C803 1.523 . S
H805 C780 0.950 . S
H806 C782 0.950 . S
H807 C783 0.949 . S
H808 C785 0.950 . S
H809 C787 0.950 . S
C810 C811 1.349 . S
C810 C812 1.327 . S
C810 H835 0.950 . S
C811 C810 1.349 . S
C811 C827 1.349 1_545 S
C812 C810 1.327 . S
C812 C831 1.429 . S
C812 H836 0.950 . S
C813 C830 1.574 . S
C813 C832 1.368 1_565 S
C813 H837 0.949 . S
H814 C818 0.949 . S
C815 C816 1.316 1_565 S
C815 C817 1.327 . S
C815 H838 0.950 . S
C816 C815 1.316 1_545 S
C816 C828 1.386 . S
C817 C815 1.327 . S
C817 C833 1.429 1_565 S
C817 H839 0.950 . S
C818 H814 0.949 . S
C818 C826 1.574 . S
C818 C834 1.368 . S
H819 C827 0.950 . S
H820 C825 0.950 . S
H821 C826 0.949 . S
H822 C828 0.950 . S
H823 C829 0.950 . S
H824 C830 0.949 . S
C825 H820 0.950 . S
C825 C827 1.327 . S
C825 C831 1.429 1_565 S
C826 C818 1.574 . S
C826 H821 0.949 . S
C826 C832 1.368 . S
C827 C811 1.349 1_565 S
C827 H819 0.950 . S
C827 C825 1.327 . S
C828 C816 1.386 . S
C828 H822 0.950 . S
C828 C829 1.327 . S
C829 H823 0.950 . S
C829 C828 1.327 . S
C829 C833 1.429 . S
C830 C813 1.574 . S
C830 H824 0.949 . S
C830 C834 1.368 1_565 S
C831 C812 1.429 . S
C831 C825 1.429 1_545 S
C831 C832 1.523 . S
C832 C813 1.368 1_545 S
C832 C826 1.368 . S
C832 C831 1.523 . S
C833 C817 1.429 1_545 S
C833 C829 1.429 . S
C833 C834 1.523 . S
C834 C818 1.368 . S
C834 C830 1.368 1_545 S
C834 C833 1.523 . S
H835 C810 0.950 . S
H836 C812 0.950 . S
H837 C813 0.949 . S
H838 C815 0.950 . S
H839 C817 0.950 . S
C840 C841 1.349 . S
C840 C842 1.327 . S
C840 H865 0.950 . S
C841 C840 1.349 . S
C841 C857 1.349 . S
C842 C840 1.327 . S
C842 C861 1.429 . S
C842 H866 0.950 . S
C843 C860 1.574 . S
C843 C862 1.368 . S
C843 H867 0.949 . S
H844 C848 0.949 . S
C845 C846 1.357 . S
C845 C847 1.309 1_554 S
C845 H868 0.960 . S
C846 C845 1.357 . S
C846 C858 1.349 1_554 S
C847 C845 1.309 1_556 S
C847 C863 1.429 . S
C847 H869 0.950 . S
C848 H844 0.949 . S
C848 C856 1.574 . S
C848 C864 1.368 . S
H849 C857 0.950 . S
H850 C855 0.950 . S
H851 C856 0.949 . S
H852 C858 0.950 1_554 S
H853 C859 0.950 . S
H854 C860 0.949 . S
C855 H850 0.950 . S
C855 C857 1.327 . S
C855 C861 1.429 . S
C856 C848 1.574 . S
C856 H851 0.949 . S
C856 C862 1.368 . S
C857 C841 1.349 . S
C857 H849 0.950 . S
C857 C855 1.327 . S
C858 C846 1.349 1_556 S
C858 H852 0.950 1_556 S
C858 C859 1.327 . S
C859 H853 0.950 . S
C859 C858 1.327 . S
C859 C863 1.429 . S
C860 C843 1.574 . S
C860 H854 0.949 . S
C860 C864 1.368 . S
C861 C842 1.429 . S
C861 C855 1.429 . S
C861 C862 1.523 . S
C862 C843 1.368 . S
C862 C856 1.368 . S
C862 C861 1.523 . S
C863 C847 1.429 . S
C863 C859 1.429 . S
C863 C864 1.523 . S
C864 C848 1.368 . S
C864 C860 1.368 . S
C864 C863 1.523 . S
H865 C840 0.950 . S
H866 C842 0.950 . S
H867 C843 0.949 . S
H868 C845 0.960 . S
H869 C847 0.950 . S
C870 C871 1.349 . S
C870 C872 1.327 . S
C870 H895 0.950 . S
C871 C870 1.349 . S
C871 C887 1.349 . S
C872 C870 1.327 . S
C872 C891 1.429 . S
C872 H896 0.950 . S
C873 C890 1.573 1_455 S
C873 C892 1.368 . S
C873 H897 0.945 1_455 S
H874 C878 0.949 . S
C875 C876 1.349 . S
C875 C877 1.327 . S
C875 H898 0.950 . S
C876 C875 1.349 . S
C876 C888 1.349 1_655 S
C877 C875 1.327 . S
C877 C893 1.429 1_655 S
C877 H899 0.950 . S
C878 H874 0.949 . S
C878 C886 1.574 . S
C878 C894 1.368 . S
H879 C887 0.950 . S
H880 C885 0.950 . S
H881 C886 0.949 . S
H882 C888 0.950 . S
H883 C889 0.950 . S
H884 C890 0.951 . S
C885 H880 0.950 . S
C885 C887 1.327 . S
C885 C891 1.429 . S
C886 C878 1.574 . S
C886 H881 0.949 . S
C886 C892 1.368 . S
C887 C871 1.349 . S
C887 H879 0.950 . S
C887 C885 1.327 . S
C888 C876 1.349 1_455 S
C888 H882 0.950 . S
C888 C889 1.327 . S
C889 H883 0.950 . S
C889 C888 1.327 . S
C889 C893 1.429 . S
C890 C873 1.573 1_655 S
C890 H884 0.951 . S
C890 C894 1.367 1_655 S
C891 C872 1.429 . S
C891 C885 1.429 . S
C891 C892 1.523 . S
C892 C873 1.368 . S
C892 C886 1.368 . S
C892 C891 1.523 . S
C893 C877 1.429 1_455 S
C893 C889 1.429 . S
C893 C894 1.523 . S
C894 C878 1.368 . S
C894 C890 1.367 1_455 S
C894 C893 1.523 . S
H895 C870 0.950 . S
H896 C872 0.950 . S
H897 C873 0.945 1_655 S
H898 C875 0.950 . S
H899 C877 0.950 . S
C361 C10 3.142 . S
C366 C335 3.094 . S
C391 C55 1.141 . S
C396 C242 1.140 . S
C421 C90 1.876 . S
C426 C282 1.861 . S
C451 C19 2.956 . S
C456 C322 2.945 . S
C486 C255 1.297 . S
C481 C46 1.295 . S
C516 C295 2.065 . S
C511 C99 2.099 . S
C541 C50 1.888 . S
C546 C162 1.868 . S
C571 C95 0.465 . S
C576 C202 0.475 . S
C601 C6 1.328 . S
C606 C135 1.320 . S
C636 C175 2.028 . S
C631 C59 2.069 . S
C666 C215 0.260 . S
C661 C86 0.325 . S
C691 C15 1.162 . S
C696 C122 1.164 . S
C726 C221 1.129 . S
C721 C18 1.120 . S
C751 C49 1.456 . S
C756 C141 1.496 . S
C781 C98 1.353 . S
C786 C181 1.385 . S
C816 C301 1.385 1_545 S
C811 C58 1.351 . S
C846 C341 1.751 . S
C841 C89 1.689 . S
C871 C9 1.461 . S
C876 C261 1.508 . S
