# Generated by pormake.
# Topology ssa, (4,4)-cn, num edge types: 1
# Building blocks:
#     Node 0, Type 0, BuildingBlock: KOZSID_clean_sbu_0, # of connection points: 4
#     Node 1, Type 0, BuildingBlock: KOZSID_clean_sbu_0, # of connection points: 4
#     Node 2, Type 0, BuildingBlock: KOZSID_clean_sbu_0, # of connection points: 4
#     Node 3, Type 0, BuildingBlock: KOZSID_clean_sbu_0, # of connection points: 4
#     Node 4, Type 0, BuildingBlock: KOZSID_clean_sbu_0, # of connection points: 4
#     Node 5, Type 0, BuildingBlock: KOZSID_clean_sbu_0, # of connection points: 4
#     Node 6, Type 1, BuildingBlock: NAWXER_clean_sbu_0, # of connection points: 4
#     Node 7, Type 1, BuildingBlock: NAWXER_clean_sbu_0, # of connection points: 4
#     Node 8, Type 1, BuildingBlock: NAWXER_clean_sbu_0, # of connection points: 4
#     Node 9, Type 1, BuildingBlock: NAWXER_clean_sbu_0, # of connection points: 4
#     Node 10, Type 1, BuildingBlock: NAWXER_clean_sbu_0, # of connection points: 4
#     Node 11, Type 1, BuildingBlock: NAWXER_clean_sbu_0, # of connection points: 4
#     Edge 12, Type (0, 1), BuildingBlock: CIFDUS_clean_linker_0, # of connection points: 2
#     Edge 13, Type (0, 1), BuildingBlock: CIFDUS_clean_linker_0, # of connection points: 2
#     Edge 14, Type (0, 1), BuildingBlock: CIFDUS_clean_linker_0, # of connection points: 2
#     Edge 15, Type (0, 1), BuildingBlock: CIFDUS_clean_linker_0, # of connection points: 2
#     Edge 16, Type (0, 1), BuildingBlock: CIFDUS_clean_linker_0, # of connection points: 2
#     Edge 17, Type (0, 1), BuildingBlock: CIFDUS_clean_linker_0, # of connection points: 2
#     Edge 18, Type (0, 1), BuildingBlock: CIFDUS_clean_linker_0, # of connection points: 2
#     Edge 19, Type (0, 1), BuildingBlock: CIFDUS_clean_linker_0, # of connection points: 2
#     Edge 20, Type (0, 1), BuildingBlock: CIFDUS_clean_linker_0, # of connection points: 2
#     Edge 21, Type (0, 1), BuildingBlock: CIFDUS_clean_linker_0, # of connection points: 2
#     Edge 22, Type (0, 1), BuildingBlock: CIFDUS_clean_linker_0, # of connection points: 2
#     Edge 23, Type (0, 1), BuildingBlock: CIFDUS_clean_linker_0, # of connection points: 2
#     Edge 24, Type (0, 1), BuildingBlock: CIFDUS_clean_linker_0, # of connection points: 2
#     Edge 25, Type (0, 1), BuildingBlock: CIFDUS_clean_linker_0, # of connection points: 2
#     Edge 26, Type (0, 1), BuildingBlock: CIFDUS_clean_linker_0, # of connection points: 2
#     Edge 27, Type (0, 1), BuildingBlock: CIFDUS_clean_linker_0, # of connection points: 2
#     Edge 28, Type (0, 1), BuildingBlock: CIFDUS_clean_linker_0, # of connection points: 2
#     Edge 29, Type (0, 1), BuildingBlock: CIFDUS_clean_linker_0, # of connection points: 2
#     Edge 30, Type (0, 1), BuildingBlock: CIFDUS_clean_linker_0, # of connection points: 2
#     Edge 31, Type (0, 1), BuildingBlock: CIFDUS_clean_linker_0, # of connection points: 2
#     Edge 32, Type (0, 1), BuildingBlock: CIFDUS_clean_linker_0, # of connection points: 2
#     Edge 33, Type (0, 1), BuildingBlock: CIFDUS_clean_linker_0, # of connection points: 2
#     Edge 34, Type (0, 1), BuildingBlock: CIFDUS_clean_linker_0, # of connection points: 2
#     Edge 35, Type (0, 1), BuildingBlock: CIFDUS_clean_linker_0, # of connection points: 2
# Relax obj value: 0.012
# Max RMSD: 0.030
# Mean RMSD: 0.018
data_MOF--net-ssa--node1-KOZSID_clean_sbu_0--node2-NAWXER_clean_sbu_0--edge1-CIFDUS_clean_linker_0
_symmetry_space_group_name_H-M    P1
_symmetry_Int_Tables_number       1
_symmetry_cell_setting            triclinic
loop_
_symmetry_equiv_pos_as_xyz
'x, y, z'
_cell_length_a     43.849135
_cell_length_b     45.163688
_cell_length_c     37.107749
_cell_angle_alpha  87.383163
_cell_angle_beta   89.80228
_cell_angle_gamma 123.17765
loop_
_atom_site_label
_atom_site_type_symbol
_atom_site_fract_x
_atom_site_fract_y
_atom_site_fract_z
_atom_type_partial_charge
C0 C 0.9278 0.49393 1.00075 0.0
C1 C 0.89443 0.47943 0.01878 0.0
C2 C 0.89623 0.46399 0.05051 0.0
C3 C 0.93046 0.46997 0.04995 0.0
N4 N 0.95101 0.4892 0.02027 0.0
Co5 Co 1.0009 0.5011 0.00625 0.0
N6 N 1.00074 0.47203 0.04883 0.0
C7 C 0.97364 0.45302 0.07413 0.0
C8 C 0.98231 0.43751 0.10124 0.0
C9 C 0.0173 0.44782 0.09323 0.0
C10 C 0.02796 0.46908 0.0615 0.0
N11 N 0.05078 0.5131 0.99221 0.0
C12 C 0.07328 0.50647 0.01053 0.0
C13 C 0.1066 0.5211 0.99231 0.0
C14 C 0.10548 0.53842 0.96174 0.0
C15 C 0.07165 0.53331 0.96305 0.0
N16 N 1.00081 0.52988 0.96357 0.0
C17 C 0.02804 0.54958 0.93862 0.0
C18 C 0.01863 0.56384 0.91083 0.0
C19 C 0.98291 0.55162 0.91789 0.0
C20 C 0.97267 0.53057 0.94968 0.0
N21 N 0.02381 0.54353 0.03625 0.0
C22 C 0.06132 0.60132 0.08161 0.0
C23 C 0.07219 0.60457 0.04535 0.0
C24 C 0.05326 0.57568 0.0234 0.0
C25 C 0.03039 0.569 0.09421 0.0
C26 C 0.01214 0.54091 0.07131 0.0
N27 N 0.97795 0.45883 0.97629 0.0
C28 C 0.9692 0.43376 0.91774 0.0
C29 C 0.93622 0.40322 0.92992 0.0
C30 C 0.92615 0.39986 0.96639 0.0
C31 C 0.94741 0.42748 0.98896 0.0
C32 C 0.98957 0.46106 0.94125 0.0
H33 H 0.93771 0.42346 0.01623 0.0
H34 H 0.01378 0.48432 0.9301 0.0
H35 H 0.06349 0.57982 0.99633 0.0
H36 H 0.989 0.51713 0.0829 0.0
C37 C 0.94192 0.45332 0.07375 0.0
C38 C 0.93524 0.50907 0.9639 0.0
C39 C 0.06502 0.48826 0.04607 0.0
C40 C 0.06006 0.54988 0.93931 0.0
H41 H 0.87073 0.47861 0.00915 0.0
H42 H 0.87437 0.44827 0.07043 0.0
H43 H 0.96582 0.422 0.12493 0.0
H44 H 0.03357 0.44157 0.10971 0.0
H45 H 0.12972 0.52029 1.00087 0.0
H46 H 0.12728 0.55414 0.94177 0.0
H47 H 0.03503 0.57934 0.8871 0.0
H48 H 0.96582 0.55619 0.90071 0.0
H49 H 0.096 0.62896 0.03413 0.0
H50 H 0.02024 0.56523 0.1218 0.0
H51 H 0.97822 0.43747 0.88973 0.0
H52 H 0.90115 0.37638 0.97725 0.0
C53 C 0.54732 0.00812 0.57382 0.0
C54 C 0.54452 0.99281 0.60799 0.0
C55 C 0.51014 0.96309 0.61186 0.0
C56 C 0.49387 0.96192 0.58003 0.0
N57 N 0.51589 0.98892 0.55581 0.0
Co58 Co 0.5024 0.99802 0.50672 0.0
N59 N 0.45134 0.95501 0.51308 0.0
C60 C 0.43655 0.93264 0.54274 0.0
C61 C 0.40146 0.90463 0.53862 0.0
C62 C 0.39352 0.90898 0.50401 0.0
C63 C 0.42438 0.93946 0.48899 0.0
N64 N 0.48887 0.00691 0.45755 0.0
C65 C 0.45828 0.98641 0.43876 0.0
C66 C 0.46081 1.00157 0.40461 0.0
C67 C 0.49441 0.03244 0.4014 0.0
C68 C 0.51044 0.03436 0.43362 0.0
N69 N 0.55344 0.04102 0.50028 0.0
C70 C 0.56775 0.06394 0.47095 0.0
C71 C 0.60323 0.09134 0.47452 0.0
C72 C 0.61205 0.08589 0.50831 0.0
C73 C 0.58127 0.05541 0.52355 0.0
N74 N 0.51797 0.96861 0.48513 0.0
C75 C 0.53397 0.92381 0.45094 0.0
C76 C 0.54716 0.95797 0.4364 0.0
C77 C 0.53893 0.97976 0.4538 0.0
C78 C 0.51416 0.91317 0.48381 0.0
C79 C 0.50667 0.93581 0.50034 0.0
N80 N 0.48696 0.02764 0.52849 0.0
C81 C 0.4928 0.08403 0.53075 0.0
C82 C 0.47461 0.07423 0.56445 0.0
C83 C 0.46054 0.0398 0.57871 0.0
C84 C 0.4669 0.01711 0.56039 0.0
C85 C 0.49839 0.06051 0.51332 0.0
H86 H 0.45622 0.99158 0.57317 0.0
H87 H 0.5129 0.06996 0.48804 0.0
H88 H 0.54904 0.00516 0.4409 0.0
H89 H 0.49099 0.92588 0.52503 0.0
C90 C 0.45747 0.93686 0.57276 0.0
C91 C 0.57966 0.04189 0.56055 0.0
C92 C 0.42733 0.95144 0.45117 0.0
C93 C 0.5467 0.05977 0.44103 0.0
H94 H 0.5649 0.00253 0.62839 0.0
H95 H 0.49813 0.94497 0.63543 0.0
H96 H 0.38422 0.88289 0.55799 0.0
H97 H 0.36829 0.89123 0.49091 0.0
H98 H 0.44087 0.99086 0.3838 0.0
H99 H 0.50629 0.05058 0.37783 0.0
H100 H 0.62042 0.11305 0.4551 0.0
H101 H 0.63804 0.10272 0.5206 0.0
H102 H 0.56249 0.96741 0.41091 0.0
H103 H 0.5039 0.88718 0.49653 0.0
H104 H 0.50342 0.11013 0.51809 0.0
H105 H 0.4461 0.03085 0.60468 0.0
C106 C 0.56016 0.54473 0.94219 0.0
C107 C 0.56498 0.56334 0.90959 0.0
C108 C 0.5344 0.56389 0.90529 0.0
C109 C 0.51268 0.54558 0.93531 0.0
N110 N 0.52784 0.53398 0.95896 0.0
Co111 Co 0.5045 0.50388 1.00478 0.0
N112 N 0.45761 0.5006 0.99604 0.0
C113 C 0.45018 0.51498 0.96738 0.0
C114 C 0.41589 0.50875 0.96902 0.0
C115 C 0.40065 0.48972 1.00093 0.0
C116 C 0.42673 0.48563 0.01709 0.0
N117 N 0.48114 0.47369 0.05054 0.0
C118 C 0.44813 0.46156 0.06666 0.0
C119 C 0.4436 0.44316 0.09936 0.0
C120 C 0.4748 0.44385 0.10422 0.0
C121 C 0.49666 0.46268 0.07446 0.0
N122 N 0.55139 0.50717 0.01345 0.0
C123 C 0.5592 0.49339 0.04235 0.0
C124 C 0.5931 0.49873 0.04 0.0
C125 C 0.60755 0.51635 0.00728 0.0
C126 C 0.58146 0.52061 0.99152 0.0
N127 N 0.52198 0.54713 0.03209 0.0
C128 C 0.53958 0.6048 0.07414 0.0
C129 C 0.54649 0.57936 0.08626 0.0
C130 C 0.53758 0.55103 0.06499 0.0
C131 C 0.52549 0.60185 0.0398 0.0
C132 C 0.51714 0.57321 0.01938 0.0
N133 N 0.48721 0.46075 0.97748 0.0
C134 C 0.48651 0.40763 0.96881 0.0
C135 C 0.47293 0.40495 0.93429 0.0
C136 C 0.46436 0.42933 0.92267 0.0
C137 C 0.4717 0.45684 0.94453 0.0
C138 C 0.49303 0.43525 0.98991 0.0
H139 H 0.46571 0.47528 0.93367 0.0
H140 H 0.50383 0.43604 0.01574 0.0
H141 H 0.54271 0.53217 0.07628 0.0
H142 H 0.50603 0.57237 0.99372 0.0
C143 C 0.47665 0.53577 0.94028 0.0
C144 C 0.58556 0.53544 0.95472 0.0
C145 C 0.42136 0.46874 0.05315 0.0
C146 C 0.53282 0.47272 0.06957 0.0
H147 H 0.5876 0.57426 0.89025 0.0
H148 H 0.52802 0.57487 0.88222 0.0
H149 H 0.40375 0.51771 0.94973 0.0
H150 H 0.37368 0.48056 0.01154 0.0
H151 H 0.42062 0.43133 0.11836 0.0
H152 H 0.48128 0.43302 0.12733 0.0
H153 H 0.60523 0.4896 0.0591 0.0
H154 H 0.6338 0.52414 0.99572 0.0
H155 H 0.55726 0.58037 0.11273 0.0
H156 H 0.52027 0.62128 0.02889 0.0
H157 H 0.49291 0.3889 0.97923 0.0
H158 H 0.45373 0.42826 0.89612 0.0
C159 C 0.92809 0.437 0.51643 0.0
C160 C 0.895 0.41804 0.49955 0.0
C161 C 0.90016 0.43429 0.46612 0.0
C162 C 0.93586 0.46227 0.46456 0.0
N163 N 0.95418 0.46416 0.49453 0.0
Co164 Co 0.00491 0.5033 0.50621 0.0
N165 N 0.00929 0.53238 0.46168 0.0
C166 C 0.98384 0.52355 0.43651 0.0
C167 C 0.99538 0.54797 0.40791 0.0
C168 C 0.03055 0.57361 0.41484 0.0
C169 C 0.03845 0.56331 0.44745 0.0
N170 N 0.0556 0.54228 0.51808 0.0
C171 C 0.08044 0.5721 0.49829 0.0
C172 C 0.11333 0.59121 0.51547 0.0
C173 C 0.10943 0.57237 0.5469 0.0
C174 C 0.07452 0.543 0.54714 0.0
N175 N 1.00021 0.47432 0.55089 0.0
C176 C 0.02602 0.48196 0.57531 0.0
C177 C 0.01346 0.45844 0.60483 0.0
C178 C 0.97718 0.43517 0.59958 0.0
C179 C 0.96974 0.44604 0.56711 0.0
N180 N 0.02612 0.48158 0.47803 0.0
C181 C 0.06768 0.46703 0.43253 0.0
C182 C 0.07586 0.47362 0.46879 0.0
C183 C 0.05459 0.48019 0.49098 0.0
C184 C 0.03622 0.46437 0.42037 0.0
C185 C 0.0159 0.47156 0.44345 0.0
N186 N 0.98389 0.52497 0.53421 0.0
C187 C 0.97555 0.54387 0.59143 0.0
C188 C 0.94343 0.54026 0.58 0.0
C189 C 0.93371 0.53195 0.5443 0.0
C190 C 0.95456 0.52511 0.52183 0.0
C191 C 0.99529 0.53616 0.56821 0.0
H192 H 0.94546 0.51832 0.49505 0.0
H193 H 0.01866 0.53778 0.57892 0.0
H194 H 0.06275 0.48557 0.51809 0.0
H195 H 0.99301 0.47031 0.43213 0.0
C196 C 0.95062 0.49071 0.43886 0.0
C197 C 0.9329 0.43096 0.55436 0.0
C198 C 0.0747 0.58241 0.46247 0.0
C199 C 0.05976 0.51434 0.57264 0.0
H200 H 0.8692 0.3961 0.51081 0.0
H201 H 0.87954 0.42821 0.44655 0.0
H202 H 0.98053 0.54654 0.38411 0.0
H203 H 0.04873 0.59661 0.3972 0.0
H204 H 0.13791 0.6157 0.50574 0.0
H205 H 0.13003 0.57866 0.56656 0.0
H206 H 0.02828 0.45958 0.62857 0.0
H207 H 0.95793 0.41386 0.6184 0.0
H208 H 0.09945 0.47498 0.47973 0.0
H209 H 0.02852 0.45891 0.39257 0.0
H210 H 0.98421 0.5505 0.61883 0.0
H211 H 0.90937 0.52956 0.53412 0.0
C212 C 0.45235 0.98156 0.07091 0.0
C213 C 0.45067 0.99329 0.10427 0.0
C214 C 0.48187 0.02613 0.10637 0.0
C215 C 0.50064 0.0325 0.07424 0.0
N216 N 0.48263 0.00621 0.05132 0.0
Co217 Co 0.50101 0.00191 1.00375 0.0
N218 N 0.55053 0.04558 0.01039 0.0
C219 C 0.5621 0.06547 0.03958 0.0
C220 C 0.59611 0.0959 0.0345 0.0
C221 C 0.60622 0.09615 0.99958 0.0
C222 C 0.5777 0.06564 0.98538 0.0
N223 N 0.51925 0.998 0.95586 0.0
C224 C 0.54915 0.02314 0.93609 0.0
C225 C 0.55039 0.01212 0.90218 0.0
C226 C 0.51926 0.97927 0.8999 0.0
C227 C 0.50095 0.97222 0.93246 0.0
N228 N 0.45165 0.95787 0.99739 0.0
C229 C 0.44043 0.93731 0.96869 0.0
C230 C 0.40674 0.90655 0.97411 0.0
C231 C 0.39647 0.90677 0.00883 0.0
C232 C 0.42457 0.93788 0.02252 0.0
N233 N 0.4862 0.03193 0.97908 0.0
C234 C 0.47861 0.07965 0.93495 0.0
C235 C 0.4621 0.04444 0.92631 0.0
C236 C 0.46625 0.02122 0.94853 0.0
C237 C 0.49682 0.09007 0.96725 0.0
C238 C 0.4995 0.06565 0.98924 0.0
N239 N 0.51564 0.97174 0.02844 0.0
C240 C 0.5046 0.91326 0.0381 0.0
C241 C 0.517 0.9205 0.0732 0.0
C242 C 0.53209 0.95491 0.08415 0.0
C243 C 0.53129 0.97997 0.06144 0.0
C244 C 0.50497 0.9394 0.01601 0.0
H245 H 0.54173 0.00521 0.07197 0.0
H246 H 0.49497 0.9323 0.9896 0.0
H247 H 0.45423 0.99515 0.93966 0.0
H248 H 0.51348 0.07502 0.01371 0.0
C249 C 0.53761 0.05882 0.06795 0.0
C250 C 0.42695 0.94547 0.06053 0.0
C251 C 0.57478 0.05898 0.94707 0.0
C252 C 0.46442 0.94498 0.93947 0.0
H253 H 0.43014 0.97863 0.12564 0.0
H254 H 0.49113 0.04207 0.1297 0.0
H255 H 0.61039 0.117 0.05284 0.0
H256 H 0.63063 0.11762 0.98561 0.0
H257 H 0.57063 0.02721 0.88068 0.0
H258 H 0.5098 0.96367 0.87634 0.0
H259 H 0.3926 0.88523 0.956 0.0
H260 H 0.37216 0.8854 0.02303 0.0
H261 H 0.44728 0.0352 0.90167 0.0
H262 H 0.5091 0.11695 0.97538 0.0
H263 H 0.49402 0.88736 0.02793 0.0
H264 H 0.54261 0.96199 0.11093 0.0
C265 C 0.51566 0.57548 0.50263 0.0
C266 C 0.50833 0.59748 0.52014 0.0
C267 C 0.48758 0.57853 0.55032 0.0
C268 C 0.48353 0.54621 0.54946 0.0
N269 N 0.50152 0.54388 0.52118 0.0
Co270 Co 0.49983 0.50084 0.50657 0.0
N271 N 0.462 0.47024 0.54523 0.0
C272 C 0.44566 0.48009 0.56842 0.0
C273 C 0.42323 0.45391 0.59393 0.0
C274 C 0.42635 0.42615 0.58734 0.0
C275 C 0.45055 0.43703 0.558 0.0
N276 N 0.49871 0.45799 0.49232 0.0
C277 C 0.48412 0.42627 0.5107 0.0
C278 C 0.49239 0.40458 0.4939 0.0
C279 C 0.51424 0.42386 0.46444 0.0
C280 C 0.51797 0.45604 0.46501 0.0
N281 N 0.53707 0.53131 0.46737 0.0
C282 C 0.55281 0.52139 0.44351 0.0
C283 C 0.57415 0.54722 0.41726 0.0
C284 C 0.57075 0.57477 0.42393 0.0
C285 C 0.54752 0.5641 0.45405 0.0
N286 N 0.5384 0.51005 0.54088 0.0
C287 C 0.58174 0.50398 0.59268 0.0
C288 C 0.58851 0.50412 0.55583 0.0
C289 C 0.56692 0.50754 0.53058 0.0
C290 C 0.55505 0.51009 0.60293 0.0
C291 C 0.53424 0.51357 0.57674 0.0
N292 N 0.46115 0.49132 0.47239 0.0
C293 C 0.43877 0.48017 0.4119 0.0
C294 C 0.41364 0.48889 0.42016 0.0
C295 C 0.4114 0.49716 0.45541 0.0
C296 C 0.43488 0.49769 0.48107 0.0
C297 C 0.46205 0.48151 0.43822 0.0
H298 H 0.43184 0.50416 0.50749 0.0
H299 H 0.4812 0.47546 0.42995 0.0
H300 H 0.57284 0.50656 0.503 0.0
H301 H 0.51402 0.51771 0.5863 0.0
C302 C 0.45729 0.51571 0.5699 0.0
C303 C 0.53276 0.58403 0.46672 0.0
C304 C 0.46561 0.41715 0.54593 0.0
C305 C 0.54283 0.48619 0.44336 0.0
H306 H 0.5154 0.62364 0.51086 0.0
H307 H 0.47448 0.58633 0.56892 0.0
H308 H 0.40868 0.45576 0.61643 0.0
H309 H 0.41397 0.40162 0.60371 0.0
H310 H 0.48496 0.3783 0.50316 0.0
H311 H 0.5277 0.41617 0.44618 0.0
H312 H 0.58837 0.5453 0.39449 0.0
H313 H 0.58234 0.5991 0.40731 0.0
H314 H 0.60936 0.50014 0.54646 0.0
H315 H 0.54986 0.51172 0.6311 0.0
H316 H 0.44126 0.47338 0.3849 0.0
H317 H 0.39163 0.50321 0.46317 0.0
C318 C 0.29534 0.51709 0.27692 0.0
C319 C 0.21769 0.5178 0.1826 0.0
O320 O 0.27201 0.48669 0.26519 0.0
Zn321 Zn 0.22978 0.46281 0.22743 0.0
O322 O 0.29654 0.54447 0.26438 0.0
Zn323 Zn 0.25763 0.51989 0.23032 0.0
O324 O 0.21198 0.48958 0.26654 0.0
O325 O 0.18604 0.43253 0.25928 0.0
O326 O 0.24215 0.54466 0.1986 0.0
O327 O 0.21156 0.48719 0.19127 0.0
O328 O 0.25029 0.4445 0.19436 0.0
O329 O 0.28194 0.50285 0.19373 0.0
C330 C 0.18701 0.45733 0.27544 0.0
C331 C 0.27755 0.47442 0.18236 0.0
C332 C 0.77868 0.28824 0.69237 0.0
C333 C 0.70841 0.20713 0.79727 0.0
O334 O 0.75603 0.29062 0.7116 0.0
Zn335 Zn 0.74157 0.24948 0.74524 0.0
O336 O 0.78502 0.26433 0.70049 0.0
Zn337 Zn 0.77022 0.22225 0.73869 0.0
O338 O 0.74736 0.18139 0.70689 0.0
O339 O 0.71705 0.20724 0.71014 0.0
O340 O 0.73178 0.20257 0.78234 0.0
O341 O 0.7037 0.2309 0.78417 0.0
O342 O 0.78915 0.26936 0.77546 0.0
O343 O 0.81635 0.24138 0.76508 0.0
C344 C 0.72059 0.18342 0.69727 0.0
C345 C 0.81527 0.2651 0.7814 0.0
C346 C 0.57487 0.81372 0.31911 0.0
C347 C 0.57625 0.74093 0.22454 0.0
O348 O 0.60355 0.81706 0.30587 0.0
Zn349 Zn 0.57886 0.7785 0.27266 0.0
O350 O 0.54361 0.7899 0.30788 0.0
Zn351 Zn 0.51953 0.74943 0.27035 0.0
O352 O 0.49067 0.70652 0.30236 0.0
O353 O 0.54994 0.73344 0.30905 0.0
O354 O 0.54476 0.7339 0.23396 0.0
O355 O 0.60429 0.76477 0.24025 0.0
O356 O 0.55843 0.80043 0.23602 0.0
O357 O 0.49826 0.76777 0.23667 0.0
C358 C 0.51729 0.70824 0.31823 0.0
C359 C 0.52837 0.79497 0.2245 0.0
C360 C 0.79573 0.51314 0.83125 0.0
C361 C 0.72191 0.50701 0.72949 0.0
O362 O 0.77093 0.48493 0.81734 0.0
Zn363 Zn 0.75716 0.5077 0.78063 0.0
O364 O 0.80348 0.54328 0.81811 0.0
Zn365 Zn 0.78769 0.56497 0.77605 0.0
O366 O 0.76949 0.58891 0.8031 0.0
O367 O 0.73517 0.53078 0.81183 0.0
O368 O 0.74667 0.53851 0.73743 0.0
O369 O 0.71729 0.48043 0.74823 0.0
O370 O 0.8033 0.53242 0.74384 0.0
O371 O 0.83192 0.59056 0.74472 0.0
C372 C 0.74167 0.56133 0.81824 0.0
C373 C 0.82945 0.56346 0.73241 0.0
C374 C 0.29427 0.80041 0.21304 0.0
C375 C 0.22761 0.71917 0.31858 0.0
O376 O 0.2691 0.80296 0.22683 0.0
Zn377 Zn 0.23041 0.78163 0.27007 0.0
O378 O 0.30145 0.77895 0.22772 0.0
Zn379 Zn 0.26362 0.75953 0.26663 0.0
O380 O 0.21422 0.73286 0.23756 0.0
O381 O 0.18494 0.75971 0.24297 0.0
O382 O 0.25368 0.72083 0.30117 0.0
O383 O 0.21768 0.74024 0.30919 0.0
O384 O 0.24821 0.8225 0.30041 0.0
O385 O 0.28445 0.8029 0.30082 0.0
C386 C 0.18696 0.73503 0.23029 0.0
C387 C 0.27679 0.8247 0.31168 0.0
C388 C 0.44363 0.26925 0.786 0.0
C389 C 0.44469 0.1929 0.69573 0.0
O390 O 0.47541 0.27822 0.77485 0.0
Zn391 Zn 0.50059 0.2627 0.73767 0.0
O392 O 0.41555 0.24296 0.77277 0.0
Zn393 Zn 0.4416 0.23034 0.74022 0.0
O394 O 0.46782 0.21464 0.77728 0.0
O395 O 0.52759 0.2506 0.77035 0.0
O396 O 0.41644 0.18908 0.71063 0.0
O397 O 0.47631 0.21896 0.70368 0.0
O398 O 0.52504 0.30369 0.70311 0.0
O399 O 0.46508 0.2736 0.7011 0.0
C400 C 0.49983 0.22374 0.78648 0.0
C401 C 0.49646 0.2996 0.68944 0.0
H402 H 0.11615 0.54324 0.08324 0.0
H403 H 0.07934 0.43729 0.05573 0.0
H404 H 0.1253 0.43821 0.09391 0.0
H405 H 0.17316 0.46775 0.13733 0.0
H406 H 0.21036 0.57365 0.16626 0.0
H407 H 0.16734 0.57452 0.12486 0.0
C408 C 0.11863 0.52061 0.08554 0.0
C409 C 0.09457 0.49011 0.06718 0.0
C410 C 0.14498 0.52137 0.10769 0.0
C411 C 0.09768 0.46085 0.06993 0.0
C412 C 0.12384 0.46142 0.0917 0.0
C413 C 0.1721 0.49118 0.13453 0.0
C414 C 0.19474 0.5205 0.15514 0.0
C415 C 0.14722 0.49131 0.11108 0.0
C416 C 0.19323 0.55074 0.15075 0.0
C417 C 0.16854 0.55117 0.1272 0.0
H418 H 0.59269 0.10148 0.58894 0.0
H419 H 0.63211 0.03277 0.58836 0.0
H420 H 0.67997 0.07029 0.63021 0.0
H421 H 0.71036 0.12314 0.66775 0.0
H422 H 0.66874 0.19058 0.667 0.0
H423 H 0.6226 0.15346 0.62527 0.0
C424 C 0.61187 0.09486 0.59802 0.0
C425 C 0.60899 0.06453 0.58582 0.0
C426 C 0.63908 0.11644 0.62198 0.0
C427 C 0.63388 0.05605 0.59762 0.0
C428 C 0.66121 0.07751 0.62149 0.0
C429 C 0.69126 0.1297 0.65837 0.0
C430 C 0.69328 0.15976 0.67092 0.0
C431 C 0.6641 0.10787 0.63401 0.0
C432 C 0.66807 0.16767 0.65828 0.0
C433 C 0.64147 0.14642 0.63421 0.0
H434 H 0.59608 0.64596 0.11857 0.0
H435 H 0.49228 0.62493 0.08437 0.0
H436 H 0.49611 0.66682 0.126 0.0
H437 H 0.52672 0.70675 0.1741 0.0
H438 H 0.63033 0.72892 0.20993 0.0
H439 H 0.62896 0.68948 0.1655 0.0
C440 C 0.5744 0.65068 0.12022 0.0
C441 C 0.54395 0.63231 0.09822 0.0
C442 C 0.57669 0.67492 0.14451 0.0
C443 C 0.51625 0.63899 0.10047 0.0
C444 C 0.51828 0.6628 0.12449 0.0
C445 C 0.54918 0.70315 0.17219 0.0
C446 C 0.57842 0.72047 0.19558 0.0
C447 C 0.54809 0.68054 0.14687 0.0
C448 C 0.60751 0.71591 0.19225 0.0
C449 C 0.6066 0.69321 0.16698 0.0
H450 H 0.95745 0.59273 0.62494 0.0
H451 H 0.87259 0.48898 0.59359 0.0
H452 H 0.83011 0.48737 0.63753 0.0
H453 H 0.81718 0.51456 0.68542 0.0
H454 H 0.90002 0.6193 0.7162 0.0
H455 H 0.9431 0.62167 0.67177 0.0
C456 C 0.92959 0.56993 0.62776 0.0
C457 C 0.91807 0.54106 0.60597 0.0
C458 C 0.90501 0.56939 0.6529 0.0
C459 C 0.88192 0.51166 0.60973 0.0
C460 C 0.85768 0.51066 0.63496 0.0
C461 C 0.84468 0.53798 0.68249 0.0
C462 C 0.85548 0.56659 0.70438 0.0
C463 C 0.86894 0.53926 0.65674 0.0
C464 C 0.89102 0.59692 0.69971 0.0
C465 C 0.91567 0.59821 0.67439 0.0
H466 H 0.35468 0.90759 0.07713 0.0
H467 H 0.45516 0.91932 0.10744 0.0
H468 H 0.42291 0.87261 0.15563 0.0
H469 H 0.36585 0.83052 0.19144 0.0
H470 H 0.26607 0.82095 0.16092 0.0
H471 H 0.29785 0.86394 0.11037 0.0
C472 C 0.36927 0.89951 0.09412 0.0
C473 C 0.40697 0.91637 0.0888 0.0
C474 C 0.35057 0.87294 0.12176 0.0
C475 C 0.42597 0.90633 0.11114 0.0
C476 C 0.40754 0.87969 0.13863 0.0
C477 C 0.35109 0.83747 0.17329 0.0
C478 C 0.31373 0.82271 0.17999 0.0
C479 C 0.36979 0.86298 0.14448 0.0
C480 C 0.29494 0.83218 0.1565 0.0
C481 C 0.31306 0.85682 0.12759 0.0
H482 H 0.52374 0.42413 0.5796 0.0
H483 H 0.4085 0.35111 0.56682 0.0
H484 H 0.40843 0.30789 0.60924 0.0
H485 H 0.4406 0.29185 0.6509 0.0
H486 H 0.55618 0.36406 0.66418 0.0
H487 H 0.55696 0.40651 0.61994 0.0
C488 C 0.49876 0.39865 0.58619 0.0
C489 C 0.46599 0.39072 0.57081 0.0
C490 C 0.49907 0.37397 0.61045 0.0
C491 C 0.43377 0.3577 0.57893 0.0
C492 C 0.43381 0.33308 0.60302 0.0
C493 C 0.46608 0.31685 0.6442 0.0
C494 C 0.49827 0.32481 0.66107 0.0
C495 C 0.46621 0.34109 0.61916 0.0
C496 C 0.53102 0.35723 0.65166 0.0
C497 C 0.53142 0.38159 0.62652 0.0
H498 H 0.59465 0.93578 0.41409 0.0
H499 H 0.48214 0.85468 0.44167 0.0
H500 H 0.48628 0.8131 0.40594 0.0
H501 H 0.52007 0.80054 0.36415 0.0
H502 H 0.63226 0.88049 0.33466 0.0
H503 H 0.63018 0.92163 0.37413 0.0
C504 C 0.57112 0.90897 0.41231 0.0
C505 C 0.53813 0.89841 0.43068 0.0
C506 C 0.57361 0.88501 0.39139 0.0
C507 C 0.50799 0.86344 0.42835 0.0
C508 C 0.51024 0.83966 0.40769 0.0
C509 C 0.54425 0.8269 0.36646 0.0
C510 C 0.57619 0.83754 0.34621 0.0
C511 C 0.54269 0.85027 0.38879 0.0
C512 C 0.60735 0.87161 0.34999 0.0
C513 C 0.60606 0.89519 0.37238 0.0
H514 H 0.64879 0.59216 0.92377 0.0
H515 H 0.58012 0.47815 0.92819 0.0
H516 H 0.62225 0.47615 0.88648 0.0
H517 H 0.67832 0.50656 0.84916 0.0
H518 H 0.74766 0.62077 0.84339 0.0
H519 H 0.70552 0.62308 0.885 0.0
C520 C 0.64316 0.56702 0.91532 0.0
C521 C 0.61146 0.53531 0.92873 0.0
C522 C 0.66755 0.56614 0.89118 0.0
C523 C 0.60438 0.50278 0.91804 0.0
C524 C 0.62842 0.50168 0.89424 0.0
C525 C 0.68439 0.53207 0.85691 0.0
C526 C 0.7163 0.56348 0.84313 0.0
C527 C 0.66008 0.53315 0.88069 0.0
C528 C 0.72339 0.59618 0.85352 0.0
C529 C 0.69928 0.5975 0.87735 0.0
H530 H 0.12681 0.58314 0.42182 0.0
H531 H 0.09075 0.64935 0.45596 0.0
H532 H 0.13781 0.69885 0.41683 0.0
H533 H 0.18549 0.72147 0.36984 0.0
H534 H 0.22167 0.65583 0.33363 0.0
H535 H 0.1788 0.60797 0.3772 0.0
C536 C 0.12978 0.60864 0.42083 0.0
C537 C 0.10555 0.61294 0.44133 0.0
C538 C 0.15673 0.63683 0.39801 0.0
C539 C 0.10925 0.64579 0.44019 0.0
C540 C 0.13603 0.67393 0.41785 0.0
C541 C 0.18432 0.69682 0.37163 0.0
C542 C 0.20647 0.69207 0.34825 0.0
C543 C 0.15938 0.6695 0.39617 0.0
C544 C 0.20495 0.66016 0.35134 0.0
C545 C 0.18027 0.63274 0.37607 0.0
H546 H 0.53548 0.14214 0.90508 0.0
H547 H 0.41816 0.0735 0.90829 0.0
H548 H 0.41478 0.1129 0.86353 0.0
H549 H 0.4448 0.16501 0.82229 0.0
H550 H 0.56226 0.23348 0.81597 0.0
H551 H 0.56607 0.19584 0.86318 0.0
C552 C 0.50926 0.1362 0.89616 0.0
C553 C 0.47704 0.10515 0.90991 0.0
C554 C 0.5076 0.15865 0.86979 0.0
C555 C 0.4432 0.09726 0.89795 0.0
C556 C 0.4413 0.11972 0.87239 0.0
C557 C 0.47138 0.17198 0.83118 0.0
C558 C 0.50323 0.20209 0.8155 0.0
C559 C 0.47329 0.15021 0.85789 0.0
C560 C 0.53731 0.21046 0.82752 0.0
C561 C 0.53948 0.18896 0.85453 0.0
H562 H 0.40044 0.54029 0.40453 0.0
H563 H 0.374 0.43827 0.37288 0.0
H564 H 0.33591 0.43883 0.32544 0.0
H565 H 0.31012 0.46777 0.29339 0.0
H566 H 0.33714 0.57073 0.32241 0.0
H567 H 0.37578 0.57077 0.37022 0.0
C568 C 0.38627 0.51826 0.38718 0.0
C569 C 0.39 0.4893 0.39206 0.0
C570 C 0.36485 0.51906 0.35952 0.0
C571 C 0.37172 0.46093 0.36941 0.0
C572 C 0.34993 0.46122 0.34237 0.0
C573 C 0.32436 0.49029 0.31016 0.0
C574 C 0.32048 0.51907 0.30461 0.0
C575 C 0.34635 0.49011 0.33722 0.0
C576 C 0.33965 0.54824 0.3262 0.0
C577 C 0.36158 0.54817 0.35359 0.0
H578 H 0.94823 0.36724 0.87923 0.0
H579 H 0.86561 0.38069 0.92326 0.0
H580 H 0.82144 0.33875 0.88223 0.0
H581 H 0.80605 0.29912 0.83368 0.0
H582 H 0.88623 0.28271 0.78898 0.0
H583 H 0.93138 0.32442 0.83066 0.0
C584 C 0.92053 0.36086 0.87974 0.0
C585 C 0.9102 0.37699 0.90448 0.0
C586 C 0.89481 0.3361 0.8561 0.0
C587 C 0.87417 0.36838 0.90491 0.0
C588 C 0.84889 0.34447 0.88134 0.0
C589 C 0.8334 0.30454 0.83291 0.0
C590 C 0.84276 0.28795 0.80792 0.0
C591 C 0.85888 0.32825 0.85686 0.0
C592 C 0.87822 0.29501 0.8079 0.0
C593 C 0.90408 0.31902 0.83164 0.0
H594 H 0.90472 0.54688 0.95627 0.0
H595 H 0.899 0.4552 0.91904 0.0
H596 H 0.85178 0.44545 0.87666 0.0
H597 H 0.81543 0.46614 0.84718 0.0
H598 H 0.82416 0.55981 0.8835 0.0
H599 H 0.86627 0.56547 0.92949 0.0
C600 C 0.8927 0.52462 0.93906 0.0
C601 C 0.90492 0.50176 0.94041 0.0
C602 C 0.86613 0.51961 0.91462 0.0
C603 C 0.88965 0.47301 0.91815 0.0
C604 C 0.86279 0.46751 0.894 0.0
C605 C 0.82608 0.48732 0.86565 0.0
C606 C 0.81682 0.51257 0.86192 0.0
C607 C 0.85118 0.491 0.89158 0.0
C608 C 0.8311 0.54018 0.88572 0.0
C609 C 0.85524 0.54351 0.91199 0.0
H610 H 0.36803 0.94666 0.42049 0.0
H611 H 0.43051 0.89912 0.42294 0.0
H612 H 0.38983 0.85611 0.38004 0.0
H613 H 0.3366 0.83189 0.34223 0.0
H614 H 0.27269 0.87815 0.33949 0.0
H615 H 0.31365 0.92173 0.38197 0.0
C616 C 0.37259 0.92686 0.41142 0.0
C617 C 0.40221 0.92597 0.4246 0.0
C618 C 0.34885 0.90204 0.38678 0.0
C619 C 0.40792 0.90021 0.41299 0.0
C620 C 0.38466 0.87568 0.38851 0.0
C621 C 0.33149 0.85148 0.35078 0.0
C622 C 0.30143 0.8516 0.33746 0.0
C623 C 0.35504 0.8763 0.37526 0.0
C624 C 0.29548 0.87729 0.34916 0.0
C625 C 0.31896 0.90227 0.3735 0.0
H626 H 0.41665 0.35989 0.8917 0.0
H627 H 0.52549 0.39242 0.921 0.0
H628 H 0.52515 0.35242 0.87887 0.0
H629 H 0.49528 0.31001 0.83249 0.0
H630 H 0.38606 0.27541 0.80277 0.0
H631 H 0.38501 0.31415 0.84647 0.0
C632 C 0.44017 0.35806 0.88884 0.0
C633 C 0.47103 0.37903 0.90956 0.0
C634 C 0.43974 0.33469 0.86455 0.0
C635 C 0.50126 0.37625 0.90577 0.0
C636 C 0.50117 0.35353 0.88153 0.0
C637 C 0.47112 0.3108 0.83554 0.0
C638 C 0.4409 0.29009 0.81414 0.0
C639 C 0.47073 0.33286 0.86065 0.0
C640 C 0.40967 0.29108 0.81892 0.0
C641 C 0.40916 0.31335 0.84379 0.0
H642 H 0.05483 0.4192 0.38154 0.0
H643 H 0.14002 0.51619 0.42575 0.0
H644 H 0.18426 0.52048 0.38238 0.0
H645 H 0.19858 0.49858 0.33048 0.0
H646 H 0.11545 0.40098 0.28592 0.0
H647 H 0.0707 0.39468 0.33101 0.0
C648 C 0.08314 0.44109 0.3817 0.0
C649 C 0.09413 0.4673 0.40698 0.0
C650 C 0.10878 0.44327 0.35667 0.0
C651 C 0.13093 0.49545 0.40698 0.0
C652 C 0.15624 0.49804 0.38204 0.0
C653 C 0.17069 0.47576 0.33068 0.0
C654 C 0.16027 0.45045 0.30466 0.0
C655 C 0.14543 0.47234 0.35661 0.0
C656 C 0.12418 0.42079 0.3057 0.0
C657 C 0.09858 0.41734 0.33135 0.0
H658 H 0.64712 0.0974 0.93078 0.0
H659 H 0.54664 0.08603 0.90105 0.0
H660 H 0.57918 0.13386 0.8538 0.0
H661 H 0.6366 0.17689 0.81861 0.0
H662 H 0.7363 0.18638 0.84921 0.0
H663 H 0.70417 0.14224 0.8988 0.0
C664 C 0.63258 0.10582 0.91418 0.0
C665 C 0.59482 0.08868 0.91933 0.0
C666 C 0.65144 0.13315 0.88728 0.0
C667 C 0.57589 0.09916 0.89742 0.0
C668 C 0.59448 0.12647 0.87052 0.0
C669 C 0.65124 0.16973 0.83665 0.0
C670 C 0.68872 0.18477 0.83022 0.0
C671 C 0.63232 0.14352 0.86492 0.0
C672 C 0.70738 0.17498 0.8535 0.0
C673 C 0.68904 0.14964 0.88182 0.0
H674 H 0.47864 0.57812 0.42582 0.0
H675 H 0.58982 0.65178 0.45425 0.0
H676 H 0.59396 0.69721 0.41197 0.0
H677 H 0.56704 0.71484 0.36539 0.0
H678 H 0.45585 0.64199 0.33568 0.0
H679 H 0.45037 0.59735 0.3802 0.0
C680 C 0.50356 0.60429 0.42277 0.0
C681 C 0.53405 0.61189 0.44272 0.0
C682 C 0.50568 0.63017 0.39827 0.0
C683 C 0.56625 0.64564 0.43893 0.0
C684 C 0.56855 0.67146 0.4148 0.0
C685 C 0.54146 0.68923 0.36863 0.0
C686 C 0.51198 0.68168 0.34694 0.0
C687 C 0.53862 0.66385 0.39406 0.0
C688 C 0.47896 0.64852 0.35198 0.0
C689 C 0.47587 0.62294 0.37738 0.0
H690 H 0.41671 0.06551 0.60395 0.0
H691 H 0.52949 0.14247 0.57304 0.0
H692 H 0.5293 0.18599 0.6092 0.0
H693 H 0.4984 0.20179 0.65128 0.0
H694 H 0.38572 0.12608 0.68325 0.0
H695 H 0.38453 0.08262 0.64491 0.0
C696 C 0.44118 0.09183 0.60515 0.0
C697 C 0.47303 0.10068 0.58561 0.0
C698 C 0.44094 0.11696 0.6262 0.0
C699 C 0.50444 0.13503 0.58726 0.0
C700 C 0.50445 0.15993 0.60816 0.0
C701 C 0.47343 0.17584 0.64984 0.0
C702 C 0.44225 0.16718 0.67036 0.0
C703 C 0.47301 0.15112 0.62791 0.0
C704 C 0.41011 0.13351 0.66774 0.0
C705 C 0.40949 0.10859 0.64593 0.0
H706 H 0.41331 0.51864 0.07989 0.0
H707 H 0.36123 0.40564 0.07959 0.0
H708 H 0.31139 0.39667 0.11911 0.0
H709 H 0.28298 0.42161 0.15446 0.0
H710 H 0.33601 0.53532 0.15232 0.0
H711 H 0.38453 0.54322 0.11308 0.0
C712 C 0.39097 0.49208 0.08854 0.0
C713 C 0.39099 0.46286 0.07732 0.0
C714 C 0.3624 0.48723 0.11079 0.0
C715 C 0.36187 0.42852 0.08836 0.0
C716 C 0.33338 0.42343 0.11081 0.0
C717 C 0.30503 0.44806 0.14523 0.0
C718 C 0.3056 0.47773 0.15663 0.0
C719 C 0.33333 0.45265 0.12232 0.0
C720 C 0.33458 0.51185 0.14428 0.0
C721 C 0.36257 0.51653 0.12175 0.0
H722 H 0.88076 0.36078 0.55532 0.0
H723 H 0.9152 0.45485 0.6117 0.0
H724 H 0.86656 0.4198 0.65796 0.0
H725 H 0.81773 0.36083 0.68527 0.0
H726 H 0.78465 0.26748 0.62776 0.0
H727 H 0.82805 0.30367 0.57847 0.0
C728 C 0.87695 0.37361 0.5773 0.0
C729 C 0.90113 0.41018 0.58015 0.0
C730 C 0.84898 0.35336 0.60352 0.0
C731 C 0.89666 0.4266 0.60911 0.0
C732 C 0.86888 0.40659 0.63547 0.0
C733 C 0.81932 0.34872 0.66137 0.0
C734 C 0.79802 0.31163 0.65998 0.0
C735 C 0.84522 0.36975 0.63335 0.0
C736 C 0.80077 0.29604 0.62927 0.0
C737 C 0.82577 0.31666 0.60121 0.0
H738 H 0.56757 0.92484 0.11824 0.0
H739 H 0.4573 0.85298 0.08594 0.0
H740 H 0.45002 0.80752 0.13039 0.0
H741 H 0.47539 0.7884 0.17924 0.0
H742 H 0.58621 0.86181 0.21008 0.0
H743 H 0.59256 0.90625 0.16598 0.0
C744 C 0.54192 0.89925 0.12099 0.0
C745 C 0.51313 0.89227 0.09879 0.0
C746 C 0.53791 0.87343 0.14658 0.0
C747 C 0.48012 0.85882 0.10239 0.0
C748 C 0.47585 0.83292 0.128 0.0
C749 C 0.50079 0.81417 0.17635 0.0
C750 C 0.53023 0.82156 0.19798 0.0
C751 C 0.50457 0.83993 0.15039 0.0
C752 C 0.56309 0.85511 0.19372 0.0
C753 C 0.56685 0.88072 0.16846 0.0
H754 H 0.65426 0.53049 0.5918 0.0
H755 H 0.55489 0.46226 0.65527 0.0
H756 H 0.58882 0.45306 0.70169 0.0
H757 H 0.64788 0.46821 0.72635 0.0
H758 H 0.74693 0.53881 0.66347 0.0
H759 H 0.71205 0.54245 0.6143 0.0
C760 C 0.63994 0.51322 0.61555 0.0
C761 C 0.60219 0.49739 0.62021 0.0
C762 C 0.65963 0.50829 0.64219 0.0
C763 C 0.58411 0.4754 0.65139 0.0
C764 C 0.60344 0.46987 0.67781 0.0
C765 C 0.66153 0.48359 0.70146 0.0
C766 C 0.69974 0.503 0.6982 0.0
C767 C 0.64134 0.48665 0.6738 0.0
C768 C 0.71744 0.52355 0.66629 0.0
C769 C 0.69757 0.52583 0.63833 0.0
H770 H 0.07852 0.59647 0.15127 0.0
H771 H 0.09268 0.67285 0.06757 0.0
H772 H 0.12983 0.72111 0.10724 0.0
H773 H 0.16132 0.74203 0.16521 0.0
H774 H 0.14891 0.665 0.24697 0.0
H775 H 0.1075 0.6168 0.2092 0.0
C776 C 0.08919 0.62361 0.14182 0.0
C777 C 0.08265 0.63083 0.10636 0.0
C778 C 0.11081 0.65127 0.16469 0.0
C779 C 0.09749 0.66638 0.09453 0.0
C780 C 0.11863 0.69405 0.11732 0.0
C781 C 0.14879 0.71465 0.17493 0.0
C782 C 0.1576 0.70699 0.20907 0.0
C783 C 0.12582 0.6869 0.1524 0.0
C784 C 0.14211 0.67145 0.22099 0.0
C785 C 0.11862 0.64389 0.1993 0.0
loop_
_geom_bond_atom_site_label_1
_geom_bond_atom_site_label_2
_geom_bond_distance
_geom_bond_site_symmetry_2
_ccdc_geom_bond_type
C0 C1 1.443 . S
C0 N4 1.376 1_556 S
C0 C38 1.389 . S
C1 C0 1.443 . S
C1 C2 1.340 1_556 S
C1 H41 0.951 . S
C2 C1 1.340 1_554 S
C2 C3 1.439 . S
C2 H42 0.950 . S
C3 C2 1.439 . S
C3 N4 1.374 . S
C3 C37 1.395 . S
N4 C0 1.376 1_554 S
N4 C3 1.374 . S
N4 Co5 2.009 1_655 S
Co5 N4 2.009 1_455 S
Co5 N6 2.007 1_455 S
Co5 N11 2.007 1_554 S
Co5 N16 1.983 1_554 S
Co5 N21 2.292 . S
Co5 N27 2.273 1_454 S
N6 Co5 2.007 1_655 S
N6 C7 1.376 . S
N6 C10 1.383 1_655 S
C7 N6 1.376 . S
C7 C8 1.446 . S
C7 C37 1.391 . S
C8 C7 1.446 . S
C8 C9 1.339 . S
C8 H43 0.949 . S
C9 C8 1.339 . S
C9 C10 1.439 1_655 S
C9 H44 0.950 1_655 S
C10 N6 1.383 1_455 S
C10 C9 1.439 1_455 S
C10 C39 1.392 . S
N11 Co5 2.007 1_556 S
N11 C12 1.376 1_556 S
N11 C15 1.374 . S
C12 N11 1.376 1_554 S
C12 C13 1.443 . S
C12 C39 1.389 . S
C13 C12 1.443 . S
C13 C14 1.340 1_554 S
C13 H45 0.951 . S
C14 C13 1.340 1_556 S
C14 C15 1.439 . S
C14 H46 0.950 . S
C15 N11 1.374 . S
C15 C14 1.439 . S
C15 C40 1.395 . S
N16 Co5 1.983 1_556 S
N16 C17 1.376 . S
N16 C20 1.383 1_455 S
C17 N16 1.376 . S
C17 C18 1.446 . S
C17 C40 1.391 . S
C18 C17 1.446 . S
C18 C19 1.339 . S
C18 H47 0.949 . S
C19 C18 1.339 . S
C19 C20 1.439 1_455 S
C19 H48 0.950 1_455 S
C20 N16 1.383 1_655 S
C20 C19 1.439 1_655 S
C20 C38 1.392 . S
N21 Co5 2.292 . S
N21 C24 1.332 . S
N21 C26 1.332 . S
C22 C23 1.386 . S
C22 C25 1.388 . S
C23 C22 1.386 . S
C23 C24 1.382 . S
C23 H49 0.950 . S
C24 N21 1.332 . S
C24 C23 1.382 . S
C24 H35 0.952 . S
C25 C22 1.388 . S
C25 C26 1.382 . S
C25 H50 0.950 . S
C26 N21 1.332 . S
C26 C25 1.382 . S
C26 H36 0.948 1_455 S
N27 Co5 2.273 1_656 S
N27 C31 1.332 . S
N27 C32 1.332 . S
C28 C29 1.388 . S
C28 C32 1.382 . S
C28 H51 0.950 . S
C29 C28 1.388 . S
C29 C30 1.386 . S
C30 C29 1.386 . S
C30 C31 1.382 . S
C30 H52 0.950 . S
C31 N27 1.332 . S
C31 C30 1.382 . S
C31 H33 0.959 . S
C32 N27 1.332 . S
C32 C28 1.382 . S
C32 H34 0.948 1_655 S
H33 C31 0.959 . S
H34 C32 0.948 1_455 S
H35 C24 0.952 . S
H36 C26 0.948 1_655 S
C37 C3 1.395 . S
C37 C7 1.391 . S
C38 C0 1.389 . S
C38 C20 1.392 . S
C39 C10 1.392 . S
C39 C12 1.389 . S
C40 C15 1.395 . S
C40 C17 1.391 . S
H41 C1 0.951 . S
H42 C2 0.950 . S
H43 C8 0.949 . S
H44 C9 0.950 1_455 S
H45 C13 0.951 . S
H46 C14 0.950 . S
H47 C18 0.949 . S
H48 C19 0.950 1_655 S
H49 C23 0.950 . S
H50 C25 0.950 . S
H51 C28 0.950 . S
H52 C30 0.950 . S
C53 C54 1.446 . S
C53 N57 1.376 1_545 S
C53 C91 1.389 . S
C54 C53 1.446 . S
C54 C55 1.337 1_545 S
C54 H94 0.952 . S
C55 C54 1.337 1_565 S
C55 C56 1.439 . S
C55 H95 0.950 . S
C56 C55 1.439 . S
C56 N57 1.374 . S
C56 C90 1.395 . S
N57 C53 1.376 1_565 S
N57 C56 1.374 . S
N57 Co58 2.008 1_565 S
Co58 N57 2.008 1_545 S
Co58 N59 1.995 1_545 S
Co58 N64 2.008 . S
Co58 N69 1.995 . S
Co58 N74 2.282 1_545 S
Co58 N80 2.282 . S
N59 Co58 1.995 1_565 S
N59 C60 1.376 . S
N59 C63 1.383 . S
C60 N59 1.376 . S
C60 C61 1.446 . S
C60 C90 1.391 . S
C61 C60 1.446 . S
C61 C62 1.339 . S
C61 H96 0.949 . S
C62 C61 1.339 . S
C62 C63 1.439 . S
C62 H97 0.950 . S
C63 N59 1.383 . S
C63 C62 1.439 . S
C63 C92 1.392 . S
N64 Co58 2.008 . S
N64 C65 1.376 1_545 S
N64 C68 1.374 . S
C65 N64 1.376 1_565 S
C65 C66 1.443 1_565 S
C65 C92 1.389 . S
C66 C65 1.443 1_545 S
C66 C67 1.340 . S
C66 H98 0.951 1_545 S
C67 C66 1.340 . S
C67 C68 1.439 . S
C67 H99 0.950 . S
C68 N64 1.374 . S
C68 C67 1.439 . S
C68 C93 1.395 . S
N69 Co58 1.995 . S
N69 C70 1.376 . S
N69 C73 1.383 . S
C70 N69 1.376 . S
C70 C71 1.446 . S
C70 C93 1.391 . S
C71 C70 1.446 . S
C71 C72 1.339 . S
C71 H100 0.949 . S
C72 C71 1.339 . S
C72 C73 1.439 . S
C72 H101 0.950 . S
C73 N69 1.383 . S
C73 C72 1.439 . S
C73 C91 1.392 . S
N74 Co58 2.282 1_565 S
N74 C77 1.332 . S
N74 C79 1.332 . S
C75 C76 1.386 . S
C75 C78 1.388 . S
C76 C75 1.386 . S
C76 C77 1.382 . S
C76 H102 0.950 . S
C77 N74 1.332 . S
C77 C76 1.382 . S
C77 H88 0.952 1_565 S
C78 C75 1.388 . S
C78 C79 1.382 . S
C78 H103 0.950 . S
C79 N74 1.332 . S
C79 C78 1.382 . S
C79 H89 0.948 . S
N80 Co58 2.282 . S
N80 C84 1.332 . S
N80 C85 1.332 . S
C81 C82 1.388 . S
C81 C85 1.382 . S
C81 H104 0.950 . S
C82 C81 1.388 . S
C82 C83 1.386 . S
C83 C82 1.386 . S
C83 C84 1.382 . S
C83 H105 0.950 . S
C84 N80 1.332 . S
C84 C83 1.382 . S
C84 H86 0.952 1_545 S
C85 N80 1.332 . S
C85 C81 1.382 . S
C85 H87 0.948 . S
H86 C84 0.952 1_565 S
H87 C85 0.948 . S
H88 C77 0.952 1_545 S
H89 C79 0.948 . S
C90 C56 1.395 . S
C90 C60 1.391 . S
C91 C53 1.389 . S
C91 C73 1.392 . S
C92 C63 1.392 . S
C92 C65 1.389 . S
C93 C68 1.395 . S
C93 C70 1.391 . S
H94 C54 0.952 . S
H95 C55 0.950 . S
H96 C61 0.949 . S
H97 C62 0.950 . S
H98 C66 0.951 1_565 S
H99 C67 0.950 . S
H100 C71 0.949 . S
H101 C72 0.950 . S
H102 C76 0.950 . S
H103 C78 0.950 . S
H104 C81 0.950 . S
H105 C83 0.950 . S
C106 C107 1.443 . S
C106 N110 1.376 . S
C106 C144 1.389 . S
C107 C106 1.443 . S
C107 C108 1.340 . S
C107 H147 0.951 . S
C108 C107 1.340 . S
C108 C109 1.439 . S
C108 H148 0.950 . S
C109 C108 1.439 . S
C109 N110 1.374 . S
C109 C143 1.395 . S
N110 C106 1.376 . S
N110 C109 1.374 . S
N110 Co111 1.995 1_556 S
Co111 N110 1.995 1_554 S
Co111 N112 1.993 1_554 S
Co111 N117 2.021 . S
Co111 N122 1.996 . S
Co111 N127 2.292 . S
Co111 N133 2.273 1_554 S
N112 Co111 1.993 1_556 S
N112 C113 1.376 . S
N112 C116 1.383 1_556 S
C113 N112 1.376 . S
C113 C114 1.446 . S
C113 C143 1.391 . S
C114 C113 1.446 . S
C114 C115 1.339 1_556 S
C114 H149 0.949 . S
C115 C114 1.339 1_554 S
C115 C116 1.439 . S
C115 H150 0.950 . S
C116 N112 1.383 1_554 S
C116 C115 1.439 . S
C116 C145 1.392 . S
N117 Co111 2.021 . S
N117 C118 1.376 . S
N117 C121 1.374 . S
C118 N117 1.376 . S
C118 C119 1.443 . S
C118 C145 1.389 . S
C119 C118 1.443 . S
C119 C120 1.340 . S
C119 H151 0.951 . S
C120 C119 1.340 . S
C120 C121 1.439 . S
C120 H152 0.950 . S
C121 N117 1.374 . S
C121 C120 1.439 . S
C121 C146 1.395 . S
N122 Co111 1.996 . S
N122 C123 1.376 . S
N122 C126 1.383 1_554 S
C123 N122 1.376 . S
C123 C124 1.446 . S
C123 C146 1.391 . S
C124 C123 1.446 . S
C124 C125 1.339 1_554 S
C124 H153 0.949 . S
C125 C124 1.339 1_556 S
C125 C126 1.439 . S
C125 H154 0.950 . S
C126 N122 1.383 1_556 S
C126 C125 1.439 . S
C126 C144 1.392 . S
N127 Co111 2.292 . S
N127 C130 1.332 . S
N127 C132 1.332 . S
C128 C129 1.386 . S
C128 C131 1.388 . S
C129 C128 1.386 . S
C129 C130 1.382 . S
C129 H155 0.950 . S
C130 N127 1.332 . S
C130 C129 1.382 . S
C130 H141 0.952 . S
C131 C128 1.388 . S
C131 C132 1.382 . S
C131 H156 0.950 . S
C132 N127 1.332 . S
C132 C131 1.382 . S
C132 H142 0.948 . S
N133 Co111 2.273 1_556 S
N133 C137 1.332 . S
N133 C138 1.332 . S
C134 C135 1.388 . S
C134 C138 1.382 . S
C134 H157 0.950 . S
C135 C134 1.388 . S
C135 C136 1.386 . S
C136 C135 1.386 . S
C136 C137 1.382 . S
C136 H158 0.950 . S
C137 N133 1.332 . S
C137 C136 1.382 . S
C137 H139 0.952 . S
C138 N133 1.332 . S
C138 C134 1.382 . S
C138 H140 0.948 . S
H139 C137 0.952 . S
H140 C138 0.948 . S
H141 C130 0.952 . S
H142 C132 0.948 . S
C143 C109 1.395 . S
C143 C113 1.391 . S
C144 C106 1.389 . S
C144 C126 1.392 . S
C145 C116 1.392 . S
C145 C118 1.389 . S
C146 C121 1.395 . S
C146 C123 1.391 . S
H147 C107 0.951 . S
H148 C108 0.950 . S
H149 C114 0.949 . S
H150 C115 0.950 . S
H151 C119 0.951 . S
H152 C120 0.950 . S
H153 C124 0.949 . S
H154 C125 0.950 . S
H155 C129 0.950 . S
H156 C131 0.950 . S
H157 C134 0.950 . S
H158 C136 0.950 . S
C159 C160 1.443 . S
C159 N163 1.376 . S
C159 C197 1.389 . S
C160 C159 1.443 . S
C160 C161 1.340 . S
C160 H200 0.951 . S
C161 C160 1.340 . S
C161 C162 1.439 . S
C161 H201 0.950 . S
C162 C161 1.439 . S
C162 N163 1.374 . S
C162 C196 1.395 . S
N163 C159 1.376 . S
N163 C162 1.374 . S
N163 Co164 2.008 1_655 S
Co164 N163 2.008 1_455 S
Co164 N165 1.995 1_455 S
Co164 N170 2.008 . S
Co164 N175 1.995 . S
Co164 N180 2.282 . S
Co164 N186 2.282 1_455 S
N165 Co164 1.995 1_655 S
N165 C166 1.376 . S
N165 C169 1.383 1_655 S
C166 N165 1.376 . S
C166 C167 1.446 . S
C166 C196 1.391 . S
C167 C166 1.446 . S
C167 C168 1.344 . S
C167 H202 0.949 . S
C168 C167 1.344 . S
C168 C169 1.434 1_655 S
C168 H203 0.949 1_655 S
C169 N165 1.383 1_455 S
C169 C168 1.434 1_455 S
C169 C198 1.392 . S
N170 Co164 2.008 . S
N170 C171 1.376 . S
N170 C174 1.374 . S
C171 N170 1.376 . S
C171 C172 1.443 . S
C171 C198 1.389 . S
C172 C171 1.443 . S
C172 C173 1.340 . S
C172 H204 0.951 . S
C173 C172 1.340 . S
C173 C174 1.439 . S
C173 H205 0.950 . S
C174 N170 1.374 . S
C174 C173 1.439 . S
C174 C199 1.395 . S
N175 Co164 1.995 . S
N175 C176 1.376 . S
N175 C179 1.383 1_455 S
C176 N175 1.376 . S
C176 C177 1.446 . S
C176 C199 1.391 . S
C177 C176 1.446 . S
C177 C178 1.339 . S
C177 H206 0.949 . S
C178 C177 1.339 . S
C178 C179 1.439 1_455 S
C178 H207 0.950 1_455 S
C179 N175 1.383 1_655 S
C179 C178 1.439 1_655 S
C179 C197 1.392 . S
N180 Co164 2.282 . S
N180 C183 1.332 . S
N180 C185 1.332 . S
C181 C182 1.386 . S
C181 C184 1.388 . S
C182 C181 1.386 . S
C182 C183 1.382 . S
C182 H208 0.950 . S
C183 N180 1.332 . S
C183 C182 1.382 . S
C183 H194 0.952 . S
C184 C181 1.388 . S
C184 C185 1.382 . S
C184 H209 0.950 . S
C185 N180 1.332 . S
C185 C184 1.382 . S
C185 H195 0.948 1_455 S
N186 Co164 2.282 1_655 S
N186 C190 1.332 . S
N186 C191 1.332 . S
C187 C188 1.388 . S
C187 C191 1.382 . S
C187 H210 0.950 . S
C188 C187 1.388 . S
C188 C189 1.386 . S
C189 C188 1.386 . S
C189 C190 1.382 . S
C189 H211 0.950 . S
C190 N186 1.332 . S
C190 C189 1.382 . S
C190 H192 0.952 . S
C191 N186 1.332 . S
C191 C187 1.382 . S
C191 H193 0.948 1_655 S
H192 C190 0.952 . S
H193 C191 0.948 1_455 S
H194 C183 0.952 . S
H195 C185 0.948 1_655 S
C196 C162 1.395 . S
C196 C166 1.391 . S
C197 C159 1.389 . S
C197 C179 1.392 . S
C198 C169 1.392 . S
C198 C171 1.389 . S
C199 C174 1.395 . S
C199 C176 1.391 . S
H200 C160 0.951 . S
H201 C161 0.950 . S
H202 C167 0.949 . S
H203 C168 0.949 1_455 S
H204 C172 0.951 . S
H205 C173 0.950 . S
H206 C177 0.949 . S
H207 C178 0.950 1_655 S
H208 C182 0.950 . S
H209 C184 0.950 . S
H210 C187 0.950 . S
H211 C189 0.950 . S
C212 C213 1.443 1_565 S
C212 N216 1.376 1_565 S
C212 C250 1.389 . S
C213 C212 1.443 1_545 S
C213 C214 1.340 . S
C213 H253 0.951 1_545 S
C214 C213 1.340 . S
C214 C215 1.439 . S
C214 H254 0.950 . S
C215 C214 1.439 . S
C215 N216 1.374 . S
C215 C249 1.395 . S
N216 C212 1.376 1_545 S
N216 C215 1.374 . S
N216 Co217 2.022 . S
Co217 N216 2.022 . S
Co217 N218 1.995 1_554 S
Co217 N223 1.994 1_544 S
Co217 N228 1.994 1_545 S
Co217 N233 2.275 1_554 S
Co217 N239 2.290 1_545 S
N218 Co217 1.995 1_556 S
N218 C219 1.376 1_556 S
N218 C222 1.383 . S
C219 N218 1.376 1_554 S
C219 C220 1.446 . S
C219 C249 1.391 . S
C220 C219 1.446 . S
C220 C221 1.339 1_554 S
C220 H255 0.949 . S
C221 C220 1.339 1_556 S
C221 C222 1.439 . S
C221 H256 0.950 . S
C222 N218 1.383 . S
C222 C221 1.439 . S
C222 C251 1.392 . S
N223 Co217 1.994 1_566 S
N223 C224 1.376 1_565 S
N223 C227 1.374 . S
C224 N223 1.376 1_545 S
C224 C225 1.443 . S
C224 C251 1.389 . S
C225 C224 1.443 . S
C225 C226 1.340 1_545 S
C225 H257 0.951 . S
C226 C225 1.340 1_565 S
C226 C227 1.439 . S
C226 H258 0.950 . S
C227 N223 1.374 . S
C227 C226 1.439 . S
C227 C252 1.395 . S
N228 Co217 1.994 1_565 S
N228 C229 1.376 1_554 S
N228 C232 1.383 . S
C229 N228 1.376 1_556 S
C229 C230 1.446 . S
C229 C252 1.391 . S
C230 C229 1.446 . S
C230 C231 1.339 1_556 S
C230 H259 0.949 . S
C231 C230 1.339 1_554 S
C231 C232 1.439 . S
C231 H260 0.950 . S
C232 N228 1.383 . S
C232 C231 1.439 . S
C232 C250 1.392 . S
N233 Co217 2.275 1_556 S
N233 C236 1.332 . S
N233 C238 1.332 . S
C234 C235 1.386 . S
C234 C237 1.388 . S
C235 C234 1.386 . S
C235 C236 1.382 . S
C235 H261 0.950 . S
C236 N233 1.332 . S
C236 C235 1.382 . S
C236 H247 0.952 1_545 S
C237 C234 1.388 . S
C237 C238 1.382 . S
C237 H262 0.950 . S
C238 N233 1.332 . S
C238 C237 1.382 . S
C238 H248 0.948 . S
N239 Co217 2.290 1_565 S
N239 C243 1.332 . S
N239 C244 1.332 . S
C240 C241 1.388 . S
C240 C244 1.382 . S
C240 H263 0.950 . S
C241 C240 1.388 . S
C241 C242 1.386 . S
C242 C241 1.386 . S
C242 C243 1.382 . S
C242 H264 0.950 . S
C243 N239 1.332 . S
C243 C242 1.382 . S
C243 H245 0.952 1_565 S
C244 N239 1.332 . S
C244 C240 1.382 . S
C244 H246 0.948 . S
H245 C243 0.952 1_545 S
H246 C244 0.948 . S
H247 C236 0.952 1_565 S
H248 C238 0.948 . S
C249 C215 1.395 . S
C249 C219 1.391 . S
C250 C212 1.389 . S
C250 C232 1.392 . S
C251 C222 1.392 . S
C251 C224 1.389 . S
C252 C227 1.395 . S
C252 C229 1.391 . S
H253 C213 0.951 1_565 S
H254 C214 0.950 . S
H255 C220 0.949 . S
H256 C221 0.950 . S
H257 C225 0.951 . S
H258 C226 0.950 . S
H259 C230 0.949 . S
H260 C231 0.950 . S
H261 C235 0.950 . S
H262 C237 0.950 . S
H263 C240 0.950 . S
H264 C242 0.950 . S
C265 C266 1.443 . S
C265 N269 1.376 . S
C265 C303 1.389 . S
C266 C265 1.443 . S
C266 C267 1.340 . S
C266 H306 0.951 . S
C267 C266 1.340 . S
C267 C268 1.439 . S
C267 H307 0.950 . S
C268 C267 1.439 . S
C268 N269 1.374 . S
C268 C302 1.395 . S
N269 C265 1.376 . S
N269 C268 1.374 . S
N269 Co270 2.008 . S
Co270 N269 2.008 . S
Co270 N271 1.995 . S
Co270 N276 2.008 . S
Co270 N281 1.995 . S
Co270 N286 2.282 . S
Co270 N292 2.282 . S
N271 Co270 1.995 . S
N271 C272 1.376 . S
N271 C275 1.383 . S
C272 N271 1.376 . S
C272 C273 1.446 . S
C272 C302 1.391 . S
C273 C272 1.446 . S
C273 C274 1.339 . S
C273 H308 0.949 . S
C274 C273 1.339 . S
C274 C275 1.439 . S
C274 H309 0.950 . S
C275 N271 1.383 . S
C275 C274 1.439 . S
C275 C304 1.392 . S
N276 Co270 2.008 . S
N276 C277 1.376 . S
N276 C280 1.374 . S
C277 N276 1.376 . S
C277 C278 1.443 . S
C277 C304 1.389 . S
C278 C277 1.443 . S
C278 C279 1.340 . S
C278 H310 0.951 . S
C279 C278 1.340 . S
C279 C280 1.439 . S
C279 H311 0.950 . S
C280 N276 1.374 . S
C280 C279 1.439 . S
C280 C305 1.395 . S
N281 Co270 1.995 . S
N281 C282 1.376 . S
N281 C285 1.383 . S
C282 N281 1.376 . S
C282 C283 1.446 . S
C282 C305 1.391 . S
C283 C282 1.446 . S
C283 C284 1.339 . S
C283 H312 0.949 . S
C284 C283 1.339 . S
C284 C285 1.439 . S
C284 H313 0.950 . S
C285 N281 1.383 . S
C285 C284 1.439 . S
C285 C303 1.392 . S
N286 Co270 2.282 . S
N286 C289 1.332 . S
N286 C291 1.332 . S
C287 C288 1.386 . S
C287 C290 1.388 . S
C288 C287 1.386 . S
C288 C289 1.382 . S
C288 H314 0.950 . S
C289 N286 1.332 . S
C289 C288 1.382 . S
C289 H300 0.952 . S
C290 C287 1.388 . S
C290 C291 1.382 . S
C290 H315 0.950 . S
C291 N286 1.332 . S
C291 C290 1.382 . S
C291 H301 0.948 . S
N292 Co270 2.282 . S
N292 C296 1.332 . S
N292 C297 1.332 . S
C293 C294 1.388 . S
C293 C297 1.382 . S
C293 H316 0.950 . S
C294 C293 1.388 . S
C294 C295 1.386 . S
C295 C294 1.386 . S
C295 C296 1.382 . S
C295 H317 0.950 . S
C296 N292 1.332 . S
C296 C295 1.382 . S
C296 H298 0.952 . S
C297 N292 1.332 . S
C297 C293 1.382 . S
C297 H299 0.948 . S
H298 C296 0.952 . S
H299 C297 0.948 . S
H300 C289 0.952 . S
H301 C291 0.948 . S
C302 C268 1.395 . S
C302 C272 1.391 . S
C303 C265 1.389 . S
C303 C285 1.392 . S
C304 C275 1.392 . S
C304 C277 1.389 . S
C305 C280 1.395 . S
C305 C282 1.391 . S
H306 C266 0.951 . S
H307 C267 0.950 . S
H308 C273 0.949 . S
H309 C274 0.950 . S
H310 C278 0.951 . S
H311 C279 0.950 . S
H312 C283 0.949 . S
H313 C284 0.950 . S
H314 C288 0.950 . S
H315 C290 0.950 . S
H316 C293 0.950 . S
H317 C295 0.950 . S
C318 O320 1.247 . S
C318 O322 1.258 . S
C319 O326 1.247 . S
C319 O327 1.258 . S
O320 C318 1.247 . S
O320 Zn321 2.028 . S
Zn321 O320 2.028 . S
Zn321 O325 2.035 . S
Zn321 O327 2.035 . S
Zn321 O328 2.028 . S
O322 C318 1.258 . S
O322 Zn323 2.035 . S
Zn323 O322 2.035 . S
Zn323 O324 2.028 . S
Zn323 O326 2.028 . S
Zn323 O329 2.035 . S
O324 Zn323 2.028 . S
O324 C330 1.247 . S
O325 Zn321 2.035 . S
O325 C330 1.258 . S
O326 C319 1.247 . S
O326 Zn323 2.028 . S
O327 C319 1.258 . S
O327 Zn321 2.035 . S
O328 Zn321 2.028 . S
O328 C331 1.247 . S
O329 Zn323 2.035 . S
O329 C331 1.258 . S
C330 O324 1.247 . S
C330 O325 1.258 . S
C331 O328 1.247 . S
C331 O329 1.258 . S
C332 O334 1.247 . S
C332 O336 1.258 . S
C333 O340 1.247 . S
C333 O341 1.258 . S
O334 C332 1.247 . S
O334 Zn335 2.028 . S
Zn335 O334 2.028 . S
Zn335 O339 2.035 . S
Zn335 O341 2.035 . S
Zn335 O342 2.028 . S
O336 C332 1.258 . S
O336 Zn337 2.035 . S
Zn337 O336 2.035 . S
Zn337 O338 2.028 . S
Zn337 O340 2.028 . S
Zn337 O343 2.035 . S
O338 Zn337 2.028 . S
O338 C344 1.247 . S
O339 Zn335 2.035 . S
O339 C344 1.258 . S
O340 C333 1.247 . S
O340 Zn337 2.028 . S
O341 C333 1.258 . S
O341 Zn335 2.035 . S
O342 Zn335 2.028 . S
O342 C345 1.247 . S
O343 Zn337 2.035 . S
O343 C345 1.258 . S
C344 O338 1.247 . S
C344 O339 1.258 . S
C345 O342 1.247 . S
C345 O343 1.258 . S
C346 O348 1.247 . S
C346 O350 1.258 . S
C347 O354 1.247 . S
C347 O355 1.258 . S
O348 C346 1.247 . S
O348 Zn349 2.028 . S
Zn349 O348 2.028 . S
Zn349 O353 2.035 . S
Zn349 O355 2.035 . S
Zn349 O356 2.028 . S
O350 C346 1.258 . S
O350 Zn351 2.035 . S
Zn351 O350 2.035 . S
Zn351 O352 2.028 . S
Zn351 O354 2.028 . S
Zn351 O357 2.035 . S
O352 Zn351 2.028 . S
O352 C358 1.247 . S
O353 Zn349 2.035 . S
O353 C358 1.258 . S
O354 C347 1.247 . S
O354 Zn351 2.028 . S
O355 C347 1.258 . S
O355 Zn349 2.035 . S
O356 Zn349 2.028 . S
O356 C359 1.247 . S
O357 Zn351 2.035 . S
O357 C359 1.258 . S
C358 O352 1.247 . S
C358 O353 1.258 . S
C359 O356 1.247 . S
C359 O357 1.258 . S
C360 O362 1.247 . S
C360 O364 1.258 . S
C361 O368 1.247 . S
C361 O369 1.258 . S
O362 C360 1.247 . S
O362 Zn363 2.028 . S
Zn363 O362 2.028 . S
Zn363 O367 2.035 . S
Zn363 O369 2.035 . S
Zn363 O370 2.028 . S
O364 C360 1.258 . S
O364 Zn365 2.035 . S
Zn365 O364 2.035 . S
Zn365 O366 2.028 . S
Zn365 O368 2.028 . S
Zn365 O371 2.035 . S
O366 Zn365 2.028 . S
O366 C372 1.247 . S
O367 Zn363 2.035 . S
O367 C372 1.258 . S
O368 C361 1.247 . S
O368 Zn365 2.028 . S
O369 C361 1.258 . S
O369 Zn363 2.035 . S
O370 Zn363 2.028 . S
O370 C373 1.247 . S
O371 Zn365 2.035 . S
O371 C373 1.258 . S
C372 O366 1.247 . S
C372 O367 1.258 . S
C373 O370 1.247 . S
C373 O371 1.258 . S
C374 O376 1.247 . S
C374 O378 1.258 . S
C375 O382 1.247 . S
C375 O383 1.258 . S
O376 C374 1.247 . S
O376 Zn377 2.028 . S
Zn377 O376 2.028 . S
Zn377 O381 2.035 . S
Zn377 O383 2.035 . S
Zn377 O384 2.028 . S
O378 C374 1.258 . S
O378 Zn379 2.035 . S
Zn379 O378 2.035 . S
Zn379 O380 2.028 . S
Zn379 O382 2.028 . S
Zn379 O385 2.035 . S
O380 Zn379 2.028 . S
O380 C386 1.247 . S
O381 Zn377 2.035 . S
O381 C386 1.258 . S
O382 C375 1.247 . S
O382 Zn379 2.028 . S
O383 C375 1.258 . S
O383 Zn377 2.035 . S
O384 Zn377 2.028 . S
O384 C387 1.247 . S
O385 Zn379 2.035 . S
O385 C387 1.258 . S
C386 O380 1.247 . S
C386 O381 1.258 . S
C387 O384 1.247 . S
C387 O385 1.258 . S
C388 O390 1.247 . S
C388 O392 1.258 . S
C389 O396 1.247 . S
C389 O397 1.258 . S
O390 C388 1.247 . S
O390 Zn391 2.028 . S
Zn391 O390 2.028 . S
Zn391 O395 2.035 . S
Zn391 O397 2.035 . S
Zn391 O398 2.028 . S
O392 C388 1.258 . S
O392 Zn393 2.035 . S
Zn393 O392 2.035 . S
Zn393 O394 2.028 . S
Zn393 O396 2.028 . S
Zn393 O399 2.035 . S
O394 Zn393 2.028 . S
O394 C400 1.247 . S
O395 Zn391 2.035 . S
O395 C400 1.258 . S
O396 C389 1.247 . S
O396 Zn393 2.028 . S
O397 C389 1.258 . S
O397 Zn391 2.035 . S
O398 Zn391 2.028 . S
O398 C401 1.247 . S
O399 Zn393 2.035 . S
O399 C401 1.258 . S
C400 O394 1.247 . S
C400 O395 1.258 . S
C401 O398 1.247 . S
C401 O399 1.258 . S
H402 C408 0.930 . S
H403 C411 0.930 . S
H404 C412 0.930 . S
H405 C413 0.930 . S
H406 C416 0.930 . S
H407 C417 0.930 . S
C408 H402 0.930 . S
C408 C409 1.355 . S
C408 C410 1.415 . S
C409 C408 1.355 . S
C409 C411 1.419 . S
C410 C408 1.415 . S
C410 C415 1.425 . S
C410 C417 1.409 . S
C411 H403 0.930 . S
C411 C409 1.419 . S
C411 C412 1.362 . S
C412 H404 0.930 . S
C412 C411 1.362 . S
C412 C415 1.409 . S
C413 H405 0.930 . S
C413 C414 1.355 . S
C413 C415 1.415 . S
C414 C413 1.355 . S
C414 C416 1.419 . S
C415 C410 1.425 . S
C415 C412 1.409 . S
C415 C413 1.415 . S
C416 H406 0.930 . S
C416 C414 1.419 . S
C416 C417 1.362 . S
C417 H407 0.930 . S
C417 C410 1.409 . S
C417 C416 1.362 . S
H418 C424 0.930 . S
H419 C427 0.930 . S
H420 C428 0.930 . S
H421 C429 0.930 . S
H422 C432 0.930 . S
H423 C433 0.930 . S
C424 H418 0.930 . S
C424 C425 1.355 . S
C424 C426 1.415 . S
C425 C424 1.355 . S
C425 C427 1.419 . S
C426 C424 1.415 . S
C426 C431 1.425 . S
C426 C433 1.409 . S
C427 H419 0.930 . S
C427 C425 1.419 . S
C427 C428 1.362 . S
C428 H420 0.930 . S
C428 C427 1.362 . S
C428 C431 1.409 . S
C429 H421 0.930 . S
C429 C430 1.355 . S
C429 C431 1.415 . S
C430 C429 1.355 . S
C430 C432 1.419 . S
C431 C426 1.425 . S
C431 C428 1.409 . S
C431 C429 1.415 . S
C432 H422 0.930 . S
C432 C430 1.419 . S
C432 C433 1.362 . S
C433 H423 0.930 . S
C433 C426 1.409 . S
C433 C432 1.362 . S
H434 C440 0.930 . S
H435 C443 0.930 . S
H436 C444 0.930 . S
H437 C445 0.930 . S
H438 C448 0.930 . S
H439 C449 0.930 . S
C440 H434 0.930 . S
C440 C441 1.355 . S
C440 C442 1.415 . S
C441 C440 1.355 . S
C441 C443 1.419 . S
C442 C440 1.415 . S
C442 C447 1.425 . S
C442 C449 1.409 . S
C443 H435 0.930 . S
C443 C441 1.419 . S
C443 C444 1.362 . S
C444 H436 0.930 . S
C444 C443 1.362 . S
C444 C447 1.409 . S
C445 H437 0.930 . S
C445 C446 1.355 . S
C445 C447 1.415 . S
C446 C445 1.355 . S
C446 C448 1.419 . S
C447 C442 1.425 . S
C447 C444 1.409 . S
C447 C445 1.415 . S
C448 H438 0.930 . S
C448 C446 1.419 . S
C448 C449 1.362 . S
C449 H439 0.930 . S
C449 C442 1.409 . S
C449 C448 1.362 . S
H450 C456 0.930 . S
H451 C459 0.930 . S
H452 C460 0.930 . S
H453 C461 0.930 . S
H454 C464 0.930 . S
H455 C465 0.930 . S
C456 H450 0.930 . S
C456 C457 1.355 . S
C456 C458 1.415 . S
C457 C456 1.355 . S
C457 C459 1.419 . S
C458 C456 1.415 . S
C458 C463 1.425 . S
C458 C465 1.409 . S
C459 H451 0.930 . S
C459 C457 1.419 . S
C459 C460 1.362 . S
C460 H452 0.930 . S
C460 C459 1.362 . S
C460 C463 1.409 . S
C461 H453 0.930 . S
C461 C462 1.355 . S
C461 C463 1.415 . S
C462 C461 1.355 . S
C462 C464 1.419 . S
C463 C458 1.425 . S
C463 C460 1.409 . S
C463 C461 1.415 . S
C464 H454 0.930 . S
C464 C462 1.419 . S
C464 C465 1.362 . S
C465 H455 0.930 . S
C465 C458 1.409 . S
C465 C464 1.362 . S
H466 C472 0.930 . S
H467 C475 0.930 . S
H468 C476 0.930 . S
H469 C477 0.930 . S
H470 C480 0.930 . S
H471 C481 0.930 . S
C472 H466 0.930 . S
C472 C473 1.355 . S
C472 C474 1.415 . S
C473 C472 1.355 . S
C473 C475 1.419 . S
C474 C472 1.415 . S
C474 C479 1.425 . S
C474 C481 1.409 . S
C475 H467 0.930 . S
C475 C473 1.419 . S
C475 C476 1.362 . S
C476 H468 0.930 . S
C476 C475 1.362 . S
C476 C479 1.409 . S
C477 H469 0.930 . S
C477 C478 1.355 . S
C477 C479 1.415 . S
C478 C477 1.355 . S
C478 C480 1.419 . S
C479 C474 1.425 . S
C479 C476 1.409 . S
C479 C477 1.415 . S
C480 H470 0.930 . S
C480 C478 1.419 . S
C480 C481 1.362 . S
C481 H471 0.930 . S
C481 C474 1.409 . S
C481 C480 1.362 . S
H482 C488 0.930 . S
H483 C491 0.930 . S
H484 C492 0.930 . S
H485 C493 0.930 . S
H486 C496 0.930 . S
H487 C497 0.930 . S
C488 H482 0.930 . S
C488 C489 1.355 . S
C488 C490 1.415 . S
C489 C488 1.355 . S
C489 C491 1.419 . S
C490 C488 1.415 . S
C490 C495 1.425 . S
C490 C497 1.409 . S
C491 H483 0.930 . S
C491 C489 1.419 . S
C491 C492 1.362 . S
C492 H484 0.930 . S
C492 C491 1.362 . S
C492 C495 1.409 . S
C493 H485 0.930 . S
C493 C494 1.355 . S
C493 C495 1.415 . S
C494 C493 1.355 . S
C494 C496 1.419 . S
C495 C490 1.425 . S
C495 C492 1.409 . S
C495 C493 1.415 . S
C496 H486 0.930 . S
C496 C494 1.419 . S
C496 C497 1.362 . S
C497 H487 0.930 . S
C497 C490 1.409 . S
C497 C496 1.362 . S
H498 C504 0.930 . S
H499 C507 0.930 . S
H500 C508 0.930 . S
H501 C509 0.930 . S
H502 C512 0.930 . S
H503 C513 0.930 . S
C504 H498 0.930 . S
C504 C505 1.355 . S
C504 C506 1.415 . S
C505 C504 1.355 . S
C505 C507 1.419 . S
C506 C504 1.415 . S
C506 C511 1.425 . S
C506 C513 1.409 . S
C507 H499 0.930 . S
C507 C505 1.419 . S
C507 C508 1.362 . S
C508 H500 0.930 . S
C508 C507 1.362 . S
C508 C511 1.409 . S
C509 H501 0.930 . S
C509 C510 1.355 . S
C509 C511 1.415 . S
C510 C509 1.355 . S
C510 C512 1.419 . S
C511 C506 1.425 . S
C511 C508 1.409 . S
C511 C509 1.415 . S
C512 H502 0.930 . S
C512 C510 1.419 . S
C512 C513 1.362 . S
C513 H503 0.930 . S
C513 C506 1.409 . S
C513 C512 1.362 . S
H514 C520 0.930 . S
H515 C523 0.930 . S
H516 C524 0.930 . S
H517 C525 0.930 . S
H518 C528 0.930 . S
H519 C529 0.930 . S
C520 H514 0.930 . S
C520 C521 1.355 . S
C520 C522 1.415 . S
C521 C520 1.355 . S
C521 C523 1.419 . S
C522 C520 1.415 . S
C522 C527 1.425 . S
C522 C529 1.409 . S
C523 H515 0.930 . S
C523 C521 1.419 . S
C523 C524 1.362 . S
C524 H516 0.930 . S
C524 C523 1.362 . S
C524 C527 1.409 . S
C525 H517 0.930 . S
C525 C526 1.355 . S
C525 C527 1.415 . S
C526 C525 1.355 . S
C526 C528 1.419 . S
C527 C522 1.425 . S
C527 C524 1.409 . S
C527 C525 1.415 . S
C528 H518 0.930 . S
C528 C526 1.419 . S
C528 C529 1.362 . S
C529 H519 0.930 . S
C529 C522 1.409 . S
C529 C528 1.362 . S
H530 C536 0.930 . S
H531 C539 0.930 . S
H532 C540 0.930 . S
H533 C541 0.930 . S
H534 C544 0.930 . S
H535 C545 0.930 . S
C536 H530 0.930 . S
C536 C537 1.355 . S
C536 C538 1.415 . S
C537 C536 1.355 . S
C537 C539 1.419 . S
C538 C536 1.415 . S
C538 C543 1.425 . S
C538 C545 1.409 . S
C539 H531 0.930 . S
C539 C537 1.419 . S
C539 C540 1.362 . S
C540 H532 0.930 . S
C540 C539 1.362 . S
C540 C543 1.409 . S
C541 H533 0.930 . S
C541 C542 1.355 . S
C541 C543 1.415 . S
C542 C541 1.355 . S
C542 C544 1.419 . S
C543 C538 1.425 . S
C543 C540 1.409 . S
C543 C541 1.415 . S
C544 H534 0.930 . S
C544 C542 1.419 . S
C544 C545 1.362 . S
C545 H535 0.930 . S
C545 C538 1.409 . S
C545 C544 1.362 . S
H546 C552 0.930 . S
H547 C555 0.930 . S
H548 C556 0.930 . S
H549 C557 0.930 . S
H550 C560 0.930 . S
H551 C561 0.930 . S
C552 H546 0.930 . S
C552 C553 1.355 . S
C552 C554 1.415 . S
C553 C552 1.355 . S
C553 C555 1.419 . S
C554 C552 1.415 . S
C554 C559 1.425 . S
C554 C561 1.409 . S
C555 H547 0.930 . S
C555 C553 1.419 . S
C555 C556 1.362 . S
C556 H548 0.930 . S
C556 C555 1.362 . S
C556 C559 1.409 . S
C557 H549 0.930 . S
C557 C558 1.355 . S
C557 C559 1.415 . S
C558 C557 1.355 . S
C558 C560 1.419 . S
C559 C554 1.425 . S
C559 C556 1.409 . S
C559 C557 1.415 . S
C560 H550 0.930 . S
C560 C558 1.419 . S
C560 C561 1.362 . S
C561 H551 0.930 . S
C561 C554 1.409 . S
C561 C560 1.362 . S
H562 C568 0.930 . S
H563 C571 0.930 . S
H564 C572 0.930 . S
H565 C573 0.930 . S
H566 C576 0.930 . S
H567 C577 0.930 . S
C568 H562 0.930 . S
C568 C569 1.355 . S
C568 C570 1.415 . S
C569 C568 1.355 . S
C569 C571 1.419 . S
C570 C568 1.415 . S
C570 C575 1.425 . S
C570 C577 1.409 . S
C571 H563 0.930 . S
C571 C569 1.419 . S
C571 C572 1.362 . S
C572 H564 0.930 . S
C572 C571 1.362 . S
C572 C575 1.409 . S
C573 H565 0.930 . S
C573 C574 1.355 . S
C573 C575 1.415 . S
C574 C573 1.355 . S
C574 C576 1.419 . S
C575 C570 1.425 . S
C575 C572 1.409 . S
C575 C573 1.415 . S
C576 H566 0.930 . S
C576 C574 1.419 . S
C576 C577 1.362 . S
C577 H567 0.930 . S
C577 C570 1.409 . S
C577 C576 1.362 . S
H578 C584 0.930 . S
H579 C587 0.930 . S
H580 C588 0.930 . S
H581 C589 0.930 . S
H582 C592 0.930 . S
H583 C593 0.930 . S
C584 H578 0.930 . S
C584 C585 1.355 . S
C584 C586 1.415 . S
C585 C584 1.355 . S
C585 C587 1.419 . S
C586 C584 1.415 . S
C586 C591 1.425 . S
C586 C593 1.409 . S
C587 H579 0.930 . S
C587 C585 1.419 . S
C587 C588 1.362 . S
C588 H580 0.930 . S
C588 C587 1.362 . S
C588 C591 1.409 . S
C589 H581 0.930 . S
C589 C590 1.355 . S
C589 C591 1.415 . S
C590 C589 1.355 . S
C590 C592 1.419 . S
C591 C586 1.425 . S
C591 C588 1.409 . S
C591 C589 1.415 . S
C592 H582 0.930 . S
C592 C590 1.419 . S
C592 C593 1.362 . S
C593 H583 0.930 . S
C593 C586 1.409 . S
C593 C592 1.362 . S
H594 C600 0.930 . S
H595 C603 0.930 . S
H596 C604 0.930 . S
H597 C605 0.930 . S
H598 C608 0.930 . S
H599 C609 0.930 . S
C600 H594 0.930 . S
C600 C601 1.355 . S
C600 C602 1.415 . S
C601 C600 1.355 . S
C601 C603 1.419 . S
C602 C600 1.415 . S
C602 C607 1.425 . S
C602 C609 1.409 . S
C603 H595 0.930 . S
C603 C601 1.419 . S
C603 C604 1.362 . S
C604 H596 0.930 . S
C604 C603 1.362 . S
C604 C607 1.409 . S
C605 H597 0.930 . S
C605 C606 1.355 . S
C605 C607 1.415 . S
C606 C605 1.355 . S
C606 C608 1.419 . S
C607 C602 1.425 . S
C607 C604 1.409 . S
C607 C605 1.415 . S
C608 H598 0.930 . S
C608 C606 1.419 . S
C608 C609 1.362 . S
C609 H599 0.930 . S
C609 C602 1.409 . S
C609 C608 1.362 . S
H610 C616 0.930 . S
H611 C619 0.930 . S
H612 C620 0.930 . S
H613 C621 0.930 . S
H614 C624 0.930 . S
H615 C625 0.930 . S
C616 H610 0.930 . S
C616 C617 1.355 . S
C616 C618 1.415 . S
C617 C616 1.355 . S
C617 C619 1.419 . S
C618 C616 1.415 . S
C618 C623 1.425 . S
C618 C625 1.409 . S
C619 H611 0.930 . S
C619 C617 1.419 . S
C619 C620 1.362 . S
C620 H612 0.930 . S
C620 C619 1.362 . S
C620 C623 1.409 . S
C621 H613 0.930 . S
C621 C622 1.355 . S
C621 C623 1.415 . S
C622 C621 1.355 . S
C622 C624 1.419 . S
C623 C618 1.425 . S
C623 C620 1.409 . S
C623 C621 1.415 . S
C624 H614 0.930 . S
C624 C622 1.419 . S
C624 C625 1.362 . S
C625 H615 0.930 . S
C625 C618 1.409 . S
C625 C624 1.362 . S
H626 C632 0.930 . S
H627 C635 0.930 . S
H628 C636 0.930 . S
H629 C637 0.930 . S
H630 C640 0.930 . S
H631 C641 0.930 . S
C632 H626 0.930 . S
C632 C633 1.355 . S
C632 C634 1.415 . S
C633 C632 1.355 . S
C633 C635 1.419 . S
C634 C632 1.415 . S
C634 C639 1.425 . S
C634 C641 1.409 . S
C635 H627 0.930 . S
C635 C633 1.419 . S
C635 C636 1.362 . S
C636 H628 0.930 . S
C636 C635 1.362 . S
C636 C639 1.409 . S
C637 H629 0.930 . S
C637 C638 1.355 . S
C637 C639 1.415 . S
C638 C637 1.355 . S
C638 C640 1.419 . S
C639 C634 1.425 . S
C639 C636 1.409 . S
C639 C637 1.415 . S
C640 H630 0.930 . S
C640 C638 1.419 . S
C640 C641 1.362 . S
C641 H631 0.930 . S
C641 C634 1.409 . S
C641 C640 1.362 . S
H642 C648 0.930 . S
H643 C651 0.930 . S
H644 C652 0.930 . S
H645 C653 0.930 . S
H646 C656 0.930 . S
H647 C657 0.930 . S
C648 H642 0.930 . S
C648 C649 1.355 . S
C648 C650 1.415 . S
C649 C648 1.355 . S
C649 C651 1.419 . S
C650 C648 1.415 . S
C650 C655 1.425 . S
C650 C657 1.409 . S
C651 H643 0.930 . S
C651 C649 1.419 . S
C651 C652 1.362 . S
C652 H644 0.930 . S
C652 C651 1.362 . S
C652 C655 1.409 . S
C653 H645 0.930 . S
C653 C654 1.355 . S
C653 C655 1.415 . S
C654 C653 1.355 . S
C654 C656 1.419 . S
C655 C650 1.425 . S
C655 C652 1.409 . S
C655 C653 1.415 . S
C656 H646 0.930 . S
C656 C654 1.419 . S
C656 C657 1.362 . S
C657 H647 0.930 . S
C657 C650 1.409 . S
C657 C656 1.362 . S
H658 C664 0.930 . S
H659 C667 0.930 . S
H660 C668 0.930 . S
H661 C669 0.930 . S
H662 C672 0.930 . S
H663 C673 0.930 . S
C664 H658 0.930 . S
C664 C665 1.355 . S
C664 C666 1.415 . S
C665 C664 1.355 . S
C665 C667 1.419 . S
C666 C664 1.415 . S
C666 C671 1.425 . S
C666 C673 1.409 . S
C667 H659 0.930 . S
C667 C665 1.419 . S
C667 C668 1.362 . S
C668 H660 0.930 . S
C668 C667 1.362 . S
C668 C671 1.409 . S
C669 H661 0.930 . S
C669 C670 1.355 . S
C669 C671 1.415 . S
C670 C669 1.355 . S
C670 C672 1.419 . S
C671 C666 1.425 . S
C671 C668 1.409 . S
C671 C669 1.415 . S
C672 H662 0.930 . S
C672 C670 1.419 . S
C672 C673 1.362 . S
C673 H663 0.930 . S
C673 C666 1.409 . S
C673 C672 1.362 . S
H674 C680 0.930 . S
H675 C683 0.930 . S
H676 C684 0.930 . S
H677 C685 0.930 . S
H678 C688 0.930 . S
H679 C689 0.930 . S
C680 H674 0.930 . S
C680 C681 1.355 . S
C680 C682 1.415 . S
C681 C680 1.355 . S
C681 C683 1.419 . S
C682 C680 1.415 . S
C682 C687 1.425 . S
C682 C689 1.409 . S
C683 H675 0.930 . S
C683 C681 1.419 . S
C683 C684 1.362 . S
C684 H676 0.930 . S
C684 C683 1.362 . S
C684 C687 1.409 . S
C685 H677 0.930 . S
C685 C686 1.355 . S
C685 C687 1.415 . S
C686 C685 1.355 . S
C686 C688 1.419 . S
C687 C682 1.425 . S
C687 C684 1.409 . S
C687 C685 1.415 . S
C688 H678 0.930 . S
C688 C686 1.419 . S
C688 C689 1.362 . S
C689 H679 0.930 . S
C689 C682 1.409 . S
C689 C688 1.362 . S
H690 C696 0.930 . S
H691 C699 0.930 . S
H692 C700 0.930 . S
H693 C701 0.930 . S
H694 C704 0.930 . S
H695 C705 0.930 . S
C696 H690 0.930 . S
C696 C697 1.355 . S
C696 C698 1.415 . S
C697 C696 1.355 . S
C697 C699 1.419 . S
C698 C696 1.415 . S
C698 C703 1.425 . S
C698 C705 1.409 . S
C699 H691 0.930 . S
C699 C697 1.419 . S
C699 C700 1.362 . S
C700 H692 0.930 . S
C700 C699 1.362 . S
C700 C703 1.409 . S
C701 H693 0.930 . S
C701 C702 1.355 . S
C701 C703 1.415 . S
C702 C701 1.355 . S
C702 C704 1.419 . S
C703 C698 1.425 . S
C703 C700 1.409 . S
C703 C701 1.415 . S
C704 H694 0.930 . S
C704 C702 1.419 . S
C704 C705 1.362 . S
C705 H695 0.930 . S
C705 C698 1.409 . S
C705 C704 1.362 . S
H706 C712 0.930 . S
H707 C715 0.930 . S
H708 C716 0.930 . S
H709 C717 0.930 . S
H710 C720 0.930 . S
H711 C721 0.930 . S
C712 H706 0.930 . S
C712 C713 1.355 . S
C712 C714 1.415 . S
C713 C712 1.355 . S
C713 C715 1.419 . S
C714 C712 1.415 . S
C714 C719 1.425 . S
C714 C721 1.409 . S
C715 H707 0.930 . S
C715 C713 1.419 . S
C715 C716 1.362 . S
C716 H708 0.930 . S
C716 C715 1.362 . S
C716 C719 1.409 . S
C717 H709 0.930 . S
C717 C718 1.355 . S
C717 C719 1.415 . S
C718 C717 1.355 . S
C718 C720 1.419 . S
C719 C714 1.425 . S
C719 C716 1.409 . S
C719 C717 1.415 . S
C720 H710 0.930 . S
C720 C718 1.419 . S
C720 C721 1.362 . S
C721 H711 0.930 . S
C721 C714 1.409 . S
C721 C720 1.362 . S
H722 C728 0.930 . S
H723 C731 0.930 . S
H724 C732 0.930 . S
H725 C733 0.930 . S
H726 C736 0.930 . S
H727 C737 0.930 . S
C728 H722 0.930 . S
C728 C729 1.355 . S
C728 C730 1.415 . S
C729 C728 1.355 . S
C729 C731 1.419 . S
C730 C728 1.415 . S
C730 C735 1.425 . S
C730 C737 1.409 . S
C731 H723 0.930 . S
C731 C729 1.419 . S
C731 C732 1.362 . S
C732 H724 0.930 . S
C732 C731 1.362 . S
C732 C735 1.409 . S
C733 H725 0.930 . S
C733 C734 1.355 . S
C733 C735 1.415 . S
C734 C733 1.355 . S
C734 C736 1.419 . S
C735 C730 1.425 . S
C735 C732 1.409 . S
C735 C733 1.415 . S
C736 H726 0.930 . S
C736 C734 1.419 . S
C736 C737 1.362 . S
C737 H727 0.930 . S
C737 C730 1.409 . S
C737 C736 1.362 . S
H738 C744 0.930 . S
H739 C747 0.930 . S
H740 C748 0.930 . S
H741 C749 0.930 . S
H742 C752 0.930 . S
H743 C753 0.930 . S
C744 H738 0.930 . S
C744 C745 1.355 . S
C744 C746 1.415 . S
C745 C744 1.355 . S
C745 C747 1.419 . S
C746 C744 1.415 . S
C746 C751 1.425 . S
C746 C753 1.409 . S
C747 H739 0.930 . S
C747 C745 1.419 . S
C747 C748 1.362 . S
C748 H740 0.930 . S
C748 C747 1.362 . S
C748 C751 1.409 . S
C749 H741 0.930 . S
C749 C750 1.355 . S
C749 C751 1.415 . S
C750 C749 1.355 . S
C750 C752 1.419 . S
C751 C746 1.425 . S
C751 C748 1.409 . S
C751 C749 1.415 . S
C752 H742 0.930 . S
C752 C750 1.419 . S
C752 C753 1.362 . S
C753 H743 0.930 . S
C753 C746 1.409 . S
C753 C752 1.362 . S
H754 C760 0.930 . S
H755 C763 0.930 . S
H756 C764 0.930 . S
H757 C765 0.930 . S
H758 C768 0.930 . S
H759 C769 0.930 . S
C760 H754 0.930 . S
C760 C761 1.355 . S
C760 C762 1.415 . S
C761 C760 1.355 . S
C761 C763 1.419 . S
C762 C760 1.415 . S
C762 C767 1.425 . S
C762 C769 1.409 . S
C763 H755 0.930 . S
C763 C761 1.419 . S
C763 C764 1.362 . S
C764 H756 0.930 . S
C764 C763 1.362 . S
C764 C767 1.409 . S
C765 H757 0.930 . S
C765 C766 1.355 . S
C765 C767 1.415 . S
C766 C765 1.355 . S
C766 C768 1.419 . S
C767 C762 1.425 . S
C767 C764 1.409 . S
C767 C765 1.415 . S
C768 H758 0.930 . S
C768 C766 1.419 . S
C768 C769 1.362 . S
C769 H759 0.930 . S
C769 C762 1.409 . S
C769 C768 1.362 . S
H770 C776 0.930 . S
H771 C779 0.930 . S
H772 C780 0.930 . S
H773 C781 0.930 . S
H774 C784 0.930 . S
H775 C785 0.930 . S
C776 H770 0.930 . S
C776 C777 1.355 . S
C776 C778 1.415 . S
C777 C776 1.355 . S
C777 C779 1.419 . S
C778 C776 1.415 . S
C778 C783 1.425 . S
C778 C785 1.409 . S
C779 H771 0.930 . S
C779 C777 1.419 . S
C779 C780 1.362 . S
C780 H772 0.930 . S
C780 C779 1.362 . S
C780 C783 1.409 . S
C781 H773 0.930 . S
C781 C782 1.355 . S
C781 C783 1.415 . S
C782 C781 1.355 . S
C782 C784 1.419 . S
C783 C778 1.425 . S
C783 C780 1.409 . S
C783 C781 1.415 . S
C784 H774 0.930 . S
C784 C782 1.419 . S
C784 C785 1.362 . S
C785 H775 0.930 . S
C785 C778 1.409 . S
C785 C784 1.362 . S
C409 C39 1.701 . S
C414 C319 1.688 . S
C425 C91 1.695 . S
C430 C344 1.664 . S
C446 C347 1.548 . S
C441 C128 1.556 . S
C462 C373 1.517 . S
C457 C188 1.523 . S
C478 C374 1.602 . S
C473 C250 1.631 . S
C494 C401 1.623 . S
C489 C304 1.658 . S
C505 C75 1.579 . S
C510 C346 1.570 . S
C521 C144 1.698 . S
C526 C372 1.690 . S
C542 C375 1.616 . S
C537 C198 1.641 . S
C558 C400 1.492 . S
C553 C234 1.501 . S
C569 C294 1.495 . S
C574 C318 1.460 . S
C590 C345 1.539 . S
C585 C29 1.542 . S
C606 C360 1.677 . S
C601 C38 1.704 . S
C617 C92 1.705 . S
C622 C387 1.694 . S
C638 C388 1.548 . S
C633 C135 1.556 . S
C649 C181 1.523 . S
C654 C330 1.517 . S
C665 C251 1.633 . S
C670 C333 1.605 . S
C681 C303 1.665 . S
C686 C358 1.626 . S
C697 C82 1.578 . S
C702 C389 1.564 . S
C718 C331 1.665 . S
C713 C145 1.689 . S
C729 C197 1.654 . S
C734 C332 1.631 . S
C745 C241 1.507 . S
C750 C359 1.502 . S
C761 C287 1.502 . S
C766 C361 1.478 . S
C777 C22 1.528 . S
C782 C386 1.505 . S
