# Generated by pormake.
# Topology iac, (4,6)-cn, num edge types: 1
# Building blocks:
#     Node 0, Type 0, BuildingBlock: GALJAG_clean_sbu_0, # of connection points: 4
#     Node 1, Type 0, BuildingBlock: GALJAG_clean_sbu_0, # of connection points: 4
#     Node 2, Type 0, BuildingBlock: GALJAG_clean_sbu_0, # of connection points: 4
#     Node 3, Type 0, BuildingBlock: GALJAG_clean_sbu_0, # of connection points: 4
#     Node 4, Type 0, BuildingBlock: GALJAG_clean_sbu_0, # of connection points: 4
#     Node 5, Type 0, BuildingBlock: GALJAG_clean_sbu_0, # of connection points: 4
#     Node 6, Type 0, BuildingBlock: GALJAG_clean_sbu_0, # of connection points: 4
#     Node 7, Type 0, BuildingBlock: GALJAG_clean_sbu_0, # of connection points: 4
#     Node 8, Type 0, BuildingBlock: GALJAG_clean_sbu_0, # of connection points: 4
#     Node 9, Type 0, BuildingBlock: GALJAG_clean_sbu_0, # of connection points: 4
#     Node 10, Type 0, BuildingBlock: GALJAG_clean_sbu_0, # of connection points: 4
#     Node 11, Type 0, BuildingBlock: GALJAG_clean_sbu_0, # of connection points: 4
#     Node 12, Type 0, BuildingBlock: GALJAG_clean_sbu_0, # of connection points: 4
#     Node 13, Type 0, BuildingBlock: GALJAG_clean_sbu_0, # of connection points: 4
#     Node 14, Type 0, BuildingBlock: GALJAG_clean_sbu_0, # of connection points: 4
#     Node 15, Type 0, BuildingBlock: GALJAG_clean_sbu_0, # of connection points: 4
#     Node 16, Type 0, BuildingBlock: GALJAG_clean_sbu_0, # of connection points: 4
#     Node 17, Type 0, BuildingBlock: GALJAG_clean_sbu_0, # of connection points: 4
#     Node 18, Type 0, BuildingBlock: GALJAG_clean_sbu_0, # of connection points: 4
#     Node 19, Type 0, BuildingBlock: GALJAG_clean_sbu_0, # of connection points: 4
#     Node 20, Type 0, BuildingBlock: GALJAG_clean_sbu_0, # of connection points: 4
#     Node 21, Type 0, BuildingBlock: GALJAG_clean_sbu_0, # of connection points: 4
#     Node 22, Type 0, BuildingBlock: GALJAG_clean_sbu_0, # of connection points: 4
#     Node 23, Type 0, BuildingBlock: GALJAG_clean_sbu_0, # of connection points: 4
#     Node 24, Type 1, BuildingBlock: FUNLAD_clean_sbu_0, # of connection points: 6
#     Node 25, Type 1, BuildingBlock: FUNLAD_clean_sbu_0, # of connection points: 6
#     Node 26, Type 1, BuildingBlock: FUNLAD_clean_sbu_0, # of connection points: 6
#     Node 27, Type 1, BuildingBlock: FUNLAD_clean_sbu_0, # of connection points: 6
#     Node 28, Type 1, BuildingBlock: FUNLAD_clean_sbu_0, # of connection points: 6
#     Node 29, Type 1, BuildingBlock: FUNLAD_clean_sbu_0, # of connection points: 6
#     Node 30, Type 1, BuildingBlock: FUNLAD_clean_sbu_0, # of connection points: 6
#     Node 31, Type 1, BuildingBlock: FUNLAD_clean_sbu_0, # of connection points: 6
#     Node 32, Type 1, BuildingBlock: FUNLAD_clean_sbu_0, # of connection points: 6
#     Node 33, Type 1, BuildingBlock: FUNLAD_clean_sbu_0, # of connection points: 6
#     Node 34, Type 1, BuildingBlock: FUNLAD_clean_sbu_0, # of connection points: 6
#     Node 35, Type 1, BuildingBlock: FUNLAD_clean_sbu_0, # of connection points: 6
#     Node 36, Type 1, BuildingBlock: FUNLAD_clean_sbu_0, # of connection points: 6
#     Node 37, Type 1, BuildingBlock: FUNLAD_clean_sbu_0, # of connection points: 6
#     Node 38, Type 1, BuildingBlock: FUNLAD_clean_sbu_0, # of connection points: 6
#     Node 39, Type 1, BuildingBlock: FUNLAD_clean_sbu_0, # of connection points: 6
#     Edge 40, Type (0, 1), BuildingBlock: KIFKEQ_clean_linker_1, # of connection points: 2
#     Edge 41, Type (0, 1), BuildingBlock: KIFKEQ_clean_linker_1, # of connection points: 2
#     Edge 42, Type (0, 1), BuildingBlock: KIFKEQ_clean_linker_1, # of connection points: 2
#     Edge 43, Type (0, 1), BuildingBlock: KIFKEQ_clean_linker_1, # of connection points: 2
#     Edge 44, Type (0, 1), BuildingBlock: KIFKEQ_clean_linker_1, # of connection points: 2
#     Edge 45, Type (0, 1), BuildingBlock: KIFKEQ_clean_linker_1, # of connection points: 2
#     Edge 46, Type (0, 1), BuildingBlock: KIFKEQ_clean_linker_1, # of connection points: 2
#     Edge 47, Type (0, 1), BuildingBlock: KIFKEQ_clean_linker_1, # of connection points: 2
#     Edge 48, Type (0, 1), BuildingBlock: KIFKEQ_clean_linker_1, # of connection points: 2
#     Edge 49, Type (0, 1), BuildingBlock: KIFKEQ_clean_linker_1, # of connection points: 2
#     Edge 50, Type (0, 1), BuildingBlock: KIFKEQ_clean_linker_1, # of connection points: 2
#     Edge 51, Type (0, 1), BuildingBlock: KIFKEQ_clean_linker_1, # of connection points: 2
#     Edge 52, Type (0, 1), BuildingBlock: KIFKEQ_clean_linker_1, # of connection points: 2
#     Edge 53, Type (0, 1), BuildingBlock: KIFKEQ_clean_linker_1, # of connection points: 2
#     Edge 54, Type (0, 1), BuildingBlock: KIFKEQ_clean_linker_1, # of connection points: 2
#     Edge 55, Type (0, 1), BuildingBlock: KIFKEQ_clean_linker_1, # of connection points: 2
#     Edge 56, Type (0, 1), BuildingBlock: KIFKEQ_clean_linker_1, # of connection points: 2
#     Edge 57, Type (0, 1), BuildingBlock: KIFKEQ_clean_linker_1, # of connection points: 2
#     Edge 58, Type (0, 1), BuildingBlock: KIFKEQ_clean_linker_1, # of connection points: 2
#     Edge 59, Type (0, 1), BuildingBlock: KIFKEQ_clean_linker_1, # of connection points: 2
#     Edge 60, Type (0, 1), BuildingBlock: KIFKEQ_clean_linker_1, # of connection points: 2
#     Edge 61, Type (0, 1), BuildingBlock: KIFKEQ_clean_linker_1, # of connection points: 2
#     Edge 62, Type (0, 1), BuildingBlock: KIFKEQ_clean_linker_1, # of connection points: 2
#     Edge 63, Type (0, 1), BuildingBlock: KIFKEQ_clean_linker_1, # of connection points: 2
#     Edge 64, Type (0, 1), BuildingBlock: KIFKEQ_clean_linker_1, # of connection points: 2
#     Edge 65, Type (0, 1), BuildingBlock: KIFKEQ_clean_linker_1, # of connection points: 2
#     Edge 66, Type (0, 1), BuildingBlock: KIFKEQ_clean_linker_1, # of connection points: 2
#     Edge 67, Type (0, 1), BuildingBlock: KIFKEQ_clean_linker_1, # of connection points: 2
#     Edge 68, Type (0, 1), BuildingBlock: KIFKEQ_clean_linker_1, # of connection points: 2
#     Edge 69, Type (0, 1), BuildingBlock: KIFKEQ_clean_linker_1, # of connection points: 2
#     Edge 70, Type (0, 1), BuildingBlock: KIFKEQ_clean_linker_1, # of connection points: 2
#     Edge 71, Type (0, 1), BuildingBlock: KIFKEQ_clean_linker_1, # of connection points: 2
#     Edge 72, Type (0, 1), BuildingBlock: KIFKEQ_clean_linker_1, # of connection points: 2
#     Edge 73, Type (0, 1), BuildingBlock: KIFKEQ_clean_linker_1, # of connection points: 2
#     Edge 74, Type (0, 1), BuildingBlock: KIFKEQ_clean_linker_1, # of connection points: 2
#     Edge 75, Type (0, 1), BuildingBlock: KIFKEQ_clean_linker_1, # of connection points: 2
#     Edge 76, Type (0, 1), BuildingBlock: KIFKEQ_clean_linker_1, # of connection points: 2
#     Edge 77, Type (0, 1), BuildingBlock: KIFKEQ_clean_linker_1, # of connection points: 2
#     Edge 78, Type (0, 1), BuildingBlock: KIFKEQ_clean_linker_1, # of connection points: 2
#     Edge 79, Type (0, 1), BuildingBlock: KIFKEQ_clean_linker_1, # of connection points: 2
#     Edge 80, Type (0, 1), BuildingBlock: KIFKEQ_clean_linker_1, # of connection points: 2
#     Edge 81, Type (0, 1), BuildingBlock: KIFKEQ_clean_linker_1, # of connection points: 2
#     Edge 82, Type (0, 1), BuildingBlock: KIFKEQ_clean_linker_1, # of connection points: 2
#     Edge 83, Type (0, 1), BuildingBlock: KIFKEQ_clean_linker_1, # of connection points: 2
#     Edge 84, Type (0, 1), BuildingBlock: KIFKEQ_clean_linker_1, # of connection points: 2
#     Edge 85, Type (0, 1), BuildingBlock: KIFKEQ_clean_linker_1, # of connection points: 2
#     Edge 86, Type (0, 1), BuildingBlock: KIFKEQ_clean_linker_1, # of connection points: 2
#     Edge 87, Type (0, 1), BuildingBlock: KIFKEQ_clean_linker_1, # of connection points: 2
#     Edge 88, Type (0, 1), BuildingBlock: KIFKEQ_clean_linker_1, # of connection points: 2
#     Edge 89, Type (0, 1), BuildingBlock: KIFKEQ_clean_linker_1, # of connection points: 2
#     Edge 90, Type (0, 1), BuildingBlock: KIFKEQ_clean_linker_1, # of connection points: 2
#     Edge 91, Type (0, 1), BuildingBlock: KIFKEQ_clean_linker_1, # of connection points: 2
#     Edge 92, Type (0, 1), BuildingBlock: KIFKEQ_clean_linker_1, # of connection points: 2
#     Edge 93, Type (0, 1), BuildingBlock: KIFKEQ_clean_linker_1, # of connection points: 2
#     Edge 94, Type (0, 1), BuildingBlock: KIFKEQ_clean_linker_1, # of connection points: 2
#     Edge 95, Type (0, 1), BuildingBlock: KIFKEQ_clean_linker_1, # of connection points: 2
#     Edge 96, Type (0, 1), BuildingBlock: KIFKEQ_clean_linker_1, # of connection points: 2
#     Edge 97, Type (0, 1), BuildingBlock: KIFKEQ_clean_linker_1, # of connection points: 2
#     Edge 98, Type (0, 1), BuildingBlock: KIFKEQ_clean_linker_1, # of connection points: 2
#     Edge 99, Type (0, 1), BuildingBlock: KIFKEQ_clean_linker_1, # of connection points: 2
#     Edge 100, Type (0, 1), BuildingBlock: KIFKEQ_clean_linker_1, # of connection points: 2
#     Edge 101, Type (0, 1), BuildingBlock: KIFKEQ_clean_linker_1, # of connection points: 2
#     Edge 102, Type (0, 1), BuildingBlock: KIFKEQ_clean_linker_1, # of connection points: 2
#     Edge 103, Type (0, 1), BuildingBlock: KIFKEQ_clean_linker_1, # of connection points: 2
#     Edge 104, Type (0, 1), BuildingBlock: KIFKEQ_clean_linker_1, # of connection points: 2
#     Edge 105, Type (0, 1), BuildingBlock: KIFKEQ_clean_linker_1, # of connection points: 2
#     Edge 106, Type (0, 1), BuildingBlock: KIFKEQ_clean_linker_1, # of connection points: 2
#     Edge 107, Type (0, 1), BuildingBlock: KIFKEQ_clean_linker_1, # of connection points: 2
#     Edge 108, Type (0, 1), BuildingBlock: KIFKEQ_clean_linker_1, # of connection points: 2
#     Edge 109, Type (0, 1), BuildingBlock: KIFKEQ_clean_linker_1, # of connection points: 2
#     Edge 110, Type (0, 1), BuildingBlock: KIFKEQ_clean_linker_1, # of connection points: 2
#     Edge 111, Type (0, 1), BuildingBlock: KIFKEQ_clean_linker_1, # of connection points: 2
#     Edge 112, Type (0, 1), BuildingBlock: KIFKEQ_clean_linker_1, # of connection points: 2
#     Edge 113, Type (0, 1), BuildingBlock: KIFKEQ_clean_linker_1, # of connection points: 2
#     Edge 114, Type (0, 1), BuildingBlock: KIFKEQ_clean_linker_1, # of connection points: 2
#     Edge 115, Type (0, 1), BuildingBlock: KIFKEQ_clean_linker_1, # of connection points: 2
#     Edge 116, Type (0, 1), BuildingBlock: KIFKEQ_clean_linker_1, # of connection points: 2
#     Edge 117, Type (0, 1), BuildingBlock: KIFKEQ_clean_linker_1, # of connection points: 2
#     Edge 118, Type (0, 1), BuildingBlock: KIFKEQ_clean_linker_1, # of connection points: 2
#     Edge 119, Type (0, 1), BuildingBlock: KIFKEQ_clean_linker_1, # of connection points: 2
#     Edge 120, Type (0, 1), BuildingBlock: KIFKEQ_clean_linker_1, # of connection points: 2
#     Edge 121, Type (0, 1), BuildingBlock: KIFKEQ_clean_linker_1, # of connection points: 2
#     Edge 122, Type (0, 1), BuildingBlock: KIFKEQ_clean_linker_1, # of connection points: 2
#     Edge 123, Type (0, 1), BuildingBlock: KIFKEQ_clean_linker_1, # of connection points: 2
#     Edge 124, Type (0, 1), BuildingBlock: KIFKEQ_clean_linker_1, # of connection points: 2
#     Edge 125, Type (0, 1), BuildingBlock: KIFKEQ_clean_linker_1, # of connection points: 2
#     Edge 126, Type (0, 1), BuildingBlock: KIFKEQ_clean_linker_1, # of connection points: 2
#     Edge 127, Type (0, 1), BuildingBlock: KIFKEQ_clean_linker_1, # of connection points: 2
#     Edge 128, Type (0, 1), BuildingBlock: KIFKEQ_clean_linker_1, # of connection points: 2
#     Edge 129, Type (0, 1), BuildingBlock: KIFKEQ_clean_linker_1, # of connection points: 2
#     Edge 130, Type (0, 1), BuildingBlock: KIFKEQ_clean_linker_1, # of connection points: 2
#     Edge 131, Type (0, 1), BuildingBlock: KIFKEQ_clean_linker_1, # of connection points: 2
#     Edge 132, Type (0, 1), BuildingBlock: KIFKEQ_clean_linker_1, # of connection points: 2
#     Edge 133, Type (0, 1), BuildingBlock: KIFKEQ_clean_linker_1, # of connection points: 2
#     Edge 134, Type (0, 1), BuildingBlock: KIFKEQ_clean_linker_1, # of connection points: 2
#     Edge 135, Type (0, 1), BuildingBlock: KIFKEQ_clean_linker_1, # of connection points: 2
# Relax obj value: 0.349
# Max RMSD: 0.284
# Mean RMSD: 0.170
data_MOF--net-iac--node1-GALJAG_clean_sbu_0--node2-FUNLAD_clean_sbu_0--edge1-KIFKEQ_clean_linker_1
_symmetry_space_group_name_H-M    P1
_symmetry_Int_Tables_number       1
_symmetry_cell_setting            triclinic
loop_
_symmetry_equiv_pos_as_xyz
'x, y, z'
_cell_length_a     56.000807
_cell_length_b     53.962147
_cell_length_c     60.394865
_cell_angle_alpha  89.969011
_cell_angle_beta   91.991063
_cell_angle_gamma 90.112994
loop_
_atom_site_label
_atom_site_type_symbol
_atom_site_fract_x
_atom_site_fract_y
_atom_site_fract_z
_atom_type_partial_charge
In0 In 0.05605 0.21141 0.13303 0.0
O1 O 0.07973 0.19779 0.10596 0.0
O2 O 0.06247 0.17066 0.12547 0.0
C3 C 0.03966 0.24668 0.1049 0.0
C4 C 0.01875 0.19622 0.15667 0.0
C5 C 0.09355 0.22915 0.15711 0.0
O6 O 0.04964 0.22723 0.0984 0.0
O7 O 0.03713 0.24793 0.12553 0.0
O8 O 0.07757 0.24312 0.14895 0.0
O9 O 0.09016 0.20638 0.15375 0.0
C10 C 0.07644 0.17513 0.10995 0.0
O11 O 0.03753 0.20527 0.16549 0.0
O12 O 0.01893 0.19426 0.13585 0.0
In13 In 0.03373 0.76039 0.39142 0.0
O14 O 0.05599 0.74958 0.36139 0.0
O15 O 0.0741 0.76778 0.38807 0.0
C16 C 0.99007 0.76113 0.36917 0.0
C17 C 0.03857 0.71794 0.41597 0.0
C18 C 0.03157 0.80431 0.41388 0.0
O19 O 0.00917 0.76759 0.3603 0.0
O20 O 0.99298 0.75427 0.389 0.0
O21 O 0.02525 0.78382 0.42186 0.0
O22 O 0.03911 0.80282 0.39445 0.0
C23 C 0.07559 0.75795 0.3692 0.0
O24 O 0.04023 0.73931 0.42429 0.0
O25 O 0.03462 0.71787 0.39528 0.0
In26 In 0.5628 0.71113 0.65831 0.0
O27 O 0.54004 0.73929 0.63884 0.0
O28 O 0.55866 0.75131 0.66813 0.0
C29 C 0.57773 0.68412 0.62399 0.0
C30 C 0.60408 0.7225 0.67947 0.0
C31 C 0.52657 0.68932 0.67929 0.0
O32 O 0.57787 0.6757 0.64349 0.0
O33 O 0.57012 0.70594 0.62197 0.0
O34 O 0.54591 0.69541 0.6891 0.0
O35 O 0.52574 0.69367 0.65878 0.0
C36 C 0.54564 0.75706 0.65154 0.0
O37 O 0.58986 0.70661 0.68702 0.0
O38 O 0.59799 0.73143 0.66082 0.0
In39 In 0.5336 0.25977 0.89224 0.0
O40 O 0.55512 0.26204 0.85999 0.0
O41 O 0.57432 0.25487 0.88996 0.0
C42 C 0.48833 0.26101 0.87364 0.0
C43 C 0.5342 0.21586 0.91484 0.0
C44 C 0.53445 0.30423 0.91394 0.0
O45 O 0.50658 0.2568 0.86248 0.0
O46 O 0.4929 0.2642 0.89404 0.0
O47 O 0.53406 0.28362 0.92374 0.0
O48 O 0.5349 0.30257 0.89312 0.0
C49 C 0.57522 0.25785 0.86932 0.0
O50 O 0.54192 0.23593 0.92303 0.0
O51 O 0.52608 0.21777 0.89515 0.0
In52 In 0.14237 0.00064 0.24693 0.0
O53 O 0.17867 0.98198 0.24933 0.0
O54 O 0.14791 0.96004 0.25557 0.0
C55 C 0.16621 0.04281 0.2392 0.0
C56 C 0.11443 0.99398 0.20998 0.0
C57 C 0.12216 0.00685 0.28632 0.0
O58 O 0.1746 0.02186 0.23444 0.0
O59 O 0.14565 0.04233 0.247 0.0
O60 O 0.11044 -0.00075 0.26945 0.0
O61 O 0.14406 0.01033 0.28347 0.0
C62 C 0.17037 0.96098 0.25422 0.0
O63 O 0.11366 0.01322 0.22166 0.0
O64 O 0.12939 0.97811 0.21679 0.0
In65 In 0.28166 0.89621 0.54897 0.0
O66 O 0.25461 0.92341 0.56277 0.0
O67 O 0.25217 0.9154 0.52836 0.0
C68 C 0.32328 0.92155 0.54713 0.0
C69 C 0.27529 0.86864 0.58588 0.0
C70 C 0.28561 0.86578 0.5139 0.0
O71 O 0.30371 0.93074 0.54021 0.0
O72 O 0.32152 0.90044 0.55581 0.0
O73 O 0.2656 0.87319 0.5203 0.0
O74 O 0.30334 0.87323 0.52548 0.0
C75 C 0.24366 0.92695 0.54442 0.0
O76 O 0.27162 0.86018 0.56662 0.0
O77 O 0.28195 0.89095 0.58653 0.0
In78 In 0.40268 0.01979 0.74312 0.0
O79 O 0.36716 0.04061 0.74237 0.0
O80 O 0.39896 0.06149 0.74796 0.0
C81 C 0.38546 0.97323 0.7396 0.0
C82 C 0.42837 0.02645 0.70656 0.0
C83 C 0.42129 0.01483 0.78457 0.0
O84 O 0.3723 0.99206 0.73711 0.0
O85 O 0.4074 0.97795 0.74255 0.0
O86 O 0.43395 0.02002 0.76832 0.0
O87 O 0.3992 0.01318 0.78003 0.0
C88 C 0.37648 0.06158 0.74593 0.0
O89 O 0.43761 0.02626 0.72588 0.0
O90 O 0.40605 0.02307 0.70556 0.0
In91 In 0.26589 0.08184 0.02088 0.0
O92 O 0.29614 0.06564 0.00125 0.0
O93 O 0.30203 0.10007 0.01762 0.0
C94 C 0.24578 0.03714 0.02786 0.0
C95 C 0.27482 0.09869 0.06213 0.0
C96 C 0.24192 0.11094 0.99111 0.0
O97 O 0.26501 0.03979 0.01797 0.0
O98 O 0.23652 0.0571 0.0342 0.0
O99 O 0.24826 0.1181 0.01021 0.0
O100 O 0.24707 0.08874 0.98706 0.0
C101 C 0.31063 0.08279 0.00638 0.0
O102 O 0.2552 0.1027 0.05178 0.0
O103 O 0.28904 0.08478 0.05226 0.0
In104 In 0.77996 0.39717 0.04924 0.0
O105 O 0.77771 0.35919 0.06575 0.0
O106 O 0.77796 0.3909 0.08656 0.0
C107 C 0.78664 0.373 0.01079 0.0
C108 C 0.73761 0.42085 0.04961 0.0
C109 C 0.81827 0.4277 0.04932 0.0
O110 O 0.80043 0.3704 0.02757 0.0
O111 O 0.76927 0.38736 0.01356 0.0
O112 O 0.80049 0.43034 0.03619 0.0
O113 O 0.81651 0.41002 0.06286 0.0
C114 C 0.7769 0.36758 0.08519 0.0
O115 O 0.75726 0.43195 0.05292 0.0
O116 O 0.73935 0.39786 0.04627 0.0
In117 In 0.91113 0.50473 0.24934 0.0
O118 O 0.9471 0.50605 0.23274 0.0
O119 O 0.91569 0.5078 0.21206 0.0
C120 C 0.93772 0.50087 0.28723 0.0
C121 C 0.88473 0.54663 0.2468 0.0
C122 C 0.88515 0.46267 0.25223 0.0
O123 O 0.93968 0.48609 0.27125 0.0
O124 O 0.92275 0.51804 0.2839 0.0
O125 O 0.88432 0.47993 0.26621 0.0
O126 O 0.89849 0.46693 0.23624 0.0
C127 C 0.93823 0.50775 0.21334 0.0
O128 O 0.87558 0.5253 0.24519 0.0
O129 O 0.90716 0.54683 0.24973 0.0
In130 In 0.77978 0.60903 0.5236 0.0
O131 O 0.8118 0.59198 0.54124 0.0
O132 O 0.814 0.59838 0.5066 0.0
C133 C 0.7549 0.56667 0.52362 0.0
C134 C 0.78307 0.64202 0.55683 0.0
C135 C 0.75942 0.63525 0.49038 0.0
O136 O 0.75087 0.58418 0.53691 0.0
O137 O 0.77105 0.57087 0.51005 0.0
O138 O 0.74721 0.62221 0.50315 0.0
O139 O 0.7817 0.63479 0.49425 0.0
C140 C 0.82397 0.59019 0.52418 0.0
O141 O 0.77465 0.62053 0.55937 0.0
O142 O 0.78896 0.64709 0.53741 0.0
In143 In 0.64946 0.51022 0.74893 0.0
O144 O 0.68406 0.48875 0.75299 0.0
O145 O 0.65201 0.46785 0.74985 0.0
C146 C 0.67239 0.55358 0.74493 0.0
C147 C 0.62249 0.50666 0.71126 0.0
C148 C 0.63173 0.51717 0.78929 0.0
O149 O 0.68161 0.53313 0.73993 0.0
O150 O 0.65104 0.5523 0.75086 0.0
O151 O 0.6185 0.5158 0.77199 0.0
O152 O 0.65367 0.5141 0.78628 0.0
C153 C 0.67448 0.46766 0.75214 0.0
O154 O 0.61416 0.50259 0.73005 0.0
O155 O 0.6443 0.51249 0.71154 0.0
In156 In 0.00808 0.80336 0.89833 0.0
O157 O 0.02879 0.80884 0.86714 0.0
O158 O 0.04321 0.82484 0.89685 0.0
C159 C 0.98202 0.77154 0.87335 0.0
C160 C 0.02635 0.77893 0.9338 0.0
C161 C 0.97698 0.83781 0.91187 0.0
O162 O 0.98495 0.7939 0.86794 0.0
O163 O 0.99229 0.7652 0.89133 0.0
O164 O 0.97409 0.81496 0.91499 0.0
O165 O 0.99521 0.8433 0.90117 0.0
C166 C 0.04544 0.82119 0.87638 0.0
O167 O 0.01277 0.79739 0.93543 0.0
O168 O 0.03173 0.77358 0.91425 0.0
In169 In 0.02551 0.26066 0.65595 0.0
O170 O 0.03125 0.28429 0.62482 0.0
O171 O 0.023 0.30334 0.65417 0.0
C172 C 0.02477 0.21659 0.63332 0.0
C173 C 0.06892 0.26201 0.67837 0.0
C174 C 0.98267 0.2604 0.6769 0.0
O175 O 0.01852 0.2369 0.6246 0.0
O176 O 0.0307 0.21827 0.65361 0.0
O177 O 0.00229 0.25501 0.68662 0.0
O178 O 0.98455 0.26541 0.65663 0.0
C179 C 0.02757 0.3049 0.6339 0.0
O180 O 0.04937 0.26507 0.6878 0.0
O181 O 0.06658 0.25851 0.65777 0.0
In182 In 0.50661 0.3024 0.3878 0.0
O183 O 0.52046 0.31905 0.35603 0.0
O184 O 0.54127 0.32418 0.38573 0.0
C185 C 0.46668 0.28172 0.37041 0.0
C186 C 0.53161 0.26147 0.39841 0.0
C187 C 0.48741 0.33109 0.41885 0.0
O188 O 0.47907 0.2968 0.35962 0.0
O189 O 0.47419 0.27766 0.38997 0.0
O190 O 0.4974 0.31069 0.42309 0.0
O191 O 0.4875 0.33757 0.39876 0.0
C192 C 0.53942 0.32748 0.36507 0.0
O193 O 0.53081 0.28002 0.41106 0.0
O194 O 0.52073 0.26412 0.37994 0.0
In195 In 0.52444 0.76017 0.15535 0.0
O196 O 0.52503 0.73822 0.12265 0.0
O197 O 0.52778 0.71781 0.15258 0.0
C198 C 0.5202 0.80358 0.13226 0.0
C199 C 0.48327 0.76082 0.17904 0.0
C200 C 0.56933 0.75855 0.17488 0.0
O201 O 0.52901 0.80236 0.15175 0.0
O202 O 0.51339 0.78297 0.12441 0.0
O203 O 0.56494 0.76786 0.15602 0.0
O204 O 0.55107 0.7503 0.18416 0.0
C205 C 0.52713 0.7172 0.13168 0.0
O206 O 0.50217 0.7718 0.18548 0.0
O207 O 0.48523 0.74941 0.16102 0.0
In208 In 0.90472 0.00866 0.79133 0.0
O209 O 0.93884 -0.00149 0.77397 0.0
O210 O 0.90774 0.00542 0.75391 0.0
C211 C 0.93697 0.01195 0.82514 0.0
C212 C 0.87846 0.05039 0.7916 0.0
C213 C 0.87574 0.96923 0.7946 0.0
O214 O 0.92864 0.99152 0.81823 0.0
O215 O 0.92876 0.03083 0.81516 0.0
O216 O 0.88624 0.97879 0.81136 0.0
O217 O 0.87948 0.97994 0.7765 0.0
C218 C 0.92943 -0.00076 0.75477 0.0
O219 O 0.87149 0.03046 0.80016 0.0
O220 O 0.89861 0.04928 0.78299 0.0
In221 In 0.78077 0.12507 0.49561 0.0
O222 O 0.80595 0.0946 0.48393 0.0
O223 O 0.81371 0.11132 0.51511 0.0
C224 C 0.74063 0.09759 0.49895 0.0
C225 C 0.77472 0.15599 0.52991 0.0
C226 C 0.78718 0.15188 0.4582 0.0
O227 O 0.75939 0.09335 0.51045 0.0
O228 O 0.74246 0.11494 0.48512 0.0
O229 O 0.78805 0.16147 0.47723 0.0
O230 O 0.78315 0.12892 0.45806 0.0
C231 C 0.81971 0.09568 0.50088 0.0
O232 O 0.75753 0.14851 0.51759 0.0
O233 O 0.79508 0.14875 0.5243 0.0
In234 In 0.65414 0.00271 0.30248 0.0
O235 O 0.69011 0.98258 0.3054 0.0
O236 O 0.65897 0.96116 0.29827 0.0
C237 C 0.67399 0.04809 0.30049 0.0
C238 C 0.6315 0.00636 0.26249 0.0
C239 C 0.6312 0.99806 0.34103 0.0
O240 O 0.68624 0.02882 0.30438 0.0
O241 O 0.65171 0.04455 0.29877 0.0
O242 O 0.62477 0.98664 0.32364 0.0
O243 O 0.64908 0.012 0.339 0.0
C244 C 0.68131 0.96142 0.30155 0.0
O245 O 0.62041 0.00718 0.28032 0.0
O246 O 0.65366 0.00276 0.26489 0.0
In247 In 0.78982 0.93116 0.02412 0.0
O248 O 0.75725 0.94783 0.00672 0.0
O249 O 0.75403 0.93548 0.04004 0.0
C250 C 0.81188 0.97465 0.01693 0.0
C251 C 0.81383 0.9101 0.05865 0.0
C252 C 0.78457 0.89225 0.99674 0.0
O253 O 0.79995 0.9705 0.03383 0.0
O254 O 0.81327 0.95658 0.00378 0.0
O255 O 0.77204 0.89515 0.0135 0.0
O256 O 0.79979 0.90914 0.99365 0.0
C257 C 0.74408 0.94525 0.02311 0.0
O258 O 0.81989 0.90732 0.03892 0.0
O259 O 0.79613 0.92412 0.06105 0.0
In260 In 0.27785 0.62606 0.99348 0.0
O261 O 0.27592 0.66035 0.01528 0.0
O262 O 0.27247 0.62499 0.03057 0.0
C263 C 0.28317 0.65541 0.95764 0.0
C264 C 0.31952 0.6007 0.99559 0.0
C265 C 0.23482 0.60332 0.99275 0.0
O266 O 0.28718 0.66288 0.97718 0.0
O267 O 0.27619 0.63321 0.95613 0.0
O268 O 0.25413 0.59137 0.99449 0.0
O269 O 0.23733 0.62635 0.99016 0.0
C270 C 0.27255 0.64826 0.03283 0.0
O271 O 0.30345 0.59644 0.98096 0.0
O272 O 0.31453 0.61752 0.00908 0.0
In273 In 0.15132 0.52051 0.80936 0.0
O274 O 0.17678 0.49192 0.82568 0.0
O275 O 0.16138 0.48363 0.79401 0.0
C276 C 0.17904 0.5613 0.81098 0.0
C277 C 0.12919 0.53142 0.77017 0.0
C278 C 0.12104 0.51913 0.84305 0.0
O279 O 0.18706 0.54014 0.80633 0.0
O280 O 0.15736 0.56162 0.81603 0.0
O281 O 0.11753 0.50678 0.8255 0.0
O282 O 0.14005 0.53176 0.84376 0.0
C283 C 0.17513 0.47682 0.80977 0.0
O284 O 0.11793 0.52291 0.78624 0.0
O285 O 0.15133 0.53367 0.77375 0.0
In286 In 0.27757 0.39234 0.51112 0.0
O287 O 0.28901 0.36094 0.5342 0.0
O288 O 0.2975 0.39772 0.54428 0.0
C289 C 0.25614 0.3578 0.48509 0.0
C290 C 0.24472 0.42458 0.52467 0.0
C291 C 0.30839 0.41863 0.48722 0.0
O292 O 0.27852 0.35886 0.4881 0.0
O293 O 0.2447 0.37417 0.49504 0.0
O294 O 0.28611 0.41951 0.48384 0.0
O295 O 0.3153 0.403 0.5016 0.0
C296 C 0.2985 0.37491 0.54874 0.0
O297 O 0.24595 0.40273 0.53215 0.0
O298 O 0.26035 0.43006 0.51101 0.0
In299 In 0.39958 0.50009 0.29025 0.0
O300 O 0.42974 0.50308 0.266 0.0
O301 O 0.39665 0.488 0.25422 0.0
C302 C 0.42686 0.5068 0.32738 0.0
C303 C 0.37509 0.54263 0.28563 0.0
C304 C 0.37704 0.4569 0.29735 0.0
O305 O 0.43368 0.49402 0.31134 0.0
O306 O 0.40621 0.51579 0.32486 0.0
O307 O 0.36594 0.47692 0.29396 0.0
O308 O 0.39947 0.45889 0.29803 0.0
C309 C 0.4179 0.49346 0.25007 0.0
O310 O 0.36536 0.52251 0.29106 0.0
O311 O 0.39717 0.54122 0.28222 0.0
C312 C 0.02526 0.0115 0.96959 0.0
N313 N 0.99126 0.03749 0.02513 0.0
C314 C 0.98766 0.05861 0.01313 0.0
C315 C 0.96613 0.07152 0.01439 0.0
C316 C 0.94838 0.06258 0.0282 0.0
C317 C 0.95379 0.04226 0.04208 0.0
C318 C 0.97533 0.02985 0.04014 0.0
Zn319 Zn 0.018 0.01368 0.018 0.0
C320 C -0.00045 0.96321 0.00878 0.0
N321 N 0.07372 0.96381 0.00258 0.0
C322 C 0.09053 0.97176 0.98854 0.0
C323 C 0.07676 0.94259 0.01453 0.0
C324 C 0.09863 0.93017 0.01467 0.0
C325 C 0.1174 0.93986 0.00245 0.0
C326 C 0.11254 0.95992 0.98809 0.0
Zn327 Zn 0.04693 0.98767 0.00953 0.0
O328 O 0.013 0.02174 0.98428 0.0
C329 C 0.06491 0.03853 0.01838 0.0
O330 O 0.04139 0.99604 0.9754 0.0
H331 H 0.063 0.93647 0.02543 0.0
H332 H 0.00072 0.06447 0.00142 0.0
H333 H 0.08775 0.98869 0.97923 0.0
O334 O 0.04283 0.04218 0.02107 0.0
O335 O 0.07228 0.01704 0.0135 0.0
H336 H 0.97844 0.01294 0.04939 0.0
O337 O 0.05207 0.97964 0.04331 0.0
O338 O 0.02365 0.00527 0.05215 0.0
O339 O 0.0216 0.95901 0.00621 0.0
O340 O 0.99277 0.98475 0.01408 0.0
C341 C 0.03988 0.98996 0.05801 0.0
H342 H 0.96275 0.08718 0.00351 0.0
H343 H 0.94062 0.03432 0.05273 0.0
H344 H 0.10151 0.91459 0.02575 0.0
H345 H 0.12638 0.96832 0.97849 0.0
C346 C 0.32407 0.76389 0.25609 0.0
N347 N 0.25875 0.74144 0.22633 0.0
C348 C 0.2644 0.75713 0.20966 0.0
C349 C 0.26131 0.74982 0.18763 0.0
C350 C 0.25279 0.72591 0.18262 0.0
C351 C 0.24568 0.71066 0.20011 0.0
C352 C 0.24875 0.71889 0.22197 0.0
Zn353 Zn 0.27059 0.75053 0.25765 0.0
C354 C 0.29231 0.70735 0.28098 0.0
N355 N 0.29928 0.77012 0.32142 0.0
C356 C 0.30871 0.79283 0.32619 0.0
C357 C 0.29379 0.75398 0.33781 0.0
C358 C 0.29642 0.76094 0.35995 0.0
C359 C 0.30435 0.78494 0.36538 0.0
C360 C 0.31135 0.80069 0.3482 0.0
Zn361 Zn 0.28761 0.76128 0.29 0.0
O362 O 0.30559 0.75697 0.24483 0.0
C363 C 0.26564 0.80433 0.26644 0.0
O364 O 0.32217 0.76807 0.27672 0.0
H365 H 0.28602 0.73614 0.33374 0.0
H366 H 0.27257 0.77487 0.2134 0.0
H367 H 0.31285 0.80542 0.31292 0.0
O368 O 0.261 0.78762 0.25215 0.0
O369 O 0.27721 0.79868 0.28419 0.0
H370 H 0.24442 0.70668 0.23546 0.0
O371 O 0.25285 0.75433 0.30293 0.0
O372 O 0.23584 0.74447 0.27091 0.0
O373 O 0.29783 0.72394 0.29516 0.0
O374 O 0.28021 0.71327 0.26363 0.0
C375 C 0.23417 0.74812 0.29164 0.0
H376 H 0.2665 0.76245 0.17471 0.0
H377 H 0.23917 0.69202 0.1971 0.0
H378 H 0.29128 0.74799 0.37264 0.0
H379 H 0.31742 0.81942 0.35156 0.0
C380 C 0.51868 0.02815 0.56666 0.0
N381 N 0.54918 0.96218 0.54551 0.0
C382 C 0.55768 0.96265 0.56685 0.0
C383 C 0.55859 0.94101 0.57934 0.0
C384 C 0.55176 0.91828 0.56956 0.0
C385 C 0.54551 0.91814 0.54674 0.0
C386 C 0.54381 0.94045 0.53512 0.0
Zn387 Zn 0.53932 0.99485 0.53136 0.0
C388 C 0.48627 0.9934 0.51991 0.0
N389 N 0.51495 0.06314 0.50535 0.0
C390 C 0.52382 0.084 0.51523 0.0
C391 C 0.50531 0.06354 0.48438 0.0
C392 C 0.50672 0.08499 0.47163 0.0
C393 C 0.518 0.10609 0.48072 0.0
C394 C 0.52545 0.10586 0.50315 0.0
Zn395 Zn 0.52417 0.03029 0.51923 0.0
O396 O 0.52933 0.00788 0.56306 0.0
C397 C 0.57742 0.03127 0.53104 0.0
O398 O 0.5142 0.04275 0.5506 0.0
H399 H 0.49844 0.04666 0.47687 0.0
H400 H 0.56231 0.98007 0.57471 0.0
H401 H 0.53151 0.08318 0.53188 0.0
O402 O 0.5741 0.00877 0.53618 0.0
O403 O 0.55967 0.04426 0.52437 0.0
H404 H 0.53709 0.94049 0.51812 0.0
O405 O 0.53411 0.01783 0.48784 0.0
O406 O 0.5491 0.98248 0.49934 0.0
O407 O 0.48906 0.01588 0.5142 0.0
O408 O 0.50431 0.9809 0.52665 0.0
C409 C 0.54467 0.99769 0.48365 0.0
H410 H 0.56337 0.94263 0.59677 0.0
H411 H 0.54108 0.90119 0.53798 0.0
H412 H 0.50072 0.08443 0.45439 0.0
H413 H 0.53371 0.12197 0.51091 0.0
C414 C 0.28919 0.22129 0.7694 0.0
N415 N 0.25347 0.24627 0.82485 0.0
C416 C 0.2416 0.2243 0.82339 0.0
C417 C 0.23351 0.2128 0.8424 0.0
C418 C 0.23732 0.22419 0.86316 0.0
C419 C 0.24853 0.24755 0.86396 0.0
C420 C 0.25673 0.25816 0.84456 0.0
Zn421 Zn 0.26782 0.2606 0.79711 0.0
C422 C 0.32027 0.27253 0.80433 0.0
N423 N 0.29799 0.28982 0.73914 0.0
C424 C 0.29375 0.27747 0.71979 0.0
C425 C 0.31095 0.31118 0.73991 0.0
C426 C 0.31964 0.32131 0.72048 0.0
C427 C 0.31514 0.30911 0.70025 0.0
C428 C 0.30231 0.28675 0.70008 0.0
Zn429 Zn 0.28375 0.27595 0.767 0.0
O430 O 0.27797 0.22435 0.78711 0.0
C431 C 0.23152 0.26366 0.75943 0.0
O432 O 0.29372 0.23998 0.75751 0.0
H433 H 0.31419 0.3206 0.75553 0.0
H434 H 0.23902 0.21526 0.80751 0.0
H435 H 0.28325 0.26063 0.71954 0.0
O436 O 0.23387 0.25692 0.77959 0.0
O437 O 0.2497 0.2721 0.74983 0.0
H438 H 0.26617 0.27566 0.84534 0.0
O439 O 0.2737 0.31189 0.77672 0.0
O440 O 0.25785 0.29712 0.80667 0.0
O441 O 0.31753 0.27956 0.78429 0.0
O442 O 0.3022 0.26423 0.81426 0.0
C443 C 0.26249 0.3155 0.79435 0.0
H444 H 0.22531 0.19467 0.84086 0.0
H445 H 0.25145 0.25733 0.87947 0.0
H446 H 0.32947 0.33862 0.72121 0.0
H447 H 0.29809 0.27705 0.68473 0.0
C448 C 0.0796 0.00129 0.52944 0.0
N449 N 0.04074 0.03605 0.47758 0.0
C450 C 0.06203 0.04671 0.4729 0.0
C451 C 0.06824 0.05008 0.45088 0.0
C452 C 0.05224 0.04262 0.4337 0.0
C453 C 0.02946 0.03425 0.43914 0.0
C454 C 0.02421 0.0307 0.46122 0.0
Zn455 Zn 0.03504 0.02099 0.50793 0.0
C456 C 0.02651 0.96525 0.50156 0.0
N457 N 0.0215 0.98493 0.56872 0.0
C458 C 0.03754 0.98962 0.58563 0.0
C459 C 0.00057 0.97301 0.57232 0.0
C460 C 0.99419 0.96733 0.59387 0.0
C461 C 0.00973 0.97356 0.61182 0.0
C462 C 0.0322 0.98363 0.60731 0.0
Zn463 Zn 0.02741 0.00055 0.53873 0.0
O464 O 0.07228 0.01364 0.51264 0.0
C465 C 0.0356 0.0563 0.54518 0.0
O466 O 0.06453 0.99377 0.54316 0.0
H467 H 0.98813 0.96927 0.55863 0.0
H468 H 0.07493 0.05085 0.48613 0.0
H469 H 0.054 -0.00069 0.58255 0.0
O470 O 0.03904 0.05615 0.52442 0.0
O471 O 0.03103 0.0359 0.55478 0.0
H472 H 0.00757 0.02181 0.46506 0.0
O473 O 0.99015 0.00755 0.53387 0.0
O474 O 0.99799 0.02811 0.50375 0.0
O475 O 0.02379 0.96546 0.5224 0.0
O476 O 0.03081 0.9856 0.4918 0.0
C477 C 0.98288 0.02022 0.51725 0.0
H478 H 0.08604 0.05659 0.44744 0.0
H479 H 0.01639 0.02881 0.42642 0.0
H480 H 0.9766 0.95971 0.5964 0.0
H481 H 0.04508 0.98812 0.62049 0.0
C482 C 0.27522 0.77627 0.72997 0.0
N483 N 0.33178 0.73607 0.76035 0.0
C484 C 0.3319 0.72204 0.74165 0.0
C485 C 0.3528 0.71011 0.73559 0.0
C486 C 0.37366 0.71233 0.74912 0.0
C487 C 0.37262 0.72615 0.76878 0.0
C488 C 0.35158 0.73819 0.7739 0.0
Zn489 Zn 0.30196 0.75478 0.76881 0.0
C490 C 0.31208 0.80839 0.77552 0.0
N491 N 0.24062 0.79422 0.78818 0.0
C492 C 0.21912 0.78994 0.77773 0.0
C493 C 0.24284 0.81016 0.80557 0.0
C494 C 0.22275 0.82176 0.81372 0.0
C495 C 0.20018 0.81688 0.80386 0.0
C496 C 0.19854 0.80118 0.78532 0.0
Zn497 Zn 0.26996 0.77533 0.77895 0.0
O498 O 0.29352 0.76322 0.73497 0.0
C499 C 0.26025 0.72152 0.77223 0.0
O500 O 0.26172 0.78325 0.74526 0.0
H501 H 0.26015 0.81335 0.81356 0.0
H502 H 0.3159 0.72048 0.73119 0.0
H503 H 0.21781 0.77717 0.76394 0.0
O504 O 0.28201 0.72185 0.767 0.0
O505 O 0.25005 0.74169 0.77725 0.0
H506 H 0.3512 0.74952 0.78863 0.0
O507 O 0.27828 0.76727 0.81268 0.0
O508 O 0.30959 0.74643 0.8027 0.0
O509 O 0.29023 0.80841 0.7805 0.0
O510 O 0.32197 0.78803 0.77069 0.0
C511 C 0.2961 0.7537 0.81785 0.0
H512 H 0.35275 0.69997 0.72013 0.0
H513 H 0.388 0.728 0.78001 0.0
H514 H 0.22478 0.83392 0.82792 0.0
H515 H 0.18142 0.79667 0.77743 0.0
C516 C 0.51709 0.96456 0.0447 0.0
N517 N 0.53637 0.03447 0.06949 0.0
C518 C 0.52248 0.02841 0.08674 0.0
C519 C 0.53111 0.03164 0.10851 0.0
C520 C 0.55429 0.04094 0.11241 0.0
C521 C 0.56733 0.0491 0.09435 0.0
C522 C 0.55792 0.04577 0.07287 0.0
Zn523 Zn 0.52812 0.01975 0.03911 0.0
C524 C 0.57198 0.997 0.0202 0.0
N525 N 0.51332 0.98453 0.97735 0.0
C526 C 0.49236 0.97202 0.9743 0.0
C527 C 0.52665 0.99122 0.95991 0.0
C528 C 0.51797 0.9873 0.93828 0.0
C529 C 0.49532 0.97656 0.93467 0.0
C530 C 0.48295 0.96784 0.95294 0.0
Zn531 Zn 0.52163 -0.00055 0.00754 0.0
O532 O 0.52107 0.98483 0.05496 0.0
C533 C 0.47796 0.02287 0.02589 0.0
O534 O 0.51611 0.96474 0.02362 0.0
H535 H 0.54318 0.00131 0.96273 0.0
H536 H 0.50551 0.01924 0.08366 0.0
H537 H 0.48208 0.96688 0.98843 0.0
O538 O 0.49232 0.03054 0.0411 0.0
O539 O 0.48545 0.00895 0.01071 0.0
H540 H 0.56865 0.05043 0.05891 0.0
O541 O 0.52738 0.03457 0.99175 0.0
O542 O 0.53492 0.0542 0.02298 0.0
O543 O 0.55768 0.99034 0.00456 0.0
O544 O 0.56412 0.00913 0.03639 0.0
C545 C 0.5326 0.05459 0.00195 0.0
H546 H 0.5206 0.02498 0.12202 0.0
H547 H 0.5852 0.05657 0.09677 0.0
H548 H 0.52799 0.99447 0.92465 0.0
H549 H 0.46554 0.95921 0.95078 0.0
C550 C 0.26076 0.19791 0.26644 0.0
N551 N 0.30945 0.23389 0.22767 0.0
C552 C 0.31917 0.21084 0.22724 0.0
C553 C 0.32458 0.19996 0.20719 0.0
C554 C 0.32008 0.21299 0.18734 0.0
C555 C 0.31308 0.23798 0.18858 0.0
C556 C 0.30761 0.24809 0.20909 0.0
Zn557 Zn 0.29054 0.24212 0.25483 0.0
C558 C 0.24243 0.26105 0.2423 0.0
N559 N 0.2486 0.25456 0.31108 0.0
C560 C 0.25207 0.24039 0.32952 0.0
C561 C 0.23315 0.27398 0.31081 0.0
C562 C 0.22145 0.28056 0.32992 0.0
C563 C 0.22649 0.26777 0.34984 0.0
C564 C 0.24146 0.24688 0.34921 0.0
Zn565 Zn 0.26835 0.24767 0.28409 0.0
O566 O 0.27536 0.2063 0.25271 0.0
C567 C 0.31695 0.22922 0.29632 0.0
O568 O 0.25481 0.21139 0.28254 0.0
H569 H 0.23051 0.28503 0.29601 0.0
H570 H 0.32035 0.19978 0.24217 0.0
H571 H 0.264 0.22468 0.3293 0.0
O572 O 0.31854 0.22914 0.27543 0.0
O573 O 0.2976 0.23614 0.30473 0.0
H574 H 0.29991 0.26642 0.20984 0.0
O575 O 0.28199 0.28405 0.28543 0.0
O576 O 0.30521 0.27801 0.25732 0.0
O577 O 0.23985 0.25929 0.26303 0.0
O578 O 0.26231 0.25536 0.23428 0.0
C579 C 0.29775 0.29201 0.27254 0.0
H580 H 0.32977 0.18065 0.20726 0.0
H581 H 0.30999 0.24896 0.17376 0.0
H582 H 0.20946 0.29626 0.32922 0.0
H583 H 0.24626 0.23641 0.36397 0.0
C584 C 0.5757 0.4995 0.03271 0.0
N585 N 0.54574 0.53774 0.97824 0.0
C586 C 0.56706 0.54986 0.97789 0.0
C587 C 0.57696 0.55597 0.95771 0.0
C588 C 0.5646 0.54979 0.93785 0.0
C589 C 0.54183 0.53906 0.93878 0.0
C590 C 0.53277 0.53298 0.95925 0.0
Zn591 Zn 0.53485 0.52167 0.00658 0.0
C592 C 0.52539 0.46684 -0.00179 0.0
N593 N 0.51215 0.48503 0.06422 0.0
C594 C 0.52411 0.49061 0.08355 0.0
C595 C 0.49181 0.4712 0.06388 0.0
C596 C 0.48186 0.46381 0.08369 0.0
C597 C 0.49306 0.47069 0.10393 0.0
C598 C 0.51488 0.48353 0.1037 0.0
Zn599 Zn 0.52311 0.50135 0.0361 0.0
O600 O 0.57089 0.51254 0.01561 0.0
C601 C 0.53275 0.55624 0.04443 0.0
O602 O 0.55881 0.49239 0.04467 0.0
H603 H 0.48266 0.46696 0.04827 0.0
H604 H 0.57703 0.55349 0.99321 0.0
H605 H 0.54018 0.50176 0.08342 0.0
O606 O 0.53806 0.55601 0.02411 0.0
O607 O 0.52632 0.53608 0.05343 0.0
H608 H 0.51605 0.52301 0.95987 0.0
O609 O 0.48746 0.51033 0.02744 0.0
O610 O 0.49856 0.53053 -0.00194 0.0
O611 O 0.51992 0.46705 0.01848 0.0
O612 O 0.5318 0.48702 0.98925 0.0
C613 C 0.48206 0.52321 0.01042 0.0
H614 H 0.59455 0.56434 0.95758 0.0
H615 H 0.53191 0.53368 0.92382 0.0
H616 H 0.46511 0.45372 0.08321 0.0
H617 H 0.52392 0.48951 0.11892 0.0
C618 C 0.77008 0.26703 0.22478 0.0
N619 N 0.8253 0.22545 0.2538 0.0
C620 C 0.82329 0.21046 0.23573 0.0
C621 C 0.84359 0.20025 0.22666 0.0
C622 C 0.86621 0.20553 0.23626 0.0
C623 C 0.86768 0.22003 0.25558 0.0
C624 C 0.84687 0.22991 0.2641 0.0
Zn625 Zn 0.79554 0.24361 0.26345 0.0
C626 C 0.80518 0.29719 0.27271 0.0
N627 N 0.73313 0.28214 0.28206 0.0
C628 C 0.71344 0.28002 0.26837 0.0
C629 C 0.73274 0.29588 0.30092 0.0
C630 C 0.71171 0.3076 0.30693 0.0
C631 C 0.69097 0.30539 0.29325 0.0
C632 C 0.69222 0.29175 0.27352 0.0
Zn633 Zn 0.76326 0.26392 0.2735 0.0
O634 O 0.78776 0.25322 0.22986 0.0
C635 C 0.75323 0.21047 0.26476 0.0
O636 O 0.75632 0.27383 0.23989 0.0
H637 H 0.74865 0.2974 0.31151 0.0
H638 H 0.80596 0.20715 0.22781 0.0
H639 H 0.71406 0.26897 0.25348 0.0
O640 O 0.77527 0.2104 0.2604 0.0
O641 O 0.74336 0.23076 0.26986 0.0
H642 H 0.84804 0.24193 0.27842 0.0
O643 O 0.77092 0.25397 0.307 0.0
O644 O 0.80312 0.23428 0.29711 0.0
O645 O 0.78323 0.29671 0.27728 0.0
O646 O 0.8153 0.27729 0.2668 0.0
C647 C 0.78912 0.24084 0.31217 0.0
H648 H 0.84166 0.18891 0.21191 0.0
H649 H 0.8848 0.22476 0.26336 0.0
H650 H 0.71157 0.31761 0.32246 0.0
H651 H 0.67689 0.28987 0.26223 0.0
C652 C 0.03335 0.46797 0.5495 0.0
N653 N 0.04662 0.53972 0.57386 0.0
C654 C 0.03282 0.53248 0.5908 0.0
C655 C 0.03905 0.53919 0.61252 0.0
C656 C 0.05969 0.55345 0.61679 0.0
C657 C 0.07253 0.56224 0.59881 0.0
C658 C 0.06568 0.55505 0.57734 0.0
Zn659 Zn 0.04108 0.52354 0.54377 0.0
C660 C 0.08631 0.50485 0.52624 0.0
N661 N 0.02946 0.48741 0.48185 0.0
C662 C 0.00998 0.47266 0.47832 0.0
C663 C 0.04278 0.49525 0.46478 0.0
C664 C 0.03544 0.49011 0.44296 0.0
C665 C 0.0142 0.47679 0.43873 0.0
C666 C 0.00203 0.46703 0.45675 0.0
Zn667 Zn 0.03536 0.5033 0.51211 0.0
O668 O 0.03689 0.48824 0.55987 0.0
C669 C 0.99024 0.52221 0.53005 0.0
O670 O 0.03173 0.46838 0.52843 0.0
H671 H 0.05814 0.50705 0.46798 0.0
H672 H 0.01777 0.52025 0.58763 0.0
H673 H -0.00032 0.46664 0.49215 0.0
O674 O 0.00447 0.53029 0.54518 0.0
O675 O 0.99839 0.50977 0.51417 0.0
H676 H 0.07634 0.5606 0.56359 0.0
O677 O 0.0387 0.53837 0.49613 0.0
O678 O 0.04532 0.55855 0.52719 0.0
O679 O 0.07254 0.49724 0.51049 0.0
O680 O 0.07767 0.51657 0.54228 0.0
C681 C 0.04276 0.55871 0.50616 0.0
H682 H 0.02877 0.53181 0.62589 0.0
H683 H 0.08838 0.57355 0.6014 0.0
H684 H 0.04529 0.49817 0.42961 0.0
H685 H 0.98578 0.45633 0.45419 0.0
C686 C 0.79537 0.70747 0.25507 0.0
N687 N 0.75926 0.7336 0.30984 0.0
C688 C 0.7433 0.71458 0.30852 0.0
C689 C 0.73293 0.7056 0.32764 0.0
C690 C 0.73919 0.71626 0.34826 0.0
C691 C 0.7555 0.73609 0.34898 0.0
C692 C 0.76526 0.74456 0.32951 0.0
Zn693 Zn 0.77418 0.74708 0.28222 0.0
C694 C 0.82625 0.75923 0.29 0.0
N695 N 0.80484 0.77677 0.22463 0.0
C696 C 0.80316 0.76454 0.20496 0.0
C697 C 0.81584 0.7992 0.22639 0.0
C698 C 0.82447 0.81085 0.2077 0.0
C699 C 0.82236 0.7991 0.18695 0.0
C700 C 0.81212 0.77525 0.1859 0.0
Zn701 Zn 0.78994 0.76244 0.25211 0.0
O702 O 0.78325 0.7108 0.27223 0.0
C703 C 0.73769 0.75063 0.2446 0.0
O704 O 0.80071 0.72605 0.24325 0.0
H705 H 0.81734 0.80847 0.24224 0.0
H706 H 0.7387 0.70626 0.29265 0.0
H707 H 0.79446 0.74664 0.20396 0.0
O708 O 0.74039 0.74471 0.26491 0.0
O709 O 0.75587 0.75793 0.23425 0.0
H710 H 0.77788 0.75975 0.33014 0.0
O711 O 0.77904 0.79855 0.2616 0.0
O712 O 0.76515 0.78328 0.29216 0.0
O713 O 0.82354 0.76698 0.27016 0.0
O714 O 0.80839 0.74975 0.29936 0.0
C715 C 0.76883 0.80182 0.2798 0.0
H716 H 0.72034 0.69038 0.3263 0.0
H717 H 0.76135 0.74452 0.36451 0.0
H718 H 0.83177 0.82934 0.20951 0.0
H719 H 0.81055 0.76511 0.17047 0.0
C720 C 0.82343 0.26613 0.75403 0.0
N721 N 0.75801 0.24354 0.72542 0.0
C722 C 0.76261 0.26004 0.70904 0.0
C723 C 0.75988 0.25327 0.6869 0.0
C724 C 0.75306 0.22899 0.68132 0.0
C725 C 0.74704 0.21268 0.69845 0.0
C726 C 0.74959 0.22042 0.72054 0.0
Zn727 Zn 0.76986 0.2534 0.75672 0.0
C728 C 0.79128 0.21172 0.78202 0.0
N729 N 0.79975 0.27699 0.81896 0.0
C730 C 0.81238 0.29842 0.82152 0.0
C731 C 0.7926 0.26385 0.83678 0.0
C732 C 0.79685 0.2729 0.85818 0.0
C733 C 0.80854 0.29574 0.86129 0.0
C734 C 0.81702 0.30817 0.84266 0.0
Zn735 Zn 0.78726 0.26633 0.78831 0.0
O736 O 0.80467 0.2591 0.74329 0.0
C737 C 0.76557 0.30807 0.76352 0.0
O738 O 0.82189 0.27134 0.77449 0.0
H739 H 0.78244 0.24694 0.83437 0.0
H740 H 0.76985 0.27812 0.71301 0.0
H741 H 0.81788 0.30857 0.8071 0.0
O742 O 0.76001 0.29054 0.75034 0.0
O743 O 0.77794 0.30338 0.78101 0.0
H744 H 0.74619 0.20748 0.73375 0.0
O745 O 0.75226 0.26116 0.80155 0.0
O746 O 0.73533 0.24774 0.77051 0.0
O747 O 0.79646 0.22926 0.79538 0.0
O748 O 0.77965 0.21639 0.76407 0.0
C749 C 0.73364 0.25354 0.79086 0.0
H750 H 0.7642 0.26667 0.67429 0.0
H751 H 0.74181 0.19372 0.69494 0.0
H752 H 0.78973 0.26282 0.872 0.0
H753 H 0.82638 0.32568 0.84434 0.0
C754 C 0.77261 0.70288 0.78177 0.0
N755 N 0.81249 0.7449 0.73847 0.0
C756 C 0.82153 0.72256 0.73273 0.0
C757 C 0.82588 0.7174 0.71068 0.0
C758 C 0.82104 0.73547 0.69436 0.0
C759 C 0.81363 0.75908 0.70106 0.0
C760 C 0.8093 0.76338 0.72334 0.0
Zn761 Zn 0.79977 0.74858 0.7693 0.0
C762 C 0.74987 0.76703 0.76683 0.0
N763 N 0.77084 0.75497 0.83309 0.0
C764 C 0.77769 0.73949 0.84993 0.0
C765 C 0.75854 0.77614 0.83696 0.0
C766 C 0.75422 0.78341 0.85855 0.0
C767 C 0.76295 0.76895 0.87635 0.0
C768 C 0.77401 0.74625 0.87188 0.0
Zn769 Zn 0.78363 0.75046 0.8022 0.0
O770 O 0.78453 0.71307 0.76675 0.0
C771 C 0.83346 0.73072 0.80381 0.0
O772 O 0.76978 0.71422 0.79993 0.0
H773 H 0.7536 0.7884 0.82341 0.0
H774 H 0.82394 0.70815 0.74505 0.0
H775 H 0.78741 0.72272 0.84647 0.0
O776 O 0.83117 0.73365 0.78302 0.0
O777 O 0.81641 0.73679 0.81604 0.0
H778 H 0.80214 0.78104 0.72834 0.0
O779 O 0.79735 0.78721 0.80402 0.0
O780 O 0.81437 0.78408 0.772 0.0
O781 O 0.75113 0.76342 0.78761 0.0
O782 O 0.76813 0.7632 0.75549 0.0
C783 C 0.80985 0.79673 0.78904 0.0
H784 H 0.83126 0.6988 0.70639 0.0
H785 H 0.81003 0.77368 0.68909 0.0
H786 H 0.74596 0.80124 0.86126 0.0
H787 H 0.7809 0.73457 0.88521 0.0
C788 C 0.51097 0.51614 0.47597 0.0
N789 N 0.47443 0.53362 0.53208 0.0
C790 C 0.46706 0.55209 0.51809 0.0
C791 C 0.44291 0.55437 0.5121 0.0
C792 C 0.42654 0.53784 0.52109 0.0
C793 C 0.43418 0.52232 0.53861 0.0
C794 C 0.45855 0.52034 0.54381 0.0
Zn795 Zn 0.50636 0.51767 0.52573 0.0
C796 C 0.50116 0.46377 0.51757 0.0
N797 N 0.57118 0.48466 0.50673 0.0
C798 C 0.58504 0.49646 0.49202 0.0
C799 C 0.57912 0.46424 0.51796 0.0
C800 C 0.60267 0.4563 0.51605 0.0
C801 C 0.6181 0.46966 0.50259 0.0
C802 C 0.60863 0.48923 0.48964 0.0
Zn803 Zn 0.53978 0.50068 0.51431 0.0
O804 O 0.49811 0.5225 0.49184 0.0
C805 C 0.54518 0.55454 0.52254 0.0
O806 O 0.53113 0.50621 0.48021 0.0
H807 H 0.56766 0.45503 0.52945 0.0
H808 H 0.48003 0.56248 0.509 0.0
H809 H 0.57832 0.51263 0.48326 0.0
O810 O 0.52333 0.55229 0.52715 0.0
O811 O 0.55678 0.53569 0.51647 0.0
H812 H 0.46484 0.50572 0.55479 0.0
O813 O 0.54793 0.4952 0.54819 0.0
O814 O 0.5151 0.51236 0.55979 0.0
O815 O 0.5229 0.46625 0.51273 0.0
O816 O 0.48944 0.48247 0.52375 0.0
C817 C 0.53501 0.50176 0.56403 0.0
H818 H 0.43757 0.56661 0.4986 0.0
H819 H 0.42203 0.50922 0.54588 0.0
H820 H 0.60914 0.44095 0.52612 0.0
H821 H 0.6198 0.50042 0.47928 0.0
C822 C 0.02314 0.52005 0.07117 0.0
N823 N 0.03924 0.46262 0.0281 0.0
C824 C 0.05468 0.45293 0.04366 0.0
C825 C 0.05595 0.4273 0.04668 0.0
C826 C 0.04099 0.41175 0.0337 0.0
C827 C 0.02626 0.42219 0.01697 0.0
C828 C 0.02574 0.44781 0.01438 0.0
Zn829 Zn 0.03234 0.49952 0.02715 0.0
C830 C 0.97794 0.50608 0.02442 0.0
N831 N 0.01244 0.57502 0.02344 0.0
C832 C 0.02552 0.58922 0.03803 0.0
C833 C 0.99837 0.58543 0.00718 0.0
C834 C 0.99838 0.61111 0.00424 0.0
C835 C 0.01312 0.62598 0.0181 0.0
C836 C 0.02611 0.61485 0.03565 0.0
Zn837 Zn 0.019 0.53799 0.02416 0.0
O838 O 0.03095 0.50048 0.06225 0.0
C839 C 0.07334 0.53155 0.02623 0.0
O840 O 0.01763 0.53849 0.05899 0.0
H841 H 0.98827 0.57375 0.9957 0.0
H842 H 0.06512 0.4651 0.05444 0.0
H843 H 0.03672 0.58059 0.05075 0.0
O844 O 0.06935 0.50849 0.02836 0.0
O845 O 0.05583 0.54645 0.0251 0.0
H846 H 0.0136 0.45591 0.0021 0.0
O847 O 0.02046 0.53703 0.98922 0.0
O848 O 0.03354 0.49887 0.99221 0.0
O849 O 0.98212 0.52915 0.02281 0.0
O850 O 0.99536 0.49106 0.0259 0.0
C851 C 0.02804 0.51745 0.98017 0.0
H852 H 0.06739 0.41985 0.05988 0.0
H853 H 0.01462 0.41071 0.00657 0.0
H854 H 0.98826 0.61904 0.99037 0.0
H855 H 0.03752 0.62574 0.04677 0.0
H856 H 0.07673 0.12553 0.11814 0.0
H857 H 0.09969 0.18049 0.07134 0.0
H858 H 0.08757 0.09276 0.09271 0.0
H859 H 0.11042 0.14757 0.04576 0.0
H860 H 0.06258 0.08618 0.00512 0.0
H861 H 0.07808 0.12104 0.02669 0.0
H862 H 0.11837 0.07067 0.06913 0.0
H863 H 0.1031 0.03568 0.04703 0.0
C864 C 0.08463 0.13056 0.10264 0.0
C865 C 0.08686 0.15547 0.09646 0.0
C866 C 0.09117 0.1118 0.0882 0.0
C867 C 0.0998 0.11767 0.06724 0.0
C868 C 0.10382 0.1426 0.06182 0.0
C869 C 0.09754 0.16137 0.0764 0.0
C870 C 0.07584 0.08274 0.01825 0.0
C871 C 0.08155 0.05845 0.02464 0.0
C872 C 0.08478 0.10267 0.03062 0.0
C873 C 0.09907 0.09845 0.04982 0.0
C874 C 0.10725 0.07432 0.05446 0.0
C875 C 0.09865 0.05436 0.04176 0.0
H876 H 0.08433 0.73274 0.33085 0.0
H877 H 0.11884 0.77881 0.38081 0.0
H878 H 0.12211 0.72868 0.31217 0.0
H879 H 0.15638 0.77564 0.36182 0.0
H880 H 0.22605 0.74793 0.33603 0.0
H881 H 0.18807 0.74926 0.35428 0.0
H882 H 0.15069 0.7485 0.29047 0.0
H883 H 0.18891 0.74621 0.27223 0.0
C884 C 0.09996 0.74218 0.33777 0.0
C885 C 0.09851 0.75605 0.3574 0.0
C886 C 0.12169 0.73997 0.32696 0.0
C887 C 0.14261 0.75171 0.33539 0.0
C888 C 0.14096 0.76582 0.35494 0.0
C889 C 0.1193 0.76785 0.36581 0.0
C890 C 0.20974 0.74782 0.32585 0.0
C891 C 0.21066 0.74696 0.3026 0.0
C892 C 0.18783 0.74885 0.33636 0.0
C893 C 0.16602 0.74933 0.32399 0.0
C894 C 0.16694 0.74792 0.30069 0.0
C895 C 0.18893 0.74667 0.29016 0.0
H896 H 0.50759 0.77831 0.62932 0.0
H897 H 0.57804 0.7933 0.65723 0.0
H898 H 0.50654 0.81946 0.61262 0.0
H899 H 0.57859 0.83275 0.63873 0.0
H900 H 0.57573 0.9066 0.60905 0.0
H901 H 0.56945 0.8718 0.63277 0.0
H902 H 0.51962 0.84066 0.58382 0.0
H903 H 0.52255 0.87761 0.56203 0.0
C904 C 0.52275 0.7906 0.63194 0.0
C905 C 0.5428 0.78289 0.64456 0.0
C906 C 0.52244 0.81403 0.62206 0.0
C907 C 0.5427 0.82964 0.62374 0.0
C908 C 0.56235 0.82193 0.63721 0.0
C909 C 0.56217 0.79907 0.64782 0.0
C910 C 0.5628 0.89285 0.60351 0.0
C911 C 0.54969 0.89541 0.58333 0.0
C912 C 0.5596 0.87229 0.61706 0.0
C913 C 0.54419 0.85285 0.61036 0.0
C914 C 0.53133 0.85522 0.59004 0.0
C915 C 0.53364 0.87636 0.577 0.0
H916 H 0.47368 0.25452 0.83017 0.0
H917 H 0.44696 0.27134 0.8946 0.0
H918 H 0.43322 0.25772 0.81397 0.0
H919 H 0.40661 0.27513 0.87842 0.0
H920 H 0.33361 0.2551 0.84574 0.0
H921 H 0.37384 0.2521 0.86239 0.0
H922 H 0.4024 0.28685 0.80452 0.0
H923 H 0.36229 0.28931 0.78771 0.0
C924 C 0.45918 0.25896 0.84088 0.0
C925 C 0.46363 0.26264 0.8637 0.0
C926 C 0.43593 0.26099 0.83157 0.0
C927 C 0.41645 0.26678 0.84481 0.0
C928 C 0.42098 0.27033 0.86767 0.0
C929 C 0.44421 0.26829 0.87697 0.0
C930 C 0.34844 0.26226 0.83661 0.0
C931 C 0.34458 0.27244 0.81533 0.0
C932 C 0.3716 0.26061 0.84621 0.0
C933 C 0.39159 0.2691 0.83482 0.0
C934 C 0.38762 0.27968 0.81369 0.0
C935 C 0.3645 0.28131 0.8041 0.0
H936 H 0.05028 0.84966 0.40328 0.0
H937 H 0.00983 0.81255 0.453 0.0
H938 H 0.04879 0.8881 0.42444 0.0
H939 H 0.00734 0.85109 0.47374 0.0
H940 H 0.02714 0.91755 0.51749 0.0
H941 H 0.0285 0.8791 0.49642 0.0
H942 H 0.02483 0.92099 0.43536 0.0
H943 H 0.02452 0.95936 0.45651 0.0
C944 C 0.04087 0.84977 0.41865 0.0
C945 C 0.03023 0.82799 0.42645 0.0
C946 C 0.03984 0.87191 0.43078 0.0
C947 C 0.02791 0.87298 0.45096 0.0
C948 C 0.01709 0.85111 0.45857 0.0
C949 C 0.01836 0.82895 0.44656 0.0
C950 C 0.02652 0.91854 0.49956 0.0
C951 C 0.02575 0.94162 0.48875 0.0
C952 C 0.02719 0.8964 0.48739 0.0
C953 C 0.02684 0.89666 0.46402 0.0
C954 C 0.02564 0.91983 0.45327 0.0
C955 C 0.02523 0.94195 0.46544 0.0
H956 H 0.52265 0.68468 0.72392 0.0
H957 H 0.48251 0.67719 0.66186 0.0
H958 H 0.48557 0.68267 0.7439 0.0
H959 H 0.44547 0.67527 0.68188 0.0
H960 H 0.38174 0.66898 0.72633 0.0
H961 H 0.41954 0.65497 0.71148 0.0
H962 H 0.45552 0.71793 0.74158 0.0
H963 H 0.41814 0.73254 0.75542 0.0
C964 C 0.50599 0.68186 0.71459 0.0
C965 C 0.50536 0.68165 0.69133 0.0
C966 C 0.4848 0.68073 0.72603 0.0
C967 C 0.4627 0.67922 0.71438 0.0
C968 C 0.46228 0.67637 0.69126 0.0
C969 C 0.48348 0.67763 0.6798 0.0
C970 C 0.39773 0.6798 0.72981 0.0
C971 C 0.39677 0.70196 0.74207 0.0
C972 C 0.41935 0.67163 0.72148 0.0
C973 C 0.44043 0.68523 0.72561 0.0
C974 C 0.43965 0.70674 0.73859 0.0
C975 C 0.41811 0.7151 0.74657 0.0
H976 H 0.51322 0.17161 0.90318 0.0
H977 H 0.55629 0.20645 0.95501 0.0
H978 H 0.51337 0.13303 0.92427 0.0
H979 H 0.55736 0.1677 0.97575 0.0
H980 H 0.53432 0.10212 0.01814 0.0
H981 H 0.53474 0.14073 0.99719 0.0
H982 H 0.53658 0.09909 0.93615 0.0
H983 H 0.53518 0.06059 0.95709 0.0
C984 C 0.5229 0.17096 0.91901 0.0
C985 C 0.53469 0.19214 0.92742 0.0
C986 C 0.52316 0.14874 0.93109 0.0
C987 C 0.53542 0.14701 0.95184 0.0
C988 C 0.54736 0.16826 0.96009 0.0
C989 C 0.5469 0.19052 0.9481 0.0
C990 C 0.53495 0.10122 0.00025 0.0
C991 C 0.53468 0.0782 0.98934 0.0
C992 C 0.5353 0.12343 0.98817 0.0
C993 C 0.53561 0.12326 0.96483 0.0
C994 C 0.53584 0.10014 0.95401 0.0
C995 C 0.53526 0.07797 0.96607 0.0
H996 H 0.10146 0.27531 0.1746 0.0
H997 H 0.13482 0.20424 0.16451 0.0
H998 H 0.1385 0.29051 0.19302 0.0
H999 H 0.17159 0.21951 0.18234 0.0
H1000 H 0.23965 0.25694 0.19734 0.0
H1001 H 0.20313 0.25491 0.17427 0.0
H1002 H 0.16162 0.27446 0.23052 0.0
H1003 H 0.1981 0.27638 0.25382 0.0
C1004 C 0.11672 0.26306 0.17623 0.0
C1005 C 0.11535 0.23859 0.16833 0.0
C1006 C 0.1378 0.27176 0.18663 0.0
C1007 C 0.15782 0.25624 0.18869 0.0
C1008 C 0.15646 0.23193 0.18054 0.0
C1009 C 0.13537 0.22312 0.17059 0.0
C1010 C 0.22285 0.26153 0.20468 0.0
C1011 C 0.22162 0.26621 0.22749 0.0
C1012 C 0.202 0.26037 0.19146 0.0
C1013 C 0.17973 0.26419 0.20081 0.0
C1014 C 0.17868 0.27148 0.22302 0.0
C1015 C 0.19952 0.27241 0.23634 0.0
H1016 H 0.10888 0.95205 0.18519 0.0
H1017 H 0.08648 0.02844 0.18888 0.0
H1018 H 0.08637 0.94739 0.15014 0.0
H1019 H 0.0648 0.02417 0.15348 0.0
H1020 H 0.01774 0.00845 0.09421 0.0
H1021 H 0.03199 0.00622 0.13282 0.0
H1022 H 0.09153 0.96123 0.11335 0.0
H1023 H 0.07688 0.96267 0.07518 0.0
C1024 C 0.09908 0.96781 0.17851 0.0
C1025 C 0.09959 0.99067 0.18959 0.0
C1026 C 0.08625 0.96519 0.15841 0.0
C1027 C 0.07391 0.98545 0.14889 0.0
C1028 C 0.07379 0.00807 0.16045 0.0
C1029 C 0.08641 0.01061 0.18065 0.0
C1030 C 0.03361 0.99771 0.09829 0.0
C1031 C 0.04631 0.98595 0.08163 0.0
C1032 C 0.04187 0.99656 0.12038 0.0
C1033 C 0.06305 0.98377 0.12617 0.0
C1034 C 0.07501 0.971 0.10959 0.0
C1035 C 0.06667 0.97198 0.08761 0.0
H1036 H 0.25101 0.85252 0.48322 0.0
H1037 H 0.32663 0.84602 0.49871 0.0
H1038 H 0.2564 0.83139 0.44808 0.0
H1039 H 0.33197 0.82426 0.46387 0.0
H1040 H 0.33571 0.81578 0.38808 0.0
H1041 H 0.33122 0.83365 0.42478 0.0
H1042 H 0.2658 0.79223 0.43185 0.0
H1043 H 0.26956 0.77549 0.39486 0.0
C1044 C 0.26871 0.84623 0.47925 0.0
C1045 C 0.28839 0.85097 0.49364 0.0
C1046 C 0.27182 0.83403 0.45916 0.0
C1047 C 0.29466 0.8262 0.45312 0.0
C1048 C 0.31422 0.83039 0.46785 0.0
C1049 C 0.31113 0.84269 0.48788 0.0
C1050 C 0.32036 0.81054 0.39746 0.0
C1051 C 0.30303 0.79419 0.38848 0.0
C1052 C 0.31791 0.82056 0.4186 0.0
C1053 C 0.29809 0.81442 0.43124 0.0
C1054 C 0.28111 0.7976 0.42247 0.0
C1055 C 0.28349 0.7877 0.40134 0.0
H1056 H 0.41231 0.0315 0.66359 0.0
H1057 H 0.47683 0.02965 0.7049 0.0
H1058 H 0.43628 0.03588 0.63077 0.0
H1059 H 0.50076 0.03412 0.6721 0.0
H1060 H 0.52962 0.00389 0.60528 0.0
H1061 H 0.50879 0.00663 0.63994 0.0
H1062 H 0.4645 0.06527 0.61251 0.0
H1063 H 0.48532 0.06254 0.5777 0.0
C1064 C 0.43159 0.0322 0.66566 0.0
C1065 C 0.44271 0.03007 0.68676 0.0
C1066 C 0.4453 0.03491 0.6469 0.0
C1067 C 0.47039 0.03537 0.6489 0.0
C1068 C 0.48147 0.03365 0.67006 0.0
C1069 C 0.46776 0.03114 0.68882 0.0
C1070 C 0.51575 0.01771 0.60677 0.0
C1071 C 0.50901 0.03289 0.58871 0.0
C1072 C 0.50387 0.01932 0.62665 0.0
C1073 C 0.48488 0.03601 0.62883 0.0
C1074 C 0.47889 0.05203 0.61116 0.0
C1075 C 0.49095 0.0506 0.59132 0.0
H1076 H 0.22856 0.10055 0.94816 0.0
H1077 H 0.23448 0.16046 0.99549 0.0
H1078 H 0.22111 0.13054 0.9184 0.0
H1079 H 0.22709 0.19035 0.96573 0.0
H1080 H 0.2624 0.22492 0.90285 0.0
H1081 H 0.25624 0.19943 0.93516 0.0
H1082 H 0.19428 0.16603 0.90276 0.0
H1083 H 0.19966 0.19253 0.87045 0.0
C1084 C 0.22765 0.12005 0.95227 0.0
C1085 C 0.23248 0.12822 0.97405 0.0
C1086 C 0.22326 0.1372 0.93527 0.0
C1087 C 0.22381 0.16273 0.9398 0.0
C1088 C 0.22683 0.17076 0.96182 0.0
C1089 C 0.23101 0.15364 0.97882 0.0
C1090 C 0.24693 0.21287 0.90274 0.0
C1091 C 0.23161 0.21079 0.88387 0.0
C1092 C 0.24346 0.19815 0.92132 0.0
C1093 C 0.2248 0.18076 0.92141 0.0
C1094 C 0.20889 0.17922 0.903 0.0
C1095 C 0.21212 0.19427 0.88447 0.0
H1096 H 0.07525 0.00197 0.2963 0.0
H1097 H 0.14387 0.02578 0.32359 0.0
H1098 H 0.05669 0.0134 0.33083 0.0
H1099 H 0.12539 0.03686 0.35816 0.0
H1100 H 0.08081 0.07407 0.41033 0.0
H1101 H 0.0968 0.06686 0.37366 0.0
H1102 H 0.0582 0.99757 0.36901 0.0
H1103 H 0.04257 0.00448 0.40536 0.0
C1104 C 0.08636 0.00952 0.30971 0.0
C1105 C 0.111 0.01283 0.30736 0.0
C1106 C 0.07575 0.01608 0.32944 0.0
C1107 C 0.0896 0.0261 0.34713 0.0
C1108 C 0.11422 0.02954 0.34468 0.0
C1109 C 0.12483 0.02293 0.32499 0.0
C1110 C 0.07566 0.05741 0.40137 0.0
C1111 C 0.06026 0.03999 0.41069 0.0
C1112 C 0.08481 0.05327 0.38044 0.0
C1113 C 0.07868 0.03167 0.3685 0.0
C1114 C 0.06288 0.0146 0.37762 0.0
C1115 C 0.05385 0.01866 0.39847 0.0
H1116 H 0.27364 0.88502 0.6284 0.0
H1117 H 0.27104 0.81826 0.58896 0.0
H1118 H 0.27068 0.86025 0.66202 0.0
H1119 H 0.26834 0.79338 0.62278 0.0
H1120 H 0.29914 0.76398 0.69267 0.0
H1121 H 0.29665 0.78483 0.65668 0.0
H1122 H 0.24047 0.83174 0.67995 0.0
H1123 H 0.24274 0.81094 0.71578 0.0
C1124 C 0.27233 0.86505 0.62692 0.0
C1125 C 0.27258 0.85356 0.60608 0.0
C1126 C 0.2705 0.85088 0.64615 0.0
C1127 C 0.2692 0.8249 0.64498 0.0
C1128 C 0.26938 0.81338 0.62413 0.0
C1129 C 0.27084 0.8276 0.60482 0.0
C1130 C 0.28595 0.77841 0.68996 0.0
C1131 C 0.27127 0.78591 0.70716 0.0
C1132 C 0.2845 0.7903 0.66935 0.0
C1133 C 0.26855 0.81007 0.66564 0.0
C1134 C 0.25312 0.81676 0.68246 0.0
C1135 C 0.25436 0.80472 0.70294 0.0
H1136 H 0.39842 0.99515 0.81948 0.0
H1137 H 0.46753 0.02065 0.79936 0.0
H1138 H 0.41585 0.98264 0.85523 0.0
H1139 H 0.4849 0.009 0.83546 0.0
H1140 H 0.51391 0.96569 0.89442 0.0
H1141 H 0.49553 0.97365 0.85781 0.0
H1142 H 0.43188 0.00022 0.88857 0.0
H1143 H 0.45 0.99177 0.92487 0.0
C1144 C 0.4173 0.99838 0.82284 0.0
C1145 C 0.43162 0.00897 0.80671 0.0
C1146 C 0.42729 0.99123 0.84333 0.0
C1147 C 0.4518 0.99474 0.84822 0.0
C1148 C 0.46606 0.00559 0.8321 0.0
C1149 C 0.45608 0.01254 0.81152 0.0
C1150 C 0.49587 0.97291 0.89325 0.0
C1151 C 0.48335 0.97799 0.91247 0.0
C1152 C 0.48541 0.97765 0.87234 0.0
C1153 C 0.4623 0.98778 0.87026 0.0
C1154 C 0.44955 0.99209 0.88951 0.0
C1155 C 0.45993 0.98717 0.91036 0.0
H1156 H 0.32018 0.1056 0.07827 0.0
H1157 H 0.24682 0.12467 0.08989 0.0
H1158 H 0.33369 0.13501 0.10651 0.0
H1159 H 0.26016 0.15314 0.11908 0.0
H1160 H 0.28756 0.22005 0.15307 0.0
H1161 H 0.27833 0.19219 0.12264 0.0
H1162 H 0.33666 0.14463 0.14424 0.0
H1163 H 0.34732 0.17377 0.17361 0.0
C1164 C 0.30691 0.11562 0.08733 0.0
C1165 C 0.28244 0.11292 0.08191 0.0
C1166 C 0.31466 0.13253 0.10351 0.0
C1167 C 0.29807 0.14681 0.11486 0.0
C1168 C 0.2735 0.14305 0.1102 0.0
C1169 C 0.26578 0.12646 0.09373 0.0
C1170 C 0.29908 0.20421 0.15092 0.0
C1171 C 0.31806 0.19908 0.16609 0.0
C1172 C 0.29337 0.18783 0.1337 0.0
C1173 C 0.3062 0.16568 0.1314 0.0
C1174 C 0.32625 0.16141 0.14555 0.0
C1175 C 0.33225 0.17806 0.16256 0.0
H1176 H 0.25806 0.99329 0.00881 0.0
H1177 H 0.20701 0.02631 0.05186 0.0
H1178 H 0.23416 0.9553 0.00702 0.0
H1179 H 0.18321 0.98878 0.05004 0.0
H1180 H 0.15589 0.93627 0.97553 0.0
H1181 H 0.19555 0.95034 0.98715 0.0
H1182 H 0.17655 0.94452 0.05564 0.0
H1183 H 0.13658 0.93176 0.04407 0.0
C1184 C 0.24205 0.99219 0.01833 0.0
C1185 C 0.23404 0.01287 0.03009 0.0
C1186 C 0.22844 0.97043 0.01734 0.0
C1187 C 0.20674 0.969 0.02827 0.0
C1188 C 0.19998 0.98901 0.04163 0.0
C1189 C 0.21344 0.01074 0.04246 0.0
C1190 C 0.16049 0.93696 0.9931 0.0
C1191 C 0.1427 0.9343 0.00879 0.0
C1192 C 0.18336 0.94487 -0.00019 0.0
C1193 C 0.18871 0.94974 0.02232 0.0
C1194 C 0.17257 0.94177 0.03813 0.0
C1195 C 0.14962 0.93418 0.03142 0.0
H1196 H 0.69334 0.39999 0.04897 0.0
H1197 H 0.72953 0.47077 0.04897 0.0
H1198 H 0.65484 0.42107 0.04683 0.0
H1199 H 0.69085 0.49191 0.04674 0.0
H1200 H 0.61659 0.51274 0.012 0.0
H1201 H 0.65648 0.49508 0.01794 0.0
H1202 H 0.63036 0.44921 0.07049 0.0
H1203 H 0.59058 0.46675 0.06467 0.0
C1204 C 0.69305 0.42006 0.04862 0.0
C1205 C 0.7144 0.43375 0.04913 0.0
C1206 C 0.67102 0.43212 0.04752 0.0
C1207 C 0.66989 0.45812 0.04667 0.0
C1208 C 0.69125 0.47185 0.04726 0.0
C1209 C 0.71332 0.45976 0.04863 0.0
C1210 C 0.61943 0.49912 0.02501 0.0
C1211 C 0.60038 0.49101 0.03775 0.0
C1212 C 0.64228 0.48909 0.02845 0.0
C1213 C 0.64641 0.47064 0.04454 0.0
C1214 C 0.62758 0.46319 0.05779 0.0
C1215 C 0.60483 0.47334 0.0545 0.0
H1216 H 0.88524 0.42216 0.22511 0.0
H1217 H 0.8577 0.44905 0.28653 0.0
H1218 H 0.86657 0.38193 0.23134 0.0
H1219 H 0.8395 0.40877 0.29302 0.0
H1220 H 0.78817 0.3428 0.28347 0.0
H1221 H 0.80741 0.38276 0.27856 0.0
H1222 H 0.87051 0.34601 0.25584 0.0
H1223 H 0.85103 0.3059 0.2603 0.0
C1224 C 0.87516 0.41948 0.2399 0.0
C1225 C 0.87285 0.43876 0.25528 0.0
C1226 C 0.86466 0.39638 0.24359 0.0
C1227 C 0.85166 0.3921 0.26275 0.0
C1228 C 0.84919 0.41152 0.278 0.0
C1229 C 0.85965 0.43459 0.2743 0.0
C1230 C 0.80625 0.34318 0.27764 0.0
C1231 C 0.81805 0.32115 0.27222 0.0
C1232 C 0.81731 0.36613 0.27489 0.0
C1233 C 0.84043 0.36759 0.26667 0.0
C1234 C 0.85252 0.34552 0.26185 0.0
C1235 C 0.84145 0.32253 0.26462 0.0
H1236 H 0.85476 0.58558 0.49036 0.0
H1237 H 0.84646 0.56854 0.55961 0.0
H1238 H 0.89441 0.56666 0.4921 0.0
H1239 H 0.88566 0.54919 0.5612 0.0
H1240 H 0.95556 0.51144 0.49856 0.0
H1241 H 0.91435 0.52616 0.49712 0.0
H1242 H 0.92674 0.5636 0.55972 0.0
H1243 H 0.9676 0.54855 0.56144 0.0
C1244 C 0.86138 0.57768 0.50588 0.0
C1245 C 0.84771 0.57867 0.52488 0.0
C1246 C 0.88393 0.56669 0.50683 0.0
C1247 C 0.89307 0.5565 0.5268 0.0
C1248 C 0.87918 0.5572 0.54568 0.0
C1249 C 0.85673 0.56822 0.54474 0.0
C1250 C 0.94937 0.52254 0.51214 0.0
C1251 C 0.9648 0.52892 0.53008 0.0
C1252 C 0.92587 0.53111 0.51121 0.0
C1253 C 0.91744 0.54612 0.52824 0.0
C1254 C 0.93268 0.55185 0.54647 0.0
C1255 C 0.95613 0.54331 0.5474 0.0
H1256 H 0.15052 0.0895 0.24648 0.0
H1257 H 0.21379 0.04786 0.23149 0.0
H1258 H 0.17473 0.12659 0.25217 0.0
H1259 H 0.23816 0.08508 0.23754 0.0
H1260 H 0.26857 0.16539 0.2328 0.0
H1261 H 0.24594 0.12785 0.22369 0.0
H1262 H 0.20419 0.13828 0.28177 0.0
H1263 H 0.22647 0.17594 0.29075 0.0
C1264 C 0.16958 0.08836 0.24412 0.0
C1265 C 0.18034 0.06579 0.23875 0.0
C1266 C 0.18345 0.10954 0.24758 0.0
C1267 C 0.20835 0.10854 0.24577 0.0
C1268 C 0.21899 0.08632 0.23908 0.0
C1269 C 0.20506 0.06507 0.2356 0.0
C1270 C 0.25471 0.15953 0.24375 0.0
C1271 C 0.24917 0.17371 0.26243 0.0
C1272 C 0.24181 0.13803 0.23852 0.0
C1273 C 0.2231 0.13041 0.25183 0.0
C1274 C 0.21819 0.14406 0.27095 0.0
C1275 C 0.2311 0.16549 0.2762 0.0
H1276 H 0.33368 0.97033 0.53865 0.0
H1277 H 0.36557 0.89786 0.5454 0.0
H1278 H 0.37287 0.98801 0.53106 0.0
H1279 H 0.40404 0.91483 0.53637 0.0
H1280 H 0.44375 0.00917 0.50042 0.0
H1281 H 0.40388 0.99204 0.50603 0.0
H1282 H 0.43489 0.93772 0.55118 0.0
H1283 H 0.47423 0.95363 0.54443 0.0
C1284 C 0.34908 0.95822 0.53843 0.0
C1285 C 0.34672 0.93284 0.543 0.0
C1286 C 0.37149 0.96825 0.53383 0.0
C1287 C 0.39184 0.95295 0.53325 0.0
C1288 C 0.3891 0.92744 0.53732 0.0
C1289 C 0.36694 0.91761 0.54243 0.0
C1290 C 0.44192 0.9933 0.51123 0.0
C1291 C 0.46215 0.98255 0.52171 0.0
C1292 C 0.41907 0.98364 0.51467 0.0
C1293 C 0.416 0.96333 0.52901 0.0
C1294 C 0.43638 0.95283 0.53952 0.0
C1295 C 0.45909 0.96208 0.53571 0.0
H1296 H 0.83607 0.55085 0.24574 0.0
H1297 H 0.90093 0.59425 0.24531 0.0
H1298 H 0.81244 0.58895 0.24501 0.0
H1299 H 0.87737 0.63225 0.24464 0.0
H1300 H 0.82825 0.69538 0.22443 0.0
H1301 H 0.84856 0.65576 0.22024 0.0
H1302 H 0.80573 0.62397 0.27115 0.0
H1303 H 0.78532 0.6635 0.27533 0.0
C1304 C 0.84526 0.56852 0.24538 0.0
C1305 C 0.87035 0.56959 0.24565 0.0
C1306 C 0.83174 0.59031 0.24504 0.0
C1307 C 0.84304 0.61359 0.24472 0.0
C1308 C 0.86812 0.61459 0.24459 0.0
C1309 C 0.88163 0.59284 0.24514 0.0
C1310 C 0.82289 0.67985 0.23449 0.0
C1311 C 0.80527 0.68266 0.25033 0.0
C1312 C 0.83465 0.65721 0.23219 0.0
C1313 C 0.8289 0.63683 0.24551 0.0
C1314 C 0.81047 0.63928 0.26056 0.0
C1315 C 0.79884 0.66198 0.263 0.0
H1316 H 0.72242 0.46365 0.76001 0.0
H1317 H 0.65868 0.42009 0.74677 0.0
H1318 H 0.74634 0.42591 0.76125 0.0
H1319 H 0.68264 0.38229 0.74818 0.0
H1320 H 0.73537 0.32282 0.72968 0.0
H1321 H 0.71422 0.36211 0.7262 0.0
H1322 H 0.75103 0.38873 0.78559 0.0
H1323 H 0.77238 0.34948 0.78907 0.0
C1324 C 0.71353 0.44599 0.75741 0.0
C1325 C 0.6887 0.44475 0.7533 0.0
C1326 C 0.72722 0.42442 0.75819 0.0
C1327 C 0.71635 0.40123 0.75472 0.0
C1328 C 0.69151 0.39998 0.75061 0.0
C1329 C 0.67779 0.42156 0.74997 0.0
C1330 C 0.73922 0.33716 0.74184 0.0
C1331 C 0.75543 0.33299 0.75974 0.0
C1332 C 0.72696 0.35957 0.73992 0.0
C1333 C 0.73077 0.3783 0.75578 0.0
C1334 C 0.74781 0.37461 0.77309 0.0
C1335 C 0.76 0.35213 0.77508 0.0
H1336 H 0.97511 0.88751 0.9043 0.0
H1337 H 0.94979 0.83026 0.94771 0.0
H1338 H 0.96603 0.9187 0.93186 0.0
H1339 H 0.94133 0.8615 0.97555 0.0
H1340 H 0.95836 0.97099 0.98492 0.0
H1341 H 0.93794 0.94006 0.96141 0.0
H1342 H 0.98132 0.88261 0.99202 0.0
H1343 H 0.00225 0.91352 0.01478 0.0
C1344 C 0.96663 0.88173 0.91932 0.0
C1345 C 0.96373 0.85652 0.92416 0.0
C1346 C 0.96124 0.89959 0.93505 0.0
C1347 C 0.95332 0.89237 0.95592 0.0
C1348 C 0.94746 0.86745 0.95957 0.0
C1349 C 0.95239 0.84961 0.94364 0.0
C1350 C 0.96268 0.95159 0.98733 0.0
C1351 C 0.98202 0.9445 0.00136 0.0
C1352 C 0.951 0.93396 0.97389 0.0
C1353 C 0.95816 0.90907 0.97487 0.0
C1354 C 0.9753 0.90166 0.99109 0.0
C1355 C 0.98739 0.91932 0.00404 0.0
H1356 H 0.9389 0.27428 0.65954 0.0
H1357 H 0.97382 0.24928 0.72029 0.0
H1358 H 0.90109 0.27704 0.67819 0.0
H1359 H 0.93581 0.25135 0.73893 0.0
H1360 H 0.86792 0.27909 0.77155 0.0
H1361 H 0.90619 0.27833 0.75322 0.0
H1362 H 0.87033 0.2528 0.69297 0.0
H1363 H 0.83225 0.25422 0.71103 0.0
C1364 C 0.93848 0.26919 0.67688 0.0
C1365 C 0.95946 0.26148 0.68835 0.0
C1366 C 0.91669 0.27065 0.68761 0.0
C1367 C 0.91513 0.26436 0.71018 0.0
C1368 C 0.9362 0.25668 0.72166 0.0
C1369 C 0.95804 0.25529 0.71091 0.0
C1370 C 0.86819 0.2735 0.75434 0.0
C1371 C 0.84686 0.26681 0.74282 0.0
C1372 C 0.89023 0.27285 0.74383 0.0
C1373 C 0.8916 0.26547 0.72149 0.0
C1374 C 0.87016 0.25898 0.71001 0.0
C1375 C 0.8482 0.25967 0.72047 0.0
H1376 H 0.52649 0.21705 0.3774 0.0
H1377 H 0.55388 0.25082 0.43801 0.0
H1378 H 0.52798 0.17647 0.3952 0.0
H1379 H 0.55518 0.21035 0.45579 0.0
H1380 H 0.55996 0.13177 0.48077 0.0
H1381 H 0.57016 0.16698 0.45759 0.0
H1382 H 0.50051 0.16277 0.42471 0.0
H1383 H 0.49018 0.12773 0.44803 0.0
C1384 C 0.53358 0.21571 0.39428 0.0
C1385 C 0.5396 0.23708 0.40652 0.0
C1386 C 0.53424 0.19253 0.40449 0.0
C1387 C 0.54114 0.19043 0.42698 0.0
C1388 C 0.54974 0.21145 0.43843 0.0
C1389 C 0.54896 0.23464 0.42826 0.0
C1390 C 0.54675 0.1385 0.46871 0.0
C1391 C 0.52409 0.12729 0.46645 0.0
C1392 C 0.55271 0.15845 0.45531 0.0
C1393 C 0.5362 0.16747 0.43931 0.0
C1394 C 0.51378 0.15586 0.43664 0.0
C1395 C 0.50778 0.13595 0.45009 0.0
H1396 H 0.60975 0.78203 0.16149 0.0
H1397 H 0.5848 0.73144 0.21096 0.0
H1398 H 0.65007 0.77972 0.17789 0.0
H1399 H 0.62528 0.728 0.2268 0.0
H1400 H 0.69488 0.74544 0.26449 0.0
H1401 H 0.6549 0.74752 0.24782 0.0
H1402 H 0.68478 0.75656 0.18325 0.0
H1403 H 0.72496 0.7557 0.2003 0.0
C1404 C 0.61293 0.77024 0.17581 0.0
C1405 C 0.59398 0.75703 0.18497 0.0
C1406 C 0.6362 0.76871 0.18516 0.0
C1407 C 0.64131 0.75363 0.20381 0.0
C1408 C 0.62224 0.74023 0.21278 0.0
C1409 C 0.59893 0.74206 0.20361 0.0
C1410 C 0.69298 0.74777 0.2467 0.0
C1411 C 0.71328 0.75038 0.23378 0.0
C1412 C 0.66989 0.74881 0.23704 0.0
C1413 C 0.66622 0.75217 0.21403 0.0
C1414 C 0.68662 0.75441 0.20104 0.0
C1415 C 0.70978 0.75369 0.2108 0.0
H1416 H 0.04156 0.17155 0.64777 0.0
H1417 H 0.01155 0.20833 0.58981 0.0
H1418 H 0.04552 0.13345 0.62652 0.0
H1419 H 0.01481 0.17003 0.56862 0.0
H1420 H 0.02631 0.06234 0.58901 0.0
H1421 H 0.02351 0.10061 0.6099 0.0
H1422 H 0.0421 0.14239 0.55191 0.0
H1423 H 0.0442 0.10389 0.53074 0.0
C1424 C 0.03558 0.17144 0.63052 0.0
C1425 C 0.02617 0.19302 0.62054 0.0
C1426 C 0.03776 0.1495 0.61829 0.0
C1427 C 0.03049 0.14844 0.59572 0.0
C1428 C 0.02097 0.17009 0.58581 0.0
C1429 C 0.01888 0.19206 0.59803 0.0
C1430 C 0.02994 0.07964 0.58066 0.0
C1431 C 0.03551 0.0799 0.55811 0.0
C1432 C 0.02844 0.10171 0.59275 0.0
C1433 C 0.03256 0.12483 0.58273 0.0
C1434 C 0.03843 0.12507 0.5602 0.0
C1435 C 0.03986 0.10293 0.54806 0.0
H1436 H 0.58313 0.34306 0.38078 0.0
H1437 H 0.54183 0.33014 0.32011 0.0
H1438 H 0.61953 0.34497 0.35989 0.0
H1439 H 0.57827 0.33233 0.29919 0.0
H1440 H 0.64667 0.28474 0.28724 0.0
H1441 H 0.6092 0.29915 0.30113 0.0
H1442 H 0.64473 0.36305 0.33008 0.0
H1443 H 0.68259 0.34902 0.31542 0.0
C1444 C 0.58173 0.3415 0.3629 0.0
C1445 C 0.55975 0.33588 0.35211 0.0
C1446 C 0.60258 0.34272 0.35092 0.0
C1447 C 0.60175 0.33829 0.32798 0.0
C1448 C 0.57942 0.33538 0.31693 0.0
C1449 C 0.55857 0.33422 0.32889 0.0
C1450 C 0.64654 0.3023 0.29591 0.0
C1451 C 0.66777 0.31567 0.30019 0.0
C1452 C 0.62495 0.31058 0.30389 0.0
C1453 C 0.624 0.33232 0.31658 0.0
C1454 C 0.64499 0.34619 0.32037 0.0
C1455 C 0.66667 0.33803 0.31213 0.0
H1456 H 0.49772 0.8117 0.09188 0.0
H1457 H 0.53871 0.84888 0.1438 0.0
H1458 H 0.49502 0.85036 0.07095 0.0
H1459 H 0.53688 0.8873 0.12262 0.0
H1460 H 0.5131 0.95854 0.08945 0.0
H1461 H 0.51225 0.92004 0.11043 0.0
H1462 H 0.51697 0.87838 0.04964 0.0
H1463 H 0.51688 0.91697 0.02862 0.0
C1464 C 0.50625 0.82813 0.09879 0.0
C1465 C 0.5184 0.82718 0.11954 0.0
C1466 C 0.50485 0.85033 0.0867 0.0
C1467 C 0.51573 0.87219 0.09496 0.0
C1468 C 0.52787 0.87112 0.11579 0.0
C1469 C 0.52909 0.84898 0.12793 0.0
C1470 C 0.51375 0.94116 0.08052 0.0
C1471 C 0.51508 0.94093 0.0573 0.0
C1472 C 0.51348 0.91899 0.09261 0.0
C1473 C 0.51476 0.89587 0.08188 0.0
C1474 C 0.51565 0.89568 0.05858 0.0
C1475 C 0.5157 0.91788 0.04646 0.0
H1476 H 0.96569 0.77717 0.83091 0.0
H1477 H 0.96141 0.72896 0.88776 0.0
H1478 H 0.93242 0.75529 0.8129 0.0
H1479 H 0.92777 0.707 0.8697 0.0
H1480 H 0.84634 0.7275 0.84774 0.0
H1481 H 0.88696 0.72644 0.86329 0.0
H1482 H 0.91399 0.71599 0.79784 0.0
H1483 H 0.87334 0.71721 0.78216 0.0
C1484 C 0.95801 0.76144 0.83927 0.0
C1485 C 0.96571 0.75501 0.86082 0.0
C1486 C 0.93913 0.74871 0.82888 0.0
C1487 C 0.92745 0.72954 0.84001 0.0
C1488 C 0.93645 0.72178 0.86085 0.0
C1489 C 0.95564 0.73433 0.87114 0.0
C1490 C 0.86086 0.72418 0.83674 0.0
C1491 C 0.85677 0.72329 0.81369 0.0
C1492 C 0.88414 0.72332 0.84567 0.0
C1493 C 0.90358 0.72159 0.83166 0.0
C1494 C 0.89927 0.71769 0.80891 0.0
C1495 C 0.87601 0.7185 0.79997 0.0
H1496 H 0.95717 0.0537 0.84313 0.0
H1497 H 0.95682 0.97387 0.84878 0.0
H1498 H 0.98445 0.05637 0.87551 0.0
H1499 H 0.98364 0.97654 0.88128 0.0
H1500 H 0.04034 0.98563 0.93371 0.0
H1501 H 0.02371 0.98794 0.89582 0.0
H1502 H 0.97848 0.0486 0.91477 0.0
H1503 H 0.99529 0.04663 0.9523 0.0
C1504 C 0.96307 0.03674 0.8512 0.0
C1505 C 0.95469 0.01359 0.84366 0.0
C1506 C 0.97866 0.03827 0.8697 0.0
C1507 C 0.98613 0.01667 0.88094 0.0
C1508 C 0.97849 0.99349 0.87279 0.0
C1509 C 0.96292 0.99197 0.85432 0.0
C1510 C 0.02728 -0.00017 0.92961 0.0
C1511 C 0.01885 0.0157 0.94602 0.0
C1512 C 0.01767 0.00105 0.90798 0.0
C1513 C -0.0004 0.01824 0.90242 0.0
C1514 C 0.9925 0.03526 0.91848 0.0
C1515 C 0.00202 0.034 0.94005 0.0
H1516 H 0.7326 0.17266 0.54579 0.0
H1517 H 0.80852 0.17004 0.56088 0.0
H1518 H 0.72624 0.19204 0.58165 0.0
H1519 H 0.80217 0.18872 0.59684 0.0
H1520 H 0.78703 0.24109 0.65184 0.0
H1521 H 0.79093 0.22639 0.61428 0.0
H1522 H 0.72799 0.18086 0.62071 0.0
H1523 H 0.72323 0.19678 0.65818 0.0
C1524 C 0.74794 0.17642 0.5567 0.0
C1525 C 0.77106 0.16991 0.55053 0.0
C1526 C 0.74427 0.18729 0.57731 0.0
C1527 C 0.76367 0.19185 0.59216 0.0
C1528 C 0.78685 0.18581 0.5857 0.0
C1529 C 0.79051 0.17503 0.5651 0.0
C1530 C 0.77363 0.2284 0.64516 0.0
C1531 C 0.75466 0.22029 0.65805 0.0
C1532 C 0.77612 0.21966 0.62367 0.0
C1533 C 0.75989 0.20233 0.61451 0.0
C1534 C 0.74069 0.19441 0.62721 0.0
C1535 C 0.73811 0.2033 0.64877 0.0
H1536 H 0.59988 0.96175 0.35258 0.0
H1537 H 0.63387 0.02894 0.37661 0.0
H1538 H 0.57777 0.9588 0.38689 0.0
H1539 H 0.6114 0.02622 0.41052 0.0
H1540 H 0.54209 0.03005 0.44918 0.0
H1541 H 0.56306 0.02802 0.4147 0.0
H1542 H 0.59019 0.9557 0.43247 0.0
H1543 H 0.5695 0.95777 0.46768 0.0
C1544 C 0.60264 0.97583 0.3652 0.0
C1545 C 0.61849 0.99566 0.36193 0.0
C1546 C 0.59011 0.97404 0.3848 0.0
C1547 C 0.59289 0.99233 0.40118 0.0
C1548 C 0.60892 0.01196 0.39802 0.0
C1549 C 0.62178 0.01349 0.37867 0.0
C1550 C 0.55223 0.01349 0.44576 0.0
C1551 C 0.55426 0.99411 0.46133 0.0
C1552 C 0.56431 0.01245 0.42602 0.0
C1553 C 0.57839 0.99187 0.42116 0.0
C1554 C 0.57942 0.97178 0.43597 0.0
C1555 C 0.56757 0.97297 0.45604 0.0
H1556 H 0.83683 0.86599 0.05584 0.0
H1557 H 0.81317 0.92035 0.10273 0.0
H1558 H 0.8458 0.83714 0.08632 0.0
H1559 H 0.82296 0.89175 0.13318 0.0
H1560 H 0.85797 0.83392 0.18169 0.0
H1561 H 0.86265 0.86154 0.15006 0.0
H1562 H 0.8072 0.82187 0.11363 0.0
H1563 H 0.80095 0.79551 0.14546 0.0
C1564 C 0.83437 0.87208 0.0727 0.0
C1565 C 0.82415 0.89526 0.07702 0.0
C1566 C 0.83949 0.85559 0.09005 0.0
C1567 C 0.8351 0.86241 0.11192 0.0
C1568 C 0.8267 0.8863 0.11639 0.0
C1569 C 0.82102 0.90255 0.09902 0.0
C1570 C 0.8467 0.83101 0.167 0.0
C1571 C 0.82873 0.81263 0.16645 0.0
C1572 C 0.84966 0.84665 0.14885 0.0
C1573 C 0.83532 0.84364 0.12959 0.0
C1574 C 0.81866 0.82425 0.12831 0.0
C1575 C 0.81522 0.80905 0.1466 0.0
H1576 H 0.91076 0.9889 0.71364 0.0
H1577 H 0.97752 0.99415 0.75144 0.0
H1578 H 0.93252 0.97811 0.68062 0.0
H1579 H -0.00072 0.98365 0.71827 0.0
H1580 H 0.02035 0.00622 0.64538 0.0
H1581 H 0.00283 0.00848 0.68139 0.0
H1582 H 0.96104 0.94294 0.66655 0.0
H1583 H 0.97955 0.93965 0.63059 0.0
C1584 C 0.93007 0.98769 0.71487 0.0
C1585 C 0.94252 0.99255 0.73497 0.0
C1586 C 0.94246 0.98126 0.69608 0.0
C1587 C 0.9675 0.97994 0.69705 0.0
C1588 C 0.97995 0.98454 0.7172 0.0
C1589 C 0.96753 0.99059 0.73608 0.0
C1590 C 0.00816 0.99164 0.64993 0.0
C1591 C 0.0014 0.97272 0.63491 0.0
C1592 C 0.998 0.9931 0.67059 0.0
C1593 C 0.98056 0.97597 0.67659 0.0
C1594 C 0.97436 0.95649 0.66211 0.0
C1595 C 0.98486 0.95472 0.64152 0.0
H1596 H 0.78918 0.20228 0.45361 0.0
H1597 H 0.79176 0.13407 0.4164 0.0
H1598 H 0.79248 0.22598 0.41925 0.0
H1599 H 0.79506 0.15767 0.38219 0.0
H1600 H 0.82134 0.20615 0.32713 0.0
H1601 H 0.82329 0.18611 0.36336 0.0
H1602 H 0.76629 0.23302 0.38506 0.0
H1603 H 0.76431 0.25317 0.34884 0.0
C1604 C 0.7906 0.19237 0.43812 0.0
C1605 C 0.79015 0.16633 0.43767 0.0
C1606 C 0.7924 0.20593 0.41847 0.0
C1607 C 0.79409 0.19369 0.39804 0.0
C1608 C 0.7941 0.16764 0.3977 0.0
C1609 C 0.79204 0.15412 0.41728 0.0
C1610 C 0.80946 0.21249 0.33972 0.0
C1611 C 0.79255 0.23116 0.33503 0.0
C1612 C 0.81049 0.20088 0.36042 0.0
C1613 C 0.79479 0.20783 0.37697 0.0
C1614 C 0.7787 0.22735 0.37268 0.0
C1615 C 0.77752 0.23882 0.35189 0.0
H1616 H 0.65335 0.0187 0.22469 0.0
H1617 H 0.58376 0.00609 0.25122 0.0
H1618 H 0.63487 0.02952 0.18906 0.0
H1619 H 0.56507 0.0156 0.21506 0.0
H1620 H 0.53731 0.05487 0.1526 0.0
H1621 H 0.55598 0.04742 0.18924 0.0
H1622 H 0.61547 0.01181 0.1584 0.0
H1623 H 0.59734 0.02028 0.12216 0.0
C1624 C 0.63406 0.01785 0.22276 0.0
C1625 C 0.61998 0.01139 0.24064 0.0
C1626 C 0.62342 0.02397 0.20228 0.0
C1627 C 0.59842 0.02332 0.19903 0.0
C1628 C 0.58434 0.0167 0.21699 0.0
C1629 C 0.59502 0.01098 0.23765 0.0
C1630 C 0.55454 0.04577 0.1538 0.0
C1631 C 0.56606 0.03848 0.1346 0.0
C1632 C 0.56514 0.04127 0.17475 0.0
C1633 C 0.58729 0.029 0.17686 0.0
C1634 C 0.59873 0.02182 0.15752 0.0
C1635 C 0.58833 0.02667 0.13668 0.0
H1636 H 0.74903 0.85767 0.99677 0.0
H1637 H 0.81307 0.87833 0.96331 0.0
H1638 H 0.74307 0.8228 0.97131 0.0
H1639 H 0.80711 0.84351 0.93795 0.0
H1640 H 0.80131 0.77025 0.90514 0.0
H1641 H 0.8065 0.79675 0.93764 0.0
H1642 H 0.73291 0.81996 0.93017 0.0
H1643 H 0.72759 0.79313 0.89778 0.0
C1644 C 0.76191 0.85464 0.98408 0.0
C1645 C 0.78146 0.87074 0.9819 0.0
C1646 C 0.75847 0.83473 0.96954 0.0
C1647 C 0.77469 0.8304 0.95278 0.0
C1648 C 0.79452 0.8462 0.95095 0.0
C1649 C 0.79782 0.86624 0.96532 0.0
C1650 C 0.786 0.78029 0.9109 0.0
C1651 C 0.76407 0.77978 0.89886 0.0
C1652 C 0.78907 0.79568 0.92934 0.0
C1653 C 0.77023 0.81068 0.93615 0.0
C1654 C 0.74773 0.80857 0.92527 0.0
C1655 C 0.7447 0.79331 0.90672 0.0
H1656 H 0.80729 0.01749 0.04034 0.0
H1657 H 0.84476 0.98517 0.98619 0.0
H1658 H 0.83307 0.05394 0.03925 0.0
H1659 H 0.87104 0.02078 0.98557 0.0
H1660 H 0.91427 0.06875 0.05924 0.0
H1661 H 0.87284 0.05762 0.05235 0.0
H1662 H 0.88264 0.06251 0.98179 0.0
H1663 H 0.92457 0.07188 0.98877 0.0
C1664 C 0.82082 0.01838 0.02798 0.0
C1665 C 0.82452 0.99828 0.01373 0.0
C1666 C 0.83555 0.03928 0.02732 0.0
C1667 C 0.85446 0.04025 0.01262 0.0
C1668 C 0.85659 0.021 0.99703 0.0
C1669 C 0.84171 0.00029 0.99754 0.0
C1670 C 0.90735 0.06838 0.04227 0.0
C1671 C 0.92297 0.06973 0.0246 0.0
C1672 C 0.88342 0.06214 0.03824 0.0
C1673 C 0.87474 0.05775 0.01643 0.0
C1674 C 0.88912 0.0646 -0.0012 0.0
C1675 C 0.91319 0.07035 0.00284 0.0
H1676 H 0.33899 0.57147 0.96393 0.0
H1677 H 0.35186 0.59996 0.03011 0.0
H1678 H 0.37777 0.55034 0.96609 0.0
H1679 H 0.39026 0.5787 0.03232 0.0
H1680 H 0.44454 0.51662 0.03734 0.0
H1681 H 0.40437 0.53346 0.03269 0.0
H1682 H 0.42249 0.56463 0.96961 0.0
H1683 H 0.46299 0.5479 0.97424 0.0
C1684 C 0.35003 0.57308 0.97894 0.0
C1685 C 0.34247 0.58732 0.99686 0.0
C1686 C 0.37219 0.5611 0.98013 0.0
C1687 C 0.38688 0.56284 -0.0006 0.0
C1688 C 0.37915 0.57686 0.01736 0.0
C1689 C 0.35724 0.58911 0.01605 0.0
C1690 C 0.43996 0.52681 0.02233 0.0
C1691 C 0.45703 0.53111 0.00623 0.0
C1692 C 0.41697 0.53652 0.01974 0.0
C1693 C 0.41045 0.55049 0.00089 0.0
C1694 C 0.42709 0.55384 0.98426 0.0
C1695 C 0.45026 0.54435 0.98697 0.0
H1696 H 0.21899 0.56652 0.78715 0.0
H1697 H 0.16922 0.60787 0.82565 0.0
H1698 H 0.23798 0.60489 0.77613 0.0
H1699 H 0.18905 0.64638 0.81573 0.0
H1700 H 0.21241 0.71284 0.77642 0.0
H1701 H 0.19336 0.67378 0.78604 0.0
H1702 H 0.26228 0.63763 0.7872 0.0
H1703 H 0.28089 0.67614 0.77639 0.0
C1704 C 0.21251 0.58384 0.79372 0.0
C1705 C 0.19267 0.58424 0.80728 0.0
C1706 C 0.22342 0.60591 0.78742 0.0
C1707 C 0.215 0.6289 0.79487 0.0
C1708 C 0.19568 0.62914 0.80919 0.0
C1709 C 0.1845 0.60705 0.81515 0.0
C1710 C 0.22335 0.6964 0.77837 0.0
C1711 C 0.2481 0.69754 0.77551 0.0
C1712 C 0.21252 0.67406 0.78418 0.0
C1713 C 0.22627 0.65247 0.78766 0.0
C1714 C 0.25098 0.65365 0.78435 0.0
C1715 C 0.26171 0.67582 0.77816 0.0
H1716 H 0.20958 0.41854 0.55446 0.0
H1717 H 0.23459 0.46811 0.50396 0.0
H1718 H 0.17286 0.44286 0.55647 0.0
H1719 H 0.19779 0.492 0.50578 0.0
H1720 H 0.11328 0.49014 0.49192 0.0
H1721 H 0.15444 0.47509 0.49417 0.0
H1722 H 0.1576 0.48891 0.56461 0.0
H1723 H 0.11661 0.50442 0.56241 0.0
C1724 C 0.20744 0.43488 0.54416 0.0
C1725 C 0.22474 0.44132 0.52892 0.0
C1726 C 0.18653 0.44879 0.54536 0.0
C1727 C 0.18261 0.46907 0.53112 0.0
C1728 C 0.20047 0.47631 0.51678 0.0
C1729 C 0.22148 0.46267 0.51582 0.0
C1730 C 0.1229 0.49033 0.5078 0.0
C1731 C 0.11179 0.49833 0.52698 0.0
C1732 C 0.14641 0.48186 0.50907 0.0
C1733 C 0.15898 0.4809 0.52958 0.0
C1734 C 0.14814 0.4895 0.54866 0.0
C1735 C 0.12479 0.49842 0.54733 0.0
H1736 H 0.87139 0.9382 0.83 0.0
H1737 H 0.84964 0.94766 0.76117 0.0
H1738 H 0.85378 0.89669 0.8296 0.0
H1739 H 0.8317 0.90654 0.7609 0.0
H1740 H 0.8362 0.82237 0.75969 0.0
H1741 H 0.84959 0.86514 0.76233 0.0
H1742 H 0.81605 0.87248 0.82534 0.0
H1743 H 0.80286 0.82933 0.82292 0.0
C1744 C 0.86243 0.93159 0.81495 0.0
C1745 C 0.86209 0.94596 0.79555 0.0
C1746 C 0.85232 0.90789 0.81473 0.0
C1747 C 0.84172 0.89828 0.79511 0.0
C1748 C 0.84023 0.91328 0.77611 0.0
C1749 C 0.85036 0.93687 0.77631 0.0
C1750 C 0.83168 0.83304 0.77414 0.0
C1751 C 0.81844 0.82249 0.79107 0.0
C1752 C 0.83919 0.85761 0.77556 0.0
C1753 C 0.83361 0.87221 0.79392 0.0
C1754 C 0.82065 0.86161 0.81104 0.0
C1755 C 0.81307 0.83696 0.80961 0.0
H1756 H 0.6983 0.10353 0.476 0.0
H1757 H 0.73077 0.06496 0.532 0.0
H1758 H 0.65931 0.08735 0.48547 0.0
H1759 H 0.69164 0.04924 0.54185 0.0
H1760 H 0.61966 0.00659 0.53784 0.0
H1761 H 0.65961 0.02151 0.53008 0.0
H1762 H 0.63061 0.09368 0.51386 0.0
H1763 H 0.59061 0.07861 0.52106 0.0
C1764 C 0.69711 0.09145 0.49026 0.0
C1765 C 0.71756 0.08552 0.50326 0.0
C1766 C 0.67474 0.0824 0.49584 0.0
C1767 C 0.67229 0.06731 0.51463 0.0
C1768 C 0.6929 0.06073 0.52723 0.0
C1769 C 0.71532 0.06973 0.52159 0.0
C1770 C 0.62185 0.02575 0.53294 0.0
C1771 C 0.60193 0.04137 0.52994 0.0
C1772 C 0.64477 0.0343 0.5285 0.0
C1773 C 0.64827 0.05867 0.52102 0.0
C1774 C 0.62846 0.07462 0.51907 0.0
C1775 C 0.60556 0.06606 0.52344 0.0
H1776 H 0.20212 0.45509 0.84319 0.0
H1777 H 0.17901 0.44581 0.7747 0.0
H1778 H 0.22539 0.41671 0.84121 0.0
H1779 H 0.20218 0.40779 0.77275 0.0
H1780 H 0.26577 0.35718 0.76909 0.0
H1781 H 0.2459 0.39671 0.77431 0.0
H1782 H 0.21753 0.37009 0.83548 0.0
H1783 H 0.23746 0.33027 0.83034 0.0
C1784 C 0.202 0.44485 0.82776 0.0
C1785 C 0.18879 0.45344 0.80909 0.0
C1786 C 0.21524 0.42291 0.82666 0.0
C1787 C 0.21575 0.40942 0.80678 0.0
C1788 C 0.20242 0.418 0.7882 0.0
C1789 C 0.18902 0.43969 0.78937 0.0
C1790 C 0.25557 0.35977 0.78383 0.0
C1791 C 0.25303 0.34045 0.7992 0.0
C1792 C 0.24408 0.3824 0.78673 0.0
C1793 C 0.22993 0.38634 0.80515 0.0
C1794 C 0.22837 0.36755 0.82115 0.0
C1795 C 0.23973 0.34475 0.81816 0.0
H1796 H 0.32683 0.54922 0.28565 0.0
H1797 H 0.39366 0.58916 0.28342 0.0
H1798 H 0.30511 0.58855 0.28556 0.0
H1799 H 0.37194 0.62838 0.28355 0.0
H1800 H 0.32684 0.69137 0.31051 0.0
H1801 H 0.346 0.6508 0.31178 0.0
H1802 H 0.29876 0.62551 0.25845 0.0
H1803 H 0.2796 0.66618 0.25697 0.0
C1804 C 0.33684 0.56639 0.28508 0.0
C1805 C 0.3619 0.5662 0.28454 0.0
C1806 C 0.32442 0.58882 0.28499 0.0
C1807 C 0.33691 0.61139 0.28472 0.0
C1808 C 0.36195 0.61118 0.28404 0.0
C1809 C 0.37433 0.58878 0.2838 0.0
C1810 C 0.32031 0.67708 0.29924 0.0
C1811 C 0.3018 0.68199 0.28356 0.0
C1812 C 0.3314 0.65395 0.29988 0.0
C1813 C 0.32396 0.6352 0.28507 0.0
C1814 C 0.30475 0.63969 0.27007 0.0
C1815 C 0.29386 0.66295 0.26921 0.0
H1816 H 0.57375 0.6973 0.58052 0.0
H1817 H 0.59392 0.63651 0.62382 0.0
H1818 H 0.57416 0.66951 0.54868 0.0
H1819 H 0.5943 0.60879 0.59202 0.0
H1820 H 0.59221 0.56088 0.53434 0.0
H1821 H 0.60919 0.59664 0.55418 0.0
H1822 H 0.54285 0.6362 0.54311 0.0
H1823 H 0.5259 0.60057 0.52358 0.0
C1824 C 0.57892 0.67816 0.58315 0.0
C1825 C 0.58325 0.66885 0.60466 0.0
C1826 C 0.57922 0.66232 0.56492 0.0
C1827 C 0.58403 0.63701 0.56792 0.0
C1828 C 0.59072 0.62828 0.58918 0.0
C1829 C 0.59027 0.64408 0.60743 0.0
C1830 C 0.58163 0.5776 0.53539 0.0
C1831 C 0.55761 0.57791 0.52786 0.0
C1832 C 0.59133 0.59798 0.5468 0.0
C1833 C 0.57723 0.61899 0.55041 0.0
C1834 C 0.55419 0.6203 0.54049 0.0
C1835 C 0.5444 0.59985 0.52943 0.0
H1836 H 0.61949 0.24561 0.88625 0.0
H1837 H 0.58274 0.26651 0.82514 0.0
H1838 H 0.65697 0.24308 0.86715 0.0
H1839 H 0.62051 0.26474 0.80597 0.0
H1840 H 0.68952 0.23852 0.7738 0.0
H1841 H 0.65127 0.23867 0.79223 0.0
H1842 H 0.68641 0.26798 0.85143 0.0
H1843 H 0.72444 0.26712 0.83334 0.0
C1844 C 0.61943 0.24982 0.86871 0.0
C1845 C 0.59805 0.25636 0.85729 0.0
C1846 C 0.64104 0.24852 0.85772 0.0
C1847 C 0.64206 0.25387 0.83492 0.0
C1848 C 0.62055 0.2602 0.82343 0.0
C1849 C 0.59885 0.2614 0.83446 0.0
C1850 C 0.68908 0.24482 0.79081 0.0
C1851 C 0.71021 0.25269 0.80204 0.0
C1852 C 0.66706 0.24511 0.80136 0.0
C1853 C 0.66551 0.2533 0.82345 0.0
C1854 C 0.68673 0.26109 0.83461 0.0
C1855 C 0.70867 0.26073 0.82412 0.0
H1856 H 0.05621 0.25406 0.06359 0.0
H1857 H 0.01265 0.28728 0.11321 0.0
H1858 H 0.05442 0.29254 0.04218 0.0
H1859 H 0.01059 0.32555 0.09161 0.0
H1860 H 0.00014 0.38587 0.0398 0.0
H1861 H 0.99639 0.34332 0.05317 0.0
H1862 H 0.07312 0.3355 0.0538 0.0
H1863 H 0.07692 0.37817 0.04052 0.0
C1864 C 0.04574 0.26935 0.06961 0.0
C1865 C 0.0347 0.26784 0.09011 0.0
C1866 C 0.04485 0.29134 0.05743 0.0
C1867 C 0.0325 0.31192 0.06537 0.0
C1868 C 0.0201 0.30983 0.0851 0.0
C1869 C 0.02134 0.28801 0.09747 0.0
C1870 C 0.01616 0.37486 0.04235 0.0
C1871 C 0.03884 0.3852 0.03918 0.0
C1872 C 0.01399 0.35063 0.05008 0.0
C1873 C 0.03445 0.33626 0.05445 0.0
C1874 C 0.05707 0.3462 0.05031 0.0
C1875 C 0.05927 0.37058 0.0429 0.0
H1876 H 0.97975 0.76647 0.32463 0.0
H1877 H 0.94625 0.75681 0.38729 0.0
H1878 H 0.94057 0.76603 0.3056 0.0
H1879 H 0.90707 0.75764 0.36861 0.0
H1880 H 0.84071 0.73536 0.32816 0.0
H1881 H 0.87997 0.73568 0.34666 0.0
H1882 H 0.90508 0.78697 0.29756 0.0
H1883 H 0.866 0.78556 0.27848 0.0
C1884 C 0.96398 0.76449 0.33437 0.0
C1885 C 0.96618 0.76156 0.35748 0.0
C1886 C 0.94139 0.76442 0.32347 0.0
C1887 C 0.9203 0.76175 0.33541 0.0
C1888 C 0.92267 0.75918 0.35862 0.0
C1889 C 0.94524 0.7589 0.36944 0.0
C1890 C 0.85459 0.74676 0.32133 0.0
C1891 C 0.8501 0.76043 0.3018 0.0
C1892 C 0.87721 0.7471 0.33205 0.0
C1893 C 0.89604 0.76142 0.3238 0.0
C1894 C 0.89138 0.77532 0.30434 0.0
C1895 C 0.86881 0.7747 0.29343 0.0
H1896 H 0.52782 0.3507 0.89651 0.0
H1897 H 0.53861 0.31206 0.9586 0.0
H1898 H 0.5244 0.38981 0.91642 0.0
H1899 H 0.53618 0.35115 0.97854 0.0
H1900 H 0.5084 0.42118 0.01027 0.0
H1901 H 0.51003 0.38239 0.98968 0.0
H1902 H 0.54554 0.42015 0.9369 0.0
H1903 H 0.54301 0.45899 0.9571 0.0
C1904 C 0.52972 0.35061 0.91442 0.0
C1905 C 0.53348 0.32825 0.92595 0.0
C1906 C 0.52787 0.37309 0.92589 0.0
C1907 C 0.52995 0.37386 0.94922 0.0
C1908 C 0.53399 0.35141 0.96067 0.0
C1909 C 0.53562 0.32894 0.9492 0.0
C1910 C 0.51641 0.42122 0.9942 0.0
C1911 C 0.52553 0.44327 0.98538 0.0
C1912 C 0.51755 0.39888 0.98242 0.0
C1913 C 0.52805 0.39789 0.96155 0.0
C1914 C 0.53698 0.42007 0.9527 0.0
C1915 C 0.53564 0.44242 0.96439 0.0
H1916 H 0.01231 0.20585 0.20028 0.0
H1917 H 0.97697 0.17467 0.14198 0.0
H1918 H 0.97532 0.20303 0.22004 0.0
H1919 H 0.94002 0.17095 0.16202 0.0
H1920 H 0.87442 0.20809 0.19219 0.0
H1921 H 0.91147 0.20033 0.17381 0.0
H1922 H 0.94504 0.1784 0.23631 0.0
H1923 H 0.90775 0.18665 0.25485 0.0
C1924 C 0.99674 0.19785 0.19185 0.0
C1925 C 0.99741 0.19079 0.1695 0.0
C1926 C 0.97554 0.19606 0.20324 0.0
C1927 C 0.95458 0.18699 0.19256 0.0
C1928 C 0.95571 0.17849 0.17059 0.0
C1929 C 0.97689 0.18048 0.15914 0.0
C1930 C 0.88953 0.20108 0.20196 0.0
C1931 C 0.88817 0.19802 0.22499 0.0
C1932 C 0.91082 0.19655 0.19139 0.0
C1933 C 0.9313 0.18875 0.20356 0.0
C1934 C 0.92969 0.18475 0.22649 0.0
C1935 C 0.90836 0.18943 0.23711 0.0
H1936 H 0.04552 0.67068 0.40136 0.0
H1937 H 0.03627 0.71309 0.46095 0.0
H1938 H 0.04843 0.63279 0.42317 0.0
H1939 H 0.0378 0.6751 0.48282 0.0
H1940 H 0.05971 0.60447 0.51956 0.0
H1941 H 0.06039 0.64275 0.49797 0.0
H1942 H 0.02645 0.60446 0.44237 0.0
H1943 H 0.02704 0.56626 0.46349 0.0
C1944 C 0.04392 0.67186 0.41915 0.0
C1945 C 0.04062 0.6949 0.4294 0.0
C1946 C 0.0454 0.65005 0.43173 0.0
C1947 C 0.04315 0.65056 0.45493 0.0
C1948 C 0.04 0.67377 0.46513 0.0
C1949 C 0.03894 0.69563 0.45255 0.0
C1950 C 0.05255 0.60427 0.50267 0.0
C1951 C 0.04345 0.58223 0.49327 0.0
C1952 C 0.05275 0.62631 0.49027 0.0
C1953 C 0.04351 0.62698 0.46822 0.0
C1954 C 0.03428 0.60483 0.459 0.0
C1955 C 0.03444 0.58281 0.47124 0.0
H1956 H 0.63169 0.76212 0.66951 0.0
H1957 H 0.62233 0.70543 0.71904 0.0
H1958 H 0.66424 0.78012 0.69196 0.0
H1959 H 0.65544 0.72293 0.74121 0.0
H1960 H 0.70549 0.76507 0.78428 0.0
H1961 H 0.66794 0.75856 0.7634 0.0
H1962 H 0.70449 0.76892 0.70219 0.0
H1963 H 0.74165 0.77615 0.72294 0.0
C1964 C 0.63678 0.75336 0.68511 0.0
C1965 C 0.6247 0.73222 0.69247 0.0
C1966 C 0.65534 0.76373 0.69799 0.0
C1967 C 0.66231 0.75306 0.71841 0.0
C1968 C 0.65015 0.73192 0.72577 0.0
C1969 C 0.63145 0.72165 0.71294 0.0
C1970 C 0.70531 0.76681 0.76641 0.0
C1971 C 0.72658 0.7706 0.75521 0.0
C1972 C 0.68388 0.76278 0.75445 0.0
C1973 C 0.68342 0.76256 0.73117 0.0
C1974 C 0.70422 0.76893 0.72011 0.0
C1975 C 0.72558 0.77301 0.73203 0.0
H1976 H 0.57444 0.4979 0.70635 0.0
H1977 H 0.63796 0.51084 0.66935 0.0
H1978 H 0.55085 0.4942 0.67154 0.0
H1979 H 0.61451 0.5073 0.63484 0.0
H1980 H 0.57335 0.47442 0.57777 0.0
H1981 H 0.59276 0.47379 0.61435 0.0
H1982 H 0.53789 0.52159 0.63894 0.0
H1983 H 0.51812 0.52209 0.60211 0.0
C1984 C 0.58333 0.49995 0.69081 0.0
C1985 C 0.60802 0.50458 0.6905 0.0
C1986 C 0.56983 0.49792 0.67095 0.0
C1987 C 0.58091 0.50025 0.65054 0.0
C1988 C 0.60557 0.505 0.65034 0.0
C1989 C 0.61898 0.50718 0.6701 0.0
C1990 C 0.56519 0.48457 0.591 0.0
C1991 C 0.54438 0.49861 0.58699 0.0
C1992 C 0.57639 0.48427 0.61193 0.0
C1993 C 0.56705 0.49799 0.62934 0.0
C1994 C 0.54544 0.51083 0.62577 0.0
C1995 C 0.53416 0.51115 0.60471 0.0
H1996 H 0.76015 0.37755 0.97239 0.0
H1997 H 0.82302 0.34171 0.00069 0.0
H1998 H 0.76787 0.35914 0.93654 0.0
H1999 H 0.83096 0.32349 0.96462 0.0
H2000 H 0.81809 0.27401 0.90174 0.0
H2001 H 0.81384 0.29261 0.93827 0.0
H2002 H 0.79701 0.36297 0.90743 0.0
H2003 H 0.80038 0.34428 0.87104 0.0
C2004 C 0.77563 0.36573 0.97094 0.0
C2005 C 0.79098 0.36106 0.98932 0.0
C2006 C 0.78017 0.35534 0.95036 0.0
C2007 C 0.80016 0.34004 0.9477 0.0
C2008 C 0.81536 0.3351 0.96618 0.0
C2009 C 0.81084 0.34557 0.9868 0.0
C2010 C 0.81361 0.29348 0.9028 0.0
C2011 C 0.80946 0.30762 0.88348 0.0
C2012 C 0.81136 0.30417 0.92371 0.0
C2013 C 0.80482 0.32918 0.92571 0.0
C2014 C 0.80168 0.34355 0.90642 0.0
C2015 C 0.80396 0.3329 0.88555 0.0
H2016 H 0.9239 0.52245 0.17195 0.0
H2017 H 0.98591 0.49811 0.21052 0.0
H2018 H 0.94835 0.52689 0.1395 0.0
H2019 H 0.01036 0.50221 0.17777 0.0
H2020 H 0.02871 0.48277 0.10188 0.0
H2021 H 0.01046 0.48063 0.13811 0.0
H2022 H 0.98424 0.55527 0.12952 0.0
H2023 H 0.00256 0.55769 0.09363 0.0
C2024 C 0.94274 0.518 0.17346 0.0
C2025 C 0.95303 0.50998 0.19372 0.0
C2026 C 0.95675 0.52068 0.15495 0.0
C2027 C 0.98124 0.51506 0.15625 0.0
C2028 C 0.99152 0.50667 0.17641 0.0
C2029 C 0.97756 0.50439 0.19508 0.0
C2030 C 0.01959 0.49894 0.10798 0.0
C2031 C 0.01683 0.52027 0.09475 0.0
C2032 C 0.00915 0.49769 0.12868 0.0
C2033 C 0.99566 0.51765 0.13633 0.0
C2034 C 0.99428 0.53951 0.12379 0.0
C2035 C 0.00488 0.54089 0.10329 0.0
H2036 H 0.71833 0.62535 0.46637 0.0
H2037 H 0.77683 0.67738 0.47299 0.0
H2038 H 0.70401 0.64668 0.43247 0.0
H2039 H 0.76221 0.69897 0.43977 0.0
H2040 H 0.73298 0.66725 0.35823 0.0
H2041 H 0.72907 0.64946 0.39494 0.0
H2042 H 0.72389 0.72277 0.42279 0.0
H2043 H 0.72675 0.74079 0.38588 0.0
C2044 C 0.72771 0.64168 0.46086 0.0
C2045 C 0.74878 0.64967 0.47199 0.0
C2046 C 0.71953 0.65383 0.4416 0.0
C2047 C 0.73195 0.67448 0.43374 0.0
C2048 C 0.75214 0.68329 0.44572 0.0
C2049 C 0.76063 0.67083 0.46455 0.0
C2050 C 0.72992 0.67962 0.37195 0.0
C2051 C 0.7308 0.70548 0.36921 0.0
C2052 C 0.72766 0.66938 0.39299 0.0
C2053 C 0.72649 0.68483 0.41158 0.0
C2054 C 0.72497 0.71056 0.40863 0.0
C2055 C 0.72687 0.72081 0.38756 0.0
H2056 H 0.65748 0.53222 0.8258 0.0
H2057 H 0.58538 0.51742 0.80163 0.0
H2058 H 0.64247 0.54489 0.86139 0.0
H2059 H 0.57032 0.52897 0.83757 0.0
H2060 H 0.54673 0.56774 0.89832 0.0
H2061 H 0.56393 0.56262 0.86198 0.0
H2062 H 0.62577 0.52726 0.89299 0.0
H2063 H 0.60893 0.5332 0.9291 0.0
C2064 C 0.63842 0.5314 0.82823 0.0
C2065 C 0.62257 0.52369 0.81106 0.0
C2066 C 0.6298 0.53864 0.84862 0.0
C2067 C 0.60518 0.53798 0.85239 0.0
C2068 C 0.58935 0.5302 0.83514 0.0
C2069 C 0.59797 0.52329 0.81463 0.0
C2070 C 0.56422 0.55936 0.89728 0.0
C2071 C 0.57653 0.5509 0.91645 0.0
C2072 C 0.57398 0.5562 0.8765 0.0
C2073 C 0.59609 0.54421 0.87451 0.0
C2074 C 0.60886 0.53685 0.89386 0.0
C2075 C 0.59923 0.54027 0.91461 0.0
H2076 H 0.77009 0.38166 0.12785 0.0
H2077 H 0.77811 0.31698 0.08668 0.0
H2078 H 0.76597 0.35507 0.16017 0.0
H2079 H 0.77387 0.29031 0.11908 0.0
H2080 H 0.79707 0.2576 0.18879 0.0
H2081 H 0.79712 0.28069 0.15403 0.0
H2082 H 0.73761 0.32442 0.17523 0.0
H2083 H 0.73759 0.30151 0.21003 0.0
C2084 C 0.77092 0.36175 0.1257 0.0
C2085 C 0.77448 0.35141 0.10475 0.0
C2086 C 0.76836 0.34651 0.14418 0.0
C2087 C 0.76945 0.32058 0.14214 0.0
C2088 C 0.77307 0.31022 0.12118 0.0
C2089 C 0.77544 0.32549 0.10264 0.0
C2090 C 0.78371 0.27182 0.18588 0.0
C2091 C 0.76746 0.27784 0.20228 0.0
C2092 C 0.78372 0.28503 0.16594 0.0
C2093 C 0.76758 0.30459 0.16204 0.0
C2094 C 0.75054 0.30972 0.17794 0.0
C2095 C 0.75042 0.29645 0.1978 0.0
H2096 H 0.93411 0.52845 0.32471 0.0
H2097 H 0.97026 0.46493 0.2982 0.0
H2098 H 0.95312 0.52064 0.36096 0.0
H2099 H 0.98908 0.45692 0.33461 0.0
H2100 H 0.03613 0.4695 0.39925 0.0
H2101 H 0.01851 0.47511 0.36195 0.0
H2102 H 0.94976 0.48866 0.38982 0.0
H2103 H 0.96737 0.4839 0.42691 0.0
C2104 C 0.94622 0.5129 0.32661 0.0
C2105 C 0.95065 0.49726 0.30867 0.0
C2106 C 0.95695 0.5083 0.3474 0.0
C2107 C 0.97236 0.48799 0.35066 0.0
C2108 C 0.97735 0.47275 0.33256 0.0
C2109 C 0.96653 0.47731 0.31175 0.0
C2110 C 0.01722 0.47349 0.39736 0.0
C2111 C 0.00317 0.47627 0.41604 0.0
C2112 C 0.00713 0.47658 0.37603 0.0
C2113 C 0.98283 0.48265 0.37302 0.0
C2114 C 0.96862 0.48442 0.39165 0.0
C2115 C 0.97866 0.48128 0.4129 0.0
H2116 H 0.78668 0.63005 0.60041 0.0
H2117 H 0.79204 0.69168 0.55511 0.0
H2118 H 0.79973 0.65689 0.63108 0.0
H2119 H 0.80453 0.71872 0.58613 0.0
H2120 H 0.85114 0.70409 0.67303 0.0
H2121 H 0.84276 0.68365 0.63753 0.0
H2122 H 0.78114 0.73031 0.62615 0.0
H2123 H 0.78853 0.74996 0.66204 0.0
C2124 C 0.79033 0.64939 0.59708 0.0
C2125 C 0.78833 0.65886 0.57547 0.0
C2126 C 0.79802 0.66462 0.61454 0.0
C2127 C 0.80339 0.68962 0.61072 0.0
C2128 C 0.80063 0.69939 0.58928 0.0
C2129 C 0.79342 0.684 0.57168 0.0
C2130 C 0.83599 0.71027 0.66286 0.0
C2131 C 0.82022 0.72828 0.67064 0.0
C2132 C 0.83132 0.69866 0.64255 0.0
C2133 C 0.81118 0.70533 0.62948 0.0
C2134 C 0.7968 0.725 0.63606 0.0
C2135 C 0.80119 0.73632 0.65657 0.0
H2136 H 0.71924 0.55375 0.55072 0.0
H2137 H 0.75949 0.5272 0.49583 0.0
H2138 H 0.69275 0.51834 0.54704 0.0
H2139 H 0.73314 0.49116 0.49237 0.0
H2140 H 0.65205 0.47365 0.471 0.0
H2141 H 0.69234 0.48879 0.47849 0.0
H2142 H 0.68478 0.47461 0.54832 0.0
H2143 H 0.644 0.46107 0.54104 0.0
C2144 C 0.72273 0.54001 0.53817 0.0
C2145 C 0.74106 0.54346 0.52328 0.0
C2146 C 0.70774 0.51945 0.53623 0.0
C2147 C 0.7108 0.50186 0.51935 0.0
C2148 C 0.73021 0.50448 0.5054 0.0
C2149 C 0.74523 0.52513 0.50735 0.0
C2150 C 0.65924 0.47304 0.48788 0.0
C2151 C 0.64442 0.46733 0.50549 0.0
C2152 C 0.6825 0.4815 0.49218 0.0
C2153 C 0.69134 0.4839 0.51415 0.0
C2154 C 0.67808 0.47377 0.53129 0.0
C2155 C 0.65471 0.46569 0.52703 0.0
H2156 H 0.22113 0.95224 0.57683 0.0
H2157 H 0.21639 0.93545 0.5069 0.0
H2158 H 0.18294 0.97393 0.57363 0.0
H2159 H 0.17804 0.95667 0.50376 0.0
H2160 H 0.11626 0.01069 0.50165 0.0
H2161 H 0.15755 0.99635 0.50556 0.0
H2162 H 0.14161 0.96148 0.56775 0.0
H2163 H 0.10065 0.97614 0.56409 0.0
C2164 C 0.21202 0.95336 0.56075 0.0
C2165 C 0.22168 0.94202 0.54215 0.0
C2166 C 0.19008 0.96566 0.55893 0.0
C2167 C 0.17733 0.9669 0.53847 0.0
C2168 C 0.18747 0.95631 0.51972 0.0
C2169 C 0.2094 0.94401 0.52154 0.0
C2170 C 0.12166 0.00021 0.51627 0.0
C2171 C 0.10511 0.99445 0.53249 0.0
C2172 C 0.14529 0.99187 0.51845 0.0
C2173 C 0.15288 0.97768 0.53693 0.0
C2174 C 0.13648 0.97262 0.55345 0.0
C2175 C 0.11291 0.9809 0.55126 0.0
H2176 H 0.4098 0.93142 0.75165 0.0
H2177 H 0.33904 0.95832 0.73414 0.0
H2178 H 0.39308 0.89138 0.7615 0.0
H2179 H 0.32232 0.91798 0.74332 0.0
H2180 H 0.29697 0.85494 0.78586 0.0
H2181 H 0.31544 0.8942 0.7762 0.0
H2182 H 0.37381 0.85471 0.74736 0.0
H2183 H 0.3557 0.81549 0.75761 0.0
C2184 C 0.39071 0.9286 0.74947 0.0
C2185 C 0.3757 0.94801 0.74219 0.0
C2186 C 0.38111 0.90563 0.75511 0.0
C2187 C 0.35632 0.90155 0.75348 0.0
C2188 C 0.34144 0.92069 0.74528 0.0
C2189 C 0.35103 0.94371 0.73975 0.0
C2190 C 0.31392 0.85465 0.77775 0.0
C2191 C 0.32484 0.83209 0.77248 0.0
C2192 C 0.32438 0.87715 0.77197 0.0
C2193 C 0.34592 0.87761 0.76068 0.0
C2194 C 0.35728 0.85505 0.75615 0.0
C2195 C 0.34689 0.83254 0.76204 0.0
H2196 H 0.34521 0.10397 0.03233 0.0
H2197 H 0.33408 0.05374 0.97731 0.0
H2198 H 0.38621 0.09045 0.03675 0.0
H2199 H 0.37594 0.04146 0.98043 0.0
H2200 H 0.43821 -0.00128 0.01064 0.0
H2201 H 0.39871 0.01625 0.00341 0.0
H2202 H 0.42478 0.08774 0.02634 0.0
H2203 H 0.46358 0.06942 0.03519 0.0
C2204 C 0.35189 0.09074 0.02056 0.0
C2205 C 0.3365 0.07969 0.0046 0.0
C2206 C 0.37551 0.08295 0.02307 0.0
C2207 C 0.38442 0.06439 0.00927 0.0
C2208 C 0.3695 0.05509 0.99192 0.0
C2209 C 0.34563 0.0624 0.98983 0.0
C2210 C 0.43519 0.01805 0.01449 0.0
C2211 C 0.45363 0.03267 0.0238 0.0
C2212 C 0.41272 0.02829 0.00997 0.0
C2213 C 0.40847 0.05359 0.01399 0.0
C2214 C 0.42712 0.06813 0.02336 0.0
C2215 C 0.44938 0.05767 0.0285 0.0
H2216 H 0.71909 0.55981 0.73526 0.0
H2217 H 0.65798 0.5986 0.75984 0.0
H2218 H 0.74439 0.59539 0.74441 0.0
H2219 H 0.68325 0.63441 0.76863 0.0
H2220 H 0.74003 0.67913 0.80701 0.0
H2221 H 0.7156 0.64327 0.79641 0.0
H2222 H 0.75154 0.63862 0.73439 0.0
H2223 H 0.77624 0.67403 0.74508 0.0
C2224 C 0.71099 0.57614 0.74222 0.0
C2225 C 0.68662 0.57644 0.74694 0.0
C2226 C 0.72548 0.59649 0.74746 0.0
C2227 C 0.71583 0.6175 0.75752 0.0
C2228 C 0.69123 0.61822 0.76131 0.0
C2229 C 0.67673 0.59787 0.75604 0.0
C2230 C 0.74295 0.67021 0.79127 0.0
C2231 C 0.76001 0.67942 0.77688 0.0
C2232 C 0.72878 0.64989 0.78509 0.0
C2233 C 0.73148 0.6384 0.76445 0.0
C2234 C 0.74913 0.64705 0.75042 0.0
C2235 C 0.76325 0.66736 0.75657 0.0
H2236 H 0.86012 0.42247 0.07321 0.0
H2237 H 0.82619 0.46633 0.02121 0.0
H2238 H 0.89793 0.44351 0.06716 0.0
H2239 H 0.86416 0.48729 0.01508 0.0
H2240 H 0.93576 0.53216 0.02564 0.0
H2241 H 0.89599 0.51546 0.03289 0.0
H2242 H 0.92527 0.44151 0.03546 0.0
H2243 H 0.9646 0.45789 0.02831 0.0
C2244 C 0.86067 0.43681 0.06068 0.0
C2245 C 0.84027 0.4426 0.04755 0.0
C2246 C 0.88234 0.44876 0.05713 0.0
C2247 C 0.88403 0.4668 0.04044 0.0
C2248 C 0.86335 0.47351 0.02807 0.0
C2249 C 0.84166 0.46145 0.03155 0.0
C2250 C 0.9336 0.51233 0.02754 0.0
C2251 C 0.95337 0.4964 0.02651 0.0
C2252 C 0.91088 0.5028 0.03171 0.0
C2253 C 0.90766 0.47724 0.03511 0.0
C2254 C 0.9273 0.46134 0.03342 0.0
C2255 C 0.94984 0.47077 0.02913 0.0
H2256 H 0.3281 0.06554 0.74927 0.0
H2257 H 0.39279 0.10909 0.74707 0.0
H2258 H 0.30479 0.10353 0.75335 0.0
H2259 H 0.36953 0.14692 0.75103 0.0
H2260 H 0.31864 0.21023 0.7358 0.0
H2261 H 0.33826 0.17091 0.72876 0.0
H2262 H 0.30146 0.13736 0.78283 0.0
H2263 H 0.28173 0.1768 0.79002 0.0
C2264 C 0.3373 0.08323 0.74955 0.0
C2265 C 0.36224 0.08441 0.74786 0.0
C2266 C 0.32398 0.1049 0.75198 0.0
C2267 C 0.33536 0.12813 0.75242 0.0
C2268 C 0.36027 0.12927 0.75047 0.0
C2269 C 0.37359 0.10763 0.74833 0.0
C2270 C 0.31447 0.19443 0.74606 0.0
C2271 C 0.29876 0.19669 0.7636 0.0
C2272 C 0.32582 0.17196 0.74207 0.0
C2273 C 0.32155 0.1512 0.75538 0.0
C2274 C 0.305 0.15308 0.77227 0.0
C2275 C 0.29378 0.17567 0.77641 0.0
H2276 H 0.21896 0.95953 0.2595 0.0
H2277 H 0.15621 0.91282 0.25528 0.0
H2278 H 0.24434 0.92261 0.26229 0.0
H2279 H 0.18156 0.8761 0.25776 0.0
H2280 H 0.23483 0.81952 0.23338 0.0
H2281 H 0.213 0.85842 0.231 0.0
H2282 H 0.25055 0.88459 0.29009 0.0
H2283 H 0.27243 0.84535 0.29278 0.0
C2284 C 0.21062 0.9414 0.25925 0.0
C2285 C 0.18565 0.93897 0.2571 0.0
C2286 C 0.22511 0.92037 0.26091 0.0
C2287 C 0.21484 0.89664 0.26003 0.0
C2288 C 0.18987 0.89425 0.25821 0.0
C2289 C 0.1754 0.91522 0.25692 0.0
C2290 C 0.23873 0.83363 0.24575 0.0
C2291 C 0.25523 0.82927 0.26339 0.0
C2292 C 0.22611 0.85582 0.24442 0.0
C2293 C 0.22993 0.87425 0.26052 0.0
C2294 C 0.24733 0.87057 0.2775 0.0
C2295 C 0.2598 0.84816 0.27902 0.0
H2296 H 0.47004 0.37819 0.4152 0.0
H2297 H 0.48394 0.3193 0.46237 0.0
H2298 H 0.46306 0.40669 0.44557 0.0
H2299 H 0.4767 0.34774 0.49274 0.0
H2300 H 0.51984 0.41789 0.52206 0.0
H2301 H 0.50601 0.38127 0.5021 0.0
H2302 H 0.44215 0.42025 0.48005 0.0
H2303 H 0.45604 0.45706 0.50044 0.0
C2304 C 0.47089 0.37118 0.43202 0.0
C2305 C 0.4782 0.34681 0.43651 0.0
C2306 C 0.46661 0.3874 0.44942 0.0
C2307 C 0.46961 0.37944 0.47153 0.0
C2308 C 0.4745 0.35438 0.47586 0.0
C2309 C 0.47878 0.33818 0.45848 0.0
C2310 C 0.50235 0.41824 0.51377 0.0
C2311 C 0.48915 0.44023 0.51244 0.0
C2312 C 0.49433 0.39724 0.50242 0.0
C2313 C 0.47316 0.39809 0.48924 0.0
C2314 C 0.45862 0.41925 0.48996 0.0
C2315 C 0.4665 0.4402 0.5017 0.0
H2316 H 0.442 0.73536 0.16945 0.0
H2317 H 0.47276 0.78804 0.21601 0.0
H2318 H 0.4044 0.73683 0.1884 0.0
H2319 H 0.43474 0.79023 0.23471 0.0
H2320 H 0.36899 0.76989 0.27562 0.0
H2321 H 0.40749 0.76931 0.25772 0.0
H2322 H 0.37089 0.76176 0.19391 0.0
H2323 H 0.33269 0.76153 0.21183 0.0
C2324 C 0.44071 0.74738 0.18372 0.0
C2325 C 0.46047 0.7616 0.19115 0.0
C2326 C 0.41898 0.74841 0.19454 0.0
C2327 C 0.41618 0.76385 0.2131 0.0
C2328 C 0.4361 0.77792 0.22067 0.0
C2329 C 0.45794 0.77677 0.20986 0.0
C2330 C 0.36917 0.76826 0.25776 0.0
C2331 C 0.34763 0.76565 0.24524 0.0
C2332 C 0.39132 0.768 0.24742 0.0
C2333 C 0.39257 0.76523 0.22426 0.0
C2334 C 0.3709 0.76331 0.21178 0.0
C2335 C 0.34885 0.76341 0.22209 0.0
H2336 H 0.05652 0.73941 0.93515 0.0
H2337 H 0.00636 0.77966 0.97424 0.0
H2338 H 0.05613 0.7054 0.96172 0.0
H2339 H 0.00585 0.74548 0.00073 0.0
H2340 H 0.05591 0.64958 0.0161 0.0
H2341 H 0.06354 0.69094 0.00155 0.0
H2342 H 0.9876 0.7027 0.99226 0.0
H2343 H 0.97992 0.66134 0.00697 0.0
C2344 C 0.04602 0.74131 0.94978 0.0
C2345 C 0.03123 0.76196 0.95249 0.0
C2346 C 0.04584 0.72189 0.96503 0.0
C2347 C 0.03069 0.72275 0.98308 0.0
C2348 C 0.01747 0.74432 0.9868 0.0
C2349 C 0.01789 0.7639 0.9717 0.0
C2350 C 0.04083 0.66128 0.01154 0.0
C2351 C 0.0173 0.65228 0.01256 0.0
C2352 C 0.04523 0.68486 0.00313 0.0
C2353 C 0.02618 0.69993 0.9958 0.0
C2354 C 0.00261 0.69153 -0.00195 0.0
C2355 C 0.9982 0.66782 0.00624 0.0
H2356 H 0.07885 0.27067 0.72255 0.0
H2357 H 0.11277 0.25345 0.66138 0.0
H2358 H 0.11785 0.27088 0.74202 0.0
H2359 H 0.15163 0.25298 0.68083 0.0
H2360 H 0.21997 0.27924 0.71719 0.0
H2361 H 0.18097 0.27906 0.69806 0.0
H2362 H 0.15001 0.24509 0.75518 0.0
H2363 H 0.18901 0.24588 0.77455 0.0
C2364 C 0.09462 0.26683 0.71326 0.0
C2365 C 0.09264 0.26212 0.69037 0.0
C2366 C 0.11703 0.26677 0.72447 0.0
C2367 C 0.1381 0.26195 0.71309 0.0
C2368 C 0.13599 0.25717 0.69017 0.0
C2369 C 0.11362 0.2573 0.67899 0.0
C2370 C 0.20488 0.27165 0.72569 0.0
C2371 C 0.20775 0.26257 0.74746 0.0
C2372 C 0.18243 0.27143 0.71463 0.0
C2373 C 0.16213 0.26204 0.72496 0.0
C2374 C 0.16506 0.25281 0.74672 0.0
C2375 C 0.18752 0.25308 0.75781 0.0
H2376 H 0.52138 0.71069 0.08682 0.0
H2377 H 0.53641 0.67059 0.14753 0.0
H2378 H 0.52316 0.67208 0.06592 0.0
H2379 H 0.53907 0.6321 0.12667 0.0
H2380 H 0.51716 0.56384 0.08633 0.0
H2381 H 0.51596 0.60246 0.107 0.0
H2382 H 0.54856 0.6407 0.05285 0.0
H2383 H 0.54895 0.60209 0.03184 0.0
C2384 C 0.52524 0.69363 0.09569 0.0
C2385 C 0.52866 0.69374 0.11887 0.0
C2386 C 0.52645 0.67144 0.08368 0.0
C2387 C 0.53126 0.64875 0.09449 0.0
C2388 C 0.5349 0.64901 0.1177 0.0
C2389 C 0.53353 0.67116 0.12971 0.0
C2390 C 0.52415 0.58046 0.07882 0.0
C2391 C 0.53314 0.57977 0.05736 0.0
C2392 C 0.5236 0.60269 0.09078 0.0
C2393 C 0.53218 0.62492 0.08172 0.0
C2394 C 0.54142 0.62414 0.06031 0.0
C2395 C 0.54182 0.60191 0.04828 0.0
H2396 H 0.08428 0.84701 0.89259 0.0
H2397 H 0.05486 0.81202 0.83336 0.0
H2398 H 0.12189 0.8539 0.87418 0.0
H2399 H 0.09244 0.81812 0.81526 0.0
H2400 H 0.16 0.83631 0.78334 0.0
H2401 H 0.12187 0.84507 0.80018 0.0
H2402 H 0.15282 0.82562 0.86442 0.0
H2403 H 0.19071 0.81731 0.84771 0.0
C2404 C 0.08576 0.84111 0.87555 0.0
C2405 C 0.06682 0.82867 0.86449 0.0
C2406 C 0.10729 0.84496 0.86504 0.0
C2407 C 0.11027 0.83632 0.84333 0.0
C2408 C 0.09073 0.82528 0.83188 0.0
C2409 C 0.06922 0.82156 0.84233 0.0
C2410 C 0.15866 0.83432 0.80111 0.0
C2411 C 0.17825 0.82594 0.81419 0.0
C2412 C 0.13687 0.83932 0.81075 0.0
C2413 C 0.13423 0.83585 0.83362 0.0
C2414 C 0.15427 0.82887 0.84682 0.0
C2415 C 0.17603 0.82402 0.83722 0.0
H2416 H 0.04141 0.31295 0.5915 0.0
H2417 H 0.01525 0.35102 0.64856 0.0
H2418 H 0.04271 0.35207 0.57136 0.0
H2419 H 0.01566 0.3901 0.62823 0.0
H2420 H 0.04188 0.45998 0.59387 0.0
H2421 H 0.04069 0.42096 0.61405 0.0
H2422 H 0.01924 0.38292 0.5536 0.0
H2423 H 0.02131 0.42189 0.53329 0.0
C2424 C 0.03579 0.32969 0.59971 0.0
C2425 C 0.02828 0.32884 0.62167 0.0
C2426 C 0.03635 0.35218 0.58809 0.0
C2427 C 0.02923 0.37447 0.59803 0.0
C2428 C 0.02165 0.37351 0.62004 0.0
C2429 C 0.02127 0.35103 0.63171 0.0
C2430 C 0.03687 0.4433 0.58486 0.0
C2431 C 0.03174 0.44415 0.5619 0.0
C2432 C 0.03603 0.42085 0.5965 0.0
C2433 C 0.02986 0.39855 0.58558 0.0
C2434 C 0.02448 0.39951 0.56261 0.0
C2435 C 0.02549 0.42195 0.55094 0.0
H2436 H 0.45006 0.28305 0.32759 0.0
H2437 H 0.43582 0.25153 0.39161 0.0
H2438 H 0.41477 0.26232 0.31176 0.0
H2439 H 0.40046 0.23064 0.37568 0.0
H2440 H 0.32293 0.23888 0.34056 0.0
H2441 H 0.361 0.24613 0.3602 0.0
H2442 H 0.39841 0.21995 0.30344 0.0
H2443 H 0.36039 0.21291 0.28363 0.0
C2444 C 0.43944 0.27158 0.33823 0.0
C2445 C 0.44552 0.26903 0.36081 0.0
C2446 C 0.41943 0.25947 0.32914 0.0
C2447 C 0.40506 0.24468 0.3425 0.0
C2448 C 0.41127 0.24192 0.36506 0.0
C2449 C 0.43143 0.2539 0.37413 0.0
C2450 C 0.33923 0.23386 0.33254 0.0
C2451 C 0.33874 0.22597 0.31036 0.0
C2452 C 0.36104 0.23799 0.34381 0.0
C2453 C 0.38258 0.23419 0.33307 0.0
C2454 C 0.38201 0.22356 0.31186 0.0
C2455 C 0.36024 0.21943 0.30059 0.0
H2456 H 0.46501 0.47954 0.3424 0.0
H2457 H 0.42238 0.54349 0.35759 0.0
H2458 H 0.48762 0.48459 0.37738 0.0
H2459 H 0.44573 0.54951 0.39189 0.0
H2460 H 0.46621 0.53035 0.46319 0.0
H2461 H 0.4481 0.53003 0.42637 0.0
H2462 H 0.51545 0.50788 0.39958 0.0
H2463 H 0.53345 0.507 0.43706 0.0
C2464 C 0.46078 0.49492 0.3531 0.0
C2465 C 0.44176 0.5109 0.34756 0.0
C2466 C 0.47386 0.49797 0.37304 0.0
C2467 C 0.46837 0.51733 0.3876 0.0
C2468 C 0.45006 0.53402 0.38138 0.0
C2469 C 0.43672 0.53066 0.3617 0.0
C2470 C 0.47731 0.52562 0.44947 0.0
C2471 C 0.50126 0.51856 0.45306 0.0
C2472 C 0.46692 0.52564 0.42823 0.0
C2473 C 0.4803 0.51899 0.4099 0.0
C2474 C 0.50455 0.51275 0.41337 0.0
C2475 C 0.51492 0.51243 0.43479 0.0
H2476 H 0.25939 0.62635 0.0712 0.0
H2477 H 0.27617 0.69747 0.0427 0.0
H2478 H 0.25261 0.64631 0.10671 0.0
H2479 H 0.26932 0.71743 0.07822 0.0
H2480 H 0.28701 0.73452 0.15236 0.0
H2481 H 0.29004 0.71685 0.11563 0.0
H2482 H 0.22435 0.67648 0.12408 0.0
H2483 H 0.22083 0.69472 0.16088 0.0
C2484 C 0.2616 0.64624 0.07253 0.0
C2485 C 0.26845 0.66036 0.05425 0.0
C2486 C 0.25751 0.65768 0.09278 0.0
C2487 C 0.2604 0.68341 0.09519 0.0
C2488 C 0.26713 0.69753 0.07686 0.0
C2489 C 0.27101 0.68613 0.05655 0.0
C2490 C 0.27282 0.72239 0.14628 0.0
C2491 C 0.25356 0.7162 0.15961 0.0
C2492 C 0.27466 0.71217 0.12522 0.0
C2493 C 0.25745 0.6953 0.11702 0.0
C2494 C 0.23801 0.68927 0.13012 0.0
C2495 C 0.23603 0.69968 0.15118 0.0
H2496 H 0.12144 0.54957 0.87894 0.0
H2497 H 0.08217 0.48917 0.8479 0.0
H2498 H 0.09378 0.54963 0.90922 0.0
H2499 H 0.05442 0.48921 0.87836 0.0
H2500 H 0.03946 0.47767 0.95478 0.0
H2501 H 0.05857 0.47867 0.91914 0.0
H2502 H 0.05054 0.5582 0.91681 0.0
H2503 H 0.03144 0.55729 0.95253 0.0
C2504 C 0.10683 0.53637 0.87855 0.0
C2505 C 0.10402 0.51927 0.86115 0.0
C2506 C 0.09085 0.53657 0.89577 0.0
C2507 C 0.07185 0.51953 0.89605 0.0
C2508 C 0.06893 0.50252 0.87855 0.0
C2509 C 0.08479 0.50251 0.86117 0.0
C2510 C 0.04122 0.49531 0.94641 0.0
C2511 C 0.03421 0.51743 0.95659 0.0
C2512 C 0.0521 0.49586 0.92596 0.0
C2513 C 0.05635 0.51855 0.9154 0.0
C2514 C 0.04778 0.54049 0.92479 0.0
C2515 C 0.03668 0.53993 0.94515 0.0
H2516 H 0.32105 0.40115 0.58198 0.0
H2517 H 0.2981 0.32732 0.56345 0.0
H2518 H 0.333 0.38613 0.61887 0.0
H2519 H 0.30925 0.31248 0.60033 0.0
H2520 H 0.33641 0.28706 0.66538 0.0
H2521 H 0.33969 0.30381 0.62803 0.0
H2522 H 0.31047 0.37337 0.64997 0.0
H2523 H 0.30781 0.35678 0.68723 0.0
C2524 C 0.31881 0.38167 0.58574 0.0
C2525 C 0.3084 0.36543 0.57 0.0
C2526 C 0.32557 0.37309 0.60685 0.0
C2527 C 0.32191 0.34816 0.61262 0.0
C2528 C 0.31265 0.33172 0.59641 0.0
C2529 C 0.30603 0.34026 0.5753 0.0
C2530 C 0.33121 0.3061 0.66223 0.0
C2531 C 0.32161 0.32057 0.67906 0.0
C2532 C 0.333 0.31567 0.64088 0.0
C2533 C 0.32499 0.33978 0.63594 0.0
C2534 C 0.31704 0.35481 0.65321 0.0
C2535 C 0.31545 0.3453 0.67459 0.0
H2536 H 0.46305 0.50367 0.23733 0.0
H2537 H 0.39646 0.47012 0.21468 0.0
H2538 H 0.48057 0.49368 0.20206 0.0
H2539 H 0.41415 0.45964 0.17955 0.0
H2540 H 0.44619 0.47925 0.11151 0.0
H2541 H 0.42753 0.48186 0.14716 0.0
H2542 H 0.49356 0.45855 0.17993 0.0
H2543 H 0.51233 0.45604 0.14409 0.0
C2544 C 0.4522 0.49409 0.22483 0.0
C2545 C 0.42837 0.48782 0.22865 0.0
C2546 C 0.4623 0.48812 0.20473 0.0
C2547 C 0.44877 0.47573 0.1881 0.0
C2548 C 0.42495 0.46936 0.192 0.0
C2549 C 0.41484 0.47536 0.21209 0.0
C2550 C 0.45654 0.47397 0.12624 0.0
C2551 C 0.48077 0.46759 0.12504 0.0
C2552 C 0.44586 0.47554 0.1467 0.0
C2553 C 0.45918 0.47073 0.16635 0.0
C2554 C 0.483 0.46287 0.16506 0.0
C2555 C 0.49371 0.46133 0.14458 0.0
H2556 H 0.28417 0.64109 0.91444 0.0
H2557 H 0.29053 0.70545 0.95674 0.0
H2558 H 0.29054 0.66714 0.88209 0.0
H2559 H 0.2967 0.73158 0.92425 0.0
H2560 H 0.27229 0.76707 0.85483 0.0
H2561 H 0.27123 0.74446 0.88986 0.0
H2562 H 0.32416 0.69348 0.86674 0.0
H2563 H 0.32542 0.71605 0.8318 0.0
C2564 C 0.28692 0.6608 0.91681 0.0
C2565 C 0.28682 0.67125 0.93809 0.0
C2566 C 0.29075 0.67567 0.89833 0.0
C2567 C 0.29427 0.70134 0.90071 0.0
C2568 C 0.29401 0.71185 0.92197 0.0
C2569 C 0.29051 0.6969 0.94052 0.0
C2570 C 0.2841 0.75137 0.85741 0.0
C2571 C 0.29881 0.74326 0.84046 0.0
C2572 C 0.28349 0.73845 0.87747 0.0
C2573 C 0.29737 0.71704 0.88085 0.0
C2574 C 0.31303 0.70974 0.86441 0.0
C2575 C 0.31387 0.72281 0.84448 0.0
H2576 H 0.14853 0.55877 0.73771 0.0
H2577 H 0.0839 0.52043 0.75469 0.0
H2578 H 0.13077 0.56917 0.7016 0.0
H2579 H 0.06631 0.53005 0.71807 0.0
H2580 H 0.03554 0.56366 0.65455 0.0
H2581 H 0.05142 0.56197 0.69278 0.0
H2582 H 0.1216 0.54607 0.6688 0.0
H2583 H 0.1059 0.54799 0.63099 0.0
C2584 C 0.1305 0.55252 0.73366 0.0
C2585 C 0.11767 0.53851 0.74883 0.0
C2586 C 0.12034 0.55844 0.71296 0.0
C2587 C 0.09723 0.55021 0.70685 0.0
C2588 C 0.08407 0.53688 0.72235 0.0
C2589 C 0.09418 0.53118 0.74323 0.0
C2590 C 0.05441 0.56013 0.65753 0.0
C2591 C 0.06949 0.55606 0.63977 0.0
C2592 C 0.06347 0.55906 0.67939 0.0
C2593 C 0.08775 0.55382 0.68384 0.0
C2594 C 0.10291 0.55061 0.666 0.0
C2595 C 0.0939 0.55176 0.64425 0.0
H2596 H 0.2116 0.36125 0.46596 0.0
H2597 H 0.27426 0.31464 0.46968 0.0
H2598 H 0.19488 0.33573 0.43571 0.0
H2599 H 0.25722 0.28884 0.43986 0.0
H2600 H 0.21762 0.24295 0.38889 0.0
H2601 H 0.218 0.26129 0.42586 0.0
H2602 H 0.21799 0.33437 0.39699 0.0
H2603 H 0.21964 0.31668 0.36047 0.0
C2604 C 0.22145 0.34513 0.46075 0.0
C2605 C 0.24438 0.34008 0.4698 0.0
C2606 C 0.21182 0.33053 0.44359 0.0
C2607 C 0.22476 0.31037 0.43565 0.0
C2608 C 0.24679 0.30412 0.44596 0.0
C2609 C 0.25664 0.31902 0.46279 0.0
C2610 C 0.21752 0.26294 0.39032 0.0
C2611 C 0.21937 0.2782 0.37149 0.0
C2612 C 0.21739 0.27334 0.4115 0.0
C2613 C 0.21816 0.29914 0.4141 0.0
C2614 C 0.21715 0.31438 0.39533 0.0
C2615 C 0.218 0.30407 0.37427 0.0
H2616 H 0.35681 0.41782 0.48444 0.0
H2617 H 0.29517 0.46526 0.47548 0.0
H2618 H 0.38282 0.45427 0.48455 0.0
H2619 H 0.3212 0.50168 0.47658 0.0
H2620 H 0.38107 0.533 0.53573 0.0
H2621 H 0.34947 0.50795 0.51771 0.0
H2622 H 0.39248 0.49931 0.46036 0.0
H2623 H 0.42365 0.52494 0.47793 0.0
C2624 C 0.34894 0.43592 0.48163 0.0
C2625 C 0.32406 0.43878 0.48009 0.0
C2626 C 0.36376 0.45674 0.48168 0.0
C2627 C 0.35382 0.48061 0.48069 0.0
C2628 C 0.32913 0.48339 0.47724 0.0
C2629 C 0.31434 0.46253 0.47655 0.0
C2630 C 0.38316 0.52685 0.51884 0.0
C2631 C 0.40468 0.53092 0.5082 0.0
C2632 C 0.36517 0.51256 0.50853 0.0
C2633 C 0.36877 0.5018 0.48774 0.0
C2634 C 0.38934 0.50766 0.4763 0.0
C2635 C 0.40706 0.52242 0.48636 0.0
H2636 H 0.83977 0.0654 0.47039 0.0
H2637 H 0.84943 0.09244 0.53741 0.0
H2638 H 0.87784 0.04336 0.4741 0.0
H2639 H 0.88743 0.07061 0.54106 0.0
H2640 H 0.94695 0.0139 0.54639 0.0
H2641 H 0.90578 0.02868 0.54236 0.0
H2642 H 0.92024 0.05687 0.47723 0.0
H2643 H 0.9612 0.04202 0.48113 0.0
C2644 C 0.84991 0.06643 0.48596 0.0
C2645 C 0.84171 0.08074 0.50356 0.0
C2646 C 0.87173 0.05391 0.48806 0.0
C2647 C 0.88565 0.0553 0.50786 0.0
C2648 C 0.877 0.06894 0.52569 0.0
C2649 C 0.85531 0.08159 0.52354 0.0
C2650 C 0.94124 0.02298 0.53111 0.0
C2651 C 0.95738 0.02695 0.51415 0.0
C2652 C 0.91771 0.03154 0.52885 0.0
C2653 C 0.90981 0.04402 0.50951 0.0
C2654 C 0.92571 0.04711 0.49223 0.0
C2655 C 0.94924 0.03874 0.49455 0.0
H2656 H 0.65164 0.08983 0.28524 0.0
H2657 H 0.72108 0.06111 0.30503 0.0
H2658 H 0.66993 0.12876 0.2744 0.0
H2659 H 0.73938 0.10041 0.29492 0.0
H2660 H 0.70836 0.20376 0.28001 0.0
H2661 H 0.68906 0.16483 0.28891 0.0
H2662 H 0.74866 0.12458 0.26309 0.0
H2663 H 0.76841 0.16367 0.25487 0.0
C2664 C 0.67079 0.092 0.2876 0.0
C2665 C 0.68493 0.07245 0.29603 0.0
C2666 C 0.68129 0.11434 0.28141 0.0
C2667 C 0.70617 0.11773 0.28364 0.0
C2668 C 0.72023 0.09829 0.29253 0.0
C2669 C 0.70973 0.07586 0.29858 0.0
C2670 C 0.71724 0.18662 0.27594 0.0
C2671 C 0.73999 0.18685 0.2668 0.0
C2672 C 0.70612 0.16424 0.28102 0.0
C2673 C 0.71739 0.14151 0.27695 0.0
C2674 C 0.7397 0.14174 0.26692 0.0
C2675 C 0.75091 0.16415 0.26196 0.0
H2676 H 0.71878 0.96514 0.98818 0.0
H2677 H 0.71276 0.94277 0.0565 0.0
H2678 H 0.67709 0.97827 0.98713 0.0
H2679 H 0.671 0.9556 0.05534 0.0
H2680 H 0.60643 0.00705 0.05188 0.0
H2681 H 0.64824 0.99482 0.05223 0.0
H2682 H 0.63682 0.95908 0.98873 0.0
H2683 H 0.59496 0.97158 0.98816 0.0
C2684 C 0.70851 0.96298 0.00294 0.0
C2685 C 0.71894 0.95299 0.02244 0.0
C2686 C 0.68466 0.97037 0.00229 0.0
C2687 C 0.67089 0.96796 0.02116 0.0
C2688 C 0.68133 0.95794 0.04065 0.0
C2689 C 0.70516 0.95048 0.04128 0.0
C2690 C 0.61283 0.99666 0.03794 0.0
C2691 C 0.59742 0.99022 0.02 0.0
C2692 C 0.63673 0.98955 0.03822 0.0
C2693 C 0.64568 0.97592 0.02056 0.0
C2694 C 0.63038 0.96976 0.00247 0.0
C2695 C 0.60643 0.97682 0.0022 0.0
H2696 H 0.32908 0.44794 0.29556 0.0
H2697 H 0.39765 0.41127 0.29881 0.0
H2698 H 0.30926 0.40794 0.29016 0.0
H2699 H 0.37781 0.37132 0.29355 0.0
H2700 H 0.33656 0.31214 0.25301 0.0
H2701 H 0.35546 0.35201 0.26122 0.0
H2702 H 0.30198 0.36748 0.30914 0.0
H2703 H 0.28293 0.32772 0.30088 0.0
C2704 C 0.33986 0.4313 0.2955 0.0
C2705 C 0.36489 0.43269 0.29748 0.0
C2706 C 0.32853 0.40844 0.29242 0.0
C2707 C 0.34205 0.38662 0.29115 0.0
C2708 C 0.36701 0.38793 0.29408 0.0
C2709 C 0.37833 0.41075 0.29729 0.0
C2710 C 0.32873 0.32412 0.26517 0.0
C2711 C 0.30827 0.3168 0.27629 0.0
C2712 C 0.33967 0.34682 0.27002 0.0
C2713 C 0.33028 0.36268 0.28596 0.0
C2714 C 0.30953 0.35562 0.29673 0.0
C2715 C 0.29868 0.33285 0.29201 0.0
H2716 H 0.22262 0.55405 0.99157 0.0
H2717 H 0.19417 0.62704 0.00301 0.0
H2718 H 0.18385 0.53577 -0.00027 0.0
H2719 H 0.15626 0.60904 0.01247 0.0
H2720 H 0.08407 0.57486 0.0065 0.0
H2721 H 0.12271 0.59065 0.99711 0.0
H2722 H 0.15656 0.5266 0.02767 0.0
H2723 H 0.11709 0.50988 0.03589 0.0
C2724 C 0.20805 0.56615 0.9958 0.0
C2725 C 0.21126 0.59197 0.99633 0.0
C2726 C 0.18593 0.55569 0.00075 0.0
C2727 C 0.16673 0.57086 0.00669 0.0
C2728 C 0.17026 0.5967 0.00739 0.0
C2729 C 0.1921 0.6071 0.00203 0.0
C2730 C 0.09972 0.56414 0.01142 0.0
C2731 C 0.09752 0.54123 0.02222 0.0
C2732 C 0.12203 0.57331 0.00609 0.0
C2733 C 0.14298 0.56017 0.01187 0.0
C2734 C 0.14084 0.53716 0.02274 0.0
C2735 C 0.11828 0.52766 0.02768 0.0
H2736 H 0.66552 0.9138 0.30144 0.0
H2737 H 0.72988 0.95786 0.29917 0.0
H2738 H 0.68911 0.87611 0.29837 0.0
H2739 H 0.75356 0.91993 0.2959 0.0
H2740 H 0.7761 0.84616 0.25896 0.0
H2741 H 0.75667 0.88573 0.26631 0.0
H2742 H 0.72072 0.8526 0.32108 0.0
H2743 H 0.74009 0.81314 0.31389 0.0
C2744 C 0.68473 0.9154 0.30038 0.0
C2745 C 0.69588 0.93873 0.30052 0.0
C2746 C 0.69824 0.89383 0.29876 0.0
C2747 C 0.72315 0.89513 0.29697 0.0
C2748 C 0.73436 0.91845 0.29719 0.0
C2749 C 0.72084 0.94009 0.29914 0.0
C2750 C 0.76432 0.84742 0.27276 0.0
C2751 C 0.75948 0.82647 0.28572 0.0
C2752 C 0.75329 0.87008 0.27701 0.0
C2753 C 0.73706 0.87211 0.29414 0.0
C2754 C 0.73296 0.85144 0.30762 0.0
C2755 C 0.74415 0.82889 0.30354 0.0
H2756 H 0.89436 0.09733 0.78537 0.0
H2757 H 0.83069 0.05503 0.79807 0.0
H2758 H 0.87101 0.13552 0.78539 0.0
H2759 H 0.8072 0.0934 0.79758 0.0
H2760 H 0.82593 0.19857 0.81246 0.0
H2761 H 0.84571 0.15849 0.81627 0.0
H2762 H 0.79829 0.1281 0.76536 0.0
H2763 H 0.77859 0.16841 0.76113 0.0
C2764 C 0.87537 0.09623 0.78813 0.0
C2765 C 0.86429 0.07331 0.79174 0.0
C2766 C 0.86209 0.11804 0.78825 0.0
C2767 C 0.83742 0.11725 0.79157 0.0
C2768 C 0.82623 0.09435 0.79499 0.0
C2769 C 0.83964 0.07252 0.79532 0.0
C2770 C 0.81943 0.18328 0.80229 0.0
C2771 C 0.80082 0.18666 0.78637 0.0
C2772 C 0.83083 0.16043 0.80444 0.0
C2773 C 0.82354 0.14043 0.791 0.0
C2774 C 0.80411 0.14332 0.77593 0.0
C2775 C 0.79294 0.16635 0.77349 0.0
loop_
_geom_bond_atom_site_label_1
_geom_bond_atom_site_label_2
_geom_bond_distance
_geom_bond_site_symmetry_2
_ccdc_geom_bond_type
In0 O1 2.294 . S
In0 O2 2.326 . S
In0 O6 2.266 . S
In0 O7 2.326 . S
In0 O8 2.266 . S
In0 O9 2.326 . S
In0 O11 2.294 . S
In0 O12 2.326 . S
O1 In0 2.294 . S
O1 C10 1.240 . S
O2 In0 2.326 . S
O2 C10 1.252 . S
C3 O6 1.252 . S
C3 O7 1.260 . S
C4 O11 1.240 . S
C4 O12 1.252 . S
C5 O8 1.252 . S
C5 O9 1.260 . S
O6 In0 2.266 . S
O6 C3 1.252 . S
O7 In0 2.326 . S
O7 C3 1.260 . S
O8 In0 2.266 . S
O8 C5 1.252 . S
O9 In0 2.326 . S
O9 C5 1.260 . S
C10 O1 1.240 . S
C10 O2 1.252 . S
O11 In0 2.294 . S
O11 C4 1.240 . S
O12 In0 2.326 . S
O12 C4 1.252 . S
In13 O14 2.294 . S
In13 O15 2.326 . S
In13 O19 2.266 . S
In13 O20 2.326 1_455 S
In13 O21 2.266 . S
In13 O22 2.326 . S
In13 O24 2.294 . S
In13 O25 2.326 . S
O14 In13 2.294 . S
O14 C23 1.240 . S
O15 In13 2.326 . S
O15 C23 1.252 . S
C16 O19 1.252 1_655 S
C16 O20 1.260 . S
C17 O24 1.240 . S
C17 O25 1.252 . S
C18 O21 1.252 . S
C18 O22 1.260 . S
O19 In13 2.266 . S
O19 C16 1.252 1_455 S
O20 In13 2.326 1_655 S
O20 C16 1.260 . S
O21 In13 2.266 . S
O21 C18 1.252 . S
O22 In13 2.326 . S
O22 C18 1.260 . S
C23 O14 1.240 . S
C23 O15 1.252 . S
O24 In13 2.294 . S
O24 C17 1.240 . S
O25 In13 2.326 . S
O25 C17 1.252 . S
In26 O27 2.294 . S
In26 O28 2.326 . S
In26 O32 2.266 . S
In26 O33 2.326 . S
In26 O34 2.266 . S
In26 O35 2.326 . S
In26 O37 2.294 . S
In26 O38 2.326 . S
O27 In26 2.294 . S
O27 C36 1.240 . S
O28 In26 2.326 . S
O28 C36 1.252 . S
C29 O32 1.252 . S
C29 O33 1.260 . S
C30 O37 1.240 . S
C30 O38 1.252 . S
C31 O34 1.252 . S
C31 O35 1.260 . S
O32 In26 2.266 . S
O32 C29 1.252 . S
O33 In26 2.326 . S
O33 C29 1.260 . S
O34 In26 2.266 . S
O34 C31 1.252 . S
O35 In26 2.326 . S
O35 C31 1.260 . S
C36 O27 1.240 . S
C36 O28 1.252 . S
O37 In26 2.294 . S
O37 C30 1.240 . S
O38 In26 2.326 . S
O38 C30 1.252 . S
In39 O40 2.294 . S
In39 O41 2.326 . S
In39 O45 2.266 . S
In39 O46 2.326 . S
In39 O47 2.266 . S
In39 O48 2.326 . S
In39 O50 2.294 . S
In39 O51 2.326 . S
O40 In39 2.294 . S
O40 C49 1.240 . S
O41 In39 2.326 . S
O41 C49 1.252 . S
C42 O45 1.252 . S
C42 O46 1.260 . S
C43 O50 1.240 . S
C43 O51 1.252 . S
C44 O47 1.252 . S
C44 O48 1.260 . S
O45 In39 2.266 . S
O45 C42 1.252 . S
O46 In39 2.326 . S
O46 C42 1.260 . S
O47 In39 2.266 . S
O47 C44 1.252 . S
O48 In39 2.326 . S
O48 C44 1.260 . S
C49 O40 1.240 . S
C49 O41 1.252 . S
O50 In39 2.294 . S
O50 C43 1.240 . S
O51 In39 2.326 . S
O51 C43 1.252 . S
In52 O53 2.294 1_545 S
In52 O54 2.326 1_545 S
In52 O58 2.266 . S
In52 O59 2.326 . S
In52 O60 2.266 . S
In52 O61 2.326 . S
In52 O63 2.294 . S
In52 O64 2.326 . S
O53 In52 2.294 1_565 S
O53 C62 1.240 . S
O54 In52 2.326 1_565 S
O54 C62 1.252 . S
C55 O58 1.252 . S
C55 O59 1.260 . S
C56 O63 1.240 . S
C56 O64 1.252 . S
C57 O60 1.252 . S
C57 O61 1.260 . S
O58 In52 2.266 . S
O58 C55 1.252 . S
O59 In52 2.326 . S
O59 C55 1.260 . S
O60 In52 2.266 . S
O60 C57 1.252 . S
O61 In52 2.326 . S
O61 C57 1.260 . S
C62 O53 1.240 . S
C62 O54 1.252 . S
O63 In52 2.294 . S
O63 C56 1.240 . S
O64 In52 2.326 . S
O64 C56 1.252 . S
In65 O66 2.294 . S
In65 O67 2.326 . S
In65 O71 2.266 . S
In65 O72 2.326 . S
In65 O73 2.266 . S
In65 O74 2.326 . S
In65 O76 2.294 . S
In65 O77 2.326 . S
O66 In65 2.294 . S
O66 C75 1.240 . S
O67 In65 2.326 . S
O67 C75 1.252 . S
C68 O71 1.252 . S
C68 O72 1.260 . S
C69 O76 1.240 . S
C69 O77 1.252 . S
C70 O73 1.252 . S
C70 O74 1.260 . S
O71 In65 2.266 . S
O71 C68 1.252 . S
O72 In65 2.326 . S
O72 C68 1.260 . S
O73 In65 2.266 . S
O73 C70 1.252 . S
O74 In65 2.326 . S
O74 C70 1.260 . S
C75 O66 1.240 . S
C75 O67 1.252 . S
O76 In65 2.294 . S
O76 C69 1.240 . S
O77 In65 2.326 . S
O77 C69 1.252 . S
In78 O79 2.294 . S
In78 O80 2.326 . S
In78 O84 2.266 1_545 S
In78 O85 2.326 1_545 S
In78 O86 2.266 . S
In78 O87 2.326 . S
In78 O89 2.294 . S
In78 O90 2.326 . S
O79 In78 2.294 . S
O79 C88 1.240 . S
O80 In78 2.326 . S
O80 C88 1.252 . S
C81 O84 1.252 . S
C81 O85 1.260 . S
C82 O89 1.240 . S
C82 O90 1.252 . S
C83 O86 1.252 . S
C83 O87 1.260 . S
O84 In78 2.266 1_565 S
O84 C81 1.252 . S
O85 In78 2.326 1_565 S
O85 C81 1.260 . S
O86 In78 2.266 . S
O86 C83 1.252 . S
O87 In78 2.326 . S
O87 C83 1.260 . S
C88 O79 1.240 . S
C88 O80 1.252 . S
O89 In78 2.294 . S
O89 C82 1.240 . S
O90 In78 2.326 . S
O90 C82 1.252 . S
In91 O92 2.294 . S
In91 O93 2.326 . S
In91 O97 2.266 . S
In91 O98 2.326 . S
In91 O99 2.266 . S
In91 O100 2.326 1_554 S
In91 O102 2.294 . S
In91 O103 2.326 . S
O92 In91 2.294 . S
O92 C101 1.240 . S
O93 In91 2.326 . S
O93 C101 1.252 . S
C94 O97 1.252 . S
C94 O98 1.260 . S
C95 O102 1.240 . S
C95 O103 1.252 . S
C96 O99 1.252 1_556 S
C96 O100 1.260 . S
O97 In91 2.266 . S
O97 C94 1.252 . S
O98 In91 2.326 . S
O98 C94 1.260 . S
O99 In91 2.266 . S
O99 C96 1.252 1_554 S
O100 In91 2.326 1_556 S
O100 C96 1.260 . S
C101 O92 1.240 . S
C101 O93 1.252 . S
O102 In91 2.294 . S
O102 C95 1.240 . S
O103 In91 2.326 . S
O103 C95 1.252 . S
In104 O105 2.294 . S
In104 O106 2.326 . S
In104 O110 2.266 . S
In104 O111 2.326 . S
In104 O112 2.266 . S
In104 O113 2.326 . S
In104 O115 2.294 . S
In104 O116 2.326 . S
O105 In104 2.294 . S
O105 C114 1.240 . S
O106 In104 2.326 . S
O106 C114 1.252 . S
C107 O110 1.252 . S
C107 O111 1.260 . S
C108 O115 1.240 . S
C108 O116 1.252 . S
C109 O112 1.252 . S
C109 O113 1.260 . S
O110 In104 2.266 . S
O110 C107 1.252 . S
O111 In104 2.326 . S
O111 C107 1.260 . S
O112 In104 2.266 . S
O112 C109 1.252 . S
O113 In104 2.326 . S
O113 C109 1.260 . S
C114 O105 1.240 . S
C114 O106 1.252 . S
O115 In104 2.294 . S
O115 C108 1.240 . S
O116 In104 2.326 . S
O116 C108 1.252 . S
In117 O118 2.294 . S
In117 O119 2.326 . S
In117 O123 2.266 . S
In117 O124 2.326 . S
In117 O125 2.266 . S
In117 O126 2.326 . S
In117 O128 2.294 . S
In117 O129 2.326 . S
O118 In117 2.294 . S
O118 C127 1.240 . S
O119 In117 2.326 . S
O119 C127 1.252 . S
C120 O123 1.252 . S
C120 O124 1.260 . S
C121 O128 1.240 . S
C121 O129 1.252 . S
C122 O125 1.252 . S
C122 O126 1.260 . S
O123 In117 2.266 . S
O123 C120 1.252 . S
O124 In117 2.326 . S
O124 C120 1.260 . S
O125 In117 2.266 . S
O125 C122 1.252 . S
O126 In117 2.326 . S
O126 C122 1.260 . S
C127 O118 1.240 . S
C127 O119 1.252 . S
O128 In117 2.294 . S
O128 C121 1.240 . S
O129 In117 2.326 . S
O129 C121 1.252 . S
In130 O131 2.294 . S
In130 O132 2.326 . S
In130 O136 2.266 . S
In130 O137 2.326 . S
In130 O138 2.266 . S
In130 O139 2.326 . S
In130 O141 2.294 . S
In130 O142 2.326 . S
O131 In130 2.294 . S
O131 C140 1.240 . S
O132 In130 2.326 . S
O132 C140 1.252 . S
C133 O136 1.252 . S
C133 O137 1.260 . S
C134 O141 1.240 . S
C134 O142 1.252 . S
C135 O138 1.252 . S
C135 O139 1.260 . S
O136 In130 2.266 . S
O136 C133 1.252 . S
O137 In130 2.326 . S
O137 C133 1.260 . S
O138 In130 2.266 . S
O138 C135 1.252 . S
O139 In130 2.326 . S
O139 C135 1.260 . S
C140 O131 1.240 . S
C140 O132 1.252 . S
O141 In130 2.294 . S
O141 C134 1.240 . S
O142 In130 2.326 . S
O142 C134 1.252 . S
In143 O144 2.294 . S
In143 O145 2.326 . S
In143 O149 2.266 . S
In143 O150 2.326 . S
In143 O151 2.266 . S
In143 O152 2.326 . S
In143 O154 2.294 . S
In143 O155 2.326 . S
O144 In143 2.294 . S
O144 C153 1.240 . S
O145 In143 2.326 . S
O145 C153 1.252 . S
C146 O149 1.252 . S
C146 O150 1.260 . S
C147 O154 1.240 . S
C147 O155 1.252 . S
C148 O151 1.252 . S
C148 O152 1.260 . S
O149 In143 2.266 . S
O149 C146 1.252 . S
O150 In143 2.326 . S
O150 C146 1.260 . S
O151 In143 2.266 . S
O151 C148 1.252 . S
O152 In143 2.326 . S
O152 C148 1.260 . S
C153 O144 1.240 . S
C153 O145 1.252 . S
O154 In143 2.294 . S
O154 C147 1.240 . S
O155 In143 2.326 . S
O155 C147 1.252 . S
In156 O157 2.296 . S
In156 O158 2.330 . S
In156 O162 2.264 1_455 S
In156 O163 2.322 1_455 S
In156 O164 2.266 1_455 S
In156 O165 2.325 1_455 S
In156 O167 2.294 . S
In156 O168 2.327 . S
O157 In156 2.296 . S
O157 C166 1.240 . S
O158 In156 2.330 . S
O158 C166 1.252 . S
C159 O162 1.252 . S
C159 O163 1.260 . S
C160 O167 1.240 . S
C160 O168 1.252 . S
C161 O164 1.252 . S
C161 O165 1.260 . S
O162 In156 2.264 1_655 S
O162 C159 1.252 . S
O163 In156 2.322 1_655 S
O163 C159 1.260 . S
O164 In156 2.266 1_655 S
O164 C161 1.252 . S
O165 In156 2.325 1_655 S
O165 C161 1.260 . S
C166 O157 1.240 . S
C166 O158 1.252 . S
O167 In156 2.294 . S
O167 C160 1.240 . S
O168 In156 2.327 . S
O168 C160 1.252 . S
In169 O170 2.294 . S
In169 O171 2.326 . S
In169 O175 2.266 . S
In169 O176 2.326 . S
In169 O177 2.266 . S
In169 O178 2.326 1_455 S
In169 O180 2.294 . S
In169 O181 2.326 . S
O170 In169 2.294 . S
O170 C179 1.240 . S
O171 In169 2.326 . S
O171 C179 1.252 . S
C172 O175 1.252 . S
C172 O176 1.260 . S
C173 O180 1.240 . S
C173 O181 1.252 . S
C174 O177 1.252 1_655 S
C174 O178 1.260 . S
O175 In169 2.266 . S
O175 C172 1.252 . S
O176 In169 2.326 . S
O176 C172 1.260 . S
O177 In169 2.266 . S
O177 C174 1.252 1_455 S
O178 In169 2.326 1_655 S
O178 C174 1.260 . S
C179 O170 1.240 . S
C179 O171 1.252 . S
O180 In169 2.294 . S
O180 C173 1.240 . S
O181 In169 2.326 . S
O181 C173 1.252 . S
In182 O183 2.294 . S
In182 O184 2.326 . S
In182 O188 2.266 . S
In182 O189 2.326 . S
In182 O190 2.266 . S
In182 O191 2.326 . S
In182 O193 2.294 . S
In182 O194 2.326 . S
O183 In182 2.294 . S
O183 C192 1.240 . S
O184 In182 2.326 . S
O184 C192 1.252 . S
C185 O188 1.252 . S
C185 O189 1.260 . S
C186 O193 1.240 . S
C186 O194 1.252 . S
C187 O190 1.252 . S
C187 O191 1.260 . S
O188 In182 2.266 . S
O188 C185 1.252 . S
O189 In182 2.326 . S
O189 C185 1.260 . S
O190 In182 2.266 . S
O190 C187 1.252 . S
O191 In182 2.326 . S
O191 C187 1.260 . S
C192 O183 1.240 . S
C192 O184 1.252 . S
O193 In182 2.294 . S
O193 C186 1.240 . S
O194 In182 2.326 . S
O194 C186 1.252 . S
In195 O196 2.294 . S
In195 O197 2.326 . S
In195 O201 2.266 . S
In195 O202 2.326 . S
In195 O203 2.266 . S
In195 O204 2.326 . S
In195 O206 2.294 . S
In195 O207 2.326 . S
O196 In195 2.294 . S
O196 C205 1.240 . S
O197 In195 2.326 . S
O197 C205 1.252 . S
C198 O201 1.252 . S
C198 O202 1.260 . S
C199 O206 1.240 . S
C199 O207 1.252 . S
C200 O203 1.252 . S
C200 O204 1.260 . S
O201 In195 2.266 . S
O201 C198 1.252 . S
O202 In195 2.326 . S
O202 C198 1.260 . S
O203 In195 2.266 . S
O203 C200 1.252 . S
O204 In195 2.326 . S
O204 C200 1.260 . S
C205 O196 1.240 . S
C205 O197 1.252 . S
O206 In195 2.294 . S
O206 C199 1.240 . S
O207 In195 2.326 . S
O207 C199 1.252 . S
In208 O209 2.294 . S
In208 O210 2.326 . S
In208 O214 2.266 1_545 S
In208 O215 2.326 . S
In208 O216 2.266 1_545 S
In208 O217 2.326 1_545 S
In208 O219 2.294 . S
In208 O220 2.326 . S
O209 In208 2.294 . S
O209 C218 1.240 . S
O210 In208 2.326 . S
O210 C218 1.252 . S
C211 O214 1.254 . S
C211 O215 1.256 1_565 S
C212 O219 1.240 . S
C212 O220 1.252 . S
C213 O216 1.252 . S
C213 O217 1.260 . S
O214 In208 2.266 1_565 S
O214 C211 1.254 . S
O215 In208 2.326 . S
O215 C211 1.256 1_545 S
O216 In208 2.266 1_565 S
O216 C213 1.252 . S
O217 In208 2.326 1_565 S
O217 C213 1.260 . S
C218 O209 1.240 . S
C218 O210 1.252 . S
O219 In208 2.294 . S
O219 C212 1.240 . S
O220 In208 2.326 . S
O220 C212 1.252 . S
In221 O222 2.294 . S
In221 O223 2.326 . S
In221 O227 2.266 . S
In221 O228 2.326 . S
In221 O229 2.266 . S
In221 O230 2.326 . S
In221 O232 2.294 . S
In221 O233 2.326 . S
O222 In221 2.294 . S
O222 C231 1.240 . S
O223 In221 2.326 . S
O223 C231 1.252 . S
C224 O227 1.252 . S
C224 O228 1.260 . S
C225 O232 1.240 . S
C225 O233 1.252 . S
C226 O229 1.252 . S
C226 O230 1.260 . S
O227 In221 2.266 . S
O227 C224 1.252 . S
O228 In221 2.326 . S
O228 C224 1.260 . S
O229 In221 2.266 . S
O229 C226 1.252 . S
O230 In221 2.326 . S
O230 C226 1.260 . S
C231 O222 1.240 . S
C231 O223 1.252 . S
O232 In221 2.294 . S
O232 C225 1.240 . S
O233 In221 2.326 . S
O233 C225 1.252 . S
In234 O235 2.294 1_545 S
In234 O236 2.326 1_545 S
In234 O240 2.266 . S
In234 O241 2.326 . S
In234 O242 2.266 . S
In234 O243 2.326 . S
In234 O245 2.294 . S
In234 O246 2.326 . S
O235 In234 2.294 1_565 S
O235 C244 1.240 . S
O236 In234 2.326 1_565 S
O236 C244 1.252 . S
C237 O240 1.252 . S
C237 O241 1.260 . S
C238 O245 1.240 . S
C238 O246 1.252 . S
C239 O242 1.252 . S
C239 O243 1.260 . S
O240 In234 2.266 . S
O240 C237 1.252 . S
O241 In234 2.326 . S
O241 C237 1.260 . S
O242 In234 2.266 . S
O242 C239 1.252 . S
O243 In234 2.326 . S
O243 C239 1.260 . S
C244 O235 1.240 . S
C244 O236 1.252 . S
O245 In234 2.294 . S
O245 C238 1.240 . S
O246 In234 2.326 . S
O246 C238 1.252 . S
In247 O248 2.294 . S
In247 O249 2.326 . S
In247 O253 2.266 . S
In247 O254 2.326 . S
In247 O255 2.266 . S
In247 O256 2.326 1_554 S
In247 O258 2.294 . S
In247 O259 2.326 . S
O248 In247 2.294 . S
O248 C257 1.240 . S
O249 In247 2.326 . S
O249 C257 1.252 . S
C250 O253 1.252 . S
C250 O254 1.260 . S
C251 O258 1.240 . S
C251 O259 1.252 . S
C252 O255 1.252 1_556 S
C252 O256 1.260 . S
O253 In247 2.266 . S
O253 C250 1.252 . S
O254 In247 2.326 . S
O254 C250 1.260 . S
O255 In247 2.266 . S
O255 C252 1.252 1_554 S
O256 In247 2.326 1_556 S
O256 C252 1.260 . S
C257 O248 1.240 . S
C257 O249 1.252 . S
O258 In247 2.294 . S
O258 C251 1.240 . S
O259 In247 2.326 . S
O259 C251 1.252 . S
In260 O261 2.296 . S
In260 O262 2.330 . S
In260 O266 2.264 1_554 S
In260 O267 2.322 1_554 S
In260 O268 2.266 1_554 S
In260 O269 2.325 1_554 S
In260 O271 2.294 . S
In260 O272 2.326 . S
O261 In260 2.296 . S
O261 C270 1.240 . S
O262 In260 2.330 . S
O262 C270 1.252 . S
C263 O266 1.252 . S
C263 O267 1.260 . S
C264 O271 1.240 . S
C264 O272 1.252 . S
C265 O268 1.252 . S
C265 O269 1.260 . S
O266 In260 2.264 1_556 S
O266 C263 1.252 . S
O267 In260 2.322 1_556 S
O267 C263 1.260 . S
O268 In260 2.266 1_556 S
O268 C265 1.252 . S
O269 In260 2.325 1_556 S
O269 C265 1.260 . S
C270 O261 1.240 . S
C270 O262 1.252 . S
O271 In260 2.294 . S
O271 C264 1.240 . S
O272 In260 2.326 . S
O272 C264 1.252 . S
In273 O274 2.294 . S
In273 O275 2.326 . S
In273 O279 2.266 . S
In273 O280 2.326 . S
In273 O281 2.266 . S
In273 O282 2.326 . S
In273 O284 2.294 . S
In273 O285 2.326 . S
O274 In273 2.294 . S
O274 C283 1.240 . S
O275 In273 2.326 . S
O275 C283 1.252 . S
C276 O279 1.252 . S
C276 O280 1.260 . S
C277 O284 1.240 . S
C277 O285 1.252 . S
C278 O281 1.252 . S
C278 O282 1.260 . S
O279 In273 2.266 . S
O279 C276 1.252 . S
O280 In273 2.326 . S
O280 C276 1.260 . S
O281 In273 2.266 . S
O281 C278 1.252 . S
O282 In273 2.326 . S
O282 C278 1.260 . S
C283 O274 1.240 . S
C283 O275 1.252 . S
O284 In273 2.294 . S
O284 C277 1.240 . S
O285 In273 2.326 . S
O285 C277 1.252 . S
In286 O287 2.294 . S
In286 O288 2.326 . S
In286 O292 2.266 . S
In286 O293 2.326 . S
In286 O294 2.266 . S
In286 O295 2.326 . S
In286 O297 2.294 . S
In286 O298 2.326 . S
O287 In286 2.294 . S
O287 C296 1.240 . S
O288 In286 2.326 . S
O288 C296 1.252 . S
C289 O292 1.252 . S
C289 O293 1.260 . S
C290 O297 1.240 . S
C290 O298 1.252 . S
C291 O294 1.252 . S
C291 O295 1.260 . S
O292 In286 2.266 . S
O292 C289 1.252 . S
O293 In286 2.326 . S
O293 C289 1.260 . S
O294 In286 2.266 . S
O294 C291 1.252 . S
O295 In286 2.326 . S
O295 C291 1.260 . S
C296 O287 1.240 . S
C296 O288 1.252 . S
O297 In286 2.294 . S
O297 C290 1.240 . S
O298 In286 2.326 . S
O298 C290 1.252 . S
In299 O300 2.294 . S
In299 O301 2.326 . S
In299 O305 2.266 . S
In299 O306 2.326 . S
In299 O307 2.266 . S
In299 O308 2.326 . S
In299 O310 2.294 . S
In299 O311 2.326 . S
O300 In299 2.294 . S
O300 C309 1.240 . S
O301 In299 2.326 . S
O301 C309 1.252 . S
C302 O305 1.252 . S
C302 O306 1.260 . S
C303 O310 1.240 . S
C303 O311 1.252 . S
C304 O307 1.252 . S
C304 O308 1.260 . S
O305 In299 2.266 . S
O305 C302 1.252 . S
O306 In299 2.326 . S
O306 C302 1.260 . S
O307 In299 2.266 . S
O307 C304 1.252 . S
O308 In299 2.326 . S
O308 C304 1.260 . S
C309 O300 1.240 . S
C309 O301 1.252 . S
O310 In299 2.294 . S
O310 C303 1.240 . S
O311 In299 2.326 . S
O311 C303 1.252 . S
C312 O328 1.251 1_455 S
C312 O330 1.254 . S
N313 C314 1.312 1_565 S
N313 C318 1.307 . S
N313 Zn319 2.020 1_655 S
C314 N313 1.312 1_545 S
C314 C315 1.372 1_545 S
C314 H332 0.983 . S
C315 C314 1.372 1_565 S
C315 C316 1.390 . S
C315 H342 0.949 1_565 S
C316 C315 1.390 . S
C316 C317 1.357 . S
C317 C316 1.357 . S
C317 C318 1.370 . S
C317 H343 0.950 . S
C318 N313 1.307 . S
C318 C317 1.370 . S
C318 H336 0.948 . S
Zn319 N313 2.020 1_455 S
Zn319 O328 2.039 1_464 S
Zn319 O334 2.034 1_565 S
Zn319 O338 2.025 . S
Zn319 O340 2.024 . S
C320 O339 1.246 . S
C320 O340 1.249 . S
N321 C322 1.307 1_554 S
N321 C323 1.333 . S
N321 Zn327 2.020 . S
C322 N321 1.307 1_556 S
C322 C326 1.370 . S
C322 H333 0.948 . S
C323 N321 1.333 . S
C323 C324 1.379 . S
C323 H331 0.952 . S
C324 C323 1.379 . S
C324 C325 1.390 1_554 S
C324 H344 0.949 . S
C325 C324 1.390 1_556 S
C325 C326 1.357 . S
C326 C322 1.370 . S
C326 C325 1.357 . S
C326 H345 0.950 . S
Zn327 N321 2.020 . S
Zn327 O330 2.025 1_554 S
Zn327 O335 2.024 . S
Zn327 O337 2.039 . S
Zn327 O339 2.034 1_545 S
O328 C312 1.251 1_655 S
O328 Zn319 2.039 1_646 S
C329 O334 1.246 . S
C329 O335 1.249 . S
O330 C312 1.254 . S
O330 Zn327 2.025 1_556 S
H331 C323 0.952 . S
H332 C314 0.983 . S
H333 C322 0.948 . S
O334 Zn319 2.034 1_545 S
O334 C329 1.246 . S
O335 Zn327 2.024 . S
O335 C329 1.249 . S
H336 C318 0.948 . S
O337 Zn327 2.039 . S
O337 C341 1.251 1_545 S
O338 Zn319 2.025 . S
O338 C341 1.254 . S
O339 C320 1.246 . S
O339 Zn327 2.034 1_565 S
O340 Zn319 2.024 . S
O340 C320 1.249 . S
C341 O337 1.251 1_565 S
C341 O338 1.254 . S
H342 C315 0.949 1_545 S
H343 C317 0.950 . S
H344 C324 0.949 . S
H345 C326 0.950 . S
C346 O362 1.251 . S
C346 O364 1.254 . S
N347 C348 1.333 . S
N347 C352 1.307 . S
N347 Zn353 2.020 . S
C348 N347 1.333 . S
C348 C349 1.379 . S
C348 H366 0.952 . S
C349 C348 1.379 . S
C349 C350 1.390 . S
C349 H376 0.949 . S
C350 C349 1.390 . S
C350 C351 1.357 . S
C351 C350 1.357 . S
C351 C352 1.370 . S
C351 H377 0.950 . S
C352 N347 1.307 . S
C352 C351 1.370 . S
C352 H370 0.948 . S
Zn353 N347 2.020 . S
Zn353 O362 2.039 . S
Zn353 O368 2.034 . S
Zn353 O372 2.025 . S
Zn353 O374 2.024 . S
C354 O373 1.246 . S
C354 O374 1.249 . S
N355 C356 1.307 . S
N355 C357 1.333 . S
N355 Zn361 2.020 . S
C356 N355 1.307 . S
C356 C360 1.370 . S
C356 H367 0.948 . S
C357 N355 1.333 . S
C357 C358 1.379 . S
C357 H365 0.952 . S
C358 C357 1.379 . S
C358 C359 1.390 . S
C358 H378 0.949 . S
C359 C358 1.390 . S
C359 C360 1.357 . S
C360 C356 1.370 . S
C360 C359 1.357 . S
C360 H379 0.950 . S
Zn361 N355 2.020 . S
Zn361 O364 2.025 . S
Zn361 O369 2.024 . S
Zn361 O371 2.039 . S
Zn361 O373 2.034 . S
O362 C346 1.251 . S
O362 Zn353 2.039 . S
C363 O368 1.246 . S
C363 O369 1.249 . S
O364 C346 1.254 . S
O364 Zn361 2.025 . S
H365 C357 0.952 . S
H366 C348 0.952 . S
H367 C356 0.948 . S
O368 Zn353 2.034 . S
O368 C363 1.246 . S
O369 Zn361 2.024 . S
O369 C363 1.249 . S
H370 C352 0.948 . S
O371 Zn361 2.039 . S
O371 C375 1.251 . S
O372 Zn353 2.025 . S
O372 C375 1.254 . S
O373 C354 1.246 . S
O373 Zn361 2.034 . S
O374 Zn353 2.024 . S
O374 C354 1.249 . S
C375 O371 1.251 . S
C375 O372 1.254 . S
H376 C349 0.949 . S
H377 C351 0.950 . S
H378 C358 0.949 . S
H379 C360 0.950 . S
C380 O396 1.251 . S
C380 O398 1.254 . S
N381 C382 1.333 . S
N381 C386 1.307 . S
N381 Zn387 2.020 . S
C382 N381 1.333 . S
C382 C383 1.379 . S
C382 H400 0.952 . S
C383 C382 1.379 . S
C383 C384 1.390 . S
C383 H410 0.949 . S
C384 C383 1.390 . S
C384 C385 1.357 . S
C385 C384 1.357 . S
C385 C386 1.370 . S
C385 H411 0.950 . S
C386 N381 1.307 . S
C386 C385 1.370 . S
C386 H404 0.948 . S
Zn387 N381 2.020 . S
Zn387 O396 2.039 1_565 S
Zn387 O402 2.034 1_565 S
Zn387 O406 2.025 . S
Zn387 O408 2.024 . S
C388 O407 1.246 1_565 S
C388 O408 1.249 . S
N389 C390 1.307 . S
N389 C391 1.333 . S
N389 Zn395 2.020 . S
C390 N389 1.307 . S
C390 C394 1.370 . S
C390 H401 0.948 . S
C391 N389 1.333 . S
C391 C392 1.379 . S
C391 H399 0.952 . S
C392 C391 1.379 . S
C392 C393 1.390 . S
C392 H412 0.949 . S
C393 C392 1.390 . S
C393 C394 1.357 . S
C394 C390 1.370 . S
C394 C393 1.357 . S
C394 H413 0.950 . S
Zn395 N389 2.020 . S
Zn395 O398 2.025 . S
Zn395 O403 2.024 . S
Zn395 O405 2.039 . S
Zn395 O407 2.034 . S
O396 C380 1.251 . S
O396 Zn387 2.039 1_545 S
C397 O402 1.246 . S
C397 O403 1.249 . S
O398 C380 1.254 . S
O398 Zn395 2.025 . S
H399 C391 0.952 . S
H400 C382 0.952 . S
H401 C390 0.948 . S
O402 Zn387 2.034 1_545 S
O402 C397 1.246 . S
O403 Zn395 2.024 . S
O403 C397 1.249 . S
H404 C386 0.948 . S
O405 Zn395 2.039 . S
O405 C409 1.251 . S
O406 Zn387 2.025 . S
O406 C409 1.254 1_565 S
O407 C388 1.246 1_545 S
O407 Zn395 2.034 . S
O408 Zn387 2.024 . S
O408 C388 1.249 . S
C409 O405 1.251 . S
C409 O406 1.254 1_545 S
H410 C383 0.949 . S
H411 C385 0.950 . S
H412 C392 0.949 . S
H413 C394 0.950 . S
C414 O430 1.251 . S
C414 O432 1.254 . S
N415 C416 1.333 . S
N415 C420 1.307 . S
N415 Zn421 2.020 . S
C416 N415 1.333 . S
C416 C417 1.379 . S
C416 H434 0.952 . S
C417 C416 1.379 . S
C417 C418 1.390 . S
C417 H444 0.949 . S
C418 C417 1.390 . S
C418 C419 1.357 . S
C419 C418 1.357 . S
C419 C420 1.370 . S
C419 H445 0.950 . S
C420 N415 1.307 . S
C420 C419 1.370 . S
C420 H438 0.948 . S
Zn421 N415 2.020 . S
Zn421 O430 2.039 . S
Zn421 O436 2.034 . S
Zn421 O440 2.025 . S
Zn421 O442 2.024 . S
C422 O441 1.246 . S
C422 O442 1.249 . S
N423 C424 1.307 . S
N423 C425 1.333 . S
N423 Zn429 2.020 . S
C424 N423 1.307 . S
C424 C428 1.370 . S
C424 H435 0.948 . S
C425 N423 1.333 . S
C425 C426 1.379 . S
C425 H433 0.952 . S
C426 C425 1.379 . S
C426 C427 1.390 . S
C426 H446 0.949 . S
C427 C426 1.390 . S
C427 C428 1.357 . S
C428 C424 1.370 . S
C428 C427 1.357 . S
C428 H447 0.950 . S
Zn429 N423 2.020 . S
Zn429 O432 2.025 . S
Zn429 O437 2.024 . S
Zn429 O439 2.039 . S
Zn429 O441 2.034 . S
O430 C414 1.251 . S
O430 Zn421 2.039 . S
C431 O436 1.246 . S
C431 O437 1.249 . S
O432 C414 1.254 . S
O432 Zn429 2.025 . S
H433 C425 0.952 . S
H434 C416 0.952 . S
H435 C424 0.948 . S
O436 Zn421 2.034 . S
O436 C431 1.246 . S
O437 Zn429 2.024 . S
O437 C431 1.249 . S
H438 C420 0.948 . S
O439 Zn429 2.039 . S
O439 C443 1.251 . S
O440 Zn421 2.025 . S
O440 C443 1.254 . S
O441 C422 1.246 . S
O441 Zn429 2.034 . S
O442 Zn421 2.024 . S
O442 C422 1.249 . S
C443 O439 1.251 . S
C443 O440 1.254 . S
H444 C417 0.949 . S
H445 C419 0.950 . S
H446 C426 0.949 . S
H447 C428 0.950 . S
C448 O464 1.251 . S
C448 O466 1.253 1_545 S
N449 C450 1.333 . S
N449 C454 1.307 . S
N449 Zn455 2.020 . S
C450 N449 1.333 . S
C450 C451 1.379 . S
C450 H468 0.952 . S
C451 C450 1.379 . S
C451 C452 1.390 . S
C451 H478 0.949 . S
C452 C451 1.390 . S
C452 C453 1.357 . S
C453 C452 1.357 . S
C453 C454 1.370 . S
C453 H479 0.950 . S
C454 N449 1.307 . S
C454 C453 1.370 . S
C454 H472 0.948 . S
Zn455 N449 2.020 . S
Zn455 O464 2.039 . S
Zn455 O470 2.034 . S
Zn455 O474 2.013 1_455 S
Zn455 O476 2.024 1_545 S
C456 O475 1.246 . S
C456 O476 1.249 . S
N457 C458 1.307 . S
N457 C459 1.333 1_455 S
N457 Zn463 2.020 1_565 S
C458 N457 1.307 . S
C458 C462 1.370 . S
C458 H469 0.948 1_565 S
C459 N457 1.333 1_655 S
C459 C460 1.379 . S
C459 H467 0.952 . S
C460 C459 1.379 . S
C460 C461 1.390 . S
C460 H480 0.949 . S
C461 C460 1.390 . S
C461 C462 1.357 1_655 S
C462 C458 1.370 . S
C462 C461 1.357 1_455 S
C462 H481 0.950 . S
Zn463 N457 2.020 1_545 S
Zn463 O466 2.013 1_545 S
Zn463 O471 2.024 . S
Zn463 O473 2.039 1_455 S
Zn463 O475 2.034 1_545 S
O464 C448 1.251 . S
O464 Zn455 2.039 . S
C465 O470 1.246 . S
C465 O471 1.249 . S
O466 C448 1.253 1_565 S
O466 Zn463 2.013 1_565 S
H467 C459 0.952 . S
H468 C450 0.952 . S
H469 C458 0.948 1_545 S
O470 Zn455 2.034 . S
O470 C465 1.246 . S
O471 Zn463 2.024 . S
O471 C465 1.249 . S
H472 C454 0.948 . S
O473 Zn463 2.039 1_655 S
O473 C477 1.251 . S
O474 Zn455 2.013 1_655 S
O474 C477 1.263 . S
O475 C456 1.246 . S
O475 Zn463 2.034 1_565 S
O476 Zn455 2.024 1_565 S
O476 C456 1.249 . S
C477 O473 1.251 . S
C477 O474 1.263 . S
H478 C451 0.949 . S
H479 C453 0.950 . S
H480 C460 0.949 . S
H481 C462 0.950 . S
C482 O498 1.251 . S
C482 O500 1.254 . S
N483 C484 1.333 . S
N483 C488 1.307 . S
N483 Zn489 2.020 . S
C484 N483 1.333 . S
C484 C485 1.379 . S
C484 H502 0.952 . S
C485 C484 1.379 . S
C485 C486 1.390 . S
C485 H512 0.949 . S
C486 C485 1.390 . S
C486 C487 1.357 . S
C487 C486 1.357 . S
C487 C488 1.370 . S
C487 H513 0.950 . S
C488 N483 1.307 . S
C488 C487 1.370 . S
C488 H506 0.948 . S
Zn489 N483 2.020 . S
Zn489 O498 2.039 . S
Zn489 O504 2.034 . S
Zn489 O508 2.025 . S
Zn489 O510 2.024 . S
C490 O509 1.246 . S
C490 O510 1.249 . S
N491 C492 1.307 . S
N491 C493 1.333 . S
N491 Zn497 2.020 . S
C492 N491 1.307 . S
C492 C496 1.370 . S
C492 H503 0.948 . S
C493 N491 1.333 . S
C493 C494 1.379 . S
C493 H501 0.952 . S
C494 C493 1.379 . S
C494 C495 1.390 . S
C494 H514 0.949 . S
C495 C494 1.390 . S
C495 C496 1.357 . S
C496 C492 1.370 . S
C496 C495 1.357 . S
C496 H515 0.950 . S
Zn497 N491 2.020 . S
Zn497 O500 2.025 . S
Zn497 O505 2.024 . S
Zn497 O507 2.039 . S
Zn497 O509 2.034 . S
O498 C482 1.251 . S
O498 Zn489 2.039 . S
C499 O504 1.246 . S
C499 O505 1.249 . S
O500 C482 1.254 . S
O500 Zn497 2.025 . S
H501 C493 0.952 . S
H502 C484 0.952 . S
H503 C492 0.948 . S
O504 Zn489 2.034 . S
O504 C499 1.246 . S
O505 Zn497 2.024 . S
O505 C499 1.249 . S
H506 C488 0.948 . S
O507 Zn497 2.039 . S
O507 C511 1.251 . S
O508 Zn489 2.025 . S
O508 C511 1.254 . S
O509 C490 1.246 . S
O509 Zn497 2.034 . S
O510 Zn489 2.024 . S
O510 C490 1.249 . S
C511 O507 1.251 . S
C511 O508 1.254 . S
H512 C485 0.949 . S
H513 C487 0.950 . S
H514 C494 0.949 . S
H515 C496 0.950 . S
C516 O532 1.251 . S
C516 O534 1.254 . S
N517 C518 1.333 . S
N517 C522 1.307 . S
N517 Zn523 2.020 . S
C518 N517 1.333 . S
C518 C519 1.379 . S
C518 H536 0.952 1_545 S
C519 C518 1.379 . S
C519 C520 1.390 . S
C519 H546 0.949 . S
C520 C519 1.390 . S
C520 C521 1.357 . S
C521 C520 1.357 . S
C521 C522 1.370 . S
C521 H547 0.950 . S
C522 N517 1.307 . S
C522 C521 1.370 . S
C522 H540 0.948 . S
Zn523 N517 2.020 . S
Zn523 O532 2.039 1_545 S
Zn523 O538 2.034 . S
Zn523 O542 2.025 . S
Zn523 O544 2.024 1_545 S
C524 O543 1.246 . S
C524 O544 1.249 . S
N525 C526 1.307 . S
N525 C527 1.333 . S
N525 Zn531 2.020 1_556 S
C526 N525 1.307 . S
C526 C530 1.370 . S
C526 H537 0.948 . S
C527 N525 1.333 . S
C527 C528 1.379 . S
C527 H535 0.952 1_565 S
C528 C527 1.379 . S
C528 C529 1.390 . S
C528 H548 0.949 1_565 S
C529 C528 1.390 . S
C529 C530 1.357 . S
C530 C526 1.370 . S
C530 C529 1.357 . S
C530 H549 0.950 . S
Zn531 N525 2.020 1_554 S
Zn531 O534 2.025 . S
Zn531 O539 2.024 1_565 S
Zn531 O541 2.041 1_565 S
Zn531 O543 2.034 . S
O532 C516 1.251 . S
O532 Zn523 2.039 1_565 S
C533 O538 1.246 . S
C533 O539 1.249 . S
O534 C516 1.254 . S
O534 Zn531 2.025 . S
H535 C527 0.952 1_545 S
H536 C518 0.952 1_565 S
H537 C526 0.948 . S
O538 Zn523 2.034 . S
O538 C533 1.246 . S
O539 Zn531 2.024 1_545 S
O539 C533 1.249 . S
H540 C522 0.948 . S
O541 Zn531 2.041 1_545 S
O541 C545 1.256 . S
O542 Zn523 2.025 . S
O542 C545 1.254 . S
O543 C524 1.246 . S
O543 Zn531 2.034 . S
O544 Zn523 2.024 1_565 S
O544 C524 1.249 . S
C545 O541 1.256 . S
C545 O542 1.254 . S
H546 C519 0.949 . S
H547 C521 0.950 . S
H548 C528 0.949 1_545 S
H549 C530 0.950 . S
C550 O566 1.251 . S
C550 O568 1.254 . S
N551 C552 1.333 . S
N551 C556 1.307 . S
N551 Zn557 2.020 . S
C552 N551 1.333 . S
C552 C553 1.379 . S
C552 H570 0.952 . S
C553 C552 1.379 . S
C553 C554 1.390 . S
C553 H580 0.949 . S
C554 C553 1.390 . S
C554 C555 1.357 . S
C555 C554 1.357 . S
C555 C556 1.370 . S
C555 H581 0.950 . S
C556 N551 1.307 . S
C556 C555 1.370 . S
C556 H574 0.948 . S
Zn557 N551 2.020 . S
Zn557 O566 2.039 . S
Zn557 O572 2.034 . S
Zn557 O576 2.025 . S
Zn557 O578 2.024 . S
C558 O577 1.246 . S
C558 O578 1.249 . S
N559 C560 1.307 . S
N559 C561 1.333 . S
N559 Zn565 2.020 . S
C560 N559 1.307 . S
C560 C564 1.370 . S
C560 H571 0.948 . S
C561 N559 1.333 . S
C561 C562 1.379 . S
C561 H569 0.952 . S
C562 C561 1.379 . S
C562 C563 1.390 . S
C562 H582 0.949 . S
C563 C562 1.390 . S
C563 C564 1.357 . S
C564 C560 1.370 . S
C564 C563 1.357 . S
C564 H583 0.950 . S
Zn565 N559 2.020 . S
Zn565 O568 2.025 . S
Zn565 O573 2.024 . S
Zn565 O575 2.039 . S
Zn565 O577 2.034 . S
O566 C550 1.251 . S
O566 Zn557 2.039 . S
C567 O572 1.246 . S
C567 O573 1.249 . S
O568 C550 1.254 . S
O568 Zn565 2.025 . S
H569 C561 0.952 . S
H570 C552 0.952 . S
H571 C560 0.948 . S
O572 Zn557 2.034 . S
O572 C567 1.246 . S
O573 Zn565 2.024 . S
O573 C567 1.249 . S
H574 C556 0.948 . S
O575 Zn565 2.039 . S
O575 C579 1.251 . S
O576 Zn557 2.025 . S
O576 C579 1.254 . S
O577 C558 1.246 . S
O577 Zn565 2.034 . S
O578 Zn557 2.024 . S
O578 C558 1.249 . S
C579 O575 1.251 . S
C579 O576 1.254 . S
H580 C553 0.949 . S
H581 C555 0.950 . S
H582 C562 0.949 . S
H583 C564 0.950 . S
C584 O600 1.251 . S
C584 O602 1.254 . S
N585 C586 1.333 . S
N585 C590 1.307 . S
N585 Zn591 2.020 1_556 S
C586 N585 1.333 . S
C586 C587 1.379 . S
C586 H604 0.952 . S
C587 C586 1.379 . S
C587 C588 1.390 . S
C587 H614 0.949 . S
C588 C587 1.390 . S
C588 C589 1.357 . S
C589 C588 1.357 . S
C589 C590 1.370 . S
C589 H615 0.950 . S
C590 N585 1.307 . S
C590 C589 1.370 . S
C590 H608 0.948 . S
Zn591 N585 2.020 1_554 S
Zn591 O600 2.039 . S
Zn591 O606 2.034 . S
Zn591 O610 2.025 . S
Zn591 O612 2.024 1_554 S
C592 O611 1.246 . S
C592 O612 1.249 1_554 S
N593 C594 1.307 . S
N593 C595 1.333 . S
N593 Zn599 2.020 . S
C594 N593 1.307 . S
C594 C598 1.370 . S
C594 H605 0.948 . S
C595 N593 1.333 . S
C595 C596 1.379 . S
C595 H603 0.952 . S
C596 C595 1.379 . S
C596 C597 1.390 . S
C596 H616 0.949 . S
C597 C596 1.390 . S
C597 C598 1.357 . S
C598 C594 1.370 . S
C598 C597 1.357 . S
C598 H617 0.950 . S
Zn599 N593 2.020 . S
Zn599 O602 2.025 . S
Zn599 O607 2.024 . S
Zn599 O609 2.039 . S
Zn599 O611 2.034 . S
O600 C584 1.251 . S
O600 Zn591 2.039 . S
C601 O606 1.246 . S
C601 O607 1.249 . S
O602 C584 1.254 . S
O602 Zn599 2.025 . S
H603 C595 0.952 . S
H604 C586 0.952 . S
H605 C594 0.948 . S
O606 Zn591 2.034 . S
O606 C601 1.246 . S
O607 Zn599 2.024 . S
O607 C601 1.249 . S
H608 C590 0.948 . S
O609 Zn599 2.039 . S
O609 C613 1.251 . S
O610 Zn591 2.025 . S
O610 C613 1.254 . S
O611 C592 1.246 . S
O611 Zn599 2.034 . S
O612 Zn591 2.024 1_556 S
O612 C592 1.249 1_556 S
C613 O609 1.251 . S
C613 O610 1.254 . S
H614 C587 0.949 . S
H615 C589 0.950 . S
H616 C596 0.949 . S
H617 C598 0.950 . S
C618 O634 1.251 . S
C618 O636 1.254 . S
N619 C620 1.333 . S
N619 C624 1.307 . S
N619 Zn625 2.020 . S
C620 N619 1.333 . S
C620 C621 1.379 . S
C620 H638 0.952 . S
C621 C620 1.379 . S
C621 C622 1.390 . S
C621 H648 0.949 . S
C622 C621 1.390 . S
C622 C623 1.357 . S
C623 C622 1.357 . S
C623 C624 1.370 . S
C623 H649 0.950 . S
C624 N619 1.307 . S
C624 C623 1.370 . S
C624 H642 0.948 . S
Zn625 N619 2.020 . S
Zn625 O634 2.039 . S
Zn625 O640 2.034 . S
Zn625 O644 2.025 . S
Zn625 O646 2.024 . S
C626 O645 1.246 . S
C626 O646 1.249 . S
N627 C628 1.307 . S
N627 C629 1.333 . S
N627 Zn633 2.020 . S
C628 N627 1.307 . S
C628 C632 1.370 . S
C628 H639 0.948 . S
C629 N627 1.333 . S
C629 C630 1.379 . S
C629 H637 0.952 . S
C630 C629 1.379 . S
C630 C631 1.390 . S
C630 H650 0.949 . S
C631 C630 1.390 . S
C631 C632 1.357 . S
C632 C628 1.370 . S
C632 C631 1.357 . S
C632 H651 0.950 . S
Zn633 N627 2.020 . S
Zn633 O636 2.025 . S
Zn633 O641 2.024 . S
Zn633 O643 2.039 . S
Zn633 O645 2.034 . S
O634 C618 1.251 . S
O634 Zn625 2.039 . S
C635 O640 1.246 . S
C635 O641 1.249 . S
O636 C618 1.254 . S
O636 Zn633 2.025 . S
H637 C629 0.952 . S
H638 C620 0.952 . S
H639 C628 0.948 . S
O640 Zn625 2.034 . S
O640 C635 1.246 . S
O641 Zn633 2.024 . S
O641 C635 1.249 . S
H642 C624 0.948 . S
O643 Zn633 2.039 . S
O643 C647 1.251 . S
O644 Zn625 2.025 . S
O644 C647 1.254 . S
O645 C626 1.246 . S
O645 Zn633 2.034 . S
O646 Zn625 2.024 . S
O646 C626 1.249 . S
C647 O643 1.251 . S
C647 O644 1.254 . S
H648 C621 0.949 . S
H649 C623 0.950 . S
H650 C630 0.949 . S
H651 C632 0.950 . S
C652 O668 1.251 . S
C652 O670 1.254 . S
N653 C654 1.333 . S
N653 C658 1.307 . S
N653 Zn659 2.020 . S
C654 N653 1.333 . S
C654 C655 1.379 . S
C654 H672 0.952 . S
C655 C654 1.379 . S
C655 C656 1.390 . S
C655 H682 0.949 . S
C656 C655 1.390 . S
C656 C657 1.357 . S
C657 C656 1.357 . S
C657 C658 1.370 . S
C657 H683 0.950 . S
C658 N653 1.307 . S
C658 C657 1.370 . S
C658 H676 0.948 . S
Zn659 N653 2.020 . S
Zn659 O668 2.039 . S
Zn659 O674 2.034 . S
Zn659 O678 2.025 . S
Zn659 O680 2.024 . S
C660 O679 1.246 . S
C660 O680 1.249 . S
N661 C662 1.307 1_455 S
N661 C663 1.333 . S
N661 Zn667 2.020 . S
C662 N661 1.307 1_655 S
C662 C666 1.370 . S
C662 H673 0.948 . S
C663 N661 1.333 . S
C663 C664 1.379 . S
C663 H671 0.952 . S
C664 C663 1.379 . S
C664 C665 1.390 1_455 S
C664 H684 0.949 . S
C665 C664 1.390 1_655 S
C665 C666 1.357 . S
C666 C662 1.370 . S
C666 C665 1.357 . S
C666 H685 0.950 . S
Zn667 N661 2.020 . S
Zn667 O670 2.025 . S
Zn667 O675 2.024 1_455 S
Zn667 O677 2.039 . S
Zn667 O679 2.034 . S
O668 C652 1.251 . S
O668 Zn659 2.039 . S
C669 O674 1.246 1_655 S
C669 O675 1.249 . S
O670 C652 1.254 . S
O670 Zn667 2.025 . S
H671 C663 0.952 . S
H672 C654 0.952 . S
H673 C662 0.948 . S
O674 Zn659 2.034 . S
O674 C669 1.246 1_455 S
O675 Zn667 2.024 1_655 S
O675 C669 1.249 . S
H676 C658 0.948 . S
O677 Zn667 2.039 . S
O677 C681 1.251 . S
O678 Zn659 2.025 . S
O678 C681 1.254 . S
O679 C660 1.246 . S
O679 Zn667 2.034 . S
O680 Zn659 2.024 . S
O680 C660 1.249 . S
C681 O677 1.251 . S
C681 O678 1.254 . S
H682 C655 0.949 . S
H683 C657 0.950 . S
H684 C664 0.949 . S
H685 C666 0.950 . S
C686 O702 1.251 . S
C686 O704 1.254 . S
N687 C688 1.333 . S
N687 C692 1.307 . S
N687 Zn693 2.020 . S
C688 N687 1.333 . S
C688 C689 1.379 . S
C688 H706 0.952 . S
C689 C688 1.379 . S
C689 C690 1.390 . S
C689 H716 0.949 . S
C690 C689 1.390 . S
C690 C691 1.357 . S
C691 C690 1.357 . S
C691 C692 1.370 . S
C691 H717 0.950 . S
C692 N687 1.307 . S
C692 C691 1.370 . S
C692 H710 0.948 . S
Zn693 N687 2.020 . S
Zn693 O702 2.039 . S
Zn693 O708 2.034 . S
Zn693 O712 2.025 . S
Zn693 O714 2.024 . S
C694 O713 1.246 . S
C694 O714 1.249 . S
N695 C696 1.307 . S
N695 C697 1.333 . S
N695 Zn701 2.020 . S
C696 N695 1.307 . S
C696 C700 1.370 . S
C696 H707 0.948 . S
C697 N695 1.333 . S
C697 C698 1.379 . S
C697 H705 0.952 . S
C698 C697 1.379 . S
C698 C699 1.390 . S
C698 H718 0.949 . S
C699 C698 1.390 . S
C699 C700 1.357 . S
C700 C696 1.370 . S
C700 C699 1.357 . S
C700 H719 0.950 . S
Zn701 N695 2.020 . S
Zn701 O704 2.025 . S
Zn701 O709 2.024 . S
Zn701 O711 2.039 . S
Zn701 O713 2.034 . S
O702 C686 1.251 . S
O702 Zn693 2.039 . S
C703 O708 1.246 . S
C703 O709 1.249 . S
O704 C686 1.254 . S
O704 Zn701 2.025 . S
H705 C697 0.952 . S
H706 C688 0.952 . S
H707 C696 0.948 . S
O708 Zn693 2.034 . S
O708 C703 1.246 . S
O709 Zn701 2.024 . S
O709 C703 1.249 . S
H710 C692 0.948 . S
O711 Zn701 2.039 . S
O711 C715 1.251 . S
O712 Zn693 2.025 . S
O712 C715 1.254 . S
O713 C694 1.246 . S
O713 Zn701 2.034 . S
O714 Zn693 2.024 . S
O714 C694 1.249 . S
C715 O711 1.251 . S
C715 O712 1.254 . S
H716 C689 0.949 . S
H717 C691 0.950 . S
H718 C698 0.949 . S
H719 C700 0.950 . S
C720 O736 1.251 . S
C720 O738 1.254 . S
N721 C722 1.333 . S
N721 C726 1.307 . S
N721 Zn727 2.020 . S
C722 N721 1.333 . S
C722 C723 1.379 . S
C722 H740 0.952 . S
C723 C722 1.379 . S
C723 C724 1.390 . S
C723 H750 0.949 . S
C724 C723 1.390 . S
C724 C725 1.357 . S
C725 C724 1.357 . S
C725 C726 1.370 . S
C725 H751 0.950 . S
C726 N721 1.307 . S
C726 C725 1.370 . S
C726 H744 0.948 . S
Zn727 N721 2.020 . S
Zn727 O736 2.039 . S
Zn727 O742 2.034 . S
Zn727 O746 2.025 . S
Zn727 O748 2.024 . S
C728 O747 1.246 . S
C728 O748 1.249 . S
N729 C730 1.307 . S
N729 C731 1.333 . S
N729 Zn735 2.020 . S
C730 N729 1.307 . S
C730 C734 1.370 . S
C730 H741 0.948 . S
C731 N729 1.333 . S
C731 C732 1.379 . S
C731 H739 0.952 . S
C732 C731 1.379 . S
C732 C733 1.390 . S
C732 H752 0.949 . S
C733 C732 1.390 . S
C733 C734 1.357 . S
C734 C730 1.370 . S
C734 C733 1.357 . S
C734 H753 0.950 . S
Zn735 N729 2.020 . S
Zn735 O738 2.025 . S
Zn735 O743 2.024 . S
Zn735 O745 2.039 . S
Zn735 O747 2.034 . S
O736 C720 1.251 . S
O736 Zn727 2.039 . S
C737 O742 1.246 . S
C737 O743 1.249 . S
O738 C720 1.254 . S
O738 Zn735 2.025 . S
H739 C731 0.952 . S
H740 C722 0.952 . S
H741 C730 0.948 . S
O742 Zn727 2.034 . S
O742 C737 1.246 . S
O743 Zn735 2.024 . S
O743 C737 1.249 . S
H744 C726 0.948 . S
O745 Zn735 2.039 . S
O745 C749 1.251 . S
O746 Zn727 2.025 . S
O746 C749 1.254 . S
O747 C728 1.246 . S
O747 Zn735 2.034 . S
O748 Zn727 2.024 . S
O748 C728 1.249 . S
C749 O745 1.251 . S
C749 O746 1.254 . S
H750 C723 0.949 . S
H751 C725 0.950 . S
H752 C732 0.949 . S
H753 C734 0.950 . S
C754 O770 1.251 . S
C754 O772 1.254 . S
N755 C756 1.333 . S
N755 C760 1.307 . S
N755 Zn761 2.020 . S
C756 N755 1.333 . S
C756 C757 1.379 . S
C756 H774 0.952 . S
C757 C756 1.379 . S
C757 C758 1.390 . S
C757 H784 0.949 . S
C758 C757 1.390 . S
C758 C759 1.357 . S
C759 C758 1.357 . S
C759 C760 1.370 . S
C759 H785 0.950 . S
C760 N755 1.307 . S
C760 C759 1.370 . S
C760 H778 0.948 . S
Zn761 N755 2.020 . S
Zn761 O770 2.039 . S
Zn761 O776 2.034 . S
Zn761 O780 2.025 . S
Zn761 O782 2.024 . S
C762 O781 1.246 . S
C762 O782 1.249 . S
N763 C764 1.307 . S
N763 C765 1.333 . S
N763 Zn769 2.020 . S
C764 N763 1.307 . S
C764 C768 1.370 . S
C764 H775 0.948 . S
C765 N763 1.333 . S
C765 C766 1.379 . S
C765 H773 0.952 . S
C766 C765 1.379 . S
C766 C767 1.390 . S
C766 H786 0.949 . S
C767 C766 1.390 . S
C767 C768 1.357 . S
C768 C764 1.370 . S
C768 C767 1.357 . S
C768 H787 0.950 . S
Zn769 N763 2.020 . S
Zn769 O772 2.025 . S
Zn769 O777 2.024 . S
Zn769 O779 2.039 . S
Zn769 O781 2.034 . S
O770 C754 1.251 . S
O770 Zn761 2.039 . S
C771 O776 1.246 . S
C771 O777 1.249 . S
O772 C754 1.254 . S
O772 Zn769 2.025 . S
H773 C765 0.952 . S
H774 C756 0.952 . S
H775 C764 0.948 . S
O776 Zn761 2.034 . S
O776 C771 1.246 . S
O777 Zn769 2.024 . S
O777 C771 1.249 . S
H778 C760 0.948 . S
O779 Zn769 2.039 . S
O779 C783 1.251 . S
O780 Zn761 2.025 . S
O780 C783 1.254 . S
O781 C762 1.246 . S
O781 Zn769 2.034 . S
O782 Zn761 2.024 . S
O782 C762 1.249 . S
C783 O779 1.251 . S
C783 O780 1.254 . S
H784 C757 0.949 . S
H785 C759 0.950 . S
H786 C766 0.949 . S
H787 C768 0.950 . S
C788 O804 1.251 . S
C788 O806 1.254 . S
N789 C790 1.333 . S
N789 C794 1.307 . S
N789 Zn795 2.020 . S
C790 N789 1.333 . S
C790 C791 1.379 . S
C790 H808 0.952 . S
C791 C790 1.379 . S
C791 C792 1.390 . S
C791 H818 0.949 . S
C792 C791 1.390 . S
C792 C793 1.357 . S
C793 C792 1.357 . S
C793 C794 1.370 . S
C793 H819 0.950 . S
C794 N789 1.307 . S
C794 C793 1.370 . S
C794 H812 0.948 . S
Zn795 N789 2.020 . S
Zn795 O804 2.039 . S
Zn795 O810 2.034 . S
Zn795 O814 2.025 . S
Zn795 O816 2.024 . S
C796 O815 1.246 . S
C796 O816 1.249 . S
N797 C798 1.307 . S
N797 C799 1.333 . S
N797 Zn803 2.020 . S
C798 N797 1.307 . S
C798 C802 1.370 . S
C798 H809 0.948 . S
C799 N797 1.333 . S
C799 C800 1.379 . S
C799 H807 0.952 . S
C800 C799 1.379 . S
C800 C801 1.390 . S
C800 H820 0.949 . S
C801 C800 1.390 . S
C801 C802 1.357 . S
C802 C798 1.370 . S
C802 C801 1.357 . S
C802 H821 0.950 . S
Zn803 N797 2.020 . S
Zn803 O806 2.025 . S
Zn803 O811 2.024 . S
Zn803 O813 2.039 . S
Zn803 O815 2.034 . S
O804 C788 1.251 . S
O804 Zn795 2.039 . S
C805 O810 1.246 . S
C805 O811 1.249 . S
O806 C788 1.254 . S
O806 Zn803 2.025 . S
H807 C799 0.952 . S
H808 C790 0.952 . S
H809 C798 0.948 . S
O810 Zn795 2.034 . S
O810 C805 1.246 . S
O811 Zn803 2.024 . S
O811 C805 1.249 . S
H812 C794 0.948 . S
O813 Zn803 2.039 . S
O813 C817 1.251 . S
O814 Zn795 2.025 . S
O814 C817 1.254 . S
O815 C796 1.246 . S
O815 Zn803 2.034 . S
O816 Zn795 2.024 . S
O816 C796 1.249 . S
C817 O813 1.251 . S
C817 O814 1.254 . S
H818 C791 0.949 . S
H819 C793 0.950 . S
H820 C800 0.949 . S
H821 C802 0.950 . S
C822 O838 1.251 . S
C822 O840 1.254 . S
N823 C824 1.333 . S
N823 C828 1.307 . S
N823 Zn829 2.020 . S
C824 N823 1.333 . S
C824 C825 1.379 . S
C824 H842 0.952 . S
C825 C824 1.379 . S
C825 C826 1.390 . S
C825 H852 0.949 . S
C826 C825 1.390 . S
C826 C827 1.357 . S
C827 C826 1.357 . S
C827 C828 1.370 . S
C827 H853 0.950 . S
C828 N823 1.307 . S
C828 C827 1.370 . S
C828 H846 0.948 . S
Zn829 N823 2.020 . S
Zn829 O838 2.039 . S
Zn829 O844 2.034 . S
Zn829 O848 2.025 1_554 S
Zn829 O850 2.024 . S
C830 O849 1.256 . S
C830 O850 1.249 1_655 S
N831 C832 1.307 . S
N831 C833 1.333 1_554 S
N831 Zn837 2.020 . S
C832 N831 1.307 . S
C832 C836 1.370 . S
C832 H843 0.948 . S
C833 N831 1.333 1_556 S
C833 C834 1.379 . S
C833 H841 0.952 . S
C834 C833 1.379 . S
C834 C835 1.390 . S
C834 H854 0.949 . S
C835 C834 1.390 . S
C835 C836 1.357 1_556 S
C836 C832 1.370 . S
C836 C835 1.357 1_554 S
C836 H855 0.950 . S
Zn837 N831 2.020 . S
Zn837 O840 2.025 . S
Zn837 O845 2.024 . S
Zn837 O847 2.039 1_554 S
Zn837 O849 2.001 1_455 S
O838 C822 1.251 . S
O838 Zn829 2.039 . S
C839 O844 1.246 . S
C839 O845 1.249 . S
O840 C822 1.254 . S
O840 Zn837 2.025 . S
H841 C833 0.952 . S
H842 C824 0.952 . S
H843 C832 0.948 . S
O844 Zn829 2.034 . S
O844 C839 1.246 . S
O845 Zn837 2.024 . S
O845 C839 1.249 . S
H846 C828 0.948 . S
O847 Zn837 2.039 1_556 S
O847 C851 1.251 . S
O848 Zn829 2.025 1_556 S
O848 C851 1.254 . S
O849 C830 1.256 . S
O849 Zn837 2.001 1_655 S
O850 Zn829 2.024 . S
O850 C830 1.249 1_455 S
C851 O847 1.251 . S
C851 O848 1.254 . S
H852 C825 0.949 . S
H853 C827 0.950 . S
H854 C834 0.949 . S
H855 C836 0.950 . S
H856 C864 0.950 . S
H857 C869 0.950 . S
H858 C866 0.950 . S
H859 C868 0.950 . S
H860 C870 0.950 . S
H861 C872 0.950 . S
H862 C874 0.950 . S
H863 C875 0.950 . S
C864 H856 0.950 . S
C864 C865 1.386 . S
C864 C866 1.391 . S
C865 C864 1.386 . S
C865 C869 1.393 . S
C866 H858 0.950 . S
C866 C864 1.391 . S
C866 C867 1.400 . S
C867 C866 1.400 . S
C867 C868 1.398 . S
C867 C873 1.491 . S
C868 H859 0.950 . S
C868 C867 1.398 . S
C868 C869 1.391 . S
C869 H857 0.950 . S
C869 C865 1.393 . S
C869 C868 1.391 . S
C870 H860 0.950 . S
C870 C871 1.386 . S
C870 C872 1.391 . S
C871 C870 1.386 . S
C871 C875 1.393 . S
C872 H861 0.950 . S
C872 C870 1.391 . S
C872 C873 1.400 . S
C873 C867 1.491 . S
C873 C872 1.400 . S
C873 C874 1.398 . S
C874 H862 0.950 . S
C874 C873 1.398 . S
C874 C875 1.391 . S
C875 H863 0.950 . S
C875 C871 1.393 . S
C875 C874 1.391 . S
H876 C884 0.950 . S
H877 C889 0.950 . S
H878 C886 0.950 . S
H879 C888 0.950 . S
H880 C890 0.950 . S
H881 C892 0.950 . S
H882 C894 0.950 . S
H883 C895 0.950 . S
C884 H876 0.950 . S
C884 C885 1.386 . S
C884 C886 1.391 . S
C885 C884 1.386 . S
C885 C889 1.393 . S
C886 H878 0.950 . S
C886 C884 1.391 . S
C886 C887 1.400 . S
C887 C886 1.400 . S
C887 C888 1.398 . S
C887 C893 1.491 . S
C888 H879 0.950 . S
C888 C887 1.398 . S
C888 C889 1.391 . S
C889 H877 0.950 . S
C889 C885 1.393 . S
C889 C888 1.391 . S
C890 H880 0.950 . S
C890 C891 1.386 . S
C890 C892 1.391 . S
C891 C890 1.386 . S
C891 C895 1.393 . S
C892 H881 0.950 . S
C892 C890 1.391 . S
C892 C893 1.400 . S
C893 C887 1.491 . S
C893 C892 1.400 . S
C893 C894 1.398 . S
C894 H882 0.950 . S
C894 C893 1.398 . S
C894 C895 1.391 . S
C895 H883 0.950 . S
C895 C891 1.393 . S
C895 C894 1.391 . S
H896 C904 0.950 . S
H897 C909 0.950 . S
H898 C906 0.950 . S
H899 C908 0.950 . S
H900 C910 0.950 . S
H901 C912 0.950 . S
H902 C914 0.950 . S
H903 C915 0.950 . S
C904 H896 0.950 . S
C904 C905 1.386 . S
C904 C906 1.391 . S
C905 C904 1.386 . S
C905 C909 1.393 . S
C906 H898 0.950 . S
C906 C904 1.391 . S
C906 C907 1.400 . S
C907 C906 1.400 . S
C907 C908 1.398 . S
C907 C913 1.491 . S
C908 H899 0.950 . S
C908 C907 1.398 . S
C908 C909 1.391 . S
C909 H897 0.950 . S
C909 C905 1.393 . S
C909 C908 1.391 . S
C910 H900 0.950 . S
C910 C911 1.386 . S
C910 C912 1.391 . S
C911 C910 1.386 . S
C911 C915 1.393 . S
C912 H901 0.950 . S
C912 C910 1.391 . S
C912 C913 1.400 . S
C913 C907 1.491 . S
C913 C912 1.400 . S
C913 C914 1.398 . S
C914 H902 0.950 . S
C914 C913 1.398 . S
C914 C915 1.391 . S
C915 H903 0.950 . S
C915 C911 1.393 . S
C915 C914 1.391 . S
H916 C924 0.950 . S
H917 C929 0.950 . S
H918 C926 0.950 . S
H919 C928 0.950 . S
H920 C930 0.950 . S
H921 C932 0.950 . S
H922 C934 0.950 . S
H923 C935 0.950 . S
C924 H916 0.950 . S
C924 C925 1.386 . S
C924 C926 1.391 . S
C925 C924 1.386 . S
C925 C929 1.393 . S
C926 H918 0.950 . S
C926 C924 1.391 . S
C926 C927 1.400 . S
C927 C926 1.400 . S
C927 C928 1.398 . S
C927 C933 1.491 . S
C928 H919 0.950 . S
C928 C927 1.398 . S
C928 C929 1.391 . S
C929 H917 0.950 . S
C929 C925 1.393 . S
C929 C928 1.391 . S
C930 H920 0.950 . S
C930 C931 1.386 . S
C930 C932 1.391 . S
C931 C930 1.386 . S
C931 C935 1.393 . S
C932 H921 0.950 . S
C932 C930 1.391 . S
C932 C933 1.400 . S
C933 C927 1.491 . S
C933 C932 1.400 . S
C933 C934 1.398 . S
C934 H922 0.950 . S
C934 C933 1.398 . S
C934 C935 1.391 . S
C935 H923 0.950 . S
C935 C931 1.393 . S
C935 C934 1.391 . S
H936 C944 0.950 . S
H937 C949 0.950 . S
H938 C946 0.950 . S
H939 C948 0.950 . S
H940 C950 0.950 . S
H941 C952 0.950 . S
H942 C954 0.950 . S
H943 C955 0.950 . S
C944 H936 0.950 . S
C944 C945 1.386 . S
C944 C946 1.391 . S
C945 C944 1.386 . S
C945 C949 1.393 . S
C946 H938 0.950 . S
C946 C944 1.391 . S
C946 C947 1.400 . S
C947 C946 1.400 . S
C947 C948 1.398 . S
C947 C953 1.491 . S
C948 H939 0.950 . S
C948 C947 1.398 . S
C948 C949 1.391 . S
C949 H937 0.950 . S
C949 C945 1.393 . S
C949 C948 1.391 . S
C950 H940 0.950 . S
C950 C951 1.386 . S
C950 C952 1.391 . S
C951 C950 1.386 . S
C951 C955 1.393 . S
C952 H941 0.950 . S
C952 C950 1.391 . S
C952 C953 1.400 . S
C953 C947 1.491 . S
C953 C952 1.400 . S
C953 C954 1.398 . S
C954 H942 0.950 . S
C954 C953 1.398 . S
C954 C955 1.391 . S
C955 H943 0.950 . S
C955 C951 1.393 . S
C955 C954 1.391 . S
H956 C964 0.950 . S
H957 C969 0.950 . S
H958 C966 0.950 . S
H959 C968 0.950 . S
H960 C970 0.950 . S
H961 C972 0.950 . S
H962 C974 0.950 . S
H963 C975 0.950 . S
C964 H956 0.950 . S
C964 C965 1.386 . S
C964 C966 1.391 . S
C965 C964 1.386 . S
C965 C969 1.393 . S
C966 H958 0.950 . S
C966 C964 1.391 . S
C966 C967 1.400 . S
C967 C966 1.400 . S
C967 C968 1.398 . S
C967 C973 1.491 . S
C968 H959 0.950 . S
C968 C967 1.398 . S
C968 C969 1.391 . S
C969 H957 0.950 . S
C969 C965 1.393 . S
C969 C968 1.391 . S
C970 H960 0.950 . S
C970 C971 1.386 . S
C970 C972 1.391 . S
C971 C970 1.386 . S
C971 C975 1.393 . S
C972 H961 0.950 . S
C972 C970 1.391 . S
C972 C973 1.400 . S
C973 C967 1.491 . S
C973 C972 1.400 . S
C973 C974 1.398 . S
C974 H962 0.950 . S
C974 C973 1.398 . S
C974 C975 1.391 . S
C975 H963 0.950 . S
C975 C971 1.393 . S
C975 C974 1.391 . S
H976 C984 0.950 . S
H977 C989 0.950 . S
H978 C986 0.950 . S
H979 C988 0.950 . S
H980 C990 0.950 . S
H981 C992 0.950 . S
H982 C994 0.950 . S
H983 C995 0.950 . S
C984 H976 0.950 . S
C984 C985 1.386 . S
C984 C986 1.391 . S
C985 C984 1.386 . S
C985 C989 1.393 . S
C986 H978 0.950 . S
C986 C984 1.391 . S
C986 C987 1.400 . S
C987 C986 1.400 . S
C987 C988 1.398 . S
C987 C993 1.491 . S
C988 H979 0.950 . S
C988 C987 1.398 . S
C988 C989 1.391 . S
C989 H977 0.950 . S
C989 C985 1.393 . S
C989 C988 1.391 . S
C990 H980 0.950 . S
C990 C991 1.386 1_554 S
C990 C992 1.391 1_554 S
C991 C990 1.386 1_556 S
C991 C995 1.393 . S
C992 H981 0.950 . S
C992 C990 1.391 1_556 S
C992 C993 1.400 . S
C993 C987 1.491 . S
C993 C992 1.400 . S
C993 C994 1.398 . S
C994 H982 0.950 . S
C994 C993 1.398 . S
C994 C995 1.391 . S
C995 H983 0.950 . S
C995 C991 1.393 . S
C995 C994 1.391 . S
H996 C1004 0.950 . S
H997 C1009 0.950 . S
H998 C1006 0.950 . S
H999 C1008 0.950 . S
H1000 C1010 0.950 . S
H1001 C1012 0.950 . S
H1002 C1014 0.950 . S
H1003 C1015 0.950 . S
C1004 H996 0.950 . S
C1004 C1005 1.386 . S
C1004 C1006 1.391 . S
C1005 C1004 1.386 . S
C1005 C1009 1.393 . S
C1006 H998 0.950 . S
C1006 C1004 1.391 . S
C1006 C1007 1.400 . S
C1007 C1006 1.400 . S
C1007 C1008 1.398 . S
C1007 C1013 1.491 . S
C1008 H999 0.950 . S
C1008 C1007 1.398 . S
C1008 C1009 1.391 . S
C1009 H997 0.950 . S
C1009 C1005 1.393 . S
C1009 C1008 1.391 . S
C1010 H1000 0.950 . S
C1010 C1011 1.386 . S
C1010 C1012 1.391 . S
C1011 C1010 1.386 . S
C1011 C1015 1.393 . S
C1012 H1001 0.950 . S
C1012 C1010 1.391 . S
C1012 C1013 1.400 . S
C1013 C1007 1.491 . S
C1013 C1012 1.400 . S
C1013 C1014 1.398 . S
C1014 H1002 0.950 . S
C1014 C1013 1.398 . S
C1014 C1015 1.391 . S
C1015 H1003 0.950 . S
C1015 C1011 1.393 . S
C1015 C1014 1.391 . S
H1016 C1024 0.950 . S
H1017 C1029 0.950 . S
H1018 C1026 0.950 . S
H1019 C1028 0.950 . S
H1020 C1030 0.950 . S
H1021 C1032 0.950 . S
H1022 C1034 0.950 . S
H1023 C1035 0.950 . S
C1024 H1016 0.950 . S
C1024 C1025 1.386 . S
C1024 C1026 1.391 . S
C1025 C1024 1.386 . S
C1025 C1029 1.393 1_545 S
C1026 H1018 0.950 . S
C1026 C1024 1.391 . S
C1026 C1027 1.400 . S
C1027 C1026 1.400 . S
C1027 C1028 1.398 1_545 S
C1027 C1033 1.487 1_545 S
C1028 H1019 0.950 . S
C1028 C1027 1.398 1_565 S
C1028 C1029 1.391 . S
C1029 H1017 0.950 . S
C1029 C1025 1.393 1_565 S
C1029 C1028 1.391 . S
C1030 H1020 0.950 . S
C1030 C1031 1.386 . S
C1030 C1032 1.391 . S
C1031 C1030 1.386 . S
C1031 C1035 1.393 1_565 S
C1032 H1021 0.950 . S
C1032 C1030 1.391 . S
C1032 C1033 1.432 . S
C1033 C1027 1.487 1_565 S
C1033 C1032 1.432 . S
C1033 C1034 1.371 1_565 S
C1034 H1022 0.950 . S
C1034 C1033 1.371 1_545 S
C1034 C1035 1.391 . S
C1035 H1023 0.950 . S
C1035 C1031 1.393 1_545 S
C1035 C1034 1.391 . S
H1036 C1044 0.950 . S
H1037 C1049 0.950 . S
H1038 C1046 0.950 . S
H1039 C1048 0.950 . S
H1040 C1050 0.950 . S
H1041 C1052 0.950 . S
H1042 C1054 0.950 . S
H1043 C1055 0.950 . S
C1044 H1036 0.950 . S
C1044 C1045 1.386 . S
C1044 C1046 1.391 . S
C1045 C1044 1.386 . S
C1045 C1049 1.393 . S
C1046 H1038 0.950 . S
C1046 C1044 1.391 . S
C1046 C1047 1.400 . S
C1047 C1046 1.400 . S
C1047 C1048 1.398 . S
C1047 C1053 1.491 . S
C1048 H1039 0.950 . S
C1048 C1047 1.398 . S
C1048 C1049 1.391 . S
C1049 H1037 0.950 . S
C1049 C1045 1.393 . S
C1049 C1048 1.391 . S
C1050 H1040 0.950 . S
C1050 C1051 1.386 . S
C1050 C1052 1.391 . S
C1051 C1050 1.386 . S
C1051 C1055 1.393 . S
C1052 H1041 0.950 . S
C1052 C1050 1.391 . S
C1052 C1053 1.400 . S
C1053 C1047 1.491 . S
C1053 C1052 1.400 . S
C1053 C1054 1.398 . S
C1054 H1042 0.950 . S
C1054 C1053 1.398 . S
C1054 C1055 1.391 . S
C1055 H1043 0.950 . S
C1055 C1051 1.393 . S
C1055 C1054 1.391 . S
H1056 C1064 0.950 . S
H1057 C1069 0.950 . S
H1058 C1066 0.950 . S
H1059 C1068 0.950 . S
H1060 C1070 0.950 . S
H1061 C1072 0.950 . S
H1062 C1074 0.950 . S
H1063 C1075 0.950 . S
C1064 H1056 0.950 . S
C1064 C1065 1.386 . S
C1064 C1066 1.391 . S
C1065 C1064 1.386 . S
C1065 C1069 1.393 . S
C1066 H1058 0.950 . S
C1066 C1064 1.391 . S
C1066 C1067 1.400 . S
C1067 C1066 1.400 . S
C1067 C1068 1.398 . S
C1067 C1073 1.491 . S
C1068 H1059 0.950 . S
C1068 C1067 1.398 . S
C1068 C1069 1.391 . S
C1069 H1057 0.950 . S
C1069 C1065 1.393 . S
C1069 C1068 1.391 . S
C1070 H1060 0.950 . S
C1070 C1071 1.386 . S
C1070 C1072 1.391 . S
C1071 C1070 1.386 . S
C1071 C1075 1.393 . S
C1072 H1061 0.950 . S
C1072 C1070 1.391 . S
C1072 C1073 1.400 . S
C1073 C1067 1.491 . S
C1073 C1072 1.400 . S
C1073 C1074 1.398 . S
C1074 H1062 0.950 . S
C1074 C1073 1.398 . S
C1074 C1075 1.391 . S
C1075 H1063 0.950 . S
C1075 C1071 1.393 . S
C1075 C1074 1.391 . S
H1076 C1084 0.950 . S
H1077 C1089 0.950 . S
H1078 C1086 0.950 . S
H1079 C1088 0.950 . S
H1080 C1090 0.950 . S
H1081 C1092 0.950 . S
H1082 C1094 0.950 . S
H1083 C1095 0.950 . S
C1084 H1076 0.950 . S
C1084 C1085 1.386 . S
C1084 C1086 1.391 . S
C1085 C1084 1.386 . S
C1085 C1089 1.393 . S
C1086 H1078 0.950 . S
C1086 C1084 1.391 . S
C1086 C1087 1.400 . S
C1087 C1086 1.400 . S
C1087 C1088 1.398 . S
C1087 C1093 1.491 . S
C1088 H1079 0.950 . S
C1088 C1087 1.398 . S
C1088 C1089 1.391 . S
C1089 H1077 0.950 . S
C1089 C1085 1.393 . S
C1089 C1088 1.391 . S
C1090 H1080 0.950 . S
C1090 C1091 1.386 . S
C1090 C1092 1.391 . S
C1091 C1090 1.386 . S
C1091 C1095 1.393 . S
C1092 H1081 0.950 . S
C1092 C1090 1.391 . S
C1092 C1093 1.400 . S
C1093 C1087 1.491 . S
C1093 C1092 1.400 . S
C1093 C1094 1.398 . S
C1094 H1082 0.950 . S
C1094 C1093 1.398 . S
C1094 C1095 1.391 . S
C1095 H1083 0.950 . S
C1095 C1091 1.393 . S
C1095 C1094 1.391 . S
H1096 C1104 0.950 . S
H1097 C1109 0.950 . S
H1098 C1106 0.950 . S
H1099 C1108 0.950 . S
H1100 C1110 0.950 . S
H1101 C1112 0.950 . S
H1102 C1114 0.950 . S
H1103 C1115 0.950 . S
C1104 H1096 0.950 . S
C1104 C1105 1.386 . S
C1104 C1106 1.391 . S
C1105 C1104 1.386 . S
C1105 C1109 1.393 . S
C1106 H1098 0.950 . S
C1106 C1104 1.391 . S
C1106 C1107 1.400 . S
C1107 C1106 1.400 . S
C1107 C1108 1.398 . S
C1107 C1113 1.491 . S
C1108 H1099 0.950 . S
C1108 C1107 1.398 . S
C1108 C1109 1.391 . S
C1109 H1097 0.950 . S
C1109 C1105 1.393 . S
C1109 C1108 1.391 . S
C1110 H1100 0.950 . S
C1110 C1111 1.386 . S
C1110 C1112 1.391 . S
C1111 C1110 1.386 . S
C1111 C1115 1.393 . S
C1112 H1101 0.950 . S
C1112 C1110 1.391 . S
C1112 C1113 1.400 . S
C1113 C1107 1.491 . S
C1113 C1112 1.400 . S
C1113 C1114 1.398 . S
C1114 H1102 0.950 . S
C1114 C1113 1.398 . S
C1114 C1115 1.391 . S
C1115 H1103 0.950 . S
C1115 C1111 1.393 . S
C1115 C1114 1.391 . S
H1116 C1124 0.950 . S
H1117 C1129 0.950 . S
H1118 C1126 0.950 . S
H1119 C1128 0.950 . S
H1120 C1130 0.950 . S
H1121 C1132 0.950 . S
H1122 C1134 0.950 . S
H1123 C1135 0.950 . S
C1124 H1116 0.950 . S
C1124 C1125 1.386 . S
C1124 C1126 1.391 . S
C1125 C1124 1.386 . S
C1125 C1129 1.393 . S
C1126 H1118 0.950 . S
C1126 C1124 1.391 . S
C1126 C1127 1.400 . S
C1127 C1126 1.400 . S
C1127 C1128 1.398 . S
C1127 C1133 1.491 . S
C1128 H1119 0.950 . S
C1128 C1127 1.398 . S
C1128 C1129 1.391 . S
C1129 H1117 0.950 . S
C1129 C1125 1.393 . S
C1129 C1128 1.391 . S
C1130 H1120 0.950 . S
C1130 C1131 1.386 . S
C1130 C1132 1.391 . S
C1131 C1130 1.386 . S
C1131 C1135 1.393 . S
C1132 H1121 0.950 . S
C1132 C1130 1.391 . S
C1132 C1133 1.400 . S
C1133 C1127 1.491 . S
C1133 C1132 1.400 . S
C1133 C1134 1.398 . S
C1134 H1122 0.950 . S
C1134 C1133 1.398 . S
C1134 C1135 1.391 . S
C1135 H1123 0.950 . S
C1135 C1131 1.393 . S
C1135 C1134 1.391 . S
H1136 C1144 0.950 . S
H1137 C1149 0.950 . S
H1138 C1146 0.950 . S
H1139 C1148 0.950 . S
H1140 C1150 0.950 . S
H1141 C1152 0.950 . S
H1142 C1154 0.950 1_545 S
H1143 C1155 0.950 1_545 S
C1144 H1136 0.950 . S
C1144 C1145 1.386 1_545 S
C1144 C1146 1.391 . S
C1145 C1144 1.386 1_565 S
C1145 C1149 1.393 . S
C1146 H1138 0.950 . S
C1146 C1144 1.391 . S
C1146 C1147 1.400 1_545 S
C1147 C1146 1.400 1_565 S
C1147 C1148 1.398 . S
C1147 C1153 1.491 . S
C1148 H1139 0.950 . S
C1148 C1147 1.398 . S
C1148 C1149 1.391 . S
C1149 H1137 0.950 . S
C1149 C1145 1.393 . S
C1149 C1148 1.391 . S
C1150 H1140 0.950 . S
C1150 C1151 1.386 . S
C1150 C1152 1.391 . S
C1151 C1150 1.386 . S
C1151 C1155 1.393 . S
C1152 H1141 0.950 . S
C1152 C1150 1.391 . S
C1152 C1153 1.400 . S
C1153 C1147 1.491 . S
C1153 C1152 1.400 . S
C1153 C1154 1.398 . S
C1154 H1142 0.950 1_565 S
C1154 C1153 1.398 . S
C1154 C1155 1.391 . S
C1155 H1143 0.950 1_565 S
C1155 C1151 1.393 . S
C1155 C1154 1.391 . S
H1156 C1164 0.950 . S
H1157 C1169 0.950 . S
H1158 C1166 0.950 . S
H1159 C1168 0.950 . S
H1160 C1170 0.950 . S
H1161 C1172 0.950 . S
H1162 C1174 0.950 . S
H1163 C1175 0.950 . S
C1164 H1156 0.950 . S
C1164 C1165 1.386 . S
C1164 C1166 1.391 . S
C1165 C1164 1.386 . S
C1165 C1169 1.393 . S
C1166 H1158 0.950 . S
C1166 C1164 1.391 . S
C1166 C1167 1.400 . S
C1167 C1166 1.400 . S
C1167 C1168 1.398 . S
C1167 C1173 1.491 . S
C1168 H1159 0.950 . S
C1168 C1167 1.398 . S
C1168 C1169 1.391 . S
C1169 H1157 0.950 . S
C1169 C1165 1.393 . S
C1169 C1168 1.391 . S
C1170 H1160 0.950 . S
C1170 C1171 1.386 . S
C1170 C1172 1.391 . S
C1171 C1170 1.386 . S
C1171 C1175 1.393 . S
C1172 H1161 0.950 . S
C1172 C1170 1.391 . S
C1172 C1173 1.400 . S
C1173 C1167 1.491 . S
C1173 C1172 1.400 . S
C1173 C1174 1.398 . S
C1174 H1162 0.950 . S
C1174 C1173 1.398 . S
C1174 C1175 1.391 . S
C1175 H1163 0.950 . S
C1175 C1171 1.393 . S
C1175 C1174 1.391 . S
H1176 C1184 0.950 . S
H1177 C1189 0.950 . S
H1178 C1186 0.950 1_556 S
H1179 C1188 0.950 . S
H1180 C1190 0.950 . S
H1181 C1192 0.950 . S
H1182 C1194 0.950 . S
H1183 C1195 0.950 . S
C1184 H1176 0.950 . S
C1184 C1185 1.386 . S
C1184 C1186 1.391 . S
C1185 C1184 1.386 . S
C1185 C1189 1.393 . S
C1186 H1178 0.950 1_554 S
C1186 C1184 1.391 . S
C1186 C1187 1.400 . S
C1187 C1186 1.400 . S
C1187 C1188 1.398 . S
C1187 C1193 1.491 . S
C1188 H1179 0.950 . S
C1188 C1187 1.398 . S
C1188 C1189 1.391 . S
C1189 H1177 0.950 . S
C1189 C1185 1.393 . S
C1189 C1188 1.391 . S
C1190 H1180 0.950 . S
C1190 C1191 1.386 1_554 S
C1190 C1192 1.391 . S
C1191 C1190 1.386 1_556 S
C1191 C1195 1.393 . S
C1192 H1181 0.950 . S
C1192 C1190 1.391 . S
C1192 C1193 1.400 . S
C1193 C1187 1.491 . S
C1193 C1192 1.400 . S
C1193 C1194 1.398 1_554 S
C1194 H1182 0.950 . S
C1194 C1193 1.398 1_556 S
C1194 C1195 1.391 . S
C1195 H1183 0.950 . S
C1195 C1191 1.393 . S
C1195 C1194 1.391 . S
H1196 C1204 0.950 . S
H1197 C1209 0.950 . S
H1198 C1206 0.950 . S
H1199 C1208 0.950 . S
H1200 C1210 0.950 . S
H1201 C1212 0.950 . S
H1202 C1214 0.950 . S
H1203 C1215 0.950 . S
C1204 H1196 0.950 . S
C1204 C1205 1.386 . S
C1204 C1206 1.391 . S
C1205 C1204 1.386 . S
C1205 C1209 1.393 . S
C1206 H1198 0.950 . S
C1206 C1204 1.391 . S
C1206 C1207 1.400 . S
C1207 C1206 1.400 . S
C1207 C1208 1.398 . S
C1207 C1213 1.491 . S
C1208 H1199 0.950 . S
C1208 C1207 1.398 . S
C1208 C1209 1.391 . S
C1209 H1197 0.950 . S
C1209 C1205 1.393 . S
C1209 C1208 1.391 . S
C1210 H1200 0.950 . S
C1210 C1211 1.386 . S
C1210 C1212 1.391 . S
C1211 C1210 1.386 . S
C1211 C1215 1.393 . S
C1212 H1201 0.950 . S
C1212 C1210 1.391 . S
C1212 C1213 1.400 . S
C1213 C1207 1.491 . S
C1213 C1212 1.400 . S
C1213 C1214 1.398 . S
C1214 H1202 0.950 . S
C1214 C1213 1.398 . S
C1214 C1215 1.391 . S
C1215 H1203 0.950 . S
C1215 C1211 1.393 . S
C1215 C1214 1.391 . S
H1216 C1224 0.950 . S
H1217 C1229 0.950 . S
H1218 C1226 0.950 . S
H1219 C1228 0.950 . S
H1220 C1230 0.950 . S
H1221 C1232 0.950 . S
H1222 C1234 0.950 . S
H1223 C1235 0.950 . S
C1224 H1216 0.950 . S
C1224 C1225 1.386 . S
C1224 C1226 1.391 . S
C1225 C1224 1.386 . S
C1225 C1229 1.393 . S
C1226 H1218 0.950 . S
C1226 C1224 1.391 . S
C1226 C1227 1.400 . S
C1227 C1226 1.400 . S
C1227 C1228 1.398 . S
C1227 C1233 1.491 . S
C1228 H1219 0.950 . S
C1228 C1227 1.398 . S
C1228 C1229 1.391 . S
C1229 H1217 0.950 . S
C1229 C1225 1.393 . S
C1229 C1228 1.391 . S
C1230 H1220 0.950 . S
C1230 C1231 1.386 . S
C1230 C1232 1.391 . S
C1231 C1230 1.386 . S
C1231 C1235 1.393 . S
C1232 H1221 0.950 . S
C1232 C1230 1.391 . S
C1232 C1233 1.400 . S
C1233 C1227 1.491 . S
C1233 C1232 1.400 . S
C1233 C1234 1.398 . S
C1234 H1222 0.950 . S
C1234 C1233 1.398 . S
C1234 C1235 1.391 . S
C1235 H1223 0.950 . S
C1235 C1231 1.393 . S
C1235 C1234 1.391 . S
H1236 C1244 0.950 . S
H1237 C1249 0.950 . S
H1238 C1246 0.950 . S
H1239 C1248 0.950 . S
H1240 C1250 0.950 . S
H1241 C1252 0.950 . S
H1242 C1254 0.950 . S
H1243 C1255 0.950 . S
C1244 H1236 0.950 . S
C1244 C1245 1.386 . S
C1244 C1246 1.391 . S
C1245 C1244 1.386 . S
C1245 C1249 1.393 . S
C1246 H1238 0.950 . S
C1246 C1244 1.391 . S
C1246 C1247 1.400 . S
C1247 C1246 1.400 . S
C1247 C1248 1.398 . S
C1247 C1253 1.491 . S
C1248 H1239 0.950 . S
C1248 C1247 1.398 . S
C1248 C1249 1.391 . S
C1249 H1237 0.950 . S
C1249 C1245 1.393 . S
C1249 C1248 1.391 . S
C1250 H1240 0.950 . S
C1250 C1251 1.386 . S
C1250 C1252 1.391 . S
C1251 C1250 1.386 . S
C1251 C1255 1.393 . S
C1252 H1241 0.950 . S
C1252 C1250 1.391 . S
C1252 C1253 1.400 . S
C1253 C1247 1.491 . S
C1253 C1252 1.400 . S
C1253 C1254 1.398 . S
C1254 H1242 0.950 . S
C1254 C1253 1.398 . S
C1254 C1255 1.391 . S
C1255 H1243 0.950 . S
C1255 C1251 1.393 . S
C1255 C1254 1.391 . S
H1256 C1264 0.950 . S
H1257 C1269 0.950 . S
H1258 C1266 0.950 . S
H1259 C1268 0.950 . S
H1260 C1270 0.950 . S
H1261 C1272 0.950 . S
H1262 C1274 0.950 . S
H1263 C1275 0.950 . S
C1264 H1256 0.950 . S
C1264 C1265 1.386 . S
C1264 C1266 1.391 . S
C1265 C1264 1.386 . S
C1265 C1269 1.393 . S
C1266 H1258 0.950 . S
C1266 C1264 1.391 . S
C1266 C1267 1.400 . S
C1267 C1266 1.400 . S
C1267 C1268 1.398 . S
C1267 C1273 1.491 . S
C1268 H1259 0.950 . S
C1268 C1267 1.398 . S
C1268 C1269 1.391 . S
C1269 H1257 0.950 . S
C1269 C1265 1.393 . S
C1269 C1268 1.391 . S
C1270 H1260 0.950 . S
C1270 C1271 1.386 . S
C1270 C1272 1.391 . S
C1271 C1270 1.386 . S
C1271 C1275 1.393 . S
C1272 H1261 0.950 . S
C1272 C1270 1.391 . S
C1272 C1273 1.400 . S
C1273 C1267 1.491 . S
C1273 C1272 1.400 . S
C1273 C1274 1.398 . S
C1274 H1262 0.950 . S
C1274 C1273 1.398 . S
C1274 C1275 1.391 . S
C1275 H1263 0.950 . S
C1275 C1271 1.393 . S
C1275 C1274 1.391 . S
H1276 C1284 0.950 . S
H1277 C1289 0.950 . S
H1278 C1286 0.950 . S
H1279 C1288 0.950 . S
H1280 C1290 0.950 . S
H1281 C1292 0.950 . S
H1282 C1294 0.950 . S
H1283 C1295 0.950 . S
C1284 H1276 0.950 . S
C1284 C1285 1.386 . S
C1284 C1286 1.391 . S
C1285 C1284 1.386 . S
C1285 C1289 1.393 . S
C1286 H1278 0.950 . S
C1286 C1284 1.391 . S
C1286 C1287 1.400 . S
C1287 C1286 1.400 . S
C1287 C1288 1.398 . S
C1287 C1293 1.491 . S
C1288 H1279 0.950 . S
C1288 C1287 1.398 . S
C1288 C1289 1.391 . S
C1289 H1277 0.950 . S
C1289 C1285 1.393 . S
C1289 C1288 1.391 . S
C1290 H1280 0.950 . S
C1290 C1291 1.386 . S
C1290 C1292 1.391 . S
C1291 C1290 1.386 . S
C1291 C1295 1.393 . S
C1292 H1281 0.950 . S
C1292 C1290 1.391 . S
C1292 C1293 1.400 . S
C1293 C1287 1.491 . S
C1293 C1292 1.400 . S
C1293 C1294 1.398 . S
C1294 H1282 0.950 . S
C1294 C1293 1.398 . S
C1294 C1295 1.391 . S
C1295 H1283 0.950 . S
C1295 C1291 1.393 . S
C1295 C1294 1.391 . S
H1296 C1304 0.950 . S
H1297 C1309 0.950 . S
H1298 C1306 0.950 . S
H1299 C1308 0.950 . S
H1300 C1310 0.950 . S
H1301 C1312 0.950 . S
H1302 C1314 0.950 . S
H1303 C1315 0.950 . S
C1304 H1296 0.950 . S
C1304 C1305 1.386 . S
C1304 C1306 1.391 . S
C1305 C1304 1.386 . S
C1305 C1309 1.393 . S
C1306 H1298 0.950 . S
C1306 C1304 1.391 . S
C1306 C1307 1.400 . S
C1307 C1306 1.400 . S
C1307 C1308 1.398 . S
C1307 C1313 1.491 . S
C1308 H1299 0.950 . S
C1308 C1307 1.398 . S
C1308 C1309 1.391 . S
C1309 H1297 0.950 . S
C1309 C1305 1.393 . S
C1309 C1308 1.391 . S
C1310 H1300 0.950 . S
C1310 C1311 1.386 . S
C1310 C1312 1.391 . S
C1311 C1310 1.386 . S
C1311 C1315 1.393 . S
C1312 H1301 0.950 . S
C1312 C1310 1.391 . S
C1312 C1313 1.400 . S
C1313 C1307 1.491 . S
C1313 C1312 1.400 . S
C1313 C1314 1.398 . S
C1314 H1302 0.950 . S
C1314 C1313 1.398 . S
C1314 C1315 1.391 . S
C1315 H1303 0.950 . S
C1315 C1311 1.393 . S
C1315 C1314 1.391 . S
H1316 C1324 0.950 . S
H1317 C1329 0.950 . S
H1318 C1326 0.950 . S
H1319 C1328 0.950 . S
H1320 C1330 0.950 . S
H1321 C1332 0.950 . S
H1322 C1334 0.950 . S
H1323 C1335 0.950 . S
C1324 H1316 0.950 . S
C1324 C1325 1.386 . S
C1324 C1326 1.391 . S
C1325 C1324 1.386 . S
C1325 C1329 1.393 . S
C1326 H1318 0.950 . S
C1326 C1324 1.391 . S
C1326 C1327 1.400 . S
C1327 C1326 1.400 . S
C1327 C1328 1.398 . S
C1327 C1333 1.491 . S
C1328 H1319 0.950 . S
C1328 C1327 1.398 . S
C1328 C1329 1.391 . S
C1329 H1317 0.950 . S
C1329 C1325 1.393 . S
C1329 C1328 1.391 . S
C1330 H1320 0.950 . S
C1330 C1331 1.386 . S
C1330 C1332 1.391 . S
C1331 C1330 1.386 . S
C1331 C1335 1.393 . S
C1332 H1321 0.950 . S
C1332 C1330 1.391 . S
C1332 C1333 1.400 . S
C1333 C1327 1.491 . S
C1333 C1332 1.400 . S
C1333 C1334 1.398 . S
C1334 H1322 0.950 . S
C1334 C1333 1.398 . S
C1334 C1335 1.391 . S
C1335 H1323 0.950 . S
C1335 C1331 1.393 . S
C1335 C1334 1.391 . S
H1336 C1344 0.950 . S
H1337 C1349 0.950 . S
H1338 C1346 0.950 . S
H1339 C1348 0.950 . S
H1340 C1350 0.948 1_655 S
H1341 C1352 0.950 1_655 S
H1342 C1354 0.950 . S
H1343 C1355 0.950 . S
C1344 H1336 0.950 . S
C1344 C1345 1.386 1_455 S
C1344 C1346 1.391 . S
C1345 C1344 1.386 1_655 S
C1345 C1349 1.393 . S
C1346 H1338 0.950 . S
C1346 C1344 1.391 . S
C1346 C1347 1.400 . S
C1347 C1346 1.400 . S
C1347 C1348 1.398 1_455 S
C1347 C1353 1.491 . S
C1348 H1339 0.950 . S
C1348 C1347 1.398 1_655 S
C1348 C1349 1.391 . S
C1349 H1337 0.950 . S
C1349 C1345 1.393 . S
C1349 C1348 1.391 . S
C1350 H1340 0.948 1_455 S
C1350 C1351 1.386 . S
C1350 C1352 1.391 . S
C1351 C1350 1.386 . S
C1351 C1355 1.393 . S
C1352 H1341 0.950 1_455 S
C1352 C1350 1.391 . S
C1352 C1353 1.400 . S
C1353 C1347 1.491 . S
C1353 C1352 1.400 . S
C1353 C1354 1.398 . S
C1354 H1342 0.950 . S
C1354 C1353 1.398 . S
C1354 C1355 1.391 . S
C1355 H1343 0.950 . S
C1355 C1351 1.393 . S
C1355 C1354 1.391 . S
H1356 C1364 0.950 . S
H1357 C1369 0.950 . S
H1358 C1366 0.950 . S
H1359 C1368 0.950 . S
H1360 C1370 0.950 . S
H1361 C1372 0.950 . S
H1362 C1374 0.950 . S
H1363 C1375 0.950 . S
C1364 H1356 0.950 . S
C1364 C1365 1.386 . S
C1364 C1366 1.391 . S
C1365 C1364 1.386 . S
C1365 C1369 1.393 . S
C1366 H1358 0.950 . S
C1366 C1364 1.391 . S
C1366 C1367 1.400 . S
C1367 C1366 1.400 . S
C1367 C1368 1.398 . S
C1367 C1373 1.491 . S
C1368 H1359 0.950 . S
C1368 C1367 1.398 . S
C1368 C1369 1.391 . S
C1369 H1357 0.950 . S
C1369 C1365 1.393 . S
C1369 C1368 1.391 . S
C1370 H1360 0.950 . S
C1370 C1371 1.386 . S
C1370 C1372 1.391 . S
C1371 C1370 1.386 . S
C1371 C1375 1.393 . S
C1372 H1361 0.950 . S
C1372 C1370 1.391 . S
C1372 C1373 1.400 . S
C1373 C1367 1.491 . S
C1373 C1372 1.400 . S
C1373 C1374 1.398 . S
C1374 H1362 0.950 . S
C1374 C1373 1.398 . S
C1374 C1375 1.391 . S
C1375 H1363 0.950 . S
C1375 C1371 1.393 . S
C1375 C1374 1.391 . S
H1376 C1384 0.950 . S
H1377 C1389 0.950 . S
H1378 C1386 0.950 . S
H1379 C1388 0.950 . S
H1380 C1390 0.950 . S
H1381 C1392 0.950 . S
H1382 C1394 0.950 . S
H1383 C1395 0.950 . S
C1384 H1376 0.950 . S
C1384 C1385 1.386 . S
C1384 C1386 1.391 . S
C1385 C1384 1.386 . S
C1385 C1389 1.393 . S
C1386 H1378 0.950 . S
C1386 C1384 1.391 . S
C1386 C1387 1.400 . S
C1387 C1386 1.400 . S
C1387 C1388 1.398 . S
C1387 C1393 1.491 . S
C1388 H1379 0.950 . S
C1388 C1387 1.398 . S
C1388 C1389 1.391 . S
C1389 H1377 0.950 . S
C1389 C1385 1.393 . S
C1389 C1388 1.391 . S
C1390 H1380 0.950 . S
C1390 C1391 1.386 . S
C1390 C1392 1.391 . S
C1391 C1390 1.386 . S
C1391 C1395 1.393 . S
C1392 H1381 0.950 . S
C1392 C1390 1.391 . S
C1392 C1393 1.400 . S
C1393 C1387 1.491 . S
C1393 C1392 1.400 . S
C1393 C1394 1.398 . S
C1394 H1382 0.950 . S
C1394 C1393 1.398 . S
C1394 C1395 1.391 . S
C1395 H1383 0.950 . S
C1395 C1391 1.393 . S
C1395 C1394 1.391 . S
H1396 C1404 0.950 . S
H1397 C1409 0.950 . S
H1398 C1406 0.950 . S
H1399 C1408 0.950 . S
H1400 C1410 0.950 . S
H1401 C1412 0.950 . S
H1402 C1414 0.950 . S
H1403 C1415 0.950 . S
C1404 H1396 0.950 . S
C1404 C1405 1.386 . S
C1404 C1406 1.391 . S
C1405 C1404 1.386 . S
C1405 C1409 1.393 . S
C1406 H1398 0.950 . S
C1406 C1404 1.391 . S
C1406 C1407 1.400 . S
C1407 C1406 1.400 . S
C1407 C1408 1.398 . S
C1407 C1413 1.491 . S
C1408 H1399 0.950 . S
C1408 C1407 1.398 . S
C1408 C1409 1.391 . S
C1409 H1397 0.950 . S
C1409 C1405 1.393 . S
C1409 C1408 1.391 . S
C1410 H1400 0.950 . S
C1410 C1411 1.386 . S
C1410 C1412 1.391 . S
C1411 C1410 1.386 . S
C1411 C1415 1.393 . S
C1412 H1401 0.950 . S
C1412 C1410 1.391 . S
C1412 C1413 1.400 . S
C1413 C1407 1.491 . S
C1413 C1412 1.400 . S
C1413 C1414 1.398 . S
C1414 H1402 0.950 . S
C1414 C1413 1.398 . S
C1414 C1415 1.391 . S
C1415 H1403 0.950 . S
C1415 C1411 1.393 . S
C1415 C1414 1.391 . S
H1416 C1424 0.950 . S
H1417 C1429 0.950 1_655 S
H1418 C1426 0.950 . S
H1419 C1428 0.950 1_655 S
H1420 C1430 0.980 . S
H1421 C1432 0.950 1_655 S
H1422 C1434 0.950 . S
H1423 C1435 0.950 . S
C1424 H1416 0.950 . S
C1424 C1425 1.386 . S
C1424 C1426 1.391 . S
C1425 C1424 1.386 . S
C1425 C1429 1.393 . S
C1426 H1418 0.950 . S
C1426 C1424 1.391 . S
C1426 C1427 1.400 . S
C1427 C1426 1.400 . S
C1427 C1428 1.398 . S
C1427 C1433 1.491 . S
C1428 H1419 0.950 1_455 S
C1428 C1427 1.398 . S
C1428 C1429 1.391 . S
C1429 H1417 0.950 1_455 S
C1429 C1425 1.393 . S
C1429 C1428 1.391 . S
C1430 H1420 0.980 . S
C1430 C1431 1.386 . S
C1430 C1432 1.391 . S
C1431 C1430 1.386 . S
C1431 C1435 1.393 . S
C1432 H1421 0.950 1_455 S
C1432 C1430 1.391 . S
C1432 C1433 1.400 . S
C1433 C1427 1.491 . S
C1433 C1432 1.400 . S
C1433 C1434 1.398 . S
C1434 H1422 0.950 . S
C1434 C1433 1.398 . S
C1434 C1435 1.391 . S
C1435 H1423 0.950 . S
C1435 C1431 1.393 . S
C1435 C1434 1.391 . S
H1436 C1444 0.950 . S
H1437 C1449 0.950 . S
H1438 C1446 0.950 . S
H1439 C1448 0.950 . S
H1440 C1450 0.950 . S
H1441 C1452 0.950 . S
H1442 C1454 0.950 . S
H1443 C1455 0.950 . S
C1444 H1436 0.950 . S
C1444 C1445 1.386 . S
C1444 C1446 1.391 . S
C1445 C1444 1.386 . S
C1445 C1449 1.393 . S
C1446 H1438 0.950 . S
C1446 C1444 1.391 . S
C1446 C1447 1.400 . S
C1447 C1446 1.400 . S
C1447 C1448 1.398 . S
C1447 C1453 1.491 . S
C1448 H1439 0.950 . S
C1448 C1447 1.398 . S
C1448 C1449 1.391 . S
C1449 H1437 0.950 . S
C1449 C1445 1.393 . S
C1449 C1448 1.391 . S
C1450 H1440 0.950 . S
C1450 C1451 1.386 . S
C1450 C1452 1.391 . S
C1451 C1450 1.386 . S
C1451 C1455 1.393 . S
C1452 H1441 0.950 . S
C1452 C1450 1.391 . S
C1452 C1453 1.400 . S
C1453 C1447 1.491 . S
C1453 C1452 1.400 . S
C1453 C1454 1.398 . S
C1454 H1442 0.950 . S
C1454 C1453 1.398 . S
C1454 C1455 1.391 . S
C1455 H1443 0.950 . S
C1455 C1451 1.393 . S
C1455 C1454 1.391 . S
H1456 C1464 0.950 . S
H1457 C1469 0.950 . S
H1458 C1466 0.950 . S
H1459 C1468 0.950 . S
H1460 C1470 0.950 . S
H1461 C1472 0.950 . S
H1462 C1474 0.950 . S
H1463 C1475 0.950 . S
C1464 H1456 0.950 . S
C1464 C1465 1.386 . S
C1464 C1466 1.391 . S
C1465 C1464 1.386 . S
C1465 C1469 1.393 . S
C1466 H1458 0.950 . S
C1466 C1464 1.391 . S
C1466 C1467 1.400 . S
C1467 C1466 1.400 . S
C1467 C1468 1.398 . S
C1467 C1473 1.491 . S
C1468 H1459 0.950 . S
C1468 C1467 1.398 . S
C1468 C1469 1.391 . S
C1469 H1457 0.950 . S
C1469 C1465 1.393 . S
C1469 C1468 1.391 . S
C1470 H1460 0.950 . S
C1470 C1471 1.386 . S
C1470 C1472 1.391 . S
C1471 C1470 1.386 . S
C1471 C1475 1.393 . S
C1472 H1461 0.950 . S
C1472 C1470 1.391 . S
C1472 C1473 1.400 . S
C1473 C1467 1.491 . S
C1473 C1472 1.400 . S
C1473 C1474 1.398 . S
C1474 H1462 0.950 . S
C1474 C1473 1.398 . S
C1474 C1475 1.391 . S
C1475 H1463 0.950 . S
C1475 C1471 1.393 . S
C1475 C1474 1.391 . S
H1476 C1484 0.950 . S
H1477 C1489 0.950 . S
H1478 C1486 0.950 . S
H1479 C1488 0.950 . S
H1480 C1490 0.950 . S
H1481 C1492 0.950 . S
H1482 C1494 0.950 . S
H1483 C1495 0.950 . S
C1484 H1476 0.950 . S
C1484 C1485 1.386 . S
C1484 C1486 1.391 . S
C1485 C1484 1.386 . S
C1485 C1489 1.393 . S
C1486 H1478 0.950 . S
C1486 C1484 1.391 . S
C1486 C1487 1.400 . S
C1487 C1486 1.400 . S
C1487 C1488 1.398 . S
C1487 C1493 1.491 . S
C1488 H1479 0.950 . S
C1488 C1487 1.398 . S
C1488 C1489 1.391 . S
C1489 H1477 0.950 . S
C1489 C1485 1.393 . S
C1489 C1488 1.391 . S
C1490 H1480 0.950 . S
C1490 C1491 1.386 . S
C1490 C1492 1.391 . S
C1491 C1490 1.386 . S
C1491 C1495 1.393 . S
C1492 H1481 0.950 . S
C1492 C1490 1.391 . S
C1492 C1493 1.400 . S
C1493 C1487 1.491 . S
C1493 C1492 1.400 . S
C1493 C1494 1.398 . S
C1494 H1482 0.950 . S
C1494 C1493 1.398 . S
C1494 C1495 1.391 . S
C1495 H1483 0.950 . S
C1495 C1491 1.393 . S
C1495 C1494 1.391 . S
H1496 C1504 0.950 . S
H1497 C1509 0.950 . S
H1498 C1506 0.950 . S
H1499 C1508 0.950 . S
H1500 C1510 0.950 . S
H1501 C1512 0.950 1_455 S
H1502 C1514 0.950 . S
H1503 C1515 0.950 . S
C1504 H1496 0.950 . S
C1504 C1505 1.386 1_545 S
C1504 C1506 1.391 . S
C1505 C1504 1.386 1_565 S
C1505 C1509 1.393 . S
C1506 H1498 0.950 . S
C1506 C1504 1.391 . S
C1506 C1507 1.400 . S
C1507 C1506 1.400 . S
C1507 C1508 1.398 1_545 S
C1507 C1513 1.491 . S
C1508 H1499 0.950 . S
C1508 C1507 1.398 1_565 S
C1508 C1509 1.391 . S
C1509 H1497 0.950 . S
C1509 C1505 1.393 . S
C1509 C1508 1.391 . S
C1510 H1500 0.950 . S
C1510 C1511 1.384 . S
C1510 C1512 1.391 1_455 S
C1511 C1510 1.384 . S
C1511 C1515 1.396 1_455 S
C1512 H1501 0.950 1_655 S
C1512 C1510 1.391 1_655 S
C1512 C1513 1.400 . S
C1513 C1507 1.491 . S
C1513 C1512 1.400 . S
C1513 C1514 1.398 . S
C1514 H1502 0.950 . S
C1514 C1513 1.398 . S
C1514 C1515 1.391 . S
C1515 H1503 0.950 . S
C1515 C1511 1.396 1_655 S
C1515 C1514 1.391 . S
H1516 C1524 0.950 . S
H1517 C1529 0.950 . S
H1518 C1526 0.950 . S
H1519 C1528 0.950 . S
H1520 C1530 0.950 . S
H1521 C1532 0.950 . S
H1522 C1534 0.950 . S
H1523 C1535 0.950 . S
C1524 H1516 0.950 . S
C1524 C1525 1.386 . S
C1524 C1526 1.391 . S
C1525 C1524 1.386 . S
C1525 C1529 1.393 . S
C1526 H1518 0.950 . S
C1526 C1524 1.391 . S
C1526 C1527 1.400 . S
C1527 C1526 1.400 . S
C1527 C1528 1.398 . S
C1527 C1533 1.491 . S
C1528 H1519 0.950 . S
C1528 C1527 1.398 . S
C1528 C1529 1.391 . S
C1529 H1517 0.950 . S
C1529 C1525 1.393 . S
C1529 C1528 1.391 . S
C1530 H1520 0.950 . S
C1530 C1531 1.386 . S
C1530 C1532 1.391 . S
C1531 C1530 1.386 . S
C1531 C1535 1.393 . S
C1532 H1521 0.950 . S
C1532 C1530 1.391 . S
C1532 C1533 1.400 . S
C1533 C1527 1.491 . S
C1533 C1532 1.400 . S
C1533 C1534 1.398 . S
C1534 H1522 0.950 . S
C1534 C1533 1.398 . S
C1534 C1535 1.391 . S
C1535 H1523 0.950 . S
C1535 C1531 1.393 . S
C1535 C1534 1.391 . S
H1536 C1544 0.950 . S
H1537 C1549 0.950 . S
H1538 C1546 0.950 . S
H1539 C1548 0.950 . S
H1540 C1550 0.950 . S
H1541 C1552 0.950 . S
H1542 C1554 0.950 . S
H1543 C1555 0.950 . S
C1544 H1536 0.950 . S
C1544 C1545 1.386 1_565 S
C1544 C1546 1.391 . S
C1545 C1544 1.386 1_545 S
C1545 C1549 1.393 . S
C1546 H1538 0.950 . S
C1546 C1544 1.391 . S
C1546 C1547 1.400 1_565 S
C1547 C1546 1.400 1_545 S
C1547 C1548 1.398 . S
C1547 C1553 1.491 . S
C1548 H1539 0.950 . S
C1548 C1547 1.398 . S
C1548 C1549 1.391 . S
C1549 H1537 0.950 . S
C1549 C1545 1.393 . S
C1549 C1548 1.391 . S
C1550 H1540 0.950 . S
C1550 C1551 1.386 . S
C1550 C1552 1.391 . S
C1551 C1550 1.386 . S
C1551 C1555 1.393 1_545 S
C1552 H1541 0.950 . S
C1552 C1550 1.391 . S
C1552 C1553 1.400 . S
C1553 C1547 1.491 . S
C1553 C1552 1.400 . S
C1553 C1554 1.398 1_545 S
C1554 H1542 0.950 . S
C1554 C1553 1.398 1_565 S
C1554 C1555 1.391 . S
C1555 H1543 0.950 . S
C1555 C1551 1.393 1_565 S
C1555 C1554 1.391 . S
H1556 C1564 0.950 . S
H1557 C1569 0.950 . S
H1558 C1566 0.950 . S
H1559 C1568 0.950 . S
H1560 C1570 0.950 . S
H1561 C1572 0.950 . S
H1562 C1574 0.950 . S
H1563 C1575 0.950 . S
C1564 H1556 0.950 . S
C1564 C1565 1.386 . S
C1564 C1566 1.391 . S
C1565 C1564 1.386 . S
C1565 C1569 1.393 . S
C1566 H1558 0.950 . S
C1566 C1564 1.391 . S
C1566 C1567 1.400 . S
C1567 C1566 1.400 . S
C1567 C1568 1.398 . S
C1567 C1573 1.491 . S
C1568 H1559 0.950 . S
C1568 C1567 1.398 . S
C1568 C1569 1.391 . S
C1569 H1557 0.950 . S
C1569 C1565 1.393 . S
C1569 C1568 1.391 . S
C1570 H1560 0.950 . S
C1570 C1571 1.386 . S
C1570 C1572 1.391 . S
C1571 C1570 1.386 . S
C1571 C1575 1.393 . S
C1572 H1561 0.950 . S
C1572 C1570 1.391 . S
C1572 C1573 1.400 . S
C1573 C1567 1.491 . S
C1573 C1572 1.400 . S
C1573 C1574 1.398 . S
C1574 H1562 0.950 . S
C1574 C1573 1.398 . S
C1574 C1575 1.391 . S
C1575 H1563 0.950 . S
C1575 C1571 1.393 . S
C1575 C1574 1.391 . S
H1576 C1584 0.948 1_565 S
H1577 C1589 0.950 . S
H1578 C1586 0.950 . S
H1579 C1588 0.950 . S
H1580 C1590 0.950 1_455 S
H1581 C1592 0.950 1_545 S
H1582 C1594 0.950 . S
H1583 C1595 0.950 . S
C1584 H1576 0.948 1_545 S
C1584 C1585 1.390 . S
C1584 C1586 1.389 1_545 S
C1585 C1584 1.390 . S
C1585 C1589 1.393 . S
C1586 H1578 0.950 . S
C1586 C1584 1.389 1_565 S
C1586 C1587 1.400 . S
C1587 C1586 1.400 . S
C1587 C1588 1.398 1_565 S
C1587 C1593 1.491 . S
C1588 H1579 0.950 . S
C1588 C1587 1.398 1_545 S
C1588 C1589 1.391 . S
C1589 H1577 0.950 . S
C1589 C1585 1.393 . S
C1589 C1588 1.391 . S
C1590 H1580 0.950 1_655 S
C1590 C1591 1.386 . S
C1590 C1592 1.391 . S
C1591 C1590 1.386 . S
C1591 C1595 1.393 . S
C1592 H1581 0.950 1_565 S
C1592 C1590 1.391 . S
C1592 C1593 1.400 . S
C1593 C1587 1.491 . S
C1593 C1592 1.400 . S
C1593 C1594 1.398 . S
C1594 H1582 0.950 . S
C1594 C1593 1.398 . S
C1594 C1595 1.391 . S
C1595 H1583 0.950 . S
C1595 C1591 1.393 . S
C1595 C1594 1.391 . S
H1596 C1604 0.950 . S
H1597 C1609 0.950 . S
H1598 C1606 0.950 . S
H1599 C1608 0.950 . S
H1600 C1610 0.950 . S
H1601 C1612 0.950 . S
H1602 C1614 0.950 . S
H1603 C1615 0.950 . S
C1604 H1596 0.950 . S
C1604 C1605 1.386 . S
C1604 C1606 1.391 . S
C1605 C1604 1.386 . S
C1605 C1609 1.393 . S
C1606 H1598 0.950 . S
C1606 C1604 1.391 . S
C1606 C1607 1.400 . S
C1607 C1606 1.400 . S
C1607 C1608 1.398 . S
C1607 C1613 1.491 . S
C1608 H1599 0.950 . S
C1608 C1607 1.398 . S
C1608 C1609 1.391 . S
C1609 H1597 0.950 . S
C1609 C1605 1.393 . S
C1609 C1608 1.391 . S
C1610 H1600 0.950 . S
C1610 C1611 1.386 . S
C1610 C1612 1.391 . S
C1611 C1610 1.386 . S
C1611 C1615 1.393 . S
C1612 H1601 0.950 . S
C1612 C1610 1.391 . S
C1612 C1613 1.400 . S
C1613 C1607 1.491 . S
C1613 C1612 1.400 . S
C1613 C1614 1.398 . S
C1614 H1602 0.950 . S
C1614 C1613 1.398 . S
C1614 C1615 1.391 . S
C1615 H1603 0.950 . S
C1615 C1611 1.393 . S
C1615 C1614 1.391 . S
H1616 C1624 0.950 . S
H1617 C1629 0.950 . S
H1618 C1626 0.950 . S
H1619 C1628 0.950 . S
H1620 C1630 0.950 . S
H1621 C1632 0.950 . S
H1622 C1634 0.950 1_565 S
H1623 C1635 0.950 . S
C1624 H1616 0.950 . S
C1624 C1625 1.386 1_565 S
C1624 C1626 1.391 . S
C1625 C1624 1.386 1_545 S
C1625 C1629 1.393 . S
C1626 H1618 0.950 . S
C1626 C1624 1.391 . S
C1626 C1627 1.400 1_565 S
C1627 C1626 1.400 1_545 S
C1627 C1628 1.398 . S
C1627 C1633 1.491 . S
C1628 H1619 0.950 . S
C1628 C1627 1.398 . S
C1628 C1629 1.391 . S
C1629 H1617 0.950 . S
C1629 C1625 1.393 . S
C1629 C1628 1.391 . S
C1630 H1620 0.950 . S
C1630 C1631 1.386 . S
C1630 C1632 1.391 . S
C1631 C1630 1.386 . S
C1631 C1635 1.393 . S
C1632 H1621 0.950 . S
C1632 C1630 1.391 . S
C1632 C1633 1.400 . S
C1633 C1627 1.491 . S
C1633 C1632 1.400 . S
C1633 C1634 1.398 . S
C1634 H1622 0.950 1_545 S
C1634 C1633 1.398 . S
C1634 C1635 1.391 . S
C1635 H1623 0.950 . S
C1635 C1631 1.393 . S
C1635 C1634 1.391 . S
H1636 C1644 0.950 . S
H1637 C1649 0.950 . S
H1638 C1646 0.950 . S
H1639 C1648 0.950 . S
H1640 C1650 0.950 . S
H1641 C1652 0.950 . S
H1642 C1654 0.950 . S
H1643 C1655 0.950 . S
C1644 H1636 0.950 . S
C1644 C1645 1.386 . S
C1644 C1646 1.391 . S
C1645 C1644 1.386 . S
C1645 C1649 1.393 . S
C1646 H1638 0.950 . S
C1646 C1644 1.391 . S
C1646 C1647 1.400 . S
C1647 C1646 1.400 . S
C1647 C1648 1.398 . S
C1647 C1653 1.491 . S
C1648 H1639 0.950 . S
C1648 C1647 1.398 . S
C1648 C1649 1.391 . S
C1649 H1637 0.950 . S
C1649 C1645 1.393 . S
C1649 C1648 1.391 . S
C1650 H1640 0.950 . S
C1650 C1651 1.386 . S
C1650 C1652 1.391 . S
C1651 C1650 1.386 . S
C1651 C1655 1.393 . S
C1652 H1641 0.950 . S
C1652 C1650 1.391 . S
C1652 C1653 1.400 . S
C1653 C1647 1.491 . S
C1653 C1652 1.400 . S
C1653 C1654 1.398 . S
C1654 H1642 0.950 . S
C1654 C1653 1.398 . S
C1654 C1655 1.391 . S
C1655 H1643 0.950 . S
C1655 C1651 1.393 . S
C1655 C1654 1.391 . S
H1656 C1664 0.950 . S
H1657 C1669 0.950 1_556 S
H1658 C1666 0.950 . S
H1659 C1668 0.950 . S
H1660 C1670 0.950 . S
H1661 C1672 0.950 . S
H1662 C1674 0.950 . S
H1663 C1675 0.950 . S
C1664 H1656 0.950 . S
C1664 C1665 1.386 . S
C1664 C1666 1.391 . S
C1665 C1664 1.386 . S
C1665 C1669 1.393 . S
C1666 H1658 0.950 . S
C1666 C1664 1.391 . S
C1666 C1667 1.400 . S
C1667 C1666 1.400 . S
C1667 C1668 1.398 . S
C1667 C1673 1.491 . S
C1668 H1659 0.950 . S
C1668 C1667 1.398 . S
C1668 C1669 1.391 . S
C1669 H1657 0.950 1_554 S
C1669 C1665 1.393 . S
C1669 C1668 1.391 . S
C1670 H1660 0.950 . S
C1670 C1671 1.386 . S
C1670 C1672 1.391 . S
C1671 C1670 1.386 . S
C1671 C1675 1.393 . S
C1672 H1661 0.950 . S
C1672 C1670 1.391 . S
C1672 C1673 1.400 . S
C1673 C1667 1.491 . S
C1673 C1672 1.400 . S
C1673 C1674 1.398 . S
C1674 H1662 0.950 . S
C1674 C1673 1.398 . S
C1674 C1675 1.391 . S
C1675 H1663 0.950 . S
C1675 C1671 1.393 . S
C1675 C1674 1.391 . S
H1676 C1684 0.950 . S
H1677 C1689 0.950 . S
H1678 C1686 0.950 . S
H1679 C1688 0.950 . S
H1680 C1690 0.950 . S
H1681 C1692 0.950 . S
H1682 C1694 0.950 . S
H1683 C1695 0.950 . S
C1684 H1676 0.950 . S
C1684 C1685 1.386 1_556 S
C1684 C1686 1.391 . S
C1685 C1684 1.386 1_554 S
C1685 C1689 1.393 . S
C1686 H1678 0.950 . S
C1686 C1684 1.391 . S
C1686 C1687 1.400 1_556 S
C1687 C1686 1.400 1_554 S
C1687 C1688 1.398 . S
C1687 C1693 1.491 . S
C1688 H1679 0.950 . S
C1688 C1687 1.398 . S
C1688 C1689 1.391 . S
C1689 H1677 0.950 . S
C1689 C1685 1.393 . S
C1689 C1688 1.391 . S
C1690 H1680 0.950 . S
C1690 C1691 1.386 . S
C1690 C1692 1.391 . S
C1691 C1690 1.386 . S
C1691 C1695 1.393 1_554 S
C1692 H1681 0.950 . S
C1692 C1690 1.391 . S
C1692 C1693 1.400 . S
C1693 C1687 1.491 . S
C1693 C1692 1.400 . S
C1693 C1694 1.398 1_554 S
C1694 H1682 0.950 . S
C1694 C1693 1.398 1_556 S
C1694 C1695 1.391 . S
C1695 H1683 0.950 . S
C1695 C1691 1.393 1_556 S
C1695 C1694 1.391 . S
H1696 C1704 0.950 . S
H1697 C1709 0.950 . S
H1698 C1706 0.950 . S
H1699 C1708 0.950 . S
H1700 C1710 0.950 . S
H1701 C1712 0.950 . S
H1702 C1714 0.950 . S
H1703 C1715 0.950 . S
C1704 H1696 0.950 . S
C1704 C1705 1.386 . S
C1704 C1706 1.391 . S
C1705 C1704 1.386 . S
C1705 C1709 1.393 . S
C1706 H1698 0.950 . S
C1706 C1704 1.391 . S
C1706 C1707 1.400 . S
C1707 C1706 1.400 . S
C1707 C1708 1.398 . S
C1707 C1713 1.491 . S
C1708 H1699 0.950 . S
C1708 C1707 1.398 . S
C1708 C1709 1.391 . S
C1709 H1697 0.950 . S
C1709 C1705 1.393 . S
C1709 C1708 1.391 . S
C1710 H1700 0.950 . S
C1710 C1711 1.386 . S
C1710 C1712 1.391 . S
C1711 C1710 1.386 . S
C1711 C1715 1.393 . S
C1712 H1701 0.950 . S
C1712 C1710 1.391 . S
C1712 C1713 1.400 . S
C1713 C1707 1.491 . S
C1713 C1712 1.400 . S
C1713 C1714 1.398 . S
C1714 H1702 0.950 . S
C1714 C1713 1.398 . S
C1714 C1715 1.391 . S
C1715 H1703 0.950 . S
C1715 C1711 1.393 . S
C1715 C1714 1.391 . S
H1716 C1724 0.950 . S
H1717 C1729 0.950 . S
H1718 C1726 0.950 . S
H1719 C1728 0.950 . S
H1720 C1730 0.950 . S
H1721 C1732 0.950 . S
H1722 C1734 0.950 . S
H1723 C1735 0.950 . S
C1724 H1716 0.950 . S
C1724 C1725 1.386 . S
C1724 C1726 1.391 . S
C1725 C1724 1.386 . S
C1725 C1729 1.393 . S
C1726 H1718 0.950 . S
C1726 C1724 1.391 . S
C1726 C1727 1.400 . S
C1727 C1726 1.400 . S
C1727 C1728 1.398 . S
C1727 C1733 1.491 . S
C1728 H1719 0.950 . S
C1728 C1727 1.398 . S
C1728 C1729 1.391 . S
C1729 H1717 0.950 . S
C1729 C1725 1.393 . S
C1729 C1728 1.391 . S
C1730 H1720 0.950 . S
C1730 C1731 1.386 . S
C1730 C1732 1.391 . S
C1731 C1730 1.386 . S
C1731 C1735 1.393 . S
C1732 H1721 0.950 . S
C1732 C1730 1.391 . S
C1732 C1733 1.400 . S
C1733 C1727 1.491 . S
C1733 C1732 1.400 . S
C1733 C1734 1.398 . S
C1734 H1722 0.950 . S
C1734 C1733 1.398 . S
C1734 C1735 1.391 . S
C1735 H1723 0.950 . S
C1735 C1731 1.393 . S
C1735 C1734 1.391 . S
H1736 C1744 0.950 . S
H1737 C1749 0.950 . S
H1738 C1746 0.950 . S
H1739 C1748 0.950 . S
H1740 C1750 0.950 . S
H1741 C1752 0.950 . S
H1742 C1754 0.950 . S
H1743 C1755 0.950 . S
C1744 H1736 0.950 . S
C1744 C1745 1.386 . S
C1744 C1746 1.391 . S
C1745 C1744 1.386 . S
C1745 C1749 1.393 . S
C1746 H1738 0.950 . S
C1746 C1744 1.391 . S
C1746 C1747 1.400 . S
C1747 C1746 1.400 . S
C1747 C1748 1.398 . S
C1747 C1753 1.491 . S
C1748 H1739 0.950 . S
C1748 C1747 1.398 . S
C1748 C1749 1.391 . S
C1749 H1737 0.950 . S
C1749 C1745 1.393 . S
C1749 C1748 1.391 . S
C1750 H1740 0.950 . S
C1750 C1751 1.386 . S
C1750 C1752 1.391 . S
C1751 C1750 1.386 . S
C1751 C1755 1.393 . S
C1752 H1741 0.950 . S
C1752 C1750 1.391 . S
C1752 C1753 1.400 . S
C1753 C1747 1.491 . S
C1753 C1752 1.400 . S
C1753 C1754 1.398 . S
C1754 H1742 0.950 . S
C1754 C1753 1.398 . S
C1754 C1755 1.391 . S
C1755 H1743 0.950 . S
C1755 C1751 1.393 . S
C1755 C1754 1.391 . S
H1756 C1764 0.950 . S
H1757 C1769 0.950 . S
H1758 C1766 0.950 . S
H1759 C1768 0.950 . S
H1760 C1770 0.950 . S
H1761 C1772 0.950 . S
H1762 C1774 0.950 . S
H1763 C1775 0.950 . S
C1764 H1756 0.950 . S
C1764 C1765 1.386 . S
C1764 C1766 1.391 . S
C1765 C1764 1.386 . S
C1765 C1769 1.393 . S
C1766 H1758 0.950 . S
C1766 C1764 1.391 . S
C1766 C1767 1.400 . S
C1767 C1766 1.400 . S
C1767 C1768 1.398 . S
C1767 C1773 1.491 . S
C1768 H1759 0.950 . S
C1768 C1767 1.398 . S
C1768 C1769 1.391 . S
C1769 H1757 0.950 . S
C1769 C1765 1.393 . S
C1769 C1768 1.391 . S
C1770 H1760 0.950 . S
C1770 C1771 1.386 . S
C1770 C1772 1.391 . S
C1771 C1770 1.386 . S
C1771 C1775 1.393 . S
C1772 H1761 0.950 . S
C1772 C1770 1.391 . S
C1772 C1773 1.400 . S
C1773 C1767 1.491 . S
C1773 C1772 1.400 . S
C1773 C1774 1.398 . S
C1774 H1762 0.950 . S
C1774 C1773 1.398 . S
C1774 C1775 1.391 . S
C1775 H1763 0.950 . S
C1775 C1771 1.393 . S
C1775 C1774 1.391 . S
H1776 C1784 0.950 . S
H1777 C1789 0.950 . S
H1778 C1786 0.950 . S
H1779 C1788 0.950 . S
H1780 C1790 0.950 . S
H1781 C1792 0.950 . S
H1782 C1794 0.950 . S
H1783 C1795 0.950 . S
C1784 H1776 0.950 . S
C1784 C1785 1.386 . S
C1784 C1786 1.391 . S
C1785 C1784 1.386 . S
C1785 C1789 1.393 . S
C1786 H1778 0.950 . S
C1786 C1784 1.391 . S
C1786 C1787 1.400 . S
C1787 C1786 1.400 . S
C1787 C1788 1.398 . S
C1787 C1793 1.491 . S
C1788 H1779 0.950 . S
C1788 C1787 1.398 . S
C1788 C1789 1.391 . S
C1789 H1777 0.950 . S
C1789 C1785 1.393 . S
C1789 C1788 1.391 . S
C1790 H1780 0.950 . S
C1790 C1791 1.386 . S
C1790 C1792 1.391 . S
C1791 C1790 1.386 . S
C1791 C1795 1.393 . S
C1792 H1781 0.950 . S
C1792 C1790 1.391 . S
C1792 C1793 1.400 . S
C1793 C1787 1.491 . S
C1793 C1792 1.400 . S
C1793 C1794 1.398 . S
C1794 H1782 0.950 . S
C1794 C1793 1.398 . S
C1794 C1795 1.391 . S
C1795 H1783 0.950 . S
C1795 C1791 1.393 . S
C1795 C1794 1.391 . S
H1796 C1804 0.950 . S
H1797 C1809 0.950 . S
H1798 C1806 0.950 . S
H1799 C1808 0.950 . S
H1800 C1810 0.950 . S
H1801 C1812 0.950 . S
H1802 C1814 0.950 . S
H1803 C1815 0.950 . S
C1804 H1796 0.950 . S
C1804 C1805 1.386 . S
C1804 C1806 1.391 . S
C1805 C1804 1.386 . S
C1805 C1809 1.393 . S
C1806 H1798 0.950 . S
C1806 C1804 1.391 . S
C1806 C1807 1.400 . S
C1807 C1806 1.400 . S
C1807 C1808 1.398 . S
C1807 C1813 1.491 . S
C1808 H1799 0.950 . S
C1808 C1807 1.398 . S
C1808 C1809 1.391 . S
C1809 H1797 0.950 . S
C1809 C1805 1.393 . S
C1809 C1808 1.391 . S
C1810 H1800 0.950 . S
C1810 C1811 1.386 . S
C1810 C1812 1.391 . S
C1811 C1810 1.386 . S
C1811 C1815 1.393 . S
C1812 H1801 0.950 . S
C1812 C1810 1.391 . S
C1812 C1813 1.400 . S
C1813 C1807 1.491 . S
C1813 C1812 1.400 . S
C1813 C1814 1.398 . S
C1814 H1802 0.950 . S
C1814 C1813 1.398 . S
C1814 C1815 1.391 . S
C1815 H1803 0.950 . S
C1815 C1811 1.393 . S
C1815 C1814 1.391 . S
H1816 C1824 0.950 . S
H1817 C1829 0.950 . S
H1818 C1826 0.950 . S
H1819 C1828 0.950 . S
H1820 C1830 0.950 . S
H1821 C1832 0.950 . S
H1822 C1834 0.950 . S
H1823 C1835 0.950 . S
C1824 H1816 0.950 . S
C1824 C1825 1.386 . S
C1824 C1826 1.391 . S
C1825 C1824 1.386 . S
C1825 C1829 1.393 . S
C1826 H1818 0.950 . S
C1826 C1824 1.391 . S
C1826 C1827 1.400 . S
C1827 C1826 1.400 . S
C1827 C1828 1.398 . S
C1827 C1833 1.491 . S
C1828 H1819 0.950 . S
C1828 C1827 1.398 . S
C1828 C1829 1.391 . S
C1829 H1817 0.950 . S
C1829 C1825 1.393 . S
C1829 C1828 1.391 . S
C1830 H1820 0.950 . S
C1830 C1831 1.386 . S
C1830 C1832 1.391 . S
C1831 C1830 1.386 . S
C1831 C1835 1.393 . S
C1832 H1821 0.950 . S
C1832 C1830 1.391 . S
C1832 C1833 1.400 . S
C1833 C1827 1.491 . S
C1833 C1832 1.400 . S
C1833 C1834 1.398 . S
C1834 H1822 0.950 . S
C1834 C1833 1.398 . S
C1834 C1835 1.391 . S
C1835 H1823 0.950 . S
C1835 C1831 1.393 . S
C1835 C1834 1.391 . S
H1836 C1844 0.950 . S
H1837 C1849 0.950 . S
H1838 C1846 0.950 . S
H1839 C1848 0.950 . S
H1840 C1850 0.950 . S
H1841 C1852 0.950 . S
H1842 C1854 0.950 . S
H1843 C1855 0.950 . S
C1844 H1836 0.950 . S
C1844 C1845 1.386 . S
C1844 C1846 1.391 . S
C1845 C1844 1.386 . S
C1845 C1849 1.393 . S
C1846 H1838 0.950 . S
C1846 C1844 1.391 . S
C1846 C1847 1.400 . S
C1847 C1846 1.400 . S
C1847 C1848 1.398 . S
C1847 C1853 1.491 . S
C1848 H1839 0.950 . S
C1848 C1847 1.398 . S
C1848 C1849 1.391 . S
C1849 H1837 0.950 . S
C1849 C1845 1.393 . S
C1849 C1848 1.391 . S
C1850 H1840 0.950 . S
C1850 C1851 1.386 . S
C1850 C1852 1.391 . S
C1851 C1850 1.386 . S
C1851 C1855 1.393 . S
C1852 H1841 0.950 . S
C1852 C1850 1.391 . S
C1852 C1853 1.400 . S
C1853 C1847 1.491 . S
C1853 C1852 1.400 . S
C1853 C1854 1.398 . S
C1854 H1842 0.950 . S
C1854 C1853 1.398 . S
C1854 C1855 1.391 . S
C1855 H1843 0.950 . S
C1855 C1851 1.393 . S
C1855 C1854 1.391 . S
H1856 C1864 0.950 . S
H1857 C1869 0.950 . S
H1858 C1866 0.950 . S
H1859 C1868 0.950 . S
H1860 C1870 0.950 . S
H1861 C1872 0.950 . S
H1862 C1874 0.950 . S
H1863 C1875 0.950 . S
C1864 H1856 0.950 . S
C1864 C1865 1.386 . S
C1864 C1866 1.391 . S
C1865 C1864 1.386 . S
C1865 C1869 1.393 . S
C1866 H1858 0.950 . S
C1866 C1864 1.391 . S
C1866 C1867 1.400 . S
C1867 C1866 1.400 . S
C1867 C1868 1.398 . S
C1867 C1873 1.491 . S
C1868 H1859 0.950 . S
C1868 C1867 1.398 . S
C1868 C1869 1.391 . S
C1869 H1857 0.950 . S
C1869 C1865 1.393 . S
C1869 C1868 1.391 . S
C1870 H1860 0.950 . S
C1870 C1871 1.386 . S
C1870 C1872 1.391 . S
C1871 C1870 1.386 . S
C1871 C1875 1.393 . S
C1872 H1861 0.950 . S
C1872 C1870 1.391 . S
C1872 C1873 1.400 . S
C1873 C1867 1.491 . S
C1873 C1872 1.400 . S
C1873 C1874 1.398 . S
C1874 H1862 0.950 . S
C1874 C1873 1.398 . S
C1874 C1875 1.391 . S
C1875 H1863 0.950 . S
C1875 C1871 1.393 . S
C1875 C1874 1.391 . S
H1876 C1884 0.950 . S
H1877 C1889 0.950 . S
H1878 C1886 0.950 . S
H1879 C1888 0.950 . S
H1880 C1890 0.950 . S
H1881 C1892 0.950 . S
H1882 C1894 0.950 . S
H1883 C1895 0.950 . S
C1884 H1876 0.950 . S
C1884 C1885 1.386 . S
C1884 C1886 1.391 . S
C1885 C1884 1.386 . S
C1885 C1889 1.393 . S
C1886 H1878 0.950 . S
C1886 C1884 1.391 . S
C1886 C1887 1.400 . S
C1887 C1886 1.400 . S
C1887 C1888 1.398 . S
C1887 C1893 1.491 . S
C1888 H1879 0.950 . S
C1888 C1887 1.398 . S
C1888 C1889 1.391 . S
C1889 H1877 0.950 . S
C1889 C1885 1.393 . S
C1889 C1888 1.391 . S
C1890 H1880 0.950 . S
C1890 C1891 1.386 . S
C1890 C1892 1.391 . S
C1891 C1890 1.386 . S
C1891 C1895 1.393 . S
C1892 H1881 0.950 . S
C1892 C1890 1.391 . S
C1892 C1893 1.400 . S
C1893 C1887 1.491 . S
C1893 C1892 1.400 . S
C1893 C1894 1.398 . S
C1894 H1882 0.950 . S
C1894 C1893 1.398 . S
C1894 C1895 1.391 . S
C1895 H1883 0.950 . S
C1895 C1891 1.393 . S
C1895 C1894 1.391 . S
H1896 C1904 0.950 . S
H1897 C1909 0.950 . S
H1898 C1906 0.950 . S
H1899 C1908 0.950 . S
H1900 C1910 0.950 . S
H1901 C1912 0.950 . S
H1902 C1914 0.950 . S
H1903 C1915 0.950 . S
C1904 H1896 0.950 . S
C1904 C1905 1.386 . S
C1904 C1906 1.391 . S
C1905 C1904 1.386 . S
C1905 C1909 1.393 . S
C1906 H1898 0.950 . S
C1906 C1904 1.391 . S
C1906 C1907 1.400 . S
C1907 C1906 1.400 . S
C1907 C1908 1.398 . S
C1907 C1913 1.491 . S
C1908 H1899 0.950 . S
C1908 C1907 1.398 . S
C1908 C1909 1.391 . S
C1909 H1897 0.950 . S
C1909 C1905 1.393 . S
C1909 C1908 1.391 . S
C1910 H1900 0.950 . S
C1910 C1911 1.398 . S
C1910 C1912 1.391 . S
C1911 C1910 1.398 . S
C1911 C1915 1.410 . S
C1912 H1901 0.950 . S
C1912 C1910 1.391 . S
C1912 C1913 1.400 . S
C1913 C1907 1.491 . S
C1913 C1912 1.400 . S
C1913 C1914 1.398 . S
C1914 H1902 0.950 . S
C1914 C1913 1.398 . S
C1914 C1915 1.391 . S
C1915 H1903 0.950 . S
C1915 C1911 1.410 . S
C1915 C1914 1.391 . S
H1916 C1924 0.950 . S
H1917 C1929 0.950 . S
H1918 C1926 0.950 . S
H1919 C1928 0.950 . S
H1920 C1930 0.950 . S
H1921 C1932 0.950 . S
H1922 C1934 0.950 . S
H1923 C1935 0.950 . S
C1924 H1916 0.950 . S
C1924 C1925 1.386 . S
C1924 C1926 1.391 1_455 S
C1925 C1924 1.386 . S
C1925 C1929 1.393 1_455 S
C1926 H1918 0.950 . S
C1926 C1924 1.391 1_655 S
C1926 C1927 1.400 . S
C1927 C1926 1.400 . S
C1927 C1928 1.398 . S
C1927 C1933 1.491 . S
C1928 H1919 0.950 . S
C1928 C1927 1.398 . S
C1928 C1929 1.391 . S
C1929 H1917 0.950 . S
C1929 C1925 1.393 1_655 S
C1929 C1928 1.391 . S
C1930 H1920 0.950 . S
C1930 C1931 1.386 . S
C1930 C1932 1.391 . S
C1931 C1930 1.386 . S
C1931 C1935 1.393 . S
C1932 H1921 0.950 . S
C1932 C1930 1.391 . S
C1932 C1933 1.400 . S
C1933 C1927 1.491 . S
C1933 C1932 1.400 . S
C1933 C1934 1.398 . S
C1934 H1922 0.950 . S
C1934 C1933 1.398 . S
C1934 C1935 1.391 . S
C1935 H1923 0.950 . S
C1935 C1931 1.393 . S
C1935 C1934 1.391 . S
H1936 C1944 0.950 . S
H1937 C1949 0.950 . S
H1938 C1946 0.950 . S
H1939 C1948 0.950 . S
H1940 C1950 0.950 . S
H1941 C1952 0.950 . S
H1942 C1954 0.950 . S
H1943 C1955 0.950 . S
C1944 H1936 0.950 . S
C1944 C1945 1.386 . S
C1944 C1946 1.391 . S
C1945 C1944 1.386 . S
C1945 C1949 1.393 . S
C1946 H1938 0.950 . S
C1946 C1944 1.391 . S
C1946 C1947 1.400 . S
C1947 C1946 1.400 . S
C1947 C1948 1.398 . S
C1947 C1953 1.491 . S
C1948 H1939 0.950 . S
C1948 C1947 1.398 . S
C1948 C1949 1.391 . S
C1949 H1937 0.950 . S
C1949 C1945 1.393 . S
C1949 C1948 1.391 . S
C1950 H1940 0.950 . S
C1950 C1951 1.386 . S
C1950 C1952 1.391 . S
C1951 C1950 1.386 . S
C1951 C1955 1.393 . S
C1952 H1941 0.950 . S
C1952 C1950 1.391 . S
C1952 C1953 1.400 . S
C1953 C1947 1.491 . S
C1953 C1952 1.400 . S
C1953 C1954 1.398 . S
C1954 H1942 0.950 . S
C1954 C1953 1.398 . S
C1954 C1955 1.391 . S
C1955 H1943 0.950 . S
C1955 C1951 1.393 . S
C1955 C1954 1.391 . S
H1956 C1964 0.950 . S
H1957 C1969 0.950 . S
H1958 C1966 0.950 . S
H1959 C1968 0.950 . S
H1960 C1970 0.950 . S
H1961 C1972 0.950 . S
H1962 C1974 0.950 . S
H1963 C1975 0.950 . S
C1964 H1956 0.950 . S
C1964 C1965 1.386 . S
C1964 C1966 1.391 . S
C1965 C1964 1.386 . S
C1965 C1969 1.393 . S
C1966 H1958 0.950 . S
C1966 C1964 1.391 . S
C1966 C1967 1.400 . S
C1967 C1966 1.400 . S
C1967 C1968 1.398 . S
C1967 C1973 1.491 . S
C1968 H1959 0.950 . S
C1968 C1967 1.398 . S
C1968 C1969 1.391 . S
C1969 H1957 0.950 . S
C1969 C1965 1.393 . S
C1969 C1968 1.391 . S
C1970 H1960 0.950 . S
C1970 C1971 1.386 . S
C1970 C1972 1.391 . S
C1971 C1970 1.386 . S
C1971 C1975 1.393 . S
C1972 H1961 0.950 . S
C1972 C1970 1.391 . S
C1972 C1973 1.400 . S
C1973 C1967 1.491 . S
C1973 C1972 1.400 . S
C1973 C1974 1.398 . S
C1974 H1962 0.950 . S
C1974 C1973 1.398 . S
C1974 C1975 1.391 . S
C1975 H1963 0.950 . S
C1975 C1971 1.393 . S
C1975 C1974 1.391 . S
H1976 C1984 0.950 . S
H1977 C1989 0.950 . S
H1978 C1986 0.950 . S
H1979 C1988 0.950 . S
H1980 C1990 0.950 . S
H1981 C1992 0.950 . S
H1982 C1994 0.950 . S
H1983 C1995 0.950 . S
C1984 H1976 0.950 . S
C1984 C1985 1.386 . S
C1984 C1986 1.391 . S
C1985 C1984 1.386 . S
C1985 C1989 1.393 . S
C1986 H1978 0.950 . S
C1986 C1984 1.391 . S
C1986 C1987 1.400 . S
C1987 C1986 1.400 . S
C1987 C1988 1.398 . S
C1987 C1993 1.491 . S
C1988 H1979 0.950 . S
C1988 C1987 1.398 . S
C1988 C1989 1.391 . S
C1989 H1977 0.950 . S
C1989 C1985 1.393 . S
C1989 C1988 1.391 . S
C1990 H1980 0.950 . S
C1990 C1991 1.386 . S
C1990 C1992 1.391 . S
C1991 C1990 1.386 . S
C1991 C1995 1.393 . S
C1992 H1981 0.950 . S
C1992 C1990 1.391 . S
C1992 C1993 1.400 . S
C1993 C1987 1.491 . S
C1993 C1992 1.400 . S
C1993 C1994 1.398 . S
C1994 H1982 0.950 . S
C1994 C1993 1.398 . S
C1994 C1995 1.391 . S
C1995 H1983 0.950 . S
C1995 C1991 1.393 . S
C1995 C1994 1.391 . S
H1996 C2004 0.950 . S
H1997 C2009 0.950 1_554 S
H1998 C2006 0.950 . S
H1999 C2008 0.950 . S
H2000 C2010 0.950 . S
H2001 C2012 0.950 . S
H2002 C2014 0.950 . S
H2003 C2015 0.950 . S
C2004 H1996 0.950 . S
C2004 C2005 1.386 . S
C2004 C2006 1.391 . S
C2005 C2004 1.386 . S
C2005 C2009 1.393 . S
C2006 H1998 0.950 . S
C2006 C2004 1.391 . S
C2006 C2007 1.400 . S
C2007 C2006 1.400 . S
C2007 C2008 1.398 . S
C2007 C2013 1.491 . S
C2008 H1999 0.950 . S
C2008 C2007 1.398 . S
C2008 C2009 1.391 . S
C2009 H1997 0.950 1_556 S
C2009 C2005 1.393 . S
C2009 C2008 1.391 . S
C2010 H2000 0.950 . S
C2010 C2011 1.386 . S
C2010 C2012 1.391 . S
C2011 C2010 1.386 . S
C2011 C2015 1.393 . S
C2012 H2001 0.950 . S
C2012 C2010 1.391 . S
C2012 C2013 1.400 . S
C2013 C2007 1.491 . S
C2013 C2012 1.400 . S
C2013 C2014 1.398 . S
C2014 H2002 0.950 . S
C2014 C2013 1.398 . S
C2014 C2015 1.391 . S
C2015 H2003 0.950 . S
C2015 C2011 1.393 . S
C2015 C2014 1.391 . S
H2016 C2024 0.950 . S
H2017 C2029 0.950 . S
H2018 C2026 0.950 . S
H2019 C2028 0.950 . S
H2020 C2030 0.950 . S
H2021 C2032 0.950 . S
H2022 C2034 0.950 . S
H2023 C2035 0.950 . S
C2024 H2016 0.950 . S
C2024 C2025 1.386 . S
C2024 C2026 1.391 . S
C2025 C2024 1.386 . S
C2025 C2029 1.393 . S
C2026 H2018 0.950 . S
C2026 C2024 1.391 . S
C2026 C2027 1.400 . S
C2027 C2026 1.400 . S
C2027 C2028 1.398 . S
C2027 C2033 1.491 . S
C2028 H2019 0.950 . S
C2028 C2027 1.398 . S
C2028 C2029 1.391 . S
C2029 H2017 0.950 . S
C2029 C2025 1.393 . S
C2029 C2028 1.391 . S
C2030 H2020 0.950 . S
C2030 C2031 1.386 . S
C2030 C2032 1.391 1_455 S
C2031 C2030 1.386 . S
C2031 C2035 1.393 1_455 S
C2032 H2021 0.950 . S
C2032 C2030 1.391 1_655 S
C2032 C2033 1.400 . S
C2033 C2027 1.491 . S
C2033 C2032 1.400 . S
C2033 C2034 1.398 . S
C2034 H2022 0.950 . S
C2034 C2033 1.398 . S
C2034 C2035 1.391 . S
C2035 H2023 0.950 . S
C2035 C2031 1.393 1_655 S
C2035 C2034 1.391 . S
H2036 C2044 0.950 . S
H2037 C2049 0.950 . S
H2038 C2046 0.950 . S
H2039 C2048 0.950 . S
H2040 C2050 0.950 . S
H2041 C2052 0.950 . S
H2042 C2054 0.950 . S
H2043 C2055 0.950 . S
C2044 H2036 0.950 . S
C2044 C2045 1.386 . S
C2044 C2046 1.391 . S
C2045 C2044 1.386 . S
C2045 C2049 1.393 . S
C2046 H2038 0.950 . S
C2046 C2044 1.391 . S
C2046 C2047 1.400 . S
C2047 C2046 1.400 . S
C2047 C2048 1.398 . S
C2047 C2053 1.491 . S
C2048 H2039 0.950 . S
C2048 C2047 1.398 . S
C2048 C2049 1.391 . S
C2049 H2037 0.950 . S
C2049 C2045 1.393 . S
C2049 C2048 1.391 . S
C2050 H2040 0.950 . S
C2050 C2051 1.386 . S
C2050 C2052 1.391 . S
C2051 C2050 1.386 . S
C2051 C2055 1.393 . S
C2052 H2041 0.950 . S
C2052 C2050 1.391 . S
C2052 C2053 1.400 . S
C2053 C2047 1.491 . S
C2053 C2052 1.400 . S
C2053 C2054 1.398 . S
C2054 H2042 0.950 . S
C2054 C2053 1.398 . S
C2054 C2055 1.391 . S
C2055 H2043 0.950 . S
C2055 C2051 1.393 . S
C2055 C2054 1.391 . S
H2056 C2064 0.950 . S
H2057 C2069 0.950 . S
H2058 C2066 0.950 . S
H2059 C2068 0.950 . S
H2060 C2070 0.950 . S
H2061 C2072 0.950 . S
H2062 C2074 0.950 . S
H2063 C2075 0.950 . S
C2064 H2056 0.950 . S
C2064 C2065 1.386 . S
C2064 C2066 1.391 . S
C2065 C2064 1.386 . S
C2065 C2069 1.393 . S
C2066 H2058 0.950 . S
C2066 C2064 1.391 . S
C2066 C2067 1.400 . S
C2067 C2066 1.400 . S
C2067 C2068 1.398 . S
C2067 C2073 1.491 . S
C2068 H2059 0.950 . S
C2068 C2067 1.398 . S
C2068 C2069 1.391 . S
C2069 H2057 0.950 . S
C2069 C2065 1.393 . S
C2069 C2068 1.391 . S
C2070 H2060 0.950 . S
C2070 C2071 1.386 . S
C2070 C2072 1.391 . S
C2071 C2070 1.386 . S
C2071 C2075 1.393 . S
C2072 H2061 0.950 . S
C2072 C2070 1.391 . S
C2072 C2073 1.400 . S
C2073 C2067 1.491 . S
C2073 C2072 1.400 . S
C2073 C2074 1.398 . S
C2074 H2062 0.950 . S
C2074 C2073 1.398 . S
C2074 C2075 1.391 . S
C2075 H2063 0.950 . S
C2075 C2071 1.393 . S
C2075 C2074 1.391 . S
H2076 C2084 0.950 . S
H2077 C2089 0.950 . S
H2078 C2086 0.950 . S
H2079 C2088 0.950 . S
H2080 C2090 0.950 . S
H2081 C2092 0.950 . S
H2082 C2094 0.950 . S
H2083 C2095 0.950 . S
C2084 H2076 0.950 . S
C2084 C2085 1.386 . S
C2084 C2086 1.391 . S
C2085 C2084 1.386 . S
C2085 C2089 1.393 . S
C2086 H2078 0.950 . S
C2086 C2084 1.391 . S
C2086 C2087 1.400 . S
C2087 C2086 1.400 . S
C2087 C2088 1.398 . S
C2087 C2093 1.491 . S
C2088 H2079 0.950 . S
C2088 C2087 1.398 . S
C2088 C2089 1.391 . S
C2089 H2077 0.950 . S
C2089 C2085 1.393 . S
C2089 C2088 1.391 . S
C2090 H2080 0.950 . S
C2090 C2091 1.386 . S
C2090 C2092 1.391 . S
C2091 C2090 1.386 . S
C2091 C2095 1.393 . S
C2092 H2081 0.950 . S
C2092 C2090 1.391 . S
C2092 C2093 1.400 . S
C2093 C2087 1.491 . S
C2093 C2092 1.400 . S
C2093 C2094 1.398 . S
C2094 H2082 0.950 . S
C2094 C2093 1.398 . S
C2094 C2095 1.391 . S
C2095 H2083 0.950 . S
C2095 C2091 1.393 . S
C2095 C2094 1.391 . S
H2096 C2104 0.950 . S
H2097 C2109 0.950 . S
H2098 C2106 0.950 . S
H2099 C2108 0.950 . S
H2100 C2110 0.950 1_455 S
H2101 C2112 0.950 . S
H2102 C2114 0.950 . S
H2103 C2115 0.950 . S
C2104 H2096 0.950 . S
C2104 C2105 1.386 . S
C2104 C2106 1.391 . S
C2105 C2104 1.386 . S
C2105 C2109 1.393 . S
C2106 H2098 0.950 . S
C2106 C2104 1.391 . S
C2106 C2107 1.400 . S
C2107 C2106 1.400 . S
C2107 C2108 1.398 . S
C2107 C2113 1.491 . S
C2108 H2099 0.950 . S
C2108 C2107 1.398 . S
C2108 C2109 1.391 . S
C2109 H2097 0.950 . S
C2109 C2105 1.393 . S
C2109 C2108 1.391 . S
C2110 H2100 0.950 1_655 S
C2110 C2111 1.386 . S
C2110 C2112 1.391 . S
C2111 C2110 1.386 . S
C2111 C2115 1.393 . S
C2112 H2101 0.950 . S
C2112 C2110 1.391 . S
C2112 C2113 1.400 . S
C2113 C2107 1.491 . S
C2113 C2112 1.400 . S
C2113 C2114 1.398 . S
C2114 H2102 0.950 . S
C2114 C2113 1.398 . S
C2114 C2115 1.391 . S
C2115 H2103 0.950 . S
C2115 C2111 1.393 . S
C2115 C2114 1.391 . S
H2116 C2124 0.950 . S
H2117 C2129 0.950 . S
H2118 C2126 0.950 . S
H2119 C2128 0.950 . S
H2120 C2130 0.950 . S
H2121 C2132 0.950 . S
H2122 C2134 0.950 . S
H2123 C2135 0.950 . S
C2124 H2116 0.950 . S
C2124 C2125 1.386 . S
C2124 C2126 1.391 . S
C2125 C2124 1.386 . S
C2125 C2129 1.393 . S
C2126 H2118 0.950 . S
C2126 C2124 1.391 . S
C2126 C2127 1.400 . S
C2127 C2126 1.400 . S
C2127 C2128 1.398 . S
C2127 C2133 1.491 . S
C2128 H2119 0.950 . S
C2128 C2127 1.398 . S
C2128 C2129 1.391 . S
C2129 H2117 0.950 . S
C2129 C2125 1.393 . S
C2129 C2128 1.391 . S
C2130 H2120 0.950 . S
C2130 C2131 1.386 . S
C2130 C2132 1.391 . S
C2131 C2130 1.386 . S
C2131 C2135 1.393 . S
C2132 H2121 0.950 . S
C2132 C2130 1.391 . S
C2132 C2133 1.400 . S
C2133 C2127 1.491 . S
C2133 C2132 1.400 . S
C2133 C2134 1.398 . S
C2134 H2122 0.950 . S
C2134 C2133 1.398 . S
C2134 C2135 1.391 . S
C2135 H2123 0.950 . S
C2135 C2131 1.393 . S
C2135 C2134 1.391 . S
H2136 C2144 0.950 . S
H2137 C2149 0.950 . S
H2138 C2146 0.950 . S
H2139 C2148 0.950 . S
H2140 C2150 0.950 . S
H2141 C2152 0.950 . S
H2142 C2154 0.950 . S
H2143 C2155 0.950 . S
C2144 H2136 0.950 . S
C2144 C2145 1.386 . S
C2144 C2146 1.391 . S
C2145 C2144 1.386 . S
C2145 C2149 1.393 . S
C2146 H2138 0.950 . S
C2146 C2144 1.391 . S
C2146 C2147 1.400 . S
C2147 C2146 1.400 . S
C2147 C2148 1.398 . S
C2147 C2153 1.491 . S
C2148 H2139 0.950 . S
C2148 C2147 1.398 . S
C2148 C2149 1.391 . S
C2149 H2137 0.950 . S
C2149 C2145 1.393 . S
C2149 C2148 1.391 . S
C2150 H2140 0.950 . S
C2150 C2151 1.386 . S
C2150 C2152 1.391 . S
C2151 C2150 1.386 . S
C2151 C2155 1.393 . S
C2152 H2141 0.950 . S
C2152 C2150 1.391 . S
C2152 C2153 1.400 . S
C2153 C2147 1.491 . S
C2153 C2152 1.400 . S
C2153 C2154 1.398 . S
C2154 H2142 0.950 . S
C2154 C2153 1.398 . S
C2154 C2155 1.391 . S
C2155 H2143 0.950 . S
C2155 C2151 1.393 . S
C2155 C2154 1.391 . S
H2156 C2164 0.950 . S
H2157 C2169 0.950 . S
H2158 C2166 0.950 . S
H2159 C2168 0.950 . S
H2160 C2170 0.950 . S
H2161 C2172 0.950 . S
H2162 C2174 0.950 . S
H2163 C2175 0.950 1_545 S
C2164 H2156 0.950 . S
C2164 C2165 1.386 . S
C2164 C2166 1.391 . S
C2165 C2164 1.386 . S
C2165 C2169 1.393 . S
C2166 H2158 0.950 . S
C2166 C2164 1.391 . S
C2166 C2167 1.400 . S
C2167 C2166 1.400 . S
C2167 C2168 1.398 . S
C2167 C2173 1.491 . S
C2168 H2159 0.950 . S
C2168 C2167 1.398 . S
C2168 C2169 1.391 . S
C2169 H2157 0.950 . S
C2169 C2165 1.393 . S
C2169 C2168 1.391 . S
C2170 H2160 0.950 . S
C2170 C2171 1.386 . S
C2170 C2172 1.391 . S
C2171 C2170 1.386 . S
C2171 C2175 1.393 . S
C2172 H2161 0.950 . S
C2172 C2170 1.391 . S
C2172 C2173 1.400 . S
C2173 C2167 1.491 . S
C2173 C2172 1.400 . S
C2173 C2174 1.398 . S
C2174 H2162 0.950 . S
C2174 C2173 1.398 . S
C2174 C2175 1.391 . S
C2175 H2163 0.950 1_565 S
C2175 C2171 1.393 . S
C2175 C2174 1.391 . S
H2176 C2184 0.950 . S
H2177 C2189 0.950 . S
H2178 C2186 0.950 . S
H2179 C2188 0.950 . S
H2180 C2190 0.950 . S
H2181 C2192 0.950 . S
H2182 C2194 0.950 . S
H2183 C2195 0.950 . S
C2184 H2176 0.950 . S
C2184 C2185 1.386 . S
C2184 C2186 1.391 . S
C2185 C2184 1.386 . S
C2185 C2189 1.393 . S
C2186 H2178 0.950 . S
C2186 C2184 1.391 . S
C2186 C2187 1.400 . S
C2187 C2186 1.400 . S
C2187 C2188 1.398 . S
C2187 C2193 1.491 . S
C2188 H2179 0.950 . S
C2188 C2187 1.398 . S
C2188 C2189 1.391 . S
C2189 H2177 0.950 . S
C2189 C2185 1.393 . S
C2189 C2188 1.391 . S
C2190 H2180 0.950 . S
C2190 C2191 1.386 . S
C2190 C2192 1.391 . S
C2191 C2190 1.386 . S
C2191 C2195 1.393 . S
C2192 H2181 0.950 . S
C2192 C2190 1.391 . S
C2192 C2193 1.400 . S
C2193 C2187 1.491 . S
C2193 C2192 1.400 . S
C2193 C2194 1.398 . S
C2194 H2182 0.950 . S
C2194 C2193 1.398 . S
C2194 C2195 1.391 . S
C2195 H2183 0.950 . S
C2195 C2191 1.393 . S
C2195 C2194 1.391 . S
H2196 C2204 0.950 . S
H2197 C2209 0.950 . S
H2198 C2206 0.950 . S
H2199 C2208 0.950 . S
H2200 C2210 0.950 . S
H2201 C2212 0.950 . S
H2202 C2214 0.950 . S
H2203 C2215 0.950 . S
C2204 H2196 0.950 . S
C2204 C2205 1.386 . S
C2204 C2206 1.391 . S
C2205 C2204 1.386 . S
C2205 C2209 1.393 . S
C2206 H2198 0.950 . S
C2206 C2204 1.391 . S
C2206 C2207 1.400 . S
C2207 C2206 1.400 . S
C2207 C2208 1.398 . S
C2207 C2213 1.491 . S
C2208 H2199 0.950 . S
C2208 C2207 1.398 . S
C2208 C2209 1.391 . S
C2209 H2197 0.950 . S
C2209 C2205 1.393 . S
C2209 C2208 1.391 . S
C2210 H2200 0.950 . S
C2210 C2211 1.386 . S
C2210 C2212 1.391 . S
C2211 C2210 1.386 . S
C2211 C2215 1.393 . S
C2212 H2201 0.950 . S
C2212 C2210 1.391 . S
C2212 C2213 1.400 . S
C2213 C2207 1.491 . S
C2213 C2212 1.400 . S
C2213 C2214 1.398 . S
C2214 H2202 0.950 . S
C2214 C2213 1.398 . S
C2214 C2215 1.391 . S
C2215 H2203 0.950 . S
C2215 C2211 1.393 . S
C2215 C2214 1.391 . S
H2216 C2224 0.950 . S
H2217 C2229 0.950 . S
H2218 C2226 0.950 . S
H2219 C2228 0.950 . S
H2220 C2230 0.950 . S
H2221 C2232 0.950 . S
H2222 C2234 0.950 . S
H2223 C2235 0.950 . S
C2224 H2216 0.950 . S
C2224 C2225 1.386 . S
C2224 C2226 1.391 . S
C2225 C2224 1.386 . S
C2225 C2229 1.393 . S
C2226 H2218 0.950 . S
C2226 C2224 1.391 . S
C2226 C2227 1.400 . S
C2227 C2226 1.400 . S
C2227 C2228 1.398 . S
C2227 C2233 1.491 . S
C2228 H2219 0.950 . S
C2228 C2227 1.398 . S
C2228 C2229 1.391 . S
C2229 H2217 0.950 . S
C2229 C2225 1.393 . S
C2229 C2228 1.391 . S
C2230 H2220 0.950 . S
C2230 C2231 1.386 . S
C2230 C2232 1.391 . S
C2231 C2230 1.386 . S
C2231 C2235 1.393 . S
C2232 H2221 0.950 . S
C2232 C2230 1.391 . S
C2232 C2233 1.400 . S
C2233 C2227 1.491 . S
C2233 C2232 1.400 . S
C2233 C2234 1.398 . S
C2234 H2222 0.950 . S
C2234 C2233 1.398 . S
C2234 C2235 1.391 . S
C2235 H2223 0.950 . S
C2235 C2231 1.393 . S
C2235 C2234 1.391 . S
H2236 C2244 0.950 . S
H2237 C2249 0.950 . S
H2238 C2246 0.950 . S
H2239 C2248 0.950 . S
H2240 C2250 0.950 . S
H2241 C2252 0.950 . S
H2242 C2254 0.950 . S
H2243 C2255 0.950 . S
C2244 H2236 0.950 . S
C2244 C2245 1.386 . S
C2244 C2246 1.391 . S
C2245 C2244 1.386 . S
C2245 C2249 1.393 . S
C2246 H2238 0.950 . S
C2246 C2244 1.391 . S
C2246 C2247 1.400 . S
C2247 C2246 1.400 . S
C2247 C2248 1.398 . S
C2247 C2253 1.491 . S
C2248 H2239 0.950 . S
C2248 C2247 1.398 . S
C2248 C2249 1.391 . S
C2249 H2237 0.950 . S
C2249 C2245 1.393 . S
C2249 C2248 1.391 . S
C2250 H2240 0.950 . S
C2250 C2251 1.386 . S
C2250 C2252 1.391 . S
C2251 C2250 1.386 . S
C2251 C2255 1.393 . S
C2252 H2241 0.950 . S
C2252 C2250 1.391 . S
C2252 C2253 1.400 . S
C2253 C2247 1.491 . S
C2253 C2252 1.400 . S
C2253 C2254 1.398 . S
C2254 H2242 0.950 . S
C2254 C2253 1.398 . S
C2254 C2255 1.391 . S
C2255 H2243 0.950 . S
C2255 C2251 1.393 . S
C2255 C2254 1.391 . S
H2256 C2264 0.950 . S
H2257 C2269 0.950 . S
H2258 C2266 0.950 . S
H2259 C2268 0.950 . S
H2260 C2270 0.950 . S
H2261 C2272 0.950 . S
H2262 C2274 0.950 . S
H2263 C2275 0.950 . S
C2264 H2256 0.950 . S
C2264 C2265 1.386 . S
C2264 C2266 1.391 . S
C2265 C2264 1.386 . S
C2265 C2269 1.393 . S
C2266 H2258 0.950 . S
C2266 C2264 1.391 . S
C2266 C2267 1.400 . S
C2267 C2266 1.400 . S
C2267 C2268 1.398 . S
C2267 C2273 1.491 . S
C2268 H2259 0.950 . S
C2268 C2267 1.398 . S
C2268 C2269 1.391 . S
C2269 H2257 0.950 . S
C2269 C2265 1.393 . S
C2269 C2268 1.391 . S
C2270 H2260 0.950 . S
C2270 C2271 1.386 . S
C2270 C2272 1.391 . S
C2271 C2270 1.386 . S
C2271 C2275 1.393 . S
C2272 H2261 0.950 . S
C2272 C2270 1.391 . S
C2272 C2273 1.400 . S
C2273 C2267 1.491 . S
C2273 C2272 1.400 . S
C2273 C2274 1.398 . S
C2274 H2262 0.950 . S
C2274 C2273 1.398 . S
C2274 C2275 1.391 . S
C2275 H2263 0.950 . S
C2275 C2271 1.393 . S
C2275 C2274 1.391 . S
H2276 C2284 0.950 . S
H2277 C2289 0.950 . S
H2278 C2286 0.950 . S
H2279 C2288 0.950 . S
H2280 C2290 0.950 . S
H2281 C2292 0.950 . S
H2282 C2294 0.950 . S
H2283 C2295 0.950 . S
C2284 H2276 0.950 . S
C2284 C2285 1.386 . S
C2284 C2286 1.391 . S
C2285 C2284 1.386 . S
C2285 C2289 1.393 . S
C2286 H2278 0.950 . S
C2286 C2284 1.391 . S
C2286 C2287 1.400 . S
C2287 C2286 1.400 . S
C2287 C2288 1.398 . S
C2287 C2293 1.491 . S
C2288 H2279 0.950 . S
C2288 C2287 1.398 . S
C2288 C2289 1.391 . S
C2289 H2277 0.950 . S
C2289 C2285 1.393 . S
C2289 C2288 1.391 . S
C2290 H2280 0.950 . S
C2290 C2291 1.386 . S
C2290 C2292 1.391 . S
C2291 C2290 1.386 . S
C2291 C2295 1.393 . S
C2292 H2281 0.950 . S
C2292 C2290 1.391 . S
C2292 C2293 1.400 . S
C2293 C2287 1.491 . S
C2293 C2292 1.400 . S
C2293 C2294 1.398 . S
C2294 H2282 0.950 . S
C2294 C2293 1.398 . S
C2294 C2295 1.391 . S
C2295 H2283 0.950 . S
C2295 C2291 1.393 . S
C2295 C2294 1.391 . S
H2296 C2304 0.950 . S
H2297 C2309 0.950 . S
H2298 C2306 0.950 . S
H2299 C2308 0.950 . S
H2300 C2310 0.950 . S
H2301 C2312 0.950 . S
H2302 C2314 0.950 . S
H2303 C2315 0.950 . S
C2304 H2296 0.950 . S
C2304 C2305 1.386 . S
C2304 C2306 1.391 . S
C2305 C2304 1.386 . S
C2305 C2309 1.393 . S
C2306 H2298 0.950 . S
C2306 C2304 1.391 . S
C2306 C2307 1.400 . S
C2307 C2306 1.400 . S
C2307 C2308 1.398 . S
C2307 C2313 1.491 . S
C2308 H2299 0.950 . S
C2308 C2307 1.398 . S
C2308 C2309 1.391 . S
C2309 H2297 0.950 . S
C2309 C2305 1.393 . S
C2309 C2308 1.391 . S
C2310 H2300 0.950 . S
C2310 C2311 1.386 . S
C2310 C2312 1.391 . S
C2311 C2310 1.386 . S
C2311 C2315 1.393 . S
C2312 H2301 0.950 . S
C2312 C2310 1.391 . S
C2312 C2313 1.400 . S
C2313 C2307 1.491 . S
C2313 C2312 1.400 . S
C2313 C2314 1.398 . S
C2314 H2302 0.950 . S
C2314 C2313 1.398 . S
C2314 C2315 1.391 . S
C2315 H2303 0.950 . S
C2315 C2311 1.393 . S
C2315 C2314 1.391 . S
H2316 C2324 0.950 . S
H2317 C2329 0.950 . S
H2318 C2326 0.950 . S
H2319 C2328 0.950 . S
H2320 C2330 0.950 . S
H2321 C2332 0.950 . S
H2322 C2334 0.950 . S
H2323 C2335 0.950 . S
C2324 H2316 0.950 . S
C2324 C2325 1.386 . S
C2324 C2326 1.391 . S
C2325 C2324 1.386 . S
C2325 C2329 1.393 . S
C2326 H2318 0.950 . S
C2326 C2324 1.391 . S
C2326 C2327 1.400 . S
C2327 C2326 1.400 . S
C2327 C2328 1.398 . S
C2327 C2333 1.491 . S
C2328 H2319 0.950 . S
C2328 C2327 1.398 . S
C2328 C2329 1.391 . S
C2329 H2317 0.950 . S
C2329 C2325 1.393 . S
C2329 C2328 1.391 . S
C2330 H2320 0.950 . S
C2330 C2331 1.386 . S
C2330 C2332 1.391 . S
C2331 C2330 1.386 . S
C2331 C2335 1.393 . S
C2332 H2321 0.950 . S
C2332 C2330 1.391 . S
C2332 C2333 1.400 . S
C2333 C2327 1.491 . S
C2333 C2332 1.400 . S
C2333 C2334 1.398 . S
C2334 H2322 0.950 . S
C2334 C2333 1.398 . S
C2334 C2335 1.391 . S
C2335 H2323 0.950 . S
C2335 C2331 1.393 . S
C2335 C2334 1.391 . S
H2336 C2344 0.950 . S
H2337 C2349 0.950 . S
H2338 C2346 0.950 . S
H2339 C2348 0.950 . S
H2340 C2350 0.950 . S
H2341 C2352 0.950 . S
H2342 C2354 0.950 . S
H2343 C2355 0.950 . S
C2344 H2336 0.950 . S
C2344 C2345 1.386 1_655 S
C2344 C2346 1.391 . S
C2345 C2344 1.386 1_455 S
C2345 C2349 1.393 . S
C2346 H2338 0.950 . S
C2346 C2344 1.391 . S
C2346 C2347 1.400 1_655 S
C2347 C2346 1.400 1_455 S
C2347 C2348 1.398 . S
C2347 C2353 1.491 . S
C2348 H2339 0.950 . S
C2348 C2347 1.398 . S
C2348 C2349 1.391 . S
C2349 H2337 0.950 . S
C2349 C2345 1.393 . S
C2349 C2348 1.391 . S
C2350 H2340 0.950 . S
C2350 C2351 1.423 . S
C2350 C2352 1.391 . S
C2351 C2350 1.423 . S
C2351 C2355 1.359 1_455 S
C2352 H2341 0.950 . S
C2352 C2350 1.391 . S
C2352 C2353 1.400 . S
C2353 C2347 1.491 . S
C2353 C2352 1.400 . S
C2353 C2354 1.398 1_455 S
C2354 H2342 0.950 . S
C2354 C2353 1.398 1_655 S
C2354 C2355 1.391 . S
C2355 H2343 0.950 . S
C2355 C2351 1.359 1_655 S
C2355 C2354 1.391 . S
H2356 C2364 0.950 . S
H2357 C2369 0.950 . S
H2358 C2366 0.950 . S
H2359 C2368 0.950 . S
H2360 C2370 0.950 . S
H2361 C2372 0.950 . S
H2362 C2374 0.950 . S
H2363 C2375 0.950 . S
C2364 H2356 0.950 . S
C2364 C2365 1.386 . S
C2364 C2366 1.391 . S
C2365 C2364 1.386 . S
C2365 C2369 1.393 . S
C2366 H2358 0.950 . S
C2366 C2364 1.391 . S
C2366 C2367 1.400 . S
C2367 C2366 1.400 . S
C2367 C2368 1.398 . S
C2367 C2373 1.491 . S
C2368 H2359 0.950 . S
C2368 C2367 1.398 . S
C2368 C2369 1.391 . S
C2369 H2357 0.950 . S
C2369 C2365 1.393 . S
C2369 C2368 1.391 . S
C2370 H2360 0.950 . S
C2370 C2371 1.386 . S
C2370 C2372 1.391 . S
C2371 C2370 1.386 . S
C2371 C2375 1.393 . S
C2372 H2361 0.950 . S
C2372 C2370 1.391 . S
C2372 C2373 1.400 . S
C2373 C2367 1.491 . S
C2373 C2372 1.400 . S
C2373 C2374 1.398 . S
C2374 H2362 0.950 . S
C2374 C2373 1.398 . S
C2374 C2375 1.391 . S
C2375 H2363 0.950 . S
C2375 C2371 1.393 . S
C2375 C2374 1.391 . S
H2376 C2384 0.950 . S
H2377 C2389 0.950 . S
H2378 C2386 0.950 . S
H2379 C2388 0.950 . S
H2380 C2390 0.950 . S
H2381 C2392 0.950 . S
H2382 C2394 0.950 . S
H2383 C2395 0.950 . S
C2384 H2376 0.950 . S
C2384 C2385 1.386 . S
C2384 C2386 1.391 . S
C2385 C2384 1.386 . S
C2385 C2389 1.393 . S
C2386 H2378 0.950 . S
C2386 C2384 1.391 . S
C2386 C2387 1.400 . S
C2387 C2386 1.400 . S
C2387 C2388 1.398 . S
C2387 C2393 1.491 . S
C2388 H2379 0.950 . S
C2388 C2387 1.398 . S
C2388 C2389 1.391 . S
C2389 H2377 0.950 . S
C2389 C2385 1.393 . S
C2389 C2388 1.391 . S
C2390 H2380 0.950 . S
C2390 C2391 1.386 . S
C2390 C2392 1.391 . S
C2391 C2390 1.386 . S
C2391 C2395 1.393 . S
C2392 H2381 0.950 . S
C2392 C2390 1.391 . S
C2392 C2393 1.400 . S
C2393 C2387 1.491 . S
C2393 C2392 1.400 . S
C2393 C2394 1.398 . S
C2394 H2382 0.950 . S
C2394 C2393 1.398 . S
C2394 C2395 1.391 . S
C2395 H2383 0.950 . S
C2395 C2391 1.393 . S
C2395 C2394 1.391 . S
H2396 C2404 0.950 . S
H2397 C2409 0.950 . S
H2398 C2406 0.950 . S
H2399 C2408 0.950 . S
H2400 C2410 0.950 . S
H2401 C2412 0.950 . S
H2402 C2414 0.950 . S
H2403 C2415 0.950 . S
C2404 H2396 0.950 . S
C2404 C2405 1.386 . S
C2404 C2406 1.391 . S
C2405 C2404 1.386 . S
C2405 C2409 1.393 . S
C2406 H2398 0.950 . S
C2406 C2404 1.391 . S
C2406 C2407 1.400 . S
C2407 C2406 1.400 . S
C2407 C2408 1.398 . S
C2407 C2413 1.491 . S
C2408 H2399 0.950 . S
C2408 C2407 1.398 . S
C2408 C2409 1.391 . S
C2409 H2397 0.950 . S
C2409 C2405 1.393 . S
C2409 C2408 1.391 . S
C2410 H2400 0.950 . S
C2410 C2411 1.386 . S
C2410 C2412 1.391 . S
C2411 C2410 1.386 . S
C2411 C2415 1.393 . S
C2412 H2401 0.950 . S
C2412 C2410 1.391 . S
C2412 C2413 1.400 . S
C2413 C2407 1.491 . S
C2413 C2412 1.400 . S
C2413 C2414 1.398 . S
C2414 H2402 0.950 . S
C2414 C2413 1.398 . S
C2414 C2415 1.391 . S
C2415 H2403 0.950 . S
C2415 C2411 1.393 . S
C2415 C2414 1.391 . S
H2416 C2424 0.950 . S
H2417 C2429 0.950 . S
H2418 C2426 0.950 . S
H2419 C2428 0.950 . S
H2420 C2430 0.950 . S
H2421 C2432 0.950 . S
H2422 C2434 0.950 . S
H2423 C2435 0.950 . S
C2424 H2416 0.950 . S
C2424 C2425 1.386 . S
C2424 C2426 1.391 . S
C2425 C2424 1.386 . S
C2425 C2429 1.393 . S
C2426 H2418 0.950 . S
C2426 C2424 1.391 . S
C2426 C2427 1.400 . S
C2427 C2426 1.400 . S
C2427 C2428 1.398 . S
C2427 C2433 1.491 . S
C2428 H2419 0.950 . S
C2428 C2427 1.398 . S
C2428 C2429 1.391 . S
C2429 H2417 0.950 . S
C2429 C2425 1.393 . S
C2429 C2428 1.391 . S
C2430 H2420 0.950 . S
C2430 C2431 1.386 . S
C2430 C2432 1.391 . S
C2431 C2430 1.386 . S
C2431 C2435 1.393 . S
C2432 H2421 0.950 . S
C2432 C2430 1.391 . S
C2432 C2433 1.400 . S
C2433 C2427 1.491 . S
C2433 C2432 1.400 . S
C2433 C2434 1.398 . S
C2434 H2422 0.950 . S
C2434 C2433 1.398 . S
C2434 C2435 1.391 . S
C2435 H2423 0.950 . S
C2435 C2431 1.393 . S
C2435 C2434 1.391 . S
H2436 C2444 0.950 . S
H2437 C2449 0.950 . S
H2438 C2446 0.950 . S
H2439 C2448 0.950 . S
H2440 C2450 0.950 . S
H2441 C2452 0.950 . S
H2442 C2454 0.950 . S
H2443 C2455 0.950 . S
C2444 H2436 0.950 . S
C2444 C2445 1.386 . S
C2444 C2446 1.391 . S
C2445 C2444 1.386 . S
C2445 C2449 1.393 . S
C2446 H2438 0.950 . S
C2446 C2444 1.391 . S
C2446 C2447 1.400 . S
C2447 C2446 1.400 . S
C2447 C2448 1.398 . S
C2447 C2453 1.491 . S
C2448 H2439 0.950 . S
C2448 C2447 1.398 . S
C2448 C2449 1.391 . S
C2449 H2437 0.950 . S
C2449 C2445 1.393 . S
C2449 C2448 1.391 . S
C2450 H2440 0.950 . S
C2450 C2451 1.386 . S
C2450 C2452 1.391 . S
C2451 C2450 1.386 . S
C2451 C2455 1.393 . S
C2452 H2441 0.950 . S
C2452 C2450 1.391 . S
C2452 C2453 1.400 . S
C2453 C2447 1.491 . S
C2453 C2452 1.400 . S
C2453 C2454 1.398 . S
C2454 H2442 0.950 . S
C2454 C2453 1.398 . S
C2454 C2455 1.391 . S
C2455 H2443 0.950 . S
C2455 C2451 1.393 . S
C2455 C2454 1.391 . S
H2456 C2464 0.950 . S
H2457 C2469 0.950 . S
H2458 C2466 0.950 . S
H2459 C2468 0.950 . S
H2460 C2470 0.950 . S
H2461 C2472 0.950 . S
H2462 C2474 0.950 . S
H2463 C2475 0.950 . S
C2464 H2456 0.950 . S
C2464 C2465 1.386 . S
C2464 C2466 1.391 . S
C2465 C2464 1.386 . S
C2465 C2469 1.393 . S
C2466 H2458 0.950 . S
C2466 C2464 1.391 . S
C2466 C2467 1.400 . S
C2467 C2466 1.400 . S
C2467 C2468 1.398 . S
C2467 C2473 1.491 . S
C2468 H2459 0.950 . S
C2468 C2467 1.398 . S
C2468 C2469 1.391 . S
C2469 H2457 0.950 . S
C2469 C2465 1.393 . S
C2469 C2468 1.391 . S
C2470 H2460 0.950 . S
C2470 C2471 1.386 . S
C2470 C2472 1.391 . S
C2471 C2470 1.386 . S
C2471 C2475 1.393 . S
C2472 H2461 0.950 . S
C2472 C2470 1.391 . S
C2472 C2473 1.400 . S
C2473 C2467 1.491 . S
C2473 C2472 1.400 . S
C2473 C2474 1.398 . S
C2474 H2462 0.950 . S
C2474 C2473 1.398 . S
C2474 C2475 1.391 . S
C2475 H2463 0.950 . S
C2475 C2471 1.393 . S
C2475 C2474 1.391 . S
H2476 C2484 0.950 . S
H2477 C2489 0.950 . S
H2478 C2486 0.950 . S
H2479 C2488 0.950 . S
H2480 C2490 0.950 . S
H2481 C2492 0.950 . S
H2482 C2494 0.950 . S
H2483 C2495 0.950 . S
C2484 H2476 0.950 . S
C2484 C2485 1.386 . S
C2484 C2486 1.391 . S
C2485 C2484 1.386 . S
C2485 C2489 1.393 . S
C2486 H2478 0.950 . S
C2486 C2484 1.391 . S
C2486 C2487 1.400 . S
C2487 C2486 1.400 . S
C2487 C2488 1.398 . S
C2487 C2493 1.491 . S
C2488 H2479 0.950 . S
C2488 C2487 1.398 . S
C2488 C2489 1.391 . S
C2489 H2477 0.950 . S
C2489 C2485 1.393 . S
C2489 C2488 1.391 . S
C2490 H2480 0.950 . S
C2490 C2491 1.386 . S
C2490 C2492 1.391 . S
C2491 C2490 1.386 . S
C2491 C2495 1.393 . S
C2492 H2481 0.950 . S
C2492 C2490 1.391 . S
C2492 C2493 1.400 . S
C2493 C2487 1.491 . S
C2493 C2492 1.400 . S
C2493 C2494 1.398 . S
C2494 H2482 0.950 . S
C2494 C2493 1.398 . S
C2494 C2495 1.391 . S
C2495 H2483 0.950 . S
C2495 C2491 1.393 . S
C2495 C2494 1.391 . S
H2496 C2504 0.950 . S
H2497 C2509 0.950 . S
H2498 C2506 0.950 . S
H2499 C2508 0.950 . S
H2500 C2510 0.950 . S
H2501 C2512 0.950 . S
H2502 C2514 0.950 . S
H2503 C2515 0.950 . S
C2504 H2496 0.950 . S
C2504 C2505 1.386 . S
C2504 C2506 1.391 . S
C2505 C2504 1.386 . S
C2505 C2509 1.393 . S
C2506 H2498 0.950 . S
C2506 C2504 1.391 . S
C2506 C2507 1.400 . S
C2507 C2506 1.400 . S
C2507 C2508 1.398 . S
C2507 C2513 1.491 . S
C2508 H2499 0.950 . S
C2508 C2507 1.398 . S
C2508 C2509 1.391 . S
C2509 H2497 0.950 . S
C2509 C2505 1.393 . S
C2509 C2508 1.391 . S
C2510 H2500 0.950 . S
C2510 C2511 1.386 . S
C2510 C2512 1.391 . S
C2511 C2510 1.386 . S
C2511 C2515 1.393 . S
C2512 H2501 0.950 . S
C2512 C2510 1.391 . S
C2512 C2513 1.400 . S
C2513 C2507 1.491 . S
C2513 C2512 1.400 . S
C2513 C2514 1.398 . S
C2514 H2502 0.950 . S
C2514 C2513 1.398 . S
C2514 C2515 1.391 . S
C2515 H2503 0.950 . S
C2515 C2511 1.393 . S
C2515 C2514 1.391 . S
H2516 C2524 0.950 . S
H2517 C2529 0.950 . S
H2518 C2526 0.950 . S
H2519 C2528 0.950 . S
H2520 C2530 0.950 . S
H2521 C2532 0.950 . S
H2522 C2534 0.950 . S
H2523 C2535 0.950 . S
C2524 H2516 0.950 . S
C2524 C2525 1.386 . S
C2524 C2526 1.391 . S
C2525 C2524 1.386 . S
C2525 C2529 1.393 . S
C2526 H2518 0.950 . S
C2526 C2524 1.391 . S
C2526 C2527 1.400 . S
C2527 C2526 1.400 . S
C2527 C2528 1.398 . S
C2527 C2533 1.491 . S
C2528 H2519 0.950 . S
C2528 C2527 1.398 . S
C2528 C2529 1.391 . S
C2529 H2517 0.950 . S
C2529 C2525 1.393 . S
C2529 C2528 1.391 . S
C2530 H2520 0.950 . S
C2530 C2531 1.386 . S
C2530 C2532 1.391 . S
C2531 C2530 1.386 . S
C2531 C2535 1.393 . S
C2532 H2521 0.950 . S
C2532 C2530 1.391 . S
C2532 C2533 1.400 . S
C2533 C2527 1.491 . S
C2533 C2532 1.400 . S
C2533 C2534 1.398 . S
C2534 H2522 0.950 . S
C2534 C2533 1.398 . S
C2534 C2535 1.391 . S
C2535 H2523 0.950 . S
C2535 C2531 1.393 . S
C2535 C2534 1.391 . S
H2536 C2544 0.950 . S
H2537 C2549 0.950 . S
H2538 C2546 0.950 . S
H2539 C2548 0.950 . S
H2540 C2550 0.950 . S
H2541 C2552 0.950 . S
H2542 C2554 0.950 . S
H2543 C2555 0.950 . S
C2544 H2536 0.950 . S
C2544 C2545 1.386 . S
C2544 C2546 1.391 . S
C2545 C2544 1.386 . S
C2545 C2549 1.393 . S
C2546 H2538 0.950 . S
C2546 C2544 1.391 . S
C2546 C2547 1.400 . S
C2547 C2546 1.400 . S
C2547 C2548 1.398 . S
C2547 C2553 1.491 . S
C2548 H2539 0.950 . S
C2548 C2547 1.398 . S
C2548 C2549 1.391 . S
C2549 H2537 0.950 . S
C2549 C2545 1.393 . S
C2549 C2548 1.391 . S
C2550 H2540 0.950 . S
C2550 C2551 1.386 . S
C2550 C2552 1.391 . S
C2551 C2550 1.386 . S
C2551 C2555 1.393 . S
C2552 H2541 0.950 . S
C2552 C2550 1.391 . S
C2552 C2553 1.400 . S
C2553 C2547 1.491 . S
C2553 C2552 1.400 . S
C2553 C2554 1.398 . S
C2554 H2542 0.950 . S
C2554 C2553 1.398 . S
C2554 C2555 1.391 . S
C2555 H2543 0.950 . S
C2555 C2551 1.393 . S
C2555 C2554 1.391 . S
H2556 C2564 0.950 . S
H2557 C2569 0.950 . S
H2558 C2566 0.950 . S
H2559 C2568 0.950 . S
H2560 C2570 0.950 . S
H2561 C2572 0.950 . S
H2562 C2574 0.950 . S
H2563 C2575 0.950 . S
C2564 H2556 0.950 . S
C2564 C2565 1.386 . S
C2564 C2566 1.391 . S
C2565 C2564 1.386 . S
C2565 C2569 1.393 . S
C2566 H2558 0.950 . S
C2566 C2564 1.391 . S
C2566 C2567 1.400 . S
C2567 C2566 1.400 . S
C2567 C2568 1.398 . S
C2567 C2573 1.491 . S
C2568 H2559 0.950 . S
C2568 C2567 1.398 . S
C2568 C2569 1.391 . S
C2569 H2557 0.950 . S
C2569 C2565 1.393 . S
C2569 C2568 1.391 . S
C2570 H2560 0.950 . S
C2570 C2571 1.386 . S
C2570 C2572 1.391 . S
C2571 C2570 1.386 . S
C2571 C2575 1.393 . S
C2572 H2561 0.950 . S
C2572 C2570 1.391 . S
C2572 C2573 1.400 . S
C2573 C2567 1.491 . S
C2573 C2572 1.400 . S
C2573 C2574 1.398 . S
C2574 H2562 0.950 . S
C2574 C2573 1.398 . S
C2574 C2575 1.391 . S
C2575 H2563 0.950 . S
C2575 C2571 1.393 . S
C2575 C2574 1.391 . S
H2576 C2584 0.950 . S
H2577 C2589 0.950 . S
H2578 C2586 0.950 . S
H2579 C2588 0.950 . S
H2580 C2590 0.950 . S
H2581 C2592 0.950 . S
H2582 C2594 0.950 . S
H2583 C2595 0.950 . S
C2584 H2576 0.950 . S
C2584 C2585 1.386 . S
C2584 C2586 1.391 . S
C2585 C2584 1.386 . S
C2585 C2589 1.393 . S
C2586 H2578 0.950 . S
C2586 C2584 1.391 . S
C2586 C2587 1.400 . S
C2587 C2586 1.400 . S
C2587 C2588 1.398 . S
C2587 C2593 1.491 . S
C2588 H2579 0.950 . S
C2588 C2587 1.398 . S
C2588 C2589 1.391 . S
C2589 H2577 0.950 . S
C2589 C2585 1.393 . S
C2589 C2588 1.391 . S
C2590 H2580 0.950 . S
C2590 C2591 1.386 . S
C2590 C2592 1.391 . S
C2591 C2590 1.386 . S
C2591 C2595 1.393 . S
C2592 H2581 0.950 . S
C2592 C2590 1.391 . S
C2592 C2593 1.400 . S
C2593 C2587 1.491 . S
C2593 C2592 1.400 . S
C2593 C2594 1.398 . S
C2594 H2582 0.950 . S
C2594 C2593 1.398 . S
C2594 C2595 1.391 . S
C2595 H2583 0.950 . S
C2595 C2591 1.393 . S
C2595 C2594 1.391 . S
H2596 C2604 0.950 . S
H2597 C2609 0.950 . S
H2598 C2606 0.950 . S
H2599 C2608 0.950 . S
H2600 C2610 0.950 . S
H2601 C2612 0.950 . S
H2602 C2614 0.950 . S
H2603 C2615 0.950 . S
C2604 H2596 0.950 . S
C2604 C2605 1.386 . S
C2604 C2606 1.391 . S
C2605 C2604 1.386 . S
C2605 C2609 1.393 . S
C2606 H2598 0.950 . S
C2606 C2604 1.391 . S
C2606 C2607 1.400 . S
C2607 C2606 1.400 . S
C2607 C2608 1.398 . S
C2607 C2613 1.491 . S
C2608 H2599 0.950 . S
C2608 C2607 1.398 . S
C2608 C2609 1.391 . S
C2609 H2597 0.950 . S
C2609 C2605 1.393 . S
C2609 C2608 1.391 . S
C2610 H2600 0.950 . S
C2610 C2611 1.386 . S
C2610 C2612 1.391 . S
C2611 C2610 1.386 . S
C2611 C2615 1.393 . S
C2612 H2601 0.950 . S
C2612 C2610 1.391 . S
C2612 C2613 1.400 . S
C2613 C2607 1.491 . S
C2613 C2612 1.400 . S
C2613 C2614 1.398 . S
C2614 H2602 0.950 . S
C2614 C2613 1.398 . S
C2614 C2615 1.391 . S
C2615 H2603 0.950 . S
C2615 C2611 1.393 . S
C2615 C2614 1.391 . S
H2616 C2624 0.950 . S
H2617 C2629 0.950 . S
H2618 C2626 0.950 . S
H2619 C2628 0.950 . S
H2620 C2630 0.950 . S
H2621 C2632 0.950 . S
H2622 C2634 0.950 . S
H2623 C2635 0.950 . S
C2624 H2616 0.950 . S
C2624 C2625 1.386 . S
C2624 C2626 1.391 . S
C2625 C2624 1.386 . S
C2625 C2629 1.393 . S
C2626 H2618 0.950 . S
C2626 C2624 1.391 . S
C2626 C2627 1.400 . S
C2627 C2626 1.400 . S
C2627 C2628 1.398 . S
C2627 C2633 1.491 . S
C2628 H2619 0.950 . S
C2628 C2627 1.398 . S
C2628 C2629 1.391 . S
C2629 H2617 0.950 . S
C2629 C2625 1.393 . S
C2629 C2628 1.391 . S
C2630 H2620 0.950 . S
C2630 C2631 1.386 . S
C2630 C2632 1.391 . S
C2631 C2630 1.386 . S
C2631 C2635 1.393 . S
C2632 H2621 0.950 . S
C2632 C2630 1.391 . S
C2632 C2633 1.400 . S
C2633 C2627 1.491 . S
C2633 C2632 1.400 . S
C2633 C2634 1.398 . S
C2634 H2622 0.950 . S
C2634 C2633 1.398 . S
C2634 C2635 1.391 . S
C2635 H2623 0.950 . S
C2635 C2631 1.393 . S
C2635 C2634 1.391 . S
H2636 C2644 0.950 . S
H2637 C2649 0.950 . S
H2638 C2646 0.950 . S
H2639 C2648 0.950 . S
H2640 C2650 0.950 . S
H2641 C2652 0.950 . S
H2642 C2654 0.950 . S
H2643 C2655 0.950 . S
C2644 H2636 0.950 . S
C2644 C2645 1.386 . S
C2644 C2646 1.391 . S
C2645 C2644 1.386 . S
C2645 C2649 1.393 . S
C2646 H2638 0.950 . S
C2646 C2644 1.391 . S
C2646 C2647 1.400 . S
C2647 C2646 1.400 . S
C2647 C2648 1.398 . S
C2647 C2653 1.491 . S
C2648 H2639 0.950 . S
C2648 C2647 1.398 . S
C2648 C2649 1.391 . S
C2649 H2637 0.950 . S
C2649 C2645 1.393 . S
C2649 C2648 1.391 . S
C2650 H2640 0.950 . S
C2650 C2651 1.386 . S
C2650 C2652 1.391 . S
C2651 C2650 1.386 . S
C2651 C2655 1.393 . S
C2652 H2641 0.950 . S
C2652 C2650 1.391 . S
C2652 C2653 1.400 . S
C2653 C2647 1.491 . S
C2653 C2652 1.400 . S
C2653 C2654 1.398 . S
C2654 H2642 0.950 . S
C2654 C2653 1.398 . S
C2654 C2655 1.391 . S
C2655 H2643 0.950 . S
C2655 C2651 1.393 . S
C2655 C2654 1.391 . S
H2656 C2664 0.950 . S
H2657 C2669 0.950 . S
H2658 C2666 0.950 . S
H2659 C2668 0.950 . S
H2660 C2670 0.950 . S
H2661 C2672 0.950 . S
H2662 C2674 0.950 . S
H2663 C2675 0.950 . S
C2664 H2656 0.950 . S
C2664 C2665 1.386 . S
C2664 C2666 1.391 . S
C2665 C2664 1.386 . S
C2665 C2669 1.393 . S
C2666 H2658 0.950 . S
C2666 C2664 1.391 . S
C2666 C2667 1.400 . S
C2667 C2666 1.400 . S
C2667 C2668 1.398 . S
C2667 C2673 1.491 . S
C2668 H2659 0.950 . S
C2668 C2667 1.398 . S
C2668 C2669 1.391 . S
C2669 H2657 0.950 . S
C2669 C2665 1.393 . S
C2669 C2668 1.391 . S
C2670 H2660 0.950 . S
C2670 C2671 1.386 . S
C2670 C2672 1.391 . S
C2671 C2670 1.386 . S
C2671 C2675 1.393 . S
C2672 H2661 0.950 . S
C2672 C2670 1.391 . S
C2672 C2673 1.400 . S
C2673 C2667 1.491 . S
C2673 C2672 1.400 . S
C2673 C2674 1.398 . S
C2674 H2662 0.950 . S
C2674 C2673 1.398 . S
C2674 C2675 1.391 . S
C2675 H2663 0.950 . S
C2675 C2671 1.393 . S
C2675 C2674 1.391 . S
H2676 C2684 0.950 1_556 S
H2677 C2689 0.950 . S
H2678 C2686 0.950 1_556 S
H2679 C2688 0.950 . S
H2680 C2690 0.950 . S
H2681 C2692 0.950 . S
H2682 C2694 0.950 1_556 S
H2683 C2695 0.945 . S
C2684 H2676 0.950 1_554 S
C2684 C2685 1.386 . S
C2684 C2686 1.391 . S
C2685 C2684 1.386 . S
C2685 C2689 1.393 . S
C2686 H2678 0.950 1_554 S
C2686 C2684 1.391 . S
C2686 C2687 1.400 . S
C2687 C2686 1.400 . S
C2687 C2688 1.398 . S
C2687 C2693 1.491 . S
C2688 H2679 0.950 . S
C2688 C2687 1.398 . S
C2688 C2689 1.391 . S
C2689 H2677 0.950 . S
C2689 C2685 1.393 . S
C2689 C2688 1.391 . S
C2690 H2680 0.950 . S
C2690 C2691 1.386 . S
C2690 C2692 1.391 . S
C2691 C2690 1.386 . S
C2691 C2695 1.397 1_554 S
C2692 H2681 0.950 . S
C2692 C2690 1.391 . S
C2692 C2693 1.400 . S
C2693 C2687 1.491 . S
C2693 C2692 1.400 . S
C2693 C2694 1.398 . S
C2694 H2682 0.950 1_554 S
C2694 C2693 1.398 . S
C2694 C2695 1.391 1_554 S
C2695 H2683 0.945 . S
C2695 C2691 1.397 1_556 S
C2695 C2694 1.391 1_556 S
H2696 C2704 0.950 . S
H2697 C2709 0.950 . S
H2698 C2706 0.950 . S
H2699 C2708 0.950 . S
H2700 C2710 0.950 . S
H2701 C2712 0.950 . S
H2702 C2714 0.950 . S
H2703 C2715 0.950 . S
C2704 H2696 0.950 . S
C2704 C2705 1.386 . S
C2704 C2706 1.391 . S
C2705 C2704 1.386 . S
C2705 C2709 1.393 . S
C2706 H2698 0.950 . S
C2706 C2704 1.391 . S
C2706 C2707 1.400 . S
C2707 C2706 1.400 . S
C2707 C2708 1.398 . S
C2707 C2713 1.491 . S
C2708 H2699 0.950 . S
C2708 C2707 1.398 . S
C2708 C2709 1.391 . S
C2709 H2697 0.950 . S
C2709 C2705 1.393 . S
C2709 C2708 1.391 . S
C2710 H2700 0.950 . S
C2710 C2711 1.386 . S
C2710 C2712 1.391 . S
C2711 C2710 1.386 . S
C2711 C2715 1.393 . S
C2712 H2701 0.950 . S
C2712 C2710 1.391 . S
C2712 C2713 1.400 . S
C2713 C2707 1.491 . S
C2713 C2712 1.400 . S
C2713 C2714 1.398 . S
C2714 H2702 0.950 . S
C2714 C2713 1.398 . S
C2714 C2715 1.391 . S
C2715 H2703 0.950 . S
C2715 C2711 1.393 . S
C2715 C2714 1.391 . S
H2716 C2724 0.950 . S
H2717 C2729 0.950 . S
H2718 C2726 0.950 . S
H2719 C2728 0.950 . S
H2720 C2730 0.950 . S
H2721 C2732 0.950 . S
H2722 C2734 0.950 1_556 S
H2723 C2735 0.953 1_556 S
C2724 H2716 0.950 . S
C2724 C2725 1.386 . S
C2724 C2726 1.391 . S
C2725 C2724 1.386 . S
C2725 C2729 1.393 1_556 S
C2726 H2718 0.950 . S
C2726 C2724 1.391 . S
C2726 C2727 1.400 1_556 S
C2727 C2726 1.400 1_554 S
C2727 C2728 1.398 . S
C2727 C2733 1.491 . S
C2728 H2719 0.950 . S
C2728 C2727 1.398 . S
C2728 C2729 1.391 . S
C2729 H2717 0.950 . S
C2729 C2725 1.393 1_554 S
C2729 C2728 1.391 . S
C2730 H2720 0.950 . S
C2730 C2731 1.386 . S
C2730 C2732 1.391 . S
C2731 C2730 1.386 . S
C2731 C2735 1.393 . S
C2732 H2721 0.950 . S
C2732 C2730 1.391 . S
C2732 C2733 1.400 . S
C2733 C2727 1.491 . S
C2733 C2732 1.400 . S
C2733 C2734 1.398 . S
C2734 H2722 0.950 1_554 S
C2734 C2733 1.398 . S
C2734 C2735 1.391 . S
C2735 H2723 0.953 1_554 S
C2735 C2731 1.393 . S
C2735 C2734 1.391 . S
H2736 C2744 0.950 . S
H2737 C2749 0.950 . S
H2738 C2746 0.950 . S
H2739 C2748 0.950 . S
H2740 C2750 0.950 . S
H2741 C2752 0.950 . S
H2742 C2754 0.950 . S
H2743 C2755 0.950 . S
C2744 H2736 0.950 . S
C2744 C2745 1.386 . S
C2744 C2746 1.391 . S
C2745 C2744 1.386 . S
C2745 C2749 1.393 . S
C2746 H2738 0.950 . S
C2746 C2744 1.391 . S
C2746 C2747 1.400 . S
C2747 C2746 1.400 . S
C2747 C2748 1.398 . S
C2747 C2753 1.491 . S
C2748 H2739 0.950 . S
C2748 C2747 1.398 . S
C2748 C2749 1.391 . S
C2749 H2737 0.950 . S
C2749 C2745 1.393 . S
C2749 C2748 1.391 . S
C2750 H2740 0.950 . S
C2750 C2751 1.386 . S
C2750 C2752 1.391 . S
C2751 C2750 1.386 . S
C2751 C2755 1.393 . S
C2752 H2741 0.950 . S
C2752 C2750 1.391 . S
C2752 C2753 1.400 . S
C2753 C2747 1.491 . S
C2753 C2752 1.400 . S
C2753 C2754 1.398 . S
C2754 H2742 0.950 . S
C2754 C2753 1.398 . S
C2754 C2755 1.391 . S
C2755 H2743 0.950 . S
C2755 C2751 1.393 . S
C2755 C2754 1.391 . S
H2756 C2764 0.950 . S
H2757 C2769 0.950 . S
H2758 C2766 0.950 . S
H2759 C2768 0.950 . S
H2760 C2770 0.950 . S
H2761 C2772 0.950 . S
H2762 C2774 0.950 . S
H2763 C2775 0.950 . S
C2764 H2756 0.950 . S
C2764 C2765 1.386 . S
C2764 C2766 1.391 . S
C2765 C2764 1.386 . S
C2765 C2769 1.393 . S
C2766 H2758 0.950 . S
C2766 C2764 1.391 . S
C2766 C2767 1.400 . S
C2767 C2766 1.400 . S
C2767 C2768 1.398 . S
C2767 C2773 1.491 . S
C2768 H2759 0.950 . S
C2768 C2767 1.398 . S
C2768 C2769 1.391 . S
C2769 H2757 0.950 . S
C2769 C2765 1.393 . S
C2769 C2768 1.391 . S
C2770 H2760 0.950 . S
C2770 C2771 1.386 . S
C2770 C2772 1.391 . S
C2771 C2770 1.386 . S
C2771 C2775 1.393 . S
C2772 H2761 0.950 . S
C2772 C2770 1.391 . S
C2772 C2773 1.400 . S
C2773 C2767 1.491 . S
C2773 C2772 1.400 . S
C2773 C2774 1.398 . S
C2774 H2762 0.950 . S
C2774 C2773 1.398 . S
C2774 C2775 1.391 . S
C2775 H2763 0.950 . S
C2775 C2771 1.393 . S
C2775 C2774 1.391 . S
C871 C329 1.245 . S
C865 C10 1.244 . S
C885 C23 2.081 . S
C891 C375 2.072 . S
C905 C36 1.035 . S
C911 C384 1.032 . S
C931 C422 1.866 . S
C925 C42 1.899 . S
C945 C18 1.828 . S
C951 C456 1.800 . S
C971 C486 0.982 . S
C965 C31 0.976 . S
C991 C545 1.803 1_556 S
C985 C43 1.817 . S
C1005 C5 1.205 . S
C1011 C558 1.188 . S
C1025 C56 1.620 . S
C1031 C341 1.593 . S
C1045 C70 1.325 . S
C1051 C359 1.310 . S
C1071 C380 1.869 . S
C1065 C82 1.892 . S
C1091 C418 0.897 . S
C1085 C96 0.911 . S
C1105 C57 1.433 . S
C1111 C452 1.412 . S
C1131 C482 1.800 . S
C1125 C69 1.820 . S
C1151 C529 1.361 . S
C1145 C83 1.388 1_565 S
C1171 C554 0.805 . S
C1165 C95 0.802 . S
C1191 C325 0.791 . S
C1185 C94 0.786 . S
C1211 C584 1.750 . S
C1205 C108 1.753 . S
C1225 C122 1.585 . S
C1231 C626 1.561 . S
C1251 C669 0.731 . S
C1245 C140 0.726 . S
C1265 C55 1.566 . S
C1271 C550 1.535 . S
C1291 C388 1.642 . S
C1285 C68 1.660 . S
C1305 C121 1.549 . S
C1311 C686 1.555 . S
C1331 C737 1.757 . S
C1325 C153 1.756 . S
C1345 C161 0.922 . S
C1351 C320 0.919 1_556 S
C1371 C720 1.743 . S
C1365 C174 1.753 . S
C1385 C186 0.867 . S
C1391 C393 0.868 . S
C1405 C200 1.531 . S
C1411 C703 1.499 . S
C1431 C465 1.493 . S
C1425 C172 1.508 . S
C1451 C631 0.764 . S
C1445 C192 0.755 . S
C1471 C516 1.491 . S
C1465 C198 1.497 . S
C1491 C771 0.821 . S
C1485 C159 0.829 . S
C1511 C312 1.250 . S
C1505 C211 1.265 . S
C1525 C225 1.100 . S
C1531 C724 1.092 . S
C1551 C409 1.543 . S
C1545 C239 1.558 . S
C1565 C251 0.718 . S
C1571 C699 0.721 . S
C1585 C218 1.199 . S
C1591 C461 1.186 . S
C1605 C226 1.486 . S
C1611 C647 1.472 . S
C1631 C520 1.132 . S
C1625 C238 1.146 . S
C1645 C252 0.624 . S
C1651 C767 0.633 . S
C1665 C250 0.579 . S
C1671 C316 0.595 . S
C1685 C264 1.469 . S
C1691 C613 1.466 . S
C1705 C276 1.282 . S
C1711 C499 1.282 . S
C1725 C290 0.382 . S
C1731 C660 0.416 . S
C1751 C783 1.209 . S
C1745 C213 1.221 . S
C1771 C397 1.321 . S
C1765 C224 1.330 . S
C1791 C443 1.256 . S
C1785 C283 1.264 . S
C1811 C354 1.478 . S
C1805 C303 1.489 . S
C1825 C29 1.231 . S
C1831 C805 1.229 . S
C1851 C749 2.066 . S
C1845 C49 2.082 . S
C1871 C826 1.029 . S
C1865 C3 1.030 . S
C1885 C16 1.897 . S
C1891 C694 1.862 . S
C1905 C44 1.834 . S
C1911 C592 1.792 1_556 S
C1931 C622 0.975 . S
C1925 C4 0.970 . S
C1951 C681 1.802 . S
C1945 C17 1.816 . S
C1971 C762 1.177 . S
C1965 C30 1.191 . S
C1991 C817 1.601 . S
C1985 C147 1.619 . S
C2005 C107 1.324 1_556 S
C2011 C733 1.302 . S
C2025 C127 1.889 . S
C2031 C822 1.869 . S
C2051 C690 0.923 . S
C2045 C135 0.928 . S
C2071 C588 1.389 . S
C2065 C148 1.425 . S
C2085 C114 1.823 . S
C2091 C618 1.801 . S
C2111 C665 1.357 . S
C2105 C120 1.385 . S
C2125 C134 0.819 . S
C2131 C758 0.816 . S
C2151 C801 0.795 . S
C2145 C133 0.784 . S
C2171 C448 1.754 1_565 S
C2165 C75 1.753 . S
C2191 C490 1.573 . S
C2185 C81 1.591 . S
C2205 C101 0.730 . S
C2211 C533 0.725 . S
C2231 C754 1.548 . S
C2225 C146 1.569 . S
C2245 C109 1.657 . S
C2251 C830 1.632 . S
C2271 C414 1.550 . S
C2265 C88 1.541 . S
C2291 C363 1.755 . S
C2285 C62 1.753 . S
C2305 C187 0.890 . S
C2311 C796 0.894 . S
C2331 C346 1.732 . S
C2325 C199 1.743 . S
C2351 C835 0.866 . S
C2345 C160 0.864 . S
C2365 C173 1.522 . S
C2371 C431 1.490 . S
C2385 C205 1.495 . S
C2391 C601 1.478 . S
C2405 C166 0.752 . S
C2411 C495 0.759 . S
C2425 C179 1.480 . S
C2431 C652 1.469 . S
C2445 C185 0.821 . S
C2451 C567 0.819 . S
C2471 C788 1.237 . S
C2465 C302 1.256 . S
C2485 C270 1.109 . S
C2491 C350 1.100 . S
C2511 C851 1.545 . S
C2505 C278 1.558 . S
C2525 C296 0.750 . S
C2531 C427 0.758 . S
C2545 C309 1.188 . S
C2551 C597 1.164 . S
C2571 C511 1.488 . S
C2565 C263 1.502 . S
C2585 C277 1.159 . S
C2591 C656 1.150 . S
C2611 C563 0.631 . S
C2605 C289 0.611 . S
C2631 C792 0.619 . S
C2625 C291 0.603 . S
C2651 C477 1.466 . S
C2645 C231 1.468 . S
C2665 C237 1.284 . S
C2671 C635 1.284 . S
C2691 C524 0.407 . S
C2685 C257 0.394 . S
C2711 C579 1.214 . S
C2705 C304 1.226 . S
C2725 C265 1.320 . S
C2731 C839 1.312 . S
C2751 C715 1.262 . S
C2745 C244 1.260 . S
C2771 C728 1.482 . S
C2765 C212 1.487 . S
