# Generated by pormake.
# Topology gar, (4,6)-cn, num edge types: 1
# Building blocks:
#     Node 0, Type 0, BuildingBlock: UXUYUI_clean_sbu_0, # of connection points: 4
#     Node 1, Type 0, BuildingBlock: UXUYUI_clean_sbu_0, # of connection points: 4
#     Node 2, Type 0, BuildingBlock: UXUYUI_clean_sbu_0, # of connection points: 4
#     Node 3, Type 0, BuildingBlock: UXUYUI_clean_sbu_0, # of connection points: 4
#     Node 4, Type 0, BuildingBlock: UXUYUI_clean_sbu_0, # of connection points: 4
#     Node 5, Type 0, BuildingBlock: UXUYUI_clean_sbu_0, # of connection points: 4
#     Node 6, Type 0, BuildingBlock: UXUYUI_clean_sbu_0, # of connection points: 4
#     Node 7, Type 0, BuildingBlock: UXUYUI_clean_sbu_0, # of connection points: 4
#     Node 8, Type 0, BuildingBlock: UXUYUI_clean_sbu_0, # of connection points: 4
#     Node 9, Type 0, BuildingBlock: UXUYUI_clean_sbu_0, # of connection points: 4
#     Node 10, Type 0, BuildingBlock: UXUYUI_clean_sbu_0, # of connection points: 4
#     Node 11, Type 0, BuildingBlock: UXUYUI_clean_sbu_0, # of connection points: 4
#     Node 12, Type 0, BuildingBlock: UXUYUI_clean_sbu_0, # of connection points: 4
#     Node 13, Type 0, BuildingBlock: UXUYUI_clean_sbu_0, # of connection points: 4
#     Node 14, Type 0, BuildingBlock: UXUYUI_clean_sbu_0, # of connection points: 4
#     Node 15, Type 0, BuildingBlock: UXUYUI_clean_sbu_0, # of connection points: 4
#     Node 16, Type 0, BuildingBlock: UXUYUI_clean_sbu_0, # of connection points: 4
#     Node 17, Type 0, BuildingBlock: UXUYUI_clean_sbu_0, # of connection points: 4
#     Node 18, Type 0, BuildingBlock: UXUYUI_clean_sbu_0, # of connection points: 4
#     Node 19, Type 0, BuildingBlock: UXUYUI_clean_sbu_0, # of connection points: 4
#     Node 20, Type 0, BuildingBlock: UXUYUI_clean_sbu_0, # of connection points: 4
#     Node 21, Type 0, BuildingBlock: UXUYUI_clean_sbu_0, # of connection points: 4
#     Node 22, Type 0, BuildingBlock: UXUYUI_clean_sbu_0, # of connection points: 4
#     Node 23, Type 0, BuildingBlock: UXUYUI_clean_sbu_0, # of connection points: 4
#     Node 24, Type 1, BuildingBlock: BETDIP_clean_sbu_0, # of connection points: 6
#     Node 25, Type 1, BuildingBlock: BETDIP_clean_sbu_0, # of connection points: 6
#     Node 26, Type 1, BuildingBlock: BETDIP_clean_sbu_0, # of connection points: 6
#     Node 27, Type 1, BuildingBlock: BETDIP_clean_sbu_0, # of connection points: 6
#     Node 28, Type 1, BuildingBlock: BETDIP_clean_sbu_0, # of connection points: 6
#     Node 29, Type 1, BuildingBlock: BETDIP_clean_sbu_0, # of connection points: 6
#     Node 30, Type 1, BuildingBlock: BETDIP_clean_sbu_0, # of connection points: 6
#     Node 31, Type 1, BuildingBlock: BETDIP_clean_sbu_0, # of connection points: 6
#     Node 32, Type 1, BuildingBlock: BETDIP_clean_sbu_0, # of connection points: 6
#     Node 33, Type 1, BuildingBlock: BETDIP_clean_sbu_0, # of connection points: 6
#     Node 34, Type 1, BuildingBlock: BETDIP_clean_sbu_0, # of connection points: 6
#     Node 35, Type 1, BuildingBlock: BETDIP_clean_sbu_0, # of connection points: 6
#     Node 36, Type 1, BuildingBlock: BETDIP_clean_sbu_0, # of connection points: 6
#     Node 37, Type 1, BuildingBlock: BETDIP_clean_sbu_0, # of connection points: 6
#     Node 38, Type 1, BuildingBlock: BETDIP_clean_sbu_0, # of connection points: 6
#     Node 39, Type 1, BuildingBlock: BETDIP_clean_sbu_0, # of connection points: 6
#     Edge 40, Type (0, 1), None
#     Edge 41, Type (0, 1), None
#     Edge 42, Type (0, 1), None
#     Edge 43, Type (0, 1), None
#     Edge 44, Type (0, 1), None
#     Edge 45, Type (0, 1), None
#     Edge 46, Type (0, 1), None
#     Edge 47, Type (0, 1), None
#     Edge 48, Type (0, 1), None
#     Edge 49, Type (0, 1), None
#     Edge 50, Type (0, 1), None
#     Edge 51, Type (0, 1), None
#     Edge 52, Type (0, 1), None
#     Edge 53, Type (0, 1), None
#     Edge 54, Type (0, 1), None
#     Edge 55, Type (0, 1), None
#     Edge 56, Type (0, 1), None
#     Edge 57, Type (0, 1), None
#     Edge 58, Type (0, 1), None
#     Edge 59, Type (0, 1), None
#     Edge 60, Type (0, 1), None
#     Edge 61, Type (0, 1), None
#     Edge 62, Type (0, 1), None
#     Edge 63, Type (0, 1), None
#     Edge 64, Type (0, 1), None
#     Edge 65, Type (0, 1), None
#     Edge 66, Type (0, 1), None
#     Edge 67, Type (0, 1), None
#     Edge 68, Type (0, 1), None
#     Edge 69, Type (0, 1), None
#     Edge 70, Type (0, 1), None
#     Edge 71, Type (0, 1), None
#     Edge 72, Type (0, 1), None
#     Edge 73, Type (0, 1), None
#     Edge 74, Type (0, 1), None
#     Edge 75, Type (0, 1), None
#     Edge 76, Type (0, 1), None
#     Edge 77, Type (0, 1), None
#     Edge 78, Type (0, 1), None
#     Edge 79, Type (0, 1), None
#     Edge 80, Type (0, 1), None
#     Edge 81, Type (0, 1), None
#     Edge 82, Type (0, 1), None
#     Edge 83, Type (0, 1), None
#     Edge 84, Type (0, 1), None
#     Edge 85, Type (0, 1), None
#     Edge 86, Type (0, 1), None
#     Edge 87, Type (0, 1), None
#     Edge 88, Type (0, 1), None
#     Edge 89, Type (0, 1), None
#     Edge 90, Type (0, 1), None
#     Edge 91, Type (0, 1), None
#     Edge 92, Type (0, 1), None
#     Edge 93, Type (0, 1), None
#     Edge 94, Type (0, 1), None
#     Edge 95, Type (0, 1), None
#     Edge 96, Type (0, 1), None
#     Edge 97, Type (0, 1), None
#     Edge 98, Type (0, 1), None
#     Edge 99, Type (0, 1), None
#     Edge 100, Type (0, 1), None
#     Edge 101, Type (0, 1), None
#     Edge 102, Type (0, 1), None
#     Edge 103, Type (0, 1), None
#     Edge 104, Type (0, 1), None
#     Edge 105, Type (0, 1), None
#     Edge 106, Type (0, 1), None
#     Edge 107, Type (0, 1), None
#     Edge 108, Type (0, 1), None
#     Edge 109, Type (0, 1), None
#     Edge 110, Type (0, 1), None
#     Edge 111, Type (0, 1), None
#     Edge 112, Type (0, 1), None
#     Edge 113, Type (0, 1), None
#     Edge 114, Type (0, 1), None
#     Edge 115, Type (0, 1), None
#     Edge 116, Type (0, 1), None
#     Edge 117, Type (0, 1), None
#     Edge 118, Type (0, 1), None
#     Edge 119, Type (0, 1), None
#     Edge 120, Type (0, 1), None
#     Edge 121, Type (0, 1), None
#     Edge 122, Type (0, 1), None
#     Edge 123, Type (0, 1), None
#     Edge 124, Type (0, 1), None
#     Edge 125, Type (0, 1), None
#     Edge 126, Type (0, 1), None
#     Edge 127, Type (0, 1), None
#     Edge 128, Type (0, 1), None
#     Edge 129, Type (0, 1), None
#     Edge 130, Type (0, 1), None
#     Edge 131, Type (0, 1), None
#     Edge 132, Type (0, 1), None
#     Edge 133, Type (0, 1), None
#     Edge 134, Type (0, 1), None
#     Edge 135, Type (0, 1), None
# Relax obj value: 0.287
# Max RMSD: 0.373
# Mean RMSD: 0.210
data_MOF--net-gar--node1-UXUYUI_clean_sbu_0--node2-BETDIP_clean_sbu_0--edge1-none
_symmetry_space_group_name_H-M    P1
_symmetry_Int_Tables_number       1
_symmetry_cell_setting            triclinic
loop_
_symmetry_equiv_pos_as_xyz
'x, y, z'
_cell_length_a     46.175781
_cell_length_b     40.202703
_cell_length_c     37.851561
_cell_angle_alpha  98.995646
_cell_angle_beta   100.35614
_cell_angle_gamma 102.81621
loop_
_atom_site_label
_atom_site_type_symbol
_atom_site_fract_x
_atom_site_fract_y
_atom_site_fract_z
_atom_type_partial_charge
Li0 Li 1.02196 0.35003 0.42679 0.0
Li1 Li 0.06483 0.39033 0.47137 0.0
Li2 Li 0.0719 0.35532 0.41148 0.0
Li3 Li 0.05936 0.32713 0.46098 0.0
C4 C 0.03733 0.41086 0.39657 0.0
N5 N 1.01013 0.44724 0.35051 0.0
C6 C 0.03363 0.44346 0.41077 0.0
C7 C 1.02776 0.39691 0.35901 0.0
C8 C 1.01972 0.46144 0.38701 0.0
C9 C 1.01385 0.41566 0.33617 0.0
C10 C 1.02392 0.35621 0.51143 0.0
C11 C 0.03476 0.35994 0.57685 0.0
N12 N 1.00614 0.36312 0.57748 0.0
C13 C 0.99458 0.35938 0.51271 0.0
C14 C 0.04416 0.3564 0.54374 0.0
C15 C 0.98604 0.36292 0.54636 0.0
C16 C 0.96178 0.31272 0.41924 0.0
N17 N 0.97908 0.34337 0.41504 0.0
C18 C 0.93586 0.36707 0.40831 0.0
C19 C 0.96684 0.37058 0.41042 0.0
C20 C 0.91729 0.3352 0.41108 0.0
C21 C 0.93061 0.30782 0.41668 0.0
H22 H 0.97229 0.29241 0.42593 0.0
H23 H 0.98109 0.39536 0.40945 0.0
C24 C 0.10328 0.44948 0.52407 0.0
N25 N 0.07418 0.43099 0.50844 0.0
C26 C 0.10928 0.47517 0.55572 0.0
C27 C 0.05548 0.46202 0.5547 0.0
C28 C 0.05036 0.43784 0.52215 0.0
C29 C 0.08514 0.48138 0.57157 0.0
H30 H 0.12182 0.44365 0.51256 0.0
H31 H 1.02737 0.42356 0.5085 0.0
C32 C 1.01666 0.28549 0.38785 0.0
N33 N 0.96763 0.23266 0.3465 0.0
C34 C 1.0087 0.25393 0.39931 0.0
C35 C 0.99996 0.28996 0.35507 0.0
C36 C 0.98374 0.22762 0.37811 0.0
C37 C 0.97516 0.263 0.33464 0.0
C38 C 0.12193 0.36332 0.48627 0.0
C39 C 0.14392 0.35032 0.47172 0.0
C40 C 0.12677 0.37459 0.52421 0.0
C41 C 0.1701 0.34826 0.49538 0.0
C42 C 0.15326 0.37213 0.54698 0.0
N43 N 0.17419 0.35909 0.53222 0.0
C44 C 0.12583 0.37131 0.38539 0.0
C45 C 0.08983 0.31787 0.35598 0.0
C46 C 0.14885 0.35954 0.37193 0.0
N47 N 0.09732 0.34988 0.3783 0.0
C48 C 0.11211 0.30496 0.34228 0.0
C49 C 0.14242 0.32522 0.3517 0.0
H50 H 0.13141 0.3961 0.40435 0.0
H51 H 0.06726 0.30093 0.35175 0.0
C52 C 0.04352 0.28051 0.50293 0.0
N53 N 0.06535 0.29257 0.48516 0.0
C54 C 0.0496 0.26123 0.52916 0.0
C55 C 0.099 0.26349 0.51462 0.0
C56 C 0.0918 0.28269 0.4885 0.0
C57 C 0.07819 0.2541 0.53621 0.0
H58 H 1.02197 0.28724 0.49788 0.0
H59 H 0.10762 0.29062 0.47187 0.0
O60 O 0.05068 0.39299 0.41949 0.0
O61 O 0.03272 0.35312 0.47868 0.0
O62 O 0.04079 0.31174 0.40852 0.0
O63 O 0.09608 0.36536 0.46339 0.0
H64 H 0.04122 0.45456 0.43987 0.0
H65 H 0.03119 0.37204 0.34767 0.0
H66 H 1.01653 0.48665 0.39757 0.0
H67 H 1.00622 0.40526 0.30703 0.0
H68 H 0.05019 0.36 0.60203 0.0
H69 H 0.97869 0.35972 0.48815 0.0
H70 H 0.06665 0.3532 0.54321 0.0
H71 H 0.96345 0.36559 0.54774 0.0
H72 H 0.92653 0.38887 0.40367 0.0
H73 H 0.91709 0.28285 0.41898 0.0
H74 H 0.13261 0.48982 0.56776 0.0
H75 H 0.03661 0.46489 0.56694 0.0
H76 H 1.02153 0.24984 0.42438 0.0
H77 H 1.00584 0.31411 0.34572 0.0
H78 H 0.97722 0.20313 0.38674 0.0
H79 H 0.96187 0.26621 0.3094 0.0
H80 H 0.14038 0.34078 0.4426 0.0
H81 H 0.11044 0.38534 0.53604 0.0
H82 H 0.18708 0.33783 0.48443 0.0
H83 H 0.1572 0.38068 0.57639 0.0
H84 H 0.1718 0.37629 0.37935 0.0
H85 H 0.10605 0.27828 0.32719 0.0
H86 H 0.0325 0.25269 0.54432 0.0
H87 H 0.12082 0.25715 0.51879 0.0
Li88 Li 0.09248 0.79752 0.7413 0.0
Li89 Li 0.12788 0.78142 0.78518 0.0
Li90 Li 0.0874 0.73705 0.74257 0.0
Li91 Li 0.07679 0.77853 0.79435 0.0
C92 C 0.1324 0.7807 0.70415 0.0
N93 N 0.1556 0.80288 0.64709 0.0
C94 C 0.16227 0.80121 0.71076 0.0
C95 C 0.11436 0.77133 0.66851 0.0
C96 C 0.17357 0.81217 0.68154 0.0
C97 C 0.12648 0.78287 0.64005 0.0
C98 C 0.12226 0.8472 0.82098 0.0
C99 C 0.13995 0.87098 0.88582 0.0
N100 N 0.15225 0.90244 0.87843 0.0
C101 C 0.1349 0.87981 0.81397 0.0
C102 C 0.12465 0.84273 0.85714 0.0
C103 C 0.15008 0.9074 0.84343 0.0
C104 C 0.05471 0.82553 0.69859 0.0
N105 N 0.08448 0.82718 0.71174 0.0
C106 C 0.10091 0.86891 0.67727 0.0
C107 C 0.10755 0.84938 0.7031 0.0
C108 C 0.07033 0.86596 0.66172 0.0
C109 C 0.04697 0.84498 0.67308 0.0
H110 H 0.03698 0.80896 0.70761 0.0
H111 H 0.13092 0.85142 0.7158 0.0
C112 C 0.18235 0.76314 0.78917 0.0
N113 N 0.17033 0.78925 0.80239 0.0
C114 C 0.21382 0.76848 0.79384 0.0
C115 C 0.21982 0.82786 0.82451 0.0
C116 C 0.1884 0.8212 0.81979 0.0
C117 C 0.23291 0.80137 0.8113 0.0
H118 H 0.16741 0.73858 0.77363 0.0
H119 H 0.17866 0.84199 0.829 0.0
C120 C 1.02922 0.74181 0.72004 0.0
N121 N 0.97509 0.6984 0.67745 0.0
C122 C 1.00711 0.72501 0.73656 0.0
C123 C 1.02377 0.73671 0.68178 0.0
C124 C 0.9799 0.70312 0.71462 0.0
C125 C 0.99627 0.71462 0.66074 0.0
C126 C 0.11803 0.7262 0.81711 0.0
C127 C 0.12418 0.69559 0.80102 0.0
C128 C 0.13146 0.74152 0.85382 0.0
C129 C 0.14411 0.68094 0.82198 0.0
C130 C 0.15126 0.72608 0.87386 0.0
N131 N 0.15713 0.69636 0.85767 0.0
C132 C 0.0997 0.69228 0.68789 0.0
C133 C 0.05096 0.67096 0.69953 0.0
C134 C 0.09265 0.66749 0.65547 0.0
N135 N 0.0785 0.69452 0.7083 0.0
C136 C 0.04315 0.6453 0.66764 0.0
C137 C 0.0642 0.64351 0.64523 0.0
H138 H 0.1218 0.71062 0.6959 0.0
H139 H 0.03467 0.67278 0.71646 0.0
C140 C 1.02971 0.80438 0.79941 0.0
N141 N 0.04912 0.79147 0.8215 0.0
C142 C 1.00743 0.8174 0.81231 0.0
C143 C 1.02633 0.80586 0.87181 0.0
C144 C 0.04851 0.79274 0.85749 0.0
C145 C 1.00522 0.81787 0.84873 0.0
H146 H 0.0318 0.80517 0.77163 0.0
H147 H 0.065 0.78357 0.8749 0.0
O148 O 0.12094 0.76953 0.73234 0.0
O149 O 0.10802 0.81981 0.79241 0.0
O150 O 0.05599 0.76326 0.74131 0.0
O151 O 0.09824 0.74049 0.79718 0.0
H152 H 0.17651 0.80896 0.73813 0.0
H153 H 0.09124 0.75542 0.66293 0.0
H154 H 0.19662 0.82816 0.68629 0.0
H155 H 0.11274 0.77592 0.61236 0.0
H156 H 0.14215 0.86785 0.91393 0.0
H157 H 0.13328 0.88362 0.78607 0.0
H158 H 0.11494 0.81774 0.86298 0.0
H159 H 0.16021 0.93272 0.83847 0.0
H160 H 0.11928 0.88617 0.66961 0.0
H161 H 1.02325 0.84334 0.66199 0.0
H162 H 0.22305 0.74731 0.78359 0.0
H163 H 0.23366 0.85346 0.8389 0.0
H164 H 1.01114 0.72862 0.766 0.0
H165 H 0.04057 0.7496 0.66848 0.0
H166 H 0.96266 0.68982 0.72714 0.0
H167 H 0.99178 0.71034 0.63111 0.0
H168 H 0.11374 0.68336 0.77265 0.0
H169 H 0.12657 0.76495 0.86673 0.0
H170 H 0.14919 0.65729 0.8099 0.0
H171 H 0.16189 0.73765 0.90233 0.0
H172 H 0.10908 0.66741 0.63836 0.0
H173 H 1.02085 0.62709 0.66066 0.0
H174 H 0.99233 0.82752 0.79397 0.0
H175 H 1.02543 0.80622 0.90026 0.0
Li176 Li 0.52198 0.85005 0.92684 0.0
Li177 Li 0.56485 0.89036 0.97142 0.0
Li178 Li 0.57192 0.85534 0.91153 0.0
Li179 Li 0.5594 0.82715 0.96104 0.0
C180 C 0.53734 0.91085 0.89658 0.0
N181 N 0.51013 0.94717 0.85047 0.0
C182 C 0.53365 0.94346 0.91075 0.0
C183 C 0.52777 0.89686 0.85903 0.0
C184 C 0.51973 0.96141 0.88695 0.0
C185 C 0.51385 0.91558 0.83616 0.0
C186 C 0.52395 0.85623 1.01148 0.0
C187 C 0.53479 0.85998 0.07691 0.0
N188 N 0.50616 0.86315 0.07753 0.0
C189 C 0.4946 0.85938 1.01275 0.0
C190 C 0.54419 0.85645 0.0438 0.0
C191 C 0.48606 0.86292 0.0464 0.0
C192 C 0.46179 0.81272 0.91924 0.0
N193 N 0.4791 0.84339 0.9151 0.0
C194 C 0.4359 0.86711 0.90843 0.0
C195 C 0.46688 0.87062 0.91054 0.0
C196 C 0.41731 0.83524 0.91114 0.0
C197 C 0.43062 0.80783 0.91668 0.0
H198 H 0.47228 0.79239 0.92588 0.0
H199 H 0.48114 0.89541 0.90962 0.0
C200 C 0.6033 0.94952 0.02409 0.0
N201 N 0.5742 0.93102 1.00848 0.0
C202 C 0.6093 0.97521 0.05575 0.0
C203 C 0.55551 0.96204 0.05475 0.0
C204 C 0.55039 0.93785 0.02219 0.0
C205 C 0.58516 0.98141 0.0716 0.0
H206 H 0.62185 0.94369 1.01258 0.0
H207 H 0.5274 0.92357 1.00855 0.0
C208 C 0.51671 0.78548 0.88792 0.0
N209 N 0.46772 0.73258 0.84659 0.0
C210 C 0.50879 0.75393 0.8994 0.0
C211 C 0.49998 0.78991 0.85514 0.0
C212 C 0.48385 0.72757 0.87821 0.0
C213 C 0.47521 0.76292 0.83472 0.0
C214 C 0.62196 0.86336 0.98632 0.0
C215 C 0.64396 0.85037 0.97178 0.0
C216 C 0.6268 0.87463 0.02425 0.0
C217 C 0.67014 0.84832 0.99543 0.0
C218 C 0.65329 0.87219 0.04703 0.0
N219 N 0.67423 0.85915 0.03227 0.0
C220 C 0.62585 0.87132 0.88543 0.0
C221 C 0.58984 0.81789 0.85601 0.0
C222 C 0.64886 0.85955 0.87196 0.0
N223 N 0.59734 0.8499 0.87833 0.0
C224 C 0.61212 0.80497 0.8423 0.0
C225 C 0.64242 0.82523 0.85173 0.0
H226 H 0.63144 0.89611 0.90439 0.0
H227 H 0.56726 0.80095 0.85179 0.0
C228 C 0.54359 0.78056 1.00302 0.0
N229 N 0.56541 0.7926 0.98522 0.0
C230 C 0.54969 0.76129 0.02926 0.0
C231 C 0.59908 0.76353 1.01466 0.0
C232 C 0.59186 0.78272 0.98855 0.0
C233 C 0.57829 0.75415 0.03628 0.0
H234 H 0.52205 0.78728 0.99799 0.0
H235 H 0.60766 0.79065 0.97189 0.0
O236 O 0.5507 0.89301 0.91953 0.0
O237 O 0.53276 0.85314 0.97874 0.0
O238 O 0.54082 0.81176 0.90858 0.0
O239 O 0.59611 0.86539 0.96343 0.0
H240 H 0.54124 0.95459 0.93984 0.0
H241 H 0.53119 0.87198 0.84772 0.0
H242 H 0.51654 0.98663 0.89748 0.0
H243 H 0.50622 0.90515 0.80702 0.0
H244 H 0.55021 0.86006 0.10209 0.0
H245 H 0.47871 0.8597 0.98819 0.0
H246 H 0.56669 0.85326 0.04328 0.0
H247 H 0.46346 0.86558 0.04777 0.0
H248 H 0.42658 0.88893 0.90383 0.0
H249 H 0.4171 0.78285 0.91893 0.0
H250 H 0.63263 0.98987 0.06777 0.0
H251 H 0.53664 0.9649 0.06699 0.0
H252 H 0.52163 0.74986 0.92447 0.0
H253 H 0.50584 0.81406 0.84577 0.0
H254 H 0.47736 0.70309 0.88685 0.0
H255 H 0.46191 0.7661 0.80947 0.0
H256 H 0.64042 0.84082 0.94265 0.0
H257 H 0.61046 0.88539 0.03608 0.0
H258 H 0.68712 0.83789 0.98449 0.0
H259 H 0.65723 0.88074 0.07644 0.0
H260 H 0.67182 0.87629 0.87938 0.0
H261 H 0.60605 0.7783 0.82721 0.0
H262 H 0.53261 0.75275 0.04444 0.0
H263 H 0.6209 0.75719 0.01881 0.0
Li264 Li 0.59248 0.29754 0.2413 0.0
Li265 Li 0.62785 0.2814 0.28517 0.0
Li266 Li 0.58739 0.23705 0.24254 0.0
Li267 Li 0.57677 0.2785 0.29434 0.0
C268 C 0.63244 0.28075 0.20418 0.0
N269 N 0.65575 0.30298 0.14721 0.0
C270 C 0.66231 0.30129 0.21086 0.0
C271 C 0.61446 0.27138 0.16851 0.0
C272 C 0.67367 0.31227 0.18169 0.0
C273 C 0.62663 0.28295 0.14009 0.0
C274 C 0.62229 0.34725 0.3209 0.0
C275 C 0.63999 0.37126 0.3857 0.0
N276 N 0.65238 0.40263 0.37816 0.0
C277 C 0.63503 0.37975 0.31375 0.0
C278 C 0.62464 0.34295 0.35711 0.0
C279 C 0.65026 0.40742 0.34311 0.0
C280 C 0.5547 0.32559 0.19866 0.0
N281 N 0.58447 0.32721 0.21176 0.0
C282 C 0.60087 0.36889 0.17722 0.0
C283 C 0.60753 0.34937 0.20306 0.0
C284 C 0.57028 0.36596 0.16172 0.0
C285 C 0.54694 0.34503 0.17315 0.0
H286 H 0.53698 0.30904 0.20772 0.0
H287 H 0.6309 0.3514 0.21572 0.0
C288 C 0.68231 0.26312 0.2891 0.0
N289 N 0.67031 0.2892 0.3024 0.0
C290 C 0.71378 0.26846 0.29377 0.0
C291 C 0.7198 0.32778 0.32461 0.0
C292 C 0.68838 0.32112 0.3199 0.0
C293 C 0.73288 0.30133 0.3113 0.0
H294 H 0.66737 0.23859 0.27349 0.0
H295 H 0.67865 0.34189 0.32921 0.0
C296 C 0.52923 0.24185 0.21993 0.0
N297 N 0.47514 0.19852 0.17715 0.0
C298 C 0.50705 0.22504 0.23635 0.0
C299 C 0.52388 0.23681 0.18168 0.0
C300 C 0.47986 0.20319 0.21431 0.0
C301 C 0.4964 0.21476 0.16053 0.0
C302 C 0.61803 0.22628 0.31717 0.0
C303 C 0.62427 0.19569 0.30119 0.0
C304 C 0.63141 0.2417 0.35386 0.0
C305 C 0.64423 0.18115 0.32225 0.0
C306 C 0.65125 0.22637 0.37401 0.0
N307 N 0.6572 0.19666 0.35792 0.0
C308 C 0.59968 0.1923 0.18783 0.0
C309 C 0.55095 0.17098 0.1995 0.0
C310 C 0.59262 0.16752 0.15541 0.0
N311 N 0.57849 0.19453 0.20825 0.0
C312 C 0.54313 0.14532 0.16761 0.0
C313 C 0.56418 0.14353 0.14518 0.0
H314 H 0.62178 0.21065 0.19584 0.0
H315 H 0.53466 0.1728 0.21643 0.0
C316 C 0.52967 0.30433 0.2994 0.0
N317 N 0.54908 0.29142 0.32149 0.0
C318 C 0.5074 0.31735 0.3123 0.0
C319 C 0.5263 0.30581 0.3718 0.0
C320 C 0.54848 0.29269 0.35748 0.0
C321 C 0.50519 0.31783 0.34872 0.0
H322 H 0.53177 0.30512 0.27162 0.0
H323 H 0.56497 0.28353 0.37489 0.0
O324 O 0.62094 0.26955 0.23233 0.0
O325 O 0.60798 0.31978 0.29243 0.0
O326 O 0.55598 0.26326 0.2413 0.0
O327 O 0.59821 0.24046 0.29714 0.0
H328 H 0.67651 0.30905 0.23826 0.0
H329 H 0.59134 0.25545 0.16288 0.0
H330 H 0.69671 0.32828 0.18649 0.0
H331 H 0.61294 0.276 0.11238 0.0
H332 H 0.64216 0.36826 0.41384 0.0
H333 H 0.63343 0.38344 0.28581 0.0
H334 H 0.61486 0.31802 0.36307 0.0
H335 H 0.66045 0.43267 0.33803 0.0
H336 H 0.61922 0.38612 0.16952 0.0
H337 H 0.52321 0.34341 0.1621 0.0
H338 H 0.72301 0.24731 0.28344 0.0
H339 H 0.73364 0.35336 0.33908 0.0
H340 H 0.511 0.22862 0.26578 0.0
H341 H 0.54073 0.24971 0.16846 0.0
H342 H 0.46257 0.18988 0.22674 0.0
H343 H 0.49198 0.21052 0.13092 0.0
H344 H 0.61386 0.18338 0.27282 0.0
H345 H 0.62645 0.26512 0.36668 0.0
H346 H 0.64938 0.15751 0.31025 0.0
H347 H 0.66184 0.23802 0.40247 0.0
H348 H 0.60904 0.16745 0.13829 0.0
H349 H 0.52084 0.1271 0.16063 0.0
H350 H 0.4923 0.32749 0.29396 0.0
H351 H 0.5254 0.30618 0.40025 0.0
Li352 Li 0.11231 0.8674 0.185 0.0
Li353 Li 0.14946 0.8404 0.23306 0.0
Li354 Li 0.108 0.79992 0.18158 0.0
Li355 Li 0.092 0.83422 0.2322 0.0
C356 C 0.15243 0.82272 0.14867 0.0
N357 N 0.16787 0.78728 0.08953 0.0
C358 C 0.18076 0.81511 0.1528 0.0
C359 C 0.13203 0.81268 0.11461 0.0
C360 C 0.18822 0.79728 0.12244 0.0
C361 C 0.14016 0.7945 0.08507 0.0
C362 C 0.1241 0.90081 0.27082 0.0
C363 C 0.13092 0.91876 0.33614 0.0
N364 N 0.11928 0.94627 0.3307 0.0
C365 C 0.11229 0.92925 0.26582 0.0
C366 C 0.13362 0.89551 0.30617 0.0
C367 C 0.10996 0.95193 0.29648 0.0
C368 C 0.07757 0.91609 0.15881 0.0
N369 N 0.10556 0.90932 0.16134 0.0
C370 C 0.12189 0.96051 0.13581 0.0
C371 C 0.12755 0.93111 0.14975 0.0
C372 C 0.09357 0.96853 0.13385 0.0
C373 C 0.07113 0.94516 0.14512 0.0
H374 H 0.06007 0.89915 0.16804 0.0
H375 H 0.14971 0.92594 0.15141 0.0
C376 C 0.19991 0.8098 0.2573 0.0
N377 N 0.19082 0.84008 0.26205 0.0
C378 C 0.22776 0.80719 0.27811 0.0
C379 C 0.23699 0.86701 0.30824 0.0
C380 C 0.20904 0.86849 0.28704 0.0
C381 C 0.24678 0.83602 0.30436 0.0
H382 H 0.18527 0.78725 0.2376 0.0
H383 H 0.20176 0.89233 0.29098 0.0
C384 C 0.04891 0.81266 0.15411 0.0
N385 N 0.99375 0.78421 0.10467 0.0
C386 C 1.02541 0.78992 0.16374 0.0
C387 C 0.04437 0.82108 0.11946 0.0
C388 C 0.99769 0.77574 0.13832 0.0
C389 C 1.01632 0.80638 0.09482 0.0
C390 C 0.11709 0.77797 0.2574 0.0
C391 C 0.10019 0.74328 0.24571 0.0
C392 C 0.13457 0.78962 0.29321 0.0
C393 C 0.10109 0.72071 0.27016 0.0
C394 C 0.13493 0.76624 0.31683 0.0
N395 N 0.11832 0.73254 0.30491 0.0
C396 C 0.12552 0.73607 0.15844 0.0
C397 C 0.07248 0.72903 0.14087 0.0
C398 C 0.12176 0.69987 0.14759 0.0
N399 N 0.10107 0.7502 0.15523 0.0
C400 C 0.06767 0.69267 0.13032 0.0
C401 C 0.09242 0.67734 0.13408 0.0
H402 H 0.14801 0.75267 0.17115 0.0
H403 H 0.05307 0.73992 0.13919 0.0
C404 C 0.047 0.8581 0.26793 0.0
N405 N 0.0595 0.83091 0.25995 0.0
C406 C 1.0218 0.85426 0.28439 0.0
C407 C 1.02201 0.79428 0.28334 0.0
C408 C 0.04734 0.79938 0.26737 0.0
C409 C 1.00871 0.8219 0.29234 0.0
H410 H 0.0561 0.88268 0.26082 0.0
H411 H 0.0565 0.77759 0.25959 0.0
O412 O 0.14437 0.83929 0.17808 0.0
O413 O 0.12667 0.8785 0.24118 0.0
O414 O 0.07602 0.82736 0.17875 0.0
O415 O 0.11696 0.80029 0.23371 0.0
H416 H 0.19669 0.82277 0.17917 0.0
H417 H 0.10997 0.81833 0.11125 0.0
H418 H 0.21008 0.79121 0.12509 0.0
H419 H 0.12438 0.78605 0.05865 0.0
H420 H 0.13813 0.91501 0.36372 0.0
H421 H 0.10492 0.93369 0.23856 0.0
H422 H 0.14304 0.87375 0.31041 0.0
H423 H 0.10075 0.97402 0.29308 0.0
H424 H 0.13936 0.97665 0.12602 0.0
H425 H 0.04878 0.94974 0.14421 0.0
H426 H 0.23409 0.78272 0.274 0.0
H427 H 0.2507 0.89008 0.32801 0.0
H428 H 1.02862 0.783 0.19037 0.0
H429 H 0.06228 0.83891 0.11176 0.0
H430 H 0.97931 0.758 0.14532 0.0
H431 H 1.01246 0.81268 0.06789 0.0
H432 H 0.08623 0.73395 0.21825 0.0
H433 H 0.14792 0.81633 0.3026 0.0
H434 H 0.08806 0.69379 0.2615 0.0
H435 H 0.14846 0.77486 0.34461 0.0
H436 H 0.1416 0.68954 0.15135 0.0
H437 H 0.04457 0.67664 0.12 0.0
H438 H 1.01274 0.87654 0.29071 0.0
H439 H 1.01254 0.76846 0.2876 0.0
Li440 Li 0.53812 0.83022 0.53675 0.0
Li441 Li 0.49699 0.78875 0.48532 0.0
Li442 Li 0.53223 0.76021 0.53244 0.0
Li443 Li 0.55319 0.79255 0.48752 0.0
C444 C 0.49463 0.80096 0.5726 0.0
N445 N 0.48216 0.82416 0.63914 0.0
C446 C 0.47094 0.81705 0.57396 0.0
C447 C 0.51164 0.79592 0.60483 0.0
C448 C 0.46534 0.8292 0.60801 0.0
C449 C 0.50482 0.80766 0.63827 0.0
C450 C 0.52466 0.84517 0.45668 0.0
C451 C 0.51916 0.84832 0.39293 0.0
N452 N 0.51182 0.87925 0.40032 0.0
C453 C 0.51727 0.87703 0.46376 0.0
C454 C 0.52578 0.8307 0.42111 0.0
C455 C 0.51076 0.89383 0.43485 0.0
C456 C 0.57379 0.90243 0.56217 0.0
N457 N 0.54629 0.88081 0.56154 0.0
C458 C 0.52822 0.9313 0.58128 0.0
C459 C 0.52361 0.8949 0.57069 0.0
C460 C 0.55641 0.95409 0.58214 0.0
C461 C 0.57942 0.93887 0.57271 0.0
H462 H 0.59106 0.89163 0.55264 0.0
H463 H 0.50128 0.87828 0.56798 0.0
C464 C 0.43719 0.76093 0.43132 0.0
N465 N 0.45571 0.78942 0.456 0.0
C466 C 0.40928 0.76252 0.41005 0.0
C467 C 0.41924 0.82267 0.43929 0.0
C468 C 0.44682 0.81983 0.46048 0.0
C469 C 0.39985 0.79375 0.41346 0.0
H470 H 0.44412 0.73685 0.42777 0.0
H471 H 0.46136 0.8423 0.48032 0.0
C472 C 0.59882 0.8 0.54506 0.0
N473 N 0.65839 0.79697 0.5484 0.0
C474 C 0.60526 0.76848 0.53247 0.0
C475 C 0.62267 0.82993 0.55967 0.0
C476 C 0.63551 0.76748 0.53432 0.0
C477 C 0.65264 0.82789 0.56102 0.0
C478 C 0.51955 0.72611 0.44767 0.0
C479 C 0.53251 0.69853 0.45308 0.0
C480 C 0.50739 0.72918 0.41215 0.0
C481 C 0.53349 0.67461 0.42262 0.0
C482 C 0.50881 0.70472 0.3824 0.0
N483 N 0.52169 0.67818 0.38822 0.0
C484 C 0.51604 0.68565 0.54471 0.0
C485 C 0.56243 0.72044 0.58249 0.0
C486 C 0.52116 0.65576 0.55806 0.0
N487 N 0.53668 0.71756 0.55659 0.0
C488 C 0.56849 0.69124 0.59627 0.0
C489 C 0.54792 0.65788 0.58407 0.0
H490 H 0.4958 0.68289 0.52386 0.0
H491 H 0.57902 0.74539 0.59199 0.0
C492 C 0.60226 0.82979 0.46139 0.0
N493 N 0.58617 0.79669 0.46018 0.0
C494 C 0.62795 0.83599 0.44605 0.0
C495 C 0.62057 0.77399 0.42838 0.0
C496 C 0.59498 0.76897 0.44405 0.0
C497 C 0.63762 0.80791 0.42908 0.0
H498 H 0.59554 0.85158 0.47512 0.0
H499 H 0.58279 0.74284 0.44413 0.0
O500 O 0.50157 0.7907 0.53988 0.0
O501 O 0.53089 0.82828 0.48453 0.0
O502 O 0.56925 0.80138 0.54281 0.0
O503 O 0.51793 0.74937 0.47712 0.0
H504 H 0.45766 0.82106 0.54906 0.0
H505 H 0.53002 0.78333 0.60399 0.0
H506 H 0.44773 0.84275 0.60971 0.0
H507 H 0.51769 0.80397 0.66355 0.0
H508 H 0.51992 0.83745 0.36521 0.0
H509 H 0.51634 0.88851 0.49121 0.0
H510 H 0.53187 0.80626 0.41537 0.0
H511 H 0.50486 0.91845 0.43987 0.0
H512 H 0.50953 0.94144 0.58776 0.0
H513 H 0.60147 0.955 0.57233 0.0
H514 H 0.39533 0.73938 0.39057 0.0
H515 H 0.41346 0.84745 0.44282 0.0
H516 H 0.58701 0.74514 0.52086 0.0
H517 H 0.61819 0.85437 0.57018 0.0
H518 H 0.64078 0.74328 0.52442 0.0
H519 H 0.67134 0.85086 0.57221 0.0
H520 H 0.54193 0.69582 0.48046 0.0
H521 H 0.49679 0.75006 0.40763 0.0
H522 H 0.54365 0.65325 0.4263 0.0
H523 H 0.49956 0.70675 0.35469 0.0
H524 H 0.50459 0.63091 0.54715 0.0
H525 H 0.58963 0.69478 0.61598 0.0
H526 H 0.64048 0.86268 0.44834 0.0
H527 H 0.62682 0.75136 0.41586 0.0
Li528 Li 0.61231 0.36741 0.68502 0.0
Li529 Li 0.64946 0.3404 0.73308 0.0
Li530 Li 0.608 0.29993 0.6816 0.0
Li531 Li 0.592 0.33422 0.73222 0.0
C532 C 0.65243 0.32275 0.64868 0.0
N533 N 0.66785 0.28737 0.58949 0.0
C534 C 0.68073 0.3151 0.65279 0.0
C535 C 0.63204 0.31279 0.61461 0.0
C536 C 0.68819 0.2973 0.62241 0.0
C537 C 0.64016 0.29464 0.58504 0.0
C538 C 0.62408 0.4008 0.77084 0.0
C539 C 0.63084 0.41872 0.83616 0.0
N540 N 0.6192 0.44622 0.83072 0.0
C541 C 0.61226 0.42924 0.76584 0.0
C542 C 0.63357 0.39548 0.80619 0.0
C543 C 0.60991 0.4519 0.7965 0.0
C544 C 0.57758 0.41611 0.65885 0.0
N545 N 0.60556 0.40933 0.66137 0.0
C546 C 0.62189 0.46051 0.63581 0.0
C547 C 0.62755 0.43111 0.64976 0.0
C548 C 0.59357 0.46854 0.63387 0.0
C549 C 0.57113 0.44518 0.64516 0.0
H550 H 0.56008 0.39917 0.66808 0.0
H551 H 0.64971 0.42594 0.65141 0.0
C552 C 0.69991 0.3098 0.75733 0.0
N553 N 0.69082 0.34008 0.76208 0.0
C554 C 0.72776 0.30718 0.77814 0.0
C555 C 0.73698 0.36701 0.80827 0.0
C556 C 0.70903 0.36848 0.78707 0.0
C557 C 0.74678 0.33602 0.80439 0.0
H558 H 0.68527 0.28725 0.73763 0.0
H559 H 0.70176 0.39233 0.79101 0.0
C560 C 0.54891 0.31268 0.65414 0.0
N561 N 0.49373 0.28423 0.60474 0.0
C562 C 0.52542 0.28992 0.66378 0.0
C563 C 0.54434 0.3211 0.61949 0.0
C564 C 0.49769 0.27575 0.63838 0.0
C565 C 0.51628 0.30641 0.59487 0.0
C566 C 0.61709 0.27797 0.75741 0.0
C567 C 0.60019 0.24328 0.74571 0.0
C568 C 0.63457 0.28961 0.79322 0.0
C569 C 0.60109 0.2207 0.77015 0.0
C570 C 0.63493 0.26623 0.81683 0.0
N571 N 0.61832 0.23253 0.80491 0.0
C572 C 0.62551 0.23608 0.65844 0.0
C573 C 0.57248 0.22904 0.64087 0.0
C574 C 0.62175 0.19988 0.64759 0.0
N575 N 0.60107 0.25021 0.65524 0.0
C576 C 0.56767 0.19268 0.63033 0.0
C577 C 0.59241 0.17734 0.63408 0.0
H578 H 0.648 0.25267 0.67116 0.0
H579 H 0.55306 0.23993 0.6392 0.0
C580 C 0.54698 0.35809 0.76791 0.0
N581 N 0.5595 0.33091 0.75997 0.0
C582 C 0.52178 0.35426 0.78437 0.0
C583 C 0.52203 0.2943 0.78339 0.0
C584 C 0.54735 0.2994 0.76741 0.0
C585 C 0.50871 0.32191 0.79235 0.0
H586 H 0.55607 0.38267 0.76077 0.0
H587 H 0.55653 0.27761 0.75966 0.0
O588 O 0.64437 0.33929 0.67811 0.0
O589 O 0.62667 0.3785 0.74121 0.0
O590 O 0.57602 0.32736 0.67877 0.0
O591 O 0.61696 0.30029 0.73372 0.0
H592 H 0.69666 0.3227 0.67917 0.0
H593 H 0.60999 0.31847 0.61125 0.0
H594 H 0.71004 0.29119 0.62505 0.0
H595 H 0.62439 0.28625 0.55861 0.0
H596 H 0.63803 0.41494 0.86374 0.0
H597 H 0.60492 0.43369 0.73858 0.0
H598 H 0.64299 0.37372 0.81043 0.0
H599 H 0.60069 0.47399 0.79309 0.0
H600 H 0.63935 0.47664 0.62601 0.0
H601 H 0.54879 0.44976 0.64425 0.0
H602 H 0.73409 0.28272 0.77403 0.0
H603 H 0.75069 0.39007 0.82805 0.0
H604 H 0.52864 0.283 0.69041 0.0
H605 H 0.56224 0.33894 0.61179 0.0
H606 H 0.47932 0.25801 0.64539 0.0
H607 H 0.51241 0.31271 0.56795 0.0
H608 H 0.58623 0.23395 0.71825 0.0
H609 H 0.64792 0.31632 0.80262 0.0
H610 H 0.58806 0.19378 0.7615 0.0
H611 H 0.64846 0.27484 0.84461 0.0
H612 H 0.6416 0.18954 0.65135 0.0
H613 H 0.54456 0.17665 0.62 0.0
H614 H 0.5127 0.37653 0.79066 0.0
H615 H 0.51257 0.26848 0.78767 0.0
Li616 Li 0.03813 0.33022 0.03675 0.0
Li617 Li 0.997 0.28875 0.98534 0.0
Li618 Li 0.03224 0.26021 0.03245 0.0
Li619 Li 0.05319 0.29255 0.98752 0.0
C620 C 0.99472 0.30098 0.07267 0.0
N621 N 0.98239 0.3242 0.13929 0.0
C622 C 0.97104 0.31709 0.07411 0.0
C623 C 1.01178 0.29593 0.10485 0.0
C624 C 0.96552 0.32925 0.1082 0.0
C625 C 1.00503 0.30768 0.13834 0.0
C626 C 1.02465 0.34516 0.95667 0.0
C627 C 1.01914 0.34829 0.89292 0.0
N628 N 1.01178 0.3792 0.90029 0.0
C629 C 1.01724 0.377 0.96374 0.0
C630 C 1.02577 0.33068 0.9211 0.0
C631 C 1.01071 0.39379 0.93482 0.0
C632 C 0.07383 0.40242 0.06229 0.0
N633 N 0.04629 0.38081 0.06155 0.0
C634 C 1.0282 0.4313 0.08118 0.0
C635 C 1.02359 0.3949 0.07059 0.0
C636 C 0.05642 0.45409 0.08216 0.0
C637 C 0.07945 0.43886 0.07284 0.0
H638 H 0.09113 0.39162 0.05285 0.0
H639 H 1.00123 0.37828 0.06777 0.0
C640 C 0.9372 0.26095 0.93133 0.0
N641 N 0.95571 0.28944 0.95602 0.0
C642 C 0.90929 0.26254 0.91006 0.0
C643 C 0.91921 0.32267 0.93936 0.0
C644 C 0.9468 0.31984 0.96053 0.0
C645 C 0.89984 0.29376 0.91349 0.0
H646 H 0.94414 0.23688 0.92778 0.0
H647 H 0.96134 0.34231 0.98039 0.0
C648 C 0.09882 0.29996 0.04505 0.0
N649 N 0.15837 0.29684 0.04839 0.0
C650 C 0.10522 0.26842 0.03243 0.0
C651 C 0.12269 0.32986 0.05968 0.0
C652 C 0.13547 0.26738 0.03428 0.0
C653 C 0.15265 0.32778 0.06103 0.0
C654 C 1.01954 0.22611 0.94767 0.0
C655 C 0.03249 0.19853 0.95307 0.0
C656 C 1.00737 0.22919 0.91215 0.0
C657 C 0.03346 0.17461 0.9226 0.0
C658 C 1.00878 0.20473 0.88239 0.0
N659 N 1.02166 0.17818 0.88821 0.0
C660 C 1.01605 0.18566 0.04471 0.0
C661 C 0.06244 0.22044 0.08249 0.0
C662 C 1.02116 0.15576 0.05805 0.0
N663 N 0.03669 0.21756 0.05659 0.0
C664 C 0.06849 0.19123 0.09627 0.0
C665 C 0.04792 0.15788 0.08407 0.0
H666 H 0.99581 0.18289 0.02385 0.0
H667 H 0.07902 0.24539 0.09199 0.0
C668 C 0.10226 0.32979 0.96139 0.0
N669 N 0.08617 0.29669 0.96017 0.0
C670 C 0.12795 0.33599 0.94605 0.0
C671 C 0.12056 0.274 0.92836 0.0
C672 C 0.09497 0.26897 0.94403 0.0
C673 C 0.13762 0.30792 0.92907 0.0
H674 H 0.09554 0.35158 0.97513 0.0
H675 H 0.08278 0.24284 0.94409 0.0
O676 O 1.00159 0.29071 0.0399 0.0
O677 O 0.0309 0.32828 0.98453 0.0
O678 O 0.06926 0.30138 0.04281 0.0
O679 O 1.01793 0.24937 0.97712 0.0
H680 H 0.95773 0.32111 0.04925 0.0
H681 H 0.03014 0.28333 0.10395 0.0
H682 H 0.94792 0.34281 0.10996 0.0
H683 H 1.01794 0.30399 0.16359 0.0
H684 H 1.01989 0.33741 0.8652 0.0
H685 H 1.01631 0.3885 0.99119 0.0
H686 H 0.03188 0.30625 0.91538 0.0
H687 H 1.00479 0.4184 0.93984 0.0
H688 H 1.00949 0.44144 0.08757 0.0
H689 H 0.10154 0.45498 0.07255 0.0
H690 H 0.89535 0.2394 0.89057 0.0
H691 H 0.91337 0.34741 0.94296 0.0
H692 H 0.08696 0.2451 0.02081 0.0
H693 H 0.11825 0.35431 0.07021 0.0
H694 H 0.14072 0.24317 0.02436 0.0
H695 H 0.17137 0.35073 0.07224 0.0
H696 H 0.04192 0.19581 0.98045 0.0
H697 H 0.99678 0.25007 0.90764 0.0
H698 H 0.04363 0.15325 0.92628 0.0
H699 H 0.99954 0.20677 0.85469 0.0
H700 H 1.00459 0.13091 0.04714 0.0
H701 H 0.08963 0.19478 0.11597 0.0
H702 H 0.14049 0.36268 0.94836 0.0
H703 H 0.12681 0.25136 0.91583 0.0
Li704 Li 0.47081 0.08789 0.38774 0.0
Li705 Li 0.42279 0.04556 0.34217 0.0
Li706 Li 0.46483 0.08056 0.30819 0.0
Li707 Li 0.42529 0.11831 0.34547 0.0
C708 C 0.47064 1.01498 0.3433 0.0
N709 N 0.47449 0.94706 0.33891 0.0
C710 C 0.47376 1.00108 0.37493 0.0
C711 C 0.46942 0.99449 0.30944 0.0
C712 C 0.47566 0.96664 0.37214 0.0
C713 C 0.47144 0.96017 0.30779 0.0
C714 C 0.40268 0.07832 0.40357 0.0
C715 C 0.35229 0.07891 0.41183 0.0
N716 N 0.35727 0.0641 0.44156 0.0
C717 C 0.40733 0.06312 0.4341 0.0
C718 C 0.375 0.08631 0.39225 0.0
C719 C 0.38408 0.0561 0.45297 0.0
C720 C 0.49252 0.09186 0.47401 0.0
N721 N 0.50032 0.08738 0.44034 0.0
C722 C 0.54693 0.07512 0.47167 0.0
C723 C 0.52747 0.07908 0.43956 0.0
C724 C 0.53935 0.07882 0.50654 0.0
C725 C 0.51127 0.08743 0.5069 0.0
H726 H 0.4715 0.09887 0.47592 0.0
H727 H 0.53424 0.075 0.41364 0.0
C728 C 0.38162 0.96721 0.31211 0.0
N729 N 0.39731 0.99237 0.34271 0.0
C730 C 0.36768 0.93206 0.31436 0.0
C731 C 0.38545 0.94769 0.37933 0.0
C732 C 0.39927 0.98223 0.3759 0.0
C733 C 0.36921 0.92123 0.34843 0.0
H734 H 0.38011 0.97392 0.28537 0.0
H735 H 0.41243 1.0007 0.40037 0.0
C736 C 0.4962 0.15299 0.35057 0.0
N737 N 0.54076 0.20876 0.34482 0.0
C738 C 0.48813 0.18068 0.33698 0.0
C739 C 0.52686 0.15333 0.36117 0.0
C740 C 0.51096 0.2088 0.33463 0.0
C741 C 0.54912 0.1818 0.35784 0.0
C742 C 0.39214 0.06162 0.27282 0.0
C743 C 0.39429 0.06123 0.23645 0.0
C744 C 0.36403 0.04843 0.28093 0.0
C745 C 0.36812 0.04728 0.20852 0.0
C746 C 0.33838 0.03478 0.25223 0.0
N747 N 0.34097 0.03446 0.21694 0.0
C748 C 0.47603 0.05399 0.22672 0.0
C749 C 0.52029 0.09182 0.26455 0.0
C750 C 0.49141 0.04967 0.19677 0.0
N751 N 0.48999 0.07515 0.26075 0.0
C752 C 0.53655 0.08777 0.23541 0.0
C753 C 0.52265 0.0663 0.20002 0.0
H754 H 0.45248 0.03965 0.22215 0.0
H755 H 0.53258 0.10859 0.29059 0.0
C756 C 0.41515 0.19949 0.36278 0.0
N757 N 0.40022 0.16496 0.34705 0.0
C758 C 0.40032 0.2281 0.36419 0.0
C759 C 0.35366 0.18786 0.33387 0.0
C760 C 0.36934 0.15992 0.33271 0.0
C761 C 0.36853 0.2237 0.34978 0.0
H762 H 0.43927 0.20576 0.3749 0.0
H763 H 0.35593 0.13371 0.31995 0.0
O764 O 0.46813 0.04832 0.34538 0.0
O765 O 0.42532 0.0863 0.38524 0.0
O766 O 0.47395 0.12536 0.35268 0.0
O767 O 0.41748 0.07498 0.30044 0.0
H768 H 0.47432 1.01661 0.40124 0.0
H769 H 0.46679 1.00497 0.28472 0.0
H770 H 0.47795 0.95543 0.39635 0.0
H771 H 0.47053 0.94392 0.28178 0.0
H772 H 0.33074 0.08499 0.40344 0.0
H773 H 0.42851 0.0564 0.44284 0.0
H774 H 0.37118 0.09816 0.36864 0.0
H775 H 0.38734 0.04425 0.47666 0.0
H776 H 0.56811 0.06873 0.46892 0.0
H777 H 0.5039 0.09128 0.53249 0.0
H778 H 0.35572 0.91342 0.28929 0.0
H779 H 0.388 0.9417 0.40645 0.0
H780 H 0.46441 0.18037 0.32826 0.0
H781 H 0.53332 0.13176 0.37152 0.0
H782 H 0.50482 0.23059 0.32472 0.0
H783 H 0.573 0.1825 0.36566 0.0
H784 H 0.41586 0.07194 0.22996 0.0
H785 H 0.3621 0.0486 0.30904 0.0
H786 H 0.36936 0.04675 0.18017 0.0
H787 H 0.31643 1.02443 0.25801 0.0
H788 H 0.4786 0.03281 0.17094 0.0
H789 H 0.56027 0.10197 0.24082 0.0
H790 H 0.41421 0.2541 0.37708 0.0
H791 H 0.32945 0.18096 0.32199 0.0
Li792 Li 0.29145 0.22923 0.61741 0.0
Li793 Li 0.30776 0.1836 0.58202 0.0
Li794 Li 0.28758 0.22735 0.54885 0.0
Li795 Li 0.24969 0.18091 0.57725 0.0
C796 C 0.35067 0.25771 0.60883 0.0
N797 N 0.40414 0.30504 0.64824 0.0
C798 C 0.37417 0.24618 0.62785 0.0
C799 C 0.35447 0.29335 0.60981 0.0
C800 C 0.401 0.2705 0.64762 0.0
C801 C 0.38163 0.31685 0.62991 0.0
C802 C 0.28737 0.17816 0.65452 0.0
C803 C 0.26983 0.17854 0.71071 0.0
N804 N 0.2986 0.18094 0.72914 0.0
C805 C 0.31677 0.18065 0.67391 0.0
C806 C 0.26365 0.17692 0.67292 0.0
C807 C 0.32198 0.18192 0.71165 0.0
C808 C 0.27487 0.2628 0.68206 0.0
N809 N 0.29904 0.25721 0.6681 0.0
C810 C 0.33198 0.27859 0.72822 0.0
C811 C 0.32729 0.26527 0.69061 0.0
C812 C 0.30738 0.28367 0.74353 0.0
C813 C 0.27855 0.27614 0.71969 0.0
H814 H 0.25234 0.25521 0.66438 0.0
H815 H 0.34608 0.2594 0.68017 0.0
C816 C 0.36303 0.16794 0.56681 0.0
N817 N 0.339 0.15699 0.58218 0.0
C818 C 0.38747 0.15227 0.56985 0.0
C819 C 0.3617 0.11327 0.60325 0.0
C820 C 0.33783 0.12981 0.59975 0.0
C821 C 0.3873 0.12467 0.58862 0.0
H822 H 0.36368 0.18964 0.55303 0.0
H823 H 0.31869 0.12146 0.61194 0.0
C824 C 0.24456 0.26037 0.58775 0.0
N825 N 0.22113 0.31684 0.6042 0.0
C826 C 0.21308 0.2559 0.58162 0.0
C827 C 0.26416 0.29348 0.60193 0.0
C828 C 0.20166 0.2848 0.59016 0.0
C829 C 0.25187 0.32173 0.61021 0.0
C830 C 0.2831 0.15009 0.51491 0.0
C831 C 0.30091 0.16043 0.49046 0.0
C832 C 0.27697 0.11559 0.51943 0.0
C833 C 0.31222 0.13589 0.47061 0.0
C834 C 0.28869 0.09182 0.49907 0.0
N835 N 0.30592 0.10237 0.47529 0.0
C836 C 0.32462 0.26991 0.51138 0.0
C837 C 0.27399 0.25282 0.47682 0.0
C838 C 0.33409 0.28845 0.48526 0.0
N839 N 0.2949 0.25284 0.50752 0.0
C840 C 0.28275 0.27082 0.44932 0.0
C841 C 0.3133 0.2893 0.45349 0.0
H842 H 0.34138 0.26892 0.53475 0.0
H843 H 0.25046 0.23881 0.4734 0.0
C844 C 0.18967 0.16483 0.59816 0.0
N845 N 0.20765 0.15231 0.57704 0.0
C846 C 0.16207 0.14312 0.60177 0.0
C847 C 0.1716 0.09609 0.56173 0.0
C848 C 0.19861 0.11856 0.55855 0.0
C849 C 0.15296 0.10788 0.58391 0.0
H850 H 0.19729 0.19137 0.61361 0.0
H851 H 0.21289 0.10856 0.5422 0.0
O852 O 0.32439 0.23422 0.58882 0.0
O853 O 0.28199 0.17796 0.61785 0.0
O854 O 0.25606 0.23238 0.57956 0.0
O855 O 0.27293 0.17408 0.53559 0.0
H856 H 0.37154 0.21887 0.62815 0.0
H857 H 0.33679 0.30278 0.59488 0.0
H858 H 0.41926 0.26193 0.66262 0.0
H859 H 0.38485 0.34448 0.63083 0.0
H860 H 0.25179 0.17821 0.72542 0.0
H861 H 0.33546 0.18222 0.66012 0.0
H862 H 0.24086 0.17537 0.65829 0.0
H863 H 0.34465 0.18405 0.7271 0.0
H864 H 0.35462 0.28375 0.7453 0.0
H865 H 0.25877 0.27936 0.73012 0.0
H866 H 0.40635 0.16179 0.55764 0.0
H867 H 0.36045 0.09241 0.61833 0.0
H868 H 0.19764 0.23046 0.57003 0.0
H869 H 0.28854 0.29721 0.60694 0.0
H870 H 0.17731 0.28176 0.58552 0.0
H871 H 0.26677 0.34753 0.62145 0.0
H872 H 0.30618 0.1872 0.4871 0.0
H873 H 0.26382 0.10743 0.53894 0.0
H874 H 0.32612 0.14352 0.45162 0.0
H875 H 0.28426 0.06503 0.50234 0.0
H876 H 0.35797 0.30187 0.48992 0.0
H877 H 0.26569 0.27087 0.42572 0.0
H878 H 0.14895 0.15337 0.61976 0.0
H879 H 0.16575 0.06912 0.54749 0.0
Li880 Li 0.19795 0.14563 0.89499 0.0
Li881 Li 0.15705 0.10326 0.92239 0.0
Li882 Li 0.19609 0.08271 0.89075 0.0
Li883 Li 0.15353 0.09869 0.85269 0.0
C884 C 0.22634 0.12538 0.96617 0.0
N885 N 0.27251 0.13706 0.02779 0.0
C886 C 0.21939 0.12187 1.00003 0.0
C887 C 0.25681 0.13484 0.96365 0.0
C888 C 0.24303 0.12797 0.03089 0.0
C889 C 0.27981 0.14058 0.99509 0.0
C890 C 0.13168 0.15657 0.87662 0.0
C891 C 0.07969 0.15761 0.85494 0.0
N892 N 0.08966 0.18842 0.84484 0.0
C893 C 0.14151 0.18831 0.8663 0.0
C894 C 0.1006 0.14123 0.87137 0.0
C895 C 0.11988 0.20399 0.85018 0.0
C896 C 0.22713 0.19965 0.86199 0.0
N897 N 0.2285 0.18908 0.89466 0.0
C898 C 0.2786 0.22797 0.9179 0.0
C899 C 0.25324 0.20389 0.92288 0.0
C900 C 0.2783 0.23789 0.88391 0.0
C901 C 0.25168 0.22427 0.85613 0.0
H902 H 0.20756 0.18759 0.83965 0.0
H903 H 0.25396 0.19621 0.94898 0.0
C904 C 0.12977 0.05793 0.96601 0.0
N905 N 0.13686 0.09231 0.96395 0.0
C906 C 0.11667 0.04657 0.99428 0.0
C907 C 0.11896 0.10608 0.01945 0.0
C908 C 0.13177 0.11637 0.9903 0.0
C909 C 0.11102 0.07061 0.02171 0.0
H910 H 0.13441 0.039 0.94563 0.0
H911 H 0.13784 0.14366 0.98898 0.0
C912 C 0.21757 0.11577 0.83229 0.0
N913 N 0.26055 0.12969 0.79092 0.0
C914 C 0.20871 0.1194 0.79616 0.0
C915 C 0.24821 0.11908 0.84743 0.0
C916 C 0.23078 0.12638 0.77565 0.0
C917 C 0.26964 0.12624 0.82609 0.0
C918 C 0.12757 0.03388 0.8664 0.0
C919 C 0.13204 1.00318 0.84788 0.0
C920 C 0.09812 0.03613 0.86827 0.0
C921 C 0.1068 0.97534 0.83094 0.0
C922 C 0.07348 1.00768 0.8511 0.0
N923 N 0.07829 0.97814 0.8329 0.0
C924 C 0.24076 0.05098 0.91958 0.0
C925 C 0.21901 0.03207 0.85586 0.0
C926 C 0.26004 0.02912 0.91776 0.0
N927 N 0.22087 0.05207 0.88899 0.0
C928 C 0.23784 1.00966 0.85268 0.0
C929 C 0.25876 1.00837 0.88396 0.0
H930 H 0.24157 0.06679 0.94546 0.0
H931 H 0.20315 0.03393 0.83191 0.0
C932 C 0.11891 0.11105 0.78555 0.0
N933 N 0.13012 0.0866 0.80057 0.0
C934 C 0.10699 0.10546 0.74773 0.0
C935 C 0.11789 0.04928 0.74029 0.0
C936 C 0.12975 0.05604 0.77852 0.0
C937 C 0.10665 0.07442 0.72418 0.0
H938 H 0.12035 0.13575 0.80247 0.0
H939 H 0.13991 0.03736 0.79022 0.0
O940 O 0.20332 0.11939 0.93577 0.0
O941 O 0.15249 0.14058 0.89169 0.0
O942 O 0.19632 0.10951 0.85285 0.0
O943 O 0.15194 0.06143 0.88309 0.0
H944 H 0.19599 0.11437 1.00249 0.0
H945 H 0.26265 0.13734 0.93764 0.0
H946 H 0.23793 0.12522 0.05724 0.0
H947 H 0.30347 0.14778 0.99348 0.0
H948 H 0.05555 0.14567 0.84999 0.0
H949 H 0.16555 0.20066 0.87066 0.0
H950 H 0.09272 0.11679 0.87947 0.0
H951 H 0.12712 0.22858 0.84203 0.0
H952 H 0.29846 0.23836 0.94028 0.0
H953 H 0.25039 0.23126 0.82949 0.0
H954 H 0.11097 1.01901 0.99461 0.0
H955 H 0.11487 0.12569 0.0397 0.0
H956 H 0.18509 0.11713 0.78415 0.0
H957 H 0.25536 0.11617 0.87531 0.0
H958 H 0.22419 0.12913 0.74759 0.0
H959 H 0.29348 0.12899 0.83746 0.0
H960 H 0.15472 1.00091 0.84646 0.0
H961 H 0.09438 0.0595 0.88305 0.0
H962 H 0.10984 0.95151 0.81621 0.0
H963 H 0.05054 1.00905 0.85231 0.0
H964 H 0.27563 0.02831 0.94252 0.0
H965 H 0.23655 0.99413 0.82606 0.0
H966 H 0.09878 0.12594 0.73704 0.0
H967 H 0.11843 1.02512 0.72346 0.0
Li968 Li 0.23464 0.93835 0.05109 0.0
Li969 Li 0.27145 0.91177 0.07099 0.0
Li970 Li 0.2825 0.95836 0.03552 0.0
Li971 Li 0.24842 0.89889 1.00778 0.0
C972 C 0.27525 0.9836 0.11538 0.0
N973 N 0.27419 0.02905 0.17762 0.0
C974 C 0.27494 0.97225 0.14842 0.0
C975 C 0.27542 1.01818 0.11415 0.0
C976 C 0.27401 0.99549 0.17944 0.0
C977 C 0.27512 0.04083 0.14596 0.0
C978 C 0.19891 0.87011 0.03039 0.0
C979 C 0.15956 0.81625 1.00873 0.0
N980 N 0.14095 0.83346 0.99146 0.0
C981 C 0.17961 0.88703 1.01161 0.0
C982 C 0.18878 0.83435 0.02878 0.0
C983 C 0.15026 0.86823 0.99266 0.0
C984 C 0.1952 0.98253 0.05993 0.0
N985 N 0.20591 0.95673 0.07227 0.0
C986 C 0.20218 0.97808 0.13315 0.0
C987 C 0.20643 0.95203 0.10714 0.0
C988 C 0.19687 1.00835 0.12231 0.0
C989 C 0.19078 1.0091 0.08477 0.0
H990 H 0.1922 0.98402 0.03154 0.0
H991 H 0.21442 0.93066 0.11591 0.0
C992 C 0.31326 0.905 0.13206 0.0
N993 N 0.28765 0.88989 0.10549 0.0
C994 C 0.32416 0.88552 0.15613 0.0
C995 C 0.28254 0.8356 0.12378 0.0
C996 C 0.27257 0.85593 0.10052 0.0
C997 C 0.3083 0.85063 0.15215 0.0
H998 H 0.32492 0.93204 0.1346 0.0
H999 H 0.2529 0.84466 0.07831 0.0
C1000 C 0.22884 0.96876 0.9888 0.0
N1001 N 0.19879 1.01681 0.96749 0.0
C1002 C 0.20223 0.95791 0.96119 0.0
C1003 C 0.24091 1.00405 1.00452 0.0
C1004 C 0.18737 0.98268 0.95071 0.0
C1005 C 0.225 0.02786 0.99397 0.0
C1006 C 0.31876 0.90514 0.04416 0.0
C1007 C 0.34448 0.93189 0.06268 0.0
C1008 C 0.32019 0.8705 0.04127 0.0
C1009 C 0.37136 0.92354 0.07708 0.0
C1010 C 0.34741 0.86318 0.05623 0.0
N1011 N 0.37227 0.88963 0.07358 0.0
C1012 C 0.33052 1.01966 0.04924 0.0
C1013 C 0.32255 0.97678 0.99515 0.0
C1014 C 0.35996 0.03427 0.04597 0.0
N1015 N 0.31327 0.99057 0.02483 0.0
C1016 C 0.35207 0.98973 0.99156 0.0
C1017 C 0.37169 1.01764 0.01834 0.0
H1018 H 0.32284 0.02928 0.0732 0.0
H1019 H 0.30836 0.95302 0.97694 0.0
C1020 C 0.25484 0.87948 0.94062 0.0
N1021 N 0.24424 0.86533 0.96749 0.0
C1022 C 0.27347 0.8642 0.92222 0.0
C1023 C 0.26754 0.81857 0.95726 0.0
C1024 C 0.24882 0.8347 0.97501 0.0
C1025 C 0.28121 0.8345 0.93198 0.0
H1026 H 0.25228 0.90493 0.93701 0.0
H1027 H 0.24175 0.82554 0.99827 0.0
O1028 O 0.27583 0.96103 0.08464 0.0
O1029 O 0.22856 0.88715 0.04698 0.0
O1030 O 0.24231 0.94473 1.00133 0.0
O1031 O 0.29207 0.9127 0.03005 0.0
H1032 H 0.27442 0.94551 0.14988 0.0
H1033 H 0.27551 0.02748 0.08891 0.0
H1034 H 0.27308 0.98681 0.20495 0.0
H1035 H 0.27532 0.06768 0.1454 0.0
H1036 H 0.1517 0.78847 1.00681 0.0
H1037 H 0.18714 0.9142 1.011 0.0
H1038 H 0.20359 0.82042 0.04208 0.0
H1039 H 0.13504 0.88119 0.97843 0.0
H1040 H 0.20555 0.97587 0.16166 0.0
H1041 H 0.18409 0.03078 0.07489 0.0
H1042 H 0.34401 0.89774 0.17816 0.0
H1043 H 0.27007 0.8086 0.12 0.0
H1044 H 0.19287 0.93058 0.94868 0.0
H1045 H 0.26163 1.01277 0.02559 0.0
H1046 H 0.16657 0.97473 0.92963 0.0
H1047 H 0.23359 0.05511 1.00675 0.0
H1048 H 0.3437 0.95878 0.0667 0.0
H1049 H 0.30035 0.84939 0.02847 0.0
H1050 H 0.39142 0.94403 0.09133 0.0
H1051 H 0.34871 0.83644 0.05424 0.0
H1052 H 0.37427 0.05616 0.06686 0.0
H1053 H 0.36025 0.97543 0.9705 0.0
H1054 H 0.28315 0.87663 0.90218 0.0
H1055 H 0.27264 0.79522 0.96473 0.0
Li1056 Li 0.34321 0.4483 0.14175 0.0
Li1057 Li 0.36276 0.40566 0.17263 0.0
Li1058 Li 0.40006 0.45302 0.14622 0.0
Li1059 Li 0.35755 0.40184 0.10239 0.0
C1060 C 0.36823 0.47989 0.21317 0.0
N1061 N 0.34952 0.52274 0.2639 0.0
C1062 C 0.34384 0.46625 0.22823 0.0
C1063 C 0.38331 0.51525 0.22414 0.0
C1064 C 0.33464 0.48834 0.25375 0.0
C1065 C 0.37348 0.53651 0.24979 0.0
C1066 C 0.29994 0.37532 0.13325 0.0
C1067 C 0.26276 0.31984 0.11247 0.0
N1068 N 0.24609 0.33045 0.13612 0.0
C1069 C 0.2824 0.38574 0.15721 0.0
C1070 C 0.29004 0.34219 0.11054 0.0
C1071 C 0.25526 0.36266 0.1583 0.0
C1072 C 0.28324 0.45434 0.11544 0.0
N1073 N 0.31024 0.47291 0.13826 0.0
C1074 C 0.28857 0.52142 0.15176 0.0
C1075 C 0.31327 0.50613 0.15608 0.0
C1076 C 0.26031 0.50262 0.12856 0.0
C1077 C 0.25804 0.46849 0.11045 0.0
H1078 H 0.28121 0.42836 0.10068 0.0
H1079 H 0.33494 0.52117 0.17318 0.0
C1080 C 0.36591 0.39258 0.24958 0.0
N1081 N 0.35623 0.378 0.21289 0.0
C1082 C 0.35721 0.37394 0.27654 0.0
C1083 C 0.32962 0.32514 0.2281 0.0
C1084 C 0.33875 0.34449 0.20225 0.0
C1085 C 0.33844 0.33967 0.26597 0.0
H1086 H 0.37946 0.41929 0.25814 0.0
H1087 H 0.33087 0.33284 0.17342 0.0
C1088 C 0.35802 0.47754 0.0885 0.0
N1089 N 0.33604 0.52841 0.05999 0.0
C1090 C 0.33345 0.46819 0.05826 0.0
C1091 C 0.37136 0.51262 0.10443 0.0
C1092 C 0.32267 0.49433 0.0442 0.0
C1093 C 0.35995 0.538 0.08954 0.0
C1094 C 0.40244 0.37028 0.13409 0.0
C1095 C 0.43301 0.37112 0.13561 0.0
C1096 C 0.38047 0.33844 0.12491 0.0
C1097 C 0.44117 0.33981 0.12789 0.0
C1098 C 0.38952 0.30768 0.1174 0.0
N1099 N 0.41944 0.30899 0.11902 0.0
C1100 C 0.45128 0.51566 0.16296 0.0
C1101 C 0.45894 0.46895 0.12277 0.0
C1102 C 0.4779 0.53791 0.15854 0.0
N1103 N 0.44179 0.48177 0.14491 0.0
C1104 C 0.48616 0.49045 0.11784 0.0
C1105 C 0.49573 0.52579 0.13543 0.0
H1106 H 0.43759 0.52609 0.17977 0.0
H1107 H 0.45093 0.4423 0.10761 0.0
C1108 C 0.32034 0.36794 0.03049 0.0
N1109 N 0.34893 0.3754 0.05201 0.0
C1110 C 0.31485 0.35474 0.99262 0.0
C1111 C 0.3681 0.35624 0.99956 0.0
C1112 C 0.37259 0.36953 0.03727 0.0
C1113 C 0.33898 0.34919 0.97644 0.0
H1114 H 0.30194 0.37361 0.04243 0.0
H1115 H 0.39527 0.37644 0.05455 0.0
O1116 O 0.37721 0.45865 0.1878 0.0
O1117 O 0.32643 0.39763 0.13147 0.0
O1118 O 0.36825 0.45243 0.10339 0.0
O1119 O 0.39398 0.40058 0.14097 0.0
H1120 H 0.33216 0.4389 0.22031 0.0
H1121 H 0.40213 0.52631 0.21276 0.0
H1122 H 0.31568 0.47813 0.2655 0.0
H1123 H 0.38484 0.56399 0.25836 0.0
H1124 H 0.25484 0.29408 0.09514 0.0
H1125 H 0.2894 0.41152 0.1744 0.0
H1126 H 0.3033 0.33378 0.09171 0.0
H1127 H 0.24142 0.37041 0.17669 0.0
H1128 H 0.2919 0.54804 0.16581 0.0
H1129 H 0.23688 0.45255 0.09257 0.0
H1130 H 0.36383 0.38695 0.30506 0.0
H1131 H 0.31484 0.29905 0.21825 0.0
H1132 H 0.32265 0.44107 0.04604 0.0
H1133 H 0.39005 0.5201 0.12827 0.0
H1134 H 0.30361 0.48754 0.02082 0.0
H1135 H 0.37001 0.5653 0.10159 0.0
H1136 H 0.45024 0.39568 0.14283 0.0
H1137 H 0.35669 0.33756 0.12327 0.0
H1138 H 0.46478 0.34001 0.12897 0.0
H1139 H 0.37277 0.28278 0.11018 0.0
H1140 H 0.48405 0.56498 0.17254 0.0
H1141 H 0.4986 0.47996 0.0991 0.0
H1142 H 0.29202 0.34977 0.97608 0.0
H1143 H 0.3875 0.35254 0.98854 0.0
Li1144 Li 0.90613 0.24798 0.20884 0.0
Li1145 Li 0.92524 0.20774 0.17294 0.0
Li1146 Li 0.89952 0.24785 0.14511 0.0
Li1147 Li 0.8719 0.19945 0.16694 0.0
C1148 C 0.96117 0.28122 0.20951 0.0
N1149 N 1.0065 0.326 0.26519 0.0
C1150 C 0.9804 0.26794 0.23321 0.0
C1151 C 0.96484 0.31717 0.2142 0.0
C1152 C 1.00328 0.29106 0.26114 0.0
C1153 C 0.98789 0.33939 0.2425 0.0
C1154 C 0.90183 0.16851 0.22079 0.0
C1155 C 0.88899 0.10588 0.20623 0.0
N1156 N 0.90474 0.10602 0.24025 0.0
C1157 C 0.91718 0.16811 0.25586 0.0
C1158 C 0.88749 0.13724 0.19576 0.0
C1159 C 0.91877 0.13627 0.26495 0.0
C1160 C 0.89559 0.26088 0.27692 0.0
N1161 N 0.90511 0.27686 0.25054 0.0
C1162 C 0.87903 0.32064 0.26269 0.0
C1163 C 0.89821 0.30675 0.2439 0.0
C1164 C 0.86724 0.30338 0.28829 0.0
C1165 C 0.87664 0.27414 0.29661 0.0
H1166 H 0.89972 0.23591 0.27971 0.0
H1167 H 0.9044 0.31732 0.22102 0.0
C1168 C 0.95733 0.18048 0.12997 0.0
N1169 N 0.95306 0.18212 0.16462 0.0
C1170 C 0.9614 0.15006 0.11092 0.0
C1171 C 0.95966 0.12539 0.16505 0.0
C1172 C 0.95711 0.15692 0.18347 0.0
C1173 C 0.95984 0.1208 0.12739 0.0
H1174 H 0.95382 0.20106 0.11569 0.0
H1175 H 0.95522 0.1597 0.21162 0.0
C1176 C 0.83952 0.24599 0.16584 0.0
N1177 N 0.77753 0.23919 0.14856 0.0
C1178 C 0.82432 0.24155 0.12935 0.0
C1179 C 0.82327 0.24723 0.19357 0.0
C1180 C 0.79296 0.23812 0.12116 0.0
C1181 C 0.79192 0.24366 0.18428 0.0
C1182 C 0.87834 0.17173 0.09704 0.0
C1183 C 0.85971 0.17871 0.06715 0.0
C1184 C 0.8826 0.13823 0.09569 0.0
C1185 C 0.84564 0.15205 0.03646 0.0
C1186 C 0.86817 0.11229 0.06451 0.0
N1187 N 0.85019 0.11969 0.03576 0.0
C1188 C 0.89878 0.26999 0.07855 0.0
C1189 C 0.88958 0.30672 0.12873 0.0
C1190 C 0.89062 0.29139 0.05519 0.0
N1191 N 0.89705 0.27762 0.11411 0.0
C1192 C 0.88119 0.32875 0.10649 0.0
C1193 C 0.88064 0.32033 0.06914 0.0
H1194 H 0.90495 0.24653 0.06813 0.0
H1195 H 0.88838 0.31161 0.15722 0.0
C1196 C 0.8268 0.16928 0.19703 0.0
N1197 N 0.83355 0.16925 0.16355 0.0
C1198 C 0.79749 0.15422 0.19986 0.0
C1199 C 0.78305 0.13692 0.13361 0.0
C1200 C 0.81269 0.15281 0.13206 0.0
C1201 C 0.77495 0.13874 0.16782 0.0
H1202 H 0.84373 0.18331 0.22152 0.0
H1203 H 0.8184 0.15353 0.10579 0.0
O1204 O 0.93926 0.25916 0.18136 0.0
O1205 O 0.90157 0.1996 0.21105 0.0
O1206 O 0.87 0.2481 0.17437 0.0
O1207 O 0.89354 0.19798 0.12656 0.0
H1208 H 0.97774 0.24012 0.22998 0.0
H1209 H 0.95018 0.32779 0.19592 0.0
H1210 H 1.01846 0.28122 0.27961 0.0
H1211 H 0.99109 0.36728 0.24621 0.0
H1212 H 0.8778 0.08151 0.18719 0.0
H1213 H 0.92865 0.19217 0.27539 0.0
H1214 H 0.87553 0.1371 0.16853 0.0
H1215 H 0.93127 0.13575 0.29166 0.0
H1216 H 0.87246 0.34357 0.25609 0.0
H1217 H 0.8679 0.26057 0.31642 0.0
H1218 H 0.96355 0.14906 0.08284 0.0
H1219 H 0.95936 0.10463 0.18002 0.0
H1220 H 0.83653 0.24046 0.10756 0.0
H1221 H 0.83462 0.2501 0.22186 0.0
H1222 H 0.78086 0.23449 0.093 0.0
H1223 H 0.77902 0.24423 0.20546 0.0
H1224 H 0.85607 0.20437 0.06755 0.0
H1225 H 0.89721 0.13232 0.11821 0.0
H1226 H 0.83115 0.1571 1.01317 0.0
H1227 H 0.87144 0.08632 0.06308 0.0
H1228 H 0.89011 0.28412 0.02624 0.0
H1229 H 0.8736 0.35091 0.11782 0.0
H1230 H 0.7922 0.15688 0.22674 0.0
H1231 H 0.76637 0.12476 0.10827 0.0
Li1232 Li 0.22555 0.58469 0.37756 0.0
Li1233 Li 0.18237 0.54729 0.40923 0.0
Li1234 Li 0.22165 0.50978 0.37214 0.0
Li1235 Li 0.17778 0.54101 0.33132 0.0
C1236 C 0.24735 0.56519 0.45254 0.0
N1237 N 0.28008 0.58816 0.52417 0.0
C1238 C 0.24799 0.59796 0.47199 0.0
C1239 C 0.26352 0.54419 0.46929 0.0
C1240 C 0.26466 0.60912 0.50825 0.0
C1241 C 0.27994 0.55628 0.50557 0.0
C1242 C 0.1775 0.61408 0.37594 0.0
C1243 C 0.1747 0.66365 0.34836 0.0
N1244 N 0.17474 0.68245 0.38155 0.0
C1245 C 0.17759 0.63379 0.40979 0.0
C1246 C 0.17611 0.629 0.34496 0.0
C1247 C 0.17614 0.66836 0.41205 0.0
C1248 C 0.25508 0.64514 0.34352 0.0
N1249 N 0.25092 0.63756 0.3767 0.0
C1250 C 0.27424 0.69985 0.40364 0.0
C1251 C 0.26042 0.66494 0.4065 0.0
C1252 C 0.27888 0.70822 0.36974 0.0
C1253 C 0.26891 0.67953 0.33958 0.0
H1254 H 0.24705 0.62453 0.31929 0.0
H1255 H 0.25692 0.66028 0.43293 0.0
C1256 C 0.1714 0.57136 0.49129 0.0
N1257 N 0.15726 0.55153 0.45669 0.0
C1258 C 0.15596 0.57506 0.52122 0.0
C1259 C 0.11056 0.53841 0.48165 0.0
C1260 C 0.12681 0.53522 0.45246 0.0
C1261 C 0.12459 0.55875 0.51749 0.0
H1262 H 0.19514 0.58496 0.49644 0.0
H1263 H 0.11436 0.51929 0.42612 0.0
C1264 C 0.23914 0.54188 0.3079 0.0
N1265 N 0.27153 0.53604 0.25372 0.0
C1266 C 0.22573 0.5185 0.27456 0.0
C1267 C 0.2691 0.5619 0.31402 0.0
C1268 C 0.24245 0.51607 0.24739 0.0
C1269 C 0.28509 0.55866 0.2862 0.0
C1270 C 0.14508 0.47921 0.35276 0.0
C1271 C 0.14241 0.4442 0.33855 0.0
C1272 C 0.11891 0.49106 0.35323 0.0
C1273 C 0.11344 0.42146 0.32519 0.0
C1274 C 0.09036 0.46751 0.33979 0.0
N1275 N 0.08822 0.43347 0.32616 0.0
C1276 C 0.27836 0.46977 0.38539 0.0
C1277 C 0.23291 0.42958 0.3551 0.0
C1278 C 0.29439 0.44218 0.38459 0.0
N1279 N 0.24747 0.46418 0.37079 0.0
C1280 C 0.2481 0.40137 0.35385 0.0
C1281 C 0.27986 0.40629 0.36863 0.0
H1282 H 0.29144 0.49611 0.39811 0.0
H1283 H 0.20887 0.4229 0.34287 0.0
C1284 C 0.1606 0.55229 0.24916 0.0
N1285 N 0.14902 0.54285 0.27841 0.0
C1286 C 0.14165 0.55607 0.21602 0.0
C1287 C 0.09867 0.54118 0.24244 0.0
C1288 C 0.11814 0.53743 0.27469 0.0
C1289 C 0.10975 0.55077 0.21184 0.0
H1290 H 0.18492 0.55785 0.25136 0.0
H1291 H 0.10817 0.53079 0.29719 0.0
O1292 O 0.23042 0.55335 0.4175 0.0
O1293 O 0.17988 0.58066 0.37341 0.0
O1294 O 0.22325 0.54453 0.33481 0.0
O1295 O 0.1731 0.50214 0.36542 0.0
H1296 H 0.23516 0.61421 0.45946 0.0
H1297 H 0.26315 0.51872 0.45448 0.0
H1298 H 0.26519 0.63431 0.52381 0.0
H1299 H 0.2925 0.54028 0.51898 0.0
H1300 H 0.17368 0.67564 0.32464 0.0
H1301 H 0.17897 0.62256 0.43405 0.0
H1302 H 0.17645 0.61407 0.3187 0.0
H1303 H 0.17622 0.68402 0.43807 0.0
H1304 H 0.28112 0.72027 0.42809 0.0
H1305 H 0.27141 0.68357 0.31256 0.0
H1306 H 0.16888 0.59104 0.54745 0.0
H1307 H 0.08672 0.52458 0.47587 0.0
H1308 H 0.20262 0.50255 0.26972 0.0
H1309 H 0.27985 0.57973 0.33998 0.0
H1310 H 0.23232 0.4983 0.22128 0.0
H1311 H 0.30829 0.57408 0.29046 0.0
H1312 H 0.16243 0.43472 0.33774 0.0
H1313 H 0.12069 0.51829 0.36356 0.0
H1314 H 0.111 0.39426 0.31404 0.0
H1315 H 0.06992 0.47639 0.33996 0.0
H1316 H 0.31857 0.44937 0.3967 0.0
H1317 H 0.23449 0.37529 0.34086 0.0
H1318 H 0.15218 0.56378 0.19422 0.0
H1319 H 0.07456 0.53679 0.24177 0.0
Li1320 Li 0.84317 0.94826 0.64172 0.0
Li1321 Li 0.86272 0.90563 0.67262 0.0
Li1322 Li 0.90003 0.953 0.6462 0.0
Li1323 Li 0.85753 0.90181 0.60239 0.0
C1324 C 0.86815 0.97988 0.71309 0.0
N1325 N 0.84935 1.02276 0.7637 0.0
C1326 C 0.84374 0.96625 0.72812 0.0
C1327 C 0.8832 1.01525 0.72402 0.0
C1328 C 0.83449 0.98835 0.75358 0.0
C1329 C 0.87333 0.03653 0.74961 0.0
C1330 C 0.79996 0.8752 0.63322 0.0
C1331 C 0.76291 0.81962 0.61244 0.0
N1332 N 0.7462 0.83014 0.63609 0.0
C1333 C 0.78238 0.88552 0.65718 0.0
C1334 C 0.79013 0.84206 0.61051 0.0
C1335 C 0.75529 0.86235 0.65828 0.0
C1336 C 0.78316 0.95426 0.61553 0.0
N1337 N 0.81021 0.97288 0.63823 0.0
C1338 C 0.78859 1.02145 0.6516 0.0
C1339 C 0.81328 1.00615 0.65592 0.0
C1340 C 0.76028 1.0026 0.62855 0.0
C1341 C 0.75796 0.96841 0.61056 0.0
H1342 H 0.78109 0.92823 0.60086 0.0
H1343 H 0.83499 1.02123 0.67291 0.0
C1344 C 0.86585 0.89259 0.74957 0.0
N1345 N 0.8562 0.87798 0.71288 0.0
C1346 C 0.85715 0.87395 0.77653 0.0
C1347 C 0.82964 0.8251 0.72811 0.0
C1348 C 0.83877 0.84445 0.70225 0.0
C1349 C 0.83842 0.83966 0.76597 0.0
H1350 H 0.87936 0.91931 0.75812 0.0
H1351 H 0.83092 0.83278 0.67342 0.0
C1352 C 0.858 0.9775 0.58848 0.0
N1353 N 0.83605 0.02839 0.55995 0.0
C1354 C 0.83338 0.96816 0.55829 0.0
C1355 C 0.8714 1.01258 0.60434 0.0
C1356 C 0.82261 0.99431 0.54423 0.0
C1357 C 0.86 0.03797 0.58945 0.0
C1358 C 0.90245 0.87029 0.63404 0.0
C1359 C 0.93302 0.87119 0.63549 0.0
C1360 C 0.88051 0.83842 0.62487 0.0
C1361 C 0.94122 0.8399 0.6277 0.0
C1362 C 0.8896 0.80769 0.61729 0.0
N1363 N 0.91952 0.80906 0.61884 0.0
C1364 C 0.9513 1.01561 0.66303 0.0
C1365 C 0.95886 0.96894 0.62268 0.0
C1366 C 0.97792 0.03785 0.65861 0.0
N1367 N 0.94176 0.98174 0.6449 0.0
C1368 C 0.9861 0.99043 0.61776 0.0
C1369 C 0.99571 1.02575 0.63542 0.0
H1370 H 0.93765 0.02602 0.6799 0.0
H1371 H 0.95082 0.94232 0.60746 0.0
C1372 C 0.82033 0.86791 0.53048 0.0
N1373 N 0.84892 0.87537 0.55201 0.0
C1374 C 0.81484 0.8547 0.49262 0.0
C1375 C 0.8681 0.85622 0.49956 0.0
C1376 C 0.87259 0.86951 0.53727 0.0
C1377 C 0.83898 0.84916 0.47644 0.0
H1378 H 0.80193 0.87358 0.54242 0.0
H1379 H 0.89527 0.87642 0.55455 0.0
O1380 O 0.87717 0.95863 0.68778 0.0
O1381 O 0.82639 0.8976 0.63145 0.0
O1382 O 0.86823 0.95239 0.60336 0.0
O1383 O 0.89395 0.90056 0.64098 0.0
H1384 H 0.83208 0.93888 0.72023 0.0
H1385 H 0.90203 0.02631 0.71266 0.0
H1386 H 0.81552 0.97815 0.76531 0.0
H1387 H 0.88466 0.06401 0.75815 0.0
H1388 H 0.75504 0.79386 0.59511 0.0
H1389 H 0.78932 0.9113 0.67438 0.0
H1390 H 0.80341 0.83373 0.59168 0.0
H1391 H 0.74143 0.87003 0.67667 0.0
H1392 H 0.79196 0.04812 0.66555 0.0
H1393 H 0.73677 0.95244 0.59278 0.0
H1394 H 0.86374 0.88697 0.80505 0.0
H1395 H 0.8149 0.79899 0.71826 0.0
H1396 H 0.82253 0.94104 0.54612 0.0
H1397 H 0.89014 1.02007 0.62814 0.0
H1398 H 0.80352 0.98752 0.5209 0.0
H1399 H 0.87011 0.06527 0.60145 0.0
H1400 H 0.95023 0.89576 0.6427 0.0
H1401 H 0.85673 0.8375 0.62329 0.0
H1402 H 0.96483 0.84015 0.62872 0.0
H1403 H 0.87287 0.78278 0.61008 0.0
H1404 H 0.98411 0.0649 0.67267 0.0
H1405 H 0.9985 0.97997 0.59896 0.0
H1406 H 0.79202 0.84973 0.47607 0.0
H1407 H 0.8875 0.85252 0.48854 0.0
Li1408 Li 0.99169 0.03394 0.36592 0.0
Li1409 Li 0.94663 0.98535 0.3208 0.0
Li1410 Li 0.98794 0.02867 0.29397 0.0
Li1411 Li 0.95111 0.04803 0.32565 0.0
C1412 C 1.01446 0.97677 0.3394 0.0
N1413 N 0.0588 0.94627 0.36775 0.0
C1414 C 1.00621 0.94344 0.34679 0.0
C1415 C 0.04511 0.99464 0.34619 0.0
C1416 C 1.02902 0.92839 0.36104 0.0
C1417 C 0.06722 0.97883 0.3608 0.0
C1418 C 0.92456 0.0265 0.37822 0.0
C1419 C 0.87064 1.01897 0.37317 0.0
N1420 N 0.87652 0.04041 0.40661 0.0
C1421 C 0.9301 0.04843 0.41248 0.0
C1422 C 0.89464 1.01162 0.35834 0.0
C1423 C 0.90549 0.05515 0.42638 0.0
C1424 C 1.01663 0.07647 0.43984 0.0
N1425 N 1.0149 0.04538 0.4178 0.0
C1426 C 0.03764 1.02585 0.47031 0.0
C1427 C 1.02518 1.02028 0.4326 0.0
C1428 C 0.03945 0.05751 0.49386 0.0
C1429 C 1.02902 0.08318 0.4779 0.0
H1430 H 1.0071 0.09566 0.42827 0.0
H1431 H 1.02274 0.99528 0.41545 0.0
C1432 C 0.89282 0.92463 0.29355 0.0
N1433 N 0.9169 0.94168 0.3219 0.0
C1434 C 0.86753 0.90106 0.29949 0.0
C1435 C 0.89353 0.90956 0.36262 0.0
C1436 C 0.91786 0.93382 0.3558 0.0
C1437 C 0.86739 0.89388 0.33461 0.0
H1438 H 0.89251 0.93024 0.26657 0.0
H1439 H 0.93683 0.94789 0.37822 0.0
C1440 C 1.00183 0.10461 0.33572 0.0
N1441 N 1.01611 0.17489 0.33496 0.0
C1442 C 0.98828 0.11662 0.30587 0.0
C1443 C 1.02269 0.12833 0.36514 0.0
C1444 C 0.99597 0.15224 0.30589 0.0
C1445 C 1.02939 0.1638 0.36441 0.0
C1446 C 0.92292 1.01393 0.24851 0.0
C1447 C 0.93432 0.03399 0.22467 0.0
C1448 C 0.89251 0.9945 0.23897 0.0
C1449 C 0.91541 0.03342 0.19125 0.0
C1450 C 0.87418 0.99502 0.20555 0.0
N1451 N 0.88598 1.01413 0.18246 0.0
C1452 C 1.00543 1.01417 0.22075 0.0
C1453 C 1.02724 0.07087 0.25624 0.0
C1454 C 1.01826 1.02369 0.19127 0.0
N1455 N 1.00987 0.03777 0.25271 0.0
C1456 C 0.03946 0.0817 0.22719 0.0
C1457 C 0.035 0.05823 0.19379 0.0
H1458 H 0.99149 0.98799 0.21771 0.0
H1459 H 0.03151 0.08942 0.28159 0.0
C1460 C 0.93532 0.10768 0.35655 0.0
N1461 N 0.92577 0.079 0.32897 0.0
C1462 C 0.91653 0.12988 0.36169 0.0
C1463 C 0.87795 0.09177 0.31094 0.0
C1464 C 0.8974 0.07028 0.30706 0.0
C1465 C 0.88758 0.12229 0.33824 0.0
H1466 H 0.95732 0.11298 0.37501 0.0
H1467 H 0.88957 0.04657 0.28677 0.0
O1468 O 0.9925 0.99203 0.32611 0.0
O1469 O 0.9483 1.02009 0.36381 0.0
O1470 O 0.99595 0.06969 0.33536 0.0
O1471 O 0.94181 1.01171 0.2799 0.0
H1472 H 0.98246 0.92941 0.34159 0.0
H1473 H 0.05167 1.02059 0.34071 0.0
H1474 H 1.02303 0.90253 0.3668 0.0
H1475 H 0.09107 0.99249 0.36667 0.0
H1476 H 0.84737 1.0078 0.35801 0.0
H1477 H 0.95311 0.06025 0.42809 0.0
H1478 H 0.89 0.99518 0.33141 0.0
H1479 H 0.90943 0.07213 0.45287 0.0
H1480 H 0.04516 1.00495 0.48093 0.0
H1481 H 1.02961 0.10783 0.49473 0.0
H1482 H 0.84808 0.88893 0.27693 0.0
H1483 H 0.89449 0.90462 0.39008 0.0
H1484 H 0.97228 0.09855 0.28277 0.0
H1485 H 0.03412 0.11942 0.38793 0.0
H1486 H 0.98598 0.16189 0.28277 0.0
H1487 H 0.04544 0.18247 0.38704 0.0
H1488 H 0.95752 0.04968 0.23161 0.0
H1489 H 0.88281 0.98013 0.25768 0.0
H1490 H 0.924 0.04849 0.17237 0.0
H1491 H 0.85058 0.98025 0.19799 0.0
H1492 H 1.01484 1.00421 0.16664 0.0
H1493 H 0.05269 0.10839 0.23118 0.0
H1494 H 0.92453 0.15247 0.38396 0.0
H1495 H 0.856 0.08489 0.29196 0.0
Li1496 Li 0.40611 0.74792 0.70888 0.0
Li1497 Li 0.42524 0.70767 0.67304 0.0
Li1498 Li 0.39947 0.74768 0.64516 0.0
Li1499 Li 0.37189 0.69933 0.66702 0.0
C1500 C 0.46113 0.78118 0.70952 0.0
N1501 N 0.50643 0.82601 0.76518 0.0
C1502 C 0.48036 0.76793 0.73325 0.0
C1503 C 0.46477 0.81712 0.71417 0.0
C1504 C 0.50323 0.79108 0.76117 0.0
C1505 C 0.48781 0.83937 0.74246 0.0
C1506 C 0.40185 0.6685 0.72094 0.0
C1507 C 0.38903 0.60587 0.70648 0.0
N1508 N 0.40481 0.60607 0.7405 0.0
C1509 C 0.41723 0.66816 0.75602 0.0
C1510 C 0.3875 0.63721 0.69596 0.0
C1511 C 0.41885 0.63634 0.76516 0.0
C1512 C 0.39558 0.7609 0.77695 0.0
N1513 N 0.40508 0.77685 0.75054 0.0
C1514 C 0.379 0.82063 0.76268 0.0
C1515 C 0.39816 0.80672 0.74388 0.0
C1516 C 0.36724 0.8034 0.78832 0.0
C1517 C 0.37665 0.77418 0.79666 0.0
H1518 H 0.39972 0.73593 0.77977 0.0
H1519 H 0.40433 0.81726 0.72097 0.0
C1520 C 0.45738 0.68046 0.63012 0.0
N1521 N 0.45308 0.68207 0.66475 0.0
C1522 C 0.46146 0.65005 0.61105 0.0
C1523 C 0.45965 0.62532 0.66513 0.0
C1524 C 0.45711 0.65685 0.68358 0.0
C1525 C 0.45987 0.62076 0.62749 0.0
H1526 H 0.45389 0.70106 0.61586 0.0
H1527 H 0.45519 0.6596 0.71171 0.0
C1528 C 0.33948 0.74585 0.66582 0.0
N1529 N 0.27748 0.73901 0.64846 0.0
C1530 C 0.32429 0.74128 0.6293 0.0
C1531 C 0.32321 0.74719 0.69353 0.0
C1532 C 0.29292 0.73783 0.62107 0.0
C1533 C 0.29187 0.7436 0.6842 0.0
C1534 C 0.37838 0.67152 0.59717 0.0
C1535 C 0.35974 0.6784 0.56721 0.0
C1536 C 0.38268 0.63805 0.59592 0.0
C1537 C 0.34573 0.65168 0.53657 0.0
C1538 C 0.36829 0.61204 0.56479 0.0
N1539 N 0.35032 0.61935 0.53597 0.0
C1540 C 0.39872 0.76965 0.57857 0.0
C1541 C 0.38949 0.80647 0.62866 0.0
C1542 C 0.39068 0.79106 0.55516 0.0
N1543 N 0.39698 0.77735 0.61411 0.0
C1544 C 0.38124 0.82852 0.60637 0.0
C1545 C 0.3809 0.82016 0.56905 0.0
H1546 H 0.40486 0.74614 0.56822 0.0
H1547 H 0.38824 0.81139 0.65713 0.0
C1548 C 0.32679 0.66928 0.69714 0.0
N1549 N 0.33355 0.66914 0.66366 0.0
C1550 C 0.29748 0.6542 0.69998 0.0
C1551 C 0.28309 0.63667 0.63375 0.0
C1552 C 0.31273 0.65257 0.63219 0.0
C1553 C 0.27497 0.6386 0.66794 0.0
H1554 H 0.3437 0.68339 0.72162 0.0
H1555 H 0.31846 0.6532 0.60591 0.0
O1556 O 0.43923 0.75908 0.68138 0.0
O1557 O 0.40157 0.69956 0.71115 0.0
O1558 O 0.36996 0.74797 0.67439 0.0
O1559 O 0.39353 0.69783 0.62665 0.0
H1560 H 0.47773 0.74011 0.73005 0.0
H1561 H 0.4501 0.82771 0.69587 0.0
H1562 H 0.51842 0.78126 0.77966 0.0
H1563 H 0.491 0.86725 0.74615 0.0
H1564 H 0.37783 0.58148 0.68748 0.0
H1565 H 0.42871 0.69224 0.77551 0.0
H1566 H 0.37552 0.63702 0.66873 0.0
H1567 H 0.43137 0.63587 0.79187 0.0
H1568 H 0.37242 0.84356 0.75607 0.0
H1569 H 0.36793 0.76063 0.8165 0.0
H1570 H 0.46362 0.64907 0.58298 0.0
H1571 H 0.45934 0.60454 0.68008 0.0
H1572 H 0.33651 0.74011 0.60752 0.0
H1573 H 0.33456 0.75016 0.72185 0.0
H1574 H 0.28084 0.7341 0.5929 0.0
H1575 H 0.27895 0.74425 0.70537 0.0
H1576 H 0.35607 0.70404 0.56753 0.0
H1577 H 0.39729 0.63221 0.61849 0.0
H1578 H 0.33124 0.65666 0.51323 0.0
H1579 H 0.37159 0.5861 0.56345 0.0
H1580 H 0.39019 0.78372 0.52623 0.0
H1581 H 0.37364 0.8507 0.61765 0.0
H1582 H 0.29217 0.65696 0.72684 0.0
H1583 H 0.26644 0.6244 0.60841 0.0
Li1584 Li 0.44664 0.4854 0.82085 0.0
Li1585 Li 0.49172 0.53398 0.86596 0.0
Li1586 Li 0.45114 0.54809 0.82572 0.0
Li1587 Li 0.48796 0.52872 0.79401 0.0
C1588 C 0.42463 0.52664 0.87832 0.0
N1589 N 0.37669 0.54079 0.90676 0.0
C1590 C 0.43025 0.54871 0.91251 0.0
C1591 C 0.39468 0.51174 0.85854 0.0
C1592 C 0.40569 0.55556 0.92644 0.0
C1593 C 0.37074 0.51921 0.8734 0.0
C1594 C 0.51446 0.47679 0.83944 0.0
C1595 C 0.5672 0.47884 0.86088 0.0
N1596 N 0.55877 0.44627 0.86779 0.0
C1597 C 0.50618 0.44345 0.84678 0.0
C1598 C 0.54511 0.49466 0.84627 0.0
C1599 C 0.52898 0.42838 0.86104 0.0
C1600 C 0.39282 0.42469 0.79357 0.0
N1601 N 0.4169 0.44173 0.82193 0.0
C1602 C 0.39353 0.40959 0.86263 0.0
C1603 C 0.41786 0.43386 0.85583 0.0
C1604 C 0.36739 0.39392 0.83462 0.0
C1605 C 0.36753 0.40112 0.7995 0.0
H1606 H 0.39251 0.43031 0.76659 0.0
H1607 H 0.43683 0.44793 0.87825 0.0
C1608 C 0.51677 0.57654 0.93985 0.0
N1609 N 0.51495 0.54541 0.91783 0.0
C1610 C 0.52915 0.58324 0.97791 0.0
C1611 C 0.53759 0.52582 0.97035 0.0
C1612 C 0.52513 0.52027 0.93263 0.0
C1613 C 0.53949 0.55752 0.99388 0.0
H1614 H 0.50731 0.59577 0.92828 0.0
H1615 H 0.52262 0.49524 0.9155 0.0
C1616 C 0.42292 0.51398 0.74858 0.0
N1617 N 0.38593 0.5141 0.68253 0.0
C1618 C 0.4343 0.53398 0.72468 0.0
C1619 C 0.3925 0.49457 0.73909 0.0
C1620 C 0.41536 0.53337 0.69126 0.0
C1621 C 0.37415 0.49505 0.70567 0.0
C1622 C 0.50187 0.60465 0.8357 0.0
C1623 C 0.48831 0.61661 0.80582 0.0
C1624 C 0.52277 0.6284 0.86507 0.0
C1625 C 0.49603 0.65222 0.80577 0.0
C1626 C 0.52949 0.66385 0.86427 0.0
N1627 N 0.5162 0.6749 0.83479 0.0
C1628 C 0.43538 0.60778 0.85661 0.0
C1629 C 0.39742 0.57033 0.8072 0.0
C1630 C 0.41659 0.62997 0.86177 0.0
N1631 N 0.42582 0.57907 0.82906 0.0
C1632 C 0.37797 0.59181 0.81109 0.0
C1633 C 0.38762 0.62236 0.83836 0.0
H1634 H 0.4574 0.6131 0.87503 0.0
H1635 H 0.38957 0.5466 0.78694 0.0
C1636 C 0.50542 0.51421 0.72078 0.0
N1637 N 0.50989 0.53782 0.75275 0.0
C1638 C 0.51825 0.52372 0.69129 0.0
C1639 C 0.5395 0.58172 0.72723 0.0
C1640 C 0.52729 0.5709 0.75628 0.0
C1641 C 0.53501 0.55826 0.69381 0.0
H1642 H 0.49146 0.48804 0.71773 0.0
H1643 H 0.53158 0.58945 0.78164 0.0
O1644 O 0.44833 0.52013 0.86388 0.0
O1645 O 0.49251 0.49208 0.82614 0.0
O1646 O 0.44183 0.51178 0.77996 0.0
O1647 O 0.49598 0.56974 0.83541 0.0
H1648 H 0.45328 0.56057 0.92804 0.0
H1649 H 0.38999 0.49519 0.83167 0.0
H1650 H 0.40968 0.57266 0.95286 0.0
H1651 H 0.34745 0.50802 0.8583 0.0
H1652 H 0.59105 0.49249 0.86678 0.0
H1653 H 0.48243 0.42943 0.84155 0.0
H1654 H 0.55168 0.52062 0.84081 0.0
H1655 H 0.52298 0.40251 0.86677 0.0
H1656 H 0.39449 0.40464 0.89009 0.0
H1657 H 0.34808 0.38899 0.77694 0.0
H1658 H 0.52982 0.60793 0.99474 0.0
H1659 H 0.54503 0.50489 0.98097 0.0
H1660 H 0.45751 0.54964 0.73157 0.0
H1661 H 0.38282 0.48025 0.75784 0.0
H1662 H 0.42394 0.54839 0.67234 0.0
H1663 H 0.35054 0.4803 0.69816 0.0
H1664 H 0.47229 0.59852 0.78277 0.0
H1665 H 0.53421 0.61952 0.88788 0.0
H1666 H 0.48603 0.66183 0.78263 0.0
H1667 H 0.54557 0.68254 0.88686 0.0
H1668 H 0.4246 0.65258 0.88402 0.0
H1669 H 0.356 0.5849 0.79215 0.0
H1670 H 0.51481 0.50425 0.66665 0.0
H1671 H 0.55275 0.60841 0.73122 0.0
Li1672 Li 0.68236 0.04729 0.90922 0.0
Li1673 Li 0.72554 0.08468 0.87755 0.0
Li1674 Li 0.67777 0.041 0.8313 0.0
Li1675 Li 0.72164 1.00978 0.87213 0.0
C1676 C 0.67749 0.11408 0.87594 0.0
N1677 N 0.67475 0.18245 0.88155 0.0
C1678 C 0.6776 0.13379 0.90979 0.0
C1679 C 0.67611 0.129 0.84496 0.0
C1680 C 0.67615 0.16836 0.91205 0.0
C1681 C 0.67471 0.16366 0.84836 0.0
C1682 C 0.74735 0.06518 0.95253 0.0
C1683 C 0.77995 0.05628 1.00555 0.0
N1684 N 0.78008 0.08816 0.02415 0.0
C1685 C 0.74799 0.09795 0.97198 0.0
C1686 C 0.76352 0.04419 0.96927 0.0
C1687 C 0.76466 0.10911 1.00824 0.0
C1688 C 0.67138 0.0714 0.99126 0.0
N1689 N 0.65725 0.05153 0.95668 0.0
C1690 C 0.61057 0.03838 0.98166 0.0
C1691 C 0.62682 0.03518 0.95247 0.0
C1692 C 0.62459 0.05876 0.01748 0.0
C1693 C 0.65594 0.07511 0.02119 0.0
H1694 H 0.69511 0.08503 0.9964 0.0
H1695 H 0.61437 1.01923 0.92614 0.0
C1696 C 0.75508 0.14514 0.84352 0.0
N1697 N 0.75091 0.13755 0.87669 0.0
C1698 C 0.76892 0.17952 0.83959 0.0
C1699 C 0.77422 0.19984 0.90364 0.0
C1700 C 0.7604 0.16493 0.9065 0.0
C1701 C 0.77887 0.20822 0.86975 0.0
H1702 H 0.74707 0.12452 0.81929 0.0
H1703 H 0.75688 0.16027 0.93292 0.0
C1704 C 0.64507 0.97921 0.85276 0.0
N1705 N 0.58821 0.93346 0.82618 0.0
C1706 C 0.6424 0.9442 0.83856 0.0
C1707 C 0.6189 0.99106 0.85323 0.0
C1708 C 0.61343 0.92145 0.82521 0.0
C1709 C 0.59035 0.96751 0.8398 0.0
C1710 C 0.73918 0.04193 0.80792 0.0
C1711 C 0.72579 1.01863 0.77453 0.0
C1712 C 0.76915 0.06193 0.81413 0.0
C1713 C 0.74255 1.01625 0.7474 0.0
C1714 C 0.78518 0.05874 0.78636 0.0
N1715 N 0.77165 0.03621 0.75382 0.0
C1716 C 0.66059 0.05232 0.74915 0.0
C1717 C 0.61813 0.03741 0.77466 0.0
C1718 C 0.64164 0.05609 0.71602 0.0
N1719 N 0.64901 0.04285 0.77839 0.0
C1720 C 0.59865 0.04116 0.74241 0.0
C1721 C 0.60973 0.05077 0.71183 0.0
H1722 H 0.68491 0.0579 0.75136 0.0
H1723 H 0.60815 0.03075 0.79716 0.0
C1724 C 0.77835 0.96976 0.88537 0.0
N1725 N 0.74747 0.96418 0.87078 0.0
C1726 C 0.79438 0.94218 0.88457 0.0
C1727 C 0.74809 0.90137 0.85386 0.0
C1728 C 0.7329 0.92957 0.8551 0.0
C1729 C 0.77985 0.90628 0.86862 0.0
H1730 H 0.79144 0.99611 0.89808 0.0
H1731 H 0.70886 0.92289 0.84288 0.0
O1732 O 0.67987 0.08066 0.8734 0.0
O1733 O 0.73041 0.05335 0.91749 0.0
O1734 O 0.67309 1.00214 0.86541 0.0
O1735 O 0.72324 0.04452 0.8348 0.0
H1736 H 0.67898 0.12255 0.93404 0.0
H1737 H 0.67645 0.11408 0.81869 0.0
H1738 H 0.67624 0.18402 0.93807 0.0
H1739 H 0.67369 0.17564 0.82464 0.0
H1740 H 0.79251 0.04028 0.01896 0.0
H1741 H 0.73515 0.1142 0.95946 0.0
H1742 H 0.76315 1.01872 0.95446 0.0
H1743 H 0.76519 0.1343 0.0238 0.0
H1744 H 0.58673 1.02453 0.97589 0.0
H1745 H 0.66886 0.09112 0.04742 0.0
H1746 H 0.77143 0.18356 0.81257 0.0
H1747 H 0.78108 0.22026 0.92809 0.0
H1748 H 0.66242 0.93472 0.83775 0.0
H1749 H 0.62069 1.01829 0.86355 0.0
H1750 H 0.61099 0.89425 0.81407 0.0
H1751 H 0.56991 0.97638 0.83997 0.0
H1752 H 0.70267 1.00268 0.76962 0.0
H1753 H 0.77988 0.07971 0.84014 0.0
H1754 H 0.73245 0.99854 0.72125 0.0
H1755 H 0.80839 0.07415 0.79068 0.0
H1756 H 0.65218 0.06382 0.69422 0.0
H1757 H 0.57454 0.03675 0.74174 0.0
H1758 H 0.81856 0.94936 0.89668 0.0
H1759 H 0.73448 0.87528 0.84087 0.0
Li1760 Li 0.79147 0.72923 0.11742 0.0
Li1761 Li 0.80779 0.68361 0.08202 0.0
Li1762 Li 0.7876 0.72736 0.04886 0.0
Li1763 Li 0.74972 0.6809 0.07725 0.0
C1764 C 0.85068 0.75773 0.10886 0.0
N1765 N 0.90412 0.80508 0.14832 0.0
C1766 C 0.8742 0.7462 0.12786 0.0
C1767 C 0.85445 0.79337 0.10988 0.0
C1768 C 0.90101 0.77054 0.14766 0.0
C1769 C 0.8816 0.81688 0.13001 0.0
C1770 C 0.78739 0.67815 0.15452 0.0
C1771 C 0.76984 0.67851 0.2107 0.0
N1772 N 0.79861 0.68091 0.22913 0.0
C1773 C 0.81679 0.68063 0.17391 0.0
C1774 C 0.76367 0.6769 0.17291 0.0
C1775 C 0.82199 0.6819 0.21165 0.0
C1776 C 0.77489 0.7628 0.18206 0.0
N1777 N 0.79906 0.7572 0.16811 0.0
C1778 C 0.83199 0.77856 0.22823 0.0
C1779 C 0.8273 0.76524 0.19062 0.0
C1780 C 0.80739 0.78365 0.24353 0.0
C1781 C 0.77856 0.77613 0.21969 0.0
H1782 H 0.75236 0.75522 0.16437 0.0
H1783 H 0.8461 0.75936 0.18019 0.0
C1784 C 0.86305 0.66795 0.06681 0.0
N1785 N 0.83902 0.657 0.08218 0.0
C1786 C 0.88749 0.65227 0.06985 0.0
C1787 C 0.86172 0.61327 0.10325 0.0
C1788 C 0.83786 0.62981 0.09975 0.0
C1789 C 0.88732 0.62467 0.08862 0.0
H1790 H 0.86371 0.68965 0.05303 0.0
H1791 H 0.81871 0.62147 0.11194 0.0
C1792 C 0.74455 0.76034 0.0877 0.0
N1793 N 0.72104 0.81678 0.10403 0.0
C1794 C 0.71306 0.75584 0.08149 0.0
C1795 C 0.76411 0.79347 0.10191 0.0
C1796 C 0.7016 0.78472 0.08996 0.0
C1797 C 0.75179 0.8217 0.11013 0.0
C1798 C 0.78313 0.6501 0.01491 0.0
C1799 C 0.80095 0.66046 0.99045 0.0
C1800 C 0.77701 0.6156 0.01942 0.0
C1801 C 0.81226 0.63592 0.97061 0.0
C1802 C 0.78874 0.59184 0.99906 0.0
N1803 N 0.80598 0.6024 0.97528 0.0
C1804 C 0.82462 0.76998 1.01143 0.0
C1805 C 0.77401 0.75279 0.9768 0.0
C1806 C 0.83409 0.78852 0.98531 0.0
N1807 N 0.79492 0.75285 1.00753 0.0
C1808 C 0.78276 0.77079 0.94931 0.0
C1809 C 0.81331 0.78932 0.9535 0.0
H1810 H 0.84138 0.76903 0.03482 0.0
H1811 H 0.75049 0.73873 0.97336 0.0
C1812 C 0.68969 0.66482 0.09814 0.0
N1813 N 0.70768 0.65229 0.07704 0.0
C1814 C 0.66209 0.64311 0.10176 0.0
C1815 C 0.67165 0.59606 0.06176 0.0
C1816 C 0.69866 0.61854 0.05858 0.0
C1817 C 0.653 0.60786 0.08393 0.0
H1818 H 0.69731 0.69137 0.11357 0.0
H1819 H 0.71295 0.60853 0.04224 0.0
O1820 O 0.82441 0.73423 0.08882 0.0
O1821 O 0.78201 0.67796 0.11785 0.0
O1822 O 0.75608 0.73237 0.07958 0.0
O1823 O 0.77296 0.67408 0.03559 0.0
H1824 H 0.87159 0.71889 0.12812 0.0
H1825 H 0.83676 0.8028 0.09496 0.0
H1826 H 0.91928 0.76197 0.16265 0.0
H1827 H 0.8848 0.84452 0.13096 0.0
H1828 H 0.7518 0.67818 0.2254 0.0
H1829 H 0.83549 0.68221 0.16013 0.0
H1830 H 0.74088 0.67536 0.15828 0.0
H1831 H 0.84466 0.68402 0.2271 0.0
H1832 H 0.85463 0.7837 0.24531 0.0
H1833 H 0.75879 0.77936 0.23011 0.0
H1834 H 0.90637 0.66179 0.05764 0.0
H1835 H 0.86047 0.59241 0.11833 0.0
H1836 H 0.69765 0.73039 0.06988 0.0
H1837 H 0.7885 0.79722 0.107 0.0
H1838 H 0.67725 0.78165 0.08525 0.0
H1839 H 0.76666 0.8475 0.12139 0.0
H1840 H 0.80621 0.68722 0.9871 0.0
H1841 H 0.76387 0.60744 0.03893 0.0
H1842 H 0.82616 0.64355 0.95162 0.0
H1843 H 0.78432 0.56505 1.00233 0.0
H1844 H 0.85796 0.80198 0.98999 0.0
H1845 H 0.76571 0.7708 0.92568 0.0
H1846 H 0.64897 0.65337 0.11973 0.0
H1847 H 0.66582 0.56909 0.04754 0.0
Li1848 Li 0.92279 0.54555 0.84219 0.0
Li1849 Li 0.97081 0.58788 0.88775 0.0
Li1850 Li 0.92528 0.6183 0.84549 0.0
Li1851 Li 0.96483 0.58055 0.8082 0.0
C1852 C 0.90268 0.57831 0.90358 0.0
N1853 N 0.85725 0.56407 0.94155 0.0
C1854 C 0.90732 0.5631 0.93411 0.0
C1855 C 0.875 0.58629 0.89225 0.0
C1856 C 0.88406 0.55607 0.95297 0.0
C1857 C 0.85228 0.57888 0.91182 0.0
C1858 C 0.97063 0.51497 0.84331 0.0
C1859 C 0.97142 0.46015 0.80779 0.0
N1860 N 0.97448 0.44705 0.83891 0.0
C1861 C 0.97377 0.50107 0.87494 0.0
C1862 C 0.9694 0.49448 0.80944 0.0
C1863 C 0.97567 0.46663 0.87214 0.0
C1864 C 0.88161 0.46721 0.81214 0.0
N1865 N 0.89731 0.49236 0.84274 0.0
C1866 C 0.88547 0.44769 0.87937 0.0
C1867 C 0.89929 0.48222 0.87593 0.0
C1868 C 0.86921 0.42123 0.84848 0.0
C1869 C 0.86766 0.43206 0.8144 0.0
H1870 H 0.88008 0.47392 0.7854 0.0
H1871 H 0.91246 0.50069 0.90039 0.0
C1872 C 0.99253 0.59184 0.97402 0.0
N1873 N 1.00033 0.58738 0.94035 0.0
C1874 C 1.01127 0.58741 1.00691 0.0
C1875 C 0.04695 0.57512 0.97168 0.0
C1876 C 1.02748 0.57908 0.93957 0.0
C1877 C 0.03937 0.57882 1.00655 0.0
H1878 H 0.9715 0.59884 0.97593 0.0
H1879 H 0.03425 0.57502 0.91365 0.0
C1880 C 0.89213 0.56158 0.77284 0.0
N1881 N 0.84097 0.53436 0.71697 0.0
C1882 C 0.89427 0.56119 0.73647 0.0
C1883 C 0.86403 0.54837 0.78096 0.0
C1884 C 0.86811 0.54721 0.70854 0.0
C1885 C 0.83838 0.53468 0.75226 0.0
C1886 C 0.9962 0.65299 0.85062 0.0
C1887 C 0.98812 0.68071 0.83708 0.0
C1888 C 1.02686 0.65333 0.86121 0.0
C1889 C 1.01097 0.70885 0.83478 0.0
C1890 C 0.04912 0.68182 0.85793 0.0
N1891 N 0.04076 0.70881 0.84496 0.0
C1892 C 0.91515 0.69948 0.86282 0.0
C1893 C 0.86934 0.65991 0.8327 0.0
C1894 C 0.90031 0.72809 0.86422 0.0
N1895 N 0.90021 0.66495 0.84707 0.0
C1896 C 0.85366 0.68785 0.83386 0.0
C1897 C 0.86852 0.7237 0.84979 0.0
H1898 H 0.93926 0.70575 0.87495 0.0
H1899 H 0.85593 0.6337 0.81994 0.0
C1900 C 0.97601 0.55399 0.72672 0.0
N1901 N 0.98998 0.57513 0.76075 0.0
C1902 C 0.9914 0.54967 0.69676 0.0
C1903 C 0.03655 0.58774 0.73542 0.0
C1904 C 1.02028 0.59178 0.76456 0.0
C1905 C 1.02264 0.56628 0.70002 0.0
H1906 H 0.95246 0.53966 0.72215 0.0
H1907 H 0.03258 0.60855 0.7906 0.0
O1908 O 0.92532 0.58629 0.88526 0.0
O1909 O 0.96813 0.54831 0.84539 0.0
O1910 O 0.91747 0.57497 0.80046 0.0
O1911 O 0.97394 0.62534 0.85269 0.0
H1912 H 0.9285 0.55639 0.94286 0.0
H1913 H 0.87118 0.59814 0.86864 0.0
H1914 H 0.88732 0.54423 0.97666 0.0
H1915 H 0.83072 0.58496 0.90342 0.0
H1916 H 0.9705 0.4439 0.78178 0.0
H1917 H 0.97435 0.5166 0.90126 0.0
H1918 H 0.96677 0.50495 0.78472 0.0
H1919 H 0.97797 0.45542 0.89636 0.0
H1920 H 0.88804 0.44169 0.90649 0.0
H1921 H 0.8557 0.41342 0.78933 0.0
H1922 H 1.0039 0.59125 0.0325 0.0
H1923 H 0.06813 0.56875 0.96893 0.0
H1924 H 0.91584 0.57193 0.72997 0.0
H1925 H 0.86211 0.54853 0.80907 0.0
H1926 H 0.86934 0.54669 0.68019 0.0
H1927 H 0.81643 0.52431 0.75805 0.0
H1928 H 0.96441 0.6804 0.82836 0.0
H1929 H 0.03331 0.63174 0.87151 0.0
H1930 H 1.00482 0.73066 0.8249 0.0
H1931 H 0.073 0.68252 0.86574 0.0
H1932 H 0.9142 0.75408 0.87712 0.0
H1933 H 0.82945 0.68096 0.82197 0.0
H1934 H 0.97858 0.53281 0.67094 0.0
H1935 H 0.06027 0.60192 0.74083 0.0
Li1936 Li 0.77145 0.41176 0.57095 0.0
Li1937 Li 0.73463 0.43832 0.55104 0.0
Li1938 Li 0.74844 0.39887 0.50775 0.0
Li1939 Li 0.78249 0.45834 0.53549 0.0
C1940 C 0.69892 0.37006 0.53033 0.0
N1941 N 0.64098 0.33339 0.49137 0.0
C1942 C 0.67961 0.38698 0.51154 0.0
C1943 C 0.6888 0.3343 0.52872 0.0
C1944 C 0.65027 0.36816 0.49258 0.0
C1945 C 0.65959 0.31619 0.50864 0.0
C1946 C 0.77523 0.48358 0.61535 0.0
C1947 C 0.7751 0.54081 0.64593 0.0
N1948 N 0.77418 0.52904 0.67759 0.0
C1949 C 0.77493 0.47223 0.64839 0.0
C1950 C 0.7754 0.51817 0.61411 0.0
C1951 C 0.774 0.49548 0.67941 0.0
C1952 C 0.81327 0.40501 0.63204 0.0
N1953 N 0.78764 0.3899 0.60548 0.0
C1954 C 0.7825 0.33564 0.62385 0.0
C1955 C 0.77254 0.35596 0.60057 0.0
C1956 C 0.80828 0.35067 0.6522 0.0
C1957 C 0.82417 0.38554 0.65612 0.0
H1958 H 0.82495 0.43203 0.63453 0.0
H1959 H 0.75285 0.34468 0.57839 0.0
C1960 C 0.69517 0.48248 0.55986 0.0
N1961 N 0.70589 0.45669 0.57221 0.0
C1962 C 0.69075 0.50906 0.58469 0.0
C1963 C 0.70216 0.47806 0.63309 0.0
C1964 C 0.70642 0.452 0.60709 0.0
C1965 C 0.69685 0.50832 0.62224 0.0
H1966 H 0.69216 0.48396 0.53147 0.0
H1967 H 0.71441 0.43064 0.61586 0.0
C1968 C 0.81876 0.40512 0.54415 0.0
N1969 N 0.87226 0.38959 0.57357 0.0
C1970 C 0.8445 0.43186 0.56264 0.0
C1971 C 0.82018 0.37047 0.54129 0.0
C1972 C 0.87137 0.4235 0.57703 0.0
C1973 C 0.84739 0.36314 0.55625 0.0
C1974 C 0.72883 0.46873 0.48875 0.0
C1975 C 0.70224 0.45788 0.46114 0.0
C1976 C 0.7409 0.50402 0.50449 0.0
C1977 C 0.68737 0.48264 0.45066 0.0
C1978 C 0.72499 0.52782 0.49393 0.0
N1979 N 0.69878 0.51678 0.46745 0.0
C1980 C 0.75486 0.37945 0.4406 0.0
C1981 C 0.74885 0.33467 0.47501 0.0
C1982 C 0.77349 0.36415 0.4222 0.0
N1983 N 0.74426 0.3653 0.46747 0.0
C1984 C 0.76755 0.31853 0.45725 0.0
C1985 C 0.78122 0.33445 0.43196 0.0
H1986 H 0.75231 0.4049 0.43698 0.0
H1987 H 0.74178 0.32552 0.49826 0.0
C1988 C 0.83051 0.51966 0.54924 0.0
N1989 N 0.81327 0.49057 0.52481 0.0
C1990 C 0.85995 0.53428 0.54597 0.0
C1991 C 0.85207 0.48975 0.49154 0.0
C1992 C 0.82255 0.47679 0.49513 0.0
C1993 C 0.87168 0.51766 0.51834 0.0
H1994 H 0.82283 0.52925 0.57319 0.0
H1995 H 0.80836 0.45303 0.47692 0.0
O1996 O 0.72857 0.38712 0.54693 0.0
O1997 O 0.77581 0.46101 0.5846 0.0
O1998 O 0.79208 0.4127 0.53003 0.0
O1999 O 0.74231 0.4447 0.50129 0.0
H2000 H 0.68714 0.41415 0.51094 0.0
H2001 H 0.70362 0.32037 0.54202 0.0
H2002 H 0.63505 0.38112 0.47834 0.0
H2003 H 0.65174 0.2884 0.50672 0.0
H2004 H 0.7753 0.56767 0.64537 0.0
H2005 H 0.77441 0.44549 0.64985 0.0
H2006 H 0.77548 0.52746 0.58888 0.0
H2007 H 0.77308 0.4868 0.70492 0.0
H2008 H 0.77001 0.30865 0.62012 0.0
H2009 H 0.84404 0.39776 0.67812 0.0
H2010 H 0.68406 0.53073 0.57481 0.0
H2011 H 0.70554 0.47586 0.6616 0.0
H2012 H 0.84374 0.45876 0.56662 0.0
H2013 H 0.80032 0.34937 0.52853 0.0
H2014 H 0.89145 0.44399 0.59126 0.0
H2015 H 0.84868 0.3364 0.55429 0.0
H2016 H 0.69288 0.43055 0.44862 0.0
H2017 H 0.76162 0.51273 0.52557 0.0
H2018 H 0.66657 0.4747 0.42957 0.0
H2019 H 0.73357 0.55507 0.50672 0.0
H2020 H 0.78316 0.37658 0.40214 0.0
H2021 H 0.77265 0.29519 0.46472 0.0
H2022 H 0.87426 0.55616 0.56687 0.0
H2023 H 0.86025 0.47546 0.47048 0.0
Li2024 Li 0.65706 0.60324 0.42241 0.0
Li2025 Li 0.69796 0.64561 0.39501 0.0
Li2026 Li 0.65354 0.59867 0.35271 0.0
Li2027 Li 0.6961 0.58269 0.39078 0.0
C2028 C 0.6317 0.65656 0.37664 0.0
N2029 N 0.5897 0.68843 0.34484 0.0
C2030 C 0.64154 0.68831 0.36633 0.0
C2031 C 0.60061 0.64123 0.37136 0.0
C2032 C 0.61992 0.704 0.35021 0.0
C2033 C 0.57972 0.65761 0.35493 0.0
C2034 C 0.72634 0.62537 0.46619 0.0
C2035 C 0.77981 0.64058 0.49514 0.0
N2036 N 0.7725 0.63704 0.52783 0.0
C2037 C 0.71938 0.62183 0.50005 0.0
C2038 C 0.75681 0.63484 0.46369 0.0
C2039 C 0.74302 0.62793 0.53091 0.0
C2040 C 0.62977 0.55792 0.46602 0.0
N2041 N 0.63686 0.5923 0.46396 0.0
C2042 C 0.61896 0.60607 0.51946 0.0
C2043 C 0.63178 0.61636 0.49031 0.0
C2044 C 0.61102 0.57059 0.52172 0.0
C2045 C 0.61667 0.54656 0.49429 0.0
H2046 H 0.63441 0.53898 0.44564 0.0
H2047 H 0.63785 0.64365 0.48899 0.0
C2048 C 0.72714 0.69962 0.362 0.0
N2049 N 0.72851 0.68907 0.39468 0.0
C2050 C 0.75169 0.72424 0.35614 0.0
C2051 C 0.77861 0.72796 0.41791 0.0
C2052 C 0.75325 0.70388 0.4229 0.0
C2053 C 0.7783 0.73786 0.38392 0.0
H2054 H 0.70757 0.68756 0.33967 0.0
H2055 H 0.75397 0.6962 0.449 0.0
C2056 C 0.62758 0.53385 0.36643 0.0
N2057 N 0.57831 0.4781 0.33296 0.0
C2058 C 0.63206 0.50314 0.34795 0.0
C2059 C 0.59813 0.53612 0.36827 0.0
C2060 C 0.60682 0.47529 0.33103 0.0
C2061 C 0.57349 0.50766 0.35112 0.0
C2062 C 0.71759 0.61575 0.33232 0.0
C2063 C 0.70874 0.61937 0.29618 0.0
C2064 C 0.74823 0.61907 0.34748 0.0
C2065 C 0.73082 0.62635 0.27569 0.0
C2066 C 0.76967 0.62622 0.32615 0.0
N2067 N 0.76059 0.62967 0.29097 0.0
C2068 C 0.61897 0.61106 0.28556 0.0
C2069 C 0.62973 0.55601 0.27854 0.0
C2070 C 0.60705 0.60547 0.24774 0.0
N2071 N 0.63013 0.58659 0.30058 0.0
C2072 C 0.61787 0.54926 0.24031 0.0
C2073 C 0.60668 0.57442 0.2242 0.0
H2074 H 0.62044 0.63577 0.30248 0.0
H2075 H 0.63986 0.53731 0.29025 0.0
C2076 C 0.74079 0.55097 0.4196 0.0
N2077 N 0.72089 0.55205 0.38902 0.0
C2078 C 0.76006 0.52911 0.41777 0.0
C2079 C 0.73782 0.50961 0.3527 0.0
C2080 C 0.719 0.53204 0.35588 0.0
C2081 C 0.75876 0.50833 0.38397 0.0
H2082 H 0.74162 0.5668 0.44548 0.0
H2083 H 0.70313 0.53389 0.33195 0.0
O2084 O 0.6525 0.64056 0.39171 0.0
O2085 O 0.70333 0.61938 0.4358 0.0
O2086 O 0.65195 0.56142 0.3831 0.0
O2087 O 0.69633 0.6095 0.35287 0.0
H2088 H 0.66558 0.70066 0.37071 0.0
H2089 H 0.59272 0.61678 0.37945 0.0
H2090 H 0.62717 0.7286 0.34207 0.0
H2091 H 0.55557 0.64568 0.34997 0.0
H2092 H 0.80347 0.6478 0.49354 0.0
H2093 H 0.69598 0.61432 0.5025 0.0
H2094 H 0.76267 0.63736 0.43769 0.0
H2095 H 0.73792 0.62516 0.55726 0.0
H2096 H 0.61488 0.62568 0.53971 0.0
H2097 H 0.61096 0.519 0.49462 0.0
H2098 H 0.7504 0.73123 0.3295 0.0
H2099 H 0.79847 0.73835 0.4403 0.0
H2100 H 0.65474 0.50086 0.34656 0.0
H2101 H 0.59439 0.5595 0.38302 0.0
H2102 H 0.60987 0.45145 0.31633 0.0
H2103 H 0.55055 0.50904 0.3523 0.0
H2104 H 0.68512 0.61709 0.28416 0.0
H2105 H 0.75538 0.61616 0.37536 0.0
H2106 H 0.72424 0.62909 0.24762 0.0
H2107 H 0.7935 0.62898 0.33753 0.0
H2108 H 0.59888 0.62597 0.23705 0.0
H2109 H 0.61839 0.52509 0.22349 0.0
H2110 H 0.77566 0.52831 0.44252 0.0
H2111 H 0.73651 0.49407 0.32608 0.0
Tb2112 Tb 0.04709 0.04254 0.08078 0.0
Tb2113 Tb 0.09758 0.08426 0.13331 0.0
C2114 C 0.99306 1.01677 0.04747 0.0
C2115 C 0.96928 0.02847 0.06314 0.0
C2116 C 0.97215 0.03128 0.10115 0.0
C2117 C 0.96789 0.06052 0.12219 0.0
C2118 C 0.95821 0.08611 0.10531 0.0
C2119 C 0.94851 0.07871 0.06668 0.0
C2120 C 0.95442 0.05027 0.04569 0.0
C2121 C 0.09503 0.05808 0.05044 0.0
C2122 C 0.05585 0.12574 0.09606 0.0
C2123 C 0.15055 0.1116 0.17106 0.0
C2124 C 0.17499 0.09393 0.17791 0.0
C2125 C 0.19786 0.10017 0.15812 0.0
C2126 C 0.20827 0.07249 0.14312 0.0
C2127 C 0.19666 0.03898 0.14914 0.0
C2128 C 0.18013 0.03515 0.17652 0.0
C2129 C 0.16905 0.06264 0.19079 0.0
C2130 C 0.04945 0.06981 0.16342 0.0
C2131 C 0.08701 1.00072 0.12083 0.0
O2132 O 1.00844 0.99975 0.06691 0.0
O2133 O 1.01124 0.04136 0.03724 0.0
O2134 O 0.08736 0.07793 0.07439 0.0
O2135 O 0.07556 0.02796 0.04349 0.0
O2136 O 0.03599 0.09454 0.08676 0.0
O2137 O 0.0838 0.12815 0.11379 0.0
O2138 O 0.14197 0.11281 0.13656 0.0
O2139 O 0.12718 0.10195 0.18545 0.0
O2140 O 0.0569 0.04929 0.13978 0.0
O2141 O 0.06849 0.10009 0.16887 0.0
O2142 O 0.10739 0.03156 0.13054 0.0
O2143 O 0.05942 0.99897 0.1026 0.0
H2144 H 0.98244 1.01403 0.11541 0.0
H2145 H 0.97492 0.06399 0.15159 0.0
H2146 H 0.93852 0.09611 0.05234 0.0
H2147 H 0.95129 0.04824 0.01629 0.0
H2148 H 0.20349 0.12446 0.14876 0.0
H2149 H 0.2224 0.07642 0.1234 0.0
H2150 H 0.1724 1.01001 0.18333 0.0
H2151 H 0.15231 0.05746 0.20728 0.0
Tb2152 Tb 0.3305 0.80086 0.33045 0.0
Tb2153 Tb 0.31687 0.82979 0.38712 0.0
C2154 C 0.34137 0.78396 0.26871 0.0
C2155 C 0.33231 0.7964 0.23545 0.0
C2156 C 0.30185 0.79702 0.22353 0.0
C2157 C 0.29409 0.81393 0.19558 0.0
C2158 C 0.31666 0.8307 0.17945 0.0
C2159 C 0.34698 0.82962 0.19073 0.0
C2160 C 0.35476 0.81233 0.21863 0.0
C2161 C 0.37063 0.79526 0.38895 0.0
C2162 C 0.35424 0.88359 0.35235 0.0
C2163 C 0.30902 0.85036 0.44988 0.0
C2164 C 0.3296 0.85327 0.48457 0.0
C2165 C 0.36034 0.8547 0.48506 0.0
C2166 C 0.37833 0.84701 0.51458 0.0
C2167 C 0.36558 0.8378 0.54361 0.0
C2168 C 0.33565 0.83955 0.54458 0.0
C2169 C 0.31764 0.84715 0.51494 0.0
C2170 C 0.27602 0.83477 0.32894 0.0
C2171 C 0.29376 0.74568 0.36536 0.0
O2172 O 0.31919 0.76587 0.28014 0.0
O2173 O 0.36056 0.80748 0.29518 0.0
O2174 O 0.36139 0.82214 0.38475 0.0
O2175 O 0.35683 0.77118 0.3607 0.0
O2176 O 0.34126 0.85718 0.32407 0.0
O2177 O 0.35255 0.87597 0.38466 0.0
O2178 O 0.31923 0.8713 0.4295 0.0
O2179 O 0.29786 0.81849 0.43148 0.0
O2180 O 0.28578 0.80822 0.33307 0.0
O2181 O 0.2891 0.85852 0.35757 0.0
O2182 O 0.30231 0.7734 0.3928 0.0
O2183 O 0.29963 0.75138 0.33375 0.0
H2184 H 0.28414 0.7857 0.23666 0.0
H2185 H 0.27063 0.8151 0.18756 0.0
H2186 H 0.36458 0.84256 0.17839 0.0
H2187 H 0.37841 0.81258 0.2281 0.0
H2188 H 0.36967 0.85909 0.46144 0.0
H2189 H 0.40139 0.84577 0.51358 0.0
H2190 H 0.32533 0.83198 0.56662 0.0
H2191 H 0.29381 0.84545 0.51445 0.0
Tb2192 Tb 0.6059 0.06908 0.59791 0.0
Tb2193 Tb 0.54352 0.06251 0.62099 0.0
C2194 C 0.66091 0.06973 0.59909 0.0
C2195 C 0.68423 0.0501 0.60846 0.0
C2196 C 0.70418 0.05842 0.64325 0.0
C2197 C 0.72852 0.04281 0.65003 0.0
C2198 C 0.73371 1.01859 0.62215 0.0
C2199 C 0.7134 1.01007 0.58757 0.0
C2200 C 0.68912 1.02551 0.58088 0.0
C2201 C 0.56236 0.07543 0.54056 0.0
C2202 C 0.5619 0.99321 0.59172 0.0
C2203 C 0.48848 0.06123 0.62027 0.0
C2204 C 0.46351 0.07759 0.60805 0.0
C2205 C 0.46876 0.1134 0.60784 0.0
C2206 C 0.44415 0.12856 0.60065 0.0
C2207 C 0.41373 0.10832 0.59366 0.0
C2208 C 0.4088 0.07231 0.59278 0.0
C2209 C 0.43332 0.05725 0.59986 0.0
C2210 C 0.58704 0.05571 0.67827 0.0
C2211 C 0.58719 0.13829 0.62547 0.0
O2212 O 0.65213 0.08716 0.62574 0.0
O2213 O 0.63829 0.05465 0.57084 0.0
O2214 O 0.5602 0.07065 0.5728 0.0
O2215 O 0.59074 0.07668 0.54083 0.0
O2216 O 0.58961 1.0126 0.59334 0.0
O2217 O 0.53943 1.00729 0.59838 0.0
O2218 O 0.49702 0.0414 0.59528 0.0
O2219 O 0.51151 0.0802 0.64644 0.0
O2220 O 0.58921 0.06101 0.64619 0.0
O2221 O 0.55858 0.05416 0.67782 0.0
O2222 O 0.55942 0.1188 0.62346 0.0
O2223 O 0.60997 0.12432 0.62002 0.0
H2224 H 0.70144 0.07757 0.66507 0.0
H2225 H 0.74333 0.0499 0.67714 0.0
H2226 H 0.71672 0.99223 0.56502 0.0
H2227 H 0.6747 1.0189 0.55353 0.0
H2228 H 0.49181 0.12982 0.61424 0.0
H2229 H 0.44903 0.15639 0.60188 0.0
H2230 H 0.38588 0.05565 0.5869 0.0
H2231 H 0.42863 0.02963 0.59993 0.0
Tb2232 Tb 0.29274 0.3266 0.8543 0.0
Tb2233 Tb 0.35308 0.30609 0.86557 0.0
C2234 C 0.23891 0.32983 0.85539 0.0
C2235 C 0.21544 0.32533 0.87774 0.0
C2236 C 0.20873 0.29634 0.89426 0.0
C2237 C 0.18385 0.29083 0.91126 0.0
C2238 C 0.16497 0.31408 0.91207 0.0
C2239 C 0.17227 0.3433 0.89593 0.0
C2240 C 0.19713 0.34882 0.87915 0.0
C2241 C 0.33993 0.3712 0.84223 0.0
C2242 C 0.33407 0.33734 0.93583 0.0
C2243 C 0.40697 0.30272 0.86531 0.0
C2244 C 0.4309 0.3064 0.84373 0.0
C2245 C 0.43431 0.33058 0.82065 0.0
C2246 C 0.4593 0.33557 0.80376 0.0
C2247 C 0.48157 0.31671 0.80979 0.0
C2248 C 0.47771 0.29254 0.83294 0.0
C2249 C 0.45271 0.28739 0.84941 0.0
C2250 C 0.30576 0.26136 0.87723 0.0
C2251 C 0.31185 0.29538 0.78406 0.0
O2252 O 0.24622 0.30175 0.84142 0.0
O2253 O 0.26254 0.35699 0.86657 0.0
O2254 O 0.34004 0.35346 0.86681 0.0
O2255 O 0.31187 0.36676 0.82508 0.0
O2256 O 0.30673 0.33338 0.91462 0.0
O2257 O 0.3572 0.3314 0.92195 0.0
O2258 O 0.39956 0.33114 0.87795 0.0
O2259 O 0.38337 0.27554 0.85428 0.0
O2260 O 0.30585 0.27928 0.85285 0.0
O2261 O 0.33377 0.26575 0.89453 0.0
O2262 O 0.33914 0.29929 0.80537 0.0
O2263 O 0.28864 0.30133 0.79779 0.0
H2264 H 0.22234 0.27761 0.89353 0.0
H2265 H 0.1795 0.26828 0.92372 0.0
H2266 H 0.15822 0.36155 0.89513 0.0
H2267 H 0.20149 0.37106 0.86618 0.0
H2268 H 0.41793 0.34589 0.81604 0.0
H2269 H 0.461 0.35413 0.78589 0.0
H2270 H 0.49441 0.27802 0.8393 0.0
H2271 H 0.45088 0.26907 0.86758 0.0
Tb2272 Tb 0.06659 0.10191 0.61774 0.0
Tb2273 Tb 0.08162 0.03115 0.60005 0.0
C2274 C 0.0753 0.16593 0.63474 0.0
C2275 C 0.08505 0.19271 0.6153 0.0
C2276 C 0.09494 0.18383 0.58301 0.0
C2277 C 0.09528 0.20564 0.55809 0.0
C2278 C 0.0855 0.23601 0.56553 0.0
C2279 C 0.07859 0.2464 0.5995 0.0
C2280 C 0.07821 0.22456 0.62436 0.0
C2281 C 1.02141 0.05206 0.62793 0.0
C2282 C 0.05134 0.06237 0.53447 0.0
C2283 C 0.0745 0.96768 0.57953 0.0
C2284 C 0.06498 0.9372 0.59389 0.0
C2285 C 0.05073 0.93915 0.62357 0.0
C2286 C 0.04959 0.91337 0.64401 0.0
C2287 C 0.06328 0.88643 0.63496 0.0
C2288 C 0.07515 0.88304 0.60349 0.0
C2289 C 0.0759 0.90852 0.5828 0.0
C2290 C 0.12686 0.08132 0.59026 0.0
C2291 C 0.09559 0.06991 0.68346 0.0
O2292 O 0.09589 0.14974 0.64567 0.0
O2293 O 0.04859 0.14487 0.6182 0.0
O2294 O 0.04548 0.0489 0.61756 0.0
O2295 O 1.02251 0.08488 0.63252 0.0
O2296 O 0.05459 0.0924 0.55722 0.0
O2297 O 0.05837 0.03537 0.54632 0.0
O2298 O 0.05331 0.98356 0.57006 0.0
O2299 O 0.10031 0.98876 0.59904 0.0
O2300 O 0.1026 0.08408 0.60026 0.0
O2301 O 0.12601 0.04864 0.586 0.0
O2302 O 0.09237 0.03988 0.6606 0.0
O2303 O 0.08915 0.09725 0.67165 0.0
H2304 H 0.09978 0.15879 0.57566 0.0
H2305 H 0.10054 0.19731 0.53187 0.0
H2306 H 0.07137 0.27013 0.60561 0.0
H2307 H 0.07023 0.23117 0.64913 0.0
H2308 H 0.0429 0.96183 0.63268 0.0
H2309 H 0.0407 0.91617 0.66864 0.0
H2310 H 0.08586 0.86221 0.59665 0.0
H2311 H 0.08733 0.90739 0.56017 0.0
Tb2312 Tb 0.31897 0.77962 0.86377 0.0
Tb2313 Tb 0.33116 0.85655 0.85909 0.0
C2314 C 0.31014 0.71505 0.84879 0.0
C2315 C 0.33 0.69177 0.84636 0.0
C2316 C 0.36172 0.70503 0.85523 0.0
C2317 C 0.38049 0.68254 0.85228 0.0
C2318 C 0.36777 0.64634 0.84173 0.0
C2319 C 0.33588 0.63328 0.83381 0.0
C2320 C 0.31715 0.65593 0.83572 0.0
C2321 C 0.30192 0.81958 0.9136 0.0
C2322 C 0.38397 0.82895 0.90219 0.0
C2323 C 0.34002 0.92099 0.87449 0.0
C2324 C 0.31936 0.94329 0.87632 0.0
C2325 C 0.28838 0.93015 0.85931 0.0
C2326 C 0.26855 0.95136 0.86181 0.0
C2327 C 0.27957 0.98588 0.88137 0.0
C2328 C 0.31062 0.99893 0.89839 0.0
C2329 C 0.33046 0.97769 0.89567 0.0
C2330 C 0.34672 0.81675 0.80819 0.0
C2331 C 0.26622 0.80731 0.82038 0.0
O2332 O 0.30903 0.73412 0.82366 0.0
O2333 O 0.3128 0.73273 0.8819 0.0
O2334 O 0.30208 0.82201 0.88139 0.0
O2335 O 0.30933 0.79112 0.91864 0.0
O2336 O 0.36766 0.79644 0.88827 0.0
O2337 O 0.37253 0.85585 0.89767 0.0
O2338 O 0.34088 0.90179 0.8995 0.0
O2339 O 0.33832 0.90366 0.84149 0.0
O2340 O 0.34799 0.81414 0.84074 0.0
O2341 O 0.33842 0.84483 0.80356 0.0
O2342 O 0.28255 0.83968 0.83501 0.0
O2343 O 0.2776 0.78022 0.82448 0.0
H2344 H 0.37199 0.73269 0.86447 0.0
H2345 H 0.40488 0.69361 0.85797 0.0
H2346 H 0.32529 0.60555 0.82643 0.0
H2347 H 0.29264 0.64546 0.82925 0.0
H2348 H 0.27955 0.90358 0.84414 0.0
H2349 H 0.24462 0.94072 0.84883 0.0
H2350 H 0.3196 1.02563 0.91336 0.0
H2351 H 0.3544 0.98807 0.9086 0.0
Tb2352 Tb 0.54383 0.04942 0.08126 0.0
Tb2353 Tb 0.60325 0.0757 0.1357 0.0
C2354 C 0.49747 1.0208 0.03155 0.0
C2355 C 0.466 1.02283 0.02808 0.0
C2356 C 0.45453 0.02926 0.05961 0.0
C2357 C 0.42417 0.02956 0.05641 0.0
C2358 C 0.4049 1.02415 0.0216 0.0
C2359 C 0.41706 1.01983 0.99015 0.0
C2360 C 0.44743 1.01897 0.9934 0.0
C2361 C 0.5567 0.11552 0.11251 0.0
C2362 C 0.54013 0.06233 0.16752 0.0
C2363 C 0.65061 0.10879 0.18179 0.0
C2364 C 0.68231 0.11603 0.17812 0.0
C2365 C 0.69047 0.12958 0.14819 0.0
C2366 C 0.72043 0.13605 0.14443 0.0
C2367 C 0.74275 0.1285 0.17009 0.0
C2368 C 0.7344 0.11401 0.19945 0.0
C2369 C 0.70437 0.10798 0.20351 0.0
C2370 C 0.59131 1.00974 0.10392 0.0
C2371 C 0.60707 0.06218 0.04987 0.0
O2372 O 0.50752 1.00577 0.05785 0.0
O2373 O 0.51675 0.04978 0.03068 0.0
O2374 O 0.57516 0.09902 0.10266 0.0
O2375 O 0.52947 0.09552 0.10077 0.0
O2376 O 0.52514 0.04713 0.13278 0.0
O2377 O 0.57042 0.07567 0.17401 0.0
O2378 O 0.6332 0.12355 0.16174 0.0
O2379 O 0.63744 0.07615 0.18085 0.0
O2380 O 0.57229 1.02566 0.11342 0.0
O2381 O 0.61836 0.03008 0.1167 0.0
O2382 O 0.62167 0.0789 0.08424 0.0
O2383 O 0.5771 0.04714 0.04375 0.0
H2384 H 0.46876 0.03296 0.08671 0.0
H2385 H 0.41558 0.03219 0.08123 0.0
H2386 H 0.40286 1.01602 0.96301 0.0
H2387 H 0.45626 1.01468 0.96889 0.0
H2388 H 0.67382 0.13557 0.12777 0.0
H2389 H 0.72616 0.14793 0.12196 0.0
H2390 H 0.75109 0.10759 0.21943 0.0
H2391 H 0.69836 0.097 0.22639 0.0
Tb2392 Tb 0.29342 0.28976 0.33747 0.0
Tb2393 Tb 0.35531 0.34079 0.38158 0.0
C2394 C 0.23829 0.25929 0.32649 0.0
C2395 C 0.21329 0.27487 0.33361 0.0
C2396 C 0.21744 0.29999 0.36567 0.0
C2397 C 0.19469 0.31672 0.37111 0.0
C2398 C 0.16738 0.30911 0.34441 0.0
C2399 C 0.16344 0.28421 0.31214 0.0
C2400 C 0.18621 0.26731 0.3068 0.0
C2401 C 0.32417 0.31985 0.29199 0.0
C2402 C 0.2968 0.37503 0.36682 0.0
C2403 C 0.40988 0.37366 0.39288 0.0
C2404 C 0.43474 0.36065 0.38145 0.0
C2405 C 0.42855 0.3358 0.34877 0.0
C2406 C 0.45129 0.32117 0.33898 0.0
C2407 C 0.48073 0.33109 0.36159 0.0
C2408 C 0.4868 0.35535 0.39474 0.0
C2409 C 0.46385 0.37 0.40465 0.0
C2410 C 0.3252 0.31095 0.42746 0.0
C2411 C 0.35177 0.25527 0.35182 0.0
O2412 O 0.25849 0.25856 0.35533 0.0
O2413 O 0.25097 0.26961 0.30051 0.0
O2414 O 0.3312 0.32372 0.32659 0.0
O2415 O 0.29909 0.29517 0.28158 0.0
O2416 O 0.2807 0.34195 0.35081 0.0
O2417 O 0.32703 0.38088 0.38083 0.0
O2418 O 0.38869 0.37678 0.3664 0.0
O2419 O 0.39846 0.35849 0.41721 0.0
O2420 O 0.31725 0.30735 0.39289 0.0
O2421 O 0.35063 0.33503 0.43733 0.0
O2422 O 0.36811 0.28862 0.36661 0.0
O2423 O 0.32132 0.24932 0.33913 0.0
H2424 H 0.23837 0.30695 0.38655 0.0
H2425 H 0.19836 0.33515 0.39664 0.0
H2426 H 0.14281 0.27789 0.29088 0.0
H2427 H 0.18283 0.24862 0.28153 0.0
H2428 H 0.40604 0.32743 0.33084 0.0
H2429 H 0.44585 0.30212 0.31353 0.0
H2430 H 0.50937 0.36354 0.4125 0.0
H2431 H 0.46877 0.3885 0.43039 0.0
Tb2432 Tb 0.56664 0.60193 0.11776 0.0
Tb2433 Tb 0.58165 0.53115 0.10007 0.0
C2434 C 0.57538 0.66595 0.13477 0.0
C2435 C 0.58515 0.69273 0.11533 0.0
C2436 C 0.59502 0.68385 0.08303 0.0
C2437 C 0.59537 0.70567 0.05813 0.0
C2438 C 0.58561 0.73606 0.06559 0.0
C2439 C 0.57872 0.74645 0.09958 0.0
C2440 C 0.57834 0.72459 0.12443 0.0
C2441 C 0.52144 0.55209 0.12794 0.0
C2442 C 0.55138 0.56238 0.03449 0.0
C2443 C 0.5745 0.46767 0.07955 0.0
C2444 C 0.56495 0.4372 0.0939 0.0
C2445 C 0.55074 0.4392 0.12363 0.0
C2446 C 0.54959 0.41342 0.14406 0.0
C2447 C 0.56321 0.38642 0.13496 0.0
C2448 C 0.57503 0.383 0.10345 0.0
C2449 C 0.5758 0.40848 0.08277 0.0
C2450 C 0.6269 0.58131 0.09028 0.0
C2451 C 0.59562 0.56991 0.18347 0.0
O2452 O 0.59596 0.64975 0.1457 0.0
O2453 O 0.54866 0.6449 0.11822 0.0
O2454 O 0.54551 0.54892 0.11758 0.0
O2455 O 0.52255 0.58491 0.13253 0.0
O2456 O 0.55465 0.59242 0.05724 0.0
O2457 O 0.55839 0.53538 0.04634 0.0
O2458 O 0.55332 0.48358 0.07006 0.0
O2459 O 0.60031 0.48874 0.09907 0.0
O2460 O 0.60264 0.58408 0.10027 0.0
O2461 O 0.62604 0.54863 0.08602 0.0
O2462 O 0.59239 0.53987 0.16062 0.0
O2463 O 0.58919 0.59725 0.17167 0.0
H2464 H 0.59983 0.6588 0.07566 0.0
H2465 H 0.6006 0.69734 0.03189 0.0
H2466 H 0.57152 0.77019 0.10571 0.0
H2467 H 0.57038 0.73121 0.14921 0.0
H2468 H 0.54298 0.46192 0.13277 0.0
H2469 H 0.54075 0.41625 0.16872 0.0
H2470 H 0.58569 0.36213 0.09658 0.0
H2471 H 0.58719 0.40731 0.06011 0.0
Tb2472 Tb 0.81895 0.27956 0.36372 0.0
Tb2473 Tb 0.83114 0.35649 0.35904 0.0
C2474 C 0.81011 0.21499 0.34871 0.0
C2475 C 0.82997 0.19171 0.34626 0.0
C2476 C 0.86169 0.20497 0.35515 0.0
C2477 C 0.88047 0.18248 0.35219 0.0
C2478 C 0.86774 0.14628 0.34161 0.0
C2479 C 0.83585 0.13322 0.33365 0.0
C2480 C 0.81712 0.15587 0.33557 0.0
C2481 C 0.80191 0.31952 0.41356 0.0
C2482 C 0.88394 0.3289 0.40214 0.0
C2483 C 0.84 0.42093 0.37444 0.0
C2484 C 0.81934 0.44324 0.37629 0.0
C2485 C 0.78836 0.4301 0.35931 0.0
C2486 C 0.76853 0.45132 0.36182 0.0
C2487 C 0.77956 0.48584 0.38137 0.0
C2488 C 0.81061 0.49888 0.39836 0.0
C2489 C 0.83044 0.47764 0.39564 0.0
C2490 C 0.8467 0.3167 0.30814 0.0
C2491 C 0.76619 0.30726 0.32035 0.0
O2492 O 0.80901 0.23408 0.3236 0.0
O2493 O 0.81279 0.23266 0.38183 0.0
O2494 O 0.80206 0.32196 0.38135 0.0
O2495 O 0.80932 0.29105 0.4186 0.0
O2496 O 0.86764 0.29639 0.38821 0.0
O2497 O 0.8725 0.3558 0.39762 0.0
O2498 O 0.84087 0.40174 0.39945 0.0
O2499 O 0.83828 0.4036 0.34144 0.0
O2500 O 0.84797 0.31409 0.34069 0.0
O2501 O 0.8384 0.34478 0.30351 0.0
O2502 O 0.78252 0.33963 0.33498 0.0
O2503 O 0.77757 0.28017 0.32445 0.0
H2504 H 0.87197 0.23263 0.36442 0.0
H2505 H 0.90485 0.19354 0.3579 0.0
H2506 H 0.82525 0.1055 0.32623 0.0
H2507 H 0.79261 0.14541 0.32909 0.0
H2508 H 0.77951 0.40352 0.34415 0.0
H2509 H 0.74459 0.44068 0.34886 0.0
H2510 H 0.8196 0.52559 0.41332 0.0
H2511 H 0.85439 0.48802 0.40854 0.0
Tb2512 Tb 0.04382 0.54942 0.58127 0.0
Tb2513 Tb 0.10325 0.57565 0.63571 0.0
C2514 C 0.99747 0.52083 0.53155 0.0
C2515 C 0.966 0.52286 0.52807 0.0
C2516 C 0.95452 0.52929 0.5596 0.0
C2517 C 0.92417 0.52958 0.55641 0.0
C2518 C 0.9049 0.52418 0.5216 0.0
C2519 C 0.91705 0.51987 0.49015 0.0
C2520 C 0.94743 0.51901 0.4934 0.0
C2521 C 0.05672 0.61552 0.61254 0.0
C2522 C 0.04012 0.5623 0.66752 0.0
C2523 C 0.1506 0.6087 0.68182 0.0
C2524 C 0.18231 0.6159 0.67816 0.0
C2525 C 0.19046 0.62927 0.64815 0.0
C2526 C 0.22042 0.63573 0.64441 0.0
C2527 C 0.24276 0.62835 0.67019 0.0
C2528 C 0.23441 0.61401 0.69963 0.0
C2529 C 0.20438 0.60799 0.70366 0.0
C2530 C 0.09129 0.5097 0.6039 0.0
C2531 C 0.10707 0.56216 0.54988 0.0
O2532 O 1.00751 0.50578 0.55783 0.0
O2533 O 1.01675 0.54981 0.53069 0.0
O2534 O 0.07517 0.59901 0.60269 0.0
O2535 O 1.02949 0.59553 0.6008 0.0
O2536 O 1.02513 0.54712 0.63277 0.0
O2537 O 0.07042 0.57564 0.67402 0.0
O2538 O 0.13322 0.62349 0.66176 0.0
O2539 O 0.13741 0.57606 0.68087 0.0
O2540 O 0.07227 0.52562 0.6134 0.0
O2541 O 0.11834 0.53002 0.61669 0.0
O2542 O 0.12168 0.57887 0.58425 0.0
O2543 O 0.0771 0.54714 0.54375 0.0
H2544 H 0.96875 0.53298 0.58671 0.0
H2545 H 0.91558 0.5322 0.58123 0.0
H2546 H 0.90286 0.51606 0.46301 0.0
H2547 H 0.95626 0.51472 0.46889 0.0
H2548 H 0.1738 0.63516 0.62764 0.0
H2549 H 0.22615 0.6475 0.62187 0.0
H2550 H 0.25111 0.6077 0.71971 0.0
H2551 H 0.19837 0.59714 0.72662 0.0
Tb2552 Tb 0.79275 0.82657 0.3543 0.0
Tb2553 Tb 0.85309 0.80607 0.36557 0.0
C2554 C 0.73892 0.8298 0.35539 0.0
C2555 C 0.71545 0.82531 0.37774 0.0
C2556 C 0.70873 0.79632 0.39427 0.0
C2557 C 0.68386 0.79082 0.41127 0.0
C2558 C 0.66497 0.81407 0.41208 0.0
C2559 C 0.67227 0.84328 0.39593 0.0
C2560 C 0.69713 0.84879 0.37915 0.0
C2561 C 0.83993 0.87117 0.34223 0.0
C2562 C 0.83407 0.83732 0.43583 0.0
C2563 C 0.90698 0.8027 0.36531 0.0
C2564 C 0.93091 0.80639 0.34372 0.0
C2565 C 0.93433 0.83059 0.32067 0.0
C2566 C 0.95932 0.83558 0.30378 0.0
C2567 C 0.98158 0.81669 0.30978 0.0
C2568 C 0.9777 0.7925 0.3329 0.0
C2569 C 0.9527 0.78735 0.34938 0.0
C2570 C 0.80577 0.76133 0.37723 0.0
C2571 C 0.81186 0.79536 0.28406 0.0
O2572 O 0.74622 0.80172 0.34143 0.0
O2573 O 0.76254 0.85696 0.36656 0.0
O2574 O 0.84004 0.85343 0.36681 0.0
O2575 O 0.81187 0.86673 0.32508 0.0
O2576 O 0.80673 0.83335 0.41462 0.0
O2577 O 0.8572 0.83138 0.42195 0.0
O2578 O 0.89956 0.83112 0.37796 0.0
O2579 O 0.88338 0.77552 0.35429 0.0
O2580 O 0.80585 0.77925 0.35285 0.0
O2581 O 0.83377 0.76573 0.39453 0.0
O2582 O 0.83915 0.79927 0.30537 0.0
O2583 O 0.78864 0.80131 0.29779 0.0
H2584 H 0.72235 0.77759 0.39355 0.0
H2585 H 0.67951 0.76828 0.42375 0.0
H2586 H 0.65822 0.86153 0.39512 0.0
H2587 H 0.70149 0.87103 0.36617 0.0
H2588 H 0.91796 0.84592 0.31609 0.0
H2589 H 0.96103 0.85416 0.28593 0.0
H2590 H 0.99439 0.77797 0.33924 0.0
H2591 H 0.95086 0.76901 0.36753 0.0
Tb2592 Tb 0.8305 0.30087 0.83049 0.0
Tb2593 Tb 0.81681 0.32979 0.88717 0.0
C2594 C 0.84138 0.28399 0.76874 0.0
C2595 C 0.83231 0.29644 0.7355 0.0
C2596 C 0.80185 0.29713 0.72365 0.0
C2597 C 0.79409 0.31405 0.69569 0.0
C2598 C 0.81665 0.33075 0.67951 0.0
C2599 C 0.84696 0.32961 0.69073 0.0
C2600 C 0.85474 0.31232 0.71863 0.0
C2601 C 0.87062 0.29526 0.889 0.0
C2602 C 0.85424 0.38359 0.85241 0.0
C2603 C 0.80851 0.35015 0.94982 0.0
C2604 C 0.82885 0.35297 0.98466 0.0
C2605 C 0.85967 0.35484 0.98532 0.0
C2606 C 0.8777 0.3472 0.01479 0.0
C2607 C 0.86501 0.33777 0.04375 0.0
C2608 C 0.83498 0.33915 0.04468 0.0
C2609 C 0.81681 0.34645 0.01491 0.0
C2610 C 0.77603 0.33477 0.82896 0.0
C2611 C 0.79376 0.24568 0.86537 0.0
O2612 O 0.8192 0.26588 0.78017 0.0
O2613 O 0.86057 0.3075 0.79522 0.0
O2614 O 0.86136 0.32215 0.88483 0.0
O2615 O 0.85684 0.2712 0.86073 0.0
O2616 O 0.84126 0.35719 0.82412 0.0
O2617 O 0.85253 0.37598 0.88473 0.0
O2618 O 0.81895 0.37116 0.92962 0.0
O2619 O 0.79753 0.31831 0.93128 0.0
O2620 O 0.78578 0.30822 0.8331 0.0
O2621 O 0.78912 0.35854 0.85757 0.0
O2622 O 0.80233 0.27338 0.89283 0.0
O2623 O 0.79963 0.25138 0.83377 0.0
H2624 H 0.78416 0.28587 0.73682 0.0
H2625 H 0.77064 0.31527 0.68773 0.0
H2626 H 0.86454 0.3425 0.67834 0.0
H2627 H 0.87838 0.31251 0.72805 0.0
H2628 H 0.86908 0.35946 0.96179 0.0
H2629 H 0.90082 0.34623 1.0138 0.0
H2630 H 0.82475 0.33155 0.06678 0.0
H2631 H 0.7929 0.34432 1.01427 0.0
Tb2632 Tb 0.79341 0.78975 0.83747 0.0
Tb2633 Tb 0.85531 0.84078 0.88157 0.0
C2634 C 0.73828 0.75929 0.82649 0.0
C2635 C 0.71329 0.77487 0.83362 0.0
C2636 C 0.71744 0.79998 0.86569 0.0
C2637 C 0.69469 0.81672 0.87113 0.0
C2638 C 0.66739 0.80911 0.84443 0.0
C2639 C 0.66344 0.78422 0.81216 0.0
C2640 C 0.68621 0.76731 0.80682 0.0
C2641 C 0.82415 0.81983 0.79199 0.0
C2642 C 0.79679 0.87502 0.86682 0.0
C2643 C 0.90987 0.87366 0.89285 0.0
C2644 C 0.93474 0.86065 0.88144 0.0
C2645 C 0.92857 0.83579 0.84876 0.0
C2646 C 0.95131 0.82118 0.83897 0.0
C2647 C 0.98075 0.83112 0.86159 0.0
C2648 C 0.98681 0.85539 0.89473 0.0
C2649 C 0.96386 0.87002 0.90463 0.0
C2650 C 0.82521 0.81095 0.92746 0.0
C2651 C 0.85176 0.75526 0.85183 0.0
O2652 O 0.75848 0.75854 0.85533 0.0
O2653 O 0.75096 0.76961 0.80052 0.0
O2654 O 0.83119 0.82371 0.82659 0.0
O2655 O 0.79908 0.79516 0.78158 0.0
O2656 O 0.7807 0.84194 0.85081 0.0
O2657 O 0.82702 0.88087 0.88082 0.0
O2658 O 0.88868 0.87676 0.86636 0.0
O2659 O 0.89846 0.85851 0.91719 0.0
O2660 O 0.81725 0.80734 0.89289 0.0
O2661 O 0.85064 0.83504 0.93732 0.0
O2662 O 0.86811 0.78861 0.86661 0.0
O2663 O 0.82132 0.74931 0.83913 0.0
H2664 H 0.73836 0.80693 0.88657 0.0
H2665 H 0.69837 0.83514 0.89667 0.0
H2666 H 0.64281 0.77791 0.7909 0.0
H2667 H 0.68283 0.74862 0.78154 0.0
H2668 H 0.90605 0.82741 0.83083 0.0
H2669 H 0.94588 0.80212 0.81353 0.0
H2670 H 1.00938 0.86359 0.91249 0.0
H2671 H 0.96877 0.88853 0.93037 0.0
Tb2672 Tb 0.54708 0.54255 0.58079 0.0
Tb2673 Tb 0.59758 0.58426 0.63331 0.0
C2674 C 0.49306 0.51677 0.54748 0.0
C2675 C 0.46927 0.52846 0.56316 0.0
C2676 C 0.47213 0.53123 0.60116 0.0
C2677 C 0.46787 0.56047 0.62223 0.0
C2678 C 0.45822 0.58609 0.60537 0.0
C2679 C 0.44853 0.57872 0.56675 0.0
C2680 C 0.45443 0.55029 0.54573 0.0
C2681 C 0.59503 0.55808 0.55045 0.0
C2682 C 0.55585 0.62575 0.59607 0.0
C2683 C 0.65056 0.6116 0.67106 0.0
C2684 C 0.675 0.59392 0.67786 0.0
C2685 C 0.69785 0.60015 0.65803 0.0
C2686 C 0.70824 0.57246 0.64302 0.0
C2687 C 0.69665 0.53896 0.64906 0.0
C2688 C 0.68015 0.53514 0.67647 0.0
C2689 C 0.66908 0.56264 0.69076 0.0
C2690 C 0.54946 0.56983 0.66344 0.0
C2691 C 0.587 0.50072 0.62085 0.0
O2692 O 0.50844 0.49975 0.56692 0.0
O2693 O 0.51124 0.54137 0.53727 0.0
O2694 O 0.58736 0.57793 0.57439 0.0
O2695 O 0.57555 0.52795 0.54351 0.0
O2696 O 0.53599 0.59455 0.58678 0.0
O2697 O 0.5838 0.62815 0.6138 0.0
O2698 O 0.64197 0.61283 0.63656 0.0
O2699 O 0.62719 0.60193 0.68545 0.0
O2700 O 0.5569 0.5493 0.6398 0.0
O2701 O 0.5685 0.60011 0.66888 0.0
O2702 O 0.60739 0.53156 0.63054 0.0
O2703 O 0.55941 0.49898 0.60263 0.0
H2704 H 0.48241 0.51397 0.6154 0.0
H2705 H 0.47489 0.56392 0.65163 0.0
H2706 H 0.43855 0.59615 0.55242 0.0
H2707 H 0.45131 0.54829 0.51634 0.0
H2708 H 0.70346 0.62444 0.64867 0.0
H2709 H 0.72236 0.57639 0.62328 0.0
H2710 H 0.67242 0.51001 0.6833 0.0
H2711 H 0.65235 0.55746 0.70727 0.0
Tb2712 Tb 0.10591 0.56907 0.09792 0.0
Tb2713 Tb 0.04353 0.5625 0.121 0.0
C2714 C 0.16092 0.56973 0.0991 0.0
C2715 C 0.18425 0.5501 0.10845 0.0
C2716 C 0.20412 0.55832 0.14329 0.0
C2717 C 0.22846 0.54272 0.15007 0.0
C2718 C 0.23373 0.51861 0.12216 0.0
C2719 C 0.2135 0.51019 0.08753 0.0
C2720 C 0.18922 0.52563 0.08084 0.0
C2721 C 0.06237 0.57543 0.04057 0.0
C2722 C 0.06191 0.4932 0.09174 0.0
C2723 C 0.98849 0.56122 0.12028 0.0
C2724 C 0.96353 0.57759 0.10806 0.0
C2725 C 0.96878 0.6134 0.10785 0.0
C2726 C 0.94417 0.62856 0.10065 0.0
C2727 C 0.91375 0.60832 0.09366 0.0
C2728 C 0.90882 0.57232 0.09278 0.0
C2729 C 0.93334 0.55725 0.09986 0.0
C2730 C 0.08705 0.55571 0.17828 0.0
C2731 C 0.0872 0.63829 0.12548 0.0
O2732 O 0.15214 0.58716 0.12574 0.0
O2733 O 0.1383 0.55464 0.07085 0.0
O2734 O 0.06022 0.57064 0.07281 0.0
O2735 O 0.09075 0.57667 0.04083 0.0
O2736 O 0.08962 0.5126 0.09336 0.0
O2737 O 0.03944 0.50729 0.09838 0.0
O2738 O 0.99704 0.54139 0.0953 0.0
O2739 O 1.01152 0.5802 0.14645 0.0
O2740 O 0.08922 0.56101 0.1462 0.0
O2741 O 0.05859 0.55415 0.17783 0.0
O2742 O 0.05943 0.6188 0.12346 0.0
O2743 O 0.10998 0.62431 0.12003 0.0
H2744 H 0.20132 0.57739 0.16514 0.0
H2745 H 0.24321 0.54972 0.17722 0.0
H2746 H 0.21689 0.49245 0.06494 0.0
H2747 H 0.17487 0.5191 0.05345 0.0
H2748 H 0.99184 0.62981 0.11425 0.0
H2749 H 0.94905 0.65639 0.10188 0.0
H2750 H 0.8859 0.55566 0.0869 0.0
H2751 H 0.92864 0.52963 0.09993 0.0
loop_
_geom_bond_atom_site_label_1
_geom_bond_atom_site_label_2
_geom_bond_distance
_geom_bond_site_symmetry_2
_ccdc_geom_bond_type
Li0 N17 1.990 . S
Li0 O60 1.956 1_655 S
Li0 O61 1.970 . S
Li0 O62 1.961 . S
Li1 N25 1.990 . S
Li1 O60 1.970 . S
Li1 O61 1.956 1_455 S
Li1 O63 1.961 . S
Li2 N47 1.990 . S
Li2 O60 1.961 . S
Li2 O62 1.956 1_455 S
Li2 O63 1.970 . S
Li3 N53 1.990 . S
Li3 O61 1.961 1_455 S
Li3 O62 1.970 1_455 S
Li3 O63 1.956 . S
C4 C6 1.348 . S
C4 C7 1.356 . S
C4 O60 1.325 . S
N5 C8 1.314 . S
N5 C9 1.279 . S
C6 C4 1.348 . S
C6 C8 1.353 . S
C6 H64 0.930 1_455 S
C7 C4 1.356 . S
C7 C9 1.358 . S
C7 H65 0.930 . S
C8 N5 1.314 . S
C8 C6 1.353 . S
C8 H66 0.939 . S
C9 N5 1.279 . S
C9 C7 1.358 . S
C9 H67 0.930 . S
C10 C13 1.348 . S
C10 C14 1.356 . S
C10 O61 1.325 . S
C11 N12 1.279 . S
C11 C14 1.358 . S
C11 H68 0.930 . S
N12 C11 1.279 . S
N12 C15 1.314 . S
C13 C10 1.348 . S
C13 C15 1.353 . S
C13 H69 0.929 . S
C14 C10 1.356 . S
C14 C11 1.358 . S
C14 H70 0.930 . S
C15 N12 1.314 . S
C15 C13 1.353 . S
C15 H71 0.930 . S
C16 N17 1.314 . S
C16 C21 1.353 . S
C16 H22 0.930 . S
N17 Li0 1.990 . S
N17 C16 1.314 . S
N17 C19 1.279 . S
C18 C19 1.358 . S
C18 C20 1.356 . S
C18 H72 0.930 . S
C19 N17 1.279 . S
C19 C18 1.358 . S
C19 H23 0.930 . S
C20 C18 1.356 . S
C20 C21 1.348 . S
C21 C16 1.353 . S
C21 C20 1.348 . S
C21 H73 0.929 . S
H22 C16 0.930 . S
H23 C19 0.930 . S
C24 N25 1.314 . S
C24 C26 1.353 . S
C24 H30 0.930 . S
N25 Li1 1.990 . S
N25 C24 1.314 . S
N25 C28 1.279 . S
C26 C24 1.353 . S
C26 C29 1.348 . S
C26 H74 0.929 . S
C27 C28 1.358 . S
C27 C29 1.356 . S
C27 H75 0.930 1_455 S
C28 N25 1.279 . S
C28 C27 1.358 . S
C28 H31 0.930 1_455 S
C29 C26 1.348 . S
C29 C27 1.356 . S
H30 C24 0.930 . S
H31 C28 0.930 1_655 S
C32 C34 1.348 . S
C32 C35 1.356 . S
C32 O62 1.325 . S
N33 C36 1.314 . S
N33 C37 1.279 . S
C34 C32 1.348 . S
C34 C36 1.353 . S
C34 H76 0.929 1_655 S
C35 C32 1.356 . S
C35 C37 1.358 . S
C35 H77 0.930 . S
C36 N33 1.314 . S
C36 C34 1.353 . S
C36 H78 0.930 . S
C37 N33 1.279 . S
C37 C35 1.358 . S
C37 H79 0.930 . S
C38 C39 1.348 . S
C38 C40 1.356 . S
C38 O63 1.325 . S
C39 C38 1.348 . S
C39 C41 1.353 . S
C39 H80 0.929 . S
C40 C38 1.356 . S
C40 C42 1.358 . S
C40 H81 0.930 . S
C41 C39 1.353 . S
C41 N43 1.314 . S
C41 H82 0.930 . S
C42 C40 1.358 . S
C42 N43 1.279 . S
C42 H83 0.930 . S
N43 C41 1.314 . S
N43 C42 1.279 . S
C44 C46 1.353 . S
C44 N47 1.314 . S
C44 H50 0.930 . S
C45 N47 1.279 . S
C45 C48 1.358 . S
C45 H51 0.930 . S
C46 C44 1.353 . S
C46 C49 1.348 . S
C46 H84 0.929 . S
N47 Li2 1.990 . S
N47 C44 1.314 . S
N47 C45 1.279 . S
C48 C45 1.358 . S
C48 C49 1.356 . S
C48 H85 0.930 . S
C49 C46 1.348 . S
C49 C48 1.356 . S
H50 C44 0.930 . S
H51 C45 0.930 . S
C52 N53 1.314 1_655 S
C52 C54 1.353 . S
C52 H58 0.930 . S
N53 Li3 1.990 . S
N53 C52 1.314 1_455 S
N53 C56 1.279 . S
C54 C52 1.353 . S
C54 C57 1.348 1_655 S
C54 H86 0.929 . S
C55 C56 1.358 . S
C55 C57 1.356 . S
C55 H87 0.930 . S
C56 N53 1.279 . S
C56 C55 1.358 . S
C56 H59 0.930 . S
C57 C54 1.348 1_455 S
C57 C55 1.356 . S
H58 C52 0.930 . S
H59 C56 0.930 . S
O60 Li0 1.956 1_455 S
O60 Li1 1.970 . S
O60 Li2 1.961 . S
O60 C4 1.325 . S
O61 Li0 1.970 . S
O61 Li1 1.956 1_655 S
O61 Li3 1.961 1_655 S
O61 C10 1.325 . S
O62 Li0 1.961 . S
O62 Li2 1.956 1_655 S
O62 Li3 1.970 1_655 S
O62 C32 1.325 . S
O63 Li1 1.961 . S
O63 Li2 1.970 . S
O63 Li3 1.956 . S
O63 C38 1.325 . S
H64 C6 0.930 1_655 S
H65 C7 0.930 . S
H66 C8 0.939 . S
H67 C9 0.930 . S
H68 C11 0.930 . S
H69 C13 0.929 . S
H70 C14 0.930 . S
H71 C15 0.930 . S
H72 C18 0.930 . S
H73 C21 0.929 . S
H74 C26 0.929 . S
H75 C27 0.930 1_655 S
H76 C34 0.929 1_455 S
H77 C35 0.930 . S
H78 C36 0.930 . S
H79 C37 0.930 . S
H80 C39 0.929 . S
H81 C40 0.930 . S
H82 C41 0.930 . S
H83 C42 0.930 . S
H84 C46 0.929 . S
H85 C48 0.930 . S
H86 C54 0.929 . S
H87 C55 0.930 . S
Li88 N105 1.990 . S
Li88 O148 1.956 . S
Li88 O149 1.970 . S
Li88 O150 1.961 . S
Li89 N113 1.990 . S
Li89 O148 1.970 . S
Li89 O149 1.956 . S
Li89 O151 1.961 . S
Li90 N135 1.990 . S
Li90 O148 1.961 . S
Li90 O150 1.956 . S
Li90 O151 1.970 . S
Li91 N141 1.990 . S
Li91 O149 1.961 . S
Li91 O150 1.970 . S
Li91 O151 1.956 . S
C92 C94 1.348 . S
C92 C95 1.356 . S
C92 O148 1.325 . S
N93 C96 1.314 . S
N93 C97 1.279 . S
C94 C92 1.348 . S
C94 C96 1.353 . S
C94 H152 0.929 . S
C95 C92 1.356 . S
C95 C97 1.358 . S
C95 H153 0.930 . S
C96 N93 1.314 . S
C96 C94 1.353 . S
C96 H154 0.930 . S
C97 N93 1.279 . S
C97 C95 1.358 . S
C97 H155 0.930 . S
C98 C101 1.348 . S
C98 C102 1.356 . S
C98 O149 1.325 . S
C99 N100 1.279 . S
C99 C102 1.358 . S
C99 H156 0.930 . S
N100 C99 1.279 . S
N100 C103 1.314 . S
C101 C98 1.348 . S
C101 C103 1.353 . S
C101 H157 0.929 . S
C102 C98 1.356 . S
C102 C99 1.358 . S
C102 H158 0.930 . S
C103 N100 1.314 . S
C103 C101 1.353 . S
C103 H159 0.930 . S
C104 N105 1.314 . S
C104 C109 1.353 . S
C104 H110 0.930 . S
N105 Li88 1.990 . S
N105 C104 1.314 . S
N105 C107 1.279 . S
C106 C107 1.358 . S
C106 C108 1.356 . S
C106 H160 0.930 . S
C107 N105 1.279 . S
C107 C106 1.358 . S
C107 H111 0.930 . S
C108 C106 1.356 . S
C108 C109 1.348 . S
C109 C104 1.353 . S
C109 C108 1.348 . S
C109 H161 0.929 . S
H110 C104 0.930 . S
H111 C107 0.930 . S
C112 N113 1.314 . S
C112 C114 1.353 . S
C112 H118 0.930 . S
N113 Li89 1.990 . S
N113 C112 1.314 . S
N113 C116 1.279 . S
C114 C112 1.353 . S
C114 C117 1.348 . S
C114 H162 0.929 . S
C115 C116 1.358 . S
C115 C117 1.356 . S
C115 H163 0.930 . S
C116 N113 1.279 . S
C116 C115 1.358 . S
C116 H119 0.930 . S
C117 C114 1.348 . S
C117 C115 1.356 . S
H118 C112 0.930 . S
H119 C116 0.930 . S
C120 C122 1.348 1_455 S
C120 C123 1.356 . S
C120 O150 1.325 . S
N121 C124 1.314 . S
N121 C125 1.279 . S
C122 C120 1.348 1_655 S
C122 C124 1.353 . S
C122 H164 0.929 . S
C123 C120 1.356 . S
C123 C125 1.358 1_455 S
C123 H165 0.930 . S
C124 N121 1.314 . S
C124 C122 1.353 . S
C124 H166 0.930 . S
C125 N121 1.279 . S
C125 C123 1.358 1_655 S
C125 H167 0.930 . S
C126 C127 1.348 . S
C126 C128 1.356 . S
C126 O151 1.325 . S
C127 C126 1.348 . S
C127 C129 1.353 . S
C127 H168 0.929 . S
C128 C126 1.356 . S
C128 C130 1.358 . S
C128 H169 0.930 . S
C129 C127 1.353 . S
C129 N131 1.314 . S
C129 H170 0.930 . S
C130 C128 1.358 . S
C130 N131 1.279 . S
C130 H171 0.930 . S
N131 C129 1.314 . S
N131 C130 1.279 . S
C132 C134 1.353 . S
C132 N135 1.314 . S
C132 H138 0.930 . S
C133 N135 1.279 . S
C133 C136 1.358 . S
C133 H139 0.930 . S
C134 C132 1.353 . S
C134 C137 1.348 . S
C134 H172 0.929 . S
N135 Li90 1.990 . S
N135 C132 1.314 . S
N135 C133 1.279 . S
C136 C133 1.358 . S
C136 C137 1.356 . S
C136 H173 0.930 . S
C137 C134 1.348 . S
C137 C136 1.356 . S
H138 C132 0.930 . S
H139 C133 0.930 . S
C140 N141 1.314 . S
C140 C142 1.353 1_455 S
C140 H146 0.930 . S
N141 Li91 1.990 . S
N141 C140 1.314 . S
N141 C144 1.279 . S
C142 C140 1.353 1_655 S
C142 C145 1.348 . S
C142 H174 0.929 . S
C143 C144 1.358 1_655 S
C143 C145 1.356 . S
C143 H175 0.930 . S
C144 N141 1.279 . S
C144 C143 1.358 1_455 S
C144 H147 0.930 . S
C145 C142 1.348 . S
C145 C143 1.356 . S
H146 C140 0.930 . S
H147 C144 0.930 . S
O148 Li88 1.956 . S
O148 Li89 1.970 . S
O148 Li90 1.961 . S
O148 C92 1.325 . S
O149 Li88 1.970 . S
O149 Li89 1.956 . S
O149 Li91 1.961 . S
O149 C98 1.325 . S
O150 Li88 1.961 . S
O150 Li90 1.956 . S
O150 Li91 1.970 . S
O150 C120 1.325 . S
O151 Li89 1.961 . S
O151 Li90 1.970 . S
O151 Li91 1.956 . S
O151 C126 1.325 . S
H152 C94 0.929 . S
H153 C95 0.930 . S
H154 C96 0.930 . S
H155 C97 0.930 . S
H156 C99 0.930 . S
H157 C101 0.929 . S
H158 C102 0.930 . S
H159 C103 0.930 . S
H160 C106 0.930 . S
H161 C109 0.929 . S
H162 C114 0.929 . S
H163 C115 0.930 . S
H164 C122 0.929 . S
H165 C123 0.930 . S
H166 C124 0.930 . S
H167 C125 0.930 . S
H168 C127 0.929 . S
H169 C128 0.930 . S
H170 C129 0.930 . S
H171 C130 0.930 . S
H172 C134 0.929 . S
H173 C136 0.930 . S
H174 C142 0.929 . S
H175 C143 0.930 . S
Li176 N193 1.990 . S
Li176 O236 1.956 . S
Li176 O237 1.970 . S
Li176 O238 1.961 . S
Li177 N201 1.990 . S
Li177 O236 1.970 . S
Li177 O237 1.956 . S
Li177 O239 1.961 . S
Li178 N223 1.990 . S
Li178 O236 1.961 . S
Li178 O238 1.956 . S
Li178 O239 1.970 . S
Li179 N229 1.990 . S
Li179 O237 1.961 . S
Li179 O238 1.970 . S
Li179 O239 1.956 . S
C180 C182 1.348 . S
C180 C183 1.356 . S
C180 O236 1.325 . S
N181 C184 1.314 . S
N181 C185 1.279 . S
C182 C180 1.348 . S
C182 C184 1.353 . S
C182 H240 0.929 . S
C183 C180 1.356 . S
C183 C185 1.358 . S
C183 H241 0.930 . S
C184 N181 1.314 . S
C184 C182 1.353 . S
C184 H242 0.930 . S
C185 N181 1.279 . S
C185 C183 1.358 . S
C185 H243 0.930 . S
C186 C189 1.348 . S
C186 C190 1.356 1_556 S
C186 O237 1.325 . S
C187 N188 1.279 . S
C187 C190 1.358 . S
C187 H244 0.930 . S
N188 C187 1.279 . S
N188 C191 1.314 1_554 S
C189 C186 1.348 . S
C189 C191 1.353 . S
C189 H245 0.929 . S
C190 C186 1.356 1_554 S
C190 C187 1.358 . S
C190 H246 0.930 . S
C191 N188 1.314 1_556 S
C191 C189 1.353 . S
C191 H247 0.930 . S
C192 N193 1.314 . S
C192 C197 1.353 . S
C192 H198 0.930 . S
N193 Li176 1.990 . S
N193 C192 1.314 . S
N193 C195 1.279 . S
C194 C195 1.358 . S
C194 C196 1.356 . S
C194 H248 0.930 . S
C195 N193 1.279 . S
C195 C194 1.358 . S
C195 H199 0.930 . S
C196 C194 1.356 . S
C196 C197 1.348 . S
C197 C192 1.353 . S
C197 C196 1.348 . S
C197 H249 0.929 . S
H198 C192 0.930 . S
H199 C195 0.930 . S
C200 N201 1.314 1_554 S
C200 C202 1.353 . S
C200 H206 0.930 1_554 S
N201 Li177 1.990 . S
N201 C200 1.314 1_556 S
N201 C204 1.279 1_556 S
C202 C200 1.353 . S
C202 C205 1.348 . S
C202 H250 0.929 . S
C203 C204 1.358 . S
C203 C205 1.356 . S
C203 H251 0.930 . S
C204 N201 1.279 1_554 S
C204 C203 1.358 . S
C204 H207 0.930 . S
C205 C202 1.348 . S
C205 C203 1.356 . S
H206 C200 0.930 1_556 S
H207 C204 0.930 . S
C208 C210 1.348 . S
C208 C211 1.356 . S
C208 O238 1.325 . S
N209 C212 1.314 . S
N209 C213 1.279 . S
C210 C208 1.348 . S
C210 C212 1.353 . S
C210 H252 0.929 . S
C211 C208 1.356 . S
C211 C213 1.358 . S
C211 H253 0.930 . S
C212 N209 1.314 . S
C212 C210 1.353 . S
C212 H254 0.930 . S
C213 N209 1.279 . S
C213 C211 1.358 . S
C213 H255 0.930 . S
C214 C215 1.348 . S
C214 C216 1.356 1_556 S
C214 O239 1.325 . S
C215 C214 1.348 . S
C215 C217 1.353 . S
C215 H256 0.929 . S
C216 C214 1.356 1_554 S
C216 C218 1.358 . S
C216 H257 0.930 . S
C217 C215 1.353 . S
C217 N219 1.314 1_556 S
C217 H258 0.930 . S
C218 C216 1.358 . S
C218 N219 1.279 . S
C218 H259 0.930 . S
N219 C217 1.314 1_554 S
N219 C218 1.279 . S
C220 C222 1.353 . S
C220 N223 1.314 . S
C220 H226 0.930 . S
C221 N223 1.279 . S
C221 C224 1.358 . S
C221 H227 0.930 . S
C222 C220 1.353 . S
C222 C225 1.348 . S
C222 H260 0.929 . S
N223 Li178 1.990 . S
N223 C220 1.314 . S
N223 C221 1.279 . S
C224 C221 1.358 . S
C224 C225 1.356 . S
C224 H261 0.930 . S
C225 C222 1.348 . S
C225 C224 1.356 . S
H226 C220 0.930 . S
H227 C221 0.930 . S
C228 N229 1.314 . S
C228 C230 1.353 . S
C228 H234 0.930 . S
N229 Li179 1.990 . S
N229 C228 1.314 . S
N229 C232 1.288 . S
C230 C228 1.353 . S
C230 C233 1.348 1_556 S
C230 H262 0.929 . S
C231 C232 1.345 1_554 S
C231 C233 1.356 . S
C231 H263 0.930 . S
C232 N229 1.288 . S
C232 C231 1.345 1_556 S
C232 H235 0.938 1_556 S
C233 C230 1.348 1_554 S
C233 C231 1.356 . S
H234 C228 0.930 . S
H235 C232 0.938 1_554 S
O236 Li176 1.956 . S
O236 Li177 1.970 . S
O236 Li178 1.961 . S
O236 C180 1.325 . S
O237 Li176 1.970 . S
O237 Li177 1.956 . S
O237 Li179 1.961 . S
O237 C186 1.325 . S
O238 Li176 1.961 . S
O238 Li178 1.956 . S
O238 Li179 1.970 . S
O238 C208 1.325 . S
O239 Li177 1.961 . S
O239 Li178 1.970 . S
O239 Li179 1.956 . S
O239 C214 1.325 . S
H240 C182 0.929 . S
H241 C183 0.930 . S
H242 C184 0.930 . S
H243 C185 0.930 . S
H244 C187 0.930 . S
H245 C189 0.929 . S
H246 C190 0.930 . S
H247 C191 0.930 . S
H248 C194 0.930 . S
H249 C197 0.929 . S
H250 C202 0.929 . S
H251 C203 0.930 . S
H252 C210 0.929 . S
H253 C211 0.930 . S
H254 C212 0.930 . S
H255 C213 0.930 . S
H256 C215 0.929 . S
H257 C216 0.930 . S
H258 C217 0.930 . S
H259 C218 0.930 . S
H260 C222 0.929 . S
H261 C224 0.930 . S
H262 C230 0.929 . S
H263 C231 0.930 . S
Li264 N281 1.990 . S
Li264 O324 1.956 . S
Li264 O325 1.970 . S
Li264 O326 1.961 . S
Li265 N289 1.990 . S
Li265 O324 1.970 . S
Li265 O325 1.956 . S
Li265 O327 1.961 . S
Li266 N311 1.990 . S
Li266 O324 1.961 . S
Li266 O326 1.956 . S
Li266 O327 1.970 . S
Li267 N317 1.990 . S
Li267 O325 1.961 . S
Li267 O326 1.970 . S
Li267 O327 1.956 . S
C268 C270 1.348 . S
C268 C271 1.356 . S
C268 O324 1.325 . S
N269 C272 1.314 . S
N269 C273 1.279 . S
C270 C268 1.348 . S
C270 C272 1.353 . S
C270 H328 0.929 . S
C271 C268 1.356 . S
C271 C273 1.358 . S
C271 H329 0.930 . S
C272 N269 1.314 . S
C272 C270 1.353 . S
C272 H330 0.930 . S
C273 N269 1.279 . S
C273 C271 1.358 . S
C273 H331 0.930 . S
C274 C277 1.348 . S
C274 C278 1.356 . S
C274 O325 1.325 . S
C275 N276 1.279 . S
C275 C278 1.358 . S
C275 H332 0.930 . S
N276 C275 1.279 . S
N276 C279 1.314 . S
C277 C274 1.348 . S
C277 C279 1.353 . S
C277 H333 0.929 . S
C278 C274 1.356 . S
C278 C275 1.358 . S
C278 H334 0.930 . S
C279 N276 1.314 . S
C279 C277 1.353 . S
C279 H335 0.930 . S
C280 N281 1.314 . S
C280 C285 1.353 . S
C280 H286 0.930 . S
N281 Li264 1.990 . S
N281 C280 1.314 . S
N281 C283 1.279 . S
C282 C283 1.358 . S
C282 C284 1.356 . S
C282 H336 0.930 . S
C283 N281 1.279 . S
C283 C282 1.358 . S
C283 H287 0.930 . S
C284 C282 1.356 . S
C284 C285 1.348 . S
C285 C280 1.353 . S
C285 C284 1.348 . S
C285 H337 0.929 . S
H286 C280 0.930 . S
H287 C283 0.930 . S
C288 N289 1.314 . S
C288 C290 1.353 . S
C288 H294 0.930 . S
N289 Li265 1.990 . S
N289 C288 1.314 . S
N289 C292 1.279 . S
C290 C288 1.353 . S
C290 C293 1.348 . S
C290 H338 0.929 . S
C291 C292 1.358 . S
C291 C293 1.356 . S
C291 H339 0.930 . S
C292 N289 1.279 . S
C292 C291 1.358 . S
C292 H295 0.930 . S
C293 C290 1.348 . S
C293 C291 1.356 . S
H294 C288 0.930 . S
H295 C292 0.930 . S
C296 C298 1.348 . S
C296 C299 1.356 . S
C296 O326 1.325 . S
N297 C300 1.314 . S
N297 C301 1.279 . S
C298 C296 1.348 . S
C298 C300 1.353 . S
C298 H340 0.929 . S
C299 C296 1.356 . S
C299 C301 1.358 . S
C299 H341 0.930 . S
C300 N297 1.314 . S
C300 C298 1.353 . S
C300 H342 0.930 . S
C301 N297 1.279 . S
C301 C299 1.358 . S
C301 H343 0.930 . S
C302 C303 1.348 . S
C302 C304 1.356 . S
C302 O327 1.325 . S
C303 C302 1.348 . S
C303 C305 1.353 . S
C303 H344 0.929 . S
C304 C302 1.356 . S
C304 C306 1.358 . S
C304 H345 0.930 . S
C305 C303 1.353 . S
C305 N307 1.314 . S
C305 H346 0.930 . S
C306 C304 1.358 . S
C306 N307 1.279 . S
C306 H347 0.930 . S
N307 C305 1.314 . S
N307 C306 1.279 . S
C308 C310 1.353 . S
C308 N311 1.314 . S
C308 H314 0.930 . S
C309 N311 1.279 . S
C309 C312 1.358 . S
C309 H315 0.930 . S
C310 C308 1.353 . S
C310 C313 1.348 . S
C310 H348 0.929 . S
N311 Li266 1.990 . S
N311 C308 1.314 . S
N311 C309 1.279 . S
C312 C309 1.358 . S
C312 C313 1.356 . S
C312 H349 0.930 . S
C313 C310 1.348 . S
C313 C312 1.356 . S
H314 C308 0.930 . S
H315 C309 0.930 . S
C316 N317 1.314 . S
C316 C318 1.353 . S
C316 H322 0.930 . S
N317 Li267 1.990 . S
N317 C316 1.314 . S
N317 C320 1.279 . S
C318 C316 1.353 . S
C318 C321 1.348 . S
C318 H350 0.929 . S
C319 C320 1.358 . S
C319 C321 1.356 . S
C319 H351 0.930 . S
C320 N317 1.279 . S
C320 C319 1.358 . S
C320 H323 0.930 . S
C321 C318 1.348 . S
C321 C319 1.356 . S
H322 C316 0.930 . S
H323 C320 0.930 . S
O324 Li264 1.956 . S
O324 Li265 1.970 . S
O324 Li266 1.961 . S
O324 C268 1.325 . S
O325 Li264 1.970 . S
O325 Li265 1.956 . S
O325 Li267 1.961 . S
O325 C274 1.325 . S
O326 Li264 1.961 . S
O326 Li266 1.956 . S
O326 Li267 1.970 . S
O326 C296 1.325 . S
O327 Li265 1.961 . S
O327 Li266 1.970 . S
O327 Li267 1.956 . S
O327 C302 1.325 . S
H328 C270 0.929 . S
H329 C271 0.930 . S
H330 C272 0.930 . S
H331 C273 0.930 . S
H332 C275 0.930 . S
H333 C277 0.929 . S
H334 C278 0.930 . S
H335 C279 0.930 . S
H336 C282 0.930 . S
H337 C285 0.929 . S
H338 C290 0.929 . S
H339 C291 0.930 . S
H340 C298 0.929 . S
H341 C299 0.930 . S
H342 C300 0.930 . S
H343 C301 0.930 . S
H344 C303 0.929 . S
H345 C304 0.930 . S
H346 C305 0.930 . S
H347 C306 0.930 . S
H348 C310 0.929 . S
H349 C312 0.930 . S
H350 C318 0.929 . S
H351 C319 0.930 . S
Li352 N369 1.990 . S
Li352 O412 1.956 . S
Li352 O413 1.970 . S
Li352 O414 1.961 . S
Li353 N377 1.990 . S
Li353 O412 1.970 . S
Li353 O413 1.956 . S
Li353 O415 1.961 . S
Li354 N399 1.990 . S
Li354 O412 1.961 . S
Li354 O414 1.956 . S
Li354 O415 1.970 . S
Li355 N405 1.990 . S
Li355 O413 1.961 . S
Li355 O414 1.970 . S
Li355 O415 1.956 . S
C356 C358 1.348 . S
C356 C359 1.356 . S
C356 O412 1.325 . S
N357 C360 1.314 . S
N357 C361 1.279 . S
C358 C356 1.348 . S
C358 C360 1.353 . S
C358 H416 0.929 . S
C359 C356 1.356 . S
C359 C361 1.358 . S
C359 H417 0.930 . S
C360 N357 1.314 . S
C360 C358 1.353 . S
C360 H418 0.930 . S
C361 N357 1.279 . S
C361 C359 1.358 . S
C361 H419 0.930 . S
C362 C365 1.348 . S
C362 C366 1.356 . S
C362 O413 1.325 . S
C363 N364 1.279 . S
C363 C366 1.358 . S
C363 H420 0.930 . S
N364 C363 1.279 . S
N364 C367 1.314 . S
C365 C362 1.348 . S
C365 C367 1.353 . S
C365 H421 0.929 . S
C366 C362 1.356 . S
C366 C363 1.358 . S
C366 H422 0.930 . S
C367 N364 1.314 . S
C367 C365 1.353 . S
C367 H423 0.930 . S
C368 N369 1.314 . S
C368 C373 1.353 . S
C368 H374 0.930 . S
N369 Li352 1.990 . S
N369 C368 1.314 . S
N369 C371 1.279 . S
C370 C371 1.358 . S
C370 C372 1.356 . S
C370 H424 0.930 . S
C371 N369 1.279 . S
C371 C370 1.358 . S
C371 H375 0.930 . S
C372 C370 1.356 . S
C372 C373 1.348 . S
C373 C368 1.353 . S
C373 C372 1.348 . S
C373 H425 0.929 . S
H374 C368 0.930 . S
H375 C371 0.930 . S
C376 N377 1.314 . S
C376 C378 1.353 . S
C376 H382 0.930 . S
N377 Li353 1.990 . S
N377 C376 1.314 . S
N377 C380 1.279 . S
C378 C376 1.353 . S
C378 C381 1.348 . S
C378 H426 0.929 . S
C379 C380 1.358 . S
C379 C381 1.356 . S
C379 H427 0.930 . S
C380 N377 1.279 . S
C380 C379 1.358 . S
C380 H383 0.930 . S
C381 C378 1.348 . S
C381 C379 1.356 . S
H382 C376 0.930 . S
H383 C380 0.930 . S
C384 C386 1.348 1_455 S
C384 C387 1.356 . S
C384 O414 1.325 . S
N385 C388 1.314 . S
N385 C389 1.279 . S
C386 C384 1.348 1_655 S
C386 C388 1.353 . S
C386 H428 0.929 . S
C387 C384 1.356 . S
C387 C389 1.358 1_455 S
C387 H429 0.930 . S
C388 N385 1.314 . S
C388 C386 1.353 . S
C388 H430 0.930 . S
C389 N385 1.279 . S
C389 C387 1.358 1_655 S
C389 H431 0.930 . S
C390 C391 1.348 . S
C390 C392 1.356 . S
C390 O415 1.325 . S
C391 C390 1.348 . S
C391 C393 1.353 . S
C391 H432 0.929 . S
C392 C390 1.356 . S
C392 C394 1.358 . S
C392 H433 0.930 . S
C393 C391 1.353 . S
C393 N395 1.314 . S
C393 H434 0.930 . S
C394 C392 1.358 . S
C394 N395 1.279 . S
C394 H435 0.930 . S
N395 C393 1.314 . S
N395 C394 1.279 . S
C396 C398 1.353 . S
C396 N399 1.314 . S
C396 H402 0.930 . S
C397 N399 1.279 . S
C397 C400 1.358 . S
C397 H403 0.930 . S
C398 C396 1.353 . S
C398 C401 1.348 . S
C398 H436 0.929 . S
N399 Li354 1.990 . S
N399 C396 1.314 . S
N399 C397 1.279 . S
C400 C397 1.358 . S
C400 C401 1.356 . S
C400 H437 0.930 . S
C401 C398 1.348 . S
C401 C400 1.356 . S
H402 C396 0.930 . S
H403 C397 0.930 . S
C404 N405 1.314 . S
C404 C406 1.353 1_455 S
C404 H410 0.930 . S
N405 Li355 1.990 . S
N405 C404 1.314 . S
N405 C408 1.279 . S
C406 C404 1.353 1_655 S
C406 C409 1.348 . S
C406 H438 0.929 . S
C407 C408 1.358 1_655 S
C407 C409 1.356 . S
C407 H439 0.930 . S
C408 N405 1.279 . S
C408 C407 1.358 1_455 S
C408 H411 0.930 . S
C409 C406 1.348 . S
C409 C407 1.356 . S
H410 C404 0.930 . S
H411 C408 0.930 . S
O412 Li352 1.956 . S
O412 Li353 1.970 . S
O412 Li354 1.961 . S
O412 C356 1.325 . S
O413 Li352 1.970 . S
O413 Li353 1.956 . S
O413 Li355 1.961 . S
O413 C362 1.325 . S
O414 Li352 1.961 . S
O414 Li354 1.956 . S
O414 Li355 1.970 . S
O414 C384 1.325 . S
O415 Li353 1.961 . S
O415 Li354 1.970 . S
O415 Li355 1.956 . S
O415 C390 1.325 . S
H416 C358 0.929 . S
H417 C359 0.930 . S
H418 C360 0.930 . S
H419 C361 0.930 . S
H420 C363 0.930 . S
H421 C365 0.929 . S
H422 C366 0.930 . S
H423 C367 0.930 . S
H424 C370 0.930 . S
H425 C373 0.929 . S
H426 C378 0.929 . S
H427 C379 0.930 . S
H428 C386 0.929 . S
H429 C387 0.930 . S
H430 C388 0.930 . S
H431 C389 0.930 . S
H432 C391 0.929 . S
H433 C392 0.930 . S
H434 C393 0.930 . S
H435 C394 0.930 . S
H436 C398 0.929 . S
H437 C400 0.930 . S
H438 C406 0.929 . S
H439 C407 0.930 . S
Li440 N457 1.990 . S
Li440 O500 1.956 . S
Li440 O501 1.970 . S
Li440 O502 1.961 . S
Li441 N465 1.990 . S
Li441 O500 1.970 . S
Li441 O501 1.956 . S
Li441 O503 1.961 . S
Li442 N487 1.990 . S
Li442 O500 1.961 . S
Li442 O502 1.956 . S
Li442 O503 1.970 . S
Li443 N493 1.990 . S
Li443 O501 1.961 . S
Li443 O502 1.970 . S
Li443 O503 1.956 . S
C444 C446 1.348 . S
C444 C447 1.356 . S
C444 O500 1.325 . S
N445 C448 1.314 . S
N445 C449 1.279 . S
C446 C444 1.348 . S
C446 C448 1.353 . S
C446 H504 0.929 . S
C447 C444 1.356 . S
C447 C449 1.358 . S
C447 H505 0.930 . S
C448 N445 1.314 . S
C448 C446 1.353 . S
C448 H506 0.930 . S
C449 N445 1.279 . S
C449 C447 1.358 . S
C449 H507 0.930 . S
C450 C453 1.348 . S
C450 C454 1.356 . S
C450 O501 1.325 . S
C451 N452 1.279 . S
C451 C454 1.358 . S
C451 H508 0.930 . S
N452 C451 1.279 . S
N452 C455 1.314 . S
C453 C450 1.348 . S
C453 C455 1.353 . S
C453 H509 0.929 . S
C454 C450 1.356 . S
C454 C451 1.358 . S
C454 H510 0.930 . S
C455 N452 1.314 . S
C455 C453 1.353 . S
C455 H511 0.930 . S
C456 N457 1.314 . S
C456 C461 1.353 . S
C456 H462 0.930 . S
N457 Li440 1.990 . S
N457 C456 1.314 . S
N457 C459 1.279 . S
C458 C459 1.358 . S
C458 C460 1.356 . S
C458 H512 0.930 . S
C459 N457 1.279 . S
C459 C458 1.358 . S
C459 H463 0.930 . S
C460 C458 1.356 . S
C460 C461 1.348 . S
C461 C456 1.353 . S
C461 C460 1.348 . S
C461 H513 0.929 . S
H462 C456 0.930 . S
H463 C459 0.930 . S
C464 N465 1.314 . S
C464 C466 1.353 . S
C464 H470 0.930 . S
N465 Li441 1.990 . S
N465 C464 1.314 . S
N465 C468 1.279 . S
C466 C464 1.353 . S
C466 C469 1.348 . S
C466 H514 0.929 . S
C467 C468 1.358 . S
C467 C469 1.356 . S
C467 H515 0.930 . S
C468 N465 1.279 . S
C468 C467 1.358 . S
C468 H471 0.930 . S
C469 C466 1.348 . S
C469 C467 1.356 . S
H470 C464 0.930 . S
H471 C468 0.930 . S
C472 C474 1.348 . S
C472 C475 1.356 . S
C472 O502 1.325 . S
N473 C476 1.314 . S
N473 C477 1.279 . S
C474 C472 1.348 . S
C474 C476 1.353 . S
C474 H516 0.929 . S
C475 C472 1.356 . S
C475 C477 1.358 . S
C475 H517 0.930 . S
C476 N473 1.314 . S
C476 C474 1.353 . S
C476 H518 0.930 . S
C477 N473 1.279 . S
C477 C475 1.358 . S
C477 H519 0.930 . S
C478 C479 1.348 . S
C478 C480 1.356 . S
C478 O503 1.325 . S
C479 C478 1.348 . S
C479 C481 1.353 . S
C479 H520 0.929 . S
C480 C478 1.356 . S
C480 C482 1.358 . S
C480 H521 0.930 . S
C481 C479 1.353 . S
C481 N483 1.314 . S
C481 H522 0.930 . S
C482 C480 1.358 . S
C482 N483 1.279 . S
C482 H523 0.930 . S
N483 C481 1.314 . S
N483 C482 1.279 . S
C484 C486 1.353 . S
C484 N487 1.314 . S
C484 H490 0.930 . S
C485 N487 1.279 . S
C485 C488 1.358 . S
C485 H491 0.930 . S
C486 C484 1.353 . S
C486 C489 1.348 . S
C486 H524 0.929 . S
N487 Li442 1.990 . S
N487 C484 1.314 . S
N487 C485 1.279 . S
C488 C485 1.358 . S
C488 C489 1.356 . S
C488 H525 0.930 . S
C489 C486 1.348 . S
C489 C488 1.356 . S
H490 C484 0.930 . S
H491 C485 0.930 . S
C492 N493 1.314 . S
C492 C494 1.353 . S
C492 H498 0.930 . S
N493 Li443 1.990 . S
N493 C492 1.314 . S
N493 C496 1.279 . S
C494 C492 1.353 . S
C494 C497 1.348 . S
C494 H526 0.929 . S
C495 C496 1.358 . S
C495 C497 1.356 . S
C495 H527 0.930 . S
C496 N493 1.279 . S
C496 C495 1.358 . S
C496 H499 0.930 . S
C497 C494 1.348 . S
C497 C495 1.356 . S
H498 C492 0.930 . S
H499 C496 0.930 . S
O500 Li440 1.956 . S
O500 Li441 1.970 . S
O500 Li442 1.961 . S
O500 C444 1.325 . S
O501 Li440 1.970 . S
O501 Li441 1.956 . S
O501 Li443 1.961 . S
O501 C450 1.325 . S
O502 Li440 1.961 . S
O502 Li442 1.956 . S
O502 Li443 1.970 . S
O502 C472 1.325 . S
O503 Li441 1.961 . S
O503 Li442 1.970 . S
O503 Li443 1.956 . S
O503 C478 1.325 . S
H504 C446 0.929 . S
H505 C447 0.930 . S
H506 C448 0.930 . S
H507 C449 0.930 . S
H508 C451 0.930 . S
H509 C453 0.929 . S
H510 C454 0.930 . S
H511 C455 0.930 . S
H512 C458 0.930 . S
H513 C461 0.929 . S
H514 C466 0.929 . S
H515 C467 0.930 . S
H516 C474 0.929 . S
H517 C475 0.930 . S
H518 C476 0.930 . S
H519 C477 0.930 . S
H520 C479 0.929 . S
H521 C480 0.930 . S
H522 C481 0.930 . S
H523 C482 0.930 . S
H524 C486 0.929 . S
H525 C488 0.930 . S
H526 C494 0.929 . S
H527 C495 0.930 . S
Li528 N545 1.990 . S
Li528 O588 1.956 . S
Li528 O589 1.970 . S
Li528 O590 1.961 . S
Li529 N553 1.990 . S
Li529 O588 1.970 . S
Li529 O589 1.956 . S
Li529 O591 1.961 . S
Li530 N575 1.990 . S
Li530 O588 1.961 . S
Li530 O590 1.956 . S
Li530 O591 1.970 . S
Li531 N581 1.990 . S
Li531 O589 1.961 . S
Li531 O590 1.970 . S
Li531 O591 1.956 . S
C532 C534 1.348 . S
C532 C535 1.356 . S
C532 O588 1.325 . S
N533 C536 1.314 . S
N533 C537 1.279 . S
C534 C532 1.348 . S
C534 C536 1.353 . S
C534 H592 0.929 . S
C535 C532 1.356 . S
C535 C537 1.358 . S
C535 H593 0.930 . S
C536 N533 1.314 . S
C536 C534 1.353 . S
C536 H594 0.930 . S
C537 N533 1.279 . S
C537 C535 1.358 . S
C537 H595 0.930 . S
C538 C541 1.348 . S
C538 C542 1.356 . S
C538 O589 1.325 . S
C539 N540 1.279 . S
C539 C542 1.358 . S
C539 H596 0.930 . S
N540 C539 1.279 . S
N540 C543 1.314 . S
C541 C538 1.348 . S
C541 C543 1.353 . S
C541 H597 0.929 . S
C542 C538 1.356 . S
C542 C539 1.358 . S
C542 H598 0.930 . S
C543 N540 1.314 . S
C543 C541 1.353 . S
C543 H599 0.930 . S
C544 N545 1.314 . S
C544 C549 1.353 . S
C544 H550 0.930 . S
N545 Li528 1.990 . S
N545 C544 1.314 . S
N545 C547 1.279 . S
C546 C547 1.358 . S
C546 C548 1.356 . S
C546 H600 0.930 . S
C547 N545 1.279 . S
C547 C546 1.358 . S
C547 H551 0.930 . S
C548 C546 1.356 . S
C548 C549 1.348 . S
C549 C544 1.353 . S
C549 C548 1.348 . S
C549 H601 0.929 . S
H550 C544 0.930 . S
H551 C547 0.930 . S
C552 N553 1.314 . S
C552 C554 1.353 . S
C552 H558 0.930 . S
N553 Li529 1.990 . S
N553 C552 1.314 . S
N553 C556 1.279 . S
C554 C552 1.353 . S
C554 C557 1.348 . S
C554 H602 0.929 . S
C555 C556 1.358 . S
C555 C557 1.356 . S
C555 H603 0.930 . S
C556 N553 1.279 . S
C556 C555 1.358 . S
C556 H559 0.930 . S
C557 C554 1.348 . S
C557 C555 1.356 . S
H558 C552 0.930 . S
H559 C556 0.930 . S
C560 C562 1.348 . S
C560 C563 1.356 . S
C560 O590 1.325 . S
N561 C564 1.314 . S
N561 C565 1.279 . S
C562 C560 1.348 . S
C562 C564 1.353 . S
C562 H604 0.929 . S
C563 C560 1.356 . S
C563 C565 1.358 . S
C563 H605 0.930 . S
C564 N561 1.314 . S
C564 C562 1.353 . S
C564 H606 0.930 . S
C565 N561 1.279 . S
C565 C563 1.358 . S
C565 H607 0.930 . S
C566 C567 1.348 . S
C566 C568 1.356 . S
C566 O591 1.325 . S
C567 C566 1.348 . S
C567 C569 1.353 . S
C567 H608 0.929 . S
C568 C566 1.356 . S
C568 C570 1.358 . S
C568 H609 0.930 . S
C569 C567 1.353 . S
C569 N571 1.314 . S
C569 H610 0.930 . S
C570 C568 1.358 . S
C570 N571 1.279 . S
C570 H611 0.930 . S
N571 C569 1.314 . S
N571 C570 1.279 . S
C572 C574 1.353 . S
C572 N575 1.314 . S
C572 H578 0.930 . S
C573 N575 1.279 . S
C573 C576 1.358 . S
C573 H579 0.930 . S
C574 C572 1.353 . S
C574 C577 1.348 . S
C574 H612 0.929 . S
N575 Li530 1.990 . S
N575 C572 1.314 . S
N575 C573 1.279 . S
C576 C573 1.358 . S
C576 C577 1.356 . S
C576 H613 0.930 . S
C577 C574 1.348 . S
C577 C576 1.356 . S
H578 C572 0.930 . S
H579 C573 0.930 . S
C580 N581 1.314 . S
C580 C582 1.353 . S
C580 H586 0.930 . S
N581 Li531 1.990 . S
N581 C580 1.314 . S
N581 C584 1.279 . S
C582 C580 1.353 . S
C582 C585 1.348 . S
C582 H614 0.929 . S
C583 C584 1.358 . S
C583 C585 1.356 . S
C583 H615 0.930 . S
C584 N581 1.279 . S
C584 C583 1.358 . S
C584 H587 0.930 . S
C585 C582 1.348 . S
C585 C583 1.356 . S
H586 C580 0.930 . S
H587 C584 0.930 . S
O588 Li528 1.956 . S
O588 Li529 1.970 . S
O588 Li530 1.961 . S
O588 C532 1.325 . S
O589 Li528 1.970 . S
O589 Li529 1.956 . S
O589 Li531 1.961 . S
O589 C538 1.325 . S
O590 Li528 1.961 . S
O590 Li530 1.956 . S
O590 Li531 1.970 . S
O590 C560 1.325 . S
O591 Li529 1.961 . S
O591 Li530 1.970 . S
O591 Li531 1.956 . S
O591 C566 1.325 . S
H592 C534 0.929 . S
H593 C535 0.930 . S
H594 C536 0.930 . S
H595 C537 0.930 . S
H596 C539 0.930 . S
H597 C541 0.929 . S
H598 C542 0.930 . S
H599 C543 0.930 . S
H600 C546 0.930 . S
H601 C549 0.929 . S
H602 C554 0.929 . S
H603 C555 0.930 . S
H604 C562 0.929 . S
H605 C563 0.930 . S
H606 C564 0.930 . S
H607 C565 0.930 . S
H608 C567 0.929 . S
H609 C568 0.930 . S
H610 C569 0.930 . S
H611 C570 0.930 . S
H612 C574 0.929 . S
H613 C576 0.930 . S
H614 C582 0.929 . S
H615 C583 0.930 . S
Li616 N633 1.990 . S
Li616 O676 1.956 1_455 S
Li616 O677 1.970 1_554 S
Li616 O678 1.961 . S
Li617 N641 1.990 . S
Li617 O676 1.970 1_556 S
Li617 O677 1.956 1_655 S
Li617 O679 1.961 1_655 S
Li618 N663 1.990 . S
Li618 O676 1.961 1_455 S
Li618 O678 1.956 . S
Li618 O679 1.970 1_554 S
Li619 N669 1.990 . S
Li619 O677 1.961 . S
Li619 O678 1.970 1_556 S
Li619 O679 1.956 . S
C620 C622 1.348 . S
C620 C623 1.356 . S
C620 O676 1.325 . S
N621 C624 1.314 . S
N621 C625 1.279 . S
C622 C620 1.348 . S
C622 C624 1.353 . S
C622 H680 0.929 . S
C623 C620 1.356 . S
C623 C625 1.358 . S
C623 H681 0.930 . S
C624 N621 1.314 . S
C624 C622 1.353 . S
C624 H682 0.930 . S
C625 N621 1.279 . S
C625 C623 1.358 . S
C625 H683 0.930 . S
C626 C629 1.348 . S
C626 C630 1.356 . S
C626 O677 1.325 . S
C627 N628 1.279 . S
C627 C630 1.358 . S
C627 H684 0.930 . S
N628 C627 1.279 . S
N628 C631 1.314 . S
C629 C626 1.348 . S
C629 C631 1.353 . S
C629 H685 0.929 . S
C630 C626 1.356 . S
C630 C627 1.358 . S
C630 H686 0.930 . S
C631 N628 1.314 . S
C631 C629 1.353 . S
C631 H687 0.930 . S
C632 N633 1.314 . S
C632 C637 1.353 . S
C632 H638 0.930 . S
N633 Li616 1.990 . S
N633 C632 1.314 . S
N633 C635 1.279 . S
C634 C635 1.358 . S
C634 C636 1.356 . S
C634 H688 0.930 . S
C635 N633 1.279 . S
C635 C634 1.358 . S
C635 H639 0.930 1_455 S
C636 C634 1.356 . S
C636 C637 1.348 . S
C637 C632 1.353 . S
C637 C636 1.348 . S
C637 H689 0.929 . S
H638 C632 0.930 . S
H639 C635 0.930 1_655 S
C640 N641 1.314 . S
C640 C642 1.353 . S
C640 H646 0.930 . S
N641 Li617 1.990 . S
N641 C640 1.314 . S
N641 C644 1.279 . S
C642 C640 1.353 . S
C642 C645 1.348 . S
C642 H690 0.929 . S
C643 C644 1.358 . S
C643 C645 1.356 . S
C643 H691 0.930 . S
C644 N641 1.279 . S
C644 C643 1.358 . S
C644 H647 0.930 . S
C645 C642 1.348 . S
C645 C643 1.356 . S
H646 C640 0.930 . S
H647 C644 0.930 . S
C648 C650 1.348 . S
C648 C651 1.356 . S
C648 O678 1.325 . S
N649 C652 1.314 . S
N649 C653 1.279 . S
C650 C648 1.348 . S
C650 C652 1.353 . S
C650 H692 0.929 . S
C651 C648 1.356 . S
C651 C653 1.358 . S
C651 H693 0.930 . S
C652 N649 1.314 . S
C652 C650 1.353 . S
C652 H694 0.930 . S
C653 N649 1.279 . S
C653 C651 1.358 . S
C653 H695 0.930 . S
C654 C655 1.348 1_655 S
C654 C656 1.356 . S
C654 O679 1.325 1_655 S
C655 C654 1.348 1_455 S
C655 C657 1.353 1_455 S
C655 H696 0.929 . S
C656 C654 1.356 . S
C656 C658 1.358 . S
C656 H697 0.930 . S
C657 C655 1.353 1_655 S
C657 N659 1.314 . S
C657 H698 0.930 1_655 S
C658 C656 1.358 . S
C658 N659 1.279 . S
C658 H699 0.930 . S
N659 C657 1.314 . S
N659 C658 1.279 . S
C660 C662 1.353 . S
C660 N663 1.314 1_655 S
C660 H666 0.930 . S
C661 N663 1.279 . S
C661 C664 1.358 . S
C661 H667 0.930 . S
C662 C660 1.353 . S
C662 C665 1.348 1_655 S
C662 H700 0.929 . S
N663 Li618 1.990 . S
N663 C660 1.314 1_455 S
N663 C661 1.279 . S
C664 C661 1.358 . S
C664 C665 1.356 . S
C664 H701 0.930 . S
C665 C662 1.348 1_455 S
C665 C664 1.356 . S
H666 C660 0.930 . S
H667 C661 0.930 . S
C668 N669 1.314 . S
C668 C670 1.353 . S
C668 H674 0.930 . S
N669 Li619 1.990 . S
N669 C668 1.314 . S
N669 C672 1.279 . S
C670 C668 1.353 . S
C670 C673 1.348 . S
C670 H702 0.929 . S
C671 C672 1.358 . S
C671 C673 1.356 . S
C671 H703 0.930 . S
C672 N669 1.279 . S
C672 C671 1.358 . S
C672 H675 0.930 . S
C673 C670 1.348 . S
C673 C671 1.356 . S
H674 C668 0.930 . S
H675 C672 0.930 . S
O676 Li616 1.956 1_655 S
O676 Li617 1.970 1_554 S
O676 Li618 1.961 1_655 S
O676 C620 1.325 . S
O677 Li616 1.970 1_556 S
O677 Li617 1.956 1_455 S
O677 Li619 1.961 . S
O677 C626 1.325 . S
O678 Li616 1.961 . S
O678 Li618 1.956 . S
O678 Li619 1.970 1_554 S
O678 C648 1.325 . S
O679 Li617 1.961 1_455 S
O679 Li618 1.970 1_556 S
O679 Li619 1.956 . S
O679 C654 1.325 1_455 S
H680 C622 0.929 . S
H681 C623 0.930 . S
H682 C624 0.930 . S
H683 C625 0.930 . S
H684 C627 0.930 . S
H685 C629 0.929 . S
H686 C630 0.930 . S
H687 C631 0.930 . S
H688 C634 0.930 . S
H689 C637 0.929 . S
H690 C642 0.929 . S
H691 C643 0.930 . S
H692 C650 0.929 . S
H693 C651 0.930 . S
H694 C652 0.930 . S
H695 C653 0.930 . S
H696 C655 0.929 . S
H697 C656 0.930 . S
H698 C657 0.930 1_455 S
H699 C658 0.930 . S
H700 C662 0.929 . S
H701 C664 0.930 . S
H702 C670 0.929 . S
H703 C671 0.930 . S
Li704 N721 1.990 . S
Li704 O764 1.956 . S
Li704 O765 1.970 . S
Li704 O766 1.961 . S
Li705 N729 1.990 1_545 S
Li705 O764 1.970 . S
Li705 O765 1.956 . S
Li705 O767 1.961 . S
Li706 N751 1.990 . S
Li706 O764 1.961 . S
Li706 O766 1.956 . S
Li706 O767 1.970 . S
Li707 N757 1.990 . S
Li707 O765 1.961 . S
Li707 O766 1.970 . S
Li707 O767 1.956 . S
C708 C710 1.348 . S
C708 C711 1.356 . S
C708 O764 1.325 1_565 S
N709 C712 1.314 . S
N709 C713 1.279 . S
C710 C708 1.348 . S
C710 C712 1.353 . S
C710 H768 0.929 . S
C711 C708 1.356 . S
C711 C713 1.358 . S
C711 H769 0.930 1_565 S
C712 N709 1.314 . S
C712 C710 1.353 . S
C712 H770 0.930 . S
C713 N709 1.279 . S
C713 C711 1.358 . S
C713 H771 0.930 . S
C714 C717 1.348 . S
C714 C718 1.356 . S
C714 O765 1.325 . S
C715 N716 1.279 . S
C715 C718 1.358 . S
C715 H772 0.930 . S
N716 C715 1.279 . S
N716 C719 1.314 . S
C717 C714 1.348 . S
C717 C719 1.353 . S
C717 H773 0.929 . S
C718 C714 1.356 . S
C718 C715 1.358 . S
C718 H774 0.930 . S
C719 N716 1.314 . S
C719 C717 1.353 . S
C719 H775 0.930 . S
C720 N721 1.314 . S
C720 C725 1.353 . S
C720 H726 0.930 . S
N721 Li704 1.990 . S
N721 C720 1.314 . S
N721 C723 1.279 . S
C722 C723 1.358 . S
C722 C724 1.356 . S
C722 H776 0.930 . S
C723 N721 1.279 . S
C723 C722 1.358 . S
C723 H727 0.930 . S
C724 C722 1.356 . S
C724 C725 1.348 . S
C725 C720 1.353 . S
C725 C724 1.348 . S
C725 H777 0.929 . S
H726 C720 0.930 . S
H727 C723 0.930 . S
C728 N729 1.314 . S
C728 C730 1.353 . S
C728 H734 0.930 . S
N729 Li705 1.990 1_565 S
N729 C728 1.314 . S
N729 C732 1.279 . S
C730 C728 1.353 . S
C730 C733 1.348 . S
C730 H778 0.929 . S
C731 C732 1.358 . S
C731 C733 1.356 . S
C731 H779 0.930 . S
C732 N729 1.279 . S
C732 C731 1.358 . S
C732 H735 0.930 . S
C733 C730 1.348 . S
C733 C731 1.356 . S
H734 C728 0.930 . S
H735 C732 0.930 . S
C736 C738 1.348 . S
C736 C739 1.356 . S
C736 O766 1.325 . S
N737 C740 1.314 . S
N737 C741 1.279 . S
C738 C736 1.348 . S
C738 C740 1.353 . S
C738 H780 0.929 . S
C739 C736 1.356 . S
C739 C741 1.358 . S
C739 H781 0.930 . S
C740 N737 1.314 . S
C740 C738 1.353 . S
C740 H782 0.930 . S
C741 N737 1.279 . S
C741 C739 1.358 . S
C741 H783 0.930 . S
C742 C743 1.348 . S
C742 C744 1.356 . S
C742 O767 1.325 . S
C743 C742 1.348 . S
C743 C745 1.353 . S
C743 H784 0.929 . S
C744 C742 1.356 . S
C744 C746 1.358 . S
C744 H785 0.930 . S
C745 C743 1.353 . S
C745 N747 1.314 . S
C745 H786 0.930 . S
C746 C744 1.358 . S
C746 N747 1.279 . S
C746 H787 0.930 . S
N747 C745 1.314 . S
N747 C746 1.279 . S
C748 C750 1.353 . S
C748 N751 1.314 . S
C748 H754 0.930 1_545 S
C749 N751 1.279 . S
C749 C752 1.358 . S
C749 H755 0.930 . S
C750 C748 1.353 . S
C750 C753 1.348 . S
C750 H788 0.929 1_545 S
N751 Li706 1.990 . S
N751 C748 1.314 . S
N751 C749 1.279 . S
C752 C749 1.358 . S
C752 C753 1.356 . S
C752 H789 0.930 . S
C753 C750 1.348 . S
C753 C752 1.356 . S
H754 C748 0.930 1_565 S
H755 C749 0.930 . S
C756 N757 1.314 . S
C756 C758 1.353 . S
C756 H762 0.930 . S
N757 Li707 1.990 . S
N757 C756 1.314 . S
N757 C760 1.279 . S
C758 C756 1.353 . S
C758 C761 1.348 . S
C758 H790 0.929 . S
C759 C760 1.358 . S
C759 C761 1.356 . S
C759 H791 0.930 . S
C760 N757 1.279 . S
C760 C759 1.358 . S
C760 H763 0.930 . S
C761 C758 1.348 . S
C761 C759 1.356 . S
H762 C756 0.930 . S
H763 C760 0.930 . S
O764 Li704 1.956 . S
O764 Li705 1.970 . S
O764 Li706 1.961 . S
O764 C708 1.325 1_545 S
O765 Li704 1.970 . S
O765 Li705 1.956 . S
O765 Li707 1.961 . S
O765 C714 1.325 . S
O766 Li704 1.961 . S
O766 Li706 1.956 . S
O766 Li707 1.970 . S
O766 C736 1.325 . S
O767 Li705 1.961 . S
O767 Li706 1.970 . S
O767 Li707 1.956 . S
O767 C742 1.325 . S
H768 C710 0.929 . S
H769 C711 0.930 1_545 S
H770 C712 0.930 . S
H771 C713 0.930 . S
H772 C715 0.930 . S
H773 C717 0.929 . S
H774 C718 0.930 . S
H775 C719 0.930 . S
H776 C722 0.930 . S
H777 C725 0.929 . S
H778 C730 0.929 . S
H779 C731 0.930 . S
H780 C738 0.929 . S
H781 C739 0.930 . S
H782 C740 0.930 . S
H783 C741 0.930 . S
H784 C743 0.929 . S
H785 C744 0.930 . S
H786 C745 0.930 . S
H787 C746 0.930 . S
H788 C750 0.929 1_565 S
H789 C752 0.930 . S
H790 C758 0.929 . S
H791 C759 0.930 . S
Li792 N809 1.990 . S
Li792 O852 1.956 . S
Li792 O853 1.970 . S
Li792 O854 1.961 . S
Li793 N817 1.990 . S
Li793 O852 1.970 . S
Li793 O853 1.956 . S
Li793 O855 1.961 . S
Li794 N839 1.990 . S
Li794 O852 1.961 . S
Li794 O854 1.956 . S
Li794 O855 1.970 . S
Li795 N845 1.990 . S
Li795 O853 1.961 . S
Li795 O854 1.970 . S
Li795 O855 1.956 . S
C796 C798 1.348 . S
C796 C799 1.356 . S
C796 O852 1.325 . S
N797 C800 1.314 . S
N797 C801 1.279 . S
C798 C796 1.348 . S
C798 C800 1.353 . S
C798 H856 0.929 . S
C799 C796 1.356 . S
C799 C801 1.358 . S
C799 H857 0.930 . S
C800 N797 1.314 . S
C800 C798 1.353 . S
C800 H858 0.930 . S
C801 N797 1.279 . S
C801 C799 1.358 . S
C801 H859 0.930 . S
C802 C805 1.348 . S
C802 C806 1.356 . S
C802 O853 1.325 . S
C803 N804 1.279 . S
C803 C806 1.358 . S
C803 H860 0.930 . S
N804 C803 1.279 . S
N804 C807 1.314 . S
C805 C802 1.348 . S
C805 C807 1.353 . S
C805 H861 0.929 . S
C806 C802 1.356 . S
C806 C803 1.358 . S
C806 H862 0.930 . S
C807 N804 1.314 . S
C807 C805 1.353 . S
C807 H863 0.930 . S
C808 N809 1.314 . S
C808 C813 1.353 . S
C808 H814 0.930 . S
N809 Li792 1.990 . S
N809 C808 1.314 . S
N809 C811 1.279 . S
C810 C811 1.358 . S
C810 C812 1.356 . S
C810 H864 0.930 . S
C811 N809 1.279 . S
C811 C810 1.358 . S
C811 H815 0.930 . S
C812 C810 1.356 . S
C812 C813 1.348 . S
C813 C808 1.353 . S
C813 C812 1.348 . S
C813 H865 0.929 . S
H814 C808 0.930 . S
H815 C811 0.930 . S
C816 N817 1.314 . S
C816 C818 1.353 . S
C816 H822 0.930 . S
N817 Li793 1.990 . S
N817 C816 1.314 . S
N817 C820 1.279 . S
C818 C816 1.353 . S
C818 C821 1.348 . S
C818 H866 0.929 . S
C819 C820 1.358 . S
C819 C821 1.356 . S
C819 H867 0.930 . S
C820 N817 1.279 . S
C820 C819 1.358 . S
C820 H823 0.930 . S
C821 C818 1.348 . S
C821 C819 1.356 . S
H822 C816 0.930 . S
H823 C820 0.930 . S
C824 C826 1.348 . S
C824 C827 1.356 . S
C824 O854 1.325 . S
N825 C828 1.314 . S
N825 C829 1.279 . S
C826 C824 1.348 . S
C826 C828 1.353 . S
C826 H868 0.929 . S
C827 C824 1.356 . S
C827 C829 1.358 . S
C827 H869 0.930 . S
C828 N825 1.314 . S
C828 C826 1.353 . S
C828 H870 0.930 . S
C829 N825 1.279 . S
C829 C827 1.358 . S
C829 H871 0.930 . S
C830 C831 1.348 . S
C830 C832 1.356 . S
C830 O855 1.325 . S
C831 C830 1.348 . S
C831 C833 1.353 . S
C831 H872 0.929 . S
C832 C830 1.356 . S
C832 C834 1.358 . S
C832 H873 0.930 . S
C833 C831 1.353 . S
C833 N835 1.314 . S
C833 H874 0.930 . S
C834 C832 1.358 . S
C834 N835 1.279 . S
C834 H875 0.930 . S
N835 C833 1.314 . S
N835 C834 1.279 . S
C836 C838 1.353 . S
C836 N839 1.314 . S
C836 H842 0.930 . S
C837 N839 1.279 . S
C837 C840 1.358 . S
C837 H843 0.930 . S
C838 C836 1.353 . S
C838 C841 1.348 . S
C838 H876 0.929 . S
N839 Li794 1.990 . S
N839 C836 1.314 . S
N839 C837 1.279 . S
C840 C837 1.358 . S
C840 C841 1.356 . S
C840 H877 0.930 . S
C841 C838 1.348 . S
C841 C840 1.356 . S
H842 C836 0.930 . S
H843 C837 0.930 . S
C844 N845 1.314 . S
C844 C846 1.353 . S
C844 H850 0.930 . S
N845 Li795 1.990 . S
N845 C844 1.314 . S
N845 C848 1.279 . S
C846 C844 1.353 . S
C846 C849 1.348 . S
C846 H878 0.929 . S
C847 C848 1.358 . S
C847 C849 1.356 . S
C847 H879 0.930 . S
C848 N845 1.279 . S
C848 C847 1.358 . S
C848 H851 0.930 . S
C849 C846 1.348 . S
C849 C847 1.356 . S
H850 C844 0.930 . S
H851 C848 0.930 . S
O852 Li792 1.956 . S
O852 Li793 1.970 . S
O852 Li794 1.961 . S
O852 C796 1.325 . S
O853 Li792 1.970 . S
O853 Li793 1.956 . S
O853 Li795 1.961 . S
O853 C802 1.325 . S
O854 Li792 1.961 . S
O854 Li794 1.956 . S
O854 Li795 1.970 . S
O854 C824 1.325 . S
O855 Li793 1.961 . S
O855 Li794 1.970 . S
O855 Li795 1.956 . S
O855 C830 1.325 . S
H856 C798 0.929 . S
H857 C799 0.930 . S
H858 C800 0.930 . S
H859 C801 0.930 . S
H860 C803 0.930 . S
H861 C805 0.929 . S
H862 C806 0.930 . S
H863 C807 0.930 . S
H864 C810 0.930 . S
H865 C813 0.929 . S
H866 C818 0.929 . S
H867 C819 0.930 . S
H868 C826 0.929 . S
H869 C827 0.930 . S
H870 C828 0.930 . S
H871 C829 0.930 . S
H872 C831 0.929 . S
H873 C832 0.930 . S
H874 C833 0.930 . S
H875 C834 0.930 . S
H876 C838 0.929 . S
H877 C840 0.930 . S
H878 C846 0.929 . S
H879 C847 0.930 . S
Li880 N897 1.990 . S
Li880 O940 1.956 . S
Li880 O941 1.970 . S
Li880 O942 1.961 . S
Li881 N905 1.990 . S
Li881 O940 1.970 . S
Li881 O941 1.956 . S
Li881 O943 1.961 . S
Li882 N927 1.990 . S
Li882 O940 1.961 . S
Li882 O942 1.956 . S
Li882 O943 1.970 . S
Li883 N933 1.990 . S
Li883 O941 1.961 . S
Li883 O942 1.970 . S
Li883 O943 1.956 . S
C884 C886 1.348 . S
C884 C887 1.356 . S
C884 O940 1.325 . S
N885 C888 1.318 1_554 S
N885 C889 1.279 1_554 S
C886 C884 1.348 . S
C886 C888 1.374 . S
C886 H944 0.929 . S
C887 C884 1.356 . S
C887 C889 1.358 . S
C887 H945 0.930 . S
C888 N885 1.318 1_556 S
C888 C886 1.374 . S
C888 H946 0.903 1_556 S
C889 N885 1.279 1_556 S
C889 C887 1.358 . S
C889 H947 0.930 . S
C890 C893 1.348 . S
C890 C894 1.356 . S
C890 O941 1.325 . S
C891 N892 1.279 . S
C891 C894 1.358 . S
C891 H948 0.930 . S
N892 C891 1.279 . S
N892 C895 1.314 . S
C893 C890 1.348 . S
C893 C895 1.353 . S
C893 H949 0.929 . S
C894 C890 1.356 . S
C894 C891 1.358 . S
C894 H950 0.930 . S
C895 N892 1.314 . S
C895 C893 1.353 . S
C895 H951 0.930 . S
C896 N897 1.314 . S
C896 C901 1.353 . S
C896 H902 0.930 . S
N897 Li880 1.990 . S
N897 C896 1.314 . S
N897 C899 1.279 . S
C898 C899 1.358 . S
C898 C900 1.356 . S
C898 H952 0.930 . S
C899 N897 1.279 . S
C899 C898 1.358 . S
C899 H903 0.930 . S
C900 C898 1.356 . S
C900 C901 1.348 . S
C901 C896 1.353 . S
C901 C900 1.348 . S
C901 H953 0.929 . S
H902 C896 0.930 . S
H903 C899 0.930 . S
C904 N905 1.314 . S
C904 C906 1.353 . S
C904 H910 0.930 . S
N905 Li881 1.990 . S
N905 C904 1.314 . S
N905 C908 1.279 . S
C906 C904 1.353 . S
C906 C909 1.348 . S
C906 H954 0.929 . S
C907 C908 1.358 . S
C907 C909 1.356 . S
C907 H955 0.930 . S
C908 N905 1.279 . S
C908 C907 1.358 . S
C908 H911 0.930 . S
C909 C906 1.348 . S
C909 C907 1.356 . S
H910 C904 0.930 . S
H911 C908 0.930 . S
C912 C914 1.348 . S
C912 C915 1.356 . S
C912 O942 1.325 . S
N913 C916 1.314 . S
N913 C917 1.279 . S
C914 C912 1.348 . S
C914 C916 1.353 . S
C914 H956 0.929 . S
C915 C912 1.356 . S
C915 C917 1.358 . S
C915 H957 0.930 . S
C916 N913 1.314 . S
C916 C914 1.353 . S
C916 H958 0.930 . S
C917 N913 1.279 . S
C917 C915 1.358 . S
C917 H959 0.930 . S
C918 C919 1.348 1_545 S
C918 C920 1.356 . S
C918 O943 1.325 . S
C919 C918 1.348 1_565 S
C919 C921 1.353 . S
C919 H960 0.929 . S
C920 C918 1.356 . S
C920 C922 1.358 1_545 S
C920 H961 0.930 . S
C921 C919 1.353 . S
C921 N923 1.314 . S
C921 H962 0.930 . S
C922 C920 1.358 1_565 S
C922 N923 1.279 . S
C922 H963 0.930 . S
N923 C921 1.314 . S
N923 C922 1.279 . S
C924 C926 1.353 1_545 S
C924 N927 1.314 . S
C924 H930 0.930 . S
C925 N927 1.279 . S
C925 C928 1.358 1_545 S
C925 H931 0.930 . S
C926 C924 1.353 1_565 S
C926 C929 1.348 . S
C926 H964 0.929 . S
N927 Li882 1.990 . S
N927 C924 1.314 . S
N927 C925 1.279 . S
C928 C925 1.358 1_565 S
C928 C929 1.356 . S
C928 H965 0.930 . S
C929 C926 1.348 . S
C929 C928 1.356 . S
H930 C924 0.930 . S
H931 C925 0.930 . S
C932 N933 1.314 . S
C932 C934 1.353 . S
C932 H938 0.930 . S
N933 Li883 1.990 . S
N933 C932 1.314 . S
N933 C936 1.279 . S
C934 C932 1.353 . S
C934 C937 1.348 . S
C934 H966 0.929 . S
C935 C936 1.358 . S
C935 C937 1.356 . S
C935 H967 0.930 . S
C936 N933 1.279 . S
C936 C935 1.358 . S
C936 H939 0.930 . S
C937 C934 1.348 . S
C937 C935 1.356 . S
H938 C932 0.930 . S
H939 C936 0.930 . S
O940 Li880 1.956 . S
O940 Li881 1.970 . S
O940 Li882 1.961 . S
O940 C884 1.325 . S
O941 Li880 1.970 . S
O941 Li881 1.956 . S
O941 Li883 1.961 . S
O941 C890 1.325 . S
O942 Li880 1.961 . S
O942 Li882 1.956 . S
O942 Li883 1.970 . S
O942 C912 1.325 . S
O943 Li881 1.961 . S
O943 Li882 1.970 . S
O943 Li883 1.956 . S
O943 C918 1.325 . S
H944 C886 0.929 . S
H945 C887 0.930 . S
H946 C888 0.903 1_554 S
H947 C889 0.930 . S
H948 C891 0.930 . S
H949 C893 0.929 . S
H950 C894 0.930 . S
H951 C895 0.930 . S
H952 C898 0.930 . S
H953 C901 0.929 . S
H954 C906 0.929 . S
H955 C907 0.930 . S
H956 C914 0.929 . S
H957 C915 0.930 . S
H958 C916 0.930 . S
H959 C917 0.930 . S
H960 C919 0.929 . S
H961 C920 0.930 . S
H962 C921 0.930 . S
H963 C922 0.930 . S
H964 C926 0.929 . S
H965 C928 0.930 . S
H966 C934 0.929 . S
H967 C935 0.930 . S
Li968 N985 1.992 . S
Li968 O1028 1.974 . S
Li968 O1029 1.972 1_554 S
Li968 O1030 1.938 1_554 S
Li969 N993 1.990 . S
Li969 O1028 1.970 . S
Li969 O1029 1.956 1_554 S
Li969 O1031 1.961 . S
Li970 N1015 1.990 . S
Li970 O1028 1.961 . S
Li970 O1030 1.956 1_554 S
Li970 O1031 1.970 . S
Li971 N1021 1.990 . S
Li971 O1029 1.961 . S
Li971 O1030 1.970 . S
Li971 O1031 1.956 1_556 S
C972 C974 1.348 . S
C972 C975 1.356 . S
C972 O1028 1.325 . S
N973 C976 1.314 . S
N973 C977 1.279 . S
C974 C972 1.348 . S
C974 C976 1.353 . S
C974 H1032 0.929 . S
C975 C972 1.356 . S
C975 C977 1.358 . S
C975 H1033 0.930 . S
C976 N973 1.314 . S
C976 C974 1.353 . S
C976 H1034 0.930 . S
C977 N973 1.279 . S
C977 C975 1.358 . S
C977 H1035 0.930 . S
C978 C981 1.348 . S
C978 C982 1.356 . S
C978 O1029 1.325 . S
C979 N980 1.279 . S
C979 C982 1.358 . S
C979 H1036 0.930 . S
N980 C979 1.279 . S
N980 C983 1.314 . S
C981 C978 1.348 . S
C981 C983 1.353 . S
C981 H1037 0.929 1_556 S
C982 C978 1.356 . S
C982 C979 1.358 . S
C982 H1038 0.930 . S
C983 N980 1.314 . S
C983 C981 1.353 . S
C983 H1039 0.930 . S
C984 N985 1.314 1_556 S
C984 C989 1.353 . S
C984 H990 0.930 . S
N985 Li968 1.992 . S
N985 C984 1.314 1_554 S
N985 C987 1.279 . S
C986 C987 1.358 . S
C986 C988 1.356 1_554 S
C986 H1040 0.930 . S
C987 N985 1.279 . S
C987 C986 1.358 . S
C987 H991 0.930 . S
C988 C986 1.356 1_556 S
C988 C989 1.348 . S
C989 C984 1.353 . S
C989 C988 1.348 . S
C989 H1041 0.929 . S
H990 C984 0.930 . S
H991 C987 0.930 . S
C992 N993 1.314 . S
C992 C994 1.353 . S
C992 H998 0.930 . S
N993 Li969 1.990 . S
N993 C992 1.314 . S
N993 C996 1.279 . S
C994 C992 1.353 . S
C994 C997 1.348 . S
C994 H1042 0.929 . S
C995 C996 1.358 . S
C995 C997 1.356 . S
C995 H1043 0.930 . S
C996 N993 1.279 . S
C996 C995 1.358 . S
C996 H999 0.930 . S
C997 C994 1.348 . S
C997 C995 1.356 . S
H998 C992 0.930 . S
H999 C996 0.930 . S
C1000 C1002 1.348 . S
C1000 C1003 1.356 . S
C1000 O1030 1.325 . S
N1001 C1004 1.314 . S
N1001 C1005 1.279 . S
C1002 C1000 1.348 . S
C1002 C1004 1.353 . S
C1002 H1044 0.929 . S
C1003 C1000 1.356 . S
C1003 C1005 1.358 . S
C1003 H1045 0.930 . S
C1004 N1001 1.314 . S
C1004 C1002 1.353 . S
C1004 H1046 0.930 . S
C1005 N1001 1.279 . S
C1005 C1003 1.358 . S
C1005 H1047 0.930 . S
C1006 C1007 1.348 1_554 S
C1006 C1008 1.356 . S
C1006 O1031 1.325 . S
C1007 C1006 1.348 1_556 S
C1007 C1009 1.353 . S
C1007 H1048 0.929 . S
C1008 C1006 1.356 . S
C1008 C1010 1.358 . S
C1008 H1049 0.930 . S
C1009 C1007 1.353 . S
C1009 N1011 1.322 . S
C1009 H1050 0.930 . S
C1010 C1008 1.358 . S
C1010 N1011 1.270 1_554 S
C1010 H1051 0.930 . S
N1011 C1009 1.322 . S
N1011 C1010 1.270 1_556 S
C1012 C1014 1.353 . S
C1012 N1015 1.314 . S
C1012 H1018 0.930 . S
C1013 N1015 1.279 1_556 S
C1013 C1016 1.358 1_556 S
C1013 H1019 0.930 . S
C1014 C1012 1.353 . S
C1014 C1017 1.348 . S
C1014 H1052 0.929 . S
N1015 Li970 1.990 . S
N1015 C1012 1.314 . S
N1015 C1013 1.279 1_554 S
C1016 C1013 1.358 1_554 S
C1016 C1017 1.356 . S
C1016 H1053 0.930 1_554 S
C1017 C1014 1.348 . S
C1017 C1016 1.356 . S
H1018 C1012 0.930 . S
H1019 C1013 0.930 . S
C1020 N1021 1.314 . S
C1020 C1022 1.353 . S
C1020 H1026 0.930 . S
N1021 Li971 1.990 . S
N1021 C1020 1.314 . S
N1021 C1024 1.279 . S
C1022 C1020 1.353 . S
C1022 C1025 1.348 . S
C1022 H1054 0.929 . S
C1023 C1024 1.358 . S
C1023 C1025 1.356 . S
C1023 H1055 0.930 . S
C1024 N1021 1.279 . S
C1024 C1023 1.358 . S
C1024 H1027 0.930 . S
C1025 C1022 1.348 . S
C1025 C1023 1.356 . S
H1026 C1020 0.930 . S
H1027 C1024 0.930 . S
O1028 Li968 1.974 . S
O1028 Li969 1.970 . S
O1028 Li970 1.961 . S
O1028 C972 1.325 . S
O1029 Li968 1.972 1_556 S
O1029 Li969 1.956 1_556 S
O1029 Li971 1.961 . S
O1029 C978 1.325 . S
O1030 Li968 1.938 1_556 S
O1030 Li970 1.956 1_556 S
O1030 Li971 1.970 . S
O1030 C1000 1.325 . S
O1031 Li969 1.961 . S
O1031 Li970 1.970 . S
O1031 Li971 1.956 1_554 S
O1031 C1006 1.325 . S
H1032 C974 0.929 . S
H1033 C975 0.930 . S
H1034 C976 0.930 . S
H1035 C977 0.930 . S
H1036 C979 0.930 . S
H1037 C981 0.929 1_554 S
H1038 C982 0.930 . S
H1039 C983 0.930 . S
H1040 C986 0.930 . S
H1041 C989 0.929 . S
H1042 C994 0.929 . S
H1043 C995 0.930 . S
H1044 C1002 0.929 . S
H1045 C1003 0.930 . S
H1046 C1004 0.930 . S
H1047 C1005 0.930 . S
H1048 C1007 0.929 . S
H1049 C1008 0.930 . S
H1050 C1009 0.930 . S
H1051 C1010 0.930 . S
H1052 C1014 0.929 . S
H1053 C1016 0.930 1_556 S
H1054 C1022 0.929 . S
H1055 C1023 0.930 . S
Li1056 N1073 1.990 . S
Li1056 O1116 1.956 . S
Li1056 O1117 1.970 . S
Li1056 O1118 1.961 . S
Li1057 N1081 1.990 . S
Li1057 O1116 1.970 . S
Li1057 O1117 1.956 . S
Li1057 O1119 1.961 . S
Li1058 N1103 1.990 . S
Li1058 O1116 1.961 . S
Li1058 O1118 1.956 . S
Li1058 O1119 1.970 . S
Li1059 N1109 1.990 . S
Li1059 O1117 1.961 . S
Li1059 O1118 1.970 . S
Li1059 O1119 1.956 . S
C1060 C1062 1.348 . S
C1060 C1063 1.356 . S
C1060 O1116 1.325 . S
N1061 C1064 1.314 . S
N1061 C1065 1.279 . S
C1062 C1060 1.348 . S
C1062 C1064 1.353 . S
C1062 H1120 0.929 . S
C1063 C1060 1.356 . S
C1063 C1065 1.358 . S
C1063 H1121 0.930 . S
C1064 N1061 1.314 . S
C1064 C1062 1.353 . S
C1064 H1122 0.930 . S
C1065 N1061 1.279 . S
C1065 C1063 1.358 . S
C1065 H1123 0.930 . S
C1066 C1069 1.348 . S
C1066 C1070 1.356 . S
C1066 O1117 1.325 . S
C1067 N1068 1.279 . S
C1067 C1070 1.358 . S
C1067 H1124 0.930 . S
N1068 C1067 1.279 . S
N1068 C1071 1.314 . S
C1069 C1066 1.348 . S
C1069 C1071 1.353 . S
C1069 H1125 0.929 . S
C1070 C1066 1.356 . S
C1070 C1067 1.358 . S
C1070 H1126 0.930 . S
C1071 N1068 1.314 . S
C1071 C1069 1.353 . S
C1071 H1127 0.930 . S
C1072 N1073 1.314 . S
C1072 C1077 1.353 . S
C1072 H1078 0.930 . S
N1073 Li1056 1.990 . S
N1073 C1072 1.314 . S
N1073 C1075 1.279 . S
C1074 C1075 1.358 . S
C1074 C1076 1.356 . S
C1074 H1128 0.930 . S
C1075 N1073 1.279 . S
C1075 C1074 1.358 . S
C1075 H1079 0.930 . S
C1076 C1074 1.356 . S
C1076 C1077 1.348 . S
C1077 C1072 1.353 . S
C1077 C1076 1.348 . S
C1077 H1129 0.929 . S
H1078 C1072 0.930 . S
H1079 C1075 0.930 . S
C1080 N1081 1.314 . S
C1080 C1082 1.353 . S
C1080 H1086 0.930 . S
N1081 Li1057 1.990 . S
N1081 C1080 1.314 . S
N1081 C1084 1.279 . S
C1082 C1080 1.353 . S
C1082 C1085 1.348 . S
C1082 H1130 0.929 . S
C1083 C1084 1.358 . S
C1083 C1085 1.356 . S
C1083 H1131 0.930 . S
C1084 N1081 1.279 . S
C1084 C1083 1.358 . S
C1084 H1087 0.930 . S
C1085 C1082 1.348 . S
C1085 C1083 1.356 . S
H1086 C1080 0.930 . S
H1087 C1084 0.930 . S
C1088 C1090 1.348 . S
C1088 C1091 1.356 . S
C1088 O1118 1.325 . S
N1089 C1092 1.314 . S
N1089 C1093 1.279 1_556 S
C1090 C1088 1.348 . S
C1090 C1092 1.353 1_554 S
C1090 H1132 0.929 . S
C1091 C1088 1.356 . S
C1091 C1093 1.358 . S
C1091 H1133 0.930 . S
C1092 N1089 1.314 . S
C1092 C1090 1.353 1_556 S
C1092 H1134 0.930 . S
C1093 N1089 1.279 1_554 S
C1093 C1091 1.358 . S
C1093 H1135 0.930 . S
C1094 C1095 1.348 . S
C1094 C1096 1.356 . S
C1094 O1119 1.325 . S
C1095 C1094 1.348 . S
C1095 C1097 1.353 . S
C1095 H1136 0.929 . S
C1096 C1094 1.356 . S
C1096 C1098 1.358 . S
C1096 H1137 0.930 . S
C1097 C1095 1.353 . S
C1097 N1099 1.314 . S
C1097 H1138 0.930 . S
C1098 C1096 1.358 . S
C1098 N1099 1.279 . S
C1098 H1139 0.930 . S
N1099 C1097 1.314 . S
N1099 C1098 1.279 . S
C1100 C1102 1.353 . S
C1100 N1103 1.314 . S
C1100 H1106 0.930 . S
C1101 N1103 1.279 . S
C1101 C1104 1.358 . S
C1101 H1107 0.930 . S
C1102 C1100 1.353 . S
C1102 C1105 1.348 . S
C1102 H1140 0.929 . S
N1103 Li1058 1.990 . S
N1103 C1100 1.314 . S
N1103 C1101 1.279 . S
C1104 C1101 1.358 . S
C1104 C1105 1.356 . S
C1104 H1141 0.930 . S
C1105 C1102 1.348 . S
C1105 C1104 1.356 . S
H1106 C1100 0.930 . S
H1107 C1101 0.930 . S
C1108 N1109 1.314 1_556 S
C1108 C1110 1.353 . S
C1108 H1114 0.930 . S
N1109 Li1059 1.990 . S
N1109 C1108 1.314 1_554 S
N1109 C1112 1.279 . S
C1110 C1108 1.353 . S
C1110 C1113 1.348 . S
C1110 H1142 0.929 . S
C1111 C1112 1.358 1_556 S
C1111 C1113 1.356 . S
C1111 H1143 0.930 . S
C1112 N1109 1.279 . S
C1112 C1111 1.358 1_554 S
C1112 H1115 0.930 . S
C1113 C1110 1.348 . S
C1113 C1111 1.356 . S
H1114 C1108 0.930 . S
H1115 C1112 0.930 . S
O1116 Li1056 1.956 . S
O1116 Li1057 1.970 . S
O1116 Li1058 1.961 . S
O1116 C1060 1.325 . S
O1117 Li1056 1.970 . S
O1117 Li1057 1.956 . S
O1117 Li1059 1.961 . S
O1117 C1066 1.325 . S
O1118 Li1056 1.961 . S
O1118 Li1058 1.956 . S
O1118 Li1059 1.970 . S
O1118 C1088 1.325 . S
O1119 Li1057 1.961 . S
O1119 Li1058 1.970 . S
O1119 Li1059 1.956 . S
O1119 C1094 1.325 . S
H1120 C1062 0.929 . S
H1121 C1063 0.930 . S
H1122 C1064 0.930 . S
H1123 C1065 0.930 . S
H1124 C1067 0.930 . S
H1125 C1069 0.929 . S
H1126 C1070 0.930 . S
H1127 C1071 0.930 . S
H1128 C1074 0.930 . S
H1129 C1077 0.929 . S
H1130 C1082 0.929 . S
H1131 C1083 0.930 . S
H1132 C1090 0.929 . S
H1133 C1091 0.930 . S
H1134 C1092 0.930 . S
H1135 C1093 0.930 . S
H1136 C1095 0.929 . S
H1137 C1096 0.930 . S
H1138 C1097 0.930 . S
H1139 C1098 0.930 . S
H1140 C1102 0.929 . S
H1141 C1104 0.930 . S
H1142 C1110 0.929 . S
H1143 C1111 0.930 . S
Li1144 N1161 1.990 . S
Li1144 O1204 1.956 . S
Li1144 O1205 1.970 . S
Li1144 O1206 1.961 . S
Li1145 N1169 1.990 . S
Li1145 O1204 1.970 . S
Li1145 O1205 1.956 . S
Li1145 O1207 1.961 . S
Li1146 N1191 1.990 . S
Li1146 O1204 1.961 . S
Li1146 O1206 1.956 . S
Li1146 O1207 1.970 . S
Li1147 N1197 1.990 . S
Li1147 O1205 1.961 . S
Li1147 O1206 1.970 . S
Li1147 O1207 1.956 . S
C1148 C1150 1.348 . S
C1148 C1151 1.356 . S
C1148 O1204 1.325 . S
N1149 C1152 1.314 . S
N1149 C1153 1.279 . S
C1150 C1148 1.348 . S
C1150 C1152 1.353 . S
C1150 H1208 0.929 . S
C1151 C1148 1.356 . S
C1151 C1153 1.358 . S
C1151 H1209 0.930 . S
C1152 N1149 1.314 . S
C1152 C1150 1.353 . S
C1152 H1210 0.930 . S
C1153 N1149 1.279 . S
C1153 C1151 1.358 . S
C1153 H1211 0.930 . S
C1154 C1157 1.348 . S
C1154 C1158 1.356 . S
C1154 O1205 1.325 . S
C1155 N1156 1.279 . S
C1155 C1158 1.358 . S
C1155 H1212 0.930 . S
N1156 C1155 1.279 . S
N1156 C1159 1.314 . S
C1157 C1154 1.348 . S
C1157 C1159 1.353 . S
C1157 H1213 0.929 . S
C1158 C1154 1.356 . S
C1158 C1155 1.358 . S
C1158 H1214 0.930 . S
C1159 N1156 1.314 . S
C1159 C1157 1.353 . S
C1159 H1215 0.930 . S
C1160 N1161 1.314 . S
C1160 C1165 1.353 . S
C1160 H1166 0.930 . S
N1161 Li1144 1.990 . S
N1161 C1160 1.314 . S
N1161 C1163 1.279 . S
C1162 C1163 1.358 . S
C1162 C1164 1.356 . S
C1162 H1216 0.930 . S
C1163 N1161 1.279 . S
C1163 C1162 1.358 . S
C1163 H1167 0.930 . S
C1164 C1162 1.356 . S
C1164 C1165 1.348 . S
C1165 C1160 1.353 . S
C1165 C1164 1.348 . S
C1165 H1217 0.929 . S
H1166 C1160 0.930 . S
H1167 C1163 0.930 . S
C1168 N1169 1.314 . S
C1168 C1170 1.353 . S
C1168 H1174 0.930 . S
N1169 Li1145 1.990 . S
N1169 C1168 1.314 . S
N1169 C1172 1.279 . S
C1170 C1168 1.353 . S
C1170 C1173 1.348 . S
C1170 H1218 0.929 . S
C1171 C1172 1.358 . S
C1171 C1173 1.356 . S
C1171 H1219 0.930 . S
C1172 N1169 1.279 . S
C1172 C1171 1.358 . S
C1172 H1175 0.930 . S
C1173 C1170 1.348 . S
C1173 C1171 1.356 . S
H1174 C1168 0.930 . S
H1175 C1172 0.930 . S
C1176 C1178 1.348 . S
C1176 C1179 1.356 . S
C1176 O1206 1.325 . S
N1177 C1180 1.314 . S
N1177 C1181 1.279 . S
C1178 C1176 1.348 . S
C1178 C1180 1.353 . S
C1178 H1220 0.929 . S
C1179 C1176 1.356 . S
C1179 C1181 1.358 . S
C1179 H1221 0.930 . S
C1180 N1177 1.314 . S
C1180 C1178 1.353 . S
C1180 H1222 0.930 . S
C1181 N1177 1.279 . S
C1181 C1179 1.358 . S
C1181 H1223 0.930 . S
C1182 C1183 1.348 . S
C1182 C1184 1.356 . S
C1182 O1207 1.325 . S
C1183 C1182 1.348 . S
C1183 C1185 1.353 . S
C1183 H1224 0.929 . S
C1184 C1182 1.356 . S
C1184 C1186 1.358 . S
C1184 H1225 0.930 . S
C1185 C1183 1.353 . S
C1185 N1187 1.314 . S
C1185 H1226 0.930 . S
C1186 C1184 1.358 . S
C1186 N1187 1.279 . S
C1186 H1227 0.930 . S
N1187 C1185 1.314 . S
N1187 C1186 1.279 . S
C1188 C1190 1.353 . S
C1188 N1191 1.314 . S
C1188 H1194 0.930 . S
C1189 N1191 1.279 . S
C1189 C1192 1.358 . S
C1189 H1195 0.930 . S
C1190 C1188 1.353 . S
C1190 C1193 1.348 . S
C1190 H1228 0.929 . S
N1191 Li1146 1.990 . S
N1191 C1188 1.314 . S
N1191 C1189 1.279 . S
C1192 C1189 1.358 . S
C1192 C1193 1.356 . S
C1192 H1229 0.930 . S
C1193 C1190 1.348 . S
C1193 C1192 1.356 . S
H1194 C1188 0.930 . S
H1195 C1189 0.930 . S
C1196 N1197 1.314 . S
C1196 C1198 1.353 . S
C1196 H1202 0.930 . S
N1197 Li1147 1.990 . S
N1197 C1196 1.314 . S
N1197 C1200 1.279 . S
C1198 C1196 1.353 . S
C1198 C1201 1.348 . S
C1198 H1230 0.929 . S
C1199 C1200 1.358 . S
C1199 C1201 1.356 . S
C1199 H1231 0.930 . S
C1200 N1197 1.279 . S
C1200 C1199 1.358 . S
C1200 H1203 0.930 . S
C1201 C1198 1.348 . S
C1201 C1199 1.356 . S
H1202 C1196 0.930 . S
H1203 C1200 0.930 . S
O1204 Li1144 1.956 . S
O1204 Li1145 1.970 . S
O1204 Li1146 1.961 . S
O1204 C1148 1.325 . S
O1205 Li1144 1.970 . S
O1205 Li1145 1.956 . S
O1205 Li1147 1.961 . S
O1205 C1154 1.325 . S
O1206 Li1144 1.961 . S
O1206 Li1146 1.956 . S
O1206 Li1147 1.970 . S
O1206 C1176 1.325 . S
O1207 Li1145 1.961 . S
O1207 Li1146 1.970 . S
O1207 Li1147 1.956 . S
O1207 C1182 1.325 . S
H1208 C1150 0.929 . S
H1209 C1151 0.930 . S
H1210 C1152 0.930 . S
H1211 C1153 0.930 . S
H1212 C1155 0.930 . S
H1213 C1157 0.929 . S
H1214 C1158 0.930 . S
H1215 C1159 0.930 . S
H1216 C1162 0.930 . S
H1217 C1165 0.929 . S
H1218 C1170 0.929 . S
H1219 C1171 0.930 . S
H1220 C1178 0.929 . S
H1221 C1179 0.930 . S
H1222 C1180 0.930 . S
H1223 C1181 0.930 . S
H1224 C1183 0.929 . S
H1225 C1184 0.930 . S
H1226 C1185 0.930 . S
H1227 C1186 0.930 . S
H1228 C1190 0.929 . S
H1229 C1192 0.930 . S
H1230 C1198 0.929 . S
H1231 C1199 0.930 . S
Li1232 N1249 1.990 . S
Li1232 O1292 1.956 . S
Li1232 O1293 1.970 . S
Li1232 O1294 1.961 . S
Li1233 N1257 1.990 . S
Li1233 O1292 1.970 . S
Li1233 O1293 1.956 . S
Li1233 O1295 1.961 . S
Li1234 N1279 1.990 . S
Li1234 O1292 1.961 . S
Li1234 O1294 1.956 . S
Li1234 O1295 1.970 . S
Li1235 N1285 1.990 . S
Li1235 O1293 1.961 . S
Li1235 O1294 1.970 . S
Li1235 O1295 1.956 . S
C1236 C1238 1.348 . S
C1236 C1239 1.356 . S
C1236 O1292 1.325 . S
N1237 C1240 1.314 . S
N1237 C1241 1.279 . S
C1238 C1236 1.348 . S
C1238 C1240 1.353 . S
C1238 H1296 0.929 . S
C1239 C1236 1.356 . S
C1239 C1241 1.358 . S
C1239 H1297 0.930 . S
C1240 N1237 1.314 . S
C1240 C1238 1.353 . S
C1240 H1298 0.930 . S
C1241 N1237 1.279 . S
C1241 C1239 1.358 . S
C1241 H1299 0.930 . S
C1242 C1245 1.348 . S
C1242 C1246 1.356 . S
C1242 O1293 1.325 . S
C1243 N1244 1.279 . S
C1243 C1246 1.358 . S
C1243 H1300 0.930 . S
N1244 C1243 1.279 . S
N1244 C1247 1.314 . S
C1245 C1242 1.348 . S
C1245 C1247 1.353 . S
C1245 H1301 0.929 . S
C1246 C1242 1.356 . S
C1246 C1243 1.358 . S
C1246 H1302 0.930 . S
C1247 N1244 1.314 . S
C1247 C1245 1.353 . S
C1247 H1303 0.930 . S
C1248 N1249 1.314 . S
C1248 C1253 1.353 . S
C1248 H1254 0.930 . S
N1249 Li1232 1.990 . S
N1249 C1248 1.314 . S
N1249 C1251 1.279 . S
C1250 C1251 1.358 . S
C1250 C1252 1.356 . S
C1250 H1304 0.930 . S
C1251 N1249 1.279 . S
C1251 C1250 1.358 . S
C1251 H1255 0.930 . S
C1252 C1250 1.356 . S
C1252 C1253 1.348 . S
C1253 C1248 1.353 . S
C1253 C1252 1.348 . S
C1253 H1305 0.929 . S
H1254 C1248 0.930 . S
H1255 C1251 0.930 . S
C1256 N1257 1.314 . S
C1256 C1258 1.353 . S
C1256 H1262 0.930 . S
N1257 Li1233 1.990 . S
N1257 C1256 1.314 . S
N1257 C1260 1.279 . S
C1258 C1256 1.353 . S
C1258 C1261 1.348 . S
C1258 H1306 0.929 . S
C1259 C1260 1.358 . S
C1259 C1261 1.356 . S
C1259 H1307 0.930 . S
C1260 N1257 1.279 . S
C1260 C1259 1.358 . S
C1260 H1263 0.930 . S
C1261 C1258 1.348 . S
C1261 C1259 1.356 . S
H1262 C1256 0.930 . S
H1263 C1260 0.930 . S
C1264 C1266 1.348 . S
C1264 C1267 1.356 . S
C1264 O1294 1.325 . S
N1265 C1268 1.314 . S
N1265 C1269 1.279 . S
C1266 C1264 1.348 . S
C1266 C1268 1.353 . S
C1266 H1308 0.929 . S
C1267 C1264 1.356 . S
C1267 C1269 1.358 . S
C1267 H1309 0.930 . S
C1268 N1265 1.314 . S
C1268 C1266 1.353 . S
C1268 H1310 0.930 . S
C1269 N1265 1.279 . S
C1269 C1267 1.358 . S
C1269 H1311 0.930 . S
C1270 C1271 1.348 . S
C1270 C1272 1.356 . S
C1270 O1295 1.325 . S
C1271 C1270 1.348 . S
C1271 C1273 1.353 . S
C1271 H1312 0.929 . S
C1272 C1270 1.356 . S
C1272 C1274 1.358 . S
C1272 H1313 0.930 . S
C1273 C1271 1.353 . S
C1273 N1275 1.314 . S
C1273 H1314 0.930 . S
C1274 C1272 1.358 . S
C1274 N1275 1.279 . S
C1274 H1315 0.930 . S
N1275 C1273 1.314 . S
N1275 C1274 1.279 . S
C1276 C1278 1.353 . S
C1276 N1279 1.314 . S
C1276 H1282 0.930 . S
C1277 N1279 1.279 . S
C1277 C1280 1.358 . S
C1277 H1283 0.930 . S
C1278 C1276 1.353 . S
C1278 C1281 1.348 . S
C1278 H1316 0.929 . S
N1279 Li1234 1.990 . S
N1279 C1276 1.314 . S
N1279 C1277 1.279 . S
C1280 C1277 1.358 . S
C1280 C1281 1.356 . S
C1280 H1317 0.930 . S
C1281 C1278 1.348 . S
C1281 C1280 1.356 . S
H1282 C1276 0.930 . S
H1283 C1277 0.930 . S
C1284 N1285 1.314 . S
C1284 C1286 1.353 . S
C1284 H1290 0.930 . S
N1285 Li1235 1.990 . S
N1285 C1284 1.314 . S
N1285 C1288 1.279 . S
C1286 C1284 1.353 . S
C1286 C1289 1.348 . S
C1286 H1318 0.929 . S
C1287 C1288 1.358 . S
C1287 C1289 1.356 . S
C1287 H1319 0.930 . S
C1288 N1285 1.279 . S
C1288 C1287 1.358 . S
C1288 H1291 0.930 . S
C1289 C1286 1.348 . S
C1289 C1287 1.356 . S
H1290 C1284 0.930 . S
H1291 C1288 0.930 . S
O1292 Li1232 1.956 . S
O1292 Li1233 1.970 . S
O1292 Li1234 1.961 . S
O1292 C1236 1.325 . S
O1293 Li1232 1.970 . S
O1293 Li1233 1.956 . S
O1293 Li1235 1.961 . S
O1293 C1242 1.325 . S
O1294 Li1232 1.961 . S
O1294 Li1234 1.956 . S
O1294 Li1235 1.970 . S
O1294 C1264 1.325 . S
O1295 Li1233 1.961 . S
O1295 Li1234 1.970 . S
O1295 Li1235 1.956 . S
O1295 C1270 1.325 . S
H1296 C1238 0.929 . S
H1297 C1239 0.930 . S
H1298 C1240 0.930 . S
H1299 C1241 0.930 . S
H1300 C1243 0.930 . S
H1301 C1245 0.929 . S
H1302 C1246 0.930 . S
H1303 C1247 0.930 . S
H1304 C1250 0.930 . S
H1305 C1253 0.929 . S
H1306 C1258 0.929 . S
H1307 C1259 0.930 . S
H1308 C1266 0.929 . S
H1309 C1267 0.930 . S
H1310 C1268 0.930 . S
H1311 C1269 0.930 . S
H1312 C1271 0.929 . S
H1313 C1272 0.930 . S
H1314 C1273 0.930 . S
H1315 C1274 0.930 . S
H1316 C1278 0.929 . S
H1317 C1280 0.930 . S
H1318 C1286 0.929 . S
H1319 C1287 0.930 . S
Li1320 N1337 1.990 . S
Li1320 O1380 1.956 . S
Li1320 O1381 1.970 . S
Li1320 O1382 1.961 . S
Li1321 N1345 1.990 . S
Li1321 O1380 1.970 . S
Li1321 O1381 1.956 . S
Li1321 O1383 1.961 . S
Li1322 N1367 1.990 . S
Li1322 O1380 1.961 . S
Li1322 O1382 1.956 . S
Li1322 O1383 1.970 . S
Li1323 N1373 1.990 . S
Li1323 O1381 1.961 . S
Li1323 O1382 1.970 . S
Li1323 O1383 1.956 . S
C1324 C1326 1.348 . S
C1324 C1327 1.356 . S
C1324 O1380 1.325 . S
N1325 C1328 1.314 . S
N1325 C1329 1.279 . S
C1326 C1324 1.348 . S
C1326 C1328 1.353 . S
C1326 H1384 0.929 . S
C1327 C1324 1.356 . S
C1327 C1329 1.358 . S
C1327 H1385 0.930 . S
C1328 N1325 1.314 . S
C1328 C1326 1.353 . S
C1328 H1386 0.930 . S
C1329 N1325 1.279 . S
C1329 C1327 1.358 . S
C1329 H1387 0.930 1_565 S
C1330 C1333 1.348 . S
C1330 C1334 1.356 . S
C1330 O1381 1.325 . S
C1331 N1332 1.279 . S
C1331 C1334 1.358 . S
C1331 H1388 0.930 . S
N1332 C1331 1.279 . S
N1332 C1335 1.314 . S
C1333 C1330 1.348 . S
C1333 C1335 1.353 . S
C1333 H1389 0.929 . S
C1334 C1330 1.356 . S
C1334 C1331 1.358 . S
C1334 H1390 0.930 . S
C1335 N1332 1.314 . S
C1335 C1333 1.353 . S
C1335 H1391 0.930 . S
C1336 N1337 1.314 . S
C1336 C1341 1.353 . S
C1336 H1342 0.930 . S
N1337 Li1320 1.990 . S
N1337 C1336 1.314 . S
N1337 C1339 1.279 . S
C1338 C1339 1.358 . S
C1338 C1340 1.356 . S
C1338 H1392 0.930 . S
C1339 N1337 1.279 . S
C1339 C1338 1.358 . S
C1339 H1343 0.930 . S
C1340 C1338 1.356 . S
C1340 C1341 1.348 . S
C1341 C1336 1.353 . S
C1341 C1340 1.348 . S
C1341 H1393 0.929 . S
H1342 C1336 0.930 . S
H1343 C1339 0.930 . S
C1344 N1345 1.314 . S
C1344 C1346 1.353 . S
C1344 H1350 0.930 . S
N1345 Li1321 1.990 . S
N1345 C1344 1.314 . S
N1345 C1348 1.279 . S
C1346 C1344 1.353 . S
C1346 C1349 1.348 . S
C1346 H1394 0.929 . S
C1347 C1348 1.358 . S
C1347 C1349 1.356 . S
C1347 H1395 0.930 . S
C1348 N1345 1.279 . S
C1348 C1347 1.358 . S
C1348 H1351 0.930 . S
C1349 C1346 1.348 . S
C1349 C1347 1.356 . S
H1350 C1344 0.930 . S
H1351 C1348 0.930 . S
C1352 C1354 1.348 . S
C1352 C1355 1.356 . S
C1352 O1382 1.325 . S
N1353 C1356 1.314 . S
N1353 C1357 1.279 . S
C1354 C1352 1.348 . S
C1354 C1356 1.353 . S
C1354 H1396 0.929 . S
C1355 C1352 1.356 . S
C1355 C1357 1.358 . S
C1355 H1397 0.930 . S
C1356 N1353 1.314 . S
C1356 C1354 1.353 . S
C1356 H1398 0.930 . S
C1357 N1353 1.279 . S
C1357 C1355 1.358 . S
C1357 H1399 0.930 . S
C1358 C1359 1.348 . S
C1358 C1360 1.356 . S
C1358 O1383 1.325 . S
C1359 C1358 1.348 . S
C1359 C1361 1.353 . S
C1359 H1400 0.929 . S
C1360 C1358 1.356 . S
C1360 C1362 1.358 . S
C1360 H1401 0.930 . S
C1361 C1359 1.353 . S
C1361 N1363 1.314 . S
C1361 H1402 0.930 . S
C1362 C1360 1.358 . S
C1362 N1363 1.279 . S
C1362 H1403 0.930 . S
N1363 C1361 1.314 . S
N1363 C1362 1.279 . S
C1364 C1366 1.353 . S
C1364 N1367 1.314 . S
C1364 H1370 0.930 . S
C1365 N1367 1.279 . S
C1365 C1368 1.358 . S
C1365 H1371 0.930 . S
C1366 C1364 1.353 . S
C1366 C1369 1.348 . S
C1366 H1404 0.929 . S
N1367 Li1322 1.990 . S
N1367 C1364 1.314 . S
N1367 C1365 1.279 . S
C1368 C1365 1.358 . S
C1368 C1369 1.356 . S
C1368 H1405 0.930 . S
C1369 C1366 1.348 . S
C1369 C1368 1.356 . S
H1370 C1364 0.930 . S
H1371 C1365 0.930 . S
C1372 N1373 1.314 . S
C1372 C1374 1.353 . S
C1372 H1378 0.930 . S
N1373 Li1323 1.990 . S
N1373 C1372 1.314 . S
N1373 C1376 1.279 . S
C1374 C1372 1.353 . S
C1374 C1377 1.348 . S
C1374 H1406 0.929 . S
C1375 C1376 1.358 . S
C1375 C1377 1.356 . S
C1375 H1407 0.930 . S
C1376 N1373 1.279 . S
C1376 C1375 1.358 . S
C1376 H1379 0.930 . S
C1377 C1374 1.348 . S
C1377 C1375 1.356 . S
H1378 C1372 0.930 . S
H1379 C1376 0.930 . S
O1380 Li1320 1.956 . S
O1380 Li1321 1.970 . S
O1380 Li1322 1.961 . S
O1380 C1324 1.325 . S
O1381 Li1320 1.970 . S
O1381 Li1321 1.956 . S
O1381 Li1323 1.961 . S
O1381 C1330 1.325 . S
O1382 Li1320 1.961 . S
O1382 Li1322 1.956 . S
O1382 Li1323 1.970 . S
O1382 C1352 1.325 . S
O1383 Li1321 1.961 . S
O1383 Li1322 1.970 . S
O1383 Li1323 1.956 . S
O1383 C1358 1.325 . S
H1384 C1326 0.929 . S
H1385 C1327 0.930 . S
H1386 C1328 0.930 . S
H1387 C1329 0.930 1_545 S
H1388 C1331 0.930 . S
H1389 C1333 0.929 . S
H1390 C1334 0.930 . S
H1391 C1335 0.930 . S
H1392 C1338 0.930 . S
H1393 C1341 0.929 . S
H1394 C1346 0.929 . S
H1395 C1347 0.930 . S
H1396 C1354 0.929 . S
H1397 C1355 0.930 . S
H1398 C1356 0.930 . S
H1399 C1357 0.930 . S
H1400 C1359 0.929 . S
H1401 C1360 0.930 . S
H1402 C1361 0.930 . S
H1403 C1362 0.930 . S
H1404 C1366 0.929 . S
H1405 C1368 0.930 . S
H1406 C1374 0.929 . S
H1407 C1375 0.930 . S
Li1408 N1425 1.979 1_655 S
Li1408 O1468 1.956 1_545 S
Li1408 O1469 1.970 . S
Li1408 O1470 1.961 . S
Li1409 N1433 1.990 . S
Li1409 O1468 1.970 . S
Li1409 O1469 1.956 1_565 S
Li1409 O1471 1.961 . S
Li1410 N1455 1.990 . S
Li1410 O1468 1.961 1_545 S
Li1410 O1470 1.956 . S
Li1410 O1471 1.970 1_545 S
Li1411 N1461 1.990 . S
Li1411 O1469 1.961 . S
Li1411 O1470 1.970 . S
Li1411 O1471 1.956 1_545 S
C1412 C1414 1.348 . S
C1412 C1415 1.356 1_655 S
C1412 O1468 1.325 . S
N1413 C1416 1.314 1_455 S
N1413 C1417 1.279 . S
C1414 C1412 1.348 . S
C1414 C1416 1.353 . S
C1414 H1472 0.929 . S
C1415 C1412 1.356 1_455 S
C1415 C1417 1.358 . S
C1415 H1473 0.930 . S
C1416 N1413 1.314 1_655 S
C1416 C1414 1.353 . S
C1416 H1474 0.930 . S
C1417 N1413 1.279 . S
C1417 C1415 1.358 . S
C1417 H1475 0.930 . S
C1418 C1421 1.348 1_545 S
C1418 C1422 1.356 . S
C1418 O1469 1.325 . S
C1419 N1420 1.268 1_545 S
C1419 C1422 1.360 . S
C1419 H1476 0.942 . S
N1420 C1419 1.268 1_565 S
N1420 C1423 1.314 . S
C1421 C1418 1.348 1_565 S
C1421 C1423 1.353 . S
C1421 H1477 0.929 . S
C1422 C1418 1.356 . S
C1422 C1419 1.360 . S
C1422 H1478 0.930 . S
C1423 N1420 1.314 . S
C1423 C1421 1.353 . S
C1423 H1479 0.930 . S
C1424 N1425 1.313 . S
C1424 C1429 1.353 . S
C1424 H1430 0.930 . S
N1425 Li1408 1.979 1_455 S
N1425 C1424 1.313 . S
N1425 C1427 1.292 1_545 S
C1426 C1427 1.365 1_545 S
C1426 C1428 1.383 . S
C1426 H1480 0.896 1_545 S
C1427 N1425 1.292 1_565 S
C1427 C1426 1.365 1_565 S
C1427 H1431 0.930 . S
C1428 C1426 1.383 . S
C1428 C1429 1.348 . S
C1429 C1424 1.353 . S
C1429 C1428 1.348 . S
C1429 H1481 0.929 . S
H1430 C1424 0.930 . S
H1431 C1427 0.930 . S
C1432 N1433 1.314 . S
C1432 C1434 1.353 . S
C1432 H1438 0.930 . S
N1433 Li1409 1.990 . S
N1433 C1432 1.314 . S
N1433 C1436 1.279 . S
C1434 C1432 1.353 . S
C1434 C1437 1.348 . S
C1434 H1482 0.929 . S
C1435 C1436 1.358 . S
C1435 C1437 1.356 . S
C1435 H1483 0.930 . S
C1436 N1433 1.279 . S
C1436 C1435 1.358 . S
C1436 H1439 0.930 . S
C1437 C1434 1.348 . S
C1437 C1435 1.356 . S
H1438 C1432 0.930 . S
H1439 C1436 0.930 . S
C1440 C1442 1.348 . S
C1440 C1443 1.356 1_655 S
C1440 O1470 1.325 . S
N1441 C1444 1.314 . S
N1441 C1445 1.279 . S
C1442 C1440 1.348 . S
C1442 C1444 1.353 1_655 S
C1442 H1484 0.929 . S
C1443 C1440 1.356 1_455 S
C1443 C1445 1.358 . S
C1443 H1485 0.930 . S
C1444 N1441 1.314 . S
C1444 C1442 1.353 1_455 S
C1444 H1486 0.920 1_455 S
C1445 N1441 1.279 . S
C1445 C1443 1.358 . S
C1445 H1487 0.930 . S
C1446 C1447 1.348 . S
C1446 C1448 1.356 . S
C1446 O1471 1.325 . S
C1447 C1446 1.348 . S
C1447 C1449 1.353 . S
C1447 H1488 0.929 1_565 S
C1448 C1446 1.356 . S
C1448 C1450 1.358 . S
C1448 H1489 0.930 . S
C1449 C1447 1.353 . S
C1449 N1451 1.314 . S
C1449 H1490 0.930 . S
C1450 C1448 1.358 . S
C1450 N1451 1.279 . S
C1450 H1491 0.930 . S
N1451 C1449 1.314 . S
N1451 C1450 1.279 . S
C1452 C1454 1.353 . S
C1452 N1455 1.314 1_565 S
C1452 H1458 0.930 . S
C1453 N1455 1.279 1_455 S
C1453 C1456 1.358 . S
C1453 H1459 0.930 . S
C1454 C1452 1.353 . S
C1454 C1457 1.342 1_665 S
C1454 H1492 0.929 . S
N1455 Li1410 1.990 . S
N1455 C1452 1.314 1_545 S
N1455 C1453 1.279 1_655 S
C1456 C1453 1.358 . S
C1456 C1457 1.361 . S
C1456 H1493 0.930 . S
C1457 C1454 1.342 1_445 S
C1457 C1456 1.361 . S
H1458 C1452 0.930 . S
H1459 C1453 0.930 . S
C1460 N1461 1.314 . S
C1460 C1462 1.353 . S
C1460 H1466 0.930 . S
N1461 Li1411 1.990 . S
N1461 C1460 1.314 . S
N1461 C1464 1.279 . S
C1462 C1460 1.353 . S
C1462 C1465 1.348 . S
C1462 H1494 0.929 . S
C1463 C1464 1.358 . S
C1463 C1465 1.356 . S
C1463 H1495 0.930 . S
C1464 N1461 1.279 . S
C1464 C1463 1.358 . S
C1464 H1467 0.930 . S
C1465 C1462 1.348 . S
C1465 C1463 1.356 . S
H1466 C1460 0.930 . S
H1467 C1464 0.930 . S
O1468 Li1408 1.956 1_565 S
O1468 Li1409 1.970 . S
O1468 Li1410 1.961 1_565 S
O1468 C1412 1.325 . S
O1469 Li1408 1.970 . S
O1469 Li1409 1.956 1_545 S
O1469 Li1411 1.961 . S
O1469 C1418 1.325 . S
O1470 Li1408 1.961 . S
O1470 Li1410 1.956 . S
O1470 Li1411 1.970 . S
O1470 C1440 1.325 . S
O1471 Li1409 1.961 . S
O1471 Li1410 1.970 1_565 S
O1471 Li1411 1.956 1_565 S
O1471 C1446 1.325 . S
H1472 C1414 0.929 . S
H1473 C1415 0.930 . S
H1474 C1416 0.930 . S
H1475 C1417 0.930 . S
H1476 C1419 0.942 . S
H1477 C1421 0.929 . S
H1478 C1422 0.930 . S
H1479 C1423 0.930 . S
H1480 C1426 0.896 1_565 S
H1481 C1429 0.929 . S
H1482 C1434 0.929 . S
H1483 C1435 0.930 . S
H1484 C1442 0.929 . S
H1485 C1443 0.930 . S
H1486 C1444 0.920 1_655 S
H1487 C1445 0.930 . S
H1488 C1447 0.929 1_545 S
H1489 C1448 0.930 . S
H1490 C1449 0.930 . S
H1491 C1450 0.930 . S
H1492 C1454 0.929 . S
H1493 C1456 0.930 . S
H1494 C1462 0.929 . S
H1495 C1463 0.930 . S
Li1496 N1513 1.990 . S
Li1496 O1556 1.956 . S
Li1496 O1557 1.970 . S
Li1496 O1558 1.961 . S
Li1497 N1521 1.990 . S
Li1497 O1556 1.970 . S
Li1497 O1557 1.956 . S
Li1497 O1559 1.961 . S
Li1498 N1543 1.990 . S
Li1498 O1556 1.961 . S
Li1498 O1558 1.956 . S
Li1498 O1559 1.970 . S
Li1499 N1549 1.990 . S
Li1499 O1557 1.961 . S
Li1499 O1558 1.970 . S
Li1499 O1559 1.956 . S
C1500 C1502 1.348 . S
C1500 C1503 1.356 . S
C1500 O1556 1.325 . S
N1501 C1504 1.314 . S
N1501 C1505 1.279 . S
C1502 C1500 1.348 . S
C1502 C1504 1.353 . S
C1502 H1560 0.929 . S
C1503 C1500 1.356 . S
C1503 C1505 1.358 . S
C1503 H1561 0.930 . S
C1504 N1501 1.314 . S
C1504 C1502 1.353 . S
C1504 H1562 0.930 . S
C1505 N1501 1.279 . S
C1505 C1503 1.358 . S
C1505 H1563 0.930 . S
C1506 C1509 1.348 . S
C1506 C1510 1.356 . S
C1506 O1557 1.325 . S
C1507 N1508 1.279 . S
C1507 C1510 1.358 . S
C1507 H1564 0.930 . S
N1508 C1507 1.279 . S
N1508 C1511 1.314 . S
C1509 C1506 1.348 . S
C1509 C1511 1.353 . S
C1509 H1565 0.929 . S
C1510 C1506 1.356 . S
C1510 C1507 1.358 . S
C1510 H1566 0.930 . S
C1511 N1508 1.314 . S
C1511 C1509 1.353 . S
C1511 H1567 0.930 . S
C1512 N1513 1.314 . S
C1512 C1517 1.353 . S
C1512 H1518 0.930 . S
N1513 Li1496 1.990 . S
N1513 C1512 1.314 . S
N1513 C1515 1.279 . S
C1514 C1515 1.358 . S
C1514 C1516 1.356 . S
C1514 H1568 0.930 . S
C1515 N1513 1.279 . S
C1515 C1514 1.358 . S
C1515 H1519 0.930 . S
C1516 C1514 1.356 . S
C1516 C1517 1.348 . S
C1517 C1512 1.353 . S
C1517 C1516 1.348 . S
C1517 H1569 0.929 . S
H1518 C1512 0.930 . S
H1519 C1515 0.930 . S
C1520 N1521 1.314 . S
C1520 C1522 1.353 . S
C1520 H1526 0.930 . S
N1521 Li1497 1.990 . S
N1521 C1520 1.314 . S
N1521 C1524 1.279 . S
C1522 C1520 1.353 . S
C1522 C1525 1.348 . S
C1522 H1570 0.929 . S
C1523 C1524 1.358 . S
C1523 C1525 1.356 . S
C1523 H1571 0.930 . S
C1524 N1521 1.279 . S
C1524 C1523 1.358 . S
C1524 H1527 0.930 . S
C1525 C1522 1.348 . S
C1525 C1523 1.356 . S
H1526 C1520 0.930 . S
H1527 C1524 0.930 . S
C1528 C1530 1.348 . S
C1528 C1531 1.356 . S
C1528 O1558 1.325 . S
N1529 C1532 1.314 . S
N1529 C1533 1.279 . S
C1530 C1528 1.348 . S
C1530 C1532 1.353 . S
C1530 H1572 0.929 . S
C1531 C1528 1.356 . S
C1531 C1533 1.358 . S
C1531 H1573 0.930 . S
C1532 N1529 1.314 . S
C1532 C1530 1.353 . S
C1532 H1574 0.930 . S
C1533 N1529 1.279 . S
C1533 C1531 1.358 . S
C1533 H1575 0.930 . S
C1534 C1535 1.348 . S
C1534 C1536 1.356 . S
C1534 O1559 1.325 . S
C1535 C1534 1.348 . S
C1535 C1537 1.353 . S
C1535 H1576 0.929 . S
C1536 C1534 1.356 . S
C1536 C1538 1.358 . S
C1536 H1577 0.930 . S
C1537 C1535 1.353 . S
C1537 N1539 1.314 . S
C1537 H1578 0.930 . S
C1538 C1536 1.358 . S
C1538 N1539 1.279 . S
C1538 H1579 0.930 . S
N1539 C1537 1.314 . S
N1539 C1538 1.279 . S
C1540 C1542 1.353 . S
C1540 N1543 1.314 . S
C1540 H1546 0.930 . S
C1541 N1543 1.279 . S
C1541 C1544 1.358 . S
C1541 H1547 0.930 . S
C1542 C1540 1.353 . S
C1542 C1545 1.348 . S
C1542 H1580 0.929 . S
N1543 Li1498 1.990 . S
N1543 C1540 1.314 . S
N1543 C1541 1.279 . S
C1544 C1541 1.358 . S
C1544 C1545 1.356 . S
C1544 H1581 0.930 . S
C1545 C1542 1.348 . S
C1545 C1544 1.356 . S
H1546 C1540 0.930 . S
H1547 C1541 0.930 . S
C1548 N1549 1.314 . S
C1548 C1550 1.353 . S
C1548 H1554 0.930 . S
N1549 Li1499 1.990 . S
N1549 C1548 1.314 . S
N1549 C1552 1.279 . S
C1550 C1548 1.353 . S
C1550 C1553 1.348 . S
C1550 H1582 0.929 . S
C1551 C1552 1.358 . S
C1551 C1553 1.356 . S
C1551 H1583 0.930 . S
C1552 N1549 1.279 . S
C1552 C1551 1.358 . S
C1552 H1555 0.930 . S
C1553 C1550 1.348 . S
C1553 C1551 1.356 . S
H1554 C1548 0.930 . S
H1555 C1552 0.930 . S
O1556 Li1496 1.956 . S
O1556 Li1497 1.970 . S
O1556 Li1498 1.961 . S
O1556 C1500 1.325 . S
O1557 Li1496 1.970 . S
O1557 Li1497 1.956 . S
O1557 Li1499 1.961 . S
O1557 C1506 1.325 . S
O1558 Li1496 1.961 . S
O1558 Li1498 1.956 . S
O1558 Li1499 1.970 . S
O1558 C1528 1.325 . S
O1559 Li1497 1.961 . S
O1559 Li1498 1.970 . S
O1559 Li1499 1.956 . S
O1559 C1534 1.325 . S
H1560 C1502 0.929 . S
H1561 C1503 0.930 . S
H1562 C1504 0.930 . S
H1563 C1505 0.930 . S
H1564 C1507 0.930 . S
H1565 C1509 0.929 . S
H1566 C1510 0.930 . S
H1567 C1511 0.930 . S
H1568 C1514 0.930 . S
H1569 C1517 0.929 . S
H1570 C1522 0.929 . S
H1571 C1523 0.930 . S
H1572 C1530 0.929 . S
H1573 C1531 0.930 . S
H1574 C1532 0.930 . S
H1575 C1533 0.930 . S
H1576 C1535 0.929 . S
H1577 C1536 0.930 . S
H1578 C1537 0.930 . S
H1579 C1538 0.930 . S
H1580 C1542 0.929 . S
H1581 C1544 0.930 . S
H1582 C1550 0.929 . S
H1583 C1551 0.930 . S
Li1584 N1601 1.990 . S
Li1584 O1644 1.956 . S
Li1584 O1645 1.970 . S
Li1584 O1646 1.961 . S
Li1585 N1609 1.990 . S
Li1585 O1644 1.970 . S
Li1585 O1645 1.956 . S
Li1585 O1647 1.961 . S
Li1586 N1631 1.990 . S
Li1586 O1644 1.961 . S
Li1586 O1646 1.956 . S
Li1586 O1647 1.970 . S
Li1587 N1637 1.990 . S
Li1587 O1645 1.961 . S
Li1587 O1646 1.970 . S
Li1587 O1647 1.956 . S
C1588 C1590 1.348 . S
C1588 C1591 1.356 . S
C1588 O1644 1.325 . S
N1589 C1592 1.314 . S
N1589 C1593 1.279 . S
C1590 C1588 1.348 . S
C1590 C1592 1.353 . S
C1590 H1648 0.929 . S
C1591 C1588 1.356 . S
C1591 C1593 1.358 . S
C1591 H1649 0.930 . S
C1592 N1589 1.314 . S
C1592 C1590 1.353 . S
C1592 H1650 0.930 . S
C1593 N1589 1.279 . S
C1593 C1591 1.358 . S
C1593 H1651 0.930 . S
C1594 C1597 1.348 . S
C1594 C1598 1.356 . S
C1594 O1645 1.325 . S
C1595 N1596 1.279 . S
C1595 C1598 1.358 . S
C1595 H1652 0.930 . S
N1596 C1595 1.279 . S
N1596 C1599 1.314 . S
C1597 C1594 1.348 . S
C1597 C1599 1.353 . S
C1597 H1653 0.929 . S
C1598 C1594 1.356 . S
C1598 C1595 1.358 . S
C1598 H1654 0.930 . S
C1599 N1596 1.314 . S
C1599 C1597 1.353 . S
C1599 H1655 0.930 . S
C1600 N1601 1.314 . S
C1600 C1605 1.353 . S
C1600 H1606 0.930 . S
N1601 Li1584 1.990 . S
N1601 C1600 1.314 . S
N1601 C1603 1.279 . S
C1602 C1603 1.358 . S
C1602 C1604 1.356 . S
C1602 H1656 0.930 . S
C1603 N1601 1.279 . S
C1603 C1602 1.358 . S
C1603 H1607 0.930 . S
C1604 C1602 1.356 . S
C1604 C1605 1.348 . S
C1605 C1600 1.353 . S
C1605 C1604 1.348 . S
C1605 H1657 0.929 . S
H1606 C1600 0.930 . S
H1607 C1603 0.930 . S
C1608 N1609 1.314 . S
C1608 C1610 1.353 . S
C1608 H1614 0.930 . S
N1609 Li1585 1.990 . S
N1609 C1608 1.314 . S
N1609 C1612 1.279 . S
C1610 C1608 1.353 . S
C1610 C1613 1.348 . S
C1610 H1658 0.929 . S
C1611 C1612 1.358 . S
C1611 C1613 1.356 . S
C1611 H1659 0.930 . S
C1612 N1609 1.279 . S
C1612 C1611 1.358 . S
C1612 H1615 0.930 . S
C1613 C1610 1.348 . S
C1613 C1611 1.356 . S
H1614 C1608 0.930 . S
H1615 C1612 0.930 . S
C1616 C1618 1.348 . S
C1616 C1619 1.356 . S
C1616 O1646 1.325 . S
N1617 C1620 1.314 . S
N1617 C1621 1.279 . S
C1618 C1616 1.348 . S
C1618 C1620 1.353 . S
C1618 H1660 0.929 . S
C1619 C1616 1.356 . S
C1619 C1621 1.358 . S
C1619 H1661 0.930 . S
C1620 N1617 1.314 . S
C1620 C1618 1.353 . S
C1620 H1662 0.930 . S
C1621 N1617 1.279 . S
C1621 C1619 1.358 . S
C1621 H1663 0.930 . S
C1622 C1623 1.348 . S
C1622 C1624 1.356 . S
C1622 O1647 1.325 . S
C1623 C1622 1.348 . S
C1623 C1625 1.353 . S
C1623 H1664 0.929 . S
C1624 C1622 1.356 . S
C1624 C1626 1.358 . S
C1624 H1665 0.930 . S
C1625 C1623 1.353 . S
C1625 N1627 1.314 . S
C1625 H1666 0.930 . S
C1626 C1624 1.358 . S
C1626 N1627 1.279 . S
C1626 H1667 0.930 . S
N1627 C1625 1.314 . S
N1627 C1626 1.279 . S
C1628 C1630 1.353 . S
C1628 N1631 1.314 . S
C1628 H1634 0.930 . S
C1629 N1631 1.279 . S
C1629 C1632 1.358 . S
C1629 H1635 0.930 . S
C1630 C1628 1.353 . S
C1630 C1633 1.348 . S
C1630 H1668 0.929 . S
N1631 Li1586 1.990 . S
N1631 C1628 1.314 . S
N1631 C1629 1.279 . S
C1632 C1629 1.358 . S
C1632 C1633 1.356 . S
C1632 H1669 0.930 . S
C1633 C1630 1.348 . S
C1633 C1632 1.356 . S
H1634 C1628 0.930 . S
H1635 C1629 0.930 . S
C1636 N1637 1.314 . S
C1636 C1638 1.353 . S
C1636 H1642 0.930 . S
N1637 Li1587 1.990 . S
N1637 C1636 1.314 . S
N1637 C1640 1.279 . S
C1638 C1636 1.353 . S
C1638 C1641 1.348 . S
C1638 H1670 0.929 . S
C1639 C1640 1.358 . S
C1639 C1641 1.356 . S
C1639 H1671 0.930 . S
C1640 N1637 1.279 . S
C1640 C1639 1.358 . S
C1640 H1643 0.930 . S
C1641 C1638 1.348 . S
C1641 C1639 1.356 . S
H1642 C1636 0.930 . S
H1643 C1640 0.930 . S
O1644 Li1584 1.956 . S
O1644 Li1585 1.970 . S
O1644 Li1586 1.961 . S
O1644 C1588 1.325 . S
O1645 Li1584 1.970 . S
O1645 Li1585 1.956 . S
O1645 Li1587 1.961 . S
O1645 C1594 1.325 . S
O1646 Li1584 1.961 . S
O1646 Li1586 1.956 . S
O1646 Li1587 1.970 . S
O1646 C1616 1.325 . S
O1647 Li1585 1.961 . S
O1647 Li1586 1.970 . S
O1647 Li1587 1.956 . S
O1647 C1622 1.325 . S
H1648 C1590 0.929 . S
H1649 C1591 0.930 . S
H1650 C1592 0.930 . S
H1651 C1593 0.930 . S
H1652 C1595 0.930 . S
H1653 C1597 0.929 . S
H1654 C1598 0.930 . S
H1655 C1599 0.930 . S
H1656 C1602 0.930 . S
H1657 C1605 0.929 . S
H1658 C1610 0.929 . S
H1659 C1611 0.930 . S
H1660 C1618 0.929 . S
H1661 C1619 0.930 . S
H1662 C1620 0.930 . S
H1663 C1621 0.930 . S
H1664 C1623 0.929 . S
H1665 C1624 0.930 . S
H1666 C1625 0.930 . S
H1667 C1626 0.930 . S
H1668 C1630 0.929 . S
H1669 C1632 0.930 . S
H1670 C1638 0.929 . S
H1671 C1639 0.930 . S
Li1672 N1689 1.990 . S
Li1672 O1732 1.956 . S
Li1672 O1733 1.970 . S
Li1672 O1734 1.974 . S
Li1673 N1697 1.990 . S
Li1673 O1732 1.970 . S
Li1673 O1733 1.956 . S
Li1673 O1735 1.961 . S
Li1674 N1719 1.990 . S
Li1674 O1732 1.961 . S
Li1674 O1734 1.971 . S
Li1674 O1735 1.970 . S
Li1675 N1725 1.990 1_545 S
Li1675 O1733 1.961 . S
Li1675 O1734 1.970 . S
Li1675 O1735 1.956 . S
C1676 C1678 1.348 . S
C1676 C1679 1.356 . S
C1676 O1732 1.325 . S
N1677 C1680 1.314 . S
N1677 C1681 1.279 . S
C1678 C1676 1.348 . S
C1678 C1680 1.353 . S
C1678 H1736 0.929 . S
C1679 C1676 1.356 . S
C1679 C1681 1.358 . S
C1679 H1737 0.930 . S
C1680 N1677 1.314 . S
C1680 C1678 1.353 . S
C1680 H1738 0.930 . S
C1681 N1677 1.279 . S
C1681 C1679 1.358 . S
C1681 H1739 0.930 . S
C1682 C1685 1.348 . S
C1682 C1686 1.356 . S
C1682 O1733 1.325 . S
C1683 N1684 1.279 1_556 S
C1683 C1686 1.358 . S
C1683 H1740 0.930 . S
N1684 C1683 1.279 1_554 S
N1684 C1687 1.314 . S
C1685 C1682 1.348 . S
C1685 C1687 1.353 1_556 S
C1685 H1741 0.929 . S
C1686 C1682 1.356 . S
C1686 C1683 1.358 . S
C1686 H1742 0.930 . S
C1687 N1684 1.314 . S
C1687 C1685 1.353 1_554 S
C1687 H1743 0.930 . S
C1688 N1689 1.314 . S
C1688 C1693 1.353 . S
C1688 H1694 0.930 1_545 S
N1689 Li1672 1.990 . S
N1689 C1688 1.314 . S
N1689 C1691 1.279 . S
C1690 C1691 1.358 . S
C1690 C1692 1.356 1_556 S
C1690 H1744 0.930 . S
C1691 N1689 1.279 . S
C1691 C1690 1.358 . S
C1691 H1695 0.930 . S
C1692 C1690 1.356 1_554 S
C1692 C1693 1.348 1_554 S
C1693 C1688 1.353 . S
C1693 C1692 1.348 1_556 S
C1693 H1745 0.929 1_545 S
H1694 C1688 0.930 1_565 S
H1695 C1691 0.930 . S
C1696 N1697 1.314 . S
C1696 C1698 1.353 . S
C1696 H1702 0.930 . S
N1697 Li1673 1.990 . S
N1697 C1696 1.314 . S
N1697 C1700 1.279 . S
C1698 C1696 1.353 . S
C1698 C1701 1.348 . S
C1698 H1746 0.929 . S
C1699 C1700 1.358 . S
C1699 C1701 1.356 . S
C1699 H1747 0.930 . S
C1700 N1697 1.279 . S
C1700 C1699 1.358 . S
C1700 H1703 0.930 . S
C1701 C1698 1.348 . S
C1701 C1699 1.356 . S
H1702 C1696 0.930 . S
H1703 C1700 0.930 . S
C1704 C1706 1.348 . S
C1704 C1707 1.356 . S
C1704 O1734 1.311 1_565 S
N1705 C1708 1.314 . S
N1705 C1709 1.279 . S
C1706 C1704 1.348 . S
C1706 C1708 1.353 . S
C1706 H1748 0.929 . S
C1707 C1704 1.356 . S
C1707 C1709 1.358 . S
C1707 H1749 0.930 . S
C1708 N1705 1.314 . S
C1708 C1706 1.353 . S
C1708 H1750 0.930 . S
C1709 N1705 1.279 . S
C1709 C1707 1.358 . S
C1709 H1751 0.930 . S
C1710 C1711 1.348 . S
C1710 C1712 1.356 . S
C1710 O1735 1.325 . S
C1711 C1710 1.348 . S
C1711 C1713 1.353 . S
C1711 H1752 0.929 . S
C1712 C1710 1.356 . S
C1712 C1714 1.358 . S
C1712 H1753 0.930 . S
C1713 C1711 1.353 . S
C1713 N1715 1.314 . S
C1713 H1754 0.930 . S
C1714 C1712 1.358 . S
C1714 N1715 1.279 . S
C1714 H1755 0.930 . S
N1715 C1713 1.314 . S
N1715 C1714 1.279 . S
C1716 C1718 1.353 . S
C1716 N1719 1.314 . S
C1716 H1722 0.930 . S
C1717 N1719 1.279 1_565 S
C1717 C1720 1.358 . S
C1717 H1723 0.930 . S
C1718 C1716 1.353 . S
C1718 C1721 1.348 . S
C1718 H1756 0.929 . S
N1719 Li1674 1.990 . S
N1719 C1716 1.314 . S
N1719 C1717 1.279 1_545 S
C1720 C1717 1.358 . S
C1720 C1721 1.356 1_565 S
C1720 H1757 0.930 . S
C1721 C1718 1.348 . S
C1721 C1720 1.356 1_545 S
H1722 C1716 0.930 . S
H1723 C1717 0.930 . S
C1724 N1725 1.314 . S
C1724 C1726 1.353 . S
C1724 H1730 0.930 . S
N1725 Li1675 1.990 1_565 S
N1725 C1724 1.314 . S
N1725 C1728 1.279 . S
C1726 C1724 1.353 . S
C1726 C1729 1.348 . S
C1726 H1758 0.929 . S
C1727 C1728 1.358 . S
C1727 C1729 1.356 . S
C1727 H1759 0.930 . S
C1728 N1725 1.279 . S
C1728 C1727 1.358 . S
C1728 H1731 0.930 . S
C1729 C1726 1.348 . S
C1729 C1727 1.356 . S
H1730 C1724 0.930 . S
H1731 C1728 0.930 . S
O1732 Li1672 1.956 . S
O1732 Li1673 1.970 . S
O1732 Li1674 1.961 . S
O1732 C1676 1.325 . S
O1733 Li1672 1.970 . S
O1733 Li1673 1.956 . S
O1733 Li1675 1.961 . S
O1733 C1682 1.325 . S
O1734 Li1672 1.974 . S
O1734 Li1674 1.971 . S
O1734 Li1675 1.970 . S
O1734 C1704 1.311 1_545 S
O1735 Li1673 1.961 . S
O1735 Li1674 1.970 . S
O1735 Li1675 1.956 . S
O1735 C1710 1.325 . S
H1736 C1678 0.929 . S
H1737 C1679 0.930 . S
H1738 C1680 0.930 . S
H1739 C1681 0.930 . S
H1740 C1683 0.930 . S
H1741 C1685 0.929 . S
H1742 C1686 0.930 . S
H1743 C1687 0.930 . S
H1744 C1690 0.930 . S
H1745 C1693 0.929 1_565 S
H1746 C1698 0.929 . S
H1747 C1699 0.930 . S
H1748 C1706 0.929 . S
H1749 C1707 0.930 . S
H1750 C1708 0.930 . S
H1751 C1709 0.930 . S
H1752 C1711 0.929 . S
H1753 C1712 0.930 . S
H1754 C1713 0.930 . S
H1755 C1714 0.930 . S
H1756 C1718 0.929 . S
H1757 C1720 0.930 . S
H1758 C1726 0.929 . S
H1759 C1727 0.930 . S
Li1760 N1777 1.990 . S
Li1760 O1820 1.956 . S
Li1760 O1821 1.970 . S
Li1760 O1822 1.961 . S
Li1761 N1785 1.990 . S
Li1761 O1820 1.970 . S
Li1761 O1821 1.956 . S
Li1761 O1823 1.961 . S
Li1762 N1807 1.990 . S
Li1762 O1820 1.961 . S
Li1762 O1822 1.956 . S
Li1762 O1823 1.970 . S
Li1763 N1813 1.990 . S
Li1763 O1821 1.961 . S
Li1763 O1822 1.970 . S
Li1763 O1823 1.956 . S
C1764 C1766 1.348 . S
C1764 C1767 1.356 . S
C1764 O1820 1.325 . S
N1765 C1768 1.314 . S
N1765 C1769 1.279 . S
C1766 C1764 1.348 . S
C1766 C1768 1.353 . S
C1766 H1824 0.929 . S
C1767 C1764 1.356 . S
C1767 C1769 1.358 . S
C1767 H1825 0.930 . S
C1768 N1765 1.314 . S
C1768 C1766 1.353 . S
C1768 H1826 0.930 . S
C1769 N1765 1.279 . S
C1769 C1767 1.358 . S
C1769 H1827 0.930 . S
C1770 C1773 1.348 . S
C1770 C1774 1.356 . S
C1770 O1821 1.325 . S
C1771 N1772 1.279 . S
C1771 C1774 1.358 . S
C1771 H1828 0.930 . S
N1772 C1771 1.279 . S
N1772 C1775 1.314 . S
C1773 C1770 1.348 . S
C1773 C1775 1.353 . S
C1773 H1829 0.929 . S
C1774 C1770 1.356 . S
C1774 C1771 1.358 . S
C1774 H1830 0.930 . S
C1775 N1772 1.314 . S
C1775 C1773 1.353 . S
C1775 H1831 0.930 . S
C1776 N1777 1.314 . S
C1776 C1781 1.353 . S
C1776 H1782 0.930 . S
N1777 Li1760 1.990 . S
N1777 C1776 1.314 . S
N1777 C1779 1.279 . S
C1778 C1779 1.358 . S
C1778 C1780 1.356 . S
C1778 H1832 0.930 . S
C1779 N1777 1.279 . S
C1779 C1778 1.358 . S
C1779 H1783 0.930 . S
C1780 C1778 1.356 . S
C1780 C1781 1.348 . S
C1781 C1776 1.353 . S
C1781 C1780 1.348 . S
C1781 H1833 0.929 . S
H1782 C1776 0.930 . S
H1783 C1779 0.930 . S
C1784 N1785 1.314 . S
C1784 C1786 1.353 . S
C1784 H1790 0.930 . S
N1785 Li1761 1.990 . S
N1785 C1784 1.314 . S
N1785 C1788 1.279 . S
C1786 C1784 1.353 . S
C1786 C1789 1.348 . S
C1786 H1834 0.929 . S
C1787 C1788 1.358 . S
C1787 C1789 1.356 . S
C1787 H1835 0.930 . S
C1788 N1785 1.279 . S
C1788 C1787 1.358 . S
C1788 H1791 0.930 . S
C1789 C1786 1.348 . S
C1789 C1787 1.356 . S
H1790 C1784 0.930 . S
H1791 C1788 0.930 . S
C1792 C1794 1.348 . S
C1792 C1795 1.356 . S
C1792 O1822 1.325 . S
N1793 C1796 1.314 . S
N1793 C1797 1.279 . S
C1794 C1792 1.348 . S
C1794 C1796 1.353 . S
C1794 H1836 0.929 . S
C1795 C1792 1.356 . S
C1795 C1797 1.358 . S
C1795 H1837 0.930 . S
C1796 N1793 1.314 . S
C1796 C1794 1.353 . S
C1796 H1838 0.930 . S
C1797 N1793 1.279 . S
C1797 C1795 1.358 . S
C1797 H1839 0.930 . S
C1798 C1799 1.348 1_554 S
C1798 C1800 1.356 . S
C1798 O1823 1.325 . S
C1799 C1798 1.348 1_556 S
C1799 C1801 1.353 . S
C1799 H1840 0.929 . S
C1800 C1798 1.356 . S
C1800 C1802 1.358 1_554 S
C1800 H1841 0.930 . S
C1801 C1799 1.353 . S
C1801 N1803 1.314 . S
C1801 H1842 0.930 . S
C1802 C1800 1.358 1_556 S
C1802 N1803 1.279 . S
C1802 H1843 0.930 . S
N1803 C1801 1.314 . S
N1803 C1802 1.279 . S
C1804 C1806 1.353 1_554 S
C1804 N1807 1.314 . S
C1804 H1810 0.930 . S
C1805 N1807 1.279 . S
C1805 C1808 1.358 1_554 S
C1805 H1811 0.930 . S
C1806 C1804 1.353 1_556 S
C1806 C1809 1.348 . S
C1806 H1844 0.929 . S
N1807 Li1762 1.990 . S
N1807 C1804 1.314 . S
N1807 C1805 1.279 . S
C1808 C1805 1.358 1_556 S
C1808 C1809 1.356 . S
C1808 H1845 0.930 . S
C1809 C1806 1.348 . S
C1809 C1808 1.356 . S
H1810 C1804 0.930 . S
H1811 C1805 0.930 . S
C1812 N1813 1.314 . S
C1812 C1814 1.353 . S
C1812 H1818 0.930 . S
N1813 Li1763 1.990 . S
N1813 C1812 1.314 . S
N1813 C1816 1.279 . S
C1814 C1812 1.353 . S
C1814 C1817 1.348 . S
C1814 H1846 0.929 . S
C1815 C1816 1.358 . S
C1815 C1817 1.356 . S
C1815 H1847 0.930 . S
C1816 N1813 1.279 . S
C1816 C1815 1.358 . S
C1816 H1819 0.930 . S
C1817 C1814 1.348 . S
C1817 C1815 1.356 . S
H1818 C1812 0.930 . S
H1819 C1816 0.930 . S
O1820 Li1760 1.956 . S
O1820 Li1761 1.970 . S
O1820 Li1762 1.961 . S
O1820 C1764 1.325 . S
O1821 Li1760 1.970 . S
O1821 Li1761 1.956 . S
O1821 Li1763 1.961 . S
O1821 C1770 1.325 . S
O1822 Li1760 1.961 . S
O1822 Li1762 1.956 . S
O1822 Li1763 1.970 . S
O1822 C1792 1.325 . S
O1823 Li1761 1.961 . S
O1823 Li1762 1.970 . S
O1823 Li1763 1.956 . S
O1823 C1798 1.325 . S
H1824 C1766 0.929 . S
H1825 C1767 0.930 . S
H1826 C1768 0.930 . S
H1827 C1769 0.930 . S
H1828 C1771 0.930 . S
H1829 C1773 0.929 . S
H1830 C1774 0.930 . S
H1831 C1775 0.930 . S
H1832 C1778 0.930 . S
H1833 C1781 0.929 . S
H1834 C1786 0.929 . S
H1835 C1787 0.930 . S
H1836 C1794 0.929 . S
H1837 C1795 0.930 . S
H1838 C1796 0.930 . S
H1839 C1797 0.930 . S
H1840 C1799 0.929 . S
H1841 C1800 0.930 . S
H1842 C1801 0.930 . S
H1843 C1802 0.930 . S
H1844 C1806 0.929 . S
H1845 C1808 0.930 . S
H1846 C1814 0.929 . S
H1847 C1815 0.930 . S
Li1848 N1865 1.990 . S
Li1848 O1908 1.956 . S
Li1848 O1909 1.970 . S
Li1848 O1910 1.961 . S
Li1849 N1873 1.990 . S
Li1849 O1908 1.970 . S
Li1849 O1909 1.956 . S
Li1849 O1911 1.961 . S
Li1850 N1895 1.990 . S
Li1850 O1908 1.961 . S
Li1850 O1910 1.956 . S
Li1850 O1911 1.970 . S
Li1851 N1901 1.990 . S
Li1851 O1909 1.961 . S
Li1851 O1910 1.970 . S
Li1851 O1911 1.956 . S
C1852 C1854 1.348 . S
C1852 C1855 1.356 . S
C1852 O1908 1.325 . S
N1853 C1856 1.314 . S
N1853 C1857 1.279 . S
C1854 C1852 1.348 . S
C1854 C1856 1.353 . S
C1854 H1912 0.929 . S
C1855 C1852 1.356 . S
C1855 C1857 1.358 . S
C1855 H1913 0.930 . S
C1856 N1853 1.314 . S
C1856 C1854 1.353 . S
C1856 H1914 0.930 . S
C1857 N1853 1.279 . S
C1857 C1855 1.358 . S
C1857 H1915 0.930 . S
C1858 C1861 1.348 . S
C1858 C1862 1.356 . S
C1858 O1909 1.325 . S
C1859 N1860 1.279 . S
C1859 C1862 1.358 . S
C1859 H1916 0.930 1_655 S
N1860 C1859 1.279 . S
N1860 C1863 1.314 . S
C1861 C1858 1.348 . S
C1861 C1863 1.353 . S
C1861 H1917 0.929 . S
C1862 C1858 1.356 . S
C1862 C1859 1.358 . S
C1862 H1918 0.930 . S
C1863 N1860 1.314 . S
C1863 C1861 1.353 . S
C1863 H1919 0.930 . S
C1864 N1865 1.314 . S
C1864 C1869 1.353 . S
C1864 H1870 0.930 . S
N1865 Li1848 1.990 . S
N1865 C1864 1.314 . S
N1865 C1867 1.279 . S
C1866 C1867 1.358 . S
C1866 C1868 1.356 . S
C1866 H1920 0.930 . S
C1867 N1865 1.279 . S
C1867 C1866 1.358 . S
C1867 H1871 0.930 . S
C1868 C1866 1.356 . S
C1868 C1869 1.348 . S
C1869 C1864 1.353 . S
C1869 C1868 1.348 . S
C1869 H1921 0.929 . S
H1870 C1864 0.930 . S
H1871 C1867 0.930 . S
C1872 N1873 1.314 . S
C1872 C1874 1.353 . S
C1872 H1878 0.930 . S
N1873 Li1849 1.990 . S
N1873 C1872 1.314 . S
N1873 C1876 1.279 . S
C1874 C1872 1.353 . S
C1874 C1877 1.348 1_655 S
C1874 H1922 0.929 . S
C1875 C1876 1.358 . S
C1875 C1877 1.356 1_655 S
C1875 H1923 0.930 1_655 S
C1876 N1873 1.279 . S
C1876 C1875 1.358 . S
C1876 H1879 0.930 . S
C1877 C1874 1.348 1_455 S
C1877 C1875 1.356 1_455 S
H1878 C1872 0.930 . S
H1879 C1876 0.930 . S
C1880 C1882 1.348 . S
C1880 C1883 1.356 . S
C1880 O1910 1.325 . S
N1881 C1884 1.314 . S
N1881 C1885 1.279 . S
C1882 C1880 1.348 . S
C1882 C1884 1.353 . S
C1882 H1924 0.929 . S
C1883 C1880 1.356 . S
C1883 C1885 1.358 . S
C1883 H1925 0.930 . S
C1884 N1881 1.314 . S
C1884 C1882 1.353 . S
C1884 H1926 0.930 . S
C1885 N1881 1.279 . S
C1885 C1883 1.358 . S
C1885 H1927 0.930 . S
C1886 C1887 1.348 . S
C1886 C1888 1.356 . S
C1886 O1911 1.325 . S
C1887 C1886 1.348 . S
C1887 C1889 1.353 . S
C1887 H1928 0.929 . S
C1888 C1886 1.356 . S
C1888 C1890 1.358 1_655 S
C1888 H1929 0.930 . S
C1889 C1887 1.353 . S
C1889 N1891 1.314 . S
C1889 H1930 0.930 . S
C1890 C1888 1.358 1_455 S
C1890 N1891 1.279 1_455 S
C1890 H1931 0.930 . S
N1891 C1889 1.314 . S
N1891 C1890 1.279 1_655 S
C1892 C1894 1.353 . S
C1892 N1895 1.314 . S
C1892 H1898 0.930 . S
C1893 N1895 1.279 . S
C1893 C1896 1.358 . S
C1893 H1899 0.930 . S
C1894 C1892 1.353 . S
C1894 C1897 1.348 . S
C1894 H1932 0.929 . S
N1895 Li1850 1.990 . S
N1895 C1892 1.314 . S
N1895 C1893 1.279 . S
C1896 C1893 1.358 . S
C1896 C1897 1.356 . S
C1896 H1933 0.930 . S
C1897 C1894 1.348 . S
C1897 C1896 1.356 . S
H1898 C1892 0.930 . S
H1899 C1893 0.930 . S
C1900 N1901 1.314 . S
C1900 C1902 1.353 . S
C1900 H1906 0.930 . S
N1901 Li1851 1.990 . S
N1901 C1900 1.314 . S
N1901 C1904 1.279 . S
C1902 C1900 1.353 . S
C1902 C1905 1.348 . S
C1902 H1934 0.929 . S
C1903 C1904 1.358 . S
C1903 C1905 1.356 . S
C1903 H1935 0.930 . S
C1904 N1901 1.279 . S
C1904 C1903 1.358 . S
C1904 H1907 0.930 . S
C1905 C1902 1.348 . S
C1905 C1903 1.356 . S
H1906 C1900 0.930 . S
H1907 C1904 0.930 . S
O1908 Li1848 1.956 . S
O1908 Li1849 1.970 . S
O1908 Li1850 1.961 . S
O1908 C1852 1.325 . S
O1909 Li1848 1.970 . S
O1909 Li1849 1.956 . S
O1909 Li1851 1.961 . S
O1909 C1858 1.325 . S
O1910 Li1848 1.961 . S
O1910 Li1850 1.956 . S
O1910 Li1851 1.970 . S
O1910 C1880 1.325 . S
O1911 Li1849 1.961 . S
O1911 Li1850 1.970 . S
O1911 Li1851 1.956 . S
O1911 C1886 1.325 . S
H1912 C1854 0.929 . S
H1913 C1855 0.930 . S
H1914 C1856 0.930 . S
H1915 C1857 0.930 . S
H1916 C1859 0.930 1_455 S
H1917 C1861 0.929 . S
H1918 C1862 0.930 . S
H1919 C1863 0.930 . S
H1920 C1866 0.930 . S
H1921 C1869 0.929 . S
H1922 C1874 0.929 . S
H1923 C1875 0.930 1_455 S
H1924 C1882 0.929 . S
H1925 C1883 0.930 . S
H1926 C1884 0.930 . S
H1927 C1885 0.930 . S
H1928 C1887 0.929 . S
H1929 C1888 0.930 . S
H1930 C1889 0.930 . S
H1931 C1890 0.930 . S
H1932 C1894 0.929 . S
H1933 C1896 0.930 . S
H1934 C1902 0.929 . S
H1935 C1903 0.930 . S
Li1936 N1953 1.990 . S
Li1936 O1996 1.956 . S
Li1936 O1997 1.970 . S
Li1936 O1998 1.961 . S
Li1937 N1961 1.990 . S
Li1937 O1996 1.970 . S
Li1937 O1997 1.956 . S
Li1937 O1999 1.961 . S
Li1938 N1983 1.990 . S
Li1938 O1996 1.961 . S
Li1938 O1998 1.956 . S
Li1938 O1999 1.970 . S
Li1939 N1989 1.990 . S
Li1939 O1997 1.961 . S
Li1939 O1998 1.970 . S
Li1939 O1999 1.956 . S
C1940 C1942 1.348 . S
C1940 C1943 1.356 . S
C1940 O1996 1.325 . S
N1941 C1944 1.314 . S
N1941 C1945 1.279 . S
C1942 C1940 1.348 . S
C1942 C1944 1.353 . S
C1942 H2000 0.929 . S
C1943 C1940 1.356 . S
C1943 C1945 1.358 . S
C1943 H2001 0.930 . S
C1944 N1941 1.314 . S
C1944 C1942 1.353 . S
C1944 H2002 0.930 . S
C1945 N1941 1.279 . S
C1945 C1943 1.358 . S
C1945 H2003 0.930 . S
C1946 C1949 1.348 . S
C1946 C1950 1.356 . S
C1946 O1997 1.325 . S
C1947 N1948 1.279 . S
C1947 C1950 1.358 . S
C1947 H2004 0.930 . S
N1948 C1947 1.279 . S
N1948 C1951 1.314 . S
C1949 C1946 1.348 . S
C1949 C1951 1.353 . S
C1949 H2005 0.929 . S
C1950 C1946 1.356 . S
C1950 C1947 1.358 . S
C1950 H2006 0.930 . S
C1951 N1948 1.314 . S
C1951 C1949 1.353 . S
C1951 H2007 0.930 . S
C1952 N1953 1.314 . S
C1952 C1957 1.353 . S
C1952 H1958 0.930 . S
N1953 Li1936 1.990 . S
N1953 C1952 1.314 . S
N1953 C1955 1.279 . S
C1954 C1955 1.358 . S
C1954 C1956 1.356 . S
C1954 H2008 0.930 . S
C1955 N1953 1.279 . S
C1955 C1954 1.358 . S
C1955 H1959 0.930 . S
C1956 C1954 1.356 . S
C1956 C1957 1.348 . S
C1957 C1952 1.353 . S
C1957 C1956 1.348 . S
C1957 H2009 0.929 . S
H1958 C1952 0.930 . S
H1959 C1955 0.930 . S
C1960 N1961 1.314 . S
C1960 C1962 1.353 . S
C1960 H1966 0.930 . S
N1961 Li1937 1.990 . S
N1961 C1960 1.314 . S
N1961 C1964 1.279 . S
C1962 C1960 1.353 . S
C1962 C1965 1.348 . S
C1962 H2010 0.929 . S
C1963 C1964 1.358 . S
C1963 C1965 1.356 . S
C1963 H2011 0.930 . S
C1964 N1961 1.279 . S
C1964 C1963 1.358 . S
C1964 H1967 0.930 . S
C1965 C1962 1.348 . S
C1965 C1963 1.356 . S
H1966 C1960 0.930 . S
H1967 C1964 0.930 . S
C1968 C1970 1.348 . S
C1968 C1971 1.356 . S
C1968 O1998 1.325 . S
N1969 C1972 1.314 . S
N1969 C1973 1.279 . S
C1970 C1968 1.348 . S
C1970 C1972 1.353 . S
C1970 H2012 0.929 . S
C1971 C1968 1.356 . S
C1971 C1973 1.358 . S
C1971 H2013 0.930 . S
C1972 N1969 1.314 . S
C1972 C1970 1.353 . S
C1972 H2014 0.930 . S
C1973 N1969 1.279 . S
C1973 C1971 1.358 . S
C1973 H2015 0.930 . S
C1974 C1975 1.348 . S
C1974 C1976 1.356 . S
C1974 O1999 1.325 . S
C1975 C1974 1.348 . S
C1975 C1977 1.353 . S
C1975 H2016 0.929 . S
C1976 C1974 1.356 . S
C1976 C1978 1.358 . S
C1976 H2017 0.930 . S
C1977 C1975 1.353 . S
C1977 N1979 1.314 . S
C1977 H2018 0.930 . S
C1978 C1976 1.358 . S
C1978 N1979 1.279 . S
C1978 H2019 0.930 . S
N1979 C1977 1.314 . S
N1979 C1978 1.279 . S
C1980 C1982 1.353 . S
C1980 N1983 1.314 . S
C1980 H1986 0.930 . S
C1981 N1983 1.279 . S
C1981 C1984 1.358 . S
C1981 H1987 0.930 . S
C1982 C1980 1.353 . S
C1982 C1985 1.348 . S
C1982 H2020 0.929 . S
N1983 Li1938 1.990 . S
N1983 C1980 1.314 . S
N1983 C1981 1.279 . S
C1984 C1981 1.358 . S
C1984 C1985 1.356 . S
C1984 H2021 0.930 . S
C1985 C1982 1.348 . S
C1985 C1984 1.356 . S
H1986 C1980 0.930 . S
H1987 C1981 0.930 . S
C1988 N1989 1.314 . S
C1988 C1990 1.353 . S
C1988 H1994 0.930 . S
N1989 Li1939 1.990 . S
N1989 C1988 1.314 . S
N1989 C1992 1.279 . S
C1990 C1988 1.353 . S
C1990 C1993 1.348 . S
C1990 H2022 0.929 . S
C1991 C1992 1.358 . S
C1991 C1993 1.356 . S
C1991 H2023 0.930 . S
C1992 N1989 1.279 . S
C1992 C1991 1.358 . S
C1992 H1995 0.930 . S
C1993 C1990 1.348 . S
C1993 C1991 1.356 . S
H1994 C1988 0.930 . S
H1995 C1992 0.930 . S
O1996 Li1936 1.956 . S
O1996 Li1937 1.970 . S
O1996 Li1938 1.961 . S
O1996 C1940 1.325 . S
O1997 Li1936 1.970 . S
O1997 Li1937 1.956 . S
O1997 Li1939 1.961 . S
O1997 C1946 1.325 . S
O1998 Li1936 1.961 . S
O1998 Li1938 1.956 . S
O1998 Li1939 1.970 . S
O1998 C1968 1.325 . S
O1999 Li1937 1.961 . S
O1999 Li1938 1.970 . S
O1999 Li1939 1.956 . S
O1999 C1974 1.325 . S
H2000 C1942 0.929 . S
H2001 C1943 0.930 . S
H2002 C1944 0.930 . S
H2003 C1945 0.930 . S
H2004 C1947 0.930 . S
H2005 C1949 0.929 . S
H2006 C1950 0.930 . S
H2007 C1951 0.930 . S
H2008 C1954 0.930 . S
H2009 C1957 0.929 . S
H2010 C1962 0.929 . S
H2011 C1963 0.930 . S
H2012 C1970 0.929 . S
H2013 C1971 0.930 . S
H2014 C1972 0.930 . S
H2015 C1973 0.930 . S
H2016 C1975 0.929 . S
H2017 C1976 0.930 . S
H2018 C1977 0.930 . S
H2019 C1978 0.930 . S
H2020 C1982 0.929 . S
H2021 C1984 0.930 . S
H2022 C1990 0.929 . S
H2023 C1991 0.930 . S
Li2024 N2041 1.990 . S
Li2024 O2084 1.956 . S
Li2024 O2085 1.970 . S
Li2024 O2086 1.961 . S
Li2025 N2049 1.990 . S
Li2025 O2084 1.970 . S
Li2025 O2085 1.956 . S
Li2025 O2087 1.961 . S
Li2026 N2071 1.990 . S
Li2026 O2084 1.961 . S
Li2026 O2086 1.956 . S
Li2026 O2087 1.970 . S
Li2027 N2077 1.990 . S
Li2027 O2085 1.961 . S
Li2027 O2086 1.970 . S
Li2027 O2087 1.956 . S
C2028 C2030 1.348 . S
C2028 C2031 1.356 . S
C2028 O2084 1.325 . S
N2029 C2032 1.314 . S
N2029 C2033 1.279 . S
C2030 C2028 1.348 . S
C2030 C2032 1.353 . S
C2030 H2088 0.929 . S
C2031 C2028 1.356 . S
C2031 C2033 1.358 . S
C2031 H2089 0.930 . S
C2032 N2029 1.314 . S
C2032 C2030 1.353 . S
C2032 H2090 0.930 . S
C2033 N2029 1.279 . S
C2033 C2031 1.358 . S
C2033 H2091 0.930 . S
C2034 C2037 1.348 . S
C2034 C2038 1.356 . S
C2034 O2085 1.325 . S
C2035 N2036 1.279 . S
C2035 C2038 1.358 . S
C2035 H2092 0.930 . S
N2036 C2035 1.279 . S
N2036 C2039 1.314 . S
C2037 C2034 1.348 . S
C2037 C2039 1.353 . S
C2037 H2093 0.929 . S
C2038 C2034 1.356 . S
C2038 C2035 1.358 . S
C2038 H2094 0.930 . S
C2039 N2036 1.314 . S
C2039 C2037 1.353 . S
C2039 H2095 0.930 . S
C2040 N2041 1.314 . S
C2040 C2045 1.353 . S
C2040 H2046 0.930 . S
N2041 Li2024 1.990 . S
N2041 C2040 1.314 . S
N2041 C2043 1.279 . S
C2042 C2043 1.358 . S
C2042 C2044 1.356 . S
C2042 H2096 0.930 . S
C2043 N2041 1.279 . S
C2043 C2042 1.358 . S
C2043 H2047 0.930 . S
C2044 C2042 1.356 . S
C2044 C2045 1.348 . S
C2045 C2040 1.353 . S
C2045 C2044 1.348 . S
C2045 H2097 0.929 . S
H2046 C2040 0.930 . S
H2047 C2043 0.930 . S
C2048 N2049 1.314 . S
C2048 C2050 1.353 . S
C2048 H2054 0.930 . S
N2049 Li2025 1.990 . S
N2049 C2048 1.314 . S
N2049 C2052 1.279 . S
C2050 C2048 1.353 . S
C2050 C2053 1.348 . S
C2050 H2098 0.929 . S
C2051 C2052 1.358 . S
C2051 C2053 1.356 . S
C2051 H2099 0.930 . S
C2052 N2049 1.279 . S
C2052 C2051 1.358 . S
C2052 H2055 0.930 . S
C2053 C2050 1.348 . S
C2053 C2051 1.356 . S
H2054 C2048 0.930 . S
H2055 C2052 0.930 . S
C2056 C2058 1.348 . S
C2056 C2059 1.356 . S
C2056 O2086 1.325 . S
N2057 C2060 1.314 . S
N2057 C2061 1.279 . S
C2058 C2056 1.348 . S
C2058 C2060 1.353 . S
C2058 H2100 0.929 . S
C2059 C2056 1.356 . S
C2059 C2061 1.358 . S
C2059 H2101 0.930 . S
C2060 N2057 1.314 . S
C2060 C2058 1.353 . S
C2060 H2102 0.930 . S
C2061 N2057 1.279 . S
C2061 C2059 1.358 . S
C2061 H2103 0.930 . S
C2062 C2063 1.348 . S
C2062 C2064 1.356 . S
C2062 O2087 1.325 . S
C2063 C2062 1.348 . S
C2063 C2065 1.353 . S
C2063 H2104 0.929 . S
C2064 C2062 1.356 . S
C2064 C2066 1.358 . S
C2064 H2105 0.930 . S
C2065 C2063 1.353 . S
C2065 N2067 1.314 . S
C2065 H2106 0.930 . S
C2066 C2064 1.358 . S
C2066 N2067 1.279 . S
C2066 H2107 0.930 . S
N2067 C2065 1.314 . S
N2067 C2066 1.279 . S
C2068 C2070 1.353 . S
C2068 N2071 1.314 . S
C2068 H2074 0.930 . S
C2069 N2071 1.279 . S
C2069 C2072 1.358 . S
C2069 H2075 0.930 . S
C2070 C2068 1.353 . S
C2070 C2073 1.348 . S
C2070 H2108 0.929 . S
N2071 Li2026 1.990 . S
N2071 C2068 1.314 . S
N2071 C2069 1.279 . S
C2072 C2069 1.358 . S
C2072 C2073 1.356 . S
C2072 H2109 0.930 . S
C2073 C2070 1.348 . S
C2073 C2072 1.356 . S
H2074 C2068 0.930 . S
H2075 C2069 0.930 . S
C2076 N2077 1.314 . S
C2076 C2078 1.353 . S
C2076 H2082 0.930 . S
N2077 Li2027 1.990 . S
N2077 C2076 1.314 . S
N2077 C2080 1.279 . S
C2078 C2076 1.353 . S
C2078 C2081 1.348 . S
C2078 H2110 0.929 . S
C2079 C2080 1.358 . S
C2079 C2081 1.356 . S
C2079 H2111 0.930 . S
C2080 N2077 1.279 . S
C2080 C2079 1.358 . S
C2080 H2083 0.930 . S
C2081 C2078 1.348 . S
C2081 C2079 1.356 . S
H2082 C2076 0.930 . S
H2083 C2080 0.930 . S
O2084 Li2024 1.956 . S
O2084 Li2025 1.970 . S
O2084 Li2026 1.961 . S
O2084 C2028 1.325 . S
O2085 Li2024 1.970 . S
O2085 Li2025 1.956 . S
O2085 Li2027 1.961 . S
O2085 C2034 1.325 . S
O2086 Li2024 1.961 . S
O2086 Li2026 1.956 . S
O2086 Li2027 1.970 . S
O2086 C2056 1.325 . S
O2087 Li2025 1.961 . S
O2087 Li2026 1.970 . S
O2087 Li2027 1.956 . S
O2087 C2062 1.325 . S
H2088 C2030 0.929 . S
H2089 C2031 0.930 . S
H2090 C2032 0.930 . S
H2091 C2033 0.930 . S
H2092 C2035 0.930 . S
H2093 C2037 0.929 . S
H2094 C2038 0.930 . S
H2095 C2039 0.930 . S
H2096 C2042 0.930 . S
H2097 C2045 0.929 . S
H2098 C2050 0.929 . S
H2099 C2051 0.930 . S
H2100 C2058 0.929 . S
H2101 C2059 0.930 . S
H2102 C2060 0.930 . S
H2103 C2061 0.930 . S
H2104 C2063 0.929 . S
H2105 C2064 0.930 . S
H2106 C2065 0.930 . S
H2107 C2066 0.930 . S
H2108 C2070 0.929 . S
H2109 C2072 0.930 . S
H2110 C2078 0.929 . S
H2111 C2079 0.930 . S
Tb2112 C2114 2.793 1_455 S
Tb2112 O2132 2.470 1_455 S
Tb2112 O2133 2.426 1_455 S
Tb2112 O2134 2.678 . S
Tb2112 O2135 2.418 . S
Tb2112 O2136 2.383 . S
Tb2112 O2140 2.333 . S
Tb2112 O2143 2.351 1_545 S
Tb2113 C2123 2.809 . S
Tb2113 O2134 2.325 . S
Tb2113 O2137 2.341 . S
Tb2113 O2138 2.484 . S
Tb2113 O2139 2.440 . S
Tb2113 O2140 2.658 . S
Tb2113 O2141 2.409 . S
Tb2113 O2142 2.378 1_545 S
C2114 Tb2112 2.793 1_655 S
C2114 C2115 1.514 . S
C2114 O2132 1.248 . S
C2114 O2133 1.266 . S
C2115 C2114 1.514 . S
C2115 C2116 1.359 . S
C2115 C2120 1.348 . S
C2116 C2115 1.359 . S
C2116 C2117 1.380 . S
C2116 H2144 0.929 . S
C2117 C2116 1.380 . S
C2117 C2118 1.347 . S
C2117 H2145 0.931 . S
C2118 C2117 1.347 . S
C2118 C2119 1.369 . S
C2119 C2118 1.369 . S
C2119 C2120 1.408 . S
C2119 H2146 0.930 . S
C2120 C2115 1.348 . S
C2120 C2119 1.408 . S
C2120 H2147 0.930 . S
C2121 O2134 1.281 . S
C2121 O2135 1.254 . S
C2122 O2136 1.236 . S
C2122 O2137 1.266 . S
C2123 Tb2113 2.809 . S
C2123 C2124 1.514 1_545 S
C2123 O2138 1.248 . S
C2123 O2139 1.266 . S
C2124 C2123 1.514 1_565 S
C2124 C2125 1.359 . S
C2124 C2129 1.348 . S
C2125 C2124 1.359 . S
C2125 C2126 1.380 . S
C2125 H2148 0.929 . S
C2126 C2125 1.380 . S
C2126 C2127 1.347 . S
C2126 H2149 0.931 . S
C2127 C2126 1.347 . S
C2127 C2128 1.369 . S
C2128 C2127 1.369 . S
C2128 C2129 1.408 . S
C2128 H2150 0.930 . S
C2129 C2124 1.348 . S
C2129 C2128 1.408 . S
C2129 H2151 0.930 1_565 S
C2130 O2140 1.281 . S
C2130 O2141 1.254 . S
C2131 O2142 1.236 . S
C2131 O2143 1.266 . S
O2132 Tb2112 2.470 1_655 S
O2132 C2114 1.248 . S
O2133 Tb2112 2.426 1_655 S
O2133 C2114 1.266 . S
O2134 Tb2112 2.678 . S
O2134 Tb2113 2.325 . S
O2134 C2121 1.281 . S
O2135 Tb2112 2.418 . S
O2135 C2121 1.254 . S
O2136 Tb2112 2.383 . S
O2136 C2122 1.236 . S
O2137 Tb2113 2.341 . S
O2137 C2122 1.266 . S
O2138 Tb2113 2.484 . S
O2138 C2123 1.248 . S
O2139 Tb2113 2.440 . S
O2139 C2123 1.266 . S
O2140 Tb2112 2.333 . S
O2140 Tb2113 2.658 . S
O2140 C2130 1.281 . S
O2141 Tb2113 2.409 . S
O2141 C2130 1.254 . S
O2142 Tb2113 2.378 1_565 S
O2142 C2131 1.236 . S
O2143 Tb2112 2.351 1_565 S
O2143 C2131 1.266 . S
H2144 C2116 0.929 . S
H2145 C2117 0.931 . S
H2146 C2119 0.930 . S
H2147 C2120 0.930 . S
H2148 C2125 0.929 . S
H2149 C2126 0.931 . S
H2150 C2128 0.930 . S
H2151 C2129 0.930 1_545 S
Tb2152 C2154 2.809 . S
Tb2152 O2172 2.484 . S
Tb2152 O2173 2.440 . S
Tb2152 O2174 2.658 . S
Tb2152 O2175 2.409 . S
Tb2152 O2176 2.378 . S
Tb2152 O2180 2.325 . S
Tb2152 O2183 2.341 . S
Tb2153 C2163 2.809 . S
Tb2153 O2174 2.325 . S
Tb2153 O2177 2.341 . S
Tb2153 O2178 2.484 . S
Tb2153 O2179 2.440 . S
Tb2153 O2180 2.658 . S
Tb2153 O2181 2.409 . S
Tb2153 O2182 2.378 . S
C2154 Tb2152 2.809 . S
C2154 C2155 1.514 . S
C2154 O2172 1.248 . S
C2154 O2173 1.266 . S
C2155 C2154 1.514 . S
C2155 C2156 1.359 . S
C2155 C2160 1.348 . S
C2156 C2155 1.359 . S
C2156 C2157 1.380 . S
C2156 H2184 0.929 . S
C2157 C2156 1.380 . S
C2157 C2158 1.347 . S
C2157 H2185 0.931 . S
C2158 C2157 1.347 . S
C2158 C2159 1.369 . S
C2159 C2158 1.369 . S
C2159 C2160 1.408 . S
C2159 H2186 0.930 . S
C2160 C2155 1.348 . S
C2160 C2159 1.408 . S
C2160 H2187 0.930 . S
C2161 O2174 1.281 . S
C2161 O2175 1.254 . S
C2162 O2176 1.236 . S
C2162 O2177 1.266 . S
C2163 Tb2153 2.809 . S
C2163 C2164 1.514 . S
C2163 O2178 1.248 . S
C2163 O2179 1.266 . S
C2164 C2163 1.514 . S
C2164 C2165 1.359 . S
C2164 C2169 1.348 . S
C2165 C2164 1.359 . S
C2165 C2166 1.380 . S
C2165 H2188 0.929 . S
C2166 C2165 1.380 . S
C2166 C2167 1.347 . S
C2166 H2189 0.931 . S
C2167 C2166 1.347 . S
C2167 C2168 1.369 . S
C2168 C2167 1.369 . S
C2168 C2169 1.408 . S
C2168 H2190 0.930 . S
C2169 C2164 1.348 . S
C2169 C2168 1.408 . S
C2169 H2191 0.930 . S
C2170 O2180 1.281 . S
C2170 O2181 1.254 . S
C2171 O2182 1.236 . S
C2171 O2183 1.266 . S
O2172 Tb2152 2.484 . S
O2172 C2154 1.248 . S
O2173 Tb2152 2.440 . S
O2173 C2154 1.266 . S
O2174 Tb2152 2.658 . S
O2174 Tb2153 2.325 . S
O2174 C2161 1.281 . S
O2175 Tb2152 2.409 . S
O2175 C2161 1.254 . S
O2176 Tb2152 2.378 . S
O2176 C2162 1.236 . S
O2177 Tb2153 2.341 . S
O2177 C2162 1.266 . S
O2178 Tb2153 2.484 . S
O2178 C2163 1.248 . S
O2179 Tb2153 2.440 . S
O2179 C2163 1.266 . S
O2180 Tb2152 2.325 . S
O2180 Tb2153 2.658 . S
O2180 C2170 1.281 . S
O2181 Tb2153 2.409 . S
O2181 C2170 1.254 . S
O2182 Tb2153 2.378 . S
O2182 C2171 1.236 . S
O2183 Tb2152 2.341 . S
O2183 C2171 1.266 . S
H2184 C2156 0.929 . S
H2185 C2157 0.931 . S
H2186 C2159 0.930 . S
H2187 C2160 0.930 . S
H2188 C2165 0.929 . S
H2189 C2166 0.931 . S
H2190 C2168 0.930 . S
H2191 C2169 0.930 . S
Tb2192 C2194 2.809 . S
Tb2192 O2212 2.484 . S
Tb2192 O2213 2.440 . S
Tb2192 O2214 2.658 . S
Tb2192 O2215 2.409 . S
Tb2192 O2216 2.378 1_545 S
Tb2192 O2220 2.325 . S
Tb2192 O2223 2.341 . S
Tb2193 C2203 2.809 . S
Tb2193 O2214 2.325 . S
Tb2193 O2217 2.341 1_545 S
Tb2193 O2218 2.484 . S
Tb2193 O2219 2.440 . S
Tb2193 O2220 2.658 . S
Tb2193 O2221 2.409 . S
Tb2193 O2222 2.378 . S
C2194 Tb2192 2.809 . S
C2194 C2195 1.514 1_545 S
C2194 O2212 1.248 . S
C2194 O2213 1.266 . S
C2195 C2194 1.514 1_565 S
C2195 C2196 1.359 . S
C2195 C2200 1.348 . S
C2196 C2195 1.359 . S
C2196 C2197 1.380 . S
C2196 H2224 0.929 . S
C2197 C2196 1.380 . S
C2197 C2198 1.347 . S
C2197 H2225 0.931 . S
C2198 C2197 1.347 . S
C2198 C2199 1.369 . S
C2199 C2198 1.369 . S
C2199 C2200 1.408 . S
C2199 H2226 0.930 . S
C2200 C2195 1.348 . S
C2200 C2199 1.408 . S
C2200 H2227 0.930 . S
C2201 O2214 1.281 . S
C2201 O2215 1.254 . S
C2202 O2216 1.236 . S
C2202 O2217 1.266 . S
C2203 Tb2193 2.809 . S
C2203 C2204 1.514 . S
C2203 O2218 1.248 . S
C2203 O2219 1.266 . S
C2204 C2203 1.514 . S
C2204 C2205 1.359 . S
C2204 C2209 1.348 . S
C2205 C2204 1.359 . S
C2205 C2206 1.380 . S
C2205 H2228 0.929 . S
C2206 C2205 1.380 . S
C2206 C2207 1.347 . S
C2206 H2229 0.931 . S
C2207 C2206 1.347 . S
C2207 C2208 1.369 . S
C2208 C2207 1.369 . S
C2208 C2209 1.408 . S
C2208 H2230 0.930 . S
C2209 C2204 1.348 . S
C2209 C2208 1.408 . S
C2209 H2231 0.930 . S
C2210 O2220 1.281 . S
C2210 O2221 1.254 . S
C2211 O2222 1.236 . S
C2211 O2223 1.266 . S
O2212 Tb2192 2.484 . S
O2212 C2194 1.248 . S
O2213 Tb2192 2.440 . S
O2213 C2194 1.266 . S
O2214 Tb2192 2.658 . S
O2214 Tb2193 2.325 . S
O2214 C2201 1.281 . S
O2215 Tb2192 2.409 . S
O2215 C2201 1.254 . S
O2216 Tb2192 2.378 1_565 S
O2216 C2202 1.236 . S
O2217 Tb2193 2.341 1_565 S
O2217 C2202 1.266 . S
O2218 Tb2193 2.484 . S
O2218 C2203 1.248 . S
O2219 Tb2193 2.440 . S
O2219 C2203 1.266 . S
O2220 Tb2192 2.325 . S
O2220 Tb2193 2.658 . S
O2220 C2210 1.281 . S
O2221 Tb2193 2.409 . S
O2221 C2210 1.254 . S
O2222 Tb2193 2.378 . S
O2222 C2211 1.236 . S
O2223 Tb2192 2.341 . S
O2223 C2211 1.266 . S
H2224 C2196 0.929 . S
H2225 C2197 0.931 . S
H2226 C2199 0.930 . S
H2227 C2200 0.930 . S
H2228 C2205 0.929 . S
H2229 C2206 0.931 . S
H2230 C2208 0.930 . S
H2231 C2209 0.930 . S
Tb2232 C2234 2.809 . S
Tb2232 O2252 2.484 . S
Tb2232 O2253 2.440 . S
Tb2232 O2254 2.658 . S
Tb2232 O2255 2.409 . S
Tb2232 O2256 2.378 . S
Tb2232 O2260 2.325 . S
Tb2232 O2263 2.341 . S
Tb2233 C2243 2.809 . S
Tb2233 O2254 2.325 . S
Tb2233 O2257 2.341 . S
Tb2233 O2258 2.484 . S
Tb2233 O2259 2.440 . S
Tb2233 O2260 2.658 . S
Tb2233 O2261 2.409 . S
Tb2233 O2262 2.378 . S
C2234 Tb2232 2.809 . S
C2234 C2235 1.514 . S
C2234 O2252 1.248 . S
C2234 O2253 1.266 . S
C2235 C2234 1.514 . S
C2235 C2236 1.359 . S
C2235 C2240 1.348 . S
C2236 C2235 1.359 . S
C2236 C2237 1.380 . S
C2236 H2264 0.929 . S
C2237 C2236 1.380 . S
C2237 C2238 1.347 . S
C2237 H2265 0.931 . S
C2238 C2237 1.347 . S
C2238 C2239 1.369 . S
C2239 C2238 1.369 . S
C2239 C2240 1.408 . S
C2239 H2266 0.930 . S
C2240 C2235 1.348 . S
C2240 C2239 1.408 . S
C2240 H2267 0.930 . S
C2241 O2254 1.281 . S
C2241 O2255 1.254 . S
C2242 O2256 1.236 . S
C2242 O2257 1.266 . S
C2243 Tb2233 2.809 . S
C2243 C2244 1.514 . S
C2243 O2258 1.248 . S
C2243 O2259 1.266 . S
C2244 C2243 1.514 . S
C2244 C2245 1.359 . S
C2244 C2249 1.348 . S
C2245 C2244 1.359 . S
C2245 C2246 1.380 . S
C2245 H2268 0.929 . S
C2246 C2245 1.380 . S
C2246 C2247 1.347 . S
C2246 H2269 0.931 . S
C2247 C2246 1.347 . S
C2247 C2248 1.369 . S
C2248 C2247 1.369 . S
C2248 C2249 1.408 . S
C2248 H2270 0.930 . S
C2249 C2244 1.348 . S
C2249 C2248 1.408 . S
C2249 H2271 0.930 . S
C2250 O2260 1.281 . S
C2250 O2261 1.254 . S
C2251 O2262 1.236 . S
C2251 O2263 1.266 . S
O2252 Tb2232 2.484 . S
O2252 C2234 1.248 . S
O2253 Tb2232 2.440 . S
O2253 C2234 1.266 . S
O2254 Tb2232 2.658 . S
O2254 Tb2233 2.325 . S
O2254 C2241 1.281 . S
O2255 Tb2232 2.409 . S
O2255 C2241 1.254 . S
O2256 Tb2232 2.378 . S
O2256 C2242 1.236 . S
O2257 Tb2233 2.341 . S
O2257 C2242 1.266 . S
O2258 Tb2233 2.484 . S
O2258 C2243 1.248 . S
O2259 Tb2233 2.440 . S
O2259 C2243 1.266 . S
O2260 Tb2232 2.325 . S
O2260 Tb2233 2.658 . S
O2260 C2250 1.281 . S
O2261 Tb2233 2.409 . S
O2261 C2250 1.254 . S
O2262 Tb2233 2.378 . S
O2262 C2251 1.236 . S
O2263 Tb2232 2.341 . S
O2263 C2251 1.266 . S
H2264 C2236 0.929 . S
H2265 C2237 0.931 . S
H2266 C2239 0.930 . S
H2267 C2240 0.930 . S
H2268 C2245 0.929 . S
H2269 C2246 0.931 . S
H2270 C2248 0.930 . S
H2271 C2249 0.930 . S
Tb2272 C2274 2.809 . S
Tb2272 O2292 2.484 . S
Tb2272 O2293 2.440 . S
Tb2272 O2294 2.658 . S
Tb2272 O2295 2.409 1_455 S
Tb2272 O2296 2.378 . S
Tb2272 O2300 2.325 . S
Tb2272 O2303 2.341 . S
Tb2273 C2283 2.809 . S
Tb2273 O2294 2.325 1_565 S
Tb2273 O2297 2.341 1_565 S
Tb2273 O2298 2.484 . S
Tb2273 O2299 2.440 . S
Tb2273 O2300 2.658 1_565 S
Tb2273 O2301 2.409 1_565 S
Tb2273 O2302 2.378 1_565 S
C2274 Tb2272 2.809 . S
C2274 C2275 1.514 . S
C2274 O2292 1.248 . S
C2274 O2293 1.266 . S
C2275 C2274 1.514 . S
C2275 C2276 1.359 . S
C2275 C2280 1.348 1_455 S
C2276 C2275 1.359 . S
C2276 C2277 1.380 . S
C2276 H2304 0.929 . S
C2277 C2276 1.380 . S
C2277 C2278 1.347 1_455 S
C2277 H2305 0.931 . S
C2278 C2277 1.347 1_655 S
C2278 C2279 1.369 . S
C2279 C2278 1.369 . S
C2279 C2280 1.408 . S
C2279 H2306 0.930 . S
C2280 C2275 1.348 1_655 S
C2280 C2279 1.408 . S
C2280 H2307 0.930 . S
C2281 O2294 1.281 1_655 S
C2281 O2295 1.254 . S
C2282 O2296 1.236 . S
C2282 O2297 1.266 . S
C2283 Tb2273 2.809 . S
C2283 C2284 1.514 . S
C2283 O2298 1.248 . S
C2283 O2299 1.266 . S
C2284 C2283 1.514 . S
C2284 C2285 1.359 . S
C2284 C2289 1.348 . S
C2285 C2284 1.359 . S
C2285 C2286 1.380 . S
C2285 H2308 0.929 . S
C2286 C2285 1.380 . S
C2286 C2287 1.347 . S
C2286 H2309 0.931 . S
C2287 C2286 1.347 . S
C2287 C2288 1.369 . S
C2288 C2287 1.369 . S
C2288 C2289 1.408 . S
C2288 H2310 0.930 . S
C2289 C2284 1.348 . S
C2289 C2288 1.408 . S
C2289 H2311 0.930 . S
C2290 O2300 1.281 . S
C2290 O2301 1.254 . S
C2291 O2302 1.236 . S
C2291 O2303 1.266 . S
O2292 Tb2272 2.484 . S
O2292 C2274 1.248 . S
O2293 Tb2272 2.440 . S
O2293 C2274 1.266 . S
O2294 Tb2272 2.658 . S
O2294 Tb2273 2.325 1_545 S
O2294 C2281 1.281 1_455 S
O2295 Tb2272 2.409 1_655 S
O2295 C2281 1.254 . S
O2296 Tb2272 2.378 . S
O2296 C2282 1.236 . S
O2297 Tb2273 2.341 1_545 S
O2297 C2282 1.266 . S
O2298 Tb2273 2.484 . S
O2298 C2283 1.248 . S
O2299 Tb2273 2.440 . S
O2299 C2283 1.266 . S
O2300 Tb2272 2.325 . S
O2300 Tb2273 2.658 1_545 S
O2300 C2290 1.281 . S
O2301 Tb2273 2.409 1_545 S
O2301 C2290 1.254 . S
O2302 Tb2273 2.378 1_545 S
O2302 C2291 1.236 . S
O2303 Tb2272 2.341 . S
O2303 C2291 1.266 . S
H2304 C2276 0.929 . S
H2305 C2277 0.931 . S
H2306 C2279 0.930 . S
H2307 C2280 0.930 . S
H2308 C2285 0.929 . S
H2309 C2286 0.931 . S
H2310 C2288 0.930 . S
H2311 C2289 0.930 . S
Tb2312 C2314 2.809 . S
Tb2312 O2332 2.484 . S
Tb2312 O2333 2.440 . S
Tb2312 O2334 2.658 . S
Tb2312 O2335 2.409 . S
Tb2312 O2336 2.378 . S
Tb2312 O2340 2.325 . S
Tb2312 O2343 2.341 . S
Tb2313 C2323 2.809 . S
Tb2313 O2334 2.325 . S
Tb2313 O2337 2.341 . S
Tb2313 O2338 2.484 . S
Tb2313 O2339 2.440 . S
Tb2313 O2340 2.658 . S
Tb2313 O2341 2.409 . S
Tb2313 O2342 2.378 . S
C2314 Tb2312 2.809 . S
C2314 C2315 1.514 . S
C2314 O2332 1.248 . S
C2314 O2333 1.266 . S
C2315 C2314 1.514 . S
C2315 C2316 1.359 . S
C2315 C2320 1.348 . S
C2316 C2315 1.359 . S
C2316 C2317 1.380 . S
C2316 H2344 0.929 . S
C2317 C2316 1.380 . S
C2317 C2318 1.347 . S
C2317 H2345 0.931 . S
C2318 C2317 1.347 . S
C2318 C2319 1.369 . S
C2319 C2318 1.369 . S
C2319 C2320 1.408 . S
C2319 H2346 0.930 . S
C2320 C2315 1.348 . S
C2320 C2319 1.408 . S
C2320 H2347 0.930 . S
C2321 O2334 1.281 . S
C2321 O2335 1.254 . S
C2322 O2336 1.236 . S
C2322 O2337 1.266 . S
C2323 Tb2313 2.809 . S
C2323 C2324 1.514 . S
C2323 O2338 1.248 . S
C2323 O2339 1.266 . S
C2324 C2323 1.514 . S
C2324 C2325 1.359 . S
C2324 C2329 1.348 . S
C2325 C2324 1.359 . S
C2325 C2326 1.380 . S
C2325 H2348 0.929 . S
C2326 C2325 1.380 . S
C2326 C2327 1.347 . S
C2326 H2349 0.931 . S
C2327 C2326 1.347 . S
C2327 C2328 1.369 . S
C2328 C2327 1.369 . S
C2328 C2329 1.408 . S
C2328 H2350 0.930 . S
C2329 C2324 1.348 . S
C2329 C2328 1.408 . S
C2329 H2351 0.930 . S
C2330 O2340 1.281 . S
C2330 O2341 1.254 . S
C2331 O2342 1.236 . S
C2331 O2343 1.266 . S
O2332 Tb2312 2.484 . S
O2332 C2314 1.248 . S
O2333 Tb2312 2.440 . S
O2333 C2314 1.266 . S
O2334 Tb2312 2.658 . S
O2334 Tb2313 2.325 . S
O2334 C2321 1.281 . S
O2335 Tb2312 2.409 . S
O2335 C2321 1.254 . S
O2336 Tb2312 2.378 . S
O2336 C2322 1.236 . S
O2337 Tb2313 2.341 . S
O2337 C2322 1.266 . S
O2338 Tb2313 2.484 . S
O2338 C2323 1.248 . S
O2339 Tb2313 2.440 . S
O2339 C2323 1.266 . S
O2340 Tb2312 2.325 . S
O2340 Tb2313 2.658 . S
O2340 C2330 1.281 . S
O2341 Tb2313 2.409 . S
O2341 C2330 1.254 . S
O2342 Tb2313 2.378 . S
O2342 C2331 1.236 . S
O2343 Tb2312 2.341 . S
O2343 C2331 1.266 . S
H2344 C2316 0.929 . S
H2345 C2317 0.931 . S
H2346 C2319 0.930 . S
H2347 C2320 0.930 . S
H2348 C2325 0.929 . S
H2349 C2326 0.931 . S
H2350 C2328 0.930 . S
H2351 C2329 0.930 . S
Tb2352 C2354 2.809 . S
Tb2352 O2372 2.484 1_545 S
Tb2352 O2373 2.440 . S
Tb2352 O2374 2.658 . S
Tb2352 O2375 2.409 . S
Tb2352 O2376 2.378 . S
Tb2352 O2380 2.325 . S
Tb2352 O2383 2.341 . S
Tb2353 C2363 2.809 . S
Tb2353 O2374 2.325 . S
Tb2353 O2377 2.341 . S
Tb2353 O2378 2.484 . S
Tb2353 O2379 2.440 . S
Tb2353 O2380 2.658 . S
Tb2353 O2381 2.409 1_545 S
Tb2353 O2382 2.378 . S
C2354 Tb2352 2.809 . S
C2354 C2355 1.514 1_545 S
C2354 O2372 1.248 1_545 S
C2354 O2373 1.266 . S
C2355 C2354 1.514 1_565 S
C2355 C2356 1.359 . S
C2355 C2360 1.348 1_565 S
C2356 C2355 1.359 . S
C2356 C2357 1.380 . S
C2356 H2384 0.929 . S
C2357 C2356 1.380 . S
C2357 C2358 1.347 . S
C2357 H2385 0.931 . S
C2358 C2357 1.347 . S
C2358 C2359 1.369 1_565 S
C2359 C2358 1.369 1_545 S
C2359 C2360 1.408 . S
C2359 H2386 0.930 . S
C2360 C2355 1.348 1_545 S
C2360 C2359 1.408 . S
C2360 H2387 0.930 . S
C2361 O2374 1.281 . S
C2361 O2375 1.254 . S
C2362 O2376 1.236 . S
C2362 O2377 1.266 . S
C2363 Tb2353 2.809 . S
C2363 C2364 1.514 . S
C2363 O2378 1.248 . S
C2363 O2379 1.266 . S
C2364 C2363 1.514 . S
C2364 C2365 1.359 . S
C2364 C2369 1.348 . S
C2365 C2364 1.359 . S
C2365 C2366 1.380 . S
C2365 H2388 0.929 . S
C2366 C2365 1.380 . S
C2366 C2367 1.347 . S
C2366 H2389 0.931 . S
C2367 C2366 1.347 . S
C2367 C2368 1.369 . S
C2368 C2367 1.369 . S
C2368 C2369 1.408 . S
C2368 H2390 0.930 . S
C2369 C2364 1.348 . S
C2369 C2368 1.408 . S
C2369 H2391 0.930 . S
C2370 O2380 1.281 1_565 S
C2370 O2381 1.254 . S
C2371 O2382 1.236 . S
C2371 O2383 1.266 . S
O2372 Tb2352 2.484 1_565 S
O2372 C2354 1.248 1_565 S
O2373 Tb2352 2.440 . S
O2373 C2354 1.266 . S
O2374 Tb2352 2.658 . S
O2374 Tb2353 2.325 . S
O2374 C2361 1.281 . S
O2375 Tb2352 2.409 . S
O2375 C2361 1.254 . S
O2376 Tb2352 2.378 . S
O2376 C2362 1.236 . S
O2377 Tb2353 2.341 . S
O2377 C2362 1.266 . S
O2378 Tb2353 2.484 . S
O2378 C2363 1.248 . S
O2379 Tb2353 2.440 . S
O2379 C2363 1.266 . S
O2380 Tb2352 2.325 . S
O2380 Tb2353 2.658 . S
O2380 C2370 1.281 1_545 S
O2381 Tb2353 2.409 1_565 S
O2381 C2370 1.254 . S
O2382 Tb2353 2.378 . S
O2382 C2371 1.236 . S
O2383 Tb2352 2.341 . S
O2383 C2371 1.266 . S
H2384 C2356 0.929 . S
H2385 C2357 0.931 . S
H2386 C2359 0.930 . S
H2387 C2360 0.930 . S
H2388 C2365 0.929 . S
H2389 C2366 0.931 . S
H2390 C2368 0.930 . S
H2391 C2369 0.930 . S
Tb2392 C2394 2.809 . S
Tb2392 O2412 2.484 . S
Tb2392 O2413 2.440 . S
Tb2392 O2414 2.658 . S
Tb2392 O2415 2.409 . S
Tb2392 O2416 2.378 . S
Tb2392 O2420 2.325 . S
Tb2392 O2423 2.341 . S
Tb2393 C2403 2.809 . S
Tb2393 O2414 2.325 . S
Tb2393 O2417 2.341 . S
Tb2393 O2418 2.484 . S
Tb2393 O2419 2.440 . S
Tb2393 O2420 2.658 . S
Tb2393 O2421 2.409 . S
Tb2393 O2422 2.378 . S
C2394 Tb2392 2.809 . S
C2394 C2395 1.514 . S
C2394 O2412 1.248 . S
C2394 O2413 1.266 . S
C2395 C2394 1.514 . S
C2395 C2396 1.359 . S
C2395 C2400 1.348 . S
C2396 C2395 1.359 . S
C2396 C2397 1.380 . S
C2396 H2424 0.929 . S
C2397 C2396 1.380 . S
C2397 C2398 1.347 . S
C2397 H2425 0.931 . S
C2398 C2397 1.347 . S
C2398 C2399 1.369 . S
C2399 C2398 1.369 . S
C2399 C2400 1.408 . S
C2399 H2426 0.930 . S
C2400 C2395 1.348 . S
C2400 C2399 1.408 . S
C2400 H2427 0.930 . S
C2401 O2414 1.281 . S
C2401 O2415 1.254 . S
C2402 O2416 1.236 . S
C2402 O2417 1.266 . S
C2403 Tb2393 2.809 . S
C2403 C2404 1.514 . S
C2403 O2418 1.248 . S
C2403 O2419 1.266 . S
C2404 C2403 1.514 . S
C2404 C2405 1.359 . S
C2404 C2409 1.348 . S
C2405 C2404 1.359 . S
C2405 C2406 1.380 . S
C2405 H2428 0.929 . S
C2406 C2405 1.380 . S
C2406 C2407 1.347 . S
C2406 H2429 0.931 . S
C2407 C2406 1.347 . S
C2407 C2408 1.369 . S
C2408 C2407 1.369 . S
C2408 C2409 1.408 . S
C2408 H2430 0.930 . S
C2409 C2404 1.348 . S
C2409 C2408 1.408 . S
C2409 H2431 0.930 . S
C2410 O2420 1.281 . S
C2410 O2421 1.254 . S
C2411 O2422 1.236 . S
C2411 O2423 1.266 . S
O2412 Tb2392 2.484 . S
O2412 C2394 1.248 . S
O2413 Tb2392 2.440 . S
O2413 C2394 1.266 . S
O2414 Tb2392 2.658 . S
O2414 Tb2393 2.325 . S
O2414 C2401 1.281 . S
O2415 Tb2392 2.409 . S
O2415 C2401 1.254 . S
O2416 Tb2392 2.378 . S
O2416 C2402 1.236 . S
O2417 Tb2393 2.341 . S
O2417 C2402 1.266 . S
O2418 Tb2393 2.484 . S
O2418 C2403 1.248 . S
O2419 Tb2393 2.440 . S
O2419 C2403 1.266 . S
O2420 Tb2392 2.325 . S
O2420 Tb2393 2.658 . S
O2420 C2410 1.281 . S
O2421 Tb2393 2.409 . S
O2421 C2410 1.254 . S
O2422 Tb2393 2.378 . S
O2422 C2411 1.236 . S
O2423 Tb2392 2.341 . S
O2423 C2411 1.266 . S
H2424 C2396 0.929 . S
H2425 C2397 0.931 . S
H2426 C2399 0.930 . S
H2427 C2400 0.930 . S
H2428 C2405 0.929 . S
H2429 C2406 0.931 . S
H2430 C2408 0.930 . S
H2431 C2409 0.930 . S
Tb2432 C2434 2.809 . S
Tb2432 O2452 2.484 . S
Tb2432 O2453 2.440 . S
Tb2432 O2454 2.658 . S
Tb2432 O2455 2.409 . S
Tb2432 O2456 2.378 . S
Tb2432 O2460 2.325 . S
Tb2432 O2463 2.341 . S
Tb2433 C2443 2.809 . S
Tb2433 O2454 2.325 . S
Tb2433 O2457 2.341 . S
Tb2433 O2458 2.484 . S
Tb2433 O2459 2.440 . S
Tb2433 O2460 2.658 . S
Tb2433 O2461 2.409 . S
Tb2433 O2462 2.378 . S
C2434 Tb2432 2.809 . S
C2434 C2435 1.514 . S
C2434 O2452 1.248 . S
C2434 O2453 1.266 . S
C2435 C2434 1.514 . S
C2435 C2436 1.359 . S
C2435 C2440 1.348 . S
C2436 C2435 1.359 . S
C2436 C2437 1.377 1_554 S
C2436 H2464 0.929 . S
C2437 C2436 1.377 1_556 S
C2437 C2438 1.346 . S
C2437 H2465 0.934 . S
C2438 C2437 1.346 . S
C2438 C2439 1.369 1_556 S
C2439 C2438 1.369 1_554 S
C2439 C2440 1.408 . S
C2439 H2466 0.930 . S
C2440 C2435 1.348 . S
C2440 C2439 1.408 . S
C2440 H2467 0.930 . S
C2441 O2454 1.281 . S
C2441 O2455 1.254 . S
C2442 O2456 1.236 . S
C2442 O2457 1.266 . S
C2443 Tb2433 2.809 . S
C2443 C2444 1.514 . S
C2443 O2458 1.248 . S
C2443 O2459 1.266 . S
C2444 C2443 1.514 . S
C2444 C2445 1.359 . S
C2444 C2449 1.348 . S
C2445 C2444 1.359 . S
C2445 C2446 1.380 . S
C2445 H2468 0.929 . S
C2446 C2445 1.380 . S
C2446 C2447 1.347 . S
C2446 H2469 0.931 . S
C2447 C2446 1.347 . S
C2447 C2448 1.369 . S
C2448 C2447 1.369 . S
C2448 C2449 1.408 . S
C2448 H2470 0.930 . S
C2449 C2444 1.348 . S
C2449 C2448 1.408 . S
C2449 H2471 0.930 . S
C2450 O2460 1.281 . S
C2450 O2461 1.254 . S
C2451 O2462 1.236 . S
C2451 O2463 1.266 . S
O2452 Tb2432 2.484 . S
O2452 C2434 1.248 . S
O2453 Tb2432 2.440 . S
O2453 C2434 1.266 . S
O2454 Tb2432 2.658 . S
O2454 Tb2433 2.325 . S
O2454 C2441 1.281 . S
O2455 Tb2432 2.409 . S
O2455 C2441 1.254 . S
O2456 Tb2432 2.378 . S
O2456 C2442 1.236 . S
O2457 Tb2433 2.341 . S
O2457 C2442 1.266 . S
O2458 Tb2433 2.484 . S
O2458 C2443 1.248 . S
O2459 Tb2433 2.440 . S
O2459 C2443 1.266 . S
O2460 Tb2432 2.325 . S
O2460 Tb2433 2.658 . S
O2460 C2450 1.281 . S
O2461 Tb2433 2.409 . S
O2461 C2450 1.254 . S
O2462 Tb2433 2.378 . S
O2462 C2451 1.236 . S
O2463 Tb2432 2.341 . S
O2463 C2451 1.266 . S
H2464 C2436 0.929 . S
H2465 C2437 0.934 . S
H2466 C2439 0.930 . S
H2467 C2440 0.930 . S
H2468 C2445 0.929 . S
H2469 C2446 0.931 . S
H2470 C2448 0.930 . S
H2471 C2449 0.930 . S
Tb2472 C2474 2.809 . S
Tb2472 O2492 2.484 . S
Tb2472 O2493 2.440 . S
Tb2472 O2494 2.658 . S
Tb2472 O2495 2.409 . S
Tb2472 O2496 2.378 . S
Tb2472 O2500 2.325 . S
Tb2472 O2503 2.341 . S
Tb2473 C2483 2.809 . S
Tb2473 O2494 2.325 . S
Tb2473 O2497 2.341 . S
Tb2473 O2498 2.484 . S
Tb2473 O2499 2.440 . S
Tb2473 O2500 2.658 . S
Tb2473 O2501 2.409 . S
Tb2473 O2502 2.378 . S
C2474 Tb2472 2.809 . S
C2474 C2475 1.514 . S
C2474 O2492 1.248 . S
C2474 O2493 1.266 . S
C2475 C2474 1.514 . S
C2475 C2476 1.359 . S
C2475 C2480 1.348 . S
C2476 C2475 1.359 . S
C2476 C2477 1.380 . S
C2476 H2504 0.929 . S
C2477 C2476 1.380 . S
C2477 C2478 1.347 . S
C2477 H2505 0.931 . S
C2478 C2477 1.347 . S
C2478 C2479 1.369 . S
C2479 C2478 1.369 . S
C2479 C2480 1.408 . S
C2479 H2506 0.930 . S
C2480 C2475 1.348 . S
C2480 C2479 1.408 . S
C2480 H2507 0.930 . S
C2481 O2494 1.281 . S
C2481 O2495 1.254 . S
C2482 O2496 1.236 . S
C2482 O2497 1.266 . S
C2483 Tb2473 2.809 . S
C2483 C2484 1.514 . S
C2483 O2498 1.248 . S
C2483 O2499 1.266 . S
C2484 C2483 1.514 . S
C2484 C2485 1.359 . S
C2484 C2489 1.348 . S
C2485 C2484 1.359 . S
C2485 C2486 1.380 . S
C2485 H2508 0.929 . S
C2486 C2485 1.380 . S
C2486 C2487 1.347 . S
C2486 H2509 0.931 . S
C2487 C2486 1.347 . S
C2487 C2488 1.369 . S
C2488 C2487 1.369 . S
C2488 C2489 1.408 . S
C2488 H2510 0.930 . S
C2489 C2484 1.348 . S
C2489 C2488 1.408 . S
C2489 H2511 0.930 . S
C2490 O2500 1.281 . S
C2490 O2501 1.254 . S
C2491 O2502 1.236 . S
C2491 O2503 1.266 . S
O2492 Tb2472 2.484 . S
O2492 C2474 1.248 . S
O2493 Tb2472 2.440 . S
O2493 C2474 1.266 . S
O2494 Tb2472 2.658 . S
O2494 Tb2473 2.325 . S
O2494 C2481 1.281 . S
O2495 Tb2472 2.409 . S
O2495 C2481 1.254 . S
O2496 Tb2472 2.378 . S
O2496 C2482 1.236 . S
O2497 Tb2473 2.341 . S
O2497 C2482 1.266 . S
O2498 Tb2473 2.484 . S
O2498 C2483 1.248 . S
O2499 Tb2473 2.440 . S
O2499 C2483 1.266 . S
O2500 Tb2472 2.325 . S
O2500 Tb2473 2.658 . S
O2500 C2490 1.281 . S
O2501 Tb2473 2.409 . S
O2501 C2490 1.254 . S
O2502 Tb2473 2.378 . S
O2502 C2491 1.236 . S
O2503 Tb2472 2.341 . S
O2503 C2491 1.266 . S
H2504 C2476 0.929 . S
H2505 C2477 0.931 . S
H2506 C2479 0.930 . S
H2507 C2480 0.930 . S
H2508 C2485 0.929 . S
H2509 C2486 0.931 . S
H2510 C2488 0.930 . S
H2511 C2489 0.930 . S
Tb2512 C2514 2.809 1_455 S
Tb2512 O2532 2.484 1_455 S
Tb2512 O2533 2.440 1_455 S
Tb2512 O2534 2.658 . S
Tb2512 O2535 2.409 . S
Tb2512 O2536 2.378 . S
Tb2512 O2540 2.325 . S
Tb2512 O2543 2.341 . S
Tb2513 C2523 2.809 . S
Tb2513 O2534 2.325 . S
Tb2513 O2537 2.341 . S
Tb2513 O2538 2.484 . S
Tb2513 O2539 2.440 . S
Tb2513 O2540 2.658 . S
Tb2513 O2541 2.409 . S
Tb2513 O2542 2.378 . S
C2514 Tb2512 2.809 1_655 S
C2514 C2515 1.514 . S
C2514 O2532 1.248 . S
C2514 O2533 1.266 . S
C2515 C2514 1.514 . S
C2515 C2516 1.359 . S
C2515 C2520 1.348 . S
C2516 C2515 1.359 . S
C2516 C2517 1.380 . S
C2516 H2544 0.929 . S
C2517 C2516 1.380 . S
C2517 C2518 1.347 . S
C2517 H2545 0.931 . S
C2518 C2517 1.347 . S
C2518 C2519 1.369 . S
C2519 C2518 1.369 . S
C2519 C2520 1.408 . S
C2519 H2546 0.930 . S
C2520 C2515 1.348 . S
C2520 C2519 1.408 . S
C2520 H2547 0.930 . S
C2521 O2534 1.281 . S
C2521 O2535 1.254 . S
C2522 O2536 1.236 . S
C2522 O2537 1.266 . S
C2523 Tb2513 2.809 . S
C2523 C2524 1.514 . S
C2523 O2538 1.248 . S
C2523 O2539 1.266 . S
C2524 C2523 1.514 . S
C2524 C2525 1.359 . S
C2524 C2529 1.348 . S
C2525 C2524 1.359 . S
C2525 C2526 1.380 . S
C2525 H2548 0.929 . S
C2526 C2525 1.380 . S
C2526 C2527 1.347 . S
C2526 H2549 0.931 . S
C2527 C2526 1.347 . S
C2527 C2528 1.369 . S
C2528 C2527 1.369 . S
C2528 C2529 1.408 . S
C2528 H2550 0.930 . S
C2529 C2524 1.348 . S
C2529 C2528 1.408 . S
C2529 H2551 0.930 . S
C2530 O2540 1.281 . S
C2530 O2541 1.254 . S
C2531 O2542 1.236 . S
C2531 O2543 1.266 . S
O2532 Tb2512 2.484 1_655 S
O2532 C2514 1.248 . S
O2533 Tb2512 2.440 1_655 S
O2533 C2514 1.266 . S
O2534 Tb2512 2.658 . S
O2534 Tb2513 2.325 . S
O2534 C2521 1.281 . S
O2535 Tb2512 2.409 . S
O2535 C2521 1.254 . S
O2536 Tb2512 2.378 . S
O2536 C2522 1.236 . S
O2537 Tb2513 2.341 . S
O2537 C2522 1.266 . S
O2538 Tb2513 2.484 . S
O2538 C2523 1.248 . S
O2539 Tb2513 2.440 . S
O2539 C2523 1.266 . S
O2540 Tb2512 2.325 . S
O2540 Tb2513 2.658 . S
O2540 C2530 1.281 . S
O2541 Tb2513 2.409 . S
O2541 C2530 1.254 . S
O2542 Tb2513 2.378 . S
O2542 C2531 1.236 . S
O2543 Tb2512 2.341 . S
O2543 C2531 1.266 . S
H2544 C2516 0.929 . S
H2545 C2517 0.931 . S
H2546 C2519 0.930 . S
H2547 C2520 0.930 . S
H2548 C2525 0.929 . S
H2549 C2526 0.931 . S
H2550 C2528 0.930 . S
H2551 C2529 0.930 . S
Tb2552 C2554 2.809 . S
Tb2552 O2572 2.484 . S
Tb2552 O2573 2.440 . S
Tb2552 O2574 2.658 . S
Tb2552 O2575 2.409 . S
Tb2552 O2576 2.378 . S
Tb2552 O2580 2.325 . S
Tb2552 O2583 2.341 . S
Tb2553 C2563 2.809 . S
Tb2553 O2574 2.325 . S
Tb2553 O2577 2.341 . S
Tb2553 O2578 2.484 . S
Tb2553 O2579 2.440 . S
Tb2553 O2580 2.658 . S
Tb2553 O2581 2.409 . S
Tb2553 O2582 2.378 . S
C2554 Tb2552 2.809 . S
C2554 C2555 1.514 . S
C2554 O2572 1.248 . S
C2554 O2573 1.266 . S
C2555 C2554 1.514 . S
C2555 C2556 1.359 . S
C2555 C2560 1.348 . S
C2556 C2555 1.359 . S
C2556 C2557 1.380 . S
C2556 H2584 0.929 . S
C2557 C2556 1.380 . S
C2557 C2558 1.347 . S
C2557 H2585 0.931 . S
C2558 C2557 1.347 . S
C2558 C2559 1.369 . S
C2559 C2558 1.369 . S
C2559 C2560 1.408 . S
C2559 H2586 0.930 . S
C2560 C2555 1.348 . S
C2560 C2559 1.408 . S
C2560 H2587 0.930 . S
C2561 O2574 1.281 . S
C2561 O2575 1.254 . S
C2562 O2576 1.236 . S
C2562 O2577 1.266 . S
C2563 Tb2553 2.809 . S
C2563 C2564 1.514 . S
C2563 O2578 1.248 . S
C2563 O2579 1.266 . S
C2564 C2563 1.514 . S
C2564 C2565 1.359 . S
C2564 C2569 1.348 . S
C2565 C2564 1.359 . S
C2565 C2566 1.380 . S
C2565 H2588 0.929 . S
C2566 C2565 1.380 . S
C2566 C2567 1.347 . S
C2566 H2589 0.931 . S
C2567 C2566 1.347 . S
C2567 C2568 1.369 . S
C2568 C2567 1.369 . S
C2568 C2569 1.408 . S
C2568 H2590 0.930 . S
C2569 C2564 1.348 . S
C2569 C2568 1.408 . S
C2569 H2591 0.930 . S
C2570 O2580 1.281 . S
C2570 O2581 1.254 . S
C2571 O2582 1.236 . S
C2571 O2583 1.266 . S
O2572 Tb2552 2.484 . S
O2572 C2554 1.248 . S
O2573 Tb2552 2.440 . S
O2573 C2554 1.266 . S
O2574 Tb2552 2.658 . S
O2574 Tb2553 2.325 . S
O2574 C2561 1.281 . S
O2575 Tb2552 2.409 . S
O2575 C2561 1.254 . S
O2576 Tb2552 2.378 . S
O2576 C2562 1.236 . S
O2577 Tb2553 2.341 . S
O2577 C2562 1.266 . S
O2578 Tb2553 2.484 . S
O2578 C2563 1.248 . S
O2579 Tb2553 2.440 . S
O2579 C2563 1.266 . S
O2580 Tb2552 2.325 . S
O2580 Tb2553 2.658 . S
O2580 C2570 1.281 . S
O2581 Tb2553 2.409 . S
O2581 C2570 1.254 . S
O2582 Tb2553 2.378 . S
O2582 C2571 1.236 . S
O2583 Tb2552 2.341 . S
O2583 C2571 1.266 . S
H2584 C2556 0.929 . S
H2585 C2557 0.931 . S
H2586 C2559 0.930 . S
H2587 C2560 0.930 . S
H2588 C2565 0.929 . S
H2589 C2566 0.931 . S
H2590 C2568 0.930 . S
H2591 C2569 0.930 . S
Tb2592 C2594 2.809 . S
Tb2592 O2612 2.484 . S
Tb2592 O2613 2.440 . S
Tb2592 O2614 2.658 . S
Tb2592 O2615 2.409 . S
Tb2592 O2616 2.378 . S
Tb2592 O2620 2.325 . S
Tb2592 O2623 2.341 . S
Tb2593 C2603 2.809 . S
Tb2593 O2614 2.325 . S
Tb2593 O2617 2.341 . S
Tb2593 O2618 2.484 . S
Tb2593 O2619 2.440 . S
Tb2593 O2620 2.658 . S
Tb2593 O2621 2.409 . S
Tb2593 O2622 2.378 . S
C2594 Tb2592 2.809 . S
C2594 C2595 1.514 . S
C2594 O2612 1.248 . S
C2594 O2613 1.266 . S
C2595 C2594 1.514 . S
C2595 C2596 1.359 . S
C2595 C2600 1.348 . S
C2596 C2595 1.359 . S
C2596 C2597 1.380 . S
C2596 H2624 0.929 . S
C2597 C2596 1.380 . S
C2597 C2598 1.347 . S
C2597 H2625 0.931 . S
C2598 C2597 1.347 . S
C2598 C2599 1.369 . S
C2599 C2598 1.369 . S
C2599 C2600 1.408 . S
C2599 H2626 0.930 . S
C2600 C2595 1.348 . S
C2600 C2599 1.408 . S
C2600 H2627 0.930 . S
C2601 O2614 1.281 . S
C2601 O2615 1.254 . S
C2602 O2616 1.236 . S
C2602 O2617 1.266 . S
C2603 Tb2593 2.809 . S
C2603 C2604 1.514 . S
C2603 O2618 1.248 . S
C2603 O2619 1.266 . S
C2604 C2603 1.514 . S
C2604 C2605 1.359 1_556 S
C2604 C2609 1.361 . S
C2605 C2604 1.359 1_554 S
C2605 C2606 1.380 . S
C2605 H2628 0.929 1_554 S
C2606 C2605 1.380 . S
C2606 C2607 1.347 . S
C2606 H2629 0.931 . S
C2607 C2606 1.347 . S
C2607 C2608 1.369 . S
C2608 C2607 1.369 . S
C2608 C2609 1.385 1_554 S
C2608 H2630 0.930 . S
C2609 C2604 1.361 . S
C2609 C2608 1.385 1_556 S
C2609 H2631 0.941 . S
C2610 O2620 1.281 . S
C2610 O2621 1.254 . S
C2611 O2622 1.236 . S
C2611 O2623 1.266 . S
O2612 Tb2592 2.484 . S
O2612 C2594 1.248 . S
O2613 Tb2592 2.440 . S
O2613 C2594 1.266 . S
O2614 Tb2592 2.658 . S
O2614 Tb2593 2.325 . S
O2614 C2601 1.281 . S
O2615 Tb2592 2.409 . S
O2615 C2601 1.254 . S
O2616 Tb2592 2.378 . S
O2616 C2602 1.236 . S
O2617 Tb2593 2.341 . S
O2617 C2602 1.266 . S
O2618 Tb2593 2.484 . S
O2618 C2603 1.248 . S
O2619 Tb2593 2.440 . S
O2619 C2603 1.266 . S
O2620 Tb2592 2.325 . S
O2620 Tb2593 2.658 . S
O2620 C2610 1.281 . S
O2621 Tb2593 2.409 . S
O2621 C2610 1.254 . S
O2622 Tb2593 2.378 . S
O2622 C2611 1.236 . S
O2623 Tb2592 2.341 . S
O2623 C2611 1.266 . S
H2624 C2596 0.929 . S
H2625 C2597 0.931 . S
H2626 C2599 0.930 . S
H2627 C2600 0.930 . S
H2628 C2605 0.929 1_556 S
H2629 C2606 0.931 . S
H2630 C2608 0.930 . S
H2631 C2609 0.941 . S
Tb2632 C2634 2.809 . S
Tb2632 O2652 2.484 . S
Tb2632 O2653 2.440 . S
Tb2632 O2654 2.658 . S
Tb2632 O2655 2.409 . S
Tb2632 O2656 2.378 . S
Tb2632 O2660 2.325 . S
Tb2632 O2663 2.341 . S
Tb2633 C2643 2.809 . S
Tb2633 O2654 2.325 . S
Tb2633 O2657 2.341 . S
Tb2633 O2658 2.484 . S
Tb2633 O2659 2.440 . S
Tb2633 O2660 2.658 . S
Tb2633 O2661 2.409 . S
Tb2633 O2662 2.378 . S
C2634 Tb2632 2.809 . S
C2634 C2635 1.514 . S
C2634 O2652 1.248 . S
C2634 O2653 1.266 . S
C2635 C2634 1.514 . S
C2635 C2636 1.359 . S
C2635 C2640 1.348 . S
C2636 C2635 1.359 . S
C2636 C2637 1.380 . S
C2636 H2664 0.929 . S
C2637 C2636 1.380 . S
C2637 C2638 1.347 . S
C2637 H2665 0.931 . S
C2638 C2637 1.347 . S
C2638 C2639 1.369 . S
C2639 C2638 1.369 . S
C2639 C2640 1.408 . S
C2639 H2666 0.930 . S
C2640 C2635 1.348 . S
C2640 C2639 1.408 . S
C2640 H2667 0.930 . S
C2641 O2654 1.281 . S
C2641 O2655 1.254 . S
C2642 O2656 1.236 . S
C2642 O2657 1.266 . S
C2643 Tb2633 2.809 . S
C2643 C2644 1.514 . S
C2643 O2658 1.248 . S
C2643 O2659 1.266 . S
C2644 C2643 1.514 . S
C2644 C2645 1.359 . S
C2644 C2649 1.348 . S
C2645 C2644 1.359 . S
C2645 C2646 1.380 . S
C2645 H2668 0.929 . S
C2646 C2645 1.380 . S
C2646 C2647 1.347 . S
C2646 H2669 0.931 . S
C2647 C2646 1.347 . S
C2647 C2648 1.369 . S
C2648 C2647 1.369 . S
C2648 C2649 1.408 . S
C2648 H2670 0.930 . S
C2649 C2644 1.348 . S
C2649 C2648 1.408 . S
C2649 H2671 0.930 . S
C2650 O2660 1.281 . S
C2650 O2661 1.254 . S
C2651 O2662 1.236 . S
C2651 O2663 1.266 . S
O2652 Tb2632 2.484 . S
O2652 C2634 1.248 . S
O2653 Tb2632 2.440 . S
O2653 C2634 1.266 . S
O2654 Tb2632 2.658 . S
O2654 Tb2633 2.325 . S
O2654 C2641 1.281 . S
O2655 Tb2632 2.409 . S
O2655 C2641 1.254 . S
O2656 Tb2632 2.378 . S
O2656 C2642 1.236 . S
O2657 Tb2633 2.341 . S
O2657 C2642 1.266 . S
O2658 Tb2633 2.484 . S
O2658 C2643 1.248 . S
O2659 Tb2633 2.440 . S
O2659 C2643 1.266 . S
O2660 Tb2632 2.325 . S
O2660 Tb2633 2.658 . S
O2660 C2650 1.281 . S
O2661 Tb2633 2.409 . S
O2661 C2650 1.254 . S
O2662 Tb2633 2.378 . S
O2662 C2651 1.236 . S
O2663 Tb2632 2.341 . S
O2663 C2651 1.266 . S
H2664 C2636 0.929 . S
H2665 C2637 0.931 . S
H2666 C2639 0.930 . S
H2667 C2640 0.930 . S
H2668 C2645 0.929 . S
H2669 C2646 0.931 . S
H2670 C2648 0.930 . S
H2671 C2649 0.930 . S
Tb2672 C2674 2.809 . S
Tb2672 O2692 2.484 . S
Tb2672 O2693 2.440 . S
Tb2672 O2694 2.658 . S
Tb2672 O2695 2.409 . S
Tb2672 O2696 2.378 . S
Tb2672 O2700 2.325 . S
Tb2672 O2703 2.341 . S
Tb2673 C2683 2.809 . S
Tb2673 O2694 2.325 . S
Tb2673 O2697 2.341 . S
Tb2673 O2698 2.484 . S
Tb2673 O2699 2.440 . S
Tb2673 O2700 2.658 . S
Tb2673 O2701 2.409 . S
Tb2673 O2702 2.378 . S
C2674 Tb2672 2.809 . S
C2674 C2675 1.514 . S
C2674 O2692 1.248 . S
C2674 O2693 1.266 . S
C2675 C2674 1.514 . S
C2675 C2676 1.359 . S
C2675 C2680 1.348 . S
C2676 C2675 1.359 . S
C2676 C2677 1.380 . S
C2676 H2704 0.929 . S
C2677 C2676 1.380 . S
C2677 C2678 1.347 . S
C2677 H2705 0.931 . S
C2678 C2677 1.347 . S
C2678 C2679 1.369 . S
C2679 C2678 1.369 . S
C2679 C2680 1.408 . S
C2679 H2706 0.930 . S
C2680 C2675 1.348 . S
C2680 C2679 1.408 . S
C2680 H2707 0.930 . S
C2681 O2694 1.281 . S
C2681 O2695 1.254 . S
C2682 O2696 1.236 . S
C2682 O2697 1.266 . S
C2683 Tb2673 2.809 . S
C2683 C2684 1.514 . S
C2683 O2698 1.248 . S
C2683 O2699 1.266 . S
C2684 C2683 1.514 . S
C2684 C2685 1.359 . S
C2684 C2689 1.348 . S
C2685 C2684 1.359 . S
C2685 C2686 1.380 . S
C2685 H2708 0.929 . S
C2686 C2685 1.380 . S
C2686 C2687 1.347 . S
C2686 H2709 0.931 . S
C2687 C2686 1.347 . S
C2687 C2688 1.369 . S
C2688 C2687 1.369 . S
C2688 C2689 1.408 . S
C2688 H2710 0.930 . S
C2689 C2684 1.348 . S
C2689 C2688 1.408 . S
C2689 H2711 0.930 . S
C2690 O2700 1.281 . S
C2690 O2701 1.254 . S
C2691 O2702 1.236 . S
C2691 O2703 1.266 . S
O2692 Tb2672 2.484 . S
O2692 C2674 1.248 . S
O2693 Tb2672 2.440 . S
O2693 C2674 1.266 . S
O2694 Tb2672 2.658 . S
O2694 Tb2673 2.325 . S
O2694 C2681 1.281 . S
O2695 Tb2672 2.409 . S
O2695 C2681 1.254 . S
O2696 Tb2672 2.378 . S
O2696 C2682 1.236 . S
O2697 Tb2673 2.341 . S
O2697 C2682 1.266 . S
O2698 Tb2673 2.484 . S
O2698 C2683 1.248 . S
O2699 Tb2673 2.440 . S
O2699 C2683 1.266 . S
O2700 Tb2672 2.325 . S
O2700 Tb2673 2.658 . S
O2700 C2690 1.281 . S
O2701 Tb2673 2.409 . S
O2701 C2690 1.254 . S
O2702 Tb2673 2.378 . S
O2702 C2691 1.236 . S
O2703 Tb2672 2.341 . S
O2703 C2691 1.266 . S
H2704 C2676 0.929 . S
H2705 C2677 0.931 . S
H2706 C2679 0.930 . S
H2707 C2680 0.930 . S
H2708 C2685 0.929 . S
H2709 C2686 0.931 . S
H2710 C2688 0.930 . S
H2711 C2689 0.930 . S
Tb2712 C2714 2.809 . S
Tb2712 O2732 2.484 . S
Tb2712 O2733 2.440 . S
Tb2712 O2734 2.658 . S
Tb2712 O2735 2.409 . S
Tb2712 O2736 2.378 . S
Tb2712 O2740 2.325 . S
Tb2712 O2743 2.341 . S
Tb2713 C2723 2.809 1_455 S
Tb2713 O2734 2.325 . S
Tb2713 O2737 2.341 . S
Tb2713 O2738 2.484 1_455 S
Tb2713 O2739 2.440 1_455 S
Tb2713 O2740 2.658 . S
Tb2713 O2741 2.409 . S
Tb2713 O2742 2.378 . S
C2714 Tb2712 2.809 . S
C2714 C2715 1.514 . S
C2714 O2732 1.248 . S
C2714 O2733 1.266 . S
C2715 C2714 1.514 . S
C2715 C2716 1.359 . S
C2715 C2720 1.348 . S
C2716 C2715 1.359 . S
C2716 C2717 1.380 . S
C2716 H2744 0.929 . S
C2717 C2716 1.380 . S
C2717 C2718 1.347 . S
C2717 H2745 0.931 . S
C2718 C2717 1.347 . S
C2718 C2719 1.369 . S
C2719 C2718 1.369 . S
C2719 C2720 1.408 . S
C2719 H2746 0.930 . S
C2720 C2715 1.348 . S
C2720 C2719 1.408 . S
C2720 H2747 0.930 . S
C2721 O2734 1.281 . S
C2721 O2735 1.254 . S
C2722 O2736 1.236 . S
C2722 O2737 1.266 . S
C2723 Tb2713 2.809 1_655 S
C2723 C2724 1.514 . S
C2723 O2738 1.248 . S
C2723 O2739 1.266 . S
C2724 C2723 1.514 . S
C2724 C2725 1.359 . S
C2724 C2729 1.348 . S
C2725 C2724 1.359 . S
C2725 C2726 1.380 . S
C2725 H2748 0.929 . S
C2726 C2725 1.380 . S
C2726 C2727 1.347 . S
C2726 H2749 0.931 . S
C2727 C2726 1.347 . S
C2727 C2728 1.369 . S
C2728 C2727 1.369 . S
C2728 C2729 1.408 . S
C2728 H2750 0.930 . S
C2729 C2724 1.348 . S
C2729 C2728 1.408 . S
C2729 H2751 0.930 . S
C2730 O2740 1.281 . S
C2730 O2741 1.254 . S
C2731 O2742 1.236 . S
C2731 O2743 1.266 . S
O2732 Tb2712 2.484 . S
O2732 C2714 1.248 . S
O2733 Tb2712 2.440 . S
O2733 C2714 1.266 . S
O2734 Tb2712 2.658 . S
O2734 Tb2713 2.325 . S
O2734 C2721 1.281 . S
O2735 Tb2712 2.409 . S
O2735 C2721 1.254 . S
O2736 Tb2712 2.378 . S
O2736 C2722 1.236 . S
O2737 Tb2713 2.341 . S
O2737 C2722 1.266 . S
O2738 Tb2713 2.484 1_655 S
O2738 C2723 1.248 . S
O2739 Tb2713 2.440 1_655 S
O2739 C2723 1.266 . S
O2740 Tb2712 2.325 . S
O2740 Tb2713 2.658 . S
O2740 C2730 1.281 . S
O2741 Tb2713 2.409 . S
O2741 C2730 1.254 . S
O2742 Tb2713 2.378 . S
O2742 C2731 1.236 . S
O2743 Tb2712 2.341 . S
O2743 C2731 1.266 . S
H2744 C2716 0.929 . S
H2745 C2717 0.931 . S
H2746 C2719 0.930 . S
H2747 C2720 0.930 . S
H2748 C2725 0.929 . S
H2749 C2726 0.931 . S
H2750 C2728 0.930 . S
H2751 C2729 0.930 . S
C665 C2122 3.542 . S
C381 C2170 2.748 . S
C460 C2202 2.725 . S
C2247 C585 2.859 . S
C108 C2287 1.025 . S
C2322 C196 2.880 . S
C2361 C313 1.256 . S
C49 C2398 1.882 . S
C2130 C1457 3.155 . S
C1545 C2167 3.912 . S
C2210 C1721 3.354 . S
C2242 C1113 2.200 . S
C1428 C2282 2.323 . S
C2330 C1516 3.844 . S
C2371 C1692 2.875 . S
C2401 C1085 3.037 . S
C2127 C988 5.063 1_554 S
C1817 C2450 2.927 . S
C2487 C2081 1.472 . S
C2518 C1993 2.058 . S
C761 C2411 3.915 . S
C821 C2207 2.020 . S
C2053 C2570 2.774 . S
C2602 C1868 3.200 . S
C2131 C372 3.548 . S
C2601 C645 2.734 . S
C577 C2211 2.717 . S
C497 C2558 2.867 . S
C2278 C57 1.018 1_655 S
C293 C2491 2.867 . S
C2370 C205 1.272 . S
C2647 C145 1.891 . S
C2121 C909 3.157 1_554 S
C2598 C1956 3.920 . S
C724 C2201 3.345 . S
C1780 C2571 2.191 . S
C937 C2291 2.312 . S
C2481 C1985 3.834 . S
C753 C2362 2.877 . S
C1809 C2650 3.041 . S
C1173 C2118 5.085 . S
C1105 C2441 2.915 . S
C1633 C2318 1.488 . S
C1553 C2527 2.067 . S
C2642 C1729 3.910 . S
C1340 C2198 2.025 . S
C2241 C1604 2.767 . S
C2171 C1252 3.202 . S
C489 C2682 3.542 . S
C2610 C557 2.748 . S
C636 C2722 2.724 . S
C409 C2567 2.860 . S
C284 C2447 1.025 . S
C2482 C20 2.880 . S
C2521 C137 1.257 . S
C2638 C225 1.883 . S
C2690 C1641 3.150 . S
C1193 C2607 3.912 . S
C2730 C1289 3.354 . S
C2562 C1377 2.199 . S
C2442 C1613 2.323 1_554 S
C1164 C2490 3.844 . S
C2531 C1261 2.876 . S
C1349 C2641 3.037 . S
C2687 C1965 5.061 . S
C849 C2290 2.927 . S
C2327 C929 1.472 . S
C2358 C1017 2.057 . S
C2651 C1897 3.915 . S
C1789 C2727 2.020 . S
C2250 C900 2.774 . S
C2162 C733 3.200 . S
C548 C2691 3.548 . S
C2161 C469 2.734 . S
C401 C2731 2.717 . S
C673 C2238 2.867 . S
C233 C2438 1.019 1_554 S
C2331 C117 2.868 . S
C29 C2530 1.272 . S
C321 C2407 1.891 . S
C2681 C2044 3.157 . S
C997 C2158 3.920 . S
C2721 C1877 3.345 1_554 S
C812 C2251 2.191 . S
C2073 C2451 2.313 . S
C2321 C1025 3.835 . S
C1905 C2522 2.877 1_655 S
C2410 C841 3.041 . S
C2678 C1525 5.086 . S
C2281 C1369 2.915 1_545 S
C1465 C2478 1.487 . S
C2367 C1201 2.067 . S
C1281 C2402 3.910 . S
C1076 C2718 2.025 . S
C2561 C1437 2.768 . S
C2611 C1701 3.202 . S
