# Generated by pormake.
# Topology iac, (4,6)-cn, num edge types: 1
# Building blocks:
#     Node 0, Type 0, BuildingBlock: TATPOV_clean_sbu_0, # of connection points: 4
#     Node 1, Type 0, BuildingBlock: TATPOV_clean_sbu_0, # of connection points: 4
#     Node 2, Type 0, BuildingBlock: TATPOV_clean_sbu_0, # of connection points: 4
#     Node 3, Type 0, BuildingBlock: TATPOV_clean_sbu_0, # of connection points: 4
#     Node 4, Type 0, BuildingBlock: TATPOV_clean_sbu_0, # of connection points: 4
#     Node 5, Type 0, BuildingBlock: TATPOV_clean_sbu_0, # of connection points: 4
#     Node 6, Type 0, BuildingBlock: TATPOV_clean_sbu_0, # of connection points: 4
#     Node 7, Type 0, BuildingBlock: TATPOV_clean_sbu_0, # of connection points: 4
#     Node 8, Type 0, BuildingBlock: TATPOV_clean_sbu_0, # of connection points: 4
#     Node 9, Type 0, BuildingBlock: TATPOV_clean_sbu_0, # of connection points: 4
#     Node 10, Type 0, BuildingBlock: TATPOV_clean_sbu_0, # of connection points: 4
#     Node 11, Type 0, BuildingBlock: TATPOV_clean_sbu_0, # of connection points: 4
#     Node 12, Type 0, BuildingBlock: TATPOV_clean_sbu_0, # of connection points: 4
#     Node 13, Type 0, BuildingBlock: TATPOV_clean_sbu_0, # of connection points: 4
#     Node 14, Type 0, BuildingBlock: TATPOV_clean_sbu_0, # of connection points: 4
#     Node 15, Type 0, BuildingBlock: TATPOV_clean_sbu_0, # of connection points: 4
#     Node 16, Type 0, BuildingBlock: TATPOV_clean_sbu_0, # of connection points: 4
#     Node 17, Type 0, BuildingBlock: TATPOV_clean_sbu_0, # of connection points: 4
#     Node 18, Type 0, BuildingBlock: TATPOV_clean_sbu_0, # of connection points: 4
#     Node 19, Type 0, BuildingBlock: TATPOV_clean_sbu_0, # of connection points: 4
#     Node 20, Type 0, BuildingBlock: TATPOV_clean_sbu_0, # of connection points: 4
#     Node 21, Type 0, BuildingBlock: TATPOV_clean_sbu_0, # of connection points: 4
#     Node 22, Type 0, BuildingBlock: TATPOV_clean_sbu_0, # of connection points: 4
#     Node 23, Type 0, BuildingBlock: TATPOV_clean_sbu_0, # of connection points: 4
#     Node 24, Type 1, BuildingBlock: FUNLAD_clean_sbu_0, # of connection points: 6
#     Node 25, Type 1, BuildingBlock: FUNLAD_clean_sbu_0, # of connection points: 6
#     Node 26, Type 1, BuildingBlock: FUNLAD_clean_sbu_0, # of connection points: 6
#     Node 27, Type 1, BuildingBlock: FUNLAD_clean_sbu_0, # of connection points: 6
#     Node 28, Type 1, BuildingBlock: FUNLAD_clean_sbu_0, # of connection points: 6
#     Node 29, Type 1, BuildingBlock: FUNLAD_clean_sbu_0, # of connection points: 6
#     Node 30, Type 1, BuildingBlock: FUNLAD_clean_sbu_0, # of connection points: 6
#     Node 31, Type 1, BuildingBlock: FUNLAD_clean_sbu_0, # of connection points: 6
#     Node 32, Type 1, BuildingBlock: FUNLAD_clean_sbu_0, # of connection points: 6
#     Node 33, Type 1, BuildingBlock: FUNLAD_clean_sbu_0, # of connection points: 6
#     Node 34, Type 1, BuildingBlock: FUNLAD_clean_sbu_0, # of connection points: 6
#     Node 35, Type 1, BuildingBlock: FUNLAD_clean_sbu_0, # of connection points: 6
#     Node 36, Type 1, BuildingBlock: FUNLAD_clean_sbu_0, # of connection points: 6
#     Node 37, Type 1, BuildingBlock: FUNLAD_clean_sbu_0, # of connection points: 6
#     Node 38, Type 1, BuildingBlock: FUNLAD_clean_sbu_0, # of connection points: 6
#     Node 39, Type 1, BuildingBlock: FUNLAD_clean_sbu_0, # of connection points: 6
#     Edge 40, Type (0, 1), BuildingBlock: CIFDUS_clean_linker_0, # of connection points: 2
#     Edge 41, Type (0, 1), BuildingBlock: CIFDUS_clean_linker_0, # of connection points: 2
#     Edge 42, Type (0, 1), BuildingBlock: CIFDUS_clean_linker_0, # of connection points: 2
#     Edge 43, Type (0, 1), BuildingBlock: CIFDUS_clean_linker_0, # of connection points: 2
#     Edge 44, Type (0, 1), BuildingBlock: CIFDUS_clean_linker_0, # of connection points: 2
#     Edge 45, Type (0, 1), BuildingBlock: CIFDUS_clean_linker_0, # of connection points: 2
#     Edge 46, Type (0, 1), BuildingBlock: CIFDUS_clean_linker_0, # of connection points: 2
#     Edge 47, Type (0, 1), BuildingBlock: CIFDUS_clean_linker_0, # of connection points: 2
#     Edge 48, Type (0, 1), BuildingBlock: CIFDUS_clean_linker_0, # of connection points: 2
#     Edge 49, Type (0, 1), BuildingBlock: CIFDUS_clean_linker_0, # of connection points: 2
#     Edge 50, Type (0, 1), BuildingBlock: CIFDUS_clean_linker_0, # of connection points: 2
#     Edge 51, Type (0, 1), BuildingBlock: CIFDUS_clean_linker_0, # of connection points: 2
#     Edge 52, Type (0, 1), BuildingBlock: CIFDUS_clean_linker_0, # of connection points: 2
#     Edge 53, Type (0, 1), BuildingBlock: CIFDUS_clean_linker_0, # of connection points: 2
#     Edge 54, Type (0, 1), BuildingBlock: CIFDUS_clean_linker_0, # of connection points: 2
#     Edge 55, Type (0, 1), BuildingBlock: CIFDUS_clean_linker_0, # of connection points: 2
#     Edge 56, Type (0, 1), BuildingBlock: CIFDUS_clean_linker_0, # of connection points: 2
#     Edge 57, Type (0, 1), BuildingBlock: CIFDUS_clean_linker_0, # of connection points: 2
#     Edge 58, Type (0, 1), BuildingBlock: CIFDUS_clean_linker_0, # of connection points: 2
#     Edge 59, Type (0, 1), BuildingBlock: CIFDUS_clean_linker_0, # of connection points: 2
#     Edge 60, Type (0, 1), BuildingBlock: CIFDUS_clean_linker_0, # of connection points: 2
#     Edge 61, Type (0, 1), BuildingBlock: CIFDUS_clean_linker_0, # of connection points: 2
#     Edge 62, Type (0, 1), BuildingBlock: CIFDUS_clean_linker_0, # of connection points: 2
#     Edge 63, Type (0, 1), BuildingBlock: CIFDUS_clean_linker_0, # of connection points: 2
#     Edge 64, Type (0, 1), BuildingBlock: CIFDUS_clean_linker_0, # of connection points: 2
#     Edge 65, Type (0, 1), BuildingBlock: CIFDUS_clean_linker_0, # of connection points: 2
#     Edge 66, Type (0, 1), BuildingBlock: CIFDUS_clean_linker_0, # of connection points: 2
#     Edge 67, Type (0, 1), BuildingBlock: CIFDUS_clean_linker_0, # of connection points: 2
#     Edge 68, Type (0, 1), BuildingBlock: CIFDUS_clean_linker_0, # of connection points: 2
#     Edge 69, Type (0, 1), BuildingBlock: CIFDUS_clean_linker_0, # of connection points: 2
#     Edge 70, Type (0, 1), BuildingBlock: CIFDUS_clean_linker_0, # of connection points: 2
#     Edge 71, Type (0, 1), BuildingBlock: CIFDUS_clean_linker_0, # of connection points: 2
#     Edge 72, Type (0, 1), BuildingBlock: CIFDUS_clean_linker_0, # of connection points: 2
#     Edge 73, Type (0, 1), BuildingBlock: CIFDUS_clean_linker_0, # of connection points: 2
#     Edge 74, Type (0, 1), BuildingBlock: CIFDUS_clean_linker_0, # of connection points: 2
#     Edge 75, Type (0, 1), BuildingBlock: CIFDUS_clean_linker_0, # of connection points: 2
#     Edge 76, Type (0, 1), BuildingBlock: CIFDUS_clean_linker_0, # of connection points: 2
#     Edge 77, Type (0, 1), BuildingBlock: CIFDUS_clean_linker_0, # of connection points: 2
#     Edge 78, Type (0, 1), BuildingBlock: CIFDUS_clean_linker_0, # of connection points: 2
#     Edge 79, Type (0, 1), BuildingBlock: CIFDUS_clean_linker_0, # of connection points: 2
#     Edge 80, Type (0, 1), BuildingBlock: CIFDUS_clean_linker_0, # of connection points: 2
#     Edge 81, Type (0, 1), BuildingBlock: CIFDUS_clean_linker_0, # of connection points: 2
#     Edge 82, Type (0, 1), BuildingBlock: CIFDUS_clean_linker_0, # of connection points: 2
#     Edge 83, Type (0, 1), BuildingBlock: CIFDUS_clean_linker_0, # of connection points: 2
#     Edge 84, Type (0, 1), BuildingBlock: CIFDUS_clean_linker_0, # of connection points: 2
#     Edge 85, Type (0, 1), BuildingBlock: CIFDUS_clean_linker_0, # of connection points: 2
#     Edge 86, Type (0, 1), BuildingBlock: CIFDUS_clean_linker_0, # of connection points: 2
#     Edge 87, Type (0, 1), BuildingBlock: CIFDUS_clean_linker_0, # of connection points: 2
#     Edge 88, Type (0, 1), BuildingBlock: CIFDUS_clean_linker_0, # of connection points: 2
#     Edge 89, Type (0, 1), BuildingBlock: CIFDUS_clean_linker_0, # of connection points: 2
#     Edge 90, Type (0, 1), BuildingBlock: CIFDUS_clean_linker_0, # of connection points: 2
#     Edge 91, Type (0, 1), BuildingBlock: CIFDUS_clean_linker_0, # of connection points: 2
#     Edge 92, Type (0, 1), BuildingBlock: CIFDUS_clean_linker_0, # of connection points: 2
#     Edge 93, Type (0, 1), BuildingBlock: CIFDUS_clean_linker_0, # of connection points: 2
#     Edge 94, Type (0, 1), BuildingBlock: CIFDUS_clean_linker_0, # of connection points: 2
#     Edge 95, Type (0, 1), BuildingBlock: CIFDUS_clean_linker_0, # of connection points: 2
#     Edge 96, Type (0, 1), BuildingBlock: CIFDUS_clean_linker_0, # of connection points: 2
#     Edge 97, Type (0, 1), BuildingBlock: CIFDUS_clean_linker_0, # of connection points: 2
#     Edge 98, Type (0, 1), BuildingBlock: CIFDUS_clean_linker_0, # of connection points: 2
#     Edge 99, Type (0, 1), BuildingBlock: CIFDUS_clean_linker_0, # of connection points: 2
#     Edge 100, Type (0, 1), BuildingBlock: CIFDUS_clean_linker_0, # of connection points: 2
#     Edge 101, Type (0, 1), BuildingBlock: CIFDUS_clean_linker_0, # of connection points: 2
#     Edge 102, Type (0, 1), BuildingBlock: CIFDUS_clean_linker_0, # of connection points: 2
#     Edge 103, Type (0, 1), BuildingBlock: CIFDUS_clean_linker_0, # of connection points: 2
#     Edge 104, Type (0, 1), BuildingBlock: CIFDUS_clean_linker_0, # of connection points: 2
#     Edge 105, Type (0, 1), BuildingBlock: CIFDUS_clean_linker_0, # of connection points: 2
#     Edge 106, Type (0, 1), BuildingBlock: CIFDUS_clean_linker_0, # of connection points: 2
#     Edge 107, Type (0, 1), BuildingBlock: CIFDUS_clean_linker_0, # of connection points: 2
#     Edge 108, Type (0, 1), BuildingBlock: CIFDUS_clean_linker_0, # of connection points: 2
#     Edge 109, Type (0, 1), BuildingBlock: CIFDUS_clean_linker_0, # of connection points: 2
#     Edge 110, Type (0, 1), BuildingBlock: CIFDUS_clean_linker_0, # of connection points: 2
#     Edge 111, Type (0, 1), BuildingBlock: CIFDUS_clean_linker_0, # of connection points: 2
#     Edge 112, Type (0, 1), BuildingBlock: CIFDUS_clean_linker_0, # of connection points: 2
#     Edge 113, Type (0, 1), BuildingBlock: CIFDUS_clean_linker_0, # of connection points: 2
#     Edge 114, Type (0, 1), BuildingBlock: CIFDUS_clean_linker_0, # of connection points: 2
#     Edge 115, Type (0, 1), BuildingBlock: CIFDUS_clean_linker_0, # of connection points: 2
#     Edge 116, Type (0, 1), BuildingBlock: CIFDUS_clean_linker_0, # of connection points: 2
#     Edge 117, Type (0, 1), BuildingBlock: CIFDUS_clean_linker_0, # of connection points: 2
#     Edge 118, Type (0, 1), BuildingBlock: CIFDUS_clean_linker_0, # of connection points: 2
#     Edge 119, Type (0, 1), BuildingBlock: CIFDUS_clean_linker_0, # of connection points: 2
#     Edge 120, Type (0, 1), BuildingBlock: CIFDUS_clean_linker_0, # of connection points: 2
#     Edge 121, Type (0, 1), BuildingBlock: CIFDUS_clean_linker_0, # of connection points: 2
#     Edge 122, Type (0, 1), BuildingBlock: CIFDUS_clean_linker_0, # of connection points: 2
#     Edge 123, Type (0, 1), BuildingBlock: CIFDUS_clean_linker_0, # of connection points: 2
#     Edge 124, Type (0, 1), BuildingBlock: CIFDUS_clean_linker_0, # of connection points: 2
#     Edge 125, Type (0, 1), BuildingBlock: CIFDUS_clean_linker_0, # of connection points: 2
#     Edge 126, Type (0, 1), BuildingBlock: CIFDUS_clean_linker_0, # of connection points: 2
#     Edge 127, Type (0, 1), BuildingBlock: CIFDUS_clean_linker_0, # of connection points: 2
#     Edge 128, Type (0, 1), BuildingBlock: CIFDUS_clean_linker_0, # of connection points: 2
#     Edge 129, Type (0, 1), BuildingBlock: CIFDUS_clean_linker_0, # of connection points: 2
#     Edge 130, Type (0, 1), BuildingBlock: CIFDUS_clean_linker_0, # of connection points: 2
#     Edge 131, Type (0, 1), BuildingBlock: CIFDUS_clean_linker_0, # of connection points: 2
#     Edge 132, Type (0, 1), BuildingBlock: CIFDUS_clean_linker_0, # of connection points: 2
#     Edge 133, Type (0, 1), BuildingBlock: CIFDUS_clean_linker_0, # of connection points: 2
#     Edge 134, Type (0, 1), BuildingBlock: CIFDUS_clean_linker_0, # of connection points: 2
#     Edge 135, Type (0, 1), BuildingBlock: CIFDUS_clean_linker_0, # of connection points: 2
# Relax obj value: 0.357
# Max RMSD: 0.280
# Mean RMSD: 0.167
data_MOF--net-iac--node1-TATPOV_clean_sbu_0--node2-FUNLAD_clean_sbu_0--edge1-CIFDUS_clean_linker_0
_symmetry_space_group_name_H-M    P1
_symmetry_Int_Tables_number       1
_symmetry_cell_setting            triclinic
loop_
_symmetry_equiv_pos_as_xyz
'x, y, z'
_cell_length_a     47.994
_cell_length_b     46.3974
_cell_length_c     52.712746
_cell_angle_alpha  90.059537
_cell_angle_beta   92.852069
_cell_angle_gamma 91.300254
loop_
_atom_site_label
_atom_site_type_symbol
_atom_site_fract_x
_atom_site_fract_y
_atom_site_fract_z
_atom_type_partial_charge
Zn0 Zn 0.14279 0.1771 0.18363 0.0
Zn1 Zn 0.08619 0.17715 0.17614 0.0
O2 O 0.09756 0.20872 0.1525 0.0
O3 O 0.14254 0.21418 0.16251 0.0
O4 O 0.04424 0.17623 0.17401 0.0
O5 O 0.14361 0.13992 0.16377 0.0
O6 O 0.09765 0.13822 0.16343 0.0
C7 C 0.12074 0.22203 0.15002 0.0
C8 C 0.11458 0.18862 0.22839 0.0
O9 O 0.09423 0.19004 0.21225 0.0
O10 O 0.13774 0.17936 0.22179 0.0
C11 C 0.03227 0.16376 0.1921 0.0
O12 O 0.04761 0.1502 0.20943 0.0
C13 C 0.12061 0.12728 0.15767 0.0
Zn14 Zn 0.99782 0.74858 0.42807 0.0
Zn15 Zn 0.03355 0.75612 0.39377 0.0
O16 O 0.03245 0.79659 0.4117 0.0
O17 O 0.99936 0.78956 0.43862 0.0
O18 O 0.06512 0.7607 0.36902 0.0
O19 O 0.02036 0.72121 0.44863 0.0
O20 O 0.04888 0.72257 0.41722 0.0
C21 C 0.01716 0.80613 0.42892 0.0
C22 C 0.97272 0.73783 0.37891 0.0
O23 O 0.9965 0.74688 0.37185 0.0
O24 O 0.96869 0.73482 0.4023 0.0
C25 C 0.06746 0.74653 0.34851 0.0
O26 O 0.04746 0.72818 0.34105 0.0
C27 C 0.04203 0.71251 0.43867 0.0
Zn28 Zn 0.577 0.63196 0.69692 0.0
Zn29 Zn 0.56544 0.68615 0.67372 0.0
O30 O 0.52627 0.67223 0.67355 0.0
O31 O 0.53481 0.64055 0.70421 0.0
O32 O 0.5675 0.72641 0.6611 0.0
O33 O 0.61138 0.65657 0.71036 0.0
O34 O 0.57956 0.68821 0.70946 0.0
C35 C 0.51766 0.65535 0.69058 0.0
C36 C 0.59299 0.63799 0.64524 0.0
O37 O 0.58767 0.66424 0.64927 0.0
O38 O 0.5866 0.61869 0.66119 0.0
C39 C 0.55456 0.7332 0.64052 0.0
O40 O 0.53811 0.71398 0.62868 0.0
C41 C 0.60508 0.68272 0.71225 0.0
Zn42 Zn 0.50809 0.25638 0.9358 0.0
Zn43 Zn 0.54233 0.26095 0.90041 0.0
O44 O 0.54869 0.29919 0.92215 0.0
O45 O 0.51931 0.2927 0.9526 0.0
O46 O 0.57196 0.26382 0.87319 0.0
O47 O 0.52311 0.22113 0.95084 0.0
O48 O 0.55194 0.22191 0.9196 0.0
C49 C 0.53782 0.30784 0.94242 0.0
C50 C 0.47852 0.2575 0.88814 0.0
O51 O 0.50325 0.26007 0.8802 0.0
O52 O 0.47511 0.25497 0.91166 0.0
C53 C 0.59763 0.26012 0.87961 0.0
O54 O 0.60439 0.25474 0.90358 0.0
C55 C 0.54275 0.20998 0.93952 0.0
Zn56 Zn 0.12147 0.07192 0.22345 0.0
Zn57 Zn 0.15375 0.03071 0.23569 0.0
O58 O 0.12844 0.03124 0.26654 0.0
O59 O 0.10638 0.07147 0.25803 0.0
O60 O 0.17851 0.99597 0.24153 0.0
O61 O 0.10109 0.05147 0.19482 0.0
O62 O 0.1345 0.02011 0.20025 0.0
C63 C 0.11202 0.05093 0.27304 0.0
C64 C 0.17644 0.09272 0.22945 0.0
O65 O 0.17969 0.06728 0.23822 0.0
O66 O 0.15358 0.09916 0.21808 0.0
C67 C 0.19403 0.9915 0.26133 0.0
O68 O 0.19519 0.01077 0.27966 0.0
C69 C 0.11316 0.02924 0.18757 0.0
Zn70 Zn 0.30883 0.87492 0.56884 0.0
Zn71 Zn 0.27251 0.91135 0.56447 0.0
O72 O 0.26934 0.89092 0.52957 0.0
O73 O 0.30804 0.86643 0.532 0.0
O74 O 0.23997 0.93896 0.56114 0.0
O75 O 0.28962 0.84849 0.59177 0.0
O76 O 0.26189 0.88508 0.59545 0.0
C77 C 0.28706 0.87531 0.51916 0.0
C78 C 0.33463 0.92821 0.575 0.0
O79 O 0.31028 0.9358 0.56691 0.0
O80 O 0.33825 0.90241 0.58185 0.0
C81 C 0.23442 0.95241 0.5405 0.0
O82 O 0.25176 0.95067 0.52207 0.0
C83 C 0.26958 0.85992 0.60232 0.0
Zn84 Zn 0.44027 0.9666 0.73609 0.0
Zn85 Zn 0.40606 0.00806 0.73691 0.0
O86 O 0.42331 0.00854 0.77353 0.0
O87 O 0.44942 0.97019 0.773 0.0
O88 O 0.38133 0.04295 0.73582 0.0
O89 O 0.46566 0.98503 0.71265 0.0
O90 O 0.43391 0.01834 0.70878 0.0
C91 C 0.43982 0.99111 0.78491 0.0
C92 C 0.38547 0.94614 0.72517 0.0
O93 O 0.37985 0.97198 0.73116 0.0
O94 O 0.41054 0.93886 0.72355 0.0
C95 C 0.3639 0.0487 0.75241 0.0
O96 O 0.36021 0.03041 0.77103 0.0
C97 C 0.45699 0.00794 0.70246 0.0
Zn98 Zn 0.22518 0.12443 0.06708 0.0
Zn99 Zn 0.28141 0.12818 0.07075 0.0
O100 O 0.27273 0.14382 0.03539 0.0
O101 O 0.22716 0.1375 0.03022 0.0
O102 O 0.32329 0.12456 0.0729 0.0
O103 O 0.22459 0.15405 0.09444 0.0
O104 O 0.27062 0.15737 0.09786 0.0
C105 C 0.2503 0.1455 0.02159 0.0
C106 C 0.24817 0.07032 0.0761 0.0
O107 O 0.27028 0.08538 0.07353 0.0
O108 O 0.22482 0.08241 0.07598 0.0
C109 C 0.33151 0.10812 0.05557 0.0
O110 O 0.31305 0.09829 0.03824 0.0
C111 C 0.24675 0.16531 0.10445 0.0
Zn112 Zn 0.81826 0.35749 0.07217 0.0
Zn113 Zn 0.78665 0.39893 0.06829 0.0
O114 O 0.7852 0.38323 0.0315 0.0
O115 O 0.81728 0.35031 0.03531 0.0
O116 O 0.75647 0.42929 0.06638 0.0
O117 O 0.79642 0.33224 0.09379 0.0
O118 O 0.7717 0.37125 0.09656 0.0
C119 C 0.80049 0.36469 0.02148 0.0
C120 C 0.84938 0.408 0.08186 0.0
O121 O 0.82609 0.41906 0.07467 0.0
O122 O 0.85038 0.38121 0.08607 0.0
C123 C 0.75212 0.44539 0.0471 0.0
O124 O 0.7696 0.44479 0.0287 0.0
C125 C 0.77667 0.34532 0.10329 0.0
Zn126 Zn 0.93997 0.45276 0.22675 0.0
Zn127 Zn 0.91591 0.49812 0.22979 0.0
O128 O 0.93433 0.49468 0.26593 0.0
O129 O 0.94266 0.4483 0.26439 0.0
O130 O 0.89589 0.5364 0.22893 0.0
O131 O 0.97284 0.46819 0.20973 0.0
O132 O 0.94547 0.50482 0.2026 0.0
C133 C 0.94188 0.47145 0.27695 0.0
C134 C 0.88625 0.44121 0.21267 0.0
O135 O 0.88511 0.46577 0.22352 0.0
O136 O 0.90961 0.43195 0.2068 0.0
C137 C 0.8712 0.54055 0.23567 0.0
O138 O 0.85663 0.51878 0.24447 0.0
C139 C 0.96811 0.4919 0.19883 0.0
Zn140 Zn 0.76285 0.60659 0.54981 0.0
Zn141 Zn 0.81263 0.59964 0.53149 0.0
O142 O 0.792 0.61658 0.50078 0.0
O143 O 0.74995 0.62183 0.51514 0.0
O144 O 0.85095 0.59211 0.52068 0.0
O145 O 0.77833 0.63595 0.57455 0.0
O146 O 0.81989 0.62998 0.55969 0.0
C147 C 0.76676 0.62415 0.49741 0.0
C148 C 0.77663 0.54777 0.54794 0.0
O149 O 0.79772 0.55884 0.53763 0.0
O150 O 0.75918 0.5641 0.55759 0.0
C151 C 0.85584 0.57564 0.50224 0.0
O152 O 0.83486 0.56411 0.4885 0.0
C153 C 0.80395 0.64286 0.57436 0.0
Zn154 Zn 0.61333 0.57834 0.72685 0.0
Zn155 Zn 0.64308 0.53385 0.72901 0.0
O156 O 0.62329 0.53325 0.7636 0.0
O157 O 0.59857 0.57264 0.76067 0.0
O158 O 0.66412 0.4958 0.72878 0.0
O159 O 0.58943 0.56787 0.69716 0.0
O160 O 0.61778 0.53152 0.69472 0.0
C161 C 0.60654 0.55085 0.77313 0.0
C162 C 0.67055 0.59379 0.72728 0.0
O163 O 0.6734 0.56676 0.73071 0.0
O164 O 0.64659 0.6041 0.72346 0.0
C165 C 0.68364 0.48962 0.745 0.0
O166 O 0.69119 0.50865 0.76265 0.0
C167 C 0.59717 0.54592 0.68554 0.0
Zn168 Zn 0.92957 0.77856 0.92996 0.0
Zn169 Zn 0.97506 0.78058 0.89891 0.0
O170 O 0.975 0.81787 0.91823 0.0
O171 O 0.93981 0.8184 0.94348 0.0
O172 O 0.00977 0.7849 0.87935 0.0
O173 O 0.94687 0.74358 0.94633 0.0
O174 O 0.98208 0.74562 0.92099 0.0
C175 C 0.96109 0.83058 0.93463 0.0
C176 C 0.91705 0.77418 0.87499 0.0
O177 O 0.94321 0.77623 0.87257 0.0
O178 O 0.90707 0.77447 0.89681 0.0
C179 C 0.01034 0.79692 0.85772 0.0
O180 O 0.98711 0.80633 0.84677 0.0
C181 C 0.9695 0.73366 0.93901 0.0
Zn182 Zn 0.06591 0.26783 0.62188 0.0
Zn183 Zn 0.02574 0.26681 0.6515 0.0
O184 O 0.02337 0.30676 0.63219 0.0
O185 O 0.05725 0.30476 0.60561 0.0
O186 O 0.98946 0.266 0.67103 0.0
O187 O 0.05555 0.23254 0.6029 0.0
O188 O 0.0209 0.22919 0.62859 0.0
C189 C 0.03703 0.31787 0.61426 0.0
C190 C 0.0861 0.26358 0.67368 0.0
O191 O 0.0601 0.26395 0.67819 0.0
O192 O 0.09346 0.26562 0.65104 0.0
C193 C 0.98098 0.28649 0.68465 0.0
O194 O 0.997 0.30962 0.68821 0.0
C195 C 0.03429 0.21909 0.61024 0.0
Zn196 Zn 0.4376 0.31312 0.4312 0.0
Zn197 Zn 0.483 0.31059 0.40083 0.0
O198 O 0.48067 0.35213 0.41214 0.0
O199 O 0.44523 0.35604 0.4368 0.0
O200 O 0.51837 0.30963 0.38196 0.0
O201 O 0.45515 0.28322 0.45431 0.0
O202 O 0.48992 0.28071 0.42867 0.0
C203 C 0.46548 0.36744 0.42565 0.0
C204 C 0.42649 0.29414 0.37812 0.0
O205 O 0.45228 0.29864 0.37495 0.0
O206 O 0.41617 0.29843 0.39945 0.0
C207 C 0.52825 0.33105 0.37006 0.0
O208 O 0.51451 0.3552 0.36897 0.0
C209 C 0.47777 0.27212 0.44831 0.0
Zn210 Zn 0.51416 0.71591 0.19099 0.0
Zn211 Zn 0.52192 0.7613 0.16159 0.0
O212 O 0.48333 0.76707 0.17751 0.0
O213 O 0.47753 0.73005 0.20292 0.0
O214 O 0.52703 0.79928 0.14348 0.0
O215 O 0.54947 0.72408 0.21201 0.0
O216 O 0.55821 0.7591 0.18519 0.0
C217 C 0.46888 0.75344 0.19347 0.0
C218 C 0.52114 0.70274 0.13693 0.0
O219 O 0.52223 0.72999 0.13394 0.0
O220 O 0.5175 0.69215 0.15875 0.0
C221 C 0.51333 0.80617 0.12319 0.0
O222 O 0.49568 0.78733 0.11235 0.0
C223 C 0.56578 0.74358 0.20421 0.0
Zn224 Zn 0.91794 0.9755 0.80332 0.0
Zn225 Zn 0.90138 0.02812 0.80145 0.0
O226 O 0.93371 0.02962 0.82972 0.0
O227 O 0.94973 0.98568 0.82746 0.0
O228 O 0.88459 0.06789 0.80079 0.0
O229 O 0.92468 0.9777 0.7659 0.0
O230 O 0.91739 0.02436 0.76654 0.0
C231 C 0.95188 0.01098 0.83637 0.0
C232 C 0.86169 0.97503 0.81009 0.0
O233 O 0.86626 0.00115 0.80372 0.0
O234 O 0.88194 0.95863 0.81478 0.0
C235 C 0.86593 0.07259 0.78337 0.0
O236 O 0.85905 0.05185 0.76708 0.0
C237 C 0.9246 0.00191 0.75483 0.0
Zn238 Zn 0.73152 0.17232 0.48514 0.0
Zn239 Zn 0.77539 0.1443 0.49351 0.0
O240 O 0.78351 0.174 0.4642 0.0
O241 O 0.74556 0.19964 0.46051 0.0
O242 O 0.81107 0.12051 0.49593 0.0
O243 O 0.73225 0.18597 0.52069 0.0
O244 O 0.77261 0.16508 0.52842 0.0
C245 C 0.77011 0.19505 0.45432 0.0
C246 C 0.71776 0.11473 0.47962 0.0
O247 O 0.74304 0.11319 0.48826 0.0
O248 O 0.70768 0.13895 0.47406 0.0
C249 C 0.82388 0.11516 0.47587 0.0
O250 O 0.81364 0.12475 0.45398 0.0
C251 C 0.75298 0.18089 0.5356 0.0
Zn252 Zn 0.64776 0.04048 0.33113 0.0
Zn253 Zn 0.67141 0.99637 0.32031 0.0
O254 O 0.64714 0.98574 0.35135 0.0
O255 O 0.61969 0.02286 0.35268 0.0
O256 O 0.69303 0.96005 0.31389 0.0
O257 O 0.63742 0.04791 0.29473 0.0
O258 O 0.64784 0.0029 0.28706 0.0
C259 C 0.62609 0.99797 0.36023 0.0
C260 C 0.70265 0.05343 0.33483 0.0
O261 O 0.70181 0.02931 0.32312 0.0
O262 O 0.68139 0.0611 0.34611 0.0
C263 C 0.70071 0.94341 0.33198 0.0
O264 O 0.69485 0.95013 0.3553 0.0
C265 C 0.63777 0.02683 0.27957 0.0
Zn266 Zn 0.81576 0.87979 0.97803 0.0
Zn267 Zn 0.77834 0.91299 0.00128 0.0
O268 O 0.75765 0.89641 0.9699 0.0
O269 O 0.7854 0.86549 0.95279 0.0
O270 O 0.74722 0.93487 0.01479 0.0
O271 O 0.8217 0.85829 0.01136 0.0
O272 O 0.79038 0.8849 0.02898 0.0
C273 C 0.76204 0.87751 0.95327 0.0
C274 C 0.82971 0.94174 0.98183 0.0
O275 O 0.80793 0.94301 -0.00551 0.0
O276 O 0.83672 0.91806 0.97217 0.0
C277 C 0.74061 0.94088 0.03716 0.0
O278 O 0.75681 0.93325 0.05672 0.0
C279 C 0.80793 0.86473 0.03039 0.0
Zn280 Zn 0.24091 0.66042 0.9819 0.0
Zn281 Zn 0.28349 0.62989 -0.00472 0.0
O282 O 0.29511 0.65364 0.96329 0.0
O283 O 0.25953 0.68189 0.95534 0.0
O284 O 0.31843 0.60695 0.00469 0.0
O285 O 0.24004 0.67887 0.01566 0.0
O286 O 0.2775 0.6547 0.02749 0.0
C287 C 0.28371 0.67402 0.95057 0.0
C288 C 0.22655 0.6011 0.98033 0.0
O289 O 0.25147 0.59898 0.98974 0.0
O290 O 0.21744 0.62545 0.97369 0.0
C291 C 0.33479 0.59896 0.98785 0.0
O292 O 0.32844 0.60475 0.96389 0.0
C293 C 0.2589 0.67295 0.03228 0.0
Zn294 Zn 0.1127 0.53546 0.81658 0.0
Zn295 Zn 0.15653 0.50198 0.81408 0.0
O296 O 0.13234 0.48595 0.84268 0.0
O297 O 0.09418 0.51121 0.84238 0.0
O298 O 0.187 0.47246 0.8134 0.0
O299 O 0.10411 0.52954 0.77933 0.0
O300 O 0.1396 0.5005 0.77764 0.0
C301 C 0.10853 0.49073 0.85131 0.0
C302 C 0.1651 0.56631 0.82471 0.0
O303 O 0.17547 0.54195 0.81978 0.0
O304 O 0.13901 0.56848 0.82659 0.0
C305 C 0.1957 0.45998 0.83367 0.0
O306 O 0.18691 0.46869 0.85554 0.0
C307 C 0.11932 0.51357 0.76664 0.0
Zn308 Zn 0.38078 0.39177 0.52585 0.0
Zn309 Zn 0.32619 0.40964 0.52865 0.0
O310 O 0.3249 0.37349 0.5065 0.0
O311 O 0.36801 0.35927 0.50246 0.0
O312 O 0.2862 0.42195 0.52748 0.0
O313 O 0.37907 0.38473 0.56393 0.0
O314 O 0.33606 0.40046 0.5654 0.0
C315 C 0.34203 0.35583 0.49783 0.0
C316 C 0.37104 0.45038 0.50914 0.0
O317 O 0.34631 0.44527 0.5157 0.0
O318 O 0.38938 0.4312 0.51114 0.0
C319 C 0.27841 0.44099 0.54278 0.0
O320 O 0.29658 0.45172 0.55993 0.0
C321 C 0.35784 0.39015 0.57636 0.0
Zn322 Zn 0.42387 0.47417 0.30492 0.0
Zn323 Zn 0.40471 0.52446 0.29025 0.0
O324 O 0.43714 0.53555 0.31667 0.0
O325 O 0.45386 0.49301 0.32673 0.0
O326 O 0.38636 0.56239 0.28118 0.0
O327 O 0.43326 0.46582 0.26898 0.0
O328 O 0.42014 0.50918 0.25699 0.0
C329 C 0.45534 0.52019 0.32846 0.0
C330 C 0.36696 0.4764 0.31302 0.0
O331 O 0.37068 0.50032 0.30165 0.0
O332 O 0.38759 0.46078 0.31869 0.0
C333 C 0.37485 0.57626 0.29855 0.0
O334 O 0.37651 0.56625 0.32187 0.0
C335 C 0.43071 0.48495 0.25195 0.0
C336 C 0.05508 0.04843 0.95084 0.0
N337 N 0.00945 0.04147 0.01584 0.0
C338 C 0.99614 0.06404 0.00445 0.0
C339 C 0.96718 0.06596 0.00511 0.0
C340 C 0.95232 0.04515 0.0185 0.0
C341 C 0.96698 0.0246 0.03292 0.0
C342 C 0.99567 0.02279 0.03096 0.0
Zn343 Zn 0.04761 0.02953 0.00425 0.0
C344 C 0.04324 0.97382 0.97756 0.0
N345 N 0.1255 0.00225 0.97869 0.0
C346 C 0.14568 0.02131 0.9719 0.0
C347 C 0.13144 0.97422 0.98386 0.0
C348 C 0.15904 0.96549 0.98597 0.0
C349 C 0.18054 0.986 0.98319 0.0
C350 C 0.17361 0.01347 0.9738 0.0
Zn351 Zn 0.08813 0.0166 0.98978 0.0
O352 O 0.03896 0.04853 0.96912 0.0
C353 C 0.09256 0.07017 0.02006 0.0
O354 O 0.07898 0.03713 0.95389 0.0
H355 H 0.11515 0.95938 0.98935 0.0
H356 H 0.00744 0.079 0.99283 0.0
H357 H 0.14046 0.04344 0.96782 0.0
O358 O 0.06616 0.06708 0.01852 0.0
O359 O 0.10738 0.05405 0.00689 0.0
H360 H 0.00624 0.00465 0.0395 0.0
O361 O 0.09674 0.99619 0.02565 0.0
O362 O 0.05716 0.01043 0.03957 0.0
O363 O 0.06876 0.97957 0.97447 0.0
O364 O 0.02905 0.99093 0.9902 0.0
C365 C 0.08028 0.99816 0.04368 0.0
H366 H 0.95635 0.08186 -0.00646 0.0
H367 H 0.95599 0.00786 0.04302 0.0
H368 H 0.16356 0.94415 0.99319 0.0
H369 H 0.18953 0.03006 0.97154 0.0
C370 C 0.32673 0.78649 0.25875 0.0
N371 N 0.25334 0.75405 0.22232 0.0
C372 C 0.26173 0.7694 0.20199 0.0
C373 C 0.26112 0.75672 0.17801 0.0
C374 C 0.25191 0.72793 0.17495 0.0
C375 C 0.2418 0.71315 0.19595 0.0
C376 C 0.24263 0.72675 0.21963 0.0
Zn377 Zn 0.26479 0.76956 0.25743 0.0
C378 C 0.2904 0.72289 0.28975 0.0
N379 N 0.29373 0.80069 0.32939 0.0
C380 C 0.30876 0.82577 0.33252 0.0
C381 C 0.28355 0.78624 0.34949 0.0
C382 C 0.28703 0.79773 0.3738 0.0
C383 C 0.3015 0.82404 0.37743 0.0
C384 C 0.31315 0.83784 0.35669 0.0
Zn385 Zn 0.28188 0.78579 0.29442 0.0
O386 O 0.30617 0.77829 0.24413 0.0
C387 C 0.25704 0.83298 0.26237 0.0
O388 O 0.32255 0.79213 0.28182 0.0
H389 H 0.27177 0.76627 0.34656 0.0
H390 H 0.27063 0.79087 0.20465 0.0
H391 H 0.31648 0.83689 0.31617 0.0
O392 O 0.25156 0.81206 0.24714 0.0
O393 O 0.27053 0.82815 0.28324 0.0
H394 H 0.23625 0.71492 0.23611 0.0
O395 O 0.24127 0.77915 0.30698 0.0
O396 O 0.22341 0.7606 0.27148 0.0
O397 O 0.29329 0.7435 0.30559 0.0
O398 O 0.27866 0.72756 0.26806 0.0
C399 C 0.22034 0.76848 0.29434 0.0
H400 H 0.26934 0.7688 0.16237 0.0
H401 H 0.23416 0.69105 0.19425 0.0
H402 H 0.27813 0.78643 0.38957 0.0
H403 H 0.32447 0.85821 0.35904 0.0
C404 C 0.54189 0.01582 0.58169 0.0
N405 N 0.56102 0.9382 0.54683 0.0
C406 C 0.57431 0.9326 0.56964 0.0
C407 C 0.57445 0.90455 0.57925 0.0
C408 C 0.56136 0.88197 0.56496 0.0
C409 C 0.55034 0.8881 0.54044 0.0
C410 C 0.54986 0.91646 0.53195 0.0
Zn411 Zn 0.55027 0.97927 0.5371 0.0
C412 C 0.48631 0.98113 0.53798 0.0
N413 N 0.51882 0.06089 0.51655 0.0
C414 C 0.53453 0.08357 0.52606 0.0
C415 C 0.49524 0.06496 0.50173 0.0
C416 C 0.48658 0.09282 0.49602 0.0
C417 C 0.50257 0.11655 0.50544 0.0
C418 C 0.52685 0.11173 0.52057 0.0
Zn419 Zn 0.53098 0.02052 0.52587 0.0
O420 O 0.55049 0.99122 0.57559 0.0
C421 C 0.59505 0.0179 0.52571 0.0
O422 O 0.53369 0.03309 0.56441 0.0
H423 H 0.48313 0.04659 0.49436 0.0
H424 H 0.58318 0.95007 0.58121 0.0
H425 H 0.55302 0.07982 0.53805 0.0
O426 O 0.59222 0.99288 0.5351 0.0
O427 O 0.57359 0.0329 0.52062 0.0
H428 H 0.53886 0.9211 0.51412 0.0
O429 O 0.52803 0.00802 0.48737 0.0
O430 O 0.55042 0.9688 0.4979 0.0
O431 O 0.48892 0.00724 0.53117 0.0
O432 O 0.50787 0.9657 0.53981 0.0
C433 C 0.53981 0.9851 0.48085 0.0
H434 H 0.58318 0.90109 0.5983 0.0
H435 H 0.54083 0.87138 0.52832 0.0
H436 H 0.46787 0.0958 0.48403 0.0
H437 H 0.53957 0.12955 0.52828 0.0
C438 C 0.29041 0.19815 0.778 0.0
N439 N 0.24612 0.23475 0.83621 0.0
C440 C 0.2313 0.2094 0.83665 0.0
C441 C 0.22405 0.19744 0.85984 0.0
C442 C 0.23236 0.21178 0.88252 0.0
C443 C 0.24569 0.2389 0.88129 0.0
C444 C 0.25248 0.25 0.85786 0.0
Zn445 Zn 0.26518 0.24818 0.80452 0.0
C446 C 0.32686 0.25928 0.8178 0.0
N447 N 0.31045 0.27575 0.74161 0.0
C448 C 0.30771 0.26201 0.71879 0.0
C449 C 0.32627 0.30033 0.74477 0.0
C450 C 0.33907 0.3128 0.72426 0.0
C451 C 0.33591 0.29959 0.70039 0.0
C452 C 0.32055 0.27357 0.69776 0.0
Zn453 Zn 0.28986 0.26151 0.77199 0.0
O454 O 0.27476 0.20463 0.79584 0.0
C455 C 0.22857 0.25021 0.75809 0.0
O456 O 0.29998 0.21817 0.76422 0.0
H457 H 0.32841 0.31075 0.76314 0.0
H458 H 0.2266 0.1976 0.81919 0.0
H459 H 0.295 0.24251 0.71676 0.0
O460 O 0.2269 0.24497 0.78169 0.0
O461 O 0.25221 0.25687 0.74954 0.0
H462 H 0.26446 0.26996 0.85716 0.0
O463 O 0.27927 0.30491 0.77997 0.0
O464 O 0.25607 0.29165 0.81287 0.0
O465 O 0.32739 0.26571 0.79448 0.0
O466 O 0.30374 0.25165 0.82681 0.0
C467 C 0.26472 0.31152 0.7985 0.0
H468 H 0.21383 0.1764 0.86012 0.0
H469 H 0.25214 0.2507 0.89842 0.0
H470 H 0.35088 0.33285 0.72688 0.0
H471 H 0.31752 0.26302 0.67945 0.0
C472 C 0.07566 0.00266 0.52865 0.0
N473 N 0.03682 0.03328 0.46092 0.0
C474 C 0.06097 0.04803 0.45664 0.0
C475 C 0.07094 0.04919 0.43217 0.0
C476 C 0.05611 0.03455 0.41229 0.0
C477 C 0.0307 0.0207 0.41698 0.0
C478 C 0.02122 0.0206 0.44152 0.0
Zn479 Zn 0.02621 0.02299 0.49683 0.0
C480 C 0.01273 0.95902 0.49833 0.0
N481 N 0.00339 0.99554 0.56964 0.0
C482 C 0.0176 0.00759 0.5901 0.0
C483 C 0.98061 0.97802 0.57232 0.0
C484 C 0.97063 0.97291 0.59633 0.0
C485 C 0.98409 0.98631 0.61756 0.0
C486 C 0.00815 0.00336 0.61439 0.0
Zn487 Zn 0.01433 0.00719 0.53446 0.0
O488 O 0.06901 0.01317 0.50693 0.0
C489 C 0.02769 0.07109 0.53304 0.0
O490 O 0.05666 0.9982 0.54424 0.0
H491 H 0.96955 0.96887 0.55573 0.0
H492 H 0.07317 0.05764 0.47239 0.0
H493 H 0.03573 0.02133 0.5875 0.0
O494 O 0.03285 0.06602 0.51002 0.0
O495 O 0.02015 0.05041 0.54709 0.0
H496 H 0.0021 0.00898 0.44532 0.0
O497 O 0.97232 0.01659 0.52492 0.0
O498 O 0.983 0.03327 0.48771 0.0
O499 O 0.00825 0.96418 0.52141 0.0
O500 O 0.01984 0.97967 0.48412 0.0
C501 C 0.96482 0.02857 0.50413 0.0
H502 H 0.09065 0.06013 0.42904 0.0
H503 H 0.01866 0.00949 0.40193 0.0
H504 H 0.9519 0.95976 0.59815 0.0
H505 H 0.01915 0.01378 0.63046 0.0
C506 C 0.25371 0.76414 0.72273 0.0
N507 N 0.32689 0.73036 0.75645 0.0
C508 C 0.3258 0.70875 0.73893 0.0
C509 C 0.35007 0.69471 0.73298 0.0
C510 C 0.37563 0.70284 0.74534 0.0
C511 C 0.37618 0.72544 0.76311 0.0
C512 C 0.35146 0.73903 0.76835 0.0
Zn513 Zn 0.29074 0.74812 0.76703 0.0
C514 C 0.29475 0.8133 0.76794 0.0
N515 N 0.21594 0.78576 0.79009 0.0
C516 C 0.19183 0.77482 0.77889 0.0
C517 C 0.21567 0.80418 0.81017 0.0
C518 C 0.19046 0.81093 0.82067 0.0
C519 C 0.16537 0.79872 0.81026 0.0
C520 C 0.1662 0.78113 0.78864 0.0
Zn521 Zn 0.25256 0.76969 0.77887 0.0
O522 O 0.27609 0.75109 0.72874 0.0
C523 C 0.24847 0.70442 0.7782 0.0
O524 O 0.23876 0.77332 0.74012 0.0
H525 H 0.2351 0.81262 0.81878 0.0
H526 H 0.306 0.70205 0.72986 0.0
H527 H 0.19254 0.75996 0.76313 0.0
O528 O 0.27298 0.70655 0.77037 0.0
O529 O 0.2351 0.7272 0.78216 0.0
H530 H 0.35184 0.75626 0.7822 0.0
O531 O 0.26731 0.76681 0.81697 0.0
O532 O 0.305 0.74526 0.80576 0.0
O533 O 0.27032 0.81131 0.77608 0.0
O534 O 0.30803 0.79052 0.76348 0.0
C535 C 0.29024 0.75491 0.82305 0.0
H536 H 0.34877 0.67731 0.71922 0.0
H537 H 0.39555 0.7327 0.77273 0.0
H538 H 0.19065 0.8248 0.83721 0.0
H539 H 0.1474 0.77096 0.78024 0.0
C540 C 0.51576 0.95743 0.05063 0.0
N541 N 0.54537 0.02981 0.0907 0.0
C542 C 0.52855 0.01876 0.10848 0.0
C543 C 0.53809 0.0174 0.13381 0.0
C544 C 0.56499 0.02786 0.14081 0.0
C545 C 0.58102 0.04131 0.12246 0.0
C546 C 0.57077 0.04194 0.09726 0.0
Zn547 Zn 0.53546 0.02007 0.0539 0.0
C548 C 0.58394 0.99407 0.02981 0.0
N549 N 0.5155 0.9938 0.97834 0.0
C550 C 0.48961 0.98298 0.97152 0.0
C551 C 0.53454 -3e-05 0.96074 0.0
C552 C 0.52764 0.99583 0.93504 0.0
C553 C 0.50077 0.98578 0.92749 0.0
C554 C 0.48166 0.97903 0.94595 0.0
Zn555 Zn 0.52514 0.00441 0.01496 0.0
O556 O 0.52434 0.97762 0.06552 0.0
C557 C 0.47664 0.03128 0.03872 0.0
O558 O 0.51285 0.96251 0.02699 0.0
H559 H 0.55484 0.00895 0.96657 0.0
H560 H 0.50846 0.00919 0.10278 0.0
H561 H 0.47487 0.97816 0.98587 0.0
O562 O 0.49396 0.03426 0.05762 0.0
O563 O 0.48433 0.01924 0.01867 0.0
H564 H 0.58385 0.05032 0.08273 0.0
O565 O 0.53783 0.04611 0.00288 0.0
O566 O 0.54704 0.06202 0.04165 0.0
O567 O 0.56593 0.99007 0.01164 0.0
O568 O 0.57684 0.00627 0.04997 0.0
C569 C 0.54608 0.06641 0.0178 0.0
H570 H 0.52504 0.00727 0.14759 0.0
H571 H 0.60192 0.04956 0.12724 0.0
H572 H 0.54276 0.00143 0.92116 0.0
H573 H 0.46079 0.97107 0.94061 0.0
C574 C 0.22794 0.24829 0.27333 0.0
N575 N 0.23899 0.32645 0.23634 0.0
C576 C 0.26398 0.32915 0.22527 0.0
C577 C 0.26647 0.31968 0.20035 0.0
C578 C 0.2427 0.30877 0.18663 0.0
C579 C 0.21649 0.3134 0.19647 0.0
C580 C 0.2151 0.32162 0.22178 0.0
Zn581 Zn 0.23926 0.31322 0.2739 0.0
C582 C 0.18235 0.30877 0.29457 0.0
N583 N 0.23967 0.27765 0.34797 0.0
C584 C 0.25604 0.25519 0.35509 0.0
C585 C 0.22687 0.29365 0.36537 0.0
C586 C 0.23256 0.28925 0.39114 0.0
C587 C 0.25207 0.26859 0.39904 0.0
C588 C 0.26266 0.25029 0.38079 0.0
Zn589 Zn 0.23863 0.29245 0.31178 0.0
O590 O 0.23225 0.27063 0.26003 0.0
C591 C 0.29507 0.29302 0.29239 0.0
O592 O 0.22855 0.25052 0.29738 0.0
H593 H 0.21411 0.31151 0.35931 0.0
H594 H 0.28272 0.33492 0.23645 0.0
H595 H 0.2658 0.24258 0.34087 0.0
O596 O 0.28374 0.30749 0.27444 0.0
O597 O 0.28032 0.28374 0.30996 0.0
H598 H 0.1951 0.32034 0.2302 0.0
O599 O 0.25006 0.33495 0.32537 0.0
O600 O 0.24653 0.35505 0.28765 0.0
O601 O 0.19654 0.30029 0.31389 0.0
O602 O 0.19507 0.31745 0.27528 0.0
C603 C 0.25218 0.35723 0.3114 0.0
H604 H 0.28716 0.31758 0.19339 0.0
H605 H 0.19739 0.30691 0.18596 0.0
H606 H 0.22421 0.30415 0.4045 0.0
H607 H 0.27774 0.2341 0.3862 0.0
C608 C 0.59599 0.50298 0.03594 0.0
N609 N 0.56462 0.54627 0.97051 0.0
C610 C 0.59101 0.55661 0.9673 0.0
C611 C 0.60094 0.55932 0.94278 0.0
C612 C 0.58348 0.55127 0.92158 0.0
C613 C 0.55618 0.54166 0.92564 0.0
C614 C 0.54721 0.53934 0.95014 0.0
Zn615 Zn 0.55061 0.53132 0.00431 0.0
C616 C 0.53573 0.46734 -0.0045 0.0
N617 N 0.51815 0.49107 0.06945 0.0
C618 C 0.53185 0.49685 0.09218 0.0
C619 C 0.49175 0.4796 0.0682 0.0
C620 C 0.47718 0.47597 0.09027 0.0
C621 C 0.49026 0.48348 0.11376 0.0
C622 C 0.51826 0.49291 0.11476 0.0
Zn623 Zn 0.53395 0.50743 0.03708 0.0
O624 O 0.59183 0.51884 0.01648 0.0
C625 C 0.54973 0.57066 0.04688 0.0
O626 O 0.57524 0.49495 0.04856 0.0
H627 H 0.48127 0.47505 0.04996 0.0
H628 H 0.6048 0.56134 0.98371 0.0
H629 H 0.55265 0.50637 0.09273 0.0
O630 O 0.55636 0.57207 0.02377 0.0
O631 O 0.54068 0.54697 0.05569 0.0
H632 H 0.52681 0.52988 0.95276 0.0
O633 O 0.49265 0.52062 0.02525 0.0
O634 O 0.50934 0.54362 0.993 0.0
O635 O 0.52812 0.46762 0.01823 0.0
O636 O 0.54475 0.49049 0.98572 0.0
C637 C 0.4886 0.53619 0.00569 0.0
H638 H 0.62217 0.56691 0.94048 0.0
H639 H 0.54217 0.53434 0.91009 0.0
H640 H 0.45562 0.46847 0.08895 0.0
H641 H 0.52887 0.49903 0.13265 0.0
C642 C 0.75824 0.25611 0.22461 0.0
N643 N 0.83533 0.22978 0.25519 0.0
C644 C 0.83514 0.20815 0.23769 0.0
C645 C 0.86021 0.19659 0.23047 0.0
C646 C 0.88548 0.20706 0.2418 0.0
C647 C 0.88511 0.22955 0.25954 0.0
C648 C 0.85968 0.24085 0.26581 0.0
Zn649 Zn 0.79878 0.24541 0.26714 0.0
C650 C 0.79926 0.31146 0.26401 0.0
N651 N 0.72439 0.28146 0.29236 0.0
C652 C 0.7012 0.26676 0.28315 0.0
C653 C 0.72278 0.30241 0.3103 0.0
C654 C 0.69708 0.30844 0.32036 0.0
C655 C 0.67318 0.29242 0.31203 0.0
C656 C 0.67533 0.27182 0.29284 0.0
Zn657 Zn 0.76153 0.26738 0.28046 0.0
O658 O 0.78107 0.24361 0.22987 0.0
C659 C 0.76088 0.20181 0.28506 0.0
O660 O 0.74512 0.26724 0.24238 0.0
H661 H 0.74153 0.31369 0.31743 0.0
H662 H 0.81553 0.19957 0.22959 0.0
H663 H 0.7029 0.2502 0.2689 0.0
O664 O 0.78443 0.20284 0.27512 0.0
O665 O 0.74744 0.22486 0.28722 0.0
H666 H 0.8594 0.25824 0.27945 0.0
O667 O 0.7786 0.26783 0.31789 0.0
O668 O 0.81592 0.24694 0.30499 0.0
O669 O 0.77614 0.3094 0.27461 0.0
O670 O 0.81266 0.28878 0.25937 0.0
C671 C 0.80217 0.25668 0.32296 0.0
H672 H 0.85984 0.17918 0.21674 0.0
H673 H 0.90432 0.2383 0.26843 0.0
H674 H 0.69612 0.32445 0.33524 0.0
H675 H 0.65725 0.25928 0.2858 0.0
C676 C 0.04966 0.45843 0.53174 0.0
N677 N 0.07983 0.53337 0.56744 0.0
C678 C 0.05801 0.53049 0.58286 0.0
C679 C 0.06194 0.53466 0.60887 0.0
C680 C 0.08871 0.5411 0.6193 0.0
C681 C 0.11088 0.54467 0.60313 0.0
C682 C 0.10587 0.54097 0.57695 0.0
Zn683 Zn 0.07244 0.51984 0.53089 0.0
C684 C 0.12157 0.48907 0.5116 0.0
N685 N 0.05407 0.48668 0.45688 0.0
C686 C 0.02858 0.47363 0.45286 0.0
C687 C 0.06925 0.49583 0.43719 0.0
C688 C 0.05777 0.49417 0.41235 0.0
C689 C 0.03052 0.48296 0.40793 0.0
C690 C 0.01635 0.47154 0.42844 0.0
Zn691 Zn 0.06406 0.50054 0.49277 0.0
O692 O 0.05734 0.47976 0.54573 0.0
C693 C 0.01531 0.53183 0.51224 0.0
O694 O 0.05063 0.46082 0.50782 0.0
H695 H 0.08944 0.50625 0.44086 0.0
H696 H 0.03769 0.52339 0.57529 0.0
H697 H 0.01666 0.46695 0.46878 0.0
O698 O 0.03253 0.53674 0.53076 0.0
O699 O 0.0227 0.51664 0.49383 0.0
H700 H 0.12298 0.5429 0.56442 0.0
O701 O 0.07741 0.54056 0.47814 0.0
O702 O 0.08667 0.55987 0.51571 0.0
O703 O 0.10537 0.4847 0.49204 0.0
O704 O 0.11282 0.50299 0.53028 0.0
C705 C 0.08551 0.56215 0.4916 0.0
H706 H 0.0445 0.53122 0.62089 0.0
H707 H 0.13185 0.54955 0.61072 0.0
H708 H 0.06956 0.50274 0.39696 0.0
H709 H 0.99521 0.46298 0.42597 0.0
C710 C 0.79445 0.69018 0.25011 0.0
N711 N 0.76034 0.72043 0.31557 0.0
C712 C 0.74563 0.695 0.3143 0.0
C713 C 0.74123 0.67933 0.33632 0.0
C714 C 0.75148 0.69043 0.35974 0.0
C715 C 0.7646 0.71773 0.36078 0.0
C716 C 0.76909 0.73239 0.33823 0.0
Zn717 Zn 0.77396 0.73765 0.28301 0.0
C718 C 0.83618 0.74945 0.28766 0.0
N719 N 0.80457 0.7706 0.21478 0.0
C720 C 0.79614 0.75771 0.19244 0.0
C721 C 0.81882 0.79628 0.2154 0.0
C722 C 0.82354 0.81096 0.19291 0.0
C723 C 0.81366 0.7989 0.16967 0.0
C724 C 0.80063 0.77152 0.16948 0.0
Zn725 Zn 0.79128 0.7538 0.24762 0.0
O726 O 0.78164 0.69555 0.26999 0.0
C727 C 0.7289 0.74242 0.24326 0.0
O728 O 0.80174 0.711 0.23603 0.0
H729 H 0.82535 0.80607 0.23342 0.0
H730 H 0.7387 0.68601 0.29606 0.0
H731 H 0.78464 0.73739 0.19247 0.0
O732 O 0.73297 0.73577 0.2665 0.0
O733 O 0.74978 0.74937 0.23042 0.0
H734 H 0.78095 0.75249 0.33874 0.0
O735 O 0.78081 0.79612 0.25975 0.0
O736 O 0.76624 0.77987 0.29588 0.0
O737 O 0.83224 0.75854 0.26506 0.0
O738 O 0.81545 0.73969 0.2994 0.0
C739 C 0.77047 0.80092 0.28106 0.0
H740 H 0.73106 0.65826 0.33501 0.0
H741 H 0.77301 0.72665 0.37863 0.0
H742 H 0.83389 0.83196 0.19372 0.0
H743 H 0.79248 0.76168 0.15192 0.0
C744 C 0.83646 0.29984 0.75433 0.0
N745 N 0.75984 0.26431 0.72547 0.0
C746 C 0.76661 0.27936 0.70446 0.0
C747 C 0.7643 0.26627 0.68063 0.0
C748 C 0.75504 0.23739 0.67845 0.0
C749 C 0.74641 0.22301 0.70022 0.0
C750 C 0.7489 0.23702 0.72371 0.0
Zn751 Zn 0.77511 0.27953 0.75965 0.0
C752 C 0.80678 0.23251 0.78683 0.0
N753 N 0.81327 0.30823 0.82921 0.0
C754 C 0.82139 0.3362 0.83356 0.0
C755 C 0.81196 0.28888 0.84851 0.0
C756 C 0.81825 0.29748 0.87338 0.0
C757 C 0.82523 0.32638 0.87848 0.0
C758 C 0.82716 0.34594 0.8584 0.0
Zn759 Zn 0.79755 0.29478 0.79474 0.0
O760 O 0.81513 0.28836 0.74259 0.0
C761 C 0.76602 0.34222 0.76774 0.0
O762 O 0.83474 0.30708 0.77744 0.0
H763 H 0.80462 0.26702 0.84488 0.0
H764 H 0.77572 0.30083 0.70638 0.0
H765 H 0.82219 0.35123 0.81794 0.0
O766 O 0.76063 0.32256 0.7512 0.0
O767 O 0.78075 0.33609 0.78762 0.0
H768 H 0.74385 0.22541 0.74072 0.0
O769 O 0.76033 0.28215 0.81242 0.0
O770 O 0.73594 0.27025 0.77763 0.0
O771 O 0.81443 0.25336 0.80129 0.0
O772 O 0.78946 0.23712 0.76837 0.0
C773 C 0.7374 0.27337 0.80169 0.0
H774 H 0.77138 0.27808 0.66436 0.0
H775 H 0.73875 0.20088 0.69923 0.0
H776 H 0.81615 0.28205 0.88863 0.0
H777 H 0.83238 0.36846 0.86195 0.0
C778 C 0.73867 0.74676 0.7353 0.0
N779 N 0.78881 0.80428 0.69789 0.0
C780 C 0.80748 0.78269 0.69944 0.0
C781 C 0.81908 0.77245 0.67766 0.0
C782 C 0.81139 0.78458 0.65398 0.0
C783 C 0.79584 0.81001 0.65368 0.0
C784 C 0.78423 0.81927 0.676 0.0
Zn785 Zn 0.76209 0.80588 0.72656 0.0
C786 C 0.70253 0.812 0.70786 0.0
N787 N 0.70602 0.80433 0.78595 0.0
C788 C 0.70993 0.78327 0.80357 0.0
C789 C 0.68904 0.82674 0.79 0.0
C790 C 0.6783 0.83059 0.81388 0.0
C791 C 0.68612 0.81177 0.8338 0.0
C792 C 0.70019 0.78658 0.82776 0.0
Zn793 Zn 0.73199 0.80502 0.7567 0.0
O794 O 0.75689 0.76052 0.72328 0.0
C795 C 0.78966 0.7947 0.77626 0.0
O796 O 0.72374 0.76029 0.75036 0.0
H797 H 0.68585 0.84298 0.77551 0.0
H798 H 0.81087 0.77099 0.717 0.0
H799 H 0.72315 0.76535 0.79981 0.0
O800 O 0.796 0.80061 0.75373 0.0
O801 O 0.76438 0.79482 0.78187 0.0
H802 H 0.76949 0.83658 0.67529 0.0
O803 O 0.74153 0.8493 0.76336 0.0
O804 O 0.76732 0.85127 0.73008 0.0
O805 O 0.69941 0.81486 0.73146 0.0
O806 O 0.72703 0.8093 0.70003 0.0
C807 C 0.75715 0.86367 0.74897 0.0
H808 H 0.83093 0.75292 0.67927 0.0
H809 H 0.79021 0.8208 0.63603 0.0
H810 H 0.66654 0.84972 0.81732 0.0
H811 H 0.70676 0.7712 0.84215 0.0
C812 C 0.54871 0.58216 0.43988 0.0
N813 N 0.50207 0.60041 0.50439 0.0
C814 C 0.48549 0.61085 0.48487 0.0
C815 C 0.45657 0.61036 0.48649 0.0
C816 C 0.44505 0.59894 0.50833 0.0
C817 C 0.46265 0.59555 0.53011 0.0
C818 C 0.49147 0.59641 0.52769 0.0
Zn819 Zn 0.53668 0.57649 0.49541 0.0
C820 C 0.51802 0.51954 0.47513 0.0
N821 N 0.60442 0.52396 0.47576 0.0
C822 C 0.62953 0.53519 0.46944 0.0
C823 C 0.60187 0.49625 0.48407 0.0
C824 C 0.62552 0.48017 0.48977 0.0
C825 C 0.65193 0.49278 0.48685 0.0
C826 C 0.65378 0.51972 0.47472 0.0
Zn827 Zn 0.57226 0.55046 0.48313 0.0
O828 O 0.53298 0.58974 0.45722 0.0
C829 C 0.59066 0.60672 0.50546 0.0
O830 O 0.56965 0.56667 0.44564 0.0
H831 H 0.58184 0.48773 0.48933 0.0
H832 H 0.49383 0.61597 0.46679 0.0
H833 H 0.63114 0.55726 0.46301 0.0
O834 O 0.56446 0.6106 0.50466 0.0
O835 O 0.60008 0.58369 0.49634 0.0
H836 H 0.50463 0.59003 0.54376 0.0
O837 O 0.57484 0.53362 0.52051 0.0
O838 O 0.54225 0.56141 0.53333 0.0
O839 O 0.54378 0.51841 0.47107 0.0
O840 O 0.50874 0.54119 0.48644 0.0
C841 C 0.56054 0.54264 0.53829 0.0
H842 H 0.44354 0.61416 0.4695 0.0
H843 H 0.45457 0.58753 0.54765 0.0
H844 H 0.6233 0.45953 0.49914 0.0
H845 H 0.67382 0.53035 0.47238 0.0
C846 C 0.06031 0.49097 0.08328 0.0
N847 N 0.0807 0.4148 0.04661 0.0
C848 C 0.09981 0.41182 0.0663 0.0
C849 C 0.10643 0.38444 0.07534 0.0
C850 C 0.0935 0.35997 0.06374 0.0
C851 C 0.07562 0.36375 0.04215 0.0
C852 C 0.06918 0.39147 0.03409 0.0
Zn853 Zn 0.06531 0.45409 0.03784 0.0
C854 C 0.00272 0.45309 0.04398 0.0
N855 N 0.02878 0.5335 0.01988 0.0
C856 C 0.04324 0.55796 0.02702 0.0
C857 C 0.00361 0.5344 0.00688 0.0
C858 C 0.99212 0.56078 0.00033 0.0
C859 C 0.00693 0.58627 0.00694 0.0
C860 C 0.03269 0.5848 0.02054 0.0
Zn861 Zn 0.04496 0.49492 0.02867 0.0
O862 O 0.06783 0.46608 0.07668 0.0
C863 C 0.10742 0.49604 0.02325 0.0
O864 O 0.0517 0.50847 0.06635 0.0
H865 H 0.9926 0.51463 0.00131 0.0
H866 H 0.10881 0.43069 0.07588 0.0
H867 H 0.06309 0.55663 0.03753 0.0
O868 O 0.10604 0.47104 0.03294 0.0
O869 O 0.08522 0.51013 0.01923 0.0
H870 H 0.05389 0.39429 0.01859 0.0
O871 O 0.03772 0.48159 0.99099 0.0
O872 O 0.06264 0.44324 -0.00166 0.0
O873 O 0.00524 0.47947 0.03817 0.0
O874 O 0.02399 0.43723 0.04353 0.0
C875 C 0.04906 0.45923 0.98281 0.0
H876 H 0.12016 0.38264 0.09217 0.0
H877 H 0.06566 0.34552 0.03225 0.0
H878 H 0.97234 0.56126 0.98951 0.0
H879 H 0.04456 0.60418 0.02593 0.0
H880 H 0.15409 0.12393 0.11798 0.0
H881 H 0.0826 0.08367 0.1512 0.0
H882 H 0.06806 0.06234 0.11033 0.0
H883 H 0.07157 0.06137 0.06497 0.0
H884 H 0.14201 0.10113 0.02989 0.0
H885 H 0.1612 0.11694 0.07206 0.0
C886 C 0.13606 0.10938 0.11649 0.0
C887 C 0.11925 0.10543 0.13748 0.0
C888 C 0.12715 0.09818 0.09261 0.0
C889 C 0.09582 0.08685 0.13532 0.0
C890 C 0.08731 0.07501 0.1119 0.0
C891 C 0.09103 0.07379 0.06638 0.0
C892 C 0.10474 0.08143 0.04434 0.0
C893 C 0.102 0.08184 0.09033 0.0
C894 C 0.13063 0.09606 0.04661 0.0
C895 C 0.14166 0.10472 0.07067 0.0
H896 H 0.11637 0.77396 0.36325 0.0
H897 H 0.07717 0.72454 0.30143 0.0
H898 H 0.12045 0.72703 0.27875 0.0
H899 H 0.17032 0.74263 0.27684 0.0
H900 H 0.2087 0.79077 0.34006 0.0
H901 H 0.16521 0.78926 0.3615 0.0
C902 C 0.11716 0.76386 0.34475 0.0
C903 C 0.0934 0.74916 0.33413 0.0
C904 C 0.14222 0.765 0.33196 0.0
C905 C 0.09507 0.73603 0.31016 0.0
C906 C 0.11988 0.73741 0.29714 0.0
C907 C 0.16912 0.75278 0.29528 0.0
C908 C 0.19301 0.76672 0.30668 0.0
C909 C 0.14375 0.7517 0.30791 0.0
C910 C 0.19091 0.77972 0.33068 0.0
C911 C 0.16591 0.77897 0.34307 0.0
H912 H 0.522 0.7602 0.60506 0.0
H913 H 0.59902 0.76976 0.65037 0.0
H914 H 0.60872 0.81602 0.63019 0.0
H915 H 0.59556 0.85333 0.59919 0.0
H916 H 0.51617 0.84541 0.55693 0.0
H917 H 0.50774 0.79859 0.57578 0.0
C918 C 0.54088 0.77244 0.6105 0.0
C919 C 0.55974 0.76164 0.6291 0.0
C920 C 0.54615 0.79914 0.59909 0.0
C921 C 0.58405 0.77778 0.63618 0.0
C922 C 0.5897 0.80415 0.62457 0.0
C923 C 0.57627 0.84158 0.59424 0.0
C924 C 0.55684 0.85295 0.57626 0.0
C925 C 0.57089 0.81502 0.60595 0.0
C926 C 0.53208 0.83702 0.57 0.0
C927 C 0.52696 0.81029 0.58106 0.0
H928 H 0.42495 0.25136 0.90103 0.0
H929 H 0.4749 0.26558 0.83612 0.0
H930 H 0.43223 0.26817 0.8086 0.0
H931 H 0.38058 0.26637 0.80327 0.0
H932 H 0.33185 0.25185 0.869 0.0
H933 H 0.37443 0.24967 0.89597 0.0
C934 C 0.42672 0.255 0.88085 0.0
C935 C 0.45323 0.25825 0.8707 0.0
C936 C 0.40227 0.25657 0.86532 0.0
C937 C 0.45484 0.26292 0.84447 0.0
C938 C 0.43043 0.26449 0.82875 0.0
C939 C 0.37929 0.26289 0.82352 0.0
C940 C 0.35297 0.25934 0.83408 0.0
C941 C 0.404 0.26141 0.83901 0.0
C942 C 0.35173 0.25467 0.86033 0.0
C943 C 0.37609 0.25336 0.87579 0.0
H944 H 0.99636 0.82731 0.47158 0.0
H945 H 0.0438 0.85268 0.40749 0.0
H946 H 0.04593 0.9026 0.42304 0.0
H947 H 0.03388 0.93888 0.45485 0.0
H948 H 0.98773 0.91218 0.5194 0.0
H949 H 0.98536 0.86274 0.50344 0.0
C950 C 0.00717 0.8437 0.46089 0.0
C951 C 0.01976 0.83627 0.43827 0.0
C952 C 0.00842 0.87209 0.46999 0.0
C953 C 0.03395 0.85779 0.42494 0.0
C954 C 0.03508 0.88633 0.43379 0.0
C955 C 0.02318 0.92225 0.46536 0.0
C956 C 0.01083 0.92924 0.48824 0.0
C957 C 0.02228 0.89372 0.45626 0.0
C958 C 0.99736 0.9074 0.50177 0.0
C959 C 0.99602 0.87913 0.49266 0.0
H960 H 0.49611 0.65333 0.73709 0.0
H961 H 0.47336 0.66192 0.65735 0.0
H962 H 0.42603 0.67468 0.66734 0.0
H963 H 0.39316 0.68935 0.69877 0.0
H964 H 0.41672 0.68408 0.77863 0.0
H965 H 0.46171 0.66432 0.76867 0.0
C966 C 0.48052 0.65722 0.72195 0.0
C967 C 0.48806 0.65664 0.69655 0.0
C968 C 0.4537 0.66577 0.72789 0.0
C969 C 0.46791 0.66224 0.67705 0.0
C970 C 0.44093 0.66971 0.68275 0.0
C971 C 0.40794 0.68336 0.71399 0.0
C972 C 0.40176 0.68838 0.73937 0.0
C973 C 0.4339 0.6725 0.70811 0.0
C974 C 0.42123 0.68083 0.75891 0.0
C975 C 0.44688 0.6694 0.75324 0.0
H976 H 0.553 0.19716 0.9885 0.0
H977 H 0.55463 0.16108 0.91327 0.0
H978 H 0.55871 0.11252 0.93143 0.0
H979 H 0.55454 0.08036 0.9685 0.0
H980 H 0.55216 0.11733 0.04358 0.0
H981 H 0.55583 0.16566 0.02568 0.0
C982 C 0.55501 0.17869 0.97613 0.0
C983 C 0.55331 0.18248 0.94964 0.0
C984 C 0.55669 0.15106 0.98668 0.0
C985 C 0.55609 0.15859 0.93372 0.0
C986 C 0.55805 0.13086 0.94412 0.0
C987 C 0.5552 0.09899 0.98098 0.0
C988 C 0.55252 0.09526 0.00732 0.0
C989 C 0.55719 0.12679 0.97053 0.0
C990 C 0.55392 0.11957 0.02326 0.0
C991 C 0.55597 0.14723 0.01304 0.0
H992 H 0.0977 0.24267 0.22933 0.0
H993 H 0.13334 0.1761 0.27685 0.0
H994 H 0.14764 0.2121 0.30922 0.0
H995 H 0.16167 0.26176 0.31715 0.0
H996 H 0.13997 0.327 0.26182 0.0
H997 H 0.1068 0.29323 0.24029 0.0
C998 C 0.10751 0.236 0.24731 0.0
C999 C 0.11445 0.20696 0.25098 0.0
C1000 C 0.11829 0.25705 0.26432 0.0
C1001 C 0.12774 0.19838 0.27389 0.0
C1002 C 0.13606 0.21901 0.2922 0.0
C1003 C 0.14889 0.26905 0.30095 0.0
C1004 C 0.15384 0.29659 0.29058 0.0
C1005 C 0.13319 0.24847 0.28672 0.0
C1006 C 0.13676 0.30581 0.26993 0.0
C1007 C 0.11824 0.28629 0.25737 0.0
H1008 H 0.14337 0.00702 0.15007 0.0
H1009 H 0.05927 0.02078 0.17181 0.0
H1010 H 0.04103 0.00594 0.12969 0.0
H1011 H 0.04941 0.99721 0.0852 0.0
H1012 H 0.13358 0.98749 0.06182 0.0
H1013 H 0.15132 0.99202 0.10593 0.0
C1014 C 0.12105 0.00599 0.14568 0.0
C1015 C 0.10264 0.01507 0.16385 0.0
C1016 C 0.11074 0.9985 0.12101 0.0
C1017 C 0.07378 0.01401 0.15799 0.0
C1018 C 0.06335 0.00555 0.13393 0.0
C1019 C 0.07157 0.99526 0.0898 0.0
C1020 C 0.09012 0.99234 0.0702 0.0
C1021 C 0.08169 -0.00106 0.11502 0.0
C1022 C 0.11878 0.98973 0.07652 0.0
C1023 C 0.129 0.99262 0.10176 0.0
H1024 H 0.32908 0.86804 0.48837 0.0
H1025 H 0.23925 0.86812 0.48915 0.0
H1026 H 0.23584 0.85337 0.44436 0.0
H1027 H 0.25878 0.83768 0.40601 0.0
H1028 H 0.34857 0.83957 0.40519 0.0
H1029 H 0.35183 0.85673 0.44924 0.0
C1030 C 0.30875 0.86484 0.4787 0.0
C1031 C 0.28442 0.86854 0.49195 0.0
C1032 C 0.30706 0.85682 0.45313 0.0
C1033 C 0.2582 0.86513 0.47921 0.0
C1034 C 0.25629 0.85668 0.45372 0.0
C1035 C 0.27899 0.84209 0.41555 0.0
C1036 C 0.30345 0.83719 0.40281 0.0
C1037 C 0.2806 0.85204 0.44066 0.0
C1038 C 0.32959 0.84327 0.41488 0.0
C1039 C 0.3314 0.8529 0.43998 0.0
H1040 H 0.51041 0.99758 0.69288 0.0
H1041 H 0.43974 0.04694 0.66608 0.0
H1042 H 0.46374 0.0594 0.6275 0.0
H1043 H 0.50069 0.04842 0.59851 0.0
H1044 H 0.56852 0.99447 0.62409 0.0
H1045 H 0.55004 0.99212 0.6664 0.0
C1046 C 0.50037 0.01144 0.67878 0.0
C1047 C 0.47307 0.02074 0.68197 0.0
C1048 C 0.5138 0.01756 0.65644 0.0
C1049 C 0.46063 0.03925 0.66389 0.0
C1050 C 0.4743 0.04625 0.64181 0.0
C1051 C 0.51192 0.03697 0.61361 0.0
C1052 C 0.53579 0.02143 0.60827 0.0
C1053 C 0.50033 0.03443 0.63742 0.0
C1054 C 0.55004 0.00645 0.62784 0.0
C1055 C 0.53937 0.00494 0.65192 0.0
H1056 H 0.20779 0.14843 0.98531 0.0
H1057 H 0.29524 0.16995 -0.00022 0.0
H1058 H 0.29705 0.19201 0.95805 0.0
H1059 H 0.27395 0.20604 0.91791 0.0
H1060 H 0.18699 0.18441 0.90223 0.0
H1061 H 0.18484 0.16124 0.94399 0.0
C1062 C 0.22725 0.1579 0.9793 0.0
C1063 C 0.25129 0.15768 -0.00425 0.0
C1064 C 0.22822 0.17054 0.95515 0.0
C1065 C 0.27639 0.16984 0.98758 0.0
C1066 C 0.27748 0.18252 0.96372 0.0
C1067 C 0.25446 0.19646 0.92375 0.0
C1068 C 0.23053 0.19729 0.90735 0.0
C1069 C 0.25351 0.18319 0.94749 0.0
C1070 C 0.2056 0.18411 0.91471 0.0
C1071 C 0.2044 0.17095 0.93854 0.0
H1072 H 0.10344 0.00607 0.30565 0.0
H1073 H 0.09683 0.09835 0.29829 0.0
H1074 H 0.08018 0.10162 0.34099 0.0
H1075 H 0.06706 0.07846 0.38057 0.0
H1076 H 0.07015 0.98612 0.38747 0.0
H1077 H 0.08861 0.98256 0.34504 0.0
C1078 C 0.09831 0.02681 0.31346 0.0
C1079 C 0.1013 0.05186 0.29881 0.0
C1080 C 0.08816 0.02856 0.33799 0.0
C1081 C 0.09445 0.07866 0.30907 0.0
C1082 C 0.08504 0.08062 0.33356 0.0
C1083 C 0.07192 0.05765 0.37271 0.0
C1084 C 0.06752 0.03263 0.38691 0.0
C1085 C 0.08177 0.05576 0.34818 0.0
C1086 C 0.07347 0.00564 0.37665 0.0
C1087 C 0.084 0.00362 0.35247 0.0
H1088 H 0.27265 0.80306 0.61213 0.0
H1089 H 0.23824 0.8814 0.64009 0.0
H1090 H 0.22503 0.85618 0.67872 0.0
H1091 H 0.23019 0.81401 0.70699 0.0
H1092 H 0.2683 0.73736 0.67964 0.0
H1093 H 0.27262 0.7596 0.638 0.0
C1094 C 0.26192 0.8146 0.62651 0.0
C1095 C 0.25692 0.84422 0.62349 0.0
C1096 C 0.25509 0.8002 0.64876 0.0
C1097 C 0.2425 0.85866 0.64205 0.0
C1098 C 0.23507 0.84426 0.66417 0.0
C1099 C 0.23856 0.80184 0.69163 0.0
C1100 C 0.24895 0.77407 0.69632 0.0
C1101 C 0.24217 0.8153 0.6681 0.0
C1102 C 0.26017 0.75872 0.67643 0.0
C1103 C 0.26284 0.77152 0.65272 0.0
H1104 H 0.48325 0.96668 0.81008 0.0
H1105 H 0.4144 0.02306 0.82058 0.0
H1106 H 0.42683 0.02564 0.86621 0.0
H1107 H 0.45709 0.01111 0.90304 0.0
H1108 H 0.52655 0.95604 0.89156 0.0
H1109 H 0.51387 0.9534 0.84609 0.0
C1110 C 0.4709 0.97956 0.82231 0.0
C1111 C 0.44784 0.99451 0.81208 0.0
C1112 C 0.47818 0.98097 0.84825 0.0
C1113 C 0.43229 0.01141 0.82808 0.0
C1114 C 0.4393 0.01277 0.85413 0.0
C1115 C 0.46921 0.99839 0.89049 0.0
C1116 C 0.49249 0.98354 0.90036 0.0
C1117 C 0.46209 0.99745 0.86441 0.0
C1118 C 0.50851 0.96753 0.88414 0.0
C1119 C 0.5013 0.96607 0.85826 0.0
H1120 H 0.27938 0.21397 0.1094 0.0
H1121 H 0.20674 0.17098 0.13807 0.0
H1122 H 0.19767 0.21305 0.16371 0.0
H1123 H 0.211 0.2603 0.17933 0.0
H1124 H 0.28191 0.30589 0.14989 0.0
H1125 H 0.29115 0.26415 0.12335 0.0
C1126 C 0.26194 0.21371 0.12172 0.0
C1127 C 0.24404 0.18932 0.12228 0.0
C1128 C 0.25643 0.23828 0.13614 0.0
C1129 C 0.221 0.18941 0.13764 0.0
C1130 C 0.21573 0.21343 0.15224 0.0
C1131 C 0.22802 0.2618 0.16661 0.0
C1132 C 0.2456 0.28651 0.16663 0.0
C1133 C 0.23323 0.23791 0.1516 0.0
C1134 C 0.26806 0.28718 0.15043 0.0
C1135 C 0.27343 0.26326 0.13532 0.0
H1136 H 0.27544 0.04501 0.03947 0.0
H1137 H 0.21892 0.02716 0.09874 0.0
H1138 H 0.1989 0.9861 0.07471 0.0
H1139 H 0.18584 0.97007 0.03195 0.0
H1140 H 0.23419 0.99794 0.96938 0.0
H1141 H 0.26961 0.01912 -0.00087 0.0
C1142 C 0.25982 0.03108 0.04769 0.0
C1143 C 0.24807 0.03933 0.07042 0.0
C1144 C 0.24632 0.00972 0.03245 0.0
C1145 C 0.22797 0.02127 0.08108 0.0
C1146 C 0.21625 0.99807 0.06712 0.0
C1147 C 0.20488 0.97937 0.02484 0.0
C1148 C 0.20704 0.98337 -0.00147 0.0
C1149 C 0.22338 0.99414 0.04186 0.0
C1150 C 0.23189 0.99515 0.98957 0.0
C1151 C 0.25191 0.00764 0.00662 0.0
H1152 H 0.7066 0.44278 0.07633 0.0
H1153 H 0.73804 0.4841 0.00988 0.0
H1154 H 0.69314 0.50676 0.00135 0.0
H1155 H 0.64399 0.51249 0.01113 0.0
H1156 H 0.61216 0.47019 0.07696 0.0
H1157 H 0.65806 0.45047 0.08731 0.0
C1158 C 0.70378 0.45703 0.06016 0.0
C1159 C 0.72577 0.46159 0.04375 0.0
C1160 C 0.67768 0.46969 0.05509 0.0
C1161 C 0.72156 0.48006 0.02282 0.0
C1162 C 0.69581 0.49302 0.01787 0.0
C1163 C 0.64711 0.49916 0.02787 0.0
C1164 C 0.62449 0.49277 0.04314 0.0
C1165 C 0.67357 0.4876 0.03362 0.0
C1166 C 0.62906 0.47542 0.06477 0.0
C1167 C 0.65535 0.46409 0.07072 0.0
H1168 H 0.84645 0.43718 0.24738 0.0
H1169 H 0.87521 0.39661 0.18013 0.0
H1170 H 0.84912 0.35253 0.18969 0.0
H1171 H 0.82478 0.32321 0.22076 0.0
H1172 H 0.79579 0.36319 0.2881 0.0
H1173 H 0.81561 0.40976 0.27516 0.0
C1174 C 0.8461 0.41908 0.23431 0.0
C1175 C 0.86292 0.42001 0.21322 0.0
C1176 C 0.83189 0.39339 0.24046 0.0
C1177 C 0.86247 0.39632 0.19654 0.0
C1178 C 0.84788 0.37098 0.20218 0.0
C1179 C 0.82278 0.3422 0.23252 0.0
C1180 C 0.80968 0.3398 0.25566 0.0
C1181 C 0.83377 0.36883 0.22475 0.0
C1182 C 0.80629 0.36458 0.27039 0.0
C1183 C 0.8175 0.39117 0.26295 0.0
H1184 H 0.9019 0.59127 0.53093 0.0
H1185 H 0.87477 0.5404 0.46527 0.0
H1186 H 0.92224 0.52309 0.46183 0.0
H1187 H 0.97093 0.52057 0.47902 0.0
H1188 H 0.99659 0.5705 0.54573 0.0
H1189 H 0.95007 0.58993 0.54718 0.0
C1190 C 0.90632 0.57657 0.5157 0.0
C1191 C 0.8848 0.56705 0.49845 0.0
C1192 C 0.93336 0.56634 0.51414 0.0
C1193 C 0.89097 0.54801 0.47885 0.0
C1194 C 0.91808 0.53804 0.47691 0.0
C1195 C 0.96633 0.53579 0.49379 0.0
C1196 C 0.98715 0.54392 0.51232 0.0
C1197 C 0.93935 0.54674 0.49471 0.0
C1198 C 0.98091 0.56369 0.53134 0.0
C1199 C 0.95432 0.57489 0.53217 0.0
H1200 H 0.1837 0.14371 0.20574 0.0
H1201 H 0.21115 0.09602 0.27216 0.0
H1202 H 0.23079 0.14032 0.29174 0.0
H1203 H 0.23442 0.19375 0.29212 0.0
H1204 H 0.20625 0.24068 0.22534 0.0
H1205 H 0.19203 0.19566 0.2042 0.0
C1206 C 0.19461 0.1429 0.22424 0.0
C1207 C 0.19572 0.11669 0.23755 0.0
C1208 C 0.20511 0.16849 0.23564 0.0
C1209 C 0.21014 0.11589 0.26142 0.0
C1210 C 0.221 0.14132 0.2728 0.0
C1211 C 0.2254 0.19402 0.27285 0.0
C1212 C 0.22113 0.22052 0.26044 0.0
C1213 C 0.21759 0.16792 0.26049 0.0
C1214 C 0.20978 0.2206 0.23534 0.0
C1215 C 0.20176 0.19487 0.22313 0.0
H1216 H 0.38771 0.91452 0.58772 0.0
H1217 H 0.3391 0.98207 0.55255 0.0
H1218 H 0.38208 0.00538 0.53831 0.0
H1219 H 0.43351 0.00379 0.53273 0.0
H1220 H 0.47922 0.93212 0.56474 0.0
H1221 H 0.4372 0.91289 0.58261 0.0
C1222 C 0.3863 0.93456 0.5772 0.0
C1223 C 0.36004 0.9464 0.57119 0.0
C1224 C 0.41067 0.94674 0.56788 0.0
C1225 C 0.35897 0.9725 0.55763 0.0
C1226 C 0.38355 0.98562 0.54919 0.0
C1227 C 0.43416 0.9839 0.5435 0.0
C1228 C 0.45957 0.96933 0.54708 0.0
C1229 C 0.40949 0.97244 0.55356 0.0
C1230 C 0.46004 0.94367 0.56127 0.0
C1231 C 0.436 0.9327 0.57175 0.0
H1232 H 0.82159 0.55799 0.25275 0.0
H1233 H 0.89391 0.58914 0.21472 0.0
H1234 H 0.87518 0.63766 0.21334 0.0
H1235 H 0.8395 0.67206 0.22528 0.0
H1236 H 0.76856 0.64097 0.26522 0.0
H1237 H 0.78524 0.59177 0.26314 0.0
C1238 C 0.83321 0.57532 0.24401 0.0
C1239 C 0.85922 0.56983 0.234 0.0
C1240 C 0.82248 0.6033 0.24354 0.0
C1241 C 0.87393 0.59268 0.22275 0.0
C1242 C 0.8632 0.62049 0.22189 0.0
C1243 C 0.82746 0.65441 0.23307 0.0
C1244 C 0.80276 0.66017 0.24529 0.0
C1245 C 0.83764 0.62616 0.23249 0.0
C1246 C 0.78762 0.63712 0.25569 0.0
C1247 C 0.79721 0.60897 0.25461 0.0
H1248 H 0.72606 0.47065 0.77646 0.0
H1249 H 0.67175 0.44396 0.71265 0.0
H1250 H 0.69305 0.39651 0.71312 0.0
H1251 H 0.72632 0.36179 0.73269 0.0
H1252 H 0.7799 0.38931 0.79682 0.0
H1253 H 0.75982 0.43696 0.795 0.0
C1254 C 0.71888 0.45454 0.76256 0.0
C1255 C 0.6972 0.461 0.74461 0.0
C1256 C 0.73115 0.42726 0.76298 0.0
C1257 C 0.68834 0.43971 0.72674 0.0
C1258 C 0.70053 0.41249 0.727 0.0
C1259 C 0.73375 0.37829 0.74612 0.0
C1260 C 0.75462 0.37175 0.7649 0.0
C1261 C 0.72186 0.4059 0.74516 0.0
C1262 C 0.76385 0.3935 0.7822 0.0
C1263 C 0.75234 0.42087 0.78121 0.0
H1264 H 0.00779 0.85885 0.92183 0.0
H1265 H 0.93657 0.86629 0.9682 0.0
H1266 H 0.95523 0.91247 0.98488 0.0
H1267 H 0.99304 0.94934 0.98755 0.0
H1268 H 0.06463 0.9398 0.9419 0.0
H1269 H 0.04435 0.89552 0.9236 0.0
C1270 C 0.99617 0.87054 0.9355 0.0
C1271 C 0.97093 0.85912 0.94389 0.0
C1272 C 0.00715 0.89655 0.94521 0.0
C1273 C 0.95616 0.87463 0.96156 0.0
C1274 C 0.96681 0.90096 0.9711 0.0
C1275 C 0.00409 0.93758 0.97353 0.0
C1276 C 0.03034 0.94761 0.96622 0.0
C1277 C 0.99249 0.91191 0.96328 0.0
C1278 C 0.0445 0.9323 0.94802 0.0
C1279 C 0.03293 0.90705 0.93749 0.0
H1280 H 0.95978 0.32202 0.71997 0.0
H1281 H 0.93801 0.24806 0.67278 0.0
H1282 H 0.89098 0.24693 0.68865 0.0
H1283 H 0.85591 0.26654 0.7165 0.0
H1284 H 0.87882 0.33861 0.7655 0.0
H1285 H 0.92516 0.34107 0.7482 0.0
C1286 C 0.94479 0.30562 0.71313 0.0
C1287 C 0.9526 0.28516 0.69513 0.0
C1288 C 0.91777 0.30488 0.72257 0.0
C1289 C 0.93278 0.26401 0.68668 0.0
C1290 C 0.90576 0.26342 0.69568 0.0
C1291 C 0.87094 0.28301 0.72314 0.0
C1292 C 0.86373 0.30259 0.74211 0.0
C1293 C 0.89797 0.28375 0.71363 0.0
C1294 C 0.88371 0.32338 0.75087 0.0
C1295 C 0.91029 0.32474 0.74103 0.0
H1296 H 0.44783 0.23442 0.47563 0.0
H1297 H 0.53087 0.25223 0.45101 0.0
H1298 H 0.54646 0.2062 0.46853 0.0
H1299 H 0.5353 0.15915 0.48727 0.0
H1300 H 0.45144 0.14003 0.50898 0.0
H1301 H 0.43718 0.18835 0.49601 0.0
C1302 C 0.46947 0.22847 0.47454 0.0
C1303 C 0.48821 0.24664 0.46211 0.0
C1304 C 0.47796 0.2016 0.48377 0.0
C1305 C 0.51608 0.23851 0.46048 0.0
C1306 C 0.52496 0.21219 0.47039 0.0
C1307 C 0.51401 0.16578 0.48945 0.0
C1308 C 0.49438 0.14621 0.49895 0.0
C1309 C 0.5059 0.19329 0.4815 0.0
C1310 C 0.46678 0.15476 0.50145 0.0
C1311 C 0.45868 0.18235 0.49414 0.0
H1312 H 0.61365 0.75955 0.18153 0.0
H1313 H 0.58237 0.7312 0.25287 0.0
H1314 H 0.62996 0.72811 0.2711 0.0
H1315 H 0.68039 0.73139 0.26639 0.0
H1316 H 0.71231 0.75814 0.19479 0.0
H1317 H 0.66467 0.76353 0.17701 0.0
C1318 C 0.61729 0.75321 0.20119 0.0
C1319 C 0.59449 0.74583 0.21588 0.0
C1320 C 0.64485 0.75067 0.21139 0.0
C1321 C 0.59955 0.73709 0.24119 0.0
C1322 C 0.62677 0.73516 0.2516 0.0
C1323 C 0.677 0.7383 0.24685 0.0
C1324 C 0.69999 0.74417 0.23194 0.0
C1325 C 0.64957 0.74143 0.23676 0.0
C1326 C 0.69506 0.75326 0.20669 0.0
C1327 C 0.66779 0.7565 0.19653 0.0
H1328 H 0.04931 0.20099 0.56437 0.0
H1329 H 0.00264 0.17417 0.62848 0.0
H1330 H 0.99617 0.12581 0.6099 0.0
H1331 H 0.00644 0.09061 0.57664 0.0
H1332 H 0.05292 0.11833 0.51261 0.0
H1333 H 0.05703 0.16705 0.53018 0.0
C1334 C 0.03753 0.18465 0.57427 0.0
C1335 C 0.02668 0.19109 0.59792 0.0
C1336 C 0.03418 0.15704 0.56363 0.0
C1337 C 0.01115 0.16979 0.61026 0.0
C1338 C 0.00765 0.14211 0.59972 0.0
C1339 C 0.01749 0.10731 0.56653 0.0
C1340 C 0.02967 0.10075 0.54345 0.0
C1341 C 0.01955 0.13537 0.57664 0.0
C1342 C 0.0435 0.12274 0.53042 0.0
C1343 C 0.04583 0.1506 0.54045 0.0
H1344 H 0.55805 0.2829 0.3638 0.0
H1345 H 0.55967 0.3746 0.35004 0.0
H1346 H 0.60526 0.37107 0.33166 0.0
H1347 H 0.64472 0.34163 0.31924 0.0
H1348 H 0.64177 0.24987 0.33205 0.0
H1349 H 0.59672 0.25372 0.3512 0.0
C1350 C 0.56834 0.30215 0.3568 0.0
C1351 C 0.55549 0.32895 0.35832 0.0
C1352 C 0.59437 0.29995 0.34613 0.0
C1353 C 0.56908 0.35365 0.34902 0.0
C1354 C 0.59519 0.35168 0.33857 0.0
C1355 C 0.63419 0.32261 0.32639 0.0
C1356 C 0.64638 0.29553 0.32426 0.0
C1357 C 0.60805 0.32493 0.33704 0.0
C1358 C 0.63257 0.2709 0.33335 0.0
C1359 C 0.60688 0.27309 0.34431 0.0
H1360 H 0.49273 0.82641 0.0775 0.0
H1361 H 0.54014 0.85261 0.14576 0.0
H1362 H 0.54378 0.90172 0.12976 0.0
H1363 H 0.53394 0.93721 0.0965 0.0
H1364 H 0.48845 0.9113 0.02724 0.0
H1365 H 0.48346 0.86216 0.04361 0.0
C1366 C 0.50387 0.84286 0.08886 0.0
C1367 C 0.51612 0.83575 0.11283 0.0
C1368 C 0.50613 0.87115 0.07943 0.0
C1369 C 0.53059 0.85736 0.12723 0.0
C1370 C 0.53263 0.88552 0.11813 0.0
C1371 C 0.52272 0.9209 0.08502 0.0
C1372 C 0.5114 0.92798 0.06074 0.0
C1373 C 0.52047 0.89266 0.09431 0.0
C1374 C 0.49729 0.90644 0.04601 0.0
C1375 C 0.49449 0.87833 0.05535 0.0
H1376 H 0.86175 0.76376 0.87403 0.0
H1377 H 0.92905 0.7847 0.8254 0.0
H1378 H 0.89539 0.79153 0.78959 0.0
H1379 H 0.84638 0.79559 0.77335 0.0
H1380 H 0.78008 0.77611 0.82371 0.0
H1381 H 0.81396 0.76493 0.85763 0.0
C1382 C 0.86916 0.7696 0.85556 0.0
C1383 C 0.89774 0.7741 0.85243 0.0
C1384 C 0.84986 0.77412 0.83543 0.0
C1385 C 0.90704 0.78121 0.82829 0.0
C1386 C 0.88783 0.7853 0.80787 0.0
C1387 C 0.83945 0.78879 0.79172 0.0
C1388 C 0.81082 0.78709 0.79607 0.0
C1389 C 0.85911 0.78252 0.81142 0.0
C1390 C 0.80203 0.77799 0.8199 0.0
C1391 C 0.82135 0.77146 0.83935 0.0
H1392 H 0.96073 0.0585 0.86721 0.0
H1393 H 0.99899 0.98025 0.84337 0.0
H1394 H 0.03866 0.98945 0.87281 0.0
H1395 H 0.05937 0.01562 0.90942 0.0
H1396 H 0.01957 0.09107 0.93669 0.0
H1397 H 0.98456 0.0879 0.90135 0.0
C1398 C 0.97789 0.04368 0.8683 0.0
C1399 C 0.9765 0.01845 0.85343 0.0
C1400 C 1.0007 0.04881 0.88574 0.0
C1401 C 0.9991 -0.00044 0.85494 0.0
C1402 C 0.02201 0.00487 0.87167 0.0
C1403 C 0.0438 0.03212 0.90693 0.0
C1404 C 0.04219 0.0537 0.92539 0.0
C1405 C 0.0227 0.02897 0.88765 0.0
C1406 C 0.0214 0.07448 0.92242 0.0
C1407 C 1.00109 0.07236 0.90249 0.0
H1408 H 0.77186 0.15972 0.58168 0.0
H1409 H 0.73607 0.23436 0.54508 0.0
H1410 H 0.73306 0.25815 0.58594 0.0
H1411 H 0.73897 0.25742 0.63201 0.0
H1412 H 0.77395 0.18318 0.66977 0.0
H1413 H 0.77824 0.15929 0.62875 0.0
C1414 C 0.76378 0.1813 0.58278 0.0
C1415 C 0.75425 0.19531 0.56051 0.0
C1416 C 0.76146 0.19473 0.60654 0.0
C1417 C 0.74343 0.22313 0.56206 0.0
C1418 C 0.74162 0.23675 0.58539 0.0
C1419 C 0.74766 0.23606 0.63126 0.0
C1420 C 0.75608 0.2221 0.65383 0.0
C1421 C 0.75025 0.22265 0.60774 0.0
C1422 C 0.76693 0.19424 0.65261 0.0
C1423 C 0.76965 0.18068 0.62916 0.0
H1424 H 0.57317 0.00939 0.37061 0.0
H1425 H 0.64256 0.95707 0.39517 0.0
H1426 H 0.61845 0.94347 0.43347 0.0
H1427 H 0.5815 0.95349 0.46287 0.0
H1428 H 0.51404 0.00881 0.43893 0.0
H1429 H 0.53325 0.01368 0.39712 0.0
C1430 C 0.58286 0.99462 0.38415 0.0
C1431 C 0.60984 0.98472 0.38042 0.0
C1432 C 0.56923 0.98755 0.40624 0.0
C1433 C 0.62188 0.96513 0.39777 0.0
C1434 C 0.60816 0.9575 0.4197 0.0
C1435 C 0.57052 0.96587 0.44825 0.0
C1436 C 0.54654 0.98108 0.45407 0.0
C1437 C 0.58234 0.96955 0.42459 0.0
C1438 C 0.53261 0.9971 0.43496 0.0
C1439 C 0.5437 5e-05 0.41112 0.0
H1440 H 0.7971 0.88337 0.07735 0.0
H1441 H 0.82929 0.8111 0.03735 0.0
H1442 H 0.83524 0.78462 0.07729 0.0
H1443 H 0.82951 0.78146 0.12341 0.0
H1444 H 0.79822 0.85439 0.16312 0.0
H1445 H 0.79412 0.8814 0.12347 0.0
C1446 C 0.80541 0.86181 0.07738 0.0
C1447 C 0.81244 0.84904 0.05448 0.0
C1448 C 0.8091 0.84695 0.10034 0.0
C1449 C 0.82365 0.82132 0.0548 0.0
C1450 C 0.82703 0.80618 0.07759 0.0
C1451 C 0.82197 0.80333 0.12331 0.0
C1452 C 0.81417 0.81595 0.14605 0.0
C1453 C 0.81959 0.8187 0.10044 0.0
C1454 C 0.80467 0.84437 0.14585 0.0
C1455 C 0.80209 0.85973 0.12318 0.0
H1456 H 0.93356 0.95787 0.72269 0.0
H1457 H 0.93702 0.05077 0.72839 0.0
H1458 H 0.95587 0.05395 0.68628 0.0
H1459 H 0.97257 0.03026 0.64845 0.0
H1460 H 0.96821 0.93758 0.64232 0.0
H1461 H 0.94841 0.93431 0.6842 0.0
C1462 C 0.93836 0.97883 0.71472 0.0
C1463 C 0.93411 0.00404 0.72871 0.0
C1464 C 0.94913 0.9805 0.69055 0.0
C1465 C 0.94013 0.03104 0.718 0.0
C1466 C 0.95099 0.03288 0.69398 0.0
C1467 C 0.96741 0.00938 0.65643 0.0
C1468 C 0.97207 0.98416 0.64267 0.0
C1469 C 0.95584 0.00775 0.68024 0.0
C1470 C 0.9648 0.95721 0.65276 0.0
C1471 C 0.95355 0.95537 0.67662 0.0
H1472 H 0.81035 0.18328 0.42088 0.0
H1473 H 0.75652 0.25024 0.44505 0.0
H1474 H 0.76724 0.27913 0.40825 0.0
H1475 H 0.78409 0.28095 0.36549 0.0
H1476 H 0.83637 0.21363 0.33968 0.0
H1477 H 0.83492 0.18995 0.38096 0.0
C1478 C 0.80161 0.2045 0.41836 0.0
C1479 C 0.78208 0.21425 0.4352 0.0
C1480 C 0.80742 0.22093 0.39673 0.0
C1481 C 0.77107 0.24193 0.43193 0.0
C1482 C 0.77721 0.25854 0.41092 0.0
C1483 C 0.79592 0.26161 0.36919 0.0
C1484 C 0.80976 0.24875 0.34946 0.0
C1485 C 0.79419 0.24761 0.39258 0.0
C1486 C 0.82537 0.22391 0.35456 0.0
C1487 C 0.82427 0.21013 0.37808 0.0
H1488 H 0.61309 0.98648 0.24787 0.0
H1489 H 0.63755 0.07646 0.25287 0.0
H1490 H 0.61741 0.08475 0.21023 0.0
H1491 H 0.59188 0.06681 0.17189 0.0
H1492 H 0.56538 0.97748 0.16716 0.0
H1493 H 0.58691 0.96856 0.20938 0.0
C1494 C 0.61414 0.00778 0.23946 0.0
C1495 C 0.62674 0.03079 0.25334 0.0
C1496 C 0.6019 0.01259 0.21514 0.0
C1497 C 0.62777 0.05843 0.24249 0.0
C1498 C 0.61629 0.06322 0.21814 0.0
C1499 C 0.59091 0.04542 0.18016 0.0
C1500 C 0.57708 0.02288 0.16665 0.0
C1501 C 0.60311 0.04053 0.20439 0.0
C1502 C 0.57567 0.99525 0.17749 0.0
C1503 C 0.58812 0.99009 0.2015 0.0
H1504 H 0.7338 0.82729 0.94397 0.0
H1505 H 0.74293 0.9148 0.9179 0.0
H1506 H 0.71349 0.90348 0.87981 0.0
H1507 H 0.69344 0.86682 0.85121 0.0
H1508 H 0.68173 0.77938 0.87754 0.0
H1509 H 0.70321 0.79289 0.9189 0.0
C1510 C 0.72876 0.84387 0.9301 0.0
C1511 C 0.74076 0.87156 0.93308 0.0
C1512 C 0.71157 0.83727 0.90848 0.0
C1513 C 0.73397 0.89325 0.91555 0.0
C1514 C 0.71719 0.88679 0.89387 0.0
C1515 C 0.69429 0.85077 0.86612 0.0
C1516 C 0.68708 0.82172 0.86071 0.0
C1517 C 0.70687 0.85858 0.8897 0.0
C1518 C 0.68821 0.80165 0.88075 0.0
C1519 C 0.70059 0.80931 0.90442 0.0
H1520 H 0.8368 0.98393 0.01701 0.0
H1521 H 0.86552 0.95561 0.94503 0.0
H1522 H 0.90287 0.99236 0.94756 0.0
H1523 H 0.93207 0.02555 0.97388 0.0
H1524 H 0.90793 0.04777 0.04887 0.0
H1525 H 0.86348 0.02122 0.0414 0.0
C1526 C 0.85081 0.98634 0.00158 0.0
C1527 C 0.84868 0.96704 0.98096 0.0
C1528 C 0.87303 0.00646 0.00384 0.0
C1529 C 0.86704 0.97011 0.96119 0.0
C1530 C 0.88834 0.99108 0.96264 0.0
C1531 C 0.91647 0.02553 0.98811 0.0
C1532 C 0.92279 0.03876 0.01171 0.0
C1533 C 0.89222 0.00847 0.98437 0.0
C1534 C 0.90306 0.03803 0.03045 0.0
C1535 C 0.87794 0.02255 0.02627 0.0
H1536 H 0.37835 0.59013 0.95801 0.0
H1537 H 0.35136 0.57586 0.03394 0.0
H1538 H 0.39591 0.55364 0.04582 0.0
H1539 H 0.4433 0.53966 0.03494 0.0
H1540 H 0.4706 0.55651 0.95947 0.0
H1541 H 0.42518 0.57612 0.94713 0.0
C1542 C 0.38208 0.58201 0.97714 0.0
C1543 C 0.36145 0.58465 -0.00497 0.0
C1544 C 0.40789 0.56972 0.98394 0.0
C1545 C 0.36685 0.57419 0.01978 0.0
C1546 C 0.39234 0.56145 0.02659 0.0
C1547 C 0.4392 0.5474 0.01574 0.0
C1548 C 0.46035 0.54655 -0.00185 0.0
C1549 C 0.41312 0.55927 0.00887 0.0
C1550 C 0.45477 0.55696 0.97342 0.0
C1551 C 0.42877 0.5682 0.96633 0.0
H1552 H 0.21212 0.57524 0.79885 0.0
H1553 H 0.15501 0.61805 0.84626 0.0
H1554 H 0.17575 0.66476 0.83574 0.0
H1555 H 0.20726 0.69364 0.81032 0.0
H1556 H 0.26437 0.65132 0.76261 0.0
H1557 H 0.24617 0.60421 0.77567 0.0
C1558 C 0.20473 0.59473 0.80741 0.0
C1559 C 0.18207 0.59318 0.82332 0.0
C1560 C 0.21621 0.62164 0.80066 0.0
C1561 C 0.17245 0.61868 0.83397 0.0
C1562 C 0.18412 0.64541 0.82778 0.0
C1563 C 0.2156 0.67411 0.80264 0.0
C1564 C 0.23675 0.67595 0.78516 0.0
C1565 C 0.20539 0.64719 0.81054 0.0
C1566 C 0.24783 0.65045 0.77586 0.0
C1567 C 0.23755 0.62353 0.78344 0.0
H1568 H 0.23872 0.43057 0.50483 0.0
H1569 H 0.25342 0.47594 0.57599 0.0
H1570 H 0.20636 0.49476 0.57241 0.0
H1571 H 0.16129 0.49858 0.54921 0.0
H1572 H 0.14631 0.45414 0.47765 0.0
H1573 H 0.19336 0.43482 0.48124 0.0
C1574 C 0.23159 0.44449 0.51961 0.0
C1575 C 0.24958 0.45177 0.54069 0.0
C1576 C 0.20454 0.4555 0.51733 0.0
C1577 C 0.24006 0.46999 0.55956 0.0
C1578 C 0.21314 0.48079 0.55754 0.0
C1579 C 0.16825 0.48468 0.53434 0.0
C1580 C 0.15024 0.4778 0.51319 0.0
C1581 C 0.19525 0.47374 0.5365 0.0
C1582 C 0.15973 0.45983 0.49411 0.0
C1583 C 0.18662 0.44872 0.49618 0.0
H1584 H 0.83154 0.97466 0.76606 0.0
H1585 H 0.83178 0.94289 0.84279 0.0
H1586 H 0.79355 0.90886 0.83084 0.0
H1587 H 0.76711 0.88222 0.79707 0.0
H1588 H 0.77337 0.90846 0.71909 0.0
H1589 H 0.80162 0.9508 0.73279 0.0
C1590 C 0.82237 0.96103 0.7803 0.0
C1591 C 0.83395 0.96146 0.80532 0.0
C1592 C 0.80195 0.94015 0.77283 0.0
C1593 C 0.82277 0.94312 0.82353 0.0
C1594 C 0.80117 0.9235 0.81661 0.0
C1595 C 0.77392 0.89773 0.78315 0.0
C1596 C 0.76815 0.89236 0.75711 0.0
C1597 C 0.79157 0.92091 0.79108 0.0
C1598 C 0.77757 0.91223 0.73922 0.0
C1599 C 0.79382 0.93632 0.74706 0.0
H1600 H 0.71509 0.07274 0.51552 0.0
H1601 H 0.67533 0.10253 0.44551 0.0
H1602 H 0.63401 0.0728 0.45295 0.0
H1603 H 0.60652 0.04501 0.48257 0.0
H1604 H 0.64511 0.01474 0.55278 0.0
H1605 H 0.68957 0.03804 0.54226 0.0
C1606 C 0.69779 0.07179 0.50147 0.0
C1607 C 0.69811 0.08987 0.48006 0.0
C1608 C 0.67361 0.05533 0.50634 0.0
C1609 C 0.67545 0.0888 0.46213 0.0
C1610 C 0.65172 0.07207 0.46652 0.0
C1611 C 0.62479 0.04335 0.49544 0.0
C1612 C 0.62259 0.02895 0.51866 0.0
C1613 C 0.65008 0.05645 0.48912 0.0
C1614 C 0.6464 0.02612 0.53493 0.0
C1615 C 0.67175 0.0394 0.5289 0.0
H1616 H 0.22293 0.43941 0.79345 0.0
H1617 H 0.20409 0.41989 0.87088 0.0
H1618 H 0.22491 0.3727 0.86725 0.0
H1619 H 0.24528 0.33547 0.84111 0.0
H1620 H 0.2655 0.35538 0.76413 0.0
H1621 H 0.24751 0.40385 0.76863 0.0
C1622 C 0.22366 0.42495 0.80961 0.0
C1623 C 0.21171 0.43312 0.8323 0.0
C1624 C 0.23575 0.39778 0.80744 0.0
C1625 C 0.2131 0.41422 0.85316 0.0
C1626 C 0.22489 0.38712 0.85108 0.0
C1627 C 0.24594 0.3505 0.82539 0.0
C1628 C 0.25642 0.34171 0.80224 0.0
C1629 C 0.23575 0.37844 0.82816 0.0
C1630 C 0.25748 0.36156 0.78215 0.0
C1631 C 0.24712 0.38928 0.78467 0.0
H1632 H 0.35359 0.6137 0.33192 0.0
H1633 H 0.35967 0.59797 0.25169 0.0
H1634 H 0.3322 0.64065 0.24195 0.0
H1635 H 0.30733 0.68314 0.2562 0.0
H1636 H 0.30346 0.70015 0.33641 0.0
H1637 H 0.32884 0.65609 0.34616 0.0
C1638 C 0.34891 0.61955 0.31229 0.0
C1639 C 0.35874 0.60259 0.29258 0.0
C1640 C 0.33331 0.64428 0.30681 0.0
C1641 C 0.35252 0.61065 0.26726 0.0
C1642 C 0.3367 0.63502 0.26166 0.0
C1643 C 0.3117 0.67698 0.27582 0.0
C1644 C 0.30329 0.69477 0.29557 0.0
C1645 C 0.32702 0.65203 0.28127 0.0
C1646 C 0.30959 0.68677 0.32087 0.0
C1647 C 0.3242 0.66163 0.32645 0.0
H1648 H 0.5969 0.67239 0.60417 0.0
H1649 H 0.61484 0.58663 0.63111 0.0
H1650 H 0.62627 0.57233 0.58822 0.0
H1651 H 0.62038 0.58121 0.54264 0.0
H1652 H 0.59404 0.66441 0.51568 0.0
H1653 H 0.59824 0.68336 0.55904 0.0
C1654 C 0.60377 0.65066 0.60083 0.0
C1655 C 0.60427 0.6303 0.62064 0.0
C1656 C 0.60901 0.64231 0.57604 0.0
C1657 C 0.61356 0.60241 0.61601 0.0
C1658 C 0.62017 0.59429 0.59154 0.0
C1659 C 0.61698 0.60391 0.54612 0.0
C1660 C 0.60684 0.62147 0.52612 0.0
C1661 C 0.61656 0.61365 0.57124 0.0
C1662 C 0.60207 0.65066 0.53082 0.0
C1663 C 0.60386 0.66124 0.55566 0.0
H1664 H 0.65332 0.25373 0.88874 0.0
H1665 H 0.59243 0.27071 0.82799 0.0
H1666 H 0.62975 0.27452 0.79789 0.0
H1667 H 0.68056 0.27465 0.78913 0.0
H1668 H 0.74022 0.25879 0.85128 0.0
H1669 H 0.70266 0.25272 0.88018 0.0
C1670 C 0.64804 0.2582 0.86891 0.0
C1671 C 0.61995 0.262 0.86079 0.0
C1672 C 0.66958 0.26052 0.85179 0.0
C1673 C 0.6138 0.26774 0.83491 0.0
C1674 C 0.63519 0.2699 0.81764 0.0
C1675 C 0.68524 0.26952 0.80892 0.0
C1676 C 0.71333 0.26722 0.81791 0.0
C1677 C 0.66328 0.2665 0.82586 0.0
C1678 C 0.71893 0.26085 0.84374 0.0
C1679 C 0.69742 0.25738 0.86039 0.0
H1680 H 0.07873 0.24149 0.11929 0.0
H1681 H 0.16509 0.25895 0.14225 0.0
H1682 H 0.16509 0.30219 0.1157 0.0
H1683 H 0.1395 0.33635 0.08779 0.0
H1684 H 0.05228 0.31915 0.06763 0.0
H1685 H 0.05403 0.27407 0.09075 0.0
C1686 C 0.09765 0.25462 0.11847 0.0
C1687 C 0.12176 0.24716 0.13292 0.0
C1688 C 0.09741 0.27943 0.1035 0.0
C1689 C 0.14616 0.26431 0.1314 0.0
C1690 C 0.14617 0.28904 0.11624 0.0
C1691 C 0.1209 0.32272 0.08844 0.0
C1692 C 0.09586 0.33121 0.07584 0.0
C1693 C 0.12174 0.29705 0.10251 0.0
C1694 C 0.07204 0.31303 0.07662 0.0
C1695 C 0.07288 0.28732 0.09012 0.0
H1696 H 0.96044 0.76491 0.33345 0.0
H1697 H 0.92998 0.69995 0.38434 0.0
H1698 H 0.88542 0.69745 0.36026 0.0
H1699 H 0.8536 0.71642 0.32724 0.0
H1700 H 0.88277 0.78106 0.27555 0.0
H1701 H 0.92913 0.78108 0.29738 0.0
C1702 C 0.94426 0.74976 0.33883 0.0
C1703 C 0.94851 0.73275 0.36075 0.0
C1704 C 0.91822 0.74878 0.32507 0.0
C1705 C 0.92721 0.71341 0.36765 0.0
C1706 C 0.90163 0.71205 0.35397 0.0
C1707 C 0.87009 0.73054 0.32071 0.0
C1708 C 0.8646 0.74905 0.30007 0.0
C1709 C 0.89662 0.73019 0.33313 0.0
C1710 C 0.88639 0.76675 0.29154 0.0
C1711 C 0.91291 0.76673 0.304 0.0
H1712 H 0.53972 0.36106 0.9205 0.0
H1713 H 0.55049 0.31662 0.99196 0.0
H1714 H 0.55035 0.36227 0.01491 0.0
H1715 H 0.54289 0.41415 0.015 0.0
H1716 H 0.53261 0.45968 0.94403 0.0
H1717 H 0.53636 0.41442 0.92054 0.0
C1718 C 0.54293 0.36162 0.94101 0.0
C1719 C 0.54533 0.33568 0.95458 0.0
C1720 C 0.54203 0.388 0.9542 0.0
C1721 C 0.54884 0.33646 0.98119 0.0
C1722 C 0.54844 0.36248 -0.00567 0.0
C1723 C 0.54127 0.41411 -0.00561 0.0
C1724 C 0.53685 0.44001 0.98126 0.0
C1725 C 0.54412 0.38824 0.98109 0.0
C1726 C 0.53561 0.43984 0.95455 0.0
C1727 C 0.53793 0.41403 0.94112 0.0
H1728 H 0.00599 0.15818 0.23602 0.0
H1729 H 0.99198 0.1811 0.15719 0.0
H1730 H 0.94408 0.19428 0.1652 0.0
H1731 H 0.90738 0.20276 0.1955 0.0
H1732 H 0.92341 0.18339 0.27476 0.0
H1733 H 0.96934 0.16524 0.26577 0.0
C1734 C 0.99235 0.16564 0.22049 0.0
C1735 C 0.00248 0.16863 0.19605 0.0
C1736 C 0.96528 0.17405 0.22541 0.0
C1737 C 0.98464 0.17866 0.17619 0.0
C1738 C 0.9573 0.18626 0.18077 0.0
C1739 C 0.92091 0.19422 0.21065 0.0
C1740 C 0.91226 0.19435 0.23572 0.0
C1741 C 0.94758 0.18458 0.20542 0.0
C1742 C 0.92987 0.18357 0.25535 0.0
C1743 C 0.95604 0.1732 0.25022 0.0
H1744 H 0.06835 0.66691 0.41841 0.0
H1745 H 0.05109 0.70745 0.48938 0.0
H1746 H 0.06869 0.66586 0.51283 0.0
H1747 H 0.08132 0.61509 0.51281 0.0
H1748 H 0.09491 0.57265 0.4418 0.0
H1749 H 0.08711 0.6177 0.41889 0.0
C1750 C 0.06921 0.66686 0.43901 0.0
C1751 C 0.05821 0.69001 0.45216 0.0
C1752 C 0.07844 0.64231 0.45241 0.0
C1753 C 0.05919 0.68967 0.47886 0.0
C1754 C 0.06921 0.66588 0.4923 0.0
C1755 C 0.08344 0.61591 0.49243 0.0
C1756 C 0.08842 0.59051 0.47904 0.0
C1757 C 0.07778 0.6416 0.47924 0.0
C1758 C 0.09089 0.5919 0.45256 0.0
C1759 C 0.08626 0.61763 0.4394 0.0
H1760 H 0.59845 0.74037 0.71387 0.0
H1761 H 0.6561 0.67573 0.69212 0.0
H1762 H 0.68769 0.71344 0.67748 0.0
H1763 H 0.70334 0.76384 0.67998 0.0
H1764 H 0.64808 0.82813 0.70622 0.0
H1765 H 0.61075 0.7917 0.70877 0.0
C1766 C 0.6181 0.73452 0.70618 0.0
C1767 C 0.6253 0.70532 0.70492 0.0
C1768 C 0.6366 0.75626 0.69851 0.0
C1769 C 0.65047 0.69805 0.69424 0.0
C1770 C 0.66852 0.71956 0.68574 0.0
C1771 C 0.68268 0.77021 0.68496 0.0
C1772 C 0.67864 0.79844 0.69357 0.0
C1773 C 0.66235 0.7487 0.68881 0.0
C1774 C 0.65171 0.80644 0.69969 0.0
C1775 C 0.63066 0.78543 0.70192 0.0
H1776 H 0.61754 0.51635 0.64558 0.0
H1777 H 0.5457 0.56206 0.66887 0.0
H1778 H 0.52641 0.56232 0.62541 0.0
H1779 H 0.53275 0.55557 0.58023 0.0
H1780 H 0.60458 0.51064 0.55598 0.0
H1781 H 0.62064 0.50363 0.60018 0.0
C1782 C 0.59731 0.5256 0.64121 0.0
C1783 C 0.58333 0.53952 0.66039 0.0
C1784 C 0.5864 0.52614 0.6159 0.0
C1785 C 0.55713 0.55152 0.65441 0.0
C1786 C 0.54606 0.55179 0.62951 0.0
C1787 C 0.55167 0.5438 0.58459 0.0
C1788 C 0.56757 0.53402 0.56483 0.0
C1789 C 0.56099 0.54016 0.60999 0.0
C1790 C 0.59193 0.51855 0.57084 0.0
C1791 C 0.60122 0.51459 0.59615 0.0
H1792 H 0.83858 0.33627 -0.00387 0.0
H1793 H 0.76478 0.38711 0.98449 0.0
H1794 H 0.76803 0.38259 0.93836 0.0
H1795 H 0.79085 0.3619 0.9016 0.0
H1796 H 0.86378 0.31036 0.91439 0.0
H1797 H 0.86237 0.31809 0.9602 0.0
C1798 C 0.82304 0.34631 0.9836 0.0
C1799 C 0.80119 0.36163 -0.00631 0.0
C1800 C 0.82523 0.34388 0.95742 0.0
C1801 C 0.7816 0.37492 0.97713 0.0
C1802 C 0.78355 0.37248 0.95082 0.0
C1803 C 0.80675 0.35307 0.91452 0.0
C1804 C 0.8276 0.33593 0.90499 0.0
C1805 C 0.80522 0.35687 0.94079 0.0
C1806 C 0.84783 0.32389 0.92159 0.0
C1807 C 0.84683 0.32807 0.94766 0.0
H1808 H 0.0194 0.4718 0.19111 0.0
H1809 H 0.96116 0.5361 0.16473 0.0
H1810 H 0.98992 0.54671 0.12874 0.0
H1811 H 0.02604 0.53093 0.10103 0.0
H1812 H 0.08092 0.46273 0.12534 0.0
H1813 H 0.05956 0.46109 0.16642 0.0
C1814 C 0.01317 0.48848 0.17772 0.0
C1815 C 0.98779 0.50261 0.18017 0.0
C1816 C 0.02923 0.49371 0.15672 0.0
C1817 C 0.98038 0.52462 0.16304 0.0
C1818 C 0.99679 0.53063 0.14244 0.0
C1819 C 0.03398 0.51634 0.1156 0.0
C1820 C 0.05469 0.49659 0.11004 0.0
C1821 C 0.02051 0.51435 0.13851 0.0
C1822 C 0.06481 0.47792 0.12912 0.0
C1823 C 0.05242 0.4768 0.1525 0.0
H1824 H 0.78201 0.6089 0.45092 0.0
H1825 H 0.73078 0.66804 0.48986 0.0
H1826 H 0.71975 0.6932 0.44992 0.0
H1827 H 0.72821 0.70069 0.40454 0.0
H1828 H 0.77734 0.63976 0.36546 0.0
H1829 H 0.78549 0.61262 0.40477 0.0
C1830 C 0.76821 0.62713 0.45051 0.0
C1831 C 0.7575 0.63698 0.47311 0.0
C1832 C 0.76166 0.64109 0.42754 0.0
C1833 C 0.73927 0.66023 0.47253 0.0
C1834 C 0.73306 0.67465 0.44979 0.0
C1835 C 0.74026 0.68118 0.40471 0.0
C1836 C 0.75228 0.67212 0.38245 0.0
C1837 C 0.74462 0.66562 0.42728 0.0
C1838 C 0.76781 0.64685 0.38253 0.0
C1839 C 0.7726 0.6315 0.40496 0.0
H1840 H 0.63693 0.53314 0.81524 0.0
H1841 H 0.55624 0.56399 0.78955 0.0
H1842 H 0.54291 0.56877 0.83328 0.0
H1843 H 0.55474 0.56672 0.87848 0.0
H1844 H 0.63445 0.53462 0.90556 0.0
H1845 H 0.64816 0.52911 0.86167 0.0
C1846 C 0.61624 0.54022 0.81933 0.0
C1847 C 0.59747 0.54797 0.79928 0.0
C1848 C 0.60888 0.54359 0.84469 0.0
C1849 C 0.57094 0.55777 0.80472 0.0
C1850 C 0.56339 0.56075 0.8297 0.0
C1851 C 0.57505 0.55824 0.87487 0.0
C1852 C 0.59344 0.55096 0.89531 0.0
C1853 C 0.58235 0.55423 0.84978 0.0
C1854 C 0.61998 0.54076 0.8902 0.0
C1855 C 0.62767 0.53721 0.8651 0.0
H1856 H 0.77419 0.2883 0.11275 0.0
H1857 H 0.74577 0.36983 0.13979 0.0
H1858 H 0.73082 0.34652 0.17868 0.0
H1859 H 0.73477 0.30535 0.20791 0.0
H1860 H 0.76825 0.22559 0.18206 0.0
H1861 H 0.77162 0.24557 0.13943 0.0
C1862 C 0.76425 0.30092 0.12694 0.0
C1863 C 0.76167 0.33086 0.12372 0.0
C1864 C 0.75671 0.28762 0.14947 0.0
C1865 C 0.74821 0.3468 0.14196 0.0
C1866 C 0.73981 0.33349 0.16424 0.0
C1867 C 0.74177 0.29199 0.19268 0.0
C1868 C 0.7514 0.26409 0.19804 0.0
C1869 C 0.74518 0.30422 0.16866 0.0
C1870 C 0.76078 0.24711 0.1783 0.0
C1871 C 0.76295 0.25864 0.15403 0.0
H1872 H 0.97194 0.51384 0.30178 0.0
H1873 H 0.93749 0.428 0.31073 0.0
H1874 H 0.96232 0.42376 0.35205 0.0
H1875 H 0.99608 0.44314 0.38419 0.0
H1876 H 0.03135 0.52871 0.37535 0.0
H1877 H 0.0047 0.53402 0.33501 0.0
C1878 C 0.96945 0.49452 0.31309 0.0
C1879 C 0.95286 0.47135 0.30345 0.0
C1880 C 0.98453 0.49186 0.33645 0.0
C1881 C 0.95015 0.44613 0.31793 0.0
C1882 C 0.96448 0.44361 0.34142 0.0
C1883 C 0.9978 0.46302 0.37352 0.0
C1884 C 0.01579 0.48538 0.38268 0.0
C1885 C 0.98216 0.46609 0.3506 0.0
C1886 C 0.01808 0.5109 0.36846 0.0
C1887 C 0.00257 0.51412 0.34556 0.0
H1888 H 0.77667 0.69195 0.57367 0.0
H1889 H 0.85303 0.65402 0.60229 0.0
H1890 H 0.86579 0.69879 0.62565 0.0
H1891 H 0.8517 0.7461 0.64175 0.0
H1892 H 0.77329 0.78124 0.61367 0.0
H1893 H 0.76606 0.74114 0.58479 0.0
C1894 C 0.79616 0.69353 0.58502 0.0
C1895 C 0.81348 0.66965 0.58717 0.0
C1896 C 0.80327 0.71908 0.59798 0.0
C1897 C 0.83917 0.67211 0.60097 0.0
C1898 C 0.84644 0.69767 0.61415 0.0
C1899 C 0.83318 0.7452 0.62911 0.0
C1900 C 0.81273 0.76647 0.63072 0.0
C1901 C 0.82816 0.72098 0.61339 0.0
C1902 C 0.78954 0.76549 0.61323 0.0
C1903 C 0.785 0.74213 0.5969 0.0
H1904 H 0.73908 0.51285 0.57077 0.0
H1905 H 0.79147 0.517 0.50675 0.0
H1906 H 0.75627 0.49061 0.48077 0.0
H1907 H 0.70525 0.48407 0.47312 0.0
H1908 H 0.65275 0.48132 0.53716 0.0
H1909 H 0.69319 0.48861 0.56616 0.0
C1910 C 0.74344 0.5065 0.55157 0.0
C1911 C 0.76686 0.51848 0.54019 0.0
C1912 C 0.72253 0.49237 0.53638 0.0
C1913 C 0.77299 0.50904 0.51573 0.0
C1914 C 0.7526 0.49429 0.50063 0.0
C1915 C 0.70294 0.48358 0.49348 0.0
C1916 C 0.67609 0.48315 0.50293 0.0
C1917 C 0.7263 0.48859 0.51013 0.0
C1918 C 0.67322 0.48196 0.52936 0.0
C1919 C 0.69637 0.48646 0.54603 0.0
H1920 H 0.19069 0.95405 0.57182 0.0
H1921 H 0.2165 0.98257 0.49852 0.0
H1922 H 0.17026 0.00169 0.48874 0.0
H1923 H 0.1215 0.0079 0.4999 0.0
H1924 H 0.09569 0.9789 0.57309 0.0
H1925 H 0.14272 0.96258 0.58389 0.0
C1926 C 0.18633 0.96472 0.55382 0.0
C1927 C 0.20714 0.96669 0.53593 0.0
C1928 C 0.15951 0.97546 0.54815 0.0
C1929 C 0.20097 0.98061 0.51267 0.0
C1930 C 0.17444 0.99152 0.507 0.0
C1931 C 0.12619 0.99819 0.51828 0.0
C1932 C 0.1049 0.99452 0.53554 0.0
C1933 C 0.15339 0.98867 0.52441 0.0
C1934 C 0.11151 0.98194 0.55932 0.0
C1935 C 0.13847 0.97255 0.56556 0.0
H1936 H 0.34131 0.94041 0.75519 0.0
H1937 H 0.38316 0.89895 0.69499 0.0
H1938 H 0.35775 0.85392 0.70262 0.0
H1939 H 0.32855 0.82487 0.72993 0.0
H1940 H 0.2864 0.86538 0.79036 0.0
H1941 H 0.30724 0.91224 0.77941 0.0
C1942 C 0.34407 0.92177 0.74321 0.0
C1943 C 0.36406 0.92288 0.7246 0.0
C1944 C 0.33008 0.8956 0.74831 0.0
C1945 C 0.36783 0.89851 0.70941 0.0
C1946 C 0.35356 0.8727 0.71396 0.0
C1947 C 0.32399 0.84398 0.74073 0.0
C1948 C 0.30666 0.8417 0.76133 0.0
C1949 C 0.33561 0.8707 0.73405 0.0
C1950 C 0.30011 0.86666 0.77467 0.0
C1951 C 0.3119 0.89341 0.76833 0.0
H1952 H 0.35295 0.07184 0.02195 0.0
H1953 H 0.37496 0.12039 0.09021 0.0
H1954 H 0.42175 0.10019 0.09157 0.0
H1955 H 0.45622 0.06824 0.07334 0.0
H1956 H 0.43314 0.02027 0.00492 0.0
H1957 H 0.3868 0.04058 0.00389 0.0
C1958 C 0.36795 0.07818 0.03712 0.0
C1959 C 0.36044 0.09764 0.05594 0.0
C1960 C 0.39457 0.06638 0.03788 0.0
C1961 C 0.38022 0.10552 0.07543 0.0
C1962 C 0.40693 0.09388 0.07627 0.0
C1963 C 0.44097 0.06211 0.05832 0.0
C1964 C 0.44815 0.04269 0.03928 0.0
C1965 C 0.41429 0.07414 0.05765 0.0
C1966 C 0.42822 0.03516 0.01982 0.0
C1967 C 0.4017 0.0468 0.01916 0.0
H1968 H 0.70199 0.62411 0.69479 0.0
H1969 H 0.68703 0.6116 0.77392 0.0
H1970 H 0.70873 0.65855 0.78428 0.0
H1971 H 0.72427 0.7063 0.76948 0.0
H1972 H 0.74333 0.71761 0.69104 0.0
H1973 H 0.72823 0.66782 0.68168 0.0
C1974 C 0.70483 0.63113 0.7144 0.0
C1975 C 0.69326 0.61453 0.73364 0.0
C1976 C 0.71735 0.65818 0.7202 0.0
C1977 C 0.69635 0.62394 0.75895 0.0
C1978 C 0.70831 0.65096 0.76481 0.0
C1979 C 0.72549 0.69764 0.75045 0.0
C1980 C 0.73394 0.71567 0.73078 0.0
C1981 C 0.7176 0.66882 0.74539 0.0
C1982 C 0.73644 0.70411 0.70639 0.0
C1983 C 0.72781 0.67568 0.70102 0.0
H1984 H 0.9011 0.38687 0.08983 0.0
H1985 H 0.85858 0.46443 0.06716 0.0
H1986 H 0.90278 0.48568 0.05387 0.0
H1987 H 0.95265 0.48016 0.04503 0.0
H1988 H 0.993 0.40039 0.0648 0.0
H1989 H 0.95014 0.3818 0.08221 0.0
C1990 C 0.90137 0.40864 0.08235 0.0
C1991 C 0.87636 0.42395 0.07945 0.0
C1992 C 0.92639 0.42002 0.07356 0.0
C1993 C 0.87743 0.45216 0.06975 0.0
C1994 C 0.90267 0.46417 0.06185 0.0
C1995 C 0.95203 0.45867 0.05308 0.0
C1996 C 0.97602 0.44159 0.05333 0.0
C1997 C 0.9271 0.44792 0.06294 0.0
C1998 C 0.97486 0.41389 0.06402 0.0
C1999 C 0.95038 0.4033 0.07418 0.0
H2000 H 0.32521 0.06775 0.78438 0.0
H2001 H 0.37124 0.09343 0.71949 0.0
H2002 H 0.35138 0.14131 0.72078 0.0
H2003 H 0.32313 0.17688 0.7418 0.0
H2004 H 0.27715 0.15127 0.80674 0.0
H2005 H 0.29464 0.10247 0.80378 0.0
C2006 C 0.33076 0.08372 0.77039 0.0
C2007 C 0.34989 0.07695 0.75199 0.0
C2008 C 0.31933 0.11135 0.77127 0.0
C2009 C 0.35666 0.09797 0.73393 0.0
C2010 C 0.34534 0.12544 0.73467 0.0
C2011 C 0.31672 0.16058 0.75519 0.0
C2012 C 0.29897 0.16789 0.77457 0.0
C2013 C 0.32699 0.13252 0.75349 0.0
C2014 C 0.29082 0.14637 0.79166 0.0
C2015 C 0.30088 0.11841 0.79003 0.0
H2016 H 0.19457 0.94626 0.228 0.0
H2017 H 0.22844 0.97507 0.30134 0.0
H2018 H 0.25211 0.92942 0.30738 0.0
H2019 H 0.26158 0.88051 0.29284 0.0
H2020 H 0.2272 0.85112 0.21987 0.0
H2021 H 0.20563 0.89782 0.21267 0.0
C2022 C 0.20724 0.94265 0.24526 0.0
C2023 C 0.20954 0.96416 0.26424 0.0
C2024 C 0.22074 0.91618 0.24872 0.0
C2025 C 0.22615 0.95899 0.28643 0.0
C2026 C 0.23973 0.93283 0.28992 0.0
C2027 C 0.24958 0.88434 0.27523 0.0
C2028 C 0.24601 0.86218 0.25696 0.0
C2029 C 0.23695 0.91116 0.27133 0.0
C2030 C 0.23033 0.86768 0.23429 0.0
C2031 C 0.21789 0.8944 0.23018 0.0
H2032 H 0.44846 0.40437 0.46198 0.0
H2033 H 0.49816 0.40006 0.39601 0.0
H2034 H 0.51567 0.4489 0.40384 0.0
H2035 H 0.52171 0.49003 0.4322 0.0
H2036 H 0.47367 0.49537 0.49889 0.0
H2037 H 0.45032 0.44901 0.48791 0.0
C2038 C 0.46279 0.41432 0.44915 0.0
C2039 C 0.47253 0.39836 0.4288 0.0
C2040 C 0.47319 0.44244 0.45399 0.0
C2041 C 0.49085 0.4116 0.41215 0.0
C2042 C 0.50083 0.43959 0.41654 0.0
C2043 C 0.50578 0.4812 0.4441 0.0
C2044 C 0.49969 0.49546 0.4665 0.0
C2045 C 0.49291 0.45472 0.43786 0.0
C2046 C 0.47869 0.48443 0.48159 0.0
C2047 C 0.46552 0.45794 0.47539 0.0
H2048 H 0.45253 0.76006 0.24127 0.0
H2049 H 0.42497 0.77144 0.16301 0.0
H2050 H 0.37835 0.78412 0.17609 0.0
H2051 H 0.34454 0.78842 0.21004 0.0
H2052 H 0.37413 0.78066 0.28837 0.0
H2053 H 0.4208 0.7706 0.27509 0.0
C2054 C 0.43636 0.76567 0.22714 0.0
C2055 C 0.44195 0.76457 0.20125 0.0
C2056 C 0.40996 0.77357 0.23484 0.0
C2057 C 0.42105 0.77219 0.18306 0.0
C2058 C 0.3944 0.77931 0.19055 0.0
C2059 C 0.36133 0.78498 0.22418 0.0
C2060 C 0.35571 0.78511 0.25018 0.0
C2061 C 0.38846 0.77959 0.2164 0.0
C2062 C 0.37778 0.78081 0.26825 0.0
C2063 C 0.40452 0.77484 0.26068 0.0
H2064 H 0.94319 0.6962 0.96957 0.0
H2065 H 0.0221 0.71342 0.93595 0.0
H2066 H 0.04118 0.67005 0.95561 0.0
H2067 H 0.03478 0.62635 0.98086 0.0
H2068 H 0.95536 0.60781 0.01273 0.0
H2069 H 0.937 0.65286 -0.00472 0.0
C2070 C 0.96461 0.69056 0.96667 0.0
C2071 C 0.9812 0.7079 0.95132 0.0
C2072 C 0.97528 0.66545 0.97768 0.0
C2073 C 0.00887 0.70027 0.94758 0.0
C2074 C 0.01981 0.67555 0.95884 0.0
C2075 C 0.01359 0.63247 0.98423 0.0
C2076 C 0.9964 0.61416 -0.00193 0.0
C2077 C 0.00312 0.65791 0.97374 0.0
C2078 C 0.96883 0.62178 0.00204 0.0
C2079 C 0.95839 0.64742 0.9921 0.0
H2080 H 0.14011 0.25367 0.6666 0.0
H2081 H 0.08294 0.26488 0.72629 0.0
H2082 H 0.12181 0.26005 0.75822 0.0
H2083 H 0.17296 0.25449 0.76871 0.0
H2084 H 0.22819 0.24437 0.70718 0.0
H2085 H 0.18896 0.24681 0.67648 0.0
C2086 C 0.13586 0.25514 0.68657 0.0
C2087 C 0.10854 0.25995 0.69394 0.0
C2088 C 0.15809 0.25248 0.70454 0.0
C2089 C 0.10374 0.26133 0.72001 0.0
C2090 C 0.12599 0.25858 0.73825 0.0
C2091 C 0.17626 0.25253 0.74859 0.0
C2092 C 0.20359 0.24936 0.7403 0.0
C2093 C 0.15338 0.25436 0.73071 0.0
C2094 C 0.20753 0.24702 0.71414 0.0
C2095 C 0.18508 0.24842 0.69651 0.0
H2096 H 0.54509 0.65125 0.14118 0.0
H2097 H 0.51115 0.71034 0.08537 0.0
H2098 H 0.52005 0.67589 0.05134 0.0
H2099 H 0.53452 0.6268 0.03814 0.0
H2100 H 0.5687 0.56939 0.0954 0.0
H2101 H 0.56329 0.60557 0.12808 0.0
C2102 C 0.53955 0.65664 0.12157 0.0
C2103 C 0.52691 0.68299 0.11582 0.0
C2104 C 0.54511 0.63709 0.10232 0.0
C2105 C 0.52061 0.68999 0.09027 0.0
C2106 C 0.52576 0.67032 0.07084 0.0
C2107 C 0.54145 0.62268 0.05767 0.0
C2108 C 0.55201 0.59551 0.0644 0.0
C2109 C 0.53772 0.64356 0.07668 0.0
C2110 C 0.56053 0.59016 0.08981 0.0
C2111 C 0.55726 0.61074 0.10855 0.0
H2112 H 0.06241 0.79365 0.87966 0.0
H2113 H 0.0182 0.80837 0.80771 0.0
H2114 H 0.0625 0.81214 0.78679 0.0
H2115 H 0.11374 0.80898 0.78873 0.0
H2116 H 0.15754 0.79441 0.8609 0.0
H2117 H 0.11346 0.79347 0.88204 0.0
C2118 C 0.06245 0.7977 0.8594 0.0
C2119 C 0.03707 0.80038 0.84519 0.0
C2120 C 0.08793 0.80007 0.84758 0.0
C2121 C 0.03748 0.80611 0.81904 0.0
C2122 C 0.06279 0.80825 0.80707 0.0
C2123 C 0.11359 0.80576 0.8091 0.0
C2124 C 0.13886 0.80172 0.82321 0.0
C2125 C 0.08812 0.80495 0.82112 0.0
C2126 C 0.13843 0.79793 0.84964 0.0
C2127 C 0.11321 0.79711 0.86172 0.0
H2128 H 0.03212 0.32968 0.56475 0.0
H2129 H 0.02844 0.369 0.6385 0.0
H2130 H 0.02992 0.41711 0.61899 0.0
H2131 H 0.03857 0.4474 0.58129 0.0
H2132 H 0.04209 0.40673 0.50778 0.0
H2133 H 0.03421 0.35968 0.52684 0.0
C2134 C 0.03092 0.34884 0.57646 0.0
C2135 C 0.0303 0.34602 0.60294 0.0
C2136 C 0.03224 0.3761 0.56517 0.0
C2137 C 0.02868 0.37079 0.61803 0.0
C2138 C 0.02987 0.39822 0.60688 0.0
C2139 C 0.03729 0.42826 0.56943 0.0
C2140 C 0.04143 0.43057 0.54319 0.0
C2141 C 0.03269 0.40109 0.58054 0.0
C2142 C 0.03926 0.40561 0.52802 0.0
C2143 C 0.03476 0.37865 0.5389 0.0
H2144 H 0.41461 0.32133 0.33375 0.0
H2145 H 0.39616 0.24484 0.37663 0.0
H2146 H 0.3565 0.23307 0.34736 0.0
H2147 H 0.32189 0.25034 0.31627 0.0
H2148 H 0.3359 0.33047 0.27715 0.0
H2149 H 0.38299 0.33462 0.29724 0.0
C2150 C 0.40236 0.30164 0.33599 0.0
C2151 C 0.40788 0.28392 0.35712 0.0
C2152 C 0.37872 0.2959 0.31985 0.0
C2153 C 0.39196 0.25865 0.36038 0.0
C2154 C 0.36932 0.25202 0.34374 0.0
C2155 C 0.33565 0.26822 0.31152 0.0
C2156 C 0.32546 0.29037 0.2958 0.0
C2157 C 0.36168 0.27132 0.32434 0.0
C2158 C 0.3434 0.31322 0.28933 0.0
C2159 C 0.37013 0.31578 0.30111 0.0
H2160 H 0.45894 0.57304 0.35202 0.0
H2161 H 0.50554 0.49651 0.33845 0.0
H2162 H 0.54319 0.51368 0.36745 0.0
H2163 H 0.55905 0.54573 0.40184 0.0
H2164 H 0.51098 0.61994 0.41923 0.0
H2165 H 0.47866 0.60926 0.38295 0.0
C2166 C 0.47758 0.56047 0.35512 0.0
C2167 C 0.47914 0.53327 0.34357 0.0
C2168 C 0.49907 0.57015 0.37246 0.0
C2169 C 0.5035 0.51723 0.34759 0.0
C2170 C 0.52518 0.52709 0.36406 0.0
C2171 C 0.54219 0.56027 0.39712 0.0
C2172 C 0.53724 0.58335 0.41338 0.0
C2173 C 0.52272 0.55293 0.37734 0.0
C2174 C 0.51516 0.6019 0.40703 0.0
C2175 C 0.49642 0.59555 0.3865 0.0
H2176 H 0.27486 0.65175 0.0789 0.0
H2177 H 0.24116 0.72661 0.04102 0.0
H2178 H 0.23564 0.75003 0.08177 0.0
H2179 H 0.23878 0.74877 0.12805 0.0
H2180 H 0.27147 0.67398 0.16672 0.0
H2181 H 0.27835 0.65072 0.12589 0.0
C2182 C 0.26668 0.67331 0.07968 0.0
C2183 C 0.25851 0.68749 0.05709 0.0
C2184 C 0.26289 0.68645 0.10328 0.0
C2185 C 0.24752 0.71526 0.05823 0.0
C2186 C 0.24428 0.72865 0.08149 0.0
C2187 C 0.24753 0.72743 0.12754 0.0
C2188 C 0.25454 0.71311 0.15031 0.0
C2189 C 0.25157 0.71433 0.10411 0.0
C2190 C 0.26551 0.68529 0.14939 0.0
C2191 C 0.26971 0.67209 0.12607 0.0
H2192 H 0.0567 0.49052 0.86938 0.0
H2193 H 0.1381 0.45419 0.88274 0.0
H2194 H 0.12416 0.43518 0.92353 0.0
H2195 H 0.09183 0.43669 0.95831 0.0
H2196 H 0.01186 0.47622 0.94566 0.0
H2197 H 0.02192 0.48543 0.90143 0.0
C2198 C 0.07127 0.47802 0.88101 0.0
C2199 C 0.09861 0.47438 0.87332 0.0
C2200 C 0.06333 0.46774 0.90462 0.0
C2201 C 0.11704 0.45764 0.88835 0.0
C2202 C 0.1091 0.44681 0.91173 0.0
C2203 C 0.07622 0.44634 0.94559 0.0
C2204 C 0.05125 0.456 0.95519 0.0
C2205 C 0.0827 0.45279 0.9205 0.0
C2206 C 0.03128 0.46874 0.93865 0.0
C2207 C 0.03712 0.47424 0.91344 0.0
H2208 H 0.38044 0.34231 0.59653 0.0
H2209 H 0.33116 0.41546 0.61458 0.0
H2210 H 0.32252 0.39477 0.65624 0.0
H2211 H 0.3249 0.35359 0.68533 0.0
H2212 H 0.36973 0.27812 0.66524 0.0
H2213 H 0.38424 0.30186 0.62634 0.0
C2214 C 0.36837 0.35399 0.60987 0.0
C2215 C 0.3566 0.3804 0.60277 0.0
C2216 C 0.36238 0.3413 0.63313 0.0
C2217 C 0.34047 0.39512 0.61984 0.0
C2218 C 0.33542 0.38324 0.64352 0.0
C2219 C 0.33822 0.34261 0.67257 0.0
C2220 C 0.3464 0.31432 0.67795 0.0
C2221 C 0.34563 0.356 0.65003 0.0
C2222 C 0.36321 0.29992 0.66125 0.0
C2223 C 0.37149 0.31348 0.63913 0.0
H2224 H 0.41682 0.51018 0.20641 0.0
H2225 H 0.47154 0.44782 0.24189 0.0
H2226 H 0.4943 0.44111 0.20213 0.0
H2227 H 0.50043 0.45472 0.1577 0.0
H2228 H 0.44438 0.5148 0.12119 0.0
H2229 H 0.42025 0.52054 0.16071 0.0
C2230 C 0.4336 0.49502 0.20533 0.0
C2231 C 0.44258 0.47969 0.22709 0.0
C2232 C 0.44639 0.49087 0.18221 0.0
C2233 C 0.46415 0.45985 0.22539 0.0
C2234 C 0.47729 0.45605 0.20268 0.0
C2235 C 0.48275 0.4688 0.15846 0.0
C2236 C 0.47413 0.48437 0.13682 0.0
C2237 C 0.46883 0.47167 0.18106 0.0
C2238 C 0.45116 0.50249 0.13774 0.0
C2239 C 0.43749 0.50588 0.16031 0.0
H2240 H 0.27947 0.72937 0.93741 0.0
H2241 H 0.31753 0.65034 0.91591 0.0
H2242 H 0.32833 0.6715 0.87474 0.0
H2243 H 0.31826 0.70902 0.8424 0.0
H2244 H 0.2763 0.78597 0.86385 0.0
H2245 H 0.27612 0.76938 0.90772 0.0
C2246 C 0.29073 0.71702 0.92391 0.0
C2247 C 0.29725 0.68825 0.92931 0.0
C2248 C 0.29587 0.72892 0.90022 0.0
C2249 C 0.31225 0.67254 0.91202 0.0
C2250 C 0.31816 0.68456 0.88844 0.0
C2251 C 0.30992 0.72252 0.85689 0.0
C2252 C 0.29702 0.74852 0.84997 0.0
C2253 C 0.30883 0.71224 0.88191 0.0
C2254 C 0.2861 0.76578 0.86878 0.0
C2255 C 0.28588 0.75625 0.89381 0.0
H2256 H 0.08439 0.54636 0.7378 0.0
H2257 H 0.14689 0.48138 0.73257 0.0
H2258 H 0.14438 0.48578 0.68628 0.0
H2259 H 0.1245 0.50847 0.64732 0.0
H2260 H 0.06203 0.57315 0.65315 0.0
H2261 H 0.06491 0.56896 0.69945 0.0
C2262 C 0.09731 0.5329 0.7266 0.0
C2263 C 0.11571 0.51347 0.73865 0.0
C2264 C 0.09614 0.53591 0.70018 0.0
C2265 C 0.13243 0.4964 0.72377 0.0
C2266 C 0.13116 0.49905 0.69732 0.0
C2267 C 0.11195 0.52197 0.65886 0.0
C2268 C 0.09333 0.54133 0.64711 0.0
C2269 C 0.11329 0.51895 0.68537 0.0
C2270 C 0.07664 0.55829 0.662 0.0
C2271 C 0.07814 0.55574 0.68836 0.0
H2272 H 0.29099 0.33016 0.49812 0.0
H2273 H 0.36956 0.3271 0.46191 0.0
H2274 H 0.34946 0.29242 0.43084 0.0
H2275 H 0.30752 0.27114 0.40964 0.0
H2276 H 0.22847 0.27557 0.44485 0.0
H2277 H 0.25109 0.30075 0.48134 0.0
C2278 C 0.30378 0.32156 0.48362 0.0
C2279 C 0.33139 0.3317 0.48174 0.0
C2280 C 0.29206 0.30184 0.4658 0.0
C2281 C 0.34808 0.31988 0.46342 0.0
C2282 C 0.33662 0.30007 0.44568 0.0
C2283 C 0.29541 0.2764 0.42579 0.0
C2284 C 0.26629 0.27205 0.4244 0.0
C2285 C 0.30832 0.2919 0.44608 0.0
C2286 C 0.25089 0.27909 0.44543 0.0
C2287 C 0.26375 0.29376 0.46612 0.0
H2288 H 0.3602 0.50103 0.53148 0.0
H2289 H 0.40044 0.46391 0.46827 0.0
H2290 H 0.42115 0.51088 0.45826 0.0
H2291 H 0.43465 0.55903 0.47238 0.0
H2292 H 0.40075 0.59471 0.53952 0.0
H2293 H 0.36987 0.55214 0.5428 0.0
C2294 C 0.37294 0.50357 0.51516 0.0
C2295 C 0.37911 0.47931 0.50067 0.0
C2296 C 0.38587 0.53033 0.51036 0.0
C2297 C 0.39578 0.48243 0.47973 0.0
C2298 C 0.40754 0.50922 0.47403 0.0
C2299 C 0.41963 0.55818 0.48711 0.0
C2300 C 0.41982 0.58005 0.50563 0.0
C2301 C 0.40367 0.53294 0.48987 0.0
C2302 C 0.40078 0.5782 0.52498 0.0
C2303 C 0.38345 0.55372 0.52701 0.0
H2304 H 0.84488 0.08028 0.51374 0.0
H2305 H 0.86265 0.11393 0.43988 0.0
H2306 H 0.90688 0.08895 0.44117 0.0
H2307 H 0.9417 0.05897 0.464 0.0
H2308 H 0.92316 0.0242 0.53737 0.0
H2309 H 0.87827 0.04771 0.5353 0.0
C2310 C 0.85842 0.08212 0.49793 0.0
C2311 C 0.85046 0.09919 0.47686 0.0
C2312 C 0.8838 0.06732 0.49861 0.0
C2313 C 0.86818 0.101 0.45639 0.0
C2314 C 0.89356 0.0867 0.45709 0.0
C2315 C 0.9277 0.05622 0.47939 0.0
C2316 C 0.93604 0.03986 0.50083 0.0
C2317 C 0.90172 0.06993 0.47817 0.0
C2318 C 0.91748 0.03662 0.52058 0.0
C2319 C 0.89174 0.05021 0.51951 0.0
H2320 H 0.70565 0.10785 0.35278 0.0
H2321 H 0.74606 0.05042 0.30251 0.0
H2322 H 0.76969 0.09171 0.28323 0.0
H2323 H 0.77335 0.14492 0.27668 0.0
H2324 H 0.72715 0.20052 0.32431 0.0
H2325 H 0.71081 0.15929 0.34795 0.0
C2326 C 0.72003 0.10414 0.33793 0.0
C2327 C 0.72369 0.07605 0.3289 0.0
C2328 C 0.73184 0.12789 0.32579 0.0
C2329 C 0.74275 0.07181 0.30986 0.0
C2330 C 0.75595 0.09548 0.29854 0.0
C2331 C 0.75967 0.14786 0.2922 0.0
C2332 C 0.751 0.17572 0.29829 0.0
C2333 C 0.74963 0.12374 0.30557 0.0
C2334 C 0.73358 0.17929 0.3187 0.0
C2335 C 0.72443 0.15574 0.33249 0.0
H2336 H 0.70073 0.95031 0.00054 0.0
H2337 H 0.71842 0.95958 0.08129 0.0
H2338 H 0.67143 0.9779 0.08612 0.0
H2339 H 0.62486 0.98962 0.06727 0.0
H2340 H 0.60783 0.97787 0.9866 0.0
H2341 H 0.65529 0.96201 0.98194 0.0
C2342 C 0.69452 0.95648 0.01926 0.0
C2343 C 0.71309 0.95359 0.04055 0.0
C2344 C 0.66756 0.96636 0.0219 0.0
C2345 C 0.70451 0.96159 0.0646 0.0
C2346 C 0.67766 0.972 0.06736 0.0
C2347 C 0.63161 0.98367 0.04868 0.0
C2348 C 0.61285 0.98483 0.02732 0.0
C2349 C 0.65892 0.97421 0.04614 0.0
C2350 C 0.6218 0.97698 0.00336 0.0
C2351 C 0.64895 0.96799 0.00065 0.0
H2352 H 0.35004 0.43826 0.34833 0.0
H2353 H 0.3204 0.48675 0.28306 0.0
H2354 H 0.27804 0.45651 0.27954 0.0
H2355 H 0.25469 0.41046 0.28978 0.0
H2356 H 0.28449 0.3622 0.35524 0.0
H2357 H 0.32102 0.39858 0.3643 0.0
C2358 C 0.33391 0.4427 0.3338 0.0
C2359 C 0.33855 0.46424 0.31565 0.0
C2360 C 0.30976 0.42506 0.33174 0.0
C2361 C 0.31736 0.47016 0.29717 0.0
C2362 C 0.29322 0.45272 0.29502 0.0
C2363 C 0.26862 0.40838 0.30649 0.0
C2364 C 0.26728 0.38331 0.32142 0.0
C2365 C 0.28992 0.4292 0.3114 0.0
C2366 C 0.28517 0.38114 0.34326 0.0
C2367 C 0.30629 0.40183 0.34836 0.0
H2368 H 0.22551 0.55551 0.01308 0.0
H2369 H 0.18152 0.59269 0.9481 0.0
H2370 H 0.14114 0.56137 0.95471 0.0
H2371 H 0.11596 0.52895 0.98245 0.0
H2372 H 0.1589 0.49096 0.04743 0.0
H2373 H 0.2021 0.517 0.03741 0.0
C2374 C 0.20742 0.55605 -6e-05 0.0
C2375 C 0.20634 0.57662 0.98033 0.0
C2376 C 0.18387 0.53839 0.00423 0.0
C2377 C 0.18271 0.57722 0.96348 0.0
C2378 C 0.15953 0.55947 0.96734 0.0
C2379 C 0.13488 0.5262 -0.00573 0.0
C2380 C 0.13426 0.5087 0.01592 0.0
C2381 C 0.15945 0.54097 0.98829 0.0
C2382 C 0.15895 0.50463 0.03078 0.0
C2383 C 0.18358 0.51951 0.02506 0.0
H2384 H 0.72448 0.92711 0.28832 0.0
H2385 H 0.70906 0.89822 0.36427 0.0
H2386 H 0.73044 0.85226 0.35569 0.0
H2387 H 0.7517 0.81935 0.32612 0.0
H2388 H 0.7681 0.8484 0.25042 0.0
H2389 H 0.74847 0.89516 0.25953 0.0
C2390 C 0.72587 0.91079 0.30302 0.0
C2391 C 0.71495 0.91609 0.32684 0.0
C2392 C 0.73842 0.88438 0.29803 0.0
C2393 C 0.71722 0.89478 0.34575 0.0
C2394 C 0.72943 0.86842 0.34086 0.0
C2395 C 0.75121 0.83597 0.31166 0.0
C2396 C 0.76124 0.83023 0.28757 0.0
C2397 C 0.73986 0.86286 0.317 0.0
C2398 C 0.76056 0.85215 0.26914 0.0
C2399 C 0.74921 0.87891 0.27429 0.0
H2400 H 0.87306 0.11954 0.81469 0.0
H2401 H 0.82724 0.08908 0.74697 0.0
H2402 H 0.80433 0.13525 0.74258 0.0
H2403 H 0.7978 0.18466 0.75731 0.0
H2404 H 0.84356 0.21551 0.82491 0.0
H2405 H 0.86574 0.16887 0.83 0.0
C2406 C 0.85805 0.12299 0.79899 0.0
C2407 C 0.85201 0.10081 0.78117 0.0
C2408 C 0.84484 0.1497 0.79653 0.0
C2409 C 0.8324 0.10569 0.76098 0.0
C2410 C 0.81922 0.13214 0.75842 0.0
C2411 C 0.8125 0.18116 0.77326 0.0
C2412 C 0.81898 0.20363 0.79067 0.0
C2413 C 0.82534 0.15433 0.77602 0.0
C2414 C 0.83815 0.19865 0.81118 0.0
C2415 C 0.85091 0.17197 0.81411 0.0
loop_
_geom_bond_atom_site_label_1
_geom_bond_atom_site_label_2
_geom_bond_distance
_geom_bond_site_symmetry_2
_ccdc_geom_bond_type
Zn0 O3 2.031 . S
Zn0 O5 2.049 . S
Zn0 O10 2.067 . S
Zn1 O2 1.962 . S
Zn1 O4 1.986 . S
Zn1 O6 1.996 . S
Zn1 O9 1.943 . S
O2 Zn1 1.962 . S
O2 C7 1.254 . S
O3 Zn0 2.031 . S
O3 C7 1.269 . S
O4 Zn1 1.986 . S
O4 C11 1.262 . S
O5 Zn0 2.049 . S
O5 C13 1.260 . S
O6 Zn1 1.996 . S
O6 C13 1.257 . S
C7 O2 1.254 . S
C7 O3 1.269 . S
C8 O9 1.249 . S
C8 O10 1.270 . S
O9 Zn1 1.943 . S
O9 C8 1.249 . S
O10 Zn0 2.067 . S
O10 C8 1.270 . S
C11 O4 1.262 . S
C11 O12 1.232 . S
O12 C11 1.232 . S
C13 O5 1.260 . S
C13 O6 1.257 . S
Zn14 O17 2.031 1_655 S
Zn14 O19 2.049 . S
Zn14 O24 2.067 . S
Zn15 O16 1.962 . S
Zn15 O18 1.986 . S
Zn15 O20 1.996 . S
Zn15 O23 1.943 . S
O16 Zn15 1.962 . S
O16 C21 1.254 . S
O17 Zn14 2.031 1_455 S
O17 C21 1.269 . S
O18 Zn15 1.986 . S
O18 C25 1.262 . S
O19 Zn14 2.049 . S
O19 C27 1.260 1_655 S
O20 Zn15 1.996 . S
O20 C27 1.257 . S
C21 O16 1.254 . S
C21 O17 1.269 . S
C22 O23 1.249 1_655 S
C22 O24 1.270 . S
O23 Zn15 1.943 . S
O23 C22 1.249 1_455 S
O24 Zn14 2.067 . S
O24 C22 1.270 . S
C25 O18 1.262 . S
C25 O26 1.232 . S
O26 C25 1.232 . S
C27 O19 1.260 1_455 S
C27 O20 1.257 . S
Zn28 O31 2.031 . S
Zn28 O33 2.049 . S
Zn28 O38 2.067 . S
Zn29 O30 1.962 . S
Zn29 O32 1.986 . S
Zn29 O34 1.996 . S
Zn29 O37 1.943 . S
O30 Zn29 1.962 . S
O30 C35 1.254 . S
O31 Zn28 2.031 . S
O31 C35 1.269 . S
O32 Zn29 1.986 . S
O32 C39 1.262 . S
O33 Zn28 2.049 . S
O33 C41 1.260 . S
O34 Zn29 1.996 . S
O34 C41 1.257 . S
C35 O30 1.254 . S
C35 O31 1.269 . S
C36 O37 1.249 . S
C36 O38 1.270 . S
O37 Zn29 1.943 . S
O37 C36 1.249 . S
O38 Zn28 2.067 . S
O38 C36 1.270 . S
C39 O32 1.262 . S
C39 O40 1.232 . S
O40 C39 1.232 . S
C41 O33 1.260 . S
C41 O34 1.257 . S
Zn42 O45 2.031 . S
Zn42 O47 2.049 . S
Zn42 O52 2.067 . S
Zn43 O44 1.962 . S
Zn43 O46 1.986 . S
Zn43 O48 1.996 . S
Zn43 O51 1.943 . S
O44 Zn43 1.962 . S
O44 C49 1.254 . S
O45 Zn42 2.031 . S
O45 C49 1.269 . S
O46 Zn43 1.986 . S
O46 C53 1.262 . S
O47 Zn42 2.049 . S
O47 C55 1.260 . S
O48 Zn43 1.996 . S
O48 C55 1.257 . S
C49 O44 1.254 . S
C49 O45 1.269 . S
C50 O51 1.249 . S
C50 O52 1.270 . S
O51 Zn43 1.943 . S
O51 C50 1.249 . S
O52 Zn42 2.067 . S
O52 C50 1.270 . S
C53 O46 1.262 . S
C53 O54 1.232 . S
O54 C53 1.232 . S
C55 O47 1.260 . S
C55 O48 1.257 . S
Zn56 O59 2.031 . S
Zn56 O61 2.049 . S
Zn56 O66 2.067 . S
Zn57 O58 1.962 . S
Zn57 O60 1.986 1_545 S
Zn57 O62 1.996 . S
Zn57 O65 1.943 . S
O58 Zn57 1.962 . S
O58 C63 1.254 . S
O59 Zn56 2.031 . S
O59 C63 1.269 . S
O60 Zn57 1.986 1_565 S
O60 C67 1.262 . S
O61 Zn56 2.049 . S
O61 C69 1.260 . S
O62 Zn57 1.996 . S
O62 C69 1.257 . S
C63 O58 1.254 . S
C63 O59 1.269 . S
C64 O65 1.249 . S
C64 O66 1.270 . S
O65 Zn57 1.943 . S
O65 C64 1.249 . S
O66 Zn56 2.067 . S
O66 C64 1.270 . S
C67 O60 1.262 . S
C67 O68 1.232 . S
O68 C67 1.232 . S
C69 O61 1.260 . S
C69 O62 1.257 . S
Zn70 O73 2.031 . S
Zn70 O75 2.049 . S
Zn70 O80 2.067 . S
Zn71 O72 1.962 . S
Zn71 O74 1.986 . S
Zn71 O76 1.996 . S
Zn71 O79 1.943 . S
O72 Zn71 1.962 . S
O72 C77 1.254 . S
O73 Zn70 2.031 . S
O73 C77 1.269 . S
O74 Zn71 1.986 . S
O74 C81 1.262 . S
O75 Zn70 2.049 . S
O75 C83 1.260 . S
O76 Zn71 1.996 . S
O76 C83 1.257 . S
C77 O72 1.254 . S
C77 O73 1.269 . S
C78 O79 1.249 . S
C78 O80 1.270 . S
O79 Zn71 1.943 . S
O79 C78 1.249 . S
O80 Zn70 2.067 . S
O80 C78 1.270 . S
C81 O74 1.262 . S
C81 O82 1.232 . S
O82 C81 1.232 . S
C83 O75 1.260 . S
C83 O76 1.257 . S
Zn84 O87 2.031 . S
Zn84 O89 2.049 . S
Zn84 O94 2.067 . S
Zn85 O86 1.962 . S
Zn85 O88 1.986 . S
Zn85 O90 1.996 . S
Zn85 O93 1.943 1_545 S
O86 Zn85 1.962 . S
O86 C91 1.254 . S
O87 Zn84 2.031 . S
O87 C91 1.269 1_565 S
O88 Zn85 1.986 . S
O88 C95 1.262 . S
O89 Zn84 2.049 . S
O89 C97 1.260 1_565 S
O90 Zn85 1.996 . S
O90 C97 1.257 . S
C91 O86 1.254 . S
C91 O87 1.269 1_545 S
C92 O93 1.249 . S
C92 O94 1.270 . S
O93 Zn85 1.943 1_565 S
O93 C92 1.249 . S
O94 Zn84 2.067 . S
O94 C92 1.270 . S
C95 O88 1.262 . S
C95 O96 1.232 . S
O96 C95 1.232 . S
C97 O89 1.260 1_545 S
C97 O90 1.257 . S
Zn98 O101 2.063 . S
Zn98 O103 2.049 . S
Zn98 O108 2.067 . S
Zn99 O100 1.962 . S
Zn99 O102 1.986 . S
Zn99 O104 1.996 . S
Zn99 O107 1.943 . S
O100 Zn99 1.962 . S
O100 C105 1.254 1_554 S
O101 Zn98 2.063 . S
O101 C105 1.254 1_554 S
O102 Zn99 1.986 . S
O102 C109 1.262 . S
O103 Zn98 2.049 . S
O103 C111 1.260 . S
O104 Zn99 1.996 . S
O104 C111 1.257 . S
C105 O100 1.254 1_556 S
C105 O101 1.254 1_556 S
C106 O107 1.249 . S
C106 O108 1.270 . S
O107 Zn99 1.943 . S
O107 C106 1.249 . S
O108 Zn98 2.067 . S
O108 C106 1.270 . S
C109 O102 1.262 . S
C109 O110 1.232 . S
O110 C109 1.232 . S
C111 O103 1.260 . S
C111 O104 1.257 . S
Zn112 O115 2.031 . S
Zn112 O117 2.049 . S
Zn112 O122 2.067 . S
Zn113 O114 1.962 . S
Zn113 O116 1.986 . S
Zn113 O118 1.996 . S
Zn113 O121 1.943 . S
O114 Zn113 1.962 . S
O114 C119 1.254 . S
O115 Zn112 2.031 . S
O115 C119 1.269 . S
O116 Zn113 1.986 . S
O116 C123 1.262 . S
O117 Zn112 2.049 . S
O117 C125 1.260 . S
O118 Zn113 1.996 . S
O118 C125 1.257 . S
C119 O114 1.254 . S
C119 O115 1.269 . S
C120 O121 1.249 . S
C120 O122 1.270 . S
O121 Zn113 1.943 . S
O121 C120 1.249 . S
O122 Zn112 2.067 . S
O122 C120 1.270 . S
C123 O116 1.262 . S
C123 O124 1.232 . S
O124 C123 1.232 . S
C125 O117 1.260 . S
C125 O118 1.257 . S
Zn126 O129 2.031 . S
Zn126 O131 2.049 . S
Zn126 O136 2.067 . S
Zn127 O128 1.962 . S
Zn127 O130 1.986 . S
Zn127 O132 1.996 . S
Zn127 O135 1.943 . S
O128 Zn127 1.962 . S
O128 C133 1.254 . S
O129 Zn126 2.031 . S
O129 C133 1.269 . S
O130 Zn127 1.986 . S
O130 C137 1.262 . S
O131 Zn126 2.049 . S
O131 C139 1.260 . S
O132 Zn127 1.996 . S
O132 C139 1.257 . S
C133 O128 1.254 . S
C133 O129 1.269 . S
C134 O135 1.249 . S
C134 O136 1.270 . S
O135 Zn127 1.943 . S
O135 C134 1.249 . S
O136 Zn126 2.067 . S
O136 C134 1.270 . S
C137 O130 1.262 . S
C137 O138 1.232 . S
O138 C137 1.232 . S
C139 O131 1.260 . S
C139 O132 1.257 . S
Zn140 O143 2.031 . S
Zn140 O145 2.049 . S
Zn140 O150 2.067 . S
Zn141 O142 1.962 . S
Zn141 O144 1.986 . S
Zn141 O146 1.996 . S
Zn141 O149 1.943 . S
O142 Zn141 1.962 . S
O142 C147 1.254 . S
O143 Zn140 2.031 . S
O143 C147 1.269 . S
O144 Zn141 1.986 . S
O144 C151 1.262 . S
O145 Zn140 2.049 . S
O145 C153 1.260 . S
O146 Zn141 1.996 . S
O146 C153 1.257 . S
C147 O142 1.254 . S
C147 O143 1.269 . S
C148 O149 1.249 . S
C148 O150 1.270 . S
O149 Zn141 1.943 . S
O149 C148 1.249 . S
O150 Zn140 2.067 . S
O150 C148 1.270 . S
C151 O144 1.262 . S
C151 O152 1.232 . S
O152 C151 1.232 . S
C153 O145 1.260 . S
C153 O146 1.257 . S
Zn154 O157 2.031 . S
Zn154 O159 2.049 . S
Zn154 O164 2.067 . S
Zn155 O156 1.962 . S
Zn155 O158 1.986 . S
Zn155 O160 1.996 . S
Zn155 O163 1.943 . S
O156 Zn155 1.962 . S
O156 C161 1.254 . S
O157 Zn154 2.031 . S
O157 C161 1.269 . S
O158 Zn155 1.986 . S
O158 C165 1.262 . S
O159 Zn154 2.049 . S
O159 C167 1.260 . S
O160 Zn155 1.996 . S
O160 C167 1.257 . S
C161 O156 1.254 . S
C161 O157 1.269 . S
C162 O163 1.249 . S
C162 O164 1.270 . S
O163 Zn155 1.943 . S
O163 C162 1.249 . S
O164 Zn154 2.067 . S
O164 C162 1.270 . S
C165 O158 1.262 . S
C165 O166 1.232 . S
O166 C165 1.232 . S
C167 O159 1.260 . S
C167 O160 1.257 . S
Zn168 O171 2.031 . S
Zn168 O173 2.049 . S
Zn168 O178 2.067 . S
Zn169 O170 1.962 . S
Zn169 O172 1.986 . S
Zn169 O174 1.996 . S
Zn169 O177 1.943 1_455 S
O170 Zn169 1.962 . S
O170 C175 1.254 1_455 S
O171 Zn168 2.031 . S
O171 C175 1.269 . S
O172 Zn169 1.986 . S
O172 C179 1.262 . S
O173 Zn168 2.049 . S
O173 C181 1.260 . S
O174 Zn169 1.996 . S
O174 C181 1.257 1_455 S
C175 O170 1.254 1_655 S
C175 O171 1.269 . S
C176 O177 1.249 . S
C176 O178 1.270 . S
O177 Zn169 1.943 1_655 S
O177 C176 1.249 . S
O178 Zn168 2.067 . S
O178 C176 1.270 . S
C179 O172 1.262 . S
C179 O180 1.232 . S
O180 C179 1.232 . S
C181 O173 1.260 . S
C181 O174 1.257 1_655 S
Zn182 O185 2.031 . S
Zn182 O187 2.049 . S
Zn182 O192 2.067 . S
Zn183 O184 1.962 . S
Zn183 O186 1.986 1_455 S
Zn183 O188 1.996 . S
Zn183 O191 1.943 . S
O184 Zn183 1.962 . S
O184 C189 1.254 . S
O185 Zn182 2.031 . S
O185 C189 1.269 . S
O186 Zn183 1.986 1_655 S
O186 C193 1.262 . S
O187 Zn182 2.049 . S
O187 C195 1.260 . S
O188 Zn183 1.996 . S
O188 C195 1.257 . S
C189 O184 1.254 . S
C189 O185 1.269 . S
C190 O191 1.249 . S
C190 O192 1.270 . S
O191 Zn183 1.943 . S
O191 C190 1.249 . S
O192 Zn182 2.067 . S
O192 C190 1.270 . S
C193 O186 1.262 . S
C193 O194 1.232 . S
O194 C193 1.232 . S
C195 O187 1.260 . S
C195 O188 1.257 . S
Zn196 O199 2.031 . S
Zn196 O201 2.049 . S
Zn196 O206 2.067 . S
Zn197 O198 1.962 . S
Zn197 O200 1.986 . S
Zn197 O202 1.996 . S
Zn197 O205 1.943 . S
O198 Zn197 1.962 . S
O198 C203 1.254 . S
O199 Zn196 2.031 . S
O199 C203 1.269 . S
O200 Zn197 1.986 . S
O200 C207 1.262 . S
O201 Zn196 2.049 . S
O201 C209 1.260 . S
O202 Zn197 1.996 . S
O202 C209 1.257 . S
C203 O198 1.254 . S
C203 O199 1.269 . S
C204 O205 1.249 . S
C204 O206 1.270 . S
O205 Zn197 1.943 . S
O205 C204 1.249 . S
O206 Zn196 2.067 . S
O206 C204 1.270 . S
C207 O200 1.262 . S
C207 O208 1.232 . S
O208 C207 1.232 . S
C209 O201 1.260 . S
C209 O202 1.257 . S
Zn210 O213 2.031 . S
Zn210 O215 2.049 . S
Zn210 O220 2.067 . S
Zn211 O212 1.962 . S
Zn211 O214 1.986 . S
Zn211 O216 1.996 . S
Zn211 O219 1.943 . S
O212 Zn211 1.962 . S
O212 C217 1.254 . S
O213 Zn210 2.031 . S
O213 C217 1.269 . S
O214 Zn211 1.986 . S
O214 C221 1.262 . S
O215 Zn210 2.049 . S
O215 C223 1.260 . S
O216 Zn211 1.996 . S
O216 C223 1.257 . S
C217 O212 1.254 . S
C217 O213 1.269 . S
C218 O219 1.249 . S
C218 O220 1.270 . S
O219 Zn211 1.943 . S
O219 C218 1.249 . S
O220 Zn210 2.067 . S
O220 C218 1.270 . S
C221 O214 1.262 . S
C221 O222 1.232 . S
O222 C221 1.232 . S
C223 O215 1.260 . S
C223 O216 1.257 . S
Zn224 O227 2.031 . S
Zn224 O229 2.049 . S
Zn224 O234 2.067 . S
Zn225 O226 1.962 . S
Zn225 O228 1.986 . S
Zn225 O230 1.996 . S
Zn225 O233 1.943 1_545 S
O226 Zn225 1.962 . S
O226 C231 1.254 . S
O227 Zn224 2.031 . S
O227 C231 1.269 1_565 S
O228 Zn225 1.986 . S
O228 C235 1.262 . S
O229 Zn224 2.049 . S
O229 C237 1.260 . S
O230 Zn225 1.996 . S
O230 C237 1.257 1_545 S
C231 O226 1.254 . S
C231 O227 1.269 1_545 S
C232 O233 1.249 . S
C232 O234 1.270 . S
O233 Zn225 1.943 1_565 S
O233 C232 1.249 . S
O234 Zn224 2.067 . S
O234 C232 1.270 . S
C235 O228 1.262 . S
C235 O236 1.232 . S
O236 C235 1.232 . S
C237 O229 1.260 . S
C237 O230 1.257 1_565 S
Zn238 O241 2.031 . S
Zn238 O243 2.049 . S
Zn238 O248 2.067 . S
Zn239 O240 1.962 . S
Zn239 O242 1.986 . S
Zn239 O244 1.996 . S
Zn239 O247 1.943 . S
O240 Zn239 1.962 . S
O240 C245 1.254 . S
O241 Zn238 2.031 . S
O241 C245 1.269 . S
O242 Zn239 1.986 . S
O242 C249 1.262 . S
O243 Zn238 2.049 . S
O243 C251 1.260 . S
O244 Zn239 1.996 . S
O244 C251 1.257 . S
C245 O240 1.254 . S
C245 O241 1.269 . S
C246 O247 1.249 . S
C246 O248 1.270 . S
O247 Zn239 1.943 . S
O247 C246 1.249 . S
O248 Zn238 2.067 . S
O248 C246 1.270 . S
C249 O242 1.262 . S
C249 O250 1.232 . S
O250 C249 1.232 . S
C251 O243 1.260 . S
C251 O244 1.257 . S
Zn252 O255 2.031 . S
Zn252 O257 2.049 . S
Zn252 O262 2.067 . S
Zn253 O254 1.962 . S
Zn253 O256 1.986 1_545 S
Zn253 O258 1.996 . S
Zn253 O261 1.943 . S
O254 Zn253 1.962 . S
O254 C259 1.254 . S
O255 Zn252 2.031 . S
O255 C259 1.269 . S
O256 Zn253 1.986 1_565 S
O256 C263 1.262 . S
O257 Zn252 2.049 . S
O257 C265 1.260 . S
O258 Zn253 1.996 . S
O258 C265 1.257 . S
C259 O254 1.254 . S
C259 O255 1.269 . S
C260 O261 1.249 . S
C260 O262 1.270 . S
O261 Zn253 1.943 . S
O261 C260 1.249 . S
O262 Zn252 2.067 . S
O262 C260 1.270 . S
C263 O256 1.262 . S
C263 O264 1.232 . S
O264 C263 1.232 . S
C265 O257 1.260 . S
C265 O258 1.257 . S
Zn266 O269 2.031 . S
Zn266 O271 2.049 . S
Zn266 O276 2.067 . S
Zn267 O268 1.945 1_554 S
Zn267 O270 1.986 . S
Zn267 O272 1.996 . S
Zn267 O275 1.943 . S
O268 Zn267 1.945 1_556 S
O268 C273 1.263 . S
O269 Zn266 2.031 . S
O269 C273 1.269 1_554 S
O270 Zn267 1.986 . S
O270 C277 1.262 . S
O271 Zn266 2.049 . S
O271 C279 1.260 . S
O272 Zn267 1.996 . S
O272 C279 1.257 . S
C273 O268 1.263 . S
C273 O269 1.269 1_556 S
C274 O275 1.249 . S
C274 O276 1.270 . S
O275 Zn267 1.943 . S
O275 C274 1.249 . S
O276 Zn266 2.067 . S
O276 C274 1.270 . S
C277 O270 1.262 . S
C277 O278 1.232 . S
O278 C277 1.232 . S
C279 O271 1.260 . S
C279 O272 1.257 . S
Zn280 O283 2.031 1_554 S
Zn280 O285 2.049 . S
Zn280 O290 2.067 . S
Zn281 O282 1.993 . S
Zn281 O284 1.970 1_556 S
Zn281 O286 1.971 1_556 S
Zn281 O289 1.942 . S
O282 Zn281 1.993 . S
O282 C287 1.254 . S
O283 Zn280 2.031 1_556 S
O283 C287 1.269 . S
O284 Zn281 1.970 1_554 S
O284 C291 1.269 . S
O285 Zn280 2.049 . S
O285 C293 1.260 . S
O286 Zn281 1.971 1_554 S
O286 C293 1.257 . S
C287 O282 1.254 . S
C287 O283 1.269 . S
C288 O289 1.245 1_554 S
C288 O290 1.279 . S
O289 Zn281 1.942 . S
O289 C288 1.245 1_556 S
O290 Zn280 2.067 . S
O290 C288 1.279 . S
C291 O284 1.269 . S
C291 O292 1.224 1_554 S
O292 C291 1.224 1_556 S
C293 O285 1.260 . S
C293 O286 1.257 . S
Zn294 O297 2.031 . S
Zn294 O299 2.049 . S
Zn294 O304 2.067 . S
Zn295 O296 1.962 . S
Zn295 O298 1.986 . S
Zn295 O300 1.996 . S
Zn295 O303 1.943 . S
O296 Zn295 1.962 . S
O296 C301 1.254 . S
O297 Zn294 2.031 . S
O297 C301 1.269 . S
O298 Zn295 1.986 . S
O298 C305 1.262 . S
O299 Zn294 2.049 . S
O299 C307 1.260 . S
O300 Zn295 1.996 . S
O300 C307 1.257 . S
C301 O296 1.254 . S
C301 O297 1.269 . S
C302 O303 1.249 . S
C302 O304 1.270 . S
O303 Zn295 1.943 . S
O303 C302 1.249 . S
O304 Zn294 2.067 . S
O304 C302 1.270 . S
C305 O298 1.262 . S
C305 O306 1.232 . S
O306 C305 1.232 . S
C307 O299 1.260 . S
C307 O300 1.257 . S
Zn308 O311 2.031 . S
Zn308 O313 2.049 . S
Zn308 O318 2.067 . S
Zn309 O310 1.962 . S
Zn309 O312 1.986 . S
Zn309 O314 1.996 . S
Zn309 O317 1.943 . S
O310 Zn309 1.962 . S
O310 C315 1.254 . S
O311 Zn308 2.031 . S
O311 C315 1.269 . S
O312 Zn309 1.986 . S
O312 C319 1.262 . S
O313 Zn308 2.049 . S
O313 C321 1.260 . S
O314 Zn309 1.996 . S
O314 C321 1.257 . S
C315 O310 1.254 . S
C315 O311 1.269 . S
C316 O317 1.249 . S
C316 O318 1.270 . S
O317 Zn309 1.943 . S
O317 C316 1.249 . S
O318 Zn308 2.067 . S
O318 C316 1.270 . S
C319 O312 1.262 . S
C319 O320 1.232 . S
O320 C319 1.232 . S
C321 O313 1.260 . S
C321 O314 1.257 . S
Zn322 O325 2.031 . S
Zn322 O327 2.049 . S
Zn322 O332 2.067 . S
Zn323 O324 1.962 . S
Zn323 O326 1.986 . S
Zn323 O328 1.996 . S
Zn323 O331 1.943 . S
O324 Zn323 1.962 . S
O324 C329 1.254 . S
O325 Zn322 2.031 . S
O325 C329 1.269 . S
O326 Zn323 1.986 . S
O326 C333 1.262 . S
O327 Zn322 2.049 . S
O327 C335 1.260 . S
O328 Zn323 1.996 . S
O328 C335 1.257 . S
C329 O324 1.254 . S
C329 O325 1.269 . S
C330 O331 1.249 . S
C330 O332 1.270 . S
O331 Zn323 1.943 . S
O331 C330 1.249 . S
O332 Zn322 2.067 . S
O332 C330 1.270 . S
C333 O326 1.262 . S
C333 O334 1.232 . S
O334 C333 1.232 . S
C335 O327 1.260 . S
C335 O328 1.257 . S
C336 O352 1.251 1_455 S
C336 O354 1.254 . S
N337 C338 1.333 1_565 S
N337 C342 1.307 . S
N337 Zn343 2.020 1_665 S
C338 N337 1.333 1_545 S
C338 C339 1.379 . S
C338 H356 0.952 . S
C339 C338 1.379 . S
C339 C340 1.390 1_545 S
C339 H366 0.949 . S
C340 C339 1.390 1_565 S
C340 C341 1.357 . S
C341 C340 1.357 . S
C341 C342 1.370 . S
C341 H367 0.950 . S
C342 N337 1.307 . S
C342 C341 1.370 . S
C342 H360 0.948 . S
Zn343 N337 2.020 1_445 S
Zn343 O352 2.039 1_454 S
Zn343 O358 2.034 . S
Zn343 O362 2.025 1_545 S
Zn343 O364 2.024 1_545 S
C344 O363 1.246 . S
C344 O364 1.249 . S
N345 C346 1.307 1_554 S
N345 C347 1.333 . S
N345 Zn351 2.020 . S
C346 N345 1.307 1_556 S
C346 C350 1.370 . S
C346 H357 0.948 . S
C347 N345 1.333 . S
C347 C348 1.379 . S
C347 H355 0.952 . S
C348 C347 1.379 . S
C348 C349 1.360 1_554 S
C348 H368 0.949 . S
C349 C348 1.360 1_556 S
C349 C350 1.373 . S
C350 C346 1.370 . S
C350 C349 1.373 . S
C350 H369 0.950 . S
Zn351 N345 2.020 . S
Zn351 O354 2.025 1_554 S
Zn351 O359 2.024 . S
Zn351 O361 2.039 . S
Zn351 O363 2.034 1_545 S
O352 C336 1.251 1_655 S
O352 Zn343 2.039 1_656 S
C353 O358 1.246 . S
C353 O359 1.249 . S
O354 C336 1.254 . S
O354 Zn351 2.025 1_556 S
H355 C347 0.952 . S
H356 C338 0.952 . S
H357 C346 0.948 . S
O358 Zn343 2.034 . S
O358 C353 1.246 . S
O359 Zn351 2.024 . S
O359 C353 1.249 . S
H360 C342 0.948 . S
O361 Zn351 2.039 . S
O361 C365 1.243 1_545 S
O362 Zn343 2.025 1_565 S
O362 C365 1.257 . S
O363 C344 1.246 . S
O363 Zn351 2.034 1_565 S
O364 Zn343 2.024 1_565 S
O364 C344 1.249 . S
C365 O361 1.243 1_565 S
C365 O362 1.257 . S
H366 C339 0.949 . S
H367 C341 0.950 . S
H368 C348 0.949 . S
H369 C350 0.950 . S
C370 O386 1.251 . S
C370 O388 1.254 . S
N371 C372 1.333 . S
N371 C376 1.307 . S
N371 Zn377 2.020 . S
C372 N371 1.333 . S
C372 C373 1.379 . S
C372 H390 0.952 . S
C373 C372 1.379 . S
C373 C374 1.390 . S
C373 H400 0.949 . S
C374 C373 1.390 . S
C374 C375 1.357 . S
C375 C374 1.357 . S
C375 C376 1.370 . S
C375 H401 0.950 . S
C376 N371 1.307 . S
C376 C375 1.370 . S
C376 H394 0.948 . S
Zn377 N371 2.020 . S
Zn377 O386 2.039 . S
Zn377 O392 2.034 . S
Zn377 O396 2.025 . S
Zn377 O398 2.024 . S
C378 O397 1.246 . S
C378 O398 1.249 . S
N379 C380 1.307 . S
N379 C381 1.333 . S
N379 Zn385 2.020 . S
C380 N379 1.307 . S
C380 C384 1.370 . S
C380 H391 0.948 . S
C381 N379 1.333 . S
C381 C382 1.379 . S
C381 H389 0.952 . S
C382 C381 1.379 . S
C382 C383 1.390 . S
C382 H402 0.949 . S
C383 C382 1.390 . S
C383 C384 1.357 . S
C384 C380 1.370 . S
C384 C383 1.357 . S
C384 H403 0.950 . S
Zn385 N379 2.020 . S
Zn385 O388 2.025 . S
Zn385 O393 2.024 . S
Zn385 O395 2.039 . S
Zn385 O397 2.034 . S
O386 C370 1.251 . S
O386 Zn377 2.039 . S
C387 O392 1.246 . S
C387 O393 1.249 . S
O388 C370 1.254 . S
O388 Zn385 2.025 . S
H389 C381 0.952 . S
H390 C372 0.952 . S
H391 C380 0.948 . S
O392 Zn377 2.034 . S
O392 C387 1.246 . S
O393 Zn385 2.024 . S
O393 C387 1.249 . S
H394 C376 0.948 . S
O395 Zn385 2.039 . S
O395 C399 1.251 . S
O396 Zn377 2.025 . S
O396 C399 1.254 . S
O397 C378 1.246 . S
O397 Zn385 2.034 . S
O398 Zn377 2.024 . S
O398 C378 1.249 . S
C399 O395 1.251 . S
C399 O396 1.254 . S
H400 C373 0.949 . S
H401 C375 0.950 . S
H402 C382 0.949 . S
H403 C384 0.950 . S
C404 O420 1.251 . S
C404 O422 1.254 . S
N405 C406 1.333 . S
N405 C410 1.307 . S
N405 Zn411 2.020 . S
C406 N405 1.333 . S
C406 C407 1.379 . S
C406 H424 0.952 . S
C407 C406 1.379 . S
C407 C408 1.390 . S
C407 H434 0.949 . S
C408 C407 1.390 . S
C408 C409 1.357 . S
C409 C408 1.357 . S
C409 C410 1.370 . S
C409 H435 0.950 . S
C410 N405 1.307 . S
C410 C409 1.370 . S
C410 H428 0.948 . S
Zn411 N405 2.020 . S
Zn411 O420 2.039 1_565 S
Zn411 O426 2.034 1_565 S
Zn411 O430 2.025 . S
Zn411 O432 2.024 . S
C412 O431 1.246 1_565 S
C412 O432 1.249 . S
N413 C414 1.307 . S
N413 C415 1.333 . S
N413 Zn419 2.020 . S
C414 N413 1.307 . S
C414 C418 1.370 . S
C414 H425 0.948 . S
C415 N413 1.333 . S
C415 C416 1.379 . S
C415 H423 0.952 . S
C416 C415 1.379 . S
C416 C417 1.390 . S
C416 H436 0.949 . S
C417 C416 1.390 . S
C417 C418 1.357 . S
C418 C414 1.370 . S
C418 C417 1.357 . S
C418 H437 0.950 . S
Zn419 N413 2.020 . S
Zn419 O422 2.025 . S
Zn419 O427 2.024 . S
Zn419 O429 2.039 . S
Zn419 O431 2.034 . S
O420 C404 1.251 . S
O420 Zn411 2.039 1_545 S
C421 O426 1.246 . S
C421 O427 1.249 . S
O422 C404 1.254 . S
O422 Zn419 2.025 . S
H423 C415 0.952 . S
H424 C406 0.952 . S
H425 C414 0.948 . S
O426 Zn411 2.034 1_545 S
O426 C421 1.246 . S
O427 Zn419 2.024 . S
O427 C421 1.249 . S
H428 C410 0.948 . S
O429 Zn419 2.039 . S
O429 C433 1.251 . S
O430 Zn411 2.025 . S
O430 C433 1.254 1_565 S
O431 C412 1.246 1_545 S
O431 Zn419 2.034 . S
O432 Zn411 2.024 . S
O432 C412 1.249 . S
C433 O429 1.251 . S
C433 O430 1.254 1_545 S
H434 C407 0.949 . S
H435 C409 0.950 . S
H436 C416 0.949 . S
H437 C418 0.950 . S
C438 O454 1.251 . S
C438 O456 1.254 . S
N439 C440 1.333 . S
N439 C444 1.307 . S
N439 Zn445 2.020 . S
C440 N439 1.333 . S
C440 C441 1.379 . S
C440 H458 0.952 . S
C441 C440 1.379 . S
C441 C442 1.390 . S
C441 H468 0.949 . S
C442 C441 1.390 . S
C442 C443 1.357 . S
C443 C442 1.357 . S
C443 C444 1.370 . S
C443 H469 0.950 . S
C444 N439 1.307 . S
C444 C443 1.370 . S
C444 H462 0.948 . S
Zn445 N439 2.020 . S
Zn445 O454 2.039 . S
Zn445 O460 2.034 . S
Zn445 O464 2.025 . S
Zn445 O466 2.024 . S
C446 O465 1.246 . S
C446 O466 1.249 . S
N447 C448 1.307 . S
N447 C449 1.333 . S
N447 Zn453 2.020 . S
C448 N447 1.307 . S
C448 C452 1.370 . S
C448 H459 0.948 . S
C449 N447 1.333 . S
C449 C450 1.379 . S
C449 H457 0.952 . S
C450 C449 1.379 . S
C450 C451 1.390 . S
C450 H470 0.949 . S
C451 C450 1.390 . S
C451 C452 1.357 . S
C452 C448 1.370 . S
C452 C451 1.357 . S
C452 H471 0.950 . S
Zn453 N447 2.020 . S
Zn453 O456 2.025 . S
Zn453 O461 2.024 . S
Zn453 O463 2.039 . S
Zn453 O465 2.034 . S
O454 C438 1.251 . S
O454 Zn445 2.039 . S
C455 O460 1.246 . S
C455 O461 1.249 . S
O456 C438 1.254 . S
O456 Zn453 2.025 . S
H457 C449 0.952 . S
H458 C440 0.952 . S
H459 C448 0.948 . S
O460 Zn445 2.034 . S
O460 C455 1.246 . S
O461 Zn453 2.024 . S
O461 C455 1.249 . S
H462 C444 0.948 . S
O463 Zn453 2.039 . S
O463 C467 1.251 . S
O464 Zn445 2.025 . S
O464 C467 1.254 . S
O465 C446 1.246 . S
O465 Zn453 2.034 . S
O466 Zn445 2.024 . S
O466 C446 1.249 . S
C467 O463 1.251 . S
C467 O464 1.254 . S
H468 C441 0.949 . S
H469 C443 0.950 . S
H470 C450 0.949 . S
H471 C452 0.950 . S
C472 O488 1.251 1_565 S
C472 O490 1.254 . S
N473 C474 1.333 . S
N473 C478 1.307 . S
N473 Zn479 2.020 . S
C474 N473 1.333 . S
C474 C475 1.379 . S
C474 H492 0.952 . S
C475 C474 1.379 . S
C475 C476 1.390 . S
C475 H502 0.949 . S
C476 C475 1.390 . S
C476 C477 1.357 . S
C477 C476 1.357 . S
C477 C478 1.370 . S
C477 H503 0.950 . S
C478 N473 1.307 . S
C478 C477 1.370 . S
C478 H496 0.948 . S
Zn479 N473 2.020 . S
Zn479 O488 2.039 . S
Zn479 O494 2.034 . S
Zn479 O498 2.025 1_455 S
Zn479 O500 2.024 1_545 S
C480 O499 1.246 . S
C480 O500 1.249 . S
N481 C482 1.307 . S
N481 C483 1.333 1_455 S
N481 Zn487 2.020 1_565 S
C482 N481 1.307 . S
C482 C486 1.370 . S
C482 H493 0.948 1_565 S
C483 N481 1.333 1_655 S
C483 C484 1.379 . S
C483 H491 0.952 . S
C484 C483 1.379 . S
C484 C485 1.390 . S
C484 H504 0.949 . S
C485 C484 1.390 . S
C485 C486 1.357 1_655 S
C486 C482 1.370 . S
C486 C485 1.357 1_455 S
C486 H505 0.950 . S
Zn487 N481 2.020 1_545 S
Zn487 O490 2.025 1_545 S
Zn487 O495 2.024 . S
Zn487 O497 2.039 1_455 S
Zn487 O499 2.034 1_545 S
O488 C472 1.251 1_545 S
O488 Zn479 2.039 . S
C489 O494 1.246 . S
C489 O495 1.249 . S
O490 C472 1.254 . S
O490 Zn487 2.025 1_565 S
H491 C483 0.952 . S
H492 C474 0.952 . S
H493 C482 0.948 1_545 S
O494 Zn479 2.034 . S
O494 C489 1.246 . S
O495 Zn487 2.024 . S
O495 C489 1.249 . S
H496 C478 0.948 . S
O497 Zn487 2.039 1_655 S
O497 C501 1.251 . S
O498 Zn479 2.025 1_655 S
O498 C501 1.254 . S
O499 C480 1.246 . S
O499 Zn487 2.034 1_565 S
O500 Zn479 2.024 1_565 S
O500 C480 1.249 . S
C501 O497 1.251 . S
C501 O498 1.254 . S
H502 C475 0.949 . S
H503 C477 0.950 . S
H504 C484 0.949 . S
H505 C486 0.950 . S
C506 O522 1.251 . S
C506 O524 1.254 . S
N507 C508 1.333 . S
N507 C512 1.307 . S
N507 Zn513 2.020 . S
C508 N507 1.333 . S
C508 C509 1.379 . S
C508 H526 0.952 . S
C509 C508 1.379 . S
C509 C510 1.390 . S
C509 H536 0.949 . S
C510 C509 1.390 . S
C510 C511 1.357 . S
C511 C510 1.357 . S
C511 C512 1.370 . S
C511 H537 0.950 . S
C512 N507 1.307 . S
C512 C511 1.370 . S
C512 H530 0.948 . S
Zn513 N507 2.020 . S
Zn513 O522 2.039 . S
Zn513 O528 2.034 . S
Zn513 O532 2.025 . S
Zn513 O534 2.024 . S
C514 O533 1.246 . S
C514 O534 1.249 . S
N515 C516 1.307 . S
N515 C517 1.333 . S
N515 Zn521 2.020 . S
C516 N515 1.307 . S
C516 C520 1.370 . S
C516 H527 0.948 . S
C517 N515 1.333 . S
C517 C518 1.379 . S
C517 H525 0.952 . S
C518 C517 1.379 . S
C518 C519 1.390 . S
C518 H538 0.949 . S
C519 C518 1.390 . S
C519 C520 1.357 . S
C520 C516 1.370 . S
C520 C519 1.357 . S
C520 H539 0.950 . S
Zn521 N515 2.020 . S
Zn521 O524 2.025 . S
Zn521 O529 2.024 . S
Zn521 O531 2.039 . S
Zn521 O533 2.034 . S
O522 C506 1.251 . S
O522 Zn513 2.039 . S
C523 O528 1.246 . S
C523 O529 1.249 . S
O524 C506 1.254 . S
O524 Zn521 2.025 . S
H525 C517 0.952 . S
H526 C508 0.952 . S
H527 C516 0.948 . S
O528 Zn513 2.034 . S
O528 C523 1.246 . S
O529 Zn521 2.024 . S
O529 C523 1.249 . S
H530 C512 0.948 . S
O531 Zn521 2.039 . S
O531 C535 1.251 . S
O532 Zn513 2.025 . S
O532 C535 1.254 . S
O533 C514 1.246 . S
O533 Zn521 2.034 . S
O534 Zn513 2.024 . S
O534 C514 1.249 . S
C535 O531 1.251 . S
C535 O532 1.254 . S
H536 C509 0.949 . S
H537 C511 0.950 . S
H538 C518 0.949 . S
H539 C520 0.950 . S
C540 O556 1.251 . S
C540 O558 1.254 . S
N541 C542 1.333 . S
N541 C546 1.307 . S
N541 Zn547 2.020 . S
C542 N541 1.333 . S
C542 C543 1.379 . S
C542 H560 0.952 . S
C543 C542 1.379 . S
C543 C544 1.390 . S
C543 H570 0.949 . S
C544 C543 1.390 . S
C544 C545 1.357 . S
C545 C544 1.357 . S
C545 C546 1.370 . S
C545 H571 0.950 . S
C546 N541 1.307 . S
C546 C545 1.370 . S
C546 H564 0.948 . S
Zn547 N541 2.020 . S
Zn547 O556 2.039 1_545 S
Zn547 O562 2.034 . S
Zn547 O566 2.025 . S
Zn547 O568 2.024 . S
C548 O567 1.246 . S
C548 O568 1.249 1_565 S
N549 C550 1.307 . S
N549 C551 1.333 1_565 S
N549 Zn555 2.020 1_566 S
C550 N549 1.307 . S
C550 C554 1.370 . S
C550 H561 0.948 . S
C551 N549 1.333 1_545 S
C551 C552 1.379 1_545 S
C551 H559 0.952 . S
C552 C551 1.379 1_565 S
C552 C553 1.391 . S
C552 H572 0.948 1_565 S
C553 C552 1.391 . S
C553 C554 1.357 . S
C554 C550 1.370 . S
C554 C553 1.357 . S
C554 H573 0.950 . S
Zn555 N549 2.020 1_544 S
Zn555 O558 2.025 1_545 S
Zn555 O563 2.024 . S
Zn555 O565 2.039 1_554 S
Zn555 O567 2.034 1_545 S
O556 C540 1.251 . S
O556 Zn547 2.039 1_565 S
C557 O562 1.246 . S
C557 O563 1.249 . S
O558 C540 1.254 . S
O558 Zn555 2.025 1_565 S
H559 C551 0.952 . S
H560 C542 0.952 . S
H561 C550 0.948 . S
O562 Zn547 2.034 . S
O562 C557 1.246 . S
O563 Zn555 2.024 . S
O563 C557 1.249 . S
H564 C546 0.948 . S
O565 Zn555 2.039 1_556 S
O565 C569 1.251 1_556 S
O566 Zn547 2.025 . S
O566 C569 1.254 . S
O567 C548 1.246 . S
O567 Zn555 2.034 1_565 S
O568 Zn547 2.024 . S
O568 C548 1.249 1_545 S
C569 O565 1.251 1_554 S
C569 O566 1.254 . S
H570 C543 0.949 . S
H571 C545 0.950 . S
H572 C552 0.948 1_545 S
H573 C554 0.950 . S
C574 O590 1.251 . S
C574 O592 1.254 . S
N575 C576 1.333 . S
N575 C580 1.307 . S
N575 Zn581 2.020 . S
C576 N575 1.333 . S
C576 C577 1.379 . S
C576 H594 0.952 . S
C577 C576 1.379 . S
C577 C578 1.390 . S
C577 H604 0.949 . S
C578 C577 1.390 . S
C578 C579 1.357 . S
C579 C578 1.357 . S
C579 C580 1.370 . S
C579 H605 0.950 . S
C580 N575 1.307 . S
C580 C579 1.370 . S
C580 H598 0.948 . S
Zn581 N575 2.020 . S
Zn581 O590 2.039 . S
Zn581 O596 2.034 . S
Zn581 O600 2.025 . S
Zn581 O602 2.024 . S
C582 O601 1.246 . S
C582 O602 1.249 . S
N583 C584 1.307 . S
N583 C585 1.333 . S
N583 Zn589 2.020 . S
C584 N583 1.307 . S
C584 C588 1.370 . S
C584 H595 0.948 . S
C585 N583 1.333 . S
C585 C586 1.379 . S
C585 H593 0.952 . S
C586 C585 1.379 . S
C586 C587 1.390 . S
C586 H606 0.949 . S
C587 C586 1.390 . S
C587 C588 1.357 . S
C588 C584 1.370 . S
C588 C587 1.357 . S
C588 H607 0.950 . S
Zn589 N583 2.020 . S
Zn589 O592 2.025 . S
Zn589 O597 2.024 . S
Zn589 O599 2.039 . S
Zn589 O601 2.034 . S
O590 C574 1.251 . S
O590 Zn581 2.039 . S
C591 O596 1.246 . S
C591 O597 1.249 . S
O592 C574 1.254 . S
O592 Zn589 2.025 . S
H593 C585 0.952 . S
H594 C576 0.952 . S
H595 C584 0.948 . S
O596 Zn581 2.034 . S
O596 C591 1.246 . S
O597 Zn589 2.024 . S
O597 C591 1.249 . S
H598 C580 0.948 . S
O599 Zn589 2.039 . S
O599 C603 1.251 . S
O600 Zn581 2.025 . S
O600 C603 1.254 . S
O601 C582 1.246 . S
O601 Zn589 2.034 . S
O602 Zn581 2.024 . S
O602 C582 1.249 . S
C603 O599 1.251 . S
C603 O600 1.254 . S
H604 C577 0.949 . S
H605 C579 0.950 . S
H606 C586 0.949 . S
H607 C588 0.950 . S
C608 O624 1.251 . S
C608 O626 1.254 . S
N609 C610 1.333 . S
N609 C614 1.307 . S
N609 Zn615 2.020 1_556 S
C610 N609 1.333 . S
C610 C611 1.379 . S
C610 H628 0.952 . S
C611 C610 1.379 . S
C611 C612 1.390 . S
C611 H638 0.949 . S
C612 C611 1.390 . S
C612 C613 1.357 . S
C613 C612 1.357 . S
C613 C614 1.370 . S
C613 H639 0.950 . S
C614 N609 1.307 . S
C614 C613 1.370 . S
C614 H632 0.948 . S
Zn615 N609 2.020 1_554 S
Zn615 O624 2.039 . S
Zn615 O630 2.034 . S
Zn615 O634 2.025 . S
Zn615 O636 2.024 1_554 S
C616 O635 1.246 . S
C616 O636 1.249 1_554 S
N617 C618 1.307 . S
N617 C619 1.333 . S
N617 Zn623 2.020 . S
C618 N617 1.307 . S
C618 C622 1.370 . S
C618 H629 0.948 . S
C619 N617 1.333 . S
C619 C620 1.379 . S
C619 H627 0.952 . S
C620 C619 1.379 . S
C620 C621 1.390 . S
C620 H640 0.949 . S
C621 C620 1.390 . S
C621 C622 1.357 . S
C622 C618 1.370 . S
C622 C621 1.357 . S
C622 H641 0.950 . S
Zn623 N617 2.020 . S
Zn623 O626 2.025 . S
Zn623 O631 2.024 . S
Zn623 O633 2.039 . S
Zn623 O635 2.034 . S
O624 C608 1.251 . S
O624 Zn615 2.039 . S
C625 O630 1.246 . S
C625 O631 1.249 . S
O626 C608 1.254 . S
O626 Zn623 2.025 . S
H627 C619 0.952 . S
H628 C610 0.952 . S
H629 C618 0.948 . S
O630 Zn615 2.034 . S
O630 C625 1.246 . S
O631 Zn623 2.024 . S
O631 C625 1.249 . S
H632 C614 0.948 . S
O633 Zn623 2.039 . S
O633 C637 1.251 . S
O634 Zn615 2.025 . S
O634 C637 1.254 . S
O635 C616 1.246 . S
O635 Zn623 2.034 . S
O636 Zn615 2.024 1_556 S
O636 C616 1.249 1_556 S
C637 O633 1.251 . S
C637 O634 1.254 . S
H638 C611 0.949 . S
H639 C613 0.950 . S
H640 C620 0.949 . S
H641 C622 0.950 . S
C642 O658 1.251 . S
C642 O660 1.254 . S
N643 C644 1.333 . S
N643 C648 1.307 . S
N643 Zn649 2.020 . S
C644 N643 1.333 . S
C644 C645 1.379 . S
C644 H662 0.952 . S
C645 C644 1.379 . S
C645 C646 1.390 . S
C645 H672 0.949 . S
C646 C645 1.390 . S
C646 C647 1.357 . S
C647 C646 1.357 . S
C647 C648 1.370 . S
C647 H673 0.950 . S
C648 N643 1.307 . S
C648 C647 1.370 . S
C648 H666 0.948 . S
Zn649 N643 2.020 . S
Zn649 O658 2.039 . S
Zn649 O664 2.034 . S
Zn649 O668 2.025 . S
Zn649 O670 2.024 . S
C650 O669 1.246 . S
C650 O670 1.249 . S
N651 C652 1.307 . S
N651 C653 1.333 . S
N651 Zn657 2.020 . S
C652 N651 1.307 . S
C652 C656 1.370 . S
C652 H663 0.948 . S
C653 N651 1.333 . S
C653 C654 1.379 . S
C653 H661 0.952 . S
C654 C653 1.379 . S
C654 C655 1.390 . S
C654 H674 0.949 . S
C655 C654 1.390 . S
C655 C656 1.357 . S
C656 C652 1.370 . S
C656 C655 1.357 . S
C656 H675 0.950 . S
Zn657 N651 2.020 . S
Zn657 O660 2.025 . S
Zn657 O665 2.024 . S
Zn657 O667 2.039 . S
Zn657 O669 2.034 . S
O658 C642 1.251 . S
O658 Zn649 2.039 . S
C659 O664 1.246 . S
C659 O665 1.249 . S
O660 C642 1.254 . S
O660 Zn657 2.025 . S
H661 C653 0.952 . S
H662 C644 0.952 . S
H663 C652 0.948 . S
O664 Zn649 2.034 . S
O664 C659 1.246 . S
O665 Zn657 2.024 . S
O665 C659 1.249 . S
H666 C648 0.948 . S
O667 Zn657 2.039 . S
O667 C671 1.251 . S
O668 Zn649 2.025 . S
O668 C671 1.254 . S
O669 C650 1.246 . S
O669 Zn657 2.034 . S
O670 Zn649 2.024 . S
O670 C650 1.249 . S
C671 O667 1.251 . S
C671 O668 1.254 . S
H672 C645 0.949 . S
H673 C647 0.950 . S
H674 C654 0.949 . S
H675 C656 0.950 . S
C676 O692 1.251 . S
C676 O694 1.254 . S
N677 C678 1.333 . S
N677 C682 1.307 . S
N677 Zn683 2.020 . S
C678 N677 1.333 . S
C678 C679 1.379 . S
C678 H696 0.952 . S
C679 C678 1.379 . S
C679 C680 1.390 . S
C679 H706 0.949 . S
C680 C679 1.390 . S
C680 C681 1.357 . S
C681 C680 1.357 . S
C681 C682 1.370 . S
C681 H707 0.950 . S
C682 N677 1.307 . S
C682 C681 1.370 . S
C682 H700 0.948 . S
Zn683 N677 2.020 . S
Zn683 O692 2.039 . S
Zn683 O698 2.034 . S
Zn683 O702 2.025 . S
Zn683 O704 2.024 . S
C684 O703 1.246 . S
C684 O704 1.249 . S
N685 C686 1.307 1_455 S
N685 C687 1.333 . S
N685 Zn691 2.020 . S
C686 N685 1.307 1_655 S
C686 C690 1.370 . S
C686 H697 0.948 . S
C687 N685 1.333 . S
C687 C688 1.379 . S
C687 H695 0.952 . S
C688 C687 1.379 . S
C688 C689 1.390 1_455 S
C688 H708 0.949 . S
C689 C688 1.390 1_655 S
C689 C690 1.357 . S
C690 C686 1.370 . S
C690 C689 1.357 . S
C690 H709 0.950 . S
Zn691 N685 2.020 . S
Zn691 O694 2.025 . S
Zn691 O699 2.024 1_455 S
Zn691 O701 2.039 . S
Zn691 O703 2.034 . S
O692 C676 1.251 . S
O692 Zn683 2.039 . S
C693 O698 1.246 1_655 S
C693 O699 1.249 . S
O694 C676 1.254 . S
O694 Zn691 2.025 . S
H695 C687 0.952 . S
H696 C678 0.952 . S
H697 C686 0.948 . S
O698 Zn683 2.034 . S
O698 C693 1.246 1_455 S
O699 Zn691 2.024 1_655 S
O699 C693 1.249 . S
H700 C682 0.948 . S
O701 Zn691 2.039 . S
O701 C705 1.251 . S
O702 Zn683 2.025 . S
O702 C705 1.254 . S
O703 C684 1.246 . S
O703 Zn691 2.034 . S
O704 Zn683 2.024 . S
O704 C684 1.249 . S
C705 O701 1.251 . S
C705 O702 1.254 . S
H706 C679 0.949 . S
H707 C681 0.950 . S
H708 C688 0.949 . S
H709 C690 0.950 . S
C710 O726 1.251 . S
C710 O728 1.254 . S
N711 C712 1.333 . S
N711 C716 1.307 . S
N711 Zn717 2.020 . S
C712 N711 1.333 . S
C712 C713 1.379 . S
C712 H730 0.952 . S
C713 C712 1.379 . S
C713 C714 1.390 . S
C713 H740 0.949 . S
C714 C713 1.390 . S
C714 C715 1.357 . S
C715 C714 1.357 . S
C715 C716 1.370 . S
C715 H741 0.950 . S
C716 N711 1.307 . S
C716 C715 1.370 . S
C716 H734 0.948 . S
Zn717 N711 2.020 . S
Zn717 O726 2.039 . S
Zn717 O732 2.034 . S
Zn717 O736 2.025 . S
Zn717 O738 2.024 . S
C718 O737 1.246 . S
C718 O738 1.249 . S
N719 C720 1.307 . S
N719 C721 1.333 . S
N719 Zn725 2.020 . S
C720 N719 1.307 . S
C720 C724 1.370 . S
C720 H731 0.948 . S
C721 N719 1.333 . S
C721 C722 1.379 . S
C721 H729 0.952 . S
C722 C721 1.379 . S
C722 C723 1.390 . S
C722 H742 0.949 . S
C723 C722 1.390 . S
C723 C724 1.357 . S
C724 C720 1.370 . S
C724 C723 1.357 . S
C724 H743 0.950 . S
Zn725 N719 2.020 . S
Zn725 O728 2.025 . S
Zn725 O733 2.024 . S
Zn725 O735 2.039 . S
Zn725 O737 2.034 . S
O726 C710 1.251 . S
O726 Zn717 2.039 . S
C727 O732 1.246 . S
C727 O733 1.249 . S
O728 C710 1.254 . S
O728 Zn725 2.025 . S
H729 C721 0.952 . S
H730 C712 0.952 . S
H731 C720 0.948 . S
O732 Zn717 2.034 . S
O732 C727 1.246 . S
O733 Zn725 2.024 . S
O733 C727 1.249 . S
H734 C716 0.948 . S
O735 Zn725 2.039 . S
O735 C739 1.251 . S
O736 Zn717 2.025 . S
O736 C739 1.254 . S
O737 C718 1.246 . S
O737 Zn725 2.034 . S
O738 Zn717 2.024 . S
O738 C718 1.249 . S
C739 O735 1.251 . S
C739 O736 1.254 . S
H740 C713 0.949 . S
H741 C715 0.950 . S
H742 C722 0.949 . S
H743 C724 0.950 . S
C744 O760 1.251 . S
C744 O762 1.254 . S
N745 C746 1.333 . S
N745 C750 1.307 . S
N745 Zn751 2.020 . S
C746 N745 1.333 . S
C746 C747 1.379 . S
C746 H764 0.952 . S
C747 C746 1.379 . S
C747 C748 1.390 . S
C747 H774 0.949 . S
C748 C747 1.390 . S
C748 C749 1.357 . S
C749 C748 1.357 . S
C749 C750 1.370 . S
C749 H775 0.950 . S
C750 N745 1.307 . S
C750 C749 1.370 . S
C750 H768 0.948 . S
Zn751 N745 2.020 . S
Zn751 O760 2.039 . S
Zn751 O766 2.034 . S
Zn751 O770 2.025 . S
Zn751 O772 2.024 . S
C752 O771 1.246 . S
C752 O772 1.249 . S
N753 C754 1.307 . S
N753 C755 1.333 . S
N753 Zn759 2.020 . S
C754 N753 1.307 . S
C754 C758 1.370 . S
C754 H765 0.948 . S
C755 N753 1.333 . S
C755 C756 1.379 . S
C755 H763 0.952 . S
C756 C755 1.379 . S
C756 C757 1.390 . S
C756 H776 0.949 . S
C757 C756 1.390 . S
C757 C758 1.357 . S
C758 C754 1.370 . S
C758 C757 1.357 . S
C758 H777 0.950 . S
Zn759 N753 2.020 . S
Zn759 O762 2.025 . S
Zn759 O767 2.024 . S
Zn759 O769 2.039 . S
Zn759 O771 2.034 . S
O760 C744 1.251 . S
O760 Zn751 2.039 . S
C761 O766 1.246 . S
C761 O767 1.249 . S
O762 C744 1.254 . S
O762 Zn759 2.025 . S
H763 C755 0.952 . S
H764 C746 0.952 . S
H765 C754 0.948 . S
O766 Zn751 2.034 . S
O766 C761 1.246 . S
O767 Zn759 2.024 . S
O767 C761 1.249 . S
H768 C750 0.948 . S
O769 Zn759 2.039 . S
O769 C773 1.251 . S
O770 Zn751 2.025 . S
O770 C773 1.254 . S
O771 C752 1.246 . S
O771 Zn759 2.034 . S
O772 Zn751 2.024 . S
O772 C752 1.249 . S
C773 O769 1.251 . S
C773 O770 1.254 . S
H774 C747 0.949 . S
H775 C749 0.950 . S
H776 C756 0.949 . S
H777 C758 0.950 . S
C778 O794 1.251 . S
C778 O796 1.254 . S
N779 C780 1.333 . S
N779 C784 1.307 . S
N779 Zn785 2.020 . S
C780 N779 1.333 . S
C780 C781 1.379 . S
C780 H798 0.952 . S
C781 C780 1.379 . S
C781 C782 1.390 . S
C781 H808 0.949 . S
C782 C781 1.390 . S
C782 C783 1.357 . S
C783 C782 1.357 . S
C783 C784 1.370 . S
C783 H809 0.950 . S
C784 N779 1.307 . S
C784 C783 1.370 . S
C784 H802 0.948 . S
Zn785 N779 2.020 . S
Zn785 O794 2.039 . S
Zn785 O800 2.034 . S
Zn785 O804 2.025 . S
Zn785 O806 2.024 . S
C786 O805 1.246 . S
C786 O806 1.249 . S
N787 C788 1.307 . S
N787 C789 1.333 . S
N787 Zn793 2.020 . S
C788 N787 1.307 . S
C788 C792 1.370 . S
C788 H799 0.948 . S
C789 N787 1.333 . S
C789 C790 1.379 . S
C789 H797 0.952 . S
C790 C789 1.379 . S
C790 C791 1.390 . S
C790 H810 0.949 . S
C791 C790 1.390 . S
C791 C792 1.357 . S
C792 C788 1.370 . S
C792 C791 1.357 . S
C792 H811 0.950 . S
Zn793 N787 2.020 . S
Zn793 O796 2.025 . S
Zn793 O801 2.024 . S
Zn793 O803 2.039 . S
Zn793 O805 2.034 . S
O794 C778 1.251 . S
O794 Zn785 2.039 . S
C795 O800 1.246 . S
C795 O801 1.249 . S
O796 C778 1.254 . S
O796 Zn793 2.025 . S
H797 C789 0.952 . S
H798 C780 0.952 . S
H799 C788 0.948 . S
O800 Zn785 2.034 . S
O800 C795 1.246 . S
O801 Zn793 2.024 . S
O801 C795 1.249 . S
H802 C784 0.948 . S
O803 Zn793 2.039 . S
O803 C807 1.251 . S
O804 Zn785 2.025 . S
O804 C807 1.254 . S
O805 C786 1.246 . S
O805 Zn793 2.034 . S
O806 Zn785 2.024 . S
O806 C786 1.249 . S
C807 O803 1.251 . S
C807 O804 1.254 . S
H808 C781 0.949 . S
H809 C783 0.950 . S
H810 C790 0.949 . S
H811 C792 0.950 . S
C812 O828 1.251 . S
C812 O830 1.254 . S
N813 C814 1.333 . S
N813 C818 1.307 . S
N813 Zn819 2.020 . S
C814 N813 1.333 . S
C814 C815 1.379 . S
C814 H832 0.952 . S
C815 C814 1.379 . S
C815 C816 1.390 . S
C815 H842 0.949 . S
C816 C815 1.390 . S
C816 C817 1.357 . S
C817 C816 1.357 . S
C817 C818 1.370 . S
C817 H843 0.950 . S
C818 N813 1.307 . S
C818 C817 1.370 . S
C818 H836 0.948 . S
Zn819 N813 2.020 . S
Zn819 O828 2.039 . S
Zn819 O834 2.034 . S
Zn819 O838 2.025 . S
Zn819 O840 2.024 . S
C820 O839 1.246 . S
C820 O840 1.249 . S
N821 C822 1.307 . S
N821 C823 1.333 . S
N821 Zn827 2.020 . S
C822 N821 1.307 . S
C822 C826 1.370 . S
C822 H833 0.948 . S
C823 N821 1.333 . S
C823 C824 1.379 . S
C823 H831 0.952 . S
C824 C823 1.379 . S
C824 C825 1.390 . S
C824 H844 0.949 . S
C825 C824 1.390 . S
C825 C826 1.357 . S
C826 C822 1.370 . S
C826 C825 1.357 . S
C826 H845 0.950 . S
Zn827 N821 2.020 . S
Zn827 O830 2.025 . S
Zn827 O835 2.024 . S
Zn827 O837 2.039 . S
Zn827 O839 2.034 . S
O828 C812 1.251 . S
O828 Zn819 2.039 . S
C829 O834 1.246 . S
C829 O835 1.249 . S
O830 C812 1.254 . S
O830 Zn827 2.025 . S
H831 C823 0.952 . S
H832 C814 0.952 . S
H833 C822 0.948 . S
O834 Zn819 2.034 . S
O834 C829 1.246 . S
O835 Zn827 2.024 . S
O835 C829 1.249 . S
H836 C818 0.948 . S
O837 Zn827 2.039 . S
O837 C841 1.251 . S
O838 Zn819 2.025 . S
O838 C841 1.254 . S
O839 C820 1.246 . S
O839 Zn827 2.034 . S
O840 Zn819 2.024 . S
O840 C820 1.249 . S
C841 O837 1.251 . S
C841 O838 1.254 . S
H842 C815 0.949 . S
H843 C817 0.950 . S
H844 C824 0.949 . S
H845 C826 0.950 . S
C846 O862 1.251 . S
C846 O864 1.254 . S
N847 C848 1.333 . S
N847 C852 1.307 . S
N847 Zn853 2.020 . S
C848 N847 1.333 . S
C848 C849 1.379 . S
C848 H866 0.952 . S
C849 C848 1.379 . S
C849 C850 1.390 . S
C849 H876 0.949 . S
C850 C849 1.390 . S
C850 C851 1.357 . S
C851 C850 1.357 . S
C851 C852 1.370 . S
C851 H877 0.950 . S
C852 N847 1.307 . S
C852 C851 1.370 . S
C852 H870 0.948 . S
Zn853 N847 2.020 . S
Zn853 O862 2.039 . S
Zn853 O868 2.034 . S
Zn853 O872 2.025 . S
Zn853 O874 2.024 . S
C854 O873 1.246 . S
C854 O874 1.249 1_655 S
N855 C856 1.307 . S
N855 C857 1.333 1_554 S
N855 Zn861 2.020 . S
C856 N855 1.307 . S
C856 C860 1.370 . S
C856 H867 0.948 . S
C857 N855 1.333 1_556 S
C857 C858 1.389 . S
C857 H865 0.952 . S
C858 C857 1.389 . S
C858 C859 1.384 1_455 S
C858 H878 0.944 1_455 S
C859 C858 1.384 1_655 S
C859 C860 1.350 1_656 S
C860 C856 1.370 . S
C860 C859 1.350 1_454 S
C860 H879 0.950 . S
Zn861 N855 2.020 . S
Zn861 O864 2.025 . S
Zn861 O869 2.024 . S
Zn861 O871 2.039 1_554 S
Zn861 O873 2.034 1_455 S
O862 C846 1.251 . S
O862 Zn853 2.039 . S
C863 O868 1.246 . S
C863 O869 1.249 . S
O864 C846 1.254 . S
O864 Zn861 2.025 . S
H865 C857 0.952 . S
H866 C848 0.952 . S
H867 C856 0.948 . S
O868 Zn853 2.034 . S
O868 C863 1.246 . S
O869 Zn861 2.024 . S
O869 C863 1.249 . S
H870 C852 0.948 . S
O871 Zn861 2.039 1_556 S
O871 C875 1.251 . S
O872 Zn853 2.025 . S
O872 C875 1.254 1_554 S
O873 C854 1.246 . S
O873 Zn861 2.034 1_655 S
O874 Zn853 2.024 . S
O874 C854 1.249 1_455 S
C875 O871 1.251 . S
C875 O872 1.254 1_556 S
H876 C849 0.949 . S
H877 C851 0.950 . S
H878 C858 0.944 1_655 S
H879 C860 0.950 . S
H880 C886 0.930 . S
H881 C889 0.930 . S
H882 C890 0.930 . S
H883 C891 0.930 . S
H884 C894 0.930 . S
H885 C895 0.930 . S
C886 H880 0.930 . S
C886 C887 1.355 . S
C886 C888 1.415 . S
C887 C886 1.355 . S
C887 C889 1.419 . S
C888 C886 1.415 . S
C888 C893 1.425 . S
C888 C895 1.409 . S
C889 H881 0.930 . S
C889 C887 1.419 . S
C889 C890 1.362 . S
C890 H882 0.930 . S
C890 C889 1.362 . S
C890 C893 1.409 . S
C891 H883 0.930 . S
C891 C892 1.355 . S
C891 C893 1.415 . S
C892 C891 1.355 . S
C892 C894 1.419 . S
C893 C888 1.425 . S
C893 C890 1.409 . S
C893 C891 1.415 . S
C894 H884 0.930 . S
C894 C892 1.419 . S
C894 C895 1.362 . S
C895 H885 0.930 . S
C895 C888 1.409 . S
C895 C894 1.362 . S
H896 C902 0.930 . S
H897 C905 0.930 . S
H898 C906 0.930 . S
H899 C907 0.930 . S
H900 C910 0.930 . S
H901 C911 0.930 . S
C902 H896 0.930 . S
C902 C903 1.355 . S
C902 C904 1.415 . S
C903 C902 1.355 . S
C903 C905 1.419 . S
C904 C902 1.415 . S
C904 C909 1.425 . S
C904 C911 1.409 . S
C905 H897 0.930 . S
C905 C903 1.419 . S
C905 C906 1.362 . S
C906 H898 0.930 . S
C906 C905 1.362 . S
C906 C909 1.409 . S
C907 H899 0.930 . S
C907 C908 1.355 . S
C907 C909 1.415 . S
C908 C907 1.355 . S
C908 C910 1.419 . S
C909 C904 1.425 . S
C909 C906 1.409 . S
C909 C907 1.415 . S
C910 H900 0.930 . S
C910 C908 1.419 . S
C910 C911 1.362 . S
C911 H901 0.930 . S
C911 C904 1.409 . S
C911 C910 1.362 . S
H912 C918 0.930 . S
H913 C921 0.930 . S
H914 C922 0.930 . S
H915 C923 0.930 . S
H916 C926 0.930 . S
H917 C927 0.930 . S
C918 H912 0.930 . S
C918 C919 1.355 . S
C918 C920 1.415 . S
C919 C918 1.355 . S
C919 C921 1.419 . S
C920 C918 1.415 . S
C920 C925 1.425 . S
C920 C927 1.409 . S
C921 H913 0.930 . S
C921 C919 1.419 . S
C921 C922 1.362 . S
C922 H914 0.930 . S
C922 C921 1.362 . S
C922 C925 1.409 . S
C923 H915 0.930 . S
C923 C924 1.355 . S
C923 C925 1.415 . S
C924 C923 1.355 . S
C924 C926 1.419 . S
C925 C920 1.425 . S
C925 C922 1.409 . S
C925 C923 1.415 . S
C926 H916 0.930 . S
C926 C924 1.419 . S
C926 C927 1.362 . S
C927 H917 0.930 . S
C927 C920 1.409 . S
C927 C926 1.362 . S
H928 C934 0.930 . S
H929 C937 0.930 . S
H930 C938 0.930 . S
H931 C939 0.930 . S
H932 C942 0.930 . S
H933 C943 0.930 . S
C934 H928 0.930 . S
C934 C935 1.355 . S
C934 C936 1.415 . S
C935 C934 1.355 . S
C935 C937 1.419 . S
C936 C934 1.415 . S
C936 C941 1.425 . S
C936 C943 1.409 . S
C937 H929 0.930 . S
C937 C935 1.419 . S
C937 C938 1.362 . S
C938 H930 0.930 . S
C938 C937 1.362 . S
C938 C941 1.409 . S
C939 H931 0.930 . S
C939 C940 1.355 . S
C939 C941 1.415 . S
C940 C939 1.355 . S
C940 C942 1.419 . S
C941 C936 1.425 . S
C941 C938 1.409 . S
C941 C939 1.415 . S
C942 H932 0.930 . S
C942 C940 1.419 . S
C942 C943 1.362 . S
C943 H933 0.930 . S
C943 C936 1.409 . S
C943 C942 1.362 . S
H944 C950 0.930 . S
H945 C953 0.930 . S
H946 C954 0.930 . S
H947 C955 0.930 . S
H948 C958 0.911 1_655 S
H949 C959 0.930 . S
C950 H944 0.930 . S
C950 C951 1.355 . S
C950 C952 1.415 . S
C951 C950 1.355 . S
C951 C953 1.419 . S
C952 C950 1.415 . S
C952 C957 1.425 . S
C952 C959 1.409 1_455 S
C953 H945 0.930 . S
C953 C951 1.419 . S
C953 C954 1.362 . S
C954 H946 0.930 . S
C954 C953 1.362 . S
C954 C957 1.409 . S
C955 H947 0.930 . S
C955 C956 1.355 . S
C955 C957 1.415 . S
C956 C955 1.355 . S
C956 C958 1.438 . S
C957 C952 1.425 . S
C957 C954 1.409 . S
C957 C955 1.415 . S
C958 H948 0.911 1_455 S
C958 C956 1.438 . S
C958 C959 1.364 1_455 S
C959 H949 0.930 . S
C959 C952 1.409 1_655 S
C959 C958 1.364 1_655 S
H960 C966 0.930 . S
H961 C969 0.930 . S
H962 C970 0.930 . S
H963 C971 0.930 . S
H964 C974 0.930 . S
H965 C975 0.930 . S
C966 H960 0.930 . S
C966 C967 1.355 . S
C966 C968 1.415 . S
C967 C966 1.355 . S
C967 C969 1.419 . S
C968 C966 1.415 . S
C968 C973 1.425 . S
C968 C975 1.409 . S
C969 H961 0.930 . S
C969 C967 1.419 . S
C969 C970 1.362 . S
C970 H962 0.930 . S
C970 C969 1.362 . S
C970 C973 1.409 . S
C971 H963 0.930 . S
C971 C972 1.355 . S
C971 C973 1.415 . S
C972 C971 1.355 . S
C972 C974 1.419 . S
C973 C968 1.425 . S
C973 C970 1.409 . S
C973 C971 1.415 . S
C974 H964 0.930 . S
C974 C972 1.419 . S
C974 C975 1.362 . S
C975 H965 0.930 . S
C975 C968 1.409 . S
C975 C974 1.362 . S
H976 C982 0.930 . S
H977 C985 0.930 . S
H978 C986 0.930 . S
H979 C987 0.930 . S
H980 C990 0.930 . S
H981 C991 0.930 1_554 S
C982 H976 0.930 . S
C982 C983 1.355 . S
C982 C984 1.415 . S
C983 C982 1.355 . S
C983 C985 1.419 . S
C984 C982 1.415 . S
C984 C989 1.425 . S
C984 C991 1.409 . S
C985 H977 0.930 . S
C985 C983 1.419 . S
C985 C986 1.362 . S
C986 H978 0.930 . S
C986 C985 1.362 . S
C986 C989 1.409 . S
C987 H979 0.930 . S
C987 C988 1.355 . S
C987 C989 1.415 . S
C988 C987 1.355 . S
C988 C990 1.419 1_556 S
C989 C984 1.425 . S
C989 C986 1.409 . S
C989 C987 1.415 . S
C990 H980 0.930 . S
C990 C988 1.419 1_554 S
C990 C991 1.362 1_554 S
C991 H981 0.930 1_556 S
C991 C984 1.409 . S
C991 C990 1.362 1_556 S
H992 C998 0.930 . S
H993 C1001 0.930 . S
H994 C1002 0.930 . S
H995 C1003 0.930 . S
H996 C1006 0.930 . S
H997 C1007 0.930 . S
C998 H992 0.930 . S
C998 C999 1.355 . S
C998 C1000 1.415 . S
C999 C998 1.355 . S
C999 C1001 1.419 . S
C1000 C998 1.415 . S
C1000 C1005 1.425 . S
C1000 C1007 1.409 . S
C1001 H993 0.930 . S
C1001 C999 1.419 . S
C1001 C1002 1.362 . S
C1002 H994 0.930 . S
C1002 C1001 1.362 . S
C1002 C1005 1.409 . S
C1003 H995 0.930 . S
C1003 C1004 1.355 . S
C1003 C1005 1.415 . S
C1004 C1003 1.355 . S
C1004 C1006 1.419 . S
C1005 C1000 1.425 . S
C1005 C1002 1.409 . S
C1005 C1003 1.415 . S
C1006 H996 0.930 . S
C1006 C1004 1.419 . S
C1006 C1007 1.362 . S
C1007 H997 0.930 . S
C1007 C1000 1.409 . S
C1007 C1006 1.362 . S
H1008 C1014 0.930 . S
H1009 C1017 0.930 . S
H1010 C1018 0.930 . S
H1011 C1019 0.930 . S
H1012 C1022 0.930 . S
H1013 C1023 0.928 1_565 S
C1014 H1008 0.930 . S
C1014 C1015 1.355 . S
C1014 C1016 1.415 . S
C1015 C1014 1.355 . S
C1015 C1017 1.419 . S
C1016 C1014 1.415 . S
C1016 C1021 1.425 . S
C1016 C1023 1.409 . S
C1017 H1009 0.930 . S
C1017 C1015 1.419 . S
C1017 C1018 1.362 . S
C1018 H1010 0.930 . S
C1018 C1017 1.362 . S
C1018 C1021 1.409 . S
C1019 H1011 0.930 . S
C1019 C1020 1.355 1_545 S
C1019 C1021 1.415 . S
C1020 C1019 1.355 1_565 S
C1020 C1022 1.419 . S
C1021 C1016 1.425 . S
C1021 C1018 1.409 . S
C1021 C1019 1.415 . S
C1022 H1012 0.930 . S
C1022 C1020 1.419 . S
C1022 C1023 1.362 1_565 S
C1023 H1013 0.928 1_545 S
C1023 C1016 1.409 . S
C1023 C1022 1.362 1_545 S
H1024 C1030 0.930 . S
H1025 C1033 0.930 . S
H1026 C1034 0.930 . S
H1027 C1035 0.930 . S
H1028 C1038 0.930 . S
H1029 C1039 0.930 . S
C1030 H1024 0.930 . S
C1030 C1031 1.355 . S
C1030 C1032 1.415 . S
C1031 C1030 1.355 . S
C1031 C1033 1.419 . S
C1032 C1030 1.415 . S
C1032 C1037 1.425 . S
C1032 C1039 1.409 . S
C1033 H1025 0.930 . S
C1033 C1031 1.419 . S
C1033 C1034 1.362 . S
C1034 H1026 0.930 . S
C1034 C1033 1.362 . S
C1034 C1037 1.409 . S
C1035 H1027 0.930 . S
C1035 C1036 1.355 . S
C1035 C1037 1.415 . S
C1036 C1035 1.355 . S
C1036 C1038 1.419 . S
C1037 C1032 1.425 . S
C1037 C1034 1.409 . S
C1037 C1035 1.415 . S
C1038 H1028 0.930 . S
C1038 C1036 1.419 . S
C1038 C1039 1.362 . S
C1039 H1029 0.930 . S
C1039 C1032 1.409 . S
C1039 C1038 1.362 . S
H1040 C1046 0.930 . S
H1041 C1049 0.930 1_565 S
H1042 C1050 0.930 . S
H1043 C1051 0.930 . S
H1044 C1054 0.930 . S
H1045 C1055 0.930 . S
C1046 H1040 0.930 . S
C1046 C1047 1.355 . S
C1046 C1048 1.415 . S
C1047 C1046 1.355 . S
C1047 C1049 1.419 . S
C1048 C1046 1.415 . S
C1048 C1053 1.425 . S
C1048 C1055 1.409 . S
C1049 H1041 0.930 1_545 S
C1049 C1047 1.419 . S
C1049 C1050 1.362 . S
C1050 H1042 0.930 . S
C1050 C1049 1.362 . S
C1050 C1053 1.409 . S
C1051 H1043 0.930 . S
C1051 C1052 1.355 . S
C1051 C1053 1.415 . S
C1052 C1051 1.355 . S
C1052 C1054 1.419 . S
C1053 C1048 1.425 . S
C1053 C1050 1.409 . S
C1053 C1051 1.415 . S
C1054 H1044 0.930 . S
C1054 C1052 1.419 . S
C1054 C1055 1.362 . S
C1055 H1045 0.930 . S
C1055 C1048 1.409 . S
C1055 C1054 1.362 . S
H1056 C1062 0.930 . S
H1057 C1065 0.930 . S
H1058 C1066 0.930 . S
H1059 C1067 0.930 . S
H1060 C1070 0.930 . S
H1061 C1071 0.930 . S
C1062 H1056 0.930 . S
C1062 C1063 1.355 . S
C1062 C1064 1.415 . S
C1063 C1062 1.355 . S
C1063 C1065 1.419 . S
C1064 C1062 1.415 . S
C1064 C1069 1.425 . S
C1064 C1071 1.409 . S
C1065 H1057 0.930 . S
C1065 C1063 1.419 . S
C1065 C1066 1.362 . S
C1066 H1058 0.930 . S
C1066 C1065 1.362 . S
C1066 C1069 1.409 . S
C1067 H1059 0.930 . S
C1067 C1068 1.355 . S
C1067 C1069 1.415 . S
C1068 C1067 1.355 . S
C1068 C1070 1.419 . S
C1069 C1064 1.425 . S
C1069 C1066 1.409 . S
C1069 C1067 1.415 . S
C1070 H1060 0.930 . S
C1070 C1068 1.419 . S
C1070 C1071 1.362 . S
C1071 H1061 0.930 . S
C1071 C1064 1.409 . S
C1071 C1070 1.362 . S
H1072 C1078 0.930 1_565 S
H1073 C1081 0.930 . S
H1074 C1082 0.930 . S
H1075 C1083 0.930 . S
H1076 C1086 0.930 . S
H1077 C1087 0.930 1_565 S
C1078 H1072 0.930 1_545 S
C1078 C1079 1.355 . S
C1078 C1080 1.415 . S
C1079 C1078 1.355 . S
C1079 C1081 1.419 . S
C1080 C1078 1.415 . S
C1080 C1085 1.425 . S
C1080 C1087 1.409 . S
C1081 H1073 0.930 . S
C1081 C1079 1.419 . S
C1081 C1082 1.362 . S
C1082 H1074 0.930 . S
C1082 C1081 1.362 . S
C1082 C1085 1.409 . S
C1083 H1075 0.930 . S
C1083 C1084 1.355 . S
C1083 C1085 1.415 . S
C1084 C1083 1.355 . S
C1084 C1086 1.419 . S
C1085 C1080 1.425 . S
C1085 C1082 1.409 . S
C1085 C1083 1.415 . S
C1086 H1076 0.930 . S
C1086 C1084 1.419 . S
C1086 C1087 1.362 . S
C1087 H1077 0.930 1_545 S
C1087 C1080 1.409 . S
C1087 C1086 1.362 . S
H1088 C1094 0.930 . S
H1089 C1097 0.930 . S
H1090 C1098 0.930 . S
H1091 C1099 0.930 . S
H1092 C1102 0.930 . S
H1093 C1103 0.930 . S
C1094 H1088 0.930 . S
C1094 C1095 1.355 . S
C1094 C1096 1.415 . S
C1095 C1094 1.355 . S
C1095 C1097 1.419 . S
C1096 C1094 1.415 . S
C1096 C1101 1.425 . S
C1096 C1103 1.409 . S
C1097 H1089 0.930 . S
C1097 C1095 1.419 . S
C1097 C1098 1.362 . S
C1098 H1090 0.930 . S
C1098 C1097 1.362 . S
C1098 C1101 1.409 . S
C1099 H1091 0.930 . S
C1099 C1100 1.355 . S
C1099 C1101 1.415 . S
C1100 C1099 1.355 . S
C1100 C1102 1.419 . S
C1101 C1096 1.425 . S
C1101 C1098 1.409 . S
C1101 C1099 1.415 . S
C1102 H1092 0.930 . S
C1102 C1100 1.419 . S
C1102 C1103 1.362 . S
C1103 H1093 0.930 . S
C1103 C1096 1.409 . S
C1103 C1102 1.362 . S
H1104 C1110 0.930 . S
H1105 C1113 0.930 . S
H1106 C1114 0.930 . S
H1107 C1115 0.930 . S
H1108 C1118 0.927 1_545 S
H1109 C1119 0.930 . S
C1110 H1104 0.930 . S
C1110 C1111 1.355 . S
C1110 C1112 1.420 . S
C1111 C1110 1.355 . S
C1111 C1113 1.419 1_545 S
C1112 C1110 1.420 . S
C1112 C1117 1.415 1_545 S
C1112 C1119 1.414 . S
C1113 H1105 0.930 . S
C1113 C1111 1.419 1_565 S
C1113 C1114 1.362 . S
C1114 H1106 0.930 . S
C1114 C1113 1.362 . S
C1114 C1117 1.409 . S
C1115 H1107 0.930 . S
C1115 C1116 1.355 . S
C1115 C1117 1.415 . S
C1116 C1115 1.355 . S
C1116 C1118 1.425 . S
C1117 C1112 1.415 1_565 S
C1117 C1114 1.409 . S
C1117 C1115 1.415 . S
C1118 H1108 0.927 1_565 S
C1118 C1116 1.425 . S
C1118 C1119 1.359 1_565 S
C1119 H1109 0.930 . S
C1119 C1112 1.414 . S
C1119 C1118 1.359 1_545 S
H1120 C1126 0.930 . S
H1121 C1129 0.930 . S
H1122 C1130 0.930 . S
H1123 C1131 0.930 . S
H1124 C1134 0.930 . S
H1125 C1135 0.930 . S
C1126 H1120 0.930 . S
C1126 C1127 1.355 . S
C1126 C1128 1.415 . S
C1127 C1126 1.355 . S
C1127 C1129 1.419 . S
C1128 C1126 1.415 . S
C1128 C1133 1.425 . S
C1128 C1135 1.409 . S
C1129 H1121 0.930 . S
C1129 C1127 1.419 . S
C1129 C1130 1.362 . S
C1130 H1122 0.930 . S
C1130 C1129 1.362 . S
C1130 C1133 1.409 . S
C1131 H1123 0.930 . S
C1131 C1132 1.355 . S
C1131 C1133 1.415 . S
C1132 C1131 1.355 . S
C1132 C1134 1.419 . S
C1133 C1128 1.425 . S
C1133 C1130 1.409 . S
C1133 C1131 1.415 . S
C1134 H1124 0.930 . S
C1134 C1132 1.419 . S
C1134 C1135 1.362 . S
C1135 H1125 0.930 . S
C1135 C1128 1.409 . S
C1135 C1134 1.362 . S
H1136 C1142 0.930 . S
H1137 C1145 0.930 . S
H1138 C1146 0.930 . S
H1139 C1147 0.930 . S
H1140 C1150 0.930 . S
H1141 C1151 0.930 . S
C1142 H1136 0.930 . S
C1142 C1143 1.355 . S
C1142 C1144 1.415 . S
C1143 C1142 1.355 . S
C1143 C1145 1.419 . S
C1144 C1142 1.415 . S
C1144 C1149 1.425 . S
C1144 C1151 1.409 1_554 S
C1145 H1137 0.930 . S
C1145 C1143 1.419 . S
C1145 C1146 1.362 . S
C1146 H1138 0.930 . S
C1146 C1145 1.362 . S
C1146 C1149 1.409 . S
C1147 H1139 0.930 . S
C1147 C1148 1.355 1_554 S
C1147 C1149 1.415 . S
C1148 C1147 1.355 1_556 S
C1148 C1150 1.419 . S
C1149 C1144 1.425 . S
C1149 C1146 1.409 . S
C1149 C1147 1.415 . S
C1150 H1140 0.930 . S
C1150 C1148 1.419 . S
C1150 C1151 1.362 . S
C1151 H1141 0.930 . S
C1151 C1144 1.409 1_556 S
C1151 C1150 1.362 . S
H1152 C1158 0.930 . S
H1153 C1161 0.930 . S
H1154 C1162 0.930 . S
H1155 C1163 0.930 . S
H1156 C1166 0.930 . S
H1157 C1167 0.930 . S
C1158 H1152 0.930 . S
C1158 C1159 1.355 . S
C1158 C1160 1.415 . S
C1159 C1158 1.355 . S
C1159 C1161 1.419 . S
C1160 C1158 1.415 . S
C1160 C1165 1.425 . S
C1160 C1167 1.409 . S
C1161 H1153 0.930 . S
C1161 C1159 1.419 . S
C1161 C1162 1.362 . S
C1162 H1154 0.930 . S
C1162 C1161 1.362 . S
C1162 C1165 1.409 . S
C1163 H1155 0.930 . S
C1163 C1164 1.355 . S
C1163 C1165 1.415 . S
C1164 C1163 1.355 . S
C1164 C1166 1.419 . S
C1165 C1160 1.425 . S
C1165 C1162 1.409 . S
C1165 C1163 1.415 . S
C1166 H1156 0.930 . S
C1166 C1164 1.419 . S
C1166 C1167 1.362 . S
C1167 H1157 0.930 . S
C1167 C1160 1.409 . S
C1167 C1166 1.362 . S
H1168 C1174 0.930 . S
H1169 C1177 0.930 . S
H1170 C1178 0.930 . S
H1171 C1179 0.930 . S
H1172 C1182 0.930 . S
H1173 C1183 0.930 . S
C1174 H1168 0.930 . S
C1174 C1175 1.355 . S
C1174 C1176 1.415 . S
C1175 C1174 1.355 . S
C1175 C1177 1.419 . S
C1176 C1174 1.415 . S
C1176 C1181 1.425 . S
C1176 C1183 1.409 . S
C1177 H1169 0.930 . S
C1177 C1175 1.419 . S
C1177 C1178 1.362 . S
C1178 H1170 0.930 . S
C1178 C1177 1.362 . S
C1178 C1181 1.409 . S
C1179 H1171 0.930 . S
C1179 C1180 1.355 . S
C1179 C1181 1.415 . S
C1180 C1179 1.355 . S
C1180 C1182 1.419 . S
C1181 C1176 1.425 . S
C1181 C1178 1.409 . S
C1181 C1179 1.415 . S
C1182 H1172 0.930 . S
C1182 C1180 1.419 . S
C1182 C1183 1.362 . S
C1183 H1173 0.930 . S
C1183 C1176 1.409 . S
C1183 C1182 1.362 . S
H1184 C1190 0.930 . S
H1185 C1193 0.930 . S
H1186 C1194 0.930 . S
H1187 C1195 0.930 . S
H1188 C1198 0.930 . S
H1189 C1199 0.930 . S
C1190 H1184 0.930 . S
C1190 C1191 1.355 . S
C1190 C1192 1.415 . S
C1191 C1190 1.355 . S
C1191 C1193 1.419 . S
C1192 C1190 1.415 . S
C1192 C1197 1.425 . S
C1192 C1199 1.409 . S
C1193 H1185 0.930 . S
C1193 C1191 1.419 . S
C1193 C1194 1.362 . S
C1194 H1186 0.930 . S
C1194 C1193 1.362 . S
C1194 C1197 1.409 . S
C1195 H1187 0.930 . S
C1195 C1196 1.355 . S
C1195 C1197 1.415 . S
C1196 C1195 1.355 . S
C1196 C1198 1.419 . S
C1197 C1192 1.425 . S
C1197 C1194 1.409 . S
C1197 C1195 1.415 . S
C1198 H1188 0.930 . S
C1198 C1196 1.419 . S
C1198 C1199 1.362 . S
C1199 H1189 0.930 . S
C1199 C1192 1.409 . S
C1199 C1198 1.362 . S
H1200 C1206 0.930 . S
H1201 C1209 0.930 . S
H1202 C1210 0.930 . S
H1203 C1211 0.930 . S
H1204 C1214 0.930 . S
H1205 C1215 0.930 . S
C1206 H1200 0.930 . S
C1206 C1207 1.355 . S
C1206 C1208 1.415 . S
C1207 C1206 1.355 . S
C1207 C1209 1.419 . S
C1208 C1206 1.415 . S
C1208 C1213 1.425 . S
C1208 C1215 1.409 . S
C1209 H1201 0.930 . S
C1209 C1207 1.419 . S
C1209 C1210 1.362 . S
C1210 H1202 0.930 . S
C1210 C1209 1.362 . S
C1210 C1213 1.409 . S
C1211 H1203 0.930 . S
C1211 C1212 1.355 . S
C1211 C1213 1.415 . S
C1212 C1211 1.355 . S
C1212 C1214 1.419 . S
C1213 C1208 1.425 . S
C1213 C1210 1.409 . S
C1213 C1211 1.415 . S
C1214 H1204 0.930 . S
C1214 C1212 1.419 . S
C1214 C1215 1.362 . S
C1215 H1205 0.930 . S
C1215 C1208 1.409 . S
C1215 C1214 1.362 . S
H1216 C1222 0.930 . S
H1217 C1225 0.930 . S
H1218 C1226 0.930 1_545 S
H1219 C1227 0.930 1_545 S
H1220 C1230 0.930 . S
H1221 C1231 0.930 . S
C1222 H1216 0.930 . S
C1222 C1223 1.355 . S
C1222 C1224 1.415 . S
C1223 C1222 1.355 . S
C1223 C1225 1.419 . S
C1224 C1222 1.415 . S
C1224 C1229 1.425 . S
C1224 C1231 1.409 . S
C1225 H1217 0.930 . S
C1225 C1223 1.419 . S
C1225 C1226 1.362 . S
C1226 H1218 0.930 1_565 S
C1226 C1225 1.362 . S
C1226 C1229 1.409 . S
C1227 H1219 0.930 1_565 S
C1227 C1228 1.355 . S
C1227 C1229 1.415 . S
C1228 C1227 1.355 . S
C1228 C1230 1.419 . S
C1229 C1224 1.425 . S
C1229 C1226 1.409 . S
C1229 C1227 1.415 . S
C1230 H1220 0.930 . S
C1230 C1228 1.419 . S
C1230 C1231 1.362 . S
C1231 H1221 0.930 . S
C1231 C1224 1.409 . S
C1231 C1230 1.362 . S
H1232 C1238 0.930 . S
H1233 C1241 0.930 . S
H1234 C1242 0.930 . S
H1235 C1243 0.930 . S
H1236 C1246 0.930 . S
H1237 C1247 0.930 . S
C1238 H1232 0.930 . S
C1238 C1239 1.355 . S
C1238 C1240 1.415 . S
C1239 C1238 1.355 . S
C1239 C1241 1.419 . S
C1240 C1238 1.415 . S
C1240 C1245 1.425 . S
C1240 C1247 1.409 . S
C1241 H1233 0.930 . S
C1241 C1239 1.419 . S
C1241 C1242 1.362 . S
C1242 H1234 0.930 . S
C1242 C1241 1.362 . S
C1242 C1245 1.409 . S
C1243 H1235 0.930 . S
C1243 C1244 1.355 . S
C1243 C1245 1.415 . S
C1244 C1243 1.355 . S
C1244 C1246 1.419 . S
C1245 C1240 1.425 . S
C1245 C1242 1.409 . S
C1245 C1243 1.415 . S
C1246 H1236 0.930 . S
C1246 C1244 1.419 . S
C1246 C1247 1.362 . S
C1247 H1237 0.930 . S
C1247 C1240 1.409 . S
C1247 C1246 1.362 . S
H1248 C1254 0.930 . S
H1249 C1257 0.930 . S
H1250 C1258 0.930 . S
H1251 C1259 0.930 . S
H1252 C1262 0.930 . S
H1253 C1263 0.930 . S
C1254 H1248 0.930 . S
C1254 C1255 1.355 . S
C1254 C1256 1.415 . S
C1255 C1254 1.355 . S
C1255 C1257 1.419 . S
C1256 C1254 1.415 . S
C1256 C1261 1.425 . S
C1256 C1263 1.409 . S
C1257 H1249 0.930 . S
C1257 C1255 1.419 . S
C1257 C1258 1.362 . S
C1258 H1250 0.930 . S
C1258 C1257 1.362 . S
C1258 C1261 1.409 . S
C1259 H1251 0.930 . S
C1259 C1260 1.355 . S
C1259 C1261 1.415 . S
C1260 C1259 1.355 . S
C1260 C1262 1.419 . S
C1261 C1256 1.425 . S
C1261 C1258 1.409 . S
C1261 C1259 1.415 . S
C1262 H1252 0.930 . S
C1262 C1260 1.419 . S
C1262 C1263 1.362 . S
C1263 H1253 0.930 . S
C1263 C1256 1.409 . S
C1263 C1262 1.362 . S
H1264 C1270 0.930 . S
H1265 C1273 0.930 . S
H1266 C1274 0.930 . S
H1267 C1275 0.930 . S
H1268 C1278 0.930 1_554 S
H1269 C1279 0.930 . S
C1270 H1264 0.930 . S
C1270 C1271 1.355 1_455 S
C1270 C1272 1.415 . S
C1271 C1270 1.355 1_655 S
C1271 C1273 1.419 . S
C1272 C1270 1.415 . S
C1272 C1277 1.425 . S
C1272 C1279 1.409 . S
C1273 H1265 0.930 . S
C1273 C1271 1.419 . S
C1273 C1274 1.362 . S
C1274 H1266 0.930 . S
C1274 C1273 1.362 . S
C1274 C1277 1.409 1_655 S
C1275 H1267 0.930 . S
C1275 C1276 1.355 . S
C1275 C1277 1.415 . S
C1276 C1275 1.355 . S
C1276 C1278 1.419 . S
C1277 C1272 1.425 . S
C1277 C1274 1.409 1_455 S
C1277 C1275 1.415 . S
C1278 H1268 0.930 1_556 S
C1278 C1276 1.419 . S
C1278 C1279 1.362 . S
C1279 H1269 0.930 . S
C1279 C1272 1.409 . S
C1279 C1278 1.362 . S
H1280 C1286 0.930 . S
H1281 C1289 0.930 . S
H1282 C1290 0.930 . S
H1283 C1291 0.930 . S
H1284 C1294 0.930 . S
H1285 C1295 0.930 . S
C1286 H1280 0.930 . S
C1286 C1287 1.355 . S
C1286 C1288 1.415 . S
C1287 C1286 1.355 . S
C1287 C1289 1.419 . S
C1288 C1286 1.415 . S
C1288 C1293 1.425 . S
C1288 C1295 1.409 . S
C1289 H1281 0.930 . S
C1289 C1287 1.419 . S
C1289 C1290 1.362 . S
C1290 H1282 0.930 . S
C1290 C1289 1.362 . S
C1290 C1293 1.409 . S
C1291 H1283 0.930 . S
C1291 C1292 1.355 . S
C1291 C1293 1.415 . S
C1292 C1291 1.355 . S
C1292 C1294 1.419 . S
C1293 C1288 1.425 . S
C1293 C1290 1.409 . S
C1293 C1291 1.415 . S
C1294 H1284 0.930 . S
C1294 C1292 1.419 . S
C1294 C1295 1.362 . S
C1295 H1285 0.930 . S
C1295 C1288 1.409 . S
C1295 C1294 1.362 . S
H1296 C1302 0.930 . S
H1297 C1305 0.930 . S
H1298 C1306 0.930 . S
H1299 C1307 0.930 . S
H1300 C1310 0.930 . S
H1301 C1311 0.930 . S
C1302 H1296 0.930 . S
C1302 C1303 1.355 . S
C1302 C1304 1.415 . S
C1303 C1302 1.355 . S
C1303 C1305 1.419 . S
C1304 C1302 1.415 . S
C1304 C1309 1.425 . S
C1304 C1311 1.409 . S
C1305 H1297 0.930 . S
C1305 C1303 1.419 . S
C1305 C1306 1.362 . S
C1306 H1298 0.930 . S
C1306 C1305 1.362 . S
C1306 C1309 1.409 . S
C1307 H1299 0.930 . S
C1307 C1308 1.355 . S
C1307 C1309 1.415 . S
C1308 C1307 1.355 . S
C1308 C1310 1.419 . S
C1309 C1304 1.425 . S
C1309 C1306 1.409 . S
C1309 C1307 1.415 . S
C1310 H1300 0.930 . S
C1310 C1308 1.419 . S
C1310 C1311 1.362 . S
C1311 H1301 0.930 . S
C1311 C1304 1.409 . S
C1311 C1310 1.362 . S
H1312 C1318 0.930 . S
H1313 C1321 0.930 . S
H1314 C1322 0.930 . S
H1315 C1323 0.930 . S
H1316 C1326 0.930 . S
H1317 C1327 0.930 . S
C1318 H1312 0.930 . S
C1318 C1319 1.355 . S
C1318 C1320 1.415 . S
C1319 C1318 1.355 . S
C1319 C1321 1.419 . S
C1320 C1318 1.415 . S
C1320 C1325 1.425 . S
C1320 C1327 1.409 . S
C1321 H1313 0.930 . S
C1321 C1319 1.419 . S
C1321 C1322 1.362 . S
C1322 H1314 0.930 . S
C1322 C1321 1.362 . S
C1322 C1325 1.409 . S
C1323 H1315 0.930 . S
C1323 C1324 1.355 . S
C1323 C1325 1.415 . S
C1324 C1323 1.355 . S
C1324 C1326 1.419 . S
C1325 C1320 1.425 . S
C1325 C1322 1.409 . S
C1325 C1323 1.415 . S
C1326 H1316 0.930 . S
C1326 C1324 1.419 . S
C1326 C1327 1.362 . S
C1327 H1317 0.930 . S
C1327 C1320 1.409 . S
C1327 C1326 1.362 . S
H1328 C1334 0.930 . S
H1329 C1337 0.930 . S
H1330 C1338 0.930 . S
H1331 C1339 0.930 . S
H1332 C1342 0.930 . S
H1333 C1343 0.930 . S
C1334 H1328 0.930 . S
C1334 C1335 1.355 . S
C1334 C1336 1.415 . S
C1335 C1334 1.355 . S
C1335 C1337 1.419 . S
C1336 C1334 1.415 . S
C1336 C1341 1.425 . S
C1336 C1343 1.409 . S
C1337 H1329 0.930 . S
C1337 C1335 1.419 . S
C1337 C1338 1.362 . S
C1338 H1330 0.930 . S
C1338 C1337 1.362 . S
C1338 C1341 1.409 . S
C1339 H1331 0.930 . S
C1339 C1340 1.355 . S
C1339 C1341 1.415 . S
C1340 C1339 1.355 . S
C1340 C1342 1.419 . S
C1341 C1336 1.425 . S
C1341 C1338 1.409 . S
C1341 C1339 1.415 . S
C1342 H1332 0.930 . S
C1342 C1340 1.419 . S
C1342 C1343 1.362 . S
C1343 H1333 0.930 . S
C1343 C1336 1.409 . S
C1343 C1342 1.362 . S
H1344 C1350 0.930 . S
H1345 C1353 0.930 . S
H1346 C1354 0.930 . S
H1347 C1355 0.930 . S
H1348 C1358 0.930 . S
H1349 C1359 0.930 . S
C1350 H1344 0.930 . S
C1350 C1351 1.355 . S
C1350 C1352 1.415 . S
C1351 C1350 1.355 . S
C1351 C1353 1.419 . S
C1352 C1350 1.415 . S
C1352 C1357 1.425 . S
C1352 C1359 1.409 . S
C1353 H1345 0.930 . S
C1353 C1351 1.419 . S
C1353 C1354 1.362 . S
C1354 H1346 0.930 . S
C1354 C1353 1.362 . S
C1354 C1357 1.409 . S
C1355 H1347 0.930 . S
C1355 C1356 1.355 . S
C1355 C1357 1.415 . S
C1356 C1355 1.355 . S
C1356 C1358 1.419 . S
C1357 C1352 1.425 . S
C1357 C1354 1.409 . S
C1357 C1355 1.415 . S
C1358 H1348 0.930 . S
C1358 C1356 1.419 . S
C1358 C1359 1.362 . S
C1359 H1349 0.930 . S
C1359 C1352 1.409 . S
C1359 C1358 1.362 . S
H1360 C1366 0.930 . S
H1361 C1369 0.930 . S
H1362 C1370 0.930 . S
H1363 C1371 0.930 . S
H1364 C1374 0.930 . S
H1365 C1375 0.930 . S
C1366 H1360 0.930 . S
C1366 C1367 1.355 . S
C1366 C1368 1.415 . S
C1367 C1366 1.355 . S
C1367 C1369 1.419 . S
C1368 C1366 1.415 . S
C1368 C1373 1.425 . S
C1368 C1375 1.409 . S
C1369 H1361 0.930 . S
C1369 C1367 1.419 . S
C1369 C1370 1.362 . S
C1370 H1362 0.930 . S
C1370 C1369 1.362 . S
C1370 C1373 1.409 . S
C1371 H1363 0.930 . S
C1371 C1372 1.355 . S
C1371 C1373 1.415 . S
C1372 C1371 1.355 . S
C1372 C1374 1.419 . S
C1373 C1368 1.425 . S
C1373 C1370 1.409 . S
C1373 C1371 1.415 . S
C1374 H1364 0.930 . S
C1374 C1372 1.419 . S
C1374 C1375 1.362 . S
C1375 H1365 0.930 . S
C1375 C1368 1.409 . S
C1375 C1374 1.362 . S
H1376 C1382 0.930 . S
H1377 C1385 0.930 . S
H1378 C1386 0.930 . S
H1379 C1387 0.930 . S
H1380 C1390 0.930 . S
H1381 C1391 0.930 . S
C1382 H1376 0.930 . S
C1382 C1383 1.355 . S
C1382 C1384 1.415 . S
C1383 C1382 1.355 . S
C1383 C1385 1.419 . S
C1384 C1382 1.415 . S
C1384 C1389 1.425 . S
C1384 C1391 1.409 . S
C1385 H1377 0.930 . S
C1385 C1383 1.419 . S
C1385 C1386 1.362 . S
C1386 H1378 0.930 . S
C1386 C1385 1.362 . S
C1386 C1389 1.409 . S
C1387 H1379 0.930 . S
C1387 C1388 1.355 . S
C1387 C1389 1.415 . S
C1388 C1387 1.355 . S
C1388 C1390 1.419 . S
C1389 C1384 1.425 . S
C1389 C1386 1.409 . S
C1389 C1387 1.415 . S
C1390 H1380 0.930 . S
C1390 C1388 1.419 . S
C1390 C1391 1.362 . S
C1391 H1381 0.930 . S
C1391 C1384 1.409 . S
C1391 C1390 1.362 . S
H1392 C1398 0.930 . S
H1393 C1401 0.930 . S
H1394 C1402 0.922 1_465 S
H1395 C1403 0.930 . S
H1396 C1406 0.930 . S
H1397 C1407 0.930 . S
C1398 H1392 0.930 . S
C1398 C1399 1.355 . S
C1398 C1400 1.415 . S
C1399 C1398 1.355 . S
C1399 C1401 1.419 1_545 S
C1400 C1398 1.415 . S
C1400 C1405 1.425 . S
C1400 C1407 1.409 . S
C1401 H1393 0.930 . S
C1401 C1399 1.419 1_565 S
C1401 C1402 1.359 1_565 S
C1402 H1394 0.922 1_645 S
C1402 C1401 1.359 1_545 S
C1402 C1405 1.422 . S
C1403 H1395 0.930 . S
C1403 C1404 1.355 1_455 S
C1403 C1405 1.415 1_455 S
C1404 C1403 1.355 1_655 S
C1404 C1406 1.419 . S
C1405 C1400 1.425 . S
C1405 C1402 1.422 . S
C1405 C1403 1.415 1_655 S
C1406 H1396 0.930 . S
C1406 C1404 1.419 . S
C1406 C1407 1.362 . S
C1407 H1397 0.930 . S
C1407 C1400 1.409 . S
C1407 C1406 1.362 . S
H1408 C1414 0.930 . S
H1409 C1417 0.930 . S
H1410 C1418 0.930 . S
H1411 C1419 0.930 . S
H1412 C1422 0.930 . S
H1413 C1423 0.930 . S
C1414 H1408 0.930 . S
C1414 C1415 1.355 . S
C1414 C1416 1.415 . S
C1415 C1414 1.355 . S
C1415 C1417 1.419 . S
C1416 C1414 1.415 . S
C1416 C1421 1.425 . S
C1416 C1423 1.409 . S
C1417 H1409 0.930 . S
C1417 C1415 1.419 . S
C1417 C1418 1.362 . S
C1418 H1410 0.930 . S
C1418 C1417 1.362 . S
C1418 C1421 1.409 . S
C1419 H1411 0.930 . S
C1419 C1420 1.355 . S
C1419 C1421 1.415 . S
C1420 C1419 1.355 . S
C1420 C1422 1.419 . S
C1421 C1416 1.425 . S
C1421 C1418 1.409 . S
C1421 C1419 1.415 . S
C1422 H1412 0.930 . S
C1422 C1420 1.419 . S
C1422 C1423 1.362 . S
C1423 H1413 0.930 . S
C1423 C1416 1.409 . S
C1423 C1422 1.362 . S
H1424 C1430 0.930 1_565 S
H1425 C1433 0.930 . S
H1426 C1434 0.930 . S
H1427 C1435 0.930 . S
H1428 C1438 0.930 . S
H1429 C1439 0.930 . S
C1430 H1424 0.930 1_545 S
C1430 C1431 1.355 . S
C1430 C1432 1.415 . S
C1431 C1430 1.355 . S
C1431 C1433 1.419 . S
C1432 C1430 1.415 . S
C1432 C1437 1.425 . S
C1432 C1439 1.409 1_545 S
C1433 H1425 0.930 . S
C1433 C1431 1.419 . S
C1433 C1434 1.362 . S
C1434 H1426 0.930 . S
C1434 C1433 1.362 . S
C1434 C1437 1.409 . S
C1435 H1427 0.930 . S
C1435 C1436 1.355 . S
C1435 C1437 1.415 . S
C1436 C1435 1.355 . S
C1436 C1438 1.419 1_545 S
C1437 C1432 1.425 . S
C1437 C1434 1.409 . S
C1437 C1435 1.415 . S
C1438 H1428 0.930 . S
C1438 C1436 1.419 1_565 S
C1438 C1439 1.362 . S
C1439 H1429 0.930 . S
C1439 C1432 1.409 1_565 S
C1439 C1438 1.362 . S
H1440 C1446 0.930 . S
H1441 C1449 0.930 . S
H1442 C1450 0.930 . S
H1443 C1451 0.930 . S
H1444 C1454 0.930 . S
H1445 C1455 0.930 . S
C1446 H1440 0.930 . S
C1446 C1447 1.355 . S
C1446 C1448 1.415 . S
C1447 C1446 1.355 . S
C1447 C1449 1.419 . S
C1448 C1446 1.415 . S
C1448 C1453 1.425 . S
C1448 C1455 1.409 . S
C1449 H1441 0.930 . S
C1449 C1447 1.419 . S
C1449 C1450 1.362 . S
C1450 H1442 0.930 . S
C1450 C1449 1.362 . S
C1450 C1453 1.409 . S
C1451 H1443 0.930 . S
C1451 C1452 1.355 . S
C1451 C1453 1.415 . S
C1452 C1451 1.355 . S
C1452 C1454 1.419 . S
C1453 C1448 1.425 . S
C1453 C1450 1.409 . S
C1453 C1451 1.415 . S
C1454 H1444 0.930 . S
C1454 C1452 1.419 . S
C1454 C1455 1.362 . S
C1455 H1445 0.930 . S
C1455 C1448 1.409 . S
C1455 C1454 1.362 . S
H1456 C1462 0.930 . S
H1457 C1465 0.930 . S
H1458 C1466 0.930 . S
H1459 C1467 0.930 1_545 S
H1460 C1470 0.930 . S
H1461 C1471 0.930 . S
C1462 H1456 0.930 . S
C1462 C1463 1.355 1_565 S
C1462 C1464 1.415 . S
C1463 C1462 1.355 1_545 S
C1463 C1465 1.419 . S
C1464 C1462 1.415 . S
C1464 C1469 1.394 1_565 S
C1464 C1471 1.409 . S
C1465 H1457 0.930 . S
C1465 C1463 1.419 . S
C1465 C1466 1.362 . S
C1466 H1458 0.930 . S
C1466 C1465 1.362 . S
C1466 C1469 1.444 . S
C1467 H1459 0.930 1_565 S
C1467 C1468 1.355 . S
C1467 C1469 1.411 1_565 S
C1468 C1467 1.355 . S
C1468 C1470 1.419 . S
C1469 C1464 1.394 1_545 S
C1469 C1466 1.444 . S
C1469 C1467 1.411 1_545 S
C1470 H1460 0.930 . S
C1470 C1468 1.419 . S
C1470 C1471 1.362 . S
C1471 H1461 0.930 . S
C1471 C1464 1.409 . S
C1471 C1470 1.362 . S
H1472 C1478 0.930 . S
H1473 C1481 0.930 . S
H1474 C1482 0.930 . S
H1475 C1483 0.930 . S
H1476 C1486 0.930 . S
H1477 C1487 0.930 . S
C1478 H1472 0.930 . S
C1478 C1479 1.355 . S
C1478 C1480 1.415 . S
C1479 C1478 1.355 . S
C1479 C1481 1.419 . S
C1480 C1478 1.415 . S
C1480 C1485 1.425 . S
C1480 C1487 1.409 . S
C1481 H1473 0.930 . S
C1481 C1479 1.419 . S
C1481 C1482 1.362 . S
C1482 H1474 0.930 . S
C1482 C1481 1.362 . S
C1482 C1485 1.409 . S
C1483 H1475 0.930 . S
C1483 C1484 1.355 . S
C1483 C1485 1.415 . S
C1484 C1483 1.355 . S
C1484 C1486 1.419 . S
C1485 C1480 1.425 . S
C1485 C1482 1.409 . S
C1485 C1483 1.415 . S
C1486 H1476 0.930 . S
C1486 C1484 1.419 . S
C1486 C1487 1.362 . S
C1487 H1477 0.930 . S
C1487 C1480 1.409 . S
C1487 C1486 1.362 . S
H1488 C1494 0.930 1_565 S
H1489 C1497 0.930 . S
H1490 C1498 0.930 . S
H1491 C1499 0.930 . S
H1492 C1502 0.930 . S
H1493 C1503 0.930 1_565 S
C1494 H1488 0.930 1_545 S
C1494 C1495 1.355 . S
C1494 C1496 1.415 . S
C1495 C1494 1.355 . S
C1495 C1497 1.419 . S
C1496 C1494 1.415 . S
C1496 C1501 1.425 . S
C1496 C1503 1.409 . S
C1497 H1489 0.930 . S
C1497 C1495 1.419 . S
C1497 C1498 1.362 . S
C1498 H1490 0.930 . S
C1498 C1497 1.362 . S
C1498 C1501 1.409 . S
C1499 H1491 0.930 . S
C1499 C1500 1.355 . S
C1499 C1501 1.415 . S
C1500 C1499 1.355 . S
C1500 C1502 1.419 . S
C1501 C1496 1.425 . S
C1501 C1498 1.409 . S
C1501 C1499 1.415 . S
C1502 H1492 0.930 . S
C1502 C1500 1.419 . S
C1502 C1503 1.362 . S
C1503 H1493 0.930 1_545 S
C1503 C1496 1.409 . S
C1503 C1502 1.362 . S
H1504 C1510 0.930 . S
H1505 C1513 0.930 . S
H1506 C1514 0.930 . S
H1507 C1515 0.930 . S
H1508 C1518 0.930 . S
H1509 C1519 0.930 . S
C1510 H1504 0.930 . S
C1510 C1511 1.355 . S
C1510 C1512 1.415 . S
C1511 C1510 1.355 . S
C1511 C1513 1.419 . S
C1512 C1510 1.415 . S
C1512 C1517 1.425 . S
C1512 C1519 1.409 . S
C1513 H1505 0.930 . S
C1513 C1511 1.419 . S
C1513 C1514 1.362 . S
C1514 H1506 0.930 . S
C1514 C1513 1.362 . S
C1514 C1517 1.409 . S
C1515 H1507 0.930 . S
C1515 C1516 1.355 . S
C1515 C1517 1.415 . S
C1516 C1515 1.355 . S
C1516 C1518 1.419 . S
C1517 C1512 1.425 . S
C1517 C1514 1.409 . S
C1517 C1515 1.415 . S
C1518 H1508 0.930 . S
C1518 C1516 1.419 . S
C1518 C1519 1.362 . S
C1519 H1509 0.930 . S
C1519 C1512 1.409 . S
C1519 C1518 1.362 . S
H1520 C1526 0.930 . S
H1521 C1529 0.930 1_556 S
H1522 C1530 0.930 1_556 S
H1523 C1531 0.930 . S
H1524 C1534 0.930 . S
H1525 C1535 0.930 . S
C1526 H1520 0.930 . S
C1526 C1527 1.355 . S
C1526 C1528 1.415 . S
C1527 C1526 1.355 . S
C1527 C1529 1.419 . S
C1528 C1526 1.415 . S
C1528 C1533 1.425 . S
C1528 C1535 1.409 . S
C1529 H1521 0.930 1_554 S
C1529 C1527 1.419 . S
C1529 C1530 1.362 . S
C1530 H1522 0.930 1_554 S
C1530 C1529 1.362 . S
C1530 C1533 1.409 . S
C1531 H1523 0.930 . S
C1531 C1532 1.355 . S
C1531 C1533 1.415 . S
C1532 C1531 1.355 . S
C1532 C1534 1.419 . S
C1533 C1528 1.425 . S
C1533 C1530 1.409 . S
C1533 C1531 1.415 . S
C1534 H1524 0.930 . S
C1534 C1532 1.419 . S
C1534 C1535 1.362 . S
C1535 H1525 0.930 . S
C1535 C1528 1.409 . S
C1535 C1534 1.362 . S
H1536 C1542 0.930 . S
H1537 C1545 0.930 . S
H1538 C1546 0.930 . S
H1539 C1547 0.930 . S
H1540 C1550 0.930 . S
H1541 C1551 0.930 . S
C1542 H1536 0.930 . S
C1542 C1543 1.355 1_556 S
C1542 C1544 1.415 . S
C1543 C1542 1.355 1_554 S
C1543 C1545 1.419 . S
C1544 C1542 1.415 . S
C1544 C1549 1.425 1_556 S
C1544 C1551 1.409 . S
C1545 H1537 0.930 . S
C1545 C1543 1.419 . S
C1545 C1546 1.362 . S
C1546 H1538 0.930 . S
C1546 C1545 1.362 . S
C1546 C1549 1.409 . S
C1547 H1539 0.930 . S
C1547 C1548 1.355 . S
C1547 C1549 1.415 . S
C1548 C1547 1.355 . S
C1548 C1550 1.419 1_554 S
C1549 C1544 1.425 1_554 S
C1549 C1546 1.409 . S
C1549 C1547 1.415 . S
C1550 H1540 0.930 . S
C1550 C1548 1.419 1_556 S
C1550 C1551 1.362 . S
C1551 H1541 0.930 . S
C1551 C1544 1.409 . S
C1551 C1550 1.362 . S
H1552 C1558 0.930 . S
H1553 C1561 0.930 . S
H1554 C1562 0.930 . S
H1555 C1563 0.930 . S
H1556 C1566 0.930 . S
H1557 C1567 0.930 . S
C1558 H1552 0.930 . S
C1558 C1559 1.355 . S
C1558 C1560 1.415 . S
C1559 C1558 1.355 . S
C1559 C1561 1.419 . S
C1560 C1558 1.415 . S
C1560 C1565 1.425 . S
C1560 C1567 1.409 . S
C1561 H1553 0.930 . S
C1561 C1559 1.419 . S
C1561 C1562 1.362 . S
C1562 H1554 0.930 . S
C1562 C1561 1.362 . S
C1562 C1565 1.409 . S
C1563 H1555 0.930 . S
C1563 C1564 1.355 . S
C1563 C1565 1.415 . S
C1564 C1563 1.355 . S
C1564 C1566 1.419 . S
C1565 C1560 1.425 . S
C1565 C1562 1.409 . S
C1565 C1563 1.415 . S
C1566 H1556 0.930 . S
C1566 C1564 1.419 . S
C1566 C1567 1.362 . S
C1567 H1557 0.930 . S
C1567 C1560 1.409 . S
C1567 C1566 1.362 . S
H1568 C1574 0.930 . S
H1569 C1577 0.930 . S
H1570 C1578 0.930 . S
H1571 C1579 0.930 . S
H1572 C1582 0.930 . S
H1573 C1583 0.930 . S
C1574 H1568 0.930 . S
C1574 C1575 1.355 . S
C1574 C1576 1.415 . S
C1575 C1574 1.355 . S
C1575 C1577 1.419 . S
C1576 C1574 1.415 . S
C1576 C1581 1.425 . S
C1576 C1583 1.409 . S
C1577 H1569 0.930 . S
C1577 C1575 1.419 . S
C1577 C1578 1.362 . S
C1578 H1570 0.930 . S
C1578 C1577 1.362 . S
C1578 C1581 1.409 . S
C1579 H1571 0.930 . S
C1579 C1580 1.355 . S
C1579 C1581 1.415 . S
C1580 C1579 1.355 . S
C1580 C1582 1.419 . S
C1581 C1576 1.425 . S
C1581 C1578 1.409 . S
C1581 C1579 1.415 . S
C1582 H1572 0.930 . S
C1582 C1580 1.419 . S
C1582 C1583 1.362 . S
C1583 H1573 0.930 . S
C1583 C1576 1.409 . S
C1583 C1582 1.362 . S
H1584 C1590 0.930 . S
H1585 C1593 0.930 . S
H1586 C1594 0.930 . S
H1587 C1595 0.930 . S
H1588 C1598 0.930 . S
H1589 C1599 0.930 . S
C1590 H1584 0.930 . S
C1590 C1591 1.355 . S
C1590 C1592 1.415 . S
C1591 C1590 1.355 . S
C1591 C1593 1.419 . S
C1592 C1590 1.415 . S
C1592 C1597 1.425 . S
C1592 C1599 1.409 . S
C1593 H1585 0.930 . S
C1593 C1591 1.419 . S
C1593 C1594 1.362 . S
C1594 H1586 0.930 . S
C1594 C1593 1.362 . S
C1594 C1597 1.409 . S
C1595 H1587 0.930 . S
C1595 C1596 1.355 . S
C1595 C1597 1.415 . S
C1596 C1595 1.355 . S
C1596 C1598 1.419 . S
C1597 C1592 1.425 . S
C1597 C1594 1.409 . S
C1597 C1595 1.415 . S
C1598 H1588 0.930 . S
C1598 C1596 1.419 . S
C1598 C1599 1.362 . S
C1599 H1589 0.930 . S
C1599 C1592 1.409 . S
C1599 C1598 1.362 . S
H1600 C1606 0.930 . S
H1601 C1609 0.930 . S
H1602 C1610 0.930 . S
H1603 C1611 0.930 . S
H1604 C1614 0.930 . S
H1605 C1615 0.930 . S
C1606 H1600 0.930 . S
C1606 C1607 1.355 . S
C1606 C1608 1.415 . S
C1607 C1606 1.355 . S
C1607 C1609 1.419 . S
C1608 C1606 1.415 . S
C1608 C1613 1.425 . S
C1608 C1615 1.409 . S
C1609 H1601 0.930 . S
C1609 C1607 1.419 . S
C1609 C1610 1.362 . S
C1610 H1602 0.930 . S
C1610 C1609 1.362 . S
C1610 C1613 1.409 . S
C1611 H1603 0.930 . S
C1611 C1612 1.355 . S
C1611 C1613 1.415 . S
C1612 C1611 1.355 . S
C1612 C1614 1.419 . S
C1613 C1608 1.425 . S
C1613 C1610 1.409 . S
C1613 C1611 1.415 . S
C1614 H1604 0.930 . S
C1614 C1612 1.419 . S
C1614 C1615 1.362 . S
C1615 H1605 0.930 . S
C1615 C1608 1.409 . S
C1615 C1614 1.362 . S
H1616 C1622 0.930 . S
H1617 C1625 0.930 . S
H1618 C1626 0.930 . S
H1619 C1627 0.930 . S
H1620 C1630 0.930 . S
H1621 C1631 0.930 . S
C1622 H1616 0.930 . S
C1622 C1623 1.355 . S
C1622 C1624 1.415 . S
C1623 C1622 1.355 . S
C1623 C1625 1.419 . S
C1624 C1622 1.415 . S
C1624 C1629 1.425 . S
C1624 C1631 1.409 . S
C1625 H1617 0.930 . S
C1625 C1623 1.419 . S
C1625 C1626 1.362 . S
C1626 H1618 0.930 . S
C1626 C1625 1.362 . S
C1626 C1629 1.409 . S
C1627 H1619 0.930 . S
C1627 C1628 1.355 . S
C1627 C1629 1.415 . S
C1628 C1627 1.355 . S
C1628 C1630 1.419 . S
C1629 C1624 1.425 . S
C1629 C1626 1.409 . S
C1629 C1627 1.415 . S
C1630 H1620 0.930 . S
C1630 C1628 1.419 . S
C1630 C1631 1.362 . S
C1631 H1621 0.930 . S
C1631 C1624 1.409 . S
C1631 C1630 1.362 . S
H1632 C1638 0.930 . S
H1633 C1641 0.930 . S
H1634 C1642 0.930 . S
H1635 C1643 0.930 . S
H1636 C1646 0.930 . S
H1637 C1647 0.930 . S
C1638 H1632 0.930 . S
C1638 C1639 1.355 . S
C1638 C1640 1.415 . S
C1639 C1638 1.355 . S
C1639 C1641 1.419 . S
C1640 C1638 1.415 . S
C1640 C1645 1.425 . S
C1640 C1647 1.409 . S
C1641 H1633 0.930 . S
C1641 C1639 1.419 . S
C1641 C1642 1.362 . S
C1642 H1634 0.930 . S
C1642 C1641 1.362 . S
C1642 C1645 1.409 . S
C1643 H1635 0.930 . S
C1643 C1644 1.355 . S
C1643 C1645 1.415 . S
C1644 C1643 1.355 . S
C1644 C1646 1.419 . S
C1645 C1640 1.425 . S
C1645 C1642 1.409 . S
C1645 C1643 1.415 . S
C1646 H1636 0.930 . S
C1646 C1644 1.419 . S
C1646 C1647 1.362 . S
C1647 H1637 0.930 . S
C1647 C1640 1.409 . S
C1647 C1646 1.362 . S
H1648 C1654 0.930 . S
H1649 C1657 0.930 . S
H1650 C1658 0.930 . S
H1651 C1659 0.930 . S
H1652 C1662 0.930 . S
H1653 C1663 0.930 . S
C1654 H1648 0.930 . S
C1654 C1655 1.355 . S
C1654 C1656 1.415 . S
C1655 C1654 1.355 . S
C1655 C1657 1.419 . S
C1656 C1654 1.415 . S
C1656 C1661 1.425 . S
C1656 C1663 1.409 . S
C1657 H1649 0.930 . S
C1657 C1655 1.419 . S
C1657 C1658 1.362 . S
C1658 H1650 0.930 . S
C1658 C1657 1.362 . S
C1658 C1661 1.409 . S
C1659 H1651 0.930 . S
C1659 C1660 1.355 . S
C1659 C1661 1.415 . S
C1660 C1659 1.355 . S
C1660 C1662 1.419 . S
C1661 C1656 1.425 . S
C1661 C1658 1.409 . S
C1661 C1659 1.415 . S
C1662 H1652 0.930 . S
C1662 C1660 1.419 . S
C1662 C1663 1.362 . S
C1663 H1653 0.930 . S
C1663 C1656 1.409 . S
C1663 C1662 1.362 . S
H1664 C1670 0.930 . S
H1665 C1673 0.930 . S
H1666 C1674 0.930 . S
H1667 C1675 0.930 . S
H1668 C1678 0.930 . S
H1669 C1679 0.930 . S
C1670 H1664 0.930 . S
C1670 C1671 1.355 . S
C1670 C1672 1.415 . S
C1671 C1670 1.355 . S
C1671 C1673 1.419 . S
C1672 C1670 1.415 . S
C1672 C1677 1.425 . S
C1672 C1679 1.409 . S
C1673 H1665 0.930 . S
C1673 C1671 1.419 . S
C1673 C1674 1.362 . S
C1674 H1666 0.930 . S
C1674 C1673 1.362 . S
C1674 C1677 1.409 . S
C1675 H1667 0.930 . S
C1675 C1676 1.355 . S
C1675 C1677 1.415 . S
C1676 C1675 1.355 . S
C1676 C1678 1.419 . S
C1677 C1672 1.425 . S
C1677 C1674 1.409 . S
C1677 C1675 1.415 . S
C1678 H1668 0.930 . S
C1678 C1676 1.419 . S
C1678 C1679 1.362 . S
C1679 H1669 0.930 . S
C1679 C1672 1.409 . S
C1679 C1678 1.362 . S
H1680 C1686 0.930 . S
H1681 C1689 0.930 . S
H1682 C1690 0.930 . S
H1683 C1691 0.930 . S
H1684 C1694 0.930 . S
H1685 C1695 0.930 . S
C1686 H1680 0.930 . S
C1686 C1687 1.355 . S
C1686 C1688 1.415 . S
C1687 C1686 1.355 . S
C1687 C1689 1.419 . S
C1688 C1686 1.415 . S
C1688 C1693 1.425 . S
C1688 C1695 1.409 . S
C1689 H1681 0.930 . S
C1689 C1687 1.419 . S
C1689 C1690 1.362 . S
C1690 H1682 0.930 . S
C1690 C1689 1.362 . S
C1690 C1693 1.409 . S
C1691 H1683 0.930 . S
C1691 C1692 1.355 . S
C1691 C1693 1.415 . S
C1692 C1691 1.355 . S
C1692 C1694 1.419 . S
C1693 C1688 1.425 . S
C1693 C1690 1.409 . S
C1693 C1691 1.415 . S
C1694 H1684 0.930 . S
C1694 C1692 1.419 . S
C1694 C1695 1.362 . S
C1695 H1685 0.930 . S
C1695 C1688 1.409 . S
C1695 C1694 1.362 . S
H1696 C1702 0.930 . S
H1697 C1705 0.930 . S
H1698 C1706 0.930 . S
H1699 C1707 0.930 . S
H1700 C1710 0.930 . S
H1701 C1711 0.930 . S
C1702 H1696 0.930 . S
C1702 C1703 1.355 . S
C1702 C1704 1.415 . S
C1703 C1702 1.355 . S
C1703 C1705 1.419 . S
C1704 C1702 1.415 . S
C1704 C1709 1.425 . S
C1704 C1711 1.409 . S
C1705 H1697 0.930 . S
C1705 C1703 1.419 . S
C1705 C1706 1.362 . S
C1706 H1698 0.930 . S
C1706 C1705 1.362 . S
C1706 C1709 1.409 . S
C1707 H1699 0.930 . S
C1707 C1708 1.355 . S
C1707 C1709 1.415 . S
C1708 C1707 1.355 . S
C1708 C1710 1.419 . S
C1709 C1704 1.425 . S
C1709 C1706 1.409 . S
C1709 C1707 1.415 . S
C1710 H1700 0.930 . S
C1710 C1708 1.419 . S
C1710 C1711 1.362 . S
C1711 H1701 0.930 . S
C1711 C1704 1.409 . S
C1711 C1710 1.362 . S
H1712 C1718 0.930 . S
H1713 C1721 0.930 . S
H1714 C1722 0.930 . S
H1715 C1723 0.937 . S
H1716 C1726 0.930 . S
H1717 C1727 0.930 . S
C1718 H1712 0.930 . S
C1718 C1719 1.355 . S
C1718 C1720 1.415 . S
C1719 C1718 1.355 . S
C1719 C1721 1.419 . S
C1720 C1718 1.415 . S
C1720 C1725 1.425 . S
C1720 C1727 1.409 . S
C1721 H1713 0.930 . S
C1721 C1719 1.419 . S
C1721 C1722 1.362 . S
C1722 H1714 0.930 . S
C1722 C1721 1.362 . S
C1722 C1725 1.409 . S
C1723 H1715 0.937 . S
C1723 C1724 1.361 . S
C1723 C1725 1.415 . S
C1724 C1723 1.361 . S
C1724 C1726 1.433 . S
C1725 C1720 1.425 . S
C1725 C1722 1.409 . S
C1725 C1723 1.415 . S
C1726 H1716 0.930 . S
C1726 C1724 1.433 . S
C1726 C1727 1.362 . S
C1727 H1717 0.930 . S
C1727 C1720 1.409 . S
C1727 C1726 1.362 . S
H1728 C1734 0.930 1_455 S
H1729 C1737 0.930 . S
H1730 C1738 0.930 . S
H1731 C1739 0.930 . S
H1732 C1742 0.930 . S
H1733 C1743 0.930 . S
C1734 H1728 0.930 1_655 S
C1734 C1735 1.355 1_655 S
C1734 C1736 1.415 . S
C1735 C1734 1.355 1_455 S
C1735 C1737 1.419 1_455 S
C1736 C1734 1.415 . S
C1736 C1741 1.425 . S
C1736 C1743 1.409 . S
C1737 H1729 0.930 . S
C1737 C1735 1.419 1_655 S
C1737 C1738 1.362 . S
C1738 H1730 0.930 . S
C1738 C1737 1.362 . S
C1738 C1741 1.409 . S
C1739 H1731 0.930 . S
C1739 C1740 1.355 . S
C1739 C1741 1.415 . S
C1740 C1739 1.355 . S
C1740 C1742 1.419 . S
C1741 C1736 1.425 . S
C1741 C1738 1.409 . S
C1741 C1739 1.415 . S
C1742 H1732 0.930 . S
C1742 C1740 1.419 . S
C1742 C1743 1.362 . S
C1743 H1733 0.930 . S
C1743 C1736 1.409 . S
C1743 C1742 1.362 . S
H1744 C1750 0.930 . S
H1745 C1753 0.930 . S
H1746 C1754 0.930 . S
H1747 C1755 0.930 . S
H1748 C1758 0.930 . S
H1749 C1759 0.930 . S
C1750 H1744 0.930 . S
C1750 C1751 1.355 . S
C1750 C1752 1.415 . S
C1751 C1750 1.355 . S
C1751 C1753 1.419 . S
C1752 C1750 1.415 . S
C1752 C1757 1.425 . S
C1752 C1759 1.409 . S
C1753 H1745 0.930 . S
C1753 C1751 1.419 . S
C1753 C1754 1.362 . S
C1754 H1746 0.930 . S
C1754 C1753 1.362 . S
C1754 C1757 1.409 . S
C1755 H1747 0.930 . S
C1755 C1756 1.355 . S
C1755 C1757 1.415 . S
C1756 C1755 1.355 . S
C1756 C1758 1.419 . S
C1757 C1752 1.425 . S
C1757 C1754 1.409 . S
C1757 C1755 1.415 . S
C1758 H1748 0.930 . S
C1758 C1756 1.419 . S
C1758 C1759 1.362 . S
C1759 H1749 0.930 . S
C1759 C1752 1.409 . S
C1759 C1758 1.362 . S
H1760 C1766 0.930 . S
H1761 C1769 0.930 . S
H1762 C1770 0.930 . S
H1763 C1771 0.930 . S
H1764 C1774 0.930 . S
H1765 C1775 0.930 . S
C1766 H1760 0.930 . S
C1766 C1767 1.355 . S
C1766 C1768 1.415 . S
C1767 C1766 1.355 . S
C1767 C1769 1.419 . S
C1768 C1766 1.415 . S
C1768 C1773 1.425 . S
C1768 C1775 1.409 . S
C1769 H1761 0.930 . S
C1769 C1767 1.419 . S
C1769 C1770 1.362 . S
C1770 H1762 0.930 . S
C1770 C1769 1.362 . S
C1770 C1773 1.409 . S
C1771 H1763 0.930 . S
C1771 C1772 1.355 . S
C1771 C1773 1.415 . S
C1772 C1771 1.355 . S
C1772 C1774 1.419 . S
C1773 C1768 1.425 . S
C1773 C1770 1.409 . S
C1773 C1771 1.415 . S
C1774 H1764 0.930 . S
C1774 C1772 1.419 . S
C1774 C1775 1.362 . S
C1775 H1765 0.930 . S
C1775 C1768 1.409 . S
C1775 C1774 1.362 . S
H1776 C1782 0.930 . S
H1777 C1785 0.930 . S
H1778 C1786 0.930 . S
H1779 C1787 0.930 . S
H1780 C1790 0.930 . S
H1781 C1791 0.930 . S
C1782 H1776 0.930 . S
C1782 C1783 1.355 . S
C1782 C1784 1.415 . S
C1783 C1782 1.355 . S
C1783 C1785 1.419 . S
C1784 C1782 1.415 . S
C1784 C1789 1.425 . S
C1784 C1791 1.409 . S
C1785 H1777 0.930 . S
C1785 C1783 1.419 . S
C1785 C1786 1.362 . S
C1786 H1778 0.930 . S
C1786 C1785 1.362 . S
C1786 C1789 1.409 . S
C1787 H1779 0.930 . S
C1787 C1788 1.355 . S
C1787 C1789 1.415 . S
C1788 C1787 1.355 . S
C1788 C1790 1.419 . S
C1789 C1784 1.425 . S
C1789 C1786 1.409 . S
C1789 C1787 1.415 . S
C1790 H1780 0.930 . S
C1790 C1788 1.419 . S
C1790 C1791 1.362 . S
C1791 H1781 0.930 . S
C1791 C1784 1.409 . S
C1791 C1790 1.362 . S
H1792 C1798 0.930 . S
H1793 C1801 0.930 1_554 S
H1794 C1802 0.930 . S
H1795 C1803 0.930 . S
H1796 C1806 0.930 . S
H1797 C1807 0.930 . S
C1798 H1792 0.930 . S
C1798 C1799 1.355 . S
C1798 C1800 1.415 . S
C1799 C1798 1.355 . S
C1799 C1801 1.419 . S
C1800 C1798 1.415 . S
C1800 C1805 1.425 . S
C1800 C1807 1.409 . S
C1801 H1793 0.930 1_556 S
C1801 C1799 1.419 . S
C1801 C1802 1.362 . S
C1802 H1794 0.930 . S
C1802 C1801 1.362 . S
C1802 C1805 1.409 . S
C1803 H1795 0.930 . S
C1803 C1804 1.355 . S
C1803 C1805 1.415 . S
C1804 C1803 1.355 . S
C1804 C1806 1.419 . S
C1805 C1800 1.425 . S
C1805 C1802 1.409 . S
C1805 C1803 1.415 . S
C1806 H1796 0.930 . S
C1806 C1804 1.419 . S
C1806 C1807 1.362 . S
C1807 H1797 0.930 . S
C1807 C1800 1.409 . S
C1807 C1806 1.362 . S
H1808 C1814 0.930 . S
H1809 C1817 0.930 . S
H1810 C1818 0.930 . S
H1811 C1819 0.930 . S
H1812 C1822 0.930 . S
H1813 C1823 0.930 . S
C1814 H1808 0.930 . S
C1814 C1815 1.355 . S
C1814 C1816 1.415 . S
C1815 C1814 1.355 . S
C1815 C1817 1.419 . S
C1816 C1814 1.415 . S
C1816 C1821 1.425 . S
C1816 C1823 1.409 1_655 S
C1817 H1809 0.930 . S
C1817 C1815 1.419 . S
C1817 C1818 1.362 . S
C1818 H1810 0.930 . S
C1818 C1817 1.362 . S
C1818 C1821 1.409 . S
C1819 H1811 0.930 . S
C1819 C1820 1.355 1_655 S
C1819 C1821 1.415 . S
C1820 C1819 1.355 1_455 S
C1820 C1822 1.419 . S
C1821 C1816 1.425 . S
C1821 C1818 1.409 . S
C1821 C1819 1.415 . S
C1822 H1812 0.930 . S
C1822 C1820 1.419 . S
C1822 C1823 1.362 . S
C1823 H1813 0.930 . S
C1823 C1816 1.409 1_455 S
C1823 C1822 1.362 . S
H1824 C1830 0.930 . S
H1825 C1833 0.930 . S
H1826 C1834 0.930 . S
H1827 C1835 0.930 . S
H1828 C1838 0.930 . S
H1829 C1839 0.930 . S
C1830 H1824 0.930 . S
C1830 C1831 1.355 . S
C1830 C1832 1.415 . S
C1831 C1830 1.355 . S
C1831 C1833 1.419 . S
C1832 C1830 1.415 . S
C1832 C1837 1.425 . S
C1832 C1839 1.409 . S
C1833 H1825 0.930 . S
C1833 C1831 1.419 . S
C1833 C1834 1.362 . S
C1834 H1826 0.930 . S
C1834 C1833 1.362 . S
C1834 C1837 1.409 . S
C1835 H1827 0.930 . S
C1835 C1836 1.355 . S
C1835 C1837 1.415 . S
C1836 C1835 1.355 . S
C1836 C1838 1.419 . S
C1837 C1832 1.425 . S
C1837 C1834 1.409 . S
C1837 C1835 1.415 . S
C1838 H1828 0.930 . S
C1838 C1836 1.419 . S
C1838 C1839 1.362 . S
C1839 H1829 0.930 . S
C1839 C1832 1.409 . S
C1839 C1838 1.362 . S
H1840 C1846 0.930 . S
H1841 C1849 0.930 . S
H1842 C1850 0.930 . S
H1843 C1851 0.930 . S
H1844 C1854 0.930 . S
H1845 C1855 0.930 . S
C1846 H1840 0.930 . S
C1846 C1847 1.355 . S
C1846 C1848 1.415 . S
C1847 C1846 1.355 . S
C1847 C1849 1.419 . S
C1848 C1846 1.415 . S
C1848 C1853 1.425 . S
C1848 C1855 1.409 . S
C1849 H1841 0.930 . S
C1849 C1847 1.419 . S
C1849 C1850 1.362 . S
C1850 H1842 0.930 . S
C1850 C1849 1.362 . S
C1850 C1853 1.409 . S
C1851 H1843 0.930 . S
C1851 C1852 1.355 . S
C1851 C1853 1.415 . S
C1852 C1851 1.355 . S
C1852 C1854 1.419 . S
C1853 C1848 1.425 . S
C1853 C1850 1.409 . S
C1853 C1851 1.415 . S
C1854 H1844 0.930 . S
C1854 C1852 1.419 . S
C1854 C1855 1.362 . S
C1855 H1845 0.930 . S
C1855 C1848 1.409 . S
C1855 C1854 1.362 . S
H1856 C1862 0.930 . S
H1857 C1865 0.930 . S
H1858 C1866 0.930 . S
H1859 C1867 0.930 . S
H1860 C1870 0.930 . S
H1861 C1871 0.930 . S
C1862 H1856 0.930 . S
C1862 C1863 1.355 . S
C1862 C1864 1.415 . S
C1863 C1862 1.355 . S
C1863 C1865 1.419 . S
C1864 C1862 1.415 . S
C1864 C1869 1.425 . S
C1864 C1871 1.409 . S
C1865 H1857 0.930 . S
C1865 C1863 1.419 . S
C1865 C1866 1.362 . S
C1866 H1858 0.930 . S
C1866 C1865 1.362 . S
C1866 C1869 1.409 . S
C1867 H1859 0.930 . S
C1867 C1868 1.355 . S
C1867 C1869 1.415 . S
C1868 C1867 1.355 . S
C1868 C1870 1.419 . S
C1869 C1864 1.425 . S
C1869 C1866 1.409 . S
C1869 C1867 1.415 . S
C1870 H1860 0.930 . S
C1870 C1868 1.419 . S
C1870 C1871 1.362 . S
C1871 H1861 0.930 . S
C1871 C1864 1.409 . S
C1871 C1870 1.362 . S
H1872 C1878 0.930 . S
H1873 C1881 0.930 . S
H1874 C1882 0.930 . S
H1875 C1883 0.930 . S
H1876 C1886 0.930 . S
H1877 C1887 0.930 . S
C1878 H1872 0.930 . S
C1878 C1879 1.355 . S
C1878 C1880 1.415 . S
C1879 C1878 1.355 . S
C1879 C1881 1.419 . S
C1880 C1878 1.415 . S
C1880 C1885 1.425 . S
C1880 C1887 1.409 . S
C1881 H1873 0.930 . S
C1881 C1879 1.419 . S
C1881 C1882 1.362 . S
C1882 H1874 0.930 . S
C1882 C1881 1.362 . S
C1882 C1885 1.409 . S
C1883 H1875 0.930 . S
C1883 C1884 1.355 . S
C1883 C1885 1.415 . S
C1884 C1883 1.355 . S
C1884 C1886 1.419 . S
C1885 C1880 1.425 . S
C1885 C1882 1.409 . S
C1885 C1883 1.415 . S
C1886 H1876 0.930 . S
C1886 C1884 1.419 . S
C1886 C1887 1.362 . S
C1887 H1877 0.930 . S
C1887 C1880 1.409 . S
C1887 C1886 1.362 . S
H1888 C1894 0.930 . S
H1889 C1897 0.930 . S
H1890 C1898 0.930 . S
H1891 C1899 0.930 . S
H1892 C1902 0.930 . S
H1893 C1903 0.930 . S
C1894 H1888 0.930 . S
C1894 C1895 1.355 . S
C1894 C1896 1.415 . S
C1895 C1894 1.355 . S
C1895 C1897 1.419 . S
C1896 C1894 1.415 . S
C1896 C1901 1.425 . S
C1896 C1903 1.409 . S
C1897 H1889 0.930 . S
C1897 C1895 1.419 . S
C1897 C1898 1.362 . S
C1898 H1890 0.930 . S
C1898 C1897 1.362 . S
C1898 C1901 1.409 . S
C1899 H1891 0.930 . S
C1899 C1900 1.355 . S
C1899 C1901 1.415 . S
C1900 C1899 1.355 . S
C1900 C1902 1.419 . S
C1901 C1896 1.425 . S
C1901 C1898 1.409 . S
C1901 C1899 1.415 . S
C1902 H1892 0.930 . S
C1902 C1900 1.419 . S
C1902 C1903 1.362 . S
C1903 H1893 0.930 . S
C1903 C1896 1.409 . S
C1903 C1902 1.362 . S
H1904 C1910 0.930 . S
H1905 C1913 0.930 . S
H1906 C1914 0.930 . S
H1907 C1915 0.930 . S
H1908 C1918 0.930 . S
H1909 C1919 0.930 . S
C1910 H1904 0.930 . S
C1910 C1911 1.355 . S
C1910 C1912 1.415 . S
C1911 C1910 1.355 . S
C1911 C1913 1.419 . S
C1912 C1910 1.415 . S
C1912 C1917 1.425 . S
C1912 C1919 1.409 . S
C1913 H1905 0.930 . S
C1913 C1911 1.419 . S
C1913 C1914 1.362 . S
C1914 H1906 0.930 . S
C1914 C1913 1.362 . S
C1914 C1917 1.409 . S
C1915 H1907 0.930 . S
C1915 C1916 1.355 . S
C1915 C1917 1.415 . S
C1916 C1915 1.355 . S
C1916 C1918 1.419 . S
C1917 C1912 1.425 . S
C1917 C1914 1.409 . S
C1917 C1915 1.415 . S
C1918 H1908 0.930 . S
C1918 C1916 1.419 . S
C1918 C1919 1.362 . S
C1919 H1909 0.930 . S
C1919 C1912 1.409 . S
C1919 C1918 1.362 . S
H1920 C1926 0.930 . S
H1921 C1929 0.930 . S
H1922 C1930 0.930 . S
H1923 C1931 0.914 1_545 S
H1924 C1934 0.930 . S
H1925 C1935 0.930 . S
C1926 H1920 0.930 . S
C1926 C1927 1.355 . S
C1926 C1928 1.415 . S
C1927 C1926 1.355 . S
C1927 C1929 1.419 . S
C1928 C1926 1.415 . S
C1928 C1933 1.425 . S
C1928 C1935 1.409 . S
C1929 H1921 0.930 . S
C1929 C1927 1.419 . S
C1929 C1930 1.362 1_565 S
C1930 H1922 0.930 . S
C1930 C1929 1.362 1_545 S
C1930 C1933 1.409 1_545 S
C1931 H1923 0.914 1_565 S
C1931 C1932 1.362 . S
C1931 C1933 1.423 . S
C1932 C1931 1.362 . S
C1932 C1934 1.419 . S
C1933 C1928 1.425 . S
C1933 C1930 1.409 1_565 S
C1933 C1931 1.423 . S
C1934 H1924 0.930 . S
C1934 C1932 1.419 . S
C1934 C1935 1.362 . S
C1935 H1925 0.930 . S
C1935 C1928 1.409 . S
C1935 C1934 1.362 . S
H1936 C1942 0.930 . S
H1937 C1945 0.930 . S
H1938 C1946 0.930 . S
H1939 C1947 0.930 . S
H1940 C1950 0.930 . S
H1941 C1951 0.930 . S
C1942 H1936 0.930 . S
C1942 C1943 1.355 . S
C1942 C1944 1.415 . S
C1943 C1942 1.355 . S
C1943 C1945 1.419 . S
C1944 C1942 1.415 . S
C1944 C1949 1.425 . S
C1944 C1951 1.409 . S
C1945 H1937 0.930 . S
C1945 C1943 1.419 . S
C1945 C1946 1.362 . S
C1946 H1938 0.930 . S
C1946 C1945 1.362 . S
C1946 C1949 1.409 . S
C1947 H1939 0.930 . S
C1947 C1948 1.355 . S
C1947 C1949 1.415 . S
C1948 C1947 1.355 . S
C1948 C1950 1.419 . S
C1949 C1944 1.425 . S
C1949 C1946 1.409 . S
C1949 C1947 1.415 . S
C1950 H1940 0.930 . S
C1950 C1948 1.419 . S
C1950 C1951 1.362 . S
C1951 H1941 0.930 . S
C1951 C1944 1.409 . S
C1951 C1950 1.362 . S
H1952 C1958 0.930 . S
H1953 C1961 0.930 . S
H1954 C1962 0.930 . S
H1955 C1963 0.930 . S
H1956 C1966 0.930 1_565 S
H1957 C1967 0.917 1_565 S
C1958 H1952 0.930 . S
C1958 C1959 1.355 . S
C1958 C1960 1.415 . S
C1959 C1958 1.355 . S
C1959 C1961 1.419 . S
C1960 C1958 1.415 . S
C1960 C1965 1.425 . S
C1960 C1967 1.409 . S
C1961 H1953 0.930 . S
C1961 C1959 1.419 . S
C1961 C1962 1.362 . S
C1962 H1954 0.930 . S
C1962 C1961 1.362 . S
C1962 C1965 1.409 . S
C1963 H1955 0.930 . S
C1963 C1964 1.355 . S
C1963 C1965 1.415 . S
C1964 C1963 1.355 . S
C1964 C1966 1.419 . S
C1965 C1960 1.425 . S
C1965 C1962 1.409 . S
C1965 C1963 1.415 . S
C1966 H1956 0.930 1_545 S
C1966 C1964 1.419 . S
C1966 C1967 1.362 . S
C1967 H1957 0.917 1_545 S
C1967 C1960 1.409 . S
C1967 C1966 1.362 . S
H1968 C1974 0.930 . S
H1969 C1977 0.930 . S
H1970 C1978 0.930 . S
H1971 C1979 0.930 . S
H1972 C1982 0.930 . S
H1973 C1983 0.930 . S
C1974 H1968 0.930 . S
C1974 C1975 1.355 . S
C1974 C1976 1.415 . S
C1975 C1974 1.355 . S
C1975 C1977 1.419 . S
C1976 C1974 1.415 . S
C1976 C1981 1.425 . S
C1976 C1983 1.409 . S
C1977 H1969 0.930 . S
C1977 C1975 1.419 . S
C1977 C1978 1.362 . S
C1978 H1970 0.930 . S
C1978 C1977 1.362 . S
C1978 C1981 1.409 . S
C1979 H1971 0.930 . S
C1979 C1980 1.355 . S
C1979 C1981 1.415 . S
C1980 C1979 1.355 . S
C1980 C1982 1.419 . S
C1981 C1976 1.425 . S
C1981 C1978 1.409 . S
C1981 C1979 1.415 . S
C1982 H1972 0.930 . S
C1982 C1980 1.419 . S
C1982 C1983 1.362 . S
C1983 H1973 0.930 . S
C1983 C1976 1.409 . S
C1983 C1982 1.362 . S
H1984 C1990 0.930 . S
H1985 C1993 0.930 . S
H1986 C1994 0.930 . S
H1987 C1995 0.930 . S
H1988 C1998 0.930 . S
H1989 C1999 0.930 . S
C1990 H1984 0.930 . S
C1990 C1991 1.355 . S
C1990 C1992 1.415 . S
C1991 C1990 1.355 . S
C1991 C1993 1.419 . S
C1992 C1990 1.415 . S
C1992 C1997 1.425 . S
C1992 C1999 1.409 . S
C1993 H1985 0.930 . S
C1993 C1991 1.419 . S
C1993 C1994 1.362 . S
C1994 H1986 0.930 . S
C1994 C1993 1.362 . S
C1994 C1997 1.409 . S
C1995 H1987 0.930 . S
C1995 C1996 1.355 . S
C1995 C1997 1.415 . S
C1996 C1995 1.355 . S
C1996 C1998 1.419 . S
C1997 C1992 1.425 . S
C1997 C1994 1.409 . S
C1997 C1995 1.415 . S
C1998 H1988 0.930 . S
C1998 C1996 1.419 . S
C1998 C1999 1.362 . S
C1999 H1989 0.930 . S
C1999 C1992 1.409 . S
C1999 C1998 1.362 . S
H2000 C2006 0.930 . S
H2001 C2009 0.930 . S
H2002 C2010 0.930 . S
H2003 C2011 0.930 . S
H2004 C2014 0.930 . S
H2005 C2015 0.930 . S
C2006 H2000 0.930 . S
C2006 C2007 1.355 . S
C2006 C2008 1.415 . S
C2007 C2006 1.355 . S
C2007 C2009 1.419 . S
C2008 C2006 1.415 . S
C2008 C2013 1.425 . S
C2008 C2015 1.409 . S
C2009 H2001 0.930 . S
C2009 C2007 1.419 . S
C2009 C2010 1.362 . S
C2010 H2002 0.930 . S
C2010 C2009 1.362 . S
C2010 C2013 1.409 . S
C2011 H2003 0.930 . S
C2011 C2012 1.355 . S
C2011 C2013 1.415 . S
C2012 C2011 1.355 . S
C2012 C2014 1.419 . S
C2013 C2008 1.425 . S
C2013 C2010 1.409 . S
C2013 C2011 1.415 . S
C2014 H2004 0.930 . S
C2014 C2012 1.419 . S
C2014 C2015 1.362 . S
C2015 H2005 0.930 . S
C2015 C2008 1.409 . S
C2015 C2014 1.362 . S
H2016 C2022 0.930 . S
H2017 C2025 0.930 . S
H2018 C2026 0.930 . S
H2019 C2027 0.930 . S
H2020 C2030 0.930 . S
H2021 C2031 0.930 . S
C2022 H2016 0.930 . S
C2022 C2023 1.355 . S
C2022 C2024 1.415 . S
C2023 C2022 1.355 . S
C2023 C2025 1.419 . S
C2024 C2022 1.415 . S
C2024 C2029 1.425 . S
C2024 C2031 1.409 . S
C2025 H2017 0.930 . S
C2025 C2023 1.419 . S
C2025 C2026 1.362 . S
C2026 H2018 0.930 . S
C2026 C2025 1.362 . S
C2026 C2029 1.409 . S
C2027 H2019 0.930 . S
C2027 C2028 1.355 . S
C2027 C2029 1.415 . S
C2028 C2027 1.355 . S
C2028 C2030 1.419 . S
C2029 C2024 1.425 . S
C2029 C2026 1.409 . S
C2029 C2027 1.415 . S
C2030 H2020 0.930 . S
C2030 C2028 1.419 . S
C2030 C2031 1.362 . S
C2031 H2021 0.930 . S
C2031 C2024 1.409 . S
C2031 C2030 1.362 . S
H2032 C2038 0.930 . S
H2033 C2041 0.930 . S
H2034 C2042 0.930 . S
H2035 C2043 0.930 . S
H2036 C2046 0.930 . S
H2037 C2047 0.930 . S
C2038 H2032 0.930 . S
C2038 C2039 1.355 . S
C2038 C2040 1.415 . S
C2039 C2038 1.355 . S
C2039 C2041 1.419 . S
C2040 C2038 1.415 . S
C2040 C2045 1.425 . S
C2040 C2047 1.409 . S
C2041 H2033 0.930 . S
C2041 C2039 1.419 . S
C2041 C2042 1.362 . S
C2042 H2034 0.930 . S
C2042 C2041 1.362 . S
C2042 C2045 1.409 . S
C2043 H2035 0.930 . S
C2043 C2044 1.355 . S
C2043 C2045 1.415 . S
C2044 C2043 1.355 . S
C2044 C2046 1.419 . S
C2045 C2040 1.425 . S
C2045 C2042 1.409 . S
C2045 C2043 1.415 . S
C2046 H2036 0.930 . S
C2046 C2044 1.419 . S
C2046 C2047 1.362 . S
C2047 H2037 0.930 . S
C2047 C2040 1.409 . S
C2047 C2046 1.362 . S
H2048 C2054 0.930 . S
H2049 C2057 0.930 . S
H2050 C2058 0.930 . S
H2051 C2059 0.930 . S
H2052 C2062 0.930 . S
H2053 C2063 0.930 . S
C2054 H2048 0.930 . S
C2054 C2055 1.355 . S
C2054 C2056 1.415 . S
C2055 C2054 1.355 . S
C2055 C2057 1.419 . S
C2056 C2054 1.415 . S
C2056 C2061 1.425 . S
C2056 C2063 1.409 . S
C2057 H2049 0.930 . S
C2057 C2055 1.419 . S
C2057 C2058 1.362 . S
C2058 H2050 0.930 . S
C2058 C2057 1.362 . S
C2058 C2061 1.409 . S
C2059 H2051 0.930 . S
C2059 C2060 1.355 . S
C2059 C2061 1.415 . S
C2060 C2059 1.355 . S
C2060 C2062 1.419 . S
C2061 C2056 1.425 . S
C2061 C2058 1.409 . S
C2061 C2059 1.415 . S
C2062 H2052 0.930 . S
C2062 C2060 1.419 . S
C2062 C2063 1.362 . S
C2063 H2053 0.930 . S
C2063 C2056 1.409 . S
C2063 C2062 1.362 . S
H2064 C2070 0.930 . S
H2065 C2073 0.930 . S
H2066 C2074 0.930 . S
H2067 C2075 0.931 1_554 S
H2068 C2078 0.930 . S
H2069 C2079 0.930 . S
C2070 H2064 0.930 . S
C2070 C2071 1.355 . S
C2070 C2072 1.415 . S
C2071 C2070 1.355 . S
C2071 C2073 1.419 1_655 S
C2072 C2070 1.415 . S
C2072 C2077 1.425 1_655 S
C2072 C2079 1.409 . S
C2073 H2065 0.930 . S
C2073 C2071 1.419 1_455 S
C2073 C2074 1.362 . S
C2074 H2066 0.930 . S
C2074 C2073 1.362 . S
C2074 C2077 1.409 . S
C2075 H2067 0.931 1_556 S
C2075 C2076 1.355 1_455 S
C2075 C2077 1.415 . S
C2076 C2075 1.355 1_655 S
C2076 C2078 1.419 . S
C2077 C2072 1.425 1_455 S
C2077 C2074 1.409 . S
C2077 C2075 1.415 . S
C2078 H2068 0.930 . S
C2078 C2076 1.419 . S
C2078 C2079 1.362 . S
C2079 H2069 0.930 . S
C2079 C2072 1.409 . S
C2079 C2078 1.362 . S
H2080 C2086 0.930 . S
H2081 C2089 0.930 . S
H2082 C2090 0.930 . S
H2083 C2091 0.930 . S
H2084 C2094 0.930 . S
H2085 C2095 0.930 . S
C2086 H2080 0.930 . S
C2086 C2087 1.355 . S
C2086 C2088 1.415 . S
C2087 C2086 1.355 . S
C2087 C2089 1.419 . S
C2088 C2086 1.415 . S
C2088 C2093 1.425 . S
C2088 C2095 1.409 . S
C2089 H2081 0.930 . S
C2089 C2087 1.419 . S
C2089 C2090 1.362 . S
C2090 H2082 0.930 . S
C2090 C2089 1.362 . S
C2090 C2093 1.409 . S
C2091 H2083 0.930 . S
C2091 C2092 1.355 . S
C2091 C2093 1.415 . S
C2092 C2091 1.355 . S
C2092 C2094 1.419 . S
C2093 C2088 1.425 . S
C2093 C2090 1.409 . S
C2093 C2091 1.415 . S
C2094 H2084 0.930 . S
C2094 C2092 1.419 . S
C2094 C2095 1.362 . S
C2095 H2085 0.930 . S
C2095 C2088 1.409 . S
C2095 C2094 1.362 . S
H2096 C2102 0.930 . S
H2097 C2105 0.930 . S
H2098 C2106 0.930 . S
H2099 C2107 0.930 . S
H2100 C2110 0.930 . S
H2101 C2111 0.930 . S
C2102 H2096 0.930 . S
C2102 C2103 1.355 . S
C2102 C2104 1.415 . S
C2103 C2102 1.355 . S
C2103 C2105 1.419 . S
C2104 C2102 1.415 . S
C2104 C2109 1.425 . S
C2104 C2111 1.409 . S
C2105 H2097 0.930 . S
C2105 C2103 1.419 . S
C2105 C2106 1.362 . S
C2106 H2098 0.930 . S
C2106 C2105 1.362 . S
C2106 C2109 1.409 . S
C2107 H2099 0.930 . S
C2107 C2108 1.355 . S
C2107 C2109 1.415 . S
C2108 C2107 1.355 . S
C2108 C2110 1.419 . S
C2109 C2104 1.425 . S
C2109 C2106 1.409 . S
C2109 C2107 1.415 . S
C2110 H2100 0.930 . S
C2110 C2108 1.419 . S
C2110 C2111 1.362 . S
C2111 H2101 0.930 . S
C2111 C2104 1.409 . S
C2111 C2110 1.362 . S
H2112 C2118 0.930 . S
H2113 C2121 0.930 . S
H2114 C2122 0.930 . S
H2115 C2123 0.930 . S
H2116 C2126 0.930 . S
H2117 C2127 0.930 . S
C2118 H2112 0.930 . S
C2118 C2119 1.355 . S
C2118 C2120 1.415 . S
C2119 C2118 1.355 . S
C2119 C2121 1.419 . S
C2120 C2118 1.415 . S
C2120 C2125 1.425 . S
C2120 C2127 1.409 . S
C2121 H2113 0.930 . S
C2121 C2119 1.419 . S
C2121 C2122 1.362 . S
C2122 H2114 0.930 . S
C2122 C2121 1.362 . S
C2122 C2125 1.409 . S
C2123 H2115 0.930 . S
C2123 C2124 1.355 . S
C2123 C2125 1.415 . S
C2124 C2123 1.355 . S
C2124 C2126 1.419 . S
C2125 C2120 1.425 . S
C2125 C2122 1.409 . S
C2125 C2123 1.415 . S
C2126 H2116 0.930 . S
C2126 C2124 1.419 . S
C2126 C2127 1.362 . S
C2127 H2117 0.930 . S
C2127 C2120 1.409 . S
C2127 C2126 1.362 . S
H2128 C2134 0.930 . S
H2129 C2137 0.930 . S
H2130 C2138 0.930 . S
H2131 C2139 0.930 . S
H2132 C2142 0.930 . S
H2133 C2143 0.930 . S
C2134 H2128 0.930 . S
C2134 C2135 1.355 . S
C2134 C2136 1.415 . S
C2135 C2134 1.355 . S
C2135 C2137 1.419 . S
C2136 C2134 1.415 . S
C2136 C2141 1.425 . S
C2136 C2143 1.409 1_455 S
C2137 H2129 0.930 . S
C2137 C2135 1.419 . S
C2137 C2138 1.362 . S
C2138 H2130 0.930 . S
C2138 C2137 1.362 . S
C2138 C2141 1.409 . S
C2139 H2131 0.930 . S
C2139 C2140 1.355 . S
C2139 C2141 1.415 . S
C2140 C2139 1.355 . S
C2140 C2142 1.419 1_455 S
C2141 C2136 1.425 . S
C2141 C2138 1.409 . S
C2141 C2139 1.415 . S
C2142 H2132 0.930 . S
C2142 C2140 1.419 1_655 S
C2142 C2143 1.362 . S
C2143 H2133 0.930 . S
C2143 C2136 1.409 1_655 S
C2143 C2142 1.362 . S
H2144 C2150 0.930 . S
H2145 C2153 0.930 . S
H2146 C2154 0.930 . S
H2147 C2155 0.930 . S
H2148 C2158 0.930 . S
H2149 C2159 0.930 . S
C2150 H2144 0.930 . S
C2150 C2151 1.355 . S
C2150 C2152 1.415 . S
C2151 C2150 1.355 . S
C2151 C2153 1.419 . S
C2152 C2150 1.415 . S
C2152 C2157 1.425 . S
C2152 C2159 1.409 . S
C2153 H2145 0.930 . S
C2153 C2151 1.419 . S
C2153 C2154 1.362 . S
C2154 H2146 0.930 . S
C2154 C2153 1.362 . S
C2154 C2157 1.409 . S
C2155 H2147 0.930 . S
C2155 C2156 1.355 . S
C2155 C2157 1.415 . S
C2156 C2155 1.355 . S
C2156 C2158 1.419 . S
C2157 C2152 1.425 . S
C2157 C2154 1.409 . S
C2157 C2155 1.415 . S
C2158 H2148 0.930 . S
C2158 C2156 1.419 . S
C2158 C2159 1.362 . S
C2159 H2149 0.930 . S
C2159 C2152 1.409 . S
C2159 C2158 1.362 . S
H2160 C2166 0.930 . S
H2161 C2169 0.930 . S
H2162 C2170 0.930 . S
H2163 C2171 0.930 . S
H2164 C2174 0.930 . S
H2165 C2175 0.930 . S
C2166 H2160 0.930 . S
C2166 C2167 1.355 . S
C2166 C2168 1.415 . S
C2167 C2166 1.355 . S
C2167 C2169 1.419 . S
C2168 C2166 1.415 . S
C2168 C2173 1.425 . S
C2168 C2175 1.409 . S
C2169 H2161 0.930 . S
C2169 C2167 1.419 . S
C2169 C2170 1.362 . S
C2170 H2162 0.930 . S
C2170 C2169 1.362 . S
C2170 C2173 1.409 . S
C2171 H2163 0.930 . S
C2171 C2172 1.355 . S
C2171 C2173 1.415 . S
C2172 C2171 1.355 . S
C2172 C2174 1.419 . S
C2173 C2168 1.425 . S
C2173 C2170 1.409 . S
C2173 C2171 1.415 . S
C2174 H2164 0.930 . S
C2174 C2172 1.419 . S
C2174 C2175 1.362 . S
C2175 H2165 0.930 . S
C2175 C2168 1.409 . S
C2175 C2174 1.362 . S
H2176 C2182 0.930 . S
H2177 C2185 0.930 . S
H2178 C2186 0.930 . S
H2179 C2187 0.930 . S
H2180 C2190 0.930 . S
H2181 C2191 0.930 . S
C2182 H2176 0.930 . S
C2182 C2183 1.355 . S
C2182 C2184 1.415 . S
C2183 C2182 1.355 . S
C2183 C2185 1.419 . S
C2184 C2182 1.415 . S
C2184 C2189 1.425 . S
C2184 C2191 1.409 . S
C2185 H2177 0.930 . S
C2185 C2183 1.419 . S
C2185 C2186 1.362 . S
C2186 H2178 0.930 . S
C2186 C2185 1.362 . S
C2186 C2189 1.409 . S
C2187 H2179 0.930 . S
C2187 C2188 1.355 . S
C2187 C2189 1.415 . S
C2188 C2187 1.355 . S
C2188 C2190 1.419 . S
C2189 C2184 1.425 . S
C2189 C2186 1.409 . S
C2189 C2187 1.415 . S
C2190 H2180 0.930 . S
C2190 C2188 1.419 . S
C2190 C2191 1.362 . S
C2191 H2181 0.930 . S
C2191 C2184 1.409 . S
C2191 C2190 1.362 . S
H2192 C2198 0.930 . S
H2193 C2201 0.930 . S
H2194 C2202 0.930 . S
H2195 C2203 0.930 . S
H2196 C2206 0.930 . S
H2197 C2207 0.930 . S
C2198 H2192 0.930 . S
C2198 C2199 1.355 . S
C2198 C2200 1.415 . S
C2199 C2198 1.355 . S
C2199 C2201 1.419 . S
C2200 C2198 1.415 . S
C2200 C2205 1.425 . S
C2200 C2207 1.409 . S
C2201 H2193 0.930 . S
C2201 C2199 1.419 . S
C2201 C2202 1.362 . S
C2202 H2194 0.930 . S
C2202 C2201 1.362 . S
C2202 C2205 1.409 . S
C2203 H2195 0.930 . S
C2203 C2204 1.355 . S
C2203 C2205 1.415 . S
C2204 C2203 1.355 . S
C2204 C2206 1.419 . S
C2205 C2200 1.425 . S
C2205 C2202 1.409 . S
C2205 C2203 1.415 . S
C2206 H2196 0.930 . S
C2206 C2204 1.419 . S
C2206 C2207 1.362 . S
C2207 H2197 0.930 . S
C2207 C2200 1.409 . S
C2207 C2206 1.362 . S
H2208 C2214 0.930 . S
H2209 C2217 0.930 . S
H2210 C2218 0.930 . S
H2211 C2219 0.930 . S
H2212 C2222 0.930 . S
H2213 C2223 0.930 . S
C2214 H2208 0.930 . S
C2214 C2215 1.355 . S
C2214 C2216 1.415 . S
C2215 C2214 1.355 . S
C2215 C2217 1.419 . S
C2216 C2214 1.415 . S
C2216 C2221 1.425 . S
C2216 C2223 1.409 . S
C2217 H2209 0.930 . S
C2217 C2215 1.419 . S
C2217 C2218 1.362 . S
C2218 H2210 0.930 . S
C2218 C2217 1.362 . S
C2218 C2221 1.409 . S
C2219 H2211 0.930 . S
C2219 C2220 1.355 . S
C2219 C2221 1.415 . S
C2220 C2219 1.355 . S
C2220 C2222 1.419 . S
C2221 C2216 1.425 . S
C2221 C2218 1.409 . S
C2221 C2219 1.415 . S
C2222 H2212 0.930 . S
C2222 C2220 1.419 . S
C2222 C2223 1.362 . S
C2223 H2213 0.930 . S
C2223 C2216 1.409 . S
C2223 C2222 1.362 . S
H2224 C2230 0.930 . S
H2225 C2233 0.930 . S
H2226 C2234 0.930 . S
H2227 C2235 0.930 . S
H2228 C2238 0.930 . S
H2229 C2239 0.930 . S
C2230 H2224 0.930 . S
C2230 C2231 1.355 . S
C2230 C2232 1.415 . S
C2231 C2230 1.355 . S
C2231 C2233 1.419 . S
C2232 C2230 1.415 . S
C2232 C2237 1.425 . S
C2232 C2239 1.409 . S
C2233 H2225 0.930 . S
C2233 C2231 1.419 . S
C2233 C2234 1.362 . S
C2234 H2226 0.930 . S
C2234 C2233 1.362 . S
C2234 C2237 1.409 . S
C2235 H2227 0.930 . S
C2235 C2236 1.355 . S
C2235 C2237 1.415 . S
C2236 C2235 1.355 . S
C2236 C2238 1.419 . S
C2237 C2232 1.425 . S
C2237 C2234 1.409 . S
C2237 C2235 1.415 . S
C2238 H2228 0.930 . S
C2238 C2236 1.419 . S
C2238 C2239 1.362 . S
C2239 H2229 0.930 . S
C2239 C2232 1.409 . S
C2239 C2238 1.362 . S
H2240 C2246 0.930 . S
H2241 C2249 0.930 . S
H2242 C2250 0.930 . S
H2243 C2251 0.930 . S
H2244 C2254 0.930 . S
H2245 C2255 0.930 . S
C2246 H2240 0.930 . S
C2246 C2247 1.355 . S
C2246 C2248 1.415 . S
C2247 C2246 1.355 . S
C2247 C2249 1.419 . S
C2248 C2246 1.415 . S
C2248 C2253 1.425 . S
C2248 C2255 1.409 . S
C2249 H2241 0.930 . S
C2249 C2247 1.419 . S
C2249 C2250 1.362 . S
C2250 H2242 0.930 . S
C2250 C2249 1.362 . S
C2250 C2253 1.409 . S
C2251 H2243 0.930 . S
C2251 C2252 1.355 . S
C2251 C2253 1.415 . S
C2252 C2251 1.355 . S
C2252 C2254 1.419 . S
C2253 C2248 1.425 . S
C2253 C2250 1.409 . S
C2253 C2251 1.415 . S
C2254 H2244 0.930 . S
C2254 C2252 1.419 . S
C2254 C2255 1.362 . S
C2255 H2245 0.930 . S
C2255 C2248 1.409 . S
C2255 C2254 1.362 . S
H2256 C2262 0.930 . S
H2257 C2265 0.930 . S
H2258 C2266 0.930 . S
H2259 C2267 0.930 . S
H2260 C2270 0.930 . S
H2261 C2271 0.930 . S
C2262 H2256 0.930 . S
C2262 C2263 1.355 . S
C2262 C2264 1.415 . S
C2263 C2262 1.355 . S
C2263 C2265 1.419 . S
C2264 C2262 1.415 . S
C2264 C2269 1.425 . S
C2264 C2271 1.409 . S
C2265 H2257 0.930 . S
C2265 C2263 1.419 . S
C2265 C2266 1.362 . S
C2266 H2258 0.930 . S
C2266 C2265 1.362 . S
C2266 C2269 1.409 . S
C2267 H2259 0.930 . S
C2267 C2268 1.355 . S
C2267 C2269 1.415 . S
C2268 C2267 1.355 . S
C2268 C2270 1.419 . S
C2269 C2264 1.425 . S
C2269 C2266 1.409 . S
C2269 C2267 1.415 . S
C2270 H2260 0.930 . S
C2270 C2268 1.419 . S
C2270 C2271 1.362 . S
C2271 H2261 0.930 . S
C2271 C2264 1.409 . S
C2271 C2270 1.362 . S
H2272 C2278 0.930 . S
H2273 C2281 0.930 . S
H2274 C2282 0.930 . S
H2275 C2283 0.930 . S
H2276 C2286 0.930 . S
H2277 C2287 0.930 . S
C2278 H2272 0.930 . S
C2278 C2279 1.355 . S
C2278 C2280 1.415 . S
C2279 C2278 1.355 . S
C2279 C2281 1.419 . S
C2280 C2278 1.415 . S
C2280 C2285 1.425 . S
C2280 C2287 1.409 . S
C2281 H2273 0.930 . S
C2281 C2279 1.419 . S
C2281 C2282 1.362 . S
C2282 H2274 0.930 . S
C2282 C2281 1.362 . S
C2282 C2285 1.409 . S
C2283 H2275 0.930 . S
C2283 C2284 1.355 . S
C2283 C2285 1.415 . S
C2284 C2283 1.355 . S
C2284 C2286 1.419 . S
C2285 C2280 1.425 . S
C2285 C2282 1.409 . S
C2285 C2283 1.415 . S
C2286 H2276 0.930 . S
C2286 C2284 1.419 . S
C2286 C2287 1.362 . S
C2287 H2277 0.930 . S
C2287 C2280 1.409 . S
C2287 C2286 1.362 . S
H2288 C2294 0.930 . S
H2289 C2297 0.930 . S
H2290 C2298 0.930 . S
H2291 C2299 0.930 . S
H2292 C2302 0.930 . S
H2293 C2303 0.930 . S
C2294 H2288 0.930 . S
C2294 C2295 1.355 . S
C2294 C2296 1.415 . S
C2295 C2294 1.355 . S
C2295 C2297 1.419 . S
C2296 C2294 1.415 . S
C2296 C2301 1.425 . S
C2296 C2303 1.409 . S
C2297 H2289 0.930 . S
C2297 C2295 1.419 . S
C2297 C2298 1.362 . S
C2298 H2290 0.930 . S
C2298 C2297 1.362 . S
C2298 C2301 1.409 . S
C2299 H2291 0.930 . S
C2299 C2300 1.355 . S
C2299 C2301 1.415 . S
C2300 C2299 1.355 . S
C2300 C2302 1.419 . S
C2301 C2296 1.425 . S
C2301 C2298 1.409 . S
C2301 C2299 1.415 . S
C2302 H2292 0.930 . S
C2302 C2300 1.419 . S
C2302 C2303 1.362 . S
C2303 H2293 0.930 . S
C2303 C2296 1.409 . S
C2303 C2302 1.362 . S
H2304 C2310 0.930 . S
H2305 C2313 0.930 . S
H2306 C2314 0.930 . S
H2307 C2315 0.930 . S
H2308 C2318 0.930 . S
H2309 C2319 0.930 . S
C2310 H2304 0.930 . S
C2310 C2311 1.355 . S
C2310 C2312 1.415 . S
C2311 C2310 1.355 . S
C2311 C2313 1.419 . S
C2312 C2310 1.415 . S
C2312 C2317 1.425 . S
C2312 C2319 1.409 . S
C2313 H2305 0.930 . S
C2313 C2311 1.419 . S
C2313 C2314 1.362 . S
C2314 H2306 0.930 . S
C2314 C2313 1.362 . S
C2314 C2317 1.409 . S
C2315 H2307 0.930 . S
C2315 C2316 1.355 . S
C2315 C2317 1.415 . S
C2316 C2315 1.355 . S
C2316 C2318 1.419 . S
C2317 C2312 1.425 . S
C2317 C2314 1.409 . S
C2317 C2315 1.415 . S
C2318 H2308 0.930 . S
C2318 C2316 1.419 . S
C2318 C2319 1.362 . S
C2319 H2309 0.930 . S
C2319 C2312 1.409 . S
C2319 C2318 1.362 . S
H2320 C2326 0.930 . S
H2321 C2329 0.930 . S
H2322 C2330 0.930 . S
H2323 C2331 0.930 . S
H2324 C2334 0.930 . S
H2325 C2335 0.930 . S
C2326 H2320 0.930 . S
C2326 C2327 1.355 . S
C2326 C2328 1.415 . S
C2327 C2326 1.355 . S
C2327 C2329 1.419 . S
C2328 C2326 1.415 . S
C2328 C2333 1.425 . S
C2328 C2335 1.409 . S
C2329 H2321 0.930 . S
C2329 C2327 1.419 . S
C2329 C2330 1.362 . S
C2330 H2322 0.930 . S
C2330 C2329 1.362 . S
C2330 C2333 1.409 . S
C2331 H2323 0.930 . S
C2331 C2332 1.355 . S
C2331 C2333 1.415 . S
C2332 C2331 1.355 . S
C2332 C2334 1.419 . S
C2333 C2328 1.425 . S
C2333 C2330 1.409 . S
C2333 C2331 1.415 . S
C2334 H2324 0.930 . S
C2334 C2332 1.419 . S
C2334 C2335 1.362 . S
C2335 H2325 0.930 . S
C2335 C2328 1.409 . S
C2335 C2334 1.362 . S
H2336 C2342 0.930 . S
H2337 C2345 0.930 . S
H2338 C2346 0.930 . S
H2339 C2347 0.930 . S
H2340 C2350 0.930 . S
H2341 C2351 0.930 1_545 S
C2342 H2336 0.930 . S
C2342 C2343 1.355 . S
C2342 C2344 1.415 . S
C2343 C2342 1.355 . S
C2343 C2345 1.419 . S
C2344 C2342 1.415 . S
C2344 C2349 1.425 . S
C2344 C2351 1.409 1_554 S
C2345 H2337 0.930 . S
C2345 C2343 1.419 . S
C2345 C2346 1.362 . S
C2346 H2338 0.930 . S
C2346 C2345 1.362 . S
C2346 C2349 1.409 . S
C2347 H2339 0.930 . S
C2347 C2348 1.355 . S
C2347 C2349 1.415 . S
C2348 C2347 1.355 . S
C2348 C2350 1.419 1_564 S
C2349 C2344 1.425 . S
C2349 C2346 1.409 . S
C2349 C2347 1.415 . S
C2350 H2340 0.930 . S
C2350 C2348 1.419 1_546 S
C2350 C2351 1.362 1_545 S
C2351 H2341 0.930 1_565 S
C2351 C2344 1.409 1_556 S
C2351 C2350 1.362 1_565 S
H2352 C2358 0.930 . S
H2353 C2361 0.930 . S
H2354 C2362 0.930 . S
H2355 C2363 0.930 . S
H2356 C2366 0.930 . S
H2357 C2367 0.930 . S
C2358 H2352 0.930 . S
C2358 C2359 1.355 . S
C2358 C2360 1.415 . S
C2359 C2358 1.355 . S
C2359 C2361 1.419 . S
C2360 C2358 1.415 . S
C2360 C2365 1.425 . S
C2360 C2367 1.409 . S
C2361 H2353 0.930 . S
C2361 C2359 1.419 . S
C2361 C2362 1.362 . S
C2362 H2354 0.930 . S
C2362 C2361 1.362 . S
C2362 C2365 1.409 . S
C2363 H2355 0.930 . S
C2363 C2364 1.355 . S
C2363 C2365 1.415 . S
C2364 C2363 1.355 . S
C2364 C2366 1.419 . S
C2365 C2360 1.425 . S
C2365 C2362 1.409 . S
C2365 C2363 1.415 . S
C2366 H2356 0.930 . S
C2366 C2364 1.419 . S
C2366 C2367 1.362 . S
C2367 H2357 0.930 . S
C2367 C2360 1.409 . S
C2367 C2366 1.362 . S
H2368 C2374 0.930 . S
H2369 C2377 0.930 . S
H2370 C2378 0.930 . S
H2371 C2379 0.930 . S
H2372 C2382 0.930 . S
H2373 C2383 0.930 . S
C2374 H2368 0.930 . S
C2374 C2375 1.312 1_554 S
C2374 C2376 1.415 . S
C2375 C2374 1.312 1_556 S
C2375 C2377 1.451 . S
C2376 C2374 1.415 . S
C2376 C2381 1.425 . S
C2376 C2383 1.409 . S
C2377 H2369 0.930 . S
C2377 C2375 1.451 . S
C2377 C2378 1.362 . S
C2378 H2370 0.930 . S
C2378 C2377 1.362 . S
C2378 C2381 1.409 1_556 S
C2379 H2371 0.930 . S
C2379 C2380 1.355 . S
C2379 C2381 1.415 . S
C2380 C2379 1.355 . S
C2380 C2382 1.419 . S
C2381 C2376 1.425 . S
C2381 C2378 1.409 1_554 S
C2381 C2379 1.415 . S
C2382 H2372 0.930 . S
C2382 C2380 1.419 . S
C2382 C2383 1.362 . S
C2383 H2373 0.930 . S
C2383 C2376 1.409 . S
C2383 C2382 1.362 . S
H2384 C2390 0.930 . S
H2385 C2393 0.930 . S
H2386 C2394 0.930 . S
H2387 C2395 0.930 . S
H2388 C2398 0.930 . S
H2389 C2399 0.930 . S
C2390 H2384 0.930 . S
C2390 C2391 1.355 . S
C2390 C2392 1.415 . S
C2391 C2390 1.355 . S
C2391 C2393 1.419 . S
C2392 C2390 1.415 . S
C2392 C2397 1.425 . S
C2392 C2399 1.409 . S
C2393 H2385 0.930 . S
C2393 C2391 1.419 . S
C2393 C2394 1.362 . S
C2394 H2386 0.930 . S
C2394 C2393 1.362 . S
C2394 C2397 1.409 . S
C2395 H2387 0.930 . S
C2395 C2396 1.355 . S
C2395 C2397 1.415 . S
C2396 C2395 1.355 . S
C2396 C2398 1.419 . S
C2397 C2392 1.425 . S
C2397 C2394 1.409 . S
C2397 C2395 1.415 . S
C2398 H2388 0.930 . S
C2398 C2396 1.419 . S
C2398 C2399 1.362 . S
C2399 H2389 0.930 . S
C2399 C2392 1.409 . S
C2399 C2398 1.362 . S
H2400 C2406 0.930 . S
H2401 C2409 0.930 . S
H2402 C2410 0.930 . S
H2403 C2411 0.930 . S
H2404 C2414 0.930 . S
H2405 C2415 0.930 . S
C2406 H2400 0.930 . S
C2406 C2407 1.355 . S
C2406 C2408 1.415 . S
C2407 C2406 1.355 . S
C2407 C2409 1.419 . S
C2408 C2406 1.415 . S
C2408 C2413 1.425 . S
C2408 C2415 1.409 . S
C2409 H2401 0.930 . S
C2409 C2407 1.419 . S
C2409 C2410 1.362 . S
C2410 H2402 0.930 . S
C2410 C2409 1.362 . S
C2410 C2413 1.409 . S
C2411 H2403 0.930 . S
C2411 C2412 1.355 . S
C2411 C2413 1.415 . S
C2412 C2411 1.355 . S
C2412 C2414 1.419 . S
C2413 C2408 1.425 . S
C2413 C2410 1.409 . S
C2413 C2411 1.415 . S
C2414 H2404 0.930 . S
C2414 C2412 1.419 . S
C2414 C2415 1.362 . S
C2415 H2405 0.930 . S
C2415 C2408 1.409 . S
C2415 C2414 1.362 . S
C892 C353 1.064 . S
C887 C13 1.082 . S
C903 C25 1.849 . S
C908 C399 1.827 . S
C919 C39 0.865 . S
C924 C408 0.815 . S
C940 C446 1.754 . S
C935 C50 1.779 . S
C951 C21 1.627 . S
C956 C480 1.611 . S
C972 C510 0.859 . S
C967 C35 0.880 . S
C988 C569 1.597 1_556 S
C983 C55 1.586 . S
C999 C8 1.128 . S
C1004 C582 1.062 . S
C1015 C69 1.348 . S
C1020 C365 1.409 . S
C1031 C77 1.255 . S
C1036 C383 1.252 . S
C1052 C404 1.710 . S
C1047 C97 1.669 . S
C1068 C442 0.976 . S
C1063 C105 0.968 . S
C1079 C63 1.328 . S
C1084 C476 1.293 . S
C1100 C506 1.605 . S
C1095 C83 1.586 . S
C1116 C553 1.230 . S
C1111 C91 1.247 . S
C1132 C578 0.751 . S
C1127 C111 0.808 . S
C1148 C349 0.842 . S
C1143 C106 0.834 . S
C1164 C608 1.631 . S
C1159 C123 1.608 . S
C1175 C134 1.485 . S
C1180 C650 1.532 . S
C1196 C693 0.485 . S
C1191 C151 0.547 . S
C1207 C64 1.477 . S
C1212 C574 1.428 . S
C1228 C412 1.577 . S
C1223 C78 1.578 . S
C1239 C137 1.356 . S
C1244 C710 1.382 . S
C1260 C761 1.550 . S
C1255 C165 1.566 . S
C1271 C175 1.014 . S
C1276 C344 1.025 1_556 S
C1292 C744 1.749 . S
C1287 C193 1.728 . S
C1303 C209 0.891 . S
C1308 C417 0.849 . S
C1319 C223 1.430 . S
C1324 C727 1.531 . S
C1340 C489 1.550 . S
C1335 C195 1.478 . S
C1356 C655 0.729 . S
C1351 C207 0.720 . S
C1372 C540 1.478 . S
C1367 C221 1.494 . S
C1388 C795 0.969 . S
C1383 C176 0.989 . S
C1404 C336 1.290 1_655 S
C1399 C231 1.316 . S
C1415 C251 1.019 . S
C1420 C748 1.129 . S
C1436 C433 1.663 . S
C1431 C259 1.672 . S
C1447 C279 0.811 . S
C1452 C723 0.842 . S
C1463 C237 1.264 1_545 S
C1468 C485 1.305 . S
C1479 C245 1.574 . S
C1484 C671 1.554 . S
C1500 C544 1.186 . S
C1495 C265 1.093 . S
C1511 C273 0.711 . S
C1516 C791 0.728 . S
C1527 C274 0.836 . S
C1532 C340 0.790 . S
C1543 C291 1.490 . S
C1548 C637 1.495 . S
C1559 C302 1.414 . S
C1564 C523 1.506 . S
C1575 C319 0.462 . S
C1580 C684 0.420 . S
C1596 C807 1.400 . S
C1591 C232 1.317 . S
C1612 C421 1.574 . S
C1607 C246 1.482 . S
C1628 C467 1.276 . S
C1623 C305 1.276 . S
C1644 C378 1.460 . S
C1639 C333 1.461 . S
C1655 C36 1.139 . S
C1660 C829 1.153 . S
C1676 C773 1.792 . S
C1671 C53 1.827 . S
C1692 C850 0.899 . S
C1687 C7 0.926 . S
C1703 C22 1.718 . S
C1708 C718 1.741 . S
C1719 C49 1.654 . S
C1724 C616 1.619 1_556 S
C1740 C646 0.797 . S
C1735 C11 0.775 . S
C1756 C705 1.642 . S
C1751 C27 1.537 . S
C1772 C786 1.087 . S
C1767 C41 1.054 . S
C1788 C841 1.401 . S
C1783 C167 1.355 . S
C1799 C119 1.251 1_556 S
C1804 C757 1.246 . S
C1815 C139 1.681 . S
C1820 C846 1.726 . S
C1836 C714 0.908 . S
C1831 C147 0.897 . S
C1852 C612 1.304 . S
C1847 C161 1.330 . S
C1863 C125 1.588 . S
C1868 C642 1.593 . S
C1884 C689 1.212 . S
C1879 C133 1.235 . S
C1895 C153 0.811 . S
C1900 C782 0.691 . S
C1916 C825 0.791 . S
C1911 C148 0.878 . S
C1932 C472 1.602 . S
C1927 C81 1.589 . S
C1948 C514 1.579 . S
C1943 C92 1.525 . S
C1959 C109 0.395 . S
C1964 C557 0.409 . S
C1980 C778 1.398 . S
C1975 C162 1.427 . S
C1991 C120 1.620 . S
C1996 C854 1.606 . S
C2012 C438 1.400 . S
C2007 C95 1.381 . S
C2028 C387 1.590 . S
C2023 C67 1.551 . S
C2039 C203 0.994 . S
C2044 C820 0.975 . S
C2060 C370 1.847 . S
C2055 C217 1.871 . S
C2076 C859 0.827 . S
C2071 C181 0.758 . S
C2087 C190 1.653 . S
C2092 C455 1.664 . S
C2103 C218 1.671 . S
C2108 C625 1.665 . S
C2119 C179 0.730 . S
C2124 C519 0.708 . S
C2135 C189 1.606 . S
C2140 C676 1.604 . S
C2151 C204 0.881 . S
C2156 C591 0.981 . S
C2172 C812 1.287 . S
C2167 C329 1.343 . S
C2183 C293 1.047 . S
C2188 C374 1.129 . S
C2204 C875 1.641 . S
C2199 C301 1.677 . S
C2215 C321 0.774 . S
C2220 C451 0.870 . S
C2231 C335 1.193 . S
C2236 C621 1.217 . S
C2252 C535 1.602 . S
C2247 C287 1.626 . S
C2263 C307 1.170 . S
C2268 C680 1.212 . S
C2284 C587 0.675 . S
C2279 C315 0.660 . S
C2300 C816 0.797 . S
C2295 C316 0.794 . S
C2316 C501 1.549 . S
C2311 C249 1.541 . S
C2327 C260 1.381 . S
C2332 C659 1.467 . S
C2348 C548 0.537 . S
C2343 C277 0.525 . S
C2364 C603 1.317 . S
C2359 C330 1.249 . S
C2375 C288 1.464 1_556 S
C2380 C863 1.554 . S
C2396 C739 1.345 . S
C2391 C263 1.355 . S
C2412 C752 1.522 . S
C2407 C235 1.526 . S
