# Generated by pormake.
# Topology iac, (4,6)-cn, num edge types: 1
# Building blocks:
#     Node 0, Type 0, BuildingBlock: QUQFOY_clean_sbu_3, # of connection points: 4
#     Node 1, Type 0, BuildingBlock: QUQFOY_clean_sbu_3, # of connection points: 4
#     Node 2, Type 0, BuildingBlock: QUQFOY_clean_sbu_3, # of connection points: 4
#     Node 3, Type 0, BuildingBlock: QUQFOY_clean_sbu_3, # of connection points: 4
#     Node 4, Type 0, BuildingBlock: QUQFOY_clean_sbu_3, # of connection points: 4
#     Node 5, Type 0, BuildingBlock: QUQFOY_clean_sbu_3, # of connection points: 4
#     Node 6, Type 0, BuildingBlock: QUQFOY_clean_sbu_3, # of connection points: 4
#     Node 7, Type 0, BuildingBlock: QUQFOY_clean_sbu_3, # of connection points: 4
#     Node 8, Type 0, BuildingBlock: QUQFOY_clean_sbu_3, # of connection points: 4
#     Node 9, Type 0, BuildingBlock: QUQFOY_clean_sbu_3, # of connection points: 4
#     Node 10, Type 0, BuildingBlock: QUQFOY_clean_sbu_3, # of connection points: 4
#     Node 11, Type 0, BuildingBlock: QUQFOY_clean_sbu_3, # of connection points: 4
#     Node 12, Type 0, BuildingBlock: QUQFOY_clean_sbu_3, # of connection points: 4
#     Node 13, Type 0, BuildingBlock: QUQFOY_clean_sbu_3, # of connection points: 4
#     Node 14, Type 0, BuildingBlock: QUQFOY_clean_sbu_3, # of connection points: 4
#     Node 15, Type 0, BuildingBlock: QUQFOY_clean_sbu_3, # of connection points: 4
#     Node 16, Type 0, BuildingBlock: QUQFOY_clean_sbu_3, # of connection points: 4
#     Node 17, Type 0, BuildingBlock: QUQFOY_clean_sbu_3, # of connection points: 4
#     Node 18, Type 0, BuildingBlock: QUQFOY_clean_sbu_3, # of connection points: 4
#     Node 19, Type 0, BuildingBlock: QUQFOY_clean_sbu_3, # of connection points: 4
#     Node 20, Type 0, BuildingBlock: QUQFOY_clean_sbu_3, # of connection points: 4
#     Node 21, Type 0, BuildingBlock: QUQFOY_clean_sbu_3, # of connection points: 4
#     Node 22, Type 0, BuildingBlock: QUQFOY_clean_sbu_3, # of connection points: 4
#     Node 23, Type 0, BuildingBlock: QUQFOY_clean_sbu_3, # of connection points: 4
#     Node 24, Type 1, BuildingBlock: FUNLAD_clean_sbu_0, # of connection points: 6
#     Node 25, Type 1, BuildingBlock: FUNLAD_clean_sbu_0, # of connection points: 6
#     Node 26, Type 1, BuildingBlock: FUNLAD_clean_sbu_0, # of connection points: 6
#     Node 27, Type 1, BuildingBlock: FUNLAD_clean_sbu_0, # of connection points: 6
#     Node 28, Type 1, BuildingBlock: FUNLAD_clean_sbu_0, # of connection points: 6
#     Node 29, Type 1, BuildingBlock: FUNLAD_clean_sbu_0, # of connection points: 6
#     Node 30, Type 1, BuildingBlock: FUNLAD_clean_sbu_0, # of connection points: 6
#     Node 31, Type 1, BuildingBlock: FUNLAD_clean_sbu_0, # of connection points: 6
#     Node 32, Type 1, BuildingBlock: FUNLAD_clean_sbu_0, # of connection points: 6
#     Node 33, Type 1, BuildingBlock: FUNLAD_clean_sbu_0, # of connection points: 6
#     Node 34, Type 1, BuildingBlock: FUNLAD_clean_sbu_0, # of connection points: 6
#     Node 35, Type 1, BuildingBlock: FUNLAD_clean_sbu_0, # of connection points: 6
#     Node 36, Type 1, BuildingBlock: FUNLAD_clean_sbu_0, # of connection points: 6
#     Node 37, Type 1, BuildingBlock: FUNLAD_clean_sbu_0, # of connection points: 6
#     Node 38, Type 1, BuildingBlock: FUNLAD_clean_sbu_0, # of connection points: 6
#     Node 39, Type 1, BuildingBlock: FUNLAD_clean_sbu_0, # of connection points: 6
#     Edge 40, Type (0, 1), BuildingBlock: UVAHIK_clean_linker_0, # of connection points: 2
#     Edge 41, Type (0, 1), BuildingBlock: UVAHIK_clean_linker_0, # of connection points: 2
#     Edge 42, Type (0, 1), BuildingBlock: UVAHIK_clean_linker_0, # of connection points: 2
#     Edge 43, Type (0, 1), BuildingBlock: UVAHIK_clean_linker_0, # of connection points: 2
#     Edge 44, Type (0, 1), BuildingBlock: UVAHIK_clean_linker_0, # of connection points: 2
#     Edge 45, Type (0, 1), BuildingBlock: UVAHIK_clean_linker_0, # of connection points: 2
#     Edge 46, Type (0, 1), BuildingBlock: UVAHIK_clean_linker_0, # of connection points: 2
#     Edge 47, Type (0, 1), BuildingBlock: UVAHIK_clean_linker_0, # of connection points: 2
#     Edge 48, Type (0, 1), BuildingBlock: UVAHIK_clean_linker_0, # of connection points: 2
#     Edge 49, Type (0, 1), BuildingBlock: UVAHIK_clean_linker_0, # of connection points: 2
#     Edge 50, Type (0, 1), BuildingBlock: UVAHIK_clean_linker_0, # of connection points: 2
#     Edge 51, Type (0, 1), BuildingBlock: UVAHIK_clean_linker_0, # of connection points: 2
#     Edge 52, Type (0, 1), BuildingBlock: UVAHIK_clean_linker_0, # of connection points: 2
#     Edge 53, Type (0, 1), BuildingBlock: UVAHIK_clean_linker_0, # of connection points: 2
#     Edge 54, Type (0, 1), BuildingBlock: UVAHIK_clean_linker_0, # of connection points: 2
#     Edge 55, Type (0, 1), BuildingBlock: UVAHIK_clean_linker_0, # of connection points: 2
#     Edge 56, Type (0, 1), BuildingBlock: UVAHIK_clean_linker_0, # of connection points: 2
#     Edge 57, Type (0, 1), BuildingBlock: UVAHIK_clean_linker_0, # of connection points: 2
#     Edge 58, Type (0, 1), BuildingBlock: UVAHIK_clean_linker_0, # of connection points: 2
#     Edge 59, Type (0, 1), BuildingBlock: UVAHIK_clean_linker_0, # of connection points: 2
#     Edge 60, Type (0, 1), BuildingBlock: UVAHIK_clean_linker_0, # of connection points: 2
#     Edge 61, Type (0, 1), BuildingBlock: UVAHIK_clean_linker_0, # of connection points: 2
#     Edge 62, Type (0, 1), BuildingBlock: UVAHIK_clean_linker_0, # of connection points: 2
#     Edge 63, Type (0, 1), BuildingBlock: UVAHIK_clean_linker_0, # of connection points: 2
#     Edge 64, Type (0, 1), BuildingBlock: UVAHIK_clean_linker_0, # of connection points: 2
#     Edge 65, Type (0, 1), BuildingBlock: UVAHIK_clean_linker_0, # of connection points: 2
#     Edge 66, Type (0, 1), BuildingBlock: UVAHIK_clean_linker_0, # of connection points: 2
#     Edge 67, Type (0, 1), BuildingBlock: UVAHIK_clean_linker_0, # of connection points: 2
#     Edge 68, Type (0, 1), BuildingBlock: UVAHIK_clean_linker_0, # of connection points: 2
#     Edge 69, Type (0, 1), BuildingBlock: UVAHIK_clean_linker_0, # of connection points: 2
#     Edge 70, Type (0, 1), BuildingBlock: UVAHIK_clean_linker_0, # of connection points: 2
#     Edge 71, Type (0, 1), BuildingBlock: UVAHIK_clean_linker_0, # of connection points: 2
#     Edge 72, Type (0, 1), BuildingBlock: UVAHIK_clean_linker_0, # of connection points: 2
#     Edge 73, Type (0, 1), BuildingBlock: UVAHIK_clean_linker_0, # of connection points: 2
#     Edge 74, Type (0, 1), BuildingBlock: UVAHIK_clean_linker_0, # of connection points: 2
#     Edge 75, Type (0, 1), BuildingBlock: UVAHIK_clean_linker_0, # of connection points: 2
#     Edge 76, Type (0, 1), BuildingBlock: UVAHIK_clean_linker_0, # of connection points: 2
#     Edge 77, Type (0, 1), BuildingBlock: UVAHIK_clean_linker_0, # of connection points: 2
#     Edge 78, Type (0, 1), BuildingBlock: UVAHIK_clean_linker_0, # of connection points: 2
#     Edge 79, Type (0, 1), BuildingBlock: UVAHIK_clean_linker_0, # of connection points: 2
#     Edge 80, Type (0, 1), BuildingBlock: UVAHIK_clean_linker_0, # of connection points: 2
#     Edge 81, Type (0, 1), BuildingBlock: UVAHIK_clean_linker_0, # of connection points: 2
#     Edge 82, Type (0, 1), BuildingBlock: UVAHIK_clean_linker_0, # of connection points: 2
#     Edge 83, Type (0, 1), BuildingBlock: UVAHIK_clean_linker_0, # of connection points: 2
#     Edge 84, Type (0, 1), BuildingBlock: UVAHIK_clean_linker_0, # of connection points: 2
#     Edge 85, Type (0, 1), BuildingBlock: UVAHIK_clean_linker_0, # of connection points: 2
#     Edge 86, Type (0, 1), BuildingBlock: UVAHIK_clean_linker_0, # of connection points: 2
#     Edge 87, Type (0, 1), BuildingBlock: UVAHIK_clean_linker_0, # of connection points: 2
#     Edge 88, Type (0, 1), BuildingBlock: UVAHIK_clean_linker_0, # of connection points: 2
#     Edge 89, Type (0, 1), BuildingBlock: UVAHIK_clean_linker_0, # of connection points: 2
#     Edge 90, Type (0, 1), BuildingBlock: UVAHIK_clean_linker_0, # of connection points: 2
#     Edge 91, Type (0, 1), BuildingBlock: UVAHIK_clean_linker_0, # of connection points: 2
#     Edge 92, Type (0, 1), BuildingBlock: UVAHIK_clean_linker_0, # of connection points: 2
#     Edge 93, Type (0, 1), BuildingBlock: UVAHIK_clean_linker_0, # of connection points: 2
#     Edge 94, Type (0, 1), BuildingBlock: UVAHIK_clean_linker_0, # of connection points: 2
#     Edge 95, Type (0, 1), BuildingBlock: UVAHIK_clean_linker_0, # of connection points: 2
#     Edge 96, Type (0, 1), BuildingBlock: UVAHIK_clean_linker_0, # of connection points: 2
#     Edge 97, Type (0, 1), BuildingBlock: UVAHIK_clean_linker_0, # of connection points: 2
#     Edge 98, Type (0, 1), BuildingBlock: UVAHIK_clean_linker_0, # of connection points: 2
#     Edge 99, Type (0, 1), BuildingBlock: UVAHIK_clean_linker_0, # of connection points: 2
#     Edge 100, Type (0, 1), BuildingBlock: UVAHIK_clean_linker_0, # of connection points: 2
#     Edge 101, Type (0, 1), BuildingBlock: UVAHIK_clean_linker_0, # of connection points: 2
#     Edge 102, Type (0, 1), BuildingBlock: UVAHIK_clean_linker_0, # of connection points: 2
#     Edge 103, Type (0, 1), BuildingBlock: UVAHIK_clean_linker_0, # of connection points: 2
#     Edge 104, Type (0, 1), BuildingBlock: UVAHIK_clean_linker_0, # of connection points: 2
#     Edge 105, Type (0, 1), BuildingBlock: UVAHIK_clean_linker_0, # of connection points: 2
#     Edge 106, Type (0, 1), BuildingBlock: UVAHIK_clean_linker_0, # of connection points: 2
#     Edge 107, Type (0, 1), BuildingBlock: UVAHIK_clean_linker_0, # of connection points: 2
#     Edge 108, Type (0, 1), BuildingBlock: UVAHIK_clean_linker_0, # of connection points: 2
#     Edge 109, Type (0, 1), BuildingBlock: UVAHIK_clean_linker_0, # of connection points: 2
#     Edge 110, Type (0, 1), BuildingBlock: UVAHIK_clean_linker_0, # of connection points: 2
#     Edge 111, Type (0, 1), BuildingBlock: UVAHIK_clean_linker_0, # of connection points: 2
#     Edge 112, Type (0, 1), BuildingBlock: UVAHIK_clean_linker_0, # of connection points: 2
#     Edge 113, Type (0, 1), BuildingBlock: UVAHIK_clean_linker_0, # of connection points: 2
#     Edge 114, Type (0, 1), BuildingBlock: UVAHIK_clean_linker_0, # of connection points: 2
#     Edge 115, Type (0, 1), BuildingBlock: UVAHIK_clean_linker_0, # of connection points: 2
#     Edge 116, Type (0, 1), BuildingBlock: UVAHIK_clean_linker_0, # of connection points: 2
#     Edge 117, Type (0, 1), BuildingBlock: UVAHIK_clean_linker_0, # of connection points: 2
#     Edge 118, Type (0, 1), BuildingBlock: UVAHIK_clean_linker_0, # of connection points: 2
#     Edge 119, Type (0, 1), BuildingBlock: UVAHIK_clean_linker_0, # of connection points: 2
#     Edge 120, Type (0, 1), BuildingBlock: UVAHIK_clean_linker_0, # of connection points: 2
#     Edge 121, Type (0, 1), BuildingBlock: UVAHIK_clean_linker_0, # of connection points: 2
#     Edge 122, Type (0, 1), BuildingBlock: UVAHIK_clean_linker_0, # of connection points: 2
#     Edge 123, Type (0, 1), BuildingBlock: UVAHIK_clean_linker_0, # of connection points: 2
#     Edge 124, Type (0, 1), BuildingBlock: UVAHIK_clean_linker_0, # of connection points: 2
#     Edge 125, Type (0, 1), BuildingBlock: UVAHIK_clean_linker_0, # of connection points: 2
#     Edge 126, Type (0, 1), BuildingBlock: UVAHIK_clean_linker_0, # of connection points: 2
#     Edge 127, Type (0, 1), BuildingBlock: UVAHIK_clean_linker_0, # of connection points: 2
#     Edge 128, Type (0, 1), BuildingBlock: UVAHIK_clean_linker_0, # of connection points: 2
#     Edge 129, Type (0, 1), BuildingBlock: UVAHIK_clean_linker_0, # of connection points: 2
#     Edge 130, Type (0, 1), BuildingBlock: UVAHIK_clean_linker_0, # of connection points: 2
#     Edge 131, Type (0, 1), BuildingBlock: UVAHIK_clean_linker_0, # of connection points: 2
#     Edge 132, Type (0, 1), BuildingBlock: UVAHIK_clean_linker_0, # of connection points: 2
#     Edge 133, Type (0, 1), BuildingBlock: UVAHIK_clean_linker_0, # of connection points: 2
#     Edge 134, Type (0, 1), BuildingBlock: UVAHIK_clean_linker_0, # of connection points: 2
#     Edge 135, Type (0, 1), BuildingBlock: UVAHIK_clean_linker_0, # of connection points: 2
# Relax obj value: 0.301
# Max RMSD: 0.260
# Mean RMSD: 0.125
data_MOF--net-iac--node1-QUQFOY_clean_sbu_3--node2-FUNLAD_clean_sbu_0--edge1-UVAHIK_clean_linker_0
_symmetry_space_group_name_H-M    P1
_symmetry_Int_Tables_number       1
_symmetry_cell_setting            triclinic
loop_
_symmetry_equiv_pos_as_xyz
'x, y, z'
_cell_length_a     71.532276
_cell_length_b     70.290716
_cell_length_c     75.861401
_cell_angle_alpha  90.965453
_cell_angle_beta   91.709937
_cell_angle_gamma 90.827225
loop_
_atom_site_label
_atom_site_type_symbol
_atom_site_fract_x
_atom_site_fract_y
_atom_site_fract_z
_atom_type_partial_charge
C0 C 0.02759 0.20596 0.20401 0.0
O1 O 0.04082 0.19414 0.20398 0.0
Cd2 Cd 0.06701 0.19973 0.185 0.0
O3 O 0.0272 0.2195 0.19314 0.0
Cd4 Cd 0.04515 0.2299 0.1683 0.0
C5 C 0.04793 0.18884 0.14538 0.0
O6 O 0.07553 0.23331 0.18331 0.0
O7 O 0.07505 0.23526 0.15482 0.0
O8 O 0.037 0.26338 0.1714 0.0
C9 C 0.08369 0.23833 0.16944 0.0
O10 O 0.06093 0.18441 0.15628 0.0
C11 C 0.02821 0.26397 0.15665 0.0
O12 O 0.03853 0.20378 0.14786 0.0
O13 O 0.02656 0.24851 0.14784 0.0
C14 C 0.98235 0.7522 0.35195 0.0
O15 O -0.006 0.76162 0.34314 0.0
Cd16 Cd 0.02572 0.76759 0.35203 0.0
O17 O -0.01259 0.74447 0.3664 0.0
Cd18 Cd 0.01685 0.74114 0.38458 0.0
C19 C 0.01826 0.78879 0.39234 0.0
O20 O 0.0372 0.73712 0.35989 0.0
O21 O 0.05152 0.74167 0.38495 0.0
O22 O 0.00774 0.70819 0.38956 0.0
C23 C 0.05252 0.73782 0.36862 0.0
O24 O 0.02377 0.79028 0.37661 0.0
C25 C 0.01037 0.70888 0.40618 0.0
O26 O 0.01397 0.77259 0.39845 0.0
O27 O 0.01561 0.72482 0.41292 0.0
C28 C 0.51869 0.69645 0.68366 0.0
O29 O 0.53499 0.69096 0.68799 0.0
Cd30 Cd 0.56227 0.70382 0.67427 0.0
O31 O 0.51644 0.70945 0.67233 0.0
Cd32 Cd 0.53582 0.7299 0.65407 0.0
C33 C 0.55386 0.69343 0.63104 0.0
O34 O 0.56073 0.73833 0.67554 0.0
O35 O 0.56556 0.74546 0.64843 0.0
O36 O 0.51633 0.75815 0.65668 0.0
C37 C 0.5705 0.74719 0.66455 0.0
O38 O 0.56391 0.68946 0.64457 0.0
C39 C 0.51261 0.75882 0.64022 0.0
O40 O 0.54207 0.70671 0.63167 0.0
O41 O 0.51894 0.74556 0.63066 0.0
C42 C 0.487 0.25496 0.85167 0.0
O43 O 0.49861 0.2651 0.84349 0.0
Cd44 Cd 0.52969 0.27196 0.85366 0.0
O45 O 0.49184 0.2469 0.86603 0.0
Cd46 Cd 0.52093 0.24364 0.88486 0.0
C47 C 0.51997 0.2908 0.89459 0.0
O48 O 0.54177 0.24145 0.8604 0.0
O49 O 0.55567 0.24536 0.88572 0.0
O50 O 0.51182 0.21032 0.88809 0.0
C51 C 0.55697 0.24222 0.8693 0.0
O52 O 0.52574 0.2932 0.87905 0.0
C53 C 0.51513 0.20983 0.90461 0.0
O54 O 0.51637 0.27416 0.90008 0.0
O55 O 0.52066 0.22528 0.91212 0.0
C56 C 0.09421 0.01055 0.26161 0.0
O57 O 0.08399 0.01735 0.24934 0.0
Cd58 Cd 0.09057 0.01581 0.21857 0.0
O59 O 0.10895 0.00143 0.25806 0.0
Cd60 Cd 0.12609 -0.00857 0.2316 0.0
C61 C 0.13361 0.03779 0.22152 0.0
O62 O 0.09915 0.98375 0.21233 0.0
O63 O 0.12576 0.9845 0.19985 0.0
O64 O 0.13309 0.96098 0.24502 0.0
C65 C 0.1083 0.98134 0.19845 0.0
O66 O 0.11666 0.03825 0.21592 0.0
C67 C 0.1506 0.96207 0.24277 0.0
O68 O 0.14017 0.02291 0.2286 0.0
O69 O 0.15676 0.97713 0.23579 0.0
C70 C 0.28412 0.91239 0.52644 0.0
O71 O 0.27102 0.92097 0.51835 0.0
Cd72 Cd 0.23917 0.91093 0.51614 0.0
O73 O 0.28089 0.89708 0.5347 0.0
Cd74 Cd 0.25307 0.8762 0.53941 0.0
C75 C 0.24839 0.86902 0.49511 0.0
O76 O 0.23137 0.90144 0.54519 0.0
O77 O 0.21861 0.87389 0.54067 0.0
O78 O 0.26545 0.86769 0.56859 0.0
C79 C 0.21667 0.89123 0.54496 0.0
O80 O 0.24082 0.88527 0.49416 0.0
C81 C 0.26318 0.84987 0.56606 0.0
O82 O 0.25467 0.86292 0.50978 0.0
O83 O 0.25656 0.84444 0.55108 0.0
C84 C 0.41461 0.98827 0.76364 0.0
O85 O 0.42605 0.98197 0.75254 0.0
Cd86 Cd 0.42104 0.98287 0.72139 0.0
O87 O 0.3998 -0.00332 0.7585 0.0
Cd88 Cd 0.38433 0.00605 0.73031 0.0
C89 C 0.37878 0.95908 0.72093 0.0
O90 O 0.41239 0.01482 0.71528 0.0
O91 O 0.38762 0.01178 0.6986 0.0
O92 O 0.3769 0.03612 0.74438 0.0
C93 C 0.40475 0.01661 0.70016 0.0
O94 O 0.39598 0.95916 0.71704 0.0
C95 C 0.35977 0.03593 0.73947 0.0
O96 O 0.37115 0.97411 0.72667 0.0
O97 O 0.35382 0.02144 0.73064 0.0
C98 C 0.29087 0.07013 0.03206 0.0
O99 O 0.27709 0.05864 0.03295 0.0
Cd100 Cd 0.24681 0.06652 0.02162 0.0
O101 O 0.28943 0.08557 0.0236 0.0
Cd102 Cd 0.26588 0.10215 0.00538 0.0
C103 C 0.24217 0.10959 0.04241 0.0
O104 O 0.25203 0.07411 -0.00888 0.0
O105 O 0.23666 0.10008 0.98787 0.0
O106 O 0.28873 0.1113 0.98372 0.0
C107 C 0.23897 0.08287 0.98328 0.0
O108 O 0.23783 0.09197 0.04224 0.0
C109 C 0.28485 0.12887 0.98446 0.0
O110 O 0.25216 0.11653 0.03051 0.0
O111 O 0.27292 0.13392 -0.0044 0.0
C112 C 0.7851 0.41045 0.0341 0.0
O113 O 0.77317 0.42097 0.02646 0.0
Cd114 Cd 0.74166 0.41181 0.0196 0.0
O115 O 0.78029 0.39422 0.03989 0.0
Cd116 Cd 0.75112 0.37457 0.04176 0.0
C117 C 0.75162 0.37037 -0.00269 0.0
O118 O 0.73 0.40048 0.0467 0.0
O119 O 0.71652 0.37382 0.03961 0.0
O120 O 0.76084 0.36515 0.07142 0.0
C121 C 0.71491 0.39107 0.0444 0.0
O122 O 0.74555 0.38731 -0.00334 0.0
C123 C 0.75806 0.34745 0.06859 0.0
O124 O 0.75529 0.36269 0.01204 0.0
O125 O 0.7522 0.34241 0.05323 0.0
C126 C 0.92307 0.48175 0.26046 0.0
O127 O 0.9311 0.47318 0.24797 0.0
Cd128 Cd 0.92251 0.47499 0.21742 0.0
O129 O 0.90899 0.49229 0.25745 0.0
Cd130 Cd 0.88934 0.5019 0.23165 0.0
C131 C 0.87894 0.45537 0.22143 0.0
O132 O 0.91601 0.50795 0.21396 0.0
O133 O 0.8895 0.51113 0.2003 0.0
O134 O 0.88352 0.53196 0.24695 0.0
C135 C 0.90717 0.51249 0.20005 0.0
O136 O 0.89528 0.4538 0.2154 0.0
C137 C 0.86599 0.53157 0.24368 0.0
O138 O 0.8738 0.47092 0.22846 0.0
O139 O 0.85934 0.51707 0.23534 0.0
C140 C 0.79235 0.56873 0.53558 0.0
O141 O 0.78437 0.56613 0.5501 0.0
Cd142 Cd 0.76035 0.58663 0.55986 0.0
O143 O 0.78852 0.58307 0.52617 0.0
Cd144 Cd 0.76791 0.61067 0.5278 0.0
C145 C 0.78488 0.62751 0.5671 0.0
O146 O 0.74148 0.58993 0.53309 0.0
O147 O 0.73537 0.6198 0.53141 0.0
O148 O 0.76998 0.61046 0.4957 0.0
C149 C 0.72947 0.60272 0.53051 0.0
O150 O 0.7764 0.61378 0.57424 0.0
C151 C 0.77062 0.62846 0.49458 0.0
O152 O 0.7844 0.62915 0.55049 0.0
O153 O 0.77089 0.63796 0.50894 0.0
C154 C 0.5982 0.50631 0.76013 0.0
O155 O 0.5882 0.51281 0.74756 0.0
Cd156 Cd 0.59826 0.51552 0.71787 0.0
O157 O 0.61436 0.49968 0.75728 0.0
Cd158 Cd 0.63497 0.49432 0.73195 0.0
C159 C 0.63812 0.54204 0.72709 0.0
O160 O 0.61103 0.48545 0.70977 0.0
O161 O 0.63849 0.49142 0.70008 0.0
O162 O 0.64369 0.46381 0.74425 0.0
C163 C 0.62182 0.48579 0.69681 0.0
O164 O 0.62173 0.54119 0.72003 0.0
C165 C 0.66119 0.46651 0.74298 0.0
O166 O 0.64577 0.52722 0.73325 0.0
O167 O 0.6665 0.48242 0.73705 0.0
C168 C 0.95467 0.7635 0.84376 0.0
O169 O 0.95944 0.77495 0.83189 0.0
Cd170 Cd -0.01295 0.79459 0.83678 0.0
O171 O 0.96515 0.76119 0.85733 0.0
Cd172 Cd -0.00434 0.77024 0.8703 0.0
C173 C 0.97992 0.81414 0.87796 0.0
O174 O 0.01288 0.77408 0.84351 0.0
O175 O 0.0265 0.78478 0.86766 0.0
O176 O 0.0003 0.73676 0.87409 0.0
C177 C 0.02729 0.7815 0.85119 0.0
O178 O 0.9808 0.81654 0.86139 0.0
C179 C 0.00083 0.73738 0.89082 0.0
O180 O 0.98381 0.79818 0.88468 0.0
O181 O 0.0002 0.75372 0.89821 0.0
C182 C 0.97978 0.23822 0.67071 0.0
O183 O -0.00853 0.22798 0.67901 0.0
Cd184 Cd 0.02381 0.22481 0.67213 0.0
O185 O 0.98466 0.24747 0.65724 0.0
Cd186 Cd 0.01324 0.25204 0.63979 0.0
C187 C 0.01932 0.20501 0.63063 0.0
O188 O 0.03443 0.25606 0.66535 0.0
O189 O 0.04755 0.25486 0.64019 0.0
O190 O 0.00357 0.28466 0.63464 0.0
C191 C 0.04931 0.25704 0.65678 0.0
O192 O 0.0252 0.20356 0.64655 0.0
C193 C 0.00479 0.28376 0.61798 0.0
O194 O 0.01268 0.2206 0.62503 0.0
O195 O 0.00962 0.26793 0.61137 0.0
C196 C 0.44718 0.26422 0.34392 0.0
O197 O 0.44881 0.27794 0.33339 0.0
Cd198 Cd 0.47453 0.30029 0.33712 0.0
O199 O 0.45954 0.26158 0.35594 0.0
Cd200 Cd 0.48962 0.27483 0.36647 0.0
C201 C 0.4703 0.31564 0.37958 0.0
O202 O 0.50311 0.28224 0.33825 0.0
O203 O 0.51796 0.29337 0.36157 0.0
O204 O 0.49883 0.24215 0.37013 0.0
C205 C 0.51751 0.29059 0.345 0.0
O206 O 0.46946 0.32032 0.36343 0.0
C207 C 0.50176 0.2436 0.38669 0.0
O208 O 0.47602 0.29933 0.38393 0.0
O209 O 0.50027 0.26004 0.39368 0.0
C210 C 0.47536 0.73936 0.17067 0.0
O211 O 0.48664 0.72858 0.17881 0.0
Cd212 Cd 0.51847 0.72378 0.17128 0.0
O213 O 0.48058 0.7486 0.1573 0.0
Cd214 Cd 0.50943 0.75278 0.13997 0.0
C215 C 0.51286 0.70578 0.12903 0.0
O216 O 0.53113 0.75451 0.16527 0.0
O217 O 0.54389 0.75357 0.13993 0.0
O218 O 0.50275 0.7865 0.13688 0.0
C219 C 0.54595 0.75488 0.15657 0.0
O220 O 0.51768 0.70332 0.14511 0.0
C221 C 0.5021 0.7863 0.12014 0.0
O222 O 0.50812 0.72215 0.12365 0.0
O223 O 0.50466 0.77038 0.11249 0.0
C224 C 0.91067 0.01183 0.79441 0.0
O225 O 0.92066 0.00376 0.78303 0.0
Cd226 Cd 0.90724 -0.01056 0.75677 0.0
O227 O 0.89314 0.01361 0.79162 0.0
Cd228 Cd 0.86861 0.00751 0.76846 0.0
C229 C 0.87326 0.96079 0.77489 0.0
O230 O 0.8883 0.01346 0.74375 0.0
O231 O 0.86178 -0.00019 0.73717 0.0
O232 O 0.85915 0.03892 0.77732 0.0
C233 C 0.87686 0.00714 0.73192 0.0
O234 O 0.88853 0.96235 0.76675 0.0
C235 C 0.84171 0.03535 0.77674 0.0
O236 O 0.8635 0.97535 0.7782 0.0
O237 O 0.83652 0.01856 0.77224 0.0
C238 C 0.78923 0.08505 0.49419 0.0
O239 O 0.77769 0.07478 0.50236 0.0
Cd240 Cd 0.74555 0.08147 0.50715 0.0
O241 O 0.78427 0.10087 0.48764 0.0
Cd242 Cd 0.75574 0.12053 0.48512 0.0
C243 C 0.75032 0.12443 0.52957 0.0
O244 O 0.73519 0.09364 0.47963 0.0
O245 O 0.7213 0.12042 0.48158 0.0
O246 O 0.76503 0.12978 0.45594 0.0
C247 C 0.71997 0.10253 0.47941 0.0
O248 O 0.74559 0.10688 0.52944 0.0
C249 C 0.76423 0.14758 0.45892 0.0
O250 O 0.75554 0.13247 0.51557 0.0
O251 O 0.75966 0.15287 0.47427 0.0
C252 C 0.60008 -0.00499 0.30735 0.0
O253 O 0.59178 0.00521 0.29599 0.0
Cd254 Cd 0.60466 0.01493 0.26885 0.0
O255 O 0.61653 -0.011 0.30472 0.0
Cd256 Cd 0.63996 -0.0089 0.28111 0.0
C257 C 0.64438 0.03881 0.2841 0.0
O258 O 0.61824 0.98742 0.25578 0.0
O259 O 0.64619 -0.00319 0.25018 0.0
O260 O 0.6479 0.95827 0.28749 0.0
C261 C 0.63014 -0.00844 0.24436 0.0
O262 O 0.62848 0.03924 0.27612 0.0
C263 C 0.66548 0.96097 0.28734 0.0
O264 O 0.65138 0.02308 0.28887 0.0
O265 O 0.67124 0.97784 0.28483 0.0
C266 C 0.75202 0.93151 0.02771 0.0
O267 O 0.73722 0.93782 0.02036 0.0
Cd268 Cd 0.70842 0.91967 0.01834 0.0
O269 O 0.75268 0.91456 0.03337 0.0
Cd270 Cd 0.73455 0.88487 0.03606 0.0
C271 C 0.72132 0.88164 -0.0075 0.0
O272 O 0.70907 0.90278 0.04541 0.0
O273 O 0.70311 0.87284 0.04431 0.0
O274 O 0.75733 0.87957 0.05975 0.0
C275 C 0.69705 0.88955 0.04649 0.0
O276 O 0.71104 0.89619 -0.00576 0.0
C277 C 0.75948 0.8621 0.05594 0.0
O278 O 0.73185 0.87607 0.00516 0.0
O279 O 0.74946 0.85505 0.0433 0.0
C280 C 0.28466 0.58357 -0.0054 0.0
O281 O 0.27272 0.57352 0.0025 0.0
Cd282 Cd 0.24027 0.5805 0.00549 0.0
O283 O 0.28 0.59915 0.98741 0.0
Cd284 Cd 0.25187 0.61896 0.98295 0.0
C285 C 0.24384 0.62414 0.02689 0.0
O286 O 0.23119 0.59223 0.97741 0.0
O287 O 0.21767 0.61932 0.97766 0.0
O288 O 0.26249 0.62689 0.95389 0.0
C289 C 0.21612 0.60137 0.97621 0.0
O290 O 0.23918 0.60658 0.02698 0.0
C291 C 0.26248 0.64479 0.95642 0.0
O292 O 0.24984 0.63182 0.013 0.0
O293 O 0.25761 0.65077 0.97147 0.0
C294 C 0.10375 0.49848 0.81111 0.0
O295 O 0.09426 0.50936 0.80123 0.0
Cd296 Cd 0.10229 0.51903 0.77254 0.0
O297 O 0.11942 0.49212 0.80621 0.0
Cd298 Cd 0.13907 0.49487 0.77965 0.0
C299 C 0.1439 0.54273 0.78127 0.0
O300 O 0.1128 0.4904 0.759 0.0
O301 O 0.13853 0.49896 0.74737 0.0
O302 O 0.14938 0.4627 0.78611 0.0
C303 C 0.12159 0.4938 0.74518 0.0
O304 O 0.127 0.54332 0.77555 0.0
C305 C 0.16647 0.46596 0.78307 0.0
O306 O 0.15128 0.52697 0.78531 0.0
O307 O 0.17086 0.48273 0.77865 0.0
C308 C 0.2633 0.40753 0.49273 0.0
O309 O 0.24867 0.41636 0.48794 0.0
Cd310 Cd 0.21778 0.40602 0.49486 0.0
O311 O 0.2622 0.39216 0.50135 0.0
Cd312 Cd 0.23978 0.37016 0.51471 0.0
C313 C 0.21529 0.36113 0.47605 0.0
O314 O 0.22361 0.3969 0.52469 0.0
O315 O 0.21082 0.37064 0.53239 0.0
O316 O 0.26421 0.36535 0.53689 0.0
C317 C 0.2106 0.38869 0.5326 0.0
O318 O 0.20991 0.37832 0.47582 0.0
C319 C 0.26371 0.34731 0.53581 0.0
O320 O 0.22641 0.35535 0.48815 0.0
O321 O 0.25181 0.33977 0.52496 0.0
C322 C 0.40284 0.50501 0.30318 0.0
O323 O 0.41503 0.49892 0.29274 0.0
Cd324 Cd 0.40659 0.48667 0.26395 0.0
O325 O 0.38577 0.5061 0.29811 0.0
Cd326 Cd 0.36536 0.50168 0.27159 0.0
C327 C 0.37151 0.45465 0.2746 0.0
O328 O 0.3881 0.51033 0.24996 0.0
O329 O 0.36296 0.49651 0.23955 0.0
O330 O 0.35514 0.53246 0.28114 0.0
C331 C 0.37857 0.50441 0.23658 0.0
O332 O 0.38779 0.45803 0.26889 0.0
C333 C 0.33778 0.52935 0.27845 0.0
O334 O 0.36038 0.46817 0.27788 0.0
O335 O 0.33286 0.51294 0.27251 0.0
C336 C -0.01081 0.02949 0.967 0.0
N337 N 0.96468 0.01849 0.015 0.0
C338 C 0.9537 0.03382 0.01203 0.0
C339 C 0.93564 0.03432 0.01847 0.0
C340 C 0.9289 0.0189 0.02807 0.0
C341 C 0.94082 0.00359 0.03147 0.0
C342 C 0.95873 0.00367 0.02477 0.0
Zn343 Zn -0.00997 0.0168 0.00386 0.0
C344 C -0.00384 0.97974 0.98675 0.0
N345 N 0.04327 0.01377 0.98098 0.0
C346 C 0.04914 0.02797 0.97043 0.0
C347 C 0.05328 -0.0024 0.98302 0.0
C348 C 0.07001 -0.0047 0.97432 0.0
C349 C 0.07641 0.00974 0.96337 0.0
C350 C 0.06574 0.02622 0.96142 0.0
Zn351 Zn 0.0182 0.01586 -0.00738 0.0
O352 O 0.97841 0.02659 0.97971 0.0
C353 C 0.01211 0.0529 0.00959 0.0
O354 O 0.00654 0.02637 0.96906 0.0
H355 H 0.04824 0.9864 -0.00867 0.0
H356 H 0.95879 0.04548 0.00428 0.0
H357 H 0.04092 0.04067 0.96897 0.0
O358 O -0.00368 0.04502 0.01199 0.0
O359 O 0.02467 0.04377 0.00169 0.0
H360 H 0.96768 -0.00838 0.02692 0.0
O361 O 0.02965 0.00534 0.01619 0.0
O362 O 0.0021 0.00688 0.02802 0.0
O363 O 0.01158 0.98807 0.98383 0.0
O364 O 0.98387 0.98846 -0.00464 0.0
C365 C 0.0194 0.00303 0.02938 0.0
H366 H 0.92692 0.04643 0.01566 0.0
H367 H 0.9361 -0.00877 0.03852 0.0
H368 H 0.07785 0.98238 0.97614 0.0
H369 H 0.07041 0.03785 0.95337 0.0
C370 C 0.29346 0.75445 0.24539 0.0
N371 N 0.24055 0.73949 0.22375 0.0
C372 C 0.24687 0.74845 0.20929 0.0
C373 C 0.24167 0.74176 0.19242 0.0
C374 C 0.22968 0.72581 0.19038 0.0
C375 C 0.22246 0.7176 0.20558 0.0
C376 C 0.22821 0.72462 0.22222 0.0
Zn377 Zn 0.2519 0.747 0.24785 0.0
C378 C 0.26583 0.71298 0.26686 0.0
N379 N 0.27736 0.76208 0.29754 0.0
C380 C 0.28787 0.77831 0.29943 0.0
C381 C 0.27212 0.75201 0.31177 0.0
C382 C 0.27628 0.75893 0.32879 0.0
C383 C 0.28591 0.77638 0.33114 0.0
C384 C 0.29235 0.78574 0.31622 0.0
Zn385 Zn 0.26619 0.75459 0.2734 0.0
O386 O 0.27878 0.74941 0.23655 0.0
C387 C 0.25133 0.7885 0.25459 0.0
O388 O 0.29236 0.75807 0.26178 0.0
H389 H 0.2637 0.73919 0.30996 0.0
H390 H 0.25664 0.76028 0.21082 0.0
H391 H 0.29191 0.78605 0.28791 0.0
O392 O 0.2467 0.77592 0.24299 0.0
O393 O 0.25982 0.78351 0.26868 0.0
H394 H 0.22336 0.71772 0.2339 0.0
O395 O 0.23991 0.75105 0.28485 0.0
O396 O 0.22539 0.74454 0.25957 0.0
O397 O 0.27205 0.72555 0.27785 0.0
O398 O 0.25688 0.71812 0.25308 0.0
C399 C 0.2249 0.74694 0.27619 0.0
H400 H 0.2478 0.74845 0.18117 0.0
H401 H 0.21291 0.70551 0.20466 0.0
H402 H 0.27088 0.75134 0.3399 0.0
H403 H 0.30002 0.79912 0.31749 0.0
C404 C 0.50214 0.00804 0.54138 0.0
N405 N 0.52213 0.95689 0.52159 0.0
C406 C 0.53267 0.95659 0.53679 0.0
C407 C 0.53387 0.93993 0.54644 0.0
C408 C 0.52398 0.92354 0.54043 0.0
C409 C 0.51465 0.92386 0.52388 0.0
C410 C 0.51393 0.94078 0.5146 0.0
Zn411 Zn 0.51404 0.9823 0.51192 0.0
C412 C 0.47228 0.98201 0.5054 0.0
N413 N 0.4942 0.03515 0.49374 0.0
C414 C 0.50139 0.05123 0.5017 0.0
C415 C 0.48226 0.03592 0.4795 0.0
C416 C 0.47768 0.05343 0.47228 0.0
C417 C 0.48558 0.07023 0.47977 0.0
C418 C 0.49726 0.06899 0.49489 0.0
Zn419 Zn 0.50276 0.00969 0.50282 0.0
O420 O 0.50886 -0.00822 0.53806 0.0
C421 C 0.54432 0.01044 0.50953 0.0
O422 O 0.49843 0.01908 0.52875 0.0
H423 H 0.47667 0.02292 0.47345 0.0
H424 H 0.53903 0.9696 0.54209 0.0
H425 H 0.51085 0.05026 0.51302 0.0
O426 O 0.54183 -0.00674 0.51398 0.0
O427 O 0.53039 0.02013 0.50447 0.0
H428 H 0.50559 0.94139 0.50251 0.0
O429 O 0.50727 3e-05 0.47668 0.0
O430 O 0.51916 0.97321 0.48587 0.0
O431 O 0.47522 -0.00076 0.50149 0.0
O432 O 0.486 0.97164 0.50972 0.0
C433 C 0.5148 0.98415 0.47328 0.0
H434 H 0.54156 0.94018 0.55896 0.0
H435 H 0.50673 0.91163 0.51875 0.0
H436 H 0.46844 0.05379 0.46073 0.0
H437 H 0.50389 0.08153 0.50093 0.0
C438 C 0.27078 0.21548 0.75326 0.0
N439 N 0.2493 0.24356 0.79674 0.0
C440 C 0.23959 0.22703 0.79891 0.0
C441 C 0.23844 0.21926 0.81564 0.0
C442 C 0.24729 0.22872 0.83013 0.0
C443 C 0.25526 0.24681 0.82777 0.0
C444 C 0.2562 0.25397 0.81082 0.0
Zn445 Zn 0.25909 0.24992 0.77268 0.0
C446 C 0.30083 0.25553 0.77564 0.0
N447 N 0.28288 0.26312 0.7237 0.0
C448 C 0.27643 0.25276 0.70943 0.0
C449 C 0.29689 0.27626 0.72235 0.0
C450 C 0.305 0.27937 0.70612 0.0
C451 C 0.29854 0.26893 0.69113 0.0
C452 C 0.28402 0.2555 0.69297 0.0
Zn453 Zn 0.27197 0.25742 0.74748 0.0
O454 O 0.26313 0.22067 0.76739 0.0
C455 C 0.23021 0.25165 0.74454 0.0
O456 O 0.27571 0.22801 0.7424 0.0
H457 H 0.30187 0.28425 0.73391 0.0
H458 H 0.23418 0.21904 0.78752 0.0
H459 H 0.26537 0.24229 0.71082 0.0
O460 O 0.23198 0.24818 0.7609 0.0
O461 O 0.24464 0.25578 0.7359 0.0
H462 H 0.26404 0.26697 0.80878 0.0
O463 O 0.26821 0.28688 0.75286 0.0
O464 O 0.25521 0.27911 0.77763 0.0
O465 O 0.29898 0.25892 0.75932 0.0
O466 O 0.28643 0.25161 0.78432 0.0
C467 C 0.26035 0.29181 0.76701 0.0
H468 H 0.23198 0.20536 0.81704 0.0
H469 H 0.26235 0.25447 0.83858 0.0
H470 H 0.31624 0.28978 0.70534 0.0
H471 H 0.27827 0.24743 0.68174 0.0
C472 C 0.04324 0.98628 0.51726 0.0
N473 N 0.02497 0.01604 0.47253 0.0
C474 C 0.04236 0.02416 0.47232 0.0
C475 C 0.04997 0.02952 0.45634 0.0
C476 C 0.03944 0.02671 0.44057 0.0
C477 C 0.02137 0.0188 0.44129 0.0
C478 C 0.01444 0.01343 0.45743 0.0
Zn479 Zn 0.01432 0.00574 0.49514 0.0
C480 C 0.00205 0.96461 0.48935 0.0
N481 N -0.00872 0.982 0.54099 0.0
C482 C 0.00042 0.9858 0.55665 0.0
C483 C 0.97371 0.9743 0.54034 0.0
C484 C 0.964 0.97177 0.55583 0.0
C485 C 0.97258 0.97704 0.57213 0.0
C486 C -0.00864 0.98322 0.57246 0.0
Zn487 Zn 0.00253 -0.00795 0.51858 0.0
O488 O 0.04099 -0.00456 0.50306 0.0
C489 C 0.01472 0.03313 0.5245 0.0
O490 O 0.02928 0.98312 0.5268 0.0
H491 H 0.96672 0.97131 0.52773 0.0
H492 H 0.05049 0.02607 0.48448 0.0
H493 H 0.01437 -0.00805 0.55689 0.0
O494 O 0.02002 0.03192 0.50868 0.0
O495 O 0.00715 0.01873 0.53144 0.0
H496 H 0.00079 0.00667 0.45782 0.0
O497 O 0.97589 0.00104 0.51007 0.0
O498 O -0.01257 0.01592 0.48762 0.0
O499 O -0.002 0.96564 0.50553 0.0
O500 O 0.00853 0.97927 0.48191 0.0
C501 C 0.97345 0.01128 0.49662 0.0
H502 H 0.06397 0.0356 0.45628 0.0
H503 H 0.01295 0.01606 0.42939 0.0
H504 H 0.94953 0.96703 0.55489 0.0
H505 H -0.00132 0.98701 0.58474 0.0
C506 C 0.27152 0.74908 0.72519 0.0
N507 N 0.31261 0.72455 0.75763 0.0
C508 C 0.31436 0.71071 0.74508 0.0
C509 C 0.33134 0.70144 0.74327 0.0
C510 C 0.34662 0.70634 0.75461 0.0
C511 C 0.3442 0.72034 0.76775 0.0
C512 C 0.32707 0.7294 0.76894 0.0
Zn513 Zn 0.28799 0.73843 0.7598 0.0
C514 C 0.29356 0.78048 0.76205 0.0
N515 N 0.23667 0.76748 0.76531 0.0
C516 C 0.22241 0.76366 0.75346 0.0
C517 C 0.23438 0.77942 0.77934 0.0
C518 C 0.21693 0.78717 0.78245 0.0
C519 C 0.2017 0.7829 0.77081 0.0
C520 C 0.20483 0.77145 0.75584 0.0
Zn521 Zn 0.26136 0.75375 0.76287 0.0
O522 O 0.28516 0.74013 0.73201 0.0
C523 C 0.25537 0.71189 0.76028 0.0
O524 O 0.25938 0.75619 0.73516 0.0
H525 H 0.24595 0.78241 0.78852 0.0
H526 H 0.30264 0.70703 0.73628 0.0
H527 H 0.22449 0.75411 0.7424 0.0
O528 O 0.27311 0.71199 0.75948 0.0
O529 O 0.24687 0.72758 0.76133 0.0
H530 H 0.32538 0.74043 0.77884 0.0
O531 O 0.26377 0.75099 0.79065 0.0
O532 O 0.29072 0.7371 0.78752 0.0
O533 O 0.27603 0.77989 0.76425 0.0
O534 O 0.30235 0.76503 0.76004 0.0
C535 C 0.27814 0.74329 0.79747 0.0
H536 H 0.3326 0.69096 0.73276 0.0
H537 H 0.35546 0.72439 0.77697 0.0
H538 H 0.21528 0.79567 0.79431 0.0
H539 H 0.19371 0.76809 0.74625 0.0
C540 C 0.49722 0.96238 0.02694 0.0
N541 N 0.52608 0.01202 0.04392 0.0
C542 C 0.5185 0.0094 0.05995 0.0
C543 C 0.52917 0.01293 0.07535 0.0
C544 C 0.54788 0.01891 0.0742 0.0
C545 C 0.55513 0.02228 0.05756 0.0
C546 C 0.54386 0.01888 0.04248 0.0
Zn547 Zn 0.51146 0.00273 0.02195 0.0
C548 C 0.53618 0.98152 -0.00209 0.0
N549 N 0.48193 0.98065 0.97645 0.0
C550 C 0.46417 0.97342 0.97673 0.0
C551 C 0.49095 0.9826 0.96105 0.0
C552 C 0.48221 0.97714 0.94513 0.0
C553 C 0.46386 0.9699 0.94496 0.0
C554 C 0.45471 0.96809 0.96096 0.0
Zn555 Zn 0.49603 -0.00996 -0.0013 0.0
O556 O 0.50611 0.97625 0.03442 0.0
C557 C 0.47141 0.01054 0.02346 0.0
O558 O 0.49088 0.9641 0.01124 0.0
H559 H 0.50489 0.98875 0.96103 0.0
H560 H 0.50443 0.00373 0.0608 0.0
H561 H 0.45726 0.97204 -0.01086 0.0
O562 O 0.4868 0.0137 0.03179 0.0
O563 O 0.47117 0.00112 0.00899 0.0
H564 H 0.54957 0.02093 0.0296 0.0
O565 O 0.50139 0.01649 0.98622 0.0
O566 O 0.51646 0.02877 0.0094 0.0
O567 O 0.52103 0.97842 -0.01082 0.0
O568 O 0.53606 -0.00839 0.01192 0.0
C569 C 0.51011 0.03046 -0.00631 0.0
H570 H 0.5232 0.00995 0.08799 0.0
H571 H 0.56951 0.02696 0.05623 0.0
H572 H 0.48955 0.97913 0.93299 0.0
H573 H 0.44048 0.96265 0.96123 0.0
C574 C 0.24281 0.20837 0.24898 0.0
N575 N 0.29158 0.22752 0.22643 0.0
C576 C 0.29389 0.20859 0.22353 0.0
C577 C 0.29809 0.2018 0.20682 0.0
C578 C 0.30004 0.21466 0.19297 0.0
C579 C 0.30014 0.23427 0.19699 0.0
C580 C 0.2957 0.24045 0.21393 0.0
Zn581 Zn 0.27589 0.23506 0.24723 0.0
C582 C 0.24619 0.26177 0.23653 0.0
N583 N 0.24068 0.24875 0.28958 0.0
C584 C 0.23327 0.23481 0.29957 0.0
C585 C 0.23758 0.26744 0.29314 0.0
C586 C 0.22731 0.27275 0.3077 0.0
C587 C 0.2199 0.2587 0.3186 0.0
C588 C 0.22265 0.23948 0.3141 0.0
Zn589 Zn 0.2572 0.24168 0.26921 0.0
O590 O 0.25727 0.21225 0.24037 0.0
C591 C 0.28719 0.21518 0.27991 0.0
O592 O 0.23906 0.21861 0.26231 0.0
H593 H 0.24348 0.27828 0.28495 0.0
H594 H 0.29051 0.19856 0.23365 0.0
H595 H 0.23588 0.22003 0.29647 0.0
O596 O 0.29135 0.21728 0.26389 0.0
O597 O 0.27323 0.22389 0.28592 0.0
H598 H 0.29386 0.25546 0.21658 0.0
O599 O 0.27559 0.26483 0.27574 0.0
O600 O 0.29418 0.25785 0.25411 0.0
O601 O 0.24153 0.25942 0.25239 0.0
O602 O 0.26022 0.25307 0.23077 0.0
C603 C 0.29016 0.26847 0.26714 0.0
H604 H 0.29774 0.18656 0.2045 0.0
H605 H 0.30204 0.24471 0.18684 0.0
H606 H 0.2259 0.28775 0.31074 0.0
H607 H 0.21699 0.22814 0.32192 0.0
C608 C 0.54219 0.48839 0.0155 0.0
N609 N 0.52069 0.51563 0.97055 0.0
C610 C 0.53785 0.52398 0.96918 0.0
C611 C 0.54491 0.52771 0.95258 0.0
C612 C 0.53413 0.52289 0.93733 0.0
C613 C 0.51619 0.51498 0.93922 0.0
C614 C 0.50975 0.5114 0.956 0.0
Zn615 Zn 0.51157 0.50677 -0.0057 0.0
C616 C 0.49926 0.46536 -0.00885 0.0
N617 N 0.49242 0.48547 0.0428 0.0
C618 C 0.50296 0.4895 0.05764 0.0
C619 C 0.47484 0.47799 0.04371 0.0
C620 C 0.46667 0.47571 0.06002 0.0
C621 C 0.4768 0.48092 0.07557 0.0
C622 C 0.49547 0.48711 0.07423 0.0
Zn623 Zn 0.50186 0.49427 0.01917 0.0
O624 O 0.53896 0.49717 0.00123 0.0
C625 C 0.51428 0.53562 0.02241 0.0
O626 O 0.52892 0.48538 0.02587 0.0
H627 H 0.46672 0.47481 0.03174 0.0
H628 H 0.54631 0.5272 0.98093 0.0
H629 H 0.51689 0.49549 0.05665 0.0
O630 O 0.51763 0.53378 0.00612 0.0
O631 O 0.50787 0.52146 0.03066 0.0
H632 H 0.49625 0.50455 0.95736 0.0
O633 O 0.47474 0.50326 0.01213 0.0
O634 O 0.48414 0.51616 0.98779 0.0
O635 O 0.4961 0.46721 0.00748 0.0
O636 O 0.50534 0.47959 0.9828 0.0
C637 C 0.47107 0.51238 -0.0018 0.0
H638 H 0.55877 0.53395 0.95168 0.0
H639 H 0.50753 0.51076 0.92782 0.0
H640 H 0.45221 0.47102 0.06031 0.0
H641 H 0.504 0.49085 0.08584 0.0
C642 C 0.76333 0.24776 0.22783 0.0
N643 N 0.80522 0.22788 0.26224 0.0
C644 C 0.809 0.21376 0.25044 0.0
C645 C 0.82725 0.2071 0.24909 0.0
C646 C 0.8416 0.21509 0.26004 0.0
C647 C 0.83702 0.22889 0.2727 0.0
C648 C 0.81874 0.23522 0.27347 0.0
Zn649 Zn 0.77958 0.23999 0.26303 0.0
C650 C 0.78328 0.28243 0.26324 0.0
N651 N 0.72705 0.26712 0.26637 0.0
C652 C 0.71318 0.26194 0.25453 0.0
C653 C 0.72421 0.28036 0.27924 0.0
C654 C 0.70665 0.2884 0.28102 0.0
C655 C 0.69189 0.28305 0.26922 0.0
C656 C 0.69549 0.26991 0.2556 0.0
Zn657 Zn 0.75241 0.25449 0.26526 0.0
O658 O 0.77725 0.23971 0.23516 0.0
C659 C 0.74857 0.21211 0.26488 0.0
O660 O 0.75088 0.25498 0.23737 0.0
H661 H 0.73548 0.2844 0.28843 0.0
H662 H 0.79801 0.20812 0.24166 0.0
H663 H 0.71573 0.25139 0.24438 0.0
O664 O 0.76629 0.21295 0.264 0.0
O665 O 0.73933 0.22741 0.26508 0.0
H666 H 0.8155 0.24647 0.28273 0.0
O667 O 0.75434 0.25371 0.29325 0.0
O668 O 0.78177 0.24062 0.29079 0.0
O669 O 0.76575 0.28151 0.26535 0.0
O670 O 0.79243 0.26715 0.26201 0.0
C671 C 0.76901 0.24696 0.30043 0.0
H672 H 0.83024 0.19654 0.23905 0.0
H673 H 0.84761 0.23523 0.28156 0.0
H674 H 0.70459 0.29818 0.29193 0.0
H675 H 0.68472 0.26558 0.24597 0.0
C676 C 0.00242 0.45946 0.52492 0.0
N677 N 0.00826 0.51282 0.54979 0.0
C678 C -0.00354 0.50647 0.5622 0.0
C679 C 0.00023 0.51057 0.58003 0.0
C680 C 0.01653 0.52095 0.58514 0.0
C681 C 0.02764 0.52847 0.57188 0.0
C682 C 0.02315 0.52434 0.55423 0.0
Zn683 Zn 0.0063 0.50218 0.5247 0.0
C684 C 0.04413 0.49121 0.5126 0.0
N685 N 0.0042 0.47838 0.47286 0.0
C686 C -0.00939 0.46541 0.46804 0.0
C687 C 0.01518 0.48661 0.46071 0.0
C688 C 0.01167 0.4831 0.44279 0.0
C689 C -0.00309 0.4708 0.43742 0.0
C690 C -0.01322 0.46127 0.45022 0.0
Zn691 Zn 0.00583 0.48879 0.49801 0.0
O692 O 0.00337 0.47434 0.53468 0.0
C693 C 0.96796 0.49861 0.51058 0.0
O694 O 0.00321 0.46107 0.50829 0.0
H695 H 0.02595 0.49682 0.46486 0.0
H696 H 0.98467 0.49735 0.55836 0.0
H697 H 0.98199 0.45914 0.47794 0.0
O698 O 0.9772 0.50476 0.5241 0.0
O699 O 0.9765 0.4915 0.49766 0.0
H700 H 0.0323 0.52932 0.54414 0.0
O701 O 0.00825 0.51673 0.48811 0.0
O702 O 0.00906 0.52997 0.51447 0.0
O703 O 0.03507 0.48589 0.49869 0.0
O704 O 0.03546 0.49883 0.52517 0.0
C705 C 0.00926 0.53162 0.49783 0.0
H706 H -0.00904 0.50486 0.58972 0.0
H707 H 0.04045 0.53636 0.575 0.0
H708 H 0.01979 0.49061 0.43321 0.0
H709 H 0.97519 0.45182 0.44649 0.0
C710 C 0.76818 0.7068 0.25628 0.0
N711 N 0.74231 0.734 0.29764 0.0
C712 C 0.73078 0.71852 0.2985 0.0
C713 C 0.7263 0.71115 0.31482 0.0
C714 C 0.73396 0.71969 0.33034 0.0
C715 C 0.74456 0.73657 0.32903 0.0
C716 C 0.74854 0.74354 0.31246 0.0
Zn717 Zn 0.7537 0.74077 0.27437 0.0
C718 C 0.79474 0.74884 0.27903 0.0
N719 N 0.77921 0.75465 0.22632 0.0
C720 C 0.77704 0.74211 0.21254 0.0
C721 C 0.78993 0.77067 0.22508 0.0
C722 C 0.79863 0.7748 0.20937 0.0
C723 C 0.79661 0.76214 0.19485 0.0
C724 C 0.78585 0.74544 0.19673 0.0
Zn725 Zn 0.76701 0.74856 0.24947 0.0
O726 O 0.75922 0.71174 0.26974 0.0
C727 C 0.72609 0.74064 0.24451 0.0
O728 O 0.77307 0.71939 0.24547 0.0
H729 H 0.79162 0.78035 0.23627 0.0
H730 H 0.72597 0.7112 0.28651 0.0
H731 H 0.76846 0.72944 0.21378 0.0
O732 O 0.72735 0.73791 0.26103 0.0
O733 O 0.74072 0.7449 0.23624 0.0
H734 H 0.75767 0.75584 0.31145 0.0
O735 O 0.76093 0.77778 0.25412 0.0
O736 O 0.74832 0.76972 0.27899 0.0
O737 O 0.79304 0.75222 0.2627 0.0
O738 O 0.78042 0.74373 0.28736 0.0
C739 C 0.75275 0.78249 0.26816 0.0
H740 H 0.71778 0.69831 0.31524 0.0
H741 H 0.75092 0.74357 0.34058 0.0
H742 H 0.80642 0.78806 0.20853 0.0
H743 H 0.78409 0.73507 0.18608 0.0
C744 C 0.79908 0.25688 0.74757 0.0
N745 N 0.74571 0.24456 0.72571 0.0
C746 C 0.75282 0.25266 0.71116 0.0
C747 C 0.74822 0.24524 0.6944 0.0
C748 C 0.73603 0.22942 0.69258 0.0
C749 C 0.72777 0.22233 0.70777 0.0
C750 C 0.73294 0.23005 0.7243 0.0
Zn751 Zn 0.75712 0.25191 0.74985 0.0
C752 C 0.76922 0.21731 0.76924 0.0
N753 N 0.78308 0.26586 0.79959 0.0
C754 C 0.79434 0.28156 0.80158 0.0
C755 C 0.7772 0.2561 0.81378 0.0
C756 C 0.78156 0.2628 0.83082 0.0
C757 C 0.79203 0.27974 0.83327 0.0
C758 C 0.79903 0.28878 0.81841 0.0
Zn759 Zn 0.77177 0.25876 0.77541 0.0
O760 O 0.78414 0.25271 0.73877 0.0
C761 C 0.75897 0.29338 0.75639 0.0
O762 O 0.7982 0.26066 0.76396 0.0
H763 H 0.76818 0.24371 0.8119 0.0
H764 H 0.76294 0.26421 0.71259 0.0
H765 H 0.79887 0.28907 0.7901 0.0
O766 O 0.75351 0.28117 0.74473 0.0
O767 O 0.76708 0.28779 0.77046 0.0
H768 H 0.72747 0.22381 0.73605 0.0
O769 O 0.74518 0.25676 0.78669 0.0
O770 O 0.73049 0.25098 0.76134 0.0
O771 O 0.77608 0.22964 0.78012 0.0
O772 O 0.76056 0.22275 0.75541 0.0
C773 C 0.73003 0.25344 0.77796 0.0
H774 H 0.7551 0.25112 0.68315 0.0
H775 H 0.71801 0.2104 0.70699 0.0
H776 H 0.77569 0.2555 0.84188 0.0
H777 H 0.80734 0.30175 0.81975 0.0
C778 C 0.73427 0.72008 0.76191 0.0
N779 N 0.78073 0.74394 0.73777 0.0
C780 C 0.78448 0.72565 0.73322 0.0
C781 C 0.79525 0.72168 0.71866 0.0
C782 C 0.80263 0.73669 0.70883 0.0
C783 C 0.79894 0.75547 0.71416 0.0
C784 C 0.78776 0.75878 0.72863 0.0
Zn785 Zn 0.76467 0.74896 0.75894 0.0
C786 C 0.73295 0.77368 0.75064 0.0
N787 N 0.73222 0.75954 0.80385 0.0
C788 C 0.72862 0.74587 0.81583 0.0
C789 C 0.72679 0.7778 0.80641 0.0
C790 C 0.71829 0.78319 0.82193 0.0
C791 C 0.71537 0.76968 0.83502 0.0
C792 C 0.72014 0.75067 0.83162 0.0
Zn793 Zn 0.7479 0.75394 0.78255 0.0
O794 O 0.74711 0.72564 0.75191 0.0
C795 C 0.77984 0.72921 0.79057 0.0
O796 O 0.7315 0.72922 0.77619 0.0
H797 H 0.72988 0.78846 0.79676 0.0
H798 H 0.77889 0.71406 0.74075 0.0
H799 H 0.73301 0.73142 0.81345 0.0
O800 O 0.78176 0.73127 0.77413 0.0
O801 O 0.76654 0.73752 0.79815 0.0
H802 H 0.78463 0.77323 0.73249 0.0
O803 O 0.76458 0.7787 0.78873 0.0
O804 O 0.78207 0.77204 0.7663 0.0
O805 O 0.72965 0.77019 0.76663 0.0
O806 O 0.74739 0.7668 0.74376 0.0
C807 C 0.77864 0.78252 0.77953 0.0
H808 H 0.79724 0.70694 0.71491 0.0
H809 H 0.80446 0.76751 0.70718 0.0
H810 H 0.71518 0.79807 0.82408 0.0
H811 H 0.718 0.73979 0.84132 0.0
C812 C 0.48414 0.51961 0.47318 0.0
N813 N 0.47191 0.50801 0.52512 0.0
C814 C 0.45707 0.5194 0.52181 0.0
C815 C 0.4394 0.51419 0.52749 0.0
C816 C 0.43715 0.49732 0.53698 0.0
C817 C 0.45328 0.48761 0.54252 0.0
C818 C 0.47057 0.49298 0.53609 0.0
Zn819 Zn 0.49454 0.51011 0.50965 0.0
C820 C 0.50164 0.47249 0.49209 0.0
N821 N 0.542 0.51241 0.47672 0.0
C822 C 0.54066 0.52438 0.46281 0.0
C823 C 0.55839 0.50371 0.48078 0.0
C824 C 0.57461 0.50853 0.47198 0.0
C825 C 0.57386 0.52201 0.45843 0.0
C826 C 0.55628 0.52884 0.45312 0.0
Zn827 Zn 0.51963 0.51006 0.49301 0.0
O828 O 0.47684 0.51795 0.48809 0.0
C829 C 0.51247 0.54772 0.51048 0.0
O830 O 0.50148 0.51682 0.47183 0.0
H831 H 0.55926 0.49393 0.4916 0.0
H832 H 0.45852 0.53151 0.51333 0.0
H833 H 0.5278 0.53153 0.45966 0.0
O834 O 0.49874 0.53879 0.51687 0.0
O835 O 0.52311 0.53915 0.49993 0.0
H836 H 0.48255 0.48413 0.53863 0.0
O837 O 0.53723 0.50301 0.51484 0.0
O838 O 0.51229 0.5022 0.53094 0.0
O839 O 0.51593 0.48109 0.48637 0.0
O840 O 0.49059 0.48134 0.50202 0.0
C841 C 0.52982 0.50025 0.52961 0.0
H842 H 0.42753 0.52229 0.52288 0.0
H843 H 0.45237 0.47495 0.5504 0.0
H844 H 0.5877 0.50278 0.47678 0.0
H845 H 0.55469 0.53866 0.44236 0.0
C846 C -0.00284 0.50468 0.03741 0.0
N847 N 0.0236 0.4546 0.02299 0.0
C848 C 0.03205 0.45644 0.03923 0.0
C849 C 0.03492 0.44046 0.04955 0.0
C850 C 0.02928 0.42241 0.04295 0.0
C851 C 0.02226 0.42082 0.02547 0.0
C852 C 0.01931 0.4372 0.01575 0.0
Zn853 Zn 0.01321 0.47802 0.0111 0.0
C854 C 0.97199 0.47235 0.00291 0.0
N855 N -0.01118 0.52635 0.98753 0.0
C856 C -0.00662 0.5433 -0.00447 0.0
C857 C 0.97786 0.52538 0.97256 0.0
C858 C 0.97143 0.54206 0.96482 0.0
C859 C 0.97627 0.55976 0.97269 0.0
C860 C -0.0128 0.56021 0.98835 0.0
Zn861 Zn -0.0004 0.50272 -0.00133 0.0
O862 O 0.00621 0.48935 0.03617 0.0
C863 C 0.04068 0.50861 0.00709 0.0
O864 O -0.00742 0.51343 0.02352 0.0
H865 H 0.97439 0.51171 0.96647 0.0
H866 H 0.03544 0.47042 0.04468 0.0
H867 H 0.00221 0.54377 0.00735 0.0
O868 O 0.03958 0.4918 0.01292 0.0
O869 O 0.02609 0.51637 0.00076 0.0
H870 H 0.01254 0.43607 0.00284 0.0
O871 O 0.00657 0.49176 0.97377 0.0
O872 O 0.02022 0.46724 0.9859 0.0
O873 O 0.97345 0.48899 -0.00321 0.0
O874 O -0.01354 0.46435 0.00925 0.0
C875 C 0.01566 0.47645 0.9722 0.0
H876 H 0.0403 0.44247 0.06295 0.0
H877 H 0.0182 0.40716 0.01964 0.0
H878 H 0.96301 0.54115 0.95272 0.0
H879 H -0.00838 0.57355 -0.00537 0.0
C880 C 0.05723 0.16393 0.12351 0.0
C881 C 0.0441 0.17713 0.12933 0.0
C882 C 0.05382 0.15345 0.10791 0.0
C883 C 0.01597 0.1341 0.08022 0.0
H884 H 0.0535 0.12837 0.04472 0.0
C885 C 0.0016 0.08398 0.02159 0.0
C886 C 0.01625 0.07173 0.01761 0.0
C887 C 0.00502 0.10025 0.03201 0.0
C888 C 0.04291 0.12974 0.05455 0.0
H889 H 0.01711 0.18968 0.12344 0.0
H890 H 0.01104 0.17103 0.09642 0.0
H891 H 0.05966 0.14965 0.07012 0.0
H892 H 0.04612 0.0674 0.02034 0.0
H893 H 0.05203 0.09531 0.03917 0.0
H894 H -0.00042 0.11356 0.06545 0.0
C895 C 0.02399 0.16894 0.10387 0.0
C896 C 0.04644 0.14194 0.06904 0.0
C897 C 0.02749 0.17959 0.11931 0.0
C898 C 0.03458 0.07665 0.02321 0.0
C899 C 0.03796 0.09273 0.03395 0.0
C900 C 0.01254 0.12173 0.06591 0.0
C901 C 0.03714 0.15583 0.09802 0.0
C902 C 0.03307 0.14401 0.08208 0.0
C903 C 0.02309 0.10434 0.039 0.0
C904 C 0.02605 0.1192 0.053 0.0
H905 H 0.0702 0.16182 0.1309 0.0
H906 H 0.06407 0.14324 0.10374 0.0
H907 H 0.00553 0.13532 0.09022 0.0
H908 H -0.01263 0.08061 0.01718 0.0
H909 H -0.00666 0.10919 0.03519 0.0
C910 C 0.08756 0.7397 0.36914 0.0
C911 C 0.07056 0.73675 0.35969 0.0
C912 C 0.10448 0.73968 0.36038 0.0
C913 C 0.12608 0.72455 0.31879 0.0
H914 H 0.16227 0.7646 0.33092 0.0
C915 C 0.19023 0.74079 0.27644 0.0
C916 C 0.20719 0.74498 0.2856 0.0
C917 C 0.17358 0.73911 0.28556 0.0
C918 C 0.15241 0.75319 0.32751 0.0
H919 H 0.05796 0.73103 0.33373 0.0
H920 H 0.0874 0.73114 0.31848 0.0
H921 H 0.13343 0.76235 0.34707 0.0
H922 H 0.22001 0.75046 0.31155 0.0
H923 H 0.19112 0.74737 0.32735 0.0
H924 H 0.14507 0.71547 0.29914 0.0
C925 C 0.08772 0.7333 0.33265 0.0
C926 C 0.1359 0.75189 0.33679 0.0
C927 C 0.07083 0.73336 0.34139 0.0
C928 C 0.20717 0.74733 0.30405 0.0
C929 C 0.19059 0.74566 0.31312 0.0
C930 C 0.14262 0.72586 0.3095 0.0
C931 C 0.10472 0.73665 0.34201 0.0
C932 C 0.12254 0.73758 0.33251 0.0
C933 C 0.17359 0.74162 0.304 0.0
C934 C 0.15596 0.74021 0.31375 0.0
H935 H 0.08779 0.74228 0.38327 0.0
H936 H 0.11738 0.74206 0.36799 0.0
H937 H 0.11615 0.71323 0.31532 0.0
H938 H 0.18978 0.7389 0.26223 0.0
H939 H 0.16066 0.73617 0.27813 0.0
C940 C 0.50108 0.77593 0.61371 0.0
C941 C 0.50405 0.77562 0.63208 0.0
C942 C 0.49782 0.79305 0.60525 0.0
C943 C 0.51132 0.84277 0.61214 0.0
H944 H 0.48614 0.84836 0.56658 0.0
C945 C 0.51801 0.91031 0.57019 0.0
C946 C 0.52133 0.90715 0.55219 0.0
C947 C 0.5134 0.89519 0.58099 0.0
C948 C 0.49326 0.84695 0.57929 0.0
H949 H 0.50376 0.79255 0.65623 0.0
H950 H 0.49769 0.82252 0.64143 0.0
H951 H 0.4793 0.82055 0.58429 0.0
H952 H 0.52302 0.88551 0.5316 0.0
H953 H 0.51486 0.85907 0.5505 0.0
H954 H 0.52553 0.86899 0.60697 0.0
C955 C 0.49839 0.80958 0.63354 0.0
C956 C 0.4893 0.8311 0.58945 0.0
C957 C 0.50172 0.7924 0.64202 0.0
C958 C 0.52033 0.88845 0.54534 0.0
C959 C 0.51559 0.87334 0.55613 0.0
C960 C 0.51516 0.85868 0.60204 0.0
C961 C 0.49737 0.8102 0.61501 0.0
C962 C 0.49868 0.82857 0.60577 0.0
C963 C 0.51187 0.87662 0.574 0.0
C964 C 0.50654 0.86065 0.58533 0.0
H965 H 0.50262 0.76317 0.6057 0.0
H966 H 0.49716 0.79296 0.59097 0.0
H967 H 0.51907 0.84114 0.62449 0.0
H968 H 0.51824 0.92457 0.57584 0.0
H969 H 0.5105 0.89811 0.5947 0.0
C970 C 0.45333 0.24504 0.85449 0.0
C971 C 0.46765 0.25282 0.84441 0.0
C972 C 0.43495 0.24386 0.84766 0.0
C973 C 0.40745 0.24348 0.80584 0.0
H974 H 0.36724 0.26255 0.83407 0.0
C975 C 0.33551 0.26031 0.77493 0.0
C976 C 0.3196 0.25529 0.78431 0.0
C977 C 0.35332 0.25918 0.78284 0.0
C978 C 0.37826 0.25692 0.8261 0.0
H979 H 0.47395 0.2651 0.81915 0.0
H980 H 0.44204 0.26296 0.80732 0.0
H981 H 0.39888 0.26104 0.84695 0.0
H982 H 0.30984 0.24537 0.80942 0.0
H983 H 0.34096 0.24318 0.82314 0.0
H984 H 0.38697 0.23938 0.78499 0.0
C985 C 0.445 0.25772 0.82045 0.0
C986 C 0.39636 0.25605 0.83349 0.0
C987 C 0.46327 0.25906 0.82729 0.0
C988 C 0.32184 0.2494 0.80185 0.0
C989 C 0.33967 0.2482 0.80974 0.0
C990 C 0.38938 0.24426 0.7985 0.0
C991 C 0.43063 0.25023 0.83058 0.0
C992 C 0.41117 0.2496 0.82333 0.0
C993 C 0.35562 0.25294 0.80027 0.0
C994 C 0.37463 0.25127 0.80844 0.0
H995 H 0.45626 0.24013 0.86773 0.0
H996 H 0.42413 0.23791 0.85571 0.0
H997 H 0.41856 0.23816 0.7978 0.0
H998 H 0.33425 0.265 0.76142 0.0
H999 H 0.3653 0.26329 0.77529 0.0
C1000 C 0.00934 0.80529 0.42046 0.0
C1001 C 0.016 0.80626 0.40323 0.0
C1002 C 0.00635 0.82193 0.4303 0.0
C1003 C -0.00196 0.87322 0.42487 0.0
H1004 H 0.01423 0.87761 0.47402 0.0
C1005 C 0.00523 0.94525 0.46167 0.0
C1006 C 0.00041 0.94629 0.47948 0.0
C1007 C 0.00519 0.92778 0.45267 0.0
C1008 C 0.00935 0.87651 0.46039 0.0
H1009 H 0.02507 0.82554 0.383 0.0
H1010 H 0.02001 0.8544 0.40017 0.0
H1011 H 0.01833 0.84766 0.45793 0.0
H1012 H -0.00877 0.92984 0.50166 0.0
H1013 H -0.00899 0.89929 0.48583 0.0
H1014 H -0.01076 0.90208 0.42723 0.0
C1015 C 0.01682 0.84081 0.40598 0.0
C1016 C 0.01173 0.85936 0.45117 0.0
C1017 C 0.01986 0.82422 0.39619 0.0
C1018 C -0.00494 0.92952 0.48795 0.0
C1019 C -0.00495 0.912 0.47893 0.0
C1020 C -0.00436 0.89033 0.43408 0.0
C1021 C 0.00988 0.83987 0.42308 0.0
C1022 C 0.00636 0.85764 0.43323 0.0
C1023 C 0.00033 0.91092 0.46124 0.0
C1024 C 0.00151 0.89226 0.45187 0.0
H1025 H 0.0062 0.79169 0.42628 0.0
H1026 H 0.0009 0.82076 0.44341 0.0
H1027 H -0.00659 0.87221 0.41116 0.0
H1028 H 0.00945 0.95789 0.45475 0.0
H1029 H 0.00956 0.92742 0.43912 0.0
C1030 C 0.48423 0.69115 0.68459 0.0
C1031 C 0.50212 0.68831 0.69211 0.0
C1032 C 0.46833 0.68523 0.69326 0.0
C1033 C 0.45253 0.6801 0.73758 0.0
H1034 H 0.4065 0.66439 0.71284 0.0
C1035 C 0.36698 0.67876 0.74646 0.0
C1036 C 0.36527 0.69786 0.75201 0.0
C1037 C 0.38446 0.67152 0.74233 0.0
C1038 C 0.41926 0.66834 0.72011 0.0
H1039 H 0.51746 0.67616 0.71419 0.0
H1040 H 0.48947 0.66604 0.72958 0.0
H1041 H 0.43625 0.6612 0.69827 0.0
H1042 H 0.38077 0.72409 0.75799 0.0
H1043 H 0.41103 0.71144 0.75106 0.0
H1044 H 0.43545 0.68815 0.75909 0.0
C1045 C 0.48785 0.67284 0.71692 0.0
C1046 C 0.43627 0.66667 0.71171 0.0
C1047 C 0.50383 0.6786 0.70812 0.0
C1048 C 0.38153 0.70924 0.75409 0.0
C1049 C 0.39895 0.70197 0.75012 0.0
C1050 C 0.43552 0.68182 0.74597 0.0
C1051 C 0.46994 0.67644 0.70972 0.0
C1052 C 0.45295 0.6734 0.72005 0.0
C1053 C 0.40056 0.68317 0.74384 0.0
C1054 C 0.41865 0.67682 0.73699 0.0
H1055 H 0.48244 0.69844 0.6722 0.0
H1056 H 0.45474 0.68847 0.68748 0.0
H1057 H 0.46514 0.68544 0.74434 0.0
H1058 H 0.35479 0.6695 0.74502 0.0
H1059 H 0.38533 0.65694 0.7376 0.0
C1060 C 0.50688 0.17516 0.90574 0.0
C1061 C 0.51351 0.19186 0.91439 0.0
C1062 C 0.50652 0.15788 0.91458 0.0
C1063 C 0.50823 0.13697 0.95911 0.0
H1064 H 0.52329 0.09173 0.93356 0.0
C1065 C 0.51967 0.06493 -0.00674 0.0
C1066 C 0.51202 0.04874 0.98444 0.0
C1067 C 0.5204 0.08245 0.98482 0.0
C1068 C 0.5189 0.1042 0.94083 0.0
H1069 H 0.52464 0.20362 0.93922 0.0
H1070 H 0.52421 0.17341 0.9546 0.0
H1071 H 0.52295 0.12227 0.91883 0.0
H1072 H 0.49946 0.0382 0.95971 0.0
H1073 H 0.50074 0.06873 0.94502 0.0
H1074 H 0.50426 0.11884 0.98115 0.0
C1075 C 0.51908 0.17369 0.94103 0.0
C1076 C 0.51866 0.12171 0.93238 0.0
C1077 C 0.51939 0.191 0.9322 0.0
C1078 C 0.50546 0.05038 0.96689 0.0
C1079 C 0.50627 0.06786 0.95843 0.0
C1080 C 0.50853 0.11945 0.96759 0.0
C1081 C 0.51283 0.15688 0.93227 0.0
C1082 C 0.51322 0.1383 0.94138 0.0
C1083 C 0.51359 0.08414 0.96734 0.0
C1084 C 0.51379 0.10285 0.95851 0.0
H1085 H 0.50216 0.17535 0.89204 0.0
H1086 H 0.50128 0.14529 0.90752 0.0
H1087 H 0.50375 0.1494 0.96637 0.0
H1088 H 0.52485 0.06416 0.00679 0.0
H1089 H 0.52633 0.09468 -0.00803 0.0
C1090 C 0.11194 0.25166 0.15508 0.0
C1091 C 0.10165 0.24884 0.17034 0.0
C1092 C 0.12886 0.26188 0.15604 0.0
C1093 C 0.1698 0.26768 0.16847 0.0
H1094 H 0.1775 0.31068 0.20071 0.0
C1095 C 0.21776 0.28093 0.23048 0.0
C1096 C 0.23422 0.27279 0.22442 0.0
C1097 C 0.20429 0.28748 0.21851 0.0
C1098 C 0.17565 0.29886 0.19144 0.0
H1099 H 0.10053 0.25504 0.19839 0.0
H1100 H 0.13 0.27276 0.20007 0.0
H1101 H 0.1461 0.30307 0.18892 0.0
H1102 H 0.25069 0.26754 0.20131 0.0
H1103 H 0.22711 0.27908 0.18038 0.0
H1104 H 0.19878 0.26212 0.17233 0.0
C1105 C 0.12497 0.26725 0.18735 0.0
C1106 C 0.1577 0.29455 0.18469 0.0
C1107 C 0.10826 0.25683 0.18645 0.0
C1108 C 0.23793 0.27337 0.20634 0.0
C1109 C 0.22444 0.28 0.19434 0.0
C1110 C 0.1877 0.27186 0.17536 0.0
C1111 C 0.13552 0.26971 0.17221 0.0
C1112 C 0.1545 0.27816 0.17413 0.0
C1113 C 0.20702 0.28605 0.20024 0.0
C1114 C 0.19053 0.28664 0.18795 0.0
H1115 H 0.10708 0.24574 0.14246 0.0
H1116 H 0.13686 0.26345 0.14423 0.0
H1117 H 0.16771 0.25499 0.16031 0.0
H1118 H 0.21464 0.28099 0.24436 0.0
H1119 H 0.19104 0.29194 0.22361 0.0
C1120 C 0.07924 0.97938 0.17928 0.0
C1121 C 0.09882 0.97854 0.18104 0.0
C1122 C 0.07045 0.97884 0.16258 0.0
C1123 C 0.0805 -0.0098 0.11677 0.0
H1124 H 0.03242 0.96576 0.10619 0.0
C1125 C 0.04683 -0.00799 0.04737 0.0
C1126 C 0.0278 -0.00331 0.04627 0.0
C1127 C 0.05524 0.98734 0.06351 0.0
C1128 C 0.0458 0.97273 0.10901 0.0
H1129 H 0.12447 0.97534 0.16681 0.0
H1130 H 0.10911 0.97411 0.1377 0.0
H1131 H 0.04779 0.96145 0.13505 0.0
H1132 H 0.00252 -0.00049 0.06114 0.0
H1133 H 0.01733 -0.00847 0.08944 0.0
H1134 H 0.07847 0.00171 0.09093 0.0
C1135 C 0.10058 0.97562 0.14918 0.0
C1136 C 0.0546 0.97027 0.12551 0.0
C1137 C 0.10936 0.97623 0.16585 0.0
C1138 C 0.01722 -0.00401 0.06157 0.0
C1139 C 0.02567 -0.00868 0.07775 0.0
C1140 C 0.07175 -0.00737 0.10032 0.0
C1141 C 0.08107 0.97739 0.14733 0.0
C1142 C 0.07202 0.97905 0.12958 0.0
C1143 C 0.04485 0.98727 0.07893 0.0
C1144 C 0.05428 0.984 0.09627 0.0
H1145 H 0.07075 0.98114 0.19075 0.0
H1146 H 0.05541 0.98039 0.16161 0.0
H1147 H 0.09371 -0.00249 0.1196 0.0
H1148 H 0.05535 -0.00777 0.03581 0.0
H1149 H 0.06998 0.98396 0.06394 0.0
C1150 C 0.2591 0.83956 0.47958 0.0
C1151 C 0.25158 0.85792 0.47877 0.0
C1152 C 0.2641 0.82995 0.4642 0.0
C1153 C 0.27859 0.83934 0.41932 0.0
H1154 H 0.26525 0.78646 0.40963 0.0
C1155 C 0.28251 0.80518 0.35041 0.0
C1156 C 0.28695 0.78584 0.34876 0.0
C1157 C 0.28068 0.81364 0.367 0.0
C1158 C 0.26942 0.80113 0.41229 0.0
H1159 H 0.2428 0.88029 0.46108 0.0
H1160 H 0.25152 0.86347 0.43428 0.0
H1161 H 0.25601 0.80156 0.43718 0.0
H1162 H 0.294 0.76047 0.36323 0.0
H1163 H 0.29102 0.77535 0.39236 0.0
H1164 H 0.29199 0.83902 0.39451 0.0
C1165 C 0.25372 0.85664 0.44685 0.0
C1166 C 0.26402 0.80978 0.42802 0.0
C1167 C 0.24858 0.86618 0.4622 0.0
C1168 C 0.29037 0.77535 0.36411 0.0
C1169 C 0.28859 0.78385 0.38076 0.0
C1170 C 0.2841 0.83068 0.40368 0.0
C1171 C 0.26181 0.83858 0.44773 0.0
C1172 C 0.26828 0.82906 0.43152 0.0
C1173 C 0.28332 0.80298 0.38237 0.0
C1174 C 0.27929 0.81157 0.39983 0.0
H1175 H 0.26156 0.83278 0.49214 0.0
H1176 H 0.27033 0.81605 0.46524 0.0
H1177 H 0.28239 0.85413 0.42187 0.0
H1178 H 0.27943 0.81357 0.33887 0.0
H1179 H 0.27631 0.82831 0.36773 0.0
C1180 C 0.40822 0.01917 0.66759 0.0
C1181 C 0.41601 0.02103 0.68474 0.0
C1182 C 0.41937 0.02174 0.653 0.0
C1183 C 0.46846 0.01889 0.64047 0.0
H1184 H 0.44902 0.03952 0.59667 0.0
C1185 C 0.48989 0.03144 0.5632 0.0
C1186 C 0.49705 0.01334 0.5595 0.0
C1187 C 0.48265 0.03558 0.57969 0.0
C1188 C 0.45483 0.03402 0.60887 0.0
H1189 H 0.44132 0.02798 0.70013 0.0
H1190 H 0.4607 0.03277 0.67465 0.0
H1191 H 0.43067 0.04184 0.62309 0.0
H1192 H 0.50321 0.98575 0.57048 0.0
H1193 H 0.49029 -0.00717 0.59909 0.0
H1194 H 0.49262 0.01103 0.62624 0.0
C1195 C 0.4461 0.02893 0.67246 0.0
C1196 C 0.44418 0.03512 0.62395 0.0
C1197 C 0.43497 0.02627 0.68704 0.0
C1198 C 0.49777 -0.00018 0.57292 0.0
C1199 C 0.49045 0.00394 0.58937 0.0
C1200 C 0.47915 0.01785 0.6254 0.0
C1201 C 0.43851 0.02633 0.65528 0.0
C1202 C 0.45069 0.02718 0.63982 0.0
C1203 C 0.48237 0.02169 0.59278 0.0
C1204 C 0.47226 0.025 0.60933 0.0
H1205 H 0.39367 0.01515 0.66541 0.0
H1206 H 0.41313 0.0194 0.63995 0.0
H1207 H 0.47383 0.01249 0.65244 0.0
H1208 H 0.48932 0.04223 0.55317 0.0
H1209 H 0.47684 0.04951 0.58203 0.0
C1210 C 0.29943 0.13515 0.95567 0.0
C1211 C 0.29105 0.14216 0.97093 0.0
C1212 C 0.29988 0.1462 0.94058 0.0
C1213 C 0.28963 0.19335 0.92172 0.0
H1214 H 0.26303 0.16311 0.88554 0.0
C1215 C 0.25027 0.22764 0.86314 0.0
C1216 C 0.25143 0.2185 0.84661 0.0
C1217 C 0.25697 0.21877 0.87837 0.0
C1218 C 0.27074 0.17174 0.89532 0.0
H1219 H 0.27909 0.16708 0.98323 0.0
H1220 H 0.27987 0.18633 0.9569 0.0
H1221 H 0.27528 0.14783 0.91176 0.0
H1222 H 0.26057 0.19303 0.83303 0.0
H1223 H 0.27234 0.1777 0.85941 0.0
H1224 H 0.2849 0.21733 0.90524 0.0
C1225 C 0.28592 0.17229 0.9565 0.0
C1226 C 0.27784 0.16295 0.91033 0.0
C1227 C 0.28539 0.16122 0.97156 0.0
C1228 C 0.25903 0.20022 0.84564 0.0
C1229 C 0.26587 0.19147 0.86078 0.0
C1230 C 0.28268 0.20216 0.90655 0.0
C1231 C 0.29209 0.16443 0.9406 0.0
C1232 C 0.28717 0.17367 0.92377 0.0
C1233 C 0.26512 0.2007 0.87731 0.0
C1234 C 0.27294 0.19146 0.89328 0.0
H1235 H 0.30412 0.12058 0.95485 0.0
H1236 H 0.30503 0.13998 0.92853 0.0
H1237 H 0.29674 0.20192 0.93193 0.0
H1238 H 0.2445 0.24176 0.86421 0.0
H1239 H 0.25585 0.22611 0.89095 0.0
C1240 C 0.10083 0.00735 0.29408 0.0
C1241 C 0.08927 0.01387 0.2802 0.0
C1242 C 0.09634 0.01096 0.31162 0.0
C1243 C 0.05648 0.02222 0.33919 0.0
H1244 H 0.0947 0.03696 0.37434 0.0
C1245 C 0.03668 0.03939 0.41003 0.0
C1246 C 0.04748 0.03056 0.42322 0.0
C1247 C 0.04293 0.04019 0.39281 0.0
C1248 C 0.0839 0.03277 0.36468 0.0
H1249 H 0.06399 0.02941 0.2739 0.0
H1250 H 0.05624 0.03572 0.30443 0.0
H1251 H 0.10322 0.03208 0.34363 0.0
H1252 H 0.07369 0.01656 0.42902 0.0
H1253 H 0.08457 0.01778 0.39887 0.0
H1254 H 0.03722 0.02252 0.36014 0.0
C1255 C 0.06867 0.02765 0.30176 0.0
C1256 C 0.08878 0.02994 0.34712 0.0
C1257 C 0.07315 0.02408 0.28425 0.0
C1258 C 0.06516 0.02358 0.41912 0.0
C1259 C 0.07137 0.02428 0.40185 0.0
C1260 C 0.05162 0.02501 0.35669 0.0
C1261 C 0.08019 0.02113 0.31563 0.0
C1262 C 0.07511 0.02456 0.33421 0.0
C1263 C 0.06005 0.03206 0.3884 0.0
C1264 C 0.06527 0.03025 0.36966 0.0
H1265 H 0.11336 -0.00053 0.29143 0.0
H1266 H 0.10537 0.00555 0.32203 0.0
H1267 H 0.04569 0.01777 0.32962 0.0
H1268 H 0.02312 0.04514 0.41293 0.0
H1269 H 0.03408 0.04668 0.38284 0.0
C1270 C 0.27486 0.84229 0.59653 0.0
C1271 C 0.26715 0.83611 0.58014 0.0
C1272 C 0.27723 0.82949 0.61027 0.0
C1273 C 0.28824 0.79742 0.63478 0.0
H1274 H 0.2449 0.76584 0.64433 0.0
C1275 C 0.28648 0.74999 0.69579 0.0
C1276 C 0.27076 0.753 0.70612 0.0
C1277 C 0.28677 0.75652 0.6785 0.0
C1278 C 0.25715 0.77448 0.64175 0.0
H1279 H 0.25646 0.81155 0.5651 0.0
H1280 H 0.26056 0.78922 0.58915 0.0
H1281 H 0.24505 0.78489 0.61772 0.0
H1282 H 0.24259 0.76405 0.70607 0.0
H1283 H 0.2431 0.77533 0.67592 0.0
H1284 H 0.30003 0.7876 0.65916 0.0
C1285 C 0.26465 0.80399 0.59138 0.0
C1286 C 0.2573 0.78527 0.62647 0.0
C1287 C 0.26238 0.81676 0.57761 0.0
C1288 C 0.25494 0.76159 0.69847 0.0
C1289 C 0.25519 0.76796 0.68116 0.0
C1290 C 0.28813 0.78654 0.65001 0.0
C1291 C 0.27186 0.81027 0.60792 0.0
C1292 C 0.27267 0.79719 0.62304 0.0
C1293 C 0.27129 0.76597 0.67117 0.0
C1294 C 0.27241 0.7753 0.65385 0.0
H1295 H 0.27869 0.85711 0.59888 0.0
H1296 H 0.28264 0.83479 0.62294 0.0
H1297 H 0.30034 0.80634 0.63237 0.0
H1298 H 0.29888 0.74339 0.70131 0.0
H1299 H 0.2993 0.75463 0.67102 0.0
C1300 C 0.40625 -0.00758 0.79536 0.0
C1301 C 0.41815 0.98495 0.78262 0.0
C1302 C 0.40944 0.98873 0.81324 0.0
C1303 C 0.44697 0.97454 0.84437 0.0
H1304 H 0.40641 0.96364 0.87567 0.0
C1305 C 0.46339 0.95461 0.91515 0.0
C1306 C 0.4543 0.96555 0.92784 0.0
C1307 C 0.45673 0.954 0.89771 0.0
C1308 C 0.41784 0.9667 0.86706 0.0
H1309 H 0.44254 0.96752 0.77868 0.0
H1310 H 0.44793 0.96096 0.8097 0.0
H1311 H 0.39949 0.96934 0.84439 0.0
H1312 H 0.43039 0.98321 0.93272 0.0
H1313 H 0.41874 0.98232 0.90204 0.0
H1314 H 0.46531 0.97211 0.86687 0.0
C1315 C 0.43634 0.96994 0.80595 0.0
C1316 C 0.41389 0.97004 0.8492 0.0
C1317 C 0.43322 0.97367 0.78813 0.0
C1318 C 0.43756 0.9746 0.92314 0.0
C1319 C 0.43092 0.97409 0.9056 0.0
C1320 C 0.4509 0.97115 0.8621 0.0
C1321 C 0.42457 0.97749 0.81872 0.0
C1322 C 0.42846 0.97397 0.83768 0.0
C1323 C 0.44094 0.96446 0.8926 0.0
C1324 C 0.43641 0.96714 0.87364 0.0
H1325 H 0.3945 0.00114 0.79154 0.0
H1326 H 0.40026 -0.00507 0.82279 0.0
H1327 H 0.45848 0.97795 0.83595 0.0
H1328 H 0.47622 0.94733 0.91855 0.0
H1329 H 0.46447 0.94609 0.88803 0.0
C1330 C 0.23805 0.14129 0.05656 0.0
C1331 C 0.23921 0.12148 0.05817 0.0
C1332 C 0.24149 0.15322 0.07122 0.0
C1333 C 0.25285 0.1533 0.11979 0.0
H1334 H 0.28501 0.19588 0.10787 0.0
C1335 C 0.30413 0.18933 0.16969 0.0
C1336 C 0.2979 0.20756 0.17443 0.0
C1337 C 0.29722 0.18028 0.15428 0.0
C1338 C 0.27603 0.18403 0.1113 0.0
H1339 H 0.24315 0.09848 0.07647 0.0
H1340 H 0.24983 0.11912 0.10187 0.0
H1341 H 0.26895 0.17733 0.08439 0.0
H1342 H 0.28106 0.23131 0.16553 0.0
H1343 H 0.26997 0.21578 0.13823 0.0
H1344 H 0.26093 0.15961 0.14671 0.0
C1345 C 0.2459 0.12564 0.08951 0.0
C1346 C 0.26659 0.17354 0.09793 0.0
C1347 C 0.24202 0.11372 0.07492 0.0
C1348 C 0.28637 0.21736 0.16235 0.0
C1349 C 0.27981 0.20844 0.14676 0.0
C1350 C 0.26262 0.16355 0.1331 0.0
C1351 C 0.24664 0.14554 0.08763 0.0
C1352 C 0.25498 0.15792 0.10199 0.0
C1353 C 0.28447 0.18954 0.14311 0.0
C1354 C 0.27439 0.17884 0.1289 0.0
H1355 H 0.23575 0.14758 0.04375 0.0
H1356 H 0.24124 0.16846 0.06941 0.0
H1357 H 0.24379 0.14165 0.12348 0.0
H1358 H 0.31337 0.18155 0.17843 0.0
H1359 H 0.30115 0.16573 0.15148 0.0
C1360 C 0.23074 0.05516 0.96337 0.0
C1361 C 0.22612 0.07296 0.97056 0.0
C1362 C 0.21779 0.04492 0.95268 0.0
C1363 C 0.18316 0.02062 0.94665 0.0
H1364 H 0.14039 0.04545 0.92524 0.0
C1365 C 0.11044 0.00293 0.96548 0.0
C1366 C 0.09489 0.00848 0.95524 0.0
C1367 C 0.12841 0.00509 0.95918 0.0
C1368 C 0.1523 0.03794 0.93066 0.0
H1369 H 0.20491 0.09462 0.97134 0.0
H1370 H 0.18201 0.07654 0.9536 0.0
H1371 H 0.17019 0.06217 0.9276 0.0
H1372 H 0.08567 0.01866 0.92967 0.0
H1373 H 0.11718 0.02221 0.91845 0.0
H1374 H 0.16522 -0.00355 0.94983 0.0
C1375 C 0.19574 0.07053 0.95564 0.0
C1376 C 0.16938 0.04772 0.93228 0.0
C1377 C 0.20879 0.08086 0.96606 0.0
C1378 C 0.09751 0.01465 0.93796 0.0
C1379 C 0.11553 0.01665 0.93155 0.0
C1380 C 0.1662 0.01068 0.94464 0.0
C1381 C 0.19985 0.05216 0.94924 0.0
C1382 C 0.18452 0.03977 0.94166 0.0
C1383 C 0.13124 0.01274 0.94241 0.0
C1384 C 0.15019 0.01984 0.93804 0.0
H1385 H 0.2442 0.04891 0.96637 0.0
H1386 H 0.22159 0.03102 0.9477 0.0
H1387 H 0.19453 0.01382 0.95372 0.0
H1388 H 0.10887 -0.00175 0.9789 0.0
H1389 H 0.14006 0.0022 0.96812 0.0
C1390 C 0.68056 0.3913 0.03699 0.0
C1391 C 0.69672 0.40073 0.0438 0.0
C1392 C 0.66381 0.4011 0.03489 0.0
C1393 C 0.63898 0.44393 0.04931 0.0
H1394 H 0.61188 0.43761 0.00449 0.0
C1395 C 0.56469 0.47249 0.03609 0.0
C1396 C 0.56089 0.48067 0.01961 0.0
C1397 C 0.58174 0.46371 0.03956 0.0
C1398 C 0.61938 0.43963 0.01701 0.0
H1399 H 0.70786 0.42758 0.05438 0.0
H1400 H 0.6786 0.44463 0.05079 0.0
H1401 H 0.64033 0.41964 0.01006 0.0
H1402 H 0.5722 0.48656 -0.00598 0.0
H1403 H 0.60206 0.47116 0.00011 0.0
H1404 H 0.61806 0.46401 0.0562 0.0
C1405 C 0.67887 0.42969 0.04708 0.0
C1406 C 0.63552 0.42917 0.02029 0.0
C1407 C 0.69564 0.41993 0.04906 0.0
C1408 C 0.57471 0.48036 0.00683 0.0
C1409 C 0.59173 0.47144 0.01027 0.0
C1410 C 0.62276 0.4543 0.04608 0.0
C1411 C 0.66287 0.42046 0.03971 0.0
C1412 C 0.64548 0.43121 0.03647 0.0
C1413 C 0.59531 0.46282 0.02659 0.0
C1414 C 0.61281 0.45227 0.02988 0.0
H1415 H 0.68097 0.37649 0.03285 0.0
H1416 H 0.65161 0.39358 0.02939 0.0
H1417 H 0.64633 0.44572 0.06193 0.0
H1418 H 0.55434 0.47253 0.04623 0.0
H1419 H 0.58405 0.45706 0.0522 0.0
C1420 C 0.87377 0.42025 0.218 0.0
C1421 C 0.86675 0.43826 0.22231 0.0
C1422 C 0.86362 0.40378 0.22168 0.0
C1423 C 0.8175 0.38429 0.23197 0.0
H1424 H 0.84628 0.34763 0.25864 0.0
C1425 C 0.78295 0.31805 0.26219 0.0
C1426 C 0.79274 0.30094 0.26067 0.0
C1427 C 0.79154 0.33536 0.25812 0.0
C1428 C 0.83807 0.35758 0.25103 0.0
H1429 H 0.84293 0.45312 0.23267 0.0
H1430 H 0.82511 0.42422 0.2389 0.0
H1431 H 0.86152 0.37644 0.24851 0.0
H1432 H 0.81931 0.28859 0.254 0.0
H1433 H 0.83408 0.31856 0.2466 0.0
H1434 H 0.79411 0.36524 0.23416 0.0
C1435 C 0.83855 0.42294 0.23281 0.0
C1436 C 0.84681 0.37408 0.24524 0.0
C1437 C 0.84878 0.43946 0.22927 0.0
C1438 C 0.8114 0.30153 0.25541 0.0
C1439 C 0.81991 0.31876 0.25124 0.0
C1440 C 0.80876 0.36764 0.23761 0.0
C1441 C 0.84617 0.40497 0.22957 0.0
C1442 C 0.83666 0.38752 0.23556 0.0
C1443 C 0.81005 0.33587 0.25237 0.0
C1444 C 0.81899 0.35403 0.24711 0.0
H1445 H 0.88751 0.41878 0.21253 0.0
H1446 H 0.86965 0.39006 0.21879 0.0
H1447 H 0.80939 0.39444 0.22449 0.0
H1448 H 0.76856 0.31806 0.26625 0.0
H1449 H 0.78365 0.34832 0.25942 0.0
C1450 C 0.81598 0.54384 0.54177 0.0
C1451 C 0.80635 0.55515 0.52958 0.0
C1452 C 0.83038 0.53219 0.53629 0.0
C1453 C 0.86429 0.52985 0.50103 0.0
H1454 H 0.88063 0.4858 0.52711 0.0
C1455 C 0.9377 0.50154 0.52563 0.0
C1456 C 0.94746 0.4995 0.50995 0.0
C1457 C 0.9183 0.50298 0.52508 0.0
C1458 C 0.87606 0.49791 0.51955 0.0
H1459 H 0.80307 0.56213 0.50194 0.0
H1460 H 0.82779 0.54128 0.49222 0.0
H1461 H 0.84908 0.49776 0.53091 0.0
H1462 H 0.94468 0.49684 0.48145 0.0
H1463 H 0.91062 0.5001 0.4805 0.0
H1464 H 0.89145 0.53019 0.49 0.0
C1465 C 0.82473 0.54188 0.50611 0.0
C1466 C 0.85811 0.50486 0.5218 0.0
C1467 C 0.81057 0.5538 0.51166 0.0
C1468 C 0.93746 0.49847 0.49372 0.0
C1469 C 0.91805 0.50026 0.49316 0.0
C1470 C 0.8821 0.5227 0.49857 0.0
C1471 C 0.83519 0.53138 0.51844 0.0
C1472 C 0.85235 0.52145 0.51319 0.0
C1473 C 0.90839 0.50269 0.50883 0.0
C1474 C 0.88837 0.5072 0.50838 0.0
H1475 H 0.81298 0.54461 0.55568 0.0
H1476 H 0.83831 0.5246 0.54622 0.0
H1477 H 0.86049 0.54276 0.49431 0.0
H1478 H 0.94507 0.50219 0.53832 0.0
H1479 H 0.91113 0.50514 0.53732 0.0
C1480 C 0.16357 0.05561 0.22845 0.0
C1481 C 0.14546 0.05516 0.22072 0.0
C1482 C 0.17415 0.07247 0.22905 0.0
C1483 C 0.16834 0.12426 0.2286 0.0
H1484 H 0.22216 0.12479 0.22379 0.0
C1485 C 0.23489 0.1808 0.22874 0.0
C1486 C 0.23083 0.19183 0.24373 0.0
C1487 C 0.22405 0.16471 0.22413 0.0
C1488 C 0.20711 0.12494 0.22496 0.0
H1489 H 0.12459 0.0719 0.20688 0.0
H1490 H 0.14317 0.10123 0.20776 0.0
H1491 H 0.2044 0.09536 0.21807 0.0
H1492 H 0.21204 0.19481 0.2655 0.0
H1493 H 0.19327 0.16658 0.2576 0.0
H1494 H 0.17103 0.15386 0.23541 0.0
C1495 C 0.14903 0.08862 0.21364 0.0
C1496 C 0.19697 0.10803 0.22188 0.0
C1497 C 0.13843 0.07177 0.21306 0.0
C1498 C 0.2155 0.18663 0.25385 0.0
C1499 C 0.20468 0.17051 0.24926 0.0
C1500 C 0.17848 0.14117 0.23167 0.0
C1501 C 0.16688 0.08923 0.2219 0.0
C1502 C 0.17751 0.10745 0.22387 0.0
C1503 C 0.20893 0.15929 0.23443 0.0
C1504 C 0.198 0.14164 0.2301 0.0
H1505 H 0.16942 0.04308 0.23449 0.0
H1506 H 0.18777 0.07251 0.23569 0.0
H1507 H 0.15339 0.12426 0.23043 0.0
H1508 H 0.24655 0.18449 0.2206 0.0
H1509 H 0.22751 0.1565 0.2125 0.0
C1510 C 0.30822 0.93019 0.5102 0.0
C1511 C 0.30346 0.91959 0.52496 0.0
C1512 C 0.32654 0.93651 0.50812 0.0
C1513 C 0.37548 0.92936 0.52449 0.0
H1514 H 0.38321 0.97701 0.5006 0.0
C1515 C 0.44922 0.95493 0.5057 0.0
C1516 C 0.45299 0.97458 0.50637 0.0
C1517 C 0.431 0.948 0.50769 0.0
C1518 C 0.38141 0.96381 0.50754 0.0
H1519 H 0.31404 0.9074 0.54924 0.0
H1520 H 0.34601 0.91935 0.54615 0.0
H1521 H 0.35176 0.96614 0.50599 0.0
H1522 H 0.44083 0.0024 0.50993 0.0
H1523 H 0.40938 -0.00958 0.51423 0.0
H1524 H 0.40524 0.9277 0.52701 0.0
C1525 C 0.33571 0.92226 0.53585 0.0
C1526 C 0.36325 0.95735 0.51035 0.0
C1527 C 0.31737 0.91554 0.53772 0.0
C1528 C 0.43827 0.98718 0.50907 0.0
C1529 C 0.42018 0.98027 0.51146 0.0
C1530 C 0.3937 0.93604 0.52202 0.0
C1531 C 0.34054 0.93281 0.52097 0.0
C1532 C 0.36 0.93995 0.5187 0.0
C1533 C 0.41626 0.96058 0.51078 0.0
C1534 C 0.39691 0.95332 0.51342 0.0
H1535 H 0.29785 0.93324 0.49997 0.0
H1536 H 0.32973 0.94406 0.49623 0.0
H1537 H 0.37359 0.91578 0.53077 0.0
H1538 H 0.46034 0.94492 0.5036 0.0
H1539 H 0.42851 0.93279 0.50673 0.0
C1540 C 0.86197 0.56432 0.25625 0.0
C1541 C 0.8541 0.54788 0.24808 0.0
C1542 C 0.85125 0.58059 0.25843 0.0
C1543 C 0.83026 0.61581 0.24795 0.0
H1544 H 0.77823 0.61522 0.26099 0.0
C1545 C 0.78507 0.68175 0.23957 0.0
C1546 C 0.77446 0.68699 0.25411 0.0
C1547 C 0.79319 0.66384 0.23868 0.0
C1548 C 0.79277 0.61559 0.25739 0.0
H1549 H 0.82859 0.53527 0.23658 0.0
H1550 H 0.80993 0.56374 0.24026 0.0
H1551 H 0.79596 0.58572 0.26155 0.0
H1552 H 0.7632 0.67718 0.27867 0.0
H1553 H 0.77751 0.64594 0.27715 0.0
H1554 H 0.82724 0.64564 0.24401 0.0
C1555 C 0.82434 0.56402 0.24508 0.0
C1556 C 0.80288 0.59871 0.25761 0.0
C1557 C 0.83506 0.54774 0.2429 0.0
C1558 C 0.77133 0.67358 0.2673 0.0
C1559 C 0.77947 0.65566 0.26641 0.0
C1560 C 0.82017 0.63263 0.24769 0.0
C1561 C 0.83245 0.58076 0.25247 0.0
C1562 C 0.82174 0.59866 0.25289 0.0
C1563 C 0.79088 0.65079 0.25231 0.0
C1564 C 0.80131 0.63271 0.25235 0.0
H1565 H 0.87656 0.56483 0.26049 0.0
H1566 H 0.85779 0.59318 0.26447 0.0
H1567 H 0.84468 0.61621 0.244 0.0
H1568 H 0.78762 0.69169 0.22911 0.0
H1569 H 0.8016 0.66035 0.22747 0.0
C1570 C 0.69334 0.45301 0.74208 0.0
C1571 C 0.67463 0.45134 0.74709 0.0
C1572 C 0.70555 0.43783 0.74429 0.0
C1573 C 0.71237 0.39296 0.76791 0.0
H1574 H 0.73924 0.37722 0.72657 0.0
C1575 C 0.75834 0.32667 0.76846 0.0
C1576 C 0.75439 0.3137 0.75448 0.0
C1577 C 0.75176 0.34525 0.76777 0.0
C1578 C 0.73189 0.38151 0.73823 0.0
H1579 H 0.65425 0.43281 0.75901 0.0
H1580 H 0.6756 0.40639 0.76299 0.0
H1581 H 0.72138 0.40661 0.72603 0.0
H1582 H 0.74139 0.31037 0.72839 0.0
H1583 H 0.72992 0.34285 0.72719 0.0
H1584 H 0.72235 0.36759 0.77992 0.0
C1585 C 0.68083 0.41942 0.75736 0.0
C1586 C 0.72181 0.39839 0.73798 0.0
C1587 C 0.66858 0.43451 0.755 0.0
C1588 C 0.74462 0.32001 0.73939 0.0
C1589 C 0.73813 0.33864 0.73867 0.0
C1590 C 0.72257 0.37618 0.76821 0.0
C1591 C 0.69932 0.4208 0.75173 0.0
C1592 C 0.71165 0.40407 0.7527 0.0
C1593 C 0.74121 0.35128 0.75305 0.0
C1594 C 0.73214 0.3701 0.75326 0.0
H1595 H 0.69841 0.46582 0.73595 0.0
H1596 H 0.71979 0.43932 0.73998 0.0
H1597 H 0.70478 0.39709 0.77948 0.0
H1598 H 0.76593 0.32231 0.78025 0.0
H1599 H 0.75455 0.35478 0.77894 0.0
C1600 C 0.97639 0.82834 0.90813 0.0
C1601 C 0.97571 0.83041 0.88971 0.0
C1602 C 0.97487 0.84418 0.91931 0.0
C1603 C -0.01458 0.89492 0.91906 0.0
H1604 H 0.96228 0.89561 0.96468 0.0
C1605 C 0.97401 0.95306 0.97787 0.0
C1606 C -0.00772 0.96071 0.97891 0.0
C1607 C 0.97015 0.93629 0.96815 0.0
C1608 C 0.96869 0.89562 0.95192 0.0
H1609 H 0.97149 0.85051 0.86861 0.0
H1610 H 0.96868 0.87811 0.88815 0.0
H1611 H 0.95688 0.86832 0.94451 0.0
H1612 H 0.02106 0.9561 0.97178 0.0
H1613 H 0.01435 0.92689 0.95506 0.0
H1614 H -0.00271 0.92204 0.92636 0.0
C1615 C 0.97075 0.86428 0.89391 0.0
C1616 C 0.96568 0.88001 0.94044 0.0
C1617 C 0.97231 0.84845 0.88272 0.0
C1618 C 0.00678 0.95072 0.97101 0.0
C1619 C 0.00294 0.93404 0.96137 0.0
C1620 C -0.01154 0.91039 0.9305 0.0
C1621 C 0.9726 0.86238 0.91229 0.0
C1622 C 0.97418 0.87946 0.92396 0.0
C1623 C 0.98453 0.927 0.95936 0.0
C1624 C 0.98038 0.91078 0.94714 0.0
H1625 H 0.97888 0.81461 0.91396 0.0
H1626 H 0.97647 0.84228 0.93341 0.0
H1627 H -0.00762 0.89482 0.90657 0.0
H1628 H 0.96257 0.96044 0.98388 0.0
H1629 H 0.95584 0.93112 0.96682 0.0
C1630 C 0.95417 0.22763 0.69025 0.0
C1631 C 0.96057 0.23994 0.67725 0.0
C1632 C 0.93645 0.22982 0.69716 0.0
C1633 C 0.89058 0.25268 0.68907 0.0
H1634 H 0.8855 0.24447 0.73912 0.0
C1635 C 0.81868 0.24927 0.72167 0.0
C1636 C 0.81733 0.25665 0.73891 0.0
C1637 C 0.83604 0.24808 0.71379 0.0
C1638 C 0.88669 0.24706 0.72516 0.0
H1639 H 0.95322 0.26408 0.66115 0.0
H1640 H 0.92244 0.26819 0.6735 0.0
H1641 H 0.91584 0.24086 0.72602 0.0
H1642 H 0.83305 0.26913 0.7612 0.0
H1643 H 0.86327 0.26753 0.74731 0.0
H1644 H 0.86151 0.25947 0.68835 0.0
C1645 C 0.93099 0.2566 0.67813 0.0
C1646 C 0.90406 0.24468 0.71758 0.0
C1647 C 0.94869 0.2543 0.6711 0.0
C1648 C 0.83365 0.26323 0.74795 0.0
C1649 C 0.85099 0.2622 0.74001 0.0
C1650 C 0.87321 0.2552 0.69669 0.0
C1651 C 0.92472 0.24449 0.69138 0.0
C1652 C 0.90622 0.24733 0.69941 0.0
C1653 C 0.85244 0.25439 0.72291 0.0
C1654 C 0.87103 0.25232 0.71482 0.0
H1655 H 0.9629 0.2163 0.69517 0.0
H1656 H 0.93194 0.21996 0.70705 0.0
H1657 H 0.89168 0.25469 0.67501 0.0
H1658 H 0.80638 0.24401 0.71436 0.0
H1659 H 0.83663 0.24175 0.70071 0.0
C1660 C 0.50269 0.22784 0.41596 0.0
C1661 C 0.50391 0.22653 0.39752 0.0
C1662 C 0.50069 0.21141 0.42587 0.0
C1663 C 0.48231 0.16276 0.4203 0.0
H1664 H 0.50669 0.15397 0.4657 0.0
C1665 C 0.48435 0.0897 0.45255 0.0
C1666 C 0.48325 0.08872 0.47096 0.0
C1667 C 0.48483 0.10726 0.44432 0.0
C1668 C 0.49953 0.1564 0.45318 0.0
H1669 H 0.50553 0.20702 0.37517 0.0
H1670 H 0.5024 0.17838 0.39251 0.0
H1671 H 0.51368 0.18313 0.44995 0.0
H1672 H 0.48058 0.10533 0.4951 0.0
H1673 H 0.48154 0.13613 0.48066 0.0
H1674 H 0.46831 0.13599 0.42339 0.0
C1675 C 0.50249 0.1921 0.39924 0.0
C1676 C 0.50361 0.17303 0.44414 0.0
C1677 C 0.50446 0.20849 0.38934 0.0
C1678 C 0.48174 0.10566 0.48091 0.0
C1679 C 0.4823 0.12326 0.47267 0.0
C1680 C 0.47823 0.14618 0.42932 0.0
C1681 C 0.4999 0.19343 0.41749 0.0
C1682 C 0.49527 0.17619 0.42748 0.0
C1683 C 0.48425 0.12421 0.45434 0.0
C1684 C 0.48702 0.1427 0.44571 0.0
H1685 H 0.50221 0.24156 0.42263 0.0
H1686 H 0.49875 0.21285 0.43994 0.0
H1687 H 0.4753 0.16507 0.40768 0.0
H1688 H 0.48585 0.07695 0.44453 0.0
H1689 H 0.48658 0.10755 0.4302 0.0
C1690 C 0.58092 0.75448 0.15557 0.0
C1691 C 0.56461 0.75431 0.16543 0.0
C1692 C 0.59849 0.753 0.16396 0.0
C1693 C 0.62285 0.75824 0.20763 0.0
H1694 H 0.66 0.72632 0.1862 0.0
C1695 C 0.69111 0.73827 0.24461 0.0
C1696 C 0.70764 0.7401 0.23517 0.0
C1697 C 0.67366 0.73939 0.23595 0.0
C1698 C 0.64981 0.73539 0.19227 0.0
H1699 H 0.55392 0.75266 0.19183 0.0
H1700 H 0.58449 0.74981 0.20642 0.0
H1701 H 0.62961 0.73017 0.17132 0.0
H1702 H 0.71878 0.74393 0.20914 0.0
H1703 H 0.6883 0.74581 0.19406 0.0
H1704 H 0.64303 0.76332 0.22865 0.0
C1705 C 0.58378 0.75137 0.19224 0.0
C1706 C 0.63242 0.73766 0.18373 0.0
C1707 C 0.56623 0.75291 0.18387 0.0
C1708 C 0.70632 0.74248 0.21681 0.0
C1709 C 0.68886 0.74348 0.20814 0.0
C1710 C 0.6402 0.7559 0.2162 0.0
C1711 C 0.60012 0.75128 0.18239 0.0
C1712 C 0.61873 0.74911 0.19132 0.0
C1713 C 0.67235 0.74223 0.21766 0.0
C1714 C 0.65385 0.74444 0.20862 0.0
H1715 H 0.58012 0.75562 0.14135 0.0
H1716 H 0.61081 0.75328 0.15601 0.0
H1717 H 0.61276 0.76741 0.21371 0.0
H1718 H 0.69164 0.73639 0.25875 0.0
H1719 H 0.66116 0.73811 0.24359 0.0
C1720 C 0.03196 0.17303 0.62313 0.0
C1721 C 0.02038 0.18828 0.61861 0.0
C1722 C 0.03273 0.15694 0.61218 0.0
C1723 C 0.02273 0.11993 0.59365 0.0
H1724 H 0.01839 0.12244 0.54269 0.0
C1725 C 0.00799 0.05299 0.55107 0.0
C1726 C 0.01665 0.05119 0.53475 0.0
C1727 C 0.00926 0.07002 0.56074 0.0
C1728 C 0.01985 0.1215 0.55689 0.0
H1729 H 0.00071 0.19871 0.59887 0.0
H1730 H 0.00155 0.17029 0.57998 0.0
H1731 H 0.01974 0.1518 0.56032 0.0
H1732 H 0.03352 0.06586 0.51582 0.0
H1733 H 0.03616 0.09558 0.53301 0.0
H1734 H 0.02341 0.08975 0.5903 0.0
C1735 C 0.01038 0.17095 0.59182 0.0
C1736 C 0.02035 0.13833 0.56703 0.0
C1737 C 0.00979 0.1872 0.60271 0.0
C1738 C 0.02668 0.06682 0.52835 0.0
C1739 C 0.02808 0.08388 0.53814 0.0
C1740 C 0.02239 0.10317 0.58355 0.0
C1741 C 0.02173 0.15553 0.59652 0.0
C1742 C 0.02168 0.13775 0.58555 0.0
C1743 C 0.01938 0.08567 0.55448 0.0
C1744 C 0.02073 0.10369 0.56505 0.0
H1745 H 0.04052 0.17352 0.63516 0.0
H1746 H 0.04199 0.14559 0.61603 0.0
H1747 H 0.02349 0.11885 0.60787 0.0
H1748 H -1e-05 0.04129 0.55633 0.0
H1749 H 0.00203 0.07096 0.57306 0.0
C1750 C 0.53605 0.28693 0.3179 0.0
C1751 C 0.53339 0.29607 0.33418 0.0
C1752 C 0.55203 0.29078 0.30839 0.0
C1753 C 0.60035 0.30931 0.31568 0.0
H1754 H 0.6021 0.30065 0.26513 0.0
C1755 C 0.66971 0.30824 0.27937 0.0
C1756 C 0.67264 0.29004 0.27198 0.0
C1757 C 0.65187 0.31364 0.28432 0.0
C1758 C 0.60173 0.30334 0.27922 0.0
H1759 H 0.5446 0.31731 0.35281 0.0
H1760 H 0.57208 0.32475 0.33585 0.0
H1761 H 0.57186 0.30244 0.27915 0.0
H1762 H 0.65867 0.26372 0.26317 0.0
H1763 H 0.6276 0.27354 0.27115 0.0
H1764 H 0.63026 0.31013 0.31564 0.0
C1765 C 0.56227 0.31403 0.33069 0.0
C1766 C 0.58447 0.30418 0.28731 0.0
C1767 C 0.54648 0.30986 0.34038 0.0
C1768 C 0.65705 0.27794 0.26855 0.0
C1769 C 0.63919 0.28351 0.27317 0.0
C1770 C 0.61756 0.30886 0.30754 0.0
C1771 C 0.56552 0.30416 0.3148 0.0
C1772 C 0.58357 0.30649 0.30574 0.0
C1773 C 0.63657 0.30115 0.28157 0.0
C1774 C 0.61839 0.30527 0.28935 0.0
H1775 H 0.52619 0.27618 0.31285 0.0
H1776 H 0.55412 0.2826 0.29641 0.0
H1777 H 0.60035 0.3108 0.3299 0.0
H1778 H 0.68126 0.31815 0.2818 0.0
H1779 H 0.6501 0.32736 0.29073 0.0
C1780 C 0.49952 0.82169 0.11889 0.0
C1781 C 0.49904 0.80392 0.11012 0.0
C1782 C 0.49741 0.83845 0.10946 0.0
C1783 C 0.50116 0.85751 0.0644 0.0
H1784 H 0.47657 0.90095 0.0851 0.0
C1785 C 0.4892 0.92755 0.02695 0.0
C1786 C 0.49491 0.94421 0.03625 0.0
C1787 C 0.48805 0.91017 0.03558 0.0
C1788 C 0.48352 0.88894 0.07919 0.0
H1789 H 0.49548 0.78975 0.08462 0.0
H1790 H 0.49126 0.81898 0.06816 0.0
H1791 H 0.47717 0.87088 0.10067 0.0
H1792 H 0.50342 0.95579 0.06199 0.0
H1793 H 0.50119 0.92548 0.07708 0.0
H1794 H 0.50733 0.87564 0.04284 0.0
C1795 C 0.49373 0.82002 0.0823 0.0
C1796 C 0.48394 0.87172 0.08812 0.0
C1797 C 0.49604 0.80324 0.09174 0.0
C1798 C 0.49901 0.94321 0.05445 0.0
C1799 C 0.49764 0.92588 0.06311 0.0
C1800 C 0.50054 0.87468 0.05538 0.0
C1801 C 0.49455 0.83787 0.09102 0.0
C1802 C 0.493 0.85584 0.08097 0.0
C1803 C 0.49235 0.90915 0.05373 0.0
C1804 C 0.49193 0.89063 0.06279 0.0
H1805 H 0.50191 0.82271 0.13305 0.0
H1806 H 0.49847 0.8519 0.11662 0.0
H1807 H 0.50852 0.84572 0.05858 0.0
H1808 H 0.48596 0.92785 0.01292 0.0
H1809 H 0.48381 0.89752 0.02807 0.0
C1810 C 0.92834 0.74897 0.82548 0.0
C1811 C 0.93689 0.75269 0.8421 0.0
C1812 C 0.91146 0.73876 0.8241 0.0
C1813 C 0.86891 0.73318 0.84565 0.0
H1814 H 0.85944 0.6905 0.81343 0.0
C1815 C 0.79523 0.72069 0.81942 0.0
C1816 C 0.7947 0.71972 0.8009 0.0
C1817 C 0.81168 0.71641 0.82887 0.0
C1818 C 0.86181 0.70239 0.82252 0.0
H1819 H 0.93461 0.74862 0.87027 0.0
H1820 H 0.90461 0.73149 0.8678 0.0
H1821 H 0.89161 0.70052 0.8208 0.0
H1822 H 0.81 0.711 0.77792 0.0
H1823 H 0.83858 0.70441 0.79405 0.0
H1824 H 0.83943 0.73658 0.84608 0.0
C1825 C 0.91125 0.73609 0.85591 0.0
C1826 C 0.88022 0.70801 0.82678 0.0
C1827 C 0.92833 0.74592 0.85728 0.0
C1828 C 0.81007 0.71225 0.79218 0.0
C1829 C 0.82651 0.70823 0.80155 0.0
C1830 C 0.85052 0.72788 0.84108 0.0
C1831 C 0.90271 0.73247 0.83932 0.0
C1832 C 0.88382 0.72391 0.83781 0.0
C1833 C 0.8279 0.71136 0.81991 0.0
C1834 C 0.84673 0.71301 0.82874 0.0
H1835 H 0.9347 0.75392 0.81358 0.0
H1836 H 0.9049 0.73633 0.81118 0.0
H1837 H 0.87144 0.74552 0.85419 0.0
H1838 H 0.78345 0.72605 0.82654 0.0
H1839 H 0.81205 0.71836 0.84306 0.0
C1840 C 0.90818 0.02335 0.82561 0.0
C1841 C 0.91934 0.01878 0.81125 0.0
C1842 C 0.91642 0.02863 0.84191 0.0
C1843 C 0.96054 0.02304 0.86731 0.0
H1844 H 0.93809 0.05844 0.89996 0.0
C1845 C -0.0062 0.03743 0.93551 0.0
C1846 C 0.98162 0.03474 0.94948 0.0
C1847 C -0.01325 0.03953 0.91835 0.0
C1848 C 0.94449 0.04855 0.89093 0.0
H1849 H 0.94785 0.01716 0.80243 0.0
H1850 H 0.96222 0.02685 0.83072 0.0
H1851 H 0.92494 0.05465 0.86994 0.0
H1852 H 0.95248 0.03349 0.95662 0.0
H1853 H 0.94015 0.03708 0.9265 0.0
H1854 H 0.97994 0.01678 0.88827 0.0
C1855 C 0.94711 0.02583 0.82955 0.0
C1856 C 0.93695 0.04632 0.8738 0.0
C1857 C 0.93888 0.02034 0.81332 0.0
C1858 C 0.96222 0.03545 0.94611 0.0
C1859 C 0.95515 0.0376 0.92889 0.0
C1860 C 0.96814 0.02539 0.88433 0.0
C1861 C 0.93599 0.02963 0.84414 0.0
C1862 C 0.94476 0.03334 0.86186 0.0
C1863 C 0.96738 0.03903 0.9148 0.0
C1864 C 0.96008 0.03799 0.89637 0.0
H1865 H 0.89307 0.02227 0.82444 0.0
H1866 H 0.90743 0.03121 0.8529 0.0
H1867 H 0.96668 0.01261 0.85863 0.0
H1868 H 0.00883 0.03717 0.93769 0.0
H1869 H -0.00353 0.04091 0.90775 0.0
C1870 C 0.75036 0.15569 0.54604 0.0
C1871 C 0.74903 0.13571 0.54611 0.0
C1872 C 0.7482 0.16629 0.56159 0.0
C1873 C 0.75165 0.16264 0.60972 0.0
H1874 H 0.71902 0.20624 0.61009 0.0
C1875 C 0.73335 0.19912 0.67474 0.0
C1876 C 0.73375 0.21913 0.67533 0.0
C1877 C 0.73376 0.18926 0.65866 0.0
C1878 C 0.72833 0.19422 0.61016 0.0
H1879 H 0.74465 0.1112 0.56262 0.0
H1880 H 0.74107 0.1297 0.5897 0.0
H1881 H 0.7236 0.18867 0.5825 0.0
H1882 H 0.73379 0.24441 0.6593 0.0
H1883 H 0.73513 0.22716 0.63123 0.0
H1884 H 0.75669 0.16823 0.6372 0.0
C1885 C 0.74379 0.13715 0.57763 0.0
C1886 C 0.73094 0.18418 0.59437 0.0
C1887 C 0.74577 0.12657 0.56209 0.0
C1888 C 0.73375 0.22901 0.65935 0.0
C1889 C 0.73432 0.21911 0.64324 0.0
C1890 C 0.74915 0.17272 0.62544 0.0
C1891 C 0.74488 0.15711 0.57752 0.0
C1892 C 0.74253 0.16821 0.59405 0.0
C1893 C 0.73479 0.19912 0.64275 0.0
C1894 C 0.73734 0.18854 0.6259 0.0
H1895 H 0.7528 0.16317 0.53394 0.0
H1896 H 0.74928 0.18167 0.56118 0.0
H1897 H 0.7609 0.15057 0.60979 0.0
H1898 H 0.73358 0.19098 0.68673 0.0
H1899 H 0.7337 0.17385 0.65874 0.0
C1900 C 0.57332 -0.00139 0.32755 0.0
C1901 C 0.59043 -0.00988 0.3237 0.0
C1902 C 0.56417 -0.00574 0.34297 0.0
C1903 C 0.57272 0.97561 0.38756 0.0
H1904 H 0.5185 0.97455 0.3881 0.0
C1905 C 0.53326 0.96521 0.45184 0.0
C1906 C 0.52019 0.97951 0.45508 0.0
C1907 C 0.54055 0.96284 0.43507 0.0
C1908 C 0.53365 0.97476 0.38812 0.0
H1909 H 0.61118 0.97011 0.33296 0.0
H1910 H 0.595 0.96226 0.35984 0.0
H1911 H 0.53416 0.9772 0.36008 0.0
H1912 H 0.50365 0.00172 0.44304 0.0
H1913 H 0.51623 -0.00258 0.41376 0.0
H1914 H 0.57215 0.97341 0.41564 0.0
C1915 C 0.58883 0.97254 0.35101 0.0
C1916 C 0.54263 0.97637 0.37211 0.0
C1917 C 0.59808 0.97699 0.33558 0.0
C1918 C 0.51374 -0.00939 0.44098 0.0
C1919 C 0.52088 0.98809 0.42419 0.0
C1920 C 0.56373 0.97385 0.40356 0.0
C1921 C 0.57179 0.98119 0.35492 0.0
C1922 C 0.56228 0.97729 0.37168 0.0
C1923 C 0.53473 0.97454 0.42118 0.0
C1924 C 0.54411 0.97384 0.40403 0.0
H1925 H 0.56706 0.00886 0.31874 0.0
H1926 H 0.55128 0.0015 0.34571 0.0
H1927 H 0.58785 0.9765 0.38776 0.0
H1928 H 0.53851 0.95643 0.46244 0.0
H1929 H 0.55109 0.95216 0.43306 0.0
C1930 C 0.7708 0.83062 0.06603 0.0
C1931 C 0.77297 0.85047 0.06586 0.0
C1932 C 0.78265 0.81972 0.07657 0.0
C1933 C 0.81047 0.79772 0.09801 0.0
H1934 H 0.81714 0.82065 0.14463 0.0
C1935 C 0.82078 0.77823 0.17644 0.0
C1936 C 0.8043 0.76714 0.17749 0.0
C1937 C 0.82592 0.78591 0.16039 0.0
C1938 C 0.81598 0.81411 0.1316 0.0
H1939 H 0.79013 0.87441 0.07525 0.0
H1940 H 0.81133 0.85534 0.09316 0.0
H1941 H 0.80887 0.84045 0.11997 0.0
H1942 H 0.78128 0.75415 0.16199 0.0
H1943 H 0.79057 0.767 0.1342 0.0
H1944 H 0.81563 0.77101 0.11035 0.0
C1945 C 0.80006 0.8482 0.08573 0.0
C1946 C 0.81121 0.8255 0.11735 0.0
C1947 C 0.78793 0.85914 0.07548 0.0
C1948 C 0.79416 0.76241 0.16181 0.0
C1949 C 0.7995 0.76978 0.14577 0.0
C1950 C 0.81493 0.78627 0.11236 0.0
C1951 C 0.79718 0.82842 0.0869 0.0
C1952 C 0.80733 0.81729 0.10057 0.0
C1953 C 0.81491 0.78229 0.14506 0.0
C1954 C 0.81672 0.79429 0.12941 0.0
H1955 H 0.7594 0.82359 0.05865 0.0
H1956 H 0.7797 0.80462 0.0773 0.0
H1957 H 0.80822 0.79101 0.08515 0.0
H1958 H 0.82927 0.7817 0.18814 0.0
H1959 H 0.83791 0.79548 0.16012 0.0
C1960 C 0.89771 0.01601 0.70762 0.0
C1961 C 0.88254 0.00521 0.71348 0.0
C1962 C 0.90441 0.01299 0.69075 0.0
C1963 C 0.90925 0.97593 0.65774 0.0
H1964 H 0.92357 0.01768 0.62797 0.0
C1965 C 0.94701 0.96519 0.59153 0.0
C1966 C 0.96138 0.97843 0.58826 0.0
C1967 C 0.93537 0.96785 0.60585 0.0
C1968 C 0.91978 0.00587 0.63619 0.0
H1969 H 0.86211 0.98312 0.70621 0.0
H1970 H 0.87414 0.97761 0.67667 0.0
H1971 H 0.90604 0.02411 0.65442 0.0
H1972 H 0.97479 0.00479 0.59764 0.0
H1973 H 0.9552 0.00889 0.62282 0.0
H1974 H 0.92368 0.95776 0.63992 0.0
C1975 C 0.88073 0.98845 0.68516 0.0
C1976 C 0.90965 0.00956 0.65125 0.0
C1977 C 0.87382 -0.00831 0.70198 0.0
C1978 C 0.96411 -0.00591 0.59987 0.0
C1979 C 0.95261 -0.00333 0.61416 0.0
C1980 C 0.91955 0.97224 0.64272 0.0
C1981 C 0.89621 -0.00104 0.6795 0.0
C1982 C 0.90466 -0.00531 0.66236 0.0
C1983 C 0.93789 0.9838 0.61715 0.0
C1984 C 0.92532 0.98724 0.63203 0.0
H1985 H 0.90466 0.02654 0.7162 0.0
H1986 H 0.9165 0.02117 0.68676 0.0
H1987 H 0.90567 0.96424 0.66619 0.0
H1988 H 0.94461 0.9529 0.58292 0.0
H1989 H 0.92415 0.95767 0.6078 0.0
C1990 C 0.76672 0.18109 0.44827 0.0
C1991 C 0.76788 0.16141 0.44494 0.0
C1992 C 0.76931 0.19402 0.43471 0.0
C1993 C 0.78813 0.19774 0.38983 0.0
H1994 H 0.75273 0.23864 0.38443 0.0
C1995 C 0.75464 0.24279 0.32976 0.0
C1996 C 0.77068 0.24467 0.31968 0.0
C1997 C 0.75618 0.23692 0.34725 0.0
C1998 C 0.76273 0.2273 0.38576 0.0
H1999 H 0.77291 0.13987 0.42489 0.0
H2000 H 0.77712 0.16228 0.40129 0.0
H2001 H 0.75212 0.21898 0.41061 0.0
H2002 H 0.80097 0.2438 0.32037 0.0
H2003 H 0.80374 0.23435 0.35105 0.0
H2004 H 0.79799 0.20509 0.36458 0.0
C2005 C 0.77454 0.16782 0.41439 0.0
C2006 C 0.76253 0.21617 0.40086 0.0
C2007 C 0.77199 0.15494 0.4279 0.0
C2008 C 0.78835 0.24216 0.32779 0.0
C2009 C 0.78992 0.23663 0.34533 0.0
C2010 C 0.78825 0.20874 0.37472 0.0
C2011 C 0.77314 0.1875 0.41758 0.0
C2012 C 0.77491 0.20094 0.40282 0.0
C2013 C 0.77382 0.2331 0.35504 0.0
C2014 C 0.77527 0.22338 0.37228 0.0
H2015 H 0.76361 0.1865 0.46129 0.0
H2016 H 0.76831 0.2091 0.43762 0.0
H2017 H 0.79809 0.18634 0.39108 0.0
H2018 H 0.74084 0.24461 0.32381 0.0
H2019 H 0.74347 0.23423 0.35425 0.0
C2020 C 0.63536 0.00507 0.21466 0.0
C2021 C 0.62461 -0.00637 0.22564 0.0
C2022 C 0.62934 0.00832 0.19732 0.0
C2023 C 0.60068 -0.01088 0.16078 0.0
H2024 H 0.59371 0.04156 0.14703 0.0
C2025 C 0.57679 0.00918 0.09058 0.0
C2026 C 0.56015 0.01955 0.09019 0.0
C2027 C 0.58704 0.00724 0.10636 0.0
C2028 C 0.59574 0.02689 0.15069 0.0
H2029 H 0.59953 0.97608 0.227 0.0
H2030 H 0.58926 0.98138 0.19643 0.0
H2031 H 0.6073 0.03465 0.17626 0.0
H2032 H 0.54166 0.03686 0.10561 0.0
H2033 H 0.55989 0.03383 0.13326 0.0
H2034 H 0.58904 0.98133 0.1353 0.0
C2035 C 0.60223 0.98795 0.20136 0.0
C2036 C 0.60355 0.02294 0.16731 0.0
C2037 C 0.60806 0.98498 0.21881 0.0
C2038 C 0.55445 0.02879 0.10563 0.0
C2039 C 0.56488 0.02712 0.12136 0.0
C2040 C 0.59321 -0.00694 0.14406 0.0
C2041 C 0.61268 -0.00013 0.19058 0.0
C2042 C 0.60579 0.00403 0.17256 0.0
C2043 C 0.58097 0.01591 0.12193 0.0
C2044 C 0.59044 0.01197 0.139 0.0
H2045 H 0.64815 0.01196 0.21961 0.0
H2046 H 0.63764 0.0175 0.18918 0.0
H2047 H 0.60235 0.97444 0.16457 0.0
H2048 H 0.58136 0.00177 0.07887 0.0
H2049 H 0.59945 -0.00142 0.10652 0.0
C2050 C 0.70712 0.87433 0.96242 0.0
C2051 C 0.71994 0.86994 0.97612 0.0
C2052 C 0.70485 0.86224 0.94766 0.0
C2053 C 0.72868 0.82425 0.92335 0.0
H2054 H 0.67909 0.81221 0.9038 0.0
C2055 C 0.71992 0.76958 0.86778 0.0
C2056 C 0.71003 0.77614 0.85285 0.0
C2057 C 0.71842 0.77884 0.88406 0.0
C2058 C 0.693 0.81548 0.90914 0.0
H2059 H 0.74056 0.8495 0.98492 0.0
H2060 H 0.73647 0.82849 0.95939 0.0
H2061 H 0.68268 0.83398 0.92926 0.0
H2062 H 0.68924 0.79616 0.84371 0.0
H2063 H 0.68691 0.8126 0.87212 0.0
H2064 H 0.73908 0.80601 0.90326 0.0
C2065 C 0.72833 0.84135 0.95991 0.0
C2066 C 0.69507 0.828 0.92362 0.0
C2067 C 0.73063 0.8534 0.97459 0.0
C2068 C 0.69729 0.79101 0.85493 0.0
C2069 C 0.69583 0.80032 0.87122 0.0
C2070 C 0.72661 0.81174 0.90899 0.0
C2071 C 0.71536 0.84556 0.94633 0.0
C2072 C 0.71296 0.83251 0.93085 0.0
C2073 C 0.70706 0.79487 0.88572 0.0
C2074 C 0.70877 0.8072 0.90172 0.0
H2075 H 0.69864 0.88694 0.9632 0.0
H2076 H 0.69492 0.86598 0.93728 0.0
H2077 H 0.74266 0.82771 0.92839 0.0
H2078 H 0.72991 0.75822 0.86666 0.0
H2079 H 0.72695 0.7741 0.89513 0.0
C2080 C 0.78129 0.94044 0.04448 0.0
C2081 C 0.7685 0.94409 0.0306 0.0
C2082 C 0.79708 0.95201 0.04733 0.0
C2083 C 0.8194 -0.00213 0.03478 0.0
H2084 H 0.86475 0.97083 0.04689 0.0
C2085 C 0.89482 0.0223 0.02068 0.0
C2086 C 0.90904 0.01762 0.03297 0.0
C2087 C 0.87623 0.01732 0.02366 0.0
C2088 C 0.85216 0.97868 0.04386 0.0
H2089 H 0.76192 0.9629 0.00903 0.0
H2090 H 0.79011 0.98266 0.01342 0.0
H2091 H 0.83516 0.95368 0.04508 0.0
H2092 H 0.91475 0.00602 0.05886 0.0
H2093 H 0.88227 -0.00291 0.06394 0.0
H2094 H 0.83696 0.0227 0.03257 0.0
C2095 C 0.78766 0.97117 0.02244 0.0
C2096 C 0.83514 0.96885 0.04282 0.0
C2097 C 0.77161 0.95977 0.0198 0.0
C2098 C 0.90413 0.00941 0.04898 0.0
C2099 C 0.88557 0.00437 0.05192 0.0
C2100 C 0.83656 0.0077 0.03559 0.0
C2101 C 0.8007 0.96727 0.03612 0.0
C2102 C 0.81855 0.97825 0.03814 0.0
C2103 C 0.8716 0.00754 0.03894 0.0
C2104 C 0.85309 -0.00188 0.04002 0.0
H2105 H 0.77905 0.92866 0.05325 0.0
H2106 H 0.80653 0.94887 0.05828 0.0
H2107 H 0.80686 0.00561 0.03137 0.0
H2108 H 0.89816 0.0285 0.00816 0.0
H2109 H 0.86574 0.01981 0.01339 0.0
C2110 C 0.30972 0.56047 0.00242 0.0
C2111 C 0.30405 0.57674 -0.0067 0.0
C2112 C 0.32777 0.55357 0.0008 0.0
C2113 C 0.37538 0.56742 0.98814 0.0
H2114 H 0.38225 0.51277 0.98675 0.0
C2115 C 0.44806 0.53276 0.9819 0.0
C2116 C 0.45182 0.51887 -0.00541 0.0
C2117 C 0.42993 0.53966 0.97946 0.0
C2118 C 0.38053 0.52806 0.98713 0.0
H2119 H 0.31299 0.5986 0.97537 0.0
H2120 H 0.34451 0.58636 0.97238 0.0
H2121 H 0.35073 0.52547 0.98691 0.0
H2122 H 0.4395 0.50093 0.0143 0.0
H2123 H 0.40797 0.51283 0.00993 0.0
H2124 H 0.40529 0.56991 0.98849 0.0
C2125 C 0.33502 0.57909 0.98095 0.0
C2126 C 0.3625 0.53534 0.98731 0.0
C2127 C 0.31693 0.58606 0.98263 0.0
C2128 C 0.43706 0.51166 0.00444 0.0
C2129 C 0.41897 0.51838 0.00187 0.0
C2130 C 0.39345 0.56011 0.98786 0.0
C2131 C 0.34059 0.56269 -0.01006 0.0
C2132 C 0.35972 0.55509 0.98821 0.0
C2133 C 0.41525 0.53257 -0.0105 0.0
C2134 C 0.39618 0.54036 0.98773 0.0
H2135 H 0.30021 0.55301 0.01084 0.0
H2136 H 0.33174 0.54114 0.00821 0.0
H2137 H 0.37374 0.58269 -0.01102 0.0
H2138 H 0.45917 0.53859 0.97414 0.0
H2139 H 0.42738 0.55054 0.96978 0.0
C2140 C 0.17505 0.55946 0.78429 0.0
C2141 C 0.15554 0.56032 0.78163 0.0
C2142 C 0.18627 0.57571 0.78247 0.0
C2143 C 0.18563 0.62211 0.76054 0.0
H2144 H 0.22938 0.63336 0.79052 0.0
C2145 C 0.225 0.69396 0.76003 0.0
C2146 C 0.24465 0.69382 0.76101 0.0
C2147 C 0.21467 0.6772 0.762 0.0
C2148 C 0.21733 0.63025 0.78191 0.0
H2149 H 0.13244 0.57916 0.77593 0.0
H2150 H 0.15196 0.60753 0.77314 0.0
H2151 H 0.20998 0.60539 0.79625 0.0
H2152 H 0.26889 0.67592 0.76449 0.0
H2153 H 0.25074 0.64653 0.76794 0.0
H2154 H 0.19286 0.64706 0.74633 0.0
C2155 C 0.15864 0.59419 0.77617 0.0
C2156 C 0.2062 0.61426 0.78521 0.0
C2157 C 0.14743 0.57795 0.77791 0.0
C2158 C 0.25377 0.67647 0.76365 0.0
C2159 C 0.24339 0.65969 0.76575 0.0
C2160 C 0.19669 0.6381 0.7573 0.0
C2161 C 0.17821 0.59317 0.77802 0.0
C2162 C 0.19015 0.61009 0.77462 0.0
C2163 C 0.22374 0.65993 0.76508 0.0
C2164 C 0.21259 0.6424 0.76801 0.0
H2165 H 0.18176 0.54609 0.78714 0.0
H2166 H 0.2013 0.5744 0.78388 0.0
H2167 H 0.17361 0.61906 0.75188 0.0
H2168 H 0.21755 0.70709 0.75801 0.0
H2169 H 0.19955 0.67787 0.76159 0.0
C2170 C 0.17686 0.39053 0.54029 0.0
C2171 C 0.19416 0.39958 0.53772 0.0
C2172 C 0.16066 0.40131 0.54144 0.0
C2173 C 0.14317 0.45099 0.54461 0.0
H2174 H 0.10375 0.43098 0.51305 0.0
C2175 C 0.07233 0.48786 0.5323 0.0
C2176 C 0.06377 0.4857 0.51545 0.0
C2177 C 0.0891 0.4788 0.5363 0.0
C2178 C 0.11473 0.43686 0.52175 0.0
H2179 H 0.20844 0.42691 0.53608 0.0
H2180 H 0.18035 0.44556 0.53775 0.0
H2181 H 0.13048 0.41139 0.52021 0.0
H2182 H 0.06694 0.47399 0.48909 0.0
H2183 H 0.09656 0.45868 0.49593 0.0
H2184 H 0.12772 0.47682 0.54546 0.0
C2185 C 0.17912 0.43027 0.53897 0.0
C2186 C 0.12987 0.42546 0.52617 0.0
C2187 C 0.19524 0.41954 0.53786 0.0
C2188 C 0.0731 0.47573 0.50225 0.0
C2189 C 0.08995 0.46679 0.50622 0.0
C2190 C 0.12805 0.46246 0.54009 0.0
C2191 C 0.16157 0.42125 0.54006 0.0
C2192 C 0.14438 0.43248 0.53746 0.0
C2193 C 0.09769 0.46758 0.52348 0.0
C2194 C 0.11381 0.45559 0.5284 0.0
H2195 H 0.17568 0.37515 0.54037 0.0
H2196 H 0.14734 0.394 0.54263 0.0
H2197 H 0.15407 0.45674 0.55345 0.0
H2198 H 0.06552 0.49552 0.54276 0.0
H2199 H 0.0947 0.47969 0.54972 0.0
C2200 C 0.87619 0.92537 0.77503 0.0
C2201 C 0.86634 0.94174 0.77979 0.0
C2202 C 0.8688 0.90731 0.77816 0.0
C2203 C 0.83331 0.88068 0.80256 0.0
H2204 H 0.83248 0.84749 0.7612 0.0
C2205 C 0.78419 0.81475 0.79343 0.0
C2206 C 0.79075 0.79921 0.78365 0.0
C2207 C 0.79512 0.83134 0.79551 0.0
C2208 C 0.83289 0.85636 0.77302 0.0
H2209 H 0.84147 0.95197 0.79243 0.0
H2210 H 0.82853 0.92038 0.79775 0.0
H2211 H 0.8489 0.87787 0.76054 0.0
H2212 H 0.81433 0.7882 0.76956 0.0
H2213 H 0.83357 0.81678 0.77367 0.0
H2214 H 0.81705 0.85913 0.81496 0.0
C2215 C 0.84201 0.92156 0.79168 0.0
C2216 C 0.84229 0.87381 0.77261 0.0
C2217 C 0.84937 0.93965 0.78851 0.0
C2218 C 0.80879 0.80011 0.7769 0.0
C2219 C 0.81978 0.81652 0.77919 0.0
C2220 C 0.82396 0.86309 0.80302 0.0
C2221 C 0.85144 0.90524 0.78615 0.0
C2222 C 0.84249 0.88621 0.78731 0.0
C2223 C 0.81286 0.83254 0.78803 0.0
C2224 C 0.82355 0.85079 0.78819 0.0
H2225 H 0.88938 0.92646 0.76844 0.0
H2226 H 0.87648 0.89494 0.77398 0.0
H2227 H 0.83334 0.88996 0.81411 0.0
H2228 H 0.77032 0.8144 0.79878 0.0
H2229 H 0.78933 0.84347 0.8023 0.0
C2230 C 0.70137 0.07243 0.48194 0.0
C2231 C 0.70191 0.09236 0.48079 0.0
C2232 C 0.68465 0.06289 0.48531 0.0
C2233 C 0.63911 0.07117 0.50512 0.0
H2234 H 0.62494 0.02305 0.48239 0.0
C2235 C 0.56519 0.03886 0.50728 0.0
C2236 C 0.5632 0.0191 0.50923 0.0
C2237 C 0.58278 0.04713 0.50526 0.0
C2238 C 0.62888 0.03633 0.48904 0.0
H2239 H 0.68523 0.11787 0.48141 0.0
H2240 H 0.65592 0.10116 0.48696 0.0
H2241 H 0.65401 0.03903 0.4746 0.0
H2242 H 0.57812 -0.00746 0.51112 0.0
H2243 H 0.60907 0.0071 0.50751 0.0
H2244 H 0.61385 0.06863 0.51934 0.0
C2245 C 0.66852 0.09295 0.48567 0.0
C2246 C 0.64547 0.04551 0.48454 0.0
C2247 C 0.68526 0.10251 0.48235 0.0
C2248 C 0.57925 0.00781 0.50966 0.0
C2249 C 0.59691 0.0161 0.50747 0.0
C2250 C 0.62252 0.06204 0.50956 0.0
C2251 C 0.66812 0.07308 0.48754 0.0
C2252 C 0.65066 0.06313 0.49241 0.0
C2253 C 0.59878 0.03582 0.50504 0.0
C2254 C 0.61714 0.04463 0.50144 0.0
H2255 H 0.71399 0.06422 0.48082 0.0
H2256 H 0.68483 0.04759 0.48679 0.0
H2257 H 0.64294 0.08451 0.51172 0.0
H2258 H 0.55309 0.04796 0.50695 0.0
H2259 H 0.58376 0.06232 0.50323 0.0
C2260 C 0.17654 0.43384 0.79281 0.0
C2261 C 0.18044 0.45075 0.78394 0.0
C2262 C 0.18924 0.41895 0.79271 0.0
C2263 C 0.22336 0.39732 0.76526 0.0
H2264 H 0.2373 0.36931 0.80712 0.0
C2265 C 0.26271 0.32655 0.76002 0.0
C2266 C 0.25609 0.31197 0.77074 0.0
C2267 C 0.25733 0.34538 0.76291 0.0
C2268 C 0.23345 0.37689 0.79528 0.0
H2269 H 0.20077 0.46552 0.76829 0.0
H2270 H 0.22279 0.43917 0.76773 0.0
H2271 H 0.22018 0.39892 0.81 0.0
H2272 H 0.23906 0.30578 0.79321 0.0
H2273 H 0.22923 0.33822 0.79785 0.0
H2274 H 0.23547 0.37484 0.75038 0.0
C2275 C 0.20999 0.4376 0.77489 0.0
C2276 C 0.22375 0.39389 0.79697 0.0
C2277 C 0.19744 0.45265 0.77526 0.0
C2278 C 0.24447 0.31667 0.78472 0.0
C2279 C 0.23895 0.33538 0.78748 0.0
C2280 C 0.23279 0.38016 0.76353 0.0
C2281 C 0.20592 0.42059 0.78351 0.0
C2282 C 0.21828 0.40402 0.78196 0.0
C2283 C 0.24508 0.34997 0.77649 0.0
C2284 C 0.23754 0.36948 0.77849 0.0
H2285 H 0.16357 0.43202 0.79964 0.0
H2286 H 0.18571 0.40589 0.79931 0.0
H2287 H 0.21914 0.40483 0.75347 0.0
H2288 H 0.27181 0.32338 0.74922 0.0
H2289 H 0.26257 0.35629 0.75436 0.0
C2290 C 0.30709 0.54486 0.27186 0.0
C2291 C 0.32433 0.54472 0.28121 0.0
C2292 C 0.29589 0.56102 0.27244 0.0
C2293 C 0.28886 0.60677 0.29613 0.0
H2294 H 0.27867 0.62656 0.24949 0.0
C2295 C 0.28093 0.68667 0.28368 0.0
C2296 C 0.26874 0.69255 0.27005 0.0
C2297 C 0.28396 0.66734 0.28636 0.0
C2298 C 0.28099 0.62114 0.26264 0.0
H2299 H 0.34274 0.56062 0.2995 0.0
H2300 H 0.32318 0.58859 0.30066 0.0
H2301 H 0.2895 0.59412 0.25256 0.0
H2302 H 0.24962 0.68276 0.24894 0.0
H2303 H 0.25465 0.64906 0.25383 0.0
H2304 H 0.28077 0.63395 0.30622 0.0
C2305 C 0.31829 0.57637 0.29283 0.0
C2306 C 0.28718 0.60251 0.26438 0.0
C2307 C 0.32957 0.5604 0.29206 0.0
C2308 C 0.25929 0.6787 0.25944 0.0
C2309 C 0.2622 0.65937 0.26221 0.0
C2310 C 0.28252 0.62537 0.2944 0.0
C2311 C 0.30164 0.57708 0.28261 0.0
C2312 C 0.29171 0.59534 0.28111 0.0
C2313 C 0.27474 0.65345 0.27557 0.0
C2314 C 0.27906 0.63297 0.2776 0.0
H2315 H 0.30275 0.53294 0.2634 0.0
H2316 H 0.28306 0.5612 0.2645 0.0
H2317 H 0.29208 0.60151 0.3092 0.0
H2318 H 0.28841 0.69701 0.29208 0.0
H2319 H 0.29396 0.66332 0.29658 0.0
C2320 C 0.54784 0.68971 0.59869 0.0
C2321 C 0.55509 0.68227 0.61451 0.0
C2322 C 0.54652 0.67846 0.58341 0.0
C2323 C 0.52982 0.64732 0.56005 0.0
H2324 H 0.56362 0.60683 0.54805 0.0
C2325 C 0.5055 0.57675 0.52832 0.0
C2326 C 0.51718 0.56726 0.51663 0.0
C2327 C 0.51127 0.59395 0.53628 0.0
C2328 C 0.55418 0.61829 0.55098 0.0
H2329 H 0.56777 0.65765 0.6265 0.0
H2330 H 0.56499 0.63771 0.59987 0.0
H2331 H 0.57371 0.63132 0.56959 0.0
H2332 H 0.54352 0.56894 0.50318 0.0
H2333 H 0.55357 0.59905 0.51715 0.0
H2334 H 0.51014 0.63408 0.54176 0.0
C2335 C 0.56058 0.65236 0.5992 0.0
C2336 C 0.55988 0.63217 0.56346 0.0
C2337 C 0.56208 0.66372 0.6145 0.0
C2338 C 0.53425 0.57586 0.51223 0.0
C2339 C 0.54007 0.59305 0.52027 0.0
C2340 C 0.52413 0.63348 0.54758 0.0
C2341 C 0.55223 0.65945 0.58366 0.0
C2342 C 0.54755 0.6465 0.5685 0.0
C2343 C 0.52884 0.60198 0.53272 0.0
C2344 C 0.53603 0.61849 0.54335 0.0
H2345 H 0.54266 0.70411 0.59822 0.0
H2346 H 0.54041 0.68445 0.57154 0.0
H2347 H 0.51989 0.65806 0.56373 0.0
H2348 H 0.49224 0.57052 0.53192 0.0
H2349 H 0.50239 0.6004 0.54595 0.0
C2350 C 0.59199 0.24507 0.87017 0.0
C2351 C 0.57513 0.24193 0.86053 0.0
C2352 C 0.609 0.2456 0.86155 0.0
C2353 C 0.63113 0.23136 0.82 0.0
H2354 H 0.66684 0.27166 0.83268 0.0
C2355 C 0.69525 0.24815 0.77806 0.0
C2356 C 0.71221 0.25215 0.78729 0.0
C2357 C 0.67856 0.24664 0.7871 0.0
C2358 C 0.65711 0.2602 0.82911 0.0
H2359 H 0.56287 0.23655 0.83437 0.0
H2360 H 0.59244 0.23761 0.81939 0.0
H2361 H 0.63791 0.26888 0.84868 0.0
H2362 H 0.72495 0.25767 0.81325 0.0
H2363 H 0.69594 0.25486 0.82895 0.0
H2364 H 0.65031 0.22271 0.80038 0.0
C2365 C 0.59259 0.23948 0.83359 0.0
C2366 C 0.64055 0.25859 0.8383 0.0
C2367 C 0.57563 0.23899 0.84218 0.0
C2368 C 0.71212 0.25466 0.80571 0.0
C2369 C 0.69547 0.25315 0.81473 0.0
C2370 C 0.64769 0.23296 0.81081 0.0
C2371 C 0.60946 0.24293 0.84315 0.0
C2372 C 0.62735 0.24419 0.83381 0.0
C2373 C 0.6785 0.24911 0.80554 0.0
C2374 C 0.66085 0.24742 0.81524 0.0
H2375 H 0.59204 0.24732 0.88433 0.0
H2376 H 0.6218 0.24807 0.86929 0.0
H2377 H 0.62134 0.21995 0.81638 0.0
H2378 H 0.69486 0.24616 0.76386 0.0
H2379 H 0.66566 0.24372 0.77963 0.0
C2380 C 0.00992 0.28224 0.13443 0.0
C2381 C 0.02268 0.28211 0.14882 0.0
C2382 C 0.00774 0.29863 0.12451 0.0
C2383 C 0.02188 0.34994 0.12198 0.0
H2384 H 0.01996 0.33849 0.07174 0.0
C2385 C 0.04224 0.40365 0.06844 0.0
C2386 C 0.0287 0.4058 0.05479 0.0
C2387 C 0.0405 0.389 0.08053 0.0
C2388 C 0.02039 0.34187 0.08574 0.0
H2389 H 0.0422 0.29925 0.16495 0.0
H2390 H 0.03902 0.3276 0.14729 0.0
H2391 H 0.01705 0.31277 0.09254 0.0
H2392 H 0.00268 0.39411 0.04331 0.0
H2393 H 0.00024 0.36818 0.06389 0.0
H2394 H 0.02605 0.37908 0.1149 0.0
C2395 C 0.03033 0.31529 0.14379 0.0
C2396 C 0.01853 0.32719 0.09769 0.0
C2397 C 0.03221 0.299 0.15392 0.0
C2398 C 0.01367 0.39267 0.05331 0.0
C2399 C 0.01211 0.3779 0.0652 0.0
C2400 C 0.02403 0.36461 0.10998 0.0
C2401 C 0.01863 0.31505 0.12855 0.0
C2402 C 0.01926 0.33101 0.11598 0.0
C2403 C 0.02538 0.37607 0.07902 0.0
C2404 C 0.02332 0.36066 0.09178 0.0
H2405 H 0.00223 0.26944 0.13037 0.0
H2406 H -0.00186 0.29814 0.1132 0.0
H2407 H 0.0223 0.35344 0.13595 0.0
H2408 H 0.05412 0.41333 0.06986 0.0
H2409 H 0.05102 0.38768 0.09099 0.0
C2410 C 0.95776 0.75708 0.32847 0.0
C2411 C 0.96273 0.75045 0.34533 0.0
C2412 C 0.93929 0.75586 0.32216 0.0
C2413 C 0.89091 0.75287 0.33629 0.0
H2414 H 0.8809 0.73695 0.28769 0.0
C2415 C 0.81599 0.74366 0.30535 0.0
C2416 C 0.81338 0.74986 0.28794 0.0
C2417 C 0.83392 0.74331 0.3132 0.0
C2418 C 0.88347 0.74161 0.30124 0.0
H2419 H 0.95211 0.73733 0.36879 0.0
H2420 H 0.91966 0.73525 0.35767 0.0
H2421 H 0.91277 0.73642 0.29983 0.0
H2422 H 0.82743 0.76121 0.26534 0.0
H2423 H 0.85855 0.7609 0.2791 0.0
H2424 H 0.86159 0.75833 0.33759 0.0
C2425 C 0.93017 0.74144 0.34943 0.0
C2426 C 0.90172 0.74125 0.3082 0.0
C2427 C 0.94875 0.74254 0.35573 0.0
C2428 C 0.82897 0.75621 0.27873 0.0
C2429 C 0.84684 0.7559 0.28657 0.0
C2430 C 0.87261 0.75329 0.3293 0.0
C2431 C 0.92529 0.74806 0.33255 0.0
C2432 C 0.90568 0.74713 0.32571 0.0
C2433 C 0.84957 0.74916 0.30378 0.0
C2434 C 0.86876 0.74792 0.31161 0.0
H2435 H 0.96815 0.76328 0.3201 0.0
H2436 H 0.9359 0.76133 0.3092 0.0
H2437 H 0.8936 0.75763 0.3498 0.0
H2438 H 0.80425 0.73866 0.31279 0.0
H2439 H 0.83559 0.73795 0.32644 0.0
C2440 C 0.51059 0.3058 0.92332 0.0
C2441 C 0.51653 0.30772 0.90591 0.0
C2442 C 0.50654 0.32191 0.93355 0.0
C2443 C 0.49342 0.37216 0.9292 0.0
H2444 H 0.51313 0.3784 0.97714 0.0
C2445 C 0.50013 0.44511 0.96383 0.0
C2446 C 0.49714 0.44665 0.98202 0.0
C2447 C 0.49985 0.42736 0.95532 0.0
C2448 C 0.50722 0.37674 0.96389 0.0
H2449 H 0.52313 0.32814 0.88575 0.0
H2450 H 0.51614 0.35603 0.90356 0.0
H2451 H 0.51809 0.34862 0.96097 0.0
H2452 H 0.49093 0.43074 0.00545 0.0
H2453 H 0.4903 0.39963 -0.00952 0.0
H2454 H 0.48277 0.40029 0.93195 0.0
C2455 C 0.51439 0.3421 0.90923 0.0
C2456 C 0.51011 0.3597 0.95462 0.0
C2457 C 0.51854 0.32608 0.89907 0.0
C2458 C 0.4933 0.43004 -0.00858 0.0
C2459 C 0.49307 0.41221 0.98288 0.0
C2460 C 0.49048 0.38913 0.93846 0.0
C2461 C 0.5082 0.34021 0.92652 0.0
C2462 C 0.50361 0.35743 0.93704 0.0
C2463 C 0.49656 0.41067 0.96477 0.0
C2464 C 0.49772 0.3918 0.95577 0.0
H2465 H 0.50889 0.29187 0.92899 0.0
H2466 H 0.50176 0.32003 0.94683 0.0
H2467 H 0.4879 0.37067 0.91579 0.0
H2468 H 0.50313 0.4576 0.95617 0.0
H2469 H 0.50285 0.4267 0.94142 0.0
C2470 C 0.00375 0.18561 0.21857 0.0
C2471 C 0.01164 0.20365 0.21559 0.0
C2472 C -0.01398 0.18406 0.22585 0.0
C2473 C 0.94385 0.2122 0.22576 0.0
H2474 H 0.92502 0.1784 0.26125 0.0
C2475 C 0.87466 0.22576 0.25704 0.0
C2476 C 0.86148 0.21075 0.25708 0.0
C2477 C 0.89316 0.22233 0.25312 0.0
C2478 C 0.93014 0.1877 0.25116 0.0
H2479 H 0.00844 0.23401 0.21953 0.0
H2480 H 0.97794 0.23132 0.23266 0.0
H2481 H 0.95818 0.17715 0.2534 0.0
H2482 H 0.8575 0.18026 0.25357 0.0
H2483 H 0.89027 0.17426 0.24654 0.0
H2484 H 0.91618 0.22299 0.22358 0.0
C2485 C -0.01498 0.21841 0.2289 0.0
C2486 C 0.94902 0.18703 0.24673 0.0
C2487 C 0.00249 0.21995 0.22148 0.0
C2488 C 0.86736 0.1921 0.25352 0.0
C2489 C 0.88606 0.18864 0.24966 0.0
C2490 C 0.92518 0.21289 0.23017 0.0
C2491 C 0.97619 0.20055 0.23029 0.0
C2492 C 0.9561 0.1997 0.23434 0.0
C2493 C 0.89898 0.20383 0.24909 0.0
C2494 C 0.91825 0.20104 0.24322 0.0
H2495 H 0.01059 0.17285 0.21407 0.0
H2496 H 0.97951 0.17013 0.22687 0.0
H2497 H 0.94879 0.22171 0.21575 0.0
H2498 H 0.87056 0.24032 0.25945 0.0
H2499 H 0.90291 0.23426 0.25291 0.0
C2500 C 0.00383 0.67404 0.40885 0.0
C2501 C 0.00823 0.6917 0.41699 0.0
C2502 C 0.0029 0.65754 0.41879 0.0
C2503 C 0.01948 0.6375 0.46106 0.0
H2504 H 0.98309 0.59774 0.44858 0.0
C2505 C 0.01156 0.56732 0.50004 0.0
C2506 C 0.0097 0.5506 0.48965 0.0
C2507 C 0.01101 0.58519 0.49217 0.0
C2508 C -0.0066 0.60868 0.45215 0.0
H2509 H 0.01471 0.70597 0.44204 0.0
H2510 H 0.01277 0.67715 0.45949 0.0
H2511 H 0.982 0.62793 0.4333 0.0
H2512 H 0.00609 0.53955 0.46284 0.0
H2513 H 0.00511 0.57062 0.44923 0.0
H2514 H 0.03085 0.61811 0.47994 0.0
C2515 C 0.01034 0.67603 0.44535 0.0
C2516 C -0.0072 0.62597 0.44339 0.0
C2517 C 0.01133 0.69256 0.43537 0.0
C2518 C 0.00753 0.55213 0.47125 0.0
C2519 C 0.00682 0.56994 0.46344 0.0
C2520 C 0.02001 0.62021 0.46992 0.0
C2521 C 0.00626 0.65829 0.43715 0.0
C2522 C 0.00602 0.64049 0.44751 0.0
C2523 C 0.00839 0.58667 0.47381 0.0
C2524 C 0.00716 0.60551 0.46534 0.0
H2525 H 0.00145 0.67286 0.3947 0.0
H2526 H 2e-05 0.64411 0.41198 0.0
H2527 H 0.03001 0.64828 0.46444 0.0
H2528 H 0.01326 0.56662 0.51425 0.0
H2529 H 0.01219 0.59786 0.50049 0.0
C2530 C 0.59966 0.76531 0.65774 0.0
C2531 C 0.58711 0.7586 0.67021 0.0
C2532 C 0.61588 0.77532 0.66322 0.0
C2533 C 0.63915 0.80057 0.70117 0.0
H2534 H 0.6836 0.77482 0.68607 0.0
C2535 C 0.7015 0.78801 0.74653 0.0
C2536 C 0.71894 0.78359 0.73964 0.0
C2537 C 0.68675 0.79338 0.73537 0.0
C2538 C 0.67153 0.78272 0.69009 0.0
H2539 H 0.58116 0.75789 0.69806 0.0
H2540 H 0.60947 0.77531 0.70761 0.0
H2541 H 0.65393 0.76819 0.67085 0.0
H2542 H 0.73532 0.78365 0.71602 0.0
H2543 H 0.70961 0.79346 0.69655 0.0
H2544 H 0.65663 0.81451 0.72094 0.0
C2545 C 0.60674 0.77293 0.69362 0.0
C2546 C 0.65445 0.77882 0.68136 0.0
C2547 C 0.59066 0.76276 0.68817 0.0
C2548 C 0.72191 0.78662 0.72167 0.0
C2549 C 0.70717 0.79218 0.7105 0.0
C2550 C 0.65629 0.80466 0.70979 0.0
C2551 C 0.61967 0.779 0.68123 0.0
C2552 C 0.63798 0.78695 0.68742 0.0
C2553 C 0.68917 0.79462 0.71709 0.0
C2554 C 0.67248 0.79495 0.70498 0.0
H2555 H 0.59721 0.76241 0.64379 0.0
H2556 H 0.62565 0.77983 0.65343 0.0
H2557 H 0.62665 0.80726 0.70587 0.0
H2558 H 0.6988 0.78602 0.76036 0.0
H2559 H 0.67311 0.795 0.74097 0.0
C2560 C 0.59563 0.47833 0.67516 0.0
C2561 C 0.61466 0.48252 0.67855 0.0
C2562 C 0.58853 0.47676 0.65786 0.0
C2563 C 0.59804 0.49355 0.61351 0.0
H2564 H 0.55775 0.45835 0.59979 0.0
C2565 C 0.56096 0.49514 0.54476 0.0
C2566 C 0.54133 0.49498 0.54521 0.0
C2567 C 0.57169 0.49085 0.55986 0.0
C2568 C 0.569 0.46826 0.60344 0.0
H2569 H 0.64137 0.48752 0.66647 0.0
H2570 H 0.62897 0.48463 0.63621 0.0
H2571 H 0.57357 0.45541 0.62854 0.0
H2572 H 0.51755 0.48974 0.56169 0.0
H2573 H 0.53621 0.48238 0.58791 0.0
H2574 H 0.59315 0.5067 0.58859 0.0
C2575 C 0.61949 0.48284 0.64695 0.0
C2576 C 0.57803 0.46659 0.6199 0.0
C2577 C 0.6266 0.48442 0.66428 0.0
C2578 C 0.53265 0.49004 0.5609 0.0
C2579 C 0.54334 0.48565 0.57591 0.0
C2580 C 0.58903 0.49519 0.59704 0.0
C2581 C 0.60033 0.4793 0.64356 0.0
C2582 C 0.59235 0.47951 0.62529 0.0
C2583 C 0.56297 0.48617 0.57561 0.0
C2584 C 0.57411 0.48286 0.59202 0.0
H2585 H 0.58608 0.47677 0.68588 0.0
H2586 H 0.57365 0.47427 0.65571 0.0
H2587 H 0.60887 0.50386 0.61734 0.0
H2588 H 0.56805 0.49884 0.53285 0.0
H2589 H 0.5868 0.49125 0.55923 0.0
C2590 C 0.75491 0.36932 0.96454 0.0
C2591 C 0.75588 0.36004 0.9808 0.0
C2592 C 0.76062 0.36015 0.94919 0.0
C2593 C 0.76884 0.31308 0.92946 0.0
H2594 H 0.7998 0.34149 0.8977 0.0
C2595 C 0.79603 0.27833 0.86624 0.0
C2596 C 0.79342 0.28909 0.85094 0.0
C2597 C 0.79427 0.28677 0.88291 0.0
C2598 C 0.79111 0.33339 0.9064 0.0
H2599 H 0.76308 0.33361 -0.00642 0.0
H2600 H 0.77295 0.3176 0.96674 0.0
H2601 H 0.78988 0.35652 0.92502 0.0
H2602 H 0.78756 0.31729 0.84116 0.0
H2603 H 0.78452 0.33195 0.87009 0.0
H2604 H 0.76965 0.29011 0.91068 0.0
C2605 C 0.76778 0.33198 0.9659 0.0
C2606 C 0.78539 0.34201 0.922 0.0
C2607 C 0.76216 0.34118 0.98127 0.0
C2608 C 0.78997 0.30865 0.85267 0.0
C2609 C 0.78819 0.31707 0.8693 0.0
C2610 C 0.77449 0.30448 0.91381 0.0
C2611 C 0.76733 0.34147 0.94976 0.0
C2612 C 0.774 0.33203 0.93357 0.0
C2613 C 0.78984 0.30612 0.88458 0.0
C2614 C 0.78548 0.31463 0.90199 0.0
H2615 H 0.75013 0.38384 0.96369 0.0
H2616 H 0.75983 0.3677 0.93687 0.0
H2617 H 0.75994 0.3051 0.93806 0.0
H2618 H 0.79893 0.26327 0.86531 0.0
H2619 H 0.79595 0.27804 0.89446 0.0
C2620 C 0.93608 0.51245 0.18262 0.0
C2621 C 0.9171 0.51691 0.18386 0.0
C2622 C 0.9454 0.51556 0.16704 0.0
C2623 C 0.93586 0.52134 0.11939 0.0
H2624 H -0.01064 0.53131 0.11942 0.0
C2625 C 0.97637 0.52501 0.05533 0.0
C2626 C -0.00941 0.51145 0.05461 0.0
C2627 C 0.96838 0.5297 0.07134 0.0
C2628 C 0.9744 0.52863 0.11927 0.0
H2629 H 0.89316 0.52892 0.17016 0.0
H2630 H 0.90961 0.53505 0.14305 0.0
H2631 H 0.97288 0.53292 0.14713 0.0
H2632 H 0.00842 0.49304 0.07019 0.0
H2633 H -0.00539 0.50154 0.0983 0.0
H2634 H 0.93747 0.51712 0.09148 0.0
C2635 C 0.91718 0.52858 0.15392 0.0
C2636 C 0.96496 0.52942 0.1351 0.0
C2637 C 0.90775 0.52516 0.16945 0.0
C2638 C -0.00258 0.50347 0.07034 0.0
C2639 C -0.01039 0.5084 0.08641 0.0
C2640 C 0.94524 0.52088 0.10355 0.0
C2641 C 0.93605 0.52352 0.15243 0.0
C2642 C 0.94565 0.52526 0.13542 0.0
C2643 C 0.97471 0.52116 0.08694 0.0
C2644 C 0.96464 0.52408 0.10342 0.0
H2645 H 0.94363 0.50598 0.19351 0.0
H2646 H 0.95979 0.5111 0.16632 0.0
H2647 H 0.92108 0.51774 0.11909 0.0
H2648 H 0.97083 0.53143 0.04342 0.0
H2649 H 0.95695 0.53964 0.07149 0.0
C2650 C 0.76792 0.62723 0.46165 0.0
C2651 C 0.76923 0.63797 0.47743 0.0
C2652 C 0.76415 0.63612 0.44563 0.0
C2653 C 0.7414 0.67834 0.42811 0.0
H2654 H 0.76669 0.66535 0.38516 0.0
C2655 C 0.7326 0.72005 0.36341 0.0
C2656 C 0.73336 0.70975 0.34741 0.0
C2657 C 0.73555 0.71096 0.37946 0.0
C2658 C 0.75928 0.66891 0.39699 0.0
H2659 H 0.76844 0.66651 0.48875 0.0
H2660 H 0.76194 0.68199 0.46077 0.0
H2661 H 0.77617 0.65042 0.4127 0.0
H2662 H 0.73682 0.68158 0.33583 0.0
H2663 H 0.74115 0.6657 0.36377 0.0
H2664 H 0.72441 0.69673 0.4124 0.0
C2665 C 0.76359 0.6667 0.46083 0.0
C2666 C 0.76479 0.66043 0.41275 0.0
C2667 C 0.76746 0.65784 0.47681 0.0
C2668 C 0.73594 0.68996 0.34787 0.0
C2669 C 0.73876 0.68089 0.3639 0.0
C2670 C 0.73581 0.68676 0.41232 0.0
C2671 C 0.76153 0.65588 0.44515 0.0
C2672 C 0.75593 0.66508 0.42847 0.0
C2673 C 0.73922 0.69138 0.37982 0.0
C2674 C 0.74469 0.68213 0.39658 0.0
H2675 H 0.7692 0.6119 0.46172 0.0
H2676 H 0.76256 0.62744 0.43374 0.0
H2677 H 0.73414 0.68196 0.44001 0.0
H2678 H 0.73039 0.73526 0.36351 0.0
H2679 H 0.73583 0.71946 0.39151 0.0
C2680 C 0.60292 0.502 0.79272 0.0
C2681 C 0.59144 0.50747 0.77837 0.0
C2682 C 0.59697 0.50431 0.81 0.0
C2683 C 0.55473 0.51068 0.83605 0.0
H2684 H 0.5897 0.53106 0.87185 0.0
C2685 C 0.53065 0.53086 0.90532 0.0
C2686 C 0.54191 0.52464 0.91952 0.0
C2687 C 0.53718 0.53022 0.88817 0.0
C2688 C 0.57982 0.52523 0.86203 0.0
H2689 H 0.56454 0.51937 0.77096 0.0
H2690 H 0.55424 0.52342 0.80105 0.0
H2691 H 0.59998 0.52607 0.84174 0.0
H2692 H 0.56906 0.51343 0.92694 0.0
H2693 H 0.58047 0.51231 0.89699 0.0
H2694 H 0.53461 0.50968 0.85629 0.0
C2695 C 0.56778 0.51722 0.79894 0.0
C2696 C 0.58571 0.52233 0.8448 0.0
C2697 C 0.57374 0.51496 0.78168 0.0
C2698 C 0.56014 0.51854 0.9163 0.0
C2699 C 0.56666 0.51787 0.89913 0.0
C2700 C 0.54885 0.51356 0.85325 0.0
C2701 C 0.5794 0.51208 0.8133 0.0
C2702 C 0.57323 0.51501 0.83163 0.0
C2703 C 0.5551 0.52331 0.88483 0.0
C2704 C 0.56132 0.52086 0.86645 0.0
H2705 H 0.61663 0.49617 0.79065 0.0
H2706 H 0.60612 0.49996 0.82078 0.0
H2707 H 0.54486 0.50476 0.82626 0.0
H2708 H 0.51664 0.5359 0.90745 0.0
H2709 H 0.52808 0.5349 0.87747 0.0
C2710 C 0.7556 0.31426 0.07989 0.0
C2711 C 0.76093 0.33343 0.08268 0.0
C2712 C 0.75733 0.30124 0.09355 0.0
C2713 C 0.78079 0.29369 0.13688 0.0
H2714 H 0.7371 0.26254 0.14619 0.0
C2715 C 0.74675 0.25883 0.20052 0.0
C2716 C 0.7626 0.25071 0.20858 0.0
C2717 C 0.7471 0.26465 0.18304 0.0
C2718 C 0.74945 0.27105 0.14368 0.0
H2719 H 0.77273 0.35387 0.1018 0.0
H2720 H 0.77573 0.33119 0.12561 0.0
H2721 H 0.73752 0.28176 0.11968 0.0
H2722 H 0.79084 0.24116 0.20426 0.0
H2723 H 0.79142 0.25136 0.17365 0.0
H2724 H 0.7924 0.28369 0.16124 0.0
C2725 C 0.77033 0.32618 0.11285 0.0
C2726 C 0.74975 0.28194 0.12844 0.0
C2727 C 0.76849 0.33921 0.09924 0.0
C2728 C 0.77842 0.24744 0.19845 0.0
C2729 C 0.7788 0.25338 0.18096 0.0
C2730 C 0.78053 0.28275 0.15205 0.0
C2731 C 0.76457 0.30711 0.11021 0.0
C2732 C 0.76523 0.29375 0.12513 0.0
C2733 C 0.76333 0.26254 0.17325 0.0
C2734 C 0.76466 0.27169 0.15585 0.0
H2735 H 0.74976 0.30936 0.06725 0.0
H2736 H 0.75292 0.2866 0.0911 0.0
H2737 H 0.793 0.30249 0.13455 0.0
H2738 H 0.73432 0.26147 0.20795 0.0
H2739 H 0.735 0.2718 0.17754 0.0
C2740 C 0.94027 0.46294 0.28316 0.0
C2741 C 0.93006 0.47918 0.27873 0.0
C2742 C 0.94693 0.46042 0.30042 0.0
C2743 C 0.94156 0.47864 0.34638 0.0
H2744 H -0.00996 0.45559 0.35406 0.0
C2745 C -0.01386 0.48709 0.41027 0.0
C2746 C -0.00958 0.47006 0.41879 0.0
C2747 C 0.97849 0.48672 0.39318 0.0
C2748 C 0.97641 0.46187 0.35204 0.0
H2749 H 0.91891 0.5056 0.28876 0.0
H2750 H 0.93126 0.50171 0.3187 0.0
H2751 H 0.97712 0.45828 0.32406 0.0
H2752 H -0.00953 0.43933 0.41621 0.0
H2753 H 0.97758 0.43872 0.38573 0.0
H2754 H 0.94151 0.48312 0.37439 0.0
C2755 C 0.93362 0.49054 0.30905 0.0
C2756 C 0.96893 0.46335 0.33491 0.0
C2757 C 0.92664 0.49288 0.29185 0.0
C2758 C -0.01269 0.45261 0.40981 0.0
C2759 C 0.98 0.45227 0.3925 0.0
C2760 C 0.94922 0.47749 0.36344 0.0
C2761 C 0.94383 0.47426 0.31357 0.0
C2762 C 0.95146 0.47191 0.33184 0.0
C2763 C 0.97529 0.46933 0.38422 0.0
C2764 C 0.96673 0.46922 0.36634 0.0
H2765 H 0.94293 0.45203 0.27333 0.0
H2766 H 0.95439 0.44753 0.30345 0.0
H2767 H 0.9279 0.48488 0.34462 0.0
H2768 H -0.01181 0.5007 0.41704 0.0
H2769 H 0.975 0.50002 0.38695 0.0
C2770 C 0.80081 0.63778 0.5955 0.0
C2771 C 0.79518 0.64186 0.5781 0.0
C2772 C 0.80974 0.65172 0.60615 0.0
C2773 C 0.80738 0.7012 0.61418 0.0
H2774 H 0.8492 0.6934 0.6468 0.0
C2775 C 0.81006 0.74396 0.67744 0.0
C2776 C 0.81264 0.73252 0.69233 0.0
C2777 C 0.81598 0.73779 0.66096 0.0
C2778 C 0.83749 0.69585 0.63781 0.0
H2779 H 0.79504 0.66347 0.55798 0.0
H2780 H 0.81002 0.68808 0.57695 0.0
H2781 H 0.84375 0.67139 0.62186 0.0
H2782 H 0.82604 0.70704 0.70196 0.0
H2783 H 0.83479 0.69552 0.6733 0.0
H2784 H 0.79968 0.7242 0.63078 0.0
C2785 C 0.8078 0.67399 0.58214 0.0
C2786 C 0.8345 0.68333 0.62347 0.0
C2787 C 0.79918 0.65994 0.57137 0.0
C2788 C 0.82307 0.71583 0.69066 0.0
C2789 C 0.8285 0.7094 0.67414 0.0
C2790 C 0.81008 0.71343 0.62869 0.0
C2791 C 0.81292 0.67004 0.59967 0.0
C2792 C 0.81897 0.68549 0.61201 0.0
C2793 C 0.82408 0.71979 0.65891 0.0
C2794 C 0.82463 0.71036 0.64121 0.0
H2795 H 0.79806 0.62391 0.60096 0.0
H2796 H 0.81331 0.64846 0.61974 0.0
H2797 H 0.79523 0.70307 0.60554 0.0
H2798 H 0.80227 0.75702 0.67814 0.0
H2799 H 0.81298 0.74656 0.64966 0.0
C2800 C 0.70163 0.61172 0.51181 0.0
C2801 C 0.71195 0.59773 0.52069 0.0
C2802 C 0.68764 0.60642 0.49935 0.0
C2803 C 0.67367 0.56659 0.46973 0.0
H2804 H 0.62335 0.58541 0.47351 0.0
C2805 C 0.60863 0.52236 0.45388 0.0
C2806 C 0.59131 0.53154 0.45251 0.0
C2807 C 0.62527 0.533 0.45454 0.0
C2808 C 0.6374 0.58036 0.47173 0.0
H2809 H 0.71484 0.56734 0.52438 0.0
H2810 H 0.69038 0.55821 0.50283 0.0
H2811 H 0.6484 0.59979 0.49157 0.0
H2812 H 0.57843 0.55892 0.4473 0.0
H2813 H 0.60726 0.57685 0.44712 0.0
H2814 H 0.6626 0.54669 0.45033 0.0
C2815 C 0.69344 0.5732 0.50516 0.0
C2816 C 0.65174 0.58858 0.48225 0.0
C2817 C 0.70724 0.57845 0.51767 0.0
C2818 C 0.59128 0.5511 0.44868 0.0
C2819 C 0.60793 0.56161 0.44882 0.0
C2820 C 0.65937 0.55847 0.45904 0.0
C2821 C 0.6839 0.5871 0.49554 0.0
C2822 C 0.66977 0.58115 0.48193 0.0
C2823 C 0.62491 0.55295 0.45334 0.0
C2824 C 0.64089 0.56465 0.46056 0.0
H2825 H 0.70498 0.62669 0.51382 0.0
H2826 H 0.68025 0.61738 0.49223 0.0
H2827 H 0.68764 0.56091 0.46903 0.0
H2828 H 0.60934 0.50719 0.45596 0.0
H2829 H 0.63813 0.52571 0.45774 0.0
C2830 C 0.19655 0.91917 0.55098 0.0
C2831 C 0.19809 0.89998 0.54579 0.0
C2832 C 0.1793 0.92817 0.54994 0.0
C2833 C 0.1355 0.92594 0.52445 0.0
H2834 H 0.11778 0.96103 0.56005 0.0
C2835 C 0.07601 0.97798 0.50988 0.0
C2836 C 0.06162 0.97826 0.52209 0.0
C2837 C 0.09274 0.96879 0.51384 0.0
C2838 C 0.12255 0.95122 0.55004 0.0
H2839 H 0.18265 0.87493 0.53618 0.0
H2840 H 0.15247 0.89075 0.53424 0.0
H2841 H 0.14633 0.94309 0.56589 0.0
H2842 H 0.05377 0.96981 0.54828 0.0
H2843 H 0.08313 0.9539 0.55521 0.0
H2844 H 0.11185 0.93412 0.50854 0.0
C2845 C 0.16467 0.89881 0.53901 0.0
C2846 C 0.13889 0.94104 0.55334 0.0
C2847 C 0.18191 0.88975 0.54021 0.0
C2848 C 0.06458 0.96978 0.53858 0.0
C2849 C 0.08139 0.96075 0.54258 0.0
C2850 C 0.1193 0.93625 0.52108 0.0
C2851 C 0.16329 0.91819 0.54356 0.0
C2852 C 0.14551 0.92832 0.54055 0.0
C2853 C 0.09549 0.95986 0.53012 0.0
C2854 C 0.11271 0.94903 0.53381 0.0
H2855 H 0.20878 0.9274 0.5554 0.0
H2856 H 0.17865 0.94315 0.55343 0.0
H2857 H 0.14041 0.9164 0.51428 0.0
H2858 H 0.07416 0.98441 0.49708 0.0
H2859 H 0.1035 0.96851 0.50409 0.0
C2860 C 0.35006 0.93986 0.72731 0.0
C2861 C 0.36837 0.94074 0.72107 0.0
C2862 C 0.34148 0.92231 0.7304 0.0
C2863 C 0.35426 0.87387 0.74202 0.0
H2864 H 0.3018 0.8621 0.73244 0.0
C2865 C 0.32152 0.79976 0.75376 0.0
C2866 C 0.30316 0.79899 0.75983 0.0
C2867 C 0.32963 0.81712 0.74924 0.0
C2868 C 0.31642 0.86529 0.73542 0.0
H2869 H 0.39146 0.92381 0.71198 0.0
H2870 H 0.37639 0.89324 0.71726 0.0
H2871 H 0.31506 0.89207 0.7224 0.0
H2872 H 0.27927 0.81594 0.76679 0.0
H2873 H 0.2936 0.84627 0.75929 0.0
H2874 H 0.35563 0.84727 0.75524 0.0
C2875 C 0.36885 0.90615 0.72007 0.0
C2876 C 0.32402 0.8824 0.72958 0.0
C2877 C 0.37742 0.92368 0.71693 0.0
C2878 C 0.29341 0.81604 0.76205 0.0
C2879 C 0.30155 0.8334 0.7576 0.0
C2880 C 0.34666 0.85681 0.74792 0.0
C2881 C 0.35103 0.9053 0.72733 0.0
C2882 C 0.34301 0.88686 0.73283 0.0
C2883 C 0.31959 0.83409 0.75077 0.0
C2884 C 0.32765 0.85233 0.74471 0.0
H2885 H 0.34267 0.95273 0.73059 0.0
H2886 H 0.32774 0.92209 0.73603 0.0
H2887 H 0.36888 0.87709 0.74502 0.0
H2888 H 0.32938 0.78687 0.75183 0.0
H2889 H 0.34351 0.81714 0.74391 0.0
C2890 C 0.32192 0.07952 0.04545 0.0
C2891 C 0.30906 0.06517 0.04007 0.0
C2892 C 0.33997 0.07485 0.05115 0.0
C2893 C 0.37946 0.06289 0.04613 0.0
H2894 H 0.39295 0.01285 0.06261 0.0
C2895 C 0.43691 0.00813 0.02621 0.0
C2896 C 0.45392 0.01736 0.03079 0.0
C2897 C 0.4203 0.01452 0.03323 0.0
C2898 C 0.38936 0.02698 0.05828 0.0
H2899 H 0.30444 0.03473 0.0373 0.0
H2900 H 0.33613 0.02656 0.04615 0.0
H2901 H 0.36105 0.02398 0.06611 0.0
H2902 H 0.4671 0.04031 0.04634 0.0
H2903 H 0.43772 0.05206 0.05798 0.0
H2904 H 0.4078 0.06567 0.03815 0.0
C2905 C 0.33231 0.0414 0.04664 0.0
C2906 C 0.37112 0.03332 0.06011 0.0
C2907 C 0.31415 0.04606 0.04137 0.0
C2908 C 0.45412 0.03298 0.04261 0.0
C2909 C 0.43743 0.03964 0.04931 0.0
C2910 C 0.39777 0.05671 0.04468 0.0
C2911 C 0.34564 0.05577 0.05109 0.0
C2912 C 0.36572 0.05096 0.05324 0.0
C2913 C 0.42044 0.03044 0.04464 0.0
C2914 C 0.40259 0.03841 0.05003 0.0
H2915 H 0.31816 0.09438 0.04488 0.0
H2916 H 0.34967 0.08627 0.05495 0.0
H2917 H 0.3759 0.07644 0.04047 0.0
H2918 H 0.43643 -0.00405 0.01725 0.0
H2919 H 0.40726 0.00742 0.02927 0.0
C2920 C 0.66605 0.56184 0.73679 0.0
C2921 C 0.64805 0.56061 0.72885 0.0
C2922 C 0.67506 0.57946 0.73929 0.0
C2923 C 0.69481 0.61735 0.73429 0.0
H2924 H 0.66632 0.65973 0.75207 0.0
C2925 C 0.7265 0.69279 0.74135 0.0
C2926 C 0.72314 0.70279 0.75712 0.0
C2927 C 0.71671 0.67594 0.73712 0.0
C2928 C 0.67447 0.648 0.74718 0.0
H2929 H 0.62556 0.57693 0.717 0.0
H2930 H 0.6414 0.60768 0.72126 0.0
H2931 H 0.65074 0.62907 0.74609 0.0
H2932 H 0.70663 0.70317 0.78064 0.0
H2933 H 0.68962 0.67359 0.77328 0.0
H2934 H 0.71862 0.6361 0.73577 0.0
C2935 C 0.64841 0.59501 0.72574 0.0
C2936 C 0.66551 0.63052 0.74357 0.0
C2937 C 0.6394 0.57737 0.7232 0.0
C2938 C 0.70952 0.69579 0.76839 0.0
C2939 C 0.69971 0.67891 0.76414 0.0
C2940 C 0.70375 0.63482 0.73786 0.0
C2941 C 0.66628 0.59624 0.73392 0.0
C2942 C 0.67562 0.61498 0.73718 0.0
C2943 C 0.70336 0.66871 0.74854 0.0
C2944 C 0.69369 0.65032 0.74441 0.0
H2945 H 0.67311 0.54922 0.74133 0.0
H2946 H 0.68874 0.57998 0.74582 0.0
H2947 H 0.70293 0.60569 0.72922 0.0
H2948 H 0.73684 0.69784 0.73232 0.0
H2949 H 0.71963 0.66856 0.72488 0.0
C2950 C 0.81914 0.40396 0.03993 0.0
C2951 C 0.80498 0.41657 0.03478 0.0
C2952 C 0.83798 0.40912 0.03841 0.0
C2953 C 0.86948 0.45068 0.03201 0.0
H2954 H 0.90149 0.41383 0.00978 0.0
C2955 C 0.93719 0.47353 -8e-05 0.0
C2956 C 0.95333 0.46342 0.00463 0.0
C2957 C 0.91955 0.46657 0.00409 0.0
C2958 C 0.89275 0.42418 0.01615 0.0
H2959 H 0.79952 0.44478 0.02477 0.0
H2960 H 0.83215 0.45361 0.022 0.0
H2961 H 0.86993 0.40434 0.01794 0.0
H2962 H 0.96355 0.43752 0.0165 0.0
H2963 H 0.93258 0.42528 0.02364 0.0
H2964 H 0.89209 0.47064 0.0298 0.0
C2965 C 0.82881 0.43982 0.02734 0.0
C2966 C 0.87474 0.41875 0.02091 0.0
C2967 C 0.81005 0.43469 0.02883 0.0
C2968 C 0.95138 0.44566 0.01271 0.0
C2969 C 0.93367 0.43863 0.0168 0.0
C2970 C 0.88739 0.45612 0.02716 0.0
C2971 C 0.84299 0.427 0.03181 0.0
C2972 C 0.86279 0.43205 0.0286 0.0
C2973 C 0.91766 0.44931 0.01297 0.0
C2974 C 0.89907 0.44303 0.01889 0.0
H2975 H 0.8157 0.3899 0.04459 0.0
H2976 H 0.84862 0.39902 0.04217 0.0
H2977 H 0.86076 0.46116 0.03823 0.0
H2978 H 0.93818 0.4872 -0.0064 0.0
H2979 H 0.90738 0.47489 0.00068 0.0
C2980 C 0.35532 0.0687 0.75165 0.0
C2981 C 0.3478 0.05249 0.7428 0.0
C2982 C 0.34488 0.08522 0.75305 0.0
C2983 C 0.29758 0.10493 0.74996 0.0
H2984 H 0.32436 0.15094 0.73753 0.0
C2985 C 0.28486 0.18978 0.735 0.0
C2986 C 0.27536 0.19528 0.75017 0.0
C2987 C 0.2914 0.17127 0.73313 0.0
C2988 C 0.31662 0.13821 0.74085 0.0
H2989 H 0.32307 0.04057 0.72926 0.0
H2990 H 0.30475 0.06957 0.73174 0.0
H2991 H 0.34036 0.12065 0.73716 0.0
H2992 H 0.26426 0.18537 0.77476 0.0
H2993 H 0.2758 0.15304 0.77149 0.0
H2994 H 0.27381 0.12268 0.75367 0.0
C2995 C 0.31875 0.06942 0.73758 0.0
C2996 C 0.32585 0.1209 0.74087 0.0
C2997 C 0.32926 0.05286 0.73612 0.0
C2998 C 0.2716 0.18159 0.76295 0.0
C2999 C 0.27813 0.16304 0.76105 0.0
C3000 C 0.28834 0.12235 0.75007 0.0
C3001 C 0.32666 0.08589 0.74567 0.0
C3002 C 0.3165 0.1041 0.74553 0.0
C3003 C 0.28855 0.15787 0.74636 0.0
C3004 C 0.2978 0.13916 0.74553 0.0
H3005 H 0.36951 0.06884 0.75706 0.0
H3006 H 0.35119 0.09761 0.75963 0.0
H3007 H 0.29006 0.09218 0.75363 0.0
H3008 H 0.28783 0.19993 0.72483 0.0
H3009 H 0.29912 0.16758 0.72152 0.0
C3010 C 0.15562 0.92913 0.25371 0.0
C3011 C 0.163 0.94598 0.24683 0.0
C3012 C 0.16679 0.91314 0.25564 0.0
C3013 C 0.21558 0.89633 0.25693 0.0
H3014 H 0.19242 0.84909 0.23972 0.0
C3015 C 0.23499 0.81361 0.23729 0.0
C3016 C 0.24519 0.80835 0.25251 0.0
C3017 C 0.22682 0.83149 0.23634 0.0
C3018 C 0.19916 0.86219 0.24442 0.0
H3019 H 0.18813 0.95957 0.23739 0.0
H3020 H 0.20762 0.93155 0.24066 0.0
H3021 H 0.17437 0.87812 0.23969 0.0
H3022 H 0.25572 0.81815 0.27827 0.0
H3023 H 0.24131 0.84934 0.27662 0.0
H3024 H 0.24048 0.88026 0.26145 0.0
C3025 C 0.19321 0.93076 0.24464 0.0
C3026 C 0.18873 0.87878 0.24465 0.0
C3027 C 0.18202 0.94677 0.24269 0.0
C3028 C 0.24791 0.82175 0.26636 0.0
C3029 C 0.23971 0.83966 0.2654 0.0
C3030 C 0.22603 0.87965 0.25677 0.0
C3031 C 0.18558 0.91363 0.25073 0.0
C3032 C 0.19679 0.89603 0.25093 0.0
C3033 C 0.22864 0.8445 0.25058 0.0
C3034 C 0.21793 0.86241 0.25045 0.0
H3035 H 0.14105 0.9281 0.25714 0.0
H3036 H 0.16061 0.90024 0.26068 0.0
H3037 H 0.22214 0.9094 0.26191 0.0
H3038 H 0.23276 0.80369 0.22632 0.0
H3039 H 0.21868 0.83496 0.22459 0.0
C3040 C 0.46767 0.3242 0.41143 0.0
C3041 C 0.46656 0.32968 0.39368 0.0
C3042 C 0.4675 0.33782 0.42497 0.0
C3043 C 0.45827 0.38795 0.43602 0.0
H3044 H 0.50237 0.38394 0.46677 0.0
C3045 C 0.50957 0.44243 0.47616 0.0
C3046 C 0.49678 0.45305 0.48581 0.0
C3047 C 0.50404 0.42517 0.46814 0.0
C3048 C 0.48991 0.38512 0.4584 0.0
H3049 H 0.46281 0.35359 0.37627 0.0
H3050 H 0.46252 0.37744 0.40003 0.0
H3051 H 0.49407 0.35803 0.44605 0.0
H3052 H 0.46848 0.45349 0.49541 0.0
H3053 H 0.45881 0.42341 0.48113 0.0
H3054 H 0.45456 0.41539 0.44797 0.0
C3055 C 0.46354 0.36257 0.4034 0.0
C3056 C 0.48507 0.37028 0.44665 0.0
C3057 C 0.46379 0.34893 0.3898 0.0
C3058 C 0.47865 0.44564 0.48801 0.0
C3059 C 0.47306 0.4285 0.47981 0.0
C3060 C 0.463 0.40272 0.44793 0.0
C3061 C 0.46609 0.35717 0.42105 0.0
C3062 C 0.46947 0.37176 0.43506 0.0
C3063 C 0.48559 0.41834 0.4695 0.0
C3064 C 0.47913 0.40161 0.45888 0.0
H3065 H 0.46955 0.30945 0.41491 0.0
H3066 H 0.46919 0.33329 0.4385 0.0
H3067 H 0.44615 0.38937 0.42727 0.0
H3068 H 0.52365 0.44775 0.47429 0.0
H3069 H 0.51393 0.41764 0.46015 0.0
C3070 C 0.44446 0.75594 0.17079 0.0
C3071 C 0.45616 0.74152 0.17715 0.0
C3072 C 0.42669 0.75842 0.17763 0.0
C3073 C 0.39913 0.74685 0.21679 0.0
H3074 H 0.35673 0.76028 0.18675 0.0
C3075 C 0.32762 0.76286 0.24596 0.0
C3076 C 0.31174 0.75537 0.2368 0.0
C3077 C 0.34509 0.76274 0.2382 0.0
C3078 C 0.3684 0.75641 0.19531 0.0
H3079 H 0.45809 0.71802 0.19527 0.0
H3080 H 0.42707 0.72203 0.20683 0.0
H3081 H 0.3873 0.75615 0.17395 0.0
H3082 H 0.30168 0.74222 0.21216 0.0
H3083 H 0.3322 0.74158 0.19881 0.0
H3084 H 0.3802 0.74636 0.23801 0.0
C3085 C 0.43176 0.73178 0.19692 0.0
C3086 C 0.38599 0.75427 0.188 0.0
C3087 C 0.44953 0.72939 0.19019 0.0
C3088 C 0.31364 0.74814 0.21957 0.0
C3089 C 0.33114 0.74788 0.21186 0.0
C3090 C 0.38157 0.74888 0.22406 0.0
C3091 C 0.42019 0.74646 0.1909 0.0
C3092 C 0.40154 0.74932 0.19863 0.0
C3093 C 0.34713 0.75499 0.22116 0.0
C3094 C 0.36595 0.75359 0.21342 0.0
H3095 H 0.44916 0.76556 0.16079 0.0
H3096 H 0.41822 0.76998 0.1728 0.0
H3097 H 0.41085 0.74335 0.22544 0.0
H3098 H 0.3266 0.76869 0.2592 0.0
H3099 H 0.35703 0.76868 0.24562 0.0
C3100 C 0.00096 0.70205 0.89216 0.0
C3101 C -0.00037 0.71971 0.90093 0.0
C3102 C -0.00354 0.68528 0.9007 0.0
C3103 C -0.01048 0.66419 0.94405 0.0
H3104 H 0.9596 0.62727 0.91652 0.0
C3105 C 0.96668 0.59383 0.97401 0.0
C3106 C 0.97169 0.57783 0.96395 0.0
C3107 C 0.96628 0.61179 0.96649 0.0
C3108 C 0.96793 0.63746 0.92436 0.0
H3109 H -0.00648 0.73363 0.92579 0.0
H3110 H -0.01437 0.70421 0.94076 0.0
H3111 H 0.96822 0.65755 0.90353 0.0
H3112 H 0.97884 0.56783 0.93784 0.0
H3113 H 0.97802 0.59914 0.92467 0.0
H3114 H -0.01046 0.64394 0.96476 0.0
C3115 C -0.00983 0.70338 0.92728 0.0
C3116 C 0.97295 0.65473 0.91692 0.0
C3117 C -0.00526 0.72021 0.91873 0.0
C3118 C 0.97478 0.57987 0.94588 0.0
C3119 C 0.97434 0.59783 0.93835 0.0
C3120 C 0.98447 0.64692 0.95151 0.0
C3121 C -0.00952 0.68581 0.91816 0.0
C3122 C 0.98414 0.66809 0.92656 0.0
C3123 C 0.97081 0.61404 0.94876 0.0
C3124 C 0.97392 0.63324 0.94161 0.0
H3125 H 0.00482 0.7012 0.87848 0.0
H3126 H -0.00269 0.6719 0.89349 0.0
H3127 H -0.00177 0.67416 0.95176 0.0
H3128 H 0.96389 0.59258 0.9879 0.0
H3129 H 0.96315 0.62402 0.97471 0.0
C3130 C 0.0694 0.25726 0.68432 0.0
C3131 C 0.06788 0.25797 0.66584 0.0
C3132 C 0.08694 0.25696 0.69289 0.0
C3133 C 0.13618 0.24529 0.68496 0.0
H3134 H 0.14566 0.2726 0.72925 0.0
C3135 C 0.20988 0.2538 0.71728 0.0
C3136 C 0.21154 0.25148 0.73563 0.0
C3137 C 0.19229 0.25435 0.70886 0.0
C3138 C 0.14314 0.26474 0.71698 0.0
H3139 H 0.08354 0.25947 0.64187 0.0
H3140 H 0.11419 0.2593 0.65682 0.0
H3141 H 0.11517 0.27487 0.71421 0.0
H3142 H 0.19604 0.24774 0.75951 0.0
H3143 H 0.16526 0.24869 0.74474 0.0
H3144 H 0.16422 0.23531 0.68769 0.0
C3145 C 0.10182 0.25858 0.66468 0.0
C3146 C 0.12569 0.26604 0.70836 0.0
C3147 C 0.08426 0.25881 0.65611 0.0
C3148 C 0.19523 0.24955 0.74536 0.0
C3149 C 0.17761 0.25022 0.73693 0.0
C3150 C 0.15365 0.24407 0.69354 0.0
C3151 C 0.10336 0.25744 0.68316 0.0
C3152 C 0.122 0.25633 0.69224 0.0
C3153 C 0.17597 0.25269 0.7186 0.0
C3154 C 0.15731 0.25377 0.70964 0.0
H3155 H 0.05701 0.25654 0.6922 0.0
H3156 H 0.08761 0.25585 0.70711 0.0
H3157 H 0.1337 0.23734 0.67274 0.0
H3158 H 0.22217 0.25534 0.7094 0.0
H3159 H 0.19146 0.25646 0.69475 0.0
C3160 C 0.51184 0.69184 0.0982 0.0
C3161 C 0.51335 0.68936 0.11655 0.0
C3162 C 0.51337 0.67626 0.08659 0.0
C3163 C 0.53127 0.62692 0.08518 0.0
H3164 H 0.49851 0.62078 0.04376 0.0
C3165 C 0.51735 0.55488 0.05029 0.0
C3166 C 0.51704 0.55411 0.03177 0.0
C3167 C 0.51878 0.57232 0.05932 0.0
C3168 C 0.50794 0.62246 0.05514 0.0
H3169 H 0.51702 0.66844 0.13705 0.0
H3170 H 0.51921 0.64143 0.11696 0.0
H3171 H 0.49683 0.64963 0.06209 0.0
H3172 H 0.51819 0.57101 0.00816 0.0
H3173 H 0.52045 0.60167 0.02406 0.0
H3174 H 0.5419 0.59948 0.07858 0.0
C3175 C 0.5174 0.65542 0.11145 0.0
C3176 C 0.50699 0.63897 0.06564 0.0
C3177 C 0.51599 0.67094 0.123 0.0
C3178 C 0.51846 0.57117 0.02245 0.0
C3179 C 0.51964 0.58869 0.03151 0.0
C3180 C 0.5321 0.6104 0.0748 0.0
C3181 C 0.51636 0.65789 0.0931 0.0
C3182 C 0.51838 0.64121 0.081 0.0
C3183 C 0.51974 0.58941 0.05004 0.0
C3184 C 0.52021 0.60783 0.05987 0.0
H3185 H 0.50986 0.70586 0.0928 0.0
H3186 H 0.51259 0.67867 0.07253 0.0
H3187 H 0.5406 0.62838 0.09664 0.0
H3188 H 0.51629 0.542 0.05786 0.0
H3189 H 0.51863 0.57244 0.0736 0.0
C3190 C 0.0468 0.77819 0.82466 0.0
C3191 C 0.04404 0.78647 0.84131 0.0
C3192 C 0.06298 0.78231 0.81554 0.0
C3193 C 0.11141 0.80049 0.82323 0.0
H3194 H 0.11174 0.79759 0.77213 0.0
C3195 C 0.17945 0.80585 0.78472 0.0
C3196 C 0.18246 0.78887 0.77517 0.0
C3197 C 0.16176 0.80992 0.79102 0.0
C3198 C 0.11177 0.79864 0.7864 0.0
H3199 H 0.05555 0.80617 0.86121 0.0
H3200 H 0.08348 0.81399 0.84502 0.0
H3201 H 0.08196 0.797 0.78704 0.0
H3202 H 0.16875 0.76333 0.76412 0.0
H3203 H 0.13794 0.77095 0.77442 0.0
H3204 H 0.14129 0.80209 0.82246 0.0
C3205 C 0.0735 0.80381 0.83921 0.0
C3206 C 0.09477 0.79811 0.79497 0.0
C3207 C 0.05746 0.7994 0.84847 0.0
C3208 C 0.16705 0.77671 0.77111 0.0
C3209 C 0.14934 0.781 0.77708 0.0
C3210 C 0.12837 0.80137 0.81464 0.0
C3211 C 0.0766 0.79511 0.82273 0.0
C3212 C 0.09441 0.7984 0.81352 0.0
C3213 C 0.14667 0.79734 0.7875 0.0
C3214 C 0.12869 0.7999 0.79619 0.0
H3215 H 0.0367 0.7681 0.81887 0.0
H3216 H 0.065 0.775 0.80309 0.0
H3217 H 0.11178 0.80047 0.83751 0.0
H3218 H 0.19084 0.8158 0.78776 0.0
H3219 H 0.15994 0.82267 0.79897 0.0
C3220 C -0.00268 0.31821 0.61484 0.0
C3221 C 0.0015 0.30062 0.60695 0.0
C3222 C -0.00464 0.33444 0.60463 0.0
C3223 C 0.00927 0.35429 0.56224 0.0
H3224 H 0.97319 0.3929 0.57369 0.0
C3225 C 0.0015 0.42376 0.52272 0.0
C3226 C 0.00052 0.44054 0.53299 0.0
C3227 C 8e-05 0.40594 0.53057 0.0
C3228 C 0.98339 0.38228 0.57038 0.0
H3229 H 0.00643 0.28614 0.58209 0.0
H3230 H 0.00277 0.31448 0.56419 0.0
H3231 H 0.97308 0.36292 0.5894 0.0
H3232 H -0.00295 0.45174 0.55951 0.0
H3233 H -0.00539 0.42075 0.57313 0.0
H3234 H 0.01967 0.37378 0.54333 0.0
C3235 C 0.00128 0.31577 0.57833 0.0
C3236 C 0.98335 0.36511 0.57939 0.0
C3237 C 0.00327 0.29951 0.58856 0.0
C3238 C -0.00213 0.43911 0.55121 0.0
C3239 C -0.00366 0.42134 0.55901 0.0
C3240 C 0.00925 0.37144 0.55317 0.0
C3241 C -0.00251 0.33347 0.58627 0.0
C3242 C -0.00351 0.35104 0.57564 0.0
C3243 C -0.0025 0.40456 0.5488 0.0
C3244 C -0.00348 0.38575 0.55736 0.0
H3245 H -0.00408 0.31955 0.62899 0.0
H3246 H -0.00728 0.34788 0.61123 0.0
H3247 H 0.01974 0.34387 0.55916 0.0
H3248 H 0.00351 0.42438 0.50864 0.0
H3249 H 0.0009 0.39325 0.52235 0.0
C3250 C 0.42102 0.24876 0.3262 0.0
C3251 C 0.431 0.25104 0.34232 0.0
C3252 C 0.40574 0.23623 0.32476 0.0
C3253 C 0.3662 0.22263 0.34434 0.0
H3254 H 0.36393 0.17836 0.31311 0.0
C3255 C 0.2978 0.20569 0.31022 0.0
C3256 C 0.30026 0.20528 0.29191 0.0
C3257 C 0.31272 0.20147 0.32176 0.0
C3258 C 0.36428 0.19058 0.32201 0.0
H3259 H 0.43288 0.24204 0.36956 0.0
H3260 H 0.40546 0.22068 0.36709 0.0
H3261 H 0.39429 0.19189 0.32272 0.0
H3262 H 0.31915 0.19722 0.27131 0.0
H3263 H 0.3451 0.19076 0.29109 0.0
H3264 H 0.33653 0.22311 0.34205 0.0
C3265 C 0.40989 0.22826 0.35558 0.0
C3266 C 0.38165 0.19817 0.32758 0.0
C3267 C 0.42545 0.2405 0.35695 0.0
C3268 C 0.31694 0.19811 0.28537 0.0
C3269 C 0.33187 0.19415 0.29684 0.0
C3270 C 0.34884 0.21535 0.33845 0.0
C3271 C 0.40003 0.22606 0.33946 0.0
C3272 C 0.38262 0.21477 0.33805 0.0
C3273 C 0.33036 0.19709 0.31515 0.0
C3274 C 0.3477 0.19998 0.32627 0.0
H3275 H 0.42506 0.25661 0.31472 0.0
H3276 H 0.39804 0.23486 0.31227 0.0
H3277 H 0.36676 0.23551 0.3524 0.0
H3278 H 0.28491 0.21072 0.31566 0.0
H3279 H 0.31084 0.2032 0.3358 0.0
C3280 C 0.39482 0.5138 0.33413 0.0
C3281 C 0.40842 0.51097 0.32135 0.0
C3282 C 0.40014 0.51895 0.35144 0.0
C3283 C 0.43878 0.53995 0.3785 0.0
H3284 H 0.42133 0.5073 0.41549 0.0
C3285 C 0.48159 0.52733 0.44134 0.0
C3286 C 0.47274 0.52406 0.4573 0.0
C3287 C 0.47109 0.53 0.42588 0.0
C3288 C 0.42599 0.51688 0.40544 0.0
H3289 H 0.43817 0.51175 0.31659 0.0
H3290 H 0.44742 0.52085 0.34678 0.0
H3291 H 0.40764 0.50393 0.38575 0.0
H3292 H 0.44591 0.52176 0.46975 0.0
H3293 H 0.42742 0.52647 0.44251 0.0
H3294 H 0.45749 0.55256 0.398 0.0
C3295 C 0.43267 0.51913 0.34337 0.0
C3296 C 0.41819 0.5149 0.3884 0.0
C3297 C 0.42738 0.51376 0.32614 0.0
C3298 C 0.4531 0.52419 0.45761 0.0
C3299 C 0.44254 0.52682 0.44204 0.0
C3300 C 0.44647 0.54204 0.39554 0.0
C3301 C 0.41911 0.52162 0.3562 0.0
C3302 C 0.42502 0.52594 0.37467 0.0
C3303 C 0.45146 0.52948 0.42597 0.0
C3304 C 0.44067 0.53002 0.40902 0.0
H3305 H 0.38008 0.51176 0.33084 0.0
H3306 H 0.38945 0.52082 0.36111 0.0
H3307 H 0.44403 0.54886 0.36818 0.0
H3308 H 0.49669 0.52737 0.44064 0.0
H3309 H 0.47842 0.53167 0.4137 0.0
C3310 C 0.23742 0.62717 0.05901 0.0
C3311 C 0.24142 0.63588 0.043 0.0
C3312 C 0.23415 0.63815 0.07406 0.0
C3313 C 0.24152 0.68624 0.09362 0.0
H3314 H 0.2042 0.66871 0.12593 0.0
C3315 C 0.22506 0.72784 0.15742 0.0
C3316 C 0.22627 0.71677 0.17269 0.0
C3317 C 0.22431 0.71916 0.14069 0.0
C3318 C 0.21464 0.67377 0.117 0.0
H3319 H 0.24522 0.66301 0.03025 0.0
H3320 H 0.2392 0.68222 0.0565 0.0
H3321 H 0.20844 0.65137 0.09826 0.0
H3322 H 0.22706 0.6878 0.18221 0.0
H3323 H 0.22523 0.67279 0.15315 0.0
H3324 H 0.24773 0.70861 0.1125 0.0
C3325 C 0.23887 0.66687 0.05748 0.0
C3326 C 0.21716 0.66381 0.10121 0.0
C3327 C 0.24229 0.65586 0.04242 0.0
C3328 C 0.22579 0.69682 0.17083 0.0
C3329 C 0.22482 0.68817 0.15414 0.0
C3330 C 0.23888 0.69631 0.10936 0.0
C3331 C 0.23463 0.65813 0.07344 0.0
C3332 C 0.23091 0.66968 0.0895 0.0
C3333 C 0.22449 0.69925 0.13891 0.0
C3334 C 0.22567 0.68994 0.12135 0.0
H3335 H 0.23678 0.61181 0.05996 0.0
H3336 H 0.23137 0.63093 0.08623 0.0
H3337 H 0.25236 0.69106 0.08501 0.0
H3338 H 0.22505 0.74323 0.15835 0.0
H3339 H 0.22385 0.72801 0.12914 0.0
C3340 C 0.07793 0.49853 0.8325 0.0
C3341 C 0.09571 0.49225 0.82786 0.0
C3342 C 0.06954 0.49186 0.84757 0.0
C3343 C 0.07931 0.47181 0.89077 0.0
H3344 H 0.02592 0.46102 0.88841 0.0
C3345 C 0.03785 0.45851 0.95343 0.0
C3346 C 0.02258 0.47077 0.95478 0.0
C3347 C 0.04646 0.45588 0.93728 0.0
C3348 C 0.04085 0.46388 0.88926 0.0
H3349 H 0.1188 0.47421 0.83567 0.0
H3350 H 0.10408 0.46265 0.86229 0.0
H3351 H 0.04249 0.46691 0.86134 0.0
H3352 H 0.00354 0.48879 0.94012 0.0
H3353 H 0.01842 0.48411 0.91202 0.0
H3354 H 0.0775 0.46953 0.91877 0.0
C3355 C 0.09668 0.47272 0.8541 0.0
C3356 C 0.05032 0.46729 0.87379 0.0
C3357 C 0.10509 0.47936 0.83889 0.0
C3358 C 0.01532 0.47931 0.9395 0.0
C3359 C 0.02379 0.47653 0.92337 0.0
C3360 C 0.06982 0.46838 0.90627 0.0
C3361 C 0.07871 0.47875 0.85844 0.0
C3362 C 0.0695 0.47198 0.87446 0.0
C3363 C 0.03979 0.46525 0.92219 0.0
C3364 C 0.05037 0.46505 0.9057 0.0
H3365 H 0.0703 0.50851 0.82439 0.0
H3366 H 0.05588 0.49711 0.85079 0.0
H3367 H 0.09408 0.47544 0.89168 0.0
H3368 H 0.04375 0.45174 0.965 0.0
H3369 H 0.05868 0.44699 0.93669 0.0
C3370 C 0.28658 0.34445 0.56101 0.0
C3371 C 0.27588 0.33572 0.54726 0.0
C3372 C 0.29655 0.33347 0.57307 0.0
C3373 C 0.29347 0.28623 0.59212 0.0
H3374 H 0.33536 0.30623 0.62069 0.0
C3375 C 0.30751 0.25796 0.66089 0.0
C3376 C 0.30588 0.27279 0.67343 0.0
C3377 C 0.31109 0.262 0.64335 0.0
C3378 C 0.32384 0.30029 0.61268 0.0
H3379 H 0.26838 0.30875 0.53446 0.0
H3380 H 0.28613 0.28951 0.55537 0.0
H3381 H 0.32819 0.32 0.59196 0.0
H3382 H 0.30828 0.30336 0.67761 0.0
H3383 H 0.31475 0.31034 0.64715 0.0
H3384 H 0.28863 0.26709 0.61311 0.0
C3385 C 0.28644 0.30484 0.5571 0.0
C3386 C 0.31965 0.30822 0.5963 0.0
C3387 C 0.27629 0.31584 0.54511 0.0
C3388 C 0.30955 0.29158 0.66837 0.0
C3389 C 0.31331 0.29559 0.65088 0.0
C3390 C 0.29779 0.27817 0.60837 0.0
C3391 C 0.29621 0.3135 0.57155 0.0
C3392 C 0.30378 0.30197 0.58629 0.0
C3393 C 0.31335 0.28092 0.63807 0.0
C3394 C 0.31241 0.28578 0.61919 0.0
H3395 H 0.28662 0.35975 0.56296 0.0
H3396 H 0.30362 0.34068 0.58415 0.0
H3397 H 0.28106 0.28109 0.5849 0.0
H3398 H 0.30524 0.24328 0.66447 0.0
H3399 H 0.31123 0.25043 0.63374 0.0
C3400 C 0.37919 0.49096 0.2059 0.0
C3401 C 0.38683 0.50336 0.21903 0.0
C3402 C 0.38815 0.48854 0.18992 0.0
C3403 C 0.421 0.51089 0.16044 0.0
H3404 H 0.43255 0.45933 0.14582 0.0
C3405 C 0.47161 0.49681 0.10481 0.0
C3406 C 0.46739 0.48181 0.09278 0.0
C3407 C 0.46166 0.49888 0.12022 0.0
C3408 C 0.4292 0.4738 0.14954 0.0
H3409 H 0.40935 0.52348 0.22555 0.0
H3410 H 0.42478 0.51952 0.19745 0.0
H3411 H 0.4143 0.46471 0.17208 0.0
H3412 H 0.44973 0.45677 0.08798 0.0
H3413 H 0.43182 0.46085 0.11453 0.0
H3414 H 0.4355 0.52008 0.13785 0.0
C3415 C 0.41196 0.5116 0.19959 0.0
C3416 C 0.41879 0.47686 0.16459 0.0
C3417 C 0.40318 0.51381 0.21566 0.0
C3418 C 0.45321 0.46864 0.09681 0.0
C3419 C 0.44307 0.47086 0.11216 0.0
C3420 C 0.4312 0.50784 0.14528 0.0
C3421 C 0.4047 0.49871 0.18672 0.0
C3422 C 0.41478 0.49544 0.17025 0.0
C3423 C 0.447 0.48618 0.12392 0.0
C3424 C 0.43564 0.48927 0.13976 0.0
H3425 H 0.36662 0.48269 0.20816 0.0
H3426 H 0.38221 0.47864 0.18012 0.0
H3427 H 0.41789 0.52534 0.16444 0.0
H3428 H 0.4822 0.50744 0.1021 0.0
H3429 H 0.46536 0.51061 0.12915 0.0
C3430 C 0.2711 0.6508 0.92538 0.0
C3431 C 0.26743 0.65797 0.94228 0.0
C3432 C 0.27503 0.66313 0.91173 0.0
C3433 C 0.26819 0.71245 0.89768 0.0
H3434 H 0.30219 0.6969 0.8615 0.0
C3435 C 0.29677 0.73506 0.82454 0.0
C3436 C 0.27955 0.7399 0.81659 0.0
C3437 C 0.29768 0.72908 0.84199 0.0
C3438 C 0.29293 0.70177 0.8716 0.0
H3439 H 0.26539 0.68368 0.95828 0.0
H3440 H 0.27256 0.70529 0.93442 0.0
H3441 H 0.3002 0.67858 0.88816 0.0
H3442 H 0.24996 0.74335 0.82091 0.0
H3443 H 0.25138 0.73225 0.8511 0.0
H3444 H 0.26103 0.73576 0.88112 0.0
C3445 C 0.27212 0.69012 0.93168 0.0
C3446 C 0.29157 0.69104 0.88681 0.0
C3447 C 0.2681 0.67775 0.94535 0.0
C3448 C 0.26344 0.73971 0.82671 0.0
C3449 C 0.2643 0.73344 0.84408 0.0
C3450 C 0.26967 0.72332 0.88251 0.0
C3451 C 0.27551 0.68294 0.91467 0.0
C3452 C 0.27877 0.6959 0.89977 0.0
C3453 C 0.28134 0.72749 0.85177 0.0
C3454 C 0.28168 0.7178 0.86905 0.0
H3455 H 0.27062 0.63564 0.92256 0.0
H3456 H 0.27719 0.6571 0.89873 0.0
H3457 H 0.25815 0.71658 0.90739 0.0
H3458 H 0.30947 0.73534 0.81712 0.0
H3459 H 0.31112 0.72509 0.84762 0.0
C3460 C 0.09418 0.48674 0.72505 0.0
C3461 C 0.11133 0.49627 0.72828 0.0
C3462 C 0.08333 0.49059 0.70999 0.0
C3463 C 0.08485 0.5142 0.66642 0.0
H3464 H 0.03088 0.51228 0.67025 0.0
C3465 C 0.03445 0.53723 0.61037 0.0
C3466 C 0.02331 0.52181 0.60389 0.0
C3467 C 0.04387 0.53622 0.62671 0.0
C3468 C 0.04593 0.51296 0.66909 0.0
H3469 H 0.13079 0.51712 0.7183 0.0
H3470 H 0.11154 0.52444 0.69235 0.0
H3471 H 0.05081 0.50589 0.69607 0.0
H3472 H 0.01251 0.49373 0.61029 0.0
H3473 H 0.02818 0.49257 0.63907 0.0
H3474 H 0.07976 0.52171 0.63946 0.0
C3475 C 0.10663 0.51357 0.70111 0.0
C3476 C 0.05739 0.50909 0.68378 0.0
C3477 C 0.11767 0.50941 0.716 0.0
C3478 C 0.02067 0.50605 0.61482 0.0
C3479 C 0.02976 0.50526 0.6313 0.0
C3480 C 0.07338 0.51845 0.65185 0.0
C3481 C 0.08919 0.50438 0.69801 0.0
C3482 C 0.07701 0.50933 0.68256 0.0
C3483 C 0.04193 0.52003 0.63708 0.0
C3484 C 0.05386 0.5176 0.65303 0.0
H3485 H 0.08906 0.47646 0.73428 0.0
H3486 H 0.07026 0.48281 0.70783 0.0
H3487 H 0.09984 0.51424 0.66484 0.0
H3488 H 0.03646 0.5498 0.60256 0.0
H3489 H 0.05307 0.54787 0.63106 0.0
C3490 C 0.21237 0.32812 0.46353 0.0
C3491 C 0.20904 0.34766 0.46184 0.0
C3492 C 0.20814 0.3155 0.44957 0.0
C3493 C 0.18395 0.31017 0.40576 0.0
H3494 H 0.22608 0.27801 0.39591 0.0
C3495 C 0.20079 0.28104 0.33674 0.0
C3496 C 0.21107 0.26419 0.33539 0.0
C3497 C 0.1957 0.28809 0.3532 0.0
C3498 C 0.21393 0.28647 0.39861 0.0
H3499 H 0.19767 0.36916 0.44453 0.0
H3500 H 0.1907 0.34713 0.41992 0.0
H3501 H 0.22611 0.29644 0.42308 0.0
H3502 H 0.22246 0.24064 0.35028 0.0
H3503 H 0.21278 0.25245 0.37872 0.0
H3504 H 0.1721 0.30054 0.38083 0.0
C3505 C 0.19635 0.34155 0.43216 0.0
C3506 C 0.21398 0.29711 0.41423 0.0
C3507 C 0.20049 0.35419 0.4462 0.0
C3508 C 0.21456 0.25365 0.35071 0.0
C3509 C 0.20922 0.26056 0.36711 0.0
C3510 C 0.18386 0.29941 0.39007 0.0
C3511 C 0.20061 0.32216 0.43355 0.0
C3512 C 0.19918 0.30935 0.41785 0.0
C3513 C 0.20057 0.27831 0.36864 0.0
C3514 C 0.19904 0.28771 0.38618 0.0
H3515 H 0.21865 0.32257 0.47552 0.0
H3516 H 0.21125 0.30058 0.45114 0.0
H3517 H 0.17227 0.31936 0.4083 0.0
H3518 H 0.1974 0.28926 0.32516 0.0
H3519 H 0.18902 0.3018 0.35387 0.0
C3520 C 0.2981 0.40646 0.49467 0.0
C3521 C 0.28177 0.41688 0.49149 0.0
C3522 C 0.31516 0.41585 0.49806 0.0
C3523 C 0.33216 0.45939 0.51896 0.0
H3524 H 0.38034 0.44453 0.50173 0.0
C3525 C 0.40197 0.49873 0.53746 0.0
C3526 C 0.4184 0.48794 0.53755 0.0
C3527 C 0.38469 0.4902 0.53293 0.0
C3528 C 0.36702 0.44863 0.50691 0.0
H3529 H 0.27076 0.44522 0.4879 0.0
H3530 H 0.30063 0.46161 0.49398 0.0
H3531 H 0.35193 0.42991 0.48884 0.0
H3532 H 0.42896 0.45916 0.53477 0.0
H3533 H 0.39893 0.44436 0.52819 0.0
H3534 H 0.3472 0.47771 0.5374 0.0
C3535 C 0.30013 0.4462 0.49395 0.0
C3536 C 0.35078 0.44039 0.49937 0.0
C3537 C 0.2831 0.43679 0.49032 0.0
C3538 C 0.41678 0.4681 0.53495 0.0
C3539 C 0.39951 0.45957 0.53075 0.0
C3540 C 0.34842 0.4675 0.52666 0.0
C3541 C 0.31611 0.43581 0.49849 0.0
C3542 C 0.33323 0.44564 0.50538 0.0
C3543 C 0.38347 0.47066 0.52872 0.0
C3544 C 0.36605 0.46208 0.52081 0.0
H3545 H 0.29751 0.39109 0.49558 0.0
H3546 H 0.32732 0.40753 0.50152 0.0
H3547 H 0.31874 0.46343 0.52401 0.0
H3548 H 0.40258 0.51396 0.53986 0.0
H3549 H 0.37254 0.49914 0.53166 0.0
C3550 C 0.82126 0.08833 0.48173 0.0
C3551 C 0.80846 0.07815 0.49183 0.0
C3552 C 0.83919 0.08132 0.47912 0.0
C3553 C 0.86605 0.03677 0.48121 0.0
H3554 H 0.90941 0.07029 0.48707 0.0
C3555 C 0.93894 0.01018 0.50009 0.0
C3556 C 0.95456 0.01816 0.49203 0.0
C3557 C 0.92114 0.01733 0.49679 0.0
C3558 C 0.89742 0.06082 0.48507 0.0
H3559 H 0.80458 0.05276 0.50731 0.0
H3560 H 0.83578 0.04078 0.503 0.0
H3561 H 0.87805 0.08356 0.48776 0.0
H3562 H 0.96378 0.03966 0.47389 0.0
H3563 H 0.93248 0.05237 0.46827 0.0
H3564 H 0.8854 0.01396 0.47917 0.0
C3565 C 0.83188 0.05396 0.49678 0.0
C3566 C 0.87948 0.06841 0.48547 0.0
C3567 C 0.81403 0.06094 0.49938 0.0
C3568 C 0.95197 0.03322 0.48028 0.0
C3569 C 0.93412 0.04054 0.47712 0.0
C3570 C 0.88395 0.0292 0.48088 0.0
C3571 C 0.84463 0.06398 0.48654 0.0
C3572 C 0.86361 0.05638 0.48402 0.0
C3573 C 0.91857 0.03273 0.48546 0.0
C3574 C 0.89979 0.04108 0.48325 0.0
H3575 H 0.81739 0.10162 0.47569 0.0
H3576 H 0.84869 0.08931 0.47111 0.0
H3577 H 0.8541 0.02719 0.47962 0.0
H3578 H 0.94046 -0.00146 0.50918 0.0
H3579 H 0.90945 0.01119 0.50358 0.0
C3580 C 0.67479 0.05614 0.2904 0.0
C3581 C 0.65548 0.05664 0.28636 0.0
C3582 C 0.68569 0.07279 0.29019 0.0
C3583 C 0.68336 0.1252 0.29109 0.0
H3584 H 0.72782 0.1228 0.26312 0.0
C3585 C 0.71913 0.19277 0.26636 0.0
C3586 C 0.73877 0.19366 0.26684 0.0
C3587 C 0.70972 0.17573 0.26963 0.0
C3588 C 0.71562 0.12368 0.27119 0.0
H3589 H 0.63234 0.07515 0.27988 0.0
H3590 H 0.65133 0.10415 0.27965 0.0
H3591 H 0.71013 0.09371 0.26874 0.0
H3592 H 0.76397 0.17727 0.2708 0.0
H3593 H 0.74751 0.14751 0.27674 0.0
H3594 H 0.68874 0.15513 0.29351 0.0
C3595 C 0.65804 0.0909 0.28294 0.0
C3596 C 0.7055 0.10701 0.27442 0.0
C3597 C 0.64718 0.07426 0.28299 0.0
C3598 C 0.74882 0.17702 0.27026 0.0
C3599 C 0.73939 0.15996 0.27363 0.0
C3600 C 0.69352 0.14183 0.28795 0.0
C3601 C 0.67746 0.09028 0.28615 0.0
C3602 C 0.68912 0.10765 0.28418 0.0
C3603 C 0.71973 0.1592 0.27357 0.0
C3604 C 0.70959 0.14132 0.27772 0.0
H3605 H 0.68162 0.04279 0.29305 0.0
H3606 H 0.7006 0.07196 0.2929 0.0
H3607 H 0.67093 0.12607 0.29885 0.0
H3608 H 0.71096 0.2053 0.26364 0.0
H3609 H 0.69457 0.17554 0.26908 0.0
C3610 C 0.67134 0.91264 0.04581 0.0
C3611 C 0.67728 0.89396 0.04283 0.0
C3612 C 0.65506 0.91907 0.03757 0.0
C3613 C 0.63324 0.93102 0.00509 0.0
H3614 H 0.58214 0.91297 0.00914 0.0
C3615 C 0.5521 0.95286 0.98622 0.0
C3616 C 0.55326 0.9713 -0.00636 0.0
C3617 C 0.56776 0.94118 0.98667 0.0
C3618 C 0.5964 0.91783 0.00743 0.0
H3619 H 0.66986 0.86672 0.03044 0.0
H3620 H 0.64093 0.87802 0.01623 0.0
H3621 H 0.60769 0.89546 0.0233 0.0
H3622 H 0.57185 -0.00726 0.00565 0.0
H3623 H 0.59915 0.97261 0.00616 0.0
H3624 H 0.62208 0.95376 -0.01012 0.0
C3625 C 0.64914 0.88766 0.02475 0.0
C3626 C 0.61095 0.90789 0.01565 0.0
C3627 C 0.66558 0.8812 0.03298 0.0
C3628 C 0.57062 0.97854 -0.00011 0.0
C3629 C 0.58627 0.96701 0.0001 0.0
C3630 C 0.61879 0.94085 -0.00318 0.0
C3631 C 0.64437 0.90689 0.0263 0.0
C3632 C 0.62933 0.91497 0.01519 0.0
C3633 C 0.58479 0.94796 -0.00576 0.0
C3634 C 0.60016 0.93486 -0.00139 0.0
H3635 H 0.68001 0.92272 0.05346 0.0
H3636 H 0.65134 0.93386 0.03925 0.0
H3637 H 0.64744 0.93646 0.00427 0.0
H3638 H 0.53881 0.94695 0.98139 0.0
H3639 H 0.56632 0.92658 0.98196 0.0
C3640 C 0.34829 0.43034 0.28466 0.0
C3641 C 0.36539 0.43468 0.27688 0.0
C3642 C 0.3422 0.41144 0.28592 0.0
C3643 C 0.3465 0.36555 0.26368 0.0
H3644 H 0.32437 0.34494 0.30545 0.0
C3645 C 0.31891 0.28858 0.26377 0.0
C3646 C 0.30152 0.2857 0.27148 0.0
C3647 C 0.32876 0.30573 0.26651 0.0
C3648 C 0.33038 0.35053 0.29364 0.0
H3649 H 0.38973 0.42252 0.26475 0.0
H3650 H 0.37898 0.38965 0.26683 0.0
H3651 H 0.33738 0.3773 0.30632 0.0
H3652 H 0.28109 0.29821 0.28859 0.0
H3653 H 0.29793 0.32828 0.29292 0.0
H3654 H 0.33894 0.33928 0.2507 0.0
C3655 C 0.37029 0.40087 0.27189 0.0
C3656 C 0.33785 0.36902 0.29417 0.0
C3657 C 0.37645 0.41971 0.27076 0.0
C3658 C 0.29449 0.29999 0.2825 0.0
C3659 C 0.30422 0.31721 0.28507 0.0
C3660 C 0.33888 0.34718 0.26308 0.0
C3661 C 0.35302 0.39657 0.27929 0.0
C3662 C 0.34587 0.37672 0.27916 0.0
C3663 C 0.3213 0.32043 0.27683 0.0
C3664 C 0.3306 0.33947 0.278 0.0
H3665 H 0.33948 0.44154 0.28956 0.0
H3666 H 0.32875 0.4085 0.29157 0.0
H3667 H 0.35235 0.37125 0.25183 0.0
H3668 H 0.32478 0.27774 0.25536 0.0
H3669 H 0.34207 0.30757 0.26028 0.0
C3670 C 0.1812 0.60205 0.97676 0.0
C3671 C 0.1978 0.59162 0.9772 0.0
C3672 C 0.16406 0.59306 0.97963 0.0
C3673 C 0.14077 0.54565 0.98124 0.0
H3674 H 0.10641 0.57217 0.01133 0.0
C3675 C 0.07567 0.50874 0.00872 0.0
C3676 C 0.05889 0.51863 0.00632 0.0
C3677 C 0.09282 0.51778 0.00593 0.0
C3678 C 0.11584 0.56465 0.00284 0.0
H3679 H 0.20942 0.5635 0.98043 0.0
H3680 H 0.17961 0.5479 0.98572 0.0
H3681 H 0.13573 0.58765 0.0037 0.0
H3682 H 0.04691 0.54595 -0.00011 0.0
H3683 H 0.07685 0.56173 -0.00481 0.0
H3684 H 0.1209 0.52256 0.98059 0.0
C3685 C 0.17974 0.56296 0.98293 0.0
C3686 C 0.13257 0.57354 -0.00162 0.0
C3687 C 0.19685 0.57192 0.97995 0.0
C3688 C 0.05962 0.53793 0.00181 0.0
C3689 C 0.07675 0.547 -0.00082 0.0
C3690 C 0.12409 0.53671 0.98581 0.0
C3691 C 0.16318 0.57347 0.98308 0.0
C3692 C 0.14521 0.56415 0.98749 0.0
C3693 C 0.09348 0.53691 0.00088 0.0
C3694 C 0.11146 0.54615 -0.00338 0.0
H3695 H 0.1815 0.61724 0.97456 0.0
H3696 H 0.1515 0.60149 0.97932 0.0
H3697 H 0.15007 0.53813 0.97263 0.0
H3698 H 0.07554 0.49385 0.01218 0.0
H3699 H 0.10556 0.50976 0.00753 0.0
C3700 C 0.67261 0.92766 0.29589 0.0
C3701 C 0.6785 0.94495 0.28874 0.0
C3702 C 0.68424 0.91189 0.29564 0.0
C3703 C 0.71876 0.88989 0.26913 0.0
H3704 H 0.7279 0.85787 0.3095 0.0
C3705 C 0.75524 0.81741 0.26198 0.0
C3706 C 0.74778 0.80248 0.27178 0.0
C3707 C 0.74996 0.83621 0.26527 0.0
C3708 C 0.72535 0.86654 0.29805 0.0
H3709 H 0.70129 0.95949 0.27606 0.0
H3710 H 0.72145 0.93162 0.27518 0.0
H3711 H 0.71255 0.88835 0.31346 0.0
H3712 H 0.72896 0.79552 0.29271 0.0
H3713 H 0.71924 0.82792 0.29795 0.0
H3714 H 0.7304 0.86773 0.25347 0.0
C3715 C 0.70792 0.93043 0.28116 0.0
C3716 C 0.71669 0.88404 0.30038 0.0
C3717 C 0.69644 0.94634 0.28174 0.0
C3718 C 0.73508 0.80671 0.285 0.0
C3719 C 0.72963 0.82539 0.28812 0.0
C3720 C 0.72712 0.87223 0.26673 0.0
C3721 C 0.70182 0.91303 0.28793 0.0
C3722 C 0.71303 0.89569 0.28589 0.0
C3723 C 0.73693 0.84041 0.27828 0.0
C3724 C 0.73015 0.86013 0.28111 0.0
H3725 H 0.65886 0.92622 0.30139 0.0
H3726 H 0.67918 0.89856 0.30083 0.0
H3727 H 0.71591 0.89859 0.25774 0.0
H3728 H 0.76516 0.81458 0.25177 0.0
H3729 H 0.75607 0.84742 0.25759 0.0
C3730 C 0.83414 0.06667 0.7902 0.0
C3731 C 0.82827 0.05049 0.78031 0.0
C3732 C 0.82238 0.08217 0.79186 0.0
C3733 C 0.78797 0.1067 0.76622 0.0
H3734 H 0.78397 0.13801 0.80848 0.0
C3735 C 0.76094 0.18322 0.76245 0.0
C3736 C 0.77131 0.19682 0.77258 0.0
C3737 C 0.76332 0.16382 0.76527 0.0
C3738 C 0.785 0.12946 0.79655 0.0
H3739 H 0.80526 0.03739 0.76508 0.0
H3740 H 0.78476 0.06494 0.76759 0.0
H3741 H 0.79615 0.10584 0.8107 0.0
H3742 H 0.79201 0.20078 0.79384 0.0
H3743 H 0.7967 0.16702 0.79833 0.0
H3744 H 0.77813 0.13059 0.75186 0.0
C3745 C 0.79841 0.06543 0.77418 0.0
C3746 C 0.79182 0.11102 0.79786 0.0
C3747 C 0.81009 0.04972 0.77278 0.0
C3748 C 0.78381 0.19065 0.78583 0.0
C3749 C 0.78634 0.17125 0.78852 0.0
C3750 C 0.78136 0.12522 0.76487 0.0
C3751 C 0.80464 0.08193 0.78344 0.0
C3752 C 0.79389 0.0997 0.78264 0.0
C3753 C 0.77627 0.15759 0.77816 0.0
C3754 C 0.78037 0.13704 0.77996 0.0
H3755 H 0.84806 0.06757 0.79622 0.0
H3756 H 0.8276 0.09479 0.79891 0.0
H3757 H 0.78964 0.09834 0.75426 0.0
H3758 H 0.75101 0.18756 0.75228 0.0
H3759 H 0.75513 0.1537 0.75724 0.0
loop_
_geom_bond_atom_site_label_1
_geom_bond_atom_site_label_2
_geom_bond_distance
_geom_bond_site_symmetry_2
_ccdc_geom_bond_type
C0 O1 1.306 . S
C0 O3 1.160 . S
O1 C0 1.306 . S
O1 Cd2 2.228 . S
Cd2 O1 2.228 . S
Cd2 O6 2.273 . S
Cd2 O10 2.277 . S
O3 C0 1.160 . S
O3 Cd4 2.203 . S
Cd4 O3 2.203 . S
Cd4 O6 2.411 . S
Cd4 O7 2.333 . S
Cd4 O8 2.352 . S
Cd4 O12 2.277 . S
Cd4 O13 2.356 . S
C5 O10 1.209 . S
C5 O12 1.226 . S
O6 Cd2 2.273 . S
O6 Cd4 2.411 . S
O6 C9 1.320 . S
O7 Cd4 2.333 . S
O7 C9 1.214 . S
O8 Cd4 2.352 . S
O8 C11 1.258 . S
C9 O6 1.320 . S
C9 O7 1.214 . S
O10 Cd2 2.277 . S
O10 C5 1.209 . S
C11 O8 1.258 . S
C11 O13 1.282 . S
O12 Cd4 2.277 . S
O12 C5 1.226 . S
O13 Cd4 2.356 . S
O13 C11 1.282 . S
C14 O15 1.308 1_655 S
C14 O17 1.160 . S
O15 C14 1.308 1_455 S
O15 Cd16 2.225 . S
Cd16 O15 2.225 . S
Cd16 O20 2.273 . S
Cd16 O24 2.277 . S
O17 C14 1.160 . S
O17 Cd18 2.203 1_655 S
Cd18 O17 2.203 1_455 S
Cd18 O20 2.411 . S
Cd18 O21 2.333 . S
Cd18 O22 2.352 . S
Cd18 O26 2.277 . S
Cd18 O27 2.356 . S
C19 O24 1.209 . S
C19 O26 1.226 . S
O20 Cd16 2.273 . S
O20 Cd18 2.411 . S
O20 C23 1.320 . S
O21 Cd18 2.333 . S
O21 C23 1.214 . S
O22 Cd18 2.352 . S
O22 C25 1.258 . S
C23 O20 1.320 . S
C23 O21 1.214 . S
O24 Cd16 2.277 . S
O24 C19 1.209 . S
C25 O22 1.258 . S
C25 O27 1.282 . S
O26 Cd18 2.277 . S
O26 C19 1.226 . S
O27 Cd18 2.356 . S
O27 C25 1.282 . S
C28 O29 1.306 . S
C28 O31 1.160 . S
O29 C28 1.306 . S
O29 Cd30 2.228 . S
Cd30 O29 2.228 . S
Cd30 O34 2.273 . S
Cd30 O38 2.277 . S
O31 C28 1.160 . S
O31 Cd32 2.203 . S
Cd32 O31 2.203 . S
Cd32 O34 2.411 . S
Cd32 O35 2.333 . S
Cd32 O36 2.352 . S
Cd32 O40 2.277 . S
Cd32 O41 2.356 . S
C33 O38 1.209 . S
C33 O40 1.226 . S
O34 Cd30 2.273 . S
O34 Cd32 2.411 . S
O34 C37 1.320 . S
O35 Cd32 2.333 . S
O35 C37 1.214 . S
O36 Cd32 2.352 . S
O36 C39 1.258 . S
C37 O34 1.320 . S
C37 O35 1.214 . S
O38 Cd30 2.277 . S
O38 C33 1.209 . S
C39 O36 1.258 . S
C39 O41 1.282 . S
O40 Cd32 2.277 . S
O40 C33 1.226 . S
O41 Cd32 2.356 . S
O41 C39 1.282 . S
C42 O43 1.306 . S
C42 O45 1.160 . S
O43 C42 1.306 . S
O43 Cd44 2.228 . S
Cd44 O43 2.228 . S
Cd44 O48 2.273 . S
Cd44 O52 2.277 . S
O45 C42 1.160 . S
O45 Cd46 2.203 . S
Cd46 O45 2.203 . S
Cd46 O48 2.411 . S
Cd46 O49 2.333 . S
Cd46 O50 2.352 . S
Cd46 O54 2.277 . S
Cd46 O55 2.356 . S
C47 O52 1.209 . S
C47 O54 1.226 . S
O48 Cd44 2.273 . S
O48 Cd46 2.411 . S
O48 C51 1.320 . S
O49 Cd46 2.333 . S
O49 C51 1.214 . S
O50 Cd46 2.352 . S
O50 C53 1.258 . S
C51 O48 1.320 . S
C51 O49 1.214 . S
O52 Cd44 2.277 . S
O52 C47 1.209 . S
C53 O50 1.258 . S
C53 O55 1.282 . S
O54 Cd46 2.277 . S
O54 C47 1.226 . S
O55 Cd46 2.356 . S
O55 C53 1.282 . S
C56 O57 1.306 . S
C56 O59 1.160 . S
O57 C56 1.306 . S
O57 Cd58 2.228 . S
Cd58 O57 2.228 . S
Cd58 O62 2.273 . S
Cd58 O66 2.277 . S
O59 C56 1.160 . S
O59 Cd60 2.203 . S
Cd60 O59 2.203 . S
Cd60 O62 2.411 . S
Cd60 O63 2.333 . S
Cd60 O64 2.352 1_545 S
Cd60 O68 2.277 . S
Cd60 O69 2.356 1_545 S
C61 O66 1.209 . S
C61 O68 1.226 . S
O62 Cd58 2.273 . S
O62 Cd60 2.411 . S
O62 C65 1.320 . S
O63 Cd60 2.333 . S
O63 C65 1.214 . S
O64 Cd60 2.352 1_565 S
O64 C67 1.258 . S
C65 O62 1.320 . S
C65 O63 1.214 . S
O66 Cd58 2.277 . S
O66 C61 1.209 . S
C67 O64 1.258 . S
C67 O69 1.282 . S
O68 Cd60 2.277 . S
O68 C61 1.226 . S
O69 Cd60 2.356 1_565 S
O69 C67 1.282 . S
C70 O71 1.306 . S
C70 O73 1.160 . S
O71 C70 1.306 . S
O71 Cd72 2.228 . S
Cd72 O71 2.228 . S
Cd72 O76 2.273 . S
Cd72 O80 2.277 . S
O73 C70 1.160 . S
O73 Cd74 2.203 . S
Cd74 O73 2.203 . S
Cd74 O76 2.411 . S
Cd74 O77 2.333 . S
Cd74 O78 2.352 . S
Cd74 O82 2.277 . S
Cd74 O83 2.356 . S
C75 O80 1.209 . S
C75 O82 1.226 . S
O76 Cd72 2.273 . S
O76 Cd74 2.411 . S
O76 C79 1.320 . S
O77 Cd74 2.333 . S
O77 C79 1.214 . S
O78 Cd74 2.352 . S
O78 C81 1.258 . S
C79 O76 1.320 . S
C79 O77 1.214 . S
O80 Cd72 2.277 . S
O80 C75 1.209 . S
C81 O78 1.258 . S
C81 O83 1.282 . S
O82 Cd74 2.277 . S
O82 C75 1.226 . S
O83 Cd74 2.356 . S
O83 C81 1.282 . S
C84 O85 1.306 1_545 S
C84 O87 1.160 . S
O85 C84 1.306 1_565 S
O85 Cd86 2.228 . S
Cd86 O85 2.228 . S
Cd86 O90 2.273 1_565 S
Cd86 O94 2.277 . S
O87 C84 1.160 . S
O87 Cd88 2.203 . S
Cd88 O87 2.203 . S
Cd88 O90 2.411 . S
Cd88 O91 2.333 . S
Cd88 O92 2.352 . S
Cd88 O96 2.277 1_545 S
Cd88 O97 2.356 . S
C89 O94 1.209 . S
C89 O96 1.226 . S
O90 Cd86 2.273 1_545 S
O90 Cd88 2.411 . S
O90 C93 1.320 . S
O91 Cd88 2.333 . S
O91 C93 1.214 . S
O92 Cd88 2.352 . S
O92 C95 1.258 . S
C93 O90 1.320 . S
C93 O91 1.214 . S
O94 Cd86 2.277 . S
O94 C89 1.209 . S
C95 O92 1.258 . S
C95 O97 1.282 . S
O96 Cd88 2.277 1_565 S
O96 C89 1.226 . S
O97 Cd88 2.356 . S
O97 C95 1.282 . S
C98 O99 1.306 . S
C98 O101 1.160 . S
O99 C98 1.306 . S
O99 Cd100 2.228 . S
Cd100 O99 2.228 . S
Cd100 O104 2.273 . S
Cd100 O108 2.277 . S
O101 C98 1.160 . S
O101 Cd102 2.203 . S
Cd102 O101 2.203 . S
Cd102 O104 2.411 . S
Cd102 O105 2.333 . S
Cd102 O106 2.352 1_554 S
Cd102 O110 2.277 . S
Cd102 O111 2.356 1_554 S
C103 O108 1.209 . S
C103 O110 1.226 . S
O104 Cd100 2.273 . S
O104 Cd102 2.411 . S
O104 C107 1.320 . S
O105 Cd102 2.333 . S
O105 C107 1.214 . S
O106 Cd102 2.352 1_556 S
O106 C109 1.258 . S
C107 O104 1.320 . S
C107 O105 1.214 . S
O108 Cd100 2.277 . S
O108 C103 1.209 . S
C109 O106 1.258 . S
C109 O111 1.282 . S
O110 Cd102 2.277 . S
O110 C103 1.226 . S
O111 Cd102 2.356 1_556 S
O111 C109 1.282 . S
C112 O113 1.306 . S
C112 O115 1.160 . S
O113 C112 1.306 . S
O113 Cd114 2.228 . S
Cd114 O113 2.228 . S
Cd114 O118 2.273 . S
Cd114 O122 2.277 . S
O115 C112 1.160 . S
O115 Cd116 2.203 . S
Cd116 O115 2.203 . S
Cd116 O118 2.411 . S
Cd116 O119 2.333 . S
Cd116 O120 2.352 . S
Cd116 O124 2.277 . S
Cd116 O125 2.356 . S
C117 O122 1.209 . S
C117 O124 1.226 . S
O118 Cd114 2.273 . S
O118 Cd116 2.411 . S
O118 C121 1.320 . S
O119 Cd116 2.333 . S
O119 C121 1.214 . S
O120 Cd116 2.352 . S
O120 C123 1.258 . S
C121 O118 1.320 . S
C121 O119 1.214 . S
O122 Cd114 2.277 . S
O122 C117 1.209 . S
C123 O120 1.258 . S
C123 O125 1.282 . S
O124 Cd116 2.277 . S
O124 C117 1.226 . S
O125 Cd116 2.356 . S
O125 C123 1.282 . S
C126 O127 1.306 . S
C126 O129 1.160 . S
O127 C126 1.306 . S
O127 Cd128 2.228 . S
Cd128 O127 2.228 . S
Cd128 O132 2.273 . S
Cd128 O136 2.277 . S
O129 C126 1.160 . S
O129 Cd130 2.203 . S
Cd130 O129 2.203 . S
Cd130 O132 2.411 . S
Cd130 O133 2.333 . S
Cd130 O134 2.352 . S
Cd130 O138 2.277 . S
Cd130 O139 2.356 . S
C131 O136 1.209 . S
C131 O138 1.226 . S
O132 Cd128 2.273 . S
O132 Cd130 2.411 . S
O132 C135 1.320 . S
O133 Cd130 2.333 . S
O133 C135 1.214 . S
O134 Cd130 2.352 . S
O134 C137 1.258 . S
C135 O132 1.320 . S
C135 O133 1.214 . S
O136 Cd128 2.277 . S
O136 C131 1.209 . S
C137 O134 1.258 . S
C137 O139 1.282 . S
O138 Cd130 2.277 . S
O138 C131 1.226 . S
O139 Cd130 2.356 . S
O139 C137 1.282 . S
C140 O141 1.306 . S
C140 O143 1.160 . S
O141 C140 1.306 . S
O141 Cd142 2.228 . S
Cd142 O141 2.228 . S
Cd142 O146 2.273 . S
Cd142 O150 2.277 . S
O143 C140 1.160 . S
O143 Cd144 2.203 . S
Cd144 O143 2.203 . S
Cd144 O146 2.411 . S
Cd144 O147 2.333 . S
Cd144 O148 2.352 . S
Cd144 O152 2.277 . S
Cd144 O153 2.356 . S
C145 O150 1.209 . S
C145 O152 1.226 . S
O146 Cd142 2.273 . S
O146 Cd144 2.411 . S
O146 C149 1.320 . S
O147 Cd144 2.333 . S
O147 C149 1.214 . S
O148 Cd144 2.352 . S
O148 C151 1.258 . S
C149 O146 1.320 . S
C149 O147 1.214 . S
O150 Cd142 2.277 . S
O150 C145 1.209 . S
C151 O148 1.258 . S
C151 O153 1.282 . S
O152 Cd144 2.277 . S
O152 C145 1.226 . S
O153 Cd144 2.356 . S
O153 C151 1.282 . S
C154 O155 1.306 . S
C154 O157 1.160 . S
O155 C154 1.306 . S
O155 Cd156 2.228 . S
Cd156 O155 2.228 . S
Cd156 O160 2.273 . S
Cd156 O164 2.277 . S
O157 C154 1.160 . S
O157 Cd158 2.203 . S
Cd158 O157 2.203 . S
Cd158 O160 2.411 . S
Cd158 O161 2.333 . S
Cd158 O162 2.352 . S
Cd158 O166 2.277 . S
Cd158 O167 2.356 . S
C159 O164 1.209 . S
C159 O166 1.226 . S
O160 Cd156 2.273 . S
O160 Cd158 2.411 . S
O160 C163 1.320 . S
O161 Cd158 2.333 . S
O161 C163 1.214 . S
O162 Cd158 2.352 . S
O162 C165 1.258 . S
C163 O160 1.320 . S
C163 O161 1.214 . S
O164 Cd156 2.277 . S
O164 C159 1.209 . S
C165 O162 1.258 . S
C165 O167 1.282 . S
O166 Cd158 2.277 . S
O166 C159 1.226 . S
O167 Cd158 2.356 . S
O167 C165 1.282 . S
C168 O169 1.306 . S
C168 O171 1.160 . S
O169 C168 1.306 . S
O169 Cd170 2.228 1_655 S
Cd170 O169 2.228 1_455 S
Cd170 O174 2.273 . S
Cd170 O178 2.277 . S
O171 C168 1.160 . S
O171 Cd172 2.203 1_655 S
Cd172 O171 2.203 1_455 S
Cd172 O174 2.411 . S
Cd172 O175 2.333 . S
Cd172 O176 2.350 1_455 S
Cd172 O180 2.277 1_455 S
Cd172 O181 2.356 . S
C173 O178 1.215 . S
C173 O180 1.224 1_455 S
O174 Cd170 2.273 . S
O174 Cd172 2.411 . S
O174 C177 1.320 . S
O175 Cd172 2.333 . S
O175 C177 1.214 . S
O176 Cd172 2.350 1_655 S
O176 C179 1.255 1_655 S
C177 O174 1.320 . S
C177 O175 1.214 . S
O178 Cd170 2.277 . S
O178 C173 1.215 . S
C179 O176 1.255 1_455 S
C179 O181 1.282 . S
O180 Cd172 2.277 1_655 S
O180 C173 1.224 1_655 S
O181 Cd172 2.356 . S
O181 C179 1.282 . S
C182 O183 1.306 1_655 S
C182 O185 1.160 . S
O183 C182 1.306 1_455 S
O183 Cd184 2.228 . S
Cd184 O183 2.228 . S
Cd184 O188 2.273 . S
Cd184 O192 2.277 . S
O185 C182 1.160 . S
O185 Cd186 2.203 1_655 S
Cd186 O185 2.203 1_455 S
Cd186 O188 2.411 . S
Cd186 O189 2.333 . S
Cd186 O190 2.352 . S
Cd186 O194 2.277 . S
Cd186 O195 2.356 . S
C187 O192 1.209 . S
C187 O194 1.226 . S
O188 Cd184 2.273 . S
O188 Cd186 2.411 . S
O188 C191 1.320 . S
O189 Cd186 2.333 . S
O189 C191 1.214 . S
O190 Cd186 2.352 . S
O190 C193 1.258 . S
C191 O188 1.320 . S
C191 O189 1.214 . S
O192 Cd184 2.277 . S
O192 C187 1.209 . S
C193 O190 1.258 . S
C193 O195 1.282 . S
O194 Cd186 2.277 . S
O194 C187 1.226 . S
O195 Cd186 2.356 . S
O195 C193 1.282 . S
C196 O197 1.306 . S
C196 O199 1.160 . S
O197 C196 1.306 . S
O197 Cd198 2.228 . S
Cd198 O197 2.228 . S
Cd198 O202 2.273 . S
Cd198 O206 2.277 . S
O199 C196 1.160 . S
O199 Cd200 2.203 . S
Cd200 O199 2.203 . S
Cd200 O202 2.411 . S
Cd200 O203 2.333 . S
Cd200 O204 2.352 . S
Cd200 O208 2.277 . S
Cd200 O209 2.356 . S
C201 O206 1.209 . S
C201 O208 1.226 . S
O202 Cd198 2.273 . S
O202 Cd200 2.411 . S
O202 C205 1.320 . S
O203 Cd200 2.333 . S
O203 C205 1.214 . S
O204 Cd200 2.352 . S
O204 C207 1.258 . S
C205 O202 1.320 . S
C205 O203 1.214 . S
O206 Cd198 2.277 . S
O206 C201 1.209 . S
C207 O204 1.258 . S
C207 O209 1.282 . S
O208 Cd200 2.277 . S
O208 C201 1.226 . S
O209 Cd200 2.356 . S
O209 C207 1.282 . S
C210 O211 1.306 . S
C210 O213 1.160 . S
O211 C210 1.306 . S
O211 Cd212 2.228 . S
Cd212 O211 2.228 . S
Cd212 O216 2.273 . S
Cd212 O220 2.277 . S
O213 C210 1.160 . S
O213 Cd214 2.203 . S
Cd214 O213 2.203 . S
Cd214 O216 2.411 . S
Cd214 O217 2.333 . S
Cd214 O218 2.352 . S
Cd214 O222 2.277 . S
Cd214 O223 2.356 . S
C215 O220 1.209 . S
C215 O222 1.226 . S
O216 Cd212 2.273 . S
O216 Cd214 2.411 . S
O216 C219 1.320 . S
O217 Cd214 2.333 . S
O217 C219 1.214 . S
O218 Cd214 2.352 . S
O218 C221 1.258 . S
C219 O216 1.320 . S
C219 O217 1.214 . S
O220 Cd212 2.277 . S
O220 C215 1.209 . S
C221 O218 1.258 . S
C221 O223 1.282 . S
O222 Cd214 2.277 . S
O222 C215 1.226 . S
O223 Cd214 2.356 . S
O223 C221 1.282 . S
C224 O225 1.306 1_545 S
C224 O227 1.160 . S
O225 C224 1.306 1_565 S
O225 Cd226 2.228 . S
Cd226 O225 2.228 . S
Cd226 O230 2.273 1_565 S
Cd226 O234 2.277 . S
O227 C224 1.160 . S
O227 Cd228 2.203 . S
Cd228 O227 2.203 . S
Cd228 O230 2.411 . S
Cd228 O231 2.333 . S
Cd228 O232 2.352 . S
Cd228 O236 2.277 1_545 S
Cd228 O237 2.356 . S
C229 O234 1.209 . S
C229 O236 1.226 . S
O230 Cd226 2.273 1_545 S
O230 Cd228 2.411 . S
O230 C233 1.320 . S
O231 Cd228 2.333 . S
O231 C233 1.214 . S
O232 Cd228 2.352 . S
O232 C235 1.258 . S
C233 O230 1.320 . S
C233 O231 1.214 . S
O234 Cd226 2.277 . S
O234 C229 1.209 . S
C235 O232 1.258 . S
C235 O237 1.282 . S
O236 Cd228 2.277 1_565 S
O236 C229 1.226 . S
O237 Cd228 2.356 . S
O237 C235 1.282 . S
C238 O239 1.306 . S
C238 O241 1.160 . S
O239 C238 1.306 . S
O239 Cd240 2.228 . S
Cd240 O239 2.228 . S
Cd240 O244 2.273 . S
Cd240 O248 2.277 . S
O241 C238 1.160 . S
O241 Cd242 2.203 . S
Cd242 O241 2.203 . S
Cd242 O244 2.411 . S
Cd242 O245 2.333 . S
Cd242 O246 2.352 . S
Cd242 O250 2.277 . S
Cd242 O251 2.356 . S
C243 O248 1.209 . S
C243 O250 1.226 . S
O244 Cd240 2.273 . S
O244 Cd242 2.411 . S
O244 C247 1.320 . S
O245 Cd242 2.333 . S
O245 C247 1.214 . S
O246 Cd242 2.352 . S
O246 C249 1.258 . S
C247 O244 1.320 . S
C247 O245 1.214 . S
O248 Cd240 2.277 . S
O248 C243 1.209 . S
C249 O246 1.258 . S
C249 O251 1.282 . S
O250 Cd242 2.277 . S
O250 C243 1.226 . S
O251 Cd242 2.356 . S
O251 C249 1.282 . S
C252 O253 1.306 . S
C252 O255 1.160 . S
O253 C252 1.306 . S
O253 Cd254 2.228 . S
Cd254 O253 2.228 . S
Cd254 O258 2.273 . S
Cd254 O262 2.277 . S
O255 C252 1.160 . S
O255 Cd256 2.203 . S
Cd256 O255 2.203 . S
Cd256 O258 2.411 . S
Cd256 O259 2.333 . S
Cd256 O260 2.352 1_545 S
Cd256 O264 2.277 . S
Cd256 O265 2.356 1_545 S
C257 O262 1.209 . S
C257 O264 1.226 . S
O258 Cd254 2.273 . S
O258 Cd256 2.411 . S
O258 C261 1.320 . S
O259 Cd256 2.333 . S
O259 C261 1.214 . S
O260 Cd256 2.352 1_565 S
O260 C263 1.258 . S
C261 O258 1.320 . S
C261 O259 1.214 . S
O262 Cd254 2.277 . S
O262 C257 1.209 . S
C263 O260 1.258 . S
C263 O265 1.282 . S
O264 Cd256 2.277 . S
O264 C257 1.226 . S
O265 Cd256 2.356 1_565 S
O265 C263 1.282 . S
C266 O267 1.306 . S
C266 O269 1.160 . S
O267 C266 1.306 . S
O267 Cd268 2.228 1_554 S
Cd268 O267 2.228 1_556 S
Cd268 O272 2.273 1_556 S
Cd268 O276 2.277 . S
O269 C266 1.160 . S
O269 Cd270 2.203 . S
Cd270 O269 2.203 . S
Cd270 O272 2.411 . S
Cd270 O273 2.333 . S
Cd270 O274 2.352 . S
Cd270 O278 2.293 . S
Cd270 O279 2.356 . S
C271 O276 1.209 . S
C271 O278 1.210 1_556 S
O272 Cd268 2.273 1_554 S
O272 Cd270 2.411 . S
O272 C275 1.320 . S
O273 Cd270 2.333 . S
O273 C275 1.214 . S
O274 Cd270 2.352 . S
O274 C277 1.258 . S
C275 O272 1.320 . S
C275 O273 1.214 . S
O276 Cd268 2.277 . S
O276 C271 1.209 . S
C277 O274 1.258 . S
C277 O279 1.282 . S
O278 Cd270 2.293 . S
O278 C271 1.210 1_554 S
O279 Cd270 2.356 . S
O279 C277 1.282 . S
C280 O281 1.306 . S
C280 O283 1.160 1_554 S
O281 C280 1.306 . S
O281 Cd282 2.228 . S
Cd282 O281 2.228 . S
Cd282 O286 2.273 . S
Cd282 O290 2.277 . S
O283 C280 1.160 1_556 S
O283 Cd284 2.203 . S
Cd284 O283 2.203 . S
Cd284 O286 2.411 1_556 S
Cd284 O287 2.333 . S
Cd284 O288 2.352 . S
Cd284 O292 2.277 1_556 S
Cd284 O293 2.356 . S
C285 O290 1.209 . S
C285 O292 1.226 . S
O286 Cd282 2.273 . S
O286 Cd284 2.411 1_554 S
O286 C289 1.317 1_554 S
O287 Cd284 2.333 . S
O287 C289 1.222 . S
O288 Cd284 2.352 . S
O288 C291 1.258 . S
C289 O286 1.317 1_556 S
C289 O287 1.222 . S
O290 Cd282 2.277 . S
O290 C285 1.209 . S
C291 O288 1.258 . S
C291 O293 1.282 . S
O292 Cd284 2.277 1_554 S
O292 C285 1.226 . S
O293 Cd284 2.356 . S
O293 C291 1.282 . S
C294 O295 1.306 . S
C294 O297 1.160 . S
O295 C294 1.306 . S
O295 Cd296 2.228 . S
Cd296 O295 2.228 . S
Cd296 O300 2.273 . S
Cd296 O304 2.277 . S
O297 C294 1.160 . S
O297 Cd298 2.203 . S
Cd298 O297 2.203 . S
Cd298 O300 2.411 . S
Cd298 O301 2.333 . S
Cd298 O302 2.352 . S
Cd298 O306 2.277 . S
Cd298 O307 2.356 . S
C299 O304 1.209 . S
C299 O306 1.226 . S
O300 Cd296 2.273 . S
O300 Cd298 2.411 . S
O300 C303 1.320 . S
O301 Cd298 2.333 . S
O301 C303 1.214 . S
O302 Cd298 2.352 . S
O302 C305 1.258 . S
C303 O300 1.320 . S
C303 O301 1.214 . S
O304 Cd296 2.277 . S
O304 C299 1.209 . S
C305 O302 1.258 . S
C305 O307 1.282 . S
O306 Cd298 2.277 . S
O306 C299 1.226 . S
O307 Cd298 2.356 . S
O307 C305 1.282 . S
C308 O309 1.306 . S
C308 O311 1.160 . S
O309 C308 1.306 . S
O309 Cd310 2.228 . S
Cd310 O309 2.228 . S
Cd310 O314 2.273 . S
Cd310 O318 2.277 . S
O311 C308 1.160 . S
O311 Cd312 2.203 . S
Cd312 O311 2.203 . S
Cd312 O314 2.411 . S
Cd312 O315 2.333 . S
Cd312 O316 2.352 . S
Cd312 O320 2.277 . S
Cd312 O321 2.356 . S
C313 O318 1.209 . S
C313 O320 1.226 . S
O314 Cd310 2.273 . S
O314 Cd312 2.411 . S
O314 C317 1.320 . S
O315 Cd312 2.333 . S
O315 C317 1.214 . S
O316 Cd312 2.352 . S
O316 C319 1.258 . S
C317 O314 1.320 . S
C317 O315 1.214 . S
O318 Cd310 2.277 . S
O318 C313 1.209 . S
C319 O316 1.258 . S
C319 O321 1.282 . S
O320 Cd312 2.277 . S
O320 C313 1.226 . S
O321 Cd312 2.356 . S
O321 C319 1.282 . S
C322 O323 1.306 . S
C322 O325 1.160 . S
O323 C322 1.306 . S
O323 Cd324 2.228 . S
Cd324 O323 2.228 . S
Cd324 O328 2.273 . S
Cd324 O332 2.277 . S
O325 C322 1.160 . S
O325 Cd326 2.203 . S
Cd326 O325 2.203 . S
Cd326 O328 2.411 . S
Cd326 O329 2.333 . S
Cd326 O330 2.352 . S
Cd326 O334 2.277 . S
Cd326 O335 2.356 . S
C327 O332 1.209 . S
C327 O334 1.226 . S
O328 Cd324 2.273 . S
O328 Cd326 2.411 . S
O328 C331 1.320 . S
O329 Cd326 2.333 . S
O329 C331 1.214 . S
O330 Cd326 2.352 . S
O330 C333 1.258 . S
C331 O328 1.320 . S
C331 O329 1.214 . S
O332 Cd324 2.277 . S
O332 C327 1.209 . S
C333 O330 1.258 . S
C333 O335 1.282 . S
O334 Cd326 2.277 . S
O334 C327 1.226 . S
O335 Cd326 2.356 . S
O335 C333 1.282 . S
C336 O352 1.232 1_556 S
C336 O354 1.254 . S
N337 C338 1.333 1_565 S
N337 C342 1.307 . S
N337 Zn343 2.020 1_665 S
C338 N337 1.333 1_545 S
C338 C339 1.370 1_545 S
C338 H356 0.952 . S
C339 C338 1.370 1_565 S
C339 C340 1.425 . S
C339 H366 0.925 1_565 S
C340 C339 1.425 . S
C340 C341 1.357 . S
C341 C340 1.357 . S
C341 C342 1.370 . S
C341 H367 0.950 . S
C342 N337 1.307 . S
C342 C341 1.370 . S
C342 H360 0.948 . S
Zn343 N337 2.020 1_445 S
Zn343 O352 2.067 . S
Zn343 O358 2.034 . S
Zn343 O362 2.025 1_545 S
Zn343 O364 2.024 1_545 S
C344 O363 1.246 . S
C344 O364 1.249 . S
N345 C346 1.307 1_554 S
N345 C347 1.333 . S
N345 Zn351 2.020 . S
C346 N345 1.307 1_556 S
C346 C350 1.370 . S
C346 H357 0.948 . S
C347 N345 1.333 . S
C347 C348 1.379 . S
C347 H355 0.952 . S
C348 C347 1.379 . S
C348 C349 1.390 . S
C348 H368 0.949 . S
C349 C348 1.390 . S
C349 C350 1.357 1_554 S
C350 C346 1.370 . S
C350 C349 1.357 1_556 S
C350 H369 0.950 . S
Zn351 N345 2.020 . S
Zn351 O354 2.025 1_554 S
Zn351 O359 2.024 . S
Zn351 O361 2.039 . S
Zn351 O363 2.034 1_545 S
O352 C336 1.232 1_554 S
O352 Zn343 2.067 . S
C353 O358 1.246 . S
C353 O359 1.249 . S
O354 C336 1.254 . S
O354 Zn351 2.025 1_556 S
H355 C347 0.952 . S
H356 C338 0.952 . S
H357 C346 0.948 . S
O358 Zn343 2.034 . S
O358 C353 1.246 . S
O359 Zn351 2.024 . S
O359 C353 1.249 . S
H360 C342 0.948 . S
O361 Zn351 2.039 . S
O361 C365 1.264 . S
O362 Zn343 2.025 1_565 S
O362 C365 1.248 1_565 S
O363 C344 1.246 . S
O363 Zn351 2.034 1_565 S
O364 Zn343 2.024 1_565 S
O364 C344 1.249 . S
C365 O361 1.264 . S
C365 O362 1.248 1_545 S
H366 C339 0.925 1_545 S
H367 C341 0.950 . S
H368 C348 0.949 . S
H369 C350 0.950 . S
C370 O386 1.251 . S
C370 O388 1.254 . S
N371 C372 1.333 . S
N371 C376 1.307 . S
N371 Zn377 2.020 . S
C372 N371 1.333 . S
C372 C373 1.379 . S
C372 H390 0.952 . S
C373 C372 1.379 . S
C373 C374 1.390 . S
C373 H400 0.949 . S
C374 C373 1.390 . S
C374 C375 1.357 . S
C375 C374 1.357 . S
C375 C376 1.370 . S
C375 H401 0.950 . S
C376 N371 1.307 . S
C376 C375 1.370 . S
C376 H394 0.948 . S
Zn377 N371 2.020 . S
Zn377 O386 2.039 . S
Zn377 O392 2.034 . S
Zn377 O396 2.025 . S
Zn377 O398 2.024 . S
C378 O397 1.246 . S
C378 O398 1.249 . S
N379 C380 1.307 . S
N379 C381 1.333 . S
N379 Zn385 2.020 . S
C380 N379 1.307 . S
C380 C384 1.370 . S
C380 H391 0.948 . S
C381 N379 1.333 . S
C381 C382 1.379 . S
C381 H389 0.952 . S
C382 C381 1.379 . S
C382 C383 1.390 . S
C382 H402 0.949 . S
C383 C382 1.390 . S
C383 C384 1.357 . S
C384 C380 1.370 . S
C384 C383 1.357 . S
C384 H403 0.950 . S
Zn385 N379 2.020 . S
Zn385 O388 2.025 . S
Zn385 O393 2.024 . S
Zn385 O395 2.039 . S
Zn385 O397 2.034 . S
O386 C370 1.251 . S
O386 Zn377 2.039 . S
C387 O392 1.246 . S
C387 O393 1.249 . S
O388 C370 1.254 . S
O388 Zn385 2.025 . S
H389 C381 0.952 . S
H390 C372 0.952 . S
H391 C380 0.948 . S
O392 Zn377 2.034 . S
O392 C387 1.246 . S
O393 Zn385 2.024 . S
O393 C387 1.249 . S
H394 C376 0.948 . S
O395 Zn385 2.039 . S
O395 C399 1.251 . S
O396 Zn377 2.025 . S
O396 C399 1.254 . S
O397 C378 1.246 . S
O397 Zn385 2.034 . S
O398 Zn377 2.024 . S
O398 C378 1.249 . S
C399 O395 1.251 . S
C399 O396 1.254 . S
H400 C373 0.949 . S
H401 C375 0.950 . S
H402 C382 0.949 . S
H403 C384 0.950 . S
C404 O420 1.251 . S
C404 O422 1.254 . S
N405 C406 1.333 . S
N405 C410 1.307 . S
N405 Zn411 2.020 . S
C406 N405 1.333 . S
C406 C407 1.379 . S
C406 H424 0.952 . S
C407 C406 1.379 . S
C407 C408 1.390 . S
C407 H434 0.949 . S
C408 C407 1.390 . S
C408 C409 1.357 . S
C409 C408 1.357 . S
C409 C410 1.370 . S
C409 H435 0.950 . S
C410 N405 1.307 . S
C410 C409 1.370 . S
C410 H428 0.948 . S
Zn411 N405 2.020 . S
Zn411 O420 2.039 1_565 S
Zn411 O426 2.034 1_565 S
Zn411 O430 2.025 . S
Zn411 O432 2.024 . S
C412 O431 1.246 1_565 S
C412 O432 1.249 . S
N413 C414 1.307 . S
N413 C415 1.333 . S
N413 Zn419 2.020 . S
C414 N413 1.307 . S
C414 C418 1.370 . S
C414 H425 0.948 . S
C415 N413 1.333 . S
C415 C416 1.379 . S
C415 H423 0.952 . S
C416 C415 1.379 . S
C416 C417 1.390 . S
C416 H436 0.949 . S
C417 C416 1.390 . S
C417 C418 1.357 . S
C418 C414 1.370 . S
C418 C417 1.357 . S
C418 H437 0.950 . S
Zn419 N413 2.020 . S
Zn419 O422 2.025 . S
Zn419 O427 2.024 . S
Zn419 O429 2.039 . S
Zn419 O431 2.034 . S
O420 C404 1.251 . S
O420 Zn411 2.039 1_545 S
C421 O426 1.246 . S
C421 O427 1.249 . S
O422 C404 1.254 . S
O422 Zn419 2.025 . S
H423 C415 0.952 . S
H424 C406 0.952 . S
H425 C414 0.948 . S
O426 Zn411 2.034 1_545 S
O426 C421 1.246 . S
O427 Zn419 2.024 . S
O427 C421 1.249 . S
H428 C410 0.948 . S
O429 Zn419 2.039 . S
O429 C433 1.251 . S
O430 Zn411 2.025 . S
O430 C433 1.254 1_565 S
O431 C412 1.246 1_545 S
O431 Zn419 2.034 . S
O432 Zn411 2.024 . S
O432 C412 1.249 . S
C433 O429 1.251 . S
C433 O430 1.254 1_545 S
H434 C407 0.949 . S
H435 C409 0.950 . S
H436 C416 0.949 . S
H437 C418 0.950 . S
C438 O454 1.251 . S
C438 O456 1.254 . S
N439 C440 1.333 . S
N439 C444 1.307 . S
N439 Zn445 2.020 . S
C440 N439 1.333 . S
C440 C441 1.379 . S
C440 H458 0.952 . S
C441 C440 1.379 . S
C441 C442 1.390 . S
C441 H468 0.949 . S
C442 C441 1.390 . S
C442 C443 1.357 . S
C443 C442 1.357 . S
C443 C444 1.370 . S
C443 H469 0.950 . S
C444 N439 1.307 . S
C444 C443 1.370 . S
C444 H462 0.948 . S
Zn445 N439 2.020 . S
Zn445 O454 2.039 . S
Zn445 O460 2.034 . S
Zn445 O464 2.025 . S
Zn445 O466 2.024 . S
C446 O465 1.246 . S
C446 O466 1.249 . S
N447 C448 1.307 . S
N447 C449 1.333 . S
N447 Zn453 2.020 . S
C448 N447 1.307 . S
C448 C452 1.370 . S
C448 H459 0.948 . S
C449 N447 1.333 . S
C449 C450 1.379 . S
C449 H457 0.952 . S
C450 C449 1.379 . S
C450 C451 1.390 . S
C450 H470 0.949 . S
C451 C450 1.390 . S
C451 C452 1.357 . S
C452 C448 1.370 . S
C452 C451 1.357 . S
C452 H471 0.950 . S
Zn453 N447 2.020 . S
Zn453 O456 2.025 . S
Zn453 O461 2.024 . S
Zn453 O463 2.039 . S
Zn453 O465 2.034 . S
O454 C438 1.251 . S
O454 Zn445 2.039 . S
C455 O460 1.246 . S
C455 O461 1.249 . S
O456 C438 1.254 . S
O456 Zn453 2.025 . S
H457 C449 0.952 . S
H458 C440 0.952 . S
H459 C448 0.948 . S
O460 Zn445 2.034 . S
O460 C455 1.246 . S
O461 Zn453 2.024 . S
O461 C455 1.249 . S
H462 C444 0.948 . S
O463 Zn453 2.039 . S
O463 C467 1.251 . S
O464 Zn445 2.025 . S
O464 C467 1.254 . S
O465 C446 1.246 . S
O465 Zn453 2.034 . S
O466 Zn445 2.024 . S
O466 C446 1.249 . S
C467 O463 1.251 . S
C467 O464 1.254 . S
H468 C441 0.949 . S
H469 C443 0.950 . S
H470 C450 0.949 . S
H471 C452 0.950 . S
C472 O488 1.251 1_565 S
C472 O490 1.254 . S
N473 C474 1.333 . S
N473 C478 1.307 . S
N473 Zn479 2.020 . S
C474 N473 1.333 . S
C474 C475 1.379 . S
C474 H492 0.952 . S
C475 C474 1.379 . S
C475 C476 1.390 . S
C475 H502 0.949 . S
C476 C475 1.390 . S
C476 C477 1.357 . S
C477 C476 1.357 . S
C477 C478 1.370 . S
C477 H503 0.950 . S
C478 N473 1.307 . S
C478 C477 1.370 . S
C478 H496 0.948 . S
Zn479 N473 2.020 . S
Zn479 O488 2.039 . S
Zn479 O494 2.034 . S
Zn479 O498 2.025 . S
Zn479 O500 2.024 1_545 S
C480 O499 1.246 . S
C480 O500 1.249 . S
N481 C482 1.307 . S
N481 C483 1.333 1_455 S
N481 Zn487 2.020 1_565 S
C482 N481 1.307 . S
C482 C486 1.370 . S
C482 H493 0.934 1_565 S
C483 N481 1.333 1_655 S
C483 C484 1.379 . S
C483 H491 0.952 . S
C484 C483 1.379 . S
C484 C485 1.390 . S
C484 H504 0.949 . S
C485 C484 1.390 . S
C485 C486 1.357 1_655 S
C486 C482 1.370 . S
C486 C485 1.357 1_455 S
C486 H505 0.950 . S
Zn487 N481 2.020 1_545 S
Zn487 O490 2.025 1_545 S
Zn487 O495 2.024 . S
Zn487 O497 2.039 1_455 S
Zn487 O499 2.034 1_545 S
O488 C472 1.251 1_545 S
O488 Zn479 2.039 . S
C489 O494 1.246 . S
C489 O495 1.249 . S
O490 C472 1.254 . S
O490 Zn487 2.025 1_565 S
H491 C483 0.952 . S
H492 C474 0.952 . S
H493 C482 0.934 1_545 S
O494 Zn479 2.034 . S
O494 C489 1.246 . S
O495 Zn487 2.024 . S
O495 C489 1.249 . S
H496 C478 0.948 . S
O497 Zn487 2.039 1_655 S
O497 C501 1.251 . S
O498 Zn479 2.025 . S
O498 C501 1.254 1_455 S
O499 C480 1.246 . S
O499 Zn487 2.034 1_565 S
O500 Zn479 2.024 1_565 S
O500 C480 1.249 . S
C501 O497 1.251 . S
C501 O498 1.254 1_655 S
H502 C475 0.949 . S
H503 C477 0.950 . S
H504 C484 0.949 . S
H505 C486 0.950 . S
C506 O522 1.251 . S
C506 O524 1.254 . S
N507 C508 1.333 . S
N507 C512 1.307 . S
N507 Zn513 2.020 . S
C508 N507 1.333 . S
C508 C509 1.379 . S
C508 H526 0.952 . S
C509 C508 1.379 . S
C509 C510 1.390 . S
C509 H536 0.949 . S
C510 C509 1.390 . S
C510 C511 1.357 . S
C511 C510 1.357 . S
C511 C512 1.370 . S
C511 H537 0.950 . S
C512 N507 1.307 . S
C512 C511 1.370 . S
C512 H530 0.948 . S
Zn513 N507 2.020 . S
Zn513 O522 2.039 . S
Zn513 O528 2.034 . S
Zn513 O532 2.025 . S
Zn513 O534 2.024 . S
C514 O533 1.246 . S
C514 O534 1.249 . S
N515 C516 1.307 . S
N515 C517 1.333 . S
N515 Zn521 2.020 . S
C516 N515 1.307 . S
C516 C520 1.370 . S
C516 H527 0.948 . S
C517 N515 1.333 . S
C517 C518 1.379 . S
C517 H525 0.952 . S
C518 C517 1.379 . S
C518 C519 1.390 . S
C518 H538 0.949 . S
C519 C518 1.390 . S
C519 C520 1.357 . S
C520 C516 1.370 . S
C520 C519 1.357 . S
C520 H539 0.950 . S
Zn521 N515 2.020 . S
Zn521 O524 2.025 . S
Zn521 O529 2.024 . S
Zn521 O531 2.039 . S
Zn521 O533 2.034 . S
O522 C506 1.251 . S
O522 Zn513 2.039 . S
C523 O528 1.246 . S
C523 O529 1.249 . S
O524 C506 1.254 . S
O524 Zn521 2.025 . S
H525 C517 0.952 . S
H526 C508 0.952 . S
H527 C516 0.948 . S
O528 Zn513 2.034 . S
O528 C523 1.246 . S
O529 Zn521 2.024 . S
O529 C523 1.249 . S
H530 C512 0.948 . S
O531 Zn521 2.039 . S
O531 C535 1.251 . S
O532 Zn513 2.025 . S
O532 C535 1.254 . S
O533 C514 1.246 . S
O533 Zn521 2.034 . S
O534 Zn513 2.024 . S
O534 C514 1.249 . S
C535 O531 1.251 . S
C535 O532 1.254 . S
H536 C509 0.949 . S
H537 C511 0.950 . S
H538 C518 0.949 . S
H539 C520 0.950 . S
C540 O556 1.251 . S
C540 O558 1.254 . S
N541 C542 1.333 . S
N541 C546 1.307 . S
N541 Zn547 2.020 . S
C542 N541 1.333 . S
C542 C543 1.379 . S
C542 H560 0.952 . S
C543 C542 1.379 . S
C543 C544 1.390 . S
C543 H570 0.949 . S
C544 C543 1.390 . S
C544 C545 1.357 . S
C545 C544 1.357 . S
C545 C546 1.370 . S
C545 H571 0.950 . S
C546 N541 1.307 . S
C546 C545 1.370 . S
C546 H564 0.948 . S
Zn547 N541 2.020 . S
Zn547 O556 2.039 1_545 S
Zn547 O562 2.034 . S
Zn547 O566 2.025 . S
Zn547 O568 2.024 . S
C548 O567 1.246 . S
C548 O568 1.249 1_565 S
N549 C550 1.307 . S
N549 C551 1.333 1_565 S
N549 Zn555 2.020 1_566 S
C550 N549 1.307 . S
C550 C554 1.370 . S
C550 H561 0.948 . S
C551 N549 1.333 1_545 S
C551 C552 1.383 . S
C551 H559 0.952 . S
C552 C551 1.383 . S
C552 C553 1.377 1_545 S
C552 H572 0.958 . S
C553 C552 1.377 1_565 S
C553 C554 1.357 . S
C554 C550 1.370 . S
C554 C553 1.357 . S
C554 H573 0.950 . S
Zn555 N549 2.020 1_544 S
Zn555 O558 2.025 1_545 S
Zn555 O563 2.024 . S
Zn555 O565 2.039 1_554 S
Zn555 O567 2.034 1_545 S
O556 C540 1.251 . S
O556 Zn547 2.039 1_565 S
C557 O562 1.246 . S
C557 O563 1.249 . S
O558 C540 1.254 . S
O558 Zn555 2.025 1_565 S
H559 C551 0.952 . S
H560 C542 0.952 . S
H561 C550 0.948 . S
O562 Zn547 2.034 . S
O562 C557 1.246 . S
O563 Zn555 2.024 . S
O563 C557 1.249 . S
H564 C546 0.948 . S
O565 Zn555 2.039 1_556 S
O565 C569 1.251 1_556 S
O566 Zn547 2.025 . S
O566 C569 1.254 . S
O567 C548 1.246 . S
O567 Zn555 2.034 1_565 S
O568 Zn547 2.024 . S
O568 C548 1.249 1_545 S
C569 O565 1.251 1_554 S
C569 O566 1.254 . S
H570 C543 0.949 . S
H571 C545 0.950 . S
H572 C552 0.958 . S
H573 C554 0.950 . S
C574 O590 1.251 . S
C574 O592 1.254 . S
N575 C576 1.333 . S
N575 C580 1.307 . S
N575 Zn581 2.020 . S
C576 N575 1.333 . S
C576 C577 1.379 . S
C576 H594 0.952 . S
C577 C576 1.379 . S
C577 C578 1.390 . S
C577 H604 0.949 . S
C578 C577 1.390 . S
C578 C579 1.357 . S
C579 C578 1.357 . S
C579 C580 1.370 . S
C579 H605 0.950 . S
C580 N575 1.307 . S
C580 C579 1.370 . S
C580 H598 0.948 . S
Zn581 N575 2.020 . S
Zn581 O590 2.039 . S
Zn581 O596 2.034 . S
Zn581 O600 2.025 . S
Zn581 O602 2.024 . S
C582 O601 1.246 . S
C582 O602 1.249 . S
N583 C584 1.307 . S
N583 C585 1.333 . S
N583 Zn589 2.020 . S
C584 N583 1.307 . S
C584 C588 1.370 . S
C584 H595 0.948 . S
C585 N583 1.333 . S
C585 C586 1.379 . S
C585 H593 0.952 . S
C586 C585 1.379 . S
C586 C587 1.390 . S
C586 H606 0.949 . S
C587 C586 1.390 . S
C587 C588 1.357 . S
C588 C584 1.370 . S
C588 C587 1.357 . S
C588 H607 0.950 . S
Zn589 N583 2.020 . S
Zn589 O592 2.025 . S
Zn589 O597 2.024 . S
Zn589 O599 2.039 . S
Zn589 O601 2.034 . S
O590 C574 1.251 . S
O590 Zn581 2.039 . S
C591 O596 1.246 . S
C591 O597 1.249 . S
O592 C574 1.254 . S
O592 Zn589 2.025 . S
H593 C585 0.952 . S
H594 C576 0.952 . S
H595 C584 0.948 . S
O596 Zn581 2.034 . S
O596 C591 1.246 . S
O597 Zn589 2.024 . S
O597 C591 1.249 . S
H598 C580 0.948 . S
O599 Zn589 2.039 . S
O599 C603 1.251 . S
O600 Zn581 2.025 . S
O600 C603 1.254 . S
O601 C582 1.246 . S
O601 Zn589 2.034 . S
O602 Zn581 2.024 . S
O602 C582 1.249 . S
C603 O599 1.251 . S
C603 O600 1.254 . S
H604 C577 0.949 . S
H605 C579 0.950 . S
H606 C586 0.949 . S
H607 C588 0.950 . S
C608 O624 1.251 . S
C608 O626 1.254 . S
N609 C610 1.333 . S
N609 C614 1.307 . S
N609 Zn615 2.020 1_556 S
C610 N609 1.333 . S
C610 C611 1.379 . S
C610 H628 0.952 . S
C611 C610 1.379 . S
C611 C612 1.390 . S
C611 H638 0.949 . S
C612 C611 1.390 . S
C612 C613 1.357 . S
C613 C612 1.357 . S
C613 C614 1.370 . S
C613 H639 0.950 . S
C614 N609 1.307 . S
C614 C613 1.370 . S
C614 H632 0.948 . S
Zn615 N609 2.020 1_554 S
Zn615 O624 2.039 . S
Zn615 O630 2.034 . S
Zn615 O634 2.025 . S
Zn615 O636 2.024 1_554 S
C616 O635 1.246 . S
C616 O636 1.249 1_554 S
N617 C618 1.307 . S
N617 C619 1.333 . S
N617 Zn623 2.020 . S
C618 N617 1.307 . S
C618 C622 1.370 . S
C618 H629 0.948 . S
C619 N617 1.333 . S
C619 C620 1.379 . S
C619 H627 0.952 . S
C620 C619 1.379 . S
C620 C621 1.390 . S
C620 H640 0.949 . S
C621 C620 1.390 . S
C621 C622 1.357 . S
C622 C618 1.370 . S
C622 C621 1.357 . S
C622 H641 0.950 . S
Zn623 N617 2.020 . S
Zn623 O626 2.025 . S
Zn623 O631 2.024 . S
Zn623 O633 2.039 . S
Zn623 O635 2.034 . S
O624 C608 1.251 . S
O624 Zn615 2.039 . S
C625 O630 1.246 . S
C625 O631 1.249 . S
O626 C608 1.254 . S
O626 Zn623 2.025 . S
H627 C619 0.952 . S
H628 C610 0.952 . S
H629 C618 0.948 . S
O630 Zn615 2.034 . S
O630 C625 1.246 . S
O631 Zn623 2.024 . S
O631 C625 1.249 . S
H632 C614 0.948 . S
O633 Zn623 2.039 . S
O633 C637 1.251 . S
O634 Zn615 2.025 . S
O634 C637 1.254 . S
O635 C616 1.246 . S
O635 Zn623 2.034 . S
O636 Zn615 2.024 1_556 S
O636 C616 1.249 1_556 S
C637 O633 1.251 . S
C637 O634 1.254 . S
H638 C611 0.949 . S
H639 C613 0.950 . S
H640 C620 0.949 . S
H641 C622 0.950 . S
C642 O658 1.251 . S
C642 O660 1.254 . S
N643 C644 1.333 . S
N643 C648 1.307 . S
N643 Zn649 2.020 . S
C644 N643 1.333 . S
C644 C645 1.379 . S
C644 H662 0.952 . S
C645 C644 1.379 . S
C645 C646 1.390 . S
C645 H672 0.949 . S
C646 C645 1.390 . S
C646 C647 1.357 . S
C647 C646 1.357 . S
C647 C648 1.370 . S
C647 H673 0.950 . S
C648 N643 1.307 . S
C648 C647 1.370 . S
C648 H666 0.948 . S
Zn649 N643 2.020 . S
Zn649 O658 2.039 . S
Zn649 O664 2.034 . S
Zn649 O668 2.025 . S
Zn649 O670 2.024 . S
C650 O669 1.246 . S
C650 O670 1.249 . S
N651 C652 1.307 . S
N651 C653 1.333 . S
N651 Zn657 2.020 . S
C652 N651 1.307 . S
C652 C656 1.370 . S
C652 H663 0.948 . S
C653 N651 1.333 . S
C653 C654 1.379 . S
C653 H661 0.952 . S
C654 C653 1.379 . S
C654 C655 1.390 . S
C654 H674 0.949 . S
C655 C654 1.390 . S
C655 C656 1.357 . S
C656 C652 1.370 . S
C656 C655 1.357 . S
C656 H675 0.950 . S
Zn657 N651 2.020 . S
Zn657 O660 2.025 . S
Zn657 O665 2.024 . S
Zn657 O667 2.039 . S
Zn657 O669 2.034 . S
O658 C642 1.251 . S
O658 Zn649 2.039 . S
C659 O664 1.246 . S
C659 O665 1.249 . S
O660 C642 1.254 . S
O660 Zn657 2.025 . S
H661 C653 0.952 . S
H662 C644 0.952 . S
H663 C652 0.948 . S
O664 Zn649 2.034 . S
O664 C659 1.246 . S
O665 Zn657 2.024 . S
O665 C659 1.249 . S
H666 C648 0.948 . S
O667 Zn657 2.039 . S
O667 C671 1.251 . S
O668 Zn649 2.025 . S
O668 C671 1.254 . S
O669 C650 1.246 . S
O669 Zn657 2.034 . S
O670 Zn649 2.024 . S
O670 C650 1.249 . S
C671 O667 1.251 . S
C671 O668 1.254 . S
H672 C645 0.949 . S
H673 C647 0.950 . S
H674 C654 0.949 . S
H675 C656 0.950 . S
C676 O692 1.251 . S
C676 O694 1.254 . S
N677 C678 1.333 . S
N677 C682 1.307 . S
N677 Zn683 2.020 . S
C678 N677 1.333 . S
C678 C679 1.379 . S
C678 H696 0.952 . S
C679 C678 1.379 . S
C679 C680 1.390 . S
C679 H706 0.949 . S
C680 C679 1.390 . S
C680 C681 1.357 . S
C681 C680 1.357 . S
C681 C682 1.370 . S
C681 H707 0.950 . S
C682 N677 1.307 . S
C682 C681 1.370 . S
C682 H700 0.948 . S
Zn683 N677 2.020 . S
Zn683 O692 2.039 . S
Zn683 O698 2.034 . S
Zn683 O702 2.025 . S
Zn683 O704 2.024 . S
C684 O703 1.246 . S
C684 O704 1.249 . S
N685 C686 1.307 1_455 S
N685 C687 1.333 . S
N685 Zn691 2.020 . S
C686 N685 1.307 1_655 S
C686 C690 1.370 . S
C686 H697 0.948 . S
C687 N685 1.333 . S
C687 C688 1.379 . S
C687 H695 0.952 . S
C688 C687 1.379 . S
C688 C689 1.390 1_455 S
C688 H708 0.949 . S
C689 C688 1.390 1_655 S
C689 C690 1.357 . S
C690 C686 1.370 . S
C690 C689 1.357 . S
C690 H709 0.950 . S
Zn691 N685 2.020 . S
Zn691 O694 2.025 . S
Zn691 O699 2.024 1_455 S
Zn691 O701 2.039 . S
Zn691 O703 2.034 . S
O692 C676 1.251 . S
O692 Zn683 2.039 . S
C693 O698 1.246 1_655 S
C693 O699 1.249 . S
O694 C676 1.254 . S
O694 Zn691 2.025 . S
H695 C687 0.952 . S
H696 C678 0.952 . S
H697 C686 0.948 . S
O698 Zn683 2.034 . S
O698 C693 1.246 1_455 S
O699 Zn691 2.024 1_655 S
O699 C693 1.249 . S
H700 C682 0.948 . S
O701 Zn691 2.039 . S
O701 C705 1.251 . S
O702 Zn683 2.025 . S
O702 C705 1.254 . S
O703 C684 1.246 . S
O703 Zn691 2.034 . S
O704 Zn683 2.024 . S
O704 C684 1.249 . S
C705 O701 1.251 . S
C705 O702 1.254 . S
H706 C679 0.949 . S
H707 C681 0.950 . S
H708 C688 0.949 . S
H709 C690 0.950 . S
C710 O726 1.251 . S
C710 O728 1.254 . S
N711 C712 1.333 . S
N711 C716 1.307 . S
N711 Zn717 2.020 . S
C712 N711 1.333 . S
C712 C713 1.379 . S
C712 H730 0.952 . S
C713 C712 1.379 . S
C713 C714 1.390 . S
C713 H740 0.949 . S
C714 C713 1.390 . S
C714 C715 1.357 . S
C715 C714 1.357 . S
C715 C716 1.370 . S
C715 H741 0.950 . S
C716 N711 1.307 . S
C716 C715 1.370 . S
C716 H734 0.948 . S
Zn717 N711 2.020 . S
Zn717 O726 2.039 . S
Zn717 O732 2.034 . S
Zn717 O736 2.025 . S
Zn717 O738 2.024 . S
C718 O737 1.246 . S
C718 O738 1.249 . S
N719 C720 1.307 . S
N719 C721 1.333 . S
N719 Zn725 2.020 . S
C720 N719 1.307 . S
C720 C724 1.370 . S
C720 H731 0.948 . S
C721 N719 1.333 . S
C721 C722 1.379 . S
C721 H729 0.952 . S
C722 C721 1.379 . S
C722 C723 1.390 . S
C722 H742 0.949 . S
C723 C722 1.390 . S
C723 C724 1.357 . S
C724 C720 1.370 . S
C724 C723 1.357 . S
C724 H743 0.950 . S
Zn725 N719 2.020 . S
Zn725 O728 2.025 . S
Zn725 O733 2.024 . S
Zn725 O735 2.039 . S
Zn725 O737 2.034 . S
O726 C710 1.251 . S
O726 Zn717 2.039 . S
C727 O732 1.246 . S
C727 O733 1.249 . S
O728 C710 1.254 . S
O728 Zn725 2.025 . S
H729 C721 0.952 . S
H730 C712 0.952 . S
H731 C720 0.948 . S
O732 Zn717 2.034 . S
O732 C727 1.246 . S
O733 Zn725 2.024 . S
O733 C727 1.249 . S
H734 C716 0.948 . S
O735 Zn725 2.039 . S
O735 C739 1.251 . S
O736 Zn717 2.025 . S
O736 C739 1.254 . S
O737 C718 1.246 . S
O737 Zn725 2.034 . S
O738 Zn717 2.024 . S
O738 C718 1.249 . S
C739 O735 1.251 . S
C739 O736 1.254 . S
H740 C713 0.949 . S
H741 C715 0.950 . S
H742 C722 0.949 . S
H743 C724 0.950 . S
C744 O760 1.251 . S
C744 O762 1.254 . S
N745 C746 1.333 . S
N745 C750 1.307 . S
N745 Zn751 2.020 . S
C746 N745 1.333 . S
C746 C747 1.379 . S
C746 H764 0.952 . S
C747 C746 1.379 . S
C747 C748 1.390 . S
C747 H774 0.949 . S
C748 C747 1.390 . S
C748 C749 1.357 . S
C749 C748 1.357 . S
C749 C750 1.370 . S
C749 H775 0.950 . S
C750 N745 1.307 . S
C750 C749 1.370 . S
C750 H768 0.948 . S
Zn751 N745 2.020 . S
Zn751 O760 2.039 . S
Zn751 O766 2.034 . S
Zn751 O770 2.025 . S
Zn751 O772 2.024 . S
C752 O771 1.246 . S
C752 O772 1.249 . S
N753 C754 1.307 . S
N753 C755 1.333 . S
N753 Zn759 2.020 . S
C754 N753 1.307 . S
C754 C758 1.370 . S
C754 H765 0.948 . S
C755 N753 1.333 . S
C755 C756 1.379 . S
C755 H763 0.952 . S
C756 C755 1.379 . S
C756 C757 1.390 . S
C756 H776 0.949 . S
C757 C756 1.390 . S
C757 C758 1.357 . S
C758 C754 1.370 . S
C758 C757 1.357 . S
C758 H777 0.950 . S
Zn759 N753 2.020 . S
Zn759 O762 2.025 . S
Zn759 O767 2.024 . S
Zn759 O769 2.039 . S
Zn759 O771 2.034 . S
O760 C744 1.251 . S
O760 Zn751 2.039 . S
C761 O766 1.246 . S
C761 O767 1.249 . S
O762 C744 1.254 . S
O762 Zn759 2.025 . S
H763 C755 0.952 . S
H764 C746 0.952 . S
H765 C754 0.948 . S
O766 Zn751 2.034 . S
O766 C761 1.246 . S
O767 Zn759 2.024 . S
O767 C761 1.249 . S
H768 C750 0.948 . S
O769 Zn759 2.039 . S
O769 C773 1.251 . S
O770 Zn751 2.025 . S
O770 C773 1.254 . S
O771 C752 1.246 . S
O771 Zn759 2.034 . S
O772 Zn751 2.024 . S
O772 C752 1.249 . S
C773 O769 1.251 . S
C773 O770 1.254 . S
H774 C747 0.949 . S
H775 C749 0.950 . S
H776 C756 0.949 . S
H777 C758 0.950 . S
C778 O794 1.251 . S
C778 O796 1.254 . S
N779 C780 1.333 . S
N779 C784 1.307 . S
N779 Zn785 2.020 . S
C780 N779 1.333 . S
C780 C781 1.379 . S
C780 H798 0.952 . S
C781 C780 1.379 . S
C781 C782 1.390 . S
C781 H808 0.949 . S
C782 C781 1.390 . S
C782 C783 1.357 . S
C783 C782 1.357 . S
C783 C784 1.370 . S
C783 H809 0.950 . S
C784 N779 1.307 . S
C784 C783 1.370 . S
C784 H802 0.948 . S
Zn785 N779 2.020 . S
Zn785 O794 2.039 . S
Zn785 O800 2.034 . S
Zn785 O804 2.025 . S
Zn785 O806 2.024 . S
C786 O805 1.246 . S
C786 O806 1.249 . S
N787 C788 1.307 . S
N787 C789 1.333 . S
N787 Zn793 2.020 . S
C788 N787 1.307 . S
C788 C792 1.370 . S
C788 H799 0.948 . S
C789 N787 1.333 . S
C789 C790 1.379 . S
C789 H797 0.952 . S
C790 C789 1.379 . S
C790 C791 1.390 . S
C790 H810 0.949 . S
C791 C790 1.390 . S
C791 C792 1.357 . S
C792 C788 1.370 . S
C792 C791 1.357 . S
C792 H811 0.950 . S
Zn793 N787 2.020 . S
Zn793 O796 2.025 . S
Zn793 O801 2.024 . S
Zn793 O803 2.039 . S
Zn793 O805 2.034 . S
O794 C778 1.251 . S
O794 Zn785 2.039 . S
C795 O800 1.246 . S
C795 O801 1.249 . S
O796 C778 1.254 . S
O796 Zn793 2.025 . S
H797 C789 0.952 . S
H798 C780 0.952 . S
H799 C788 0.948 . S
O800 Zn785 2.034 . S
O800 C795 1.246 . S
O801 Zn793 2.024 . S
O801 C795 1.249 . S
H802 C784 0.948 . S
O803 Zn793 2.039 . S
O803 C807 1.251 . S
O804 Zn785 2.025 . S
O804 C807 1.254 . S
O805 C786 1.246 . S
O805 Zn793 2.034 . S
O806 Zn785 2.024 . S
O806 C786 1.249 . S
C807 O803 1.251 . S
C807 O804 1.254 . S
H808 C781 0.949 . S
H809 C783 0.950 . S
H810 C790 0.949 . S
H811 C792 0.950 . S
C812 O828 1.251 . S
C812 O830 1.254 . S
N813 C814 1.333 . S
N813 C818 1.307 . S
N813 Zn819 2.020 . S
C814 N813 1.333 . S
C814 C815 1.379 . S
C814 H832 0.952 . S
C815 C814 1.379 . S
C815 C816 1.390 . S
C815 H842 0.949 . S
C816 C815 1.390 . S
C816 C817 1.357 . S
C817 C816 1.357 . S
C817 C818 1.370 . S
C817 H843 0.950 . S
C818 N813 1.307 . S
C818 C817 1.370 . S
C818 H836 0.948 . S
Zn819 N813 2.020 . S
Zn819 O828 2.039 . S
Zn819 O834 2.034 . S
Zn819 O838 2.025 . S
Zn819 O840 2.024 . S
C820 O839 1.246 . S
C820 O840 1.249 . S
N821 C822 1.307 . S
N821 C823 1.333 . S
N821 Zn827 2.020 . S
C822 N821 1.307 . S
C822 C826 1.370 . S
C822 H833 0.948 . S
C823 N821 1.333 . S
C823 C824 1.379 . S
C823 H831 0.952 . S
C824 C823 1.379 . S
C824 C825 1.390 . S
C824 H844 0.949 . S
C825 C824 1.390 . S
C825 C826 1.357 . S
C826 C822 1.370 . S
C826 C825 1.357 . S
C826 H845 0.950 . S
Zn827 N821 2.020 . S
Zn827 O830 2.025 . S
Zn827 O835 2.024 . S
Zn827 O837 2.039 . S
Zn827 O839 2.034 . S
O828 C812 1.251 . S
O828 Zn819 2.039 . S
C829 O834 1.246 . S
C829 O835 1.249 . S
O830 C812 1.254 . S
O830 Zn827 2.025 . S
H831 C823 0.952 . S
H832 C814 0.952 . S
H833 C822 0.948 . S
O834 Zn819 2.034 . S
O834 C829 1.246 . S
O835 Zn827 2.024 . S
O835 C829 1.249 . S
H836 C818 0.948 . S
O837 Zn827 2.039 . S
O837 C841 1.251 . S
O838 Zn819 2.025 . S
O838 C841 1.254 . S
O839 C820 1.246 . S
O839 Zn827 2.034 . S
O840 Zn819 2.024 . S
O840 C820 1.249 . S
C841 O837 1.251 . S
C841 O838 1.254 . S
H842 C815 0.949 . S
H843 C817 0.950 . S
H844 C824 0.949 . S
H845 C826 0.950 . S
C846 O862 1.251 . S
C846 O864 1.254 . S
N847 C848 1.333 . S
N847 C852 1.307 . S
N847 Zn853 2.020 . S
C848 N847 1.333 . S
C848 C849 1.379 . S
C848 H866 0.952 . S
C849 C848 1.379 . S
C849 C850 1.390 . S
C849 H876 0.949 . S
C850 C849 1.390 . S
C850 C851 1.357 . S
C851 C850 1.357 . S
C851 C852 1.370 . S
C851 H877 0.950 . S
C852 N847 1.307 . S
C852 C851 1.370 . S
C852 H870 0.948 . S
Zn853 N847 2.020 . S
Zn853 O862 2.039 . S
Zn853 O868 2.034 . S
Zn853 O872 2.025 . S
Zn853 O874 2.024 . S
C854 O873 1.246 . S
C854 O874 1.249 1_655 S
N855 C856 1.307 . S
N855 C857 1.333 1_554 S
N855 Zn861 2.020 . S
C856 N855 1.307 . S
C856 C860 1.370 . S
C856 H867 0.948 . S
C857 N855 1.333 1_556 S
C857 C858 1.379 . S
C857 H865 0.952 . S
C858 C857 1.379 . S
C858 C859 1.388 1_455 S
C858 H878 0.949 1_455 S
C859 C858 1.388 1_655 S
C859 C860 1.352 1_656 S
C860 C856 1.370 . S
C860 C859 1.352 1_454 S
C860 H879 0.950 . S
Zn861 N855 2.020 . S
Zn861 O864 2.025 . S
Zn861 O869 2.024 . S
Zn861 O871 2.039 1_554 S
Zn861 O873 2.034 1_455 S
O862 C846 1.251 . S
O862 Zn853 2.039 . S
C863 O868 1.246 . S
C863 O869 1.249 . S
O864 C846 1.254 . S
O864 Zn861 2.025 . S
H865 C857 0.952 . S
H866 C848 0.952 . S
H867 C856 0.948 . S
O868 Zn853 2.034 . S
O868 C863 1.246 . S
O869 Zn861 2.024 . S
O869 C863 1.249 . S
H870 C852 0.948 . S
O871 Zn861 2.039 1_556 S
O871 C875 1.251 . S
O872 Zn853 2.025 . S
O872 C875 1.254 1_554 S
O873 C854 1.246 . S
O873 Zn861 2.034 1_655 S
O874 Zn853 2.024 . S
O874 C854 1.249 1_455 S
C875 O871 1.251 . S
C875 O872 1.254 1_556 S
H876 C849 0.949 . S
H877 C851 0.950 . S
H878 C858 0.949 1_655 S
H879 C860 0.950 . S
C880 C881 1.349 . S
C880 C882 1.327 . S
C880 H905 0.950 . S
C881 C880 1.349 . S
C881 C897 1.349 . S
C882 C880 1.327 . S
C882 C901 1.429 . S
C882 H906 0.950 . S
C883 C900 1.574 . S
C883 C902 1.368 . S
C883 H907 0.949 . S
H884 C888 0.949 . S
C885 C886 1.349 . S
C885 C887 1.327 . S
C885 H908 0.950 . S
C886 C885 1.349 . S
C886 C898 1.349 . S
C887 C885 1.327 . S
C887 C903 1.429 . S
C887 H909 0.950 . S
C888 H884 0.949 . S
C888 C896 1.574 . S
C888 C904 1.368 . S
H889 C897 0.950 . S
H890 C895 0.950 . S
H891 C896 0.949 . S
H892 C898 0.950 . S
H893 C899 0.950 . S
H894 C900 0.949 . S
C895 H890 0.950 . S
C895 C897 1.327 . S
C895 C901 1.429 . S
C896 C888 1.574 . S
C896 H891 0.949 . S
C896 C902 1.368 . S
C897 C881 1.349 . S
C897 H889 0.950 . S
C897 C895 1.327 . S
C898 C886 1.349 . S
C898 H892 0.950 . S
C898 C899 1.327 . S
C899 H893 0.950 . S
C899 C898 1.327 . S
C899 C903 1.429 . S
C900 C883 1.574 . S
C900 H894 0.949 . S
C900 C904 1.368 . S
C901 C882 1.429 . S
C901 C895 1.429 . S
C901 C902 1.523 . S
C902 C883 1.368 . S
C902 C896 1.368 . S
C902 C901 1.523 . S
C903 C887 1.429 . S
C903 C899 1.429 . S
C903 C904 1.523 . S
C904 C888 1.368 . S
C904 C900 1.368 . S
C904 C903 1.523 . S
H905 C880 0.950 . S
H906 C882 0.950 . S
H907 C883 0.949 . S
H908 C885 0.950 . S
H909 C887 0.950 . S
C910 C911 1.349 . S
C910 C912 1.327 . S
C910 H935 0.950 . S
C911 C910 1.349 . S
C911 C927 1.349 . S
C912 C910 1.327 . S
C912 C931 1.429 . S
C912 H936 0.950 . S
C913 C930 1.574 . S
C913 C932 1.368 . S
C913 H937 0.949 . S
H914 C918 0.949 . S
C915 C916 1.349 . S
C915 C917 1.327 . S
C915 H938 0.950 . S
C916 C915 1.349 . S
C916 C928 1.349 . S
C917 C915 1.327 . S
C917 C933 1.429 . S
C917 H939 0.950 . S
C918 H914 0.949 . S
C918 C926 1.574 . S
C918 C934 1.368 . S
H919 C927 0.950 . S
H920 C925 0.950 . S
H921 C926 0.949 . S
H922 C928 0.950 . S
H923 C929 0.950 . S
H924 C930 0.949 . S
C925 H920 0.950 . S
C925 C927 1.327 . S
C925 C931 1.429 . S
C926 C918 1.574 . S
C926 H921 0.949 . S
C926 C932 1.368 . S
C927 C911 1.349 . S
C927 H919 0.950 . S
C927 C925 1.327 . S
C928 C916 1.349 . S
C928 H922 0.950 . S
C928 C929 1.327 . S
C929 H923 0.950 . S
C929 C928 1.327 . S
C929 C933 1.429 . S
C930 C913 1.574 . S
C930 H924 0.949 . S
C930 C934 1.368 . S
C931 C912 1.429 . S
C931 C925 1.429 . S
C931 C932 1.523 . S
C932 C913 1.368 . S
C932 C926 1.368 . S
C932 C931 1.523 . S
C933 C917 1.429 . S
C933 C929 1.429 . S
C933 C934 1.523 . S
C934 C918 1.368 . S
C934 C930 1.368 . S
C934 C933 1.523 . S
H935 C910 0.950 . S
H936 C912 0.950 . S
H937 C913 0.949 . S
H938 C915 0.950 . S
H939 C917 0.950 . S
C940 C941 1.349 . S
C940 C942 1.327 . S
C940 H965 0.950 . S
C941 C940 1.349 . S
C941 C957 1.349 . S
C942 C940 1.327 . S
C942 C961 1.429 . S
C942 H966 0.950 . S
C943 C960 1.574 . S
C943 C962 1.368 . S
C943 H967 0.949 . S
H944 C948 0.949 . S
C945 C946 1.349 . S
C945 C947 1.327 . S
C945 H968 0.950 . S
C946 C945 1.349 . S
C946 C958 1.349 . S
C947 C945 1.327 . S
C947 C963 1.429 . S
C947 H969 0.950 . S
C948 H944 0.949 . S
C948 C956 1.574 . S
C948 C964 1.368 . S
H949 C957 0.950 . S
H950 C955 0.950 . S
H951 C956 0.949 . S
H952 C958 0.950 . S
H953 C959 0.950 . S
H954 C960 0.949 . S
C955 H950 0.950 . S
C955 C957 1.327 . S
C955 C961 1.429 . S
C956 C948 1.574 . S
C956 H951 0.949 . S
C956 C962 1.368 . S
C957 C941 1.349 . S
C957 H949 0.950 . S
C957 C955 1.327 . S
C958 C946 1.349 . S
C958 H952 0.950 . S
C958 C959 1.327 . S
C959 H953 0.950 . S
C959 C958 1.327 . S
C959 C963 1.429 . S
C960 C943 1.574 . S
C960 H954 0.949 . S
C960 C964 1.368 . S
C961 C942 1.429 . S
C961 C955 1.429 . S
C961 C962 1.523 . S
C962 C943 1.368 . S
C962 C956 1.368 . S
C962 C961 1.523 . S
C963 C947 1.429 . S
C963 C959 1.429 . S
C963 C964 1.523 . S
C964 C948 1.368 . S
C964 C960 1.368 . S
C964 C963 1.523 . S
H965 C940 0.950 . S
H966 C942 0.950 . S
H967 C943 0.949 . S
H968 C945 0.950 . S
H969 C947 0.950 . S
C970 C971 1.349 . S
C970 C972 1.327 . S
C970 H995 0.950 . S
C971 C970 1.349 . S
C971 C987 1.349 . S
C972 C970 1.327 . S
C972 C991 1.429 . S
C972 H996 0.950 . S
C973 C990 1.574 . S
C973 C992 1.368 . S
C973 H997 0.949 . S
H974 C978 0.949 . S
C975 C976 1.349 . S
C975 C977 1.327 . S
C975 H998 0.950 . S
C976 C975 1.349 . S
C976 C988 1.349 . S
C977 C975 1.327 . S
C977 C993 1.429 . S
C977 H999 0.950 . S
C978 H974 0.949 . S
C978 C986 1.574 . S
C978 C994 1.368 . S
H979 C987 0.950 . S
H980 C985 0.950 . S
H981 C986 0.949 . S
H982 C988 0.950 . S
H983 C989 0.950 . S
H984 C990 0.949 . S
C985 H980 0.950 . S
C985 C987 1.327 . S
C985 C991 1.429 . S
C986 C978 1.574 . S
C986 H981 0.949 . S
C986 C992 1.368 . S
C987 C971 1.349 . S
C987 H979 0.950 . S
C987 C985 1.327 . S
C988 C976 1.349 . S
C988 H982 0.950 . S
C988 C989 1.327 . S
C989 H983 0.950 . S
C989 C988 1.327 . S
C989 C993 1.429 . S
C990 C973 1.574 . S
C990 H984 0.949 . S
C990 C994 1.368 . S
C991 C972 1.429 . S
C991 C985 1.429 . S
C991 C992 1.523 . S
C992 C973 1.368 . S
C992 C986 1.368 . S
C992 C991 1.523 . S
C993 C977 1.429 . S
C993 C989 1.429 . S
C993 C994 1.523 . S
C994 C978 1.368 . S
C994 C990 1.368 . S
C994 C993 1.523 . S
H995 C970 0.950 . S
H996 C972 0.950 . S
H997 C973 0.949 . S
H998 C975 0.950 . S
H999 C977 0.950 . S
C1000 C1001 1.349 . S
C1000 C1002 1.327 . S
C1000 H1025 0.950 . S
C1001 C1000 1.349 . S
C1001 C1017 1.349 . S
C1002 C1000 1.327 . S
C1002 C1021 1.429 . S
C1002 H1026 0.950 . S
C1003 C1020 1.574 . S
C1003 C1022 1.368 . S
C1003 H1027 0.949 . S
H1004 C1008 0.949 . S
C1005 C1006 1.349 . S
C1005 C1007 1.327 . S
C1005 H1028 0.936 1_455 S
C1006 C1005 1.349 . S
C1006 C1018 1.349 . S
C1007 C1005 1.327 . S
C1007 C1023 1.429 . S
C1007 H1029 0.970 . S
C1008 H1004 0.949 . S
C1008 C1016 1.574 . S
C1008 C1024 1.368 . S
H1009 C1017 0.950 . S
H1010 C1015 0.950 . S
H1011 C1016 0.949 . S
H1012 C1018 0.950 . S
H1013 C1019 0.950 . S
H1014 C1020 0.949 . S
C1015 H1010 0.950 . S
C1015 C1017 1.327 . S
C1015 C1021 1.429 . S
C1016 C1008 1.574 . S
C1016 H1011 0.949 . S
C1016 C1022 1.368 . S
C1017 C1001 1.349 . S
C1017 H1009 0.950 . S
C1017 C1015 1.327 . S
C1018 C1006 1.349 . S
C1018 H1012 0.950 . S
C1018 C1019 1.327 . S
C1019 H1013 0.950 . S
C1019 C1018 1.327 . S
C1019 C1023 1.429 . S
C1020 C1003 1.574 . S
C1020 H1014 0.949 . S
C1020 C1024 1.368 . S
C1021 C1002 1.429 . S
C1021 C1015 1.429 . S
C1021 C1022 1.523 . S
C1022 C1003 1.368 . S
C1022 C1016 1.368 . S
C1022 C1021 1.523 . S
C1023 C1007 1.429 . S
C1023 C1019 1.429 . S
C1023 C1024 1.523 . S
C1024 C1008 1.368 . S
C1024 C1020 1.368 . S
C1024 C1023 1.523 . S
H1025 C1000 0.950 . S
H1026 C1002 0.950 . S
H1027 C1003 0.949 . S
H1028 C1005 0.936 1_655 S
H1029 C1007 0.970 . S
C1030 C1031 1.349 . S
C1030 C1032 1.327 . S
C1030 H1055 0.950 . S
C1031 C1030 1.349 . S
C1031 C1047 1.349 . S
C1032 C1030 1.327 . S
C1032 C1051 1.429 . S
C1032 H1056 0.950 . S
C1033 C1050 1.574 . S
C1033 C1052 1.368 . S
C1033 H1057 0.949 . S
H1034 C1038 0.949 . S
C1035 C1036 1.349 . S
C1035 C1037 1.327 . S
C1035 H1058 0.950 . S
C1036 C1035 1.349 . S
C1036 C1048 1.349 . S
C1037 C1035 1.327 . S
C1037 C1053 1.429 . S
C1037 H1059 0.950 . S
C1038 H1034 0.949 . S
C1038 C1046 1.574 . S
C1038 C1054 1.368 . S
H1039 C1047 0.950 . S
H1040 C1045 0.950 . S
H1041 C1046 0.949 . S
H1042 C1048 0.950 . S
H1043 C1049 0.950 . S
H1044 C1050 0.949 . S
C1045 H1040 0.950 . S
C1045 C1047 1.327 . S
C1045 C1051 1.429 . S
C1046 C1038 1.574 . S
C1046 H1041 0.949 . S
C1046 C1052 1.368 . S
C1047 C1031 1.349 . S
C1047 H1039 0.950 . S
C1047 C1045 1.327 . S
C1048 C1036 1.349 . S
C1048 H1042 0.950 . S
C1048 C1049 1.327 . S
C1049 H1043 0.950 . S
C1049 C1048 1.327 . S
C1049 C1053 1.429 . S
C1050 C1033 1.574 . S
C1050 H1044 0.949 . S
C1050 C1054 1.368 . S
C1051 C1032 1.429 . S
C1051 C1045 1.429 . S
C1051 C1052 1.523 . S
C1052 C1033 1.368 . S
C1052 C1046 1.368 . S
C1052 C1051 1.523 . S
C1053 C1037 1.429 . S
C1053 C1049 1.429 . S
C1053 C1054 1.523 . S
C1054 C1038 1.368 . S
C1054 C1050 1.368 . S
C1054 C1053 1.523 . S
H1055 C1030 0.950 . S
H1056 C1032 0.950 . S
H1057 C1033 0.949 . S
H1058 C1035 0.950 . S
H1059 C1037 0.950 . S
C1060 C1061 1.349 . S
C1060 C1062 1.327 . S
C1060 H1085 0.950 . S
C1061 C1060 1.349 . S
C1061 C1077 1.349 . S
C1062 C1060 1.327 . S
C1062 C1081 1.429 . S
C1062 H1086 0.950 . S
C1063 C1080 1.574 . S
C1063 C1082 1.368 . S
C1063 H1087 0.949 . S
H1064 C1068 0.949 . S
C1065 C1066 1.362 . S
C1065 C1067 1.327 1_554 S
C1065 H1088 0.950 . S
C1066 C1065 1.362 . S
C1066 C1078 1.320 1_554 S
C1067 C1065 1.327 1_556 S
C1067 C1083 1.429 . S
C1067 H1089 0.950 1_556 S
C1068 H1064 0.949 . S
C1068 C1076 1.574 . S
C1068 C1084 1.368 . S
H1069 C1077 0.950 . S
H1070 C1075 0.950 . S
H1071 C1076 0.949 . S
H1072 C1078 0.950 . S
H1073 C1079 0.950 . S
H1074 C1080 0.949 . S
C1075 H1070 0.950 . S
C1075 C1077 1.327 . S
C1075 C1081 1.429 . S
C1076 C1068 1.574 . S
C1076 H1071 0.949 . S
C1076 C1082 1.368 . S
C1077 C1061 1.349 . S
C1077 H1069 0.950 . S
C1077 C1075 1.327 . S
C1078 C1066 1.320 1_556 S
C1078 H1072 0.950 . S
C1078 C1079 1.327 . S
C1079 H1073 0.950 . S
C1079 C1078 1.327 . S
C1079 C1083 1.429 . S
C1080 C1063 1.574 . S
C1080 H1074 0.949 . S
C1080 C1084 1.368 . S
C1081 C1062 1.429 . S
C1081 C1075 1.429 . S
C1081 C1082 1.523 . S
C1082 C1063 1.368 . S
C1082 C1076 1.368 . S
C1082 C1081 1.523 . S
C1083 C1067 1.429 . S
C1083 C1079 1.429 . S
C1083 C1084 1.523 . S
C1084 C1068 1.368 . S
C1084 C1080 1.368 . S
C1084 C1083 1.523 . S
H1085 C1060 0.950 . S
H1086 C1062 0.950 . S
H1087 C1063 0.949 . S
H1088 C1065 0.950 . S
H1089 C1067 0.950 1_554 S
C1090 C1091 1.349 . S
C1090 C1092 1.327 . S
C1090 H1115 0.950 . S
C1091 C1090 1.349 . S
C1091 C1107 1.349 . S
C1092 C1090 1.327 . S
C1092 C1111 1.429 . S
C1092 H1116 0.950 . S
C1093 C1110 1.574 . S
C1093 C1112 1.368 . S
C1093 H1117 0.949 . S
H1094 C1098 0.949 . S
C1095 C1096 1.349 . S
C1095 C1097 1.327 . S
C1095 H1118 0.950 . S
C1096 C1095 1.349 . S
C1096 C1108 1.349 . S
C1097 C1095 1.327 . S
C1097 C1113 1.429 . S
C1097 H1119 0.950 . S
C1098 H1094 0.949 . S
C1098 C1106 1.574 . S
C1098 C1114 1.368 . S
H1099 C1107 0.950 . S
H1100 C1105 0.950 . S
H1101 C1106 0.949 . S
H1102 C1108 0.950 . S
H1103 C1109 0.950 . S
H1104 C1110 0.949 . S
C1105 H1100 0.950 . S
C1105 C1107 1.327 . S
C1105 C1111 1.429 . S
C1106 C1098 1.574 . S
C1106 H1101 0.949 . S
C1106 C1112 1.368 . S
C1107 C1091 1.349 . S
C1107 H1099 0.950 . S
C1107 C1105 1.327 . S
C1108 C1096 1.349 . S
C1108 H1102 0.950 . S
C1108 C1109 1.327 . S
C1109 H1103 0.950 . S
C1109 C1108 1.327 . S
C1109 C1113 1.429 . S
C1110 C1093 1.574 . S
C1110 H1104 0.949 . S
C1110 C1114 1.368 . S
C1111 C1092 1.429 . S
C1111 C1105 1.429 . S
C1111 C1112 1.523 . S
C1112 C1093 1.368 . S
C1112 C1106 1.368 . S
C1112 C1111 1.523 . S
C1113 C1097 1.429 . S
C1113 C1109 1.429 . S
C1113 C1114 1.523 . S
C1114 C1098 1.368 . S
C1114 C1110 1.368 . S
C1114 C1113 1.523 . S
H1115 C1090 0.950 . S
H1116 C1092 0.950 . S
H1117 C1093 0.949 . S
H1118 C1095 0.950 . S
H1119 C1097 0.950 . S
C1120 C1121 1.349 1_565 S
C1120 C1122 1.327 . S
C1120 H1145 0.950 . S
C1121 C1120 1.349 1_545 S
C1121 C1137 1.349 . S
C1122 C1120 1.327 . S
C1122 C1141 1.429 1_565 S
C1122 H1146 0.950 . S
C1123 C1140 1.574 . S
C1123 C1142 1.368 . S
C1123 H1147 0.949 . S
H1124 C1128 0.949 . S
C1125 C1126 1.306 1_545 S
C1125 C1127 1.327 . S
C1125 H1148 0.950 . S
C1126 C1125 1.306 1_565 S
C1126 C1138 1.389 . S
C1127 C1125 1.327 . S
C1127 C1143 1.429 . S
C1127 H1149 0.950 . S
C1128 H1124 0.949 . S
C1128 C1136 1.574 . S
C1128 C1144 1.368 1_565 S
H1129 C1137 0.950 . S
H1130 C1135 0.950 . S
H1131 C1136 0.949 . S
H1132 C1138 0.950 . S
H1133 C1139 0.950 . S
H1134 C1140 0.949 . S
C1135 H1130 0.950 . S
C1135 C1137 1.327 . S
C1135 C1141 1.429 . S
C1136 C1128 1.574 . S
C1136 H1131 0.949 . S
C1136 C1142 1.368 1_565 S
C1137 C1121 1.349 . S
C1137 H1129 0.950 . S
C1137 C1135 1.327 . S
C1138 C1126 1.389 . S
C1138 H1132 0.950 . S
C1138 C1139 1.327 . S
C1139 H1133 0.950 . S
C1139 C1138 1.327 . S
C1139 C1143 1.429 1_565 S
C1140 C1123 1.574 . S
C1140 H1134 0.949 . S
C1140 C1144 1.368 . S
C1141 C1122 1.429 1_545 S
C1141 C1135 1.429 . S
C1141 C1142 1.523 . S
C1142 C1123 1.368 . S
C1142 C1136 1.368 1_545 S
C1142 C1141 1.523 . S
C1143 C1127 1.429 . S
C1143 C1139 1.429 1_545 S
C1143 C1144 1.523 . S
C1144 C1128 1.368 1_545 S
C1144 C1140 1.368 . S
C1144 C1143 1.523 . S
H1145 C1120 0.950 . S
H1146 C1122 0.950 . S
H1147 C1123 0.949 . S
H1148 C1125 0.950 . S
H1149 C1127 0.950 . S
C1150 C1151 1.349 . S
C1150 C1152 1.327 . S
C1150 H1175 0.950 . S
C1151 C1150 1.349 . S
C1151 C1167 1.349 . S
C1152 C1150 1.327 . S
C1152 C1171 1.429 . S
C1152 H1176 0.950 . S
C1153 C1170 1.574 . S
C1153 C1172 1.368 . S
C1153 H1177 0.949 . S
H1154 C1158 0.949 . S
C1155 C1156 1.349 . S
C1155 C1157 1.327 . S
C1155 H1178 0.950 . S
C1156 C1155 1.349 . S
C1156 C1168 1.349 . S
C1157 C1155 1.327 . S
C1157 C1173 1.429 . S
C1157 H1179 0.950 . S
C1158 H1154 0.949 . S
C1158 C1166 1.574 . S
C1158 C1174 1.368 . S
H1159 C1167 0.950 . S
H1160 C1165 0.950 . S
H1161 C1166 0.949 . S
H1162 C1168 0.950 . S
H1163 C1169 0.950 . S
H1164 C1170 0.949 . S
C1165 H1160 0.950 . S
C1165 C1167 1.327 . S
C1165 C1171 1.429 . S
C1166 C1158 1.574 . S
C1166 H1161 0.949 . S
C1166 C1172 1.368 . S
C1167 C1151 1.349 . S
C1167 H1159 0.950 . S
C1167 C1165 1.327 . S
C1168 C1156 1.349 . S
C1168 H1162 0.950 . S
C1168 C1169 1.327 . S
C1169 H1163 0.950 . S
C1169 C1168 1.327 . S
C1169 C1173 1.429 . S
C1170 C1153 1.574 . S
C1170 H1164 0.949 . S
C1170 C1174 1.368 . S
C1171 C1152 1.429 . S
C1171 C1165 1.429 . S
C1171 C1172 1.523 . S
C1172 C1153 1.368 . S
C1172 C1166 1.368 . S
C1172 C1171 1.523 . S
C1173 C1157 1.429 . S
C1173 C1169 1.429 . S
C1173 C1174 1.523 . S
C1174 C1158 1.368 . S
C1174 C1170 1.368 . S
C1174 C1173 1.523 . S
H1175 C1150 0.950 . S
H1176 C1152 0.950 . S
H1177 C1153 0.949 . S
H1178 C1155 0.950 . S
H1179 C1157 0.950 . S
C1180 C1181 1.349 1_565 S
C1180 C1182 1.327 . S
C1180 H1205 0.950 . S
C1181 C1180 1.349 1_545 S
C1181 C1197 1.349 . S
C1182 C1180 1.327 . S
C1182 C1201 1.429 1_565 S
C1182 H1206 0.950 . S
C1183 C1200 1.574 . S
C1183 C1202 1.368 . S
C1183 H1207 0.949 . S
H1184 C1188 0.957 . S
C1185 C1186 1.349 . S
C1185 C1187 1.327 . S
C1185 H1208 0.950 . S
C1186 C1185 1.349 . S
C1186 C1198 1.349 . S
C1187 C1185 1.327 . S
C1187 C1203 1.429 . S
C1187 H1209 0.950 . S
C1188 H1184 0.957 . S
C1188 C1196 1.575 . S
C1188 C1204 1.359 1_565 S
H1189 C1197 0.950 . S
H1190 C1195 0.950 . S
H1191 C1196 0.949 . S
H1192 C1198 0.950 1_565 S
H1193 C1199 0.950 1_565 S
H1194 C1200 0.949 . S
C1195 H1190 0.950 . S
C1195 C1197 1.327 . S
C1195 C1201 1.429 . S
C1196 C1188 1.575 . S
C1196 H1191 0.949 . S
C1196 C1202 1.368 1_565 S
C1197 C1181 1.349 . S
C1197 H1189 0.950 . S
C1197 C1195 1.327 . S
C1198 C1186 1.349 . S
C1198 H1192 0.950 1_545 S
C1198 C1199 1.327 . S
C1199 H1193 0.950 1_545 S
C1199 C1198 1.327 . S
C1199 C1203 1.429 . S
C1200 C1183 1.574 . S
C1200 H1194 0.949 . S
C1200 C1204 1.368 . S
C1201 C1182 1.429 1_545 S
C1201 C1195 1.429 . S
C1201 C1202 1.523 . S
C1202 C1183 1.368 . S
C1202 C1196 1.368 1_545 S
C1202 C1201 1.523 . S
C1203 C1187 1.429 . S
C1203 C1199 1.429 . S
C1203 C1204 1.523 . S
C1204 C1188 1.359 1_545 S
C1204 C1200 1.368 . S
C1204 C1203 1.523 . S
H1205 C1180 0.950 . S
H1206 C1182 0.950 . S
H1207 C1183 0.949 . S
H1208 C1185 0.950 . S
H1209 C1187 0.950 . S
C1210 C1211 1.349 . S
C1210 C1212 1.327 . S
C1210 H1235 0.950 . S
C1211 C1210 1.349 . S
C1211 C1227 1.349 . S
C1212 C1210 1.327 . S
C1212 C1231 1.429 . S
C1212 H1236 0.950 . S
C1213 C1230 1.574 . S
C1213 C1232 1.368 . S
C1213 H1237 0.949 . S
H1214 C1218 0.949 . S
C1215 C1216 1.349 . S
C1215 C1217 1.327 . S
C1215 H1238 0.950 . S
C1216 C1215 1.349 . S
C1216 C1228 1.349 . S
C1217 C1215 1.327 . S
C1217 C1233 1.429 . S
C1217 H1239 0.950 . S
C1218 H1214 0.949 . S
C1218 C1226 1.574 . S
C1218 C1234 1.368 . S
H1219 C1227 0.950 . S
H1220 C1225 0.950 . S
H1221 C1226 0.949 . S
H1222 C1228 0.950 . S
H1223 C1229 0.950 . S
H1224 C1230 0.949 . S
C1225 H1220 0.950 . S
C1225 C1227 1.327 . S
C1225 C1231 1.429 . S
C1226 C1218 1.574 . S
C1226 H1221 0.949 . S
C1226 C1232 1.368 . S
C1227 C1211 1.349 . S
C1227 H1219 0.950 . S
C1227 C1225 1.327 . S
C1228 C1216 1.349 . S
C1228 H1222 0.950 . S
C1228 C1229 1.327 . S
C1229 H1223 0.950 . S
C1229 C1228 1.327 . S
C1229 C1233 1.429 . S
C1230 C1213 1.574 . S
C1230 H1224 0.949 . S
C1230 C1234 1.368 . S
C1231 C1212 1.429 . S
C1231 C1225 1.429 . S
C1231 C1232 1.523 . S
C1232 C1213 1.368 . S
C1232 C1226 1.368 . S
C1232 C1231 1.523 . S
C1233 C1217 1.429 . S
C1233 C1229 1.429 . S
C1233 C1234 1.523 . S
C1234 C1218 1.368 . S
C1234 C1230 1.368 . S
C1234 C1233 1.523 . S
H1235 C1210 0.950 . S
H1236 C1212 0.950 . S
H1237 C1213 0.949 . S
H1238 C1215 0.950 . S
H1239 C1217 0.950 . S
C1240 C1241 1.378 . S
C1240 C1242 1.331 . S
C1240 H1265 0.917 1_545 S
C1241 C1240 1.378 . S
C1241 C1257 1.349 . S
C1242 C1240 1.331 . S
C1242 C1261 1.429 . S
C1242 H1266 0.950 1_545 S
C1243 C1260 1.574 . S
C1243 C1262 1.368 . S
C1243 H1267 0.949 . S
H1244 C1248 0.949 1_565 S
C1245 C1246 1.349 . S
C1245 C1247 1.327 . S
C1245 H1268 0.950 . S
C1246 C1245 1.349 . S
C1246 C1258 1.349 . S
C1247 C1245 1.327 . S
C1247 C1263 1.429 . S
C1247 H1269 0.950 . S
C1248 H1244 0.949 1_545 S
C1248 C1256 1.574 . S
C1248 C1264 1.368 . S
H1249 C1257 0.950 . S
H1250 C1255 0.950 . S
H1251 C1256 0.949 1_565 S
H1252 C1258 0.950 . S
H1253 C1259 0.950 . S
H1254 C1260 0.949 . S
C1255 H1250 0.950 . S
C1255 C1257 1.327 . S
C1255 C1261 1.429 . S
C1256 C1248 1.574 . S
C1256 H1251 0.949 1_545 S
C1256 C1262 1.368 . S
C1257 C1241 1.349 . S
C1257 H1249 0.950 . S
C1257 C1255 1.327 . S
C1258 C1246 1.349 . S
C1258 H1252 0.950 . S
C1258 C1259 1.327 . S
C1259 H1253 0.950 . S
C1259 C1258 1.327 . S
C1259 C1263 1.429 . S
C1260 C1243 1.574 . S
C1260 H1254 0.949 . S
C1260 C1264 1.368 . S
C1261 C1242 1.429 . S
C1261 C1255 1.429 . S
C1261 C1262 1.523 . S
C1262 C1243 1.368 . S
C1262 C1256 1.368 . S
C1262 C1261 1.523 . S
C1263 C1247 1.429 . S
C1263 C1259 1.429 . S
C1263 C1264 1.523 . S
C1264 C1248 1.368 . S
C1264 C1260 1.368 . S
C1264 C1263 1.523 . S
H1265 C1240 0.917 1_565 S
H1266 C1242 0.950 1_565 S
H1267 C1243 0.949 . S
H1268 C1245 0.950 . S
H1269 C1247 0.950 . S
C1270 C1271 1.349 . S
C1270 C1272 1.327 . S
C1270 H1295 0.950 . S
C1271 C1270 1.349 . S
C1271 C1287 1.349 . S
C1272 C1270 1.327 . S
C1272 C1291 1.429 . S
C1272 H1296 0.950 . S
C1273 C1290 1.574 . S
C1273 C1292 1.368 . S
C1273 H1297 0.949 . S
H1274 C1278 0.949 . S
C1275 C1276 1.349 . S
C1275 C1277 1.327 . S
C1275 H1298 0.950 . S
C1276 C1275 1.349 . S
C1276 C1288 1.349 . S
C1277 C1275 1.327 . S
C1277 C1293 1.429 . S
C1277 H1299 0.950 . S
C1278 H1274 0.949 . S
C1278 C1286 1.574 . S
C1278 C1294 1.368 . S
H1279 C1287 0.950 . S
H1280 C1285 0.950 . S
H1281 C1286 0.949 . S
H1282 C1288 0.950 . S
H1283 C1289 0.950 . S
H1284 C1290 0.949 . S
C1285 H1280 0.950 . S
C1285 C1287 1.327 . S
C1285 C1291 1.429 . S
C1286 C1278 1.574 . S
C1286 H1281 0.949 . S
C1286 C1292 1.368 . S
C1287 C1271 1.349 . S
C1287 H1279 0.950 . S
C1287 C1285 1.327 . S
C1288 C1276 1.349 . S
C1288 H1282 0.950 . S
C1288 C1289 1.327 . S
C1289 H1283 0.950 . S
C1289 C1288 1.327 . S
C1289 C1293 1.429 . S
C1290 C1273 1.574 . S
C1290 H1284 0.949 . S
C1290 C1294 1.368 . S
C1291 C1272 1.429 . S
C1291 C1285 1.429 . S
C1291 C1292 1.523 . S
C1292 C1273 1.368 . S
C1292 C1286 1.368 . S
C1292 C1291 1.523 . S
C1293 C1277 1.429 . S
C1293 C1289 1.429 . S
C1293 C1294 1.523 . S
C1294 C1278 1.368 . S
C1294 C1290 1.368 . S
C1294 C1293 1.523 . S
H1295 C1270 0.950 . S
H1296 C1272 0.950 . S
H1297 C1273 0.949 . S
H1298 C1275 0.950 . S
H1299 C1277 0.950 . S
C1300 C1301 1.349 . S
C1300 C1302 1.327 . S
C1300 H1325 0.950 . S
C1301 C1300 1.349 . S
C1301 C1317 1.349 1_545 S
C1302 C1300 1.327 . S
C1302 C1321 1.481 . S
C1302 H1326 0.950 . S
C1303 C1320 1.574 . S
C1303 C1322 1.368 . S
C1303 H1327 0.949 . S
H1304 C1308 0.949 . S
C1305 C1306 1.349 . S
C1305 C1307 1.327 . S
C1305 H1328 0.950 . S
C1306 C1305 1.349 . S
C1306 C1318 1.349 1_565 S
C1307 C1305 1.327 . S
C1307 C1323 1.429 . S
C1307 H1329 0.950 . S
C1308 H1304 0.949 . S
C1308 C1316 1.574 . S
C1308 C1324 1.368 1_545 S
H1309 C1317 0.950 . S
H1310 C1315 0.950 . S
H1311 C1316 0.949 . S
H1312 C1318 0.950 . S
H1313 C1319 0.950 . S
H1314 C1320 0.949 . S
C1315 H1310 0.950 . S
C1315 C1317 1.327 . S
C1315 C1321 1.387 1_565 S
C1316 C1308 1.574 . S
C1316 H1311 0.949 . S
C1316 C1322 1.368 1_545 S
C1317 C1301 1.349 1_565 S
C1317 H1309 0.950 . S
C1317 C1315 1.327 . S
C1318 C1306 1.349 1_545 S
C1318 H1312 0.950 . S
C1318 C1319 1.327 . S
C1319 H1313 0.950 . S
C1319 C1318 1.327 . S
C1319 C1323 1.429 1_545 S
C1320 C1303 1.574 . S
C1320 H1314 0.949 . S
C1320 C1324 1.368 . S
C1321 C1302 1.481 . S
C1321 C1315 1.387 1_545 S
C1321 C1322 1.515 1_545 S
C1322 C1303 1.368 . S
C1322 C1316 1.368 1_565 S
C1322 C1321 1.515 1_565 S
C1323 C1307 1.429 . S
C1323 C1319 1.429 1_565 S
C1323 C1324 1.523 . S
C1324 C1308 1.368 1_565 S
C1324 C1320 1.368 . S
C1324 C1323 1.523 . S
H1325 C1300 0.950 . S
H1326 C1302 0.950 . S
H1327 C1303 0.949 . S
H1328 C1305 0.950 . S
H1329 C1307 0.950 . S
C1330 C1331 1.349 . S
C1330 C1332 1.327 . S
C1330 H1355 0.950 . S
C1331 C1330 1.349 . S
C1331 C1347 1.349 . S
C1332 C1330 1.327 . S
C1332 C1351 1.429 . S
C1332 H1356 0.950 . S
C1333 C1350 1.574 . S
C1333 C1352 1.368 . S
C1333 H1357 0.949 . S
H1334 C1338 0.949 . S
C1335 C1336 1.349 . S
C1335 C1337 1.327 . S
C1335 H1358 0.950 . S
C1336 C1335 1.349 . S
C1336 C1348 1.349 . S
C1337 C1335 1.327 . S
C1337 C1353 1.429 . S
C1337 H1359 0.950 . S
C1338 H1334 0.949 . S
C1338 C1346 1.574 . S
C1338 C1354 1.368 . S
H1339 C1347 0.950 . S
H1340 C1345 0.950 . S
H1341 C1346 0.949 . S
H1342 C1348 0.950 . S
H1343 C1349 0.950 . S
H1344 C1350 0.949 . S
C1345 H1340 0.950 . S
C1345 C1347 1.327 . S
C1345 C1351 1.429 . S
C1346 C1338 1.574 . S
C1346 H1341 0.949 . S
C1346 C1352 1.368 . S
C1347 C1331 1.349 . S
C1347 H1339 0.950 . S
C1347 C1345 1.327 . S
C1348 C1336 1.349 . S
C1348 H1342 0.950 . S
C1348 C1349 1.327 . S
C1349 H1343 0.950 . S
C1349 C1348 1.327 . S
C1349 C1353 1.429 . S
C1350 C1333 1.574 . S
C1350 H1344 0.949 . S
C1350 C1354 1.368 . S
C1351 C1332 1.429 . S
C1351 C1345 1.429 . S
C1351 C1352 1.523 . S
C1352 C1333 1.368 . S
C1352 C1346 1.368 . S
C1352 C1351 1.523 . S
C1353 C1337 1.429 . S
C1353 C1349 1.429 . S
C1353 C1354 1.523 . S
C1354 C1338 1.368 . S
C1354 C1350 1.368 . S
C1354 C1353 1.523 . S
H1355 C1330 0.950 . S
H1356 C1332 0.950 . S
H1357 C1333 0.949 . S
H1358 C1335 0.950 . S
H1359 C1337 0.950 . S
C1360 C1361 1.349 . S
C1360 C1362 1.327 . S
C1360 H1385 0.950 1_554 S
C1361 C1360 1.349 . S
C1361 C1377 1.349 . S
C1362 C1360 1.327 . S
C1362 C1381 1.429 . S
C1362 H1386 0.950 1_554 S
C1363 C1380 1.574 . S
C1363 C1382 1.368 . S
C1363 H1387 0.949 . S
H1364 C1368 0.949 . S
C1365 C1366 1.324 1_554 S
C1365 C1367 1.327 . S
C1365 H1388 0.950 . S
C1366 C1365 1.324 1_556 S
C1366 C1378 1.371 . S
C1367 C1365 1.327 . S
C1367 C1383 1.429 . S
C1367 H1389 0.950 . S
C1368 H1364 0.949 . S
C1368 C1376 1.574 . S
C1368 C1384 1.368 1_556 S
H1369 C1377 0.950 . S
H1370 C1375 0.950 . S
H1371 C1376 0.949 . S
H1372 C1378 0.950 . S
H1373 C1379 0.950 . S
H1374 C1380 0.949 . S
C1375 H1370 0.950 . S
C1375 C1377 1.327 . S
C1375 C1381 1.429 . S
C1376 C1368 1.574 . S
C1376 H1371 0.949 . S
C1376 C1382 1.368 1_556 S
C1377 C1361 1.349 . S
C1377 H1369 0.950 . S
C1377 C1375 1.327 . S
C1378 C1366 1.371 . S
C1378 H1372 0.950 . S
C1378 C1379 1.327 . S
C1379 H1373 0.950 . S
C1379 C1378 1.327 . S
C1379 C1383 1.429 1_556 S
C1380 C1363 1.574 . S
C1380 H1374 0.949 . S
C1380 C1384 1.368 . S
C1381 C1362 1.429 . S
C1381 C1375 1.429 . S
C1381 C1382 1.523 . S
C1382 C1363 1.368 . S
C1382 C1376 1.368 1_554 S
C1382 C1381 1.523 . S
C1383 C1367 1.429 . S
C1383 C1379 1.429 1_554 S
C1383 C1384 1.523 . S
C1384 C1368 1.368 1_554 S
C1384 C1380 1.368 . S
C1384 C1383 1.523 . S
H1385 C1360 0.950 1_556 S
H1386 C1362 0.950 1_556 S
H1387 C1363 0.949 . S
H1388 C1365 0.950 . S
H1389 C1367 0.950 . S
C1390 C1391 1.349 . S
C1390 C1392 1.327 . S
C1390 H1415 0.950 . S
C1391 C1390 1.349 . S
C1391 C1407 1.349 . S
C1392 C1390 1.327 . S
C1392 C1411 1.429 . S
C1392 H1416 0.950 . S
C1393 C1410 1.574 . S
C1393 C1412 1.368 . S
C1393 H1417 0.949 . S
H1394 C1398 0.949 . S
C1395 C1396 1.349 . S
C1395 C1397 1.327 . S
C1395 H1418 0.950 . S
C1396 C1395 1.349 . S
C1396 C1408 1.349 . S
C1397 C1395 1.327 . S
C1397 C1413 1.429 . S
C1397 H1419 0.950 . S
C1398 H1394 0.949 . S
C1398 C1406 1.574 . S
C1398 C1414 1.368 . S
H1399 C1407 0.950 . S
H1400 C1405 0.950 . S
H1401 C1406 0.949 . S
H1402 C1408 0.950 . S
H1403 C1409 0.950 . S
H1404 C1410 0.949 . S
C1405 H1400 0.950 . S
C1405 C1407 1.327 . S
C1405 C1411 1.429 . S
C1406 C1398 1.574 . S
C1406 H1401 0.949 . S
C1406 C1412 1.368 . S
C1407 C1391 1.349 . S
C1407 H1399 0.950 . S
C1407 C1405 1.327 . S
C1408 C1396 1.349 . S
C1408 H1402 0.950 . S
C1408 C1409 1.327 . S
C1409 H1403 0.950 . S
C1409 C1408 1.327 . S
C1409 C1413 1.429 . S
C1410 C1393 1.574 . S
C1410 H1404 0.949 . S
C1410 C1414 1.368 . S
C1411 C1392 1.429 . S
C1411 C1405 1.429 . S
C1411 C1412 1.523 . S
C1412 C1393 1.368 . S
C1412 C1406 1.368 . S
C1412 C1411 1.523 . S
C1413 C1397 1.429 . S
C1413 C1409 1.429 . S
C1413 C1414 1.523 . S
C1414 C1398 1.368 . S
C1414 C1410 1.368 . S
C1414 C1413 1.523 . S
H1415 C1390 0.950 . S
H1416 C1392 0.950 . S
H1417 C1393 0.949 . S
H1418 C1395 0.950 . S
H1419 C1397 0.950 . S
C1420 C1421 1.349 . S
C1420 C1422 1.327 . S
C1420 H1445 0.950 . S
C1421 C1420 1.349 . S
C1421 C1437 1.349 . S
C1422 C1420 1.327 . S
C1422 C1441 1.429 . S
C1422 H1446 0.950 . S
C1423 C1440 1.574 . S
C1423 C1442 1.368 . S
C1423 H1447 0.949 . S
H1424 C1428 0.949 . S
C1425 C1426 1.349 . S
C1425 C1427 1.327 . S
C1425 H1448 0.950 . S
C1426 C1425 1.349 . S
C1426 C1438 1.349 . S
C1427 C1425 1.327 . S
C1427 C1443 1.429 . S
C1427 H1449 0.950 . S
C1428 H1424 0.949 . S
C1428 C1436 1.574 . S
C1428 C1444 1.368 . S
H1429 C1437 0.950 . S
H1430 C1435 0.950 . S
H1431 C1436 0.949 . S
H1432 C1438 0.950 . S
H1433 C1439 0.950 . S
H1434 C1440 0.949 . S
C1435 H1430 0.950 . S
C1435 C1437 1.327 . S
C1435 C1441 1.429 . S
C1436 C1428 1.574 . S
C1436 H1431 0.949 . S
C1436 C1442 1.368 . S
C1437 C1421 1.349 . S
C1437 H1429 0.950 . S
C1437 C1435 1.327 . S
C1438 C1426 1.349 . S
C1438 H1432 0.950 . S
C1438 C1439 1.327 . S
C1439 H1433 0.950 . S
C1439 C1438 1.327 . S
C1439 C1443 1.429 . S
C1440 C1423 1.574 . S
C1440 H1434 0.949 . S
C1440 C1444 1.368 . S
C1441 C1422 1.429 . S
C1441 C1435 1.429 . S
C1441 C1442 1.523 . S
C1442 C1423 1.368 . S
C1442 C1436 1.368 . S
C1442 C1441 1.523 . S
C1443 C1427 1.429 . S
C1443 C1439 1.429 . S
C1443 C1444 1.523 . S
C1444 C1428 1.368 . S
C1444 C1440 1.368 . S
C1444 C1443 1.523 . S
H1445 C1420 0.950 . S
H1446 C1422 0.950 . S
H1447 C1423 0.949 . S
H1448 C1425 0.950 . S
H1449 C1427 0.950 . S
C1450 C1451 1.349 . S
C1450 C1452 1.327 . S
C1450 H1475 0.950 . S
C1451 C1450 1.349 . S
C1451 C1467 1.349 . S
C1452 C1450 1.327 . S
C1452 C1471 1.429 . S
C1452 H1476 0.950 . S
C1453 C1470 1.574 . S
C1453 C1472 1.368 . S
C1453 H1477 0.949 . S
H1454 C1458 0.949 . S
C1455 C1456 1.349 . S
C1455 C1457 1.327 . S
C1455 H1478 0.950 . S
C1456 C1455 1.349 . S
C1456 C1468 1.349 . S
C1457 C1455 1.327 . S
C1457 C1473 1.429 . S
C1457 H1479 0.950 . S
C1458 H1454 0.949 . S
C1458 C1466 1.574 . S
C1458 C1474 1.368 . S
H1459 C1467 0.950 . S
H1460 C1465 0.950 . S
H1461 C1466 0.949 . S
H1462 C1468 0.950 . S
H1463 C1469 0.950 . S
H1464 C1470 0.949 . S
C1465 H1460 0.950 . S
C1465 C1467 1.327 . S
C1465 C1471 1.429 . S
C1466 C1458 1.574 . S
C1466 H1461 0.949 . S
C1466 C1472 1.368 . S
C1467 C1451 1.349 . S
C1467 H1459 0.950 . S
C1467 C1465 1.327 . S
C1468 C1456 1.349 . S
C1468 H1462 0.950 . S
C1468 C1469 1.327 . S
C1469 H1463 0.950 . S
C1469 C1468 1.327 . S
C1469 C1473 1.429 . S
C1470 C1453 1.574 . S
C1470 H1464 0.949 . S
C1470 C1474 1.368 . S
C1471 C1452 1.429 . S
C1471 C1465 1.429 . S
C1471 C1472 1.523 . S
C1472 C1453 1.368 . S
C1472 C1466 1.368 . S
C1472 C1471 1.523 . S
C1473 C1457 1.429 . S
C1473 C1469 1.429 . S
C1473 C1474 1.523 . S
C1474 C1458 1.368 . S
C1474 C1470 1.368 . S
C1474 C1473 1.523 . S
H1475 C1450 0.950 . S
H1476 C1452 0.950 . S
H1477 C1453 0.949 . S
H1478 C1455 0.950 . S
H1479 C1457 0.950 . S
C1480 C1481 1.349 . S
C1480 C1482 1.327 . S
C1480 H1505 0.950 . S
C1481 C1480 1.349 . S
C1481 C1497 1.349 . S
C1482 C1480 1.327 . S
C1482 C1501 1.429 . S
C1482 H1506 0.950 . S
C1483 C1500 1.574 . S
C1483 C1502 1.368 . S
C1483 H1507 0.949 . S
H1484 C1488 0.949 . S
C1485 C1486 1.349 . S
C1485 C1487 1.327 . S
C1485 H1508 0.950 . S
C1486 C1485 1.349 . S
C1486 C1498 1.349 . S
C1487 C1485 1.327 . S
C1487 C1503 1.429 . S
C1487 H1509 0.950 . S
C1488 H1484 0.949 . S
C1488 C1496 1.574 . S
C1488 C1504 1.368 . S
H1489 C1497 0.950 . S
H1490 C1495 0.950 . S
H1491 C1496 0.949 . S
H1492 C1498 0.950 . S
H1493 C1499 0.950 . S
H1494 C1500 0.949 . S
C1495 H1490 0.950 . S
C1495 C1497 1.327 . S
C1495 C1501 1.429 . S
C1496 C1488 1.574 . S
C1496 H1491 0.949 . S
C1496 C1502 1.368 . S
C1497 C1481 1.349 . S
C1497 H1489 0.950 . S
C1497 C1495 1.327 . S
C1498 C1486 1.349 . S
C1498 H1492 0.950 . S
C1498 C1499 1.327 . S
C1499 H1493 0.950 . S
C1499 C1498 1.327 . S
C1499 C1503 1.429 . S
C1500 C1483 1.574 . S
C1500 H1494 0.949 . S
C1500 C1504 1.368 . S
C1501 C1482 1.429 . S
C1501 C1495 1.429 . S
C1501 C1502 1.523 . S
C1502 C1483 1.368 . S
C1502 C1496 1.368 . S
C1502 C1501 1.523 . S
C1503 C1487 1.429 . S
C1503 C1499 1.429 . S
C1503 C1504 1.523 . S
C1504 C1488 1.368 . S
C1504 C1500 1.368 . S
C1504 C1503 1.523 . S
H1505 C1480 0.950 . S
H1506 C1482 0.950 . S
H1507 C1483 0.949 . S
H1508 C1485 0.950 . S
H1509 C1487 0.950 . S
C1510 C1511 1.349 . S
C1510 C1512 1.327 . S
C1510 H1535 0.950 . S
C1511 C1510 1.349 . S
C1511 C1527 1.349 . S
C1512 C1510 1.327 . S
C1512 C1531 1.429 . S
C1512 H1536 0.950 . S
C1513 C1530 1.574 . S
C1513 C1532 1.368 . S
C1513 H1537 0.949 . S
H1514 C1518 0.949 . S
C1515 C1516 1.349 . S
C1515 C1517 1.327 . S
C1515 H1538 0.950 . S
C1516 C1515 1.349 . S
C1516 C1528 1.349 . S
C1517 C1515 1.327 . S
C1517 C1533 1.429 . S
C1517 H1539 0.950 . S
C1518 H1514 0.949 . S
C1518 C1526 1.574 . S
C1518 C1534 1.368 . S
H1519 C1527 0.950 . S
H1520 C1525 0.950 . S
H1521 C1526 0.949 . S
H1522 C1528 0.950 . S
H1523 C1529 0.950 . S
H1524 C1530 0.949 . S
C1525 H1520 0.950 . S
C1525 C1527 1.327 . S
C1525 C1531 1.429 . S
C1526 C1518 1.574 . S
C1526 H1521 0.949 . S
C1526 C1532 1.368 . S
C1527 C1511 1.349 . S
C1527 H1519 0.950 . S
C1527 C1525 1.327 . S
C1528 C1516 1.349 . S
C1528 H1522 0.950 . S
C1528 C1529 1.327 . S
C1529 H1523 0.950 . S
C1529 C1528 1.327 . S
C1529 C1533 1.429 . S
C1530 C1513 1.574 . S
C1530 H1524 0.949 . S
C1530 C1534 1.368 . S
C1531 C1512 1.429 . S
C1531 C1525 1.429 . S
C1531 C1532 1.523 . S
C1532 C1513 1.368 . S
C1532 C1526 1.368 . S
C1532 C1531 1.523 . S
C1533 C1517 1.429 . S
C1533 C1529 1.429 . S
C1533 C1534 1.523 . S
C1534 C1518 1.368 . S
C1534 C1530 1.368 . S
C1534 C1533 1.523 . S
H1535 C1510 0.950 . S
H1536 C1512 0.950 . S
H1537 C1513 0.949 . S
H1538 C1515 0.950 . S
H1539 C1517 0.950 . S
C1540 C1541 1.349 . S
C1540 C1542 1.327 . S
C1540 H1565 0.950 . S
C1541 C1540 1.349 . S
C1541 C1557 1.349 . S
C1542 C1540 1.327 . S
C1542 C1561 1.429 . S
C1542 H1566 0.950 . S
C1543 C1560 1.574 . S
C1543 C1562 1.368 . S
C1543 H1567 0.949 . S
H1544 C1548 0.949 . S
C1545 C1546 1.349 . S
C1545 C1547 1.327 . S
C1545 H1568 0.950 . S
C1546 C1545 1.349 . S
C1546 C1558 1.349 . S
C1547 C1545 1.327 . S
C1547 C1563 1.429 . S
C1547 H1569 0.950 . S
C1548 H1544 0.949 . S
C1548 C1556 1.574 . S
C1548 C1564 1.368 . S
H1549 C1557 0.950 . S
H1550 C1555 0.950 . S
H1551 C1556 0.949 . S
H1552 C1558 0.950 . S
H1553 C1559 0.950 . S
H1554 C1560 0.949 . S
C1555 H1550 0.950 . S
C1555 C1557 1.327 . S
C1555 C1561 1.429 . S
C1556 C1548 1.574 . S
C1556 H1551 0.949 . S
C1556 C1562 1.368 . S
C1557 C1541 1.349 . S
C1557 H1549 0.950 . S
C1557 C1555 1.327 . S
C1558 C1546 1.349 . S
C1558 H1552 0.950 . S
C1558 C1559 1.327 . S
C1559 H1553 0.950 . S
C1559 C1558 1.327 . S
C1559 C1563 1.429 . S
C1560 C1543 1.574 . S
C1560 H1554 0.949 . S
C1560 C1564 1.368 . S
C1561 C1542 1.429 . S
C1561 C1555 1.429 . S
C1561 C1562 1.523 . S
C1562 C1543 1.368 . S
C1562 C1556 1.368 . S
C1562 C1561 1.523 . S
C1563 C1547 1.429 . S
C1563 C1559 1.429 . S
C1563 C1564 1.523 . S
C1564 C1548 1.368 . S
C1564 C1560 1.368 . S
C1564 C1563 1.523 . S
H1565 C1540 0.950 . S
H1566 C1542 0.950 . S
H1567 C1543 0.949 . S
H1568 C1545 0.950 . S
H1569 C1547 0.950 . S
C1570 C1571 1.349 . S
C1570 C1572 1.327 . S
C1570 H1595 0.950 . S
C1571 C1570 1.349 . S
C1571 C1587 1.349 . S
C1572 C1570 1.327 . S
C1572 C1591 1.429 . S
C1572 H1596 0.950 . S
C1573 C1590 1.574 . S
C1573 C1592 1.368 . S
C1573 H1597 0.949 . S
H1574 C1578 0.949 . S
C1575 C1576 1.349 . S
C1575 C1577 1.327 . S
C1575 H1598 0.950 . S
C1576 C1575 1.349 . S
C1576 C1588 1.349 . S
C1577 C1575 1.327 . S
C1577 C1593 1.429 . S
C1577 H1599 0.950 . S
C1578 H1574 0.949 . S
C1578 C1586 1.574 . S
C1578 C1594 1.368 . S
H1579 C1587 0.950 . S
H1580 C1585 0.950 . S
H1581 C1586 0.949 . S
H1582 C1588 0.950 . S
H1583 C1589 0.950 . S
H1584 C1590 0.949 . S
C1585 H1580 0.950 . S
C1585 C1587 1.327 . S
C1585 C1591 1.429 . S
C1586 C1578 1.574 . S
C1586 H1581 0.949 . S
C1586 C1592 1.368 . S
C1587 C1571 1.349 . S
C1587 H1579 0.950 . S
C1587 C1585 1.327 . S
C1588 C1576 1.349 . S
C1588 H1582 0.950 . S
C1588 C1589 1.327 . S
C1589 H1583 0.950 . S
C1589 C1588 1.327 . S
C1589 C1593 1.429 . S
C1590 C1573 1.574 . S
C1590 H1584 0.949 . S
C1590 C1594 1.368 . S
C1591 C1572 1.429 . S
C1591 C1585 1.429 . S
C1591 C1592 1.523 . S
C1592 C1573 1.368 . S
C1592 C1586 1.368 . S
C1592 C1591 1.523 . S
C1593 C1577 1.429 . S
C1593 C1589 1.429 . S
C1593 C1594 1.523 . S
C1594 C1578 1.368 . S
C1594 C1590 1.368 . S
C1594 C1593 1.523 . S
H1595 C1570 0.950 . S
H1596 C1572 0.950 . S
H1597 C1573 0.949 . S
H1598 C1575 0.950 . S
H1599 C1577 0.950 . S
C1600 C1601 1.349 . S
C1600 C1602 1.327 . S
C1600 H1625 0.950 . S
C1601 C1600 1.349 . S
C1601 C1617 1.349 1_455 S
C1602 C1600 1.327 . S
C1602 C1621 1.429 . S
C1602 H1626 0.950 . S
C1603 C1620 1.574 . S
C1603 C1622 1.368 . S
C1603 H1627 0.949 1_455 S
H1604 C1608 0.949 . S
C1605 C1606 1.349 1_556 S
C1605 C1607 1.327 . S
C1605 H1628 0.950 . S
C1606 C1605 1.349 1_554 S
C1606 C1618 1.349 . S
C1607 C1605 1.327 . S
C1607 C1623 1.429 . S
C1607 H1629 0.950 . S
C1608 H1604 0.949 . S
C1608 C1616 1.574 . S
C1608 C1624 1.368 . S
H1609 C1617 0.950 . S
H1610 C1615 0.950 . S
H1611 C1616 0.949 . S
H1612 C1618 0.950 . S
H1613 C1619 0.950 . S
H1614 C1620 0.949 . S
C1615 H1610 0.950 . S
C1615 C1617 1.327 . S
C1615 C1621 1.429 1_655 S
C1616 C1608 1.574 . S
C1616 H1611 0.949 . S
C1616 C1622 1.368 . S
C1617 C1601 1.349 1_655 S
C1617 H1609 0.950 . S
C1617 C1615 1.327 . S
C1618 C1606 1.349 . S
C1618 H1612 0.950 . S
C1618 C1619 1.327 1_554 S
C1619 H1613 0.950 . S
C1619 C1618 1.327 1_556 S
C1619 C1623 1.429 . S
C1620 C1603 1.574 . S
C1620 H1614 0.949 . S
C1620 C1624 1.368 . S
C1621 C1602 1.429 . S
C1621 C1615 1.429 1_455 S
C1621 C1622 1.523 . S
C1622 C1603 1.368 . S
C1622 C1616 1.368 . S
C1622 C1621 1.523 . S
C1623 C1607 1.429 . S
C1623 C1619 1.429 . S
C1623 C1624 1.523 . S
C1624 C1608 1.368 . S
C1624 C1620 1.368 . S
C1624 C1623 1.523 . S
H1625 C1600 0.950 . S
H1626 C1602 0.950 . S
H1627 C1603 0.949 1_655 S
H1628 C1605 0.950 . S
H1629 C1607 0.950 . S
C1630 C1631 1.349 . S
C1630 C1632 1.327 . S
C1630 H1655 0.950 . S
C1631 C1630 1.349 . S
C1631 C1647 1.349 . S
C1632 C1630 1.327 . S
C1632 C1651 1.429 . S
C1632 H1656 0.950 . S
C1633 C1650 1.574 . S
C1633 C1652 1.368 . S
C1633 H1657 0.949 . S
H1634 C1638 0.949 . S
C1635 C1636 1.349 . S
C1635 C1637 1.327 . S
C1635 H1658 0.950 . S
C1636 C1635 1.349 . S
C1636 C1648 1.349 . S
C1637 C1635 1.327 . S
C1637 C1653 1.429 . S
C1637 H1659 0.950 . S
C1638 H1634 0.949 . S
C1638 C1646 1.574 . S
C1638 C1654 1.368 . S
H1639 C1647 0.950 . S
H1640 C1645 0.950 . S
H1641 C1646 0.949 . S
H1642 C1648 0.950 . S
H1643 C1649 0.950 . S
H1644 C1650 0.949 . S
C1645 H1640 0.950 . S
C1645 C1647 1.327 . S
C1645 C1651 1.429 . S
C1646 C1638 1.574 . S
C1646 H1641 0.949 . S
C1646 C1652 1.368 . S
C1647 C1631 1.349 . S
C1647 H1639 0.950 . S
C1647 C1645 1.327 . S
C1648 C1636 1.349 . S
C1648 H1642 0.950 . S
C1648 C1649 1.327 . S
C1649 H1643 0.950 . S
C1649 C1648 1.327 . S
C1649 C1653 1.429 . S
C1650 C1633 1.574 . S
C1650 H1644 0.949 . S
C1650 C1654 1.368 . S
C1651 C1632 1.429 . S
C1651 C1645 1.429 . S
C1651 C1652 1.523 . S
C1652 C1633 1.368 . S
C1652 C1646 1.368 . S
C1652 C1651 1.523 . S
C1653 C1637 1.429 . S
C1653 C1649 1.429 . S
C1653 C1654 1.523 . S
C1654 C1638 1.368 . S
C1654 C1650 1.368 . S
C1654 C1653 1.523 . S
H1655 C1630 0.950 . S
H1656 C1632 0.950 . S
H1657 C1633 0.949 . S
H1658 C1635 0.950 . S
H1659 C1637 0.950 . S
C1660 C1661 1.349 . S
C1660 C1662 1.327 . S
C1660 H1685 0.950 . S
C1661 C1660 1.349 . S
C1661 C1677 1.349 . S
C1662 C1660 1.327 . S
C1662 C1681 1.429 . S
C1662 H1686 0.950 . S
C1663 C1680 1.574 . S
C1663 C1682 1.368 . S
C1663 H1687 0.949 . S
H1664 C1668 0.949 . S
C1665 C1666 1.349 . S
C1665 C1667 1.327 . S
C1665 H1688 0.950 . S
C1666 C1665 1.349 . S
C1666 C1678 1.349 . S
C1667 C1665 1.327 . S
C1667 C1683 1.429 . S
C1667 H1689 0.950 . S
C1668 H1664 0.949 . S
C1668 C1676 1.574 . S
C1668 C1684 1.368 . S
H1669 C1677 0.950 . S
H1670 C1675 0.950 . S
H1671 C1676 0.949 . S
H1672 C1678 0.950 . S
H1673 C1679 0.950 . S
H1674 C1680 0.949 . S
C1675 H1670 0.950 . S
C1675 C1677 1.327 . S
C1675 C1681 1.429 . S
C1676 C1668 1.574 . S
C1676 H1671 0.949 . S
C1676 C1682 1.368 . S
C1677 C1661 1.349 . S
C1677 H1669 0.950 . S
C1677 C1675 1.327 . S
C1678 C1666 1.349 . S
C1678 H1672 0.950 . S
C1678 C1679 1.327 . S
C1679 H1673 0.950 . S
C1679 C1678 1.327 . S
C1679 C1683 1.429 . S
C1680 C1663 1.574 . S
C1680 H1674 0.949 . S
C1680 C1684 1.368 . S
C1681 C1662 1.429 . S
C1681 C1675 1.429 . S
C1681 C1682 1.523 . S
C1682 C1663 1.368 . S
C1682 C1676 1.368 . S
C1682 C1681 1.523 . S
C1683 C1667 1.429 . S
C1683 C1679 1.429 . S
C1683 C1684 1.523 . S
C1684 C1668 1.368 . S
C1684 C1680 1.368 . S
C1684 C1683 1.523 . S
H1685 C1660 0.950 . S
H1686 C1662 0.950 . S
H1687 C1663 0.949 . S
H1688 C1665 0.950 . S
H1689 C1667 0.950 . S
C1690 C1691 1.349 . S
C1690 C1692 1.327 . S
C1690 H1715 0.950 . S
C1691 C1690 1.349 . S
C1691 C1707 1.349 . S
C1692 C1690 1.327 . S
C1692 C1711 1.429 . S
C1692 H1716 0.950 . S
C1693 C1710 1.574 . S
C1693 C1712 1.368 . S
C1693 H1717 0.949 . S
H1694 C1698 0.949 . S
C1695 C1696 1.349 . S
C1695 C1697 1.327 . S
C1695 H1718 0.950 . S
C1696 C1695 1.349 . S
C1696 C1708 1.349 . S
C1697 C1695 1.327 . S
C1697 C1713 1.429 . S
C1697 H1719 0.950 . S
C1698 H1694 0.949 . S
C1698 C1706 1.574 . S
C1698 C1714 1.368 . S
H1699 C1707 0.950 . S
H1700 C1705 0.950 . S
H1701 C1706 0.949 . S
H1702 C1708 0.950 . S
H1703 C1709 0.950 . S
H1704 C1710 0.949 . S
C1705 H1700 0.950 . S
C1705 C1707 1.327 . S
C1705 C1711 1.429 . S
C1706 C1698 1.574 . S
C1706 H1701 0.949 . S
C1706 C1712 1.368 . S
C1707 C1691 1.349 . S
C1707 H1699 0.950 . S
C1707 C1705 1.327 . S
C1708 C1696 1.349 . S
C1708 H1702 0.950 . S
C1708 C1709 1.327 . S
C1709 H1703 0.950 . S
C1709 C1708 1.327 . S
C1709 C1713 1.429 . S
C1710 C1693 1.574 . S
C1710 H1704 0.949 . S
C1710 C1714 1.368 . S
C1711 C1692 1.429 . S
C1711 C1705 1.429 . S
C1711 C1712 1.523 . S
C1712 C1693 1.368 . S
C1712 C1706 1.368 . S
C1712 C1711 1.523 . S
C1713 C1697 1.429 . S
C1713 C1709 1.429 . S
C1713 C1714 1.523 . S
C1714 C1698 1.368 . S
C1714 C1710 1.368 . S
C1714 C1713 1.523 . S
H1715 C1690 0.950 . S
H1716 C1692 0.950 . S
H1717 C1693 0.949 . S
H1718 C1695 0.950 . S
H1719 C1697 0.950 . S
C1720 C1721 1.349 . S
C1720 C1722 1.327 . S
C1720 H1745 0.950 . S
C1721 C1720 1.349 . S
C1721 C1737 1.349 . S
C1722 C1720 1.327 . S
C1722 C1741 1.429 . S
C1722 H1746 0.950 . S
C1723 C1740 1.574 . S
C1723 C1742 1.368 . S
C1723 H1747 0.909 1_455 S
H1724 C1728 0.949 . S
C1725 C1726 1.349 . S
C1725 C1727 1.327 . S
C1725 H1748 0.950 . S
C1726 C1725 1.349 . S
C1726 C1738 1.349 . S
C1727 C1725 1.327 . S
C1727 C1743 1.429 . S
C1727 H1749 0.950 . S
C1728 H1724 0.949 . S
C1728 C1736 1.574 . S
C1728 C1744 1.368 . S
H1729 C1737 0.950 1_655 S
H1730 C1735 0.950 1_655 S
H1731 C1736 0.949 . S
H1732 C1738 0.950 . S
H1733 C1739 0.950 . S
H1734 C1740 0.949 . S
C1735 H1730 0.950 1_455 S
C1735 C1737 1.327 . S
C1735 C1741 1.429 . S
C1736 C1728 1.574 . S
C1736 H1731 0.949 . S
C1736 C1742 1.368 . S
C1737 C1721 1.349 . S
C1737 H1729 0.950 1_455 S
C1737 C1735 1.327 . S
C1738 C1726 1.349 . S
C1738 H1732 0.950 . S
C1738 C1739 1.327 . S
C1739 H1733 0.950 . S
C1739 C1738 1.327 . S
C1739 C1743 1.429 . S
C1740 C1723 1.574 . S
C1740 H1734 0.949 . S
C1740 C1744 1.368 . S
C1741 C1722 1.429 . S
C1741 C1735 1.429 . S
C1741 C1742 1.523 . S
C1742 C1723 1.368 . S
C1742 C1736 1.368 . S
C1742 C1741 1.523 . S
C1743 C1727 1.429 . S
C1743 C1739 1.429 . S
C1743 C1744 1.523 . S
C1744 C1728 1.368 . S
C1744 C1740 1.368 . S
C1744 C1743 1.523 . S
H1745 C1720 0.950 . S
H1746 C1722 0.950 . S
H1747 C1723 0.909 1_655 S
H1748 C1725 0.950 . S
H1749 C1727 0.950 . S
C1750 C1751 1.349 . S
C1750 C1752 1.327 . S
C1750 H1775 0.950 . S
C1751 C1750 1.349 . S
C1751 C1767 1.349 . S
C1752 C1750 1.327 . S
C1752 C1771 1.429 . S
C1752 H1776 0.950 . S
C1753 C1770 1.574 . S
C1753 C1772 1.368 . S
C1753 H1777 0.949 . S
H1754 C1758 0.949 . S
C1755 C1756 1.349 . S
C1755 C1757 1.327 . S
C1755 H1778 0.950 . S
C1756 C1755 1.349 . S
C1756 C1768 1.349 . S
C1757 C1755 1.327 . S
C1757 C1773 1.429 . S
C1757 H1779 0.950 . S
C1758 H1754 0.949 . S
C1758 C1766 1.574 . S
C1758 C1774 1.368 . S
H1759 C1767 0.950 . S
H1760 C1765 0.950 . S
H1761 C1766 0.949 . S
H1762 C1768 0.950 . S
H1763 C1769 0.950 . S
H1764 C1770 0.949 . S
C1765 H1760 0.950 . S
C1765 C1767 1.327 . S
C1765 C1771 1.429 . S
C1766 C1758 1.574 . S
C1766 H1761 0.949 . S
C1766 C1772 1.368 . S
C1767 C1751 1.349 . S
C1767 H1759 0.950 . S
C1767 C1765 1.327 . S
C1768 C1756 1.349 . S
C1768 H1762 0.950 . S
C1768 C1769 1.327 . S
C1769 H1763 0.950 . S
C1769 C1768 1.327 . S
C1769 C1773 1.429 . S
C1770 C1753 1.574 . S
C1770 H1764 0.949 . S
C1770 C1774 1.368 . S
C1771 C1752 1.429 . S
C1771 C1765 1.429 . S
C1771 C1772 1.523 . S
C1772 C1753 1.368 . S
C1772 C1766 1.368 . S
C1772 C1771 1.523 . S
C1773 C1757 1.429 . S
C1773 C1769 1.429 . S
C1773 C1774 1.523 . S
C1774 C1758 1.368 . S
C1774 C1770 1.368 . S
C1774 C1773 1.523 . S
H1775 C1750 0.950 . S
H1776 C1752 0.950 . S
H1777 C1753 0.949 . S
H1778 C1755 0.950 . S
H1779 C1757 0.950 . S
C1780 C1781 1.349 . S
C1780 C1782 1.327 . S
C1780 H1805 0.950 . S
C1781 C1780 1.349 . S
C1781 C1797 1.349 . S
C1782 C1780 1.327 . S
C1782 C1801 1.429 . S
C1782 H1806 0.950 . S
C1783 C1800 1.574 . S
C1783 C1802 1.368 . S
C1783 H1807 0.949 . S
H1784 C1788 0.949 . S
C1785 C1786 1.349 . S
C1785 C1787 1.327 . S
C1785 H1808 0.950 . S
C1786 C1785 1.349 . S
C1786 C1798 1.349 . S
C1787 C1785 1.327 . S
C1787 C1803 1.429 . S
C1787 H1809 0.950 . S
C1788 H1784 0.949 . S
C1788 C1796 1.574 . S
C1788 C1804 1.368 . S
H1789 C1797 0.950 . S
H1790 C1795 0.950 . S
H1791 C1796 0.949 . S
H1792 C1798 0.950 . S
H1793 C1799 0.950 . S
H1794 C1800 0.949 . S
C1795 H1790 0.950 . S
C1795 C1797 1.327 . S
C1795 C1801 1.429 . S
C1796 C1788 1.574 . S
C1796 H1791 0.949 . S
C1796 C1802 1.368 . S
C1797 C1781 1.349 . S
C1797 H1789 0.950 . S
C1797 C1795 1.327 . S
C1798 C1786 1.349 . S
C1798 H1792 0.950 . S
C1798 C1799 1.327 . S
C1799 H1793 0.950 . S
C1799 C1798 1.327 . S
C1799 C1803 1.429 . S
C1800 C1783 1.574 . S
C1800 H1794 0.949 . S
C1800 C1804 1.368 . S
C1801 C1782 1.429 . S
C1801 C1795 1.429 . S
C1801 C1802 1.523 . S
C1802 C1783 1.368 . S
C1802 C1796 1.368 . S
C1802 C1801 1.523 . S
C1803 C1787 1.429 . S
C1803 C1799 1.429 . S
C1803 C1804 1.523 . S
C1804 C1788 1.368 . S
C1804 C1800 1.368 . S
C1804 C1803 1.523 . S
H1805 C1780 0.950 . S
H1806 C1782 0.950 . S
H1807 C1783 0.949 . S
H1808 C1785 0.950 . S
H1809 C1787 0.950 . S
C1810 C1811 1.349 . S
C1810 C1812 1.327 . S
C1810 H1835 0.950 . S
C1811 C1810 1.349 . S
C1811 C1827 1.349 . S
C1812 C1810 1.327 . S
C1812 C1831 1.429 . S
C1812 H1836 0.950 . S
C1813 C1830 1.574 . S
C1813 C1832 1.368 . S
C1813 H1837 0.949 . S
H1814 C1818 0.949 . S
C1815 C1816 1.349 . S
C1815 C1817 1.327 . S
C1815 H1838 0.950 . S
C1816 C1815 1.349 . S
C1816 C1828 1.349 . S
C1817 C1815 1.327 . S
C1817 C1833 1.429 . S
C1817 H1839 0.950 . S
C1818 H1814 0.949 . S
C1818 C1826 1.574 . S
C1818 C1834 1.368 . S
H1819 C1827 0.950 . S
H1820 C1825 0.950 . S
H1821 C1826 0.949 . S
H1822 C1828 0.950 . S
H1823 C1829 0.950 . S
H1824 C1830 0.949 . S
C1825 H1820 0.950 . S
C1825 C1827 1.327 . S
C1825 C1831 1.429 . S
C1826 C1818 1.574 . S
C1826 H1821 0.949 . S
C1826 C1832 1.368 . S
C1827 C1811 1.349 . S
C1827 H1819 0.950 . S
C1827 C1825 1.327 . S
C1828 C1816 1.349 . S
C1828 H1822 0.950 . S
C1828 C1829 1.327 . S
C1829 H1823 0.950 . S
C1829 C1828 1.327 . S
C1829 C1833 1.429 . S
C1830 C1813 1.574 . S
C1830 H1824 0.949 . S
C1830 C1834 1.368 . S
C1831 C1812 1.429 . S
C1831 C1825 1.429 . S
C1831 C1832 1.523 . S
C1832 C1813 1.368 . S
C1832 C1826 1.368 . S
C1832 C1831 1.523 . S
C1833 C1817 1.429 . S
C1833 C1829 1.429 . S
C1833 C1834 1.523 . S
C1834 C1818 1.368 . S
C1834 C1830 1.368 . S
C1834 C1833 1.523 . S
H1835 C1810 0.950 . S
H1836 C1812 0.950 . S
H1837 C1813 0.949 . S
H1838 C1815 0.950 . S
H1839 C1817 0.950 . S
C1840 C1841 1.349 . S
C1840 C1842 1.327 . S
C1840 H1865 0.950 . S
C1841 C1840 1.349 . S
C1841 C1857 1.349 1_545 S
C1842 C1840 1.327 . S
C1842 C1861 1.429 . S
C1842 H1866 0.950 . S
C1843 C1860 1.574 . S
C1843 C1862 1.368 1_565 S
C1843 H1867 0.949 . S
H1844 C1848 0.949 . S
C1845 C1846 1.349 . S
C1845 C1847 1.327 1_455 S
C1845 H1868 0.950 1_545 S
C1846 C1845 1.349 . S
C1846 C1858 1.349 1_455 S
C1847 C1845 1.327 1_655 S
C1847 C1863 1.429 . S
C1847 H1869 0.950 1_545 S
C1848 H1844 0.949 . S
C1848 C1856 1.574 . S
C1848 C1864 1.368 . S
H1849 C1857 0.950 . S
H1850 C1855 0.950 . S
H1851 C1856 0.949 . S
H1852 C1858 0.950 . S
H1853 C1859 0.950 . S
H1854 C1860 0.949 . S
C1855 H1850 0.950 . S
C1855 C1857 1.327 . S
C1855 C1861 1.429 1_565 S
C1856 C1848 1.574 . S
C1856 H1851 0.949 . S
C1856 C1862 1.368 . S
C1857 C1841 1.349 1_565 S
C1857 H1849 0.950 . S
C1857 C1855 1.327 . S
C1858 C1846 1.349 1_655 S
C1858 H1852 0.950 . S
C1858 C1859 1.327 . S
C1859 H1853 0.950 . S
C1859 C1858 1.327 . S
C1859 C1863 1.429 . S
C1860 C1843 1.574 . S
C1860 H1854 0.949 . S
C1860 C1864 1.368 1_565 S
C1861 C1842 1.429 . S
C1861 C1855 1.429 1_545 S
C1861 C1862 1.523 . S
C1862 C1843 1.368 1_545 S
C1862 C1856 1.368 . S
C1862 C1861 1.523 . S
C1863 C1847 1.429 . S
C1863 C1859 1.429 . S
C1863 C1864 1.523 . S
C1864 C1848 1.368 . S
C1864 C1860 1.368 1_545 S
C1864 C1863 1.523 . S
H1865 C1840 0.950 . S
H1866 C1842 0.950 . S
H1867 C1843 0.949 . S
H1868 C1845 0.950 1_565 S
H1869 C1847 0.950 1_565 S
C1870 C1871 1.349 . S
C1870 C1872 1.327 . S
C1870 H1895 0.950 . S
C1871 C1870 1.349 . S
C1871 C1887 1.349 . S
C1872 C1870 1.327 . S
C1872 C1891 1.429 . S
C1872 H1896 0.950 . S
C1873 C1890 1.574 . S
C1873 C1892 1.368 . S
C1873 H1897 0.949 . S
H1874 C1878 0.949 . S
C1875 C1876 1.349 . S
C1875 C1877 1.327 . S
C1875 H1898 0.950 . S
C1876 C1875 1.349 . S
C1876 C1888 1.349 . S
C1877 C1875 1.327 . S
C1877 C1893 1.429 . S
C1877 H1899 0.950 . S
C1878 H1874 0.949 . S
C1878 C1886 1.574 . S
C1878 C1894 1.368 . S
H1879 C1887 0.950 . S
H1880 C1885 0.950 . S
H1881 C1886 0.949 . S
H1882 C1888 0.950 . S
H1883 C1889 0.950 . S
H1884 C1890 0.949 . S
C1885 H1880 0.950 . S
C1885 C1887 1.327 . S
C1885 C1891 1.429 . S
C1886 C1878 1.574 . S
C1886 H1881 0.949 . S
C1886 C1892 1.368 . S
C1887 C1871 1.349 . S
C1887 H1879 0.950 . S
C1887 C1885 1.327 . S
C1888 C1876 1.349 . S
C1888 H1882 0.950 . S
C1888 C1889 1.327 . S
C1889 H1883 0.950 . S
C1889 C1888 1.327 . S
C1889 C1893 1.429 . S
C1890 C1873 1.574 . S
C1890 H1884 0.949 . S
C1890 C1894 1.368 . S
C1891 C1872 1.429 . S
C1891 C1885 1.429 . S
C1891 C1892 1.523 . S
C1892 C1873 1.368 . S
C1892 C1886 1.368 . S
C1892 C1891 1.523 . S
C1893 C1877 1.429 . S
C1893 C1889 1.429 . S
C1893 C1894 1.523 . S
C1894 C1878 1.368 . S
C1894 C1890 1.368 . S
C1894 C1893 1.523 . S
H1895 C1870 0.950 . S
H1896 C1872 0.950 . S
H1897 C1873 0.949 . S
H1898 C1875 0.950 . S
H1899 C1877 0.950 . S
C1900 C1901 1.349 . S
C1900 C1902 1.327 . S
C1900 H1925 0.950 . S
C1901 C1900 1.349 . S
C1901 C1917 1.349 1_545 S
C1902 C1900 1.327 . S
C1902 C1921 1.429 . S
C1902 H1926 0.950 . S
C1903 C1920 1.574 . S
C1903 C1922 1.368 1_565 S
C1903 H1927 0.949 . S
H1904 C1908 0.949 . S
C1905 C1906 1.349 1_565 S
C1905 C1907 1.327 . S
C1905 H1928 0.950 . S
C1906 C1905 1.349 1_545 S
C1906 C1918 1.349 . S
C1907 C1905 1.327 . S
C1907 C1923 1.429 1_565 S
C1907 H1929 0.950 . S
C1908 H1904 0.949 . S
C1908 C1916 1.574 . S
C1908 C1924 1.368 . S
H1909 C1917 0.950 . S
H1910 C1915 0.950 . S
H1911 C1916 0.949 . S
H1912 C1918 0.950 . S
H1913 C1919 0.950 . S
H1914 C1920 0.949 . S
C1915 H1910 0.950 . S
C1915 C1917 1.327 . S
C1915 C1921 1.429 1_565 S
C1916 C1908 1.574 . S
C1916 H1911 0.949 . S
C1916 C1922 1.368 . S
C1917 C1901 1.349 1_565 S
C1917 H1909 0.950 . S
C1917 C1915 1.327 . S
C1918 C1906 1.349 . S
C1918 H1912 0.950 . S
C1918 C1919 1.327 . S
C1919 H1913 0.950 . S
C1919 C1918 1.327 . S
C1919 C1923 1.429 . S
C1920 C1903 1.574 . S
C1920 H1914 0.949 . S
C1920 C1924 1.368 1_565 S
C1921 C1902 1.429 . S
C1921 C1915 1.429 1_545 S
C1921 C1922 1.523 . S
C1922 C1903 1.368 1_545 S
C1922 C1916 1.368 . S
C1922 C1921 1.523 . S
C1923 C1907 1.429 1_545 S
C1923 C1919 1.429 . S
C1923 C1924 1.523 . S
C1924 C1908 1.368 . S
C1924 C1920 1.368 1_545 S
C1924 C1923 1.523 . S
H1925 C1900 0.950 . S
H1926 C1902 0.950 . S
H1927 C1903 0.949 . S
H1928 C1905 0.950 . S
H1929 C1907 0.950 . S
C1930 C1931 1.349 . S
C1930 C1932 1.327 . S
C1930 H1955 0.950 . S
C1931 C1930 1.349 . S
C1931 C1947 1.349 . S
C1932 C1930 1.327 . S
C1932 C1951 1.429 . S
C1932 H1956 0.950 . S
C1933 C1950 1.574 . S
C1933 C1952 1.368 . S
C1933 H1957 0.949 . S
H1934 C1938 0.949 . S
C1935 C1936 1.349 . S
C1935 C1937 1.327 . S
C1935 H1958 0.950 . S
C1936 C1935 1.349 . S
C1936 C1948 1.349 . S
C1937 C1935 1.327 . S
C1937 C1953 1.429 . S
C1937 H1959 0.950 . S
C1938 H1934 0.949 . S
C1938 C1946 1.574 . S
C1938 C1954 1.368 . S
H1939 C1947 0.950 . S
H1940 C1945 0.950 . S
H1941 C1946 0.949 . S
H1942 C1948 0.950 . S
H1943 C1949 0.950 . S
H1944 C1950 0.949 . S
C1945 H1940 0.950 . S
C1945 C1947 1.327 . S
C1945 C1951 1.429 . S
C1946 C1938 1.574 . S
C1946 H1941 0.949 . S
C1946 C1952 1.368 . S
C1947 C1931 1.349 . S
C1947 H1939 0.950 . S
C1947 C1945 1.327 . S
C1948 C1936 1.349 . S
C1948 H1942 0.950 . S
C1948 C1949 1.327 . S
C1949 H1943 0.950 . S
C1949 C1948 1.327 . S
C1949 C1953 1.429 . S
C1950 C1933 1.574 . S
C1950 H1944 0.949 . S
C1950 C1954 1.368 . S
C1951 C1932 1.429 . S
C1951 C1945 1.429 . S
C1951 C1952 1.523 . S
C1952 C1933 1.368 . S
C1952 C1946 1.368 . S
C1952 C1951 1.523 . S
C1953 C1937 1.429 . S
C1953 C1949 1.429 . S
C1953 C1954 1.523 . S
C1954 C1938 1.368 . S
C1954 C1950 1.368 . S
C1954 C1953 1.523 . S
H1955 C1930 0.950 . S
H1956 C1932 0.950 . S
H1957 C1933 0.949 . S
H1958 C1935 0.950 . S
H1959 C1937 0.950 . S
C1960 C1961 1.349 . S
C1960 C1962 1.327 . S
C1960 H1985 0.950 . S
C1961 C1960 1.349 . S
C1961 C1977 1.349 1_545 S
C1962 C1960 1.327 . S
C1962 C1981 1.413 1_545 S
C1962 H1986 0.950 . S
C1963 C1980 1.574 . S
C1963 C1982 1.368 . S
C1963 H1987 0.949 . S
H1964 C1968 0.949 . S
C1965 C1966 1.349 . S
C1965 C1967 1.327 . S
C1965 H1988 0.950 . S
C1966 C1965 1.349 . S
C1966 C1978 1.326 1_565 S
C1967 C1965 1.327 . S
C1967 C1983 1.429 . S
C1967 H1989 0.950 . S
C1968 H1964 0.949 . S
C1968 C1976 1.574 . S
C1968 C1984 1.368 1_545 S
H1969 C1977 0.950 . S
H1970 C1975 0.950 . S
H1971 C1976 0.949 . S
H1972 C1978 0.991 . S
H1973 C1979 0.950 . S
H1974 C1980 0.949 . S
C1975 H1970 0.950 . S
C1975 C1977 1.327 . S
C1975 C1981 1.442 . S
C1976 C1968 1.574 . S
C1976 H1971 0.949 . S
C1976 C1982 1.368 1_545 S
C1977 C1961 1.349 1_565 S
C1977 H1969 0.950 . S
C1977 C1975 1.327 . S
C1978 C1966 1.326 1_545 S
C1978 H1972 0.991 . S
C1978 C1979 1.331 . S
C1979 H1973 0.950 . S
C1979 C1978 1.331 . S
C1979 C1983 1.429 1_545 S
C1980 C1963 1.574 . S
C1980 H1974 0.949 . S
C1980 C1984 1.368 . S
C1981 C1962 1.413 1_565 S
C1981 C1975 1.442 . S
C1981 C1982 1.525 . S
C1982 C1963 1.368 . S
C1982 C1976 1.368 1_565 S
C1982 C1981 1.525 . S
C1983 C1967 1.429 . S
C1983 C1979 1.429 1_565 S
C1983 C1984 1.523 . S
C1984 C1968 1.368 1_565 S
C1984 C1980 1.368 . S
C1984 C1983 1.523 . S
H1985 C1960 0.950 . S
H1986 C1962 0.950 . S
H1987 C1963 0.949 . S
H1988 C1965 0.950 . S
H1989 C1967 0.950 . S
C1990 C1991 1.349 . S
C1990 C1992 1.327 . S
C1990 H2015 0.950 . S
C1991 C1990 1.349 . S
C1991 C2007 1.349 . S
C1992 C1990 1.327 . S
C1992 C2011 1.429 . S
C1992 H2016 0.950 . S
C1993 C2010 1.574 . S
C1993 C2012 1.368 . S
C1993 H2017 0.949 . S
H1994 C1998 0.949 . S
C1995 C1996 1.349 . S
C1995 C1997 1.327 . S
C1995 H2018 0.950 . S
C1996 C1995 1.349 . S
C1996 C2008 1.349 . S
C1997 C1995 1.327 . S
C1997 C2013 1.429 . S
C1997 H2019 0.950 . S
C1998 H1994 0.949 . S
C1998 C2006 1.574 . S
C1998 C2014 1.368 . S
H1999 C2007 0.950 . S
H2000 C2005 0.950 . S
H2001 C2006 0.949 . S
H2002 C2008 0.950 . S
H2003 C2009 0.950 . S
H2004 C2010 0.949 . S
C2005 H2000 0.950 . S
C2005 C2007 1.327 . S
C2005 C2011 1.429 . S
C2006 C1998 1.574 . S
C2006 H2001 0.949 . S
C2006 C2012 1.368 . S
C2007 C1991 1.349 . S
C2007 H1999 0.950 . S
C2007 C2005 1.327 . S
C2008 C1996 1.349 . S
C2008 H2002 0.950 . S
C2008 C2009 1.327 . S
C2009 H2003 0.950 . S
C2009 C2008 1.327 . S
C2009 C2013 1.429 . S
C2010 C1993 1.574 . S
C2010 H2004 0.949 . S
C2010 C2014 1.368 . S
C2011 C1992 1.429 . S
C2011 C2005 1.429 . S
C2011 C2012 1.523 . S
C2012 C1993 1.368 . S
C2012 C2006 1.368 . S
C2012 C2011 1.523 . S
C2013 C1997 1.429 . S
C2013 C2009 1.429 . S
C2013 C2014 1.523 . S
C2014 C1998 1.368 . S
C2014 C2010 1.368 . S
C2014 C2013 1.523 . S
H2015 C1990 0.950 . S
H2016 C1992 0.950 . S
H2017 C1993 0.949 . S
H2018 C1995 0.950 . S
H2019 C1997 0.950 . S
C2020 C2021 1.349 . S
C2020 C2022 1.327 . S
C2020 H2045 0.950 . S
C2021 C2020 1.349 . S
C2021 C2037 1.349 1_545 S
C2022 C2020 1.327 . S
C2022 C2041 1.429 . S
C2022 H2046 0.950 . S
C2023 C2040 1.574 . S
C2023 C2042 1.368 . S
C2023 H2047 0.949 1_545 S
H2024 C2028 0.949 . S
C2025 C2026 1.349 . S
C2025 C2027 1.327 . S
C2025 H2048 0.950 . S
C2026 C2025 1.349 . S
C2026 C2038 1.349 . S
C2027 C2025 1.327 . S
C2027 C2043 1.429 . S
C2027 H2049 0.950 . S
C2028 H2024 0.949 . S
C2028 C2036 1.574 . S
C2028 C2044 1.368 . S
H2029 C2037 0.950 . S
H2030 C2035 0.950 1_565 S
H2031 C2036 0.949 . S
H2032 C2038 0.950 . S
H2033 C2039 0.950 . S
H2034 C2040 0.957 . S
C2035 H2030 0.950 1_545 S
C2035 C2037 1.327 1_545 S
C2035 C2041 1.429 . S
C2036 C2028 1.574 . S
C2036 H2031 0.949 . S
C2036 C2042 1.368 . S
C2037 C2021 1.349 1_565 S
C2037 H2029 0.950 . S
C2037 C2035 1.327 1_565 S
C2038 C2026 1.349 . S
C2038 H2032 0.950 . S
C2038 C2039 1.327 . S
C2039 H2033 0.950 . S
C2039 C2038 1.327 . S
C2039 C2043 1.429 . S
C2040 C2023 1.574 . S
C2040 H2034 0.957 . S
C2040 C2044 1.368 . S
C2041 C2022 1.429 . S
C2041 C2035 1.429 . S
C2041 C2042 1.523 . S
C2042 C2023 1.368 . S
C2042 C2036 1.368 . S
C2042 C2041 1.523 . S
C2043 C2027 1.429 . S
C2043 C2039 1.429 . S
C2043 C2044 1.523 . S
C2044 C2028 1.368 . S
C2044 C2040 1.368 . S
C2044 C2043 1.523 . S
H2045 C2020 0.950 . S
H2046 C2022 0.950 . S
H2047 C2023 0.949 1_565 S
H2048 C2025 0.950 . S
H2049 C2027 0.950 . S
C2050 C2051 1.349 . S
C2050 C2052 1.327 . S
C2050 H2075 0.950 . S
C2051 C2050 1.349 . S
C2051 C2067 1.349 . S
C2052 C2050 1.327 . S
C2052 C2071 1.429 . S
C2052 H2076 0.950 . S
C2053 C2070 1.574 . S
C2053 C2072 1.368 . S
C2053 H2077 0.949 . S
H2054 C2058 0.949 . S
C2055 C2056 1.349 . S
C2055 C2057 1.327 . S
C2055 H2078 0.950 . S
C2056 C2055 1.349 . S
C2056 C2068 1.349 . S
C2057 C2055 1.327 . S
C2057 C2073 1.429 . S
C2057 H2079 0.950 . S
C2058 H2054 0.949 . S
C2058 C2066 1.574 . S
C2058 C2074 1.368 . S
H2059 C2067 0.950 . S
H2060 C2065 0.950 . S
H2061 C2066 0.949 . S
H2062 C2068 0.950 . S
H2063 C2069 0.950 . S
H2064 C2070 0.949 . S
C2065 H2060 0.950 . S
C2065 C2067 1.327 . S
C2065 C2071 1.429 . S
C2066 C2058 1.574 . S
C2066 H2061 0.949 . S
C2066 C2072 1.368 . S
C2067 C2051 1.349 . S
C2067 H2059 0.950 . S
C2067 C2065 1.327 . S
C2068 C2056 1.349 . S
C2068 H2062 0.950 . S
C2068 C2069 1.327 . S
C2069 H2063 0.950 . S
C2069 C2068 1.327 . S
C2069 C2073 1.429 . S
C2070 C2053 1.574 . S
C2070 H2064 0.949 . S
C2070 C2074 1.368 . S
C2071 C2052 1.429 . S
C2071 C2065 1.429 . S
C2071 C2072 1.523 . S
C2072 C2053 1.368 . S
C2072 C2066 1.368 . S
C2072 C2071 1.523 . S
C2073 C2057 1.429 . S
C2073 C2069 1.429 . S
C2073 C2074 1.523 . S
C2074 C2058 1.368 . S
C2074 C2070 1.368 . S
C2074 C2073 1.523 . S
H2075 C2050 0.950 . S
H2076 C2052 0.950 . S
H2077 C2053 0.949 . S
H2078 C2055 0.950 . S
H2079 C2057 0.950 . S
C2080 C2081 1.349 . S
C2080 C2082 1.327 . S
C2080 H2105 0.950 . S
C2081 C2080 1.349 . S
C2081 C2097 1.349 . S
C2082 C2080 1.327 . S
C2082 C2101 1.429 . S
C2082 H2106 0.950 . S
C2083 C2100 1.574 . S
C2083 C2102 1.368 . S
C2083 H2107 0.949 . S
H2084 C2088 0.949 . S
C2085 C2086 1.349 . S
C2085 C2087 1.327 . S
C2085 H2108 0.950 . S
C2086 C2085 1.349 . S
C2086 C2098 1.349 . S
C2087 C2085 1.327 . S
C2087 C2103 1.429 . S
C2087 H2109 0.950 . S
C2088 H2084 0.949 . S
C2088 C2096 1.574 . S
C2088 C2104 1.368 . S
H2089 C2097 0.950 1_556 S
H2090 C2095 0.904 1_556 S
H2091 C2096 0.949 . S
H2092 C2098 0.950 . S
H2093 C2099 0.950 . S
H2094 C2100 0.949 . S
C2095 H2090 0.904 1_554 S
C2095 C2097 1.327 . S
C2095 C2101 1.429 . S
C2096 C2088 1.574 . S
C2096 H2091 0.949 . S
C2096 C2102 1.368 . S
C2097 C2081 1.349 . S
C2097 H2089 0.950 1_554 S
C2097 C2095 1.327 . S
C2098 C2086 1.349 . S
C2098 H2092 0.950 . S
C2098 C2099 1.327 . S
C2099 H2093 0.950 . S
C2099 C2098 1.327 . S
C2099 C2103 1.429 . S
C2100 C2083 1.574 . S
C2100 H2094 0.949 . S
C2100 C2104 1.368 . S
C2101 C2082 1.429 . S
C2101 C2095 1.429 . S
C2101 C2102 1.523 . S
C2102 C2083 1.368 . S
C2102 C2096 1.368 . S
C2102 C2101 1.523 . S
C2103 C2087 1.429 . S
C2103 C2099 1.429 . S
C2103 C2104 1.523 . S
C2104 C2088 1.368 . S
C2104 C2100 1.368 . S
C2104 C2103 1.523 . S
H2105 C2080 0.950 . S
H2106 C2082 0.950 . S
H2107 C2083 0.949 . S
H2108 C2085 0.950 . S
H2109 C2087 0.950 . S
C2110 C2111 1.349 . S
C2110 C2112 1.327 . S
C2110 H2135 0.950 . S
C2111 C2110 1.349 . S
C2111 C2127 1.349 1_554 S
C2112 C2110 1.327 . S
C2112 C2131 1.429 . S
C2112 H2136 0.950 . S
C2113 C2130 1.574 . S
C2113 C2132 1.368 1_556 S
C2113 H2137 0.949 . S
H2114 C2118 0.949 . S
C2115 C2116 1.349 1_556 S
C2115 C2117 1.327 . S
C2115 H2138 0.950 . S
C2116 C2115 1.349 1_554 S
C2116 C2128 1.349 . S
C2117 C2115 1.327 . S
C2117 C2133 1.429 1_556 S
C2117 H2139 0.950 . S
C2118 H2114 0.949 . S
C2118 C2126 1.574 . S
C2118 C2134 1.368 . S
H2119 C2127 0.950 . S
H2120 C2125 0.950 . S
H2121 C2126 0.949 . S
H2122 C2128 0.950 . S
H2123 C2129 0.950 . S
H2124 C2130 0.949 . S
C2125 H2120 0.950 . S
C2125 C2127 1.327 . S
C2125 C2131 1.429 1_556 S
C2126 C2118 1.574 . S
C2126 H2121 0.949 . S
C2126 C2132 1.368 . S
C2127 C2111 1.349 1_556 S
C2127 H2119 0.950 . S
C2127 C2125 1.327 . S
C2128 C2116 1.349 . S
C2128 H2122 0.950 . S
C2128 C2129 1.327 . S
C2129 H2123 0.950 . S
C2129 C2128 1.327 . S
C2129 C2133 1.429 . S
C2130 C2113 1.574 . S
C2130 H2124 0.949 . S
C2130 C2134 1.368 1_556 S
C2131 C2112 1.429 . S
C2131 C2125 1.429 1_554 S
C2131 C2132 1.523 . S
C2132 C2113 1.368 1_554 S
C2132 C2126 1.368 . S
C2132 C2131 1.523 . S
C2133 C2117 1.429 1_554 S
C2133 C2129 1.429 . S
C2133 C2134 1.523 . S
C2134 C2118 1.368 . S
C2134 C2130 1.368 1_554 S
C2134 C2133 1.523 . S
H2135 C2110 0.950 . S
H2136 C2112 0.950 . S
H2137 C2113 0.949 . S
H2138 C2115 0.950 . S
H2139 C2117 0.950 . S
C2140 C2141 1.349 . S
C2140 C2142 1.327 . S
C2140 H2165 0.950 . S
C2141 C2140 1.349 . S
C2141 C2157 1.349 . S
C2142 C2140 1.327 . S
C2142 C2161 1.429 . S
C2142 H2166 0.950 . S
C2143 C2160 1.574 . S
C2143 C2162 1.368 . S
C2143 H2167 0.949 . S
H2144 C2148 0.949 . S
C2145 C2146 1.349 . S
C2145 C2147 1.327 . S
C2145 H2168 0.950 . S
C2146 C2145 1.349 . S
C2146 C2158 1.349 . S
C2147 C2145 1.327 . S
C2147 C2163 1.429 . S
C2147 H2169 0.950 . S
C2148 H2144 0.949 . S
C2148 C2156 1.574 . S
C2148 C2164 1.368 . S
H2149 C2157 0.950 . S
H2150 C2155 0.950 . S
H2151 C2156 0.949 . S
H2152 C2158 0.950 . S
H2153 C2159 0.950 . S
H2154 C2160 0.949 . S
C2155 H2150 0.950 . S
C2155 C2157 1.327 . S
C2155 C2161 1.429 . S
C2156 C2148 1.574 . S
C2156 H2151 0.949 . S
C2156 C2162 1.368 . S
C2157 C2141 1.349 . S
C2157 H2149 0.950 . S
C2157 C2155 1.327 . S
C2158 C2146 1.349 . S
C2158 H2152 0.950 . S
C2158 C2159 1.327 . S
C2159 H2153 0.950 . S
C2159 C2158 1.327 . S
C2159 C2163 1.429 . S
C2160 C2143 1.574 . S
C2160 H2154 0.949 . S
C2160 C2164 1.368 . S
C2161 C2142 1.429 . S
C2161 C2155 1.429 . S
C2161 C2162 1.523 . S
C2162 C2143 1.368 . S
C2162 C2156 1.368 . S
C2162 C2161 1.523 . S
C2163 C2147 1.429 . S
C2163 C2159 1.429 . S
C2163 C2164 1.523 . S
C2164 C2148 1.368 . S
C2164 C2160 1.368 . S
C2164 C2163 1.523 . S
H2165 C2140 0.950 . S
H2166 C2142 0.950 . S
H2167 C2143 0.949 . S
H2168 C2145 0.950 . S
H2169 C2147 0.950 . S
C2170 C2171 1.349 . S
C2170 C2172 1.327 . S
C2170 H2195 0.950 . S
C2171 C2170 1.349 . S
C2171 C2187 1.349 . S
C2172 C2170 1.327 . S
C2172 C2191 1.429 . S
C2172 H2196 0.950 . S
C2173 C2190 1.574 . S
C2173 C2192 1.368 . S
C2173 H2197 0.949 . S
H2174 C2178 0.949 . S
C2175 C2176 1.349 . S
C2175 C2177 1.327 . S
C2175 H2198 0.950 . S
C2176 C2175 1.349 . S
C2176 C2188 1.349 . S
C2177 C2175 1.327 . S
C2177 C2193 1.429 . S
C2177 H2199 0.950 . S
C2178 H2174 0.949 . S
C2178 C2186 1.574 . S
C2178 C2194 1.368 . S
H2179 C2187 0.950 . S
H2180 C2185 0.950 . S
H2181 C2186 0.949 . S
H2182 C2188 0.950 . S
H2183 C2189 0.950 . S
H2184 C2190 0.949 . S
C2185 H2180 0.950 . S
C2185 C2187 1.327 . S
C2185 C2191 1.429 . S
C2186 C2178 1.574 . S
C2186 H2181 0.949 . S
C2186 C2192 1.368 . S
C2187 C2171 1.349 . S
C2187 H2179 0.950 . S
C2187 C2185 1.327 . S
C2188 C2176 1.349 . S
C2188 H2182 0.950 . S
C2188 C2189 1.327 . S
C2189 H2183 0.950 . S
C2189 C2188 1.327 . S
C2189 C2193 1.429 . S
C2190 C2173 1.574 . S
C2190 H2184 0.949 . S
C2190 C2194 1.368 . S
C2191 C2172 1.429 . S
C2191 C2185 1.429 . S
C2191 C2192 1.523 . S
C2192 C2173 1.368 . S
C2192 C2186 1.368 . S
C2192 C2191 1.523 . S
C2193 C2177 1.429 . S
C2193 C2189 1.429 . S
C2193 C2194 1.523 . S
C2194 C2178 1.368 . S
C2194 C2190 1.368 . S
C2194 C2193 1.523 . S
H2195 C2170 0.950 . S
H2196 C2172 0.950 . S
H2197 C2173 0.949 . S
H2198 C2175 0.950 . S
H2199 C2177 0.950 . S
C2200 C2201 1.349 . S
C2200 C2202 1.327 . S
C2200 H2225 0.950 . S
C2201 C2200 1.349 . S
C2201 C2217 1.349 . S
C2202 C2200 1.327 . S
C2202 C2221 1.429 . S
C2202 H2226 0.950 . S
C2203 C2220 1.574 . S
C2203 C2222 1.368 . S
C2203 H2227 0.949 . S
H2204 C2208 0.949 . S
C2205 C2206 1.349 . S
C2205 C2207 1.327 . S
C2205 H2228 0.950 . S
C2206 C2205 1.349 . S
C2206 C2218 1.349 . S
C2207 C2205 1.327 . S
C2207 C2223 1.429 . S
C2207 H2229 0.950 . S
C2208 H2204 0.949 . S
C2208 C2216 1.574 . S
C2208 C2224 1.368 . S
H2209 C2217 0.950 . S
H2210 C2215 0.950 . S
H2211 C2216 0.949 . S
H2212 C2218 0.950 . S
H2213 C2219 0.950 . S
H2214 C2220 0.949 . S
C2215 H2210 0.950 . S
C2215 C2217 1.327 . S
C2215 C2221 1.429 . S
C2216 C2208 1.574 . S
C2216 H2211 0.949 . S
C2216 C2222 1.368 . S
C2217 C2201 1.349 . S
C2217 H2209 0.950 . S
C2217 C2215 1.327 . S
C2218 C2206 1.349 . S
C2218 H2212 0.950 . S
C2218 C2219 1.327 . S
C2219 H2213 0.950 . S
C2219 C2218 1.327 . S
C2219 C2223 1.429 . S
C2220 C2203 1.574 . S
C2220 H2214 0.949 . S
C2220 C2224 1.368 . S
C2221 C2202 1.429 . S
C2221 C2215 1.429 . S
C2221 C2222 1.523 . S
C2222 C2203 1.368 . S
C2222 C2216 1.368 . S
C2222 C2221 1.523 . S
C2223 C2207 1.429 . S
C2223 C2219 1.429 . S
C2223 C2224 1.523 . S
C2224 C2208 1.368 . S
C2224 C2220 1.368 . S
C2224 C2223 1.523 . S
H2225 C2200 0.950 . S
H2226 C2202 0.950 . S
H2227 C2203 0.949 . S
H2228 C2205 0.950 . S
H2229 C2207 0.950 . S
C2230 C2231 1.349 . S
C2230 C2232 1.327 . S
C2230 H2255 0.950 . S
C2231 C2230 1.349 . S
C2231 C2247 1.349 . S
C2232 C2230 1.327 . S
C2232 C2251 1.429 . S
C2232 H2256 0.950 . S
C2233 C2250 1.574 . S
C2233 C2252 1.368 . S
C2233 H2257 0.949 . S
H2234 C2238 0.949 . S
C2235 C2236 1.349 . S
C2235 C2237 1.327 . S
C2235 H2258 0.950 . S
C2236 C2235 1.349 . S
C2236 C2248 1.349 . S
C2237 C2235 1.327 . S
C2237 C2253 1.429 . S
C2237 H2259 0.950 . S
C2238 H2234 0.949 . S
C2238 C2246 1.574 . S
C2238 C2254 1.368 . S
H2239 C2247 0.950 . S
H2240 C2245 0.950 . S
H2241 C2246 0.949 . S
H2242 C2248 0.950 . S
H2243 C2249 0.950 . S
H2244 C2250 0.949 . S
C2245 H2240 0.950 . S
C2245 C2247 1.327 . S
C2245 C2251 1.429 . S
C2246 C2238 1.574 . S
C2246 H2241 0.949 . S
C2246 C2252 1.368 . S
C2247 C2231 1.349 . S
C2247 H2239 0.950 . S
C2247 C2245 1.327 . S
C2248 C2236 1.349 . S
C2248 H2242 0.950 . S
C2248 C2249 1.327 . S
C2249 H2243 0.950 . S
C2249 C2248 1.327 . S
C2249 C2253 1.429 . S
C2250 C2233 1.574 . S
C2250 H2244 0.949 . S
C2250 C2254 1.368 . S
C2251 C2232 1.429 . S
C2251 C2245 1.429 . S
C2251 C2252 1.523 . S
C2252 C2233 1.368 . S
C2252 C2246 1.368 . S
C2252 C2251 1.523 . S
C2253 C2237 1.429 . S
C2253 C2249 1.429 . S
C2253 C2254 1.523 . S
C2254 C2238 1.368 . S
C2254 C2250 1.368 . S
C2254 C2253 1.523 . S
H2255 C2230 0.950 . S
H2256 C2232 0.950 . S
H2257 C2233 0.949 . S
H2258 C2235 0.950 . S
H2259 C2237 0.950 . S
C2260 C2261 1.349 . S
C2260 C2262 1.327 . S
C2260 H2285 0.950 . S
C2261 C2260 1.349 . S
C2261 C2277 1.349 . S
C2262 C2260 1.327 . S
C2262 C2281 1.429 . S
C2262 H2286 0.950 . S
C2263 C2280 1.574 . S
C2263 C2282 1.368 . S
C2263 H2287 0.949 . S
H2264 C2268 0.949 . S
C2265 C2266 1.349 . S
C2265 C2267 1.327 . S
C2265 H2288 0.950 . S
C2266 C2265 1.349 . S
C2266 C2278 1.349 . S
C2267 C2265 1.327 . S
C2267 C2283 1.429 . S
C2267 H2289 0.950 . S
C2268 H2264 0.949 . S
C2268 C2276 1.574 . S
C2268 C2284 1.368 . S
H2269 C2277 0.950 . S
H2270 C2275 0.950 . S
H2271 C2276 0.949 . S
H2272 C2278 0.950 . S
H2273 C2279 0.950 . S
H2274 C2280 0.949 . S
C2275 H2270 0.950 . S
C2275 C2277 1.327 . S
C2275 C2281 1.429 . S
C2276 C2268 1.574 . S
C2276 H2271 0.949 . S
C2276 C2282 1.368 . S
C2277 C2261 1.349 . S
C2277 H2269 0.950 . S
C2277 C2275 1.327 . S
C2278 C2266 1.349 . S
C2278 H2272 0.950 . S
C2278 C2279 1.327 . S
C2279 H2273 0.950 . S
C2279 C2278 1.327 . S
C2279 C2283 1.429 . S
C2280 C2263 1.574 . S
C2280 H2274 0.949 . S
C2280 C2284 1.368 . S
C2281 C2262 1.429 . S
C2281 C2275 1.429 . S
C2281 C2282 1.523 . S
C2282 C2263 1.368 . S
C2282 C2276 1.368 . S
C2282 C2281 1.523 . S
C2283 C2267 1.429 . S
C2283 C2279 1.429 . S
C2283 C2284 1.523 . S
C2284 C2268 1.368 . S
C2284 C2280 1.368 . S
C2284 C2283 1.523 . S
H2285 C2260 0.950 . S
H2286 C2262 0.950 . S
H2287 C2263 0.949 . S
H2288 C2265 0.950 . S
H2289 C2267 0.950 . S
C2290 C2291 1.349 . S
C2290 C2292 1.327 . S
C2290 H2315 0.950 . S
C2291 C2290 1.349 . S
C2291 C2307 1.349 . S
C2292 C2290 1.327 . S
C2292 C2311 1.429 . S
C2292 H2316 0.950 . S
C2293 C2310 1.574 . S
C2293 C2312 1.368 . S
C2293 H2317 0.949 . S
H2294 C2298 0.949 . S
C2295 C2296 1.349 . S
C2295 C2297 1.327 . S
C2295 H2318 0.950 . S
C2296 C2295 1.349 . S
C2296 C2308 1.349 . S
C2297 C2295 1.327 . S
C2297 C2313 1.429 . S
C2297 H2319 0.950 . S
C2298 H2294 0.949 . S
C2298 C2306 1.574 . S
C2298 C2314 1.368 . S
H2299 C2307 0.950 . S
H2300 C2305 0.950 . S
H2301 C2306 0.949 . S
H2302 C2308 0.950 . S
H2303 C2309 0.950 . S
H2304 C2310 0.949 . S
C2305 H2300 0.950 . S
C2305 C2307 1.327 . S
C2305 C2311 1.429 . S
C2306 C2298 1.574 . S
C2306 H2301 0.949 . S
C2306 C2312 1.368 . S
C2307 C2291 1.349 . S
C2307 H2299 0.950 . S
C2307 C2305 1.327 . S
C2308 C2296 1.349 . S
C2308 H2302 0.950 . S
C2308 C2309 1.327 . S
C2309 H2303 0.950 . S
C2309 C2308 1.327 . S
C2309 C2313 1.429 . S
C2310 C2293 1.574 . S
C2310 H2304 0.949 . S
C2310 C2314 1.368 . S
C2311 C2292 1.429 . S
C2311 C2305 1.429 . S
C2311 C2312 1.523 . S
C2312 C2293 1.368 . S
C2312 C2306 1.368 . S
C2312 C2311 1.523 . S
C2313 C2297 1.429 . S
C2313 C2309 1.429 . S
C2313 C2314 1.523 . S
C2314 C2298 1.368 . S
C2314 C2310 1.368 . S
C2314 C2313 1.523 . S
H2315 C2290 0.950 . S
H2316 C2292 0.950 . S
H2317 C2293 0.949 . S
H2318 C2295 0.950 . S
H2319 C2297 0.950 . S
C2320 C2321 1.349 . S
C2320 C2322 1.327 . S
C2320 H2345 0.950 . S
C2321 C2320 1.349 . S
C2321 C2337 1.349 . S
C2322 C2320 1.327 . S
C2322 C2341 1.429 . S
C2322 H2346 0.950 . S
C2323 C2340 1.574 . S
C2323 C2342 1.368 . S
C2323 H2347 0.949 . S
H2324 C2328 0.949 . S
C2325 C2326 1.349 . S
C2325 C2327 1.327 . S
C2325 H2348 0.950 . S
C2326 C2325 1.349 . S
C2326 C2338 1.349 . S
C2327 C2325 1.327 . S
C2327 C2343 1.429 . S
C2327 H2349 0.950 . S
C2328 H2324 0.949 . S
C2328 C2336 1.574 . S
C2328 C2344 1.368 . S
H2329 C2337 0.950 . S
H2330 C2335 0.950 . S
H2331 C2336 0.949 . S
H2332 C2338 0.950 . S
H2333 C2339 0.950 . S
H2334 C2340 0.949 . S
C2335 H2330 0.950 . S
C2335 C2337 1.327 . S
C2335 C2341 1.429 . S
C2336 C2328 1.574 . S
C2336 H2331 0.949 . S
C2336 C2342 1.368 . S
C2337 C2321 1.349 . S
C2337 H2329 0.950 . S
C2337 C2335 1.327 . S
C2338 C2326 1.349 . S
C2338 H2332 0.950 . S
C2338 C2339 1.327 . S
C2339 H2333 0.950 . S
C2339 C2338 1.327 . S
C2339 C2343 1.429 . S
C2340 C2323 1.574 . S
C2340 H2334 0.949 . S
C2340 C2344 1.368 . S
C2341 C2322 1.429 . S
C2341 C2335 1.429 . S
C2341 C2342 1.523 . S
C2342 C2323 1.368 . S
C2342 C2336 1.368 . S
C2342 C2341 1.523 . S
C2343 C2327 1.429 . S
C2343 C2339 1.429 . S
C2343 C2344 1.523 . S
C2344 C2328 1.368 . S
C2344 C2340 1.368 . S
C2344 C2343 1.523 . S
H2345 C2320 0.950 . S
H2346 C2322 0.950 . S
H2347 C2323 0.949 . S
H2348 C2325 0.950 . S
H2349 C2327 0.950 . S
C2350 C2351 1.349 . S
C2350 C2352 1.327 . S
C2350 H2375 0.950 . S
C2351 C2350 1.349 . S
C2351 C2367 1.349 . S
C2352 C2350 1.327 . S
C2352 C2371 1.429 . S
C2352 H2376 0.950 . S
C2353 C2370 1.574 . S
C2353 C2372 1.368 . S
C2353 H2377 0.949 . S
H2354 C2358 0.949 . S
C2355 C2356 1.349 . S
C2355 C2357 1.327 . S
C2355 H2378 0.950 . S
C2356 C2355 1.349 . S
C2356 C2368 1.349 . S
C2357 C2355 1.327 . S
C2357 C2373 1.429 . S
C2357 H2379 0.950 . S
C2358 H2354 0.949 . S
C2358 C2366 1.574 . S
C2358 C2374 1.368 . S
H2359 C2367 0.950 . S
H2360 C2365 0.950 . S
H2361 C2366 0.949 . S
H2362 C2368 0.950 . S
H2363 C2369 0.950 . S
H2364 C2370 0.949 . S
C2365 H2360 0.950 . S
C2365 C2367 1.327 . S
C2365 C2371 1.429 . S
C2366 C2358 1.574 . S
C2366 H2361 0.949 . S
C2366 C2372 1.368 . S
C2367 C2351 1.349 . S
C2367 H2359 0.950 . S
C2367 C2365 1.327 . S
C2368 C2356 1.349 . S
C2368 H2362 0.950 . S
C2368 C2369 1.327 . S
C2369 H2363 0.950 . S
C2369 C2368 1.327 . S
C2369 C2373 1.429 . S
C2370 C2353 1.574 . S
C2370 H2364 0.949 . S
C2370 C2374 1.368 . S
C2371 C2352 1.429 . S
C2371 C2365 1.429 . S
C2371 C2372 1.523 . S
C2372 C2353 1.368 . S
C2372 C2366 1.368 . S
C2372 C2371 1.523 . S
C2373 C2357 1.429 . S
C2373 C2369 1.429 . S
C2373 C2374 1.523 . S
C2374 C2358 1.368 . S
C2374 C2370 1.368 . S
C2374 C2373 1.523 . S
H2375 C2350 0.950 . S
H2376 C2352 0.950 . S
H2377 C2353 0.949 . S
H2378 C2355 0.950 . S
H2379 C2357 0.950 . S
C2380 C2381 1.349 . S
C2380 C2382 1.327 . S
C2380 H2405 0.950 . S
C2381 C2380 1.349 . S
C2381 C2397 1.349 . S
C2382 C2380 1.327 . S
C2382 C2401 1.429 . S
C2382 H2406 0.950 . S
C2383 C2400 1.574 . S
C2383 C2402 1.368 . S
C2383 H2407 0.949 . S
H2384 C2388 0.949 . S
C2385 C2386 1.349 . S
C2385 C2387 1.327 . S
C2385 H2408 0.950 . S
C2386 C2385 1.349 . S
C2386 C2398 1.349 . S
C2387 C2385 1.327 . S
C2387 C2403 1.429 . S
C2387 H2409 0.950 . S
C2388 H2384 0.949 . S
C2388 C2396 1.574 . S
C2388 C2404 1.368 . S
H2389 C2397 0.950 . S
H2390 C2395 0.950 . S
H2391 C2396 0.949 . S
H2392 C2398 0.950 . S
H2393 C2399 0.950 . S
H2394 C2400 0.949 . S
C2395 H2390 0.950 . S
C2395 C2397 1.327 . S
C2395 C2401 1.429 . S
C2396 C2388 1.574 . S
C2396 H2391 0.949 . S
C2396 C2402 1.368 . S
C2397 C2381 1.349 . S
C2397 H2389 0.950 . S
C2397 C2395 1.327 . S
C2398 C2386 1.349 . S
C2398 H2392 0.950 . S
C2398 C2399 1.327 . S
C2399 H2393 0.950 . S
C2399 C2398 1.327 . S
C2399 C2403 1.429 . S
C2400 C2383 1.574 . S
C2400 H2394 0.949 . S
C2400 C2404 1.368 . S
C2401 C2382 1.429 . S
C2401 C2395 1.429 . S
C2401 C2402 1.523 . S
C2402 C2383 1.368 . S
C2402 C2396 1.368 . S
C2402 C2401 1.523 . S
C2403 C2387 1.429 . S
C2403 C2399 1.429 . S
C2403 C2404 1.523 . S
C2404 C2388 1.368 . S
C2404 C2400 1.368 . S
C2404 C2403 1.523 . S
H2405 C2380 0.950 . S
H2406 C2382 0.950 . S
H2407 C2383 0.949 . S
H2408 C2385 0.950 . S
H2409 C2387 0.950 . S
C2410 C2411 1.349 . S
C2410 C2412 1.327 . S
C2410 H2435 0.950 . S
C2411 C2410 1.349 . S
C2411 C2427 1.349 . S
C2412 C2410 1.327 . S
C2412 C2431 1.429 . S
C2412 H2436 0.950 . S
C2413 C2430 1.574 . S
C2413 C2432 1.368 . S
C2413 H2437 0.949 . S
H2414 C2418 0.949 . S
C2415 C2416 1.349 . S
C2415 C2417 1.327 . S
C2415 H2438 0.950 . S
C2416 C2415 1.349 . S
C2416 C2428 1.349 . S
C2417 C2415 1.327 . S
C2417 C2433 1.429 . S
C2417 H2439 0.950 . S
C2418 H2414 0.949 . S
C2418 C2426 1.574 . S
C2418 C2434 1.368 . S
H2419 C2427 0.950 . S
H2420 C2425 0.950 . S
H2421 C2426 0.949 . S
H2422 C2428 0.950 . S
H2423 C2429 0.950 . S
H2424 C2430 0.949 . S
C2425 H2420 0.950 . S
C2425 C2427 1.327 . S
C2425 C2431 1.429 . S
C2426 C2418 1.574 . S
C2426 H2421 0.949 . S
C2426 C2432 1.368 . S
C2427 C2411 1.349 . S
C2427 H2419 0.950 . S
C2427 C2425 1.327 . S
C2428 C2416 1.349 . S
C2428 H2422 0.950 . S
C2428 C2429 1.327 . S
C2429 H2423 0.950 . S
C2429 C2428 1.327 . S
C2429 C2433 1.429 . S
C2430 C2413 1.574 . S
C2430 H2424 0.949 . S
C2430 C2434 1.368 . S
C2431 C2412 1.429 . S
C2431 C2425 1.429 . S
C2431 C2432 1.523 . S
C2432 C2413 1.368 . S
C2432 C2426 1.368 . S
C2432 C2431 1.523 . S
C2433 C2417 1.429 . S
C2433 C2429 1.429 . S
C2433 C2434 1.523 . S
C2434 C2418 1.368 . S
C2434 C2430 1.368 . S
C2434 C2433 1.523 . S
H2435 C2410 0.950 . S
H2436 C2412 0.950 . S
H2437 C2413 0.949 . S
H2438 C2415 0.950 . S
H2439 C2417 0.950 . S
C2440 C2441 1.349 . S
C2440 C2442 1.327 . S
C2440 H2465 0.950 . S
C2441 C2440 1.349 . S
C2441 C2457 1.349 . S
C2442 C2440 1.327 . S
C2442 C2461 1.429 . S
C2442 H2466 0.950 . S
C2443 C2460 1.574 . S
C2443 C2462 1.368 . S
C2443 H2467 0.949 . S
H2444 C2448 0.949 . S
C2445 C2446 1.349 1_556 S
C2445 C2447 1.327 . S
C2445 H2468 0.950 . S
C2446 C2445 1.349 1_554 S
C2446 C2458 1.349 . S
C2447 C2445 1.327 . S
C2447 C2463 1.429 . S
C2447 H2469 0.950 . S
C2448 H2444 0.949 . S
C2448 C2456 1.574 . S
C2448 C2464 1.368 . S
H2449 C2457 0.950 . S
H2450 C2455 0.950 . S
H2451 C2456 0.949 . S
H2452 C2458 0.950 . S
H2453 C2459 0.950 1_554 S
H2454 C2460 0.949 . S
C2455 H2450 0.950 . S
C2455 C2457 1.327 . S
C2455 C2461 1.429 . S
C2456 C2448 1.574 . S
C2456 H2451 0.949 . S
C2456 C2462 1.368 . S
C2457 C2441 1.349 . S
C2457 H2449 0.950 . S
C2457 C2455 1.327 . S
C2458 C2446 1.349 . S
C2458 H2452 0.950 . S
C2458 C2459 1.327 1_554 S
C2459 H2453 0.950 1_556 S
C2459 C2458 1.327 1_556 S
C2459 C2463 1.429 . S
C2460 C2443 1.574 . S
C2460 H2454 0.949 . S
C2460 C2464 1.368 . S
C2461 C2442 1.429 . S
C2461 C2455 1.429 . S
C2461 C2462 1.523 . S
C2462 C2443 1.368 . S
C2462 C2456 1.368 . S
C2462 C2461 1.523 . S
C2463 C2447 1.429 . S
C2463 C2459 1.429 . S
C2463 C2464 1.523 . S
C2464 C2448 1.368 . S
C2464 C2460 1.368 . S
C2464 C2463 1.523 . S
H2465 C2440 0.950 . S
H2466 C2442 0.950 . S
H2467 C2443 0.949 . S
H2468 C2445 0.950 . S
H2469 C2447 0.950 . S
C2470 C2471 1.356 . S
C2470 C2472 1.300 1_455 S
C2470 H2495 0.971 . S
C2471 C2470 1.356 . S
C2471 C2487 1.349 1_455 S
C2472 C2470 1.300 1_655 S
C2472 C2491 1.429 . S
C2472 H2496 0.950 . S
C2473 C2490 1.574 . S
C2473 C2492 1.368 . S
C2473 H2497 0.949 . S
H2474 C2478 0.949 . S
C2475 C2476 1.349 . S
C2475 C2477 1.327 . S
C2475 H2498 0.950 . S
C2476 C2475 1.349 . S
C2476 C2488 1.349 . S
C2477 C2475 1.327 . S
C2477 C2493 1.429 . S
C2477 H2499 0.950 . S
C2478 H2474 0.949 . S
C2478 C2486 1.574 . S
C2478 C2494 1.368 . S
H2479 C2487 0.950 . S
H2480 C2485 0.950 . S
H2481 C2486 0.949 . S
H2482 C2488 0.950 . S
H2483 C2489 0.950 . S
H2484 C2490 0.949 . S
C2485 H2480 0.950 . S
C2485 C2487 1.327 . S
C2485 C2491 1.429 . S
C2486 C2478 1.574 . S
C2486 H2481 0.949 . S
C2486 C2492 1.368 . S
C2487 C2471 1.349 1_655 S
C2487 H2479 0.950 . S
C2487 C2485 1.327 . S
C2488 C2476 1.349 . S
C2488 H2482 0.950 . S
C2488 C2489 1.327 . S
C2489 H2483 0.950 . S
C2489 C2488 1.327 . S
C2489 C2493 1.429 . S
C2490 C2473 1.574 . S
C2490 H2484 0.949 . S
C2490 C2494 1.368 . S
C2491 C2472 1.429 . S
C2491 C2485 1.429 . S
C2491 C2492 1.523 . S
C2492 C2473 1.368 . S
C2492 C2486 1.368 . S
C2492 C2491 1.523 . S
C2493 C2477 1.429 . S
C2493 C2489 1.429 . S
C2493 C2494 1.523 . S
C2494 C2478 1.368 . S
C2494 C2490 1.368 . S
C2494 C2493 1.523 . S
H2495 C2470 0.971 . S
H2496 C2472 0.950 . S
H2497 C2473 0.949 . S
H2498 C2475 0.950 . S
H2499 C2477 0.950 . S
C2500 C2501 1.349 . S
C2500 C2502 1.327 . S
C2500 H2525 0.950 . S
C2501 C2500 1.349 . S
C2501 C2517 1.349 . S
C2502 C2500 1.327 . S
C2502 C2521 1.429 . S
C2502 H2526 0.950 . S
C2503 C2520 1.574 . S
C2503 C2522 1.368 . S
C2503 H2527 0.949 . S
H2504 C2508 0.949 . S
C2505 C2506 1.349 . S
C2505 C2507 1.327 . S
C2505 H2528 0.950 . S
C2506 C2505 1.349 . S
C2506 C2518 1.349 . S
C2507 C2505 1.327 . S
C2507 C2523 1.429 . S
C2507 H2529 0.950 . S
C2508 H2504 0.949 . S
C2508 C2516 1.574 . S
C2508 C2524 1.368 . S
H2509 C2517 0.950 . S
H2510 C2515 0.950 . S
H2511 C2516 0.949 . S
H2512 C2518 0.950 . S
H2513 C2519 0.950 . S
H2514 C2520 0.949 . S
C2515 H2510 0.950 . S
C2515 C2517 1.327 . S
C2515 C2521 1.429 . S
C2516 C2508 1.574 . S
C2516 H2511 0.949 . S
C2516 C2522 1.368 . S
C2517 C2501 1.349 . S
C2517 H2509 0.950 . S
C2517 C2515 1.327 . S
C2518 C2506 1.349 . S
C2518 H2512 0.950 . S
C2518 C2519 1.327 . S
C2519 H2513 0.950 . S
C2519 C2518 1.327 . S
C2519 C2523 1.429 . S
C2520 C2503 1.574 . S
C2520 H2514 0.949 . S
C2520 C2524 1.368 . S
C2521 C2502 1.429 . S
C2521 C2515 1.429 . S
C2521 C2522 1.523 . S
C2522 C2503 1.368 . S
C2522 C2516 1.368 . S
C2522 C2521 1.523 . S
C2523 C2507 1.429 . S
C2523 C2519 1.429 . S
C2523 C2524 1.523 . S
C2524 C2508 1.368 . S
C2524 C2520 1.368 . S
C2524 C2523 1.523 . S
H2525 C2500 0.950 . S
H2526 C2502 0.950 . S
H2527 C2503 0.949 . S
H2528 C2505 0.950 . S
H2529 C2507 0.950 . S
C2530 C2531 1.349 . S
C2530 C2532 1.327 . S
C2530 H2555 0.950 . S
C2531 C2530 1.349 . S
C2531 C2547 1.349 . S
C2532 C2530 1.327 . S
C2532 C2551 1.429 . S
C2532 H2556 0.950 . S
C2533 C2550 1.574 . S
C2533 C2552 1.368 . S
C2533 H2557 0.949 . S
H2534 C2538 0.949 . S
C2535 C2536 1.349 . S
C2535 C2537 1.327 . S
C2535 H2558 0.950 . S
C2536 C2535 1.349 . S
C2536 C2548 1.349 . S
C2537 C2535 1.327 . S
C2537 C2553 1.429 . S
C2537 H2559 0.950 . S
C2538 H2534 0.949 . S
C2538 C2546 1.574 . S
C2538 C2554 1.368 . S
H2539 C2547 0.950 . S
H2540 C2545 0.950 . S
H2541 C2546 0.949 . S
H2542 C2548 0.950 . S
H2543 C2549 0.950 . S
H2544 C2550 0.949 . S
C2545 H2540 0.950 . S
C2545 C2547 1.327 . S
C2545 C2551 1.429 . S
C2546 C2538 1.574 . S
C2546 H2541 0.949 . S
C2546 C2552 1.368 . S
C2547 C2531 1.349 . S
C2547 H2539 0.950 . S
C2547 C2545 1.327 . S
C2548 C2536 1.349 . S
C2548 H2542 0.950 . S
C2548 C2549 1.327 . S
C2549 H2543 0.950 . S
C2549 C2548 1.327 . S
C2549 C2553 1.429 . S
C2550 C2533 1.574 . S
C2550 H2544 0.949 . S
C2550 C2554 1.368 . S
C2551 C2532 1.429 . S
C2551 C2545 1.429 . S
C2551 C2552 1.523 . S
C2552 C2533 1.368 . S
C2552 C2546 1.368 . S
C2552 C2551 1.523 . S
C2553 C2537 1.429 . S
C2553 C2549 1.429 . S
C2553 C2554 1.523 . S
C2554 C2538 1.368 . S
C2554 C2550 1.368 . S
C2554 C2553 1.523 . S
H2555 C2530 0.950 . S
H2556 C2532 0.950 . S
H2557 C2533 0.949 . S
H2558 C2535 0.950 . S
H2559 C2537 0.950 . S
C2560 C2561 1.349 . S
C2560 C2562 1.327 . S
C2560 H2585 0.950 . S
C2561 C2560 1.349 . S
C2561 C2577 1.349 . S
C2562 C2560 1.327 . S
C2562 C2581 1.429 . S
C2562 H2586 0.950 . S
C2563 C2580 1.574 . S
C2563 C2582 1.368 . S
C2563 H2587 0.949 . S
H2564 C2568 0.949 . S
C2565 C2566 1.349 . S
C2565 C2567 1.327 . S
C2565 H2588 0.950 . S
C2566 C2565 1.349 . S
C2566 C2578 1.349 . S
C2567 C2565 1.327 . S
C2567 C2583 1.429 . S
C2567 H2589 0.950 . S
C2568 H2564 0.949 . S
C2568 C2576 1.574 . S
C2568 C2584 1.368 . S
H2569 C2577 0.950 . S
H2570 C2575 0.950 . S
H2571 C2576 0.949 . S
H2572 C2578 0.950 . S
H2573 C2579 0.950 . S
H2574 C2580 0.949 . S
C2575 H2570 0.950 . S
C2575 C2577 1.327 . S
C2575 C2581 1.429 . S
C2576 C2568 1.574 . S
C2576 H2571 0.949 . S
C2576 C2582 1.368 . S
C2577 C2561 1.349 . S
C2577 H2569 0.950 . S
C2577 C2575 1.327 . S
C2578 C2566 1.349 . S
C2578 H2572 0.950 . S
C2578 C2579 1.327 . S
C2579 H2573 0.950 . S
C2579 C2578 1.327 . S
C2579 C2583 1.429 . S
C2580 C2563 1.574 . S
C2580 H2574 0.949 . S
C2580 C2584 1.368 . S
C2581 C2562 1.429 . S
C2581 C2575 1.429 . S
C2581 C2582 1.523 . S
C2582 C2563 1.368 . S
C2582 C2576 1.368 . S
C2582 C2581 1.523 . S
C2583 C2567 1.429 . S
C2583 C2579 1.429 . S
C2583 C2584 1.523 . S
C2584 C2568 1.368 . S
C2584 C2580 1.368 . S
C2584 C2583 1.523 . S
H2585 C2560 0.950 . S
H2586 C2562 0.950 . S
H2587 C2563 0.949 . S
H2588 C2565 0.950 . S
H2589 C2567 0.950 . S
C2590 C2591 1.349 . S
C2590 C2592 1.327 . S
C2590 H2615 0.950 . S
C2591 C2590 1.349 . S
C2591 C2607 1.349 . S
C2592 C2590 1.327 . S
C2592 C2611 1.429 . S
C2592 H2616 0.950 . S
C2593 C2610 1.574 . S
C2593 C2612 1.368 . S
C2593 H2617 0.949 . S
H2594 C2598 0.949 . S
C2595 C2596 1.349 . S
C2595 C2597 1.327 . S
C2595 H2618 0.950 . S
C2596 C2595 1.349 . S
C2596 C2608 1.349 . S
C2597 C2595 1.327 . S
C2597 C2613 1.429 . S
C2597 H2619 0.950 . S
C2598 H2594 0.949 . S
C2598 C2606 1.574 . S
C2598 C2614 1.368 . S
H2599 C2607 0.950 1_554 S
H2600 C2605 0.950 . S
H2601 C2606 0.949 . S
H2602 C2608 0.950 . S
H2603 C2609 0.950 . S
H2604 C2610 0.949 . S
C2605 H2600 0.950 . S
C2605 C2607 1.327 . S
C2605 C2611 1.429 . S
C2606 C2598 1.574 . S
C2606 H2601 0.949 . S
C2606 C2612 1.368 . S
C2607 C2591 1.349 . S
C2607 H2599 0.950 1_556 S
C2607 C2605 1.327 . S
C2608 C2596 1.349 . S
C2608 H2602 0.950 . S
C2608 C2609 1.327 . S
C2609 H2603 0.950 . S
C2609 C2608 1.327 . S
C2609 C2613 1.429 . S
C2610 C2593 1.574 . S
C2610 H2604 0.949 . S
C2610 C2614 1.368 . S
C2611 C2592 1.429 . S
C2611 C2605 1.429 . S
C2611 C2612 1.523 . S
C2612 C2593 1.368 . S
C2612 C2606 1.368 . S
C2612 C2611 1.523 . S
C2613 C2597 1.429 . S
C2613 C2609 1.429 . S
C2613 C2614 1.523 . S
C2614 C2598 1.368 . S
C2614 C2610 1.368 . S
C2614 C2613 1.523 . S
H2615 C2590 0.950 . S
H2616 C2592 0.950 . S
H2617 C2593 0.949 . S
H2618 C2595 0.950 . S
H2619 C2597 0.950 . S
C2620 C2621 1.349 . S
C2620 C2622 1.327 . S
C2620 H2645 0.950 . S
C2621 C2620 1.349 . S
C2621 C2637 1.349 . S
C2622 C2620 1.327 . S
C2622 C2641 1.429 . S
C2622 H2646 0.950 . S
C2623 C2640 1.574 . S
C2623 C2642 1.368 . S
C2623 H2647 0.949 . S
H2624 C2628 0.949 . S
C2625 C2626 1.349 1_655 S
C2625 C2627 1.327 . S
C2625 H2648 0.950 . S
C2626 C2625 1.349 1_455 S
C2626 C2638 1.349 . S
C2627 C2625 1.327 . S
C2627 C2643 1.429 . S
C2627 H2649 0.950 . S
C2628 H2624 0.949 . S
C2628 C2636 1.574 . S
C2628 C2644 1.368 . S
H2629 C2637 0.950 . S
H2630 C2635 0.950 . S
H2631 C2636 0.949 . S
H2632 C2638 0.950 . S
H2633 C2639 0.941 1_455 S
H2634 C2640 0.949 . S
C2635 H2630 0.950 . S
C2635 C2637 1.327 . S
C2635 C2641 1.429 . S
C2636 C2628 1.574 . S
C2636 H2631 0.949 . S
C2636 C2642 1.368 . S
C2637 C2621 1.349 . S
C2637 H2629 0.950 . S
C2637 C2635 1.327 . S
C2638 C2626 1.349 . S
C2638 H2632 0.950 . S
C2638 C2639 1.315 1_455 S
C2639 H2633 0.941 1_655 S
C2639 C2638 1.315 1_655 S
C2639 C2643 1.449 . S
C2640 C2623 1.574 . S
C2640 H2634 0.949 . S
C2640 C2644 1.368 . S
C2641 C2622 1.429 . S
C2641 C2635 1.429 . S
C2641 C2642 1.523 . S
C2642 C2623 1.368 . S
C2642 C2636 1.368 . S
C2642 C2641 1.523 . S
C2643 C2627 1.429 . S
C2643 C2639 1.449 . S
C2643 C2644 1.523 . S
C2644 C2628 1.368 . S
C2644 C2640 1.368 . S
C2644 C2643 1.523 . S
H2645 C2620 0.950 . S
H2646 C2622 0.950 . S
H2647 C2623 0.949 . S
H2648 C2625 0.950 . S
H2649 C2627 0.950 . S
C2650 C2651 1.349 . S
C2650 C2652 1.327 . S
C2650 H2675 0.950 . S
C2651 C2650 1.349 . S
C2651 C2667 1.349 . S
C2652 C2650 1.327 . S
C2652 C2671 1.429 . S
C2652 H2676 0.950 . S
C2653 C2670 1.574 . S
C2653 C2672 1.368 . S
C2653 H2677 0.949 . S
H2654 C2658 0.949 . S
C2655 C2656 1.349 . S
C2655 C2657 1.327 . S
C2655 H2678 0.950 . S
C2656 C2655 1.349 . S
C2656 C2668 1.349 . S
C2657 C2655 1.327 . S
C2657 C2673 1.429 . S
C2657 H2679 0.950 . S
C2658 H2654 0.949 . S
C2658 C2666 1.574 . S
C2658 C2674 1.368 . S
H2659 C2667 0.950 . S
H2660 C2665 0.950 . S
H2661 C2666 0.949 . S
H2662 C2668 0.950 . S
H2663 C2669 0.950 . S
H2664 C2670 0.949 . S
C2665 H2660 0.950 . S
C2665 C2667 1.327 . S
C2665 C2671 1.429 . S
C2666 C2658 1.574 . S
C2666 H2661 0.949 . S
C2666 C2672 1.368 . S
C2667 C2651 1.349 . S
C2667 H2659 0.950 . S
C2667 C2665 1.327 . S
C2668 C2656 1.349 . S
C2668 H2662 0.950 . S
C2668 C2669 1.327 . S
C2669 H2663 0.950 . S
C2669 C2668 1.327 . S
C2669 C2673 1.429 . S
C2670 C2653 1.574 . S
C2670 H2664 0.949 . S
C2670 C2674 1.368 . S
C2671 C2652 1.429 . S
C2671 C2665 1.429 . S
C2671 C2672 1.523 . S
C2672 C2653 1.368 . S
C2672 C2666 1.368 . S
C2672 C2671 1.523 . S
C2673 C2657 1.429 . S
C2673 C2669 1.429 . S
C2673 C2674 1.523 . S
C2674 C2658 1.368 . S
C2674 C2670 1.368 . S
C2674 C2673 1.523 . S
H2675 C2650 0.950 . S
H2676 C2652 0.950 . S
H2677 C2653 0.949 . S
H2678 C2655 0.950 . S
H2679 C2657 0.950 . S
C2680 C2681 1.349 . S
C2680 C2682 1.327 . S
C2680 H2705 0.950 . S
C2681 C2680 1.349 . S
C2681 C2697 1.349 . S
C2682 C2680 1.327 . S
C2682 C2701 1.429 . S
C2682 H2706 0.950 . S
C2683 C2700 1.574 . S
C2683 C2702 1.368 . S
C2683 H2707 0.949 . S
H2684 C2688 0.949 . S
C2685 C2686 1.349 . S
C2685 C2687 1.327 . S
C2685 H2708 0.950 . S
C2686 C2685 1.349 . S
C2686 C2698 1.349 . S
C2687 C2685 1.327 . S
C2687 C2703 1.429 . S
C2687 H2709 0.950 . S
C2688 H2684 0.949 . S
C2688 C2696 1.574 . S
C2688 C2704 1.368 . S
H2689 C2697 0.950 . S
H2690 C2695 0.950 . S
H2691 C2696 0.949 . S
H2692 C2698 0.950 . S
H2693 C2699 0.950 . S
H2694 C2700 0.949 . S
C2695 H2690 0.950 . S
C2695 C2697 1.327 . S
C2695 C2701 1.429 . S
C2696 C2688 1.574 . S
C2696 H2691 0.949 . S
C2696 C2702 1.368 . S
C2697 C2681 1.349 . S
C2697 H2689 0.950 . S
C2697 C2695 1.327 . S
C2698 C2686 1.349 . S
C2698 H2692 0.950 . S
C2698 C2699 1.327 . S
C2699 H2693 0.950 . S
C2699 C2698 1.327 . S
C2699 C2703 1.429 . S
C2700 C2683 1.574 . S
C2700 H2694 0.949 . S
C2700 C2704 1.368 . S
C2701 C2682 1.429 . S
C2701 C2695 1.429 . S
C2701 C2702 1.523 . S
C2702 C2683 1.368 . S
C2702 C2696 1.368 . S
C2702 C2701 1.523 . S
C2703 C2687 1.429 . S
C2703 C2699 1.429 . S
C2703 C2704 1.523 . S
C2704 C2688 1.368 . S
C2704 C2700 1.368 . S
C2704 C2703 1.523 . S
H2705 C2680 0.950 . S
H2706 C2682 0.950 . S
H2707 C2683 0.949 . S
H2708 C2685 0.950 . S
H2709 C2687 0.950 . S
C2710 C2711 1.349 . S
C2710 C2712 1.327 . S
C2710 H2735 0.950 . S
C2711 C2710 1.349 . S
C2711 C2727 1.349 . S
C2712 C2710 1.327 . S
C2712 C2731 1.429 . S
C2712 H2736 0.950 . S
C2713 C2730 1.574 . S
C2713 C2732 1.368 . S
C2713 H2737 0.949 . S
H2714 C2718 0.949 . S
C2715 C2716 1.349 . S
C2715 C2717 1.327 . S
C2715 H2738 0.950 . S
C2716 C2715 1.349 . S
C2716 C2728 1.349 . S
C2717 C2715 1.327 . S
C2717 C2733 1.429 . S
C2717 H2739 0.950 . S
C2718 H2714 0.949 . S
C2718 C2726 1.574 . S
C2718 C2734 1.368 . S
H2719 C2727 0.950 . S
H2720 C2725 0.950 . S
H2721 C2726 0.949 . S
H2722 C2728 0.950 . S
H2723 C2729 0.950 . S
H2724 C2730 0.949 . S
C2725 H2720 0.950 . S
C2725 C2727 1.327 . S
C2725 C2731 1.429 . S
C2726 C2718 1.574 . S
C2726 H2721 0.949 . S
C2726 C2732 1.368 . S
C2727 C2711 1.349 . S
C2727 H2719 0.950 . S
C2727 C2725 1.327 . S
C2728 C2716 1.349 . S
C2728 H2722 0.950 . S
C2728 C2729 1.327 . S
C2729 H2723 0.950 . S
C2729 C2728 1.327 . S
C2729 C2733 1.429 . S
C2730 C2713 1.574 . S
C2730 H2724 0.949 . S
C2730 C2734 1.368 . S
C2731 C2712 1.429 . S
C2731 C2725 1.429 . S
C2731 C2732 1.523 . S
C2732 C2713 1.368 . S
C2732 C2726 1.368 . S
C2732 C2731 1.523 . S
C2733 C2717 1.429 . S
C2733 C2729 1.429 . S
C2733 C2734 1.523 . S
C2734 C2718 1.368 . S
C2734 C2730 1.368 . S
C2734 C2733 1.523 . S
H2735 C2710 0.950 . S
H2736 C2712 0.950 . S
H2737 C2713 0.949 . S
H2738 C2715 0.950 . S
H2739 C2717 0.950 . S
C2740 C2741 1.349 . S
C2740 C2742 1.327 . S
C2740 H2765 0.950 . S
C2741 C2740 1.349 . S
C2741 C2757 1.349 . S
C2742 C2740 1.327 . S
C2742 C2761 1.429 . S
C2742 H2766 0.950 . S
C2743 C2760 1.574 . S
C2743 C2762 1.368 . S
C2743 H2767 0.949 . S
H2744 C2748 0.949 . S
C2745 C2746 1.349 . S
C2745 C2747 1.327 . S
C2745 H2768 0.950 . S
C2746 C2745 1.349 . S
C2746 C2758 1.349 . S
C2747 C2745 1.327 . S
C2747 C2763 1.429 . S
C2747 H2769 0.950 . S
C2748 H2744 0.949 . S
C2748 C2756 1.574 . S
C2748 C2764 1.368 . S
H2749 C2757 0.950 . S
H2750 C2755 0.950 . S
H2751 C2756 0.949 . S
H2752 C2758 0.936 1_455 S
H2753 C2759 0.950 . S
H2754 C2760 0.949 . S
C2755 H2750 0.950 . S
C2755 C2757 1.327 . S
C2755 C2761 1.429 . S
C2756 C2748 1.574 . S
C2756 H2751 0.949 . S
C2756 C2762 1.368 . S
C2757 C2741 1.349 . S
C2757 H2749 0.950 . S
C2757 C2755 1.327 . S
C2758 C2746 1.349 . S
C2758 H2752 0.936 1_655 S
C2758 C2759 1.327 . S
C2759 H2753 0.950 . S
C2759 C2758 1.327 . S
C2759 C2763 1.429 . S
C2760 C2743 1.574 . S
C2760 H2754 0.949 . S
C2760 C2764 1.368 . S
C2761 C2742 1.429 . S
C2761 C2755 1.429 . S
C2761 C2762 1.523 . S
C2762 C2743 1.368 . S
C2762 C2756 1.368 . S
C2762 C2761 1.523 . S
C2763 C2747 1.429 . S
C2763 C2759 1.429 . S
C2763 C2764 1.523 . S
C2764 C2748 1.368 . S
C2764 C2760 1.368 . S
C2764 C2763 1.523 . S
H2765 C2740 0.950 . S
H2766 C2742 0.950 . S
H2767 C2743 0.949 . S
H2768 C2745 0.950 . S
H2769 C2747 0.950 . S
C2770 C2771 1.349 . S
C2770 C2772 1.327 . S
C2770 H2795 0.950 . S
C2771 C2770 1.349 . S
C2771 C2787 1.349 . S
C2772 C2770 1.327 . S
C2772 C2791 1.429 . S
C2772 H2796 0.950 . S
C2773 C2790 1.574 . S
C2773 C2792 1.368 . S
C2773 H2797 0.949 . S
H2774 C2778 0.949 . S
C2775 C2776 1.349 . S
C2775 C2777 1.327 . S
C2775 H2798 0.950 . S
C2776 C2775 1.349 . S
C2776 C2788 1.349 . S
C2777 C2775 1.327 . S
C2777 C2793 1.429 . S
C2777 H2799 0.950 . S
C2778 H2774 0.949 . S
C2778 C2786 1.574 . S
C2778 C2794 1.368 . S
H2779 C2787 0.950 . S
H2780 C2785 0.950 . S
H2781 C2786 0.949 . S
H2782 C2788 0.950 . S
H2783 C2789 0.950 . S
H2784 C2790 0.949 . S
C2785 H2780 0.950 . S
C2785 C2787 1.327 . S
C2785 C2791 1.429 . S
C2786 C2778 1.574 . S
C2786 H2781 0.949 . S
C2786 C2792 1.368 . S
C2787 C2771 1.349 . S
C2787 H2779 0.950 . S
C2787 C2785 1.327 . S
C2788 C2776 1.349 . S
C2788 H2782 0.950 . S
C2788 C2789 1.327 . S
C2789 H2783 0.950 . S
C2789 C2788 1.327 . S
C2789 C2793 1.429 . S
C2790 C2773 1.574 . S
C2790 H2784 0.949 . S
C2790 C2794 1.368 . S
C2791 C2772 1.429 . S
C2791 C2785 1.429 . S
C2791 C2792 1.523 . S
C2792 C2773 1.368 . S
C2792 C2786 1.368 . S
C2792 C2791 1.523 . S
C2793 C2777 1.429 . S
C2793 C2789 1.429 . S
C2793 C2794 1.523 . S
C2794 C2778 1.368 . S
C2794 C2790 1.368 . S
C2794 C2793 1.523 . S
H2795 C2770 0.950 . S
H2796 C2772 0.950 . S
H2797 C2773 0.949 . S
H2798 C2775 0.950 . S
H2799 C2777 0.950 . S
C2800 C2801 1.349 . S
C2800 C2802 1.327 . S
C2800 H2825 0.950 . S
C2801 C2800 1.349 . S
C2801 C2817 1.349 . S
C2802 C2800 1.327 . S
C2802 C2821 1.429 . S
C2802 H2826 0.950 . S
C2803 C2820 1.574 . S
C2803 C2822 1.368 . S
C2803 H2827 0.949 . S
H2804 C2808 0.949 . S
C2805 C2806 1.349 . S
C2805 C2807 1.327 . S
C2805 H2828 0.950 . S
C2806 C2805 1.349 . S
C2806 C2818 1.349 . S
C2807 C2805 1.327 . S
C2807 C2823 1.429 . S
C2807 H2829 0.950 . S
C2808 H2804 0.949 . S
C2808 C2816 1.574 . S
C2808 C2824 1.368 . S
H2809 C2817 0.950 . S
H2810 C2815 0.950 . S
H2811 C2816 0.949 . S
H2812 C2818 0.950 . S
H2813 C2819 0.950 . S
H2814 C2820 0.949 . S
C2815 H2810 0.950 . S
C2815 C2817 1.327 . S
C2815 C2821 1.429 . S
C2816 C2808 1.574 . S
C2816 H2811 0.949 . S
C2816 C2822 1.368 . S
C2817 C2801 1.349 . S
C2817 H2809 0.950 . S
C2817 C2815 1.327 . S
C2818 C2806 1.349 . S
C2818 H2812 0.950 . S
C2818 C2819 1.327 . S
C2819 H2813 0.950 . S
C2819 C2818 1.327 . S
C2819 C2823 1.429 . S
C2820 C2803 1.574 . S
C2820 H2814 0.949 . S
C2820 C2824 1.368 . S
C2821 C2802 1.429 . S
C2821 C2815 1.429 . S
C2821 C2822 1.523 . S
C2822 C2803 1.368 . S
C2822 C2816 1.368 . S
C2822 C2821 1.523 . S
C2823 C2807 1.429 . S
C2823 C2819 1.429 . S
C2823 C2824 1.523 . S
C2824 C2808 1.368 . S
C2824 C2820 1.368 . S
C2824 C2823 1.523 . S
H2825 C2800 0.950 . S
H2826 C2802 0.950 . S
H2827 C2803 0.949 . S
H2828 C2805 0.950 . S
H2829 C2807 0.950 . S
C2830 C2831 1.349 . S
C2830 C2832 1.327 . S
C2830 H2855 0.950 . S
C2831 C2830 1.349 . S
C2831 C2847 1.349 . S
C2832 C2830 1.327 . S
C2832 C2851 1.429 . S
C2832 H2856 0.950 . S
C2833 C2850 1.574 . S
C2833 C2852 1.368 . S
C2833 H2857 0.949 . S
H2834 C2838 0.949 . S
C2835 C2836 1.349 . S
C2835 C2837 1.327 . S
C2835 H2858 0.950 . S
C2836 C2835 1.349 . S
C2836 C2848 1.349 . S
C2837 C2835 1.327 . S
C2837 C2853 1.429 . S
C2837 H2859 0.950 . S
C2838 H2834 0.949 . S
C2838 C2846 1.574 . S
C2838 C2854 1.368 . S
H2839 C2847 0.950 . S
H2840 C2845 0.950 . S
H2841 C2846 0.949 . S
H2842 C2848 0.950 1_545 S
H2843 C2849 0.950 . S
H2844 C2850 0.949 . S
C2845 H2840 0.950 . S
C2845 C2847 1.327 . S
C2845 C2851 1.429 . S
C2846 C2838 1.574 . S
C2846 H2841 0.949 . S
C2846 C2852 1.368 . S
C2847 C2831 1.349 . S
C2847 H2839 0.950 . S
C2847 C2845 1.327 . S
C2848 C2836 1.349 . S
C2848 H2842 0.950 1_565 S
C2848 C2849 1.327 . S
C2849 H2843 0.950 . S
C2849 C2848 1.327 . S
C2849 C2853 1.429 . S
C2850 C2833 1.574 . S
C2850 H2844 0.949 . S
C2850 C2854 1.368 . S
C2851 C2832 1.429 . S
C2851 C2845 1.429 . S
C2851 C2852 1.523 . S
C2852 C2833 1.368 . S
C2852 C2846 1.368 . S
C2852 C2851 1.523 . S
C2853 C2837 1.429 . S
C2853 C2849 1.429 . S
C2853 C2854 1.523 . S
C2854 C2838 1.368 . S
C2854 C2850 1.368 . S
C2854 C2853 1.523 . S
H2855 C2830 0.950 . S
H2856 C2832 0.950 . S
H2857 C2833 0.949 . S
H2858 C2835 0.950 . S
H2859 C2837 0.950 . S
C2860 C2861 1.349 . S
C2860 C2862 1.327 . S
C2860 H2885 0.950 . S
C2861 C2860 1.349 . S
C2861 C2877 1.349 . S
C2862 C2860 1.327 . S
C2862 C2881 1.429 . S
C2862 H2886 0.950 . S
C2863 C2880 1.574 . S
C2863 C2882 1.368 . S
C2863 H2887 0.949 . S
H2864 C2868 0.949 . S
C2865 C2866 1.349 . S
C2865 C2867 1.327 . S
C2865 H2888 0.950 . S
C2866 C2865 1.349 . S
C2866 C2878 1.349 . S
C2867 C2865 1.327 . S
C2867 C2883 1.429 . S
C2867 H2889 0.950 . S
C2868 H2864 0.949 . S
C2868 C2876 1.574 . S
C2868 C2884 1.368 . S
H2869 C2877 0.950 . S
H2870 C2875 0.950 . S
H2871 C2876 0.949 . S
H2872 C2878 0.950 . S
H2873 C2879 0.950 . S
H2874 C2880 0.949 . S
C2875 H2870 0.950 . S
C2875 C2877 1.327 . S
C2875 C2881 1.429 . S
C2876 C2868 1.574 . S
C2876 H2871 0.949 . S
C2876 C2882 1.368 . S
C2877 C2861 1.349 . S
C2877 H2869 0.950 . S
C2877 C2875 1.327 . S
C2878 C2866 1.349 . S
C2878 H2872 0.950 . S
C2878 C2879 1.327 . S
C2879 H2873 0.950 . S
C2879 C2878 1.327 . S
C2879 C2883 1.429 . S
C2880 C2863 1.574 . S
C2880 H2874 0.949 . S
C2880 C2884 1.368 . S
C2881 C2862 1.429 . S
C2881 C2875 1.429 . S
C2881 C2882 1.523 . S
C2882 C2863 1.368 . S
C2882 C2876 1.368 . S
C2882 C2881 1.523 . S
C2883 C2867 1.429 . S
C2883 C2879 1.429 . S
C2883 C2884 1.523 . S
C2884 C2868 1.368 . S
C2884 C2880 1.368 . S
C2884 C2883 1.523 . S
H2885 C2860 0.950 . S
H2886 C2862 0.950 . S
H2887 C2863 0.949 . S
H2888 C2865 0.950 . S
H2889 C2867 0.950 . S
C2890 C2891 1.349 . S
C2890 C2892 1.327 . S
C2890 H2915 0.950 . S
C2891 C2890 1.349 . S
C2891 C2907 1.349 . S
C2892 C2890 1.327 . S
C2892 C2911 1.429 . S
C2892 H2916 0.950 . S
C2893 C2910 1.574 . S
C2893 C2912 1.368 . S
C2893 H2917 0.949 . S
H2894 C2898 0.949 . S
C2895 C2896 1.349 . S
C2895 C2897 1.327 . S
C2895 H2918 0.950 . S
C2896 C2895 1.349 . S
C2896 C2908 1.349 . S
C2897 C2895 1.327 . S
C2897 C2913 1.429 . S
C2897 H2919 0.950 . S
C2898 H2894 0.949 . S
C2898 C2906 1.574 . S
C2898 C2914 1.368 . S
H2899 C2907 0.950 1_556 S
H2900 C2905 0.946 . S
H2901 C2906 0.949 . S
H2902 C2908 0.950 . S
H2903 C2909 0.950 . S
H2904 C2910 0.949 . S
C2905 H2900 0.946 . S
C2905 C2907 1.327 . S
C2905 C2911 1.429 . S
C2906 C2898 1.574 . S
C2906 H2901 0.949 . S
C2906 C2912 1.368 . S
C2907 C2891 1.349 . S
C2907 H2899 0.950 1_554 S
C2907 C2905 1.327 . S
C2908 C2896 1.349 . S
C2908 H2902 0.950 . S
C2908 C2909 1.327 . S
C2909 H2903 0.950 . S
C2909 C2908 1.327 . S
C2909 C2913 1.429 . S
C2910 C2893 1.574 . S
C2910 H2904 0.949 . S
C2910 C2914 1.368 . S
C2911 C2892 1.429 . S
C2911 C2905 1.429 . S
C2911 C2912 1.523 . S
C2912 C2893 1.368 . S
C2912 C2906 1.368 . S
C2912 C2911 1.523 . S
C2913 C2897 1.429 . S
C2913 C2909 1.429 . S
C2913 C2914 1.523 . S
C2914 C2898 1.368 . S
C2914 C2910 1.368 . S
C2914 C2913 1.523 . S
H2915 C2890 0.950 . S
H2916 C2892 0.950 . S
H2917 C2893 0.949 . S
H2918 C2895 0.950 . S
H2919 C2897 0.950 . S
C2920 C2921 1.349 . S
C2920 C2922 1.327 . S
C2920 H2945 0.950 . S
C2921 C2920 1.349 . S
C2921 C2937 1.349 . S
C2922 C2920 1.327 . S
C2922 C2941 1.429 . S
C2922 H2946 0.950 . S
C2923 C2940 1.574 . S
C2923 C2942 1.368 . S
C2923 H2947 0.949 . S
H2924 C2928 0.949 . S
C2925 C2926 1.349 . S
C2925 C2927 1.327 . S
C2925 H2948 0.950 . S
C2926 C2925 1.349 . S
C2926 C2938 1.349 . S
C2927 C2925 1.327 . S
C2927 C2943 1.429 . S
C2927 H2949 0.950 . S
C2928 H2924 0.949 . S
C2928 C2936 1.574 . S
C2928 C2944 1.368 . S
H2929 C2937 0.950 . S
H2930 C2935 0.950 . S
H2931 C2936 0.949 . S
H2932 C2938 0.950 . S
H2933 C2939 0.950 . S
H2934 C2940 0.949 . S
C2935 H2930 0.950 . S
C2935 C2937 1.327 . S
C2935 C2941 1.429 . S
C2936 C2928 1.574 . S
C2936 H2931 0.949 . S
C2936 C2942 1.368 . S
C2937 C2921 1.349 . S
C2937 H2929 0.950 . S
C2937 C2935 1.327 . S
C2938 C2926 1.349 . S
C2938 H2932 0.950 . S
C2938 C2939 1.327 . S
C2939 H2933 0.950 . S
C2939 C2938 1.327 . S
C2939 C2943 1.429 . S
C2940 C2923 1.574 . S
C2940 H2934 0.949 . S
C2940 C2944 1.368 . S
C2941 C2922 1.429 . S
C2941 C2935 1.429 . S
C2941 C2942 1.523 . S
C2942 C2923 1.368 . S
C2942 C2936 1.368 . S
C2942 C2941 1.523 . S
C2943 C2927 1.429 . S
C2943 C2939 1.429 . S
C2943 C2944 1.523 . S
C2944 C2928 1.368 . S
C2944 C2940 1.368 . S
C2944 C2943 1.523 . S
H2945 C2920 0.950 . S
H2946 C2922 0.950 . S
H2947 C2923 0.949 . S
H2948 C2925 0.950 . S
H2949 C2927 0.950 . S
C2950 C2951 1.349 . S
C2950 C2952 1.327 . S
C2950 H2975 0.950 . S
C2951 C2950 1.349 . S
C2951 C2967 1.349 . S
C2952 C2950 1.327 . S
C2952 C2971 1.429 . S
C2952 H2976 0.950 . S
C2953 C2970 1.574 . S
C2953 C2972 1.368 . S
C2953 H2977 0.949 . S
H2954 C2958 0.949 . S
C2955 C2956 1.349 . S
C2955 C2957 1.327 . S
C2955 H2978 0.950 1_554 S
C2956 C2955 1.349 . S
C2956 C2968 1.349 . S
C2957 C2955 1.327 . S
C2957 C2973 1.429 . S
C2957 H2979 0.950 . S
C2958 H2954 0.949 . S
C2958 C2966 1.574 . S
C2958 C2974 1.368 . S
H2959 C2967 0.950 . S
H2960 C2965 0.950 . S
H2961 C2966 0.949 . S
H2962 C2968 0.950 . S
H2963 C2969 0.950 . S
H2964 C2970 0.949 . S
C2965 H2960 0.950 . S
C2965 C2967 1.327 . S
C2965 C2971 1.429 . S
C2966 C2958 1.574 . S
C2966 H2961 0.949 . S
C2966 C2972 1.368 . S
C2967 C2951 1.349 . S
C2967 H2959 0.950 . S
C2967 C2965 1.327 . S
C2968 C2956 1.349 . S
C2968 H2962 0.950 . S
C2968 C2969 1.327 . S
C2969 H2963 0.950 . S
C2969 C2968 1.327 . S
C2969 C2973 1.429 . S
C2970 C2953 1.574 . S
C2970 H2964 0.949 . S
C2970 C2974 1.368 . S
C2971 C2952 1.429 . S
C2971 C2965 1.429 . S
C2971 C2972 1.523 . S
C2972 C2953 1.368 . S
C2972 C2966 1.368 . S
C2972 C2971 1.523 . S
C2973 C2957 1.429 . S
C2973 C2969 1.429 . S
C2973 C2974 1.523 . S
C2974 C2958 1.368 . S
C2974 C2970 1.368 . S
C2974 C2973 1.523 . S
H2975 C2950 0.950 . S
H2976 C2952 0.950 . S
H2977 C2953 0.949 . S
H2978 C2955 0.950 1_556 S
H2979 C2957 0.950 . S
C2980 C2981 1.349 . S
C2980 C2982 1.327 . S
C2980 H3005 0.950 . S
C2981 C2980 1.349 . S
C2981 C2997 1.349 . S
C2982 C2980 1.327 . S
C2982 C3001 1.429 . S
C2982 H3006 0.950 . S
C2983 C3000 1.574 . S
C2983 C3002 1.368 . S
C2983 H3007 0.949 . S
H2984 C2988 0.949 . S
C2985 C2986 1.349 . S
C2985 C2987 1.327 . S
C2985 H3008 0.950 . S
C2986 C2985 1.349 . S
C2986 C2998 1.349 . S
C2987 C2985 1.327 . S
C2987 C3003 1.429 . S
C2987 H3009 0.950 . S
C2988 H2984 0.949 . S
C2988 C2996 1.574 . S
C2988 C3004 1.368 . S
H2989 C2997 0.950 . S
H2990 C2995 0.950 . S
H2991 C2996 0.949 . S
H2992 C2998 0.950 . S
H2993 C2999 0.950 . S
H2994 C3000 0.949 . S
C2995 H2990 0.950 . S
C2995 C2997 1.327 . S
C2995 C3001 1.429 . S
C2996 C2988 1.574 . S
C2996 H2991 0.949 . S
C2996 C3002 1.368 . S
C2997 C2981 1.349 . S
C2997 H2989 0.950 . S
C2997 C2995 1.327 . S
C2998 C2986 1.349 . S
C2998 H2992 0.950 . S
C2998 C2999 1.327 . S
C2999 H2993 0.950 . S
C2999 C2998 1.327 . S
C2999 C3003 1.429 . S
C3000 C2983 1.574 . S
C3000 H2994 0.949 . S
C3000 C3004 1.368 . S
C3001 C2982 1.429 . S
C3001 C2995 1.429 . S
C3001 C3002 1.523 . S
C3002 C2983 1.368 . S
C3002 C2996 1.368 . S
C3002 C3001 1.523 . S
C3003 C2987 1.429 . S
C3003 C2999 1.429 . S
C3003 C3004 1.523 . S
C3004 C2988 1.368 . S
C3004 C3000 1.368 . S
C3004 C3003 1.523 . S
H3005 C2980 0.950 . S
H3006 C2982 0.950 . S
H3007 C2983 0.949 . S
H3008 C2985 0.950 . S
H3009 C2987 0.950 . S
C3010 C3011 1.349 . S
C3010 C3012 1.327 . S
C3010 H3035 0.950 . S
C3011 C3010 1.349 . S
C3011 C3027 1.349 . S
C3012 C3010 1.327 . S
C3012 C3031 1.429 . S
C3012 H3036 0.950 . S
C3013 C3030 1.574 . S
C3013 C3032 1.368 . S
C3013 H3037 0.949 . S
H3014 C3018 0.949 . S
C3015 C3016 1.349 . S
C3015 C3017 1.327 . S
C3015 H3038 0.950 . S
C3016 C3015 1.349 . S
C3016 C3028 1.349 . S
C3017 C3015 1.327 . S
C3017 C3033 1.429 . S
C3017 H3039 0.950 . S
C3018 H3014 0.949 . S
C3018 C3026 1.574 . S
C3018 C3034 1.368 . S
H3019 C3027 0.950 . S
H3020 C3025 0.950 . S
H3021 C3026 0.949 . S
H3022 C3028 0.950 . S
H3023 C3029 0.950 . S
H3024 C3030 0.949 . S
C3025 H3020 0.950 . S
C3025 C3027 1.327 . S
C3025 C3031 1.429 . S
C3026 C3018 1.574 . S
C3026 H3021 0.949 . S
C3026 C3032 1.368 . S
C3027 C3011 1.349 . S
C3027 H3019 0.950 . S
C3027 C3025 1.327 . S
C3028 C3016 1.349 . S
C3028 H3022 0.950 . S
C3028 C3029 1.327 . S
C3029 H3023 0.950 . S
C3029 C3028 1.327 . S
C3029 C3033 1.429 . S
C3030 C3013 1.574 . S
C3030 H3024 0.949 . S
C3030 C3034 1.368 . S
C3031 C3012 1.429 . S
C3031 C3025 1.429 . S
C3031 C3032 1.523 . S
C3032 C3013 1.368 . S
C3032 C3026 1.368 . S
C3032 C3031 1.523 . S
C3033 C3017 1.429 . S
C3033 C3029 1.429 . S
C3033 C3034 1.523 . S
C3034 C3018 1.368 . S
C3034 C3030 1.368 . S
C3034 C3033 1.523 . S
H3035 C3010 0.950 . S
H3036 C3012 0.950 . S
H3037 C3013 0.949 . S
H3038 C3015 0.950 . S
H3039 C3017 0.950 . S
C3040 C3041 1.349 . S
C3040 C3042 1.327 . S
C3040 H3065 0.950 . S
C3041 C3040 1.349 . S
C3041 C3057 1.349 . S
C3042 C3040 1.327 . S
C3042 C3061 1.429 . S
C3042 H3066 0.950 . S
C3043 C3060 1.574 . S
C3043 C3062 1.368 . S
C3043 H3067 0.949 . S
H3044 C3048 0.949 . S
C3045 C3046 1.349 . S
C3045 C3047 1.327 . S
C3045 H3068 0.950 . S
C3046 C3045 1.349 . S
C3046 C3058 1.349 . S
C3047 C3045 1.327 . S
C3047 C3063 1.429 . S
C3047 H3069 0.950 . S
C3048 H3044 0.949 . S
C3048 C3056 1.574 . S
C3048 C3064 1.368 . S
H3049 C3057 0.950 . S
H3050 C3055 0.950 . S
H3051 C3056 0.949 . S
H3052 C3058 0.950 . S
H3053 C3059 0.950 . S
H3054 C3060 0.949 . S
C3055 H3050 0.950 . S
C3055 C3057 1.327 . S
C3055 C3061 1.429 . S
C3056 C3048 1.574 . S
C3056 H3051 0.949 . S
C3056 C3062 1.368 . S
C3057 C3041 1.349 . S
C3057 H3049 0.950 . S
C3057 C3055 1.327 . S
C3058 C3046 1.349 . S
C3058 H3052 0.950 . S
C3058 C3059 1.327 . S
C3059 H3053 0.950 . S
C3059 C3058 1.327 . S
C3059 C3063 1.429 . S
C3060 C3043 1.574 . S
C3060 H3054 0.949 . S
C3060 C3064 1.368 . S
C3061 C3042 1.429 . S
C3061 C3055 1.429 . S
C3061 C3062 1.523 . S
C3062 C3043 1.368 . S
C3062 C3056 1.368 . S
C3062 C3061 1.523 . S
C3063 C3047 1.429 . S
C3063 C3059 1.429 . S
C3063 C3064 1.523 . S
C3064 C3048 1.368 . S
C3064 C3060 1.368 . S
C3064 C3063 1.523 . S
H3065 C3040 0.950 . S
H3066 C3042 0.950 . S
H3067 C3043 0.949 . S
H3068 C3045 0.950 . S
H3069 C3047 0.950 . S
C3070 C3071 1.349 . S
C3070 C3072 1.327 . S
C3070 H3095 0.950 . S
C3071 C3070 1.349 . S
C3071 C3087 1.349 . S
C3072 C3070 1.327 . S
C3072 C3091 1.429 . S
C3072 H3096 0.950 . S
C3073 C3090 1.574 . S
C3073 C3092 1.368 . S
C3073 H3097 0.949 . S
H3074 C3078 0.949 . S
C3075 C3076 1.349 . S
C3075 C3077 1.327 . S
C3075 H3098 0.950 . S
C3076 C3075 1.349 . S
C3076 C3088 1.349 . S
C3077 C3075 1.327 . S
C3077 C3093 1.429 . S
C3077 H3099 0.950 . S
C3078 H3074 0.949 . S
C3078 C3086 1.574 . S
C3078 C3094 1.368 . S
H3079 C3087 0.950 . S
H3080 C3085 0.950 . S
H3081 C3086 0.949 . S
H3082 C3088 0.950 . S
H3083 C3089 0.950 . S
H3084 C3090 0.949 . S
C3085 H3080 0.950 . S
C3085 C3087 1.327 . S
C3085 C3091 1.429 . S
C3086 C3078 1.574 . S
C3086 H3081 0.949 . S
C3086 C3092 1.368 . S
C3087 C3071 1.349 . S
C3087 H3079 0.950 . S
C3087 C3085 1.327 . S
C3088 C3076 1.349 . S
C3088 H3082 0.950 . S
C3088 C3089 1.327 . S
C3089 H3083 0.950 . S
C3089 C3088 1.327 . S
C3089 C3093 1.429 . S
C3090 C3073 1.574 . S
C3090 H3084 0.949 . S
C3090 C3094 1.368 . S
C3091 C3072 1.429 . S
C3091 C3085 1.429 . S
C3091 C3092 1.523 . S
C3092 C3073 1.368 . S
C3092 C3086 1.368 . S
C3092 C3091 1.523 . S
C3093 C3077 1.429 . S
C3093 C3089 1.429 . S
C3093 C3094 1.523 . S
C3094 C3078 1.368 . S
C3094 C3090 1.368 . S
C3094 C3093 1.523 . S
H3095 C3070 0.950 . S
H3096 C3072 0.950 . S
H3097 C3073 0.949 . S
H3098 C3075 0.950 . S
H3099 C3077 0.950 . S
C3100 C3101 1.349 . S
C3100 C3102 1.327 . S
C3100 H3125 0.950 . S
C3101 C3100 1.349 . S
C3101 C3117 1.349 1_455 S
C3102 C3100 1.327 . S
C3102 C3121 1.427 . S
C3102 H3126 0.950 . S
C3103 C3120 1.574 . S
C3103 C3122 1.387 . S
C3103 H3127 0.949 . S
H3104 C3108 0.949 . S
C3105 C3106 1.349 . S
C3105 C3107 1.327 . S
C3105 H3128 0.954 . S
C3106 C3105 1.349 . S
C3106 C3118 1.349 1_655 S
C3107 C3105 1.327 . S
C3107 C3123 1.429 . S
C3107 H3129 0.950 . S
C3108 H3104 0.949 . S
C3108 C3116 1.574 . S
C3108 C3124 1.368 1_455 S
H3109 C3117 0.950 . S
H3110 C3115 0.950 . S
H3111 C3116 0.949 . S
H3112 C3118 0.950 . S
H3113 C3119 0.950 . S
H3114 C3120 0.949 . S
C3115 H3110 0.950 . S
C3115 C3117 1.327 . S
C3115 C3121 1.430 1_655 S
C3116 C3108 1.574 . S
C3116 H3111 0.949 . S
C3116 C3122 1.350 1_455 S
C3117 C3101 1.349 1_655 S
C3117 H3109 0.950 . S
C3117 C3115 1.327 . S
C3118 C3106 1.349 1_455 S
C3118 H3112 0.950 . S
C3118 C3119 1.327 . S
C3119 H3113 0.950 . S
C3119 C3118 1.327 . S
C3119 C3123 1.429 1_455 S
C3120 C3103 1.574 . S
C3120 H3114 0.949 . S
C3120 C3124 1.368 . S
C3121 C3102 1.427 . S
C3121 C3115 1.430 1_455 S
C3121 C3122 1.522 1_455 S
C3122 C3103 1.387 . S
C3122 C3116 1.350 1_655 S
C3122 C3121 1.522 1_655 S
C3123 C3107 1.429 . S
C3123 C3119 1.429 1_655 S
C3123 C3124 1.523 . S
C3124 C3108 1.368 1_655 S
C3124 C3120 1.368 . S
C3124 C3123 1.523 . S
H3125 C3100 0.950 . S
H3126 C3102 0.950 . S
H3127 C3103 0.949 . S
H3128 C3105 0.954 . S
H3129 C3107 0.950 . S
C3130 C3131 1.349 . S
C3130 C3132 1.327 . S
C3130 H3155 0.950 . S
C3131 C3130 1.349 . S
C3131 C3147 1.349 . S
C3132 C3130 1.327 . S
C3132 C3151 1.429 . S
C3132 H3156 0.950 . S
C3133 C3150 1.574 . S
C3133 C3152 1.368 . S
C3133 H3157 0.949 . S
H3134 C3138 0.949 . S
C3135 C3136 1.349 . S
C3135 C3137 1.327 . S
C3135 H3158 0.950 . S
C3136 C3135 1.349 . S
C3136 C3148 1.349 . S
C3137 C3135 1.327 . S
C3137 C3153 1.429 . S
C3137 H3159 0.950 . S
C3138 H3134 0.949 . S
C3138 C3146 1.574 . S
C3138 C3154 1.368 . S
H3139 C3147 0.950 . S
H3140 C3145 0.950 . S
H3141 C3146 0.949 . S
H3142 C3148 0.950 . S
H3143 C3149 0.950 . S
H3144 C3150 0.949 . S
C3145 H3140 0.950 . S
C3145 C3147 1.327 . S
C3145 C3151 1.429 . S
C3146 C3138 1.574 . S
C3146 H3141 0.949 . S
C3146 C3152 1.368 . S
C3147 C3131 1.349 . S
C3147 H3139 0.950 . S
C3147 C3145 1.327 . S
C3148 C3136 1.349 . S
C3148 H3142 0.950 . S
C3148 C3149 1.327 . S
C3149 H3143 0.950 . S
C3149 C3148 1.327 . S
C3149 C3153 1.429 . S
C3150 C3133 1.574 . S
C3150 H3144 0.949 . S
C3150 C3154 1.368 . S
C3151 C3132 1.429 . S
C3151 C3145 1.429 . S
C3151 C3152 1.523 . S
C3152 C3133 1.368 . S
C3152 C3146 1.368 . S
C3152 C3151 1.523 . S
C3153 C3137 1.429 . S
C3153 C3149 1.429 . S
C3153 C3154 1.523 . S
C3154 C3138 1.368 . S
C3154 C3150 1.368 . S
C3154 C3153 1.523 . S
H3155 C3130 0.950 . S
H3156 C3132 0.950 . S
H3157 C3133 0.949 . S
H3158 C3135 0.950 . S
H3159 C3137 0.950 . S
C3160 C3161 1.349 . S
C3160 C3162 1.327 . S
C3160 H3185 0.950 . S
C3161 C3160 1.349 . S
C3161 C3177 1.349 . S
C3162 C3160 1.327 . S
C3162 C3181 1.429 . S
C3162 H3186 0.950 . S
C3163 C3180 1.574 . S
C3163 C3182 1.368 . S
C3163 H3187 0.949 . S
H3164 C3168 0.949 . S
C3165 C3166 1.349 . S
C3165 C3167 1.327 . S
C3165 H3188 0.950 . S
C3166 C3165 1.349 . S
C3166 C3178 1.349 . S
C3167 C3165 1.327 . S
C3167 C3183 1.429 . S
C3167 H3189 0.950 . S
C3168 H3164 0.949 . S
C3168 C3176 1.574 . S
C3168 C3184 1.368 . S
H3169 C3177 0.950 . S
H3170 C3175 0.950 . S
H3171 C3176 0.949 . S
H3172 C3178 0.950 . S
H3173 C3179 0.950 . S
H3174 C3180 0.949 . S
C3175 H3170 0.950 . S
C3175 C3177 1.327 . S
C3175 C3181 1.429 . S
C3176 C3168 1.574 . S
C3176 H3171 0.949 . S
C3176 C3182 1.368 . S
C3177 C3161 1.349 . S
C3177 H3169 0.950 . S
C3177 C3175 1.327 . S
C3178 C3166 1.349 . S
C3178 H3172 0.950 . S
C3178 C3179 1.327 . S
C3179 H3173 0.950 . S
C3179 C3178 1.327 . S
C3179 C3183 1.429 . S
C3180 C3163 1.574 . S
C3180 H3174 0.949 . S
C3180 C3184 1.368 . S
C3181 C3162 1.429 . S
C3181 C3175 1.429 . S
C3181 C3182 1.523 . S
C3182 C3163 1.368 . S
C3182 C3176 1.368 . S
C3182 C3181 1.523 . S
C3183 C3167 1.429 . S
C3183 C3179 1.429 . S
C3183 C3184 1.523 . S
C3184 C3168 1.368 . S
C3184 C3180 1.368 . S
C3184 C3183 1.523 . S
H3185 C3160 0.950 . S
H3186 C3162 0.950 . S
H3187 C3163 0.949 . S
H3188 C3165 0.950 . S
H3189 C3167 0.950 . S
C3190 C3191 1.349 . S
C3190 C3192 1.327 . S
C3190 H3215 0.950 . S
C3191 C3190 1.349 . S
C3191 C3207 1.349 . S
C3192 C3190 1.327 . S
C3192 C3211 1.429 . S
C3192 H3216 0.950 . S
C3193 C3210 1.574 . S
C3193 C3212 1.368 . S
C3193 H3217 0.949 . S
H3194 C3198 0.949 . S
C3195 C3196 1.349 . S
C3195 C3197 1.327 . S
C3195 H3218 0.950 . S
C3196 C3195 1.349 . S
C3196 C3208 1.349 . S
C3197 C3195 1.327 . S
C3197 C3213 1.429 . S
C3197 H3219 0.950 . S
C3198 H3194 0.949 . S
C3198 C3206 1.574 . S
C3198 C3214 1.368 . S
H3199 C3207 0.950 . S
H3200 C3205 0.950 . S
H3201 C3206 0.949 . S
H3202 C3208 0.950 . S
H3203 C3209 0.950 . S
H3204 C3210 0.949 . S
C3205 H3200 0.950 . S
C3205 C3207 1.327 . S
C3205 C3211 1.429 . S
C3206 C3198 1.574 . S
C3206 H3201 0.949 . S
C3206 C3212 1.368 . S
C3207 C3191 1.349 . S
C3207 H3199 0.950 . S
C3207 C3205 1.327 . S
C3208 C3196 1.349 . S
C3208 H3202 0.950 . S
C3208 C3209 1.327 . S
C3209 H3203 0.950 . S
C3209 C3208 1.327 . S
C3209 C3213 1.429 . S
C3210 C3193 1.574 . S
C3210 H3204 0.949 . S
C3210 C3214 1.368 . S
C3211 C3192 1.429 . S
C3211 C3205 1.429 . S
C3211 C3212 1.523 . S
C3212 C3193 1.368 . S
C3212 C3206 1.368 . S
C3212 C3211 1.523 . S
C3213 C3197 1.429 . S
C3213 C3209 1.429 . S
C3213 C3214 1.523 . S
C3214 C3198 1.368 . S
C3214 C3210 1.368 . S
C3214 C3213 1.523 . S
H3215 C3190 0.950 . S
H3216 C3192 0.950 . S
H3217 C3193 0.949 . S
H3218 C3195 0.950 . S
H3219 C3197 0.950 . S
C3220 C3221 1.349 . S
C3220 C3222 1.327 . S
C3220 H3245 0.950 . S
C3221 C3220 1.349 . S
C3221 C3237 1.349 . S
C3222 C3220 1.327 . S
C3222 C3241 1.429 . S
C3222 H3246 0.950 . S
C3223 C3240 1.574 . S
C3223 C3242 1.368 . S
C3223 H3247 0.949 . S
H3224 C3228 0.949 . S
C3225 C3226 1.349 . S
C3225 C3227 1.327 . S
C3225 H3248 0.950 . S
C3226 C3225 1.349 . S
C3226 C3238 1.349 . S
C3227 C3225 1.327 . S
C3227 C3243 1.429 . S
C3227 H3249 0.950 . S
C3228 H3224 0.949 . S
C3228 C3236 1.574 . S
C3228 C3244 1.368 . S
H3229 C3237 0.950 . S
H3230 C3235 0.950 . S
H3231 C3236 0.949 . S
H3232 C3238 0.950 . S
H3233 C3239 0.950 . S
H3234 C3240 0.949 . S
C3235 H3230 0.950 . S
C3235 C3237 1.327 . S
C3235 C3241 1.429 . S
C3236 C3228 1.574 . S
C3236 H3231 0.949 . S
C3236 C3242 1.368 . S
C3237 C3221 1.349 . S
C3237 H3229 0.950 . S
C3237 C3235 1.327 . S
C3238 C3226 1.349 . S
C3238 H3232 0.950 . S
C3238 C3239 1.327 . S
C3239 H3233 0.950 . S
C3239 C3238 1.327 . S
C3239 C3243 1.429 . S
C3240 C3223 1.574 . S
C3240 H3234 0.949 . S
C3240 C3244 1.368 . S
C3241 C3222 1.429 . S
C3241 C3235 1.429 . S
C3241 C3242 1.523 . S
C3242 C3223 1.368 . S
C3242 C3236 1.368 . S
C3242 C3241 1.523 . S
C3243 C3227 1.429 . S
C3243 C3239 1.429 . S
C3243 C3244 1.523 . S
C3244 C3228 1.368 . S
C3244 C3240 1.368 . S
C3244 C3243 1.523 . S
H3245 C3220 0.950 . S
H3246 C3222 0.950 . S
H3247 C3223 0.949 . S
H3248 C3225 0.950 . S
H3249 C3227 0.950 . S
C3250 C3251 1.349 . S
C3250 C3252 1.327 . S
C3250 H3275 0.950 . S
C3251 C3250 1.349 . S
C3251 C3267 1.349 . S
C3252 C3250 1.327 . S
C3252 C3271 1.429 . S
C3252 H3276 0.950 . S
C3253 C3270 1.574 . S
C3253 C3272 1.368 . S
C3253 H3277 0.949 . S
H3254 C3258 0.949 . S
C3255 C3256 1.349 . S
C3255 C3257 1.327 . S
C3255 H3278 0.950 . S
C3256 C3255 1.349 . S
C3256 C3268 1.349 . S
C3257 C3255 1.327 . S
C3257 C3273 1.429 . S
C3257 H3279 0.950 . S
C3258 H3254 0.949 . S
C3258 C3266 1.574 . S
C3258 C3274 1.368 . S
H3259 C3267 0.950 . S
H3260 C3265 0.950 . S
H3261 C3266 0.949 . S
H3262 C3268 0.950 . S
H3263 C3269 0.950 . S
H3264 C3270 0.949 . S
C3265 H3260 0.950 . S
C3265 C3267 1.327 . S
C3265 C3271 1.429 . S
C3266 C3258 1.574 . S
C3266 H3261 0.949 . S
C3266 C3272 1.368 . S
C3267 C3251 1.349 . S
C3267 H3259 0.950 . S
C3267 C3265 1.327 . S
C3268 C3256 1.349 . S
C3268 H3262 0.950 . S
C3268 C3269 1.327 . S
C3269 H3263 0.950 . S
C3269 C3268 1.327 . S
C3269 C3273 1.429 . S
C3270 C3253 1.574 . S
C3270 H3264 0.949 . S
C3270 C3274 1.368 . S
C3271 C3252 1.429 . S
C3271 C3265 1.429 . S
C3271 C3272 1.523 . S
C3272 C3253 1.368 . S
C3272 C3266 1.368 . S
C3272 C3271 1.523 . S
C3273 C3257 1.429 . S
C3273 C3269 1.429 . S
C3273 C3274 1.523 . S
C3274 C3258 1.368 . S
C3274 C3270 1.368 . S
C3274 C3273 1.523 . S
H3275 C3250 0.950 . S
H3276 C3252 0.950 . S
H3277 C3253 0.949 . S
H3278 C3255 0.950 . S
H3279 C3257 0.950 . S
C3280 C3281 1.349 . S
C3280 C3282 1.327 . S
C3280 H3305 0.950 . S
C3281 C3280 1.349 . S
C3281 C3297 1.349 . S
C3282 C3280 1.327 . S
C3282 C3301 1.429 . S
C3282 H3306 0.950 . S
C3283 C3300 1.574 . S
C3283 C3302 1.368 . S
C3283 H3307 0.949 . S
H3284 C3288 0.949 . S
C3285 C3286 1.349 . S
C3285 C3287 1.327 . S
C3285 H3308 0.950 . S
C3286 C3285 1.349 . S
C3286 C3298 1.349 . S
C3287 C3285 1.327 . S
C3287 C3303 1.429 . S
C3287 H3309 0.950 . S
C3288 H3284 0.949 . S
C3288 C3296 1.574 . S
C3288 C3304 1.368 . S
H3289 C3297 0.950 . S
H3290 C3295 0.950 . S
H3291 C3296 0.949 . S
H3292 C3298 0.950 . S
H3293 C3299 0.950 . S
H3294 C3300 0.949 . S
C3295 H3290 0.950 . S
C3295 C3297 1.327 . S
C3295 C3301 1.429 . S
C3296 C3288 1.574 . S
C3296 H3291 0.949 . S
C3296 C3302 1.368 . S
C3297 C3281 1.349 . S
C3297 H3289 0.950 . S
C3297 C3295 1.327 . S
C3298 C3286 1.349 . S
C3298 H3292 0.950 . S
C3298 C3299 1.327 . S
C3299 H3293 0.950 . S
C3299 C3298 1.327 . S
C3299 C3303 1.429 . S
C3300 C3283 1.574 . S
C3300 H3294 0.949 . S
C3300 C3304 1.368 . S
C3301 C3282 1.429 . S
C3301 C3295 1.429 . S
C3301 C3302 1.523 . S
C3302 C3283 1.368 . S
C3302 C3296 1.368 . S
C3302 C3301 1.523 . S
C3303 C3287 1.429 . S
C3303 C3299 1.429 . S
C3303 C3304 1.523 . S
C3304 C3288 1.368 . S
C3304 C3300 1.368 . S
C3304 C3303 1.523 . S
H3305 C3280 0.950 . S
H3306 C3282 0.950 . S
H3307 C3283 0.949 . S
H3308 C3285 0.950 . S
H3309 C3287 0.950 . S
C3310 C3311 1.349 . S
C3310 C3312 1.327 . S
C3310 H3335 0.950 . S
C3311 C3310 1.349 . S
C3311 C3327 1.349 . S
C3312 C3310 1.327 . S
C3312 C3331 1.429 . S
C3312 H3336 0.950 . S
C3313 C3330 1.574 . S
C3313 C3332 1.368 . S
C3313 H3337 0.949 . S
H3314 C3318 0.949 . S
C3315 C3316 1.349 . S
C3315 C3317 1.327 . S
C3315 H3338 0.950 . S
C3316 C3315 1.349 . S
C3316 C3328 1.349 . S
C3317 C3315 1.327 . S
C3317 C3333 1.429 . S
C3317 H3339 0.950 . S
C3318 H3314 0.949 . S
C3318 C3326 1.574 . S
C3318 C3334 1.368 . S
H3319 C3327 0.950 . S
H3320 C3325 0.950 . S
H3321 C3326 0.949 . S
H3322 C3328 0.950 . S
H3323 C3329 0.950 . S
H3324 C3330 0.949 . S
C3325 H3320 0.950 . S
C3325 C3327 1.327 . S
C3325 C3331 1.429 . S
C3326 C3318 1.574 . S
C3326 H3321 0.949 . S
C3326 C3332 1.368 . S
C3327 C3311 1.349 . S
C3327 H3319 0.950 . S
C3327 C3325 1.327 . S
C3328 C3316 1.349 . S
C3328 H3322 0.950 . S
C3328 C3329 1.327 . S
C3329 H3323 0.950 . S
C3329 C3328 1.327 . S
C3329 C3333 1.429 . S
C3330 C3313 1.574 . S
C3330 H3324 0.949 . S
C3330 C3334 1.368 . S
C3331 C3312 1.429 . S
C3331 C3325 1.429 . S
C3331 C3332 1.523 . S
C3332 C3313 1.368 . S
C3332 C3326 1.368 . S
C3332 C3331 1.523 . S
C3333 C3317 1.429 . S
C3333 C3329 1.429 . S
C3333 C3334 1.523 . S
C3334 C3318 1.368 . S
C3334 C3330 1.368 . S
C3334 C3333 1.523 . S
H3335 C3310 0.950 . S
H3336 C3312 0.950 . S
H3337 C3313 0.949 . S
H3338 C3315 0.950 . S
H3339 C3317 0.950 . S
C3340 C3341 1.349 . S
C3340 C3342 1.327 . S
C3340 H3365 0.950 . S
C3341 C3340 1.349 . S
C3341 C3357 1.349 . S
C3342 C3340 1.327 . S
C3342 C3361 1.429 . S
C3342 H3366 0.950 . S
C3343 C3360 1.574 . S
C3343 C3362 1.368 . S
C3343 H3367 0.949 . S
H3344 C3348 0.949 . S
C3345 C3346 1.349 . S
C3345 C3347 1.327 . S
C3345 H3368 0.950 . S
C3346 C3345 1.349 . S
C3346 C3358 1.349 . S
C3347 C3345 1.327 . S
C3347 C3363 1.429 . S
C3347 H3369 0.950 . S
C3348 H3344 0.949 . S
C3348 C3356 1.574 . S
C3348 C3364 1.368 . S
H3349 C3357 0.950 . S
H3350 C3355 0.950 . S
H3351 C3356 0.949 . S
H3352 C3358 0.950 . S
H3353 C3359 0.950 . S
H3354 C3360 0.949 . S
C3355 H3350 0.950 . S
C3355 C3357 1.327 . S
C3355 C3361 1.429 . S
C3356 C3348 1.574 . S
C3356 H3351 0.949 . S
C3356 C3362 1.368 . S
C3357 C3341 1.349 . S
C3357 H3349 0.950 . S
C3357 C3355 1.327 . S
C3358 C3346 1.349 . S
C3358 H3352 0.950 . S
C3358 C3359 1.327 . S
C3359 H3353 0.950 . S
C3359 C3358 1.327 . S
C3359 C3363 1.429 . S
C3360 C3343 1.574 . S
C3360 H3354 0.949 . S
C3360 C3364 1.368 . S
C3361 C3342 1.429 . S
C3361 C3355 1.429 . S
C3361 C3362 1.523 . S
C3362 C3343 1.368 . S
C3362 C3356 1.368 . S
C3362 C3361 1.523 . S
C3363 C3347 1.429 . S
C3363 C3359 1.429 . S
C3363 C3364 1.523 . S
C3364 C3348 1.368 . S
C3364 C3360 1.368 . S
C3364 C3363 1.523 . S
H3365 C3340 0.950 . S
H3366 C3342 0.950 . S
H3367 C3343 0.949 . S
H3368 C3345 0.950 . S
H3369 C3347 0.950 . S
C3370 C3371 1.349 . S
C3370 C3372 1.327 . S
C3370 H3395 0.950 . S
C3371 C3370 1.349 . S
C3371 C3387 1.349 . S
C3372 C3370 1.327 . S
C3372 C3391 1.429 . S
C3372 H3396 0.950 . S
C3373 C3390 1.574 . S
C3373 C3392 1.368 . S
C3373 H3397 0.949 . S
H3374 C3378 0.949 . S
C3375 C3376 1.349 . S
C3375 C3377 1.327 . S
C3375 H3398 0.950 . S
C3376 C3375 1.349 . S
C3376 C3388 1.349 . S
C3377 C3375 1.327 . S
C3377 C3393 1.429 . S
C3377 H3399 0.950 . S
C3378 H3374 0.949 . S
C3378 C3386 1.574 . S
C3378 C3394 1.368 . S
H3379 C3387 0.950 . S
H3380 C3385 0.950 . S
H3381 C3386 0.949 . S
H3382 C3388 0.950 . S
H3383 C3389 0.950 . S
H3384 C3390 0.949 . S
C3385 H3380 0.950 . S
C3385 C3387 1.327 . S
C3385 C3391 1.429 . S
C3386 C3378 1.574 . S
C3386 H3381 0.949 . S
C3386 C3392 1.368 . S
C3387 C3371 1.349 . S
C3387 H3379 0.950 . S
C3387 C3385 1.327 . S
C3388 C3376 1.349 . S
C3388 H3382 0.950 . S
C3388 C3389 1.327 . S
C3389 H3383 0.950 . S
C3389 C3388 1.327 . S
C3389 C3393 1.429 . S
C3390 C3373 1.574 . S
C3390 H3384 0.949 . S
C3390 C3394 1.368 . S
C3391 C3372 1.429 . S
C3391 C3385 1.429 . S
C3391 C3392 1.523 . S
C3392 C3373 1.368 . S
C3392 C3386 1.368 . S
C3392 C3391 1.523 . S
C3393 C3377 1.429 . S
C3393 C3389 1.429 . S
C3393 C3394 1.523 . S
C3394 C3378 1.368 . S
C3394 C3390 1.368 . S
C3394 C3393 1.523 . S
H3395 C3370 0.950 . S
H3396 C3372 0.950 . S
H3397 C3373 0.949 . S
H3398 C3375 0.950 . S
H3399 C3377 0.950 . S
C3400 C3401 1.349 . S
C3400 C3402 1.327 . S
C3400 H3425 0.950 . S
C3401 C3400 1.349 . S
C3401 C3417 1.349 . S
C3402 C3400 1.327 . S
C3402 C3421 1.429 . S
C3402 H3426 0.950 . S
C3403 C3420 1.574 . S
C3403 C3422 1.368 . S
C3403 H3427 0.949 . S
H3404 C3408 0.949 . S
C3405 C3406 1.349 . S
C3405 C3407 1.327 . S
C3405 H3428 0.950 . S
C3406 C3405 1.349 . S
C3406 C3418 1.349 . S
C3407 C3405 1.327 . S
C3407 C3423 1.429 . S
C3407 H3429 0.950 . S
C3408 H3404 0.949 . S
C3408 C3416 1.574 . S
C3408 C3424 1.368 . S
H3409 C3417 0.950 . S
H3410 C3415 0.950 . S
H3411 C3416 0.949 . S
H3412 C3418 0.950 . S
H3413 C3419 0.950 . S
H3414 C3420 0.949 . S
C3415 H3410 0.950 . S
C3415 C3417 1.327 . S
C3415 C3421 1.429 . S
C3416 C3408 1.574 . S
C3416 H3411 0.949 . S
C3416 C3422 1.368 . S
C3417 C3401 1.349 . S
C3417 H3409 0.950 . S
C3417 C3415 1.327 . S
C3418 C3406 1.349 . S
C3418 H3412 0.950 . S
C3418 C3419 1.327 . S
C3419 H3413 0.950 . S
C3419 C3418 1.327 . S
C3419 C3423 1.429 . S
C3420 C3403 1.574 . S
C3420 H3414 0.949 . S
C3420 C3424 1.368 . S
C3421 C3402 1.429 . S
C3421 C3415 1.429 . S
C3421 C3422 1.523 . S
C3422 C3403 1.368 . S
C3422 C3416 1.368 . S
C3422 C3421 1.523 . S
C3423 C3407 1.429 . S
C3423 C3419 1.429 . S
C3423 C3424 1.523 . S
C3424 C3408 1.368 . S
C3424 C3420 1.368 . S
C3424 C3423 1.523 . S
H3425 C3400 0.950 . S
H3426 C3402 0.950 . S
H3427 C3403 0.949 . S
H3428 C3405 0.950 . S
H3429 C3407 0.950 . S
C3430 C3431 1.349 . S
C3430 C3432 1.327 . S
C3430 H3455 0.950 . S
C3431 C3430 1.349 . S
C3431 C3447 1.349 . S
C3432 C3430 1.327 . S
C3432 C3451 1.429 . S
C3432 H3456 0.950 . S
C3433 C3450 1.574 . S
C3433 C3452 1.368 . S
C3433 H3457 0.949 . S
H3434 C3438 0.949 . S
C3435 C3436 1.349 . S
C3435 C3437 1.327 . S
C3435 H3458 0.950 . S
C3436 C3435 1.349 . S
C3436 C3448 1.349 . S
C3437 C3435 1.327 . S
C3437 C3453 1.429 . S
C3437 H3459 0.950 . S
C3438 H3434 0.949 . S
C3438 C3446 1.574 . S
C3438 C3454 1.368 . S
H3439 C3447 0.950 . S
H3440 C3445 0.950 . S
H3441 C3446 0.949 . S
H3442 C3448 0.950 . S
H3443 C3449 0.950 . S
H3444 C3450 0.949 . S
C3445 H3440 0.950 . S
C3445 C3447 1.327 . S
C3445 C3451 1.429 . S
C3446 C3438 1.574 . S
C3446 H3441 0.949 . S
C3446 C3452 1.368 . S
C3447 C3431 1.349 . S
C3447 H3439 0.950 . S
C3447 C3445 1.327 . S
C3448 C3436 1.349 . S
C3448 H3442 0.950 . S
C3448 C3449 1.327 . S
C3449 H3443 0.950 . S
C3449 C3448 1.327 . S
C3449 C3453 1.429 . S
C3450 C3433 1.574 . S
C3450 H3444 0.949 . S
C3450 C3454 1.368 . S
C3451 C3432 1.429 . S
C3451 C3445 1.429 . S
C3451 C3452 1.523 . S
C3452 C3433 1.368 . S
C3452 C3446 1.368 . S
C3452 C3451 1.523 . S
C3453 C3437 1.429 . S
C3453 C3449 1.429 . S
C3453 C3454 1.523 . S
C3454 C3438 1.368 . S
C3454 C3450 1.368 . S
C3454 C3453 1.523 . S
H3455 C3430 0.950 . S
H3456 C3432 0.950 . S
H3457 C3433 0.949 . S
H3458 C3435 0.950 . S
H3459 C3437 0.950 . S
C3460 C3461 1.349 . S
C3460 C3462 1.327 . S
C3460 H3485 0.950 . S
C3461 C3460 1.349 . S
C3461 C3477 1.349 . S
C3462 C3460 1.327 . S
C3462 C3481 1.429 . S
C3462 H3486 0.950 . S
C3463 C3480 1.574 . S
C3463 C3482 1.368 . S
C3463 H3487 0.949 . S
H3464 C3468 0.949 . S
C3465 C3466 1.349 . S
C3465 C3467 1.327 . S
C3465 H3488 0.950 . S
C3466 C3465 1.349 . S
C3466 C3478 1.349 . S
C3467 C3465 1.327 . S
C3467 C3483 1.429 . S
C3467 H3489 0.950 . S
C3468 H3464 0.949 . S
C3468 C3476 1.574 . S
C3468 C3484 1.368 . S
H3469 C3477 0.950 . S
H3470 C3475 0.950 . S
H3471 C3476 0.949 . S
H3472 C3478 0.950 . S
H3473 C3479 0.950 . S
H3474 C3480 0.949 . S
C3475 H3470 0.950 . S
C3475 C3477 1.327 . S
C3475 C3481 1.429 . S
C3476 C3468 1.574 . S
C3476 H3471 0.949 . S
C3476 C3482 1.368 . S
C3477 C3461 1.349 . S
C3477 H3469 0.950 . S
C3477 C3475 1.327 . S
C3478 C3466 1.349 . S
C3478 H3472 0.950 . S
C3478 C3479 1.327 . S
C3479 H3473 0.950 . S
C3479 C3478 1.327 . S
C3479 C3483 1.429 . S
C3480 C3463 1.574 . S
C3480 H3474 0.949 . S
C3480 C3484 1.368 . S
C3481 C3462 1.429 . S
C3481 C3475 1.429 . S
C3481 C3482 1.523 . S
C3482 C3463 1.368 . S
C3482 C3476 1.368 . S
C3482 C3481 1.523 . S
C3483 C3467 1.429 . S
C3483 C3479 1.429 . S
C3483 C3484 1.523 . S
C3484 C3468 1.368 . S
C3484 C3480 1.368 . S
C3484 C3483 1.523 . S
H3485 C3460 0.950 . S
H3486 C3462 0.950 . S
H3487 C3463 0.949 . S
H3488 C3465 0.950 . S
H3489 C3467 0.950 . S
C3490 C3491 1.349 . S
C3490 C3492 1.327 . S
C3490 H3515 0.950 . S
C3491 C3490 1.349 . S
C3491 C3507 1.349 . S
C3492 C3490 1.327 . S
C3492 C3511 1.429 . S
C3492 H3516 0.950 . S
C3493 C3510 1.574 . S
C3493 C3512 1.368 . S
C3493 H3517 0.949 . S
H3494 C3498 0.949 . S
C3495 C3496 1.349 . S
C3495 C3497 1.327 . S
C3495 H3518 0.950 . S
C3496 C3495 1.349 . S
C3496 C3508 1.349 . S
C3497 C3495 1.327 . S
C3497 C3513 1.429 . S
C3497 H3519 0.950 . S
C3498 H3494 0.949 . S
C3498 C3506 1.574 . S
C3498 C3514 1.368 . S
H3499 C3507 0.950 . S
H3500 C3505 0.950 . S
H3501 C3506 0.949 . S
H3502 C3508 0.950 . S
H3503 C3509 0.950 . S
H3504 C3510 0.949 . S
C3505 H3500 0.950 . S
C3505 C3507 1.327 . S
C3505 C3511 1.429 . S
C3506 C3498 1.574 . S
C3506 H3501 0.949 . S
C3506 C3512 1.368 . S
C3507 C3491 1.349 . S
C3507 H3499 0.950 . S
C3507 C3505 1.327 . S
C3508 C3496 1.349 . S
C3508 H3502 0.950 . S
C3508 C3509 1.327 . S
C3509 H3503 0.950 . S
C3509 C3508 1.327 . S
C3509 C3513 1.429 . S
C3510 C3493 1.574 . S
C3510 H3504 0.949 . S
C3510 C3514 1.368 . S
C3511 C3492 1.429 . S
C3511 C3505 1.429 . S
C3511 C3512 1.523 . S
C3512 C3493 1.368 . S
C3512 C3506 1.368 . S
C3512 C3511 1.523 . S
C3513 C3497 1.429 . S
C3513 C3509 1.429 . S
C3513 C3514 1.523 . S
C3514 C3498 1.368 . S
C3514 C3510 1.368 . S
C3514 C3513 1.523 . S
H3515 C3490 0.950 . S
H3516 C3492 0.950 . S
H3517 C3493 0.949 . S
H3518 C3495 0.950 . S
H3519 C3497 0.950 . S
C3520 C3521 1.349 . S
C3520 C3522 1.327 . S
C3520 H3545 0.950 . S
C3521 C3520 1.349 . S
C3521 C3537 1.349 . S
C3522 C3520 1.327 . S
C3522 C3541 1.429 . S
C3522 H3546 0.950 . S
C3523 C3540 1.574 . S
C3523 C3542 1.368 . S
C3523 H3547 0.949 . S
H3524 C3528 0.949 . S
C3525 C3526 1.349 . S
C3525 C3527 1.327 . S
C3525 H3548 0.950 . S
C3526 C3525 1.349 . S
C3526 C3538 1.349 . S
C3527 C3525 1.327 . S
C3527 C3543 1.429 . S
C3527 H3549 0.950 . S
C3528 H3524 0.949 . S
C3528 C3536 1.574 . S
C3528 C3544 1.368 . S
H3529 C3537 0.950 . S
H3530 C3535 0.950 . S
H3531 C3536 0.949 . S
H3532 C3538 0.950 . S
H3533 C3539 0.950 . S
H3534 C3540 0.949 . S
C3535 H3530 0.950 . S
C3535 C3537 1.327 . S
C3535 C3541 1.429 . S
C3536 C3528 1.574 . S
C3536 H3531 0.949 . S
C3536 C3542 1.368 . S
C3537 C3521 1.349 . S
C3537 H3529 0.950 . S
C3537 C3535 1.327 . S
C3538 C3526 1.349 . S
C3538 H3532 0.950 . S
C3538 C3539 1.327 . S
C3539 H3533 0.950 . S
C3539 C3538 1.327 . S
C3539 C3543 1.429 . S
C3540 C3523 1.574 . S
C3540 H3534 0.949 . S
C3540 C3544 1.368 . S
C3541 C3522 1.429 . S
C3541 C3535 1.429 . S
C3541 C3542 1.523 . S
C3542 C3523 1.368 . S
C3542 C3536 1.368 . S
C3542 C3541 1.523 . S
C3543 C3527 1.429 . S
C3543 C3539 1.429 . S
C3543 C3544 1.523 . S
C3544 C3528 1.368 . S
C3544 C3540 1.368 . S
C3544 C3543 1.523 . S
H3545 C3520 0.950 . S
H3546 C3522 0.950 . S
H3547 C3523 0.949 . S
H3548 C3525 0.950 . S
H3549 C3527 0.950 . S
C3550 C3551 1.349 . S
C3550 C3552 1.327 . S
C3550 H3575 0.950 . S
C3551 C3550 1.349 . S
C3551 C3567 1.349 . S
C3552 C3550 1.327 . S
C3552 C3571 1.429 . S
C3552 H3576 0.950 . S
C3553 C3570 1.574 . S
C3553 C3572 1.368 . S
C3553 H3577 0.949 . S
H3554 C3558 0.949 . S
C3555 C3556 1.349 . S
C3555 C3557 1.327 . S
C3555 H3578 0.950 . S
C3556 C3555 1.349 . S
C3556 C3568 1.349 . S
C3557 C3555 1.327 . S
C3557 C3573 1.429 . S
C3557 H3579 0.950 . S
C3558 H3554 0.949 . S
C3558 C3566 1.574 . S
C3558 C3574 1.368 . S
H3559 C3567 0.950 . S
H3560 C3565 0.950 . S
H3561 C3566 0.949 . S
H3562 C3568 0.950 . S
H3563 C3569 0.950 . S
H3564 C3570 0.949 . S
C3565 H3560 0.950 . S
C3565 C3567 1.327 . S
C3565 C3571 1.429 . S
C3566 C3558 1.574 . S
C3566 H3561 0.949 . S
C3566 C3572 1.368 . S
C3567 C3551 1.349 . S
C3567 H3559 0.950 . S
C3567 C3565 1.327 . S
C3568 C3556 1.349 . S
C3568 H3562 0.950 . S
C3568 C3569 1.327 . S
C3569 H3563 0.950 . S
C3569 C3568 1.327 . S
C3569 C3573 1.429 . S
C3570 C3553 1.574 . S
C3570 H3564 0.949 . S
C3570 C3574 1.368 . S
C3571 C3552 1.429 . S
C3571 C3565 1.429 . S
C3571 C3572 1.523 . S
C3572 C3553 1.368 . S
C3572 C3566 1.368 . S
C3572 C3571 1.523 . S
C3573 C3557 1.429 . S
C3573 C3569 1.429 . S
C3573 C3574 1.523 . S
C3574 C3558 1.368 . S
C3574 C3570 1.368 . S
C3574 C3573 1.523 . S
H3575 C3550 0.950 . S
H3576 C3552 0.950 . S
H3577 C3553 0.949 . S
H3578 C3555 0.950 . S
H3579 C3557 0.950 . S
C3580 C3581 1.349 . S
C3580 C3582 1.327 . S
C3580 H3605 0.950 . S
C3581 C3580 1.349 . S
C3581 C3597 1.349 . S
C3582 C3580 1.327 . S
C3582 C3601 1.429 . S
C3582 H3606 0.950 . S
C3583 C3600 1.574 . S
C3583 C3602 1.368 . S
C3583 H3607 0.949 . S
H3584 C3588 0.949 . S
C3585 C3586 1.349 . S
C3585 C3587 1.327 . S
C3585 H3608 0.950 . S
C3586 C3585 1.349 . S
C3586 C3598 1.349 . S
C3587 C3585 1.327 . S
C3587 C3603 1.429 . S
C3587 H3609 0.950 . S
C3588 H3584 0.949 . S
C3588 C3596 1.574 . S
C3588 C3604 1.368 . S
H3589 C3597 0.950 . S
H3590 C3595 0.950 . S
H3591 C3596 0.949 . S
H3592 C3598 0.950 . S
H3593 C3599 0.950 . S
H3594 C3600 0.949 . S
C3595 H3590 0.950 . S
C3595 C3597 1.327 . S
C3595 C3601 1.429 . S
C3596 C3588 1.574 . S
C3596 H3591 0.949 . S
C3596 C3602 1.368 . S
C3597 C3581 1.349 . S
C3597 H3589 0.950 . S
C3597 C3595 1.327 . S
C3598 C3586 1.349 . S
C3598 H3592 0.950 . S
C3598 C3599 1.327 . S
C3599 H3593 0.950 . S
C3599 C3598 1.327 . S
C3599 C3603 1.429 . S
C3600 C3583 1.574 . S
C3600 H3594 0.949 . S
C3600 C3604 1.368 . S
C3601 C3582 1.429 . S
C3601 C3595 1.429 . S
C3601 C3602 1.523 . S
C3602 C3583 1.368 . S
C3602 C3596 1.368 . S
C3602 C3601 1.523 . S
C3603 C3587 1.429 . S
C3603 C3599 1.429 . S
C3603 C3604 1.523 . S
C3604 C3588 1.368 . S
C3604 C3600 1.368 . S
C3604 C3603 1.523 . S
H3605 C3580 0.950 . S
H3606 C3582 0.950 . S
H3607 C3583 0.949 . S
H3608 C3585 0.950 . S
H3609 C3587 0.950 . S
C3610 C3611 1.349 . S
C3610 C3612 1.327 . S
C3610 H3635 0.950 . S
C3611 C3610 1.349 . S
C3611 C3627 1.349 . S
C3612 C3610 1.327 . S
C3612 C3631 1.429 . S
C3612 H3636 0.950 . S
C3613 C3630 1.574 . S
C3613 C3632 1.368 . S
C3613 H3637 0.949 1_554 S
H3614 C3618 0.949 . S
C3615 C3616 1.353 1_556 S
C3615 C3617 1.327 1_556 S
C3615 H3638 0.945 . S
C3616 C3615 1.353 1_554 S
C3616 C3628 1.349 . S
C3617 C3615 1.327 1_554 S
C3617 C3633 1.459 . S
C3617 H3639 0.920 1_554 S
C3618 H3614 0.949 . S
C3618 C3626 1.574 . S
C3618 C3634 1.368 . S
H3619 C3627 0.917 1_556 S
H3620 C3625 0.950 1_556 S
H3621 C3626 0.949 . S
H3622 C3628 0.950 1_545 S
H3623 C3629 0.950 . S
H3624 C3630 0.949 1_556 S
C3625 H3620 0.950 1_554 S
C3625 C3627 1.327 . S
C3625 C3631 1.429 . S
C3626 C3618 1.574 . S
C3626 H3621 0.949 . S
C3626 C3632 1.368 . S
C3627 C3611 1.349 . S
C3627 H3619 0.917 1_554 S
C3627 C3625 1.327 . S
C3628 C3616 1.349 . S
C3628 H3622 0.950 1_565 S
C3628 C3629 1.327 . S
C3629 H3623 0.950 . S
C3629 C3628 1.327 . S
C3629 C3633 1.429 . S
C3630 C3613 1.574 . S
C3630 H3624 0.949 1_554 S
C3630 C3634 1.368 . S
C3631 C3612 1.429 . S
C3631 C3625 1.429 . S
C3631 C3632 1.523 . S
C3632 C3613 1.368 . S
C3632 C3626 1.368 . S
C3632 C3631 1.523 . S
C3633 C3617 1.459 . S
C3633 C3629 1.429 . S
C3633 C3634 1.523 . S
C3634 C3618 1.368 . S
C3634 C3630 1.368 . S
C3634 C3633 1.523 . S
H3635 C3610 0.950 . S
H3636 C3612 0.950 . S
H3637 C3613 0.949 1_556 S
H3638 C3615 0.945 . S
H3639 C3617 0.920 1_556 S
C3640 C3641 1.349 . S
C3640 C3642 1.327 . S
C3640 H3665 0.950 . S
C3641 C3640 1.349 . S
C3641 C3657 1.349 . S
C3642 C3640 1.327 . S
C3642 C3661 1.429 . S
C3642 H3666 0.950 . S
C3643 C3660 1.574 . S
C3643 C3662 1.368 . S
C3643 H3667 0.949 . S
H3644 C3648 0.949 . S
C3645 C3646 1.349 . S
C3645 C3647 1.327 . S
C3645 H3668 0.950 . S
C3646 C3645 1.349 . S
C3646 C3658 1.349 . S
C3647 C3645 1.327 . S
C3647 C3663 1.429 . S
C3647 H3669 0.950 . S
C3648 H3644 0.949 . S
C3648 C3656 1.574 . S
C3648 C3664 1.368 . S
H3649 C3657 0.950 . S
H3650 C3655 0.950 . S
H3651 C3656 0.949 . S
H3652 C3658 0.950 . S
H3653 C3659 0.950 . S
H3654 C3660 0.949 . S
C3655 H3650 0.950 . S
C3655 C3657 1.327 . S
C3655 C3661 1.429 . S
C3656 C3648 1.574 . S
C3656 H3651 0.949 . S
C3656 C3662 1.368 . S
C3657 C3641 1.349 . S
C3657 H3649 0.950 . S
C3657 C3655 1.327 . S
C3658 C3646 1.349 . S
C3658 H3652 0.950 . S
C3658 C3659 1.327 . S
C3659 H3653 0.950 . S
C3659 C3658 1.327 . S
C3659 C3663 1.429 . S
C3660 C3643 1.574 . S
C3660 H3654 0.949 . S
C3660 C3664 1.368 . S
C3661 C3642 1.429 . S
C3661 C3655 1.429 . S
C3661 C3662 1.523 . S
C3662 C3643 1.368 . S
C3662 C3656 1.368 . S
C3662 C3661 1.523 . S
C3663 C3647 1.429 . S
C3663 C3659 1.429 . S
C3663 C3664 1.523 . S
C3664 C3648 1.368 . S
C3664 C3660 1.368 . S
C3664 C3663 1.523 . S
H3665 C3640 0.950 . S
H3666 C3642 0.950 . S
H3667 C3643 0.949 . S
H3668 C3645 0.950 . S
H3669 C3647 0.950 . S
C3670 C3671 1.349 . S
C3670 C3672 1.327 . S
C3670 H3695 0.950 . S
C3671 C3670 1.349 . S
C3671 C3687 1.349 1_554 S
C3672 C3670 1.327 . S
C3672 C3691 1.429 . S
C3672 H3696 0.950 . S
C3673 C3690 1.570 1_556 S
C3673 C3692 1.368 1_556 S
C3673 H3697 0.949 . S
H3674 C3678 0.949 . S
C3675 C3676 1.349 . S
C3675 C3677 1.327 . S
C3675 H3698 0.950 . S
C3676 C3675 1.349 . S
C3676 C3688 1.349 . S
C3677 C3675 1.327 . S
C3677 C3693 1.429 . S
C3677 H3699 0.950 1_554 S
C3678 H3674 0.949 . S
C3678 C3686 1.574 . S
C3678 C3694 1.368 . S
H3679 C3687 0.950 . S
H3680 C3685 0.950 . S
H3681 C3686 0.949 . S
H3682 C3688 0.950 . S
H3683 C3689 0.950 . S
H3684 C3690 0.936 1_556 S
C3685 H3680 0.950 . S
C3685 C3687 1.327 . S
C3685 C3691 1.429 1_556 S
C3686 C3678 1.574 . S
C3686 H3681 0.949 . S
C3686 C3692 1.368 . S
C3687 C3671 1.349 1_556 S
C3687 H3679 0.950 . S
C3687 C3685 1.327 . S
C3688 C3676 1.349 . S
C3688 H3682 0.950 . S
C3688 C3689 1.327 . S
C3689 H3683 0.950 . S
C3689 C3688 1.327 . S
C3689 C3693 1.429 . S
C3690 C3673 1.570 1_554 S
C3690 H3684 0.936 1_554 S
C3690 C3694 1.387 . S
C3691 C3672 1.429 . S
C3691 C3685 1.429 1_554 S
C3691 C3692 1.523 . S
C3692 C3673 1.368 1_554 S
C3692 C3686 1.368 . S
C3692 C3691 1.523 . S
C3693 C3677 1.429 . S
C3693 C3689 1.429 . S
C3693 C3694 1.523 . S
C3694 C3678 1.368 . S
C3694 C3690 1.387 . S
C3694 C3693 1.523 . S
H3695 C3670 0.950 . S
H3696 C3672 0.950 . S
H3697 C3673 0.949 . S
H3698 C3675 0.950 . S
H3699 C3677 0.950 1_556 S
C3700 C3701 1.349 . S
C3700 C3702 1.327 . S
C3700 H3725 0.950 . S
C3701 C3700 1.349 . S
C3701 C3717 1.349 . S
C3702 C3700 1.327 . S
C3702 C3721 1.429 . S
C3702 H3726 0.950 . S
C3703 C3720 1.574 . S
C3703 C3722 1.368 . S
C3703 H3727 0.949 . S
H3704 C3708 0.949 . S
C3705 C3706 1.349 . S
C3705 C3707 1.327 . S
C3705 H3728 0.950 . S
C3706 C3705 1.349 . S
C3706 C3718 1.349 . S
C3707 C3705 1.327 . S
C3707 C3723 1.429 . S
C3707 H3729 0.950 . S
C3708 H3704 0.949 . S
C3708 C3716 1.574 . S
C3708 C3724 1.368 . S
H3709 C3717 0.950 . S
H3710 C3715 0.950 . S
H3711 C3716 0.949 . S
H3712 C3718 0.950 . S
H3713 C3719 0.950 . S
H3714 C3720 0.949 . S
C3715 H3710 0.950 . S
C3715 C3717 1.327 . S
C3715 C3721 1.429 . S
C3716 C3708 1.574 . S
C3716 H3711 0.949 . S
C3716 C3722 1.368 . S
C3717 C3701 1.349 . S
C3717 H3709 0.950 . S
C3717 C3715 1.327 . S
C3718 C3706 1.349 . S
C3718 H3712 0.950 . S
C3718 C3719 1.327 . S
C3719 H3713 0.950 . S
C3719 C3718 1.327 . S
C3719 C3723 1.429 . S
C3720 C3703 1.574 . S
C3720 H3714 0.949 . S
C3720 C3724 1.368 . S
C3721 C3702 1.429 . S
C3721 C3715 1.429 . S
C3721 C3722 1.523 . S
C3722 C3703 1.368 . S
C3722 C3716 1.368 . S
C3722 C3721 1.523 . S
C3723 C3707 1.429 . S
C3723 C3719 1.429 . S
C3723 C3724 1.523 . S
C3724 C3708 1.368 . S
C3724 C3720 1.368 . S
C3724 C3723 1.523 . S
H3725 C3700 0.950 . S
H3726 C3702 0.950 . S
H3727 C3703 0.949 . S
H3728 C3705 0.950 . S
H3729 C3707 0.950 . S
C3730 C3731 1.349 . S
C3730 C3732 1.327 . S
C3730 H3755 0.950 . S
C3731 C3730 1.349 . S
C3731 C3747 1.349 . S
C3732 C3730 1.327 . S
C3732 C3751 1.429 . S
C3732 H3756 0.950 . S
C3733 C3750 1.574 . S
C3733 C3752 1.368 . S
C3733 H3757 0.949 . S
H3734 C3738 0.949 . S
C3735 C3736 1.349 . S
C3735 C3737 1.327 . S
C3735 H3758 0.950 . S
C3736 C3735 1.349 . S
C3736 C3748 1.349 . S
C3737 C3735 1.327 . S
C3737 C3753 1.429 . S
C3737 H3759 0.950 . S
C3738 H3734 0.949 . S
C3738 C3746 1.574 . S
C3738 C3754 1.368 . S
H3739 C3747 0.950 . S
H3740 C3745 0.950 . S
H3741 C3746 0.949 . S
H3742 C3748 0.950 . S
H3743 C3749 0.950 . S
H3744 C3750 0.949 . S
C3745 H3740 0.950 . S
C3745 C3747 1.327 . S
C3745 C3751 1.429 . S
C3746 C3738 1.574 . S
C3746 H3741 0.949 . S
C3746 C3752 1.368 . S
C3747 C3731 1.349 . S
C3747 H3739 0.950 . S
C3747 C3745 1.327 . S
C3748 C3736 1.349 . S
C3748 H3742 0.950 . S
C3748 C3749 1.327 . S
C3749 H3743 0.950 . S
C3749 C3748 1.327 . S
C3749 C3753 1.429 . S
C3750 C3733 1.574 . S
C3750 H3744 0.949 . S
C3750 C3754 1.368 . S
C3751 C3732 1.429 . S
C3751 C3745 1.429 . S
C3751 C3752 1.523 . S
C3752 C3733 1.368 . S
C3752 C3746 1.368 . S
C3752 C3751 1.523 . S
C3753 C3737 1.429 . S
C3753 C3749 1.429 . S
C3753 C3754 1.523 . S
C3754 C3738 1.368 . S
C3754 C3750 1.368 . S
C3754 C3753 1.523 . S
H3755 C3730 0.950 . S
H3756 C3732 0.950 . S
H3757 C3733 0.949 . S
H3758 C3735 0.950 . S
H3759 C3737 0.950 . S
C886 C353 0.908 . S
C881 C5 0.911 . S
C911 C23 1.814 . S
C916 C399 1.805 . S
C941 C39 0.761 . S
C946 C408 0.761 . S
C976 C446 1.565 . S
C971 C42 1.578 . S
C1001 C19 1.569 . S
C1006 C480 1.549 . S
C1036 C510 0.710 . S
C1031 C28 0.710 . S
C1066 C569 1.529 . S
C1061 C53 1.518 . S
C1091 C9 0.822 . S
C1096 C582 0.821 . S
C1121 C65 1.324 . S
C1126 C365 1.309 1_565 S
C1151 C75 1.092 . S
C1156 C383 1.083 . S
C1186 C404 1.630 . S
C1181 C93 1.645 . S
C1216 C442 0.593 . S
C1211 C109 0.586 . S
C1241 C56 1.189 . S
C1246 C476 1.182 . S
C1276 C506 1.437 . S
C1271 C81 1.443 . S
C1306 C553 1.148 . S
C1301 C84 1.151 . S
C1336 C578 0.541 . S
C1331 C103 0.529 . S
C1366 C349 0.504 1_556 S
C1361 C107 0.507 . S
C1396 C608 1.537 . S
C1391 C121 1.537 . S
C1421 C131 1.352 . S
C1426 C650 1.339 . S
C1456 C693 0.521 . S
C1451 C140 0.516 . S
C1481 C61 1.298 . S
C1486 C574 1.285 . S
C1516 C412 1.316 . S
C1511 C70 1.316 . S
C1541 C137 1.246 . S
C1546 C710 1.243 . S
C1576 C761 1.441 . S
C1571 C165 1.445 . S
C1601 C173 0.876 . S
C1606 C344 0.872 . S
C1636 C744 1.744 . S
C1631 C182 1.751 . S
C1661 C207 0.748 . S
C1666 C417 0.748 . S
C1691 C219 1.545 . S
C1696 C727 1.520 . S
C1726 C489 1.502 . S
C1721 C187 1.521 . S
C1756 C655 0.699 . S
C1751 C205 0.698 . S
C1786 C540 1.475 . S
C1781 C221 1.480 . S
C1816 C795 0.780 . S
C1811 C168 0.788 . S
C1846 C336 1.261 . S
C1841 C224 1.273 . S
C1871 C243 1.052 . S
C1876 C748 1.045 . S
C1906 C433 1.562 . S
C1901 C252 1.573 . S
C1931 C277 0.542 . S
C1936 C723 0.557 . S
C1961 C233 1.191 . S
C1966 C485 1.179 . S
C1991 C249 1.415 . S
C1996 C671 1.406 . S
C2026 C544 1.127 . S
C2021 C261 1.139 . S
C2051 C271 0.506 . S
C2056 C791 0.521 . S
C2081 C266 0.459 . S
C2086 C340 0.482 . S
C2111 C280 1.481 . S
C2116 C637 1.483 . S
C2141 C299 1.291 . S
C2146 C523 1.280 . S
C2171 C317 0.469 . S
C2176 C684 0.483 . S
C2206 C807 1.241 . S
C2201 C229 1.253 . S
C2236 C421 1.289 . S
C2231 C247 1.302 . S
C2266 C467 1.218 . S
C2261 C305 1.218 . S
C2296 C378 1.424 . S
C2291 C333 1.426 . S
C2321 C33 0.911 . S
C2326 C829 0.908 . S
C2356 C773 1.805 . S
C2351 C51 1.814 . S
C2386 C850 0.761 . S
C2381 C11 0.761 . S
C2411 C14 1.578 . S
C2416 C718 1.565 . S
C2441 C47 1.569 . S
C2446 C616 1.549 . S
C2476 C646 0.710 . S
C2471 C0 0.710 . S
C2506 C705 1.514 . S
C2501 C25 1.518 . S
C2536 C786 0.821 . S
C2531 C37 0.822 . S
C2566 C841 1.315 . S
C2561 C163 1.324 . S
C2591 C117 1.092 1_556 S
C2596 C757 1.083 . S
C2621 C135 1.645 . S
C2626 C846 1.630 . S
C2656 C714 0.593 . S
C2651 C151 0.586 . S
C2686 C612 1.181 . S
C2681 C154 1.188 . S
C2711 C123 1.443 . S
C2716 C642 1.437 . S
C2746 C689 1.148 . S
C2741 C126 1.152 . S
C2771 C145 0.529 . S
C2776 C782 0.541 . S
C2806 C825 0.512 . S
C2801 C149 0.507 . S
C2836 C472 1.537 . S
C2831 C79 1.537 . S
C2866 C514 1.339 . S
C2861 C89 1.352 . S
C2891 C98 0.516 . S
C2896 C557 0.521 . S
C2926 C778 1.285 . S
C2921 C159 1.298 . S
C2951 C112 1.316 . S
C2956 C854 1.316 . S
C2986 C438 1.243 . S
C2981 C95 1.246 . S
C3016 C387 1.441 . S
C3011 C67 1.445 . S
C3041 C201 0.874 . S
C3046 C820 0.871 . S
C3076 C370 1.744 . S
C3071 C210 1.751 . S
C3106 C859 0.752 . S
C3101 C179 0.748 . S
C3131 C191 1.545 . S
C3136 C455 1.520 . S
C3161 C215 1.521 . S
C3166 C625 1.502 . S
C3191 C177 0.698 . S
C3196 C519 0.693 . S
C3221 C193 1.480 . S
C3226 C676 1.475 . S
C3251 C196 0.781 . S
C3256 C591 0.780 . S
C3286 C812 1.261 . S
C3281 C322 1.273 . S
C3311 C285 1.052 . S
C3316 C374 1.045 . S
C3346 C875 1.562 . S
C3341 C294 1.573 . S
C3371 C319 0.542 . S
C3376 C451 0.558 . S
C3401 C331 1.191 . S
C3406 C621 1.179 . S
C3436 C535 1.406 . S
C3431 C291 1.415 . S
C3461 C303 1.139 . S
C3466 C680 1.127 . S
C3496 C587 0.521 . S
C3491 C313 0.506 . S
C3526 C816 0.482 . S
C3521 C308 0.459 . S
C3556 C501 1.483 . S
C3551 C238 1.481 . S
C3581 C257 1.291 . S
C3586 C659 1.280 . S
C3616 C548 0.483 . S
C3611 C275 0.469 . S
C3646 C603 1.241 . S
C3641 C327 1.253 . S
C3671 C289 1.296 1_554 S
C3676 C863 1.289 . S
C3706 C739 1.218 . S
C3701 C263 1.218 . S
C3736 C752 1.424 . S
C3731 C235 1.427 . S
