# Generated by pormake.
# Topology soc, (4,6)-cn, num edge types: 1
# Building blocks:
#     Node 0, Type 0, BuildingBlock: ESEHIV_clean_sbu_0, # of connection points: 4
#     Node 1, Type 0, BuildingBlock: ESEHIV_clean_sbu_0, # of connection points: 4
#     Node 2, Type 0, BuildingBlock: ESEHIV_clean_sbu_0, # of connection points: 4
#     Node 3, Type 0, BuildingBlock: ESEHIV_clean_sbu_0, # of connection points: 4
#     Node 4, Type 0, BuildingBlock: ESEHIV_clean_sbu_0, # of connection points: 4
#     Node 5, Type 0, BuildingBlock: ESEHIV_clean_sbu_0, # of connection points: 4
#     Node 6, Type 0, BuildingBlock: ESEHIV_clean_sbu_0, # of connection points: 4
#     Node 7, Type 0, BuildingBlock: ESEHIV_clean_sbu_0, # of connection points: 4
#     Node 8, Type 0, BuildingBlock: ESEHIV_clean_sbu_0, # of connection points: 4
#     Node 9, Type 0, BuildingBlock: ESEHIV_clean_sbu_0, # of connection points: 4
#     Node 10, Type 0, BuildingBlock: ESEHIV_clean_sbu_0, # of connection points: 4
#     Node 11, Type 0, BuildingBlock: ESEHIV_clean_sbu_0, # of connection points: 4
#     Node 12, Type 1, BuildingBlock: BETDEL_clean_sbu_0, # of connection points: 6
#     Node 13, Type 1, BuildingBlock: BETDEL_clean_sbu_0, # of connection points: 6
#     Node 14, Type 1, BuildingBlock: BETDEL_clean_sbu_0, # of connection points: 6
#     Node 15, Type 1, BuildingBlock: BETDEL_clean_sbu_0, # of connection points: 6
#     Node 16, Type 1, BuildingBlock: BETDEL_clean_sbu_0, # of connection points: 6
#     Node 17, Type 1, BuildingBlock: BETDEL_clean_sbu_0, # of connection points: 6
#     Node 18, Type 1, BuildingBlock: BETDEL_clean_sbu_0, # of connection points: 6
#     Node 19, Type 1, BuildingBlock: BETDEL_clean_sbu_0, # of connection points: 6
#     Edge 20, Type (0, 1), BuildingBlock: MIFKUJ_clean_linker_0, # of connection points: 2
#     Edge 21, Type (0, 1), BuildingBlock: MIFKUJ_clean_linker_0, # of connection points: 2
#     Edge 22, Type (0, 1), BuildingBlock: MIFKUJ_clean_linker_0, # of connection points: 2
#     Edge 23, Type (0, 1), BuildingBlock: MIFKUJ_clean_linker_0, # of connection points: 2
#     Edge 24, Type (0, 1), BuildingBlock: MIFKUJ_clean_linker_0, # of connection points: 2
#     Edge 25, Type (0, 1), BuildingBlock: MIFKUJ_clean_linker_0, # of connection points: 2
#     Edge 26, Type (0, 1), BuildingBlock: MIFKUJ_clean_linker_0, # of connection points: 2
#     Edge 27, Type (0, 1), BuildingBlock: MIFKUJ_clean_linker_0, # of connection points: 2
#     Edge 28, Type (0, 1), BuildingBlock: MIFKUJ_clean_linker_0, # of connection points: 2
#     Edge 29, Type (0, 1), BuildingBlock: MIFKUJ_clean_linker_0, # of connection points: 2
#     Edge 30, Type (0, 1), BuildingBlock: MIFKUJ_clean_linker_0, # of connection points: 2
#     Edge 31, Type (0, 1), BuildingBlock: MIFKUJ_clean_linker_0, # of connection points: 2
#     Edge 32, Type (0, 1), BuildingBlock: MIFKUJ_clean_linker_0, # of connection points: 2
#     Edge 33, Type (0, 1), BuildingBlock: MIFKUJ_clean_linker_0, # of connection points: 2
#     Edge 34, Type (0, 1), BuildingBlock: MIFKUJ_clean_linker_0, # of connection points: 2
#     Edge 35, Type (0, 1), BuildingBlock: MIFKUJ_clean_linker_0, # of connection points: 2
#     Edge 36, Type (0, 1), BuildingBlock: MIFKUJ_clean_linker_0, # of connection points: 2
#     Edge 37, Type (0, 1), BuildingBlock: MIFKUJ_clean_linker_0, # of connection points: 2
#     Edge 38, Type (0, 1), BuildingBlock: MIFKUJ_clean_linker_0, # of connection points: 2
#     Edge 39, Type (0, 1), BuildingBlock: MIFKUJ_clean_linker_0, # of connection points: 2
#     Edge 40, Type (0, 1), BuildingBlock: MIFKUJ_clean_linker_0, # of connection points: 2
#     Edge 41, Type (0, 1), BuildingBlock: MIFKUJ_clean_linker_0, # of connection points: 2
#     Edge 42, Type (0, 1), BuildingBlock: MIFKUJ_clean_linker_0, # of connection points: 2
#     Edge 43, Type (0, 1), BuildingBlock: MIFKUJ_clean_linker_0, # of connection points: 2
#     Edge 44, Type (0, 1), BuildingBlock: MIFKUJ_clean_linker_0, # of connection points: 2
#     Edge 45, Type (0, 1), BuildingBlock: MIFKUJ_clean_linker_0, # of connection points: 2
#     Edge 46, Type (0, 1), BuildingBlock: MIFKUJ_clean_linker_0, # of connection points: 2
#     Edge 47, Type (0, 1), BuildingBlock: MIFKUJ_clean_linker_0, # of connection points: 2
#     Edge 48, Type (0, 1), BuildingBlock: MIFKUJ_clean_linker_0, # of connection points: 2
#     Edge 49, Type (0, 1), BuildingBlock: MIFKUJ_clean_linker_0, # of connection points: 2
#     Edge 50, Type (0, 1), BuildingBlock: MIFKUJ_clean_linker_0, # of connection points: 2
#     Edge 51, Type (0, 1), BuildingBlock: MIFKUJ_clean_linker_0, # of connection points: 2
#     Edge 52, Type (0, 1), BuildingBlock: MIFKUJ_clean_linker_0, # of connection points: 2
#     Edge 53, Type (0, 1), BuildingBlock: MIFKUJ_clean_linker_0, # of connection points: 2
#     Edge 54, Type (0, 1), BuildingBlock: MIFKUJ_clean_linker_0, # of connection points: 2
#     Edge 55, Type (0, 1), BuildingBlock: MIFKUJ_clean_linker_0, # of connection points: 2
#     Edge 56, Type (0, 1), BuildingBlock: MIFKUJ_clean_linker_0, # of connection points: 2
#     Edge 57, Type (0, 1), BuildingBlock: MIFKUJ_clean_linker_0, # of connection points: 2
#     Edge 58, Type (0, 1), BuildingBlock: MIFKUJ_clean_linker_0, # of connection points: 2
#     Edge 59, Type (0, 1), BuildingBlock: MIFKUJ_clean_linker_0, # of connection points: 2
#     Edge 60, Type (0, 1), BuildingBlock: MIFKUJ_clean_linker_0, # of connection points: 2
#     Edge 61, Type (0, 1), BuildingBlock: MIFKUJ_clean_linker_0, # of connection points: 2
#     Edge 62, Type (0, 1), BuildingBlock: MIFKUJ_clean_linker_0, # of connection points: 2
#     Edge 63, Type (0, 1), BuildingBlock: MIFKUJ_clean_linker_0, # of connection points: 2
#     Edge 64, Type (0, 1), BuildingBlock: MIFKUJ_clean_linker_0, # of connection points: 2
#     Edge 65, Type (0, 1), BuildingBlock: MIFKUJ_clean_linker_0, # of connection points: 2
#     Edge 66, Type (0, 1), BuildingBlock: MIFKUJ_clean_linker_0, # of connection points: 2
#     Edge 67, Type (0, 1), BuildingBlock: MIFKUJ_clean_linker_0, # of connection points: 2
# Relax obj value: 0.106
# Max RMSD: 0.163
# Mean RMSD: 0.144
data_MOF--net-soc--node1-ESEHIV_clean_sbu_0--node2-BETDEL_clean_sbu_0--edge1-MIFKUJ_clean_linker_0
_symmetry_space_group_name_H-M    P1
_symmetry_Int_Tables_number       1
_symmetry_cell_setting            triclinic
loop_
_symmetry_equiv_pos_as_xyz
'x, y, z'
_cell_length_a     59.901926
_cell_length_b     57.348031
_cell_length_c     54.655281
_cell_angle_alpha  89.398259
_cell_angle_beta   90.078164
_cell_angle_gamma 82.327717
loop_
_atom_site_label
_atom_site_type_symbol
_atom_site_fract_x
_atom_site_fract_y
_atom_site_fract_z
_atom_type_partial_charge
Cu0 Cu 0.02686 0.02259 0.2851 0.0
N1 N 0.04531 0.04017 0.30327 0.0
N2 N 0.06918 0.06623 0.3112 0.0
C3 C 0.05635 0.0573 0.29412 0.0
C4 C 0.06592 0.054 0.33192 0.0
C5 C 0.05132 0.03802 0.32697 0.0
O6 O 0.04759 0.99918 0.267 0.0
C7 C 0.99589 0.06247 0.2791 0.0
O8 O 1.00195 0.06401 0.30207 0.0
H9 H 0.05501 0.06279 0.27514 0.0
H10 H 0.046 0.0253 0.33967 0.0
N11 N 1.00884 0.00601 0.30493 0.0
N12 N 0.98295 0.98244 0.31399 0.0
C13 C 0.99719 0.98907 0.29686 0.0
C14 C 1.00171 0.01041 0.32795 0.0
C15 C 0.9859 0.99581 0.33366 0.0
C16 C 0.0623 0.98682 0.28045 0.0
O17 O 0.06174 0.99013 0.30417 0.0
H18 H 0.99828 0.98278 0.27826 0.0
H19 H 1.00672 0.02407 0.3394 0.0
O20 O 1.00525 0.04515 0.26653 0.0
H21 H 0.07369 0.056 0.34949 0.0
H22 H 0.97691 0.99558 0.35079 0.0
Cu23 Cu 0.02344 0.01252 0.74195 0.0
N24 N 1.00859 0.99262 0.72255 0.0
N25 N 0.9858 0.96603 0.71335 0.0
C26 C 0.99119 0.98164 0.72997 0.0
C27 C 1.00041 0.96723 0.69474 0.0
C28 C 1.01444 0.98367 0.70046 0.0
O29 O 1.0003 0.03297 0.76051 0.0
C30 C 0.06398 0.98298 0.7468 0.0
O31 O 0.06505 0.98991 0.72391 0.0
H32 H 0.98332 0.98431 0.74772 0.0
H33 H 0.0284 0.98817 0.68967 0.0
N34 N 0.03846 0.03323 0.72345 0.0
N35 N 0.06314 0.0582 0.71493 0.0
C36 C 0.05593 0.04348 0.7317 0.0
C37 C 0.03428 0.04184 0.70067 0.0
C38 C 0.04948 0.0573 0.69536 0.0
C39 C 0.98352 0.04243 0.74767 0.0
O40 O 0.98283 0.03719 0.72438 0.0
H41 H 0.06295 0.04044 0.7499 0.0
H42 H 0.02103 0.03733 0.68886 0.0
O43 O 0.04683 0.99111 0.7596 0.0
H44 H 1.00111 0.95676 0.67833 0.0
H45 H 0.05049 0.06698 0.67838 0.0
Cu46 Cu 0.26584 0.02762 0.02637 0.0
N47 N 0.24233 0.0172 0.00915 0.0
N48 N 0.22644 0.99443 0.98332 0.0
C49 C 0.24432 0.99645 0.99772 0.0
C50 C 0.21262 0.0149 0.98558 0.0
C51 C 0.22249 0.02895 0.00168 0.0
O52 O 0.28459 1.00007 0.04007 0.0
C53 C 0.2711 0.0681 1.00005 0.0
O54 O 0.25371 0.07599 0.01364 0.0
H55 H 0.25942 0.98377 0.99858 0.0
H56 H 0.21627 0.04689 0.0065 0.0
N57 N 0.25564 0.04545 0.05327 0.0
N58 N 0.25777 0.06645 0.08708 0.0
C59 C 0.26909 0.05604 0.06795 0.0
C60 C 0.23503 0.0491 0.06338 0.0
C61 C 0.23628 0.06213 0.08431 0.0
C62 C 0.27358 0.9861 0.0519 0.0
O63 O 0.25156 0.99097 0.05326 0.0
H64 H 0.287 0.05549 0.06495 0.0
H65 H 0.22028 0.04243 0.05628 0.0
O66 O 0.2804 0.04693 0.00318 0.0
H67 H 0.19704 0.0197 0.9756 0.0
H68 H 0.22247 0.06798 0.09647 0.0
Cu69 Cu 0.03484 0.30379 0.03877 0.0
N70 N 0.05176 0.3229 0.02085 0.0
N71 N 0.07541 0.33175 0.99163 0.0
C72 C 0.05922 0.31852 0.99796 0.0
C73 C 0.07786 0.34526 0.0113 0.0
C74 C 0.06338 0.33964 0.02934 0.0
O75 O 0.05552 0.2854 0.06187 0.0
C76 C 1.00102 0.2995 0.00514 0.0
O77 O 0.99696 0.32194 0.01049 0.0
H78 H 0.0539 0.30472 0.9869 0.0
H79 H 0.06278 0.34584 0.04797 0.0
N80 N 1.01376 0.32171 0.05829 0.0
N81 N 0.98373 0.32989 0.08234 0.0
C82 C 0.9963 0.31332 0.06912 0.0
C83 C 1.01226 0.34442 0.06485 0.0
C84 C 0.99374 0.34951 0.07982 0.0
C85 C 0.07649 0.27969 0.05774 0.0
O86 O 0.08408 0.28192 0.03542 0.0
H87 H 0.99309 0.29527 0.0675 0.0
H88 H 0.02369 0.35648 0.05913 0.0
O89 O 0.01774 0.28692 0.01544 0.0
H90 H 0.0905 0.35694 0.01334 0.0
H91 H 0.98792 0.36638 0.08789 0.0
Cu92 Cu 0.78068 1.00226 0.01063 0.0
N93 N 0.79627 0.01684 0.98672 0.0
N94 N 0.8028 0.04243 0.95743 0.0
C95 C 0.79095 0.03881 0.97775 0.0
C96 C 0.8163 0.02204 0.95357 0.0
C97 C 0.81227 0.00629 0.97175 0.0
O98 O 0.76438 0.02537 0.03193 0.0
C99 C 0.77146 0.96194 0.98711 0.0
O100 O 0.79285 0.95573 0.99232 0.0
H101 H 0.7776 0.05138 0.98492 0.0
H102 H 0.81956 0.98803 0.97317 0.0
N103 N 0.80073 0.98423 0.03148 0.0
N104 N 0.81191 0.96089 0.06327 0.0
C105 C 0.79443 0.96996 0.04903 0.0
C106 C 0.82299 0.98437 0.03465 0.0
C107 C 0.82997 0.96991 0.05435 0.0
C108 C 0.74879 0.04205 0.027 0.0
O109 O 0.74043 0.04455 0.00475 0.0
H110 H 0.77711 0.96714 0.05189 0.0
H111 H 0.83324 0.99477 0.02388 0.0
O112 O 0.76193 0.98197 0.99408 0.0
H113 H 0.82758 0.01849 0.93821 0.0
H114 H 0.84691 0.96653 0.06167 0.0
Cu115 Cu 0.01955 0.7249 0.99419 0.0
N116 N 1.00369 0.7104 0.9705 0.0
N117 N 0.97826 0.70692 0.94118 0.0
C118 C 0.98704 0.72166 0.9565 0.0
C119 C 0.98994 0.6855 0.94576 0.0
C120 C 1.00558 0.68769 0.96388 0.0
O121 O 0.99707 0.74098 0.01677 0.0
C122 C 0.05875 0.74711 0.98315 0.0
O123 O 0.06409 0.74323 0.00627 0.0
H124 H 0.98155 0.74038 0.95759 0.0
H125 H 0.01719 0.67364 0.9719 0.0
N126 N 0.03843 0.70323 0.01306 0.0
N127 N 0.06353 0.69353 0.04301 0.0
C128 C 0.04482 0.70779 0.03593 0.0
C129 C 0.05328 0.68506 0.00552 0.0
C130 C 0.06869 0.6789 0.02406 0.0
C131 C 0.98278 0.72797 0.02461 0.0
O132 O 0.98442 0.70618 0.01692 0.0
H133 H 0.03729 0.72294 0.04607 0.0
H134 H 0.05437 0.67848 0.98703 0.0
O135 O 0.03932 0.74344 0.97569 0.0
H136 H 0.98703 0.66928 0.93712 0.0
H137 H 0.08387 0.66643 0.02264 0.0
Cu138 Cu 0.52499 0.51122 0.79736 0.0
N139 N 0.53905 0.53216 0.81615 0.0
N140 N 0.55937 0.56153 0.82318 0.0
C141 C 0.55193 0.54731 0.8063 0.0
C142 C 0.55064 0.55498 0.8446 0.0
C143 C 0.53807 0.53692 0.84019 0.0
O144 O 0.54937 0.4911 0.78011 0.0
C145 C 0.48549 0.54121 0.79233 0.0
O146 O 0.48563 0.53568 0.81571 0.0
H147 H 0.55513 0.5482 0.78687 0.0
H148 H 0.52859 0.52823 0.8535 0.0
N149 N 0.50968 0.49062 0.81582 0.0
N150 N 0.4851 0.46535 0.8237 0.0
C151 C 0.49224 0.48047 0.80729 0.0
C152 C 0.51381 0.4816 0.83847 0.0
C153 C 0.49868 0.46598 0.84336 0.0
C154 C 0.56456 0.48112 0.79472 0.0
O155 O 0.56225 0.48566 0.81815 0.0
H156 H 0.48534 0.48368 0.78907 0.0
H157 H 0.52709 0.48572 0.85042 0.0
O158 O 0.50176 0.53192 0.77892 0.0
H159 H 0.55305 0.56265 0.86225 0.0
H160 H 0.49777 0.45587 0.86008 0.0
Cu161 Cu 0.52991 0.52196 0.23737 0.0
N162 N 0.51593 0.50094 0.21855 0.0
N163 N 0.49329 0.47408 0.20991 0.0
C164 C 0.49699 0.49195 0.22465 0.0
C165 C 0.51055 0.47181 0.19389 0.0
C166 C 0.5245 0.48834 0.1993 0.0
O167 O 0.50608 0.54452 0.25221 0.0
C168 C 0.56914 0.4922 0.24867 0.0
O169 O 0.57297 0.49763 0.22582 0.0
H170 H 0.48695 0.49739 0.24055 0.0
H171 H 0.54039 0.49016 0.19064 0.0
N172 N 0.54723 0.53998 0.2181 0.0
N173 N 0.57426 0.56186 0.20857 0.0
C174 C 0.56277 0.55277 0.22676 0.0
C175 C 0.54869 0.54136 0.19356 0.0
C176 C 0.56547 0.55473 0.18762 0.0
C177 C 0.49244 0.5553 0.23652 0.0
O178 O 0.49545 0.54979 0.21337 0.0
H179 H 0.56625 0.55449 0.24606 0.0
H180 H 0.53863 0.53282 0.18087 0.0
O181 O 0.55089 0.50152 0.25883 0.0
H182 H 0.51329 0.45865 0.17977 0.0
H183 H 0.57088 0.5588 0.16936 0.0
Cu184 Cu 0.83423 0.52137 0.51818 0.0
N185 N 0.84954 0.53433 0.49285 0.0
N186 N 0.85373 0.55152 0.45665 0.0
C187 C 0.83905 0.54538 0.47341 0.0
C188 C 0.87437 0.54421 0.46602 0.0
C189 C 0.87173 0.53341 0.48835 0.0
O190 O 0.82045 0.54682 0.53879 0.0
C191 C 0.82109 0.49004 0.48547 0.0
O192 O 0.84256 0.48909 0.48014 0.0
H193 H 0.8209 0.54868 0.47162 0.0
H194 H 0.88503 0.52505 0.5001 0.0
N195 N 0.85309 0.50031 0.5376 0.0
N196 N 0.86236 0.47007 0.56335 0.0
C197 C 0.84671 0.48082 0.54774 0.0
C198 C 0.87355 0.50207 0.54704 0.0
C199 C 0.87934 0.48338 0.56297 0.0
C200 C 0.83339 0.56122 0.54621 0.0
O201 O 0.85455 0.55815 0.53925 0.0
H202 H 0.83028 0.47545 0.54475 0.0
H203 H 0.88317 0.51639 0.54347 0.0
O204 O 0.81284 0.50339 0.50261 0.0
H205 H 0.89019 0.546 0.45713 0.0
H206 H 0.89456 0.48021 0.57387 0.0
Cu207 Cu 0.53288 0.77173 0.52071 0.0
N208 N 0.55703 0.75411 0.50433 0.0
N209 N 0.58774 0.74673 0.4806 0.0
C210 C 0.57146 0.76327 0.48916 0.0
C211 C 0.58334 0.72634 0.49103 0.0
C212 C 0.56451 0.73096 0.50569 0.0
O213 O 0.54696 0.78785 0.5466 0.0
C214 C 0.51213 0.78343 0.47619 0.0
O215 O 0.5222 0.76223 0.47131 0.0
H216 H 0.56983 0.78178 0.48439 0.0
H217 H 0.55701 0.71839 0.51682 0.0
N218 N 0.5118 0.75394 0.53464 0.0
N219 N 0.48157 0.74663 0.55625 0.0
C220 C 0.49681 0.76164 0.55217 0.0
C221 C 0.50575 0.73339 0.52718 0.0
C222 C 0.48719 0.7288 0.54051 0.0
C223 C 0.55215 0.77639 0.56638 0.0
O224 O 0.54623 0.75528 0.56913 0.0
H225 H 0.49653 0.7785 0.56097 0.0
H226 H 0.5137 0.72294 0.51245 0.0
O227 O 0.51534 0.79227 0.49702 0.0
H228 H 0.59325 0.70931 0.48871 0.0
H229 H 0.47838 0.71364 0.5385 0.0
Cu230 Cu 0.23857 0.51421 0.51557 0.0
N231 N 0.22083 0.53479 0.49459 0.0
N232 N 0.21341 0.56375 0.46676 0.0
C233 C 0.22727 0.55451 0.48497 0.0
C234 C 0.19744 0.54922 0.46519 0.0
C235 C 0.20213 0.53134 0.48231 0.0
O236 O 0.26056 0.53159 0.52977 0.0
C237 C 0.26162 0.49021 0.47676 0.0
O238 O 0.26565 0.51132 0.47007 0.0
H239 H 0.24248 0.56121 0.49062 0.0
H240 H 0.19333 0.51618 0.48464 0.0
N241 N 0.22218 0.50327 0.54116 0.0
N242 N 0.21566 0.48031 0.57295 0.0
C243 C 0.22703 0.48195 0.55183 0.0
C244 C 0.20711 0.51562 0.5559 0.0
C245 C 0.20302 0.50147 0.57556 0.0
C246 C 0.27267 0.52415 0.54804 0.0
O247 O 0.27345 0.50206 0.55502 0.0
H248 H 0.23998 0.46857 0.54515 0.0
H249 H 0.2006 0.534 0.55328 0.0
O250 O 0.25154 0.48763 0.49682 0.0
H251 H 0.18405 0.55053 0.45176 0.0
H252 H 0.19221 0.50665 0.59096 0.0
Cu253 Cu 0.51797 0.23806 0.50946 0.0
N254 N 0.53536 0.21934 0.48703 0.0
N255 N 0.5622 0.20873 0.45948 0.0
C256 C 0.55271 0.22592 0.47434 0.0
C257 C 0.55009 0.19071 0.4628 0.0
C258 C 0.5335 0.19733 0.4798 0.0
O259 O 0.53825 0.25554 0.52848 0.0
C260 C 0.4781 0.24484 0.48255 0.0
O261 O 0.47862 0.22272 0.48926 0.0
H262 H 0.55805 0.24313 0.47591 0.0
H263 H 0.52099 0.18686 0.48641 0.0
N264 N 0.50529 0.21916 0.53213 0.0
N265 N 0.48239 0.20826 0.56106 0.0
C266 C 0.48642 0.22537 0.54514 0.0
C267 C 0.5136 0.19747 0.54015 0.0
C268 C 0.49949 0.19067 0.558 0.0
C269 C 0.5566 0.24353 0.53592 0.0
O270 O 0.56077 0.22126 0.52993 0.0
H271 H 0.47621 0.24236 0.54338 0.0
H272 H 0.52903 0.18746 0.53376 0.0
O273 O 0.49375 0.25622 0.48995 0.0
H274 H 0.55313 0.17383 0.45387 0.0
H275 H 0.50167 0.1741 0.56794 0.0
Dy276 Dy 0.25879 0.26179 0.28244 0.0
C277 C 0.32601 0.31878 0.24385 0.0
C278 C 0.22265 0.23767 0.28654 0.0
Dy279 Dy 0.2944 0.29015 0.25503 0.0
O280 O 0.23228 0.24689 0.30479 0.0
O281 O 0.23263 0.24189 0.26621 0.0
O282 O 0.2795 0.25207 0.31678 0.0
O283 O 0.29223 0.27032 0.28837 0.0
C284 C 0.29672 0.26205 0.30953 0.0
C285 C 0.2577 0.28262 0.22908 0.0
O286 O 0.30963 0.25332 0.24705 0.0
O287 O 0.27962 0.23416 0.26053 0.0
O288 O 0.30435 0.32476 0.24228 0.0
O289 O 0.33046 0.29698 0.25114 0.0
O290 O 0.27704 0.28504 0.21923 0.0
O291 O 0.25854 0.28661 0.25172 0.0
O292 O 0.24664 0.29822 0.29481 0.0
O293 O 0.27885 0.31486 0.28362 0.0
C294 C 0.29946 0.23427 0.24973 0.0
C295 C 0.25921 0.31564 0.2951 0.0
Dy296 Dy 0.77721 0.28175 0.28329 0.0
C297 C 0.75641 0.21648 0.21008 0.0
C298 C 0.77914 0.31533 0.31808 0.0
Dy299 Dy 0.76182 0.24858 0.24552 0.0
O300 O 0.78291 0.29277 0.322 0.0
O301 O 0.77459 0.31956 0.29509 0.0
O302 O 0.81283 0.26451 0.28221 0.0
O303 O 0.78686 0.24412 0.27518 0.0
C304 C 0.80804 0.2443 0.2748 0.0
C305 C 0.73208 0.28711 0.25468 0.0
O306 O 0.74737 0.23349 0.27865 0.0
O307 O 0.74947 0.26627 0.30253 0.0
O308 O 0.76452 0.21135 0.23182 0.0
O309 O 0.75136 0.23911 0.2077 0.0
O310 O 0.72622 0.26692 0.2488 0.0
O311 O 0.75319 0.28614 0.25328 0.0
O312 O 0.79255 0.29586 0.25009 0.0
O313 O 0.78973 0.26335 0.2259 0.0
C314 C 0.7421 0.24586 0.2986 0.0
C315 C 0.79766 0.28343 0.2301 0.0
Dy316 Dy 0.7756 0.74251 0.24703 0.0
C317 C 0.82758 0.81436 0.28138 0.0
C318 C 0.74735 0.71003 0.23754 0.0
Dy319 Dy 0.80269 0.77874 0.272 0.0
O320 O 0.76927 0.70543 0.23794 0.0
O321 O 0.74124 0.73215 0.24183 0.0
O322 O 0.7681 0.76717 0.21517 0.0
O323 O 0.77237 0.78059 0.2501 0.0
C324 C 0.7699 0.7859 0.22777 0.0
C325 C 0.80879 0.73567 0.29165 0.0
O326 O 0.77201 0.78284 0.29626 0.0
O327 O 0.76059 0.74736 0.28461 0.0
O328 O 0.80684 0.81738 0.27361 0.0
O329 O 0.83432 0.79208 0.28452 0.0
O330 O 0.81058 0.7546 0.304 0.0
O331 O 0.80612 0.74045 0.26913 0.0
O332 O 0.80618 0.73725 0.22299 0.0
O333 O 0.82066 0.77082 0.23611 0.0
C334 C 0.75923 0.76574 0.29935 0.0
C335 C 0.82072 0.75281 0.22095 0.0
Dy336 Dy 0.26375 0.76156 0.24209 0.0
C337 C 0.32818 0.79035 0.3127 0.0
C338 C 0.22997 0.74938 0.21327 0.0
Dy339 Dy 0.29398 0.78307 0.28187 0.0
O340 O 0.24537 0.73458 0.22395 0.0
O341 O 0.23296 0.77081 0.21848 0.0
O342 O 0.29517 0.74268 0.22519 0.0
O343 O 0.29478 0.74953 0.26271 0.0
C344 C 0.30715 0.74153 0.24517 0.0
C345 C 0.25372 0.81065 0.27566 0.0
O346 O 0.30501 0.79906 0.24675 0.0
O347 O 0.27628 0.79037 0.22069 0.0
O348 O 0.30703 0.79197 0.31869 0.0
O349 O 0.3307 0.78472 0.28974 0.0
O350 O 0.26889 0.81516 0.29132 0.0
O351 O 0.26125 0.79177 0.26528 0.0
O352 O 0.25125 0.74721 0.27718 0.0
O353 O 0.28068 0.75414 0.30301 0.0
C354 C 0.29402 0.80117 0.22548 0.0
C355 C 0.26236 0.74416 0.29829 0.0
Dy356 Dy 0.27859 0.77687 0.78258 0.0
C357 C 0.25438 0.69971 0.72935 0.0
C358 C 0.28186 0.81689 0.80791 0.0
Dy359 Dy 0.26048 0.73797 0.75644 0.0
O360 O 0.28887 0.79572 0.81572 0.0
O361 O 0.27364 0.81619 0.78599 0.0
O362 O 0.3136 0.75817 0.78323 0.0
O363 O 0.28652 0.73812 0.78462 0.0
C364 C 0.30779 0.73716 0.78237 0.0
C365 C 0.23216 0.77862 0.75668 0.0
O366 O 0.2445 0.73225 0.79268 0.0
O367 O 0.2508 0.76836 0.80766 0.0
O368 O 0.24815 0.72143 0.72289 0.0
O369 O 0.26369 0.69881 0.75088 0.0
O370 O 0.2256 0.75794 0.75696 0.0
O371 O 0.25334 0.77658 0.75402 0.0
O372 O 0.29571 0.78146 0.74671 0.0
O373 O 0.28832 0.74583 0.73122 0.0
C374 C 0.24087 0.74908 0.8092 0.0
C375 C 0.29883 0.76473 0.73 0.0
Dy376 Dy 0.26056 0.2427 0.76222 0.0
C377 C 0.3167 0.31179 0.79149 0.0
C378 C 0.23233 0.20989 0.75324 0.0
Dy379 Dy 0.28896 0.27828 0.78377 0.0
O380 O 0.22966 0.23139 0.74503 0.0
O381 O 0.2506 0.20615 0.76637 0.0
O382 O 0.26189 0.26035 0.72553 0.0
O383 O 0.26155 0.28052 0.75738 0.0
C384 C 0.26328 0.28103 0.73439 0.0
C385 C 0.2854 0.24094 0.81244 0.0
O386 O 0.2558 0.2928 0.79962 0.0
O387 O 0.23896 0.25922 0.79265 0.0
O388 O 0.31941 0.29069 0.80081 0.0
O389 O 0.29858 0.31476 0.77806 0.0
O390 O 0.28723 0.26175 0.82074 0.0
O391 O 0.2875 0.24058 0.7894 0.0
O392 O 0.29335 0.2283 0.7456 0.0
O393 O 0.31092 0.26116 0.75392 0.0
C394 C 0.23917 0.28002 0.80302 0.0
C395 C 0.31033 0.24072 0.74296 0.0
Dy396 Dy 0.76437 0.26267 0.74726 0.0
C397 C 0.8343 0.27754 0.82113 0.0
C398 C 0.72983 0.2632 0.71412 0.0
Dy399 Dy 0.79922 0.27762 0.78852 0.0
O400 O 0.75102 0.25626 0.70958 0.0
O401 O 0.72754 0.26968 0.73685 0.0
O402 O 0.78179 0.2255 0.74749 0.0
O403 O 0.79985 0.25271 0.75794 0.0
C404 C 0.8005 0.23052 0.75704 0.0
C405 C 0.76038 0.30837 0.78461 0.0
O406 O 0.81056 0.2965 0.75588 0.0
O407 O 0.78195 0.29002 0.72818 0.0
O408 O 0.81302 0.28071 0.82665 0.0
O409 O 0.83648 0.27461 0.79762 0.0
O410 O 0.77682 0.31152 0.79933 0.0
O411 O 0.76622 0.28917 0.77416 0.0
O412 O 0.75186 0.2466 0.78121 0.0
O413 O 0.78386 0.24805 0.80564 0.0
C414 C 0.80011 0.29982 0.73438 0.0
C415 C 0.76424 0.24062 0.80105 0.0
Dy416 Dy 0.7394 0.76083 0.76931 0.0
C417 C 0.81321 0.81632 0.74374 0.0
C418 C 0.70151 0.73955 0.77526 0.0
Dy419 Dy 0.77784 0.79118 0.74928 0.0
O420 O 0.71144 0.74985 0.7925 0.0
O421 O 0.71202 0.74142 0.75465 0.0
O422 O 0.76258 0.73804 0.79603 0.0
O423 O 0.77436 0.76312 0.77442 0.0
C424 C 0.78016 0.74818 0.79077 0.0
C425 C 0.73894 0.79575 0.72426 0.0
O426 O 0.78623 0.75734 0.72904 0.0
O427 O 0.75198 0.74261 0.7349 0.0
O428 O 0.79216 0.8253 0.7454 0.0
O429 O 0.815 0.79345 0.74499 0.0
O430 O 0.75804 0.79951 0.71471 0.0
O431 O 0.74117 0.79251 0.74705 0.0
O432 O 0.73206 0.79409 0.79083 0.0
O433 O 0.76669 0.80794 0.7849 0.0
C434 C 0.77177 0.74234 0.72385 0.0
C435 C 0.74702 0.80845 0.7963 0.0
H436 H 0.095 0.0843 0.34585 0.0
H437 H 0.11932 0.11447 0.34025 0.0
H438 H 0.10119 0.1207 0.26393 0.0
H439 H 0.07697 0.09024 0.26902 0.0
H440 H 0.14626 0.11991 0.27044 0.0
H441 H 0.07889 0.16203 0.30439 0.0
H442 H 0.04808 0.16948 0.33435 0.0
H443 H 0.09612 0.1756 0.39153 0.0
H444 H 0.12724 0.16787 0.36196 0.0
H445 H 0.19719 0.22315 0.24977 0.0
H446 H 0.16927 0.19573 0.25278 0.0
H447 H 0.18007 0.19014 0.33084 0.0
H448 H 0.20744 0.21817 0.32795 0.0
H449 H 0.13734 0.19138 0.32177 0.0
H450 H 0.20467 0.14804 0.28928 0.0
H451 H 0.2362 0.13915 0.26049 0.0
H452 H 0.18949 0.13384 0.20179 0.0
H453 H 0.15763 0.14313 0.23018 0.0
C454 C 0.09597 0.09188 0.32778 0.0
C455 C 0.08365 0.08446 0.30795 0.0
C456 C 0.10995 0.10935 0.32467 0.0
C457 C 0.11191 0.12009 0.30173 0.0
C458 C 0.09992 0.1127 0.28183 0.0
C459 C 0.08593 0.09519 0.28488 0.0
C460 C 0.12658 0.13891 0.29856 0.0
C461 C 0.1441 0.13573 0.28137 0.0
C462 C 0.12411 0.15929 0.31323 0.0
C463 C 0.1054 0.16419 0.33099 0.0
C464 C 0.08289 0.16482 0.32338 0.0
C465 C 0.06537 0.16911 0.34029 0.0
C466 C 0.07014 0.17296 0.36483 0.0
C467 C 0.09244 0.1726 0.37251 0.0
C468 C 0.11003 0.16829 0.35568 0.0
C469 C 0.19346 0.21617 0.26758 0.0
C470 C 0.20456 0.22262 0.28863 0.0
C471 C 0.17761 0.20039 0.26927 0.0
C472 C 0.17287 0.19042 0.29198 0.0
C473 C 0.18346 0.19749 0.3131 0.0
C474 C 0.19911 0.2135 0.31145 0.0
C475 C 0.1572 0.17235 0.29377 0.0
C476 C 0.13947 0.17565 0.3107 0.0
C477 C 0.1596 0.15199 0.27898 0.0
C478 C 0.17875 0.14653 0.26183 0.0
C479 C 0.20111 0.1452 0.27019 0.0
C480 C 0.21904 0.14006 0.25394 0.0
C481 C 0.21486 0.13598 0.2293 0.0
C482 C 0.19271 0.137 0.22088 0.0
C483 C 0.1747 0.14223 0.23704 0.0
H484 H 0.22877 0.132 0.21674 0.0
H485 H 0.05655 0.17627 0.3779 0.0
H486 H 0.99013 0.10883 0.2888 0.0
H487 H 0.95647 0.13711 0.28222 0.0
H488 H 0.92544 0.08492 0.24313 0.0
H489 H 0.95975 0.0564 0.24928 0.0
H490 H 0.91284 0.13174 0.22414 0.0
H491 H 0.91329 0.09153 0.3011 0.0
H492 H 0.92961 0.07555 0.34021 0.0
H493 H 0.93725 0.1453 0.3636 0.0
H494 H 0.92131 0.16168 0.32444 0.0
H495 H 0.80335 0.19976 0.25806 0.0
H496 H 0.83346 0.16629 0.25312 0.0
H497 H 0.88224 0.2089 0.27959 0.0
H498 H 0.85272 0.24224 0.2838 0.0
H499 H 0.88163 0.16198 0.30355 0.0
H500 H 0.88521 0.20105 0.22475 0.0
H501 H 0.86835 0.21741 0.18602 0.0
H502 H 0.8515 0.14943 0.16688 0.0
H503 H 0.86801 0.13275 0.20574 0.0
C504 C 0.9764 0.10351 0.27821 0.0
C505 C 0.97759 0.08036 0.26962 0.0
C506 C 0.95708 0.11969 0.27455 0.0
C507 C 0.93813 0.11308 0.26266 0.0
C508 C 0.93978 0.09045 0.25244 0.0
C509 C 0.95942 0.07419 0.25587 0.0
C510 C 0.9163 0.12918 0.26337 0.0
C511 C 0.90578 0.13798 0.24151 0.0
C512 C 0.90696 0.13753 0.286 0.0
C513 C 0.91622 0.12781 0.30976 0.0
C514 C 0.91857 0.10345 0.31453 0.0
C515 C 0.92775 0.09432 0.33671 0.0
C516 C 0.93449 0.1094 0.35437 0.0
C517 C 0.93202 0.13365 0.3499 0.0
C518 C 0.92289 0.14286 0.32772 0.0
C519 C 0.82051 0.20195 0.26268 0.0
C520 C 0.82559 0.22363 0.27145 0.0
C521 C 0.8377 0.18286 0.25983 0.0
C522 C 0.86012 0.18508 0.26607 0.0
C523 C 0.8651 0.20672 0.27475 0.0
C524 C 0.84813 0.22579 0.27716 0.0
C525 C 0.87855 0.16492 0.26441 0.0
C526 C 0.88845 0.15539 0.28619 0.0
C527 C 0.88712 0.15588 0.24178 0.0
C528 C 0.87759 0.16572 0.21825 0.0
C529 C 0.87774 0.18964 0.21237 0.0
C530 C 0.86829 0.19896 0.19039 0.0
C531 C 0.85882 0.18447 0.17403 0.0
C532 C 0.85884 0.16062 0.17959 0.0
C533 C 0.86825 0.15122 0.20159 0.0
H534 H 0.85152 0.19172 0.15701 0.0
H535 H 0.9416 0.1023 0.37153 0.0
H536 H 0.94493 0.97987 0.34078 0.0
H537 H 0.91737 0.95265 0.33522 0.0
H538 H 0.95571 0.92094 0.27464 0.0
H539 H 0.98366 0.94771 0.28033 0.0
H540 H 0.91048 0.92931 0.2641 0.0
H541 H 0.95842 0.89342 0.3287 0.0
H542 H 0.9778 0.89204 0.36863 0.0
H543 H 0.9141 0.90634 0.40516 0.0
H544 H 0.89435 0.90813 0.36538 0.0
H545 H 0.87097 0.80875 0.29686 0.0
H546 H 0.89596 0.83874 0.30116 0.0
H547 H 0.8424 0.89211 0.27746 0.0
H548 H 0.81733 0.86184 0.27264 0.0
H549 H 0.8939 0.87455 0.33045 0.0
H550 H 0.86022 0.93421 0.25293 0.0
H551 H 0.84597 0.93435 0.21046 0.0
H552 H 0.88768 0.86886 0.19728 0.0
H553 H 0.90142 0.86786 0.23997 0.0
C554 C 0.94775 0.96698 0.32644 0.0
C555 C 0.9667 0.9661 0.31104 0.0
C556 C 0.93184 0.95148 0.32321 0.0
C557 C 0.93448 0.93473 0.30453 0.0
C558 C 0.95324 0.93384 0.28906 0.0
C559 C 0.96922 0.94924 0.29234 0.0
C560 C 0.91787 0.91791 0.30126 0.0
C561 C 0.90678 0.91742 0.27867 0.0
C562 C 0.9131 0.90226 0.32014 0.0
C563 C 0.92493 0.90117 0.34406 0.0
C564 C 0.94856 0.89647 0.34524 0.0
C565 C 0.95961 0.89558 0.36784 0.0
C566 C 0.94719 0.89917 0.38941 0.0
C567 C 0.92369 0.90361 0.38843 0.0
C568 C 0.91256 0.90455 0.36586 0.0
C569 C 0.86448 0.82688 0.29258 0.0
C570 C 0.84215 0.833 0.28461 0.0
C571 C 0.8788 0.84403 0.29502 0.0
C572 C 0.87119 0.86772 0.28951 0.0
C573 C 0.84883 0.87392 0.28148 0.0
C574 C 0.83443 0.85668 0.27899 0.0
C575 C 0.88658 0.88578 0.29318 0.0
C576 C 0.89739 0.88661 0.31595 0.0
C577 C 0.89133 0.90151 0.27438 0.0
C578 C 0.88165 0.90089 0.24956 0.0
C579 C 0.86606 0.91969 0.24102 0.0
C580 C 0.85802 0.91987 0.21698 0.0
C581 C 0.86584 0.90155 0.20123 0.0
C582 C 0.88147 0.88288 0.20959 0.0
C583 C 0.88919 0.88237 0.23376 0.0
H584 H 0.85993 0.90193 0.18252 0.0
H585 H 0.95578 0.89846 0.4069 0.0
H586 H 0.06036 0.9493 0.24957 0.0
H587 H 0.09127 0.9174 0.24117 0.0
H588 H 0.13708 0.95431 0.28189 0.0
H589 H 0.1064 0.98562 0.2906 0.0
H590 H 0.15709 0.9337 0.24016 0.0
H591 H 0.11276 0.91303 0.3096 0.0
H592 H 0.07769 0.90493 0.32962 0.0
H593 H 0.07204 0.84924 0.279 0.0
H594 H 0.10696 0.85725 0.25846 0.0
H595 H 0.22923 0.83742 0.30898 0.0
H596 H 0.19505 0.86532 0.30247 0.0
H597 H 0.19541 0.84772 0.22602 0.0
H598 H 0.22944 0.81889 0.23269 0.0
H599 H 0.15061 0.85642 0.27916 0.0
H600 H 0.18185 0.91319 0.20211 0.0
H601 H 0.21674 0.92548 0.18536 0.0
H602 H 0.24969 0.91101 0.25472 0.0
H603 H 0.21483 0.89944 0.27209 0.0
C604 C 0.07719 0.95083 0.25608 0.0
C605 C 0.08105 0.97003 0.27054 0.0
C606 C 0.0948 0.93253 0.25147 0.0
C607 C 0.11658 0.93334 0.26099 0.0
C608 C 0.12056 0.95322 0.27424 0.0
C609 C 0.10299 0.97115 0.27919 0.0
C610 C 0.13497 0.91302 0.25907 0.0
C611 C 0.15552 0.91664 0.24825 0.0
C612 C 0.13316 0.8908 0.26992 0.0
C613 C 0.11228 0.88593 0.28232 0.0
C614 C 0.10393 0.89919 0.30262 0.0
C615 C 0.08411 0.8946 0.31408 0.0
C616 C 0.0726 0.87664 0.30554 0.0
C617 C 0.08094 0.86319 0.28556 0.0
C618 C 0.10074 0.86774 0.274 0.0
C619 C 0.22184 0.83919 0.29084 0.0
C620 C 0.23189 0.8258 0.27141 0.0
C621 C 0.2023 0.85516 0.28714 0.0
C622 C 0.19269 0.85876 0.26375 0.0
C623 C 0.20254 0.84527 0.24423 0.0
C624 C 0.22186 0.8287 0.24808 0.0
C625 C 0.17272 0.87708 0.26014 0.0
C626 C 0.15195 0.87315 0.27019 0.0
C627 C 0.1744 0.89907 0.24871 0.0
C628 C 0.19583 0.90491 0.23824 0.0
C629 C 0.19656 0.91257 0.21377 0.0
C630 C 0.21627 0.91964 0.20423 0.0
C631 C 0.23542 0.91903 0.21897 0.0
C632 C 0.23488 0.91138 0.24329 0.0
C633 C 0.21514 0.90452 0.25298 0.0
H634 H 0.25068 0.92442 0.21152 0.0
H635 H 0.05726 0.8731 0.31444 0.0
H636 H 0.06017 0.94119 0.77043 0.0
H637 H 0.08997 0.90773 0.77543 0.0
H638 H 0.13879 0.95027 0.74773 0.0
H639 H 0.1088 0.98309 0.74147 0.0
H640 H 0.14604 0.91188 0.72605 0.0
H641 H 0.13854 0.92821 0.81214 0.0
H642 H 0.11801 0.93636 0.85089 0.0
H643 H 0.09051 0.87119 0.84518 0.0
H644 H 0.11069 0.86285 0.80625 0.0
H645 H 0.24117 0.82449 0.7514 0.0
H646 H 0.21423 0.86075 0.75393 0.0
H647 H 0.16043 0.81934 0.76723 0.0
H648 H 0.18721 0.78337 0.76569 0.0
H649 H 0.15724 0.85794 0.7977 0.0
H650 H 0.16733 0.84191 0.71149 0.0
H651 H 0.18946 0.83463 0.67367 0.0
H652 H 0.21351 0.90154 0.6805 0.0
H653 H 0.19173 0.90907 0.71856 0.0
C654 C 0.07739 0.94355 0.76617 0.0
C655 C 0.0822 0.96485 0.75589 0.0
C656 C 0.09452 0.92436 0.76898 0.0
C657 C 0.11694 0.92626 0.76214 0.0
C658 C 0.12178 0.94805 0.75304 0.0
C659 C 0.10463 0.96696 0.74973 0.0
C660 C 0.13503 0.90533 0.76276 0.0
C661 C 0.14869 0.90041 0.74199 0.0
C662 C 0.13849 0.88982 0.78317 0.0
C663 C 0.12618 0.89485 0.8064 0.0
C664 C 0.12803 0.91568 0.81913 0.0
C665 C 0.11648 0.92033 0.84112 0.0
C666 C 0.10298 0.90429 0.85051 0.0
C667 C 0.101 0.88358 0.83792 0.0
C668 C 0.11256 0.87884 0.81594 0.0
C669 C 0.22365 0.82317 0.7552 0.0
C670 C 0.21639 0.801 0.75837 0.0
C671 C 0.20821 0.84391 0.75653 0.0
C672 C 0.18517 0.8429 0.7609 0.0
C673 C 0.17806 0.82074 0.7643 0.0
C674 C 0.19343 0.80011 0.76311 0.0
C675 C 0.16823 0.86468 0.76116 0.0
C676 C 0.15471 0.86963 0.78197 0.0
C677 C 0.16511 0.88041 0.74092 0.0
C678 C 0.1781 0.87594 0.718 0.0
C679 C 0.17748 0.85499 0.70503 0.0
C680 C 0.18993 0.85083 0.68353 0.0
C681 C 0.20294 0.86758 0.67473 0.0
C682 C 0.20346 0.88856 0.68737 0.0
C683 C 0.19106 0.89279 0.70889 0.0
H684 H 0.21257 0.86433 0.65808 0.0
H685 H 0.09405 0.90792 0.86754 0.0
H686 H 0.10061 0.0478 0.74291 0.0
H687 H 0.13077 0.07197 0.74886 0.0
H688 H 0.09728 0.12452 0.69941 0.0
H689 H 0.06714 0.10024 0.69323 0.0
H690 H 0.14111 0.11846 0.69083 0.0
H691 H 0.09509 0.13093 0.7627 0.0
H692 H 0.07518 0.11915 0.79934 0.0
H693 H 0.13782 0.08658 0.8301 0.0
H694 H 0.15806 0.09789 0.79347 0.0
H695 H 0.19488 0.21611 0.72458 0.0
H696 H 0.16791 0.18845 0.71748 0.0
H697 H 0.20674 0.13728 0.76445 0.0
H698 H 0.23381 0.16512 0.77175 0.0
H699 H 0.16186 0.14096 0.77442 0.0
H700 H 0.20803 0.13043 0.70299 0.0
H701 H 0.22762 0.14292 0.66644 0.0
H702 H 0.16432 0.17262 0.63496 0.0
H703 H 0.14437 0.1606 0.67148 0.0
C704 C 0.09958 0.06456 0.73341 0.0
C705 C 0.08133 0.07217 0.71775 0.0
C706 C 0.11686 0.07838 0.73682 0.0
C707 C 0.11616 0.1003 0.72491 0.0
C708 C 0.09822 0.10771 0.70884 0.0
C709 C 0.081 0.09379 0.70528 0.0
C710 C 0.13405 0.11554 0.72929 0.0
C711 C 0.14545 0.1236 0.7091 0.0
C712 C 0.14019 0.1218 0.75316 0.0
C713 C 0.12805 0.11505 0.77523 0.0
C714 C 0.10459 0.1211 0.77719 0.0
C715 C 0.09325 0.11453 0.79797 0.0
C716 C 0.10522 0.10207 0.817 0.0
C717 C 0.12856 0.0962 0.81533 0.0
C718 C 0.13998 0.1027 0.79457 0.0
C719 C 0.19774 0.19893 0.73331 0.0
C720 C 0.21647 0.19272 0.74865 0.0
C721 C 0.18235 0.18309 0.72916 0.0
C722 C 0.18541 0.16066 0.7402 0.0
C723 C 0.20408 0.15445 0.75567 0.0
C724 C 0.21955 0.17032 0.75977 0.0
C725 C 0.16876 0.14401 0.73596 0.0
C726 C 0.1576 0.13571 0.75617 0.0
C727 C 0.16278 0.13761 0.71211 0.0
C728 C 0.17472 0.14479 0.69008 0.0
C729 C 0.1983 0.13979 0.68836 0.0
C730 C 0.20947 0.14675 0.66763 0.0
C731 C 0.19723 0.1586 0.64841 0.0
C732 C 0.17378 0.16346 0.64986 0.0
C733 C 0.16253 0.15655 0.67056 0.0
H734 H 0.2059 0.16398 0.63238 0.0
H735 H 0.09641 0.097 0.83308 0.0
H736 H 0.98615 0.07959 0.77904 0.0
H737 H 0.95637 0.11278 0.78636 0.0
H738 H 0.90965 0.07777 0.74473 0.0
H739 H 0.93932 0.04539 0.73682 0.0
H740 H 0.90788 0.11943 0.72802 0.0
H741 H 0.90649 0.08707 0.80931 0.0
H742 H 0.92181 0.07308 0.84953 0.0
H743 H 0.94038 0.14139 0.864 0.0
H744 H 0.92556 0.15568 0.82364 0.0
H745 H 0.8022 0.18323 0.75362 0.0
H746 H 0.83482 0.15301 0.75768 0.0
H747 H 0.87664 0.20603 0.77554 0.0
H748 H 0.84387 0.23671 0.77083 0.0
H749 H 0.8833 0.15909 0.80548 0.0
H750 H 0.88273 0.1907 0.72307 0.0
H751 H 0.86469 0.20352 0.68373 0.0
H752 H 0.8473 0.13414 0.67267 0.0
H753 H 0.86494 0.121 0.71216 0.0
C754 C 0.96933 0.07877 0.77209 0.0
C755 C 0.96507 0.05985 0.75738 0.0
C756 C 0.95228 0.0978 0.7762 0.0
C757 C 0.93059 0.09805 0.76598 0.0
C758 C 0.92617 0.07836 0.75261 0.0
C759 C 0.94315 0.05968 0.74823 0.0
C760 C 0.91292 0.11928 0.76712 0.0
C761 C 0.90251 0.12785 0.7451 0.0
C762 C 0.90604 0.13099 0.78917 0.0
C763 C 0.91522 0.12234 0.81329 0.0
C764 C 0.9141 0.09903 0.82093 0.0
C765 C 0.92266 0.09106 0.84377 0.0
C766 C 0.93213 0.10631 0.85927 0.0
C767 C 0.93308 0.12958 0.85195 0.0
C768 C 0.92463 0.13761 0.82909 0.0
C769 C 0.81827 0.18856 0.75859 0.0
C770 C 0.8204 0.21248 0.76181 0.0
C771 C 0.83692 0.17118 0.761 0.0
C772 C 0.85823 0.17717 0.7669 0.0
C773 C 0.86034 0.20095 0.77112 0.0
C774 C 0.84161 0.21849 0.76842 0.0
C775 C 0.87829 0.15861 0.76653 0.0
C776 C 0.88902 0.15065 0.78853 0.0
C777 C 0.88538 0.14715 0.74454 0.0
C778 C 0.87499 0.15494 0.72066 0.0
C779 C 0.8749 0.17823 0.71234 0.0
C780 C 0.86478 0.18555 0.69 0.0
C781 C 0.85481 0.16967 0.67573 0.0
C782 C 0.85501 0.14642 0.68375 0.0
C783 C 0.86509 0.13903 0.7061 0.0
H784 H 0.84698 0.17537 0.65844 0.0
H785 H 0.93868 0.10012 0.87699 0.0
H786 H 0.98804 0.92152 0.69649 0.0
H787 H 0.96006 0.89451 0.7019 0.0
H788 H 0.91724 0.94807 0.74101 0.0
H789 H 0.94561 0.9748 0.73628 0.0
H790 H 0.91638 0.90887 0.76354 0.0
H791 H 0.90755 0.93212 0.67924 0.0
H792 H 0.91957 0.93828 0.63679 0.0
H793 H 0.9415 0.86422 0.6301 0.0
H794 H 0.92986 0.85766 0.67264 0.0
H795 H 0.81192 0.86354 0.74901 0.0
H796 H 0.84293 0.88704 0.74433 0.0
H797 H 0.88812 0.82443 0.72711 0.0
H798 H 0.85714 0.80064 0.73233 0.0
H799 H 0.88886 0.86584 0.69377 0.0
H800 H 0.89486 0.84366 0.7789 0.0
H801 H 0.88013 0.83915 0.82053 0.0
H802 H 0.8605 0.91382 0.82442 0.0
H803 H 0.87482 0.91874 0.78262 0.0
C804 C 0.97258 0.92757 0.70605 0.0
C805 C 0.96899 0.95033 0.71586 0.0
C806 C 0.95653 0.91213 0.70912 0.0
C807 C 0.93626 0.91927 0.72156 0.0
C808 C 0.9327 0.94203 0.73138 0.0
C809 C 0.94891 0.95734 0.72865 0.0
C810 C 0.91891 0.90301 0.72466 0.0
C811 C 0.91025 0.89971 0.74817 0.0
C812 C 0.91106 0.89056 0.70479 0.0
C813 C 0.91806 0.89444 0.67921 0.0
C814 C 0.91509 0.91717 0.66878 0.0
C815 C 0.92181 0.92073 0.64469 0.0
C816 C 0.93136 0.90166 0.63078 0.0
C817 C 0.93414 0.87898 0.64091 0.0
C818 C 0.92747 0.87533 0.665 0.0
C819 C 0.82847 0.85476 0.74427 0.0
C820 C 0.83213 0.83028 0.74099 0.0
C821 C 0.84616 0.8682 0.74164 0.0
C822 C 0.8678 0.85748 0.73537 0.0
C823 C 0.87151 0.83303 0.73189 0.0
C824 C 0.85385 0.81948 0.73494 0.0
C825 C 0.88642 0.87199 0.73247 0.0
C826 C 0.89521 0.87495 0.70905 0.0
C827 C 0.89413 0.88441 0.7523 0.0
C828 C 0.88573 0.88154 0.77754 0.0
C829 C 0.88724 0.8591 0.78855 0.0
C830 C 0.87899 0.85647 0.81219 0.0
C831 C 0.86934 0.87618 0.82509 0.0
C832 C 0.86797 0.89857 0.81439 0.0
C833 C 0.87617 0.90129 0.79074 0.0
H834 H 0.86295 0.87411 0.84339 0.0
H835 H 0.93654 0.90445 0.61214 0.0
H836 H 0.29401 0.08997 0.0844 0.0
H837 H 0.3094 0.11195 0.11686 0.0
H838 H 0.25798 0.09398 0.16614 0.0
H839 H 0.2425 0.07182 0.13365 0.0
H840 H 0.26035 0.13967 0.16645 0.0
H841 H 0.31371 0.06997 0.17316 0.0
H842 H 0.34162 0.03776 0.15828 0.0
H843 H 0.38444 0.08786 0.1344 0.0
H844 H 0.35664 0.12041 0.14881 0.0
H845 H 0.30063 0.1901 0.26828 0.0
H846 H 0.30562 0.15379 0.24472 0.0
H847 H 0.32357 0.19244 0.1813 0.0
H848 H 0.31934 0.22876 0.20505 0.0
H849 H 0.34061 0.13254 0.19223 0.0
H850 H 0.2722 0.19435 0.16312 0.0
H851 H 0.24758 0.22922 0.17724 0.0
H852 H 0.23708 0.19409 0.2453 0.0
H853 H 0.2615 0.15871 0.2311 0.0
C854 C 0.28618 0.09033 0.10224 0.0
C855 C 0.26701 0.07912 0.10643 0.0
C856 C 0.29507 0.10286 0.12083 0.0
C857 C 0.28507 0.10429 0.14404 0.0
C858 C 0.26603 0.09298 0.14837 0.0
C859 C 0.25709 0.08049 0.12975 0.0
C860 C 0.29323 0.11935 0.16305 0.0
C861 C 0.27781 0.13761 0.17238 0.0
C862 C 0.31615 0.1172 0.17047 0.0
C863 C 0.333 0.09765 0.16192 0.0
C864 C 0.329 0.07414 0.16458 0.0
C865 C 0.34482 0.05581 0.15625 0.0
C866 C 0.36477 0.06076 0.14537 0.0
C867 C 0.36897 0.08405 0.14283 0.0
C868 C 0.3532 0.10245 0.15111 0.0
C869 C 0.30676 0.19061 0.24967 0.0
C870 C 0.30933 0.21217 0.23831 0.0
C871 C 0.30985 0.16982 0.23631 0.0
C872 C 0.3149 0.1705 0.21131 0.0
C873 C 0.31999 0.19155 0.20069 0.0
C874 C 0.31739 0.21231 0.21422 0.0
C875 C 0.30764 0.1523 0.19535 0.0
C876 C 0.32313 0.13388 0.18654 0.0
C877 C 0.28482 0.15399 0.18835 0.0
C878 C 0.26846 0.17404 0.19608 0.0
C879 C 0.26443 0.19406 0.18099 0.0
C880 C 0.25071 0.21401 0.18913 0.0
C881 C 0.241 0.21414 0.21238 0.0
C882 C 0.24472 0.19409 0.22737 0.0
C883 C 0.25835 0.17402 0.21922 0.0
H884 H 0.23021 0.22955 0.21854 0.0
H885 H 0.37699 0.04655 0.13893 0.0
H886 H 0.9533 0.3004 0.07247 0.0
H887 H 0.92034 0.29429 0.09679 0.0
H888 H 0.93588 0.3467 0.14784 0.0
H889 H 0.9692 0.35261 0.12374 0.0
H890 H 0.92589 0.30546 0.17048 0.0
H891 H 0.89399 0.36024 0.108 0.0
H892 H 0.88694 0.3741 0.06547 0.0
H893 H 0.85575 0.31271 0.04978 0.0
H894 H 0.86289 0.29831 0.09214 0.0
H895 H 0.82401 0.31842 0.23614 0.0
H896 H 0.85423 0.32801 0.20941 0.0
H897 H 0.83935 0.27532 0.15837 0.0
H898 H 0.80907 0.26555 0.18495 0.0
H899 H 0.84863 0.31691 0.13546 0.0
H900 H 0.88046 0.26089 0.19499 0.0
H901 H 0.88726 0.24451 0.23662 0.0
H902 H 0.91914 0.30436 0.25659 0.0
H903 H 0.91209 0.32136 0.21518 0.0
C904 C 0.94978 0.31054 0.08894 0.0
C905 C 0.96387 0.32695 0.09624 0.0
C906 C 0.93084 0.30717 0.1027 0.0
C907 C 0.92561 0.32017 0.12401 0.0
C908 C 0.93963 0.33655 0.1314 0.0
C909 C 0.95853 0.34003 0.11754 0.0
C910 C 0.90565 0.31638 0.13873 0.0
C911 C 0.90896 0.30834 0.16297 0.0
C912 C 0.88368 0.31934 0.12859 0.0
C913 C 0.87915 0.32811 0.10319 0.0
C914 C 0.88577 0.34962 0.09544 0.0
C915 C 0.88173 0.35758 0.07137 0.0
C916 C 0.87095 0.34427 0.05492 0.0
C917 C 0.86411 0.32299 0.06253 0.0
C918 C 0.86813 0.31494 0.08658 0.0
C919 C 0.82692 0.30908 0.21908 0.0
C920 C 0.81422 0.29111 0.21276 0.0
C921 C 0.84424 0.31454 0.20388 0.0
C922 C 0.8491 0.30221 0.18208 0.0
C923 C 0.83582 0.28502 0.17514 0.0
C924 C 0.81859 0.27942 0.19042 0.0
C925 C 0.86887 0.30632 0.16726 0.0
C926 C 0.86555 0.31422 0.14301 0.0
C927 C 0.89088 0.30286 0.17723 0.0
C928 C 0.89552 0.29253 0.20205 0.0
C929 C 0.88875 0.27066 0.20831 0.0
C930 C 0.89267 0.26125 0.23186 0.0
C931 C 0.90358 0.27341 0.24925 0.0
C932 C 0.91066 0.29498 0.2431 0.0
C933 C 0.9067 0.30452 0.21959 0.0
H934 H 0.9066 0.26609 0.26748 0.0
H935 H 0.86785 0.35046 0.03629 0.0
H936 H 0.78294 0.92932 0.07028 0.0
H937 H 0.77882 0.90581 0.10692 0.0
H938 H 0.83406 0.93447 0.14096 0.0
H939 H 0.83822 0.95833 0.10405 0.0
H940 H 0.8368 0.8876 0.14883 0.0
H941 H 0.78188 0.95326 0.16025 0.0
H942 H 0.75087 0.9843 0.14915 0.0
H943 H 0.70742 0.93197 0.13591 0.0
H944 H 0.73824 0.90057 0.14656 0.0
H945 H 0.76611 0.82955 0.24816 0.0
H946 H 0.77706 0.86562 0.22943 0.0
H947 H 0.79777 0.82692 0.16424 0.0
H948 H 0.78678 0.79124 0.18258 0.0
H949 H 0.76076 0.88795 0.18496 0.0
H950 H 0.84819 0.84418 0.14642 0.0
H951 H 0.88053 0.81627 0.16083 0.0
H952 H 0.86073 0.82954 0.23533 0.0
H953 H 0.8286 0.85798 0.22153 0.0
C954 C 0.79411 0.93079 0.08559 0.0
C955 C 0.81071 0.9459 0.08438 0.0
C956 C 0.79173 0.91737 0.10655 0.0
C957 C 0.80578 0.91884 0.12687 0.0
C958 C 0.82291 0.93328 0.12553 0.0
C959 C 0.82534 0.94677 0.10442 0.0
C960 C 0.80255 0.9047 0.14908 0.0
C961 C 0.8203 0.88788 0.15704 0.0
C962 C 0.78119 0.90573 0.16039 0.0
C963 C 0.76244 0.92453 0.15417 0.0
C964 C 0.76575 0.94835 0.15485 0.0
C965 C 0.7482 0.96602 0.14864 0.0
C966 C 0.72719 0.96011 0.14182 0.0
C967 C 0.72369 0.93652 0.14123 0.0
C968 C 0.74119 0.91878 0.1474 0.0
C969 C 0.77301 0.8289 0.22984 0.0
C970 C 0.77558 0.80778 0.21673 0.0
C971 C 0.77923 0.84939 0.21922 0.0
C972 C 0.78844 0.84875 0.19561 0.0
C973 C 0.79095 0.82763 0.1826 0.0
C974 C 0.78447 0.80735 0.19299 0.0
C975 C 0.79466 0.87009 0.18356 0.0
C976 C 0.77746 0.88819 0.17739 0.0
C977 C 0.81668 0.87067 0.17451 0.0
C978 C 0.83587 0.85324 0.18286 0.0
C979 C 0.85077 0.84129 0.16589 0.0
C980 C 0.86908 0.82536 0.17397 0.0
C981 C 0.87267 0.8212 0.199 0.0
C982 C 0.85784 0.83274 0.21598 0.0
C983 C 0.83957 0.84876 0.20803 0.0
H984 H 0.88699 0.8091 0.20526 0.0
H985 H 0.71363 0.97382 0.13702 0.0
H986 H 0.06948 0.73559 0.06236 0.0
H987 H 0.09723 0.74299 0.09293 0.0
H988 H 0.11992 0.66858 0.09887 0.0
H989 H 0.09185 0.66094 0.06806 0.0
H990 H 0.11557 0.69395 0.14524 0.0
H991 H 0.1497 0.69719 0.06612 0.0
H992 H 0.15074 0.71005 0.02302 0.0
H993 H 0.14701 0.78197 0.04547 0.0
H994 H 0.14547 0.76958 0.08875 0.0
H995 H 0.22046 0.70532 0.20304 0.0
H996 H 0.19142 0.69457 0.17528 0.0
H997 H 0.1705 0.76798 0.15882 0.0
H998 H 0.19953 0.7788 0.18655 0.0
H999 H 0.17446 0.74142 0.11745 0.0
H1000 H 0.13923 0.73913 0.19582 0.0
H1001 H 0.13593 0.7274 0.23905 0.0
H1002 H 0.14045 0.65491 0.21831 0.0
H1003 H 0.14411 0.66619 0.17495 0.0
C1004 C 0.07995 0.72069 0.07051 0.0
C1005 C 0.07838 0.6976 0.06285 0.0
C1006 C 0.09595 0.725 0.08786 0.0
C1007 C 0.1107 0.70635 0.098 0.0
C1008 C 0.10866 0.68319 0.09121 0.0
C1009 C 0.09274 0.67886 0.07359 0.0
C1010 C 0.12898 0.7114 0.11463 0.0
C1011 C 0.12869 0.70397 0.13913 0.0
C1012 C 0.14572 0.72497 0.10667 0.0
C1013 C 0.14726 0.73247 0.08069 0.0
C1014 C 0.14895 0.71577 0.06187 0.0
C1015 C 0.14964 0.72297 0.0374 0.0
C1016 C 0.1489 0.74682 0.03149 0.0
C1017 C 0.14756 0.7635 0.05007 0.0
C1018 C 0.14679 0.7564 0.07459 0.0
C1019 C 0.2096 0.71915 0.19355 0.0
C1020 C 0.21217 0.74288 0.19696 0.0
C1021 C 0.193 0.713 0.17775 0.0
C1022 C 0.1787 0.73048 0.16508 0.0
C1023 C 0.18135 0.75421 0.16839 0.0
C1024 C 0.19786 0.76037 0.1843 0.0
C1025 C 0.16108 0.72403 0.14822 0.0
C1026 C 0.16146 0.73124 0.12361 0.0
C1027 C 0.14438 0.71034 0.15612 0.0
C1028 C 0.14221 0.70348 0.18217 0.0
C1029 C 0.13973 0.72067 0.2005 0.0
C1030 C 0.13775 0.7141 0.22502 0.0
C1031 C 0.13805 0.69042 0.23143 0.0
C1032 C 0.14027 0.67325 0.21332 0.0
C1033 C 0.14229 0.67972 0.18876 0.0
H1034 H 0.1365 0.68537 0.25043 0.0
H1035 H 0.14941 0.75235 0.01252 0.0
H1036 H 0.2419 0.94861 0.98999 0.0
H1037 H 0.24839 0.91904 0.95802 0.0
H1038 H 0.21517 0.96857 0.90544 0.0
H1039 H 0.20887 0.99846 0.93743 0.0
H1040 H 0.20814 0.91734 0.90044 0.0
H1041 H 0.26639 0.96842 0.90678 0.0
H1042 H 0.29322 0.98852 0.93029 0.0
H1043 H 0.32688 0.92179 0.95556 0.0
H1044 H 0.29997 0.90131 0.93254 0.0
H1045 H 0.25869 0.85981 0.79708 0.0
H1046 H 0.24792 0.89194 0.82564 0.0
H1047 H 0.2869 0.85284 0.88264 0.0
H1048 H 0.2977 0.82064 0.85415 0.0
H1049 H 0.29021 0.90072 0.88361 0.0
H1050 H 0.23335 0.84945 0.88211 0.0
H1051 H 0.20717 0.82633 0.86138 0.0
H1052 H 0.17186 0.88962 0.82989 0.0
H1053 H 0.19788 0.91314 0.85035 0.0
C1054 C 0.23556 0.95303 0.97173 0.0
C1055 C 0.22526 0.97591 0.96605 0.0
C1056 C 0.23919 0.93613 0.95355 0.0
C1057 C 0.23255 0.94182 0.92939 0.0
C1058 C 0.2204 0.96393 0.92404 0.0
C1059 C 0.21678 0.98094 0.94231 0.0
C1060 C 0.24108 0.92584 0.90953 0.0
C1061 C 0.226 0.91401 0.8964 0.0
C1062 C 0.26448 0.9211 0.90482 0.0
C1063 C 0.28107 0.93335 0.91809 0.0
C1064 C 0.27943 0.95805 0.91747 0.0
C1065 C 0.29465 0.96951 0.9307 0.0
C1066 C 0.31172 0.95644 0.94445 0.0
C1067 C 0.31364 0.93189 0.94492 0.0
C1068 C 0.29842 0.92034 0.93176 0.0
C1069 C 0.26538 0.85833 0.81554 0.0
C1070 C 0.27893 0.83777 0.82352 0.0
C1071 C 0.25912 0.8766 0.83184 0.0
C1072 C 0.26639 0.87456 0.85628 0.0
C1073 C 0.28111 0.85469 0.86384 0.0
C1074 C 0.28725 0.83634 0.84759 0.0
C1075 C 0.25729 0.89224 0.87442 0.0
C1076 C 0.2723 0.90431 0.88733 0.0
C1077 C 0.2339 0.89689 0.87919 0.0
C1078 C 0.21766 0.88302 0.86758 0.0
C1079 C 0.22001 0.85843 0.87071 0.0
C1080 C 0.2052 0.84526 0.85904 0.0
C1081 C 0.18788 0.8565 0.8443 0.0
C1082 C 0.18524 0.88095 0.84134 0.0
C1083 C 0.19999 0.89423 0.85301 0.0
H1084 H 0.17656 0.84622 0.83519 0.0
H1085 H 0.32347 0.96535 0.9547 0.0
H1086 H 0.10053 0.36351 0.97246 0.0
H1087 H 0.12779 0.3571 0.93917 0.0
H1088 H 0.11033 0.28724 0.9292 0.0
H1089 H 0.08392 0.29305 0.96297 0.0
H1090 H 0.15439 0.28597 0.93011 0.0
H1091 H 0.09302 0.33248 0.88871 0.0
H1092 H 0.06394 0.36665 0.88203 0.0
H1093 H 0.11514 0.41224 0.87731 0.0
H1094 H 0.14453 0.37836 0.88429 0.0
H1095 H 0.20389 0.25722 0.81651 0.0
H1096 H 0.17533 0.26901 0.84721 0.0
H1097 H 0.20382 0.33313 0.85927 0.0
H1098 H 0.23268 0.32151 0.82835 0.0
H1099 H 0.15568 0.33891 0.85786 0.0
H1100 H 0.21723 0.2903 0.89715 0.0
H1101 H 0.24529 0.25487 0.90115 0.0
H1102 H 0.19226 0.21179 0.9084 0.0
H1103 H 0.16383 0.24692 0.90386 0.0
C1104 C 0.10249 0.34678 0.96321 0.0
C1105 C 0.08996 0.32884 0.97053 0.0
C1106 C 0.11795 0.34322 0.94402 0.0
C1107 C 0.12102 0.32172 0.9316 0.0
C1108 C 0.10825 0.30397 0.93853 0.0
C1109 C 0.0929 0.30746 0.95775 0.0
C1110 C 0.13811 0.31728 0.91198 0.0
C1111 C 0.15449 0.29742 0.9142 0.0
C1112 C 0.13858 0.33252 0.89148 0.0
C1113 C 0.12096 0.35292 0.8873 0.0
C1114 C 0.09807 0.34982 0.88646 0.0
C1115 C 0.08153 0.36913 0.88257 0.0
C1116 C 0.08768 0.39161 0.87932 0.0
C1117 C 0.1104 0.39482 0.87988 0.0
C1118 C 0.127 0.37557 0.88378 0.0
C1119 C 0.20406 0.27395 0.82545 0.0
C1120 C 0.22074 0.28833 0.8201 0.0
C1121 C 0.1877 0.28063 0.84304 0.0
C1122 C 0.18768 0.30177 0.85567 0.0
C1123 C 0.20365 0.3167 0.84971 0.0
C1124 C 0.22014 0.30998 0.83212 0.0
C1125 C 0.17164 0.30753 0.87595 0.0
C1126 C 0.15556 0.3276 0.87388 0.0
C1127 C 0.17129 0.29237 0.8965 0.0
C1128 C 0.18837 0.27126 0.89994 0.0
C1129 C 0.21153 0.27326 0.89943 0.0
C1130 C 0.22751 0.25323 0.90178 0.0
C1131 C 0.22055 0.2311 0.90495 0.0
C1132 C 0.19761 0.22896 0.90589 0.0
C1133 C 0.18155 0.24893 0.90343 0.0
H1134 H 0.23295 0.21563 0.90671 0.0
H1135 H 0.07486 0.40654 0.87631 0.0
H1136 H 0.80384 0.04228 0.90797 0.0
H1137 H 0.79337 0.07587 0.88052 0.0
H1138 H 0.78211 0.12158 0.94282 0.0
H1139 H 0.79196 0.08779 0.9703 0.0
H1140 H 0.74912 0.13151 0.91287 0.0
H1141 H 0.82909 0.12045 0.90405 0.0
H1142 H 0.86703 0.09966 0.89579 0.0
H1143 H 0.84704 0.08556 0.82254 0.0
H1144 H 0.80884 0.10593 0.83046 0.0
H1145 H 0.76579 0.23958 0.85055 0.0
H1146 H 0.76611 0.20463 0.87675 0.0
H1147 H 0.7519 0.16398 0.81405 0.0
H1148 H 0.75084 0.19917 0.78784 0.0
H1149 H 0.79527 0.15051 0.84197 0.0
H1150 H 0.71506 0.16619 0.85229 0.0
H1151 H 0.67925 0.19069 0.86211 0.0
H1152 H 0.70291 0.20034 0.93503 0.0
H1153 H 0.73902 0.17618 0.92553 0.0
C1154 C 0.7995 0.05956 0.91576 0.0
C1155 C 0.79879 0.06249 0.94124 0.0
C1156 C 0.79349 0.07876 0.90007 0.0
C1157 C 0.78712 0.10134 0.90956 0.0
C1158 C 0.78685 0.10434 0.93504 0.0
C1159 C 0.79255 0.08508 0.95072 0.0
C1160 C 0.78001 0.12171 0.89302 0.0
C1161 C 0.75936 0.13575 0.89752 0.0
C1162 C 0.79313 0.12707 0.87267 0.0
C1163 C 0.81598 0.11442 0.86798 0.0
C1164 C 0.83269 0.11267 0.88627 0.0
C1165 C 0.85426 0.10102 0.88163 0.0
C1166 C 0.8594 0.09119 0.8587 0.0
C1167 C 0.843 0.0931 0.84032 0.0
C1168 C 0.82139 0.10469 0.84488 0.0
C1169 C 0.76179 0.22341 0.84259 0.0
C1170 C 0.75811 0.22198 0.81732 0.0
C1171 C 0.76203 0.2035 0.85752 0.0
C1172 C 0.75907 0.18183 0.84725 0.0
C1173 C 0.75406 0.18066 0.82224 0.0
C1174 C 0.75328 0.20074 0.80738 0.0
C1175 C 0.76456 0.1601 0.86196 0.0
C1176 C 0.78498 0.14594 0.85717 0.0
C1177 C 0.75155 0.15501 0.88234 0.0
C1178 C 0.72984 0.16953 0.88811 0.0
C1179 C 0.71272 0.17372 0.87035 0.0
C1180 C 0.69234 0.1875 0.87587 0.0
C1181 C 0.68883 0.19711 0.89916 0.0
C1182 C 0.70567 0.19291 0.91699 0.0
C1183 C 0.72608 0.17914 0.91155 0.0
H1184 H 0.67304 0.20777 0.90341 0.0
H1185 H 0.87607 0.08212 0.85517 0.0
H1186 H 0.94413 0.74304 0.94435 0.0
H1187 H 0.91206 0.75189 0.91661 0.0
H1188 H 0.93763 0.69262 0.87218 0.0
H1189 H 0.97012 0.68396 0.89957 0.0
H1190 H 0.92049 0.73162 0.84403 0.0
H1191 H 0.89732 0.68694 0.91297 0.0
H1192 H 0.89214 0.679 0.9569 0.0
H1193 H 0.84981 0.74519 0.96373 0.0
H1194 H 0.855 0.75366 0.91989 0.0
H1195 H 0.79569 0.71131 0.82026 0.0
H1196 H 0.83079 0.70547 0.84376 0.0
H1197 H 0.84818 0.7712 0.81532 0.0
H1198 H 0.81329 0.77666 0.7912 0.0
H1199 H 0.84451 0.72967 0.87943 0.0
H1200 H 0.90418 0.77032 0.81499 0.0
H1201 H 0.90838 0.77793 0.77081 0.0
H1202 H 0.87724 0.71671 0.75414 0.0
H1203 H 0.87297 0.70869 0.79822 0.0
C1204 C 0.94318 0.73207 0.9285 0.0
C1205 C 0.95971 0.71268 0.9243 0.0
C1206 C 0.92473 0.73709 0.91271 0.0
C1207 C 0.92235 0.72281 0.89243 0.0
C1208 C 0.93912 0.70387 0.88773 0.0
C1209 C 0.95757 0.69879 0.90356 0.0
C1210 C 0.90176 0.72681 0.87692 0.0
C1211 C 0.90387 0.73122 0.85175 0.0
C1212 C 0.88006 0.72623 0.88694 0.0
C1213 C 0.87672 0.72102 0.91322 0.0
C1214 C 0.88703 0.69986 0.92389 0.0
C1215 C 0.88408 0.69526 0.94876 0.0
C1216 C 0.8707 0.71161 0.96311 0.0
C1217 C 0.86019 0.73256 0.9526 0.0
C1218 C 0.86311 0.73726 0.92774 0.0
C1219 C 0.80716 0.72435 0.81881 0.0
C1220 C 0.80197 0.74429 0.80373 0.0
C1221 C 0.82716 0.72107 0.83233 0.0
C1222 C 0.84229 0.73777 0.83122 0.0
C1223 C 0.83706 0.7578 0.81613 0.0
C1224 C 0.81714 0.76092 0.80234 0.0
C1225 C 0.86314 0.73435 0.84642 0.0
C1226 C 0.86109 0.73014 0.87163 0.0
C1227 C 0.88485 0.73495 0.83637 0.0
C1228 C 0.88817 0.739 0.80987 0.0
C1229 C 0.89839 0.7584 0.80189 0.0
C1230 C 0.90072 0.76282 0.77687 0.0
C1231 C 0.89305 0.74784 0.75968 0.0
C1232 C 0.88313 0.72833 0.76747 0.0
C1233 C 0.88073 0.72386 0.79246 0.0
H1234 H 0.89481 0.75133 0.74033 0.0
H1235 H 0.86845 0.70802 0.98237 0.0
H1236 H 0.06899 0.28699 0.1069 0.0
H1237 H 0.09716 0.28454 0.13974 0.0
H1238 H 0.14924 0.25983 0.08828 0.0
H1239 H 0.12126 0.26232 0.05538 0.0
H1240 H 0.15456 0.23578 0.13269 0.0
H1241 H 0.1411 0.31654 0.10404 0.0
H1242 H 0.11734 0.35409 0.09467 0.0
H1243 H 0.09693 0.36005 0.16988 0.0
H1244 H 0.12033 0.32232 0.17961 0.0
H1245 H 0.25474 0.27456 0.18036 0.0
H1246 H 0.22128 0.26967 0.15621 0.0
H1247 H 0.1802 0.2797 0.22084 0.0
H1248 H 0.21388 0.28431 0.24535 0.0
H1249 H 0.16632 0.30952 0.17459 0.0
H1250 H 0.17556 0.22913 0.20357 0.0
H1251 H 0.19367 0.1889 0.21332 0.0
H1252 H 0.21966 0.1818 0.14022 0.0
H1253 H 0.20126 0.22185 0.12989 0.0
C1254 C 0.08637 0.28064 0.10262 0.0
C1255 C 0.09282 0.27489 0.07841 0.0
C1256 C 0.10251 0.27941 0.12142 0.0
C1257 C 0.12543 0.27228 0.11648 0.0
C1258 C 0.13172 0.26544 0.09259 0.0
C1259 C 0.11565 0.26689 0.07376 0.0
C1260 C 0.14304 0.2728 0.13583 0.0
C1261 C 0.1572 0.25197 0.1417 0.0
C1262 C 0.14613 0.29371 0.14828 0.0
C1263 C 0.13225 0.31649 0.14249 0.0
C1264 C 0.13141 0.32577 0.11854 0.0
C1265 C 0.11803 0.34709 0.11316 0.0
C1266 C 0.10558 0.35942 0.13165 0.0
C1267 C 0.10655 0.35047 0.15557 0.0
C1268 C 0.11987 0.32912 0.16102 0.0
C1269 C 0.23863 0.27559 0.18953 0.0
C1270 C 0.23706 0.27954 0.21485 0.0
C1271 C 0.21951 0.27266 0.17569 0.0
C1272 C 0.19825 0.27396 0.18673 0.0
C1273 C 0.19647 0.2783 0.21198 0.0
C1274 C 0.21573 0.28094 0.22595 0.0
C1275 C 0.17796 0.27254 0.17121 0.0
C1276 C 0.16346 0.29329 0.16584 0.0
C1277 C 0.17437 0.25152 0.15939 0.0
C1278 C 0.18729 0.22852 0.16606 0.0
C1279 C 0.18532 0.21906 0.18966 0.0
C1280 C 0.19535 0.19617 0.19518 0.0
C1281 C 0.20771 0.18275 0.17736 0.0
C1282 C 0.21001 0.19218 0.15396 0.0
C1283 C 0.19972 0.21493 0.14824 0.0
H1284 H 0.21568 0.16515 0.18171 0.0
H1285 H 0.09523 0.37592 0.12746 0.0
H1286 H 0.05641 0.74819 0.93285 0.0
H1287 H 0.08755 0.74845 0.90395 0.0
H1288 H 0.13321 0.75468 0.96388 0.0
H1289 H 0.1023 0.75401 0.99287 0.0
H1290 H 0.11613 0.77796 0.89171 0.0
H1291 H 0.18443 0.72487 0.95146 0.0
H1292 H 0.18711 0.69608 0.98557 0.0
H1293 H 0.12613 0.67162 0.96148 0.0
H1294 H 0.12323 0.70007 0.92708 0.0
H1295 H 0.22384 0.78375 0.84072 0.0
H1296 H 0.19339 0.78329 0.8702 0.0
H1297 H 0.18746 0.71156 0.85146 0.0
H1298 H 0.21806 0.71185 0.82162 0.0
H1299 H 0.18422 0.71908 0.90198 0.0
H1300 H 0.15017 0.75425 0.8283 0.0
H1301 H 0.14414 0.78232 0.79365 0.0
H1302 H 0.13429 0.83994 0.84375 0.0
H1303 H 0.14044 0.81231 0.8786 0.0
C1304 C 0.073 0.74994 0.9399 0.0
C1305 C 0.07676 0.75097 0.96527 0.0
C1306 C 0.09086 0.75004 0.92331 0.0
C1307 C 0.11292 0.75109 0.93166 0.0
C1308 C 0.1165 0.7533 0.95691 0.0
C1309 C 0.0987 0.75313 0.9735 0.0
C1310 C 0.13217 0.74939 0.91401 0.0
C1311 C 0.13102 0.76511 0.89406 0.0
C1312 C 0.15158 0.73242 0.9167 0.0
C1313 C 0.15356 0.7147 0.9368 0.0
C1314 C 0.17169 0.71322 0.95335 0.0
C1315 C 0.17323 0.69699 0.97275 0.0
C1316 C 0.15679 0.68204 0.97569 0.0
C1317 C 0.13883 0.68323 0.95919 0.0
C1318 C 0.13723 0.69941 0.93975 0.0
C1319 C 0.2163 0.76771 0.84294 0.0
C1320 C 0.22353 0.7478 0.82865 0.0
C1321 C 0.19874 0.76755 0.8598 0.0
C1322 C 0.18791 0.74747 0.86298 0.0
C1323 C 0.19551 0.72728 0.84937 0.0
C1324 C 0.21301 0.72749 0.83226 0.0
C1325 C 0.16826 0.74793 0.87994 0.0
C1326 C 0.16936 0.73198 0.89973 0.0
C1327 C 0.14868 0.76456 0.87703 0.0
C1328 C 0.14585 0.78123 0.85604 0.0
C1329 C 0.14693 0.77294 0.83189 0.0
C1330 C 0.1434 0.78877 0.81221 0.0
C1331 C 0.13865 0.81289 0.81649 0.0
C1332 C 0.13774 0.82126 0.84042 0.0
C1333 C 0.14127 0.80554 0.86014 0.0
H1334 H 0.13552 0.82506 0.80127 0.0
H1335 H 0.15797 0.66955 0.99078 0.0
H1336 H 0.26559 0.11567 0.9984 0.0
H1337 H 0.26956 0.14111 0.96314 0.0
H1338 H 0.29361 0.08045 0.91988 0.0
H1339 H 0.29024 0.05475 0.95568 0.0
H1340 H 0.31534 0.11735 0.9076 0.0
H1341 H 0.2387 0.10522 0.91553 0.0
H1342 H 0.20245 0.10321 0.93624 0.0
H1343 H 0.19703 0.17686 0.95246 0.0
H1344 H 0.23348 0.17918 0.93233 0.0
H1345 H 0.29212 0.19385 0.80101 0.0
H1346 H 0.29081 0.16038 0.8294 0.0
H1347 H 0.27311 0.20873 0.88835 0.0
H1348 H 0.27441 0.2419 0.86034 0.0
H1349 H 0.24675 0.17269 0.88715 0.0
H1350 H 0.32603 0.18268 0.88255 0.0
H1351 H 0.36188 0.18413 0.86083 0.0
H1352 H 0.36121 0.11333 0.83631 0.0
H1353 H 0.32516 0.11158 0.85764 0.0
C1354 C 0.27209 0.10773 0.98151 0.0
C1355 C 0.27744 0.0832 0.97975 0.0
C1356 C 0.2742 0.1223 0.96128 0.0
C1357 C 0.28123 0.11268 0.93861 0.0
C1358 C 0.28793 0.08827 0.93712 0.0
C1359 C 0.28609 0.07361 0.95758 0.0
C1360 C 0.28052 0.12826 0.91654 0.0
C1361 C 0.30022 0.12912 0.90284 0.0
C1362 C 0.2608 0.14369 0.91022 0.0
C1363 C 0.23888 0.14235 0.92248 0.0
C1364 C 0.22986 0.12095 0.92367 0.0
C1365 C 0.20927 0.11975 0.93531 0.0
C1366 C 0.19745 0.13989 0.94568 0.0
C1367 C 0.2062 0.16127 0.94443 0.0
C1368 C 0.22681 0.16254 0.93288 0.0
C1369 C 0.28783 0.19723 0.82 0.0
C1370 C 0.28351 0.22043 0.82854 0.0
C1371 C 0.28718 0.17815 0.8362 0.0
C1372 C 0.28199 0.18207 0.86104 0.0
C1373 C 0.27712 0.20527 0.86929 0.0
C1374 C 0.27797 0.22421 0.85327 0.0
C1375 C 0.28173 0.16233 0.87883 0.0
C1376 C 0.26176 0.16064 0.89169 0.0
C1377 C 0.3011 0.14606 0.88414 0.0
C1378 C 0.32278 0.14711 0.87142 0.0
C1379 C 0.33343 0.1675 0.87234 0.0
C1380 C 0.3538 0.16836 0.86014 0.0
C1381 C 0.36378 0.14886 0.84713 0.0
C1382 C 0.35344 0.12844 0.84636 0.0
C1383 C 0.33304 0.1275 0.8585 0.0
H1384 H 0.37956 0.14956 0.8377 0.0
H1385 H 0.1815 0.13893 0.95467 0.0
H1386 H 1.01144 0.26927 0.96657 0.0
H1387 H 0.98545 0.25987 0.93411 0.0
H1388 H 0.92995 0.29944 0.97197 0.0
H1389 H 0.95573 0.30924 0.0038 0.0
H1390 H 0.91966 0.25599 0.9524 0.0
H1391 H 0.95344 0.32541 0.92788 0.0
H1392 H 0.98575 0.34634 0.9181 0.0
H1393 H 1.0061 0.29678 0.86138 0.0
H1394 H 0.97405 0.27535 0.8711 0.0
H1395 H 0.8313 0.28875 0.86943 0.0
H1396 H 0.86167 0.28731 0.89949 0.0
H1397 H 0.91007 0.26243 0.84409 0.0
H1398 H 0.8796 0.26469 0.81366 0.0
H1399 H 0.92752 0.29235 0.87063 0.0
H1400 H 0.89266 0.22521 0.89047 0.0
H1401 H 0.86173 0.20216 0.89974 0.0
H1402 H 0.84538 0.24313 0.96414 0.0
H1403 H 0.87601 0.26667 0.95508 0.0
C1404 C 0.99362 0.27547 0.96816 0.0
C1405 C 0.98558 0.28992 0.98774 0.0
C1406 C 0.97881 0.27025 0.94955 0.0
C1407 C 0.95571 0.27906 0.95052 0.0
C1408 C 0.94762 0.29241 0.97078 0.0
C1409 C 0.9624 0.29801 0.98897 0.0
C1410 C 0.93995 0.27585 0.92996 0.0
C1411 C 0.92132 0.26398 0.93453 0.0
C1412 C 0.94243 0.28562 0.90637 0.0
C1413 C 0.96153 0.29862 0.90041 0.0
C1414 C 0.96492 0.31887 0.91347 0.0
C1415 C 0.98316 0.33084 0.90791 0.0
C1416 C 0.99802 0.32285 0.88918 0.0
C1417 C 0.99461 0.30292 0.87592 0.0
C1418 C 0.97641 0.29086 0.88144 0.0
C1419 C 0.84842 0.28298 0.86363 0.0
C1420 C 0.85302 0.27678 0.83917 0.0
C1421 C 0.86582 0.28198 0.88092 0.0
C1422 C 0.8883 0.27427 0.87436 0.0
C1423 C 0.89296 0.26834 0.84978 0.0
C1424 C 0.87551 0.26961 0.83237 0.0
C1425 C 0.90678 0.27287 0.89313 0.0
C1426 C 0.92592 0.28395 0.8883 0.0
C1427 C 0.90497 0.26198 0.91637 0.0
C1428 C 0.88655 0.24783 0.92198 0.0
C1429 C 0.88237 0.22942 0.90652 0.0
C1430 C 0.86491 0.21625 0.91175 0.0
C1431 C 0.85157 0.22121 0.93249 0.0
C1432 C 0.85571 0.23932 0.94807 0.0
C1433 C 0.87315 0.25256 0.94292 0.0
H1434 H 0.83805 0.21099 0.9365 0.0
H1435 H 1.01213 0.33214 0.88491 0.0
H1436 H 0.73176 0.97287 0.96142 0.0
H1437 H 0.71586 0.9481 0.93129 0.0
H1438 H 0.76949 0.89183 0.94674 0.0
H1439 H 0.78512 0.9161 0.97677 0.0
H1440 H 0.7351 0.93194 0.89023 0.0
H1441 H 0.7546 0.83935 0.93749 0.0
H1442 H 0.75243 0.82202 0.97875 0.0
H1443 H 0.70231 0.87911 0.9991 0.0
H1444 H 0.7039 0.89663 0.95786 0.0
H1445 H 0.77213 0.84243 0.81011 0.0
H1446 H 0.76516 0.87012 0.84339 0.0
H1447 H 0.7037 0.84221 0.8611 0.0
H1448 H 0.71072 0.81391 0.82769 0.0
H1449 H 0.72779 0.84733 0.90157 0.0
H1450 H 0.70072 0.89676 0.83552 0.0
H1451 H 0.70053 0.91463 0.79429 0.0
H1452 H 0.76016 0.94514 0.81183 0.0
H1453 H 0.76092 0.92718 0.85305 0.0
C1454 C 0.73982 0.95503 0.95874 0.0
C1455 C 0.75976 0.94649 0.97139 0.0
C1456 C 0.73078 0.94093 0.94147 0.0
C1457 C 0.74135 0.918 0.93687 0.0
C1458 C 0.76073 0.90925 0.95023 0.0
C1459 C 0.76978 0.92327 0.96731 0.0
C1460 C 0.73387 0.90387 0.91648 0.0
C1461 C 0.73317 0.91353 0.89275 0.0
C1462 C 0.7307 0.88 0.91977 0.0
C1463 C 0.72944 0.86936 0.94455 0.0
C1464 C 0.74298 0.84813 0.95069 0.0
C1465 C 0.74189 0.83829 0.9741 0.0
C1466 C 0.72726 0.84947 0.99154 0.0
C1467 C 0.71367 0.8705 0.98559 0.0
C1468 C 0.71469 0.88041 0.96221 0.0
C1469 C 0.75702 0.84214 0.82089 0.0
C1470 C 0.74198 0.82586 0.81613 0.0
C1471 C 0.75298 0.85818 0.83988 0.0
C1472 C 0.73372 0.85854 0.85453 0.0
C1473 C 0.7186 0.84236 0.84991 0.0
C1474 C 0.72262 0.82623 0.83078 0.0
C1475 C 0.73038 0.87511 0.87536 0.0
C1476 C 0.72911 0.86589 0.89912 0.0
C1477 C 0.73132 0.89949 0.87213 0.0
C1478 C 0.73089 0.91054 0.8474 0.0
C1479 C 0.71386 0.90717 0.83055 0.0
C1480 C 0.71365 0.91733 0.80718 0.0
C1481 C 0.73033 0.931 0.80044 0.0
C1482 C 0.74724 0.93456 0.81708 0.0
C1483 C 0.74754 0.92444 0.84048 0.0
H1484 H 0.73014 0.93883 0.78233 0.0
H1485 H 0.72645 0.84183 0.00966 0.0
H1486 H 0.98237 0.76179 0.06048 0.0
H1487 H 0.95444 0.76979 0.09348 0.0
H1488 H 0.9152 0.71953 0.06252 0.0
H1489 H 0.94277 0.71154 0.02993 0.0
H1490 H 0.88808 0.75841 0.07879 0.0
H1491 H 0.95139 0.70399 0.10925 0.0
H1492 H 0.99153 0.69203 0.11902 0.0
H1493 H 0.99079 0.75102 0.16691 0.0
H1494 H 0.9507 0.7635 0.15714 0.0
H1495 H 0.82048 0.72791 0.17806 0.0
H1496 H 0.84757 0.72671 0.14429 0.0
H1497 H 0.88627 0.77173 0.18444 0.0
H1498 H 0.85928 0.77326 0.21803 0.0
H1499 H 0.91391 0.73919 0.16377 0.0
H1500 H 0.85151 0.79331 0.1361 0.0
H1501 H 0.81185 0.80765 0.12627 0.0
H1502 H 0.81092 0.75261 0.07377 0.0
H1503 H 0.85061 0.73787 0.08337 0.0
C1504 C 0.96756 0.75283 0.06052 0.0
C1505 C 0.96487 0.73594 0.04266 0.0
C1506 C 0.95168 0.75727 0.07946 0.0
C1507 C 0.93277 0.74505 0.08069 0.0
C1508 C 0.92958 0.72916 0.06209 0.0
C1509 C 0.94546 0.72455 0.04347 0.0
C1510 C 0.91684 0.74755 0.10185 0.0
C1511 C 0.89372 0.75406 0.09735 0.0
C1512 C 0.92413 0.74245 0.12622 0.0
C1513 C 0.94814 0.73482 0.13226 0.0
C1514 C 0.95984 0.7145 0.12173 0.0
C1515 C 0.98257 0.70761 0.12728 0.0
C1516 C 0.99372 0.7208 0.14352 0.0
C1517 C 0.98214 0.74085 0.1543 0.0
C1518 C 0.95942 0.74783 0.14877 0.0
C1519 C 0.83479 0.73752 0.17973 0.0
C1520 C 0.83756 0.75079 0.20075 0.0
C1521 C 0.85021 0.73697 0.16031 0.0
C1522 C 0.86881 0.74959 0.16153 0.0
C1523 C 0.87194 0.76217 0.18285 0.0
C1524 C 0.85643 0.763 0.20207 0.0
C1525 C 0.88504 0.74976 0.14071 0.0
C1526 C 0.90822 0.74373 0.14527 0.0
C1527 C 0.87783 0.75561 0.11644 0.0
C1528 C 0.85396 0.76435 0.11063 0.0
C1529 C 0.8428 0.78416 0.12259 0.0
C1530 C 0.82033 0.79238 0.11704 0.0
C1531 C 0.80883 0.78098 0.0995 0.0
C1532 C 0.81984 0.7614 0.08739 0.0
C1533 C 0.84234 0.75313 0.09284 0.0
H1534 H 0.79143 0.78737 0.09524 0.0
H1535 H 1.01132 0.71544 0.14779 0.0
H1536 H 0.30763 0.98313 0.0857 0.0
H1537 H 0.3181 0.95037 0.11462 0.0
H1538 H 0.2739 0.9092 0.07665 0.0
H1539 H 0.26275 0.94222 0.04873 0.0
H1540 H 0.26423 0.90917 0.12192 0.0
H1541 H 0.33419 0.89646 0.07758 0.0
H1542 H 0.36922 0.90749 0.05991 0.0
H1543 H 0.39167 0.92446 0.1314 0.0
H1544 H 0.35662 0.9138 0.14947 0.0
H1545 H 0.28576 0.79983 0.17665 0.0
H1546 H 0.2905 0.8299 0.14599 0.0
H1547 H 0.32175 0.86948 0.19987 0.0
H1548 H 0.31731 0.83907 0.23086 0.0
H1549 H 0.33966 0.8722 0.14994 0.0
H1550 H 0.26954 0.88012 0.19369 0.0
H1551 H 0.23587 0.86481 0.20958 0.0
H1552 H 0.21322 0.85533 0.13626 0.0
H1553 H 0.24738 0.86948 0.11987 0.0
C1554 C 0.30078 0.96677 0.08316 0.0
C1555 C 0.28452 0.96503 0.06498 0.0
C1556 C 0.3067 0.94805 0.09972 0.0
C1557 C 0.29675 0.92721 0.09795 0.0
C1558 C 0.28167 0.92509 0.07863 0.0
C1559 C 0.27545 0.94387 0.06252 0.0
C1560 C 0.30007 0.90849 0.11729 0.0
C1561 C 0.28078 0.90095 0.12772 0.0
C1562 C 0.32161 0.89819 0.12566 0.0
C1563 C 0.34268 0.90459 0.11484 0.0
C1564 C 0.34652 0.90273 0.08951 0.0
C1565 C 0.36639 0.90888 0.07943 0.0
C1566 C 0.38263 0.91674 0.09451 0.0
C1567 C 0.37906 0.9184 0.11973 0.0
C1568 C 0.3592 0.9123 0.1299 0.0
C1569 C 0.29405 0.81467 0.18195 0.0
C1570 C 0.30077 0.81729 0.20632 0.0
C1571 C 0.29687 0.83179 0.16433 0.0
C1572 C 0.30614 0.85209 0.17075 0.0
C1573 C 0.31455 0.85393 0.19456 0.0
C1574 C 0.3119 0.8366 0.21226 0.0
C1575 C 0.30387 0.87254 0.15361 0.0
C1576 C 0.32321 0.88054 0.14397 0.0
C1577 C 0.28234 0.88316 0.14567 0.0
C1578 C 0.26123 0.87566 0.15553 0.0
C1579 C 0.25755 0.87452 0.18092 0.0
C1580 C 0.2384 0.86593 0.19003 0.0
C1581 C 0.22241 0.85909 0.17395 0.0
C1582 C 0.22562 0.86066 0.14871 0.0
C1583 C 0.24494 0.86886 0.13949 0.0
H1584 H 0.20751 0.85261 0.18104 0.0
H1585 H 0.398 0.92148 0.08668 0.0
H1586 H 0.75537 0.03754 0.07617 0.0
H1587 H 0.75115 0.06864 0.10654 0.0
H1588 H 0.72508 0.11901 0.05097 0.0
H1589 H 0.72931 0.08779 0.02026 0.0
H1590 H 0.76003 0.13324 0.0771 0.0
H1591 H 0.69068 0.1044 0.09545 0.0
H1592 H 0.66603 0.07435 0.10487 0.0
H1593 H 0.70354 0.05522 0.1707 0.0
H1594 H 0.72862 0.08495 0.16152 0.0
H1595 H 0.7404 0.22542 0.1638 0.0
H1596 H 0.73469 0.19681 0.13221 0.0
H1597 H 0.75905 0.14003 0.1818 0.0
H1598 H 0.76466 0.16862 0.21352 0.0
H1599 H 0.72147 0.13108 0.15723 0.0
H1600 H 0.7927 0.15595 0.13757 0.0
H1601 H 0.81891 0.18457 0.12859 0.0
H1602 H 0.77945 0.20962 0.06569 0.0
H1603 H 0.7528 0.18131 0.07449 0.0
C1604 C 0.74834 0.05515 0.07044 0.0
C1605 C 0.74273 0.06022 0.04578 0.0
C1606 C 0.74586 0.0729 0.08787 0.0
C1607 C 0.73773 0.09614 0.08106 0.0
C1608 C 0.73135 0.10117 0.05661 0.0
C1609 C 0.73364 0.0833 0.03913 0.0
C1610 C 0.73774 0.11529 0.09915 0.0
C1611 C 0.75117 0.13308 0.09439 0.0
C1612 C 0.72677 0.11463 0.12202 0.0
C1613 C 0.71164 0.09681 0.1277 0.0
C1614 C 0.69378 0.09367 0.11185 0.0
C1615 C 0.67971 0.07672 0.11716 0.0
C1616 C 0.68324 0.06285 0.13834 0.0
C1617 C 0.70082 0.06596 0.15429 0.0
C1618 C 0.71495 0.08289 0.14906 0.0
C1619 C 0.74453 0.20683 0.16794 0.0
C1620 C 0.75304 0.1992 0.19104 0.0
C1621 C 0.74129 0.19051 0.14988 0.0
C1622 C 0.74658 0.16628 0.15459 0.0
C1623 C 0.75482 0.15864 0.17779 0.0
C1624 C 0.75812 0.17497 0.19584 0.0
C1625 C 0.74386 0.1489 0.1352 0.0
C1626 C 0.73003 0.13142 0.13977 0.0
C1627 C 0.75462 0.14969 0.11222 0.0
C1628 C 0.77061 0.16671 0.10686 0.0
C1629 C 0.7895 0.1677 0.12195 0.0
C1630 C 0.80446 0.18384 0.11687 0.0
C1631 C 0.80081 0.19897 0.09663 0.0
C1632 C 0.78223 0.19793 0.08139 0.0
C1633 C 0.7672 0.18183 0.0864 0.0
H1634 H 0.81242 0.21145 0.09273 0.0
H1635 H 0.67233 0.04973 0.14242 0.0
H1636 H 0.56509 0.59812 0.85314 0.0
H1637 H 0.5878 0.62964 0.84523 0.0
H1638 H 0.60677 0.59981 0.77496 0.0
H1639 H 0.58526 0.5676 0.78324 0.0
H1640 H 0.64176 0.61303 0.79495 0.0
H1641 H 0.56592 0.64952 0.78242 0.0
H1642 H 0.52607 0.66102 0.79341 0.0
H1643 H 0.54607 0.70084 0.85383 0.0
H1644 H 0.58607 0.68926 0.84346 0.0
H1645 H 0.68449 0.71109 0.7424 0.0
H1646 H 0.65819 0.68269 0.7505 0.0
H1647 H 0.65148 0.70595 0.82522 0.0
H1648 H 0.67794 0.73431 0.81726 0.0
H1649 H 0.60995 0.69699 0.8033 0.0
H1650 H 0.68635 0.65913 0.81471 0.0
H1651 H 0.72576 0.64752 0.80212 0.0
H1652 H 0.70339 0.61036 0.74089 0.0
H1653 H 0.66382 0.62205 0.75292 0.0
C1654 C 0.57423 0.59803 0.8361 0.0
C1655 C 0.57303 0.5802 0.8188 0.0
C1656 C 0.58705 0.61632 0.83146 0.0
C1657 C 0.59872 0.61744 0.80927 0.0
C1658 C 0.59784 0.5995 0.79216 0.0
C1659 C 0.58525 0.58112 0.79687 0.0
C1660 C 0.61213 0.63702 0.80389 0.0
C1661 C 0.63463 0.63136 0.79648 0.0
C1662 C 0.60307 0.66104 0.80624 0.0
C1663 C 0.57901 0.66833 0.8123 0.0
C1664 C 0.56183 0.66061 0.79815 0.0
C1665 C 0.53921 0.66715 0.80426 0.0
C1666 C 0.53355 0.6816 0.82434 0.0
C1667 C 0.55049 0.68961 0.8383 0.0
C1668 C 0.57314 0.68308 0.83231 0.0
C1669 C 0.67714 0.71041 0.76045 0.0
C1670 C 0.68335 0.7248 0.77925 0.0
C1671 C 0.66216 0.69414 0.76507 0.0
C1672 C 0.65305 0.69203 0.78854 0.0
C1673 C 0.65831 0.70727 0.807 0.0
C1674 C 0.67346 0.72342 0.80244 0.0
C1675 C 0.63936 0.67286 0.79423 0.0
C1676 C 0.61692 0.67862 0.80174 0.0
C1677 C 0.64833 0.6489 0.79168 0.0
C1678 C 0.67213 0.64166 0.78458 0.0
C1679 C 0.68983 0.64863 0.79846 0.0
C1680 C 0.7122 0.64202 0.79144 0.0
C1681 C 0.71707 0.62826 0.77068 0.0
C1682 C 0.69959 0.62104 0.75694 0.0
C1683 C 0.67719 0.62764 0.76386 0.0
H1684 H 0.7344 0.62316 0.76528 0.0
H1685 H 0.51604 0.68663 0.82905 0.0
H1686 H 0.48789 0.58198 0.76605 0.0
H1687 H 0.45729 0.61498 0.76076 0.0
H1688 H 0.41068 0.57339 0.79452 0.0
H1689 H 0.44112 0.54082 0.80019 0.0
H1690 H 0.39252 0.60064 0.75324 0.0
H1691 H 0.43441 0.61039 0.8285 0.0
H1692 H 0.46952 0.61451 0.85072 0.0
H1693 H 0.47772 0.67586 0.80769 0.0
H1694 H 0.44279 0.67193 0.78501 0.0
H1695 H 0.30171 0.68987 0.78481 0.0
H1696 H 0.33116 0.65558 0.78304 0.0
H1697 H 0.38161 0.70215 0.77447 0.0
H1698 H 0.35267 0.73588 0.77639 0.0
H1699 H 0.39895 0.67191 0.80184 0.0
H1700 H 0.36285 0.66527 0.72574 0.0
H1701 H 0.33544 0.66016 0.69341 0.0
H1702 H 0.32116 0.59608 0.72774 0.0
H1703 H 0.34857 0.6009 0.76045 0.0
C1704 C 0.47095 0.57969 0.77158 0.0
C1705 C 0.4668 0.55875 0.78325 0.0
C1706 C 0.45353 0.59863 0.76884 0.0
C1707 C 0.43167 0.59678 0.77749 0.0
C1708 C 0.42733 0.57531 0.78772 0.0
C1709 C 0.44473 0.55665 0.79084 0.0
C1710 C 0.41354 0.61742 0.77742 0.0
C1711 C 0.39374 0.61617 0.76408 0.0
C1712 C 0.41547 0.63806 0.79079 0.0
C1713 C 0.4361 0.64074 0.80493 0.0
C1714 C 0.44376 0.62469 0.8237 0.0
C1715 C 0.46362 0.627 0.83639 0.0
C1716 C 0.47588 0.6454 0.83058 0.0
C1717 C 0.46823 0.6616 0.81216 0.0
C1718 C 0.44839 0.65936 0.79941 0.0
C1719 C 0.3191 0.69268 0.7824 0.0
C1720 C 0.32478 0.71567 0.78085 0.0
C1721 C 0.336 0.67304 0.78121 0.0
C1722 C 0.35891 0.67599 0.77822 0.0
C1723 C 0.3643 0.69905 0.77666 0.0
C1724 C 0.34759 0.71848 0.77782 0.0
C1725 C 0.37747 0.65545 0.77743 0.0
C1726 C 0.39744 0.65656 0.79087 0.0
C1727 C 0.37602 0.63504 0.76335 0.0
C1728 C 0.35757 0.63358 0.74565 0.0
C1729 C 0.35352 0.65036 0.72669 0.0
C1730 C 0.33808 0.64741 0.7082 0.0
C1731 C 0.32663 0.62771 0.70845 0.0
C1732 C 0.33012 0.61127 0.72755 0.0
C1733 C 0.3456 0.6141 0.74607 0.0
H1734 H 0.31526 0.62495 0.69373 0.0
H1735 H 0.49128 0.64713 0.84038 0.0
H1736 H 0.44759 0.47544 0.79568 0.0
H1737 H 0.41802 0.45053 0.78909 0.0
H1738 H 0.45252 0.39775 0.83755 0.0
H1739 H 0.4823 0.42246 0.84396 0.0
H1740 H 0.43853 0.37902 0.79442 0.0
H1741 H 0.40667 0.43252 0.8569 0.0
H1742 H 0.39449 0.47165 0.8743 0.0
H1743 H 0.34852 0.48833 0.81436 0.0
H1744 H 0.36065 0.44939 0.79643 0.0
H1745 H 0.35545 0.30618 0.81801 0.0
H1746 H 0.38296 0.33377 0.82204 0.0
H1747 H 0.3419 0.38391 0.77593 0.0
H1748 H 0.3141 0.35628 0.772 0.0
H1749 H 0.35849 0.4053 0.8149 0.0
H1750 H 0.38801 0.35287 0.75275 0.0
H1751 H 0.39967 0.31454 0.73344 0.0
H1752 H 0.44967 0.29693 0.78937 0.0
H1753 H 0.43805 0.33503 0.80927 0.0
C1754 C 0.44894 0.45849 0.80485 0.0
C1755 C 0.46733 0.45095 0.82036 0.0
C1756 C 0.43193 0.44434 0.8012 0.0
C1757 C 0.43298 0.42232 0.81293 0.0
C1758 C 0.45135 0.41469 0.82834 0.0
C1759 C 0.46827 0.42891 0.83214 0.0
C1760 C 0.41505 0.40711 0.80902 0.0
C1761 C 0.42108 0.38465 0.79918 0.0
C1762 C 0.39213 0.4148 0.81435 0.0
C1763 C 0.38474 0.43814 0.8252 0.0
C1764 C 0.39409 0.4446 0.84733 0.0
C1765 C 0.38718 0.46674 0.8573 0.0
C1766 C 0.37079 0.48249 0.8454 0.0
C1767 C 0.36123 0.47612 0.82354 0.0
C1768 C 0.36811 0.45402 0.81347 0.0
C1769 C 0.35222 0.32312 0.8088 0.0
C1770 C 0.33268 0.32908 0.79463 0.0
C1771 C 0.36801 0.33884 0.81103 0.0
C1772 C 0.36467 0.36081 0.79902 0.0
C1773 C 0.34487 0.36704 0.7853 0.0
C1774 C 0.32903 0.35125 0.78303 0.0
C1775 C 0.38204 0.37702 0.80073 0.0
C1776 C 0.37592 0.39968 0.81006 0.0
C1777 C 0.40484 0.36965 0.79461 0.0
C1778 C 0.41201 0.34674 0.78264 0.0
C1779 C 0.40137 0.34076 0.76106 0.0
C1780 C 0.40799 0.31908 0.74998 0.0
C1781 C 0.42537 0.30329 0.7602 0.0
C1782 C 0.43619 0.30917 0.78149 0.0
C1783 C 0.42961 0.33082 0.79267 0.0
H1784 H 0.43047 0.28651 0.75159 0.0
H1785 H 0.36546 0.49962 0.85315 0.0
H1786 H 0.60111 0.46505 0.82223 0.0
H1787 H 0.63323 0.43663 0.81212 0.0
H1788 H 0.60664 0.43006 0.73957 0.0
H1789 H 0.57358 0.45892 0.74982 0.0
H1790 H 0.6237 0.38617 0.76048 0.0
H1791 H 0.65133 0.45863 0.74601 0.0
H1792 H 0.65774 0.49943 0.75407 0.0
H1793 H 0.69474 0.47658 0.81927 0.0
H1794 H 0.68828 0.43568 0.81182 0.0
H1795 H 0.73197 0.3132 0.74445 0.0
H1796 H 0.69855 0.34259 0.73805 0.0
H1797 H 0.70926 0.37181 0.80889 0.0
H1798 H 0.7426 0.34287 0.81496 0.0
H1799 H 0.70025 0.40595 0.77774 0.0
H1800 H 0.66686 0.3341 0.79426 0.0
H1801 H 0.65993 0.29357 0.78548 0.0
H1802 H 0.63398 0.31569 0.7145 0.0
H1803 H 0.6411 0.3563 0.72271 0.0
C1804 C 0.6019 0.45777 0.804 0.0
C1805 C 0.58459 0.46448 0.78683 0.0
C1806 C 0.6205 0.44145 0.79821 0.0
C1807 C 0.62268 0.43127 0.77498 0.0
C1808 C 0.60545 0.43771 0.75762 0.0
C1809 C 0.58662 0.45432 0.76343 0.0
C1810 C 0.64307 0.4139 0.76964 0.0
C1811 C 0.6405 0.39061 0.76371 0.0
C1812 C 0.66508 0.4195 0.7739 0.0
C1813 C 0.66923 0.44406 0.77839 0.0
C1814 C 0.66073 0.46231 0.76215 0.0
C1815 C 0.66438 0.48546 0.7666 0.0
C1816 C 0.67662 0.4906 0.78718 0.0
C1817 C 0.68527 0.47257 0.80333 0.0
C1818 C 0.68165 0.44939 0.79898 0.0
C1819 C 0.72689 0.32565 0.75877 0.0
C1820 C 0.7397 0.32545 0.78039 0.0
C1821 C 0.70781 0.34255 0.75509 0.0
C1822 C 0.70103 0.35945 0.7731 0.0
C1823 C 0.71398 0.35913 0.79462 0.0
C1824 C 0.73306 0.34248 0.79815 0.0
C1825 C 0.68086 0.37788 0.76986 0.0
C1826 C 0.68353 0.4015 0.77409 0.0
C1827 C 0.65904 0.37254 0.76385 0.0
C1828 C 0.65475 0.34816 0.75899 0.0
C1829 C 0.65984 0.33028 0.77671 0.0
C1830 C 0.65586 0.3073 0.77184 0.0
C1831 C 0.64656 0.30206 0.74942 0.0
C1832 C 0.64123 0.31978 0.73182 0.0
C1833 C 0.64524 0.34276 0.73657 0.0
H1834 H 0.6435 0.28426 0.74567 0.0
H1835 H 0.67943 0.50853 0.7906 0.0
H1836 H 0.56132 0.45053 0.26999 0.0
H1837 H 0.58969 0.41609 0.27739 0.0
H1838 H 0.6424 0.45797 0.25997 0.0
H1839 H 0.61407 0.49186 0.25166 0.0
H1840 H 0.64834 0.42134 0.234 0.0
H1841 H 0.63331 0.43352 0.3192 0.0
H1842 H 0.61067 0.43872 0.35685 0.0
H1843 H 0.58967 0.37065 0.34746 0.0
H1844 H 0.61188 0.36518 0.30952 0.0
H1845 H 0.74097 0.3327 0.25722 0.0
H1846 H 0.71382 0.36833 0.26248 0.0
H1847 H 0.65983 0.32581 0.26809 0.0
H1848 H 0.68689 0.29019 0.26281 0.0
H1849 H 0.65533 0.36256 0.30162 0.0
H1850 H 0.66843 0.35204 0.21513 0.0
H1851 H 0.69192 0.34654 0.17807 0.0
H1852 H 0.71716 0.41195 0.19119 0.0
H1853 H 0.69405 0.41767 0.22854 0.0
C1854 C 0.57901 0.45253 0.26872 0.0
C1855 C 0.58553 0.47394 0.26057 0.0
C1856 C 0.59528 0.43279 0.27282 0.0
C1857 C 0.61838 0.43423 0.2692 0.0
C1858 C 0.6248 0.45617 0.26274 0.0
C1859 C 0.6086 0.47567 0.25826 0.0
C1860 C 0.63564 0.4127 0.26942 0.0
C1861 C 0.65001 0.40878 0.24909 0.0
C1862 C 0.63764 0.39571 0.28864 0.0
C1863 C 0.62404 0.39908 0.31131 0.0
C1864 C 0.62366 0.41977 0.32499 0.0
C1865 C 0.61094 0.42274 0.34643 0.0
C1866 C 0.59867 0.40507 0.35449 0.0
C1867 C 0.59913 0.38435 0.34116 0.0
C1868 C 0.61178 0.38131 0.31968 0.0
C1869 C 0.72334 0.33096 0.25977 0.0
C1870 C 0.71603 0.30867 0.25935 0.0
C1871 C 0.70782 0.35133 0.26273 0.0
C1872 C 0.68469 0.34982 0.26545 0.0
C1873 C 0.67753 0.32747 0.266 0.0
C1874 C 0.69301 0.30713 0.26283 0.0
C1875 C 0.66785 0.37151 0.26639 0.0
C1876 C 0.65357 0.37532 0.28675 0.0
C1877 C 0.6659 0.3885 0.24727 0.0
C1878 C 0.67969 0.38515 0.22475 0.0
C1879 C 0.67913 0.36515 0.21021 0.0
C1880 C 0.69235 0.36201 0.18914 0.0
C1881 C 0.70607 0.37885 0.18232 0.0
C1882 C 0.70655 0.3989 0.19652 0.0
C1883 C 0.69338 0.40211 0.21763 0.0
H1884 H 0.7163 0.37639 0.166 0.0
H1885 H 0.58886 0.40739 0.37111 0.0
H1886 H 0.57875 0.59489 0.24242 0.0
H1887 H 0.61004 0.61825 0.24641 0.0
H1888 H 0.6432 0.58223 0.18491 0.0
H1889 H 0.61169 0.55915 0.18054 0.0
H1890 H 0.67081 0.58871 0.23271 0.0
H1891 H 0.62195 0.62969 0.16989 0.0
H1892 H 0.58494 0.64795 0.15441 0.0
H1893 H 0.57887 0.69584 0.21464 0.0
H1894 H 0.61572 0.67761 0.23068 0.0
H1895 H 0.75463 0.66593 0.21733 0.0
H1896 H 0.72661 0.63888 0.21115 0.0
H1897 H 0.67613 0.68844 0.24588 0.0
H1898 H 0.7036 0.71574 0.25072 0.0
H1899 H 0.65783 0.67329 0.20945 0.0
H1900 H 0.70328 0.63514 0.27398 0.0
H1901 H 0.73828 0.61737 0.29441 0.0
H1902 H 0.74893 0.56512 0.23841 0.0
H1903 H 0.71414 0.58281 0.21743 0.0
C1904 C 0.59278 0.5919 0.22985 0.0
C1905 C 0.59277 0.57533 0.2111 0.0
C1906 C 0.6106 0.60522 0.23214 0.0
C1907 C 0.62891 0.60187 0.21599 0.0
C1908 C 0.62923 0.58498 0.19758 0.0
C1909 C 0.61118 0.57199 0.19498 0.0
C1910 C 0.64721 0.61682 0.21775 0.0
C1911 C 0.6682 0.60713 0.22731 0.0
C1912 C 0.64344 0.64096 0.21145 0.0
C1913 C 0.62147 0.65214 0.2016 0.0
C1914 C 0.61263 0.64399 0.17994 0.0
C1915 C 0.59171 0.65435 0.17104 0.0
C1916 C 0.57953 0.673 0.18357 0.0
C1917 C 0.58831 0.68138 0.20497 0.0
C1918 C 0.60922 0.67105 0.21396 0.0
C1919 C 0.73753 0.67093 0.22359 0.0
C1920 C 0.73123 0.69293 0.23437 0.0
C1921 C 0.72154 0.65543 0.22022 0.0
C1922 C 0.69917 0.66144 0.22823 0.0
C1923 C 0.69313 0.68335 0.23932 0.0
C1924 C 0.7089 0.69895 0.24217 0.0
C1925 C 0.68174 0.6454 0.22472 0.0
C1926 C 0.66076 0.65486 0.21478 0.0
C1927 C 0.68537 0.6212 0.23137 0.0
C1928 C 0.70624 0.61046 0.24398 0.0
C1929 C 0.71317 0.61997 0.26592 0.0
C1930 C 0.73296 0.6099 0.27762 0.0
C1931 C 0.74585 0.59017 0.26768 0.0
C1932 C 0.73895 0.58043 0.24606 0.0
C1933 C 0.71919 0.59047 0.23426 0.0
H1934 H 0.76117 0.58239 0.27676 0.0
H1935 H 0.56333 0.681 0.17666 0.0
H1936 H 0.4591 0.57565 0.20659 0.0
H1937 H 0.43054 0.60884 0.2144 0.0
H1938 H 0.45444 0.61229 0.2885 0.0
H1939 H 0.48358 0.57845 0.28076 0.0
H1940 H 0.40595 0.61985 0.28401 0.0
H1941 H 0.46888 0.65128 0.25 0.0
H1942 H 0.50009 0.65359 0.22108 0.0
H1943 H 0.45293 0.66551 0.16158 0.0
H1944 H 0.42145 0.66291 0.19008 0.0
H1945 H 0.33199 0.73006 0.28715 0.0
H1946 H 0.36593 0.70105 0.29161 0.0
H1947 H 0.36437 0.68731 0.2142 0.0
H1948 H 0.3311 0.71658 0.20964 0.0
H1949 H 0.40587 0.68808 0.22741 0.0
H1950 H 0.34383 0.65095 0.26074 0.0
H1951 H 0.31243 0.64842 0.2894 0.0
H1952 H 0.35791 0.64754 0.35029 0.0
H1953 H 0.38954 0.65037 0.32198 0.0
C1954 C 0.4584 0.58326 0.22468 0.0
C1955 C 0.47394 0.5744 0.24297 0.0
C1956 C 0.44195 0.60237 0.22909 0.0
C1957 C 0.44047 0.61343 0.2519 0.0
C1958 C 0.45529 0.60414 0.27069 0.0
C1959 C 0.47196 0.58481 0.26625 0.0
C1960 C 0.42387 0.63512 0.25516 0.0
C1961 C 0.40618 0.635 0.27202 0.0
C1962 C 0.42394 0.65489 0.23939 0.0
C1963 C 0.4428 0.65678 0.22218 0.0
C1964 C 0.46517 0.65425 0.23073 0.0
C1965 C 0.48291 0.65563 0.21441 0.0
C1966 C 0.4785 0.65967 0.18951 0.0
C1967 C 0.45633 0.66239 0.18088 0.0
C1968 C 0.43852 0.661 0.19711 0.0
C1969 C 0.33907 0.721 0.27107 0.0
C1970 C 0.32877 0.72557 0.24804 0.0
C1971 C 0.3584 0.70426 0.27366 0.0
C1972 C 0.36766 0.69154 0.25331 0.0
C1973 C 0.35768 0.69673 0.23024 0.0
C1974 C 0.33856 0.7135 0.22764 0.0
C1975 C 0.38741 0.67254 0.25563 0.0
C1976 C 0.40576 0.67316 0.23976 0.0
C1977 C 0.38789 0.65331 0.27232 0.0
C1978 C 0.36898 0.65112 0.28927 0.0
C1979 C 0.3471 0.65033 0.28025 0.0
C1980 C 0.32927 0.64884 0.29642 0.0
C1981 C 0.33316 0.6479 0.32165 0.0
C1982 C 0.35492 0.64832 0.33075 0.0
C1983 C 0.3728 0.64985 0.31465 0.0
H1984 H 0.31933 0.64679 0.33415 0.0
H1985 H 0.49226 0.66072 0.1769 0.0
H1986 H 0.45044 0.48627 0.22529 0.0
H1987 H 0.42146 0.46029 0.23059 0.0
H1988 H 0.46856 0.40133 0.20685 0.0
H1989 H 0.49722 0.4274 0.20082 0.0
H1990 H 0.43044 0.3978 0.18735 0.0
H1991 H 0.45349 0.41183 0.26907 0.0
H1992 H 0.46142 0.43529 0.30484 0.0
H1993 H 0.39214 0.46634 0.30685 0.0
H1994 H 0.38385 0.4433 0.27086 0.0
H1995 H 0.37144 0.30731 0.23842 0.0
H1996 H 0.39951 0.3343 0.2319 0.0
H1997 H 0.34694 0.39345 0.23394 0.0
H1998 H 0.31876 0.36654 0.23985 0.0
H1999 H 0.38711 0.39671 0.26456 0.0
H2000 H 0.36531 0.38065 0.18192 0.0
H2001 H 0.35883 0.35482 0.14757 0.0
H2002 H 0.42836 0.32455 0.14961 0.0
H2003 H 0.43518 0.34998 0.18424 0.0
C2004 C 0.45456 0.46775 0.22125 0.0
C2005 C 0.47609 0.45889 0.21264 0.0
C2006 C 0.43803 0.45287 0.22437 0.0
C2007 C 0.44286 0.42868 0.21952 0.0
C2008 C 0.46433 0.41988 0.2107 0.0
C2009 C 0.48072 0.43482 0.2072 0.0
C2010 C 0.42557 0.41253 0.22341 0.0
C2011 C 0.42122 0.39742 0.20439 0.0
C2012 C 0.41318 0.41211 0.24549 0.0
C2013 C 0.41811 0.42603 0.2671 0.0
C2014 C 0.43998 0.42381 0.27701 0.0
C2015 C 0.44453 0.437 0.29735 0.0
C2016 C 0.42731 0.45235 0.30807 0.0
C2017 C 0.40547 0.45448 0.2985 0.0
C2018 C 0.40084 0.44135 0.27815 0.0
C2019 C 0.36589 0.32606 0.23734 0.0
C2020 C 0.34295 0.33486 0.23949 0.0
C2021 C 0.3819 0.34143 0.23363 0.0
C2022 C 0.37526 0.36584 0.23241 0.0
C2023 C 0.35238 0.37467 0.23484 0.0
C2024 C 0.33633 0.35929 0.23809 0.0
C2025 C 0.39219 0.38218 0.22857 0.0
C2026 C 0.39642 0.39723 0.24759 0.0
C2027 C 0.40474 0.38227 0.2067 0.0
C2028 C 0.40069 0.36704 0.18584 0.0
C2029 C 0.37917 0.36833 0.1752 0.0
C2030 C 0.37544 0.3538 0.15565 0.0
C2031 C 0.39315 0.338 0.14646 0.0
C2032 C 0.41465 0.33676 0.15677 0.0
C2033 C 0.41845 0.35125 0.17635 0.0
H2034 H 0.39024 0.32677 0.13132 0.0
H2035 H 0.43086 0.46254 0.32382 0.0
H2036 H 0.79116 0.57281 0.5662 0.0
H2037 H 0.77933 0.60441 0.59527 0.0
H2038 H 0.84588 0.62524 0.59302 0.0
H2039 H 0.85781 0.59386 0.56438 0.0
H2040 H 0.83206 0.62213 0.639 0.0
H2041 H 0.80136 0.65696 0.5639 0.0
H2042 H 0.77841 0.66027 0.52624 0.0
H2043 H 0.71839 0.65919 0.56887 0.0
H2044 H 0.74104 0.65549 0.60679 0.0
H2045 H 0.81194 0.73172 0.69954 0.0
H2046 H 0.82121 0.70175 0.66828 0.0
H2047 H 0.7541 0.68268 0.67325 0.0
H2048 H 0.74459 0.71265 0.70419 0.0
H2049 H 0.76728 0.68456 0.62627 0.0
H2050 H 0.79802 0.64927 0.70121 0.0
H2051 H 0.82087 0.64712 0.73894 0.0
H2052 H 0.88069 0.64974 0.69636 0.0
H2053 H 0.85814 0.65223 0.65837 0.0
C2054 C 0.80321 0.58422 0.57182 0.0
C2055 C 0.82544 0.58074 0.56299 0.0
C2056 C 0.79641 0.60232 0.58837 0.0
C2057 C 0.81172 0.61727 0.59628 0.0
C2058 C 0.8338 0.61391 0.58727 0.0
C2059 C 0.84057 0.59593 0.57081 0.0
C2060 C 0.80517 0.63599 0.61452 0.0
C2061 C 0.81804 0.63592 0.63605 0.0
C2062 C 0.78656 0.65371 0.611 0.0
C2063 C 0.77295 0.6556 0.58818 0.0
C2064 C 0.7833 0.65713 0.56524 0.0
C2065 C 0.77034 0.65915 0.54384 0.0
C2066 C 0.74696 0.65985 0.54515 0.0
C2067 C 0.73651 0.65858 0.56787 0.0
C2068 C 0.7494 0.65652 0.58932 0.0
C2069 C 0.79913 0.7212 0.69397 0.0
C2070 C 0.77759 0.7245 0.7046 0.0
C2071 C 0.80448 0.70401 0.67614 0.0
C2072 C 0.78842 0.68976 0.66864 0.0
C2073 C 0.76677 0.6934 0.67879 0.0
C2074 C 0.76143 0.7105 0.69662 0.0
C2075 C 0.79426 0.67074 0.65057 0.0
C2076 C 0.78126 0.67072 0.62917 0.0
C2077 C 0.81274 0.65291 0.65417 0.0
C2078 C 0.82636 0.65116 0.67697 0.0
C2079 C 0.81603 0.64955 0.69991 0.0
C2080 C 0.82892 0.64825 0.72134 0.0
C2081 C 0.85221 0.64836 0.72006 0.0
C2082 C 0.86265 0.64969 0.69733 0.0
C2083 C 0.84982 0.65102 0.67584 0.0
H2084 H 0.86216 0.64736 0.73667 0.0
H2085 H 0.73695 0.66146 0.52857 0.0
H2086 H 0.44168 0.72914 0.55202 0.0
H2087 H 0.41006 0.73395 0.58062 0.0
H2088 H 0.44654 0.77612 0.62707 0.0
H2089 H 0.47841 0.77095 0.59877 0.0
H2090 H 0.42753 0.74461 0.65375 0.0
H2091 H 0.40265 0.801 0.59102 0.0
H2092 H 0.39331 0.81555 0.54915 0.0
H2093 H 0.34373 0.76828 0.54328 0.0
H2094 H 0.35303 0.75316 0.585 0.0
H2095 H 0.33492 0.7897 0.72962 0.0
H2096 H 0.36548 0.7876 0.69954 0.0
H2097 H 0.33277 0.73941 0.65648 0.0
H2098 H 0.30241 0.7411 0.68661 0.0
H2099 H 0.34947 0.77479 0.62799 0.0
H2100 H 0.37629 0.71599 0.68795 0.0
H2101 H 0.38664 0.69904 0.72864 0.0
H2102 H 0.43209 0.75003 0.73912 0.0
H2103 H 0.42213 0.76716 0.69828 0.0
C2104 C 0.44307 0.73931 0.56838 0.0
C2105 C 0.46269 0.74963 0.57303 0.0
C2106 C 0.42483 0.74227 0.58464 0.0
C2107 C 0.42571 0.75562 0.60597 0.0
C2108 C 0.44533 0.76581 0.61073 0.0
C2109 C 0.46353 0.76297 0.59442 0.0
C2110 C 0.40647 0.75848 0.62361 0.0
C2111 C 0.41055 0.75162 0.64813 0.0
C2112 C 0.3841 0.76697 0.6163 0.0
C2113 C 0.37869 0.77579 0.59107 0.0
C2114 C 0.38992 0.79353 0.58072 0.0
C2115 C 0.3846 0.80192 0.55703 0.0
C2116 C 0.36794 0.79285 0.54357 0.0
C2117 C 0.35663 0.7753 0.55374 0.0
C2118 C 0.36191 0.76681 0.57741 0.0
C2119 C 0.33406 0.7789 0.7136 0.0
C2120 C 0.31612 0.76566 0.71054 0.0
C2121 C 0.35165 0.77757 0.69649 0.0
C2122 C 0.35154 0.76323 0.67578 0.0
C2123 C 0.33327 0.7506 0.67227 0.0
C2124 C 0.3159 0.7516 0.68956 0.0
C2125 C 0.37065 0.76105 0.65804 0.0
C2126 C 0.36651 0.76797 0.63355 0.0
C2127 C 0.39297 0.75254 0.66529 0.0
C2128 C 0.39827 0.74302 0.69023 0.0
C2129 C 0.38828 0.72377 0.69906 0.0
C2130 C 0.39415 0.71406 0.72211 0.0
C2131 C 0.40991 0.72354 0.73656 0.0
C2132 C 0.41985 0.74274 0.72794 0.0
C2133 C 0.41416 0.7524 0.70481 0.0
H2134 H 0.41455 0.71594 0.75435 0.0
H2135 H 0.36372 0.79949 0.52531 0.0
H2136 H 0.21083 0.48234 0.62241 0.0
H2137 H 0.2185 0.44965 0.65168 0.0
H2138 H 0.23618 0.40189 0.59222 0.0
H2139 H 0.2279 0.43431 0.56289 0.0
H2140 H 0.21072 0.38295 0.62521 0.0
H2141 H 0.2766 0.42316 0.62704 0.0
H2142 H 0.29618 0.45804 0.63194 0.0
H2143 H 0.27194 0.46602 0.70567 0.0
H2144 H 0.25195 0.43134 0.7011 0.0
H2145 H 0.26804 0.28445 0.68514 0.0
H2146 H 0.26061 0.3198 0.65945 0.0
H2147 H 0.24555 0.36197 0.72375 0.0
H2148 H 0.25356 0.32659 0.74963 0.0
H2149 H 0.26794 0.38516 0.69062 0.0
H2150 H 0.2032 0.34444 0.68963 0.0
H2151 H 0.18259 0.31031 0.68475 0.0
H2152 H 0.20346 0.30414 0.6097 0.0
H2153 H 0.22446 0.33804 0.61423 0.0
C2154 C 0.21602 0.46484 0.61554 0.0
C2155 C 0.21884 0.46097 0.59028 0.0
C2156 C 0.22063 0.44619 0.63232 0.0
C2157 C 0.22822 0.42335 0.62418 0.0
C2158 C 0.23044 0.41936 0.59895 0.0
C2159 C 0.22586 0.43795 0.58221 0.0
C2160 C 0.23411 0.40352 0.64177 0.0
C2161 C 0.2234 0.38335 0.63934 0.0
C2162 C 0.2502 0.40428 0.66068 0.0
C2163 C 0.26264 0.42478 0.66366 0.0
C2164 C 0.27536 0.43242 0.64426 0.0
C2165 C 0.28654 0.45214 0.64698 0.0
C2166 C 0.28529 0.46424 0.66909 0.0
C2167 C 0.27289 0.45661 0.68855 0.0
C2168 C 0.26166 0.43691 0.68592 0.0
C2169 C 0.26336 0.3013 0.69381 0.0
C2170 C 0.26107 0.30276 0.71932 0.0
C2171 C 0.25904 0.32148 0.67912 0.0
C2172 C 0.25199 0.3435 0.68961 0.0
C2173 C 0.25081 0.34517 0.71522 0.0
C2174 C 0.25534 0.32496 0.72998 0.0
C2175 C 0.24482 0.36441 0.67373 0.0
C2176 C 0.25521 0.38479 0.67654 0.0
C2177 C 0.22834 0.36394 0.65519 0.0
C2178 C 0.21555 0.34366 0.65233 0.0
C2179 C 0.20351 0.33571 0.67213 0.0
C2180 C 0.19175 0.31642 0.66942 0.0
C2181 C 0.19176 0.30503 0.64694 0.0
C2182 C 0.20348 0.31296 0.6271 0.0
C2183 C 0.2153 0.33223 0.62972 0.0
H2184 H 0.18264 0.29009 0.64488 0.0
H2185 H 0.29395 0.4795 0.67115 0.0
H2186 H 0.60186 0.23597 0.53206 0.0
H2187 H 0.62974 0.24385 0.56237 0.0
H2188 H 0.57687 0.27876 0.60768 0.0
H2189 H 0.54878 0.27164 0.57655 0.0
H2190 H 0.61469 0.29938 0.61286 0.0
H2191 H 0.59764 0.22072 0.6178 0.0
H2192 H 0.59193 0.18168 0.60242 0.0
H2193 H 0.66106 0.16927 0.57971 0.0
H2194 H 0.6671 0.20841 0.59463 0.0
H2195 H 0.68523 0.27974 0.72055 0.0
H2196 H 0.65437 0.28016 0.69083 0.0
H2197 H 0.70146 0.24856 0.63722 0.0
H2198 H 0.73222 0.24793 0.66691 0.0
H2199 H 0.66404 0.22692 0.63901 0.0
H2200 H 0.68008 0.30723 0.63516 0.0
H2201 H 0.68467 0.34565 0.65293 0.0
H2202 H 0.61581 0.35422 0.67671 0.0
H2203 H 0.61092 0.31562 0.65948 0.0
C2204 C 0.5962 0.24588 0.54819 0.0
C2205 C 0.57313 0.25316 0.55194 0.0
C2206 C 0.61216 0.25021 0.56566 0.0
C2207 C 0.60546 0.26128 0.58778 0.0
C2208 C 0.58252 0.27002 0.59089 0.0
C2209 C 0.56647 0.26605 0.57305 0.0
C2210 C 0.62229 0.26193 0.60803 0.0
C2211 C 0.62526 0.28348 0.6188 0.0
C2212 C 0.63624 0.24125 0.61593 0.0
C2213 C 0.63277 0.21758 0.60717 0.0
C2214 C 0.61159 0.20972 0.6094 0.0
C2215 C 0.6083 0.18757 0.60077 0.0
C2216 C 0.62611 0.17302 0.59005 0.0
C2217 C 0.64727 0.18057 0.588 0.0
C2218 C 0.65064 0.20273 0.59656 0.0
C2219 C 0.68896 0.27292 0.70241 0.0
C2220 C 0.71114 0.26377 0.69609 0.0
C2221 C 0.67133 0.2733 0.68537 0.0
C2222 C 0.67553 0.26459 0.66161 0.0
C2223 C 0.69772 0.2554 0.65537 0.0
C2224 C 0.71532 0.25509 0.67235 0.0
C2225 C 0.65688 0.26441 0.64338 0.0
C2226 C 0.65347 0.24284 0.6331 0.0
C2227 C 0.64239 0.285 0.63629 0.0
C2228 C 0.6452 0.30841 0.64623 0.0
C2229 C 0.66596 0.31723 0.64432 0.0
C2230 C 0.66861 0.33905 0.65429 0.0
C2231 C 0.65055 0.35234 0.66599 0.0
C2232 C 0.62977 0.3439 0.66763 0.0
C2233 C 0.62706 0.32205 0.65778 0.0
H2234 H 0.65265 0.3692 0.67375 0.0
H2235 H 0.62353 0.15588 0.58337 0.0
H2236 H 0.81574 0.49132 0.43662 0.0
H2237 H 0.80055 0.46214 0.41133 0.0
H2238 H 0.78264 0.42582 0.47645 0.0
H2239 H 0.79735 0.4556 0.5019 0.0
H2240 H 0.81247 0.39852 0.44244 0.0
H2241 H 0.74145 0.44766 0.44272 0.0
H2242 H 0.71584 0.48487 0.43833 0.0
H2243 H 0.7349 0.49025 0.36299 0.0
H2244 H 0.76089 0.45325 0.36701 0.0
H2245 H 0.77894 0.30909 0.36753 0.0
H2246 H 0.77921 0.33912 0.39896 0.0
H2247 H 0.78103 0.39223 0.34267 0.0
H2248 H 0.7796 0.36236 0.31125 0.0
H2249 H 0.75478 0.40981 0.37667 0.0
H2250 H 0.82927 0.36661 0.37647 0.0
H2251 H 0.85781 0.33145 0.37914 0.0
H2252 H 0.83591 0.31723 0.45192 0.0
H2253 H 0.80703 0.35217 0.44956 0.0
C2254 C 0.80782 0.47756 0.44547 0.0
C2255 C 0.8074 0.47574 0.47108 0.0
C2256 C 0.79919 0.46091 0.43106 0.0
C2257 C 0.79043 0.44187 0.44203 0.0
C2258 C 0.78919 0.44051 0.46768 0.0
C2259 C 0.7974 0.45754 0.48216 0.0
C2260 C 0.78528 0.42218 0.42657 0.0
C2261 C 0.79947 0.40072 0.42844 0.0
C2262 C 0.76891 0.42548 0.40776 0.0
C2263 C 0.75324 0.44773 0.40523 0.0
C2264 C 0.74033 0.45687 0.42527 0.0
C2265 C 0.72571 0.47791 0.42283 0.0
C2266 C 0.72377 0.48993 0.4004 0.0
C2267 C 0.73642 0.48092 0.38035 0.0
C2268 C 0.75107 0.45989 0.38269 0.0
C2269 C 0.77937 0.32719 0.36192 0.0
C2270 C 0.77945 0.33342 0.33701 0.0
C2271 C 0.7796 0.34435 0.37988 0.0
C2272 C 0.78055 0.36796 0.37327 0.0
C2273 C 0.7803 0.37419 0.34831 0.0
C2274 C 0.77962 0.3571 0.33035 0.0
C2275 C 0.78225 0.38613 0.39223 0.0
C2276 C 0.76751 0.40736 0.39094 0.0
C2277 C 0.7985 0.38285 0.41127 0.0
C2278 C 0.81582 0.36182 0.41272 0.0
C2279 C 0.83042 0.35587 0.39297 0.0
C2280 C 0.84668 0.33601 0.39444 0.0
C2281 C 0.84862 0.32207 0.41565 0.0
C2282 C 0.83435 0.32801 0.43547 0.0
C2283 C 0.81805 0.34784 0.43409 0.0
H2284 H 0.86123 0.3067 0.41676 0.0
H2285 H 0.71245 0.50622 0.39855 0.0
H2286 H 0.61169 0.71392 0.4518 0.0
H2287 H 0.64229 0.7196 0.4239 0.0
H2288 H 0.63615 0.79287 0.44319 0.0
H2289 H 0.60554 0.78732 0.47127 0.0
H2290 H 0.64084 0.78882 0.39528 0.0
H2291 H 0.68056 0.75268 0.46425 0.0
H2292 H 0.69071 0.72333 0.49706 0.0
H2293 H 0.7068 0.6695 0.44348 0.0
H2294 H 0.69631 0.69844 0.41036 0.0
H2295 H 0.74417 0.8022 0.33073 0.0
H2296 H 0.71642 0.80173 0.3639 0.0
H2297 H 0.70997 0.72953 0.34782 0.0
H2298 H 0.73757 0.72962 0.31538 0.0
H2299 H 0.71369 0.73634 0.39713 0.0
H2300 H 0.67077 0.77269 0.32858 0.0
H2301 H 0.66158 0.80262 0.29611 0.0
H2302 H 0.65264 0.85694 0.35007 0.0
H2303 H 0.66209 0.82732 0.38285 0.0
C2304 C 0.61694 0.73121 0.4504 0.0
C2305 C 0.60601 0.75011 0.46402 0.0
C2306 C 0.63453 0.73445 0.43435 0.0
C2307 C 0.64186 0.75662 0.43156 0.0
C2308 C 0.63089 0.77558 0.44494 0.0
C2309 C 0.61326 0.77236 0.461 0.0
C2310 C 0.6606 0.76004 0.41431 0.0
C2311 C 0.65691 0.77759 0.39602 0.0
C2312 C 0.68158 0.7453 0.41491 0.0
C2313 C 0.68749 0.72772 0.43481 0.0
C2314 C 0.68605 0.73454 0.45946 0.0
C2315 C 0.69189 0.71798 0.47813 0.0
C2316 C 0.69935 0.69456 0.47237 0.0
C2317 C 0.70099 0.68765 0.44792 0.0
C2318 C 0.69511 0.70412 0.4292 0.0
C2319 C 0.73696 0.78619 0.33442 0.0
C2320 C 0.74313 0.76602 0.32022 0.0
C2321 C 0.72102 0.78596 0.35332 0.0
C2322 C 0.71108 0.76553 0.35843 0.0
C2323 C 0.71752 0.74539 0.3445 0.0
C2324 C 0.73326 0.74561 0.32571 0.0
C2325 C 0.69373 0.7648 0.37797 0.0
C2326 C 0.6977 0.74772 0.39664 0.0
C2327 C 0.67308 0.78004 0.3778 0.0
C2328 C 0.66741 0.79784 0.35813 0.0
C2329 C 0.66705 0.79104 0.3335 0.0
C2330 C 0.66175 0.80794 0.31504 0.0
C2331 C 0.6566 0.83168 0.32101 0.0
C2332 C 0.65668 0.83855 0.34546 0.0
C2333 C 0.662 0.82172 0.36399 0.0
H2334 H 0.65249 0.84474 0.3067 0.0
H2335 H 0.70392 0.68178 0.48684 0.0
H2336 H 0.18255 0.58795 0.43587 0.0
H2337 H 0.1886 0.61973 0.40755 0.0
H2338 H 0.25718 0.61631 0.43272 0.0
H2339 H 0.25165 0.58432 0.46051 0.0
H2340 H 0.23578 0.66192 0.42907 0.0
H2341 H 0.24686 0.59205 0.38008 0.0
H2342 H 0.23593 0.55568 0.36272 0.0
H2343 H 0.17898 0.59566 0.32733 0.0
H2344 H 0.18937 0.63224 0.34483 0.0
H2345 H 0.2865 0.72382 0.33719 0.0
H2346 H 0.27586 0.69449 0.3659 0.0
H2347 H 0.2114 0.697 0.32995 0.0
H2348 H 0.22228 0.72591 0.3005 0.0
H2349 H 0.22772 0.65305 0.33941 0.0
H2350 H 0.21772 0.72343 0.38688 0.0
H2351 H 0.22861 0.75962 0.4047 0.0
H2352 H 0.28318 0.71887 0.4433 0.0
H2353 H 0.2728 0.68246 0.42546 0.0
C2354 C 0.19898 0.59377 0.43536 0.0
C2355 C 0.21656 0.58328 0.45065 0.0
C2356 C 0.20238 0.61204 0.41916 0.0
C2357 C 0.22338 0.62031 0.41794 0.0
C2358 C 0.2408 0.61027 0.43343 0.0
C2359 C 0.2375 0.59193 0.44947 0.0
C2360 C 0.22745 0.63919 0.40033 0.0
C2361 C 0.23419 0.65994 0.40945 0.0
C2362 C 0.22486 0.63679 0.37478 0.0
C2363 C 0.21875 0.61485 0.364 0.0
C2364 C 0.2319 0.59307 0.36876 0.0
C2365 C 0.22582 0.57242 0.35887 0.0
C2366 C 0.20674 0.57335 0.34399 0.0
C2367 C 0.19373 0.59496 0.3389 0.0
C2368 C 0.19971 0.61566 0.34879 0.0
C2369 C 0.26995 0.71836 0.33548 0.0
C2370 C 0.25517 0.72741 0.31662 0.0
C2371 C 0.26386 0.70157 0.352 0.0
C2372 C 0.24265 0.69377 0.35043 0.0
C2373 C 0.22783 0.70277 0.33162 0.0
C2374 C 0.23404 0.71938 0.31485 0.0
C2375 C 0.23623 0.67586 0.36811 0.0
C2376 C 0.22909 0.65523 0.35902 0.0
C2377 C 0.23841 0.67838 0.39374 0.0
C2378 C 0.24457 0.70023 0.40469 0.0
C2379 C 0.23212 0.7222 0.39905 0.0
C2380 C 0.23819 0.74275 0.40917 0.0
C2381 C 0.2566 0.74155 0.42508 0.0
C2382 C 0.26894 0.71978 0.43096 0.0
C2383 C 0.26295 0.69918 0.42088 0.0
H2384 H 0.26129 0.75748 0.43288 0.0
H2385 H 0.20205 0.55735 0.33636 0.0
H2386 H 0.43378 0.24135 0.4863 0.0
H2387 H 0.4049 0.24951 0.4547 0.0
H2388 H 0.45287 0.27698 0.40725 0.0
H2389 H 0.48173 0.26974 0.43965 0.0
H2390 H 0.4114 0.30013 0.3984 0.0
H2391 H 0.44265 0.21975 0.40222 0.0
H2392 H 0.45553 0.18124 0.42152 0.0
H2393 H 0.38802 0.17575 0.44494 0.0
H2394 H 0.37478 0.21441 0.42609 0.0
H2395 H 0.33638 0.2793 0.29726 0.0
H2396 H 0.36934 0.28111 0.32386 0.0
H2397 H 0.33408 0.25324 0.38397 0.0
H2398 H 0.30179 0.25087 0.35751 0.0
H2399 H 0.37427 0.22982 0.38071 0.0
H2400 H 0.34661 0.31565 0.38238 0.0
H2401 H 0.33537 0.35378 0.36126 0.0
H2402 H 0.39851 0.3465 0.3232 0.0
H2403 H 0.41009 0.30844 0.34422 0.0
C2404 C 0.438 0.24977 0.4694 0.0
C2405 C 0.45998 0.25495 0.46547 0.0
C2406 C 0.42153 0.25423 0.4512 0.0
C2407 C 0.42678 0.2632 0.42817 0.0
C2408 C 0.44836 0.26989 0.42473 0.0
C2409 C 0.46484 0.26586 0.44329 0.0
C2410 C 0.41018 0.26366 0.40753 0.0
C2411 C 0.40349 0.28465 0.39436 0.0
C2412 C 0.39993 0.24348 0.40175 0.0
C2413 C 0.40775 0.22006 0.41287 0.0
C2414 C 0.43057 0.21039 0.4116 0.0
C2415 C 0.43794 0.18853 0.42245 0.0
C2416 C 0.42261 0.17607 0.43448 0.0
C2417 C 0.39987 0.18542 0.43562 0.0
C2418 C 0.39242 0.2073 0.42483 0.0
C2419 C 0.33571 0.27372 0.31619 0.0
C2420 C 0.31655 0.26475 0.32519 0.0
C2421 C 0.3545 0.27491 0.33148 0.0
C2422 C 0.35433 0.26738 0.35613 0.0
C2423 C 0.33487 0.25901 0.36509 0.0
C2424 C 0.31633 0.25766 0.34987 0.0
C2425 C 0.37453 0.26659 0.37254 0.0
C2426 C 0.38217 0.24531 0.38473 0.0
C2427 C 0.38586 0.28633 0.37697 0.0
C2428 C 0.37903 0.30919 0.36459 0.0
C2429 C 0.35795 0.32217 0.36936 0.0
C2430 C 0.35156 0.34374 0.35747 0.0
C2431 C 0.36613 0.35246 0.34077 0.0
C2432 C 0.38722 0.3397 0.33609 0.0
C2433 C 0.39373 0.31819 0.34804 0.0
H2434 H 0.36113 0.36913 0.33154 0.0
H2435 H 0.42835 0.15916 0.44288 0.0
H2436 H 0.55379 0.76686 0.61514 0.0
H2437 H 0.5835 0.77376 0.64398 0.0
H2438 H 0.61614 0.80938 0.58718 0.0
H2439 H 0.58606 0.80309 0.55834 0.0
H2440 H 0.64271 0.76779 0.61271 0.0
H2441 H 0.59635 0.84183 0.62857 0.0
H2442 H 0.56104 0.86655 0.63976 0.0
H2443 H 0.5608 0.83057 0.70904 0.0
H2444 H 0.59596 0.80539 0.69811 0.0
H2445 H 0.73359 0.8033 0.67558 0.0
H2446 H 0.69981 0.80215 0.65102 0.0
H2447 H 0.66338 0.78558 0.71559 0.0
H2448 H 0.69727 0.78753 0.74058 0.0
H2449 H 0.63751 0.81651 0.68751 0.0
H2450 H 0.68163 0.74299 0.67465 0.0
H2451 H 0.7155 0.71511 0.66553 0.0
H2452 H 0.71828 0.745 0.59344 0.0
H2453 H 0.68457 0.77332 0.60222 0.0
C2454 C 0.567 0.7767 0.60898 0.0
C2455 C 0.56762 0.78451 0.58455 0.0
C2456 C 0.58394 0.78059 0.62545 0.0
C2457 C 0.60201 0.79199 0.61765 0.0
C2458 C 0.60227 0.80058 0.59351 0.0
C2459 C 0.58503 0.79714 0.57713 0.0
C2460 C 0.62151 0.79305 0.63412 0.0
C2461 C 0.64175 0.77875 0.62884 0.0
C2462 C 0.61977 0.80639 0.6558 0.0
C2463 C 0.59866 0.82155 0.6624 0.0
C2464 C 0.58865 0.83902 0.64609 0.0
C2465 C 0.56869 0.85316 0.65241 0.0
C2466 C 0.55865 0.85009 0.67507 0.0
C2467 C 0.56858 0.83291 0.69148 0.0
C2468 C 0.58854 0.81872 0.68524 0.0
C2469 C 0.71838 0.79945 0.68461 0.0
C2470 C 0.71809 0.79527 0.70995 0.0
C2471 C 0.69909 0.79869 0.6705 0.0
C2472 C 0.67913 0.79335 0.68134 0.0
C2473 C 0.67863 0.78961 0.7068 0.0
C2474 C 0.69798 0.79058 0.72103 0.0
C2475 C 0.65901 0.79165 0.66582 0.0
C2476 C 0.63858 0.8056 0.67135 0.0
C2477 C 0.66038 0.77748 0.64464 0.0
C2478 C 0.68066 0.76045 0.63919 0.0
C2479 C 0.68956 0.74376 0.65692 0.0
C2480 C 0.70873 0.72786 0.6518 0.0
C2481 C 0.71908 0.72834 0.62895 0.0
C2482 C 0.71026 0.74468 0.61114 0.0
C2483 C 0.6911 0.76065 0.61617 0.0
H2484 H 0.73391 0.71601 0.62502 0.0
H2485 H 0.5432 0.86105 0.67994 0.0
H2486 H 0.57285 0.18289 0.41866 0.0
H2487 H 0.60451 0.18577 0.39104 0.0
H2488 H 0.62617 0.23981 0.43615 0.0
H2489 H 0.59504 0.23671 0.46408 0.0
H2490 H 0.62347 0.25196 0.38704 0.0
H2491 H 0.65443 0.18598 0.43784 0.0
H2492 H 0.65492 0.14673 0.45685 0.0
H2493 H 0.65454 0.11559 0.38577 0.0
H2494 H 0.65373 0.15474 0.36633 0.0
H2495 H 0.73021 0.26447 0.34315 0.0
H2496 H 0.70033 0.25462 0.36998 0.0
H2497 H 0.68684 0.19987 0.32074 0.0
H2498 H 0.71702 0.20944 0.29374 0.0
H2499 H 0.68392 0.18649 0.36904 0.0
H2500 H 0.65443 0.25101 0.3178 0.0
H2501 H 0.65319 0.28981 0.29766 0.0
H2502 H 0.64928 0.32332 0.36769 0.0
H2503 H 0.65087 0.28463 0.38831 0.0
C2504 C 0.5845 0.19516 0.42291 0.0
C2505 C 0.58124 0.2097 0.44354 0.0
C2506 C 0.60255 0.19681 0.40706 0.0
C2507 C 0.61764 0.213 0.41159 0.0
C2508 C 0.6146 0.22731 0.43226 0.0
C2509 C 0.59668 0.2256 0.44814 0.0
C2510 C 0.63628 0.21569 0.39447 0.0
C2511 C 0.63682 0.23773 0.3833 0.0
C2512 C 0.65321 0.19685 0.38897 0.0
C2513 C 0.65376 0.17332 0.40064 0.0
C2514 C 0.65424 0.17079 0.42627 0.0
C2515 C 0.65462 0.14856 0.43712 0.0
C2516 C 0.65469 0.12869 0.42253 0.0
C2517 C 0.65445 0.13101 0.39705 0.0
C2518 C 0.65405 0.15321 0.38611 0.0
C2519 C 0.72109 0.25016 0.33807 0.0
C2520 C 0.72584 0.23791 0.31613 0.0
C2521 C 0.70397 0.24459 0.35343 0.0
C2522 C 0.69111 0.22683 0.34708 0.0
C2523 C 0.69652 0.21372 0.32587 0.0
C2524 C 0.71375 0.21924 0.31047 0.0
C2525 C 0.67135 0.22292 0.36207 0.0
C2526 C 0.67051 0.20068 0.3727 0.0
C2527 C 0.65396 0.24153 0.36692 0.0
C2528 C 0.65297 0.26488 0.35462 0.0
C2529 C 0.6535 0.26662 0.32893 0.0
C2530 C 0.65272 0.2886 0.31742 0.0
C2531 C 0.65122 0.30901 0.33139 0.0
C2532 C 0.65047 0.30748 0.3569 0.0
C2533 C 0.6513 0.28553 0.36851 0.0
H2534 H 0.65055 0.32599 0.32245 0.0
H2535 H 0.65499 0.11149 0.43096 0.0
H2536 H 0.81683 0.54906 0.42862 0.0
H2537 H 0.80545 0.57247 0.39199 0.0
H2538 H 0.8665 0.60459 0.39614 0.0
H2539 H 0.87794 0.58117 0.43273 0.0
H2540 H 0.79567 0.61787 0.38931 0.0
H2541 H 0.88252 0.62181 0.34133 0.0
H2542 H 0.91721 0.59492 0.33275 0.0
H2543 H 0.88077 0.53558 0.33922 0.0
H2544 H 0.84578 0.5621 0.34747 0.0
H2545 H 0.80899 0.72587 0.33995 0.0
H2546 H 0.81141 0.68753 0.3599 0.0
H2547 H 0.81201 0.65408 0.28949 0.0
H2548 H 0.80973 0.6929 0.26919 0.0
H2549 H 0.84502 0.63281 0.31963 0.0
H2550 H 0.76661 0.65402 0.32448 0.0
H2551 H 0.73059 0.67927 0.33142 0.0
H2552 H 0.74708 0.68459 0.40744 0.0
H2553 H 0.78345 0.65982 0.40091 0.0
C2554 C 0.82787 0.56103 0.42164 0.0
C2555 C 0.84817 0.5635 0.43372 0.0
C2556 C 0.82141 0.57427 0.40062 0.0
C2557 C 0.83516 0.59018 0.39121 0.0
C2558 C 0.85581 0.59208 0.40276 0.0
C2559 C 0.86232 0.57875 0.42373 0.0
C2560 C 0.82701 0.60658 0.37096 0.0
C2561 C 0.80632 0.62094 0.3739 0.0
C2562 C 0.84053 0.61004 0.35037 0.0
C2563 C 0.86152 0.59398 0.34515 0.0
C2564 C 0.88186 0.60304 0.34076 0.0
C2565 C 0.90159 0.58785 0.33599 0.0
C2566 C 0.9012 0.56355 0.33548 0.0
C2567 C 0.88106 0.55439 0.33969 0.0
C2568 C 0.86128 0.5695 0.34445 0.0
C2569 C 0.8095 0.7104 0.32866 0.0
C2570 C 0.80929 0.71227 0.30305 0.0
C2571 C 0.8107 0.6885 0.3401 0.0
C2572 C 0.81159 0.66799 0.32619 0.0
C2573 C 0.8112 0.66975 0.30052 0.0
C2574 C 0.80989 0.69184 0.28899 0.0
C2575 C 0.81443 0.6449 0.33896 0.0
C2576 C 0.8341 0.6293 0.33466 0.0
C2577 C 0.79975 0.64002 0.35805 0.0
C2578 C 0.77785 0.65502 0.36216 0.0
C2579 C 0.76266 0.6607 0.34265 0.0
C2580 C 0.74217 0.67493 0.34652 0.0
C2581 C 0.73655 0.68347 0.36986 0.0
C2582 C 0.75145 0.6779 0.38938 0.0
C2583 C 0.77201 0.66374 0.3856 0.0
H2584 H 0.72063 0.69434 0.37286 0.0
H2585 H 0.9165 0.55183 0.33179 0.0
H2586 H 0.47278 0.8116 0.48701 0.0
H2587 H 0.44016 0.8209 0.45963 0.0
H2588 H 0.47902 0.78819 0.39983 0.0
H2589 H 0.51142 0.77877 0.427 0.0
H2590 H 0.44933 0.82794 0.38509 0.0
H2591 H 0.44941 0.7563 0.43361 0.0
H2592 H 0.45028 0.73446 0.47279 0.0
H2593 H 0.38911 0.77655 0.4949 0.0
H2594 H 0.38816 0.79905 0.45607 0.0
H2595 H 0.37346 0.78393 0.30402 0.0
H2596 H 0.40373 0.78967 0.33259 0.0
H2597 H 0.35445 0.81175 0.38811 0.0
H2598 H 0.32422 0.80541 0.35977 0.0
H2599 H 0.38703 0.78291 0.4076 0.0
H2600 H 0.38396 0.85163 0.35745 0.0
H2601 H 0.38326 0.87478 0.31912 0.0
H2602 H 0.44899 0.84009 0.30067 0.0
H2603 H 0.44996 0.81648 0.33874 0.0
C2604 C 0.47454 0.80713 0.46784 0.0
C2605 C 0.49455 0.79435 0.45912 0.0
C2606 C 0.45588 0.8123 0.45227 0.0
C2607 C 0.4571 0.80494 0.42778 0.0
C2608 C 0.47769 0.79401 0.41864 0.0
C2609 C 0.49618 0.78859 0.4342 0.0
C2610 C 0.43657 0.80589 0.41236 0.0
C2611 C 0.43569 0.8181 0.38993 0.0
C2612 C 0.41858 0.79342 0.41897 0.0
C2613 C 0.41887 0.77956 0.44208 0.0
C2614 C 0.43624 0.76103 0.44691 0.0
C2615 C 0.43676 0.74854 0.46906 0.0
C2616 C 0.41982 0.7542 0.48639 0.0
C2617 C 0.40228 0.77228 0.48153 0.0
C2618 C 0.40175 0.78492 0.45946 0.0
C2619 C 0.36912 0.79009 0.32229 0.0
C2620 C 0.34652 0.79428 0.32967 0.0
C2621 C 0.38641 0.79352 0.33858 0.0
C2622 C 0.38141 0.80151 0.36246 0.0
C2623 C 0.35878 0.80565 0.36981 0.0
C2624 C 0.34151 0.80206 0.35358 0.0
C2625 C 0.39981 0.80475 0.37998 0.0
C2626 C 0.40038 0.79318 0.40281 0.0
C2627 C 0.41742 0.81796 0.37379 0.0
C2628 C 0.41695 0.83215 0.35087 0.0
C2629 C 0.3982 0.84881 0.34514 0.0
C2630 C 0.39776 0.86203 0.32347 0.0
C2631 C 0.41605 0.85887 0.30745 0.0
C2632 C 0.43483 0.8425 0.31309 0.0
C2633 C 0.43534 0.82921 0.33473 0.0
H2634 H 0.41568 0.86913 0.29068 0.0
H2635 H 0.42025 0.74453 0.50354 0.0
H2636 H 0.27955 0.49007 0.43071 0.0
H2637 H 0.278 0.46017 0.39943 0.0
H2638 H 0.24773 0.41674 0.45135 0.0
H2639 H 0.24975 0.44617 0.48285 0.0
H2640 H 0.2761 0.39025 0.42213 0.0
H2641 H 0.21525 0.45338 0.41194 0.0
H2642 H 0.19875 0.49493 0.40704 0.0
H2643 H 0.23501 0.49977 0.33988 0.0
H2644 H 0.25201 0.45831 0.34457 0.0
H2645 H 0.23299 0.31785 0.33614 0.0
H2646 H 0.22961 0.34913 0.36667 0.0
H2647 H 0.2674 0.39059 0.32002 0.0
H2648 H 0.27088 0.35954 0.28956 0.0
H2649 H 0.23338 0.41786 0.347 0.0
H2650 H 0.29359 0.35393 0.35735 0.0
H2651 H 0.30871 0.31204 0.36196 0.0
H2652 H 0.27328 0.30854 0.42985 0.0
H2653 H 0.2571 0.35023 0.42508 0.0
C2654 C 0.27298 0.47396 0.43561 0.0
C2655 C 0.26447 0.47065 0.45916 0.0
C2656 C 0.27197 0.45695 0.41768 0.0
C2657 C 0.2622 0.43653 0.42293 0.0
C2658 C 0.25516 0.43246 0.44686 0.0
C2659 C 0.2563 0.44935 0.46484 0.0
C2660 C 0.258 0.42013 0.40321 0.0
C2661 C 0.26652 0.39623 0.40586 0.0
C2662 C 0.24564 0.42801 0.38188 0.0
C2663 C 0.23505 0.45279 0.37872 0.0
C2664 C 0.21979 0.46333 0.39619 0.0
C2665 C 0.21035 0.48686 0.39345 0.0
C2666 C 0.21587 0.49999 0.37318 0.0
C2667 C 0.23078 0.48958 0.35557 0.0
C2668 C 0.24031 0.46606 0.35825 0.0
C2669 C 0.23994 0.33395 0.33208 0.0
C2670 C 0.25251 0.33615 0.31071 0.0
C2671 C 0.23804 0.35175 0.34953 0.0
C2672 C 0.24858 0.37193 0.34568 0.0
C2673 C 0.25923 0.3751 0.32332 0.0
C2674 C 0.26133 0.35727 0.30603 0.0
C2675 C 0.25144 0.38807 0.36599 0.0
C2676 C 0.24278 0.4119 0.3634 0.0
C2677 C 0.26358 0.38009 0.38741 0.0
C2678 C 0.27389 0.35518 0.39069 0.0
C2679 C 0.28883 0.3442 0.37315 0.0
C2680 C 0.29757 0.32047 0.37577 0.0
C2681 C 0.292 0.30763 0.39621 0.0
C2682 C 0.27758 0.31851 0.41401 0.0
C2683 C 0.26853 0.34217 0.4113 0.0
H2684 H 0.29887 0.28928 0.39826 0.0
H2685 H 0.20857 0.51822 0.37111 0.0
H2686 H 0.48287 0.18614 0.60515 0.0
H2687 H 0.45239 0.18882 0.63505 0.0
H2688 H 0.41007 0.23501 0.58617 0.0
H2689 H 0.44058 0.23247 0.55625 0.0
H2690 H 0.40749 0.25212 0.63036 0.0
H2691 H 0.40126 0.17751 0.5955 0.0
H2692 H 0.41438 0.13723 0.58168 0.0
H2693 H 0.43327 0.1163 0.6553 0.0
H2694 H 0.42055 0.15657 0.66952 0.0
H2695 H 0.30933 0.21076 0.70442 0.0
H2696 H 0.33803 0.2024 0.67266 0.0
H2697 H 0.38157 0.24369 0.71135 0.0
H2698 H 0.35277 0.25271 0.74261 0.0
H2699 H 0.38053 0.18248 0.6693 0.0
H2700 H 0.40773 0.27561 0.67252 0.0
H2701 H 0.39153 0.31582 0.68406 0.0
H2702 H 0.3251 0.29982 0.66786 0.0
H2703 H 0.34093 0.25965 0.6559 0.0
C2704 C 0.46699 0.19661 0.60063 0.0
C2705 C 0.46416 0.20911 0.57833 0.0
C2706 C 0.44956 0.19814 0.61775 0.0
C2707 C 0.42885 0.21196 0.61278 0.0
C2708 C 0.42592 0.2243 0.59044 0.0
C2709 C 0.44339 0.22289 0.57339 0.0
C2710 C 0.41057 0.21424 0.63126 0.0
C2711 C 0.40158 0.23687 0.63881 0.0
C2712 C 0.40251 0.19439 0.64199 0.0
C2713 C 0.41013 0.17012 0.63354 0.0
C2714 C 0.40837 0.16437 0.60872 0.0
C2715 C 0.41571 0.14153 0.60082 0.0
C2716 C 0.4247 0.12423 0.61759 0.0
C2717 C 0.42632 0.12973 0.64232 0.0
C2718 C 0.41903 0.15255 0.65032 0.0
C2719 C 0.32516 0.21776 0.70631 0.0
C2720 C 0.3287 0.23264 0.7258 0.0
C2721 C 0.34153 0.21297 0.68816 0.0
C2722 C 0.36173 0.22286 0.68935 0.0
C2723 C 0.36588 0.23637 0.70973 0.0
C2724 C 0.34943 0.24144 0.72762 0.0
C2725 C 0.37791 0.2203 0.66871 0.0
C2726 C 0.38645 0.19767 0.66077 0.0
C2727 C 0.38515 0.24018 0.65712 0.0
C2728 C 0.37553 0.26457 0.66348 0.0
C2729 C 0.38969 0.28074 0.67125 0.0
C2730 C 0.38057 0.3035 0.67791 0.0
C2731 C 0.3573 0.31035 0.67675 0.0
C2732 C 0.34312 0.29448 0.6688 0.0
C2733 C 0.35216 0.27171 0.66209 0.0
H2734 H 0.35028 0.32796 0.68198 0.0
H2735 H 0.43037 0.10655 0.61144 0.0
H2736 H 0.88096 0.46062 0.60832 0.0
H2737 H 0.87316 0.4295 0.63672 0.0
H2738 H 0.82979 0.40396 0.58298 0.0
H2739 H 0.83765 0.43489 0.55446 0.0
H2740 H 0.80927 0.41022 0.62667 0.0
H2741 H 0.88068 0.37316 0.59706 0.0
H2742 H 0.92117 0.3704 0.58758 0.0
H2743 H 0.93601 0.37967 0.66347 0.0
H2744 H 0.89555 0.38281 0.67336 0.0
H2745 H 0.78796 0.30643 0.6863 0.0
H2746 H 0.80125 0.33364 0.65687 0.0
H2747 H 0.84507 0.35664 0.71174 0.0
H2748 H 0.83222 0.32905 0.74129 0.0
H2749 H 0.8659 0.35189 0.66812 0.0
H2750 H 0.79493 0.38934 0.6979 0.0
H2751 H 0.75454 0.39197 0.70789 0.0
H2752 H 0.73893 0.38264 0.63222 0.0
H2753 H 0.77928 0.37961 0.62182 0.0
C2754 C 0.87015 0.4481 0.60235 0.0
C2755 C 0.85979 0.45035 0.57917 0.0
C2756 C 0.86566 0.43034 0.61863 0.0
C2757 C 0.85089 0.41442 0.61195 0.0
C2758 C 0.84112 0.41617 0.58856 0.0
C2759 C 0.84558 0.43389 0.57231 0.0
C2760 C 0.84452 0.3968 0.62978 0.0
C2761 C 0.82163 0.39724 0.63546 0.0
C2762 C 0.86072 0.38037 0.6418 0.0
C2763 C 0.88506 0.37846 0.6359 0.0
C2764 C 0.89255 0.37481 0.6117 0.0
C2765 C 0.9155 0.37314 0.60626 0.0
C2766 C 0.93115 0.37493 0.6249 0.0
C2767 C 0.92387 0.37833 0.64904 0.0
C2768 C 0.90094 0.38003 0.65457 0.0
C2769 C 0.80047 0.3172 0.69217 0.0
C2770 C 0.80887 0.31568 0.71627 0.0
C2771 C 0.80802 0.33279 0.6753 0.0
C2772 C 0.82387 0.34745 0.68223 0.0
C2773 C 0.83278 0.34553 0.70603 0.0
C2774 C 0.82536 0.32979 0.72291 0.0
C2775 C 0.83064 0.36518 0.66479 0.0
C2776 C 0.85356 0.36485 0.65928 0.0
C2777 C 0.81449 0.38184 0.65298 0.0
C2778 C 0.79016 0.38405 0.65912 0.0
C2779 C 0.7829 0.38771 0.68341 0.0
C2780 C 0.76001 0.38929 0.68914 0.0
C2781 C 0.74418 0.38742 0.67071 0.0
C2782 C 0.75121 0.38406 0.64648 0.0
C2783 C 0.77409 0.38244 0.64065 0.0
H2784 H 0.72647 0.38862 0.67519 0.0
H2785 H 0.94891 0.37362 0.62065 0.0
H2786 H 0.29563 0.51618 0.59151 0.0
H2787 H 0.2984 0.54511 0.62359 0.0
H2788 H 0.26726 0.60022 0.57542 0.0
H2789 H 0.26567 0.57189 0.54308 0.0
H2790 H 0.29395 0.61796 0.6037 0.0
H2791 H 0.23685 0.56661 0.61569 0.0
H2792 H 0.22382 0.52784 0.62096 0.0
H2793 H 0.26359 0.51533 0.68638 0.0
H2794 H 0.27726 0.55382 0.68117 0.0
H2795 H 0.23756 0.70041 0.68318 0.0
H2796 H 0.24325 0.66879 0.65331 0.0
H2797 H 0.27706 0.62223 0.70826 0.0
H2798 H 0.27149 0.6539 0.73822 0.0
H2799 H 0.25333 0.59884 0.67881 0.0
H2800 H 0.3041 0.65656 0.66775 0.0
H2801 H 0.31519 0.69576 0.65998 0.0
H2802 H 0.28272 0.69841 0.58974 0.0
H2803 H 0.27125 0.65926 0.59733 0.0
C2804 C 0.29006 0.53458 0.58753 0.0
C2805 C 0.27993 0.54164 0.56495 0.0
C2806 C 0.29147 0.55107 0.60595 0.0
C2807 C 0.28223 0.5747 0.60222 0.0
C2808 C 0.27425 0.58207 0.57889 0.0
C2809 C 0.27328 0.56575 0.56037 0.0
C2810 C 0.27851 0.59134 0.62289 0.0
C2811 C 0.28496 0.61385 0.62007 0.0
C2812 C 0.26697 0.58585 0.6444 0.0
C2813 C 0.25829 0.56297 0.64789 0.0
C2814 C 0.2429 0.55554 0.63113 0.0
C2815 C 0.23543 0.53359 0.63408 0.0
C2816 C 0.24296 0.51907 0.65392 0.0
C2817 C 0.25786 0.52654 0.67094 0.0
C2818 C 0.26549 0.54841 0.66799 0.0
C2819 C 0.24595 0.68333 0.68896 0.0
C2820 C 0.25444 0.67964 0.71283 0.0
C2821 C 0.2493 0.66533 0.67186 0.0
C2822 C 0.26145 0.64349 0.6783 0.0
C2823 C 0.26822 0.63918 0.70272 0.0
C2824 C 0.26494 0.65722 0.71985 0.0
C2825 C 0.26826 0.62568 0.65932 0.0
C2826 C 0.26246 0.60294 0.66254 0.0
C2827 C 0.27985 0.63121 0.63783 0.0
C2828 C 0.28681 0.65486 0.63323 0.0
C2829 C 0.29934 0.66545 0.6507 0.0
C2830 C 0.30566 0.68771 0.64633 0.0
C2831 C 0.29967 0.69959 0.62436 0.0
C2832 C 0.28736 0.68919 0.60675 0.0
C2833 C 0.28097 0.66694 0.61111 0.0
H2834 H 0.30458 0.71683 0.62099 0.0
H2835 H 0.23721 0.50206 0.65616 0.0
loop_
_geom_bond_atom_site_label_1
_geom_bond_atom_site_label_2
_geom_bond_distance
_geom_bond_site_symmetry_2
_ccdc_geom_bond_type
Cu0 N1 1.967 1_565 S
Cu0 O6 1.997 . S
Cu0 N11 2.017 . S
Cu0 O20 1.936 1_465 S
N1 Cu0 1.967 1_545 S
N1 C3 1.263 . S
N1 C5 1.389 . S
N2 C3 1.358 . S
N2 C4 1.400 . S
C3 N1 1.263 . S
C3 N2 1.358 . S
C3 H9 0.930 . S
C4 N2 1.400 . S
C4 C5 1.351 . S
C4 H21 0.930 . S
C5 N1 1.389 . S
C5 C4 1.351 . S
C5 H10 0.930 . S
O6 Cu0 1.997 . S
O6 C16 1.282 . S
C7 O8 1.261 . S
C7 O20 1.251 . S
O8 C7 1.261 . S
H9 C3 0.930 . S
H10 C5 0.930 . S
N11 Cu0 2.017 . S
N11 C13 1.335 1_455 S
N11 C14 1.390 . S
N12 C13 1.345 . S
N12 C15 1.336 . S
C13 N11 1.335 1_655 S
C13 N12 1.345 . S
C13 H18 0.930 . S
C14 N11 1.390 . S
C14 C15 1.346 1_455 S
C14 H19 0.930 . S
C15 N12 1.336 . S
C15 C14 1.346 1_655 S
C15 H22 0.929 . S
C16 O6 1.282 . S
C16 O17 1.216 . S
O17 C16 1.216 . S
H18 C13 0.930 . S
H19 C14 0.930 . S
O20 Cu0 1.936 1_645 S
O20 C7 1.251 . S
H21 C4 0.930 . S
H22 C15 0.929 . S
Cu23 N24 1.971 1_445 S
Cu23 O29 1.945 1_455 S
Cu23 N34 2.013 . S
Cu23 O43 1.988 1_545 S
N24 Cu23 1.971 1_665 S
N24 C26 1.263 . S
N24 C28 1.389 . S
N25 C26 1.358 . S
N25 C27 1.400 . S
C26 N24 1.263 . S
C26 N25 1.358 . S
C26 H32 0.930 1_565 S
C27 N25 1.400 . S
C27 C28 1.351 . S
C27 H44 0.930 . S
C28 N24 1.389 . S
C28 C27 1.351 . S
C28 H33 0.930 . S
O29 Cu23 1.945 1_655 S
O29 C39 1.282 . S
C30 O31 1.261 . S
C30 O43 1.251 . S
O31 C30 1.261 . S
H32 C26 0.930 1_545 S
H33 C28 0.930 . S
N34 Cu23 2.013 . S
N34 C36 1.335 . S
N34 C37 1.390 . S
N35 C36 1.345 . S
N35 C38 1.336 . S
C36 N34 1.335 . S
C36 N35 1.345 . S
C36 H41 0.930 . S
C37 N34 1.390 . S
C37 C38 1.346 . S
C37 H42 0.930 . S
C38 N35 1.336 . S
C38 C37 1.346 . S
C38 H45 0.929 . S
C39 O29 1.282 . S
C39 O40 1.216 . S
O40 C39 1.216 . S
H41 C36 0.930 . S
H42 C37 0.930 . S
O43 Cu23 1.988 1_565 S
O43 C30 1.251 . S
H44 C27 0.930 . S
H45 C38 0.929 . S
Cu46 N47 1.999 1_545 S
Cu46 O52 1.974 1_545 S
Cu46 N57 1.985 . S
Cu46 O66 1.959 . S
N47 Cu46 1.999 1_565 S
N47 C49 1.263 . S
N47 C51 1.389 1_554 S
N48 C49 1.358 1_556 S
N48 C50 1.400 . S
C49 N47 1.263 . S
C49 N48 1.358 1_554 S
C49 H55 0.930 . S
C50 N48 1.400 . S
C50 C51 1.351 . S
C50 H67 0.930 . S
C51 N47 1.389 1_556 S
C51 C50 1.351 . S
C51 H56 0.930 . S
O52 Cu46 1.974 1_565 S
O52 C62 1.282 . S
C53 O54 1.261 . S
C53 O66 1.251 . S
O54 C53 1.261 . S
H55 C49 0.930 . S
H56 C51 0.930 . S
N57 Cu46 1.985 . S
N57 C59 1.335 . S
N57 C60 1.390 . S
N58 C59 1.345 . S
N58 C61 1.336 . S
C59 N57 1.335 . S
C59 N58 1.345 . S
C59 H64 0.930 . S
C60 N57 1.390 . S
C60 C61 1.346 . S
C60 H65 0.930 . S
C61 N58 1.336 . S
C61 C60 1.346 . S
C61 H68 0.929 . S
C62 O52 1.282 . S
C62 O63 1.216 . S
O63 C62 1.216 . S
H64 C59 0.930 . S
H65 C60 0.930 . S
O66 Cu46 1.959 . S
O66 C53 1.251 . S
H67 C50 0.930 . S
H68 C61 0.929 . S
Cu69 N70 1.999 1_554 S
Cu69 O75 1.974 . S
Cu69 N80 1.985 1_455 S
Cu69 O89 1.937 1_454 S
N70 Cu69 1.999 1_556 S
N70 C72 1.263 . S
N70 C74 1.389 . S
N71 C72 1.358 . S
N71 C73 1.400 . S
C72 N70 1.263 . S
C72 N71 1.358 . S
C72 H78 0.930 1_556 S
C73 N71 1.400 . S
C73 C74 1.351 . S
C73 H90 0.930 . S
C74 N70 1.389 . S
C74 C73 1.351 . S
C74 H79 0.930 . S
O75 Cu69 1.974 . S
O75 C85 1.282 . S
C76 O77 1.261 . S
C76 O89 1.263 . S
O77 C76 1.261 . S
H78 C72 0.930 1_554 S
H79 C74 0.930 . S
N80 Cu69 1.985 1_655 S
N80 C82 1.335 . S
N80 C83 1.390 . S
N81 C82 1.345 . S
N81 C84 1.336 . S
C82 N80 1.335 . S
C82 N81 1.345 . S
C82 H87 0.930 . S
C83 N80 1.390 . S
C83 C84 1.346 . S
C83 H88 0.930 1_655 S
C84 N81 1.336 . S
C84 C83 1.346 . S
C84 H91 0.929 . S
C85 O75 1.282 . S
C85 O86 1.216 . S
O86 C85 1.216 . S
H87 C82 0.930 . S
H88 C83 0.930 1_455 S
O89 Cu69 1.937 1_656 S
O89 C76 1.263 . S
H90 C73 0.930 . S
H91 C84 0.929 . S
Cu92 N93 1.963 1_554 S
Cu92 O98 2.005 . S
Cu92 N103 2.021 1_545 S
Cu92 O112 1.928 1_544 S
N93 Cu92 1.963 1_556 S
N93 C95 1.263 . S
N93 C97 1.389 . S
N94 C95 1.358 . S
N94 C96 1.400 . S
C95 N93 1.263 . S
C95 N94 1.358 . S
C95 H101 0.930 . S
C96 N94 1.400 . S
C96 C97 1.351 . S
C96 H113 0.930 . S
C97 N93 1.389 . S
C97 C96 1.351 . S
C97 H102 0.930 . S
O98 Cu92 2.005 . S
O98 C108 1.282 . S
C99 O100 1.261 . S
C99 O112 1.251 . S
O100 C99 1.261 . S
H101 C95 0.930 . S
H102 C97 0.930 . S
N103 Cu92 2.021 1_565 S
N103 C105 1.335 . S
N103 C106 1.390 . S
N104 C105 1.345 . S
N104 C107 1.336 . S
C105 N103 1.335 . S
C105 N104 1.345 . S
C105 H110 0.930 . S
C106 N103 1.390 . S
C106 C107 1.346 . S
C106 H111 0.930 1_565 S
C107 N104 1.336 . S
C107 C106 1.346 . S
C107 H114 0.929 . S
C108 O98 1.282 . S
C108 O109 1.216 . S
O109 C108 1.216 . S
H110 C105 0.930 . S
H111 C106 0.930 1_545 S
O112 Cu92 1.928 1_566 S
O112 C99 1.251 . S
H113 C96 0.930 . S
H114 C107 0.929 . S
Cu115 N116 1.999 1_454 S
Cu115 O121 1.974 1_455 S
Cu115 N126 1.985 . S
Cu115 O135 1.959 1_554 S
N116 Cu115 1.999 1_656 S
N116 C118 1.263 . S
N116 C120 1.389 1_655 S
N117 C118 1.358 . S
N117 C119 1.400 . S
C118 N116 1.263 . S
C118 N117 1.358 . S
C118 H124 0.930 . S
C119 N117 1.400 . S
C119 C120 1.351 1_655 S
C119 H136 0.930 . S
C120 N116 1.389 1_455 S
C120 C119 1.351 1_455 S
C120 H125 0.930 . S
O121 Cu115 1.974 1_655 S
O121 C131 1.282 . S
C122 O123 1.261 . S
C122 O135 1.251 . S
O123 C122 1.261 . S
H124 C118 0.930 . S
H125 C120 0.930 . S
N126 Cu115 1.985 . S
N126 C128 1.335 . S
N126 C129 1.390 . S
N127 C128 1.345 . S
N127 C130 1.336 . S
C128 N126 1.335 . S
C128 N127 1.345 . S
C128 H133 0.930 . S
C129 N126 1.390 . S
C129 C130 1.346 . S
C129 H134 0.930 . S
C130 N127 1.336 . S
C130 C129 1.346 . S
C130 H137 0.929 . S
C131 O121 1.282 . S
C131 O132 1.216 . S
O132 C131 1.216 . S
H133 C128 0.930 . S
H134 C129 0.930 . S
O135 Cu115 1.959 1_556 S
O135 C122 1.251 . S
H136 C119 0.930 . S
H137 C130 0.929 . S
Cu138 N139 1.999 . S
Cu138 O144 1.974 . S
Cu138 N149 1.985 . S
Cu138 O158 1.959 . S
N139 Cu138 1.999 . S
N139 C141 1.263 . S
N139 C143 1.389 . S
N140 C141 1.358 . S
N140 C142 1.400 . S
C141 N139 1.263 . S
C141 N140 1.358 . S
C141 H147 0.930 . S
C142 N140 1.400 . S
C142 C143 1.351 . S
C142 H159 0.930 . S
C143 N139 1.389 . S
C143 C142 1.351 . S
C143 H148 0.930 . S
O144 Cu138 1.974 . S
O144 C154 1.282 . S
C145 O146 1.261 . S
C145 O158 1.251 . S
O146 C145 1.261 . S
H147 C141 0.930 . S
H148 C143 0.930 . S
N149 Cu138 1.985 . S
N149 C151 1.335 . S
N149 C152 1.390 . S
N150 C151 1.345 . S
N150 C153 1.336 . S
C151 N149 1.335 . S
C151 N150 1.345 . S
C151 H156 0.930 . S
C152 N149 1.390 . S
C152 C153 1.346 . S
C152 H157 0.930 . S
C153 N150 1.336 . S
C153 C152 1.346 . S
C153 H160 0.929 . S
C154 O144 1.282 . S
C154 O155 1.216 . S
O155 C154 1.216 . S
H156 C151 0.930 . S
H157 C152 0.930 . S
O158 Cu138 1.959 . S
O158 C145 1.251 . S
H159 C142 0.930 . S
H160 C153 0.929 . S
Cu161 N162 1.999 . S
Cu161 O167 1.974 . S
Cu161 N172 1.985 . S
Cu161 O181 1.959 . S
N162 Cu161 1.999 . S
N162 C164 1.263 . S
N162 C166 1.389 . S
N163 C164 1.358 . S
N163 C165 1.400 . S
C164 N162 1.263 . S
C164 N163 1.358 . S
C164 H170 0.930 . S
C165 N163 1.400 . S
C165 C166 1.351 . S
C165 H182 0.930 . S
C166 N162 1.389 . S
C166 C165 1.351 . S
C166 H171 0.930 . S
O167 Cu161 1.974 . S
O167 C177 1.282 . S
C168 O169 1.261 . S
C168 O181 1.251 . S
O169 C168 1.261 . S
H170 C164 0.930 . S
H171 C166 0.930 . S
N172 Cu161 1.985 . S
N172 C174 1.335 . S
N172 C175 1.390 . S
N173 C174 1.345 . S
N173 C176 1.336 . S
C174 N172 1.335 . S
C174 N173 1.345 . S
C174 H179 0.930 . S
C175 N172 1.390 . S
C175 C176 1.346 . S
C175 H180 0.930 . S
C176 N173 1.336 . S
C176 C175 1.346 . S
C176 H183 0.929 . S
C177 O167 1.282 . S
C177 O178 1.216 . S
O178 C177 1.216 . S
H179 C174 0.930 . S
H180 C175 0.930 . S
O181 Cu161 1.959 . S
O181 C168 1.251 . S
H182 C165 0.930 . S
H183 C176 0.929 . S
Cu184 N185 1.999 . S
Cu184 O190 1.974 . S
Cu184 N195 1.985 . S
Cu184 O204 1.959 . S
N185 Cu184 1.999 . S
N185 C187 1.263 . S
N185 C189 1.389 . S
N186 C187 1.358 . S
N186 C188 1.400 . S
C187 N185 1.263 . S
C187 N186 1.358 . S
C187 H193 0.930 . S
C188 N186 1.400 . S
C188 C189 1.351 . S
C188 H205 0.930 . S
C189 N185 1.389 . S
C189 C188 1.351 . S
C189 H194 0.930 . S
O190 Cu184 1.974 . S
O190 C200 1.282 . S
C191 O192 1.261 . S
C191 O204 1.251 . S
O192 C191 1.261 . S
H193 C187 0.930 . S
H194 C189 0.930 . S
N195 Cu184 1.985 . S
N195 C197 1.335 . S
N195 C198 1.390 . S
N196 C197 1.345 . S
N196 C199 1.336 . S
C197 N195 1.335 . S
C197 N196 1.345 . S
C197 H202 0.930 . S
C198 N195 1.390 . S
C198 C199 1.346 . S
C198 H203 0.930 . S
C199 N196 1.336 . S
C199 C198 1.346 . S
C199 H206 0.929 . S
C200 O190 1.282 . S
C200 O201 1.216 . S
O201 C200 1.216 . S
H202 C197 0.930 . S
H203 C198 0.930 . S
O204 Cu184 1.959 . S
O204 C191 1.251 . S
H205 C188 0.930 . S
H206 C199 0.929 . S
Cu207 N208 1.999 . S
Cu207 O213 1.974 . S
Cu207 N218 1.985 . S
Cu207 O227 1.959 . S
N208 Cu207 1.999 . S
N208 C210 1.263 . S
N208 C212 1.389 . S
N209 C210 1.358 . S
N209 C211 1.400 . S
C210 N208 1.263 . S
C210 N209 1.358 . S
C210 H216 0.930 . S
C211 N209 1.400 . S
C211 C212 1.351 . S
C211 H228 0.930 . S
C212 N208 1.389 . S
C212 C211 1.351 . S
C212 H217 0.930 . S
O213 Cu207 1.974 . S
O213 C223 1.282 . S
C214 O215 1.261 . S
C214 O227 1.251 . S
O215 C214 1.261 . S
H216 C210 0.930 . S
H217 C212 0.930 . S
N218 Cu207 1.985 . S
N218 C220 1.335 . S
N218 C221 1.390 . S
N219 C220 1.345 . S
N219 C222 1.336 . S
C220 N218 1.335 . S
C220 N219 1.345 . S
C220 H225 0.930 . S
C221 N218 1.390 . S
C221 C222 1.346 . S
C221 H226 0.930 . S
C222 N219 1.336 . S
C222 C221 1.346 . S
C222 H229 0.929 . S
C223 O213 1.282 . S
C223 O224 1.216 . S
O224 C223 1.216 . S
H225 C220 0.930 . S
H226 C221 0.930 . S
O227 Cu207 1.959 . S
O227 C214 1.251 . S
H228 C211 0.930 . S
H229 C222 0.929 . S
Cu230 N231 1.999 . S
Cu230 O236 1.974 . S
Cu230 N241 1.985 . S
Cu230 O250 1.959 . S
N231 Cu230 1.999 . S
N231 C233 1.263 . S
N231 C235 1.389 . S
N232 C233 1.358 . S
N232 C234 1.400 . S
C233 N231 1.263 . S
C233 N232 1.358 . S
C233 H239 0.930 . S
C234 N232 1.400 . S
C234 C235 1.351 . S
C234 H251 0.930 . S
C235 N231 1.389 . S
C235 C234 1.351 . S
C235 H240 0.930 . S
O236 Cu230 1.974 . S
O236 C246 1.282 . S
C237 O238 1.261 . S
C237 O250 1.251 . S
O238 C237 1.261 . S
H239 C233 0.930 . S
H240 C235 0.930 . S
N241 Cu230 1.985 . S
N241 C243 1.335 . S
N241 C244 1.390 . S
N242 C243 1.345 . S
N242 C245 1.336 . S
C243 N241 1.335 . S
C243 N242 1.345 . S
C243 H248 0.930 . S
C244 N241 1.390 . S
C244 C245 1.346 . S
C244 H249 0.930 . S
C245 N242 1.336 . S
C245 C244 1.346 . S
C245 H252 0.929 . S
C246 O236 1.282 . S
C246 O247 1.216 . S
O247 C246 1.216 . S
H248 C243 0.930 . S
H249 C244 0.930 . S
O250 Cu230 1.959 . S
O250 C237 1.251 . S
H251 C234 0.930 . S
H252 C245 0.929 . S
Cu253 N254 1.999 . S
Cu253 O259 1.974 . S
Cu253 N264 1.985 . S
Cu253 O273 1.959 . S
N254 Cu253 1.999 . S
N254 C256 1.263 . S
N254 C258 1.389 . S
N255 C256 1.358 . S
N255 C257 1.400 . S
C256 N254 1.263 . S
C256 N255 1.358 . S
C256 H262 0.930 . S
C257 N255 1.400 . S
C257 C258 1.351 . S
C257 H274 0.930 . S
C258 N254 1.389 . S
C258 C257 1.351 . S
C258 H263 0.930 . S
O259 Cu253 1.974 . S
O259 C269 1.282 . S
C260 O261 1.261 . S
C260 O273 1.251 . S
O261 C260 1.261 . S
H262 C256 0.930 . S
H263 C258 0.930 . S
N264 Cu253 1.985 . S
N264 C266 1.335 . S
N264 C267 1.390 . S
N265 C266 1.345 . S
N265 C268 1.336 . S
C266 N264 1.335 . S
C266 N265 1.345 . S
C266 H271 0.930 . S
C267 N264 1.390 . S
C267 C268 1.346 . S
C267 H272 0.930 . S
C268 N265 1.336 . S
C268 C267 1.346 . S
C268 H275 0.929 . S
C269 O259 1.282 . S
C269 O270 1.216 . S
O270 C269 1.216 . S
H271 C266 0.930 . S
H272 C267 0.930 . S
O273 Cu253 1.959 . S
O273 C260 1.251 . S
H274 C257 0.930 . S
H275 C268 0.929 . S
Dy276 O280 2.398 . S
Dy276 O281 2.491 . S
Dy276 O282 2.403 . S
Dy276 O283 2.664 . S
Dy276 O287 2.326 . S
Dy276 O291 2.310 . S
Dy276 O292 2.351 . S
C277 O288 1.185 . S
C277 O289 1.355 . S
C278 O280 1.185 . S
C278 O281 1.355 . S
Dy279 O283 2.310 . S
Dy279 O286 2.351 . S
Dy279 O288 2.398 . S
Dy279 O289 2.491 . S
Dy279 O290 2.403 . S
Dy279 O291 2.664 . S
Dy279 O293 2.326 . S
O280 Dy276 2.398 . S
O280 C278 1.185 . S
O281 Dy276 2.491 . S
O281 C278 1.355 . S
O282 Dy276 2.403 . S
O282 C284 1.254 . S
O283 Dy276 2.664 . S
O283 Dy279 2.310 . S
O283 C284 1.268 . S
C284 O282 1.254 . S
C284 O283 1.268 . S
C285 O290 1.254 . S
C285 O291 1.268 . S
O286 Dy279 2.351 . S
O286 C294 1.249 . S
O287 Dy276 2.326 . S
O287 C294 1.267 . S
O288 C277 1.185 . S
O288 Dy279 2.398 . S
O289 C277 1.355 . S
O289 Dy279 2.491 . S
O290 Dy279 2.403 . S
O290 C285 1.254 . S
O291 Dy276 2.310 . S
O291 Dy279 2.664 . S
O291 C285 1.268 . S
O292 Dy276 2.351 . S
O292 C295 1.249 . S
O293 Dy279 2.326 . S
O293 C295 1.267 . S
C294 O286 1.249 . S
C294 O287 1.267 . S
C295 O292 1.249 . S
C295 O293 1.267 . S
Dy296 O300 2.398 . S
Dy296 O301 2.491 . S
Dy296 O302 2.403 . S
Dy296 O303 2.664 . S
Dy296 O307 2.326 . S
Dy296 O311 2.310 . S
Dy296 O312 2.351 . S
C297 O308 1.185 . S
C297 O309 1.355 . S
C298 O300 1.185 . S
C298 O301 1.355 . S
Dy299 O303 2.310 . S
Dy299 O306 2.351 . S
Dy299 O308 2.398 . S
Dy299 O309 2.491 . S
Dy299 O310 2.403 . S
Dy299 O311 2.664 . S
Dy299 O313 2.326 . S
O300 Dy296 2.398 . S
O300 C298 1.185 . S
O301 Dy296 2.491 . S
O301 C298 1.355 . S
O302 Dy296 2.403 . S
O302 C304 1.254 . S
O303 Dy296 2.664 . S
O303 Dy299 2.310 . S
O303 C304 1.268 . S
C304 O302 1.254 . S
C304 O303 1.268 . S
C305 O310 1.254 . S
C305 O311 1.268 . S
O306 Dy299 2.351 . S
O306 C314 1.249 . S
O307 Dy296 2.326 . S
O307 C314 1.267 . S
O308 C297 1.185 . S
O308 Dy299 2.398 . S
O309 C297 1.355 . S
O309 Dy299 2.491 . S
O310 Dy299 2.403 . S
O310 C305 1.254 . S
O311 Dy296 2.310 . S
O311 Dy299 2.664 . S
O311 C305 1.268 . S
O312 Dy296 2.351 . S
O312 C315 1.249 . S
O313 Dy299 2.326 . S
O313 C315 1.267 . S
C314 O306 1.249 . S
C314 O307 1.267 . S
C315 O312 1.249 . S
C315 O313 1.267 . S
Dy316 O320 2.398 . S
Dy316 O321 2.491 . S
Dy316 O322 2.403 . S
Dy316 O323 2.664 . S
Dy316 O327 2.326 . S
Dy316 O331 2.310 . S
Dy316 O332 2.351 . S
C317 O328 1.185 . S
C317 O329 1.355 . S
C318 O320 1.185 . S
C318 O321 1.355 . S
Dy319 O323 2.310 . S
Dy319 O326 2.351 . S
Dy319 O328 2.398 . S
Dy319 O329 2.491 . S
Dy319 O330 2.403 . S
Dy319 O331 2.664 . S
Dy319 O333 2.326 . S
O320 Dy316 2.398 . S
O320 C318 1.185 . S
O321 Dy316 2.491 . S
O321 C318 1.355 . S
O322 Dy316 2.403 . S
O322 C324 1.254 . S
O323 Dy316 2.664 . S
O323 Dy319 2.310 . S
O323 C324 1.268 . S
C324 O322 1.254 . S
C324 O323 1.268 . S
C325 O330 1.254 . S
C325 O331 1.268 . S
O326 Dy319 2.351 . S
O326 C334 1.249 . S
O327 Dy316 2.326 . S
O327 C334 1.267 . S
O328 C317 1.185 . S
O328 Dy319 2.398 . S
O329 C317 1.355 . S
O329 Dy319 2.491 . S
O330 Dy319 2.403 . S
O330 C325 1.254 . S
O331 Dy316 2.310 . S
O331 Dy319 2.664 . S
O331 C325 1.268 . S
O332 Dy316 2.351 . S
O332 C335 1.249 . S
O333 Dy319 2.326 . S
O333 C335 1.267 . S
C334 O326 1.249 . S
C334 O327 1.267 . S
C335 O332 1.249 . S
C335 O333 1.267 . S
Dy336 O340 2.398 . S
Dy336 O341 2.491 . S
Dy336 O342 2.403 . S
Dy336 O343 2.664 . S
Dy336 O347 2.326 . S
Dy336 O351 2.310 . S
Dy336 O352 2.351 . S
C337 O348 1.185 . S
C337 O349 1.355 . S
C338 O340 1.185 . S
C338 O341 1.355 . S
Dy339 O343 2.310 . S
Dy339 O346 2.351 . S
Dy339 O348 2.398 . S
Dy339 O349 2.491 . S
Dy339 O350 2.403 . S
Dy339 O351 2.664 . S
Dy339 O353 2.326 . S
O340 Dy336 2.398 . S
O340 C338 1.185 . S
O341 Dy336 2.491 . S
O341 C338 1.355 . S
O342 Dy336 2.403 . S
O342 C344 1.254 . S
O343 Dy336 2.664 . S
O343 Dy339 2.310 . S
O343 C344 1.268 . S
C344 O342 1.254 . S
C344 O343 1.268 . S
C345 O350 1.254 . S
C345 O351 1.268 . S
O346 Dy339 2.351 . S
O346 C354 1.249 . S
O347 Dy336 2.326 . S
O347 C354 1.267 . S
O348 C337 1.185 . S
O348 Dy339 2.398 . S
O349 C337 1.355 . S
O349 Dy339 2.491 . S
O350 Dy339 2.403 . S
O350 C345 1.254 . S
O351 Dy336 2.310 . S
O351 Dy339 2.664 . S
O351 C345 1.268 . S
O352 Dy336 2.351 . S
O352 C355 1.249 . S
O353 Dy339 2.326 . S
O353 C355 1.267 . S
C354 O346 1.249 . S
C354 O347 1.267 . S
C355 O352 1.249 . S
C355 O353 1.267 . S
Dy356 O360 2.398 . S
Dy356 O361 2.491 . S
Dy356 O362 2.403 . S
Dy356 O363 2.664 . S
Dy356 O367 2.326 . S
Dy356 O371 2.310 . S
Dy356 O372 2.351 . S
C357 O368 1.185 . S
C357 O369 1.355 . S
C358 O360 1.185 . S
C358 O361 1.355 . S
Dy359 O363 2.310 . S
Dy359 O366 2.351 . S
Dy359 O368 2.398 . S
Dy359 O369 2.491 . S
Dy359 O370 2.403 . S
Dy359 O371 2.664 . S
Dy359 O373 2.326 . S
O360 Dy356 2.398 . S
O360 C358 1.185 . S
O361 Dy356 2.491 . S
O361 C358 1.355 . S
O362 Dy356 2.403 . S
O362 C364 1.254 . S
O363 Dy356 2.664 . S
O363 Dy359 2.310 . S
O363 C364 1.268 . S
C364 O362 1.254 . S
C364 O363 1.268 . S
C365 O370 1.254 . S
C365 O371 1.268 . S
O366 Dy359 2.351 . S
O366 C374 1.249 . S
O367 Dy356 2.326 . S
O367 C374 1.267 . S
O368 C357 1.185 . S
O368 Dy359 2.398 . S
O369 C357 1.355 . S
O369 Dy359 2.491 . S
O370 Dy359 2.403 . S
O370 C365 1.254 . S
O371 Dy356 2.310 . S
O371 Dy359 2.664 . S
O371 C365 1.268 . S
O372 Dy356 2.351 . S
O372 C375 1.249 . S
O373 Dy359 2.326 . S
O373 C375 1.267 . S
C374 O366 1.249 . S
C374 O367 1.267 . S
C375 O372 1.249 . S
C375 O373 1.267 . S
Dy376 O380 2.398 . S
Dy376 O381 2.491 . S
Dy376 O382 2.403 . S
Dy376 O383 2.664 . S
Dy376 O387 2.326 . S
Dy376 O391 2.310 . S
Dy376 O392 2.351 . S
C377 O388 1.185 . S
C377 O389 1.355 . S
C378 O380 1.185 . S
C378 O381 1.355 . S
Dy379 O383 2.310 . S
Dy379 O386 2.351 . S
Dy379 O388 2.398 . S
Dy379 O389 2.491 . S
Dy379 O390 2.403 . S
Dy379 O391 2.664 . S
Dy379 O393 2.326 . S
O380 Dy376 2.398 . S
O380 C378 1.185 . S
O381 Dy376 2.491 . S
O381 C378 1.355 . S
O382 Dy376 2.403 . S
O382 C384 1.254 . S
O383 Dy376 2.664 . S
O383 Dy379 2.310 . S
O383 C384 1.268 . S
C384 O382 1.254 . S
C384 O383 1.268 . S
C385 O390 1.254 . S
C385 O391 1.268 . S
O386 Dy379 2.351 . S
O386 C394 1.249 . S
O387 Dy376 2.326 . S
O387 C394 1.267 . S
O388 C377 1.185 . S
O388 Dy379 2.398 . S
O389 C377 1.355 . S
O389 Dy379 2.491 . S
O390 Dy379 2.403 . S
O390 C385 1.254 . S
O391 Dy376 2.310 . S
O391 Dy379 2.664 . S
O391 C385 1.268 . S
O392 Dy376 2.351 . S
O392 C395 1.249 . S
O393 Dy379 2.326 . S
O393 C395 1.267 . S
C394 O386 1.249 . S
C394 O387 1.267 . S
C395 O392 1.249 . S
C395 O393 1.267 . S
Dy396 O400 2.398 . S
Dy396 O401 2.491 . S
Dy396 O402 2.403 . S
Dy396 O403 2.664 . S
Dy396 O407 2.326 . S
Dy396 O411 2.310 . S
Dy396 O412 2.351 . S
C397 O408 1.185 . S
C397 O409 1.355 . S
C398 O400 1.185 . S
C398 O401 1.355 . S
Dy399 O403 2.310 . S
Dy399 O406 2.351 . S
Dy399 O408 2.398 . S
Dy399 O409 2.491 . S
Dy399 O410 2.403 . S
Dy399 O411 2.664 . S
Dy399 O413 2.326 . S
O400 Dy396 2.398 . S
O400 C398 1.185 . S
O401 Dy396 2.491 . S
O401 C398 1.355 . S
O402 Dy396 2.403 . S
O402 C404 1.254 . S
O403 Dy396 2.664 . S
O403 Dy399 2.310 . S
O403 C404 1.268 . S
C404 O402 1.254 . S
C404 O403 1.268 . S
C405 O410 1.254 . S
C405 O411 1.268 . S
O406 Dy399 2.351 . S
O406 C414 1.249 . S
O407 Dy396 2.326 . S
O407 C414 1.267 . S
O408 C397 1.185 . S
O408 Dy399 2.398 . S
O409 C397 1.355 . S
O409 Dy399 2.491 . S
O410 Dy399 2.403 . S
O410 C405 1.254 . S
O411 Dy396 2.310 . S
O411 Dy399 2.664 . S
O411 C405 1.268 . S
O412 Dy396 2.351 . S
O412 C415 1.249 . S
O413 Dy399 2.326 . S
O413 C415 1.267 . S
C414 O406 1.249 . S
C414 O407 1.267 . S
C415 O412 1.249 . S
C415 O413 1.267 . S
Dy416 O420 2.398 . S
Dy416 O421 2.491 . S
Dy416 O422 2.403 . S
Dy416 O423 2.664 . S
Dy416 O427 2.326 . S
Dy416 O431 2.310 . S
Dy416 O432 2.351 . S
C417 O428 1.185 . S
C417 O429 1.355 . S
C418 O420 1.185 . S
C418 O421 1.355 . S
Dy419 O423 2.310 . S
Dy419 O426 2.351 . S
Dy419 O428 2.398 . S
Dy419 O429 2.491 . S
Dy419 O430 2.403 . S
Dy419 O431 2.664 . S
Dy419 O433 2.326 . S
O420 Dy416 2.398 . S
O420 C418 1.185 . S
O421 Dy416 2.491 . S
O421 C418 1.355 . S
O422 Dy416 2.403 . S
O422 C424 1.254 . S
O423 Dy416 2.664 . S
O423 Dy419 2.310 . S
O423 C424 1.268 . S
C424 O422 1.254 . S
C424 O423 1.268 . S
C425 O430 1.254 . S
C425 O431 1.268 . S
O426 Dy419 2.351 . S
O426 C434 1.249 . S
O427 Dy416 2.326 . S
O427 C434 1.267 . S
O428 C417 1.185 . S
O428 Dy419 2.398 . S
O429 C417 1.355 . S
O429 Dy419 2.491 . S
O430 Dy419 2.403 . S
O430 C425 1.254 . S
O431 Dy416 2.310 . S
O431 Dy419 2.664 . S
O431 C425 1.268 . S
O432 Dy416 2.351 . S
O432 C435 1.249 . S
O433 Dy419 2.326 . S
O433 C435 1.267 . S
C434 O426 1.249 . S
C434 O427 1.267 . S
C435 O432 1.249 . S
C435 O433 1.267 . S
H436 C454 0.951 . S
H437 C456 0.951 . S
H438 C458 0.950 . S
H439 C459 0.950 . S
H440 C461 0.950 . S
H441 C464 0.950 . S
H442 C465 0.950 . S
H443 C467 0.950 . S
H444 C468 0.950 . S
H445 C469 0.951 . S
H446 C471 0.951 . S
H447 C473 0.950 . S
H448 C474 0.950 . S
H449 C476 0.950 . S
H450 C479 0.950 . S
H451 C480 0.950 . S
H452 C482 0.950 . S
H453 C483 0.950 . S
C454 H436 0.951 . S
C454 C455 1.366 . S
C454 C456 1.388 . S
C455 C454 1.366 . S
C455 C459 1.385 . S
C456 H437 0.951 . S
C456 C454 1.388 . S
C456 C457 1.366 . S
C457 C456 1.366 . S
C457 C458 1.414 . S
C457 C460 1.499 . S
C458 H438 0.950 . S
C458 C457 1.414 . S
C458 C459 1.374 . S
C459 H439 0.950 . S
C459 C455 1.385 . S
C459 C458 1.374 . S
C460 C457 1.499 . S
C460 C461 1.373 . S
C460 C462 1.389 . S
C461 H440 0.950 . S
C461 C460 1.373 . S
C461 C477 1.377 . S
C462 C460 1.389 . S
C462 C463 1.524 . S
C462 C476 1.377 . S
C463 C462 1.524 . S
C463 C464 1.397 . S
C463 C468 1.363 . S
C464 H441 0.950 . S
C464 C463 1.397 . S
C464 C465 1.334 . S
C465 H442 0.950 . S
C465 C464 1.334 . S
C465 C466 1.287 . S
C466 C465 1.287 . S
C466 C467 1.524 . S
C466 H485 0.913 . S
C467 H443 0.950 . S
C467 C466 1.524 . S
C467 C468 1.415 . S
C468 H444 0.950 . S
C468 C463 1.363 . S
C468 C467 1.415 . S
C469 H445 0.951 . S
C469 C470 1.366 . S
C469 C471 1.388 . S
C470 C469 1.366 . S
C470 C474 1.385 . S
C471 H446 0.951 . S
C471 C469 1.388 . S
C471 C472 1.366 . S
C472 C471 1.366 . S
C472 C473 1.414 . S
C472 C475 1.499 . S
C473 H447 0.950 . S
C473 C472 1.414 . S
C473 C474 1.374 . S
C474 H448 0.950 . S
C474 C470 1.385 . S
C474 C473 1.374 . S
C475 C472 1.499 . S
C475 C476 1.373 . S
C475 C477 1.389 . S
C476 H449 0.950 . S
C476 C462 1.377 . S
C476 C475 1.373 . S
C477 C461 1.377 . S
C477 C475 1.389 . S
C477 C478 1.524 . S
C478 C477 1.524 . S
C478 C479 1.397 . S
C478 C483 1.363 . S
C479 H450 0.950 . S
C479 C478 1.397 . S
C479 C480 1.334 . S
C480 H451 0.950 . S
C480 C479 1.334 . S
C480 C481 1.287 . S
C481 C480 1.287 . S
C481 C482 1.524 . S
C481 H484 0.999 . S
C482 H452 0.950 . S
C482 C481 1.524 . S
C482 C483 1.415 . S
C483 H453 0.950 . S
C483 C478 1.363 . S
C483 C482 1.415 . S
H484 C481 0.999 . S
H485 C466 0.913 . S
H486 C504 0.951 . S
H487 C506 0.951 . S
H488 C508 0.950 . S
H489 C509 0.950 . S
H490 C511 0.950 . S
H491 C514 0.950 . S
H492 C515 0.950 . S
H493 C517 0.950 . S
H494 C518 0.950 . S
H495 C519 0.951 . S
H496 C521 0.951 . S
H497 C523 0.950 . S
H498 C524 0.950 . S
H499 C526 0.950 . S
H500 C529 0.950 . S
H501 C530 0.950 . S
H502 C532 0.950 . S
H503 C533 0.950 . S
C504 H486 0.951 . S
C504 C505 1.366 . S
C504 C506 1.388 . S
C505 C504 1.366 . S
C505 C509 1.385 . S
C506 H487 0.951 . S
C506 C504 1.388 . S
C506 C507 1.366 . S
C507 C506 1.366 . S
C507 C508 1.414 . S
C507 C510 1.499 . S
C508 H488 0.950 . S
C508 C507 1.414 . S
C508 C509 1.374 . S
C509 H489 0.950 . S
C509 C505 1.385 . S
C509 C508 1.374 . S
C510 C507 1.499 . S
C510 C511 1.373 . S
C510 C512 1.389 . S
C511 H490 0.950 . S
C511 C510 1.373 . S
C511 C527 1.377 . S
C512 C510 1.389 . S
C512 C513 1.524 . S
C512 C526 1.377 . S
C513 C512 1.524 . S
C513 C514 1.397 . S
C513 C518 1.363 . S
C514 H491 0.950 . S
C514 C513 1.397 . S
C514 C515 1.334 . S
C515 H492 0.950 . S
C515 C514 1.334 . S
C515 C516 1.287 . S
C516 C515 1.287 . S
C516 C517 1.524 . S
C516 H535 0.913 . S
C517 H493 0.950 . S
C517 C516 1.524 . S
C517 C518 1.415 . S
C518 H494 0.950 . S
C518 C513 1.363 . S
C518 C517 1.415 . S
C519 H495 0.951 . S
C519 C520 1.366 . S
C519 C521 1.388 . S
C520 C519 1.366 . S
C520 C524 1.385 . S
C521 H496 0.951 . S
C521 C519 1.388 . S
C521 C522 1.366 . S
C522 C521 1.366 . S
C522 C523 1.414 . S
C522 C525 1.499 . S
C523 H497 0.950 . S
C523 C522 1.414 . S
C523 C524 1.374 . S
C524 H498 0.950 . S
C524 C520 1.385 . S
C524 C523 1.374 . S
C525 C522 1.499 . S
C525 C526 1.373 . S
C525 C527 1.389 . S
C526 H499 0.950 . S
C526 C512 1.377 . S
C526 C525 1.373 . S
C527 C511 1.377 . S
C527 C525 1.389 . S
C527 C528 1.524 . S
C528 C527 1.524 . S
C528 C529 1.397 . S
C528 C533 1.363 . S
C529 H500 0.950 . S
C529 C528 1.397 . S
C529 C530 1.334 . S
C530 H501 0.950 . S
C530 C529 1.334 . S
C530 C531 1.287 . S
C531 C530 1.287 . S
C531 C532 1.524 . S
C531 H534 0.999 . S
C532 H502 0.950 . S
C532 C531 1.524 . S
C532 C533 1.415 . S
C533 H503 0.950 . S
C533 C528 1.363 . S
C533 C532 1.415 . S
H534 C531 0.999 . S
H535 C516 0.913 . S
H536 C554 0.951 . S
H537 C556 0.951 . S
H538 C558 0.950 . S
H539 C559 0.950 . S
H540 C561 0.950 . S
H541 C564 0.950 . S
H542 C565 0.950 . S
H543 C567 0.950 . S
H544 C568 0.950 . S
H545 C569 0.951 . S
H546 C571 0.951 . S
H547 C573 0.950 . S
H548 C574 0.950 . S
H549 C576 0.950 . S
H550 C579 0.950 . S
H551 C580 0.950 . S
H552 C582 0.950 . S
H553 C583 0.950 . S
C554 H536 0.951 . S
C554 C555 1.366 . S
C554 C556 1.388 . S
C555 C554 1.366 . S
C555 C559 1.385 . S
C556 H537 0.951 . S
C556 C554 1.388 . S
C556 C557 1.366 . S
C557 C556 1.366 . S
C557 C558 1.414 . S
C557 C560 1.499 . S
C558 H538 0.950 . S
C558 C557 1.414 . S
C558 C559 1.374 . S
C559 H539 0.950 . S
C559 C555 1.385 . S
C559 C558 1.374 . S
C560 C557 1.499 . S
C560 C561 1.373 . S
C560 C562 1.389 . S
C561 H540 0.950 . S
C561 C560 1.373 . S
C561 C577 1.377 . S
C562 C560 1.389 . S
C562 C563 1.524 . S
C562 C576 1.377 . S
C563 C562 1.524 . S
C563 C564 1.397 . S
C563 C568 1.363 . S
C564 H541 0.950 . S
C564 C563 1.397 . S
C564 C565 1.334 . S
C565 H542 0.950 . S
C565 C564 1.334 . S
C565 C566 1.287 . S
C566 C565 1.287 . S
C566 C567 1.524 . S
C566 H585 0.913 . S
C567 H543 0.950 . S
C567 C566 1.524 . S
C567 C568 1.415 . S
C568 H544 0.950 . S
C568 C563 1.363 . S
C568 C567 1.415 . S
C569 H545 0.951 . S
C569 C570 1.366 . S
C569 C571 1.388 . S
C570 C569 1.366 . S
C570 C574 1.385 . S
C571 H546 0.951 . S
C571 C569 1.388 . S
C571 C572 1.366 . S
C572 C571 1.366 . S
C572 C573 1.414 . S
C572 C575 1.499 . S
C573 H547 0.950 . S
C573 C572 1.414 . S
C573 C574 1.374 . S
C574 H548 0.950 . S
C574 C570 1.385 . S
C574 C573 1.374 . S
C575 C572 1.499 . S
C575 C576 1.373 . S
C575 C577 1.389 . S
C576 H549 0.950 . S
C576 C562 1.377 . S
C576 C575 1.373 . S
C577 C561 1.377 . S
C577 C575 1.389 . S
C577 C578 1.524 . S
C578 C577 1.524 . S
C578 C579 1.397 . S
C578 C583 1.363 . S
C579 H550 0.950 . S
C579 C578 1.397 . S
C579 C580 1.334 . S
C580 H551 0.950 . S
C580 C579 1.334 . S
C580 C581 1.287 . S
C581 C580 1.287 . S
C581 C582 1.524 . S
C581 H584 0.999 . S
C582 H552 0.950 . S
C582 C581 1.524 . S
C582 C583 1.415 . S
C583 H553 0.950 . S
C583 C578 1.363 . S
C583 C582 1.415 . S
H584 C581 0.999 . S
H585 C566 0.913 . S
H586 C604 0.951 . S
H587 C606 0.951 . S
H588 C608 0.950 . S
H589 C609 0.950 . S
H590 C611 0.950 . S
H591 C614 0.950 . S
H592 C615 0.950 . S
H593 C617 0.950 . S
H594 C618 0.950 . S
H595 C619 0.951 . S
H596 C621 0.951 . S
H597 C623 0.950 . S
H598 C624 0.950 . S
H599 C626 0.950 . S
H600 C629 0.950 . S
H601 C630 0.950 . S
H602 C632 0.950 . S
H603 C633 0.950 . S
C604 H586 0.951 . S
C604 C605 1.366 . S
C604 C606 1.388 . S
C605 C604 1.366 . S
C605 C609 1.385 . S
C606 H587 0.951 . S
C606 C604 1.388 . S
C606 C607 1.366 . S
C607 C606 1.366 . S
C607 C608 1.414 . S
C607 C610 1.499 . S
C608 H588 0.950 . S
C608 C607 1.414 . S
C608 C609 1.374 . S
C609 H589 0.950 . S
C609 C605 1.385 . S
C609 C608 1.374 . S
C610 C607 1.499 . S
C610 C611 1.373 . S
C610 C612 1.389 . S
C611 H590 0.950 . S
C611 C610 1.373 . S
C611 C627 1.377 . S
C612 C610 1.389 . S
C612 C613 1.524 . S
C612 C626 1.377 . S
C613 C612 1.524 . S
C613 C614 1.397 . S
C613 C618 1.363 . S
C614 H591 0.950 . S
C614 C613 1.397 . S
C614 C615 1.334 . S
C615 H592 0.950 . S
C615 C614 1.334 . S
C615 C616 1.287 . S
C616 C615 1.287 . S
C616 C617 1.524 . S
C616 H635 0.913 . S
C617 H593 0.950 . S
C617 C616 1.524 . S
C617 C618 1.415 . S
C618 H594 0.950 . S
C618 C613 1.363 . S
C618 C617 1.415 . S
C619 H595 0.951 . S
C619 C620 1.366 . S
C619 C621 1.388 . S
C620 C619 1.366 . S
C620 C624 1.385 . S
C621 H596 0.951 . S
C621 C619 1.388 . S
C621 C622 1.366 . S
C622 C621 1.366 . S
C622 C623 1.414 . S
C622 C625 1.499 . S
C623 H597 0.950 . S
C623 C622 1.414 . S
C623 C624 1.374 . S
C624 H598 0.950 . S
C624 C620 1.385 . S
C624 C623 1.374 . S
C625 C622 1.499 . S
C625 C626 1.373 . S
C625 C627 1.389 . S
C626 H599 0.950 . S
C626 C612 1.377 . S
C626 C625 1.373 . S
C627 C611 1.377 . S
C627 C625 1.389 . S
C627 C628 1.524 . S
C628 C627 1.524 . S
C628 C629 1.397 . S
C628 C633 1.363 . S
C629 H600 0.950 . S
C629 C628 1.397 . S
C629 C630 1.334 . S
C630 H601 0.950 . S
C630 C629 1.334 . S
C630 C631 1.287 . S
C631 C630 1.287 . S
C631 C632 1.524 . S
C631 H634 0.999 . S
C632 H602 0.950 . S
C632 C631 1.524 . S
C632 C633 1.415 . S
C633 H603 0.950 . S
C633 C628 1.363 . S
C633 C632 1.415 . S
H634 C631 0.999 . S
H635 C616 0.913 . S
H636 C654 0.951 . S
H637 C656 0.951 . S
H638 C658 0.950 . S
H639 C659 0.950 . S
H640 C661 0.950 . S
H641 C664 0.950 . S
H642 C665 0.950 . S
H643 C667 0.950 . S
H644 C668 0.950 . S
H645 C669 0.951 . S
H646 C671 0.951 . S
H647 C673 0.950 . S
H648 C674 0.950 . S
H649 C676 0.950 . S
H650 C679 0.950 . S
H651 C680 0.950 . S
H652 C682 0.950 . S
H653 C683 0.950 . S
C654 H636 0.951 . S
C654 C655 1.366 . S
C654 C656 1.388 . S
C655 C654 1.366 . S
C655 C659 1.385 . S
C656 H637 0.951 . S
C656 C654 1.388 . S
C656 C657 1.366 . S
C657 C656 1.366 . S
C657 C658 1.414 . S
C657 C660 1.499 . S
C658 H638 0.950 . S
C658 C657 1.414 . S
C658 C659 1.374 . S
C659 H639 0.950 . S
C659 C655 1.385 . S
C659 C658 1.374 . S
C660 C657 1.499 . S
C660 C661 1.373 . S
C660 C662 1.389 . S
C661 H640 0.950 . S
C661 C660 1.373 . S
C661 C677 1.377 . S
C662 C660 1.389 . S
C662 C663 1.524 . S
C662 C676 1.377 . S
C663 C662 1.524 . S
C663 C664 1.397 . S
C663 C668 1.363 . S
C664 H641 0.950 . S
C664 C663 1.397 . S
C664 C665 1.334 . S
C665 H642 0.950 . S
C665 C664 1.334 . S
C665 C666 1.287 . S
C666 C665 1.287 . S
C666 C667 1.524 . S
C666 H685 0.913 . S
C667 H643 0.950 . S
C667 C666 1.524 . S
C667 C668 1.415 . S
C668 H644 0.950 . S
C668 C663 1.363 . S
C668 C667 1.415 . S
C669 H645 0.951 . S
C669 C670 1.366 . S
C669 C671 1.388 . S
C670 C669 1.366 . S
C670 C674 1.385 . S
C671 H646 0.951 . S
C671 C669 1.388 . S
C671 C672 1.366 . S
C672 C671 1.366 . S
C672 C673 1.414 . S
C672 C675 1.499 . S
C673 H647 0.950 . S
C673 C672 1.414 . S
C673 C674 1.374 . S
C674 H648 0.950 . S
C674 C670 1.385 . S
C674 C673 1.374 . S
C675 C672 1.499 . S
C675 C676 1.373 . S
C675 C677 1.389 . S
C676 H649 0.950 . S
C676 C662 1.377 . S
C676 C675 1.373 . S
C677 C661 1.377 . S
C677 C675 1.389 . S
C677 C678 1.524 . S
C678 C677 1.524 . S
C678 C679 1.397 . S
C678 C683 1.363 . S
C679 H650 0.950 . S
C679 C678 1.397 . S
C679 C680 1.334 . S
C680 H651 0.950 . S
C680 C679 1.334 . S
C680 C681 1.287 . S
C681 C680 1.287 . S
C681 C682 1.524 . S
C681 H684 0.999 . S
C682 H652 0.950 . S
C682 C681 1.524 . S
C682 C683 1.415 . S
C683 H653 0.950 . S
C683 C678 1.363 . S
C683 C682 1.415 . S
H684 C681 0.999 . S
H685 C666 0.913 . S
H686 C704 0.951 . S
H687 C706 0.951 . S
H688 C708 0.950 . S
H689 C709 0.950 . S
H690 C711 0.950 . S
H691 C714 0.950 . S
H692 C715 0.950 . S
H693 C717 0.950 . S
H694 C718 0.950 . S
H695 C719 0.951 . S
H696 C721 0.951 . S
H697 C723 0.950 . S
H698 C724 0.950 . S
H699 C726 0.950 . S
H700 C729 0.950 . S
H701 C730 0.950 . S
H702 C732 0.950 . S
H703 C733 0.950 . S
C704 H686 0.951 . S
C704 C705 1.366 . S
C704 C706 1.388 . S
C705 C704 1.366 . S
C705 C709 1.385 . S
C706 H687 0.951 . S
C706 C704 1.388 . S
C706 C707 1.366 . S
C707 C706 1.366 . S
C707 C708 1.414 . S
C707 C710 1.499 . S
C708 H688 0.950 . S
C708 C707 1.414 . S
C708 C709 1.374 . S
C709 H689 0.950 . S
C709 C705 1.385 . S
C709 C708 1.374 . S
C710 C707 1.499 . S
C710 C711 1.373 . S
C710 C712 1.389 . S
C711 H690 0.950 . S
C711 C710 1.373 . S
C711 C727 1.377 . S
C712 C710 1.389 . S
C712 C713 1.524 . S
C712 C726 1.377 . S
C713 C712 1.524 . S
C713 C714 1.397 . S
C713 C718 1.363 . S
C714 H691 0.950 . S
C714 C713 1.397 . S
C714 C715 1.334 . S
C715 H692 0.950 . S
C715 C714 1.334 . S
C715 C716 1.287 . S
C716 C715 1.287 . S
C716 C717 1.524 . S
C716 H735 0.913 . S
C717 H693 0.950 . S
C717 C716 1.524 . S
C717 C718 1.415 . S
C718 H694 0.950 . S
C718 C713 1.363 . S
C718 C717 1.415 . S
C719 H695 0.951 . S
C719 C720 1.366 . S
C719 C721 1.388 . S
C720 C719 1.366 . S
C720 C724 1.385 . S
C721 H696 0.951 . S
C721 C719 1.388 . S
C721 C722 1.366 . S
C722 C721 1.366 . S
C722 C723 1.414 . S
C722 C725 1.499 . S
C723 H697 0.950 . S
C723 C722 1.414 . S
C723 C724 1.374 . S
C724 H698 0.950 . S
C724 C720 1.385 . S
C724 C723 1.374 . S
C725 C722 1.499 . S
C725 C726 1.373 . S
C725 C727 1.389 . S
C726 H699 0.950 . S
C726 C712 1.377 . S
C726 C725 1.373 . S
C727 C711 1.377 . S
C727 C725 1.389 . S
C727 C728 1.524 . S
C728 C727 1.524 . S
C728 C729 1.397 . S
C728 C733 1.363 . S
C729 H700 0.950 . S
C729 C728 1.397 . S
C729 C730 1.334 . S
C730 H701 0.950 . S
C730 C729 1.334 . S
C730 C731 1.287 . S
C731 C730 1.287 . S
C731 C732 1.524 . S
C731 H734 0.999 . S
C732 H702 0.950 . S
C732 C731 1.524 . S
C732 C733 1.415 . S
C733 H703 0.950 . S
C733 C728 1.363 . S
C733 C732 1.415 . S
H734 C731 0.999 . S
H735 C716 0.913 . S
H736 C754 0.951 . S
H737 C756 0.951 . S
H738 C758 0.950 . S
H739 C759 0.950 . S
H740 C761 0.950 . S
H741 C764 0.950 . S
H742 C765 0.950 . S
H743 C767 0.950 . S
H744 C768 0.950 . S
H745 C769 0.951 . S
H746 C771 0.951 . S
H747 C773 0.950 . S
H748 C774 0.950 . S
H749 C776 0.950 . S
H750 C779 0.950 . S
H751 C780 0.950 . S
H752 C782 0.950 . S
H753 C783 0.950 . S
C754 H736 0.951 . S
C754 C755 1.366 . S
C754 C756 1.388 . S
C755 C754 1.366 . S
C755 C759 1.385 . S
C756 H737 0.951 . S
C756 C754 1.388 . S
C756 C757 1.366 . S
C757 C756 1.366 . S
C757 C758 1.414 . S
C757 C760 1.499 . S
C758 H738 0.950 . S
C758 C757 1.414 . S
C758 C759 1.374 . S
C759 H739 0.950 . S
C759 C755 1.385 . S
C759 C758 1.374 . S
C760 C757 1.499 . S
C760 C761 1.373 . S
C760 C762 1.389 . S
C761 H740 0.950 . S
C761 C760 1.373 . S
C761 C777 1.377 . S
C762 C760 1.389 . S
C762 C763 1.524 . S
C762 C776 1.377 . S
C763 C762 1.524 . S
C763 C764 1.397 . S
C763 C768 1.363 . S
C764 H741 0.950 . S
C764 C763 1.397 . S
C764 C765 1.334 . S
C765 H742 0.950 . S
C765 C764 1.334 . S
C765 C766 1.287 . S
C766 C765 1.287 . S
C766 C767 1.524 . S
C766 H785 0.913 . S
C767 H743 0.950 . S
C767 C766 1.524 . S
C767 C768 1.415 . S
C768 H744 0.950 . S
C768 C763 1.363 . S
C768 C767 1.415 . S
C769 H745 0.951 . S
C769 C770 1.366 . S
C769 C771 1.388 . S
C770 C769 1.366 . S
C770 C774 1.385 . S
C771 H746 0.951 . S
C771 C769 1.388 . S
C771 C772 1.366 . S
C772 C771 1.366 . S
C772 C773 1.414 . S
C772 C775 1.499 . S
C773 H747 0.950 . S
C773 C772 1.414 . S
C773 C774 1.374 . S
C774 H748 0.950 . S
C774 C770 1.385 . S
C774 C773 1.374 . S
C775 C772 1.499 . S
C775 C776 1.373 . S
C775 C777 1.389 . S
C776 H749 0.950 . S
C776 C762 1.377 . S
C776 C775 1.373 . S
C777 C761 1.377 . S
C777 C775 1.389 . S
C777 C778 1.524 . S
C778 C777 1.524 . S
C778 C779 1.397 . S
C778 C783 1.363 . S
C779 H750 0.950 . S
C779 C778 1.397 . S
C779 C780 1.334 . S
C780 H751 0.950 . S
C780 C779 1.334 . S
C780 C781 1.287 . S
C781 C780 1.287 . S
C781 C782 1.524 . S
C781 H784 0.999 . S
C782 H752 0.950 . S
C782 C781 1.524 . S
C782 C783 1.415 . S
C783 H753 0.950 . S
C783 C778 1.363 . S
C783 C782 1.415 . S
H784 C781 0.999 . S
H785 C766 0.913 . S
H786 C804 0.951 . S
H787 C806 0.951 . S
H788 C808 0.950 . S
H789 C809 0.950 . S
H790 C811 0.950 . S
H791 C814 0.950 . S
H792 C815 0.950 . S
H793 C817 0.950 . S
H794 C818 0.950 . S
H795 C819 0.951 . S
H796 C821 0.951 . S
H797 C823 0.950 . S
H798 C824 0.950 . S
H799 C826 0.950 . S
H800 C829 0.950 . S
H801 C830 0.950 . S
H802 C832 0.950 . S
H803 C833 0.950 . S
C804 H786 0.951 . S
C804 C805 1.366 . S
C804 C806 1.388 . S
C805 C804 1.366 . S
C805 C809 1.385 . S
C806 H787 0.951 . S
C806 C804 1.388 . S
C806 C807 1.366 . S
C807 C806 1.366 . S
C807 C808 1.414 . S
C807 C810 1.499 . S
C808 H788 0.950 . S
C808 C807 1.414 . S
C808 C809 1.374 . S
C809 H789 0.950 . S
C809 C805 1.385 . S
C809 C808 1.374 . S
C810 C807 1.499 . S
C810 C811 1.373 . S
C810 C812 1.389 . S
C811 H790 0.950 . S
C811 C810 1.373 . S
C811 C827 1.377 . S
C812 C810 1.389 . S
C812 C813 1.524 . S
C812 C826 1.377 . S
C813 C812 1.524 . S
C813 C814 1.397 . S
C813 C818 1.363 . S
C814 H791 0.950 . S
C814 C813 1.397 . S
C814 C815 1.334 . S
C815 H792 0.950 . S
C815 C814 1.334 . S
C815 C816 1.287 . S
C816 C815 1.287 . S
C816 C817 1.524 . S
C816 H835 0.913 . S
C817 H793 0.950 . S
C817 C816 1.524 . S
C817 C818 1.415 . S
C818 H794 0.950 . S
C818 C813 1.363 . S
C818 C817 1.415 . S
C819 H795 0.951 . S
C819 C820 1.366 . S
C819 C821 1.388 . S
C820 C819 1.366 . S
C820 C824 1.385 . S
C821 H796 0.951 . S
C821 C819 1.388 . S
C821 C822 1.366 . S
C822 C821 1.366 . S
C822 C823 1.414 . S
C822 C825 1.499 . S
C823 H797 0.950 . S
C823 C822 1.414 . S
C823 C824 1.374 . S
C824 H798 0.950 . S
C824 C820 1.385 . S
C824 C823 1.374 . S
C825 C822 1.499 . S
C825 C826 1.373 . S
C825 C827 1.389 . S
C826 H799 0.950 . S
C826 C812 1.377 . S
C826 C825 1.373 . S
C827 C811 1.377 . S
C827 C825 1.389 . S
C827 C828 1.524 . S
C828 C827 1.524 . S
C828 C829 1.397 . S
C828 C833 1.363 . S
C829 H800 0.950 . S
C829 C828 1.397 . S
C829 C830 1.334 . S
C830 H801 0.950 . S
C830 C829 1.334 . S
C830 C831 1.287 . S
C831 C830 1.287 . S
C831 C832 1.524 . S
C831 H834 0.999 . S
C832 H802 0.950 . S
C832 C831 1.524 . S
C832 C833 1.415 . S
C833 H803 0.950 . S
C833 C828 1.363 . S
C833 C832 1.415 . S
H834 C831 0.999 . S
H835 C816 0.913 . S
H836 C854 0.951 . S
H837 C856 0.951 . S
H838 C858 0.950 . S
H839 C859 0.950 . S
H840 C861 0.950 . S
H841 C864 0.950 . S
H842 C865 0.950 . S
H843 C867 0.950 . S
H844 C868 0.950 . S
H845 C869 0.951 . S
H846 C871 0.951 . S
H847 C873 0.950 . S
H848 C874 0.950 . S
H849 C876 0.950 . S
H850 C879 0.950 . S
H851 C880 0.950 . S
H852 C882 0.950 . S
H853 C883 0.950 . S
C854 H836 0.951 . S
C854 C855 1.366 . S
C854 C856 1.388 . S
C855 C854 1.366 . S
C855 C859 1.385 . S
C856 H837 0.951 . S
C856 C854 1.388 . S
C856 C857 1.366 . S
C857 C856 1.366 . S
C857 C858 1.414 . S
C857 C860 1.499 . S
C858 H838 0.950 . S
C858 C857 1.414 . S
C858 C859 1.374 . S
C859 H839 0.950 . S
C859 C855 1.385 . S
C859 C858 1.374 . S
C860 C857 1.499 . S
C860 C861 1.373 . S
C860 C862 1.389 . S
C861 H840 0.950 . S
C861 C860 1.373 . S
C861 C877 1.377 . S
C862 C860 1.389 . S
C862 C863 1.524 . S
C862 C876 1.377 . S
C863 C862 1.524 . S
C863 C864 1.397 . S
C863 C868 1.363 . S
C864 H841 0.950 . S
C864 C863 1.397 . S
C864 C865 1.334 . S
C865 H842 0.950 . S
C865 C864 1.334 . S
C865 C866 1.287 . S
C866 C865 1.287 . S
C866 C867 1.524 . S
C866 H885 0.913 . S
C867 H843 0.950 . S
C867 C866 1.524 . S
C867 C868 1.415 . S
C868 H844 0.950 . S
C868 C863 1.363 . S
C868 C867 1.415 . S
C869 H845 0.951 . S
C869 C870 1.366 . S
C869 C871 1.388 . S
C870 C869 1.366 . S
C870 C874 1.385 . S
C871 H846 0.951 . S
C871 C869 1.388 . S
C871 C872 1.366 . S
C872 C871 1.366 . S
C872 C873 1.414 . S
C872 C875 1.499 . S
C873 H847 0.950 . S
C873 C872 1.414 . S
C873 C874 1.374 . S
C874 H848 0.950 . S
C874 C870 1.385 . S
C874 C873 1.374 . S
C875 C872 1.499 . S
C875 C876 1.373 . S
C875 C877 1.389 . S
C876 H849 0.950 . S
C876 C862 1.377 . S
C876 C875 1.373 . S
C877 C861 1.377 . S
C877 C875 1.389 . S
C877 C878 1.524 . S
C878 C877 1.524 . S
C878 C879 1.397 . S
C878 C883 1.363 . S
C879 H850 0.950 . S
C879 C878 1.397 . S
C879 C880 1.334 . S
C880 H851 0.950 . S
C880 C879 1.334 . S
C880 C881 1.287 . S
C881 C880 1.287 . S
C881 C882 1.524 . S
C881 H884 0.999 . S
C882 H852 0.950 . S
C882 C881 1.524 . S
C882 C883 1.415 . S
C883 H853 0.950 . S
C883 C878 1.363 . S
C883 C882 1.415 . S
H884 C881 0.999 . S
H885 C866 0.913 . S
H886 C904 0.951 . S
H887 C906 0.951 . S
H888 C908 0.950 . S
H889 C909 0.950 . S
H890 C911 0.950 . S
H891 C914 0.950 . S
H892 C915 0.950 . S
H893 C917 0.950 . S
H894 C918 0.950 . S
H895 C919 0.951 . S
H896 C921 0.951 . S
H897 C923 0.950 . S
H898 C924 0.950 . S
H899 C926 0.950 . S
H900 C929 0.950 . S
H901 C930 0.950 . S
H902 C932 0.950 . S
H903 C933 0.950 . S
C904 H886 0.951 . S
C904 C905 1.366 . S
C904 C906 1.388 . S
C905 C904 1.366 . S
C905 C909 1.385 . S
C906 H887 0.951 . S
C906 C904 1.388 . S
C906 C907 1.366 . S
C907 C906 1.366 . S
C907 C908 1.414 . S
C907 C910 1.499 . S
C908 H888 0.950 . S
C908 C907 1.414 . S
C908 C909 1.374 . S
C909 H889 0.950 . S
C909 C905 1.385 . S
C909 C908 1.374 . S
C910 C907 1.499 . S
C910 C911 1.373 . S
C910 C912 1.389 . S
C911 H890 0.950 . S
C911 C910 1.373 . S
C911 C927 1.377 . S
C912 C910 1.389 . S
C912 C913 1.524 . S
C912 C926 1.377 . S
C913 C912 1.524 . S
C913 C914 1.397 . S
C913 C918 1.363 . S
C914 H891 0.950 . S
C914 C913 1.397 . S
C914 C915 1.334 . S
C915 H892 0.950 . S
C915 C914 1.334 . S
C915 C916 1.287 . S
C916 C915 1.287 . S
C916 C917 1.524 . S
C916 H935 0.913 . S
C917 H893 0.950 . S
C917 C916 1.524 . S
C917 C918 1.415 . S
C918 H894 0.950 . S
C918 C913 1.363 . S
C918 C917 1.415 . S
C919 H895 0.951 . S
C919 C920 1.366 . S
C919 C921 1.388 . S
C920 C919 1.366 . S
C920 C924 1.385 . S
C921 H896 0.951 . S
C921 C919 1.388 . S
C921 C922 1.366 . S
C922 C921 1.366 . S
C922 C923 1.414 . S
C922 C925 1.499 . S
C923 H897 0.950 . S
C923 C922 1.414 . S
C923 C924 1.374 . S
C924 H898 0.950 . S
C924 C920 1.385 . S
C924 C923 1.374 . S
C925 C922 1.499 . S
C925 C926 1.373 . S
C925 C927 1.389 . S
C926 H899 0.950 . S
C926 C912 1.377 . S
C926 C925 1.373 . S
C927 C911 1.377 . S
C927 C925 1.389 . S
C927 C928 1.524 . S
C928 C927 1.524 . S
C928 C929 1.397 . S
C928 C933 1.363 . S
C929 H900 0.950 . S
C929 C928 1.397 . S
C929 C930 1.334 . S
C930 H901 0.950 . S
C930 C929 1.334 . S
C930 C931 1.287 . S
C931 C930 1.287 . S
C931 C932 1.524 . S
C931 H934 0.999 . S
C932 H902 0.950 . S
C932 C931 1.524 . S
C932 C933 1.415 . S
C933 H903 0.950 . S
C933 C928 1.363 . S
C933 C932 1.415 . S
H934 C931 0.999 . S
H935 C916 0.913 . S
H936 C954 0.951 . S
H937 C956 0.951 . S
H938 C958 0.950 . S
H939 C959 0.950 . S
H940 C961 0.950 . S
H941 C964 0.950 . S
H942 C965 0.950 . S
H943 C967 0.950 . S
H944 C968 0.950 . S
H945 C969 0.951 . S
H946 C971 0.951 . S
H947 C973 0.950 . S
H948 C974 0.950 . S
H949 C976 0.950 . S
H950 C979 0.950 . S
H951 C980 0.950 . S
H952 C982 0.950 . S
H953 C983 0.950 . S
C954 H936 0.951 . S
C954 C955 1.366 . S
C954 C956 1.388 . S
C955 C954 1.366 . S
C955 C959 1.385 . S
C956 H937 0.951 . S
C956 C954 1.388 . S
C956 C957 1.366 . S
C957 C956 1.366 . S
C957 C958 1.414 . S
C957 C960 1.499 . S
C958 H938 0.950 . S
C958 C957 1.414 . S
C958 C959 1.374 . S
C959 H939 0.950 . S
C959 C955 1.385 . S
C959 C958 1.374 . S
C960 C957 1.499 . S
C960 C961 1.373 . S
C960 C962 1.389 . S
C961 H940 0.950 . S
C961 C960 1.373 . S
C961 C977 1.377 . S
C962 C960 1.389 . S
C962 C963 1.524 . S
C962 C976 1.377 . S
C963 C962 1.524 . S
C963 C964 1.397 . S
C963 C968 1.363 . S
C964 H941 0.950 . S
C964 C963 1.397 . S
C964 C965 1.334 . S
C965 H942 0.950 . S
C965 C964 1.334 . S
C965 C966 1.287 . S
C966 C965 1.287 . S
C966 C967 1.524 . S
C966 H985 0.913 . S
C967 H943 0.950 . S
C967 C966 1.524 . S
C967 C968 1.415 . S
C968 H944 0.950 . S
C968 C963 1.363 . S
C968 C967 1.415 . S
C969 H945 0.951 . S
C969 C970 1.366 . S
C969 C971 1.388 . S
C970 C969 1.366 . S
C970 C974 1.385 . S
C971 H946 0.951 . S
C971 C969 1.388 . S
C971 C972 1.366 . S
C972 C971 1.366 . S
C972 C973 1.414 . S
C972 C975 1.499 . S
C973 H947 0.950 . S
C973 C972 1.414 . S
C973 C974 1.374 . S
C974 H948 0.950 . S
C974 C970 1.385 . S
C974 C973 1.374 . S
C975 C972 1.499 . S
C975 C976 1.373 . S
C975 C977 1.389 . S
C976 H949 0.950 . S
C976 C962 1.377 . S
C976 C975 1.373 . S
C977 C961 1.377 . S
C977 C975 1.389 . S
C977 C978 1.524 . S
C978 C977 1.524 . S
C978 C979 1.397 . S
C978 C983 1.363 . S
C979 H950 0.950 . S
C979 C978 1.397 . S
C979 C980 1.334 . S
C980 H951 0.950 . S
C980 C979 1.334 . S
C980 C981 1.287 . S
C981 C980 1.287 . S
C981 C982 1.524 . S
C981 H984 0.999 . S
C982 H952 0.950 . S
C982 C981 1.524 . S
C982 C983 1.415 . S
C983 H953 0.950 . S
C983 C978 1.363 . S
C983 C982 1.415 . S
H984 C981 0.999 . S
H985 C966 0.913 . S
H986 C1004 0.951 . S
H987 C1006 0.951 . S
H988 C1008 0.950 . S
H989 C1009 0.950 . S
H990 C1011 0.950 . S
H991 C1014 0.950 . S
H992 C1015 0.950 . S
H993 C1017 0.950 . S
H994 C1018 0.950 . S
H995 C1019 0.951 . S
H996 C1021 0.951 . S
H997 C1023 0.950 . S
H998 C1024 0.950 . S
H999 C1026 0.950 . S
H1000 C1029 0.950 . S
H1001 C1030 0.950 . S
H1002 C1032 0.950 . S
H1003 C1033 0.950 . S
C1004 H986 0.951 . S
C1004 C1005 1.366 . S
C1004 C1006 1.388 . S
C1005 C1004 1.366 . S
C1005 C1009 1.385 . S
C1006 H987 0.951 . S
C1006 C1004 1.388 . S
C1006 C1007 1.366 . S
C1007 C1006 1.366 . S
C1007 C1008 1.414 . S
C1007 C1010 1.499 . S
C1008 H988 0.950 . S
C1008 C1007 1.414 . S
C1008 C1009 1.374 . S
C1009 H989 0.950 . S
C1009 C1005 1.385 . S
C1009 C1008 1.374 . S
C1010 C1007 1.499 . S
C1010 C1011 1.373 . S
C1010 C1012 1.389 . S
C1011 H990 0.950 . S
C1011 C1010 1.373 . S
C1011 C1027 1.377 . S
C1012 C1010 1.389 . S
C1012 C1013 1.524 . S
C1012 C1026 1.377 . S
C1013 C1012 1.524 . S
C1013 C1014 1.397 . S
C1013 C1018 1.363 . S
C1014 H991 0.950 . S
C1014 C1013 1.397 . S
C1014 C1015 1.334 . S
C1015 H992 0.950 . S
C1015 C1014 1.334 . S
C1015 C1016 1.287 . S
C1016 C1015 1.287 . S
C1016 C1017 1.524 . S
C1016 H1035 0.913 . S
C1017 H993 0.950 . S
C1017 C1016 1.524 . S
C1017 C1018 1.415 . S
C1018 H994 0.950 . S
C1018 C1013 1.363 . S
C1018 C1017 1.415 . S
C1019 H995 0.951 . S
C1019 C1020 1.366 . S
C1019 C1021 1.388 . S
C1020 C1019 1.366 . S
C1020 C1024 1.385 . S
C1021 H996 0.951 . S
C1021 C1019 1.388 . S
C1021 C1022 1.366 . S
C1022 C1021 1.366 . S
C1022 C1023 1.414 . S
C1022 C1025 1.499 . S
C1023 H997 0.950 . S
C1023 C1022 1.414 . S
C1023 C1024 1.374 . S
C1024 H998 0.950 . S
C1024 C1020 1.385 . S
C1024 C1023 1.374 . S
C1025 C1022 1.499 . S
C1025 C1026 1.373 . S
C1025 C1027 1.389 . S
C1026 H999 0.950 . S
C1026 C1012 1.377 . S
C1026 C1025 1.373 . S
C1027 C1011 1.377 . S
C1027 C1025 1.389 . S
C1027 C1028 1.524 . S
C1028 C1027 1.524 . S
C1028 C1029 1.397 . S
C1028 C1033 1.363 . S
C1029 H1000 0.950 . S
C1029 C1028 1.397 . S
C1029 C1030 1.334 . S
C1030 H1001 0.950 . S
C1030 C1029 1.334 . S
C1030 C1031 1.287 . S
C1031 C1030 1.287 . S
C1031 C1032 1.524 . S
C1031 H1034 0.999 . S
C1032 H1002 0.950 . S
C1032 C1031 1.524 . S
C1032 C1033 1.415 . S
C1033 H1003 0.950 . S
C1033 C1028 1.363 . S
C1033 C1032 1.415 . S
H1034 C1031 0.999 . S
H1035 C1016 0.913 . S
H1036 C1054 0.951 . S
H1037 C1056 0.951 . S
H1038 C1058 0.950 . S
H1039 C1059 0.950 . S
H1040 C1061 0.950 . S
H1041 C1064 0.950 . S
H1042 C1065 0.950 . S
H1043 C1067 0.950 . S
H1044 C1068 0.950 . S
H1045 C1069 0.951 . S
H1046 C1071 0.951 . S
H1047 C1073 0.950 . S
H1048 C1074 0.950 . S
H1049 C1076 0.950 . S
H1050 C1079 0.950 . S
H1051 C1080 0.950 . S
H1052 C1082 0.950 . S
H1053 C1083 0.950 . S
C1054 H1036 0.951 . S
C1054 C1055 1.366 . S
C1054 C1056 1.388 . S
C1055 C1054 1.366 . S
C1055 C1059 1.385 . S
C1056 H1037 0.951 . S
C1056 C1054 1.388 . S
C1056 C1057 1.366 . S
C1057 C1056 1.366 . S
C1057 C1058 1.414 . S
C1057 C1060 1.499 . S
C1058 H1038 0.950 . S
C1058 C1057 1.414 . S
C1058 C1059 1.374 . S
C1059 H1039 0.950 . S
C1059 C1055 1.385 . S
C1059 C1058 1.374 . S
C1060 C1057 1.499 . S
C1060 C1061 1.373 . S
C1060 C1062 1.389 . S
C1061 H1040 0.950 . S
C1061 C1060 1.373 . S
C1061 C1077 1.377 . S
C1062 C1060 1.389 . S
C1062 C1063 1.524 . S
C1062 C1076 1.377 . S
C1063 C1062 1.524 . S
C1063 C1064 1.397 . S
C1063 C1068 1.363 . S
C1064 H1041 0.950 . S
C1064 C1063 1.397 . S
C1064 C1065 1.334 . S
C1065 H1042 0.950 . S
C1065 C1064 1.334 . S
C1065 C1066 1.287 . S
C1066 C1065 1.287 . S
C1066 C1067 1.524 . S
C1066 H1085 0.913 . S
C1067 H1043 0.950 . S
C1067 C1066 1.524 . S
C1067 C1068 1.415 . S
C1068 H1044 0.950 . S
C1068 C1063 1.363 . S
C1068 C1067 1.415 . S
C1069 H1045 0.951 . S
C1069 C1070 1.366 . S
C1069 C1071 1.388 . S
C1070 C1069 1.366 . S
C1070 C1074 1.385 . S
C1071 H1046 0.951 . S
C1071 C1069 1.388 . S
C1071 C1072 1.366 . S
C1072 C1071 1.366 . S
C1072 C1073 1.414 . S
C1072 C1075 1.499 . S
C1073 H1047 0.950 . S
C1073 C1072 1.414 . S
C1073 C1074 1.374 . S
C1074 H1048 0.950 . S
C1074 C1070 1.385 . S
C1074 C1073 1.374 . S
C1075 C1072 1.499 . S
C1075 C1076 1.373 . S
C1075 C1077 1.389 . S
C1076 H1049 0.950 . S
C1076 C1062 1.377 . S
C1076 C1075 1.373 . S
C1077 C1061 1.377 . S
C1077 C1075 1.389 . S
C1077 C1078 1.524 . S
C1078 C1077 1.524 . S
C1078 C1079 1.397 . S
C1078 C1083 1.363 . S
C1079 H1050 0.950 . S
C1079 C1078 1.397 . S
C1079 C1080 1.334 . S
C1080 H1051 0.950 . S
C1080 C1079 1.334 . S
C1080 C1081 1.287 . S
C1081 C1080 1.287 . S
C1081 C1082 1.524 . S
C1081 H1084 0.999 . S
C1082 H1052 0.950 . S
C1082 C1081 1.524 . S
C1082 C1083 1.415 . S
C1083 H1053 0.950 . S
C1083 C1078 1.363 . S
C1083 C1082 1.415 . S
H1084 C1081 0.999 . S
H1085 C1066 0.913 . S
H1086 C1104 0.951 . S
H1087 C1106 0.951 . S
H1088 C1108 0.950 . S
H1089 C1109 0.950 . S
H1090 C1111 0.950 . S
H1091 C1114 0.950 . S
H1092 C1115 0.950 . S
H1093 C1117 0.950 . S
H1094 C1118 0.950 . S
H1095 C1119 0.951 . S
H1096 C1121 0.951 . S
H1097 C1123 0.950 . S
H1098 C1124 0.950 . S
H1099 C1126 0.950 . S
H1100 C1129 0.950 . S
H1101 C1130 0.950 . S
H1102 C1132 0.950 . S
H1103 C1133 0.950 . S
C1104 H1086 0.951 . S
C1104 C1105 1.366 . S
C1104 C1106 1.388 . S
C1105 C1104 1.366 . S
C1105 C1109 1.385 . S
C1106 H1087 0.951 . S
C1106 C1104 1.388 . S
C1106 C1107 1.366 . S
C1107 C1106 1.366 . S
C1107 C1108 1.414 . S
C1107 C1110 1.499 . S
C1108 H1088 0.950 . S
C1108 C1107 1.414 . S
C1108 C1109 1.374 . S
C1109 H1089 0.950 . S
C1109 C1105 1.385 . S
C1109 C1108 1.374 . S
C1110 C1107 1.499 . S
C1110 C1111 1.373 . S
C1110 C1112 1.389 . S
C1111 H1090 0.950 . S
C1111 C1110 1.373 . S
C1111 C1127 1.377 . S
C1112 C1110 1.389 . S
C1112 C1113 1.524 . S
C1112 C1126 1.377 . S
C1113 C1112 1.524 . S
C1113 C1114 1.397 . S
C1113 C1118 1.363 . S
C1114 H1091 0.950 . S
C1114 C1113 1.397 . S
C1114 C1115 1.334 . S
C1115 H1092 0.950 . S
C1115 C1114 1.334 . S
C1115 C1116 1.287 . S
C1116 C1115 1.287 . S
C1116 C1117 1.524 . S
C1116 H1135 0.913 . S
C1117 H1093 0.950 . S
C1117 C1116 1.524 . S
C1117 C1118 1.415 . S
C1118 H1094 0.950 . S
C1118 C1113 1.363 . S
C1118 C1117 1.415 . S
C1119 H1095 0.951 . S
C1119 C1120 1.366 . S
C1119 C1121 1.388 . S
C1120 C1119 1.366 . S
C1120 C1124 1.385 . S
C1121 H1096 0.951 . S
C1121 C1119 1.388 . S
C1121 C1122 1.366 . S
C1122 C1121 1.366 . S
C1122 C1123 1.414 . S
C1122 C1125 1.499 . S
C1123 H1097 0.950 . S
C1123 C1122 1.414 . S
C1123 C1124 1.374 . S
C1124 H1098 0.950 . S
C1124 C1120 1.385 . S
C1124 C1123 1.374 . S
C1125 C1122 1.499 . S
C1125 C1126 1.373 . S
C1125 C1127 1.389 . S
C1126 H1099 0.950 . S
C1126 C1112 1.377 . S
C1126 C1125 1.373 . S
C1127 C1111 1.377 . S
C1127 C1125 1.389 . S
C1127 C1128 1.524 . S
C1128 C1127 1.524 . S
C1128 C1129 1.397 . S
C1128 C1133 1.363 . S
C1129 H1100 0.950 . S
C1129 C1128 1.397 . S
C1129 C1130 1.334 . S
C1130 H1101 0.950 . S
C1130 C1129 1.334 . S
C1130 C1131 1.287 . S
C1131 C1130 1.287 . S
C1131 C1132 1.524 . S
C1131 H1134 0.999 . S
C1132 H1102 0.950 . S
C1132 C1131 1.524 . S
C1132 C1133 1.415 . S
C1133 H1103 0.950 . S
C1133 C1128 1.363 . S
C1133 C1132 1.415 . S
H1134 C1131 0.999 . S
H1135 C1116 0.913 . S
H1136 C1154 0.951 . S
H1137 C1156 0.951 . S
H1138 C1158 0.950 . S
H1139 C1159 0.950 . S
H1140 C1161 0.950 . S
H1141 C1164 0.950 . S
H1142 C1165 0.950 . S
H1143 C1167 0.950 . S
H1144 C1168 0.950 . S
H1145 C1169 0.951 . S
H1146 C1171 0.951 . S
H1147 C1173 0.950 . S
H1148 C1174 0.950 . S
H1149 C1176 0.950 . S
H1150 C1179 0.950 . S
H1151 C1180 0.950 . S
H1152 C1182 0.950 . S
H1153 C1183 0.950 . S
C1154 H1136 0.951 . S
C1154 C1155 1.366 . S
C1154 C1156 1.388 . S
C1155 C1154 1.366 . S
C1155 C1159 1.385 . S
C1156 H1137 0.951 . S
C1156 C1154 1.388 . S
C1156 C1157 1.366 . S
C1157 C1156 1.366 . S
C1157 C1158 1.414 . S
C1157 C1160 1.499 . S
C1158 H1138 0.950 . S
C1158 C1157 1.414 . S
C1158 C1159 1.374 . S
C1159 H1139 0.950 . S
C1159 C1155 1.385 . S
C1159 C1158 1.374 . S
C1160 C1157 1.499 . S
C1160 C1161 1.373 . S
C1160 C1162 1.389 . S
C1161 H1140 0.950 . S
C1161 C1160 1.373 . S
C1161 C1177 1.377 . S
C1162 C1160 1.389 . S
C1162 C1163 1.524 . S
C1162 C1176 1.377 . S
C1163 C1162 1.524 . S
C1163 C1164 1.397 . S
C1163 C1168 1.363 . S
C1164 H1141 0.950 . S
C1164 C1163 1.397 . S
C1164 C1165 1.334 . S
C1165 H1142 0.950 . S
C1165 C1164 1.334 . S
C1165 C1166 1.287 . S
C1166 C1165 1.287 . S
C1166 C1167 1.524 . S
C1166 H1185 0.913 . S
C1167 H1143 0.950 . S
C1167 C1166 1.524 . S
C1167 C1168 1.415 . S
C1168 H1144 0.950 . S
C1168 C1163 1.363 . S
C1168 C1167 1.415 . S
C1169 H1145 0.951 . S
C1169 C1170 1.366 . S
C1169 C1171 1.388 . S
C1170 C1169 1.366 . S
C1170 C1174 1.385 . S
C1171 H1146 0.951 . S
C1171 C1169 1.388 . S
C1171 C1172 1.366 . S
C1172 C1171 1.366 . S
C1172 C1173 1.414 . S
C1172 C1175 1.499 . S
C1173 H1147 0.950 . S
C1173 C1172 1.414 . S
C1173 C1174 1.374 . S
C1174 H1148 0.950 . S
C1174 C1170 1.385 . S
C1174 C1173 1.374 . S
C1175 C1172 1.499 . S
C1175 C1176 1.373 . S
C1175 C1177 1.389 . S
C1176 H1149 0.950 . S
C1176 C1162 1.377 . S
C1176 C1175 1.373 . S
C1177 C1161 1.377 . S
C1177 C1175 1.389 . S
C1177 C1178 1.524 . S
C1178 C1177 1.524 . S
C1178 C1179 1.397 . S
C1178 C1183 1.363 . S
C1179 H1150 0.950 . S
C1179 C1178 1.397 . S
C1179 C1180 1.334 . S
C1180 H1151 0.950 . S
C1180 C1179 1.334 . S
C1180 C1181 1.287 . S
C1181 C1180 1.287 . S
C1181 C1182 1.524 . S
C1181 H1184 0.999 . S
C1182 H1152 0.950 . S
C1182 C1181 1.524 . S
C1182 C1183 1.415 . S
C1183 H1153 0.950 . S
C1183 C1178 1.363 . S
C1183 C1182 1.415 . S
H1184 C1181 0.999 . S
H1185 C1166 0.913 . S
H1186 C1204 0.951 . S
H1187 C1206 0.951 . S
H1188 C1208 0.950 . S
H1189 C1209 0.950 . S
H1190 C1211 0.950 . S
H1191 C1214 0.950 . S
H1192 C1215 0.950 . S
H1193 C1217 0.950 . S
H1194 C1218 0.950 . S
H1195 C1219 0.951 . S
H1196 C1221 0.951 . S
H1197 C1223 0.950 . S
H1198 C1224 0.950 . S
H1199 C1226 0.950 . S
H1200 C1229 0.950 . S
H1201 C1230 0.950 . S
H1202 C1232 0.950 . S
H1203 C1233 0.950 . S
C1204 H1186 0.951 . S
C1204 C1205 1.366 . S
C1204 C1206 1.388 . S
C1205 C1204 1.366 . S
C1205 C1209 1.385 . S
C1206 H1187 0.951 . S
C1206 C1204 1.388 . S
C1206 C1207 1.366 . S
C1207 C1206 1.366 . S
C1207 C1208 1.414 . S
C1207 C1210 1.499 . S
C1208 H1188 0.950 . S
C1208 C1207 1.414 . S
C1208 C1209 1.374 . S
C1209 H1189 0.950 . S
C1209 C1205 1.385 . S
C1209 C1208 1.374 . S
C1210 C1207 1.499 . S
C1210 C1211 1.373 . S
C1210 C1212 1.389 . S
C1211 H1190 0.950 . S
C1211 C1210 1.373 . S
C1211 C1227 1.377 . S
C1212 C1210 1.389 . S
C1212 C1213 1.524 . S
C1212 C1226 1.377 . S
C1213 C1212 1.524 . S
C1213 C1214 1.397 . S
C1213 C1218 1.363 . S
C1214 H1191 0.950 . S
C1214 C1213 1.397 . S
C1214 C1215 1.334 . S
C1215 H1192 0.950 . S
C1215 C1214 1.334 . S
C1215 C1216 1.287 . S
C1216 C1215 1.287 . S
C1216 C1217 1.524 . S
C1216 H1235 0.913 . S
C1217 H1193 0.950 . S
C1217 C1216 1.524 . S
C1217 C1218 1.415 . S
C1218 H1194 0.950 . S
C1218 C1213 1.363 . S
C1218 C1217 1.415 . S
C1219 H1195 0.951 . S
C1219 C1220 1.366 . S
C1219 C1221 1.388 . S
C1220 C1219 1.366 . S
C1220 C1224 1.385 . S
C1221 H1196 0.951 . S
C1221 C1219 1.388 . S
C1221 C1222 1.366 . S
C1222 C1221 1.366 . S
C1222 C1223 1.414 . S
C1222 C1225 1.499 . S
C1223 H1197 0.950 . S
C1223 C1222 1.414 . S
C1223 C1224 1.374 . S
C1224 H1198 0.950 . S
C1224 C1220 1.385 . S
C1224 C1223 1.374 . S
C1225 C1222 1.499 . S
C1225 C1226 1.373 . S
C1225 C1227 1.389 . S
C1226 H1199 0.950 . S
C1226 C1212 1.377 . S
C1226 C1225 1.373 . S
C1227 C1211 1.377 . S
C1227 C1225 1.389 . S
C1227 C1228 1.524 . S
C1228 C1227 1.524 . S
C1228 C1229 1.397 . S
C1228 C1233 1.363 . S
C1229 H1200 0.950 . S
C1229 C1228 1.397 . S
C1229 C1230 1.334 . S
C1230 H1201 0.950 . S
C1230 C1229 1.334 . S
C1230 C1231 1.287 . S
C1231 C1230 1.287 . S
C1231 C1232 1.524 . S
C1231 H1234 0.999 . S
C1232 H1202 0.950 . S
C1232 C1231 1.524 . S
C1232 C1233 1.415 . S
C1233 H1203 0.950 . S
C1233 C1228 1.363 . S
C1233 C1232 1.415 . S
H1234 C1231 0.999 . S
H1235 C1216 0.913 . S
H1236 C1254 0.951 . S
H1237 C1256 0.951 . S
H1238 C1258 0.950 . S
H1239 C1259 0.950 . S
H1240 C1261 0.950 . S
H1241 C1264 0.950 . S
H1242 C1265 0.950 . S
H1243 C1267 0.950 . S
H1244 C1268 0.950 . S
H1245 C1269 0.951 . S
H1246 C1271 0.951 . S
H1247 C1273 0.950 . S
H1248 C1274 0.950 . S
H1249 C1276 0.950 . S
H1250 C1279 0.950 . S
H1251 C1280 0.950 . S
H1252 C1282 0.950 . S
H1253 C1283 0.950 . S
C1254 H1236 0.951 . S
C1254 C1255 1.366 . S
C1254 C1256 1.388 . S
C1255 C1254 1.366 . S
C1255 C1259 1.385 . S
C1256 H1237 0.951 . S
C1256 C1254 1.388 . S
C1256 C1257 1.366 . S
C1257 C1256 1.366 . S
C1257 C1258 1.414 . S
C1257 C1260 1.499 . S
C1258 H1238 0.950 . S
C1258 C1257 1.414 . S
C1258 C1259 1.374 . S
C1259 H1239 0.950 . S
C1259 C1255 1.385 . S
C1259 C1258 1.374 . S
C1260 C1257 1.499 . S
C1260 C1261 1.373 . S
C1260 C1262 1.389 . S
C1261 H1240 0.950 . S
C1261 C1260 1.373 . S
C1261 C1277 1.377 . S
C1262 C1260 1.389 . S
C1262 C1263 1.524 . S
C1262 C1276 1.377 . S
C1263 C1262 1.524 . S
C1263 C1264 1.397 . S
C1263 C1268 1.363 . S
C1264 H1241 0.950 . S
C1264 C1263 1.397 . S
C1264 C1265 1.334 . S
C1265 H1242 0.950 . S
C1265 C1264 1.334 . S
C1265 C1266 1.287 . S
C1266 C1265 1.287 . S
C1266 C1267 1.524 . S
C1266 H1285 0.913 . S
C1267 H1243 0.950 . S
C1267 C1266 1.524 . S
C1267 C1268 1.415 . S
C1268 H1244 0.950 . S
C1268 C1263 1.363 . S
C1268 C1267 1.415 . S
C1269 H1245 0.951 . S
C1269 C1270 1.366 . S
C1269 C1271 1.388 . S
C1270 C1269 1.366 . S
C1270 C1274 1.385 . S
C1271 H1246 0.951 . S
C1271 C1269 1.388 . S
C1271 C1272 1.366 . S
C1272 C1271 1.366 . S
C1272 C1273 1.414 . S
C1272 C1275 1.499 . S
C1273 H1247 0.950 . S
C1273 C1272 1.414 . S
C1273 C1274 1.374 . S
C1274 H1248 0.950 . S
C1274 C1270 1.385 . S
C1274 C1273 1.374 . S
C1275 C1272 1.499 . S
C1275 C1276 1.373 . S
C1275 C1277 1.389 . S
C1276 H1249 0.950 . S
C1276 C1262 1.377 . S
C1276 C1275 1.373 . S
C1277 C1261 1.377 . S
C1277 C1275 1.389 . S
C1277 C1278 1.524 . S
C1278 C1277 1.524 . S
C1278 C1279 1.397 . S
C1278 C1283 1.363 . S
C1279 H1250 0.950 . S
C1279 C1278 1.397 . S
C1279 C1280 1.334 . S
C1280 H1251 0.950 . S
C1280 C1279 1.334 . S
C1280 C1281 1.287 . S
C1281 C1280 1.287 . S
C1281 C1282 1.524 . S
C1281 H1284 0.999 . S
C1282 H1252 0.950 . S
C1282 C1281 1.524 . S
C1282 C1283 1.415 . S
C1283 H1253 0.950 . S
C1283 C1278 1.363 . S
C1283 C1282 1.415 . S
H1284 C1281 0.999 . S
H1285 C1266 0.913 . S
H1286 C1304 0.951 . S
H1287 C1306 0.951 . S
H1288 C1308 0.950 . S
H1289 C1309 0.950 . S
H1290 C1311 0.950 . S
H1291 C1314 0.950 . S
H1292 C1315 0.950 . S
H1293 C1317 0.950 . S
H1294 C1318 0.950 . S
H1295 C1319 0.951 . S
H1296 C1321 0.951 . S
H1297 C1323 0.950 . S
H1298 C1324 0.950 . S
H1299 C1326 0.950 . S
H1300 C1329 0.950 . S
H1301 C1330 0.950 . S
H1302 C1332 0.950 . S
H1303 C1333 0.950 . S
C1304 H1286 0.951 . S
C1304 C1305 1.366 . S
C1304 C1306 1.388 . S
C1305 C1304 1.366 . S
C1305 C1309 1.385 . S
C1306 H1287 0.951 . S
C1306 C1304 1.388 . S
C1306 C1307 1.366 . S
C1307 C1306 1.366 . S
C1307 C1308 1.414 . S
C1307 C1310 1.499 . S
C1308 H1288 0.950 . S
C1308 C1307 1.414 . S
C1308 C1309 1.374 . S
C1309 H1289 0.950 . S
C1309 C1305 1.385 . S
C1309 C1308 1.374 . S
C1310 C1307 1.499 . S
C1310 C1311 1.373 . S
C1310 C1312 1.389 . S
C1311 H1290 0.950 . S
C1311 C1310 1.373 . S
C1311 C1327 1.377 . S
C1312 C1310 1.389 . S
C1312 C1313 1.524 . S
C1312 C1326 1.377 . S
C1313 C1312 1.524 . S
C1313 C1314 1.397 . S
C1313 C1318 1.363 . S
C1314 H1291 0.950 . S
C1314 C1313 1.397 . S
C1314 C1315 1.334 . S
C1315 H1292 0.950 . S
C1315 C1314 1.334 . S
C1315 C1316 1.287 . S
C1316 C1315 1.287 . S
C1316 C1317 1.524 . S
C1316 H1335 0.913 . S
C1317 H1293 0.950 . S
C1317 C1316 1.524 . S
C1317 C1318 1.415 . S
C1318 H1294 0.950 . S
C1318 C1313 1.363 . S
C1318 C1317 1.415 . S
C1319 H1295 0.951 . S
C1319 C1320 1.366 . S
C1319 C1321 1.388 . S
C1320 C1319 1.366 . S
C1320 C1324 1.385 . S
C1321 H1296 0.951 . S
C1321 C1319 1.388 . S
C1321 C1322 1.366 . S
C1322 C1321 1.366 . S
C1322 C1323 1.414 . S
C1322 C1325 1.499 . S
C1323 H1297 0.950 . S
C1323 C1322 1.414 . S
C1323 C1324 1.374 . S
C1324 H1298 0.950 . S
C1324 C1320 1.385 . S
C1324 C1323 1.374 . S
C1325 C1322 1.499 . S
C1325 C1326 1.373 . S
C1325 C1327 1.389 . S
C1326 H1299 0.950 . S
C1326 C1312 1.377 . S
C1326 C1325 1.373 . S
C1327 C1311 1.377 . S
C1327 C1325 1.389 . S
C1327 C1328 1.524 . S
C1328 C1327 1.524 . S
C1328 C1329 1.397 . S
C1328 C1333 1.363 . S
C1329 H1300 0.950 . S
C1329 C1328 1.397 . S
C1329 C1330 1.334 . S
C1330 H1301 0.950 . S
C1330 C1329 1.334 . S
C1330 C1331 1.287 . S
C1331 C1330 1.287 . S
C1331 C1332 1.524 . S
C1331 H1334 0.999 . S
C1332 H1302 0.950 . S
C1332 C1331 1.524 . S
C1332 C1333 1.415 . S
C1333 H1303 0.950 . S
C1333 C1328 1.363 . S
C1333 C1332 1.415 . S
H1334 C1331 0.999 . S
H1335 C1316 0.913 . S
H1336 C1354 0.934 1_554 S
H1337 C1356 0.951 . S
H1338 C1358 0.950 . S
H1339 C1359 0.950 . S
H1340 C1361 0.950 . S
H1341 C1364 0.950 . S
H1342 C1365 0.950 . S
H1343 C1367 0.950 . S
H1344 C1368 0.950 . S
H1345 C1369 0.951 . S
H1346 C1371 0.951 . S
H1347 C1373 0.950 . S
H1348 C1374 0.950 . S
H1349 C1376 0.950 . S
H1350 C1379 0.950 . S
H1351 C1380 0.950 . S
H1352 C1382 0.950 . S
H1353 C1383 0.950 . S
C1354 H1336 0.934 1_556 S
C1354 C1355 1.366 . S
C1354 C1356 1.388 . S
C1355 C1354 1.366 . S
C1355 C1359 1.385 . S
C1356 H1337 0.951 . S
C1356 C1354 1.388 . S
C1356 C1357 1.366 . S
C1357 C1356 1.366 . S
C1357 C1358 1.414 . S
C1357 C1360 1.499 . S
C1358 H1338 0.950 . S
C1358 C1357 1.414 . S
C1358 C1359 1.374 . S
C1359 H1339 0.950 . S
C1359 C1355 1.385 . S
C1359 C1358 1.374 . S
C1360 C1357 1.499 . S
C1360 C1361 1.373 . S
C1360 C1362 1.389 . S
C1361 H1340 0.950 . S
C1361 C1360 1.373 . S
C1361 C1377 1.377 . S
C1362 C1360 1.389 . S
C1362 C1363 1.524 . S
C1362 C1376 1.377 . S
C1363 C1362 1.524 . S
C1363 C1364 1.397 . S
C1363 C1368 1.363 . S
C1364 H1341 0.950 . S
C1364 C1363 1.397 . S
C1364 C1365 1.334 . S
C1365 H1342 0.950 . S
C1365 C1364 1.334 . S
C1365 C1366 1.287 . S
C1366 C1365 1.287 . S
C1366 C1367 1.524 . S
C1366 H1385 0.913 . S
C1367 H1343 0.950 . S
C1367 C1366 1.524 . S
C1367 C1368 1.415 . S
C1368 H1344 0.950 . S
C1368 C1363 1.363 . S
C1368 C1367 1.415 . S
C1369 H1345 0.951 . S
C1369 C1370 1.366 . S
C1369 C1371 1.388 . S
C1370 C1369 1.366 . S
C1370 C1374 1.385 . S
C1371 H1346 0.951 . S
C1371 C1369 1.388 . S
C1371 C1372 1.366 . S
C1372 C1371 1.366 . S
C1372 C1373 1.414 . S
C1372 C1375 1.499 . S
C1373 H1347 0.950 . S
C1373 C1372 1.414 . S
C1373 C1374 1.374 . S
C1374 H1348 0.950 . S
C1374 C1370 1.385 . S
C1374 C1373 1.374 . S
C1375 C1372 1.499 . S
C1375 C1376 1.373 . S
C1375 C1377 1.389 . S
C1376 H1349 0.950 . S
C1376 C1362 1.377 . S
C1376 C1375 1.373 . S
C1377 C1361 1.377 . S
C1377 C1375 1.389 . S
C1377 C1378 1.524 . S
C1378 C1377 1.524 . S
C1378 C1379 1.397 . S
C1378 C1383 1.363 . S
C1379 H1350 0.950 . S
C1379 C1378 1.397 . S
C1379 C1380 1.334 . S
C1380 H1351 0.950 . S
C1380 C1379 1.334 . S
C1380 C1381 1.287 . S
C1381 C1380 1.287 . S
C1381 C1382 1.524 . S
C1381 H1384 0.999 . S
C1382 H1352 0.950 . S
C1382 C1381 1.524 . S
C1382 C1383 1.415 . S
C1383 H1353 0.950 . S
C1383 C1378 1.363 . S
C1383 C1382 1.415 . S
H1384 C1381 0.999 . S
H1385 C1366 0.913 . S
H1386 C1404 0.951 . S
H1387 C1406 0.951 . S
H1388 C1408 0.950 . S
H1389 C1409 0.963 . S
H1390 C1411 0.950 . S
H1391 C1414 0.950 . S
H1392 C1415 0.950 . S
H1393 C1417 0.950 . S
H1394 C1418 0.950 . S
H1395 C1419 0.951 . S
H1396 C1421 0.951 . S
H1397 C1423 0.950 . S
H1398 C1424 0.950 . S
H1399 C1426 0.950 . S
H1400 C1429 0.950 . S
H1401 C1430 0.950 . S
H1402 C1432 0.950 . S
H1403 C1433 0.950 . S
C1404 H1386 0.951 . S
C1404 C1405 1.366 . S
C1404 C1406 1.388 . S
C1405 C1404 1.366 . S
C1405 C1409 1.385 . S
C1406 H1387 0.951 . S
C1406 C1404 1.388 . S
C1406 C1407 1.366 . S
C1407 C1406 1.366 . S
C1407 C1408 1.414 . S
C1407 C1410 1.499 . S
C1408 H1388 0.950 . S
C1408 C1407 1.414 . S
C1408 C1409 1.374 . S
C1409 H1389 0.963 . S
C1409 C1405 1.385 . S
C1409 C1408 1.374 . S
C1410 C1407 1.499 . S
C1410 C1411 1.373 . S
C1410 C1412 1.389 . S
C1411 H1390 0.950 . S
C1411 C1410 1.373 . S
C1411 C1427 1.377 . S
C1412 C1410 1.389 . S
C1412 C1413 1.524 . S
C1412 C1426 1.377 . S
C1413 C1412 1.524 . S
C1413 C1414 1.397 . S
C1413 C1418 1.363 . S
C1414 H1391 0.950 . S
C1414 C1413 1.397 . S
C1414 C1415 1.334 . S
C1415 H1392 0.950 . S
C1415 C1414 1.334 . S
C1415 C1416 1.287 . S
C1416 C1415 1.287 . S
C1416 C1417 1.524 . S
C1416 H1435 0.913 . S
C1417 H1393 0.950 . S
C1417 C1416 1.524 . S
C1417 C1418 1.415 . S
C1418 H1394 0.950 . S
C1418 C1413 1.363 . S
C1418 C1417 1.415 . S
C1419 H1395 0.951 . S
C1419 C1420 1.366 . S
C1419 C1421 1.388 . S
C1420 C1419 1.366 . S
C1420 C1424 1.385 . S
C1421 H1396 0.951 . S
C1421 C1419 1.388 . S
C1421 C1422 1.366 . S
C1422 C1421 1.366 . S
C1422 C1423 1.414 . S
C1422 C1425 1.499 . S
C1423 H1397 0.950 . S
C1423 C1422 1.414 . S
C1423 C1424 1.374 . S
C1424 H1398 0.950 . S
C1424 C1420 1.385 . S
C1424 C1423 1.374 . S
C1425 C1422 1.499 . S
C1425 C1426 1.373 . S
C1425 C1427 1.389 . S
C1426 H1399 0.950 . S
C1426 C1412 1.377 . S
C1426 C1425 1.373 . S
C1427 C1411 1.377 . S
C1427 C1425 1.389 . S
C1427 C1428 1.524 . S
C1428 C1427 1.524 . S
C1428 C1429 1.397 . S
C1428 C1433 1.363 . S
C1429 H1400 0.950 . S
C1429 C1428 1.397 . S
C1429 C1430 1.334 . S
C1430 H1401 0.950 . S
C1430 C1429 1.334 . S
C1430 C1431 1.287 . S
C1431 C1430 1.287 . S
C1431 C1432 1.524 . S
C1431 H1434 0.999 . S
C1432 H1402 0.950 . S
C1432 C1431 1.524 . S
C1432 C1433 1.415 . S
C1433 H1403 0.950 . S
C1433 C1428 1.363 . S
C1433 C1432 1.415 . S
H1434 C1431 0.999 . S
H1435 C1416 0.913 . S
H1436 C1454 0.951 . S
H1437 C1456 0.951 . S
H1438 C1458 0.950 . S
H1439 C1459 0.950 . S
H1440 C1461 0.950 . S
H1441 C1464 0.950 . S
H1442 C1465 0.950 . S
H1443 C1467 0.950 . S
H1444 C1468 0.950 . S
H1445 C1469 0.951 . S
H1446 C1471 0.951 . S
H1447 C1473 0.950 . S
H1448 C1474 0.950 . S
H1449 C1476 0.950 . S
H1450 C1479 0.950 . S
H1451 C1480 0.950 . S
H1452 C1482 0.950 . S
H1453 C1483 0.950 . S
C1454 H1436 0.951 . S
C1454 C1455 1.366 . S
C1454 C1456 1.388 . S
C1455 C1454 1.366 . S
C1455 C1459 1.385 . S
C1456 H1437 0.951 . S
C1456 C1454 1.388 . S
C1456 C1457 1.366 . S
C1457 C1456 1.366 . S
C1457 C1458 1.414 . S
C1457 C1460 1.499 . S
C1458 H1438 0.950 . S
C1458 C1457 1.414 . S
C1458 C1459 1.374 . S
C1459 H1439 0.950 . S
C1459 C1455 1.385 . S
C1459 C1458 1.374 . S
C1460 C1457 1.499 . S
C1460 C1461 1.373 . S
C1460 C1462 1.389 . S
C1461 H1440 0.950 . S
C1461 C1460 1.373 . S
C1461 C1477 1.377 . S
C1462 C1460 1.389 . S
C1462 C1463 1.524 . S
C1462 C1476 1.377 . S
C1463 C1462 1.524 . S
C1463 C1464 1.397 . S
C1463 C1468 1.363 . S
C1464 H1441 0.950 . S
C1464 C1463 1.397 . S
C1464 C1465 1.334 . S
C1465 H1442 0.950 . S
C1465 C1464 1.334 . S
C1465 C1466 1.287 . S
C1466 C1465 1.287 . S
C1466 C1467 1.524 . S
C1466 H1485 0.913 . S
C1467 H1443 0.950 . S
C1467 C1466 1.524 . S
C1467 C1468 1.415 . S
C1468 H1444 0.950 . S
C1468 C1463 1.363 . S
C1468 C1467 1.415 . S
C1469 H1445 0.951 . S
C1469 C1470 1.366 . S
C1469 C1471 1.388 . S
C1470 C1469 1.366 . S
C1470 C1474 1.385 . S
C1471 H1446 0.951 . S
C1471 C1469 1.388 . S
C1471 C1472 1.366 . S
C1472 C1471 1.366 . S
C1472 C1473 1.414 . S
C1472 C1475 1.499 . S
C1473 H1447 0.950 . S
C1473 C1472 1.414 . S
C1473 C1474 1.374 . S
C1474 H1448 0.950 . S
C1474 C1470 1.385 . S
C1474 C1473 1.374 . S
C1475 C1472 1.499 . S
C1475 C1476 1.373 . S
C1475 C1477 1.389 . S
C1476 H1449 0.950 . S
C1476 C1462 1.377 . S
C1476 C1475 1.373 . S
C1477 C1461 1.377 . S
C1477 C1475 1.389 . S
C1477 C1478 1.524 . S
C1478 C1477 1.524 . S
C1478 C1479 1.397 . S
C1478 C1483 1.363 . S
C1479 H1450 0.950 . S
C1479 C1478 1.397 . S
C1479 C1480 1.334 . S
C1480 H1451 0.950 . S
C1480 C1479 1.334 . S
C1480 C1481 1.287 . S
C1481 C1480 1.287 . S
C1481 C1482 1.524 . S
C1481 H1484 0.999 . S
C1482 H1452 0.950 . S
C1482 C1481 1.524 . S
C1482 C1483 1.415 . S
C1483 H1453 0.950 . S
C1483 C1478 1.363 . S
C1483 C1482 1.415 . S
H1484 C1481 0.999 . S
H1485 C1466 0.913 . S
H1486 C1504 0.951 . S
H1487 C1506 0.951 . S
H1488 C1508 0.950 . S
H1489 C1509 0.950 . S
H1490 C1511 0.950 . S
H1491 C1514 0.950 . S
H1492 C1515 0.950 . S
H1493 C1517 0.950 . S
H1494 C1518 0.950 . S
H1495 C1519 0.951 . S
H1496 C1521 0.951 . S
H1497 C1523 0.950 . S
H1498 C1524 0.950 . S
H1499 C1526 0.950 . S
H1500 C1529 0.950 . S
H1501 C1530 0.950 . S
H1502 C1532 0.950 . S
H1503 C1533 0.950 . S
C1504 H1486 0.951 . S
C1504 C1505 1.366 . S
C1504 C1506 1.388 . S
C1505 C1504 1.366 . S
C1505 C1509 1.385 . S
C1506 H1487 0.951 . S
C1506 C1504 1.388 . S
C1506 C1507 1.366 . S
C1507 C1506 1.366 . S
C1507 C1508 1.414 . S
C1507 C1510 1.499 . S
C1508 H1488 0.950 . S
C1508 C1507 1.414 . S
C1508 C1509 1.374 . S
C1509 H1489 0.950 . S
C1509 C1505 1.385 . S
C1509 C1508 1.374 . S
C1510 C1507 1.499 . S
C1510 C1511 1.373 . S
C1510 C1512 1.389 . S
C1511 H1490 0.950 . S
C1511 C1510 1.373 . S
C1511 C1527 1.377 . S
C1512 C1510 1.389 . S
C1512 C1513 1.524 . S
C1512 C1526 1.377 . S
C1513 C1512 1.524 . S
C1513 C1514 1.397 . S
C1513 C1518 1.363 . S
C1514 H1491 0.950 . S
C1514 C1513 1.397 . S
C1514 C1515 1.334 . S
C1515 H1492 0.950 . S
C1515 C1514 1.334 . S
C1515 C1516 1.287 . S
C1516 C1515 1.287 . S
C1516 C1517 1.524 . S
C1516 H1535 0.913 . S
C1517 H1493 0.950 . S
C1517 C1516 1.524 . S
C1517 C1518 1.415 . S
C1518 H1494 0.950 . S
C1518 C1513 1.363 . S
C1518 C1517 1.415 . S
C1519 H1495 0.951 . S
C1519 C1520 1.366 . S
C1519 C1521 1.388 . S
C1520 C1519 1.366 . S
C1520 C1524 1.385 . S
C1521 H1496 0.951 . S
C1521 C1519 1.388 . S
C1521 C1522 1.366 . S
C1522 C1521 1.366 . S
C1522 C1523 1.414 . S
C1522 C1525 1.499 . S
C1523 H1497 0.950 . S
C1523 C1522 1.414 . S
C1523 C1524 1.374 . S
C1524 H1498 0.950 . S
C1524 C1520 1.385 . S
C1524 C1523 1.374 . S
C1525 C1522 1.499 . S
C1525 C1526 1.373 . S
C1525 C1527 1.389 . S
C1526 H1499 0.950 . S
C1526 C1512 1.377 . S
C1526 C1525 1.373 . S
C1527 C1511 1.377 . S
C1527 C1525 1.389 . S
C1527 C1528 1.524 . S
C1528 C1527 1.524 . S
C1528 C1529 1.397 . S
C1528 C1533 1.363 . S
C1529 H1500 0.950 . S
C1529 C1528 1.397 . S
C1529 C1530 1.334 . S
C1530 H1501 0.950 . S
C1530 C1529 1.334 . S
C1530 C1531 1.287 . S
C1531 C1530 1.287 . S
C1531 C1532 1.524 . S
C1531 H1534 0.999 . S
C1532 H1502 0.950 . S
C1532 C1531 1.524 . S
C1532 C1533 1.415 . S
C1533 H1503 0.950 . S
C1533 C1528 1.363 . S
C1533 C1532 1.415 . S
H1534 C1531 0.999 . S
H1535 C1516 0.913 . S
H1536 C1554 0.951 . S
H1537 C1556 0.951 . S
H1538 C1558 0.950 . S
H1539 C1559 0.950 . S
H1540 C1561 0.950 . S
H1541 C1564 0.950 . S
H1542 C1565 0.950 . S
H1543 C1567 0.950 . S
H1544 C1568 0.950 . S
H1545 C1569 0.951 . S
H1546 C1571 0.951 . S
H1547 C1573 0.950 . S
H1548 C1574 0.950 . S
H1549 C1576 0.950 . S
H1550 C1579 0.950 . S
H1551 C1580 0.950 . S
H1552 C1582 0.950 . S
H1553 C1583 0.950 . S
C1554 H1536 0.951 . S
C1554 C1555 1.366 . S
C1554 C1556 1.388 . S
C1555 C1554 1.366 . S
C1555 C1559 1.385 . S
C1556 H1537 0.951 . S
C1556 C1554 1.388 . S
C1556 C1557 1.366 . S
C1557 C1556 1.366 . S
C1557 C1558 1.414 . S
C1557 C1560 1.499 . S
C1558 H1538 0.950 . S
C1558 C1557 1.414 . S
C1558 C1559 1.374 . S
C1559 H1539 0.950 . S
C1559 C1555 1.385 . S
C1559 C1558 1.374 . S
C1560 C1557 1.499 . S
C1560 C1561 1.373 . S
C1560 C1562 1.389 . S
C1561 H1540 0.950 . S
C1561 C1560 1.373 . S
C1561 C1577 1.377 . S
C1562 C1560 1.389 . S
C1562 C1563 1.524 . S
C1562 C1576 1.377 . S
C1563 C1562 1.524 . S
C1563 C1564 1.397 . S
C1563 C1568 1.363 . S
C1564 H1541 0.950 . S
C1564 C1563 1.397 . S
C1564 C1565 1.334 . S
C1565 H1542 0.950 . S
C1565 C1564 1.334 . S
C1565 C1566 1.287 . S
C1566 C1565 1.287 . S
C1566 C1567 1.524 . S
C1566 H1585 0.913 . S
C1567 H1543 0.950 . S
C1567 C1566 1.524 . S
C1567 C1568 1.415 . S
C1568 H1544 0.950 . S
C1568 C1563 1.363 . S
C1568 C1567 1.415 . S
C1569 H1545 0.951 . S
C1569 C1570 1.366 . S
C1569 C1571 1.388 . S
C1570 C1569 1.366 . S
C1570 C1574 1.385 . S
C1571 H1546 0.951 . S
C1571 C1569 1.388 . S
C1571 C1572 1.366 . S
C1572 C1571 1.366 . S
C1572 C1573 1.414 . S
C1572 C1575 1.499 . S
C1573 H1547 0.950 . S
C1573 C1572 1.414 . S
C1573 C1574 1.374 . S
C1574 H1548 0.950 . S
C1574 C1570 1.385 . S
C1574 C1573 1.374 . S
C1575 C1572 1.499 . S
C1575 C1576 1.373 . S
C1575 C1577 1.389 . S
C1576 H1549 0.950 . S
C1576 C1562 1.377 . S
C1576 C1575 1.373 . S
C1577 C1561 1.377 . S
C1577 C1575 1.389 . S
C1577 C1578 1.524 . S
C1578 C1577 1.524 . S
C1578 C1579 1.397 . S
C1578 C1583 1.363 . S
C1579 H1550 0.950 . S
C1579 C1578 1.397 . S
C1579 C1580 1.334 . S
C1580 H1551 0.950 . S
C1580 C1579 1.334 . S
C1580 C1581 1.287 . S
C1581 C1580 1.287 . S
C1581 C1582 1.524 . S
C1581 H1584 0.999 . S
C1582 H1552 0.950 . S
C1582 C1581 1.524 . S
C1582 C1583 1.415 . S
C1583 H1553 0.950 . S
C1583 C1578 1.363 . S
C1583 C1582 1.415 . S
H1584 C1581 0.999 . S
H1585 C1566 0.913 . S
H1586 C1604 0.951 . S
H1587 C1606 0.951 . S
H1588 C1608 0.950 . S
H1589 C1609 0.950 . S
H1590 C1611 0.950 . S
H1591 C1614 0.950 . S
H1592 C1615 0.950 . S
H1593 C1617 0.950 . S
H1594 C1618 0.950 . S
H1595 C1619 0.951 . S
H1596 C1621 0.951 . S
H1597 C1623 0.950 . S
H1598 C1624 0.950 . S
H1599 C1626 0.950 . S
H1600 C1629 0.950 . S
H1601 C1630 0.950 . S
H1602 C1632 0.950 . S
H1603 C1633 0.950 . S
C1604 H1586 0.951 . S
C1604 C1605 1.366 . S
C1604 C1606 1.388 . S
C1605 C1604 1.366 . S
C1605 C1609 1.385 . S
C1606 H1587 0.951 . S
C1606 C1604 1.388 . S
C1606 C1607 1.366 . S
C1607 C1606 1.366 . S
C1607 C1608 1.414 . S
C1607 C1610 1.499 . S
C1608 H1588 0.950 . S
C1608 C1607 1.414 . S
C1608 C1609 1.374 . S
C1609 H1589 0.950 . S
C1609 C1605 1.385 . S
C1609 C1608 1.374 . S
C1610 C1607 1.499 . S
C1610 C1611 1.373 . S
C1610 C1612 1.389 . S
C1611 H1590 0.950 . S
C1611 C1610 1.373 . S
C1611 C1627 1.377 . S
C1612 C1610 1.389 . S
C1612 C1613 1.524 . S
C1612 C1626 1.377 . S
C1613 C1612 1.524 . S
C1613 C1614 1.397 . S
C1613 C1618 1.363 . S
C1614 H1591 0.950 . S
C1614 C1613 1.397 . S
C1614 C1615 1.334 . S
C1615 H1592 0.950 . S
C1615 C1614 1.334 . S
C1615 C1616 1.287 . S
C1616 C1615 1.287 . S
C1616 C1617 1.524 . S
C1616 H1635 0.913 . S
C1617 H1593 0.950 . S
C1617 C1616 1.524 . S
C1617 C1618 1.415 . S
C1618 H1594 0.950 . S
C1618 C1613 1.363 . S
C1618 C1617 1.415 . S
C1619 H1595 0.951 . S
C1619 C1620 1.366 . S
C1619 C1621 1.388 . S
C1620 C1619 1.366 . S
C1620 C1624 1.385 . S
C1621 H1596 0.951 . S
C1621 C1619 1.388 . S
C1621 C1622 1.366 . S
C1622 C1621 1.366 . S
C1622 C1623 1.414 . S
C1622 C1625 1.499 . S
C1623 H1597 0.950 . S
C1623 C1622 1.414 . S
C1623 C1624 1.374 . S
C1624 H1598 0.950 . S
C1624 C1620 1.385 . S
C1624 C1623 1.374 . S
C1625 C1622 1.499 . S
C1625 C1626 1.373 . S
C1625 C1627 1.389 . S
C1626 H1599 0.950 . S
C1626 C1612 1.377 . S
C1626 C1625 1.373 . S
C1627 C1611 1.377 . S
C1627 C1625 1.389 . S
C1627 C1628 1.524 . S
C1628 C1627 1.524 . S
C1628 C1629 1.397 . S
C1628 C1633 1.363 . S
C1629 H1600 0.950 . S
C1629 C1628 1.397 . S
C1629 C1630 1.334 . S
C1630 H1601 0.950 . S
C1630 C1629 1.334 . S
C1630 C1631 1.287 . S
C1631 C1630 1.287 . S
C1631 C1632 1.524 . S
C1631 H1634 0.999 . S
C1632 H1602 0.950 . S
C1632 C1631 1.524 . S
C1632 C1633 1.415 . S
C1633 H1603 0.950 . S
C1633 C1628 1.363 . S
C1633 C1632 1.415 . S
H1634 C1631 0.999 . S
H1635 C1616 0.913 . S
H1636 C1654 0.951 . S
H1637 C1656 0.951 . S
H1638 C1658 0.950 . S
H1639 C1659 0.950 . S
H1640 C1661 0.950 . S
H1641 C1664 0.950 . S
H1642 C1665 0.950 . S
H1643 C1667 0.950 . S
H1644 C1668 0.950 . S
H1645 C1669 0.951 . S
H1646 C1671 0.951 . S
H1647 C1673 0.950 . S
H1648 C1674 0.950 . S
H1649 C1676 0.950 . S
H1650 C1679 0.950 . S
H1651 C1680 0.950 . S
H1652 C1682 0.950 . S
H1653 C1683 0.950 . S
C1654 H1636 0.951 . S
C1654 C1655 1.366 . S
C1654 C1656 1.388 . S
C1655 C1654 1.366 . S
C1655 C1659 1.385 . S
C1656 H1637 0.951 . S
C1656 C1654 1.388 . S
C1656 C1657 1.366 . S
C1657 C1656 1.366 . S
C1657 C1658 1.414 . S
C1657 C1660 1.499 . S
C1658 H1638 0.950 . S
C1658 C1657 1.414 . S
C1658 C1659 1.374 . S
C1659 H1639 0.950 . S
C1659 C1655 1.385 . S
C1659 C1658 1.374 . S
C1660 C1657 1.499 . S
C1660 C1661 1.373 . S
C1660 C1662 1.389 . S
C1661 H1640 0.950 . S
C1661 C1660 1.373 . S
C1661 C1677 1.377 . S
C1662 C1660 1.389 . S
C1662 C1663 1.524 . S
C1662 C1676 1.377 . S
C1663 C1662 1.524 . S
C1663 C1664 1.397 . S
C1663 C1668 1.363 . S
C1664 H1641 0.950 . S
C1664 C1663 1.397 . S
C1664 C1665 1.334 . S
C1665 H1642 0.950 . S
C1665 C1664 1.334 . S
C1665 C1666 1.287 . S
C1666 C1665 1.287 . S
C1666 C1667 1.524 . S
C1666 H1685 0.913 . S
C1667 H1643 0.950 . S
C1667 C1666 1.524 . S
C1667 C1668 1.415 . S
C1668 H1644 0.950 . S
C1668 C1663 1.363 . S
C1668 C1667 1.415 . S
C1669 H1645 0.951 . S
C1669 C1670 1.366 . S
C1669 C1671 1.388 . S
C1670 C1669 1.366 . S
C1670 C1674 1.385 . S
C1671 H1646 0.951 . S
C1671 C1669 1.388 . S
C1671 C1672 1.366 . S
C1672 C1671 1.366 . S
C1672 C1673 1.414 . S
C1672 C1675 1.499 . S
C1673 H1647 0.950 . S
C1673 C1672 1.414 . S
C1673 C1674 1.374 . S
C1674 H1648 0.950 . S
C1674 C1670 1.385 . S
C1674 C1673 1.374 . S
C1675 C1672 1.499 . S
C1675 C1676 1.373 . S
C1675 C1677 1.389 . S
C1676 H1649 0.950 . S
C1676 C1662 1.377 . S
C1676 C1675 1.373 . S
C1677 C1661 1.377 . S
C1677 C1675 1.389 . S
C1677 C1678 1.524 . S
C1678 C1677 1.524 . S
C1678 C1679 1.397 . S
C1678 C1683 1.363 . S
C1679 H1650 0.950 . S
C1679 C1678 1.397 . S
C1679 C1680 1.334 . S
C1680 H1651 0.950 . S
C1680 C1679 1.334 . S
C1680 C1681 1.287 . S
C1681 C1680 1.287 . S
C1681 C1682 1.524 . S
C1681 H1684 0.999 . S
C1682 H1652 0.950 . S
C1682 C1681 1.524 . S
C1682 C1683 1.415 . S
C1683 H1653 0.950 . S
C1683 C1678 1.363 . S
C1683 C1682 1.415 . S
H1684 C1681 0.999 . S
H1685 C1666 0.913 . S
H1686 C1704 0.951 . S
H1687 C1706 0.951 . S
H1688 C1708 0.950 . S
H1689 C1709 0.950 . S
H1690 C1711 0.950 . S
H1691 C1714 0.950 . S
H1692 C1715 0.950 . S
H1693 C1717 0.950 . S
H1694 C1718 0.950 . S
H1695 C1719 0.951 . S
H1696 C1721 0.951 . S
H1697 C1723 0.950 . S
H1698 C1724 0.950 . S
H1699 C1726 0.950 . S
H1700 C1729 0.950 . S
H1701 C1730 0.950 . S
H1702 C1732 0.950 . S
H1703 C1733 0.950 . S
C1704 H1686 0.951 . S
C1704 C1705 1.366 . S
C1704 C1706 1.388 . S
C1705 C1704 1.366 . S
C1705 C1709 1.385 . S
C1706 H1687 0.951 . S
C1706 C1704 1.388 . S
C1706 C1707 1.366 . S
C1707 C1706 1.366 . S
C1707 C1708 1.414 . S
C1707 C1710 1.499 . S
C1708 H1688 0.950 . S
C1708 C1707 1.414 . S
C1708 C1709 1.374 . S
C1709 H1689 0.950 . S
C1709 C1705 1.385 . S
C1709 C1708 1.374 . S
C1710 C1707 1.499 . S
C1710 C1711 1.373 . S
C1710 C1712 1.389 . S
C1711 H1690 0.950 . S
C1711 C1710 1.373 . S
C1711 C1727 1.377 . S
C1712 C1710 1.389 . S
C1712 C1713 1.524 . S
C1712 C1726 1.377 . S
C1713 C1712 1.524 . S
C1713 C1714 1.397 . S
C1713 C1718 1.363 . S
C1714 H1691 0.950 . S
C1714 C1713 1.397 . S
C1714 C1715 1.334 . S
C1715 H1692 0.950 . S
C1715 C1714 1.334 . S
C1715 C1716 1.287 . S
C1716 C1715 1.287 . S
C1716 C1717 1.524 . S
C1716 H1735 0.913 . S
C1717 H1693 0.950 . S
C1717 C1716 1.524 . S
C1717 C1718 1.415 . S
C1718 H1694 0.950 . S
C1718 C1713 1.363 . S
C1718 C1717 1.415 . S
C1719 H1695 0.951 . S
C1719 C1720 1.366 . S
C1719 C1721 1.388 . S
C1720 C1719 1.366 . S
C1720 C1724 1.385 . S
C1721 H1696 0.951 . S
C1721 C1719 1.388 . S
C1721 C1722 1.366 . S
C1722 C1721 1.366 . S
C1722 C1723 1.414 . S
C1722 C1725 1.499 . S
C1723 H1697 0.950 . S
C1723 C1722 1.414 . S
C1723 C1724 1.374 . S
C1724 H1698 0.950 . S
C1724 C1720 1.385 . S
C1724 C1723 1.374 . S
C1725 C1722 1.499 . S
C1725 C1726 1.373 . S
C1725 C1727 1.389 . S
C1726 H1699 0.950 . S
C1726 C1712 1.377 . S
C1726 C1725 1.373 . S
C1727 C1711 1.377 . S
C1727 C1725 1.389 . S
C1727 C1728 1.524 . S
C1728 C1727 1.524 . S
C1728 C1729 1.397 . S
C1728 C1733 1.363 . S
C1729 H1700 0.950 . S
C1729 C1728 1.397 . S
C1729 C1730 1.334 . S
C1730 H1701 0.950 . S
C1730 C1729 1.334 . S
C1730 C1731 1.287 . S
C1731 C1730 1.287 . S
C1731 C1732 1.524 . S
C1731 H1734 0.999 . S
C1732 H1702 0.950 . S
C1732 C1731 1.524 . S
C1732 C1733 1.415 . S
C1733 H1703 0.950 . S
C1733 C1728 1.363 . S
C1733 C1732 1.415 . S
H1734 C1731 0.999 . S
H1735 C1716 0.913 . S
H1736 C1754 0.951 . S
H1737 C1756 0.951 . S
H1738 C1758 0.950 . S
H1739 C1759 0.950 . S
H1740 C1761 0.950 . S
H1741 C1764 0.950 . S
H1742 C1765 0.950 . S
H1743 C1767 0.950 . S
H1744 C1768 0.950 . S
H1745 C1769 0.951 . S
H1746 C1771 0.951 . S
H1747 C1773 0.950 . S
H1748 C1774 0.950 . S
H1749 C1776 0.950 . S
H1750 C1779 0.950 . S
H1751 C1780 0.950 . S
H1752 C1782 0.950 . S
H1753 C1783 0.950 . S
C1754 H1736 0.951 . S
C1754 C1755 1.366 . S
C1754 C1756 1.388 . S
C1755 C1754 1.366 . S
C1755 C1759 1.385 . S
C1756 H1737 0.951 . S
C1756 C1754 1.388 . S
C1756 C1757 1.366 . S
C1757 C1756 1.366 . S
C1757 C1758 1.414 . S
C1757 C1760 1.499 . S
C1758 H1738 0.950 . S
C1758 C1757 1.414 . S
C1758 C1759 1.374 . S
C1759 H1739 0.950 . S
C1759 C1755 1.385 . S
C1759 C1758 1.374 . S
C1760 C1757 1.499 . S
C1760 C1761 1.373 . S
C1760 C1762 1.389 . S
C1761 H1740 0.950 . S
C1761 C1760 1.373 . S
C1761 C1777 1.377 . S
C1762 C1760 1.389 . S
C1762 C1763 1.524 . S
C1762 C1776 1.377 . S
C1763 C1762 1.524 . S
C1763 C1764 1.397 . S
C1763 C1768 1.363 . S
C1764 H1741 0.950 . S
C1764 C1763 1.397 . S
C1764 C1765 1.334 . S
C1765 H1742 0.950 . S
C1765 C1764 1.334 . S
C1765 C1766 1.287 . S
C1766 C1765 1.287 . S
C1766 C1767 1.524 . S
C1766 H1785 0.913 . S
C1767 H1743 0.950 . S
C1767 C1766 1.524 . S
C1767 C1768 1.415 . S
C1768 H1744 0.950 . S
C1768 C1763 1.363 . S
C1768 C1767 1.415 . S
C1769 H1745 0.951 . S
C1769 C1770 1.366 . S
C1769 C1771 1.388 . S
C1770 C1769 1.366 . S
C1770 C1774 1.385 . S
C1771 H1746 0.951 . S
C1771 C1769 1.388 . S
C1771 C1772 1.366 . S
C1772 C1771 1.366 . S
C1772 C1773 1.414 . S
C1772 C1775 1.499 . S
C1773 H1747 0.950 . S
C1773 C1772 1.414 . S
C1773 C1774 1.374 . S
C1774 H1748 0.950 . S
C1774 C1770 1.385 . S
C1774 C1773 1.374 . S
C1775 C1772 1.499 . S
C1775 C1776 1.373 . S
C1775 C1777 1.389 . S
C1776 H1749 0.950 . S
C1776 C1762 1.377 . S
C1776 C1775 1.373 . S
C1777 C1761 1.377 . S
C1777 C1775 1.389 . S
C1777 C1778 1.524 . S
C1778 C1777 1.524 . S
C1778 C1779 1.397 . S
C1778 C1783 1.363 . S
C1779 H1750 0.950 . S
C1779 C1778 1.397 . S
C1779 C1780 1.334 . S
C1780 H1751 0.950 . S
C1780 C1779 1.334 . S
C1780 C1781 1.287 . S
C1781 C1780 1.287 . S
C1781 C1782 1.524 . S
C1781 H1784 0.999 . S
C1782 H1752 0.950 . S
C1782 C1781 1.524 . S
C1782 C1783 1.415 . S
C1783 H1753 0.950 . S
C1783 C1778 1.363 . S
C1783 C1782 1.415 . S
H1784 C1781 0.999 . S
H1785 C1766 0.913 . S
H1786 C1804 0.951 . S
H1787 C1806 0.951 . S
H1788 C1808 0.950 . S
H1789 C1809 0.950 . S
H1790 C1811 0.950 . S
H1791 C1814 0.950 . S
H1792 C1815 0.950 . S
H1793 C1817 0.950 . S
H1794 C1818 0.950 . S
H1795 C1819 0.951 . S
H1796 C1821 0.951 . S
H1797 C1823 0.950 . S
H1798 C1824 0.950 . S
H1799 C1826 0.950 . S
H1800 C1829 0.950 . S
H1801 C1830 0.950 . S
H1802 C1832 0.950 . S
H1803 C1833 0.950 . S
C1804 H1786 0.951 . S
C1804 C1805 1.366 . S
C1804 C1806 1.388 . S
C1805 C1804 1.366 . S
C1805 C1809 1.385 . S
C1806 H1787 0.951 . S
C1806 C1804 1.388 . S
C1806 C1807 1.366 . S
C1807 C1806 1.366 . S
C1807 C1808 1.414 . S
C1807 C1810 1.499 . S
C1808 H1788 0.950 . S
C1808 C1807 1.414 . S
C1808 C1809 1.374 . S
C1809 H1789 0.950 . S
C1809 C1805 1.385 . S
C1809 C1808 1.374 . S
C1810 C1807 1.499 . S
C1810 C1811 1.373 . S
C1810 C1812 1.389 . S
C1811 H1790 0.950 . S
C1811 C1810 1.373 . S
C1811 C1827 1.377 . S
C1812 C1810 1.389 . S
C1812 C1813 1.524 . S
C1812 C1826 1.377 . S
C1813 C1812 1.524 . S
C1813 C1814 1.397 . S
C1813 C1818 1.363 . S
C1814 H1791 0.950 . S
C1814 C1813 1.397 . S
C1814 C1815 1.334 . S
C1815 H1792 0.950 . S
C1815 C1814 1.334 . S
C1815 C1816 1.287 . S
C1816 C1815 1.287 . S
C1816 C1817 1.524 . S
C1816 H1835 0.913 . S
C1817 H1793 0.950 . S
C1817 C1816 1.524 . S
C1817 C1818 1.415 . S
C1818 H1794 0.950 . S
C1818 C1813 1.363 . S
C1818 C1817 1.415 . S
C1819 H1795 0.951 . S
C1819 C1820 1.366 . S
C1819 C1821 1.388 . S
C1820 C1819 1.366 . S
C1820 C1824 1.385 . S
C1821 H1796 0.951 . S
C1821 C1819 1.388 . S
C1821 C1822 1.366 . S
C1822 C1821 1.366 . S
C1822 C1823 1.414 . S
C1822 C1825 1.499 . S
C1823 H1797 0.950 . S
C1823 C1822 1.414 . S
C1823 C1824 1.374 . S
C1824 H1798 0.950 . S
C1824 C1820 1.385 . S
C1824 C1823 1.374 . S
C1825 C1822 1.499 . S
C1825 C1826 1.373 . S
C1825 C1827 1.389 . S
C1826 H1799 0.950 . S
C1826 C1812 1.377 . S
C1826 C1825 1.373 . S
C1827 C1811 1.377 . S
C1827 C1825 1.389 . S
C1827 C1828 1.524 . S
C1828 C1827 1.524 . S
C1828 C1829 1.397 . S
C1828 C1833 1.363 . S
C1829 H1800 0.950 . S
C1829 C1828 1.397 . S
C1829 C1830 1.334 . S
C1830 H1801 0.950 . S
C1830 C1829 1.334 . S
C1830 C1831 1.287 . S
C1831 C1830 1.287 . S
C1831 C1832 1.524 . S
C1831 H1834 0.999 . S
C1832 H1802 0.950 . S
C1832 C1831 1.524 . S
C1832 C1833 1.415 . S
C1833 H1803 0.950 . S
C1833 C1828 1.363 . S
C1833 C1832 1.415 . S
H1834 C1831 0.999 . S
H1835 C1816 0.913 . S
H1836 C1854 0.951 . S
H1837 C1856 0.951 . S
H1838 C1858 0.950 . S
H1839 C1859 0.950 . S
H1840 C1861 0.950 . S
H1841 C1864 0.950 . S
H1842 C1865 0.950 . S
H1843 C1867 0.950 . S
H1844 C1868 0.950 . S
H1845 C1869 0.951 . S
H1846 C1871 0.951 . S
H1847 C1873 0.950 . S
H1848 C1874 0.950 . S
H1849 C1876 0.950 . S
H1850 C1879 0.950 . S
H1851 C1880 0.950 . S
H1852 C1882 0.950 . S
H1853 C1883 0.950 . S
C1854 H1836 0.951 . S
C1854 C1855 1.366 . S
C1854 C1856 1.388 . S
C1855 C1854 1.366 . S
C1855 C1859 1.385 . S
C1856 H1837 0.951 . S
C1856 C1854 1.388 . S
C1856 C1857 1.366 . S
C1857 C1856 1.366 . S
C1857 C1858 1.414 . S
C1857 C1860 1.499 . S
C1858 H1838 0.950 . S
C1858 C1857 1.414 . S
C1858 C1859 1.374 . S
C1859 H1839 0.950 . S
C1859 C1855 1.385 . S
C1859 C1858 1.374 . S
C1860 C1857 1.499 . S
C1860 C1861 1.373 . S
C1860 C1862 1.389 . S
C1861 H1840 0.950 . S
C1861 C1860 1.373 . S
C1861 C1877 1.377 . S
C1862 C1860 1.389 . S
C1862 C1863 1.524 . S
C1862 C1876 1.377 . S
C1863 C1862 1.524 . S
C1863 C1864 1.397 . S
C1863 C1868 1.363 . S
C1864 H1841 0.950 . S
C1864 C1863 1.397 . S
C1864 C1865 1.334 . S
C1865 H1842 0.950 . S
C1865 C1864 1.334 . S
C1865 C1866 1.287 . S
C1866 C1865 1.287 . S
C1866 C1867 1.524 . S
C1866 H1885 0.913 . S
C1867 H1843 0.950 . S
C1867 C1866 1.524 . S
C1867 C1868 1.415 . S
C1868 H1844 0.950 . S
C1868 C1863 1.363 . S
C1868 C1867 1.415 . S
C1869 H1845 0.951 . S
C1869 C1870 1.366 . S
C1869 C1871 1.388 . S
C1870 C1869 1.366 . S
C1870 C1874 1.385 . S
C1871 H1846 0.951 . S
C1871 C1869 1.388 . S
C1871 C1872 1.366 . S
C1872 C1871 1.366 . S
C1872 C1873 1.414 . S
C1872 C1875 1.499 . S
C1873 H1847 0.950 . S
C1873 C1872 1.414 . S
C1873 C1874 1.374 . S
C1874 H1848 0.950 . S
C1874 C1870 1.385 . S
C1874 C1873 1.374 . S
C1875 C1872 1.499 . S
C1875 C1876 1.373 . S
C1875 C1877 1.389 . S
C1876 H1849 0.950 . S
C1876 C1862 1.377 . S
C1876 C1875 1.373 . S
C1877 C1861 1.377 . S
C1877 C1875 1.389 . S
C1877 C1878 1.524 . S
C1878 C1877 1.524 . S
C1878 C1879 1.397 . S
C1878 C1883 1.363 . S
C1879 H1850 0.950 . S
C1879 C1878 1.397 . S
C1879 C1880 1.334 . S
C1880 H1851 0.950 . S
C1880 C1879 1.334 . S
C1880 C1881 1.287 . S
C1881 C1880 1.287 . S
C1881 C1882 1.524 . S
C1881 H1884 0.999 . S
C1882 H1852 0.950 . S
C1882 C1881 1.524 . S
C1882 C1883 1.415 . S
C1883 H1853 0.950 . S
C1883 C1878 1.363 . S
C1883 C1882 1.415 . S
H1884 C1881 0.999 . S
H1885 C1866 0.913 . S
H1886 C1904 0.951 . S
H1887 C1906 0.951 . S
H1888 C1908 0.950 . S
H1889 C1909 0.950 . S
H1890 C1911 0.950 . S
H1891 C1914 0.950 . S
H1892 C1915 0.950 . S
H1893 C1917 0.950 . S
H1894 C1918 0.950 . S
H1895 C1919 0.951 . S
H1896 C1921 0.951 . S
H1897 C1923 0.950 . S
H1898 C1924 0.950 . S
H1899 C1926 0.950 . S
H1900 C1929 0.950 . S
H1901 C1930 0.950 . S
H1902 C1932 0.950 . S
H1903 C1933 0.950 . S
C1904 H1886 0.951 . S
C1904 C1905 1.366 . S
C1904 C1906 1.388 . S
C1905 C1904 1.366 . S
C1905 C1909 1.385 . S
C1906 H1887 0.951 . S
C1906 C1904 1.388 . S
C1906 C1907 1.366 . S
C1907 C1906 1.366 . S
C1907 C1908 1.414 . S
C1907 C1910 1.499 . S
C1908 H1888 0.950 . S
C1908 C1907 1.414 . S
C1908 C1909 1.374 . S
C1909 H1889 0.950 . S
C1909 C1905 1.385 . S
C1909 C1908 1.374 . S
C1910 C1907 1.499 . S
C1910 C1911 1.373 . S
C1910 C1912 1.389 . S
C1911 H1890 0.950 . S
C1911 C1910 1.373 . S
C1911 C1927 1.377 . S
C1912 C1910 1.389 . S
C1912 C1913 1.524 . S
C1912 C1926 1.377 . S
C1913 C1912 1.524 . S
C1913 C1914 1.397 . S
C1913 C1918 1.363 . S
C1914 H1891 0.950 . S
C1914 C1913 1.397 . S
C1914 C1915 1.334 . S
C1915 H1892 0.950 . S
C1915 C1914 1.334 . S
C1915 C1916 1.287 . S
C1916 C1915 1.287 . S
C1916 C1917 1.524 . S
C1916 H1935 0.913 . S
C1917 H1893 0.950 . S
C1917 C1916 1.524 . S
C1917 C1918 1.415 . S
C1918 H1894 0.950 . S
C1918 C1913 1.363 . S
C1918 C1917 1.415 . S
C1919 H1895 0.951 . S
C1919 C1920 1.366 . S
C1919 C1921 1.388 . S
C1920 C1919 1.366 . S
C1920 C1924 1.385 . S
C1921 H1896 0.951 . S
C1921 C1919 1.388 . S
C1921 C1922 1.366 . S
C1922 C1921 1.366 . S
C1922 C1923 1.414 . S
C1922 C1925 1.499 . S
C1923 H1897 0.950 . S
C1923 C1922 1.414 . S
C1923 C1924 1.374 . S
C1924 H1898 0.950 . S
C1924 C1920 1.385 . S
C1924 C1923 1.374 . S
C1925 C1922 1.499 . S
C1925 C1926 1.373 . S
C1925 C1927 1.389 . S
C1926 H1899 0.950 . S
C1926 C1912 1.377 . S
C1926 C1925 1.373 . S
C1927 C1911 1.377 . S
C1927 C1925 1.389 . S
C1927 C1928 1.524 . S
C1928 C1927 1.524 . S
C1928 C1929 1.397 . S
C1928 C1933 1.363 . S
C1929 H1900 0.950 . S
C1929 C1928 1.397 . S
C1929 C1930 1.334 . S
C1930 H1901 0.950 . S
C1930 C1929 1.334 . S
C1930 C1931 1.287 . S
C1931 C1930 1.287 . S
C1931 C1932 1.524 . S
C1931 H1934 0.999 . S
C1932 H1902 0.950 . S
C1932 C1931 1.524 . S
C1932 C1933 1.415 . S
C1933 H1903 0.950 . S
C1933 C1928 1.363 . S
C1933 C1932 1.415 . S
H1934 C1931 0.999 . S
H1935 C1916 0.913 . S
H1936 C1954 0.951 . S
H1937 C1956 0.951 . S
H1938 C1958 0.950 . S
H1939 C1959 0.950 . S
H1940 C1961 0.950 . S
H1941 C1964 0.950 . S
H1942 C1965 0.950 . S
H1943 C1967 0.950 . S
H1944 C1968 0.950 . S
H1945 C1969 0.951 . S
H1946 C1971 0.951 . S
H1947 C1973 0.950 . S
H1948 C1974 0.950 . S
H1949 C1976 0.950 . S
H1950 C1979 0.950 . S
H1951 C1980 0.950 . S
H1952 C1982 0.950 . S
H1953 C1983 0.950 . S
C1954 H1936 0.951 . S
C1954 C1955 1.366 . S
C1954 C1956 1.388 . S
C1955 C1954 1.366 . S
C1955 C1959 1.385 . S
C1956 H1937 0.951 . S
C1956 C1954 1.388 . S
C1956 C1957 1.366 . S
C1957 C1956 1.366 . S
C1957 C1958 1.414 . S
C1957 C1960 1.499 . S
C1958 H1938 0.950 . S
C1958 C1957 1.414 . S
C1958 C1959 1.374 . S
C1959 H1939 0.950 . S
C1959 C1955 1.385 . S
C1959 C1958 1.374 . S
C1960 C1957 1.499 . S
C1960 C1961 1.373 . S
C1960 C1962 1.389 . S
C1961 H1940 0.950 . S
C1961 C1960 1.373 . S
C1961 C1977 1.377 . S
C1962 C1960 1.389 . S
C1962 C1963 1.524 . S
C1962 C1976 1.377 . S
C1963 C1962 1.524 . S
C1963 C1964 1.397 . S
C1963 C1968 1.363 . S
C1964 H1941 0.950 . S
C1964 C1963 1.397 . S
C1964 C1965 1.334 . S
C1965 H1942 0.950 . S
C1965 C1964 1.334 . S
C1965 C1966 1.287 . S
C1966 C1965 1.287 . S
C1966 C1967 1.524 . S
C1966 H1985 0.913 . S
C1967 H1943 0.950 . S
C1967 C1966 1.524 . S
C1967 C1968 1.415 . S
C1968 H1944 0.950 . S
C1968 C1963 1.363 . S
C1968 C1967 1.415 . S
C1969 H1945 0.951 . S
C1969 C1970 1.366 . S
C1969 C1971 1.388 . S
C1970 C1969 1.366 . S
C1970 C1974 1.385 . S
C1971 H1946 0.951 . S
C1971 C1969 1.388 . S
C1971 C1972 1.366 . S
C1972 C1971 1.366 . S
C1972 C1973 1.414 . S
C1972 C1975 1.499 . S
C1973 H1947 0.950 . S
C1973 C1972 1.414 . S
C1973 C1974 1.374 . S
C1974 H1948 0.950 . S
C1974 C1970 1.385 . S
C1974 C1973 1.374 . S
C1975 C1972 1.499 . S
C1975 C1976 1.373 . S
C1975 C1977 1.389 . S
C1976 H1949 0.950 . S
C1976 C1962 1.377 . S
C1976 C1975 1.373 . S
C1977 C1961 1.377 . S
C1977 C1975 1.389 . S
C1977 C1978 1.524 . S
C1978 C1977 1.524 . S
C1978 C1979 1.397 . S
C1978 C1983 1.363 . S
C1979 H1950 0.950 . S
C1979 C1978 1.397 . S
C1979 C1980 1.334 . S
C1980 H1951 0.950 . S
C1980 C1979 1.334 . S
C1980 C1981 1.287 . S
C1981 C1980 1.287 . S
C1981 C1982 1.524 . S
C1981 H1984 0.999 . S
C1982 H1952 0.950 . S
C1982 C1981 1.524 . S
C1982 C1983 1.415 . S
C1983 H1953 0.950 . S
C1983 C1978 1.363 . S
C1983 C1982 1.415 . S
H1984 C1981 0.999 . S
H1985 C1966 0.913 . S
H1986 C2004 0.951 . S
H1987 C2006 0.951 . S
H1988 C2008 0.950 . S
H1989 C2009 0.950 . S
H1990 C2011 0.950 . S
H1991 C2014 0.950 . S
H1992 C2015 0.950 . S
H1993 C2017 0.950 . S
H1994 C2018 0.950 . S
H1995 C2019 0.951 . S
H1996 C2021 0.951 . S
H1997 C2023 0.950 . S
H1998 C2024 0.950 . S
H1999 C2026 0.950 . S
H2000 C2029 0.950 . S
H2001 C2030 0.950 . S
H2002 C2032 0.950 . S
H2003 C2033 0.950 . S
C2004 H1986 0.951 . S
C2004 C2005 1.366 . S
C2004 C2006 1.388 . S
C2005 C2004 1.366 . S
C2005 C2009 1.385 . S
C2006 H1987 0.951 . S
C2006 C2004 1.388 . S
C2006 C2007 1.366 . S
C2007 C2006 1.366 . S
C2007 C2008 1.414 . S
C2007 C2010 1.499 . S
C2008 H1988 0.950 . S
C2008 C2007 1.414 . S
C2008 C2009 1.374 . S
C2009 H1989 0.950 . S
C2009 C2005 1.385 . S
C2009 C2008 1.374 . S
C2010 C2007 1.499 . S
C2010 C2011 1.373 . S
C2010 C2012 1.389 . S
C2011 H1990 0.950 . S
C2011 C2010 1.373 . S
C2011 C2027 1.377 . S
C2012 C2010 1.389 . S
C2012 C2013 1.524 . S
C2012 C2026 1.377 . S
C2013 C2012 1.524 . S
C2013 C2014 1.397 . S
C2013 C2018 1.363 . S
C2014 H1991 0.950 . S
C2014 C2013 1.397 . S
C2014 C2015 1.334 . S
C2015 H1992 0.950 . S
C2015 C2014 1.334 . S
C2015 C2016 1.287 . S
C2016 C2015 1.287 . S
C2016 C2017 1.524 . S
C2016 H2035 0.913 . S
C2017 H1993 0.950 . S
C2017 C2016 1.524 . S
C2017 C2018 1.415 . S
C2018 H1994 0.950 . S
C2018 C2013 1.363 . S
C2018 C2017 1.415 . S
C2019 H1995 0.951 . S
C2019 C2020 1.366 . S
C2019 C2021 1.388 . S
C2020 C2019 1.366 . S
C2020 C2024 1.385 . S
C2021 H1996 0.951 . S
C2021 C2019 1.388 . S
C2021 C2022 1.366 . S
C2022 C2021 1.366 . S
C2022 C2023 1.414 . S
C2022 C2025 1.499 . S
C2023 H1997 0.950 . S
C2023 C2022 1.414 . S
C2023 C2024 1.374 . S
C2024 H1998 0.950 . S
C2024 C2020 1.385 . S
C2024 C2023 1.374 . S
C2025 C2022 1.499 . S
C2025 C2026 1.373 . S
C2025 C2027 1.389 . S
C2026 H1999 0.950 . S
C2026 C2012 1.377 . S
C2026 C2025 1.373 . S
C2027 C2011 1.377 . S
C2027 C2025 1.389 . S
C2027 C2028 1.524 . S
C2028 C2027 1.524 . S
C2028 C2029 1.397 . S
C2028 C2033 1.363 . S
C2029 H2000 0.950 . S
C2029 C2028 1.397 . S
C2029 C2030 1.334 . S
C2030 H2001 0.950 . S
C2030 C2029 1.334 . S
C2030 C2031 1.287 . S
C2031 C2030 1.287 . S
C2031 C2032 1.524 . S
C2031 H2034 0.999 . S
C2032 H2002 0.950 . S
C2032 C2031 1.524 . S
C2032 C2033 1.415 . S
C2033 H2003 0.950 . S
C2033 C2028 1.363 . S
C2033 C2032 1.415 . S
H2034 C2031 0.999 . S
H2035 C2016 0.913 . S
H2036 C2054 0.951 . S
H2037 C2056 0.951 . S
H2038 C2058 0.950 . S
H2039 C2059 0.950 . S
H2040 C2061 0.950 . S
H2041 C2064 0.950 . S
H2042 C2065 0.950 . S
H2043 C2067 0.950 . S
H2044 C2068 0.950 . S
H2045 C2069 0.951 . S
H2046 C2071 0.951 . S
H2047 C2073 0.950 . S
H2048 C2074 0.950 . S
H2049 C2076 0.950 . S
H2050 C2079 0.950 . S
H2051 C2080 0.950 . S
H2052 C2082 0.950 . S
H2053 C2083 0.950 . S
C2054 H2036 0.951 . S
C2054 C2055 1.366 . S
C2054 C2056 1.388 . S
C2055 C2054 1.366 . S
C2055 C2059 1.385 . S
C2056 H2037 0.951 . S
C2056 C2054 1.388 . S
C2056 C2057 1.366 . S
C2057 C2056 1.366 . S
C2057 C2058 1.414 . S
C2057 C2060 1.499 . S
C2058 H2038 0.950 . S
C2058 C2057 1.414 . S
C2058 C2059 1.374 . S
C2059 H2039 0.950 . S
C2059 C2055 1.385 . S
C2059 C2058 1.374 . S
C2060 C2057 1.499 . S
C2060 C2061 1.373 . S
C2060 C2062 1.389 . S
C2061 H2040 0.950 . S
C2061 C2060 1.373 . S
C2061 C2077 1.377 . S
C2062 C2060 1.389 . S
C2062 C2063 1.524 . S
C2062 C2076 1.377 . S
C2063 C2062 1.524 . S
C2063 C2064 1.397 . S
C2063 C2068 1.363 . S
C2064 H2041 0.950 . S
C2064 C2063 1.397 . S
C2064 C2065 1.334 . S
C2065 H2042 0.950 . S
C2065 C2064 1.334 . S
C2065 C2066 1.287 . S
C2066 C2065 1.287 . S
C2066 C2067 1.524 . S
C2066 H2085 0.913 . S
C2067 H2043 0.950 . S
C2067 C2066 1.524 . S
C2067 C2068 1.415 . S
C2068 H2044 0.950 . S
C2068 C2063 1.363 . S
C2068 C2067 1.415 . S
C2069 H2045 0.951 . S
C2069 C2070 1.366 . S
C2069 C2071 1.388 . S
C2070 C2069 1.366 . S
C2070 C2074 1.385 . S
C2071 H2046 0.951 . S
C2071 C2069 1.388 . S
C2071 C2072 1.366 . S
C2072 C2071 1.366 . S
C2072 C2073 1.414 . S
C2072 C2075 1.499 . S
C2073 H2047 0.950 . S
C2073 C2072 1.414 . S
C2073 C2074 1.374 . S
C2074 H2048 0.950 . S
C2074 C2070 1.385 . S
C2074 C2073 1.374 . S
C2075 C2072 1.499 . S
C2075 C2076 1.373 . S
C2075 C2077 1.389 . S
C2076 H2049 0.950 . S
C2076 C2062 1.377 . S
C2076 C2075 1.373 . S
C2077 C2061 1.377 . S
C2077 C2075 1.389 . S
C2077 C2078 1.524 . S
C2078 C2077 1.524 . S
C2078 C2079 1.397 . S
C2078 C2083 1.363 . S
C2079 H2050 0.950 . S
C2079 C2078 1.397 . S
C2079 C2080 1.334 . S
C2080 H2051 0.950 . S
C2080 C2079 1.334 . S
C2080 C2081 1.287 . S
C2081 C2080 1.287 . S
C2081 C2082 1.524 . S
C2081 H2084 0.999 . S
C2082 H2052 0.950 . S
C2082 C2081 1.524 . S
C2082 C2083 1.415 . S
C2083 H2053 0.950 . S
C2083 C2078 1.363 . S
C2083 C2082 1.415 . S
H2084 C2081 0.999 . S
H2085 C2066 0.913 . S
H2086 C2104 0.951 . S
H2087 C2106 0.951 . S
H2088 C2108 0.950 . S
H2089 C2109 0.950 . S
H2090 C2111 0.950 . S
H2091 C2114 0.950 . S
H2092 C2115 0.950 . S
H2093 C2117 0.950 . S
H2094 C2118 0.950 . S
H2095 C2119 0.951 . S
H2096 C2121 0.951 . S
H2097 C2123 0.950 . S
H2098 C2124 0.950 . S
H2099 C2126 0.950 . S
H2100 C2129 0.950 . S
H2101 C2130 0.950 . S
H2102 C2132 0.950 . S
H2103 C2133 0.950 . S
C2104 H2086 0.951 . S
C2104 C2105 1.366 . S
C2104 C2106 1.388 . S
C2105 C2104 1.366 . S
C2105 C2109 1.385 . S
C2106 H2087 0.951 . S
C2106 C2104 1.388 . S
C2106 C2107 1.366 . S
C2107 C2106 1.366 . S
C2107 C2108 1.414 . S
C2107 C2110 1.499 . S
C2108 H2088 0.950 . S
C2108 C2107 1.414 . S
C2108 C2109 1.374 . S
C2109 H2089 0.950 . S
C2109 C2105 1.385 . S
C2109 C2108 1.374 . S
C2110 C2107 1.499 . S
C2110 C2111 1.373 . S
C2110 C2112 1.389 . S
C2111 H2090 0.950 . S
C2111 C2110 1.373 . S
C2111 C2127 1.377 . S
C2112 C2110 1.389 . S
C2112 C2113 1.524 . S
C2112 C2126 1.377 . S
C2113 C2112 1.524 . S
C2113 C2114 1.397 . S
C2113 C2118 1.363 . S
C2114 H2091 0.950 . S
C2114 C2113 1.397 . S
C2114 C2115 1.334 . S
C2115 H2092 0.950 . S
C2115 C2114 1.334 . S
C2115 C2116 1.287 . S
C2116 C2115 1.287 . S
C2116 C2117 1.524 . S
C2116 H2135 0.913 . S
C2117 H2093 0.950 . S
C2117 C2116 1.524 . S
C2117 C2118 1.415 . S
C2118 H2094 0.950 . S
C2118 C2113 1.363 . S
C2118 C2117 1.415 . S
C2119 H2095 0.951 . S
C2119 C2120 1.366 . S
C2119 C2121 1.388 . S
C2120 C2119 1.366 . S
C2120 C2124 1.385 . S
C2121 H2096 0.951 . S
C2121 C2119 1.388 . S
C2121 C2122 1.366 . S
C2122 C2121 1.366 . S
C2122 C2123 1.414 . S
C2122 C2125 1.499 . S
C2123 H2097 0.950 . S
C2123 C2122 1.414 . S
C2123 C2124 1.374 . S
C2124 H2098 0.950 . S
C2124 C2120 1.385 . S
C2124 C2123 1.374 . S
C2125 C2122 1.499 . S
C2125 C2126 1.373 . S
C2125 C2127 1.389 . S
C2126 H2099 0.950 . S
C2126 C2112 1.377 . S
C2126 C2125 1.373 . S
C2127 C2111 1.377 . S
C2127 C2125 1.389 . S
C2127 C2128 1.524 . S
C2128 C2127 1.524 . S
C2128 C2129 1.397 . S
C2128 C2133 1.363 . S
C2129 H2100 0.950 . S
C2129 C2128 1.397 . S
C2129 C2130 1.334 . S
C2130 H2101 0.950 . S
C2130 C2129 1.334 . S
C2130 C2131 1.287 . S
C2131 C2130 1.287 . S
C2131 C2132 1.524 . S
C2131 H2134 0.999 . S
C2132 H2102 0.950 . S
C2132 C2131 1.524 . S
C2132 C2133 1.415 . S
C2133 H2103 0.950 . S
C2133 C2128 1.363 . S
C2133 C2132 1.415 . S
H2134 C2131 0.999 . S
H2135 C2116 0.913 . S
H2136 C2154 0.951 . S
H2137 C2156 0.951 . S
H2138 C2158 0.950 . S
H2139 C2159 0.950 . S
H2140 C2161 0.950 . S
H2141 C2164 0.950 . S
H2142 C2165 0.950 . S
H2143 C2167 0.950 . S
H2144 C2168 0.950 . S
H2145 C2169 0.951 . S
H2146 C2171 0.951 . S
H2147 C2173 0.950 . S
H2148 C2174 0.950 . S
H2149 C2176 0.950 . S
H2150 C2179 0.950 . S
H2151 C2180 0.950 . S
H2152 C2182 0.950 . S
H2153 C2183 0.950 . S
C2154 H2136 0.951 . S
C2154 C2155 1.366 . S
C2154 C2156 1.388 . S
C2155 C2154 1.366 . S
C2155 C2159 1.385 . S
C2156 H2137 0.951 . S
C2156 C2154 1.388 . S
C2156 C2157 1.366 . S
C2157 C2156 1.366 . S
C2157 C2158 1.414 . S
C2157 C2160 1.499 . S
C2158 H2138 0.950 . S
C2158 C2157 1.414 . S
C2158 C2159 1.374 . S
C2159 H2139 0.950 . S
C2159 C2155 1.385 . S
C2159 C2158 1.374 . S
C2160 C2157 1.499 . S
C2160 C2161 1.373 . S
C2160 C2162 1.389 . S
C2161 H2140 0.950 . S
C2161 C2160 1.373 . S
C2161 C2177 1.377 . S
C2162 C2160 1.389 . S
C2162 C2163 1.524 . S
C2162 C2176 1.377 . S
C2163 C2162 1.524 . S
C2163 C2164 1.397 . S
C2163 C2168 1.363 . S
C2164 H2141 0.950 . S
C2164 C2163 1.397 . S
C2164 C2165 1.334 . S
C2165 H2142 0.950 . S
C2165 C2164 1.334 . S
C2165 C2166 1.287 . S
C2166 C2165 1.287 . S
C2166 C2167 1.524 . S
C2166 H2185 0.913 . S
C2167 H2143 0.950 . S
C2167 C2166 1.524 . S
C2167 C2168 1.415 . S
C2168 H2144 0.950 . S
C2168 C2163 1.363 . S
C2168 C2167 1.415 . S
C2169 H2145 0.951 . S
C2169 C2170 1.366 . S
C2169 C2171 1.388 . S
C2170 C2169 1.366 . S
C2170 C2174 1.385 . S
C2171 H2146 0.951 . S
C2171 C2169 1.388 . S
C2171 C2172 1.366 . S
C2172 C2171 1.366 . S
C2172 C2173 1.414 . S
C2172 C2175 1.499 . S
C2173 H2147 0.950 . S
C2173 C2172 1.414 . S
C2173 C2174 1.374 . S
C2174 H2148 0.950 . S
C2174 C2170 1.385 . S
C2174 C2173 1.374 . S
C2175 C2172 1.499 . S
C2175 C2176 1.373 . S
C2175 C2177 1.389 . S
C2176 H2149 0.950 . S
C2176 C2162 1.377 . S
C2176 C2175 1.373 . S
C2177 C2161 1.377 . S
C2177 C2175 1.389 . S
C2177 C2178 1.524 . S
C2178 C2177 1.524 . S
C2178 C2179 1.397 . S
C2178 C2183 1.363 . S
C2179 H2150 0.950 . S
C2179 C2178 1.397 . S
C2179 C2180 1.334 . S
C2180 H2151 0.950 . S
C2180 C2179 1.334 . S
C2180 C2181 1.287 . S
C2181 C2180 1.287 . S
C2181 C2182 1.524 . S
C2181 H2184 0.999 . S
C2182 H2152 0.950 . S
C2182 C2181 1.524 . S
C2182 C2183 1.415 . S
C2183 H2153 0.950 . S
C2183 C2178 1.363 . S
C2183 C2182 1.415 . S
H2184 C2181 0.999 . S
H2185 C2166 0.913 . S
H2186 C2204 0.951 . S
H2187 C2206 0.951 . S
H2188 C2208 0.950 . S
H2189 C2209 0.950 . S
H2190 C2211 0.950 . S
H2191 C2214 0.950 . S
H2192 C2215 0.950 . S
H2193 C2217 0.950 . S
H2194 C2218 0.950 . S
H2195 C2219 0.951 . S
H2196 C2221 0.951 . S
H2197 C2223 0.950 . S
H2198 C2224 0.950 . S
H2199 C2226 0.950 . S
H2200 C2229 0.950 . S
H2201 C2230 0.950 . S
H2202 C2232 0.950 . S
H2203 C2233 0.950 . S
C2204 H2186 0.951 . S
C2204 C2205 1.366 . S
C2204 C2206 1.388 . S
C2205 C2204 1.366 . S
C2205 C2209 1.385 . S
C2206 H2187 0.951 . S
C2206 C2204 1.388 . S
C2206 C2207 1.366 . S
C2207 C2206 1.366 . S
C2207 C2208 1.414 . S
C2207 C2210 1.499 . S
C2208 H2188 0.950 . S
C2208 C2207 1.414 . S
C2208 C2209 1.374 . S
C2209 H2189 0.950 . S
C2209 C2205 1.385 . S
C2209 C2208 1.374 . S
C2210 C2207 1.499 . S
C2210 C2211 1.373 . S
C2210 C2212 1.389 . S
C2211 H2190 0.950 . S
C2211 C2210 1.373 . S
C2211 C2227 1.377 . S
C2212 C2210 1.389 . S
C2212 C2213 1.524 . S
C2212 C2226 1.377 . S
C2213 C2212 1.524 . S
C2213 C2214 1.397 . S
C2213 C2218 1.363 . S
C2214 H2191 0.950 . S
C2214 C2213 1.397 . S
C2214 C2215 1.334 . S
C2215 H2192 0.950 . S
C2215 C2214 1.334 . S
C2215 C2216 1.287 . S
C2216 C2215 1.287 . S
C2216 C2217 1.524 . S
C2216 H2235 0.913 . S
C2217 H2193 0.950 . S
C2217 C2216 1.524 . S
C2217 C2218 1.415 . S
C2218 H2194 0.950 . S
C2218 C2213 1.363 . S
C2218 C2217 1.415 . S
C2219 H2195 0.951 . S
C2219 C2220 1.366 . S
C2219 C2221 1.388 . S
C2220 C2219 1.366 . S
C2220 C2224 1.385 . S
C2221 H2196 0.951 . S
C2221 C2219 1.388 . S
C2221 C2222 1.366 . S
C2222 C2221 1.366 . S
C2222 C2223 1.414 . S
C2222 C2225 1.499 . S
C2223 H2197 0.950 . S
C2223 C2222 1.414 . S
C2223 C2224 1.374 . S
C2224 H2198 0.950 . S
C2224 C2220 1.385 . S
C2224 C2223 1.374 . S
C2225 C2222 1.499 . S
C2225 C2226 1.373 . S
C2225 C2227 1.389 . S
C2226 H2199 0.950 . S
C2226 C2212 1.377 . S
C2226 C2225 1.373 . S
C2227 C2211 1.377 . S
C2227 C2225 1.389 . S
C2227 C2228 1.524 . S
C2228 C2227 1.524 . S
C2228 C2229 1.397 . S
C2228 C2233 1.363 . S
C2229 H2200 0.950 . S
C2229 C2228 1.397 . S
C2229 C2230 1.334 . S
C2230 H2201 0.950 . S
C2230 C2229 1.334 . S
C2230 C2231 1.287 . S
C2231 C2230 1.287 . S
C2231 C2232 1.524 . S
C2231 H2234 0.999 . S
C2232 H2202 0.950 . S
C2232 C2231 1.524 . S
C2232 C2233 1.415 . S
C2233 H2203 0.950 . S
C2233 C2228 1.363 . S
C2233 C2232 1.415 . S
H2234 C2231 0.999 . S
H2235 C2216 0.913 . S
H2236 C2254 0.951 . S
H2237 C2256 0.951 . S
H2238 C2258 0.950 . S
H2239 C2259 0.950 . S
H2240 C2261 0.950 . S
H2241 C2264 0.950 . S
H2242 C2265 0.950 . S
H2243 C2267 0.950 . S
H2244 C2268 0.950 . S
H2245 C2269 0.951 . S
H2246 C2271 0.951 . S
H2247 C2273 0.950 . S
H2248 C2274 0.950 . S
H2249 C2276 0.950 . S
H2250 C2279 0.950 . S
H2251 C2280 0.950 . S
H2252 C2282 0.950 . S
H2253 C2283 0.950 . S
C2254 H2236 0.951 . S
C2254 C2255 1.366 . S
C2254 C2256 1.388 . S
C2255 C2254 1.366 . S
C2255 C2259 1.385 . S
C2256 H2237 0.951 . S
C2256 C2254 1.388 . S
C2256 C2257 1.366 . S
C2257 C2256 1.366 . S
C2257 C2258 1.414 . S
C2257 C2260 1.499 . S
C2258 H2238 0.950 . S
C2258 C2257 1.414 . S
C2258 C2259 1.374 . S
C2259 H2239 0.950 . S
C2259 C2255 1.385 . S
C2259 C2258 1.374 . S
C2260 C2257 1.499 . S
C2260 C2261 1.373 . S
C2260 C2262 1.389 . S
C2261 H2240 0.950 . S
C2261 C2260 1.373 . S
C2261 C2277 1.377 . S
C2262 C2260 1.389 . S
C2262 C2263 1.524 . S
C2262 C2276 1.377 . S
C2263 C2262 1.524 . S
C2263 C2264 1.397 . S
C2263 C2268 1.363 . S
C2264 H2241 0.950 . S
C2264 C2263 1.397 . S
C2264 C2265 1.334 . S
C2265 H2242 0.950 . S
C2265 C2264 1.334 . S
C2265 C2266 1.287 . S
C2266 C2265 1.287 . S
C2266 C2267 1.524 . S
C2266 H2285 0.913 . S
C2267 H2243 0.950 . S
C2267 C2266 1.524 . S
C2267 C2268 1.415 . S
C2268 H2244 0.950 . S
C2268 C2263 1.363 . S
C2268 C2267 1.415 . S
C2269 H2245 0.951 . S
C2269 C2270 1.366 . S
C2269 C2271 1.388 . S
C2270 C2269 1.366 . S
C2270 C2274 1.385 . S
C2271 H2246 0.951 . S
C2271 C2269 1.388 . S
C2271 C2272 1.366 . S
C2272 C2271 1.366 . S
C2272 C2273 1.414 . S
C2272 C2275 1.499 . S
C2273 H2247 0.950 . S
C2273 C2272 1.414 . S
C2273 C2274 1.374 . S
C2274 H2248 0.950 . S
C2274 C2270 1.385 . S
C2274 C2273 1.374 . S
C2275 C2272 1.499 . S
C2275 C2276 1.373 . S
C2275 C2277 1.389 . S
C2276 H2249 0.950 . S
C2276 C2262 1.377 . S
C2276 C2275 1.373 . S
C2277 C2261 1.377 . S
C2277 C2275 1.389 . S
C2277 C2278 1.524 . S
C2278 C2277 1.524 . S
C2278 C2279 1.397 . S
C2278 C2283 1.363 . S
C2279 H2250 0.950 . S
C2279 C2278 1.397 . S
C2279 C2280 1.334 . S
C2280 H2251 0.950 . S
C2280 C2279 1.334 . S
C2280 C2281 1.287 . S
C2281 C2280 1.287 . S
C2281 C2282 1.524 . S
C2281 H2284 0.999 . S
C2282 H2252 0.950 . S
C2282 C2281 1.524 . S
C2282 C2283 1.415 . S
C2283 H2253 0.950 . S
C2283 C2278 1.363 . S
C2283 C2282 1.415 . S
H2284 C2281 0.999 . S
H2285 C2266 0.913 . S
H2286 C2304 0.951 . S
H2287 C2306 0.951 . S
H2288 C2308 0.950 . S
H2289 C2309 0.950 . S
H2290 C2311 0.950 . S
H2291 C2314 0.950 . S
H2292 C2315 0.950 . S
H2293 C2317 0.950 . S
H2294 C2318 0.950 . S
H2295 C2319 0.951 . S
H2296 C2321 0.951 . S
H2297 C2323 0.950 . S
H2298 C2324 0.950 . S
H2299 C2326 0.950 . S
H2300 C2329 0.950 . S
H2301 C2330 0.950 . S
H2302 C2332 0.950 . S
H2303 C2333 0.950 . S
C2304 H2286 0.951 . S
C2304 C2305 1.366 . S
C2304 C2306 1.388 . S
C2305 C2304 1.366 . S
C2305 C2309 1.385 . S
C2306 H2287 0.951 . S
C2306 C2304 1.388 . S
C2306 C2307 1.366 . S
C2307 C2306 1.366 . S
C2307 C2308 1.414 . S
C2307 C2310 1.499 . S
C2308 H2288 0.950 . S
C2308 C2307 1.414 . S
C2308 C2309 1.374 . S
C2309 H2289 0.950 . S
C2309 C2305 1.385 . S
C2309 C2308 1.374 . S
C2310 C2307 1.499 . S
C2310 C2311 1.373 . S
C2310 C2312 1.389 . S
C2311 H2290 0.950 . S
C2311 C2310 1.373 . S
C2311 C2327 1.377 . S
C2312 C2310 1.389 . S
C2312 C2313 1.524 . S
C2312 C2326 1.377 . S
C2313 C2312 1.524 . S
C2313 C2314 1.397 . S
C2313 C2318 1.363 . S
C2314 H2291 0.950 . S
C2314 C2313 1.397 . S
C2314 C2315 1.334 . S
C2315 H2292 0.950 . S
C2315 C2314 1.334 . S
C2315 C2316 1.287 . S
C2316 C2315 1.287 . S
C2316 C2317 1.524 . S
C2316 H2335 0.913 . S
C2317 H2293 0.950 . S
C2317 C2316 1.524 . S
C2317 C2318 1.415 . S
C2318 H2294 0.950 . S
C2318 C2313 1.363 . S
C2318 C2317 1.415 . S
C2319 H2295 0.951 . S
C2319 C2320 1.366 . S
C2319 C2321 1.388 . S
C2320 C2319 1.366 . S
C2320 C2324 1.385 . S
C2321 H2296 0.951 . S
C2321 C2319 1.388 . S
C2321 C2322 1.366 . S
C2322 C2321 1.366 . S
C2322 C2323 1.414 . S
C2322 C2325 1.499 . S
C2323 H2297 0.950 . S
C2323 C2322 1.414 . S
C2323 C2324 1.374 . S
C2324 H2298 0.950 . S
C2324 C2320 1.385 . S
C2324 C2323 1.374 . S
C2325 C2322 1.499 . S
C2325 C2326 1.373 . S
C2325 C2327 1.389 . S
C2326 H2299 0.950 . S
C2326 C2312 1.377 . S
C2326 C2325 1.373 . S
C2327 C2311 1.377 . S
C2327 C2325 1.389 . S
C2327 C2328 1.524 . S
C2328 C2327 1.524 . S
C2328 C2329 1.397 . S
C2328 C2333 1.363 . S
C2329 H2300 0.950 . S
C2329 C2328 1.397 . S
C2329 C2330 1.334 . S
C2330 H2301 0.950 . S
C2330 C2329 1.334 . S
C2330 C2331 1.287 . S
C2331 C2330 1.287 . S
C2331 C2332 1.524 . S
C2331 H2334 0.999 . S
C2332 H2302 0.950 . S
C2332 C2331 1.524 . S
C2332 C2333 1.415 . S
C2333 H2303 0.950 . S
C2333 C2328 1.363 . S
C2333 C2332 1.415 . S
H2334 C2331 0.999 . S
H2335 C2316 0.913 . S
H2336 C2354 0.951 . S
H2337 C2356 0.951 . S
H2338 C2358 0.950 . S
H2339 C2359 0.950 . S
H2340 C2361 0.950 . S
H2341 C2364 0.950 . S
H2342 C2365 0.950 . S
H2343 C2367 0.950 . S
H2344 C2368 0.950 . S
H2345 C2369 0.951 . S
H2346 C2371 0.951 . S
H2347 C2373 0.950 . S
H2348 C2374 0.950 . S
H2349 C2376 0.950 . S
H2350 C2379 0.950 . S
H2351 C2380 0.950 . S
H2352 C2382 0.950 . S
H2353 C2383 0.950 . S
C2354 H2336 0.951 . S
C2354 C2355 1.366 . S
C2354 C2356 1.388 . S
C2355 C2354 1.366 . S
C2355 C2359 1.385 . S
C2356 H2337 0.951 . S
C2356 C2354 1.388 . S
C2356 C2357 1.366 . S
C2357 C2356 1.366 . S
C2357 C2358 1.414 . S
C2357 C2360 1.499 . S
C2358 H2338 0.950 . S
C2358 C2357 1.414 . S
C2358 C2359 1.374 . S
C2359 H2339 0.950 . S
C2359 C2355 1.385 . S
C2359 C2358 1.374 . S
C2360 C2357 1.499 . S
C2360 C2361 1.373 . S
C2360 C2362 1.389 . S
C2361 H2340 0.950 . S
C2361 C2360 1.373 . S
C2361 C2377 1.377 . S
C2362 C2360 1.389 . S
C2362 C2363 1.524 . S
C2362 C2376 1.377 . S
C2363 C2362 1.524 . S
C2363 C2364 1.397 . S
C2363 C2368 1.363 . S
C2364 H2341 0.950 . S
C2364 C2363 1.397 . S
C2364 C2365 1.334 . S
C2365 H2342 0.950 . S
C2365 C2364 1.334 . S
C2365 C2366 1.287 . S
C2366 C2365 1.287 . S
C2366 C2367 1.524 . S
C2366 H2385 0.913 . S
C2367 H2343 0.950 . S
C2367 C2366 1.524 . S
C2367 C2368 1.415 . S
C2368 H2344 0.950 . S
C2368 C2363 1.363 . S
C2368 C2367 1.415 . S
C2369 H2345 0.951 . S
C2369 C2370 1.366 . S
C2369 C2371 1.388 . S
C2370 C2369 1.366 . S
C2370 C2374 1.385 . S
C2371 H2346 0.951 . S
C2371 C2369 1.388 . S
C2371 C2372 1.366 . S
C2372 C2371 1.366 . S
C2372 C2373 1.414 . S
C2372 C2375 1.499 . S
C2373 H2347 0.950 . S
C2373 C2372 1.414 . S
C2373 C2374 1.374 . S
C2374 H2348 0.950 . S
C2374 C2370 1.385 . S
C2374 C2373 1.374 . S
C2375 C2372 1.499 . S
C2375 C2376 1.373 . S
C2375 C2377 1.389 . S
C2376 H2349 0.950 . S
C2376 C2362 1.377 . S
C2376 C2375 1.373 . S
C2377 C2361 1.377 . S
C2377 C2375 1.389 . S
C2377 C2378 1.524 . S
C2378 C2377 1.524 . S
C2378 C2379 1.397 . S
C2378 C2383 1.363 . S
C2379 H2350 0.950 . S
C2379 C2378 1.397 . S
C2379 C2380 1.334 . S
C2380 H2351 0.950 . S
C2380 C2379 1.334 . S
C2380 C2381 1.287 . S
C2381 C2380 1.287 . S
C2381 C2382 1.524 . S
C2381 H2384 0.999 . S
C2382 H2352 0.950 . S
C2382 C2381 1.524 . S
C2382 C2383 1.415 . S
C2383 H2353 0.950 . S
C2383 C2378 1.363 . S
C2383 C2382 1.415 . S
H2384 C2381 0.999 . S
H2385 C2366 0.913 . S
H2386 C2404 0.951 . S
H2387 C2406 0.951 . S
H2388 C2408 0.950 . S
H2389 C2409 0.950 . S
H2390 C2411 0.950 . S
H2391 C2414 0.950 . S
H2392 C2415 0.950 . S
H2393 C2417 0.950 . S
H2394 C2418 0.950 . S
H2395 C2419 0.951 . S
H2396 C2421 0.951 . S
H2397 C2423 0.950 . S
H2398 C2424 0.950 . S
H2399 C2426 0.950 . S
H2400 C2429 0.950 . S
H2401 C2430 0.950 . S
H2402 C2432 0.950 . S
H2403 C2433 0.950 . S
C2404 H2386 0.951 . S
C2404 C2405 1.366 . S
C2404 C2406 1.388 . S
C2405 C2404 1.366 . S
C2405 C2409 1.385 . S
C2406 H2387 0.951 . S
C2406 C2404 1.388 . S
C2406 C2407 1.366 . S
C2407 C2406 1.366 . S
C2407 C2408 1.414 . S
C2407 C2410 1.499 . S
C2408 H2388 0.950 . S
C2408 C2407 1.414 . S
C2408 C2409 1.374 . S
C2409 H2389 0.950 . S
C2409 C2405 1.385 . S
C2409 C2408 1.374 . S
C2410 C2407 1.499 . S
C2410 C2411 1.373 . S
C2410 C2412 1.389 . S
C2411 H2390 0.950 . S
C2411 C2410 1.373 . S
C2411 C2427 1.377 . S
C2412 C2410 1.389 . S
C2412 C2413 1.524 . S
C2412 C2426 1.377 . S
C2413 C2412 1.524 . S
C2413 C2414 1.397 . S
C2413 C2418 1.363 . S
C2414 H2391 0.950 . S
C2414 C2413 1.397 . S
C2414 C2415 1.334 . S
C2415 H2392 0.950 . S
C2415 C2414 1.334 . S
C2415 C2416 1.287 . S
C2416 C2415 1.287 . S
C2416 C2417 1.524 . S
C2416 H2435 0.913 . S
C2417 H2393 0.950 . S
C2417 C2416 1.524 . S
C2417 C2418 1.415 . S
C2418 H2394 0.950 . S
C2418 C2413 1.363 . S
C2418 C2417 1.415 . S
C2419 H2395 0.951 . S
C2419 C2420 1.366 . S
C2419 C2421 1.388 . S
C2420 C2419 1.366 . S
C2420 C2424 1.385 . S
C2421 H2396 0.951 . S
C2421 C2419 1.388 . S
C2421 C2422 1.366 . S
C2422 C2421 1.366 . S
C2422 C2423 1.414 . S
C2422 C2425 1.499 . S
C2423 H2397 0.950 . S
C2423 C2422 1.414 . S
C2423 C2424 1.374 . S
C2424 H2398 0.950 . S
C2424 C2420 1.385 . S
C2424 C2423 1.374 . S
C2425 C2422 1.499 . S
C2425 C2426 1.373 . S
C2425 C2427 1.389 . S
C2426 H2399 0.950 . S
C2426 C2412 1.377 . S
C2426 C2425 1.373 . S
C2427 C2411 1.377 . S
C2427 C2425 1.389 . S
C2427 C2428 1.524 . S
C2428 C2427 1.524 . S
C2428 C2429 1.397 . S
C2428 C2433 1.363 . S
C2429 H2400 0.950 . S
C2429 C2428 1.397 . S
C2429 C2430 1.334 . S
C2430 H2401 0.950 . S
C2430 C2429 1.334 . S
C2430 C2431 1.287 . S
C2431 C2430 1.287 . S
C2431 C2432 1.524 . S
C2431 H2434 0.999 . S
C2432 H2402 0.950 . S
C2432 C2431 1.524 . S
C2432 C2433 1.415 . S
C2433 H2403 0.950 . S
C2433 C2428 1.363 . S
C2433 C2432 1.415 . S
H2434 C2431 0.999 . S
H2435 C2416 0.913 . S
H2436 C2454 0.951 . S
H2437 C2456 0.951 . S
H2438 C2458 0.950 . S
H2439 C2459 0.950 . S
H2440 C2461 0.950 . S
H2441 C2464 0.950 . S
H2442 C2465 0.950 . S
H2443 C2467 0.950 . S
H2444 C2468 0.950 . S
H2445 C2469 0.951 . S
H2446 C2471 0.951 . S
H2447 C2473 0.950 . S
H2448 C2474 0.950 . S
H2449 C2476 0.950 . S
H2450 C2479 0.950 . S
H2451 C2480 0.950 . S
H2452 C2482 0.950 . S
H2453 C2483 0.950 . S
C2454 H2436 0.951 . S
C2454 C2455 1.366 . S
C2454 C2456 1.388 . S
C2455 C2454 1.366 . S
C2455 C2459 1.385 . S
C2456 H2437 0.951 . S
C2456 C2454 1.388 . S
C2456 C2457 1.366 . S
C2457 C2456 1.366 . S
C2457 C2458 1.414 . S
C2457 C2460 1.499 . S
C2458 H2438 0.950 . S
C2458 C2457 1.414 . S
C2458 C2459 1.374 . S
C2459 H2439 0.950 . S
C2459 C2455 1.385 . S
C2459 C2458 1.374 . S
C2460 C2457 1.499 . S
C2460 C2461 1.373 . S
C2460 C2462 1.389 . S
C2461 H2440 0.950 . S
C2461 C2460 1.373 . S
C2461 C2477 1.377 . S
C2462 C2460 1.389 . S
C2462 C2463 1.524 . S
C2462 C2476 1.377 . S
C2463 C2462 1.524 . S
C2463 C2464 1.397 . S
C2463 C2468 1.363 . S
C2464 H2441 0.950 . S
C2464 C2463 1.397 . S
C2464 C2465 1.334 . S
C2465 H2442 0.950 . S
C2465 C2464 1.334 . S
C2465 C2466 1.287 . S
C2466 C2465 1.287 . S
C2466 C2467 1.524 . S
C2466 H2485 0.913 . S
C2467 H2443 0.950 . S
C2467 C2466 1.524 . S
C2467 C2468 1.415 . S
C2468 H2444 0.950 . S
C2468 C2463 1.363 . S
C2468 C2467 1.415 . S
C2469 H2445 0.951 . S
C2469 C2470 1.366 . S
C2469 C2471 1.388 . S
C2470 C2469 1.366 . S
C2470 C2474 1.385 . S
C2471 H2446 0.951 . S
C2471 C2469 1.388 . S
C2471 C2472 1.366 . S
C2472 C2471 1.366 . S
C2472 C2473 1.414 . S
C2472 C2475 1.499 . S
C2473 H2447 0.950 . S
C2473 C2472 1.414 . S
C2473 C2474 1.374 . S
C2474 H2448 0.950 . S
C2474 C2470 1.385 . S
C2474 C2473 1.374 . S
C2475 C2472 1.499 . S
C2475 C2476 1.373 . S
C2475 C2477 1.389 . S
C2476 H2449 0.950 . S
C2476 C2462 1.377 . S
C2476 C2475 1.373 . S
C2477 C2461 1.377 . S
C2477 C2475 1.389 . S
C2477 C2478 1.524 . S
C2478 C2477 1.524 . S
C2478 C2479 1.397 . S
C2478 C2483 1.363 . S
C2479 H2450 0.950 . S
C2479 C2478 1.397 . S
C2479 C2480 1.334 . S
C2480 H2451 0.950 . S
C2480 C2479 1.334 . S
C2480 C2481 1.287 . S
C2481 C2480 1.287 . S
C2481 C2482 1.524 . S
C2481 H2484 0.999 . S
C2482 H2452 0.950 . S
C2482 C2481 1.524 . S
C2482 C2483 1.415 . S
C2483 H2453 0.950 . S
C2483 C2478 1.363 . S
C2483 C2482 1.415 . S
H2484 C2481 0.999 . S
H2485 C2466 0.913 . S
H2486 C2504 0.951 . S
H2487 C2506 0.951 . S
H2488 C2508 0.950 . S
H2489 C2509 0.950 . S
H2490 C2511 0.950 . S
H2491 C2514 0.950 . S
H2492 C2515 0.950 . S
H2493 C2517 0.950 . S
H2494 C2518 0.950 . S
H2495 C2519 0.951 . S
H2496 C2521 0.951 . S
H2497 C2523 0.950 . S
H2498 C2524 0.950 . S
H2499 C2526 0.950 . S
H2500 C2529 0.950 . S
H2501 C2530 0.950 . S
H2502 C2532 0.950 . S
H2503 C2533 0.950 . S
C2504 H2486 0.951 . S
C2504 C2505 1.366 . S
C2504 C2506 1.388 . S
C2505 C2504 1.366 . S
C2505 C2509 1.385 . S
C2506 H2487 0.951 . S
C2506 C2504 1.388 . S
C2506 C2507 1.366 . S
C2507 C2506 1.366 . S
C2507 C2508 1.414 . S
C2507 C2510 1.499 . S
C2508 H2488 0.950 . S
C2508 C2507 1.414 . S
C2508 C2509 1.374 . S
C2509 H2489 0.950 . S
C2509 C2505 1.385 . S
C2509 C2508 1.374 . S
C2510 C2507 1.499 . S
C2510 C2511 1.373 . S
C2510 C2512 1.389 . S
C2511 H2490 0.950 . S
C2511 C2510 1.373 . S
C2511 C2527 1.377 . S
C2512 C2510 1.389 . S
C2512 C2513 1.524 . S
C2512 C2526 1.377 . S
C2513 C2512 1.524 . S
C2513 C2514 1.397 . S
C2513 C2518 1.363 . S
C2514 H2491 0.950 . S
C2514 C2513 1.397 . S
C2514 C2515 1.334 . S
C2515 H2492 0.950 . S
C2515 C2514 1.334 . S
C2515 C2516 1.287 . S
C2516 C2515 1.287 . S
C2516 C2517 1.524 . S
C2516 H2535 0.913 . S
C2517 H2493 0.950 . S
C2517 C2516 1.524 . S
C2517 C2518 1.415 . S
C2518 H2494 0.950 . S
C2518 C2513 1.363 . S
C2518 C2517 1.415 . S
C2519 H2495 0.951 . S
C2519 C2520 1.366 . S
C2519 C2521 1.388 . S
C2520 C2519 1.366 . S
C2520 C2524 1.385 . S
C2521 H2496 0.951 . S
C2521 C2519 1.388 . S
C2521 C2522 1.366 . S
C2522 C2521 1.366 . S
C2522 C2523 1.414 . S
C2522 C2525 1.499 . S
C2523 H2497 0.950 . S
C2523 C2522 1.414 . S
C2523 C2524 1.374 . S
C2524 H2498 0.950 . S
C2524 C2520 1.385 . S
C2524 C2523 1.374 . S
C2525 C2522 1.499 . S
C2525 C2526 1.373 . S
C2525 C2527 1.389 . S
C2526 H2499 0.950 . S
C2526 C2512 1.377 . S
C2526 C2525 1.373 . S
C2527 C2511 1.377 . S
C2527 C2525 1.389 . S
C2527 C2528 1.524 . S
C2528 C2527 1.524 . S
C2528 C2529 1.397 . S
C2528 C2533 1.363 . S
C2529 H2500 0.950 . S
C2529 C2528 1.397 . S
C2529 C2530 1.334 . S
C2530 H2501 0.950 . S
C2530 C2529 1.334 . S
C2530 C2531 1.287 . S
C2531 C2530 1.287 . S
C2531 C2532 1.524 . S
C2531 H2534 0.999 . S
C2532 H2502 0.950 . S
C2532 C2531 1.524 . S
C2532 C2533 1.415 . S
C2533 H2503 0.950 . S
C2533 C2528 1.363 . S
C2533 C2532 1.415 . S
H2534 C2531 0.999 . S
H2535 C2516 0.913 . S
H2536 C2554 0.951 . S
H2537 C2556 0.951 . S
H2538 C2558 0.950 . S
H2539 C2559 0.950 . S
H2540 C2561 0.950 . S
H2541 C2564 0.950 . S
H2542 C2565 0.950 . S
H2543 C2567 0.950 . S
H2544 C2568 0.950 . S
H2545 C2569 0.951 . S
H2546 C2571 0.951 . S
H2547 C2573 0.950 . S
H2548 C2574 0.950 . S
H2549 C2576 0.950 . S
H2550 C2579 0.950 . S
H2551 C2580 0.950 . S
H2552 C2582 0.950 . S
H2553 C2583 0.950 . S
C2554 H2536 0.951 . S
C2554 C2555 1.366 . S
C2554 C2556 1.388 . S
C2555 C2554 1.366 . S
C2555 C2559 1.385 . S
C2556 H2537 0.951 . S
C2556 C2554 1.388 . S
C2556 C2557 1.366 . S
C2557 C2556 1.366 . S
C2557 C2558 1.414 . S
C2557 C2560 1.499 . S
C2558 H2538 0.950 . S
C2558 C2557 1.414 . S
C2558 C2559 1.374 . S
C2559 H2539 0.950 . S
C2559 C2555 1.385 . S
C2559 C2558 1.374 . S
C2560 C2557 1.499 . S
C2560 C2561 1.373 . S
C2560 C2562 1.389 . S
C2561 H2540 0.950 . S
C2561 C2560 1.373 . S
C2561 C2577 1.377 . S
C2562 C2560 1.389 . S
C2562 C2563 1.524 . S
C2562 C2576 1.377 . S
C2563 C2562 1.524 . S
C2563 C2564 1.397 . S
C2563 C2568 1.363 . S
C2564 H2541 0.950 . S
C2564 C2563 1.397 . S
C2564 C2565 1.334 . S
C2565 H2542 0.950 . S
C2565 C2564 1.334 . S
C2565 C2566 1.287 . S
C2566 C2565 1.287 . S
C2566 C2567 1.524 . S
C2566 H2585 0.913 . S
C2567 H2543 0.950 . S
C2567 C2566 1.524 . S
C2567 C2568 1.415 . S
C2568 H2544 0.950 . S
C2568 C2563 1.363 . S
C2568 C2567 1.415 . S
C2569 H2545 0.951 . S
C2569 C2570 1.366 . S
C2569 C2571 1.388 . S
C2570 C2569 1.366 . S
C2570 C2574 1.385 . S
C2571 H2546 0.951 . S
C2571 C2569 1.388 . S
C2571 C2572 1.366 . S
C2572 C2571 1.366 . S
C2572 C2573 1.414 . S
C2572 C2575 1.499 . S
C2573 H2547 0.950 . S
C2573 C2572 1.414 . S
C2573 C2574 1.374 . S
C2574 H2548 0.950 . S
C2574 C2570 1.385 . S
C2574 C2573 1.374 . S
C2575 C2572 1.499 . S
C2575 C2576 1.373 . S
C2575 C2577 1.389 . S
C2576 H2549 0.950 . S
C2576 C2562 1.377 . S
C2576 C2575 1.373 . S
C2577 C2561 1.377 . S
C2577 C2575 1.389 . S
C2577 C2578 1.524 . S
C2578 C2577 1.524 . S
C2578 C2579 1.397 . S
C2578 C2583 1.363 . S
C2579 H2550 0.950 . S
C2579 C2578 1.397 . S
C2579 C2580 1.334 . S
C2580 H2551 0.950 . S
C2580 C2579 1.334 . S
C2580 C2581 1.287 . S
C2581 C2580 1.287 . S
C2581 C2582 1.524 . S
C2581 H2584 0.999 . S
C2582 H2552 0.950 . S
C2582 C2581 1.524 . S
C2582 C2583 1.415 . S
C2583 H2553 0.950 . S
C2583 C2578 1.363 . S
C2583 C2582 1.415 . S
H2584 C2581 0.999 . S
H2585 C2566 0.913 . S
H2586 C2604 0.951 . S
H2587 C2606 0.951 . S
H2588 C2608 0.950 . S
H2589 C2609 0.950 . S
H2590 C2611 0.950 . S
H2591 C2614 0.950 . S
H2592 C2615 0.950 . S
H2593 C2617 0.950 . S
H2594 C2618 0.950 . S
H2595 C2619 0.951 . S
H2596 C2621 0.951 . S
H2597 C2623 0.950 . S
H2598 C2624 0.950 . S
H2599 C2626 0.950 . S
H2600 C2629 0.950 . S
H2601 C2630 0.950 . S
H2602 C2632 0.950 . S
H2603 C2633 0.950 . S
C2604 H2586 0.951 . S
C2604 C2605 1.366 . S
C2604 C2606 1.388 . S
C2605 C2604 1.366 . S
C2605 C2609 1.385 . S
C2606 H2587 0.951 . S
C2606 C2604 1.388 . S
C2606 C2607 1.366 . S
C2607 C2606 1.366 . S
C2607 C2608 1.414 . S
C2607 C2610 1.499 . S
C2608 H2588 0.950 . S
C2608 C2607 1.414 . S
C2608 C2609 1.374 . S
C2609 H2589 0.950 . S
C2609 C2605 1.385 . S
C2609 C2608 1.374 . S
C2610 C2607 1.499 . S
C2610 C2611 1.373 . S
C2610 C2612 1.389 . S
C2611 H2590 0.950 . S
C2611 C2610 1.373 . S
C2611 C2627 1.377 . S
C2612 C2610 1.389 . S
C2612 C2613 1.524 . S
C2612 C2626 1.377 . S
C2613 C2612 1.524 . S
C2613 C2614 1.397 . S
C2613 C2618 1.363 . S
C2614 H2591 0.950 . S
C2614 C2613 1.397 . S
C2614 C2615 1.334 . S
C2615 H2592 0.950 . S
C2615 C2614 1.334 . S
C2615 C2616 1.287 . S
C2616 C2615 1.287 . S
C2616 C2617 1.524 . S
C2616 H2635 0.913 . S
C2617 H2593 0.950 . S
C2617 C2616 1.524 . S
C2617 C2618 1.415 . S
C2618 H2594 0.950 . S
C2618 C2613 1.363 . S
C2618 C2617 1.415 . S
C2619 H2595 0.951 . S
C2619 C2620 1.366 . S
C2619 C2621 1.388 . S
C2620 C2619 1.366 . S
C2620 C2624 1.385 . S
C2621 H2596 0.951 . S
C2621 C2619 1.388 . S
C2621 C2622 1.366 . S
C2622 C2621 1.366 . S
C2622 C2623 1.414 . S
C2622 C2625 1.499 . S
C2623 H2597 0.950 . S
C2623 C2622 1.414 . S
C2623 C2624 1.374 . S
C2624 H2598 0.950 . S
C2624 C2620 1.385 . S
C2624 C2623 1.374 . S
C2625 C2622 1.499 . S
C2625 C2626 1.373 . S
C2625 C2627 1.389 . S
C2626 H2599 0.950 . S
C2626 C2612 1.377 . S
C2626 C2625 1.373 . S
C2627 C2611 1.377 . S
C2627 C2625 1.389 . S
C2627 C2628 1.524 . S
C2628 C2627 1.524 . S
C2628 C2629 1.397 . S
C2628 C2633 1.363 . S
C2629 H2600 0.950 . S
C2629 C2628 1.397 . S
C2629 C2630 1.334 . S
C2630 H2601 0.950 . S
C2630 C2629 1.334 . S
C2630 C2631 1.287 . S
C2631 C2630 1.287 . S
C2631 C2632 1.524 . S
C2631 H2634 0.999 . S
C2632 H2602 0.950 . S
C2632 C2631 1.524 . S
C2632 C2633 1.415 . S
C2633 H2603 0.950 . S
C2633 C2628 1.363 . S
C2633 C2632 1.415 . S
H2634 C2631 0.999 . S
H2635 C2616 0.913 . S
H2636 C2654 0.951 . S
H2637 C2656 0.951 . S
H2638 C2658 0.950 . S
H2639 C2659 0.950 . S
H2640 C2661 0.950 . S
H2641 C2664 0.950 . S
H2642 C2665 0.950 . S
H2643 C2667 0.950 . S
H2644 C2668 0.950 . S
H2645 C2669 0.951 . S
H2646 C2671 0.951 . S
H2647 C2673 0.950 . S
H2648 C2674 0.950 . S
H2649 C2676 0.950 . S
H2650 C2679 0.950 . S
H2651 C2680 0.950 . S
H2652 C2682 0.950 . S
H2653 C2683 0.950 . S
C2654 H2636 0.951 . S
C2654 C2655 1.366 . S
C2654 C2656 1.388 . S
C2655 C2654 1.366 . S
C2655 C2659 1.385 . S
C2656 H2637 0.951 . S
C2656 C2654 1.388 . S
C2656 C2657 1.366 . S
C2657 C2656 1.366 . S
C2657 C2658 1.414 . S
C2657 C2660 1.499 . S
C2658 H2638 0.950 . S
C2658 C2657 1.414 . S
C2658 C2659 1.374 . S
C2659 H2639 0.950 . S
C2659 C2655 1.385 . S
C2659 C2658 1.374 . S
C2660 C2657 1.499 . S
C2660 C2661 1.373 . S
C2660 C2662 1.389 . S
C2661 H2640 0.950 . S
C2661 C2660 1.373 . S
C2661 C2677 1.377 . S
C2662 C2660 1.389 . S
C2662 C2663 1.524 . S
C2662 C2676 1.377 . S
C2663 C2662 1.524 . S
C2663 C2664 1.397 . S
C2663 C2668 1.363 . S
C2664 H2641 0.950 . S
C2664 C2663 1.397 . S
C2664 C2665 1.334 . S
C2665 H2642 0.950 . S
C2665 C2664 1.334 . S
C2665 C2666 1.287 . S
C2666 C2665 1.287 . S
C2666 C2667 1.524 . S
C2666 H2685 0.913 . S
C2667 H2643 0.950 . S
C2667 C2666 1.524 . S
C2667 C2668 1.415 . S
C2668 H2644 0.950 . S
C2668 C2663 1.363 . S
C2668 C2667 1.415 . S
C2669 H2645 0.951 . S
C2669 C2670 1.366 . S
C2669 C2671 1.388 . S
C2670 C2669 1.366 . S
C2670 C2674 1.385 . S
C2671 H2646 0.951 . S
C2671 C2669 1.388 . S
C2671 C2672 1.366 . S
C2672 C2671 1.366 . S
C2672 C2673 1.414 . S
C2672 C2675 1.499 . S
C2673 H2647 0.950 . S
C2673 C2672 1.414 . S
C2673 C2674 1.374 . S
C2674 H2648 0.950 . S
C2674 C2670 1.385 . S
C2674 C2673 1.374 . S
C2675 C2672 1.499 . S
C2675 C2676 1.373 . S
C2675 C2677 1.389 . S
C2676 H2649 0.950 . S
C2676 C2662 1.377 . S
C2676 C2675 1.373 . S
C2677 C2661 1.377 . S
C2677 C2675 1.389 . S
C2677 C2678 1.524 . S
C2678 C2677 1.524 . S
C2678 C2679 1.397 . S
C2678 C2683 1.363 . S
C2679 H2650 0.950 . S
C2679 C2678 1.397 . S
C2679 C2680 1.334 . S
C2680 H2651 0.950 . S
C2680 C2679 1.334 . S
C2680 C2681 1.287 . S
C2681 C2680 1.287 . S
C2681 C2682 1.524 . S
C2681 H2684 0.999 . S
C2682 H2652 0.950 . S
C2682 C2681 1.524 . S
C2682 C2683 1.415 . S
C2683 H2653 0.950 . S
C2683 C2678 1.363 . S
C2683 C2682 1.415 . S
H2684 C2681 0.999 . S
H2685 C2666 0.913 . S
H2686 C2704 0.951 . S
H2687 C2706 0.951 . S
H2688 C2708 0.950 . S
H2689 C2709 0.950 . S
H2690 C2711 0.950 . S
H2691 C2714 0.950 . S
H2692 C2715 0.950 . S
H2693 C2717 0.950 . S
H2694 C2718 0.950 . S
H2695 C2719 0.951 . S
H2696 C2721 0.951 . S
H2697 C2723 0.950 . S
H2698 C2724 0.950 . S
H2699 C2726 0.950 . S
H2700 C2729 0.950 . S
H2701 C2730 0.950 . S
H2702 C2732 0.950 . S
H2703 C2733 0.950 . S
C2704 H2686 0.951 . S
C2704 C2705 1.366 . S
C2704 C2706 1.388 . S
C2705 C2704 1.366 . S
C2705 C2709 1.385 . S
C2706 H2687 0.951 . S
C2706 C2704 1.388 . S
C2706 C2707 1.366 . S
C2707 C2706 1.366 . S
C2707 C2708 1.414 . S
C2707 C2710 1.499 . S
C2708 H2688 0.950 . S
C2708 C2707 1.414 . S
C2708 C2709 1.374 . S
C2709 H2689 0.950 . S
C2709 C2705 1.385 . S
C2709 C2708 1.374 . S
C2710 C2707 1.499 . S
C2710 C2711 1.373 . S
C2710 C2712 1.389 . S
C2711 H2690 0.950 . S
C2711 C2710 1.373 . S
C2711 C2727 1.377 . S
C2712 C2710 1.389 . S
C2712 C2713 1.524 . S
C2712 C2726 1.377 . S
C2713 C2712 1.524 . S
C2713 C2714 1.397 . S
C2713 C2718 1.363 . S
C2714 H2691 0.950 . S
C2714 C2713 1.397 . S
C2714 C2715 1.334 . S
C2715 H2692 0.950 . S
C2715 C2714 1.334 . S
C2715 C2716 1.287 . S
C2716 C2715 1.287 . S
C2716 C2717 1.524 . S
C2716 H2735 0.913 . S
C2717 H2693 0.950 . S
C2717 C2716 1.524 . S
C2717 C2718 1.415 . S
C2718 H2694 0.950 . S
C2718 C2713 1.363 . S
C2718 C2717 1.415 . S
C2719 H2695 0.951 . S
C2719 C2720 1.366 . S
C2719 C2721 1.388 . S
C2720 C2719 1.366 . S
C2720 C2724 1.385 . S
C2721 H2696 0.951 . S
C2721 C2719 1.388 . S
C2721 C2722 1.366 . S
C2722 C2721 1.366 . S
C2722 C2723 1.414 . S
C2722 C2725 1.499 . S
C2723 H2697 0.950 . S
C2723 C2722 1.414 . S
C2723 C2724 1.374 . S
C2724 H2698 0.950 . S
C2724 C2720 1.385 . S
C2724 C2723 1.374 . S
C2725 C2722 1.499 . S
C2725 C2726 1.373 . S
C2725 C2727 1.389 . S
C2726 H2699 0.950 . S
C2726 C2712 1.377 . S
C2726 C2725 1.373 . S
C2727 C2711 1.377 . S
C2727 C2725 1.389 . S
C2727 C2728 1.524 . S
C2728 C2727 1.524 . S
C2728 C2729 1.397 . S
C2728 C2733 1.363 . S
C2729 H2700 0.950 . S
C2729 C2728 1.397 . S
C2729 C2730 1.334 . S
C2730 H2701 0.950 . S
C2730 C2729 1.334 . S
C2730 C2731 1.287 . S
C2731 C2730 1.287 . S
C2731 C2732 1.524 . S
C2731 H2734 0.999 . S
C2732 H2702 0.950 . S
C2732 C2731 1.524 . S
C2732 C2733 1.415 . S
C2733 H2703 0.950 . S
C2733 C2728 1.363 . S
C2733 C2732 1.415 . S
H2734 C2731 0.999 . S
H2735 C2716 0.913 . S
H2736 C2754 0.951 . S
H2737 C2756 0.951 . S
H2738 C2758 0.950 . S
H2739 C2759 0.950 . S
H2740 C2761 0.950 . S
H2741 C2764 0.950 . S
H2742 C2765 0.950 . S
H2743 C2767 0.950 . S
H2744 C2768 0.950 . S
H2745 C2769 0.951 . S
H2746 C2771 0.951 . S
H2747 C2773 0.950 . S
H2748 C2774 0.950 . S
H2749 C2776 0.950 . S
H2750 C2779 0.950 . S
H2751 C2780 0.950 . S
H2752 C2782 0.950 . S
H2753 C2783 0.950 . S
C2754 H2736 0.951 . S
C2754 C2755 1.366 . S
C2754 C2756 1.388 . S
C2755 C2754 1.366 . S
C2755 C2759 1.385 . S
C2756 H2737 0.951 . S
C2756 C2754 1.388 . S
C2756 C2757 1.366 . S
C2757 C2756 1.366 . S
C2757 C2758 1.414 . S
C2757 C2760 1.499 . S
C2758 H2738 0.950 . S
C2758 C2757 1.414 . S
C2758 C2759 1.374 . S
C2759 H2739 0.950 . S
C2759 C2755 1.385 . S
C2759 C2758 1.374 . S
C2760 C2757 1.499 . S
C2760 C2761 1.373 . S
C2760 C2762 1.389 . S
C2761 H2740 0.950 . S
C2761 C2760 1.373 . S
C2761 C2777 1.377 . S
C2762 C2760 1.389 . S
C2762 C2763 1.524 . S
C2762 C2776 1.377 . S
C2763 C2762 1.524 . S
C2763 C2764 1.397 . S
C2763 C2768 1.363 . S
C2764 H2741 0.950 . S
C2764 C2763 1.397 . S
C2764 C2765 1.334 . S
C2765 H2742 0.950 . S
C2765 C2764 1.334 . S
C2765 C2766 1.287 . S
C2766 C2765 1.287 . S
C2766 C2767 1.524 . S
C2766 H2785 0.913 . S
C2767 H2743 0.950 . S
C2767 C2766 1.524 . S
C2767 C2768 1.415 . S
C2768 H2744 0.950 . S
C2768 C2763 1.363 . S
C2768 C2767 1.415 . S
C2769 H2745 0.951 . S
C2769 C2770 1.366 . S
C2769 C2771 1.388 . S
C2770 C2769 1.366 . S
C2770 C2774 1.385 . S
C2771 H2746 0.951 . S
C2771 C2769 1.388 . S
C2771 C2772 1.366 . S
C2772 C2771 1.366 . S
C2772 C2773 1.414 . S
C2772 C2775 1.499 . S
C2773 H2747 0.950 . S
C2773 C2772 1.414 . S
C2773 C2774 1.374 . S
C2774 H2748 0.950 . S
C2774 C2770 1.385 . S
C2774 C2773 1.374 . S
C2775 C2772 1.499 . S
C2775 C2776 1.373 . S
C2775 C2777 1.389 . S
C2776 H2749 0.950 . S
C2776 C2762 1.377 . S
C2776 C2775 1.373 . S
C2777 C2761 1.377 . S
C2777 C2775 1.389 . S
C2777 C2778 1.524 . S
C2778 C2777 1.524 . S
C2778 C2779 1.397 . S
C2778 C2783 1.363 . S
C2779 H2750 0.950 . S
C2779 C2778 1.397 . S
C2779 C2780 1.334 . S
C2780 H2751 0.950 . S
C2780 C2779 1.334 . S
C2780 C2781 1.287 . S
C2781 C2780 1.287 . S
C2781 C2782 1.524 . S
C2781 H2784 0.999 . S
C2782 H2752 0.950 . S
C2782 C2781 1.524 . S
C2782 C2783 1.415 . S
C2783 H2753 0.950 . S
C2783 C2778 1.363 . S
C2783 C2782 1.415 . S
H2784 C2781 0.999 . S
H2785 C2766 0.913 . S
H2786 C2804 0.951 . S
H2787 C2806 0.951 . S
H2788 C2808 0.950 . S
H2789 C2809 0.950 . S
H2790 C2811 0.950 . S
H2791 C2814 0.950 . S
H2792 C2815 0.950 . S
H2793 C2817 0.950 . S
H2794 C2818 0.950 . S
H2795 C2819 0.951 . S
H2796 C2821 0.951 . S
H2797 C2823 0.950 . S
H2798 C2824 0.950 . S
H2799 C2826 0.950 . S
H2800 C2829 0.950 . S
H2801 C2830 0.950 . S
H2802 C2832 0.950 . S
H2803 C2833 0.950 . S
C2804 H2786 0.951 . S
C2804 C2805 1.366 . S
C2804 C2806 1.388 . S
C2805 C2804 1.366 . S
C2805 C2809 1.385 . S
C2806 H2787 0.951 . S
C2806 C2804 1.388 . S
C2806 C2807 1.366 . S
C2807 C2806 1.366 . S
C2807 C2808 1.414 . S
C2807 C2810 1.499 . S
C2808 H2788 0.950 . S
C2808 C2807 1.414 . S
C2808 C2809 1.374 . S
C2809 H2789 0.950 . S
C2809 C2805 1.385 . S
C2809 C2808 1.374 . S
C2810 C2807 1.499 . S
C2810 C2811 1.373 . S
C2810 C2812 1.389 . S
C2811 H2790 0.950 . S
C2811 C2810 1.373 . S
C2811 C2827 1.377 . S
C2812 C2810 1.389 . S
C2812 C2813 1.524 . S
C2812 C2826 1.377 . S
C2813 C2812 1.524 . S
C2813 C2814 1.397 . S
C2813 C2818 1.363 . S
C2814 H2791 0.950 . S
C2814 C2813 1.397 . S
C2814 C2815 1.334 . S
C2815 H2792 0.950 . S
C2815 C2814 1.334 . S
C2815 C2816 1.287 . S
C2816 C2815 1.287 . S
C2816 C2817 1.524 . S
C2816 H2835 0.913 . S
C2817 H2793 0.950 . S
C2817 C2816 1.524 . S
C2817 C2818 1.415 . S
C2818 H2794 0.950 . S
C2818 C2813 1.363 . S
C2818 C2817 1.415 . S
C2819 H2795 0.951 . S
C2819 C2820 1.366 . S
C2819 C2821 1.388 . S
C2820 C2819 1.366 . S
C2820 C2824 1.385 . S
C2821 H2796 0.951 . S
C2821 C2819 1.388 . S
C2821 C2822 1.366 . S
C2822 C2821 1.366 . S
C2822 C2823 1.414 . S
C2822 C2825 1.499 . S
C2823 H2797 0.950 . S
C2823 C2822 1.414 . S
C2823 C2824 1.374 . S
C2824 H2798 0.950 . S
C2824 C2820 1.385 . S
C2824 C2823 1.374 . S
C2825 C2822 1.499 . S
C2825 C2826 1.373 . S
C2825 C2827 1.389 . S
C2826 H2799 0.950 . S
C2826 C2812 1.377 . S
C2826 C2825 1.373 . S
C2827 C2811 1.377 . S
C2827 C2825 1.389 . S
C2827 C2828 1.524 . S
C2828 C2827 1.524 . S
C2828 C2829 1.397 . S
C2828 C2833 1.363 . S
C2829 H2800 0.950 . S
C2829 C2828 1.397 . S
C2829 C2830 1.334 . S
C2830 H2801 0.950 . S
C2830 C2829 1.334 . S
C2830 C2831 1.287 . S
C2831 C2830 1.287 . S
C2831 C2832 1.524 . S
C2831 H2834 0.999 . S
C2832 H2802 0.950 . S
C2832 C2831 1.524 . S
C2832 C2833 1.415 . S
C2833 H2803 0.950 . S
C2833 C2828 1.363 . S
C2833 C2832 1.415 . S
H2834 C2831 0.999 . S
H2835 C2816 0.913 . S
C470 C278 1.761 . S
C455 N2 1.768 . S
C520 C304 2.519 . S
C505 C7 2.546 . S
C570 C317 1.761 . S
C555 N12 1.721 . S
C605 C16 1.708 . S
C620 C345 1.727 . S
C670 C365 2.597 . S
C655 C30 2.613 . S
C720 C378 1.613 . S
C705 N35 1.606 . S
C755 C39 1.838 . S
C770 C404 1.799 . S
C820 C417 1.603 . S
C805 N25 1.533 . S
C870 C294 1.205 . S
C855 N58 1.158 . S
C905 N81 1.382 . S
C920 C315 1.423 . S
C970 C324 1.328 . S
C955 N104 1.295 . S
C1005 N127 1.138 . S
C1020 C338 1.140 . S
C1070 C358 0.815 . S
C1055 N48 0.823 . S
C1120 C394 1.619 . S
C1105 N71 1.603 . S
C1155 N94 0.856 . S
C1170 C415 0.859 . S
C1220 C424 1.790 . S
C1205 N117 1.803 . S
C1255 C85 2.204 . S
C1270 C285 2.183 . S
C1305 C122 1.825 . S
C1320 C374 1.814 . S
C1355 C53 1.830 1_556 S
C1370 C385 1.786 . S
C1420 C397 1.437 . S
C1405 C76 1.482 . S
C1470 C435 1.657 . S
C1455 C99 1.660 . S
C1520 C335 1.966 . S
C1505 C131 1.938 . S
C1570 C354 1.137 . S
C1555 C62 1.132 . S
C1605 C108 1.105 . S
C1620 C297 1.088 . S
C1670 C418 1.819 . S
C1655 N140 1.841 . S
C1705 C145 2.546 . S
C1720 C364 2.513 . S
C1770 C377 1.690 . S
C1755 N150 1.640 . S
C1805 C154 1.708 . S
C1820 C405 1.722 . S
C1870 C305 2.591 . S
C1855 C168 2.609 . S
C1905 N173 1.519 . S
C1920 C318 1.532 . S
C1970 C344 1.797 . S
C1955 C177 1.839 . S
C2020 C277 1.673 . S
C2005 N163 1.605 . S
C2070 C434 1.647 . S
C2055 C200 1.656 . S
C2120 C375 1.730 . S
C2105 N219 1.684 . S
C2155 N242 1.530 . S
C2170 C384 1.564 . S
C2220 C398 1.417 . S
C2205 C269 1.481 . S
C2270 C298 1.120 . S
C2255 C191 1.154 . S
C2305 N209 1.834 . S
C2320 C334 1.857 . S
C2355 N232 1.169 . S
C2370 C355 1.161 . S
C2405 C260 2.290 . S
C2420 C284 2.259 . S
C2455 C223 1.942 . S
C2470 C425 1.924 . S
C2505 N255 1.371 . S
C2520 C314 1.423 . S
C2555 N186 1.304 . S
C2570 C325 1.324 . S
C2620 C337 1.124 . S
C2605 C214 1.154 . S
C2670 C295 1.383 . S
C2655 C237 1.384 . S
C2720 C395 1.529 . S
C2705 N265 1.482 . S
C2770 C414 0.810 . S
C2755 N196 0.808 . S
C2820 C357 0.779 . S
C2805 C246 0.781 . S
