# Generated by pormake.
# Topology gar, (4,6)-cn, num edge types: 1
# Building blocks:
#     Node 0, Type 0, BuildingBlock: KUFVIS_clean_sbu_0, # of connection points: 4
#     Node 1, Type 0, BuildingBlock: KUFVIS_clean_sbu_0, # of connection points: 4
#     Node 2, Type 0, BuildingBlock: KUFVIS_clean_sbu_0, # of connection points: 4
#     Node 3, Type 0, BuildingBlock: KUFVIS_clean_sbu_0, # of connection points: 4
#     Node 4, Type 0, BuildingBlock: KUFVIS_clean_sbu_0, # of connection points: 4
#     Node 5, Type 0, BuildingBlock: KUFVIS_clean_sbu_0, # of connection points: 4
#     Node 6, Type 0, BuildingBlock: KUFVIS_clean_sbu_0, # of connection points: 4
#     Node 7, Type 0, BuildingBlock: KUFVIS_clean_sbu_0, # of connection points: 4
#     Node 8, Type 0, BuildingBlock: KUFVIS_clean_sbu_0, # of connection points: 4
#     Node 9, Type 0, BuildingBlock: KUFVIS_clean_sbu_0, # of connection points: 4
#     Node 10, Type 0, BuildingBlock: KUFVIS_clean_sbu_0, # of connection points: 4
#     Node 11, Type 0, BuildingBlock: KUFVIS_clean_sbu_0, # of connection points: 4
#     Node 12, Type 0, BuildingBlock: KUFVIS_clean_sbu_0, # of connection points: 4
#     Node 13, Type 0, BuildingBlock: KUFVIS_clean_sbu_0, # of connection points: 4
#     Node 14, Type 0, BuildingBlock: KUFVIS_clean_sbu_0, # of connection points: 4
#     Node 15, Type 0, BuildingBlock: KUFVIS_clean_sbu_0, # of connection points: 4
#     Node 16, Type 0, BuildingBlock: KUFVIS_clean_sbu_0, # of connection points: 4
#     Node 17, Type 0, BuildingBlock: KUFVIS_clean_sbu_0, # of connection points: 4
#     Node 18, Type 0, BuildingBlock: KUFVIS_clean_sbu_0, # of connection points: 4
#     Node 19, Type 0, BuildingBlock: KUFVIS_clean_sbu_0, # of connection points: 4
#     Node 20, Type 0, BuildingBlock: KUFVIS_clean_sbu_0, # of connection points: 4
#     Node 21, Type 0, BuildingBlock: KUFVIS_clean_sbu_0, # of connection points: 4
#     Node 22, Type 0, BuildingBlock: KUFVIS_clean_sbu_0, # of connection points: 4
#     Node 23, Type 0, BuildingBlock: KUFVIS_clean_sbu_0, # of connection points: 4
#     Node 24, Type 1, BuildingBlock: BETFEN_clean_sbu_0, # of connection points: 6
#     Node 25, Type 1, BuildingBlock: BETFEN_clean_sbu_0, # of connection points: 6
#     Node 26, Type 1, BuildingBlock: BETFEN_clean_sbu_0, # of connection points: 6
#     Node 27, Type 1, BuildingBlock: BETFEN_clean_sbu_0, # of connection points: 6
#     Node 28, Type 1, BuildingBlock: BETFEN_clean_sbu_0, # of connection points: 6
#     Node 29, Type 1, BuildingBlock: BETFEN_clean_sbu_0, # of connection points: 6
#     Node 30, Type 1, BuildingBlock: BETFEN_clean_sbu_0, # of connection points: 6
#     Node 31, Type 1, BuildingBlock: BETFEN_clean_sbu_0, # of connection points: 6
#     Node 32, Type 1, BuildingBlock: BETFEN_clean_sbu_0, # of connection points: 6
#     Node 33, Type 1, BuildingBlock: BETFEN_clean_sbu_0, # of connection points: 6
#     Node 34, Type 1, BuildingBlock: BETFEN_clean_sbu_0, # of connection points: 6
#     Node 35, Type 1, BuildingBlock: BETFEN_clean_sbu_0, # of connection points: 6
#     Node 36, Type 1, BuildingBlock: BETFEN_clean_sbu_0, # of connection points: 6
#     Node 37, Type 1, BuildingBlock: BETFEN_clean_sbu_0, # of connection points: 6
#     Node 38, Type 1, BuildingBlock: BETFEN_clean_sbu_0, # of connection points: 6
#     Node 39, Type 1, BuildingBlock: BETFEN_clean_sbu_0, # of connection points: 6
#     Edge 40, Type (0, 1), BuildingBlock: CIFDUS_clean_linker_0, # of connection points: 2
#     Edge 41, Type (0, 1), BuildingBlock: CIFDUS_clean_linker_0, # of connection points: 2
#     Edge 42, Type (0, 1), BuildingBlock: CIFDUS_clean_linker_0, # of connection points: 2
#     Edge 43, Type (0, 1), BuildingBlock: CIFDUS_clean_linker_0, # of connection points: 2
#     Edge 44, Type (0, 1), BuildingBlock: CIFDUS_clean_linker_0, # of connection points: 2
#     Edge 45, Type (0, 1), BuildingBlock: CIFDUS_clean_linker_0, # of connection points: 2
#     Edge 46, Type (0, 1), BuildingBlock: CIFDUS_clean_linker_0, # of connection points: 2
#     Edge 47, Type (0, 1), BuildingBlock: CIFDUS_clean_linker_0, # of connection points: 2
#     Edge 48, Type (0, 1), BuildingBlock: CIFDUS_clean_linker_0, # of connection points: 2
#     Edge 49, Type (0, 1), BuildingBlock: CIFDUS_clean_linker_0, # of connection points: 2
#     Edge 50, Type (0, 1), BuildingBlock: CIFDUS_clean_linker_0, # of connection points: 2
#     Edge 51, Type (0, 1), BuildingBlock: CIFDUS_clean_linker_0, # of connection points: 2
#     Edge 52, Type (0, 1), BuildingBlock: CIFDUS_clean_linker_0, # of connection points: 2
#     Edge 53, Type (0, 1), BuildingBlock: CIFDUS_clean_linker_0, # of connection points: 2
#     Edge 54, Type (0, 1), BuildingBlock: CIFDUS_clean_linker_0, # of connection points: 2
#     Edge 55, Type (0, 1), BuildingBlock: CIFDUS_clean_linker_0, # of connection points: 2
#     Edge 56, Type (0, 1), BuildingBlock: CIFDUS_clean_linker_0, # of connection points: 2
#     Edge 57, Type (0, 1), BuildingBlock: CIFDUS_clean_linker_0, # of connection points: 2
#     Edge 58, Type (0, 1), BuildingBlock: CIFDUS_clean_linker_0, # of connection points: 2
#     Edge 59, Type (0, 1), BuildingBlock: CIFDUS_clean_linker_0, # of connection points: 2
#     Edge 60, Type (0, 1), BuildingBlock: CIFDUS_clean_linker_0, # of connection points: 2
#     Edge 61, Type (0, 1), BuildingBlock: CIFDUS_clean_linker_0, # of connection points: 2
#     Edge 62, Type (0, 1), BuildingBlock: CIFDUS_clean_linker_0, # of connection points: 2
#     Edge 63, Type (0, 1), BuildingBlock: CIFDUS_clean_linker_0, # of connection points: 2
#     Edge 64, Type (0, 1), BuildingBlock: CIFDUS_clean_linker_0, # of connection points: 2
#     Edge 65, Type (0, 1), BuildingBlock: CIFDUS_clean_linker_0, # of connection points: 2
#     Edge 66, Type (0, 1), BuildingBlock: CIFDUS_clean_linker_0, # of connection points: 2
#     Edge 67, Type (0, 1), BuildingBlock: CIFDUS_clean_linker_0, # of connection points: 2
#     Edge 68, Type (0, 1), BuildingBlock: CIFDUS_clean_linker_0, # of connection points: 2
#     Edge 69, Type (0, 1), BuildingBlock: CIFDUS_clean_linker_0, # of connection points: 2
#     Edge 70, Type (0, 1), BuildingBlock: CIFDUS_clean_linker_0, # of connection points: 2
#     Edge 71, Type (0, 1), BuildingBlock: CIFDUS_clean_linker_0, # of connection points: 2
#     Edge 72, Type (0, 1), BuildingBlock: CIFDUS_clean_linker_0, # of connection points: 2
#     Edge 73, Type (0, 1), BuildingBlock: CIFDUS_clean_linker_0, # of connection points: 2
#     Edge 74, Type (0, 1), BuildingBlock: CIFDUS_clean_linker_0, # of connection points: 2
#     Edge 75, Type (0, 1), BuildingBlock: CIFDUS_clean_linker_0, # of connection points: 2
#     Edge 76, Type (0, 1), BuildingBlock: CIFDUS_clean_linker_0, # of connection points: 2
#     Edge 77, Type (0, 1), BuildingBlock: CIFDUS_clean_linker_0, # of connection points: 2
#     Edge 78, Type (0, 1), BuildingBlock: CIFDUS_clean_linker_0, # of connection points: 2
#     Edge 79, Type (0, 1), BuildingBlock: CIFDUS_clean_linker_0, # of connection points: 2
#     Edge 80, Type (0, 1), BuildingBlock: CIFDUS_clean_linker_0, # of connection points: 2
#     Edge 81, Type (0, 1), BuildingBlock: CIFDUS_clean_linker_0, # of connection points: 2
#     Edge 82, Type (0, 1), BuildingBlock: CIFDUS_clean_linker_0, # of connection points: 2
#     Edge 83, Type (0, 1), BuildingBlock: CIFDUS_clean_linker_0, # of connection points: 2
#     Edge 84, Type (0, 1), BuildingBlock: CIFDUS_clean_linker_0, # of connection points: 2
#     Edge 85, Type (0, 1), BuildingBlock: CIFDUS_clean_linker_0, # of connection points: 2
#     Edge 86, Type (0, 1), BuildingBlock: CIFDUS_clean_linker_0, # of connection points: 2
#     Edge 87, Type (0, 1), BuildingBlock: CIFDUS_clean_linker_0, # of connection points: 2
#     Edge 88, Type (0, 1), BuildingBlock: CIFDUS_clean_linker_0, # of connection points: 2
#     Edge 89, Type (0, 1), BuildingBlock: CIFDUS_clean_linker_0, # of connection points: 2
#     Edge 90, Type (0, 1), BuildingBlock: CIFDUS_clean_linker_0, # of connection points: 2
#     Edge 91, Type (0, 1), BuildingBlock: CIFDUS_clean_linker_0, # of connection points: 2
#     Edge 92, Type (0, 1), BuildingBlock: CIFDUS_clean_linker_0, # of connection points: 2
#     Edge 93, Type (0, 1), BuildingBlock: CIFDUS_clean_linker_0, # of connection points: 2
#     Edge 94, Type (0, 1), BuildingBlock: CIFDUS_clean_linker_0, # of connection points: 2
#     Edge 95, Type (0, 1), BuildingBlock: CIFDUS_clean_linker_0, # of connection points: 2
#     Edge 96, Type (0, 1), BuildingBlock: CIFDUS_clean_linker_0, # of connection points: 2
#     Edge 97, Type (0, 1), BuildingBlock: CIFDUS_clean_linker_0, # of connection points: 2
#     Edge 98, Type (0, 1), BuildingBlock: CIFDUS_clean_linker_0, # of connection points: 2
#     Edge 99, Type (0, 1), BuildingBlock: CIFDUS_clean_linker_0, # of connection points: 2
#     Edge 100, Type (0, 1), BuildingBlock: CIFDUS_clean_linker_0, # of connection points: 2
#     Edge 101, Type (0, 1), BuildingBlock: CIFDUS_clean_linker_0, # of connection points: 2
#     Edge 102, Type (0, 1), BuildingBlock: CIFDUS_clean_linker_0, # of connection points: 2
#     Edge 103, Type (0, 1), BuildingBlock: CIFDUS_clean_linker_0, # of connection points: 2
#     Edge 104, Type (0, 1), BuildingBlock: CIFDUS_clean_linker_0, # of connection points: 2
#     Edge 105, Type (0, 1), BuildingBlock: CIFDUS_clean_linker_0, # of connection points: 2
#     Edge 106, Type (0, 1), BuildingBlock: CIFDUS_clean_linker_0, # of connection points: 2
#     Edge 107, Type (0, 1), BuildingBlock: CIFDUS_clean_linker_0, # of connection points: 2
#     Edge 108, Type (0, 1), BuildingBlock: CIFDUS_clean_linker_0, # of connection points: 2
#     Edge 109, Type (0, 1), BuildingBlock: CIFDUS_clean_linker_0, # of connection points: 2
#     Edge 110, Type (0, 1), BuildingBlock: CIFDUS_clean_linker_0, # of connection points: 2
#     Edge 111, Type (0, 1), BuildingBlock: CIFDUS_clean_linker_0, # of connection points: 2
#     Edge 112, Type (0, 1), BuildingBlock: CIFDUS_clean_linker_0, # of connection points: 2
#     Edge 113, Type (0, 1), BuildingBlock: CIFDUS_clean_linker_0, # of connection points: 2
#     Edge 114, Type (0, 1), BuildingBlock: CIFDUS_clean_linker_0, # of connection points: 2
#     Edge 115, Type (0, 1), BuildingBlock: CIFDUS_clean_linker_0, # of connection points: 2
#     Edge 116, Type (0, 1), BuildingBlock: CIFDUS_clean_linker_0, # of connection points: 2
#     Edge 117, Type (0, 1), BuildingBlock: CIFDUS_clean_linker_0, # of connection points: 2
#     Edge 118, Type (0, 1), BuildingBlock: CIFDUS_clean_linker_0, # of connection points: 2
#     Edge 119, Type (0, 1), BuildingBlock: CIFDUS_clean_linker_0, # of connection points: 2
#     Edge 120, Type (0, 1), BuildingBlock: CIFDUS_clean_linker_0, # of connection points: 2
#     Edge 121, Type (0, 1), BuildingBlock: CIFDUS_clean_linker_0, # of connection points: 2
#     Edge 122, Type (0, 1), BuildingBlock: CIFDUS_clean_linker_0, # of connection points: 2
#     Edge 123, Type (0, 1), BuildingBlock: CIFDUS_clean_linker_0, # of connection points: 2
#     Edge 124, Type (0, 1), BuildingBlock: CIFDUS_clean_linker_0, # of connection points: 2
#     Edge 125, Type (0, 1), BuildingBlock: CIFDUS_clean_linker_0, # of connection points: 2
#     Edge 126, Type (0, 1), BuildingBlock: CIFDUS_clean_linker_0, # of connection points: 2
#     Edge 127, Type (0, 1), BuildingBlock: CIFDUS_clean_linker_0, # of connection points: 2
#     Edge 128, Type (0, 1), BuildingBlock: CIFDUS_clean_linker_0, # of connection points: 2
#     Edge 129, Type (0, 1), BuildingBlock: CIFDUS_clean_linker_0, # of connection points: 2
#     Edge 130, Type (0, 1), BuildingBlock: CIFDUS_clean_linker_0, # of connection points: 2
#     Edge 131, Type (0, 1), BuildingBlock: CIFDUS_clean_linker_0, # of connection points: 2
#     Edge 132, Type (0, 1), BuildingBlock: CIFDUS_clean_linker_0, # of connection points: 2
#     Edge 133, Type (0, 1), BuildingBlock: CIFDUS_clean_linker_0, # of connection points: 2
#     Edge 134, Type (0, 1), BuildingBlock: CIFDUS_clean_linker_0, # of connection points: 2
#     Edge 135, Type (0, 1), BuildingBlock: CIFDUS_clean_linker_0, # of connection points: 2
# Relax obj value: 0.211
# Max RMSD: 0.325
# Mean RMSD: 0.166
data_MOF--net-gar--node1-KUFVIS_clean_sbu_0--node2-BETFEN_clean_sbu_0--edge1-CIFDUS_clean_linker_0
_symmetry_space_group_name_H-M    P1
_symmetry_Int_Tables_number       1
_symmetry_cell_setting            triclinic
loop_
_symmetry_equiv_pos_as_xyz
'x, y, z'
_cell_length_a     56.255928
_cell_length_b     49.4684
_cell_length_c     50.582603
_cell_angle_alpha  94.105132
_cell_angle_beta   99.078271
_cell_angle_gamma 102.70219
loop_
_atom_site_label
_atom_site_type_symbol
_atom_site_fract_x
_atom_site_fract_y
_atom_site_fract_z
_atom_type_partial_charge
Mn0 Mn 0.03601 0.32779 0.43238 0.0
Mn1 Mn 0.03452 0.37115 0.38311 0.0
C2 C 0.9978 0.33543 0.41091 0.0
C3 C 0.03686 0.28308 0.44771 0.0
C4 C 0.05119 0.39281 0.44272 0.0
O5 O 0.06959 0.33038 0.42018 0.0
O6 O 0.0649 0.35642 0.38583 0.0
C7 C 0.02972 0.33064 0.33537 0.0
N8 N 0.0214 0.35074 0.34845 0.0
C9 C 0.99058 0.35121 0.30976 0.0
C10 C 0.99889 0.3306 0.2958 0.0
C11 C 0.01845 0.32015 0.30873 0.0
C12 C 1.00241 0.36069 0.33631 0.0
H13 H 0.04492 0.32278 0.34514 0.0
C14 C 0.07687 0.34152 0.39986 0.0
O15 O 0.04562 0.30624 0.46329 0.0
O16 O 0.02735 0.28555 0.42313 0.0
N17 N 1.00611 0.38666 0.37753 0.0
C18 C 0.99865 0.40425 0.3947 0.0
C19 C 0.97876 0.41594 0.38529 0.0
C20 C 0.96672 0.4094 0.35833 0.0
C21 C 0.97449 0.3909 0.34113 0.0
C22 C 0.99449 0.37998 0.35164 0.0
H23 H 1.00734 0.40866 0.41556 0.0
O24 O 1.00011 0.32665 0.43459 0.0
O25 O 0.01779 0.33959 0.40046 0.0
O26 O 0.04746 0.36882 0.45159 0.0
O27 O 0.04781 0.39547 0.41758 0.0
C28 C 0.96281 0.38232 0.31417 0.0
C29 C 0.97083 0.36247 0.29849 0.0
H30 H 0.99029 0.32251 0.27523 0.0
H31 H 0.02492 0.3042 0.29811 0.0
H32 H 0.97257 0.42973 0.39887 0.0
H33 H 0.95121 0.41822 0.35121 0.0
H34 H 0.94727 0.39038 0.30547 0.0
H35 H 0.96137 0.35562 0.27796 0.0
Mn36 Mn 0.1018 0.85394 0.6557 0.0
Mn37 Mn 0.1254 0.90647 0.70642 0.0
C38 C 0.1441 0.86518 0.67529 0.0
C39 C 0.08577 0.8068 0.63505 0.0
C40 C 0.10853 0.91723 0.64894 0.0
O41 O 0.07053 0.85784 0.67167 0.0
O42 O 0.08961 0.89203 0.70552 0.0
C43 C 0.11941 0.87572 0.75386 0.0
N44 N 0.13433 0.89196 0.73955 0.0
C45 C 0.17024 0.8949 0.77349 0.0
C46 C 0.15526 0.87817 0.7886 0.0
C47 C 0.12975 0.86852 0.77873 0.0
C48 C 0.15888 0.90144 0.7489 0.0
H49 H 0.09978 0.86841 0.74638 0.0
C50 C 0.07023 0.87478 0.6922 0.0
O51 O 0.08257 0.8284 0.62323 0.0
O52 O 0.09677 0.8122 0.66012 0.0
N53 N 0.16012 0.92178 0.70895 0.0
C54 C 0.17205 0.93687 0.69141 0.0
C55 C 0.19778 0.9476 0.69797 0.0
C56 C 0.21092 0.94287 0.72254 0.0
C57 C 0.19819 0.9274 0.74032 0.0
C58 C 0.17254 0.91729 0.73272 0.0
H59 H 0.16202 0.9406 0.67252 0.0
O60 O 0.1368 0.85386 0.65053 0.0
O61 O 0.12683 0.87101 0.68719 0.0
O62 O 0.1028 0.89156 0.63937 0.0
O63 O 0.11725 0.92498 0.6738 0.0
C64 C 0.20999 0.92133 0.76514 0.0
C65 C 0.19602 0.90509 0.78171 0.0
H66 H 0.16317 0.87252 0.80777 0.0
H67 H 0.11807 0.85562 0.79029 0.0
H68 H 0.20746 0.95946 0.68411 0.0
H69 H 0.23078 0.95106 0.72748 0.0
H70 H 0.22981 0.92884 0.77157 0.0
H71 H 0.20532 0.90036 0.80063 0.0
Mn72 Mn 0.53402 0.82772 0.92943 0.0
Mn73 Mn 0.53314 0.8693 0.87864 0.0
C74 C 0.49608 0.83618 0.90839 0.0
C75 C 0.53466 0.78219 0.94421 0.0
C76 C 0.55143 0.89278 0.93754 0.0
O77 O 0.56727 0.82931 0.91654 0.0
O78 O 0.56228 0.85254 0.88001 0.0
C79 C 0.52387 0.82672 0.83169 0.0
N80 N 0.51738 0.84813 0.84499 0.0
C81 C 0.48432 0.84809 0.80847 0.0
C82 C 0.49071 0.82611 0.79429 0.0
C83 C 0.51048 0.81528 0.80602 0.0
C84 C 0.49819 0.85846 0.83405 0.0
H85 H 0.53919 0.81852 0.84058 0.0
C86 C 0.5742 0.83858 0.89526 0.0
O87 O 0.54392 0.80525 0.95998 0.0
O88 O 0.52469 0.78544 0.92007 0.0
N89 N 0.50601 0.88702 0.87454 0.0
C90 C 0.50145 0.90725 0.89146 0.0
C91 C 0.48178 0.91969 0.88314 0.0
C92 C 0.46727 0.91155 0.85737 0.0
C93 C 0.47251 0.89096 0.84018 0.0
C94 C 0.49231 0.87924 0.84962 0.0
H95 H 0.51264 0.91383 0.91119 0.0
O96 O 0.4983 0.82731 0.93204 0.0
O97 O 0.51594 0.83955 0.89772 0.0
O98 O 0.54568 0.86958 0.94778 0.0
O99 O 0.54928 0.89385 0.91216 0.0
C100 C 0.45867 0.88132 0.81421 0.0
C101 C 0.46456 0.85989 0.79836 0.0
H102 H 0.48046 0.81728 0.77445 0.0
H103 H 0.51547 0.79827 0.79523 0.0
H104 H 0.47784 0.93553 0.89655 0.0
H105 H 0.45203 0.9211 0.85107 0.0
H106 H 0.44319 0.88991 0.8064 0.0
H107 H 0.45351 0.85234 0.7786 0.0
Mn108 Mn 0.60355 0.35099 0.1572 0.0
Mn109 Mn 0.55401 0.34063 0.10743 0.0
C110 C 0.58697 0.30598 0.1335 0.0
C111 C 0.6461 0.35998 0.17575 0.0
C112 C 0.55132 0.35079 0.16665 0.0
O113 O 0.60303 0.39136 0.14679 0.0
O114 O 0.57214 0.38077 0.11035 0.0
C115 C 0.57715 0.34918 0.05927 0.0
N116 N 0.56189 0.33251 0.07292 0.0
C117 C 0.55146 0.29534 0.03671 0.0
C118 C 0.56697 0.31218 0.02216 0.0
C119 C 0.57988 0.3392 0.0335 0.0
C120 C 0.54917 0.30657 0.06211 0.0
H121 H 0.5872 0.36989 0.06803 0.0
C122 C 0.58942 0.39842 0.12657 0.0
O123 O 0.62977 0.36424 0.18992 0.0
O124 O 0.63813 0.35314 0.15003 0.0
N125 N 0.5354 0.30276 0.10298 0.0
C126 C 0.5237 0.28819 0.121 0.0
C127 C 0.51136 0.26011 0.11366 0.0
C128 C 0.51117 0.24733 0.08789 0.0
C129 C 0.5234 0.26275 0.06973 0.0
C130 C 0.53529 0.29071 0.07814 0.0
H131 H 0.52404 0.29779 0.14094 0.0
O132 O 0.59944 0.30924 0.15783 0.0
O133 O 0.58399 0.32922 0.12414 0.0
O134 O 0.57356 0.35017 0.17555 0.0
O135 O 0.54255 0.34854 0.14159 0.0
C136 C 0.52499 0.25121 0.04398 0.0
C137 C 0.53892 0.26753 0.02743 0.0
H138 H 0.5694 0.30443 1.00243 0.0
H139 H 0.592 0.35225 0.02247 0.0
H140 H 0.5022 0.24828 0.12789 0.0
H141 H 0.50191 0.22555 0.08242 0.0
H142 H 0.51603 0.22962 0.03694 0.0
H143 H 0.54043 0.25824 1.0079 0.0
Mn144 Mn 0.1136 0.85753 0.15205 0.0
Mn145 Mn 0.06384 0.83673 0.10135 0.0
C146 C 0.10081 0.81124 0.13251 0.0
C147 C 0.15615 0.86981 0.17237 0.0
C148 C 0.05933 0.84823 0.15927 0.0
O149 O 0.11013 0.89522 0.13713 0.0
O150 O 0.07679 0.87772 0.10425 0.0
C151 C 0.08708 0.8502 0.05392 0.0
N152 N 0.07384 0.83118 0.06745 0.0
C153 C 0.06684 0.79524 0.03052 0.0
C154 C 0.08041 0.81445 1.01616 0.0
C155 C 0.09061 0.84202 0.02795 0.0
C156 C 0.06385 0.80463 0.05626 0.0
H157 H 0.09472 0.87146 0.06282 0.0
C158 C 0.09351 0.89826 0.11745 0.0
O159 O 0.1389 0.87453 0.18498 0.0
O160 O 0.14915 0.86143 0.14678 0.0
N161 N 0.04974 0.79745 0.09658 0.0
C162 C 0.03806 0.78124 0.11359 0.0
C163 C 0.02759 0.75284 0.10527 0.0
C164 C 0.02897 0.74149 0.07948 0.0
C165 C 0.04094 0.75866 0.06232 0.0
C166 C 0.0511 0.78677 0.07172 0.0
H167 H 0.03684 0.78986 0.13339 0.0
O168 O 0.11256 0.81747 0.15714 0.0
O169 O 0.09596 0.83204 0.12011 0.0
O170 O 0.08238 0.85534 0.16877 0.0
O171 O 0.05048 0.84091 0.13451 0.0
C172 C 0.04345 0.74887 0.03638 0.0
C173 C 0.05634 0.76711 0.02041 0.0
H174 H 0.08319 0.80824 0.99612 0.0
H175 H 0.10106 0.85697 0.01698 0.0
H176 H 0.01842 0.73975 0.11868 0.0
H177 H 0.02089 0.71956 0.07311 0.0
H178 H 0.03564 0.72727 0.02878 0.0
H179 H 0.05826 0.75922 1.00052 0.0
Mn180 Mn 0.53086 0.82256 0.43844 0.0
Mn181 Mn 0.52719 0.86653 0.39001 0.0
C182 C 0.492 0.82261 0.41122 0.0
C183 C 0.53922 0.78028 0.454 0.0
C184 C 0.53689 0.8858 0.44988 0.0
O185 O 0.56682 0.83452 0.43161 0.0
O186 O 0.55965 0.85719 0.39513 0.0
C187 C 0.53004 0.83131 0.34133 0.0
N188 N 0.5182 0.84792 0.35432 0.0
C189 C 0.48969 0.84849 0.31369 0.0
C190 C 0.50162 0.83145 0.29979 0.0
C191 C 0.52178 0.82269 0.31371 0.0
C192 C 0.49864 0.85624 0.3412 0.0
H193 H 0.54574 0.82491 0.35194 0.0
C194 C 0.5737 0.84633 0.41139 0.0
O195 O 0.54168 0.80264 0.47012 0.0
O196 O 0.53115 0.78202 0.42875 0.0
N197 N 0.4964 0.87721 0.38302 0.0
C198 C 0.48553 0.89116 0.4 0.0
C199 C 0.46479 0.901 0.38954 0.0
C200 C 0.45541 0.89626 0.36175 0.0
C201 C 0.46655 0.88117 0.34479 0.0
C202 C 0.48723 0.872 0.35639 0.0
H203 H 0.49227 0.89419 0.42138 0.0
O204 O 0.49293 0.8125 0.43431 0.0
O205 O 0.51341 0.83204 0.40483 0.0
O206 O 0.5336 0.86175 0.45838 0.0
O207 O 0.53629 0.88916 0.42512 0.0
C208 C 0.45765 0.87432 0.31695 0.0
C209 C 0.46914 0.85789 0.30142 0.0
H210 H 0.49538 0.82486 0.27846 0.0
H211 H 0.53106 0.80953 0.30311 0.0
H212 H 0.45595 0.91199 0.40289 0.0
H213 H 0.43927 0.90365 0.35377 0.0
H214 H 0.44166 0.88108 0.30738 0.0
H215 H 0.46185 0.85235 0.28013 0.0
Mn216 Mn 0.60961 0.35623 0.65437 0.0
Mn217 Mn 0.56279 0.33435 0.60066 0.0
C218 C 0.59694 0.30917 0.63768 0.0
C219 C 0.65088 0.36951 0.67845 0.0
C220 C 0.55445 0.3498 0.65634 0.0
O221 O 0.6081 0.39292 0.63728 0.0
O222 O 0.57674 0.37522 0.60234 0.0
C223 C 0.58863 0.34435 0.55456 0.0
N224 N 0.57418 0.32655 0.56808 0.0
C225 C 0.56418 0.29044 0.53085 0.0
C226 C 0.57906 0.30836 0.51654 0.0
C227 C 0.59142 0.33537 0.5285 0.0
C228 C 0.5622 0.30051 0.55676 0.0
H229 H 0.59759 0.36535 0.56346 0.0
C230 C 0.59281 0.3958 0.6164 0.0
O231 O 0.63237 0.37539 0.68798 0.0
O232 O 0.64603 0.35884 0.65336 0.0
N233 N 0.54728 0.29549 0.59684 0.0
C234 C 0.53438 0.28064 0.61384 0.0
C235 C 0.52179 0.25278 0.6055 0.0
C236 C 0.52218 0.2407 0.57962 0.0
C237 C 0.5355 0.2565 0.56247 0.0
C238 C 0.54801 0.28401 0.57206 0.0
H239 H 0.53369 0.29002 0.63357 0.0
O240 O 0.60727 0.31722 0.66261 0.0
O241 O 0.59355 0.32894 0.62273 0.0
O242 O 0.57703 0.35628 0.66776 0.0
O243 O 0.54742 0.34115 0.63157 0.0
C244 C 0.53693 0.24604 0.53626 0.0
C245 C 0.55118 0.26304 0.52043 0.0
H246 H 0.5811 0.30161 0.49634 0.0
H247 H 0.6028 0.34936 0.5175 0.0
H248 H 0.51157 0.24075 0.61887 0.0
H249 H 0.51224 0.21929 0.57315 0.0
H250 H 0.52726 0.22493 0.52815 0.0
H251 H 0.55219 0.25475 0.50034 0.0
Mn252 Mn 0.03015 0.32481 0.93457 0.0
Mn253 Mn 0.02184 0.36349 0.88241 0.0
C254 C 0.98967 0.32292 0.90976 0.0
C255 C 0.03859 0.28285 0.95166 0.0
C256 C 0.03567 0.38847 0.9409 0.0
O257 O 0.06512 0.33529 0.92361 0.0
O258 O 0.05373 0.3538 0.88556 0.0
C259 C 0.02024 0.32387 0.83511 0.0
N260 N 1.01003 0.34222 0.84813 0.0
C261 C 0.98007 0.34219 0.80854 0.0
C262 C 0.99037 0.32343 0.79456 0.0
C263 C 1.0104 0.31405 0.80797 0.0
C264 C 0.99049 0.35097 0.83558 0.0
H265 H 0.03584 0.31701 0.84533 0.0
C266 C 0.06944 0.34465 0.9013 0.0
O267 O 0.04302 0.30627 0.96688 0.0
O268 O 0.02922 0.28373 0.92666 0.0
N269 N 0.99118 0.37454 0.87716 0.0
C270 C 0.98176 0.38995 0.89444 0.0
C271 C 0.96134 0.4006 0.88461 0.0
C272 C 0.95074 0.39511 0.85713 0.0
C273 C 0.96025 0.37832 0.83994 0.0
C274 C 0.98065 0.36837 0.85094 0.0
H275 H 0.98946 0.3936 0.91562 0.0
O276 O 0.99245 0.31506 0.93381 0.0
O277 O 1.01012 0.33134 0.90118 0.0
O278 O 0.03361 0.36579 0.95213 0.0
O279 O 0.03378 0.38862 0.91558 0.0
C280 C 0.94999 0.37057 0.81247 0.0
C281 C 0.95978 0.35236 0.79683 0.0
H282 H 0.98296 0.31597 0.77358 0.0
H283 H 0.0184 0.29954 0.79733 0.0
H284 H 0.9537 0.41283 0.89819 0.0
H285 H 0.93488 0.4032 0.84961 0.0
H286 H 0.93418 0.37794 0.80336 0.0
H287 H 0.95141 0.34609 0.77588 0.0
Mn288 Mn 0.47832 0.18458 0.33183 0.0
Mn289 Mn 0.43856 0.16828 0.37413 0.0
C290 C 0.46476 0.13925 0.3395 0.0
C291 C 0.48581 0.18482 0.28842 0.0
C292 C 0.49387 0.19163 0.39254 0.0
O293 O 0.4635 0.21839 0.33278 0.0
O294 O 0.43735 0.20528 0.36159 0.0
C295 C 0.39154 0.16307 0.3358 0.0
N296 N 0.40586 0.15213 0.35444 0.0
C297 C 0.37389 0.11 0.35055 0.0
C298 C 0.35844 0.12142 0.3323 0.0
C299 C 0.36742 0.14795 0.32466 0.0
C300 C 0.39766 0.12623 0.36129 0.0
H301 H 0.39858 0.18289 0.32904 0.0
C302 C 0.44608 0.22184 0.34517 0.0
O303 O 0.50244 0.19907 0.30831 0.0
O304 O 0.46402 0.17462 0.29346 0.0
N305 N 0.43725 0.13226 0.38631 0.0
C306 C 0.45534 0.12294 0.40162 0.0
C307 C 0.45002 0.0959 0.40936 0.0
C308 C 0.4262 0.07859 0.40112 0.0
C309 C 0.40799 0.0884 0.38494 0.0
C310 C 0.41433 0.11565 0.37804 0.0
H311 H 0.47376 0.13588 0.40767 0.0
O312 O 0.48616 0.14751 0.33263 0.0
O313 O 0.45276 0.15833 0.34342 0.0
O314 O 0.49922 0.19595 0.36941 0.0
O315 O 0.47167 0.18315 0.39641 0.0
C316 C 0.38395 0.07201 0.37502 0.0
C317 C 0.3669 0.08281 0.35785 0.0
H318 H 0.33991 0.10969 0.32346 0.0
H319 H 0.35587 0.15661 0.31 0.0
H320 H 0.46428 0.08839 0.42158 0.0
H321 H 0.42219 0.05768 0.40703 0.0
H322 H 0.3785 0.0509 0.38012 0.0
H323 H 0.34862 0.06982 0.34993 0.0
Mn324 Mn 0.28475 0.2464 0.53027 0.0
Mn325 Mn 0.27298 0.19384 0.48035 0.0
C326 C 0.24357 0.22064 0.51459 0.0
C327 C 0.29305 0.26027 0.57788 0.0
C328 C 0.28728 0.25523 0.47026 0.0
O329 O 0.31891 0.23723 0.53096 0.0
O330 O 0.30774 0.19962 0.49981 0.0
C331 C 0.27644 0.14717 0.51316 0.0
N332 N 0.26329 0.15887 0.4941 0.0
C333 C 0.22835 0.11957 0.48833 0.0
C334 C 0.24173 0.10684 0.50748 0.0
C335 C 0.26584 0.12077 0.52003 0.0
C336 C 0.24 0.14577 0.48206 0.0
H337 H 0.29477 0.15801 0.52326 0.0
C338 C 0.32374 0.21638 0.51806 0.0
O339 O 0.29816 0.27823 0.56082 0.0
O340 O 0.284 0.2348 0.56735 0.0
N341 N 0.23981 0.18594 0.46081 0.0
C342 C 0.22869 0.20216 0.44468 0.0
C343 C 0.20398 0.19201 0.43178 0.0
C344 C 0.19098 0.16531 0.43561 0.0
C345 C 0.20281 0.14902 0.45236 0.0
C346 C 0.22752 0.16016 0.46451 0.0
H347 H 0.23856 0.22272 0.44176 0.0
O348 O 0.2483 0.24585 0.52642 0.0
O349 O 0.26321 0.21189 0.51127 0.0
O350 O 0.28785 0.26561 0.49454 0.0
O351 O 0.28245 0.22894 0.4634 0.0
C352 C 0.19089 0.12241 0.45791 0.0
C353 C 0.20366 0.10768 0.47585 0.0
H354 H 0.23351 0.0866 0.51305 0.0
H355 H 0.27616 0.11127 0.53512 0.0
H356 H 0.19495 0.20477 0.41898 0.0
H357 H 0.17186 0.15764 0.42578 0.0
H358 H 0.17178 0.11325 0.44879 0.0
H359 H 0.19416 0.08746 0.48033 0.0
Mn360 Mn 0.2003 0.13353 0.86992 0.0
Mn361 Mn 0.25016 0.14557 0.91788 0.0
C362 C 0.22327 0.17889 0.88248 0.0
C363 C 0.18099 0.12315 0.82653 0.0
C364 C 0.19743 0.12643 0.92741 0.0
O365 O 0.20921 0.09568 0.87078 0.0
O366 O 0.24708 0.1088 0.89706 0.0
C367 C 0.29022 0.15107 0.88551 0.0
N368 N 0.2793 0.16223 0.90441 0.0
C369 C 0.30912 0.20617 0.90877 0.0
C370 C 0.32101 0.19488 0.88986 0.0
C371 C 0.31143 0.16726 0.87807 0.0
C372 C 0.28815 0.18897 0.91554 0.0
H373 H 0.28257 0.13018 0.87582 0.0
C374 C 0.23031 0.09119 0.88017 0.0
O375 O 0.16898 0.11754 0.84604 0.0
O376 O 0.20469 0.13398 0.83199 0.0
N377 N 0.25455 0.18127 0.93782 0.0
C378 C 0.24061 0.18935 0.95521 0.0
C379 C 0.24703 0.21679 0.96781 0.0
C380 C 0.26798 0.2356 0.96273 0.0
C381 C 0.28238 0.22669 0.94518 0.0
C382 C 0.27501 0.19905 0.93318 0.0
H383 H 0.22493 0.1749 0.95974 0.0
O384 O 0.20001 0.17419 0.87169 0.0
O385 O 0.23128 0.15667 0.88665 0.0
O386 O 0.18741 0.13033 0.90438 0.0
O387 O 0.22078 0.12927 0.93442 0.0
C388 C 0.30366 0.24422 0.93901 0.0
C389 C 0.31701 0.23397 0.9208 0.0
H390 H 0.33727 0.20737 0.88393 0.0
H391 H 0.32025 0.15854 0.8631 0.0
H392 H 0.23593 0.22338 0.98154 0.0
H393 H 0.27291 0.25677 0.9725 0.0
H394 H 0.30982 0.26567 0.94802 0.0
H395 H 0.33321 0.24773 0.91601 0.0
Mn396 Mn 0.34448 0.94941 0.05347 0.0
Mn397 Mn 0.35413 1.00215 1.01417 0.0
C398 C 0.3851 0.97217 0.04831 0.0
C399 C 0.34145 0.9352 0.0979 0.0
C400 C 0.33388 0.94115 0.99033 0.0
O401 O 0.31125 0.96274 0.05017 0.0
O402 O 0.32279 0.99941 0.02734 0.0
C403 C 0.35993 0.05007 0.05517 0.0
N404 N 0.36893 0.03679 0.03584 0.0
C405 C 0.40475 0.07482 0.04002 0.0
C406 C 0.39584 0.08896 0.05993 0.0
C407 C 0.37338 0.07647 0.06761 0.0
C408 C 0.39063 0.04848 0.0285 0.0
H409 H 0.34258 0.04062 0.06098 0.0
C410 C 0.30739 0.9848 0.03981 0.0
O411 O 0.3328 0.91796 0.07615 0.0
O412 O 0.35111 0.96044 0.09382 0.0
N413 N 0.38429 1.00732 1.00028 0.0
C414 C 0.39058 0.99058 0.98127 0.0
C415 C 0.41255 0.99996 0.97138 0.0
C416 C 0.42765 0.02657 0.98086 0.0
C417 C 0.42075 0.04345 1.00037 0.0
C418 C 0.39862 0.03301 1.00943 0.0
H419 H 0.3789 0.97026 0.97363 0.0
O420 O 0.38072 0.94739 0.05604 0.0
O421 O 0.36582 0.98234 0.04352 0.0
O422 O 0.33535 0.9301 1.01278 0.0
O423 O 0.33941 0.96754 0.98973 0.0
C424 C 0.43509 0.07011 1.01138 0.0
C425 C 0.42717 0.08572 0.03129 0.0
H426 H 0.40613 0.10937 0.06951 0.0
H427 H 0.3664 0.08725 0.08297 0.0
H428 H 0.41781 0.98675 0.95644 0.0
H429 H 0.44464 0.03369 0.97326 0.0
H430 H 0.45241 0.07864 1.00491 0.0
H431 H 0.4385 0.10604 0.03983 0.0
Mn432 Mn 0.35023 0.43957 0.06209 0.0
Mn433 Mn 0.35684 0.4918 0.02118 0.0
C434 C 0.39052 0.46746 0.05921 0.0
C435 C 0.34129 0.41917 0.10296 0.0
C436 C 0.34196 0.43051 0.99997 0.0
O437 O 0.31528 0.44858 0.05479 0.0
O438 O 0.32497 0.48698 0.03342 0.0
C439 C 0.35849 0.54158 0.05811 0.0
N440 N 0.36898 0.52808 0.04038 0.0
C441 C 0.40068 0.56941 0.03972 0.0
C442 C 0.39018 0.58382 0.05791 0.0
C443 C 0.36906 0.5698 0.06724 0.0
C444 C 0.38936 0.54131 0.03139 0.0
H445 H 0.34209 0.53092 0.06504 0.0
C446 C 0.30998 0.47015 0.04463 0.0
O447 O 0.33681 0.40517 0.07946 0.0
O448 O 0.35161 0.44554 0.10336 0.0
N449 N 0.38727 0.4985 1.00781 0.0
C450 C 0.3957 0.48118 0.99131 0.0
C451 C 0.41724 0.49159 0.981 0.0
C452 C 0.42963 0.5198 0.98739 0.0
C453 C 0.42048 0.53725 1.00427 0.0
C454 C 0.39906 0.52563 1.01412 0.0
H455 H 0.38607 0.4596 0.98603 0.0
O456 O 0.38795 0.44295 0.06775 0.0
O457 O 0.36986 0.47485 0.0529 0.0
O458 O 0.34543 0.42086 0.02267 0.0
O459 O 0.34419 0.45632 0.99782 0.0
C460 C 0.43194 0.56565 1.01198 0.0
C461 C 0.42206 0.58171 0.0297 0.0
H462 H 0.39823 0.60561 0.06494 0.0
H463 H 0.36085 0.58079 0.08127 0.0
H464 H 0.42421 0.47795 0.96806 0.0
H465 H 0.44627 0.52776 0.97942 0.0
H466 H 0.44855 0.57524 1.00469 0.0
H467 H 0.4312 0.60344 0.03571 0.0
Mn468 Mn 0.79531 0.24157 0.03567 0.0
Mn469 Mn 0.77363 0.18451 0.98891 0.0
C470 C 0.75317 0.21806 0.02683 0.0
C471 C 0.80983 0.26457 0.0815 0.0
C472 C 0.78733 0.24316 0.97304 0.0
O473 O 0.82719 0.22804 0.03188 0.0
O474 O 0.80999 0.19048 1.00088 0.0
C475 C 0.78272 0.13871 0.02054 0.0
N476 N 0.76669 0.15073 1.00519 0.0
C477 C 0.73326 0.11024 1.00268 0.0
C478 C 0.7494 0.09748 0.01861 0.0
C479 C 0.77422 0.11178 0.02759 0.0
C480 C 0.74281 0.13703 0.99621 0.0
H481 H 0.80192 0.14945 0.02703 0.0
C482 C 0.82863 0.20675 0.01647 0.0
O483 O 0.81333 0.27694 0.06018 0.0
O484 O 0.7994 0.23817 0.07647 0.0
N485 N 0.73876 0.17665 0.97563 0.0
C486 C 0.72537 0.19247 0.96153 0.0
C487 C 0.70004 0.18155 0.95161 0.0
C488 C 0.68875 0.15447 0.95628 0.0
C489 C 0.70286 0.13872 0.97111 0.0
C490 C 0.72802 0.15076 0.98053 0.0
H491 H 0.73378 0.21354 0.95859 0.0
O492 O 0.76013 0.24421 0.03628 0.0
O493 O 0.7708 0.20645 0.02188 0.0
O494 O 0.7944 0.25608 0.99699 0.0
O495 O 0.77937 0.21688 0.96884 0.0
C496 C 0.69289 0.1117 0.97724 0.0
C497 C 0.7081 0.09742 0.99292 0.0
H498 H 0.74294 0.07667 0.02401 0.0
H499 H 0.78682 0.10197 0.0397 0.0
H500 H 0.68922 0.19405 0.9406 0.0
H501 H 0.66918 0.14614 0.94871 0.0
H502 H 0.67351 0.10178 0.97016 0.0
H503 H 0.70021 0.07666 0.99754 0.0
Mn504 Mn 0.15992 0.50515 0.24717 0.0
Mn505 Mn 0.20448 0.534 0.29943 0.0
C506 C 0.17123 0.55252 0.25886 0.0
C507 C 0.14086 0.49522 0.20216 0.0
C508 C 0.153 0.51324 0.30554 0.0
O509 O 0.18078 0.47491 0.25033 0.0
O510 O 0.1956 0.49325 0.29231 0.0
C511 C 0.2434 0.52481 0.26737 0.0
N512 N 0.23532 0.54037 0.28589 0.0
C513 C 0.27312 0.57628 0.29115 0.0
C514 C 0.2826 0.55921 0.27435 0.0
C515 C 0.26742 0.53368 0.26187 0.0
C516 C 0.24898 0.5663 0.29583 0.0
H517 H 0.23158 0.50634 0.25598 0.0
C518 C 0.19591 0.4764 0.27251 0.0
O519 O 0.13104 0.4826 0.22085 0.0
O520 O 0.16365 0.50942 0.20903 0.0
N521 N 0.21363 0.5731 0.31097 0.0
C522 C 0.20137 0.5879 0.32559 0.0
C523 C 0.21324 0.61493 0.33767 0.0
C524 C 0.23786 0.62625 0.33531 0.0
C525 C 0.2504 0.61034 0.321 0.0
C526 C 0.2376 0.58342 0.30946 0.0
H527 H 0.18264 0.5791 0.32815 0.0
O528 O 0.14866 0.54092 0.2474 0.0
O529 O 0.18623 0.53647 0.26405 0.0
O530 O 0.14674 0.49811 0.2828 0.0
O531 O 0.17418 0.52971 0.31327 0.0
C532 C 0.27512 0.62013 0.31782 0.0
C533 C 0.28639 0.60322 0.30265 0.0
H534 H 0.30107 0.56605 0.26996 0.0
H535 H 0.27407 0.52105 0.24764 0.0
H536 H 0.20348 0.62691 0.34894 0.0
H537 H 0.24697 0.64715 0.34459 0.0
H538 H 0.28544 0.64087 0.32643 0.0
H539 H 0.30515 0.61133 0.29958 0.0
Mn540 Mn 0.85251 0.94172 0.56489 0.0
Mn541 Mn 0.85825 0.99192 0.52159 0.0
C542 C 0.89261 0.96776 0.56015 0.0
C543 C 0.84573 0.92558 0.60796 0.0
C544 C 0.84555 0.93 0.50239 0.0
O545 O 0.8179 0.95021 0.55838 0.0
O546 O 0.82499 0.98485 0.53187 0.0
C547 C 0.85497 0.04121 0.55634 0.0
N548 N 0.86722 0.02881 0.53972 0.0
C549 C 0.89512 0.07261 0.53699 0.0
C550 C 0.88287 0.08587 0.55417 0.0
C551 C 0.86279 0.07007 0.564 0.0
C552 C 0.88663 0.04379 0.53027 0.0
H553 H 0.83914 0.02921 0.56333 0.0
C554 C 0.81106 0.96913 0.54509 0.0
O555 O 0.84054 0.90906 0.58573 0.0
O556 O 0.85524 0.95153 0.60545 0.0
N557 N 0.88917 1.0014 0.50944 0.0
C558 C 0.90039 0.98493 0.49536 0.0
C559 C 0.92141 0.99719 0.48497 0.0
C560 C 0.93053 0.02626 0.48897 0.0
C561 C 0.91884 0.04273 0.50388 0.0
C562 C 0.89813 0.02927 0.51399 0.0
H563 H 0.89377 0.96259 0.49284 0.0
O564 O 0.88938 0.94364 0.56948 0.0
O565 O 0.87235 0.97646 0.55407 0.0
O566 O 0.84628 0.92096 0.52563 0.0
O567 O 0.84929 0.95581 0.4995 0.0
C568 C 0.92727 0.07187 0.50971 0.0
C569 C 0.91542 0.0868 0.52627 0.0
H570 H 0.88871 0.10816 0.55995 0.0
H571 H 0.85317 0.0802 0.57714 0.0
H572 H 0.93061 0.98425 0.47398 0.0
H573 H 0.94681 0.03565 0.481 0.0
H574 H 0.94318 0.08292 0.50208 0.0
H575 H 0.92232 0.10914 0.53095 0.0
Mn576 Mn 0.93411 0.04606 0.20928 0.0
Mn577 Mn 0.89012 0.04107 0.24693 0.0
C578 C 0.90822 1.00267 0.20917 0.0
C579 C 0.95329 0.06258 0.17441 0.0
C580 C 0.94447 0.05284 0.26754 0.0
O581 O 0.93101 0.08594 0.22038 0.0
O582 O 0.89236 0.07559 0.22985 0.0
C583 C 0.84355 0.0357 0.20848 0.0
N584 N 0.85705 0.02571 0.22861 0.0
C585 C 0.82153 0.9905 0.23361 0.0
C586 C 0.80722 1.00029 0.21282 0.0
C587 C 0.81833 0.02285 0.20006 0.0
C588 C 0.84671 1.00364 0.24061 0.0
H589 H 0.85196 0.05349 0.19915 0.0
C590 C 0.91107 0.09266 0.22443 0.0
O591 O 0.96549 0.06109 0.1978 0.0
O592 O 0.92928 0.05299 0.17015 0.0
N593 N 0.88628 1.00802 0.26509 0.0
C594 C 0.90256 1.001 0.2849 0.0
C595 C 0.89427 0.97931 0.30007 0.0
C596 C 0.86919 0.96537 0.29523 0.0
C597 C 0.85271 0.9729 0.27489 0.0
C598 C 0.86208 0.99458 0.26025 0.0
H599 H 0.92167 1.01206 0.28966 0.0
O600 O 0.92892 1.00466 0.20014 0.0
O601 O 0.90257 0.02597 0.21582 0.0
O602 O 0.94903 0.04178 0.24641 0.0
O603 O 0.92339 0.05754 0.26925 0.0
C604 C 0.82729 0.95985 0.26868 0.0
C605 C 0.81178 0.96838 0.24781 0.0
H606 H 0.78768 0.99071 0.20656 0.0
H607 H 0.80737 0.03059 0.18408 0.0
H608 H 0.90714 0.97362 0.31573 0.0
H609 H 0.86282 0.94878 0.30714 0.0
H610 H 0.81955 0.94298 0.27961 0.0
H611 H 0.79233 0.95792 0.24298 0.0
Mn612 Mn 0.29498 0.73857 0.53655 0.0
Mn613 Mn 0.26988 0.68486 0.48693 0.0
C614 C 0.25223 0.715 0.52855 0.0
C615 C 0.30904 0.7558 0.58441 0.0
C616 C 0.28635 0.74473 0.47457 0.0
O617 O 0.3262 0.72346 0.53043 0.0
O618 O 0.30535 0.68845 0.49835 0.0
C619 C 0.27684 0.63586 0.51483 0.0
N620 N 0.26155 0.6499 0.501 0.0
C621 C 0.22653 0.61095 0.49729 0.0
C622 C 0.24192 0.59604 0.51142 0.0
C623 C 0.26716 0.60859 0.52031 0.0
C624 C 0.23723 0.638 0.49234 0.0
H625 H 0.29629 0.64531 0.52144 0.0
C626 C 0.32531 0.70191 0.51381 0.0
O627 O 0.31343 0.77149 0.56537 0.0
O628 O 0.29861 0.73005 0.57567 0.0
N629 N 0.23507 0.67982 0.47498 0.0
C630 C 0.2226 0.69761 0.46286 0.0
C631 C 0.19696 0.68873 0.45369 0.0
C632 C 0.18446 0.66163 0.457 0.0
C633 C 0.19768 0.64382 0.46981 0.0
C634 C 0.22318 0.65392 0.47868 0.0
H635 H 0.23212 0.7185 0.46047 0.0
O636 O 0.2594 0.74071 0.53928 0.0
O637 O 0.26961 0.70487 0.52122 0.0
O638 O 0.29413 0.75637 0.49904 0.0
O639 O 0.27719 0.71869 0.46931 0.0
C640 C 0.18654 0.61654 0.47433 0.0
C641 C 0.20098 0.60008 0.48796 0.0
H642 H 0.23455 0.57497 0.51562 0.0
H643 H 0.27917 0.5972 0.53118 0.0
H644 H 0.18686 0.70271 0.44409 0.0
H645 H 0.16467 0.65483 0.44988 0.0
H646 H 0.16688 0.60807 0.46753 0.0
H647 H 0.19219 0.57915 0.49138 0.0
Mn648 Mn 0.43195 0.54623 0.70403 0.0
Mn649 Mn 0.38997 0.54395 0.74449 0.0
C650 C 0.40531 0.50388 0.70602 0.0
C651 C 0.45156 0.55766 0.6674 0.0
C652 C 0.44447 0.55401 0.76269 0.0
O653 O 0.43004 0.587 0.71385 0.0
O654 O 0.39308 0.57883 0.72795 0.0
C655 C 0.3423 0.5421 0.70948 0.0
N656 N 0.35616 0.53044 0.72786 0.0
C657 C 0.32012 0.49711 0.73477 0.0
C658 C 0.30545 0.50858 0.7157 0.0
C659 C 0.31661 0.5311 0.70292 0.0
C660 C 0.34565 0.50865 0.74014 0.0
H661 H 0.35078 0.55993 0.70024 0.0
C662 C 0.41134 0.59491 0.72055 0.0
O663 O 0.46319 0.55829 0.69148 0.0
O664 O 0.42738 0.55086 0.66384 0.0
N665 N 0.38564 0.51065 0.76224 0.0
C666 C 0.40228 0.50217 0.78052 0.0
C667 C 0.39406 0.48012 0.79533 0.0
C668 C 0.36874 0.46736 0.79172 0.0
C669 C 0.35191 0.47647 0.77298 0.0
C670 C 0.36123 0.49835 0.75854 0.0
H671 H 0.42166 0.51222 0.78418 0.0
O672 O 0.42565 0.50467 0.69658 0.0
O673 O 0.40035 0.52774 0.71221 0.0
O674 O 0.44815 0.54304 0.74108 0.0
O675 O 0.42378 0.55892 0.76558 0.0
C676 C 0.32623 0.46474 0.76812 0.0
C677 C 0.31036 0.47493 0.7489 0.0
H678 H 0.28558 0.50041 0.71087 0.0
H679 H 0.30537 0.54024 0.6884 0.0
H680 H 0.40721 0.47318 0.80971 0.0
H681 H 0.36244 0.45047 0.80332 0.0
H682 H 0.31852 0.44775 0.77892 0.0
H683 H 0.29066 0.46565 0.74526 0.0
Mn684 Mn 0.66198 1.00531 0.74237 0.0
Mn685 Mn 0.70789 0.0258 0.79681 0.0
C686 C 0.67853 0.05157 0.75767 0.0
C687 C 0.64528 0.99869 0.69672 0.0
C688 C 0.65425 1.00571 0.80067 0.0
O689 O 0.67655 0.97064 0.74443 0.0
O690 O 0.70422 0.98698 0.78278 0.0
C691 C 0.75024 0.02211 0.76968 0.0
N692 N 0.73886 0.03723 0.78502 0.0
C693 C 0.77397 0.07651 0.79225 0.0
C694 C 0.78604 0.06135 0.77652 0.0
C695 C 0.77407 0.03408 0.7651 0.0
C696 C 0.75006 0.06365 0.79575 0.0
H697 H 0.7413 1.00102 0.76116 0.0
C698 C 0.69355 0.96795 0.76353 0.0
O699 O 0.63294 0.98716 0.71421 0.0
O700 O 0.66851 1.01061 0.70526 0.0
N701 N 0.7139 0.06359 0.81266 0.0
C702 C 0.70022 0.07501 0.82835 0.0
C703 C 0.71001 0.10176 0.8422 0.0
C704 C 0.73393 0.11638 0.84016 0.0
C705 C 0.74774 0.1042 0.82407 0.0
C706 C 0.73703 0.07742 0.81078 0.0
H707 H 0.68199 0.06379 0.83039 0.0
O708 O 0.65605 0.04381 0.74439 0.0
O709 O 0.69027 0.03229 0.76236 0.0
O710 O 0.64627 0.99805 0.7757 0.0
O711 O 0.67701 0.01579 0.81058 0.0
C712 C 0.77183 0.11748 0.82094 0.0
C713 C 0.78485 0.10374 0.80485 0.0
H714 H 0.80455 0.07039 0.7732 0.0
H715 H 0.7833 0.02221 0.75301 0.0
H716 H 0.6992 0.11103 0.85454 0.0
H717 H 0.74144 0.13701 0.8509 0.0
H718 H 0.78049 0.13829 0.83077 0.0
H719 H 0.80334 0.11419 0.80254 0.0
Mn720 Mn 0.78683 0.7437 0.0321 0.0
Mn721 Mn 0.77099 0.69431 0.97886 0.0
C722 C 0.74451 0.72171 1.01547 0.0
C723 C 0.79413 0.7564 0.07975 0.0
C724 C 0.79014 0.756 0.9728 0.0
O725 O 0.81949 0.73027 0.03253 0.0
O726 O 0.80542 0.69711 0.99715 0.0
C727 C 0.77231 0.6448 1.0082 0.0
N728 N 0.75988 0.65847 0.99037 0.0
C729 C 0.72391 0.62026 0.98206 0.0
C730 C 0.73657 0.60546 0.99977 0.0
C731 C 0.76082 0.61787 1.01304 0.0
C732 C 0.73642 0.64691 0.97782 0.0
H733 H 0.79074 0.65444 0.01886 0.0
C734 C 0.82239 0.71018 0.01668 0.0
O735 O 0.8019 0.77411 0.06342 0.0
O736 O 0.78372 0.73137 0.06861 0.0
N737 N 0.73782 0.68928 0.96013 0.0
C738 C 0.72756 0.70733 0.94566 0.0
C739 C 0.7028 0.69886 0.93248 0.0
C740 C 0.68892 0.67194 0.93429 0.0
C741 C 0.69991 0.65375 0.94936 0.0
C742 C 0.72468 0.66329 0.96191 0.0
H743 H 0.73818 0.72804 0.94424 0.0
O744 O 0.751 0.74675 0.02794 0.0
O745 O 0.76307 0.71127 1.01148 0.0
O746 O 0.79278 0.76473 0.99794 0.0
O747 O 0.78196 0.73021 0.96406 0.0
C748 C 0.68713 0.6267 0.95278 0.0
C749 C 0.69913 0.60996 0.9691 0.0
H750 H 0.72767 0.58479 1.00376 0.0
H751 H 0.77057 0.6068 0.0271 0.0
H752 H 0.69443 0.71305 0.92096 0.0
H753 H 0.66979 0.66553 0.9242 0.0
H754 H 0.66795 0.61872 0.94327 0.0
H755 H 0.68898 0.58941 0.97197 0.0
Mn756 Mn 0.98022 0.68707 0.83076 0.0
Mn757 Mn 0.93835 0.67462 0.87182 0.0
C758 C 0.9619 0.64273 0.83704 0.0
C759 C 0.99127 0.68811 0.78875 0.0
C760 C 0.99366 0.69082 0.89174 0.0
O761 O 0.96818 0.72306 0.83171 0.0
O762 O 0.94057 0.71234 0.85964 0.0
C763 C 0.89286 0.6741 0.8326 0.0
N764 N 0.90586 0.66102 0.85052 0.0
C765 C 0.87308 0.61921 0.84129 0.0
C766 C 0.85922 0.63255 0.82327 0.0
C767 C 0.86919 0.6601 0.81887 0.0
C768 C 0.89645 0.63438 0.85475 0.0
H769 H 0.90055 0.69489 0.82846 0.0
C770 C 0.95053 0.72796 0.84315 0.0
O771 O 1.007 0.70006 0.81025 0.0
O772 O 0.96837 0.67934 0.79131 0.0
N773 N 0.93399 0.63795 0.88333 0.0
C774 C 0.94968 0.62769 0.90114 0.0
C775 C 0.94278 0.60003 0.90689 0.0
C776 C 0.91967 0.58319 0.89454 0.0
C777 C 0.90354 0.59432 0.87683 0.0
C778 C 0.91136 0.62215 0.872 0.0
H779 H 0.96727 0.64047 0.91114 0.0
O780 O 0.98374 0.64799 0.83065 0.0
O781 O 0.95239 0.66378 0.84122 0.0
O782 O 0.99986 0.69528 0.86903 0.0
O783 O 0.97128 0.68642 0.89555 0.0
C784 C 0.88005 0.57879 0.86366 0.0
C785 C 0.86483 0.59123 0.84592 0.0
H786 H 0.84106 0.62171 0.8124 0.0
H787 H 0.85876 0.67044 0.8047 0.0
H788 H 0.95524 0.59174 0.92087 0.0
H789 H 0.91445 0.56179 0.89893 0.0
H790 H 0.87358 0.55719 0.8669 0.0
H791 H 0.84689 0.57898 0.83572 0.0
Mn792 Mn 0.8448 0.44261 0.55407 0.0
Mn793 Mn 0.85231 0.49696 0.51644 0.0
C794 C 0.88462 0.46759 0.54978 0.0
C795 C 0.84093 0.42305 0.59561 0.0
C796 C 0.83463 0.43637 0.4912 0.0
O797 O 0.81126 0.45411 0.55156 0.0
O798 O 0.82034 0.49211 0.52946 0.0
C799 C 0.85721 0.54189 0.56047 0.0
N800 N 0.86589 0.53113 0.53941 0.0
C801 C 0.90061 0.57073 0.54516 0.0
C802 C 0.89148 0.58274 0.5662 0.0
C803 C 0.86982 0.56811 0.57408 0.0
C804 C 0.88719 0.54458 0.53232 0.0
H805 H 0.84103 0.53035 0.56711 0.0
C806 C 0.8061 0.47604 0.54219 0.0
O807 O 0.83279 0.40862 0.57224 0.0
O808 O 0.85084 0.44927 0.59505 0.0
N809 N 0.88282 0.50458 0.50311 0.0
C810 C 0.89046 0.48892 0.48432 0.0
C811 C 0.91244 0.49993 0.47504 0.0
C812 C 0.92632 0.52694 0.4851 0.0
C813 C 0.91824 0.54257 0.50461 0.0
C814 C 0.89603 0.53061 0.51288 0.0
H815 H 0.87997 0.46813 0.47659 0.0
O816 O 0.88118 0.44221 0.55613 0.0
O817 O 0.86486 0.47703 0.54559 0.0
O818 O 0.83617 0.42571 0.51364 0.0
O819 O 0.83913 0.46274 0.49022 0.0
C820 C 0.9316 0.5693 0.51657 0.0
C821 C 0.92287 0.58331 0.53695 0.0
H822 H 0.90123 0.60288 0.57684 0.0
H823 H 0.86297 0.57693 0.59072 0.0
H824 H 0.91873 0.48758 0.46025 0.0
H825 H 0.94341 0.53525 0.47809 0.0
H826 H 0.94891 0.579 0.51069 0.0
H827 H 0.93362 0.60356 0.54646 0.0
Mn828 Mn 0.70199 0.63061 0.36605 0.0
Mn829 Mn 0.74629 0.64794 0.42046 0.0
C830 C 0.72272 0.67665 0.3766 0.0
C831 C 0.68665 0.61398 0.32224 0.0
C832 C 0.69158 0.63058 0.42235 0.0
O833 O 0.71157 0.59413 0.37301 0.0
O834 O 0.74553 0.60941 0.40527 0.0
C835 C 0.79175 0.64809 0.39776 0.0
N836 N 0.77805 0.66195 0.41122 0.0
C837 C 0.8092 0.70484 0.41591 0.0
C838 C 0.82364 0.69101 0.40217 0.0
C839 C 0.81485 0.66252 0.39303 0.0
C840 C 0.78637 0.68934 0.42019 0.0
H841 H 0.78505 0.62624 0.39051 0.0
C842 C 0.73142 0.59081 0.38711 0.0
O843 O 0.673 0.61108 0.34063 0.0
O844 O 0.70995 0.62669 0.3293 0.0
N845 N 0.74885 0.68541 0.43525 0.0
C846 C 0.73213 0.69606 0.44689 0.0
C847 C 0.73785 0.72447 0.45651 0.0
C848 C 0.76064 0.74167 0.454 0.0
C849 C 0.77751 0.73029 0.44185 0.0
C850 C 0.77088 0.70178 0.43282 0.0
H851 H 0.71454 0.68305 0.44884 0.0
O852 O 0.70044 0.6701 0.3625 0.0
O853 O 0.73144 0.65578 0.38474 0.0
O854 O 0.68483 0.63088 0.39751 0.0
O855 O 0.71424 0.63421 0.43339 0.0
C856 C 0.80053 0.74622 0.43807 0.0
C857 C 0.81635 0.7335 0.42509 0.0
H858 H 0.84139 0.70212 0.3983 0.0
H859 H 0.82582 0.65174 0.38226 0.0
H860 H 0.72469 0.7331 0.4658 0.0
H861 H 0.76494 0.76361 0.46135 0.0
H862 H 0.80616 0.76832 0.44486 0.0
H863 H 0.83389 0.74602 0.42206 0.0
Pr864 Pr 0.03889 0.07897 0.01832 0.0
Pr865 Pr 0.09395 0.10428 0.05524 0.0
C866 C 0.98998 0.07629 1.00428 0.0
C867 C 0.9738 0.09625 1.00657 0.0
C868 C 0.95342 0.09545 0.98623 0.0
C869 C 0.93663 0.1122 0.98965 0.0
C870 C 0.93971 0.12992 1.01365 0.0
C871 C 0.9607 0.13149 0.03349 0.0
C872 C 0.97757 0.11503 0.02996 0.0
C873 C 0.07891 0.0799 0.99314 0.0
C874 C 0.0663 0.14992 0.02634 0.0
C875 C 0.14257 0.10541 0.06923 0.0
C876 C 0.15845 0.08472 0.06854 0.0
C877 C 0.17071 0.07738 0.0925 0.0
C878 C 0.18722 0.05973 0.0918 0.0
C879 C 0.19205 0.04914 0.0671 0.0
C880 C 0.17902 0.05565 0.04317 0.0
C881 C 0.16251 0.07309 0.04386 0.0
C882 C 0.05335 0.09861 0.08117 0.0
C883 C 0.06721 0.03369 0.04741 0.0
O884 O 1.00001 0.06907 0.02701 0.0
O885 O 1.00509 0.07988 0.98688 0.0
O886 O 0.07678 0.09817 1.01071 0.0
O887 O 0.05834 0.06051 0.98551 0.0
O888 O 0.08721 0.14703 0.04112 0.0
O889 O 0.04693 0.12848 0.01803 0.0
O890 O 0.13266 0.11175 0.04597 0.0
O891 O 0.12773 0.10399 0.08694 0.0
O892 O 0.05649 0.08314 0.06203 0.0
O893 O 0.07351 0.11826 0.09018 0.0
O894 O 0.04579 0.03689 0.034 0.0
O895 O 0.08695 0.05489 0.05427 0.0
H896 H 0.95007 0.08124 0.96801 0.0
H897 H 0.92066 0.1104 0.97398 0.0
H898 H 0.96388 0.14519 0.05203 0.0
H899 H 0.99323 0.11646 0.04594 0.0
H900 H 0.16801 0.08586 0.11184 0.0
H901 H 0.19694 0.05529 0.11063 0.0
H902 H 0.18186 0.04755 0.02374 0.0
H903 H 0.15333 0.07788 0.02489 0.0
Pr904 Pr 0.32502 0.87328 0.3034 0.0
Pr905 Pr 0.32303 0.82344 0.28182 0.0
C906 C 0.33982 0.92607 0.32529 0.0
C907 C 0.34957 0.9525 0.31601 0.0
C908 C 0.33996 0.95961 0.29077 0.0
C909 C 0.35249 0.9833 0.28093 0.0
C910 C 0.37486 0.99923 0.29605 0.0
C911 C 0.38401 0.99197 0.3214 0.0
C912 C 0.37146 0.96883 0.33125 0.0
C913 C 0.27655 0.85302 0.27533 0.0
C914 C 0.33828 0.86938 0.24099 0.0
C915 C 0.31082 0.77016 0.26125 0.0
C916 C 0.2962 0.7452 0.26942 0.0
C917 C 0.30767 0.72425 0.2782 0.0
C918 C 0.29332 0.69912 0.28312 0.0
C919 C 0.26741 0.69464 0.27845 0.0
C920 C 0.25628 0.71669 0.27236 0.0
C921 C 0.2706 0.74189 0.26803 0.0
C922 C 0.37002 0.84246 0.31452 0.0
C923 C 0.30898 0.82665 0.34315 0.0
O924 O 0.35459 0.90912 0.32501 0.0
O925 O 0.31643 0.91411 0.31682 0.0
O926 O 0.29591 0.85096 0.26613 0.0
O927 O 0.28203 0.86282 0.30064 0.0
O928 O 0.33337 0.84263 0.24325 0.0
O929 O 0.33837 0.88667 0.2622 0.0
O930 O 0.29866 0.78838 0.25276 0.0
O931 O 0.33196 0.78126 0.27688 0.0
O932 O 0.34965 0.84481 0.32065 0.0
O933 O 0.3669 0.83276 0.28933 0.0
O934 O 0.31933 0.85305 0.343 0.0
O935 O 0.30412 0.81034 0.32009 0.0
H936 H 0.32322 0.94666 0.27854 0.0
H937 H 0.34499 0.98899 0.26161 0.0
H938 H 0.40083 1.00444 0.33392 0.0
H939 H 0.37927 0.96318 0.3505 0.0
H940 H 0.32752 0.72685 0.28009 0.0
H941 H 0.3023 0.68254 0.28856 0.0
H942 H 0.23635 0.71389 0.26853 0.0
H943 H 0.26134 0.75809 0.26207 0.0
Pr944 Pr 0.59895 0.10014 0.54006 0.0
Pr945 Pr 0.54413 0.09663 0.55021 0.0
C946 C 0.64505 0.09329 0.53832 0.0
C947 C 0.6612 0.0736 0.53583 0.0
C948 C 0.67756 0.07806 0.51754 0.0
C949 C 0.69448 0.06147 0.51567 0.0
C950 C 0.69541 0.03954 0.53185 0.0
C951 C 0.67877 0.0349 0.55013 0.0
C952 C 0.66186 0.0518 0.55215 0.0
C953 C 0.57031 0.1237 0.50254 0.0
C954 C 0.55496 0.04091 0.52034 0.0
C955 C 0.49864 0.1029 0.55644 0.0
C956 C 0.48049 0.12064 0.55533 0.0
C957 C 0.46021 0.11281 0.56832 0.0
C958 C 0.44083 0.12646 0.56512 0.0
C959 C 0.44126 0.14838 0.54887 0.0
C960 C 0.46232 0.1575 0.53716 0.0
C961 C 0.48184 0.14371 0.5404 0.0
C962 C 0.57475 0.07442 0.58752 0.0
C963 C 0.58644 0.1572 0.56512 0.0
O964 O 0.63663 0.09625 0.5608 0.0
O965 O 0.62944 0.09537 0.51686 0.0
O966 O 0.56242 0.10173 0.51295 0.0
O967 O 0.5942 0.13255 0.50916 0.0
O968 O 0.53766 0.05485 0.52246 0.0
O969 O 0.57881 0.05238 0.52879 0.0
O970 O 0.50344 0.09279 0.53376 0.0
O971 O 0.51774 0.10881 0.57609 0.0
O972 O 0.58101 0.09683 0.5774 0.0
O973 O 0.5513 0.06317 0.57966 0.0
O974 O 0.60453 0.14418 0.56405 0.0
O975 O 0.56283 0.1445 0.55759 0.0
H976 H 0.67764 0.09491 0.50496 0.0
H977 H 0.70728 0.06642 0.50187 0.0
H978 H 0.6787 0.01816 0.56281 0.0
H979 H 0.64948 0.04794 0.56655 0.0
H980 H 0.45885 0.0953 0.58015 0.0
H981 H 0.42491 0.11906 0.57447 0.0
H982 H 0.4631 0.17425 0.52442 0.0
H983 H 0.49754 0.15054 0.53065 0.0
Pr984 Pr 0.29279 0.34434 0.78997 0.0
Pr985 Pr 0.3462 0.32938 0.79504 0.0
C986 C 0.24802 0.35057 0.79712 0.0
C987 C 0.23319 0.35174 0.81857 0.0
C988 C 0.22082 0.37329 0.82015 0.0
C989 C 0.20459 0.37366 0.83826 0.0
C990 C 0.20026 0.35233 0.8551 0.0
C991 C 0.21385 0.33167 0.8548 0.0
C992 C 0.23026 0.33137 0.83663 0.0
C993 C 0.32772 0.37992 0.76761 0.0
C994 C 0.33182 0.35802 0.85033 0.0
C995 C 0.39359 0.32765 0.79509 0.0
C996 C 0.41381 0.33097 0.77962 0.0
C997 C 0.42748 0.31048 0.77985 0.0
C998 C 0.44736 0.31295 0.76621 0.0
C999 C 0.45403 0.33609 0.75214 0.0
C1000 C 0.43993 0.35637 0.75138 0.0
C1001 C 0.4199 0.35381 0.76503 0.0
C1002 C 0.31223 0.28609 0.81133 0.0
C1003 C 0.30756 0.31638 0.73509 0.0
O1004 O 0.25218 0.32635 0.78942 0.0
O1005 O 0.2669 0.37175 0.79791 0.0
O1006 O 0.33232 0.36927 0.7893 0.0
O1007 O 0.30407 0.37464 0.75838 0.0
O1008 O 0.34938 0.34998 0.8393 0.0
O1009 O 0.30967 0.35712 0.83617 0.0
O1010 O 0.38721 0.34992 0.80444 0.0
O1011 O 0.37495 0.3062 0.78683 0.0
O1012 O 0.30809 0.30819 0.80308 0.0
O1013 O 0.33494 0.28534 0.81064 0.0
O1014 O 0.28879 0.31903 0.74731 0.0
O1015 O 0.33077 0.32213 0.74813 0.0
H1016 H 0.22302 0.38936 0.80665 0.0
H1017 H 0.19451 0.38997 0.83823 0.0
H1018 H 0.21073 0.31493 0.86744 0.0
H1019 H 0.23991 0.31471 0.83605 0.0
H1020 H 0.42284 0.29255 0.79079 0.0
H1021 H 0.45747 0.29666 0.76665 0.0
H1022 H 0.44466 0.37447 0.74071 0.0
H1023 H 0.40943 0.36972 0.76437 0.0
Pr1024 Pr 0.07001 0.07942 0.52017 0.0
Pr1025 Pr 0.06903 0.11035 0.56122 0.0
C1026 C 0.05873 0.05338 0.47061 0.0
C1027 C 0.05196 0.06655 0.44652 0.0
C1028 C 0.06698 0.06912 0.42684 0.0
C1029 C 0.06093 0.08262 0.4044 0.0
C1030 C 0.03951 0.09319 0.40126 0.0
C1031 C 0.02578 0.09266 0.4221 0.0
C1032 C 0.03191 0.07943 0.44451 0.0
C1033 C 0.11826 0.11301 0.53529 0.0
C1034 C 0.05621 0.14196 0.51069 0.0
C1035 C 0.08041 0.13677 0.6107 0.0
C1036 C 0.09079 0.12549 0.63461 0.0
C1037 C 0.07569 0.11623 0.65323 0.0
C1038 C 0.08478 0.10343 0.67487 0.0
C1039 C 0.10922 0.10026 0.67838 0.0
C1040 C 0.12387 0.10806 0.65903 0.0
C1041 C 0.11472 0.12058 0.63725 0.0
C1042 C 0.0207 0.07613 0.5463 0.0
C1043 C 0.08491 0.04995 0.57194 0.0
O1044 O 0.04286 0.0507 0.48705 0.0
O1045 O 0.08166 0.06234 0.48283 0.0
O1046 O 0.09854 0.12181 0.53356 0.0
O1047 O 0.11315 0.08591 0.53252 0.0
O1048 O 0.0603 0.14609 0.5369 0.0
O1049 O 0.05757 0.11764 0.49913 0.0
O1050 O 0.09484 0.14218 0.59299 0.0
O1051 O 0.05771 0.12416 0.59991 0.0
O1052 O 0.04054 0.0676 0.5477 0.0
O1053 O 0.02585 0.1032 0.54951 0.0
O1054 O 0.07718 0.04377 0.54601 0.0
O1055 O 0.08631 0.07557 0.5824 0.0
H1056 H 0.08305 0.06021 0.42856 0.0
H1057 H 0.07183 0.08293 0.38853 0.0
H1058 H 1.00901 0.10029 0.42015 0.0
H1059 H 0.02046 0.07875 0.45989 0.0
H1060 H 0.05696 0.1191 0.65116 0.0
H1061 H 0.07332 0.09763 0.68984 0.0
H1062 H 0.14292 0.10619 0.66165 0.0
H1063 H 0.12659 0.1267 0.62274 0.0
Pr1064 Pr 0.31074 0.81686 0.79462 0.0
Pr1065 Pr 0.32712 0.87091 0.7827 0.0
C1066 C 0.30658 0.76163 0.79337 0.0
C1067 C 0.3225 0.74418 0.7846 0.0
C1068 C 0.3266 0.72204 0.79906 0.0
C1069 C 0.34382 0.7072 0.79289 0.0
C1070 C 0.35712 0.71422 0.77206 0.0
C1071 C 0.35292 0.73636 0.75752 0.0
C1072 C 0.33598 0.75147 0.76399 0.0
C1073 C 0.31141 0.84787 0.84432 0.0
C1074 C 0.36983 0.84395 0.81148 0.0
C1075 C 0.33164 0.92563 0.77749 0.0
C1076 C 0.31814 0.94547 0.78734 0.0
C1077 C 0.32401 0.97322 0.78185 0.0
C1078 C 0.31226 0.99251 0.79247 0.0
C1079 C 0.29436 0.9843 0.80868 0.0
C1080 C 0.28759 0.95615 0.81309 0.0
C1081 C 0.29952 0.93688 0.8026 0.0
C1082 C 0.3305 0.83333 0.73868 0.0
C1083 C 0.26597 0.84434 0.77032 0.0
O1084 O 0.2942 0.77272 0.77472 0.0
O1085 O 0.31685 0.77907 0.81474 0.0
O1086 O 0.31843 0.85922 0.82414 0.0
O1087 O 0.30217 0.82141 0.83829 0.0
O1088 O 0.36336 0.86787 0.81196 0.0
O1089 O 0.35375 0.82182 0.79861 0.0
O1090 O 0.34593 0.91644 0.79585 0.0
O1091 O 0.31862 0.90591 0.75912 0.0
O1092 O 0.31259 0.83089 0.75161 0.0
O1093 O 0.34779 0.85508 0.74965 0.0
O1094 O 0.27043 0.82066 0.7776 0.0
O1095 O 0.28414 0.86668 0.77284 0.0
H1096 H 0.31682 0.71658 0.81545 0.0
H1097 H 0.3466 0.69007 0.80427 0.0
H1098 H 0.36311 0.74232 0.74155 0.0
H1099 H 0.33381 0.76921 0.75331 0.0
H1100 H 0.33811 0.98012 0.76989 0.0
H1101 H 0.31766 0.01408 0.78865 0.0
H1102 H 0.27402 0.94935 0.82569 0.0
H1103 H 0.29469 0.91545 0.80701 0.0
Pr1104 Pr 0.57797 0.08612 0.06915 0.0
Pr1105 Pr 0.56257 0.10612 1.01563 0.0
C1106 C 0.58525 0.0842 0.12252 0.0
C1107 C 0.57356 0.09648 0.14258 0.0
C1108 C 0.58289 0.09789 0.17009 0.0
C1109 C 0.57248 0.11147 0.18886 0.0
C1110 C 0.55275 0.12364 0.18009 0.0
C1111 C 0.54295 0.12147 0.15263 0.0
C1112 C 0.5533 0.10791 0.13396 0.0
C1113 C 0.57605 0.04052 0.03121 0.0
C1114 C 0.51912 0.06674 0.04159 0.0
C1115 C 0.55472 0.11033 0.96269 0.0
C1116 C 0.56246 0.09427 0.94175 0.0
C1117 C 0.56432 0.10414 0.91672 0.0
C1118 C 0.57634 0.09152 0.89892 0.0
C1119 C 0.58686 0.06934 0.90642 0.0
C1120 C 0.58417 0.05895 0.93109 0.0
C1121 C 0.57202 0.07131 0.94864 0.0
C1122 C 0.56268 0.15065 0.05432 0.0
C1123 C 0.62308 0.11802 0.03981 0.0
O1124 O 0.59983 0.10214 0.1109 0.0
O1125 O 0.57029 0.06423 0.10554 0.0
O1126 O 0.57106 0.06354 0.02518 0.0
O1127 O 0.58366 0.04182 0.05689 0.0
O1128 O 0.52601 0.07393 0.01891 0.0
O1129 O 0.53447 0.07458 0.06471 0.0
O1130 O 0.53769 0.0964 0.9747 0.0
O1131 O 0.57333 0.12638 0.97948 0.0
O1132 O 0.56811 0.12775 0.05961 0.0
O1133 O 0.55503 0.14975 0.02874 0.0
O1134 O 0.61765 0.10825 0.06225 0.0
O1135 O 0.60576 0.11692 0.0187 0.0
H1136 H 0.59839 0.08895 0.17697 0.0
H1137 H 0.57999 0.11283 0.21012 0.0
H1138 H 0.5277 0.1308 0.14566 0.0
H1139 H 0.54584 0.10685 0.11272 0.0
H1140 H 0.55749 0.12225 0.91149 0.0
H1141 H 0.57847 0.09986 0.87998 0.0
H1142 H 0.59213 0.04179 0.93709 0.0
H1143 H 0.57116 0.06383 0.96816 0.0
Pr1144 Pr 0.29005 0.31868 0.28035 0.0
Pr1145 Pr 0.34615 0.36241 0.30033 0.0
C1146 C 0.24263 0.29333 0.28182 0.0
C1147 C 0.22246 0.29924 0.29557 0.0
C1148 C 0.19985 0.3005 0.27995 0.0
C1149 C 0.18081 0.30709 0.29208 0.0
C1150 C 0.18381 0.3128 0.32027 0.0
C1151 C 0.20636 0.31107 0.33599 0.0
C1152 C 0.22545 0.30441 0.32378 0.0
C1153 C 0.3108 0.34277 0.23624 0.0
C1154 C 0.29613 0.38554 0.29009 0.0
C1155 C 0.39401 0.38706 0.3005 0.0
C1156 C 0.41237 0.38423 0.2832 0.0
C1157 C 0.43768 0.39569 0.2928 0.0
C1158 C 0.45537 0.39197 0.27704 0.0
C1159 C 0.44794 0.377 0.25129 0.0
C1160 C 0.42263 0.36508 0.24196 0.0
C1161 C 0.40505 0.36832 0.25792 0.0
C1162 C 0.32649 0.34049 0.34546 0.0
C1163 C 0.33958 0.29488 0.28716 0.0
O1164 O 0.26163 0.2868 0.29629 0.0
O1165 O 0.24896 0.30958 0.26356 0.0
O1166 O 0.31993 0.34525 0.26099 0.0
O1167 O 0.28975 0.32435 0.23303 0.0
O1168 O 0.3201 0.39247 0.28924 0.0
O1169 O 0.28527 0.36149 0.2972 0.0
O1170 O 0.37565 0.39807 0.29086 0.0
O1171 O 0.38698 0.36542 0.3132 0.0
O1172 O 0.31623 0.33617 0.3208 0.0
O1173 O 0.34713 0.35915 0.34721 0.0
O1174 O 0.31576 0.28815 0.28863 0.0
O1175 O 0.35035 0.31962 0.28114 0.0
H1176 H 0.19694 0.29656 0.2582 0.0
H1177 H 0.16363 0.30765 0.27924 0.0
H1178 H 0.20952 0.31553 0.3577 0.0
H1179 H 0.24263 0.30363 0.33643 0.0
H1180 H 0.44376 0.40746 0.31253 0.0
H1181 H 0.47477 0.40133 0.28468 0.0
H1182 H 0.41648 0.35314 0.22231 0.0
H1183 H 0.38577 0.35825 0.25058 0.0
Pr1184 Pr 0.56946 0.57961 1.01409 0.0
Pr1185 Pr 0.56958 0.60467 0.05974 0.0
C1186 C 0.55918 0.55713 0.96318 0.0
C1187 C 0.55424 0.57108 0.93927 0.0
C1188 C 0.56892 0.57077 0.91942 0.0
C1189 C 0.56385 0.58366 0.89632 0.0
C1190 C 0.54372 0.59638 0.89276 0.0
C1191 C 0.53074 0.59906 0.91392 0.0
C1192 C 0.53595 0.58647 0.93701 0.0
C1193 C 0.61771 0.61265 0.03103 0.0
C1194 C 0.55654 0.64273 1.0127 0.0
C1195 C 0.58268 0.63144 0.10931 0.0
C1196 C 0.58854 0.62329 0.13595 0.0
C1197 C 0.57349 0.6002 0.14452 0.0
C1198 C 0.58189 0.58996 0.16824 0.0
C1199 C 0.60548 0.60245 0.18297 0.0
C1200 C 0.62018 0.62584 0.17452 0.0
C1201 C 0.6117 0.63625 0.15118 0.0
C1202 C 0.52205 0.56801 0.04421 0.0
C1203 C 0.58403 0.54262 0.06202 0.0
O1204 O 0.54243 0.55476 0.97862 0.0
O1205 O 0.58184 0.5649 0.97642 0.0
O1206 O 0.59795 0.62096 0.03166 0.0
O1207 O 0.6126 0.58587 0.02473 0.0
O1208 O 0.56356 0.64356 0.03865 0.0
O1209 O 0.55431 0.61887 0.99788 0.0
O1210 O 0.59858 0.62776 0.09398 0.0
O1211 O 0.5596 0.62392 0.09707 0.0
O1212 O 0.5425 0.56207 0.0422 0.0
O1213 O 0.5256 0.59429 0.05268 0.0
O1214 O 0.57767 0.54151 0.0358 0.0
O1215 O 0.5843 0.56587 0.07684 0.0
H1216 H 0.58368 0.5598 0.92138 0.0
H1217 H 0.57418 0.58153 0.88024 0.0
H1218 H 0.51498 0.60848 0.91169 0.0
H1219 H 0.52487 0.58787 0.95251 0.0
H1220 H 0.55569 0.58964 0.13259 0.0
H1221 H 0.57027 0.57212 0.17482 0.0
H1222 H 0.63822 0.63623 0.18605 0.0
H1223 H 0.62361 0.6538 0.14446 0.0
Pr1224 Pr 0.81248 0.31355 0.29671 0.0
Pr1225 Pr 0.83223 0.37612 0.28244 0.0
C1226 C 0.80738 0.25858 0.29647 0.0
C1227 C 0.8246 0.2422 0.28929 0.0
C1228 C 0.82559 0.21733 0.30049 0.0
C1229 C 0.84334 0.20291 0.29508 0.0
C1230 C 0.86006 0.2132 0.27826 0.0
C1231 C 0.85927 0.23826 0.26734 0.0
C1232 C 0.84191 0.25292 0.27321 0.0
C1233 C 0.8139 0.35211 0.3419 0.0
C1234 C 0.87319 0.34412 0.31218 0.0
C1235 C 0.8375 0.43158 0.28422 0.0
C1236 C 0.82352 0.45037 0.29513 0.0
C1237 C 0.82123 0.47444 0.28293 0.0
C1238 C 0.8066 0.49141 0.29197 0.0
C1239 C 0.7942 0.48471 0.31356 0.0
C1240 C 0.79646 0.46049 0.32567 0.0
C1241 C 0.81064 0.44325 0.31622 0.0
C1242 C 0.83104 0.3381 0.23665 0.0
C1243 C 0.77106 0.34503 0.26861 0.0
O1244 O 0.79619 0.26957 0.27671 0.0
O1245 O 0.816 0.27592 0.31834 0.0
O1246 O 0.81944 0.3573 0.31915 0.0
O1247 O 0.80496 0.32542 0.34078 0.0
O1248 O 0.86888 0.36886 0.30787 0.0
O1249 O 0.85594 0.32077 0.30482 0.0
O1250 O 0.85082 0.42003 0.30167 0.0
O1251 O 0.82521 0.41423 0.26338 0.0
O1252 O 0.82526 0.33209 0.25924 0.0
O1253 O 0.84003 0.3649 0.23855 0.0
O1254 O 0.7751 0.32049 0.27392 0.0
O1255 O 0.78864 0.36834 0.27384 0.0
H1256 H 0.81281 0.20922 0.31353 0.0
H1257 H 0.84372 0.18348 0.30356 0.0
H1258 H 0.87216 0.2465 0.25445 0.0
H1259 H 0.84218 0.27278 0.26544 0.0
H1260 H 0.8305 0.4799 0.26617 0.0
H1261 H 0.80516 0.50993 0.28223 0.0
H1262 H 0.78674 0.45451 0.34199 0.0
H1263 H 0.81105 0.42405 0.32498 0.0
Pr1264 Pr 0.07712 0.58508 0.57027 0.0
Pr1265 Pr 0.05941 0.6058 0.5198 0.0
C1266 C 0.08312 0.5748 0.62201 0.0
C1267 C 0.07143 0.58503 0.64336 0.0
C1268 C 0.07507 0.57634 0.66907 0.0
C1269 C 0.06476 0.58745 0.68951 0.0
C1270 C 0.05084 0.6076 0.68452 0.0
C1271 C 0.04651 0.61541 0.65832 0.0
C1272 C 0.05662 0.60411 0.63792 0.0
C1273 C 0.07668 0.54621 0.52625 0.0
C1274 C 1.01671 0.56737 0.54616 0.0
C1275 C 0.05068 0.61215 0.46727 0.0
C1276 C 0.0587 0.59705 0.44592 0.0
C1277 C 0.05568 0.604 0.41944 0.0
C1278 C 0.06719 0.59201 0.40062 0.0
C1279 C 0.08171 0.57326 0.4085 0.0
C1280 C 0.08365 0.56548 0.43467 0.0
C1281 C 0.07251 0.57758 0.45331 0.0
C1282 C 0.06172 0.65015 0.55935 0.0
C1283 C 0.11906 0.62084 0.54092 0.0
O1284 O 0.09873 0.59395 0.61289 0.0
O1285 O 0.06801 0.55747 0.60283 0.0
O1286 O 0.06074 0.56046 0.52828 0.0
O1287 O 0.09383 0.55199 0.54769 0.0
O1288 O 0.02211 0.57608 0.52344 0.0
O1289 O 0.03361 0.57296 0.56832 0.0
O1290 O 0.03411 0.59714 0.47908 0.0
O1291 O 0.0691 0.62816 0.48432 0.0
O1292 O 0.06775 0.62759 0.56456 0.0
O1293 O 0.05181 0.64863 0.53429 0.0
O1294 O 0.11405 0.61599 0.56493 0.0
O1295 O 0.1018 0.61188 0.51952 0.0
H1296 H 0.08616 0.56133 0.67343 0.0
H1297 H 0.06801 0.58058 0.70933 0.0
H1298 H 0.03614 0.63104 0.65378 0.0
H1299 H 0.05337 0.61076 0.61799 0.0
H1300 H 0.04545 0.61947 0.41373 0.0
H1301 H 0.06586 0.59843 0.38052 0.0
H1302 H 0.09487 0.55108 0.44106 0.0
H1303 H 0.07578 0.57289 0.47395 0.0
Pr1304 Pr 0.79418 0.84109 0.29001 0.0
Pr1305 Pr 0.84968 0.83119 0.29739 0.0
C1306 C 0.74819 0.84578 0.29413 0.0
C1307 C 0.73108 0.84871 0.31295 0.0
C1308 C 0.72125 0.8724 0.31306 0.0
C1309 C 0.70257 0.87448 0.32764 0.0
C1310 C 0.69305 0.85275 0.34227 0.0
C1311 C 0.70397 0.82978 0.34366 0.0
C1312 C 0.72286 0.82772 0.32903 0.0
C1313 C 0.82872 0.879 0.26883 0.0
C1314 C 0.83273 0.85982 0.35053 0.0
C1315 C 0.89735 0.83176 0.29587 0.0
C1316 C 0.91643 0.83829 0.27915 0.0
C1317 C 0.93785 0.82836 0.2853 0.0
C1318 C 0.9559 0.83275 0.26907 0.0
C1319 C 0.95281 0.84712 0.24624 0.0
C1320 C 0.93113 0.85701 0.24005 0.0
C1321 C 0.91299 0.85249 0.25634 0.0
C1322 C 0.81792 0.78665 0.31498 0.0
C1323 C 0.81201 0.81498 0.23688 0.0
O1324 O 0.75372 0.82158 0.28971 0.0
O1325 O 0.7666 0.86728 0.29422 0.0
O1326 O 0.8329 0.86874 0.29071 0.0
O1327 O 0.80539 0.8716 0.25808 0.0
O1328 O 0.85167 0.85544 0.33959 0.0
O1329 O 0.80976 0.85437 0.33676 0.0
O1330 O 0.89054 0.85254 0.3077 0.0
O1331 O 0.87901 0.81034 0.28633 0.0
O1332 O 0.81218 0.80744 0.30527 0.0
O1333 O 0.84125 0.78831 0.31556 0.0
O1334 O 0.79236 0.81409 0.24866 0.0
O1335 O 0.83488 0.8243 0.25049 0.0
H1336 H 0.72732 0.88891 0.30094 0.0
H1337 H 0.69478 0.89263 0.3265 0.0
H1338 H 0.69696 0.81272 0.35475 0.0
H1339 H 0.73027 0.8093 0.32947 0.0
H1340 H 0.94056 0.81698 0.30263 0.0
H1341 H 0.97242 0.82512 0.27465 0.0
H1342 H 0.92798 0.86775 0.22238 0.0
H1343 H 0.89621 0.85967 0.25093 0.0
Pr1344 Pr 0.82111 0.37048 0.80207 0.0
Pr1345 Pr 0.82265 0.32003 0.77974 0.0
C1346 C 0.82979 0.42369 0.82193 0.0
C1347 C 0.84684 0.44702 0.81454 0.0
C1348 C 0.84278 0.47368 0.81804 0.0
C1349 C 0.86021 0.49616 0.81266 0.0
C1350 C 0.88165 0.4919 0.80357 0.0
C1351 C 0.88477 0.46492 0.79834 0.0
C1352 C 0.86747 0.44252 0.80396 0.0
C1353 C 0.77475 0.34673 0.76993 0.0
C1354 C 0.84008 0.36934 0.74333 0.0
C1355 C 0.81195 0.26647 0.7612 0.0
C1356 C 0.79656 0.24418 0.77242 0.0
C1357 C 0.80573 0.22132 0.78008 0.0
C1358 C 0.79055 0.19963 0.78985 0.0
C1359 C 0.76589 0.2004 0.79111 0.0
C1360 C 0.75781 0.2247 0.7864 0.0
C1361 C 0.77312 0.24656 0.77724 0.0
C1362 C 0.86853 0.34232 0.81311 0.0
C1363 C 0.80655 0.32281 0.84053 0.0
O1364 O 0.84038 0.40583 0.83389 0.0
O1365 O 0.8109 0.41216 0.80315 0.0
O1366 O 0.79548 0.34641 0.76338 0.0
O1367 O 0.77764 0.3567 0.79501 0.0
O1368 O 0.83099 0.34236 0.74173 0.0
O1369 O 0.84277 0.3844 0.76665 0.0
O1370 O 0.80038 0.28401 0.75 0.0
O1371 O 0.83305 0.27844 0.77653 0.0
O1372 O 0.84769 0.34363 0.81876 0.0
O1373 O 0.86623 0.33201 0.78819 0.0
O1374 O 0.81494 0.34964 0.84076 0.0
O1375 O 0.80329 0.30661 0.81761 0.0
H1376 H 0.82673 0.47717 0.82589 0.0
H1377 H 0.85767 0.51696 0.81727 0.0
H1378 H 0.90116 0.46133 0.7913 0.0
H1379 H 0.8708 0.42187 0.80119 0.0
H1380 H 0.8242 0.21983 0.77761 0.0
H1381 H 0.79727 0.18118 0.79402 0.0
H1382 H 0.73894 0.22586 0.78729 0.0
H1383 H 0.76608 0.26474 0.77276 0.0
Pr1384 Pr 0.79168 0.82001 0.78129 0.0
Pr1385 Pr 0.8453 0.86298 0.80173 0.0
C1386 C 0.74432 0.79481 0.7839 0.0
C1387 C 0.72536 0.80197 0.79879 0.0
C1388 C 0.70052 0.78719 0.79165 0.0
C1389 C 0.68228 0.79449 0.80487 0.0
C1390 C 0.68843 0.81704 0.82528 0.0
C1391 C 0.71336 0.83183 0.83239 0.0
C1392 C 0.73163 0.82427 0.81943 0.0
C1393 C 0.8095 0.84559 0.73675 0.0
C1394 C 0.79651 0.88642 0.79816 0.0
C1395 C 0.89379 0.88655 0.80437 0.0
C1396 C 0.91287 0.88092 0.78901 0.0
C1397 C 0.93794 0.89313 0.79882 0.0
C1398 C 0.95621 0.88776 0.78464 0.0
C1399 C 0.94984 0.8699 0.76032 0.0
C1400 C 0.92465 0.85726 0.75078 0.0
C1401 C 0.90636 0.86279 0.76493 0.0
C1402 C 0.82194 0.83743 0.84296 0.0
C1403 C 0.84123 0.79649 0.7837 0.0
O1404 O 0.76353 0.78855 0.79804 0.0
O1405 O 0.75036 0.8107 0.76531 0.0
O1406 O 0.81929 0.84974 0.76142 0.0
O1407 O 0.79027 0.82468 0.73412 0.0
O1408 O 0.81956 0.8939 0.79419 0.0
O1409 O 0.78675 0.861 0.80292 0.0
O1410 O 0.87604 0.89648 0.79151 0.0
O1411 O 0.88573 0.86744 0.8195 0.0
O1412 O 0.82182 0.82693 0.8194 0.0
O1413 O 0.8359 0.86277 0.84664 0.0
O1414 O 0.8175 0.78882 0.78559 0.0
O1415 O 0.85116 0.82219 0.77941 0.0
H1416 H 0.69517 0.77011 0.77565 0.0
H1417 H 0.66324 0.78289 0.79868 0.0
H1418 H 0.71878 0.84917 0.84813 0.0
H1419 H 0.75063 0.83596 0.82547 0.0
H1420 H 0.94343 0.90689 0.81748 0.0
H1421 H 0.97541 0.89753 0.79284 0.0
H1422 H 0.91902 0.84359 0.73207 0.0
H1423 H 0.88711 0.85303 0.75696 0.0
Pr1424 Pr 0.54146 0.58424 0.52783 0.0
Pr1425 Pr 0.59824 0.60123 0.55471 0.0
C1426 C 0.49211 0.57706 0.51429 0.0
C1427 C 0.47599 0.59722 0.51443 0.0
C1428 C 0.45613 0.59523 0.4933 0.0
C1429 C 0.44072 0.61401 0.49357 0.0
C1430 C 0.44426 0.63484 0.51549 0.0
C1431 C 0.46481 0.63726 0.53612 0.0
C1432 C 0.48069 0.61917 0.53521 0.0
C1433 C 0.57631 0.58051 0.49444 0.0
C1434 C 0.57066 0.64986 0.52823 0.0
C1435 C 0.64796 0.60903 0.56526 0.0
C1436 C 0.66597 0.59101 0.56763 0.0
C1437 C 0.6891 0.60082 0.58437 0.0
C1438 C 0.70743 0.58567 0.58466 0.0
C1439 C 0.70321 0.56037 0.56798 0.0
C1440 C 0.67943 0.5496 0.55253 0.0
C1441 C 0.66096 0.56473 0.55246 0.0
C1442 C 0.56511 0.60054 0.59049 0.0
C1443 C 0.56807 0.53542 0.55514 0.0
O1444 O 0.50293 0.57219 0.53779 0.0
O1445 O 0.50667 0.57924 0.49637 0.0
O1446 O 0.5765 0.57301 0.51756 0.0
O1447 O 0.55676 0.5899 0.48692 0.0
O1448 O 0.59209 0.64268 0.53523 0.0
O1449 O 0.54931 0.63265 0.52883 0.0
O1450 O 0.63537 0.60915 0.54119 0.0
O1451 O 0.6347 0.60959 0.58428 0.0
O1452 O 0.56242 0.60924 0.56752 0.0
O1453 O 0.58698 0.59575 0.59678 0.0
O1454 O 0.54679 0.54217 0.54602 0.0
O1455 O 0.58972 0.55306 0.5565 0.0
H1456 H 0.45252 0.57915 0.4765 0.0
H1457 H 0.42598 0.61194 0.47648 0.0
H1458 H 0.46852 0.65273 0.5534 0.0
H1459 H 0.49664 0.62246 0.55091 0.0
H1460 H 0.6933 0.62072 0.59663 0.0
H1461 H 0.72532 0.59432 0.5973 0.0
H1462 H 0.67547 0.53023 0.53948 0.0
H1463 H 0.64305 0.55629 0.53991 0.0
Pr1464 Pr 0.09715 0.59956 0.04334 0.0
Pr1465 Pr 0.04289 0.59324 0.05144 0.0
C1466 C 0.14212 0.59344 0.03562 0.0
C1467 C 0.15819 0.57351 0.0346 0.0
C1468 C 0.17053 0.5725 1.01268 0.0
C1469 C 0.18849 0.55706 1.01249 0.0
C1470 C 0.19471 0.54231 0.03432 0.0
C1471 C 0.18117 0.54168 0.05548 0.0
C1472 C 0.16304 0.55724 0.05566 0.0
C1473 C 0.06894 0.62582 1.0078 0.0
C1474 C 0.05671 0.53754 0.02669 0.0
C1475 C 0.99672 0.60053 0.05233 0.0
C1476 C 0.98133 0.62125 0.05361 0.0
C1477 C 0.96003 0.61444 0.0652 0.0
C1478 C 0.94339 0.63176 0.06427 0.0
C1479 C 0.94779 0.65656 0.05201 0.0
C1480 C 0.96972 0.66416 0.04143 0.0
C1481 C 0.98635 0.64656 0.0421 0.0
C1482 C 0.07159 0.56946 0.08932 0.0
C1483 C 0.08532 0.65256 0.07592 0.0
O1484 O 0.13766 0.60203 0.05904 0.0
O1485 O 0.12327 0.59035 1.01593 0.0
O1486 O 0.06137 0.60173 1.01456 0.0
O1487 O 0.0919 0.63654 0.01838 0.0
O1488 O 0.03825 0.55017 0.02612 0.0
O1489 O 0.07989 0.55103 0.03578 0.0
O1490 O 1.00527 0.59654 0.03011 0.0
O1491 O 1.0121 0.59881 0.07408 0.0
O1492 O 0.07885 0.59241 0.08025 0.0
O1493 O 0.04804 0.5591 0.0807 0.0
O1494 O 0.10351 0.64047 0.07242 0.0
O1495 O 0.0618 0.64012 0.06721 0.0
H1496 H 0.16703 0.5847 0.99615 0.0
H1497 H 0.1984 0.55772 0.99575 0.0
H1498 H 0.18561 0.53058 0.07259 0.0
H1499 H 0.1536 0.55743 0.07272 0.0
H1500 H 0.95579 0.59513 0.07421 0.0
H1501 H 0.92664 0.62538 0.07251 0.0
H1502 H 0.97342 0.68302 0.03162 0.0
H1503 H 1.00268 0.65231 0.03301 0.0
H1504 H 0.05551 0.27291 1.00408 0.0
H1505 H 0.03411 0.23268 0.92257 0.0
H1506 H 0.04134 0.18911 0.93812 0.0
H1507 H 0.05216 0.16122 0.97501 0.0
H1508 H 0.07553 0.20108 0.05632 0.0
H1509 H 0.06889 0.24536 0.04096 0.0
C1510 C 0.05245 0.25465 0.98967 0.0
C1511 C 0.04391 0.25639 0.96202 0.0
C1512 C 0.05684 0.22927 0.99883 0.0
C1513 C 0.04033 0.23226 0.94389 0.0
C1514 C 0.04451 0.20716 0.95281 0.0
C1515 C 0.05595 0.17966 0.98937 0.0
C1516 C 0.06429 0.17766 0.0169 0.0
C1517 C 0.05249 0.20525 0.98024 0.0
C1518 C 0.0693 0.20192 0.03508 0.0
C1519 C 0.06537 0.22729 0.02624 0.0
H1520 H 0.16896 0.86556 0.22593 0.0
H1521 H 0.1994 0.86999 0.15293 0.0
H1522 H 0.23893 0.8641 0.17749 0.0
H1523 H 0.26516 0.85734 0.22033 0.0
H1524 H 0.23317 0.85167 0.29241 0.0
H1525 H 0.1942 0.85775 0.26765 0.0
C1526 C 0.18431 0.86564 0.21536 0.0
C1527 C 0.18115 0.86879 0.18756 0.0
C1528 C 0.2068 0.86149 0.22951 0.0
C1529 C 0.20123 0.86801 0.1743 0.0
C1530 C 0.22387 0.86445 0.18837 0.0
C1531 C 0.24957 0.85714 0.23053 0.0
C1532 C 0.25229 0.85398 0.25841 0.0
C1533 C 0.22691 0.86097 0.21603 0.0
C1534 C 0.2318 0.85406 0.27114 0.0
C1535 C 0.20943 0.85767 0.25696 0.0
H1536 H 0.52238 0.93277 0.43825 0.0
H1537 H 0.56041 0.89783 0.50324 0.0
H1538 H 0.56969 0.943 0.53123 0.0
H1539 H 0.56835 0.99349 0.53597 0.0
H1540 H 0.5254 0.02473 0.47196 0.0
H1541 H 0.51613 0.97956 0.44489 0.0
C1542 C 0.53216 0.93455 0.45875 0.0
C1543 C 0.54056 0.9117 0.46858 0.0
C1544 C 0.53659 0.96005 0.47482 0.0
C1545 C 0.55358 0.91493 0.49516 0.0
C1546 C 0.55896 0.94081 0.5111 0.0
C1547 C 0.55678 0.99018 0.51618 0.0
C1548 C 0.54773 1.01246 0.50577 0.0
C1549 C 0.5508 0.96368 0.50099 0.0
C1550 C 0.53251 1.00792 0.48034 0.0
C1551 C 0.5273 0.98214 0.46484 0.0
H1552 H 0.55344 0.33858 0.70803 0.0
H1553 H 0.51139 0.36411 0.63935 0.0
H1554 H 0.47677 0.36286 0.66316 0.0
H1555 H 0.45769 0.35243 0.70257 0.0
H1556 H 0.49903 0.32574 0.77107 0.0
H1557 H 0.53443 0.32895 0.74811 0.0
C1558 C 0.53682 0.34429 0.69855 0.0
C1559 C 0.53494 0.3516 0.67214 0.0
C1560 C 0.51673 0.3429 0.71213 0.0
C1561 C 0.51318 0.35841 0.65974 0.0
C1562 C 0.49338 0.35766 0.67328 0.0
C1563 C 0.47458 0.34773 0.71263 0.0
C1564 C 0.47574 0.33893 0.73847 0.0
C1565 C 0.49484 0.34963 0.69936 0.0
C1566 C 0.49758 0.33232 0.75103 0.0
C1567 C 0.51789 0.33431 0.738 0.0
H1568 H 0.10933 0.97234 0.66289 0.0
H1569 H 0.09809 0.91194 0.59349 0.0
H1570 H 0.09042 0.94718 0.56377 0.0
H1571 H 0.08612 0.99532 0.55718 0.0
H1572 H 0.09662 0.05511 0.62687 0.0
H1573 H 0.1052 0.02021 0.65639 0.0
C1574 C 0.10533 0.96679 0.64126 0.0
C1575 C 0.1044 0.9392 0.63066 0.0
C1576 C 0.1007 0.98723 0.62415 0.0
C1577 C 0.09893 0.93276 0.60246 0.0
C1578 C 0.09453 0.95301 0.58535 0.0
C1579 C 0.09043 1.00081 0.57881 0.0
C1580 C 0.09095 0.02822 0.58959 0.0
C1581 C 0.09524 0.98034 0.59591 0.0
C1582 C 0.09639 0.03455 0.61779 0.0
C1583 C 0.10121 0.01444 0.63479 0.0
H1584 H 0.46998 0.8112 0.8592 0.0
H1585 H 0.46679 0.86796 0.92641 0.0
H1586 H 0.42823 0.87661 0.90229 0.0
H1587 H 0.39599 0.86947 0.86092 0.0
H1588 H 0.39782 0.80993 0.79521 0.0
H1589 H 0.43614 0.80126 0.81946 0.0
C1590 C 0.46082 0.82549 0.86851 0.0
C1591 C 0.47176 0.83979 0.89418 0.0
C1592 C 0.4384 0.83006 0.85457 0.0
C1593 C 0.45908 0.85724 0.90644 0.0
C1594 C 0.43703 0.86223 0.89259 0.0
C1595 C 0.40499 0.85489 0.8518 0.0
C1596 C 0.39428 0.84087 0.82591 0.0
C1597 C 0.42673 0.84923 0.86637 0.0
C1598 C 0.40577 0.8213 0.81487 0.0
C1599 C 0.42762 0.81614 0.82886 0.0
H1600 H 0.5718 0.25155 0.14551 0.0
H1601 H 0.59675 0.29897 0.08288 0.0
H1602 H 0.59075 0.256 0.05307 0.0
H1603 H 0.57743 0.20461 0.04394 0.0
H1604 H 0.55798 0.15621 0.10795 0.0
H1605 H 0.56273 0.19921 0.13782 0.0
C1606 C 0.57569 0.25245 0.12523 0.0
C1607 C 0.58314 0.27885 0.11588 0.0
C1608 C 0.57313 0.22722 0.10836 0.0
C1609 C 0.58943 0.27928 0.09007 0.0
C1610 C 0.58633 0.25457 0.07309 0.0
C1611 C 0.57424 0.20339 0.06446 0.0
C1612 C 0.56701 0.17685 0.07349 0.0
C1613 C 0.57782 0.22838 0.08179 0.0
C1614 C 0.56349 0.17604 0.10036 0.0
C1615 C 0.56615 0.2008 0.11744 0.0
H1616 H 0.09494 0.35774 0.35506 0.0
H1617 H 0.10853 0.31032 0.42196 0.0
H1618 H 0.14284 0.29755 0.40364 0.0
H1619 H 0.16829 0.29869 0.36769 0.0
H1620 H 0.154 0.34657 0.3013 0.0
H1621 H 0.12051 0.35978 0.32021 0.0
C1622 C 0.10547 0.34482 0.36594 0.0
C1623 C 0.09909 0.33527 0.39013 0.0
C1624 C 0.12498 0.33729 0.35515 0.0
C1625 C 0.113 0.31825 0.40349 0.0
C1626 C 0.13261 0.31082 0.39293 0.0
C1627 C 0.15805 0.31225 0.35748 0.0
C1628 C 0.16373 0.32132 0.33284 0.0
C1629 C 0.13871 0.32009 0.36866 0.0
C1630 C 0.1499 0.33869 0.31991 0.0
C1631 C 0.13079 0.3465 0.33085 0.0
H1632 H 0.9592 0.03982 0.1264 0.0
H1633 H 0.9809 0.11501 0.18135 0.0
H1634 H 1.01383 0.13421 0.15688 0.0
H1635 H 0.03912 0.12759 0.12213 0.0
H1636 H 0.01888 0.05001 0.07019 0.0
H1637 H 0.98299 0.03413 0.09065 0.0
C1638 C 0.9705 0.06083 0.13221 0.0
C1639 C 0.96726 0.07637 0.15498 0.0
C1640 C 0.99008 0.07123 0.11875 0.0
C1641 C 0.98274 0.10307 0.16327 0.0
C1642 C 1.00178 0.11389 0.14954 0.0
C1643 C 0.0267 0.10738 0.11522 0.0
C1644 C 0.03152 0.09037 0.0943 0.0
C1645 C 1.0061 0.09785 0.12765 0.0
C1646 C 1.0154 0.06398 0.0858 0.0
C1647 C 0.9948 0.05467 0.0976 0.0
H1648 H 0.31695 0.79579 0.46503 0.0
H1649 H 0.25648 0.72776 0.4261 0.0
H1650 H 0.25819 0.74558 0.38327 0.0
H1651 H 0.27735 0.7793 0.35484 0.0
H1652 H 0.33618 0.84911 0.39245 0.0
H1653 H 0.3346 0.83196 0.43638 0.0
C1654 C 0.30385 0.78516 0.44735 0.0
C1655 C 0.28662 0.76017 0.44961 0.0
C1656 C 0.30473 0.79571 0.42177 0.0
C1657 C 0.2701 0.74689 0.4258 0.0
C1658 C 0.27104 0.75702 0.40081 0.0
C1659 C 0.28974 0.79086 0.37263 0.0
C1660 C 0.30676 0.8156 0.36996 0.0
C1661 C 0.28842 0.78118 0.39829 0.0
C1662 C 0.32261 0.83014 0.39359 0.0
C1663 C 0.32179 0.82028 0.41895 0.0
H1664 H 0.65841 0.04371 0.67012 0.0
H1665 H 0.60081 0.96944 0.66781 0.0
H1666 H 0.57415 0.98581 0.63251 0.0
H1667 H 0.56578 0.02329 0.60546 0.0
H1668 H 0.62255 0.09879 0.61014 0.0
H1669 H 0.65093 0.07998 0.64131 0.0
C1670 C 0.64034 0.03067 0.66128 0.0
C1671 C 0.63177 1.00512 0.67125 0.0
C1672 C 0.62475 0.04076 0.6418 0.0
C1673 C 0.60796 0.98896 0.6602 0.0
C1674 C 0.59262 0.99846 0.64022 0.0
C1675 C 0.58441 0.03553 0.61323 0.0
C1676 C 0.59204 0.06241 0.6056 0.0
C1677 C 0.60055 0.02467 0.63143 0.0
C1678 C 0.61627 0.078 0.61566 0.0
C1679 C 0.6325 0.06726 0.63351 0.0
H1680 H 0.37068 0.40291 0.97457 0.0
H1681 H 0.29775 0.41869 0.96649 0.0
H1682 H 0.2878 0.39707 0.9198 0.0
H1683 H 0.3008 0.37686 0.88017 0.0
H1684 H 0.37436 0.36242 0.88734 0.0
H1685 H 0.38302 0.38019 0.93507 0.0
C1686 C 0.35239 0.4008 0.96277 0.0
C1687 C 0.33474 0.41175 0.97423 0.0
C1688 C 0.34706 0.38905 0.93549 0.0
C1689 C 0.31142 0.40983 0.95837 0.0
C1690 C 0.30583 0.39773 0.93155 0.0
C1691 C 0.31874 0.37745 0.8921 0.0
C1692 C 0.33692 0.36838 0.87979 0.0
C1693 C 0.32367 0.38781 0.91968 0.0
C1694 C 0.35998 0.36935 0.89594 0.0
C1695 C 0.36496 0.37949 0.92339 0.0
H1696 H 0.9569 0.09733 0.30578 0.0
H1697 H 0.97662 0.02129 0.28015 0.0
H1698 H 1.01204 0.03117 0.31653 0.0
H1699 H 0.03471 0.05854 0.35724 0.0
H1700 H 1.01521 0.13362 0.38581 0.0
H1701 H 0.98276 0.12764 0.34586 0.0
C1702 C 0.96894 0.08298 0.30849 0.0
C1703 C 0.96423 0.05854 0.29084 0.0
C1704 C 0.98946 0.08889 0.32938 0.0
C1705 C 0.98003 0.04019 0.29381 0.0
C1706 C 1.00032 0.04588 0.3144 0.0
C1707 C 0.02416 0.07434 0.35427 0.0
C1708 C 0.02724 0.09646 0.37428 0.0
C1709 C 1.00504 0.06999 0.33234 0.0
C1710 C 1.01303 0.11641 0.37044 0.0
C1711 C 0.99431 0.11275 0.34791 0.0
H1712 H 0.32738 0.81021 0.61095 0.0
H1713 H 0.29922 0.72557 0.62633 0.0
H1714 H 0.30209 0.74111 0.67387 0.0
H1715 H 0.31173 0.77909 0.71212 0.0
H1716 H 0.34262 0.8632 0.69747 0.0
H1717 H 0.33898 0.84784 0.64966 0.0
C1718 C 0.32205 0.79505 0.62465 0.0
C1719 C 0.31308 0.76647 0.61435 0.0
C1720 C 0.32394 0.8042 0.65263 0.0
C1721 C 0.30624 0.74759 0.63304 0.0
C1722 C 0.30779 0.75653 0.66053 0.0
C1723 C 0.31786 0.79408 0.69859 0.0
C1724 C 0.32765 0.8225 0.70902 0.0
C1725 C 0.31646 0.78484 0.67073 0.0
C1726 C 0.33525 0.84127 0.69057 0.0
C1727 C 0.33315 0.83243 0.66296 0.0
H1728 H 0.66419 0.02072 0.85427 0.0
H1729 H 0.60429 1.00132 0.78588 0.0
H1730 H 0.57802 0.02051 0.81256 0.0
H1731 H 0.57323 0.0459 0.85463 0.0
H1732 H 0.63456 0.06761 0.92126 0.0
H1733 H 0.65971 0.04568 0.89533 0.0
C1734 C 0.64526 0.0202 0.84521 0.0
C1735 C 0.6363 1.00959 0.8181 0.0
C1736 C 0.63082 0.03253 0.86008 0.0
C1737 C 0.61164 1.00905 0.80682 0.0
C1738 C 0.59673 0.02046 0.8219 0.0
C1739 C 0.59214 0.04581 0.86325 0.0
C1740 C 0.60214 0.05798 0.88968 0.0
C1741 C 0.60636 0.03289 0.84834 0.0
C1742 C 0.62658 0.05798 0.90094 0.0
C1743 C 0.64085 0.04538 0.88623 0.0
H1744 H 0.3647 0.42335 0.15736 0.0
H1745 H 0.29772 0.38266 0.10218 0.0
H1746 H 0.28249 0.3563 0.13748 0.0
H1747 H 0.2882 0.34282 0.18379 0.0
H1748 H 0.3546 0.38259 0.23981 0.0
H1749 H 0.37006 0.41016 0.20494 0.0
C1750 C 0.34668 0.40893 0.15313 0.0
C1751 C 0.33244 0.4053 0.12671 0.0
C1752 C 0.33802 0.39298 0.17379 0.0
C1753 C 0.30926 0.38604 0.12196 0.0
C1754 C 0.30047 0.37079 0.14227 0.0
C1755 C 0.30612 0.35744 0.18846 0.0
C1756 C 0.32037 0.35995 0.21465 0.0
C1757 C 0.31473 0.3737 0.1682 0.0
C1758 C 0.34336 0.37954 0.21997 0.0
C1759 C 0.35214 0.39559 0.19991 0.0
H1760 H 0.27141 0.97311 0.07342 0.0
H1761 H 0.29244 0.02335 1.01041 0.0
H1762 H 0.26041 0.04742 1.01437 0.0
H1763 H 0.22657 0.05578 0.03503 0.0
H1764 H 0.20236 1.00666 0.0969 0.0
H1765 H 0.2349 0.98102 0.09391 0.0
C1766 C 0.2687 0.98897 0.0603 0.0
C1767 C 0.28482 0.99605 0.04168 0.0
C1768 C 0.2495 1.00326 0.06237 0.0
C1769 C 0.28084 0.01708 0.02512 0.0
C1770 C 0.26232 0.03115 0.02726 0.0
C1771 C 0.22808 0.03921 0.04768 0.0
C1772 C 0.21176 0.0331 0.06593 0.0
C1773 C 0.24661 0.02456 0.04575 0.0
C1774 C 0.21467 1.01199 0.08266 0.0
C1775 C 0.23326 0.9972 0.08086 0.0
H1776 H 0.73092 0.66839 0.02894 0.0
H1777 H 0.70027 0.73657 1.00339 0.0
H1778 H 0.65873 0.71029 1.00723 0.0
H1779 H 0.63062 0.66735 0.01818 0.0
H1780 H 0.66178 0.5983 0.04061 0.0
H1781 H 0.70299 0.62492 0.03716 0.0
C1782 C 0.71506 0.67713 0.02321 0.0
C1783 C 0.71881 0.70416 1.01481 0.0
C1784 C 0.69109 0.66167 0.02523 0.0
C1785 C 0.69802 0.71565 1.00925 0.0
C1786 C 0.6742 0.70059 1.01157 0.0
C1787 C 0.64646 0.65822 0.02251 0.0
C1788 C 0.64288 0.63076 0.03009 0.0
C1789 C 0.6704 0.67355 0.01971 0.0
C1790 C 0.66376 0.61931 0.03503 0.0
C1791 C 0.68746 0.63456 0.03296 0.0
H1792 H 0.72486 0.56495 0.33654 0.0
H1793 H 0.76161 0.56455 0.41805 0.0
H1794 H 0.78356 0.53067 0.40244 0.0
H1795 H 0.79438 0.50362 0.36533 0.0
H1796 H 0.7597 0.50648 0.28355 0.0
H1797 H 0.73504 0.53719 0.29948 0.0
C1798 C 0.73716 0.55687 0.351 0.0
C1799 C 0.7412 0.56679 0.37856 0.0
C1800 C 0.75043 0.53826 0.34174 0.0
C1801 C 0.7579 0.55689 0.39685 0.0
C1802 C 0.77059 0.5377 0.38789 0.0
C1803 C 0.7812 0.51073 0.35106 0.0
C1804 C 0.77885 0.50281 0.32333 0.0
C1805 C 0.76732 0.52862 0.36035 0.0
C1806 C 0.762 0.51252 0.30499 0.0
C1807 C 0.74781 0.52993 0.3141 0.0
H1808 H 0.92374 0.46462 0.52468 0.0
H1809 H 0.9012 0.51355 0.58575 0.0
H1810 H 0.94066 0.54817 0.5918 0.0
H1811 H 0.98092 0.56626 0.57758 0.0
H1812 H 1.00078 0.52006 0.51238 0.0
H1813 H 0.96348 0.483 0.50998 0.0
C1814 C 0.92769 0.48272 0.53949 0.0
C1815 C 0.90958 0.4867 0.55457 0.0
C1816 C 0.95003 0.50322 0.542 0.0
C1817 C 0.91485 0.51021 0.57375 0.0
C1818 C 0.9374 0.53003 0.57719 0.0
C1819 C 0.977 0.54803 0.56295 0.0
C1820 C 0.99348 0.54591 0.54513 0.0
C1821 C 0.95498 0.52712 0.56104 0.0
C1822 C 0.98819 0.52226 0.52611 0.0
C1823 C 0.96697 0.50094 0.52487 0.0
H1824 H 0.40105 0.22521 0.35617 0.0
H1825 H 0.457 0.26255 0.31163 0.0
H1826 H 0.42831 0.28754 0.28854 0.0
H1827 H 0.38662 0.29668 0.27938 0.0
H1828 H 0.32974 0.25442 0.3203 0.0
H1829 H 0.35926 0.23184 0.34516 0.0
C1830 C 0.4072 0.23887 0.34152 0.0
C1831 C 0.43128 0.24184 0.33568 0.0
C1832 C 0.39011 0.2514 0.3269 0.0
C1833 C 0.4387 0.25993 0.31673 0.0
C1834 C 0.42217 0.27389 0.30321 0.0
C1835 C 0.38057 0.28215 0.2934 0.0
C1836 C 0.35592 0.27705 0.29778 0.0
C1837 C 0.39766 0.26924 0.30768 0.0
C1838 C 0.34843 0.25833 0.31614 0.0
C1839 C 0.36541 0.24576 0.33071 0.0
H1840 H 0.33433 0.16602 0.50985 0.0
H1841 H 0.36874 0.25089 0.54311 0.0
H1842 H 0.40867 0.23807 0.5547 0.0
H1843 H 0.43379 0.20183 0.55563 0.0
H1844 H 0.3968 0.1168 0.5252 0.0
H1845 H 0.35792 0.13053 0.51258 0.0
C1846 C 0.35046 0.18189 0.51965 0.0
C1847 C 0.34839 0.20949 0.52538 0.0
C1848 C 0.37301 0.17421 0.52688 0.0
C1849 C 0.36968 0.2295 0.53836 0.0
C1850 C 0.39255 0.22215 0.54499 0.0
C1851 C 0.41719 0.18647 0.54612 0.0
C1852 C 0.4182 0.1583 0.54122 0.0
C1853 C 0.39447 0.19447 0.53935 0.0
C1854 C 0.3965 0.13853 0.52919 0.0
C1855 C 0.37425 0.14638 0.52193 0.0
H1856 H 0.76647 0.67985 0.36161 0.0
H1857 H 0.71501 0.72951 0.37622 0.0
H1858 H 0.73952 0.76872 0.35751 0.0
H1859 H 0.77499 0.7876 0.33453 0.0
H1860 H 0.8261 0.73634 0.32204 0.0
H1861 H 0.80256 0.69911 0.3428 0.0
C1862 C 0.76121 0.69965 0.36194 0.0
C1863 C 0.73957 0.70221 0.37127 0.0
C1864 C 0.77512 0.72162 0.35099 0.0
C1865 C 0.73205 0.72741 0.3698 0.0
C1866 C 0.74592 0.74965 0.35886 0.0
C1867 C 0.78076 0.76817 0.33629 0.0
C1868 C 0.80204 0.76448 0.32648 0.0
C1869 C 0.76729 0.74678 0.34885 0.0
C1870 C 0.80968 0.73952 0.32927 0.0
C1871 C 0.79632 0.71826 0.34124 0.0
H1872 H 0.96998 0.5923 0.84539 0.0
H1873 H 0.9185 0.63453 0.80355 0.0
H1874 H 0.89053 0.59019 0.78466 0.0
H1875 H 0.87937 0.53985 0.7832 0.0
H1876 H 0.92955 0.49714 0.82671 0.0
H1877 H 0.9603 0.54107 0.84029 0.0
C1878 C 0.9526 0.5915 0.83215 0.0
C1879 C 0.94548 0.61605 0.82676 0.0
C1880 C 0.93685 0.56601 0.82107 0.0
C1881 C 0.92353 0.61545 0.80888 0.0
C1882 C 0.9078 0.59025 0.79773 0.0
C1883 C 0.89729 0.54023 0.79516 0.0
C1884 C 0.90226 0.51578 0.8043 0.0
C1885 C 0.91409 0.56547 0.8041 0.0
C1886 C 0.92553 0.51598 0.81938 0.0
C1887 C 0.94289 0.54106 0.82755 0.0
H1888 H 0.05803 0.91066 0.07996 0.0
H1889 H 0.12669 0.94976 0.13345 0.0
H1890 H 0.12482 0.99456 0.1161 0.0
H1891 H 0.10373 0.02255 0.08531 0.0
H1892 H 0.03459 0.98265 0.03301 0.0
H1893 H 0.03684 0.93823 0.05032 0.0
C1894 C 0.07275 0.92885 0.08803 0.0
C1895 C 0.09264 0.92642 0.10814 0.0
C1896 C 0.07151 0.95449 0.07798 0.0
C1897 C 0.1112 0.95066 0.11811 0.0
C1898 C 0.11013 0.97635 0.10808 0.0
C1899 C 0.08919 1.00413 0.07748 0.0
C1900 C 0.06908 1.00617 0.05743 0.0
C1901 C 0.09042 0.9785 0.08789 0.0
C1902 C 0.05033 0.98195 0.04812 0.0
C1903 C 0.05159 0.95646 0.05811 0.0
H1904 H 0.9489 0.343 0.91731 0.0
H1905 H 0.97558 0.29294 0.8608 0.0
H1906 H 0.94014 0.29328 0.82605 0.0
H1907 H 0.90441 0.31293 0.80979 0.0
H1908 H 0.8781 0.36422 0.86571 0.0
H1909 H 0.9104 0.35877 0.90209 0.0
C1910 C 0.94659 0.33167 0.89757 0.0
C1911 C 0.9652 0.31853 0.89148 0.0
C1912 C 0.92647 0.33284 0.87721 0.0
C1913 C 0.96178 0.30367 0.86588 0.0
C1914 C 0.94152 0.30395 0.84591 0.0
C1915 C 0.90578 0.32302 0.8299 0.0
C1916 C 0.88917 0.33967 0.83471 0.0
C1917 C 0.92436 0.31955 0.85093 0.0
C1918 C 0.89092 0.35185 0.86119 0.0
C1919 C 0.90928 0.34849 0.88214 0.0
H1920 H 0.60128 0.28768 0.58749 0.0
H1921 H 0.58878 0.26454 0.66552 0.0
H1922 H 0.58762 0.21612 0.65102 0.0
H1923 H 0.58792 0.17961 0.61552 0.0
H1924 H 0.59522 0.20105 0.53578 0.0
H1925 H 0.59924 0.25047 0.55083 0.0
C1926 C 0.59712 0.27183 0.60085 0.0
C1927 C 0.59386 0.27957 0.62713 0.0
C1928 C 0.59555 0.24367 0.592 0.0
C1929 C 0.59059 0.25906 0.64493 0.0
C1930 C 0.58998 0.23134 0.63668 0.0
C1931 C 0.59082 0.19527 0.60165 0.0
C1932 C 0.59212 0.18708 0.5749 0.0
C1933 C 0.59222 0.22334 0.61023 0.0
C1934 C 0.59505 0.20721 0.55673 0.0
C1935 C 0.59709 0.23536 0.56528 0.0
H1936 H 0.588 0.85889 0.36463 0.0
H1937 H 0.61502 0.83379 0.44156 0.0
H1938 H 0.6549 0.83375 0.42726 0.0
H1939 H 0.68171 0.84048 0.39193 0.0
H1940 H 0.65182 0.86427 0.3154 0.0
H1941 H 0.61324 0.86506 0.33069 0.0
C1942 C 0.60248 0.85346 0.3786 0.0
C1943 C 0.5984 0.84643 0.40428 0.0
C1944 C 0.62487 0.85318 0.3702 0.0
C1945 C 0.61758 0.83927 0.42168 0.0
C1946 C 0.64035 0.83924 0.41348 0.0
C1947 C 0.66668 0.84578 0.37872 0.0
C1948 C 0.66981 0.85275 0.35269 0.0
C1949 C 0.64417 0.84604 0.38764 0.0
C1950 C 0.65017 0.85949 0.3357 0.0
C1951 C 0.62801 0.85979 0.34436 0.0
H1952 H 0.06945 0.2488 0.44593 0.0
H1953 H 1.00241 0.25532 0.47418 0.0
H1954 H 1.0017 0.2122 0.49545 0.0
H1955 H 0.02138 0.1735 0.50833 0.0
H1956 H 0.08729 0.16555 0.47837 0.0
H1957 H 0.08754 0.20806 0.45614 0.0
C1958 C 0.05456 0.24057 0.4565 0.0
C1959 C 0.03594 0.25538 0.45841 0.0
C1960 C 0.05424 0.21547 0.46872 0.0
C1961 C 1.01693 0.24444 0.47238 0.0
C1962 C 1.01656 0.21975 0.48463 0.0
C1963 C 0.03553 0.18084 0.49653 0.0
C1964 C 0.05409 0.166 0.49471 0.0
C1965 C 0.03526 0.20519 0.48327 0.0
C1966 C 0.07248 0.17611 0.47962 0.0
C1967 C 0.07271 0.20061 0.46702 0.0
H1968 H 0.6643 0.36458 0.22967 0.0
H1969 H 0.68471 0.35122 0.1519 0.0
H1970 H 0.72462 0.34421 0.1737 0.0
H1971 H 0.75383 0.34142 0.21508 0.0
H1972 H 0.73318 0.35423 0.2926 0.0
H1973 H 0.69325 0.36163 0.27083 0.0
C1974 C 0.67756 0.36047 0.21743 0.0
C1975 C 0.67147 0.35876 0.18907 0.0
C1976 C 0.70036 0.35598 0.23014 0.0
C1977 C 0.68889 0.35299 0.17369 0.0
C1978 C 0.7117 0.34878 0.18618 0.0
C1979 C 0.7404 0.34556 0.22709 0.0
C1980 C 0.74616 0.34694 0.25536 0.0
C1981 C 0.71759 0.35003 0.21437 0.0
C1982 C 0.72891 0.3527 0.27082 0.0
C1983 C 0.70618 0.35711 0.25835 0.0
H1984 H 0.53546 0.91247 0.98324 0.0
H1985 H 0.58584 0.93754 0.92878 0.0
H1986 H 0.59649 0.98534 0.95046 0.0
H1987 H 0.59196 0.02113 0.98544 0.0
H1988 H 0.54162 0.99628 0.03989 0.0
H1989 H 0.5305 0.94844 0.01786 0.0
C1990 C 0.54919 0.92822 0.97651 0.0
C1991 C 0.56016 0.92079 0.95457 0.0
C1992 C 0.55502 0.95632 0.98891 0.0
C1993 C 0.57728 0.94215 0.94577 0.0
C1994 C 0.58331 0.96977 0.9581 0.0
C1995 C 0.57825 1.00536 0.99216 0.0
C1996 C 0.5674 0.01268 1.01418 0.0
C1997 C 0.57223 0.97732 0.97962 0.0
C1998 C 0.55012 0.99152 0.02287 0.0
C1999 C 0.54385 0.96395 1.01036 0.0
H2000 H 0.02808 0.83338 0.69472 0.0
H2001 H 0.05997 0.92194 0.71153 0.0
H2002 H 0.02632 0.92798 0.73403 0.0
H2003 H 0.98867 0.9088 0.75062 0.0
H2004 H 0.95489 0.82089 0.7344 0.0
H2005 H 0.98782 0.81411 0.70982 0.0
C2006 C 0.02731 0.854 0.70282 0.0
C2007 C 0.04677 0.8771 0.70145 0.0
C2008 C 1.00756 0.85755 0.71608 0.0
C2009 C 0.04549 0.90367 0.71239 0.0
C2010 C 0.02621 0.90725 0.72538 0.0
C2011 C 0.98852 0.88807 0.74188 0.0
C2012 C 0.96941 0.8654 0.74468 0.0
C2013 C 1.00737 0.88437 0.72774 0.0
C2014 C 0.96933 0.83881 0.73257 0.0
C2015 C 0.98824 0.8349 0.71854 0.0
H2016 H 0.17076 0.07644 0.93633 0.0
H2017 H 0.18359 0.16499 0.95759 0.0
H2018 H 0.14851 0.15795 0.98091 0.0
H2019 H 0.11229 0.12729 0.99205 0.0
H2020 H 0.0961 0.03888 0.96805 0.0
H2021 H 0.13429 0.04496 0.94892 0.0
C2022 C 0.16637 0.09395 0.94711 0.0
C2023 C 0.18071 0.12105 0.94687 0.0
C2024 C 0.14523 0.08978 0.95934 0.0
C2025 C 0.17399 0.14385 0.95923 0.0
C2026 C 0.15352 0.13987 0.97199 0.0
C2027 C 0.11719 0.10928 0.98278 0.0
C2028 C 0.10148 0.08269 0.98128 0.0
C2029 C 0.1388 0.11303 0.97174 0.0
C2030 C 0.10787 0.05959 0.96907 0.0
C2031 C 0.12973 0.06307 0.95834 0.0
H2032 H 0.85886 0.44624 0.64872 0.0
H2033 H 0.81969 0.36908 0.60063 0.0
H2034 H 0.81718 0.34568 0.6412 0.0
H2035 H 0.82531 0.34667 0.69058 0.0
H2036 H 0.86359 0.42356 0.73946 0.0
H2037 H 0.86738 0.44707 0.69879 0.0
C2038 C 0.84974 0.42432 0.6471 0.0
C2039 C 0.83942 0.40961 0.6213 0.0
C2040 C 0.84831 0.41071 0.67085 0.0
C2041 C 0.82778 0.38113 0.61993 0.0
C2042 C 0.82636 0.36761 0.64325 0.0
C2043 C 0.83479 0.3685 0.69243 0.0
C2044 C 0.84438 0.38311 0.71834 0.0
C2045 C 0.83653 0.3821 0.66885 0.0
C2046 C 0.85617 0.41158 0.71999 0.0
C2047 C 0.85825 0.42513 0.69663 0.0
H2048 H 0.48992 0.17961 0.44351 0.0
H2049 H 0.54293 0.19533 0.38998 0.0
H2050 H 0.57196 0.17666 0.4203 0.0
H2051 H 0.58051 0.15104 0.45962 0.0
H2052 H 0.5252 0.13019 0.50926 0.0
H2053 H 0.49852 0.15503 0.48254 0.0
C2054 C 0.50804 0.17964 0.43868 0.0
C2055 C 0.51404 0.18892 0.41434 0.0
C2056 C 0.52399 0.16717 0.45524 0.0
C2057 C 0.53771 0.18865 0.40861 0.0
C2058 C 0.55425 0.17754 0.42577 0.0
C2059 C 0.56264 0.15211 0.46456 0.0
C2060 C 0.55449 0.13859 0.48612 0.0
C2061 C 0.54726 0.16591 0.44867 0.0
C2062 C 0.5314 0.13997 0.4924 0.0
C2063 C 0.51638 0.15443 0.47734 0.0
H2064 H 0.82055 0.80431 0.11273 0.0
H2065 H 0.76853 0.72609 0.11329 0.0
H2066 H 0.76751 0.73772 0.16066 0.0
H2067 H 0.78214 0.76963 0.20313 0.0
H2068 H 0.83635 0.84625 0.20348 0.0
H2069 H 0.83555 0.83601 0.15531 0.0
C2070 C 0.80904 0.78979 0.12322 0.0
C2071 C 0.79476 0.76421 0.10918 0.0
C2072 C 0.8088 0.79642 0.15096 0.0
C2073 C 0.77996 0.74579 0.12338 0.0
C2074 C 0.77924 0.75248 0.15061 0.0
C2075 C 0.79355 0.78417 0.19256 0.0
C2076 C 0.8092 0.80876 0.20699 0.0
C2077 C 0.79363 0.77768 0.16476 0.0
C2078 C 0.82415 0.82715 0.19295 0.0
C2079 C 0.82374 0.82128 0.16532 0.0
H2080 H 0.1812 0.0889 0.78261 0.0
H2081 H 0.14936 0.15413 0.81244 0.0
H2082 H 0.12199 0.15035 0.76923 0.0
H2083 H 0.10801 0.12941 0.72357 0.0
H2084 H 0.13923 0.06462 0.69169 0.0
H2085 H 0.16588 0.0666 0.73563 0.0
C2086 C 0.16836 0.1023 0.77924 0.0
C2087 C 0.16705 0.12188 0.79993 0.0
C2088 C 0.15243 0.09962 0.75455 0.0
C2089 C 0.1504 0.13908 0.79624 0.0
C2090 C 0.13476 0.1368 0.7718 0.0
C2091 C 0.12007 0.11508 0.72646 0.0
C2092 C 0.12147 0.09648 0.70499 0.0
C2093 C 0.13554 0.11704 0.751 0.0
C2094 C 0.1378 0.07876 0.70842 0.0
C2095 C 0.1531 0.08012 0.73329 0.0
H2096 H 0.84514 0.4484 0.44104 0.0
H2097 H 0.8093 0.38128 0.4815 0.0
H2098 H 0.79893 0.35031 0.43928 0.0
H2099 H 0.80048 0.34164 0.3907 0.0
H2100 H 0.84032 0.40699 0.35152 0.0
H2101 H 0.84851 0.43903 0.39295 0.0
C2102 C 0.83506 0.427 0.44076 0.0
C2103 C 0.82804 0.41746 0.46488 0.0
C2104 C 0.82971 0.40888 0.41634 0.0
C2105 C 0.81508 0.38945 0.46363 0.0
C2106 C 0.8091 0.37164 0.43934 0.0
C2107 C 0.81081 0.36297 0.39109 0.0
C2108 C 0.81884 0.37207 0.36731 0.0
C2109 C 0.81637 0.38103 0.41554 0.0
C2110 C 0.83281 0.39963 0.3688 0.0
C2111 C 0.83783 0.4179 0.39276 0.0
H2112 H 0.52507 0.20563 0.26449 0.0
H2113 H 0.46357 0.13474 0.26043 0.0
H2114 H 0.4791 0.10916 0.2269 0.0
H2115 H 0.51112 0.10599 0.19979 0.0
H2116 H 0.57215 0.17663 0.20252 0.0
H2117 H 0.55573 0.20349 0.23499 0.0
C2118 C 0.51482 0.18489 0.25571 0.0
C2119 C 0.49304 0.17241 0.26453 0.0
C2120 C 0.52385 0.17015 0.2363 0.0
C2121 C 0.48007 0.14524 0.25341 0.0
C2122 C 0.48906 0.13036 0.23444 0.0
C2123 C 0.52067 0.12728 0.2076 0.0
C2124 C 0.54282 0.13945 0.19944 0.0
C2125 C 0.51106 0.14248 0.22597 0.0
C2126 C 0.5552 0.16699 0.20918 0.0
C2127 C 0.54579 0.18228 0.22754 0.0
H2128 H 0.78519 0.74417 0.91795 0.0
H2129 H 0.81088 0.81327 0.98041 0.0
H2130 H 0.82254 0.84458 0.9466 0.0
H2131 H 0.82612 0.85247 0.8985 0.0
H2132 H 0.79969 0.78224 0.83727 0.0
H2133 H 0.78793 0.75184 0.87106 0.0
C2134 C 0.79328 0.76609 0.92443 0.0
C2135 C 0.79699 0.776 0.95217 0.0
C2136 C 0.79995 0.78408 0.90478 0.0
C2137 C 0.80761 0.80469 0.95951 0.0
C2138 C 0.81435 0.82272 0.94002 0.0
C2139 C 0.81763 0.83056 0.89252 0.0
C2140 C 0.81383 0.81998 0.86489 0.0
C2141 C 0.81069 0.81271 0.91248 0.0
C2142 C 0.80285 0.79135 0.85798 0.0
C2143 C 0.79611 0.77375 0.87746 0.0
H2144 H 0.85656 0.18338 0.05321 0.0
H2145 H 0.85301 0.21189 0.9746 0.0
H2146 H 0.88706 0.19081 0.96632 0.0
H2147 H 0.91628 0.16147 0.98037 0.0
H2148 H 0.91944 0.13257 0.05897 0.0
H2149 H 0.88739 0.15627 0.06824 0.0
C2150 C 0.86388 0.18576 0.0347 0.0
C2151 C 0.85282 0.19995 1.01489 0.0
C2152 C 0.88316 0.17295 0.02983 0.0
C2153 C 0.86172 0.20178 0.99046 0.0
C2154 C 0.88099 0.18941 0.98558 0.0
C2155 C 0.91 0.16046 0.99955 0.0
C2156 C 0.92043 0.14527 0.01896 0.0
C2157 C 0.89158 0.17444 1.00491 0.0
C2158 C 0.91205 0.14433 0.04376 0.0
C2159 C 0.89362 0.15786 0.04908 0.0
H2160 H 0.43179 0.46126 0.0375 0.0
H2161 H 0.4052 0.5196 0.08563 0.0
H2162 H 0.44255 0.55573 0.08518 0.0
H2163 H 0.48213 0.57217 0.0689 0.0
H2164 H 0.50963 0.51371 0.02187 0.0
H2165 H 0.47292 0.477 0.0236 0.0
C2166 C 0.43435 0.48177 0.04819 0.0
C2167 C 0.41526 0.48771 0.06114 0.0
C2168 C 0.45608 0.50284 0.04763 0.0
C2169 C 0.41923 0.51443 0.07511 0.0
C2170 C 0.44069 0.53522 0.07484 0.0
C2171 C 0.48013 0.55142 0.05899 0.0
C2172 C 0.49879 0.54605 0.04498 0.0
C2173 C 0.45905 0.52998 0.06063 0.0
C2174 C 0.4957 0.51874 0.03262 0.0
C2175 C 0.47466 0.49757 0.03373 0.0
H2176 H 0.42656 0.63185 0.76421 0.0
H2177 H 0.39011 0.62072 0.68142 0.0
H2178 H 0.37143 0.66002 0.68985 0.0
H2179 H 0.35984 0.69164 0.7226 0.0
H2180 H 0.3937 0.69999 0.80632 0.0
H2181 H 0.41915 0.66779 0.79591 0.0
C2182 C 0.41564 0.63916 0.74777 0.0
C2183 C 0.41026 0.62419 0.72206 0.0
C2184 C 0.4039 0.66065 0.75322 0.0
C2185 C 0.39517 0.63274 0.70108 0.0
C2186 C 0.38408 0.65479 0.70607 0.0
C2187 C 0.37325 0.68691 0.7384 0.0
C2188 C 0.37478 0.69785 0.76519 0.0
C2189 C 0.38744 0.66803 0.73232 0.0
C2190 C 0.39199 0.69139 0.7856 0.0
C2191 C 0.40659 0.67312 0.77965 0.0
H2192 H 0.20364 0.71861 0.51573 0.0
H2193 H 0.24987 0.66812 0.55301 0.0
H2194 H 0.21348 0.6345 0.56076 0.0
H2195 H 0.16786 0.61905 0.55706 0.0
H2196 H 0.12153 0.6679 0.51698 0.0
H2197 H 0.15807 0.70226 0.51048 0.0
C2198 C 0.20565 0.70038 0.52575 0.0
C2199 C 0.22942 0.69588 0.53373 0.0
C2200 C 0.18445 0.6807 0.52976 0.0
C2201 C 0.23175 0.67201 0.54654 0.0
C2202 C 0.21091 0.65273 0.55103 0.0
C2203 C 0.16587 0.6373 0.54704 0.0
C2204 C 0.14202 0.64103 0.53769 0.0
C2205 C 0.18709 0.65678 0.54275 0.0
C2206 C 0.13971 0.66456 0.52434 0.0
C2207 C 0.16061 0.68428 0.52066 0.0
H2208 H 0.70934 0.9434 0.80577 0.0
H2209 H 0.70744 0.94273 0.72025 0.0
H2210 H 0.742 0.91944 0.7238 0.0
H2211 H 0.77522 0.90311 0.75249 0.0
H2212 H 0.77789 0.90762 0.83832 0.0
H2213 H 0.74143 0.9273 0.83377 0.0
C2214 C 0.716 0.93736 0.78774 0.0
C2215 C 0.7057 0.94445 0.76275 0.0
C2216 C 0.73694 0.92626 0.79033 0.0
C2217 C 0.71462 0.93683 0.73959 0.0
C2218 C 0.73484 0.92428 0.74179 0.0
C2219 C 0.76822 0.90938 0.77018 0.0
C2220 C 0.77972 0.90522 0.79589 0.0
C2221 C 0.74675 0.91993 0.76724 0.0
C2222 C 0.76986 0.91186 0.81858 0.0
C2223 C 0.74875 0.92248 0.81589 0.0
H2224 H 0.78009 0.98253 0.50432 0.0
H2225 H 0.78781 0.97131 0.58865 0.0
H2226 H 0.75189 0.99112 0.59211 0.0
H2227 H 0.72085 0.01589 0.57182 0.0
H2228 H 0.71189 0.02345 0.48642 0.0
H2229 H 0.7458 1.00117 0.4829 0.0
C2230 C 0.77358 0.98389 0.52334 0.0
C2231 C 0.78658 0.97543 0.54619 0.0
C2232 C 0.75295 0.99518 0.52512 0.0
C2233 C 0.77794 0.97733 0.57069 0.0
C2234 C 0.75756 0.98894 0.57272 0.0
C2235 C 0.7259 1.01219 0.55231 0.0
C2236 C 0.71405 0.02228 0.52959 0.0
C2237 C 0.74522 0.99853 0.55016 0.0
C2238 C 0.7211 0.01706 0.50454 0.0
C2239 C 0.74043 1.004 0.50238 0.0
H2240 H 0.41724 0.46414 0.7359 0.0
H2241 H 0.357 0.48474 0.68384 0.0
H2242 H 0.32795 0.44442 0.69507 0.0
H2243 H 0.31893 0.40819 0.72492 0.0
H2244 H 0.3781 0.39218 0.78223 0.0
H2245 H 0.40848 0.42515 0.76351 0.0
C2246 C 0.39783 0.45926 0.72662 0.0
C2247 C 0.38898 0.47733 0.70947 0.0
C2248 C 0.38111 0.43693 0.73428 0.0
C2249 C 0.36395 0.4711 0.69738 0.0
C2250 C 0.34741 0.44812 0.7038 0.0
C2251 C 0.33852 0.41163 0.73306 0.0
C2252 C 0.34634 0.3979 0.75501 0.0
C2253 C 0.35562 0.43166 0.72312 0.0
C2254 C 0.37171 0.40247 0.76532 0.0
C2255 C 0.38905 0.42139 0.75464 0.0
H2256 H 0.21072 0.57243 0.23905 0.0
H2257 H 0.15522 0.59722 0.2786 0.0
H2258 H 0.18128 0.64502 0.28906 0.0
H2259 H 0.22232 0.67668 0.29228 0.0
H2260 H 0.2774 0.6496 0.25298 0.0
H2261 H 0.24959 0.60429 0.2391 0.0
C2262 C 0.20417 0.58853 0.24952 0.0
C2263 C 0.18172 0.58185 0.25873 0.0
C2264 C 0.21955 0.61477 0.25656 0.0
C2265 C 0.17269 0.60245 0.27154 0.0
C2266 C 0.1877 0.6294 0.27783 0.0
C2267 C 0.22809 0.66089 0.2805 0.0
C2268 C 0.25191 0.66629 0.27398 0.0
C2269 C 0.21164 0.63528 0.27153 0.0
C2270 C 0.25941 0.64568 0.25898 0.0
C2271 C 0.24334 0.62003 0.2504 0.0
H2272 H 0.54522 0.76585 0.5058 0.0
H2273 H 0.55011 0.737 0.42483 0.0
H2274 H 0.56311 0.69602 0.4409 0.0
H2275 H 0.57141 0.66681 0.47792 0.0
H2276 H 0.56408 0.69444 0.55822 0.0
H2277 H 0.55382 0.73701 0.54269 0.0
C2278 C 0.54912 0.75062 0.49162 0.0
C2279 C 0.54647 0.75469 0.46397 0.0
C2280 C 0.55636 0.72675 0.50103 0.0
C2281 C 0.55163 0.73449 0.44608 0.0
C2282 C 0.55923 0.71101 0.45533 0.0
C2283 C 0.56827 0.68258 0.49212 0.0
C2284 C 0.56949 0.67789 0.51951 0.0
C2285 C 0.56157 0.70678 0.48276 0.0
C2286 C 0.5642 0.69796 0.53734 0.0
C2287 C 0.55802 0.72219 0.52834 0.0
H2288 H 0.69075 0.34772 0.6693 0.0
H2289 H 0.66406 0.3919 0.73074 0.0
H2290 H 0.69864 0.38743 0.76427 0.0
H2291 H 0.73604 0.37 0.77712 0.0
H2292 H 0.76443 0.32746 0.71625 0.0
H2293 H 0.72993 0.33213 0.68198 0.0
C2294 C 0.69275 0.35683 0.6899 0.0
C2295 C 0.67462 0.3703 0.69721 0.0
C2296 C 0.71293 0.35409 0.7095 0.0
C2297 C 0.67758 0.38157 0.72424 0.0
C2298 C 0.69737 0.37887 0.74363 0.0
C2299 C 0.73459 0.36149 0.75642 0.0
C2300 C 0.75269 0.34793 0.7495 0.0
C2301 C 0.71498 0.36485 0.73665 0.0
C2302 C 0.75065 0.33763 0.72233 0.0
C2303 C 0.73095 0.34046 0.70264 0.0
H2304 H 0.05323 0.40937 0.99568 0.0
H2305 H 0.02237 0.43233 0.91895 0.0
H2306 H 0.02227 0.47732 0.93934 0.0
H2307 H 0.03304 0.51268 0.97773 0.0
H2308 H 0.07094 0.49579 0.05314 0.0
H2309 H 0.06642 0.44707 0.03492 0.0
C2310 C 0.04636 0.42415 0.98355 0.0
C2311 C 0.03706 0.4164 0.95576 0.0
C2312 C 0.04777 0.45168 0.99521 0.0
C2313 C 0.02895 0.43659 0.94044 0.0
C2314 C 0.02901 0.46286 0.95203 0.0
C2315 C 0.03993 0.49817 0.99027 0.0
C2316 C 0.05187 0.50757 0.01676 0.0
C2317 C 0.03852 0.47081 0.97925 0.0
C2318 C 0.06141 0.48882 0.03264 0.0
C2319 C 0.05892 0.46099 0.02217 0.0
H2320 H 0.03369 0.8854 0.17386 0.0
H2321 H 0.04486 0.80327 0.18475 0.0
H2322 H 1.01207 0.795 0.21188 0.0
H2323 H 0.97982 0.81092 0.23163 0.0
H2324 H 0.96967 0.89398 0.22255 0.0
H2325 H 1.00219 0.90204 0.19529 0.0
C2326 C 0.0291 0.86595 0.18263 0.0
C2327 C 0.04171 0.8451 0.1779 0.0
C2328 C 1.01029 0.86143 0.19821 0.0
C2329 C 0.03551 0.81969 0.1887 0.0
C2330 C 1.01672 0.81494 0.204 0.0
C2331 C 0.98489 0.83093 0.22399 0.0
C2332 C 0.97227 0.85181 0.22917 0.0
C2333 C 1.00394 0.83564 0.20882 0.0
C2334 C 0.97878 0.87738 0.21856 0.0
C2335 C 0.99755 0.88211 0.20316 0.0
H2336 H 0.60672 0.42488 0.08519 0.0
H2337 H 0.57524 0.43912 0.15559 0.0
H2338 H 0.57146 0.48533 0.14315 0.0
H2339 H 0.57495 0.52127 0.1103 0.0
H2340 H 0.60621 0.50563 0.0398 0.0
H2341 H 0.61279 0.46153 0.05443 0.0
C2342 C 0.59967 0.43841 0.09822 0.0
C2343 C 0.59194 0.4286 0.12178 0.0
C2344 C 0.59744 0.46507 0.09079 0.0
C2345 C 0.58212 0.44629 0.13788 0.0
C2346 C 0.57971 0.47273 0.13055 0.0
C2347 C 0.58359 0.50844 0.09839 0.0
C2348 C 0.59011 0.51716 0.07382 0.0
C2349 C 0.58706 0.48237 0.10683 0.0
C2350 C 0.60087 0.49972 0.05862 0.0
C2351 C 0.60465 0.4743 0.067 0.0
H2352 H 0.97428 0.31365 0.35974 0.0
H2353 H 0.96553 0.36212 0.43015 0.0
H2354 H 0.92704 0.37054 0.40568 0.0
H2355 H 0.89659 0.36595 0.36325 0.0
H2356 H 0.90374 0.31451 0.29396 0.0
H2357 H 0.94205 0.30584 0.31852 0.0
C2358 C 0.96393 0.32612 0.36966 0.0
C2359 C 0.97332 0.33827 0.39642 0.0
C2360 C 0.94161 0.33063 0.35544 0.0
C2361 C 0.95905 0.35315 0.4094 0.0
C2362 C 0.93707 0.35805 0.39534 0.0
C2363 C 0.90683 0.35326 0.35344 0.0
C2364 C 0.89778 0.34164 0.32646 0.0
C2365 C 0.92843 0.34748 0.36813 0.0
C2366 C 0.91063 0.32422 0.31444 0.0
C2367 C 0.93241 0.319 0.32861 0.0
H2368 H 0.08927 0.75424 0.65143 0.0
H2369 H 0.06832 0.79495 0.58161 0.0
H2370 H 0.05949 0.75124 0.5531 0.0
H2371 H 0.05733 0.70139 0.54684 0.0
H2372 H 0.07838 0.6587 0.6148 0.0
H2373 H 0.08698 0.7025 0.64476 0.0
C2374 C 0.08253 0.75348 0.63004 0.0
C2375 C 0.07927 0.77834 0.61904 0.0
C2376 C 0.07728 0.72764 0.6132 0.0
C2377 C 0.0708 0.77656 0.59107 0.0
C2378 C 0.06575 0.75139 0.57451 0.0
C2379 C 0.06364 0.70147 0.56825 0.0
C2380 C 0.06681 0.67643 0.57843 0.0
C2381 C 0.06883 0.7268 0.58524 0.0
C2382 C 0.07546 0.6774 0.60627 0.0
C2383 C 0.08047 0.70261 0.62345 0.0
H2384 H 0.61162 0.87201 0.87633 0.0
H2385 H 0.58412 0.78719 0.8914 0.0
H2386 H 0.61616 0.77263 0.87002 0.0
H2387 H 0.65186 0.78397 0.8464 0.0
H2388 H 0.68109 0.86946 0.8343 0.0
H2389 H 0.64892 0.88385 0.85537 0.0
C2390 C 0.61296 0.85043 0.87533 0.0
C2391 C 0.59574 0.83076 0.8858 0.0
C2392 C 0.63176 0.84233 0.86346 0.0
C2393 C 0.5975 0.80282 0.88408 0.0
C2394 C 0.61568 0.79446 0.87162 0.0
C2395 C 0.65116 0.80574 0.84837 0.0
C2396 C 0.66887 0.82557 0.83865 0.0
C2397 C 0.63288 0.814 0.86112 0.0
C2398 C 0.66783 0.85376 0.84169 0.0
C2399 C 0.64937 0.86201 0.85369 0.0
H2400 H 0.49551 0.54654 0.66757 0.0
H2401 H 0.44251 0.58297 0.62037 0.0
H2402 H 0.47322 0.59971 0.59169 0.0
H2403 H 0.51727 0.6073 0.58342 0.0
H2404 H 0.56831 0.57005 0.63233 0.0
H2405 H 0.53669 0.5514 0.65794 0.0
C2406 C 0.49044 0.55794 0.65083 0.0
C2407 C 0.4668 0.56364 0.64617 0.0
C2408 C 0.50818 0.56794 0.63526 0.0
C2409 C 0.46052 0.57813 0.62424 0.0
C2410 C 0.47821 0.58797 0.60811 0.0
C2411 C 0.52105 0.59468 0.59926 0.0
C2412 C 0.54503 0.59003 0.60567 0.0
C2413 C 0.50237 0.58354 0.61388 0.0
C2414 C 0.55014 0.57418 0.62691 0.0
C2415 C 0.53198 0.5633 0.64152 0.0
H2416 H 0.81851 0.29224 0.96192 0.0
H2417 H 0.75565 0.22584 0.92568 0.0
H2418 H 0.7557 0.24356 0.88255 0.0
H2419 H 0.77434 0.27662 0.85316 0.0
H2420 H 0.83686 0.34357 0.88818 0.0
H2421 H 0.83651 0.32678 0.93237 0.0
C2422 C 0.80456 0.28198 0.94475 0.0
C2423 C 0.78689 0.25776 0.94778 0.0
C2424 C 0.80486 0.29209 0.91905 0.0
C2425 C 0.76937 0.24464 0.9247 0.0
C2426 C 0.76944 0.25463 0.89957 0.0
C2427 C 0.7878 0.28756 0.87047 0.0
C2428 C 0.80541 0.31148 0.86716 0.0
C2429 C 0.78726 0.27809 0.89625 0.0
C2430 C 0.82276 0.32531 0.89003 0.0
C2431 C 0.82264 0.31568 0.91548 0.0
H2432 H 0.15471 0.52749 0.16305 0.0
H2433 H 0.09051 0.47802 0.18804 0.0
H2434 H 0.0634 0.49621 0.15496 0.0
H2435 H 0.05775 0.52853 0.12081 0.0
H2436 H 0.1219 0.58029 0.09827 0.0
H2437 H 0.14907 0.55852 0.12784 0.0
C2438 C 0.13479 0.52005 0.16077 0.0
C2439 C 0.12479 0.50098 0.17785 0.0
C2440 C 0.11922 0.53122 0.14216 0.0
C2441 C 0.09885 0.49216 0.17489 0.0
C2442 C 0.08326 0.50283 0.15613 0.0
C2443 C 0.07768 0.53492 0.12233 0.0
C2444 C 0.08783 0.55601 0.10732 0.0
C2445 C 0.09322 0.52275 0.14 0.0
C2446 C 0.11366 0.56416 0.10958 0.0
C2447 C 0.1292 0.55169 0.12654 0.0
H2448 H 0.86471 0.94153 0.45766 0.0
H2449 H 0.81624 0.87587 0.48839 0.0
H2450 H 0.8071 0.84827 0.44383 0.0
H2451 H 0.81236 0.84391 0.39511 0.0
H2452 H 0.86507 0.9087 0.36834 0.0
H2453 H 0.8734 0.93544 0.41259 0.0
C2454 C 0.8526 0.92093 0.45515 0.0
C2455 C 0.84144 0.91087 0.47678 0.0
C2456 C 0.84809 0.90508 0.42993 0.0
C2457 C 0.82537 0.88416 0.4724 0.0
C2458 C 0.82004 0.86845 0.4468 0.0
C2459 C 0.82574 0.86382 0.39915 0.0
C2460 C 0.83799 0.87446 0.37834 0.0
C2461 C 0.83116 0.87883 0.42525 0.0
C2462 C 0.85547 0.90008 0.38391 0.0
C2463 C 0.8602 0.9154 0.40922 0.0
H2464 H 0.46079 0.60048 0.79795 0.0
H2465 H 0.47397 0.51976 0.77635 0.0
H2466 H 0.51022 0.52897 0.81194 0.0
H2467 H 0.53532 0.55775 0.85098 0.0
H2468 H 0.52255 0.63816 0.87469 0.0
H2469 H 0.48933 0.63188 0.8355 0.0
C2470 C 0.47161 0.585 0.80137 0.0
C2471 C 0.46481 0.55939 0.78528 0.0
C2472 C 0.49264 0.59063 0.82155 0.0
C2473 C 0.47902 0.53951 0.78899 0.0
C2474 C 0.49975 0.54483 0.80906 0.0
C2475 C 0.52609 0.57453 0.84702 0.0
C2476 C 0.53127 0.59839 0.86553 0.0
C2477 C 0.50655 0.57019 0.82552 0.0
C2478 C 0.51876 0.61964 0.86047 0.0
C2479 C 0.49959 0.61585 0.83841 0.0
H2480 H 0.80781 0.24574 0.13285 0.0
H2481 H 0.82365 0.32085 0.09388 0.0
H2482 H 0.83116 0.34901 0.13709 0.0
H2483 H 0.83379 0.35346 0.18625 0.0
H2484 H 0.81679 0.27982 0.22666 0.0
H2485 H 0.80997 0.25051 0.18347 0.0
C2486 C 0.8131 0.26826 0.13379 0.0
C2487 C 0.81538 0.28082 0.10949 0.0
C2488 C 0.81753 0.28487 0.15935 0.0
C2489 C 0.82202 0.31019 0.11171 0.0
C2490 C 0.82629 0.32652 0.13665 0.0
C2491 C 0.82871 0.33096 0.18582 0.0
C2492 C 0.82641 0.31914 0.2103 0.0
C2493 C 0.82423 0.31423 0.16064 0.0
C2494 C 0.81927 0.28982 0.20866 0.0
C2495 C 0.81518 0.27296 0.1837 0.0
H2496 H 0.16315 0.53416 0.35705 0.0
H2497 H 0.10199 0.49996 0.29184 0.0
H2498 H 0.07373 0.5166 0.31803 0.0
H2499 H 0.06755 0.54395 0.35873 0.0
H2500 H 0.13106 0.58234 0.41992 0.0
H2501 H 0.15789 0.56255 0.39492 0.0
C2502 C 0.14358 0.53006 0.34848 0.0
C2503 C 0.13464 0.5159 0.32258 0.0
C2504 C 0.12817 0.54137 0.3625 0.0
C2505 C 0.10923 0.51049 0.31196 0.0
C2506 C 0.09322 0.52048 0.32667 0.0
C2507 C 0.0873 0.54805 0.36624 0.0
C2508 C 0.09748 0.56409 0.3911 0.0
C2509 C 0.10266 0.53658 0.35171 0.0
C2510 C 0.123 0.56964 0.40091 0.0
C2511 C 0.13825 0.55824 0.38679 0.0
H2512 H 0.84097 0.87247 0.6237 0.0
H2513 H 0.83771 0.95543 0.65245 0.0
H2514 H 0.82761 0.93913 0.69492 0.0
H2515 H 0.81877 0.90057 0.72436 0.0
H2516 H 0.82212 0.81786 0.69498 0.0
H2517 H 0.83369 0.83471 0.65338 0.0
C2518 C 0.83821 0.88709 0.63929 0.0
C2519 C 0.84032 0.91537 0.63454 0.0
C2520 C 0.83269 0.87755 0.66408 0.0
C2521 C 0.83657 0.93372 0.6553 0.0
C2522 C 0.83072 0.92432 0.67975 0.0
C2523 C 0.82252 0.88636 0.70907 0.0
C2524 C 0.81993 0.85785 0.71326 0.0
C2525 C 0.82876 0.89624 0.68454 0.0
C2526 C 0.82418 0.83981 0.69266 0.0
C2527 C 0.83068 0.84948 0.66866 0.0
H2528 H 0.80153 0.52915 0.54634 0.0
H2529 H 0.7608 0.44557 0.55145 0.0
H2530 H 0.72491 0.46387 0.55966 0.0
H2531 H 0.70517 0.50449 0.56486 0.0
H2532 H 0.74918 0.58744 0.56257 0.0
H2533 H 0.784 0.56847 0.55477 0.0
C2534 C 0.78501 0.5147 0.54952 0.0
C2535 C 0.78399 0.48589 0.54812 0.0
C2536 C 0.76502 0.52541 0.55503 0.0
C2537 C 0.76219 0.46781 0.55235 0.0
C2538 C 0.74166 0.47832 0.55704 0.0
C2539 C 0.72241 0.51834 0.56269 0.0
C2540 C 0.72442 0.5475 0.56444 0.0
C2541 C 0.74282 0.50719 0.55832 0.0
C2542 C 0.74704 0.56508 0.56176 0.0
C2543 C 0.767 0.55422 0.55705 0.0
H2544 H 0.2314 0.16871 0.53198 0.0
H2545 H 0.19885 0.2318 0.49694 0.0
H2546 H 0.15755 0.2053 0.50103 0.0
H2547 H 0.13033 0.16444 0.51591 0.0
H2548 H 0.16291 0.1 0.5483 0.0
H2549 H 0.20401 0.12621 0.54354 0.0
C2550 C 0.21519 0.17617 0.52432 0.0
C2551 C 0.21833 0.20191 0.51325 0.0
C2552 C 0.19132 0.16063 0.52668 0.0
C2553 C 0.19707 0.21185 0.50494 0.0
C2554 C 0.17338 0.19672 0.50745 0.0
C2555 C 0.14643 0.1562 0.52209 0.0
C2556 C 0.14335 0.1303 0.53294 0.0
C2557 C 0.17021 0.17119 0.51861 0.0
C2558 C 0.16456 0.11988 0.54021 0.0
C2559 C 0.18817 0.13489 0.53741 0.0
H2560 H 0.27657 0.08367 0.8812 0.0
H2561 H 0.19995 0.04366 0.85038 0.0
H2562 H 0.21274 1.00624 0.82585 0.0
H2563 H 0.24633 0.98602 0.81173 0.0
H2564 H 0.32238 0.03046 0.83933 0.0
H2565 H 0.30912 0.06567 0.86571 0.0
C2566 C 0.26252 0.06686 0.86919 0.0
C2567 C 0.23732 0.06655 0.86784 0.0
C2568 C 0.26998 0.04643 0.85411 0.0
C2569 C 0.21951 0.04437 0.85204 0.0
C2570 C 0.22682 0.02307 0.83783 0.0
C2571 C 0.25988 1.00345 0.82358 0.0
C2572 C 0.28531 1.00571 0.82362 0.0
C2573 C 0.25208 0.02406 0.83846 0.0
C2574 C 0.30273 0.02844 0.83882 0.0
C2575 C 0.29519 0.04846 0.85406 0.0
H2576 H 0.42345 0.96677 0.02245 0.0
H2577 H 0.4036 0.01852 0.08343 0.0
H2578 H 0.44375 0.05169 0.08834 0.0
H2579 H 0.48385 0.06774 0.07321 0.0
H2580 H 0.50123 0.01902 1.00802 0.0
H2581 H 0.46321 0.98324 1.00676 0.0
C2582 C 0.42813 0.98515 0.03701 0.0
C2583 C 0.41055 0.9903 0.05242 0.0
C2584 C 0.45092 1.00488 0.03883 0.0
C2585 C 0.4168 0.01421 0.07123 0.0
C2586 C 0.43976 0.03323 0.074 0.0
C2587 C 0.47923 0.04928 0.05875 0.0
C2588 C 0.49525 0.04614 0.04061 0.0
C2589 C 0.4568 0.02914 0.05752 0.0
C2590 C 0.48902 0.02214 0.02193 0.0
C2591 C 0.46738 1.0015 0.02138 0.0
H2592 H 0.91106 0.7418 0.8605 0.0
H2593 H 0.95639 0.7574 0.79928 0.0
H2594 H 0.92592 0.77916 0.77452 0.0
H2595 H 0.88485 0.79124 0.76899 0.0
H2596 H 0.83773 0.76825 0.8272 0.0
H2597 H 0.87 0.75084 0.85378 0.0
C2598 C 0.91465 0.75031 0.84196 0.0
C2599 C 0.93626 0.74798 0.83203 0.0
C2600 C 0.89617 0.76053 0.8267 0.0
C2601 C 0.94024 0.75918 0.80781 0.0
C2602 C 0.92254 0.77116 0.79332 0.0
C2603 C 0.8815 0.78174 0.78714 0.0
C2604 C 0.85866 0.78044 0.79575 0.0
C2605 C 0.90011 0.77126 0.80221 0.0
C2606 C 0.85475 0.76868 0.81963 0.0
C2607 C 0.8734 0.75918 0.83512 0.0
H2608 H 0.87007 0.73372 0.04678 0.0
H2609 H 0.82593 0.65929 0.99699 0.0
H2610 H 0.85986 0.63703 1.00406 0.0
H2611 H 0.90198 0.63724 0.02384 0.0
H2612 H 0.94923 0.71097 0.07063 0.0
H2613 H 0.91479 0.73473 0.06505 0.0
C2614 C 0.86794 0.71269 0.03749 0.0
C2615 C 0.84497 0.69841 0.02155 0.0
C2616 C 0.88828 0.69969 0.04093 0.0
C2617 C 0.84295 0.67115 1.00951 0.0
C2618 C 0.86251 0.65813 1.01346 0.0
C2619 C 0.90475 0.65856 0.03277 0.0
C2620 C 0.92797 0.67226 0.04774 0.0
C2621 C 0.88517 0.67206 0.02906 0.0
C2622 C 0.93144 0.7 0.05896 0.0
C2623 C 0.91171 0.71352 0.05583 0.0
H2624 H 0.25489 0.17682 0.84916 0.0
H2625 H 0.22769 0.23477 0.89703 0.0
H2626 H 0.25197 0.274 0.87792 0.0
H2627 H 0.28044 0.29122 0.84621 0.0
H2628 H 0.30644 0.23149 0.79885 0.0
H2629 H 0.28258 0.1933 0.81855 0.0
C2630 C 0.25468 0.19811 0.85584 0.0
C2631 C 0.24009 0.20314 0.87485 0.0
C2632 C 0.26794 0.22005 0.84426 0.0
C2633 C 0.23919 0.23062 0.88267 0.0
C2634 C 0.25288 0.2529 0.87159 0.0
C2635 C 0.28042 0.26976 0.84 0.0
C2636 C 0.29483 0.26391 0.82092 0.0
C2637 C 0.26705 0.24782 0.852 0.0
C2638 C 0.29529 0.23626 0.81338 0.0
C2639 C 0.28182 0.21449 0.82475 0.0
H2640 H 0.41773 0.1234 0.31371 0.0
H2641 H 0.48295 0.09299 0.33905 0.0
H2642 H 0.46173 0.04673 0.31607 0.0
H2643 H 0.42324 0.01426 0.29482 0.0
H2644 H 0.3557 0.04269 0.28071 0.0
H2645 H 0.37931 0.09105 0.29136 0.0
C2646 C 0.42693 0.10638 0.31531 0.0
C2647 C 0.45122 0.11088 0.32947 0.0
C2648 C 0.41442 0.07998 0.30299 0.0
C2649 C 0.46379 0.08938 0.32922 0.0
C2650 C 0.45186 0.06324 0.31577 0.0
C2651 C 0.41391 0.03126 0.29327 0.0
C2652 C 0.38798 0.0253 0.28788 0.0
C2653 C 0.42702 0.05823 0.30317 0.0
C2654 C 0.37574 0.04701 0.28504 0.0
C2655 C 0.38914 0.07451 0.29194 0.0
H2656 H 0.55743 0.40973 0.57982 0.0
H2657 H 0.62625 0.4463 0.6341 0.0
H2658 H 0.62443 0.49225 0.61983 0.0
H2659 H 0.60348 0.52202 0.59168 0.0
H2660 H 0.53373 0.48563 0.53919 0.0
H2661 H 0.53581 0.43957 0.55305 0.0
C2662 C 0.57221 0.42764 0.58857 0.0
C2663 C 0.59219 0.4242 0.60794 0.0
C2664 C 0.57082 0.45408 0.58056 0.0
C2665 C 0.61077 0.44802 0.61912 0.0
C2666 C 0.60971 0.47437 0.61094 0.0
C2667 C 0.58869 0.50401 0.58322 0.0
C2668 C 0.56848 0.50737 0.56421 0.0
C2669 C 0.58986 0.47764 0.59163 0.0
C2670 C 0.54939 0.48379 0.55384 0.0
C2671 C 0.55066 0.45741 0.56173 0.0
H2672 H 0.45041 0.84116 0.41833 0.0
H2673 H 0.48046 0.79743 0.35996 0.0
H2674 H 0.44549 0.79876 0.32491 0.0
H2675 H 0.40825 0.81658 0.30952 0.0
H2676 H 0.37874 0.86142 0.36777 0.0
H2677 H 0.41143 0.85601 0.40358 0.0
C2678 C 0.44903 0.83153 0.39803 0.0
C2679 C 0.46839 0.8198 0.39167 0.0
C2680 C 0.42909 0.83316 0.37762 0.0
C2681 C 0.46611 0.80709 0.36531 0.0
C2682 C 0.44608 0.80791 0.34519 0.0
C2683 C 0.40901 0.82526 0.33002 0.0
C2684 C 0.39116 0.8399 0.33567 0.0
C2685 C 0.42789 0.8218 0.35081 0.0
C2686 C 0.39234 0.85046 0.36259 0.0
C2687 C 0.41098 0.84715 0.38323 0.0
H2688 H 0.08879 0.76088 0.15117 0.0
H2689 H 0.11087 0.79986 0.08266 0.0
H2690 H 0.10889 0.75428 0.05899 0.0
H2691 H 0.10055 0.70278 0.05778 0.0
H2692 H 0.07983 0.66419 0.12702 0.0
H2693 H 0.08218 0.70991 0.15071 0.0
C2694 C 0.09309 0.75928 0.13104 0.0
C2695 C 0.09892 0.78349 0.11818 0.0
C2696 C 0.0926 0.73305 0.11791 0.0
C2697 C 0.1052 0.78133 0.09243 0.0
C2698 C 0.10443 0.75531 0.07906 0.0
C2699 C 0.09709 0.7046 0.07826 0.0
C2700 C 0.09057 0.68041 0.09101 0.0
C2701 C 0.09814 0.73097 0.09158 0.0
C2702 C 0.08536 0.68272 0.11717 0.0
C2703 C 0.0865 0.70879 0.13059 0.0
H2704 H 0.1161 0.33964 0.92752 0.0
H2705 H 0.07544 0.34969 0.84999 0.0
H2706 H 0.11156 0.35317 0.83029 0.0
H2707 H 0.15449 0.35402 0.83347 0.0
H2708 H 0.19797 0.3435 0.90833 0.0
H2709 H 0.16131 0.33934 0.93026 0.0
C2710 C 0.11519 0.34236 0.90634 0.0
C2711 C 0.09272 0.34456 0.89068 0.0
C2712 C 0.13666 0.34441 0.89439 0.0
C2713 C 0.09213 0.34808 0.86309 0.0
C2714 C 0.11295 0.35013 0.85145 0.0
C2715 C 0.15609 0.35112 0.8547 0.0
C2716 C 0.17889 0.34958 0.86937 0.0
C2717 C 0.13524 0.34856 0.86684 0.0
C2718 C 0.18051 0.34493 0.89665 0.0
C2719 C 0.15957 0.34257 0.90915 0.0
H2720 H 0.56488 0.769 0.98752 0.0
H2721 H 0.50679 0.73048 0.92087 0.0
H2722 H 0.5082 0.68428 0.93483 0.0
H2723 H 0.5261 0.6539 0.96661 0.0
H2724 H 0.58426 0.69386 0.03294 0.0
H2725 H 0.58298 0.73931 0.01825 0.0
C2726 C 0.55245 0.75056 0.97601 0.0
C2727 C 0.53568 0.75368 0.95309 0.0
C2728 C 0.55351 0.72377 0.98406 0.0
C2729 C 0.51999 0.72912 0.9385 0.0
C2730 C 0.52078 0.70249 0.94653 0.0
C2731 C 0.53852 0.67253 0.97779 0.0
C2732 C 0.55511 0.66998 1.00122 0.0
C2733 C 0.53752 0.69937 0.96932 0.0
C2734 C 0.57098 0.69474 1.01519 0.0
C2735 C 0.57033 0.72101 1.00675 0.0
H2736 H 0.15389 0.84128 0.7214 0.0
H2737 H 0.18952 0.8861 0.66288 0.0
H2738 H 0.23021 0.88471 0.68796 0.0
H2739 H 0.25566 0.8704 0.7263 0.0
H2740 H 0.22027 0.82146 0.7825 0.0
H2741 H 0.17951 0.825 0.75893 0.0
C2742 C 0.17062 0.85082 0.71425 0.0
C2743 C 0.16878 0.86437 0.6906 0.0
C2744 C 0.19394 0.84917 0.72843 0.0
C2745 C 0.1905 0.87591 0.68114 0.0
C2746 C 0.21374 0.87511 0.69551 0.0
C2747 C 0.23901 0.86055 0.73344 0.0
C2748 C 0.241 0.84588 0.7563 0.0
C2749 C 0.21569 0.86181 0.71916 0.0
C2750 C 0.21924 0.83283 0.76499 0.0
C2751 C 0.19596 0.83487 0.75148 0.0
H2752 H 0.03989 0.44321 0.43508 0.0
H2753 H 0.07999 0.40301 0.4938 0.0
H2754 H 0.09305 0.44695 0.52391 0.0
H2755 H 0.09263 0.49735 0.53381 0.0
H2756 H 0.04544 0.53314 0.47792 0.0
H2757 H 0.03553 0.49067 0.44677 0.0
C2758 C 0.05115 0.44365 0.45459 0.0
C2759 C 0.05875 0.41934 0.46195 0.0
C2760 C 0.05755 0.46862 0.47235 0.0
C2761 C 0.07365 0.42106 0.48743 0.0
C2762 C 0.08119 0.44633 0.50469 0.0
C2763 C 0.08034 0.49594 0.51471 0.0
C2764 C 0.07081 0.51932 0.50779 0.0
C2765 C 0.07325 0.47037 0.49741 0.0
C2766 C 0.05407 0.51633 0.48339 0.0
C2767 C 0.04809 0.49176 0.46562 0.0
H2768 H 0.51164 0.37395 0.15943 0.0
H2769 H 0.55408 0.33574 0.21794 0.0
H2770 H 0.52636 0.34093 0.24978 0.0
H2771 H 0.48929 0.35589 0.26073 0.0
H2772 H 0.44736 0.39404 0.20172 0.0
H2773 H 0.4758 0.38986 0.17062 0.0
C2774 C 0.5148 0.36669 0.17913 0.0
C2775 C 0.53481 0.35433 0.18621 0.0
C2776 C 0.49892 0.36996 0.19737 0.0
C2777 C 0.53885 0.34542 0.21199 0.0
C2778 C 0.52297 0.34835 0.23021 0.0
C2779 C 0.48654 0.36335 0.24109 0.0
C2780 C 0.46616 0.37506 0.23336 0.0
C2781 C 0.50288 0.36057 0.22311 0.0
C2782 C 0.46273 0.38464 0.20789 0.0
C2783 C 0.47899 0.38228 0.19014 0.0
H2784 H 0.68059 0.59323 0.45859 0.0
H2785 H 0.65643 0.65942 0.41919 0.0
H2786 H 0.61787 0.64908 0.4367 0.0
H2787 H 0.59017 0.62029 0.46197 0.0
H2788 H 0.61308 0.55307 0.50047 0.0
H2789 H 0.65281 0.56463 0.48484 0.0
C2790 C 0.66715 0.60581 0.45461 0.0
C2791 C 0.67148 0.62739 0.43815 0.0
C2792 C 0.64458 0.59926 0.4642 0.0
C2793 C 0.65359 0.643 0.43226 0.0
C2794 C 0.63143 0.63694 0.44201 0.0
C2795 C 0.60376 0.60799 0.4666 0.0
C2796 C 0.59883 0.58587 0.48226 0.0
C2797 C 0.62651 0.61483 0.45762 0.0
C2798 C 0.61666 0.57029 0.48846 0.0
C2799 C 0.63936 0.57693 0.4796 0.0
H2800 H 0.33988 0.88349 0.11642 0.0
H2801 H 0.34246 0.96879 0.14362 0.0
H2802 H 0.34242 0.95704 0.1898 0.0
H2803 H 0.34116 0.92215 0.22322 0.0
H2804 H 0.34079 0.8374 0.19576 0.0
H2805 H 0.34078 0.84935 0.14997 0.0
C2806 C 0.34029 0.89951 0.13239 0.0
C2807 C 0.34086 0.92703 0.12612 0.0
C2808 C 0.3409 0.89272 0.15936 0.0
C2809 C 0.34189 0.94743 0.1475 0.0
C2810 C 0.34191 0.94071 0.17411 0.0
C2811 C 0.34139 0.90635 0.20733 0.0
C2812 C 0.34101 0.87877 0.2135 0.0
C2813 C 0.34145 0.9134 0.18044 0.0
C2814 C 0.3411 0.85878 0.19215 0.0
C2815 C 0.34099 0.86557 0.16565 0.0
H2816 H 1.01198 0.70616 0.94596 0.0
H2817 H 1.0114 0.64675 0.87911 0.0
H2818 H 0.03187 0.61932 0.90921 0.0
H2819 H 0.04993 0.6117 0.95488 0.0
H2820 H 0.05615 0.67405 0.02109 0.0
H2821 H 0.03396 0.70081 0.99094 0.0
C2822 C 1.01695 0.68761 0.93803 0.0
C2823 C 1.01059 0.67882 0.9103 0.0
C2824 C 0.02952 0.67218 0.95545 0.0
C2825 C 1.01674 0.65443 0.90029 0.0
C2826 C 0.02817 0.63846 0.91754 0.0
C2827 C 0.0461 0.63099 0.96272 0.0
C2828 C 0.05394 0.64058 0.99014 0.0
C2829 C 0.0345 0.64699 0.9452 0.0
C2830 C 0.04973 0.66603 1.00006 0.0
C2831 C 0.03721 0.6814 0.98294 0.0
H2832 H 0.29902 0.31176 0.60759 0.0
H2833 H 0.29407 0.22462 0.61605 0.0
H2834 H 0.29719 0.23367 0.66453 0.0
H2835 H 0.30158 0.26617 0.70541 0.0
H2836 H 0.30529 0.35299 0.6978 0.0
H2837 H 0.30239 0.3444 0.64884 0.0
C2838 C 0.29881 0.29481 0.62007 0.0
C2839 C 0.29646 0.26749 0.60786 0.0
C2840 C 0.3002 0.30008 0.64837 0.0
C2841 C 0.29591 0.24585 0.62458 0.0
C2842 C 0.29765 0.25097 0.65249 0.0
C2843 C 0.30143 0.28309 0.69293 0.0
C2844 C 0.30327 0.3101 0.70519 0.0
C2845 C 0.29972 0.27794 0.66469 0.0
C2846 C 0.30346 0.33192 0.6888 0.0
C2847 C 0.30197 0.32702 0.66077 0.0
H2848 H 0.63818 0.60134 0.30383 0.0
H2849 H 0.70874 0.60641 0.27855 0.0
H2850 H 0.68768 0.59562 0.23141 0.0
H2851 H 0.65008 0.59186 0.19813 0.0
H2852 H 0.58118 0.59377 0.22466 0.0
H2853 H 0.60063 0.59348 0.2712 0.0
C2854 C 0.64902 0.59958 0.28811 0.0
C2855 C 0.67491 0.60483 0.29434 0.0
C2856 C 0.63701 0.59439 0.26154 0.0
C2857 C 0.68875 0.60271 0.27391 0.0
C2858 C 0.67675 0.59646 0.24715 0.0
C2859 C 0.63931 0.59142 0.21417 0.0
C2860 C 0.61451 0.5931 0.20846 0.0
C2861 C 0.651 0.59321 0.2408 0.0
C2862 C 0.60031 0.59224 0.22888 0.0
C2863 C 0.6115 0.59252 0.25541 0.0
H2864 H 0.33877 0.88735 0.97181 0.0
H2865 H 0.31105 0.95733 0.94505 0.0
H2866 H 0.30318 0.93668 0.89865 0.0
H2867 H 0.30497 0.89935 0.86405 0.0
H2868 H 0.32947 0.82743 0.88989 0.0
H2869 H 0.33788 0.84799 0.93692 0.0
C2870 C 0.33058 0.89785 0.95595 0.0
C2871 C 0.32573 0.92427 0.96264 0.0
C2872 C 0.32578 0.88558 0.92847 0.0
C2873 C 0.31531 0.93726 0.94115 0.0
C2874 C 0.31079 0.92544 0.91424 0.0
C2875 C 0.31217 0.88817 0.87995 0.0
C2876 C 0.31663 0.86176 0.87305 0.0
C2877 C 0.31623 0.8998 0.90742 0.0
C2878 C 0.32572 0.84768 0.8943 0.0
C2879 C 0.33054 0.85949 0.92142 0.0
H2880 H 0.03533 0.67562 0.78798 0.0
H2881 H 0.96538 0.67308 0.73747 0.0
H2882 H 0.97719 0.64674 0.70076 0.0
H2883 H 1.00702 0.62324 0.68377 0.0
H2884 H 0.07628 0.62484 0.73556 0.0
H2885 H 0.06459 0.65176 0.77146 0.0
C2886 C 0.02294 0.67002 0.76868 0.0
C2887 C 0.99988 0.67712 0.76506 0.0
C2888 C 0.02941 0.65398 0.74821 0.0
C2889 C 0.98354 0.66852 0.7404 0.0
C2890 C 0.99015 0.65318 0.71957 0.0
C2891 C 0.01963 0.62966 0.70285 0.0
C2892 C 0.04256 0.62209 0.70686 0.0
C2893 C 1.01298 0.64559 0.72336 0.0
C2894 C 0.0584 0.63003 0.73195 0.0
C2895 C 0.05188 0.64576 0.75242 0.0
H2896 H 0.32982 0.27519 0.45022 0.0
H2897 H 0.25234 0.27483 0.43827 0.0
H2898 H 0.25618 0.29878 0.39769 0.0
H2899 H 0.28208 0.32065 0.36492 0.0
H2900 H 0.35985 0.32177 0.37872 0.0
H2901 H 0.35548 0.29736 0.41846 0.0
C2902 C 0.31387 0.28086 0.43906 0.0
C2903 C 0.2909 0.27371 0.44795 0.0
C2904 C 0.31626 0.29476 0.41553 0.0
C2905 C 0.27038 0.2806 0.43251 0.0
C2906 C 0.27255 0.29416 0.40903 0.0
C2907 C 0.29793 0.31513 0.37635 0.0
C2908 C 0.32128 0.32294 0.36823 0.0
C2909 C 0.2954 0.30134 0.40011 0.0
C2910 C 0.34164 0.31609 0.38409 0.0
C2911 C 0.33919 0.3021 0.40706 0.0
H2912 H 0.37622 0.71984 0.5375 0.0
H2913 H 0.32311 0.65287 0.48503 0.0
H2914 H 0.35408 0.62778 0.48158 0.0
H2915 H 0.39508 0.62201 0.49412 0.0
H2916 H 0.45168 0.68864 0.54175 0.0
H2917 H 0.42067 0.71545 0.54679 0.0
C2918 C 0.3715 0.69987 0.52528 0.0
C2919 C 0.3468 0.68872 0.51201 0.0
C2920 C 0.39004 0.68482 0.52256 0.0
C2921 C 0.3415 0.66265 0.49598 0.0
C2922 C 0.35936 0.64781 0.49379 0.0
C2923 C 0.40118 0.6427 0.505 0.0
C2924 C 0.42603 0.65285 0.51739 0.0
C2925 C 0.38356 0.65847 0.50706 0.0
C2926 C 0.4327 0.67958 0.53223 0.0
C2927 C 0.41491 0.69522 0.53499 0.0
H2928 H 0.91385 0.02399 0.57339 0.0
H2929 H 0.92972 0.94765 0.54303 0.0
H2930 H 0.97061 0.97332 0.53666 0.0
H2931 H 1.00174 0.0184 0.53767 0.0
H2932 H 0.98387 0.09483 0.56518 0.0
H2933 H 0.94462 0.06863 0.57449 0.0
C2934 C 0.92613 0.01302 0.56504 0.0
C2935 C 0.91812 0.98393 0.55772 0.0
C2936 C 0.9496 0.02814 0.56086 0.0
C2937 C 0.935 0.97003 0.54831 0.0
C2938 C 0.95846 0.9848 0.54454 0.0
C2939 C 0.9892 0.02934 0.54554 0.0
C2940 C 0.99611 0.05884 0.55057 0.0
C2941 C 0.96591 0.014 0.55028 0.0
C2942 C 0.97936 0.07234 0.56089 0.0
C2943 C 0.95677 0.05728 0.56639 0.0
H2944 H 0.92868 0.13091 0.2669 0.0
H2945 H 0.88628 0.11642 0.18648 0.0
H2946 H 0.8683 0.15607 0.19565 0.0
H2947 H 0.85948 0.18929 0.22894 0.0
H2948 H 0.89819 0.20018 0.31092 0.0
H2949 H 0.92316 0.1678 0.29901 0.0
C2950 C 0.91653 0.13753 0.25106 0.0
C2951 C 0.90929 0.12161 0.22584 0.0
C2952 C 0.90519 0.15919 0.2571 0.0
C2953 C 0.89267 0.12921 0.20568 0.0
C2954 C 0.88206 0.15148 0.21112 0.0
C2955 C 0.87381 0.18494 0.24394 0.0
C2956 C 0.87716 0.19674 0.27066 0.0
C2957 C 0.88738 0.16578 0.23709 0.0
C2958 C 0.89539 0.19097 0.29025 0.0
C2959 C 0.90961 0.17258 0.28342 0.0
H2960 H 0.73832 0.16831 0.04643 0.0
H2961 H 0.71034 0.23261 1.00773 0.0
H2962 H 0.66774 0.2066 1.00696 0.0
H2963 H 0.63834 0.16569 0.01763 0.0
H2964 H 0.66607 0.10309 0.05965 0.0
H2965 H 0.70874 0.12773 0.05821 0.0
C2966 C 0.72283 0.17642 0.0376 0.0
C2967 C 0.72741 0.20197 0.02639 0.0
C2968 C 0.69835 0.16153 0.03775 0.0
C2969 C 0.70725 0.21281 1.01604 0.0
C2970 C 0.68291 0.19789 1.01557 0.0
C2971 C 0.65374 0.15737 0.02635 0.0
C2972 C 0.64903 0.13246 0.03858 0.0
C2973 C 0.67821 0.17222 0.02632 0.0
C2974 C 0.66919 0.12222 0.0502 0.0
C2975 C 0.69359 0.13635 0.04941 0.0
H2976 H 0.20529 0.43213 0.24093 0.0
H2977 H 0.23279 0.48684 0.31549 0.0
H2978 H 0.26785 0.46727 0.32467 0.0
H2979 H 0.29057 0.43299 0.31434 0.0
H2980 H 0.26322 0.37411 0.2436 0.0
H2981 H 0.22898 0.39657 0.23036 0.0
C2982 C 0.2188 0.43945 0.25922 0.0
C2983 C 0.21573 0.46077 0.27736 0.0
C2984 C 0.23945 0.42751 0.26522 0.0
C2985 C 0.23385 0.4701 0.30102 0.0
C2986 C 0.2544 0.45916 0.30645 0.0
C2987 C 0.27749 0.42573 0.29566 0.0
C2988 C 0.27956 0.40272 0.27958 0.0
C2989 C 0.25737 0.43778 0.28894 0.0
C2990 C 0.26209 0.39251 0.25588 0.0
C2991 C 0.24239 0.40508 0.24849 0.0
H2992 H 0.3002 0.51991 0.03621 0.0
H2993 H 0.26529 0.43861 0.05523 0.0
H2994 H 0.2261 0.45358 0.05412 0.0
H2995 H 0.20178 0.49046 0.04669 0.0
H2996 H 0.2394 0.57055 0.02727 0.0
H2997 H 0.27758 0.55509 0.02946 0.0
C2998 C 0.28419 0.50511 0.04017 0.0
C2999 C 0.2859 0.47798 0.04572 0.0
C3000 C 0.26209 0.51372 0.03928 0.0
C3001 C 0.26468 0.45962 0.05099 0.0
C3002 C 0.24225 0.46819 0.05025 0.0
C3003 C 0.21841 0.50441 0.04303 0.0
C3004 C 0.2176 0.53156 0.03643 0.0
C3005 C 0.24071 0.49528 0.04429 0.0
C3006 C 0.2393 0.54945 0.03181 0.0
C3007 C 0.26123 0.54069 0.03322 0.0
H3008 H 0.91952 0.96432 0.24118 0.0
H3009 H 0.86127 0.98124 0.18335 0.0
H3010 H 0.83203 0.94043 0.19345 0.0
H3011 H 0.82169 0.90499 0.22396 0.0
H3012 H 0.87853 0.89335 0.28689 0.0
H3013 H 0.9098 0.9261 0.26933 0.0
C3014 C 0.90056 0.95848 0.23037 0.0
C3015 C 0.89228 0.97561 0.21181 0.0
C3016 C 0.88362 0.93594 0.23739 0.0
C3017 C 0.86779 0.96825 0.19787 0.0
C3018 C 0.85113 0.945 0.20369 0.0
C3019 C 0.84099 0.90935 0.23356 0.0
C3020 C 0.84784 0.89686 0.25675 0.0
C3021 C 0.85856 0.92949 0.22429 0.0
C3022 C 0.87286 0.90261 0.26897 0.0
C3023 C 0.89073 0.92145 0.25897 0.0
H3024 H 0.67408 0.09957 0.78367 0.0
H3025 H 0.71551 0.06463 0.73096 0.0
H3026 H 0.74674 0.10823 0.73719 0.0
H3027 H 0.76362 0.15409 0.76007 0.0
H3028 H 0.72537 0.1895 0.81617 0.0
H3029 H 0.69117 0.1477 0.80621 0.0
C3030 C 0.68966 0.10206 0.77314 0.0
C3031 C 0.69301 0.07942 0.75723 0.0
C3032 C 0.70811 0.12681 0.77777 0.0
C3033 C 0.71301 0.08218 0.74347 0.0
C3034 C 0.73087 0.10687 0.74716 0.0
C3035 C 0.74817 0.15247 0.77076 0.0
C3036 C 0.74721 0.1743 0.78938 0.0
C3037 C 0.72901 0.12883 0.76501 0.0
C3038 C 0.72652 0.1725 0.80206 0.0
C3039 C 0.70693 0.14891 0.79611 0.0
loop_
_geom_bond_atom_site_label_1
_geom_bond_atom_site_label_2
_geom_bond_distance
_geom_bond_site_symmetry_2
_ccdc_geom_bond_type
Mn0 O5 2.095 . S
Mn0 O15 2.162 . S
Mn0 O16 2.297 . S
Mn0 O24 2.385 1_455 S
Mn0 O25 2.209 1_455 S
Mn0 O26 2.094 . S
Mn1 O6 2.121 . S
Mn1 N8 2.257 1_455 S
Mn1 N17 2.282 1_455 S
Mn1 O25 2.215 1_455 S
Mn1 O27 2.117 . S
C2 O24 1.234 . S
C2 O25 1.283 . S
C3 O15 1.281 . S
C3 O16 1.236 . S
C4 O26 1.240 . S
C4 O27 1.264 . S
O5 Mn0 2.095 . S
O5 C14 1.250 . S
O6 Mn1 2.121 . S
O6 C14 1.258 . S
C7 N8 1.326 1_455 S
C7 C11 1.460 1_455 S
C7 H13 0.929 . S
N8 Mn1 2.257 1_655 S
N8 C7 1.326 1_655 S
N8 C12 1.362 . S
C9 C10 1.258 . S
C9 C12 1.431 . S
C9 C29 1.449 . S
C10 C9 1.258 . S
C10 C11 1.477 . S
C10 H30 0.931 . S
C11 C7 1.460 1_655 S
C11 C10 1.477 . S
C11 H31 0.933 . S
C12 N8 1.362 . S
C12 C9 1.431 . S
C12 C22 1.476 . S
H13 C7 0.929 . S
C14 O5 1.250 . S
C14 O6 1.258 . S
O15 Mn0 2.162 . S
O15 C3 1.281 . S
O16 Mn0 2.297 . S
O16 C3 1.236 . S
N17 Mn1 2.282 1_655 S
N17 C18 1.328 . S
N17 C22 1.318 . S
C18 N17 1.328 . S
C18 C19 1.457 . S
C18 H23 0.929 . S
C19 C18 1.457 . S
C19 C20 1.291 . S
C19 H32 0.931 . S
C20 C19 1.291 . S
C20 C21 1.373 . S
C20 H33 0.929 . S
C21 C20 1.373 . S
C21 C22 1.396 . S
C21 C28 1.403 . S
C22 C12 1.476 . S
C22 N17 1.318 . S
C22 C21 1.396 . S
H23 C18 0.929 . S
O24 Mn0 2.385 1_655 S
O24 C2 1.234 . S
O25 Mn0 2.209 1_655 S
O25 Mn1 2.215 1_655 S
O25 C2 1.283 . S
O26 Mn0 2.094 . S
O26 C4 1.240 . S
O27 Mn1 2.117 . S
O27 C4 1.264 . S
C28 C21 1.403 . S
C28 C29 1.399 . S
C28 H34 0.929 . S
C29 C9 1.449 . S
C29 C28 1.399 . S
C29 H35 0.930 . S
H30 C10 0.931 . S
H31 C11 0.933 . S
H32 C19 0.931 . S
H33 C20 0.929 . S
H34 C28 0.929 . S
H35 C29 0.930 . S
Mn36 O41 2.095 . S
Mn36 O51 2.162 . S
Mn36 O52 2.297 . S
Mn36 O60 2.385 . S
Mn36 O61 2.209 . S
Mn36 O62 2.094 . S
Mn37 O42 2.121 . S
Mn37 N44 2.257 . S
Mn37 N53 2.282 . S
Mn37 O61 2.215 . S
Mn37 O63 2.117 . S
C38 O60 1.234 . S
C38 O61 1.283 . S
C39 O51 1.281 . S
C39 O52 1.236 . S
C40 O62 1.240 . S
C40 O63 1.264 . S
O41 Mn36 2.095 . S
O41 C50 1.250 . S
O42 Mn37 2.121 . S
O42 C50 1.258 . S
C43 N44 1.326 . S
C43 C47 1.460 . S
C43 H49 0.929 . S
N44 Mn37 2.257 . S
N44 C43 1.326 . S
N44 C48 1.362 . S
C45 C46 1.258 . S
C45 C48 1.431 . S
C45 C65 1.449 . S
C46 C45 1.258 . S
C46 C47 1.477 . S
C46 H66 0.931 . S
C47 C43 1.460 . S
C47 C46 1.477 . S
C47 H67 0.930 . S
C48 N44 1.362 . S
C48 C45 1.431 . S
C48 C58 1.476 . S
H49 C43 0.929 . S
C50 O41 1.250 . S
C50 O42 1.258 . S
O51 Mn36 2.162 . S
O51 C39 1.281 . S
O52 Mn36 2.297 . S
O52 C39 1.236 . S
N53 Mn37 2.282 . S
N53 C54 1.328 . S
N53 C58 1.318 . S
C54 N53 1.328 . S
C54 C55 1.457 . S
C54 H59 0.929 . S
C55 C54 1.457 . S
C55 C56 1.291 . S
C55 H68 0.931 . S
C56 C55 1.291 . S
C56 C57 1.373 . S
C56 H69 0.929 . S
C57 C56 1.373 . S
C57 C58 1.396 . S
C57 C64 1.403 . S
C58 C48 1.476 . S
C58 N53 1.318 . S
C58 C57 1.396 . S
H59 C54 0.929 . S
O60 Mn36 2.385 . S
O60 C38 1.234 . S
O61 Mn36 2.209 . S
O61 Mn37 2.215 . S
O61 C38 1.283 . S
O62 Mn36 2.094 . S
O62 C40 1.240 . S
O63 Mn37 2.117 . S
O63 C40 1.264 . S
C64 C57 1.403 . S
C64 C65 1.399 . S
C64 H70 0.929 . S
C65 C45 1.449 . S
C65 C64 1.399 . S
C65 H71 0.930 . S
H66 C46 0.931 . S
H67 C47 0.930 . S
H68 C55 0.931 . S
H69 C56 0.929 . S
H70 C64 0.929 . S
H71 C65 0.930 . S
Mn72 O77 2.095 . S
Mn72 O87 2.162 . S
Mn72 O88 2.297 . S
Mn72 O96 2.385 . S
Mn72 O97 2.209 . S
Mn72 O98 2.094 . S
Mn73 O78 2.121 . S
Mn73 N80 2.257 . S
Mn73 N89 2.282 . S
Mn73 O97 2.215 . S
Mn73 O99 2.117 . S
C74 O96 1.234 . S
C74 O97 1.283 . S
C75 O87 1.281 . S
C75 O88 1.236 . S
C76 O98 1.240 . S
C76 O99 1.264 . S
O77 Mn72 2.095 . S
O77 C86 1.250 . S
O78 Mn73 2.121 . S
O78 C86 1.258 . S
C79 N80 1.326 . S
C79 C83 1.460 . S
C79 H85 0.929 . S
N80 Mn73 2.257 . S
N80 C79 1.326 . S
N80 C84 1.362 . S
C81 C82 1.258 . S
C81 C84 1.431 . S
C81 C101 1.449 . S
C82 C81 1.258 . S
C82 C83 1.477 . S
C82 H102 0.931 . S
C83 C79 1.460 . S
C83 C82 1.477 . S
C83 H103 0.930 . S
C84 N80 1.362 . S
C84 C81 1.431 . S
C84 C94 1.476 . S
H85 C79 0.929 . S
C86 O77 1.250 . S
C86 O78 1.258 . S
O87 Mn72 2.162 . S
O87 C75 1.281 . S
O88 Mn72 2.297 . S
O88 C75 1.236 . S
N89 Mn73 2.282 . S
N89 C90 1.328 . S
N89 C94 1.318 . S
C90 N89 1.328 . S
C90 C91 1.457 . S
C90 H95 0.929 . S
C91 C90 1.457 . S
C91 C92 1.291 . S
C91 H104 0.931 . S
C92 C91 1.291 . S
C92 C93 1.373 . S
C92 H105 0.929 . S
C93 C92 1.373 . S
C93 C94 1.396 . S
C93 C100 1.403 . S
C94 C84 1.476 . S
C94 N89 1.318 . S
C94 C93 1.396 . S
H95 C90 0.929 . S
O96 Mn72 2.385 . S
O96 C74 1.234 . S
O97 Mn72 2.209 . S
O97 Mn73 2.215 . S
O97 C74 1.283 . S
O98 Mn72 2.094 . S
O98 C76 1.240 . S
O99 Mn73 2.117 . S
O99 C76 1.264 . S
C100 C93 1.403 . S
C100 C101 1.399 . S
C100 H106 0.929 . S
C101 C81 1.449 . S
C101 C100 1.399 . S
C101 H107 0.930 . S
H102 C82 0.931 . S
H103 C83 0.930 . S
H104 C91 0.931 . S
H105 C92 0.929 . S
H106 C100 0.929 . S
H107 C101 0.930 . S
Mn108 O113 2.095 . S
Mn108 O123 2.162 . S
Mn108 O124 2.297 . S
Mn108 O132 2.385 . S
Mn108 O133 2.209 . S
Mn108 O134 2.094 . S
Mn109 O114 2.121 . S
Mn109 N116 2.257 . S
Mn109 N125 2.282 . S
Mn109 O133 2.215 . S
Mn109 O135 2.117 . S
C110 O132 1.234 . S
C110 O133 1.283 . S
C111 O123 1.281 . S
C111 O124 1.236 . S
C112 O134 1.240 . S
C112 O135 1.264 . S
O113 Mn108 2.095 . S
O113 C122 1.250 . S
O114 Mn109 2.121 . S
O114 C122 1.258 . S
C115 N116 1.326 . S
C115 C119 1.460 . S
C115 H121 0.929 . S
N116 Mn109 2.257 . S
N116 C115 1.326 . S
N116 C120 1.362 . S
C117 C118 1.258 . S
C117 C120 1.431 . S
C117 C137 1.449 . S
C118 C117 1.258 . S
C118 C119 1.477 . S
C118 H138 0.931 1_554 S
C119 C115 1.460 . S
C119 C118 1.477 . S
C119 H139 0.930 . S
C120 N116 1.362 . S
C120 C117 1.431 . S
C120 C130 1.476 . S
H121 C115 0.929 . S
C122 O113 1.250 . S
C122 O114 1.258 . S
O123 Mn108 2.162 . S
O123 C111 1.281 . S
O124 Mn108 2.297 . S
O124 C111 1.236 . S
N125 Mn109 2.282 . S
N125 C126 1.328 . S
N125 C130 1.318 . S
C126 N125 1.328 . S
C126 C127 1.457 . S
C126 H131 0.929 . S
C127 C126 1.457 . S
C127 C128 1.291 . S
C127 H140 0.931 . S
C128 C127 1.291 . S
C128 C129 1.373 . S
C128 H141 0.929 . S
C129 C128 1.373 . S
C129 C130 1.396 . S
C129 C136 1.403 . S
C130 C120 1.476 . S
C130 N125 1.318 . S
C130 C129 1.396 . S
H131 C126 0.929 . S
O132 Mn108 2.385 . S
O132 C110 1.234 . S
O133 Mn108 2.209 . S
O133 Mn109 2.215 . S
O133 C110 1.283 . S
O134 Mn108 2.094 . S
O134 C112 1.240 . S
O135 Mn109 2.117 . S
O135 C112 1.264 . S
C136 C129 1.403 . S
C136 C137 1.399 . S
C136 H142 0.929 . S
C137 C117 1.449 . S
C137 C136 1.399 . S
C137 H143 0.930 . S
H138 C118 0.931 1_556 S
H139 C119 0.930 . S
H140 C127 0.931 . S
H141 C128 0.929 . S
H142 C136 0.929 . S
H143 C137 0.930 . S
Mn144 O149 2.095 . S
Mn144 O159 2.162 . S
Mn144 O160 2.297 . S
Mn144 O168 2.385 . S
Mn144 O169 2.209 . S
Mn144 O170 2.094 . S
Mn145 O150 2.121 . S
Mn145 N152 2.257 . S
Mn145 N161 2.282 . S
Mn145 O169 2.215 . S
Mn145 O171 2.117 . S
C146 O168 1.234 . S
C146 O169 1.283 . S
C147 O159 1.281 . S
C147 O160 1.236 . S
C148 O170 1.240 . S
C148 O171 1.264 . S
O149 Mn144 2.095 . S
O149 C158 1.250 . S
O150 Mn145 2.121 . S
O150 C158 1.258 . S
C151 N152 1.326 . S
C151 C155 1.460 . S
C151 H157 0.929 . S
N152 Mn145 2.257 . S
N152 C151 1.326 . S
N152 C156 1.362 . S
C153 C154 1.258 1_554 S
C153 C156 1.431 . S
C153 C173 1.449 . S
C154 C153 1.258 1_556 S
C154 C155 1.477 1_556 S
C154 H174 0.931 . S
C155 C151 1.460 . S
C155 C154 1.477 1_554 S
C155 H175 0.930 1_554 S
C156 N152 1.362 . S
C156 C153 1.431 . S
C156 C166 1.476 . S
H157 C151 0.929 . S
C158 O149 1.250 . S
C158 O150 1.258 . S
O159 Mn144 2.162 . S
O159 C147 1.281 . S
O160 Mn144 2.297 . S
O160 C147 1.236 . S
N161 Mn145 2.282 . S
N161 C162 1.328 . S
N161 C166 1.318 . S
C162 N161 1.328 . S
C162 C163 1.457 1_455 S
C162 H167 0.929 . S
C163 C162 1.457 1_655 S
C163 C164 1.291 . S
C163 H176 0.931 . S
C164 C163 1.291 . S
C164 C165 1.373 1_655 S
C164 H177 0.929 . S
C165 C164 1.373 1_455 S
C165 C166 1.396 . S
C165 C172 1.409 1_455 S
C166 C156 1.476 . S
C166 N161 1.318 . S
C166 C165 1.396 . S
H167 C162 0.929 . S
O168 Mn144 2.385 . S
O168 C146 1.234 . S
O169 Mn144 2.209 . S
O169 Mn145 2.215 . S
O169 C146 1.283 . S
O170 Mn144 2.094 . S
O170 C148 1.240 . S
O171 Mn145 2.117 . S
O171 C148 1.264 . S
C172 C165 1.409 1_655 S
C172 C173 1.384 1_655 S
C172 H178 0.940 . S
C173 C153 1.449 . S
C173 C172 1.384 1_455 S
C173 H179 0.930 1_554 S
H174 C154 0.931 . S
H175 C155 0.930 1_556 S
H176 C163 0.931 . S
H177 C164 0.929 . S
H178 C172 0.940 . S
H179 C173 0.930 1_556 S
Mn180 O185 2.095 . S
Mn180 O195 2.162 . S
Mn180 O196 2.297 . S
Mn180 O204 2.385 . S
Mn180 O205 2.209 . S
Mn180 O206 2.094 . S
Mn181 O186 2.121 . S
Mn181 N188 2.257 . S
Mn181 N197 2.282 . S
Mn181 O205 2.215 . S
Mn181 O207 2.117 . S
C182 O204 1.234 . S
C182 O205 1.283 . S
C183 O195 1.281 . S
C183 O196 1.236 . S
C184 O206 1.240 . S
C184 O207 1.264 . S
O185 Mn180 2.095 . S
O185 C194 1.250 . S
O186 Mn181 2.121 . S
O186 C194 1.258 . S
C187 N188 1.326 . S
C187 C191 1.460 . S
C187 H193 0.929 . S
N188 Mn181 2.257 . S
N188 C187 1.326 . S
N188 C192 1.362 . S
C189 C190 1.258 . S
C189 C192 1.431 . S
C189 C209 1.449 . S
C190 C189 1.258 . S
C190 C191 1.477 . S
C190 H210 0.931 . S
C191 C187 1.460 . S
C191 C190 1.477 . S
C191 H211 0.930 . S
C192 N188 1.362 . S
C192 C189 1.431 . S
C192 C202 1.476 . S
H193 C187 0.929 . S
C194 O185 1.250 . S
C194 O186 1.258 . S
O195 Mn180 2.162 . S
O195 C183 1.281 . S
O196 Mn180 2.297 . S
O196 C183 1.236 . S
N197 Mn181 2.282 . S
N197 C198 1.328 . S
N197 C202 1.318 . S
C198 N197 1.328 . S
C198 C199 1.457 . S
C198 H203 0.929 . S
C199 C198 1.457 . S
C199 C200 1.291 . S
C199 H212 0.931 . S
C200 C199 1.291 . S
C200 C201 1.373 . S
C200 H213 0.929 . S
C201 C200 1.373 . S
C201 C202 1.396 . S
C201 C208 1.403 . S
C202 C192 1.476 . S
C202 N197 1.318 . S
C202 C201 1.396 . S
H203 C198 0.929 . S
O204 Mn180 2.385 . S
O204 C182 1.234 . S
O205 Mn180 2.209 . S
O205 Mn181 2.215 . S
O205 C182 1.283 . S
O206 Mn180 2.094 . S
O206 C184 1.240 . S
O207 Mn181 2.117 . S
O207 C184 1.264 . S
C208 C201 1.403 . S
C208 C209 1.399 . S
C208 H214 0.929 . S
C209 C189 1.449 . S
C209 C208 1.399 . S
C209 H215 0.930 . S
H210 C190 0.931 . S
H211 C191 0.930 . S
H212 C199 0.931 . S
H213 C200 0.929 . S
H214 C208 0.929 . S
H215 C209 0.930 . S
Mn216 O221 2.095 . S
Mn216 O231 2.162 . S
Mn216 O232 2.297 . S
Mn216 O240 2.385 . S
Mn216 O241 2.209 . S
Mn216 O242 2.094 . S
Mn217 O222 2.121 . S
Mn217 N224 2.257 . S
Mn217 N233 2.282 . S
Mn217 O241 2.215 . S
Mn217 O243 2.117 . S
C218 O240 1.234 . S
C218 O241 1.283 . S
C219 O231 1.281 . S
C219 O232 1.236 . S
C220 O242 1.240 . S
C220 O243 1.264 . S
O221 Mn216 2.095 . S
O221 C230 1.250 . S
O222 Mn217 2.121 . S
O222 C230 1.258 . S
C223 N224 1.326 . S
C223 C227 1.460 . S
C223 H229 0.929 . S
N224 Mn217 2.257 . S
N224 C223 1.326 . S
N224 C228 1.362 . S
C225 C226 1.258 . S
C225 C228 1.431 . S
C225 C245 1.449 . S
C226 C225 1.258 . S
C226 C227 1.477 . S
C226 H246 0.931 . S
C227 C223 1.460 . S
C227 C226 1.477 . S
C227 H247 0.930 . S
C228 N224 1.362 . S
C228 C225 1.431 . S
C228 C238 1.476 . S
H229 C223 0.929 . S
C230 O221 1.250 . S
C230 O222 1.258 . S
O231 Mn216 2.162 . S
O231 C219 1.281 . S
O232 Mn216 2.297 . S
O232 C219 1.236 . S
N233 Mn217 2.282 . S
N233 C234 1.328 . S
N233 C238 1.318 . S
C234 N233 1.328 . S
C234 C235 1.457 . S
C234 H239 0.929 . S
C235 C234 1.457 . S
C235 C236 1.291 . S
C235 H248 0.931 . S
C236 C235 1.291 . S
C236 C237 1.373 . S
C236 H249 0.929 . S
C237 C236 1.373 . S
C237 C238 1.396 . S
C237 C244 1.403 . S
C238 C228 1.476 . S
C238 N233 1.318 . S
C238 C237 1.396 . S
H239 C234 0.929 . S
O240 Mn216 2.385 . S
O240 C218 1.234 . S
O241 Mn216 2.209 . S
O241 Mn217 2.215 . S
O241 C218 1.283 . S
O242 Mn216 2.094 . S
O242 C220 1.240 . S
O243 Mn217 2.117 . S
O243 C220 1.264 . S
C244 C237 1.403 . S
C244 C245 1.399 . S
C244 H250 0.929 . S
C245 C225 1.449 . S
C245 C244 1.399 . S
C245 H251 0.930 . S
H246 C226 0.931 . S
H247 C227 0.930 . S
H248 C235 0.931 . S
H249 C236 0.929 . S
H250 C244 0.929 . S
H251 C245 0.930 . S
Mn252 O257 2.095 . S
Mn252 O267 2.162 . S
Mn252 O268 2.297 . S
Mn252 O276 2.385 1_455 S
Mn252 O277 2.192 1_455 S
Mn252 O278 2.094 . S
Mn253 O258 2.121 . S
Mn253 N260 2.257 . S
Mn253 N269 2.282 1_455 S
Mn253 O277 2.202 1_455 S
Mn253 O279 2.117 . S
C254 O276 1.234 . S
C254 O277 1.321 . S
C255 O267 1.281 . S
C255 O268 1.236 . S
C256 O278 1.240 . S
C256 O279 1.264 . S
O257 Mn252 2.095 . S
O257 C266 1.250 . S
O258 Mn253 2.121 . S
O258 C266 1.258 . S
C259 N260 1.326 . S
C259 C263 1.460 . S
C259 H265 0.929 . S
N260 Mn253 2.257 . S
N260 C259 1.326 . S
N260 C264 1.362 1_455 S
C261 C262 1.258 . S
C261 C264 1.431 . S
C261 C281 1.449 . S
C262 C261 1.258 . S
C262 C263 1.477 1_655 S
C262 H282 0.931 . S
C263 C259 1.460 . S
C263 C262 1.477 1_455 S
C263 H283 0.930 . S
C264 N260 1.362 1_655 S
C264 C261 1.431 . S
C264 C274 1.476 . S
H265 C259 0.929 . S
C266 O257 1.250 . S
C266 O258 1.258 . S
O267 Mn252 2.162 . S
O267 C255 1.281 . S
O268 Mn252 2.297 . S
O268 C255 1.236 . S
N269 Mn253 2.282 1_655 S
N269 C270 1.328 . S
N269 C274 1.318 . S
C270 N269 1.328 . S
C270 C271 1.457 . S
C270 H275 0.929 . S
C271 C270 1.457 . S
C271 C272 1.291 . S
C271 H284 0.931 . S
C272 C271 1.291 . S
C272 C273 1.373 . S
C272 H285 0.929 . S
C273 C272 1.373 . S
C273 C274 1.396 . S
C273 C280 1.403 . S
C274 C264 1.476 . S
C274 N269 1.318 . S
C274 C273 1.396 . S
H275 C270 0.929 . S
O276 Mn252 2.385 1_655 S
O276 C254 1.234 . S
O277 Mn252 2.192 1_655 S
O277 Mn253 2.202 1_655 S
O277 C254 1.321 . S
O278 Mn252 2.094 . S
O278 C256 1.240 . S
O279 Mn253 2.117 . S
O279 C256 1.264 . S
C280 C273 1.403 . S
C280 C281 1.399 . S
C280 H286 0.929 . S
C281 C261 1.449 . S
C281 C280 1.399 . S
C281 H287 0.930 . S
H282 C262 0.931 . S
H283 C263 0.930 . S
H284 C271 0.931 . S
H285 C272 0.929 . S
H286 C280 0.929 . S
H287 C281 0.930 . S
Mn288 O293 2.095 . S
Mn288 O303 2.162 . S
Mn288 O304 2.297 . S
Mn288 O312 2.385 . S
Mn288 O313 2.209 . S
Mn288 O314 2.094 . S
Mn289 O294 2.121 . S
Mn289 N296 2.257 . S
Mn289 N305 2.282 . S
Mn289 O313 2.215 . S
Mn289 O315 2.117 . S
C290 O312 1.234 . S
C290 O313 1.283 . S
C291 O303 1.281 . S
C291 O304 1.236 . S
C292 O314 1.240 . S
C292 O315 1.264 . S
O293 Mn288 2.095 . S
O293 C302 1.250 . S
O294 Mn289 2.121 . S
O294 C302 1.258 . S
C295 N296 1.326 . S
C295 C299 1.460 . S
C295 H301 0.929 . S
N296 Mn289 2.257 . S
N296 C295 1.326 . S
N296 C300 1.362 . S
C297 C298 1.258 . S
C297 C300 1.431 . S
C297 C317 1.449 . S
C298 C297 1.258 . S
C298 C299 1.477 . S
C298 H318 0.931 . S
C299 C295 1.460 . S
C299 C298 1.477 . S
C299 H319 0.930 . S
C300 N296 1.362 . S
C300 C297 1.431 . S
C300 C310 1.476 . S
H301 C295 0.929 . S
C302 O293 1.250 . S
C302 O294 1.258 . S
O303 Mn288 2.162 . S
O303 C291 1.281 . S
O304 Mn288 2.297 . S
O304 C291 1.236 . S
N305 Mn289 2.282 . S
N305 C306 1.328 . S
N305 C310 1.318 . S
C306 N305 1.328 . S
C306 C307 1.457 . S
C306 H311 0.929 . S
C307 C306 1.457 . S
C307 C308 1.291 . S
C307 H320 0.931 . S
C308 C307 1.291 . S
C308 C309 1.373 . S
C308 H321 0.929 . S
C309 C308 1.373 . S
C309 C310 1.396 . S
C309 C316 1.403 . S
C310 C300 1.476 . S
C310 N305 1.318 . S
C310 C309 1.396 . S
H311 C306 0.929 . S
O312 Mn288 2.385 . S
O312 C290 1.234 . S
O313 Mn288 2.209 . S
O313 Mn289 2.215 . S
O313 C290 1.283 . S
O314 Mn288 2.094 . S
O314 C292 1.240 . S
O315 Mn289 2.117 . S
O315 C292 1.264 . S
C316 C309 1.403 . S
C316 C317 1.399 . S
C316 H322 0.929 . S
C317 C297 1.449 . S
C317 C316 1.399 . S
C317 H323 0.930 . S
H318 C298 0.931 . S
H319 C299 0.930 . S
H320 C307 0.931 . S
H321 C308 0.929 . S
H322 C316 0.929 . S
H323 C317 0.930 . S
Mn324 O329 2.095 . S
Mn324 O339 2.162 . S
Mn324 O340 2.297 . S
Mn324 O348 2.385 . S
Mn324 O349 2.209 . S
Mn324 O350 2.094 . S
Mn325 O330 2.121 . S
Mn325 N332 2.257 . S
Mn325 N341 2.282 . S
Mn325 O349 2.215 . S
Mn325 O351 2.117 . S
C326 O348 1.234 . S
C326 O349 1.283 . S
C327 O339 1.281 . S
C327 O340 1.236 . S
C328 O350 1.240 . S
C328 O351 1.264 . S
O329 Mn324 2.095 . S
O329 C338 1.250 . S
O330 Mn325 2.121 . S
O330 C338 1.258 . S
C331 N332 1.326 . S
C331 C335 1.460 . S
C331 H337 0.929 . S
N332 Mn325 2.257 . S
N332 C331 1.326 . S
N332 C336 1.362 . S
C333 C334 1.258 . S
C333 C336 1.431 . S
C333 C353 1.449 . S
C334 C333 1.258 . S
C334 C335 1.477 . S
C334 H354 0.931 . S
C335 C331 1.460 . S
C335 C334 1.477 . S
C335 H355 0.930 . S
C336 N332 1.362 . S
C336 C333 1.431 . S
C336 C346 1.476 . S
H337 C331 0.929 . S
C338 O329 1.250 . S
C338 O330 1.258 . S
O339 Mn324 2.162 . S
O339 C327 1.281 . S
O340 Mn324 2.297 . S
O340 C327 1.236 . S
N341 Mn325 2.282 . S
N341 C342 1.328 . S
N341 C346 1.318 . S
C342 N341 1.328 . S
C342 C343 1.457 . S
C342 H347 0.929 . S
C343 C342 1.457 . S
C343 C344 1.291 . S
C343 H356 0.931 . S
C344 C343 1.291 . S
C344 C345 1.373 . S
C344 H357 0.929 . S
C345 C344 1.373 . S
C345 C346 1.396 . S
C345 C352 1.403 . S
C346 C336 1.476 . S
C346 N341 1.318 . S
C346 C345 1.396 . S
H347 C342 0.929 . S
O348 Mn324 2.385 . S
O348 C326 1.234 . S
O349 Mn324 2.209 . S
O349 Mn325 2.215 . S
O349 C326 1.283 . S
O350 Mn324 2.094 . S
O350 C328 1.240 . S
O351 Mn325 2.117 . S
O351 C328 1.264 . S
C352 C345 1.403 . S
C352 C353 1.399 . S
C352 H358 0.929 . S
C353 C333 1.449 . S
C353 C352 1.399 . S
C353 H359 0.930 . S
H354 C334 0.931 . S
H355 C335 0.930 . S
H356 C343 0.931 . S
H357 C344 0.929 . S
H358 C352 0.929 . S
H359 C353 0.930 . S
Mn360 O365 2.095 . S
Mn360 O375 2.162 . S
Mn360 O376 2.297 . S
Mn360 O384 2.385 . S
Mn360 O385 2.209 . S
Mn360 O386 2.094 . S
Mn361 O366 2.121 . S
Mn361 N368 2.257 . S
Mn361 N377 2.282 . S
Mn361 O385 2.215 . S
Mn361 O387 2.117 . S
C362 O384 1.234 . S
C362 O385 1.283 . S
C363 O375 1.281 . S
C363 O376 1.236 . S
C364 O386 1.240 . S
C364 O387 1.264 . S
O365 Mn360 2.095 . S
O365 C374 1.250 . S
O366 Mn361 2.121 . S
O366 C374 1.258 . S
C367 N368 1.326 . S
C367 C371 1.460 . S
C367 H373 0.929 . S
N368 Mn361 2.257 . S
N368 C367 1.326 . S
N368 C372 1.362 . S
C369 C370 1.258 . S
C369 C372 1.431 . S
C369 C389 1.449 . S
C370 C369 1.258 . S
C370 C371 1.477 . S
C370 H390 0.931 . S
C371 C367 1.460 . S
C371 C370 1.477 . S
C371 H391 0.930 . S
C372 N368 1.362 . S
C372 C369 1.431 . S
C372 C382 1.476 . S
H373 C367 0.929 . S
C374 O365 1.250 . S
C374 O366 1.258 . S
O375 Mn360 2.162 . S
O375 C363 1.281 . S
O376 Mn360 2.297 . S
O376 C363 1.236 . S
N377 Mn361 2.282 . S
N377 C378 1.328 . S
N377 C382 1.318 . S
C378 N377 1.328 . S
C378 C379 1.457 . S
C378 H383 0.929 . S
C379 C378 1.457 . S
C379 C380 1.291 . S
C379 H392 0.931 . S
C380 C379 1.291 . S
C380 C381 1.373 . S
C380 H393 0.929 . S
C381 C380 1.373 . S
C381 C382 1.396 . S
C381 C388 1.403 . S
C382 C372 1.476 . S
C382 N377 1.318 . S
C382 C381 1.396 . S
H383 C378 0.929 . S
O384 Mn360 2.385 . S
O384 C362 1.234 . S
O385 Mn360 2.209 . S
O385 Mn361 2.215 . S
O385 C362 1.283 . S
O386 Mn360 2.094 . S
O386 C364 1.240 . S
O387 Mn361 2.117 . S
O387 C364 1.264 . S
C388 C381 1.403 . S
C388 C389 1.399 . S
C388 H394 0.929 . S
C389 C369 1.449 . S
C389 C388 1.399 . S
C389 H395 0.930 . S
H390 C370 0.931 . S
H391 C371 0.930 . S
H392 C379 0.931 . S
H393 C380 0.929 . S
H394 C388 0.929 . S
H395 C389 0.930 . S
Mn396 O401 2.095 . S
Mn396 O411 2.162 . S
Mn396 O412 2.297 . S
Mn396 O420 2.385 . S
Mn396 O421 2.209 . S
Mn396 O422 2.094 . S
Mn397 O402 2.121 . S
Mn397 N404 2.257 1_565 S
Mn397 N413 2.285 . S
Mn397 O421 2.215 . S
Mn397 O423 2.117 1_554 S
C398 O420 1.234 . S
C398 O421 1.283 . S
C399 O411 1.281 . S
C399 O412 1.236 . S
C400 O422 1.240 1_556 S
C400 O423 1.264 . S
O401 Mn396 2.095 . S
O401 C410 1.250 . S
O402 Mn397 2.121 . S
O402 C410 1.258 . S
C403 N404 1.326 . S
C403 C407 1.460 . S
C403 H409 0.929 . S
N404 Mn397 2.257 1_545 S
N404 C403 1.326 . S
N404 C408 1.362 . S
C405 C406 1.258 . S
C405 C408 1.431 . S
C405 C425 1.449 . S
C406 C405 1.258 . S
C406 C407 1.477 . S
C406 H426 0.931 . S
C407 C403 1.460 . S
C407 C406 1.477 . S
C407 H427 0.930 . S
C408 N404 1.362 . S
C408 C405 1.431 . S
C408 C418 1.476 . S
H409 C403 0.929 . S
C410 O401 1.250 . S
C410 O402 1.258 . S
O411 Mn396 2.162 . S
O411 C399 1.281 . S
O412 Mn396 2.297 . S
O412 C399 1.236 . S
N413 Mn397 2.285 . S
N413 C414 1.325 1_554 S
N413 C418 1.318 1_565 S
C414 N413 1.325 1_556 S
C414 C415 1.457 . S
C414 H419 0.929 . S
C415 C414 1.457 . S
C415 C416 1.291 1_565 S
C415 H428 0.931 . S
C416 C415 1.291 1_545 S
C416 C417 1.373 . S
C416 H429 0.929 . S
C417 C416 1.373 . S
C417 C418 1.396 1_556 S
C417 C424 1.403 1_556 S
C418 C408 1.476 . S
C418 N413 1.318 1_545 S
C418 C417 1.396 1_554 S
H419 C414 0.929 . S
O420 Mn396 2.385 . S
O420 C398 1.234 . S
O421 Mn396 2.209 . S
O421 Mn397 2.215 . S
O421 C398 1.283 . S
O422 Mn396 2.094 . S
O422 C400 1.240 1_554 S
O423 Mn397 2.117 1_556 S
O423 C400 1.264 . S
C424 C417 1.403 1_554 S
C424 C425 1.399 . S
C424 H430 0.929 1_554 S
C425 C405 1.449 . S
C425 C424 1.399 . S
C425 H431 0.930 . S
H426 C406 0.931 . S
H427 C407 0.930 . S
H428 C415 0.931 . S
H429 C416 0.929 . S
H430 C424 0.929 1_556 S
H431 C425 0.930 . S
Mn432 O437 2.095 . S
Mn432 O447 2.162 . S
Mn432 O448 2.297 . S
Mn432 O456 2.385 . S
Mn432 O457 2.209 . S
Mn432 O458 2.094 1_554 S
Mn433 O438 2.121 1_556 S
Mn433 N440 2.257 1_556 S
Mn433 N449 2.282 . S
Mn433 O457 2.215 1_556 S
Mn433 O459 2.117 . S
C434 O456 1.234 . S
C434 O457 1.283 . S
C435 O447 1.281 . S
C435 O448 1.236 . S
C436 O458 1.240 . S
C436 O459 1.264 . S
O437 Mn432 2.095 . S
O437 C446 1.250 . S
O438 Mn433 2.121 1_554 S
O438 C446 1.258 . S
C439 N440 1.326 . S
C439 C443 1.460 . S
C439 H445 0.929 . S
N440 Mn433 2.257 1_554 S
N440 C439 1.326 . S
N440 C444 1.362 1_554 S
C441 C442 1.258 . S
C441 C444 1.431 1_554 S
C441 C461 1.449 1_554 S
C442 C441 1.258 . S
C442 C443 1.477 . S
C442 H462 0.931 . S
C443 C439 1.460 . S
C443 C442 1.477 . S
C443 H463 0.930 . S
C444 N440 1.362 1_556 S
C444 C441 1.431 1_556 S
C444 C454 1.476 . S
H445 C439 0.929 . S
C446 O437 1.250 . S
C446 O438 1.258 . S
O447 Mn432 2.162 . S
O447 C435 1.281 . S
O448 Mn432 2.297 . S
O448 C435 1.236 . S
N449 Mn433 2.282 . S
N449 C450 1.328 . S
N449 C454 1.318 . S
C450 N449 1.328 . S
C450 C451 1.457 . S
C450 H455 0.929 . S
C451 C450 1.457 . S
C451 C452 1.291 . S
C451 H464 0.931 . S
C452 C451 1.291 . S
C452 C453 1.373 . S
C452 H465 0.929 . S
C453 C452 1.373 . S
C453 C454 1.396 . S
C453 C460 1.403 . S
C454 C444 1.476 . S
C454 N449 1.318 . S
C454 C453 1.396 . S
H455 C450 0.929 . S
O456 Mn432 2.385 . S
O456 C434 1.234 . S
O457 Mn432 2.209 . S
O457 Mn433 2.215 1_554 S
O457 C434 1.283 . S
O458 Mn432 2.094 1_556 S
O458 C436 1.240 . S
O459 Mn433 2.117 . S
O459 C436 1.264 . S
C460 C453 1.403 . S
C460 C461 1.399 . S
C460 H466 0.929 . S
C461 C441 1.449 1_556 S
C461 C460 1.399 . S
C461 H467 0.930 . S
H462 C442 0.931 . S
H463 C443 0.930 . S
H464 C451 0.931 . S
H465 C452 0.929 . S
H466 C460 0.929 . S
H467 C461 0.930 . S
Mn468 O473 2.095 1_554 S
Mn468 O483 2.162 . S
Mn468 O484 2.297 . S
Mn468 O492 2.383 . S
Mn468 O493 2.209 1_554 S
Mn468 O494 2.094 1_554 S
Mn469 O474 2.121 . S
Mn469 N476 2.257 . S
Mn469 N485 2.282 . S
Mn469 O493 2.215 . S
Mn469 O495 2.117 . S
C470 O492 1.232 1_556 S
C470 O493 1.283 . S
C471 O483 1.281 . S
C471 O484 1.236 . S
C472 O494 1.240 . S
C472 O495 1.264 . S
O473 Mn468 2.095 1_556 S
O473 C482 1.250 . S
O474 Mn469 2.121 . S
O474 C482 1.258 . S
C475 N476 1.326 . S
C475 C479 1.460 . S
C475 H481 0.929 . S
N476 Mn469 2.257 . S
N476 C475 1.326 . S
N476 C480 1.362 . S
C477 C478 1.258 . S
C477 C480 1.431 . S
C477 C497 1.449 . S
C478 C477 1.258 . S
C478 C479 1.477 . S
C478 H498 0.931 . S
C479 C475 1.460 . S
C479 C478 1.477 . S
C479 H499 0.930 . S
C480 N476 1.362 . S
C480 C477 1.431 . S
C480 C490 1.476 . S
H481 C475 0.929 . S
C482 O473 1.250 . S
C482 O474 1.258 . S
O483 Mn468 2.162 . S
O483 C471 1.281 . S
O484 Mn468 2.297 . S
O484 C471 1.236 . S
N485 Mn469 2.282 . S
N485 C486 1.328 . S
N485 C490 1.318 . S
C486 N485 1.328 . S
C486 C487 1.457 . S
C486 H491 0.929 . S
C487 C486 1.457 . S
C487 C488 1.291 . S
C487 H500 0.931 . S
C488 C487 1.291 . S
C488 C489 1.373 . S
C488 H501 0.929 . S
C489 C488 1.373 . S
C489 C490 1.396 . S
C489 C496 1.403 . S
C490 C480 1.476 . S
C490 N485 1.318 . S
C490 C489 1.396 . S
H491 C486 0.929 . S
O492 Mn468 2.383 . S
O492 C470 1.232 1_554 S
O493 Mn468 2.209 1_556 S
O493 Mn469 2.215 . S
O493 C470 1.283 . S
O494 Mn468 2.094 1_556 S
O494 C472 1.240 . S
O495 Mn469 2.117 . S
O495 C472 1.264 . S
C496 C489 1.403 . S
C496 C497 1.399 . S
C496 H502 0.929 . S
C497 C477 1.449 . S
C497 C496 1.399 . S
C497 H503 0.930 . S
H498 C478 0.931 . S
H499 C479 0.930 . S
H500 C487 0.931 . S
H501 C488 0.929 . S
H502 C496 0.929 . S
H503 C497 0.930 . S
Mn504 O509 2.095 . S
Mn504 O519 2.162 . S
Mn504 O520 2.297 . S
Mn504 O528 2.385 . S
Mn504 O529 2.209 . S
Mn504 O530 2.094 . S
Mn505 O510 2.121 . S
Mn505 N512 2.257 . S
Mn505 N521 2.282 . S
Mn505 O529 2.215 . S
Mn505 O531 2.117 . S
C506 O528 1.234 . S
C506 O529 1.283 . S
C507 O519 1.281 . S
C507 O520 1.236 . S
C508 O530 1.240 . S
C508 O531 1.264 . S
O509 Mn504 2.095 . S
O509 C518 1.250 . S
O510 Mn505 2.121 . S
O510 C518 1.258 . S
C511 N512 1.326 . S
C511 C515 1.460 . S
C511 H517 0.929 . S
N512 Mn505 2.257 . S
N512 C511 1.326 . S
N512 C516 1.362 . S
C513 C514 1.258 . S
C513 C516 1.431 . S
C513 C533 1.449 . S
C514 C513 1.258 . S
C514 C515 1.477 . S
C514 H534 0.931 . S
C515 C511 1.460 . S
C515 C514 1.477 . S
C515 H535 0.930 . S
C516 N512 1.362 . S
C516 C513 1.431 . S
C516 C526 1.476 . S
H517 C511 0.929 . S
C518 O509 1.250 . S
C518 O510 1.258 . S
O519 Mn504 2.162 . S
O519 C507 1.281 . S
O520 Mn504 2.297 . S
O520 C507 1.236 . S
N521 Mn505 2.282 . S
N521 C522 1.328 . S
N521 C526 1.318 . S
C522 N521 1.328 . S
C522 C523 1.457 . S
C522 H527 0.929 . S
C523 C522 1.457 . S
C523 C524 1.291 . S
C523 H536 0.931 . S
C524 C523 1.291 . S
C524 C525 1.373 . S
C524 H537 0.929 . S
C525 C524 1.373 . S
C525 C526 1.396 . S
C525 C532 1.403 . S
C526 C516 1.476 . S
C526 N521 1.318 . S
C526 C525 1.396 . S
H527 C522 0.929 . S
O528 Mn504 2.385 . S
O528 C506 1.234 . S
O529 Mn504 2.209 . S
O529 Mn505 2.215 . S
O529 C506 1.283 . S
O530 Mn504 2.094 . S
O530 C508 1.240 . S
O531 Mn505 2.117 . S
O531 C508 1.264 . S
C532 C525 1.403 . S
C532 C533 1.399 . S
C532 H538 0.929 . S
C533 C513 1.449 . S
C533 C532 1.399 . S
C533 H539 0.930 . S
H534 C514 0.931 . S
H535 C515 0.930 . S
H536 C523 0.931 . S
H537 C524 0.929 . S
H538 C532 0.929 . S
H539 C533 0.930 . S
Mn540 O545 2.095 . S
Mn540 O555 2.162 . S
Mn540 O556 2.297 . S
Mn540 O564 2.385 . S
Mn540 O565 2.209 . S
Mn540 O566 2.094 . S
Mn541 O546 2.121 . S
Mn541 N548 2.257 1_565 S
Mn541 N557 2.282 . S
Mn541 O565 2.215 . S
Mn541 O567 2.117 . S
C542 O564 1.234 . S
C542 O565 1.283 . S
C543 O555 1.281 . S
C543 O556 1.236 . S
C544 O566 1.240 . S
C544 O567 1.264 . S
O545 Mn540 2.095 . S
O545 C554 1.250 . S
O546 Mn541 2.121 . S
O546 C554 1.258 . S
C547 N548 1.326 . S
C547 C551 1.460 . S
C547 H553 0.929 . S
N548 Mn541 2.257 1_545 S
N548 C547 1.326 . S
N548 C552 1.362 . S
C549 C550 1.258 . S
C549 C552 1.431 . S
C549 C569 1.449 . S
C550 C549 1.258 . S
C550 C551 1.477 . S
C550 H570 0.931 . S
C551 C547 1.460 . S
C551 C550 1.477 . S
C551 H571 0.930 . S
C552 N548 1.362 . S
C552 C549 1.431 . S
C552 C562 1.476 . S
H553 C547 0.929 . S
C554 O545 1.250 . S
C554 O546 1.258 . S
O555 Mn540 2.162 . S
O555 C543 1.281 . S
O556 Mn540 2.297 . S
O556 C543 1.236 . S
N557 Mn541 2.282 . S
N557 C558 1.328 . S
N557 C562 1.318 1_565 S
C558 N557 1.328 . S
C558 C559 1.457 . S
C558 H563 0.929 . S
C559 C558 1.457 . S
C559 C560 1.291 . S
C559 H572 0.931 . S
C560 C559 1.291 . S
C560 C561 1.373 1_565 S
C560 H573 0.929 1_565 S
C561 C560 1.373 1_545 S
C561 C562 1.396 . S
C561 C568 1.403 . S
C562 C552 1.476 . S
C562 N557 1.318 1_545 S
C562 C561 1.396 . S
H563 C558 0.929 . S
O564 Mn540 2.385 . S
O564 C542 1.234 . S
O565 Mn540 2.209 . S
O565 Mn541 2.215 . S
O565 C542 1.283 . S
O566 Mn540 2.094 . S
O566 C544 1.240 . S
O567 Mn541 2.117 . S
O567 C544 1.264 . S
C568 C561 1.403 . S
C568 C569 1.399 . S
C568 H574 0.929 . S
C569 C549 1.449 . S
C569 C568 1.399 . S
C569 H575 0.930 . S
H570 C550 0.931 . S
H571 C551 0.930 . S
H572 C559 0.931 . S
H573 C560 0.929 1_545 S
H574 C568 0.929 . S
H575 C569 0.930 . S
Mn576 O581 2.095 . S
Mn576 O591 2.162 . S
Mn576 O592 2.297 . S
Mn576 O600 2.385 1_545 S
Mn576 O601 2.209 . S
Mn576 O602 2.094 . S
Mn577 O582 2.121 . S
Mn577 N584 2.257 . S
Mn577 N593 2.282 1_545 S
Mn577 O601 2.215 . S
Mn577 O603 2.117 . S
C578 O600 1.234 . S
C578 O601 1.283 1_565 S
C579 O591 1.281 . S
C579 O592 1.236 . S
C580 O602 1.240 . S
C580 O603 1.264 . S
O581 Mn576 2.095 . S
O581 C590 1.250 . S
O582 Mn577 2.121 . S
O582 C590 1.258 . S
C583 N584 1.326 . S
C583 C587 1.460 . S
C583 H589 0.929 . S
N584 Mn577 2.257 . S
N584 C583 1.326 . S
N584 C588 1.362 1_545 S
C585 C586 1.258 . S
C585 C588 1.431 . S
C585 C605 1.449 . S
C586 C585 1.258 . S
C586 C587 1.477 1_565 S
C586 H606 0.931 . S
C587 C583 1.460 . S
C587 C586 1.477 1_545 S
C587 H607 0.930 . S
C588 N584 1.362 1_565 S
C588 C585 1.431 . S
C588 C598 1.476 . S
H589 C583 0.929 . S
C590 O581 1.250 . S
C590 O582 1.258 . S
O591 Mn576 2.162 . S
O591 C579 1.281 . S
O592 Mn576 2.297 . S
O592 C579 1.236 . S
N593 Mn577 2.282 1_565 S
N593 C594 1.328 . S
N593 C598 1.318 . S
C594 N593 1.328 . S
C594 C595 1.457 . S
C594 H599 0.929 . S
C595 C594 1.457 . S
C595 C596 1.291 . S
C595 H608 0.931 . S
C596 C595 1.291 . S
C596 C597 1.373 . S
C596 H609 0.929 . S
C597 C596 1.373 . S
C597 C598 1.396 . S
C597 C604 1.403 . S
C598 C588 1.476 . S
C598 N593 1.318 . S
C598 C597 1.396 . S
H599 C594 0.929 . S
O600 Mn576 2.385 1_565 S
O600 C578 1.234 . S
O601 Mn576 2.209 . S
O601 Mn577 2.215 . S
O601 C578 1.283 1_545 S
O602 Mn576 2.094 . S
O602 C580 1.240 . S
O603 Mn577 2.117 . S
O603 C580 1.264 . S
C604 C597 1.403 . S
C604 C605 1.399 . S
C604 H610 0.929 . S
C605 C585 1.449 . S
C605 C604 1.399 . S
C605 H611 0.930 . S
H606 C586 0.931 . S
H607 C587 0.930 . S
H608 C595 0.931 . S
H609 C596 0.929 . S
H610 C604 0.929 . S
H611 C605 0.930 . S
Mn612 O617 2.095 . S
Mn612 O627 2.162 . S
Mn612 O628 2.297 . S
Mn612 O636 2.385 . S
Mn612 O637 2.209 . S
Mn612 O638 2.094 . S
Mn613 O618 2.121 . S
Mn613 N620 2.257 . S
Mn613 N629 2.282 . S
Mn613 O637 2.215 . S
Mn613 O639 2.117 . S
C614 O636 1.234 . S
C614 O637 1.283 . S
C615 O627 1.281 . S
C615 O628 1.236 . S
C616 O638 1.240 . S
C616 O639 1.264 . S
O617 Mn612 2.095 . S
O617 C626 1.250 . S
O618 Mn613 2.121 . S
O618 C626 1.258 . S
C619 N620 1.326 . S
C619 C623 1.460 . S
C619 H625 0.929 . S
N620 Mn613 2.257 . S
N620 C619 1.326 . S
N620 C624 1.362 . S
C621 C622 1.258 . S
C621 C624 1.431 . S
C621 C641 1.449 . S
C622 C621 1.258 . S
C622 C623 1.477 . S
C622 H642 0.931 . S
C623 C619 1.460 . S
C623 C622 1.477 . S
C623 H643 0.930 . S
C624 N620 1.362 . S
C624 C621 1.431 . S
C624 C634 1.476 . S
H625 C619 0.929 . S
C626 O617 1.250 . S
C626 O618 1.258 . S
O627 Mn612 2.162 . S
O627 C615 1.281 . S
O628 Mn612 2.297 . S
O628 C615 1.236 . S
N629 Mn613 2.282 . S
N629 C630 1.328 . S
N629 C634 1.318 . S
C630 N629 1.328 . S
C630 C631 1.457 . S
C630 H635 0.929 . S
C631 C630 1.457 . S
C631 C632 1.291 . S
C631 H644 0.931 . S
C632 C631 1.291 . S
C632 C633 1.373 . S
C632 H645 0.929 . S
C633 C632 1.373 . S
C633 C634 1.396 . S
C633 C640 1.403 . S
C634 C624 1.476 . S
C634 N629 1.318 . S
C634 C633 1.396 . S
H635 C630 0.929 . S
O636 Mn612 2.385 . S
O636 C614 1.234 . S
O637 Mn612 2.209 . S
O637 Mn613 2.215 . S
O637 C614 1.283 . S
O638 Mn612 2.094 . S
O638 C616 1.240 . S
O639 Mn613 2.117 . S
O639 C616 1.264 . S
C640 C633 1.403 . S
C640 C641 1.399 . S
C640 H646 0.929 . S
C641 C621 1.449 . S
C641 C640 1.399 . S
C641 H647 0.930 . S
H642 C622 0.931 . S
H643 C623 0.930 . S
H644 C631 0.931 . S
H645 C632 0.929 . S
H646 C640 0.929 . S
H647 C641 0.930 . S
Mn648 O653 2.095 . S
Mn648 O663 2.162 . S
Mn648 O664 2.297 . S
Mn648 O672 2.385 . S
Mn648 O673 2.209 . S
Mn648 O674 2.094 . S
Mn649 O654 2.121 . S
Mn649 N656 2.257 . S
Mn649 N665 2.282 . S
Mn649 O673 2.215 . S
Mn649 O675 2.117 . S
C650 O672 1.234 . S
C650 O673 1.283 . S
C651 O663 1.281 . S
C651 O664 1.236 . S
C652 O674 1.240 . S
C652 O675 1.264 . S
O653 Mn648 2.095 . S
O653 C662 1.250 . S
O654 Mn649 2.121 . S
O654 C662 1.258 . S
C655 N656 1.326 . S
C655 C659 1.460 . S
C655 H661 0.929 . S
N656 Mn649 2.257 . S
N656 C655 1.326 . S
N656 C660 1.362 . S
C657 C658 1.258 . S
C657 C660 1.431 . S
C657 C677 1.449 . S
C658 C657 1.258 . S
C658 C659 1.477 . S
C658 H678 0.931 . S
C659 C655 1.460 . S
C659 C658 1.477 . S
C659 H679 0.930 . S
C660 N656 1.362 . S
C660 C657 1.431 . S
C660 C670 1.476 . S
H661 C655 0.929 . S
C662 O653 1.250 . S
C662 O654 1.258 . S
O663 Mn648 2.162 . S
O663 C651 1.281 . S
O664 Mn648 2.297 . S
O664 C651 1.236 . S
N665 Mn649 2.282 . S
N665 C666 1.328 . S
N665 C670 1.318 . S
C666 N665 1.328 . S
C666 C667 1.457 . S
C666 H671 0.929 . S
C667 C666 1.457 . S
C667 C668 1.291 . S
C667 H680 0.931 . S
C668 C667 1.291 . S
C668 C669 1.373 . S
C668 H681 0.929 . S
C669 C668 1.373 . S
C669 C670 1.396 . S
C669 C676 1.403 . S
C670 C660 1.476 . S
C670 N665 1.318 . S
C670 C669 1.396 . S
H671 C666 0.929 . S
O672 Mn648 2.385 . S
O672 C650 1.234 . S
O673 Mn648 2.209 . S
O673 Mn649 2.215 . S
O673 C650 1.283 . S
O674 Mn648 2.094 . S
O674 C652 1.240 . S
O675 Mn649 2.117 . S
O675 C652 1.264 . S
C676 C669 1.403 . S
C676 C677 1.399 . S
C676 H682 0.929 . S
C677 C657 1.449 . S
C677 C676 1.399 . S
C677 H683 0.930 . S
H678 C658 0.931 . S
H679 C659 0.930 . S
H680 C667 0.931 . S
H681 C668 0.929 . S
H682 C676 0.929 . S
H683 C677 0.930 . S
Mn684 O689 2.093 . S
Mn684 O699 2.162 . S
Mn684 O700 2.297 . S
Mn684 O708 2.388 1_565 S
Mn684 O709 2.209 1_565 S
Mn684 O710 2.094 . S
Mn685 O690 2.121 1_545 S
Mn685 N692 2.257 . S
Mn685 N701 2.282 . S
Mn685 O709 2.215 . S
Mn685 O711 2.117 . S
C686 O708 1.234 . S
C686 O709 1.283 . S
C687 O699 1.281 . S
C687 O700 1.236 . S
C688 O710 1.240 1_545 S
C688 O711 1.264 . S
O689 Mn684 2.093 . S
O689 C698 1.250 . S
O690 Mn685 2.121 1_565 S
O690 C698 1.258 . S
C691 N692 1.326 . S
C691 C695 1.460 . S
C691 H697 0.929 1_545 S
N692 Mn685 2.257 . S
N692 C691 1.326 . S
N692 C696 1.362 . S
C693 C694 1.258 . S
C693 C696 1.431 . S
C693 C713 1.449 . S
C694 C693 1.258 . S
C694 C695 1.477 . S
C694 H714 0.931 . S
C695 C691 1.460 . S
C695 C694 1.477 . S
C695 H715 0.930 . S
C696 N692 1.362 . S
C696 C693 1.431 . S
C696 C706 1.476 . S
H697 C691 0.929 1_565 S
C698 O689 1.250 . S
C698 O690 1.258 . S
O699 Mn684 2.162 . S
O699 C687 1.281 . S
O700 Mn684 2.297 . S
O700 C687 1.236 . S
N701 Mn685 2.282 . S
N701 C702 1.328 . S
N701 C706 1.318 . S
C702 N701 1.328 . S
C702 C703 1.457 . S
C702 H707 0.929 . S
C703 C702 1.457 . S
C703 C704 1.291 . S
C703 H716 0.931 . S
C704 C703 1.291 . S
C704 C705 1.373 . S
C704 H717 0.929 . S
C705 C704 1.373 . S
C705 C706 1.396 . S
C705 C712 1.403 . S
C706 C696 1.476 . S
C706 N701 1.318 . S
C706 C705 1.396 . S
H707 C702 0.929 . S
O708 Mn684 2.388 1_545 S
O708 C686 1.234 . S
O709 Mn684 2.209 1_545 S
O709 Mn685 2.215 . S
O709 C686 1.283 . S
O710 Mn684 2.094 . S
O710 C688 1.240 1_565 S
O711 Mn685 2.117 . S
O711 C688 1.264 . S
C712 C705 1.403 . S
C712 C713 1.399 . S
C712 H718 0.929 . S
C713 C693 1.449 . S
C713 C712 1.399 . S
C713 H719 0.930 . S
H714 C694 0.931 . S
H715 C695 0.930 . S
H716 C703 0.931 . S
H717 C704 0.929 . S
H718 C712 0.929 . S
H719 C713 0.930 . S
Mn720 O725 2.095 . S
Mn720 O735 2.162 . S
Mn720 O736 2.297 . S
Mn720 O744 2.385 . S
Mn720 O745 2.209 . S
Mn720 O746 2.094 1_554 S
Mn721 O726 2.121 . S
Mn721 N728 2.257 . S
Mn721 N737 2.282 . S
Mn721 O745 2.215 1_556 S
Mn721 O747 2.117 . S
C722 O744 1.234 . S
C722 O745 1.283 . S
C723 O735 1.281 . S
C723 O736 1.236 . S
C724 O746 1.240 . S
C724 O747 1.264 . S
O725 Mn720 2.095 . S
O725 C734 1.250 . S
O726 Mn721 2.121 . S
O726 C734 1.258 1_556 S
C727 N728 1.326 . S
C727 C731 1.460 . S
C727 H733 0.929 . S
N728 Mn721 2.257 . S
N728 C727 1.326 . S
N728 C732 1.362 . S
C729 C730 1.258 . S
C729 C732 1.431 . S
C729 C749 1.449 . S
C730 C729 1.258 . S
C730 C731 1.477 . S
C730 H750 0.931 . S
C731 C727 1.460 . S
C731 C730 1.477 . S
C731 H751 0.930 . S
C732 N728 1.362 . S
C732 C729 1.431 . S
C732 C742 1.476 . S
H733 C727 0.929 . S
C734 O725 1.250 . S
C734 O726 1.258 1_554 S
O735 Mn720 2.162 . S
O735 C723 1.281 . S
O736 Mn720 2.297 . S
O736 C723 1.236 . S
N737 Mn721 2.282 . S
N737 C738 1.328 . S
N737 C742 1.318 . S
C738 N737 1.328 . S
C738 C739 1.457 . S
C738 H743 0.929 . S
C739 C738 1.457 . S
C739 C740 1.291 . S
C739 H752 0.931 . S
C740 C739 1.291 . S
C740 C741 1.373 . S
C740 H753 0.929 . S
C741 C740 1.373 . S
C741 C742 1.396 . S
C741 C748 1.403 . S
C742 C732 1.476 . S
C742 N737 1.318 . S
C742 C741 1.396 . S
H743 C738 0.929 . S
O744 Mn720 2.385 . S
O744 C722 1.234 . S
O745 Mn720 2.209 . S
O745 Mn721 2.215 1_554 S
O745 C722 1.283 . S
O746 Mn720 2.094 1_556 S
O746 C724 1.240 . S
O747 Mn721 2.117 . S
O747 C724 1.264 . S
C748 C741 1.403 . S
C748 C749 1.399 . S
C748 H754 0.929 . S
C749 C729 1.449 . S
C749 C748 1.399 . S
C749 H755 0.930 . S
H750 C730 0.931 . S
H751 C731 0.930 . S
H752 C739 0.931 . S
H753 C740 0.929 . S
H754 C748 0.929 . S
H755 C749 0.930 . S
Mn756 O761 2.095 . S
Mn756 O771 2.162 . S
Mn756 O772 2.297 . S
Mn756 O780 2.385 . S
Mn756 O781 2.209 . S
Mn756 O782 2.094 . S
Mn757 O762 2.121 . S
Mn757 N764 2.257 . S
Mn757 N773 2.282 . S
Mn757 O781 2.215 . S
Mn757 O783 2.117 . S
C758 O780 1.234 . S
C758 O781 1.283 . S
C759 O771 1.281 . S
C759 O772 1.236 . S
C760 O782 1.240 . S
C760 O783 1.264 . S
O761 Mn756 2.095 . S
O761 C770 1.250 . S
O762 Mn757 2.121 . S
O762 C770 1.258 . S
C763 N764 1.326 . S
C763 C767 1.460 . S
C763 H769 0.929 . S
N764 Mn757 2.257 . S
N764 C763 1.326 . S
N764 C768 1.362 . S
C765 C766 1.258 . S
C765 C768 1.431 . S
C765 C785 1.449 . S
C766 C765 1.258 . S
C766 C767 1.477 . S
C766 H786 0.931 . S
C767 C763 1.460 . S
C767 C766 1.477 . S
C767 H787 0.930 . S
C768 N764 1.362 . S
C768 C765 1.431 . S
C768 C778 1.476 . S
H769 C763 0.929 . S
C770 O761 1.250 . S
C770 O762 1.258 . S
O771 Mn756 2.162 . S
O771 C759 1.281 . S
O772 Mn756 2.297 . S
O772 C759 1.236 . S
N773 Mn757 2.282 . S
N773 C774 1.328 . S
N773 C778 1.318 . S
C774 N773 1.328 . S
C774 C775 1.457 . S
C774 H779 0.929 . S
C775 C774 1.457 . S
C775 C776 1.291 . S
C775 H788 0.931 . S
C776 C775 1.291 . S
C776 C777 1.373 . S
C776 H789 0.929 . S
C777 C776 1.373 . S
C777 C778 1.396 . S
C777 C784 1.403 . S
C778 C768 1.476 . S
C778 N773 1.318 . S
C778 C777 1.396 . S
H779 C774 0.929 . S
O780 Mn756 2.385 . S
O780 C758 1.234 . S
O781 Mn756 2.209 . S
O781 Mn757 2.215 . S
O781 C758 1.283 . S
O782 Mn756 2.094 . S
O782 C760 1.240 . S
O783 Mn757 2.117 . S
O783 C760 1.264 . S
C784 C777 1.403 . S
C784 C785 1.399 . S
C784 H790 0.929 . S
C785 C765 1.449 . S
C785 C784 1.399 . S
C785 H791 0.930 . S
H786 C766 0.931 . S
H787 C767 0.930 . S
H788 C775 0.931 . S
H789 C776 0.929 . S
H790 C784 0.929 . S
H791 C785 0.930 . S
Mn792 O797 2.095 . S
Mn792 O807 2.162 . S
Mn792 O808 2.297 . S
Mn792 O816 2.385 . S
Mn792 O817 2.209 . S
Mn792 O818 2.094 . S
Mn793 O798 2.121 . S
Mn793 N800 2.257 . S
Mn793 N809 2.282 . S
Mn793 O817 2.215 . S
Mn793 O819 2.117 . S
C794 O816 1.234 . S
C794 O817 1.283 . S
C795 O807 1.281 . S
C795 O808 1.236 . S
C796 O818 1.240 . S
C796 O819 1.264 . S
O797 Mn792 2.095 . S
O797 C806 1.250 . S
O798 Mn793 2.121 . S
O798 C806 1.258 . S
C799 N800 1.326 . S
C799 C803 1.460 . S
C799 H805 0.929 . S
N800 Mn793 2.257 . S
N800 C799 1.326 . S
N800 C804 1.362 . S
C801 C802 1.258 . S
C801 C804 1.431 . S
C801 C821 1.449 . S
C802 C801 1.258 . S
C802 C803 1.477 . S
C802 H822 0.931 . S
C803 C799 1.460 . S
C803 C802 1.477 . S
C803 H823 0.930 . S
C804 N800 1.362 . S
C804 C801 1.431 . S
C804 C814 1.476 . S
H805 C799 0.929 . S
C806 O797 1.250 . S
C806 O798 1.258 . S
O807 Mn792 2.162 . S
O807 C795 1.281 . S
O808 Mn792 2.297 . S
O808 C795 1.236 . S
N809 Mn793 2.282 . S
N809 C810 1.328 . S
N809 C814 1.318 . S
C810 N809 1.328 . S
C810 C811 1.457 . S
C810 H815 0.929 . S
C811 C810 1.457 . S
C811 C812 1.291 . S
C811 H824 0.931 . S
C812 C811 1.291 . S
C812 C813 1.373 . S
C812 H825 0.929 . S
C813 C812 1.373 . S
C813 C814 1.396 . S
C813 C820 1.403 . S
C814 C804 1.476 . S
C814 N809 1.318 . S
C814 C813 1.396 . S
H815 C810 0.929 . S
O816 Mn792 2.385 . S
O816 C794 1.234 . S
O817 Mn792 2.209 . S
O817 Mn793 2.215 . S
O817 C794 1.283 . S
O818 Mn792 2.094 . S
O818 C796 1.240 . S
O819 Mn793 2.117 . S
O819 C796 1.264 . S
C820 C813 1.403 . S
C820 C821 1.399 . S
C820 H826 0.929 . S
C821 C801 1.449 . S
C821 C820 1.399 . S
C821 H827 0.930 . S
H822 C802 0.931 . S
H823 C803 0.930 . S
H824 C811 0.931 . S
H825 C812 0.929 . S
H826 C820 0.929 . S
H827 C821 0.930 . S
Mn828 O833 2.095 . S
Mn828 O843 2.162 . S
Mn828 O844 2.297 . S
Mn828 O852 2.385 . S
Mn828 O853 2.209 . S
Mn828 O854 2.094 . S
Mn829 O834 2.121 . S
Mn829 N836 2.257 . S
Mn829 N845 2.282 . S
Mn829 O853 2.215 . S
Mn829 O855 2.117 . S
C830 O852 1.234 . S
C830 O853 1.283 . S
C831 O843 1.281 . S
C831 O844 1.236 . S
C832 O854 1.240 . S
C832 O855 1.264 . S
O833 Mn828 2.095 . S
O833 C842 1.250 . S
O834 Mn829 2.121 . S
O834 C842 1.258 . S
C835 N836 1.326 . S
C835 C839 1.460 . S
C835 H841 0.929 . S
N836 Mn829 2.257 . S
N836 C835 1.326 . S
N836 C840 1.362 . S
C837 C838 1.258 . S
C837 C840 1.431 . S
C837 C857 1.449 . S
C838 C837 1.258 . S
C838 C839 1.477 . S
C838 H858 0.931 . S
C839 C835 1.460 . S
C839 C838 1.477 . S
C839 H859 0.930 . S
C840 N836 1.362 . S
C840 C837 1.431 . S
C840 C850 1.476 . S
H841 C835 0.929 . S
C842 O833 1.250 . S
C842 O834 1.258 . S
O843 Mn828 2.162 . S
O843 C831 1.281 . S
O844 Mn828 2.297 . S
O844 C831 1.236 . S
N845 Mn829 2.282 . S
N845 C846 1.328 . S
N845 C850 1.318 . S
C846 N845 1.328 . S
C846 C847 1.457 . S
C846 H851 0.929 . S
C847 C846 1.457 . S
C847 C848 1.291 . S
C847 H860 0.931 . S
C848 C847 1.291 . S
C848 C849 1.373 . S
C848 H861 0.929 . S
C849 C848 1.373 . S
C849 C850 1.396 . S
C849 C856 1.403 . S
C850 C840 1.476 . S
C850 N845 1.318 . S
C850 C849 1.396 . S
H851 C846 0.929 . S
O852 Mn828 2.385 . S
O852 C830 1.234 . S
O853 Mn828 2.209 . S
O853 Mn829 2.215 . S
O853 C830 1.283 . S
O854 Mn828 2.094 . S
O854 C832 1.240 . S
O855 Mn829 2.117 . S
O855 C832 1.264 . S
C856 C849 1.403 . S
C856 C857 1.399 . S
C856 H862 0.929 . S
C857 C837 1.449 . S
C857 C856 1.399 . S
C857 H863 0.930 . S
H858 C838 0.931 . S
H859 C839 0.930 . S
H860 C847 0.931 . S
H861 C848 0.929 . S
H862 C856 0.929 . S
H863 C857 0.930 . S
Pr864 C866 2.880 1_455 S
Pr864 O884 2.562 1_456 S
Pr864 O885 2.490 1_455 S
Pr864 O886 2.690 . S
Pr864 O887 2.512 . S
Pr864 O889 2.432 . S
Pr864 O892 2.436 1_556 S
Pr864 O894 2.438 1_556 S
Pr865 C875 2.880 . S
Pr865 O886 2.411 1_554 S
Pr865 O888 2.438 . S
Pr865 O890 2.562 . S
Pr865 O891 2.490 . S
Pr865 O892 2.695 . S
Pr865 O893 2.512 . S
Pr865 O895 2.437 . S
C866 Pr864 2.880 1_655 S
C866 C867 1.491 . S
C866 O884 1.254 1_556 S
C866 O885 1.225 . S
C867 C866 1.491 . S
C867 C868 1.392 . S
C867 C872 1.356 . S
C868 C867 1.392 . S
C868 C869 1.368 . S
C868 H896 0.929 . S
C869 C868 1.368 . S
C869 C870 1.386 . S
C869 H897 0.929 . S
C870 C869 1.386 . S
C870 C871 1.373 . S
C871 C870 1.373 . S
C871 C872 1.409 . S
C871 H898 0.931 . S
C872 C867 1.356 . S
C872 C871 1.409 . S
C872 H899 0.930 1_556 S
C873 O886 1.298 . S
C873 O887 1.248 . S
C874 O888 1.267 . S
C874 O889 1.261 1_554 S
C875 Pr865 2.880 . S
C875 C876 1.491 . S
C875 O890 1.254 . S
C875 O891 1.225 . S
C876 C875 1.491 . S
C876 C877 1.392 . S
C876 C881 1.356 . S
C877 C876 1.392 . S
C877 C878 1.368 . S
C877 H900 0.929 . S
C878 C877 1.368 . S
C878 C879 1.386 . S
C878 H901 0.929 . S
C879 C878 1.386 . S
C879 C880 1.373 . S
C880 C879 1.373 . S
C880 C881 1.409 . S
C880 H902 0.931 . S
C881 C876 1.356 . S
C881 C880 1.409 . S
C881 H903 0.930 . S
C882 O892 1.270 . S
C882 O893 1.248 . S
C883 O894 1.267 . S
C883 O895 1.278 . S
O884 Pr864 2.562 1_654 S
O884 C866 1.254 1_554 S
O885 Pr864 2.490 1_655 S
O885 C866 1.225 . S
O886 Pr864 2.690 . S
O886 Pr865 2.411 1_556 S
O886 C873 1.298 . S
O887 Pr864 2.512 . S
O887 C873 1.248 . S
O888 Pr865 2.438 . S
O888 C874 1.267 . S
O889 Pr864 2.432 . S
O889 C874 1.261 1_556 S
O890 Pr865 2.562 . S
O890 C875 1.254 . S
O891 Pr865 2.490 . S
O891 C875 1.225 . S
O892 Pr864 2.436 1_554 S
O892 Pr865 2.695 . S
O892 C882 1.270 . S
O893 Pr865 2.512 . S
O893 C882 1.248 . S
O894 Pr864 2.438 1_554 S
O894 C883 1.267 . S
O895 Pr865 2.437 . S
O895 C883 1.278 . S
H896 C868 0.929 . S
H897 C869 0.929 . S
H898 C871 0.931 . S
H899 C872 0.930 1_554 S
H900 C877 0.929 . S
H901 C878 0.929 . S
H902 C880 0.931 . S
H903 C881 0.930 . S
Pr904 C906 2.880 . S
Pr904 O924 2.562 . S
Pr904 O925 2.490 . S
Pr904 O926 2.695 . S
Pr904 O927 2.512 . S
Pr904 O929 2.437 . S
Pr904 O932 2.436 . S
Pr904 O934 2.438 . S
Pr905 C915 2.880 . S
Pr905 O926 2.436 . S
Pr905 O928 2.438 . S
Pr905 O930 2.562 . S
Pr905 O931 2.490 . S
Pr905 O932 2.695 . S
Pr905 O933 2.512 . S
Pr905 O935 2.437 . S
C906 Pr904 2.880 . S
C906 C907 1.491 . S
C906 O924 1.254 . S
C906 O925 1.225 . S
C907 C906 1.491 . S
C907 C908 1.392 . S
C907 C912 1.356 . S
C908 C907 1.392 . S
C908 C909 1.368 . S
C908 H936 0.929 . S
C909 C908 1.368 . S
C909 C910 1.386 1_565 S
C909 H937 0.929 1_565 S
C910 C909 1.386 1_545 S
C910 C911 1.373 1_545 S
C911 C910 1.373 1_565 S
C911 C912 1.409 . S
C911 H938 0.931 . S
C912 C907 1.356 . S
C912 C911 1.409 . S
C912 H939 0.930 . S
C913 O926 1.270 . S
C913 O927 1.248 . S
C914 O928 1.267 . S
C914 O929 1.278 . S
C915 Pr905 2.880 . S
C915 C916 1.491 . S
C915 O930 1.254 . S
C915 O931 1.225 . S
C916 C915 1.491 . S
C916 C917 1.392 . S
C916 C921 1.356 . S
C917 C916 1.392 . S
C917 C918 1.368 . S
C917 H940 0.929 . S
C918 C917 1.368 . S
C918 C919 1.386 . S
C918 H941 0.929 . S
C919 C918 1.386 . S
C919 C920 1.373 . S
C920 C919 1.373 . S
C920 C921 1.409 . S
C920 H942 0.931 . S
C921 C916 1.356 . S
C921 C920 1.409 . S
C921 H943 0.930 . S
C922 O932 1.270 . S
C922 O933 1.248 . S
C923 O934 1.267 . S
C923 O935 1.278 . S
O924 Pr904 2.562 . S
O924 C906 1.254 . S
O925 Pr904 2.490 . S
O925 C906 1.225 . S
O926 Pr904 2.695 . S
O926 Pr905 2.436 . S
O926 C913 1.270 . S
O927 Pr904 2.512 . S
O927 C913 1.248 . S
O928 Pr905 2.438 . S
O928 C914 1.267 . S
O929 Pr904 2.437 . S
O929 C914 1.278 . S
O930 Pr905 2.562 . S
O930 C915 1.254 . S
O931 Pr905 2.490 . S
O931 C915 1.225 . S
O932 Pr904 2.436 . S
O932 Pr905 2.695 . S
O932 C922 1.270 . S
O933 Pr905 2.512 . S
O933 C922 1.248 . S
O934 Pr904 2.438 . S
O934 C923 1.267 . S
O935 Pr905 2.437 . S
O935 C923 1.278 . S
H936 C908 0.929 . S
H937 C909 0.929 1_545 S
H938 C911 0.931 . S
H939 C912 0.930 . S
H940 C917 0.929 . S
H941 C918 0.929 . S
H942 C920 0.931 . S
H943 C921 0.930 . S
Pr944 C946 2.880 . S
Pr944 O964 2.562 . S
Pr944 O965 2.490 . S
Pr944 O966 2.695 . S
Pr944 O967 2.512 . S
Pr944 O969 2.437 . S
Pr944 O972 2.436 . S
Pr944 O974 2.438 . S
Pr945 C955 2.880 . S
Pr945 O966 2.436 . S
Pr945 O968 2.438 . S
Pr945 O970 2.562 . S
Pr945 O971 2.490 . S
Pr945 O972 2.695 . S
Pr945 O973 2.512 . S
Pr945 O975 2.437 . S
C946 Pr944 2.880 . S
C946 C947 1.491 . S
C946 O964 1.254 . S
C946 O965 1.225 . S
C947 C946 1.491 . S
C947 C948 1.392 . S
C947 C952 1.356 . S
C948 C947 1.392 . S
C948 C949 1.368 . S
C948 H976 0.929 . S
C949 C948 1.368 . S
C949 C950 1.386 . S
C949 H977 0.929 . S
C950 C949 1.386 . S
C950 C951 1.373 . S
C951 C950 1.373 . S
C951 C952 1.409 . S
C951 H978 0.931 . S
C952 C947 1.356 . S
C952 C951 1.409 . S
C952 H979 0.930 . S
C953 O966 1.270 . S
C953 O967 1.248 . S
C954 O968 1.267 . S
C954 O969 1.278 . S
C955 Pr945 2.880 . S
C955 C956 1.491 . S
C955 O970 1.254 . S
C955 O971 1.225 . S
C956 C955 1.491 . S
C956 C957 1.392 . S
C956 C961 1.356 . S
C957 C956 1.392 . S
C957 C958 1.368 . S
C957 H980 0.929 . S
C958 C957 1.368 . S
C958 C959 1.386 . S
C958 H981 0.929 . S
C959 C958 1.386 . S
C959 C960 1.373 . S
C960 C959 1.373 . S
C960 C961 1.409 . S
C960 H982 0.931 . S
C961 C956 1.356 . S
C961 C960 1.409 . S
C961 H983 0.930 . S
C962 O972 1.270 . S
C962 O973 1.248 . S
C963 O974 1.267 . S
C963 O975 1.278 . S
O964 Pr944 2.562 . S
O964 C946 1.254 . S
O965 Pr944 2.490 . S
O965 C946 1.225 . S
O966 Pr944 2.695 . S
O966 Pr945 2.436 . S
O966 C953 1.270 . S
O967 Pr944 2.512 . S
O967 C953 1.248 . S
O968 Pr945 2.438 . S
O968 C954 1.267 . S
O969 Pr944 2.437 . S
O969 C954 1.278 . S
O970 Pr945 2.562 . S
O970 C955 1.254 . S
O971 Pr945 2.490 . S
O971 C955 1.225 . S
O972 Pr944 2.436 . S
O972 Pr945 2.695 . S
O972 C962 1.270 . S
O973 Pr945 2.512 . S
O973 C962 1.248 . S
O974 Pr944 2.438 . S
O974 C963 1.267 . S
O975 Pr945 2.437 . S
O975 C963 1.278 . S
H976 C948 0.929 . S
H977 C949 0.929 . S
H978 C951 0.931 . S
H979 C952 0.930 . S
H980 C957 0.929 . S
H981 C958 0.929 . S
H982 C960 0.931 . S
H983 C961 0.930 . S
Pr984 C986 2.880 . S
Pr984 O1004 2.562 . S
Pr984 O1005 2.490 . S
Pr984 O1006 2.695 . S
Pr984 O1007 2.512 . S
Pr984 O1009 2.437 . S
Pr984 O1012 2.436 . S
Pr984 O1014 2.438 . S
Pr985 C995 2.880 . S
Pr985 O1006 2.436 . S
Pr985 O1008 2.438 . S
Pr985 O1010 2.562 . S
Pr985 O1011 2.490 . S
Pr985 O1012 2.695 . S
Pr985 O1013 2.512 . S
Pr985 O1015 2.437 . S
C986 Pr984 2.880 . S
C986 C987 1.491 . S
C986 O1004 1.254 . S
C986 O1005 1.225 . S
C987 C986 1.491 . S
C987 C988 1.392 . S
C987 C992 1.356 . S
C988 C987 1.392 . S
C988 C989 1.368 . S
C988 H1016 0.929 . S
C989 C988 1.368 . S
C989 C990 1.386 . S
C989 H1017 0.929 . S
C990 C989 1.386 . S
C990 C991 1.373 . S
C991 C990 1.373 . S
C991 C992 1.409 . S
C991 H1018 0.931 . S
C992 C987 1.356 . S
C992 C991 1.409 . S
C992 H1019 0.930 . S
C993 O1006 1.270 . S
C993 O1007 1.248 . S
C994 O1008 1.267 . S
C994 O1009 1.278 . S
C995 Pr985 2.880 . S
C995 C996 1.491 . S
C995 O1010 1.254 . S
C995 O1011 1.225 . S
C996 C995 1.491 . S
C996 C997 1.392 . S
C996 C1001 1.356 . S
C997 C996 1.392 . S
C997 C998 1.368 . S
C997 H1020 0.929 . S
C998 C997 1.368 . S
C998 C999 1.386 . S
C998 H1021 0.929 . S
C999 C998 1.386 . S
C999 C1000 1.373 . S
C1000 C999 1.373 . S
C1000 C1001 1.409 . S
C1000 H1022 0.931 . S
C1001 C996 1.356 . S
C1001 C1000 1.409 . S
C1001 H1023 0.930 . S
C1002 O1012 1.270 . S
C1002 O1013 1.248 . S
C1003 O1014 1.267 . S
C1003 O1015 1.278 . S
O1004 Pr984 2.562 . S
O1004 C986 1.254 . S
O1005 Pr984 2.490 . S
O1005 C986 1.225 . S
O1006 Pr984 2.695 . S
O1006 Pr985 2.436 . S
O1006 C993 1.270 . S
O1007 Pr984 2.512 . S
O1007 C993 1.248 . S
O1008 Pr985 2.438 . S
O1008 C994 1.267 . S
O1009 Pr984 2.437 . S
O1009 C994 1.278 . S
O1010 Pr985 2.562 . S
O1010 C995 1.254 . S
O1011 Pr985 2.490 . S
O1011 C995 1.225 . S
O1012 Pr984 2.436 . S
O1012 Pr985 2.695 . S
O1012 C1002 1.270 . S
O1013 Pr985 2.512 . S
O1013 C1002 1.248 . S
O1014 Pr984 2.438 . S
O1014 C1003 1.267 . S
O1015 Pr985 2.437 . S
O1015 C1003 1.278 . S
H1016 C988 0.929 . S
H1017 C989 0.929 . S
H1018 C991 0.931 . S
H1019 C992 0.930 . S
H1020 C997 0.929 . S
H1021 C998 0.929 . S
H1022 C1000 0.931 . S
H1023 C1001 0.930 . S
Pr1024 C1026 2.880 . S
Pr1024 O1044 2.562 . S
Pr1024 O1045 2.490 . S
Pr1024 O1046 2.695 . S
Pr1024 O1047 2.512 . S
Pr1024 O1049 2.437 . S
Pr1024 O1052 2.436 . S
Pr1024 O1054 2.438 . S
Pr1025 C1035 2.880 . S
Pr1025 O1046 2.436 . S
Pr1025 O1048 2.438 . S
Pr1025 O1050 2.562 . S
Pr1025 O1051 2.490 . S
Pr1025 O1052 2.695 . S
Pr1025 O1053 2.512 . S
Pr1025 O1055 2.437 . S
C1026 Pr1024 2.880 . S
C1026 C1027 1.491 . S
C1026 O1044 1.254 . S
C1026 O1045 1.225 . S
C1027 C1026 1.491 . S
C1027 C1028 1.392 . S
C1027 C1032 1.356 1_455 S
C1028 C1027 1.392 . S
C1028 C1029 1.368 . S
C1028 H1056 0.929 . S
C1029 C1028 1.368 . S
C1029 C1030 1.386 1_455 S
C1029 H1057 0.929 . S
C1030 C1029 1.386 1_655 S
C1030 C1031 1.373 . S
C1031 C1030 1.373 . S
C1031 C1032 1.409 . S
C1031 H1058 0.931 . S
C1032 C1027 1.356 1_655 S
C1032 C1031 1.409 . S
C1032 H1059 0.930 . S
C1033 O1046 1.270 . S
C1033 O1047 1.248 . S
C1034 O1048 1.267 . S
C1034 O1049 1.278 . S
C1035 Pr1025 2.880 . S
C1035 C1036 1.491 . S
C1035 O1050 1.254 . S
C1035 O1051 1.225 . S
C1036 C1035 1.491 . S
C1036 C1037 1.392 . S
C1036 C1041 1.356 . S
C1037 C1036 1.392 . S
C1037 C1038 1.368 . S
C1037 H1060 0.929 . S
C1038 C1037 1.368 . S
C1038 C1039 1.386 . S
C1038 H1061 0.929 . S
C1039 C1038 1.386 . S
C1039 C1040 1.373 . S
C1040 C1039 1.373 . S
C1040 C1041 1.409 . S
C1040 H1062 0.931 . S
C1041 C1036 1.356 . S
C1041 C1040 1.409 . S
C1041 H1063 0.930 . S
C1042 O1052 1.270 . S
C1042 O1053 1.248 . S
C1043 O1054 1.267 . S
C1043 O1055 1.278 . S
O1044 Pr1024 2.562 . S
O1044 C1026 1.254 . S
O1045 Pr1024 2.490 . S
O1045 C1026 1.225 . S
O1046 Pr1024 2.695 . S
O1046 Pr1025 2.436 . S
O1046 C1033 1.270 . S
O1047 Pr1024 2.512 . S
O1047 C1033 1.248 . S
O1048 Pr1025 2.438 . S
O1048 C1034 1.267 . S
O1049 Pr1024 2.437 . S
O1049 C1034 1.278 . S
O1050 Pr1025 2.562 . S
O1050 C1035 1.254 . S
O1051 Pr1025 2.490 . S
O1051 C1035 1.225 . S
O1052 Pr1024 2.436 . S
O1052 Pr1025 2.695 . S
O1052 C1042 1.270 . S
O1053 Pr1025 2.512 . S
O1053 C1042 1.248 . S
O1054 Pr1024 2.438 . S
O1054 C1043 1.267 . S
O1055 Pr1025 2.437 . S
O1055 C1043 1.278 . S
H1056 C1028 0.929 . S
H1057 C1029 0.929 . S
H1058 C1031 0.931 . S
H1059 C1032 0.930 . S
H1060 C1037 0.929 . S
H1061 C1038 0.929 . S
H1062 C1040 0.931 . S
H1063 C1041 0.930 . S
Pr1064 C1066 2.880 . S
Pr1064 O1084 2.562 . S
Pr1064 O1085 2.490 . S
Pr1064 O1086 2.695 . S
Pr1064 O1087 2.512 . S
Pr1064 O1089 2.437 . S
Pr1064 O1092 2.436 . S
Pr1064 O1094 2.438 . S
Pr1065 C1075 2.880 . S
Pr1065 O1086 2.436 . S
Pr1065 O1088 2.438 . S
Pr1065 O1090 2.562 . S
Pr1065 O1091 2.490 . S
Pr1065 O1092 2.695 . S
Pr1065 O1093 2.512 . S
Pr1065 O1095 2.437 . S
C1066 Pr1064 2.880 . S
C1066 C1067 1.491 . S
C1066 O1084 1.254 . S
C1066 O1085 1.225 . S
C1067 C1066 1.491 . S
C1067 C1068 1.392 . S
C1067 C1072 1.356 . S
C1068 C1067 1.392 . S
C1068 C1069 1.368 . S
C1068 H1096 0.929 . S
C1069 C1068 1.368 . S
C1069 C1070 1.386 . S
C1069 H1097 0.929 . S
C1070 C1069 1.386 . S
C1070 C1071 1.373 . S
C1071 C1070 1.373 . S
C1071 C1072 1.409 . S
C1071 H1098 0.931 . S
C1072 C1067 1.356 . S
C1072 C1071 1.409 . S
C1072 H1099 0.930 . S
C1073 O1086 1.270 . S
C1073 O1087 1.248 . S
C1074 O1088 1.267 . S
C1074 O1089 1.278 . S
C1075 Pr1065 2.880 . S
C1075 C1076 1.491 . S
C1075 O1090 1.254 . S
C1075 O1091 1.225 . S
C1076 C1075 1.491 . S
C1076 C1077 1.392 . S
C1076 C1081 1.356 . S
C1077 C1076 1.392 . S
C1077 C1078 1.368 . S
C1077 H1100 0.929 . S
C1078 C1077 1.368 . S
C1078 C1079 1.386 . S
C1078 H1101 0.929 . S
C1079 C1078 1.386 . S
C1079 C1080 1.373 . S
C1080 C1079 1.373 . S
C1080 C1081 1.409 . S
C1080 H1102 0.931 . S
C1081 C1076 1.356 . S
C1081 C1080 1.409 . S
C1081 H1103 0.930 . S
C1082 O1092 1.270 . S
C1082 O1093 1.248 . S
C1083 O1094 1.267 . S
C1083 O1095 1.278 . S
O1084 Pr1064 2.562 . S
O1084 C1066 1.254 . S
O1085 Pr1064 2.490 . S
O1085 C1066 1.225 . S
O1086 Pr1064 2.695 . S
O1086 Pr1065 2.436 . S
O1086 C1073 1.270 . S
O1087 Pr1064 2.512 . S
O1087 C1073 1.248 . S
O1088 Pr1065 2.438 . S
O1088 C1074 1.267 . S
O1089 Pr1064 2.437 . S
O1089 C1074 1.278 . S
O1090 Pr1065 2.562 . S
O1090 C1075 1.254 . S
O1091 Pr1065 2.490 . S
O1091 C1075 1.225 . S
O1092 Pr1064 2.436 . S
O1092 Pr1065 2.695 . S
O1092 C1082 1.270 . S
O1093 Pr1065 2.512 . S
O1093 C1082 1.248 . S
O1094 Pr1064 2.438 . S
O1094 C1083 1.267 . S
O1095 Pr1065 2.437 . S
O1095 C1083 1.278 . S
H1096 C1068 0.929 . S
H1097 C1069 0.929 . S
H1098 C1071 0.931 . S
H1099 C1072 0.930 . S
H1100 C1077 0.929 . S
H1101 C1078 0.929 . S
H1102 C1080 0.931 . S
H1103 C1081 0.930 . S
Pr1104 C1106 2.880 . S
Pr1104 O1124 2.562 . S
Pr1104 O1125 2.490 . S
Pr1104 O1126 2.695 . S
Pr1104 O1127 2.512 . S
Pr1104 O1129 2.437 . S
Pr1104 O1132 2.436 . S
Pr1104 O1134 2.438 . S
Pr1105 C1115 2.880 . S
Pr1105 O1126 2.436 1_556 S
Pr1105 O1128 2.438 1_556 S
Pr1105 O1130 2.562 . S
Pr1105 O1131 2.490 . S
Pr1105 O1132 2.695 1_556 S
Pr1105 O1133 2.512 1_556 S
Pr1105 O1135 2.437 1_556 S
C1106 Pr1104 2.880 . S
C1106 C1107 1.491 . S
C1106 O1124 1.254 . S
C1106 O1125 1.225 . S
C1107 C1106 1.491 . S
C1107 C1108 1.392 . S
C1107 C1112 1.356 . S
C1108 C1107 1.392 . S
C1108 C1109 1.368 . S
C1108 H1136 0.929 . S
C1109 C1108 1.368 . S
C1109 C1110 1.386 . S
C1109 H1137 0.929 . S
C1110 C1109 1.386 . S
C1110 C1111 1.373 . S
C1111 C1110 1.373 . S
C1111 C1112 1.409 . S
C1111 H1138 0.931 . S
C1112 C1107 1.356 . S
C1112 C1111 1.409 . S
C1112 H1139 0.930 . S
C1113 O1126 1.270 . S
C1113 O1127 1.248 . S
C1114 O1128 1.267 . S
C1114 O1129 1.278 . S
C1115 Pr1105 2.880 . S
C1115 C1116 1.491 . S
C1115 O1130 1.254 . S
C1115 O1131 1.225 . S
C1116 C1115 1.491 . S
C1116 C1117 1.392 . S
C1116 C1121 1.356 . S
C1117 C1116 1.392 . S
C1117 C1118 1.368 . S
C1117 H1140 0.929 . S
C1118 C1117 1.368 . S
C1118 C1119 1.386 . S
C1118 H1141 0.929 . S
C1119 C1118 1.386 . S
C1119 C1120 1.373 . S
C1120 C1119 1.373 . S
C1120 C1121 1.409 . S
C1120 H1142 0.931 . S
C1121 C1116 1.356 . S
C1121 C1120 1.409 . S
C1121 H1143 0.930 . S
C1122 O1132 1.270 . S
C1122 O1133 1.248 . S
C1123 O1134 1.267 . S
C1123 O1135 1.278 . S
O1124 Pr1104 2.562 . S
O1124 C1106 1.254 . S
O1125 Pr1104 2.490 . S
O1125 C1106 1.225 . S
O1126 Pr1104 2.695 . S
O1126 Pr1105 2.436 1_554 S
O1126 C1113 1.270 . S
O1127 Pr1104 2.512 . S
O1127 C1113 1.248 . S
O1128 Pr1105 2.438 1_554 S
O1128 C1114 1.267 . S
O1129 Pr1104 2.437 . S
O1129 C1114 1.278 . S
O1130 Pr1105 2.562 . S
O1130 C1115 1.254 . S
O1131 Pr1105 2.490 . S
O1131 C1115 1.225 . S
O1132 Pr1104 2.436 . S
O1132 Pr1105 2.695 1_554 S
O1132 C1122 1.270 . S
O1133 Pr1105 2.512 1_554 S
O1133 C1122 1.248 . S
O1134 Pr1104 2.438 . S
O1134 C1123 1.267 . S
O1135 Pr1105 2.437 1_554 S
O1135 C1123 1.278 . S
H1136 C1108 0.929 . S
H1137 C1109 0.929 . S
H1138 C1111 0.931 . S
H1139 C1112 0.930 . S
H1140 C1117 0.929 . S
H1141 C1118 0.929 . S
H1142 C1120 0.931 . S
H1143 C1121 0.930 . S
Pr1144 C1146 2.880 . S
Pr1144 O1164 2.562 . S
Pr1144 O1165 2.490 . S
Pr1144 O1166 2.695 . S
Pr1144 O1167 2.512 . S
Pr1144 O1169 2.437 . S
Pr1144 O1172 2.436 . S
Pr1144 O1174 2.438 . S
Pr1145 C1155 2.880 . S
Pr1145 O1166 2.436 . S
Pr1145 O1168 2.438 . S
Pr1145 O1170 2.562 . S
Pr1145 O1171 2.490 . S
Pr1145 O1172 2.695 . S
Pr1145 O1173 2.512 . S
Pr1145 O1175 2.437 . S
C1146 Pr1144 2.880 . S
C1146 C1147 1.491 . S
C1146 O1164 1.254 . S
C1146 O1165 1.225 . S
C1147 C1146 1.491 . S
C1147 C1148 1.392 . S
C1147 C1152 1.356 . S
C1148 C1147 1.392 . S
C1148 C1149 1.368 . S
C1148 H1176 0.929 . S
C1149 C1148 1.368 . S
C1149 C1150 1.386 . S
C1149 H1177 0.929 . S
C1150 C1149 1.386 . S
C1150 C1151 1.373 . S
C1151 C1150 1.373 . S
C1151 C1152 1.409 . S
C1151 H1178 0.931 . S
C1152 C1147 1.356 . S
C1152 C1151 1.409 . S
C1152 H1179 0.930 . S
C1153 O1166 1.270 . S
C1153 O1167 1.248 . S
C1154 O1168 1.267 . S
C1154 O1169 1.278 . S
C1155 Pr1145 2.880 . S
C1155 C1156 1.491 . S
C1155 O1170 1.254 . S
C1155 O1171 1.225 . S
C1156 C1155 1.491 . S
C1156 C1157 1.392 . S
C1156 C1161 1.356 . S
C1157 C1156 1.392 . S
C1157 C1158 1.368 . S
C1157 H1180 0.929 . S
C1158 C1157 1.368 . S
C1158 C1159 1.386 . S
C1158 H1181 0.929 . S
C1159 C1158 1.386 . S
C1159 C1160 1.373 . S
C1160 C1159 1.373 . S
C1160 C1161 1.409 . S
C1160 H1182 0.931 . S
C1161 C1156 1.356 . S
C1161 C1160 1.409 . S
C1161 H1183 0.930 . S
C1162 O1172 1.270 . S
C1162 O1173 1.248 . S
C1163 O1174 1.267 . S
C1163 O1175 1.278 . S
O1164 Pr1144 2.562 . S
O1164 C1146 1.254 . S
O1165 Pr1144 2.490 . S
O1165 C1146 1.225 . S
O1166 Pr1144 2.695 . S
O1166 Pr1145 2.436 . S
O1166 C1153 1.270 . S
O1167 Pr1144 2.512 . S
O1167 C1153 1.248 . S
O1168 Pr1145 2.438 . S
O1168 C1154 1.267 . S
O1169 Pr1144 2.437 . S
O1169 C1154 1.278 . S
O1170 Pr1145 2.562 . S
O1170 C1155 1.254 . S
O1171 Pr1145 2.490 . S
O1171 C1155 1.225 . S
O1172 Pr1144 2.436 . S
O1172 Pr1145 2.695 . S
O1172 C1162 1.270 . S
O1173 Pr1145 2.512 . S
O1173 C1162 1.248 . S
O1174 Pr1144 2.438 . S
O1174 C1163 1.267 . S
O1175 Pr1145 2.437 . S
O1175 C1163 1.278 . S
H1176 C1148 0.929 . S
H1177 C1149 0.929 . S
H1178 C1151 0.931 . S
H1179 C1152 0.930 . S
H1180 C1157 0.929 . S
H1181 C1158 0.929 . S
H1182 C1160 0.931 . S
H1183 C1161 0.930 . S
Pr1184 C1186 2.880 . S
Pr1184 O1204 2.562 . S
Pr1184 O1205 2.490 . S
Pr1184 O1206 2.695 1_556 S
Pr1184 O1207 2.512 . S
Pr1184 O1209 2.437 . S
Pr1184 O1212 2.436 1_556 S
Pr1184 O1214 2.438 1_556 S
Pr1185 C1195 2.880 . S
Pr1185 O1206 2.436 . S
Pr1185 O1208 2.438 . S
Pr1185 O1210 2.562 . S
Pr1185 O1211 2.490 . S
Pr1185 O1212 2.695 . S
Pr1185 O1213 2.512 . S
Pr1185 O1215 2.437 . S
C1186 Pr1184 2.880 . S
C1186 C1187 1.491 . S
C1186 O1204 1.254 . S
C1186 O1205 1.225 . S
C1187 C1186 1.491 . S
C1187 C1188 1.392 . S
C1187 C1192 1.356 . S
C1188 C1187 1.392 . S
C1188 C1189 1.368 . S
C1188 H1216 0.929 . S
C1189 C1188 1.368 . S
C1189 C1190 1.386 . S
C1189 H1217 0.929 . S
C1190 C1189 1.386 . S
C1190 C1191 1.373 . S
C1191 C1190 1.373 . S
C1191 C1192 1.409 . S
C1191 H1218 0.931 . S
C1192 C1187 1.356 . S
C1192 C1191 1.409 . S
C1192 H1219 0.930 . S
C1193 O1206 1.270 . S
C1193 O1207 1.248 1_554 S
C1194 O1208 1.267 . S
C1194 O1209 1.278 1_554 S
C1195 Pr1185 2.880 . S
C1195 C1196 1.491 . S
C1195 O1210 1.254 . S
C1195 O1211 1.225 . S
C1196 C1195 1.491 . S
C1196 C1197 1.392 . S
C1196 C1201 1.356 . S
C1197 C1196 1.392 . S
C1197 C1198 1.368 . S
C1197 H1220 0.929 . S
C1198 C1197 1.368 . S
C1198 C1199 1.386 . S
C1198 H1221 0.929 . S
C1199 C1198 1.386 . S
C1199 C1200 1.373 . S
C1200 C1199 1.373 . S
C1200 C1201 1.409 . S
C1200 H1222 0.931 . S
C1201 C1196 1.356 . S
C1201 C1200 1.409 . S
C1201 H1223 0.930 . S
C1202 O1212 1.270 . S
C1202 O1213 1.248 . S
C1203 O1214 1.267 . S
C1203 O1215 1.278 . S
O1204 Pr1184 2.562 . S
O1204 C1186 1.254 . S
O1205 Pr1184 2.490 . S
O1205 C1186 1.225 . S
O1206 Pr1184 2.695 1_554 S
O1206 Pr1185 2.436 . S
O1206 C1193 1.270 . S
O1207 Pr1184 2.512 . S
O1207 C1193 1.248 1_556 S
O1208 Pr1185 2.438 . S
O1208 C1194 1.267 . S
O1209 Pr1184 2.437 . S
O1209 C1194 1.278 1_556 S
O1210 Pr1185 2.562 . S
O1210 C1195 1.254 . S
O1211 Pr1185 2.490 . S
O1211 C1195 1.225 . S
O1212 Pr1184 2.436 1_554 S
O1212 Pr1185 2.695 . S
O1212 C1202 1.270 . S
O1213 Pr1185 2.512 . S
O1213 C1202 1.248 . S
O1214 Pr1184 2.438 1_554 S
O1214 C1203 1.267 . S
O1215 Pr1185 2.437 . S
O1215 C1203 1.278 . S
H1216 C1188 0.929 . S
H1217 C1189 0.929 . S
H1218 C1191 0.931 . S
H1219 C1192 0.930 . S
H1220 C1197 0.929 . S
H1221 C1198 0.929 . S
H1222 C1200 0.931 . S
H1223 C1201 0.930 . S
Pr1224 C1226 2.880 . S
Pr1224 O1244 2.562 . S
Pr1224 O1245 2.490 . S
Pr1224 O1246 2.695 . S
Pr1224 O1247 2.512 . S
Pr1224 O1249 2.437 . S
Pr1224 O1252 2.436 . S
Pr1224 O1254 2.438 . S
Pr1225 C1235 2.880 . S
Pr1225 O1246 2.436 . S
Pr1225 O1248 2.438 . S
Pr1225 O1250 2.562 . S
Pr1225 O1251 2.490 . S
Pr1225 O1252 2.695 . S
Pr1225 O1253 2.512 . S
Pr1225 O1255 2.437 . S
C1226 Pr1224 2.880 . S
C1226 C1227 1.491 . S
C1226 O1244 1.254 . S
C1226 O1245 1.225 . S
C1227 C1226 1.491 . S
C1227 C1228 1.392 . S
C1227 C1232 1.356 . S
C1228 C1227 1.392 . S
C1228 C1229 1.368 . S
C1228 H1256 0.929 . S
C1229 C1228 1.368 . S
C1229 C1230 1.386 . S
C1229 H1257 0.929 . S
C1230 C1229 1.386 . S
C1230 C1231 1.373 . S
C1231 C1230 1.373 . S
C1231 C1232 1.409 . S
C1231 H1258 0.931 . S
C1232 C1227 1.356 . S
C1232 C1231 1.409 . S
C1232 H1259 0.930 . S
C1233 O1246 1.270 . S
C1233 O1247 1.248 . S
C1234 O1248 1.267 . S
C1234 O1249 1.278 . S
C1235 Pr1225 2.880 . S
C1235 C1236 1.491 . S
C1235 O1250 1.254 . S
C1235 O1251 1.225 . S
C1236 C1235 1.491 . S
C1236 C1237 1.392 . S
C1236 C1241 1.356 . S
C1237 C1236 1.392 . S
C1237 C1238 1.368 . S
C1237 H1260 0.929 . S
C1238 C1237 1.368 . S
C1238 C1239 1.386 . S
C1238 H1261 0.929 . S
C1239 C1238 1.386 . S
C1239 C1240 1.373 . S
C1240 C1239 1.373 . S
C1240 C1241 1.409 . S
C1240 H1262 0.931 . S
C1241 C1236 1.356 . S
C1241 C1240 1.409 . S
C1241 H1263 0.930 . S
C1242 O1252 1.270 . S
C1242 O1253 1.248 . S
C1243 O1254 1.267 . S
C1243 O1255 1.278 . S
O1244 Pr1224 2.562 . S
O1244 C1226 1.254 . S
O1245 Pr1224 2.490 . S
O1245 C1226 1.225 . S
O1246 Pr1224 2.695 . S
O1246 Pr1225 2.436 . S
O1246 C1233 1.270 . S
O1247 Pr1224 2.512 . S
O1247 C1233 1.248 . S
O1248 Pr1225 2.438 . S
O1248 C1234 1.267 . S
O1249 Pr1224 2.437 . S
O1249 C1234 1.278 . S
O1250 Pr1225 2.562 . S
O1250 C1235 1.254 . S
O1251 Pr1225 2.490 . S
O1251 C1235 1.225 . S
O1252 Pr1224 2.436 . S
O1252 Pr1225 2.695 . S
O1252 C1242 1.270 . S
O1253 Pr1225 2.512 . S
O1253 C1242 1.248 . S
O1254 Pr1224 2.438 . S
O1254 C1243 1.267 . S
O1255 Pr1225 2.437 . S
O1255 C1243 1.278 . S
H1256 C1228 0.929 . S
H1257 C1229 0.929 . S
H1258 C1231 0.931 . S
H1259 C1232 0.930 . S
H1260 C1237 0.929 . S
H1261 C1238 0.929 . S
H1262 C1240 0.931 . S
H1263 C1241 0.930 . S
Pr1264 C1266 2.880 . S
Pr1264 O1284 2.562 . S
Pr1264 O1285 2.490 . S
Pr1264 O1286 2.695 . S
Pr1264 O1287 2.512 . S
Pr1264 O1289 2.437 . S
Pr1264 O1292 2.436 . S
Pr1264 O1294 2.438 . S
Pr1265 C1275 2.880 . S
Pr1265 O1286 2.436 . S
Pr1265 O1288 2.438 . S
Pr1265 O1290 2.562 . S
Pr1265 O1291 2.490 . S
Pr1265 O1292 2.695 . S
Pr1265 O1293 2.512 . S
Pr1265 O1295 2.437 . S
C1266 Pr1264 2.880 . S
C1266 C1267 1.491 . S
C1266 O1284 1.254 . S
C1266 O1285 1.225 . S
C1267 C1266 1.491 . S
C1267 C1268 1.392 . S
C1267 C1272 1.356 . S
C1268 C1267 1.392 . S
C1268 C1269 1.368 . S
C1268 H1296 0.929 . S
C1269 C1268 1.368 . S
C1269 C1270 1.386 . S
C1269 H1297 0.929 . S
C1270 C1269 1.386 . S
C1270 C1271 1.373 . S
C1271 C1270 1.373 . S
C1271 C1272 1.409 . S
C1271 H1298 0.943 . S
C1272 C1267 1.356 . S
C1272 C1271 1.409 . S
C1272 H1299 0.930 . S
C1273 O1286 1.270 . S
C1273 O1287 1.248 . S
C1274 O1288 1.267 . S
C1274 O1289 1.278 . S
C1275 Pr1265 2.880 . S
C1275 C1276 1.491 . S
C1275 O1290 1.254 . S
C1275 O1291 1.225 . S
C1276 C1275 1.491 . S
C1276 C1277 1.392 . S
C1276 C1281 1.356 . S
C1277 C1276 1.392 . S
C1277 C1278 1.368 . S
C1277 H1300 0.929 . S
C1278 C1277 1.368 . S
C1278 C1279 1.386 . S
C1278 H1301 0.929 . S
C1279 C1278 1.386 . S
C1279 C1280 1.373 . S
C1280 C1279 1.373 . S
C1280 C1281 1.409 . S
C1280 H1302 0.931 . S
C1281 C1276 1.356 . S
C1281 C1280 1.409 . S
C1281 H1303 0.930 . S
C1282 O1292 1.270 . S
C1282 O1293 1.248 . S
C1283 O1294 1.267 . S
C1283 O1295 1.278 . S
O1284 Pr1264 2.562 . S
O1284 C1266 1.254 . S
O1285 Pr1264 2.490 . S
O1285 C1266 1.225 . S
O1286 Pr1264 2.695 . S
O1286 Pr1265 2.436 . S
O1286 C1273 1.270 . S
O1287 Pr1264 2.512 . S
O1287 C1273 1.248 . S
O1288 Pr1265 2.438 . S
O1288 C1274 1.267 . S
O1289 Pr1264 2.437 . S
O1289 C1274 1.278 . S
O1290 Pr1265 2.562 . S
O1290 C1275 1.254 . S
O1291 Pr1265 2.490 . S
O1291 C1275 1.225 . S
O1292 Pr1264 2.436 . S
O1292 Pr1265 2.695 . S
O1292 C1282 1.270 . S
O1293 Pr1265 2.512 . S
O1293 C1282 1.248 . S
O1294 Pr1264 2.438 . S
O1294 C1283 1.267 . S
O1295 Pr1265 2.437 . S
O1295 C1283 1.278 . S
H1296 C1268 0.929 . S
H1297 C1269 0.929 . S
H1298 C1271 0.943 . S
H1299 C1272 0.930 . S
H1300 C1277 0.929 . S
H1301 C1278 0.929 . S
H1302 C1280 0.931 . S
H1303 C1281 0.930 . S
Pr1304 C1306 2.880 . S
Pr1304 O1324 2.562 . S
Pr1304 O1325 2.490 . S
Pr1304 O1326 2.695 . S
Pr1304 O1327 2.512 . S
Pr1304 O1329 2.437 . S
Pr1304 O1332 2.436 . S
Pr1304 O1334 2.438 . S
Pr1305 C1315 2.880 . S
Pr1305 O1326 2.436 . S
Pr1305 O1328 2.438 . S
Pr1305 O1330 2.562 . S
Pr1305 O1331 2.490 . S
Pr1305 O1332 2.695 . S
Pr1305 O1333 2.512 . S
Pr1305 O1335 2.437 . S
C1306 Pr1304 2.880 . S
C1306 C1307 1.491 . S
C1306 O1324 1.254 . S
C1306 O1325 1.225 . S
C1307 C1306 1.491 . S
C1307 C1308 1.392 . S
C1307 C1312 1.356 . S
C1308 C1307 1.392 . S
C1308 C1309 1.368 . S
C1308 H1336 0.929 . S
C1309 C1308 1.368 . S
C1309 C1310 1.386 . S
C1309 H1337 0.929 . S
C1310 C1309 1.386 . S
C1310 C1311 1.373 . S
C1311 C1310 1.373 . S
C1311 C1312 1.409 . S
C1311 H1338 0.931 . S
C1312 C1307 1.356 . S
C1312 C1311 1.409 . S
C1312 H1339 0.930 . S
C1313 O1326 1.270 . S
C1313 O1327 1.248 . S
C1314 O1328 1.267 . S
C1314 O1329 1.278 . S
C1315 Pr1305 2.880 . S
C1315 C1316 1.491 . S
C1315 O1330 1.254 . S
C1315 O1331 1.225 . S
C1316 C1315 1.491 . S
C1316 C1317 1.392 . S
C1316 C1321 1.356 . S
C1317 C1316 1.392 . S
C1317 C1318 1.368 . S
C1317 H1340 0.929 . S
C1318 C1317 1.368 . S
C1318 C1319 1.386 . S
C1318 H1341 0.929 . S
C1319 C1318 1.386 . S
C1319 C1320 1.373 . S
C1320 C1319 1.373 . S
C1320 C1321 1.409 . S
C1320 H1342 0.931 . S
C1321 C1316 1.356 . S
C1321 C1320 1.409 . S
C1321 H1343 0.930 . S
C1322 O1332 1.270 . S
C1322 O1333 1.248 . S
C1323 O1334 1.267 . S
C1323 O1335 1.278 . S
O1324 Pr1304 2.562 . S
O1324 C1306 1.254 . S
O1325 Pr1304 2.490 . S
O1325 C1306 1.225 . S
O1326 Pr1304 2.695 . S
O1326 Pr1305 2.436 . S
O1326 C1313 1.270 . S
O1327 Pr1304 2.512 . S
O1327 C1313 1.248 . S
O1328 Pr1305 2.438 . S
O1328 C1314 1.267 . S
O1329 Pr1304 2.437 . S
O1329 C1314 1.278 . S
O1330 Pr1305 2.562 . S
O1330 C1315 1.254 . S
O1331 Pr1305 2.490 . S
O1331 C1315 1.225 . S
O1332 Pr1304 2.436 . S
O1332 Pr1305 2.695 . S
O1332 C1322 1.270 . S
O1333 Pr1305 2.512 . S
O1333 C1322 1.248 . S
O1334 Pr1304 2.438 . S
O1334 C1323 1.267 . S
O1335 Pr1305 2.437 . S
O1335 C1323 1.278 . S
H1336 C1308 0.929 . S
H1337 C1309 0.929 . S
H1338 C1311 0.931 . S
H1339 C1312 0.930 . S
H1340 C1317 0.929 . S
H1341 C1318 0.929 . S
H1342 C1320 0.931 . S
H1343 C1321 0.930 . S
Pr1344 C1346 2.880 . S
Pr1344 O1364 2.562 . S
Pr1344 O1365 2.490 . S
Pr1344 O1366 2.695 . S
Pr1344 O1367 2.512 . S
Pr1344 O1369 2.437 . S
Pr1344 O1372 2.436 . S
Pr1344 O1374 2.438 . S
Pr1345 C1355 2.880 . S
Pr1345 O1366 2.436 . S
Pr1345 O1368 2.438 . S
Pr1345 O1370 2.562 . S
Pr1345 O1371 2.490 . S
Pr1345 O1372 2.695 . S
Pr1345 O1373 2.512 . S
Pr1345 O1375 2.437 . S
C1346 Pr1344 2.880 . S
C1346 C1347 1.491 . S
C1346 O1364 1.254 . S
C1346 O1365 1.225 . S
C1347 C1346 1.491 . S
C1347 C1348 1.392 . S
C1347 C1352 1.356 . S
C1348 C1347 1.392 . S
C1348 C1349 1.368 . S
C1348 H1376 0.929 . S
C1349 C1348 1.368 . S
C1349 C1350 1.386 . S
C1349 H1377 0.929 . S
C1350 C1349 1.386 . S
C1350 C1351 1.373 . S
C1351 C1350 1.373 . S
C1351 C1352 1.409 . S
C1351 H1378 0.931 . S
C1352 C1347 1.356 . S
C1352 C1351 1.409 . S
C1352 H1379 0.930 . S
C1353 O1366 1.270 . S
C1353 O1367 1.248 . S
C1354 O1368 1.267 . S
C1354 O1369 1.278 . S
C1355 Pr1345 2.880 . S
C1355 C1356 1.491 . S
C1355 O1370 1.254 . S
C1355 O1371 1.225 . S
C1356 C1355 1.491 . S
C1356 C1357 1.392 . S
C1356 C1361 1.356 . S
C1357 C1356 1.392 . S
C1357 C1358 1.368 . S
C1357 H1380 0.929 . S
C1358 C1357 1.368 . S
C1358 C1359 1.386 . S
C1358 H1381 0.929 . S
C1359 C1358 1.386 . S
C1359 C1360 1.373 . S
C1360 C1359 1.373 . S
C1360 C1361 1.409 . S
C1360 H1382 0.931 . S
C1361 C1356 1.356 . S
C1361 C1360 1.409 . S
C1361 H1383 0.930 . S
C1362 O1372 1.270 . S
C1362 O1373 1.248 . S
C1363 O1374 1.267 . S
C1363 O1375 1.278 . S
O1364 Pr1344 2.562 . S
O1364 C1346 1.254 . S
O1365 Pr1344 2.490 . S
O1365 C1346 1.225 . S
O1366 Pr1344 2.695 . S
O1366 Pr1345 2.436 . S
O1366 C1353 1.270 . S
O1367 Pr1344 2.512 . S
O1367 C1353 1.248 . S
O1368 Pr1345 2.438 . S
O1368 C1354 1.267 . S
O1369 Pr1344 2.437 . S
O1369 C1354 1.278 . S
O1370 Pr1345 2.562 . S
O1370 C1355 1.254 . S
O1371 Pr1345 2.490 . S
O1371 C1355 1.225 . S
O1372 Pr1344 2.436 . S
O1372 Pr1345 2.695 . S
O1372 C1362 1.270 . S
O1373 Pr1345 2.512 . S
O1373 C1362 1.248 . S
O1374 Pr1344 2.438 . S
O1374 C1363 1.267 . S
O1375 Pr1345 2.437 . S
O1375 C1363 1.278 . S
H1376 C1348 0.929 . S
H1377 C1349 0.929 . S
H1378 C1351 0.931 . S
H1379 C1352 0.930 . S
H1380 C1357 0.929 . S
H1381 C1358 0.929 . S
H1382 C1360 0.931 . S
H1383 C1361 0.930 . S
Pr1384 C1386 2.880 . S
Pr1384 O1404 2.562 . S
Pr1384 O1405 2.490 . S
Pr1384 O1406 2.695 . S
Pr1384 O1407 2.512 . S
Pr1384 O1409 2.437 . S
Pr1384 O1412 2.436 . S
Pr1384 O1414 2.438 . S
Pr1385 C1395 2.880 . S
Pr1385 O1406 2.436 . S
Pr1385 O1408 2.438 . S
Pr1385 O1410 2.562 . S
Pr1385 O1411 2.490 . S
Pr1385 O1412 2.695 . S
Pr1385 O1413 2.512 . S
Pr1385 O1415 2.437 . S
C1386 Pr1384 2.880 . S
C1386 C1387 1.491 . S
C1386 O1404 1.254 . S
C1386 O1405 1.225 . S
C1387 C1386 1.491 . S
C1387 C1388 1.392 . S
C1387 C1392 1.356 . S
C1388 C1387 1.392 . S
C1388 C1389 1.368 . S
C1388 H1416 0.929 . S
C1389 C1388 1.368 . S
C1389 C1390 1.386 . S
C1389 H1417 0.929 . S
C1390 C1389 1.386 . S
C1390 C1391 1.373 . S
C1391 C1390 1.373 . S
C1391 C1392 1.409 . S
C1391 H1418 0.931 . S
C1392 C1387 1.356 . S
C1392 C1391 1.409 . S
C1392 H1419 0.930 . S
C1393 O1406 1.270 . S
C1393 O1407 1.248 . S
C1394 O1408 1.267 . S
C1394 O1409 1.278 . S
C1395 Pr1385 2.880 . S
C1395 C1396 1.491 . S
C1395 O1410 1.254 . S
C1395 O1411 1.225 . S
C1396 C1395 1.491 . S
C1396 C1397 1.392 . S
C1396 C1401 1.356 . S
C1397 C1396 1.392 . S
C1397 C1398 1.368 . S
C1397 H1420 0.929 . S
C1398 C1397 1.368 . S
C1398 C1399 1.386 . S
C1398 H1421 0.929 . S
C1399 C1398 1.386 . S
C1399 C1400 1.373 . S
C1400 C1399 1.373 . S
C1400 C1401 1.409 . S
C1400 H1422 0.931 . S
C1401 C1396 1.356 . S
C1401 C1400 1.409 . S
C1401 H1423 0.930 . S
C1402 O1412 1.270 . S
C1402 O1413 1.248 . S
C1403 O1414 1.267 . S
C1403 O1415 1.278 . S
O1404 Pr1384 2.562 . S
O1404 C1386 1.254 . S
O1405 Pr1384 2.490 . S
O1405 C1386 1.225 . S
O1406 Pr1384 2.695 . S
O1406 Pr1385 2.436 . S
O1406 C1393 1.270 . S
O1407 Pr1384 2.512 . S
O1407 C1393 1.248 . S
O1408 Pr1385 2.438 . S
O1408 C1394 1.267 . S
O1409 Pr1384 2.437 . S
O1409 C1394 1.278 . S
O1410 Pr1385 2.562 . S
O1410 C1395 1.254 . S
O1411 Pr1385 2.490 . S
O1411 C1395 1.225 . S
O1412 Pr1384 2.436 . S
O1412 Pr1385 2.695 . S
O1412 C1402 1.270 . S
O1413 Pr1385 2.512 . S
O1413 C1402 1.248 . S
O1414 Pr1384 2.438 . S
O1414 C1403 1.267 . S
O1415 Pr1385 2.437 . S
O1415 C1403 1.278 . S
H1416 C1388 0.929 . S
H1417 C1389 0.929 . S
H1418 C1391 0.931 . S
H1419 C1392 0.930 . S
H1420 C1397 0.929 . S
H1421 C1398 0.929 . S
H1422 C1400 0.931 . S
H1423 C1401 0.930 . S
Pr1424 C1426 2.880 . S
Pr1424 O1444 2.562 . S
Pr1424 O1445 2.490 . S
Pr1424 O1446 2.695 . S
Pr1424 O1447 2.512 . S
Pr1424 O1449 2.437 . S
Pr1424 O1452 2.436 . S
Pr1424 O1454 2.438 . S
Pr1425 C1435 2.880 . S
Pr1425 O1446 2.436 . S
Pr1425 O1448 2.438 . S
Pr1425 O1450 2.562 . S
Pr1425 O1451 2.490 . S
Pr1425 O1452 2.695 . S
Pr1425 O1453 2.512 . S
Pr1425 O1455 2.437 . S
C1426 Pr1424 2.880 . S
C1426 C1427 1.491 . S
C1426 O1444 1.254 . S
C1426 O1445 1.225 . S
C1427 C1426 1.491 . S
C1427 C1428 1.392 . S
C1427 C1432 1.356 . S
C1428 C1427 1.392 . S
C1428 C1429 1.368 . S
C1428 H1456 0.929 . S
C1429 C1428 1.368 . S
C1429 C1430 1.386 . S
C1429 H1457 0.929 . S
C1430 C1429 1.386 . S
C1430 C1431 1.373 . S
C1431 C1430 1.373 . S
C1431 C1432 1.409 . S
C1431 H1458 0.931 . S
C1432 C1427 1.356 . S
C1432 C1431 1.409 . S
C1432 H1459 0.930 . S
C1433 O1446 1.270 . S
C1433 O1447 1.248 . S
C1434 O1448 1.267 . S
C1434 O1449 1.278 . S
C1435 Pr1425 2.880 . S
C1435 C1436 1.491 . S
C1435 O1450 1.254 . S
C1435 O1451 1.225 . S
C1436 C1435 1.491 . S
C1436 C1437 1.392 . S
C1436 C1441 1.356 . S
C1437 C1436 1.392 . S
C1437 C1438 1.368 . S
C1437 H1460 0.929 . S
C1438 C1437 1.368 . S
C1438 C1439 1.386 . S
C1438 H1461 0.929 . S
C1439 C1438 1.386 . S
C1439 C1440 1.373 . S
C1440 C1439 1.373 . S
C1440 C1441 1.409 . S
C1440 H1462 0.931 . S
C1441 C1436 1.356 . S
C1441 C1440 1.409 . S
C1441 H1463 0.930 . S
C1442 O1452 1.270 . S
C1442 O1453 1.248 . S
C1443 O1454 1.267 . S
C1443 O1455 1.278 . S
O1444 Pr1424 2.562 . S
O1444 C1426 1.254 . S
O1445 Pr1424 2.490 . S
O1445 C1426 1.225 . S
O1446 Pr1424 2.695 . S
O1446 Pr1425 2.436 . S
O1446 C1433 1.270 . S
O1447 Pr1424 2.512 . S
O1447 C1433 1.248 . S
O1448 Pr1425 2.438 . S
O1448 C1434 1.267 . S
O1449 Pr1424 2.437 . S
O1449 C1434 1.278 . S
O1450 Pr1425 2.562 . S
O1450 C1435 1.254 . S
O1451 Pr1425 2.490 . S
O1451 C1435 1.225 . S
O1452 Pr1424 2.436 . S
O1452 Pr1425 2.695 . S
O1452 C1442 1.270 . S
O1453 Pr1425 2.512 . S
O1453 C1442 1.248 . S
O1454 Pr1424 2.438 . S
O1454 C1443 1.267 . S
O1455 Pr1425 2.437 . S
O1455 C1443 1.278 . S
H1456 C1428 0.929 . S
H1457 C1429 0.929 . S
H1458 C1431 0.931 . S
H1459 C1432 0.930 . S
H1460 C1437 0.929 . S
H1461 C1438 0.929 . S
H1462 C1440 0.931 . S
H1463 C1441 0.930 . S
Pr1464 C1466 2.880 . S
Pr1464 O1484 2.562 . S
Pr1464 O1485 2.490 1_554 S
Pr1464 O1486 2.706 . S
Pr1464 O1487 2.512 1_554 S
Pr1464 O1489 2.437 1_554 S
Pr1464 O1492 2.436 . S
Pr1464 O1494 2.438 . S
Pr1465 C1475 2.880 1_455 S
Pr1465 O1486 2.470 . S
Pr1465 O1488 2.438 . S
Pr1465 O1490 2.562 1_455 S
Pr1465 O1491 2.490 1_455 S
Pr1465 O1492 2.695 . S
Pr1465 O1493 2.512 . S
Pr1465 O1495 2.437 . S
C1466 Pr1464 2.880 . S
C1466 C1467 1.491 . S
C1466 O1484 1.254 . S
C1466 O1485 1.225 1_554 S
C1467 C1466 1.491 . S
C1467 C1468 1.392 1_554 S
C1467 C1472 1.356 . S
C1468 C1467 1.392 1_556 S
C1468 C1469 1.368 . S
C1468 H1496 0.929 . S
C1469 C1468 1.368 . S
C1469 C1470 1.386 . S
C1469 H1497 0.929 . S
C1470 C1469 1.386 . S
C1470 C1471 1.373 1_556 S
C1471 C1470 1.373 1_554 S
C1471 C1472 1.409 . S
C1471 H1498 0.931 . S
C1472 C1467 1.356 . S
C1472 C1471 1.409 . S
C1472 H1499 0.930 . S
C1473 O1486 1.228 1_556 S
C1473 O1487 1.248 . S
C1474 O1488 1.267 . S
C1474 O1489 1.278 1_554 S
C1475 Pr1465 2.880 1_655 S
C1475 C1476 1.491 . S
C1475 O1490 1.254 . S
C1475 O1491 1.225 . S
C1476 C1475 1.491 . S
C1476 C1477 1.392 . S
C1476 C1481 1.356 . S
C1477 C1476 1.392 . S
C1477 C1478 1.368 . S
C1477 H1500 0.929 . S
C1478 C1477 1.368 . S
C1478 C1479 1.386 . S
C1478 H1501 0.929 . S
C1479 C1478 1.386 . S
C1479 C1480 1.373 . S
C1480 C1479 1.373 . S
C1480 C1481 1.409 . S
C1480 H1502 0.931 . S
C1481 C1476 1.356 . S
C1481 C1480 1.409 . S
C1481 H1503 0.930 . S
C1482 O1492 1.270 . S
C1482 O1493 1.248 . S
C1483 O1494 1.267 . S
C1483 O1495 1.278 . S
O1484 Pr1464 2.562 . S
O1484 C1466 1.254 . S
O1485 Pr1464 2.490 1_556 S
O1485 C1466 1.225 1_556 S
O1486 Pr1464 2.706 . S
O1486 Pr1465 2.470 . S
O1486 C1473 1.228 1_554 S
O1487 Pr1464 2.512 1_556 S
O1487 C1473 1.248 . S
O1488 Pr1465 2.438 . S
O1488 C1474 1.267 . S
O1489 Pr1464 2.437 1_556 S
O1489 C1474 1.278 1_556 S
O1490 Pr1465 2.562 1_655 S
O1490 C1475 1.254 . S
O1491 Pr1465 2.490 1_655 S
O1491 C1475 1.225 . S
O1492 Pr1464 2.436 . S
O1492 Pr1465 2.695 . S
O1492 C1482 1.270 . S
O1493 Pr1465 2.512 . S
O1493 C1482 1.248 . S
O1494 Pr1464 2.438 . S
O1494 C1483 1.267 . S
O1495 Pr1465 2.437 . S
O1495 C1483 1.278 . S
H1496 C1468 0.929 . S
H1497 C1469 0.929 . S
H1498 C1471 0.931 . S
H1499 C1472 0.930 . S
H1500 C1477 0.929 . S
H1501 C1478 0.929 . S
H1502 C1480 0.931 . S
H1503 C1481 0.930 . S
H1504 C1510 0.930 . S
H1505 C1513 0.930 . S
H1506 C1514 0.930 . S
H1507 C1515 0.930 . S
H1508 C1518 0.930 . S
H1509 C1519 0.930 . S
C1510 H1504 0.930 . S
C1510 C1511 1.355 . S
C1510 C1512 1.415 . S
C1511 C1510 1.355 . S
C1511 C1513 1.419 . S
C1512 C1510 1.415 . S
C1512 C1517 1.425 . S
C1512 C1519 1.409 1_556 S
C1513 H1505 0.930 . S
C1513 C1511 1.419 . S
C1513 C1514 1.362 . S
C1514 H1506 0.930 . S
C1514 C1513 1.362 . S
C1514 C1517 1.409 . S
C1515 H1507 0.930 . S
C1515 C1516 1.355 1_556 S
C1515 C1517 1.415 . S
C1516 C1515 1.355 1_554 S
C1516 C1518 1.419 . S
C1517 C1512 1.425 . S
C1517 C1514 1.409 . S
C1517 C1515 1.415 . S
C1518 H1508 0.930 . S
C1518 C1516 1.419 . S
C1518 C1519 1.362 . S
C1519 H1509 0.930 . S
C1519 C1512 1.409 1_554 S
C1519 C1518 1.362 . S
H1520 C1526 0.930 . S
H1521 C1529 0.930 . S
H1522 C1530 0.930 . S
H1523 C1531 0.930 . S
H1524 C1534 0.930 . S
H1525 C1535 0.930 . S
C1526 H1520 0.930 . S
C1526 C1527 1.355 . S
C1526 C1528 1.415 . S
C1527 C1526 1.355 . S
C1527 C1529 1.419 . S
C1528 C1526 1.415 . S
C1528 C1533 1.425 . S
C1528 C1535 1.409 . S
C1529 H1521 0.930 . S
C1529 C1527 1.419 . S
C1529 C1530 1.362 . S
C1530 H1522 0.930 . S
C1530 C1529 1.362 . S
C1530 C1533 1.409 . S
C1531 H1523 0.930 . S
C1531 C1532 1.355 . S
C1531 C1533 1.415 . S
C1532 C1531 1.355 . S
C1532 C1534 1.419 . S
C1533 C1528 1.425 . S
C1533 C1530 1.409 . S
C1533 C1531 1.415 . S
C1534 H1524 0.930 . S
C1534 C1532 1.419 . S
C1534 C1535 1.362 . S
C1535 H1525 0.930 . S
C1535 C1528 1.409 . S
C1535 C1534 1.362 . S
H1536 C1542 0.930 . S
H1537 C1545 0.930 . S
H1538 C1546 0.930 . S
H1539 C1547 0.930 . S
H1540 C1550 0.961 . S
H1541 C1551 0.930 . S
C1542 H1536 0.930 . S
C1542 C1543 1.355 . S
C1542 C1544 1.415 . S
C1543 C1542 1.355 . S
C1543 C1545 1.419 . S
C1544 C1542 1.415 . S
C1544 C1549 1.425 . S
C1544 C1551 1.409 . S
C1545 H1537 0.930 . S
C1545 C1543 1.419 . S
C1545 C1546 1.362 . S
C1546 H1538 0.930 . S
C1546 C1545 1.362 . S
C1546 C1549 1.409 . S
C1547 H1539 0.930 . S
C1547 C1548 1.355 1_565 S
C1547 C1549 1.415 . S
C1548 C1547 1.355 1_545 S
C1548 C1550 1.417 . S
C1549 C1544 1.425 . S
C1549 C1546 1.409 . S
C1549 C1547 1.415 . S
C1550 H1540 0.961 . S
C1550 C1548 1.417 . S
C1550 C1551 1.334 1_545 S
C1551 H1541 0.930 . S
C1551 C1544 1.409 . S
C1551 C1550 1.334 1_565 S
H1552 C1558 0.930 . S
H1553 C1561 0.930 . S
H1554 C1562 0.930 . S
H1555 C1563 0.930 . S
H1556 C1566 0.930 . S
H1557 C1567 0.930 . S
C1558 H1552 0.930 . S
C1558 C1559 1.355 . S
C1558 C1560 1.415 . S
C1559 C1558 1.355 . S
C1559 C1561 1.419 . S
C1560 C1558 1.415 . S
C1560 C1565 1.425 . S
C1560 C1567 1.409 . S
C1561 H1553 0.930 . S
C1561 C1559 1.419 . S
C1561 C1562 1.362 . S
C1562 H1554 0.930 . S
C1562 C1561 1.362 . S
C1562 C1565 1.409 . S
C1563 H1555 0.930 . S
C1563 C1564 1.355 . S
C1563 C1565 1.415 . S
C1564 C1563 1.355 . S
C1564 C1566 1.419 . S
C1565 C1560 1.425 . S
C1565 C1562 1.409 . S
C1565 C1563 1.415 . S
C1566 H1556 0.930 . S
C1566 C1564 1.419 . S
C1566 C1567 1.362 . S
C1567 H1557 0.930 . S
C1567 C1560 1.409 . S
C1567 C1566 1.362 . S
H1568 C1574 0.930 . S
H1569 C1577 0.930 . S
H1570 C1578 0.930 . S
H1571 C1579 0.930 . S
H1572 C1582 0.930 . S
H1573 C1583 0.930 . S
C1574 H1568 0.930 . S
C1574 C1575 1.355 . S
C1574 C1576 1.415 . S
C1575 C1574 1.355 . S
C1575 C1577 1.419 . S
C1576 C1574 1.415 . S
C1576 C1581 1.425 . S
C1576 C1583 1.409 . S
C1577 H1569 0.930 . S
C1577 C1575 1.419 . S
C1577 C1578 1.362 . S
C1578 H1570 0.930 . S
C1578 C1577 1.362 . S
C1578 C1581 1.409 . S
C1579 H1571 0.930 . S
C1579 C1580 1.355 1_565 S
C1579 C1581 1.415 . S
C1580 C1579 1.355 1_545 S
C1580 C1582 1.419 . S
C1581 C1576 1.425 . S
C1581 C1578 1.409 . S
C1581 C1579 1.415 . S
C1582 H1572 0.930 . S
C1582 C1580 1.419 . S
C1582 C1583 1.362 1_545 S
C1583 H1573 0.930 . S
C1583 C1576 1.409 . S
C1583 C1582 1.362 1_565 S
H1584 C1590 0.930 . S
H1585 C1593 0.930 . S
H1586 C1594 0.930 . S
H1587 C1595 0.930 . S
H1588 C1598 0.930 . S
H1589 C1599 0.930 . S
C1590 H1584 0.930 . S
C1590 C1591 1.355 . S
C1590 C1592 1.415 . S
C1591 C1590 1.355 . S
C1591 C1593 1.419 . S
C1592 C1590 1.415 . S
C1592 C1597 1.425 . S
C1592 C1599 1.409 . S
C1593 H1585 0.930 . S
C1593 C1591 1.419 . S
C1593 C1594 1.362 . S
C1594 H1586 0.930 . S
C1594 C1593 1.362 . S
C1594 C1597 1.409 . S
C1595 H1587 0.930 . S
C1595 C1596 1.355 . S
C1595 C1597 1.415 . S
C1596 C1595 1.355 . S
C1596 C1598 1.419 . S
C1597 C1592 1.425 . S
C1597 C1594 1.409 . S
C1597 C1595 1.415 . S
C1598 H1588 0.930 . S
C1598 C1596 1.419 . S
C1598 C1599 1.362 . S
C1599 H1589 0.930 . S
C1599 C1592 1.409 . S
C1599 C1598 1.362 . S
H1600 C1606 0.930 . S
H1601 C1609 0.930 . S
H1602 C1610 0.930 . S
H1603 C1611 0.930 . S
H1604 C1614 0.930 . S
H1605 C1615 0.930 . S
C1606 H1600 0.930 . S
C1606 C1607 1.355 . S
C1606 C1608 1.415 . S
C1607 C1606 1.355 . S
C1607 C1609 1.419 . S
C1608 C1606 1.415 . S
C1608 C1613 1.425 . S
C1608 C1615 1.409 . S
C1609 H1601 0.930 . S
C1609 C1607 1.419 . S
C1609 C1610 1.362 . S
C1610 H1602 0.930 . S
C1610 C1609 1.362 . S
C1610 C1613 1.409 . S
C1611 H1603 0.930 . S
C1611 C1612 1.355 . S
C1611 C1613 1.415 . S
C1612 C1611 1.355 . S
C1612 C1614 1.419 . S
C1613 C1608 1.425 . S
C1613 C1610 1.409 . S
C1613 C1611 1.415 . S
C1614 H1604 0.930 . S
C1614 C1612 1.419 . S
C1614 C1615 1.362 . S
C1615 H1605 0.930 . S
C1615 C1608 1.409 . S
C1615 C1614 1.362 . S
H1616 C1622 0.930 . S
H1617 C1625 0.930 . S
H1618 C1626 0.930 . S
H1619 C1627 0.930 . S
H1620 C1630 0.930 . S
H1621 C1631 0.930 . S
C1622 H1616 0.930 . S
C1622 C1623 1.355 . S
C1622 C1624 1.415 . S
C1623 C1622 1.355 . S
C1623 C1625 1.419 . S
C1624 C1622 1.415 . S
C1624 C1629 1.425 . S
C1624 C1631 1.409 . S
C1625 H1617 0.930 . S
C1625 C1623 1.419 . S
C1625 C1626 1.362 . S
C1626 H1618 0.930 . S
C1626 C1625 1.362 . S
C1626 C1629 1.409 . S
C1627 H1619 0.930 . S
C1627 C1628 1.355 . S
C1627 C1629 1.415 . S
C1628 C1627 1.355 . S
C1628 C1630 1.419 . S
C1629 C1624 1.425 . S
C1629 C1626 1.409 . S
C1629 C1627 1.415 . S
C1630 H1620 0.930 . S
C1630 C1628 1.419 . S
C1630 C1631 1.362 . S
C1631 H1621 0.930 . S
C1631 C1624 1.409 . S
C1631 C1630 1.362 . S
H1632 C1638 0.930 . S
H1633 C1641 0.930 . S
H1634 C1642 0.930 1_455 S
H1635 C1643 0.930 . S
H1636 C1646 0.930 . S
H1637 C1647 0.930 . S
C1638 H1632 0.930 . S
C1638 C1639 1.355 . S
C1638 C1640 1.415 . S
C1639 C1638 1.355 . S
C1639 C1641 1.419 . S
C1640 C1638 1.415 . S
C1640 C1645 1.425 . S
C1640 C1647 1.409 . S
C1641 H1633 0.930 . S
C1641 C1639 1.419 . S
C1641 C1642 1.362 . S
C1642 H1634 0.930 1_655 S
C1642 C1641 1.362 . S
C1642 C1645 1.409 . S
C1643 H1635 0.930 . S
C1643 C1644 1.355 . S
C1643 C1645 1.415 1_455 S
C1644 C1643 1.355 . S
C1644 C1646 1.419 1_455 S
C1645 C1640 1.425 . S
C1645 C1642 1.409 . S
C1645 C1643 1.415 1_655 S
C1646 H1636 0.930 . S
C1646 C1644 1.419 1_655 S
C1646 C1647 1.362 . S
C1647 H1637 0.930 . S
C1647 C1640 1.409 . S
C1647 C1646 1.362 . S
H1648 C1654 0.930 . S
H1649 C1657 0.930 . S
H1650 C1658 0.930 . S
H1651 C1659 0.930 . S
H1652 C1662 0.930 . S
H1653 C1663 0.930 . S
C1654 H1648 0.930 . S
C1654 C1655 1.355 . S
C1654 C1656 1.415 . S
C1655 C1654 1.355 . S
C1655 C1657 1.419 . S
C1656 C1654 1.415 . S
C1656 C1661 1.425 . S
C1656 C1663 1.409 . S
C1657 H1649 0.930 . S
C1657 C1655 1.419 . S
C1657 C1658 1.362 . S
C1658 H1650 0.930 . S
C1658 C1657 1.362 . S
C1658 C1661 1.409 . S
C1659 H1651 0.930 . S
C1659 C1660 1.355 . S
C1659 C1661 1.415 . S
C1660 C1659 1.355 . S
C1660 C1662 1.419 . S
C1661 C1656 1.425 . S
C1661 C1658 1.409 . S
C1661 C1659 1.415 . S
C1662 H1652 0.930 . S
C1662 C1660 1.419 . S
C1662 C1663 1.362 . S
C1663 H1653 0.930 . S
C1663 C1656 1.409 . S
C1663 C1662 1.362 . S
H1664 C1670 0.930 . S
H1665 C1673 0.930 . S
H1666 C1674 0.930 . S
H1667 C1675 0.930 . S
H1668 C1678 0.930 . S
H1669 C1679 0.930 . S
C1670 H1664 0.930 . S
C1670 C1671 1.380 . S
C1670 C1672 1.415 . S
C1671 C1670 1.380 . S
C1671 C1673 1.409 1_545 S
C1672 C1670 1.415 . S
C1672 C1677 1.425 . S
C1672 C1679 1.409 . S
C1673 H1665 0.930 . S
C1673 C1671 1.409 1_565 S
C1673 C1674 1.362 . S
C1674 H1666 0.930 . S
C1674 C1673 1.362 . S
C1674 C1677 1.409 1_565 S
C1675 H1667 0.930 . S
C1675 C1676 1.355 . S
C1675 C1677 1.415 . S
C1676 C1675 1.355 . S
C1676 C1678 1.419 . S
C1677 C1672 1.425 . S
C1677 C1674 1.409 1_545 S
C1677 C1675 1.415 . S
C1678 H1668 0.930 . S
C1678 C1676 1.419 . S
C1678 C1679 1.362 . S
C1679 H1669 0.930 . S
C1679 C1672 1.409 . S
C1679 C1678 1.362 . S
H1680 C1686 0.930 . S
H1681 C1689 0.930 . S
H1682 C1690 0.930 . S
H1683 C1691 0.930 . S
H1684 C1694 0.930 . S
H1685 C1695 0.930 . S
C1686 H1680 0.930 . S
C1686 C1687 1.355 . S
C1686 C1688 1.415 . S
C1687 C1686 1.355 . S
C1687 C1689 1.419 . S
C1688 C1686 1.415 . S
C1688 C1693 1.425 . S
C1688 C1695 1.409 . S
C1689 H1681 0.930 . S
C1689 C1687 1.419 . S
C1689 C1690 1.362 . S
C1690 H1682 0.930 . S
C1690 C1689 1.362 . S
C1690 C1693 1.409 . S
C1691 H1683 0.930 . S
C1691 C1692 1.355 . S
C1691 C1693 1.415 . S
C1692 C1691 1.355 . S
C1692 C1694 1.419 . S
C1693 C1688 1.425 . S
C1693 C1690 1.409 . S
C1693 C1691 1.415 . S
C1694 H1684 0.930 . S
C1694 C1692 1.419 . S
C1694 C1695 1.362 . S
C1695 H1685 0.930 . S
C1695 C1688 1.409 . S
C1695 C1694 1.362 . S
H1696 C1702 0.930 . S
H1697 C1705 0.930 . S
H1698 C1706 0.930 . S
H1699 C1707 0.930 . S
H1700 C1710 0.930 . S
H1701 C1711 0.930 . S
C1702 H1696 0.930 . S
C1702 C1703 1.355 . S
C1702 C1704 1.415 . S
C1703 C1702 1.355 . S
C1703 C1705 1.419 . S
C1704 C1702 1.415 . S
C1704 C1709 1.425 . S
C1704 C1711 1.409 . S
C1705 H1697 0.930 . S
C1705 C1703 1.419 . S
C1705 C1706 1.362 . S
C1706 H1698 0.930 . S
C1706 C1705 1.362 . S
C1706 C1709 1.409 . S
C1707 H1699 0.930 . S
C1707 C1708 1.355 . S
C1707 C1709 1.415 . S
C1708 C1707 1.355 . S
C1708 C1710 1.419 . S
C1709 C1704 1.425 . S
C1709 C1706 1.409 . S
C1709 C1707 1.415 . S
C1710 H1700 0.930 . S
C1710 C1708 1.419 . S
C1710 C1711 1.362 . S
C1711 H1701 0.930 . S
C1711 C1704 1.409 . S
C1711 C1710 1.362 . S
H1712 C1718 0.930 . S
H1713 C1721 0.930 . S
H1714 C1722 0.930 . S
H1715 C1723 0.930 . S
H1716 C1726 0.930 . S
H1717 C1727 0.930 . S
C1718 H1712 0.930 . S
C1718 C1719 1.355 . S
C1718 C1720 1.415 . S
C1719 C1718 1.355 . S
C1719 C1721 1.419 . S
C1720 C1718 1.415 . S
C1720 C1725 1.425 . S
C1720 C1727 1.409 . S
C1721 H1713 0.930 . S
C1721 C1719 1.419 . S
C1721 C1722 1.362 . S
C1722 H1714 0.930 . S
C1722 C1721 1.362 . S
C1722 C1725 1.409 . S
C1723 H1715 0.930 . S
C1723 C1724 1.355 . S
C1723 C1725 1.415 . S
C1724 C1723 1.355 . S
C1724 C1726 1.419 . S
C1725 C1720 1.425 . S
C1725 C1722 1.409 . S
C1725 C1723 1.415 . S
C1726 H1716 0.930 . S
C1726 C1724 1.419 . S
C1726 C1727 1.362 . S
C1727 H1717 0.930 . S
C1727 C1720 1.409 . S
C1727 C1726 1.362 . S
H1728 C1734 0.930 . S
H1729 C1737 0.930 . S
H1730 C1738 0.930 . S
H1731 C1739 0.930 . S
H1732 C1742 0.930 . S
H1733 C1743 0.930 . S
C1734 H1728 0.930 . S
C1734 C1735 1.355 . S
C1734 C1736 1.415 . S
C1735 C1734 1.355 . S
C1735 C1737 1.419 . S
C1736 C1734 1.415 . S
C1736 C1741 1.425 . S
C1736 C1743 1.409 . S
C1737 H1729 0.930 . S
C1737 C1735 1.419 . S
C1737 C1738 1.362 . S
C1738 H1730 0.930 . S
C1738 C1737 1.362 . S
C1738 C1741 1.409 . S
C1739 H1731 0.930 . S
C1739 C1740 1.355 . S
C1739 C1741 1.415 . S
C1740 C1739 1.355 . S
C1740 C1742 1.419 . S
C1741 C1736 1.425 . S
C1741 C1738 1.409 . S
C1741 C1739 1.415 . S
C1742 H1732 0.930 . S
C1742 C1740 1.419 . S
C1742 C1743 1.362 . S
C1743 H1733 0.930 . S
C1743 C1736 1.409 . S
C1743 C1742 1.362 . S
H1744 C1750 0.930 . S
H1745 C1753 0.930 . S
H1746 C1754 0.930 . S
H1747 C1755 0.930 . S
H1748 C1758 0.930 . S
H1749 C1759 0.930 . S
C1750 H1744 0.930 . S
C1750 C1751 1.355 . S
C1750 C1752 1.415 . S
C1751 C1750 1.355 . S
C1751 C1753 1.419 . S
C1752 C1750 1.415 . S
C1752 C1757 1.425 . S
C1752 C1759 1.409 . S
C1753 H1745 0.930 . S
C1753 C1751 1.419 . S
C1753 C1754 1.362 . S
C1754 H1746 0.930 . S
C1754 C1753 1.362 . S
C1754 C1757 1.409 . S
C1755 H1747 0.930 . S
C1755 C1756 1.355 . S
C1755 C1757 1.415 . S
C1756 C1755 1.355 . S
C1756 C1758 1.419 . S
C1757 C1752 1.425 . S
C1757 C1754 1.409 . S
C1757 C1755 1.415 . S
C1758 H1748 0.930 . S
C1758 C1756 1.419 . S
C1758 C1759 1.362 . S
C1759 H1749 0.930 . S
C1759 C1752 1.409 . S
C1759 C1758 1.362 . S
H1760 C1766 0.930 . S
H1761 C1769 0.930 . S
H1762 C1770 0.930 . S
H1763 C1771 0.930 . S
H1764 C1774 0.930 . S
H1765 C1775 0.930 . S
C1766 H1760 0.930 . S
C1766 C1767 1.355 . S
C1766 C1768 1.415 . S
C1767 C1766 1.355 . S
C1767 C1769 1.419 1_565 S
C1768 C1766 1.415 . S
C1768 C1773 1.425 1_565 S
C1768 C1775 1.409 . S
C1769 H1761 0.930 . S
C1769 C1767 1.419 1_545 S
C1769 C1770 1.362 . S
C1770 H1762 0.930 . S
C1770 C1769 1.362 . S
C1770 C1773 1.409 . S
C1771 H1763 0.930 . S
C1771 C1772 1.355 . S
C1771 C1773 1.415 . S
C1772 C1771 1.355 . S
C1772 C1774 1.419 1_545 S
C1773 C1768 1.425 1_545 S
C1773 C1770 1.409 . S
C1773 C1771 1.415 . S
C1774 H1764 0.930 . S
C1774 C1772 1.419 1_565 S
C1774 C1775 1.362 . S
C1775 H1765 0.930 . S
C1775 C1768 1.409 . S
C1775 C1774 1.362 . S
H1776 C1782 0.930 . S
H1777 C1785 0.930 . S
H1778 C1786 0.930 . S
H1779 C1787 0.930 . S
H1780 C1790 0.930 . S
H1781 C1791 0.930 . S
C1782 H1776 0.930 . S
C1782 C1783 1.355 . S
C1782 C1784 1.415 . S
C1783 C1782 1.355 . S
C1783 C1785 1.419 . S
C1784 C1782 1.415 . S
C1784 C1789 1.425 . S
C1784 C1791 1.409 . S
C1785 H1777 0.930 . S
C1785 C1783 1.419 . S
C1785 C1786 1.362 . S
C1786 H1778 0.930 . S
C1786 C1785 1.362 . S
C1786 C1789 1.409 . S
C1787 H1779 0.930 . S
C1787 C1788 1.355 . S
C1787 C1789 1.415 . S
C1788 C1787 1.355 . S
C1788 C1790 1.419 . S
C1789 C1784 1.425 . S
C1789 C1786 1.409 . S
C1789 C1787 1.415 . S
C1790 H1780 0.930 . S
C1790 C1788 1.419 . S
C1790 C1791 1.362 . S
C1791 H1781 0.930 . S
C1791 C1784 1.409 . S
C1791 C1790 1.362 . S
H1792 C1798 0.930 . S
H1793 C1801 0.930 . S
H1794 C1802 0.930 . S
H1795 C1803 0.930 . S
H1796 C1806 0.930 . S
H1797 C1807 0.930 . S
C1798 H1792 0.930 . S
C1798 C1799 1.355 . S
C1798 C1800 1.415 . S
C1799 C1798 1.355 . S
C1799 C1801 1.419 . S
C1800 C1798 1.415 . S
C1800 C1805 1.425 . S
C1800 C1807 1.409 . S
C1801 H1793 0.930 . S
C1801 C1799 1.419 . S
C1801 C1802 1.362 . S
C1802 H1794 0.930 . S
C1802 C1801 1.362 . S
C1802 C1805 1.409 . S
C1803 H1795 0.930 . S
C1803 C1804 1.355 . S
C1803 C1805 1.415 . S
C1804 C1803 1.355 . S
C1804 C1806 1.419 . S
C1805 C1800 1.425 . S
C1805 C1802 1.409 . S
C1805 C1803 1.415 . S
C1806 H1796 0.930 . S
C1806 C1804 1.419 . S
C1806 C1807 1.362 . S
C1807 H1797 0.930 . S
C1807 C1800 1.409 . S
C1807 C1806 1.362 . S
H1808 C1814 0.930 . S
H1809 C1817 0.930 . S
H1810 C1818 0.930 . S
H1811 C1819 0.930 . S
H1812 C1822 0.930 . S
H1813 C1823 0.930 . S
C1814 H1808 0.930 . S
C1814 C1815 1.355 . S
C1814 C1816 1.415 . S
C1815 C1814 1.355 . S
C1815 C1817 1.419 . S
C1816 C1814 1.415 . S
C1816 C1821 1.425 . S
C1816 C1823 1.409 . S
C1817 H1809 0.930 . S
C1817 C1815 1.419 . S
C1817 C1818 1.362 . S
C1818 H1810 0.930 . S
C1818 C1817 1.362 . S
C1818 C1821 1.409 . S
C1819 H1811 0.930 . S
C1819 C1820 1.355 . S
C1819 C1821 1.415 . S
C1820 C1819 1.355 . S
C1820 C1822 1.419 . S
C1821 C1816 1.425 . S
C1821 C1818 1.409 . S
C1821 C1819 1.415 . S
C1822 H1812 0.930 . S
C1822 C1820 1.419 . S
C1822 C1823 1.362 . S
C1823 H1813 0.930 . S
C1823 C1816 1.409 . S
C1823 C1822 1.362 . S
H1824 C1830 0.930 . S
H1825 C1833 0.930 . S
H1826 C1834 0.930 . S
H1827 C1835 0.930 . S
H1828 C1838 0.930 . S
H1829 C1839 0.930 . S
C1830 H1824 0.930 . S
C1830 C1831 1.355 . S
C1830 C1832 1.415 . S
C1831 C1830 1.355 . S
C1831 C1833 1.419 . S
C1832 C1830 1.415 . S
C1832 C1837 1.425 . S
C1832 C1839 1.409 . S
C1833 H1825 0.930 . S
C1833 C1831 1.419 . S
C1833 C1834 1.362 . S
C1834 H1826 0.930 . S
C1834 C1833 1.362 . S
C1834 C1837 1.409 . S
C1835 H1827 0.930 . S
C1835 C1836 1.355 . S
C1835 C1837 1.415 . S
C1836 C1835 1.355 . S
C1836 C1838 1.419 . S
C1837 C1832 1.425 . S
C1837 C1834 1.409 . S
C1837 C1835 1.415 . S
C1838 H1828 0.930 . S
C1838 C1836 1.419 . S
C1838 C1839 1.362 . S
C1839 H1829 0.930 . S
C1839 C1832 1.409 . S
C1839 C1838 1.362 . S
H1840 C1846 0.930 . S
H1841 C1849 0.930 . S
H1842 C1850 0.930 . S
H1843 C1851 0.930 . S
H1844 C1854 0.930 . S
H1845 C1855 0.930 . S
C1846 H1840 0.930 . S
C1846 C1847 1.355 . S
C1846 C1848 1.415 . S
C1847 C1846 1.355 . S
C1847 C1849 1.419 . S
C1848 C1846 1.415 . S
C1848 C1853 1.425 . S
C1848 C1855 1.409 . S
C1849 H1841 0.930 . S
C1849 C1847 1.419 . S
C1849 C1850 1.362 . S
C1850 H1842 0.930 . S
C1850 C1849 1.362 . S
C1850 C1853 1.409 . S
C1851 H1843 0.930 . S
C1851 C1852 1.355 . S
C1851 C1853 1.415 . S
C1852 C1851 1.355 . S
C1852 C1854 1.419 . S
C1853 C1848 1.425 . S
C1853 C1850 1.409 . S
C1853 C1851 1.415 . S
C1854 H1844 0.930 . S
C1854 C1852 1.419 . S
C1854 C1855 1.362 . S
C1855 H1845 0.930 . S
C1855 C1848 1.409 . S
C1855 C1854 1.362 . S
H1856 C1862 0.930 . S
H1857 C1865 0.930 . S
H1858 C1866 0.930 . S
H1859 C1867 0.930 . S
H1860 C1870 0.930 . S
H1861 C1871 0.930 . S
C1862 H1856 0.930 . S
C1862 C1863 1.355 . S
C1862 C1864 1.415 . S
C1863 C1862 1.355 . S
C1863 C1865 1.419 . S
C1864 C1862 1.415 . S
C1864 C1869 1.425 . S
C1864 C1871 1.409 . S
C1865 H1857 0.930 . S
C1865 C1863 1.419 . S
C1865 C1866 1.362 . S
C1866 H1858 0.930 . S
C1866 C1865 1.362 . S
C1866 C1869 1.409 . S
C1867 H1859 0.930 . S
C1867 C1868 1.355 . S
C1867 C1869 1.415 . S
C1868 C1867 1.355 . S
C1868 C1870 1.419 . S
C1869 C1864 1.425 . S
C1869 C1866 1.409 . S
C1869 C1867 1.415 . S
C1870 H1860 0.930 . S
C1870 C1868 1.419 . S
C1870 C1871 1.362 . S
C1871 H1861 0.930 . S
C1871 C1864 1.409 . S
C1871 C1870 1.362 . S
H1872 C1878 0.930 . S
H1873 C1881 0.930 . S
H1874 C1882 0.930 . S
H1875 C1883 0.930 . S
H1876 C1886 0.930 . S
H1877 C1887 0.930 . S
C1878 H1872 0.930 . S
C1878 C1879 1.355 . S
C1878 C1880 1.415 . S
C1879 C1878 1.355 . S
C1879 C1881 1.419 . S
C1880 C1878 1.415 . S
C1880 C1885 1.425 . S
C1880 C1887 1.409 . S
C1881 H1873 0.930 . S
C1881 C1879 1.419 . S
C1881 C1882 1.362 . S
C1882 H1874 0.930 . S
C1882 C1881 1.362 . S
C1882 C1885 1.409 . S
C1883 H1875 0.930 . S
C1883 C1884 1.355 . S
C1883 C1885 1.415 . S
C1884 C1883 1.355 . S
C1884 C1886 1.419 . S
C1885 C1880 1.425 . S
C1885 C1882 1.409 . S
C1885 C1883 1.415 . S
C1886 H1876 0.930 . S
C1886 C1884 1.419 . S
C1886 C1887 1.362 . S
C1887 H1877 0.930 . S
C1887 C1880 1.409 . S
C1887 C1886 1.362 . S
H1888 C1894 0.930 . S
H1889 C1897 0.930 . S
H1890 C1898 0.930 . S
H1891 C1899 0.930 1_545 S
H1892 C1902 0.930 . S
H1893 C1903 0.930 . S
C1894 H1888 0.930 . S
C1894 C1895 1.355 . S
C1894 C1896 1.415 . S
C1895 C1894 1.355 . S
C1895 C1897 1.419 . S
C1896 C1894 1.415 . S
C1896 C1901 1.425 . S
C1896 C1903 1.409 . S
C1897 H1889 0.930 . S
C1897 C1895 1.419 . S
C1897 C1898 1.362 . S
C1898 H1890 0.930 . S
C1898 C1897 1.362 . S
C1898 C1901 1.409 . S
C1899 H1891 0.930 1_565 S
C1899 C1900 1.355 . S
C1899 C1901 1.415 . S
C1900 C1899 1.355 . S
C1900 C1902 1.419 . S
C1901 C1896 1.425 . S
C1901 C1898 1.409 . S
C1901 C1899 1.415 . S
C1902 H1892 0.930 . S
C1902 C1900 1.419 . S
C1902 C1903 1.362 . S
C1903 H1893 0.930 . S
C1903 C1896 1.409 . S
C1903 C1902 1.362 . S
H1904 C1910 0.930 . S
H1905 C1913 0.930 . S
H1906 C1914 0.930 . S
H1907 C1915 0.930 . S
H1908 C1918 0.930 . S
H1909 C1919 0.930 . S
C1910 H1904 0.930 . S
C1910 C1911 1.355 . S
C1910 C1912 1.415 . S
C1911 C1910 1.355 . S
C1911 C1913 1.419 . S
C1912 C1910 1.415 . S
C1912 C1917 1.425 . S
C1912 C1919 1.409 . S
C1913 H1905 0.930 . S
C1913 C1911 1.419 . S
C1913 C1914 1.362 . S
C1914 H1906 0.930 . S
C1914 C1913 1.362 . S
C1914 C1917 1.409 . S
C1915 H1907 0.930 . S
C1915 C1916 1.355 . S
C1915 C1917 1.415 . S
C1916 C1915 1.355 . S
C1916 C1918 1.419 . S
C1917 C1912 1.425 . S
C1917 C1914 1.409 . S
C1917 C1915 1.415 . S
C1918 H1908 0.930 . S
C1918 C1916 1.419 . S
C1918 C1919 1.362 . S
C1919 H1909 0.930 . S
C1919 C1912 1.409 . S
C1919 C1918 1.362 . S
H1920 C1926 0.930 . S
H1921 C1929 0.930 . S
H1922 C1930 0.930 . S
H1923 C1931 0.930 . S
H1924 C1934 0.930 . S
H1925 C1935 0.930 . S
C1926 H1920 0.930 . S
C1926 C1927 1.355 . S
C1926 C1928 1.415 . S
C1927 C1926 1.355 . S
C1927 C1929 1.419 . S
C1928 C1926 1.415 . S
C1928 C1933 1.425 . S
C1928 C1935 1.409 . S
C1929 H1921 0.930 . S
C1929 C1927 1.419 . S
C1929 C1930 1.362 . S
C1930 H1922 0.930 . S
C1930 C1929 1.362 . S
C1930 C1933 1.409 . S
C1931 H1923 0.930 . S
C1931 C1932 1.355 . S
C1931 C1933 1.415 . S
C1932 C1931 1.355 . S
C1932 C1934 1.419 . S
C1933 C1928 1.425 . S
C1933 C1930 1.409 . S
C1933 C1931 1.415 . S
C1934 H1924 0.930 . S
C1934 C1932 1.419 . S
C1934 C1935 1.362 . S
C1935 H1925 0.930 . S
C1935 C1928 1.409 . S
C1935 C1934 1.362 . S
H1936 C1942 0.930 . S
H1937 C1945 0.930 . S
H1938 C1946 0.930 . S
H1939 C1947 0.930 . S
H1940 C1950 0.930 . S
H1941 C1951 0.930 . S
C1942 H1936 0.930 . S
C1942 C1943 1.355 . S
C1942 C1944 1.415 . S
C1943 C1942 1.355 . S
C1943 C1945 1.419 . S
C1944 C1942 1.415 . S
C1944 C1949 1.425 . S
C1944 C1951 1.409 . S
C1945 H1937 0.930 . S
C1945 C1943 1.419 . S
C1945 C1946 1.362 . S
C1946 H1938 0.930 . S
C1946 C1945 1.362 . S
C1946 C1949 1.409 . S
C1947 H1939 0.930 . S
C1947 C1948 1.355 . S
C1947 C1949 1.415 . S
C1948 C1947 1.355 . S
C1948 C1950 1.419 . S
C1949 C1944 1.425 . S
C1949 C1946 1.409 . S
C1949 C1947 1.415 . S
C1950 H1940 0.930 . S
C1950 C1948 1.419 . S
C1950 C1951 1.362 . S
C1951 H1941 0.930 . S
C1951 C1944 1.409 . S
C1951 C1950 1.362 . S
H1952 C1958 0.930 . S
H1953 C1961 0.930 . S
H1954 C1962 0.930 . S
H1955 C1963 0.930 1_655 S
H1956 C1966 0.930 . S
H1957 C1967 0.930 . S
C1958 H1952 0.930 . S
C1958 C1959 1.355 . S
C1958 C1960 1.415 . S
C1959 C1958 1.355 . S
C1959 C1961 1.419 1_455 S
C1960 C1958 1.415 . S
C1960 C1965 1.425 . S
C1960 C1967 1.409 . S
C1961 H1953 0.930 . S
C1961 C1959 1.419 1_655 S
C1961 C1962 1.362 . S
C1962 H1954 0.930 . S
C1962 C1961 1.362 . S
C1962 C1965 1.409 1_655 S
C1963 H1955 0.930 1_455 S
C1963 C1964 1.355 . S
C1963 C1965 1.415 . S
C1964 C1963 1.355 . S
C1964 C1966 1.419 . S
C1965 C1960 1.425 . S
C1965 C1962 1.409 1_455 S
C1965 C1963 1.415 . S
C1966 H1956 0.930 . S
C1966 C1964 1.419 . S
C1966 C1967 1.362 . S
C1967 H1957 0.930 . S
C1967 C1960 1.409 . S
C1967 C1966 1.362 . S
H1968 C1974 0.930 . S
H1969 C1977 0.930 . S
H1970 C1978 0.930 . S
H1971 C1979 0.930 . S
H1972 C1982 0.930 . S
H1973 C1983 0.930 . S
C1974 H1968 0.930 . S
C1974 C1975 1.355 . S
C1974 C1976 1.415 . S
C1975 C1974 1.355 . S
C1975 C1977 1.419 . S
C1976 C1974 1.415 . S
C1976 C1981 1.425 . S
C1976 C1983 1.409 . S
C1977 H1969 0.930 . S
C1977 C1975 1.419 . S
C1977 C1978 1.362 . S
C1978 H1970 0.930 . S
C1978 C1977 1.362 . S
C1978 C1981 1.409 . S
C1979 H1971 0.930 . S
C1979 C1980 1.355 . S
C1979 C1981 1.415 . S
C1980 C1979 1.355 . S
C1980 C1982 1.419 . S
C1981 C1976 1.425 . S
C1981 C1978 1.409 . S
C1981 C1979 1.415 . S
C1982 H1972 0.930 . S
C1982 C1980 1.419 . S
C1982 C1983 1.362 . S
C1983 H1973 0.930 . S
C1983 C1976 1.409 . S
C1983 C1982 1.362 . S
H1984 C1990 0.930 . S
H1985 C1993 0.930 . S
H1986 C1994 0.930 . S
H1987 C1995 0.930 1_545 S
H1988 C1998 0.930 . S
H1989 C1999 0.914 1_554 S
C1990 H1984 0.930 . S
C1990 C1991 1.355 . S
C1990 C1992 1.415 . S
C1991 C1990 1.355 . S
C1991 C1993 1.419 . S
C1992 C1990 1.415 . S
C1992 C1997 1.425 . S
C1992 C1999 1.435 . S
C1993 H1985 0.930 . S
C1993 C1991 1.419 . S
C1993 C1994 1.362 . S
C1994 H1986 0.930 . S
C1994 C1993 1.362 . S
C1994 C1997 1.409 . S
C1995 H1987 0.930 1_565 S
C1995 C1996 1.355 1_556 S
C1995 C1997 1.415 . S
C1996 C1995 1.355 1_554 S
C1996 C1998 1.419 . S
C1997 C1992 1.425 . S
C1997 C1994 1.409 . S
C1997 C1995 1.415 . S
C1998 H1988 0.930 . S
C1998 C1996 1.419 . S
C1998 C1999 1.353 1_554 S
C1999 H1989 0.914 1_556 S
C1999 C1992 1.435 . S
C1999 C1998 1.353 1_556 S
H2000 C2006 0.930 . S
H2001 C2009 0.930 . S
H2002 C2010 0.930 . S
H2003 C2011 0.930 . S
H2004 C2014 0.930 . S
H2005 C2015 0.930 . S
C2006 H2000 0.930 . S
C2006 C2007 1.355 . S
C2006 C2008 1.415 . S
C2007 C2006 1.355 . S
C2007 C2009 1.419 . S
C2008 C2006 1.415 . S
C2008 C2013 1.425 . S
C2008 C2015 1.409 1_455 S
C2009 H2001 0.930 . S
C2009 C2007 1.419 . S
C2009 C2010 1.362 . S
C2010 H2002 0.930 . S
C2010 C2009 1.362 . S
C2010 C2013 1.409 . S
C2011 H2003 0.930 . S
C2011 C2012 1.355 1_455 S
C2011 C2013 1.415 . S
C2012 C2011 1.355 1_655 S
C2012 C2014 1.419 . S
C2013 C2008 1.425 . S
C2013 C2010 1.409 . S
C2013 C2011 1.415 . S
C2014 H2004 0.930 . S
C2014 C2012 1.419 . S
C2014 C2015 1.362 . S
C2015 H2005 0.930 . S
C2015 C2008 1.409 1_655 S
C2015 C2014 1.362 . S
H2016 C2022 0.930 . S
H2017 C2025 0.930 . S
H2018 C2026 0.930 . S
H2019 C2027 0.930 . S
H2020 C2030 0.930 . S
H2021 C2031 0.930 . S
C2022 H2016 0.930 . S
C2022 C2023 1.355 . S
C2022 C2024 1.415 . S
C2023 C2022 1.355 . S
C2023 C2025 1.419 . S
C2024 C2022 1.415 . S
C2024 C2029 1.425 . S
C2024 C2031 1.409 . S
C2025 H2017 0.930 . S
C2025 C2023 1.419 . S
C2025 C2026 1.362 . S
C2026 H2018 0.930 . S
C2026 C2025 1.362 . S
C2026 C2029 1.409 . S
C2027 H2019 0.930 . S
C2027 C2028 1.355 . S
C2027 C2029 1.415 . S
C2028 C2027 1.355 . S
C2028 C2030 1.419 . S
C2029 C2024 1.425 . S
C2029 C2026 1.409 . S
C2029 C2027 1.415 . S
C2030 H2020 0.930 . S
C2030 C2028 1.419 . S
C2030 C2031 1.362 . S
C2031 H2021 0.930 . S
C2031 C2024 1.409 . S
C2031 C2030 1.362 . S
H2032 C2038 0.930 . S
H2033 C2041 0.930 . S
H2034 C2042 0.930 . S
H2035 C2043 0.930 . S
H2036 C2046 0.930 . S
H2037 C2047 0.930 . S
C2038 H2032 0.930 . S
C2038 C2039 1.355 . S
C2038 C2040 1.415 . S
C2039 C2038 1.355 . S
C2039 C2041 1.419 . S
C2040 C2038 1.415 . S
C2040 C2045 1.425 . S
C2040 C2047 1.409 . S
C2041 H2033 0.930 . S
C2041 C2039 1.419 . S
C2041 C2042 1.362 . S
C2042 H2034 0.930 . S
C2042 C2041 1.362 . S
C2042 C2045 1.409 . S
C2043 H2035 0.930 . S
C2043 C2044 1.355 . S
C2043 C2045 1.415 . S
C2044 C2043 1.355 . S
C2044 C2046 1.419 . S
C2045 C2040 1.425 . S
C2045 C2042 1.409 . S
C2045 C2043 1.415 . S
C2046 H2036 0.930 . S
C2046 C2044 1.419 . S
C2046 C2047 1.362 . S
C2047 H2037 0.930 . S
C2047 C2040 1.409 . S
C2047 C2046 1.362 . S
H2048 C2054 0.930 . S
H2049 C2057 0.930 . S
H2050 C2058 0.930 . S
H2051 C2059 0.930 . S
H2052 C2062 0.930 . S
H2053 C2063 0.930 . S
C2054 H2048 0.930 . S
C2054 C2055 1.355 . S
C2054 C2056 1.415 . S
C2055 C2054 1.355 . S
C2055 C2057 1.419 . S
C2056 C2054 1.415 . S
C2056 C2061 1.425 . S
C2056 C2063 1.409 . S
C2057 H2049 0.930 . S
C2057 C2055 1.419 . S
C2057 C2058 1.362 . S
C2058 H2050 0.930 . S
C2058 C2057 1.362 . S
C2058 C2061 1.409 . S
C2059 H2051 0.930 . S
C2059 C2060 1.355 . S
C2059 C2061 1.415 . S
C2060 C2059 1.355 . S
C2060 C2062 1.419 . S
C2061 C2056 1.425 . S
C2061 C2058 1.409 . S
C2061 C2059 1.415 . S
C2062 H2052 0.930 . S
C2062 C2060 1.419 . S
C2062 C2063 1.362 . S
C2063 H2053 0.930 . S
C2063 C2056 1.409 . S
C2063 C2062 1.362 . S
H2064 C2070 0.930 . S
H2065 C2073 0.930 . S
H2066 C2074 0.930 . S
H2067 C2075 0.930 . S
H2068 C2078 0.930 . S
H2069 C2079 0.930 . S
C2070 H2064 0.930 . S
C2070 C2071 1.355 . S
C2070 C2072 1.415 . S
C2071 C2070 1.355 . S
C2071 C2073 1.419 . S
C2072 C2070 1.415 . S
C2072 C2077 1.425 . S
C2072 C2079 1.409 . S
C2073 H2065 0.930 . S
C2073 C2071 1.419 . S
C2073 C2074 1.362 . S
C2074 H2066 0.930 . S
C2074 C2073 1.362 . S
C2074 C2077 1.409 . S
C2075 H2067 0.930 . S
C2075 C2076 1.355 . S
C2075 C2077 1.415 . S
C2076 C2075 1.355 . S
C2076 C2078 1.419 . S
C2077 C2072 1.425 . S
C2077 C2074 1.409 . S
C2077 C2075 1.415 . S
C2078 H2068 0.930 . S
C2078 C2076 1.419 . S
C2078 C2079 1.362 . S
C2079 H2069 0.930 . S
C2079 C2072 1.409 . S
C2079 C2078 1.362 . S
H2080 C2086 0.930 . S
H2081 C2089 0.930 . S
H2082 C2090 0.930 . S
H2083 C2091 0.930 . S
H2084 C2094 0.930 . S
H2085 C2095 0.930 . S
C2086 H2080 0.930 . S
C2086 C2087 1.355 . S
C2086 C2088 1.415 . S
C2087 C2086 1.355 . S
C2087 C2089 1.419 . S
C2088 C2086 1.415 . S
C2088 C2093 1.425 . S
C2088 C2095 1.409 . S
C2089 H2081 0.930 . S
C2089 C2087 1.419 . S
C2089 C2090 1.362 . S
C2090 H2082 0.930 . S
C2090 C2089 1.362 . S
C2090 C2093 1.409 . S
C2091 H2083 0.930 . S
C2091 C2092 1.355 . S
C2091 C2093 1.415 . S
C2092 C2091 1.355 . S
C2092 C2094 1.419 . S
C2093 C2088 1.425 . S
C2093 C2090 1.409 . S
C2093 C2091 1.415 . S
C2094 H2084 0.930 . S
C2094 C2092 1.419 . S
C2094 C2095 1.362 . S
C2095 H2085 0.930 . S
C2095 C2088 1.409 . S
C2095 C2094 1.362 . S
H2096 C2102 0.930 . S
H2097 C2105 0.930 . S
H2098 C2106 0.930 . S
H2099 C2107 0.930 . S
H2100 C2110 0.930 . S
H2101 C2111 0.930 . S
C2102 H2096 0.930 . S
C2102 C2103 1.355 . S
C2102 C2104 1.415 . S
C2103 C2102 1.355 . S
C2103 C2105 1.419 . S
C2104 C2102 1.415 . S
C2104 C2109 1.425 . S
C2104 C2111 1.409 . S
C2105 H2097 0.930 . S
C2105 C2103 1.419 . S
C2105 C2106 1.362 . S
C2106 H2098 0.930 . S
C2106 C2105 1.362 . S
C2106 C2109 1.409 . S
C2107 H2099 0.930 . S
C2107 C2108 1.355 . S
C2107 C2109 1.415 . S
C2108 C2107 1.355 . S
C2108 C2110 1.419 . S
C2109 C2104 1.425 . S
C2109 C2106 1.409 . S
C2109 C2107 1.415 . S
C2110 H2100 0.930 . S
C2110 C2108 1.419 . S
C2110 C2111 1.362 . S
C2111 H2101 0.930 . S
C2111 C2104 1.409 . S
C2111 C2110 1.362 . S
H2112 C2118 0.930 . S
H2113 C2121 0.930 . S
H2114 C2122 0.930 . S
H2115 C2123 0.930 . S
H2116 C2126 0.930 . S
H2117 C2127 0.930 . S
C2118 H2112 0.930 . S
C2118 C2119 1.355 . S
C2118 C2120 1.415 . S
C2119 C2118 1.355 . S
C2119 C2121 1.419 . S
C2120 C2118 1.415 . S
C2120 C2125 1.425 . S
C2120 C2127 1.409 . S
C2121 H2113 0.930 . S
C2121 C2119 1.419 . S
C2121 C2122 1.362 . S
C2122 H2114 0.930 . S
C2122 C2121 1.362 . S
C2122 C2125 1.409 . S
C2123 H2115 0.930 . S
C2123 C2124 1.355 . S
C2123 C2125 1.415 . S
C2124 C2123 1.355 . S
C2124 C2126 1.419 . S
C2125 C2120 1.425 . S
C2125 C2122 1.409 . S
C2125 C2123 1.415 . S
C2126 H2116 0.930 . S
C2126 C2124 1.419 . S
C2126 C2127 1.362 . S
C2127 H2117 0.930 . S
C2127 C2120 1.409 . S
C2127 C2126 1.362 . S
H2128 C2134 0.930 . S
H2129 C2137 0.930 . S
H2130 C2138 0.930 . S
H2131 C2139 0.930 . S
H2132 C2142 0.930 . S
H2133 C2143 0.930 . S
C2134 H2128 0.930 . S
C2134 C2135 1.355 . S
C2134 C2136 1.415 . S
C2135 C2134 1.355 . S
C2135 C2137 1.419 . S
C2136 C2134 1.415 . S
C2136 C2141 1.425 . S
C2136 C2143 1.409 . S
C2137 H2129 0.930 . S
C2137 C2135 1.419 . S
C2137 C2138 1.362 . S
C2138 H2130 0.930 . S
C2138 C2137 1.362 . S
C2138 C2141 1.409 . S
C2139 H2131 0.930 . S
C2139 C2140 1.355 . S
C2139 C2141 1.415 . S
C2140 C2139 1.355 . S
C2140 C2142 1.419 . S
C2141 C2136 1.425 . S
C2141 C2138 1.409 . S
C2141 C2139 1.415 . S
C2142 H2132 0.930 . S
C2142 C2140 1.419 . S
C2142 C2143 1.362 . S
C2143 H2133 0.930 . S
C2143 C2136 1.409 . S
C2143 C2142 1.362 . S
H2144 C2150 0.930 . S
H2145 C2153 0.930 . S
H2146 C2154 0.930 . S
H2147 C2155 0.930 . S
H2148 C2158 0.930 . S
H2149 C2159 0.930 1_554 S
C2150 H2144 0.930 . S
C2150 C2151 1.355 1_554 S
C2150 C2152 1.415 1_554 S
C2151 C2150 1.355 1_556 S
C2151 C2153 1.419 . S
C2152 C2150 1.415 1_556 S
C2152 C2157 1.425 . S
C2152 C2159 1.409 . S
C2153 H2145 0.930 . S
C2153 C2151 1.419 . S
C2153 C2154 1.362 . S
C2154 H2146 0.930 . S
C2154 C2153 1.362 . S
C2154 C2157 1.409 . S
C2155 H2147 0.930 . S
C2155 C2156 1.355 . S
C2155 C2157 1.415 . S
C2156 C2155 1.355 . S
C2156 C2158 1.419 . S
C2157 C2152 1.425 . S
C2157 C2154 1.409 . S
C2157 C2155 1.415 . S
C2158 H2148 0.930 . S
C2158 C2156 1.419 . S
C2158 C2159 1.362 . S
C2159 H2149 0.930 1_556 S
C2159 C2152 1.409 . S
C2159 C2158 1.362 . S
H2160 C2166 0.930 . S
H2161 C2169 0.930 . S
H2162 C2170 0.930 . S
H2163 C2171 0.930 . S
H2164 C2174 0.930 . S
H2165 C2175 0.930 . S
C2166 H2160 0.930 . S
C2166 C2167 1.355 . S
C2166 C2168 1.415 . S
C2167 C2166 1.355 . S
C2167 C2169 1.419 . S
C2168 C2166 1.415 . S
C2168 C2173 1.425 . S
C2168 C2175 1.409 . S
C2169 H2161 0.930 . S
C2169 C2167 1.419 . S
C2169 C2170 1.362 . S
C2170 H2162 0.930 . S
C2170 C2169 1.362 . S
C2170 C2173 1.409 . S
C2171 H2163 0.930 . S
C2171 C2172 1.355 . S
C2171 C2173 1.415 . S
C2172 C2171 1.355 . S
C2172 C2174 1.419 . S
C2173 C2168 1.425 . S
C2173 C2170 1.409 . S
C2173 C2171 1.415 . S
C2174 H2164 0.930 . S
C2174 C2172 1.419 . S
C2174 C2175 1.362 . S
C2175 H2165 0.930 . S
C2175 C2168 1.409 . S
C2175 C2174 1.362 . S
H2176 C2182 0.930 . S
H2177 C2185 0.930 . S
H2178 C2186 0.930 . S
H2179 C2187 0.930 . S
H2180 C2190 0.930 . S
H2181 C2191 0.930 . S
C2182 H2176 0.930 . S
C2182 C2183 1.355 . S
C2182 C2184 1.415 . S
C2183 C2182 1.355 . S
C2183 C2185 1.419 . S
C2184 C2182 1.415 . S
C2184 C2189 1.425 . S
C2184 C2191 1.409 . S
C2185 H2177 0.930 . S
C2185 C2183 1.419 . S
C2185 C2186 1.362 . S
C2186 H2178 0.930 . S
C2186 C2185 1.362 . S
C2186 C2189 1.409 . S
C2187 H2179 0.930 . S
C2187 C2188 1.355 . S
C2187 C2189 1.415 . S
C2188 C2187 1.355 . S
C2188 C2190 1.419 . S
C2189 C2184 1.425 . S
C2189 C2186 1.409 . S
C2189 C2187 1.415 . S
C2190 H2180 0.930 . S
C2190 C2188 1.419 . S
C2190 C2191 1.362 . S
C2191 H2181 0.930 . S
C2191 C2184 1.409 . S
C2191 C2190 1.362 . S
H2192 C2198 0.930 . S
H2193 C2201 0.930 . S
H2194 C2202 0.930 . S
H2195 C2203 0.930 . S
H2196 C2206 0.930 . S
H2197 C2207 0.930 . S
C2198 H2192 0.930 . S
C2198 C2199 1.355 . S
C2198 C2200 1.415 . S
C2199 C2198 1.355 . S
C2199 C2201 1.419 . S
C2200 C2198 1.415 . S
C2200 C2205 1.425 . S
C2200 C2207 1.409 . S
C2201 H2193 0.930 . S
C2201 C2199 1.419 . S
C2201 C2202 1.362 . S
C2202 H2194 0.930 . S
C2202 C2201 1.362 . S
C2202 C2205 1.409 . S
C2203 H2195 0.930 . S
C2203 C2204 1.355 . S
C2203 C2205 1.415 . S
C2204 C2203 1.355 . S
C2204 C2206 1.419 . S
C2205 C2200 1.425 . S
C2205 C2202 1.409 . S
C2205 C2203 1.415 . S
C2206 H2196 0.930 . S
C2206 C2204 1.419 . S
C2206 C2207 1.362 . S
C2207 H2197 0.930 . S
C2207 C2200 1.409 . S
C2207 C2206 1.362 . S
H2208 C2214 0.930 . S
H2209 C2217 0.930 . S
H2210 C2218 0.930 . S
H2211 C2219 0.930 . S
H2212 C2222 0.930 . S
H2213 C2223 0.930 . S
C2214 H2208 0.930 . S
C2214 C2215 1.355 . S
C2214 C2216 1.415 . S
C2215 C2214 1.355 . S
C2215 C2217 1.419 . S
C2216 C2214 1.415 . S
C2216 C2221 1.425 . S
C2216 C2223 1.409 . S
C2217 H2209 0.930 . S
C2217 C2215 1.419 . S
C2217 C2218 1.362 . S
C2218 H2210 0.930 . S
C2218 C2217 1.362 . S
C2218 C2221 1.409 . S
C2219 H2211 0.930 . S
C2219 C2220 1.355 . S
C2219 C2221 1.415 . S
C2220 C2219 1.355 . S
C2220 C2222 1.419 . S
C2221 C2216 1.425 . S
C2221 C2218 1.409 . S
C2221 C2219 1.415 . S
C2222 H2212 0.930 . S
C2222 C2220 1.419 . S
C2222 C2223 1.362 . S
C2223 H2213 0.930 . S
C2223 C2216 1.409 . S
C2223 C2222 1.362 . S
H2224 C2230 0.930 . S
H2225 C2233 0.930 . S
H2226 C2234 0.930 1_545 S
H2227 C2235 0.930 . S
H2228 C2238 0.930 . S
H2229 C2239 0.930 . S
C2230 H2224 0.930 . S
C2230 C2231 1.355 . S
C2230 C2232 1.415 . S
C2231 C2230 1.355 . S
C2231 C2233 1.419 . S
C2232 C2230 1.415 . S
C2232 C2237 1.425 . S
C2232 C2239 1.409 . S
C2233 H2225 0.930 . S
C2233 C2231 1.419 . S
C2233 C2234 1.362 . S
C2234 H2226 0.930 1_565 S
C2234 C2233 1.362 . S
C2234 C2237 1.409 . S
C2235 H2227 0.930 . S
C2235 C2236 1.355 . S
C2235 C2237 1.415 1_545 S
C2236 C2235 1.355 . S
C2236 C2238 1.419 1_545 S
C2237 C2232 1.425 . S
C2237 C2234 1.409 . S
C2237 C2235 1.415 1_565 S
C2238 H2228 0.930 . S
C2238 C2236 1.419 1_565 S
C2238 C2239 1.362 . S
C2239 H2229 0.930 . S
C2239 C2232 1.409 . S
C2239 C2238 1.362 . S
H2240 C2246 0.930 . S
H2241 C2249 0.930 . S
H2242 C2250 0.930 . S
H2243 C2251 0.930 . S
H2244 C2254 0.930 . S
H2245 C2255 0.930 . S
C2246 H2240 0.930 . S
C2246 C2247 1.355 . S
C2246 C2248 1.415 . S
C2247 C2246 1.355 . S
C2247 C2249 1.419 . S
C2248 C2246 1.415 . S
C2248 C2253 1.425 . S
C2248 C2255 1.409 . S
C2249 H2241 0.930 . S
C2249 C2247 1.419 . S
C2249 C2250 1.362 . S
C2250 H2242 0.930 . S
C2250 C2249 1.362 . S
C2250 C2253 1.409 . S
C2251 H2243 0.930 . S
C2251 C2252 1.355 . S
C2251 C2253 1.415 . S
C2252 C2251 1.355 . S
C2252 C2254 1.419 . S
C2253 C2248 1.425 . S
C2253 C2250 1.409 . S
C2253 C2251 1.415 . S
C2254 H2244 0.930 . S
C2254 C2252 1.419 . S
C2254 C2255 1.362 . S
C2255 H2245 0.930 . S
C2255 C2248 1.409 . S
C2255 C2254 1.362 . S
H2256 C2262 0.930 . S
H2257 C2265 0.930 . S
H2258 C2266 0.930 . S
H2259 C2267 0.930 . S
H2260 C2270 0.930 . S
H2261 C2271 0.930 . S
C2262 H2256 0.930 . S
C2262 C2263 1.355 . S
C2262 C2264 1.415 . S
C2263 C2262 1.355 . S
C2263 C2265 1.419 . S
C2264 C2262 1.415 . S
C2264 C2269 1.425 . S
C2264 C2271 1.409 . S
C2265 H2257 0.930 . S
C2265 C2263 1.419 . S
C2265 C2266 1.362 . S
C2266 H2258 0.930 . S
C2266 C2265 1.362 . S
C2266 C2269 1.409 . S
C2267 H2259 0.930 . S
C2267 C2268 1.355 . S
C2267 C2269 1.415 . S
C2268 C2267 1.355 . S
C2268 C2270 1.419 . S
C2269 C2264 1.425 . S
C2269 C2266 1.409 . S
C2269 C2267 1.415 . S
C2270 H2260 0.930 . S
C2270 C2268 1.419 . S
C2270 C2271 1.362 . S
C2271 H2261 0.930 . S
C2271 C2264 1.409 . S
C2271 C2270 1.362 . S
H2272 C2278 0.930 . S
H2273 C2281 0.930 . S
H2274 C2282 0.930 . S
H2275 C2283 0.930 . S
H2276 C2286 0.930 . S
H2277 C2287 0.930 . S
C2278 H2272 0.930 . S
C2278 C2279 1.355 . S
C2278 C2280 1.415 . S
C2279 C2278 1.355 . S
C2279 C2281 1.419 . S
C2280 C2278 1.415 . S
C2280 C2285 1.425 . S
C2280 C2287 1.409 . S
C2281 H2273 0.930 . S
C2281 C2279 1.419 . S
C2281 C2282 1.362 . S
C2282 H2274 0.930 . S
C2282 C2281 1.362 . S
C2282 C2285 1.409 . S
C2283 H2275 0.930 . S
C2283 C2284 1.355 . S
C2283 C2285 1.415 . S
C2284 C2283 1.355 . S
C2284 C2286 1.419 . S
C2285 C2280 1.425 . S
C2285 C2282 1.409 . S
C2285 C2283 1.415 . S
C2286 H2276 0.930 . S
C2286 C2284 1.419 . S
C2286 C2287 1.362 . S
C2287 H2277 0.930 . S
C2287 C2280 1.409 . S
C2287 C2286 1.362 . S
H2288 C2294 0.930 . S
H2289 C2297 0.930 . S
H2290 C2298 0.930 . S
H2291 C2299 0.930 . S
H2292 C2302 0.930 . S
H2293 C2303 0.930 . S
C2294 H2288 0.930 . S
C2294 C2295 1.355 . S
C2294 C2296 1.415 . S
C2295 C2294 1.355 . S
C2295 C2297 1.419 . S
C2296 C2294 1.415 . S
C2296 C2301 1.425 . S
C2296 C2303 1.409 . S
C2297 H2289 0.930 . S
C2297 C2295 1.419 . S
C2297 C2298 1.362 . S
C2298 H2290 0.930 . S
C2298 C2297 1.362 . S
C2298 C2301 1.409 . S
C2299 H2291 0.930 . S
C2299 C2300 1.355 . S
C2299 C2301 1.415 . S
C2300 C2299 1.355 . S
C2300 C2302 1.419 . S
C2301 C2296 1.425 . S
C2301 C2298 1.409 . S
C2301 C2299 1.415 . S
C2302 H2292 0.930 . S
C2302 C2300 1.419 . S
C2302 C2303 1.362 . S
C2303 H2293 0.930 . S
C2303 C2296 1.409 . S
C2303 C2302 1.362 . S
H2304 C2310 0.930 . S
H2305 C2313 0.930 . S
H2306 C2314 0.930 . S
H2307 C2315 0.930 . S
H2308 C2318 0.930 . S
H2309 C2319 0.930 . S
C2310 H2304 0.930 . S
C2310 C2311 1.355 . S
C2310 C2312 1.415 . S
C2311 C2310 1.355 . S
C2311 C2313 1.419 . S
C2312 C2310 1.415 . S
C2312 C2317 1.425 . S
C2312 C2319 1.409 1_556 S
C2313 H2305 0.930 . S
C2313 C2311 1.419 . S
C2313 C2314 1.362 . S
C2314 H2306 0.930 . S
C2314 C2313 1.362 . S
C2314 C2317 1.409 . S
C2315 H2307 0.930 . S
C2315 C2316 1.355 . S
C2315 C2317 1.415 . S
C2316 C2315 1.355 . S
C2316 C2318 1.419 1_556 S
C2317 C2312 1.425 . S
C2317 C2314 1.409 . S
C2317 C2315 1.415 . S
C2318 H2308 0.930 . S
C2318 C2316 1.419 1_554 S
C2318 C2319 1.362 . S
C2319 H2309 0.930 . S
C2319 C2312 1.409 1_554 S
C2319 C2318 1.362 . S
H2320 C2326 0.930 . S
H2321 C2329 0.930 . S
H2322 C2330 0.930 . S
H2323 C2331 0.930 . S
H2324 C2334 0.930 . S
H2325 C2335 0.930 . S
C2326 H2320 0.930 . S
C2326 C2327 1.355 . S
C2326 C2328 1.415 1_455 S
C2327 C2326 1.355 . S
C2327 C2329 1.419 . S
C2328 C2326 1.415 1_655 S
C2328 C2333 1.425 . S
C2328 C2335 1.409 . S
C2329 H2321 0.930 . S
C2329 C2327 1.419 . S
C2329 C2330 1.362 1_455 S
C2330 H2322 0.930 . S
C2330 C2329 1.362 1_655 S
C2330 C2333 1.409 . S
C2331 H2323 0.930 . S
C2331 C2332 1.355 . S
C2331 C2333 1.415 . S
C2332 C2331 1.355 . S
C2332 C2334 1.419 . S
C2333 C2328 1.425 . S
C2333 C2330 1.409 . S
C2333 C2331 1.415 . S
C2334 H2324 0.930 . S
C2334 C2332 1.419 . S
C2334 C2335 1.362 . S
C2335 H2325 0.930 . S
C2335 C2328 1.409 . S
C2335 C2334 1.362 . S
H2336 C2342 0.930 . S
H2337 C2345 0.930 . S
H2338 C2346 0.930 . S
H2339 C2347 0.930 . S
H2340 C2350 0.930 . S
H2341 C2351 0.930 . S
C2342 H2336 0.930 . S
C2342 C2343 1.355 . S
C2342 C2344 1.415 . S
C2343 C2342 1.355 . S
C2343 C2345 1.419 . S
C2344 C2342 1.415 . S
C2344 C2349 1.425 . S
C2344 C2351 1.409 . S
C2345 H2337 0.930 . S
C2345 C2343 1.419 . S
C2345 C2346 1.362 . S
C2346 H2338 0.930 . S
C2346 C2345 1.362 . S
C2346 C2349 1.409 . S
C2347 H2339 0.930 . S
C2347 C2348 1.355 . S
C2347 C2349 1.415 . S
C2348 C2347 1.355 . S
C2348 C2350 1.419 . S
C2349 C2344 1.425 . S
C2349 C2346 1.409 . S
C2349 C2347 1.415 . S
C2350 H2340 0.930 . S
C2350 C2348 1.419 . S
C2350 C2351 1.362 . S
C2351 H2341 0.930 . S
C2351 C2344 1.409 . S
C2351 C2350 1.362 . S
H2352 C2358 0.930 . S
H2353 C2361 0.930 . S
H2354 C2362 0.930 . S
H2355 C2363 0.930 . S
H2356 C2366 0.930 . S
H2357 C2367 0.930 . S
C2358 H2352 0.930 . S
C2358 C2359 1.355 . S
C2358 C2360 1.415 . S
C2359 C2358 1.355 . S
C2359 C2361 1.419 . S
C2360 C2358 1.415 . S
C2360 C2365 1.425 . S
C2360 C2367 1.409 . S
C2361 H2353 0.930 . S
C2361 C2359 1.419 . S
C2361 C2362 1.362 . S
C2362 H2354 0.930 . S
C2362 C2361 1.362 . S
C2362 C2365 1.409 . S
C2363 H2355 0.930 . S
C2363 C2364 1.355 . S
C2363 C2365 1.415 . S
C2364 C2363 1.355 . S
C2364 C2366 1.419 . S
C2365 C2360 1.425 . S
C2365 C2362 1.409 . S
C2365 C2363 1.415 . S
C2366 H2356 0.930 . S
C2366 C2364 1.419 . S
C2366 C2367 1.362 . S
C2367 H2357 0.930 . S
C2367 C2360 1.409 . S
C2367 C2366 1.362 . S
H2368 C2374 0.930 . S
H2369 C2377 0.930 . S
H2370 C2378 0.930 . S
H2371 C2379 0.930 . S
H2372 C2382 0.930 . S
H2373 C2383 0.930 . S
C2374 H2368 0.930 . S
C2374 C2375 1.355 . S
C2374 C2376 1.415 . S
C2375 C2374 1.355 . S
C2375 C2377 1.419 . S
C2376 C2374 1.415 . S
C2376 C2381 1.425 . S
C2376 C2383 1.409 . S
C2377 H2369 0.930 . S
C2377 C2375 1.419 . S
C2377 C2378 1.362 . S
C2378 H2370 0.930 . S
C2378 C2377 1.362 . S
C2378 C2381 1.409 . S
C2379 H2371 0.930 . S
C2379 C2380 1.355 . S
C2379 C2381 1.415 . S
C2380 C2379 1.355 . S
C2380 C2382 1.419 . S
C2381 C2376 1.425 . S
C2381 C2378 1.409 . S
C2381 C2379 1.415 . S
C2382 H2372 0.930 . S
C2382 C2380 1.419 . S
C2382 C2383 1.362 . S
C2383 H2373 0.930 . S
C2383 C2376 1.409 . S
C2383 C2382 1.362 . S
H2384 C2390 0.930 . S
H2385 C2393 0.930 . S
H2386 C2394 0.930 . S
H2387 C2395 0.930 . S
H2388 C2398 0.930 . S
H2389 C2399 0.930 . S
C2390 H2384 0.930 . S
C2390 C2391 1.355 . S
C2390 C2392 1.415 . S
C2391 C2390 1.355 . S
C2391 C2393 1.419 . S
C2392 C2390 1.415 . S
C2392 C2397 1.425 . S
C2392 C2399 1.409 . S
C2393 H2385 0.930 . S
C2393 C2391 1.419 . S
C2393 C2394 1.362 . S
C2394 H2386 0.930 . S
C2394 C2393 1.362 . S
C2394 C2397 1.409 . S
C2395 H2387 0.930 . S
C2395 C2396 1.355 . S
C2395 C2397 1.415 . S
C2396 C2395 1.355 . S
C2396 C2398 1.419 . S
C2397 C2392 1.425 . S
C2397 C2394 1.409 . S
C2397 C2395 1.415 . S
C2398 H2388 0.930 . S
C2398 C2396 1.419 . S
C2398 C2399 1.362 . S
C2399 H2389 0.930 . S
C2399 C2392 1.409 . S
C2399 C2398 1.362 . S
H2400 C2406 0.930 . S
H2401 C2409 0.930 . S
H2402 C2410 0.930 . S
H2403 C2411 0.930 . S
H2404 C2414 0.930 . S
H2405 C2415 0.930 . S
C2406 H2400 0.930 . S
C2406 C2407 1.355 . S
C2406 C2408 1.415 . S
C2407 C2406 1.355 . S
C2407 C2409 1.419 . S
C2408 C2406 1.415 . S
C2408 C2413 1.425 . S
C2408 C2415 1.409 . S
C2409 H2401 0.930 . S
C2409 C2407 1.419 . S
C2409 C2410 1.362 . S
C2410 H2402 0.930 . S
C2410 C2409 1.362 . S
C2410 C2413 1.409 . S
C2411 H2403 0.930 . S
C2411 C2412 1.355 . S
C2411 C2413 1.415 . S
C2412 C2411 1.355 . S
C2412 C2414 1.419 . S
C2413 C2408 1.425 . S
C2413 C2410 1.409 . S
C2413 C2411 1.415 . S
C2414 H2404 0.930 . S
C2414 C2412 1.419 . S
C2414 C2415 1.362 . S
C2415 H2405 0.930 . S
C2415 C2408 1.409 . S
C2415 C2414 1.362 . S
H2416 C2422 0.930 . S
H2417 C2425 0.930 . S
H2418 C2426 0.930 . S
H2419 C2427 0.930 . S
H2420 C2430 0.930 . S
H2421 C2431 0.930 . S
C2422 H2416 0.930 . S
C2422 C2423 1.355 . S
C2422 C2424 1.415 . S
C2423 C2422 1.355 . S
C2423 C2425 1.419 . S
C2424 C2422 1.415 . S
C2424 C2429 1.425 . S
C2424 C2431 1.409 . S
C2425 H2417 0.930 . S
C2425 C2423 1.419 . S
C2425 C2426 1.362 . S
C2426 H2418 0.930 . S
C2426 C2425 1.362 . S
C2426 C2429 1.409 . S
C2427 H2419 0.930 . S
C2427 C2428 1.355 . S
C2427 C2429 1.415 . S
C2428 C2427 1.355 . S
C2428 C2430 1.419 . S
C2429 C2424 1.425 . S
C2429 C2426 1.409 . S
C2429 C2427 1.415 . S
C2430 H2420 0.930 . S
C2430 C2428 1.419 . S
C2430 C2431 1.362 . S
C2431 H2421 0.930 . S
C2431 C2424 1.409 . S
C2431 C2430 1.362 . S
H2432 C2438 0.930 . S
H2433 C2441 0.930 . S
H2434 C2442 0.930 . S
H2435 C2443 0.930 . S
H2436 C2446 0.930 . S
H2437 C2447 0.930 . S
C2438 H2432 0.930 . S
C2438 C2439 1.355 . S
C2438 C2440 1.415 . S
C2439 C2438 1.355 . S
C2439 C2441 1.419 . S
C2440 C2438 1.415 . S
C2440 C2445 1.425 . S
C2440 C2447 1.409 . S
C2441 H2433 0.930 . S
C2441 C2439 1.419 . S
C2441 C2442 1.362 . S
C2442 H2434 0.930 . S
C2442 C2441 1.362 . S
C2442 C2445 1.409 . S
C2443 H2435 0.930 . S
C2443 C2444 1.355 . S
C2443 C2445 1.415 . S
C2444 C2443 1.355 . S
C2444 C2446 1.419 . S
C2445 C2440 1.425 . S
C2445 C2442 1.409 . S
C2445 C2443 1.415 . S
C2446 H2436 0.930 . S
C2446 C2444 1.419 . S
C2446 C2447 1.362 . S
C2447 H2437 0.930 . S
C2447 C2440 1.409 . S
C2447 C2446 1.362 . S
H2448 C2454 0.930 . S
H2449 C2457 0.930 . S
H2450 C2458 0.930 . S
H2451 C2459 0.930 . S
H2452 C2462 0.930 . S
H2453 C2463 0.930 . S
C2454 H2448 0.930 . S
C2454 C2455 1.355 . S
C2454 C2456 1.415 . S
C2455 C2454 1.355 . S
C2455 C2457 1.419 . S
C2456 C2454 1.415 . S
C2456 C2461 1.425 . S
C2456 C2463 1.409 . S
C2457 H2449 0.930 . S
C2457 C2455 1.419 . S
C2457 C2458 1.362 . S
C2458 H2450 0.930 . S
C2458 C2457 1.362 . S
C2458 C2461 1.409 . S
C2459 H2451 0.930 . S
C2459 C2460 1.355 . S
C2459 C2461 1.415 . S
C2460 C2459 1.355 . S
C2460 C2462 1.419 . S
C2461 C2456 1.425 . S
C2461 C2458 1.409 . S
C2461 C2459 1.415 . S
C2462 H2452 0.930 . S
C2462 C2460 1.419 . S
C2462 C2463 1.362 . S
C2463 H2453 0.930 . S
C2463 C2456 1.409 . S
C2463 C2462 1.362 . S
H2464 C2470 0.930 . S
H2465 C2473 0.930 . S
H2466 C2474 0.930 . S
H2467 C2475 0.930 . S
H2468 C2478 0.930 . S
H2469 C2479 0.930 . S
C2470 H2464 0.930 . S
C2470 C2471 1.355 . S
C2470 C2472 1.415 . S
C2471 C2470 1.355 . S
C2471 C2473 1.419 . S
C2472 C2470 1.415 . S
C2472 C2477 1.425 . S
C2472 C2479 1.409 . S
C2473 H2465 0.930 . S
C2473 C2471 1.419 . S
C2473 C2474 1.362 . S
C2474 H2466 0.930 . S
C2474 C2473 1.362 . S
C2474 C2477 1.409 . S
C2475 H2467 0.930 . S
C2475 C2476 1.355 . S
C2475 C2477 1.415 . S
C2476 C2475 1.355 . S
C2476 C2478 1.419 . S
C2477 C2472 1.425 . S
C2477 C2474 1.409 . S
C2477 C2475 1.415 . S
C2478 H2468 0.930 . S
C2478 C2476 1.419 . S
C2478 C2479 1.362 . S
C2479 H2469 0.930 . S
C2479 C2472 1.409 . S
C2479 C2478 1.362 . S
H2480 C2486 0.930 . S
H2481 C2489 0.930 . S
H2482 C2490 0.930 . S
H2483 C2491 0.930 . S
H2484 C2494 0.930 . S
H2485 C2495 0.930 . S
C2486 H2480 0.930 . S
C2486 C2487 1.355 . S
C2486 C2488 1.415 . S
C2487 C2486 1.355 . S
C2487 C2489 1.419 . S
C2488 C2486 1.415 . S
C2488 C2493 1.425 . S
C2488 C2495 1.409 . S
C2489 H2481 0.930 . S
C2489 C2487 1.419 . S
C2489 C2490 1.362 . S
C2490 H2482 0.930 . S
C2490 C2489 1.362 . S
C2490 C2493 1.409 . S
C2491 H2483 0.930 . S
C2491 C2492 1.355 . S
C2491 C2493 1.415 . S
C2492 C2491 1.355 . S
C2492 C2494 1.419 . S
C2493 C2488 1.425 . S
C2493 C2490 1.409 . S
C2493 C2491 1.415 . S
C2494 H2484 0.930 . S
C2494 C2492 1.419 . S
C2494 C2495 1.362 . S
C2495 H2485 0.930 . S
C2495 C2488 1.409 . S
C2495 C2494 1.362 . S
H2496 C2502 0.930 . S
H2497 C2505 0.930 . S
H2498 C2506 0.930 . S
H2499 C2507 0.930 . S
H2500 C2510 0.930 . S
H2501 C2511 0.930 . S
C2502 H2496 0.930 . S
C2502 C2503 1.355 . S
C2502 C2504 1.415 . S
C2503 C2502 1.355 . S
C2503 C2505 1.419 . S
C2504 C2502 1.415 . S
C2504 C2509 1.425 . S
C2504 C2511 1.409 . S
C2505 H2497 0.930 . S
C2505 C2503 1.419 . S
C2505 C2506 1.362 . S
C2506 H2498 0.930 . S
C2506 C2505 1.362 . S
C2506 C2509 1.409 . S
C2507 H2499 0.930 . S
C2507 C2508 1.355 . S
C2507 C2509 1.415 . S
C2508 C2507 1.355 . S
C2508 C2510 1.419 . S
C2509 C2504 1.425 . S
C2509 C2506 1.409 . S
C2509 C2507 1.415 . S
C2510 H2500 0.930 . S
C2510 C2508 1.419 . S
C2510 C2511 1.362 . S
C2511 H2501 0.930 . S
C2511 C2504 1.409 . S
C2511 C2510 1.362 . S
H2512 C2518 0.930 . S
H2513 C2521 0.930 . S
H2514 C2522 0.930 . S
H2515 C2523 0.930 . S
H2516 C2526 0.930 . S
H2517 C2527 0.930 . S
C2518 H2512 0.930 . S
C2518 C2519 1.355 . S
C2518 C2520 1.415 . S
C2519 C2518 1.355 . S
C2519 C2521 1.419 . S
C2520 C2518 1.415 . S
C2520 C2525 1.425 . S
C2520 C2527 1.409 . S
C2521 H2513 0.930 . S
C2521 C2519 1.419 . S
C2521 C2522 1.362 . S
C2522 H2514 0.930 . S
C2522 C2521 1.362 . S
C2522 C2525 1.409 . S
C2523 H2515 0.930 . S
C2523 C2524 1.355 . S
C2523 C2525 1.415 . S
C2524 C2523 1.355 . S
C2524 C2526 1.419 . S
C2525 C2520 1.425 . S
C2525 C2522 1.409 . S
C2525 C2523 1.415 . S
C2526 H2516 0.930 . S
C2526 C2524 1.419 . S
C2526 C2527 1.362 . S
C2527 H2517 0.930 . S
C2527 C2520 1.409 . S
C2527 C2526 1.362 . S
H2528 C2534 0.930 . S
H2529 C2537 0.930 . S
H2530 C2538 0.930 . S
H2531 C2539 0.930 . S
H2532 C2542 0.930 . S
H2533 C2543 0.930 . S
C2534 H2528 0.930 . S
C2534 C2535 1.355 . S
C2534 C2536 1.415 . S
C2535 C2534 1.355 . S
C2535 C2537 1.419 . S
C2536 C2534 1.415 . S
C2536 C2541 1.425 . S
C2536 C2543 1.409 . S
C2537 H2529 0.930 . S
C2537 C2535 1.419 . S
C2537 C2538 1.362 . S
C2538 H2530 0.930 . S
C2538 C2537 1.362 . S
C2538 C2541 1.409 . S
C2539 H2531 0.930 . S
C2539 C2540 1.355 . S
C2539 C2541 1.415 . S
C2540 C2539 1.355 . S
C2540 C2542 1.419 . S
C2541 C2536 1.425 . S
C2541 C2538 1.409 . S
C2541 C2539 1.415 . S
C2542 H2532 0.930 . S
C2542 C2540 1.419 . S
C2542 C2543 1.362 . S
C2543 H2533 0.930 . S
C2543 C2536 1.409 . S
C2543 C2542 1.362 . S
H2544 C2550 0.930 . S
H2545 C2553 0.930 . S
H2546 C2554 0.930 . S
H2547 C2555 0.930 . S
H2548 C2558 0.930 . S
H2549 C2559 0.930 . S
C2550 H2544 0.930 . S
C2550 C2551 1.355 . S
C2550 C2552 1.415 . S
C2551 C2550 1.355 . S
C2551 C2553 1.419 . S
C2552 C2550 1.415 . S
C2552 C2557 1.425 . S
C2552 C2559 1.409 . S
C2553 H2545 0.930 . S
C2553 C2551 1.419 . S
C2553 C2554 1.362 . S
C2554 H2546 0.930 . S
C2554 C2553 1.362 . S
C2554 C2557 1.409 . S
C2555 H2547 0.930 . S
C2555 C2556 1.355 . S
C2555 C2557 1.415 . S
C2556 C2555 1.355 . S
C2556 C2558 1.419 . S
C2557 C2552 1.425 . S
C2557 C2554 1.409 . S
C2557 C2555 1.415 . S
C2558 H2548 0.930 . S
C2558 C2556 1.419 . S
C2558 C2559 1.362 . S
C2559 H2549 0.930 . S
C2559 C2552 1.409 . S
C2559 C2558 1.362 . S
H2560 C2566 0.930 . S
H2561 C2569 0.930 . S
H2562 C2570 0.930 . S
H2563 C2571 0.930 1_565 S
H2564 C2574 0.930 . S
H2565 C2575 0.930 . S
C2566 H2560 0.930 . S
C2566 C2567 1.355 . S
C2566 C2568 1.415 . S
C2567 C2566 1.355 . S
C2567 C2569 1.419 . S
C2568 C2566 1.415 . S
C2568 C2573 1.425 . S
C2568 C2575 1.409 . S
C2569 H2561 0.930 . S
C2569 C2567 1.419 . S
C2569 C2570 1.362 . S
C2570 H2562 0.930 . S
C2570 C2569 1.362 . S
C2570 C2573 1.409 . S
C2571 H2563 0.930 1_545 S
C2571 C2572 1.355 . S
C2571 C2573 1.415 . S
C2572 C2571 1.355 . S
C2572 C2574 1.419 . S
C2573 C2568 1.425 . S
C2573 C2570 1.409 . S
C2573 C2571 1.415 . S
C2574 H2564 0.930 . S
C2574 C2572 1.419 . S
C2574 C2575 1.362 . S
C2575 H2565 0.930 . S
C2575 C2568 1.409 . S
C2575 C2574 1.362 . S
H2576 C2582 0.930 . S
H2577 C2585 0.930 . S
H2578 C2586 0.930 . S
H2579 C2587 0.930 . S
H2580 C2590 0.930 . S
H2581 C2591 0.930 1_565 S
C2582 H2576 0.930 . S
C2582 C2583 1.355 . S
C2582 C2584 1.415 1_565 S
C2583 C2582 1.355 . S
C2583 C2585 1.419 1_565 S
C2584 C2582 1.415 1_545 S
C2584 C2589 1.425 . S
C2584 C2591 1.409 . S
C2585 H2577 0.930 . S
C2585 C2583 1.419 1_545 S
C2585 C2586 1.362 . S
C2586 H2578 0.930 . S
C2586 C2585 1.362 . S
C2586 C2589 1.409 . S
C2587 H2579 0.930 . S
C2587 C2588 1.355 . S
C2587 C2589 1.415 . S
C2588 C2587 1.355 . S
C2588 C2590 1.419 . S
C2589 C2584 1.425 . S
C2589 C2586 1.409 . S
C2589 C2587 1.415 . S
C2590 H2580 0.930 . S
C2590 C2588 1.419 . S
C2590 C2591 1.362 . S
C2591 H2581 0.930 1_545 S
C2591 C2584 1.409 . S
C2591 C2590 1.362 . S
H2592 C2598 0.930 . S
H2593 C2601 0.930 . S
H2594 C2602 0.930 . S
H2595 C2603 0.930 . S
H2596 C2606 0.930 . S
H2597 C2607 0.930 . S
C2598 H2592 0.930 . S
C2598 C2599 1.355 . S
C2598 C2600 1.415 . S
C2599 C2598 1.355 . S
C2599 C2601 1.419 . S
C2600 C2598 1.415 . S
C2600 C2605 1.425 . S
C2600 C2607 1.409 . S
C2601 H2593 0.930 . S
C2601 C2599 1.419 . S
C2601 C2602 1.362 . S
C2602 H2594 0.930 . S
C2602 C2601 1.362 . S
C2602 C2605 1.409 . S
C2603 H2595 0.930 . S
C2603 C2604 1.355 . S
C2603 C2605 1.415 . S
C2604 C2603 1.355 . S
C2604 C2606 1.419 . S
C2605 C2600 1.425 . S
C2605 C2602 1.409 . S
C2605 C2603 1.415 . S
C2606 H2596 0.930 . S
C2606 C2604 1.419 . S
C2606 C2607 1.362 . S
C2607 H2597 0.930 . S
C2607 C2600 1.409 . S
C2607 C2606 1.362 . S
H2608 C2614 0.930 . S
H2609 C2617 0.930 . S
H2610 C2618 0.930 . S
H2611 C2619 0.930 . S
H2612 C2622 0.930 . S
H2613 C2623 0.930 . S
C2614 H2608 0.930 . S
C2614 C2615 1.355 . S
C2614 C2616 1.415 . S
C2615 C2614 1.355 . S
C2615 C2617 1.419 . S
C2616 C2614 1.415 . S
C2616 C2621 1.425 . S
C2616 C2623 1.409 . S
C2617 H2609 0.930 . S
C2617 C2615 1.419 . S
C2617 C2618 1.362 . S
C2618 H2610 0.930 . S
C2618 C2617 1.362 . S
C2618 C2621 1.409 . S
C2619 H2611 0.930 . S
C2619 C2620 1.355 . S
C2619 C2621 1.415 . S
C2620 C2619 1.355 . S
C2620 C2622 1.419 . S
C2621 C2616 1.425 . S
C2621 C2618 1.409 . S
C2621 C2619 1.415 . S
C2622 H2612 0.930 . S
C2622 C2620 1.419 . S
C2622 C2623 1.362 . S
C2623 H2613 0.930 . S
C2623 C2616 1.409 . S
C2623 C2622 1.362 . S
H2624 C2630 0.930 . S
H2625 C2633 0.930 . S
H2626 C2634 0.930 . S
H2627 C2635 0.930 . S
H2628 C2638 0.930 . S
H2629 C2639 0.930 . S
C2630 H2624 0.930 . S
C2630 C2631 1.355 . S
C2630 C2632 1.415 . S
C2631 C2630 1.355 . S
C2631 C2633 1.419 . S
C2632 C2630 1.415 . S
C2632 C2637 1.425 . S
C2632 C2639 1.409 . S
C2633 H2625 0.930 . S
C2633 C2631 1.419 . S
C2633 C2634 1.362 . S
C2634 H2626 0.930 . S
C2634 C2633 1.362 . S
C2634 C2637 1.409 . S
C2635 H2627 0.930 . S
C2635 C2636 1.355 . S
C2635 C2637 1.415 . S
C2636 C2635 1.355 . S
C2636 C2638 1.419 . S
C2637 C2632 1.425 . S
C2637 C2634 1.409 . S
C2637 C2635 1.415 . S
C2638 H2628 0.930 . S
C2638 C2636 1.419 . S
C2638 C2639 1.362 . S
C2639 H2629 0.930 . S
C2639 C2632 1.409 . S
C2639 C2638 1.362 . S
H2640 C2646 0.930 . S
H2641 C2649 0.930 . S
H2642 C2650 0.930 . S
H2643 C2651 0.930 . S
H2644 C2654 0.930 . S
H2645 C2655 0.930 . S
C2646 H2640 0.930 . S
C2646 C2647 1.355 . S
C2646 C2648 1.415 . S
C2647 C2646 1.355 . S
C2647 C2649 1.419 . S
C2648 C2646 1.415 . S
C2648 C2653 1.425 . S
C2648 C2655 1.409 . S
C2649 H2641 0.930 . S
C2649 C2647 1.419 . S
C2649 C2650 1.362 . S
C2650 H2642 0.930 . S
C2650 C2649 1.362 . S
C2650 C2653 1.409 . S
C2651 H2643 0.930 . S
C2651 C2652 1.355 . S
C2651 C2653 1.415 . S
C2652 C2651 1.355 . S
C2652 C2654 1.419 . S
C2653 C2648 1.425 . S
C2653 C2650 1.409 . S
C2653 C2651 1.415 . S
C2654 H2644 0.930 . S
C2654 C2652 1.419 . S
C2654 C2655 1.362 . S
C2655 H2645 0.930 . S
C2655 C2648 1.409 . S
C2655 C2654 1.362 . S
H2656 C2662 0.930 . S
H2657 C2665 0.930 . S
H2658 C2666 0.930 . S
H2659 C2667 0.930 . S
H2660 C2670 0.930 . S
H2661 C2671 0.930 . S
C2662 H2656 0.930 . S
C2662 C2663 1.355 . S
C2662 C2664 1.415 . S
C2663 C2662 1.355 . S
C2663 C2665 1.419 . S
C2664 C2662 1.415 . S
C2664 C2669 1.425 . S
C2664 C2671 1.409 . S
C2665 H2657 0.930 . S
C2665 C2663 1.419 . S
C2665 C2666 1.362 . S
C2666 H2658 0.930 . S
C2666 C2665 1.362 . S
C2666 C2669 1.409 . S
C2667 H2659 0.930 . S
C2667 C2668 1.355 . S
C2667 C2669 1.415 . S
C2668 C2667 1.355 . S
C2668 C2670 1.419 . S
C2669 C2664 1.425 . S
C2669 C2666 1.409 . S
C2669 C2667 1.415 . S
C2670 H2660 0.930 . S
C2670 C2668 1.419 . S
C2670 C2671 1.362 . S
C2671 H2661 0.930 . S
C2671 C2664 1.409 . S
C2671 C2670 1.362 . S
H2672 C2678 0.930 . S
H2673 C2681 0.930 . S
H2674 C2682 0.930 . S
H2675 C2683 0.930 . S
H2676 C2686 0.930 . S
H2677 C2687 0.930 . S
C2678 H2672 0.930 . S
C2678 C2679 1.355 . S
C2678 C2680 1.415 . S
C2679 C2678 1.355 . S
C2679 C2681 1.419 . S
C2680 C2678 1.415 . S
C2680 C2685 1.425 . S
C2680 C2687 1.409 . S
C2681 H2673 0.930 . S
C2681 C2679 1.419 . S
C2681 C2682 1.362 . S
C2682 H2674 0.930 . S
C2682 C2681 1.362 . S
C2682 C2685 1.409 . S
C2683 H2675 0.930 . S
C2683 C2684 1.355 . S
C2683 C2685 1.415 . S
C2684 C2683 1.355 . S
C2684 C2686 1.419 . S
C2685 C2680 1.425 . S
C2685 C2682 1.409 . S
C2685 C2683 1.415 . S
C2686 H2676 0.930 . S
C2686 C2684 1.419 . S
C2686 C2687 1.362 . S
C2687 H2677 0.930 . S
C2687 C2680 1.409 . S
C2687 C2686 1.362 . S
H2688 C2694 0.930 . S
H2689 C2697 0.930 . S
H2690 C2698 0.930 . S
H2691 C2699 0.930 . S
H2692 C2702 0.930 . S
H2693 C2703 0.930 . S
C2694 H2688 0.930 . S
C2694 C2695 1.355 . S
C2694 C2696 1.415 . S
C2695 C2694 1.355 . S
C2695 C2697 1.419 . S
C2696 C2694 1.415 . S
C2696 C2701 1.425 . S
C2696 C2703 1.409 . S
C2697 H2689 0.930 . S
C2697 C2695 1.419 . S
C2697 C2698 1.362 . S
C2698 H2690 0.930 . S
C2698 C2697 1.362 . S
C2698 C2701 1.409 . S
C2699 H2691 0.930 . S
C2699 C2700 1.355 . S
C2699 C2701 1.415 . S
C2700 C2699 1.355 . S
C2700 C2702 1.419 . S
C2701 C2696 1.425 . S
C2701 C2698 1.409 . S
C2701 C2699 1.415 . S
C2702 H2692 0.930 . S
C2702 C2700 1.419 . S
C2702 C2703 1.362 . S
C2703 H2693 0.930 . S
C2703 C2696 1.409 . S
C2703 C2702 1.362 . S
H2704 C2710 0.930 . S
H2705 C2713 0.930 . S
H2706 C2714 0.930 . S
H2707 C2715 0.930 . S
H2708 C2718 0.930 . S
H2709 C2719 0.930 . S
C2710 H2704 0.930 . S
C2710 C2711 1.355 . S
C2710 C2712 1.415 . S
C2711 C2710 1.355 . S
C2711 C2713 1.419 . S
C2712 C2710 1.415 . S
C2712 C2717 1.425 . S
C2712 C2719 1.409 . S
C2713 H2705 0.930 . S
C2713 C2711 1.419 . S
C2713 C2714 1.362 . S
C2714 H2706 0.930 . S
C2714 C2713 1.362 . S
C2714 C2717 1.409 . S
C2715 H2707 0.930 . S
C2715 C2716 1.355 . S
C2715 C2717 1.415 . S
C2716 C2715 1.355 . S
C2716 C2718 1.419 . S
C2717 C2712 1.425 . S
C2717 C2714 1.409 . S
C2717 C2715 1.415 . S
C2718 H2708 0.930 . S
C2718 C2716 1.419 . S
C2718 C2719 1.362 . S
C2719 H2709 0.930 . S
C2719 C2712 1.409 . S
C2719 C2718 1.362 . S
H2720 C2726 0.930 . S
H2721 C2729 0.930 . S
H2722 C2730 0.930 . S
H2723 C2731 0.930 . S
H2724 C2734 0.930 . S
H2725 C2735 0.930 . S
C2726 H2720 0.930 . S
C2726 C2727 1.355 . S
C2726 C2728 1.415 . S
C2727 C2726 1.355 . S
C2727 C2729 1.419 . S
C2728 C2726 1.415 . S
C2728 C2733 1.425 . S
C2728 C2735 1.409 . S
C2729 H2721 0.930 . S
C2729 C2727 1.419 . S
C2729 C2730 1.362 . S
C2730 H2722 0.930 . S
C2730 C2729 1.362 . S
C2730 C2733 1.409 . S
C2731 H2723 0.930 . S
C2731 C2732 1.355 . S
C2731 C2733 1.415 . S
C2732 C2731 1.355 . S
C2732 C2734 1.419 . S
C2733 C2728 1.425 . S
C2733 C2730 1.409 . S
C2733 C2731 1.415 . S
C2734 H2724 0.930 . S
C2734 C2732 1.419 . S
C2734 C2735 1.362 . S
C2735 H2725 0.930 . S
C2735 C2728 1.409 . S
C2735 C2734 1.362 . S
H2736 C2742 0.930 . S
H2737 C2745 0.930 . S
H2738 C2746 0.930 . S
H2739 C2747 0.930 . S
H2740 C2750 0.930 . S
H2741 C2751 0.930 . S
C2742 H2736 0.930 . S
C2742 C2743 1.355 . S
C2742 C2744 1.415 . S
C2743 C2742 1.355 . S
C2743 C2745 1.419 . S
C2744 C2742 1.415 . S
C2744 C2749 1.425 . S
C2744 C2751 1.409 . S
C2745 H2737 0.930 . S
C2745 C2743 1.419 . S
C2745 C2746 1.362 . S
C2746 H2738 0.930 . S
C2746 C2745 1.362 . S
C2746 C2749 1.409 . S
C2747 H2739 0.930 . S
C2747 C2748 1.355 . S
C2747 C2749 1.415 . S
C2748 C2747 1.355 . S
C2748 C2750 1.419 . S
C2749 C2744 1.425 . S
C2749 C2746 1.409 . S
C2749 C2747 1.415 . S
C2750 H2740 0.930 . S
C2750 C2748 1.419 . S
C2750 C2751 1.362 . S
C2751 H2741 0.930 . S
C2751 C2744 1.409 . S
C2751 C2750 1.362 . S
H2752 C2758 0.951 . S
H2753 C2761 0.930 . S
H2754 C2762 0.930 . S
H2755 C2763 0.930 . S
H2756 C2766 0.930 . S
H2757 C2767 0.930 1_655 S
C2758 H2752 0.951 . S
C2758 C2759 1.355 . S
C2758 C2760 1.415 . S
C2759 C2758 1.355 . S
C2759 C2761 1.419 . S
C2760 C2758 1.415 . S
C2760 C2765 1.425 . S
C2760 C2767 1.409 . S
C2761 H2753 0.930 . S
C2761 C2759 1.419 . S
C2761 C2762 1.362 . S
C2762 H2754 0.930 . S
C2762 C2761 1.362 . S
C2762 C2765 1.409 . S
C2763 H2755 0.930 . S
C2763 C2764 1.355 . S
C2763 C2765 1.415 . S
C2764 C2763 1.355 . S
C2764 C2766 1.419 . S
C2765 C2760 1.425 . S
C2765 C2762 1.409 . S
C2765 C2763 1.415 . S
C2766 H2756 0.930 . S
C2766 C2764 1.419 . S
C2766 C2767 1.362 . S
C2767 H2757 0.930 1_455 S
C2767 C2760 1.409 . S
C2767 C2766 1.362 . S
H2768 C2774 0.930 . S
H2769 C2777 0.930 . S
H2770 C2778 0.930 . S
H2771 C2779 0.930 . S
H2772 C2782 0.930 . S
H2773 C2783 0.930 . S
C2774 H2768 0.930 . S
C2774 C2775 1.355 . S
C2774 C2776 1.415 . S
C2775 C2774 1.355 . S
C2775 C2777 1.419 . S
C2776 C2774 1.415 . S
C2776 C2781 1.425 . S
C2776 C2783 1.409 . S
C2777 H2769 0.930 . S
C2777 C2775 1.419 . S
C2777 C2778 1.362 . S
C2778 H2770 0.930 . S
C2778 C2777 1.362 . S
C2778 C2781 1.409 . S
C2779 H2771 0.930 . S
C2779 C2780 1.355 . S
C2779 C2781 1.415 . S
C2780 C2779 1.355 . S
C2780 C2782 1.419 . S
C2781 C2776 1.425 . S
C2781 C2778 1.409 . S
C2781 C2779 1.415 . S
C2782 H2772 0.930 . S
C2782 C2780 1.419 . S
C2782 C2783 1.362 . S
C2783 H2773 0.930 . S
C2783 C2776 1.409 . S
C2783 C2782 1.362 . S
H2784 C2790 0.930 . S
H2785 C2793 0.930 . S
H2786 C2794 0.930 . S
H2787 C2795 0.930 . S
H2788 C2798 0.930 . S
H2789 C2799 0.930 . S
C2790 H2784 0.930 . S
C2790 C2791 1.355 . S
C2790 C2792 1.415 . S
C2791 C2790 1.355 . S
C2791 C2793 1.419 . S
C2792 C2790 1.415 . S
C2792 C2797 1.425 . S
C2792 C2799 1.409 . S
C2793 H2785 0.930 . S
C2793 C2791 1.419 . S
C2793 C2794 1.362 . S
C2794 H2786 0.930 . S
C2794 C2793 1.362 . S
C2794 C2797 1.409 . S
C2795 H2787 0.930 . S
C2795 C2796 1.355 . S
C2795 C2797 1.415 . S
C2796 C2795 1.355 . S
C2796 C2798 1.419 . S
C2797 C2792 1.425 . S
C2797 C2794 1.409 . S
C2797 C2795 1.415 . S
C2798 H2788 0.930 . S
C2798 C2796 1.419 . S
C2798 C2799 1.362 . S
C2799 H2789 0.930 . S
C2799 C2792 1.409 . S
C2799 C2798 1.362 . S
H2800 C2806 0.930 . S
H2801 C2809 0.930 . S
H2802 C2810 0.930 . S
H2803 C2811 0.930 . S
H2804 C2814 0.930 . S
H2805 C2815 0.930 . S
C2806 H2800 0.930 . S
C2806 C2807 1.355 . S
C2806 C2808 1.415 . S
C2807 C2806 1.355 . S
C2807 C2809 1.419 . S
C2808 C2806 1.415 . S
C2808 C2813 1.425 . S
C2808 C2815 1.409 . S
C2809 H2801 0.930 . S
C2809 C2807 1.419 . S
C2809 C2810 1.362 . S
C2810 H2802 0.930 . S
C2810 C2809 1.362 . S
C2810 C2813 1.409 . S
C2811 H2803 0.930 . S
C2811 C2812 1.355 . S
C2811 C2813 1.415 . S
C2812 C2811 1.355 . S
C2812 C2814 1.419 . S
C2813 C2808 1.425 . S
C2813 C2810 1.409 . S
C2813 C2811 1.415 . S
C2814 H2804 0.930 . S
C2814 C2812 1.419 . S
C2814 C2815 1.362 . S
C2815 H2805 0.930 . S
C2815 C2808 1.409 . S
C2815 C2814 1.362 . S
H2816 C2822 0.930 . S
H2817 C2825 0.930 . S
H2818 C2826 0.930 . S
H2819 C2827 0.930 . S
H2820 C2830 0.930 . S
H2821 C2831 0.930 . S
C2822 H2816 0.930 . S
C2822 C2823 1.355 1_455 S
C2822 C2824 1.415 . S
C2823 C2822 1.355 1_655 S
C2823 C2825 1.419 . S
C2824 C2822 1.415 . S
C2824 C2829 1.425 . S
C2824 C2831 1.409 . S
C2825 H2817 0.930 . S
C2825 C2823 1.419 . S
C2825 C2826 1.362 . S
C2826 H2818 0.930 . S
C2826 C2825 1.362 . S
C2826 C2829 1.409 1_655 S
C2827 H2819 0.930 . S
C2827 C2828 1.355 . S
C2827 C2829 1.415 . S
C2828 C2827 1.355 . S
C2828 C2830 1.419 . S
C2829 C2824 1.425 . S
C2829 C2826 1.409 1_455 S
C2829 C2827 1.415 . S
C2830 H2820 0.930 . S
C2830 C2828 1.419 . S
C2830 C2831 1.362 . S
C2831 H2821 0.930 . S
C2831 C2824 1.409 . S
C2831 C2830 1.362 . S
H2832 C2838 0.930 . S
H2833 C2841 0.930 . S
H2834 C2842 0.930 . S
H2835 C2843 0.930 . S
H2836 C2846 0.930 . S
H2837 C2847 0.930 . S
C2838 H2832 0.930 . S
C2838 C2839 1.355 . S
C2838 C2840 1.415 . S
C2839 C2838 1.355 . S
C2839 C2841 1.419 . S
C2840 C2838 1.415 . S
C2840 C2845 1.425 . S
C2840 C2847 1.409 . S
C2841 H2833 0.930 . S
C2841 C2839 1.419 . S
C2841 C2842 1.362 . S
C2842 H2834 0.930 . S
C2842 C2841 1.362 . S
C2842 C2845 1.409 . S
C2843 H2835 0.930 . S
C2843 C2844 1.355 . S
C2843 C2845 1.415 . S
C2844 C2843 1.355 . S
C2844 C2846 1.419 . S
C2845 C2840 1.425 . S
C2845 C2842 1.409 . S
C2845 C2843 1.415 . S
C2846 H2836 0.930 . S
C2846 C2844 1.419 . S
C2846 C2847 1.362 . S
C2847 H2837 0.930 . S
C2847 C2840 1.409 . S
C2847 C2846 1.362 . S
H2848 C2854 0.930 . S
H2849 C2857 0.930 . S
H2850 C2858 0.930 . S
H2851 C2859 0.930 . S
H2852 C2862 0.930 . S
H2853 C2863 0.930 . S
C2854 H2848 0.930 . S
C2854 C2855 1.355 . S
C2854 C2856 1.415 . S
C2855 C2854 1.355 . S
C2855 C2857 1.419 . S
C2856 C2854 1.415 . S
C2856 C2861 1.425 . S
C2856 C2863 1.409 . S
C2857 H2849 0.930 . S
C2857 C2855 1.419 . S
C2857 C2858 1.362 . S
C2858 H2850 0.930 . S
C2858 C2857 1.362 . S
C2858 C2861 1.409 . S
C2859 H2851 0.930 . S
C2859 C2860 1.355 . S
C2859 C2861 1.415 . S
C2860 C2859 1.355 . S
C2860 C2862 1.419 . S
C2861 C2856 1.425 . S
C2861 C2858 1.409 . S
C2861 C2859 1.415 . S
C2862 H2852 0.930 . S
C2862 C2860 1.419 . S
C2862 C2863 1.362 . S
C2863 H2853 0.930 . S
C2863 C2856 1.409 . S
C2863 C2862 1.362 . S
H2864 C2870 0.930 . S
H2865 C2873 0.930 . S
H2866 C2874 0.930 . S
H2867 C2875 0.930 . S
H2868 C2878 0.930 . S
H2869 C2879 0.930 . S
C2870 H2864 0.930 . S
C2870 C2871 1.355 . S
C2870 C2872 1.415 . S
C2871 C2870 1.355 . S
C2871 C2873 1.419 . S
C2872 C2870 1.415 . S
C2872 C2877 1.425 . S
C2872 C2879 1.409 . S
C2873 H2865 0.930 . S
C2873 C2871 1.419 . S
C2873 C2874 1.362 . S
C2874 H2866 0.930 . S
C2874 C2873 1.362 . S
C2874 C2877 1.409 . S
C2875 H2867 0.930 . S
C2875 C2876 1.355 . S
C2875 C2877 1.415 . S
C2876 C2875 1.355 . S
C2876 C2878 1.419 . S
C2877 C2872 1.425 . S
C2877 C2874 1.409 . S
C2877 C2875 1.415 . S
C2878 H2868 0.930 . S
C2878 C2876 1.419 . S
C2878 C2879 1.362 . S
C2879 H2869 0.930 . S
C2879 C2872 1.409 . S
C2879 C2878 1.362 . S
H2880 C2886 0.930 . S
H2881 C2889 0.930 . S
H2882 C2890 0.930 . S
H2883 C2891 0.930 . S
H2884 C2894 0.930 . S
H2885 C2895 0.930 . S
C2886 H2880 0.930 . S
C2886 C2887 1.355 1_455 S
C2886 C2888 1.415 . S
C2887 C2886 1.355 1_655 S
C2887 C2889 1.419 . S
C2888 C2886 1.415 . S
C2888 C2893 1.425 1_455 S
C2888 C2895 1.409 . S
C2889 H2881 0.930 . S
C2889 C2887 1.419 . S
C2889 C2890 1.362 . S
C2890 H2882 0.930 . S
C2890 C2889 1.362 . S
C2890 C2893 1.409 . S
C2891 H2883 0.930 . S
C2891 C2892 1.355 1_655 S
C2891 C2893 1.415 . S
C2892 C2891 1.355 1_455 S
C2892 C2894 1.419 . S
C2893 C2888 1.425 1_655 S
C2893 C2890 1.409 . S
C2893 C2891 1.415 . S
C2894 H2884 0.930 . S
C2894 C2892 1.419 . S
C2894 C2895 1.362 . S
C2895 H2885 0.930 . S
C2895 C2888 1.409 . S
C2895 C2894 1.362 . S
H2896 C2902 0.930 . S
H2897 C2905 0.930 . S
H2898 C2906 0.930 . S
H2899 C2907 0.930 . S
H2900 C2910 0.930 . S
H2901 C2911 0.930 . S
C2902 H2896 0.930 . S
C2902 C2903 1.355 . S
C2902 C2904 1.415 . S
C2903 C2902 1.355 . S
C2903 C2905 1.419 . S
C2904 C2902 1.415 . S
C2904 C2909 1.425 . S
C2904 C2911 1.409 . S
C2905 H2897 0.930 . S
C2905 C2903 1.419 . S
C2905 C2906 1.362 . S
C2906 H2898 0.930 . S
C2906 C2905 1.362 . S
C2906 C2909 1.409 . S
C2907 H2899 0.930 . S
C2907 C2908 1.355 . S
C2907 C2909 1.415 . S
C2908 C2907 1.355 . S
C2908 C2910 1.419 . S
C2909 C2904 1.425 . S
C2909 C2906 1.409 . S
C2909 C2907 1.415 . S
C2910 H2900 0.930 . S
C2910 C2908 1.419 . S
C2910 C2911 1.362 . S
C2911 H2901 0.930 . S
C2911 C2904 1.409 . S
C2911 C2910 1.362 . S
H2912 C2918 0.930 . S
H2913 C2921 0.930 . S
H2914 C2922 0.930 . S
H2915 C2923 0.930 . S
H2916 C2926 0.930 . S
H2917 C2927 0.930 . S
C2918 H2912 0.930 . S
C2918 C2919 1.355 . S
C2918 C2920 1.415 . S
C2919 C2918 1.355 . S
C2919 C2921 1.419 . S
C2920 C2918 1.415 . S
C2920 C2925 1.425 . S
C2920 C2927 1.409 . S
C2921 H2913 0.930 . S
C2921 C2919 1.419 . S
C2921 C2922 1.362 . S
C2922 H2914 0.930 . S
C2922 C2921 1.362 . S
C2922 C2925 1.409 . S
C2923 H2915 0.930 . S
C2923 C2924 1.355 . S
C2923 C2925 1.415 . S
C2924 C2923 1.355 . S
C2924 C2926 1.419 . S
C2925 C2920 1.425 . S
C2925 C2922 1.409 . S
C2925 C2923 1.415 . S
C2926 H2916 0.930 . S
C2926 C2924 1.419 . S
C2926 C2927 1.362 . S
C2927 H2917 0.930 . S
C2927 C2920 1.409 . S
C2927 C2926 1.362 . S
H2928 C2934 0.930 . S
H2929 C2937 0.930 . S
H2930 C2938 0.930 . S
H2931 C2939 0.930 . S
H2932 C2942 0.930 . S
H2933 C2943 0.930 . S
C2934 H2928 0.930 . S
C2934 C2935 1.355 1_545 S
C2934 C2936 1.415 . S
C2935 C2934 1.355 1_565 S
C2935 C2937 1.419 . S
C2936 C2934 1.415 . S
C2936 C2941 1.425 . S
C2936 C2943 1.409 . S
C2937 H2929 0.930 . S
C2937 C2935 1.419 . S
C2937 C2938 1.362 . S
C2938 H2930 0.930 . S
C2938 C2937 1.362 . S
C2938 C2941 1.409 1_565 S
C2939 H2931 0.930 . S
C2939 C2940 1.355 . S
C2939 C2941 1.415 . S
C2940 C2939 1.355 . S
C2940 C2942 1.419 . S
C2941 C2936 1.425 . S
C2941 C2938 1.409 1_545 S
C2941 C2939 1.415 . S
C2942 H2932 0.930 . S
C2942 C2940 1.419 . S
C2942 C2943 1.362 . S
C2943 H2933 0.930 . S
C2943 C2936 1.409 . S
C2943 C2942 1.362 . S
H2944 C2950 0.930 . S
H2945 C2953 0.930 . S
H2946 C2954 0.930 . S
H2947 C2955 0.930 . S
H2948 C2958 0.930 . S
H2949 C2959 0.930 . S
C2950 H2944 0.930 . S
C2950 C2951 1.355 . S
C2950 C2952 1.415 . S
C2951 C2950 1.355 . S
C2951 C2953 1.419 . S
C2952 C2950 1.415 . S
C2952 C2957 1.425 . S
C2952 C2959 1.409 . S
C2953 H2945 0.930 . S
C2953 C2951 1.419 . S
C2953 C2954 1.362 . S
C2954 H2946 0.930 . S
C2954 C2953 1.362 . S
C2954 C2957 1.409 . S
C2955 H2947 0.930 . S
C2955 C2956 1.355 . S
C2955 C2957 1.415 . S
C2956 C2955 1.355 . S
C2956 C2958 1.419 . S
C2957 C2952 1.425 . S
C2957 C2954 1.409 . S
C2957 C2955 1.415 . S
C2958 H2948 0.930 . S
C2958 C2956 1.419 . S
C2958 C2959 1.362 . S
C2959 H2949 0.930 . S
C2959 C2952 1.409 . S
C2959 C2958 1.362 . S
H2960 C2966 0.930 . S
H2961 C2969 0.930 . S
H2962 C2970 0.930 . S
H2963 C2971 0.930 . S
H2964 C2974 0.930 . S
H2965 C2975 0.930 . S
C2966 H2960 0.930 . S
C2966 C2967 1.355 1_554 S
C2966 C2968 1.415 . S
C2967 C2966 1.355 1_556 S
C2967 C2969 1.419 . S
C2968 C2966 1.415 . S
C2968 C2973 1.425 . S
C2968 C2975 1.409 . S
C2969 H2961 0.930 . S
C2969 C2967 1.419 . S
C2969 C2970 1.362 . S
C2970 H2962 0.930 . S
C2970 C2969 1.362 . S
C2970 C2973 1.409 1_556 S
C2971 H2963 0.930 . S
C2971 C2972 1.355 . S
C2971 C2973 1.415 . S
C2972 C2971 1.355 . S
C2972 C2974 1.419 . S
C2973 C2968 1.425 . S
C2973 C2970 1.409 1_554 S
C2973 C2971 1.415 . S
C2974 H2964 0.930 . S
C2974 C2972 1.419 . S
C2974 C2975 1.362 . S
C2975 H2965 0.930 . S
C2975 C2968 1.409 . S
C2975 C2974 1.362 . S
H2976 C2982 0.930 . S
H2977 C2985 0.930 . S
H2978 C2986 0.930 . S
H2979 C2987 0.930 . S
H2980 C2990 0.930 . S
H2981 C2991 0.930 . S
C2982 H2976 0.930 . S
C2982 C2983 1.355 . S
C2982 C2984 1.415 . S
C2983 C2982 1.355 . S
C2983 C2985 1.419 . S
C2984 C2982 1.415 . S
C2984 C2989 1.425 . S
C2984 C2991 1.409 . S
C2985 H2977 0.930 . S
C2985 C2983 1.419 . S
C2985 C2986 1.362 . S
C2986 H2978 0.930 . S
C2986 C2985 1.362 . S
C2986 C2989 1.409 . S
C2987 H2979 0.930 . S
C2987 C2988 1.355 . S
C2987 C2989 1.415 . S
C2988 C2987 1.355 . S
C2988 C2990 1.419 . S
C2989 C2984 1.425 . S
C2989 C2986 1.409 . S
C2989 C2987 1.415 . S
C2990 H2980 0.930 . S
C2990 C2988 1.419 . S
C2990 C2991 1.362 . S
C2991 H2981 0.930 . S
C2991 C2984 1.409 . S
C2991 C2990 1.362 . S
H2992 C2998 0.930 . S
H2993 C3001 0.930 . S
H2994 C3002 0.930 . S
H2995 C3003 0.930 . S
H2996 C3006 0.926 . S
H2997 C3007 0.930 . S
C2998 H2992 0.930 . S
C2998 C2999 1.355 . S
C2998 C3000 1.415 . S
C2999 C2998 1.355 . S
C2999 C3001 1.419 . S
C3000 C2998 1.415 . S
C3000 C3005 1.425 . S
C3000 C3007 1.409 . S
C3001 H2993 0.930 . S
C3001 C2999 1.419 . S
C3001 C3002 1.362 . S
C3002 H2994 0.930 . S
C3002 C3001 1.362 . S
C3002 C3005 1.409 . S
C3003 H2995 0.930 . S
C3003 C3004 1.355 . S
C3003 C3005 1.415 1_556 S
C3004 C3003 1.355 . S
C3004 C3006 1.414 1_556 S
C3005 C3000 1.425 . S
C3005 C3002 1.409 . S
C3005 C3003 1.415 1_554 S
C3006 H2996 0.926 . S
C3006 C3004 1.414 1_554 S
C3006 C3007 1.374 . S
C3007 H2997 0.930 . S
C3007 C3000 1.409 . S
C3007 C3006 1.374 . S
H3008 C3014 0.930 . S
H3009 C3017 0.930 . S
H3010 C3018 0.930 . S
H3011 C3019 0.930 . S
H3012 C3022 0.930 . S
H3013 C3023 0.930 . S
C3014 H3008 0.930 . S
C3014 C3015 1.355 . S
C3014 C3016 1.415 . S
C3015 C3014 1.355 . S
C3015 C3017 1.419 . S
C3016 C3014 1.415 . S
C3016 C3021 1.425 . S
C3016 C3023 1.409 . S
C3017 H3009 0.930 . S
C3017 C3015 1.419 . S
C3017 C3018 1.362 . S
C3018 H3010 0.930 . S
C3018 C3017 1.362 . S
C3018 C3021 1.409 . S
C3019 H3011 0.930 . S
C3019 C3020 1.355 . S
C3019 C3021 1.415 . S
C3020 C3019 1.355 . S
C3020 C3022 1.419 . S
C3021 C3016 1.425 . S
C3021 C3018 1.409 . S
C3021 C3019 1.415 . S
C3022 H3012 0.930 . S
C3022 C3020 1.419 . S
C3022 C3023 1.362 . S
C3023 H3013 0.930 . S
C3023 C3016 1.409 . S
C3023 C3022 1.362 . S
H3024 C3030 0.930 . S
H3025 C3033 0.930 . S
H3026 C3034 0.930 . S
H3027 C3035 0.930 . S
H3028 C3038 0.930 . S
H3029 C3039 0.930 . S
C3030 H3024 0.930 . S
C3030 C3031 1.355 . S
C3030 C3032 1.415 . S
C3031 C3030 1.355 . S
C3031 C3033 1.419 . S
C3032 C3030 1.415 . S
C3032 C3037 1.425 . S
C3032 C3039 1.409 . S
C3033 H3025 0.930 . S
C3033 C3031 1.419 . S
C3033 C3034 1.362 . S
C3034 H3026 0.930 . S
C3034 C3033 1.362 . S
C3034 C3037 1.409 . S
C3035 H3027 0.930 . S
C3035 C3036 1.355 . S
C3035 C3037 1.415 . S
C3036 C3035 1.355 . S
C3036 C3038 1.419 . S
C3037 C3032 1.425 . S
C3037 C3034 1.409 . S
C3037 C3035 1.415 . S
C3038 H3028 0.930 . S
C3038 C3036 1.419 . S
C3038 C3039 1.362 . S
C3039 H3029 0.930 . S
C3039 C3032 1.409 . S
C3039 C3038 1.362 . S
C1511 C255 2.099 . S
C1516 C874 2.078 . S
C1527 C147 1.804 . S
C1532 C913 1.768 . S
C1543 C184 1.471 . S
C1548 C954 1.436 . S
C1564 C999 1.423 . S
C1559 C220 1.441 . S
C1575 C40 2.044 . S
C1580 C1043 2.016 . S
C1596 C1074 1.497 . S
C1591 C74 1.506 . S
C1612 C1122 2.025 . S
C1607 C110 2.022 . S
C1623 C14 1.800 . S
C1628 C1150 1.736 . S
C1644 C882 1.654 . S
C1639 C579 1.562 . S
C1655 C616 1.622 . S
C1660 C923 1.552 . S
C1676 C962 1.592 . S
C1671 C687 1.541 1_545 S
C1692 C994 1.610 . S
C1687 C436 1.572 . S
C1703 C580 0.354 . S
C1708 C1030 0.399 . S
C1724 C1082 2.196 . S
C1719 C615 2.224 . S
C1740 C1119 1.297 . S
C1735 C688 1.324 . S
C1756 C1153 2.018 . S
C1751 C435 1.989 . S
C1772 C879 1.905 . S
C1767 C410 1.979 . S
C1783 C722 2.024 . S
C1788 C1193 1.992 . S
C1804 C1239 1.483 . S
C1799 C842 1.542 . S
C1820 C1274 1.553 1_655 S
C1815 C794 1.655 . S
C1831 C302 2.047 . S
C1836 C1163 1.975 . S
C1847 C338 1.479 . S
C1852 C959 1.389 . S
C1863 C830 1.405 . S
C1868 C1322 1.427 . S
C1884 C1350 0.493 . S
C1879 C758 0.532 . S
C1900 C883 2.054 1_565 S
C1895 C158 2.035 . S
C1916 C1362 1.758 . S
C1911 C254 1.805 . S
C1927 C218 1.433 . S
C1932 C963 1.475 . S
C1943 C194 1.402 . S
C1948 C1310 1.429 . S
C1964 C1034 1.956 . S
C1959 C3 1.994 . S
C1975 C111 1.459 . S
C1980 C1243 1.432 . S
C1996 C1113 1.912 1_565 S
C1991 C76 1.922 . S
C2012 C1399 1.744 . S
C2007 C50 1.688 . S
C2028 C873 1.664 . S
C2023 C364 1.634 . S
C2044 C1354 1.497 . S
C2039 C795 1.528 . S
C2055 C292 1.407 . S
C2060 C953 1.503 . S
C2071 C723 1.522 . S
C2076 C1323 1.536 . S
C2087 C363 0.351 . S
C2092 C1039 0.362 . S
C2108 C1233 2.183 . S
C2103 C796 2.194 . S
C2119 C291 1.255 . S
C2124 C1110 1.196 . S
C2135 C724 2.012 . S
C2140 C1402 2.001 . S
C2151 C482 1.841 . S
C2156 C870 1.896 . S
C2167 C434 2.029 . S
C2172 C1202 1.989 . S
C2183 C662 1.189 . S
C2188 C1070 1.364 . S
C2199 C614 1.654 . S
C2204 C1283 1.576 . S
C2220 C1394 2.006 . S
C2215 C698 1.875 . S
C2231 C554 1.382 . S
C2236 C950 1.439 . S
C2252 C993 1.383 . S
C2247 C650 1.325 . S
C2268 C919 0.606 . S
C2263 C506 0.537 . S
C2279 C183 2.093 . S
C2284 C1434 2.072 . S
C2300 C1353 1.740 . S
C2295 C219 1.775 . S
C2311 C256 1.438 . S
C2316 C1474 1.474 1_556 S
C2327 C148 1.430 . S
C2332 C1319 1.391 . S
C2343 C122 1.969 . S
C2348 C1203 2.084 . S
C2364 C1234 1.436 . S
C2359 C2 1.439 . S
C2380 C1282 1.887 . S
C2375 C39 1.875 . S
C2396 C1390 1.715 . S
C2391 C86 1.778 . S
C2412 C1442 1.663 . S
C2407 C651 1.621 . S
C2423 C472 1.624 . S
C2428 C1363 1.555 . S
C2444 C1482 1.528 . S
C2439 C507 1.469 . S
C2460 C1314 1.595 . S
C2455 C544 1.608 . S
C2476 C1190 0.417 . S
C2471 C652 0.334 . S
C2487 C471 2.218 . S
C2492 C1242 2.202 . S
C2508 C1279 1.306 . S
C2503 C508 1.324 . S
C2519 C543 2.004 . S
C2524 C1393 2.025 . S
C2540 C1439 1.894 . S
C2535 C806 2.023 . S
C2551 C326 2.013 . S
C2556 C1033 1.987 . S
C2572 C1079 1.378 1_545 S
C2567 C374 1.498 . S
C2588 C1114 1.575 . S
C2583 C398 1.680 . S
C2604 C1403 1.946 . S
C2599 C770 1.990 . S
C2615 C734 1.437 . S
C2620 C1479 1.432 . S
C2636 C1002 1.458 . S
C2631 C362 1.439 . S
C2652 C910 0.601 . S
C2647 C290 0.533 . S
C2663 C230 2.034 . S
C2668 C1443 2.059 . S
C2684 C922 1.756 . S
C2679 C182 1.806 . S
C2695 C146 1.461 . S
C2700 C1483 1.452 . S
C2711 C266 1.337 . S
C2716 C990 1.401 . S
C2727 C75 2.052 . S
C2732 C1194 2.011 1_556 S
C2748 C1083 1.520 . S
C2743 C38 1.550 . S
C2759 C4 1.879 . S
C2764 C1273 1.869 . S
C2775 C112 1.814 . S
C2780 C1159 1.683 . S
C2796 C1433 1.651 . S
C2791 C832 1.618 . S
C2807 C399 1.538 . S
C2812 C914 1.515 . S
C2828 C1473 1.475 . S
C2823 C760 1.378 . S
C2839 C327 1.517 . S
C2844 C1003 1.528 . S
C2855 C831 0.338 . S
C2860 C1199 0.367 . S
C2876 C1073 2.174 . S
C2871 C400 2.182 . S
C2887 C759 1.397 . S
C2892 C1270 1.345 . S
C2908 C1162 1.987 . S
C2903 C328 2.006 . S
C2924 C1430 1.898 . S
C2919 C626 1.837 . S
C2940 C1042 1.971 1_655 S
C2935 C542 2.003 . S
C2951 C590 1.163 . S
C2956 C1230 1.335 . S
C2972 C1123 1.621 . S
C2967 C470 1.657 . S
C2983 C518 1.801 . S
C2988 C1154 1.935 . S
C2999 C446 1.365 . S
C3004 C1470 1.404 . S
C3020 C1313 1.415 . S
C3015 C578 1.376 . S
C3036 C1359 0.569 . S
C3031 C686 0.568 . S
