# Generated by pormake.
# Topology zzz, (3,6)-cn, num edge types: 1
# Building blocks:
#     Node 0, Type 0, BuildingBlock: WUSLED_clean_sbu_0, # of connection points: 3
#     Node 1, Type 0, BuildingBlock: WUSLED_clean_sbu_0, # of connection points: 3
#     Node 2, Type 0, BuildingBlock: WUSLED_clean_sbu_0, # of connection points: 3
#     Node 3, Type 0, BuildingBlock: WUSLED_clean_sbu_0, # of connection points: 3
#     Node 4, Type 0, BuildingBlock: WUSLED_clean_sbu_0, # of connection points: 3
#     Node 5, Type 0, BuildingBlock: WUSLED_clean_sbu_0, # of connection points: 3
#     Node 6, Type 0, BuildingBlock: WUSLED_clean_sbu_0, # of connection points: 3
#     Node 7, Type 0, BuildingBlock: WUSLED_clean_sbu_0, # of connection points: 3
#     Node 8, Type 1, BuildingBlock: CUKXOW_clean_sbu_0, # of connection points: 6
#     Node 9, Type 1, BuildingBlock: CUKXOW_clean_sbu_0, # of connection points: 6
#     Node 10, Type 1, BuildingBlock: CUKXOW_clean_sbu_0, # of connection points: 6
#     Node 11, Type 1, BuildingBlock: CUKXOW_clean_sbu_0, # of connection points: 6
#     Edge 12, Type (0, 1), BuildingBlock: OJICUG_clean_linker_0, # of connection points: 2
#     Edge 13, Type (0, 1), BuildingBlock: OJICUG_clean_linker_0, # of connection points: 2
#     Edge 14, Type (0, 1), BuildingBlock: OJICUG_clean_linker_0, # of connection points: 2
#     Edge 15, Type (0, 1), BuildingBlock: OJICUG_clean_linker_0, # of connection points: 2
#     Edge 16, Type (0, 1), BuildingBlock: OJICUG_clean_linker_0, # of connection points: 2
#     Edge 17, Type (0, 1), BuildingBlock: OJICUG_clean_linker_0, # of connection points: 2
#     Edge 18, Type (0, 1), BuildingBlock: OJICUG_clean_linker_0, # of connection points: 2
#     Edge 19, Type (0, 1), BuildingBlock: OJICUG_clean_linker_0, # of connection points: 2
#     Edge 20, Type (0, 1), BuildingBlock: OJICUG_clean_linker_0, # of connection points: 2
#     Edge 21, Type (0, 1), BuildingBlock: OJICUG_clean_linker_0, # of connection points: 2
#     Edge 22, Type (0, 1), BuildingBlock: OJICUG_clean_linker_0, # of connection points: 2
#     Edge 23, Type (0, 1), BuildingBlock: OJICUG_clean_linker_0, # of connection points: 2
#     Edge 24, Type (0, 1), BuildingBlock: OJICUG_clean_linker_0, # of connection points: 2
#     Edge 25, Type (0, 1), BuildingBlock: OJICUG_clean_linker_0, # of connection points: 2
#     Edge 26, Type (0, 1), BuildingBlock: OJICUG_clean_linker_0, # of connection points: 2
#     Edge 27, Type (0, 1), BuildingBlock: OJICUG_clean_linker_0, # of connection points: 2
#     Edge 28, Type (0, 1), BuildingBlock: OJICUG_clean_linker_0, # of connection points: 2
#     Edge 29, Type (0, 1), BuildingBlock: OJICUG_clean_linker_0, # of connection points: 2
#     Edge 30, Type (0, 1), BuildingBlock: OJICUG_clean_linker_0, # of connection points: 2
#     Edge 31, Type (0, 1), BuildingBlock: OJICUG_clean_linker_0, # of connection points: 2
#     Edge 32, Type (0, 1), BuildingBlock: OJICUG_clean_linker_0, # of connection points: 2
#     Edge 33, Type (0, 1), BuildingBlock: OJICUG_clean_linker_0, # of connection points: 2
#     Edge 34, Type (0, 1), BuildingBlock: OJICUG_clean_linker_0, # of connection points: 2
#     Edge 35, Type (0, 1), BuildingBlock: OJICUG_clean_linker_0, # of connection points: 2
# Relax obj value: 0.199
# Max RMSD: 0.221
# Mean RMSD: 0.180
data_MOF--net-zzz--node1-WUSLED_clean_sbu_0--node2-CUKXOW_clean_sbu_0--edge1-OJICUG_clean_linker_0
_symmetry_space_group_name_H-M    P1
_symmetry_Int_Tables_number       1
_symmetry_cell_setting            triclinic
loop_
_symmetry_equiv_pos_as_xyz
'x, y, z'
_cell_length_a     50.22389
_cell_length_b     49.414109
_cell_length_c     17.535742
_cell_angle_alpha  92.897778
_cell_angle_beta   87.710716
_cell_angle_gamma 95.692826
loop_
_atom_site_label
_atom_site_type_symbol
_atom_site_fract_x
_atom_site_fract_y
_atom_site_fract_z
_atom_type_partial_charge
C0 C 0.80417 0.47506 0.27836 0.0
C1 C 0.8156 0.45182 0.29949 0.0
C2 C 0.85123 0.48031 0.36309 0.0
C3 C 0.83895 0.45442 0.34119 0.0
C4 C 0.84025 0.5035 0.33985 0.0
C5 C 0.81698 0.50092 0.29817 0.0
U6 U 0.75316 0.47055 0.11536 0.0
O7 O 0.71373 0.44668 0.11117 0.0
O8 O 0.71655 0.49137 0.1209 0.0
C9 C 0.70094 0.46863 0.11087 0.0
C10 C 0.77727 0.47252 0.24581 0.0
C11 C 0.68127 0.46888 0.0515 0.0
C12 C 0.63508 0.46155 0.01472 0.0
C13 C 0.65456 0.45961 0.06811 0.0
C14 C 0.66899 0.48166 0.92665 0.0
C15 C 0.64203 0.47289 0.9438 0.0
C16 C 0.68853 0.47956 0.98008 0.0
C17 C 0.81058 0.47361 0.96442 0.0
C18 C 0.84511 0.47575 0.86344 0.0
C19 C 0.85742 0.47732 0.99599 0.0
C20 C 0.83035 0.47523 0.01909 0.0
C21 C 0.86511 0.47781 0.91787 0.0
C22 C 0.81807 0.47369 0.88662 0.0
C23 C 0.7821 0.47211 0.98736 0.0
O24 O 0.77015 0.49412 0.21406 0.0
O25 O 0.76932 0.44953 0.20859 0.0
O26 O 0.77222 0.44931 0.01774 0.0
O27 O 0.77423 0.49395 0.02401 0.0
H28 H 0.80604 0.43162 0.28603 0.0
H29 H 0.84712 0.43615 0.3574 0.0
H30 H 0.84896 0.52375 0.35668 0.0
H31 H 0.80848 0.51927 0.28415 0.0
H32 H 0.61443 0.45497 0.02999 0.0
H33 H 0.64866 0.45142 0.12311 0.0
H34 H 0.67492 0.49026 0.87223 0.0
H35 H 0.70917 0.48672 0.96632 0.0
H36 H 0.85034 0.4764 0.803 0.0
H37 H 0.87234 0.47851 0.03929 0.0
H38 H 0.82484 0.47506 0.07947 0.0
H39 H 0.80298 0.47245 0.84376 0.0
C40 C 0.91771 0.81376 0.25409 0.0
C41 C 0.89964 0.82262 0.31077 0.0
C42 C 0.93237 0.85979 0.34984 0.0
C43 C 0.90684 0.84561 0.35807 0.0
C44 C 0.94977 0.85188 0.28985 0.0
C45 C 0.94242 0.82914 0.24195 0.0
U46 U 0.92767 0.75961 0.0929 0.0
O47 O 0.93621 0.71792 0.1121 0.0
O48 O 0.90047 0.72478 0.05046 0.0
C49 C 0.91621 0.70695 0.0713 0.0
C50 C 0.91239 0.78647 0.21726 0.0
C51 C 0.92376 0.68688 0.01194 0.0
C52 C 0.92059 0.64017 0.96117 0.0
C53 C 0.91135 0.66024 0.01167 0.0
C54 C 0.95429 0.67348 0.90921 0.0
C55 C 0.94255 0.64647 0.91063 0.0
C56 C 0.94489 0.69357 0.95932 0.0
C57 C 0.96715 0.81438 0.97371 0.0
C58 C 0.99702 0.84582 0.90054 0.0
C59 C 0.96131 0.86265 0.98095 0.0
C60 C 0.95358 0.83623 0.00377 0.0
C61 C 0.98289 0.86774 0.9281 0.0
C62 C 0.98913 0.8194 0.92297 0.0
C63 C 0.95724 0.78611 0.98885 0.0
O64 O 0.89847 0.78423 0.15486 0.0
O65 O 0.93305 0.77206 0.21298 0.0
O66 O 0.96747 0.77522 0.04657 0.0
O67 O 0.93119 0.78044 0.98518 0.0
H68 H 0.88055 0.81091 0.32119 0.0
H69 H 0.8931 0.85129 0.40397 0.0
H70 H 0.96943 0.86273 0.28178 0.0
H71 H 0.95663 0.82268 0.19826 0.0
H72 H 0.91133 0.61948 0.96406 0.0
H73 H 0.89509 0.65475 0.05219 0.0
H74 H 0.97104 0.67895 0.87035 0.0
H75 H 0.95467 0.71412 0.95878 0.0
H76 H 0.01405 0.84902 0.8611 0.0
H77 H 0.94978 0.87891 0.00286 0.0
H78 H 0.93649 0.83274 0.04299 0.0
H79 H -0.00017 0.80275 0.89923 0.0
C80 C 0.68822 0.00486 0.31174 0.0
C81 C 0.66376 0.003 0.27489 0.0
C82 C 0.63968 0.0024 0.3987 0.0
C83 C 0.63958 0.00191 0.31825 0.0
C84 C 0.66436 0.00463 0.43465 0.0
C85 C 0.68831 0.00584 0.3916 0.0
U86 U 0.74014 0.00879 0.1376 0.0
O87 O 0.77527 0.98545 0.12663 0.0
O88 O 0.78074 0.02988 0.14518 0.0
C89 C 0.79234 0.00736 0.13166 0.0
C90 C 0.7142 0.00523 0.27022 0.0
C91 C 0.815 0.00888 0.07579 0.0
C92 C 0.86269 0.01932 0.0509 0.0
C93 C 0.84046 0.01831 0.10136 0.0
C94 C 0.83427 0.00154 0.94785 0.0
C95 C 0.85992 0.01087 0.97358 0.0
C96 C 0.81193 0.00064 0.99857 0.0
C97 C 0.6884 0.01632 0.98255 0.0
C98 C 0.66009 0.01467 0.87319 0.0
C99 C 0.64254 0.028 0.99875 0.0
C100 C 0.66719 0.02452 0.02997 0.0
C101 C 0.6389 0.02353 0.9197 0.0
C102 C 0.68455 0.01112 0.90435 0.0
C103 C 0.71517 0.01419 0.01135 0.0
O104 O 0.71838 0.98393 0.22495 0.0
O105 O 0.72415 0.0285 0.2427 0.0
O106 O 0.71965 0.99043 0.03601 0.0
O107 O 0.72545 0.03495 0.05412 0.0
H108 H 0.66339 0.00216 0.21311 0.0
H109 H 0.62085 0.00015 0.289 0.0
H110 H 0.66519 0.00562 0.49638 0.0
H111 H 0.70704 0.00738 0.42093 0.0
H112 H 0.88218 0.0262 0.07291 0.0
H113 H 0.84322 0.02465 0.16083 0.0
H114 H 0.83145 0.99511 0.88852 0.0
H115 H 0.79237 0.99339 0.97769 0.0
H116 H 0.65779 0.01056 0.81242 0.0
H117 H 0.62661 0.03493 0.03599 0.0
H118 H 0.66986 0.02869 0.09056 0.0
H119 H 0.70069 0.00469 0.86696 0.0
C120 C 0.59938 0.69397 0.29028 0.0
C121 C 0.61799 0.68437 0.33732 0.0
C122 C 0.58513 0.64762 0.37554 0.0
C123 C 0.61099 0.66121 0.37931 0.0
C124 C 0.56707 0.65632 0.32493 0.0
C125 C 0.57421 0.67918 0.28212 0.0
U126 U 0.59091 0.74748 0.14338 0.0
O127 O 0.58245 0.78953 0.17224 0.0
O128 O 0.6188 0.78176 0.10441 0.0
C129 C 0.60298 0.79999 0.13102 0.0
C130 C 0.60498 0.72119 0.25939 0.0
C131 C 0.59641 0.81977 0.07661 0.0
C132 C 0.60231 0.86562 0.03116 0.0
C133 C 0.61007 0.84588 0.07787 0.0
C134 C 0.5675 0.83303 0.9801 0.0
C135 C 0.58058 0.8596 0.98273 0.0
C136 C 0.5754 0.81328 0.02646 0.0
C137 C 0.55189 0.69204 0.01785 0.0
C138 C 0.5211 0.66086 0.94478 0.0
C139 C 0.55736 0.64365 0.00885 0.0
C140 C 0.56552 0.67002 0.0372 0.0
C141 C 0.53533 0.63881 0.96104 0.0
C142 C 0.52939 0.68721 0.97267 0.0
C143 C 0.56213 0.72031 0.03795 0.0
O144 O 0.61954 0.72318 0.19549 0.0
O145 O 0.5844 0.7357 0.26163 0.0
O146 O 0.55143 0.73187 0.09943 0.0
O147 O 0.58827 0.72563 0.03173 0.0
H148 H 0.63746 0.69557 0.34455 0.0
H149 H 0.62521 0.6549 0.41808 0.0
H150 H 0.5471 0.64596 0.32054 0.0
H151 H 0.55957 0.68612 0.24575 0.0
H152 H 0.61315 0.8857 0.03368 0.0
H153 H 0.6264 0.85118 0.11611 0.0
H154 H 0.55051 0.82771 0.94432 0.0
H155 H 0.5646 0.79317 0.02483 0.0
H156 H 0.5037 0.65785 0.90971 0.0
H157 H 0.56891 0.62724 0.02223 0.0
H158 H 0.58297 0.67335 0.07214 0.0
H159 H 0.5186 0.70396 0.95729 0.0
C160 C 0.20459 0.53219 0.14334 0.0
C161 C 0.1929 0.55566 0.12527 0.0
C162 C 0.15746 0.52779 0.05915 0.0
C163 C 0.16952 0.55347 0.08379 0.0
C164 C 0.16871 0.50435 0.07929 0.0
C165 C 0.19203 0.50652 0.12067 0.0
U166 U 0.25568 0.53626 0.30603 0.0
O167 O 0.29194 0.51488 0.30064 0.0
O168 O 0.29538 0.5596 0.3094 0.0
C169 C 0.30786 0.53745 0.30996 0.0
C170 C 0.2315 0.53437 0.17572 0.0
C171 C 0.32763 0.5371 0.36896 0.0
C172 C 0.37391 0.54427 0.40492 0.0
C173 C 0.35434 0.54626 0.35187 0.0
C174 C 0.34012 0.52431 0.49359 0.0
C175 C 0.36707 0.53299 0.47596 0.0
C176 C 0.32049 0.52647 0.4405 0.0
C177 C 0.19836 0.53435 0.45714 0.0
C178 C 0.16379 0.53249 0.55801 0.0
C179 C 0.15156 0.53158 0.42548 0.0
C180 C 0.17863 0.53325 0.40245 0.0
C181 C 0.14382 0.53097 0.50355 0.0
C182 C 0.19083 0.53415 0.5349 0.0
C183 C 0.22683 0.53541 0.43422 0.0
O184 O 0.23983 0.55734 0.21247 0.0
O185 O 0.23825 0.51269 0.20788 0.0
O186 O 0.23701 0.55801 0.40336 0.0
O187 O 0.23438 0.51335 0.39799 0.0
H188 H 0.20227 0.57575 0.14097 0.0
H189 H 0.16114 0.57191 0.06991 0.0
H190 H 0.16016 0.48427 0.06026 0.0
H191 H 0.20075 0.48803 0.13226 0.0
H192 H 0.39455 0.55078 0.38929 0.0
H193 H 0.36015 0.55442 0.29677 0.0
H194 H 0.33429 0.51576 0.54813 0.0
H195 H 0.29985 0.51939 0.45464 0.0
H196 H 0.15851 0.53173 0.61841 0.0
H197 H 0.13669 0.53079 0.38216 0.0
H198 H 0.18417 0.53352 0.3421 0.0
H199 H 0.20588 0.53497 0.57777 0.0
C200 C 0.0964 0.19639 0.17568 0.0
C201 C 0.11436 0.18773 0.11843 0.0
C202 C 0.08185 0.15023 0.08043 0.0
C203 C 0.10722 0.16467 0.07137 0.0
C204 C 0.06461 0.15791 0.1411 0.0
C205 C 0.07191 0.18072 0.18876 0.0
U206 U 0.08515 0.25087 0.33468 0.0
O207 O 0.11167 0.28619 0.37742 0.0
O208 O 0.07621 0.29227 0.31348 0.0
C209 C 0.09582 0.30367 0.35505 0.0
C210 C 0.10141 0.22382 0.21181 0.0
C211 C 0.08762 0.32381 0.41332 0.0
C212 C 0.09014 0.37061 0.46323 0.0
C213 C 0.09992 0.35051 0.41387 0.0
C214 C 0.05613 0.33724 0.51343 0.0
C215 C 0.06778 0.36428 0.51232 0.0
C216 C 0.06605 0.31712 0.46449 0.0
C217 C 0.04558 0.19611 0.45372 0.0
C218 C 0.01603 0.1646 0.52753 0.0
C219 C 0.05176 0.14792 0.4469 0.0
C220 C 0.05929 0.17434 0.42378 0.0
C221 C 0.03027 0.14277 0.50001 0.0
C222 C 0.0237 0.19102 0.50474 0.0
C223 C 0.05526 0.22441 0.43816 0.0
O224 O 0.08062 0.23803 0.21456 0.0
O225 O 0.11493 0.22639 0.27494 0.0
O226 O 0.04524 0.23492 0.37946 0.0
O227 O 0.08123 0.23042 0.443 0.0
H228 H 0.13327 0.19967 0.1073 0.0
H229 H 0.12082 0.15916 0.02493 0.0
H230 H 0.04508 0.14686 0.14976 0.0
H231 H 0.05778 0.18705 0.23284 0.0
H232 H 0.09936 0.39133 0.46063 0.0
H233 H 0.11651 0.35599 0.37444 0.0
H234 H 0.03906 0.33177 0.55121 0.0
H235 H 0.05636 0.29653 0.4648 0.0
H236 H 0.99906 0.16134 0.56718 0.0
H237 H 0.06336 0.13171 0.42502 0.0
H238 H 0.07632 0.17791 0.3844 0.0
H239 H 0.0129 0.20762 0.52841 0.0
C240 C 0.32602 0.01818 0.11849 0.0
C241 C 0.34836 0.00927 0.15176 0.0
C242 C 0.37534 0.01894 0.03556 0.0
C243 C 0.3729 0.00962 0.11045 0.0
C244 C 0.3528 0.02799 0.00335 0.0
C245 C 0.32847 0.02765 0.04447 0.0
U246 U 0.27383 0.00749 0.28791 0.0
O247 O 0.23285 0.98762 0.2762 0.0
O248 O 0.23926 0.03103 0.31099 0.0
C249 C 0.22178 0.00975 0.2992 0.0
C250 C 0.29953 0.01699 0.15722 0.0
C251 C 0.19924 0.00612 0.35519 0.0
C252 C 0.1517 0.99408 0.379 0.0
C253 C 0.17399 0.99632 0.32875 0.0
C254 C 0.1797 0.01111 0.48367 0.0
C255 C 0.15421 0.00166 0.45696 0.0
C256 C 0.20208 0.01326 0.43319 0.0
C257 C 0.32747 0.99122 0.42825 0.0
C258 C 0.35675 0.96264 0.48743 0.0
C259 C 0.37281 0.00912 0.4604 0.0
C260 C 0.3482 0.01258 0.42912 0.0
C261 C 0.37715 0.98428 0.4915 0.0
C262 C 0.3322 0.96613 0.45649 0.0
C263 C 0.30008 0.99519 0.40587 0.0
O264 O 0.28874 0.99275 0.17544 0.0
O265 O 0.29569 0.03619 0.21 0.0
O266 O 0.28872 0.97673 0.35766 0.0
O267 O 0.29505 0.02015 0.39295 0.0
H268 H 0.34674 0.00185 0.20903 0.0
H269 H 0.38992 0.00267 0.13705 0.0
H270 H 0.35373 0.03474 0.94542 0.0
H271 H 0.31135 0.0344 0.01778 0.0
H272 H 0.13235 0.98712 0.35625 0.0
H273 H 0.17139 0.99083 0.26869 0.0
H274 H 0.18234 0.01686 0.54351 0.0
H275 H 0.22147 0.02078 0.45484 0.0
H276 H 0.35957 0.94309 0.50952 0.0
H277 H 0.388 0.02627 0.46309 0.0
H278 H 0.34518 0.03222 0.40797 0.0
H279 H 0.31655 0.94937 0.45673 0.0
C280 C 0.40831 0.31246 0.12796 0.0
C281 C 0.39004 0.32188 0.07948 0.0
C282 C 0.42295 0.35888 0.04341 0.0
C283 C 0.39723 0.34507 0.03783 0.0
C284 C 0.44061 0.35038 0.0955 0.0
C285 C 0.43327 0.32748 0.13796 0.0
U286 U 0.41598 0.25888 0.27529 0.0
O287 O 0.42509 0.21694 0.24673 0.0
O288 O 0.38806 0.22433 0.31172 0.0
C289 C 0.40423 0.20626 0.28618 0.0
C290 C 0.40267 0.28519 0.15843 0.0
C291 C 0.41055 0.18649 0.34088 0.0
C292 C 0.41749 0.13999 0.36699 0.0
C293 C 0.40872 0.15875 0.31891 0.0
C294 C 0.42934 0.17652 0.4606 0.0
C295 C 0.4283 0.1487 0.43796 0.0
C296 C 0.42065 0.19527 0.41232 0.0
C297 C 0.45433 0.31423 0.40314 0.0
C298 C 0.48562 0.34508 0.47556 0.0
C299 C 0.44941 0.36275 0.41241 0.0
C300 C 0.44088 0.33643 0.38426 0.0
C301 C 0.47163 0.36734 0.45958 0.0
C302 C 0.47697 0.31881 0.44784 0.0
C303 C 0.444 0.28602 0.38241 0.0
O304 O 0.42337 0.27086 0.15747 0.0
O305 O 0.38763 0.28303 0.22142 0.0
O306 O 0.4551 0.27445 0.3216 0.0
O307 O 0.41782 0.28078 0.38706 0.0
H308 H 0.37073 0.3105 0.07084 0.0
H309 H 0.38332 0.35123 0.99788 0.0
H310 H 0.46045 0.3609 0.10126 0.0
H311 H 0.44763 0.32067 0.17547 0.0
H312 H 0.41673 0.11882 0.34721 0.0
H313 H 0.40125 0.15169 0.26353 0.0
H314 H 0.43719 0.18388 0.51526 0.0
H315 H 0.42239 0.21669 0.42995 0.0
H316 H 0.50316 0.34788 0.51013 0.0
H317 H 0.43804 0.37932 0.39927 0.0
H318 H 0.42334 0.33331 0.34964 0.0
H319 H 0.48765 0.30192 0.46282 0.0
Tb320 Tb 0.99435 0.98464 0.65594 0.0
C321 C 0.05589 0.00155 0.64132 0.0
Tb322 Tb 0.01934 0.026 0.77341 0.0
O323 O 0.00375 0.0123 0.56338 0.0
O324 O 0.99682 0.02775 0.67442 0.0
O325 O 0.03657 0.98174 0.6279 0.0
C326 C 0.04303 0.06767 0.85663 0.0
O327 O 0.05231 0.02272 0.6891 0.0
C328 C 0.00913 0.97649 0.82131 0.0
C329 C 0.95779 0.00939 0.78769 0.0
O330 O 0.05152 0.04375 0.84676 0.0
O331 O 0.02153 0.06827 0.8184 0.0
O332 O 0.00975 0.99825 0.8658 0.0
O333 O 0.01687 0.98295 0.75487 0.0
O334 O 0.97717 0.02915 0.80087 0.0
O335 O 0.9613 0.98812 0.74015 0.0
C336 C 0.97079 0.94278 0.57311 0.0
O337 O 0.96226 0.96669 0.58252 0.0
O338 O 0.99225 0.94229 0.61159 0.0
C339 C 0.00445 0.03409 0.60776 0.0
Tb340 Tb 0.50064 0.0336 0.6801 0.0
C341 C 0.54633 0.0026 0.60314 0.0
Tb342 Tb 0.51313 0.98054 0.75018 0.0
O343 O 0.53903 0.05422 0.71605 0.0
O344 O 0.51959 0.02266 0.778 0.0
O345 O 0.52737 0.0186 0.59052 0.0
C346 C 0.53641 0.94249 0.81891 0.0
O347 O 0.54617 0.98854 0.66601 0.0
C348 C 0.47292 0.97616 0.65853 0.0
C349 C 0.46777 0.0124 0.83004 0.0
O350 O 0.52475 0.93895 0.75386 0.0
O351 O 0.53481 0.9673 0.84503 0.0
O352 O 0.47449 0.96035 0.71491 0.0
O353 O 0.49437 0.99149 0.65196 0.0
O354 O 0.48386 0.99291 0.83645 0.0
O355 O 0.47022 0.02945 0.77317 0.0
C356 C 0.47627 0.0709 0.61127 0.0
O357 O 0.49886 0.07539 0.64536 0.0
O358 O 0.46743 0.0455 0.61617 0.0
C359 C 0.54086 0.03828 0.77191 0.0
Tb360 Tb 0.51985 0.52279 0.65467 0.0
C361 C 0.45741 0.51437 0.65122 0.0
Tb362 Tb 0.48948 0.48312 0.76407 0.0
O363 O 0.50726 0.49671 0.55522 0.0
O364 O 0.51187 0.47986 0.65969 0.0
O365 O 0.47902 0.53163 0.64051 0.0
C366 C 0.46273 0.44211 0.8373 0.0
O367 O 0.45774 0.4919 0.68965 0.0
C368 C 0.50554 0.53125 0.82556 0.0
C369 C 0.55193 0.49146 0.76742 0.0
O370 O 0.45697 0.46719 0.84208 0.0
O371 O 0.48302 0.44013 0.79004 0.0
O372 O 0.50209 0.50925 0.86343 0.0
O373 O 0.49742 0.52599 0.759 0.0
O374 O 0.5303 0.47423 0.7782 0.0
O375 O 0.55163 0.51391 0.72888 0.0
C376 C 0.54644 0.56399 0.58173 0.0
O377 O 0.55209 0.53888 0.576 0.0
O378 O 0.52635 0.56588 0.62979 0.0
C379 C 0.50379 0.4747 0.59302 0.0
Tb380 Tb 0.9834 0.50074 0.64977 0.0
C381 C 0.02163 0.45563 0.66488 0.0
Tb382 Tb 0.0255 0.50955 0.77184 0.0
O383 O 0.01422 0.50108 0.55868 0.0
O384 O 0.0214 0.52349 0.66119 0.0
O385 O 0.99736 0.46044 0.64506 0.0
C386 C 0.06825 0.51503 0.85857 0.0
O387 O 0.03711 0.4734 0.70692 0.0
C388 C 0.97683 0.49451 0.82276 0.0
C389 C 0.98756 0.55484 0.7562 0.0
O390 O 0.04838 0.4963 0.86394 0.0
O391 O 0.06429 0.5306 0.80345 0.0
O392 O 0.9945 0.5093 0.86258 0.0
O393 O 0.98758 0.48678 0.76027 0.0
O394 O 0.0118 0.54992 0.77605 0.0
O395 O 0.97198 0.5371 0.71433 0.0
C396 C 0.94045 0.49485 0.56377 0.0
O397 O 0.96034 0.5135 0.55731 0.0
O398 O 0.94449 0.47962 0.61959 0.0
C399 C 0.03199 0.51577 0.59841 0.0
C400 C 0.1261 0.0221 0.56251 0.0
C401 C 0.13003 0.00058 0.50899 0.0
H402 H 0.09968 0.03936 0.64613 0.0
C403 C 0.10998 0.97869 0.50257 0.0
H404 H 0.14102 0.0394 0.56834 0.0
C405 C 0.08622 0.97871 0.54682 0.0
C406 C 0.08191 0.00063 0.59863 0.0
H407 H 0.11255 0.9616 0.46272 0.0
H408 H 0.07107 0.9617 0.53933 0.0
C409 C 0.1023 0.02214 0.6068 0.0
C410 C 0.42734 0.10243 0.49262 0.0
C411 C 0.43974 0.12908 0.48607 0.0
H412 H 0.42921 0.06314 0.53762 0.0
C413 C 0.46386 0.13654 0.52338 0.0
H414 H 0.40861 0.09609 0.46542 0.0
C415 C 0.47549 0.11774 0.56515 0.0
C416 C 0.46331 0.09107 0.57035 0.0
H417 H 0.47419 0.15672 0.5186 0.0
H418 H 0.49427 0.12395 0.59228 0.0
C419 C 0.43904 0.08361 0.53429 0.0
C420 C 0.40932 0.54991 0.54071 0.0
C421 C 0.38837 0.5293 0.52943 0.0
H422 H 0.44734 0.56148 0.58875 0.0
C423 C 0.38903 0.50448 0.56482 0.0
H424 H 0.4091 0.56942 0.51531 0.0
C425 C 0.41099 0.49988 0.60735 0.0
C426 C 0.43262 0.52004 0.61505 0.0
H427 H 0.37319 0.48816 0.5567 0.0
H428 H 0.41148 0.48018 0.63142 0.0
C429 C 0.43121 0.54534 0.58298 0.0
C430 C 0.07186 0.4066 0.59775 0.0
C431 C 0.05566 0.38621 0.55819 0.0
H432 H 0.07379 0.44432 0.66339 0.0
C433 C 0.02786 0.38782 0.55866 0.0
H434 H 0.09331 0.40575 0.59882 0.0
C435 C 0.01662 0.40994 0.59544 0.0
C436 C 0.03293 0.43078 0.63306 0.0
H437 H 0.01491 0.37251 0.528 0.0
H438 H 0.99524 0.411 0.59284 0.0
C439 C 0.06061 0.42859 0.63512 0.0
C440 C 0.88776 0.98937 0.86901 0.0
C441 C 0.88396 0.01136 0.92107 0.0
H442 H 0.91401 0.97141 0.78613 0.0
C443 C 0.90398 0.03332 0.92545 0.0
H444 H 0.87281 0.97204 0.8647 0.0
C445 C 0.92761 0.03293 0.88081 0.0
C446 C 0.93183 0.01057 0.83052 0.0
H447 H 0.90149 0.05078 0.96403 0.0
H448 H 0.94273 0.05005 0.88679 0.0
C449 C 0.91145 0.98897 0.82426 0.0
C450 C 0.56085 0.87533 0.86459 0.0
C451 C 0.57066 0.88123 0.93831 0.0
H452 H 0.54229 0.89015 0.7689 0.0
C453 C 0.56985 0.90777 0.97082 0.0
H454 H 0.56152 0.85524 0.83732 0.0
C455 C 0.55912 0.92775 0.93126 0.0
C456 C 0.5488 0.9216 0.85856 0.0
H457 H 0.57681 0.91299 0.02785 0.0
H458 H 0.55847 0.9479 0.95827 0.0
C459 C 0.54997 0.89532 0.82519 0.0
C460 C 0.59991 0.45592 0.87838 0.0
C461 C 0.62083 0.47656 0.88998 0.0
H462 H 0.56198 0.44433 0.82983 0.0
C463 C 0.62019 0.50139 0.85456 0.0
H464 H 0.60011 0.43641 0.90378 0.0
C465 C 0.5983 0.50597 0.81172 0.0
C466 C 0.5767 0.48579 0.80374 0.0
H467 H 0.63599 0.51772 0.86291 0.0
H468 H 0.59782 0.52567 0.78767 0.0
C469 C 0.57809 0.46048 0.83581 0.0
C470 C 0.93779 0.6041 0.82536 0.0
C471 C 0.95431 0.62453 0.86384 0.0
H472 H 0.93538 0.56625 0.7602 0.0
C473 C 0.98211 0.62289 0.86165 0.0
H474 H 0.91632 0.60497 0.82563 0.0
C475 C 0.99307 0.6007 0.8244 0.0
C476 C 0.97647 0.57981 0.78801 0.0
H477 H 0.99531 0.63821 0.89145 0.0
H478 H 0.01448 0.59962 0.82578 0.0
C479 C 0.94877 0.58203 0.78748 0.0
C480 C 0.02466 0.09187 0.478 0.0
C481 C 0.02316 0.11489 0.52789 0.0
H482 H 0.02006 0.04841 0.46453 0.0
C483 C 0.0152 0.11102 0.60487 0.0
H484 H 0.03028 0.09402 0.41819 0.0
C485 C 0.00894 0.08479 0.63114 0.0
C486 C 0.01075 0.06193 0.58121 0.0
H487 H 0.01416 0.12823 0.64525 0.0
H488 H 0.00268 0.08243 0.69036 0.0
C489 C 0.01862 0.06571 0.50444 0.0
C490 C 0.40087 0.96756 0.60065 0.0
C491 C 0.40212 0.98135 0.5321 0.0
H492 H 0.42229 0.95518 0.69405 0.0
C493 C 0.42719 0.9928 0.5043 0.0
H494 H 0.38189 0.95888 0.62448 0.0
C495 C 0.45037 0.99069 0.54455 0.0
C496 C 0.44888 0.97735 0.61365 0.0
H497 H 0.42891 0.00328 0.45131 0.0
H498 H 0.46943 -0.00036 0.52188 0.0
C499 C 0.424 0.96552 0.64079 0.0
C500 C 0.48887 0.39823 0.56902 0.0
C501 C 0.47979 0.395 0.49383 0.0
H502 H 0.50403 0.42586 0.65862 0.0
C503 C 0.47849 0.41839 0.45211 0.0
H504 H 0.48976 0.38077 0.60341 0.0
C505 C 0.48612 0.44429 0.4847 0.0
C506 C 0.49528 0.44736 0.55954 0.0
H507 H 0.47193 0.41671 0.39384 0.0
H508 H 0.48496 0.46191 0.4511 0.0
C509 C 0.49666 0.42411 0.60129 0.0
C510 C 0.10542 0.54237 0.59249 0.0
C511 C 0.11504 0.52771 0.52789 0.0
H512 H 0.07133 0.55047 0.66491 0.0
C513 C 0.09702 0.50938 0.48718 0.0
H514 H 0.11875 0.55687 0.6246 0.0
C515 C 0.07008 0.50574 0.51038 0.0
C516 C 0.06051 0.5203 0.57488 0.0
H517 H 0.10382 0.49742 0.43806 0.0
H518 H 0.05677 0.49126 0.4781 0.0
C519 C 0.07834 0.53873 0.61568 0.0
C520 C 0.99838 0.89955 0.8237 0.0
C521 C 0.99019 0.89562 0.9005 0.0
H522 H 0.01121 0.92819 0.73861 0.0
C523 C 0.98861 0.91862 0.95046 0.0
H524 H -0.0005 0.88236 0.78326 0.0
C525 C 0.99473 0.94479 0.92422 0.0
C526 C 0.00279 0.94863 0.84762 0.0
H527 H 0.98283 0.91644 0.01016 0.0
H528 H 0.9932 0.96207 0.96416 0.0
C529 C 0.00475 0.9258 0.79767 0.0
C530 C 0.5885 0.01968 0.91865 0.0
C531 C 0.61347 0.02858 0.88472 0.0
H532 H 0.54575 0.0162 0.90982 0.0
C533 C 0.61412 0.0419 0.81553 0.0
H534 H 0.58733 0.00933 0.97186 0.0
C535 C 0.59043 0.04558 0.78001 0.0
C536 C 0.56559 0.03588 0.81261 0.0
H537 H 0.633 0.04944 0.7886 0.0
H538 H 0.59162 0.05548 0.72607 0.0
C539 C 0.56475 0.02331 0.88282 0.0
C540 C 0.51895 0.60783 0.85075 0.0
C541 C 0.5277 0.61111 0.92627 0.0
H542 H 0.50463 0.5801 0.76032 0.0
C543 C 0.5293 0.58773 0.96776 0.0
H544 H 0.51784 0.6253 0.81654 0.0
C545 C 0.52231 0.56179 0.93461 0.0
C546 C 0.51347 0.55866 0.85943 0.0
H547 H 0.53562 0.58943 0.02628 0.0
H548 H 0.52368 0.54417 0.96805 0.0
C549 C 0.51177 0.5819 0.81791 0.0
C550 C 0.90371 0.46679 0.8292 0.0
C551 C 0.89386 0.48149 0.89341 0.0
H552 H 0.93795 0.459 0.75706 0.0
C553 C 0.91162 0.50026 0.93362 0.0
H554 H 0.89059 0.45196 0.79749 0.0
C555 C 0.93854 0.50427 0.91032 0.0
C556 C 0.94833 0.48967 0.84623 0.0
H557 H 0.90464 0.51225 0.98244 0.0
H558 H 0.95165 0.51907 0.94222 0.0
C559 C 0.93076 0.47081 0.80592 0.0
C560 C 0.08782 0.10766 0.99962 0.0
C561 C 0.07233 0.12899 0.02259 0.0
H562 H 0.09049 0.07121 0.92892 0.0
C563 C 0.04777 0.13055 0.98825 0.0
H564 H 0.10687 0.10612 0.02512 0.0
C565 C 0.0387 0.11103 0.93246 0.0
C566 C 0.05384 0.08935 0.9108 0.0
H567 H 0.03566 0.14705 0.0041 0.0
H568 H 0.01958 0.11262 0.9074 0.0
C569 C 0.0785 0.08781 0.94464 0.0
C570 C 0.41611 0.99616 0.98945 0.0
C571 C 0.40081 0.0185 0.98927 0.0
H572 H 0.44928 0.97667 0.93937 0.0
C573 C 0.40899 0.03966 0.94026 0.0
H574 H 0.41026 0.97941 0.02597 0.0
C575 C 0.4311 0.03795 0.89005 0.0
C576 C 0.44578 0.01515 0.88801 0.0
H577 H 0.39801 0.05744 0.93975 0.0
H578 H 0.43639 0.05439 0.85199 0.0
C579 C 0.43841 0.99453 0.93944 0.0
C580 C 0.45578 0.37748 0.9446 0.0
C581 C 0.43239 0.38021 0.9897 0.0
H582 H 0.48325 0.39467 0.85967 0.0
C583 C 0.41814 0.40293 0.98183 0.0
H584 H 0.4669 0.35995 0.94891 0.0
C585 C 0.42771 0.42305 0.93127 0.0
C586 C 0.45125 0.42033 0.88669 0.0
H587 H 0.39998 0.40537 0.01586 0.0
H588 H 0.41683 0.44077 0.92738 0.0
C589 C 0.46498 0.39721 0.89312 0.0
C590 C 0.11309 0.50463 0.01983 0.0
C591 C 0.13403 0.52532 0.0094 0.0
H592 H 0.07594 0.48515 0.97987 0.0
C593 C 0.133 0.54282 0.94893 0.0
H594 H 0.11312 0.49102 0.06634 0.0
C595 C 0.11162 0.5395 0.89957 0.0
C596 C 0.09094 0.51862 0.9098 0.0
H597 H 0.14902 0.5587 0.93866 0.0
H598 H 0.11136 0.55313 0.85317 0.0
C599 C 0.09178 0.5013 0.97045 0.0
C600 C 0.9263 0.90253 0.42981 0.0
C601 C 0.94178 0.88111 0.40765 0.0
H602 H 0.92354 0.93916 0.49971 0.0
C603 C 0.96622 0.87958 0.44267 0.0
H604 H 0.90734 0.90407 0.40377 0.0
C605 C 0.97519 0.89921 0.49829 0.0
C606 C 0.96006 0.92098 0.51913 0.0
H607 H 0.97832 0.86301 0.42745 0.0
H608 H 0.99422 0.89763 0.52386 0.0
C609 C 0.93552 0.92249 0.48464 0.0
C610 C 0.59351 0.01625 0.43137 0.0
C611 C 0.61444 0.0006 0.4462 0.0
H612 H 0.55555 0.0293 0.46938 0.0
C613 C 0.61188 0.98431 0.51002 0.0
H614 H 0.59497 0.02912 0.38288 0.0
C615 C 0.58947 0.98446 0.55962 0.0
C616 C 0.56896 0.00089 0.54667 0.0
H617 H 0.62746 0.97165 0.52229 0.0
H618 H 0.58854 0.97205 0.609 0.0
C619 C 0.571 0.01645 0.48122 0.0
C620 C 0.59022 0.60338 0.43586 0.0
C621 C 0.57603 0.62623 0.42947 0.0
H622 H 0.59175 0.56535 0.4891 0.0
C623 C 0.55299 0.62899 0.47609 0.0
H624 H 0.60811 0.60092 0.40064 0.0
C625 C 0.54406 0.60915 0.52754 0.0
C626 C 0.55771 0.5859 0.53245 0.0
H627 H 0.54192 0.64662 0.47294 0.0
H628 H 0.52604 0.61172 0.56213 0.0
C629 C 0.58093 0.58316 0.48642 0.0
C630 C 0.89568 0.50374 0.40107 0.0
C631 C 0.87461 0.4833 0.41312 0.0
H632 H 0.93291 0.52345 0.43973 0.0
C633 C 0.87551 0.46652 0.47532 0.0
H634 H 0.89576 0.51679 0.35324 0.0
C635 C 0.8969 0.47027 0.52463 0.0
C636 C 0.91771 0.49089 0.51272 0.0
H637 H 0.8594 0.45086 0.4869 0.0
H638 H 0.89706 0.45718 0.5723 0.0
C639 C 0.91697 0.50753 0.45047 0.0
loop_
_geom_bond_atom_site_label_1
_geom_bond_atom_site_label_2
_geom_bond_distance
_geom_bond_site_symmetry_2
_ccdc_geom_bond_type
C0 C1 1.264 . S
C0 C5 1.479 . S
C0 C10 1.465 . S
C1 C0 1.264 . S
C1 C3 1.339 . S
C1 H28 0.931 . S
C2 C3 1.395 . S
C2 C4 1.320 . S
C3 C1 1.339 . S
C3 C2 1.395 . S
C3 H29 0.929 . S
C4 C2 1.320 . S
C4 C5 1.405 . S
C4 H30 0.930 . S
C5 C0 1.479 . S
C5 C4 1.405 . S
C5 H31 0.931 . S
U6 O7 2.454 . S
U6 O8 2.458 1_554 S
U6 C9 2.984 . S
U6 C10 2.847 . S
U6 C23 2.882 1_554 S
U6 O24 2.441 . S
U6 O25 2.420 . S
U6 O26 2.455 1_554 S
U6 O27 2.449 . S
O7 U6 2.454 . S
O7 C9 1.353 . S
O8 U6 2.458 1_556 S
O8 C9 1.286 1_556 S
C9 U6 2.984 . S
C9 O7 1.353 . S
C9 O8 1.286 1_554 S
C9 C11 1.363 . S
C10 C0 1.465 . S
C10 U6 2.847 . S
C10 O24 1.249 . S
C10 O25 1.202 . S
C11 C9 1.363 . S
C11 C13 1.408 . S
C11 C16 1.342 1_554 S
C12 C13 1.310 . S
C12 C15 1.461 1_554 S
C12 H32 0.932 . S
C13 C11 1.408 . S
C13 C12 1.310 . S
C13 H33 0.930 . S
C14 C15 1.474 . S
C14 C16 1.285 . S
C14 H34 0.929 . S
C15 C12 1.461 1_556 S
C15 C14 1.474 . S
C16 C11 1.342 1_556 S
C16 C14 1.285 . S
C16 H35 0.930 . S
C17 C20 1.424 . S
C17 C22 1.245 . S
C17 C23 1.428 . S
C18 C21 1.260 . S
C18 C22 1.477 . S
C18 H36 0.932 . S
C19 C20 1.384 . S
C19 C21 1.479 . S
C19 H37 0.929 . S
C20 C17 1.424 . S
C20 C19 1.384 . S
C20 H38 0.928 . S
C21 C18 1.260 . S
C21 C19 1.479 . S
C22 C17 1.245 . S
C22 C18 1.477 . S
C22 H39 0.932 . S
C23 U6 2.882 1_556 S
C23 C17 1.428 . S
C23 O26 1.301 . S
C23 O27 1.282 1_556 S
O24 U6 2.441 . S
O24 C10 1.249 . S
O25 U6 2.420 . S
O25 C10 1.202 . S
O26 U6 2.455 1_556 S
O26 C23 1.301 . S
O27 U6 2.449 . S
O27 C23 1.282 1_554 S
H28 C1 0.931 . S
H29 C3 0.929 . S
H30 C4 0.930 . S
H31 C5 0.931 . S
H32 C12 0.932 . S
H33 C13 0.930 . S
H34 C14 0.929 . S
H35 C16 0.930 . S
H36 C18 0.932 . S
H37 C19 0.929 . S
H38 C20 0.928 . S
H39 C22 0.932 . S
C40 C41 1.264 . S
C40 C45 1.479 . S
C40 C50 1.465 . S
C41 C40 1.264 . S
C41 C43 1.339 . S
C41 H68 0.931 . S
C42 C43 1.395 . S
C42 C44 1.320 . S
C43 C41 1.339 . S
C43 C42 1.395 . S
C43 H69 0.929 . S
C44 C42 1.320 . S
C44 C45 1.405 . S
C44 H70 0.930 . S
C45 C40 1.479 . S
C45 C44 1.405 . S
C45 H71 0.931 . S
U46 O47 2.454 . S
U46 O48 2.458 1_554 S
U46 C49 2.984 1_554 S
U46 C50 2.847 . S
U46 C63 2.882 1_554 S
U46 O64 2.441 . S
U46 O65 2.420 . S
U46 O66 2.455 1_554 S
U46 O67 2.449 1_554 S
O47 U46 2.454 . S
O47 C49 1.353 1_554 S
O48 U46 2.458 1_556 S
O48 C49 1.286 . S
C49 U46 2.984 1_556 S
C49 O47 1.353 1_556 S
C49 O48 1.286 . S
C49 C51 1.363 . S
C50 C40 1.465 . S
C50 U46 2.847 . S
C50 O64 1.249 . S
C50 O65 1.202 . S
C51 C49 1.363 . S
C51 C53 1.408 1_556 S
C51 C56 1.342 . S
C52 C53 1.310 . S
C52 C55 1.461 1_554 S
C52 H72 0.932 . S
C53 C51 1.408 1_554 S
C53 C52 1.310 . S
C53 H73 0.930 . S
C54 C55 1.474 . S
C54 C56 1.285 . S
C54 H74 0.929 . S
C55 C52 1.461 1_556 S
C55 C54 1.474 . S
C56 C51 1.342 . S
C56 C54 1.285 . S
C56 H75 0.930 . S
C57 C60 1.424 . S
C57 C62 1.245 . S
C57 C63 1.428 . S
C58 C61 1.260 . S
C58 C62 1.477 . S
C58 H76 0.932 . S
C59 C60 1.384 . S
C59 C61 1.479 . S
C59 H77 0.929 . S
C60 C57 1.424 . S
C60 C59 1.384 . S
C60 H78 0.928 . S
C61 C58 1.260 . S
C61 C59 1.479 . S
C62 C57 1.245 . S
C62 C58 1.477 . S
C62 H79 0.932 . S
C63 U46 2.882 1_556 S
C63 C57 1.428 . S
C63 O66 1.301 . S
C63 O67 1.282 . S
O64 U46 2.441 . S
O64 C50 1.249 . S
O65 U46 2.420 . S
O65 C50 1.202 . S
O66 U46 2.455 1_556 S
O66 C63 1.301 . S
O67 U46 2.449 1_556 S
O67 C63 1.282 . S
H68 C41 0.931 . S
H69 C43 0.929 . S
H70 C44 0.930 . S
H71 C45 0.931 . S
H72 C52 0.932 . S
H73 C53 0.930 . S
H74 C54 0.929 . S
H75 C56 0.930 . S
H76 C58 0.932 . S
H77 C59 0.929 . S
H78 C60 0.928 . S
H79 C62 0.932 . S
C80 C81 1.264 . S
C80 C85 1.479 . S
C80 C90 1.465 . S
C81 C80 1.264 . S
C81 C83 1.339 . S
C81 H108 0.931 . S
C82 C83 1.395 . S
C82 C84 1.320 . S
C83 C81 1.339 . S
C83 C82 1.395 . S
C83 H109 0.929 . S
C84 C82 1.320 . S
C84 C85 1.405 . S
C84 H110 0.930 1_545 S
C85 C80 1.479 . S
C85 C84 1.405 . S
C85 H111 0.931 . S
U86 O87 2.454 . S
U86 O88 2.458 . S
U86 C89 2.984 . S
U86 C90 2.847 . S
U86 C103 2.890 . S
U86 O104 2.441 . S
U86 O105 2.420 . S
U86 O106 2.455 1_554 S
U86 O107 2.449 . S
O87 U86 2.454 . S
O87 C89 1.353 . S
O88 U86 2.458 . S
O88 C89 1.286 . S
C89 U86 2.984 . S
C89 O87 1.353 . S
C89 O88 1.286 . S
C89 C91 1.363 . S
C90 C80 1.465 . S
C90 U86 2.847 . S
C90 O104 1.249 . S
C90 O105 1.202 . S
C91 C89 1.363 . S
C91 C93 1.408 . S
C91 C96 1.342 1_554 S
C92 C93 1.310 . S
C92 C95 1.461 . S
C92 H112 0.932 . S
C93 C91 1.408 . S
C93 C92 1.310 . S
C93 H113 0.930 . S
C94 C95 1.476 1_566 S
C94 C96 1.284 1_565 S
C94 H114 0.930 . S
C95 C92 1.461 . S
C95 C94 1.476 1_544 S
C96 C91 1.342 1_556 S
C96 C94 1.284 1_545 S
C96 H115 0.928 . S
C97 C100 1.424 . S
C97 C102 1.245 . S
C97 C103 1.420 1_556 S
C98 C101 1.260 . S
C98 C102 1.477 . S
C98 H116 0.932 . S
C99 C100 1.384 . S
C99 C101 1.479 . S
C99 H117 0.929 . S
C100 C97 1.424 . S
C100 C99 1.384 . S
C100 H118 0.928 1_556 S
C101 C98 1.260 . S
C101 C99 1.479 . S
C102 C97 1.245 . S
C102 C98 1.477 . S
C102 H119 0.932 . S
C103 U86 2.890 . S
C103 C97 1.420 1_554 S
C103 O106 1.300 1_554 S
C103 O107 1.291 . S
O104 U86 2.441 . S
O104 C90 1.249 . S
O105 U86 2.420 . S
O105 C90 1.202 . S
O106 U86 2.455 1_556 S
O106 C103 1.300 1_556 S
O107 U86 2.449 . S
O107 C103 1.291 . S
H108 C81 0.931 . S
H109 C83 0.929 . S
H110 C84 0.930 1_565 S
H111 C85 0.931 . S
H112 C92 0.932 . S
H113 C93 0.930 . S
H114 C94 0.930 . S
H115 C96 0.928 . S
H116 C98 0.932 . S
H117 C99 0.929 . S
H118 C100 0.928 1_554 S
H119 C102 0.932 . S
C120 C121 1.264 . S
C120 C125 1.479 . S
C120 C130 1.465 . S
C121 C120 1.264 . S
C121 C123 1.339 . S
C121 H148 0.931 . S
C122 C123 1.395 . S
C122 C124 1.320 . S
C123 C121 1.339 . S
C123 C122 1.395 . S
C123 H149 0.929 . S
C124 C122 1.320 . S
C124 C125 1.405 . S
C124 H150 0.930 . S
C125 C120 1.479 . S
C125 C124 1.405 . S
C125 H151 0.931 . S
U126 O127 2.454 . S
U126 O128 2.458 . S
U126 C129 2.984 . S
U126 C130 2.847 . S
U126 C143 2.882 1_554 S
U126 O144 2.441 . S
U126 O145 2.420 . S
U126 O146 2.455 1_554 S
U126 O147 2.449 . S
O127 U126 2.454 . S
O127 C129 1.353 . S
O128 U126 2.458 . S
O128 C129 1.286 . S
C129 U126 2.984 . S
C129 O127 1.353 . S
C129 O128 1.286 . S
C129 C131 1.363 . S
C130 C120 1.465 . S
C130 U126 2.847 . S
C130 O144 1.249 . S
C130 O145 1.202 . S
C131 C129 1.363 . S
C131 C133 1.408 . S
C131 C136 1.342 1_554 S
C132 C133 1.310 . S
C132 C135 1.461 . S
C132 H152 0.932 . S
C133 C131 1.408 . S
C133 C132 1.310 . S
C133 H153 0.930 . S
C134 C135 1.474 1_556 S
C134 C136 1.285 . S
C134 H154 0.929 . S
C135 C132 1.461 . S
C135 C134 1.474 1_554 S
C136 C131 1.342 1_556 S
C136 C134 1.285 . S
C136 H155 0.930 . S
C137 C140 1.424 . S
C137 C142 1.245 . S
C137 C143 1.428 . S
C138 C141 1.260 . S
C138 C142 1.477 . S
C138 H156 0.932 . S
C139 C140 1.384 . S
C139 C141 1.479 . S
C139 H157 0.929 . S
C140 C137 1.424 . S
C140 C139 1.384 . S
C140 H158 0.928 . S
C141 C138 1.260 . S
C141 C139 1.479 . S
C142 C137 1.245 . S
C142 C138 1.477 . S
C142 H159 0.932 . S
C143 U126 2.882 1_556 S
C143 C137 1.428 . S
C143 O146 1.301 . S
C143 O147 1.282 1_556 S
O144 U126 2.441 . S
O144 C130 1.249 . S
O145 U126 2.420 . S
O145 C130 1.202 . S
O146 U126 2.455 1_556 S
O146 C143 1.301 . S
O147 U126 2.449 . S
O147 C143 1.282 1_554 S
H148 C121 0.931 . S
H149 C123 0.929 . S
H150 C124 0.930 . S
H151 C125 0.931 . S
H152 C132 0.932 . S
H153 C133 0.930 . S
H154 C134 0.929 . S
H155 C136 0.930 . S
H156 C138 0.932 . S
H157 C139 0.929 . S
H158 C140 0.928 . S
H159 C142 0.932 . S
C160 C161 1.264 . S
C160 C165 1.479 . S
C160 C170 1.465 . S
C161 C160 1.264 . S
C161 C163 1.339 . S
C161 H188 0.931 . S
C162 C163 1.395 1_556 S
C162 C164 1.320 . S
C163 C161 1.339 . S
C163 C162 1.395 1_554 S
C163 H189 0.929 . S
C164 C162 1.320 . S
C164 C165 1.405 1_556 S
C164 H190 0.930 . S
C165 C160 1.479 . S
C165 C164 1.405 1_554 S
C165 H191 0.931 . S
U166 O167 2.454 . S
U166 O168 2.458 . S
U166 C169 2.984 . S
U166 C170 2.847 . S
U166 C183 2.882 . S
U166 O184 2.441 . S
U166 O185 2.420 . S
U166 O186 2.455 . S
U166 O187 2.449 . S
O167 U166 2.454 . S
O167 C169 1.353 . S
O168 U166 2.458 . S
O168 C169 1.286 . S
C169 U166 2.984 . S
C169 O167 1.353 . S
C169 O168 1.286 . S
C169 C171 1.363 . S
C170 C160 1.465 . S
C170 U166 2.847 . S
C170 O184 1.249 . S
C170 O185 1.202 . S
C171 C169 1.363 . S
C171 C173 1.408 . S
C171 C176 1.342 . S
C172 C173 1.310 . S
C172 C175 1.461 . S
C172 H192 0.932 . S
C173 C171 1.408 . S
C173 C172 1.310 . S
C173 H193 0.930 . S
C174 C175 1.474 . S
C174 C176 1.285 . S
C174 H194 0.929 . S
C175 C172 1.461 . S
C175 C174 1.474 . S
C176 C171 1.342 . S
C176 C174 1.285 . S
C176 H195 0.930 . S
C177 C180 1.424 . S
C177 C182 1.245 . S
C177 C183 1.428 . S
C178 C181 1.260 . S
C178 C182 1.477 . S
C178 H196 0.932 . S
C179 C180 1.384 . S
C179 C181 1.479 . S
C179 H197 0.929 . S
C180 C177 1.424 . S
C180 C179 1.384 . S
C180 H198 0.928 . S
C181 C178 1.260 . S
C181 C179 1.479 . S
C182 C177 1.245 . S
C182 C178 1.477 . S
C182 H199 0.932 . S
C183 U166 2.882 . S
C183 C177 1.428 . S
C183 O186 1.301 . S
C183 O187 1.282 . S
O184 U166 2.441 . S
O184 C170 1.249 . S
O185 U166 2.420 . S
O185 C170 1.202 . S
O186 U166 2.455 . S
O186 C183 1.301 . S
O187 U166 2.449 . S
O187 C183 1.282 . S
H188 C161 0.931 . S
H189 C163 0.929 . S
H190 C164 0.930 . S
H191 C165 0.931 . S
H192 C172 0.932 . S
H193 C173 0.930 . S
H194 C174 0.929 . S
H195 C176 0.930 . S
H196 C178 0.932 . S
H197 C179 0.929 . S
H198 C180 0.928 . S
H199 C182 0.932 . S
C200 C201 1.264 . S
C200 C205 1.479 . S
C200 C210 1.465 . S
C201 C200 1.264 . S
C201 C203 1.339 . S
C201 H228 0.931 . S
C202 C203 1.394 1_556 S
C202 C204 1.320 1_556 S
C203 C201 1.339 . S
C203 C202 1.394 1_554 S
C203 H229 0.929 . S
C204 C202 1.320 1_554 S
C204 C205 1.405 . S
C204 H230 0.930 1_554 S
C205 C200 1.479 . S
C205 C204 1.405 . S
C205 H231 0.931 . S
U206 O207 2.454 . S
U206 O208 2.458 . S
U206 C209 2.984 . S
U206 C210 2.847 . S
U206 C223 2.882 . S
U206 O224 2.441 . S
U206 O225 2.420 . S
U206 O226 2.455 . S
U206 O227 2.449 . S
O207 U206 2.454 . S
O207 C209 1.353 . S
O208 U206 2.458 . S
O208 C209 1.286 . S
C209 U206 2.984 . S
C209 O207 1.353 . S
C209 O208 1.286 . S
C209 C211 1.363 . S
C210 C200 1.465 . S
C210 U206 2.847 . S
C210 O224 1.249 . S
C210 O225 1.202 . S
C211 C209 1.363 . S
C211 C213 1.408 . S
C211 C216 1.342 . S
C212 C213 1.310 . S
C212 C215 1.461 . S
C212 H232 0.932 . S
C213 C211 1.408 . S
C213 C212 1.310 . S
C213 H233 0.930 . S
C214 C215 1.474 . S
C214 C216 1.285 . S
C214 H234 0.929 . S
C215 C212 1.461 . S
C215 C214 1.474 . S
C216 C211 1.342 . S
C216 C214 1.285 . S
C216 H235 0.930 . S
C217 C220 1.424 . S
C217 C222 1.245 . S
C217 C223 1.428 . S
C218 C221 1.260 . S
C218 C222 1.477 . S
C218 H236 0.932 . S
C219 C220 1.384 . S
C219 C221 1.479 . S
C219 H237 0.929 . S
C220 C217 1.424 . S
C220 C219 1.384 . S
C220 H238 0.928 . S
C221 C218 1.260 . S
C221 C219 1.479 . S
C222 C217 1.245 . S
C222 C218 1.477 . S
C222 H239 0.932 . S
C223 U206 2.882 . S
C223 C217 1.428 . S
C223 O226 1.301 . S
C223 O227 1.282 . S
O224 U206 2.441 . S
O224 C210 1.249 . S
O225 U206 2.420 . S
O225 C210 1.202 . S
O226 U206 2.455 . S
O226 C223 1.301 . S
O227 U206 2.449 . S
O227 C223 1.282 . S
H228 C201 0.931 . S
H229 C203 0.929 . S
H230 C204 0.930 1_556 S
H231 C205 0.931 . S
H232 C212 0.932 . S
H233 C213 0.930 . S
H234 C214 0.929 . S
H235 C216 0.930 . S
H236 C218 0.932 . S
H237 C219 0.929 . S
H238 C220 0.928 . S
H239 C222 0.932 . S
C240 C241 1.264 . S
C240 C245 1.479 . S
C240 C250 1.465 . S
C241 C240 1.264 . S
C241 C243 1.339 1_554 S
C241 H268 0.931 . S
C242 C243 1.395 . S
C242 C244 1.320 . S
C243 C241 1.339 1_556 S
C243 C242 1.395 . S
C243 H269 0.929 . S
C244 C242 1.320 . S
C244 C245 1.405 1_556 S
C244 H270 0.930 . S
C245 C240 1.479 . S
C245 C244 1.405 1_554 S
C245 H271 0.931 . S
U246 O247 2.454 . S
U246 O248 2.458 . S
U246 C249 2.984 . S
U246 C250 2.847 . S
U246 C263 2.882 . S
U246 O264 2.441 . S
U246 O265 2.420 . S
U246 O266 2.455 . S
U246 O267 2.449 . S
O247 U246 2.454 . S
O247 C249 1.353 . S
O248 U246 2.458 . S
O248 C249 1.286 . S
C249 U246 2.984 . S
C249 O247 1.353 . S
C249 O248 1.286 . S
C249 C251 1.363 . S
C250 C240 1.465 . S
C250 U246 2.847 . S
C250 O264 1.249 . S
C250 O265 1.202 . S
C251 C249 1.363 . S
C251 C253 1.408 . S
C251 C256 1.342 . S
C252 C253 1.310 . S
C252 C255 1.461 . S
C252 H272 0.932 . S
C253 C251 1.408 . S
C253 C252 1.310 . S
C253 H273 0.930 . S
C254 C255 1.474 . S
C254 C256 1.285 . S
C254 H274 0.929 . S
C255 C252 1.461 . S
C255 C254 1.474 . S
C256 C251 1.342 . S
C256 C254 1.285 . S
C256 H275 0.930 . S
C257 C260 1.424 . S
C257 C262 1.245 . S
C257 C263 1.428 . S
C258 C261 1.260 . S
C258 C262 1.477 . S
C258 H276 0.932 . S
C259 C260 1.384 . S
C259 C261 1.479 . S
C259 H277 0.929 . S
C260 C257 1.424 . S
C260 C259 1.384 . S
C260 H278 0.928 . S
C261 C258 1.260 . S
C261 C259 1.479 . S
C262 C257 1.245 . S
C262 C258 1.477 . S
C262 H279 0.932 . S
C263 U246 2.882 . S
C263 C257 1.428 . S
C263 O266 1.301 . S
C263 O267 1.282 . S
O264 U246 2.441 . S
O264 C250 1.249 . S
O265 U246 2.420 . S
O265 C250 1.202 . S
O266 U246 2.455 . S
O266 C263 1.301 . S
O267 U246 2.449 . S
O267 C263 1.282 . S
H268 C241 0.931 . S
H269 C243 0.929 . S
H270 C244 0.930 . S
H271 C245 0.931 . S
H272 C252 0.932 . S
H273 C253 0.930 . S
H274 C254 0.929 . S
H275 C256 0.930 . S
H276 C258 0.932 . S
H277 C259 0.929 . S
H278 C260 0.928 . S
H279 C262 0.932 . S
C280 C281 1.264 . S
C280 C285 1.479 . S
C280 C290 1.465 . S
C281 C280 1.264 . S
C281 C283 1.339 . S
C281 H308 0.931 . S
C282 C283 1.395 1_556 S
C282 C284 1.320 . S
C283 C281 1.339 . S
C283 C282 1.395 1_554 S
C283 H309 0.929 . S
C284 C282 1.320 . S
C284 C285 1.405 1_556 S
C284 H310 0.930 . S
C285 C280 1.479 . S
C285 C284 1.405 1_554 S
C285 H311 0.931 . S
U286 O287 2.454 . S
U286 O288 2.458 . S
U286 C289 2.984 . S
U286 C290 2.847 . S
U286 C303 2.882 . S
U286 O304 2.441 . S
U286 O305 2.420 . S
U286 O306 2.455 . S
U286 O307 2.449 . S
O287 U286 2.454 . S
O287 C289 1.353 . S
O288 U286 2.458 . S
O288 C289 1.286 . S
C289 U286 2.984 . S
C289 O287 1.353 . S
C289 O288 1.286 . S
C289 C291 1.363 . S
C290 C280 1.465 . S
C290 U286 2.847 . S
C290 O304 1.249 . S
C290 O305 1.202 . S
C291 C289 1.363 . S
C291 C293 1.408 . S
C291 C296 1.342 . S
C292 C293 1.310 . S
C292 C295 1.461 . S
C292 H312 0.932 . S
C293 C291 1.408 . S
C293 C292 1.310 . S
C293 H313 0.930 . S
C294 C295 1.474 . S
C294 C296 1.285 . S
C294 H314 0.929 . S
C295 C292 1.461 . S
C295 C294 1.474 . S
C296 C291 1.342 . S
C296 C294 1.285 . S
C296 H315 0.930 . S
C297 C300 1.424 . S
C297 C302 1.245 . S
C297 C303 1.428 . S
C298 C301 1.260 . S
C298 C302 1.477 . S
C298 H316 0.932 . S
C299 C300 1.384 . S
C299 C301 1.479 . S
C299 H317 0.929 . S
C300 C297 1.424 . S
C300 C299 1.384 . S
C300 H318 0.928 . S
C301 C298 1.260 . S
C301 C299 1.479 . S
C302 C297 1.245 . S
C302 C298 1.477 . S
C302 H319 0.932 . S
C303 U286 2.882 . S
C303 C297 1.428 . S
C303 O306 1.301 . S
C303 O307 1.282 . S
O304 U286 2.441 . S
O304 C290 1.249 . S
O305 U286 2.420 . S
O305 C290 1.202 . S
O306 U286 2.455 . S
O306 C303 1.301 . S
O307 U286 2.449 . S
O307 C303 1.282 . S
H308 C281 0.931 . S
H309 C283 0.929 . S
H310 C284 0.930 . S
H311 C285 0.931 . S
H312 C292 0.932 . S
H313 C293 0.930 . S
H314 C294 0.929 . S
H315 C296 0.930 . S
H316 C298 0.932 . S
H317 C299 0.929 . S
H318 C300 0.928 . S
H319 C302 0.932 . S
Tb320 O323 2.449 1_655 S
Tb320 O324 2.593 1_655 S
Tb320 O325 2.375 1_645 S
Tb320 O333 2.345 1_545 S
Tb320 O335 2.352 . S
Tb320 O337 2.429 1_545 S
Tb320 O338 2.516 1_545 S
C321 O325 1.251 . S
C321 O327 1.263 . S
Tb322 O324 2.343 . S
Tb322 O327 2.353 1_545 S
Tb322 O330 2.427 . S
Tb322 O331 2.513 . S
Tb322 O332 2.453 1_545 S
Tb322 O333 2.596 1_445 S
Tb322 O334 2.374 1_455 S
O323 Tb320 2.449 1_455 S
O323 C339 1.245 . S
O324 Tb320 2.593 1_455 S
O324 Tb322 2.343 . S
O324 C339 1.259 . S
O325 Tb320 2.375 1_465 S
O325 C321 1.251 . S
C326 O330 1.275 . S
C326 O331 1.246 . S
O327 C321 1.263 . S
O327 Tb322 2.353 1_565 S
C328 O332 1.245 1_655 S
C328 O333 1.259 . S
C329 O334 1.250 . S
C329 O335 1.263 . S
O330 Tb322 2.427 . S
O330 C326 1.275 . S
O331 Tb322 2.513 . S
O331 C326 1.246 . S
O332 Tb322 2.453 1_565 S
O332 C328 1.245 1_455 S
O333 Tb320 2.345 1_565 S
O333 Tb322 2.596 1_665 S
O333 C328 1.259 . S
O334 Tb322 2.374 1_655 S
O334 C329 1.250 . S
O335 Tb320 2.352 . S
O335 C329 1.263 . S
C336 O337 1.275 . S
C336 O338 1.246 . S
O337 Tb320 2.429 1_565 S
O337 C336 1.275 . S
O338 Tb320 2.516 1_565 S
O338 C336 1.246 . S
C339 O323 1.245 . S
C339 O324 1.259 . S
Tb340 O343 2.453 . S
Tb340 O344 2.631 . S
Tb340 O345 2.374 . S
Tb340 O353 2.343 . S
Tb340 O355 2.353 . S
Tb340 O357 2.427 . S
Tb340 O358 2.513 . S
C341 O345 1.251 . S
C341 O347 1.263 1_545 S
Tb342 O344 2.317 1_565 S
Tb342 O347 2.353 . S
Tb342 O350 2.427 . S
Tb342 O351 2.513 . S
Tb342 O352 2.453 . S
Tb342 O353 2.596 1_565 S
Tb342 O354 2.374 . S
O343 Tb340 2.453 . S
O343 C359 1.245 . S
O344 Tb340 2.631 . S
O344 Tb342 2.317 1_545 S
O344 C359 1.277 . S
O345 Tb340 2.374 . S
O345 C341 1.251 . S
C346 O350 1.275 . S
C346 O351 1.246 . S
O347 C341 1.263 1_565 S
O347 Tb342 2.353 . S
C348 O352 1.245 . S
C348 O353 1.259 1_565 S
C349 O354 1.250 1_545 S
C349 O355 1.263 . S
O350 Tb342 2.427 . S
O350 C346 1.275 . S
O351 Tb342 2.513 . S
O351 C346 1.246 . S
O352 Tb342 2.453 . S
O352 C348 1.245 . S
O353 Tb340 2.343 . S
O353 Tb342 2.596 1_545 S
O353 C348 1.259 1_545 S
O354 Tb342 2.374 . S
O354 C349 1.250 1_565 S
O355 Tb340 2.353 . S
O355 C349 1.263 . S
C356 O357 1.275 . S
C356 O358 1.246 . S
O357 Tb340 2.427 . S
O357 C356 1.275 . S
O358 Tb340 2.513 . S
O358 C356 1.246 . S
C359 O343 1.245 . S
C359 O344 1.277 . S
Tb360 O363 2.453 . S
Tb360 O364 2.596 . S
Tb360 O365 2.374 . S
Tb360 O373 2.343 . S
Tb360 O375 2.353 . S
Tb360 O377 2.427 . S
Tb360 O378 2.513 . S
C361 O365 1.251 . S
C361 O367 1.263 . S
Tb362 O364 2.343 . S
Tb362 O367 2.353 . S
Tb362 O370 2.427 . S
Tb362 O371 2.513 . S
Tb362 O372 2.453 . S
Tb362 O373 2.596 . S
Tb362 O374 2.374 . S
O363 Tb360 2.453 . S
O363 C379 1.245 . S
O364 Tb360 2.596 . S
O364 Tb362 2.343 . S
O364 C379 1.259 . S
O365 Tb360 2.374 . S
O365 C361 1.251 . S
C366 O370 1.275 . S
C366 O371 1.246 . S
O367 C361 1.263 . S
O367 Tb362 2.353 . S
C368 O372 1.245 . S
C368 O373 1.259 . S
C369 O374 1.250 . S
C369 O375 1.263 . S
O370 Tb362 2.427 . S
O370 C366 1.275 . S
O371 Tb362 2.513 . S
O371 C366 1.246 . S
O372 Tb362 2.453 . S
O372 C368 1.245 . S
O373 Tb360 2.343 . S
O373 Tb362 2.596 . S
O373 C368 1.259 . S
O374 Tb362 2.374 . S
O374 C369 1.250 . S
O375 Tb360 2.353 . S
O375 C369 1.263 . S
C376 O377 1.275 . S
C376 O378 1.246 . S
O377 Tb360 2.427 . S
O377 C376 1.275 . S
O378 Tb360 2.513 . S
O378 C376 1.246 . S
C379 O363 1.245 . S
C379 O364 1.259 . S
Tb380 O383 2.453 1_655 S
Tb380 O384 2.596 1_655 S
Tb380 O385 2.374 1_655 S
Tb380 O393 2.343 . S
Tb380 O395 2.353 . S
Tb380 O397 2.427 . S
Tb380 O398 2.513 . S
C381 O385 1.251 . S
C381 O387 1.263 . S
Tb382 O384 2.343 . S
Tb382 O387 2.353 . S
Tb382 O390 2.427 . S
Tb382 O391 2.513 . S
Tb382 O392 2.453 1_455 S
Tb382 O393 2.596 1_455 S
Tb382 O394 2.374 . S
O383 Tb380 2.453 1_455 S
O383 C399 1.245 . S
O384 Tb380 2.596 1_455 S
O384 Tb382 2.343 . S
O384 C399 1.259 . S
O385 Tb380 2.374 1_455 S
O385 C381 1.251 . S
C386 O390 1.275 . S
C386 O391 1.246 . S
O387 C381 1.263 . S
O387 Tb382 2.353 . S
C388 O392 1.245 . S
C388 O393 1.259 . S
C389 O394 1.250 1_655 S
C389 O395 1.263 . S
O390 Tb382 2.427 . S
O390 C386 1.275 . S
O391 Tb382 2.513 . S
O391 C386 1.246 . S
O392 Tb382 2.453 1_655 S
O392 C388 1.245 . S
O393 Tb380 2.343 . S
O393 Tb382 2.596 1_655 S
O393 C388 1.259 . S
O394 Tb382 2.374 . S
O394 C389 1.250 1_455 S
O395 Tb380 2.353 . S
O395 C389 1.263 . S
C396 O397 1.275 . S
C396 O398 1.246 . S
O397 Tb380 2.427 . S
O397 C396 1.275 . S
O398 Tb380 2.513 . S
O398 C396 1.246 . S
C399 O383 1.245 . S
C399 O384 1.259 . S
C400 C401 1.387 . S
C400 H404 0.950 . S
C400 C409 1.390 . S
C401 C400 1.387 . S
C401 C403 1.387 1_545 S
H402 C409 0.950 . S
C403 C401 1.387 1_565 S
C403 C405 1.390 . S
C403 H407 0.950 . S
H404 C400 0.950 . S
C405 C403 1.390 . S
C405 C406 1.387 1_565 S
C405 H408 0.950 . S
C406 C405 1.387 1_545 S
C406 C409 1.387 . S
H407 C403 0.950 . S
H408 C405 0.950 . S
C409 C400 1.390 . S
C409 H402 0.950 . S
C409 C406 1.387 . S
C410 C411 1.387 . S
C410 H414 0.950 . S
C410 C419 1.390 . S
C411 C410 1.387 . S
C411 C413 1.387 . S
H412 C419 0.950 . S
C413 C411 1.387 . S
C413 C415 1.390 . S
C413 H417 0.950 . S
H414 C410 0.950 . S
C415 C413 1.390 . S
C415 C416 1.387 . S
C415 H418 0.950 . S
C416 C415 1.387 . S
C416 C419 1.387 . S
H417 C413 0.950 . S
H418 C415 0.950 . S
C419 C410 1.390 . S
C419 H412 0.950 . S
C419 C416 1.387 . S
C420 C421 1.387 . S
C420 H424 0.950 . S
C420 C429 1.390 . S
C421 C420 1.387 . S
C421 C423 1.387 . S
H422 C429 0.950 . S
C423 C421 1.387 . S
C423 C425 1.390 . S
C423 H427 0.950 . S
H424 C420 0.950 . S
C425 C423 1.390 . S
C425 C426 1.387 . S
C425 H428 0.950 . S
C426 C425 1.387 . S
C426 C429 1.387 . S
H427 C423 0.950 . S
H428 C425 0.950 . S
C429 C420 1.390 . S
C429 H422 0.950 . S
C429 C426 1.387 . S
C430 C431 1.387 . S
C430 H434 0.950 . S
C430 C439 1.390 . S
C431 C430 1.387 . S
C431 C433 1.387 . S
H432 C439 0.950 . S
C433 C431 1.387 . S
C433 C435 1.390 . S
C433 H437 0.950 . S
H434 C430 0.950 . S
C435 C433 1.390 . S
C435 C436 1.387 . S
C435 H438 0.950 . S
C436 C435 1.387 . S
C436 C439 1.387 . S
H437 C433 0.950 . S
H438 C435 0.950 . S
C439 C430 1.390 . S
C439 H432 0.950 . S
C439 C436 1.387 . S
C440 C441 1.387 1_565 S
C440 H444 0.950 . S
C440 C449 1.390 . S
C441 C440 1.387 1_545 S
C441 C443 1.387 . S
H442 C449 0.950 . S
C443 C441 1.387 . S
C443 C445 1.390 . S
C443 H447 0.950 . S
H444 C440 0.950 . S
C445 C443 1.390 . S
C445 C446 1.387 . S
C445 H448 0.950 . S
C446 C445 1.387 . S
C446 C449 1.387 1_545 S
H447 C443 0.950 . S
H448 C445 0.950 . S
C449 C440 1.390 . S
C449 H442 0.950 . S
C449 C446 1.387 1_565 S
C450 C451 1.387 . S
C450 H454 0.950 . S
C450 C459 1.390 . S
C451 C450 1.387 . S
C451 C453 1.387 . S
H452 C459 0.950 . S
C453 C451 1.387 . S
C453 C455 1.390 . S
C453 H457 0.950 1_556 S
H454 C450 0.950 . S
C455 C453 1.390 . S
C455 C456 1.387 . S
C455 H458 0.950 . S
C456 C455 1.387 . S
C456 C459 1.387 . S
H457 C453 0.950 1_554 S
H458 C455 0.950 . S
C459 C450 1.390 . S
C459 H452 0.950 . S
C459 C456 1.387 . S
C460 C461 1.387 . S
C460 H464 0.950 . S
C460 C469 1.390 . S
C461 C460 1.387 . S
C461 C463 1.387 . S
H462 C469 0.950 . S
C463 C461 1.387 . S
C463 C465 1.390 . S
C463 H467 0.950 . S
H464 C460 0.950 . S
C465 C463 1.390 . S
C465 C466 1.387 . S
C465 H468 0.950 . S
C466 C465 1.387 . S
C466 C469 1.387 . S
H467 C463 0.950 . S
H468 C465 0.950 . S
C469 C460 1.390 . S
C469 H462 0.950 . S
C469 C466 1.387 . S
C470 C471 1.387 . S
C470 H474 0.950 . S
C470 C479 1.390 . S
C471 C470 1.387 . S
C471 C473 1.387 . S
H472 C479 0.950 . S
C473 C471 1.387 . S
C473 C475 1.390 . S
C473 H477 0.950 . S
H474 C470 0.950 . S
C475 C473 1.390 . S
C475 C476 1.387 . S
C475 H478 0.950 . S
C476 C475 1.387 . S
C476 C479 1.387 . S
H477 C473 0.950 . S
H478 C475 0.950 . S
C479 C470 1.390 . S
C479 H472 0.950 . S
C479 C476 1.387 . S
C480 C481 1.387 . S
C480 H484 0.950 . S
C480 C489 1.390 . S
C481 C480 1.387 . S
C481 C483 1.387 . S
H482 C489 0.950 . S
C483 C481 1.387 . S
C483 C485 1.390 . S
C483 H487 0.950 . S
H484 C480 0.950 . S
C485 C483 1.390 . S
C485 C486 1.387 . S
C485 H488 0.950 . S
C486 C485 1.387 . S
C486 C489 1.387 . S
H487 C483 0.950 . S
H488 C485 0.950 . S
C489 C480 1.390 . S
C489 H482 0.950 . S
C489 C486 1.387 . S
C490 C491 1.387 . S
C490 H494 0.950 . S
C490 C499 1.390 . S
C491 C490 1.387 . S
C491 C493 1.387 . S
H492 C499 0.950 . S
C493 C491 1.387 . S
C493 C495 1.390 . S
C493 H497 0.950 . S
H494 C490 0.950 . S
C495 C493 1.390 . S
C495 C496 1.387 . S
C495 H498 0.950 . S
C496 C495 1.387 . S
C496 C499 1.387 . S
H497 C493 0.950 . S
H498 C495 0.950 . S
C499 C490 1.390 . S
C499 H492 0.950 . S
C499 C496 1.387 . S
C500 C501 1.387 . S
C500 H504 0.950 . S
C500 C509 1.390 . S
C501 C500 1.387 . S
C501 C503 1.387 . S
H502 C509 0.950 . S
C503 C501 1.387 . S
C503 C505 1.390 . S
C503 H507 0.950 . S
H504 C500 0.950 . S
C505 C503 1.390 . S
C505 C506 1.387 . S
C505 H508 0.950 . S
C506 C505 1.387 . S
C506 C509 1.387 . S
H507 C503 0.950 . S
H508 C505 0.950 . S
C509 C500 1.390 . S
C509 H502 0.950 . S
C509 C506 1.387 . S
C510 C511 1.387 . S
C510 H514 0.950 . S
C510 C519 1.390 . S
C511 C510 1.387 . S
C511 C513 1.387 . S
H512 C519 0.950 . S
C513 C511 1.387 . S
C513 C515 1.390 . S
C513 H517 0.950 . S
H514 C510 0.950 . S
C515 C513 1.390 . S
C515 C516 1.387 . S
C515 H518 0.950 . S
C516 C515 1.387 . S
C516 C519 1.387 . S
H517 C513 0.950 . S
H518 C515 0.950 . S
C519 C510 1.390 . S
C519 H512 0.950 . S
C519 C516 1.387 . S
C520 C521 1.387 . S
C520 H524 0.950 . S
C520 C529 1.390 . S
C521 C520 1.387 . S
C521 C523 1.387 . S
H522 C529 0.950 . S
C523 C521 1.387 . S
C523 C525 1.390 . S
C523 H527 0.950 . S
H524 C520 0.950 . S
C525 C523 1.390 . S
C525 C526 1.387 . S
C525 H528 0.950 . S
C526 C525 1.387 . S
C526 C529 1.387 . S
H527 C523 0.950 . S
H528 C525 0.950 . S
C529 C520 1.390 . S
C529 H522 0.950 . S
C529 C526 1.387 . S
C530 C531 1.389 . S
C530 H534 0.950 . S
C530 C539 1.390 . S
C531 C530 1.389 . S
C531 C533 1.391 . S
H532 C539 0.950 . S
C533 C531 1.391 . S
C533 C535 1.390 . S
C533 H537 0.952 . S
H534 C530 0.950 . S
C535 C533 1.390 . S
C535 C536 1.387 . S
C535 H538 0.950 . S
C536 C535 1.387 . S
C536 C539 1.387 . S
H537 C533 0.952 . S
H538 C535 0.950 . S
C539 C530 1.390 . S
C539 H532 0.950 . S
C539 C536 1.387 . S
C540 C541 1.387 . S
C540 H544 0.950 . S
C540 C549 1.390 . S
C541 C540 1.387 . S
C541 C543 1.387 . S
H542 C549 0.950 . S
C543 C541 1.387 . S
C543 C545 1.390 . S
C543 H547 0.950 . S
H544 C540 0.950 . S
C545 C543 1.390 . S
C545 C546 1.387 . S
C545 H548 0.950 . S
C546 C545 1.387 . S
C546 C549 1.387 . S
H547 C543 0.950 . S
H548 C545 0.950 . S
C549 C540 1.390 . S
C549 H542 0.950 . S
C549 C546 1.387 . S
C550 C551 1.387 . S
C550 H554 0.950 . S
C550 C559 1.390 . S
C551 C550 1.387 . S
C551 C553 1.387 . S
H552 C559 0.950 . S
C553 C551 1.387 . S
C553 C555 1.390 . S
C553 H557 0.950 . S
H554 C550 0.950 . S
C555 C553 1.390 . S
C555 C556 1.387 . S
C555 H558 0.950 . S
C556 C555 1.387 . S
C556 C559 1.387 . S
H557 C553 0.950 . S
H558 C555 0.950 . S
C559 C550 1.390 . S
C559 H552 0.950 . S
C559 C556 1.387 . S
C560 C561 1.387 . S
C560 H564 0.950 1_556 S
C560 C569 1.390 . S
C561 C560 1.387 . S
C561 C563 1.387 . S
H562 C569 0.950 1_554 S
C563 C561 1.387 . S
C563 C565 1.390 . S
C563 H567 0.950 . S
H564 C560 0.950 1_554 S
C565 C563 1.390 . S
C565 C566 1.387 . S
C565 H568 0.950 . S
C566 C565 1.387 . S
C566 C569 1.387 . S
H567 C563 0.950 . S
H568 C565 0.950 . S
C569 C560 1.390 . S
C569 H562 0.950 1_556 S
C569 C566 1.387 . S
C570 C571 1.387 1_565 S
C570 H574 0.950 . S
C570 C579 1.390 . S
C571 C570 1.387 1_545 S
C571 C573 1.387 . S
H572 C579 0.950 . S
C573 C571 1.387 . S
C573 C575 1.390 . S
C573 H577 0.950 . S
H574 C570 0.950 . S
C575 C573 1.390 . S
C575 C576 1.387 . S
C575 H578 0.950 . S
C576 C575 1.387 . S
C576 C579 1.387 1_545 S
H577 C573 0.950 . S
H578 C575 0.950 . S
C579 C570 1.390 . S
C579 H572 0.950 . S
C579 C576 1.387 1_565 S
C580 C581 1.387 . S
C580 H584 0.950 . S
C580 C589 1.390 . S
C581 C580 1.387 . S
C581 C583 1.387 . S
H582 C589 0.950 . S
C583 C581 1.387 . S
C583 C585 1.390 . S
C583 H587 0.950 1_556 S
H584 C580 0.950 . S
C585 C583 1.390 . S
C585 C586 1.387 . S
C585 H588 0.950 . S
C586 C585 1.387 . S
C586 C589 1.387 . S
H587 C583 0.950 1_554 S
H588 C585 0.950 . S
C589 C580 1.390 . S
C589 H582 0.950 . S
C589 C586 1.387 . S
C590 C591 1.387 . S
C590 H594 0.950 . S
C590 C599 1.390 . S
C591 C590 1.387 . S
C591 C593 1.387 . S
H592 C599 0.950 . S
C593 C591 1.387 . S
C593 C595 1.390 . S
C593 H597 0.950 . S
H594 C590 0.950 . S
C595 C593 1.390 . S
C595 C596 1.387 . S
C595 H598 0.950 . S
C596 C595 1.387 . S
C596 C599 1.387 . S
H597 C593 0.950 . S
H598 C595 0.950 . S
C599 C590 1.390 . S
C599 H592 0.950 . S
C599 C596 1.387 . S
C600 C601 1.387 . S
C600 H604 0.950 . S
C600 C609 1.390 . S
C601 C600 1.387 . S
C601 C603 1.387 . S
H602 C609 0.950 . S
C603 C601 1.387 . S
C603 C605 1.390 . S
C603 H607 0.950 . S
H604 C600 0.950 . S
C605 C603 1.390 . S
C605 C606 1.387 . S
C605 H608 0.950 . S
C606 C605 1.387 . S
C606 C609 1.387 . S
H607 C603 0.950 . S
H608 C605 0.950 . S
C609 C600 1.390 . S
C609 H602 0.950 . S
C609 C606 1.387 . S
C610 C611 1.416 . S
C610 H614 0.950 . S
C610 C619 1.390 . S
C611 C610 1.416 . S
C611 C613 1.364 1_545 S
H612 C619 0.950 . S
C613 C611 1.364 1_565 S
C613 C615 1.390 . S
C613 H617 0.950 . S
H614 C610 0.950 . S
C615 C613 1.390 . S
C615 C616 1.387 1_565 S
C615 H618 0.950 . S
C616 C615 1.387 1_545 S
C616 C619 1.387 . S
H617 C613 0.950 . S
H618 C615 0.950 . S
C619 C610 1.390 . S
C619 H612 0.950 . S
C619 C616 1.387 . S
C620 C621 1.387 . S
C620 H624 0.950 . S
C620 C629 1.390 . S
C621 C620 1.387 . S
C621 C623 1.387 . S
H622 C629 0.950 . S
C623 C621 1.387 . S
C623 C625 1.390 . S
C623 H627 0.950 . S
H624 C620 0.950 . S
C625 C623 1.390 . S
C625 C626 1.387 . S
C625 H628 0.950 . S
C626 C625 1.387 . S
C626 C629 1.387 . S
H627 C623 0.950 . S
H628 C625 0.950 . S
C629 C620 1.390 . S
C629 H622 0.950 . S
C629 C626 1.387 . S
C630 C631 1.387 . S
C630 H634 0.950 . S
C630 C639 1.390 . S
C631 C630 1.387 . S
C631 C633 1.387 . S
H632 C639 0.950 . S
C633 C631 1.387 . S
C633 C635 1.390 . S
C633 H637 0.950 . S
H634 C630 0.950 . S
C635 C633 1.390 . S
C635 C636 1.387 . S
C635 H638 0.950 . S
C636 C635 1.387 . S
C636 C639 1.387 . S
H637 C633 0.950 . S
H638 C635 0.950 . S
C639 C630 1.390 . S
C639 H632 0.950 . S
C639 C636 1.387 . S
C401 C255 1.643 . S
C406 C321 1.680 1_545 S
C416 C356 2.561 . S
C411 C295 2.307 . S
C426 C361 1.573 . S
C421 C175 1.555 . S
C436 C381 2.247 . S
C431 C215 2.055 . S
C446 C329 1.683 . S
C441 C95 1.645 1_556 S
C451 C135 2.288 1_556 S
C456 C346 2.561 . S
C461 C15 1.559 . S
C466 C369 1.570 . S
C471 C55 2.033 . S
C476 C389 2.246 . S
C486 C339 2.200 . S
C481 C221 1.941 . S
C496 C348 1.020 1_545 S
C491 C261 0.975 . S
C506 C379 2.307 . S
C501 C301 2.067 . S
C511 C181 1.134 . S
C516 C399 1.311 . S
C521 C61 1.692 . S
C526 C328 2.200 . S
C536 C359 1.020 . S
C531 C101 0.966 . S
C546 C368 2.305 . S
C541 C141 1.794 . S
C551 C21 1.210 . S
C556 C388 1.314 . S
C561 C202 2.358 . S
C566 C326 2.527 . S
C571 C242 2.087 . S
C576 C349 2.306 . S
C586 C366 2.780 . S
C581 C282 2.547 . S
C596 C386 2.426 . S
C591 C162 2.160 . S
C601 C42 2.201 . S
C606 C336 2.526 . S
C616 C341 2.307 . S
C611 C82 2.084 . S
C626 C376 2.780 . S
C621 C122 2.377 . S
C631 C2 2.233 . S
C636 C396 2.425 . S
