# Generated by pormake.
# Topology gar, (4,6)-cn, num edge types: 1
# Building blocks:
#     Node 0, Type 0, BuildingBlock: TATPOV_clean_sbu_0, # of connection points: 4
#     Node 1, Type 0, BuildingBlock: TATPOV_clean_sbu_0, # of connection points: 4
#     Node 2, Type 0, BuildingBlock: TATPOV_clean_sbu_0, # of connection points: 4
#     Node 3, Type 0, BuildingBlock: TATPOV_clean_sbu_0, # of connection points: 4
#     Node 4, Type 0, BuildingBlock: TATPOV_clean_sbu_0, # of connection points: 4
#     Node 5, Type 0, BuildingBlock: TATPOV_clean_sbu_0, # of connection points: 4
#     Node 6, Type 0, BuildingBlock: TATPOV_clean_sbu_0, # of connection points: 4
#     Node 7, Type 0, BuildingBlock: TATPOV_clean_sbu_0, # of connection points: 4
#     Node 8, Type 0, BuildingBlock: TATPOV_clean_sbu_0, # of connection points: 4
#     Node 9, Type 0, BuildingBlock: TATPOV_clean_sbu_0, # of connection points: 4
#     Node 10, Type 0, BuildingBlock: TATPOV_clean_sbu_0, # of connection points: 4
#     Node 11, Type 0, BuildingBlock: TATPOV_clean_sbu_0, # of connection points: 4
#     Node 12, Type 0, BuildingBlock: TATPOV_clean_sbu_0, # of connection points: 4
#     Node 13, Type 0, BuildingBlock: TATPOV_clean_sbu_0, # of connection points: 4
#     Node 14, Type 0, BuildingBlock: TATPOV_clean_sbu_0, # of connection points: 4
#     Node 15, Type 0, BuildingBlock: TATPOV_clean_sbu_0, # of connection points: 4
#     Node 16, Type 0, BuildingBlock: TATPOV_clean_sbu_0, # of connection points: 4
#     Node 17, Type 0, BuildingBlock: TATPOV_clean_sbu_0, # of connection points: 4
#     Node 18, Type 0, BuildingBlock: TATPOV_clean_sbu_0, # of connection points: 4
#     Node 19, Type 0, BuildingBlock: TATPOV_clean_sbu_0, # of connection points: 4
#     Node 20, Type 0, BuildingBlock: TATPOV_clean_sbu_0, # of connection points: 4
#     Node 21, Type 0, BuildingBlock: TATPOV_clean_sbu_0, # of connection points: 4
#     Node 22, Type 0, BuildingBlock: TATPOV_clean_sbu_0, # of connection points: 4
#     Node 23, Type 0, BuildingBlock: TATPOV_clean_sbu_0, # of connection points: 4
#     Node 24, Type 1, BuildingBlock: BETDAH_clean_sbu_0, # of connection points: 6
#     Node 25, Type 1, BuildingBlock: BETDAH_clean_sbu_0, # of connection points: 6
#     Node 26, Type 1, BuildingBlock: BETDAH_clean_sbu_0, # of connection points: 6
#     Node 27, Type 1, BuildingBlock: BETDAH_clean_sbu_0, # of connection points: 6
#     Node 28, Type 1, BuildingBlock: BETDAH_clean_sbu_0, # of connection points: 6
#     Node 29, Type 1, BuildingBlock: BETDAH_clean_sbu_0, # of connection points: 6
#     Node 30, Type 1, BuildingBlock: BETDAH_clean_sbu_0, # of connection points: 6
#     Node 31, Type 1, BuildingBlock: BETDAH_clean_sbu_0, # of connection points: 6
#     Node 32, Type 1, BuildingBlock: BETDAH_clean_sbu_0, # of connection points: 6
#     Node 33, Type 1, BuildingBlock: BETDAH_clean_sbu_0, # of connection points: 6
#     Node 34, Type 1, BuildingBlock: BETDAH_clean_sbu_0, # of connection points: 6
#     Node 35, Type 1, BuildingBlock: BETDAH_clean_sbu_0, # of connection points: 6
#     Node 36, Type 1, BuildingBlock: BETDAH_clean_sbu_0, # of connection points: 6
#     Node 37, Type 1, BuildingBlock: BETDAH_clean_sbu_0, # of connection points: 6
#     Node 38, Type 1, BuildingBlock: BETDAH_clean_sbu_0, # of connection points: 6
#     Node 39, Type 1, BuildingBlock: BETDAH_clean_sbu_0, # of connection points: 6
#     Edge 40, Type (0, 1), BuildingBlock: UVAHIK_clean_linker_0, # of connection points: 2
#     Edge 41, Type (0, 1), BuildingBlock: UVAHIK_clean_linker_0, # of connection points: 2
#     Edge 42, Type (0, 1), BuildingBlock: UVAHIK_clean_linker_0, # of connection points: 2
#     Edge 43, Type (0, 1), BuildingBlock: UVAHIK_clean_linker_0, # of connection points: 2
#     Edge 44, Type (0, 1), BuildingBlock: UVAHIK_clean_linker_0, # of connection points: 2
#     Edge 45, Type (0, 1), BuildingBlock: UVAHIK_clean_linker_0, # of connection points: 2
#     Edge 46, Type (0, 1), BuildingBlock: UVAHIK_clean_linker_0, # of connection points: 2
#     Edge 47, Type (0, 1), BuildingBlock: UVAHIK_clean_linker_0, # of connection points: 2
#     Edge 48, Type (0, 1), BuildingBlock: UVAHIK_clean_linker_0, # of connection points: 2
#     Edge 49, Type (0, 1), BuildingBlock: UVAHIK_clean_linker_0, # of connection points: 2
#     Edge 50, Type (0, 1), BuildingBlock: UVAHIK_clean_linker_0, # of connection points: 2
#     Edge 51, Type (0, 1), BuildingBlock: UVAHIK_clean_linker_0, # of connection points: 2
#     Edge 52, Type (0, 1), BuildingBlock: UVAHIK_clean_linker_0, # of connection points: 2
#     Edge 53, Type (0, 1), BuildingBlock: UVAHIK_clean_linker_0, # of connection points: 2
#     Edge 54, Type (0, 1), BuildingBlock: UVAHIK_clean_linker_0, # of connection points: 2
#     Edge 55, Type (0, 1), BuildingBlock: UVAHIK_clean_linker_0, # of connection points: 2
#     Edge 56, Type (0, 1), BuildingBlock: UVAHIK_clean_linker_0, # of connection points: 2
#     Edge 57, Type (0, 1), BuildingBlock: UVAHIK_clean_linker_0, # of connection points: 2
#     Edge 58, Type (0, 1), BuildingBlock: UVAHIK_clean_linker_0, # of connection points: 2
#     Edge 59, Type (0, 1), BuildingBlock: UVAHIK_clean_linker_0, # of connection points: 2
#     Edge 60, Type (0, 1), BuildingBlock: UVAHIK_clean_linker_0, # of connection points: 2
#     Edge 61, Type (0, 1), BuildingBlock: UVAHIK_clean_linker_0, # of connection points: 2
#     Edge 62, Type (0, 1), BuildingBlock: UVAHIK_clean_linker_0, # of connection points: 2
#     Edge 63, Type (0, 1), BuildingBlock: UVAHIK_clean_linker_0, # of connection points: 2
#     Edge 64, Type (0, 1), BuildingBlock: UVAHIK_clean_linker_0, # of connection points: 2
#     Edge 65, Type (0, 1), BuildingBlock: UVAHIK_clean_linker_0, # of connection points: 2
#     Edge 66, Type (0, 1), BuildingBlock: UVAHIK_clean_linker_0, # of connection points: 2
#     Edge 67, Type (0, 1), BuildingBlock: UVAHIK_clean_linker_0, # of connection points: 2
#     Edge 68, Type (0, 1), BuildingBlock: UVAHIK_clean_linker_0, # of connection points: 2
#     Edge 69, Type (0, 1), BuildingBlock: UVAHIK_clean_linker_0, # of connection points: 2
#     Edge 70, Type (0, 1), BuildingBlock: UVAHIK_clean_linker_0, # of connection points: 2
#     Edge 71, Type (0, 1), BuildingBlock: UVAHIK_clean_linker_0, # of connection points: 2
#     Edge 72, Type (0, 1), BuildingBlock: UVAHIK_clean_linker_0, # of connection points: 2
#     Edge 73, Type (0, 1), BuildingBlock: UVAHIK_clean_linker_0, # of connection points: 2
#     Edge 74, Type (0, 1), BuildingBlock: UVAHIK_clean_linker_0, # of connection points: 2
#     Edge 75, Type (0, 1), BuildingBlock: UVAHIK_clean_linker_0, # of connection points: 2
#     Edge 76, Type (0, 1), BuildingBlock: UVAHIK_clean_linker_0, # of connection points: 2
#     Edge 77, Type (0, 1), BuildingBlock: UVAHIK_clean_linker_0, # of connection points: 2
#     Edge 78, Type (0, 1), BuildingBlock: UVAHIK_clean_linker_0, # of connection points: 2
#     Edge 79, Type (0, 1), BuildingBlock: UVAHIK_clean_linker_0, # of connection points: 2
#     Edge 80, Type (0, 1), BuildingBlock: UVAHIK_clean_linker_0, # of connection points: 2
#     Edge 81, Type (0, 1), BuildingBlock: UVAHIK_clean_linker_0, # of connection points: 2
#     Edge 82, Type (0, 1), BuildingBlock: UVAHIK_clean_linker_0, # of connection points: 2
#     Edge 83, Type (0, 1), BuildingBlock: UVAHIK_clean_linker_0, # of connection points: 2
#     Edge 84, Type (0, 1), BuildingBlock: UVAHIK_clean_linker_0, # of connection points: 2
#     Edge 85, Type (0, 1), BuildingBlock: UVAHIK_clean_linker_0, # of connection points: 2
#     Edge 86, Type (0, 1), BuildingBlock: UVAHIK_clean_linker_0, # of connection points: 2
#     Edge 87, Type (0, 1), BuildingBlock: UVAHIK_clean_linker_0, # of connection points: 2
#     Edge 88, Type (0, 1), BuildingBlock: UVAHIK_clean_linker_0, # of connection points: 2
#     Edge 89, Type (0, 1), BuildingBlock: UVAHIK_clean_linker_0, # of connection points: 2
#     Edge 90, Type (0, 1), BuildingBlock: UVAHIK_clean_linker_0, # of connection points: 2
#     Edge 91, Type (0, 1), BuildingBlock: UVAHIK_clean_linker_0, # of connection points: 2
#     Edge 92, Type (0, 1), BuildingBlock: UVAHIK_clean_linker_0, # of connection points: 2
#     Edge 93, Type (0, 1), BuildingBlock: UVAHIK_clean_linker_0, # of connection points: 2
#     Edge 94, Type (0, 1), BuildingBlock: UVAHIK_clean_linker_0, # of connection points: 2
#     Edge 95, Type (0, 1), BuildingBlock: UVAHIK_clean_linker_0, # of connection points: 2
#     Edge 96, Type (0, 1), BuildingBlock: UVAHIK_clean_linker_0, # of connection points: 2
#     Edge 97, Type (0, 1), BuildingBlock: UVAHIK_clean_linker_0, # of connection points: 2
#     Edge 98, Type (0, 1), BuildingBlock: UVAHIK_clean_linker_0, # of connection points: 2
#     Edge 99, Type (0, 1), BuildingBlock: UVAHIK_clean_linker_0, # of connection points: 2
#     Edge 100, Type (0, 1), BuildingBlock: UVAHIK_clean_linker_0, # of connection points: 2
#     Edge 101, Type (0, 1), BuildingBlock: UVAHIK_clean_linker_0, # of connection points: 2
#     Edge 102, Type (0, 1), BuildingBlock: UVAHIK_clean_linker_0, # of connection points: 2
#     Edge 103, Type (0, 1), BuildingBlock: UVAHIK_clean_linker_0, # of connection points: 2
#     Edge 104, Type (0, 1), BuildingBlock: UVAHIK_clean_linker_0, # of connection points: 2
#     Edge 105, Type (0, 1), BuildingBlock: UVAHIK_clean_linker_0, # of connection points: 2
#     Edge 106, Type (0, 1), BuildingBlock: UVAHIK_clean_linker_0, # of connection points: 2
#     Edge 107, Type (0, 1), BuildingBlock: UVAHIK_clean_linker_0, # of connection points: 2
#     Edge 108, Type (0, 1), BuildingBlock: UVAHIK_clean_linker_0, # of connection points: 2
#     Edge 109, Type (0, 1), BuildingBlock: UVAHIK_clean_linker_0, # of connection points: 2
#     Edge 110, Type (0, 1), BuildingBlock: UVAHIK_clean_linker_0, # of connection points: 2
#     Edge 111, Type (0, 1), BuildingBlock: UVAHIK_clean_linker_0, # of connection points: 2
#     Edge 112, Type (0, 1), BuildingBlock: UVAHIK_clean_linker_0, # of connection points: 2
#     Edge 113, Type (0, 1), BuildingBlock: UVAHIK_clean_linker_0, # of connection points: 2
#     Edge 114, Type (0, 1), BuildingBlock: UVAHIK_clean_linker_0, # of connection points: 2
#     Edge 115, Type (0, 1), BuildingBlock: UVAHIK_clean_linker_0, # of connection points: 2
#     Edge 116, Type (0, 1), BuildingBlock: UVAHIK_clean_linker_0, # of connection points: 2
#     Edge 117, Type (0, 1), BuildingBlock: UVAHIK_clean_linker_0, # of connection points: 2
#     Edge 118, Type (0, 1), BuildingBlock: UVAHIK_clean_linker_0, # of connection points: 2
#     Edge 119, Type (0, 1), BuildingBlock: UVAHIK_clean_linker_0, # of connection points: 2
#     Edge 120, Type (0, 1), BuildingBlock: UVAHIK_clean_linker_0, # of connection points: 2
#     Edge 121, Type (0, 1), BuildingBlock: UVAHIK_clean_linker_0, # of connection points: 2
#     Edge 122, Type (0, 1), BuildingBlock: UVAHIK_clean_linker_0, # of connection points: 2
#     Edge 123, Type (0, 1), BuildingBlock: UVAHIK_clean_linker_0, # of connection points: 2
#     Edge 124, Type (0, 1), BuildingBlock: UVAHIK_clean_linker_0, # of connection points: 2
#     Edge 125, Type (0, 1), BuildingBlock: UVAHIK_clean_linker_0, # of connection points: 2
#     Edge 126, Type (0, 1), BuildingBlock: UVAHIK_clean_linker_0, # of connection points: 2
#     Edge 127, Type (0, 1), BuildingBlock: UVAHIK_clean_linker_0, # of connection points: 2
#     Edge 128, Type (0, 1), BuildingBlock: UVAHIK_clean_linker_0, # of connection points: 2
#     Edge 129, Type (0, 1), BuildingBlock: UVAHIK_clean_linker_0, # of connection points: 2
#     Edge 130, Type (0, 1), BuildingBlock: UVAHIK_clean_linker_0, # of connection points: 2
#     Edge 131, Type (0, 1), BuildingBlock: UVAHIK_clean_linker_0, # of connection points: 2
#     Edge 132, Type (0, 1), BuildingBlock: UVAHIK_clean_linker_0, # of connection points: 2
#     Edge 133, Type (0, 1), BuildingBlock: UVAHIK_clean_linker_0, # of connection points: 2
#     Edge 134, Type (0, 1), BuildingBlock: UVAHIK_clean_linker_0, # of connection points: 2
#     Edge 135, Type (0, 1), BuildingBlock: UVAHIK_clean_linker_0, # of connection points: 2
# Relax obj value: 0.178
# Max RMSD: 0.292
# Mean RMSD: 0.171
data_MOF--net-gar--node1-TATPOV_clean_sbu_0--node2-BETDAH_clean_sbu_0--edge1-UVAHIK_clean_linker_0
_symmetry_space_group_name_H-M    P1
_symmetry_Int_Tables_number       1
_symmetry_cell_setting            triclinic
loop_
_symmetry_equiv_pos_as_xyz
'x, y, z'
_cell_length_a     77.80825
_cell_length_b     72.65235
_cell_length_c     73.053445
_cell_angle_alpha  98.840511
_cell_angle_beta   95.570019
_cell_angle_gamma 104.79703
loop_
_atom_site_label
_atom_site_type_symbol
_atom_site_fract_x
_atom_site_fract_y
_atom_site_fract_z
_atom_type_partial_charge
Zn0 Zn 0.06889 0.31877 0.40579 0.0
Zn1 Zn 0.09357 0.32045 0.38939 0.0
O2 O 0.10154 0.34782 0.40518 0.0
O3 O 0.07444 0.34706 0.41189 0.0
O4 O 0.11252 0.31894 0.37413 0.0
O5 O 0.07592 0.30476 0.42487 0.0
O6 O 0.0909 0.29678 0.4025 0.0
C7 C 0.09049 0.35634 0.41174 0.0
C8 C 0.05661 0.30963 0.36858 0.0
O9 O 0.07307 0.31801 0.36883 0.0
O10 O 0.05108 0.30486 0.38333 0.0
C11 C 0.11809 0.33213 0.36489 0.0
O12 O 0.11271 0.34795 0.36714 0.0
C13 C 0.08439 0.29365 0.41744 0.0
Zn14 Zn 0.98631 0.72173 0.65975 0.0
Zn15 Zn 0.99103 0.75451 0.64779 0.0
O16 O 0.96745 0.75131 0.65788 0.0
O17 O 0.96805 0.72846 0.67439 0.0
O18 O 0.99572 0.77888 0.63752 0.0
O19 O 0.01284 0.73065 0.66967 0.0
O20 O 0.01263 0.76046 0.66735 0.0
C21 C 0.96078 0.74088 0.6693 0.0
C22 C 0.98411 0.71624 0.6215 0.0
O23 O 0.99155 0.73433 0.62563 0.0
O24 O 0.97776 0.7071 0.63378 0.0
C25 C 0.99097 0.77866 0.62036 0.0
O26 O 0.98113 0.76245 0.60965 0.0
C27 C 0.02045 0.74866 0.67303 0.0
Zn28 Zn 0.56534 0.82529 0.90763 0.0
Zn29 Zn 0.59493 0.82564 0.89285 0.0
O30 O 0.5999 0.85336 0.90611 0.0
O31 O 0.57167 0.8501 0.89664 0.0
O32 O 0.61613 0.82469 0.88024 0.0
O33 O 0.56391 0.79619 0.90228 0.0
O34 O 0.59325 0.80479 0.9089 0.0
C35 C 0.5875 0.86092 0.9016 0.0
C36 C 0.55861 0.80773 0.87005 0.0
O37 O 0.57435 0.81877 0.87074 0.0
O38 O 0.5531 0.80344 0.88512 0.0
C39 C 0.61865 0.83262 0.86606 0.0
O40 O 0.60777 0.84254 0.86066 0.0
C41 C 0.57829 0.79218 0.9075 0.0
Zn42 Zn 0.49053 0.22302 0.16979 0.0
Zn43 Zn 0.49227 0.25315 0.15027 0.0
O44 O 0.46955 0.25093 0.16145 0.0
O45 O 0.46988 0.22967 0.17998 0.0
O46 O 0.49531 0.27585 0.13734 0.0
O47 O 0.5162 0.23647 0.18042 0.0
O48 O 0.51538 0.26191 0.16774 0.0
C49 C 0.46249 0.24119 0.17315 0.0
C50 C 0.48765 0.21187 0.13044 0.0
O51 O 0.49121 0.22997 0.13065 0.0
O52 O 0.48549 0.20511 0.14527 0.0
C53 C 0.49559 0.27453 0.11986 0.0
O54 O 0.49183 0.25735 0.10915 0.0
C55 C 0.52362 0.25335 0.17787 0.0
Zn56 Zn 0.0949 0.8087 0.09541 0.0
Zn57 Zn 0.06897 0.80351 0.11756 0.0
O58 O 0.06747 0.82758 0.10563 0.0
O59 O 0.0897 0.83246 0.08882 0.0
O60 O 0.04827 0.79931 0.13314 0.0
O61 O 0.08206 0.78278 0.07926 0.0
O62 O 0.06187 0.77833 0.09848 0.0
C63 C 0.07642 0.83719 0.09476 0.0
C64 C 0.10862 0.8079 0.13318 0.0
O65 O 0.09216 0.80514 0.13565 0.0
O66 O 0.11323 0.81042 0.11741 0.0
C67 C 0.03387 0.80355 0.12794 0.0
O68 O 0.03293 0.81148 0.11301 0.0
C69 C 0.06815 0.7723 0.08399 0.0
Zn70 Zn 0.48359 0.76029 0.43134 0.0
Zn71 Zn 0.5086 0.76203 0.40716 0.0
O72 O 0.51629 0.7877 0.4255 0.0
O73 O 0.49808 0.78594 0.4468 0.0
O74 O 0.52966 0.76428 0.39182 0.0
O75 O 0.48807 0.73618 0.43817 0.0
O76 O 0.50912 0.73839 0.41987 0.0
C77 C 0.51155 0.79516 0.4404 0.0
C78 C 0.46957 0.76054 0.39289 0.0
O79 O 0.48543 0.76081 0.38942 0.0
O80 O 0.46563 0.76012 0.40926 0.0
C81 C 0.54051 0.78067 0.39143 0.0
O82 O 0.53719 0.79653 0.3996 0.0
C83 C 0.50049 0.73005 0.43171 0.0
Zn84 Zn 0.59184 0.30503 0.59349 0.0
Zn85 Zn 0.56967 0.30491 0.61958 0.0
O86 O 0.56786 0.32791 0.60615 0.0
O87 O 0.5872 0.32885 0.58598 0.0
O88 O 0.54978 0.3025 0.63618 0.0
O89 O 0.57668 0.2793 0.57918 0.0
O90 O 0.56145 0.27792 0.60306 0.0
C91 C 0.57542 0.33548 0.59328 0.0
C92 C 0.60885 0.30651 0.63155 0.0
O93 O 0.59377 0.30779 0.6364 0.0
O94 O 0.61111 0.30526 0.61449 0.0
C95 C 0.53451 0.30352 0.62904 0.0
O96 O 0.53273 0.30737 0.61208 0.0
C97 C 0.56473 0.27007 0.58747 0.0
Zn98 Zn 0.9828 0.25837 0.92945 0.0
Zn99 Zn 0.00816 0.26099 0.90571 0.0
O100 O 0.01502 0.28678 0.9235 0.0
O101 O 0.99623 0.28486 0.94426 0.0
O102 O 0.02949 0.26366 0.89062 0.0
O103 O 0.98821 0.23521 0.93732 0.0
O104 O 0.00918 0.23759 0.91892 0.0
C105 C 0.00969 0.29426 0.93798 0.0
C106 C 0.96867 0.25765 0.89089 0.0
O107 O 0.9849 0.25948 0.88785 0.0
O108 O 0.96444 0.25609 0.90701 0.0
C109 C 0.0404 0.28009 0.89047 0.0
O110 O 0.03705 0.2959 0.89876 0.0
C111 C 0.00079 0.22931 0.93096 0.0
Zn112 Zn 0.46054 0.00924 0.27336 0.0
Zn113 Zn 0.43655 0.03784 0.27291 0.0
O114 O 0.43618 0.03745 0.29986 0.0
O115 O 0.4532 0.01699 0.29869 0.0
O116 O 0.42303 0.05614 0.26561 0.0
O117 O 0.47971 0.02789 0.26194 0.0
O118 O 0.46222 0.04514 0.2697 0.0
C119 C 0.44391 0.02651 0.30743 0.0
C120 C 0.42308 0.99353 0.25695 0.0
O121 O 0.42241 0.01085 0.26173 0.0
O122 O 0.43787 0.9891 0.25859 0.0
C123 C 0.40598 0.05014 0.26261 0.0
O124 O 0.39798 0.03224 0.26392 0.0
C125 C 0.46853 0.03657 0.25669 0.0
Zn126 Zn 0.26284 0.20972 0.49663 0.0
Zn127 Zn 0.28336 0.18565 0.4977 0.0
O128 O 0.28784 0.19658 0.47334 0.0
O129 O 0.2687 0.21424 0.47139 0.0
O130 O 0.30079 0.16925 0.50049 0.0
O131 O 0.277 0.22764 0.51975 0.0
O132 O 0.29099 0.20529 0.52265 0.0
C133 C 0.28061 0.20733 0.46475 0.0
C134 C 0.24303 0.1707 0.49836 0.0
O135 O 0.25798 0.16688 0.49649 0.0
O136 O 0.24189 0.18789 0.49949 0.0
C137 C 0.31636 0.17423 0.49566 0.0
O138 O 0.3207 0.18956 0.48781 0.0
C139 C 0.28789 0.22125 0.52921 0.0
Zn140 Zn 0.13666 0.02755 0.76881 0.0
Zn141 Zn 0.15685 0.00447 0.76881 0.0
O142 O 0.1423 0.00335 0.7949 0.0
O143 O 0.12629 0.02399 0.79243 0.0
O144 O 0.17223 0.9815 0.76639 0.0
O145 O 0.12104 0.0169 0.74406 0.0
O146 O 0.14083 1.00023 0.74026 0.0
C147 C 0.13109 0.01232 0.80164 0.0
C148 C 0.17341 0.04977 0.77032 0.0
O149 O 0.17633 0.03314 0.77126 0.0
O150 O 0.15743 0.05102 0.76901 0.0
C151 C 0.17178 0.9673 0.77539 0.0
O152 O 0.16103 0.96559 0.78821 0.0
C153 C 0.12751 0.00594 0.7333 0.0
Zn154 Zn 0.31886 0.90062 0.01582 0.0
Zn155 Zn 0.29462 0.9144 0.01068 0.0
O156 O 0.29679 0.90285 0.98403 0.0
O157 O 0.32438 0.90077 0.98974 0.0
O158 O 0.27392 0.9249 0.00972 0.0
O159 O 0.30455 0.87626 0.02255 0.0
O160 O 0.28932 0.897 0.02996 0.0
C161 C 0.31097 0.90004 0.97814 0.0
C162 C 0.32771 0.93917 0.03349 0.0
O163 O 0.31473 0.9384 0.02121 0.0
O164 O 0.33074 0.92353 0.03649 0.0
C165 C 0.27429 0.94056 0.00399 0.0
O166 O 0.28767 0.94873 0.99566 0.0
C167 C 0.29347 0.88159 0.03219 0.0
Zn168 Zn 0.31608 0.3635 0.02938 0.0
Zn169 Zn 0.292 0.38307 0.02816 0.0
O170 O 0.28553 0.36343 0.00313 0.0
O171 O 0.30589 0.34732 0.00434 0.0
O172 O 0.27185 0.39682 0.0269 0.0
O173 O 0.30848 0.35289 0.05136 0.0
O174 O 0.28881 0.36999 0.05203 0.0
C175 C 0.29224 0.35029 0.99576 0.0
C176 C 0.3327 0.40345 0.03068 0.0
O177 O 0.31642 0.40438 0.02878 0.0
O178 O 0.33615 0.3876 0.0321 0.0
C179 C 0.26346 0.39773 0.0113 0.0
O180 O 0.26846 0.39062 0.9957 0.0
C181 C 0.29607 0.35807 0.05879 0.0
Zn182 Zn 0.76163 0.16265 0.01363 0.0
Zn183 Zn 0.78295 0.14646 0.01933 0.0
O184 O 0.7864 0.15781 0.9954 0.0
O185 O 0.77898 0.18415 0.00524 0.0
O186 O 0.80151 0.13283 0.02108 0.0
O187 O 0.75787 0.16534 0.04032 0.0
O188 O 0.78611 0.16511 0.04404 0.0
C189 C 0.78562 0.17461 0.99331 0.0
C190 C 0.74828 0.12349 0.00192 0.0
O191 O 0.76009 0.12476 0.01563 0.0
O192 O 0.74827 0.13842 0.99504 0.0
C193 C 0.8004 0.12062 0.00632 0.0
O194 O 0.7875 0.11822 0.99243 0.0
C195 C 0.77265 0.16882 0.05082 0.0
Zn196 Zn 0.12859 0.54979 0.25388 0.0
Zn197 Zn 0.14587 0.52547 0.24644 0.0
O198 O 0.13733 0.52344 0.27128 0.0
O199 O 0.11157 0.52796 0.26276 0.0
O200 O 0.15823 0.50544 0.24238 0.0
O201 O 0.12738 0.55105 0.22663 0.0
O202 O 0.12865 0.52094 0.2233 0.0
C203 C 0.122 0.52425 0.27514 0.0
C204 C 0.16589 0.56419 0.26233 0.0
O205 O 0.16491 0.55031 0.24911 0.0
O206 O 0.15217 0.56507 0.27008 0.0
C207 C 0.17294 0.50747 0.2358 0.0
O208 O 0.18017 0.52347 0.22985 0.0
C209 C 0.1262 0.53508 0.2162 0.0
Zn210 Zn 0.81368 0.8602 0.52736 0.0
Zn211 Zn 0.79194 0.8839 0.52934 0.0
O212 O 0.78526 0.86636 0.50342 0.0
O213 O 0.80163 0.8457 0.50195 0.0
O214 O 0.77241 0.89845 0.52879 0.0
O215 O 0.80549 0.84982 0.54943 0.0
O216 O 0.78848 0.86986 0.55246 0.0
C217 C 0.78959 0.85215 0.49453 0.0
C218 C 0.83251 0.90109 0.5308 0.0
O219 O 0.8169 0.90387 0.53058 0.0
O220 O 0.83445 0.88423 0.53019 0.0
C221 C 0.76497 0.90072 0.51323 0.0
O222 O 0.77104 0.89514 0.49777 0.0
C223 C 0.79447 0.85653 0.55808 0.0
Zn224 Zn 0.94133 0.03925 0.24953 0.0
Zn225 Zn 0.9209 0.06202 0.25318 0.0
O226 O 0.93803 0.06706 0.28092 0.0
O227 O 0.95607 0.04869 0.2749 0.0
O228 O 0.90541 0.08482 0.25417 0.0
O229 O 0.95243 0.04446 0.22658 0.0
O230 O 0.93447 0.0635 0.22659 0.0
C231 C 0.951 0.06019 0.28662 0.0
C232 C 0.90511 0.01604 0.24956 0.0
O233 O 0.90199 0.03289 0.25196 0.0
O234 O 0.92082 0.01515 0.24729 0.0
C235 C 0.90851 0.10137 0.26548 0.0
O236 O 0.92237 0.1059 0.27873 0.0
C237 C 0.94606 0.05601 0.21864 0.0
Zn238 Zn 0.26085 0.66392 0.51315 0.0
Zn239 Zn 0.28229 0.64781 0.52047 0.0
O240 O 0.28576 0.65783 0.49573 0.0
O241 O 0.27802 0.6844 0.5036 0.0
O242 O 0.30287 0.637 0.52408 0.0
O243 O 0.25602 0.67042 0.53892 0.0
O244 O 0.28305 0.66656 0.54471 0.0
C245 C 0.28504 0.67435 0.49258 0.0
C246 C 0.24858 0.62341 0.50281 0.0
O247 O 0.26044 0.62494 0.51654 0.0
O248 O 0.24774 0.63837 0.49628 0.0
C249 C 0.30149 0.62125 0.51305 0.0
O250 O 0.28664 0.61302 0.50131 0.0
C251 C 0.27009 0.67265 0.55016 0.0
Zn252 Zn 0.44275 0.53938 0.74993 0.0
Zn253 Zn 0.42197 0.56194 0.75298 0.0
O254 O 0.43874 0.56711 0.78082 0.0
O255 O 0.45738 0.54933 0.77536 0.0
O256 O 0.40675 0.58483 0.75377 0.0
O257 O 0.45385 0.54445 0.72692 0.0
O258 O 0.43572 0.56329 0.72654 0.0
C259 C 0.45188 0.56066 0.78682 0.0
C260 C 0.4063 0.51613 0.74962 0.0
O261 O 0.40305 0.5329 0.75165 0.0
O262 O 0.42213 0.51531 0.74781 0.0
C263 C 0.4085 0.60016 0.7664 0.0
O264 O 0.42049 0.60304 0.78126 0.0
C265 C 0.44742 0.55584 0.71877 0.0
Zn266 Zn 0.62274 0.06015 0.74613 0.0
Zn267 Zn 0.64532 0.02655 0.7462 0.0
O268 O 0.63259 0.01742 0.76784 0.0
O269 O 0.62346 0.04153 0.76203 0.0
O270 O 0.6625 0.01067 0.74222 0.0
O271 O 0.61935 0.0487 0.71955 0.0
O272 O 0.6316 0.02408 0.72043 0.0
C273 C 0.62391 0.02946 0.77238 0.0
C274 C 0.6614 0.07174 0.75585 0.0
O275 O 0.66108 0.05398 0.75396 0.0
O276 O 0.64747 0.07751 0.75284 0.0
C277 C 0.67875 0.01709 0.74991 0.0
O278 O 0.68426 0.03438 0.76051 0.0
C279 C 0.62362 0.03408 0.71156 0.0
Zn280 Zn 0.76352 0.70958 0.99776 0.0
Zn281 Zn 0.78384 0.68594 0.99829 0.0
O282 O 0.78816 0.69717 0.9739 0.0
O283 O 0.76797 0.71355 0.97207 0.0
O284 O 0.80135 0.66952 0.00089 0.0
O285 O 0.778 0.72815 0.02036 0.0
O286 O 0.79143 0.7054 0.02343 0.0
C287 C 0.78013 0.70725 0.96522 0.0
C288 C 0.74361 0.67093 0.99971 0.0
O289 O 0.75838 0.66702 0.99707 0.0
O290 O 0.74266 0.68824 0.00143 0.0
C291 C 0.81674 0.67408 0.99558 0.0
O292 O 0.82098 0.68907 0.98724 0.0
C293 C 0.78861 0.72153 0.02994 0.0
Zn294 Zn 0.96166 0.51415 0.77142 0.0
Zn295 Zn 0.93556 0.53698 0.77121 0.0
O296 O 0.93932 0.5352 0.79825 0.0
O297 O 0.96417 0.52539 0.7989 0.0
O298 O 0.92114 0.55547 0.76889 0.0
O299 O 0.9745 0.52825 0.75215 0.0
O300 O 0.95917 0.54685 0.76309 0.0
C301 C 0.95231 0.53114 0.80713 0.0
C302 C 0.92282 0.49445 0.75702 0.0
O303 O 0.92048 0.51115 0.7574 0.0
O304 O 0.93809 0.49244 0.76273 0.0
C305 C 0.90419 0.5495 0.76789 0.0
O306 O 0.89658 0.53132 0.76857 0.0
C307 C 0.96426 0.53869 0.74887 0.0
Zn308 Zn 0.82088 0.40759 0.51144 0.0
Zn309 Zn 0.79363 0.41549 0.50855 0.0
O310 O 0.79439 0.40168 0.48265 0.0
O311 O 0.82375 0.4096 0.48466 0.0
O312 O 0.77055 0.42149 0.50846 0.0
O313 O 0.81111 0.38189 0.51867 0.0
O314 O 0.79367 0.39928 0.52888 0.0
C315 C 0.80845 0.40303 0.47488 0.0
C316 C 0.82464 0.445 0.52877 0.0
O317 O 0.81146 0.44212 0.51604 0.0
O318 O 0.82959 0.43056 0.53248 0.0
C319 C 0.76836 0.43616 0.50217 0.0
O320 O 0.78044 0.44534 0.49291 0.0
C321 C 0.80044 0.38521 0.52992 0.0
Zn322 Zn 0.6345 0.52588 0.26834 0.0
Zn323 Zn 0.65599 0.505 0.26929 0.0
O324 O 0.64139 0.50383 0.29543 0.0
O325 O 0.62427 0.5232 0.29207 0.0
O326 O 0.67171 0.48243 0.26701 0.0
O327 O 0.61868 0.51459 0.24384 0.0
O328 O 0.6404 0.50055 0.24052 0.0
C329 C 0.6297 0.51231 0.30181 0.0
C330 C 0.67096 0.5498 0.2696 0.0
O331 O 0.67495 0.53393 0.27163 0.0
O332 O 0.65459 0.54972 0.26776 0.0
C333 C 0.67075 0.46776 0.27544 0.0
O334 O 0.65927 0.46536 0.28751 0.0
C335 C 0.62641 0.50494 0.23325 0.0
Ho336 Ho 0.02224 0.02422 0.00151 0.0
Ho337 Ho 0.0606 0.04468 0.02341 0.0
C338 C 0.03894 0.07054 0.00546 0.0
C339 C 0.98805 0.01288 0.9917 0.0
C340 C 0.97464 0.02362 0.99329 0.0
C341 C 0.97775 0.04 0.00744 0.0
C342 C 0.96614 0.05173 0.00751 0.0
C343 C 0.95141 0.04732 0.99333 0.0
C344 C 0.94845 0.03103 0.97908 0.0
C345 C 0.96002 0.01924 0.97908 0.0
C346 C 0.04703 0.02269 0.97664 0.0
C347 C 0.0438 0.99819 0.0198 0.0
C348 C 0.09484 0.05595 0.03343 0.0
C349 C 0.10791 0.04475 0.03371 0.0
C350 C 0.10383 0.02641 0.02227 0.0
C351 C 0.11547 0.01487 0.02367 0.0
C352 C 0.13136 0.02154 0.03648 0.0
C353 C 0.1352 0.03969 0.04828 0.0
C354 C 0.12348 0.05125 0.0469 0.0
C355 C 0.03597 0.04716 0.0482 0.0
O356 O 0.02426 0.05595 0.00346 0.0
O357 O 0.05507 0.06915 0.0112 0.0
O358 O 0.99938 0.01873 0.98037 0.0
O359 O 0.99584 0.0101 0.00737 0.0
O360 O 0.02982 0.01558 0.97274 0.0
O361 O 0.05003 0.02994 0.99414 0.0
O362 O 0.05826 0.01317 0.02309 0.0
O363 O 0.02789 0.99917 0.01268 0.0
O364 O 0.08333 0.05207 0.04508 0.0
O365 O 0.08724 0.05682 0.0169 0.0
O366 O 0.05312 0.0549 0.05164 0.0
O367 O 0.03269 0.03924 0.03084 0.0
H368 H 0.98934 0.04393 0.0182 0.0
H369 H 0.96875 0.06434 0.01852 0.0
H370 H 0.93706 0.02729 0.9681 0.0
H371 H 0.95776 0.00692 0.96782 0.0
H372 H 0.09161 0.02096 0.01234 0.0
H373 H 0.11216 1.0008 0.01458 0.0
H374 H 0.14746 0.04516 0.05816 0.0
H375 H 0.12651 0.06519 0.05613 0.0
Ho376 Ho 0.29305 0.7869 0.25094 0.0
Ho377 Ho 0.28396 0.79533 0.28794 0.0
C378 C 0.29905 0.83101 0.27157 0.0
C379 C 0.30127 0.78738 0.21771 0.0
C380 C 0.31165 0.80348 0.20985 0.0
C381 C 0.30473 0.81906 0.20716 0.0
C382 C 0.3149 0.83458 0.20041 0.0
C383 C 0.33223 0.8349 0.19623 0.0
C384 C 0.33937 0.8196 0.19945 0.0
C385 C 0.32913 0.80398 0.20616 0.0
C386 C 0.31819 0.78483 0.27823 0.0
C387 C 0.27407 0.75142 0.26631 0.0
C388 C 0.27712 0.79504 0.32167 0.0
C389 C 0.26477 0.78067 0.32982 0.0
C390 C 0.26614 0.76163 0.32842 0.0
C391 C 0.25478 0.74846 0.33689 0.0
C392 C 0.24175 0.75403 0.34684 0.0
C393 C 0.2396 0.77267 0.3471 0.0
C394 C 0.25107 0.78591 0.33871 0.0
C395 C 0.25792 0.79602 0.26068 0.0
O396 O 0.29496 0.81864 0.25558 0.0
O397 O 0.29981 0.82504 0.28758 0.0
O398 O 0.31044 0.78173 0.23056 0.0
O399 O 0.28561 0.78849 0.22206 0.0
O400 O 0.31208 0.77211 0.26304 0.0
O401 O 0.31048 0.79826 0.27868 0.0
O402 O 0.27942 0.7631 0.28261 0.0
O403 O 0.27495 0.75796 0.25057 0.0
O404 O 0.2694 0.80346 0.31011 0.0
O405 O 0.29101 0.79029 0.31573 0.0
O406 O 0.26288 0.80814 0.27635 0.0
O407 O 0.26659 0.78352 0.26021 0.0
H408 H 0.29137 0.81923 0.21003 0.0
H409 H 0.30877 0.84586 0.1976 0.0
H410 H 0.35266 0.81946 0.19628 0.0
H411 H 0.33485 0.79224 0.20837 0.0
H412 H 0.27634 0.75703 0.3213 0.0
H413 H 0.25705 0.73433 0.33667 0.0
H414 H 0.22961 0.77731 0.35456 0.0
H415 H 0.24954 0.80042 0.33957 0.0
Ho416 Ho 0.55411 0.03256 0.51134 0.0
Ho417 Ho 0.51349 0.03009 0.51096 0.0
C418 C 0.52393 0.99099 0.50573 0.0
C419 C 0.58616 0.02823 0.51632 0.0
C420 C 0.59585 0.01344 0.51102 0.0
C421 C 0.59754 0.99999 0.52256 0.0
C422 C 0.60867 0.98784 0.51891 0.0
C423 C 0.6185 0.98907 0.5038 0.0
C424 C 0.61633 1.00192 0.49183 0.0
C425 C 0.60505 0.01391 0.49534 0.0
C426 C 0.53552 0.03114 0.47824 0.0
C427 C 0.54356 0.07179 0.51661 0.0
C428 C 0.48127 0.03393 0.50681 0.0
C429 C 0.47202 0.04902 0.51233 0.0
C430 C 0.4686 0.06082 0.49971 0.0
C431 C 0.45866 0.07399 0.5041 0.0
C432 C 0.45178 0.0757 0.52122 0.0
C433 C 0.45548 0.06416 0.53405 0.0
C434 C 0.46548 0.05095 0.52965 0.0
C435 C 0.53259 0.03194 0.54412 0.0
O436 O 0.54057 1.00135 0.51259 0.0
O437 O 0.51132 0.99904 0.50038 0.0
O438 O 0.5805 0.03629 0.50298 0.0
O439 O 0.57473 0.02489 0.52827 0.0
O440 O 0.5521 0.04116 0.48306 0.0
O441 O 0.53003 0.02166 0.4904 0.0
O442 O 0.52684 0.06144 0.50988 0.0
O443 O 0.55623 0.06365 0.52162 0.0
O444 O 0.48744 0.02622 0.52017 0.0
O445 O 0.4922 0.03694 0.49432 0.0
O446 O 0.51618 0.02135 0.53922 0.0
O447 O 0.53755 0.04114 0.53164 0.0
H448 H 0.59082 0.99934 0.53485 0.0
H449 H 0.61034 0.97819 0.52846 0.0
H450 H 0.62385 0.00313 0.48013 0.0
H451 H 0.60414 0.02413 0.48618 0.0
H452 H 0.47321 0.05955 0.48617 0.0
H453 H 0.45578 0.08232 0.49368 0.0
H454 H 0.45049 0.06519 0.5474 0.0
H455 H 0.46776 0.04199 0.53969 0.0
Ho456 Ho 0.2714 0.2863 0.76135 0.0
Ho457 Ho 0.30874 0.27867 0.7661 0.0
C458 C 0.29512 0.29586 0.8024 0.0
C459 C 0.23756 0.2805 0.76413 0.0
C460 C 0.2262 0.28495 0.77858 0.0
C461 C 0.22199 0.27276 0.79169 0.0
C462 C 0.20951 0.2752 0.80372 0.0
C463 C 0.20077 0.28983 0.80297 0.0
C464 C 0.20566 0.30274 0.79063 0.0
C465 C 0.21817 0.30026 0.77848 0.0
C466 C 0.29701 0.32099 0.76291 0.0
C467 C 0.28677 0.27367 0.72433 0.0
C468 C 0.34093 0.27566 0.76316 0.0
C469 C 0.35281 0.27371 0.74868 0.0
C470 C 0.35863 0.28838 0.73836 0.0
C471 C 0.37108 0.28687 0.72597 0.0
C472 C 0.37802 0.27067 0.72357 0.0
C473 C 0.37172 0.25575 0.7335 0.0
C474 C 0.35932 0.25729 0.74592 0.0
C475 C 0.28078 0.24893 0.77091 0.0
O476 O 0.27915 0.29163 0.79232 0.0
O477 O 0.30959 0.29377 0.79527 0.0
O478 O 0.24658 0.29468 0.75677 0.0
O479 O 0.24675 0.26825 0.76723 0.0
O480 O 0.27978 0.3186 0.76113 0.0
O481 O 0.29959 0.30451 0.76388 0.0
O482 O 0.30182 0.27457 0.73497 0.0
O483 O 0.27249 0.27702 0.73106 0.0
O484 O 0.32708 0.26086 0.76259 0.0
O485 O 0.3372 0.29226 0.76741 0.0
O486 O 0.29638 0.25485 0.78126 0.0
O487 O 0.28078 0.2595 0.7585 0.0
H488 H 0.22786 0.26082 0.79227 0.0
H489 H 0.20629 0.2652 0.81326 0.0
H490 H 0.19914 0.31413 0.78967 0.0
H491 H 0.22106 0.30988 0.76855 0.0
H492 H 0.35391 0.30125 0.74015 0.0
H493 H 0.37575 0.29878 0.71879 0.0
H494 H 0.37651 0.24292 0.73183 0.0
H495 H 0.35506 0.24576 0.75369 0.0
Ho496 Ho 0.0371 0.05157 0.51901 0.0
Ho497 Ho 0.03909 0.01358 0.50153 0.0
C498 C 0.02507 0.03737 0.47311 0.0
C499 C 0.03862 0.08775 0.52554 0.0
C500 C 0.03606 0.10045 0.51227 0.0
C501 C 0.0465 0.10247 0.49766 0.0
C502 C 0.04346 0.11382 0.48465 0.0
C503 C 0.02983 0.12324 0.48587 0.0
C504 C 0.01909 0.12081 0.50019 0.0
C505 C 0.02222 0.10953 0.51331 0.0
C506 C 0.00792 0.02262 0.52058 0.0
C507 C 0.05169 0.02827 0.54745 0.0
C508 C 0.03736 0.97731 0.49447 0.0
C509 C 0.04077 0.96416 0.50686 0.0
C510 C 0.03413 0.9644 0.52409 0.0
C511 C 0.03737 0.95176 0.53569 0.0
C512 C 0.04727 0.9387 0.53023 0.0
C513 C 0.05453 0.93905 0.51338 0.0
C514 C 0.05132 0.95174 0.50179 0.0
C515 C 0.06821 0.04238 0.49951 0.0
O516 O 0.03082 0.052 0.48761 0.0
O517 O 0.02533 0.01969 0.4753 0.0
O518 O 0.02427 0.0742 0.52672 0.0
O519 O 0.05292 0.08146 0.52504 0.0
O520 O 0.01562 0.03667 0.53448 0.0
O521 O 0.01597 0.02467 0.50655 0.0
O522 O 0.0458 0.01352 0.53305 0.0
O523 O 0.0513 0.04587 0.54514 0.0
O524 O 0.05145 0.99084 0.49269 0.0
O525 O 0.02327 0.98373 0.49653 0.0
O526 O 0.06069 0.0279 0.48597 0.0
O527 O 0.06019 0.04058 0.51363 0.0
H528 H 0.05709 0.09536 0.49625 0.0
H529 H 0.05218 0.11568 0.47399 0.0
H530 H 0.00838 0.12777 0.50136 0.0
H531 H 0.01379 0.10784 0.52425 0.0
H532 H 0.02618 0.97409 0.52848 0.0
H533 H 0.03144 0.9516 0.54851 0.0
H534 H 0.06228 0.92915 0.50896 0.0
H535 H 0.05685 0.95166 0.48873 0.0
Ho536 Ho 0.31005 0.80201 0.76768 0.0
Ho537 Ho 0.27575 0.76935 0.76288 0.0
C538 C 0.31245 0.75604 0.76684 0.0
C539 C 0.34138 0.82518 0.78015 0.0
C540 C 0.35938 0.82206 0.78291 0.0
C541 C 0.36455 0.81383 0.79801 0.0
C542 C 0.38115 0.80985 0.79989 0.0
C543 C 0.39295 0.81414 0.78681 0.0
C544 C 0.38795 0.82258 0.77186 0.0
C545 C 0.37129 0.82653 0.76993 0.0
C546 C 0.29614 0.78484 0.73254 0.0
C547 C 0.27301 0.81512 0.76332 0.0
C548 C 0.24475 0.74615 0.74945 0.0
C549 C 0.22692 0.74956 0.74702 0.0
C550 C 0.21957 0.7514 0.72928 0.0
C551 C 0.20398 0.75733 0.72718 0.0
C552 C 0.19532 0.76114 0.7427 0.0
C553 C 0.20216 0.75857 0.76029 0.0
C554 C 0.21792 0.7529 0.76247 0.0
C555 C 0.28992 0.78582 0.79821 0.0
O556 O 0.32082 0.77512 0.77117 0.0
O557 O 0.29478 0.7502 0.76159 0.0
O558 O 0.3339 0.82241 0.76274 0.0
O559 O 0.33007 0.81795 0.7911 0.0
O560 O 0.30399 0.80329 0.73708 0.0
O561 O 0.2972 0.77683 0.7464 0.0
O562 O 0.26468 0.79606 0.7602 0.0
O563 O 0.29083 0.82119 0.76763 0.0
O564 O 0.25224 0.74774 0.7667 0.0
O565 O 0.25598 0.75451 0.73898 0.0
O566 O 0.28151 0.76753 0.79319 0.0
O567 O 0.2888 0.79437 0.78465 0.0
H568 H 0.35575 0.81029 0.80833 0.0
H569 H 0.38485 0.80362 0.81173 0.0
H570 H 0.39683 0.82594 0.76156 0.0
H571 H 0.36766 0.83288 0.75816 0.0
H572 H 0.22617 0.7488 0.71713 0.0
H573 H 0.19863 0.7589 0.71342 0.0
H574 H 0.19551 0.76134 0.77237 0.0
H575 H 0.22324 0.75159 0.77633 0.0
Ho576 Ho 0.53156 0.03999 0.02415 0.0
Ho577 Ho 0.53021 0.03587 0.98218 0.0
C578 C 0.49392 0.02691 0.99656 0.0
C579 C 0.52592 0.04471 0.05834 0.0
C580 C 0.51424 0.0314 0.06825 0.0
C581 C 0.49682 0.03282 0.07006 0.0
C582 C 0.4857 0.02036 0.07939 0.0
C583 C 0.49179 0.00628 0.08725 0.0
C584 C 0.50896 0.00432 0.0848 0.0
C585 C 0.5201 0.01678 0.07541 0.0
C586 C 0.53248 0.00489 0.00633 0.0
C587 C 0.56787 0.0498 0.00942 0.0
C588 C 0.53629 0.03191 0.94826 0.0
C589 C 0.54797 0.04659 0.93985 0.0
C590 C 0.56258 0.0424 0.93209 0.0
C591 C 0.57521 0.05693 0.92641 0.0
C592 C 0.57337 0.07585 0.92829 0.0
C593 C 0.5586 0.08005 0.9357 0.0
C594 C 0.54608 0.06557 0.94169 0.0
C595 C 0.52981 0.07108 1.00022 0.0
O596 O 0.50313 0.03767 0.01246 0.0
O597 O 0.50207 0.02016 0.98318 0.0
O598 O 0.5399 0.03962 0.0531 0.0
O599 O 0.51774 0.05147 0.04548 0.0
O600 O 0.54082 0.01298 0.02289 0.0
O601 O 0.52311 0.01509 0.00069 0.0
O602 O 0.55878 0.03839 0.99379 0.0
O603 O 0.55955 0.05633 0.02277 0.0
O604 O 0.52168 0.03575 0.95315 0.0
O605 O 0.54468 0.02523 0.96101 0.0
O606 O 0.52121 0.06326 0.98373 0.0
O607 O 0.5389 0.0606 0.0056 0.0
H608 H 0.49187 0.04384 0.0646 0.0
H609 H 0.4727 0.02255 0.08139 0.0
H610 H 0.51399 0.9936 0.09074 0.0
H611 H 0.53339 0.01514 0.07406 0.0
H612 H 0.5644 0.02799 0.93076 0.0
H613 H 0.5863 0.05329 0.92021 0.0
H614 H 0.55684 0.09449 0.93693 0.0
H615 H 0.5351 0.06934 0.94798 0.0
Ho616 Ho 0.29035 0.30054 0.2679 0.0
Ho617 Ho 0.2755 0.2586 0.25317 0.0
C618 C 0.24793 0.28102 0.26421 0.0
C619 C 0.29737 0.33748 0.27755 0.0
C620 C 0.28622 0.35059 0.28113 0.0
C621 C 0.26984 0.34773 0.26969 0.0
C622 C 0.25973 0.36084 0.27294 0.0
C623 C 0.26601 0.37688 0.28756 0.0
C624 C 0.28185 0.37914 0.29958 0.0
C625 C 0.29189 0.36594 0.29643 0.0
C626 C 0.29331 0.2781 0.29344 0.0
C627 C 0.31795 0.27963 0.25598 0.0
C628 C 0.27021 0.22162 0.2448 0.0
C629 C 0.28245 0.20934 0.24211 0.0
C630 C 0.29731 0.21151 0.25561 0.0
C631 C 0.30869 0.19963 0.2529 0.0
C632 C 0.30557 0.1855 0.23656 0.0
C633 C 0.29108 0.18387 0.22275 0.0
C634 C 0.27959 0.19567 0.22555 0.0
C635 C 0.2735 0.28109 0.22732 0.0
O636 O 0.26076 0.29646 0.26306 0.0
O637 O 0.25076 0.2638 0.26304 0.0
O638 O 0.2976 0.32601 0.28959 0.0
O639 O 0.29593 0.32872 0.2602 0.0
O640 O 0.30581 0.2931 0.29178 0.0
O641 O 0.27967 0.27568 0.28153 0.0
O642 O 0.30567 0.26362 0.2571 0.0
O643 O 0.31427 0.29627 0.2568 0.0
O644 O 0.26925 0.23243 0.23224 0.0
O645 O 0.27089 0.23084 0.26183 0.0
O646 O 0.26075 0.26603 0.22851 0.0
O647 O 0.28669 0.28326 0.23967 0.0
H648 H 0.26512 0.33573 0.25797 0.0
H649 H 0.24765 0.35915 0.26336 0.0
H650 H 0.28684 0.39161 0.3108 0.0
H651 H 0.30434 0.36805 0.30555 0.0
H652 H 0.30003 0.22219 0.26839 0.0
H653 H 0.31959 0.20112 0.26392 0.0
H654 H 0.28851 0.17334 0.20989 0.0
H655 H 0.2684 0.19404 0.21481 0.0
Ho656 Ho 0.53756 0.55109 0.01813 0.0
Ho657 Ho 0.53962 0.51263 0.00112 0.0
C658 C 0.52544 0.536 0.97228 0.0
C659 C 0.53971 0.58747 0.02403 0.0
C660 C 0.53676 0.60017 0.01087 0.0
C661 C 0.54598 0.60132 0.99527 0.0
C662 C 0.54311 0.61339 0.9829 0.0
C663 C 0.53086 0.62443 0.98578 0.0
C664 C 0.52115 0.6227 0.00098 0.0
C665 C 0.52411 0.61069 0.01344 0.0
C666 C 0.50839 0.52229 0.01991 0.0
C667 C 0.5519 0.528 0.047 0.0
C668 C 0.53762 0.47625 0.99494 0.0
C669 C 0.5404 0.46311 0.00767 0.0
C670 C 0.53271 0.46308 0.0243 0.0
C671 C 0.53542 0.45048 0.0362 0.0
C672 C 0.54594 0.43777 0.03172 0.0
C673 C 0.55423 0.43844 0.01547 0.0
C674 C 0.55145 0.45099 0.00354 0.0
C675 C 0.56876 0.54134 0.99901 0.0
O676 O 0.53002 0.55059 0.98681 0.0
O677 O 0.5268 0.51861 0.97431 0.0
O678 O 0.52544 0.57429 0.02611 0.0
O679 O 0.55371 0.58076 0.0227 0.0
O680 O 0.51589 0.53668 0.03359 0.0
O681 O 0.51659 0.524 0.00591 0.0
O682 O 0.54607 0.5131 0.03273 0.0
O683 O 0.55158 0.54557 0.04448 0.0
O684 O 0.55199 0.4896 0.99348 0.0
O685 O 0.52355 0.48285 0.99623 0.0
O686 O 0.56152 0.52654 0.98569 0.0
O687 O 0.56055 0.53978 0.01302 0.0
H688 H 0.55562 0.59311 0.99271 0.0
H689 H 0.55099 0.6146 0.97149 0.0
H690 H 0.51147 0.63087 0.0034 0.0
H691 H 0.51662 0.60972 0.02517 0.0
H692 H 0.52438 0.47257 0.02802 0.0
H693 H 0.52869 0.45017 0.0485 0.0
H694 H 0.56261 0.429 0.01181 0.0
H695 H 0.55779 0.45111 0.99097 0.0
Ho696 Ho 0.80831 0.30183 0.2646 0.0
Ho697 Ho 0.77419 0.26973 0.26341 0.0
C698 C 0.8108 0.2562 0.26556 0.0
C699 C 0.84005 0.32494 0.27373 0.0
C700 C 0.85738 0.32099 0.27813 0.0
C701 C 0.85964 0.3094 0.29143 0.0
C702 C 0.87586 0.30494 0.29486 0.0
C703 C 0.88997 0.31182 0.28494 0.0
C704 C 0.88761 0.32301 0.27137 0.0
C705 C 0.87141 0.32765 0.26805 0.0
C706 C 0.79141 0.28396 0.23058 0.0
C707 C 0.77143 0.31518 0.26206 0.0
C708 C 0.74293 0.2456 0.25387 0.0
C709 C 0.72502 0.24833 0.24972 0.0
C710 C 0.72057 0.25557 0.23367 0.0
C711 C 0.70427 0.25987 0.23071 0.0
C712 C 0.69222 0.25697 0.24366 0.0
C713 C 0.69628 0.24939 0.25949 0.0
C714 C 0.71266 0.24503 0.2625 0.0
C715 C 0.79141 0.28711 0.29745 0.0
O716 O 0.81927 0.27524 0.26876 0.0
O717 O 0.79301 0.25038 0.26163 0.0
O718 O 0.83245 0.31871 0.25633 0.0
O719 O 0.82876 0.32144 0.28576 0.0
O720 O 0.79945 0.3024 0.23447 0.0
O721 O 0.79369 0.27624 0.24449 0.0
O722 O 0.76301 0.2962 0.25985 0.0
O723 O 0.78931 0.32117 0.2652 0.0
O724 O 0.75053 0.25158 0.2713 0.0
O725 O 0.75405 0.25032 0.2419 0.0
O726 O 0.78317 0.26872 0.29331 0.0
O727 O 0.78903 0.2952 0.28381 0.0
H728 H 0.8489 0.30369 0.29913 0.0
H729 H 0.87739 0.29613 0.30528 0.0
H730 H 0.89842 0.32854 0.26367 0.0
H731 H 0.8698 0.33636 0.25756 0.0
H732 H 0.72975 0.25827 0.22353 0.0
H733 H 0.70109 0.26559 0.21833 0.0
H734 H 0.68688 0.24698 0.26947 0.0
H735 H 0.71582 0.23944 0.27495 0.0
Ho736 Ho 0.03429 0.53955 0.52289 0.0
Ho737 Ho 0.02805 0.53685 0.4809 0.0
C738 C 0.99443 0.52221 0.49863 0.0
C739 C 0.03122 0.5421 0.55776 0.0
C740 C 0.01886 0.52907 0.56733 0.0
C741 C 0.00164 0.53124 0.56903 0.0
C742 C 0.98986 0.51878 0.57779 0.0
C743 C 0.99506 0.50393 0.58516 0.0
C744 C 0.01208 0.50137 0.58302 0.0
C745 C 0.02388 0.51383 0.57418 0.0
C746 C 0.03731 0.50673 0.50261 0.0
C747 C 0.06791 0.55428 0.5048 0.0
C748 C 0.03182 0.53558 0.44639 0.0
C749 C 0.04462 0.54987 0.43843 0.0
C750 C 0.06083 0.54631 0.43425 0.0
C751 C 0.07383 0.56047 0.42855 0.0
C752 C 0.07084 0.57841 0.42672 0.0
C753 C 0.05464 0.58202 0.43074 0.0
C754 C 0.04168 0.56793 0.4367 0.0
C755 C 0.02561 0.56971 0.50169 0.0
O756 O 0.00437 0.5326 0.51438 0.0
O757 O 0.00159 0.51801 0.48349 0.0
O758 O 0.04333 0.53505 0.55029 0.0
O759 O 0.02396 0.55171 0.54691 0.0
O760 O 0.04757 0.51558 0.51808 0.0
O761 O 0.02569 0.51525 0.49897 0.0
O762 O 0.05798 0.54367 0.48916 0.0
O763 O 0.06075 0.55846 0.51996 0.0
O764 O 0.01901 0.54157 0.45359 0.0
O765 O 0.03895 0.52558 0.45688 0.0
O766 O 0.01493 0.56116 0.4864 0.0
O767 O 0.037 0.56088 0.50475 0.0
H768 H 0.99731 0.54277 0.56388 0.0
H769 H 0.97703 0.52149 0.57968 0.0
H770 H 0.01645 0.49014 0.58871 0.0
H771 H 0.03702 0.51168 0.57294 0.0
H772 H 0.06352 0.53261 0.4355 0.0
H773 H 0.08602 0.55713 0.42494 0.0
H774 H 0.05196 0.59564 0.42908 0.0
H775 H 0.0294 0.57124 0.44 0.0
Ho776 Ho 0.77162 0.78545 0.26281 0.0
Ho777 Ho 0.80936 0.77871 0.26583 0.0
C778 C 0.79589 0.79281 0.30301 0.0
C779 C 0.73781 0.77973 0.2658 0.0
C780 C 0.72641 0.78427 0.28016 0.0
C781 C 0.72163 0.77177 0.29288 0.0
C782 C 0.70904 0.77429 0.30473 0.0
C783 C 0.70076 0.7893 0.30417 0.0
C784 C 0.70622 0.8025 0.29224 0.0
C785 C 0.71884 0.79993 0.28026 0.0
C786 C 0.79678 0.82081 0.26509 0.0
C787 C 0.78622 0.77361 0.22483 0.0
C788 C 0.84176 0.77687 0.26234 0.0
C789 C 0.8531 0.77418 0.2475 0.0
C790 C 0.85956 0.78889 0.23744 0.0
C791 C 0.87167 0.78681 0.22484 0.0
C792 C 0.87763 0.76998 0.22194 0.0
C793 C 0.8707 0.75502 0.23158 0.0
C794 C 0.85863 0.75713 0.24425 0.0
C795 C 0.78218 0.74808 0.27057 0.0
O796 O 0.77963 0.78724 0.29339 0.0
O797 O 0.81051 0.79379 0.29507 0.0
O798 O 0.74682 0.79386 0.25838 0.0
O799 O 0.74702 0.76754 0.26899 0.0
O800 O 0.77957 0.81814 0.26416 0.0
O801 O 0.79953 0.80431 0.26521 0.0
O802 O 0.80161 0.77461 0.23487 0.0
O803 O 0.7721 0.77658 0.23222 0.0
O804 O 0.8286 0.76192 0.26334 0.0
O805 O 0.83731 0.79316 0.26538 0.0
O806 O 0.79806 0.75406 0.2804 0.0
O807 O 0.78146 0.75902 0.25859 0.0
H808 H 0.72713 0.75954 0.29327 0.0
H809 H 0.70534 0.76405 0.31397 0.0
H810 H 0.70005 0.81418 0.29143 0.0
H811 H 0.72216 0.8098 0.27061 0.0
H812 H 0.85568 0.80227 0.23965 0.0
H813 H 0.8769 0.79879 0.21792 0.0
H814 H 0.87477 0.74175 0.22955 0.0
H815 H 0.85391 0.74556 0.25184 0.0
Ho816 Ho 0.79189 0.28738 0.75222 0.0
Ho817 Ho 0.78277 0.29483 0.78918 0.0
C818 C 0.79825 0.33114 0.77422 0.0
C819 C 0.7991 0.28948 0.71888 0.0
C820 C 0.80968 0.30602 0.71169 0.0
C821 C 0.80165 0.31998 0.70635 0.0
C822 C 0.81174 0.33588 0.70006 0.0
C823 C 0.83008 0.33817 0.69888 0.0
C824 C 0.83826 0.32455 0.70473 0.0
C825 C 0.82814 0.30858 0.71104 0.0
C826 C 0.81798 0.28643 0.77903 0.0
C827 C 0.77615 0.25123 0.76797 0.0
C828 C 0.7749 0.29265 0.82236 0.0
C829 C 0.76171 0.27799 0.82948 0.0
C830 C 0.76295 0.2589 0.82815 0.0
C831 C 0.75126 0.24568 0.83632 0.0
C832 C 0.7381 0.2513 0.84601 0.0
C833 C 0.73591 0.26989 0.84592 0.0
C834 C 0.74767 0.28315 0.83779 0.0
C835 C 0.75609 0.29422 0.76193 0.0
O836 O 0.79349 0.31914 0.75798 0.0
O837 O 0.79905 0.32464 0.78994 0.0
O838 O 0.80812 0.28237 0.73062 0.0
O839 O 0.78386 0.291 0.72414 0.0
O840 O 0.81251 0.27402 0.76357 0.0
O841 O 0.80943 0.29916 0.77987 0.0
O842 O 0.78125 0.2634 0.78399 0.0
O843 O 0.77576 0.25747 0.75204 0.0
O844 O 0.76817 0.30252 0.81156 0.0
O845 O 0.78856 0.28755 0.81627 0.0
O846 O 0.76086 0.30649 0.77749 0.0
O847 O 0.7654 0.2823 0.76147 0.0
H848 H 0.78749 0.3185 0.70674 0.0
H849 H 0.80488 0.34583 0.69516 0.0
H850 H 0.85234 0.32592 0.70386 0.0
H851 H 0.83475 0.29814 0.71522 0.0
H852 H 0.77343 0.25436 0.82155 0.0
H853 H 0.75352 0.23157 0.83629 0.0
H854 H 0.72579 0.27456 0.85313 0.0
H855 H 0.74622 0.29768 0.83861 0.0
Ho856 Ho 0.78935 0.79976 0.76782 0.0
Ho857 Ho 0.77633 0.75769 0.75275 0.0
C858 C 0.74713 0.77811 0.76295 0.0
C859 C 0.79529 0.8366 0.77735 0.0
C860 C 0.78341 0.84916 0.77952 0.0
C861 C 0.77018 0.84861 0.76482 0.0
C862 C 0.75867 0.86027 0.76731 0.0
C863 C 0.76003 0.87245 0.78462 0.0
C864 C 0.77292 0.87251 0.79949 0.0
C865 C 0.78461 0.861 0.7969 0.0
C866 C 0.79277 0.77741 0.79336 0.0
C867 C 0.81846 0.77991 0.75716 0.0
C868 C 0.77158 0.72084 0.74412 0.0
C869 C 0.78387 0.70869 0.74148 0.0
C870 C 0.79871 0.71094 0.75501 0.0
C871 C 0.81015 0.69915 0.7523 0.0
C872 C 0.80708 0.68509 0.73592 0.0
C873 C 0.79263 0.6834 0.72209 0.0
C874 C 0.78107 0.69509 0.72489 0.0
C875 C 0.77349 0.78023 0.72703 0.0
O876 O 0.75933 0.79432 0.76232 0.0
O877 O 0.75115 0.76153 0.76229 0.0
O878 O 0.79467 0.82507 0.78945 0.0
O879 O 0.79555 0.82803 0.7603 0.0
O880 O 0.80488 0.79288 0.79203 0.0
O881 O 0.77928 0.77449 0.78111 0.0
O882 O 0.80645 0.76355 0.75772 0.0
O883 O 0.81421 0.7963 0.75782 0.0
O884 O 0.77079 0.73179 0.73167 0.0
O885 O 0.77203 0.72986 0.76118 0.0
O886 O 0.76172 0.76416 0.72751 0.0
O887 O 0.78663 0.78301 0.73961 0.0
H888 H 0.76879 0.83934 0.75134 0.0
H889 H 0.74914 0.86021 0.75545 0.0
H890 H 0.77414 0.88166 0.813 0.0
H891 H 0.79457 0.86132 0.80848 0.0
H892 H 0.80136 0.72159 0.76781 0.0
H893 H 0.82103 0.70063 0.76335 0.0
H894 H 0.79011 0.67288 0.70922 0.0
H895 H 0.76988 0.69343 0.71414 0.0
Ho896 Ho 0.52083 0.5241 0.50238 0.0
Ho897 Ho 0.56104 0.54486 0.52209 0.0
C898 C 0.53808 0.57018 0.50447 0.0
C899 C 0.48638 0.51354 0.49541 0.0
C900 C 0.47361 0.52487 0.49213 0.0
C901 C 0.47374 0.54133 0.50512 0.0
C902 C 0.46193 0.55227 0.50144 0.0
C903 C 0.44994 0.54708 0.48463 0.0
C904 C 0.4504 0.5311 0.47134 0.0
C905 C 0.46204 0.52001 0.47513 0.0
C906 C 0.54453 0.52368 0.47612 0.0
C907 C 0.5436 0.49883 0.52124 0.0
C908 C 0.59554 0.5552 0.52795 0.0
C909 C 0.60851 0.54467 0.53316 0.0
C910 C 0.6092 0.52769 0.52147 0.0
C911 C 0.62136 0.5177 0.52667 0.0
C912 C 0.63294 0.52434 0.54376 0.0
C913 C 0.63184 0.54098 0.5557 0.0
C914 C 0.61979 0.55113 0.55037 0.0
C915 C 0.53756 0.54656 0.54836 0.0
O916 O 0.5233 0.55573 0.50281 0.0
O917 O 0.55434 0.56889 0.50996 0.0
O918 O 0.49664 0.51215 0.48246 0.0
O919 O 0.49513 0.51684 0.51234 0.0
O920 O 0.52723 0.51676 0.47264 0.0
O921 O 0.54782 0.5303 0.49371 0.0
O922 O 0.55808 0.51387 0.5246 0.0
O923 O 0.52772 0.49932 0.51329 0.0
O924 O 0.58577 0.55917 0.54076 0.0
O925 O 0.58626 0.54914 0.51121 0.0
O926 O 0.55482 0.5542 0.55136 0.0
O927 O 0.53394 0.53893 0.53093 0.0
H928 H 0.48282 0.54568 0.5182 0.0
H929 H 0.46176 0.56435 0.51209 0.0
H930 H 0.44152 0.52695 0.45813 0.0
H931 H 0.46204 0.50763 0.46475 0.0
H932 H 0.6005 0.52217 0.5082 0.0
H933 H 0.62206 0.50515 0.51695 0.0
H934 H 0.64042 0.54629 0.56905 0.0
H935 H 0.61928 0.56403 0.55971 0.0
Ho936 Ho 0.05517 0.53394 0.01345 0.0
Ho937 Ho 0.01412 0.52951 0.01584 0.0
C938 C 0.02611 0.49134 0.00776 0.0
C939 C 0.08752 0.53019 0.016 0.0
C940 C 0.09706 0.51511 0.01125 0.0
C941 C 0.09867 0.50194 0.02316 0.0
C942 C 0.10963 0.48952 0.01976 0.0
C943 C 0.11935 0.49018 0.00453 0.0
C944 C 0.11726 0.50276 0.99224 0.0
C945 C 0.10618 0.51503 0.99551 0.0
C946 C 0.03422 0.53353 0.98218 0.0
C947 C 0.04336 0.57226 0.02177 0.0
C948 C 0.98162 0.53249 0.01267 0.0
C949 C 0.97225 0.54774 0.01689 0.0
C950 C 0.96887 0.55858 0.00329 0.0
C951 C 0.95877 0.5718 0.00653 0.0
C952 C 0.95169 0.57455 0.02345 0.0
C953 C 0.95539 0.56401 0.03725 0.0
C954 C 0.96552 0.55072 0.03399 0.0
C955 C 0.0349 0.52987 0.04712 0.0
O956 O 0.04285 0.50215 0.0135 0.0
O957 O 0.01258 0.49884 0.00446 0.0
O958 O 0.08008 0.53611 0.00201 0.0
O959 O 0.07775 0.52874 0.02965 0.0
O960 O 0.05076 0.54402 0.98609 0.0
O961 O 0.03018 0.52322 0.99412 0.0
O962 O 0.02643 0.56156 0.01716 0.0
O963 O 0.05711 0.56488 0.02408 0.0
O964 O 0.98902 0.52692 0.02695 0.0
O965 O 0.99149 0.53377 0.99909 0.0
O966 O 0.01844 0.51911 0.04293 0.0
O967 O 0.039 0.54015 0.03514 0.0
H968 H 0.09199 0.50168 0.03549 0.0
H969 H 0.11122 0.48008 0.02954 0.0
H970 H 0.12468 0.50354 0.98044 0.0
H971 H 0.10532 0.52501 0.98609 0.0
H972 H 0.97363 0.55651 0.98988 0.0
H973 H 0.95593 0.57933 0.9954 0.0
H974 H 0.95028 0.56586 0.05049 0.0
H975 H 0.96776 0.54252 0.04474 0.0
C976 C 0.99665 0.20489 0.95192 0.0
C977 C 0.00621 0.21358 0.93865 0.0
C978 C 0.00204 0.19082 0.96015 0.0
C979 C 0.02887 0.1557 0.95361 0.0
H980 H 0.02289 0.15314 0.00538 0.0
C981 C 0.051 0.10015 0.99232 0.0
C982 C 0.03729 0.0889 1.00035 0.0
C983 C 0.04888 0.11672 0.98598 0.0
C984 C 0.02461 0.15371 0.99091 0.0
H985 H 0.02905 0.21428 0.92372 0.0
H986 H 0.03861 0.1897 0.93825 0.0
H987 H 0.01657 0.17981 0.99182 0.0
H988 H 0.01099 0.08646 0.00879 0.0
H989 H 0.00751 0.11588 0.99822 0.0
H990 H 0.03706 0.12963 0.95287 0.0
C991 C 0.02676 0.19366 0.94208 0.0
C992 C 0.02092 0.16891 0.98309 0.0
C993 C 0.0213 0.20776 0.93376 0.0
C994 C 0.02171 0.09487 0.00257 0.0
C995 C 0.01977 0.11171 0.99663 0.0
C996 C 0.03278 0.14065 0.96152 0.0
C997 C 0.01722 0.18508 0.95545 0.0
C998 C 0.02267 0.16989 0.96423 0.0
C999 C 0.03319 0.12256 0.98795 0.0
C1000 C 0.03039 0.13935 0.98013 0.0
H1001 H 0.98495 0.20898 0.95607 0.0
H1002 H 0.99412 0.18429 0.97007 0.0
H1003 H 0.03014 0.15583 0.939 0.0
H1004 H 0.0631 0.09578 0.99035 0.0
H1005 H 0.05943 0.12491 0.9794 0.0
C1006 C 0.14008 0.81933 0.14943 0.0
C1007 C 0.12263 0.80718 0.14809 0.0
C1008 C 0.15419 0.81722 0.16151 0.0
C1009 C 0.16832 0.78226 0.1879 0.0
H1010 H 0.20541 0.82851 0.21234 0.0
C1011 C 0.23547 0.78073 0.23132 0.0
C1012 C 0.24215 0.79544 0.24723 0.0
C1013 C 0.22053 0.78096 0.2189 0.0
C1014 C 0.19513 0.81538 0.20585 0.0
H1015 H 0.10622 0.78314 0.15829 0.0
H1016 H 0.13094 0.77949 0.17977 0.0
H1017 H 0.17966 0.83149 0.19298 0.0
H1018 H 0.23819 0.82158 0.26277 0.0
H1019 H 0.21228 0.82175 0.24176 0.0
H1020 H 0.1837 0.76626 0.20158 0.0
C1021 C 0.13373 0.79069 0.1714 0.0
C1022 C 0.18039 0.81709 0.19442 0.0
C1023 C 0.11949 0.79296 0.15934 0.0
C1024 C 0.23349 0.8101 0.25059 0.0
C1025 C 0.21864 0.81028 0.23837 0.0
C1026 C 0.18309 0.78055 0.19958 0.0
C1027 C 0.15132 0.80278 0.17259 0.0
C1028 C 0.16674 0.8006 0.18523 0.0
C1029 C 0.21204 0.79592 0.22219 0.0
C1030 C 0.19663 0.79715 0.20887 0.0
H1031 H 0.14292 0.83031 0.14079 0.0
H1032 H 0.1675 0.82662 0.16172 0.0
H1033 H 0.15823 0.7692 0.18084 0.0
H1034 H 0.24184 0.76917 0.22844 0.0
H1035 H 0.21588 0.76968 0.20658 0.0
C1036 C 0.52516 0.82882 0.43647 0.0
C1037 C 0.51984 0.81568 0.44844 0.0
C1038 C 0.52889 0.84866 0.44306 0.0
C1039 C 0.53986 0.8881 0.48204 0.0
H1040 H 0.49932 0.90343 0.46041 0.0
C1041 C 0.52746 0.95995 0.51296 0.0
C1042 C 0.52078 0.97013 0.50051 0.0
C1043 C 0.52751 0.94084 0.50684 0.0
C1044 C 0.51095 0.89964 0.46637 0.0
H1045 H 0.51592 0.81274 0.47692 0.0
H1046 H 0.5231 0.84768 0.48863 0.0
H1047 H 0.50292 0.87169 0.44866 0.0
H1048 H 0.50867 0.96878 0.47222 0.0
H1049 H 0.50965 0.93586 0.46112 0.0
H1050 H 0.5484 0.91617 0.49928 0.0
C1051 C 0.52412 0.84253 0.47416 0.0
C1052 C 0.51294 0.88145 0.45964 0.0
C1053 C 0.51995 0.82265 0.46747 0.0
C1054 C 0.51358 0.96094 0.48209 0.0
C1055 C 0.51416 0.94206 0.47578 0.0
C1056 C 0.53817 0.90655 0.48845 0.0
C1057 C 0.5278 0.85552 0.46178 0.0
C1058 C 0.52726 0.87552 0.4676 0.0
C1059 C 0.52148 0.9319 0.48799 0.0
C1060 C 0.5235 0.91243 0.48091 0.0
H1061 H 0.525 0.82378 0.42169 0.0
H1062 H 0.5316 0.85856 0.43335 0.0
H1063 H 0.55096 0.88363 0.48833 0.0
H1064 H 0.53305 0.96695 0.52726 0.0
H1065 H 0.53268 0.9333 0.51681 0.0
C1066 C 0.50319 0.30481 0.63285 0.0
C1067 C 0.51853 0.29932 0.63894 0.0
C1068 C 0.48769 0.30016 0.64133 0.0
C1069 C 0.46399 0.26705 0.67047 0.0
H1070 H 0.43809 0.30588 0.6793 0.0
C1071 C 0.40699 0.26284 0.71732 0.0
C1072 C 0.39249 0.26996 0.71162 0.0
C1073 C 0.42155 0.26419 0.70723 0.0
C1074 C 0.44498 0.29474 0.6767 0.0
H1075 H 0.5295 0.28441 0.65867 0.0
H1076 H 0.50235 0.2763 0.67361 0.0
H1077 H 0.46537 0.31315 0.66499 0.0
H1078 H 0.38144 0.28268 0.68989 0.0
H1079 H 0.40688 0.28524 0.67248 0.0
H1080 H 0.44358 0.24878 0.68255 0.0
C1081 C 0.50234 0.28419 0.66219 0.0
C1082 C 0.46069 0.29892 0.66849 0.0
C1083 C 0.51797 0.28902 0.65377 0.0
C1084 C 0.39255 0.27753 0.69501 0.0
C1085 C 0.40714 0.27896 0.68499 0.0
C1086 C 0.44824 0.26288 0.67878 0.0
C1087 C 0.48701 0.28978 0.65611 0.0
C1088 C 0.4704 0.28515 0.66519 0.0
C1089 C 0.42204 0.27279 0.69124 0.0
C1090 C 0.43851 0.27668 0.68193 0.0
H1091 H 0.50311 0.31271 0.62142 0.0
H1092 H 0.47611 0.30449 0.63608 0.0
H1093 H 0.471 0.25601 0.66793 0.0
H1094 H 0.40752 0.25704 0.73009 0.0
H1095 H 0.43282 0.25936 0.71249 0.0
C1096 C 0.99405 0.79526 0.59295 0.0
C1097 C 0.99817 0.79586 0.61219 0.0
C1098 C 0.00159 0.81115 0.58501 0.0
C1099 C 0.03878 0.8561 0.59275 0.0
H1100 H 0.00765 0.86939 0.55521 0.0
C1101 C 0.05121 0.92681 0.5604 0.0
C1102 C 0.04771 0.92303 0.54074 0.0
C1103 C 0.04822 0.9115 0.57024 0.0
C1104 C 0.01649 0.86574 0.56562 0.0
H1105 H 0.01356 0.81352 0.63823 0.0
H1106 H 0.02642 0.84147 0.62436 0.0
H1107 H 0.99558 0.84237 0.57045 0.0
H1108 H 0.03924 0.9005 0.51593 0.0
H1109 H 0.03385 0.87389 0.53311 0.0
H1110 H 0.0596 0.88003 0.58798 0.0
C1111 C 0.01754 0.82861 0.6154 0.0
C1112 C 0.00963 0.85026 0.57427 0.0
C1113 C 0.01002 0.81267 0.62335 0.0
C1114 C 0.04224 0.9038 0.53106 0.0
C1115 C 0.03905 0.8886 0.54086 0.0
C1116 C 0.04562 0.87183 0.58418 0.0
C1117 C 0.01334 0.82802 0.59617 0.0
C1118 C 0.02074 0.84505 0.58771 0.0
C1119 C 0.04144 0.89236 0.56046 0.0
C1120 C 0.03454 0.87649 0.57036 0.0
H1121 H 0.98514 0.78245 0.58395 0.0
H1122 H 0.99834 0.81015 0.57007 0.0
H1123 H 0.04767 0.85234 0.60301 0.0
H1124 H 0.0555 0.94157 0.56812 0.0
H1125 H 0.05009 0.91464 0.5854 0.0
C1126 C 0.53147 0.78616 0.84962 0.0
C1127 C 0.54545 0.80333 0.85314 0.0
C1128 C 0.51611 0.78431 0.83721 0.0
C1129 C 0.49446 0.80798 0.80349 0.0
H1130 H 0.45314 0.78942 0.82813 0.0
C1131 C 0.42629 0.82476 0.78828 0.0
C1132 C 0.41067 0.81031 0.78923 0.0
C1133 C 0.44317 0.82191 0.79262 0.0
C1134 C 0.46445 0.79429 0.82083 0.0
H1135 H 0.5552 0.83146 0.84557 0.0
H1136 H 0.52806 0.82856 0.82434 0.0
H1137 H 0.48232 0.78737 0.84093 0.0
H1138 H 0.40026 0.78113 0.79416 0.0
H1139 H 0.42975 0.77601 0.80153 0.0
H1140 H 0.47642 0.8155 0.78372 0.0
C1141 C 0.52904 0.81631 0.83074 0.0
C1142 C 0.48121 0.79308 0.82815 0.0
C1143 C 0.54461 0.81797 0.84288 0.0
C1144 C 0.41215 0.79261 0.79366 0.0
C1145 C 0.42899 0.78971 0.79788 0.0
C1146 C 0.4776 0.80921 0.79614 0.0
C1147 C 0.5143 0.79984 0.82854 0.0
C1148 C 0.49642 0.79992 0.8196 0.0
C1149 C 0.44468 0.80452 0.79787 0.0
C1150 C 0.46244 0.8024 0.80479 0.0
H1151 H 0.53193 0.77466 0.85735 0.0
H1152 H 0.50515 0.77122 0.83536 0.0
H1153 H 0.50594 0.81338 0.79662 0.0
H1154 H 0.42547 0.83859 0.78502 0.0
H1155 H 0.45501 0.83366 0.7927 0.0
C1156 C 0.50017 0.20573 0.10103 0.0
C1157 C 0.48864 0.19883 0.11356 0.0
C1158 C 0.50431 0.19274 0.0873 0.0
C1159 C 0.50616 0.14249 0.07895 0.0
H1160 H 0.51466 0.15223 0.02943 0.0
C1161 C 0.5364 0.09397 0.03045 0.0
C1162 C 0.52738 0.08801 0.01206 0.0
C1163 C 0.53286 0.10898 0.04234 0.0
C1164 C 0.51225 0.14932 0.04319 0.0
H1165 H 0.4711 0.17341 0.12077 0.0
H1166 H 0.47772 0.15067 0.09615 0.0
H1167 H 0.50371 0.17489 0.05018 0.0
H1168 H 0.50824 0.09321 0.99128 0.0
H1169 H 0.50179 0.11936 0.01218 0.0
H1170 H 0.51401 0.11655 0.07174 0.0
C1171 C 0.48409 0.166 0.09738 0.0
C1172 C 0.50613 0.16232 0.05509 0.0
C1173 C 0.48018 0.17897 0.11131 0.0
C1174 C 0.51531 0.09764 0.00545 0.0
C1175 C 0.51173 0.11263 0.01735 0.0
C1176 C 0.51211 0.1294 0.067 0.0
C1177 C 0.49673 0.17274 0.08576 0.0
C1178 C 0.50292 0.15892 0.073 0.0
C1179 C 0.52024 0.11817 0.03598 0.0
C1180 C 0.51509 0.13267 0.04899 0.0
H1181 H 0.50696 0.22102 0.10265 0.0
H1182 H 0.51421 0.1983 0.07861 0.0
H1183 H 0.50418 0.13975 0.09287 0.0
H1184 H 0.54585 0.08675 0.03579 0.0
H1185 H 0.53976 0.1132 0.05658 0.0
C1186 C 0.14436 0.34118 0.34818 0.0
C1187 C 0.12826 0.32801 0.34987 0.0
C1188 C 0.15534 0.33548 0.33576 0.0
C1189 C 0.15766 0.29916 0.29595 0.0
H1190 H 0.20587 0.30693 0.32123 0.0
C1191 C 0.21606 0.26853 0.26957 0.0
C1192 C 0.23104 0.2841 0.26935 0.0
C1193 C 0.20117 0.27201 0.27725 0.0
C1194 C 0.19238 0.30457 0.31413 0.0
H1195 H 0.1099 0.29958 0.33915 0.0
H1196 H 0.12899 0.28971 0.31722 0.0
H1197 H 0.18421 0.31896 0.33806 0.0
H1198 H 0.24192 0.31546 0.27621 0.0
H1199 H 0.21628 0.32129 0.28963 0.0
H1200 H 0.16616 0.28493 0.2719 0.0
C1201 C 0.13327 0.30422 0.32551 0.0
C1202 C 0.18015 0.31166 0.3236 0.0
C1203 C 0.12248 0.30979 0.3381 0.0
C1204 C 0.2306 0.30313 0.27604 0.0
C1205 C 0.21599 0.30653 0.28384 0.0
C1206 C 0.16999 0.29206 0.28642 0.0
C1207 C 0.15007 0.31673 0.32481 0.0
C1208 C 0.16284 0.30936 0.31446 0.0
C1209 C 0.20145 0.29101 0.28491 0.0
C1210 C 0.18747 0.29512 0.29542 0.0
H1211 H 0.1489 0.35531 0.35719 0.0
H1212 H 0.16826 0.34537 0.33523 0.0
H1213 H 0.14427 0.29711 0.28877 0.0
H1214 H 0.2161 0.25374 0.26442 0.0
H1215 H 0.1899 0.25994 0.27802 0.0
C1216 C 0.96948 0.07094 0.19894 0.0
C1217 C 0.95211 0.05927 0.19981 0.0
C1218 C 0.97734 0.07017 0.18213 0.0
C1219 C 0.97289 0.03839 0.13358 0.0
H1220 H 0.00906 0.08253 0.125 0.0
C1221 C 0.00605 0.03725 0.06268 0.0
C1222 C 0.02402 0.04839 0.06366 0.0
C1223 C 0.99657 0.03842 0.07852 0.0
C1224 C 0.99917 0.0698 0.12703 0.0
H1225 H 0.92997 0.03683 0.18304 0.0
H1226 H 0.94312 0.03581 0.15389 0.0
H1227 H 0.99469 0.0851 0.15296 0.0
H1228 H 0.04564 0.06953 0.08279 0.0
H1229 H 0.02969 0.07144 0.10945 0.0
H1230 H 0.97748 0.02312 0.10753 0.0
C1231 C 0.95087 0.04583 0.16619 0.0
C1232 C 0.99076 0.07132 0.14341 0.0
C1233 C 0.943 0.04671 0.183 0.0
C1234 C 0.03185 0.06073 0.08103 0.0
C1235 C 0.02249 0.06195 0.09662 0.0
C1236 C 0.98133 0.03686 0.11714 0.0
C1237 C 0.9684 0.05733 0.16528 0.0
C1238 C 0.97737 0.05567 0.14725 0.0
C1239 C 0.00458 0.05088 0.09596 0.0
C1240 C 0.9948 0.05251 0.11341 0.0
H1241 H 0.97742 0.08018 0.2116 0.0
H1242 H 0.99088 0.07915 0.18269 0.0
H1243 H 0.96302 0.02568 0.13568 0.0
H1244 H 0.99939 0.0274 0.04983 0.0
H1245 H 0.98284 0.02958 0.07698 0.0
C1246 C 0.27572 0.66442 0.45853 0.0
C1247 C 0.28555 0.67868 0.47377 0.0
C1248 C 0.26919 0.66984 0.44231 0.0
C1249 C 0.27154 0.71175 0.41864 0.0
H1250 H 0.22017 0.68877 0.40412 0.0
C1251 C 0.23479 0.75079 0.37876 0.0
C1252 C 0.23354 0.74199 0.35997 0.0
C1253 C 0.23501 0.73988 0.39279 0.0
C1254 C 0.23448 0.69522 0.40817 0.0
H1255 H 0.29799 0.70929 0.48353 0.0
H1256 H 0.28709 0.71882 0.45519 0.0
H1257 H 0.23699 0.67538 0.42645 0.0
H1258 H 0.2277 0.7145 0.34084 0.0
H1259 H 0.22847 0.69546 0.36558 0.0
H1260 H 0.26896 0.73196 0.40097 0.0
C1261 C 0.28423 0.70351 0.45561 0.0
C1262 C 0.24416 0.68748 0.42065 0.0
C1263 C 0.29061 0.69811 0.47181 0.0
C1264 C 0.22915 0.72166 0.35528 0.0
C1265 C 0.22941 0.71074 0.36938 0.0
C1266 C 0.26188 0.71959 0.40649 0.0
C1267 C 0.27265 0.68953 0.44115 0.0
C1268 C 0.26276 0.69587 0.42615 0.0
C1269 C 0.23393 0.72014 0.38812 0.0
C1270 C 0.2433 0.71156 0.4014 0.0
H1271 H 0.27142 0.64934 0.45988 0.0
H1272 H 0.26055 0.65878 0.43121 0.0
H1273 H 0.28586 0.71831 0.42239 0.0
H1274 H 0.23809 0.76639 0.38288 0.0
H1275 H 0.23846 0.7473 0.40726 0.0
C1276 C 0.61804 0.01197 0.68082 0.0
C1277 C 0.62172 0.03069 0.69127 0.0
C1278 C 0.61445 0.00908 0.6614 0.0
C1279 C 0.61249 0.0316 0.62007 0.0
H1280 H 0.56156 0.00553 0.61392 0.0
C1281 C 0.56061 0.04471 0.56622 0.0
C1282 C 0.54521 0.0295 0.55885 0.0
C1283 C 0.57327 0.04227 0.57972 0.0
C1284 C 0.57584 0.01228 0.61502 0.0
H1285 H 0.62707 0.06133 0.6901 0.0
H1286 H 0.6205 0.05618 0.65623 0.0
H1287 H 0.58064 0.00486 0.64172 0.0
H1288 H 0.53115 0.99961 0.55851 0.0
H1289 H 0.55357 0.99495 0.5817 0.0
H1290 H 0.60749 0.03951 0.59346 0.0
C1291 C 0.62033 0.0438 0.66288 0.0
C1292 C 0.58676 0.01186 0.63095 0.0
C1293 C 0.62364 0.04666 0.68221 0.0
C1294 C 0.54276 0.01163 0.56453 0.0
C1295 C 0.55562 0.00901 0.57767 0.0
C1296 C 0.60157 0.0317 0.60382 0.0
C1297 C 0.61483 0.02493 0.65248 0.0
C1298 C 0.60501 0.02183 0.63376 0.0
C1299 C 0.5708 0.02441 0.58567 0.0
C1300 C 0.58305 0.02239 0.6014 0.0
H1301 H 0.61686 0.99958 0.68765 0.0
H1302 H 0.61008 0.99442 0.65345 0.0
H1303 H 0.62653 0.03969 0.6223 0.0
H1304 H 0.56272 0.05856 0.56172 0.0
H1305 H 0.58464 0.0545 0.58584 0.0
C1306 C 0.2907 0.32305 0.97003 0.0
C1307 C 0.28574 0.33995 0.97637 0.0
C1308 C 0.2888 0.31579 0.95096 0.0
C1309 C 0.26996 0.31811 0.90376 0.0
H1310 H 0.31711 0.31623 0.89184 0.0
C1311 C 0.28556 0.31465 0.82865 0.0
C1312 C 0.2961 0.30255 0.82251 0.0
C1313 C 0.284 0.31886 0.84753 0.0
C1314 C 0.30379 0.31635 0.89488 0.0
H1315 H 0.27308 0.36127 0.96794 0.0
H1316 H 0.26981 0.34851 0.9344 0.0
H1317 H 0.31227 0.32184 0.92436 0.0
H1318 H 0.31366 0.28569 0.83102 0.0
H1319 H 0.31056 0.29253 0.86419 0.0
H1320 H 0.26137 0.31238 0.87428 0.0
C1321 C 0.27521 0.34098 0.94425 0.0
C1322 C 0.30102 0.31957 0.9135 0.0
C1323 C 0.27709 0.34827 0.96342 0.0
C1324 C 0.30564 0.29525 0.83556 0.0
C1325 C 0.30381 0.29917 0.8545 0.0
C1326 C 0.27265 0.31461 0.88508 0.0
C1327 C 0.28191 0.32529 0.93792 0.0
C1328 C 0.28413 0.32058 0.9181 0.0
C1329 C 0.29266 0.3107 0.86061 0.0
C1330 C 0.28966 0.31389 0.88044 0.0
H1331 H 0.29709 0.31611 0.97974 0.0
H1332 H 0.29371 0.30341 0.94636 0.0
H1333 H 0.25682 0.3188 0.90702 0.0
H1334 H 0.2782 0.32056 0.81875 0.0
H1335 H 0.27576 0.32827 0.85181 0.0
C1336 C 0.97665 0.06008 0.31067 0.0
C1337 C 0.95961 0.06332 0.3069 0.0
C1338 C 0.98384 0.05881 0.32875 0.0
C1339 C 0.97845 0.06713 0.3803 0.0
H1340 H 0.00754 0.03126 0.38238 0.0
C1341 C 0.01539 0.0591 0.45201 0.0
C1342 C 0.01797 0.04096 0.4542 0.0
C1343 C 0.00841 0.06235 0.43452 0.0
C1344 C 0.99935 0.04125 0.3823 0.0
H1345 H 0.93717 0.06842 0.3202 0.0
H1346 H 0.94969 0.06632 0.35185 0.0
H1347 H 0.99507 0.03605 0.3523 0.0
H1348 H 0.01509 0.01207 0.43893 0.0
H1349 H 0.00298 0.01756 0.4088 0.0
H1350 H 0.98239 0.0719 0.41041 0.0
C1351 C 0.95763 0.06483 0.34063 0.0
C1352 C 0.99231 0.04428 0.36477 0.0
C1353 C 0.95039 0.06617 0.32235 0.0
C1354 C 0.01339 0.02626 0.43807 0.0
C1355 C 0.00649 0.02952 0.42055 0.0
C1356 C 0.98553 0.06411 0.39789 0.0
C1357 C 0.97434 0.06056 0.34413 0.0
C1358 C 0.98172 0.05735 0.36328 0.0
C1359 C 0.00375 0.04763 0.41832 0.0
C1360 C 0.99615 0.05107 0.39934 0.0
H1361 H 0.98438 0.05788 0.29936 0.0
H1362 H 0.99693 0.05618 0.33053 0.0
H1363 H 0.97055 0.07741 0.38013 0.0
H1364 H 0.01868 0.0709 0.46393 0.0
H1365 H 0.00691 0.07662 0.43372 0.0
C1366 C 0.27942 0.67803 0.58442 0.0
C1367 C 0.27184 0.6838 0.56888 0.0
C1368 C 0.2806 0.68872 0.60227 0.0
C1369 C 0.26321 0.72661 0.62813 0.0
H1370 H 0.30524 0.73286 0.66417 0.0
C1371 C 0.28863 0.78286 0.69818 0.0
C1372 C 0.29035 0.77373 0.71355 0.0
C1373 C 0.28446 0.77185 0.68009 0.0
C1374 C 0.29347 0.73118 0.65414 0.0
H1375 H 0.26001 0.70515 0.55922 0.0
H1376 H 0.26307 0.72452 0.59017 0.0
H1377 H 0.30226 0.7133 0.63323 0.0
H1378 H 0.28839 0.74611 0.72241 0.0
H1379 H 0.2816 0.72716 0.69088 0.0
H1380 H 0.25491 0.74521 0.64914 0.0
C1381 C 0.26734 0.71137 0.58889 0.0
C1382 C 0.29165 0.71986 0.63656 0.0
C1383 C 0.26572 0.70041 0.57118 0.0
C1384 C 0.28723 0.75352 0.71076 0.0
C1385 C 0.28335 0.74266 0.6928 0.0
C1386 C 0.26524 0.73826 0.64564 0.0
C1387 C 0.27468 0.70558 0.60464 0.0
C1388 C 0.27646 0.71738 0.62339 0.0
C1389 C 0.28227 0.75181 0.67742 0.0
C1390 C 0.28032 0.74045 0.65869 0.0
H1391 H 0.28406 0.6651 0.58279 0.0
H1392 H 0.28603 0.6837 0.61417 0.0
H1393 H 0.25119 0.72469 0.6184 0.0
H1394 H 0.29087 0.79841 0.70013 0.0
H1395 H 0.28365 0.77902 0.66821 0.0
C1396 C 0.60793 0.04567 0.79397 0.0
C1397 C 0.62036 0.03481 0.79145 0.0
C1398 C 0.60855 0.05727 0.81112 0.0
C1399 C 0.62406 0.06384 0.86091 0.0
H1400 H 0.61293 0.11306 0.86143 0.0
C1401 C 0.60442 0.0932 0.92516 0.0
C1402 C 0.58589 0.09011 0.92022 0.0
C1403 C 0.61596 0.09787 0.91212 0.0
C1404 C 0.61649 0.09959 0.86153 0.0
H1405 H 0.64275 0.02693 0.80499 0.0
H1406 H 0.64336 0.04669 0.83548 0.0
H1407 H 0.61805 0.09518 0.83216 0.0
H1408 H 0.56527 0.09331 0.89985 0.0
H1409 H 0.58524 0.10091 0.87687 0.0
H1410 H 0.62163 0.06756 0.88987 0.0
C1411 C 0.63323 0.0463 0.82405 0.0
C1412 C 0.61918 0.08923 0.84481 0.0
C1413 C 0.63266 0.03469 0.80675 0.0
C1414 C 0.57953 0.09544 0.90379 0.0
C1415 C 0.59104 0.09988 0.89065 0.0
C1416 C 0.62158 0.07424 0.87759 0.0
C1417 C 0.62152 0.05814 0.82619 0.0
C1418 C 0.62218 0.07085 0.84424 0.0
C1419 C 0.60887 0.09893 0.89401 0.0
C1420 C 0.61704 0.09183 0.87793 0.0
H1421 H 0.59854 0.04627 0.78224 0.0
H1422 H 0.59902 0.0658 0.81244 0.0
H1423 H 0.62615 0.04966 0.8609 0.0
H1424 H 0.60957 0.08942 0.93798 0.0
H1425 H 0.62979 0.09756 0.91515 0.0
C1426 C 0.29309 0.33157 0.07701 0.0
C1427 C 0.2902 0.34953 0.07502 0.0
C1428 C 0.2896 0.32389 0.093 0.0
C1429 C 0.26726 0.32817 0.13547 0.0
H1430 H 0.30265 0.30389 0.15416 0.0
C1431 C 0.25916 0.28741 0.19773 0.0
C1432 C 0.27464 0.29002 0.21052 0.0
C1433 C 0.26036 0.2949 0.18123 0.0
C1434 C 0.29272 0.31076 0.14924 0.0
H1435 H 0.28056 0.37313 0.08789 0.0
H1436 H 0.2748 0.35988 0.11636 0.0
H1437 H 0.30558 0.31663 0.12545 0.0
H1438 H 0.30349 0.30251 0.21624 0.0
H1439 H 0.30563 0.31559 0.18746 0.0
H1440 H 0.25473 0.32272 0.15969 0.0
C1441 C 0.27961 0.35164 0.10533 0.0
C1442 C 0.29424 0.31784 0.13259 0.0
C1443 C 0.28293 0.35927 0.08908 0.0
C1444 C 0.29132 0.30038 0.20665 0.0
C1445 C 0.29256 0.30771 0.19009 0.0
C1446 C 0.26577 0.32111 0.1522 0.0
C1447 C 0.28333 0.33406 0.10764 0.0
C1448 C 0.28152 0.32661 0.12545 0.0
C1449 C 0.2771 0.30498 0.17713 0.0
C1450 C 0.27852 0.31238 0.1593 0.0
H1451 H 0.29835 0.32348 0.06624 0.0
H1452 H 0.29208 0.31004 0.09398 0.0
H1453 H 0.25714 0.33468 0.1303 0.0
H1454 H 0.24615 0.27942 0.2004 0.0
H1455 H 0.24824 0.29237 0.17147 0.0
C1456 C 0.25687 0.95072 0.02812 0.0
C1457 C 0.2615 0.95095 0.01003 0.0
C1458 C 0.2435 0.9589 0.03371 0.0
C1459 C 0.20188 0.96303 0.01454 0.0
H1460 H 0.20489 0.00413 0.05649 0.0
C1461 C 0.14935 0.00362 0.01876 0.0
C1462 C 0.14473 0.01046 0.03606 0.0
C1463 C 0.16293 0.9945 0.01795 0.0
C1464 C 0.20378 0.99231 0.04503 0.0
H1465 H 0.25684 0.96067 0.98392 0.0
H1466 H 0.23262 0.97447 0.9935 0.0
H1467 H 0.23177 0.99381 0.05041 0.0
H1468 H 0.15021 0.01279 0.06612 0.0
H1469 H 0.17414 0.9964 0.0647 0.0
H1470 H 0.17401 0.96111 0.00917 0.0
C1471 C 0.23957 0.96811 0.00332 0.0
C1472 C 0.21914 0.98664 0.04145 0.0
C1473 C 0.25329 0.96029 0.99786 0.0
C1474 C 0.15366 0.00766 0.05262 0.0
C1475 C 0.16729 0.99835 0.05181 0.0
C1476 C 0.18652 0.96839 0.01829 0.0
C1477 C 0.2344 0.96704 0.02112 0.0
C1478 C 0.21831 0.97247 0.02579 0.0
C1479 C 0.17212 0.99187 0.03442 0.0
C1480 C 0.18747 0.9836 0.0331 0.0
H1481 H 0.26336 0.94383 0.03781 0.0
H1482 H 0.23963 0.95798 0.04747 0.0
H1483 H 0.20098 0.95164 0.00271 0.0
H1484 H 0.14293 0.006 0.00583 0.0
H1485 H 0.16668 0.99018 0.00438 0.0
C1486 C 0.71626 0.66007 0.01445 0.0
C1487 C 0.72738 0.65576 0.00136 0.0
C1488 C 0.69987 0.6469 0.01511 0.0
C1489 C 0.67197 0.59579 0.9974 0.0
H1490 H 0.63329 0.61822 0.00937 0.0
C1491 C 0.59697 0.55159 0.98497 0.0
C1492 C 0.58688 0.55454 0.99956 0.0
C1493 C 0.61439 0.56345 0.98569 0.0
C1494 C 0.64398 0.61172 0.00618 0.0
H1495 H 0.73032 0.63415 0.97889 0.0
H1496 H 0.7012 0.61129 0.97938 0.0
H1497 H 0.66309 0.63933 0.00944 0.0
H1498 H 0.58711 0.57231 0.02631 0.0
H1499 H 0.61745 0.59339 0.02737 0.0
H1500 H 0.65244 0.56814 0.99349 0.0
C1501 C 0.70534 0.62465 0.98957 0.0
C1502 C 0.66117 0.62383 0.0063 0.0
C1503 C 0.72203 0.63773 0.98921 0.0
C1504 C 0.59451 0.56976 0.01481 0.0
C1505 C 0.61187 0.58182 0.01541 0.0
C1506 C 0.65467 0.58368 0.99702 0.0
C1507 C 0.69386 0.62921 0.00233 0.0
C1508 C 0.67549 0.61608 0.00203 0.0
C1509 C 0.62205 0.57873 0.0009 0.0
C1510 C 0.64049 0.59152 0.00146 0.0
H1511 H 0.72019 0.6738 0.02414 0.0
H1512 H 0.69183 0.65077 0.02558 0.0
H1513 H 0.6826 0.5892 0.99429 0.0
H1514 H 0.59147 0.53996 0.97304 0.0
H1515 H 0.62179 0.56082 0.97421 0.0
C1516 C 0.69308 0.45149 0.25835 0.0
C1517 C 0.68198 0.45294 0.27249 0.0
C1518 C 0.70254 0.43684 0.2562 0.0
C1519 C 0.70782 0.39088 0.276 0.0
H1520 H 0.7448 0.39239 0.24412 0.0
C1521 C 0.74247 0.32656 0.26446 0.0
C1522 C 0.76069 0.3304 0.26161 0.0
C1523 C 0.73298 0.34105 0.26495 0.0
C1524 C 0.73463 0.39162 0.2533 0.0
H1525 H 0.67299 0.4393 0.29555 0.0
H1526 H 0.68918 0.4153 0.29246 0.0
H1527 H 0.72922 0.41763 0.24657 0.0
H1528 H 0.78264 0.35333 0.25651 0.0
H1529 H 0.76632 0.37805 0.25697 0.0
H1530 H 0.71351 0.3651 0.28296 0.0
C1531 C 0.69057 0.42476 0.28235 0.0
C1532 C 0.72534 0.40634 0.25462 0.0
C1533 C 0.68111 0.4391 0.28433 0.0
C1534 C 0.76875 0.34943 0.25884 0.0
C1535 C 0.75919 0.36381 0.25901 0.0
C1536 C 0.71709 0.37627 0.27468 0.0
C1537 C 0.70155 0.42285 0.26814 0.0
C1538 C 0.71164 0.40661 0.26616 0.0
C1539 C 0.74105 0.36018 0.26231 0.0
C1540 C 0.73084 0.37613 0.26336 0.0
H1541 H 0.69434 0.46154 0.24872 0.0
H1542 H 0.71049 0.43652 0.24489 0.0
H1543 H 0.69743 0.38941 0.28486 0.0
H1544 H 0.73549 0.31232 0.26667 0.0
H1545 H 0.7191 0.33703 0.26727 0.0
C1546 C 0.84166 0.47472 0.51999 0.0
C1547 C 0.83792 0.46389 0.53413 0.0
C1548 C 0.85947 0.48202 0.51747 0.0
C1549 C 0.90643 0.48257 0.53586 0.0
H1550 H 0.91003 0.47775 0.48279 0.0
C1551 C 0.96752 0.52205 0.51329 0.0
C1552 C 0.97553 0.51363 0.49918 0.0
C1553 C 0.95075 0.5124 0.51658 0.0
C1554 C 0.9091 0.47847 0.49757 0.0
H1555 H 0.84882 0.45824 0.56038 0.0
H1556 H 0.87952 0.46981 0.5558 0.0
H1557 H 0.8806 0.47166 0.49298 0.0
H1558 H 0.97203 0.48947 0.47629 0.0
H1559 H 0.94199 0.47237 0.4821 0.0
H1560 H 0.93489 0.48824 0.54023 0.0
C1561 C 0.86938 0.47215 0.54592 0.0
C1562 C 0.89233 0.4757 0.50354 0.0
C1563 C 0.85162 0.46567 0.54877 0.0
C1564 C 0.96601 0.49607 0.48738 0.0
C1565 C 0.94904 0.48627 0.49075 0.0
C1566 C 0.92301 0.48444 0.52984 0.0
C1567 C 0.87332 0.47851 0.52917 0.0
C1568 C 0.89093 0.47915 0.52283 0.0
C1569 C 0.94173 0.49412 0.50589 0.0
C1570 C 0.92453 0.4841 0.51085 0.0
H1571 H 0.83116 0.47451 0.50901 0.0
H1572 H 0.86214 0.48847 0.50527 0.0
H1573 H 0.90613 0.48501 0.55077 0.0
H1574 H 0.97447 0.53581 0.52227 0.0
H1575 H 0.94497 0.51913 0.5278 0.0
C1576 C 0.403 0.08348 0.26283 0.0
C1577 C 0.39521 0.06338 0.25864 0.0
C1578 C 0.39274 0.09609 0.25961 0.0
C1579 C 0.35309 0.09954 0.23104 0.0
H1580 H 0.35713 0.14459 0.26909 0.0
C1581 C 0.30818 0.15174 0.22807 0.0
C1582 C 0.31651 0.17155 0.23479 0.0
C1583 C 0.31786 0.13814 0.22917 0.0
C1584 C 0.35607 0.13221 0.25824 0.0
H1585 H 0.37061 0.04064 0.2477 0.0
H1586 H 0.35268 0.06284 0.24176 0.0
H1587 H 0.37315 0.12102 0.27554 0.0
H1588 H 0.34187 0.1928 0.24637 0.0
H1589 H 0.35874 0.16898 0.24846 0.0
H1590 H 0.33599 0.11083 0.21373 0.0
C1591 C 0.36673 0.06875 0.24759 0.0
C1592 C 0.36515 0.11871 0.26197 0.0
C1593 C 0.37696 0.0561 0.25105 0.0
C1594 C 0.33498 0.17759 0.24151 0.0
C1595 C 0.34463 0.16399 0.2427 0.0
C1596 C 0.34399 0.11311 0.22729 0.0
C1597 C 0.37454 0.08885 0.25193 0.0
C1598 C 0.36392 0.10239 0.24833 0.0
C1599 C 0.33601 0.14412 0.23709 0.0
C1600 C 0.34558 0.12967 0.2408 0.0
H1601 H 0.417 0.08948 0.26881 0.0
H1602 H 0.3991 0.11155 0.26292 0.0
H1603 H 0.35204 0.08712 0.22026 0.0
H1604 H 0.29394 0.1466 0.22294 0.0
H1605 H 0.31089 0.1229 0.22479 0.0
C1606 C 0.346 0.16765 0.49209 0.0
C1607 C 0.32988 0.1637 0.49976 0.0
C1608 C 0.35919 0.15849 0.49645 0.0
C1609 C 0.37511 0.13194 0.53113 0.0
H1610 H 0.40155 0.1171 0.49167 0.0
C1611 C 0.42388 0.08217 0.53254 0.0
C1612 C 0.43977 0.0885 0.52479 0.0
C1613 C 0.41101 0.0926 0.53257 0.0
C1614 C 0.3944 0.12134 0.50288 0.0
H1615 H 0.31498 0.14696 0.51812 0.0
H1616 H 0.33801 0.13073 0.5256 0.0
H1617 H 0.3773 0.13148 0.48464 0.0
H1618 H 0.45544 0.11188 0.51303 0.0
H1619 H 0.43282 0.12971 0.51265 0.0
H1620 H 0.39217 0.12111 0.5492 0.0
C1621 C 0.34049 0.14109 0.51632 0.0
C1622 C 0.3805 0.12962 0.49888 0.0
C1623 C 0.32722 0.15025 0.51188 0.0
C1624 C 0.44313 0.10628 0.51856 0.0
C1625 C 0.43023 0.11655 0.51842 0.0
C1626 C 0.38897 0.12338 0.5351 0.0
C1627 C 0.35664 0.14508 0.50861 0.0
C1628 C 0.37082 0.1353 0.51297 0.0
C1629 C 0.41377 0.10942 0.52474 0.0
C1630 C 0.3989 0.11828 0.52103 0.0
H1631 H 0.34852 0.17795 0.48274 0.0
H1632 H 0.37154 0.16218 0.49047 0.0
H1633 H 0.36803 0.13627 0.54236 0.0
H1634 H 0.42084 0.06854 0.53747 0.0
H1635 H 0.39843 0.08683 0.53756 0.0
C1636 C 0.70156 0.57585 0.27908 0.0
C1637 C 0.68445 0.56859 0.2682 0.0
C1638 C 0.71246 0.59481 0.27893 0.0
C1639 C 0.71784 0.63623 0.25171 0.0
H1640 H 0.74477 0.66775 0.29823 0.0
C1641 C 0.75412 0.71954 0.25716 0.0
C1642 C 0.76995 0.72798 0.27006 0.0
C1643 C 0.74365 0.70027 0.25673 0.0
C1644 C 0.73763 0.65925 0.28493 0.0
H1645 H 0.66602 0.57581 0.24809 0.0
H1646 H 0.68471 0.608 0.24764 0.0
H1647 H 0.72826 0.63427 0.29748 0.0
H1648 H 0.78682 0.72223 0.29263 0.0
H1649 H 0.76928 0.68925 0.29164 0.0
H1650 H 0.72729 0.6611 0.23909 0.0
C1651 C 0.68992 0.59934 0.25639 0.0
C1652 C 0.72803 0.63978 0.28454 0.0
C1653 C 0.67904 0.58069 0.25673 0.0
C1654 C 0.77475 0.7165 0.28251 0.0
C1655 C 0.76445 0.69735 0.28202 0.0
C1656 C 0.72756 0.65567 0.25207 0.0
C1657 C 0.70677 0.60705 0.26768 0.0
C1658 C 0.71785 0.6278 0.26794 0.0
C1659 C 0.74863 0.68866 0.26913 0.0
C1660 C 0.73773 0.66771 0.26869 0.0
H1661 H 0.70625 0.56721 0.28822 0.0
H1662 H 0.72537 0.59991 0.28774 0.0
H1663 H 0.71048 0.62769 0.2385 0.0
H1664 H 0.74986 0.72777 0.24731 0.0
H1665 H 0.73154 0.69458 0.24669 0.0
C1666 C 0.90761 0.4608 0.75993 0.0
C1667 C 0.90691 0.47759 0.753 0.0
C1668 C 0.89195 0.44619 0.75942 0.0
C1669 C 0.84463 0.43797 0.76103 0.0
H1670 H 0.84496 0.38418 0.74892 0.0
C1671 C 0.7958 0.35879 0.75935 0.0
C1672 C 0.8033 0.35185 0.77422 0.0
C1673 C 0.8036 0.37739 0.75646 0.0
C1674 C 0.84465 0.39916 0.75211 0.0
H1675 H 0.88936 0.49204 0.73956 0.0
H1676 H 0.86185 0.46607 0.73842 0.0
H1677 H 0.86912 0.40932 0.74129 0.0
H1678 H 0.8232 0.35916 0.79898 0.0
H1679 H 0.83718 0.39171 0.79361 0.0
H1680 H 0.82039 0.42749 0.77267 0.0
C1681 C 0.87458 0.46446 0.74436 0.0
C1682 C 0.85839 0.41346 0.74779 0.0
C1683 C 0.8903 0.47917 0.7449 0.0
C1684 C 0.81727 0.36432 0.78743 0.0
C1685 C 0.82514 0.38289 0.78446 0.0
C1686 C 0.83082 0.42354 0.76546 0.0
C1687 C 0.87531 0.448 0.75185 0.0
C1688 C 0.85886 0.433 0.75284 0.0
C1689 C 0.81888 0.38904 0.76844 0.0
C1690 C 0.8312 0.40421 0.7615 0.0
H1691 H 0.92011 0.45935 0.76666 0.0
H1692 H 0.89278 0.43378 0.76566 0.0
H1693 H 0.84479 0.453 0.76507 0.0
H1694 H 0.78477 0.34937 0.7492 0.0
H1695 H 0.7988 0.38193 0.74394 0.0
C1696 C 0.08434 0.86822 0.0831 0.0
C1697 C 0.07118 0.85348 0.08821 0.0
C1698 C 0.07963 0.88303 0.07559 0.0
C1699 C 0.04357 0.89584 0.04955 0.0
H1700 H 0.07224 0.94835 0.07023 0.0
C1701 C 0.03027 0.96469 0.02574 0.0
C1702 C 0.04554 0.97984 0.02516 0.0
C1703 C 0.03206 0.94825 0.03271 0.0
C1704 C 0.06424 0.93378 0.06411 0.0
H1705 H 0.04269 0.84241 0.08909 0.0
H1706 H 0.03436 0.86849 0.07561 0.0
H1707 H 0.07746 0.92172 0.08429 0.0
H1708 H 0.07468 0.98904 0.03037 0.0
H1709 H 0.07777 0.96042 0.04209 0.0
H1710 H 0.03061 0.90799 0.02904 0.0
C1711 C 0.04834 0.86854 0.07767 0.0
C1712 C 0.06716 0.91854 0.07226 0.0
C1713 C 0.05312 0.85379 0.08555 0.0
C1714 C 0.06262 0.97781 0.03086 0.0
C1715 C 0.06439 0.96141 0.0377 0.0
C1716 C 0.0407 0.91117 0.04125 0.0
C1717 C 0.06162 0.88334 0.07275 0.0
C1718 C 0.05708 0.89941 0.06492 0.0
C1719 C 0.04914 0.94667 0.03918 0.0
C1720 C 0.05126 0.93028 0.04827 0.0
H1721 H 0.09834 0.86827 0.08487 0.0
H1722 H 0.09011 0.89414 0.07173 0.0
H1723 H 0.03568 0.88117 0.04357 0.0
H1724 H 0.01691 0.96578 0.02143 0.0
H1725 H 0.02005 0.93717 0.03368 0.0
C1726 C 0.93802 0.24611 0.87236 0.0
C1727 C 0.95485 0.25985 0.87665 0.0
C1728 C 0.92367 0.24983 0.86185 0.0
C1729 C 0.91157 0.28516 0.83336 0.0
H1730 H 0.86377 0.26041 0.84293 0.0
C1731 C 0.8458 0.3022 0.80277 0.0
C1732 C 0.83283 0.28552 0.79286 0.0
C1733 C 0.86092 0.30052 0.81396 0.0
C1734 C 0.87705 0.26747 0.84015 0.0
H1735 H 0.96986 0.28841 0.87364 0.0
H1736 H 0.94474 0.29545 0.85609 0.0
H1737 H 0.88968 0.25459 0.85993 0.0
H1738 H 0.82514 0.25415 0.7873 0.0
H1739 H 0.85092 0.25124 0.80732 0.0
H1740 H 0.89856 0.29853 0.81395 0.0
C1741 C 0.94262 0.28135 0.85998 0.0
C1742 C 0.89201 0.26395 0.84973 0.0
C1743 C 0.95713 0.27734 0.87003 0.0
C1744 C 0.83491 0.26725 0.79483 0.0
C1745 C 0.84967 0.26558 0.80631 0.0
C1746 C 0.89656 0.289 0.82407 0.0
C1747 C 0.92551 0.26778 0.85597 0.0
C1748 C 0.90956 0.27238 0.84623 0.0
C1749 C 0.86301 0.28215 0.81579 0.0
C1750 C 0.87911 0.27991 0.8271 0.0
H1751 H 0.93586 0.23261 0.87752 0.0
H1752 H 0.91104 0.23865 0.85865 0.0
H1753 H 0.92468 0.29185 0.82999 0.0
H1754 H 0.84461 0.31645 0.80131 0.0
H1755 H 0.87099 0.31354 0.82116 0.0
C1756 C 0.55223 0.24206 0.56129 0.0
C1757 C 0.55698 0.24928 0.58057 0.0
C1758 C 0.54836 0.22221 0.5545 0.0
C1759 C 0.5648 0.18338 0.5624 0.0
H1760 H 0.52133 0.14819 0.53324 0.0
C1761 C 0.55832 0.10256 0.53857 0.0
C1762 C 0.54699 0.09276 0.52195 0.0
C1763 C 0.55932 0.12182 0.54546 0.0
C1764 C 0.5337 0.15792 0.54103 0.0
H1765 H 0.56095 0.24175 0.60795 0.0
H1766 H 0.5549 0.207 0.5959 0.0
H1767 H 0.5216 0.18129 0.54631 0.0
H1768 H 0.5287 0.09533 0.49882 0.0
H1769 H 0.53132 0.12943 0.51015 0.0
H1770 H 0.57735 0.16071 0.55646 0.0
C1771 C 0.5537 0.21664 0.5862 0.0
C1772 C 0.53371 0.17673 0.54868 0.0
C1773 C 0.55704 0.2364 0.59304 0.0
C1774 C 0.53745 0.10269 0.51174 0.0
C1775 C 0.53879 0.12211 0.51838 0.0
C1776 C 0.56494 0.16476 0.55441 0.0
C1777 C 0.54973 0.20954 0.56688 0.0
C1778 C 0.54923 0.18947 0.55948 0.0
C1779 C 0.54934 0.13174 0.5356 0.0
C1780 C 0.54937 0.15177 0.54366 0.0
H1781 H 0.55222 0.25182 0.55148 0.0
H1782 H 0.54542 0.2169 0.53952 0.0
H1783 H 0.57699 0.19322 0.57049 0.0
H1784 H 0.56561 0.09506 0.54682 0.0
H1785 H 0.56733 0.12859 0.55891 0.0
C1786 C 0.57034 0.80009 0.38533 0.0
C1787 C 0.55731 0.78211 0.38293 0.0
C1788 C 0.58634 0.80167 0.37766 0.0
C1789 C 0.6057 0.77709 0.34022 0.0
H1790 H 0.65159 0.80902 0.36743 0.0
C1791 C 0.67181 0.77257 0.31405 0.0
C1792 C 0.68527 0.78982 0.31458 0.0
C1793 C 0.65677 0.77266 0.32299 0.0
C1794 C 0.63885 0.80024 0.35958 0.0
H1795 H 0.55109 0.75162 0.37077 0.0
H1796 H 0.57897 0.75437 0.35727 0.0
H1797 H 0.62428 0.8068 0.38206 0.0
H1798 H 0.69358 0.82073 0.32527 0.0
H1799 H 0.66711 0.82092 0.34108 0.0
H1800 H 0.62013 0.77048 0.31778 0.0
C1801 C 0.57673 0.76731 0.36498 0.0
C1802 C 0.62319 0.79892 0.36796 0.0
C1803 C 0.56075 0.7657 0.37277 0.0
C1804 C 0.6834 0.80722 0.32454 0.0
C1805 C 0.66832 0.80729 0.33368 0.0
C1806 C 0.62128 0.7784 0.33187 0.0
C1807 C 0.5897 0.78534 0.36726 0.0
C1808 C 0.60644 0.78714 0.35843 0.0
C1809 C 0.65469 0.79 0.33277 0.0
C1810 C 0.63809 0.78978 0.3415 0.0
H1811 H 0.56824 0.81304 0.3932 0.0
H1812 H 0.59593 0.81579 0.37958 0.0
H1813 H 0.59301 0.76828 0.33228 0.0
H1814 H 0.67269 0.75894 0.30634 0.0
H1815 H 0.64671 0.75905 0.32222 0.0
C1816 C 0.07626 0.27268 0.44063 0.0
C1817 C 0.08239 0.27496 0.42345 0.0
C1818 C 0.06872 0.25429 0.44412 0.0
C1819 C 0.06445 0.20287 0.43049 0.0
H1820 H 0.01944 0.19773 0.45066 0.0
C1821 C 0.03089 0.13337 0.45463 0.0
C1822 C 0.02826 0.13715 0.47346 0.0
C1823 C 0.03333 0.14813 0.44417 0.0
C1824 C 0.03192 0.19892 0.4449 0.0
H1825 H 0.08712 0.25989 0.3972 0.0
H1826 H 0.07423 0.22752 0.40357 0.0
H1827 H 0.03448 0.22827 0.44194 0.0
H1828 H 0.0246 0.15883 0.49559 0.0
H1829 H 0.02872 0.1844 0.47741 0.0
H1830 H 0.06237 0.17387 0.43425 0.0
C1831 C 0.07502 0.24003 0.41414 0.0
C1832 C 0.04056 0.21638 0.44003 0.0
C1833 C 0.08255 0.25852 0.4106 0.0
C1834 C 0.02646 0.1554 0.48108 0.0
C1835 C 0.02882 0.17009 0.47063 0.0
C1836 C 0.05584 0.18542 0.43544 0.0
C1837 C 0.06732 0.23787 0.43056 0.0
C1838 C 0.05721 0.21869 0.43342 0.0
C1839 C 0.03306 0.16682 0.45237 0.0
C1840 C 0.03982 0.18352 0.44329 0.0
H1841 H 0.07614 0.28514 0.45085 0.0
H1842 H 0.06335 0.25294 0.45714 0.0
H1843 H 0.07726 0.20434 0.42538 0.0
H1844 H 0.03194 0.11928 0.44828 0.0
H1845 H 0.03628 0.14518 0.43 0.0
C1846 C 0.55374 0.24868 0.17922 0.0
C1847 C 0.54296 0.26117 0.18289 0.0
C1848 C 0.57226 0.2558 0.18249 0.0
C1849 C 0.60506 0.2894 0.21606 0.0
H1850 H 0.63596 0.26645 0.18692 0.0
C1851 C 0.67444 0.28067 0.24506 0.0
C1852 C 0.67526 0.26156 0.23991 0.0
C1853 C 0.65993 0.28628 0.23737 0.0
C1854 C 0.62757 0.27321 0.19511 0.0
H1855 H 0.54266 0.29093 0.19174 0.0
H1856 H 0.5756 0.30339 0.19885 0.0
H1857 H 0.60751 0.26869 0.17149 0.0
H1858 H 0.66185 0.23308 0.22371 0.0
H1859 H 0.63619 0.24277 0.21041 0.0
H1860 H 0.62456 0.29254 0.23993 0.0
C1861 C 0.56956 0.28817 0.19307 0.0
C1862 C 0.61146 0.27467 0.18629 0.0
C1863 C 0.55089 0.28106 0.18929 0.0
C1864 C 0.66118 0.24782 0.22791 0.0
C1865 C 0.64677 0.25344 0.22014 0.0
C1866 C 0.62125 0.28804 0.22488 0.0
C1867 C 0.58033 0.2755 0.18984 0.0
C1868 C 0.59957 0.2815 0.19697 0.0
C1869 C 0.64641 0.27285 0.22431 0.0
C1870 C 0.63198 0.27883 0.21461 0.0
H1871 H 0.54783 0.23339 0.17365 0.0
H1872 H 0.58024 0.24566 0.18015 0.0
H1873 H 0.59603 0.29464 0.22457 0.0
H1874 H 0.68548 0.29142 0.25413 0.0
H1875 H 0.65971 0.30126 0.24084 0.0
C1876 C 0.57758 0.88975 0.8971 0.0
C1877 C 0.58978 0.88179 0.90638 0.0
C1878 C 0.57428 0.9067 0.90574 0.0
C1879 C 0.57137 0.92464 0.95308 0.0
H1880 H 0.55794 0.96714 0.93489 0.0
C1881 C 0.55143 0.98259 0.00112 0.0
C1882 C 0.53759 0.98984 0.99421 0.0
C1883 C 0.55781 0.96985 0.98925 0.0
C1884 C 0.56143 0.95515 0.94 0.0
H1885 H 0.61019 0.88662 0.93034 0.0
H1886 H 0.6045 0.91644 0.94544 0.0
H1887 H 0.57257 0.94702 0.91526 0.0
H1888 H 0.51901 0.98916 0.96982 0.0
H1889 H 0.53004 0.9664 0.94895 0.0
H1890 H 0.55983 0.93217 0.97748 0.0
C1891 C 0.59728 0.90939 0.93168 0.0
C1892 C 0.56997 0.94386 0.9289 0.0
C1893 C 0.60064 0.89245 0.92299 0.0
C1894 C 0.52975 0.98371 0.97539 0.0
C1895 C 0.53613 0.97087 0.96347 0.0
C1896 C 0.56275 0.93575 0.96405 0.0
C1897 C 0.58317 0.91576 0.92373 0.0
C1898 C 0.57526 0.92874 0.93554 0.0
C1899 C 0.55037 0.96403 0.97029 0.0
C1900 C 0.55796 0.95129 0.95776 0.0
H1901 H 0.56923 0.88179 0.88412 0.0
H1902 H 0.56342 0.91141 0.89928 0.0
H1903 H 0.57467 0.91255 0.9582 0.0
H1904 H 0.55773 0.98722 0.01557 0.0
H1905 H 0.56897 0.96503 0.99483 0.0
C1906 C 0.93795 0.73246 0.69023 0.0
C1907 C 0.94483 0.74355 0.67712 0.0
C1908 C 0.92395 0.73623 0.69912 0.0
C1909 C 0.88856 0.76072 0.69774 0.0
H1910 H 0.89813 0.76731 0.75192 0.0
C1911 C 0.84594 0.79328 0.744 0.0
C1912 C 0.83637 0.77946 0.75344 0.0
C1913 C 0.86117 0.79071 0.73682 0.0
C1914 C 0.89543 0.76553 0.73683 0.0
H1915 H 0.94172 0.7662 0.66189 0.0
H1916 H 0.91729 0.77298 0.67775 0.0
H1917 H 0.91925 0.75695 0.73278 0.0
H1918 H 0.83598 0.75346 0.76472 0.0
H1919 H 0.86304 0.74913 0.7523 0.0
H1920 H 0.86481 0.76945 0.70186 0.0
C1921 C 0.92277 0.76142 0.68108 0.0
C1922 C 0.9073 0.75947 0.72592 0.0
C1923 C 0.9368 0.75764 0.67216 0.0
C1924 C 0.84311 0.76411 0.75725 0.0
C1925 C 0.85856 0.76172 0.7503 0.0
C1926 C 0.87679 0.76692 0.70867 0.0
C1927 C 0.91669 0.75112 0.69502 0.0
C1928 C 0.90386 0.75696 0.70633 0.0
C1929 C 0.86707 0.77451 0.73933 0.0
C1930 C 0.88021 0.76932 0.72821 0.0
H1931 H 0.94371 0.72126 0.69408 0.0
H1932 H 0.91914 0.72789 0.70959 0.0
H1933 H 0.88565 0.75868 0.68264 0.0
H1934 H 0.84098 0.80528 0.74095 0.0
H1935 H 0.86775 0.8007 0.7284 0.0
C1936 C 0.13007 0.003 0.83508 0.0
C1937 C 0.12311 0.01043 0.82005 0.0
C1938 C 0.12291 0.00385 0.85249 0.0
C1939 C 0.09285 0.02944 0.88003 0.0
H1940 H 0.09468 0.99353 0.91371 0.0
C1941 C 0.05266 0.02901 0.94431 0.0
C1942 C 0.05907 0.02423 0.96123 0.0
C1943 C 0.06135 0.02756 0.92819 0.0
C1944 C 0.09414 0.00391 0.90466 0.0
H1945 H 0.10212 0.02373 0.81225 0.0
H1946 H 0.08989 0.02474 0.84128 0.0
H1947 H 0.10744 0.98991 0.88434 0.0
H1948 H 0.07999 0.0134 0.97363 0.0
H1949 H 0.09524 0.01079 0.94556 0.0
H1950 H 0.07954 0.04338 0.9001 0.0
C1951 C 0.10127 0.01883 0.8403 0.0
C1952 C 0.10156 1.0018 0.88755 0.0
C1953 C 0.10835 0.01802 0.82318 0.0
C1954 C 0.07477 0.01781 0.96123 0.0
C1955 C 0.0834 0.01601 0.94485 0.0
C1956 C 0.0854 0.03145 0.89696 0.0
C1957 C 0.1085 0.0122 0.8557 0.0
C1958 C 0.10101 0.01444 0.87463 0.0
C1959 C 0.07685 0.02079 0.92783 0.0
C1960 C 0.08569 0.01872 0.90977 0.0
H1961 H 0.14137 0.99703 0.83364 0.0
H1962 H 0.12908 0.99841 0.86364 0.0
H1963 H 0.09236 0.04005 0.87126 0.0
H1964 H 0.04044 0.03358 0.94335 0.0
H1965 H 0.05539 0.03116 0.91569 0.0
C1966 C 0.81133 0.36492 0.5503 0.0
C1967 C 0.80065 0.37741 0.5473 0.0
C1968 C 0.81678 0.3629 0.56844 0.0
C1969 C 0.80943 0.37376 0.61766 0.0
H1970 H 0.86008 0.3767 0.62783 0.0
C1971 C 0.8356 0.37052 0.68949 0.0
C1972 C 0.83929 0.35246 0.6882 0.0
C1973 C 0.83694 0.38004 0.67431 0.0
C1974 C 0.84601 0.3762 0.62518 0.0
H1975 H 0.78541 0.39558 0.56058 0.0
H1976 H 0.795 0.39218 0.59209 0.0
H1977 H 0.84673 0.37641 0.59603 0.0
H1978 H 0.85083 0.33227 0.67192 0.0
H1979 H 0.8533 0.34891 0.64568 0.0
H1980 H 0.80856 0.3732 0.64661 0.0
C1981 C 0.79932 0.38406 0.58057 0.0
C1982 C 0.83828 0.37567 0.60699 0.0
C1983 C 0.79377 0.38596 0.56246 0.0
C1984 C 0.84767 0.34605 0.67324 0.0
C1985 C 0.8491 0.35563 0.65813 0.0
C1986 C 0.81717 0.37448 0.6358 0.0
C1987 C 0.81158 0.3733 0.58377 0.0
C1988 C 0.81983 0.37406 0.60303 0.0
C1989 C 0.84211 0.37159 0.65789 0.0
C1990 C 0.83545 0.37537 0.63968 0.0
H1991 H 0.81665 0.35794 0.53884 0.0
H1992 H 0.82575 0.35397 0.57051 0.0
H1993 H 0.79517 0.37233 0.61501 0.0
H1994 H 0.82964 0.37604 0.7012 0.0
H1995 H 0.83188 0.39264 0.67455 0.0
C1996 C 0.44291 0.00573 0.33079 0.0
C1997 C 0.44206 0.02367 0.32647 0.0
C1998 C 0.44809 0.00435 0.34905 0.0
C1999 C 0.4602 0.02904 0.39774 0.0
H2000 H 0.50402 0.01336 0.39329 0.0
C2001 C 0.51972 0.04645 0.45691 0.0
C2002 C 0.52461 0.03008 0.46078 0.0
C2003 C 0.50762 0.04483 0.44103 0.0
C2004 C 0.49174 0.01758 0.39467 0.0
H2005 H 0.44222 0.05308 0.33764 0.0
H2006 H 0.45124 0.05065 0.37008 0.0
H2007 H 0.48313 0.01056 0.36525 0.0
H2008 H 0.52128 0.9994 0.45185 0.0
H2009 H 0.50066 0.99671 0.42337 0.0
H2010 H 0.46924 0.03654 0.42725 0.0
C2011 C 0.44834 0.03785 0.35926 0.0
C2012 C 0.47977 0.01587 0.37875 0.0
C2013 C 0.44322 0.03928 0.34081 0.0
C2014 C 0.51768 0.01217 0.44874 0.0
C2015 C 0.50596 0.01064 0.43264 0.0
C2016 C 0.47226 0.03082 0.41371 0.0
C2017 C 0.45219 0.02084 0.36311 0.0
C2018 C 0.4639 0.02151 0.38022 0.0
C2019 C 0.50073 0.02691 0.42886 0.0
C2020 C 0.48805 0.02511 0.41219 0.0
H2021 H 0.44145 0.9933 0.31983 0.0
H2022 H 0.45064 0.99099 0.35187 0.0
H2023 H 0.44807 0.03356 0.39903 0.0
H2024 H 0.52479 0.06024 0.46644 0.0
H2025 H 0.50367 0.05749 0.43821 0.0
C2026 C 0.79207 0.7488 0.05656 0.0
C2027 C 0.79489 0.73078 0.04977 0.0
C2028 C 0.79346 0.75536 0.07575 0.0
C2029 C 0.8086 0.74781 0.12268 0.0
H2030 H 0.7654 0.76118 0.13517 0.0
C2031 C 0.7921 0.75286 0.19746 0.0
C2032 C 0.78497 0.76792 0.20453 0.0
C2033 C 0.79318 0.74863 0.17845 0.0
C2034 C 0.77767 0.75779 0.13198 0.0
H2035 H 0.80315 0.70645 0.05781 0.0
H2036 H 0.80562 0.71799 0.09139 0.0
H2037 H 0.77003 0.75502 0.10257 0.0
H2038 H 0.77287 0.79008 0.19752 0.0
H2039 H 0.77536 0.78326 0.16412 0.0
H2040 H 0.81637 0.7507 0.15205 0.0
C2041 C 0.80224 0.72696 0.08183 0.0
C2042 C 0.78033 0.75427 0.11329 0.0
C2043 C 0.80084 0.72036 0.06259 0.0
C2044 C 0.77831 0.77831 0.19225 0.0
C2045 C 0.77974 0.77436 0.17318 0.0
C2046 C 0.80604 0.75152 0.14139 0.0
C2047 C 0.79777 0.74409 0.08852 0.0
C2048 C 0.79576 0.74912 0.10846 0.0
C2049 C 0.78756 0.75972 0.16615 0.0
C2050 C 0.79044 0.75634 0.14626 0.0
H2051 H 0.78771 0.75731 0.04704 0.0
H2052 H 0.79036 0.76885 0.08058 0.0
H2053 H 0.82066 0.74398 0.11934 0.0
H2054 H 0.7971 0.7445 0.20674 0.0
H2055 H 0.79871 0.73686 0.17346 0.0
C2056 C 0.13166 0.00917 0.69954 0.0
C2057 C 0.12044 0.00251 0.71258 0.0
C2058 C 0.12441 0.01095 0.68147 0.0
C2059 C 0.08138 0.99645 0.6465 0.0
H2060 H 0.10538 0.04046 0.62578 0.0
C2061 C 0.05715 0.00617 0.5703 0.0
C2062 C 0.0591 0.02499 0.56641 0.0
C2063 C 0.06433 0.00312 0.58781 0.0
C2064 C 0.0983 0.0281 0.63126 0.0
H2065 H 0.09255 0.99244 0.71625 0.0
H2066 H 0.08004 0.99466 0.68494 0.0
H2067 H 0.11822 0.03527 0.65574 0.0
H2068 H 0.07037 0.05537 0.57867 0.0
H2069 H 0.08279 0.05015 0.60886 0.0
H2070 H 0.06131 0.98944 0.62217 0.0
C2071 C 0.0945 0.99852 0.68847 0.0
C2072 C 0.1059 0.02494 0.64855 0.0
C2073 C 0.10174 0.9971 0.70658 0.0
C2074 C 0.06849 0.04062 0.58087 0.0
C2075 C 0.07581 0.03758 0.59832 0.0
C2076 C 0.07385 0.99952 0.62914 0.0
C2077 C 0.10562 0.00595 0.6756 0.0
C2078 C 0.09763 0.00905 0.65663 0.0
C2079 C 0.07397 0.01874 0.60224 0.0
C2080 C 0.0821 0.01544 0.62107 0.0
H2081 H 0.14607 0.01413 0.70368 0.0
H2082 H 0.13363 0.01657 0.67219 0.0
H2083 H 0.07444 0.98395 0.65188 0.0
H2084 H 0.05004 0.99367 0.55975 0.0
H2085 H 0.06258 0.98834 0.58983 0.0
C2086 C 0.79836 0.37217 0.45304 0.0
C2087 C 0.80714 0.39197 0.45627 0.0
C2088 C 0.79886 0.36048 0.43636 0.0
C2089 C 0.82313 0.35888 0.39542 0.0
H2090 H 0.78094 0.31629 0.37459 0.0
C2091 C 0.80471 0.3182 0.31932 0.0
C2092 C 0.79826 0.29794 0.31641 0.0
C2093 C 0.80919 0.32896 0.33737 0.0
C2094 C 0.7929 0.32792 0.38047 0.0
H2095 H 0.82322 0.41545 0.44512 0.0
H2096 H 0.82291 0.39516 0.4149 0.0
H2097 H 0.78062 0.33774 0.40338 0.0
H2098 H 0.792 0.27286 0.32977 0.0
H2099 H 0.7993 0.29192 0.36163 0.0
H2100 H 0.83482 0.34951 0.37153 0.0
C2101 C 0.81621 0.38852 0.42552 0.0
C2102 C 0.79275 0.34024 0.39692 0.0
C2103 C 0.8162 0.40016 0.44259 0.0
C2104 C 0.797 0.28848 0.33175 0.0
C2105 C 0.80118 0.29931 0.34986 0.0
C2106 C 0.82311 0.34674 0.37868 0.0
C2107 C 0.80767 0.3685 0.42235 0.0
C2108 C 0.80787 0.35581 0.40462 0.0
C2109 C 0.80694 0.31961 0.35269 0.0
C2110 C 0.808 0.33119 0.3712 0.0
H2111 H 0.7918 0.36559 0.4638 0.0
H2112 H 0.79265 0.34506 0.43465 0.0
H2113 H 0.83507 0.37057 0.40114 0.0
H2114 H 0.80545 0.32585 0.3077 0.0
H2115 H 0.81328 0.34464 0.33931 0.0
C2116 C 0.44787 0.03829 0.22915 0.0
C2117 C 0.45669 0.0274 0.23894 0.0
C2118 C 0.44055 0.03125 0.21035 0.0
C2119 C 0.43476 0.9901 0.17066 0.0
H2120 H 0.46974 0.02814 0.15169 0.0
C2121 C 0.46271 0.99086 0.09776 0.0
C2122 C 0.48162 0.99663 0.10081 0.0
C2123 C 0.45312 0.98895 0.11288 0.0
C2124 C 0.45972 0.01748 0.15671 0.0
H2125 H 0.46269 0.99964 0.23766 0.0
H2126 H 0.44925 0.98715 0.2056 0.0
H2127 H 0.45981 0.03741 0.18132 0.0
H2128 H 0.50518 1.0019 0.12149 0.0
H2129 H 0.48843 0.99842 0.14769 0.0
H2130 H 0.43579 0.9699 0.1462 0.0
C2131 C 0.44812 1.00116 0.21208 0.0
C2132 C 0.45376 0.02286 0.17347 0.0
C2133 C 0.45606 0.00847 0.23048 0.0
C2134 C 0.49065 0.9975 0.11866 0.0
C2135 C 0.48108 0.9956 0.1337 0.0
C2136 C 0.44062 0.98475 0.15362 0.0
C2137 C 0.44164 0.01306 0.20142 0.0
C2138 C 0.44192 0.00901 0.18108 0.0
C2139 C 0.46242 0.99268 0.13103 0.0
C2140 C 0.45377 0.99825 0.14712 0.0
H2141 H 0.44814 0.0529 0.23544 0.0
H2142 H 0.43564 0.0407 0.20234 0.0
H2143 H 0.42573 0.97915 0.17636 0.0
H2144 H 0.45545 0.98973 0.08402 0.0
H2145 H 0.4387 0.98659 0.11063 0.0
C2146 C 0.76979 0.70623 0.93197 0.0
C2147 C 0.78403 0.71115 0.94671 0.0
C2148 C 0.77241 0.71213 0.91495 0.0
C2149 C 0.80006 0.75035 0.89495 0.0
H2150 H 0.77821 0.71597 0.84778 0.0
C2151 C 0.80814 0.77424 0.82373 0.0
C2152 C 0.79287 0.76835 0.81005 0.0
C2153 C 0.80807 0.76674 0.84021 0.0
C2154 C 0.78423 0.72581 0.86083 0.0
H2155 H 0.81217 0.72606 0.95551 0.0
H2156 H 0.81682 0.73677 0.92554 0.0
H2157 H 0.777 0.70341 0.87683 0.0
H2158 H 0.76559 0.74995 0.80271 0.0
H2159 H 0.76535 0.73688 0.83161 0.0
H2160 H 0.80694 0.77287 0.87901 0.0
C2161 C 0.80367 0.72811 0.92713 0.0
C2162 C 0.78362 0.71859 0.87746 0.0
C2163 C 0.8011 0.72184 0.94414 0.0
C2164 C 0.77758 0.75462 0.81299 0.0
C2165 C 0.77749 0.74712 0.82952 0.0
C2166 C 0.80061 0.75761 0.8783 0.0
C2167 C 0.78928 0.72341 0.91242 0.0
C2168 C 0.79138 0.7308 0.89471 0.0
C2169 C 0.79271 0.75318 0.84337 0.0
C2170 C 0.79257 0.74544 0.86105 0.0
H2171 H 0.75648 0.69818 0.93379 0.0
H2172 H 0.76101 0.7085 0.904 0.0
H2173 H 0.80591 0.76017 0.90807 0.0
H2174 H 0.82014 0.78481 0.82179 0.0
H2175 H 0.8201 0.7715 0.85043 0.0
C2176 C 0.81976 0.10771 0.98588 0.0
C2177 C 0.81493 0.11163 0.00376 0.0
C2178 C 0.83525 0.10188 0.98373 0.0
C2179 C 0.87812 0.10391 0.01096 0.0
H2180 H 0.88086 0.06533 0.96913 0.0
C2181 C 0.93173 0.06332 0.0107 0.0
C2182 C 0.93854 0.05897 0.99398 0.0
C2183 C 0.91811 0.07247 0.01103 0.0
C2184 C 0.88036 0.0764 0.98068 0.0
H2185 H 0.82142 0.11136 0.03321 0.0
H2186 H 0.8481 0.10022 0.02938 0.0
H2187 H 0.85288 0.07413 0.97148 0.0
H2188 H 0.93732 0.06162 0.96475 0.0
H2189 H 0.9133 0.0778 0.96534 0.0
H2190 H 0.90544 0.10567 0.02046 0.0
C2191 C 0.8404 0.10242 0.01714 0.0
C2192 C 0.86435 0.08137 0.98207 0.0
C2193 C 0.82511 0.1086 0.01933 0.0
C2194 C 0.93207 0.06465 0.97774 0.0
C2195 C 0.91842 0.07387 0.97808 0.0
C2196 C 0.89407 0.09885 0.00963 0.0
C2197 C 0.8459 0.09959 0.99941 0.0
C2198 C 0.86301 0.0949 0.99741 0.0
C2199 C 0.91111 0.07747 0.99465 0.0
C2200 C 0.8952 0.08481 0.99467 0.0
H2201 H 0.81211 0.11012 0.97371 0.0
H2202 H 0.83923 0.09994 0.96992 0.0
H2203 H 0.8776 0.11477 0.02268 0.0
H2204 H 0.93637 0.05883 0.02332 0.0
H2205 H 0.91247 0.0748 0.0239 0.0
C2206 C 0.36256 0.42536 0.04477 0.0
C2207 C 0.34805 0.42018 0.03028 0.0
C2208 C 0.37916 0.43731 0.04268 0.0
C2209 C 0.40346 0.46954 0.0126 0.0
H2210 H 0.44407 0.45498 0.03516 0.0
C2211 C 0.4784 0.50211 0.00235 0.0
C2212 C 0.49019 0.5093 0.01928 0.0
C2213 C 0.46069 0.49103 0.00223 0.0
C2214 C 0.43288 0.45925 0.02881 0.0
H2215 H 0.33932 0.42373 0.00235 0.0
H2216 H 0.36852 0.44445 0.99842 0.0
H2217 H 0.41372 0.43705 0.03785 0.0
H2218 H 0.49294 0.51017 0.04917 0.0
H2219 H 0.46235 0.49026 0.0489 0.0
H2220 H 0.42297 0.49157 0.00325 0.0
C2221 C 0.367 0.43968 0.01165 0.0
C2222 C 0.41542 0.44908 0.03048 0.0
C2223 C 0.35021 0.42792 0.01391 0.0
C2224 C 0.48413 0.50481 0.03595 0.0
C2225 C 0.46664 0.49339 0.03577 0.0
C2226 C 0.42102 0.4796 0.01073 0.0
C2227 C 0.38189 0.44398 0.02579 0.0
C2228 C 0.40042 0.45435 0.02283 0.0
C2229 C 0.45464 0.48653 0.01897 0.0
C2230 C 0.43593 0.47481 0.01919 0.0
H2231 H 0.36129 0.41941 0.05746 0.0
H2232 H 0.39005 0.44077 0.05415 0.0
H2233 H 0.39232 0.47406 0.00651 0.0
H2234 H 0.4827 0.50549 0.9893 0.0
H2235 H 0.45178 0.48588 0.98907 0.0
C2236 C 0.39938 0.6301 0.78102 0.0
C2237 C 0.39773 0.61531 0.76529 0.0
C2238 C 0.39038 0.6448 0.78088 0.0
C2239 C 0.35502 0.66169 0.75124 0.0
H2240 H 0.37076 0.70723 0.79045 0.0
C2241 C 0.31438 0.72092 0.75836 0.0
C2242 C 0.32284 0.74051 0.76673 0.0
C2243 C 0.32349 0.70622 0.75793 0.0
C2244 C 0.36608 0.69482 0.77917 0.0
H2245 H 0.38452 0.60534 0.73673 0.0
H2246 H 0.3692 0.63093 0.73616 0.0
H2247 H 0.38606 0.68209 0.78972 0.0
H2248 H 0.34829 0.75925 0.78136 0.0
H2249 H 0.36408 0.73395 0.78076 0.0
H2250 H 0.33541 0.67497 0.74038 0.0
C2251 C 0.37737 0.63109 0.74905 0.0
C2252 C 0.37488 0.67982 0.77886 0.0
C2253 C 0.38634 0.61613 0.74927 0.0
C2254 C 0.34103 0.74456 0.77474 0.0
C2255 C 0.35016 0.72976 0.77447 0.0
C2256 C 0.34627 0.67676 0.75151 0.0
C2257 C 0.37916 0.64604 0.76488 0.0
C2258 C 0.36962 0.66261 0.76495 0.0
C2259 C 0.34167 0.71009 0.76598 0.0
C2260 C 0.35145 0.6938 0.76553 0.0
H2261 H 0.40777 0.63039 0.79384 0.0
H2262 H 0.39227 0.65512 0.79374 0.0
H2263 H 0.34999 0.64915 0.74017 0.0
H2264 H 0.30048 0.71679 0.75192 0.0
H2265 H 0.31596 0.6916 0.75145 0.0
C2266 C 0.226 0.59699 0.51152 0.0
C2267 C 0.23321 0.60636 0.49749 0.0
C2268 C 0.20749 0.58924 0.50987 0.0
C2269 C 0.16457 0.58449 0.47924 0.0
H2270 H 0.14999 0.59779 0.52774 0.0
C2271 C 0.09531 0.55293 0.49168 0.0
C2272 C 0.0868 0.56272 0.50426 0.0
C2273 C 0.11286 0.56124 0.48959 0.0
C2274 C 0.15394 0.5946 0.51404 0.0
H2275 H 0.2281 0.61074 0.46906 0.0
H2276 H 0.19605 0.59812 0.46635 0.0
H2277 H 0.18155 0.6019 0.52537 0.0
H2278 H 0.08952 0.58872 0.52468 0.0
H2279 H 0.12074 0.60364 0.52086 0.0
H2280 H 0.13708 0.57857 0.46779 0.0
C2281 C 0.20408 0.59686 0.4788 0.0
C2282 C 0.17195 0.59629 0.51273 0.0
C2283 C 0.22255 0.60411 0.48029 0.0
C2284 C 0.09606 0.58093 0.51499 0.0
C2285 C 0.11374 0.58947 0.51271 0.0
C2286 C 0.14673 0.58362 0.48046 0.0
C2287 C 0.19632 0.59113 0.49432 0.0
C2288 C 0.1773 0.59019 0.49546 0.0
C2289 C 0.12217 0.57968 0.49984 0.0
C2290 C 0.14113 0.58729 0.49801 0.0
H2291 H 0.23414 0.59808 0.52476 0.0
H2292 H 0.2019 0.5837 0.5216 0.0
H2293 H 0.16811 0.57995 0.46565 0.0
H2294 H 0.08841 0.53876 0.48343 0.0
H2295 H 0.11922 0.55297 0.48015 0.0
C2296 C 0.70687 0.00963 0.76148 0.0
C2297 C 0.69032 0.004 0.74971 0.0
C2298 C 0.71595 0.99595 0.76452 0.0
C2299 C 0.71682 0.94541 0.74929 0.0
H2300 H 0.7286 0.94761 0.80263 0.0
C2301 C 0.73183 0.88164 0.77686 0.0
C2302 C 0.74948 0.88661 0.78622 0.0
C2303 C 0.72359 0.89608 0.7742 0.0
C2304 C 0.72532 0.94689 0.78774 0.0
H2305 H 0.6714 0.98034 0.73011 0.0
H2306 H 0.68712 0.9564 0.73564 0.0
H2307 H 0.7189 0.97393 0.79171 0.0
H2308 H 0.77162 0.91024 0.80185 0.0
H2309 H 0.75693 0.93534 0.79766 0.0
H2310 H 0.72298 0.91817 0.74542 0.0
C2311 C 0.69304 0.9713 0.74259 0.0
C2312 C 0.72003 0.96199 0.78145 0.0
C2313 C 0.68397 0.98498 0.73953 0.0
C2314 C 0.75797 0.90596 0.79467 0.0
C2315 C 0.74962 0.92035 0.79222 0.0
C2316 C 0.72196 0.93024 0.75559 0.0
C2317 C 0.70861 0.97651 0.7558 0.0
C2318 C 0.71573 0.96135 0.76218 0.0
C2319 C 0.73281 0.91554 0.78117 0.0
C2320 C 0.72616 0.9309 0.77484 0.0
H2321 H 0.71226 0.0243 0.76925 0.0
H2322 H 0.7282 1.00035 0.77443 0.0
H2323 H 0.71369 0.94467 0.73437 0.0
H2324 H 0.72484 0.86675 0.77062 0.0
H2325 H 0.71045 0.89217 0.76587 0.0
C2326 C 0.74296 0.91618 0.52831 0.0
C2327 C 0.74913 0.90866 0.51212 0.0
C2328 C 0.72802 0.92363 0.52693 0.0
C2329 C 0.68874 0.92471 0.4934 0.0
H2330 H 0.69023 0.97072 0.52894 0.0
C2331 C 0.62845 0.95861 0.49782 0.0
C2332 C 0.63268 0.97891 0.50207 0.0
C2333 C 0.64217 0.94926 0.49786 0.0
C2334 C 0.68962 0.95798 0.51876 0.0
H2335 H 0.74406 0.90266 0.48174 0.0
H2336 H 0.71842 0.91588 0.47937 0.0
H2337 H 0.71478 0.95592 0.53154 0.0
H2338 H 0.65432 0.00538 0.50928 0.0
H2339 H 0.67822 0.98924 0.50944 0.0
H2340 H 0.66375 0.92724 0.4803 0.0
C2341 C 0.72491 0.9159 0.49317 0.0
C2342 C 0.70363 0.94926 0.52044 0.0
C2343 C 0.73981 0.90849 0.49455 0.0
C2344 C 0.65076 0.98971 0.50592 0.0
C2345 C 0.66442 0.98042 0.50618 0.0
C2346 C 0.67471 0.93349 0.49168 0.0
C2347 C 0.71886 0.92373 0.50933 0.0
C2348 C 0.70347 0.93254 0.50778 0.0
C2349 C 0.66034 0.96006 0.5025 0.0
C2350 C 0.67503 0.95034 0.50428 0.0
H2351 H 0.7497 0.9164 0.54206 0.0
H2352 H 0.72361 0.92922 0.53972 0.0
H2353 H 0.68797 0.91171 0.48349 0.0
H2354 H 0.61456 0.95002 0.49476 0.0
H2355 H 0.6385 0.93358 0.49495 0.0
C2356 C 0.37932 0.49473 0.7617 0.0
C2357 C 0.39261 0.49697 0.74974 0.0
C2358 C 0.36911 0.47599 0.76364 0.0
C2359 C 0.35881 0.42187 0.74164 0.0
H2360 H 0.3402 0.41382 0.78786 0.0
C2361 C 0.32629 0.34318 0.75578 0.0
C2362 C 0.31039 0.34058 0.76403 0.0
C2363 C 0.33687 0.36205 0.75475 0.0
C2364 C 0.34521 0.41568 0.77476 0.0
H2365 H 0.40503 0.48065 0.73031 0.0
H2366 H 0.38788 0.4489 0.73364 0.0
H2367 H 0.35618 0.4464 0.78434 0.0
H2368 H 0.29378 0.35622 0.77821 0.0
H2369 H 0.31223 0.38854 0.77707 0.0
H2370 H 0.34808 0.39107 0.73225 0.0
C2371 C 0.3848 0.46127 0.74144 0.0
C2372 C 0.3544 0.43464 0.77266 0.0
C2373 C 0.39489 0.4798 0.73955 0.0
C2374 C 0.30592 0.35747 0.77181 0.0
C2375 C 0.31662 0.3762 0.77118 0.0
C2376 C 0.34985 0.40293 0.74385 0.0
C2377 C 0.37174 0.45873 0.75366 0.0
C2378 C 0.36143 0.43829 0.756 0.0
C2379 C 0.33215 0.379 0.76231 0.0
C2380 C 0.34274 0.39936 0.7604 0.0
H2381 H 0.37729 0.50741 0.77013 0.0
H2382 H 0.3592 0.47513 0.77312 0.0
H2383 H 0.36339 0.42353 0.72833 0.0
H2384 H 0.33017 0.33066 0.74942 0.0
H2385 H 0.34874 0.36334 0.74791 0.0
C2386 C 0.19039 0.5867 0.25129 0.0
C2387 C 0.18139 0.58108 0.26609 0.0
C2388 C 0.20165 0.60533 0.25341 0.0
C2389 C 0.22441 0.64998 0.28724 0.0
H2390 H 0.21469 0.67317 0.24434 0.0
C2391 C 0.27058 0.72013 0.2761 0.0
C2392 C 0.26344 0.7321 0.26626 0.0
C2393 C 0.25957 0.7025 0.27818 0.0
C2394 C 0.21728 0.6671 0.25662 0.0
H2395 H 0.17847 0.58911 0.29519 0.0
H2396 H 0.19824 0.62179 0.29896 0.0
H2397 H 0.19893 0.63987 0.24425 0.0
H2398 H 0.23956 0.73644 0.25182 0.0
H2399 H 0.21993 0.70589 0.25614 0.0
H2400 H 0.24215 0.67753 0.29999 0.0
C2401 C 0.19651 0.61201 0.28573 0.0
C2402 C 0.20856 0.64788 0.25636 0.0
C2403 C 0.18519 0.59341 0.28357 0.0
C2404 C 0.24525 0.72681 0.25888 0.0
C2405 C 0.23409 0.70949 0.26148 0.0
C2406 C 0.23287 0.66937 0.28768 0.0
C2407 C 0.204 0.61838 0.27036 0.0
C2408 C 0.21259 0.639 0.27134 0.0
C2409 C 0.2412 0.69707 0.27096 0.0
C2410 C 0.22991 0.67785 0.27205 0.0
H2411 H 0.18762 0.57735 0.23766 0.0
H2412 H 0.20769 0.60985 0.2415 0.0
H2413 H 0.2275 0.64347 0.29908 0.0
H2414 H 0.28462 0.72444 0.28215 0.0
H2415 H 0.26554 0.69307 0.28519 0.0
C2416 C 0.49733 0.70669 0.45377 0.0
C2417 C 0.5057 0.71412 0.4392 0.0
C2418 C 0.50269 0.69244 0.46173 0.0
C2419 C 0.5258 0.65433 0.45228 0.0
H2420 H 0.52607 0.65466 0.50549 0.0
C2421 C 0.54912 0.5983 0.48904 0.0
C2422 C 0.53645 0.58841 0.49911 0.0
C2423 C 0.547 0.61488 0.48273 0.0
C2424 C 0.52601 0.65442 0.49062 0.0
H2425 H 0.52639 0.71241 0.42167 0.0
H2426 H 0.53581 0.68743 0.43563 0.0
H2427 H 0.51976 0.68158 0.49229 0.0
H2428 H 0.51209 0.58831 0.51119 0.0
H2429 H 0.50871 0.61784 0.50068 0.0
H2430 H 0.53217 0.62719 0.45071 0.0
C2431 C 0.52494 0.69256 0.44074 0.0
C2432 C 0.52235 0.66975 0.48303 0.0
C2433 C 0.51957 0.70689 0.43276 0.0
C2434 C 0.52197 0.5957 0.50336 0.0
C2435 C 0.52011 0.61259 0.49746 0.0
C2436 C 0.52966 0.63912 0.45991 0.0
C2437 C 0.51658 0.68522 0.45537 0.0
C2438 C 0.5219 0.66973 0.46371 0.0
C2439 C 0.53243 0.6221 0.48679 0.0
C2440 C 0.52954 0.6389 0.47908 0.0
H2441 H 0.48666 0.71197 0.45919 0.0
H2442 H 0.49574 0.68691 0.47274 0.0
H2443 H 0.52531 0.65369 0.43733 0.0
H2444 H 0.56034 0.59285 0.48552 0.0
H2445 H 0.55669 0.62201 0.47458 0.0
C2446 C 0.62516 0.31232 0.66446 0.0
C2447 C 0.62341 0.30464 0.6453 0.0
C2448 C 0.63904 0.31021 0.67708 0.0
C2449 C 0.67027 0.28022 0.68373 0.0
H2450 H 0.69947 0.32576 0.71842 0.0
C2451 C 0.73611 0.281 0.73066 0.0
C2452 C 0.74012 0.29303 0.74842 0.0
C2453 C 0.72142 0.28125 0.71789 0.0
C2454 C 0.69131 0.31275 0.7091 0.0
H2455 H 0.63451 0.28817 0.62449 0.0
H2456 H 0.65834 0.28421 0.64649 0.0
H2457 H 0.67438 0.32832 0.69734 0.0
H2458 H 0.73138 0.31398 0.76699 0.0
H2459 H 0.70576 0.31393 0.74535 0.0
H2460 H 0.68704 0.26455 0.6957 0.0
C2461 C 0.64917 0.29203 0.65176 0.0
C2462 C 0.67691 0.31428 0.69694 0.0
C2463 C 0.63559 0.29448 0.63913 0.0
C2464 C 0.72884 0.30473 0.75334 0.0
C2465 C 0.71416 0.30481 0.74079 0.0
C2466 C 0.68459 0.27861 0.6961 0.0
C2467 C 0.65118 0.29999 0.67087 0.0
C2468 C 0.6662 0.29807 0.68411 0.0
C2469 C 0.71038 0.29343 0.72271 0.0
C2470 C 0.69529 0.29487 0.70906 0.0
H2471 H 0.61597 0.32014 0.66964 0.0
H2472 H 0.64019 0.31643 0.69175 0.0
H2473 H 0.6622 0.26742 0.67404 0.0
H2474 H 0.74455 0.27178 0.72649 0.0
H2475 H 0.71902 0.2723 0.70411 0.0
C2476 C 0.02126 0.32232 0.96431 0.0
C2477 C 0.01683 0.31502 0.94505 0.0
C2478 C 0.02502 0.3422 0.97092 0.0
C2479 C 0.00781 0.37999 0.96271 0.0
H2480 H 0.05121 0.41708 0.98993 0.0
C2481 C 0.01188 0.46042 0.98578 0.0
C2482 C 0.02327 0.4705 0.00227 0.0
C2483 C 0.0115 0.44135 0.9788 0.0
C2484 C 0.03889 0.40681 0.98266 0.0
H2485 H 0.0133 0.32226 0.9175 0.0
H2486 H 0.01898 0.357 0.92919 0.0
H2487 H 0.0518 0.38409 0.97745 0.0
H2488 H 0.04233 0.46867 0.02507 0.0
H2489 H 0.04083 0.43491 0.01359 0.0
H2490 H 0.99452 0.40204 0.96856 0.0
C2491 C 0.02012 0.34748 0.93903 0.0
C2492 C 0.03935 0.38808 0.97538 0.0
C2493 C 0.01692 0.32774 0.93241 0.0
C2494 C 0.03353 0.46107 0.01225 0.0
C2495 C 0.03282 0.44186 0.00553 0.0
C2496 C 0.00722 0.39854 0.97032 0.0
C2497 C 0.02378 0.35471 0.95832 0.0
C2498 C 0.02381 0.37466 0.96536 0.0
C2499 C 0.0222 0.43196 0.98844 0.0
C2500 C 0.02275 0.41218 0.98042 0.0
H2501 H 0.0212 0.31263 0.9742 0.0
H2502 H 0.02774 0.34766 0.98587 0.0
H2503 H 0.99565 0.36961 0.95514 0.0
H2504 H 0.00405 0.4676 0.97774 0.0
H2505 H 0.00336 0.4343 0.96547 0.0
C2506 C 0.00331 0.80624 0.13354 0.0
C2507 C 0.01795 0.79888 0.13785 0.0
C2508 C 0.98792 0.80143 0.14215 0.0
C2509 C 0.96291 0.76558 0.16809 0.0
H2510 H 0.93936 0.80572 0.1816 0.0
C2511 C 0.9059 0.76081 0.2153 0.0
C2512 C 0.89188 0.76874 0.20988 0.0
C2513 C 0.92054 0.76206 0.20534 0.0
C2514 C 0.94564 0.79427 0.17771 0.0
H2515 H 0.02782 0.78057 0.15462 0.0
H2516 H 0.00092 0.77229 0.16987 0.0
H2517 H 0.96684 0.81335 0.16768 0.0
H2518 H 0.88161 0.78263 0.18868 0.0
H2519 H 0.90728 0.78514 0.17161 0.0
H2520 H 0.94171 0.74666 0.17868 0.0
C2521 C 0.00133 0.78169 0.15967 0.0
C2522 C 0.96143 0.79864 0.1697 0.0
C2523 C 0.01682 0.78658 0.15106 0.0
C2524 C 0.89237 0.77687 0.19359 0.0
C2525 C 0.90705 0.77825 0.18376 0.0
C2526 C 0.94712 0.76124 0.1763 0.0
C2527 C 0.98669 0.78911 0.15535 0.0
C2528 C 0.97021 0.78434 0.16459 0.0
C2529 C 0.92155 0.77139 0.18984 0.0
C2530 C 0.93823 0.77553 0.18101 0.0
H2531 H 0.00366 0.81571 0.12341 0.0
H2532 H 0.97685 0.80719 0.13822 0.0
H2533 H 0.96921 0.75415 0.16419 0.0
H2534 H 0.90607 0.75454 0.22781 0.0
H2535 H 0.93152 0.75666 0.21038 0.0
C2536 C 0.50138 0.29091 0.09263 0.0
C2537 C 0.50204 0.29215 0.11204 0.0
C2538 C 0.50825 0.30736 0.0852 0.0
C2539 C 0.53855 0.35713 0.09679 0.0
H2540 H 0.51072 0.36278 0.05204 0.0
C2541 C 0.54759 0.42615 0.06239 0.0
C2542 C 0.5465 0.42242 0.04276 0.0
C2543 C 0.54504 0.41086 0.07227 0.0
C2544 C 0.5187 0.3613 0.06445 0.0
H2545 H 0.51067 0.31158 0.13897 0.0
H2546 H 0.5224 0.34046 0.1259 0.0
H2547 H 0.49981 0.33502 0.06664 0.0
H2548 H 0.54289 0.39995 0.01828 0.0
H2549 H 0.5386 0.37348 0.03553 0.0
H2550 H 0.55725 0.38392 0.09458 0.0
C2551 C 0.5167 0.3267 0.11646 0.0
C2552 C 0.51249 0.34539 0.07279 0.0
C2553 C 0.50979 0.3102 0.12391 0.0
C2554 C 0.54397 0.40335 0.03339 0.0
C2555 C 0.54136 0.38816 0.04322 0.0
C2556 C 0.54471 0.37326 0.08848 0.0
C2557 C 0.5159 0.32545 0.09701 0.0
C2558 C 0.52244 0.34294 0.08886 0.0
C2559 C 0.54123 0.39171 0.06261 0.0
C2560 C 0.53492 0.37524 0.07208 0.0
H2561 H 0.49563 0.27719 0.08314 0.0
H2562 H 0.5077 0.30586 0.07016 0.0
H2563 H 0.54653 0.35557 0.10915 0.0
H2564 H 0.54975 0.44076 0.06999 0.0
H2565 H 0.545 0.41389 0.08726 0.0
C2566 C 0.03193 0.32233 0.35871 0.0
C2567 C 0.04337 0.31094 0.35378 0.0
C2568 C 0.01697 0.32141 0.34636 0.0
C2569 C 0.99165 0.31079 0.30219 0.0
H2570 H 0.95247 0.28772 0.32789 0.0
C2571 C 0.91663 0.30148 0.27568 0.0
C2572 C 0.9075 0.3084 0.2897 0.0
C2573 C 0.93362 0.29905 0.28043 0.0
C2574 C 0.96324 0.29403 0.32048 0.0
H2575 H 0.04963 0.29116 0.33176 0.0
H2576 H 0.02265 0.28917 0.3098 0.0
H2577 H 0.98326 0.2902 0.34053 0.0
H2578 H 0.90875 0.31845 0.31943 0.0
H2579 H 0.93842 0.31444 0.32772 0.0
H2580 H 0.97158 0.31569 0.28273 0.0
C2581 C 0.02549 0.29884 0.32325 0.0
C2582 C 0.98076 0.29532 0.32761 0.0
C2583 C 0.04072 0.29988 0.33571 0.0
C2584 C 0.91545 0.31276 0.30845 0.0
C2585 C 0.93238 0.31044 0.31316 0.0
C2586 C 0.97399 0.30954 0.29501 0.0
C2587 C 0.01321 0.30896 0.32896 0.0
C2588 C 0.99505 0.30425 0.31886 0.0
C2589 C 0.9416 0.30355 0.29921 0.0
C2590 C 0.95975 0.30177 0.30453 0.0
H2591 H 0.03405 0.33116 0.37256 0.0
H2592 H 0.00763 0.32938 0.3509 0.0
H2593 H 0.00263 0.31785 0.29543 0.0
H2594 H 0.91061 0.29795 0.26113 0.0
H2595 H 0.94048 0.29362 0.26948 0.0
C2596 C 0.97467 0.68746 0.59641 0.0
C2597 C 0.9872 0.70507 0.60452 0.0
C2598 C 0.97995 0.67356 0.58478 0.0
C2599 C 0.01736 0.66412 0.56074 0.0
H2600 H 0.99714 0.61238 0.57024 0.0
C2601 C 0.03762 0.59699 0.52816 0.0
C2602 C 0.02291 0.5849 0.51549 0.0
C2603 C 0.03511 0.61149 0.54155 0.0
C2604 C 0.00302 0.62684 0.56777 0.0
H2605 H 0.01441 0.72298 0.60583 0.0
H2606 H 0.02389 0.69847 0.58612 0.0
H2607 H 0.98842 0.63959 0.5868 0.0
H2608 H 0.99414 0.57729 0.5072 0.0
H2609 H 0.98965 0.60261 0.53099 0.0
H2610 H 0.03211 0.65116 0.54184 0.0
C2611 C 0.00995 0.6954 0.58829 0.0
C2612 C 0.99785 0.64232 0.5769 0.0
C2613 C 0.0045 0.70948 0.59949 0.0
C2614 C 0.00562 0.58681 0.5167 0.0
C2615 C 0.00306 0.60099 0.53036 0.0
C2616 C 0.0228 0.64868 0.5519 0.0
C2617 C 0.99794 0.677 0.58164 0.0
C2618 C 0.00446 0.66096 0.57291 0.0
C2619 C 0.01783 0.61353 0.5426 0.0
C2620 C 0.01518 0.62995 0.55494 0.0
H2621 H 0.96122 0.68393 0.60014 0.0
H2622 H 0.97025 0.65973 0.5792 0.0
H2623 H 0.0227 0.67832 0.55744 0.0
H2624 H 0.05105 0.59549 0.52743 0.0
H2625 H 0.04659 0.62122 0.5509 0.0
C2626 C 0.63382 0.83513 0.83752 0.0
C2627 C 0.63219 0.82852 0.85453 0.0
C2628 C 0.64545 0.8295 0.82582 0.0
C2629 C 0.68398 0.80855 0.82576 0.0
H2630 H 0.66772 0.79288 0.77232 0.0
C2631 C 0.7208 0.76758 0.77902 0.0
C2632 C 0.72946 0.77931 0.76723 0.0
C2633 C 0.70645 0.77184 0.78704 0.0
C2634 C 0.67229 0.79721 0.78723 0.0
H2635 H 0.64179 0.81129 0.87287 0.0
H2636 H 0.6617 0.80125 0.85241 0.0
H2637 H 0.64863 0.80566 0.79281 0.0
H2638 H 0.72898 0.80319 0.75286 0.0
H2639 H 0.70337 0.8103 0.7666 0.0
H2640 H 0.70739 0.79964 0.82022 0.0
C2641 C 0.65426 0.81099 0.84817 0.0
C2642 C 0.66154 0.80467 0.7989 0.0
C2643 C 0.64275 0.81667 0.85987 0.0
C2644 C 0.7225 0.79407 0.76204 0.0
C2645 C 0.70788 0.79807 0.76978 0.0
C2646 C 0.69452 0.80083 0.81417 0.0
C2647 C 0.6556 0.81717 0.83095 0.0
C2648 C 0.66727 0.8103 0.81831 0.0
C2649 C 0.70041 0.78757 0.78301 0.0
C2650 C 0.68869 0.79501 0.7949 0.0
H2651 H 0.62585 0.8443 0.83306 0.0
H2652 H 0.64642 0.83472 0.81274 0.0
H2653 H 0.68894 0.81316 0.84057 0.0
H2654 H 0.72601 0.75617 0.78328 0.0
H2655 H 0.70078 0.76364 0.79727 0.0
C2656 C 0.4708 0.57081 0.69906 0.0
C2657 C 0.45351 0.55895 0.69994 0.0
C2658 C 0.47872 0.57002 0.68228 0.0
C2659 C 0.47456 0.53801 0.63386 0.0
H2660 H 0.5109 0.58207 0.62538 0.0
C2661 C 0.50782 0.53674 0.56311 0.0
C2662 C 0.52583 0.54775 0.56404 0.0
C2663 C 0.49837 0.53798 0.57894 0.0
C2664 C 0.50096 0.56937 0.62738 0.0
H2665 H 0.4316 0.53618 0.68325 0.0
H2666 H 0.44483 0.53513 0.65416 0.0
H2667 H 0.49634 0.58473 0.65321 0.0
H2668 H 0.54759 0.56869 0.58314 0.0
H2669 H 0.53164 0.57077 0.60988 0.0
H2670 H 0.47925 0.5227 0.60788 0.0
C2671 C 0.45248 0.54531 0.66641 0.0
C2672 C 0.49244 0.57094 0.64369 0.0
C2673 C 0.44456 0.5462 0.68319 0.0
C2674 C 0.53377 0.56 0.58142 0.0
C2675 C 0.52441 0.56132 0.59703 0.0
C2676 C 0.48308 0.53645 0.61748 0.0
C2677 C 0.46993 0.55699 0.66549 0.0
C2678 C 0.479 0.5553 0.64751 0.0
C2679 C 0.50644 0.55039 0.59638 0.0
C2680 C 0.49661 0.55207 0.61379 0.0
H2681 H 0.47863 0.58023 0.71168 0.0
H2682 H 0.4922 0.57916 0.68285 0.0
H2683 H 0.46467 0.5253 0.63592 0.0
H2684 H 0.50108 0.52694 0.55027 0.0
H2685 H 0.4846 0.52925 0.5774 0.0
C2686 C 0.78928 0.19916 0.97318 0.0
C2687 C 0.78522 0.17961 0.97469 0.0
C2688 C 0.7824 0.20455 0.95718 0.0
C2689 C 0.74258 0.18742 0.92189 0.0
H2690 H 0.76625 0.23229 0.9021 0.0
C2691 C 0.726 0.21934 0.85556 0.0
C2692 C 0.73013 0.23968 0.85959 0.0
C2693 C 0.72666 0.20902 0.87013 0.0
C2694 C 0.75946 0.21983 0.90767 0.0
H2695 H 0.77224 0.15014 0.96023 0.0
H2696 H 0.76041 0.15961 0.93203 0.0
H2697 H 0.78365 0.2196 0.92397 0.0
H2698 H 0.73459 0.26467 0.88187 0.0
H2699 H 0.73567 0.24665 0.90699 0.0
H2700 H 0.7184 0.18764 0.90498 0.0
C2701 C 0.7687 0.17075 0.94329 0.0
C2702 C 0.76942 0.21254 0.92008 0.0
C2703 C 0.77577 0.16535 0.95926 0.0
C2704 C 0.73149 0.24904 0.87822 0.0
C2705 C 0.73213 0.23874 0.8927 0.0
C2706 C 0.73261 0.19464 0.90918 0.0
C2707 C 0.77126 0.19043 0.94252 0.0
C2708 C 0.76106 0.19648 0.92756 0.0
C2709 C 0.73135 0.21904 0.88866 0.0
C2710 C 0.741 0.21111 0.90233 0.0
H2711 H 0.79638 0.21033 0.98502 0.0
H2712 H 0.78458 0.21985 0.95701 0.0
H2713 H 0.73574 0.17516 0.92768 0.0
H2714 H 0.72445 0.21172 0.84128 0.0
H2715 H 0.72589 0.19375 0.8668 0.0
C2716 C 0.12154 0.51531 0.1845 0.0
C2717 C 0.12379 0.53336 0.19594 0.0
C2718 C 0.1185 0.51342 0.16522 0.0
C2719 C 0.11542 0.53546 0.12462 0.0
H2720 H 0.06488 0.50747 0.11798 0.0
C2721 C 0.06308 0.54385 0.06862 0.0
C2722 C 0.04806 0.52808 0.0616 0.0
C2723 C 0.07597 0.54232 0.08236 0.0
C2724 C 0.07907 0.51474 0.11926 0.0
H2725 H 0.12662 0.564 0.19643 0.0
H2726 H 0.12053 0.56041 0.16247 0.0
H2727 H 0.08375 0.50905 0.14672 0.0
H2728 H 0.0349 0.49811 0.06207 0.0
H2729 H 0.05783 0.49508 0.08578 0.0
H2730 H 0.11057 0.54142 0.09711 0.0
C2731 C 0.12141 0.5479 0.16852 0.0
C2732 C 0.08982 0.51571 0.13574 0.0
C2733 C 0.12442 0.54981 0.18786 0.0
C2734 C 0.04627 0.51052 0.06777 0.0
C2735 C 0.05939 0.50882 0.08119 0.0
C2736 C 0.10467 0.53415 0.10781 0.0
C2737 C 0.11766 0.52953 0.15726 0.0
C2738 C 0.10789 0.5263 0.13859 0.0
C2739 C 0.07412 0.52486 0.08891 0.0
C2740 C 0.08631 0.52409 0.10521 0.0
H2741 H 0.12138 0.50248 0.1904 0.0
H2742 H 0.11541 0.49914 0.15657 0.0
H2743 H 0.12936 0.5439 0.12689 0.0
H2744 H 0.06462 0.55748 0.06379 0.0
H2745 H 0.08697 0.55502 0.08829 0.0
C2746 C 0.77868 0.82613 0.46638 0.0
C2747 C 0.78352 0.84586 0.47443 0.0
C2748 C 0.7773 0.82046 0.44704 0.0
C2749 C 0.80161 0.83404 0.41173 0.0
H2750 H 0.76179 0.80267 0.37463 0.0
C2751 C 0.80835 0.81499 0.3335 0.0
C2752 C 0.79714 0.79741 0.32333 0.0
C2753 C 0.80667 0.82087 0.35221 0.0
C2754 C 0.77313 0.81114 0.38489 0.0
H2755 H 0.78996 0.87515 0.46896 0.0
H2756 H 0.78835 0.86519 0.43512 0.0
H2757 H 0.75646 0.81319 0.40644 0.0
H2758 H 0.77654 0.7714 0.3246 0.0
H2759 H 0.77434 0.78098 0.35748 0.0
H2760 H 0.81853 0.83132 0.39074 0.0
C2761 C 0.78512 0.8542 0.44368 0.0
C2762 C 0.76997 0.81731 0.40297 0.0
C2763 C 0.78593 0.85983 0.46293 0.0
C2764 C 0.78518 0.78514 0.33228 0.0
C2765 C 0.78378 0.79076 0.35101 0.0
C2766 C 0.80486 0.82755 0.39378 0.0
C2767 C 0.78134 0.83452 0.43576 0.0
C2768 C 0.7842 0.82881 0.41643 0.0
C2769 C 0.79398 0.80903 0.361 0.0
C2770 C 0.79066 0.81596 0.38015 0.0
H2771 H 0.77688 0.81519 0.47511 0.0
H2772 H 0.77444 0.80521 0.44106 0.0
H2773 H 0.81278 0.84273 0.42213 0.0
H2774 H 0.81754 0.82468 0.32669 0.0
H2775 H 0.81467 0.83508 0.35944 0.0
C2776 C 0.47788 0.56285 0.8114 0.0
C2777 C 0.46013 0.56405 0.80719 0.0
C2778 C 0.48495 0.56138 0.82945 0.0
C2779 C 0.47825 0.56645 0.88029 0.0
H2780 H 0.50744 0.53063 0.88136 0.0
C2781 C 0.50349 0.54751 0.95191 0.0
C2782 C 0.51799 0.53931 0.95354 0.0
C2783 C 0.49636 0.55071 0.93449 0.0
C2784 C 0.49966 0.54102 0.88173 0.0
H2785 H 0.43622 0.56526 0.81961 0.0
H2786 H 0.44859 0.56295 0.85127 0.0
H2787 H 0.49582 0.53688 0.85171 0.0
H2788 H 0.53664 0.52855 0.93782 0.0
H2789 H 0.52535 0.53524 0.90795 0.0
H2790 H 0.48242 0.57113 0.91023 0.0
C2791 C 0.45713 0.56323 0.84041 0.0
C2792 C 0.49282 0.54458 0.86437 0.0
C2793 C 0.45 0.56472 0.82218 0.0
C2794 C 0.52532 0.53467 0.93715 0.0
C2795 C 0.5186 0.53845 0.91979 0.0
C2796 C 0.48536 0.56316 0.89773 0.0
C2797 C 0.47461 0.56094 0.84428 0.0
C2798 C 0.48192 0.55733 0.8632 0.0
C2799 C 0.5038 0.54646 0.9179 0.0
C2800 C 0.49623 0.55027 0.89898 0.0
H2801 H 0.48624 0.56231 0.80041 0.0
H2802 H 0.49857 0.56023 0.83167 0.0
H2803 H 0.47014 0.57653 0.88027 0.0
H2804 H 0.49736 0.55115 0.96417 0.0
H2805 H 0.4848 0.55637 0.93421 0.0
C2806 C 0.75869 0.17769 0.07854 0.0
C2807 C 0.77427 0.17863 0.07016 0.0
C2808 C 0.75954 0.18896 0.0959 0.0
C2809 C 0.78698 0.23341 0.12673 0.0
H2810 H 0.75777 0.21317 0.16305 0.0
C2811 C 0.78437 0.28136 0.19612 0.0
C2812 C 0.7857 0.27253 0.21174 0.0
C2813 C 0.78081 0.27014 0.17815 0.0
C2814 C 0.76607 0.21902 0.15309 0.0
H2815 H 0.80306 0.19138 0.07342 0.0
H2816 H 0.80465 0.21098 0.10423 0.0
H2817 H 0.75795 0.19207 0.13401 0.0
H2818 H 0.7839 0.24525 0.22117 0.0
H2819 H 0.77852 0.22601 0.1902 0.0
H2820 H 0.79596 0.26006 0.14638 0.0
C2821 C 0.79175 0.20174 0.09716 0.0
C2822 C 0.76604 0.20698 0.1364 0.0
C2823 C 0.79089 0.19039 0.07971 0.0
C2824 C 0.78285 0.25241 0.20932 0.0
C2825 C 0.77961 0.24133 0.19152 0.0
C2826 C 0.78727 0.2454 0.14363 0.0
C2827 C 0.776 0.20132 0.10522 0.0
C2828 C 0.77651 0.21404 0.12309 0.0
C2829 C 0.77876 0.25007 0.17575 0.0
C2830 C 0.77695 0.23823 0.15704 0.0
H2831 H 0.74572 0.16863 0.07144 0.0
H2832 H 0.74717 0.18847 0.10171 0.0
H2833 H 0.79493 0.23929 0.11652 0.0
H2834 H 0.78646 0.29688 0.19777 0.0
H2835 H 0.77998 0.27719 0.1662 0.0
C2836 C 0.10581 0.53787 0.29894 0.0
C2837 C 0.12076 0.53141 0.2948 0.0
C2838 C 0.10694 0.55096 0.31531 0.0
C2839 C 0.1288 0.56816 0.36251 0.0
H2840 H 0.10878 0.61126 0.35779 0.0
C2841 C 0.10201 0.59592 0.42348 0.0
C2842 C 0.08347 0.5916 0.41765 0.0
C2843 C 0.11401 0.60047 0.41079 0.0
C2844 C 0.11474 0.59955 0.35938 0.0
H2845 H 0.14798 0.5319 0.30564 0.0
H2846 H 0.14953 0.55423 0.33472 0.0
H2847 H 0.11459 0.59191 0.32985 0.0
H2848 H 0.06307 0.59212 0.39555 0.0
H2849 H 0.08368 0.59927 0.37327 0.0
H2850 H 0.12746 0.57435 0.3916 0.0
C2851 C 0.13724 0.54963 0.32487 0.0
C2852 C 0.11796 0.58845 0.34342 0.0
C2853 C 0.13619 0.53663 0.30836 0.0
C2854 C 0.07733 0.59521 0.40026 0.0
C2855 C 0.08926 0.59942 0.38747 0.0
C2856 C 0.12545 0.57912 0.37842 0.0
C2857 C 0.12288 0.55751 0.32802 0.0
C2858 C 0.124 0.57201 0.34484 0.0
C2859 C 0.10744 0.60012 0.39209 0.0
C2860 C 0.11731 0.59418 0.3769 0.0
H2861 H 0.0937 0.534 0.28888 0.0
H2862 H 0.09545 0.55634 0.31783 0.0
H2863 H 0.13352 0.55558 0.3639 0.0
H2864 H 0.10703 0.59357 0.43705 0.0
H2865 H 0.12806 0.60164 0.4149 0.0
C2866 C 0.79022 0.82979 0.57613 0.0
C2867 C 0.789 0.84851 0.5747 0.0
C2868 C 0.78725 0.82252 0.59244 0.0
C2869 C 0.76912 0.83011 0.63734 0.0
H2870 H 0.80129 0.80043 0.65228 0.0
C2871 C 0.77577 0.80798 0.71034 0.0
C2872 C 0.77499 0.78844 0.70994 0.0
C2873 C 0.77693 0.81563 0.6939 0.0
C2874 C 0.79215 0.80858 0.64823 0.0
H2875 H 0.78294 0.87398 0.589 0.0
H2876 H 0.77812 0.86141 0.61794 0.0
H2877 H 0.80383 0.81328 0.62351 0.0
H2878 H 0.77517 0.76157 0.69254 0.0
H2879 H 0.77776 0.77505 0.66386 0.0
H2880 H 0.75776 0.82564 0.66247 0.0
C2881 C 0.78118 0.85227 0.60626 0.0
C2882 C 0.79351 0.81589 0.63168 0.0
C2883 C 0.78395 0.85951 0.58972 0.0
C2884 C 0.77566 0.77668 0.69306 0.0
C2885 C 0.77722 0.78441 0.67673 0.0
C2886 C 0.76789 0.82295 0.65404 0.0
C2887 C 0.78323 0.83385 0.60795 0.0
C2888 C 0.7819 0.82658 0.6259 0.0
C2889 C 0.77776 0.80393 0.67696 0.0
C2890 C 0.77931 0.812 0.65956 0.0
H2891 H 0.79377 0.82079 0.56467 0.0
H2892 H 0.78838 0.80805 0.59296 0.0
H2893 H 0.75984 0.83808 0.63324 0.0
H2894 H 0.77525 0.81722 0.72328 0.0
H2895 H 0.77745 0.83075 0.69447 0.0
C2896 C 0.74703 0.4396 0.52462 0.0
C2897 C 0.75469 0.44503 0.50896 0.0
C2898 C 0.73534 0.44903 0.53245 0.0
C2899 C 0.7194 0.49291 0.53275 0.0
H2900 H 0.67876 0.46173 0.55116 0.0
C2901 C 0.66465 0.5262 0.55566 0.0
C2902 C 0.64718 0.5149 0.54808 0.0
C2903 C 0.67887 0.51783 0.55617 0.0
C2904 C 0.69 0.47064 0.54605 0.0
H2905 H 0.75613 0.46446 0.48908 0.0
H2906 H 0.73469 0.48028 0.50209 0.0
H2907 H 0.70103 0.4469 0.53946 0.0
H2908 H 0.63056 0.48563 0.53708 0.0
H2909 H 0.65537 0.47124 0.5368 0.0
H2910 H 0.70752 0.51622 0.53777 0.0
C2911 C 0.73822 0.46915 0.50872 0.0
C2912 C 0.70294 0.46221 0.53956 0.0
C2913 C 0.75029 0.45994 0.50109 0.0
C2914 C 0.64396 0.49481 0.54252 0.0
C2915 C 0.65821 0.4865 0.54266 0.0
C2916 C 0.70624 0.50125 0.53885 0.0
C2917 C 0.73068 0.46381 0.52454 0.0
C2918 C 0.71762 0.47316 0.53253 0.0
C2919 C 0.67591 0.49808 0.54877 0.0
C2920 C 0.69119 0.49008 0.5452 0.0
H2921 H 0.75045 0.42841 0.53125 0.0
H2922 H 0.73016 0.44487 0.54488 0.0
H2923 H 0.73076 0.50186 0.52784 0.0
H2924 H 0.66762 0.54174 0.56009 0.0
H2925 H 0.69229 0.52703 0.56145 0.0
C2926 C 0.21674 0.15933 0.51441 0.0
C2927 C 0.22693 0.15553 0.5002 0.0
C2928 C 0.20043 0.1462 0.51541 0.0
C2929 C 0.17118 0.09596 0.49598 0.0
H2930 H 0.13393 0.1186 0.51241 0.0
C2931 C 0.09594 0.05318 0.48488 0.0
C2932 C 0.08636 0.05548 0.50003 0.0
C2933 C 0.11341 0.06488 0.48554 0.0
C2934 C 0.14422 0.11202 0.50797 0.0
H2935 H 0.22835 0.13498 0.47602 0.0
H2936 H 0.19931 0.11227 0.4771 0.0
H2937 H 0.16376 0.13945 0.51221 0.0
H2938 H 0.0875 0.07197 0.52769 0.0
H2939 H 0.11799 0.09269 0.52873 0.0
H2940 H 0.15121 0.06854 0.49114 0.0
C2941 C 0.20413 0.12511 0.48791 0.0
C2942 C 0.16143 0.12397 0.50792 0.0
C2943 C 0.22076 0.13811 0.48721 0.0
C2944 C 0.09453 0.06992 0.51577 0.0
C2945 C 0.11197 0.08178 0.51635 0.0
C2946 C 0.15385 0.08402 0.49579 0.0
C2947 C 0.19357 0.12914 0.50187 0.0
C2948 C 0.17523 0.11615 0.50199 0.0
C2949 C 0.12165 0.07932 0.50127 0.0
C2950 C 0.14018 0.09191 0.50179 0.0
H2951 H 0.22135 0.17262 0.52471 0.0
H2952 H 0.1931 0.14961 0.52674 0.0
H2953 H 0.18141 0.08929 0.49157 0.0
H2954 H 0.08999 0.04218 0.47255 0.0
H2955 H 0.1204 0.06278 0.4736 0.0
C2956 C 0.19349 0.95037 0.75785 0.0
C2957 C 0.18284 0.95228 0.77234 0.0
C2958 C 0.20292 0.93569 0.75576 0.0
C2959 C 0.2083 0.88997 0.77578 0.0
H2960 H 0.24628 0.89216 0.7451 0.0
C2961 C 0.24379 0.82615 0.76512 0.0
C2962 C 0.26216 0.83023 0.76273 0.0
C2963 C 0.23416 0.8405 0.76542 0.0
C2964 C 0.23583 0.89119 0.75395 0.0
H2965 H 0.1746 0.93937 0.79606 0.0
H2966 H 0.19077 0.91527 0.793 0.0
H2967 H 0.23054 0.91731 0.74727 0.0
H2968 H 0.28416 0.85342 0.75821 0.0
H2969 H 0.26759 0.8779 0.7583 0.0
H2970 H 0.21385 0.8641 0.78272 0.0
C2971 C 0.19178 0.92443 0.78261 0.0
C2972 C 0.22645 0.90583 0.75508 0.0
C2973 C 0.18236 0.93882 0.78456 0.0
C2974 C 0.27018 0.84935 0.76021 0.0
C2975 C 0.26047 0.86359 0.76015 0.0
C2976 C 0.21767 0.87542 0.77466 0.0
C2977 C 0.20233 0.92211 0.76809 0.0
C2978 C 0.21242 0.90588 0.76621 0.0
C2979 C 0.24219 0.85973 0.763 0.0
C2980 C 0.2318 0.87554 0.76379 0.0
H2981 H 0.19445 0.96011 0.74793 0.0
H2982 H 0.21054 0.93498 0.74418 0.0
H2983 H 0.1976 0.88836 0.78427 0.0
H2984 H 0.23683 0.81182 0.76712 0.0
H2985 H 0.22019 0.8363 0.7674 0.0
C2986 C 0.34387 0.97126 0.028 0.0
C2987 C 0.34232 0.95707 0.03925 0.0
C2988 C 0.36082 0.98102 0.02473 0.0
C2989 C 0.40952 0.98483 0.03553 0.0
H2990 H 0.40711 0.98568 0.98228 0.0
C2991 C 0.4663 0.02907 0.00908 0.0
C2992 C 0.47455 0.01985 0.99569 0.0
C2993 C 0.44936 0.0198 0.01232 0.0
C2994 C 0.40786 0.985 0.99704 0.0
H2995 H 0.35661 0.94628 0.06028 0.0
H2996 H 0.38598 0.96261 0.05422 0.0
H2997 H 0.37942 0.97583 0.99571 0.0
H2998 H 0.47095 0.9951 0.97339 0.0
H2999 H 0.44069 0.97878 0.97911 0.0
H3000 H 0.43798 0.99342 0.03663 0.0
C3001 C 0.3745 0.96585 0.04724 0.0
C3002 C 0.39211 0.97993 0.00488 0.0
C3003 C 0.35758 0.95649 0.05081 0.0
C3004 C 0.46483 1.0023 0.98398 0.0
C3005 C 0.44769 0.99295 0.98726 0.0
C3006 C 0.42518 0.98941 0.02762 0.0
C3007 C 0.37609 0.97663 0.03278 0.0
C3008 C 0.39281 0.98081 0.02438 0.0
C3009 C 0.44045 1.00128 0.00217 0.0
C3010 C 0.42437 0.99064 0.00861 0.0
H3011 H 0.33221 0.97268 0.01954 0.0
H3012 H 0.36178 0.99036 0.01443 0.0
H3013 H 0.41064 0.98537 0.0505 0.0
H3014 H 0.47339 0.04281 0.01799 0.0
H3015 H 0.44363 0.02663 0.02353 0.0
C3016 C 0.87517 0.55552 0.75683 0.0
C3017 C 0.89322 0.56273 0.76502 0.0
C3018 C 0.86525 0.56826 0.7528 0.0
C3019 C 0.86407 0.61857 0.76529 0.0
H3020 H 0.83794 0.61011 0.71532 0.0
C3021 C 0.83642 0.6772 0.74097 0.0
C3022 C 0.81796 0.67115 0.73422 0.0
C3023 C 0.84593 0.66357 0.74263 0.0
C3024 C 0.84514 0.61255 0.72932 0.0
H3025 H 0.91493 0.58869 0.77615 0.0
H3026 H 0.89758 0.61093 0.76929 0.0
H3027 H 0.85293 0.58623 0.72396 0.0
H3028 H 0.7953 0.6462 0.72262 0.0
H3029 H 0.81205 0.62245 0.72527 0.0
H3030 H 0.85636 0.64482 0.7707 0.0
C3031 C 0.89111 0.59549 0.76589 0.0
C3032 C 0.85358 0.5989 0.73429 0.0
C3033 C 0.90105 0.58279 0.76971 0.0
C3034 C 0.80954 0.65132 0.72776 0.0
C3035 C 0.81909 0.6377 0.72931 0.0
C3036 C 0.85569 0.63219 0.76032 0.0
C3037 C 0.87323 0.58833 0.75718 0.0
C3038 C 0.86323 0.60193 0.75227 0.0
C3039 C 0.83716 0.64372 0.73744 0.0
C3040 C 0.84631 0.62938 0.74226 0.0
H3041 H 0.86887 0.54007 0.75306 0.0
H3042 H 0.85142 0.56246 0.74621 0.0
H3043 H 0.87121 0.62104 0.77932 0.0
H3044 H 0.84335 0.69242 0.74565 0.0
H3045 H 0.85999 0.66852 0.7486 0.0
C3046 C 0.8277 0.65034 0.01211 0.0
C3047 C 0.8302 0.66344 0.99964 0.0
C3048 C 0.84092 0.64109 0.01649 0.0
C3049 C 0.88041 0.62865 0.99859 0.0
H3050 H 0.89258 0.62104 0.04913 0.0
C3051 C 0.94278 0.60448 0.01845 0.0
C3052 C 0.93956 0.58738 0.02589 0.0
C3053 C 0.92991 0.61477 0.01769 0.0
C3054 C 0.88924 0.62304 0.03496 0.0
H3055 H 0.84852 0.67697 0.98194 0.0
H3056 H 0.87145 0.66104 0.98959 0.0
H3057 H 0.86864 0.63642 0.04229 0.0
H3058 H 0.92081 0.56865 0.03983 0.0
H3059 H 0.89849 0.58699 0.03884 0.0
H3060 H 0.90113 0.6156 0.9913 0.0
C3061 C 0.85925 0.65769 0.99588 0.0
C3062 C 0.87549 0.63174 0.031 0.0
C3063 C 0.84612 0.66695 0.99157 0.0
C3064 C 0.92377 0.58175 0.034 0.0
C3065 C 0.91095 0.59221 0.03341 0.0
C3066 C 0.89421 0.62021 0.00259 0.0
C3067 C 0.85686 0.64463 0.0084 0.0
C3068 C 0.871 0.63478 0.01276 0.0
C3069 C 0.91361 0.60837 0.02458 0.0
C3070 C 0.89888 0.61744 0.02081 0.0
H3071 H 0.81563 0.6474 0.01866 0.0
H3072 H 0.83854 0.631 0.02606 0.0
H3073 H 0.87706 0.63027 0.9843 0.0
H3074 H 0.955 0.60957 0.01259 0.0
H3075 H 0.93247 0.62743 0.01115 0.0
C3076 C 0.18685 0.0762 0.75305 0.0
C3077 C 0.18778 0.06787 0.76921 0.0
C3078 C 0.19707 0.09525 0.75277 0.0
C3079 C 0.22221 0.14256 0.78524 0.0
H3080 H 0.23747 0.15803 0.73963 0.0
C3081 C 0.26978 0.21961 0.78574 0.0
C3082 C 0.26828 0.22896 0.77035 0.0
C3083 C 0.2596 0.20041 0.78532 0.0
C3084 C 0.23317 0.15416 0.75251 0.0
H3085 H 0.20031 0.07373 0.79799 0.0
H3086 H 0.21848 0.10666 0.79753 0.0
H3087 H 0.22195 0.12425 0.73949 0.0
H3088 H 0.25437 0.22486 0.74227 0.0
H3089 H 0.23657 0.19135 0.74145 0.0
H3090 H 0.23348 0.17243 0.79827 0.0
C3091 C 0.20978 0.09846 0.78488 0.0
C3092 C 0.22417 0.13454 0.75246 0.0
C3093 C 0.19958 0.07928 0.78509 0.0
C3094 C 0.25592 0.21835 0.75448 0.0
C3095 C 0.24579 0.19893 0.75397 0.0
C3096 C 0.23125 0.16213 0.7853 0.0
C3097 C 0.20853 0.10705 0.76879 0.0
C3098 C 0.21851 0.12821 0.76885 0.0
C3099 C 0.24748 0.18948 0.76939 0.0
C3100 C 0.23705 0.16842 0.76898 0.0
H3101 H 0.17755 0.06817 0.7407 0.0
H3102 H 0.19526 0.10097 0.74011 0.0
H3103 H 0.21785 0.1388 0.79813 0.0
H3104 H 0.27914 0.22712 0.79821 0.0
H3105 H 0.26169 0.19396 0.79746 0.0
C3106 C 0.40022 0.96232 0.24232 0.0
C3107 C 0.40636 0.97862 0.25655 0.0
C3108 C 0.3841 0.94857 0.24289 0.0
C3109 C 0.34398 0.94017 0.26866 0.0
H3110 H 0.34114 0.8866 0.24941 0.0
C3111 C 0.30992 0.86568 0.2872 0.0
C3112 C 0.30197 0.85161 0.27117 0.0
C3113 C 0.31604 0.88505 0.28557 0.0
C3114 C 0.34168 0.90158 0.25457 0.0
H3115 H 0.40147 0.99312 0.283 0.0
H3116 H 0.37429 0.96873 0.28469 0.0
H3117 H 0.36707 0.91167 0.24588 0.0
H3118 H 0.29099 0.84685 0.24177 0.0
H3119 H 0.30227 0.88052 0.23891 0.0
H3120 H 0.31902 0.92926 0.27887 0.0
C3121 C 0.38095 0.96688 0.27246 0.0
C3122 C 0.35649 0.916 0.25245 0.0
C3123 C 0.39664 0.98079 0.27158 0.0
C3124 C 0.29774 0.85737 0.2542 0.0
C3125 C 0.30378 0.87667 0.25262 0.0
C3126 C 0.32931 0.92556 0.27125 0.0
C3127 C 0.37434 0.95064 0.25806 0.0
C3128 C 0.35791 0.9355 0.25946 0.0
C3129 C 0.31421 0.89024 0.26793 0.0
C3130 C 0.32816 0.90625 0.26411 0.0
H3131 H 0.40767 0.9604 0.23072 0.0
H3132 H 0.37932 0.93637 0.23139 0.0
H3133 H 0.34446 0.95506 0.27402 0.0
H3134 H 0.3128 0.8616 0.30058 0.0
H3135 H 0.32411 0.89544 0.29751 0.0
C3136 C 0.56047 0.3625 0.59604 0.0
C3137 C 0.56985 0.35127 0.58588 0.0
C3138 C 0.55547 0.37745 0.58879 0.0
C3139 C 0.54891 0.39592 0.54462 0.0
H3140 H 0.55779 0.44534 0.57798 0.0
C3141 C 0.53212 0.46313 0.52119 0.0
C3142 C 0.54525 0.48091 0.52764 0.0
C3143 C 0.53356 0.44651 0.52801 0.0
C3144 C 0.55527 0.43165 0.56846 0.0
H3145 H 0.58074 0.34644 0.55985 0.0
H3146 H 0.57208 0.37237 0.54733 0.0
H3147 H 0.56294 0.41765 0.59035 0.0
H3148 H 0.57017 0.49511 0.5463 0.0
H3149 H 0.57265 0.4663 0.55807 0.0
H3150 H 0.54182 0.41017 0.5226 0.0
C3151 C 0.56857 0.36972 0.56086 0.0
C3152 C 0.55801 0.4157 0.5756 0.0
C3153 C 0.57372 0.35498 0.56817 0.0
C3154 C 0.55985 0.48166 0.54094 0.0
C3155 C 0.56119 0.46516 0.54786 0.0
C3156 C 0.54614 0.41189 0.53746 0.0
C3157 C 0.55952 0.38126 0.57113 0.0
C3158 C 0.55512 0.39772 0.56374 0.0
C3159 C 0.54803 0.44741 0.54158 0.0
C3160 C 0.54959 0.43002 0.54926 0.0
H3161 H 0.5572 0.35992 0.60966 0.0
H3162 H 0.54836 0.38598 0.59698 0.0
H3163 H 0.54635 0.3822 0.53513 0.0
H3164 H 0.52072 0.46206 0.51093 0.0
H3165 H 0.52318 0.43305 0.52294 0.0
C3166 C 0.4433 0.74816 0.36735 0.0
C3167 C 0.45622 0.76376 0.37886 0.0
C3168 C 0.42874 0.75134 0.35659 0.0
C3169 C 0.41152 0.79013 0.33906 0.0
H3170 H 0.36551 0.75195 0.33429 0.0
C3171 C 0.34399 0.80019 0.30463 0.0
C3172 C 0.33337 0.78393 0.29171 0.0
C3173 C 0.35902 0.79879 0.3162 0.0
C3174 C 0.37827 0.76273 0.33541 0.0
H3175 H 0.46416 0.79479 0.3884 0.0
H3176 H 0.43883 0.80045 0.36983 0.0
H3177 H 0.39187 0.74719 0.3516 0.0
H3178 H 0.32993 0.75348 0.28105 0.0
H3179 H 0.35567 0.75102 0.30113 0.0
H3180 H 0.39769 0.8057 0.32291 0.0
C3181 C 0.44 0.78579 0.36859 0.0
C3182 C 0.39347 0.75994 0.34526 0.0
C3183 C 0.45455 0.78259 0.37924 0.0
C3184 C 0.33782 0.76628 0.29087 0.0
C3185 C 0.35257 0.76484 0.30248 0.0
C3186 C 0.39624 0.79298 0.32928 0.0
C3187 C 0.42667 0.77019 0.35734 0.0
C3188 C 0.4104 0.77345 0.34703 0.0
C3189 C 0.36346 0.78105 0.31523 0.0
C3190 C 0.37947 0.77915 0.32709 0.0
H3191 H 0.44414 0.73347 0.36713 0.0
H3192 H 0.41897 0.73897 0.34789 0.0
H3193 H 0.42429 0.80081 0.33996 0.0
H3194 H 0.34093 0.814 0.30552 0.0
H3195 H 0.36711 0.81154 0.32594 0.0
C3196 C 0.05113 0.73802 0.08294 0.0
C3197 C 0.06051 0.75227 0.07381 0.0
C3198 C 0.04681 0.71851 0.07466 0.0
C3199 C 0.0638 0.68692 0.04139 0.0
H3200 H 0.02273 0.64741 0.04959 0.0
C3201 C 0.05255 0.60511 0.01433 0.0
C3202 C 0.04641 0.59304 0.02687 0.0
C3203 C 0.05353 0.62478 0.01854 0.0
C3204 C 0.03431 0.65832 0.0473 0.0
H3205 H 0.07123 0.75758 0.04821 0.0
H3206 H 0.06312 0.72349 0.03344 0.0
H3207 H 0.0238 0.68147 0.05839 0.0
H3208 H 0.03701 0.59138 0.05362 0.0
H3209 H 0.03918 0.62592 0.06136 0.0
H3210 H 0.07441 0.66375 0.03055 0.0
C3211 C 0.05968 0.72733 0.04726 0.0
C3212 C 0.0349 0.67778 0.05229 0.0
C3213 C 0.06423 0.74683 0.05566 0.0
C3214 C 0.04175 0.60067 0.04384 0.0
C3215 C 0.04283 0.62029 0.04813 0.0
C3216 C 0.06317 0.66746 0.03634 0.0
C3217 C 0.05157 0.71294 0.05698 0.0
C3218 C 0.0498 0.6923 0.04968 0.0
C3219 C 0.0484 0.63245 0.03536 0.0
C3220 C 0.04858 0.65301 0.03957 0.0
H3221 H 0.04814 0.74182 0.09698 0.0
H3222 H 0.04072 0.70778 0.0826 0.0
H3223 H 0.07563 0.69775 0.03951 0.0
H3224 H 0.05602 0.59923 0.00108 0.0
H3225 H 0.05776 0.63383 0.00843 0.0
C3226 C 0.06107 0.26519 0.87239 0.0
C3227 C 0.05728 0.28163 0.88208 0.0
C3228 C 0.07712 0.26688 0.86473 0.0
C3229 C 0.12325 0.29928 0.8671 0.0
H3230 H 0.12062 0.26933 0.81771 0.0
C3231 C 0.18318 0.30763 0.82318 0.0
C3232 C 0.18542 0.2902 0.81366 0.0
C3233 C 0.16817 0.30755 0.8325 0.0
C3234 C 0.12166 0.27767 0.83159 0.0
H3235 H 0.06771 0.31273 0.89162 0.0
H3236 H 0.09551 0.31562 0.87818 0.0
H3237 H 0.09348 0.267 0.83215 0.0
H3238 H 0.1736 0.25912 0.80648 0.0
H3239 H 0.14777 0.25899 0.82266 0.0
H3240 H 0.15157 0.30996 0.86639 0.0
C3241 C 0.08615 0.30141 0.87656 0.0
C3242 C 0.10606 0.27629 0.83991 0.0
C3243 C 0.07008 0.29974 0.88413 0.0
C3244 C 0.17244 0.27279 0.81382 0.0
C3245 C 0.15748 0.27273 0.82294 0.0
C3246 C 0.13893 0.30067 0.85874 0.0
C3247 C 0.08984 0.28503 0.86663 0.0
C3248 C 0.10662 0.2869 0.85784 0.0
C3249 C 0.15498 0.29009 0.83221 0.0
C3250 C 0.13835 0.28968 0.84095 0.0
H3251 H 0.05163 0.25101 0.87069 0.0
H3252 H 0.07962 0.2539 0.85741 0.0
H3253 H 0.12422 0.3076 0.88099 0.0
H3254 H 0.193 0.32128 0.82341 0.0
H3255 H 0.16666 0.3212 0.83949 0.0
C3256 C 0.57269 0.75666 0.90081 0.0
C3257 C 0.57685 0.77395 0.91392 0.0
C3258 C 0.56659 0.73891 0.90647 0.0
C3259 C 0.54112 0.71908 0.94126 0.0
H3260 H 0.55978 0.67464 0.92998 0.0
C3261 C 0.53001 0.65788 0.98276 0.0
C3262 C 0.52979 0.63916 0.97414 0.0
C3263 C 0.53237 0.67285 0.97264 0.0
C3264 C 0.5541 0.68674 0.93285 0.0
H3265 H 0.57831 0.78673 0.94298 0.0
H3266 H 0.5676 0.75565 0.95299 0.0
H3267 H 0.57257 0.70406 0.91814 0.0
H3268 H 0.53023 0.62101 0.94776 0.0
H3269 H 0.53431 0.6473 0.92997 0.0
H3270 H 0.5227 0.70195 0.956 0.0
C3271 C 0.56918 0.75574 0.93843 0.0
C3272 C 0.56155 0.70361 0.92621 0.0
C3273 C 0.57553 0.77342 0.93281 0.0
C3274 C 0.53069 0.63541 0.95484 0.0
C3275 C 0.53304 0.65043 0.94468 0.0
C3276 C 0.53354 0.70219 0.94772 0.0
C3277 C 0.56418 0.73841 0.92521 0.0
C3278 C 0.55545 0.72006 0.93084 0.0
C3279 C 0.53454 0.66943 0.95366 0.0
C3280 C 0.54031 0.68603 0.94406 0.0
H3281 H 0.57326 0.75695 0.8861 0.0
H3282 H 0.56275 0.7257 0.89606 0.0
H3283 H 0.53592 0.73149 0.94461 0.0
H3284 H 0.52957 0.6613 0.99764 0.0
H3285 H 0.53368 0.68735 0.98007 0.0
C3286 C 0.05202 0.74842 0.67343 0.0
C3287 C 0.0391 0.7558 0.68168 0.0
C3288 C 0.06997 0.75528 0.68134 0.0
C3289 C 0.09704 0.77341 0.72621 0.0
H3290 H 0.13611 0.78202 0.69657 0.0
C3291 C 0.16302 0.75613 0.74531 0.0
C3292 C 0.17878 0.76713 0.74024 0.0
C3293 C 0.14678 0.76018 0.74072 0.0
C3294 C 0.12543 0.78012 0.70517 0.0
H3295 H 0.0343 0.77627 0.70407 0.0
H3296 H 0.06589 0.78778 0.71861 0.0
H3297 H 0.1058 0.77971 0.68237 0.0
H3298 H 0.19053 0.79166 0.72767 0.0
H3299 H 0.16204 0.7991 0.71991 0.0
H3300 H 0.11651 0.77312 0.74883 0.0
C3301 C 0.06215 0.77692 0.70591 0.0
C3302 C 0.1081 0.77862 0.69698 0.0
C3303 C 0.04421 0.77035 0.6977 0.0
C3304 C 0.17837 0.78292 0.73149 0.0
C3305 C 0.16215 0.78712 0.72706 0.0
C3306 C 0.11437 0.7749 0.73441 0.0
C3307 C 0.07512 0.76934 0.69781 0.0
C3308 C 0.09372 0.77463 0.70728 0.0
C3309 C 0.14614 0.77544 0.73118 0.0
C3310 C 0.12861 0.77762 0.72378 0.0
H3311 H 0.04823 0.7374 0.66083 0.0
H3312 H 0.07972 0.74908 0.67495 0.0
H3313 H 0.0861 0.77017 0.73436 0.0
H3314 H 0.16312 0.74379 0.75193 0.0
H3315 H 0.13463 0.7507 0.74375 0.0
C3316 C 0.09238 0.38908 0.40651 0.0
C3317 C 0.09539 0.37696 0.41894 0.0
C3318 C 0.08708 0.40558 0.41293 0.0
C3319 C 0.06076 0.41858 0.44826 0.0
H3320 H 0.07499 0.47054 0.43758 0.0
C3321 C 0.0287 0.4775 0.47769 0.0
C3322 C 0.04203 0.493 0.48881 0.0
C3323 C 0.03359 0.46397 0.46505 0.0
C3324 C 0.07075 0.45595 0.44036 0.0
H3325 H 0.09731 0.3732 0.44777 0.0
H3326 H 0.08874 0.40243 0.4592 0.0
H3327 H 0.08995 0.44656 0.4249 0.0
H3328 H 0.07046 0.50762 0.49502 0.0
H3329 H 0.07903 0.48429 0.47266 0.0
H3330 H 0.04209 0.42811 0.46434 0.0
C3331 C 0.0901 0.39909 0.44452 0.0
C3332 C 0.0793 0.44235 0.43321 0.0
C3333 C 0.09538 0.38267 0.43811 0.0
C3334 C 0.06009 0.49553 0.48666 0.0
C3335 C 0.06492 0.48238 0.47373 0.0
C3336 C 0.05215 0.43212 0.45532 0.0
C3337 C 0.08478 0.40987 0.43176 0.0
C3338 C 0.07483 0.42384 0.43774 0.0
C3339 C 0.05177 0.46632 0.46312 0.0
C3340 C 0.05757 0.45108 0.45197 0.0
H3341 H 0.09189 0.38454 0.39158 0.0
H3342 H 0.0831 0.41379 0.40289 0.0
H3343 H 0.05675 0.40414 0.45146 0.0
H3344 H 0.01467 0.47554 0.47925 0.0
H3345 H 0.0233 0.45156 0.45706 0.0
C3346 C 0.43723 0.23148 0.19084 0.0
C3347 C 0.44551 0.24315 0.17881 0.0
C3348 C 0.42214 0.23461 0.19786 0.0
C3349 C 0.38691 0.25873 0.19468 0.0
H3350 H 0.39683 0.26811 0.24903 0.0
C3351 C 0.34423 0.29195 0.24083 0.0
C3352 C 0.33528 0.27854 0.25107 0.0
C3353 C 0.35908 0.28917 0.23306 0.0
C3354 C 0.39403 0.26553 0.23389 0.0
H3355 H 0.44362 0.26578 0.16304 0.0
H3356 H 0.41727 0.27157 0.17583 0.0
H3357 H 0.41816 0.25752 0.23046 0.0
H3358 H 0.33541 0.25293 0.26282 0.0
H3359 H 0.36196 0.24828 0.24939 0.0
H3360 H 0.36276 0.26688 0.19824 0.0
C3361 C 0.42254 0.26006 0.17973 0.0
C3362 C 0.40601 0.25935 0.22333 0.0
C3363 C 0.43766 0.25689 0.17264 0.0
C3364 C 0.34212 0.26326 0.25479 0.0
C3365 C 0.35723 0.26069 0.24726 0.0
C3366 C 0.37495 0.26501 0.20528 0.0
C3367 C 0.41527 0.24948 0.19298 0.0
C3368 C 0.40236 0.2557 0.20372 0.0
C3369 C 0.36522 0.27322 0.23579 0.0
C3370 C 0.37848 0.26825 0.22488 0.0
H3371 H 0.44275 0.22042 0.19543 0.0
H3372 H 0.41638 0.22612 0.20785 0.0
H3373 H 0.38402 0.25599 0.17954 0.0
H3374 H 0.33912 0.30385 0.23777 0.0
H3375 H 0.36528 0.29892 0.22423 0.0
C3376 C 0.62885 0.50354 0.33552 0.0
C3377 C 0.62185 0.51073 0.32034 0.0
C3378 C 0.62162 0.50449 0.3529 0.0
C3379 C 0.59109 0.52991 0.37989 0.0
H3380 H 0.59296 0.49441 0.41399 0.0
C3381 C 0.54981 0.5289 0.44335 0.0
C3382 C 0.55645 0.5249 0.46059 0.0
C3383 C 0.5587 0.52743 0.42737 0.0
C3384 C 0.59239 0.50466 0.4048 0.0
H3385 H 0.60072 0.52376 0.31228 0.0
H3386 H 0.58842 0.52495 0.34122 0.0
H3387 H 0.60606 0.49075 0.38482 0.0
H3388 H 0.578 0.51548 0.47372 0.0
H3389 H 0.59349 0.51269 0.44584 0.0
H3390 H 0.57733 0.5437 0.39959 0.0
C3391 C 0.59987 0.51915 0.34038 0.0
C3392 C 0.60002 0.50254 0.38783 0.0
C3393 C 0.607 0.51823 0.32331 0.0
C3394 C 0.57255 0.51923 0.46104 0.0
C3395 C 0.58134 0.51734 0.44479 0.0
C3396 C 0.58339 0.53191 0.39667 0.0
C3397 C 0.6071 0.51272 0.35591 0.0
C3398 C 0.59946 0.51503 0.37476 0.0
C3399 C 0.5746 0.52138 0.42747 0.0
C3400 C 0.5837 0.51932 0.4096 0.0
H3401 H 0.6402 0.49762 0.3342 0.0
H3402 H 0.62781 0.4992 0.36415 0.0
H3403 H 0.59058 0.54043 0.37101 0.0
H3404 H 0.53733 0.53293 0.44207 0.0
H3405 H 0.55262 0.53048 0.41462 0.0
C3406 C 0.29828 0.85946 0.05352 0.0
C3407 C 0.29149 0.87492 0.05006 0.0
C3408 C 0.30461 0.85857 0.07175 0.0
C3409 C 0.3074 0.87818 0.12155 0.0
H3410 H 0.35574 0.87232 0.12324 0.0
C3411 C 0.3392 0.86813 0.18866 0.0
C3412 C 0.34099 0.84919 0.18531 0.0
C3413 C 0.33978 0.87862 0.17417 0.0
C3414 C 0.34237 0.87426 0.123 0.0
H3415 H 0.28289 0.89942 0.06304 0.0
H3416 H 0.29379 0.89765 0.09484 0.0
H3417 H 0.33868 0.87198 0.09329 0.0
H3418 H 0.3485 0.82802 0.16566 0.0
H3419 H 0.34959 0.84615 0.14065 0.0
H3420 H 0.31062 0.87946 0.15104 0.0
C3421 C 0.29468 0.88658 0.08348 0.0
C3422 C 0.33253 0.87378 0.10589 0.0
C3423 C 0.2883 0.88746 0.06524 0.0
C3424 C 0.34683 0.84248 0.16861 0.0
C3425 C 0.34747 0.85297 0.15418 0.0
C3426 C 0.3172 0.87855 0.13866 0.0
C3427 C 0.30401 0.87297 0.08667 0.0
C3428 C 0.31473 0.87499 0.10498 0.0
C3429 C 0.34223 0.87022 0.15632 0.0
C3430 C 0.33453 0.87584 0.13946 0.0
H3431 H 0.30056 0.84936 0.04209 0.0
H3432 H 0.31119 0.84747 0.07402 0.0
H3433 H 0.29377 0.87934 0.12119 0.0
H3434 H 0.33527 0.87388 0.2017 0.0
H3435 H 0.33625 0.89221 0.17631 0.0
C3436 C 0.95159 0.51053 0.83058 0.0
C3437 C 0.95165 0.5287 0.82638 0.0
C3438 C 0.95399 0.50828 0.84904 0.0
C3439 C 0.9609 0.53271 0.89846 0.0
H3440 H 0.00135 0.51057 0.90078 0.0
C3441 C 0.0188 0.54858 0.95999 0.0
C3442 C 0.02207 0.53201 0.96542 0.0
C3443 C 0.00607 0.54663 0.9445 0.0
C3444 C 0.9899 0.51651 0.90031 0.0
H3445 H 0.95216 0.55823 0.83745 0.0
H3446 H 0.95747 0.55466 0.87023 0.0
H3447 H 0.98435 0.50885 0.8707 0.0
H3448 H 0.01493 0.50064 0.95984 0.0
H3449 H 0.99337 0.49725 0.93203 0.0
H3450 H 0.96743 0.54124 0.92833 0.0
C3451 C 0.9552 0.54208 0.85928 0.0
C3452 C 0.98007 0.51541 0.88317 0.0
C3453 C 0.95239 0.54422 0.84065 0.0
C3454 C 0.01258 0.51354 0.95556 0.0
C3455 C 1.00024 0.5116 0.93989 0.0
C3456 C 0.97092 0.53395 0.91574 0.0
C3457 C 0.95701 0.52435 0.86349 0.0
C3458 C 0.96558 0.52361 0.88205 0.0
C3459 C 0.99697 0.52812 0.93428 0.0
C3460 C 0.98554 0.52599 0.91662 0.0
H3461 H 0.95056 0.4983 0.81956 0.0
H3462 H 0.95493 0.49437 0.85199 0.0
H3463 H 0.94979 0.53914 0.89787 0.0
H3464 H 0.02583 0.56289 0.96786 0.0
H3465 H 0.00374 0.55949 0.94016 0.0
C3466 C 0.30124 0.22064 0.56164 0.0
C3467 C 0.29434 0.23062 0.54898 0.0
C3468 C 0.30293 0.22721 0.58092 0.0
C3469 C 0.27996 0.25226 0.6128 0.0
H3470 H 0.31819 0.25272 0.65115 0.0
C3471 C 0.27817 0.27711 0.69145 0.0
C3472 C 0.28618 0.26802 0.70408 0.0
C3473 C 0.27957 0.27302 0.6724 0.0
C3474 C 0.30726 0.25238 0.64062 0.0
H3475 H 0.28579 0.25645 0.54653 0.0
H3476 H 0.28883 0.26787 0.58012 0.0
H3477 H 0.32197 0.24591 0.61827 0.0
H3478 H 0.30081 0.24669 0.7069 0.0
H3479 H 0.30245 0.23877 0.67368 0.0
H3480 H 0.26494 0.258 0.63491 0.0
C3481 C 0.29251 0.25476 0.57514 0.0
C3482 C 0.30953 0.24863 0.62182 0.0
C3483 C 0.29086 0.24825 0.55592 0.0
C3484 C 0.29478 0.25411 0.69738 0.0
C3485 C 0.29585 0.24971 0.67838 0.0
C3486 C 0.27759 0.25576 0.63156 0.0
C3487 C 0.29776 0.24384 0.58777 0.0
C3488 C 0.29592 0.2486 0.60776 0.0
C3489 C 0.2887 0.25948 0.66571 0.0
C3490 C 0.2912 0.25584 0.64571 0.0
H3491 H 0.30411 0.20704 0.55673 0.0
H3492 H 0.30707 0.21855 0.5904 0.0
H3493 H 0.26909 0.25192 0.60218 0.0
H3494 H 0.27154 0.28796 0.6964 0.0
H3495 H 0.27403 0.28093 0.66307 0.0
C3496 C 0.63127 0.51196 0.20077 0.0
C3497 C 0.62027 0.50203 0.21241 0.0
C3498 C 0.62413 0.51395 0.18277 0.0
C3499 C 0.58318 0.49496 0.14506 0.0
H3500 H 0.60238 0.54326 0.12858 0.0
C3501 C 0.55689 0.50611 0.07015 0.0
C3502 C 0.55916 0.52486 0.06605 0.0
C3503 C 0.56407 0.50311 0.08767 0.0
C3504 C 0.5965 0.52966 0.13276 0.0
H3505 H 0.59287 0.48647 0.21372 0.0
H3506 H 0.58064 0.48906 0.18238 0.0
H3507 H 0.61489 0.53813 0.15849 0.0
H3508 H 0.57093 0.55523 0.07794 0.0
H3509 H 0.58293 0.55027 0.10822 0.0
H3510 H 0.56435 0.48666 0.11984 0.0
C3511 C 0.59489 0.49533 0.18699 0.0
C3512 C 0.60405 0.52658 0.1501 0.0
C3513 C 0.60196 0.49369 0.20508 0.0
C3514 C 0.56877 0.54052 0.08034 0.0
C3515 C 0.57593 0.53756 0.09789 0.0
C3516 C 0.57556 0.49806 0.12776 0.0
C3517 C 0.60568 0.50593 0.17555 0.0
C3518 C 0.59764 0.50912 0.15666 0.0
C3519 C 0.57391 0.51875 0.10207 0.0
C3520 C 0.58203 0.51548 0.12103 0.0
H3521 H 0.64525 0.51924 0.20603 0.0
H3522 H 0.63312 0.52209 0.17463 0.0
H3523 H 0.57772 0.48122 0.14923 0.0
H3524 H 0.54956 0.49358 0.05972 0.0
H3525 H 0.5621 0.4883 0.0896 0.0
C3526 C 0.29604 0.89156 0.94504 0.0
C3527 C 0.31116 0.89362 0.95812 0.0
C3528 C 0.29494 0.88201 0.92674 0.0
C3529 C 0.32019 0.86113 0.89255 0.0
H3530 H 0.27432 0.82235 0.87691 0.0
C3531 C 0.30721 0.79764 0.82997 0.0
C3532 C 0.29204 0.79615 0.81727 0.0
C3533 C 0.31016 0.80973 0.84745 0.0
C3534 C 0.28715 0.83316 0.88111 0.0
H3535 H 0.33775 0.88913 0.96191 0.0
H3536 H 0.33559 0.87207 0.93014 0.0
H3537 H 0.27882 0.84561 0.90588 0.0
H3538 H 0.26801 0.80549 0.81224 0.0
H3539 H 0.27291 0.82632 0.84292 0.0
H3540 H 0.3285 0.84828 0.86775 0.0
C3541 C 0.32463 0.87785 0.93394 0.0
C3542 C 0.28969 0.84658 0.89755 0.0
C3543 C 0.3258 0.88752 0.95219 0.0
C3544 C 0.27965 0.80636 0.82213 0.0
C3545 C 0.28246 0.81821 0.83958 0.0
C3546 C 0.31766 0.84758 0.8761 0.0
C3547 C 0.30887 0.8743 0.92131 0.0
C3548 C 0.30617 0.86079 0.90336 0.0
C3549 C 0.29784 0.82018 0.85227 0.0
C3550 C 0.30107 0.83361 0.87023 0.0
H3551 H 0.2847 0.89645 0.94915 0.0
H3552 H 0.28282 0.87989 0.91708 0.0
H3553 H 0.33301 0.87196 0.89672 0.0
H3554 H 0.31699 0.79 0.82616 0.0
H3555 H 0.32207 0.81105 0.85711 0.0
C3556 C 0.94596 0.51188 0.72372 0.0
C3557 C 0.95165 0.53176 0.73136 0.0
C3558 C 0.93873 0.50553 0.70498 0.0
C3559 C 0.95555 0.52544 0.66768 0.0
H3560 H 0.93231 0.47367 0.63953 0.0
C3561 C 0.99223 0.49467 0.61617 0.0
C3562 C 0.98406 0.49404 0.59801 0.0
C3563 C 0.98197 0.49355 0.63074 0.0
C3564 C 0.93876 0.48817 0.64726 0.0
H3565 H 0.95173 0.56037 0.72644 0.0
H3566 H 0.93996 0.54937 0.69309 0.0
H3567 H 0.92023 0.4862 0.6673 0.0
H3568 H 0.95858 0.48783 0.5801 0.0
H3569 H 0.94063 0.48609 0.60581 0.0
H3570 H 0.9746 0.52713 0.64849 0.0
C3571 C 0.94082 0.53866 0.7017 0.0
C3572 C 0.93178 0.49543 0.66292 0.0
C3573 C 0.94769 0.54499 0.7207 0.0
C3574 C 0.96519 0.48882 0.59412 0.0
C3575 C 0.95491 0.48772 0.60876 0.0
C3576 C 0.96256 0.51816 0.65231 0.0
C3577 C 0.9379 0.51907 0.6934 0.0
C3578 C 0.94059 0.51387 0.67372 0.0
C3579 C 0.9635 0.49175 0.62725 0.0
C3580 C 0.95468 0.49922 0.64249 0.0
H3581 H 0.94874 0.50133 0.73169 0.0
H3582 H 0.93644 0.49033 0.69914 0.0
H3583 H 0.96291 0.53954 0.67574 0.0
H3584 H 0.00672 0.49855 0.6196 0.0
H3585 H 0.98877 0.49641 0.64497 0.0
C3586 C 0.30049 0.22625 0.44552 0.0
C3587 C 0.28528 0.21137 0.44657 0.0
C3588 C 0.30297 0.23257 0.42856 0.0
C3589 C 0.28689 0.21913 0.37735 0.0
H3590 H 0.30189 0.27464 0.3793 0.0
C3591 C 0.27859 0.25427 0.31239 0.0
C3592 C 0.29331 0.26922 0.31024 0.0
C3593 C 0.27842 0.24671 0.32888 0.0
C3594 C 0.29784 0.25909 0.37855 0.0
H3595 H 0.26088 0.19126 0.43117 0.0
H3596 H 0.26517 0.20205 0.40153 0.0
H3597 H 0.30097 0.26201 0.40836 0.0
H3598 H 0.31942 0.28789 0.32341 0.0
H3599 H 0.31907 0.27475 0.35216 0.0
H3600 H 0.28339 0.21629 0.34752 0.0
C3601 C 0.27537 0.20871 0.41354 0.0
C3602 C 0.2974 0.25185 0.3952 0.0
C3603 C 0.27288 0.20251 0.43047 0.0
C3604 C 0.30789 0.27636 0.32471 0.0
C3605 C 0.30765 0.26894 0.34122 0.0
C3606 C 0.28722 0.22638 0.36073 0.0
C3607 C 0.29025 0.22408 0.41244 0.0
C3608 C 0.29183 0.23177 0.39479 0.0
C3609 C 0.29289 0.2541 0.34351 0.0
C3610 C 0.29263 0.24643 0.36116 0.0
H3611 H 0.31001 0.2335 0.45795 0.0
H3612 H 0.31465 0.24433 0.42815 0.0
H3613 H 0.28278 0.20358 0.37653 0.0
H3614 H 0.26716 0.24859 0.30145 0.0
H3615 H 0.2668 0.23536 0.33035 0.0
C3616 C 0.33451 0.62617 0.51738 0.0
C3617 C 0.31713 0.6138 0.51139 0.0
C3618 C 0.34941 0.61975 0.51358 0.0
C3619 C 0.36401 0.57614 0.50261 0.0
H3620 H 0.40058 0.60779 0.47931 0.0
C3621 C 0.41801 0.54565 0.47496 0.0
C3622 C 0.43563 0.55684 0.48206 0.0
C3623 C 0.4038 0.55388 0.47594 0.0
C3624 C 0.39048 0.59891 0.48588 0.0
H3625 H 0.30154 0.58492 0.49757 0.0
H3626 H 0.32764 0.57359 0.49121 0.0
H3627 H 0.37513 0.61958 0.48808 0.0
H3628 H 0.4524 0.58586 0.49393 0.0
H3629 H 0.42729 0.60017 0.49617 0.0
H3630 H 0.37924 0.55555 0.50063 0.0
C3631 C 0.32972 0.58824 0.49867 0.0
C3632 C 0.37604 0.60564 0.49094 0.0
C3633 C 0.31484 0.59472 0.50227 0.0
C3634 C 0.4389 0.57681 0.48873 0.0
C3635 C 0.42459 0.58504 0.48982 0.0
C3636 C 0.37838 0.56945 0.49759 0.0
C3637 C 0.34708 0.60083 0.504 0.0
C3638 C 0.36268 0.59422 0.49925 0.0
C3639 C 0.4069 0.57338 0.48421 0.0
C3640 C 0.39165 0.58068 0.48904 0.0
H3641 H 0.33659 0.641 0.52437 0.0
H3642 H 0.36272 0.62959 0.51799 0.0
H3643 H 0.35399 0.56725 0.50927 0.0
H3644 H 0.41498 0.53021 0.46982 0.0
H3645 H 0.39025 0.54471 0.47119 0.0
C3646 C 0.86374 0.91999 0.54415 0.0
C3647 C 0.84869 0.91699 0.53071 0.0
C3648 C 0.88038 0.93199 0.54221 0.0
C3649 C 0.90358 0.96821 0.51476 0.0
H3650 H 0.94496 0.95251 0.53354 0.0
C3651 C 0.97772 0.00284 0.50326 0.0
C3652 C 0.98984 0.00938 0.52 0.0
C3653 C 0.96018 0.99138 0.5032 0.0
C3654 C 0.93354 0.95708 0.52824 0.0
H3655 H 0.83912 0.92417 0.50467 0.0
H3656 H 0.86836 0.94475 0.50083 0.0
H3657 H 0.91494 0.93347 0.53599 0.0
H3658 H 0.99336 0.00872 0.5496 0.0
H3659 H 0.96305 0.98804 0.54938 0.0
H3660 H 0.92254 0.99158 0.50653 0.0
C3661 C 0.86728 0.93838 0.51327 0.0
C3662 C 0.91626 0.94628 0.5298 0.0
C3663 C 0.85046 0.92665 0.51547 0.0
C3664 C 0.98428 0.00387 0.53653 0.0
C3665 C 0.96696 0.99203 0.53638 0.0
C3666 C 0.92095 0.97885 0.51291 0.0
C3667 C 0.88262 0.94085 0.52641 0.0
C3668 C 0.90098 0.95191 0.52353 0.0
C3669 C 0.95464 0.98581 0.51977 0.0
C3670 C 0.93612 0.97362 0.52001 0.0
H3671 H 0.86274 0.91255 0.55594 0.0
H3672 H 0.8916 0.93395 0.553 0.0
H3673 H 0.89228 0.97312 0.50979 0.0
H3674 H 0.98165 0.007 0.49033 0.0
H3675 H 0.951 0.98673 0.49019 0.0
C3676 C 0.90105 0.13277 0.27897 0.0
C3677 C 0.89732 0.11621 0.26456 0.0
C3678 C 0.89178 0.14726 0.27886 0.0
C3679 C 0.85172 0.1603 0.25283 0.0
H3680 H 0.8727 0.21002 0.28546 0.0
C3681 C 0.81214 0.22066 0.25973 0.0
C3682 C 0.82116 0.24062 0.26561 0.0
C3683 C 0.82123 0.20593 0.25945 0.0
C3684 C 0.86646 0.19641 0.27601 0.0
H3685 H 0.87998 0.10279 0.23841 0.0
H3686 H 0.8641 0.12795 0.23786 0.0
H3687 H 0.88815 0.18503 0.28463 0.0
H3688 H 0.84764 0.25996 0.27594 0.0
H3689 H 0.86342 0.23471 0.27541 0.0
H3690 H 0.83035 0.17212 0.24372 0.0
C3691 C 0.87423 0.12973 0.24971 0.0
C3692 C 0.87541 0.18151 0.27572 0.0
C3693 C 0.88352 0.11501 0.24992 0.0
C3694 C 0.83991 0.24499 0.27128 0.0
C3695 C 0.84905 0.2302 0.27107 0.0
C3696 C 0.84282 0.17527 0.25304 0.0
C3697 C 0.87813 0.14647 0.26418 0.0
C3698 C 0.86834 0.16285 0.26419 0.0
C3699 C 0.84001 0.21013 0.26507 0.0
C3700 C 0.84985 0.19384 0.26469 0.0
H3701 H 0.91135 0.13468 0.29073 0.0
H3702 H 0.89543 0.15907 0.29072 0.0
H3703 H 0.84524 0.14657 0.2437 0.0
H3704 H 0.79779 0.21624 0.2552 0.0
H3705 H 0.81323 0.19107 0.25499 0.0
C3706 C 0.72476 0.09953 0.01249 0.0
C3707 C 0.73194 0.1075 0.99768 0.0
C3708 C 0.70625 0.0924 0.01135 0.0
C3709 C 0.66292 0.082 0.98069 0.0
H3710 H 0.64856 0.10123 0.02774 0.0
C3711 C 0.59649 0.04751 0.99957 0.0
C3712 C 0.58686 0.05837 0.00957 0.0
C3713 C 0.61357 0.05638 0.99631 0.0
C3714 C 0.65237 0.09626 0.01438 0.0
H3715 H 0.72644 0.11062 0.96887 0.0
H3716 H 0.69414 0.0983 0.96686 0.0
H3717 H 0.68027 0.10785 0.02464 0.0
H3718 H 0.58721 0.08675 0.02445 0.0
H3719 H 0.61757 0.10247 0.01876 0.0
H3720 H 0.63498 0.07089 0.9703 0.0
C3721 C 0.70248 0.09793 0.97948 0.0
C3722 C 0.67049 0.09957 0.01274 0.0
C3723 C 0.72097 0.1049 0.98057 0.0
C3724 C 0.59467 0.07811 0.01693 0.0
C3725 C 0.61182 0.08711 0.01348 0.0
C3726 C 0.64482 0.07908 0.9822 0.0
C3727 C 0.69498 0.09319 0.99541 0.0
C3728 C 0.67586 0.09144 0.99626 0.0
C3729 C 0.6212 0.07631 0.00281 0.0
C3730 C 0.63949 0.08501 0.99944 0.0
H3731 H 0.73305 0.10113 0.02575 0.0
H3732 H 0.70073 0.08792 0.02354 0.0
H3733 H 0.66667 0.07598 0.96767 0.0
H3734 H 0.59062 0.03224 0.99386 0.0
H3735 H 0.6208 0.04756 0.98868 0.0
C3736 C 0.20123 0.49721 0.23583 0.0
C3737 C 0.18322 0.49367 0.23885 0.0
C3738 C 0.21163 0.48575 0.24209 0.0
C3739 C 0.21394 0.45632 0.27779 0.0
H3740 H 0.24251 0.43207 0.24648 0.0
C3741 C 0.2402 0.39097 0.28987 0.0
C3742 C 0.25822 0.39308 0.2876 0.0
C3743 C 0.23226 0.4055 0.28649 0.0
C3744 C 0.23475 0.43902 0.2554 0.0
H3745 H 0.16162 0.47467 0.24953 0.0
H3746 H 0.17975 0.45496 0.26038 0.0
H3747 H 0.22638 0.45327 0.23407 0.0
H3748 H 0.2823 0.41154 0.28054 0.0
H3749 H 0.2683 0.4368 0.27427 0.0
H3750 H 0.22191 0.44153 0.29893 0.0
C3751 C 0.1859 0.46671 0.25355 0.0
C3752 C 0.22563 0.4511 0.24834 0.0
C3753 C 0.17552 0.47791 0.24717 0.0
C3754 C 0.26843 0.40995 0.28265 0.0
C3755 C 0.26046 0.42424 0.27896 0.0
C3756 C 0.223 0.44415 0.28482 0.0
C3757 C 0.20408 0.47086 0.25149 0.0
C3758 C 0.215 0.45959 0.25942 0.0
C3759 C 0.24225 0.42185 0.2804 0.0
C3760 C 0.23334 0.43538 0.27359 0.0
H3761 H 0.20746 0.50924 0.22941 0.0
H3762 H 0.22567 0.48899 0.24027 0.0
H3763 H 0.20591 0.46298 0.28659 0.0
H3764 H 0.23219 0.37786 0.29351 0.0
H3765 H 0.21812 0.40347 0.28753 0.0
C3766 C 0.2382 0.40581 0.993 0.0
C3767 C 0.24793 0.40622 0.01042 0.0
C3768 C 0.22364 0.41381 0.99189 0.0
C3769 C 0.20397 0.44878 0.01945 0.0
H3770 H 0.16292 0.42679 0.98061 0.0
C3771 C 0.15147 0.49015 0.00625 0.0
C3772 C 0.1333 0.47964 0.00287 0.0
C3773 C 0.16493 0.48056 0.00626 0.0
C3774 C 0.17421 0.43304 0.99164 0.0
H3775 H 0.24961 0.41509 0.04039 0.0
H3776 H 0.2241 0.42882 0.03853 0.0
H3777 H 0.18682 0.41073 0.9832 0.0
H3778 H 0.1148 0.45094 0.99612 0.0
H3779 H 0.13838 0.43398 0.99589 0.0
H3780 H 0.19122 0.47075 0.02822 0.0
C3781 C 0.22793 0.42263 0.02563 0.0
C3782 C 0.18807 0.42395 0.993 0.0
C3783 C 0.24254 0.41463 0.02674 0.0
C3784 C 0.12877 0.45932 0.99886 0.0
C3785 C 0.14228 0.44967 0.99864 0.0
C3786 C 0.19014 0.45779 0.01812 0.0
C3787 C 0.21832 0.42246 0.00817 0.0
C3788 C 0.20321 0.43173 0.00691 0.0
C3789 C 0.16057 0.46019 0.00276 0.0
C3790 C 0.17511 0.45016 0.00414 0.0
H3791 H 0.24187 0.39937 0.9801 0.0
H3792 H 0.21682 0.41357 0.97818 0.0
H3793 H 0.21544 0.45543 0.03017 0.0
H3794 H 0.15527 0.50584 0.00939 0.0
H3795 H 0.17881 0.48919 0.00911 0.0
C3796 C 0.87835 0.99468 0.26204 0.0
C3797 C 0.89146 0.99689 0.24988 0.0
C3798 C 0.86825 0.97594 0.26415 0.0
C3799 C 0.85912 0.92139 0.24318 0.0
H3800 H 0.83765 0.91433 0.28808 0.0
C3801 C 0.82632 0.84321 0.25856 0.0
C3802 C 0.80988 0.84053 0.26582 0.0
C3803 C 0.83683 0.86207 0.25738 0.0
C3804 C 0.84349 0.9159 0.27535 0.0
H3805 H 0.90366 0.9805 0.23027 0.0
H3806 H 0.88691 0.94887 0.234 0.0
H3807 H 0.85356 0.94675 0.28426 0.0
H3808 H 0.79223 0.8561 0.27808 0.0
H3809 H 0.81047 0.88837 0.27658 0.0
H3810 H 0.84934 0.89041 0.23457 0.0
C3811 C 0.88376 0.96117 0.24181 0.0
C3812 C 0.85266 0.9348 0.27305 0.0
C3813 C 0.89366 0.97969 0.23968 0.0
C3814 C 0.80477 0.85738 0.27243 0.0
C3815 C 0.81536 0.8761 0.27162 0.0
C3816 C 0.85024 0.90251 0.24565 0.0
C3817 C 0.87086 0.95862 0.25423 0.0
C3818 C 0.8607 0.93814 0.25683 0.0
C3819 C 0.83149 0.87895 0.26376 0.0
C3820 C 0.84207 0.89928 0.26171 0.0
H3821 H 0.87636 0.00738 0.27048 0.0
H3822 H 0.85847 0.9752 0.27376 0.0
H3823 H 0.86444 0.92263 0.23017 0.0
H3824 H 0.83074 0.83073 0.25315 0.0
H3825 H 0.84917 0.86339 0.25136 0.0
C3826 C 0.68373 0.0974 0.74681 0.0
C3827 C 0.67847 0.08615 0.7602 0.0
C3828 C 0.69672 0.1149 0.75223 0.0
C3829 C 0.73191 0.14672 0.78559 0.0
H3830 H 0.71016 0.1848 0.76857 0.0
C3831 C 0.77205 0.22472 0.78558 0.0
C3832 C 0.76819 0.23114 0.76889 0.0
C3833 C 0.76112 0.2078 0.78917 0.0
C3834 C 0.71632 0.17435 0.77356 0.0
H3835 H 0.68349 0.08237 0.78887 0.0
H3836 H 0.70653 0.11365 0.79857 0.0
H3837 H 0.6919 0.15168 0.76637 0.0
H3838 H 0.75114 0.22443 0.74211 0.0
H3839 H 0.73264 0.19388 0.74779 0.0
H3840 H 0.75662 0.16904 0.79159 0.0
C3841 C 0.70055 0.10891 0.78403 0.0
C3842 C 0.70593 0.15557 0.77237 0.0
C3843 C 0.68756 0.09119 0.77852 0.0
C3844 C 0.75432 0.21966 0.75505 0.0
C3845 C 0.74352 0.20253 0.75852 0.0
C3846 C 0.74237 0.16557 0.78671 0.0
C3847 C 0.70423 0.12123 0.7711 0.0
C3848 C 0.714 0.14149 0.77725 0.0
C3849 C 0.74651 0.19688 0.77587 0.0
C3850 C 0.73483 0.17906 0.77953 0.0
H3851 H 0.6768 0.09338 0.73256 0.0
H3852 H 0.69988 0.12418 0.74202 0.0
H3853 H 0.73813 0.13594 0.78966 0.0
H3854 H 0.78293 0.23335 0.79632 0.0
H3855 H 0.76375 0.2036 0.80254 0.0
loop_
_geom_bond_atom_site_label_1
_geom_bond_atom_site_label_2
_geom_bond_distance
_geom_bond_site_symmetry_2
_ccdc_geom_bond_type
Zn0 O3 2.031 . S
Zn0 O5 2.049 . S
Zn0 O10 2.067 . S
Zn1 O2 1.962 . S
Zn1 O4 1.986 . S
Zn1 O6 1.996 . S
Zn1 O9 1.943 . S
O2 Zn1 1.962 . S
O2 C7 1.254 . S
O3 Zn0 2.031 . S
O3 C7 1.269 . S
O4 Zn1 1.986 . S
O4 C11 1.262 . S
O5 Zn0 2.049 . S
O5 C13 1.260 . S
O6 Zn1 1.996 . S
O6 C13 1.257 . S
C7 O2 1.254 . S
C7 O3 1.269 . S
C8 O9 1.249 . S
C8 O10 1.270 . S
O9 Zn1 1.943 . S
O9 C8 1.249 . S
O10 Zn0 2.067 . S
O10 C8 1.270 . S
C11 O4 1.262 . S
C11 O12 1.232 . S
O12 C11 1.232 . S
C13 O5 1.260 . S
C13 O6 1.257 . S
Zn14 O17 2.031 1_455 S
Zn14 O19 2.049 . S
Zn14 O24 2.067 . S
Zn15 O16 1.948 1_455 S
Zn15 O18 1.992 . S
Zn15 O20 2.007 . S
Zn15 O23 1.946 1_455 S
O16 Zn15 1.948 1_655 S
O16 C21 1.254 . S
O17 Zn14 2.031 1_655 S
O17 C21 1.269 . S
O18 Zn15 1.992 . S
O18 C25 1.262 . S
O19 Zn14 2.049 . S
O19 C27 1.260 . S
O20 Zn15 2.007 . S
O20 C27 1.257 . S
C21 O16 1.254 . S
C21 O17 1.269 . S
C22 O23 1.249 . S
C22 O24 1.270 1_655 S
O23 Zn15 1.946 1_655 S
O23 C22 1.249 . S
O24 Zn14 2.067 . S
O24 C22 1.270 1_455 S
C25 O18 1.262 . S
C25 O26 1.232 1_455 S
O26 C25 1.232 1_655 S
C27 O19 1.260 . S
C27 O20 1.257 . S
Zn28 O31 2.031 . S
Zn28 O33 2.049 . S
Zn28 O38 2.067 . S
Zn29 O30 1.962 . S
Zn29 O32 1.986 . S
Zn29 O34 1.996 . S
Zn29 O37 1.943 . S
O30 Zn29 1.962 . S
O30 C35 1.254 . S
O31 Zn28 2.031 . S
O31 C35 1.269 . S
O32 Zn29 1.986 . S
O32 C39 1.262 . S
O33 Zn28 2.049 . S
O33 C41 1.260 . S
O34 Zn29 1.996 . S
O34 C41 1.257 . S
C35 O30 1.254 . S
C35 O31 1.269 . S
C36 O37 1.249 . S
C36 O38 1.270 . S
O37 Zn29 1.943 . S
O37 C36 1.249 . S
O38 Zn28 2.067 . S
O38 C36 1.270 . S
C39 O32 1.262 . S
C39 O40 1.232 . S
O40 C39 1.232 . S
C41 O33 1.260 . S
C41 O34 1.257 . S
Zn42 O45 2.031 . S
Zn42 O47 2.049 . S
Zn42 O52 2.067 . S
Zn43 O44 1.962 . S
Zn43 O46 1.986 . S
Zn43 O48 1.996 . S
Zn43 O51 1.943 . S
O44 Zn43 1.962 . S
O44 C49 1.254 . S
O45 Zn42 2.031 . S
O45 C49 1.269 . S
O46 Zn43 1.986 . S
O46 C53 1.262 . S
O47 Zn42 2.049 . S
O47 C55 1.260 . S
O48 Zn43 1.996 . S
O48 C55 1.257 . S
C49 O44 1.254 . S
C49 O45 1.269 . S
C50 O51 1.249 . S
C50 O52 1.270 . S
O51 Zn43 1.943 . S
O51 C50 1.249 . S
O52 Zn42 2.067 . S
O52 C50 1.270 . S
C53 O46 1.262 . S
C53 O54 1.232 . S
O54 C53 1.232 . S
C55 O47 1.260 . S
C55 O48 1.257 . S
Zn56 O59 2.031 . S
Zn56 O61 2.049 . S
Zn56 O66 2.067 . S
Zn57 O58 1.962 . S
Zn57 O60 1.986 . S
Zn57 O62 1.996 . S
Zn57 O65 1.943 . S
O58 Zn57 1.962 . S
O58 C63 1.254 . S
O59 Zn56 2.031 . S
O59 C63 1.269 . S
O60 Zn57 1.986 . S
O60 C67 1.262 . S
O61 Zn56 2.049 . S
O61 C69 1.260 . S
O62 Zn57 1.996 . S
O62 C69 1.257 . S
C63 O58 1.254 . S
C63 O59 1.269 . S
C64 O65 1.249 . S
C64 O66 1.270 . S
O65 Zn57 1.943 . S
O65 C64 1.249 . S
O66 Zn56 2.067 . S
O66 C64 1.270 . S
C67 O60 1.262 . S
C67 O68 1.232 . S
O68 C67 1.232 . S
C69 O61 1.260 . S
C69 O62 1.257 . S
Zn70 O73 2.031 . S
Zn70 O75 2.049 . S
Zn70 O80 2.067 . S
Zn71 O72 1.962 . S
Zn71 O74 1.986 . S
Zn71 O76 1.996 . S
Zn71 O79 1.943 . S
O72 Zn71 1.962 . S
O72 C77 1.254 . S
O73 Zn70 2.031 . S
O73 C77 1.269 . S
O74 Zn71 1.986 . S
O74 C81 1.262 . S
O75 Zn70 2.049 . S
O75 C83 1.260 . S
O76 Zn71 1.996 . S
O76 C83 1.257 . S
C77 O72 1.254 . S
C77 O73 1.269 . S
C78 O79 1.249 . S
C78 O80 1.270 . S
O79 Zn71 1.943 . S
O79 C78 1.249 . S
O80 Zn70 2.067 . S
O80 C78 1.270 . S
C81 O74 1.262 . S
C81 O82 1.232 . S
O82 C81 1.232 . S
C83 O75 1.260 . S
C83 O76 1.257 . S
Zn84 O87 2.031 . S
Zn84 O89 2.049 . S
Zn84 O94 2.067 . S
Zn85 O86 1.962 . S
Zn85 O88 1.986 . S
Zn85 O90 1.996 . S
Zn85 O93 1.943 . S
O86 Zn85 1.962 . S
O86 C91 1.254 . S
O87 Zn84 2.031 . S
O87 C91 1.269 . S
O88 Zn85 1.986 . S
O88 C95 1.262 . S
O89 Zn84 2.049 . S
O89 C97 1.260 . S
O90 Zn85 1.996 . S
O90 C97 1.257 . S
C91 O86 1.254 . S
C91 O87 1.269 . S
C92 O93 1.249 . S
C92 O94 1.270 . S
O93 Zn85 1.943 . S
O93 C92 1.249 . S
O94 Zn84 2.067 . S
O94 C92 1.270 . S
C95 O88 1.262 . S
C95 O96 1.232 . S
O96 C95 1.232 . S
C97 O89 1.260 . S
C97 O90 1.257 . S
Zn98 O101 2.031 . S
Zn98 O103 2.049 . S
Zn98 O108 2.067 . S
Zn99 O100 1.962 . S
Zn99 O102 1.986 . S
Zn99 O104 1.996 . S
Zn99 O107 1.932 1_455 S
O100 Zn99 1.962 . S
O100 C105 1.254 . S
O101 Zn98 2.031 . S
O101 C105 1.269 1_655 S
O102 Zn99 1.986 . S
O102 C109 1.262 . S
O103 Zn98 2.049 . S
O103 C111 1.260 1_655 S
O104 Zn99 1.996 . S
O104 C111 1.257 . S
C105 O100 1.254 . S
C105 O101 1.269 1_455 S
C106 O107 1.263 . S
C106 O108 1.270 . S
O107 Zn99 1.932 1_655 S
O107 C106 1.263 . S
O108 Zn98 2.067 . S
O108 C106 1.270 . S
C109 O102 1.262 . S
C109 O110 1.232 . S
O110 C109 1.232 . S
C111 O103 1.260 1_455 S
C111 O104 1.257 . S
Zn112 O115 2.031 . S
Zn112 O117 2.049 . S
Zn112 O122 2.067 . S
Zn113 O114 1.962 . S
Zn113 O116 1.986 . S
Zn113 O118 1.996 . S
Zn113 O121 1.943 1_545 S
O114 Zn113 1.962 . S
O114 C119 1.254 . S
O115 Zn112 2.031 . S
O115 C119 1.269 1_565 S
O116 Zn113 1.986 . S
O116 C123 1.262 . S
O117 Zn112 2.049 . S
O117 C125 1.260 1_565 S
O118 Zn113 1.996 . S
O118 C125 1.257 . S
C119 O114 1.254 . S
C119 O115 1.269 1_545 S
C120 O121 1.249 . S
C120 O122 1.270 . S
O121 Zn113 1.943 1_565 S
O121 C120 1.249 . S
O122 Zn112 2.067 . S
O122 C120 1.270 . S
C123 O116 1.262 . S
C123 O124 1.232 . S
O124 C123 1.232 . S
C125 O117 1.260 1_545 S
C125 O118 1.257 . S
Zn126 O129 2.031 . S
Zn126 O131 2.049 . S
Zn126 O136 2.067 . S
Zn127 O128 1.962 . S
Zn127 O130 1.986 . S
Zn127 O132 1.996 . S
Zn127 O135 1.943 . S
O128 Zn127 1.962 . S
O128 C133 1.254 . S
O129 Zn126 2.031 . S
O129 C133 1.269 . S
O130 Zn127 1.986 . S
O130 C137 1.262 . S
O131 Zn126 2.049 . S
O131 C139 1.260 . S
O132 Zn127 1.996 . S
O132 C139 1.257 . S
C133 O128 1.254 . S
C133 O129 1.269 . S
C134 O135 1.249 . S
C134 O136 1.270 . S
O135 Zn127 1.943 . S
O135 C134 1.249 . S
O136 Zn126 2.067 . S
O136 C134 1.270 . S
C137 O130 1.262 . S
C137 O138 1.232 . S
O138 C137 1.232 . S
C139 O131 1.260 . S
C139 O132 1.257 . S
Zn140 O143 2.031 . S
Zn140 O145 2.049 . S
Zn140 O150 2.067 . S
Zn141 O142 1.962 . S
Zn141 O144 1.986 . S
Zn141 O146 1.996 . S
Zn141 O149 1.943 1_565 S
O142 Zn141 1.962 . S
O142 C147 1.254 1_565 S
O143 Zn140 2.031 . S
O143 C147 1.269 . S
O144 Zn141 1.986 . S
O144 C151 1.262 . S
O145 Zn140 2.049 . S
O145 C153 1.260 1_545 S
O146 Zn141 1.996 . S
O146 C153 1.257 . S
C147 O142 1.254 1_545 S
C147 O143 1.269 . S
C148 O149 1.249 . S
C148 O150 1.270 . S
O149 Zn141 1.943 1_545 S
O149 C148 1.249 . S
O150 Zn140 2.067 . S
O150 C148 1.270 . S
C151 O144 1.262 . S
C151 O152 1.232 . S
O152 C151 1.232 . S
C153 O145 1.260 1_565 S
C153 O146 1.257 . S
Zn154 O157 2.031 1_554 S
Zn154 O159 2.049 . S
Zn154 O164 2.067 . S
Zn155 O156 1.962 1_554 S
Zn155 O158 1.986 . S
Zn155 O160 1.996 . S
Zn155 O163 1.943 . S
O156 Zn155 1.962 1_556 S
O156 C161 1.254 . S
O157 Zn154 2.031 1_556 S
O157 C161 1.269 . S
O158 Zn155 1.986 . S
O158 C165 1.262 . S
O159 Zn154 2.049 . S
O159 C167 1.260 . S
O160 Zn155 1.996 . S
O160 C167 1.257 . S
C161 O156 1.254 . S
C161 O157 1.269 . S
C162 O163 1.249 . S
C162 O164 1.270 . S
O163 Zn155 1.943 . S
O163 C162 1.249 . S
O164 Zn154 2.067 . S
O164 C162 1.270 . S
C165 O158 1.262 . S
C165 O166 1.203 1_554 S
O166 C165 1.203 1_556 S
C167 O159 1.260 . S
C167 O160 1.257 . S
Zn168 O171 2.031 1_554 S
Zn168 O173 2.049 . S
Zn168 O178 2.067 . S
Zn169 O170 1.962 1_554 S
Zn169 O172 1.986 . S
Zn169 O174 1.996 . S
Zn169 O177 1.943 . S
O170 Zn169 1.962 1_556 S
O170 C175 1.254 . S
O171 Zn168 2.031 1_556 S
O171 C175 1.269 . S
O172 Zn169 1.986 . S
O172 C179 1.262 . S
O173 Zn168 2.049 . S
O173 C181 1.260 . S
O174 Zn169 1.996 . S
O174 C181 1.257 . S
C175 O170 1.254 . S
C175 O171 1.269 . S
C176 O177 1.249 . S
C176 O178 1.270 . S
O177 Zn169 1.943 . S
O177 C176 1.249 . S
O178 Zn168 2.067 . S
O178 C176 1.270 . S
C179 O172 1.262 . S
C179 O180 1.272 . S
O180 C179 1.272 . S
C181 O173 1.260 . S
C181 O174 1.257 . S
Zn182 O185 2.031 1_554 S
Zn182 O187 2.049 . S
Zn182 O192 2.067 . S
Zn183 O184 1.962 1_554 S
Zn183 O186 1.986 . S
Zn183 O188 1.996 . S
Zn183 O191 1.943 . S
O184 Zn183 1.962 1_556 S
O184 C189 1.254 . S
O185 Zn182 2.031 1_556 S
O185 C189 1.269 . S
O186 Zn183 1.986 . S
O186 C193 1.262 . S
O187 Zn182 2.049 . S
O187 C195 1.260 . S
O188 Zn183 1.996 . S
O188 C195 1.257 . S
C189 O184 1.254 . S
C189 O185 1.269 . S
C190 O191 1.249 . S
C190 O192 1.270 . S
O191 Zn183 1.943 . S
O191 C190 1.249 . S
O192 Zn182 2.067 . S
O192 C190 1.270 . S
C193 O186 1.262 . S
C193 O194 1.232 1_554 S
O194 C193 1.232 1_556 S
C195 O187 1.260 . S
C195 O188 1.257 . S
Zn196 O199 2.031 . S
Zn196 O201 2.049 . S
Zn196 O206 2.067 . S
Zn197 O198 1.962 . S
Zn197 O200 1.986 . S
Zn197 O202 1.996 . S
Zn197 O205 1.943 . S
O198 Zn197 1.962 . S
O198 C203 1.254 . S
O199 Zn196 2.031 . S
O199 C203 1.269 . S
O200 Zn197 1.986 . S
O200 C207 1.262 . S
O201 Zn196 2.049 . S
O201 C209 1.260 . S
O202 Zn197 1.996 . S
O202 C209 1.257 . S
C203 O198 1.254 . S
C203 O199 1.269 . S
C204 O205 1.249 . S
C204 O206 1.270 . S
O205 Zn197 1.943 . S
O205 C204 1.249 . S
O206 Zn196 2.067 . S
O206 C204 1.270 . S
C207 O200 1.262 . S
C207 O208 1.232 . S
O208 C207 1.232 . S
C209 O201 1.260 . S
C209 O202 1.257 . S
Zn210 O213 2.031 . S
Zn210 O215 2.049 . S
Zn210 O220 2.067 . S
Zn211 O212 1.962 . S
Zn211 O214 1.986 . S
Zn211 O216 1.996 . S
Zn211 O219 1.943 . S
O212 Zn211 1.962 . S
O212 C217 1.254 . S
O213 Zn210 2.031 . S
O213 C217 1.269 . S
O214 Zn211 1.986 . S
O214 C221 1.262 . S
O215 Zn210 2.049 . S
O215 C223 1.260 . S
O216 Zn211 1.996 . S
O216 C223 1.257 . S
C217 O212 1.254 . S
C217 O213 1.269 . S
C218 O219 1.249 . S
C218 O220 1.270 . S
O219 Zn211 1.943 . S
O219 C218 1.249 . S
O220 Zn210 2.067 . S
O220 C218 1.270 . S
C221 O214 1.262 . S
C221 O222 1.232 . S
O222 C221 1.232 . S
C223 O215 1.260 . S
C223 O216 1.257 . S
Zn224 O227 2.031 . S
Zn224 O229 2.049 . S
Zn224 O234 2.067 . S
Zn225 O226 1.962 . S
Zn225 O228 1.986 . S
Zn225 O230 1.996 . S
Zn225 O233 1.943 . S
O226 Zn225 1.962 . S
O226 C231 1.254 . S
O227 Zn224 2.031 . S
O227 C231 1.269 . S
O228 Zn225 1.986 . S
O228 C235 1.262 . S
O229 Zn224 2.049 . S
O229 C237 1.260 . S
O230 Zn225 1.996 . S
O230 C237 1.257 . S
C231 O226 1.254 . S
C231 O227 1.269 . S
C232 O233 1.249 . S
C232 O234 1.270 . S
O233 Zn225 1.943 . S
O233 C232 1.249 . S
O234 Zn224 2.067 . S
O234 C232 1.270 . S
C235 O228 1.262 . S
C235 O236 1.232 . S
O236 C235 1.232 . S
C237 O229 1.260 . S
C237 O230 1.257 . S
Zn238 O241 2.031 . S
Zn238 O243 2.049 . S
Zn238 O248 2.067 . S
Zn239 O240 1.962 . S
Zn239 O242 1.986 . S
Zn239 O244 1.996 . S
Zn239 O247 1.943 . S
O240 Zn239 1.962 . S
O240 C245 1.254 . S
O241 Zn238 2.031 . S
O241 C245 1.269 . S
O242 Zn239 1.986 . S
O242 C249 1.262 . S
O243 Zn238 2.049 . S
O243 C251 1.260 . S
O244 Zn239 1.996 . S
O244 C251 1.257 . S
C245 O240 1.254 . S
C245 O241 1.269 . S
C246 O247 1.249 . S
C246 O248 1.270 . S
O247 Zn239 1.943 . S
O247 C246 1.249 . S
O248 Zn238 2.067 . S
O248 C246 1.270 . S
C249 O242 1.262 . S
C249 O250 1.232 . S
O250 C249 1.232 . S
C251 O243 1.260 . S
C251 O244 1.257 . S
Zn252 O255 2.031 . S
Zn252 O257 2.049 . S
Zn252 O262 2.067 . S
Zn253 O254 1.962 . S
Zn253 O256 1.986 . S
Zn253 O258 1.996 . S
Zn253 O261 1.943 . S
O254 Zn253 1.962 . S
O254 C259 1.254 . S
O255 Zn252 2.031 . S
O255 C259 1.269 . S
O256 Zn253 1.986 . S
O256 C263 1.262 . S
O257 Zn252 2.049 . S
O257 C265 1.260 . S
O258 Zn253 1.996 . S
O258 C265 1.257 . S
C259 O254 1.254 . S
C259 O255 1.269 . S
C260 O261 1.249 . S
C260 O262 1.270 . S
O261 Zn253 1.943 . S
O261 C260 1.249 . S
O262 Zn252 2.067 . S
O262 C260 1.270 . S
C263 O256 1.262 . S
C263 O264 1.232 . S
O264 C263 1.232 . S
C265 O257 1.260 . S
C265 O258 1.257 . S
Zn266 O269 2.031 . S
Zn266 O271 2.049 . S
Zn266 O276 2.067 . S
Zn267 O268 1.962 . S
Zn267 O270 1.986 . S
Zn267 O272 1.996 . S
Zn267 O275 1.943 . S
O268 Zn267 1.962 . S
O268 C273 1.254 . S
O269 Zn266 2.031 . S
O269 C273 1.269 . S
O270 Zn267 1.986 . S
O270 C277 1.262 . S
O271 Zn266 2.049 . S
O271 C279 1.260 . S
O272 Zn267 1.996 . S
O272 C279 1.257 . S
C273 O268 1.254 . S
C273 O269 1.269 . S
C274 O275 1.249 . S
C274 O276 1.270 . S
O275 Zn267 1.943 . S
O275 C274 1.249 . S
O276 Zn266 2.067 . S
O276 C274 1.270 . S
C277 O270 1.262 . S
C277 O278 1.232 . S
O278 C277 1.232 . S
C279 O271 1.260 . S
C279 O272 1.257 . S
Zn280 O283 2.031 1_554 S
Zn280 O285 2.049 . S
Zn280 O290 2.067 . S
Zn281 O282 1.962 1_554 S
Zn281 O284 1.986 . S
Zn281 O286 1.996 . S
Zn281 O289 1.943 . S
O282 Zn281 1.962 1_556 S
O282 C287 1.254 . S
O283 Zn280 2.031 1_556 S
O283 C287 1.269 . S
O284 Zn281 1.986 . S
O284 C291 1.262 . S
O285 Zn280 2.049 . S
O285 C293 1.260 . S
O286 Zn281 1.996 . S
O286 C293 1.257 . S
C287 O282 1.254 . S
C287 O283 1.269 . S
C288 O289 1.249 . S
C288 O290 1.270 . S
O289 Zn281 1.943 . S
O289 C288 1.249 . S
O290 Zn280 2.067 . S
O290 C288 1.270 . S
C291 O284 1.262 . S
C291 O292 1.232 1_554 S
O292 C291 1.232 1_556 S
C293 O285 1.260 . S
C293 O286 1.257 . S
Zn294 O297 2.031 . S
Zn294 O299 2.049 . S
Zn294 O304 2.067 . S
Zn295 O296 1.962 . S
Zn295 O298 1.986 . S
Zn295 O300 1.996 . S
Zn295 O303 1.943 . S
O296 Zn295 1.962 . S
O296 C301 1.254 . S
O297 Zn294 2.031 . S
O297 C301 1.269 . S
O298 Zn295 1.986 . S
O298 C305 1.262 . S
O299 Zn294 2.049 . S
O299 C307 1.260 . S
O300 Zn295 1.996 . S
O300 C307 1.257 . S
C301 O296 1.254 . S
C301 O297 1.269 . S
C302 O303 1.249 . S
C302 O304 1.270 . S
O303 Zn295 1.943 . S
O303 C302 1.249 . S
O304 Zn294 2.067 . S
O304 C302 1.270 . S
C305 O298 1.262 . S
C305 O306 1.232 . S
O306 C305 1.232 . S
C307 O299 1.260 . S
C307 O300 1.257 . S
Zn308 O311 2.031 . S
Zn308 O313 2.049 . S
Zn308 O318 2.067 . S
Zn309 O310 1.962 . S
Zn309 O312 1.986 . S
Zn309 O314 1.996 . S
Zn309 O317 1.943 . S
O310 Zn309 1.962 . S
O310 C315 1.254 . S
O311 Zn308 2.031 . S
O311 C315 1.269 . S
O312 Zn309 1.986 . S
O312 C319 1.262 . S
O313 Zn308 2.049 . S
O313 C321 1.260 . S
O314 Zn309 1.996 . S
O314 C321 1.257 . S
C315 O310 1.254 . S
C315 O311 1.269 . S
C316 O317 1.249 . S
C316 O318 1.270 . S
O317 Zn309 1.943 . S
O317 C316 1.249 . S
O318 Zn308 2.067 . S
O318 C316 1.270 . S
C319 O312 1.262 . S
C319 O320 1.232 . S
O320 C319 1.232 . S
C321 O313 1.260 . S
C321 O314 1.257 . S
Zn322 O325 2.031 . S
Zn322 O327 2.049 . S
Zn322 O332 2.067 . S
Zn323 O324 1.962 . S
Zn323 O326 1.986 . S
Zn323 O328 1.996 . S
Zn323 O331 1.943 . S
O324 Zn323 1.962 . S
O324 C329 1.254 . S
O325 Zn322 2.031 . S
O325 C329 1.269 . S
O326 Zn323 1.986 . S
O326 C333 1.262 . S
O327 Zn322 2.049 . S
O327 C335 1.260 . S
O328 Zn323 1.996 . S
O328 C335 1.257 . S
C329 O324 1.254 . S
C329 O325 1.269 . S
C330 O331 1.249 . S
C330 O332 1.270 . S
O331 Zn323 1.943 . S
O331 C330 1.249 . S
O332 Zn322 2.067 . S
O332 C330 1.270 . S
C333 O326 1.262 . S
C333 O334 1.232 . S
O334 C333 1.232 . S
C335 O327 1.260 . S
C335 O328 1.257 . S
Ho336 C339 2.811 1_454 S
Ho336 O356 2.322 1_554 S
Ho336 O358 2.378 1_454 S
Ho336 O359 2.524 1_455 S
Ho336 O360 2.381 1_554 S
Ho336 O361 2.669 1_554 S
Ho336 O363 2.346 1_545 S
Ho336 O367 2.305 . S
Ho337 C348 2.811 . S
Ho337 O357 2.346 . S
Ho337 O361 2.305 1_554 S
Ho337 O362 2.322 . S
Ho337 O364 2.378 . S
Ho337 O365 2.524 . S
Ho337 O366 2.381 . S
Ho337 O367 2.669 . S
C338 O356 1.259 1_554 S
C338 O357 1.268 . S
C339 Ho336 2.811 1_656 S
C339 C340 1.488 . S
C339 O358 1.215 . S
C339 O359 1.289 1_556 S
C340 C339 1.488 . S
C340 C341 1.348 1_556 S
C340 C345 1.413 . S
C341 C340 1.348 1_554 S
C341 C342 1.434 1_554 S
C341 H368 0.930 . S
C342 C341 1.434 1_556 S
C342 C343 1.411 . S
C342 H369 0.909 1_556 S
C343 C342 1.411 . S
C343 C344 1.321 . S
C344 C343 1.321 . S
C344 C345 1.403 . S
C344 H370 0.934 . S
C345 C340 1.413 . S
C345 C344 1.403 . S
C345 H371 0.930 . S
C346 O360 1.275 . S
C346 O361 1.256 . S
C347 O362 1.259 1_565 S
C347 O363 1.268 . S
C348 Ho337 2.811 . S
C348 C349 1.488 . S
C348 O364 1.215 . S
C348 O365 1.289 . S
C349 C348 1.488 . S
C349 C350 1.348 . S
C349 C354 1.413 . S
C350 C349 1.348 . S
C350 C351 1.457 . S
C350 H372 0.930 . S
C351 C350 1.457 . S
C351 C352 1.382 . S
C351 H373 0.915 1_545 S
C352 C351 1.382 . S
C352 C353 1.321 . S
C353 C352 1.321 . S
C353 C354 1.403 . S
C353 H374 0.934 . S
C354 C349 1.413 . S
C354 C353 1.403 . S
C354 H375 0.930 . S
C355 O366 1.275 . S
C355 O367 1.256 . S
O356 Ho336 2.322 1_556 S
O356 C338 1.259 1_556 S
O357 Ho337 2.346 . S
O357 C338 1.268 . S
O358 Ho336 2.378 1_656 S
O358 C339 1.215 . S
O359 Ho336 2.524 1_655 S
O359 C339 1.289 1_554 S
O360 Ho336 2.381 1_556 S
O360 C346 1.275 . S
O361 Ho336 2.669 1_556 S
O361 Ho337 2.305 1_556 S
O361 C346 1.256 . S
O362 Ho337 2.322 . S
O362 C347 1.259 1_545 S
O363 Ho336 2.346 1_565 S
O363 C347 1.268 . S
O364 Ho337 2.378 . S
O364 C348 1.215 . S
O365 Ho337 2.524 . S
O365 C348 1.289 . S
O366 Ho337 2.381 . S
O366 C355 1.275 . S
O367 Ho336 2.305 . S
O367 Ho337 2.669 . S
O367 C355 1.256 . S
H368 C341 0.930 . S
H369 C342 0.909 1_554 S
H370 C344 0.934 . S
H371 C345 0.930 . S
H372 C350 0.930 . S
H373 C351 0.915 1_565 S
H374 C353 0.934 . S
H375 C354 0.930 . S
Ho376 C379 2.811 . S
Ho376 O396 2.322 . S
Ho376 O398 2.378 . S
Ho376 O399 2.524 . S
Ho376 O400 2.381 . S
Ho376 O401 2.669 . S
Ho376 O403 2.346 . S
Ho376 O407 2.305 . S
Ho377 C388 2.811 . S
Ho377 O397 2.346 . S
Ho377 O401 2.305 . S
Ho377 O402 2.322 . S
Ho377 O404 2.378 . S
Ho377 O405 2.524 . S
Ho377 O406 2.381 . S
Ho377 O407 2.669 . S
C378 O396 1.259 . S
C378 O397 1.268 . S
C379 Ho376 2.811 . S
C379 C380 1.488 . S
C379 O398 1.215 . S
C379 O399 1.289 . S
C380 C379 1.488 . S
C380 C381 1.348 . S
C380 C385 1.413 . S
C381 C380 1.348 . S
C381 C382 1.442 . S
C381 H408 0.930 . S
C382 C381 1.442 . S
C382 C383 1.381 . S
C382 H409 0.931 . S
C383 C382 1.381 . S
C383 C384 1.321 . S
C384 C383 1.321 . S
C384 C385 1.403 . S
C384 H410 0.934 . S
C385 C380 1.413 . S
C385 C384 1.403 . S
C385 H411 0.930 . S
C386 O400 1.275 . S
C386 O401 1.256 . S
C387 O402 1.259 . S
C387 O403 1.268 . S
C388 Ho377 2.811 . S
C388 C389 1.488 . S
C388 O404 1.215 . S
C388 O405 1.289 . S
C389 C388 1.488 . S
C389 C390 1.348 . S
C389 C394 1.413 . S
C390 C389 1.348 . S
C390 C391 1.442 . S
C390 H412 0.930 . S
C391 C390 1.442 . S
C391 C392 1.381 . S
C391 H413 0.931 . S
C392 C391 1.381 . S
C392 C393 1.321 . S
C393 C392 1.321 . S
C393 C394 1.403 . S
C393 H414 0.934 . S
C394 C389 1.413 . S
C394 C393 1.403 . S
C394 H415 0.930 . S
C395 O406 1.275 . S
C395 O407 1.256 . S
O396 Ho376 2.322 . S
O396 C378 1.259 . S
O397 Ho377 2.346 . S
O397 C378 1.268 . S
O398 Ho376 2.378 . S
O398 C379 1.215 . S
O399 Ho376 2.524 . S
O399 C379 1.289 . S
O400 Ho376 2.381 . S
O400 C386 1.275 . S
O401 Ho376 2.669 . S
O401 Ho377 2.305 . S
O401 C386 1.256 . S
O402 Ho377 2.322 . S
O402 C387 1.259 . S
O403 Ho376 2.346 . S
O403 C387 1.268 . S
O404 Ho377 2.378 . S
O404 C388 1.215 . S
O405 Ho377 2.524 . S
O405 C388 1.289 . S
O406 Ho377 2.381 . S
O406 C395 1.275 . S
O407 Ho376 2.305 . S
O407 Ho377 2.669 . S
O407 C395 1.256 . S
H408 C381 0.930 . S
H409 C382 0.931 . S
H410 C384 0.934 . S
H411 C385 0.930 . S
H412 C390 0.930 . S
H413 C391 0.931 . S
H414 C393 0.934 . S
H415 C394 0.930 . S
Ho416 C419 2.811 . S
Ho416 O436 2.347 . S
Ho416 O438 2.378 . S
Ho416 O439 2.524 . S
Ho416 O440 2.381 . S
Ho416 O441 2.669 . S
Ho416 O443 2.346 . S
Ho416 O447 2.305 . S
Ho417 C428 2.811 . S
Ho417 O437 2.346 1_545 S
Ho417 O441 2.305 . S
Ho417 O442 2.322 . S
Ho417 O444 2.378 . S
Ho417 O445 2.524 . S
Ho417 O446 2.381 . S
Ho417 O447 2.669 . S
C418 O436 1.244 1_565 S
C418 O437 1.268 . S
C419 Ho416 2.811 . S
C419 C420 1.488 1_545 S
C419 O438 1.215 . S
C419 O439 1.289 . S
C420 C419 1.488 1_565 S
C420 C421 1.348 . S
C420 C425 1.413 . S
C421 C420 1.348 . S
C421 C422 1.442 . S
C421 H448 0.930 . S
C422 C421 1.442 . S
C422 C423 1.381 . S
C422 H449 0.931 . S
C423 C422 1.381 . S
C423 C424 1.321 . S
C424 C423 1.321 . S
C424 C425 1.403 . S
C424 H450 0.934 . S
C425 C420 1.413 . S
C425 C424 1.403 . S
C425 H451 0.930 1_565 S
C426 O440 1.275 . S
C426 O441 1.256 . S
C427 O442 1.259 . S
C427 O443 1.268 . S
C428 Ho417 2.811 . S
C428 C429 1.488 . S
C428 O444 1.215 . S
C428 O445 1.289 . S
C429 C428 1.488 . S
C429 C430 1.348 . S
C429 C434 1.413 . S
C430 C429 1.348 . S
C430 C431 1.442 . S
C430 H452 0.930 . S
C431 C430 1.442 . S
C431 C432 1.381 . S
C431 H453 0.931 . S
C432 C431 1.381 . S
C432 C433 1.321 . S
C433 C432 1.321 . S
C433 C434 1.403 . S
C433 H454 0.934 . S
C434 C429 1.413 . S
C434 C433 1.403 . S
C434 H455 0.930 . S
C435 O446 1.275 . S
C435 O447 1.256 . S
O436 Ho416 2.347 . S
O436 C418 1.244 1_545 S
O437 Ho417 2.346 1_565 S
O437 C418 1.268 . S
O438 Ho416 2.378 . S
O438 C419 1.215 . S
O439 Ho416 2.524 . S
O439 C419 1.289 . S
O440 Ho416 2.381 . S
O440 C426 1.275 . S
O441 Ho416 2.669 . S
O441 Ho417 2.305 . S
O441 C426 1.256 . S
O442 Ho417 2.322 . S
O442 C427 1.259 . S
O443 Ho416 2.346 . S
O443 C427 1.268 . S
O444 Ho417 2.378 . S
O444 C428 1.215 . S
O445 Ho417 2.524 . S
O445 C428 1.289 . S
O446 Ho417 2.381 . S
O446 C435 1.275 . S
O447 Ho416 2.305 . S
O447 Ho417 2.669 . S
O447 C435 1.256 . S
H448 C421 0.930 . S
H449 C422 0.931 . S
H450 C424 0.934 . S
H451 C425 0.930 1_545 S
H452 C430 0.930 . S
H453 C431 0.931 . S
H454 C433 0.934 . S
H455 C434 0.930 . S
Ho456 C459 2.811 . S
Ho456 O476 2.322 . S
Ho456 O478 2.378 . S
Ho456 O479 2.524 . S
Ho456 O480 2.381 . S
Ho456 O481 2.669 . S
Ho456 O483 2.346 . S
Ho456 O487 2.305 . S
Ho457 C468 2.811 . S
Ho457 O477 2.346 . S
Ho457 O481 2.305 . S
Ho457 O482 2.322 . S
Ho457 O484 2.378 . S
Ho457 O485 2.524 . S
Ho457 O486 2.381 . S
Ho457 O487 2.669 . S
C458 O476 1.259 . S
C458 O477 1.268 . S
C459 Ho456 2.811 . S
C459 C460 1.488 . S
C459 O478 1.215 . S
C459 O479 1.289 . S
C460 C459 1.488 . S
C460 C461 1.348 . S
C460 C465 1.413 . S
C461 C460 1.348 . S
C461 C462 1.442 . S
C461 H488 0.930 . S
C462 C461 1.442 . S
C462 C463 1.381 . S
C462 H489 0.931 . S
C463 C462 1.381 . S
C463 C464 1.321 . S
C464 C463 1.321 . S
C464 C465 1.403 . S
C464 H490 0.934 . S
C465 C460 1.413 . S
C465 C464 1.403 . S
C465 H491 0.930 . S
C466 O480 1.275 . S
C466 O481 1.256 . S
C467 O482 1.259 . S
C467 O483 1.268 . S
C468 Ho457 2.811 . S
C468 C469 1.488 . S
C468 O484 1.215 . S
C468 O485 1.289 . S
C469 C468 1.488 . S
C469 C470 1.348 . S
C469 C474 1.413 . S
C470 C469 1.348 . S
C470 C471 1.442 . S
C470 H492 0.930 . S
C471 C470 1.442 . S
C471 C472 1.381 . S
C471 H493 0.931 . S
C472 C471 1.381 . S
C472 C473 1.321 . S
C473 C472 1.321 . S
C473 C474 1.403 . S
C473 H494 0.934 . S
C474 C469 1.413 . S
C474 C473 1.403 . S
C474 H495 0.930 . S
C475 O486 1.275 . S
C475 O487 1.256 . S
O476 Ho456 2.322 . S
O476 C458 1.259 . S
O477 Ho457 2.346 . S
O477 C458 1.268 . S
O478 Ho456 2.378 . S
O478 C459 1.215 . S
O479 Ho456 2.524 . S
O479 C459 1.289 . S
O480 Ho456 2.381 . S
O480 C466 1.275 . S
O481 Ho456 2.669 . S
O481 Ho457 2.305 . S
O481 C466 1.256 . S
O482 Ho457 2.322 . S
O482 C467 1.259 . S
O483 Ho456 2.346 . S
O483 C467 1.268 . S
O484 Ho457 2.378 . S
O484 C468 1.215 . S
O485 Ho457 2.524 . S
O485 C468 1.289 . S
O486 Ho457 2.381 . S
O486 C475 1.275 . S
O487 Ho456 2.305 . S
O487 Ho457 2.669 . S
O487 C475 1.256 . S
H488 C461 0.930 . S
H489 C462 0.931 . S
H490 C464 0.934 . S
H491 C465 0.930 . S
H492 C470 0.930 . S
H493 C471 0.931 . S
H494 C473 0.934 . S
H495 C474 0.930 . S
Ho496 C499 2.811 . S
Ho496 O516 2.322 . S
Ho496 O518 2.378 . S
Ho496 O519 2.524 . S
Ho496 O520 2.381 . S
Ho496 O521 2.669 . S
Ho496 O523 2.346 . S
Ho496 O527 2.305 . S
Ho497 C508 2.811 1_545 S
Ho497 O517 2.346 . S
Ho497 O521 2.305 . S
Ho497 O522 2.322 . S
Ho497 O524 2.378 1_545 S
Ho497 O525 2.524 1_545 S
Ho497 O526 2.381 . S
Ho497 O527 2.669 . S
C498 O516 1.259 . S
C498 O517 1.268 . S
C499 Ho496 2.811 . S
C499 C500 1.488 . S
C499 O518 1.215 . S
C499 O519 1.289 . S
C500 C499 1.488 . S
C500 C501 1.348 . S
C500 C505 1.413 . S
C501 C500 1.348 . S
C501 C502 1.442 . S
C501 H528 0.930 . S
C502 C501 1.442 . S
C502 C503 1.381 . S
C502 H529 0.931 . S
C503 C502 1.381 . S
C503 C504 1.321 . S
C504 C503 1.321 . S
C504 C505 1.403 . S
C504 H530 0.934 . S
C505 C500 1.413 . S
C505 C504 1.403 . S
C505 H531 0.930 . S
C506 O520 1.275 . S
C506 O521 1.256 . S
C507 O522 1.259 . S
C507 O523 1.268 . S
C508 Ho497 2.811 1_565 S
C508 C509 1.488 . S
C508 O524 1.215 . S
C508 O525 1.289 . S
C509 C508 1.488 . S
C509 C510 1.348 . S
C509 C514 1.413 . S
C510 C509 1.348 . S
C510 C511 1.442 . S
C510 H532 0.930 . S
C511 C510 1.442 . S
C511 C512 1.381 . S
C511 H533 0.931 . S
C512 C511 1.381 . S
C512 C513 1.321 . S
C513 C512 1.321 . S
C513 C514 1.403 . S
C513 H534 0.934 . S
C514 C509 1.413 . S
C514 C513 1.403 . S
C514 H535 0.930 . S
C515 O526 1.275 . S
C515 O527 1.256 . S
O516 Ho496 2.322 . S
O516 C498 1.259 . S
O517 Ho497 2.346 . S
O517 C498 1.268 . S
O518 Ho496 2.378 . S
O518 C499 1.215 . S
O519 Ho496 2.524 . S
O519 C499 1.289 . S
O520 Ho496 2.381 . S
O520 C506 1.275 . S
O521 Ho496 2.669 . S
O521 Ho497 2.305 . S
O521 C506 1.256 . S
O522 Ho497 2.322 . S
O522 C507 1.259 . S
O523 Ho496 2.346 . S
O523 C507 1.268 . S
O524 Ho497 2.378 1_565 S
O524 C508 1.215 . S
O525 Ho497 2.524 1_565 S
O525 C508 1.289 . S
O526 Ho497 2.381 . S
O526 C515 1.275 . S
O527 Ho496 2.305 . S
O527 Ho497 2.669 . S
O527 C515 1.256 . S
H528 C501 0.930 . S
H529 C502 0.931 . S
H530 C504 0.934 . S
H531 C505 0.930 . S
H532 C510 0.930 . S
H533 C511 0.931 . S
H534 C513 0.934 . S
H535 C514 0.930 . S
Ho536 C539 2.811 . S
Ho536 O556 2.322 . S
Ho536 O558 2.378 . S
Ho536 O559 2.524 . S
Ho536 O560 2.381 . S
Ho536 O561 2.669 . S
Ho536 O563 2.346 . S
Ho536 O567 2.305 . S
Ho537 C548 2.811 . S
Ho537 O557 2.346 . S
Ho537 O561 2.305 . S
Ho537 O562 2.322 . S
Ho537 O564 2.378 . S
Ho537 O565 2.524 . S
Ho537 O566 2.381 . S
Ho537 O567 2.669 . S
C538 O556 1.259 . S
C538 O557 1.268 . S
C539 Ho536 2.811 . S
C539 C540 1.488 . S
C539 O558 1.215 . S
C539 O559 1.289 . S
C540 C539 1.488 . S
C540 C541 1.348 . S
C540 C545 1.413 . S
C541 C540 1.348 . S
C541 C542 1.442 . S
C541 H568 0.930 . S
C542 C541 1.442 . S
C542 C543 1.381 . S
C542 H569 0.931 . S
C543 C542 1.381 . S
C543 C544 1.321 . S
C544 C543 1.321 . S
C544 C545 1.403 . S
C544 H570 0.934 . S
C545 C540 1.413 . S
C545 C544 1.403 . S
C545 H571 0.930 . S
C546 O560 1.275 . S
C546 O561 1.256 . S
C547 O562 1.259 . S
C547 O563 1.268 . S
C548 Ho537 2.811 . S
C548 C549 1.488 . S
C548 O564 1.215 . S
C548 O565 1.289 . S
C549 C548 1.488 . S
C549 C550 1.348 . S
C549 C554 1.413 . S
C550 C549 1.348 . S
C550 C551 1.442 . S
C550 H572 0.930 . S
C551 C550 1.442 . S
C551 C552 1.381 . S
C551 H573 0.931 . S
C552 C551 1.381 . S
C552 C553 1.321 . S
C553 C552 1.321 . S
C553 C554 1.403 . S
C553 H574 0.934 . S
C554 C549 1.413 . S
C554 C553 1.403 . S
C554 H575 0.930 . S
C555 O566 1.275 . S
C555 O567 1.256 . S
O556 Ho536 2.322 . S
O556 C538 1.259 . S
O557 Ho537 2.346 . S
O557 C538 1.268 . S
O558 Ho536 2.378 . S
O558 C539 1.215 . S
O559 Ho536 2.524 . S
O559 C539 1.289 . S
O560 Ho536 2.381 . S
O560 C546 1.275 . S
O561 Ho536 2.669 . S
O561 Ho537 2.305 . S
O561 C546 1.256 . S
O562 Ho537 2.322 . S
O562 C547 1.259 . S
O563 Ho536 2.346 . S
O563 C547 1.268 . S
O564 Ho537 2.378 . S
O564 C548 1.215 . S
O565 Ho537 2.524 . S
O565 C548 1.289 . S
O566 Ho537 2.381 . S
O566 C555 1.275 . S
O567 Ho536 2.305 . S
O567 Ho537 2.669 . S
O567 C555 1.256 . S
H568 C541 0.930 . S
H569 C542 0.931 . S
H570 C544 0.934 . S
H571 C545 0.930 . S
H572 C550 0.930 . S
H573 C551 0.931 . S
H574 C553 0.934 . S
H575 C554 0.930 . S
Ho576 C579 2.811 . S
Ho576 O596 2.322 . S
Ho576 O598 2.378 . S
Ho576 O599 2.524 . S
Ho576 O600 2.381 . S
Ho576 O601 2.669 1_554 S
Ho576 O603 2.346 . S
Ho576 O607 2.305 . S
Ho577 C588 2.811 . S
Ho577 O597 2.346 . S
Ho577 O601 2.305 . S
Ho577 O602 2.322 . S
Ho577 O604 2.378 . S
Ho577 O605 2.524 . S
Ho577 O606 2.381 . S
Ho577 O607 2.669 1_556 S
C578 O596 1.259 . S
C578 O597 1.268 1_554 S
C579 Ho576 2.811 . S
C579 C580 1.488 . S
C579 O598 1.215 . S
C579 O599 1.289 . S
C580 C579 1.488 . S
C580 C581 1.348 . S
C580 C585 1.413 1_545 S
C581 C580 1.348 . S
C581 C582 1.442 . S
C581 H608 0.930 . S
C582 C581 1.442 . S
C582 C583 1.381 . S
C582 H609 0.931 . S
C583 C582 1.381 . S
C583 C584 1.321 1_545 S
C584 C583 1.321 1_565 S
C584 C585 1.403 . S
C584 H610 0.934 . S
C585 C580 1.413 1_565 S
C585 C584 1.403 . S
C585 H611 0.930 . S
C586 O600 1.275 1_556 S
C586 O601 1.256 . S
C587 O602 1.259 1_554 S
C587 O603 1.268 . S
C588 Ho577 2.811 . S
C588 C589 1.488 . S
C588 O604 1.215 . S
C588 O605 1.289 . S
C589 C588 1.488 . S
C589 C590 1.348 . S
C589 C594 1.413 . S
C590 C589 1.348 . S
C590 C591 1.442 . S
C590 H612 0.930 . S
C591 C590 1.442 . S
C591 C592 1.381 . S
C591 H613 0.931 . S
C592 C591 1.381 . S
C592 C593 1.321 . S
C593 C592 1.321 . S
C593 C594 1.403 . S
C593 H614 0.934 . S
C594 C589 1.413 . S
C594 C593 1.403 . S
C594 H615 0.930 . S
C595 O606 1.275 1_554 S
C595 O607 1.256 . S
O596 Ho576 2.322 . S
O596 C578 1.259 . S
O597 Ho577 2.346 . S
O597 C578 1.268 1_556 S
O598 Ho576 2.378 . S
O598 C579 1.215 . S
O599 Ho576 2.524 . S
O599 C579 1.289 . S
O600 Ho576 2.381 . S
O600 C586 1.275 1_554 S
O601 Ho576 2.669 1_556 S
O601 Ho577 2.305 . S
O601 C586 1.256 . S
O602 Ho577 2.322 . S
O602 C587 1.259 1_556 S
O603 Ho576 2.346 . S
O603 C587 1.268 . S
O604 Ho577 2.378 . S
O604 C588 1.215 . S
O605 Ho577 2.524 . S
O605 C588 1.289 . S
O606 Ho577 2.381 . S
O606 C595 1.275 1_556 S
O607 Ho576 2.305 . S
O607 Ho577 2.669 1_554 S
O607 C595 1.256 . S
H608 C581 0.930 . S
H609 C582 0.931 . S
H610 C584 0.934 . S
H611 C585 0.930 . S
H612 C590 0.930 . S
H613 C591 0.931 . S
H614 C593 0.934 . S
H615 C594 0.930 . S
Ho616 C619 2.811 . S
Ho616 O636 2.322 . S
Ho616 O638 2.378 . S
Ho616 O639 2.524 . S
Ho616 O640 2.381 . S
Ho616 O641 2.669 . S
Ho616 O643 2.346 . S
Ho616 O647 2.305 . S
Ho617 C628 2.811 . S
Ho617 O637 2.346 . S
Ho617 O641 2.305 . S
Ho617 O642 2.322 . S
Ho617 O644 2.378 . S
Ho617 O645 2.524 . S
Ho617 O646 2.381 . S
Ho617 O647 2.669 . S
C618 O636 1.259 . S
C618 O637 1.268 . S
C619 Ho616 2.811 . S
C619 C620 1.488 . S
C619 O638 1.215 . S
C619 O639 1.289 . S
C620 C619 1.488 . S
C620 C621 1.348 . S
C620 C625 1.413 . S
C621 C620 1.348 . S
C621 C622 1.442 . S
C621 H648 0.930 . S
C622 C621 1.442 . S
C622 C623 1.381 . S
C622 H649 0.931 . S
C623 C622 1.381 . S
C623 C624 1.321 . S
C624 C623 1.321 . S
C624 C625 1.403 . S
C624 H650 0.934 . S
C625 C620 1.413 . S
C625 C624 1.403 . S
C625 H651 0.930 . S
C626 O640 1.275 . S
C626 O641 1.256 . S
C627 O642 1.259 . S
C627 O643 1.268 . S
C628 Ho617 2.811 . S
C628 C629 1.488 . S
C628 O644 1.215 . S
C628 O645 1.289 . S
C629 C628 1.488 . S
C629 C630 1.348 . S
C629 C634 1.413 . S
C630 C629 1.348 . S
C630 C631 1.442 . S
C630 H652 0.930 . S
C631 C630 1.442 . S
C631 C632 1.381 . S
C631 H653 0.931 . S
C632 C631 1.381 . S
C632 C633 1.321 . S
C633 C632 1.321 . S
C633 C634 1.403 . S
C633 H654 0.934 . S
C634 C629 1.413 . S
C634 C633 1.403 . S
C634 H655 0.930 . S
C635 O646 1.275 . S
C635 O647 1.256 . S
O636 Ho616 2.322 . S
O636 C618 1.259 . S
O637 Ho617 2.346 . S
O637 C618 1.268 . S
O638 Ho616 2.378 . S
O638 C619 1.215 . S
O639 Ho616 2.524 . S
O639 C619 1.289 . S
O640 Ho616 2.381 . S
O640 C626 1.275 . S
O641 Ho616 2.669 . S
O641 Ho617 2.305 . S
O641 C626 1.256 . S
O642 Ho617 2.322 . S
O642 C627 1.259 . S
O643 Ho616 2.346 . S
O643 C627 1.268 . S
O644 Ho617 2.378 . S
O644 C628 1.215 . S
O645 Ho617 2.524 . S
O645 C628 1.289 . S
O646 Ho617 2.381 . S
O646 C635 1.275 . S
O647 Ho616 2.305 . S
O647 Ho617 2.669 . S
O647 C635 1.256 . S
H648 C621 0.930 . S
H649 C622 0.931 . S
H650 C624 0.934 . S
H651 C625 0.930 . S
H652 C630 0.930 . S
H653 C631 0.931 . S
H654 C633 0.934 . S
H655 C634 0.930 . S
Ho656 C659 2.811 1_554 S
Ho656 O676 2.322 1_554 S
Ho656 O678 2.378 . S
Ho656 O679 2.524 1_554 S
Ho656 O680 2.381 . S
Ho656 O681 2.669 . S
Ho656 O683 2.346 . S
Ho656 O687 2.305 . S
Ho657 C668 2.774 1_556 S
Ho657 O677 2.401 . S
Ho657 O681 2.281 1_556 S
Ho657 O682 2.264 1_556 S
Ho657 O684 2.357 1_556 S
Ho657 O685 2.477 1_556 S
Ho657 O686 2.394 . S
Ho657 O687 2.675 1_556 S
C658 O676 1.259 . S
C658 O677 1.268 . S
C659 Ho656 2.811 1_556 S
C659 C660 1.488 . S
C659 O678 1.215 1_556 S
C659 O679 1.289 . S
C660 C659 1.488 . S
C660 C661 1.348 . S
C660 C665 1.413 . S
C661 C660 1.348 . S
C661 C662 1.442 . S
C661 H688 0.930 . S
C662 C661 1.442 . S
C662 C663 1.381 . S
C662 H689 0.931 . S
C663 C662 1.381 . S
C663 C664 1.321 . S
C664 C663 1.321 . S
C664 C665 1.403 . S
C664 H690 0.934 . S
C665 C660 1.413 . S
C665 C664 1.403 . S
C665 H691 0.930 . S
C666 O680 1.275 . S
C666 O681 1.256 . S
C667 O682 1.259 . S
C667 O683 1.268 . S
C668 Ho657 2.774 1_554 S
C668 C669 1.488 . S
C668 O684 1.215 . S
C668 O685 1.289 . S
C669 C668 1.488 . S
C669 C670 1.348 . S
C669 C674 1.413 . S
C670 C669 1.348 . S
C670 C671 1.442 . S
C670 H692 0.930 . S
C671 C670 1.442 . S
C671 C672 1.381 . S
C671 H693 0.931 . S
C672 C671 1.381 . S
C672 C673 1.321 . S
C673 C672 1.321 . S
C673 C674 1.403 . S
C673 H694 0.934 . S
C674 C669 1.413 . S
C674 C673 1.403 . S
C674 H695 0.930 . S
C675 O686 1.275 1_554 S
C675 O687 1.256 . S
O676 Ho656 2.322 1_556 S
O676 C658 1.259 . S
O677 Ho657 2.401 . S
O677 C658 1.268 . S
O678 Ho656 2.378 . S
O678 C659 1.215 1_554 S
O679 Ho656 2.524 1_556 S
O679 C659 1.289 . S
O680 Ho656 2.381 . S
O680 C666 1.275 . S
O681 Ho656 2.669 . S
O681 Ho657 2.281 1_554 S
O681 C666 1.256 . S
O682 Ho657 2.264 1_554 S
O682 C667 1.259 . S
O683 Ho656 2.346 . S
O683 C667 1.268 . S
O684 Ho657 2.357 1_554 S
O684 C668 1.215 . S
O685 Ho657 2.477 1_554 S
O685 C668 1.289 . S
O686 Ho657 2.394 . S
O686 C675 1.275 1_556 S
O687 Ho656 2.305 . S
O687 Ho657 2.675 1_554 S
O687 C675 1.256 . S
H688 C661 0.930 . S
H689 C662 0.931 . S
H690 C664 0.934 . S
H691 C665 0.930 . S
H692 C670 0.930 . S
H693 C671 0.931 . S
H694 C673 0.934 . S
H695 C674 0.930 . S
Ho696 C699 2.811 . S
Ho696 O716 2.322 . S
Ho696 O718 2.378 . S
Ho696 O719 2.524 . S
Ho696 O720 2.381 . S
Ho696 O721 2.669 . S
Ho696 O723 2.346 . S
Ho696 O727 2.305 . S
Ho697 C708 2.811 . S
Ho697 O717 2.346 . S
Ho697 O721 2.305 . S
Ho697 O722 2.322 . S
Ho697 O724 2.378 . S
Ho697 O725 2.524 . S
Ho697 O726 2.381 . S
Ho697 O727 2.669 . S
C698 O716 1.259 . S
C698 O717 1.268 . S
C699 Ho696 2.811 . S
C699 C700 1.488 . S
C699 O718 1.215 . S
C699 O719 1.289 . S
C700 C699 1.488 . S
C700 C701 1.348 . S
C700 C705 1.413 . S
C701 C700 1.348 . S
C701 C702 1.442 . S
C701 H728 0.930 . S
C702 C701 1.442 . S
C702 C703 1.381 . S
C702 H729 0.931 . S
C703 C702 1.381 . S
C703 C704 1.321 . S
C704 C703 1.321 . S
C704 C705 1.403 . S
C704 H730 0.934 . S
C705 C700 1.413 . S
C705 C704 1.403 . S
C705 H731 0.930 . S
C706 O720 1.275 . S
C706 O721 1.256 . S
C707 O722 1.259 . S
C707 O723 1.268 . S
C708 Ho697 2.811 . S
C708 C709 1.488 . S
C708 O724 1.215 . S
C708 O725 1.289 . S
C709 C708 1.488 . S
C709 C710 1.348 . S
C709 C714 1.413 . S
C710 C709 1.348 . S
C710 C711 1.442 . S
C710 H732 0.930 . S
C711 C710 1.442 . S
C711 C712 1.381 . S
C711 H733 0.931 . S
C712 C711 1.381 . S
C712 C713 1.321 . S
C713 C712 1.321 . S
C713 C714 1.403 . S
C713 H734 0.934 . S
C714 C709 1.413 . S
C714 C713 1.403 . S
C714 H735 0.930 . S
C715 O726 1.275 . S
C715 O727 1.256 . S
O716 Ho696 2.322 . S
O716 C698 1.259 . S
O717 Ho697 2.346 . S
O717 C698 1.268 . S
O718 Ho696 2.378 . S
O718 C699 1.215 . S
O719 Ho696 2.524 . S
O719 C699 1.289 . S
O720 Ho696 2.381 . S
O720 C706 1.275 . S
O721 Ho696 2.669 . S
O721 Ho697 2.305 . S
O721 C706 1.256 . S
O722 Ho697 2.322 . S
O722 C707 1.259 . S
O723 Ho696 2.346 . S
O723 C707 1.268 . S
O724 Ho697 2.378 . S
O724 C708 1.215 . S
O725 Ho697 2.524 . S
O725 C708 1.289 . S
O726 Ho697 2.381 . S
O726 C715 1.275 . S
O727 Ho696 2.305 . S
O727 Ho697 2.669 . S
O727 C715 1.256 . S
H728 C701 0.930 . S
H729 C702 0.931 . S
H730 C704 0.934 . S
H731 C705 0.930 . S
H732 C710 0.930 . S
H733 C711 0.931 . S
H734 C713 0.934 . S
H735 C714 0.930 . S
Ho736 C739 2.811 . S
Ho736 O756 2.322 . S
Ho736 O758 2.378 . S
Ho736 O759 2.524 . S
Ho736 O760 2.381 . S
Ho736 O761 2.669 . S
Ho736 O763 2.346 . S
Ho736 O767 2.305 . S
Ho737 C748 2.811 . S
Ho737 O757 2.358 . S
Ho737 O761 2.305 . S
Ho737 O762 2.322 . S
Ho737 O764 2.378 . S
Ho737 O765 2.524 . S
Ho737 O766 2.381 . S
Ho737 O767 2.669 . S
C738 O756 1.259 1_655 S
C738 O757 1.265 1_655 S
C739 Ho736 2.811 . S
C739 C740 1.488 . S
C739 O758 1.215 . S
C739 O759 1.289 . S
C740 C739 1.488 . S
C740 C741 1.348 1_455 S
C740 C745 1.413 . S
C741 C740 1.348 1_655 S
C741 C742 1.442 . S
C741 H768 0.930 . S
C742 C741 1.442 . S
C742 C743 1.381 . S
C742 H769 0.931 . S
C743 C742 1.381 . S
C743 C744 1.321 . S
C744 C743 1.321 . S
C744 C745 1.403 1_655 S
C744 H770 0.933 1_655 S
C745 C740 1.413 . S
C745 C744 1.403 1_455 S
C745 H771 0.930 . S
C746 O760 1.275 . S
C746 O761 1.256 . S
C747 O762 1.259 . S
C747 O763 1.268 . S
C748 Ho737 2.811 . S
C748 C749 1.488 . S
C748 O764 1.215 . S
C748 O765 1.289 . S
C749 C748 1.488 . S
C749 C750 1.348 . S
C749 C754 1.413 . S
C750 C749 1.348 . S
C750 C751 1.442 . S
C750 H772 0.930 . S
C751 C750 1.442 . S
C751 C752 1.381 . S
C751 H773 0.931 . S
C752 C751 1.381 . S
C752 C753 1.321 . S
C753 C752 1.321 . S
C753 C754 1.403 . S
C753 H774 0.934 . S
C754 C749 1.413 . S
C754 C753 1.403 . S
C754 H775 0.930 . S
C755 O766 1.275 . S
C755 O767 1.256 . S
O756 Ho736 2.322 . S
O756 C738 1.259 1_455 S
O757 Ho737 2.358 . S
O757 C738 1.265 1_455 S
O758 Ho736 2.378 . S
O758 C739 1.215 . S
O759 Ho736 2.524 . S
O759 C739 1.289 . S
O760 Ho736 2.381 . S
O760 C746 1.275 . S
O761 Ho736 2.669 . S
O761 Ho737 2.305 . S
O761 C746 1.256 . S
O762 Ho737 2.322 . S
O762 C747 1.259 . S
O763 Ho736 2.346 . S
O763 C747 1.268 . S
O764 Ho737 2.378 . S
O764 C748 1.215 . S
O765 Ho737 2.524 . S
O765 C748 1.289 . S
O766 Ho737 2.381 . S
O766 C755 1.275 . S
O767 Ho736 2.305 . S
O767 Ho737 2.669 . S
O767 C755 1.256 . S
H768 C741 0.930 . S
H769 C742 0.931 . S
H770 C744 0.933 1_455 S
H771 C745 0.930 . S
H772 C750 0.930 . S
H773 C751 0.931 . S
H774 C753 0.934 . S
H775 C754 0.930 . S
Ho776 C779 2.811 . S
Ho776 O796 2.322 . S
Ho776 O798 2.378 . S
Ho776 O799 2.524 . S
Ho776 O800 2.381 . S
Ho776 O801 2.669 . S
Ho776 O803 2.346 . S
Ho776 O807 2.305 . S
Ho777 C788 2.811 . S
Ho777 O797 2.346 . S
Ho777 O801 2.305 . S
Ho777 O802 2.322 . S
Ho777 O804 2.378 . S
Ho777 O805 2.524 . S
Ho777 O806 2.381 . S
Ho777 O807 2.669 . S
C778 O796 1.259 . S
C778 O797 1.268 . S
C779 Ho776 2.811 . S
C779 C780 1.488 . S
C779 O798 1.215 . S
C779 O799 1.289 . S
C780 C779 1.488 . S
C780 C781 1.348 . S
C780 C785 1.413 . S
C781 C780 1.348 . S
C781 C782 1.442 . S
C781 H808 0.930 . S
C782 C781 1.442 . S
C782 C783 1.381 . S
C782 H809 0.931 . S
C783 C782 1.381 . S
C783 C784 1.321 . S
C784 C783 1.321 . S
C784 C785 1.403 . S
C784 H810 0.934 . S
C785 C780 1.413 . S
C785 C784 1.403 . S
C785 H811 0.930 . S
C786 O800 1.275 . S
C786 O801 1.256 . S
C787 O802 1.259 . S
C787 O803 1.268 . S
C788 Ho777 2.811 . S
C788 C789 1.488 . S
C788 O804 1.215 . S
C788 O805 1.289 . S
C789 C788 1.488 . S
C789 C790 1.348 . S
C789 C794 1.413 . S
C790 C789 1.348 . S
C790 C791 1.442 . S
C790 H812 0.930 . S
C791 C790 1.442 . S
C791 C792 1.381 . S
C791 H813 0.931 . S
C792 C791 1.381 . S
C792 C793 1.321 . S
C793 C792 1.321 . S
C793 C794 1.403 . S
C793 H814 0.934 . S
C794 C789 1.413 . S
C794 C793 1.403 . S
C794 H815 0.930 . S
C795 O806 1.275 . S
C795 O807 1.256 . S
O796 Ho776 2.322 . S
O796 C778 1.259 . S
O797 Ho777 2.346 . S
O797 C778 1.268 . S
O798 Ho776 2.378 . S
O798 C779 1.215 . S
O799 Ho776 2.524 . S
O799 C779 1.289 . S
O800 Ho776 2.381 . S
O800 C786 1.275 . S
O801 Ho776 2.669 . S
O801 Ho777 2.305 . S
O801 C786 1.256 . S
O802 Ho777 2.322 . S
O802 C787 1.259 . S
O803 Ho776 2.346 . S
O803 C787 1.268 . S
O804 Ho777 2.378 . S
O804 C788 1.215 . S
O805 Ho777 2.524 . S
O805 C788 1.289 . S
O806 Ho777 2.381 . S
O806 C795 1.275 . S
O807 Ho776 2.305 . S
O807 Ho777 2.669 . S
O807 C795 1.256 . S
H808 C781 0.930 . S
H809 C782 0.931 . S
H810 C784 0.934 . S
H811 C785 0.930 . S
H812 C790 0.930 . S
H813 C791 0.931 . S
H814 C793 0.934 . S
H815 C794 0.930 . S
Ho816 C819 2.811 . S
Ho816 O836 2.322 . S
Ho816 O838 2.378 . S
Ho816 O839 2.524 . S
Ho816 O840 2.381 . S
Ho816 O841 2.669 . S
Ho816 O843 2.346 . S
Ho816 O847 2.305 . S
Ho817 C828 2.811 . S
Ho817 O837 2.346 . S
Ho817 O841 2.305 . S
Ho817 O842 2.322 . S
Ho817 O844 2.378 . S
Ho817 O845 2.524 . S
Ho817 O846 2.381 . S
Ho817 O847 2.669 . S
C818 O836 1.259 . S
C818 O837 1.268 . S
C819 Ho816 2.811 . S
C819 C820 1.488 . S
C819 O838 1.215 . S
C819 O839 1.289 . S
C820 C819 1.488 . S
C820 C821 1.348 . S
C820 C825 1.413 . S
C821 C820 1.348 . S
C821 C822 1.442 . S
C821 H848 0.930 . S
C822 C821 1.442 . S
C822 C823 1.381 . S
C822 H849 0.931 . S
C823 C822 1.381 . S
C823 C824 1.321 . S
C824 C823 1.321 . S
C824 C825 1.403 . S
C824 H850 0.934 . S
C825 C820 1.413 . S
C825 C824 1.403 . S
C825 H851 0.930 . S
C826 O840 1.275 . S
C826 O841 1.256 . S
C827 O842 1.259 . S
C827 O843 1.268 . S
C828 Ho817 2.811 . S
C828 C829 1.488 . S
C828 O844 1.215 . S
C828 O845 1.289 . S
C829 C828 1.488 . S
C829 C830 1.348 . S
C829 C834 1.413 . S
C830 C829 1.348 . S
C830 C831 1.442 . S
C830 H852 0.930 . S
C831 C830 1.442 . S
C831 C832 1.381 . S
C831 H853 0.931 . S
C832 C831 1.381 . S
C832 C833 1.321 . S
C833 C832 1.321 . S
C833 C834 1.403 . S
C833 H854 0.934 . S
C834 C829 1.413 . S
C834 C833 1.403 . S
C834 H855 0.930 . S
C835 O846 1.275 . S
C835 O847 1.256 . S
O836 Ho816 2.322 . S
O836 C818 1.259 . S
O837 Ho817 2.346 . S
O837 C818 1.268 . S
O838 Ho816 2.378 . S
O838 C819 1.215 . S
O839 Ho816 2.524 . S
O839 C819 1.289 . S
O840 Ho816 2.381 . S
O840 C826 1.275 . S
O841 Ho816 2.669 . S
O841 Ho817 2.305 . S
O841 C826 1.256 . S
O842 Ho817 2.322 . S
O842 C827 1.259 . S
O843 Ho816 2.346 . S
O843 C827 1.268 . S
O844 Ho817 2.378 . S
O844 C828 1.215 . S
O845 Ho817 2.524 . S
O845 C828 1.289 . S
O846 Ho817 2.381 . S
O846 C835 1.275 . S
O847 Ho816 2.305 . S
O847 Ho817 2.669 . S
O847 C835 1.256 . S
H848 C821 0.930 . S
H849 C822 0.931 . S
H850 C824 0.934 . S
H851 C825 0.930 . S
H852 C830 0.930 . S
H853 C831 0.931 . S
H854 C833 0.934 . S
H855 C834 0.930 . S
Ho856 C859 2.811 . S
Ho856 O876 2.322 . S
Ho856 O878 2.378 . S
Ho856 O879 2.524 . S
Ho856 O880 2.381 . S
Ho856 O881 2.669 . S
Ho856 O883 2.346 . S
Ho856 O887 2.305 . S
Ho857 C868 2.811 . S
Ho857 O877 2.346 . S
Ho857 O881 2.305 . S
Ho857 O882 2.322 . S
Ho857 O884 2.378 . S
Ho857 O885 2.524 . S
Ho857 O886 2.381 . S
Ho857 O887 2.669 . S
C858 O876 1.259 . S
C858 O877 1.268 . S
C859 Ho856 2.811 . S
C859 C860 1.488 . S
C859 O878 1.215 . S
C859 O879 1.289 . S
C860 C859 1.488 . S
C860 C861 1.348 . S
C860 C865 1.413 . S
C861 C860 1.348 . S
C861 C862 1.442 . S
C861 H888 0.930 . S
C862 C861 1.442 . S
C862 C863 1.381 . S
C862 H889 0.931 . S
C863 C862 1.381 . S
C863 C864 1.321 . S
C864 C863 1.321 . S
C864 C865 1.403 . S
C864 H890 0.934 . S
C865 C860 1.413 . S
C865 C864 1.403 . S
C865 H891 0.930 . S
C866 O880 1.275 . S
C866 O881 1.256 . S
C867 O882 1.259 . S
C867 O883 1.268 . S
C868 Ho857 2.811 . S
C868 C869 1.488 . S
C868 O884 1.215 . S
C868 O885 1.289 . S
C869 C868 1.488 . S
C869 C870 1.348 . S
C869 C874 1.413 . S
C870 C869 1.348 . S
C870 C871 1.442 . S
C870 H892 0.930 . S
C871 C870 1.442 . S
C871 C872 1.381 . S
C871 H893 0.931 . S
C872 C871 1.381 . S
C872 C873 1.321 . S
C873 C872 1.321 . S
C873 C874 1.403 . S
C873 H894 0.934 . S
C874 C869 1.413 . S
C874 C873 1.403 . S
C874 H895 0.930 . S
C875 O886 1.275 . S
C875 O887 1.256 . S
O876 Ho856 2.322 . S
O876 C858 1.259 . S
O877 Ho857 2.346 . S
O877 C858 1.268 . S
O878 Ho856 2.378 . S
O878 C859 1.215 . S
O879 Ho856 2.524 . S
O879 C859 1.289 . S
O880 Ho856 2.381 . S
O880 C866 1.275 . S
O881 Ho856 2.669 . S
O881 Ho857 2.305 . S
O881 C866 1.256 . S
O882 Ho857 2.322 . S
O882 C867 1.259 . S
O883 Ho856 2.346 . S
O883 C867 1.268 . S
O884 Ho857 2.378 . S
O884 C868 1.215 . S
O885 Ho857 2.524 . S
O885 C868 1.289 . S
O886 Ho857 2.381 . S
O886 C875 1.275 . S
O887 Ho856 2.305 . S
O887 Ho857 2.669 . S
O887 C875 1.256 . S
H888 C861 0.930 . S
H889 C862 0.931 . S
H890 C864 0.934 . S
H891 C865 0.930 . S
H892 C870 0.930 . S
H893 C871 0.931 . S
H894 C873 0.934 . S
H895 C874 0.930 . S
Ho896 C899 2.811 . S
Ho896 O916 2.322 . S
Ho896 O918 2.378 . S
Ho896 O919 2.524 . S
Ho896 O920 2.381 . S
Ho896 O921 2.669 . S
Ho896 O923 2.346 . S
Ho896 O927 2.305 . S
Ho897 C908 2.811 . S
Ho897 O917 2.346 . S
Ho897 O921 2.305 . S
Ho897 O922 2.322 . S
Ho897 O924 2.378 . S
Ho897 O925 2.524 . S
Ho897 O926 2.381 . S
Ho897 O927 2.669 . S
C898 O916 1.259 . S
C898 O917 1.268 . S
C899 Ho896 2.811 . S
C899 C900 1.488 . S
C899 O918 1.215 . S
C899 O919 1.289 . S
C900 C899 1.488 . S
C900 C901 1.348 . S
C900 C905 1.413 . S
C901 C900 1.348 . S
C901 C902 1.442 . S
C901 H928 0.930 . S
C902 C901 1.442 . S
C902 C903 1.381 . S
C902 H929 0.931 . S
C903 C902 1.381 . S
C903 C904 1.321 . S
C904 C903 1.321 . S
C904 C905 1.403 . S
C904 H930 0.934 . S
C905 C900 1.413 . S
C905 C904 1.403 . S
C905 H931 0.930 . S
C906 O920 1.275 . S
C906 O921 1.256 . S
C907 O922 1.259 . S
C907 O923 1.268 . S
C908 Ho897 2.811 . S
C908 C909 1.488 . S
C908 O924 1.215 . S
C908 O925 1.289 . S
C909 C908 1.488 . S
C909 C910 1.348 . S
C909 C914 1.413 . S
C910 C909 1.348 . S
C910 C911 1.442 . S
C910 H932 0.930 . S
C911 C910 1.442 . S
C911 C912 1.381 . S
C911 H933 0.931 . S
C912 C911 1.381 . S
C912 C913 1.321 . S
C913 C912 1.321 . S
C913 C914 1.403 . S
C913 H934 0.934 . S
C914 C909 1.413 . S
C914 C913 1.403 . S
C914 H935 0.930 . S
C915 O926 1.275 . S
C915 O927 1.256 . S
O916 Ho896 2.322 . S
O916 C898 1.259 . S
O917 Ho897 2.346 . S
O917 C898 1.268 . S
O918 Ho896 2.378 . S
O918 C899 1.215 . S
O919 Ho896 2.524 . S
O919 C899 1.289 . S
O920 Ho896 2.381 . S
O920 C906 1.275 . S
O921 Ho896 2.669 . S
O921 Ho897 2.305 . S
O921 C906 1.256 . S
O922 Ho897 2.322 . S
O922 C907 1.259 . S
O923 Ho896 2.346 . S
O923 C907 1.268 . S
O924 Ho897 2.378 . S
O924 C908 1.215 . S
O925 Ho897 2.524 . S
O925 C908 1.289 . S
O926 Ho897 2.381 . S
O926 C915 1.275 . S
O927 Ho896 2.305 . S
O927 Ho897 2.669 . S
O927 C915 1.256 . S
H928 C901 0.930 . S
H929 C902 0.931 . S
H930 C904 0.934 . S
H931 C905 0.930 . S
H932 C910 0.930 . S
H933 C911 0.931 . S
H934 C913 0.934 . S
H935 C914 0.930 . S
Ho936 C939 2.806 1_554 S
Ho936 O956 2.322 1_554 S
Ho936 O958 2.378 1_554 S
Ho936 O959 2.524 . S
Ho936 O960 2.381 1_554 S
Ho936 O961 2.669 1_554 S
Ho936 O963 2.346 . S
Ho936 O967 2.305 . S
Ho937 C948 2.811 1_455 S
Ho937 O957 2.346 . S
Ho937 O961 2.305 1_554 S
Ho937 O962 2.322 . S
Ho937 O964 2.378 1_455 S
Ho937 O965 2.524 1_455 S
Ho937 O966 2.381 . S
Ho937 O967 2.669 . S
C938 O956 1.259 1_554 S
C938 O957 1.268 . S
C939 Ho936 2.806 1_556 S
C939 C940 1.496 . S
C939 O958 1.252 . S
C939 O959 1.245 1_556 S
C940 C939 1.496 . S
C940 C941 1.348 1_556 S
C940 C945 1.413 . S
C941 C940 1.348 1_554 S
C941 C942 1.442 . S
C941 H968 0.930 . S
C942 C941 1.442 . S
C942 C943 1.381 1_554 S
C942 H969 0.931 . S
C943 C942 1.381 1_556 S
C943 C944 1.321 . S
C944 C943 1.321 . S
C944 C945 1.403 . S
C944 H970 0.934 . S
C945 C940 1.413 . S
C945 C944 1.403 . S
C945 H971 0.930 . S
C946 O960 1.275 . S
C946 O961 1.256 . S
C947 O962 1.259 . S
C947 O963 1.268 . S
C948 Ho937 2.811 1_655 S
C948 C949 1.488 . S
C948 O964 1.215 . S
C948 O965 1.289 . S
C949 C948 1.488 . S
C949 C950 1.348 . S
C949 C954 1.413 . S
C950 C949 1.348 . S
C950 C951 1.442 . S
C950 H972 0.930 . S
C951 C950 1.442 . S
C951 C952 1.381 . S
C951 H973 0.931 . S
C952 C951 1.381 . S
C952 C953 1.321 . S
C953 C952 1.321 . S
C953 C954 1.403 . S
C953 H974 0.934 . S
C954 C949 1.413 . S
C954 C953 1.403 . S
C954 H975 0.930 . S
C955 O966 1.275 . S
C955 O967 1.256 . S
O956 Ho936 2.322 1_556 S
O956 C938 1.259 1_556 S
O957 Ho937 2.346 . S
O957 C938 1.268 . S
O958 Ho936 2.378 1_556 S
O958 C939 1.252 . S
O959 Ho936 2.524 . S
O959 C939 1.245 1_554 S
O960 Ho936 2.381 1_556 S
O960 C946 1.275 . S
O961 Ho936 2.669 1_556 S
O961 Ho937 2.305 1_556 S
O961 C946 1.256 . S
O962 Ho937 2.322 . S
O962 C947 1.259 . S
O963 Ho936 2.346 . S
O963 C947 1.268 . S
O964 Ho937 2.378 1_655 S
O964 C948 1.215 . S
O965 Ho937 2.524 1_655 S
O965 C948 1.289 . S
O966 Ho937 2.381 . S
O966 C955 1.275 . S
O967 Ho936 2.305 . S
O967 Ho937 2.669 . S
O967 C955 1.256 . S
H968 C941 0.930 . S
H969 C942 0.931 . S
H970 C944 0.934 . S
H971 C945 0.930 . S
H972 C950 0.930 . S
H973 C951 0.931 . S
H974 C953 0.934 . S
H975 C954 0.930 . S
C976 C977 1.349 . S
C976 C978 1.327 . S
C976 H1001 0.950 1_455 S
C977 C976 1.349 . S
C977 C993 1.349 . S
C978 C976 1.327 . S
C978 C997 1.429 . S
C978 H1002 0.950 . S
C979 C996 1.574 . S
C979 C998 1.368 . S
C979 H1003 0.949 . S
H980 C984 0.949 1_554 S
C981 C982 1.349 1_556 S
C981 C983 1.327 . S
C981 H1004 0.950 . S
C982 C981 1.349 1_554 S
C982 C994 1.349 . S
C983 C981 1.327 . S
C983 C999 1.429 . S
C983 H1005 0.950 . S
C984 H980 0.949 1_556 S
C984 C992 1.574 . S
C984 C1000 1.368 . S
H985 C993 0.950 . S
H986 C991 0.950 . S
H987 C992 0.949 . S
H988 C994 0.950 . S
H989 C995 0.950 . S
H990 C996 0.949 . S
C991 H986 0.950 . S
C991 C993 1.327 . S
C991 C997 1.429 . S
C992 C984 1.574 . S
C992 H987 0.949 . S
C992 C998 1.368 . S
C993 C977 1.349 . S
C993 H985 0.950 . S
C993 C991 1.327 . S
C994 C982 1.349 . S
C994 H988 0.950 . S
C994 C995 1.327 . S
C995 H989 0.950 . S
C995 C994 1.327 . S
C995 C999 1.429 1_554 S
C996 C979 1.574 . S
C996 H990 0.949 . S
C996 C1000 1.368 . S
C997 C978 1.429 . S
C997 C991 1.429 . S
C997 C998 1.523 . S
C998 C979 1.368 . S
C998 C992 1.368 . S
C998 C997 1.523 . S
C999 C983 1.429 . S
C999 C995 1.429 1_556 S
C999 C1000 1.523 . S
C1000 C984 1.368 . S
C1000 C996 1.368 . S
C1000 C999 1.523 . S
H1001 C976 0.950 1_655 S
H1002 C978 0.950 . S
H1003 C979 0.949 . S
H1004 C981 0.950 . S
H1005 C983 0.950 . S
C1006 C1007 1.349 . S
C1006 C1008 1.327 . S
C1006 H1031 0.950 . S
C1007 C1006 1.349 . S
C1007 C1023 1.349 . S
C1008 C1006 1.327 . S
C1008 C1027 1.429 . S
C1008 H1032 0.950 . S
C1009 C1026 1.574 . S
C1009 C1028 1.368 . S
C1009 H1033 0.949 . S
H1010 C1014 0.949 . S
C1011 C1012 1.349 . S
C1011 C1013 1.327 . S
C1011 H1034 0.950 . S
C1012 C1011 1.349 . S
C1012 C1024 1.349 . S
C1013 C1011 1.327 . S
C1013 C1029 1.429 . S
C1013 H1035 0.950 . S
C1014 H1010 0.949 . S
C1014 C1022 1.574 . S
C1014 C1030 1.368 . S
H1015 C1023 0.950 . S
H1016 C1021 0.950 . S
H1017 C1022 0.949 . S
H1018 C1024 0.950 . S
H1019 C1025 0.950 . S
H1020 C1026 0.949 . S
C1021 H1016 0.950 . S
C1021 C1023 1.327 . S
C1021 C1027 1.429 . S
C1022 C1014 1.574 . S
C1022 H1017 0.949 . S
C1022 C1028 1.368 . S
C1023 C1007 1.349 . S
C1023 H1015 0.950 . S
C1023 C1021 1.327 . S
C1024 C1012 1.349 . S
C1024 H1018 0.950 . S
C1024 C1025 1.327 . S
C1025 H1019 0.950 . S
C1025 C1024 1.327 . S
C1025 C1029 1.429 . S
C1026 C1009 1.574 . S
C1026 H1020 0.949 . S
C1026 C1030 1.368 . S
C1027 C1008 1.429 . S
C1027 C1021 1.429 . S
C1027 C1028 1.523 . S
C1028 C1009 1.368 . S
C1028 C1022 1.368 . S
C1028 C1027 1.523 . S
C1029 C1013 1.429 . S
C1029 C1025 1.429 . S
C1029 C1030 1.523 . S
C1030 C1014 1.368 . S
C1030 C1026 1.368 . S
C1030 C1029 1.523 . S
H1031 C1006 0.950 . S
H1032 C1008 0.950 . S
H1033 C1009 0.949 . S
H1034 C1011 0.950 . S
H1035 C1013 0.950 . S
C1036 C1037 1.349 . S
C1036 C1038 1.327 . S
C1036 H1061 0.950 . S
C1037 C1036 1.349 . S
C1037 C1053 1.349 . S
C1038 C1036 1.327 . S
C1038 C1057 1.429 . S
C1038 H1062 0.950 . S
C1039 C1056 1.574 . S
C1039 C1058 1.368 . S
C1039 H1063 0.949 . S
H1040 C1044 0.949 . S
C1041 C1042 1.349 . S
C1041 C1043 1.327 . S
C1041 H1064 0.950 . S
C1042 C1041 1.349 . S
C1042 C1054 1.349 . S
C1043 C1041 1.327 . S
C1043 C1059 1.429 . S
C1043 H1065 0.950 . S
C1044 H1040 0.949 . S
C1044 C1052 1.574 . S
C1044 C1060 1.368 . S
H1045 C1053 0.950 . S
H1046 C1051 0.950 . S
H1047 C1052 0.949 . S
H1048 C1054 0.950 . S
H1049 C1055 0.950 . S
H1050 C1056 0.949 . S
C1051 H1046 0.950 . S
C1051 C1053 1.327 . S
C1051 C1057 1.429 . S
C1052 C1044 1.574 . S
C1052 H1047 0.949 . S
C1052 C1058 1.368 . S
C1053 C1037 1.349 . S
C1053 H1045 0.950 . S
C1053 C1051 1.327 . S
C1054 C1042 1.349 . S
C1054 H1048 0.950 . S
C1054 C1055 1.327 . S
C1055 H1049 0.950 . S
C1055 C1054 1.327 . S
C1055 C1059 1.429 . S
C1056 C1039 1.574 . S
C1056 H1050 0.949 . S
C1056 C1060 1.368 . S
C1057 C1038 1.429 . S
C1057 C1051 1.429 . S
C1057 C1058 1.523 . S
C1058 C1039 1.368 . S
C1058 C1052 1.368 . S
C1058 C1057 1.523 . S
C1059 C1043 1.429 . S
C1059 C1055 1.429 . S
C1059 C1060 1.523 . S
C1060 C1044 1.368 . S
C1060 C1056 1.368 . S
C1060 C1059 1.523 . S
H1061 C1036 0.950 . S
H1062 C1038 0.950 . S
H1063 C1039 0.949 . S
H1064 C1041 0.950 . S
H1065 C1043 0.950 . S
C1066 C1067 1.349 . S
C1066 C1068 1.327 . S
C1066 H1091 0.950 . S
C1067 C1066 1.349 . S
C1067 C1083 1.349 . S
C1068 C1066 1.327 . S
C1068 C1087 1.429 . S
C1068 H1092 0.950 . S
C1069 C1086 1.574 . S
C1069 C1088 1.368 . S
C1069 H1093 0.949 . S
H1070 C1074 0.949 . S
C1071 C1072 1.349 . S
C1071 C1073 1.327 . S
C1071 H1094 0.950 . S
C1072 C1071 1.349 . S
C1072 C1084 1.349 . S
C1073 C1071 1.327 . S
C1073 C1089 1.429 . S
C1073 H1095 0.950 . S
C1074 H1070 0.949 . S
C1074 C1082 1.574 . S
C1074 C1090 1.368 . S
H1075 C1083 0.950 . S
H1076 C1081 0.950 . S
H1077 C1082 0.949 . S
H1078 C1084 0.950 . S
H1079 C1085 0.950 . S
H1080 C1086 0.949 . S
C1081 H1076 0.950 . S
C1081 C1083 1.327 . S
C1081 C1087 1.429 . S
C1082 C1074 1.574 . S
C1082 H1077 0.949 . S
C1082 C1088 1.368 . S
C1083 C1067 1.349 . S
C1083 H1075 0.950 . S
C1083 C1081 1.327 . S
C1084 C1072 1.349 . S
C1084 H1078 0.950 . S
C1084 C1085 1.327 . S
C1085 H1079 0.950 . S
C1085 C1084 1.327 . S
C1085 C1089 1.429 . S
C1086 C1069 1.574 . S
C1086 H1080 0.949 . S
C1086 C1090 1.368 . S
C1087 C1068 1.429 . S
C1087 C1081 1.429 . S
C1087 C1088 1.523 . S
C1088 C1069 1.368 . S
C1088 C1082 1.368 . S
C1088 C1087 1.523 . S
C1089 C1073 1.429 . S
C1089 C1085 1.429 . S
C1089 C1090 1.523 . S
C1090 C1074 1.368 . S
C1090 C1086 1.368 . S
C1090 C1089 1.523 . S
H1091 C1066 0.950 . S
H1092 C1068 0.950 . S
H1093 C1069 0.949 . S
H1094 C1071 0.950 . S
H1095 C1073 0.950 . S
C1096 C1097 1.349 1_655 S
C1096 C1098 1.327 1_655 S
C1096 H1121 0.950 . S
C1097 C1096 1.349 1_455 S
C1097 C1113 1.349 . S
C1098 C1096 1.327 1_455 S
C1098 C1117 1.429 . S
C1098 H1122 0.950 1_455 S
C1099 C1116 1.574 . S
C1099 C1118 1.368 . S
C1099 H1123 0.949 . S
H1100 C1104 0.949 . S
C1101 C1102 1.349 . S
C1101 C1103 1.327 . S
C1101 H1124 0.950 . S
C1102 C1101 1.349 . S
C1102 C1114 1.349 . S
C1103 C1101 1.327 . S
C1103 C1119 1.429 . S
C1103 H1125 0.950 . S
C1104 H1100 0.949 . S
C1104 C1112 1.574 . S
C1104 C1120 1.368 . S
H1105 C1113 0.950 . S
H1106 C1111 0.950 . S
H1107 C1112 0.949 . S
H1108 C1114 0.950 . S
H1109 C1115 0.950 . S
H1110 C1116 0.949 . S
C1111 H1106 0.950 . S
C1111 C1113 1.327 . S
C1111 C1117 1.429 . S
C1112 C1104 1.574 . S
C1112 H1107 0.949 . S
C1112 C1118 1.368 . S
C1113 C1097 1.349 . S
C1113 H1105 0.950 . S
C1113 C1111 1.327 . S
C1114 C1102 1.349 . S
C1114 H1108 0.950 . S
C1114 C1115 1.327 . S
C1115 H1109 0.950 . S
C1115 C1114 1.327 . S
C1115 C1119 1.429 . S
C1116 C1099 1.574 . S
C1116 H1110 0.949 . S
C1116 C1120 1.368 . S
C1117 C1098 1.429 . S
C1117 C1111 1.429 . S
C1117 C1118 1.523 . S
C1118 C1099 1.368 . S
C1118 C1112 1.368 . S
C1118 C1117 1.523 . S
C1119 C1103 1.429 . S
C1119 C1115 1.429 . S
C1119 C1120 1.523 . S
C1120 C1104 1.368 . S
C1120 C1116 1.368 . S
C1120 C1119 1.523 . S
H1121 C1096 0.950 . S
H1122 C1098 0.950 1_655 S
H1123 C1099 0.949 . S
H1124 C1101 0.950 . S
H1125 C1103 0.950 . S
C1126 C1127 1.349 . S
C1126 C1128 1.327 . S
C1126 H1151 0.950 . S
C1127 C1126 1.349 . S
C1127 C1143 1.349 . S
C1128 C1126 1.327 . S
C1128 C1147 1.429 . S
C1128 H1152 0.950 . S
C1129 C1146 1.574 . S
C1129 C1148 1.368 . S
C1129 H1153 0.949 . S
H1130 C1134 0.949 . S
C1131 C1132 1.349 . S
C1131 C1133 1.327 . S
C1131 H1154 0.950 . S
C1132 C1131 1.349 . S
C1132 C1144 1.349 . S
C1133 C1131 1.327 . S
C1133 C1149 1.429 . S
C1133 H1155 0.950 . S
C1134 H1130 0.949 . S
C1134 C1142 1.574 . S
C1134 C1150 1.368 . S
H1135 C1143 0.950 . S
H1136 C1141 0.950 . S
H1137 C1142 0.949 . S
H1138 C1144 0.950 . S
H1139 C1145 0.950 . S
H1140 C1146 0.949 . S
C1141 H1136 0.950 . S
C1141 C1143 1.327 . S
C1141 C1147 1.429 . S
C1142 C1134 1.574 . S
C1142 H1137 0.949 . S
C1142 C1148 1.368 . S
C1143 C1127 1.349 . S
C1143 H1135 0.950 . S
C1143 C1141 1.327 . S
C1144 C1132 1.349 . S
C1144 H1138 0.950 . S
C1144 C1145 1.327 . S
C1145 H1139 0.950 . S
C1145 C1144 1.327 . S
C1145 C1149 1.429 . S
C1146 C1129 1.574 . S
C1146 H1140 0.949 . S
C1146 C1150 1.368 . S
C1147 C1128 1.429 . S
C1147 C1141 1.429 . S
C1147 C1148 1.523 . S
C1148 C1129 1.368 . S
C1148 C1142 1.368 . S
C1148 C1147 1.523 . S
C1149 C1133 1.429 . S
C1149 C1145 1.429 . S
C1149 C1150 1.523 . S
C1150 C1134 1.368 . S
C1150 C1146 1.368 . S
C1150 C1149 1.523 . S
H1151 C1126 0.950 . S
H1152 C1128 0.950 . S
H1153 C1129 0.949 . S
H1154 C1131 0.950 . S
H1155 C1133 0.950 . S
C1156 C1157 1.349 . S
C1156 C1158 1.327 . S
C1156 H1181 0.950 . S
C1157 C1156 1.349 . S
C1157 C1173 1.349 . S
C1158 C1156 1.327 . S
C1158 C1177 1.429 . S
C1158 H1182 0.950 . S
C1159 C1176 1.574 . S
C1159 C1178 1.368 . S
C1159 H1183 0.949 . S
H1160 C1164 0.949 . S
C1161 C1162 1.349 . S
C1161 C1163 1.327 . S
C1161 H1184 0.950 . S
C1162 C1161 1.349 . S
C1162 C1174 1.349 . S
C1163 C1161 1.327 . S
C1163 C1179 1.429 . S
C1163 H1185 0.950 . S
C1164 H1160 0.949 . S
C1164 C1172 1.574 . S
C1164 C1180 1.368 . S
H1165 C1173 0.950 . S
H1166 C1171 0.950 . S
H1167 C1172 0.949 . S
H1168 C1174 0.950 . S
H1169 C1175 0.950 . S
H1170 C1176 0.949 . S
C1171 H1166 0.950 . S
C1171 C1173 1.327 . S
C1171 C1177 1.429 . S
C1172 C1164 1.574 . S
C1172 H1167 0.949 . S
C1172 C1178 1.368 . S
C1173 C1157 1.349 . S
C1173 H1165 0.950 . S
C1173 C1171 1.327 . S
C1174 C1162 1.349 . S
C1174 H1168 0.950 . S
C1174 C1175 1.327 . S
C1175 H1169 0.950 . S
C1175 C1174 1.327 . S
C1175 C1179 1.429 . S
C1176 C1159 1.574 . S
C1176 H1170 0.949 . S
C1176 C1180 1.368 . S
C1177 C1158 1.429 . S
C1177 C1171 1.429 . S
C1177 C1178 1.523 . S
C1178 C1159 1.368 . S
C1178 C1172 1.368 . S
C1178 C1177 1.523 . S
C1179 C1163 1.429 . S
C1179 C1175 1.429 . S
C1179 C1180 1.523 . S
C1180 C1164 1.368 . S
C1180 C1176 1.368 . S
C1180 C1179 1.523 . S
H1181 C1156 0.950 . S
H1182 C1158 0.950 . S
H1183 C1159 0.949 . S
H1184 C1161 0.950 . S
H1185 C1163 0.950 . S
C1186 C1187 1.349 . S
C1186 C1188 1.327 . S
C1186 H1211 0.950 . S
C1187 C1186 1.349 . S
C1187 C1203 1.349 . S
C1188 C1186 1.327 . S
C1188 C1207 1.429 . S
C1188 H1212 0.950 . S
C1189 C1206 1.574 . S
C1189 C1208 1.368 . S
C1189 H1213 0.949 . S
H1190 C1194 0.949 . S
C1191 C1192 1.349 . S
C1191 C1193 1.327 . S
C1191 H1214 0.950 . S
C1192 C1191 1.349 . S
C1192 C1204 1.349 . S
C1193 C1191 1.327 . S
C1193 C1209 1.429 . S
C1193 H1215 0.950 . S
C1194 H1190 0.949 . S
C1194 C1202 1.574 . S
C1194 C1210 1.368 . S
H1195 C1203 0.950 . S
H1196 C1201 0.950 . S
H1197 C1202 0.949 . S
H1198 C1204 0.950 . S
H1199 C1205 0.950 . S
H1200 C1206 0.949 . S
C1201 H1196 0.950 . S
C1201 C1203 1.327 . S
C1201 C1207 1.429 . S
C1202 C1194 1.574 . S
C1202 H1197 0.949 . S
C1202 C1208 1.368 . S
C1203 C1187 1.349 . S
C1203 H1195 0.950 . S
C1203 C1201 1.327 . S
C1204 C1192 1.349 . S
C1204 H1198 0.950 . S
C1204 C1205 1.327 . S
C1205 H1199 0.950 . S
C1205 C1204 1.327 . S
C1205 C1209 1.429 . S
C1206 C1189 1.574 . S
C1206 H1200 0.949 . S
C1206 C1210 1.368 . S
C1207 C1188 1.429 . S
C1207 C1201 1.429 . S
C1207 C1208 1.523 . S
C1208 C1189 1.368 . S
C1208 C1202 1.368 . S
C1208 C1207 1.523 . S
C1209 C1193 1.429 . S
C1209 C1205 1.429 . S
C1209 C1210 1.523 . S
C1210 C1194 1.368 . S
C1210 C1206 1.368 . S
C1210 C1209 1.523 . S
H1211 C1186 0.950 . S
H1212 C1188 0.950 . S
H1213 C1189 0.949 . S
H1214 C1191 0.950 . S
H1215 C1193 0.950 . S
C1216 C1217 1.349 . S
C1216 C1218 1.327 . S
C1216 H1241 0.950 . S
C1217 C1216 1.349 . S
C1217 C1233 1.349 . S
C1218 C1216 1.327 . S
C1218 C1237 1.429 . S
C1218 H1242 0.950 . S
C1219 C1236 1.574 . S
C1219 C1238 1.368 . S
C1219 H1243 0.949 . S
H1220 C1224 0.949 . S
C1221 C1222 1.349 . S
C1221 C1223 1.327 . S
C1221 H1244 0.950 . S
C1222 C1221 1.349 . S
C1222 C1234 1.349 . S
C1223 C1221 1.327 . S
C1223 C1239 1.429 . S
C1223 H1245 0.950 1_455 S
C1224 H1220 0.949 . S
C1224 C1232 1.574 . S
C1224 C1240 1.384 . S
H1225 C1233 0.950 . S
H1226 C1231 0.950 . S
H1227 C1232 0.949 . S
H1228 C1234 0.950 . S
H1229 C1235 0.950 . S
H1230 C1236 0.949 . S
C1231 H1226 0.950 . S
C1231 C1233 1.327 . S
C1231 C1237 1.429 . S
C1232 C1224 1.574 . S
C1232 H1227 0.949 . S
C1232 C1238 1.368 1_455 S
C1233 C1217 1.349 . S
C1233 H1225 0.950 . S
C1233 C1231 1.327 . S
C1234 C1222 1.349 . S
C1234 H1228 0.950 . S
C1234 C1235 1.327 . S
C1235 H1229 0.950 . S
C1235 C1234 1.327 . S
C1235 C1239 1.429 . S
C1236 C1219 1.574 . S
C1236 H1230 0.949 . S
C1236 C1240 1.329 1_655 S
C1237 C1218 1.429 . S
C1237 C1231 1.429 . S
C1237 C1238 1.523 . S
C1238 C1219 1.368 . S
C1238 C1232 1.368 1_655 S
C1238 C1237 1.523 . S
C1239 C1223 1.429 . S
C1239 C1235 1.429 . S
C1239 C1240 1.557 . S
C1240 C1224 1.384 . S
C1240 C1236 1.329 1_455 S
C1240 C1239 1.557 . S
H1241 C1216 0.950 . S
H1242 C1218 0.950 . S
H1243 C1219 0.949 . S
H1244 C1221 0.950 . S
H1245 C1223 0.950 1_655 S
C1246 C1247 1.349 . S
C1246 C1248 1.327 . S
C1246 H1271 0.950 . S
C1247 C1246 1.349 . S
C1247 C1263 1.349 . S
C1248 C1246 1.327 . S
C1248 C1267 1.429 . S
C1248 H1272 0.950 . S
C1249 C1266 1.574 . S
C1249 C1268 1.368 . S
C1249 H1273 0.949 . S
H1250 C1254 0.949 . S
C1251 C1252 1.349 . S
C1251 C1253 1.327 . S
C1251 H1274 0.950 . S
C1252 C1251 1.349 . S
C1252 C1264 1.349 . S
C1253 C1251 1.327 . S
C1253 C1269 1.429 . S
C1253 H1275 0.950 . S
C1254 H1250 0.949 . S
C1254 C1262 1.574 . S
C1254 C1270 1.368 . S
H1255 C1263 0.950 . S
H1256 C1261 0.950 . S
H1257 C1262 0.949 . S
H1258 C1264 0.950 . S
H1259 C1265 0.950 . S
H1260 C1266 0.949 . S
C1261 H1256 0.950 . S
C1261 C1263 1.327 . S
C1261 C1267 1.429 . S
C1262 C1254 1.574 . S
C1262 H1257 0.949 . S
C1262 C1268 1.368 . S
C1263 C1247 1.349 . S
C1263 H1255 0.950 . S
C1263 C1261 1.327 . S
C1264 C1252 1.349 . S
C1264 H1258 0.950 . S
C1264 C1265 1.327 . S
C1265 H1259 0.950 . S
C1265 C1264 1.327 . S
C1265 C1269 1.429 . S
C1266 C1249 1.574 . S
C1266 H1260 0.949 . S
C1266 C1270 1.368 . S
C1267 C1248 1.429 . S
C1267 C1261 1.429 . S
C1267 C1268 1.523 . S
C1268 C1249 1.368 . S
C1268 C1262 1.368 . S
C1268 C1267 1.523 . S
C1269 C1253 1.429 . S
C1269 C1265 1.429 . S
C1269 C1270 1.523 . S
C1270 C1254 1.368 . S
C1270 C1266 1.368 . S
C1270 C1269 1.523 . S
H1271 C1246 0.950 . S
H1272 C1248 0.950 . S
H1273 C1249 0.949 . S
H1274 C1251 0.950 . S
H1275 C1253 0.950 . S
C1276 C1277 1.349 . S
C1276 C1278 1.327 . S
C1276 H1301 0.950 . S
C1277 C1276 1.349 . S
C1277 C1293 1.349 . S
C1278 C1276 1.327 . S
C1278 C1297 1.429 . S
C1278 H1302 0.950 . S
C1279 C1296 1.574 . S
C1279 C1298 1.368 . S
C1279 H1303 0.949 . S
H1280 C1284 0.949 . S
C1281 C1282 1.349 . S
C1281 C1283 1.327 . S
C1281 H1304 0.950 . S
C1282 C1281 1.349 . S
C1282 C1294 1.349 . S
C1283 C1281 1.327 . S
C1283 C1299 1.429 . S
C1283 H1305 0.950 . S
C1284 H1280 0.949 . S
C1284 C1292 1.574 . S
C1284 C1300 1.368 . S
H1285 C1293 0.950 . S
H1286 C1291 0.950 . S
H1287 C1292 0.949 . S
H1288 C1294 0.950 . S
H1289 C1295 0.950 . S
H1290 C1296 0.949 . S
C1291 H1286 0.950 . S
C1291 C1293 1.327 . S
C1291 C1297 1.429 . S
C1292 C1284 1.574 . S
C1292 H1287 0.949 . S
C1292 C1298 1.368 . S
C1293 C1277 1.349 . S
C1293 H1285 0.950 . S
C1293 C1291 1.327 . S
C1294 C1282 1.349 . S
C1294 H1288 0.950 . S
C1294 C1295 1.327 . S
C1295 H1289 0.950 . S
C1295 C1294 1.327 . S
C1295 C1299 1.429 . S
C1296 C1279 1.574 . S
C1296 H1290 0.949 . S
C1296 C1300 1.368 . S
C1297 C1278 1.429 . S
C1297 C1291 1.429 . S
C1297 C1298 1.523 . S
C1298 C1279 1.368 . S
C1298 C1292 1.368 . S
C1298 C1297 1.523 . S
C1299 C1283 1.429 . S
C1299 C1295 1.429 . S
C1299 C1300 1.523 . S
C1300 C1284 1.368 . S
C1300 C1296 1.368 . S
C1300 C1299 1.523 . S
H1301 C1276 0.950 . S
H1302 C1278 0.950 . S
H1303 C1279 0.949 . S
H1304 C1281 0.950 . S
H1305 C1283 0.950 . S
C1306 C1307 1.349 . S
C1306 C1308 1.327 . S
C1306 H1331 0.950 . S
C1307 C1306 1.349 . S
C1307 C1323 1.349 . S
C1308 C1306 1.327 . S
C1308 C1327 1.429 . S
C1308 H1332 0.950 . S
C1309 C1326 1.574 . S
C1309 C1328 1.368 . S
C1309 H1333 0.949 . S
H1310 C1314 0.949 . S
C1311 C1312 1.349 . S
C1311 C1313 1.327 . S
C1311 H1334 0.950 . S
C1312 C1311 1.349 . S
C1312 C1324 1.349 . S
C1313 C1311 1.327 . S
C1313 C1329 1.429 . S
C1313 H1335 0.950 . S
C1314 H1310 0.949 . S
C1314 C1322 1.574 . S
C1314 C1330 1.368 . S
H1315 C1323 0.950 . S
H1316 C1321 0.950 . S
H1317 C1322 0.949 . S
H1318 C1324 0.950 . S
H1319 C1325 0.950 . S
H1320 C1326 0.949 . S
C1321 H1316 0.950 . S
C1321 C1323 1.327 . S
C1321 C1327 1.429 . S
C1322 C1314 1.574 . S
C1322 H1317 0.949 . S
C1322 C1328 1.368 . S
C1323 C1307 1.349 . S
C1323 H1315 0.950 . S
C1323 C1321 1.327 . S
C1324 C1312 1.349 . S
C1324 H1318 0.950 . S
C1324 C1325 1.327 . S
C1325 H1319 0.950 . S
C1325 C1324 1.327 . S
C1325 C1329 1.429 . S
C1326 C1309 1.574 . S
C1326 H1320 0.949 . S
C1326 C1330 1.368 . S
C1327 C1308 1.429 . S
C1327 C1321 1.429 . S
C1327 C1328 1.523 . S
C1328 C1309 1.368 . S
C1328 C1322 1.368 . S
C1328 C1327 1.523 . S
C1329 C1313 1.429 . S
C1329 C1325 1.429 . S
C1329 C1330 1.523 . S
C1330 C1314 1.368 . S
C1330 C1326 1.368 . S
C1330 C1329 1.523 . S
H1331 C1306 0.950 . S
H1332 C1308 0.950 . S
H1333 C1309 0.949 . S
H1334 C1311 0.950 . S
H1335 C1313 0.950 . S
C1336 C1337 1.349 . S
C1336 C1338 1.327 . S
C1336 H1361 0.950 . S
C1337 C1336 1.349 . S
C1337 C1353 1.349 . S
C1338 C1336 1.327 . S
C1338 C1357 1.429 . S
C1338 H1362 0.950 . S
C1339 C1356 1.574 . S
C1339 C1358 1.368 . S
C1339 H1363 0.949 . S
H1340 C1344 0.949 . S
C1341 C1342 1.349 . S
C1341 C1343 1.327 . S
C1341 H1364 0.950 . S
C1342 C1341 1.349 . S
C1342 C1354 1.349 . S
C1343 C1341 1.327 . S
C1343 C1359 1.429 . S
C1343 H1365 0.903 1_455 S
C1344 H1340 0.949 . S
C1344 C1352 1.574 1_455 S
C1344 C1360 1.376 . S
H1345 C1353 0.950 . S
H1346 C1351 0.950 . S
H1347 C1352 0.949 . S
H1348 C1354 0.950 . S
H1349 C1355 0.950 . S
H1350 C1356 0.949 . S
C1351 H1346 0.950 . S
C1351 C1353 1.327 . S
C1351 C1357 1.429 . S
C1352 C1344 1.574 1_655 S
C1352 H1347 0.949 . S
C1352 C1358 1.368 . S
C1353 C1337 1.349 . S
C1353 H1345 0.950 . S
C1353 C1351 1.327 . S
C1354 C1342 1.349 . S
C1354 H1348 0.950 . S
C1354 C1355 1.327 . S
C1355 H1349 0.950 . S
C1355 C1354 1.327 . S
C1355 C1359 1.429 . S
C1356 C1339 1.574 . S
C1356 H1350 0.949 . S
C1356 C1360 1.356 1_655 S
C1357 C1338 1.429 . S
C1357 C1351 1.429 . S
C1357 C1358 1.523 . S
C1358 C1339 1.368 . S
C1358 C1352 1.368 . S
C1358 C1357 1.523 . S
C1359 C1343 1.429 . S
C1359 C1355 1.429 . S
C1359 C1360 1.529 . S
C1360 C1344 1.376 . S
C1360 C1356 1.356 1_455 S
C1360 C1359 1.529 . S
H1361 C1336 0.950 . S
H1362 C1338 0.950 . S
H1363 C1339 0.949 . S
H1364 C1341 0.950 . S
H1365 C1343 0.903 1_655 S
C1366 C1367 1.349 . S
C1366 C1368 1.327 . S
C1366 H1391 0.950 . S
C1367 C1366 1.349 . S
C1367 C1383 1.349 . S
C1368 C1366 1.327 . S
C1368 C1387 1.429 . S
C1368 H1392 0.950 . S
C1369 C1386 1.574 . S
C1369 C1388 1.368 . S
C1369 H1393 0.949 . S
H1370 C1374 0.949 . S
C1371 C1372 1.349 . S
C1371 C1373 1.327 . S
C1371 H1394 0.950 . S
C1372 C1371 1.349 . S
C1372 C1384 1.349 . S
C1373 C1371 1.327 . S
C1373 C1389 1.429 . S
C1373 H1395 0.950 . S
C1374 H1370 0.949 . S
C1374 C1382 1.574 . S
C1374 C1390 1.368 . S
H1375 C1383 0.950 . S
H1376 C1381 0.950 . S
H1377 C1382 0.949 . S
H1378 C1384 0.950 . S
H1379 C1385 0.950 . S
H1380 C1386 0.949 . S
C1381 H1376 0.950 . S
C1381 C1383 1.327 . S
C1381 C1387 1.429 . S
C1382 C1374 1.574 . S
C1382 H1377 0.949 . S
C1382 C1388 1.368 . S
C1383 C1367 1.349 . S
C1383 H1375 0.950 . S
C1383 C1381 1.327 . S
C1384 C1372 1.349 . S
C1384 H1378 0.950 . S
C1384 C1385 1.327 . S
C1385 H1379 0.950 . S
C1385 C1384 1.327 . S
C1385 C1389 1.429 . S
C1386 C1369 1.574 . S
C1386 H1380 0.949 . S
C1386 C1390 1.368 . S
C1387 C1368 1.429 . S
C1387 C1381 1.429 . S
C1387 C1388 1.523 . S
C1388 C1369 1.368 . S
C1388 C1382 1.368 . S
C1388 C1387 1.523 . S
C1389 C1373 1.429 . S
C1389 C1385 1.429 . S
C1389 C1390 1.523 . S
C1390 C1374 1.368 . S
C1390 C1386 1.368 . S
C1390 C1389 1.523 . S
H1391 C1366 0.950 . S
H1392 C1368 0.950 . S
H1393 C1369 0.949 . S
H1394 C1371 0.950 . S
H1395 C1373 0.950 . S
C1396 C1397 1.349 . S
C1396 C1398 1.327 . S
C1396 H1421 0.950 . S
C1397 C1396 1.349 . S
C1397 C1413 1.349 . S
C1398 C1396 1.327 . S
C1398 C1417 1.429 . S
C1398 H1422 0.950 . S
C1399 C1416 1.574 . S
C1399 C1418 1.368 . S
C1399 H1423 0.949 . S
H1400 C1404 0.949 . S
C1401 C1402 1.349 . S
C1401 C1403 1.327 . S
C1401 H1424 0.950 . S
C1402 C1401 1.349 . S
C1402 C1414 1.349 . S
C1403 C1401 1.327 . S
C1403 C1419 1.429 . S
C1403 H1425 0.950 . S
C1404 H1400 0.949 . S
C1404 C1412 1.574 . S
C1404 C1420 1.368 . S
H1405 C1413 0.950 . S
H1406 C1411 0.950 . S
H1407 C1412 0.949 . S
H1408 C1414 0.950 . S
H1409 C1415 0.950 . S
H1410 C1416 0.949 . S
C1411 H1406 0.950 . S
C1411 C1413 1.327 . S
C1411 C1417 1.429 . S
C1412 C1404 1.574 . S
C1412 H1407 0.949 . S
C1412 C1418 1.368 . S
C1413 C1397 1.349 . S
C1413 H1405 0.950 . S
C1413 C1411 1.327 . S
C1414 C1402 1.349 . S
C1414 H1408 0.950 . S
C1414 C1415 1.327 . S
C1415 H1409 0.950 . S
C1415 C1414 1.327 . S
C1415 C1419 1.429 . S
C1416 C1399 1.574 . S
C1416 H1410 0.949 . S
C1416 C1420 1.368 . S
C1417 C1398 1.429 . S
C1417 C1411 1.429 . S
C1417 C1418 1.523 . S
C1418 C1399 1.368 . S
C1418 C1412 1.368 . S
C1418 C1417 1.523 . S
C1419 C1403 1.429 . S
C1419 C1415 1.429 . S
C1419 C1420 1.523 . S
C1420 C1404 1.368 . S
C1420 C1416 1.368 . S
C1420 C1419 1.523 . S
H1421 C1396 0.950 . S
H1422 C1398 0.950 . S
H1423 C1399 0.949 . S
H1424 C1401 0.950 . S
H1425 C1403 0.950 . S
C1426 C1427 1.349 . S
C1426 C1428 1.327 . S
C1426 H1451 0.950 . S
C1427 C1426 1.349 . S
C1427 C1443 1.349 . S
C1428 C1426 1.327 . S
C1428 C1447 1.429 . S
C1428 H1452 0.950 . S
C1429 C1446 1.574 . S
C1429 C1448 1.368 . S
C1429 H1453 0.949 . S
H1430 C1434 0.949 . S
C1431 C1432 1.349 . S
C1431 C1433 1.327 . S
C1431 H1454 0.950 . S
C1432 C1431 1.349 . S
C1432 C1444 1.349 . S
C1433 C1431 1.327 . S
C1433 C1449 1.429 . S
C1433 H1455 0.950 . S
C1434 H1430 0.949 . S
C1434 C1442 1.574 . S
C1434 C1450 1.368 . S
H1435 C1443 0.950 . S
H1436 C1441 0.950 . S
H1437 C1442 0.949 . S
H1438 C1444 0.950 . S
H1439 C1445 0.950 . S
H1440 C1446 0.949 . S
C1441 H1436 0.950 . S
C1441 C1443 1.327 . S
C1441 C1447 1.429 . S
C1442 C1434 1.574 . S
C1442 H1437 0.949 . S
C1442 C1448 1.368 . S
C1443 C1427 1.349 . S
C1443 H1435 0.950 . S
C1443 C1441 1.327 . S
C1444 C1432 1.349 . S
C1444 H1438 0.950 . S
C1444 C1445 1.327 . S
C1445 H1439 0.950 . S
C1445 C1444 1.327 . S
C1445 C1449 1.429 . S
C1446 C1429 1.574 . S
C1446 H1440 0.949 . S
C1446 C1450 1.368 . S
C1447 C1428 1.429 . S
C1447 C1441 1.429 . S
C1447 C1448 1.523 . S
C1448 C1429 1.368 . S
C1448 C1442 1.368 . S
C1448 C1447 1.523 . S
C1449 C1433 1.429 . S
C1449 C1445 1.429 . S
C1449 C1450 1.523 . S
C1450 C1434 1.368 . S
C1450 C1446 1.368 . S
C1450 C1449 1.523 . S
H1451 C1426 0.950 . S
H1452 C1428 0.950 . S
H1453 C1429 0.949 . S
H1454 C1431 0.950 . S
H1455 C1433 0.950 . S
C1456 C1457 1.349 . S
C1456 C1458 1.327 . S
C1456 H1481 0.950 . S
C1457 C1456 1.349 . S
C1457 C1473 1.349 . S
C1458 C1456 1.327 . S
C1458 C1477 1.429 . S
C1458 H1482 0.950 . S
C1459 C1476 1.574 . S
C1459 C1478 1.368 . S
C1459 H1483 0.955 1_554 S
H1460 C1464 0.949 . S
C1461 C1462 1.333 1_565 S
C1461 C1463 1.327 . S
C1461 H1484 0.950 . S
C1462 C1461 1.333 1_545 S
C1462 C1474 1.333 . S
C1463 C1461 1.327 . S
C1463 C1479 1.429 . S
C1463 H1485 0.950 . S
C1464 H1460 0.949 . S
C1464 C1472 1.574 . S
C1464 C1480 1.368 . S
H1465 C1473 0.950 1_556 S
H1466 C1471 0.950 1_556 S
H1467 C1472 0.949 . S
H1468 C1474 0.950 . S
H1469 C1475 0.950 . S
H1470 C1476 0.949 . S
C1471 H1466 0.950 1_554 S
C1471 C1473 1.327 . S
C1471 C1477 1.429 . S
C1472 C1464 1.574 . S
C1472 H1467 0.949 . S
C1472 C1478 1.368 . S
C1473 C1457 1.349 . S
C1473 H1465 0.950 1_554 S
C1473 C1471 1.327 . S
C1474 C1462 1.333 . S
C1474 H1468 0.950 . S
C1474 C1475 1.327 1_545 S
C1475 H1469 0.950 . S
C1475 C1474 1.327 1_565 S
C1475 C1479 1.429 . S
C1476 C1459 1.574 . S
C1476 H1470 0.949 . S
C1476 C1480 1.368 . S
C1477 C1458 1.429 . S
C1477 C1471 1.429 . S
C1477 C1478 1.523 . S
C1478 C1459 1.368 . S
C1478 C1472 1.368 . S
C1478 C1477 1.523 . S
C1479 C1463 1.429 . S
C1479 C1475 1.429 . S
C1479 C1480 1.523 . S
C1480 C1464 1.368 . S
C1480 C1476 1.368 . S
C1480 C1479 1.523 . S
H1481 C1456 0.950 . S
H1482 C1458 0.950 . S
H1483 C1459 0.955 1_556 S
H1484 C1461 0.950 . S
H1485 C1463 0.950 . S
C1486 C1487 1.326 1_554 S
C1486 C1488 1.327 . S
C1486 H1511 0.950 . S
C1487 C1486 1.326 1_556 S
C1487 C1503 1.364 . S
C1488 C1486 1.327 . S
C1488 C1507 1.431 1_554 S
C1488 H1512 0.950 . S
C1489 C1506 1.574 . S
C1489 C1508 1.362 1_556 S
C1489 H1513 0.949 . S
H1490 C1494 0.949 . S
C1491 C1492 1.349 1_556 S
C1491 C1493 1.327 . S
C1491 H1514 0.950 . S
C1492 C1491 1.349 1_554 S
C1492 C1504 1.349 . S
C1493 C1491 1.327 . S
C1493 C1509 1.429 1_556 S
C1493 H1515 0.950 . S
C1494 H1490 0.949 . S
C1494 C1502 1.574 . S
C1494 C1510 1.394 . S
H1495 C1503 0.950 . S
H1496 C1501 0.950 . S
H1497 C1502 0.949 . S
H1498 C1504 0.950 . S
H1499 C1505 0.950 . S
H1500 C1506 0.949 . S
C1501 H1496 0.950 . S
C1501 C1503 1.327 . S
C1501 C1507 1.425 . S
C1502 C1494 1.574 . S
C1502 H1497 0.949 . S
C1502 C1508 1.377 . S
C1503 C1487 1.364 . S
C1503 H1495 0.950 . S
C1503 C1501 1.327 . S
C1504 C1492 1.349 . S
C1504 H1498 0.950 . S
C1504 C1505 1.327 . S
C1505 H1499 0.950 . S
C1505 C1504 1.327 . S
C1505 C1509 1.429 . S
C1506 C1489 1.574 . S
C1506 H1500 0.949 . S
C1506 C1510 1.335 1_556 S
C1507 C1488 1.431 1_556 S
C1507 C1501 1.425 . S
C1507 C1508 1.521 1_556 S
C1508 C1489 1.362 1_554 S
C1508 C1502 1.377 . S
C1508 C1507 1.521 1_554 S
C1509 C1493 1.429 1_554 S
C1509 C1505 1.429 . S
C1509 C1510 1.536 . S
C1510 C1494 1.394 . S
C1510 C1506 1.335 1_554 S
C1510 C1509 1.536 . S
H1511 C1486 0.950 . S
H1512 C1488 0.950 . S
H1513 C1489 0.949 . S
H1514 C1491 0.950 . S
H1515 C1493 0.950 . S
C1516 C1517 1.349 . S
C1516 C1518 1.327 . S
C1516 H1541 0.950 . S
C1517 C1516 1.349 . S
C1517 C1533 1.349 . S
C1518 C1516 1.327 . S
C1518 C1537 1.429 . S
C1518 H1542 0.950 . S
C1519 C1536 1.574 . S
C1519 C1538 1.368 . S
C1519 H1543 0.949 . S
H1520 C1524 0.949 . S
C1521 C1522 1.349 . S
C1521 C1523 1.327 . S
C1521 H1544 0.950 . S
C1522 C1521 1.349 . S
C1522 C1534 1.349 . S
C1523 C1521 1.327 . S
C1523 C1539 1.429 . S
C1523 H1545 0.950 . S
C1524 H1520 0.949 . S
C1524 C1532 1.574 . S
C1524 C1540 1.368 . S
H1525 C1533 0.950 . S
H1526 C1531 0.950 . S
H1527 C1532 0.949 . S
H1528 C1534 0.950 . S
H1529 C1535 0.950 . S
H1530 C1536 0.949 . S
C1531 H1526 0.950 . S
C1531 C1533 1.327 . S
C1531 C1537 1.429 . S
C1532 C1524 1.574 . S
C1532 H1527 0.949 . S
C1532 C1538 1.368 . S
C1533 C1517 1.349 . S
C1533 H1525 0.950 . S
C1533 C1531 1.327 . S
C1534 C1522 1.349 . S
C1534 H1528 0.950 . S
C1534 C1535 1.327 . S
C1535 H1529 0.950 . S
C1535 C1534 1.327 . S
C1535 C1539 1.429 . S
C1536 C1519 1.574 . S
C1536 H1530 0.949 . S
C1536 C1540 1.368 . S
C1537 C1518 1.429 . S
C1537 C1531 1.429 . S
C1537 C1538 1.523 . S
C1538 C1519 1.368 . S
C1538 C1532 1.368 . S
C1538 C1537 1.523 . S
C1539 C1523 1.429 . S
C1539 C1535 1.429 . S
C1539 C1540 1.523 . S
C1540 C1524 1.368 . S
C1540 C1536 1.368 . S
C1540 C1539 1.523 . S
H1541 C1516 0.950 . S
H1542 C1518 0.950 . S
H1543 C1519 0.949 . S
H1544 C1521 0.950 . S
H1545 C1523 0.950 . S
C1546 C1547 1.349 . S
C1546 C1548 1.327 . S
C1546 H1571 0.950 . S
C1547 C1546 1.349 . S
C1547 C1563 1.349 . S
C1548 C1546 1.327 . S
C1548 C1567 1.429 . S
C1548 H1572 0.950 . S
C1549 C1566 1.574 . S
C1549 C1568 1.368 . S
C1549 H1573 0.949 . S
H1550 C1554 0.949 . S
C1551 C1552 1.349 . S
C1551 C1553 1.327 . S
C1551 H1574 0.950 . S
C1552 C1551 1.349 . S
C1552 C1564 1.349 . S
C1553 C1551 1.327 . S
C1553 C1569 1.429 . S
C1553 H1575 0.950 . S
C1554 H1550 0.949 . S
C1554 C1562 1.574 . S
C1554 C1570 1.368 . S
H1555 C1563 0.950 . S
H1556 C1561 0.950 . S
H1557 C1562 0.949 . S
H1558 C1564 0.950 . S
H1559 C1565 0.950 . S
H1560 C1566 0.949 . S
C1561 H1556 0.950 . S
C1561 C1563 1.327 . S
C1561 C1567 1.429 . S
C1562 C1554 1.574 . S
C1562 H1557 0.949 . S
C1562 C1568 1.368 . S
C1563 C1547 1.349 . S
C1563 H1555 0.950 . S
C1563 C1561 1.327 . S
C1564 C1552 1.349 . S
C1564 H1558 0.950 . S
C1564 C1565 1.327 . S
C1565 H1559 0.950 . S
C1565 C1564 1.327 . S
C1565 C1569 1.429 . S
C1566 C1549 1.574 . S
C1566 H1560 0.949 . S
C1566 C1570 1.368 . S
C1567 C1548 1.429 . S
C1567 C1561 1.429 . S
C1567 C1568 1.523 . S
C1568 C1549 1.368 . S
C1568 C1562 1.368 . S
C1568 C1567 1.523 . S
C1569 C1553 1.429 . S
C1569 C1565 1.429 . S
C1569 C1570 1.523 . S
C1570 C1554 1.368 . S
C1570 C1566 1.368 . S
C1570 C1569 1.523 . S
H1571 C1546 0.950 . S
H1572 C1548 0.950 . S
H1573 C1549 0.949 . S
H1574 C1551 0.950 . S
H1575 C1553 0.950 . S
C1576 C1577 1.349 . S
C1576 C1578 1.327 . S
C1576 H1601 0.950 . S
C1577 C1576 1.349 . S
C1577 C1593 1.349 . S
C1578 C1576 1.327 . S
C1578 C1597 1.429 . S
C1578 H1602 0.950 . S
C1579 C1596 1.574 . S
C1579 C1598 1.368 . S
C1579 H1603 0.949 . S
H1580 C1584 0.949 . S
C1581 C1582 1.349 . S
C1581 C1583 1.327 . S
C1581 H1604 0.950 . S
C1582 C1581 1.349 . S
C1582 C1594 1.349 . S
C1583 C1581 1.327 . S
C1583 C1599 1.429 . S
C1583 H1605 0.950 . S
C1584 H1580 0.949 . S
C1584 C1592 1.574 . S
C1584 C1600 1.368 . S
H1585 C1593 0.950 . S
H1586 C1591 0.950 . S
H1587 C1592 0.949 . S
H1588 C1594 0.950 . S
H1589 C1595 0.950 . S
H1590 C1596 0.949 . S
C1591 H1586 0.950 . S
C1591 C1593 1.327 . S
C1591 C1597 1.429 . S
C1592 C1584 1.574 . S
C1592 H1587 0.949 . S
C1592 C1598 1.368 . S
C1593 C1577 1.349 . S
C1593 H1585 0.950 . S
C1593 C1591 1.327 . S
C1594 C1582 1.349 . S
C1594 H1588 0.950 . S
C1594 C1595 1.327 . S
C1595 H1589 0.950 . S
C1595 C1594 1.327 . S
C1595 C1599 1.429 . S
C1596 C1579 1.574 . S
C1596 H1590 0.949 . S
C1596 C1600 1.368 . S
C1597 C1578 1.429 . S
C1597 C1591 1.429 . S
C1597 C1598 1.523 . S
C1598 C1579 1.368 . S
C1598 C1592 1.368 . S
C1598 C1597 1.523 . S
C1599 C1583 1.429 . S
C1599 C1595 1.429 . S
C1599 C1600 1.523 . S
C1600 C1584 1.368 . S
C1600 C1596 1.368 . S
C1600 C1599 1.523 . S
H1601 C1576 0.950 . S
H1602 C1578 0.950 . S
H1603 C1579 0.949 . S
H1604 C1581 0.950 . S
H1605 C1583 0.950 . S
C1606 C1607 1.349 . S
C1606 C1608 1.327 . S
C1606 H1631 0.950 . S
C1607 C1606 1.349 . S
C1607 C1623 1.349 . S
C1608 C1606 1.327 . S
C1608 C1627 1.429 . S
C1608 H1632 0.950 . S
C1609 C1626 1.574 . S
C1609 C1628 1.368 . S
C1609 H1633 0.949 . S
H1610 C1614 0.949 . S
C1611 C1612 1.349 . S
C1611 C1613 1.327 . S
C1611 H1634 0.950 . S
C1612 C1611 1.349 . S
C1612 C1624 1.349 . S
C1613 C1611 1.327 . S
C1613 C1629 1.429 . S
C1613 H1635 0.950 . S
C1614 H1610 0.949 . S
C1614 C1622 1.574 . S
C1614 C1630 1.368 . S
H1615 C1623 0.950 . S
H1616 C1621 0.950 . S
H1617 C1622 0.949 . S
H1618 C1624 0.950 . S
H1619 C1625 0.950 . S
H1620 C1626 0.949 . S
C1621 H1616 0.950 . S
C1621 C1623 1.327 . S
C1621 C1627 1.429 . S
C1622 C1614 1.574 . S
C1622 H1617 0.949 . S
C1622 C1628 1.368 . S
C1623 C1607 1.349 . S
C1623 H1615 0.950 . S
C1623 C1621 1.327 . S
C1624 C1612 1.349 . S
C1624 H1618 0.950 . S
C1624 C1625 1.327 . S
C1625 H1619 0.950 . S
C1625 C1624 1.327 . S
C1625 C1629 1.429 . S
C1626 C1609 1.574 . S
C1626 H1620 0.949 . S
C1626 C1630 1.368 . S
C1627 C1608 1.429 . S
C1627 C1621 1.429 . S
C1627 C1628 1.523 . S
C1628 C1609 1.368 . S
C1628 C1622 1.368 . S
C1628 C1627 1.523 . S
C1629 C1613 1.429 . S
C1629 C1625 1.429 . S
C1629 C1630 1.523 . S
C1630 C1614 1.368 . S
C1630 C1626 1.368 . S
C1630 C1629 1.523 . S
H1631 C1606 0.950 . S
H1632 C1608 0.950 . S
H1633 C1609 0.949 . S
H1634 C1611 0.950 . S
H1635 C1613 0.950 . S
C1636 C1637 1.349 . S
C1636 C1638 1.327 . S
C1636 H1661 0.950 . S
C1637 C1636 1.349 . S
C1637 C1653 1.349 . S
C1638 C1636 1.327 . S
C1638 C1657 1.429 . S
C1638 H1662 0.950 . S
C1639 C1656 1.574 . S
C1639 C1658 1.368 . S
C1639 H1663 0.949 . S
H1640 C1644 0.949 . S
C1641 C1642 1.349 . S
C1641 C1643 1.327 . S
C1641 H1664 0.950 . S
C1642 C1641 1.349 . S
C1642 C1654 1.349 . S
C1643 C1641 1.327 . S
C1643 C1659 1.429 . S
C1643 H1665 0.950 . S
C1644 H1640 0.949 . S
C1644 C1652 1.574 . S
C1644 C1660 1.368 . S
H1645 C1653 0.950 . S
H1646 C1651 0.950 . S
H1647 C1652 0.949 . S
H1648 C1654 0.950 . S
H1649 C1655 0.950 . S
H1650 C1656 0.949 . S
C1651 H1646 0.950 . S
C1651 C1653 1.327 . S
C1651 C1657 1.429 . S
C1652 C1644 1.574 . S
C1652 H1647 0.949 . S
C1652 C1658 1.368 . S
C1653 C1637 1.349 . S
C1653 H1645 0.950 . S
C1653 C1651 1.327 . S
C1654 C1642 1.349 . S
C1654 H1648 0.950 . S
C1654 C1655 1.327 . S
C1655 H1649 0.950 . S
C1655 C1654 1.327 . S
C1655 C1659 1.429 . S
C1656 C1639 1.574 . S
C1656 H1650 0.949 . S
C1656 C1660 1.368 . S
C1657 C1638 1.429 . S
C1657 C1651 1.429 . S
C1657 C1658 1.523 . S
C1658 C1639 1.368 . S
C1658 C1652 1.368 . S
C1658 C1657 1.523 . S
C1659 C1643 1.429 . S
C1659 C1655 1.429 . S
C1659 C1660 1.523 . S
C1660 C1644 1.368 . S
C1660 C1656 1.368 . S
C1660 C1659 1.523 . S
H1661 C1636 0.950 . S
H1662 C1638 0.950 . S
H1663 C1639 0.949 . S
H1664 C1641 0.950 . S
H1665 C1643 0.950 . S
C1666 C1667 1.349 . S
C1666 C1668 1.327 . S
C1666 H1691 0.950 . S
C1667 C1666 1.349 . S
C1667 C1683 1.349 . S
C1668 C1666 1.327 . S
C1668 C1687 1.429 . S
C1668 H1692 0.950 . S
C1669 C1686 1.574 . S
C1669 C1688 1.368 . S
C1669 H1693 0.949 . S
H1670 C1674 0.949 . S
C1671 C1672 1.349 . S
C1671 C1673 1.327 . S
C1671 H1694 0.950 . S
C1672 C1671 1.349 . S
C1672 C1684 1.349 . S
C1673 C1671 1.327 . S
C1673 C1689 1.429 . S
C1673 H1695 0.950 . S
C1674 H1670 0.949 . S
C1674 C1682 1.574 . S
C1674 C1690 1.368 . S
H1675 C1683 0.950 . S
H1676 C1681 0.950 . S
H1677 C1682 0.949 . S
H1678 C1684 0.950 . S
H1679 C1685 0.950 . S
H1680 C1686 0.949 . S
C1681 H1676 0.950 . S
C1681 C1683 1.327 . S
C1681 C1687 1.429 . S
C1682 C1674 1.574 . S
C1682 H1677 0.949 . S
C1682 C1688 1.368 . S
C1683 C1667 1.349 . S
C1683 H1675 0.950 . S
C1683 C1681 1.327 . S
C1684 C1672 1.349 . S
C1684 H1678 0.950 . S
C1684 C1685 1.327 . S
C1685 H1679 0.950 . S
C1685 C1684 1.327 . S
C1685 C1689 1.429 . S
C1686 C1669 1.574 . S
C1686 H1680 0.949 . S
C1686 C1690 1.368 . S
C1687 C1668 1.429 . S
C1687 C1681 1.429 . S
C1687 C1688 1.523 . S
C1688 C1669 1.368 . S
C1688 C1682 1.368 . S
C1688 C1687 1.523 . S
C1689 C1673 1.429 . S
C1689 C1685 1.429 . S
C1689 C1690 1.523 . S
C1690 C1674 1.368 . S
C1690 C1686 1.368 . S
C1690 C1689 1.523 . S
H1691 C1666 0.950 . S
H1692 C1668 0.950 . S
H1693 C1669 0.949 . S
H1694 C1671 0.950 . S
H1695 C1673 0.950 . S
C1696 C1697 1.349 . S
C1696 C1698 1.327 . S
C1696 H1721 0.950 . S
C1697 C1696 1.349 . S
C1697 C1713 1.349 . S
C1698 C1696 1.327 . S
C1698 C1717 1.429 . S
C1698 H1722 0.950 . S
C1699 C1716 1.574 . S
C1699 C1718 1.368 . S
C1699 H1723 0.949 . S
H1700 C1704 0.949 . S
C1701 C1702 1.349 . S
C1701 C1703 1.327 . S
C1701 H1724 0.950 . S
C1702 C1701 1.349 . S
C1702 C1714 1.349 . S
C1703 C1701 1.327 . S
C1703 C1719 1.429 . S
C1703 H1725 0.950 . S
C1704 H1700 0.949 . S
C1704 C1712 1.574 . S
C1704 C1720 1.368 . S
H1705 C1713 0.950 . S
H1706 C1711 0.950 . S
H1707 C1712 0.949 . S
H1708 C1714 0.950 . S
H1709 C1715 0.950 . S
H1710 C1716 0.949 . S
C1711 H1706 0.950 . S
C1711 C1713 1.327 . S
C1711 C1717 1.429 . S
C1712 C1704 1.574 . S
C1712 H1707 0.949 . S
C1712 C1718 1.368 . S
C1713 C1697 1.349 . S
C1713 H1705 0.950 . S
C1713 C1711 1.327 . S
C1714 C1702 1.349 . S
C1714 H1708 0.950 . S
C1714 C1715 1.327 . S
C1715 H1709 0.950 . S
C1715 C1714 1.327 . S
C1715 C1719 1.429 . S
C1716 C1699 1.574 . S
C1716 H1710 0.949 . S
C1716 C1720 1.368 . S
C1717 C1698 1.429 . S
C1717 C1711 1.429 . S
C1717 C1718 1.523 . S
C1718 C1699 1.368 . S
C1718 C1712 1.368 . S
C1718 C1717 1.523 . S
C1719 C1703 1.429 . S
C1719 C1715 1.429 . S
C1719 C1720 1.523 . S
C1720 C1704 1.368 . S
C1720 C1716 1.368 . S
C1720 C1719 1.523 . S
H1721 C1696 0.950 . S
H1722 C1698 0.950 . S
H1723 C1699 0.949 . S
H1724 C1701 0.950 . S
H1725 C1703 0.950 . S
C1726 C1727 1.349 . S
C1726 C1728 1.327 . S
C1726 H1751 0.950 . S
C1727 C1726 1.349 . S
C1727 C1743 1.349 . S
C1728 C1726 1.327 . S
C1728 C1747 1.429 . S
C1728 H1752 0.950 . S
C1729 C1746 1.574 . S
C1729 C1748 1.368 . S
C1729 H1753 0.949 . S
H1730 C1734 0.949 . S
C1731 C1732 1.349 . S
C1731 C1733 1.327 . S
C1731 H1754 0.950 . S
C1732 C1731 1.349 . S
C1732 C1744 1.349 . S
C1733 C1731 1.327 . S
C1733 C1749 1.429 . S
C1733 H1755 0.950 . S
C1734 H1730 0.949 . S
C1734 C1742 1.574 . S
C1734 C1750 1.368 . S
H1735 C1743 0.950 . S
H1736 C1741 0.950 . S
H1737 C1742 0.949 . S
H1738 C1744 0.950 . S
H1739 C1745 0.950 . S
H1740 C1746 0.949 . S
C1741 H1736 0.950 . S
C1741 C1743 1.327 . S
C1741 C1747 1.429 . S
C1742 C1734 1.574 . S
C1742 H1737 0.949 . S
C1742 C1748 1.368 . S
C1743 C1727 1.349 . S
C1743 H1735 0.950 . S
C1743 C1741 1.327 . S
C1744 C1732 1.349 . S
C1744 H1738 0.950 . S
C1744 C1745 1.327 . S
C1745 H1739 0.950 . S
C1745 C1744 1.327 . S
C1745 C1749 1.429 . S
C1746 C1729 1.574 . S
C1746 H1740 0.949 . S
C1746 C1750 1.368 . S
C1747 C1728 1.429 . S
C1747 C1741 1.429 . S
C1747 C1748 1.523 . S
C1748 C1729 1.368 . S
C1748 C1742 1.368 . S
C1748 C1747 1.523 . S
C1749 C1733 1.429 . S
C1749 C1745 1.429 . S
C1749 C1750 1.523 . S
C1750 C1734 1.368 . S
C1750 C1746 1.368 . S
C1750 C1749 1.523 . S
H1751 C1726 0.950 . S
H1752 C1728 0.950 . S
H1753 C1729 0.949 . S
H1754 C1731 0.950 . S
H1755 C1733 0.950 . S
C1756 C1757 1.349 . S
C1756 C1758 1.327 . S
C1756 H1781 0.950 . S
C1757 C1756 1.349 . S
C1757 C1773 1.349 . S
C1758 C1756 1.327 . S
C1758 C1777 1.429 . S
C1758 H1782 0.950 . S
C1759 C1776 1.574 . S
C1759 C1778 1.368 . S
C1759 H1783 0.949 . S
H1760 C1764 0.949 . S
C1761 C1762 1.349 . S
C1761 C1763 1.327 . S
C1761 H1784 0.950 . S
C1762 C1761 1.349 . S
C1762 C1774 1.349 . S
C1763 C1761 1.327 . S
C1763 C1779 1.429 . S
C1763 H1785 0.950 . S
C1764 H1760 0.949 . S
C1764 C1772 1.574 . S
C1764 C1780 1.368 . S
H1765 C1773 0.950 . S
H1766 C1771 0.950 . S
H1767 C1772 0.949 . S
H1768 C1774 0.950 . S
H1769 C1775 0.950 . S
H1770 C1776 0.949 . S
C1771 H1766 0.950 . S
C1771 C1773 1.327 . S
C1771 C1777 1.429 . S
C1772 C1764 1.574 . S
C1772 H1767 0.949 . S
C1772 C1778 1.368 . S
C1773 C1757 1.349 . S
C1773 H1765 0.950 . S
C1773 C1771 1.327 . S
C1774 C1762 1.349 . S
C1774 H1768 0.950 . S
C1774 C1775 1.327 . S
C1775 H1769 0.950 . S
C1775 C1774 1.327 . S
C1775 C1779 1.429 . S
C1776 C1759 1.574 . S
C1776 H1770 0.949 . S
C1776 C1780 1.368 . S
C1777 C1758 1.429 . S
C1777 C1771 1.429 . S
C1777 C1778 1.523 . S
C1778 C1759 1.368 . S
C1778 C1772 1.368 . S
C1778 C1777 1.523 . S
C1779 C1763 1.429 . S
C1779 C1775 1.429 . S
C1779 C1780 1.523 . S
C1780 C1764 1.368 . S
C1780 C1776 1.368 . S
C1780 C1779 1.523 . S
H1781 C1756 0.950 . S
H1782 C1758 0.950 . S
H1783 C1759 0.949 . S
H1784 C1761 0.950 . S
H1785 C1763 0.950 . S
C1786 C1787 1.349 . S
C1786 C1788 1.327 . S
C1786 H1811 0.950 . S
C1787 C1786 1.349 . S
C1787 C1803 1.349 . S
C1788 C1786 1.327 . S
C1788 C1807 1.429 . S
C1788 H1812 0.950 . S
C1789 C1806 1.574 . S
C1789 C1808 1.368 . S
C1789 H1813 0.949 . S
H1790 C1794 0.949 . S
C1791 C1792 1.349 . S
C1791 C1793 1.327 . S
C1791 H1814 0.950 . S
C1792 C1791 1.349 . S
C1792 C1804 1.349 . S
C1793 C1791 1.327 . S
C1793 C1809 1.429 . S
C1793 H1815 0.950 . S
C1794 H1790 0.949 . S
C1794 C1802 1.574 . S
C1794 C1810 1.368 . S
H1795 C1803 0.950 . S
H1796 C1801 0.950 . S
H1797 C1802 0.949 . S
H1798 C1804 0.950 . S
H1799 C1805 0.950 . S
H1800 C1806 0.949 . S
C1801 H1796 0.950 . S
C1801 C1803 1.327 . S
C1801 C1807 1.429 . S
C1802 C1794 1.574 . S
C1802 H1797 0.949 . S
C1802 C1808 1.368 . S
C1803 C1787 1.349 . S
C1803 H1795 0.950 . S
C1803 C1801 1.327 . S
C1804 C1792 1.349 . S
C1804 H1798 0.950 . S
C1804 C1805 1.327 . S
C1805 H1799 0.950 . S
C1805 C1804 1.327 . S
C1805 C1809 1.429 . S
C1806 C1789 1.574 . S
C1806 H1800 0.949 . S
C1806 C1810 1.368 . S
C1807 C1788 1.429 . S
C1807 C1801 1.429 . S
C1807 C1808 1.523 . S
C1808 C1789 1.368 . S
C1808 C1802 1.368 . S
C1808 C1807 1.523 . S
C1809 C1793 1.429 . S
C1809 C1805 1.429 . S
C1809 C1810 1.523 . S
C1810 C1794 1.368 . S
C1810 C1806 1.368 . S
C1810 C1809 1.523 . S
H1811 C1786 0.950 . S
H1812 C1788 0.950 . S
H1813 C1789 0.949 . S
H1814 C1791 0.950 . S
H1815 C1793 0.950 . S
C1816 C1817 1.349 . S
C1816 C1818 1.327 . S
C1816 H1841 0.950 . S
C1817 C1816 1.349 . S
C1817 C1833 1.349 . S
C1818 C1816 1.327 . S
C1818 C1837 1.429 . S
C1818 H1842 0.950 . S
C1819 C1836 1.574 . S
C1819 C1838 1.368 . S
C1819 H1843 0.949 . S
H1820 C1824 0.949 . S
C1821 C1822 1.349 . S
C1821 C1823 1.327 . S
C1821 H1844 0.950 . S
C1822 C1821 1.349 . S
C1822 C1834 1.349 . S
C1823 C1821 1.327 . S
C1823 C1839 1.429 . S
C1823 H1845 0.950 . S
C1824 H1820 0.949 . S
C1824 C1832 1.574 . S
C1824 C1840 1.368 . S
H1825 C1833 0.950 . S
H1826 C1831 0.950 . S
H1827 C1832 0.949 . S
H1828 C1834 0.950 . S
H1829 C1835 0.950 . S
H1830 C1836 0.949 . S
C1831 H1826 0.950 . S
C1831 C1833 1.327 . S
C1831 C1837 1.429 . S
C1832 C1824 1.574 . S
C1832 H1827 0.949 . S
C1832 C1838 1.368 . S
C1833 C1817 1.349 . S
C1833 H1825 0.950 . S
C1833 C1831 1.327 . S
C1834 C1822 1.349 . S
C1834 H1828 0.950 . S
C1834 C1835 1.327 . S
C1835 H1829 0.950 . S
C1835 C1834 1.327 . S
C1835 C1839 1.429 . S
C1836 C1819 1.574 . S
C1836 H1830 0.949 . S
C1836 C1840 1.368 . S
C1837 C1818 1.429 . S
C1837 C1831 1.429 . S
C1837 C1838 1.523 . S
C1838 C1819 1.368 . S
C1838 C1832 1.368 . S
C1838 C1837 1.523 . S
C1839 C1823 1.429 . S
C1839 C1835 1.429 . S
C1839 C1840 1.523 . S
C1840 C1824 1.368 . S
C1840 C1836 1.368 . S
C1840 C1839 1.523 . S
H1841 C1816 0.950 . S
H1842 C1818 0.950 . S
H1843 C1819 0.949 . S
H1844 C1821 0.950 . S
H1845 C1823 0.950 . S
C1846 C1847 1.349 . S
C1846 C1848 1.327 . S
C1846 H1871 0.950 . S
C1847 C1846 1.349 . S
C1847 C1863 1.349 . S
C1848 C1846 1.327 . S
C1848 C1867 1.429 . S
C1848 H1872 0.950 . S
C1849 C1866 1.574 . S
C1849 C1868 1.368 . S
C1849 H1873 0.949 . S
H1850 C1854 0.949 . S
C1851 C1852 1.349 . S
C1851 C1853 1.327 . S
C1851 H1874 0.950 . S
C1852 C1851 1.349 . S
C1852 C1864 1.349 . S
C1853 C1851 1.327 . S
C1853 C1869 1.429 . S
C1853 H1875 0.950 . S
C1854 H1850 0.949 . S
C1854 C1862 1.574 . S
C1854 C1870 1.368 . S
H1855 C1863 0.950 . S
H1856 C1861 0.950 . S
H1857 C1862 0.949 . S
H1858 C1864 0.950 . S
H1859 C1865 0.950 . S
H1860 C1866 0.949 . S
C1861 H1856 0.950 . S
C1861 C1863 1.327 . S
C1861 C1867 1.429 . S
C1862 C1854 1.574 . S
C1862 H1857 0.949 . S
C1862 C1868 1.368 . S
C1863 C1847 1.349 . S
C1863 H1855 0.950 . S
C1863 C1861 1.327 . S
C1864 C1852 1.349 . S
C1864 H1858 0.950 . S
C1864 C1865 1.327 . S
C1865 H1859 0.950 . S
C1865 C1864 1.327 . S
C1865 C1869 1.429 . S
C1866 C1849 1.574 . S
C1866 H1860 0.949 . S
C1866 C1870 1.368 . S
C1867 C1848 1.429 . S
C1867 C1861 1.429 . S
C1867 C1868 1.523 . S
C1868 C1849 1.368 . S
C1868 C1862 1.368 . S
C1868 C1867 1.523 . S
C1869 C1853 1.429 . S
C1869 C1865 1.429 . S
C1869 C1870 1.523 . S
C1870 C1854 1.368 . S
C1870 C1866 1.368 . S
C1870 C1869 1.523 . S
H1871 C1846 0.950 . S
H1872 C1848 0.950 . S
H1873 C1849 0.949 . S
H1874 C1851 0.950 . S
H1875 C1853 0.950 . S
C1876 C1877 1.349 . S
C1876 C1878 1.327 . S
C1876 H1901 0.950 . S
C1877 C1876 1.349 . S
C1877 C1893 1.349 . S
C1878 C1876 1.327 . S
C1878 C1897 1.429 . S
C1878 H1902 0.950 . S
C1879 C1896 1.574 . S
C1879 C1898 1.368 . S
C1879 H1903 0.949 . S
H1880 C1884 0.949 . S
C1881 C1882 1.349 . S
C1881 C1883 1.327 . S
C1881 H1904 0.950 1_556 S
C1882 C1881 1.349 . S
C1882 C1894 1.349 . S
C1883 C1881 1.327 . S
C1883 C1899 1.429 . S
C1883 H1905 0.950 . S
C1884 H1880 0.949 . S
C1884 C1892 1.574 . S
C1884 C1900 1.368 . S
H1885 C1893 0.950 . S
H1886 C1891 0.950 . S
H1887 C1892 0.949 . S
H1888 C1894 0.950 . S
H1889 C1895 0.950 . S
H1890 C1896 0.949 . S
C1891 H1886 0.950 . S
C1891 C1893 1.327 . S
C1891 C1897 1.429 . S
C1892 C1884 1.574 . S
C1892 H1887 0.949 . S
C1892 C1898 1.368 . S
C1893 C1877 1.349 . S
C1893 H1885 0.950 . S
C1893 C1891 1.327 . S
C1894 C1882 1.349 . S
C1894 H1888 0.950 . S
C1894 C1895 1.327 . S
C1895 H1889 0.950 . S
C1895 C1894 1.327 . S
C1895 C1899 1.429 . S
C1896 C1879 1.574 . S
C1896 H1890 0.949 . S
C1896 C1900 1.368 . S
C1897 C1878 1.429 . S
C1897 C1891 1.429 . S
C1897 C1898 1.523 . S
C1898 C1879 1.368 . S
C1898 C1892 1.368 . S
C1898 C1897 1.523 . S
C1899 C1883 1.429 . S
C1899 C1895 1.429 . S
C1899 C1900 1.523 . S
C1900 C1884 1.368 . S
C1900 C1896 1.368 . S
C1900 C1899 1.523 . S
H1901 C1876 0.950 . S
H1902 C1878 0.950 . S
H1903 C1879 0.949 . S
H1904 C1881 0.950 1_554 S
H1905 C1883 0.950 . S
C1906 C1907 1.349 . S
C1906 C1908 1.327 . S
C1906 H1931 0.950 . S
C1907 C1906 1.349 . S
C1907 C1923 1.349 . S
C1908 C1906 1.327 . S
C1908 C1927 1.429 . S
C1908 H1932 0.950 . S
C1909 C1926 1.574 . S
C1909 C1928 1.368 . S
C1909 H1933 0.949 . S
H1910 C1914 0.949 . S
C1911 C1912 1.349 . S
C1911 C1913 1.327 . S
C1911 H1934 0.950 . S
C1912 C1911 1.349 . S
C1912 C1924 1.349 . S
C1913 C1911 1.327 . S
C1913 C1929 1.429 . S
C1913 H1935 0.950 . S
C1914 H1910 0.949 . S
C1914 C1922 1.574 . S
C1914 C1930 1.368 . S
H1915 C1923 0.950 . S
H1916 C1921 0.950 . S
H1917 C1922 0.949 . S
H1918 C1924 0.950 . S
H1919 C1925 0.950 . S
H1920 C1926 0.949 . S
C1921 H1916 0.950 . S
C1921 C1923 1.327 . S
C1921 C1927 1.429 . S
C1922 C1914 1.574 . S
C1922 H1917 0.949 . S
C1922 C1928 1.368 . S
C1923 C1907 1.349 . S
C1923 H1915 0.950 . S
C1923 C1921 1.327 . S
C1924 C1912 1.349 . S
C1924 H1918 0.950 . S
C1924 C1925 1.327 . S
C1925 H1919 0.950 . S
C1925 C1924 1.327 . S
C1925 C1929 1.429 . S
C1926 C1909 1.574 . S
C1926 H1920 0.949 . S
C1926 C1930 1.368 . S
C1927 C1908 1.429 . S
C1927 C1921 1.429 . S
C1927 C1928 1.523 . S
C1928 C1909 1.368 . S
C1928 C1922 1.368 . S
C1928 C1927 1.523 . S
C1929 C1913 1.429 . S
C1929 C1925 1.429 . S
C1929 C1930 1.523 . S
C1930 C1914 1.368 . S
C1930 C1926 1.368 . S
C1930 C1929 1.523 . S
H1931 C1906 0.950 . S
H1932 C1908 0.950 . S
H1933 C1909 0.949 . S
H1934 C1911 0.950 . S
H1935 C1913 0.950 . S
C1936 C1937 1.349 1_565 S
C1936 C1938 1.327 . S
C1936 H1961 0.950 . S
C1937 C1936 1.349 1_545 S
C1937 C1953 1.349 . S
C1938 C1936 1.327 . S
C1938 C1957 1.429 1_565 S
C1938 H1962 0.950 . S
C1939 C1956 1.574 . S
C1939 C1958 1.368 . S
C1939 H1963 0.949 . S
H1940 C1944 0.949 1_565 S
C1941 C1942 1.349 . S
C1941 C1943 1.327 . S
C1941 H1964 0.950 . S
C1942 C1941 1.349 . S
C1942 C1954 1.349 . S
C1943 C1941 1.327 . S
C1943 C1959 1.429 . S
C1943 H1965 0.950 . S
C1944 H1940 0.949 1_545 S
C1944 C1952 1.573 1_545 S
C1944 C1960 1.368 . S
H1945 C1953 0.950 . S
H1946 C1951 0.950 . S
H1947 C1952 0.964 . S
H1948 C1954 0.952 . S
H1949 C1955 0.950 1_565 S
H1950 C1956 0.949 . S
C1951 H1946 0.950 . S
C1951 C1953 1.327 . S
C1951 C1957 1.429 . S
C1952 C1944 1.573 1_565 S
C1952 H1947 0.964 . S
C1952 C1958 1.353 1_565 S
C1953 C1937 1.349 . S
C1953 H1945 0.950 . S
C1953 C1951 1.327 . S
C1954 C1942 1.349 . S
C1954 H1948 0.952 . S
C1954 C1955 1.327 . S
C1955 H1949 0.950 1_545 S
C1955 C1954 1.327 . S
C1955 C1959 1.429 . S
C1956 C1939 1.574 . S
C1956 H1950 0.949 . S
C1956 C1960 1.368 . S
C1957 C1938 1.429 1_545 S
C1957 C1951 1.429 . S
C1957 C1958 1.523 . S
C1958 C1939 1.368 . S
C1958 C1952 1.353 1_545 S
C1958 C1957 1.523 . S
C1959 C1943 1.429 . S
C1959 C1955 1.429 . S
C1959 C1960 1.523 . S
C1960 C1944 1.368 . S
C1960 C1956 1.368 . S
C1960 C1959 1.523 . S
H1961 C1936 0.950 . S
H1962 C1938 0.950 . S
H1963 C1939 0.949 . S
H1964 C1941 0.950 . S
H1965 C1943 0.950 . S
C1966 C1967 1.349 . S
C1966 C1968 1.327 . S
C1966 H1991 0.950 . S
C1967 C1966 1.349 . S
C1967 C1983 1.349 . S
C1968 C1966 1.327 . S
C1968 C1987 1.429 . S
C1968 H1992 0.950 . S
C1969 C1986 1.574 . S
C1969 C1988 1.368 . S
C1969 H1993 0.949 . S
H1970 C1974 0.949 . S
C1971 C1972 1.349 . S
C1971 C1973 1.327 . S
C1971 H1994 0.950 . S
C1972 C1971 1.349 . S
C1972 C1984 1.349 . S
C1973 C1971 1.327 . S
C1973 C1989 1.429 . S
C1973 H1995 0.950 . S
C1974 H1970 0.949 . S
C1974 C1982 1.574 . S
C1974 C1990 1.368 . S
H1975 C1983 0.950 . S
H1976 C1981 0.950 . S
H1977 C1982 0.949 . S
H1978 C1984 0.950 . S
H1979 C1985 0.950 . S
H1980 C1986 0.949 . S
C1981 H1976 0.950 . S
C1981 C1983 1.327 . S
C1981 C1987 1.429 . S
C1982 C1974 1.574 . S
C1982 H1977 0.949 . S
C1982 C1988 1.368 . S
C1983 C1967 1.349 . S
C1983 H1975 0.950 . S
C1983 C1981 1.327 . S
C1984 C1972 1.349 . S
C1984 H1978 0.950 . S
C1984 C1985 1.327 . S
C1985 H1979 0.950 . S
C1985 C1984 1.327 . S
C1985 C1989 1.429 . S
C1986 C1969 1.574 . S
C1986 H1980 0.949 . S
C1986 C1990 1.368 . S
C1987 C1968 1.429 . S
C1987 C1981 1.429 . S
C1987 C1988 1.523 . S
C1988 C1969 1.368 . S
C1988 C1982 1.368 . S
C1988 C1987 1.523 . S
C1989 C1973 1.429 . S
C1989 C1985 1.429 . S
C1989 C1990 1.523 . S
C1990 C1974 1.368 . S
C1990 C1986 1.368 . S
C1990 C1989 1.523 . S
H1991 C1966 0.950 . S
H1992 C1968 0.950 . S
H1993 C1969 0.949 . S
H1994 C1971 0.950 . S
H1995 C1973 0.950 . S
C1996 C1997 1.349 . S
C1996 C1998 1.327 . S
C1996 H2021 0.950 1_545 S
C1997 C1996 1.349 . S
C1997 C2013 1.349 . S
C1998 C1996 1.327 . S
C1998 C2017 1.429 . S
C1998 H2022 0.950 1_545 S
C1999 C2016 1.574 . S
C1999 C2018 1.368 . S
C1999 H2023 0.949 . S
H2000 C2004 0.949 . S
C2001 C2002 1.349 . S
C2001 C2003 1.327 . S
C2001 H2024 0.950 . S
C2002 C2001 1.349 . S
C2002 C2014 1.349 . S
C2003 C2001 1.327 . S
C2003 C2019 1.429 . S
C2003 H2025 0.950 . S
C2004 H2000 0.949 . S
C2004 C2012 1.574 . S
C2004 C2020 1.368 . S
H2005 C2013 0.950 . S
H2006 C2011 0.950 . S
H2007 C2012 0.949 1_565 S
H2008 C2014 0.950 . S
H2009 C2015 0.950 . S
H2010 C2016 0.949 . S
C2011 H2006 0.950 . S
C2011 C2013 1.327 . S
C2011 C2017 1.429 . S
C2012 C2004 1.574 . S
C2012 H2007 0.949 1_545 S
C2012 C2018 1.368 . S
C2013 C1997 1.349 . S
C2013 H2005 0.950 . S
C2013 C2011 1.327 . S
C2014 C2002 1.349 . S
C2014 H2008 0.950 . S
C2014 C2015 1.327 . S
C2015 H2009 0.950 . S
C2015 C2014 1.327 . S
C2015 C2019 1.429 . S
C2016 C1999 1.574 . S
C2016 H2010 0.949 . S
C2016 C2020 1.368 . S
C2017 C1998 1.429 . S
C2017 C2011 1.429 . S
C2017 C2018 1.523 . S
C2018 C1999 1.368 . S
C2018 C2012 1.368 . S
C2018 C2017 1.523 . S
C2019 C2003 1.429 . S
C2019 C2015 1.429 . S
C2019 C2020 1.523 . S
C2020 C2004 1.368 . S
C2020 C2016 1.368 . S
C2020 C2019 1.523 . S
H2021 C1996 0.950 1_565 S
H2022 C1998 0.950 1_565 S
H2023 C1999 0.949 . S
H2024 C2001 0.950 . S
H2025 C2003 0.950 . S
C2026 C2027 1.349 . S
C2026 C2028 1.327 . S
C2026 H2051 0.950 . S
C2027 C2026 1.349 . S
C2027 C2043 1.349 . S
C2028 C2026 1.327 . S
C2028 C2047 1.429 . S
C2028 H2052 0.950 . S
C2029 C2046 1.574 . S
C2029 C2048 1.368 . S
C2029 H2053 0.949 . S
H2030 C2034 0.949 . S
C2031 C2032 1.349 . S
C2031 C2033 1.327 . S
C2031 H2054 0.950 . S
C2032 C2031 1.349 . S
C2032 C2044 1.349 . S
C2033 C2031 1.327 . S
C2033 C2049 1.429 . S
C2033 H2055 0.950 . S
C2034 H2030 0.949 . S
C2034 C2042 1.574 . S
C2034 C2050 1.368 . S
H2035 C2043 0.950 . S
H2036 C2041 0.950 . S
H2037 C2042 0.949 . S
H2038 C2044 0.950 . S
H2039 C2045 0.950 . S
H2040 C2046 0.949 . S
C2041 H2036 0.950 . S
C2041 C2043 1.327 . S
C2041 C2047 1.429 . S
C2042 C2034 1.574 . S
C2042 H2037 0.949 . S
C2042 C2048 1.368 . S
C2043 C2027 1.349 . S
C2043 H2035 0.950 . S
C2043 C2041 1.327 . S
C2044 C2032 1.349 . S
C2044 H2038 0.950 . S
C2044 C2045 1.327 . S
C2045 H2039 0.950 . S
C2045 C2044 1.327 . S
C2045 C2049 1.429 . S
C2046 C2029 1.574 . S
C2046 H2040 0.949 . S
C2046 C2050 1.368 . S
C2047 C2028 1.429 . S
C2047 C2041 1.429 . S
C2047 C2048 1.523 . S
C2048 C2029 1.368 . S
C2048 C2042 1.368 . S
C2048 C2047 1.523 . S
C2049 C2033 1.429 . S
C2049 C2045 1.429 . S
C2049 C2050 1.523 . S
C2050 C2034 1.368 . S
C2050 C2046 1.368 . S
C2050 C2049 1.523 . S
H2051 C2026 0.950 . S
H2052 C2028 0.950 . S
H2053 C2029 0.949 . S
H2054 C2031 0.950 . S
H2055 C2033 0.950 . S
C2056 C2057 1.349 1_545 S
C2056 C2058 1.327 . S
C2056 H2081 0.950 . S
C2057 C2056 1.349 1_565 S
C2057 C2073 1.349 . S
C2058 C2056 1.327 . S
C2058 C2077 1.429 . S
C2058 H2082 0.950 . S
C2059 C2076 1.574 . S
C2059 C2078 1.368 1_565 S
C2059 H2083 0.949 . S
H2060 C2064 0.949 . S
C2061 C2062 1.349 . S
C2061 C2063 1.327 . S
C2061 H2084 0.950 1_545 S
C2062 C2061 1.349 . S
C2062 C2074 1.349 . S
C2063 C2061 1.327 . S
C2063 C2079 1.429 . S
C2063 H2085 0.950 1_545 S
C2064 H2060 0.949 . S
C2064 C2072 1.574 . S
C2064 C2080 1.368 . S
H2065 C2073 0.950 . S
H2066 C2071 0.950 . S
H2067 C2072 0.949 . S
H2068 C2074 0.950 . S
H2069 C2075 0.950 . S
H2070 C2076 0.949 . S
C2071 H2066 0.950 . S
C2071 C2073 1.327 . S
C2071 C2077 1.429 1_565 S
C2072 C2064 1.574 . S
C2072 H2067 0.949 . S
C2072 C2078 1.368 . S
C2073 C2057 1.349 . S
C2073 H2065 0.950 . S
C2073 C2071 1.327 . S
C2074 C2062 1.349 . S
C2074 H2068 0.950 . S
C2074 C2075 1.327 . S
C2075 H2069 0.950 . S
C2075 C2074 1.327 . S
C2075 C2079 1.429 . S
C2076 C2059 1.574 . S
C2076 H2070 0.949 . S
C2076 C2080 1.368 1_565 S
C2077 C2058 1.429 . S
C2077 C2071 1.429 1_545 S
C2077 C2078 1.523 . S
C2078 C2059 1.368 1_545 S
C2078 C2072 1.368 . S
C2078 C2077 1.523 . S
C2079 C2063 1.429 . S
C2079 C2075 1.429 . S
C2079 C2080 1.523 . S
C2080 C2064 1.368 . S
C2080 C2076 1.368 1_545 S
C2080 C2079 1.523 . S
H2081 C2056 0.950 . S
H2082 C2058 0.950 . S
H2083 C2059 0.949 . S
H2084 C2061 0.950 1_565 S
H2085 C2063 0.950 1_565 S
C2086 C2087 1.349 . S
C2086 C2088 1.327 . S
C2086 H2111 0.950 . S
C2087 C2086 1.349 . S
C2087 C2103 1.349 . S
C2088 C2086 1.327 . S
C2088 C2107 1.429 . S
C2088 H2112 0.950 . S
C2089 C2106 1.574 . S
C2089 C2108 1.368 . S
C2089 H2113 0.949 . S
H2090 C2094 0.949 . S
C2091 C2092 1.349 . S
C2091 C2093 1.327 . S
C2091 H2114 0.950 . S
C2092 C2091 1.349 . S
C2092 C2104 1.349 . S
C2093 C2091 1.327 . S
C2093 C2109 1.429 . S
C2093 H2115 0.950 . S
C2094 H2090 0.949 . S
C2094 C2102 1.574 . S
C2094 C2110 1.368 . S
H2095 C2103 0.950 . S
H2096 C2101 0.950 . S
H2097 C2102 0.949 . S
H2098 C2104 0.950 . S
H2099 C2105 0.950 . S
H2100 C2106 0.949 . S
C2101 H2096 0.950 . S
C2101 C2103 1.327 . S
C2101 C2107 1.429 . S
C2102 C2094 1.574 . S
C2102 H2097 0.949 . S
C2102 C2108 1.368 . S
C2103 C2087 1.349 . S
C2103 H2095 0.950 . S
C2103 C2101 1.327 . S
C2104 C2092 1.349 . S
C2104 H2098 0.950 . S
C2104 C2105 1.327 . S
C2105 H2099 0.950 . S
C2105 C2104 1.327 . S
C2105 C2109 1.429 . S
C2106 C2089 1.574 . S
C2106 H2100 0.949 . S
C2106 C2110 1.368 . S
C2107 C2088 1.429 . S
C2107 C2101 1.429 . S
C2107 C2108 1.523 . S
C2108 C2089 1.368 . S
C2108 C2102 1.368 . S
C2108 C2107 1.523 . S
C2109 C2093 1.429 . S
C2109 C2105 1.429 . S
C2109 C2110 1.523 . S
C2110 C2094 1.368 . S
C2110 C2106 1.368 . S
C2110 C2109 1.523 . S
H2111 C2086 0.950 . S
H2112 C2088 0.950 . S
H2113 C2089 0.949 . S
H2114 C2091 0.950 . S
H2115 C2093 0.950 . S
C2116 C2117 1.349 . S
C2116 C2118 1.327 . S
C2116 H2141 0.950 . S
C2117 C2116 1.349 . S
C2117 C2133 1.349 1_545 S
C2118 C2116 1.327 . S
C2118 C2137 1.429 . S
C2118 H2142 0.950 . S
C2119 C2136 1.574 . S
C2119 C2138 1.368 1_565 S
C2119 H2143 0.949 . S
H2120 C2124 0.949 . S
C2121 C2122 1.349 . S
C2121 C2123 1.327 . S
C2121 H2144 0.950 . S
C2122 C2121 1.349 . S
C2122 C2134 1.349 1_565 S
C2123 C2121 1.327 . S
C2123 C2139 1.429 1_565 S
C2123 H2145 0.950 . S
C2124 H2120 0.949 . S
C2124 C2132 1.574 . S
C2124 C2140 1.368 . S
H2125 C2133 0.950 . S
H2126 C2131 0.950 . S
H2127 C2132 0.949 . S
H2128 C2134 0.950 . S
H2129 C2135 0.950 . S
H2130 C2136 0.949 . S
C2131 H2126 0.950 . S
C2131 C2133 1.327 . S
C2131 C2137 1.429 1_565 S
C2132 C2124 1.574 . S
C2132 H2127 0.949 . S
C2132 C2138 1.368 . S
C2133 C2117 1.349 1_565 S
C2133 H2125 0.950 . S
C2133 C2131 1.327 . S
C2134 C2122 1.349 1_545 S
C2134 H2128 0.950 . S
C2134 C2135 1.327 . S
C2135 H2129 0.950 . S
C2135 C2134 1.327 . S
C2135 C2139 1.429 . S
C2136 C2119 1.574 . S
C2136 H2130 0.949 . S
C2136 C2140 1.368 1_565 S
C2137 C2118 1.429 . S
C2137 C2131 1.429 1_545 S
C2137 C2138 1.523 . S
C2138 C2119 1.368 1_545 S
C2138 C2132 1.368 . S
C2138 C2137 1.523 . S
C2139 C2123 1.429 1_545 S
C2139 C2135 1.429 . S
C2139 C2140 1.523 . S
C2140 C2124 1.368 . S
C2140 C2136 1.368 1_545 S
C2140 C2139 1.523 . S
H2141 C2116 0.950 . S
H2142 C2118 0.950 . S
H2143 C2119 0.949 . S
H2144 C2121 0.950 . S
H2145 C2123 0.950 . S
C2146 C2147 1.349 . S
C2146 C2148 1.327 . S
C2146 H2171 0.950 . S
C2147 C2146 1.349 . S
C2147 C2163 1.349 . S
C2148 C2146 1.327 . S
C2148 C2167 1.429 . S
C2148 H2172 0.950 . S
C2149 C2166 1.574 . S
C2149 C2168 1.368 . S
C2149 H2173 0.949 . S
H2150 C2154 0.949 . S
C2151 C2152 1.349 . S
C2151 C2153 1.327 . S
C2151 H2174 0.950 . S
C2152 C2151 1.349 . S
C2152 C2164 1.349 . S
C2153 C2151 1.327 . S
C2153 C2169 1.429 . S
C2153 H2175 0.950 . S
C2154 H2150 0.949 . S
C2154 C2162 1.574 . S
C2154 C2170 1.368 . S
H2155 C2163 0.950 . S
H2156 C2161 0.950 . S
H2157 C2162 0.949 . S
H2158 C2164 0.950 . S
H2159 C2165 0.950 . S
H2160 C2166 0.949 . S
C2161 H2156 0.950 . S
C2161 C2163 1.327 . S
C2161 C2167 1.429 . S
C2162 C2154 1.574 . S
C2162 H2157 0.949 . S
C2162 C2168 1.368 . S
C2163 C2147 1.349 . S
C2163 H2155 0.950 . S
C2163 C2161 1.327 . S
C2164 C2152 1.349 . S
C2164 H2158 0.950 . S
C2164 C2165 1.327 . S
C2165 H2159 0.950 . S
C2165 C2164 1.327 . S
C2165 C2169 1.429 . S
C2166 C2149 1.574 . S
C2166 H2160 0.949 . S
C2166 C2170 1.368 . S
C2167 C2148 1.429 . S
C2167 C2161 1.429 . S
C2167 C2168 1.523 . S
C2168 C2149 1.368 . S
C2168 C2162 1.368 . S
C2168 C2167 1.523 . S
C2169 C2153 1.429 . S
C2169 C2165 1.429 . S
C2169 C2170 1.523 . S
C2170 C2154 1.368 . S
C2170 C2166 1.368 . S
C2170 C2169 1.523 . S
H2171 C2146 0.950 . S
H2172 C2148 0.950 . S
H2173 C2149 0.949 . S
H2174 C2151 0.950 . S
H2175 C2153 0.950 . S
C2176 C2177 1.349 1_556 S
C2176 C2178 1.327 . S
C2176 H2201 0.950 . S
C2177 C2176 1.349 1_554 S
C2177 C2193 1.349 . S
C2178 C2176 1.327 . S
C2178 C2197 1.429 1_556 S
C2178 H2202 0.950 . S
C2179 C2196 1.574 . S
C2179 C2198 1.368 1_554 S
C2179 H2203 0.949 . S
H2180 C2184 0.949 . S
C2181 C2182 1.349 . S
C2181 C2183 1.327 1_556 S
C2181 H2204 0.950 1_556 S
C2182 C2181 1.349 . S
C2182 C2194 1.349 . S
C2183 C2181 1.327 1_554 S
C2183 C2199 1.429 1_554 S
C2183 H2205 0.950 . S
C2184 H2180 0.949 . S
C2184 C2192 1.574 . S
C2184 C2200 1.368 . S
H2185 C2193 0.950 . S
H2186 C2191 0.950 . S
H2187 C2192 0.949 . S
H2188 C2194 0.950 . S
H2189 C2195 0.950 . S
H2190 C2196 0.949 . S
C2191 H2186 0.950 . S
C2191 C2193 1.327 . S
C2191 C2197 1.429 . S
C2192 C2184 1.574 . S
C2192 H2187 0.949 . S
C2192 C2198 1.368 . S
C2193 C2177 1.349 . S
C2193 H2185 0.950 . S
C2193 C2191 1.327 . S
C2194 C2182 1.349 . S
C2194 H2188 0.950 . S
C2194 C2195 1.327 . S
C2195 H2189 0.950 . S
C2195 C2194 1.327 . S
C2195 C2199 1.429 . S
C2196 C2179 1.574 . S
C2196 H2190 0.949 . S
C2196 C2200 1.368 1_554 S
C2197 C2178 1.429 1_554 S
C2197 C2191 1.429 . S
C2197 C2198 1.523 1_554 S
C2198 C2179 1.368 1_556 S
C2198 C2192 1.368 . S
C2198 C2197 1.523 1_556 S
C2199 C2183 1.429 1_556 S
C2199 C2195 1.429 . S
C2199 C2200 1.523 . S
C2200 C2184 1.368 . S
C2200 C2196 1.368 1_556 S
C2200 C2199 1.523 . S
H2201 C2176 0.950 . S
H2202 C2178 0.950 . S
H2203 C2179 0.949 . S
H2204 C2181 0.950 1_554 S
H2205 C2183 0.950 . S
C2206 C2207 1.349 . S
C2206 C2208 1.327 . S
C2206 H2231 0.950 . S
C2207 C2206 1.349 . S
C2207 C2223 1.349 . S
C2208 C2206 1.327 . S
C2208 C2227 1.429 . S
C2208 H2232 0.950 . S
C2209 C2226 1.584 . S
C2209 C2228 1.368 . S
C2209 H2233 0.949 1_554 S
H2210 C2214 0.949 . S
C2211 C2212 1.345 . S
C2211 C2213 1.324 . S
C2211 H2234 0.955 1_554 S
C2212 C2211 1.345 . S
C2212 C2224 1.349 . S
C2213 C2211 1.324 . S
C2213 C2229 1.436 . S
C2213 H2235 0.944 1_554 S
C2214 H2210 0.949 . S
C2214 C2222 1.574 . S
C2214 C2230 1.368 . S
H2215 C2223 0.950 1_556 S
H2216 C2221 0.950 1_556 S
H2217 C2222 0.949 . S
H2218 C2224 0.950 . S
H2219 C2225 0.950 . S
H2220 C2226 0.914 1_556 S
C2221 H2216 0.950 1_554 S
C2221 C2223 1.327 . S
C2221 C2227 1.429 . S
C2222 C2214 1.574 . S
C2222 H2217 0.949 . S
C2222 C2228 1.368 . S
C2223 C2207 1.349 . S
C2223 H2215 0.950 1_554 S
C2223 C2221 1.327 . S
C2224 C2212 1.349 . S
C2224 H2218 0.950 . S
C2224 C2225 1.327 . S
C2225 H2219 0.950 . S
C2225 C2224 1.327 . S
C2225 C2229 1.429 . S
C2226 C2209 1.584 . S
C2226 H2220 0.914 1_554 S
C2226 C2230 1.398 . S
C2227 C2208 1.429 . S
C2227 C2221 1.429 . S
C2227 C2228 1.523 . S
C2228 C2209 1.368 . S
C2228 C2222 1.368 . S
C2228 C2227 1.523 . S
C2229 C2213 1.436 . S
C2229 C2225 1.429 . S
C2229 C2230 1.523 . S
C2230 C2214 1.368 . S
C2230 C2226 1.398 . S
C2230 C2229 1.523 . S
H2231 C2206 0.950 . S
H2232 C2208 0.950 . S
H2233 C2209 0.949 1_556 S
H2234 C2211 0.955 1_556 S
H2235 C2213 0.944 1_556 S
C2236 C2237 1.349 . S
C2236 C2238 1.327 . S
C2236 H2261 0.950 . S
C2237 C2236 1.349 . S
C2237 C2253 1.349 . S
C2238 C2236 1.327 . S
C2238 C2257 1.429 . S
C2238 H2262 0.950 . S
C2239 C2256 1.574 . S
C2239 C2258 1.368 . S
C2239 H2263 0.949 . S
H2240 C2244 0.949 . S
C2241 C2242 1.349 . S
C2241 C2243 1.327 . S
C2241 H2264 0.950 . S
C2242 C2241 1.349 . S
C2242 C2254 1.349 . S
C2243 C2241 1.327 . S
C2243 C2259 1.429 . S
C2243 H2265 0.950 . S
C2244 H2240 0.949 . S
C2244 C2252 1.574 . S
C2244 C2260 1.368 . S
H2245 C2253 0.950 . S
H2246 C2251 0.950 . S
H2247 C2252 0.949 . S
H2248 C2254 0.950 . S
H2249 C2255 0.950 . S
H2250 C2256 0.949 . S
C2251 H2246 0.950 . S
C2251 C2253 1.327 . S
C2251 C2257 1.429 . S
C2252 C2244 1.574 . S
C2252 H2247 0.949 . S
C2252 C2258 1.368 . S
C2253 C2237 1.349 . S
C2253 H2245 0.950 . S
C2253 C2251 1.327 . S
C2254 C2242 1.349 . S
C2254 H2248 0.950 . S
C2254 C2255 1.327 . S
C2255 H2249 0.950 . S
C2255 C2254 1.327 . S
C2255 C2259 1.429 . S
C2256 C2239 1.574 . S
C2256 H2250 0.949 . S
C2256 C2260 1.368 . S
C2257 C2238 1.429 . S
C2257 C2251 1.429 . S
C2257 C2258 1.523 . S
C2258 C2239 1.368 . S
C2258 C2252 1.368 . S
C2258 C2257 1.523 . S
C2259 C2243 1.429 . S
C2259 C2255 1.429 . S
C2259 C2260 1.523 . S
C2260 C2244 1.368 . S
C2260 C2256 1.368 . S
C2260 C2259 1.523 . S
H2261 C2236 0.950 . S
H2262 C2238 0.950 . S
H2263 C2239 0.949 . S
H2264 C2241 0.950 . S
H2265 C2243 0.950 . S
C2266 C2267 1.349 . S
C2266 C2268 1.327 . S
C2266 H2291 0.950 . S
C2267 C2266 1.349 . S
C2267 C2283 1.349 . S
C2268 C2266 1.327 . S
C2268 C2287 1.429 . S
C2268 H2292 0.950 . S
C2269 C2286 1.574 . S
C2269 C2288 1.368 . S
C2269 H2293 0.949 . S
H2270 C2274 0.949 . S
C2271 C2272 1.349 . S
C2271 C2273 1.327 . S
C2271 H2294 0.950 . S
C2272 C2271 1.349 . S
C2272 C2284 1.349 . S
C2273 C2271 1.327 . S
C2273 C2289 1.429 . S
C2273 H2295 0.950 . S
C2274 H2270 0.949 . S
C2274 C2282 1.574 . S
C2274 C2290 1.368 . S
H2275 C2283 0.950 . S
H2276 C2281 0.950 . S
H2277 C2282 0.949 . S
H2278 C2284 0.950 . S
H2279 C2285 0.950 . S
H2280 C2286 0.949 . S
C2281 H2276 0.950 . S
C2281 C2283 1.327 . S
C2281 C2287 1.429 . S
C2282 C2274 1.574 . S
C2282 H2277 0.949 . S
C2282 C2288 1.368 . S
C2283 C2267 1.349 . S
C2283 H2275 0.950 . S
C2283 C2281 1.327 . S
C2284 C2272 1.349 . S
C2284 H2278 0.950 . S
C2284 C2285 1.327 . S
C2285 H2279 0.950 . S
C2285 C2284 1.327 . S
C2285 C2289 1.429 . S
C2286 C2269 1.574 . S
C2286 H2280 0.949 . S
C2286 C2290 1.368 . S
C2287 C2268 1.429 . S
C2287 C2281 1.429 . S
C2287 C2288 1.523 . S
C2288 C2269 1.368 . S
C2288 C2282 1.368 . S
C2288 C2287 1.523 . S
C2289 C2273 1.429 . S
C2289 C2285 1.429 . S
C2289 C2290 1.523 . S
C2290 C2274 1.368 . S
C2290 C2286 1.368 . S
C2290 C2289 1.523 . S
H2291 C2266 0.950 . S
H2292 C2268 0.950 . S
H2293 C2269 0.949 . S
H2294 C2271 0.950 . S
H2295 C2273 0.950 . S
C2296 C2297 1.349 . S
C2296 C2298 1.327 1_545 S
C2296 H2321 0.950 . S
C2297 C2296 1.349 . S
C2297 C2313 1.349 1_545 S
C2298 C2296 1.327 1_565 S
C2298 C2317 1.429 . S
C2298 H2322 0.950 1_565 S
C2299 C2316 1.574 . S
C2299 C2318 1.368 . S
C2299 H2323 0.949 . S
H2300 C2304 0.949 . S
C2301 C2302 1.349 . S
C2301 C2303 1.327 . S
C2301 H2324 0.950 . S
C2302 C2301 1.349 . S
C2302 C2314 1.349 . S
C2303 C2301 1.327 . S
C2303 C2319 1.429 . S
C2303 H2325 0.950 . S
C2304 H2300 0.949 . S
C2304 C2312 1.574 . S
C2304 C2320 1.368 . S
H2305 C2313 0.950 . S
H2306 C2311 0.950 . S
H2307 C2312 0.949 . S
H2308 C2314 0.950 . S
H2309 C2315 0.950 . S
H2310 C2316 0.949 . S
C2311 H2306 0.950 . S
C2311 C2313 1.327 . S
C2311 C2317 1.429 . S
C2312 C2304 1.574 . S
C2312 H2307 0.949 . S
C2312 C2318 1.368 . S
C2313 C2297 1.349 1_565 S
C2313 H2305 0.950 . S
C2313 C2311 1.327 . S
C2314 C2302 1.349 . S
C2314 H2308 0.950 . S
C2314 C2315 1.327 . S
C2315 H2309 0.950 . S
C2315 C2314 1.327 . S
C2315 C2319 1.429 . S
C2316 C2299 1.574 . S
C2316 H2310 0.949 . S
C2316 C2320 1.368 . S
C2317 C2298 1.429 . S
C2317 C2311 1.429 . S
C2317 C2318 1.523 . S
C2318 C2299 1.368 . S
C2318 C2312 1.368 . S
C2318 C2317 1.523 . S
C2319 C2303 1.429 . S
C2319 C2315 1.429 . S
C2319 C2320 1.523 . S
C2320 C2304 1.368 . S
C2320 C2316 1.368 . S
C2320 C2319 1.523 . S
H2321 C2296 0.950 . S
H2322 C2298 0.950 1_545 S
H2323 C2299 0.949 . S
H2324 C2301 0.950 . S
H2325 C2303 0.950 . S
C2326 C2327 1.349 . S
C2326 C2328 1.327 . S
C2326 H2351 0.950 . S
C2327 C2326 1.349 . S
C2327 C2343 1.349 . S
C2328 C2326 1.327 . S
C2328 C2347 1.429 . S
C2328 H2352 0.950 . S
C2329 C2346 1.574 . S
C2329 C2348 1.368 . S
C2329 H2353 0.949 . S
H2330 C2334 0.949 . S
C2331 C2332 1.349 . S
C2331 C2333 1.327 . S
C2331 H2354 0.950 . S
C2332 C2331 1.349 . S
C2332 C2344 1.349 . S
C2333 C2331 1.327 . S
C2333 C2349 1.429 . S
C2333 H2355 0.950 . S
C2334 H2330 0.949 . S
C2334 C2342 1.574 . S
C2334 C2350 1.368 . S
H2335 C2343 0.950 . S
H2336 C2341 0.950 . S
H2337 C2342 0.949 . S
H2338 C2344 0.950 . S
H2339 C2345 0.950 . S
H2340 C2346 0.949 . S
C2341 H2336 0.950 . S
C2341 C2343 1.327 . S
C2341 C2347 1.429 . S
C2342 C2334 1.574 . S
C2342 H2337 0.949 . S
C2342 C2348 1.368 . S
C2343 C2327 1.349 . S
C2343 H2335 0.950 . S
C2343 C2341 1.327 . S
C2344 C2332 1.349 . S
C2344 H2338 0.950 . S
C2344 C2345 1.327 . S
C2345 H2339 0.950 . S
C2345 C2344 1.327 . S
C2345 C2349 1.429 . S
C2346 C2329 1.574 . S
C2346 H2340 0.949 . S
C2346 C2350 1.368 . S
C2347 C2328 1.429 . S
C2347 C2341 1.429 . S
C2347 C2348 1.523 . S
C2348 C2329 1.368 . S
C2348 C2342 1.368 . S
C2348 C2347 1.523 . S
C2349 C2333 1.429 . S
C2349 C2345 1.429 . S
C2349 C2350 1.523 . S
C2350 C2334 1.368 . S
C2350 C2346 1.368 . S
C2350 C2349 1.523 . S
H2351 C2326 0.950 . S
H2352 C2328 0.950 . S
H2353 C2329 0.949 . S
H2354 C2331 0.950 . S
H2355 C2333 0.950 . S
C2356 C2357 1.349 . S
C2356 C2358 1.327 . S
C2356 H2381 0.950 . S
C2357 C2356 1.349 . S
C2357 C2373 1.349 . S
C2358 C2356 1.327 . S
C2358 C2377 1.429 . S
C2358 H2382 0.950 . S
C2359 C2376 1.574 . S
C2359 C2378 1.368 . S
C2359 H2383 0.949 . S
H2360 C2364 0.949 . S
C2361 C2362 1.349 . S
C2361 C2363 1.327 . S
C2361 H2384 0.950 . S
C2362 C2361 1.349 . S
C2362 C2374 1.349 . S
C2363 C2361 1.327 . S
C2363 C2379 1.429 . S
C2363 H2385 0.950 . S
C2364 H2360 0.949 . S
C2364 C2372 1.574 . S
C2364 C2380 1.368 . S
H2365 C2373 0.950 . S
H2366 C2371 0.950 . S
H2367 C2372 0.949 . S
H2368 C2374 0.950 . S
H2369 C2375 0.950 . S
H2370 C2376 0.949 . S
C2371 H2366 0.950 . S
C2371 C2373 1.327 . S
C2371 C2377 1.429 . S
C2372 C2364 1.574 . S
C2372 H2367 0.949 . S
C2372 C2378 1.368 . S
C2373 C2357 1.349 . S
C2373 H2365 0.950 . S
C2373 C2371 1.327 . S
C2374 C2362 1.349 . S
C2374 H2368 0.950 . S
C2374 C2375 1.327 . S
C2375 H2369 0.950 . S
C2375 C2374 1.327 . S
C2375 C2379 1.429 . S
C2376 C2359 1.574 . S
C2376 H2370 0.949 . S
C2376 C2380 1.368 . S
C2377 C2358 1.429 . S
C2377 C2371 1.429 . S
C2377 C2378 1.523 . S
C2378 C2359 1.368 . S
C2378 C2372 1.368 . S
C2378 C2377 1.523 . S
C2379 C2363 1.429 . S
C2379 C2375 1.429 . S
C2379 C2380 1.523 . S
C2380 C2364 1.368 . S
C2380 C2376 1.368 . S
C2380 C2379 1.523 . S
H2381 C2356 0.950 . S
H2382 C2358 0.950 . S
H2383 C2359 0.949 . S
H2384 C2361 0.950 . S
H2385 C2363 0.950 . S
C2386 C2387 1.349 . S
C2386 C2388 1.327 . S
C2386 H2411 0.950 . S
C2387 C2386 1.349 . S
C2387 C2403 1.349 . S
C2388 C2386 1.327 . S
C2388 C2407 1.429 . S
C2388 H2412 0.950 . S
C2389 C2406 1.574 . S
C2389 C2408 1.368 . S
C2389 H2413 0.949 . S
H2390 C2394 0.949 . S
C2391 C2392 1.349 . S
C2391 C2393 1.327 . S
C2391 H2414 0.950 . S
C2392 C2391 1.349 . S
C2392 C2404 1.349 . S
C2393 C2391 1.327 . S
C2393 C2409 1.429 . S
C2393 H2415 0.950 . S
C2394 H2390 0.949 . S
C2394 C2402 1.574 . S
C2394 C2410 1.368 . S
H2395 C2403 0.950 . S
H2396 C2401 0.950 . S
H2397 C2402 0.949 . S
H2398 C2404 0.950 . S
H2399 C2405 0.950 . S
H2400 C2406 0.949 . S
C2401 H2396 0.950 . S
C2401 C2403 1.327 . S
C2401 C2407 1.429 . S
C2402 C2394 1.574 . S
C2402 H2397 0.949 . S
C2402 C2408 1.368 . S
C2403 C2387 1.349 . S
C2403 H2395 0.950 . S
C2403 C2401 1.327 . S
C2404 C2392 1.349 . S
C2404 H2398 0.950 . S
C2404 C2405 1.327 . S
C2405 H2399 0.950 . S
C2405 C2404 1.327 . S
C2405 C2409 1.429 . S
C2406 C2389 1.574 . S
C2406 H2400 0.949 . S
C2406 C2410 1.368 . S
C2407 C2388 1.429 . S
C2407 C2401 1.429 . S
C2407 C2408 1.523 . S
C2408 C2389 1.368 . S
C2408 C2402 1.368 . S
C2408 C2407 1.523 . S
C2409 C2393 1.429 . S
C2409 C2405 1.429 . S
C2409 C2410 1.523 . S
C2410 C2394 1.368 . S
C2410 C2406 1.368 . S
C2410 C2409 1.523 . S
H2411 C2386 0.950 . S
H2412 C2388 0.950 . S
H2413 C2389 0.949 . S
H2414 C2391 0.950 . S
H2415 C2393 0.950 . S
C2416 C2417 1.349 . S
C2416 C2418 1.327 . S
C2416 H2441 0.950 . S
C2417 C2416 1.349 . S
C2417 C2433 1.349 . S
C2418 C2416 1.327 . S
C2418 C2437 1.429 . S
C2418 H2442 0.950 . S
C2419 C2436 1.574 . S
C2419 C2438 1.368 . S
C2419 H2443 0.949 . S
H2420 C2424 0.949 . S
C2421 C2422 1.349 . S
C2421 C2423 1.327 . S
C2421 H2444 0.950 . S
C2422 C2421 1.349 . S
C2422 C2434 1.349 . S
C2423 C2421 1.327 . S
C2423 C2439 1.429 . S
C2423 H2445 0.950 . S
C2424 H2420 0.949 . S
C2424 C2432 1.574 . S
C2424 C2440 1.368 . S
H2425 C2433 0.950 . S
H2426 C2431 0.950 . S
H2427 C2432 0.949 . S
H2428 C2434 0.950 . S
H2429 C2435 0.950 . S
H2430 C2436 0.949 . S
C2431 H2426 0.950 . S
C2431 C2433 1.327 . S
C2431 C2437 1.429 . S
C2432 C2424 1.574 . S
C2432 H2427 0.949 . S
C2432 C2438 1.368 . S
C2433 C2417 1.349 . S
C2433 H2425 0.950 . S
C2433 C2431 1.327 . S
C2434 C2422 1.349 . S
C2434 H2428 0.950 . S
C2434 C2435 1.327 . S
C2435 H2429 0.950 . S
C2435 C2434 1.327 . S
C2435 C2439 1.429 . S
C2436 C2419 1.574 . S
C2436 H2430 0.949 . S
C2436 C2440 1.368 . S
C2437 C2418 1.429 . S
C2437 C2431 1.429 . S
C2437 C2438 1.523 . S
C2438 C2419 1.368 . S
C2438 C2432 1.368 . S
C2438 C2437 1.523 . S
C2439 C2423 1.429 . S
C2439 C2435 1.429 . S
C2439 C2440 1.523 . S
C2440 C2424 1.368 . S
C2440 C2436 1.368 . S
C2440 C2439 1.523 . S
H2441 C2416 0.950 . S
H2442 C2418 0.950 . S
H2443 C2419 0.949 . S
H2444 C2421 0.950 . S
H2445 C2423 0.950 . S
C2446 C2447 1.349 . S
C2446 C2448 1.327 . S
C2446 H2471 0.950 . S
C2447 C2446 1.349 . S
C2447 C2463 1.349 . S
C2448 C2446 1.327 . S
C2448 C2467 1.429 . S
C2448 H2472 0.950 . S
C2449 C2466 1.574 . S
C2449 C2468 1.368 . S
C2449 H2473 0.949 . S
H2450 C2454 0.949 . S
C2451 C2452 1.349 . S
C2451 C2453 1.327 . S
C2451 H2474 0.950 . S
C2452 C2451 1.349 . S
C2452 C2464 1.349 . S
C2453 C2451 1.327 . S
C2453 C2469 1.429 . S
C2453 H2475 0.950 . S
C2454 H2450 0.949 . S
C2454 C2462 1.574 . S
C2454 C2470 1.368 . S
H2455 C2463 0.950 . S
H2456 C2461 0.950 . S
H2457 C2462 0.949 . S
H2458 C2464 0.950 . S
H2459 C2465 0.950 . S
H2460 C2466 0.949 . S
C2461 H2456 0.950 . S
C2461 C2463 1.327 . S
C2461 C2467 1.429 . S
C2462 C2454 1.574 . S
C2462 H2457 0.949 . S
C2462 C2468 1.368 . S
C2463 C2447 1.349 . S
C2463 H2455 0.950 . S
C2463 C2461 1.327 . S
C2464 C2452 1.349 . S
C2464 H2458 0.950 . S
C2464 C2465 1.327 . S
C2465 H2459 0.950 . S
C2465 C2464 1.327 . S
C2465 C2469 1.429 . S
C2466 C2449 1.574 . S
C2466 H2460 0.949 . S
C2466 C2470 1.368 . S
C2467 C2448 1.429 . S
C2467 C2461 1.429 . S
C2467 C2468 1.523 . S
C2468 C2449 1.368 . S
C2468 C2462 1.368 . S
C2468 C2467 1.523 . S
C2469 C2453 1.429 . S
C2469 C2465 1.429 . S
C2469 C2470 1.523 . S
C2470 C2454 1.368 . S
C2470 C2466 1.368 . S
C2470 C2469 1.523 . S
H2471 C2446 0.950 . S
H2472 C2448 0.950 . S
H2473 C2449 0.949 . S
H2474 C2451 0.950 . S
H2475 C2453 0.950 . S
C2476 C2477 1.349 . S
C2476 C2478 1.327 . S
C2476 H2501 0.950 . S
C2477 C2476 1.349 . S
C2477 C2493 1.349 . S
C2478 C2476 1.327 . S
C2478 C2497 1.429 . S
C2478 H2502 0.950 . S
C2479 C2496 1.574 . S
C2479 C2498 1.368 . S
C2479 H2503 0.985 . S
H2480 C2484 0.984 . S
C2481 C2482 1.349 1_556 S
C2481 C2483 1.327 . S
C2481 H2504 0.950 . S
C2482 C2481 1.349 1_554 S
C2482 C2494 1.349 . S
C2483 C2481 1.327 . S
C2483 C2499 1.429 . S
C2483 H2505 0.950 . S
C2484 H2480 0.984 . S
C2484 C2492 1.574 . S
C2484 C2500 1.368 . S
H2485 C2493 0.950 1_655 S
H2486 C2491 0.950 1_655 S
H2487 C2492 0.949 . S
H2488 C2494 0.950 . S
H2489 C2495 0.950 . S
H2490 C2496 0.949 . S
C2491 H2486 0.950 1_455 S
C2491 C2493 1.327 . S
C2491 C2497 1.429 . S
C2492 C2484 1.574 . S
C2492 H2487 0.949 . S
C2492 C2498 1.368 . S
C2493 C2477 1.349 . S
C2493 H2485 0.950 1_455 S
C2493 C2491 1.327 . S
C2494 C2482 1.349 . S
C2494 H2488 0.950 . S
C2494 C2495 1.327 . S
C2495 H2489 0.950 . S
C2495 C2494 1.327 . S
C2495 C2499 1.429 1_554 S
C2496 C2479 1.574 . S
C2496 H2490 0.949 . S
C2496 C2500 1.368 . S
C2497 C2478 1.429 . S
C2497 C2491 1.429 . S
C2497 C2498 1.523 . S
C2498 C2479 1.368 . S
C2498 C2492 1.368 . S
C2498 C2497 1.523 . S
C2499 C2483 1.429 . S
C2499 C2495 1.429 1_556 S
C2499 C2500 1.523 . S
C2500 C2484 1.368 . S
C2500 C2496 1.368 . S
C2500 C2499 1.523 . S
H2501 C2476 0.950 . S
H2502 C2478 0.950 . S
H2503 C2479 0.985 . S
H2504 C2481 0.950 . S
H2505 C2483 0.950 . S
C2506 C2507 1.349 . S
C2506 C2508 1.327 1_455 S
C2506 H2531 0.950 . S
C2507 C2506 1.349 . S
C2507 C2523 1.349 . S
C2508 C2506 1.327 1_655 S
C2508 C2527 1.429 . S
C2508 H2532 0.950 . S
C2509 C2526 1.574 . S
C2509 C2528 1.368 . S
C2509 H2533 0.949 . S
H2510 C2514 0.949 . S
C2511 C2512 1.349 . S
C2511 C2513 1.327 . S
C2511 H2534 0.950 . S
C2512 C2511 1.349 . S
C2512 C2524 1.349 . S
C2513 C2511 1.327 . S
C2513 C2529 1.429 . S
C2513 H2535 0.950 . S
C2514 H2510 0.949 . S
C2514 C2522 1.574 . S
C2514 C2530 1.368 . S
H2515 C2523 0.950 . S
H2516 C2521 0.950 . S
H2517 C2522 0.949 . S
H2518 C2524 0.950 . S
H2519 C2525 0.950 . S
H2520 C2526 0.949 . S
C2521 H2516 0.950 . S
C2521 C2523 1.327 1_655 S
C2521 C2527 1.429 . S
C2522 C2514 1.574 . S
C2522 H2517 0.949 . S
C2522 C2528 1.368 . S
C2523 C2507 1.349 . S
C2523 H2515 0.950 . S
C2523 C2521 1.327 1_455 S
C2524 C2512 1.349 . S
C2524 H2518 0.950 . S
C2524 C2525 1.327 . S
C2525 H2519 0.950 . S
C2525 C2524 1.327 . S
C2525 C2529 1.429 . S
C2526 C2509 1.574 . S
C2526 H2520 0.949 . S
C2526 C2530 1.368 . S
C2527 C2508 1.429 . S
C2527 C2521 1.429 . S
C2527 C2528 1.523 . S
C2528 C2509 1.368 . S
C2528 C2522 1.368 . S
C2528 C2527 1.523 . S
C2529 C2513 1.429 . S
C2529 C2525 1.429 . S
C2529 C2530 1.523 . S
C2530 C2514 1.368 . S
C2530 C2526 1.368 . S
C2530 C2529 1.523 . S
H2531 C2506 0.950 . S
H2532 C2508 0.950 . S
H2533 C2509 0.949 . S
H2534 C2511 0.950 . S
H2535 C2513 0.950 . S
C2536 C2537 1.349 . S
C2536 C2538 1.327 . S
C2536 H2561 0.950 . S
C2537 C2536 1.349 . S
C2537 C2553 1.349 . S
C2538 C2536 1.327 . S
C2538 C2557 1.429 . S
C2538 H2562 0.950 . S
C2539 C2556 1.574 . S
C2539 C2558 1.368 . S
C2539 H2563 0.949 . S
H2540 C2544 0.949 . S
C2541 C2542 1.349 . S
C2541 C2543 1.327 . S
C2541 H2564 0.950 . S
C2542 C2541 1.349 . S
C2542 C2554 1.349 . S
C2543 C2541 1.327 . S
C2543 C2559 1.429 . S
C2543 H2565 0.950 . S
C2544 H2540 0.949 . S
C2544 C2552 1.574 . S
C2544 C2560 1.368 . S
H2545 C2553 0.950 . S
H2546 C2551 0.950 . S
H2547 C2552 0.949 . S
H2548 C2554 0.950 . S
H2549 C2555 0.950 . S
H2550 C2556 0.949 . S
C2551 H2546 0.950 . S
C2551 C2553 1.327 . S
C2551 C2557 1.429 . S
C2552 C2544 1.574 . S
C2552 H2547 0.949 . S
C2552 C2558 1.368 . S
C2553 C2537 1.349 . S
C2553 H2545 0.950 . S
C2553 C2551 1.327 . S
C2554 C2542 1.349 . S
C2554 H2548 0.950 . S
C2554 C2555 1.327 . S
C2555 H2549 0.950 . S
C2555 C2554 1.327 . S
C2555 C2559 1.429 . S
C2556 C2539 1.574 . S
C2556 H2550 0.949 . S
C2556 C2560 1.368 . S
C2557 C2538 1.429 . S
C2557 C2551 1.429 . S
C2557 C2558 1.523 . S
C2558 C2539 1.368 . S
C2558 C2552 1.368 . S
C2558 C2557 1.523 . S
C2559 C2543 1.429 . S
C2559 C2555 1.429 . S
C2559 C2560 1.523 . S
C2560 C2544 1.368 . S
C2560 C2556 1.368 . S
C2560 C2559 1.523 . S
H2561 C2536 0.950 . S
H2562 C2538 0.950 . S
H2563 C2539 0.949 . S
H2564 C2541 0.950 . S
H2565 C2543 0.950 . S
C2566 C2567 1.349 . S
C2566 C2568 1.327 . S
C2566 H2591 0.950 . S
C2567 C2566 1.349 . S
C2567 C2583 1.349 . S
C2568 C2566 1.327 . S
C2568 C2587 1.429 . S
C2568 H2592 0.950 . S
C2569 C2586 1.574 . S
C2569 C2588 1.368 . S
C2569 H2593 0.949 1_655 S
H2570 C2574 0.949 . S
C2571 C2572 1.349 . S
C2571 C2573 1.327 . S
C2571 H2594 0.950 . S
C2572 C2571 1.349 . S
C2572 C2584 1.349 . S
C2573 C2571 1.327 . S
C2573 C2589 1.429 . S
C2573 H2595 0.950 . S
C2574 H2570 0.949 . S
C2574 C2582 1.574 . S
C2574 C2590 1.368 . S
H2575 C2583 0.950 . S
H2576 C2581 0.950 . S
H2577 C2582 0.949 . S
H2578 C2584 0.950 . S
H2579 C2585 0.950 . S
H2580 C2586 0.949 . S
C2581 H2576 0.950 . S
C2581 C2583 1.327 . S
C2581 C2587 1.429 . S
C2582 C2574 1.574 . S
C2582 H2577 0.949 . S
C2582 C2588 1.368 . S
C2583 C2567 1.349 . S
C2583 H2575 0.950 . S
C2583 C2581 1.327 . S
C2584 C2572 1.349 . S
C2584 H2578 0.950 . S
C2584 C2585 1.327 . S
C2585 H2579 0.950 . S
C2585 C2584 1.327 . S
C2585 C2589 1.429 . S
C2586 C2569 1.574 . S
C2586 H2580 0.949 . S
C2586 C2590 1.368 . S
C2587 C2568 1.429 . S
C2587 C2581 1.429 . S
C2587 C2588 1.523 1_455 S
C2588 C2569 1.368 . S
C2588 C2582 1.368 . S
C2588 C2587 1.523 1_655 S
C2589 C2573 1.429 . S
C2589 C2585 1.429 . S
C2589 C2590 1.523 . S
C2590 C2574 1.368 . S
C2590 C2586 1.368 . S
C2590 C2589 1.523 . S
H2591 C2566 0.950 . S
H2592 C2568 0.950 . S
H2593 C2569 0.949 1_455 S
H2594 C2571 0.950 . S
H2595 C2573 0.950 . S
C2596 C2597 1.349 . S
C2596 C2598 1.327 . S
C2596 H2621 0.950 . S
C2597 C2596 1.349 . S
C2597 C2613 1.349 1_655 S
C2598 C2596 1.327 . S
C2598 C2617 1.407 1_655 S
C2598 H2622 0.950 . S
C2599 C2616 1.574 . S
C2599 C2618 1.368 . S
C2599 H2623 0.949 . S
H2600 C2604 0.949 . S
C2601 C2602 1.349 . S
C2601 C2603 1.327 . S
C2601 H2624 0.950 . S
C2602 C2601 1.349 . S
C2602 C2614 1.349 . S
C2603 C2601 1.327 . S
C2603 C2619 1.429 . S
C2603 H2625 0.950 . S
C2604 H2600 0.949 . S
C2604 C2612 1.574 . S
C2604 C2620 1.368 1_655 S
H2605 C2613 0.950 . S
H2606 C2611 0.950 . S
H2607 C2612 0.949 . S
H2608 C2614 0.967 . S
H2609 C2615 0.950 1_655 S
H2610 C2616 0.949 . S
C2611 H2606 0.950 . S
C2611 C2613 1.327 . S
C2611 C2617 1.438 . S
C2612 C2604 1.574 . S
C2612 H2607 0.949 . S
C2612 C2618 1.368 1_655 S
C2613 C2597 1.349 1_455 S
C2613 H2605 0.950 . S
C2613 C2611 1.327 . S
C2614 C2602 1.349 . S
C2614 H2608 0.967 . S
C2614 C2615 1.327 . S
C2615 H2609 0.950 1_455 S
C2615 C2614 1.327 . S
C2615 C2619 1.429 . S
C2616 C2599 1.574 . S
C2616 H2610 0.949 . S
C2616 C2620 1.368 . S
C2617 C2598 1.407 1_455 S
C2617 C2611 1.438 . S
C2617 C2618 1.535 . S
C2618 C2599 1.368 . S
C2618 C2612 1.368 1_455 S
C2618 C2617 1.535 . S
C2619 C2603 1.429 . S
C2619 C2615 1.429 . S
C2619 C2620 1.523 . S
C2620 C2604 1.368 1_455 S
C2620 C2616 1.368 . S
C2620 C2619 1.523 . S
H2621 C2596 0.950 . S
H2622 C2598 0.950 . S
H2623 C2599 0.949 . S
H2624 C2601 0.950 . S
H2625 C2603 0.950 . S
C2626 C2627 1.349 . S
C2626 C2628 1.327 . S
C2626 H2651 0.950 . S
C2627 C2626 1.349 . S
C2627 C2643 1.349 . S
C2628 C2626 1.327 . S
C2628 C2647 1.429 . S
C2628 H2652 0.950 . S
C2629 C2646 1.574 . S
C2629 C2648 1.368 . S
C2629 H2653 0.949 . S
H2630 C2634 0.949 . S
C2631 C2632 1.349 . S
C2631 C2633 1.327 . S
C2631 H2654 0.950 . S
C2632 C2631 1.349 . S
C2632 C2644 1.349 . S
C2633 C2631 1.327 . S
C2633 C2649 1.429 . S
C2633 H2655 0.950 . S
C2634 H2630 0.949 . S
C2634 C2642 1.574 . S
C2634 C2650 1.368 . S
H2635 C2643 0.950 . S
H2636 C2641 0.950 . S
H2637 C2642 0.949 . S
H2638 C2644 0.950 . S
H2639 C2645 0.950 . S
H2640 C2646 0.949 . S
C2641 H2636 0.950 . S
C2641 C2643 1.327 . S
C2641 C2647 1.429 . S
C2642 C2634 1.574 . S
C2642 H2637 0.949 . S
C2642 C2648 1.368 . S
C2643 C2627 1.349 . S
C2643 H2635 0.950 . S
C2643 C2641 1.327 . S
C2644 C2632 1.349 . S
C2644 H2638 0.950 . S
C2644 C2645 1.327 . S
C2645 H2639 0.950 . S
C2645 C2644 1.327 . S
C2645 C2649 1.429 . S
C2646 C2629 1.574 . S
C2646 H2640 0.949 . S
C2646 C2650 1.368 . S
C2647 C2628 1.429 . S
C2647 C2641 1.429 . S
C2647 C2648 1.523 . S
C2648 C2629 1.368 . S
C2648 C2642 1.368 . S
C2648 C2647 1.523 . S
C2649 C2633 1.429 . S
C2649 C2645 1.429 . S
C2649 C2650 1.523 . S
C2650 C2634 1.368 . S
C2650 C2646 1.368 . S
C2650 C2649 1.523 . S
H2651 C2626 0.950 . S
H2652 C2628 0.950 . S
H2653 C2629 0.949 . S
H2654 C2631 0.950 . S
H2655 C2633 0.950 . S
C2656 C2657 1.349 . S
C2656 C2658 1.327 . S
C2656 H2681 0.950 . S
C2657 C2656 1.349 . S
C2657 C2673 1.349 . S
C2658 C2656 1.327 . S
C2658 C2677 1.429 . S
C2658 H2682 0.950 . S
C2659 C2676 1.574 . S
C2659 C2678 1.368 . S
C2659 H2683 0.949 . S
H2660 C2664 0.949 . S
C2661 C2662 1.349 . S
C2661 C2663 1.327 . S
C2661 H2684 0.950 . S
C2662 C2661 1.349 . S
C2662 C2674 1.349 . S
C2663 C2661 1.327 . S
C2663 C2679 1.429 . S
C2663 H2685 0.950 . S
C2664 H2660 0.949 . S
C2664 C2672 1.574 . S
C2664 C2680 1.368 . S
H2665 C2673 0.950 . S
H2666 C2671 0.950 . S
H2667 C2672 0.949 . S
H2668 C2674 0.950 . S
H2669 C2675 0.950 . S
H2670 C2676 0.949 . S
C2671 H2666 0.950 . S
C2671 C2673 1.327 . S
C2671 C2677 1.429 . S
C2672 C2664 1.574 . S
C2672 H2667 0.949 . S
C2672 C2678 1.368 . S
C2673 C2657 1.349 . S
C2673 H2665 0.950 . S
C2673 C2671 1.327 . S
C2674 C2662 1.349 . S
C2674 H2668 0.950 . S
C2674 C2675 1.327 . S
C2675 H2669 0.950 . S
C2675 C2674 1.327 . S
C2675 C2679 1.429 . S
C2676 C2659 1.574 . S
C2676 H2670 0.949 . S
C2676 C2680 1.368 . S
C2677 C2658 1.429 . S
C2677 C2671 1.429 . S
C2677 C2678 1.523 . S
C2678 C2659 1.368 . S
C2678 C2672 1.368 . S
C2678 C2677 1.523 . S
C2679 C2663 1.429 . S
C2679 C2675 1.429 . S
C2679 C2680 1.523 . S
C2680 C2664 1.368 . S
C2680 C2676 1.368 . S
C2680 C2679 1.523 . S
H2681 C2656 0.950 . S
H2682 C2658 0.950 . S
H2683 C2659 0.949 . S
H2684 C2661 0.950 . S
H2685 C2663 0.950 . S
C2686 C2687 1.349 . S
C2686 C2688 1.327 . S
C2686 H2711 0.950 . S
C2687 C2686 1.349 . S
C2687 C2703 1.349 . S
C2688 C2686 1.327 . S
C2688 C2707 1.429 . S
C2688 H2712 0.950 . S
C2689 C2706 1.574 . S
C2689 C2708 1.368 . S
C2689 H2713 0.949 . S
H2690 C2694 0.949 . S
C2691 C2692 1.349 . S
C2691 C2693 1.327 . S
C2691 H2714 0.950 . S
C2692 C2691 1.349 . S
C2692 C2704 1.349 . S
C2693 C2691 1.327 . S
C2693 C2709 1.429 . S
C2693 H2715 0.950 . S
C2694 H2690 0.949 . S
C2694 C2702 1.574 . S
C2694 C2710 1.368 . S
H2695 C2703 0.950 . S
H2696 C2701 0.950 . S
H2697 C2702 0.949 . S
H2698 C2704 0.950 . S
H2699 C2705 0.950 . S
H2700 C2706 0.949 . S
C2701 H2696 0.950 . S
C2701 C2703 1.327 . S
C2701 C2707 1.429 . S
C2702 C2694 1.574 . S
C2702 H2697 0.949 . S
C2702 C2708 1.368 . S
C2703 C2687 1.349 . S
C2703 H2695 0.950 . S
C2703 C2701 1.327 . S
C2704 C2692 1.349 . S
C2704 H2698 0.950 . S
C2704 C2705 1.327 . S
C2705 H2699 0.950 . S
C2705 C2704 1.327 . S
C2705 C2709 1.429 . S
C2706 C2689 1.574 . S
C2706 H2700 0.949 . S
C2706 C2710 1.368 . S
C2707 C2688 1.429 . S
C2707 C2701 1.429 . S
C2707 C2708 1.523 . S
C2708 C2689 1.368 . S
C2708 C2702 1.368 . S
C2708 C2707 1.523 . S
C2709 C2693 1.429 . S
C2709 C2705 1.429 . S
C2709 C2710 1.523 . S
C2710 C2694 1.368 . S
C2710 C2706 1.368 . S
C2710 C2709 1.523 . S
H2711 C2686 0.950 . S
H2712 C2688 0.950 . S
H2713 C2689 0.949 . S
H2714 C2691 0.950 . S
H2715 C2693 0.950 . S
C2716 C2717 1.349 . S
C2716 C2718 1.327 . S
C2716 H2741 0.950 . S
C2717 C2716 1.349 . S
C2717 C2733 1.349 . S
C2718 C2716 1.327 . S
C2718 C2737 1.429 . S
C2718 H2742 0.950 . S
C2719 C2736 1.574 . S
C2719 C2738 1.368 . S
C2719 H2743 0.949 . S
H2720 C2724 0.949 . S
C2721 C2722 1.349 . S
C2721 C2723 1.327 . S
C2721 H2744 0.950 . S
C2722 C2721 1.349 . S
C2722 C2734 1.349 . S
C2723 C2721 1.327 . S
C2723 C2739 1.429 . S
C2723 H2745 0.950 . S
C2724 H2720 0.949 . S
C2724 C2732 1.574 . S
C2724 C2740 1.368 . S
H2725 C2733 0.950 . S
H2726 C2731 0.950 . S
H2727 C2732 0.949 . S
H2728 C2734 0.950 . S
H2729 C2735 0.950 . S
H2730 C2736 0.949 . S
C2731 H2726 0.950 . S
C2731 C2733 1.327 . S
C2731 C2737 1.429 . S
C2732 C2724 1.574 . S
C2732 H2727 0.949 . S
C2732 C2738 1.368 . S
C2733 C2717 1.349 . S
C2733 H2725 0.950 . S
C2733 C2731 1.327 . S
C2734 C2722 1.349 . S
C2734 H2728 0.950 . S
C2734 C2735 1.327 . S
C2735 H2729 0.950 . S
C2735 C2734 1.327 . S
C2735 C2739 1.429 . S
C2736 C2719 1.574 . S
C2736 H2730 0.949 . S
C2736 C2740 1.368 . S
C2737 C2718 1.429 . S
C2737 C2731 1.429 . S
C2737 C2738 1.523 . S
C2738 C2719 1.368 . S
C2738 C2732 1.368 . S
C2738 C2737 1.523 . S
C2739 C2723 1.429 . S
C2739 C2735 1.429 . S
C2739 C2740 1.523 . S
C2740 C2724 1.368 . S
C2740 C2736 1.368 . S
C2740 C2739 1.523 . S
H2741 C2716 0.950 . S
H2742 C2718 0.950 . S
H2743 C2719 0.949 . S
H2744 C2721 0.950 . S
H2745 C2723 0.950 . S
C2746 C2747 1.349 . S
C2746 C2748 1.327 . S
C2746 H2771 0.950 . S
C2747 C2746 1.349 . S
C2747 C2763 1.349 . S
C2748 C2746 1.327 . S
C2748 C2767 1.429 . S
C2748 H2772 0.950 . S
C2749 C2766 1.574 . S
C2749 C2768 1.368 . S
C2749 H2773 0.949 . S
H2750 C2754 0.949 . S
C2751 C2752 1.349 . S
C2751 C2753 1.327 . S
C2751 H2774 0.950 . S
C2752 C2751 1.349 . S
C2752 C2764 1.349 . S
C2753 C2751 1.327 . S
C2753 C2769 1.429 . S
C2753 H2775 0.950 . S
C2754 H2750 0.949 . S
C2754 C2762 1.574 . S
C2754 C2770 1.368 . S
H2755 C2763 0.950 . S
H2756 C2761 0.950 . S
H2757 C2762 0.949 . S
H2758 C2764 0.950 . S
H2759 C2765 0.950 . S
H2760 C2766 0.949 . S
C2761 H2756 0.950 . S
C2761 C2763 1.327 . S
C2761 C2767 1.429 . S
C2762 C2754 1.574 . S
C2762 H2757 0.949 . S
C2762 C2768 1.368 . S
C2763 C2747 1.349 . S
C2763 H2755 0.950 . S
C2763 C2761 1.327 . S
C2764 C2752 1.349 . S
C2764 H2758 0.950 . S
C2764 C2765 1.327 . S
C2765 H2759 0.950 . S
C2765 C2764 1.327 . S
C2765 C2769 1.429 . S
C2766 C2749 1.574 . S
C2766 H2760 0.949 . S
C2766 C2770 1.368 . S
C2767 C2748 1.429 . S
C2767 C2761 1.429 . S
C2767 C2768 1.523 . S
C2768 C2749 1.368 . S
C2768 C2762 1.368 . S
C2768 C2767 1.523 . S
C2769 C2753 1.429 . S
C2769 C2765 1.429 . S
C2769 C2770 1.523 . S
C2770 C2754 1.368 . S
C2770 C2766 1.368 . S
C2770 C2769 1.523 . S
H2771 C2746 0.950 . S
H2772 C2748 0.950 . S
H2773 C2749 0.949 . S
H2774 C2751 0.950 . S
H2775 C2753 0.950 . S
C2776 C2777 1.349 . S
C2776 C2778 1.327 . S
C2776 H2801 0.950 . S
C2777 C2776 1.349 . S
C2777 C2793 1.349 . S
C2778 C2776 1.327 . S
C2778 C2797 1.429 . S
C2778 H2802 0.950 . S
C2779 C2796 1.574 . S
C2779 C2798 1.368 . S
C2779 H2803 0.949 . S
H2780 C2784 0.949 . S
C2781 C2782 1.349 . S
C2781 C2783 1.327 . S
C2781 H2804 0.950 . S
C2782 C2781 1.349 . S
C2782 C2794 1.349 . S
C2783 C2781 1.327 . S
C2783 C2799 1.429 . S
C2783 H2805 0.950 . S
C2784 H2780 0.949 . S
C2784 C2792 1.574 . S
C2784 C2800 1.368 . S
H2785 C2793 0.950 . S
H2786 C2791 0.950 . S
H2787 C2792 0.949 . S
H2788 C2794 0.950 . S
H2789 C2795 0.950 . S
H2790 C2796 0.949 . S
C2791 H2786 0.950 . S
C2791 C2793 1.327 . S
C2791 C2797 1.429 . S
C2792 C2784 1.574 . S
C2792 H2787 0.949 . S
C2792 C2798 1.368 . S
C2793 C2777 1.349 . S
C2793 H2785 0.950 . S
C2793 C2791 1.327 . S
C2794 C2782 1.349 . S
C2794 H2788 0.950 . S
C2794 C2795 1.327 . S
C2795 H2789 0.950 . S
C2795 C2794 1.327 . S
C2795 C2799 1.429 . S
C2796 C2779 1.574 . S
C2796 H2790 0.949 . S
C2796 C2800 1.368 . S
C2797 C2778 1.429 . S
C2797 C2791 1.429 . S
C2797 C2798 1.523 . S
C2798 C2779 1.368 . S
C2798 C2792 1.368 . S
C2798 C2797 1.523 . S
C2799 C2783 1.429 . S
C2799 C2795 1.429 . S
C2799 C2800 1.523 . S
C2800 C2784 1.368 . S
C2800 C2796 1.368 . S
C2800 C2799 1.523 . S
H2801 C2776 0.950 . S
H2802 C2778 0.950 . S
H2803 C2779 0.949 . S
H2804 C2781 0.950 . S
H2805 C2783 0.950 . S
C2806 C2807 1.349 . S
C2806 C2808 1.327 . S
C2806 H2831 0.950 . S
C2807 C2806 1.349 . S
C2807 C2823 1.349 . S
C2808 C2806 1.327 . S
C2808 C2827 1.429 . S
C2808 H2832 0.950 . S
C2809 C2826 1.574 . S
C2809 C2828 1.368 . S
C2809 H2833 0.949 . S
H2810 C2814 0.949 . S
C2811 C2812 1.349 . S
C2811 C2813 1.327 . S
C2811 H2834 0.950 . S
C2812 C2811 1.349 . S
C2812 C2824 1.349 . S
C2813 C2811 1.327 . S
C2813 C2829 1.429 . S
C2813 H2835 0.950 . S
C2814 H2810 0.949 . S
C2814 C2822 1.574 . S
C2814 C2830 1.368 . S
H2815 C2823 0.950 . S
H2816 C2821 0.950 . S
H2817 C2822 0.949 . S
H2818 C2824 0.950 . S
H2819 C2825 0.950 . S
H2820 C2826 0.949 . S
C2821 H2816 0.950 . S
C2821 C2823 1.327 . S
C2821 C2827 1.429 . S
C2822 C2814 1.574 . S
C2822 H2817 0.949 . S
C2822 C2828 1.368 . S
C2823 C2807 1.349 . S
C2823 H2815 0.950 . S
C2823 C2821 1.327 . S
C2824 C2812 1.349 . S
C2824 H2818 0.950 . S
C2824 C2825 1.327 . S
C2825 H2819 0.950 . S
C2825 C2824 1.327 . S
C2825 C2829 1.429 . S
C2826 C2809 1.574 . S
C2826 H2820 0.949 . S
C2826 C2830 1.368 . S
C2827 C2808 1.429 . S
C2827 C2821 1.429 . S
C2827 C2828 1.523 . S
C2828 C2809 1.368 . S
C2828 C2822 1.368 . S
C2828 C2827 1.523 . S
C2829 C2813 1.429 . S
C2829 C2825 1.429 . S
C2829 C2830 1.523 . S
C2830 C2814 1.368 . S
C2830 C2826 1.368 . S
C2830 C2829 1.523 . S
H2831 C2806 0.950 . S
H2832 C2808 0.950 . S
H2833 C2809 0.949 . S
H2834 C2811 0.950 . S
H2835 C2813 0.950 . S
C2836 C2837 1.349 . S
C2836 C2838 1.327 . S
C2836 H2861 0.950 . S
C2837 C2836 1.349 . S
C2837 C2853 1.349 . S
C2838 C2836 1.327 . S
C2838 C2857 1.429 . S
C2838 H2862 0.950 . S
C2839 C2856 1.574 . S
C2839 C2858 1.368 . S
C2839 H2863 0.949 . S
H2840 C2844 0.949 . S
C2841 C2842 1.349 . S
C2841 C2843 1.327 . S
C2841 H2864 0.950 . S
C2842 C2841 1.349 . S
C2842 C2854 1.349 . S
C2843 C2841 1.327 . S
C2843 C2859 1.429 . S
C2843 H2865 0.950 . S
C2844 H2840 0.949 . S
C2844 C2852 1.574 . S
C2844 C2860 1.368 . S
H2845 C2853 0.950 . S
H2846 C2851 0.950 . S
H2847 C2852 0.949 . S
H2848 C2854 0.950 . S
H2849 C2855 0.950 . S
H2850 C2856 0.949 . S
C2851 H2846 0.950 . S
C2851 C2853 1.327 . S
C2851 C2857 1.429 . S
C2852 C2844 1.574 . S
C2852 H2847 0.949 . S
C2852 C2858 1.368 . S
C2853 C2837 1.349 . S
C2853 H2845 0.950 . S
C2853 C2851 1.327 . S
C2854 C2842 1.349 . S
C2854 H2848 0.950 . S
C2854 C2855 1.327 . S
C2855 H2849 0.950 . S
C2855 C2854 1.327 . S
C2855 C2859 1.429 . S
C2856 C2839 1.574 . S
C2856 H2850 0.949 . S
C2856 C2860 1.368 . S
C2857 C2838 1.429 . S
C2857 C2851 1.429 . S
C2857 C2858 1.523 . S
C2858 C2839 1.368 . S
C2858 C2852 1.368 . S
C2858 C2857 1.523 . S
C2859 C2843 1.429 . S
C2859 C2855 1.429 . S
C2859 C2860 1.523 . S
C2860 C2844 1.368 . S
C2860 C2856 1.368 . S
C2860 C2859 1.523 . S
H2861 C2836 0.950 . S
H2862 C2838 0.950 . S
H2863 C2839 0.949 . S
H2864 C2841 0.950 . S
H2865 C2843 0.950 . S
C2866 C2867 1.349 . S
C2866 C2868 1.327 . S
C2866 H2891 0.950 . S
C2867 C2866 1.349 . S
C2867 C2883 1.349 . S
C2868 C2866 1.327 . S
C2868 C2887 1.429 . S
C2868 H2892 0.950 . S
C2869 C2886 1.574 . S
C2869 C2888 1.368 . S
C2869 H2893 0.949 . S
H2870 C2874 0.949 . S
C2871 C2872 1.349 . S
C2871 C2873 1.327 . S
C2871 H2894 0.950 . S
C2872 C2871 1.349 . S
C2872 C2884 1.349 . S
C2873 C2871 1.327 . S
C2873 C2889 1.429 . S
C2873 H2895 0.950 . S
C2874 H2870 0.949 . S
C2874 C2882 1.574 . S
C2874 C2890 1.368 . S
H2875 C2883 0.950 . S
H2876 C2881 0.950 . S
H2877 C2882 0.949 . S
H2878 C2884 0.950 . S
H2879 C2885 0.950 . S
H2880 C2886 0.949 . S
C2881 H2876 0.950 . S
C2881 C2883 1.327 . S
C2881 C2887 1.429 . S
C2882 C2874 1.574 . S
C2882 H2877 0.949 . S
C2882 C2888 1.368 . S
C2883 C2867 1.349 . S
C2883 H2875 0.950 . S
C2883 C2881 1.327 . S
C2884 C2872 1.349 . S
C2884 H2878 0.950 . S
C2884 C2885 1.327 . S
C2885 H2879 0.950 . S
C2885 C2884 1.327 . S
C2885 C2889 1.429 . S
C2886 C2869 1.574 . S
C2886 H2880 0.949 . S
C2886 C2890 1.368 . S
C2887 C2868 1.429 . S
C2887 C2881 1.429 . S
C2887 C2888 1.523 . S
C2888 C2869 1.368 . S
C2888 C2882 1.368 . S
C2888 C2887 1.523 . S
C2889 C2873 1.429 . S
C2889 C2885 1.429 . S
C2889 C2890 1.523 . S
C2890 C2874 1.368 . S
C2890 C2886 1.368 . S
C2890 C2889 1.523 . S
H2891 C2866 0.950 . S
H2892 C2868 0.950 . S
H2893 C2869 0.949 . S
H2894 C2871 0.950 . S
H2895 C2873 0.950 . S
C2896 C2897 1.349 . S
C2896 C2898 1.327 . S
C2896 H2921 0.950 . S
C2897 C2896 1.349 . S
C2897 C2913 1.349 . S
C2898 C2896 1.327 . S
C2898 C2917 1.429 . S
C2898 H2922 0.950 . S
C2899 C2916 1.574 . S
C2899 C2918 1.368 . S
C2899 H2923 0.949 . S
H2900 C2904 0.949 . S
C2901 C2902 1.349 . S
C2901 C2903 1.327 . S
C2901 H2924 0.950 . S
C2902 C2901 1.349 . S
C2902 C2914 1.349 . S
C2903 C2901 1.327 . S
C2903 C2919 1.429 . S
C2903 H2925 0.950 . S
C2904 H2900 0.949 . S
C2904 C2912 1.574 . S
C2904 C2920 1.368 . S
H2905 C2913 0.950 . S
H2906 C2911 0.950 . S
H2907 C2912 0.949 . S
H2908 C2914 0.950 . S
H2909 C2915 0.950 . S
H2910 C2916 0.949 . S
C2911 H2906 0.950 . S
C2911 C2913 1.327 . S
C2911 C2917 1.429 . S
C2912 C2904 1.574 . S
C2912 H2907 0.949 . S
C2912 C2918 1.368 . S
C2913 C2897 1.349 . S
C2913 H2905 0.950 . S
C2913 C2911 1.327 . S
C2914 C2902 1.349 . S
C2914 H2908 0.950 . S
C2914 C2915 1.327 . S
C2915 H2909 0.950 . S
C2915 C2914 1.327 . S
C2915 C2919 1.429 . S
C2916 C2899 1.574 . S
C2916 H2910 0.949 . S
C2916 C2920 1.368 . S
C2917 C2898 1.429 . S
C2917 C2911 1.429 . S
C2917 C2918 1.523 . S
C2918 C2899 1.368 . S
C2918 C2912 1.368 . S
C2918 C2917 1.523 . S
C2919 C2903 1.429 . S
C2919 C2915 1.429 . S
C2919 C2920 1.523 . S
C2920 C2904 1.368 . S
C2920 C2916 1.368 . S
C2920 C2919 1.523 . S
H2921 C2896 0.950 . S
H2922 C2898 0.950 . S
H2923 C2899 0.949 . S
H2924 C2901 0.950 . S
H2925 C2903 0.950 . S
C2926 C2927 1.349 . S
C2926 C2928 1.327 . S
C2926 H2951 0.950 . S
C2927 C2926 1.349 . S
C2927 C2943 1.349 . S
C2928 C2926 1.327 . S
C2928 C2947 1.429 . S
C2928 H2952 0.950 . S
C2929 C2946 1.574 . S
C2929 C2948 1.368 . S
C2929 H2953 0.949 . S
H2930 C2934 0.949 . S
C2931 C2932 1.349 . S
C2931 C2933 1.327 . S
C2931 H2954 0.950 . S
C2932 C2931 1.349 . S
C2932 C2944 1.349 . S
C2933 C2931 1.327 . S
C2933 C2949 1.429 . S
C2933 H2955 0.950 . S
C2934 H2930 0.949 . S
C2934 C2942 1.574 . S
C2934 C2950 1.368 . S
H2935 C2943 0.950 . S
H2936 C2941 0.950 . S
H2937 C2942 0.949 . S
H2938 C2944 0.950 . S
H2939 C2945 0.950 . S
H2940 C2946 0.949 . S
C2941 H2936 0.950 . S
C2941 C2943 1.327 . S
C2941 C2947 1.429 . S
C2942 C2934 1.574 . S
C2942 H2937 0.949 . S
C2942 C2948 1.368 . S
C2943 C2927 1.349 . S
C2943 H2935 0.950 . S
C2943 C2941 1.327 . S
C2944 C2932 1.349 . S
C2944 H2938 0.950 . S
C2944 C2945 1.327 . S
C2945 H2939 0.950 . S
C2945 C2944 1.327 . S
C2945 C2949 1.429 . S
C2946 C2929 1.574 . S
C2946 H2940 0.949 . S
C2946 C2950 1.368 . S
C2947 C2928 1.429 . S
C2947 C2941 1.429 . S
C2947 C2948 1.523 . S
C2948 C2929 1.368 . S
C2948 C2942 1.368 . S
C2948 C2947 1.523 . S
C2949 C2933 1.429 . S
C2949 C2945 1.429 . S
C2949 C2950 1.523 . S
C2950 C2934 1.368 . S
C2950 C2946 1.368 . S
C2950 C2949 1.523 . S
H2951 C2926 0.950 . S
H2952 C2928 0.950 . S
H2953 C2929 0.949 . S
H2954 C2931 0.950 . S
H2955 C2933 0.950 . S
C2956 C2957 1.349 . S
C2956 C2958 1.327 . S
C2956 H2981 0.950 . S
C2957 C2956 1.349 . S
C2957 C2973 1.349 . S
C2958 C2956 1.327 . S
C2958 C2977 1.429 . S
C2958 H2982 0.950 . S
C2959 C2976 1.574 . S
C2959 C2978 1.368 . S
C2959 H2983 0.949 . S
H2960 C2964 0.949 . S
C2961 C2962 1.349 . S
C2961 C2963 1.327 . S
C2961 H2984 0.950 . S
C2962 C2961 1.349 . S
C2962 C2974 1.349 . S
C2963 C2961 1.327 . S
C2963 C2979 1.429 . S
C2963 H2985 0.950 . S
C2964 H2960 0.949 . S
C2964 C2972 1.574 . S
C2964 C2980 1.368 . S
H2965 C2973 0.950 . S
H2966 C2971 0.950 . S
H2967 C2972 0.949 . S
H2968 C2974 0.950 . S
H2969 C2975 0.950 . S
H2970 C2976 0.949 . S
C2971 H2966 0.950 . S
C2971 C2973 1.327 . S
C2971 C2977 1.429 . S
C2972 C2964 1.574 . S
C2972 H2967 0.949 . S
C2972 C2978 1.368 . S
C2973 C2957 1.349 . S
C2973 H2965 0.950 . S
C2973 C2971 1.327 . S
C2974 C2962 1.349 . S
C2974 H2968 0.950 . S
C2974 C2975 1.327 . S
C2975 H2969 0.950 . S
C2975 C2974 1.327 . S
C2975 C2979 1.429 . S
C2976 C2959 1.574 . S
C2976 H2970 0.949 . S
C2976 C2980 1.368 . S
C2977 C2958 1.429 . S
C2977 C2971 1.429 . S
C2977 C2978 1.523 . S
C2978 C2959 1.368 . S
C2978 C2972 1.368 . S
C2978 C2977 1.523 . S
C2979 C2963 1.429 . S
C2979 C2975 1.429 . S
C2979 C2980 1.523 . S
C2980 C2964 1.368 . S
C2980 C2976 1.368 . S
C2980 C2979 1.523 . S
H2981 C2956 0.950 . S
H2982 C2958 0.950 . S
H2983 C2959 0.949 . S
H2984 C2961 0.950 . S
H2985 C2963 0.950 . S
C2986 C2987 1.390 . S
C2986 C2988 1.302 1_554 S
C2986 H3011 0.920 1_554 S
C2987 C2986 1.390 . S
C2987 C3003 1.349 . S
C2988 C2986 1.302 1_556 S
C2988 C3007 1.385 1_556 S
C2988 H3012 1.013 . S
C2989 C3006 1.574 . S
C2989 C3008 1.368 . S
C2989 H3013 0.949 . S
H2990 C2994 0.949 . S
C2991 C2992 1.349 . S
C2991 C2993 1.327 . S
C2991 H3014 0.950 . S
C2992 C2991 1.349 . S
C2992 C3004 1.349 1_554 S
C2993 C2991 1.327 . S
C2993 C3009 1.429 . S
C2993 H3015 0.950 . S
C2994 H2990 0.949 . S
C2994 C3002 1.574 . S
C2994 C3010 1.368 1_556 S
H2995 C3003 0.950 . S
H2996 C3001 0.950 . S
H2997 C3002 0.949 . S
H2998 C3004 0.950 . S
H2999 C3005 0.950 . S
H3000 C3006 0.949 . S
C3001 H2996 0.950 . S
C3001 C3003 1.327 . S
C3001 C3007 1.429 . S
C3002 C2994 1.574 . S
C3002 H2997 0.949 . S
C3002 C3008 1.368 1_556 S
C3003 C2987 1.349 . S
C3003 H2995 0.950 . S
C3003 C3001 1.327 . S
C3004 C2992 1.349 1_556 S
C3004 H2998 0.950 . S
C3004 C3005 1.327 . S
C3005 H2999 0.950 . S
C3005 C3004 1.327 . S
C3005 C3009 1.429 1_556 S
C3006 C2989 1.574 . S
C3006 H3000 0.949 . S
C3006 C3010 1.368 . S
C3007 C2988 1.385 1_554 S
C3007 C3001 1.429 . S
C3007 C3008 1.523 . S
C3008 C2989 1.368 . S
C3008 C3002 1.368 1_554 S
C3008 C3007 1.523 . S
C3009 C2993 1.429 . S
C3009 C3005 1.429 1_554 S
C3009 C3010 1.523 1_545 S
C3010 C2994 1.368 1_554 S
C3010 C3006 1.368 . S
C3010 C3009 1.523 1_565 S
H3011 C2986 0.920 1_556 S
H3012 C2988 1.013 . S
H3013 C2989 0.949 . S
H3014 C2991 0.950 . S
H3015 C2993 0.950 . S
C3016 C3017 1.349 . S
C3016 C3018 1.327 . S
C3016 H3041 0.950 . S
C3017 C3016 1.349 . S
C3017 C3033 1.349 . S
C3018 C3016 1.327 . S
C3018 C3037 1.429 . S
C3018 H3042 0.950 . S
C3019 C3036 1.574 . S
C3019 C3038 1.368 . S
C3019 H3043 0.949 . S
H3020 C3024 0.949 . S
C3021 C3022 1.349 . S
C3021 C3023 1.327 . S
C3021 H3044 0.950 . S
C3022 C3021 1.349 . S
C3022 C3034 1.349 . S
C3023 C3021 1.327 . S
C3023 C3039 1.429 . S
C3023 H3045 0.950 . S
C3024 H3020 0.949 . S
C3024 C3032 1.574 . S
C3024 C3040 1.368 . S
H3025 C3033 0.950 . S
H3026 C3031 0.950 . S
H3027 C3032 0.949 . S
H3028 C3034 0.950 . S
H3029 C3035 0.950 . S
H3030 C3036 0.949 . S
C3031 H3026 0.950 . S
C3031 C3033 1.327 . S
C3031 C3037 1.429 . S
C3032 C3024 1.574 . S
C3032 H3027 0.949 . S
C3032 C3038 1.368 . S
C3033 C3017 1.349 . S
C3033 H3025 0.950 . S
C3033 C3031 1.327 . S
C3034 C3022 1.349 . S
C3034 H3028 0.950 . S
C3034 C3035 1.327 . S
C3035 H3029 0.950 . S
C3035 C3034 1.327 . S
C3035 C3039 1.429 . S
C3036 C3019 1.574 . S
C3036 H3030 0.949 . S
C3036 C3040 1.368 . S
C3037 C3018 1.429 . S
C3037 C3031 1.429 . S
C3037 C3038 1.523 . S
C3038 C3019 1.368 . S
C3038 C3032 1.368 . S
C3038 C3037 1.523 . S
C3039 C3023 1.429 . S
C3039 C3035 1.429 . S
C3039 C3040 1.523 . S
C3040 C3024 1.368 . S
C3040 C3036 1.368 . S
C3040 C3039 1.523 . S
H3041 C3016 0.950 . S
H3042 C3018 0.950 . S
H3043 C3019 0.949 . S
H3044 C3021 0.950 . S
H3045 C3023 0.950 . S
C3046 C3047 1.349 . S
C3046 C3048 1.327 . S
C3046 H3071 0.950 . S
C3047 C3046 1.349 . S
C3047 C3063 1.349 1_554 S
C3048 C3046 1.327 . S
C3048 C3067 1.429 . S
C3048 H3072 0.950 . S
C3049 C3066 1.574 . S
C3049 C3068 1.368 . S
C3049 H3073 0.949 1_554 S
H3050 C3054 0.949 . S
C3051 C3052 1.349 . S
C3051 C3053 1.327 . S
C3051 H3074 0.950 . S
C3052 C3051 1.349 . S
C3052 C3064 1.349 . S
C3053 C3051 1.327 . S
C3053 C3069 1.429 . S
C3053 H3075 0.950 . S
C3054 H3050 0.949 . S
C3054 C3062 1.574 . S
C3054 C3070 1.368 . S
H3055 C3063 0.950 . S
H3056 C3061 0.950 . S
H3057 C3062 0.949 . S
H3058 C3064 0.950 . S
H3059 C3065 0.950 . S
H3060 C3066 0.949 . S
C3061 H3056 0.950 . S
C3061 C3063 1.327 . S
C3061 C3067 1.429 1_556 S
C3062 C3054 1.574 . S
C3062 H3057 0.949 . S
C3062 C3068 1.368 . S
C3063 C3047 1.349 1_556 S
C3063 H3055 0.950 . S
C3063 C3061 1.327 . S
C3064 C3052 1.349 . S
C3064 H3058 0.950 . S
C3064 C3065 1.327 . S
C3065 H3059 0.950 . S
C3065 C3064 1.327 . S
C3065 C3069 1.429 . S
C3066 C3049 1.574 . S
C3066 H3060 0.949 . S
C3066 C3070 1.368 . S
C3067 C3048 1.429 . S
C3067 C3061 1.429 1_554 S
C3067 C3068 1.523 . S
C3068 C3049 1.368 . S
C3068 C3062 1.368 . S
C3068 C3067 1.523 . S
C3069 C3053 1.429 . S
C3069 C3065 1.429 . S
C3069 C3070 1.523 . S
C3070 C3054 1.368 . S
C3070 C3066 1.368 . S
C3070 C3069 1.523 . S
H3071 C3046 0.950 . S
H3072 C3048 0.950 . S
H3073 C3049 0.949 1_556 S
H3074 C3051 0.950 . S
H3075 C3053 0.950 . S
C3076 C3077 1.349 . S
C3076 C3078 1.327 . S
C3076 H3101 0.950 . S
C3077 C3076 1.349 . S
C3077 C3093 1.349 . S
C3078 C3076 1.327 . S
C3078 C3097 1.429 . S
C3078 H3102 0.950 . S
C3079 C3096 1.574 . S
C3079 C3098 1.368 . S
C3079 H3103 0.949 . S
H3080 C3084 0.949 . S
C3081 C3082 1.349 . S
C3081 C3083 1.327 . S
C3081 H3104 0.950 . S
C3082 C3081 1.349 . S
C3082 C3094 1.349 . S
C3083 C3081 1.327 . S
C3083 C3099 1.429 . S
C3083 H3105 0.950 . S
C3084 H3080 0.949 . S
C3084 C3092 1.574 . S
C3084 C3100 1.368 . S
H3085 C3093 0.950 . S
H3086 C3091 0.950 . S
H3087 C3092 0.949 . S
H3088 C3094 0.950 . S
H3089 C3095 0.950 . S
H3090 C3096 0.949 . S
C3091 H3086 0.950 . S
C3091 C3093 1.327 . S
C3091 C3097 1.429 . S
C3092 C3084 1.574 . S
C3092 H3087 0.949 . S
C3092 C3098 1.368 . S
C3093 C3077 1.349 . S
C3093 H3085 0.950 . S
C3093 C3091 1.327 . S
C3094 C3082 1.349 . S
C3094 H3088 0.950 . S
C3094 C3095 1.327 . S
C3095 H3089 0.950 . S
C3095 C3094 1.327 . S
C3095 C3099 1.429 . S
C3096 C3079 1.574 . S
C3096 H3090 0.949 . S
C3096 C3100 1.368 . S
C3097 C3078 1.429 . S
C3097 C3091 1.429 . S
C3097 C3098 1.523 . S
C3098 C3079 1.368 . S
C3098 C3092 1.368 . S
C3098 C3097 1.523 . S
C3099 C3083 1.429 . S
C3099 C3095 1.429 . S
C3099 C3100 1.523 . S
C3100 C3084 1.368 . S
C3100 C3096 1.368 . S
C3100 C3099 1.523 . S
H3101 C3076 0.950 . S
H3102 C3078 0.950 . S
H3103 C3079 0.949 . S
H3104 C3081 0.950 . S
H3105 C3083 0.950 . S
C3106 C3107 1.349 . S
C3106 C3108 1.327 . S
C3106 H3131 0.950 . S
C3107 C3106 1.349 . S
C3107 C3123 1.349 . S
C3108 C3106 1.327 . S
C3108 C3127 1.429 . S
C3108 H3132 0.950 . S
C3109 C3126 1.574 . S
C3109 C3128 1.368 . S
C3109 H3133 0.949 . S
H3110 C3114 0.949 . S
C3111 C3112 1.349 . S
C3111 C3113 1.327 . S
C3111 H3134 0.950 . S
C3112 C3111 1.349 . S
C3112 C3124 1.349 . S
C3113 C3111 1.327 . S
C3113 C3129 1.429 . S
C3113 H3135 0.950 . S
C3114 H3110 0.949 . S
C3114 C3122 1.574 . S
C3114 C3130 1.368 . S
H3115 C3123 0.950 . S
H3116 C3121 0.950 . S
H3117 C3122 0.949 . S
H3118 C3124 0.950 . S
H3119 C3125 0.950 . S
H3120 C3126 0.949 . S
C3121 H3116 0.950 . S
C3121 C3123 1.327 . S
C3121 C3127 1.429 . S
C3122 C3114 1.574 . S
C3122 H3117 0.949 . S
C3122 C3128 1.368 . S
C3123 C3107 1.349 . S
C3123 H3115 0.950 . S
C3123 C3121 1.327 . S
C3124 C3112 1.349 . S
C3124 H3118 0.950 . S
C3124 C3125 1.327 . S
C3125 H3119 0.950 . S
C3125 C3124 1.327 . S
C3125 C3129 1.429 . S
C3126 C3109 1.574 . S
C3126 H3120 0.949 . S
C3126 C3130 1.368 . S
C3127 C3108 1.429 . S
C3127 C3121 1.429 . S
C3127 C3128 1.523 . S
C3128 C3109 1.368 . S
C3128 C3122 1.368 . S
C3128 C3127 1.523 . S
C3129 C3113 1.429 . S
C3129 C3125 1.429 . S
C3129 C3130 1.523 . S
C3130 C3114 1.368 . S
C3130 C3126 1.368 . S
C3130 C3129 1.523 . S
H3131 C3106 0.950 . S
H3132 C3108 0.950 . S
H3133 C3109 0.949 . S
H3134 C3111 0.950 . S
H3135 C3113 0.950 . S
C3136 C3137 1.349 . S
C3136 C3138 1.327 . S
C3136 H3161 0.950 . S
C3137 C3136 1.349 . S
C3137 C3153 1.349 . S
C3138 C3136 1.327 . S
C3138 C3157 1.429 . S
C3138 H3162 0.950 . S
C3139 C3156 1.574 . S
C3139 C3158 1.368 . S
C3139 H3163 0.949 . S
H3140 C3144 0.949 . S
C3141 C3142 1.349 . S
C3141 C3143 1.327 . S
C3141 H3164 0.950 . S
C3142 C3141 1.349 . S
C3142 C3154 1.349 . S
C3143 C3141 1.327 . S
C3143 C3159 1.429 . S
C3143 H3165 0.950 . S
C3144 H3140 0.949 . S
C3144 C3152 1.574 . S
C3144 C3160 1.368 . S
H3145 C3153 0.950 . S
H3146 C3151 0.950 . S
H3147 C3152 0.949 . S
H3148 C3154 0.950 . S
H3149 C3155 0.950 . S
H3150 C3156 0.949 . S
C3151 H3146 0.950 . S
C3151 C3153 1.327 . S
C3151 C3157 1.429 . S
C3152 C3144 1.574 . S
C3152 H3147 0.949 . S
C3152 C3158 1.368 . S
C3153 C3137 1.349 . S
C3153 H3145 0.950 . S
C3153 C3151 1.327 . S
C3154 C3142 1.349 . S
C3154 H3148 0.950 . S
C3154 C3155 1.327 . S
C3155 H3149 0.950 . S
C3155 C3154 1.327 . S
C3155 C3159 1.429 . S
C3156 C3139 1.574 . S
C3156 H3150 0.949 . S
C3156 C3160 1.368 . S
C3157 C3138 1.429 . S
C3157 C3151 1.429 . S
C3157 C3158 1.523 . S
C3158 C3139 1.368 . S
C3158 C3152 1.368 . S
C3158 C3157 1.523 . S
C3159 C3143 1.429 . S
C3159 C3155 1.429 . S
C3159 C3160 1.523 . S
C3160 C3144 1.368 . S
C3160 C3156 1.368 . S
C3160 C3159 1.523 . S
H3161 C3136 0.950 . S
H3162 C3138 0.950 . S
H3163 C3139 0.949 . S
H3164 C3141 0.950 . S
H3165 C3143 0.950 . S
C3166 C3167 1.349 . S
C3166 C3168 1.327 . S
C3166 H3191 0.950 . S
C3167 C3166 1.349 . S
C3167 C3183 1.349 . S
C3168 C3166 1.327 . S
C3168 C3187 1.429 . S
C3168 H3192 0.950 . S
C3169 C3186 1.574 . S
C3169 C3188 1.368 . S
C3169 H3193 0.949 . S
H3170 C3174 0.949 . S
C3171 C3172 1.349 . S
C3171 C3173 1.327 . S
C3171 H3194 0.950 . S
C3172 C3171 1.349 . S
C3172 C3184 1.349 . S
C3173 C3171 1.327 . S
C3173 C3189 1.429 . S
C3173 H3195 0.950 . S
C3174 H3170 0.949 . S
C3174 C3182 1.574 . S
C3174 C3190 1.368 . S
H3175 C3183 0.950 . S
H3176 C3181 0.950 . S
H3177 C3182 0.949 . S
H3178 C3184 0.950 . S
H3179 C3185 0.950 . S
H3180 C3186 0.949 . S
C3181 H3176 0.950 . S
C3181 C3183 1.327 . S
C3181 C3187 1.429 . S
C3182 C3174 1.574 . S
C3182 H3177 0.949 . S
C3182 C3188 1.368 . S
C3183 C3167 1.349 . S
C3183 H3175 0.950 . S
C3183 C3181 1.327 . S
C3184 C3172 1.349 . S
C3184 H3178 0.950 . S
C3184 C3185 1.327 . S
C3185 H3179 0.950 . S
C3185 C3184 1.327 . S
C3185 C3189 1.429 . S
C3186 C3169 1.574 . S
C3186 H3180 0.949 . S
C3186 C3190 1.368 . S
C3187 C3168 1.429 . S
C3187 C3181 1.429 . S
C3187 C3188 1.523 . S
C3188 C3169 1.368 . S
C3188 C3182 1.368 . S
C3188 C3187 1.523 . S
C3189 C3173 1.429 . S
C3189 C3185 1.429 . S
C3189 C3190 1.523 . S
C3190 C3174 1.368 . S
C3190 C3186 1.368 . S
C3190 C3189 1.523 . S
H3191 C3166 0.950 . S
H3192 C3168 0.950 . S
H3193 C3169 0.949 . S
H3194 C3171 0.950 . S
H3195 C3173 0.950 . S
C3196 C3197 1.349 . S
C3196 C3198 1.327 . S
C3196 H3221 0.950 . S
C3197 C3196 1.349 . S
C3197 C3213 1.349 . S
C3198 C3196 1.327 . S
C3198 C3217 1.429 . S
C3198 H3222 0.950 . S
C3199 C3216 1.574 . S
C3199 C3218 1.368 . S
C3199 H3223 0.949 . S
H3200 C3204 0.949 . S
C3201 C3202 1.349 . S
C3201 C3203 1.327 . S
C3201 H3224 0.950 . S
C3202 C3201 1.349 . S
C3202 C3214 1.349 . S
C3203 C3201 1.327 . S
C3203 C3219 1.429 . S
C3203 H3225 0.950 . S
C3204 H3200 0.949 . S
C3204 C3212 1.574 . S
C3204 C3220 1.368 . S
H3205 C3213 0.950 . S
H3206 C3211 0.950 . S
H3207 C3212 0.949 . S
H3208 C3214 0.950 . S
H3209 C3215 0.950 . S
H3210 C3216 0.949 . S
C3211 H3206 0.950 . S
C3211 C3213 1.327 . S
C3211 C3217 1.429 . S
C3212 C3204 1.574 . S
C3212 H3207 0.949 . S
C3212 C3218 1.368 . S
C3213 C3197 1.349 . S
C3213 H3205 0.950 . S
C3213 C3211 1.327 . S
C3214 C3202 1.349 . S
C3214 H3208 0.950 . S
C3214 C3215 1.327 . S
C3215 H3209 0.950 . S
C3215 C3214 1.327 . S
C3215 C3219 1.429 . S
C3216 C3199 1.574 . S
C3216 H3210 0.949 . S
C3216 C3220 1.368 . S
C3217 C3198 1.429 . S
C3217 C3211 1.429 . S
C3217 C3218 1.523 . S
C3218 C3199 1.368 . S
C3218 C3212 1.368 . S
C3218 C3217 1.523 . S
C3219 C3203 1.429 . S
C3219 C3215 1.429 . S
C3219 C3220 1.523 . S
C3220 C3204 1.368 . S
C3220 C3216 1.368 . S
C3220 C3219 1.523 . S
H3221 C3196 0.950 . S
H3222 C3198 0.950 . S
H3223 C3199 0.949 . S
H3224 C3201 0.950 . S
H3225 C3203 0.950 . S
C3226 C3227 1.349 . S
C3226 C3228 1.327 . S
C3226 H3251 0.950 . S
C3227 C3226 1.349 . S
C3227 C3243 1.349 . S
C3228 C3226 1.327 . S
C3228 C3247 1.429 . S
C3228 H3252 0.950 . S
C3229 C3246 1.574 . S
C3229 C3248 1.368 . S
C3229 H3253 0.949 . S
H3230 C3234 0.949 . S
C3231 C3232 1.349 . S
C3231 C3233 1.327 . S
C3231 H3254 0.950 . S
C3232 C3231 1.349 . S
C3232 C3244 1.349 . S
C3233 C3231 1.327 . S
C3233 C3249 1.429 . S
C3233 H3255 0.950 . S
C3234 H3230 0.949 . S
C3234 C3242 1.574 . S
C3234 C3250 1.368 . S
H3235 C3243 0.950 . S
H3236 C3241 0.950 . S
H3237 C3242 0.949 . S
H3238 C3244 0.950 . S
H3239 C3245 0.950 . S
H3240 C3246 0.949 . S
C3241 H3236 0.950 . S
C3241 C3243 1.327 . S
C3241 C3247 1.429 . S
C3242 C3234 1.574 . S
C3242 H3237 0.949 . S
C3242 C3248 1.368 . S
C3243 C3227 1.349 . S
C3243 H3235 0.950 . S
C3243 C3241 1.327 . S
C3244 C3232 1.349 . S
C3244 H3238 0.950 . S
C3244 C3245 1.327 . S
C3245 H3239 0.950 . S
C3245 C3244 1.327 . S
C3245 C3249 1.429 . S
C3246 C3229 1.574 . S
C3246 H3240 0.949 . S
C3246 C3250 1.368 . S
C3247 C3228 1.429 . S
C3247 C3241 1.429 . S
C3247 C3248 1.523 . S
C3248 C3229 1.368 . S
C3248 C3242 1.368 . S
C3248 C3247 1.523 . S
C3249 C3233 1.429 . S
C3249 C3245 1.429 . S
C3249 C3250 1.523 . S
C3250 C3234 1.368 . S
C3250 C3246 1.368 . S
C3250 C3249 1.523 . S
H3251 C3226 0.950 . S
H3252 C3228 0.950 . S
H3253 C3229 0.949 . S
H3254 C3231 0.950 . S
H3255 C3233 0.950 . S
C3256 C3257 1.349 . S
C3256 C3258 1.327 . S
C3256 H3281 0.950 . S
C3257 C3256 1.349 . S
C3257 C3273 1.349 . S
C3258 C3256 1.327 . S
C3258 C3277 1.429 . S
C3258 H3282 0.950 . S
C3259 C3276 1.574 . S
C3259 C3278 1.368 . S
C3259 H3283 0.949 . S
H3260 C3264 0.949 . S
C3261 C3262 1.349 . S
C3261 C3263 1.327 . S
C3261 H3284 0.950 . S
C3262 C3261 1.349 . S
C3262 C3274 1.349 . S
C3263 C3261 1.327 . S
C3263 C3279 1.429 . S
C3263 H3285 0.950 . S
C3264 H3260 0.949 . S
C3264 C3272 1.574 . S
C3264 C3280 1.368 . S
H3265 C3273 0.950 . S
H3266 C3271 0.950 . S
H3267 C3272 0.949 . S
H3268 C3274 0.950 . S
H3269 C3275 0.950 . S
H3270 C3276 0.949 . S
C3271 H3266 0.950 . S
C3271 C3273 1.327 . S
C3271 C3277 1.429 . S
C3272 C3264 1.574 . S
C3272 H3267 0.949 . S
C3272 C3278 1.368 . S
C3273 C3257 1.349 . S
C3273 H3265 0.950 . S
C3273 C3271 1.327 . S
C3274 C3262 1.349 . S
C3274 H3268 0.950 . S
C3274 C3275 1.327 . S
C3275 H3269 0.950 . S
C3275 C3274 1.327 . S
C3275 C3279 1.429 . S
C3276 C3259 1.574 . S
C3276 H3270 0.949 . S
C3276 C3280 1.368 . S
C3277 C3258 1.429 . S
C3277 C3271 1.429 . S
C3277 C3278 1.523 . S
C3278 C3259 1.368 . S
C3278 C3272 1.368 . S
C3278 C3277 1.523 . S
C3279 C3263 1.429 . S
C3279 C3275 1.429 . S
C3279 C3280 1.523 . S
C3280 C3264 1.368 . S
C3280 C3276 1.368 . S
C3280 C3279 1.523 . S
H3281 C3256 0.950 . S
H3282 C3258 0.950 . S
H3283 C3259 0.949 . S
H3284 C3261 0.950 . S
H3285 C3263 0.950 . S
C3286 C3287 1.349 . S
C3286 C3288 1.327 . S
C3286 H3311 0.950 . S
C3287 C3286 1.349 . S
C3287 C3303 1.349 . S
C3288 C3286 1.327 . S
C3288 C3307 1.429 . S
C3288 H3312 0.950 . S
C3289 C3306 1.574 . S
C3289 C3308 1.368 . S
C3289 H3313 0.949 . S
H3290 C3294 0.949 . S
C3291 C3292 1.349 . S
C3291 C3293 1.327 . S
C3291 H3314 0.950 . S
C3292 C3291 1.349 . S
C3292 C3304 1.349 . S
C3293 C3291 1.327 . S
C3293 C3309 1.429 . S
C3293 H3315 0.950 . S
C3294 H3290 0.949 . S
C3294 C3302 1.574 . S
C3294 C3310 1.368 . S
H3295 C3303 0.950 . S
H3296 C3301 0.950 . S
H3297 C3302 0.949 . S
H3298 C3304 0.950 . S
H3299 C3305 0.950 . S
H3300 C3306 0.949 . S
C3301 H3296 0.950 . S
C3301 C3303 1.327 . S
C3301 C3307 1.429 . S
C3302 C3294 1.574 . S
C3302 H3297 0.949 . S
C3302 C3308 1.368 . S
C3303 C3287 1.349 . S
C3303 H3295 0.950 . S
C3303 C3301 1.327 . S
C3304 C3292 1.349 . S
C3304 H3298 0.950 . S
C3304 C3305 1.327 . S
C3305 H3299 0.950 . S
C3305 C3304 1.327 . S
C3305 C3309 1.429 . S
C3306 C3289 1.574 . S
C3306 H3300 0.949 . S
C3306 C3310 1.368 . S
C3307 C3288 1.429 . S
C3307 C3301 1.429 . S
C3307 C3308 1.523 . S
C3308 C3289 1.368 . S
C3308 C3302 1.368 . S
C3308 C3307 1.523 . S
C3309 C3293 1.429 . S
C3309 C3305 1.429 . S
C3309 C3310 1.523 . S
C3310 C3294 1.368 . S
C3310 C3306 1.368 . S
C3310 C3309 1.523 . S
H3311 C3286 0.950 . S
H3312 C3288 0.950 . S
H3313 C3289 0.949 . S
H3314 C3291 0.950 . S
H3315 C3293 0.950 . S
C3316 C3317 1.349 . S
C3316 C3318 1.327 . S
C3316 H3341 0.950 . S
C3317 C3316 1.349 . S
C3317 C3333 1.349 . S
C3318 C3316 1.327 . S
C3318 C3337 1.429 . S
C3318 H3342 0.950 . S
C3319 C3336 1.574 . S
C3319 C3338 1.368 . S
C3319 H3343 0.949 . S
H3320 C3324 0.949 . S
C3321 C3322 1.349 . S
C3321 C3323 1.327 . S
C3321 H3344 0.950 . S
C3322 C3321 1.349 . S
C3322 C3334 1.349 . S
C3323 C3321 1.327 . S
C3323 C3339 1.429 . S
C3323 H3345 0.950 . S
C3324 H3320 0.949 . S
C3324 C3332 1.574 . S
C3324 C3340 1.368 . S
H3325 C3333 0.950 . S
H3326 C3331 0.950 . S
H3327 C3332 0.949 . S
H3328 C3334 0.950 . S
H3329 C3335 0.950 . S
H3330 C3336 0.949 . S
C3331 H3326 0.950 . S
C3331 C3333 1.327 . S
C3331 C3337 1.429 . S
C3332 C3324 1.574 . S
C3332 H3327 0.949 . S
C3332 C3338 1.368 . S
C3333 C3317 1.349 . S
C3333 H3325 0.950 . S
C3333 C3331 1.327 . S
C3334 C3322 1.349 . S
C3334 H3328 0.950 . S
C3334 C3335 1.327 . S
C3335 H3329 0.950 . S
C3335 C3334 1.327 . S
C3335 C3339 1.429 . S
C3336 C3319 1.574 . S
C3336 H3330 0.949 . S
C3336 C3340 1.368 . S
C3337 C3318 1.429 . S
C3337 C3331 1.429 . S
C3337 C3338 1.523 . S
C3338 C3319 1.368 . S
C3338 C3332 1.368 . S
C3338 C3337 1.523 . S
C3339 C3323 1.429 . S
C3339 C3335 1.429 . S
C3339 C3340 1.523 . S
C3340 C3324 1.368 . S
C3340 C3336 1.368 . S
C3340 C3339 1.523 . S
H3341 C3316 0.950 . S
H3342 C3318 0.950 . S
H3343 C3319 0.949 . S
H3344 C3321 0.950 . S
H3345 C3323 0.950 . S
C3346 C3347 1.349 . S
C3346 C3348 1.327 . S
C3346 H3371 0.950 . S
C3347 C3346 1.349 . S
C3347 C3363 1.349 . S
C3348 C3346 1.327 . S
C3348 C3367 1.429 . S
C3348 H3372 0.950 . S
C3349 C3366 1.574 . S
C3349 C3368 1.368 . S
C3349 H3373 0.949 . S
H3350 C3354 0.949 . S
C3351 C3352 1.349 . S
C3351 C3353 1.327 . S
C3351 H3374 0.950 . S
C3352 C3351 1.349 . S
C3352 C3364 1.349 . S
C3353 C3351 1.327 . S
C3353 C3369 1.429 . S
C3353 H3375 0.950 . S
C3354 H3350 0.949 . S
C3354 C3362 1.574 . S
C3354 C3370 1.368 . S
H3355 C3363 0.950 . S
H3356 C3361 0.950 . S
H3357 C3362 0.949 . S
H3358 C3364 0.950 . S
H3359 C3365 0.950 . S
H3360 C3366 0.949 . S
C3361 H3356 0.950 . S
C3361 C3363 1.327 . S
C3361 C3367 1.429 . S
C3362 C3354 1.574 . S
C3362 H3357 0.949 . S
C3362 C3368 1.368 . S
C3363 C3347 1.349 . S
C3363 H3355 0.950 . S
C3363 C3361 1.327 . S
C3364 C3352 1.349 . S
C3364 H3358 0.950 . S
C3364 C3365 1.327 . S
C3365 H3359 0.950 . S
C3365 C3364 1.327 . S
C3365 C3369 1.429 . S
C3366 C3349 1.574 . S
C3366 H3360 0.949 . S
C3366 C3370 1.368 . S
C3367 C3348 1.429 . S
C3367 C3361 1.429 . S
C3367 C3368 1.523 . S
C3368 C3349 1.368 . S
C3368 C3362 1.368 . S
C3368 C3367 1.523 . S
C3369 C3353 1.429 . S
C3369 C3365 1.429 . S
C3369 C3370 1.523 . S
C3370 C3354 1.368 . S
C3370 C3366 1.368 . S
C3370 C3369 1.523 . S
H3371 C3346 0.950 . S
H3372 C3348 0.950 . S
H3373 C3349 0.949 . S
H3374 C3351 0.950 . S
H3375 C3353 0.950 . S
C3376 C3377 1.349 . S
C3376 C3378 1.327 . S
C3376 H3401 0.950 . S
C3377 C3376 1.349 . S
C3377 C3393 1.349 . S
C3378 C3376 1.327 . S
C3378 C3397 1.429 . S
C3378 H3402 0.950 . S
C3379 C3396 1.574 . S
C3379 C3398 1.368 . S
C3379 H3403 0.949 . S
H3380 C3384 0.949 . S
C3381 C3382 1.349 . S
C3381 C3383 1.327 . S
C3381 H3404 0.950 . S
C3382 C3381 1.349 . S
C3382 C3394 1.349 . S
C3383 C3381 1.327 . S
C3383 C3399 1.429 . S
C3383 H3405 0.950 . S
C3384 H3380 0.949 . S
C3384 C3392 1.574 . S
C3384 C3400 1.368 . S
H3385 C3393 0.950 . S
H3386 C3391 0.950 . S
H3387 C3392 0.949 . S
H3388 C3394 0.950 . S
H3389 C3395 0.950 . S
H3390 C3396 0.949 . S
C3391 H3386 0.950 . S
C3391 C3393 1.327 . S
C3391 C3397 1.429 . S
C3392 C3384 1.574 . S
C3392 H3387 0.949 . S
C3392 C3398 1.368 . S
C3393 C3377 1.349 . S
C3393 H3385 0.950 . S
C3393 C3391 1.327 . S
C3394 C3382 1.349 . S
C3394 H3388 0.950 . S
C3394 C3395 1.327 . S
C3395 H3389 0.950 . S
C3395 C3394 1.327 . S
C3395 C3399 1.429 . S
C3396 C3379 1.574 . S
C3396 H3390 0.949 . S
C3396 C3400 1.368 . S
C3397 C3378 1.429 . S
C3397 C3391 1.429 . S
C3397 C3398 1.523 . S
C3398 C3379 1.368 . S
C3398 C3392 1.368 . S
C3398 C3397 1.523 . S
C3399 C3383 1.429 . S
C3399 C3395 1.429 . S
C3399 C3400 1.523 . S
C3400 C3384 1.368 . S
C3400 C3396 1.368 . S
C3400 C3399 1.523 . S
H3401 C3376 0.950 . S
H3402 C3378 0.950 . S
H3403 C3379 0.949 . S
H3404 C3381 0.950 . S
H3405 C3383 0.950 . S
C3406 C3407 1.349 . S
C3406 C3408 1.327 . S
C3406 H3431 0.950 . S
C3407 C3406 1.349 . S
C3407 C3423 1.349 . S
C3408 C3406 1.327 . S
C3408 C3427 1.429 . S
C3408 H3432 0.950 . S
C3409 C3426 1.574 . S
C3409 C3428 1.368 . S
C3409 H3433 0.949 . S
H3410 C3414 0.949 . S
C3411 C3412 1.349 . S
C3411 C3413 1.327 . S
C3411 H3434 0.950 . S
C3412 C3411 1.349 . S
C3412 C3424 1.349 . S
C3413 C3411 1.327 . S
C3413 C3429 1.429 . S
C3413 H3435 0.950 . S
C3414 H3410 0.949 . S
C3414 C3422 1.574 . S
C3414 C3430 1.368 . S
H3415 C3423 0.950 . S
H3416 C3421 0.950 . S
H3417 C3422 0.949 . S
H3418 C3424 0.950 . S
H3419 C3425 0.950 . S
H3420 C3426 0.949 . S
C3421 H3416 0.950 . S
C3421 C3423 1.327 . S
C3421 C3427 1.429 . S
C3422 C3414 1.574 . S
C3422 H3417 0.949 . S
C3422 C3428 1.368 . S
C3423 C3407 1.349 . S
C3423 H3415 0.950 . S
C3423 C3421 1.327 . S
C3424 C3412 1.349 . S
C3424 H3418 0.950 . S
C3424 C3425 1.327 . S
C3425 H3419 0.950 . S
C3425 C3424 1.327 . S
C3425 C3429 1.429 . S
C3426 C3409 1.574 . S
C3426 H3420 0.949 . S
C3426 C3430 1.368 . S
C3427 C3408 1.429 . S
C3427 C3421 1.429 . S
C3427 C3428 1.523 . S
C3428 C3409 1.368 . S
C3428 C3422 1.368 . S
C3428 C3427 1.523 . S
C3429 C3413 1.429 . S
C3429 C3425 1.429 . S
C3429 C3430 1.523 . S
C3430 C3414 1.368 . S
C3430 C3426 1.368 . S
C3430 C3429 1.523 . S
H3431 C3406 0.950 . S
H3432 C3408 0.950 . S
H3433 C3409 0.949 . S
H3434 C3411 0.950 . S
H3435 C3413 0.950 . S
C3436 C3437 1.349 . S
C3436 C3438 1.327 . S
C3436 H3461 0.950 . S
C3437 C3436 1.349 . S
C3437 C3453 1.349 . S
C3438 C3436 1.327 . S
C3438 C3457 1.429 . S
C3438 H3462 0.950 . S
C3439 C3456 1.574 . S
C3439 C3458 1.368 . S
C3439 H3463 0.949 . S
H3440 C3444 0.956 . S
C3441 C3442 1.349 . S
C3441 C3443 1.327 1_455 S
C3441 H3464 0.950 . S
C3442 C3441 1.349 . S
C3442 C3454 1.349 . S
C3443 C3441 1.327 1_655 S
C3443 C3459 1.432 . S
C3443 H3465 0.950 . S
C3444 H3440 0.956 . S
C3444 C3452 1.574 . S
C3444 C3460 1.368 . S
H3445 C3453 0.950 . S
H3446 C3451 0.950 . S
H3447 C3452 0.949 . S
H3448 C3454 0.950 . S
H3449 C3455 0.950 . S
H3450 C3456 0.949 . S
C3451 H3446 0.950 . S
C3451 C3453 1.327 . S
C3451 C3457 1.429 . S
C3452 C3444 1.574 . S
C3452 H3447 0.949 . S
C3452 C3458 1.368 . S
C3453 C3437 1.349 . S
C3453 H3445 0.950 . S
C3453 C3451 1.327 . S
C3454 C3442 1.349 . S
C3454 H3448 0.950 . S
C3454 C3455 1.327 . S
C3455 H3449 0.950 . S
C3455 C3454 1.327 . S
C3455 C3459 1.420 1_455 S
C3456 C3439 1.574 . S
C3456 H3450 0.949 . S
C3456 C3460 1.368 . S
C3457 C3438 1.429 . S
C3457 C3451 1.429 . S
C3457 C3458 1.523 . S
C3458 C3439 1.368 . S
C3458 C3452 1.368 . S
C3458 C3457 1.523 . S
C3459 C3443 1.432 . S
C3459 C3455 1.420 1_655 S
C3459 C3460 1.527 . S
C3460 C3444 1.368 . S
C3460 C3456 1.368 . S
C3460 C3459 1.527 . S
H3461 C3436 0.950 . S
H3462 C3438 0.950 . S
H3463 C3439 0.949 . S
H3464 C3441 0.950 . S
H3465 C3443 0.950 . S
C3466 C3467 1.349 . S
C3466 C3468 1.327 . S
C3466 H3491 0.950 . S
C3467 C3466 1.349 . S
C3467 C3483 1.349 . S
C3468 C3466 1.327 . S
C3468 C3487 1.429 . S
C3468 H3492 0.950 . S
C3469 C3486 1.574 . S
C3469 C3488 1.368 . S
C3469 H3493 0.949 . S
H3470 C3474 0.949 . S
C3471 C3472 1.349 . S
C3471 C3473 1.327 . S
C3471 H3494 0.950 . S
C3472 C3471 1.349 . S
C3472 C3484 1.349 . S
C3473 C3471 1.327 . S
C3473 C3489 1.429 . S
C3473 H3495 0.950 . S
C3474 H3470 0.949 . S
C3474 C3482 1.574 . S
C3474 C3490 1.368 . S
H3475 C3483 0.950 . S
H3476 C3481 0.950 . S
H3477 C3482 0.949 . S
H3478 C3484 0.950 . S
H3479 C3485 0.950 . S
H3480 C3486 0.949 . S
C3481 H3476 0.950 . S
C3481 C3483 1.327 . S
C3481 C3487 1.429 . S
C3482 C3474 1.574 . S
C3482 H3477 0.949 . S
C3482 C3488 1.368 . S
C3483 C3467 1.349 . S
C3483 H3475 0.950 . S
C3483 C3481 1.327 . S
C3484 C3472 1.349 . S
C3484 H3478 0.950 . S
C3484 C3485 1.327 . S
C3485 H3479 0.950 . S
C3485 C3484 1.327 . S
C3485 C3489 1.429 . S
C3486 C3469 1.574 . S
C3486 H3480 0.949 . S
C3486 C3490 1.368 . S
C3487 C3468 1.429 . S
C3487 C3481 1.429 . S
C3487 C3488 1.523 . S
C3488 C3469 1.368 . S
C3488 C3482 1.368 . S
C3488 C3487 1.523 . S
C3489 C3473 1.429 . S
C3489 C3485 1.429 . S
C3489 C3490 1.523 . S
C3490 C3474 1.368 . S
C3490 C3486 1.368 . S
C3490 C3489 1.523 . S
H3491 C3466 0.950 . S
H3492 C3468 0.950 . S
H3493 C3469 0.949 . S
H3494 C3471 0.950 . S
H3495 C3473 0.950 . S
C3496 C3497 1.349 . S
C3496 C3498 1.327 . S
C3496 H3521 0.950 . S
C3497 C3496 1.349 . S
C3497 C3513 1.349 . S
C3498 C3496 1.327 . S
C3498 C3517 1.429 . S
C3498 H3522 0.950 . S
C3499 C3516 1.574 . S
C3499 C3518 1.368 . S
C3499 H3523 0.949 . S
H3500 C3504 0.949 . S
C3501 C3502 1.349 . S
C3501 C3503 1.327 . S
C3501 H3524 0.950 . S
C3502 C3501 1.349 . S
C3502 C3514 1.349 . S
C3503 C3501 1.327 . S
C3503 C3519 1.429 . S
C3503 H3525 0.950 . S
C3504 H3500 0.949 . S
C3504 C3512 1.574 . S
C3504 C3520 1.368 . S
H3505 C3513 0.950 . S
H3506 C3511 0.950 . S
H3507 C3512 0.949 . S
H3508 C3514 0.950 . S
H3509 C3515 0.950 . S
H3510 C3516 0.949 . S
C3511 H3506 0.950 . S
C3511 C3513 1.327 . S
C3511 C3517 1.429 . S
C3512 C3504 1.574 . S
C3512 H3507 0.949 . S
C3512 C3518 1.368 . S
C3513 C3497 1.349 . S
C3513 H3505 0.950 . S
C3513 C3511 1.327 . S
C3514 C3502 1.349 . S
C3514 H3508 0.950 . S
C3514 C3515 1.327 . S
C3515 H3509 0.950 . S
C3515 C3514 1.327 . S
C3515 C3519 1.429 . S
C3516 C3499 1.574 . S
C3516 H3510 0.949 . S
C3516 C3520 1.368 . S
C3517 C3498 1.429 . S
C3517 C3511 1.429 . S
C3517 C3518 1.523 . S
C3518 C3499 1.368 . S
C3518 C3512 1.368 . S
C3518 C3517 1.523 . S
C3519 C3503 1.429 . S
C3519 C3515 1.429 . S
C3519 C3520 1.523 . S
C3520 C3504 1.368 . S
C3520 C3516 1.368 . S
C3520 C3519 1.523 . S
H3521 C3496 0.950 . S
H3522 C3498 0.950 . S
H3523 C3499 0.949 . S
H3524 C3501 0.950 . S
H3525 C3503 0.950 . S
C3526 C3527 1.349 . S
C3526 C3528 1.327 . S
C3526 H3551 0.950 . S
C3527 C3526 1.349 . S
C3527 C3543 1.349 . S
C3528 C3526 1.327 . S
C3528 C3547 1.429 . S
C3528 H3552 0.950 . S
C3529 C3546 1.574 . S
C3529 C3548 1.368 . S
C3529 H3553 0.949 . S
H3530 C3534 0.949 . S
C3531 C3532 1.349 . S
C3531 C3533 1.327 . S
C3531 H3554 0.950 . S
C3532 C3531 1.349 . S
C3532 C3544 1.349 . S
C3533 C3531 1.327 . S
C3533 C3549 1.429 . S
C3533 H3555 0.950 . S
C3534 H3530 0.949 . S
C3534 C3542 1.574 . S
C3534 C3550 1.368 . S
H3535 C3543 0.950 . S
H3536 C3541 0.950 . S
H3537 C3542 0.949 . S
H3538 C3544 0.950 . S
H3539 C3545 0.950 . S
H3540 C3546 0.949 . S
C3541 H3536 0.950 . S
C3541 C3543 1.327 . S
C3541 C3547 1.429 . S
C3542 C3534 1.574 . S
C3542 H3537 0.949 . S
C3542 C3548 1.368 . S
C3543 C3527 1.349 . S
C3543 H3535 0.950 . S
C3543 C3541 1.327 . S
C3544 C3532 1.349 . S
C3544 H3538 0.950 . S
C3544 C3545 1.327 . S
C3545 H3539 0.950 . S
C3545 C3544 1.327 . S
C3545 C3549 1.429 . S
C3546 C3529 1.574 . S
C3546 H3540 0.949 . S
C3546 C3550 1.368 . S
C3547 C3528 1.429 . S
C3547 C3541 1.429 . S
C3547 C3548 1.523 . S
C3548 C3529 1.368 . S
C3548 C3542 1.368 . S
C3548 C3547 1.523 . S
C3549 C3533 1.429 . S
C3549 C3545 1.429 . S
C3549 C3550 1.523 . S
C3550 C3534 1.368 . S
C3550 C3546 1.368 . S
C3550 C3549 1.523 . S
H3551 C3526 0.950 . S
H3552 C3528 0.950 . S
H3553 C3529 0.949 . S
H3554 C3531 0.950 . S
H3555 C3533 0.950 . S
C3556 C3557 1.349 . S
C3556 C3558 1.327 . S
C3556 H3581 0.950 . S
C3557 C3556 1.349 . S
C3557 C3573 1.349 . S
C3558 C3556 1.327 . S
C3558 C3577 1.429 . S
C3558 H3582 0.950 . S
C3559 C3576 1.574 . S
C3559 C3578 1.368 . S
C3559 H3583 0.949 . S
H3560 C3564 0.949 . S
C3561 C3562 1.349 . S
C3561 C3563 1.327 . S
C3561 H3584 0.950 1_655 S
C3562 C3561 1.349 . S
C3562 C3574 1.349 . S
C3563 C3561 1.327 . S
C3563 C3579 1.429 . S
C3563 H3585 0.950 . S
C3564 H3560 0.949 . S
C3564 C3572 1.574 . S
C3564 C3580 1.368 . S
H3565 C3573 0.950 . S
H3566 C3571 0.950 . S
H3567 C3572 0.949 . S
H3568 C3574 0.950 . S
H3569 C3575 0.950 . S
H3570 C3576 0.949 . S
C3571 H3566 0.950 . S
C3571 C3573 1.327 . S
C3571 C3577 1.429 . S
C3572 C3564 1.574 . S
C3572 H3567 0.949 . S
C3572 C3578 1.368 . S
C3573 C3557 1.349 . S
C3573 H3565 0.950 . S
C3573 C3571 1.327 . S
C3574 C3562 1.349 . S
C3574 H3568 0.950 . S
C3574 C3575 1.327 . S
C3575 H3569 0.950 . S
C3575 C3574 1.327 . S
C3575 C3579 1.429 . S
C3576 C3559 1.574 . S
C3576 H3570 0.949 . S
C3576 C3580 1.368 . S
C3577 C3558 1.429 . S
C3577 C3571 1.429 . S
C3577 C3578 1.523 . S
C3578 C3559 1.368 . S
C3578 C3572 1.368 . S
C3578 C3577 1.523 . S
C3579 C3563 1.429 . S
C3579 C3575 1.429 . S
C3579 C3580 1.523 . S
C3580 C3564 1.368 . S
C3580 C3576 1.368 . S
C3580 C3579 1.523 . S
H3581 C3556 0.950 . S
H3582 C3558 0.950 . S
H3583 C3559 0.949 . S
H3584 C3561 0.950 1_455 S
H3585 C3563 0.950 . S
C3586 C3587 1.349 . S
C3586 C3588 1.327 . S
C3586 H3611 0.950 . S
C3587 C3586 1.349 . S
C3587 C3603 1.349 . S
C3588 C3586 1.327 . S
C3588 C3607 1.429 . S
C3588 H3612 0.950 . S
C3589 C3606 1.574 . S
C3589 C3608 1.368 . S
C3589 H3613 0.949 . S
H3590 C3594 0.949 . S
C3591 C3592 1.349 . S
C3591 C3593 1.327 . S
C3591 H3614 0.950 . S
C3592 C3591 1.349 . S
C3592 C3604 1.349 . S
C3593 C3591 1.327 . S
C3593 C3609 1.429 . S
C3593 H3615 0.950 . S
C3594 H3590 0.949 . S
C3594 C3602 1.574 . S
C3594 C3610 1.368 . S
H3595 C3603 0.950 . S
H3596 C3601 0.950 . S
H3597 C3602 0.949 . S
H3598 C3604 0.950 . S
H3599 C3605 0.950 . S
H3600 C3606 0.949 . S
C3601 H3596 0.950 . S
C3601 C3603 1.327 . S
C3601 C3607 1.429 . S
C3602 C3594 1.574 . S
C3602 H3597 0.949 . S
C3602 C3608 1.368 . S
C3603 C3587 1.349 . S
C3603 H3595 0.950 . S
C3603 C3601 1.327 . S
C3604 C3592 1.349 . S
C3604 H3598 0.950 . S
C3604 C3605 1.327 . S
C3605 H3599 0.950 . S
C3605 C3604 1.327 . S
C3605 C3609 1.429 . S
C3606 C3589 1.574 . S
C3606 H3600 0.949 . S
C3606 C3610 1.368 . S
C3607 C3588 1.429 . S
C3607 C3601 1.429 . S
C3607 C3608 1.523 . S
C3608 C3589 1.368 . S
C3608 C3602 1.368 . S
C3608 C3607 1.523 . S
C3609 C3593 1.429 . S
C3609 C3605 1.429 . S
C3609 C3610 1.523 . S
C3610 C3594 1.368 . S
C3610 C3606 1.368 . S
C3610 C3609 1.523 . S
H3611 C3586 0.950 . S
H3612 C3588 0.950 . S
H3613 C3589 0.949 . S
H3614 C3591 0.950 . S
H3615 C3593 0.950 . S
C3616 C3617 1.349 . S
C3616 C3618 1.327 . S
C3616 H3641 0.950 . S
C3617 C3616 1.349 . S
C3617 C3633 1.349 . S
C3618 C3616 1.327 . S
C3618 C3637 1.429 . S
C3618 H3642 0.950 . S
C3619 C3636 1.574 . S
C3619 C3638 1.368 . S
C3619 H3643 0.949 . S
H3620 C3624 0.949 . S
C3621 C3622 1.349 . S
C3621 C3623 1.327 . S
C3621 H3644 0.950 . S
C3622 C3621 1.349 . S
C3622 C3634 1.349 . S
C3623 C3621 1.327 . S
C3623 C3639 1.429 . S
C3623 H3645 0.950 . S
C3624 H3620 0.949 . S
C3624 C3632 1.574 . S
C3624 C3640 1.368 . S
H3625 C3633 0.950 . S
H3626 C3631 0.950 . S
H3627 C3632 0.949 . S
H3628 C3634 0.950 . S
H3629 C3635 0.950 . S
H3630 C3636 0.949 . S
C3631 H3626 0.950 . S
C3631 C3633 1.327 . S
C3631 C3637 1.429 . S
C3632 C3624 1.574 . S
C3632 H3627 0.949 . S
C3632 C3638 1.368 . S
C3633 C3617 1.349 . S
C3633 H3625 0.950 . S
C3633 C3631 1.327 . S
C3634 C3622 1.349 . S
C3634 H3628 0.950 . S
C3634 C3635 1.327 . S
C3635 H3629 0.950 . S
C3635 C3634 1.327 . S
C3635 C3639 1.429 . S
C3636 C3619 1.574 . S
C3636 H3630 0.949 . S
C3636 C3640 1.368 . S
C3637 C3618 1.429 . S
C3637 C3631 1.429 . S
C3637 C3638 1.523 . S
C3638 C3619 1.368 . S
C3638 C3632 1.368 . S
C3638 C3637 1.523 . S
C3639 C3623 1.429 . S
C3639 C3635 1.429 . S
C3639 C3640 1.523 . S
C3640 C3624 1.368 . S
C3640 C3636 1.368 . S
C3640 C3639 1.523 . S
H3641 C3616 0.950 . S
H3642 C3618 0.950 . S
H3643 C3619 0.949 . S
H3644 C3621 0.950 . S
H3645 C3623 0.950 . S
C3646 C3647 1.349 . S
C3646 C3648 1.327 . S
C3646 H3671 0.950 . S
C3647 C3646 1.349 . S
C3647 C3663 1.349 . S
C3648 C3646 1.327 . S
C3648 C3667 1.429 . S
C3648 H3672 0.950 . S
C3649 C3666 1.574 . S
C3649 C3668 1.368 . S
C3649 H3673 0.949 . S
H3650 C3654 0.949 . S
C3651 C3652 1.349 . S
C3651 C3653 1.327 1_545 S
C3651 H3674 0.950 . S
C3652 C3651 1.349 . S
C3652 C3664 1.349 1_545 S
C3653 C3651 1.327 1_565 S
C3653 C3669 1.429 . S
C3653 H3675 0.950 . S
C3654 H3650 0.949 . S
C3654 C3662 1.574 . S
C3654 C3670 1.368 . S
H3655 C3663 0.950 . S
H3656 C3661 0.950 . S
H3657 C3662 0.949 . S
H3658 C3664 0.950 . S
H3659 C3665 0.950 . S
H3660 C3666 0.949 . S
C3661 H3656 0.950 . S
C3661 C3663 1.327 . S
C3661 C3667 1.429 . S
C3662 C3654 1.574 . S
C3662 H3657 0.949 . S
C3662 C3668 1.368 . S
C3663 C3647 1.349 . S
C3663 H3655 0.950 . S
C3663 C3661 1.327 . S
C3664 C3652 1.349 1_565 S
C3664 H3658 0.950 . S
C3664 C3665 1.327 . S
C3665 H3659 0.950 . S
C3665 C3664 1.327 . S
C3665 C3669 1.429 . S
C3666 C3649 1.574 . S
C3666 H3660 0.949 . S
C3666 C3670 1.368 . S
C3667 C3648 1.429 . S
C3667 C3661 1.429 . S
C3667 C3668 1.523 . S
C3668 C3649 1.368 . S
C3668 C3662 1.368 . S
C3668 C3667 1.523 . S
C3669 C3653 1.429 . S
C3669 C3665 1.429 . S
C3669 C3670 1.523 . S
C3670 C3654 1.368 . S
C3670 C3666 1.368 . S
C3670 C3669 1.523 . S
H3671 C3646 0.950 . S
H3672 C3648 0.950 . S
H3673 C3649 0.949 . S
H3674 C3651 0.950 . S
H3675 C3653 0.950 . S
C3676 C3677 1.349 . S
C3676 C3678 1.327 . S
C3676 H3701 0.950 . S
C3677 C3676 1.349 . S
C3677 C3693 1.349 . S
C3678 C3676 1.327 . S
C3678 C3697 1.429 . S
C3678 H3702 0.950 . S
C3679 C3696 1.574 . S
C3679 C3698 1.368 . S
C3679 H3703 0.949 . S
H3680 C3684 0.949 . S
C3681 C3682 1.349 . S
C3681 C3683 1.327 . S
C3681 H3704 0.950 . S
C3682 C3681 1.349 . S
C3682 C3694 1.349 . S
C3683 C3681 1.327 . S
C3683 C3699 1.429 . S
C3683 H3705 0.950 . S
C3684 H3680 0.949 . S
C3684 C3692 1.574 . S
C3684 C3700 1.368 . S
H3685 C3693 0.950 . S
H3686 C3691 0.950 . S
H3687 C3692 0.949 . S
H3688 C3694 0.950 . S
H3689 C3695 0.950 . S
H3690 C3696 0.949 . S
C3691 H3686 0.950 . S
C3691 C3693 1.327 . S
C3691 C3697 1.429 . S
C3692 C3684 1.574 . S
C3692 H3687 0.949 . S
C3692 C3698 1.368 . S
C3693 C3677 1.349 . S
C3693 H3685 0.950 . S
C3693 C3691 1.327 . S
C3694 C3682 1.349 . S
C3694 H3688 0.950 . S
C3694 C3695 1.327 . S
C3695 H3689 0.950 . S
C3695 C3694 1.327 . S
C3695 C3699 1.429 . S
C3696 C3679 1.574 . S
C3696 H3690 0.949 . S
C3696 C3700 1.368 . S
C3697 C3678 1.429 . S
C3697 C3691 1.429 . S
C3697 C3698 1.523 . S
C3698 C3679 1.368 . S
C3698 C3692 1.368 . S
C3698 C3697 1.523 . S
C3699 C3683 1.429 . S
C3699 C3695 1.429 . S
C3699 C3700 1.523 . S
C3700 C3684 1.368 . S
C3700 C3696 1.368 . S
C3700 C3699 1.523 . S
H3701 C3676 0.950 . S
H3702 C3678 0.950 . S
H3703 C3679 0.949 . S
H3704 C3681 0.950 . S
H3705 C3683 0.950 . S
C3706 C3707 1.349 . S
C3706 C3708 1.327 . S
C3706 H3731 0.950 . S
C3707 C3706 1.349 . S
C3707 C3723 1.349 1_554 S
C3708 C3706 1.327 . S
C3708 C3727 1.429 . S
C3708 H3732 0.950 . S
C3709 C3726 1.574 . S
C3709 C3728 1.368 1_556 S
C3709 H3733 0.949 . S
H3710 C3714 0.949 . S
C3711 C3712 1.349 1_556 S
C3711 C3713 1.327 . S
C3711 H3734 0.950 . S
C3712 C3711 1.349 1_554 S
C3712 C3724 1.349 . S
C3713 C3711 1.327 . S
C3713 C3729 1.429 1_556 S
C3713 H3735 0.950 . S
C3714 H3710 0.949 . S
C3714 C3722 1.574 . S
C3714 C3730 1.368 . S
H3715 C3723 0.950 . S
H3716 C3721 0.950 . S
H3717 C3722 0.949 . S
H3718 C3724 0.950 . S
H3719 C3725 0.950 . S
H3720 C3726 0.949 . S
C3721 H3716 0.950 . S
C3721 C3723 1.327 . S
C3721 C3727 1.429 1_556 S
C3722 C3714 1.574 . S
C3722 H3717 0.949 . S
C3722 C3728 1.368 . S
C3723 C3707 1.349 1_556 S
C3723 H3715 0.950 . S
C3723 C3721 1.327 . S
C3724 C3712 1.349 . S
C3724 H3718 0.950 . S
C3724 C3725 1.327 . S
C3725 H3719 0.950 . S
C3725 C3724 1.327 . S
C3725 C3729 1.429 . S
C3726 C3709 1.574 . S
C3726 H3720 0.949 . S
C3726 C3730 1.368 1_556 S
C3727 C3708 1.429 . S
C3727 C3721 1.429 1_554 S
C3727 C3728 1.523 . S
C3728 C3709 1.368 1_554 S
C3728 C3722 1.368 . S
C3728 C3727 1.523 . S
C3729 C3713 1.429 1_554 S
C3729 C3725 1.429 . S
C3729 C3730 1.523 . S
C3730 C3714 1.368 . S
C3730 C3726 1.368 1_554 S
C3730 C3729 1.523 . S
H3731 C3706 0.950 . S
H3732 C3708 0.950 . S
H3733 C3709 0.949 . S
H3734 C3711 0.950 . S
H3735 C3713 0.950 . S
C3736 C3737 1.349 . S
C3736 C3738 1.327 . S
C3736 H3761 0.950 . S
C3737 C3736 1.349 . S
C3737 C3753 1.349 . S
C3738 C3736 1.327 . S
C3738 C3757 1.429 . S
C3738 H3762 0.950 . S
C3739 C3756 1.574 . S
C3739 C3758 1.368 . S
C3739 H3763 0.949 . S
H3740 C3744 0.949 . S
C3741 C3742 1.349 . S
C3741 C3743 1.327 . S
C3741 H3764 0.950 . S
C3742 C3741 1.349 . S
C3742 C3754 1.349 . S
C3743 C3741 1.327 . S
C3743 C3759 1.429 . S
C3743 H3765 0.950 . S
C3744 H3740 0.949 . S
C3744 C3752 1.574 . S
C3744 C3760 1.368 . S
H3745 C3753 0.950 . S
H3746 C3751 0.950 . S
H3747 C3752 0.949 . S
H3748 C3754 0.950 . S
H3749 C3755 0.950 . S
H3750 C3756 0.949 . S
C3751 H3746 0.950 . S
C3751 C3753 1.327 . S
C3751 C3757 1.429 . S
C3752 C3744 1.574 . S
C3752 H3747 0.949 . S
C3752 C3758 1.368 . S
C3753 C3737 1.349 . S
C3753 H3745 0.950 . S
C3753 C3751 1.327 . S
C3754 C3742 1.349 . S
C3754 H3748 0.950 . S
C3754 C3755 1.327 . S
C3755 H3749 0.950 . S
C3755 C3754 1.327 . S
C3755 C3759 1.429 . S
C3756 C3739 1.574 . S
C3756 H3750 0.949 . S
C3756 C3760 1.368 . S
C3757 C3738 1.429 . S
C3757 C3751 1.429 . S
C3757 C3758 1.523 . S
C3758 C3739 1.368 . S
C3758 C3752 1.368 . S
C3758 C3757 1.523 . S
C3759 C3743 1.429 . S
C3759 C3755 1.429 . S
C3759 C3760 1.523 . S
C3760 C3744 1.368 . S
C3760 C3756 1.368 . S
C3760 C3759 1.523 . S
H3761 C3736 0.950 . S
H3762 C3738 0.950 . S
H3763 C3739 0.949 . S
H3764 C3741 0.950 . S
H3765 C3743 0.950 . S
C3766 C3767 1.385 . S
C3766 C3768 1.317 1_554 S
C3766 H3791 0.926 1_554 S
C3767 C3766 1.385 . S
C3767 C3783 1.349 . S
C3768 C3766 1.317 1_556 S
C3768 C3787 1.429 1_556 S
C3768 H3792 0.950 . S
C3769 C3786 1.574 . S
C3769 C3788 1.368 . S
C3769 H3793 0.949 . S
H3770 C3774 0.949 . S
C3771 C3772 1.349 1_554 S
C3771 C3773 1.327 . S
C3771 H3794 0.950 . S
C3772 C3771 1.349 1_556 S
C3772 C3784 1.349 . S
C3773 C3771 1.327 . S
C3773 C3789 1.429 1_554 S
C3773 H3795 0.950 . S
C3774 H3770 0.949 . S
C3774 C3782 1.574 . S
C3774 C3790 1.368 . S
H3775 C3783 0.950 . S
H3776 C3781 0.950 . S
H3777 C3782 0.949 . S
H3778 C3784 0.950 . S
H3779 C3785 0.950 . S
H3780 C3786 0.949 . S
C3781 H3776 0.950 . S
C3781 C3783 1.327 . S
C3781 C3787 1.429 . S
C3782 C3774 1.574 . S
C3782 H3777 0.949 . S
C3782 C3788 1.368 1_556 S
C3783 C3767 1.349 . S
C3783 H3775 0.950 . S
C3783 C3781 1.327 . S
C3784 C3772 1.349 . S
C3784 H3778 0.950 . S
C3784 C3785 1.327 . S
C3785 H3779 0.950 . S
C3785 C3784 1.327 . S
C3785 C3789 1.429 . S
C3786 C3769 1.574 . S
C3786 H3780 0.949 . S
C3786 C3790 1.368 1_554 S
C3787 C3768 1.429 1_554 S
C3787 C3781 1.429 . S
C3787 C3788 1.523 . S
C3788 C3769 1.368 . S
C3788 C3782 1.368 1_554 S
C3788 C3787 1.523 . S
C3789 C3773 1.429 1_556 S
C3789 C3785 1.429 . S
C3789 C3790 1.523 . S
C3790 C3774 1.368 . S
C3790 C3786 1.368 1_556 S
C3790 C3789 1.523 . S
H3791 C3766 0.926 1_556 S
H3792 C3768 0.950 . S
H3793 C3769 0.949 . S
H3794 C3771 0.950 . S
H3795 C3773 0.950 . S
C3796 C3797 1.349 . S
C3796 C3798 1.327 . S
C3796 H3821 0.950 1_565 S
C3797 C3796 1.349 . S
C3797 C3813 1.351 . S
C3798 C3796 1.327 . S
C3798 C3817 1.429 . S
C3798 H3822 0.950 . S
C3799 C3816 1.574 . S
C3799 C3818 1.368 . S
C3799 H3823 0.949 . S
H3800 C3804 0.949 . S
C3801 C3802 1.349 . S
C3801 C3803 1.327 . S
C3801 H3824 0.950 . S
C3802 C3801 1.349 . S
C3802 C3814 1.349 . S
C3803 C3801 1.327 . S
C3803 C3819 1.429 . S
C3803 H3825 0.950 . S
C3804 H3800 0.949 . S
C3804 C3812 1.574 . S
C3804 C3820 1.368 . S
H3805 C3813 0.950 . S
H3806 C3811 0.950 . S
H3807 C3812 0.949 . S
H3808 C3814 0.950 . S
H3809 C3815 0.950 . S
H3810 C3816 0.949 . S
C3811 H3806 0.950 . S
C3811 C3813 1.327 . S
C3811 C3817 1.429 . S
C3812 C3804 1.574 . S
C3812 H3807 0.949 . S
C3812 C3818 1.368 . S
C3813 C3797 1.351 . S
C3813 H3805 0.950 . S
C3813 C3811 1.327 . S
C3814 C3802 1.349 . S
C3814 H3808 0.950 . S
C3814 C3815 1.327 . S
C3815 H3809 0.950 . S
C3815 C3814 1.327 . S
C3815 C3819 1.429 . S
C3816 C3799 1.574 . S
C3816 H3810 0.949 . S
C3816 C3820 1.368 . S
C3817 C3798 1.429 . S
C3817 C3811 1.429 . S
C3817 C3818 1.523 . S
C3818 C3799 1.368 . S
C3818 C3812 1.368 . S
C3818 C3817 1.523 . S
C3819 C3803 1.429 . S
C3819 C3815 1.429 . S
C3819 C3820 1.523 . S
C3820 C3804 1.368 . S
C3820 C3816 1.368 . S
C3820 C3819 1.523 . S
H3821 C3796 0.950 1_545 S
H3822 C3798 0.950 . S
H3823 C3799 0.949 . S
H3824 C3801 0.950 . S
H3825 C3803 0.950 . S
C3826 C3827 1.349 . S
C3826 C3828 1.327 . S
C3826 H3851 0.950 . S
C3827 C3826 1.349 . S
C3827 C3843 1.349 . S
C3828 C3826 1.327 . S
C3828 C3847 1.429 . S
C3828 H3852 0.950 . S
C3829 C3846 1.574 . S
C3829 C3848 1.368 . S
C3829 H3853 0.949 . S
H3830 C3834 0.949 . S
C3831 C3832 1.349 . S
C3831 C3833 1.327 . S
C3831 H3854 0.950 . S
C3832 C3831 1.349 . S
C3832 C3844 1.349 . S
C3833 C3831 1.327 . S
C3833 C3849 1.429 . S
C3833 H3855 0.950 . S
C3834 H3830 0.949 . S
C3834 C3842 1.574 . S
C3834 C3850 1.368 . S
H3835 C3843 0.950 . S
H3836 C3841 0.950 . S
H3837 C3842 0.949 . S
H3838 C3844 0.950 . S
H3839 C3845 0.950 . S
H3840 C3846 0.949 . S
C3841 H3836 0.950 . S
C3841 C3843 1.327 . S
C3841 C3847 1.429 . S
C3842 C3834 1.574 . S
C3842 H3837 0.949 . S
C3842 C3848 1.368 . S
C3843 C3827 1.349 . S
C3843 H3835 0.950 . S
C3843 C3841 1.327 . S
C3844 C3832 1.349 . S
C3844 H3838 0.950 . S
C3844 C3845 1.327 . S
C3845 H3839 0.950 . S
C3845 C3844 1.327 . S
C3845 C3849 1.429 . S
C3846 C3829 1.574 . S
C3846 H3840 0.949 . S
C3846 C3850 1.368 . S
C3847 C3828 1.429 . S
C3847 C3841 1.429 . S
C3847 C3848 1.523 . S
C3848 C3829 1.368 . S
C3848 C3842 1.368 . S
C3848 C3847 1.523 . S
C3849 C3833 1.429 . S
C3849 C3845 1.429 . S
C3849 C3850 1.523 . S
C3850 C3834 1.368 . S
C3850 C3846 1.368 . S
C3850 C3849 1.523 . S
H3851 C3826 0.950 . S
H3852 C3828 0.950 . S
H3853 C3829 0.949 . S
H3854 C3831 0.950 . S
H3855 C3833 0.950 . S
C977 C111 2.094 . S
C982 C338 2.098 . S
C1007 C64 2.029 . S
C1012 C395 2.100 . S
C1037 C77 0.899 . S
C1042 C418 0.891 . S
C1072 C472 1.192 . S
C1067 C95 1.197 . S
C1097 C25 0.986 . S
C1102 C512 0.970 . S
C1132 C543 0.280 . S
C1127 C36 0.394 . S
C1162 C595 1.145 . S
C1157 C50 1.081 . S
C1187 C11 1.616 . S
C1192 C618 1.556 . S
C1222 C355 2.356 . S
C1217 C237 2.243 . S
C1247 C245 0.251 . S
C1252 C392 0.350 . S
C1282 C435 1.220 . S
C1277 C279 1.155 . S
C1312 C458 1.079 . S
C1307 C175 1.086 . S
C1337 C231 1.579 . S
C1342 C498 1.576 . S
C1372 C546 1.377 . S
C1367 C251 1.317 . S
C1402 C592 0.308 . S
C1397 C273 0.172 . S
C1432 C635 1.910 . S
C1427 C181 1.860 . S
C1462 C352 1.350 . S
C1457 C165 1.334 . S
C1487 C288 1.926 1_556 S
C1492 C675 1.984 . S
C1522 C707 2.525 . S
C1517 C333 2.576 . S
C1552 C738 0.433 . S
C1547 C316 0.474 . S
C1577 C123 1.200 . S
C1582 C632 1.168 . S
C1607 C137 1.395 . S
C1612 C432 1.372 . S
C1637 C330 2.222 . S
C1642 C795 2.285 . S
C1672 C818 0.430 . S
C1667 C302 0.387 . S
C1702 C347 2.234 . S
C1697 C63 2.267 . S
C1732 C826 2.147 . S
C1727 C106 2.140 . S
C1757 C97 1.004 . S
C1762 C427 1.026 . S
C1787 C81 1.277 . S
C1792 C783 1.280 . S
C1822 C503 1.104 . S
C1817 C13 1.038 . S
C1847 C55 0.485 . S
C1852 C712 0.277 . S
C1882 C586 1.183 1_565 S
C1877 C35 1.162 . S
C1912 C867 1.761 . S
C1907 C21 1.816 . S
C1942 C346 2.487 . S
C1937 C147 2.499 . S
C1972 C823 0.316 . S
C1967 C321 0.514 . S
C1997 C119 1.315 . S
C2002 C426 1.304 . S
C2027 C293 1.206 . S
C2032 C787 1.255 . S
C2057 C153 1.660 . S
C2062 C507 1.801 . S
C2092 C715 1.422 . S
C2087 C315 1.445 . S
C2117 C125 0.464 . S
C2122 C583 0.253 1_565 S
C2147 C287 2.063 . S
C2152 C866 2.035 . S
C2177 C193 1.375 . S
C2182 C343 1.378 . S
C2207 C176 2.002 . S
C2212 C666 2.024 . S
C2237 C263 2.530 . S
C2242 C538 2.475 . S
C2267 C246 0.702 . S
C2272 C747 0.688 . S
C2302 C863 1.229 . S
C2297 C277 1.229 . S
C2327 C221 1.405 . S
C2332 C423 1.408 . S
C2362 C466 2.353 . S
C2357 C260 2.325 . S
C2392 C387 0.562 . S
C2387 C204 0.575 . S
C2417 C83 2.094 . S
C2422 C898 2.098 . S
C2452 C835 2.099 . S
C2447 C92 2.029 . S
C2477 C105 0.899 . S
C2482 C938 0.891 . S
C2507 C67 1.197 . S
C2512 C792 1.192 . S
C2537 C53 0.987 . S
C2542 C672 0.969 . S
C2572 C703 0.280 . S
C2567 C8 0.395 . S
C2602 C755 1.146 . S
C2597 C22 1.081 . S
C2632 C858 1.556 . S
C2627 C39 1.616 . S
C2662 C915 2.356 . S
C2657 C265 2.243 . S
C2687 C189 0.251 . S
C2692 C832 0.350 . S
C2722 C955 1.220 . S
C2717 C209 1.155 . S
C2752 C778 1.080 . S
C2747 C217 1.087 . S
C2782 C658 1.576 . S
C2777 C259 1.579 . S
C2807 C195 1.317 . S
C2812 C706 1.376 . S
C2842 C752 0.308 . S
C2837 C203 0.172 . S
C2867 C223 1.860 . S
C2872 C875 1.910 . S
C2902 C912 1.312 . S
C2897 C319 1.334 . S
C2927 C134 1.923 . S
C2932 C515 1.984 . S
C2962 C547 2.526 . S
C2957 C151 2.583 . S
C2992 C578 0.432 . S
C2987 C162 0.474 . S
C3022 C872 1.168 . S
C3017 C305 1.200 . S
C3047 C291 1.394 . S
C3052 C952 1.371 . S
C3082 C475 2.282 . S
C3077 C148 2.214 . S
C3112 C378 0.430 . S
C3107 C120 0.387 . S
C3137 C91 2.266 . S
C3142 C907 2.234 . S
C3172 C386 2.147 . S
C3167 C78 2.140 . S
C3197 C69 1.004 . S
C3202 C947 1.026 . S
C3227 C109 1.277 . S
C3232 C463 1.280 . S
C3257 C41 1.038 . S
C3262 C663 1.104 . S
C3292 C552 0.276 . S
C3287 C27 0.482 . S
C3317 C7 1.162 . S
C3322 C746 1.184 . S
C3347 C49 1.809 . S
C3352 C627 1.761 . S
C3382 C906 2.487 . S
C3377 C329 2.499 . S
C3407 C167 0.514 . S
C3412 C383 0.316 . S
C3442 C946 1.303 . S
C3437 C301 1.315 . S
C3467 C139 1.206 . S
C3472 C467 1.255 . S
C3497 C335 1.660 . S
C3502 C667 1.804 . S
C3532 C555 1.421 . S
C3527 C161 1.444 . S
C3557 C307 0.464 . S
C3562 C743 0.253 . S
C3592 C626 2.035 . S
C3587 C133 2.063 . S
C3622 C903 1.378 . S
C3617 C249 1.375 . S
C3652 C506 2.025 1_655 S
C3647 C218 2.003 . S
C3677 C235 2.530 . S
C3682 C698 2.475 . S
C3712 C587 0.688 . S
C3707 C190 0.702 . S
C3737 C207 1.229 . S
C3742 C623 1.229 . S
C3767 C179 1.405 . S
C3772 C943 1.408 . S
C3802 C786 2.354 . S
C3797 C232 2.323 1_565 S
C3832 C827 0.562 . S
C3827 C274 0.576 . S
